# Generated by pormake.
# Topology ftb, (5)-cn, num edge types: 1
# Building blocks:
#     Node 0, Type 0, BuildingBlock: BEQFEK_clean_sbu_0, # of connection points: 5
#     Node 1, Type 0, BuildingBlock: BEQFEK_clean_sbu_0, # of connection points: 5
#     Node 2, Type 0, BuildingBlock: BEQFEK_clean_sbu_0, # of connection points: 5
#     Node 3, Type 0, BuildingBlock: BEQFEK_clean_sbu_0, # of connection points: 5
#     Node 4, Type 0, BuildingBlock: BEQFEK_clean_sbu_0, # of connection points: 5
#     Node 5, Type 0, BuildingBlock: BEQFEK_clean_sbu_0, # of connection points: 5
#     Node 6, Type 0, BuildingBlock: BEQFEK_clean_sbu_0, # of connection points: 5
#     Node 7, Type 0, BuildingBlock: BEQFEK_clean_sbu_0, # of connection points: 5
#     Edge 8, Type (0, 0), BuildingBlock: AJUNOK_clean_linker_0, # of connection points: 2
#     Edge 9, Type (0, 0), BuildingBlock: AJUNOK_clean_linker_0, # of connection points: 2
#     Edge 10, Type (0, 0), BuildingBlock: AJUNOK_clean_linker_0, # of connection points: 2
#     Edge 11, Type (0, 0), BuildingBlock: AJUNOK_clean_linker_0, # of connection points: 2
#     Edge 12, Type (0, 0), BuildingBlock: AJUNOK_clean_linker_0, # of connection points: 2
#     Edge 13, Type (0, 0), BuildingBlock: AJUNOK_clean_linker_0, # of connection points: 2
#     Edge 14, Type (0, 0), BuildingBlock: AJUNOK_clean_linker_0, # of connection points: 2
#     Edge 15, Type (0, 0), BuildingBlock: AJUNOK_clean_linker_0, # of connection points: 2
#     Edge 16, Type (0, 0), BuildingBlock: AJUNOK_clean_linker_0, # of connection points: 2
#     Edge 17, Type (0, 0), BuildingBlock: AJUNOK_clean_linker_0, # of connection points: 2
#     Edge 18, Type (0, 0), BuildingBlock: AJUNOK_clean_linker_0, # of connection points: 2
#     Edge 19, Type (0, 0), BuildingBlock: AJUNOK_clean_linker_0, # of connection points: 2
#     Edge 20, Type (0, 0), BuildingBlock: AJUNOK_clean_linker_0, # of connection points: 2
#     Edge 21, Type (0, 0), BuildingBlock: AJUNOK_clean_linker_0, # of connection points: 2
#     Edge 22, Type (0, 0), BuildingBlock: AJUNOK_clean_linker_0, # of connection points: 2
#     Edge 23, Type (0, 0), BuildingBlock: AJUNOK_clean_linker_0, # of connection points: 2
#     Edge 24, Type (0, 0), BuildingBlock: AJUNOK_clean_linker_0, # of connection points: 2
#     Edge 25, Type (0, 0), BuildingBlock: AJUNOK_clean_linker_0, # of connection points: 2
#     Edge 26, Type (0, 0), BuildingBlock: AJUNOK_clean_linker_0, # of connection points: 2
#     Edge 27, Type (0, 0), BuildingBlock: AJUNOK_clean_linker_0, # of connection points: 2
# Relax obj value: 0.112
# Max RMSD: 0.196
# Mean RMSD: 0.196
data_MOF--net-ftb--node1-BEQFEK_clean_sbu_0--edge1-AJUNOK_clean_linker_0
_symmetry_space_group_name_H-M    P1
_symmetry_Int_Tables_number       1
_symmetry_cell_setting            triclinic
loop_
_symmetry_equiv_pos_as_xyz
'x, y, z'
_cell_length_a     42.468688
_cell_length_b     11.451995
_cell_length_c     29.036527
_cell_angle_alpha  90.18862
_cell_angle_beta   92.94582
_cell_angle_gamma 90.008557
loop_
_atom_site_label
_atom_site_type_symbol
_atom_site_fract_x
_atom_site_fract_y
_atom_site_fract_z
_atom_type_partial_charge
Co0 Co 0.34819 0.06374 0.10434 0.0
Co1 Co 0.34788 0.02795 0.99655 0.0
C2 C 0.31525 0.86975 0.06498 0.0
O3 O 0.32868 0.90861 0.10221 0.0
O4 O 0.32294 0.90597 0.02566 0.0
C5 C 0.35374 0.08081 0.20603 0.0
O6 O 0.35713 0.96693 0.20824 0.0
C7 C 0.3519 0.8878 0.91146 0.0
C8 C 0.35907 0.02618 0.86011 0.0
C9 C 0.35563 0.90667 0.8648 0.0
N10 N 0.35369 0.99158 0.93332 0.0
N11 N 0.35787 0.07375 0.90237 0.0
C12 C 0.34271 0.77667 0.93423 0.0
H13 H 0.31942 0.78863 0.94921 0.0
H14 H 0.3601 0.7566 0.96295 0.0
H15 H 0.34089 0.70235 0.90971 0.0
C16 C 0.4161 0.09347 0.09127 0.0
N17 N 0.38645 0.07339 0.07458 0.0
N18 N 0.38643 0.05993 0.02957 0.0
C19 C 0.41616 0.07076 0.01614 0.0
C20 C 0.43588 0.09244 0.05478 0.0
C21 C 0.42521 0.10756 0.14142 0.0
H22 H 0.41409 0.0374 0.16123 0.0
H23 H 0.45116 0.10467 0.14806 0.0
H24 H 0.41612 0.19239 0.15368 0.0
O25 O 0.31459 0.15395 0.07301 0.0
O26 O 0.31794 0.1587 0.99722 0.0
H27 H 0.45094 0.07677 0.96392 0.0
H28 H 0.41817 0.97785 0.95229 0.0
C29 C 0.42526 0.06392 0.96709 0.0
H30 H 0.41257 0.13276 0.94688 0.0
H31 H 0.35916 0.16279 0.91 0.0
O32 O 0.35138 0.13087 0.16706 0.0
C33 C 0.30394 0.18589 0.03339 0.0
Co34 Co 0.6499 0.0149 0.00106 0.0
Co35 Co 0.64823 0.94431 0.10651 0.0
C36 C 0.6557 0.78307 0.03305 0.0
O37 O 0.64671 0.84235 0.99775 0.0
O38 O 0.64141 0.7993 0.07 0.0
C39 C 0.63497 0.05088 0.90171 0.0
O40 O 0.62043 0.9496 0.90075 0.0
C41 C 0.63553 0.834 0.19648 0.0
C42 C 0.65234 0.97537 0.24358 0.0
C43 C 0.63996 0.86354 0.24285 0.0
N44 N 0.64487 0.92472 0.17118 0.0
N45 N 0.65485 0.00867 0.19963 0.0
C46 C 0.62173 0.72369 0.17649 0.0
H47 H 0.60932 0.74142 0.14269 0.0
H48 H 0.60512 0.68406 0.20027 0.0
H49 H 0.64097 0.66048 0.17099 0.0
C50 C 0.59052 0.12776 0.02549 0.0
N51 N 0.61835 0.0785 0.03841 0.0
N52 N 0.61825 0.0523 0.08255 0.0
C53 C 0.59031 0.08312 0.09881 0.0
C54 C 0.57163 0.13095 0.0631 0.0
C55 C 0.57985 0.14967 0.97637 0.0
H56 H 0.59724 0.20621 0.95998 0.0
H57 H 0.57847 0.0654 0.95744 0.0
H58 H 0.55639 0.19263 0.97385 0.0
O59 O 0.6927 0.05145 0.02695 0.0
O60 O 0.69147 0.00316 0.10061 0.0
H61 H 0.59503 0.07718 0.17244 0.0
H62 H 0.55474 0.07337 0.1497 0.0
C63 C 0.57907 0.04292 0.14416 0.0
H64 H 0.57967 0.94615 0.14547 0.0
H65 H 0.66378 0.08846 0.18893 0.0
O66 O 0.64778 0.08837 0.9394 0.0
C67 C 0.7062 0.04141 0.06686 0.0
Co68 Co 0.33772 0.56625 0.60608 0.0
Co69 Co 0.34067 0.48119 0.50303 0.0
C70 C 0.3236 0.32348 0.58154 0.0
O71 O 0.33095 0.3983 0.61284 0.0
O72 O 0.32773 0.3442 0.53901 0.0
C73 C 0.34939 0.59973 0.7049 0.0
O74 O 0.35951 0.49134 0.70542 0.0
C75 C 0.34587 0.34652 0.41597 0.0
C76 C 0.35639 0.49054 0.36861 0.0
C77 C 0.35116 0.37134 0.37014 0.0
N78 N 0.34812 0.44683 0.44022 0.0
N79 N 0.35427 0.5323 0.41159 0.0
C80 C 0.33531 0.2335 0.4357 0.0
H81 H 0.3139 0.24908 0.45514 0.0
H82 H 0.35399 0.20015 0.46036 0.0
H83 H 0.32988 0.16711 0.40857 0.0
C84 C 0.40255 0.63969 0.58882 0.0
N85 N 0.37414 0.59831 0.57383 0.0
N86 N 0.37602 0.55774 0.53162 0.0
C87 C 0.40593 0.56923 0.51895 0.0
C88 C 0.42352 0.6229 0.55449 0.0
C89 C 0.41055 0.67911 0.63717 0.0
H90 H 0.40971 0.60305 0.66062 0.0
H91 H 0.43445 0.71848 0.6405 0.0
H92 H 0.39294 0.74411 0.64773 0.0
O93 O 0.29833 0.61719 0.57394 0.0
O94 O 0.30225 0.57731 0.49959 0.0
H95 H 0.41247 0.57441 0.44659 0.0
H96 H 0.44453 0.50768 0.47912 0.0
C97 C 0.4185 0.51666 0.47628 0.0
H98 H 0.40777 0.42965 0.4695 0.0
H99 H 0.35641 0.61986 0.42134 0.0
O100 O 0.33955 0.64498 0.66693 0.0
C101 C 0.28683 0.61598 0.53267 0.0
Co102 Co 0.64524 0.58551 0.51301 0.0
Co103 Co 0.64558 0.49409 0.61542 0.0
C104 C 0.67029 0.35175 0.54107 0.0
O105 O 0.6647 0.42934 0.51044 0.0
O106 O 0.65777 0.35604 0.58001 0.0
C107 C 0.63985 0.59853 0.4127 0.0
O108 O 0.64701 0.48692 0.41317 0.0
C109 C 0.63928 0.35055 0.69903 0.0
C110 C 0.6389 0.48771 0.75276 0.0
C111 C 0.63753 0.36799 0.7462 0.0
N112 N 0.64098 0.45564 0.67867 0.0
N113 N 0.64082 0.53701 0.71104 0.0
C114 C 0.64275 0.23703 0.67411 0.0
H115 H 0.66501 0.23804 0.65578 0.0
H116 H 0.62299 0.22692 0.64788 0.0
H117 H 0.64338 0.16147 0.69789 0.0
C118 C 0.57865 0.62742 0.53244 0.0
N119 N 0.60806 0.59405 0.54595 0.0
N120 N 0.60831 0.559 0.58903 0.0
C121 C 0.57898 0.56769 0.60423 0.0
C122 C 0.55931 0.61231 0.569 0.0
C123 C 0.56888 0.66221 0.48417 0.0
H124 H 0.57767 0.5969 0.45963 0.0
H125 H 0.5429 0.66947 0.47894 0.0
H126 H 0.57976 0.74759 0.4766 0.0
O127 O 0.68014 0.67331 0.54329 0.0
O128 O 0.68239 0.59982 0.61421 0.0
H129 H 0.58249 0.5834 0.67756 0.0
H130 H 0.5441 0.53905 0.65516 0.0
C131 C 0.56977 0.52939 0.65091 0.0
H132 H 0.57672 0.43694 0.65649 0.0
H133 H 0.64245 0.62637 0.70462 0.0
O134 O 0.63801 0.65288 0.45068 0.0
C135 C 0.69368 0.66304 0.58319 0.0
Co136 Co 0.84558 0.07739 0.60864 0.0
Co137 Co 0.8408 -0.00128 0.50397 0.0
C138 C 0.81729 0.85194 0.58259 0.0
O139 O 0.82816 0.91987 0.61445 0.0
O140 O 0.82167 0.87161 0.54006 0.0
C141 C 0.85672 0.11027 0.70818 0.0
O142 O 0.86111 -0.00307 0.71097 0.0
C143 C 0.84268 0.85316 0.41917 0.0
C144 C 0.85341 0.98762 0.36788 0.0
C145 C 0.84816 0.86912 0.37283 0.0
N146 N 0.84536 0.95721 0.4407 0.0
N147 N 0.85153 0.03713 0.40969 0.0
C148 C 0.83105 0.74544 0.44161 0.0
H149 H 0.80911 0.76725 0.45883 0.0
H150 H 0.84883 0.71591 0.46841 0.0
H151 H 0.82585 0.67422 0.4164 0.0
C152 C 0.91168 0.11111 0.58783 0.0
N153 N 0.88185 0.08229 0.57484 0.0
N154 N 0.8805 0.04761 0.53153 0.0
C155 C 0.9099 0.05057 0.51596 0.0
C156 C 0.93038 0.09246 0.55092 0.0
C157 C 0.92222 0.14707 0.63576 0.0
H158 H 0.91577 0.07795 0.66024 0.0
H159 H 0.94804 0.16218 0.63922 0.0
H160 H 0.9097 0.22814 0.64507 0.0
O161 O 0.81122 0.16144 0.57784 0.0
O162 O 0.80781 0.12188 0.50328 0.0
H163 H 0.91043 0.07651 0.44331 0.0
H164 H 0.94442 0.00056 0.46708 0.0
C165 C 0.91856 0.01066 0.46914 0.0
H166 H 0.90686 0.92627 0.4605 0.0
H167 H 0.85429 0.12589 0.41711 0.0
O168 O 0.85122 0.15697 0.669 0.0
C169 C 0.79771 0.17426 0.53827 0.0
Co170 Co 0.15161 0.06187 0.50694 0.0
Co171 Co 0.15046 0.97711 0.60983 0.0
C172 C 0.16682 0.82005 0.5298 0.0
O173 O 0.15916 0.89465 0.49869 0.0
O174 O 0.16357 0.84143 0.57256 0.0
C175 C 0.14358 0.10337 0.40756 0.0
O176 O 0.13639 0.99216 0.40319 0.0
C177 C 0.13837 0.83617 0.69266 0.0
C178 C 0.14416 0.97223 0.74663 0.0
C179 C 0.13828 0.85434 0.74002 0.0
N180 N 0.14435 0.93874 0.67246 0.0
N181 N 0.14771 0.01951 0.70494 0.0
C182 C 0.13145 0.72553 0.66668 0.0
H183 H 0.11962 0.7452 0.6326 0.0
H184 H 0.11651 0.66651 0.68656 0.0
H185 H 0.15397 0.68079 0.66058 0.0
C186 C 0.08641 0.1262 0.52568 0.0
N187 N 0.11536 0.08958 0.54009 0.0
N188 N 0.11459 0.05229 0.58279 0.0
C189 C 0.085 0.06312 0.59681 0.0
C190 C 0.06625 0.11063 0.56117 0.0
C191 C 0.07745 0.15932 0.47697 0.0
H192 H 0.0926 0.23248 0.46646 0.0
H193 H 0.08169 0.08404 0.45395 0.0
H194 H 0.05232 0.18576 0.47279 0.0
O195 O 0.19094 0.11561 0.53876 0.0
O196 O 0.18827 0.07621 0.6131 0.0
H197 H 0.08755 0.06128 0.67048 0.0
H198 H 0.04862 0.03306 0.64516 0.0
C199 C 0.07416 0.01745 0.64156 0.0
H200 H 0.07901 0.92242 0.64381 0.0
H201 H 0.15276 0.10701 0.6986 0.0
O202 O 0.14947 0.14604 0.4475 0.0
C203 C 0.20297 0.11662 0.57973 0.0
Co204 Co 0.83701 0.54222 0.11214 0.0
Co205 Co 0.8354 0.49765 0.00463 0.0
C206 C 0.8172 0.31352 0.07421 0.0
O207 O 0.82445 0.37646 0.10953 0.0
O208 O 0.82087 0.35083 0.03337 0.0
C209 C 0.84701 0.55786 0.21426 0.0
O210 O 0.85294 0.44538 0.21624 0.0
C211 C 0.84156 0.37831 0.91496 0.0
C212 C 0.85236 0.5265 0.86988 0.0
C213 C 0.84885 0.4063 0.87023 0.0
N214 N 0.84173 0.47706 0.94018 0.0
N215 N 0.84784 0.56539 0.91284 0.0
C216 C 0.83073 0.26316 0.93228 0.0
H217 H 0.80777 0.27593 0.94809 0.0
H218 H 0.84795 0.23074 0.9593 0.0
H219 H 0.82753 0.19753 0.90428 0.0
C220 C 0.90314 0.59352 0.09621 0.0
N221 N 0.87355 0.56978 0.08023 0.0
N222 N 0.87335 0.55023 0.03552 0.0
C223 C 0.90312 0.55928 0.02184 0.0
C224 C 0.92272 0.5885 0.0597 0.0
C225 C 0.9129 0.60718 0.14617 0.0
H226 H 0.90687 0.52646 0.16482 0.0
H227 H 0.93856 0.62436 0.15129 0.0
H228 H 0.89961 0.68051 0.16096 0.0
O229 O 0.8008 0.6262 0.08513 0.0
O230 O 0.79977 0.60859 0.00933 0.0
H231 H 0.90585 0.59476 0.95005 0.0
H232 H 0.93944 0.51747 0.97459 0.0
C233 C 0.91343 0.5261 0.97502 0.0
H234 H 0.90236 0.44222 0.96398 0.0
H235 H 0.84915 0.65235 0.92364 0.0
O236 O 0.84104 0.60608 0.17548 0.0
C237 C 0.78784 0.64704 0.04573 0.0
Co238 Co 0.14287 0.57398 0.00494 0.0
Co239 Co 0.14938 0.50342 0.11047 0.0
C240 C 0.1774 0.36108 0.03593 0.0
O241 O 0.16598 0.42615 0.00383 0.0
O242 O 0.17083 0.37694 0.07794 0.0
C243 C 0.13922 0.57382 0.90514 0.0
O244 O 0.15151 0.46893 0.90898 0.0
C245 C 0.14886 0.37505 0.19961 0.0
C246 C 0.14164 0.5223 0.24731 0.0
C247 C 0.14565 0.40238 0.24589 0.0
N248 N 0.14658 0.47449 0.17503 0.0
N249 N 0.14244 0.56194 0.20388 0.0
C250 C 0.15634 0.25878 0.17926 0.0
H251 H 0.17536 0.26906 0.15493 0.0
H252 H 0.13515 0.22501 0.15959 0.0
H253 H 0.16413 0.19485 0.20608 0.0
C254 C 0.0763 0.58499 0.026 0.0
N255 N 0.10671 0.56658 0.03896 0.0
N256 N 0.10897 0.53672 0.08271 0.0
C257 C 0.07979 0.53362 0.09888 0.0
C258 C 0.05828 0.56478 0.0635 0.0
C259 C 0.06485 0.61532 0.97791 0.0
H260 H 0.07418 0.70236 0.96891 0.0
H261 H 0.07413 0.55073 0.95348 0.0
H262 H 0.03873 0.61652 0.97401 0.0
O263 O 0.17434 0.68109 0.03245 0.0
O264 O 0.17973 0.63287 0.10634 0.0
H265 H 0.08242 0.57124 0.17097 0.0
H266 H 0.04697 0.49607 0.15176 0.0
C267 C 0.07268 0.50267 0.14729 0.0
H268 H 0.08416 0.41856 0.15683 0.0
H269 H 0.14017 0.64907 0.19383 0.0
O270 O 0.13293 0.63004 0.94136 0.0
C271 C 0.18806 0.69247 0.07218 0.0
C272 C 0.3648 0.1839 0.33054 0.0
C273 C 0.34969 0.29327 0.32939 0.0
C274 C 0.36552 0.11397 0.29073 0.0
C275 C 0.35155 0.15203 0.2484 0.0
H276 H 0.37692 0.15367 0.36199 0.0
H277 H 0.37785 0.03121 0.29284 0.0
S278 S 0.30677 0.42754 0.22844 0.0
N279 N 0.31879 0.43294 0.28336 0.0
N280 N 0.32039 0.30312 0.20867 0.0
C281 C 0.33576 0.26016 0.24723 0.0
C282 C 0.33485 0.33049 0.28767 0.0
C283 C 0.64566 0.67489 0.28609 0.0
C284 C 0.63565 0.79188 0.28435 0.0
C285 C 0.64585 0.61146 0.32738 0.0
C286 C 0.63628 0.66308 0.36849 0.0
H287 H 0.65487 0.63355 0.25602 0.0
H288 H 0.65471 0.52278 0.32735 0.0
S289 S 0.60506 0.96419 0.38072 0.0
N290 N 0.61377 0.9543 0.3261 0.0
N291 N 0.61423 0.83623 0.40368 0.0
C292 C 0.625 0.77876 0.36659 0.0
C293 C 0.62475 0.84289 0.32458 0.0
C294 C 0.3327 0.77569 0.74825 0.0
C295 C 0.35045 0.67192 0.74743 0.0
C296 C 0.33422 0.84958 0.78675 0.0
C297 C 0.35343 0.8226 0.82607 0.0
H298 H 0.31756 0.80073 0.71876 0.0
H299 H 0.32026 0.92882 0.78568 0.0
S300 S 0.40613 0.56598 0.84087 0.0
N301 N 0.3886 0.54779 0.78923 0.0
N302 N 0.39188 0.68878 0.86129 0.0
C303 C 0.37144 0.71975 0.82589 0.0
C304 C 0.36979 0.64376 0.78668 0.0
C305 C 0.6583 0.29397 0.82204 0.0
C306 C 0.63718 0.28095 0.7836 0.0
C307 C 0.65771 0.21749 0.85943 0.0
C308 C 0.63584 0.12508 0.86002 0.0
H309 H 0.67542 0.36422 0.82331 0.0
H310 H 0.67449 0.23169 0.88827 0.0
S311 S 0.57407 0.05833 0.7686 0.0
N312 N 0.59277 0.17281 0.7489 0.0
N313 N 0.59191 0.027 0.81895 0.0
C314 C 0.61456 0.11089 0.8216 0.0
C315 C 0.61512 0.18949 0.78349 0.0
C316 C 0.83936 0.29064 0.74809 0.0
C317 C 0.85574 0.18366 0.75018 0.0
C318 C 0.83729 0.36157 0.78716 0.0
C319 C 0.85147 0.32839 0.82987 0.0
H320 H 0.8276 0.3194 0.71612 0.0
H321 H 0.82413 0.44246 0.78402 0.0
S322 S 0.90026 0.06417 0.85271 0.0
N323 N 0.88813 0.05184 0.79794 0.0
N324 N 0.88504 0.18744 0.87113 0.0
C325 C 0.86877 0.22368 0.83226 0.0
C326 C 0.87064 0.15063 0.7925 0.0
C327 C 0.11708 0.73352 0.85507 0.0
C328 C 0.13587 0.63265 0.85978 0.0
C329 C 0.11677 0.80094 0.81496 0.0
C330 C 0.13507 0.76995 0.77787 0.0
H331 H 0.1032 0.7629 0.88317 0.0
H332 H 0.10281 0.88017 0.81352 0.0
S333 S 0.18825 0.51383 0.77241 0.0
N334 N 0.17271 0.50332 0.8232 0.0
N335 N 0.17257 0.63196 0.74822 0.0
C336 C 0.15317 0.66731 0.78132 0.0
C337 C 0.1534 0.59805 0.82218 0.0
C338 C 0.83107 0.8138 0.29267 0.0
C339 C 0.84691 0.78345 0.33454 0.0
C340 C 0.83089 0.73907 0.2545 0.0
C341 C 0.84665 0.63084 0.25651 0.0
H342 H 0.81877 0.89646 0.28928 0.0
H343 H 0.81832 0.767 0.22303 0.0
S344 S 0.89332 0.51363 0.35754 0.0
N345 N 0.8801 0.64072 0.37542 0.0
N346 N 0.87917 0.49825 0.3038 0.0
C347 C 0.86251 0.59895 0.29832 0.0
C348 C 0.86284 0.67584 0.33727 0.0
C349 C 0.13049 0.14409 0.32391 0.0
C350 C 0.14498 0.17929 0.3664 0.0
C351 C 0.131 0.21583 0.28484 0.0
C352 C 0.14648 0.3245 0.28662 0.0
H353 H 0.1181 0.06152 0.32095 0.0
H354 H 0.11854 0.18702 0.25337 0.0
S355 S 0.18928 0.4554 0.38884 0.0
N356 N 0.17589 0.32971 0.40746 0.0
N357 N 0.17722 0.46286 0.33398 0.0
C358 C 0.1613 0.36024 0.32872 0.0
C359 C 0.16057 0.28794 0.36855 0.0
C360 C 0.51836 0.21443 0.07555 0.0
C361 C 0.53703 0.12302 0.05983 0.0
C362 C 0.48538 0.20409 0.07406 0.0
C363 C 0.47048 0.10209 0.05687 0.0
H364 H 0.52929 0.29369 0.08912 0.0
H365 H 0.47145 0.27616 0.08614 0.0
S366 S 0.50941 0.83578 0.01479 0.0
N367 N 0.5387 0.92628 0.02858 0.0
N368 N 0.4768 0.90654 0.02612 0.0
C369 C 0.48904 0.00977 0.04182 0.0
C370 C 0.52239 0.02034 0.04322 0.0
C371 C 0.47416 0.51964 0.56974 0.0
C372 C 0.45802 0.62444 0.56029 0.0
C373 C 0.50709 0.51698 0.57322 0.0
C374 C 0.52472 0.61915 0.5675 0.0
H375 H 0.4612 0.4391 0.57375 0.0
H376 H 0.51887 0.43424 0.57963 0.0
S377 S 0.49329 0.91568 0.5438 0.0
N378 N 0.46159 0.83265 0.54632 0.0
N379 N 0.52386 0.82799 0.5531 0.0
C380 C 0.50882 0.72473 0.55874 0.0
C381 C 0.47526 0.72737 0.55521 0.0
C382 C 0.01579 0.00158 0.55316 0.0
C383 C 0.03165 0.10906 0.557 0.0
C384 C 0.98283 -0.00293 0.55021 0.0
C385 C 0.96493 0.09992 0.55126 0.0
H386 H 0.029 0.92066 0.55272 0.0
H387 H 0.97126 0.91278 0.54785 0.0
S388 S -0.0046 0.40244 0.56035 0.0
N389 N 0.02738 0.32007 0.56098 0.0
N390 N 0.96511 0.31165 0.55595 0.0
C391 C 0.9805 0.2078 0.55478 0.0
C392 C 0.01405 0.21239 0.55742 0.0
C393 C 0.97517 0.68294 0.05591 0.0
C394 C 0.95722 0.58229 0.06267 0.0
C395 C 0.00813 0.6769 0.05676 0.0
C396 C 0.02379 0.57016 0.06453 0.0
H397 H 0.96365 0.76616 0.04953 0.0
H398 H 0.02148 0.75575 0.05109 0.0
S399 S 0.98695 0.28206 0.08267 0.0
N400 N 0.95693 0.37349 0.07663 0.0
N401 N 0.01904 0.36183 0.07797 0.0
C402 C 0.00599 0.46918 0.07133 0.0
C403 C 0.97255 0.47536 0.07046 0.0
C404 C 0.21907 0.22278 0.06304 0.0
C405 C 0.20611 0.29271 0.02731 0.0
C406 C 0.25073 0.1908 0.0645 0.0
C407 C 0.2708 0.22511 0.02977 0.0
H408 H 0.20518 0.19821 0.0917 0.0
H409 H 0.2595 0.13891 0.09354 0.0
S410 S 0.24726 0.38873 0.92376 0.0
N411 N 0.21488 0.38218 0.95278 0.0
N412 N 0.27451 0.31813 0.95527 0.0
C413 C 0.25759 0.28526 0.99153 0.0
C414 C 0.22519 0.31934 0.9902 0.0
C415 C 0.73938 0.71491 1.00051 0.0
C416 C 0.75558 0.6974 0.04341 0.0
C417 C 0.70721 0.74288 0.99762 0.0
C418 C 0.68979 0.75325 0.03746 0.0
H419 H 0.75138 0.7038 0.96876 0.0
H420 H 0.69576 0.75424 0.96372 0.0
S421 S 0.72152 0.72313 0.15867 0.0
N422 N 0.7521 0.70067 0.12705 0.0
N423 N 0.69165 0.74706 0.12144 0.0
C424 C 0.70588 0.73805 0.08068 0.0
C425 C 0.73875 0.71257 0.08369 0.0
C426 C 0.24278 0.71672 0.10743 0.0
C427 C 0.21883 0.75311 0.07509 0.0
C428 C 0.27424 0.75217 0.10374 0.0
C429 C 0.28287 0.82298 0.06705 0.0
H430 H 0.2375 0.65653 0.13468 0.0
H431 H 0.29195 0.72247 0.12922 0.0
S432 S 0.22809 0.95629 0.97753 0.0
N433 N 0.20531 0.87538 0.00885 0.0
N434 N 0.26404 0.93886 0.00064 0.0
C435 C 0.25877 0.86402 0.03574 0.0
C436 C 0.22688 0.83019 0.04018 0.0
C437 C 0.75882 0.08348 0.03689 0.0
C438 C 0.73911 0.08157 0.07424 0.0
C439 C 0.78726 0.14516 0.03963 0.0
C440 C 0.7965 0.21032 0.07925 0.0
H441 H 0.7514 0.04264 0.0044 0.0
H442 H 0.80063 0.14985 0.00904 0.0
S443 S 0.75742 0.20494 0.19082 0.0
N444 N 0.73409 0.1269 0.15544 0.0
N445 N 0.78719 0.24603 0.16026 0.0
C446 C 0.77922 0.1949 0.11898 0.0
C447 C 0.75042 0.13028 0.11641 0.0
C448 C 0.2121 0.75882 0.48478 0.0
C449 C 0.19073 0.73178 0.51895 0.0
C450 C 0.24306 0.71598 0.48766 0.0
C451 C 0.25332 0.64483 0.52461 0.0
H452 H 0.2062 0.82357 0.45862 0.0
H453 H 0.25958 0.74585 0.46304 0.0
S454 S 0.20364 0.51514 0.61251 0.0
N455 N 0.17979 0.60477 0.58303 0.0
N456 N 0.23803 0.52486 0.58873 0.0
C457 C 0.23101 0.60338 0.5547 0.0
C458 C 0.19954 0.64595 0.5515 0.0
C459 C 0.71281 0.24604 0.50061 0.0
C460 C 0.70176 0.29759 0.54071 0.0
C461 C 0.74449 0.21113 0.49868 0.0
C462 C 0.76631 0.23087 0.5362 0.0
H463 H 0.69686 0.2323 0.47076 0.0
H464 H 0.75172 0.16638 0.46806 0.0
S465 S 0.75017 0.38324 0.64581 0.0
N466 N 0.71576 0.37641 0.61706 0.0
N467 N 0.77515 0.31946 0.61219 0.0
C468 C 0.75576 0.28922 0.57527 0.0
C469 C 0.72354 0.32001 0.57792 0.0
C470 C 0.2572 0.12204 0.55238 0.0
C471 C 0.23634 0.1497 0.58684 0.0
C472 C 0.28826 0.16222 0.555 0.0
C473 C 0.29927 0.23537 0.59137 0.0
H474 H 0.24913 0.07249 0.52216 0.0
H475 H 0.30267 0.14542 0.52601 0.0
S476 S 0.25611 0.30625 0.69625 0.0
N477 N 0.23045 0.23198 0.66304 0.0
N478 N 0.28875 0.31161 0.66775 0.0
C479 C 0.27987 0.25005 0.62913 0.0
C480 C 0.24825 0.20724 0.62667 0.0
C481 C 0.73762 0.77548 0.62327 0.0
C482 C 0.72693 0.69724 0.58875 0.0
C483 C 0.76896 0.81492 0.62511 0.0
C484 C 0.79045 0.77585 0.59279 0.0
H485 H 0.72131 0.81144 0.64706 0.0
H486 H 0.77548 0.88387 0.6494 0.0
S487 S 0.77556 0.5451 0.50471 0.0
N488 N 0.74113 0.56535 0.52744 0.0
N489 N 0.80028 0.63556 0.53237 0.0
C490 C 0.78077 0.68652 0.56213 0.0
C491 C 0.74885 0.64853 0.55958 0.0
loop_
_geom_bond_atom_site_label_1
_geom_bond_atom_site_label_2
_geom_bond_distance
_geom_bond_site_symmetry_2
_ccdc_geom_bond_type
Co0 O3 1.970 1_545 S
Co0 N17 1.989 . S
Co0 O25 1.967 . S
Co0 O32 1.920 . S
Co1 O4 1.966 1_546 S
Co1 N10 2.022 1_545 S
Co1 N18 1.993 1_556 S
Co1 O26 1.941 . S
C2 O3 1.258 . S
C2 O4 1.263 . S
O3 Co0 1.970 1_565 S
O3 C2 1.258 . S
O4 Co1 1.966 1_564 S
O4 C2 1.263 . S
C5 O6 1.235 1_545 S
C5 O32 1.289 . S
O6 C5 1.235 1_565 S
C7 C9 1.400 . S
C7 N10 1.351 . S
C7 C12 1.501 . S
C8 C9 1.387 . S
C8 N11 1.341 1_565 S
C9 C7 1.400 . S
C9 C8 1.387 . S
N10 Co1 2.022 1_565 S
N10 C7 1.351 . S
N10 N11 1.365 1_565 S
N11 C8 1.341 1_545 S
N11 N10 1.365 1_545 S
N11 H31 0.862 . S
C12 C7 1.501 . S
C12 H13 0.961 . S
C12 H14 0.961 . S
C12 H15 0.960 . S
H13 C12 0.961 . S
H14 C12 0.961 . S
H15 C12 0.960 . S
C16 N17 1.342 . S
C16 C20 1.401 . S
C16 C21 1.499 . S
N17 Co0 1.989 . S
N17 C16 1.342 . S
N17 N18 1.388 . S
N18 Co1 1.993 1_554 S
N18 N17 1.388 . S
N18 C19 1.346 . S
C19 N18 1.346 . S
C19 C20 1.396 . S
C19 C29 1.510 1_544 S
C20 C16 1.401 . S
C20 C19 1.396 . S
C21 C16 1.499 . S
C21 H22 0.959 . S
C21 H23 0.960 . S
C21 H24 0.961 . S
H22 C21 0.959 . S
H23 C21 0.960 . S
H24 C21 0.961 . S
O25 Co0 1.967 . S
O25 C33 1.258 . S
O26 Co1 1.941 . S
O26 C33 1.266 1_556 S
H27 C29 0.959 1_545 S
H28 C29 0.961 . S
C29 C19 1.510 1_566 S
C29 H27 0.959 1_565 S
C29 H28 0.961 . S
C29 H30 0.960 . S
H30 C29 0.960 . S
H31 N11 0.862 . S
O32 Co0 1.920 . S
O32 C5 1.289 . S
C33 O25 1.258 . S
C33 O26 1.266 1_554 S
Co34 O37 1.970 1_545 S
Co34 N51 1.989 . S
Co34 O59 1.967 . S
Co34 O66 1.920 1_554 S
Co35 O38 1.966 1_545 S
Co35 N44 2.022 1_545 S
Co35 N52 1.993 . S
Co35 O60 1.941 . S
C36 O37 1.258 . S
C36 O38 1.263 . S
O37 Co34 1.970 1_565 S
O37 C36 1.258 . S
O38 Co35 1.966 1_565 S
O38 C36 1.263 . S
C39 O40 1.235 1_545 S
C39 O66 1.289 . S
O40 C39 1.235 1_565 S
C41 C43 1.400 . S
C41 N44 1.351 . S
C41 C46 1.501 . S
C42 C43 1.387 . S
C42 N45 1.341 1_565 S
C43 C41 1.400 . S
C43 C42 1.387 . S
N44 Co35 2.022 1_565 S
N44 C41 1.351 . S
N44 N45 1.365 1_565 S
N45 C42 1.341 1_545 S
N45 N44 1.365 1_545 S
N45 H65 0.862 . S
C46 C41 1.501 . S
C46 H47 0.961 . S
C46 H48 0.961 . S
C46 H49 0.960 . S
H47 C46 0.961 . S
H48 C46 0.961 . S
H49 C46 0.960 . S
C50 N51 1.342 . S
C50 C54 1.401 . S
C50 C55 1.499 1_554 S
N51 Co34 1.989 . S
N51 C50 1.342 . S
N51 N52 1.388 . S
N52 Co35 1.993 . S
N52 N51 1.388 . S
N52 C53 1.346 . S
C53 N52 1.346 . S
C53 C54 1.396 . S
C53 C63 1.510 1_545 S
C54 C50 1.401 . S
C54 C53 1.396 . S
C55 C50 1.499 1_556 S
C55 H56 0.959 . S
C55 H57 0.960 . S
C55 H58 0.961 . S
H56 C55 0.959 . S
H57 C55 0.960 . S
H58 C55 0.961 . S
O59 Co34 1.967 . S
O59 C67 1.258 . S
O60 Co35 1.941 . S
O60 C67 1.266 . S
H61 C63 0.959 1_545 S
H62 C63 0.961 . S
C63 C53 1.510 1_565 S
C63 H61 0.959 1_565 S
C63 H62 0.961 . S
C63 H64 0.960 . S
H64 C63 0.960 . S
H65 N45 0.862 . S
O66 Co34 1.920 1_556 S
O66 C39 1.289 . S
C67 O59 1.258 . S
C67 O60 1.266 . S
Co68 O71 1.970 . S
Co68 N85 1.989 . S
Co68 O93 1.967 . S
Co68 O100 1.920 . S
Co69 O72 1.966 . S
Co69 N78 2.022 . S
Co69 N86 1.993 . S
Co69 O94 1.941 . S
C70 O71 1.258 . S
C70 O72 1.263 . S
O71 Co68 1.970 . S
O71 C70 1.258 . S
O72 Co69 1.966 . S
O72 C70 1.263 . S
C73 O74 1.235 . S
C73 O100 1.289 . S
O74 C73 1.235 . S
C75 C77 1.400 . S
C75 N78 1.351 . S
C75 C80 1.501 . S
C76 C77 1.387 . S
C76 N79 1.341 . S
C77 C75 1.400 . S
C77 C76 1.387 . S
N78 Co69 2.022 . S
N78 C75 1.351 . S
N78 N79 1.365 . S
N79 C76 1.341 . S
N79 N78 1.365 . S
N79 H99 0.862 . S
C80 C75 1.501 . S
C80 H81 0.961 . S
C80 H82 0.961 . S
C80 H83 0.960 . S
H81 C80 0.961 . S
H82 C80 0.961 . S
H83 C80 0.960 . S
C84 N85 1.342 . S
C84 C88 1.401 . S
C84 C89 1.499 . S
N85 Co68 1.989 . S
N85 C84 1.342 . S
N85 N86 1.388 . S
N86 Co69 1.993 . S
N86 N85 1.388 . S
N86 C87 1.346 . S
C87 N86 1.346 . S
C87 C88 1.396 . S
C87 C97 1.510 . S
C88 C84 1.401 . S
C88 C87 1.396 . S
C89 C84 1.499 . S
C89 H90 0.959 . S
C89 H91 0.960 . S
C89 H92 0.961 . S
H90 C89 0.959 . S
H91 C89 0.960 . S
H92 C89 0.961 . S
O93 Co68 1.967 . S
O93 C101 1.258 . S
O94 Co69 1.941 . S
O94 C101 1.266 . S
H95 C97 0.959 . S
H96 C97 0.961 . S
C97 C87 1.510 . S
C97 H95 0.959 . S
C97 H96 0.961 . S
C97 H98 0.960 . S
H98 C97 0.960 . S
H99 N79 0.862 . S
O100 Co68 1.920 . S
O100 C73 1.289 . S
C101 O93 1.258 . S
C101 O94 1.266 . S
Co102 O105 1.970 . S
Co102 N119 1.989 . S
Co102 O127 1.967 . S
Co102 O134 1.920 . S
Co103 O106 1.966 . S
Co103 N112 2.022 . S
Co103 N120 1.993 . S
Co103 O128 1.941 . S
C104 O105 1.258 . S
C104 O106 1.263 . S
O105 Co102 1.970 . S
O105 C104 1.258 . S
O106 Co103 1.966 . S
O106 C104 1.263 . S
C107 O108 1.235 . S
C107 O134 1.289 . S
O108 C107 1.235 . S
C109 C111 1.400 . S
C109 N112 1.351 . S
C109 C114 1.501 . S
C110 C111 1.387 . S
C110 N113 1.341 . S
C111 C109 1.400 . S
C111 C110 1.387 . S
N112 Co103 2.022 . S
N112 C109 1.351 . S
N112 N113 1.365 . S
N113 C110 1.341 . S
N113 N112 1.365 . S
N113 H133 0.862 . S
C114 C109 1.501 . S
C114 H115 0.961 . S
C114 H116 0.961 . S
C114 H117 0.960 . S
H115 C114 0.961 . S
H116 C114 0.961 . S
H117 C114 0.960 . S
C118 N119 1.342 . S
C118 C122 1.401 . S
C118 C123 1.499 . S
N119 Co102 1.989 . S
N119 C118 1.342 . S
N119 N120 1.388 . S
N120 Co103 1.993 . S
N120 N119 1.388 . S
N120 C121 1.346 . S
C121 N120 1.346 . S
C121 C122 1.396 . S
C121 C131 1.510 . S
C122 C118 1.401 . S
C122 C121 1.396 . S
C123 C118 1.499 . S
C123 H124 0.959 . S
C123 H125 0.960 . S
C123 H126 0.961 . S
H124 C123 0.959 . S
H125 C123 0.960 . S
H126 C123 0.961 . S
O127 Co102 1.967 . S
O127 C135 1.258 . S
O128 Co103 1.941 . S
O128 C135 1.266 . S
H129 C131 0.959 . S
H130 C131 0.961 . S
C131 C121 1.510 . S
C131 H129 0.959 . S
C131 H130 0.961 . S
C131 H132 0.960 . S
H132 C131 0.960 . S
H133 N113 0.862 . S
O134 Co102 1.920 . S
O134 C107 1.289 . S
C135 O127 1.258 . S
C135 O128 1.266 . S
Co136 O139 1.970 1_545 S
Co136 N153 1.989 . S
Co136 O161 1.967 . S
Co136 O168 1.920 . S
Co137 O140 1.966 1_545 S
Co137 N146 2.022 1_545 S
Co137 N154 1.993 . S
Co137 O162 1.941 . S
C138 O139 1.258 . S
C138 O140 1.263 . S
O139 Co136 1.970 1_565 S
O139 C138 1.258 . S
O140 Co137 1.966 1_565 S
O140 C138 1.263 . S
C141 O142 1.235 1_545 S
C141 O168 1.289 . S
O142 C141 1.235 1_565 S
C143 C145 1.400 . S
C143 N146 1.351 . S
C143 C148 1.501 . S
C144 C145 1.387 . S
C144 N147 1.341 1_565 S
C145 C143 1.400 . S
C145 C144 1.387 . S
N146 Co137 2.022 1_565 S
N146 C143 1.351 . S
N146 N147 1.365 1_565 S
N147 C144 1.341 1_545 S
N147 N146 1.365 1_545 S
N147 H167 0.862 . S
C148 C143 1.501 . S
C148 H149 0.961 . S
C148 H150 0.961 . S
C148 H151 0.960 . S
H149 C148 0.961 . S
H150 C148 0.961 . S
H151 C148 0.960 . S
C152 N153 1.342 . S
C152 C156 1.401 . S
C152 C157 1.499 . S
N153 Co136 1.989 . S
N153 C152 1.342 . S
N153 N154 1.388 . S
N154 Co137 1.993 . S
N154 N153 1.388 . S
N154 C155 1.346 . S
C155 N154 1.346 . S
C155 C156 1.396 . S
C155 C165 1.510 1_545 S
C156 C152 1.401 . S
C156 C155 1.396 . S
C157 C152 1.499 . S
C157 H158 0.959 . S
C157 H159 0.960 . S
C157 H160 0.961 . S
H158 C157 0.959 . S
H159 C157 0.960 . S
H160 C157 0.961 . S
O161 Co136 1.967 . S
O161 C169 1.258 . S
O162 Co137 1.941 . S
O162 C169 1.266 . S
H163 C165 0.959 1_545 S
H164 C165 0.961 . S
C165 C155 1.510 1_565 S
C165 H163 0.959 1_565 S
C165 H164 0.961 . S
C165 H166 0.960 . S
H166 C165 0.960 . S
H167 N147 0.862 . S
O168 Co136 1.920 . S
O168 C141 1.289 . S
C169 O161 1.258 . S
C169 O162 1.266 . S
Co170 O173 1.970 1_545 S
Co170 N187 1.989 . S
Co170 O195 1.967 . S
Co170 O202 1.920 . S
Co171 O174 1.966 1_545 S
Co171 N180 2.022 1_545 S
Co171 N188 1.993 . S
Co171 O196 1.941 . S
C172 O173 1.258 . S
C172 O174 1.263 . S
O173 Co170 1.970 1_565 S
O173 C172 1.258 . S
O174 Co171 1.966 1_565 S
O174 C172 1.263 . S
C175 O176 1.235 1_545 S
C175 O202 1.289 . S
O176 C175 1.235 1_565 S
C177 C179 1.400 . S
C177 N180 1.351 . S
C177 C182 1.501 . S
C178 C179 1.387 . S
C178 N181 1.341 1_565 S
C179 C177 1.400 . S
C179 C178 1.387 . S
N180 Co171 2.022 1_565 S
N180 C177 1.351 . S
N180 N181 1.365 1_565 S
N181 C178 1.341 1_545 S
N181 N180 1.365 1_545 S
N181 H201 0.862 . S
C182 C177 1.501 . S
C182 H183 0.961 . S
C182 H184 0.961 . S
C182 H185 0.960 . S
H183 C182 0.961 . S
H184 C182 0.961 . S
H185 C182 0.960 . S
C186 N187 1.342 . S
C186 C190 1.401 . S
C186 C191 1.499 . S
N187 Co170 1.989 . S
N187 C186 1.342 . S
N187 N188 1.388 . S
N188 Co171 1.993 . S
N188 N187 1.388 . S
N188 C189 1.346 . S
C189 N188 1.346 . S
C189 C190 1.396 . S
C189 C199 1.510 1_545 S
C190 C186 1.401 . S
C190 C189 1.396 . S
C191 C186 1.499 . S
C191 H192 0.959 . S
C191 H193 0.960 . S
C191 H194 0.961 . S
H192 C191 0.959 . S
H193 C191 0.960 . S
H194 C191 0.961 . S
O195 Co170 1.967 . S
O195 C203 1.258 . S
O196 Co171 1.941 . S
O196 C203 1.266 . S
H197 C199 0.959 1_545 S
H198 C199 0.961 . S
C199 C189 1.510 1_565 S
C199 H197 0.959 1_565 S
C199 H198 0.961 . S
C199 H200 0.960 . S
H200 C199 0.960 . S
H201 N181 0.862 . S
O202 Co170 1.920 . S
O202 C175 1.289 . S
C203 O195 1.258 . S
C203 O196 1.266 . S
Co204 O207 1.970 . S
Co204 N221 1.989 . S
Co204 O229 1.967 . S
Co204 O236 1.920 . S
Co205 O208 1.966 1_556 S
Co205 N214 2.022 . S
Co205 N222 1.993 1_556 S
Co205 O230 1.941 . S
C206 O207 1.258 . S
C206 O208 1.263 . S
O207 Co204 1.970 . S
O207 C206 1.258 . S
O208 Co205 1.966 1_554 S
O208 C206 1.263 . S
C209 O210 1.235 . S
C209 O236 1.289 . S
O210 C209 1.235 . S
C211 C213 1.400 . S
C211 N214 1.351 . S
C211 C216 1.501 . S
C212 C213 1.387 . S
C212 N215 1.341 . S
C213 C211 1.400 . S
C213 C212 1.387 . S
N214 Co205 2.022 . S
N214 C211 1.351 . S
N214 N215 1.365 . S
N215 C212 1.341 . S
N215 N214 1.365 . S
N215 H235 0.862 . S
C216 C211 1.501 . S
C216 H217 0.961 . S
C216 H218 0.961 . S
C216 H219 0.960 . S
H217 C216 0.961 . S
H218 C216 0.961 . S
H219 C216 0.960 . S
C220 N221 1.342 . S
C220 C224 1.401 . S
C220 C225 1.499 . S
N221 Co204 1.989 . S
N221 C220 1.342 . S
N221 N222 1.388 . S
N222 Co205 1.993 1_554 S
N222 N221 1.388 . S
N222 C223 1.346 . S
C223 N222 1.346 . S
C223 C224 1.396 . S
C223 C233 1.510 1_554 S
C224 C220 1.401 . S
C224 C223 1.396 . S
C225 C220 1.499 . S
C225 H226 0.959 . S
C225 H227 0.960 . S
C225 H228 0.961 . S
H226 C225 0.959 . S
H227 C225 0.960 . S
H228 C225 0.961 . S
O229 Co204 1.967 . S
O229 C237 1.258 . S
O230 Co205 1.941 . S
O230 C237 1.266 1_556 S
H231 C233 0.959 . S
H232 C233 0.961 . S
C233 C223 1.510 1_556 S
C233 H231 0.959 . S
C233 H232 0.961 . S
C233 H234 0.960 . S
H234 C233 0.960 . S
H235 N215 0.862 . S
O236 Co204 1.920 . S
O236 C209 1.289 . S
C237 O229 1.258 . S
C237 O230 1.266 1_554 S
Co238 O241 1.970 . S
Co238 N255 1.989 . S
Co238 O263 1.967 . S
Co238 O270 1.920 1_554 S
Co239 O242 1.966 . S
Co239 N248 2.022 . S
Co239 N256 1.993 . S
Co239 O264 1.941 . S
C240 O241 1.258 . S
C240 O242 1.263 . S
O241 Co238 1.970 . S
O241 C240 1.258 . S
O242 Co239 1.966 . S
O242 C240 1.263 . S
C243 O244 1.235 . S
C243 O270 1.289 . S
O244 C243 1.235 . S
C245 C247 1.400 . S
C245 N248 1.351 . S
C245 C250 1.501 . S
C246 C247 1.387 . S
C246 N249 1.341 . S
C247 C245 1.400 . S
C247 C246 1.387 . S
N248 Co239 2.022 . S
N248 C245 1.351 . S
N248 N249 1.365 . S
N249 C246 1.341 . S
N249 N248 1.365 . S
N249 H269 0.862 . S
C250 C245 1.501 . S
C250 H251 0.961 . S
C250 H252 0.961 . S
C250 H253 0.960 . S
H251 C250 0.961 . S
H252 C250 0.961 . S
H253 C250 0.960 . S
C254 N255 1.342 . S
C254 C258 1.401 . S
C254 C259 1.499 1_554 S
N255 Co238 1.989 . S
N255 C254 1.342 . S
N255 N256 1.388 . S
N256 Co239 1.993 . S
N256 N255 1.388 . S
N256 C257 1.346 . S
C257 N256 1.346 . S
C257 C258 1.396 . S
C257 C267 1.510 . S
C258 C254 1.401 . S
C258 C257 1.396 . S
C259 C254 1.499 1_556 S
C259 H260 0.959 . S
C259 H261 0.960 . S
C259 H262 0.961 . S
H260 C259 0.959 . S
H261 C259 0.960 . S
H262 C259 0.961 . S
O263 Co238 1.967 . S
O263 C271 1.258 . S
O264 Co239 1.941 . S
O264 C271 1.266 . S
H265 C267 0.959 . S
H266 C267 0.961 . S
C267 C257 1.510 . S
C267 H265 0.959 . S
C267 H266 0.961 . S
C267 H268 0.960 . S
H268 C267 0.960 . S
H269 N249 0.862 . S
O270 Co238 1.920 1_556 S
O270 C243 1.289 . S
C271 O263 1.258 . S
C271 O264 1.266 . S
C272 C273 1.369 . S
C272 C274 1.419 . S
C272 H276 0.930 . S
C273 C272 1.369 . S
C273 C282 1.429 . S
C274 C272 1.419 . S
C274 C275 1.363 . S
C274 H277 0.929 . S
C275 C274 1.363 . S
C275 C281 1.428 . S
H276 C272 0.930 . S
H277 C274 0.929 . S
S278 N279 1.613 . S
S278 N280 1.610 . S
N279 S278 1.613 . S
N279 C282 1.350 . S
N280 S278 1.610 . S
N280 C281 1.351 . S
C281 C275 1.428 . S
C281 N280 1.351 . S
C281 C282 1.434 . S
C282 C273 1.429 . S
C282 N279 1.350 . S
C282 C281 1.434 . S
C283 C284 1.369 . S
C283 C285 1.419 . S
C283 H287 0.930 . S
C284 C283 1.369 . S
C284 C293 1.429 . S
C285 C283 1.419 . S
C285 C286 1.363 . S
C285 H288 0.929 . S
C286 C285 1.363 . S
C286 C292 1.428 . S
H287 C283 0.930 . S
H288 C285 0.929 . S
S289 N290 1.613 . S
S289 N291 1.610 . S
N290 S289 1.613 . S
N290 C293 1.350 . S
N291 S289 1.610 . S
N291 C292 1.351 . S
C292 C286 1.428 . S
C292 N291 1.351 . S
C292 C293 1.434 . S
C293 C284 1.429 . S
C293 N290 1.350 . S
C293 C292 1.434 . S
C294 C295 1.369 . S
C294 C296 1.419 . S
C294 H298 0.930 . S
C295 C294 1.369 . S
C295 C304 1.429 . S
C296 C294 1.419 . S
C296 C297 1.363 . S
C296 H299 0.929 . S
C297 C296 1.363 . S
C297 C303 1.428 . S
H298 C294 0.930 . S
H299 C296 0.929 . S
S300 N301 1.613 . S
S300 N302 1.610 . S
N301 S300 1.613 . S
N301 C304 1.350 . S
N302 S300 1.610 . S
N302 C303 1.351 . S
C303 C297 1.428 . S
C303 N302 1.351 . S
C303 C304 1.434 . S
C304 C295 1.429 . S
C304 N301 1.350 . S
C304 C303 1.434 . S
C305 C306 1.369 . S
C305 C307 1.419 . S
C305 H309 0.930 . S
C306 C305 1.369 . S
C306 C315 1.429 . S
C307 C305 1.419 . S
C307 C308 1.363 . S
C307 H310 0.929 . S
C308 C307 1.363 . S
C308 C314 1.428 . S
H309 C305 0.930 . S
H310 C307 0.929 . S
S311 N312 1.613 1_565 S
S311 N313 1.610 . S
N312 S311 1.613 1_545 S
N312 C315 1.350 . S
N313 S311 1.610 . S
N313 C314 1.351 1_565 S
C314 C308 1.428 . S
C314 N313 1.351 1_545 S
C314 C315 1.434 . S
C315 C306 1.429 . S
C315 N312 1.350 . S
C315 C314 1.434 . S
C316 C317 1.369 . S
C316 C318 1.419 . S
C316 H320 0.930 . S
C317 C316 1.369 . S
C317 C326 1.429 . S
C318 C316 1.419 . S
C318 C319 1.363 . S
C318 H321 0.929 . S
C319 C318 1.363 . S
C319 C325 1.428 . S
H320 C316 0.930 . S
H321 C318 0.929 . S
S322 N323 1.613 . S
S322 N324 1.610 1_565 S
N323 S322 1.613 . S
N323 C326 1.350 1_565 S
N324 S322 1.610 1_545 S
N324 C325 1.351 . S
C325 C319 1.428 . S
C325 N324 1.351 . S
C325 C326 1.434 . S
C326 C317 1.429 . S
C326 N323 1.350 1_545 S
C326 C325 1.434 . S
C327 C328 1.369 . S
C327 C329 1.419 . S
C327 H331 0.930 . S
C328 C327 1.369 . S
C328 C337 1.429 . S
C329 C327 1.419 . S
C329 C330 1.363 . S
C329 H332 0.929 . S
C330 C329 1.363 . S
C330 C336 1.428 . S
H331 C327 0.930 . S
H332 C329 0.929 . S
S333 N334 1.613 . S
S333 N335 1.610 . S
N334 S333 1.613 . S
N334 C337 1.350 . S
N335 S333 1.610 . S
N335 C336 1.351 . S
C336 C330 1.428 . S
C336 N335 1.351 . S
C336 C337 1.434 . S
C337 C328 1.429 . S
C337 N334 1.350 . S
C337 C336 1.434 . S
C338 C339 1.369 . S
C338 C340 1.419 . S
C338 H342 0.930 . S
C339 C338 1.369 . S
C339 C348 1.429 . S
C340 C338 1.419 . S
C340 C341 1.363 . S
C340 H343 0.929 . S
C341 C340 1.363 . S
C341 C347 1.428 . S
H342 C338 0.930 . S
H343 C340 0.929 . S
S344 N345 1.613 . S
S344 N346 1.610 . S
N345 S344 1.613 . S
N345 C348 1.350 . S
N346 S344 1.610 . S
N346 C347 1.351 . S
C347 C341 1.428 . S
C347 N346 1.351 . S
C347 C348 1.434 . S
C348 C339 1.429 . S
C348 N345 1.350 . S
C348 C347 1.434 . S
C349 C350 1.369 . S
C349 C351 1.419 . S
C349 H353 0.922 1_545 S
C350 C349 1.369 . S
C350 C359 1.429 . S
C351 C349 1.419 . S
C351 C352 1.363 . S
C351 H354 0.929 . S
C352 C351 1.363 . S
C352 C358 1.428 . S
H353 C349 0.922 1_565 S
H354 C351 0.929 . S
S355 N356 1.613 . S
S355 N357 1.610 . S
N356 S355 1.613 . S
N356 C359 1.350 . S
N357 S355 1.610 . S
N357 C358 1.351 . S
C358 C352 1.428 . S
C358 N357 1.351 . S
C358 C359 1.434 . S
C359 C350 1.429 . S
C359 N356 1.350 . S
C359 C358 1.434 . S
C360 C361 1.369 . S
C360 C362 1.419 . S
C360 H364 0.930 . S
C361 C360 1.369 . S
C361 C370 1.429 . S
C362 C360 1.419 . S
C362 C363 1.363 . S
C362 H365 0.929 . S
C363 C362 1.363 . S
C363 C369 1.428 . S
H364 C360 0.930 . S
H365 C362 0.929 . S
S366 N367 1.613 . S
S366 N368 1.610 . S
N367 S366 1.613 . S
N367 C370 1.350 1_566 S
N368 S366 1.610 . S
N368 C369 1.351 1_566 S
C369 C363 1.428 . S
C369 N368 1.351 1_544 S
C369 C370 1.434 . S
C370 C361 1.429 . S
C370 N367 1.350 1_544 S
C370 C369 1.434 . S
C371 C372 1.369 . S
C371 C373 1.419 . S
C371 H375 0.930 . S
C372 C371 1.369 . S
C372 C381 1.429 . S
C373 C371 1.419 . S
C373 C374 1.363 . S
C373 H376 0.929 . S
C374 C373 1.363 . S
C374 C380 1.428 . S
H375 C371 0.930 . S
H376 C373 0.929 . S
S377 N378 1.613 . S
S377 N379 1.610 . S
N378 S377 1.613 . S
N378 C381 1.350 . S
N379 S377 1.610 . S
N379 C380 1.351 . S
C380 C374 1.428 . S
C380 N379 1.351 . S
C380 C381 1.434 . S
C381 C372 1.429 . S
C381 N378 1.350 . S
C381 C380 1.434 . S
C382 C383 1.369 1_565 S
C382 C384 1.419 1_455 S
C382 H386 0.930 . S
C383 C382 1.369 1_545 S
C383 C392 1.429 . S
C384 C382 1.419 1_655 S
C384 C385 1.363 1_565 S
C384 H387 0.929 . S
C385 C384 1.363 1_545 S
C385 C391 1.428 . S
H386 C382 0.930 . S
H387 C384 0.929 . S
S388 N389 1.613 1_655 S
S388 N390 1.610 . S
N389 S388 1.613 1_455 S
N389 C392 1.350 . S
N390 S388 1.610 . S
N390 C391 1.351 . S
C391 C385 1.428 . S
C391 N390 1.351 . S
C391 C392 1.434 1_655 S
C392 C383 1.429 . S
C392 N389 1.350 . S
C392 C391 1.434 1_455 S
C393 C394 1.369 . S
C393 C395 1.419 1_655 S
C393 H397 0.930 . S
C394 C393 1.369 . S
C394 C403 1.429 . S
C395 C393 1.419 1_455 S
C395 C396 1.363 . S
C395 H398 0.929 . S
C396 C395 1.363 . S
C396 C402 1.428 . S
H397 C393 0.930 . S
H398 C395 0.929 . S
S399 N400 1.613 1_455 S
S399 N401 1.610 . S
N400 S399 1.613 1_655 S
N400 C403 1.350 . S
N401 S399 1.610 . S
N401 C402 1.351 . S
C402 C396 1.428 . S
C402 N401 1.351 . S
C402 C403 1.434 1_455 S
C403 C394 1.429 . S
C403 N400 1.350 . S
C403 C402 1.434 1_655 S
C404 C405 1.369 . S
C404 C406 1.419 . S
C404 H408 0.930 . S
C405 C404 1.369 . S
C405 C414 1.429 . S
C406 C404 1.419 . S
C406 C407 1.363 . S
C406 H409 0.929 . S
C407 C406 1.363 . S
C407 C413 1.428 . S
H408 C404 0.930 . S
H409 C406 0.929 . S
S410 N411 1.613 . S
S410 N412 1.610 . S
N411 S410 1.613 . S
N411 C414 1.350 1_556 S
N412 S410 1.610 . S
N412 C413 1.351 1_556 S
C413 C407 1.428 . S
C413 N412 1.351 1_554 S
C413 C414 1.434 . S
C414 C405 1.429 . S
C414 N411 1.350 1_554 S
C414 C413 1.434 . S
C415 C416 1.369 . S
C415 C417 1.419 . S
C415 H419 0.930 1_554 S
C416 C415 1.369 . S
C416 C425 1.429 . S
C417 C415 1.419 . S
C417 C418 1.363 . S
C417 H420 0.929 . S
C418 C417 1.363 . S
C418 C424 1.428 . S
H419 C415 0.930 1_556 S
H420 C417 0.929 . S
S421 N422 1.613 . S
S421 N423 1.610 . S
N422 S421 1.613 . S
N422 C425 1.350 . S
N423 S421 1.610 . S
N423 C424 1.351 . S
C424 C418 1.428 . S
C424 N423 1.351 . S
C424 C425 1.434 . S
C425 C416 1.429 . S
C425 N422 1.350 . S
C425 C424 1.434 . S
C426 C427 1.369 . S
C426 C428 1.419 . S
C426 H430 0.930 . S
C427 C426 1.369 . S
C427 C436 1.429 . S
C428 C426 1.419 . S
C428 C429 1.363 . S
C428 H431 0.929 . S
C429 C428 1.363 . S
C429 C435 1.428 . S
H430 C426 0.930 . S
H431 C428 0.929 . S
S432 N433 1.613 1_545 S
S432 N434 1.610 . S
N433 S432 1.613 1_565 S
N433 C436 1.350 . S
N434 S432 1.610 . S
N434 C435 1.351 1_545 S
C435 C429 1.428 . S
C435 N434 1.351 1_565 S
C435 C436 1.434 . S
C436 C427 1.429 . S
C436 N433 1.350 . S
C436 C435 1.434 . S
C437 C438 1.369 . S
C437 C439 1.419 . S
C437 H441 0.930 . S
C438 C437 1.369 . S
C438 C447 1.429 . S
C439 C437 1.419 . S
C439 C440 1.363 . S
C439 H442 0.929 . S
C440 C439 1.363 . S
C440 C446 1.428 . S
H441 C437 0.930 . S
H442 C439 0.929 . S
S443 N444 1.613 . S
S443 N445 1.610 . S
N444 S443 1.613 . S
N444 C447 1.350 . S
N445 S443 1.610 . S
N445 C446 1.351 . S
C446 C440 1.428 . S
C446 N445 1.351 . S
C446 C447 1.434 . S
C447 C438 1.429 . S
C447 N444 1.350 . S
C447 C446 1.434 . S
C448 C449 1.369 . S
C448 C450 1.419 . S
C448 H452 0.930 . S
C449 C448 1.369 . S
C449 C458 1.429 . S
C450 C448 1.419 . S
C450 C451 1.363 . S
C450 H453 0.929 . S
C451 C450 1.363 . S
C451 C457 1.428 . S
H452 C448 0.930 . S
H453 C450 0.929 . S
S454 N455 1.613 . S
S454 N456 1.610 . S
N455 S454 1.613 . S
N455 C458 1.350 . S
N456 S454 1.610 . S
N456 C457 1.351 . S
C457 C451 1.428 . S
C457 N456 1.351 . S
C457 C458 1.434 . S
C458 C449 1.429 . S
C458 N455 1.350 . S
C458 C457 1.434 . S
C459 C460 1.369 . S
C459 C461 1.419 . S
C459 H463 0.930 . S
C460 C459 1.369 . S
C460 C469 1.429 . S
C461 C459 1.419 . S
C461 C462 1.363 . S
C461 H464 0.929 . S
C462 C461 1.363 . S
C462 C468 1.428 . S
H463 C459 0.930 . S
H464 C461 0.929 . S
S465 N466 1.613 . S
S465 N467 1.610 . S
N466 S465 1.613 . S
N466 C469 1.350 . S
N467 S465 1.610 . S
N467 C468 1.351 . S
C468 C462 1.428 . S
C468 N467 1.351 . S
C468 C469 1.434 . S
C469 C460 1.429 . S
C469 N466 1.350 . S
C469 C468 1.434 . S
C470 C471 1.369 . S
C470 C472 1.419 . S
C470 H474 0.930 . S
C471 C470 1.369 . S
C471 C480 1.429 . S
C472 C470 1.419 . S
C472 C473 1.363 . S
C472 H475 0.929 . S
C473 C472 1.363 . S
C473 C479 1.428 . S
H474 C470 0.930 . S
H475 C472 0.929 . S
S476 N477 1.613 . S
S476 N478 1.610 . S
N477 S476 1.613 . S
N477 C480 1.350 . S
N478 S476 1.610 . S
N478 C479 1.351 . S
C479 C473 1.428 . S
C479 N478 1.351 . S
C479 C480 1.434 . S
C480 C471 1.429 . S
C480 N477 1.350 . S
C480 C479 1.434 . S
C481 C482 1.369 . S
C481 C483 1.419 . S
C481 H485 0.930 . S
C482 C481 1.369 . S
C482 C491 1.429 . S
C483 C481 1.419 . S
C483 C484 1.363 . S
C483 H486 0.929 . S
C484 C483 1.363 . S
C484 C490 1.428 . S
H485 C481 0.930 . S
H486 C483 0.929 . S
S487 N488 1.613 . S
S487 N489 1.610 . S
N488 S487 1.613 . S
N488 C491 1.350 . S
N489 S487 1.610 . S
N489 C490 1.351 . S
C490 C484 1.428 . S
C490 N489 1.351 . S
C490 C491 1.434 . S
C491 C482 1.429 . S
C491 N488 1.350 . S
C491 C490 1.434 . S
C273 C77 1.548 . S
C275 C5 1.574 . S
C284 C43 1.548 . S
C286 C107 1.573 . S
C295 C73 1.576 . S
C297 C9 1.552 . S
C306 C111 1.554 . S
C308 C39 1.575 . S
C317 C141 1.576 . S
C319 C213 1.553 . S
C328 C243 1.576 . S
C330 C179 1.552 . S
C339 C145 1.554 . S
C341 C209 1.576 . S
C350 C175 1.573 . S
C352 C247 1.550 . S
C361 C54 1.463 . S
C363 C20 1.467 . S
C372 C88 1.468 . S
C374 C122 1.467 . S
C383 C190 1.468 . S
C385 C156 1.466 . S
C394 C224 1.464 . S
C396 C258 1.464 . S
C405 C240 1.090 . S
C407 C33 1.062 . S
C416 C237 1.048 . S
C418 C36 1.099 . S
C427 C271 1.061 . S
C429 C2 1.090 . S
C438 C67 1.065 . S
C440 C206 1.089 . S
C449 C172 1.092 . S
C451 C101 1.056 . S
C460 C104 1.088 . S
C462 C169 1.061 . S
C471 C203 1.064 . S
C473 C70 1.089 . S
C482 C135 1.051 . S
C484 C138 1.098 . S
