# Generated by pormake.
# Topology ure, (4)-cn, num edge types: 1
# Building blocks:
#     Node 0, Type 0, BuildingBlock: NAHDIM_clean_sbu_0, # of connection points: 4
#     Node 1, Type 0, BuildingBlock: NAHDIM_clean_sbu_0, # of connection points: 4
#     Node 2, Type 0, BuildingBlock: NAHDIM_clean_sbu_0, # of connection points: 4
#     Node 3, Type 0, BuildingBlock: NAHDIM_clean_sbu_0, # of connection points: 4
#     Node 4, Type 0, BuildingBlock: NAHDIM_clean_sbu_0, # of connection points: 4
#     Node 5, Type 0, BuildingBlock: NAHDIM_clean_sbu_0, # of connection points: 4
#     Node 6, Type 0, BuildingBlock: NAHDIM_clean_sbu_0, # of connection points: 4
#     Node 7, Type 0, BuildingBlock: NAHDIM_clean_sbu_0, # of connection points: 4
#     Node 8, Type 0, BuildingBlock: NAHDIM_clean_sbu_0, # of connection points: 4
#     Node 9, Type 0, BuildingBlock: NAHDIM_clean_sbu_0, # of connection points: 4
#     Node 10, Type 0, BuildingBlock: NAHDIM_clean_sbu_0, # of connection points: 4
#     Node 11, Type 0, BuildingBlock: NAHDIM_clean_sbu_0, # of connection points: 4
#     Node 12, Type 0, BuildingBlock: NAHDIM_clean_sbu_0, # of connection points: 4
#     Node 13, Type 0, BuildingBlock: NAHDIM_clean_sbu_0, # of connection points: 4
#     Node 14, Type 0, BuildingBlock: NAHDIM_clean_sbu_0, # of connection points: 4
#     Node 15, Type 0, BuildingBlock: NAHDIM_clean_sbu_0, # of connection points: 4
#     Edge 16, Type (0, 0), BuildingBlock: TEMPAE_clean_linker_10, # of connection points: 2
#     Edge 17, Type (0, 0), BuildingBlock: TEMPAE_clean_linker_10, # of connection points: 2
#     Edge 18, Type (0, 0), BuildingBlock: TEMPAE_clean_linker_10, # of connection points: 2
#     Edge 19, Type (0, 0), BuildingBlock: TEMPAE_clean_linker_10, # of connection points: 2
#     Edge 20, Type (0, 0), BuildingBlock: TEMPAE_clean_linker_10, # of connection points: 2
#     Edge 21, Type (0, 0), BuildingBlock: TEMPAE_clean_linker_10, # of connection points: 2
#     Edge 22, Type (0, 0), BuildingBlock: TEMPAE_clean_linker_10, # of connection points: 2
#     Edge 23, Type (0, 0), BuildingBlock: TEMPAE_clean_linker_10, # of connection points: 2
#     Edge 24, Type (0, 0), BuildingBlock: TEMPAE_clean_linker_10, # of connection points: 2
#     Edge 25, Type (0, 0), BuildingBlock: TEMPAE_clean_linker_10, # of connection points: 2
#     Edge 26, Type (0, 0), BuildingBlock: TEMPAE_clean_linker_10, # of connection points: 2
#     Edge 27, Type (0, 0), BuildingBlock: TEMPAE_clean_linker_10, # of connection points: 2
#     Edge 28, Type (0, 0), BuildingBlock: TEMPAE_clean_linker_10, # of connection points: 2
#     Edge 29, Type (0, 0), BuildingBlock: TEMPAE_clean_linker_10, # of connection points: 2
#     Edge 30, Type (0, 0), BuildingBlock: TEMPAE_clean_linker_10, # of connection points: 2
#     Edge 31, Type (0, 0), BuildingBlock: TEMPAE_clean_linker_10, # of connection points: 2
#     Edge 32, Type (0, 0), BuildingBlock: TEMPAE_clean_linker_10, # of connection points: 2
#     Edge 33, Type (0, 0), BuildingBlock: TEMPAE_clean_linker_10, # of connection points: 2
#     Edge 34, Type (0, 0), BuildingBlock: TEMPAE_clean_linker_10, # of connection points: 2
#     Edge 35, Type (0, 0), BuildingBlock: TEMPAE_clean_linker_10, # of connection points: 2
#     Edge 36, Type (0, 0), BuildingBlock: TEMPAE_clean_linker_10, # of connection points: 2
#     Edge 37, Type (0, 0), BuildingBlock: TEMPAE_clean_linker_10, # of connection points: 2
#     Edge 38, Type (0, 0), BuildingBlock: TEMPAE_clean_linker_10, # of connection points: 2
#     Edge 39, Type (0, 0), BuildingBlock: TEMPAE_clean_linker_10, # of connection points: 2
#     Edge 40, Type (0, 0), BuildingBlock: TEMPAE_clean_linker_10, # of connection points: 2
#     Edge 41, Type (0, 0), BuildingBlock: TEMPAE_clean_linker_10, # of connection points: 2
#     Edge 42, Type (0, 0), BuildingBlock: TEMPAE_clean_linker_10, # of connection points: 2
#     Edge 43, Type (0, 0), BuildingBlock: TEMPAE_clean_linker_10, # of connection points: 2
#     Edge 44, Type (0, 0), BuildingBlock: TEMPAE_clean_linker_10, # of connection points: 2
#     Edge 45, Type (0, 0), BuildingBlock: TEMPAE_clean_linker_10, # of connection points: 2
#     Edge 46, Type (0, 0), BuildingBlock: TEMPAE_clean_linker_10, # of connection points: 2
#     Edge 47, Type (0, 0), BuildingBlock: TEMPAE_clean_linker_10, # of connection points: 2
# Relax obj value: 0.109
# Max RMSD: 0.078
# Mean RMSD: 0.069
data_MOF--net-ure--node1-NAHDIM_clean_sbu_0--edge1-TEMPAE_clean_linker_10
_symmetry_space_group_name_H-M    P1
_symmetry_Int_Tables_number       1
_symmetry_cell_setting            triclinic
loop_
_symmetry_equiv_pos_as_xyz
'x, y, z'
_cell_length_a     30.851235
_cell_length_b     32.105324
_cell_length_c     32.963602
_cell_angle_alpha  90.518104
_cell_angle_beta   91.311437
_cell_angle_gamma 93.358987
loop_
_atom_site_label
_atom_site_type_symbol
_atom_site_fract_x
_atom_site_fract_y
_atom_site_fract_z
_atom_type_partial_charge
C0 C 0.20377 0.24213 0.21028 0.0
O1 O 0.21226 0.28034 0.19755 0.0
O2 O 0.3222 0.26106 0.26166 0.0
Zn3 Zn 0.26089 0.27111 0.27573 0.0
O4 O 0.24931 0.33076 0.26402 0.0
C5 C 0.28581 0.28356 0.35707 0.0
O6 O 0.31436 0.30825 0.33856 0.0
O7 O 0.22034 0.23108 0.24387 0.0
C8 C 0.22133 0.34992 0.28344 0.0
O9 O 0.19816 0.32975 0.31075 0.0
C10 C 0.34406 0.28251 0.23625 0.0
O11 O 0.3254 0.31189 0.21595 0.0
O12 O 0.25703 0.26275 0.33585 0.0
C13 C 0.00245 0.93533 0.46283 0.0
O14 O 0.97004 0.91523 0.48083 0.0
O15 O 0.90371 0.9907 0.48205 0.0
Zn16 Zn 0.96547 0.00342 0.50146 0.0
O17 O 0.97514 0.98532 0.55895 0.0
C18 C 0.96193 0.08737 0.52825 0.0
O19 O 0.94168 0.06819 0.55796 0.0
O20 O 0.00688 0.97477 0.46642 0.0
C21 C 0.01223 0.99506 0.57503 0.0
O22 O 0.04189 0.01452 0.55299 0.0
C23 C 0.87335 0.99404 0.50703 0.0
O24 O 0.88318 0.00163 0.54545 0.0
O25 O 0.97674 0.06581 0.49971 0.0
C26 C 0.2764 0.78317 0.70947 0.0
O27 O 0.26055 0.74614 0.69733 0.0
O28 O 0.16974 0.76108 0.76663 0.0
Zn29 Zn 0.2333 0.75657 0.78008 0.0
O30 O 0.24996 0.69808 0.77019 0.0
C31 C 0.21974 0.74811 0.86368 0.0
O32 O 0.18931 0.72184 0.84848 0.0
O33 O 0.26891 0.79554 0.74522 0.0
C34 C 0.28736 0.68663 0.78038 0.0
O35 O 0.31593 0.71399 0.79698 0.0
C36 C 0.14364 0.72893 0.7658 0.0
O37 O 0.15862 0.69199 0.77194 0.0
O38 O 0.24404 0.76888 0.83958 0.0
C39 C 0.46793 0.04897 0.96659 0.0
O40 O 0.48406 0.06667 0.00017 0.0
O41 O 0.57409 0.9927 0.98862 0.0
Zn42 Zn 0.51078 0.98099 -0.00014 0.0
O43 O 0.49759 0.00077 0.0558 0.0
C44 C 0.50169 0.89729 0.02868 0.0
O45 O 0.51604 0.91598 0.06237 0.0
O46 O 0.47514 0.01113 0.95914 0.0
C47 C 0.45895 0.99564 0.06813 0.0
O48 O 0.42866 0.97893 0.04333 0.0
C49 C 0.60322 0.98261 0.01395 0.0
O50 O 0.59159 0.96524 0.04823 0.0
O51 O 0.49632 0.91891 0.99698 0.0
C52 C 0.22644 0.77708 0.31774 0.0
O53 O 0.25552 0.75703 0.33831 0.0
O54 O 0.33029 0.76222 0.26521 0.0
Zn55 Zn 0.26892 0.74271 0.24978 0.0
O56 O 0.25842 0.68203 0.26297 0.0
C57 C 0.27384 0.72554 0.16403 0.0
O58 O 0.29235 0.69214 0.17688 0.0
O59 O 0.22639 0.77575 0.27924 0.0
C60 C 0.22549 0.66101 0.24825 0.0
O61 O 0.19781 0.67961 0.2247 0.0
C62 C 0.36024 0.73785 0.25797 0.0
O63 O 0.34977 0.70038 0.24326 0.0
O64 O 0.26055 0.75127 0.1898 0.0
C65 C 0.4523 0.96204 0.51643 0.0
O66 O 0.49403 0.97046 0.5232 0.0
O67 O 0.46697 0.07148 0.4604 0.0
Zn68 Zn 0.46979 0.01094 0.44604 0.0
O69 O 0.53208 0.99663 0.44925 0.0
C70 C 0.43075 0.02856 0.36803 0.0
O71 O 0.42207 0.06382 0.38575 0.0
O72 O 0.43435 0.97604 0.48469 0.0
C73 C 0.55993 0.01703 0.42829 0.0
O74 O 0.54703 0.04659 0.40432 0.0
C75 C 0.49234 0.08933 0.48694 0.0
O76 O 0.52025 0.06724 0.50678 0.0
O77 O 0.44913 0.00097 0.38852 0.0
C78 C 0.29141 0.22487 0.7823 0.0
O79 O 0.2499 0.21581 0.77483 0.0
O80 O 0.27544 0.29637 0.68223 0.0
Zn81 Zn 0.27183 0.30091 0.74278 0.0
O82 O 0.20933 0.29069 0.75756 0.0
C83 C 0.31704 0.38158 0.73865 0.0
O84 O 0.33269 0.36557 0.70561 0.0
O85 O 0.30837 0.25968 0.77079 0.0
C86 C 0.17943 0.30327 0.73439 0.0
O87 O 0.19004 0.32372 0.70138 0.0
C88 C 0.29412 0.26867 0.66253 0.0
O89 O 0.31348 0.23934 0.68224 0.0
O90 O 0.29129 0.35916 0.76005 0.0
C91 C 0.03099 0.03646 0.02801 0.0
O92 O 0.99234 0.02134 0.0383 0.0
O93 O 0.0199 0.92708 0.97003 0.0
Zn94 Zn 0.00887 0.98702 0.9574 0.0
O95 O 0.9457 0.99665 0.96616 0.0
C96 C 0.04473 0.97384 0.87815 0.0
O97 O 0.06453 0.94397 0.8966 0.0
O98 O 0.04588 0.02587 0.99401 0.0
C99 C 0.9169 0.99227 0.938 0.0
O100 O 0.92807 0.98176 0.90126 0.0
C101 C 0.99639 0.89859 0.95179 0.0
O102 O 0.96537 0.90929 0.92676 0.0
O103 O 0.02136 0.99729 0.89857 0.0
C104 C 0.74953 0.27958 0.82534 0.0
O105 O 0.79061 0.27992 0.83681 0.0
O106 O 0.8376 0.23798 0.77373 0.0
Zn107 Zn 0.77445 0.22104 0.76384 0.0
O108 O 0.76138 0.16148 0.77906 0.0
C109 C 0.78031 0.205 0.67886 0.0
O110 O 0.80757 0.17802 0.69212 0.0
O111 O 0.73615 0.25715 0.79516 0.0
C112 C 0.72408 0.14465 0.77005 0.0
O113 O 0.69526 0.16707 0.75185 0.0
C114 C 0.86622 0.21111 0.77288 0.0
O115 O 0.85396 0.17148 0.76795 0.0
O116 O 0.76134 0.22716 0.70434 0.0
C117 C 0.98147 0.4693 0.04226 0.0
O118 O 0.02318 0.47771 0.04923 0.0
O119 O 0.01102 0.56906 0.97951 0.0
Zn120 Zn 0.00311 0.50778 0.96746 0.0
O121 O 0.06184 0.48388 0.96983 0.0
C122 C 0.9569 0.52744 0.89277 0.0
O123 O 0.94764 0.56143 0.91246 0.0
O124 O 0.96467 0.47967 0.00854 0.0
C125 C 0.07786 0.46445 0.94049 0.0
O126 O 0.05508 0.45848 0.90657 0.0
C127 C 0.03683 0.59123 0.95793 0.0
O128 O 0.05832 0.57303 0.92943 0.0
O129 O 0.97801 0.50005 0.91096 0.0
C130 C 0.79437 0.72194 0.28508 0.0
O131 O 0.76362 0.70823 0.25926 0.0
O132 O 0.76494 0.78491 0.19996 0.0
Zn133 Zn 0.76541 0.80051 0.25948 0.0
O134 O 0.70371 0.79746 0.27804 0.0
C135 C 0.79429 0.88419 0.23803 0.0
O136 O 0.78508 0.86987 0.20119 0.0
O137 O 0.80097 0.761 0.29079 0.0
C138 C 0.67805 0.82249 0.26196 0.0
O139 O 0.69349 0.85003 0.23596 0.0
C140 C 0.73279 0.76497 0.18249 0.0
O141 O 0.6993 0.75214 0.20391 0.0
O142 O 0.78977 0.85966 0.26789 0.0
C143 C 0.97576 0.52631 0.44375 0.0
O144 O 0.01202 0.51285 0.42978 0.0
O145 O 0.06536 0.49329 0.50179 0.0
Zn146 Zn 0.00259 0.48539 0.51694 0.0
O147 O 0.99446 0.50429 0.57424 0.0
C148 C 0.00261 0.40066 0.53904 0.0
O149 O 0.02821 0.41775 0.56772 0.0
O150 O 0.96515 0.51775 0.47986 0.0
C151 C 0.95756 0.49805 0.59014 0.0
O152 O 0.92534 0.48044 0.56814 0.0
C153 C 0.09577 0.49217 0.52834 0.0
O154 O 0.08604 0.48858 0.56678 0.0
O155 O 0.98583 0.42401 0.51279 0.0
C156 C 0.53195 0.43636 0.98008 0.0
O157 O 0.51403 0.4192 0.01212 0.0
O158 O 0.41647 0.48671 0.98047 0.0
Zn159 Zn 0.47702 0.50086 0.0014 0.0
O160 O 0.48347 0.48576 0.06009 0.0
C161 C 0.45981 0.58392 0.01726 0.0
O162 O 0.42797 0.56391 0.03618 0.0
O163 O 0.52075 0.47202 0.96889 0.0
C164 C 0.51851 0.499 0.07812 0.0
O165 O 0.54792 0.52049 0.05745 0.0
C166 C 0.39792 0.45048 0.9767 0.0
O167 O 0.41925 0.41775 0.9868 0.0
O168 O 0.48685 0.56295 0.99846 0.0
C169 C 0.68443 0.72805 0.72483 0.0
O170 O 0.69626 0.76568 0.71236 0.0
O171 O 0.79747 0.74848 0.78076 0.0
Zn172 Zn 0.73524 0.75654 0.79399 0.0
O173 O 0.72243 0.81569 0.78108 0.0
C174 C 0.73464 0.77653 0.87893 0.0
O175 O 0.74753 0.8134 0.86533 0.0
O176 O 0.69687 0.71674 0.75985 0.0
C177 C 0.6903 0.83355 0.79529 0.0
O178 O 0.66283 0.81246 0.81836 0.0
C179 C 0.82679 0.77592 0.79188 0.0
O180 O 0.81575 0.80936 0.81141 0.0
O181 O 0.72718 0.7464 0.85392 0.0
C182 C 0.79825 0.29366 0.23184 0.0
O183 O 0.78131 0.25796 0.21726 0.0
O184 O 0.68669 0.27768 0.28434 0.0
Zn185 Zn 0.74846 0.2663 0.29873 0.0
O186 O 0.75827 0.20653 0.28563 0.0
C187 C 0.73466 0.24407 0.37825 0.0
O188 O 0.70753 0.21834 0.35764 0.0
O189 O 0.78918 0.30472 0.26764 0.0
C190 C 0.79575 0.19222 0.28793 0.0
O191 O 0.82967 0.21759 0.2968 0.0
C192 C 0.6669 0.25889 0.25462 0.0
O193 O 0.68767 0.23248 0.2327 0.0
O194 O 0.7573 0.27141 0.35904 0.0
C195 C 0.51639 0.53081 0.53128 0.0
O196 O 0.47613 0.51787 0.53843 0.0
O197 O 0.50921 0.42173 0.47105 0.0
Zn198 Zn 0.49883 0.48145 0.45965 0.0
O199 O 0.43546 0.48984 0.4657 0.0
C200 C 0.53674 0.4702 0.38126 0.0
O201 O 0.55435 0.43867 0.39909 0.0
O202 O 0.53376 0.51917 0.49878 0.0
C203 C 0.40642 0.46373 0.45139 0.0
O204 O 0.41813 0.43064 0.43162 0.0
C205 C 0.49138 0.40187 0.49997 0.0
O206 O 0.46644 0.42144 0.52467 0.0
O207 O 0.51345 0.49361 0.4018 0.0
C208 C 0.15408 0.22534 0.15065 0.0
C209 C 0.17705 0.21182 0.18481 0.0
C210 C 0.12975 0.19685 0.12543 0.0
C211 C 0.12875 0.15376 0.13436 0.0
C212 C 0.15169 0.13991 0.1689 0.0
C213 C 0.17538 0.16915 0.19385 0.0
C214 C 0.10528 0.21283 0.08912 0.0
C215 C 0.15165 0.09417 0.17919 0.0
C216 C 0.03672 0.08309 0.08926 0.0
C217 C 0.0563 0.06601 0.05542 0.0
C218 C 0.05992 0.11169 0.11521 0.0
C219 C 0.10389 0.12316 0.10736 0.0
C220 C 0.12401 0.10572 0.07351 0.0
C221 C 0.09989 0.07751 0.0478 0.0
C222 C 0.03725 0.12993 0.15081 0.0
C223 C 0.171 0.11691 0.06443 0.0
H224 H 0.15507 0.25828 0.14356 0.0
H225 H 0.1932 0.15843 0.2201 0.0
H226 H 0.11742 0.19912 0.06085 0.0
H227 H 0.07028 0.20303 0.09082 0.0
H228 H 0.10859 0.24737 0.08693 0.0
H229 H 0.17105 0.08853 0.2072 0.0
H230 H 0.11789 0.08136 0.18341 0.0
H231 H 0.16511 0.07655 0.15374 0.0
H232 H 0.003 0.07449 0.09529 0.0
H233 H 0.11529 0.0643 0.02181 0.0
H234 H 0.03783 0.1644 0.14828 0.0
H235 H 0.05461 0.12284 0.17953 0.0
H236 H 0.00293 0.11768 0.15275 0.0
H237 H 0.1757 0.15091 0.05905 0.0
H238 H 0.18206 0.09992 0.0374 0.0
H239 H 0.19199 0.10961 0.09089 0.0
C240 C 0.07263 0.93299 0.4267 0.0
C241 C 0.03456 0.91221 0.44044 0.0
C242 C 0.10412 0.91121 0.40674 0.0
C243 C 0.0972 0.8677 0.40013 0.0
C244 C 0.05864 0.8466 0.4135 0.0
C245 C 0.02782 0.86911 0.43365 0.0
C246 C 0.14494 0.93472 0.39299 0.0
C247 C 0.05001 0.80024 0.40665 0.0
C248 C 0.16017 0.81828 0.31675 0.0
C249 C 0.19355 0.80035 0.33894 0.0
C250 C 0.12847 0.8401 0.33632 0.0
C251 C 0.13032 0.84428 0.37908 0.0
C252 C 0.16394 0.82638 0.4017 0.0
C253 C 0.19513 0.80451 0.38134 0.0
C254 C 0.09297 0.85865 0.31122 0.0
C255 C 0.16703 0.83043 0.44737 0.0
H256 H 0.07815 0.96627 0.43196 0.0
H257 H 0.99844 0.85287 0.4441 0.0
H258 H 0.17385 0.92159 0.40754 0.0
H259 H 0.14804 0.93104 0.35971 0.0
H260 H 0.14536 0.96854 0.40049 0.0
H261 H 0.01809 0.78865 0.41838 0.0
H262 H 0.05077 0.79276 0.37376 0.0
H263 H 0.07588 0.78305 0.42185 0.0
H264 H 0.15862 0.81511 0.28397 0.0
H265 H 0.22084 0.79079 0.39869 0.0
H266 H 0.09393 0.89293 0.31611 0.0
H267 H 0.06072 0.84584 0.32096 0.0
H268 H 0.09592 0.85223 0.27826 0.0
H269 H 0.17006 0.86388 0.45638 0.0
H270 H 0.1952 0.81473 0.46046 0.0
H271 H 0.13692 0.81669 0.46089 0.0
C272 C 0.4474 0.91547 0.57666 0.0
C273 C 0.42656 0.93653 0.54537 0.0
C274 C 0.42346 0.89074 0.60405 0.0
C275 C 0.37761 0.88736 0.60026 0.0
C276 C 0.35634 0.90889 0.56904 0.0
C277 C 0.38111 0.93306 0.54181 0.0
C278 C 0.44725 0.86786 0.63675 0.0
C279 C 0.30744 0.90628 0.56432 0.0
C280 C 0.31663 0.79343 0.64518 0.0
C281 C 0.30253 0.80988 0.68181 0.0
C282 C 0.34139 0.81826 0.61849 0.0
C283 C 0.35188 0.86065 0.62853 0.0
C284 C 0.33768 0.87751 0.66542 0.0
C285 C 0.31333 0.85183 0.69176 0.0
C286 C 0.35636 0.79912 0.57959 0.0
C287 C 0.34797 0.92271 0.6769 0.0
H288 H 0.48253 0.91792 0.57952 0.0
H289 H 0.36478 0.94943 0.51783 0.0
H290 H 0.43621 0.87728 0.6671 0.0
H291 H 0.43969 0.83376 0.63342 0.0
H292 H 0.48302 0.87399 0.63571 0.0
H293 H 0.29589 0.92583 0.5391 0.0
H294 H 0.29549 0.87347 0.55842 0.0
H295 H 0.29266 0.91647 0.59285 0.0
H296 H 0.30858 0.76098 0.63739 0.0
H297 H 0.3024 0.86476 0.71997 0.0
H298 H 0.39229 0.80251 0.57827 0.0
H299 H 0.34314 0.81577 0.55312 0.0
H300 H 0.346 0.76548 0.5766 0.0
H301 H 0.38366 0.92942 0.67847 0.0
H302 H 0.33433 0.93102 0.70661 0.0
H303 H 0.33472 0.9432 0.6533 0.0
C304 C 0.43351 0.05863 0.89813 0.0
C305 C 0.44169 0.07289 0.93806 0.0
C306 C 0.40928 0.08165 0.87068 0.0
C307 C 0.39236 0.11941 0.88377 0.0
C308 C 0.40006 0.13366 0.9242 0.0
C309 C 0.42493 0.11037 0.95077 0.0
C310 C 0.40216 0.06584 0.82763 0.0
C311 C 0.38201 0.17351 0.9394 0.0
C312 C 0.36285 0.20248 0.80872 0.0
C313 C 0.31752 0.19607 0.80593 0.0
C314 C 0.38778 0.17683 0.83295 0.0
C315 C 0.36679 0.14437 0.85526 0.0
C316 C 0.32115 0.13717 0.8519 0.0
C317 C 0.29706 0.16298 0.82704 0.0
C318 C 0.43648 0.18509 0.83541 0.0
C319 C 0.29762 0.1031 0.87557 0.0
H320 H 0.44659 0.02975 0.88813 0.0
H321 H 0.4309 0.12139 0.98169 0.0
H322 H 0.36688 0.06117 0.82053 0.0
H323 H 0.41566 0.08936 0.80615 0.0
H324 H 0.41759 0.03593 0.82225 0.0
H325 H 0.39011 0.17969 0.972 0.0
H326 H 0.39508 0.20034 0.92154 0.0
H327 H 0.34616 0.17185 0.9352 0.0
H328 H 0.37887 0.22782 0.79222 0.0
H329 H 0.26203 0.1579 0.82507 0.0
H330 H 0.4529 0.15608 0.82858 0.0
H331 H 0.4466 0.19507 0.86668 0.0
H332 H 0.44802 0.20969 0.81406 0.0
H333 H 0.3114 0.07262 0.86929 0.0
H334 H 0.26224 0.10039 0.8682 0.0
H335 H 0.30217 0.10954 0.90858 0.0
C336 C 0.67428 0.30094 0.8371 0.0
C337 C 0.71865 0.30417 0.84776 0.0
C338 C 0.64431 0.32323 0.85849 0.0
C339 C 0.6591 0.3495 0.89124 0.0
C340 C 0.70386 0.35329 0.90194 0.0
C341 C 0.73315 0.33048 0.88008 0.0
C342 C 0.59676 0.3183 0.84631 0.0
C343 C 0.72073 0.38116 0.93665 0.0
C344 C 0.58504 0.43317 0.92405 0.0
C345 C 0.56493 0.4145 0.95762 0.0
C346 C 0.61623 0.41259 0.90245 0.0
C347 C 0.62744 0.37241 0.91469 0.0
C348 C 0.6075 0.35352 0.94869 0.0
C349 C 0.5765 0.37482 0.96977 0.0
C350 C 0.63689 0.43366 0.86632 0.0
C351 C 0.61858 0.31061 0.96253 0.0
H352 H 0.66277 0.28065 0.81219 0.0
H353 H 0.76739 0.33321 0.88843 0.0
H354 H 0.57767 0.30575 0.87207 0.0
H355 H 0.58443 0.34914 0.83878 0.0
H356 H 0.59068 0.29705 0.81975 0.0
H357 H 0.7566 0.38133 0.94054 0.0
H358 H 0.71151 0.41361 0.93149 0.0
H359 H 0.70571 0.37061 0.96533 0.0
H360 H 0.57635 0.46388 0.91454 0.0
H361 H 0.56116 0.3602 0.9957 0.0
H362 H 0.62936 0.41463 0.83851 0.0
H363 H 0.67274 0.43605 0.87051 0.0
H364 H 0.62546 0.46544 0.86143 0.0
H365 H 0.61053 0.28741 0.93796 0.0
H366 H 0.60082 0.30071 0.99009 0.0
H367 H 0.65396 0.31008 0.96916 0.0
C368 C 0.97489 0.42741 0.10557 0.0
C369 C 0.95487 0.44652 0.07256 0.0
C370 C 0.95028 0.40384 0.1334 0.0
C371 C 0.90456 0.39973 0.12832 0.0
C372 C 0.88405 0.41995 0.09575 0.0
C373 C 0.90949 0.44291 0.0681 0.0
C374 C 0.97331 0.38235 0.16752 0.0
C375 C 0.8353 0.41663 0.08963 0.0
C376 C 0.84331 0.30465 0.17063 0.0
C377 C 0.82662 0.3207 0.20636 0.0
C378 C 0.86927 0.32993 0.14533 0.0
C379 C 0.87832 0.37246 0.15576 0.0
C380 C 0.86182 0.38886 0.19191 0.0
C381 C 0.83636 0.36266 0.21698 0.0
C382 C 0.88676 0.31118 0.10728 0.0
C383 C 0.87049 0.43418 0.20375 0.0
H384 H 0.00996 0.43002 0.10918 0.0
H385 H 0.89379 0.45786 0.04282 0.0
H386 H 0.96 0.39123 0.19714 0.0
H387 H 0.96768 0.34803 0.16406 0.0
H388 H 0.00889 0.39014 0.16826 0.0
H389 H 0.82425 0.43632 0.06431 0.0
H390 H 0.82418 0.38373 0.08299 0.0
H391 H 0.81931 0.42611 0.1178 0.0
H392 H 0.83614 0.27217 0.16239 0.0
H393 H 0.8234 0.37527 0.24449 0.0
H394 H 0.92268 0.31589 0.1073 0.0
H395 H 0.87399 0.32713 0.08019 0.0
H396 H 0.87786 0.27725 0.10423 0.0
H397 H 0.90598 0.4419 0.20615 0.0
H398 H 0.85576 0.44193 0.23311 0.0
H399 H 0.85721 0.45434 0.17988 0.0
C400 C 0.96189 0.56583 0.3801 0.0
C401 C 0.94844 0.55278 0.41854 0.0
C402 C 0.9371 0.5925 0.3568 0.0
C403 C 0.89794 0.60627 0.37232 0.0
C404 C 0.8838 0.59259 0.41076 0.0
C405 C 0.90923 0.56604 0.43342 0.0
C406 C 0.95316 0.60651 0.3159 0.0
C407 C 0.84211 0.60651 0.42823 0.0
C408 C 0.8546 0.70709 0.33392 0.0
C409 C 0.82125 0.69232 0.30693 0.0
C410 C 0.88021 0.6794 0.35498 0.0
C411 C 0.87221 0.6359 0.34894 0.0
C412 C 0.83889 0.62076 0.3215 0.0
C413 C 0.81378 0.64918 0.3008 0.0
C414 C 0.91555 0.69668 0.38398 0.0
C415 C 0.82949 0.57455 0.31433 0.0
H416 H 0.99213 0.55571 0.36839 0.0
H417 H 0.8985 0.55598 0.46304 0.0
H418 H 0.928 0.59862 0.29203 0.0
H419 H 0.95926 0.64091 0.31602 0.0
H420 H 0.98357 0.59193 0.30764 0.0
H421 H 0.83505 0.59203 0.45802 0.0
H422 H 0.84414 0.64093 0.43223 0.0
H423 H 0.81445 0.59843 0.40696 0.0
H424 H 0.86067 0.74039 0.33874 0.0
H425 H 0.78816 0.63751 0.27993 0.0
H426 H 0.9473 0.68506 0.37547 0.0
H427 H 0.90886 0.68571 0.41517 0.0
H428 H 0.91835 0.73134 0.38441 0.0
H429 H 0.85918 0.56003 0.30412 0.0
H430 H 0.80314 0.5679 0.29123 0.0
H431 H 0.81988 0.55934 0.34311 0.0
C432 C 0.51941 0.5771 0.59272 0.0
C433 C 0.54085 0.55895 0.56054 0.0
C434 C 0.54191 0.60439 0.62039 0.0
C435 C 0.587 0.61339 0.61597 0.0
C436 C 0.60894 0.59478 0.58386 0.0
C437 C 0.58554 0.56793 0.55638 0.0
C438 C 0.51735 0.62395 0.65405 0.0
C439 C 0.65712 0.60336 0.57847 0.0
C440 C 0.63921 0.71332 0.66199 0.0
C441 C 0.65837 0.69883 0.69776 0.0
C442 C 0.61542 0.68589 0.63535 0.0
C443 C 0.6111 0.64289 0.64452 0.0
C444 C 0.63015 0.62807 0.68068 0.0
C445 C 0.65338 0.65629 0.70702 0.0
C446 C 0.5951 0.7029 0.59729 0.0
C447 C 0.62649 0.58235 0.69126 0.0
H448 H 0.48485 0.57039 0.59607 0.0
H449 H 0.60235 0.55385 0.5317 0.0
H450 H 0.53182 0.61621 0.68396 0.0
H451 H 0.51998 0.65843 0.65138 0.0
H452 H 0.48241 0.61335 0.65351 0.0
H453 H 0.66952 0.58551 0.55259 0.0
H454 H 0.66431 0.63711 0.57324 0.0
H455 H 0.67516 0.59515 0.6065 0.0
H456 H 0.64276 0.74619 0.65475 0.0
H457 H 0.66824 0.64487 0.73454 0.0
H458 H 0.55961 0.6949 0.59642 0.0
H459 H 0.60881 0.68833 0.57015 0.0
H460 H 0.60055 0.73731 0.59515 0.0
H461 H 0.59182 0.57135 0.6929 0.0
H462 H 0.64295 0.57593 0.72068 0.0
H463 H 0.64109 0.56377 0.66712 0.0
C464 C 0.32154 0.30092 0.42437 0.0
C465 C 0.28756 0.28018 0.40179 0.0
C466 C 0.32374 0.29823 0.46678 0.0
C467 C 0.29095 0.27449 0.48712 0.0
C468 C 0.25655 0.25352 0.46455 0.0
C469 C 0.25535 0.25648 0.4221 0.0
C470 C 0.36073 0.32149 0.48971 0.0
C471 C 0.22052 0.22867 0.4853 0.0
C472 C 0.3135 0.23943 0.59498 0.0
C473 C 0.29364 0.26985 0.61766 0.0
C474 C 0.31289 0.24049 0.55239 0.0
C475 C 0.29184 0.27268 0.53214 0.0
C476 C 0.27165 0.30334 0.55489 0.0
C477 C 0.27294 0.30166 0.59732 0.0
C478 C 0.3343 0.20692 0.52912 0.0
C479 C 0.24907 0.33824 0.53447 0.0
H480 H 0.34651 0.31942 0.40894 0.0
H481 H 0.22891 0.24054 0.40487 0.0
H482 H 0.34862 0.34958 0.5045 0.0
H483 H 0.37404 0.30179 0.51391 0.0
H484 H 0.38751 0.33177 0.46944 0.0
H485 H 0.19645 0.21371 0.46333 0.0
H486 H 0.23423 0.20404 0.50424 0.0
H487 H 0.20336 0.24939 0.50586 0.0
H488 H 0.32947 0.21469 0.61044 0.0
H489 H 0.25759 0.32541 0.61456 0.0
H490 H 0.3549 0.22087 0.5051 0.0
H491 H 0.30899 0.1859 0.51392 0.0
H492 H 0.35461 0.18787 0.54912 0.0
H493 H 0.23068 0.35667 0.55618 0.0
H494 H 0.22633 0.32579 0.51015 0.0
H495 H 0.27369 0.35949 0.52011 0.0
C496 C 0.02694 0.01077 0.81407 0.0
C497 C 0.04529 0.97709 0.83345 0.0
C498 C 0.02398 0.01261 0.77164 0.0
C499 C 0.03944 0.97979 0.74803 0.0
C500 C 0.05865 0.946 0.76735 0.0
C501 C 0.06165 0.94522 0.80988 0.0
C502 C 0.00341 0.04926 0.75211 0.0
C503 C 0.07583 0.91056 0.74324 0.0
C504 C 0.9892 0.96705 0.64228 0.0
C505 C 0.02068 0.98802 0.61872 0.0
C506 C 0.99556 0.96296 0.68429 0.0
C507 C 0.03418 0.98048 0.70316 0.0
C508 C 0.06668 0.00045 0.67939 0.0
C509 C 0.05957 0.00393 0.63741 0.0
C510 C 0.96057 0.94066 0.70864 0.0
C511 C 0.1084 0.01922 0.69847 0.0
H512 H 0.01433 0.03555 0.83209 0.0
H513 H 0.07583 0.91904 0.82463 0.0
H514 H 0.02606 0.06458 0.7304 0.0
H515 H 0.97373 0.03819 0.73461 0.0
H516 H 0.99441 0.07291 0.77474 0.0
H517 H 0.08279 0.88349 0.76261 0.0
H518 H 0.0524 0.89987 0.71878 0.0
H519 H 0.10633 0.92159 0.72855 0.0
H520 H 0.95922 0.95438 0.62801 0.0
H521 H 0.08415 0.02004 0.61942 0.0
H522 H 0.94759 0.96266 0.73083 0.0
H523 H 0.9744 0.91502 0.72617 0.0
H524 H 0.93322 0.92736 0.68918 0.0
H525 H 0.10112 0.04484 0.71962 0.0
H526 H 0.13131 0.03189 0.67552 0.0
H527 H 0.12467 0.99541 0.71653 0.0
C528 C 0.19802 0.72959 0.93383 0.0
C529 C 0.22724 0.75069 0.90808 0.0
C530 C 0.20597 0.7287 0.97576 0.0
C531 C 0.24437 0.74907 0.99234 0.0
C532 C 0.27338 0.77156 0.96673 0.0
C533 C 0.26442 0.77216 0.9248 0.0
C534 C 0.17394 0.70474 0.0021 0.0
C535 C 0.31467 0.79363 0.98334 0.0
C536 C 0.24652 0.76741 0.10617 0.0
C537 C 0.26808 0.7328 0.12006 0.0
C538 C 0.2396 0.77379 0.06454 0.0
C539 C 0.25481 0.74499 0.03623 0.0
C540 C 0.27765 0.71066 0.04999 0.0
C541 C 0.28386 0.70489 0.09177 0.0
C542 C 0.21537 0.81089 0.05086 0.0
C543 C 0.29476 0.67953 0.02062 0.0
H544 H 0.16919 0.71297 0.92118 0.0
H545 H 0.28717 0.78847 0.90504 0.0
H546 H 0.18913 0.677 0.01465 0.0
H547 H 0.16498 0.72433 0.02815 0.0
H548 H 0.14377 0.69407 0.98504 0.0
H549 H 0.33114 0.8136 0.96031 0.0
H550 H 0.30787 0.81322 0.01007 0.0
H551 H 0.33734 0.77015 0.9936 0.0
H552 H 0.23448 0.78929 0.12783 0.0
H553 H 0.30081 0.67823 0.10224 0.0
H554 H 0.18646 0.80023 0.03213 0.0
H555 H 0.23642 0.83118 0.03149 0.0
H556 H 0.20462 0.82977 0.07676 0.0
H557 H 0.26738 0.66381 0.00292 0.0
H558 H 0.31313 0.65533 0.03622 0.0
H559 H 0.31644 0.69582 0.99871 0.0
C560 C 0.41336 0.05681 0.2995 0.0
C561 C 0.42515 0.0233 0.32359 0.0
C562 C 0.41386 0.05405 0.25702 0.0
C563 C 0.42632 0.01686 0.23836 0.0
C564 C 0.4359 0.98215 0.26246 0.0
C565 C 0.43525 0.98582 0.30481 0.0
C566 C 0.40326 0.09163 0.23225 0.0
C567 C 0.44925 0.94188 0.24369 0.0
C568 C 0.40772 0.99489 0.12588 0.0
C569 C 0.44923 0.00469 0.11088 0.0
C570 C 0.39925 -0.0 0.16721 0.0
C571 C 0.43313 0.01522 0.194 0.0
C572 C 0.47464 0.02657 0.17879 0.0
C573 C 0.48218 0.02119 0.13739 0.0
C574 C 0.35457 0.9877 0.18245 0.0
C575 C 0.51158 0.04303 0.20646 0.0
H576 H 0.40539 0.08584 0.31378 0.0
H577 H 0.44413 0.95968 0.32319 0.0
H578 H 0.43322 0.10502 0.21818 0.0
H579 H 0.37981 0.08246 0.20728 0.0
H580 H 0.38943 0.11633 0.25098 0.0
H581 H 0.44945 0.9162 0.26602 0.0
H582 H 0.42709 0.93198 0.21798 0.0
H583 H 0.4824 0.94671 0.23152 0.0
H584 H 0.38205 0.98223 0.10554 0.0
H585 H 0.51429 0.02905 0.126 0.0
H586 H 0.34221 0.01348 0.20069 0.0
H587 H 0.35636 0.96035 0.20264 0.0
H588 H 0.33092 0.97955 0.1573 0.0
H589 H 0.5017 0.07035 0.22411 0.0
H590 H 0.5412 0.05248 0.18949 0.0
H591 H 0.51985 0.01867 0.22854 0.0
C592 C 0.41662 0.30221 0.20708 0.0
C593 C 0.39113 0.27705 0.23297 0.0
C594 C 0.46187 0.29955 0.20654 0.0
C595 C 0.48194 0.27131 0.23269 0.0
C596 C 0.45622 0.24486 0.25784 0.0
C597 C 0.41114 0.24799 0.2576 0.0
C598 C 0.4883 0.32745 0.17859 0.0
C599 C 0.47641 0.2142 0.28607 0.0
C600 C 0.59706 0.24002 0.21704 0.0
C601 C 0.62023 0.26452 0.24662 0.0
C602 C 0.55214 0.24279 0.21123 0.0
C603 C 0.52997 0.27077 0.23555 0.0
C604 C 0.55336 0.29653 0.26458 0.0
C605 C 0.59825 0.29313 0.26973 0.0
C606 C 0.52819 0.21466 0.18015 0.0
C607 C 0.53074 0.32674 0.29109 0.0
H608 H 0.40138 0.32455 0.18778 0.0
H609 H 0.39171 0.22828 0.27758 0.0
H610 H 0.51211 0.34762 0.19657 0.0
H611 H 0.50709 0.30825 0.15798 0.0
H612 H 0.46776 0.34756 0.15994 0.0
H613 H 0.45163 0.19419 0.30186 0.0
H614 H 0.49748 0.19379 0.26896 0.0
H615 H 0.49725 0.23139 0.30928 0.0
H616 H 0.61381 0.21788 0.19901 0.0
H617 H 0.61595 0.31237 0.29247 0.0
H618 H 0.50744 0.23305 0.16002 0.0
H619 H 0.50645 0.19152 0.19576 0.0
H620 H 0.55066 0.19754 0.16114 0.0
H621 H 0.51295 0.34864 0.27195 0.0
H622 H 0.55376 0.34511 0.31165 0.0
H623 H 0.50645 0.30946 0.30986 0.0
C624 C 0.02092 0.32936 0.56029 0.0
C625 C 0.9952 0.35482 0.53659 0.0
C626 C 0.01537 0.2858 0.55769 0.0
C627 C 0.98283 0.26729 0.53125 0.0
C628 C 0.9565 0.29274 0.50745 0.0
C629 C 0.9632 0.3363 0.5102 0.0
C630 C 0.04448 0.25955 0.58308 0.0
C631 C 0.92159 0.27396 0.47883 0.0
C632 C 0.99399 0.15433 0.50056 0.0
C633 C 0.96666 0.1334 0.52808 0.0
C634 C -0.00083 0.19804 0.50087 0.0
C635 C 0.97611 0.2212 0.52909 0.0
C636 C 0.94786 0.20028 0.55642 0.0
C637 C 0.94365 0.15661 0.55572 0.0
C638 C 0.02994 0.21938 0.47157 0.0
C639 C 0.9223 0.22402 0.58658 0.0
H640 H 0.04589 0.34343 0.58058 0.0
H641 H 0.94325 0.35584 0.49181 0.0
H642 H 0.02464 0.23991 0.60402 0.0
H643 H 0.06164 0.23813 0.56325 0.0
H644 H 0.06912 0.27878 0.60121 0.0
H645 H 0.90157 0.298 0.46501 0.0
H646 H 0.93673 0.25667 0.45412 0.0
H647 H 0.89997 0.25119 0.49501 0.0
H648 H 0.01186 0.13654 0.47917 0.0
H649 H 0.92219 0.14065 0.57687 0.0
H650 H 0.05652 0.23709 0.48865 0.0
H651 H 0.01265 0.24215 0.45307 0.0
H652 H 0.04452 0.19689 0.45083 0.0
H653 H 0.94471 0.24371 0.60655 0.0
H654 H 0.90193 0.20298 0.60591 0.0
H655 H 0.90086 0.24518 0.57025 0.0
C656 C 0.90552 0.79259 0.80664 0.0
C657 C 0.87294 0.76969 0.78428 0.0
C658 C 0.94947 0.78599 0.80103 0.0
C659 C 0.96107 0.75615 0.77193 0.0
C660 C 0.92838 0.73367 0.74852 0.0
C661 C 0.8846 0.74049 0.7552 0.0
C662 C 0.98337 0.80991 0.82724 0.0
C663 C 0.93969 0.70281 0.71617 0.0
C664 C 0.07921 0.76633 0.74235 0.0
C665 C 0.09653 0.73382 0.76431 0.0
C666 C 0.03462 0.77267 0.74293 0.0
C667 C 0.00735 0.74711 0.76762 0.0
C668 C 0.02477 0.71396 0.78959 0.0
C669 C 0.06904 0.70718 0.78688 0.0
C670 C 0.01674 0.80677 0.71733 0.0
C671 C 0.99712 0.68536 0.81601 0.0
H672 H 0.89665 0.81502 0.82934 0.0
H673 H 0.8595 0.72308 0.7375 0.0
H674 H 0.00081 0.78778 0.84635 0.0
H675 H 0.00786 0.8265 0.80821 0.0
H676 H 0.96902 0.83317 0.84727 0.0
H677 H 0.91041 0.68625 0.70208 0.0
H678 H 0.95814 0.71944 0.69209 0.0
H679 H 0.96094 0.67937 0.72906 0.0
H680 H 0.10052 0.78665 0.72457 0.0
H681 H 0.08246 0.68198 0.80388 0.0
H682 H 0.00487 0.83158 0.7371 0.0
H683 H 0.98861 0.79406 0.69856 0.0
H684 H 0.04147 0.82112 0.69694 0.0
H685 H 0.0168 0.67198 0.84079 0.0
H686 H 0.98282 0.65899 0.79721 0.0
H687 H 0.97014 0.7015 0.82971 0.0
C688 C 0.50003 0.65136 0.00095 0.0
C689 C 0.46449 0.63 0.01878 0.0
C690 C 0.50524 0.69501 0.00294 0.0
C691 C 0.47401 0.71781 0.02299 0.0
C692 C 0.43808 0.69648 0.04106 0.0
C693 C 0.43368 0.65281 0.03864 0.0
C694 C 0.54429 0.71673 0.98375 0.0
C695 C 0.4042 0.71977 0.06278 0.0
C696 C 0.50889 0.82726 0.05935 0.0
C697 C 0.4932 0.85153 0.02768 0.0
C698 C 0.50259 0.78368 0.05839 0.0
C699 C 0.47931 0.76401 0.0253 0.0
C700 C 0.46231 0.78839 0.99379 0.0
C701 C 0.46986 0.83191 0.99514 0.0
C702 C 0.521 0.75879 0.09277 0.0
C703 C 0.43674 0.76851 0.95834 0.0
H704 H 0.52401 0.63396 0.98562 0.0
H705 H 0.40606 0.63655 0.05243 0.0
H706 H 0.5335 0.73552 0.95773 0.0
H707 H 0.56142 0.73854 0.00585 0.0
H708 H 0.56765 0.69438 0.97271 0.0
H709 H 0.37956 0.69839 0.07707 0.0
H710 H 0.41973 0.74051 0.08669 0.0
H711 H 0.38748 0.73989 0.04102 0.0
H712 H 0.52684 0.84224 0.08468 0.0
H713 H 0.45736 0.85057 0.97076 0.0
H714 H 0.53892 0.73254 0.08079 0.0
H715 H 0.49409 0.74515 0.11107 0.0
H716 H 0.54323 0.77826 0.11318 0.0
H717 H 0.45866 0.75086 0.93928 0.0
H718 H 0.42132 0.79197 0.93906 0.0
H719 H 0.41104 0.74595 0.96917 0.0
C720 C 0.6141 0.78907 0.29693 0.0
C721 C 0.63069 0.81641 0.26739 0.0
C722 C 0.56933 0.77918 0.29907 0.0
C723 C 0.54065 0.79666 0.27068 0.0
C724 C 0.557 0.82577 0.24202 0.0
C725 C 0.60185 0.83548 0.24088 0.0
C726 C 0.55294 0.74852 0.33046 0.0
C727 C 0.52742 0.84495 0.21113 0.0
C728 C 0.43799 0.73179 0.24178 0.0
C729 C 0.40636 0.75249 0.26261 0.0
C730 C 0.48174 0.74609 0.24404 0.0
C731 C 0.49428 0.78151 0.26837 0.0
C732 C 0.4626 0.80234 0.28987 0.0
C733 C 0.41885 0.7877 0.28652 0.0
C734 C 0.51444 0.72362 0.21986 0.0
C735 C 0.47494 0.83975 0.31668 0.0
H736 H 0.6362 0.77452 0.31773 0.0
H737 H 0.6144 0.85668 0.21798 0.0
H738 H 0.52542 0.76104 0.34683 0.0
H739 H 0.5407 0.71904 0.31523 0.0
H740 H 0.5787 0.74121 0.35295 0.0
H741 H 0.54451 0.87022 0.19381 0.0
H742 H 0.51444 0.82051 0.18934 0.0
H743 H 0.49927 0.85788 0.22617 0.0
H744 H 0.42845 0.70483 0.2229 0.0
H745 H 0.39447 0.80367 0.30279 0.0
H746 H 0.53994 0.71213 0.24047 0.0
H747 H 0.53075 0.74552 0.1984 0.0
H748 H 0.49927 0.69669 0.20226 0.0
H749 H 0.49373 0.82964 0.34357 0.0
H750 H 0.44604 0.85539 0.32736 0.0
H751 H 0.49611 0.86282 0.30038 0.0
C752 C 0.46214 0.15814 0.47201 0.0
C753 C 0.49227 0.13497 0.49325 0.0
C754 C 0.46304 0.20166 0.47578 0.0
C755 C 0.49494 0.22255 0.50136 0.0
C756 C 0.52511 0.1994 0.52332 0.0
C757 C 0.52334 0.1558 0.51908 0.0
C758 C 0.43086 0.22524 0.45107 0.0
C759 C 0.55995 0.22076 0.55041 0.0
C760 C 0.52078 0.33569 0.47533 0.0
C761 C 0.49542 0.35637 0.50303 0.0
C762 C 0.52209 0.29217 0.47538 0.0
C763 C 0.49744 0.26877 0.50383 0.0
C764 C 0.47286 0.28947 0.53272 0.0
C765 C 0.47224 0.33312 0.53205 0.0
C766 C 0.54868 0.27117 0.44407 0.0
C767 C 0.44616 0.26541 0.56346 0.0
H768 H 0.43813 0.14234 0.45183 0.0
H769 H 0.54686 0.13813 0.53544 0.0
H770 H 0.41795 0.25082 0.46915 0.0
H771 H 0.44744 0.23961 0.42469 0.0
H772 H 0.40314 0.20451 0.43946 0.0
H773 H 0.58013 0.19817 0.56634 0.0
H774 H 0.58155 0.24165 0.5321 0.0
H775 H 0.545 0.24053 0.57338 0.0
H776 H 0.53893 0.35343 0.45287 0.0
H777 H 0.45262 0.34887 0.55358 0.0
H778 H 0.52678 0.25249 0.4228 0.0
H779 H 0.57055 0.24939 0.45892 0.0
H780 H 0.56862 0.294 0.42619 0.0
H781 H 0.42349 0.24215 0.5478 0.0
H782 H 0.42702 0.28601 0.58248 0.0
H783 H 0.4678 0.24794 0.58358 0.0
C784 C 0.10072 0.2996 0.7141 0.0
C785 C 0.1333 0.29292 0.7433 0.0
C786 C 0.05712 0.28761 0.72118 0.0
C787 C 0.04589 0.26868 0.75842 0.0
C788 C 0.07839 0.26307 0.78852 0.0
C789 C 0.12178 0.27508 0.78052 0.0
C790 C 0.02328 0.29405 0.68833 0.0
C791 C 0.06745 0.24371 0.82887 0.0
C792 C 0.92659 0.26561 0.78445 0.0
C793 C 0.91275 0.22483 0.77258 0.0
C794 C 0.97018 0.27999 0.78117 0.0
C795 C 0.00037 0.25311 0.76504 0.0
C796 C 0.98674 0.21166 0.75376 0.0
C797 C 0.94314 0.1979 0.75801 0.0
C798 C 0.98373 0.32419 0.79408 0.0
C799 C 0.01788 0.18223 0.73594 0.0
H800 H 0.10934 0.31333 0.68525 0.0
H801 H 0.14675 0.27013 0.80335 0.0
H802 H 0.00988 0.2633 0.67668 0.0
H803 H 0.99583 0.31056 0.70073 0.0
H804 H 0.03671 0.31232 0.66257 0.0
H805 H 0.09604 0.24405 0.85 0.0
H806 H 0.04145 0.2606 0.84341 0.0
H807 H 0.05487 0.2109 0.82414 0.0
H808 H 0.90323 0.28647 0.79593 0.0
H809 H 0.93259 0.16642 0.74859 0.0
H810 H 0.99472 0.34237 0.76737 0.0
H811 H 0.01154 0.32434 0.81603 0.0
H812 H 0.95686 0.34026 0.80824 0.0
H813 H 0.03065 0.1951 0.70714 0.0
H814 H 0.00233 0.15067 0.72966 0.0
H815 H 0.04606 0.17912 0.75696 0.0
C816 C 0.97722 0.82327 0.93797 0.0
C817 C 0.00545 0.85413 0.95617 0.0
C818 C 0.98608 0.78106 0.93988 0.0
C819 C 0.02388 0.76931 0.96094 0.0
C820 C 0.05225 0.80019 0.97994 0.0
C821 C 0.04278 0.84235 0.97718 0.0
C822 C 0.9548 0.74903 0.91944 0.0
C823 C 0.09291 0.78889 0.00259 0.0
C824 C 0.01709 0.65639 0.99318 0.0
C825 C 0.03857 0.63723 0.96164 0.0
C826 C 0.01414 0.69976 0.99452 0.0
C827 C 0.03286 0.72448 0.96344 0.0
C828 C 0.05654 0.7056 0.93269 0.0
C829 C 0.05923 0.66213 0.93221 0.0
C830 C 0.98943 0.71896 0.02828 0.0
C831 C 0.07703 0.731 0.89909 0.0
H832 H 0.94813 0.83207 0.92194 0.0
H833 H 0.06487 0.86607 0.99114 0.0
H834 H 0.97254 0.72816 0.89957 0.0
H835 H 0.93864 0.72928 0.94276 0.0
H836 H 0.92938 0.7636 0.90087 0.0
H837 H 0.10738 0.81543 0.02117 0.0
H838 H 0.08609 0.76193 0.02276 0.0
H839 H 0.1173 0.77967 0.98052 0.0
H840 H 0.00151 0.63738 0.0163 0.0
H841 H 0.07609 0.64758 0.90784 0.0
H842 H 0.95929 0.73159 0.01568 0.0
H843 H 0.00916 0.74539 0.04256 0.0
H844 H 0.98037 0.69602 0.05212 0.0
H845 H 0.05123 0.74421 0.88006 0.0
H846 H 0.09711 0.71209 0.87931 0.0
H847 H 0.09767 0.75757 0.91192 0.0
C848 C 0.18861 0.41728 0.30052 0.0
C849 C 0.2172 0.39512 0.27723 0.0
C850 C 0.18651 0.46063 0.29661 0.0
C851 C 0.21342 0.48217 0.26851 0.0
C852 C 0.24152 0.4598 0.24421 0.0
C853 C 0.2431 0.41658 0.24889 0.0
C854 C 0.15535 0.48312 0.32247 0.0
C855 C 0.27055 0.48165 0.21376 0.0
C856 C 0.18917 0.5907 0.23294 0.0
C857 C 0.22008 0.61561 0.25547 0.0
C858 C 0.18584 0.54721 0.23754 0.0
C859 C 0.21386 0.52834 0.26555 0.0
C860 C 0.24397 0.55346 0.28949 0.0
C861 C 0.24692 0.59677 0.28398 0.0
C862 C 0.15319 0.52137 0.2117 0.0
C863 C 0.27379 0.53449 0.32029 0.0
H864 H 0.16825 0.4009 0.32229 0.0
H865 H 0.26516 0.39969 0.23064 0.0
H866 H 0.16998 0.51361 0.33354 0.0
H867 H 0.12604 0.48934 0.30391 0.0
H868 H 0.14486 0.46429 0.34901 0.0
H869 H 0.28906 0.45948 0.19591 0.0
H870 H 0.2509 0.49984 0.19245 0.0
H871 H 0.29401 0.50403 0.2297 0.0
H872 H 0.16824 0.60504 0.21092 0.0
H873 H 0.27063 0.61583 0.30177 0.0
H874 H 0.13148 0.50201 0.23129 0.0
H875 H 0.17028 0.49974 0.19203 0.0
H876 H 0.13296 0.54092 0.19213 0.0
H877 H 0.25494 0.51292 0.34028 0.0
H878 H 0.29196 0.55852 0.33948 0.0
H879 H 0.29755 0.5159 0.30438 0.0
C880 C 0.74455 0.07637 0.7983 0.0
C881 C 0.71434 0.09975 0.77745 0.0
C882 C 0.73723 0.03321 0.80293 0.0
C883 C 0.69891 0.01291 0.78603 0.0
C884 C 0.66767 0.03649 0.76606 0.0
C885 C 0.67568 0.07971 0.76213 0.0
C886 C 0.77155 0.00923 0.82433 0.0
C887 C 0.62667 0.01583 0.74731 0.0
C888 C 0.70887 0.89922 0.75848 0.0
C889 C 0.68824 0.87902 0.79088 0.0
C890 C 0.71117 0.9428 0.75586 0.0
C891 C 0.69313 0.96671 0.78683 0.0
C892 C 0.67153 0.94645 0.81929 0.0
C893 C 0.66888 0.9027 0.82066 0.0
C894 C 0.73393 0.96326 0.72048 0.0
C895 C 0.6524 0.97093 0.85312 0.0
H896 H 0.77443 0.09163 0.81038 0.0
H897 H 0.65216 0.09758 0.74602 0.0
H898 H 0.75658 0.98462 0.84374 0.0
H899 H 0.79103 0.99366 0.80142 0.0
H900 H 0.79395 0.02996 0.84341 0.0
H901 H 0.60454 0.03885 0.7348 0.0
H902 H 0.63513 0.99448 0.72243 0.0
H903 H 0.609 0.99667 0.77015 0.0
H904 H 0.72371 0.8809 0.73536 0.0
H905 H 0.65326 0.88712 0.84595 0.0
H906 H 0.7637 0.98132 0.73152 0.0
H907 H 0.71265 0.98553 0.70555 0.0
H908 H 0.74331 0.94016 0.69747 0.0
H909 H 0.6768 0.99469 0.86547 0.0
H910 H 0.64097 0.95067 0.87833 0.0
H911 H 0.62456 0.9878 0.84112 0.0
C912 C 0.32798 0.40743 0.96624 0.0
C913 C 0.35148 0.44608 0.96427 0.0
C914 C 0.28288 0.40427 0.95877 0.0
C915 C 0.26104 0.44058 0.9492 0.0
C916 C 0.28499 0.47914 0.94483 0.0
C917 C 0.32988 0.48144 0.95244 0.0
C918 C 0.25833 0.3625 0.96257 0.0
C919 C 0.26295 0.51846 0.93388 0.0
C920 C 0.1449 0.4399 0.90876 0.0
C921 C 0.12333 0.45241 0.94343 0.0
C922 C 0.18949 0.43338 0.91042 0.0
C923 C 0.21289 0.43961 0.94766 0.0
C924 C 0.19063 0.44957 0.98324 0.0
C925 C 0.14616 0.45597 0.98066 0.0
C926 C 0.21134 0.42249 0.87153 0.0
C927 C 0.21421 0.45562 0.02374 0.0
H928 H 0.34451 0.37988 0.9749 0.0
H929 H 0.34784 0.51134 0.9502 0.0
H930 H 0.23617 0.36338 0.98857 0.0
H931 H 0.23797 0.35562 0.93486 0.0
H932 H 0.28037 0.33673 0.96728 0.0
H933 H 0.24024 0.51261 0.90758 0.0
H934 H 0.24358 0.52843 0.95983 0.0
H935 H 0.28664 0.54448 0.92634 0.0
H936 H 0.12744 0.43681 0.87987 0.0
H937 H 0.12956 0.465 0.00772 0.0
H938 H 0.24297 0.40847 0.87676 0.0
H939 H 0.21685 0.45128 0.85356 0.0
H940 H 0.18992 0.40044 0.85287 0.0
H941 H 0.23427 0.42877 0.03016 0.0
H942 H 0.19153 0.45911 0.04908 0.0
H943 H 0.23648 0.48401 0.02289 0.0
C944 C 0.84082 0.13214 0.27207 0.0
C945 C 0.80059 0.14716 0.28192 0.0
C946 C 0.84518 0.08933 0.26543 0.0
C947 C 0.80855 0.0611 0.26932 0.0
C948 C 0.76818 0.07606 0.28045 0.0
C949 C 0.76462 0.11895 0.28629 0.0
C950 C 0.88868 0.07443 0.25352 0.0
C951 C 0.72856 0.04682 0.28576 0.0
C952 C 0.79792 0.95749 0.21341 0.0
C953 C 0.8039 0.92937 0.24508 0.0
C954 C 0.80132 0.00065 0.22055 0.0
C955 C 0.81146 0.01603 0.26021 0.0
C956 C 0.8202 0.98794 0.29179 0.0
C957 C 0.81596 0.94483 0.28393 0.0
C958 C 0.79168 0.02966 0.18609 0.0
C959 C 0.83226 0.00341 0.3342 0.0
H960 H 0.86869 0.15391 0.26875 0.0
H961 H 0.73361 0.13039 0.29454 0.0
H962 H 0.89858 0.04943 0.27418 0.0
H963 H 0.88616 0.06084 0.22243 0.0
H964 H 0.91453 0.10003 0.25418 0.0
H965 H 0.69993 0.06343 0.29558 0.0
H966 H 0.72007 0.0302 0.25674 0.0
H967 H 0.73556 0.02288 0.30869 0.0
H968 H 0.78873 0.94583 0.18328 0.0
H969 H 0.82106 0.92327 0.30847 0.0
H970 H 0.81781 0.05474 0.18405 0.0
H971 H 0.761 0.04487 0.19191 0.0
H972 H 0.78824 0.01303 0.15637 0.0
H973 H 0.85932 0.02767 0.33339 0.0
H974 H 0.84214 0.97789 0.35431 0.0
H975 H 0.80423 0.01813 0.34767 0.0
C976 C 0.85866 0.02315 0.97758 0.0
C977 C 0.87081 0.99532 0.94751 0.0
C978 C 0.81506 0.02485 0.9883 0.0
C979 C 0.78334 0.99695 0.96951 0.0
C980 C 0.7955 0.96886 0.93898 0.0
C981 C 0.83908 0.96891 0.92784 0.0
C982 C 0.80312 0.05597 0.0202 0.0
C983 C 0.76289 0.93743 0.91947 0.0
C984 C 0.68062 0.96653 0.02563 0.0
C985 C 0.64962 0.98828 0.00402 0.0
C986 C 0.72447 0.96972 0.01519 0.0
C987 C 0.73764 0.99574 0.98274 0.0
C988 C 0.70677 0.01891 0.96172 0.0
C989 C 0.66298 0.01459 0.97236 0.0
C990 C 0.75658 0.94475 0.03847 0.0
C991 C 0.72005 0.04826 0.92808 0.0
H992 H 0.88329 0.0437 0.9926 0.0
H993 H 0.84862 0.94702 0.90492 0.0
H994 H 0.77526 0.07354 0.00938 0.0
H995 H 0.79294 0.03932 0.04804 0.0
H996 H 0.83068 0.07855 0.02835 0.0
H997 H 0.7765 0.92084 0.89338 0.0
H998 H 0.7524 0.914 0.94233 0.0
H999 H 0.73349 0.95281 0.90887 0.0
H1000 H 0.67049 0.94617 0.05013 0.0
H1001 H 0.63921 0.03187 0.9559 0.0
H1002 H 0.78121 0.9661 0.05415 0.0
H1003 H 0.77414 0.92501 0.0173 0.0
H1004 H 0.74068 0.92441 0.06155 0.0
H1005 H 0.74214 0.07397 0.9406 0.0
H1006 H 0.69175 0.062 0.91298 0.0
H1007 H 0.73828 0.03172 0.90493 0.0
C1008 C 0.33911 0.62942 0.78523 0.0
C1009 C 0.29783 0.64264 0.77465 0.0
C1010 C 0.34873 0.58743 0.78069 0.0
C1011 C 0.31623 0.55815 0.76536 0.0
C1012 C 0.27465 0.57141 0.75439 0.0
C1013 C 0.26599 0.61346 0.7591 0.0
C1014 C 0.39342 0.57431 0.79263 0.0
C1015 C 0.23903 0.54106 0.73804 0.0
C1016 C 0.33848 0.45424 0.7176 0.0
C1017 C 0.3242 0.42658 0.74784 0.0
C1018 C 0.33871 0.49753 0.72377 0.0
C1019 C 0.32483 0.51334 0.76122 0.0
C1020 C 0.31374 0.48558 0.79294 0.0
C1021 C 0.31315 0.44246 0.78574 0.0
C1022 C 0.35088 0.52617 0.68924 0.0
C1023 C 0.29983 0.50126 0.83363 0.0
H1024 H 0.36389 0.65182 0.79724 0.0
H1025 H 0.23399 0.62337 0.75088 0.0
H1026 H 0.39097 0.55112 0.81734 0.0
H1027 H 0.40829 0.55896 0.76653 0.0
H1028 H 0.41539 0.60111 0.80308 0.0
H1029 H 0.20874 0.55659 0.73024 0.0
H1030 H 0.25003 0.52507 0.71046 0.0
H1031 H 0.23143 0.5167 0.7609 0.0
H1032 H 0.34722 0.44215 0.68828 0.0
H1033 H 0.30266 0.42119 0.80943 0.0
H1034 H 0.37326 0.55242 0.7001 0.0
H1035 H 0.32122 0.53978 0.6767 0.0
H1036 H 0.36653 0.50951 0.66432 0.0
H1037 H 0.32219 0.52733 0.84492 0.0
H1038 H 0.29881 0.47622 0.85666 0.0
H1039 H 0.26698 0.51338 0.83046 0.0
C1040 C 0.17281 0.4764 0.5426 0.0
C1041 C 0.14133 0.49088 0.51573 0.0
C1042 C 0.21555 0.47223 0.53034 0.0
C1043 C 0.22733 0.48385 0.49056 0.0
C1044 C 0.19599 0.49952 0.46363 0.0
C1045 C 0.15315 0.50231 0.47636 0.0
C1046 C 0.24802 0.45552 0.56014 0.0
C1047 C 0.20751 0.513 0.42129 0.0
C1048 C 0.34787 0.50675 0.477 0.0
C1049 C 0.36012 0.46968 0.45886 0.0
C1050 C 0.30446 0.51227 0.48618 0.0
C1051 C 0.27261 0.47974 0.47747 0.0
C1052 C 0.28452 0.44262 0.45817 0.0
C1053 C 0.32819 0.43811 0.44892 0.0
C1054 C 0.29275 0.55282 0.50552 0.0
C1055 C 0.25136 0.40761 0.44718 0.0
H1056 H 0.16386 0.46735 0.57303 0.0
H1057 H 0.12894 0.5136 0.45548 0.0
H1058 H 0.26827 0.4327 0.54524 0.0
H1059 H 0.27014 0.4816 0.57182 0.0
H1060 H 0.23196 0.44027 0.58642 0.0
H1061 H 0.1817 0.53094 0.40686 0.0
H1062 H 0.23841 0.53253 0.42161 0.0
H1063 H 0.21217 0.48502 0.40228 0.0
H1064 H 0.37229 0.53149 0.48435 0.0
H1065 H 0.33736 0.4095 0.43459 0.0
H1066 H 0.28115 0.547 0.53667 0.0
H1067 H 0.26587 0.56624 0.48799 0.0
H1068 H 0.32073 0.57623 0.50731 0.0
H1069 H 0.22744 0.40254 0.47153 0.0
H1070 H 0.26682 0.37782 0.44126 0.0
H1071 H 0.23325 0.41593 0.41924 0.0
C1072 C 0.72524 0.80537 0.94817 0.0
C1073 C 0.72958 0.7706 0.92292 0.0
C1074 C 0.72284 0.80111 0.99029 0.0
C1075 C 0.7258 0.7612 0.00764 0.0
C1076 C 0.72902 0.72575 0.98226 0.0
C1077 C 0.73054 0.73084 0.94002 0.0
C1078 C 0.71841 0.83956 0.01624 0.0
C1079 C 0.73222 0.68274 -0.00021 0.0
C1080 C 0.76966 0.76487 0.1159 0.0
C1081 C 0.73145 0.75968 0.13793 0.0
C1082 C 0.76841 0.7634 0.07337 0.0
C1083 C 0.7279 0.75727 0.05246 0.0
C1084 C 0.68935 0.75072 0.07456 0.0
C1085 C 0.69162 0.75175 0.11711 0.0
C1086 C 0.81031 0.76988 0.05082 0.0
C1087 C 0.64547 0.74481 0.05339 0.0
H1088 H 0.7239 0.83611 0.935 0.0
H1089 H 0.73387 0.70389 0.92054 0.0
H1090 H 0.69185 0.83428 0.03806 0.0
H1091 H 0.74891 0.8464 0.03417 0.0
H1092 H 0.71166 0.86733 0.9978 0.0
H1093 H 0.73225 0.65815 0.97586 0.0
H1094 H 0.76253 0.68173 0.01844 0.0
H1095 H 0.70468 0.67544 0.0201 0.0
H1096 H 0.80055 0.77067 0.13189 0.0
H1097 H 0.66193 0.74797 0.134 0.0
H1098 H 0.81055 0.79991 0.03441 0.0
H1099 H 0.81296 0.74474 0.02784 0.0
H1100 H 0.83931 0.77041 0.07147 0.0
H1101 H 0.61971 0.73402 0.07449 0.0
H1102 H 0.64632 0.72193 0.02804 0.0
H1103 H 0.6365 0.7749 0.04022 0.0
C1104 C 0.51848 0.50776 0.31767 0.0
C1105 C 0.53991 0.47575 0.33691 0.0
C1106 C 0.51778 0.51124 0.27533 0.0
C1107 C 0.53903 0.48201 0.25165 0.0
C1108 C 0.56196 0.45046 0.27087 0.0
C1109 C 0.56214 0.4477 0.31334 0.0
C1110 C 0.49333 0.54559 0.2559 0.0
C1111 C 0.58548 0.41911 0.24653 0.0
C1112 C 0.49539 0.4671 0.14374 0.0
C1113 C 0.52528 0.49227 0.12208 0.0
C1114 C 0.50025 0.46247 0.18585 0.0
C1115 C 0.53573 0.4837 0.20672 0.0
C1116 C 0.56659 0.50829 0.1849 0.0
C1117 C 0.56106 0.51219 0.14279 0.0
C1118 C 0.46666 0.43597 0.20818 0.0
C1119 C 0.60465 0.53161 0.20619 0.0
H1120 H 0.50137 0.52968 0.33564 0.0
H1121 H 0.57897 0.42301 0.32798 0.0
H1122 H 0.51484 0.56411 0.23544 0.0
H1123 H 0.46575 0.5318 0.2371 0.0
H1124 H 0.48038 0.56702 0.2787 0.0
H1125 H 0.60244 0.39693 0.26611 0.0
H1126 H 0.56207 0.40111 0.22615 0.0
H1127 H 0.60969 0.43545 0.22699 0.0
H1128 H 0.46779 0.45143 0.12791 0.0
H1129 H 0.58432 0.53168 0.12627 0.0
H1130 H 0.44822 0.45614 0.22819 0.0
H1131 H 0.48264 0.41329 0.22788 0.0
H1132 H 0.44328 0.4186 0.18717 0.0
H1133 H 0.59268 0.55582 0.22665 0.0
H1134 H 0.62734 0.54705 0.18452 0.0
H1135 H 0.62291 0.51007 0.22531 0.0
C1136 C 0.76938 0.26614 0.44509 0.0
C1137 C 0.74031 0.23925 0.4226 0.0
C1138 C 0.7758 0.26072 0.48695 0.0
C1139 C 0.75265 0.22764 0.50664 0.0
C1140 C 0.72321 0.20046 0.48413 0.0
C1141 C 0.7173 0.20669 0.44241 0.0
C1142 C 0.80716 0.29051 0.51018 0.0
C1143 C 0.69789 0.16484 0.50409 0.0
C1144 C 0.798 0.18998 0.6068 0.0
C1145 C 0.77265 0.21021 0.63481 0.0
C1146 C 0.79178 0.19532 0.56495 0.0
C1147 C 0.75931 0.22137 0.55083 0.0
C1148 C 0.73323 0.24144 0.57889 0.0
C1149 C 0.74034 0.23575 0.62059 0.0
C1150 C 0.82012 0.17329 0.53586 0.0
C1151 C 0.69785 0.26895 0.56487 0.0
H1152 H 0.78725 0.29135 0.42998 0.0
H1153 H 0.69481 0.1857 0.42527 0.0
H1154 H 0.78929 0.30826 0.53276 0.0
H1155 H 0.83144 0.27298 0.52725 0.0
H1156 H 0.82454 0.31308 0.49001 0.0
H1157 H 0.67956 0.14417 0.48165 0.0
H1158 H 0.72004 0.14578 0.52208 0.0
H1159 H 0.67449 0.17746 0.5254 0.0
H1160 H 0.82304 0.1702 0.61755 0.0
H1161 H 0.72047 0.25129 0.64207 0.0
H1162 H 0.83992 0.19666 0.51857 0.0
H1163 H 0.79971 0.15439 0.51356 0.0
H1164 H 0.84233 0.15244 0.55169 0.0
H1165 H 0.71192 0.29495 0.54649 0.0
H1166 H 0.68044 0.28231 0.59061 0.0
H1167 H 0.6739 0.25077 0.54513 0.0
C1168 C 0.91279 0.49602 0.65254 0.0
C1169 C 0.95202 0.50732 0.6337 0.0
C1170 C 0.90851 0.50126 0.69455 0.0
C1171 C 0.94429 0.51818 0.71814 0.0
C1172 C 0.98333 0.53131 0.69904 0.0
C1173 C 0.98673 0.52568 0.65705 0.0
C1174 C 0.86631 0.48715 0.71387 0.0
C1175 C 0.02212 0.54981 0.72319 0.0
C1176 C 0.93309 0.55693 0.82633 0.0
C1177 C 0.94839 0.52346 0.84852 0.0
C1178 C 0.93003 0.55517 0.78377 0.0
C1179 C 0.94249 0.51909 0.7631 0.0
C1180 C 0.9562 0.48458 0.78543 0.0
C1181 C 0.9589 0.48717 0.82785 0.0
C1182 C 0.91483 0.59234 0.76087 0.0
C1183 C 0.96976 0.44552 0.76447 0.0
H1184 H 0.88574 0.482 0.63468 0.0
H1185 H 0.01704 0.5348 0.64268 0.0
H1186 H 0.87138 0.45947 0.73294 0.0
H1187 H 0.85517 0.51199 0.73406 0.0
H1188 H 0.84025 0.47873 0.69094 0.0
H1189 H 0.04912 0.56073 0.70346 0.0
H1190 H 0.01265 0.57652 0.74194 0.0
H1191 H 0.03424 0.52609 0.74423 0.0
H1192 H 0.92484 0.58506 0.84208 0.0
H1193 H 0.9705 0.46107 0.84476 0.0
H1194 H 0.88577 0.5829 0.7418 0.0
H1195 H 0.94045 0.60414 0.74012 0.0
H1196 H 0.90664 0.61821 0.78142 0.0
H1197 H 0.94327 0.43267 0.74384 0.0
H1198 H 0.97816 0.42099 0.78635 0.0
H1199 H 0.99845 0.45312 0.74563 0.0
C1200 C 0.81402 0.97472 0.456 0.0
C1201 C 0.82786 0.99471 0.49243 0.0
C1202 C 0.77083 0.97619 0.44186 0.0
C1203 C 0.74147 -0.00078 0.46413 0.0
C1204 C 0.75563 0.02011 0.50047 0.0
C1205 C 0.79849 0.0171 0.51446 0.0
C1206 C 0.75639 0.95273 0.40352 0.0
C1207 C 0.72544 0.04543 0.52482 0.0
C1208 C 0.63817 0.03741 0.41676 0.0
C1209 C 0.60661 0.00991 0.4336 0.0
C1210 C 0.68253 0.03325 0.42495 0.0
C1211 C 0.69546 0.0007 0.45042 0.0
C1212 C 0.66387 0.97169 0.46587 0.0
C1213 C 0.6198 0.97673 0.45738 0.0
C1214 C 0.71533 0.06496 0.40813 0.0
C1215 C 0.67646 0.93635 0.49283 0.0
H1216 H 0.83676 0.95746 0.43891 0.0
H1217 H 0.80925 0.03309 0.54234 0.0
H1218 H 0.72929 0.92972 0.4101 0.0
H1219 H 0.74393 0.97462 0.38081 0.0
H1220 H 0.78306 0.93589 0.38997 0.0
H1221 H 0.74282 0.06364 0.54967 0.0
H1222 H 0.70868 0.06735 0.50489 0.0
H1223 H 0.70008 0.0243 0.53835 0.0
H1224 H 0.62822 0.06308 0.39828 0.0
H1225 H 0.59562 0.95513 0.47019 0.0
H1226 H 0.74215 0.04916 0.39372 0.0
H1227 H 0.72982 0.08477 0.43329 0.0
H1228 H 0.70051 0.08552 0.38541 0.0
H1229 H 0.70252 0.91908 0.47884 0.0
H1230 H 0.6485 0.91402 0.49876 0.0
H1231 H 0.68945 0.94914 0.52233 0.0
loop_
_geom_bond_atom_site_label_1
_geom_bond_atom_site_label_2
_geom_bond_distance
_geom_bond_site_symmetry_2
_ccdc_geom_bond_type
C0 O1 1.160 . S
C0 O7 1.185 . S
O1 C0 1.160 . S
O2 Zn3 1.899 . S
O2 C10 1.284 . S
Zn3 O2 1.899 . S
Zn3 O4 2.032 . S
Zn3 O7 2.086 . S
Zn3 O12 1.977 . S
O4 Zn3 2.032 . S
O4 C8 1.278 . S
C5 O6 1.203 . S
C5 O12 1.267 . S
O6 C5 1.203 . S
O7 C0 1.185 . S
O7 Zn3 2.086 . S
C8 O4 1.278 . S
C8 O9 1.211 . S
O9 C8 1.211 . S
C10 O2 1.284 . S
C10 O11 1.273 . S
O11 C10 1.273 . S
O12 Zn3 1.977 . S
O12 C5 1.267 . S
C13 O14 1.160 1_455 S
C13 O20 1.185 . S
O14 C13 1.160 1_655 S
O15 Zn16 1.899 . S
O15 C23 1.287 . S
Zn16 O15 1.899 . S
Zn16 O17 2.032 1_545 S
Zn16 O20 2.086 1_645 S
Zn16 O25 1.977 1_655 S
O17 Zn16 2.032 1_565 S
O17 C21 1.278 1_565 S
C18 O19 1.203 . S
C18 O25 1.267 1_655 S
O19 C18 1.203 . S
O20 C13 1.185 . S
O20 Zn16 2.086 1_465 S
C21 O17 1.278 1_545 S
C21 O22 1.211 . S
O22 C21 1.211 . S
C23 O15 1.287 . S
C23 O24 1.276 . S
O24 C23 1.276 . S
O25 Zn16 1.977 1_455 S
O25 C18 1.267 1_455 S
C26 O27 1.160 . S
C26 O33 1.185 . S
O27 C26 1.160 . S
O28 Zn29 1.899 . S
O28 C36 1.284 . S
Zn29 O28 1.899 . S
Zn29 O30 2.032 . S
Zn29 O33 2.086 . S
Zn29 O38 1.977 . S
O30 Zn29 2.032 . S
O30 C34 1.278 . S
C31 O32 1.203 . S
C31 O38 1.267 . S
O32 C31 1.203 . S
O33 C26 1.185 . S
O33 Zn29 2.086 . S
C34 O30 1.278 . S
C34 O35 1.211 . S
O35 C34 1.211 . S
C36 O28 1.284 . S
C36 O37 1.273 . S
O37 C36 1.273 . S
O38 Zn29 1.977 . S
O38 C31 1.267 . S
C39 O40 1.160 . S
C39 O46 1.185 . S
O40 C39 1.160 . S
O41 Zn42 1.899 1_556 S
O41 C49 1.284 1_556 S
Zn42 O41 1.899 1_554 S
Zn42 O43 2.032 1_565 S
Zn42 O46 2.086 1_564 S
Zn42 O51 1.977 . S
O43 Zn42 2.032 1_545 S
O43 C47 1.278 1_545 S
C44 O45 1.203 . S
C44 O51 1.267 . S
O45 C44 1.203 . S
O46 C39 1.185 . S
O46 Zn42 2.086 1_546 S
C47 O43 1.278 1_565 S
C47 O48 1.211 . S
O48 C47 1.211 . S
C49 O41 1.284 1_554 S
C49 O50 1.273 . S
O50 C49 1.273 . S
O51 Zn42 1.977 . S
O51 C44 1.267 . S
C52 O53 1.160 . S
C52 O59 1.185 . S
O53 C52 1.160 . S
O54 Zn55 1.899 . S
O54 C62 1.284 . S
Zn55 O54 1.899 . S
Zn55 O56 2.032 . S
Zn55 O59 2.086 . S
Zn55 O64 1.977 . S
O56 Zn55 2.032 . S
O56 C60 1.278 . S
C57 O58 1.203 . S
C57 O64 1.267 . S
O58 C57 1.203 . S
O59 C52 1.185 . S
O59 Zn55 2.086 . S
C60 O56 1.278 . S
C60 O61 1.211 . S
O61 C60 1.211 . S
C62 O54 1.284 . S
C62 O63 1.273 . S
O63 C62 1.273 . S
O64 Zn55 1.977 . S
O64 C57 1.267 . S
C65 O66 1.160 1_565 S
C65 O72 1.185 . S
O66 C65 1.160 1_545 S
O67 Zn68 1.899 . S
O67 C75 1.284 . S
Zn68 O67 1.899 . S
Zn68 O69 2.032 . S
Zn68 O72 2.086 1_545 S
Zn68 O77 1.977 1_545 S
O69 Zn68 2.032 . S
O69 C73 1.278 . S
C70 O71 1.203 . S
C70 O77 1.267 1_545 S
O71 C70 1.203 . S
O72 C65 1.185 . S
O72 Zn68 2.086 1_565 S
C73 O69 1.278 . S
C73 O74 1.211 . S
O74 C73 1.211 . S
C75 O67 1.284 . S
C75 O76 1.273 . S
O76 C75 1.273 . S
O77 Zn68 1.977 1_565 S
O77 C70 1.267 1_565 S
C78 O79 1.160 . S
C78 O85 1.185 . S
O79 C78 1.160 . S
O80 Zn81 1.899 . S
O80 C88 1.284 . S
Zn81 O80 1.899 . S
Zn81 O82 2.032 . S
Zn81 O85 2.086 . S
Zn81 O90 1.977 . S
O82 Zn81 2.032 . S
O82 C86 1.278 . S
C83 O84 1.203 . S
C83 O90 1.267 . S
O84 C83 1.203 . S
O85 C78 1.185 . S
O85 Zn81 2.086 . S
C86 O82 1.278 . S
C86 O87 1.211 . S
O87 C86 1.211 . S
C88 O80 1.284 . S
C88 O89 1.273 . S
O89 C88 1.273 . S
O90 Zn81 1.977 . S
O90 C83 1.267 . S
C91 O92 1.160 1_545 S
C91 O98 1.185 1_554 S
O92 C91 1.160 1_565 S
O93 Zn94 1.899 1_455 S
O93 C101 1.284 1_455 S
Zn94 O93 1.899 1_655 S
Zn94 O95 2.032 . S
Zn94 O98 2.086 1_665 S
Zn94 O103 1.977 1_565 S
O95 Zn94 2.032 . S
O95 C99 1.278 . S
C96 O97 1.203 . S
C96 O103 1.267 1_565 S
O97 C96 1.203 . S
O98 C91 1.185 1_556 S
O98 Zn94 2.086 1_445 S
C99 O95 1.278 . S
C99 O100 1.211 . S
O100 C99 1.211 . S
C101 O93 1.284 1_655 S
C101 O102 1.273 . S
O102 C101 1.273 . S
O103 Zn94 1.977 1_545 S
O103 C96 1.267 1_545 S
C104 O105 1.160 . S
C104 O111 1.185 . S
O105 C104 1.160 . S
O106 Zn107 1.899 . S
O106 C114 1.284 . S
Zn107 O106 1.899 . S
Zn107 O108 2.032 . S
Zn107 O111 2.086 . S
Zn107 O116 1.977 . S
O108 Zn107 2.032 . S
O108 C112 1.278 . S
C109 O110 1.203 . S
C109 O116 1.267 . S
O110 C109 1.203 . S
O111 C104 1.185 . S
O111 Zn107 2.086 . S
C112 O108 1.278 . S
C112 O113 1.211 . S
O113 C112 1.211 . S
C114 O106 1.284 . S
C114 O115 1.273 . S
O115 C114 1.273 . S
O116 Zn107 1.977 . S
O116 C109 1.267 . S
C117 O118 1.160 . S
C117 O124 1.185 1_554 S
O118 C117 1.160 . S
O119 Zn120 1.899 1_655 S
O119 C127 1.284 1_655 S
Zn120 O119 1.899 1_455 S
Zn120 O121 2.032 . S
Zn120 O124 2.086 1_455 S
Zn120 O129 1.977 1_455 S
O121 Zn120 2.032 . S
O121 C125 1.278 . S
C122 O123 1.203 . S
C122 O129 1.267 1_455 S
O123 C122 1.203 . S
O124 C117 1.185 1_556 S
O124 Zn120 2.086 1_655 S
C125 O121 1.278 . S
C125 O126 1.211 . S
O126 C125 1.211 . S
C127 O119 1.284 1_455 S
C127 O128 1.273 . S
O128 C127 1.273 . S
O129 Zn120 1.977 1_655 S
O129 C122 1.267 1_655 S
C130 O131 1.160 . S
C130 O137 1.185 . S
O131 C130 1.160 . S
O132 Zn133 1.899 . S
O132 C140 1.284 . S
Zn133 O132 1.899 . S
Zn133 O134 2.032 . S
Zn133 O137 2.086 . S
Zn133 O142 1.977 . S
O134 Zn133 2.032 . S
O134 C138 1.278 . S
C135 O136 1.203 . S
C135 O142 1.267 . S
O136 C135 1.203 . S
O137 C130 1.185 . S
O137 Zn133 2.086 . S
C138 O134 1.278 . S
C138 O139 1.211 . S
O139 C138 1.211 . S
C140 O132 1.284 . S
C140 O141 1.273 . S
O141 C140 1.273 . S
O142 Zn133 1.977 . S
O142 C135 1.267 . S
C143 O144 1.160 1_655 S
C143 O150 1.185 . S
O144 C143 1.160 1_455 S
O145 Zn146 1.899 . S
O145 C153 1.284 . S
Zn146 O145 1.899 . S
Zn146 O147 2.032 . S
Zn146 O150 2.086 1_455 S
Zn146 O155 1.977 1_455 S
O147 Zn146 2.032 . S
O147 C151 1.278 . S
C148 O149 1.203 . S
C148 O155 1.267 1_455 S
O149 C148 1.203 . S
O150 C143 1.185 . S
O150 Zn146 2.086 1_655 S
C151 O147 1.278 . S
C151 O152 1.211 . S
O152 C151 1.211 . S
C153 O145 1.284 . S
C153 O154 1.273 . S
O154 C153 1.273 . S
O155 Zn146 1.977 1_655 S
O155 C148 1.267 1_655 S
C156 O157 1.160 . S
C156 O163 1.185 . S
O157 C156 1.160 . S
O158 Zn159 1.899 1_556 S
O158 C166 1.284 1_556 S
Zn159 O158 1.899 1_554 S
Zn159 O160 2.032 . S
Zn159 O163 2.086 1_554 S
Zn159 O168 1.977 . S
O160 Zn159 2.032 . S
O160 C164 1.278 . S
C161 O162 1.203 . S
C161 O168 1.267 . S
O162 C161 1.203 . S
O163 C156 1.185 . S
O163 Zn159 2.086 1_556 S
C164 O160 1.278 . S
C164 O165 1.211 . S
O165 C164 1.211 . S
C166 O158 1.284 1_554 S
C166 O167 1.273 . S
O167 C166 1.273 . S
O168 Zn159 1.977 . S
O168 C161 1.267 . S
C169 O170 1.160 . S
C169 O176 1.185 . S
O170 C169 1.160 . S
O171 Zn172 1.899 . S
O171 C179 1.284 . S
Zn172 O171 1.899 . S
Zn172 O173 2.032 . S
Zn172 O176 2.086 . S
Zn172 O181 1.977 . S
O173 Zn172 2.032 . S
O173 C177 1.278 . S
C174 O175 1.203 . S
C174 O181 1.267 . S
O175 C174 1.203 . S
O176 C169 1.185 . S
O176 Zn172 2.086 . S
C177 O173 1.278 . S
C177 O178 1.211 . S
O178 C177 1.211 . S
C179 O171 1.284 . S
C179 O180 1.273 . S
O180 C179 1.273 . S
O181 Zn172 1.977 . S
O181 C174 1.267 . S
C182 O183 1.160 . S
C182 O189 1.185 . S
O183 C182 1.160 . S
O184 Zn185 1.899 . S
O184 C192 1.284 . S
Zn185 O184 1.899 . S
Zn185 O186 2.032 . S
Zn185 O189 2.086 . S
Zn185 O194 1.977 . S
O186 Zn185 2.032 . S
O186 C190 1.278 . S
C187 O188 1.203 . S
C187 O194 1.267 . S
O188 C187 1.203 . S
O189 C182 1.185 . S
O189 Zn185 2.086 . S
C190 O186 1.278 . S
C190 O191 1.211 . S
O191 C190 1.211 . S
C192 O184 1.284 . S
C192 O193 1.273 . S
O193 C192 1.273 . S
O194 Zn185 1.977 . S
O194 C187 1.267 . S
C195 O196 1.160 . S
C195 O202 1.185 . S
O196 C195 1.160 . S
O197 Zn198 1.899 . S
O197 C205 1.284 . S
Zn198 O197 1.899 . S
Zn198 O199 2.032 . S
Zn198 O202 2.086 . S
Zn198 O207 1.977 . S
O199 Zn198 2.032 . S
O199 C203 1.278 . S
C200 O201 1.203 . S
C200 O207 1.267 . S
O201 C200 1.203 . S
O202 C195 1.185 . S
O202 Zn198 2.086 . S
C203 O199 1.278 . S
C203 O204 1.211 . S
O204 C203 1.211 . S
C205 O197 1.284 . S
C205 O206 1.273 . S
O206 C205 1.273 . S
O207 Zn198 1.977 . S
O207 C200 1.267 . S
C208 C209 1.391 . S
C208 C210 1.394 . S
C208 H224 0.931 . S
C209 C208 1.391 . S
C209 C213 1.376 . S
C210 C208 1.394 . S
C210 C211 1.369 . S
C210 C214 1.531 . S
C211 C210 1.369 . S
C211 C212 1.410 . S
C211 C219 1.503 . S
C212 C211 1.410 . S
C212 C213 1.392 . S
C212 C215 1.511 . S
C213 C209 1.376 . S
C213 C212 1.392 . S
C213 H225 0.929 . S
C214 C210 1.531 . S
C214 H226 0.960 . S
C214 H227 0.962 . S
C214 H228 0.960 . S
C215 C212 1.511 . S
C215 H229 0.961 . S
C215 H230 0.961 . S
C215 H231 0.961 . S
C216 C217 1.370 . S
C216 C218 1.363 . S
C216 H232 0.931 . S
C217 C216 1.370 . S
C217 C221 1.408 . S
C218 C216 1.363 . S
C218 C219 1.370 . S
C218 C222 1.524 . S
C219 C211 1.503 . S
C219 C218 1.370 . S
C219 C220 1.403 . S
C220 C219 1.403 . S
C220 C221 1.404 . S
C220 C223 1.539 . S
C221 C217 1.408 . S
C221 C220 1.404 . S
C221 H233 0.930 . S
C222 C218 1.524 . S
C222 H234 0.956 . S
C222 H235 0.961 . S
C222 H236 0.961 . S
C223 C220 1.539 . S
C223 H237 0.958 . S
C223 H238 0.961 . S
C223 H239 0.960 . S
H224 C208 0.931 . S
H225 C213 0.929 . S
H226 C214 0.960 . S
H227 C214 0.962 . S
H228 C214 0.960 . S
H229 C215 0.961 . S
H230 C215 0.961 . S
H231 C215 0.961 . S
H232 C216 0.931 . S
H233 C221 0.930 . S
H234 C222 0.956 . S
H235 C222 0.961 . S
H236 C222 0.961 . S
H237 C223 0.958 . S
H238 C223 0.961 . S
H239 C223 0.960 . S
C240 C241 1.391 . S
C240 C242 1.394 . S
C240 H256 0.931 . S
C241 C240 1.391 . S
C241 C245 1.376 . S
C242 C240 1.394 . S
C242 C243 1.369 . S
C242 C246 1.531 . S
C243 C242 1.369 . S
C243 C244 1.410 . S
C243 C251 1.503 . S
C244 C243 1.410 . S
C244 C245 1.392 . S
C244 C247 1.511 . S
C245 C241 1.376 . S
C245 C244 1.392 . S
C245 H257 0.929 . S
C246 C242 1.531 . S
C246 H258 0.960 . S
C246 H259 0.962 . S
C246 H260 0.960 . S
C247 C244 1.511 . S
C247 H261 0.961 . S
C247 H262 0.961 . S
C247 H263 0.961 . S
C248 C249 1.370 . S
C248 C250 1.363 . S
C248 H264 0.931 . S
C249 C248 1.370 . S
C249 C253 1.408 . S
C250 C248 1.363 . S
C250 C251 1.370 . S
C250 C254 1.524 . S
C251 C243 1.503 . S
C251 C250 1.370 . S
C251 C252 1.403 . S
C252 C251 1.403 . S
C252 C253 1.404 . S
C252 C255 1.539 . S
C253 C249 1.408 . S
C253 C252 1.404 . S
C253 H265 0.930 . S
C254 C250 1.524 . S
C254 H266 0.956 . S
C254 H267 0.961 . S
C254 H268 0.961 . S
C255 C252 1.539 . S
C255 H269 0.958 . S
C255 H270 0.961 . S
C255 H271 0.960 . S
H256 C240 0.931 . S
H257 C245 0.929 . S
H258 C246 0.960 . S
H259 C246 0.962 . S
H260 C246 0.960 . S
H261 C247 0.961 . S
H262 C247 0.961 . S
H263 C247 0.961 . S
H264 C248 0.931 . S
H265 C253 0.930 . S
H266 C254 0.956 . S
H267 C254 0.961 . S
H268 C254 0.961 . S
H269 C255 0.958 . S
H270 C255 0.961 . S
H271 C255 0.960 . S
C272 C273 1.391 . S
C272 C274 1.394 . S
C272 H288 0.931 . S
C273 C272 1.391 . S
C273 C277 1.376 . S
C274 C272 1.394 . S
C274 C275 1.369 . S
C274 C278 1.531 . S
C275 C274 1.369 . S
C275 C276 1.410 . S
C275 C283 1.503 . S
C276 C275 1.410 . S
C276 C277 1.392 . S
C276 C279 1.511 . S
C277 C273 1.376 . S
C277 C276 1.392 . S
C277 H289 0.929 . S
C278 C274 1.531 . S
C278 H290 0.960 . S
C278 H291 0.962 . S
C278 H292 0.960 . S
C279 C276 1.511 . S
C279 H293 0.961 . S
C279 H294 0.961 . S
C279 H295 0.961 . S
C280 C281 1.370 . S
C280 C282 1.363 . S
C280 H296 0.931 . S
C281 C280 1.370 . S
C281 C285 1.408 . S
C282 C280 1.363 . S
C282 C283 1.370 . S
C282 C286 1.524 . S
C283 C275 1.503 . S
C283 C282 1.370 . S
C283 C284 1.403 . S
C284 C283 1.403 . S
C284 C285 1.404 . S
C284 C287 1.539 . S
C285 C281 1.408 . S
C285 C284 1.404 . S
C285 H297 0.930 . S
C286 C282 1.524 . S
C286 H298 0.956 . S
C286 H299 0.961 . S
C286 H300 0.961 . S
C287 C284 1.539 . S
C287 H301 0.958 . S
C287 H302 0.961 . S
C287 H303 0.960 . S
H288 C272 0.931 . S
H289 C277 0.929 . S
H290 C278 0.960 . S
H291 C278 0.962 . S
H292 C278 0.960 . S
H293 C279 0.961 . S
H294 C279 0.961 . S
H295 C279 0.961 . S
H296 C280 0.931 . S
H297 C285 0.930 . S
H298 C286 0.956 . S
H299 C286 0.961 . S
H300 C286 0.961 . S
H301 C287 0.958 . S
H302 C287 0.961 . S
H303 C287 0.960 . S
C304 C305 1.391 . S
C304 C306 1.394 . S
C304 H320 0.931 . S
C305 C304 1.391 . S
C305 C309 1.376 . S
C306 C304 1.394 . S
C306 C307 1.369 . S
C306 C310 1.531 . S
C307 C306 1.369 . S
C307 C308 1.410 . S
C307 C315 1.503 . S
C308 C307 1.410 . S
C308 C309 1.392 . S
C308 C311 1.511 . S
C309 C305 1.376 . S
C309 C308 1.392 . S
C309 H321 0.929 . S
C310 C306 1.531 . S
C310 H322 0.960 . S
C310 H323 0.962 . S
C310 H324 0.960 . S
C311 C308 1.511 . S
C311 H325 0.961 . S
C311 H326 0.961 . S
C311 H327 0.961 . S
C312 C313 1.370 . S
C312 C314 1.363 . S
C312 H328 0.931 . S
C313 C312 1.370 . S
C313 C317 1.408 . S
C314 C312 1.363 . S
C314 C315 1.370 . S
C314 C318 1.524 . S
C315 C307 1.503 . S
C315 C314 1.370 . S
C315 C316 1.403 . S
C316 C315 1.403 . S
C316 C317 1.404 . S
C316 C319 1.539 . S
C317 C313 1.408 . S
C317 C316 1.404 . S
C317 H329 0.930 . S
C318 C314 1.524 . S
C318 H330 0.956 . S
C318 H331 0.961 . S
C318 H332 0.961 . S
C319 C316 1.539 . S
C319 H333 0.958 . S
C319 H334 0.961 . S
C319 H335 0.960 . S
H320 C304 0.931 . S
H321 C309 0.929 . S
H322 C310 0.960 . S
H323 C310 0.962 . S
H324 C310 0.960 . S
H325 C311 0.961 . S
H326 C311 0.961 . S
H327 C311 0.961 . S
H328 C312 0.931 . S
H329 C317 0.930 . S
H330 C318 0.956 . S
H331 C318 0.961 . S
H332 C318 0.961 . S
H333 C319 0.958 . S
H334 C319 0.961 . S
H335 C319 0.960 . S
C336 C337 1.391 . S
C336 C338 1.394 . S
C336 H352 0.931 . S
C337 C336 1.391 . S
C337 C341 1.376 . S
C338 C336 1.394 . S
C338 C339 1.369 . S
C338 C342 1.531 . S
C339 C338 1.369 . S
C339 C340 1.410 . S
C339 C347 1.503 . S
C340 C339 1.410 . S
C340 C341 1.392 . S
C340 C343 1.511 . S
C341 C337 1.376 . S
C341 C340 1.392 . S
C341 H353 0.929 . S
C342 C338 1.531 . S
C342 H354 0.960 . S
C342 H355 0.962 . S
C342 H356 0.960 . S
C343 C340 1.511 . S
C343 H357 0.961 . S
C343 H358 0.961 . S
C343 H359 0.961 . S
C344 C345 1.370 . S
C344 C346 1.363 . S
C344 H360 0.931 . S
C345 C344 1.370 . S
C345 C349 1.408 . S
C346 C344 1.363 . S
C346 C347 1.370 . S
C346 C350 1.524 . S
C347 C339 1.503 . S
C347 C346 1.370 . S
C347 C348 1.403 . S
C348 C347 1.403 . S
C348 C349 1.404 . S
C348 C351 1.539 . S
C349 C345 1.408 . S
C349 C348 1.404 . S
C349 H361 0.930 . S
C350 C346 1.524 . S
C350 H362 0.956 . S
C350 H363 0.961 . S
C350 H364 0.961 . S
C351 C348 1.539 . S
C351 H365 0.958 . S
C351 H366 0.961 . S
C351 H367 0.960 . S
H352 C336 0.931 . S
H353 C341 0.929 . S
H354 C342 0.960 . S
H355 C342 0.962 . S
H356 C342 0.960 . S
H357 C343 0.961 . S
H358 C343 0.961 . S
H359 C343 0.961 . S
H360 C344 0.931 . S
H361 C349 0.930 . S
H362 C350 0.956 . S
H363 C350 0.961 . S
H364 C350 0.961 . S
H365 C351 0.958 . S
H366 C351 0.961 . S
H367 C351 0.960 . S
C368 C369 1.391 . S
C368 C370 1.394 . S
C368 H384 0.931 . S
C369 C368 1.391 . S
C369 C373 1.376 . S
C370 C368 1.394 . S
C370 C371 1.369 . S
C370 C374 1.531 . S
C371 C370 1.369 . S
C371 C372 1.410 . S
C371 C379 1.503 . S
C372 C371 1.410 . S
C372 C373 1.392 . S
C372 C375 1.511 . S
C373 C369 1.376 . S
C373 C372 1.392 . S
C373 H385 0.929 . S
C374 C370 1.531 . S
C374 H386 0.960 . S
C374 H387 0.962 . S
C374 H388 0.960 . S
C375 C372 1.511 . S
C375 H389 0.961 . S
C375 H390 0.961 . S
C375 H391 0.961 . S
C376 C377 1.370 . S
C376 C378 1.363 . S
C376 H392 0.931 . S
C377 C376 1.370 . S
C377 C381 1.408 . S
C378 C376 1.363 . S
C378 C379 1.370 . S
C378 C382 1.524 . S
C379 C371 1.503 . S
C379 C378 1.370 . S
C379 C380 1.403 . S
C380 C379 1.403 . S
C380 C381 1.404 . S
C380 C383 1.539 . S
C381 C377 1.408 . S
C381 C380 1.404 . S
C381 H393 0.930 . S
C382 C378 1.524 . S
C382 H394 0.956 . S
C382 H395 0.961 . S
C382 H396 0.961 . S
C383 C380 1.539 . S
C383 H397 0.958 . S
C383 H398 0.961 . S
C383 H399 0.960 . S
H384 C368 0.931 . S
H385 C373 0.929 . S
H386 C374 0.960 . S
H387 C374 0.962 . S
H388 C374 0.960 . S
H389 C375 0.961 . S
H390 C375 0.961 . S
H391 C375 0.961 . S
H392 C376 0.931 . S
H393 C381 0.930 . S
H394 C382 0.956 . S
H395 C382 0.961 . S
H396 C382 0.961 . S
H397 C383 0.958 . S
H398 C383 0.961 . S
H399 C383 0.960 . S
C400 C401 1.391 . S
C400 C402 1.394 . S
C400 H416 0.931 . S
C401 C400 1.391 . S
C401 C405 1.376 . S
C402 C400 1.394 . S
C402 C403 1.369 . S
C402 C406 1.531 . S
C403 C402 1.369 . S
C403 C404 1.410 . S
C403 C411 1.503 . S
C404 C403 1.410 . S
C404 C405 1.392 . S
C404 C407 1.511 . S
C405 C401 1.376 . S
C405 C404 1.392 . S
C405 H417 0.929 . S
C406 C402 1.531 . S
C406 H418 0.960 . S
C406 H419 0.962 . S
C406 H420 0.960 . S
C407 C404 1.511 . S
C407 H421 0.961 . S
C407 H422 0.961 . S
C407 H423 0.961 . S
C408 C409 1.370 . S
C408 C410 1.363 . S
C408 H424 0.931 . S
C409 C408 1.370 . S
C409 C413 1.408 . S
C410 C408 1.363 . S
C410 C411 1.370 . S
C410 C414 1.524 . S
C411 C403 1.503 . S
C411 C410 1.370 . S
C411 C412 1.403 . S
C412 C411 1.403 . S
C412 C413 1.404 . S
C412 C415 1.539 . S
C413 C409 1.408 . S
C413 C412 1.404 . S
C413 H425 0.930 . S
C414 C410 1.524 . S
C414 H426 0.956 . S
C414 H427 0.961 . S
C414 H428 0.961 . S
C415 C412 1.539 . S
C415 H429 0.958 . S
C415 H430 0.961 . S
C415 H431 0.960 . S
H416 C400 0.931 . S
H417 C405 0.929 . S
H418 C406 0.960 . S
H419 C406 0.962 . S
H420 C406 0.960 . S
H421 C407 0.961 . S
H422 C407 0.961 . S
H423 C407 0.961 . S
H424 C408 0.931 . S
H425 C413 0.930 . S
H426 C414 0.956 . S
H427 C414 0.961 . S
H428 C414 0.961 . S
H429 C415 0.958 . S
H430 C415 0.961 . S
H431 C415 0.960 . S
C432 C433 1.391 . S
C432 C434 1.394 . S
C432 H448 0.931 . S
C433 C432 1.391 . S
C433 C437 1.376 . S
C434 C432 1.394 . S
C434 C435 1.369 . S
C434 C438 1.531 . S
C435 C434 1.369 . S
C435 C436 1.410 . S
C435 C443 1.503 . S
C436 C435 1.410 . S
C436 C437 1.392 . S
C436 C439 1.511 . S
C437 C433 1.376 . S
C437 C436 1.392 . S
C437 H449 0.929 . S
C438 C434 1.531 . S
C438 H450 0.960 . S
C438 H451 0.962 . S
C438 H452 0.960 . S
C439 C436 1.511 . S
C439 H453 0.961 . S
C439 H454 0.961 . S
C439 H455 0.961 . S
C440 C441 1.370 . S
C440 C442 1.363 . S
C440 H456 0.931 . S
C441 C440 1.370 . S
C441 C445 1.408 . S
C442 C440 1.363 . S
C442 C443 1.370 . S
C442 C446 1.524 . S
C443 C435 1.503 . S
C443 C442 1.370 . S
C443 C444 1.403 . S
C444 C443 1.403 . S
C444 C445 1.404 . S
C444 C447 1.539 . S
C445 C441 1.408 . S
C445 C444 1.404 . S
C445 H457 0.930 . S
C446 C442 1.524 . S
C446 H458 0.956 . S
C446 H459 0.961 . S
C446 H460 0.961 . S
C447 C444 1.539 . S
C447 H461 0.958 . S
C447 H462 0.961 . S
C447 H463 0.960 . S
H448 C432 0.931 . S
H449 C437 0.929 . S
H450 C438 0.960 . S
H451 C438 0.962 . S
H452 C438 0.960 . S
H453 C439 0.961 . S
H454 C439 0.961 . S
H455 C439 0.961 . S
H456 C440 0.931 . S
H457 C445 0.930 . S
H458 C446 0.956 . S
H459 C446 0.961 . S
H460 C446 0.961 . S
H461 C447 0.958 . S
H462 C447 0.961 . S
H463 C447 0.960 . S
C464 C465 1.391 . S
C464 C466 1.394 . S
C464 H480 0.931 . S
C465 C464 1.391 . S
C465 C469 1.376 . S
C466 C464 1.394 . S
C466 C467 1.369 . S
C466 C470 1.531 . S
C467 C466 1.369 . S
C467 C468 1.410 . S
C467 C475 1.503 . S
C468 C467 1.410 . S
C468 C469 1.392 . S
C468 C471 1.511 . S
C469 C465 1.376 . S
C469 C468 1.392 . S
C469 H481 0.929 . S
C470 C466 1.531 . S
C470 H482 0.960 . S
C470 H483 0.962 . S
C470 H484 0.960 . S
C471 C468 1.511 . S
C471 H485 0.961 . S
C471 H486 0.961 . S
C471 H487 0.961 . S
C472 C473 1.370 . S
C472 C474 1.363 . S
C472 H488 0.931 . S
C473 C472 1.370 . S
C473 C477 1.408 . S
C474 C472 1.363 . S
C474 C475 1.370 . S
C474 C478 1.524 . S
C475 C467 1.503 . S
C475 C474 1.370 . S
C475 C476 1.403 . S
C476 C475 1.403 . S
C476 C477 1.404 . S
C476 C479 1.539 . S
C477 C473 1.408 . S
C477 C476 1.404 . S
C477 H489 0.930 . S
C478 C474 1.524 . S
C478 H490 0.956 . S
C478 H491 0.961 . S
C478 H492 0.961 . S
C479 C476 1.539 . S
C479 H493 0.958 . S
C479 H494 0.961 . S
C479 H495 0.960 . S
H480 C464 0.931 . S
H481 C469 0.929 . S
H482 C470 0.960 . S
H483 C470 0.962 . S
H484 C470 0.960 . S
H485 C471 0.961 . S
H486 C471 0.961 . S
H487 C471 0.961 . S
H488 C472 0.931 . S
H489 C477 0.930 . S
H490 C478 0.956 . S
H491 C478 0.961 . S
H492 C478 0.961 . S
H493 C479 0.958 . S
H494 C479 0.961 . S
H495 C479 0.960 . S
C496 C497 1.391 1_545 S
C496 C498 1.394 . S
C496 H512 0.931 . S
C497 C496 1.391 1_565 S
C497 C501 1.376 1_655 S
C498 C496 1.394 . S
C498 C499 1.369 1_545 S
C498 C502 1.531 . S
C499 C498 1.369 1_565 S
C499 C500 1.410 1_655 S
C499 C507 1.504 . S
C500 C499 1.410 1_455 S
C500 C501 1.392 . S
C500 C503 1.511 . S
C501 C497 1.376 1_455 S
C501 C500 1.392 . S
C501 H513 0.929 . S
C502 C498 1.531 . S
C502 H514 0.960 . S
C502 H515 0.962 . S
C502 H516 0.960 . S
C503 C500 1.511 . S
C503 H517 0.961 . S
C503 H518 0.961 . S
C503 H519 0.961 . S
C504 C505 1.370 . S
C504 C506 1.363 . S
C504 H520 0.931 . S
C505 C504 1.370 . S
C505 C509 1.408 1_665 S
C506 C504 1.363 . S
C506 C507 1.370 . S
C506 C510 1.524 . S
C507 C499 1.504 . S
C507 C506 1.370 . S
C507 C508 1.403 1_665 S
C508 C507 1.403 1_445 S
C508 C509 1.404 . S
C508 C511 1.539 . S
C509 C505 1.408 1_445 S
C509 C508 1.404 . S
C509 H521 0.930 . S
C510 C506 1.524 . S
C510 H522 0.956 . S
C510 H523 0.961 . S
C510 H524 0.961 . S
C511 C508 1.539 . S
C511 H525 0.958 . S
C511 H526 0.961 . S
C511 H527 0.960 . S
H512 C496 0.931 . S
H513 C501 0.929 . S
H514 C502 0.960 . S
H515 C502 0.962 . S
H516 C502 0.960 . S
H517 C503 0.961 . S
H518 C503 0.961 . S
H519 C503 0.961 . S
H520 C504 0.931 . S
H521 C509 0.930 . S
H522 C510 0.956 . S
H523 C510 0.961 . S
H524 C510 0.961 . S
H525 C511 0.958 . S
H526 C511 0.961 . S
H527 C511 0.960 . S
C528 C529 1.391 . S
C528 C530 1.394 . S
C528 H544 0.931 . S
C529 C528 1.391 . S
C529 C533 1.376 . S
C530 C528 1.394 . S
C530 C531 1.369 . S
C530 C534 1.531 . S
C531 C530 1.369 . S
C531 C532 1.410 . S
C531 C539 1.503 1_556 S
C532 C531 1.410 . S
C532 C533 1.392 . S
C532 C535 1.511 . S
C533 C529 1.376 . S
C533 C532 1.392 . S
C533 H545 0.929 . S
C534 C530 1.531 . S
C534 H546 0.960 1_556 S
C534 H547 0.962 . S
C534 H548 0.960 . S
C535 C532 1.511 . S
C535 H549 0.961 . S
C535 H550 0.961 1_556 S
C535 H551 0.963 . S
C536 C537 1.370 . S
C536 C538 1.363 . S
C536 H552 0.931 . S
C537 C536 1.370 . S
C537 C541 1.408 . S
C538 C536 1.363 . S
C538 C539 1.370 . S
C538 C542 1.524 . S
C539 C531 1.503 1_554 S
C539 C538 1.370 . S
C539 C540 1.403 . S
C540 C539 1.403 . S
C540 C541 1.404 . S
C540 C543 1.539 . S
C541 C537 1.408 . S
C541 C540 1.404 . S
C541 H553 0.930 . S
C542 C538 1.524 . S
C542 H554 0.956 . S
C542 H555 0.961 . S
C542 H556 0.961 . S
C543 C540 1.539 . S
C543 H557 0.958 . S
C543 H558 0.961 . S
C543 H559 0.960 . S
H544 C528 0.931 . S
H545 C533 0.929 . S
H546 C534 0.960 1_554 S
H547 C534 0.962 . S
H548 C534 0.960 . S
H549 C535 0.961 . S
H550 C535 0.961 1_554 S
H551 C535 0.963 . S
H552 C536 0.931 . S
H553 C541 0.930 . S
H554 C542 0.956 . S
H555 C542 0.961 . S
H556 C542 0.961 . S
H557 C543 0.958 . S
H558 C543 0.961 . S
H559 C543 0.960 . S
C560 C561 1.391 . S
C560 C562 1.394 . S
C560 H576 0.931 . S
C561 C560 1.391 . S
C561 C565 1.370 1_545 S
C562 C560 1.394 . S
C562 C563 1.369 . S
C562 C566 1.531 . S
C563 C562 1.369 . S
C563 C564 1.410 . S
C563 C571 1.503 . S
C564 C563 1.410 . S
C564 C565 1.391 1_545 S
C564 C567 1.511 1_545 S
C565 C561 1.370 1_565 S
C565 C564 1.391 1_565 S
C565 H577 0.937 . S
C566 C562 1.531 . S
C566 H578 0.960 . S
C566 H579 0.962 . S
C566 H580 0.960 . S
C567 C564 1.511 1_565 S
C567 H581 0.961 . S
C567 H582 0.961 . S
C567 H583 0.961 1_565 S
C568 C569 1.370 1_565 S
C568 C570 1.363 . S
C568 H584 0.931 . S
C569 C568 1.370 1_545 S
C569 C573 1.408 . S
C570 C568 1.363 . S
C570 C571 1.370 1_565 S
C570 C574 1.524 . S
C571 C563 1.503 . S
C571 C570 1.370 1_545 S
C571 C572 1.403 . S
C572 C571 1.403 . S
C572 C573 1.404 . S
C572 C575 1.539 . S
C573 C569 1.408 . S
C573 C572 1.404 . S
C573 H585 0.930 . S
C574 C570 1.524 . S
C574 H586 0.956 . S
C574 H587 0.961 . S
C574 H588 0.961 . S
C575 C572 1.539 . S
C575 H589 0.958 . S
C575 H590 0.961 . S
C575 H591 0.960 . S
H576 C560 0.931 . S
H577 C565 0.937 . S
H578 C566 0.960 . S
H579 C566 0.962 . S
H580 C566 0.960 . S
H581 C567 0.961 . S
H582 C567 0.961 . S
H583 C567 0.961 1_545 S
H584 C568 0.931 . S
H585 C573 0.930 . S
H586 C574 0.956 . S
H587 C574 0.961 . S
H588 C574 0.961 . S
H589 C575 0.958 . S
H590 C575 0.961 . S
H591 C575 0.960 . S
C592 C593 1.391 . S
C592 C594 1.394 . S
C592 H608 0.931 . S
C593 C592 1.391 . S
C593 C597 1.376 . S
C594 C592 1.394 . S
C594 C595 1.369 . S
C594 C598 1.531 . S
C595 C594 1.369 . S
C595 C596 1.410 . S
C595 C603 1.503 . S
C596 C595 1.410 . S
C596 C597 1.392 . S
C596 C599 1.511 . S
C597 C593 1.376 . S
C597 C596 1.392 . S
C597 H609 0.929 . S
C598 C594 1.531 . S
C598 H610 0.960 . S
C598 H611 0.962 . S
C598 H612 0.960 . S
C599 C596 1.511 . S
C599 H613 0.961 . S
C599 H614 0.961 . S
C599 H615 0.961 . S
C600 C601 1.370 . S
C600 C602 1.363 . S
C600 H616 0.931 . S
C601 C600 1.370 . S
C601 C605 1.408 . S
C602 C600 1.363 . S
C602 C603 1.370 . S
C602 C606 1.524 . S
C603 C595 1.503 . S
C603 C602 1.370 . S
C603 C604 1.403 . S
C604 C603 1.403 . S
C604 C605 1.404 . S
C604 C607 1.539 . S
C605 C601 1.408 . S
C605 C604 1.404 . S
C605 H617 0.930 . S
C606 C602 1.524 . S
C606 H618 0.956 . S
C606 H619 0.961 . S
C606 H620 0.961 . S
C607 C604 1.539 . S
C607 H621 0.958 . S
C607 H622 0.961 . S
C607 H623 0.960 . S
H608 C592 0.931 . S
H609 C597 0.929 . S
H610 C598 0.960 . S
H611 C598 0.962 . S
H612 C598 0.960 . S
H613 C599 0.961 . S
H614 C599 0.961 . S
H615 C599 0.961 . S
H616 C600 0.931 . S
H617 C605 0.930 . S
H618 C606 0.956 . S
H619 C606 0.961 . S
H620 C606 0.961 . S
H621 C607 0.958 . S
H622 C607 0.961 . S
H623 C607 0.960 . S
C624 C625 1.391 1_455 S
C624 C626 1.394 . S
C624 H640 0.931 . S
C625 C624 1.391 1_655 S
C625 C629 1.376 . S
C626 C624 1.394 . S
C626 C627 1.369 1_455 S
C626 C630 1.531 . S
C627 C626 1.369 1_655 S
C627 C628 1.410 . S
C627 C635 1.503 . S
C628 C627 1.410 . S
C628 C629 1.392 . S
C628 C631 1.511 . S
C629 C625 1.376 . S
C629 C628 1.392 . S
C629 H641 0.929 . S
C630 C626 1.531 . S
C630 H642 0.960 . S
C630 H643 0.962 . S
C630 H644 0.960 . S
C631 C628 1.511 . S
C631 H645 0.961 . S
C631 H646 0.961 . S
C631 H647 0.961 . S
C632 C633 1.370 1_455 S
C632 C634 1.363 . S
C632 H648 0.931 . S
C633 C632 1.370 1_655 S
C633 C637 1.408 . S
C634 C632 1.363 . S
C634 C635 1.370 1_455 S
C634 C638 1.524 . S
C635 C627 1.503 . S
C635 C634 1.370 1_655 S
C635 C636 1.403 . S
C636 C635 1.403 . S
C636 C637 1.404 . S
C636 C639 1.539 . S
C637 C633 1.408 . S
C637 C636 1.404 . S
C637 H649 0.930 . S
C638 C634 1.524 . S
C638 H650 0.956 . S
C638 H651 0.961 . S
C638 H652 0.961 . S
C639 C636 1.539 . S
C639 H653 0.958 . S
C639 H654 0.961 . S
C639 H655 0.960 . S
H640 C624 0.931 . S
H641 C629 0.929 . S
H642 C630 0.960 . S
H643 C630 0.962 . S
H644 C630 0.960 . S
H645 C631 0.961 . S
H646 C631 0.961 . S
H647 C631 0.961 . S
H648 C632 0.931 . S
H649 C637 0.930 . S
H650 C638 0.956 . S
H651 C638 0.961 . S
H652 C638 0.961 . S
H653 C639 0.958 . S
H654 C639 0.961 . S
H655 C639 0.960 . S
C656 C657 1.391 . S
C656 C658 1.394 . S
C656 H672 0.931 . S
C657 C656 1.391 . S
C657 C661 1.376 . S
C658 C656 1.394 . S
C658 C659 1.369 . S
C658 C662 1.531 . S
C659 C658 1.369 . S
C659 C660 1.410 . S
C659 C667 1.503 1_655 S
C660 C659 1.410 . S
C660 C661 1.392 . S
C660 C663 1.511 . S
C661 C657 1.376 . S
C661 C660 1.392 . S
C661 H673 0.929 . S
C662 C658 1.531 . S
C662 H674 0.960 1_655 S
C662 H675 0.962 . S
C662 H676 0.960 . S
C663 C660 1.511 . S
C663 H677 0.961 . S
C663 H678 0.983 . S
C663 H679 0.961 . S
C664 C665 1.370 . S
C664 C666 1.363 . S
C664 H680 0.931 . S
C665 C664 1.370 . S
C665 C669 1.408 . S
C666 C664 1.363 . S
C666 C667 1.370 . S
C666 C670 1.524 . S
C667 C659 1.503 1_455 S
C667 C666 1.370 . S
C667 C668 1.403 . S
C668 C667 1.403 . S
C668 C669 1.404 . S
C668 C671 1.539 . S
C669 C665 1.408 . S
C669 C668 1.404 . S
C669 H681 0.930 . S
C670 C666 1.524 . S
C670 H682 0.956 . S
C670 H683 0.961 1_455 S
C670 H684 0.961 . S
C671 C668 1.539 . S
C671 H685 0.958 . S
C671 H686 0.961 . S
C671 H687 0.960 1_455 S
H672 C656 0.931 . S
H673 C661 0.929 . S
H674 C662 0.960 1_455 S
H675 C662 0.962 . S
H676 C662 0.960 . S
H677 C663 0.961 . S
H678 C663 0.983 . S
H679 C663 0.961 . S
H680 C664 0.931 . S
H681 C669 0.930 . S
H682 C670 0.956 . S
H683 C670 0.961 1_655 S
H684 C670 0.961 . S
H685 C671 0.958 . S
H686 C671 0.961 . S
H687 C671 0.960 1_655 S
C688 C689 1.391 1_556 S
C688 C690 1.394 . S
C688 H704 0.931 . S
C689 C688 1.391 1_554 S
C689 C693 1.376 . S
C690 C688 1.394 . S
C690 C691 1.362 1_556 S
C690 C694 1.531 . S
C691 C690 1.362 1_554 S
C691 C692 1.419 . S
C691 C699 1.504 . S
C692 C691 1.419 . S
C692 C693 1.392 . S
C692 C695 1.511 . S
C693 C689 1.376 . S
C693 C692 1.392 . S
C693 H705 0.929 . S
C694 C690 1.531 . S
C694 H706 0.960 . S
C694 H707 0.962 . S
C694 H708 0.960 . S
C695 C692 1.511 . S
C695 H709 0.961 . S
C695 H710 0.961 . S
C695 H711 0.963 1_554 S
C696 C697 1.370 . S
C696 C698 1.363 . S
C696 H712 0.931 . S
C697 C696 1.370 . S
C697 C701 1.408 1_554 S
C698 C696 1.363 . S
C698 C699 1.370 . S
C698 C702 1.524 . S
C699 C691 1.504 . S
C699 C698 1.370 . S
C699 C700 1.403 1_554 S
C700 C699 1.403 1_556 S
C700 C701 1.404 . S
C700 C703 1.539 . S
C701 C697 1.408 1_556 S
C701 C700 1.404 . S
C701 H713 0.930 . S
C702 C698 1.524 . S
C702 H714 0.956 . S
C702 H715 0.961 . S
C702 H716 0.961 . S
C703 C700 1.539 . S
C703 H717 0.958 . S
C703 H718 0.961 . S
C703 H719 0.960 . S
H704 C688 0.931 . S
H705 C693 0.929 . S
H706 C694 0.960 . S
H707 C694 0.962 . S
H708 C694 0.960 . S
H709 C695 0.961 . S
H710 C695 0.961 . S
H711 C695 0.963 1_556 S
H712 C696 0.931 . S
H713 C701 0.930 . S
H714 C702 0.956 . S
H715 C702 0.961 . S
H716 C702 0.961 . S
H717 C703 0.958 . S
H718 C703 0.961 . S
H719 C703 0.960 . S
C720 C721 1.391 . S
C720 C722 1.394 . S
C720 H736 0.931 . S
C721 C720 1.391 . S
C721 C725 1.376 . S
C722 C720 1.394 . S
C722 C723 1.369 . S
C722 C726 1.531 . S
C723 C722 1.369 . S
C723 C724 1.410 . S
C723 C731 1.503 . S
C724 C723 1.410 . S
C724 C725 1.392 . S
C724 C727 1.511 . S
C725 C721 1.376 . S
C725 C724 1.392 . S
C725 H737 0.929 . S
C726 C722 1.531 . S
C726 H738 0.960 . S
C726 H739 0.962 . S
C726 H740 0.960 . S
C727 C724 1.511 . S
C727 H741 0.961 . S
C727 H742 0.961 . S
C727 H743 0.961 . S
C728 C729 1.370 . S
C728 C730 1.363 . S
C728 H744 0.931 . S
C729 C728 1.370 . S
C729 C733 1.408 . S
C730 C728 1.363 . S
C730 C731 1.370 . S
C730 C734 1.524 . S
C731 C723 1.503 . S
C731 C730 1.370 . S
C731 C732 1.403 . S
C732 C731 1.403 . S
C732 C733 1.404 . S
C732 C735 1.539 . S
C733 C729 1.408 . S
C733 C732 1.404 . S
C733 H745 0.930 . S
C734 C730 1.524 . S
C734 H746 0.956 . S
C734 H747 0.961 . S
C734 H748 0.961 . S
C735 C732 1.539 . S
C735 H749 0.958 . S
C735 H750 0.961 . S
C735 H751 0.960 . S
H736 C720 0.931 . S
H737 C725 0.929 . S
H738 C726 0.960 . S
H739 C726 0.962 . S
H740 C726 0.960 . S
H741 C727 0.961 . S
H742 C727 0.961 . S
H743 C727 0.961 . S
H744 C728 0.931 . S
H745 C733 0.930 . S
H746 C734 0.956 . S
H747 C734 0.961 . S
H748 C734 0.961 . S
H749 C735 0.958 . S
H750 C735 0.961 . S
H751 C735 0.960 . S
C752 C753 1.391 . S
C752 C754 1.394 . S
C752 H768 0.931 . S
C753 C752 1.391 . S
C753 C757 1.376 . S
C754 C752 1.394 . S
C754 C755 1.369 . S
C754 C758 1.531 . S
C755 C754 1.369 . S
C755 C756 1.410 . S
C755 C763 1.503 . S
C756 C755 1.410 . S
C756 C757 1.392 . S
C756 C759 1.511 . S
C757 C753 1.376 . S
C757 C756 1.392 . S
C757 H769 0.929 . S
C758 C754 1.531 . S
C758 H770 0.960 . S
C758 H771 0.962 . S
C758 H772 0.960 . S
C759 C756 1.511 . S
C759 H773 0.961 . S
C759 H774 0.961 . S
C759 H775 0.961 . S
C760 C761 1.370 . S
C760 C762 1.363 . S
C760 H776 0.931 . S
C761 C760 1.370 . S
C761 C765 1.408 . S
C762 C760 1.363 . S
C762 C763 1.370 . S
C762 C766 1.524 . S
C763 C755 1.503 . S
C763 C762 1.370 . S
C763 C764 1.403 . S
C764 C763 1.403 . S
C764 C765 1.404 . S
C764 C767 1.539 . S
C765 C761 1.408 . S
C765 C764 1.404 . S
C765 H777 0.930 . S
C766 C762 1.524 . S
C766 H778 0.956 . S
C766 H779 0.961 . S
C766 H780 0.961 . S
C767 C764 1.539 . S
C767 H781 0.958 . S
C767 H782 0.961 . S
C767 H783 0.960 . S
H768 C752 0.931 . S
H769 C757 0.929 . S
H770 C758 0.960 . S
H771 C758 0.962 . S
H772 C758 0.960 . S
H773 C759 0.961 . S
H774 C759 0.961 . S
H775 C759 0.961 . S
H776 C760 0.931 . S
H777 C765 0.930 . S
H778 C766 0.956 . S
H779 C766 0.961 . S
H780 C766 0.961 . S
H781 C767 0.958 . S
H782 C767 0.961 . S
H783 C767 0.960 . S
C784 C785 1.391 . S
C784 C786 1.394 . S
C784 H800 0.931 . S
C785 C784 1.391 . S
C785 C789 1.376 . S
C786 C784 1.394 . S
C786 C787 1.369 . S
C786 C790 1.531 . S
C787 C786 1.369 . S
C787 C788 1.410 . S
C787 C795 1.503 1_455 S
C788 C787 1.410 . S
C788 C789 1.392 . S
C788 C791 1.511 . S
C789 C785 1.376 . S
C789 C788 1.392 . S
C789 H801 0.929 . S
C790 C786 1.531 . S
C790 H802 0.949 1_455 S
C790 H803 0.962 . S
C790 H804 0.960 . S
C791 C788 1.511 . S
C791 H805 0.961 . S
C791 H806 0.961 . S
C791 H807 0.961 . S
C792 C793 1.370 . S
C792 C794 1.363 . S
C792 H808 0.931 . S
C793 C792 1.370 . S
C793 C797 1.408 . S
C794 C792 1.363 . S
C794 C795 1.370 . S
C794 C798 1.524 . S
C795 C787 1.503 1_655 S
C795 C794 1.370 . S
C795 C796 1.403 . S
C796 C795 1.403 . S
C796 C797 1.404 . S
C796 C799 1.539 . S
C797 C793 1.408 . S
C797 C796 1.404 . S
C797 H809 0.930 . S
C798 C794 1.524 . S
C798 H810 0.956 1_655 S
C798 H811 0.961 1_655 S
C798 H812 0.961 . S
C799 C796 1.539 . S
C799 H813 0.958 . S
C799 H814 0.961 . S
C799 H815 0.960 1_655 S
H800 C784 0.931 . S
H801 C789 0.929 . S
H802 C790 0.949 1_655 S
H803 C790 0.962 . S
H804 C790 0.960 . S
H805 C791 0.961 . S
H806 C791 0.961 . S
H807 C791 0.961 . S
H808 C792 0.931 . S
H809 C797 0.930 . S
H810 C798 0.956 1_455 S
H811 C798 0.961 1_455 S
H812 C798 0.961 . S
H813 C799 0.958 . S
H814 C799 0.961 . S
H815 C799 0.960 1_455 S
C816 C817 1.391 1_655 S
C816 C818 1.394 . S
C816 H832 0.931 . S
C817 C816 1.391 1_455 S
C817 C821 1.376 . S
C818 C816 1.394 . S
C818 C819 1.369 1_655 S
C818 C822 1.531 . S
C819 C818 1.369 1_455 S
C819 C820 1.410 . S
C819 C827 1.503 . S
C820 C819 1.410 . S
C820 C821 1.392 . S
C820 C823 1.514 . S
C821 C817 1.376 . S
C821 C820 1.392 . S
C821 H833 0.929 . S
C822 C818 1.531 . S
C822 H834 0.960 . S
C822 H835 0.962 . S
C822 H836 0.960 . S
C823 C820 1.514 . S
C823 H837 0.956 1_556 S
C823 H838 0.959 1_556 S
C823 H839 0.965 . S
C824 C825 1.370 . S
C824 C826 1.363 . S
C824 H840 0.931 1_556 S
C825 C824 1.370 . S
C825 C829 1.408 1_655 S
C826 C824 1.363 . S
C826 C827 1.370 1_655 S
C826 C830 1.524 1_556 S
C827 C819 1.503 . S
C827 C826 1.370 1_455 S
C827 C828 1.403 . S
C828 C827 1.403 . S
C828 C829 1.404 . S
C828 C831 1.539 . S
C829 C825 1.408 1_455 S
C829 C828 1.404 . S
C829 H841 0.930 . S
C830 C826 1.524 1_554 S
C830 H842 0.956 . S
C830 H843 0.961 . S
C830 H844 0.961 . S
C831 C828 1.539 . S
C831 H845 0.958 . S
C831 H846 0.961 . S
C831 H847 0.960 . S
H832 C816 0.931 . S
H833 C821 0.929 . S
H834 C822 0.960 . S
H835 C822 0.962 . S
H836 C822 0.960 . S
H837 C823 0.956 1_554 S
H838 C823 0.959 1_554 S
H839 C823 0.965 . S
H840 C824 0.931 1_554 S
H841 C829 0.930 . S
H842 C830 0.956 . S
H843 C830 0.961 . S
H844 C830 0.961 . S
H845 C831 0.958 . S
H846 C831 0.961 . S
H847 C831 0.960 . S
C848 C849 1.391 . S
C848 C850 1.394 . S
C848 H864 0.931 . S
C849 C848 1.391 . S
C849 C853 1.376 . S
C850 C848 1.394 . S
C850 C851 1.369 . S
C850 C854 1.531 . S
C851 C850 1.369 . S
C851 C852 1.410 . S
C851 C859 1.503 . S
C852 C851 1.410 . S
C852 C853 1.392 . S
C852 C855 1.511 . S
C853 C849 1.376 . S
C853 C852 1.392 . S
C853 H865 0.929 . S
C854 C850 1.531 . S
C854 H866 0.960 . S
C854 H867 0.962 . S
C854 H868 0.960 . S
C855 C852 1.511 . S
C855 H869 0.961 . S
C855 H870 0.961 . S
C855 H871 0.961 . S
C856 C857 1.370 . S
C856 C858 1.363 . S
C856 H872 0.931 . S
C857 C856 1.370 . S
C857 C861 1.408 . S
C858 C856 1.363 . S
C858 C859 1.370 . S
C858 C862 1.524 . S
C859 C851 1.503 . S
C859 C858 1.370 . S
C859 C860 1.403 . S
C860 C859 1.403 . S
C860 C861 1.404 . S
C860 C863 1.539 . S
C861 C857 1.408 . S
C861 C860 1.404 . S
C861 H873 0.930 . S
C862 C858 1.524 . S
C862 H874 0.956 . S
C862 H875 0.961 . S
C862 H876 0.961 . S
C863 C860 1.539 . S
C863 H877 0.958 . S
C863 H878 0.961 . S
C863 H879 0.960 . S
H864 C848 0.931 . S
H865 C853 0.929 . S
H866 C854 0.960 . S
H867 C854 0.962 . S
H868 C854 0.960 . S
H869 C855 0.961 . S
H870 C855 0.961 . S
H871 C855 0.961 . S
H872 C856 0.931 . S
H873 C861 0.930 . S
H874 C862 0.956 . S
H875 C862 0.961 . S
H876 C862 0.961 . S
H877 C863 0.958 . S
H878 C863 0.961 . S
H879 C863 0.960 . S
C880 C881 1.391 . S
C880 C882 1.394 . S
C880 H896 0.931 . S
C881 C880 1.391 . S
C881 C885 1.376 . S
C882 C880 1.394 . S
C882 C883 1.369 . S
C882 C886 1.531 . S
C883 C882 1.369 . S
C883 C884 1.410 . S
C883 C891 1.503 1_545 S
C884 C883 1.410 . S
C884 C885 1.392 . S
C884 C887 1.511 . S
C885 C881 1.376 . S
C885 C884 1.392 . S
C885 H897 0.929 . S
C886 C882 1.531 . S
C886 H898 0.962 1_545 S
C886 H899 0.962 . S
C886 H900 0.960 . S
C887 C884 1.511 . S
C887 H901 0.961 . S
C887 H902 0.961 1_545 S
C887 H903 0.961 . S
C888 C889 1.370 . S
C888 C890 1.363 . S
C888 H904 0.931 . S
C889 C888 1.370 . S
C889 C893 1.408 . S
C890 C888 1.363 . S
C890 C891 1.370 . S
C890 C894 1.524 . S
C891 C883 1.503 1_565 S
C891 C890 1.370 . S
C891 C892 1.403 . S
C892 C891 1.403 . S
C892 C893 1.404 . S
C892 C895 1.539 . S
C893 C889 1.408 . S
C893 C892 1.404 . S
C893 H905 0.930 . S
C894 C890 1.524 . S
C894 H906 0.952 1_565 S
C894 H907 0.961 1_565 S
C894 H908 0.961 . S
C895 C892 1.539 . S
C895 H909 0.958 . S
C895 H910 0.961 . S
C895 H911 0.960 . S
H896 C880 0.931 . S
H897 C885 0.929 . S
H898 C886 0.962 1_565 S
H899 C886 0.962 . S
H900 C886 0.960 . S
H901 C887 0.961 . S
H902 C887 0.961 1_565 S
H903 C887 0.961 . S
H904 C888 0.931 . S
H905 C893 0.930 . S
H906 C894 0.952 1_545 S
H907 C894 0.961 1_545 S
H908 C894 0.961 . S
H909 C895 0.958 . S
H910 C895 0.961 . S
H911 C895 0.960 . S
C912 C913 1.391 . S
C912 C914 1.394 . S
C912 H928 0.931 . S
C913 C912 1.391 . S
C913 C917 1.376 1_556 S
C914 C912 1.394 . S
C914 C915 1.369 . S
C914 C918 1.531 . S
C915 C914 1.369 . S
C915 C916 1.409 1_556 S
C915 C923 1.504 . S
C916 C915 1.409 1_554 S
C916 C917 1.392 . S
C916 C919 1.511 . S
C917 C913 1.376 1_554 S
C917 C916 1.392 . S
C917 H929 0.929 . S
C918 C914 1.531 . S
C918 H930 0.971 . S
C918 H931 0.962 . S
C918 H932 0.960 . S
C919 C916 1.511 . S
C919 H933 0.961 . S
C919 H934 0.961 . S
C919 H935 0.961 . S
C920 C921 1.370 . S
C920 C922 1.363 . S
C920 H936 0.931 . S
C921 C920 1.370 . S
C921 C925 1.408 1_556 S
C922 C920 1.363 . S
C922 C923 1.370 . S
C922 C926 1.524 . S
C923 C915 1.504 . S
C923 C922 1.370 . S
C923 C924 1.403 1_556 S
C924 C923 1.403 1_554 S
C924 C925 1.404 . S
C924 C927 1.539 . S
C925 C921 1.408 1_554 S
C925 C924 1.404 . S
C925 H937 0.930 . S
C926 C922 1.524 . S
C926 H938 0.956 . S
C926 H939 0.961 . S
C926 H940 0.961 . S
C927 C924 1.539 . S
C927 H941 0.958 . S
C927 H942 0.961 . S
C927 H943 0.960 . S
H928 C912 0.931 . S
H929 C917 0.929 . S
H930 C918 0.971 . S
H931 C918 0.962 . S
H932 C918 0.960 . S
H933 C919 0.961 . S
H934 C919 0.961 . S
H935 C919 0.961 . S
H936 C920 0.931 . S
H937 C925 0.930 . S
H938 C926 0.956 . S
H939 C926 0.961 . S
H940 C926 0.961 . S
H941 C927 0.958 . S
H942 C927 0.961 . S
H943 C927 0.960 . S
C944 C945 1.391 . S
C944 C946 1.394 . S
C944 H960 0.931 . S
C945 C944 1.391 . S
C945 C949 1.376 . S
C946 C944 1.394 . S
C946 C947 1.369 . S
C946 C950 1.531 . S
C947 C946 1.369 . S
C947 C948 1.410 . S
C947 C955 1.503 1_545 S
C948 C947 1.410 . S
C948 C949 1.392 . S
C948 C951 1.511 . S
C949 C945 1.376 . S
C949 C948 1.392 . S
C949 H961 0.929 . S
C950 C946 1.531 . S
C950 H962 0.960 . S
C950 H963 0.962 . S
C950 H964 0.960 . S
C951 C948 1.511 . S
C951 H965 0.961 . S
C951 H966 0.961 . S
C951 H967 0.961 . S
C952 C953 1.370 . S
C952 C954 1.363 . S
C952 H968 0.931 . S
C953 C952 1.370 . S
C953 C957 1.408 . S
C954 C952 1.363 . S
C954 C955 1.370 . S
C954 C958 1.510 1_565 S
C955 C947 1.503 1_565 S
C955 C954 1.370 . S
C955 C956 1.403 . S
C956 C955 1.403 . S
C956 C957 1.404 . S
C956 C959 1.539 . S
C957 C953 1.408 . S
C957 C956 1.404 . S
C957 H969 0.930 . S
C958 C954 1.510 1_545 S
C958 H970 0.969 . S
C958 H971 0.977 . S
C958 H972 0.946 1_545 S
C959 C956 1.539 . S
C959 H973 0.958 1_565 S
C959 H974 0.961 . S
C959 H975 0.960 1_565 S
H960 C944 0.931 . S
H961 C949 0.929 . S
H962 C950 0.960 . S
H963 C950 0.962 . S
H964 C950 0.960 . S
H965 C951 0.961 . S
H966 C951 0.961 . S
H967 C951 0.961 . S
H968 C952 0.931 . S
H969 C957 0.930 . S
H970 C958 0.969 . S
H971 C958 0.977 . S
H972 C958 0.946 1_565 S
H973 C959 0.958 1_545 S
H974 C959 0.961 . S
H975 C959 0.960 1_545 S
C976 C977 1.391 1_544 S
C976 C978 1.394 . S
C976 H992 0.931 . S
C977 C976 1.391 1_566 S
C977 C981 1.376 . S
C978 C976 1.394 . S
C978 C979 1.369 1_544 S
C978 C982 1.531 . S
C979 C978 1.369 1_566 S
C979 C980 1.410 . S
C979 C987 1.503 . S
C980 C979 1.410 . S
C980 C981 1.392 . S
C980 C983 1.511 . S
C981 C977 1.376 . S
C981 C980 1.392 . S
C981 H993 0.929 . S
C982 C978 1.531 . S
C982 H994 0.960 . S
C982 H995 0.962 1_545 S
C982 H996 0.960 . S
C983 C980 1.511 . S
C983 H997 0.961 . S
C983 H998 0.961 . S
C983 H999 0.961 1_565 S
C984 C985 1.371 1_554 S
C984 C986 1.363 1_554 S
C984 H1000 0.930 . S
C985 C984 1.371 1_556 S
C985 C989 1.408 1_565 S
C986 C984 1.363 1_556 S
C986 C987 1.370 . S
C986 C990 1.524 1_556 S
C987 C979 1.503 . S
C987 C986 1.370 . S
C987 C988 1.403 1_565 S
C988 C987 1.403 1_545 S
C988 C989 1.404 . S
C988 C991 1.539 . S
C989 C985 1.408 1_545 S
C989 C988 1.404 . S
C989 H1001 0.930 . S
C990 C986 1.524 1_554 S
C990 H1002 0.956 . S
C990 H1003 0.961 1_554 S
C990 H1004 0.961 . S
C991 C988 1.539 . S
C991 H1005 0.958 . S
C991 H1006 0.961 . S
C991 H1007 0.960 . S
H992 C976 0.931 . S
H993 C981 0.929 . S
H994 C982 0.960 . S
H995 C982 0.962 1_565 S
H996 C982 0.960 . S
H997 C983 0.961 . S
H998 C983 0.961 . S
H999 C983 0.961 1_545 S
H1000 C984 0.930 . S
H1001 C989 0.930 . S
H1002 C990 0.956 . S
H1003 C990 0.961 1_556 S
H1004 C990 0.961 . S
H1005 C991 0.958 . S
H1006 C991 0.961 . S
H1007 C991 0.960 . S
C1008 C1009 1.391 . S
C1008 C1010 1.394 . S
C1008 H1024 0.931 . S
C1009 C1008 1.391 . S
C1009 C1013 1.376 . S
C1010 C1008 1.394 . S
C1010 C1011 1.369 . S
C1010 C1014 1.531 . S
C1011 C1010 1.369 . S
C1011 C1012 1.410 . S
C1011 C1019 1.503 . S
C1012 C1011 1.410 . S
C1012 C1013 1.392 . S
C1012 C1015 1.511 . S
C1013 C1009 1.376 . S
C1013 C1012 1.392 . S
C1013 H1025 0.929 . S
C1014 C1010 1.531 . S
C1014 H1026 0.960 . S
C1014 H1027 0.962 . S
C1014 H1028 0.960 . S
C1015 C1012 1.511 . S
C1015 H1029 0.961 . S
C1015 H1030 0.961 . S
C1015 H1031 0.961 . S
C1016 C1017 1.370 . S
C1016 C1018 1.363 . S
C1016 H1032 0.931 . S
C1017 C1016 1.370 . S
C1017 C1021 1.408 . S
C1018 C1016 1.363 . S
C1018 C1019 1.370 . S
C1018 C1022 1.524 . S
C1019 C1011 1.503 . S
C1019 C1018 1.370 . S
C1019 C1020 1.403 . S
C1020 C1019 1.403 . S
C1020 C1021 1.404 . S
C1020 C1023 1.539 . S
C1021 C1017 1.408 . S
C1021 C1020 1.404 . S
C1021 H1033 0.930 . S
C1022 C1018 1.524 . S
C1022 H1034 0.956 . S
C1022 H1035 0.961 . S
C1022 H1036 0.961 . S
C1023 C1020 1.539 . S
C1023 H1037 0.958 . S
C1023 H1038 0.961 . S
C1023 H1039 0.960 . S
H1024 C1008 0.931 . S
H1025 C1013 0.929 . S
H1026 C1014 0.960 . S
H1027 C1014 0.962 . S
H1028 C1014 0.960 . S
H1029 C1015 0.961 . S
H1030 C1015 0.961 . S
H1031 C1015 0.961 . S
H1032 C1016 0.931 . S
H1033 C1021 0.930 . S
H1034 C1022 0.956 . S
H1035 C1022 0.961 . S
H1036 C1022 0.961 . S
H1037 C1023 0.958 . S
H1038 C1023 0.961 . S
H1039 C1023 0.960 . S
C1040 C1041 1.391 . S
C1040 C1042 1.394 . S
C1040 H1056 0.931 . S
C1041 C1040 1.391 . S
C1041 C1045 1.376 . S
C1042 C1040 1.394 . S
C1042 C1043 1.369 . S
C1042 C1046 1.531 . S
C1043 C1042 1.369 . S
C1043 C1044 1.410 . S
C1043 C1051 1.503 . S
C1044 C1043 1.410 . S
C1044 C1045 1.392 . S
C1044 C1047 1.511 . S
C1045 C1041 1.376 . S
C1045 C1044 1.392 . S
C1045 H1057 0.929 . S
C1046 C1042 1.531 . S
C1046 H1058 0.960 . S
C1046 H1059 0.962 . S
C1046 H1060 0.960 . S
C1047 C1044 1.511 . S
C1047 H1061 0.961 . S
C1047 H1062 0.961 . S
C1047 H1063 0.961 . S
C1048 C1049 1.370 . S
C1048 C1050 1.363 . S
C1048 H1064 0.931 . S
C1049 C1048 1.370 . S
C1049 C1053 1.408 . S
C1050 C1048 1.363 . S
C1050 C1051 1.370 . S
C1050 C1054 1.524 . S
C1051 C1043 1.503 . S
C1051 C1050 1.370 . S
C1051 C1052 1.403 . S
C1052 C1051 1.403 . S
C1052 C1053 1.404 . S
C1052 C1055 1.539 . S
C1053 C1049 1.408 . S
C1053 C1052 1.404 . S
C1053 H1065 0.930 . S
C1054 C1050 1.524 . S
C1054 H1066 0.956 . S
C1054 H1067 0.961 . S
C1054 H1068 0.961 . S
C1055 C1052 1.539 . S
C1055 H1069 0.958 . S
C1055 H1070 0.961 . S
C1055 H1071 0.960 . S
H1056 C1040 0.931 . S
H1057 C1045 0.929 . S
H1058 C1046 0.960 . S
H1059 C1046 0.962 . S
H1060 C1046 0.960 . S
H1061 C1047 0.961 . S
H1062 C1047 0.961 . S
H1063 C1047 0.961 . S
H1064 C1048 0.931 . S
H1065 C1053 0.930 . S
H1066 C1054 0.956 . S
H1067 C1054 0.961 . S
H1068 C1054 0.961 . S
H1069 C1055 0.958 . S
H1070 C1055 0.961 . S
H1071 C1055 0.960 . S
C1072 C1073 1.391 . S
C1072 C1074 1.394 . S
C1072 H1088 0.931 . S
C1073 C1072 1.391 . S
C1073 C1077 1.376 . S
C1074 C1072 1.394 . S
C1074 C1075 1.369 . S
C1074 C1078 1.531 . S
C1075 C1074 1.369 . S
C1075 C1076 1.410 . S
C1075 C1083 1.503 1_556 S
C1076 C1075 1.410 . S
C1076 C1077 1.392 . S
C1076 C1079 1.511 . S
C1077 C1073 1.376 . S
C1077 C1076 1.392 . S
C1077 H1089 0.929 . S
C1078 C1074 1.531 . S
C1078 H1090 0.960 1_556 S
C1078 H1091 0.962 . S
C1078 H1092 0.960 . S
C1079 C1076 1.511 . S
C1079 H1093 0.961 . S
C1079 H1094 0.961 1_556 S
C1079 H1095 0.961 1_556 S
C1080 C1081 1.370 . S
C1080 C1082 1.363 . S
C1080 H1096 0.931 . S
C1081 C1080 1.370 . S
C1081 C1085 1.408 . S
C1082 C1080 1.363 . S
C1082 C1083 1.370 . S
C1082 C1086 1.524 . S
C1083 C1075 1.503 1_554 S
C1083 C1082 1.370 . S
C1083 C1084 1.403 . S
C1084 C1083 1.403 . S
C1084 C1085 1.404 . S
C1084 C1087 1.539 . S
C1085 C1081 1.408 . S
C1085 C1084 1.404 . S
C1085 H1097 0.930 . S
C1086 C1082 1.524 . S
C1086 H1098 0.956 . S
C1086 H1099 0.961 . S
C1086 H1100 0.961 . S
C1087 C1084 1.539 . S
C1087 H1101 0.958 . S
C1087 H1102 0.961 . S
C1087 H1103 0.960 . S
H1088 C1072 0.931 . S
H1089 C1077 0.929 . S
H1090 C1078 0.960 1_554 S
H1091 C1078 0.962 . S
H1092 C1078 0.960 . S
H1093 C1079 0.961 . S
H1094 C1079 0.961 1_554 S
H1095 C1079 0.961 1_554 S
H1096 C1080 0.931 . S
H1097 C1085 0.930 . S
H1098 C1086 0.956 . S
H1099 C1086 0.961 . S
H1100 C1086 0.961 . S
H1101 C1087 0.958 . S
H1102 C1087 0.961 . S
H1103 C1087 0.960 . S
C1104 C1105 1.391 . S
C1104 C1106 1.394 . S
C1104 H1120 0.931 . S
C1105 C1104 1.391 . S
C1105 C1109 1.376 . S
C1106 C1104 1.394 . S
C1106 C1107 1.369 . S
C1106 C1110 1.531 . S
C1107 C1106 1.369 . S
C1107 C1108 1.410 . S
C1107 C1115 1.503 . S
C1108 C1107 1.410 . S
C1108 C1109 1.392 . S
C1108 C1111 1.511 . S
C1109 C1105 1.376 . S
C1109 C1108 1.392 . S
C1109 H1121 0.929 . S
C1110 C1106 1.531 . S
C1110 H1122 0.960 . S
C1110 H1123 0.962 . S
C1110 H1124 0.960 . S
C1111 C1108 1.511 . S
C1111 H1125 0.961 . S
C1111 H1126 0.961 . S
C1111 H1127 0.961 . S
C1112 C1113 1.370 . S
C1112 C1114 1.363 . S
C1112 H1128 0.931 . S
C1113 C1112 1.370 . S
C1113 C1117 1.408 . S
C1114 C1112 1.363 . S
C1114 C1115 1.370 . S
C1114 C1118 1.524 . S
C1115 C1107 1.503 . S
C1115 C1114 1.370 . S
C1115 C1116 1.403 . S
C1116 C1115 1.403 . S
C1116 C1117 1.404 . S
C1116 C1119 1.539 . S
C1117 C1113 1.408 . S
C1117 C1116 1.404 . S
C1117 H1129 0.930 . S
C1118 C1114 1.524 . S
C1118 H1130 0.956 . S
C1118 H1131 0.961 . S
C1118 H1132 0.961 . S
C1119 C1116 1.539 . S
C1119 H1133 0.958 . S
C1119 H1134 0.961 . S
C1119 H1135 0.960 . S
H1120 C1104 0.931 . S
H1121 C1109 0.929 . S
H1122 C1110 0.960 . S
H1123 C1110 0.962 . S
H1124 C1110 0.960 . S
H1125 C1111 0.961 . S
H1126 C1111 0.961 . S
H1127 C1111 0.961 . S
H1128 C1112 0.931 . S
H1129 C1117 0.930 . S
H1130 C1118 0.956 . S
H1131 C1118 0.961 . S
H1132 C1118 0.961 . S
H1133 C1119 0.958 . S
H1134 C1119 0.961 . S
H1135 C1119 0.960 . S
C1136 C1137 1.391 . S
C1136 C1138 1.394 . S
C1136 H1152 0.931 . S
C1137 C1136 1.391 . S
C1137 C1141 1.376 . S
C1138 C1136 1.394 . S
C1138 C1139 1.369 . S
C1138 C1142 1.531 . S
C1139 C1138 1.369 . S
C1139 C1140 1.410 . S
C1139 C1147 1.503 . S
C1140 C1139 1.410 . S
C1140 C1141 1.392 . S
C1140 C1143 1.511 . S
C1141 C1137 1.376 . S
C1141 C1140 1.392 . S
C1141 H1153 0.929 . S
C1142 C1138 1.531 . S
C1142 H1154 0.960 . S
C1142 H1155 0.962 . S
C1142 H1156 0.960 . S
C1143 C1140 1.511 . S
C1143 H1157 0.961 . S
C1143 H1158 0.961 . S
C1143 H1159 0.961 . S
C1144 C1145 1.370 . S
C1144 C1146 1.363 . S
C1144 H1160 0.931 . S
C1145 C1144 1.370 . S
C1145 C1149 1.408 . S
C1146 C1144 1.363 . S
C1146 C1147 1.370 . S
C1146 C1150 1.524 . S
C1147 C1139 1.503 . S
C1147 C1146 1.370 . S
C1147 C1148 1.403 . S
C1148 C1147 1.403 . S
C1148 C1149 1.404 . S
C1148 C1151 1.539 . S
C1149 C1145 1.408 . S
C1149 C1148 1.404 . S
C1149 H1161 0.930 . S
C1150 C1146 1.524 . S
C1150 H1162 0.956 . S
C1150 H1163 0.961 . S
C1150 H1164 0.961 . S
C1151 C1148 1.539 . S
C1151 H1165 0.958 . S
C1151 H1166 0.961 . S
C1151 H1167 0.960 . S
H1152 C1136 0.931 . S
H1153 C1141 0.929 . S
H1154 C1142 0.960 . S
H1155 C1142 0.962 . S
H1156 C1142 0.960 . S
H1157 C1143 0.961 . S
H1158 C1143 0.961 . S
H1159 C1143 0.961 . S
H1160 C1144 0.931 . S
H1161 C1149 0.930 . S
H1162 C1150 0.956 . S
H1163 C1150 0.961 . S
H1164 C1150 0.961 . S
H1165 C1151 0.958 . S
H1166 C1151 0.961 . S
H1167 C1151 0.960 . S
C1168 C1169 1.391 1_655 S
C1168 C1170 1.394 . S
C1168 H1184 0.931 . S
C1169 C1168 1.391 1_455 S
C1169 C1173 1.376 . S
C1170 C1168 1.394 . S
C1170 C1171 1.369 1_655 S
C1170 C1174 1.531 . S
C1171 C1170 1.369 1_455 S
C1171 C1172 1.410 . S
C1171 C1179 1.503 . S
C1172 C1171 1.410 . S
C1172 C1173 1.392 . S
C1172 C1175 1.511 . S
C1173 C1169 1.376 . S
C1173 C1172 1.392 . S
C1173 H1185 0.929 . S
C1174 C1170 1.531 . S
C1174 H1186 0.960 . S
C1174 H1187 0.962 . S
C1174 H1188 0.960 . S
C1175 C1172 1.511 . S
C1175 H1189 0.961 . S
C1175 H1190 0.961 . S
C1175 H1191 0.961 . S
C1176 C1177 1.370 1_655 S
C1176 C1178 1.363 . S
C1176 H1192 0.931 . S
C1177 C1176 1.370 1_455 S
C1177 C1181 1.408 . S
C1178 C1176 1.363 . S
C1178 C1179 1.370 1_655 S
C1178 C1182 1.524 . S
C1179 C1171 1.503 . S
C1179 C1178 1.370 1_455 S
C1179 C1180 1.403 . S
C1180 C1179 1.403 . S
C1180 C1181 1.404 . S
C1180 C1183 1.539 . S
C1181 C1177 1.408 . S
C1181 C1180 1.404 . S
C1181 H1193 0.930 . S
C1182 C1178 1.524 . S
C1182 H1194 0.956 . S
C1182 H1195 0.961 1_655 S
C1182 H1196 0.961 . S
C1183 C1180 1.539 . S
C1183 H1197 0.958 . S
C1183 H1198 0.961 . S
C1183 H1199 0.960 . S
H1184 C1168 0.931 . S
H1185 C1173 0.929 . S
H1186 C1174 0.960 . S
H1187 C1174 0.962 . S
H1188 C1174 0.960 . S
H1189 C1175 0.961 . S
H1190 C1175 0.961 . S
H1191 C1175 0.961 . S
H1192 C1176 0.931 . S
H1193 C1181 0.930 . S
H1194 C1182 0.956 . S
H1195 C1182 0.961 1_455 S
H1196 C1182 0.961 . S
H1197 C1183 0.958 . S
H1198 C1183 0.961 . S
H1199 C1183 0.960 . S
C1200 C1201 1.391 . S
C1200 C1202 1.394 . S
C1200 H1216 0.931 . S
C1201 C1200 1.391 . S
C1201 C1205 1.376 1_565 S
C1202 C1200 1.394 . S
C1202 C1203 1.369 . S
C1202 C1206 1.531 . S
C1203 C1202 1.369 . S
C1203 C1204 1.410 1_565 S
C1203 C1211 1.503 1_565 S
C1204 C1203 1.410 1_545 S
C1204 C1205 1.392 . S
C1204 C1207 1.511 . S
C1205 C1201 1.376 1_545 S
C1205 C1204 1.392 . S
C1205 H1217 0.929 . S
C1206 C1202 1.531 . S
C1206 H1218 0.960 . S
C1206 H1219 0.962 . S
C1206 H1220 0.960 . S
C1207 C1204 1.511 . S
C1207 H1221 0.961 . S
C1207 H1222 0.961 . S
C1207 H1223 0.961 . S
C1208 C1209 1.370 . S
C1208 C1210 1.363 . S
C1208 H1224 0.931 . S
C1209 C1208 1.370 . S
C1209 C1213 1.408 1_545 S
C1210 C1208 1.363 . S
C1210 C1211 1.370 . S
C1210 C1214 1.524 . S
C1211 C1203 1.503 1_545 S
C1211 C1210 1.370 . S
C1211 C1212 1.403 1_545 S
C1212 C1211 1.403 1_565 S
C1212 C1213 1.404 . S
C1212 C1215 1.539 . S
C1213 C1209 1.408 1_565 S
C1213 C1212 1.404 . S
C1213 H1225 0.930 . S
C1214 C1210 1.524 . S
C1214 H1226 0.956 . S
C1214 H1227 0.961 . S
C1214 H1228 0.961 . S
C1215 C1212 1.539 . S
C1215 H1229 0.958 . S
C1215 H1230 0.961 . S
C1215 H1231 0.960 . S
H1216 C1200 0.931 . S
H1217 C1205 0.929 . S
H1218 C1206 0.960 . S
H1219 C1206 0.962 . S
H1220 C1206 0.960 . S
H1221 C1207 0.961 . S
H1222 C1207 0.961 . S
H1223 C1207 0.961 . S
H1224 C1208 0.931 . S
H1225 C1213 0.930 . S
H1226 C1214 0.956 . S
H1227 C1214 0.961 . S
H1228 C1214 0.961 . S
H1229 C1215 0.958 . S
H1230 C1215 0.961 . S
H1231 C1215 0.960 . S
C209 C0 1.686 . S
C217 C91 1.732 . S
C241 C13 1.694 . S
C249 C52 1.686 . S
C273 C65 1.688 . S
C281 C26 1.693 . S
C305 C39 1.688 . S
C313 C78 1.692 . S
C337 C104 1.680 . S
C345 C156 1.692 . S
C369 C117 1.682 . S
C377 C182 1.686 . S
C401 C143 1.670 . S
C409 C130 1.685 . S
C433 C195 1.716 . S
C441 C169 1.709 . S
C465 C5 1.168 . S
C473 C88 1.161 . S
C497 C96 1.161 . S
C505 C21 1.100 1_565 S
C529 C31 1.188 . S
C537 C57 1.178 . S
C561 C70 1.127 . S
C569 C47 1.177 1_545 S
C593 C10 1.209 . S
C601 C192 1.252 . S
C625 C148 1.183 1_655 S
C633 C18 1.154 . S
C657 C179 1.268 . S
C665 C36 1.228 . S
C689 C161 1.164 . S
C697 C44 1.179 . S
C721 C138 1.192 . S
C729 C62 1.236 . S
C753 C75 1.219 . S
C761 C205 1.234 . S
C785 C86 1.242 . S
C793 C114 1.213 . S
C817 C101 1.242 1_455 S
C825 C127 1.220 1_655 S
C849 C8 1.115 . S
C857 C60 1.161 . S
C881 C112 1.192 . S
C889 C177 1.145 . S
C913 C166 1.123 1_556 S
C921 C125 1.159 . S
C945 C190 1.047 . S
C953 C135 1.112 . S
C977 C99 1.200 . S
C985 C49 1.233 1_556 S
C1009 C34 1.033 . S
C1017 C83 1.107 . S
C1041 C153 1.213 . S
C1049 C203 1.205 . S
C1073 C174 1.165 . S
C1081 C140 1.162 . S
C1105 C200 1.161 . S
C1113 C164 1.099 . S
C1137 C187 1.132 . S
C1145 C109 1.207 . S
C1169 C151 1.113 . S
C1177 C122 1.183 . S
C1201 C23 1.133 1_565 S
C1209 C73 1.158 . S
