# Generated by pormake.
# Topology wkj, (6)-cn, num edge types: 1
# Building blocks:
#     Node 0, Type 0, BuildingBlock: JUFBIX_clean_sbu_0, # of connection points: 6
#     Node 1, Type 0, BuildingBlock: JUFBIX_clean_sbu_0, # of connection points: 6
#     Node 2, Type 0, BuildingBlock: JUFBIX_clean_sbu_0, # of connection points: 6
#     Node 3, Type 0, BuildingBlock: JUFBIX_clean_sbu_0, # of connection points: 6
#     Node 4, Type 0, BuildingBlock: JUFBIX_clean_sbu_0, # of connection points: 6
#     Node 5, Type 0, BuildingBlock: JUFBIX_clean_sbu_0, # of connection points: 6
#     Node 6, Type 0, BuildingBlock: JUFBIX_clean_sbu_0, # of connection points: 6
#     Node 7, Type 0, BuildingBlock: JUFBIX_clean_sbu_0, # of connection points: 6
#     Node 8, Type 0, BuildingBlock: JUFBIX_clean_sbu_0, # of connection points: 6
#     Node 9, Type 0, BuildingBlock: JUFBIX_clean_sbu_0, # of connection points: 6
#     Node 10, Type 0, BuildingBlock: JUFBIX_clean_sbu_0, # of connection points: 6
#     Node 11, Type 0, BuildingBlock: JUFBIX_clean_sbu_0, # of connection points: 6
#     Edge 12, Type (0, 0), BuildingBlock: KIFKEQ_clean_linker_1, # of connection points: 2
#     Edge 13, Type (0, 0), BuildingBlock: KIFKEQ_clean_linker_1, # of connection points: 2
#     Edge 14, Type (0, 0), BuildingBlock: KIFKEQ_clean_linker_1, # of connection points: 2
#     Edge 15, Type (0, 0), BuildingBlock: KIFKEQ_clean_linker_1, # of connection points: 2
#     Edge 16, Type (0, 0), BuildingBlock: KIFKEQ_clean_linker_1, # of connection points: 2
#     Edge 17, Type (0, 0), BuildingBlock: KIFKEQ_clean_linker_1, # of connection points: 2
#     Edge 18, Type (0, 0), BuildingBlock: KIFKEQ_clean_linker_1, # of connection points: 2
#     Edge 19, Type (0, 0), BuildingBlock: KIFKEQ_clean_linker_1, # of connection points: 2
#     Edge 20, Type (0, 0), BuildingBlock: KIFKEQ_clean_linker_1, # of connection points: 2
#     Edge 21, Type (0, 0), BuildingBlock: KIFKEQ_clean_linker_1, # of connection points: 2
#     Edge 22, Type (0, 0), BuildingBlock: KIFKEQ_clean_linker_1, # of connection points: 2
#     Edge 23, Type (0, 0), BuildingBlock: KIFKEQ_clean_linker_1, # of connection points: 2
#     Edge 24, Type (0, 0), BuildingBlock: KIFKEQ_clean_linker_1, # of connection points: 2
#     Edge 25, Type (0, 0), BuildingBlock: KIFKEQ_clean_linker_1, # of connection points: 2
#     Edge 26, Type (0, 0), BuildingBlock: KIFKEQ_clean_linker_1, # of connection points: 2
#     Edge 27, Type (0, 0), BuildingBlock: KIFKEQ_clean_linker_1, # of connection points: 2
#     Edge 28, Type (0, 0), BuildingBlock: KIFKEQ_clean_linker_1, # of connection points: 2
#     Edge 29, Type (0, 0), BuildingBlock: KIFKEQ_clean_linker_1, # of connection points: 2
#     Edge 30, Type (0, 0), BuildingBlock: KIFKEQ_clean_linker_1, # of connection points: 2
#     Edge 31, Type (0, 0), BuildingBlock: KIFKEQ_clean_linker_1, # of connection points: 2
#     Edge 32, Type (0, 0), BuildingBlock: KIFKEQ_clean_linker_1, # of connection points: 2
#     Edge 33, Type (0, 0), BuildingBlock: KIFKEQ_clean_linker_1, # of connection points: 2
#     Edge 34, Type (0, 0), BuildingBlock: KIFKEQ_clean_linker_1, # of connection points: 2
#     Edge 35, Type (0, 0), BuildingBlock: KIFKEQ_clean_linker_1, # of connection points: 2
#     Edge 36, Type (0, 0), BuildingBlock: KIFKEQ_clean_linker_1, # of connection points: 2
#     Edge 37, Type (0, 0), BuildingBlock: KIFKEQ_clean_linker_1, # of connection points: 2
#     Edge 38, Type (0, 0), BuildingBlock: KIFKEQ_clean_linker_1, # of connection points: 2
#     Edge 39, Type (0, 0), BuildingBlock: KIFKEQ_clean_linker_1, # of connection points: 2
#     Edge 40, Type (0, 0), BuildingBlock: KIFKEQ_clean_linker_1, # of connection points: 2
#     Edge 41, Type (0, 0), BuildingBlock: KIFKEQ_clean_linker_1, # of connection points: 2
#     Edge 42, Type (0, 0), BuildingBlock: KIFKEQ_clean_linker_1, # of connection points: 2
#     Edge 43, Type (0, 0), BuildingBlock: KIFKEQ_clean_linker_1, # of connection points: 2
#     Edge 44, Type (0, 0), BuildingBlock: KIFKEQ_clean_linker_1, # of connection points: 2
#     Edge 45, Type (0, 0), BuildingBlock: KIFKEQ_clean_linker_1, # of connection points: 2
#     Edge 46, Type (0, 0), BuildingBlock: KIFKEQ_clean_linker_1, # of connection points: 2
#     Edge 47, Type (0, 0), BuildingBlock: KIFKEQ_clean_linker_1, # of connection points: 2
# Relax obj value: 0.812
# Max RMSD: 0.260
# Mean RMSD: 0.258
data_MOF--net-wkj--node1-JUFBIX_clean_sbu_0--edge1-KIFKEQ_clean_linker_1
_symmetry_space_group_name_H-M    P1
_symmetry_Int_Tables_number       1
_symmetry_cell_setting            triclinic
loop_
_symmetry_equiv_pos_as_xyz
'x, y, z'
_cell_length_a     51.185539
_cell_length_b     51.150677
_cell_length_c     27.129716
_cell_angle_alpha  90.027003
_cell_angle_beta   89.979567
_cell_angle_gamma 119.92461
loop_
_atom_site_label
_atom_site_type_symbol
_atom_site_fract_x
_atom_site_fract_y
_atom_site_fract_z
_atom_type_partial_charge
Co0 Co 0.43465 0.06697 0.18998 0.0
C1 C 0.46918 0.04979 0.24134 0.0
Co2 Co 0.47214 0.1039 0.22998 0.0
C3 C 0.38884 0.03598 0.11642 0.0
C4 C 0.38407 0.00785 0.17814 0.0
N5 N 0.40196 0.03561 0.15929 0.0
N6 N 0.36326 0.00964 0.10807 0.0
C7 C 0.36027 0.99184 0.14674 0.0
H8 H 0.3976 0.05541 0.09232 0.0
H9 H 0.3879 -0.00011 0.21281 0.0
C10 C 0.43422 0.12076 0.18595 0.0
N11 N 0.50435 0.13557 0.26148 0.0
C12 C 0.51645 0.1337 0.30429 0.0
C13 C 0.52098 0.16481 0.24797 0.0
N14 N 0.54004 0.16025 0.31802 0.0
C15 C 0.54295 0.18019 0.28311 0.0
C16 C 0.48616 0.0977 0.13051 0.0
O17 O 0.42058 0.09368 0.17083 0.0
O18 O 0.4577 0.12996 0.21211 0.0
O19 O 0.49603 0.11337 0.16982 0.0
O20 O 0.45877 0.07632 0.12994 0.0
O21 O 0.48567 0.07781 0.24904 0.0
H22 H 0.51743 0.17428 0.21471 0.0
H23 H 0.5079 0.1133 0.32562 0.0
O24 O 0.44792 0.04058 0.21027 0.0
O25 O 0.41144 0.05668 0.25056 0.0
O26 O 0.44866 0.09298 0.29122 0.0
C27 C 0.42266 0.06932 0.29168 0.0
H28 H 0.34252 0.96868 0.15148 0.0
H29 H 0.55992 0.20387 0.28269 0.0
Co30 Co 0.35618 0.44254 0.63764 0.0
C31 C 0.40529 0.48512 0.68885 0.0
Co32 Co 0.34916 0.47634 0.67532 0.0
C33 C 0.34918 0.40214 0.56167 0.0
C34 C 0.37531 0.39881 0.6202 0.0
N35 N 0.36193 0.41441 0.60511 0.0
N36 N 0.35346 0.37913 0.54892 0.0
C37 C 0.37014 0.37701 0.58554 0.0
H38 H 0.33585 0.40929 0.54086 0.0
H39 H 0.38709 0.40237 0.65484 0.0
C40 C 0.29846 0.43381 0.6263 0.0
N41 N 0.34322 0.50411 0.70989 0.0
C42 C 0.35044 0.51071 0.75776 0.0
C43 C 0.33483 0.52395 0.69469 0.0
N44 N 0.34722 0.53391 0.77329 0.0
C45 C 0.33764 0.54264 0.73365 0.0
C46 C 0.37073 0.49324 0.57747 0.0
O47 O 0.31592 0.42427 0.61271 0.0
O48 O 0.30818 0.45591 0.6559 0.0
O49 O 0.36077 0.50154 0.61424 0.0
O50 O 0.37044 0.46832 0.58099 0.0
O51 O 0.38886 0.49673 0.69504 0.0
H52 H 0.32854 0.52569 0.65728 0.0
H53 H 0.36026 0.50026 0.78002 0.0
O54 O 0.39578 0.46114 0.66347 0.0
O55 O 0.34329 0.41682 0.69298 0.0
O56 O 0.33993 0.45111 0.73557 0.0
C57 C 0.34024 0.42628 0.73447 0.0
H58 H 0.37787 0.36084 0.58744 0.0
H59 H 0.33414 0.56183 0.73243 0.0
Co60 Co 0.93313 0.35207 0.84947 0.0
C61 C 0.95203 0.4071 0.89037 0.0
Co62 Co 0.89712 0.35689 0.88307 0.0
C63 C 0.96252 0.34185 0.76957 0.0
C64 C 0.98951 0.353 0.83472 0.0
N65 N 0.96264 0.34797 0.8178 0.0
N66 N 0.98858 0.34383 0.75488 0.0
C67 C 0.00561 0.35063 0.79597 0.0
H68 H 0.94459 0.33855 0.74473 0.0
H69 H -0.00245 0.35971 0.87202 0.0
C70 C 0.8774 0.30008 0.84648 0.0
N71 N 0.86734 0.36078 0.91446 0.0
C72 C 0.86852 0.3703 0.96103 0.0
C73 C 0.84014 0.35489 0.89737 0.0
N74 N 0.84321 0.37038 0.97391 0.0
C75 C 0.82526 0.36103 0.93399 0.0
C76 C 0.904 0.37375 0.78489 0.0
O77 O 0.90414 0.31198 0.83 0.0
O78 O 0.8698 0.3158 0.87248 0.0
O79 O 0.88608 0.36743 0.82113 0.0
O80 O 0.92584 0.36865 0.78948 0.0
O81 O 0.92399 0.39722 0.89426 0.0
H82 H 0.8316 0.34647 0.86085 0.0
H83 H 0.88774 0.3774 0.98512 0.0
O84 O 0.9615 0.39111 0.8699 0.0
O85 O 0.94164 0.33776 0.90992 0.0
O86 O 0.90981 0.34813 0.94604 0.0
C87 C 0.93083 0.34173 0.94967 0.0
H88 H 0.02876 0.35556 0.79734 0.0
H89 H 0.80288 0.35823 0.93192 0.0
Co90 Co 0.53993 0.91399 0.30081 0.0
C91 C 0.49981 0.92147 0.3581 0.0
Co92 Co 0.50582 0.87304 0.33739 0.0
C93 C 0.57943 0.94793 0.22432 0.0
C94 C 0.5851 0.97656 0.28557 0.0
N95 N 0.56815 0.94809 0.26889 0.0
N96 N 0.6032 0.97487 0.21241 0.0
C97 C 0.60676 0.99317 0.25076 0.0
H98 H 0.57115 0.92777 0.2022 0.0
H99 H 0.58272 0.98434 0.32149 0.0
C100 C 0.54537 0.86365 0.28146 0.0
N101 N 0.47815 0.83908 0.37117 0.0
C102 C 0.47219 0.83902 0.4195 0.0
C103 C 0.45802 0.81116 0.3552 0.0
N104 N 0.44908 0.8125 0.43463 0.0
C105 C 0.43978 0.79481 0.39423 0.0
C106 C 0.48783 0.88017 0.24213 0.0
O107 O 0.55624 0.89134 0.27111 0.0
O108 O 0.52426 0.85167 0.31289 0.0
O109 O 0.47957 0.86137 0.27801 0.0
O110 O 0.51304 0.90444 0.24585 0.0
O111 O 0.48709 0.89319 0.36182 0.0
H112 H 0.45582 0.80369 0.31735 0.0
H113 H 0.48308 0.85895 0.44253 0.0
O114 O 0.52324 0.93566 0.33142 0.0
O115 O 0.56673 0.92475 0.35439 0.0
O116 O 0.53228 0.88702 0.39641 0.0
C117 C 0.55753 0.91166 0.39549 0.0
H118 H 0.62401 0.01664 0.25397 0.0
H119 H 0.42047 0.77226 0.39258 0.0
Co120 Co 0.62803 0.55361 0.52928 0.0
C121 C 0.57326 0.52386 0.57576 0.0
Co122 Co 0.61904 0.5126 0.56853 0.0
C123 C 0.646 0.59962 0.45407 0.0
C124 C 0.63023 0.61008 0.52013 0.0
N125 N 0.6351 0.58893 0.4994 0.0
N126 N 0.64814 0.62668 0.44572 0.0
C127 C 0.6382 0.63324 0.48736 0.0
H128 H 0.65189 0.58756 0.42761 0.0
H129 H 0.62081 0.60847 0.55645 0.0
C130 C 0.67644 0.54419 0.52817 0.0
N131 N 0.61273 0.47776 0.59838 0.0
C132 C 0.59904 0.46671 0.64174 0.0
C133 C 0.62152 0.45826 0.58273 0.0
N134 N 0.5989 0.44117 0.65396 0.0
C135 C 0.61321 0.43573 0.61724 0.0
C136 C 0.60202 0.50221 0.46784 0.0
O137 O 0.66793 0.56212 0.51231 0.0
O138 O 0.65838 0.5217 0.55383 0.0
O139 O 0.6045 0.49056 0.50773 0.0
O140 O 0.61188 0.53064 0.46739 0.0
O141 O 0.58045 0.50392 0.58408 0.0
H142 H 0.63355 0.46052 0.54876 0.0
H143 H 0.59018 0.47774 0.66476 0.0
O144 O 0.58932 0.54571 0.54727 0.0
O145 O 0.64213 0.57552 0.59169 0.0
O146 O 0.6318 0.53434 0.63118 0.0
C147 C 0.63893 0.56205 0.6327 0.0
H148 H 0.63541 0.65265 0.49296 0.0
H149 H 0.61738 0.41698 0.61563 0.0
Co150 Co 0.0723 0.62827 0.96416 0.0
C151 C 0.06485 0.57957 1.0179 0.0
Co152 Co 0.11338 0.63409 0.99859 0.0
C153 C 0.03553 0.63498 0.89277 0.0
C154 C 0.01068 0.61457 0.95857 0.0
N155 N 0.03755 0.62392 0.93662 0.0
N156 N 0.0088 0.63379 0.88669 0.0
C157 C 0.9929 0.62057 0.92788 0.0
H158 H 0.05377 0.64433 0.86634 0.0
H159 H 0.00496 0.60541 0.99546 0.0
C160 C 0.1222 0.68395 0.94598 0.0
N161 N 0.14839 0.63909 0.02835 0.0
C162 C 0.14967 0.62383 0.06797 0.0
C163 C 0.17745 0.65703 1.01495 0.0
N164 N 0.17812 0.63115 0.07948 0.0
C165 C 0.19584 0.65229 0.04659 0.0
C166 C 0.10462 0.61127 0.9006 0.0
O167 O 0.09471 0.66699 0.93479 0.0
O168 O 0.13415 0.67474 0.97742 0.0
O169 O 0.12398 0.62179 0.93569 0.0
O170 O 0.07972 0.61084 0.90672 0.0
O171 O 0.09324 0.59435 0.01914 0.0
H172 H 0.18478 0.67204 0.98352 0.0
H173 H 0.13003 0.60727 0.08792 0.0
O174 O 0.05045 0.58983 0.99428 0.0
O175 O 0.06423 0.64475 0.02015 0.0
O176 O 0.10074 0.64453 0.06116 0.0
C177 C 0.07691 0.64674 0.06111 0.0
H178 H 0.97046 0.6164 0.93611 0.0
H179 H 0.22011 0.66261 0.04439 0.0
Co180 Co 0.92732 0.55912 0.44597 0.0
C181 C 0.95705 0.53365 0.40074 0.0
Co182 Co 0.89846 0.51862 0.40282 0.0
C183 C 0.9432 0.59831 0.52695 0.0
C184 C 0.97942 0.61592 0.475 0.0
N185 N 0.95137 0.59271 0.48292 0.0
N186 N 0.96505 0.62375 0.54776 0.0
C187 C 0.98797 0.63508 0.51506 0.0
H188 H 0.92161 0.58343 0.54376 0.0
H189 H 0.99301 0.61829 0.44294 0.0
C190 C 0.8681 0.54602 0.44214 0.0
N191 N 0.87279 0.48484 0.36699 0.0
C192 C 0.87419 0.47864 0.31912 0.0
C193 C 0.84658 0.46159 0.38352 0.0
N194 N 0.84988 0.45247 0.30524 0.0
C195 C 0.83253 0.44158 0.3457 0.0
C196 C 0.90259 0.50541 0.50206 0.0
O197 O 0.89356 0.5641 0.46076 0.0
O198 O 0.86563 0.52465 0.41533 0.0
O199 O 0.88938 0.49382 0.46152 0.0
O200 O 0.91977 0.5339 0.50383 0.0
O201 O 0.93081 0.5129 0.389 0.0
H202 H 0.8378 0.4597 0.42042 0.0
H203 H 0.89261 0.49309 0.2949 0.0
O204 O 0.96036 0.55468 0.42954 0.0
O205 O 0.93653 0.58385 0.38887 0.0
O206 O 0.9096 0.54374 0.3438 0.0
C207 C 0.92902 0.57183 0.34642 0.0
H208 H 0.00985 0.65488 0.52067 0.0
H209 H 0.81086 0.42108 0.34744 0.0
Co210 Co 0.32827 0.89672 0.73038 0.0
C211 C 0.2851 0.83783 0.74971 0.0
Co212 Co 0.33982 0.87623 0.79513 0.0
C213 C 0.342 0.93053 0.63599 0.0
C214 C 0.29979 0.92167 0.66626 0.0
N215 N 0.32248 0.91595 0.67393 0.0
N216 N 0.33253 0.94532 0.60561 0.0
C217 C 0.3059 0.93963 0.62491 0.0
H218 H 0.3635 0.93145 0.63203 0.0
H219 H 0.28042 0.91412 0.69017 0.0
C220 C 0.37991 0.93534 0.78064 0.0
N221 N 0.34901 0.85907 0.85122 0.0
C222 C 0.36435 0.87158 0.89404 0.0
C223 C 0.34262 0.83018 0.85381 0.0
N224 N 0.3676 0.85152 0.92307 0.0
C225 C 0.35376 0.82552 0.89713 0.0
C226 C 0.3607 0.86775 0.70646 0.0
O227 O 0.36459 0.93228 0.74211 0.0
O228 O 0.37397 0.91277 0.80748 0.0
O229 O 0.36151 0.86404 0.75277 0.0
O230 O 0.34755 0.88149 0.68996 0.0
O231 O 0.30433 0.84014 0.78181 0.0
H232 H 0.33118 0.81353 0.82527 0.0
H233 H 0.3732 0.89506 0.90347 0.0
O234 O 0.29061 0.86016 0.72176 0.0
O235 O 0.30909 0.91134 0.77319 0.0
O236 O 0.3178 0.88855 0.83504 0.0
C237 C 0.3067 0.90433 0.81875 0.0
H238 H 0.29186 0.94813 0.6104 0.0
H239 H 0.35245 0.80451 0.90766 0.0
Co240 Co 0.42469 0.35388 0.12843 0.0
C241 C 0.46902 0.41116 0.10519 0.0
Co242 Co 0.46086 0.35668 0.08228 0.0
C243 C 0.38019 0.33259 0.20224 0.0
C244 C 0.37761 0.36594 0.15826 0.0
N245 N 0.39325 0.3514 0.16406 0.0
N246 N 0.35712 0.33485 0.22132 0.0
C247 C 0.3554 0.35588 0.19367 0.0
H248 H 0.3879 0.31779 0.2161 0.0
H249 H 0.38239 0.38302 0.13068 0.0
C250 C 0.41836 0.29828 0.10775 0.0
N251 N 0.49202 0.35765 0.04753 0.0
C252 C 0.50456 0.37277 1.00573 0.0
C253 C 0.5067 0.34251 0.05781 0.0
N254 N 0.52637 0.36756 0.98924 0.0
C255 C 0.52777 0.3484 0.02165 0.0
C256 C 0.47351 0.36389 0.18564 0.0
O257 O 0.40535 0.3108 0.1288 0.0
O258 O 0.44313 0.31457 0.08599 0.0
O259 O 0.48385 0.3628 0.14333 0.0
O260 O 0.44588 0.35654 0.18852 0.0
O261 O 0.47868 0.39769 0.07826 0.0
H262 H 0.50199 0.32773 0.08913 0.0
H263 H 0.49709 0.38653 0.98686 0.0
O264 O 0.44464 0.39635 0.12927 0.0
O265 O 0.40406 0.35328 0.06894 0.0
O266 O 0.43865 0.3533 0.02168 0.0
C267 C 0.41426 0.35424 0.02584 0.0
H268 H 0.34026 0.36457 0.20006 0.0
H269 H 0.54273 0.33919 0.0191 0.0
Co270 Co 0.11209 0.46178 0.37186 0.0
C271 C 0.1426 0.45185 0.44664 0.0
Co272 Co 0.12733 0.49685 0.43264 0.0
C273 C 0.07326 0.42645 0.28823 0.0
C274 C 0.11233 0.42173 0.29479 0.0
N275 N 0.09792 0.43441 0.31729 0.0
N276 N 0.07203 0.40978 0.24824 0.0
C277 C 0.09667 0.40676 0.25283 0.0
H278 H 0.05722 0.43396 0.29507 0.0
H279 H 0.13351 0.42411 0.3071 0.0
C280 C 0.10017 0.50865 0.35715 0.0
N281 N 0.13928 0.52486 0.48718 0.0
C282 C 0.12831 0.5216 0.53421 0.0
C283 C 0.16094 0.55415 0.48511 0.0
N284 N 0.14251 0.54757 0.56121 0.0
C285 C 0.16302 0.56789 0.5298 0.0
C286 C 0.16821 0.51266 0.35579 0.0
O287 O 0.09619 0.48367 0.34078 0.0
O288 O 0.11159 0.5178 0.39961 0.0
O289 O 0.16428 0.52107 0.39816 0.0
O290 O 0.1488 0.48682 0.33921 0.0
O291 O 0.14349 0.47549 0.46384 0.0
H292 H 0.17418 0.56524 0.45276 0.0
H293 H 0.11023 0.50055 0.54845 0.0
O294 O 0.12983 0.44109 0.40509 0.0
O295 O 0.07556 0.43733 0.40588 0.0
O296 O 0.09022 0.47201 0.46374 0.0
C297 C 0.07087 0.44631 0.44692 0.0
H298 H 0.10329 0.39486 0.22727 0.0
H299 H 0.17809 0.59148 0.53791 0.0
Co300 Co 0.63244 0.06792 0.78996 0.0
C301 C 0.57524 0.05611 0.77072 0.0
Co302 Co 0.62974 0.10172 0.74444 0.0
C303 C 0.65411 0.0452 0.86422 0.0
C304 C 0.62051 0.00906 0.82103 0.0
N305 N 0.63525 0.03926 0.82604 0.0
N306 N 0.65163 0.01996 0.88417 0.0
C307 C 0.63045 -0.00293 0.85695 0.0
H308 H 0.66898 0.0678 0.87762 0.0
H309 H 0.60323 0.9966 0.79383 0.0
C310 C 0.68814 0.11673 0.76759 0.0
N311 N 0.6283 0.13146 0.70852 0.0
C312 C 0.61378 0.1284 0.66575 0.0
C313 C 0.64256 0.16127 0.7185 0.0
N314 N 0.61848 0.15512 0.64836 0.0
C315 C 0.63665 0.17592 0.68141 0.0
C316 C 0.62403 0.10814 0.84751 0.0
O317 O 0.67531 0.09135 0.78903 0.0
O318 O 0.67211 0.12564 0.74586 0.0
O319 O 0.62526 0.11979 0.80534 0.0
O320 O 0.63046 0.08715 0.84993 0.0
O321 O 0.58853 0.0791 0.74337 0.0
H322 H 0.65674 0.1717 0.75032 0.0
H323 H 0.60076 0.10702 0.647 0.0
O324 O 0.59016 0.04559 0.79198 0.0
O325 O 0.6324 0.04733 0.7309 0.0
O326 O 0.63155 0.08161 0.68403 0.0
C327 C 0.63078 0.05635 0.68798 0.0
H328 H 0.62146 0.97329 0.86412 0.0
H329 H 0.64512 0.19995 0.67887 0.0
Co330 Co 0.55283 0.65506 0.06913 0.0
C331 C 0.53809 0.69916 0.0898 0.0
Co332 Co 0.52062 0.64383 0.13397 0.0
C333 C 0.57569 0.64134 0.97627 0.0
C334 C 0.60333 0.68682 1.00063 0.0
N335 N 0.57799 0.66114 1.01236 0.0
N336 N 0.59856 0.65372 0.94249 0.0
C337 C 0.61583 0.68243 0.9585 0.0
H338 H 0.55748 0.6182 0.97499 0.0
H339 H 0.61244 0.70746 0.02179 0.0
C340 C 0.53861 0.6029 0.11895 0.0
N341 N 0.4941 0.63465 0.19015 0.0
C342 C 0.49016 0.61831 0.2323 0.0
C343 C 0.47255 0.64238 0.19323 0.0
N344 N 0.46713 0.6158 0.26135 0.0
C345 C 0.45629 0.63111 0.23611 0.0
C346 C 0.49151 0.62394 0.04475 0.0
O347 O 0.55171 0.61844 0.08091 0.0
O348 O 0.52167 0.60894 0.14478 0.0
O349 O 0.48686 0.6235 0.091 0.0
O350 O 0.51841 0.63618 0.02848 0.0
O351 O 0.52128 0.68011 0.12213 0.0
H352 H 0.4683 0.65488 0.16529 0.0
H353 H 0.50379 0.60824 0.24124 0.0
O354 O 0.55426 0.69315 0.0611 0.0
O355 O 0.58641 0.67366 0.11189 0.0
O356 O 0.55514 0.66452 0.17439 0.0
C357 C 0.58194 0.67529 0.1578 0.0
H358 H 0.6366 0.69936 0.94174 0.0
H359 H 0.43716 0.63338 0.2468 0.0
H360 H 0.39934 0.11847 0.10765 0.0
H361 H 0.44356 0.1697 0.23848 0.0
H362 H 0.38462 0.15598 0.08588 0.0
H363 H 0.4284 0.20646 0.21737 0.0
H364 H 0.42693 0.26229 0.0443 0.0
H365 H 0.42102 0.21295 0.06251 0.0
H366 H 0.38097 0.21229 0.20291 0.0
H367 H 0.38644 0.26165 0.18431 0.0
C368 C 0.40542 0.13741 0.13209 0.0
C369 C 0.42289 0.14147 0.17437 0.0
C370 C 0.39695 0.15872 0.11974 0.0
C371 C 0.40517 0.18388 0.15023 0.0
C372 C 0.42136 0.18702 0.19367 0.0
C373 C 0.43035 0.16618 0.2054 0.0
C374 C 0.41589 0.25111 0.07829 0.0
C375 C 0.40743 0.26582 0.11318 0.0
C376 C 0.41236 0.22282 0.08857 0.0
C377 C 0.4008 0.20904 0.13425 0.0
C378 C 0.39003 0.2226 0.16747 0.0
C379 C 0.39305 0.25072 0.15677 0.0
H380 H 0.24637 0.42366 0.66961 0.0
H381 H 0.28438 0.4199 0.52975 0.0
H382 H 0.20097 0.41624 0.62807 0.0
H383 H 0.24021 0.41506 0.48736 0.0
H384 H 0.15819 0.40954 0.41739 0.0
H385 H 0.18934 0.39388 0.4635 0.0
H386 H 0.19327 0.45037 0.58534 0.0
H387 H 0.16159 0.4644 0.54107 0.0
C388 C 0.24471 0.42078 0.62995 0.0
C389 C 0.26885 0.42266 0.60277 0.0
C390 C 0.21887 0.41686 0.60594 0.0
C391 C 0.2172 0.41611 0.55403 0.0
C392 C 0.24046 0.41548 0.52725 0.0
C393 C 0.26592 0.41839 0.55151 0.0
C394 C 0.16522 0.41792 0.45451 0.0
C395 C 0.15774 0.43852 0.47524 0.0
C396 C 0.18325 0.40916 0.48084 0.0
C397 C 0.19408 0.42087 0.52831 0.0
C398 C 0.18511 0.44023 0.54952 0.0
C399 C 0.16712 0.44872 0.5236 0.0
H400 H 0.87409 0.26763 0.76423 0.0
H401 H 0.82967 0.26201 0.90244 0.0
H402 H 0.83229 0.21773 0.74099 0.0
H403 H 0.7886 0.21223 0.87984 0.0
H404 H 0.72557 0.11664 0.83905 0.0
H405 H 0.7768 0.15727 0.85686 0.0
H406 H 0.77548 0.20401 0.72531 0.0
H407 H 0.72419 0.16381 0.70786 0.0
C408 C 0.85579 0.25541 0.79002 0.0
C409 C 0.85485 0.26865 0.83488 0.0
C410 C 0.83198 0.22699 0.77676 0.0
C411 C 0.80742 0.2112 0.80879 0.0
C412 C 0.80747 0.22378 0.85479 0.0
C413 C 0.83081 0.25235 0.86751 0.0
C414 C 0.73656 0.13517 0.81321 0.0
C415 C 0.72085 0.13733 0.77241 0.0
C416 C 0.76579 0.15837 0.82347 0.0
C417 C 0.7799 0.18371 0.79252 0.0
C418 C 0.76515 0.18458 0.74949 0.0
C419 C 0.73576 0.16169 0.73972 0.0
H420 H 0.59106 0.75265 0.09106 0.0
H421 H 0.49463 0.7136 0.10274 0.0
H422 H 0.59813 0.79806 0.13396 0.0
H423 H 0.50166 0.75868 0.14508 0.0
H424 H 0.58003 0.87868 0.1974 0.0
H425 H 0.58142 0.84332 0.13756 0.0
H426 H 0.52739 0.76932 0.23555 0.0
H427 H 0.52612 0.80413 0.29521 0.0
C428 C 0.57144 0.7545 0.10024 0.0
C429 C 0.54229 0.72969 0.09386 0.0
C430 C 0.5755 0.7803 0.12522 0.0
C431 C 0.55041 0.78136 0.14374 0.0
C432 C 0.52133 0.75811 0.13178 0.0
C433 C 0.5173 0.73249 0.10707 0.0
C434 C 0.56915 0.85495 0.20671 0.0
C435 C 0.55266 0.84416 0.25088 0.0
C436 C 0.56984 0.8348 0.17232 0.0
C437 C 0.55385 0.80367 0.1816 0.0
C438 C 0.53933 0.79322 0.22717 0.0
C439 C 0.53882 0.81321 0.26149 0.0
H440 H 0.69557 0.50444 0.54657 0.0
H441 H 0.72472 0.59208 0.4821 0.0
H442 H 0.74306 0.5081 0.52396 0.0
H443 H 0.77306 0.5957 0.45969 0.0
H444 H 0.86549 0.59225 0.48935 0.0
H445 H 0.82006 0.59513 0.50848 0.0
H446 H 0.76529 0.50955 0.43623 0.0
H447 H 0.81012 0.50659 0.41685 0.0
C448 C 0.71218 0.52464 0.5278 0.0
C449 C 0.70626 0.54793 0.51585 0.0
C450 C 0.73937 0.52662 0.51475 0.0
C451 C 0.7615 0.55204 0.48981 0.0
C452 C 0.75622 0.57589 0.479 0.0
C453 C 0.72862 0.57375 0.49161 0.0
C454 C 0.84374 0.57421 0.47727 0.0
C455 C 0.84135 0.54907 0.45199 0.0
C456 C 0.81788 0.57599 0.4879 0.0
C457 C 0.78933 0.5525 0.47395 0.0
C458 C 0.78709 0.52785 0.44763 0.0
C459 C 0.81279 0.5262 0.43658 0.0
H460 H 0.23166 0.83733 0.75019 0.0
H461 H 0.27089 0.78006 0.76401 0.0
H462 H 0.18675 0.79984 0.79476 0.0
H463 H 0.22624 0.7428 0.80803 0.0
H464 H 0.182 0.72348 0.95849 0.0
H465 H 0.21649 0.75848 0.89749 0.0
H466 H 0.14175 0.73954 0.80188 0.0
H467 H 0.10674 0.70395 0.86301 0.0
C468 C 0.22993 0.81601 0.76019 0.0
C469 C 0.2547 0.81154 0.75407 0.0
C470 C 0.20442 0.79477 0.78615 0.0
C471 C 0.20362 0.76901 0.80586 0.0
C472 C 0.22669 0.76285 0.79393 0.0
C473 C 0.25204 0.78395 0.76823 0.0
C474 C 0.17271 0.72715 0.92504 0.0
C475 C 0.14165 0.71061 0.91539 0.0
C476 C 0.19251 0.74698 0.88993 0.0
C477 C 0.18171 0.75092 0.84458 0.0
C478 C 0.15053 0.73651 0.83641 0.0
C479 C 0.13058 0.71636 0.87156 0.0
H480 H 0.58134 0.12576 0.84478 0.0
H481 H 0.62816 0.09895 0.94689 0.0
H482 H 0.54841 0.12446 0.91147 0.0
H483 H 0.59579 0.09858 1.01397 0.0
H484 H 0.54819 0.12826 0.13027 0.0
H485 H 0.58264 0.13336 0.06355 0.0
H486 H 0.50693 0.08365 0.96656 0.0
H487 H 0.47228 0.07785 0.03383 0.0
C488 C 0.58528 0.12046 0.88172 0.0
C489 C 0.60802 0.11302 0.89023 0.0
C490 C 0.56602 0.1193 0.91999 0.0
C491 C 0.56919 0.11135 0.96849 0.0
C492 C 0.59265 0.10502 0.97738 0.0
C493 C 0.61141 0.10539 0.93883 0.0
C494 C 0.53875 0.11856 0.09468 0.0
C495 C 0.5072 0.10271 0.08784 0.0
C496 C 0.55863 0.12133 0.05633 0.0
C497 C 0.54781 0.10896 1.00927 0.0
C498 C 0.51628 0.09372 1.002 0.0
C499 C 0.49632 0.09034 0.04075 0.0
H500 H 0.43096 0.62301 0.32815 0.0
H501 H 0.47547 0.5714 0.30323 0.0
H502 H 0.40785 0.59434 0.4022 0.0
H503 H 0.45332 0.54342 0.37933 0.0
H504 H 0.3865 0.47666 0.49129 0.0
H505 H 0.41015 0.50619 0.41789 0.0
H506 H 0.41063 0.58312 0.48444 0.0
H507 H 0.38594 0.5529 0.55795 0.0
C508 C 0.43601 0.60555 0.33816 0.0
C509 C 0.4551 0.59962 0.30816 0.0
C510 C 0.42286 0.58915 0.38174 0.0
C511 C 0.4282 0.56602 0.39786 0.0
C512 C 0.44786 0.56048 0.36847 0.0
C513 C 0.46103 0.57692 0.32461 0.0
C514 C 0.39145 0.49987 0.49052 0.0
C515 C 0.38398 0.5121 0.53129 0.0
C516 C 0.40549 0.5171 0.44805 0.0
C517 C 0.41295 0.54756 0.44418 0.0
C518 C 0.40519 0.55979 0.48489 0.0
C519 C 0.39095 0.54239 0.52754 0.0
H520 H 0.85545 0.37888 0.75322 0.0
H521 H 0.94781 0.407 0.71665 0.0
H522 H 0.85371 0.40972 0.68528 0.0
H523 H 0.94627 0.43841 0.64992 0.0
H524 H 0.94142 0.51968 0.58029 0.0
H525 H 0.94079 0.48665 0.64614 0.0
H526 H 0.85834 0.4134 0.58775 0.0
H527 H 0.8594 0.44623 0.52076 0.0
C528 C 0.87531 0.3914 0.73052 0.0
C529 C 0.90172 0.39018 0.74056 0.0
C530 C 0.8743 0.40913 0.69152 0.0
C531 C 0.89991 0.42682 0.66218 0.0
C532 C 0.92619 0.42534 0.67191 0.0
C533 C 0.92697 0.40708 0.71006 0.0
C534 C 0.92298 0.49661 0.58155 0.0
C535 C 0.90042 0.48579 0.54498 0.0
C536 C 0.92276 0.47756 0.61922 0.0
C537 C 0.89959 0.44722 0.62233 0.0
C538 C 0.8765 0.43661 0.58669 0.0
C539 C 0.87712 0.45547 0.54822 0.0
H540 H 0.409 0.90489 0.96699 0.0
H541 H 0.36219 0.80851 0.98908 0.0
H542 H 0.43621 0.91163 0.04422 0.0
H543 H 0.39021 0.81507 0.06426 0.0
H544 H 0.42911 0.83469 0.22111 0.0
H545 H 0.39923 0.82859 0.14696 0.0
H546 H 0.47453 0.90789 0.0838 0.0
H547 H 0.50366 0.91434 0.15793 0.0
C548 C 0.40438 0.88506 0.98798 0.0
C549 C 0.38326 0.8561 0.97045 0.0
C550 C 0.42038 0.88888 0.03249 0.0
C551 C 0.41597 0.86392 0.0614 0.0
C552 C 0.39442 0.83507 0.04418 0.0
C553 C 0.37842 0.83127 0.99996 0.0
C554 C 0.43928 0.85081 0.19139 0.0
C555 C 0.469 0.87503 0.19622 0.0
C556 C 0.42212 0.84728 0.14836 0.0
C557 C 0.43404 0.86778 0.10835 0.0
C558 C 0.46387 0.89184 0.11341 0.0
C559 C 0.48088 0.8954 0.1563 0.0
H560 H 0.46012 0.36167 0.2846 0.0
H561 H 0.53399 0.40612 0.18233 0.0
H562 H 0.49206 0.39488 0.35071 0.0
H563 H 0.5657 0.43989 0.24821 0.0
H564 H 0.59778 0.51705 0.37024 0.0
H565 H 0.56849 0.48274 0.30258 0.0
H566 H 0.5384 0.40675 0.40057 0.0
H567 H 0.5678 0.44057 0.46731 0.0
C568 C 0.48335 0.3781 0.27631 0.0
C569 C 0.49444 0.38053 0.22796 0.0
C570 C 0.50171 0.39737 0.31431 0.0
C571 C 0.53163 0.42039 0.30516 0.0
C572 C 0.54283 0.42267 0.2569 0.0
C573 C 0.52469 0.40289 0.21915 0.0
C574 C 0.58514 0.49302 0.37727 0.0
C575 C 0.58548 0.48186 0.42468 0.0
C576 C 0.56834 0.47325 0.33833 0.0
C577 C 0.5508 0.44175 0.34581 0.0
C578 C 0.55127 0.43073 0.39316 0.0
C579 C 0.56842 0.45031 0.43159 0.0
H580 H 0.06622 0.58585 0.8219 0.0
H581 H 0.15614 0.61079 0.86905 0.0
H582 H 0.07505 0.56878 0.74311 0.0
H583 H 0.16495 0.5932 0.79006 0.0
H584 H 0.18262 0.59083 0.62352 0.0
H585 H 0.17351 0.60458 0.70484 0.0
H586 H 0.08122 0.53205 0.69824 0.0
H587 H 0.09029 0.51877 0.61556 0.0
C588 C 0.08793 0.58756 0.81576 0.0
C589 C 0.11044 0.59993 0.85253 0.0
C590 C 0.09294 0.57746 0.77023 0.0
C591 C 0.12078 0.57937 0.75922 0.0
C592 C 0.14328 0.59154 0.79623 0.0
C593 C 0.13819 0.60156 0.84201 0.0
C594 C 0.16027 0.57774 0.63905 0.0
C595 C 0.13717 0.55375 0.61192 0.0
C596 C 0.15509 0.5855 0.68646 0.0
C597 C 0.12652 0.56971 0.70907 0.0
C598 C 0.10349 0.54523 0.68239 0.0
C599 C 0.10875 0.53731 0.63484 0.0
H600 H 0.30961 0.95889 0.81113 0.0
H601 H 0.28177 0.88261 0.9081 0.0
H602 H 0.31146 0.98978 0.8812 0.0
H603 H 0.28392 0.91319 0.97775 0.0
H604 H 0.38074 0.02965 1.01513 0.0
H605 H 0.35248 0.00652 0.94062 0.0
H606 H 0.27471 0.94674 0.02812 0.0
H607 H 0.30343 0.96989 0.10308 0.0
C608 C 0.3025 0.94836 0.847 0.0
C609 C 0.29636 0.91868 0.85471 0.0
C610 C 0.30375 0.96609 0.88714 0.0
C611 C 0.29871 0.9542 0.93518 0.0
C612 C 0.28805 0.9232 0.94138 0.0
C613 C 0.287 0.90561 0.90144 0.0
C614 C 0.35731 0.01232 1.01849 0.0
C615 C 0.34456 0.00092 0.06484 0.0
C616 C 0.34093 -0.00085 0.97566 0.0
C617 C 0.31144 0.97439 0.97845 0.0
C618 C 0.29757 0.96539 0.02485 0.0
C619 C 0.31406 0.97846 0.0677 0.0
H620 H 0.37711 0.31402 0.29613 0.0
H621 H 0.30338 0.32741 0.25236 0.0
H622 H 0.36161 0.3095 0.38064 0.0
H623 H 0.28758 0.32258 0.3383 0.0
H624 H 0.33546 0.39394 0.46486 0.0
H625 H 0.32047 0.36618 0.38929 0.0
H626 H 0.33071 0.29494 0.45541 0.0
H627 H 0.34528 0.32289 0.53316 0.0
C628 C 0.35679 0.31474 0.304 0.0
C629 C 0.34236 0.32265 0.26764 0.0
C630 C 0.34766 0.3118 0.35292 0.0
C631 C 0.32405 0.31681 0.36627 0.0
C632 C 0.30647 0.31952 0.32899 0.0
C633 C 0.31571 0.32263 0.27992 0.0
C634 C 0.33359 0.37194 0.46444 0.0
C635 C 0.34203 0.36092 0.50525 0.0
C636 C 0.32462 0.35574 0.42078 0.0
C637 C 0.32423 0.32822 0.41634 0.0
C638 C 0.33085 0.31614 0.45788 0.0
C639 C 0.33963 0.33236 0.50208 0.0
H640 H 0.04793 0.46008 0.52638 0.0
H641 H 0.04186 0.38467 0.44453 0.0
H642 H 0.02432 0.42723 0.59698 0.0
H643 H 0.01801 0.35177 0.51581 0.0
H644 H 0.04497 0.38174 0.7219 0.0
H645 H 0.05802 0.4008 0.6382 0.0
H646 H 0.96817 0.33689 0.58936 0.0
H647 H 0.95491 0.31717 0.67365 0.0
C648 C 0.0405 0.43627 0.52281 0.0
C649 C 0.04722 0.42503 0.4804 0.0
C650 C 0.02717 0.41758 0.56323 0.0
C651 C 0.0202 0.38738 0.56168 0.0
C652 C 0.02348 0.37513 0.51752 0.0
C653 C 0.03691 0.39392 0.47681 0.0
C654 C 0.02828 0.37082 0.69324 0.0
C655 C -0.00129 0.34837 0.70457 0.0
C656 C 0.03569 0.38196 0.64544 0.0
C657 C 0.01378 0.37065 0.60819 0.0
C658 C 0.98522 0.34602 0.61793 0.0
C659 C 0.97773 0.33488 0.66597 0.0
H660 H 0.58729 0.94312 0.12711 0.0
H661 H 0.66036 0.0215 0.19742 0.0
H662 H 0.6157 0.95481 0.05234 0.0
H663 H 0.68883 0.03394 0.12023 0.0
H664 H 0.67308 0.06177 0.95772 0.0
H665 H 0.67593 0.05124 0.04318 0.0
H666 H 0.66043 0.96265 1.00497 0.0
H667 H 0.65743 0.97317 0.91812 0.0
C668 C 0.60978 0.96246 0.12732 0.0
C669 C 0.62131 0.98145 0.16862 0.0
C670 C 0.62632 0.96905 0.08412 0.0
C671 C 0.65471 0.99513 0.08049 0.0
C672 C 0.66702 0.01358 0.1222 0.0
C673 C 0.6505 0.00671 0.16606 0.0
C674 C 0.6715 0.04045 0.96673 0.0
C675 C 0.66336 0.01762 0.93115 0.0
C676 C 0.67348 0.03454 1.01619 0.0
C677 C 0.66727 0.00572 0.03079 0.0
C678 C 0.66445 0.98481 0.99457 0.0
C679 C 0.66237 0.99069 0.94496 0.0
H680 H 0.66853 0.68639 0.4336 0.0
H681 H 0.64188 0.60383 0.35344 0.0
H682 H 0.66641 0.71066 0.35748 0.0
H683 H 0.64032 0.62817 0.27769 0.0
H684 H 0.63263 0.6712 0.14625 0.0
H685 H 0.66349 0.66919 0.21322 0.0
H686 H 0.61695 0.69609 0.31638 0.0
H687 H 0.58613 0.69788 0.24982 0.0
C688 C 0.6629 0.67363 0.39963 0.0
C689 C 0.65443 0.64289 0.39985 0.0
C690 C 0.66197 0.68762 0.35605 0.0
C691 C 0.65283 0.6712 0.31188 0.0
C692 C 0.6477 0.64152 0.31112 0.0
C693 C 0.64845 0.62747 0.35473 0.0
C694 C 0.62996 0.67798 0.1829 0.0
C695 C 0.60669 0.68418 0.19321 0.0
C696 C 0.64752 0.67667 0.22119 0.0
C697 C 0.6423 0.68203 0.27001 0.0
C698 C 0.62161 0.69196 0.27912 0.0
C699 C 0.6038 0.69283 0.24105 0.0
H700 H 0.95152 0.61804 0.86013 0.0
H701 H 0.04477 0.67389 0.81708 0.0
H702 H 0.93575 0.62675 0.7804 0.0
H703 H 0.02908 0.68029 0.73638 0.0
H704 H 0.93145 0.58887 0.62373 0.0
H705 H 0.93744 0.60176 0.70917 0.0
H706 H 0.00552 0.69328 0.67365 0.0
H707 H -0.00048 0.67997 0.58614 0.0
C708 C 0.96871 0.63251 0.83415 0.0
C709 C -0.00056 0.6439 0.8442 0.0
C710 C 0.95965 0.63742 0.78825 0.0
C711 C 0.9811 0.65315 0.75125 0.0
C712 C 0.01182 0.66774 0.7636 0.0
C713 C 0.02087 0.66338 0.80976 0.0
C714 C 0.94702 0.61207 0.63338 0.0
C715 C 0.96539 0.63326 0.5978 0.0
C716 C 0.95033 0.6196 0.68298 0.0
C717 C 0.97216 0.64856 0.69861 0.0
C718 C 0.98884 0.6706 0.66284 0.0
C719 C 0.98555 0.66297 0.6128 0.0
H720 H 0.48107 0.06415 0.33797 0.0
H721 H 0.44517 0.98895 0.23687 0.0
H722 H 0.47233 0.03061 0.40659 0.0
H723 H 0.43692 0.9552 0.30545 0.0
H724 H 0.52959 0.97803 0.39568 0.0
H725 H 0.50715 0.0093 0.40931 0.0
H726 H 0.41837 0.93164 0.39278 0.0
H727 H 0.44086 0.89983 0.38137 0.0
C728 C 0.47186 0.0405 0.3302 0.0
C729 C 0.46586 0.02934 0.28159 0.0
C730 C 0.46572 0.0212 0.36989 0.0
C731 C 0.45422 0.99043 0.3616 0.0
C732 C 0.44565 0.97888 0.31337 0.0
C733 C 0.45137 -0.00178 0.27371 0.0
C734 C 0.50524 0.9675 0.39703 0.0
C735 C 0.48682 0.93735 0.3834 0.0
C736 C 0.49221 0.98517 0.40618 0.0
C737 C 0.46124 0.97303 0.3969 0.0
C738 C 0.44253 0.94158 0.39726 0.0
C739 C 0.45544 0.92358 0.38933 0.0
H740 H 0.44125 0.54511 0.70521 0.0
H741 H 0.43636 0.45884 0.72219 0.0
H742 H 0.49599 0.57049 0.71212 0.0
H743 H 0.49047 0.48392 0.73089 0.0
H744 H 0.53892 0.5505 0.56532 0.0
H745 H 0.50971 0.55733 0.6297 0.0
H746 H 0.54475 0.52032 0.73732 0.0
H747 H 0.57232 0.51196 0.67253 0.0
C748 C 0.45186 0.53174 0.71263 0.0
C749 C 0.43545 0.50013 0.70955 0.0
C750 C 0.48305 0.5463 0.71765 0.0
C751 C 0.4974 0.52904 0.71864 0.0
C752 C 0.48011 0.49786 0.72803 0.0
C753 C 0.44913 0.48329 0.72187 0.0
C754 C 0.54013 0.54377 0.60273 0.0
C755 C 0.55577 0.52859 0.61346 0.0
C756 C 0.52438 0.54864 0.64004 0.0
C757 C 0.52451 0.53866 0.68851 0.0
C758 C 0.54384 0.52764 0.70019 0.0
C759 C 0.55872 0.52192 0.66275 0.0
H760 H 0.99316 0.40612 0.95114 0.0
H761 H 0.95032 0.45747 0.91134 0.0
H762 H 0.0143 0.43708 0.0247 0.0
H763 H 0.97243 0.48944 0.98223 0.0
H764 H 0.00943 0.55254 0.06125 0.0
H765 H 0.9776 0.49808 0.07007 0.0
H766 H 0.0538 0.48688 0.0359 0.0
H767 H 0.08586 0.54091 0.03117 0.0
C768 C 0.98917 0.42476 0.95743 0.0
C769 C 0.97114 0.43039 0.92505 0.0
C770 C 0.00054 0.44188 1.00012 0.0
C771 C 0.99471 0.46541 1.01024 0.0
C772 C 0.97674 0.47093 0.97709 0.0
C773 C 0.96494 0.45346 0.93523 0.0
C774 C 0.01947 0.53832 0.05787 0.0
C775 C 0.04913 0.55008 0.04119 0.0
C776 C 0.00153 0.50728 0.06395 0.0
C777 C 0.01265 0.48862 0.04736 0.0
C778 C 0.04403 0.50079 0.04504 0.0
C779 C 0.0624 0.53184 0.04115 0.0
H780 H 0.0709 0.49405 0.26812 0.0
H781 H 0.11283 0.56613 0.37473 0.0
H782 H 0.04258 0.51679 0.23543 0.0
H783 H 0.08445 0.58826 0.34291 0.0
H784 H 0.00508 0.58726 0.37496 0.0
H785 H 0.04544 0.59594 0.31838 0.0
H786 H 0.00412 0.49937 0.29677 0.0
H787 H 0.96322 0.49128 0.35051 0.0
C788 C 0.0746 0.51512 0.28378 0.0
C789 C 0.09145 0.52682 0.32717 0.0
C790 C 0.05894 0.52854 0.26432 0.0
C791 C 0.05848 0.55192 0.29088 0.0
C792 C 0.08216 0.56852 0.32424 0.0
C793 C 0.098 0.55541 0.34361 0.0
C794 C 0.00483 0.56797 0.358 0.0
C795 C 0.9822 0.53841 0.36933 0.0
C796 C 0.02753 0.573 0.32468 0.0
C797 C 0.02887 0.54848 0.3042 0.0
C798 C 0.00437 0.51908 0.31187 0.0
C799 C 0.98126 0.51416 0.34408 0.0
H800 H 0.4074 0.98623 0.72522 0.0
H801 H 0.40191 0.95255 0.8732 0.0
H802 H 0.45336 0.03181 0.74666 0.0
H803 H 0.44788 -0.00128 0.89512 0.0
H804 H 0.53794 0.00689 0.82503 0.0
H805 H 0.48782 0.9928 0.85327 0.0
H806 H 0.49591 0.07388 0.78864 0.0
H807 H 0.54597 0.08764 0.75922 0.0
C808 C 0.41562 0.98906 0.76275 0.0
C809 C 0.40289 0.96525 0.79649 0.0
C810 C 0.44154 0.01553 0.77559 0.0
C811 C 0.45497 0.01778 0.82181 0.0
C812 C 0.43842 -0.00322 0.85866 0.0
C813 C 0.4127 0.97011 0.8457 0.0
C814 C 0.52901 0.02168 0.81698 0.0
C815 C 0.54496 0.04731 0.78765 0.0
C816 C 0.50067 0.01421 0.83447 0.0
C817 C 0.4879 0.03227 0.82271 0.0
C818 C 0.50522 0.05954 0.79777 0.0
C819 C 0.53343 0.06685 0.77981 0.0
H820 H 0.5145 0.56663 0.19843 0.0
H821 H 0.58176 0.59098 0.08439 0.0
H822 H 0.5185 0.5232 0.2184 0.0
H823 H 0.58659 0.5473 0.10573 0.0
H824 H 0.50619 0.45596 0.04494 0.0
H825 H 0.54523 0.50576 0.06876 0.0
H826 H 0.52445 0.48148 0.22283 0.0
H827 H 0.48357 0.43214 0.19771 0.0
C828 C 0.53055 0.56286 0.17807 0.0
C829 C 0.54565 0.58023 0.1367 0.0
C830 C 0.53362 0.53831 0.19053 0.0
C831 C 0.55089 0.53035 0.16032 0.0
C832 C 0.57151 0.55193 0.12723 0.0
C833 C 0.56817 0.57639 0.11414 0.0
C834 C 0.50976 0.46172 0.08376 0.0
C835 C 0.49073 0.44161 0.11944 0.0
C836 C 0.53289 0.48983 0.09783 0.0
C837 C 0.53747 0.49811 0.14805 0.0
C838 C 0.52076 0.47622 0.18388 0.0
C839 C 0.49693 0.44842 0.1696 0.0
H840 H 0.33487 -0.0021 0.58044 0.0
H841 H 0.36448 0.9365 0.53314 0.0
H842 H 0.35752 0.02887 0.50678 0.0
H843 H 0.38652 0.96712 0.4584 0.0
H844 H 0.38342 0.00894 0.30422 0.0
H845 H 0.36444 0.98022 0.38049 0.0
H846 H 0.41102 0.06241 0.46461 0.0
H847 H 0.43117 0.09132 0.3878 0.0
C848 C 0.34625 0.99098 0.55432 0.0
C849 C 0.34769 0.96452 0.56301 0.0
C850 C 0.35942 0.0089 0.51206 0.0
C851 C 0.37385 0.00062 0.47615 0.0
C852 C 0.37549 0.97423 0.48493 0.0
C853 C 0.36299 0.95671 0.52798 0.0
C854 C 0.38943 0.02115 0.33878 0.0
C855 C 0.40851 0.05279 0.3392 0.0
C856 C 0.37876 0.00447 0.3828 0.0
C857 C 0.38607 0.01878 0.42913 0.0
C858 C 0.4047 0.0505 0.42976 0.0
C859 C 0.41617 0.06717 0.38559 0.0
H860 H 0.3682 0.36701 0.02728 0.0
H861 H 0.42802 0.35739 0.92624 0.0
H862 H 0.34779 0.38268 0.9596 0.0
H863 H 0.4072 0.37284 0.85811 0.0
H864 H 0.34432 0.37503 0.74008 0.0
H865 H 0.36055 0.35635 0.80921 0.0
H866 H 0.36315 0.42608 0.90203 0.0
H867 H 0.34716 0.44526 0.83212 0.0
C868 C 0.37682 0.36781 0.99051 0.0
C869 C 0.39978 0.36059 0.98259 0.0
C870 C 0.3652 0.37715 0.95159 0.0
C871 C 0.37576 0.37923 0.90306 0.0
C872 C 0.39822 0.37132 0.89481 0.0
C873 C 0.4102 0.36238 0.93397 0.0
C874 C 0.3478 0.38624 0.77534 0.0
C875 C 0.34412 0.41174 0.78008 0.0
C876 C 0.35752 0.37562 0.81506 0.0
C877 C 0.36363 0.38978 0.86141 0.0
C878 C 0.35861 0.41442 0.86704 0.0
C879 C 0.34921 0.42537 0.82691 0.0
H880 H 0.97488 0.32766 0.97299 0.0
H881 H 0.92583 0.368 0.03527 0.0
H882 H 0.00706 0.34236 0.04571 0.0
H883 H 0.95886 0.38415 0.10692 0.0
H884 H 0.01284 0.39567 0.2488 0.0
H885 H 0.97688 0.37638 0.18046 0.0
H886 H 0.04686 0.38161 0.08486 0.0
H887 H 0.08204 0.39974 0.15324 0.0
C888 C 0.97063 0.33934 1.00248 0.0
C889 C 0.94725 0.34614 0.99793 0.0
C890 C 0.98958 0.34837 0.04426 0.0
C891 C 0.98633 0.36509 0.08299 0.0
C892 C 0.96228 0.37108 0.07894 0.0
C893 C 0.94308 0.36168 0.03743 0.0
C894 C 0.02053 0.39271 0.21317 0.0
C895 C 0.05053 0.39911 0.20725 0.0
C896 C -0.00019 0.38164 0.17352 0.0
C897 C 0.00836 0.37685 0.12619 0.0
C898 C 0.0386 0.38387 0.12041 0.0
C899 C 0.05912 0.39456 0.16004 0.0
H900 H 0.6174 -0.00267 0.68928 0.0
H901 H 0.62773 0.06712 0.58848 0.0
H902 H 0.60164 0.96134 0.62139 0.0
H903 H 0.61223 0.03096 0.52017 0.0
H904 H 0.60986 0.96588 0.40199 0.0
H905 H 0.62887 0.00044 0.47159 0.0
H906 H 0.55806 0.93399 0.56333 0.0
H907 H 0.53851 0.89922 0.49297 0.0
C908 C 0.61672 0.00523 0.65253 0.0
C909 C 0.62416 0.03548 0.64471 0.0
C910 C 0.60735 0.98434 0.6135 0.0
C911 C 0.60548 0.99297 0.56499 0.0
C912 C 0.61359 0.0234 0.55686 0.0
C913 C 0.62253 0.04425 0.59612 0.0
C914 C 0.5985 0.95819 0.43713 0.0
C915 C 0.57256 0.92938 0.44142 0.0
C916 C 0.60931 0.97834 0.4771 0.0
C917 C 0.59489 0.9704 0.52324 0.0
C918 C 0.56989 0.941 0.52849 0.0
C919 C 0.55875 0.92088 0.48811 0.0
H920 H 0.57188 0.59353 0.91618 0.0
H921 H 0.63869 0.68242 0.86711 0.0
H922 H 0.58243 0.57172 0.8437 0.0
H923 H 0.65 0.6608 0.79695 0.0
H924 H 0.64599 0.61861 0.64692 0.0
H925 H 0.6353 0.63925 0.71992 0.0
H926 H 0.61512 0.55881 0.80124 0.0
H927 H 0.62517 0.53783 0.72721 0.0
C928 C 0.58884 0.60859 0.89039 0.0
C929 C 0.60431 0.64008 0.89885 0.0
C930 C 0.59521 0.59593 0.84859 0.0
C931 C 0.61725 0.61419 0.81334 0.0
C932 C 0.63255 0.64559 0.82199 0.0
C933 C 0.6262 0.65817 0.8634 0.0
C934 C 0.63984 0.60541 0.68048 0.0
C935 C 0.63705 0.57654 0.68053 0.0
C936 C 0.63359 0.61736 0.72294 0.0
C937 C 0.62425 0.60106 0.76773 0.0
C938 C 0.62186 0.57227 0.76797 0.0
C939 C 0.62815 0.5603 0.72534 0.0
H940 H 0.08694 0.63604 0.15818 0.0
H941 H 0.02471 0.64871 0.06769 0.0
H942 H 0.05096 0.62068 0.22728 0.0
H943 H 0.98884 0.63226 0.13543 0.0
H944 H 0.92153 0.55488 0.24819 0.0
H945 H 0.95908 0.57675 0.18188 0.0
H946 H 0.02119 0.64513 0.28153 0.0
H947 H 0.98347 0.62441 0.34707 0.0
C948 C 0.06608 0.63629 0.15318 0.0
C949 C 0.05909 0.64387 0.10698 0.0
C950 C 0.04529 0.62719 0.19267 0.0
C951 C 0.01679 0.62483 0.18662 0.0
C952 C 0.01036 0.63346 0.14122 0.0
C953 C 0.03122 0.64317 0.10239 0.0
C954 C 0.94282 0.57508 0.25569 0.0
C955 C 0.94903 0.58796 0.30317 0.0
C956 C 0.96449 0.58746 0.21777 0.0
C957 C 0.99332 0.61252 0.22655 0.0
C958 C -0.00063 0.62572 0.27359 0.0
C959 C 0.97744 0.61395 0.31103 0.0
H960 H 0.56247 0.20849 0.37938 0.0
H961 H 0.55696 0.12251 0.35511 0.0
H962 H 0.58389 0.21122 0.46177 0.0
H963 H 0.57802 0.12508 0.43652 0.0
H964 H 0.56722 0.11625 0.60139 0.0
H965 H 0.5519 0.12179 0.51906 0.0
H966 H 0.62969 0.21101 0.5083 0.0
H967 H 0.64548 0.20531 0.59102 0.0
C968 C 0.56654 0.19063 0.39127 0.0
C969 C 0.55762 0.16503 0.36166 0.0
C970 C 0.57864 0.19212 0.43819 0.0
C971 C 0.58184 0.168 0.4556 0.0
C972 C 0.57504 0.1436 0.42431 0.0
C973 C 0.56307 0.14214 0.37783 0.0
C974 C 0.58112 0.13702 0.58155 0.0
C975 C 0.60783 0.16008 0.60227 0.0
C976 C 0.57232 0.14023 0.53453 0.0
C977 C 0.58997 0.16661 0.50724 0.0
C978 C 0.6158 0.19045 0.52875 0.0
C979 C 0.62473 0.18718 0.576 0.0
H980 H 0.3796 0.59417 0.78775 0.0
H981 H 0.34188 0.50841 0.86203 0.0
H982 H 0.41072 0.61907 0.86011 0.0
H983 H 0.37313 0.53304 0.93411 0.0
H984 H 0.43067 0.59018 0.06353 0.0
H985 H 0.38951 0.57141 1.00316 0.0
H986 H 0.45457 0.61325 0.88606 0.0
H987 H 0.49529 0.63174 0.94551 0.0
C988 C 0.37715 0.58086 0.82024 0.0
C989 C 0.35871 0.54938 0.81926 0.0
C990 C 0.39514 0.595 0.86143 0.0
C991 C 0.39472 0.57788 0.90234 0.0
C992 C 0.37393 0.54683 0.90321 0.0
C993 C 0.35616 0.53271 0.86194 0.0
C994 C 0.43608 0.59539 0.02489 0.0
C995 C 0.46624 0.6122 1.00927 0.0
C996 C 0.41256 0.58476 0.99045 0.0
C997 C 0.41884 0.59123 0.94002 0.0
C998 C 0.44896 0.60845 0.92474 0.0
C999 C 0.47235 0.61869 0.95885 0.0
H1000 H 0.85536 0.35415 0.06085 0.0
H1001 H 0.81797 0.40464 0.99365 0.0
H1002 H 0.85124 0.37232 0.14198 0.0
H1003 H 0.81395 0.42326 0.07536 0.0
H1004 H 0.86507 0.48166 0.21784 0.0
H1005 H 0.85682 0.45873 0.13606 0.0
H1006 H 0.81154 0.37016 0.20222 0.0
H1007 H 0.82002 0.39307 0.28394 0.0
C1008 C 0.84589 0.36887 0.06378 0.0
C1009 C 0.83712 0.37824 0.02144 0.0
C1010 C 0.84332 0.37907 0.11004 0.0
C1011 C 0.8323 0.39915 0.11468 0.0
C1012 C 0.82257 0.4078 0.07248 0.0
C1013 C 0.82468 0.39711 0.02606 0.0
C1014 C 0.85327 0.45732 0.21478 0.0
C1015 C 0.84347 0.4391 0.2571 0.0
C1016 C 0.84819 0.44423 0.1681 0.0
C1017 C 0.83352 0.41274 0.16311 0.0
C1018 C 0.82292 0.39452 0.20528 0.0
C1019 C 0.82771 0.40759 0.25189 0.0
H1020 H 0.38897 0.78452 0.45034 0.0
H1021 H 0.4752 0.83187 0.52325 0.0
H1022 H 0.36471 0.79094 0.52335 0.0
H1023 H 0.45116 0.83876 0.59597 0.0
H1024 H 0.3536 0.86416 0.60713 0.0
H1025 H 0.37175 0.84137 0.54809 0.0
H1026 H 0.4129 0.81764 0.66569 0.0
H1027 H 0.39443 0.84058 0.72575 0.0
C1028 C 0.40253 0.79524 0.48267 0.0
C1029 C 0.43396 0.80813 0.48106 0.0
C1030 C 0.38874 0.79918 0.52424 0.0
C1031 C 0.40619 0.8159 0.56485 0.0
C1032 C 0.43716 0.82581 0.56526 0.0
C1033 C 0.45092 0.822 0.52362 0.0
C1034 C 0.36643 0.85405 0.6207 0.0
C1035 C 0.37274 0.85437 0.67118 0.0
C1036 C 0.37648 0.84059 0.58682 0.0
C1037 C 0.3933 0.82729 0.60238 0.0
C1038 C 0.39978 0.82759 0.65282 0.0
C1039 C 0.38935 0.84082 0.68705 0.0
H1040 H 0.54941 0.43226 0.7019 0.0
H1041 H 0.62304 0.41394 0.70787 0.0
H1042 H 0.53475 0.41299 0.78532 0.0
H1043 H 0.60826 0.39441 0.79211 0.0
H1044 H 0.54357 0.33732 0.92757 0.0
H1045 H 0.56277 0.35253 0.84341 0.0
H1046 H 0.56396 0.43681 0.8647 0.0
H1047 H 0.54494 0.42169 0.94823 0.0
C1048 C 0.56224 0.4238 0.72108 0.0
C1049 C 0.5876 0.42501 0.69915 0.0
C1050 C 0.55394 0.41288 0.76866 0.0
C1051 C 0.57091 0.40301 0.79522 0.0
C1052 C 0.59502 0.40212 0.77221 0.0
C1053 C 0.60335 0.41311 0.72422 0.0
C1054 C 0.54867 0.35935 0.91446 0.0
C1055 C 0.54232 0.37819 0.9437 0.0
C1056 C 0.55953 0.36796 0.8665 0.0
C1057 C 0.56407 0.39544 0.84761 0.0
C1058 C 0.55985 0.41514 0.87823 0.0
C1059 C 0.54903 0.40656 0.92584 0.0
H1060 H 0.19414 0.57405 0.36062 0.0
H1061 H 0.18769 0.50219 0.26838 0.0
H1062 H 0.20702 0.60669 0.28876 0.0
H1063 H 0.20086 0.53502 0.19666 0.0
H1064 H 0.15003 0.572 0.09987 0.0
H1065 H 0.16141 0.54733 0.16627 0.0
H1066 H 0.23723 0.63292 0.20967 0.0
H1067 H 0.22571 0.65772 0.14198 0.0
C1068 C 0.19708 0.5657 0.32557 0.0
C1069 C 0.18908 0.53524 0.31996 0.0
C1070 C 0.20439 0.58446 0.28425 0.0
C1071 C 0.20402 0.57305 0.23697 0.0
C1072 C 0.20064 0.54415 0.23261 0.0
C1073 C 0.1933 0.52541 0.27379 0.0
C1074 C 0.16932 0.58548 0.12324 0.0
C1075 C 0.18685 0.61673 0.11622 0.0
C1076 C 0.17612 0.57133 0.16087 0.0
C1077 C 0.20044 0.58815 0.1929 0.0
C1078 C 0.21849 0.61941 0.1853 0.0
C1079 C 0.21196 0.63355 0.14675 0.0
loop_
_geom_bond_atom_site_label_1
_geom_bond_atom_site_label_2
_geom_bond_distance
_geom_bond_site_symmetry_2
_ccdc_geom_bond_type
Co0 N5 2.057 . S
Co0 O17 2.021 . S
Co0 O20 2.062 . S
Co0 O24 2.117 . S
Co0 O25 2.020 . S
C1 O21 1.259 . S
C1 O24 1.258 . S
Co2 N11 2.057 . S
Co2 O18 2.117 . S
Co2 O19 2.020 . S
Co2 O21 2.021 . S
Co2 O26 2.062 . S
C3 N5 1.316 . S
C3 N6 1.347 . S
C3 H8 0.931 . S
C4 N5 1.375 . S
C4 C7 1.350 . S
C4 H9 0.930 . S
N5 Co0 2.057 . S
N5 C3 1.316 . S
N5 C4 1.375 . S
N6 C3 1.347 . S
N6 C7 1.373 . S
C7 C4 1.350 . S
C7 N6 1.373 . S
C7 H28 0.931 1_545 S
H8 C3 0.931 . S
H9 C4 0.930 . S
C10 O17 1.259 . S
C10 O18 1.258 . S
N11 Co2 2.057 . S
N11 C12 1.316 . S
N11 C13 1.375 . S
C12 N11 1.316 . S
C12 N14 1.347 . S
C12 H23 0.931 . S
C13 N11 1.375 . S
C13 C15 1.350 . S
C13 H22 0.930 . S
N14 C12 1.347 . S
N14 C15 1.373 . S
C15 C13 1.350 . S
C15 N14 1.373 . S
C15 H29 0.931 . S
C16 O19 1.256 . S
C16 O20 1.255 . S
O17 Co0 2.021 . S
O17 C10 1.259 . S
O18 Co2 2.117 . S
O18 C10 1.258 . S
O19 Co2 2.020 . S
O19 C16 1.256 . S
O20 Co0 2.062 . S
O20 C16 1.255 . S
O21 C1 1.259 . S
O21 Co2 2.021 . S
H22 C13 0.930 . S
H23 C12 0.931 . S
O24 Co0 2.117 . S
O24 C1 1.258 . S
O25 Co0 2.020 . S
O25 C27 1.256 . S
O26 Co2 2.062 . S
O26 C27 1.255 . S
C27 O25 1.256 . S
C27 O26 1.255 . S
H28 C7 0.931 1_565 S
H29 C15 0.931 . S
Co30 N35 2.057 . S
Co30 O47 2.021 . S
Co30 O50 2.062 . S
Co30 O54 2.117 . S
Co30 O55 2.020 . S
C31 O51 1.259 . S
C31 O54 1.258 . S
Co32 N41 2.057 . S
Co32 O48 2.117 . S
Co32 O49 2.020 . S
Co32 O51 2.021 . S
Co32 O56 2.062 . S
C33 N35 1.316 . S
C33 N36 1.347 . S
C33 H38 0.931 . S
C34 N35 1.375 . S
C34 C37 1.350 . S
C34 H39 0.930 . S
N35 Co30 2.057 . S
N35 C33 1.316 . S
N35 C34 1.375 . S
N36 C33 1.347 . S
N36 C37 1.373 . S
C37 C34 1.350 . S
C37 N36 1.373 . S
C37 H58 0.931 . S
H38 C33 0.931 . S
H39 C34 0.930 . S
C40 O47 1.259 . S
C40 O48 1.258 . S
N41 Co32 2.057 . S
N41 C42 1.316 . S
N41 C43 1.375 . S
C42 N41 1.316 . S
C42 N44 1.347 . S
C42 H53 0.931 . S
C43 N41 1.375 . S
C43 C45 1.350 . S
C43 H52 0.930 . S
N44 C42 1.347 . S
N44 C45 1.373 . S
C45 C43 1.350 . S
C45 N44 1.373 . S
C45 H59 0.931 . S
C46 O49 1.256 . S
C46 O50 1.255 . S
O47 Co30 2.021 . S
O47 C40 1.259 . S
O48 Co32 2.117 . S
O48 C40 1.258 . S
O49 Co32 2.020 . S
O49 C46 1.256 . S
O50 Co30 2.062 . S
O50 C46 1.255 . S
O51 C31 1.259 . S
O51 Co32 2.021 . S
H52 C43 0.930 . S
H53 C42 0.931 . S
O54 Co30 2.117 . S
O54 C31 1.258 . S
O55 Co30 2.020 . S
O55 C57 1.256 . S
O56 Co32 2.062 . S
O56 C57 1.255 . S
C57 O55 1.256 . S
C57 O56 1.255 . S
H58 C37 0.931 . S
H59 C45 0.931 . S
Co60 N65 2.057 . S
Co60 O77 2.021 . S
Co60 O80 2.062 . S
Co60 O84 2.117 . S
Co60 O85 2.020 . S
C61 O81 1.259 . S
C61 O84 1.258 . S
Co62 N71 2.057 . S
Co62 O78 2.117 . S
Co62 O79 2.020 . S
Co62 O81 2.021 . S
Co62 O86 2.062 . S
C63 N65 1.316 . S
C63 N66 1.347 . S
C63 H68 0.931 . S
C64 N65 1.375 . S
C64 C67 1.350 . S
C64 H69 0.930 . S
N65 Co60 2.057 . S
N65 C63 1.316 . S
N65 C64 1.375 . S
N66 C63 1.347 . S
N66 C67 1.373 . S
C67 C64 1.350 . S
C67 N66 1.373 . S
C67 H88 0.931 1_655 S
H68 C63 0.931 . S
H69 C64 0.930 . S
C70 O77 1.259 . S
C70 O78 1.258 . S
N71 Co62 2.057 . S
N71 C72 1.316 . S
N71 C73 1.375 . S
C72 N71 1.316 . S
C72 N74 1.347 1_556 S
C72 H83 0.931 . S
C73 N71 1.375 . S
C73 C75 1.367 . S
C73 H82 0.930 . S
N74 C72 1.347 1_554 S
N74 C75 1.367 1_554 S
C75 C73 1.367 . S
C75 N74 1.367 1_556 S
C75 H89 0.922 1_556 S
C76 O79 1.256 . S
C76 O80 1.255 . S
O77 Co60 2.021 . S
O77 C70 1.259 . S
O78 Co62 2.117 . S
O78 C70 1.258 . S
O79 Co62 2.020 . S
O79 C76 1.256 . S
O80 Co60 2.062 . S
O80 C76 1.255 . S
O81 C61 1.259 . S
O81 Co62 2.021 . S
H82 C73 0.930 . S
H83 C72 0.931 . S
O84 Co60 2.117 . S
O84 C61 1.258 . S
O85 Co60 2.020 . S
O85 C87 1.256 . S
O86 Co62 2.062 . S
O86 C87 1.255 . S
C87 O85 1.256 . S
C87 O86 1.255 . S
H88 C67 0.931 1_455 S
H89 C75 0.922 1_554 S
Co90 N95 2.057 . S
Co90 O107 2.021 . S
Co90 O110 2.062 . S
Co90 O114 2.117 . S
Co90 O115 2.020 . S
C91 O111 1.259 . S
C91 O114 1.258 . S
Co92 N101 2.057 . S
Co92 O108 2.117 . S
Co92 O109 2.020 . S
Co92 O111 2.021 . S
Co92 O116 2.062 . S
C93 N95 1.316 . S
C93 N96 1.347 . S
C93 H98 0.931 . S
C94 N95 1.375 . S
C94 C97 1.350 . S
C94 H99 0.930 . S
N95 Co90 2.057 . S
N95 C93 1.316 . S
N95 C94 1.375 . S
N96 C93 1.347 . S
N96 C97 1.373 . S
C97 C94 1.350 . S
C97 N96 1.373 . S
C97 H118 0.931 . S
H98 C93 0.931 . S
H99 C94 0.930 . S
C100 O107 1.259 . S
C100 O108 1.258 . S
N101 Co92 2.057 . S
N101 C102 1.316 . S
N101 C103 1.375 . S
C102 N101 1.316 . S
C102 N104 1.347 . S
C102 H113 0.931 . S
C103 N101 1.375 . S
C103 C105 1.350 . S
C103 H112 0.930 . S
N104 C102 1.347 . S
N104 C105 1.373 . S
C105 C103 1.350 . S
C105 N104 1.373 . S
C105 H119 0.931 . S
C106 O109 1.256 . S
C106 O110 1.255 . S
O107 Co90 2.021 . S
O107 C100 1.259 . S
O108 Co92 2.117 . S
O108 C100 1.258 . S
O109 Co92 2.020 . S
O109 C106 1.256 . S
O110 Co90 2.062 . S
O110 C106 1.255 . S
O111 C91 1.259 . S
O111 Co92 2.021 . S
H112 C103 0.930 . S
H113 C102 0.931 . S
O114 Co90 2.117 . S
O114 C91 1.258 . S
O115 Co90 2.020 . S
O115 C117 1.256 . S
O116 Co92 2.062 . S
O116 C117 1.255 . S
C117 O115 1.256 . S
C117 O116 1.255 . S
H118 C97 0.931 . S
H119 C105 0.931 . S
Co120 N125 2.057 . S
Co120 O137 2.021 . S
Co120 O140 2.062 . S
Co120 O144 2.117 . S
Co120 O145 2.020 . S
C121 O141 1.259 . S
C121 O144 1.258 . S
Co122 N131 2.057 . S
Co122 O138 2.117 . S
Co122 O139 2.020 . S
Co122 O141 2.021 . S
Co122 O146 2.062 . S
C123 N125 1.316 . S
C123 N126 1.347 . S
C123 H128 0.931 . S
C124 N125 1.375 . S
C124 C127 1.350 . S
C124 H129 0.930 . S
N125 Co120 2.057 . S
N125 C123 1.316 . S
N125 C124 1.375 . S
N126 C123 1.347 . S
N126 C127 1.373 . S
C127 C124 1.350 . S
C127 N126 1.373 . S
C127 H148 0.931 . S
H128 C123 0.931 . S
H129 C124 0.930 . S
C130 O137 1.259 . S
C130 O138 1.258 . S
N131 Co122 2.057 . S
N131 C132 1.316 . S
N131 C133 1.375 . S
C132 N131 1.316 . S
C132 N134 1.347 . S
C132 H143 0.931 . S
C133 N131 1.375 . S
C133 C135 1.350 . S
C133 H142 0.930 . S
N134 C132 1.347 . S
N134 C135 1.373 . S
C135 C133 1.350 . S
C135 N134 1.373 . S
C135 H149 0.931 . S
C136 O139 1.256 . S
C136 O140 1.255 . S
O137 Co120 2.021 . S
O137 C130 1.259 . S
O138 Co122 2.117 . S
O138 C130 1.258 . S
O139 Co122 2.020 . S
O139 C136 1.256 . S
O140 Co120 2.062 . S
O140 C136 1.255 . S
O141 C121 1.259 . S
O141 Co122 2.021 . S
H142 C133 0.930 . S
H143 C132 0.931 . S
O144 Co120 2.117 . S
O144 C121 1.258 . S
O145 Co120 2.020 . S
O145 C147 1.256 . S
O146 Co122 2.062 . S
O146 C147 1.255 . S
C147 O145 1.256 . S
C147 O146 1.255 . S
H148 C127 0.931 . S
H149 C135 0.931 . S
Co150 N155 2.057 . S
Co150 O167 2.021 . S
Co150 O170 2.062 . S
Co150 O174 2.117 . S
Co150 O175 2.020 . S
C151 O171 1.259 . S
C151 O174 1.258 . S
Co152 N161 2.057 1_556 S
Co152 O168 2.117 . S
Co152 O169 2.020 . S
Co152 O171 2.021 . S
Co152 O176 2.062 1_556 S
C153 N155 1.316 . S
C153 N156 1.347 . S
C153 H158 0.931 . S
C154 N155 1.375 . S
C154 C157 1.350 . S
C154 H159 0.930 . S
N155 Co150 2.057 . S
N155 C153 1.316 . S
N155 C154 1.375 . S
N156 C153 1.347 . S
N156 C157 1.373 . S
C157 C154 1.350 . S
C157 N156 1.373 . S
C157 H178 0.931 . S
H158 C153 0.931 . S
H159 C154 0.930 . S
C160 O167 1.259 . S
C160 O168 1.258 . S
N161 Co152 2.057 1_554 S
N161 C162 1.316 . S
N161 C163 1.375 . S
C162 N161 1.316 . S
C162 N164 1.347 . S
C162 H173 0.931 . S
C163 N161 1.375 . S
C163 C165 1.350 . S
C163 H172 0.930 . S
N164 C162 1.347 . S
N164 C165 1.373 . S
C165 C163 1.350 . S
C165 N164 1.373 . S
C165 H179 0.931 . S
C166 O169 1.256 . S
C166 O170 1.255 . S
O167 Co150 2.021 . S
O167 C160 1.259 . S
O168 Co152 2.117 . S
O168 C160 1.258 . S
O169 Co152 2.020 . S
O169 C166 1.256 . S
O170 Co150 2.062 . S
O170 C166 1.255 . S
O171 C151 1.259 . S
O171 Co152 2.021 . S
H172 C163 0.930 . S
H173 C162 0.931 . S
O174 Co150 2.117 . S
O174 C151 1.258 . S
O175 Co150 2.020 . S
O175 C177 1.256 1_556 S
O176 Co152 2.062 1_554 S
O176 C177 1.255 . S
C177 O175 1.256 1_554 S
C177 O176 1.255 . S
H178 C157 0.931 . S
H179 C165 0.931 . S
Co180 N185 2.057 . S
Co180 O197 2.021 . S
Co180 O200 2.062 . S
Co180 O204 2.117 . S
Co180 O205 2.020 . S
C181 O201 1.259 . S
C181 O204 1.258 . S
Co182 N191 2.057 . S
Co182 O198 2.117 . S
Co182 O199 2.020 . S
Co182 O201 2.021 . S
Co182 O206 2.062 . S
C183 N185 1.316 . S
C183 N186 1.347 . S
C183 H188 0.931 . S
C184 N185 1.375 . S
C184 C187 1.350 . S
C184 H189 0.930 . S
N185 Co180 2.057 . S
N185 C183 1.316 . S
N185 C184 1.375 . S
N186 C183 1.347 . S
N186 C187 1.373 . S
C187 C184 1.350 . S
C187 N186 1.373 . S
C187 H208 0.918 1_655 S
H188 C183 0.931 . S
H189 C184 0.930 . S
C190 O197 1.259 . S
C190 O198 1.258 . S
N191 Co182 2.057 . S
N191 C192 1.316 . S
N191 C193 1.375 . S
C192 N191 1.316 . S
C192 N194 1.347 . S
C192 H203 0.931 . S
C193 N191 1.375 . S
C193 C195 1.350 . S
C193 H202 0.930 . S
N194 C192 1.347 . S
N194 C195 1.373 . S
C195 C193 1.350 . S
C195 N194 1.373 . S
C195 H209 0.931 . S
C196 O199 1.256 . S
C196 O200 1.255 . S
O197 Co180 2.021 . S
O197 C190 1.259 . S
O198 Co182 2.117 . S
O198 C190 1.258 . S
O199 Co182 2.020 . S
O199 C196 1.256 . S
O200 Co180 2.062 . S
O200 C196 1.255 . S
O201 C181 1.259 . S
O201 Co182 2.021 . S
H202 C193 0.930 . S
H203 C192 0.931 . S
O204 Co180 2.117 . S
O204 C181 1.258 . S
O205 Co180 2.020 . S
O205 C207 1.256 . S
O206 Co182 2.062 . S
O206 C207 1.255 . S
C207 O205 1.256 . S
C207 O206 1.255 . S
H208 C187 0.918 1_455 S
H209 C195 0.931 . S
Co210 N215 2.057 . S
Co210 O227 2.021 . S
Co210 O230 2.062 . S
Co210 O234 2.117 . S
Co210 O235 2.020 . S
C211 O231 1.259 . S
C211 O234 1.258 . S
Co212 N221 2.057 . S
Co212 O228 2.117 . S
Co212 O229 2.020 . S
Co212 O231 2.021 . S
Co212 O236 2.062 . S
C213 N215 1.316 . S
C213 N216 1.347 . S
C213 H218 0.931 . S
C214 N215 1.375 . S
C214 C217 1.350 . S
C214 H219 0.930 . S
N215 Co210 2.057 . S
N215 C213 1.316 . S
N215 C214 1.375 . S
N216 C213 1.347 . S
N216 C217 1.373 . S
C217 C214 1.350 . S
C217 N216 1.373 . S
C217 H238 0.931 . S
H218 C213 0.931 . S
H219 C214 0.930 . S
C220 O227 1.259 . S
C220 O228 1.258 . S
N221 Co212 2.057 . S
N221 C222 1.316 . S
N221 C223 1.375 . S
C222 N221 1.316 . S
C222 N224 1.347 . S
C222 H233 0.931 . S
C223 N221 1.375 . S
C223 C225 1.350 . S
C223 H232 0.930 . S
N224 C222 1.347 . S
N224 C225 1.373 . S
C225 C223 1.350 . S
C225 N224 1.373 . S
C225 H239 0.931 . S
C226 O229 1.256 . S
C226 O230 1.255 . S
O227 Co210 2.021 . S
O227 C220 1.259 . S
O228 Co212 2.117 . S
O228 C220 1.258 . S
O229 Co212 2.020 . S
O229 C226 1.256 . S
O230 Co210 2.062 . S
O230 C226 1.255 . S
O231 C211 1.259 . S
O231 Co212 2.021 . S
H232 C223 0.930 . S
H233 C222 0.931 . S
O234 Co210 2.117 . S
O234 C211 1.258 . S
O235 Co210 2.020 . S
O235 C237 1.256 . S
O236 Co212 2.062 . S
O236 C237 1.255 . S
C237 O235 1.256 . S
C237 O236 1.255 . S
H238 C217 0.931 . S
H239 C225 0.931 . S
Co240 N245 2.057 . S
Co240 O257 2.021 . S
Co240 O260 2.062 . S
Co240 O264 2.117 . S
Co240 O265 2.020 . S
C241 O261 1.259 . S
C241 O264 1.258 . S
Co242 N251 2.057 1_554 S
Co242 O258 2.117 . S
Co242 O259 2.020 . S
Co242 O261 2.021 . S
Co242 O266 2.065 . S
C243 N245 1.316 . S
C243 N246 1.347 . S
C243 H248 0.931 . S
C244 N245 1.375 . S
C244 C247 1.350 . S
C244 H249 0.930 . S
N245 Co240 2.057 . S
N245 C243 1.316 . S
N245 C244 1.375 . S
N246 C243 1.347 . S
N246 C247 1.373 . S
C247 C244 1.350 . S
C247 N246 1.373 . S
C247 H268 0.931 . S
H248 C243 0.931 . S
H249 C244 0.930 . S
C250 O257 1.259 . S
C250 O258 1.258 . S
N251 Co242 2.057 1_556 S
N251 C252 1.316 . S
N251 C253 1.375 . S
C252 N251 1.316 . S
C252 N254 1.347 . S
C252 H263 0.931 . S
C253 N251 1.375 . S
C253 C255 1.350 . S
C253 H262 0.930 . S
N254 C252 1.347 . S
N254 C255 1.373 . S
C255 C253 1.350 . S
C255 N254 1.373 . S
C255 H269 0.931 . S
C256 O259 1.256 . S
C256 O260 1.255 . S
O257 Co240 2.021 . S
O257 C250 1.259 . S
O258 Co242 2.117 . S
O258 C250 1.258 . S
O259 Co242 2.020 . S
O259 C256 1.256 . S
O260 Co240 2.062 . S
O260 C256 1.255 . S
O261 C241 1.259 . S
O261 Co242 2.021 . S
H262 C253 0.930 . S
H263 C252 0.931 . S
O264 Co240 2.117 . S
O264 C241 1.258 . S
O265 Co240 2.020 . S
O265 C267 1.256 . S
O266 Co242 2.065 . S
O266 C267 1.256 . S
C267 O265 1.256 . S
C267 O266 1.256 . S
H268 C247 0.931 . S
H269 C255 0.931 . S
Co270 N275 2.057 . S
Co270 O287 2.021 . S
Co270 O290 2.062 . S
Co270 O294 2.117 . S
Co270 O295 2.020 . S
C271 O291 1.259 . S
C271 O294 1.258 . S
Co272 N281 2.057 . S
Co272 O288 2.117 . S
Co272 O289 2.020 . S
Co272 O291 2.021 . S
Co272 O296 2.062 . S
C273 N275 1.316 . S
C273 N276 1.347 . S
C273 H278 0.931 . S
C274 N275 1.375 . S
C274 C277 1.350 . S
C274 H279 0.930 . S
N275 Co270 2.057 . S
N275 C273 1.316 . S
N275 C274 1.375 . S
N276 C273 1.347 . S
N276 C277 1.373 . S
C277 C274 1.350 . S
C277 N276 1.373 . S
C277 H298 0.931 . S
H278 C273 0.931 . S
H279 C274 0.930 . S
C280 O287 1.259 . S
C280 O288 1.258 . S
N281 Co272 2.057 . S
N281 C282 1.316 . S
N281 C283 1.375 . S
C282 N281 1.316 . S
C282 N284 1.347 . S
C282 H293 0.931 . S
C283 N281 1.375 . S
C283 C285 1.350 . S
C283 H292 0.930 . S
N284 C282 1.347 . S
N284 C285 1.373 . S
C285 C283 1.350 . S
C285 N284 1.373 . S
C285 H299 0.931 . S
C286 O289 1.256 . S
C286 O290 1.255 . S
O287 Co270 2.021 . S
O287 C280 1.259 . S
O288 Co272 2.117 . S
O288 C280 1.258 . S
O289 Co272 2.020 . S
O289 C286 1.256 . S
O290 Co270 2.062 . S
O290 C286 1.255 . S
O291 C271 1.259 . S
O291 Co272 2.021 . S
H292 C283 0.930 . S
H293 C282 0.931 . S
O294 Co270 2.117 . S
O294 C271 1.258 . S
O295 Co270 2.020 . S
O295 C297 1.256 . S
O296 Co272 2.062 . S
O296 C297 1.255 . S
C297 O295 1.256 . S
C297 O296 1.255 . S
H298 C277 0.931 . S
H299 C285 0.931 . S
Co300 N305 2.057 . S
Co300 O317 2.021 . S
Co300 O320 2.062 . S
Co300 O324 2.117 . S
Co300 O325 2.020 . S
C301 O321 1.259 . S
C301 O324 1.258 . S
Co302 N311 2.057 . S
Co302 O318 2.117 . S
Co302 O319 2.020 . S
Co302 O321 2.021 . S
Co302 O326 2.062 . S
C303 N305 1.316 . S
C303 N306 1.347 . S
C303 H308 0.931 . S
C304 N305 1.375 . S
C304 C307 1.350 . S
C304 H309 0.930 . S
N305 Co300 2.057 . S
N305 C303 1.316 . S
N305 C304 1.375 . S
N306 C303 1.347 . S
N306 C307 1.373 . S
C307 C304 1.350 . S
C307 N306 1.373 . S
C307 H328 0.919 1_545 S
H308 C303 0.931 . S
H309 C304 0.930 . S
C310 O317 1.259 . S
C310 O318 1.258 . S
N311 Co302 2.057 . S
N311 C312 1.316 . S
N311 C313 1.375 . S
C312 N311 1.316 . S
C312 N314 1.347 . S
C312 H323 0.931 . S
C313 N311 1.375 . S
C313 C315 1.350 . S
C313 H322 0.930 . S
N314 C312 1.347 . S
N314 C315 1.373 . S
C315 C313 1.350 . S
C315 N314 1.373 . S
C315 H329 0.931 . S
C316 O319 1.256 . S
C316 O320 1.255 . S
O317 Co300 2.021 . S
O317 C310 1.259 . S
O318 Co302 2.117 . S
O318 C310 1.258 . S
O319 Co302 2.020 . S
O319 C316 1.256 . S
O320 Co300 2.062 . S
O320 C316 1.255 . S
O321 C301 1.259 . S
O321 Co302 2.021 . S
H322 C313 0.930 . S
H323 C312 0.931 . S
O324 Co300 2.117 . S
O324 C301 1.258 . S
O325 Co300 2.020 . S
O325 C327 1.256 . S
O326 Co302 2.062 . S
O326 C327 1.255 . S
C327 O325 1.256 . S
C327 O326 1.255 . S
H328 C307 0.919 1_565 S
H329 C315 0.931 . S
Co330 N335 2.057 . S
Co330 O347 2.021 . S
Co330 O350 2.062 . S
Co330 O354 2.117 . S
Co330 O355 2.020 . S
C331 O351 1.259 . S
C331 O354 1.258 . S
Co332 N341 2.057 . S
Co332 O348 2.117 . S
Co332 O349 2.020 . S
Co332 O351 2.021 . S
Co332 O356 2.062 . S
C333 N335 1.316 1_556 S
C333 N336 1.347 . S
C333 H338 0.931 . S
C334 N335 1.375 1_556 S
C334 C337 1.350 . S
C334 H339 0.930 1_556 S
N335 Co330 2.057 . S
N335 C333 1.316 1_554 S
N335 C334 1.375 1_554 S
N336 C333 1.347 . S
N336 C337 1.373 . S
C337 C334 1.350 . S
C337 N336 1.373 . S
C337 H358 0.931 . S
H338 C333 0.931 . S
H339 C334 0.930 1_554 S
C340 O347 1.259 . S
C340 O348 1.258 . S
N341 Co332 2.057 . S
N341 C342 1.316 . S
N341 C343 1.375 . S
C342 N341 1.316 . S
C342 N344 1.347 . S
C342 H353 0.931 . S
C343 N341 1.375 . S
C343 C345 1.350 . S
C343 H352 0.930 . S
N344 C342 1.347 . S
N344 C345 1.373 . S
C345 C343 1.350 . S
C345 N344 1.373 . S
C345 H359 0.931 . S
C346 O349 1.256 . S
C346 O350 1.255 . S
O347 Co330 2.021 . S
O347 C340 1.259 . S
O348 Co332 2.117 . S
O348 C340 1.258 . S
O349 Co332 2.020 . S
O349 C346 1.256 . S
O350 Co330 2.062 . S
O350 C346 1.255 . S
O351 C331 1.259 . S
O351 Co332 2.021 . S
H352 C343 0.930 . S
H353 C342 0.931 . S
O354 Co330 2.117 . S
O354 C331 1.258 . S
O355 Co330 2.020 . S
O355 C357 1.256 . S
O356 Co332 2.062 . S
O356 C357 1.255 . S
C357 O355 1.256 . S
C357 O356 1.255 . S
H358 C337 0.931 . S
H359 C345 0.931 . S
H360 C368 0.950 . S
H361 C373 0.950 . S
H362 C370 0.950 . S
H363 C372 0.950 . S
H364 C374 0.950 . S
H365 C376 0.950 . S
H366 C378 0.950 . S
H367 C379 0.950 . S
C368 H360 0.950 . S
C368 C369 1.386 . S
C368 C370 1.391 . S
C369 C368 1.386 . S
C369 C373 1.393 . S
C370 H362 0.950 . S
C370 C368 1.391 . S
C370 C371 1.400 . S
C371 C370 1.400 . S
C371 C372 1.398 . S
C371 C377 1.491 . S
C372 H363 0.950 . S
C372 C371 1.398 . S
C372 C373 1.391 . S
C373 H361 0.950 . S
C373 C369 1.393 . S
C373 C372 1.391 . S
C374 H364 0.950 . S
C374 C375 1.386 . S
C374 C376 1.391 . S
C375 C374 1.386 . S
C375 C379 1.393 . S
C376 H365 0.950 . S
C376 C374 1.391 . S
C376 C377 1.400 . S
C377 C371 1.491 . S
C377 C376 1.400 . S
C377 C378 1.398 . S
C378 H366 0.950 . S
C378 C377 1.398 . S
C378 C379 1.391 . S
C379 H367 0.950 . S
C379 C375 1.393 . S
C379 C378 1.391 . S
H380 C388 0.950 . S
H381 C393 0.950 . S
H382 C390 0.950 . S
H383 C392 0.950 . S
H384 C394 0.950 . S
H385 C396 0.950 . S
H386 C398 0.950 . S
H387 C399 0.950 . S
C388 H380 0.950 . S
C388 C389 1.386 . S
C388 C390 1.391 . S
C389 C388 1.386 . S
C389 C393 1.393 . S
C390 H382 0.950 . S
C390 C388 1.391 . S
C390 C391 1.400 . S
C391 C390 1.400 . S
C391 C392 1.398 . S
C391 C397 1.491 . S
C392 H383 0.950 . S
C392 C391 1.398 . S
C392 C393 1.391 . S
C393 H381 0.950 . S
C393 C389 1.393 . S
C393 C392 1.391 . S
C394 H384 0.950 . S
C394 C395 1.386 . S
C394 C396 1.391 . S
C395 C394 1.386 . S
C395 C399 1.393 . S
C396 H385 0.950 . S
C396 C394 1.391 . S
C396 C397 1.400 . S
C397 C391 1.491 . S
C397 C396 1.400 . S
C397 C398 1.398 . S
C398 H386 0.950 . S
C398 C397 1.398 . S
C398 C399 1.391 . S
C399 H387 0.950 . S
C399 C395 1.393 . S
C399 C398 1.391 . S
H400 C408 0.950 . S
H401 C413 0.950 . S
H402 C410 0.950 . S
H403 C412 0.950 . S
H404 C414 0.950 . S
H405 C416 0.950 . S
H406 C418 0.950 . S
H407 C419 0.950 . S
C408 H400 0.950 . S
C408 C409 1.386 . S
C408 C410 1.391 . S
C409 C408 1.386 . S
C409 C413 1.393 . S
C410 H402 0.950 . S
C410 C408 1.391 . S
C410 C411 1.400 . S
C411 C410 1.400 . S
C411 C412 1.398 . S
C411 C417 1.491 . S
C412 H403 0.950 . S
C412 C411 1.398 . S
C412 C413 1.391 . S
C413 H401 0.950 . S
C413 C409 1.393 . S
C413 C412 1.391 . S
C414 H404 0.950 . S
C414 C415 1.386 . S
C414 C416 1.391 . S
C415 C414 1.386 . S
C415 C419 1.393 . S
C416 H405 0.950 . S
C416 C414 1.391 . S
C416 C417 1.400 . S
C417 C411 1.491 . S
C417 C416 1.400 . S
C417 C418 1.398 . S
C418 H406 0.950 . S
C418 C417 1.398 . S
C418 C419 1.391 . S
C419 H407 0.950 . S
C419 C415 1.393 . S
C419 C418 1.391 . S
H420 C428 0.950 . S
H421 C433 0.950 . S
H422 C430 0.950 . S
H423 C432 0.950 . S
H424 C434 0.950 . S
H425 C436 0.950 . S
H426 C438 0.950 . S
H427 C439 0.950 . S
C428 H420 0.950 . S
C428 C429 1.386 . S
C428 C430 1.391 . S
C429 C428 1.386 . S
C429 C433 1.393 . S
C430 H422 0.950 . S
C430 C428 1.391 . S
C430 C431 1.400 . S
C431 C430 1.400 . S
C431 C432 1.398 . S
C431 C437 1.491 . S
C432 H423 0.950 . S
C432 C431 1.398 . S
C432 C433 1.391 . S
C433 H421 0.950 . S
C433 C429 1.393 . S
C433 C432 1.391 . S
C434 H424 0.950 . S
C434 C435 1.386 . S
C434 C436 1.391 . S
C435 C434 1.386 . S
C435 C439 1.393 . S
C436 H425 0.950 . S
C436 C434 1.391 . S
C436 C437 1.400 . S
C437 C431 1.491 . S
C437 C436 1.400 . S
C437 C438 1.398 . S
C438 H426 0.950 . S
C438 C437 1.398 . S
C438 C439 1.391 . S
C439 H427 0.950 . S
C439 C435 1.393 . S
C439 C438 1.391 . S
H440 C448 0.950 . S
H441 C453 0.950 . S
H442 C450 0.950 . S
H443 C452 0.950 . S
H444 C454 0.950 . S
H445 C456 0.950 . S
H446 C458 0.950 . S
H447 C459 0.950 . S
C448 H440 0.950 . S
C448 C449 1.386 . S
C448 C450 1.391 . S
C449 C448 1.386 . S
C449 C453 1.393 . S
C450 H442 0.950 . S
C450 C448 1.391 . S
C450 C451 1.400 . S
C451 C450 1.400 . S
C451 C452 1.398 . S
C451 C457 1.491 . S
C452 H443 0.950 . S
C452 C451 1.398 . S
C452 C453 1.391 . S
C453 H441 0.950 . S
C453 C449 1.393 . S
C453 C452 1.391 . S
C454 H444 0.950 . S
C454 C455 1.386 . S
C454 C456 1.391 . S
C455 C454 1.386 . S
C455 C459 1.393 . S
C456 H445 0.950 . S
C456 C454 1.391 . S
C456 C457 1.400 . S
C457 C451 1.491 . S
C457 C456 1.400 . S
C457 C458 1.398 . S
C458 H446 0.950 . S
C458 C457 1.398 . S
C458 C459 1.391 . S
C459 H447 0.950 . S
C459 C455 1.393 . S
C459 C458 1.391 . S
H460 C468 0.950 . S
H461 C473 0.950 . S
H462 C470 0.950 . S
H463 C472 0.950 . S
H464 C474 0.950 . S
H465 C476 0.950 . S
H466 C478 0.950 . S
H467 C479 0.950 . S
C468 H460 0.950 . S
C468 C469 1.386 . S
C468 C470 1.391 . S
C469 C468 1.386 . S
C469 C473 1.393 . S
C470 H462 0.950 . S
C470 C468 1.391 . S
C470 C471 1.400 . S
C471 C470 1.400 . S
C471 C472 1.398 . S
C471 C477 1.491 . S
C472 H463 0.950 . S
C472 C471 1.398 . S
C472 C473 1.391 . S
C473 H461 0.950 . S
C473 C469 1.393 . S
C473 C472 1.391 . S
C474 H464 0.950 . S
C474 C475 1.386 . S
C474 C476 1.391 . S
C475 C474 1.386 . S
C475 C479 1.393 . S
C476 H465 0.950 . S
C476 C474 1.391 . S
C476 C477 1.400 . S
C477 C471 1.491 . S
C477 C476 1.400 . S
C477 C478 1.398 . S
C478 H466 0.950 . S
C478 C477 1.398 . S
C478 C479 1.391 . S
C479 H467 0.950 . S
C479 C475 1.393 . S
C479 C478 1.391 . S
H480 C488 0.950 . S
H481 C493 0.950 . S
H482 C490 0.950 . S
H483 C492 0.950 . S
H484 C494 0.950 . S
H485 C496 0.950 . S
H486 C498 0.950 . S
H487 C499 0.950 . S
C488 H480 0.950 . S
C488 C489 1.386 . S
C488 C490 1.391 . S
C489 C488 1.386 . S
C489 C493 1.393 . S
C490 H482 0.950 . S
C490 C488 1.391 . S
C490 C491 1.400 . S
C491 C490 1.400 . S
C491 C492 1.398 . S
C491 C497 1.491 . S
C492 H483 0.950 . S
C492 C491 1.398 . S
C492 C493 1.391 . S
C493 H481 0.950 . S
C493 C489 1.393 . S
C493 C492 1.391 . S
C494 H484 0.950 . S
C494 C495 1.386 . S
C494 C496 1.391 . S
C495 C494 1.386 . S
C495 C499 1.393 . S
C496 H485 0.950 . S
C496 C494 1.391 . S
C496 C497 1.400 1_554 S
C497 C491 1.491 . S
C497 C496 1.400 1_556 S
C497 C498 1.398 . S
C498 H486 0.950 . S
C498 C497 1.398 . S
C498 C499 1.391 1_556 S
C499 H487 0.950 . S
C499 C495 1.393 . S
C499 C498 1.391 1_554 S
H500 C508 0.950 . S
H501 C513 0.950 . S
H502 C510 0.950 . S
H503 C512 0.950 . S
H504 C514 0.950 . S
H505 C516 0.950 . S
H506 C518 0.950 . S
H507 C519 0.950 . S
C508 H500 0.950 . S
C508 C509 1.386 . S
C508 C510 1.391 . S
C509 C508 1.386 . S
C509 C513 1.393 . S
C510 H502 0.950 . S
C510 C508 1.391 . S
C510 C511 1.400 . S
C511 C510 1.400 . S
C511 C512 1.398 . S
C511 C517 1.491 . S
C512 H503 0.950 . S
C512 C511 1.398 . S
C512 C513 1.391 . S
C513 H501 0.950 . S
C513 C509 1.393 . S
C513 C512 1.391 . S
C514 H504 0.950 . S
C514 C515 1.386 . S
C514 C516 1.391 . S
C515 C514 1.386 . S
C515 C519 1.393 . S
C516 H505 0.950 . S
C516 C514 1.391 . S
C516 C517 1.400 . S
C517 C511 1.491 . S
C517 C516 1.400 . S
C517 C518 1.398 . S
C518 H506 0.950 . S
C518 C517 1.398 . S
C518 C519 1.391 . S
C519 H507 0.950 . S
C519 C515 1.393 . S
C519 C518 1.391 . S
H520 C528 0.950 . S
H521 C533 0.950 . S
H522 C530 0.950 . S
H523 C532 0.950 . S
H524 C534 0.950 . S
H525 C536 0.950 . S
H526 C538 0.950 . S
H527 C539 0.950 . S
C528 H520 0.950 . S
C528 C529 1.386 . S
C528 C530 1.391 . S
C529 C528 1.386 . S
C529 C533 1.393 . S
C530 H522 0.950 . S
C530 C528 1.391 . S
C530 C531 1.400 . S
C531 C530 1.400 . S
C531 C532 1.398 . S
C531 C537 1.491 . S
C532 H523 0.950 . S
C532 C531 1.398 . S
C532 C533 1.391 . S
C533 H521 0.950 . S
C533 C529 1.393 . S
C533 C532 1.391 . S
C534 H524 0.950 . S
C534 C535 1.386 . S
C534 C536 1.391 . S
C535 C534 1.386 . S
C535 C539 1.393 . S
C536 H525 0.950 . S
C536 C534 1.391 . S
C536 C537 1.400 . S
C537 C531 1.491 . S
C537 C536 1.400 . S
C537 C538 1.398 . S
C538 H526 0.950 . S
C538 C537 1.398 . S
C538 C539 1.391 . S
C539 H527 0.950 . S
C539 C535 1.393 . S
C539 C538 1.391 . S
H540 C548 0.950 . S
H541 C553 0.950 . S
H542 C550 0.950 . S
H543 C552 0.950 . S
H544 C554 0.950 . S
H545 C556 0.950 . S
H546 C558 0.950 . S
H547 C559 0.950 . S
C548 H540 0.950 . S
C548 C549 1.386 . S
C548 C550 1.391 1_556 S
C549 C548 1.386 . S
C549 C553 1.393 . S
C550 H542 0.950 . S
C550 C548 1.391 1_554 S
C550 C551 1.400 . S
C551 C550 1.400 . S
C551 C552 1.398 . S
C551 C557 1.491 . S
C552 H543 0.950 . S
C552 C551 1.398 . S
C552 C553 1.391 1_554 S
C553 H541 0.950 . S
C553 C549 1.393 . S
C553 C552 1.391 1_556 S
C554 H544 0.950 . S
C554 C555 1.386 . S
C554 C556 1.391 . S
C555 C554 1.386 . S
C555 C559 1.393 . S
C556 H545 0.950 . S
C556 C554 1.391 . S
C556 C557 1.400 . S
C557 C551 1.491 . S
C557 C556 1.400 . S
C557 C558 1.398 . S
C558 H546 0.950 . S
C558 C557 1.398 . S
C558 C559 1.391 . S
C559 H547 0.950 . S
C559 C555 1.393 . S
C559 C558 1.391 . S
H560 C568 0.950 . S
H561 C573 0.950 . S
H562 C570 0.950 . S
H563 C572 0.950 . S
H564 C574 0.950 . S
H565 C576 0.950 . S
H566 C578 0.950 . S
H567 C579 0.950 . S
C568 H560 0.950 . S
C568 C569 1.386 . S
C568 C570 1.391 . S
C569 C568 1.386 . S
C569 C573 1.393 . S
C570 H562 0.950 . S
C570 C568 1.391 . S
C570 C571 1.400 . S
C571 C570 1.400 . S
C571 C572 1.398 . S
C571 C577 1.491 . S
C572 H563 0.950 . S
C572 C571 1.398 . S
C572 C573 1.391 . S
C573 H561 0.950 . S
C573 C569 1.393 . S
C573 C572 1.391 . S
C574 H564 0.950 . S
C574 C575 1.386 . S
C574 C576 1.391 . S
C575 C574 1.386 . S
C575 C579 1.393 . S
C576 H565 0.950 . S
C576 C574 1.391 . S
C576 C577 1.400 . S
C577 C571 1.491 . S
C577 C576 1.400 . S
C577 C578 1.398 . S
C578 H566 0.950 . S
C578 C577 1.398 . S
C578 C579 1.391 . S
C579 H567 0.950 . S
C579 C575 1.393 . S
C579 C578 1.391 . S
H580 C588 0.950 . S
H581 C593 0.950 . S
H582 C590 0.950 . S
H583 C592 0.950 . S
H584 C594 0.950 . S
H585 C596 0.950 . S
H586 C598 0.950 . S
H587 C599 0.950 . S
C588 H580 0.950 . S
C588 C589 1.386 . S
C588 C590 1.391 . S
C589 C588 1.386 . S
C589 C593 1.393 . S
C590 H582 0.950 . S
C590 C588 1.391 . S
C590 C591 1.400 . S
C591 C590 1.400 . S
C591 C592 1.398 . S
C591 C597 1.491 . S
C592 H583 0.950 . S
C592 C591 1.398 . S
C592 C593 1.391 . S
C593 H581 0.950 . S
C593 C589 1.393 . S
C593 C592 1.391 . S
C594 H584 0.950 . S
C594 C595 1.386 . S
C594 C596 1.391 . S
C595 C594 1.386 . S
C595 C599 1.393 . S
C596 H585 0.950 . S
C596 C594 1.391 . S
C596 C597 1.400 . S
C597 C591 1.491 . S
C597 C596 1.400 . S
C597 C598 1.398 . S
C598 H586 0.950 . S
C598 C597 1.398 . S
C598 C599 1.391 . S
C599 H587 0.950 . S
C599 C595 1.393 . S
C599 C598 1.391 . S
H600 C608 0.950 . S
H601 C613 0.950 . S
H602 C610 0.950 . S
H603 C612 0.950 . S
H604 C614 0.950 . S
H605 C616 0.950 . S
H606 C618 0.950 . S
H607 C619 0.950 . S
C608 H600 0.950 . S
C608 C609 1.386 . S
C608 C610 1.391 . S
C609 C608 1.386 . S
C609 C613 1.393 . S
C610 H602 0.950 . S
C610 C608 1.391 . S
C610 C611 1.400 . S
C611 C610 1.400 . S
C611 C612 1.398 . S
C611 C617 1.491 . S
C612 H603 0.950 . S
C612 C611 1.398 . S
C612 C613 1.391 . S
C613 H601 0.950 . S
C613 C609 1.393 . S
C613 C612 1.391 . S
C614 H604 0.950 . S
C614 C615 1.386 . S
C614 C616 1.391 1_544 S
C615 C614 1.386 . S
C615 C619 1.393 1_554 S
C616 H605 0.950 . S
C616 C614 1.391 1_566 S
C616 C617 1.400 . S
C617 C611 1.491 . S
C617 C616 1.400 . S
C617 C618 1.398 1_565 S
C618 H606 0.950 . S
C618 C617 1.398 1_545 S
C618 C619 1.391 . S
C619 H607 0.950 . S
C619 C615 1.393 1_556 S
C619 C618 1.391 . S
H620 C628 0.950 . S
H621 C633 0.950 . S
H622 C630 0.950 . S
H623 C632 0.950 . S
H624 C634 0.950 . S
H625 C636 0.950 . S
H626 C638 0.950 . S
H627 C639 0.950 . S
C628 H620 0.950 . S
C628 C629 1.386 . S
C628 C630 1.391 . S
C629 C628 1.386 . S
C629 C633 1.393 . S
C630 H622 0.950 . S
C630 C628 1.391 . S
C630 C631 1.400 . S
C631 C630 1.400 . S
C631 C632 1.398 . S
C631 C637 1.491 . S
C632 H623 0.950 . S
C632 C631 1.398 . S
C632 C633 1.391 . S
C633 H621 0.950 . S
C633 C629 1.393 . S
C633 C632 1.391 . S
C634 H624 0.950 . S
C634 C635 1.386 . S
C634 C636 1.391 . S
C635 C634 1.386 . S
C635 C639 1.393 . S
C636 H625 0.950 . S
C636 C634 1.391 . S
C636 C637 1.400 . S
C637 C631 1.491 . S
C637 C636 1.400 . S
C637 C638 1.398 . S
C638 H626 0.950 . S
C638 C637 1.398 . S
C638 C639 1.391 . S
C639 H627 0.950 . S
C639 C635 1.393 . S
C639 C638 1.391 . S
H640 C648 0.950 . S
H641 C653 0.950 . S
H642 C650 0.950 . S
H643 C652 0.950 . S
H644 C654 0.950 . S
H645 C656 0.950 . S
H646 C658 0.950 . S
H647 C659 0.950 . S
C648 H640 0.950 . S
C648 C649 1.386 . S
C648 C650 1.391 . S
C649 C648 1.386 . S
C649 C653 1.393 . S
C650 H642 0.950 . S
C650 C648 1.391 . S
C650 C651 1.400 . S
C651 C650 1.400 . S
C651 C652 1.398 . S
C651 C657 1.491 . S
C652 H643 0.950 . S
C652 C651 1.398 . S
C652 C653 1.391 . S
C653 H641 0.950 . S
C653 C649 1.393 . S
C653 C652 1.391 . S
C654 H644 0.950 . S
C654 C655 1.386 . S
C654 C656 1.391 1_655 S
C655 C654 1.386 . S
C655 C659 1.393 . S
C656 H645 0.950 . S
C656 C654 1.391 1_455 S
C656 C657 1.400 . S
C657 C651 1.491 . S
C657 C656 1.400 . S
C657 C658 1.398 1_455 S
C658 H646 0.950 . S
C658 C657 1.398 1_655 S
C658 C659 1.391 . S
C659 H647 0.950 . S
C659 C655 1.393 . S
C659 C658 1.391 . S
H660 C668 0.950 . S
H661 C673 0.950 . S
H662 C670 0.950 . S
H663 C672 0.950 . S
H664 C674 0.950 . S
H665 C676 0.950 1_554 S
H666 C678 0.950 . S
H667 C679 0.950 . S
C668 H660 0.950 . S
C668 C669 1.386 . S
C668 C670 1.391 . S
C669 C668 1.386 . S
C669 C673 1.393 . S
C670 H662 0.950 . S
C670 C668 1.391 . S
C670 C671 1.400 . S
C671 C670 1.400 . S
C671 C672 1.398 1_565 S
C671 C677 1.491 1_564 S
C672 H663 0.950 . S
C672 C671 1.398 1_545 S
C672 C673 1.391 1_545 S
C673 H661 0.950 . S
C673 C669 1.393 . S
C673 C672 1.391 1_565 S
C674 H664 0.950 . S
C674 C675 1.386 . S
C674 C676 1.391 . S
C675 C674 1.386 . S
C675 C679 1.393 . S
C676 H665 0.950 1_556 S
C676 C674 1.391 . S
C676 C677 1.400 . S
C677 C671 1.491 1_546 S
C677 C676 1.400 . S
C677 C678 1.398 1_545 S
C678 H666 0.950 . S
C678 C677 1.398 1_565 S
C678 C679 1.391 1_565 S
C679 H667 0.950 . S
C679 C675 1.393 . S
C679 C678 1.391 1_545 S
H680 C688 0.950 . S
H681 C693 0.950 . S
H682 C690 0.950 . S
H683 C692 0.950 . S
H684 C694 0.950 . S
H685 C696 0.950 . S
H686 C698 0.950 . S
H687 C699 0.950 . S
C688 H680 0.950 . S
C688 C689 1.386 . S
C688 C690 1.391 . S
C689 C688 1.386 . S
C689 C693 1.393 . S
C690 H682 0.950 . S
C690 C688 1.391 . S
C690 C691 1.400 . S
C691 C690 1.400 . S
C691 C692 1.398 . S
C691 C697 1.491 . S
C692 H683 0.950 . S
C692 C691 1.398 . S
C692 C693 1.391 . S
C693 H681 0.950 . S
C693 C689 1.393 . S
C693 C692 1.391 . S
C694 H684 0.950 . S
C694 C695 1.386 . S
C694 C696 1.391 . S
C695 C694 1.386 . S
C695 C699 1.393 . S
C696 H685 0.950 . S
C696 C694 1.391 . S
C696 C697 1.400 . S
C697 C691 1.491 . S
C697 C696 1.400 . S
C697 C698 1.398 . S
C698 H686 0.950 . S
C698 C697 1.398 . S
C698 C699 1.391 . S
C699 H687 0.950 . S
C699 C695 1.393 . S
C699 C698 1.391 . S
H700 C708 0.950 . S
H701 C713 0.950 . S
H702 C710 0.950 1_655 S
H703 C712 0.950 . S
H704 C714 0.950 . S
H705 C716 0.950 1_455 S
H706 C718 0.950 . S
H707 C719 0.950 . S
C708 H700 0.950 . S
C708 C709 1.386 . S
C708 C710 1.391 . S
C709 C708 1.386 . S
C709 C713 1.393 . S
C710 H702 0.950 1_455 S
C710 C708 1.391 . S
C710 C711 1.400 . S
C711 C710 1.400 . S
C711 C712 1.398 . S
C711 C717 1.491 1_455 S
C712 H703 0.950 . S
C712 C711 1.398 . S
C712 C713 1.391 . S
C713 H701 0.950 . S
C713 C709 1.393 . S
C713 C712 1.391 . S
C714 H704 0.950 . S
C714 C715 1.386 . S
C714 C716 1.391 . S
C715 C714 1.386 . S
C715 C719 1.393 . S
C716 H705 0.950 1_655 S
C716 C714 1.391 . S
C716 C717 1.400 . S
C717 C711 1.491 1_655 S
C717 C716 1.400 . S
C717 C718 1.398 . S
C718 H706 0.950 . S
C718 C717 1.398 . S
C718 C719 1.391 . S
C719 H707 0.950 . S
C719 C715 1.393 . S
C719 C718 1.391 . S
H720 C728 0.950 . S
H721 C733 0.950 . S
H722 C730 0.950 . S
H723 C732 0.949 1_565 S
H724 C734 0.950 . S
H725 C736 0.950 . S
H726 C738 0.950 . S
H727 C739 0.950 . S
C728 H720 0.950 . S
C728 C729 1.386 . S
C728 C730 1.391 . S
C729 C728 1.386 . S
C729 C733 1.393 . S
C730 H722 0.950 . S
C730 C728 1.391 . S
C730 C731 1.400 . S
C731 C730 1.400 . S
C731 C732 1.398 . S
C731 C737 1.491 1_545 S
C732 H723 0.949 1_545 S
C732 C731 1.398 . S
C732 C733 1.391 . S
C733 H721 0.950 . S
C733 C729 1.393 . S
C733 C732 1.391 . S
C734 H724 0.950 . S
C734 C735 1.386 . S
C734 C736 1.391 . S
C735 C734 1.386 . S
C735 C739 1.393 . S
C736 H725 0.950 . S
C736 C734 1.391 . S
C736 C737 1.400 . S
C737 C731 1.491 1_565 S
C737 C736 1.400 . S
C737 C738 1.398 . S
C738 H726 0.950 . S
C738 C737 1.398 . S
C738 C739 1.391 . S
C739 H727 0.950 . S
C739 C735 1.393 . S
C739 C738 1.391 . S
H740 C748 0.950 . S
H741 C753 0.950 . S
H742 C750 0.950 . S
H743 C752 0.950 . S
H744 C754 0.950 . S
H745 C756 0.950 . S
H746 C758 0.950 . S
H747 C759 0.950 . S
C748 H740 0.950 . S
C748 C749 1.386 . S
C748 C750 1.391 . S
C749 C748 1.386 . S
C749 C753 1.393 . S
C750 H742 0.950 . S
C750 C748 1.391 . S
C750 C751 1.400 . S
C751 C750 1.400 . S
C751 C752 1.398 . S
C751 C757 1.491 . S
C752 H743 0.950 . S
C752 C751 1.398 . S
C752 C753 1.391 . S
C753 H741 0.950 . S
C753 C749 1.393 . S
C753 C752 1.391 . S
C754 H744 0.950 . S
C754 C755 1.386 . S
C754 C756 1.391 . S
C755 C754 1.386 . S
C755 C759 1.393 . S
C756 H745 0.950 . S
C756 C754 1.391 . S
C756 C757 1.400 . S
C757 C751 1.491 . S
C757 C756 1.400 . S
C757 C758 1.398 . S
C758 H746 0.950 . S
C758 C757 1.398 . S
C758 C759 1.391 . S
C759 H747 0.950 . S
C759 C755 1.393 . S
C759 C758 1.391 . S
H760 C768 0.950 . S
H761 C773 0.950 . S
H762 C770 0.950 . S
H763 C772 0.950 . S
H764 C774 0.954 . S
H765 C776 0.950 1_655 S
H766 C778 0.950 . S
H767 C779 0.950 . S
C768 H760 0.950 . S
C768 C769 1.386 . S
C768 C770 1.391 1_655 S
C769 C768 1.386 . S
C769 C773 1.393 . S
C770 H762 0.950 . S
C770 C768 1.391 1_455 S
C770 C771 1.400 1_455 S
C771 C770 1.400 1_655 S
C771 C772 1.398 . S
C771 C777 1.491 1_655 S
C772 H763 0.950 . S
C772 C771 1.398 . S
C772 C773 1.391 . S
C773 H761 0.950 . S
C773 C769 1.393 . S
C773 C772 1.391 . S
C774 H764 0.954 . S
C774 C775 1.386 . S
C774 C776 1.391 . S
C775 C774 1.386 . S
C775 C779 1.393 . S
C776 H765 0.950 1_455 S
C776 C774 1.391 . S
C776 C777 1.400 . S
C777 C771 1.491 1_455 S
C777 C776 1.400 . S
C777 C778 1.398 . S
C778 H766 0.950 . S
C778 C777 1.398 . S
C778 C779 1.391 . S
C779 H767 0.950 . S
C779 C775 1.393 . S
C779 C778 1.391 . S
H780 C788 0.950 . S
H781 C793 0.950 . S
H782 C790 0.950 . S
H783 C792 0.950 . S
H784 C794 0.950 . S
H785 C796 0.950 . S
H786 C798 0.948 1_455 S
H787 C799 0.950 . S
C788 H780 0.950 . S
C788 C789 1.386 . S
C788 C790 1.391 . S
C789 C788 1.386 . S
C789 C793 1.393 . S
C790 H782 0.950 . S
C790 C788 1.391 . S
C790 C791 1.400 . S
C791 C790 1.400 . S
C791 C792 1.398 . S
C791 C797 1.491 1_455 S
C792 H783 0.950 . S
C792 C791 1.398 . S
C792 C793 1.391 . S
C793 H781 0.950 . S
C793 C789 1.393 . S
C793 C792 1.391 . S
C794 H784 0.950 . S
C794 C795 1.386 . S
C794 C796 1.391 . S
C795 C794 1.386 . S
C795 C799 1.393 . S
C796 H785 0.950 . S
C796 C794 1.391 . S
C796 C797 1.400 . S
C797 C791 1.491 1_655 S
C797 C796 1.400 . S
C797 C798 1.398 . S
C798 H786 0.948 1_655 S
C798 C797 1.398 . S
C798 C799 1.391 . S
C799 H787 0.950 . S
C799 C795 1.393 . S
C799 C798 1.391 . S
H800 C808 0.950 . S
H801 C813 0.950 . S
H802 C810 0.918 1_545 S
H803 C812 0.950 . S
H804 C814 0.950 . S
H805 C816 0.950 . S
H806 C818 0.950 . S
H807 C819 0.950 . S
C808 H800 0.950 . S
C808 C809 1.386 . S
C808 C810 1.396 . S
C809 C808 1.386 . S
C809 C813 1.393 . S
C810 H802 0.918 1_565 S
C810 C808 1.396 . S
C810 C811 1.427 . S
C811 C810 1.427 . S
C811 C812 1.398 . S
C811 C817 1.491 1_565 S
C812 H803 0.950 . S
C812 C811 1.398 . S
C812 C813 1.391 . S
C813 H801 0.950 . S
C813 C809 1.393 . S
C813 C812 1.391 . S
C814 H804 0.950 . S
C814 C815 1.386 . S
C814 C816 1.391 1_545 S
C815 C814 1.386 . S
C815 C819 1.393 . S
C816 H805 0.950 . S
C816 C814 1.391 1_565 S
C816 C817 1.400 1_565 S
C817 C811 1.491 1_545 S
C817 C816 1.400 1_545 S
C817 C818 1.398 . S
C818 H806 0.950 . S
C818 C817 1.398 . S
C818 C819 1.391 . S
C819 H807 0.950 . S
C819 C815 1.393 . S
C819 C818 1.391 . S
H820 C828 0.950 . S
H821 C833 0.950 . S
H822 C830 0.950 . S
H823 C832 0.950 . S
H824 C834 0.950 . S
H825 C836 0.950 . S
H826 C838 0.950 . S
H827 C839 0.950 . S
C828 H820 0.950 . S
C828 C829 1.386 . S
C828 C830 1.391 . S
C829 C828 1.386 . S
C829 C833 1.393 . S
C830 H822 0.950 . S
C830 C828 1.391 . S
C830 C831 1.400 . S
C831 C830 1.400 . S
C831 C832 1.398 . S
C831 C837 1.491 . S
C832 H823 0.950 . S
C832 C831 1.398 . S
C832 C833 1.391 . S
C833 H821 0.950 . S
C833 C829 1.393 . S
C833 C832 1.391 . S
C834 H824 0.950 . S
C834 C835 1.386 . S
C834 C836 1.391 . S
C835 C834 1.386 . S
C835 C839 1.393 . S
C836 H825 0.950 . S
C836 C834 1.391 . S
C836 C837 1.400 . S
C837 C831 1.491 . S
C837 C836 1.400 . S
C837 C838 1.398 . S
C838 H826 0.950 . S
C838 C837 1.398 . S
C838 C839 1.391 . S
C839 H827 0.950 . S
C839 C835 1.393 . S
C839 C838 1.391 . S
H840 C848 0.950 1_545 S
H841 C853 0.950 . S
H842 C850 0.950 . S
H843 C852 0.950 . S
H844 C854 0.950 . S
H845 C856 0.950 1_565 S
H846 C858 0.950 . S
H847 C859 0.950 . S
C848 H840 0.950 1_565 S
C848 C849 1.386 . S
C848 C850 1.391 1_565 S
C849 C848 1.386 . S
C849 C853 1.393 . S
C850 H842 0.950 . S
C850 C848 1.391 1_545 S
C850 C851 1.416 . S
C851 C850 1.416 . S
C851 C852 1.371 1_545 S
C851 C857 1.502 . S
C852 H843 0.950 . S
C852 C851 1.371 1_565 S
C852 C853 1.391 . S
C853 H841 0.950 . S
C853 C849 1.393 . S
C853 C852 1.391 . S
C854 H844 0.950 . S
C854 C855 1.386 . S
C854 C856 1.391 . S
C855 C854 1.386 . S
C855 C859 1.393 . S
C856 H845 0.950 1_545 S
C856 C854 1.391 . S
C856 C857 1.400 . S
C857 C851 1.502 . S
C857 C856 1.400 . S
C857 C858 1.398 . S
C858 H846 0.950 . S
C858 C857 1.398 . S
C858 C859 1.391 . S
C859 H847 0.950 . S
C859 C855 1.393 . S
C859 C858 1.391 . S
H860 C868 0.950 . S
H861 C873 0.950 . S
H862 C870 0.950 . S
H863 C872 0.950 . S
H864 C874 0.950 . S
H865 C876 0.950 . S
H866 C878 0.950 . S
H867 C879 0.950 . S
C868 H860 0.950 . S
C868 C869 1.386 . S
C868 C870 1.391 . S
C869 C868 1.386 . S
C869 C873 1.393 . S
C870 H862 0.950 . S
C870 C868 1.391 . S
C870 C871 1.400 . S
C871 C870 1.400 . S
C871 C872 1.398 . S
C871 C877 1.491 . S
C872 H863 0.950 . S
C872 C871 1.398 . S
C872 C873 1.391 . S
C873 H861 0.950 . S
C873 C869 1.393 . S
C873 C872 1.391 . S
C874 H864 0.950 . S
C874 C875 1.386 . S
C874 C876 1.391 . S
C875 C874 1.386 . S
C875 C879 1.393 . S
C876 H865 0.950 . S
C876 C874 1.391 . S
C876 C877 1.400 . S
C877 C871 1.491 . S
C877 C876 1.400 . S
C877 C878 1.398 . S
C878 H866 0.950 . S
C878 C877 1.398 . S
C878 C879 1.391 . S
C879 H867 0.950 . S
C879 C875 1.393 . S
C879 C878 1.391 . S
H880 C888 0.950 . S
H881 C893 0.950 . S
H882 C890 0.950 1_455 S
H883 C892 0.950 . S
H884 C894 0.950 1_655 S
H885 C896 0.950 . S
H886 C898 0.950 . S
H887 C899 0.950 . S
C888 H880 0.950 . S
C888 C889 1.386 . S
C888 C890 1.391 1_556 S
C889 C888 1.386 . S
C889 C893 1.393 1_556 S
C890 H882 0.950 1_655 S
C890 C888 1.391 1_554 S
C890 C891 1.400 . S
C891 C890 1.400 . S
C891 C892 1.398 . S
C891 C897 1.498 . S
C892 H883 0.950 . S
C892 C891 1.398 . S
C892 C893 1.391 . S
C893 H881 0.950 . S
C893 C889 1.393 1_554 S
C893 C892 1.391 . S
C894 H884 0.950 1_455 S
C894 C895 1.386 . S
C894 C896 1.391 1_455 S
C895 C894 1.386 . S
C895 C899 1.393 . S
C896 H885 0.950 . S
C896 C894 1.391 1_655 S
C896 C897 1.404 . S
C897 C891 1.498 . S
C897 C896 1.404 . S
C897 C898 1.387 1_655 S
C898 H886 0.950 . S
C898 C897 1.387 1_455 S
C898 C899 1.391 . S
C899 H887 0.950 . S
C899 C895 1.393 . S
C899 C898 1.391 . S
H900 C908 0.950 . S
H901 C913 0.950 . S
H902 C910 0.933 1_565 S
H903 C912 0.950 . S
H904 C914 0.950 . S
H905 C916 0.950 1_545 S
H906 C918 0.950 . S
H907 C919 0.950 . S
C908 H900 0.950 . S
C908 C909 1.386 . S
C908 C910 1.409 . S
C909 C908 1.386 . S
C909 C913 1.393 . S
C910 H902 0.933 1_545 S
C910 C908 1.409 . S
C910 C911 1.400 . S
C911 C910 1.400 . S
C911 C912 1.398 . S
C911 C917 1.491 1_545 S
C912 H903 0.950 . S
C912 C911 1.398 . S
C912 C913 1.391 . S
C913 H901 0.950 . S
C913 C909 1.393 . S
C913 C912 1.391 . S
C914 H904 0.950 . S
C914 C915 1.386 . S
C914 C916 1.391 . S
C915 C914 1.386 . S
C915 C919 1.393 . S
C916 H905 0.950 1_565 S
C916 C914 1.391 . S
C916 C917 1.400 . S
C917 C911 1.491 1_565 S
C917 C916 1.400 . S
C917 C918 1.398 . S
C918 H906 0.950 . S
C918 C917 1.398 . S
C918 C919 1.391 . S
C919 H907 0.950 . S
C919 C915 1.393 . S
C919 C918 1.391 . S
H920 C928 0.950 . S
H921 C933 0.950 . S
H922 C930 0.950 . S
H923 C932 0.950 . S
H924 C934 0.950 . S
H925 C936 0.950 . S
H926 C938 0.950 . S
H927 C939 0.950 . S
C928 H920 0.950 . S
C928 C929 1.386 . S
C928 C930 1.391 . S
C929 C928 1.386 . S
C929 C933 1.393 . S
C930 H922 0.950 . S
C930 C928 1.391 . S
C930 C931 1.400 . S
C931 C930 1.400 . S
C931 C932 1.398 . S
C931 C937 1.491 . S
C932 H923 0.950 . S
C932 C931 1.398 . S
C932 C933 1.391 . S
C933 H921 0.950 . S
C933 C929 1.393 . S
C933 C932 1.391 . S
C934 H924 0.950 . S
C934 C935 1.386 . S
C934 C936 1.391 . S
C935 C934 1.386 . S
C935 C939 1.393 . S
C936 H925 0.950 . S
C936 C934 1.391 . S
C936 C937 1.400 . S
C937 C931 1.491 . S
C937 C936 1.400 . S
C937 C938 1.398 . S
C938 H926 0.950 . S
C938 C937 1.398 . S
C938 C939 1.391 . S
C939 H927 0.950 . S
C939 C935 1.393 . S
C939 C938 1.391 . S
H940 C948 0.950 . S
H941 C953 0.950 . S
H942 C950 0.950 . S
H943 C952 0.950 1_655 S
H944 C954 0.950 . S
H945 C956 0.950 . S
H946 C958 0.985 . S
H947 C959 0.950 . S
C948 H940 0.950 . S
C948 C949 1.386 . S
C948 C950 1.391 . S
C949 C948 1.386 . S
C949 C953 1.393 . S
C950 H942 0.950 . S
C950 C948 1.391 . S
C950 C951 1.400 . S
C951 C950 1.400 . S
C951 C952 1.398 . S
C951 C957 1.491 1_455 S
C952 H943 0.950 1_455 S
C952 C951 1.398 . S
C952 C953 1.391 . S
C953 H941 0.950 . S
C953 C949 1.393 . S
C953 C952 1.391 . S
C954 H944 0.950 . S
C954 C955 1.386 . S
C954 C956 1.391 . S
C955 C954 1.386 . S
C955 C959 1.393 . S
C956 H945 0.950 . S
C956 C954 1.391 . S
C956 C957 1.400 . S
C957 C951 1.491 1_655 S
C957 C956 1.400 . S
C957 C958 1.383 1_655 S
C958 H946 0.985 . S
C958 C957 1.383 1_455 S
C958 C959 1.372 1_455 S
C959 H947 0.950 . S
C959 C955 1.393 . S
C959 C958 1.372 1_655 S
H960 C968 0.950 . S
H961 C973 0.950 . S
H962 C970 0.950 . S
H963 C972 0.950 . S
H964 C974 0.950 . S
H965 C976 0.950 . S
H966 C978 0.950 . S
H967 C979 0.950 . S
C968 H960 0.950 . S
C968 C969 1.386 . S
C968 C970 1.391 . S
C969 C968 1.386 . S
C969 C973 1.393 . S
C970 H962 0.950 . S
C970 C968 1.391 . S
C970 C971 1.400 . S
C971 C970 1.400 . S
C971 C972 1.398 . S
C971 C977 1.491 . S
C972 H963 0.950 . S
C972 C971 1.398 . S
C972 C973 1.391 . S
C973 H961 0.950 . S
C973 C969 1.393 . S
C973 C972 1.391 . S
C974 H964 0.950 . S
C974 C975 1.386 . S
C974 C976 1.391 . S
C975 C974 1.386 . S
C975 C979 1.393 . S
C976 H965 0.950 . S
C976 C974 1.391 . S
C976 C977 1.400 . S
C977 C971 1.491 . S
C977 C976 1.400 . S
C977 C978 1.398 . S
C978 H966 0.950 . S
C978 C977 1.398 . S
C978 C979 1.391 . S
C979 H967 0.950 . S
C979 C975 1.393 . S
C979 C978 1.391 . S
H980 C988 0.950 . S
H981 C993 0.950 . S
H982 C990 0.950 . S
H983 C992 0.950 . S
H984 C994 0.950 1_554 S
H985 C996 0.950 . S
H986 C998 0.950 . S
H987 C999 0.950 . S
C988 H980 0.950 . S
C988 C989 1.386 . S
C988 C990 1.391 . S
C989 C988 1.386 . S
C989 C993 1.393 . S
C990 H982 0.950 . S
C990 C988 1.391 . S
C990 C991 1.400 . S
C991 C990 1.400 . S
C991 C992 1.398 . S
C991 C997 1.491 . S
C992 H983 0.950 . S
C992 C991 1.398 . S
C992 C993 1.391 . S
C993 H981 0.950 . S
C993 C989 1.393 . S
C993 C992 1.391 . S
C994 H984 0.950 1_556 S
C994 C995 1.386 . S
C994 C996 1.391 . S
C995 C994 1.386 . S
C995 C999 1.393 . S
C996 H985 0.950 . S
C996 C994 1.391 . S
C996 C997 1.400 . S
C997 C991 1.491 . S
C997 C996 1.400 . S
C997 C998 1.398 . S
C998 H986 0.950 . S
C998 C997 1.398 . S
C998 C999 1.391 . S
C999 H987 0.950 . S
C999 C995 1.393 . S
C999 C998 1.391 . S
H1000 C1008 0.950 . S
H1001 C1013 0.950 . S
H1002 C1010 0.950 . S
H1003 C1012 0.950 . S
H1004 C1014 0.950 . S
H1005 C1016 0.950 . S
H1006 C1018 0.950 . S
H1007 C1019 0.950 . S
C1008 H1000 0.950 . S
C1008 C1009 1.386 . S
C1008 C1010 1.391 . S
C1009 C1008 1.386 . S
C1009 C1013 1.393 . S
C1010 H1002 0.950 . S
C1010 C1008 1.391 . S
C1010 C1011 1.400 . S
C1011 C1010 1.400 . S
C1011 C1012 1.398 . S
C1011 C1017 1.491 . S
C1012 H1003 0.950 . S
C1012 C1011 1.398 . S
C1012 C1013 1.391 . S
C1013 H1001 0.950 . S
C1013 C1009 1.393 . S
C1013 C1012 1.391 . S
C1014 H1004 0.950 . S
C1014 C1015 1.386 . S
C1014 C1016 1.391 . S
C1015 C1014 1.386 . S
C1015 C1019 1.393 . S
C1016 H1005 0.950 . S
C1016 C1014 1.391 . S
C1016 C1017 1.400 . S
C1017 C1011 1.491 . S
C1017 C1016 1.400 . S
C1017 C1018 1.398 . S
C1018 H1006 0.950 . S
C1018 C1017 1.398 . S
C1018 C1019 1.391 . S
C1019 H1007 0.950 . S
C1019 C1015 1.393 . S
C1019 C1018 1.391 . S
H1020 C1028 0.950 . S
H1021 C1033 0.950 . S
H1022 C1030 0.950 . S
H1023 C1032 0.950 . S
H1024 C1034 0.950 . S
H1025 C1036 0.950 . S
H1026 C1038 0.950 . S
H1027 C1039 0.950 . S
C1028 H1020 0.950 . S
C1028 C1029 1.386 . S
C1028 C1030 1.391 . S
C1029 C1028 1.386 . S
C1029 C1033 1.393 . S
C1030 H1022 0.950 . S
C1030 C1028 1.391 . S
C1030 C1031 1.400 . S
C1031 C1030 1.400 . S
C1031 C1032 1.398 . S
C1031 C1037 1.491 . S
C1032 H1023 0.950 . S
C1032 C1031 1.398 . S
C1032 C1033 1.391 . S
C1033 H1021 0.950 . S
C1033 C1029 1.393 . S
C1033 C1032 1.391 . S
C1034 H1024 0.950 . S
C1034 C1035 1.386 . S
C1034 C1036 1.391 . S
C1035 C1034 1.386 . S
C1035 C1039 1.393 . S
C1036 H1025 0.950 . S
C1036 C1034 1.391 . S
C1036 C1037 1.400 . S
C1037 C1031 1.491 . S
C1037 C1036 1.400 . S
C1037 C1038 1.398 . S
C1038 H1026 0.950 . S
C1038 C1037 1.398 . S
C1038 C1039 1.391 . S
C1039 H1027 0.950 . S
C1039 C1035 1.393 . S
C1039 C1038 1.391 . S
H1040 C1048 0.950 . S
H1041 C1053 0.950 . S
H1042 C1050 0.950 . S
H1043 C1052 0.950 . S
H1044 C1054 0.950 . S
H1045 C1056 0.950 . S
H1046 C1058 0.950 . S
H1047 C1059 0.950 . S
C1048 H1040 0.950 . S
C1048 C1049 1.386 . S
C1048 C1050 1.391 . S
C1049 C1048 1.386 . S
C1049 C1053 1.393 . S
C1050 H1042 0.950 . S
C1050 C1048 1.391 . S
C1050 C1051 1.400 . S
C1051 C1050 1.400 . S
C1051 C1052 1.398 . S
C1051 C1057 1.491 . S
C1052 H1043 0.950 . S
C1052 C1051 1.398 . S
C1052 C1053 1.391 . S
C1053 H1041 0.950 . S
C1053 C1049 1.393 . S
C1053 C1052 1.391 . S
C1054 H1044 0.950 . S
C1054 C1055 1.386 . S
C1054 C1056 1.391 . S
C1055 C1054 1.386 . S
C1055 C1059 1.393 . S
C1056 H1045 0.950 . S
C1056 C1054 1.391 . S
C1056 C1057 1.400 . S
C1057 C1051 1.491 . S
C1057 C1056 1.400 . S
C1057 C1058 1.398 . S
C1058 H1046 0.950 . S
C1058 C1057 1.398 . S
C1058 C1059 1.391 . S
C1059 H1047 0.950 . S
C1059 C1055 1.393 . S
C1059 C1058 1.391 . S
H1060 C1068 0.950 . S
H1061 C1073 0.950 . S
H1062 C1070 0.950 . S
H1063 C1072 0.950 . S
H1064 C1074 0.950 . S
H1065 C1076 0.950 . S
H1066 C1078 0.950 . S
H1067 C1079 0.950 . S
C1068 H1060 0.950 . S
C1068 C1069 1.386 . S
C1068 C1070 1.391 . S
C1069 C1068 1.386 . S
C1069 C1073 1.393 . S
C1070 H1062 0.950 . S
C1070 C1068 1.391 . S
C1070 C1071 1.400 . S
C1071 C1070 1.400 . S
C1071 C1072 1.398 . S
C1071 C1077 1.491 . S
C1072 H1063 0.950 . S
C1072 C1071 1.398 . S
C1072 C1073 1.391 . S
C1073 H1061 0.950 . S
C1073 C1069 1.393 . S
C1073 C1072 1.391 . S
C1074 H1064 0.950 . S
C1074 C1075 1.386 . S
C1074 C1076 1.391 . S
C1075 C1074 1.386 . S
C1075 C1079 1.393 . S
C1076 H1065 0.950 . S
C1076 C1074 1.391 . S
C1076 C1077 1.400 . S
C1077 C1071 1.491 . S
C1077 C1076 1.400 . S
C1077 C1078 1.398 . S
C1078 H1066 0.950 . S
C1078 C1077 1.398 . S
C1078 C1079 1.391 . S
C1079 H1067 0.950 . S
C1079 C1075 1.393 . S
C1079 C1078 1.391 . S
C369 C10 0.745 . S
C375 C250 0.745 . S
C389 C40 1.052 . S
C395 C271 1.040 . S
C409 C70 0.717 . S
C415 C310 0.713 . S
C429 C331 1.077 . S
C435 C100 1.069 . S
C449 C130 0.731 . S
C455 C190 0.727 . S
C469 C211 1.074 . S
C475 C160 1.084 . S
C489 C316 2.142 . S
C495 C16 2.173 . S
C509 N344 1.531 . S
C515 C46 1.639 . S
C529 C76 2.166 . S
C535 C196 2.149 . S
C549 N224 1.551 . S
C555 C106 1.638 . S
C569 C256 2.155 . S
C575 C136 2.162 . S
C589 C166 1.641 . S
C595 N284 1.543 . S
C609 C237 0.710 . S
C615 N6 0.732 . S
C629 N246 0.544 . S
C635 N36 0.608 . S
C649 C297 0.704 . S
C655 N66 0.683 . S
C669 N96 0.561 . S
C675 N306 0.621 . S
C689 N126 0.758 . S
C695 C357 0.687 . S
C709 N156 0.635 . S
C715 N186 0.597 . S
C729 C1 0.650 . S
C735 C91 0.655 . S
C749 C31 0.650 . S
C755 C121 0.646 . S
C769 C61 0.622 . S
C775 C151 0.632 . S
C789 C280 0.502 . S
C795 C181 0.545 . S
C809 C220 0.490 . S
C815 C301 0.512 . S
C829 C340 0.502 . S
C835 C241 0.530 . S
C849 N216 2.030 . S
C855 C27 2.013 . S
C869 C267 2.142 1_556 S
C875 C57 2.167 . S
C889 C87 2.000 . S
C895 N276 2.039 . S
C909 C327 2.146 . S
C915 C117 2.170 . S
C929 N336 2.031 . S
C935 C147 2.014 . S
C949 C177 2.170 . S
C955 C207 2.143 . S
C969 N14 0.608 . S
C975 N314 0.606 . S
C989 N44 1.143 . S
C995 C346 1.114 1_556 S
C1009 N74 0.597 . S
C1015 N194 0.599 . S
C1029 N104 1.143 . S
C1035 C226 1.122 . S
C1049 N134 0.598 . S
C1055 N254 0.599 . S
C1069 C286 1.134 . S
C1075 N164 1.137 . S
