# Generated by pormake.
# Topology unn, (4)-cn, num edge types: 1
# Building blocks:
#     Node 0, Type 0, BuildingBlock: MUDLON_clean_sbu_0, # of connection points: 4
#     Node 1, Type 0, BuildingBlock: MUDLON_clean_sbu_0, # of connection points: 4
#     Node 2, Type 0, BuildingBlock: MUDLON_clean_sbu_0, # of connection points: 4
#     Node 3, Type 0, BuildingBlock: MUDLON_clean_sbu_0, # of connection points: 4
#     Node 4, Type 0, BuildingBlock: MUDLON_clean_sbu_0, # of connection points: 4
#     Node 5, Type 0, BuildingBlock: MUDLON_clean_sbu_0, # of connection points: 4
#     Node 6, Type 0, BuildingBlock: MUDLON_clean_sbu_0, # of connection points: 4
#     Node 7, Type 0, BuildingBlock: MUDLON_clean_sbu_0, # of connection points: 4
#     Node 8, Type 0, BuildingBlock: MUDLON_clean_sbu_0, # of connection points: 4
#     Node 9, Type 0, BuildingBlock: MUDLON_clean_sbu_0, # of connection points: 4
#     Node 10, Type 0, BuildingBlock: MUDLON_clean_sbu_0, # of connection points: 4
#     Node 11, Type 0, BuildingBlock: MUDLON_clean_sbu_0, # of connection points: 4
#     Node 12, Type 0, BuildingBlock: MUDLON_clean_sbu_0, # of connection points: 4
#     Node 13, Type 0, BuildingBlock: MUDLON_clean_sbu_0, # of connection points: 4
#     Node 14, Type 0, BuildingBlock: MUDLON_clean_sbu_0, # of connection points: 4
#     Node 15, Type 0, BuildingBlock: MUDLON_clean_sbu_0, # of connection points: 4
#     Node 16, Type 0, BuildingBlock: MUDLON_clean_sbu_0, # of connection points: 4
#     Node 17, Type 0, BuildingBlock: MUDLON_clean_sbu_0, # of connection points: 4
#     Edge 18, Type (0, 0), BuildingBlock: UVAHIK_clean_linker_0, # of connection points: 2
#     Edge 19, Type (0, 0), BuildingBlock: UVAHIK_clean_linker_0, # of connection points: 2
#     Edge 20, Type (0, 0), BuildingBlock: UVAHIK_clean_linker_0, # of connection points: 2
#     Edge 21, Type (0, 0), BuildingBlock: UVAHIK_clean_linker_0, # of connection points: 2
#     Edge 22, Type (0, 0), BuildingBlock: UVAHIK_clean_linker_0, # of connection points: 2
#     Edge 23, Type (0, 0), BuildingBlock: UVAHIK_clean_linker_0, # of connection points: 2
#     Edge 24, Type (0, 0), BuildingBlock: UVAHIK_clean_linker_0, # of connection points: 2
#     Edge 25, Type (0, 0), BuildingBlock: UVAHIK_clean_linker_0, # of connection points: 2
#     Edge 26, Type (0, 0), BuildingBlock: UVAHIK_clean_linker_0, # of connection points: 2
#     Edge 27, Type (0, 0), BuildingBlock: UVAHIK_clean_linker_0, # of connection points: 2
#     Edge 28, Type (0, 0), BuildingBlock: UVAHIK_clean_linker_0, # of connection points: 2
#     Edge 29, Type (0, 0), BuildingBlock: UVAHIK_clean_linker_0, # of connection points: 2
#     Edge 30, Type (0, 0), BuildingBlock: UVAHIK_clean_linker_0, # of connection points: 2
#     Edge 31, Type (0, 0), BuildingBlock: UVAHIK_clean_linker_0, # of connection points: 2
#     Edge 32, Type (0, 0), BuildingBlock: UVAHIK_clean_linker_0, # of connection points: 2
#     Edge 33, Type (0, 0), BuildingBlock: UVAHIK_clean_linker_0, # of connection points: 2
#     Edge 34, Type (0, 0), BuildingBlock: UVAHIK_clean_linker_0, # of connection points: 2
#     Edge 35, Type (0, 0), BuildingBlock: UVAHIK_clean_linker_0, # of connection points: 2
#     Edge 36, Type (0, 0), BuildingBlock: UVAHIK_clean_linker_0, # of connection points: 2
#     Edge 37, Type (0, 0), BuildingBlock: UVAHIK_clean_linker_0, # of connection points: 2
#     Edge 38, Type (0, 0), BuildingBlock: UVAHIK_clean_linker_0, # of connection points: 2
#     Edge 39, Type (0, 0), BuildingBlock: UVAHIK_clean_linker_0, # of connection points: 2
#     Edge 40, Type (0, 0), BuildingBlock: UVAHIK_clean_linker_0, # of connection points: 2
#     Edge 41, Type (0, 0), BuildingBlock: UVAHIK_clean_linker_0, # of connection points: 2
#     Edge 42, Type (0, 0), BuildingBlock: UVAHIK_clean_linker_0, # of connection points: 2
#     Edge 43, Type (0, 0), BuildingBlock: UVAHIK_clean_linker_0, # of connection points: 2
#     Edge 44, Type (0, 0), BuildingBlock: UVAHIK_clean_linker_0, # of connection points: 2
#     Edge 45, Type (0, 0), BuildingBlock: UVAHIK_clean_linker_0, # of connection points: 2
#     Edge 46, Type (0, 0), BuildingBlock: UVAHIK_clean_linker_0, # of connection points: 2
#     Edge 47, Type (0, 0), BuildingBlock: UVAHIK_clean_linker_0, # of connection points: 2
#     Edge 48, Type (0, 0), BuildingBlock: UVAHIK_clean_linker_0, # of connection points: 2
#     Edge 49, Type (0, 0), BuildingBlock: UVAHIK_clean_linker_0, # of connection points: 2
#     Edge 50, Type (0, 0), BuildingBlock: UVAHIK_clean_linker_0, # of connection points: 2
#     Edge 51, Type (0, 0), BuildingBlock: UVAHIK_clean_linker_0, # of connection points: 2
#     Edge 52, Type (0, 0), BuildingBlock: UVAHIK_clean_linker_0, # of connection points: 2
#     Edge 53, Type (0, 0), BuildingBlock: UVAHIK_clean_linker_0, # of connection points: 2
# Relax obj value: 0.098
# Max RMSD: 0.215
# Mean RMSD: 0.212
data_MOF--net-unn--node1-MUDLON_clean_sbu_0--edge1-UVAHIK_clean_linker_0
_symmetry_space_group_name_H-M    P1
_symmetry_Int_Tables_number       1
_symmetry_cell_setting            triclinic
loop_
_symmetry_equiv_pos_as_xyz
'x, y, z'
_cell_length_a     61.343774
_cell_length_b     61.15355
_cell_length_c     53.622274
_cell_angle_alpha  90.535115
_cell_angle_beta   89.552151
_cell_angle_gamma 120.4539
loop_
_atom_site_label
_atom_site_type_symbol
_atom_site_fract_x
_atom_site_fract_y
_atom_site_fract_z
_atom_type_partial_charge
Mg0 Mg 0.99789 0.74418 0.24283 0.0
C1 C 1.02101 0.75533 0.19336 0.0
O2 O 1.02585 0.77753 0.20199 0.0
C3 C 0.98922 0.72379 0.29277 0.0
O4 O 0.99283 0.74678 0.29539 0.0
C5 C 0.94246 0.72896 0.24322 0.0
O6 O 0.94235 0.71509 0.26182 0.0
O7 O 0.96355 0.74495 0.23338 0.0
O8 O 1.00945 0.73609 0.20739 0.0
O9 O 0.03164 0.77716 0.25851 0.0
C10 C 0.04891 0.77167 0.26164 0.0
O11 O 0.04444 0.74927 0.25404 0.0
O12 O 0.98915 0.71559 0.27087 0.0
Mg13 Mg 0.3493 0.26867 0.24096 0.0
C14 C 0.37893 0.31246 0.27508 0.0
O15 O 0.36361 0.31891 0.26491 0.0
C16 C 0.36723 0.28553 0.18796 0.0
O17 O 0.379 0.27292 0.1917 0.0
C18 C 0.30772 0.27974 0.25109 0.0
O19 O 0.31877 0.29353 0.23128 0.0
O20 O 0.31483 0.26461 0.25861 0.0
O21 O 0.37859 0.29262 0.26724 0.0
O22 O 0.3521 0.23508 0.23177 0.0
C23 C 0.37211 0.23494 0.23773 0.0
O24 O 0.3887 0.25318 0.25217 0.0
O25 O 0.35456 0.28772 0.20567 0.0
Mg26 Mg 0.79345 0.07767 0.24048 0.0
C27 C 0.77874 0.09938 0.28264 0.0
O28 O 0.80299 0.11598 0.28048 0.0
C29 C 0.79347 0.06329 0.18906 0.0
O30 O 0.81696 0.07325 0.19665 0.0
C31 C 0.79913 0.04648 0.28135 0.0
O32 O 0.80191 0.06551 0.29526 0.0
O33 O 0.79851 0.04814 0.25772 0.0
O34 O 0.76843 0.08143 0.26676 0.0
O35 O 0.82521 0.11562 0.23137 0.0
C36 C 0.81806 0.13122 0.22565 0.0
O37 O 0.79385 0.12361 0.227 0.0
O38 O 0.77702 0.06215 0.20442 0.0
Mg39 Mg 1.0017 0.28586 0.75097 0.0
C40 C 0.94777 0.26006 0.73855 0.0
O41 O 0.95511 0.2843 0.73974 0.0
C42 C 0.05371 0.29775 0.76304 0.0
O43 O 0.05689 0.31236 0.74392 0.0
C44 C 1.01561 0.28402 0.69937 0.0
O45 O 1.00795 0.26121 0.70804 0.0
O46 O 1.01534 0.30042 0.71392 0.0
O47 O 0.96374 0.25336 0.74402 0.0
O48 O 0.998 0.31198 0.77574 0.0
C49 C 1.01665 0.334 0.78016 0.0
O50 O 0.03732 0.34238 0.7667 0.0
O51 O 0.03117 0.28162 0.76969 0.0
Mg52 Mg 0.7995 0.71603 0.73922 0.0
C53 C 0.80136 0.7492 0.7826 0.0
O54 O 0.79913 0.72976 0.79504 0.0
C55 C 0.83454 0.69414 0.73855 0.0
O56 O 0.82012 0.68132 0.75749 0.0
C57 C 0.75386 0.68475 0.77054 0.0
O58 O 0.7476 0.70015 0.7601 0.0
O59 O 0.77393 0.68535 0.76329 0.0
O60 O 0.80545 0.75022 0.75917 0.0
O61 O 0.78156 0.71479 0.70418 0.0
C62 C 0.77187 0.72861 0.70074 0.0
O63 O 0.77131 0.74248 0.71931 0.0
O64 O 0.83159 0.71138 0.72878 0.0
Mg65 Mg 0.33733 0.0805 0.74923 0.0
C66 C 0.31832 0.04805 0.7033 0.0
O67 O 0.29707 0.0395 0.71583 0.0
C68 C 0.3824 0.1025 0.78441 0.0
O69 O 0.3829 0.12384 0.77994 0.0
C70 C 0.34081 0.12375 0.71968 0.0
O71 O 0.32895 0.10465 0.70406 0.0
O72 O 0.34484 0.1191 0.74175 0.0
O73 O 0.33884 0.06494 0.7132 0.0
O74 O 0.30263 0.05161 0.76772 0.0
C75 C 0.3025 0.04843 0.79119 0.0
O76 O 0.32143 0.06561 0.80453 0.0
O77 O 0.36662 0.08245 0.77291 0.0
Mg78 Mg 0.66659 0.06998 0.58197 0.0
C79 C 0.69528 0.08607 0.53518 0.0
O80 O 0.70057 0.10759 0.54596 0.0
C81 C 0.6534 0.04562 0.62996 0.0
O82 O 0.65284 0.0667 0.6328 0.0
C83 C 0.61296 0.04487 0.56873 0.0
O84 O 0.61749 0.02646 0.57324 0.0
O85 O 0.63081 0.06768 0.57212 0.0
O86 O 0.68127 0.06547 0.54668 0.0
O87 O 0.69793 0.10292 0.60083 0.0
C88 C 0.71581 0.09849 0.60488 0.0
O89 O 0.71312 0.07696 0.5966 0.0
O90 O 0.65803 0.04012 0.60839 0.0
Mg91 Mg 1.00947 0.59946 0.57095 0.0
C92 C 0.97213 0.59091 0.61305 0.0
O93 O 0.98983 0.59079 0.62656 0.0
C94 C 0.03748 0.57918 0.5449 0.0
O95 O 0.04858 0.60333 0.53908 0.0
C96 C 0.04649 0.61775 0.61276 0.0
O97 O 0.03976 0.59364 0.612 0.0
O98 O 0.03815 0.62627 0.59614 0.0
O99 O 0.97392 0.59082 0.58936 0.0
O100 O 1.00941 0.61793 0.53674 0.0
C101 C 0.99883 0.60385 0.51785 0.0
O102 O 0.98897 0.57921 0.51989 0.0
O103 O 1.01869 0.57032 0.55989 0.0
Mg104 Mg 0.45749 0.41006 0.5776 0.0
C105 C 0.45848 0.39269 0.52615 0.0
O106 O 0.48103 0.39891 0.53441 0.0
C107 C 0.41198 0.39016 0.60972 0.0
O108 O 0.41008 0.36912 0.60102 0.0
C109 C 0.4817 0.45914 0.5523 0.0
O110 O 0.45916 0.44571 0.54231 0.0
O111 O 0.48774 0.4493 0.56988 0.0
O112 O 0.44307 0.39446 0.54085 0.0
O113 O 0.46483 0.38325 0.59809 0.0
C114 C 0.45394 0.36043 0.59003 0.0
O115 O 0.44245 0.35529 0.56839 0.0
O116 O 0.42918 0.41125 0.60107 0.0
Mg117 Mg 0.66947 0.62358 0.07796 0.0
C118 C 0.69777 0.63342 0.03012 0.0
O119 O 0.70525 0.61967 0.04196 0.0
C120 C 0.64567 0.6446 0.11323 0.0
O121 O 0.6249 0.62369 0.10677 0.0
C122 C 0.6273 0.57783 0.05158 0.0
O123 O 0.64648 0.58227 0.03713 0.0
O124 O 0.63163 0.59064 0.07166 0.0
O125 O 0.68314 0.63939 0.04127 0.0
O126 O 0.69922 0.61961 0.09588 0.0
C127 C 0.70144 0.62156 0.11952 0.0
O128 O 0.68318 0.62122 0.13278 0.0
O129 O 0.66635 0.65015 0.10249 0.0
Mg130 Mg 0.47083 0.05787 0.07226 0.0
C131 C 0.45977 0.09852 0.0859 0.0
O132 O 0.44537 0.08753 0.06641 0.0
C133 C 0.49434 0.02785 0.05985 0.0
O134 O 0.46985 1.0118 0.06026 0.0
C135 C 0.42313 0.02559 0.10215 0.0
O136 O 0.41542 0.03897 0.09001 0.0
O137 O 0.44433 0.02787 0.09646 0.0
O138 O 0.47548 0.09171 0.09217 0.0
O139 O 0.45652 0.05723 0.03529 0.0
C140 C 0.47097 0.07653 0.02219 0.0
O141 O 0.4922 0.09443 0.03202 0.0
O142 O 0.50222 0.05098 0.06554 0.0
Mg143 Mg 1.00569 0.41597 0.08075 0.0
C144 C 0.03347 0.42002 0.03206 0.0
O145 O 0.04691 0.44401 0.03862 0.0
C146 C 1.02804 0.43336 0.13129 0.0
O147 O 1.01358 0.44342 0.12987 0.0
C148 C 1.02771 0.47203 0.07384 0.0
O149 O 0.04566 0.47137 0.08641 0.0
O150 O 1.00704 0.45129 0.06998 0.0
O151 O 1.01675 0.4043 0.04696 0.0
O152 O 0.97035 0.38162 0.09142 0.0
C153 C 0.95933 0.37823 0.11246 0.0
O154 O 0.96634 0.39769 0.12752 0.0
O155 O 0.0302 0.42205 0.11223 0.0
Mg156 Mg 0.33293 0.40164 0.91581 0.0
C157 C 0.35747 0.411 0.86558 0.0
O158 O 0.36815 0.43435 0.87419 0.0
C159 C 0.33704 0.36062 0.9439 0.0
O160 O 0.35187 0.36258 0.9252 0.0
C161 C 0.27705 0.38096 0.91274 0.0
O162 O 0.27789 0.36308 0.92533 0.0
O163 O 0.29774 0.40134 0.908 0.0
O164 O 0.34241 0.39277 0.87952 0.0
O165 O 0.36624 0.43552 0.93123 0.0
C166 C 0.38656 0.43474 0.92903 0.0
O167 O 0.38569 0.41565 0.9167 0.0
O168 O 0.32572 0.37318 0.94348 0.0
Mg169 Mg 0.67715 0.92548 0.90899 0.0
C170 C 0.7122 0.94094 0.95124 0.0
O171 O 0.69953 0.91609 0.95301 0.0
C172 C 0.66692 0.9285 0.85517 0.0
O173 O 0.65719 0.90392 0.85756 0.0
C174 C 0.64943 0.94555 0.93353 0.0
O175 O 0.66999 0.96425 0.92348 0.0
O176 O 0.64514 0.92299 0.93019 0.0
O177 O 0.70838 0.95107 0.93248 0.0
O178 O 0.68273 0.89348 0.89976 0.0
C179 C 0.70148 0.90051 0.88495 0.0
O180 O 0.71405 0.9244 0.87811 0.0
O181 O 0.67725 0.94289 0.87394 0.0
Mg182 Mg 0.12488 0.74503 0.90566 0.0
C183 C 0.0812 0.73285 0.93935 0.0
O184 O 0.07426 0.71011 0.93063 0.0
C185 C 0.10943 0.7421 0.85141 0.0
O186 O 0.12186 0.76693 0.85364 0.0
C187 C 0.11366 0.69287 0.91891 0.0
O188 O 0.10038 0.68885 0.89854 0.0
O189 O 0.12858 0.71576 0.92578 0.0
O190 O 0.10088 0.75182 0.93041 0.0
O191 O 0.15821 0.78168 0.89605 0.0
C192 C 0.1623 0.80207 0.90683 0.0
O193 O 0.14851 0.80053 0.92634 0.0
O194 O 0.10674 0.72864 0.87038 0.0
Mg195 Mg 0.33595 0.95521 0.40867 0.0
C196 C 0.28363 0.92896 0.39245 0.0
O197 O 0.29154 0.95335 0.39217 0.0
C198 C 0.38622 0.97532 0.42833 0.0
O199 O 0.38488 0.99424 0.41855 0.0
C200 C 0.34478 0.95589 0.3553 0.0
O201 O 0.33413 0.93189 0.36154 0.0
O202 O 0.34917 0.97225 0.37231 0.0
O203 O 0.29881 0.92201 0.40014 0.0
O204 O 0.32961 0.97842 0.43519 0.0
C205 C 0.31221 0.96632 0.45114 0.0
O206 O 0.29811 0.94156 0.44895 0.0
O207 O 0.36694 0.95307 0.42639 0.0
Mg208 Mg 0.13517 0.38894 0.40874 0.0
C209 C 0.13998 0.44121 0.41824 0.0
O210 O 0.1398 0.44228 0.39379 0.0
C211 C 0.16415 0.36228 0.39857 0.0
O212 O 0.14327 0.34418 0.40871 0.0
C213 C 0.12485 0.3623 0.45608 0.0
O214 O 0.14927 0.37864 0.45674 0.0
O215 O 0.11276 0.36063 0.43632 0.0
O216 O 0.14135 0.42322 0.42841 0.0
O217 O 0.11423 0.38465 0.37495 0.0
C218 C 0.09613 0.38905 0.37367 0.0
O219 O 0.0882 0.39493 0.39409 0.0
O220 O 0.1672 0.38447 0.39714 0.0
Mg221 Mg 0.66588 0.75037 0.41417 0.0
C222 C 0.65088 0.73161 0.36335 0.0
O223 O 0.63202 0.73385 0.37209 0.0
C224 C 0.69125 0.76287 0.4618 0.0
O225 O 0.6738 0.76923 0.46388 0.0
C226 C 0.69206 0.80738 0.41005 0.0
O227 O 0.70921 0.80477 0.42195 0.0
O228 O 0.67058 0.78772 0.40578 0.0
O229 O 0.66939 0.73694 0.37766 0.0
O230 O 0.63148 0.72015 0.43225 0.0
C231 C 0.62522 0.69758 0.42581 0.0
O232 O 0.63751 0.69432 0.40736 0.0
O233 O 0.69415 0.75477 0.44083 0.0
C234 C 1.01804 0.72882 0.15608 0.0
C235 C 1.02717 0.7528 0.16717 0.0
C236 C 1.02255 0.72671 0.1308 0.0
C237 C 0.06482 0.7625 0.07871 0.0
H238 H 1.01 0.71359 0.03705 0.0
C239 C 0.07828 0.75986 0.97308 0.0
C240 C 0.06971 0.73572 0.96259 0.0
C241 C 0.07078 0.76233 -0.0029 0.0
C242 C 1.02555 0.72722 0.04846 0.0
H243 H 0.04862 0.79337 0.16058 0.0
H244 H 0.0565 0.78966 0.11665 0.0
H245 H 1.00257 0.71651 0.08146 0.0
H246 H 0.04526 0.69529 0.96849 0.0
H247 H 0.03249 0.6996 0.01043 0.0
H248 H 0.08794 0.773 0.04599 0.0
C249 C 0.04594 0.7725 0.12745 0.0
C250 C 1.0213 0.72884 0.0739 0.0
C251 C 0.04133 0.7746 0.15262 0.0
C252 C 0.05225 0.71418 0.97602 0.0
C253 C 0.04485 0.71665 9e-05 0.0
C254 C 0.06909 0.76083 0.05336 0.0
C255 C 0.03643 0.74854 0.1162 0.0
C256 C 0.04091 0.7465 0.08928 0.0
C257 C 0.05463 0.74072 0.0112 0.0
C258 C 0.04952 0.74317 0.03791 0.0
H259 H 1.00705 0.71167 0.1668 0.0
H260 H 1.01524 0.708 0.12269 0.0
H261 H 0.0804 0.77605 0.09016 0.0
H262 H 0.09158 0.77685 0.96314 0.0
H263 H 0.0782 0.78118 0.00491 0.0
C264 C 0.35349 0.33835 0.97011 0.0
C265 C 0.3371 0.34793 0.96724 0.0
C266 C 0.35643 0.33011 0.99343 0.0
C267 C 0.35131 0.34176 0.0597 0.0
H268 H 0.35576 0.2816 0.07079 0.0
C269 C 0.35124 0.30541 0.1582 0.0
C270 C 0.36637 0.29469 0.16275 0.0
C271 C 0.34867 0.31214 0.13407 0.0
C272 C 0.35494 0.29867 0.06794 0.0
H273 H 0.30972 0.35477 0.98625 0.0
H274 H 0.31476 0.34028 0.02674 0.0
H275 H 0.34801 0.29121 0.02877 0.0
H276 H 0.39128 0.28331 0.14561 0.0
H277 H 0.38718 0.29556 0.10349 0.0
H278 H 0.35845 0.34948 0.09866 0.0
C279 C 0.32569 0.3396 0.01109 0.0
C280 C 0.35039 0.30409 0.0439 0.0
C281 C 0.32269 0.34774 0.98783 0.0
C282 C 0.37941 0.29146 0.14271 0.0
C283 C 0.3769 0.29828 0.11854 0.0
C284 C 0.35598 0.33645 0.08366 0.0
C285 C 0.34309 0.33137 0.0143 0.0
C286 C 0.34826 0.32555 0.03961 0.0
C287 C 0.36128 0.30845 0.11391 0.0
C288 C 0.35761 0.31471 0.08814 0.0
H289 H 0.36486 0.33822 0.95462 0.0
H290 H 0.37 0.32387 -0.00463 0.0
H291 H 0.35032 0.35876 0.05687 0.0
H292 H 0.34084 0.30806 0.17319 0.0
H293 H 0.33622 0.3196 0.13115 0.0
C294 C 0.7616 0.04154 0.1549 0.0
C295 C 0.78668 0.05318 0.16336 0.0
C296 C 0.75547 0.03137 0.13075 0.0
C297 C 0.77856 1.00678 0.08045 0.0
H298 H 0.73091 1.0142 0.03951 0.0
C299 C 0.73084 0.94517 0.99348 0.0
C300 C 0.72663 0.95659 0.9729 0.0
C301 C 0.74089 0.95885 0.01553 0.0
C302 C 0.74448 1.01222 0.05061 0.0
H303 H 0.82506 0.06377 0.15292 0.0
H304 H 0.81438 0.04623 0.11099 0.0
H305 H 0.7424 0.03458 0.0805 0.0
H306 H 0.73081 0.9917 0.9589 0.0
H307 H 0.74855 1.01565 -0.00256 0.0
H308 H 0.78067 0.98444 0.0506 0.0
C309 C 0.79939 0.04462 0.12305 0.0
C310 C 0.7508 0.02361 0.0742 0.0
C311 C 0.80551 0.05478 0.14708 0.0
C312 C 0.73382 0.98235 0.97443 0.0
C313 C 0.74376 0.99601 -0.00343 0.0
C314 C 0.77218 0.99532 0.05693 0.0
C315 C 0.77429 0.0326 0.11467 0.0
C316 C 0.76782 0.02092 0.08942 0.0
C317 C 0.74688 0.98423 0.01752 0.0
C318 C 0.75495 0.99778 0.04181 0.0
H319 H 0.74667 0.04001 0.16699 0.0
H320 H 0.73591 0.02203 0.12488 0.0
H321 H 0.79155 1.00415 0.09183 0.0
H322 H 0.72553 0.92537 0.99289 0.0
H323 H 0.74291 0.94918 0.03139 0.0
C324 C 0.69343 0.06364 0.4951 0.0
C325 C 0.70392 0.08608 0.50937 0.0
C326 C 0.70038 0.0643 0.47007 0.0
C327 C 0.7507 0.10287 0.42507 0.0
H328 H 0.69866 0.06866 0.37495 0.0
C329 C 0.77569 0.12017 0.3216 0.0
C330 C 0.76546 0.09874 0.30594 0.0
C331 C 0.7662 0.11853 0.34566 0.0
C332 C 0.71342 0.07812 0.38874 0.0
H333 H 0.73033 0.12666 0.50882 0.0
H334 H 0.74254 0.12774 0.46538 0.0
H335 H 0.68685 0.06486 0.41905 0.0
H336 H 0.73637 0.0591 0.30268 0.0
H337 H 0.72003 0.0561 0.34492 0.0
H338 H 0.77732 0.11591 0.39507 0.0
C339 C 0.72898 0.10965 0.47346 0.0
C340 C 0.70666 0.0759 0.41397 0.0
C341 C 0.7219 0.10904 0.49833 0.0
C342 C 0.74456 0.07598 0.31429 0.0
C343 C 0.7352 0.07427 0.33852 0.0
C344 C 0.75746 0.10498 0.39994 0.0
C345 C 0.71814 0.08736 0.45899 0.0
C346 C 0.72524 0.08845 0.43235 0.0
C347 C 0.74646 0.09534 0.35473 0.0
C348 C 0.73891 0.09286 0.38143 0.0
H349 H 0.67948 0.04567 0.50308 0.0
H350 H 0.69191 0.04679 0.45939 0.0
H351 H 0.76546 0.11242 0.43885 0.0
H352 H 0.79165 0.13803 0.31557 0.0
H353 H 0.77485 0.1353 0.35742 0.0
C354 C 0.98899 0.59986 0.47228 0.0
C355 C 0.99704 0.61482 0.49407 0.0
C356 C 0.98669 0.61 0.44989 0.0
C357 C 0.97682 0.65992 0.42537 0.0
H358 H 1.00579 0.65143 0.36408 0.0
C359 C 0.9901 0.71978 0.33888 0.0
C360 C 0.98693 0.70877 0.31509 0.0
C361 C 0.98933 0.70648 0.36013 0.0
C362 C 0.99719 0.65359 0.38092 0.0
H363 H 1.0091 0.65217 0.50945 0.0
H364 H 1.00487 0.66981 0.47035 0.0
H365 H 1.00871 0.63183 0.40242 0.0
H366 H 0.97996 0.67493 0.29496 0.0
H367 H 0.97808 0.65135 0.33231 0.0
H368 H 0.96511 0.68148 0.40406 0.0
C369 C 1.00028 0.65022 0.47067 0.0
C370 C 0.99897 0.64246 0.40288 0.0
C371 C 1.00286 0.64017 0.49299 0.0
C372 C 0.98252 0.68393 0.31304 0.0
C373 C 0.98161 0.67051 0.33442 0.0
C374 C 0.97482 0.67084 0.40342 0.0
C375 C 0.99211 0.63521 0.44893 0.0
C376 C 0.98915 0.64587 0.42538 0.0
C377 C 0.98517 0.68172 0.35821 0.0
C378 C 0.98537 0.66819 0.38101 0.0
H379 H 0.98442 0.58028 0.4725 0.0
H380 H 0.98022 0.598 0.43343 0.0
H381 H 0.96867 0.66245 0.44238 0.0
H382 H 0.9937 0.73895 0.34114 0.0
H383 H 0.99265 0.71593 0.37806 0.0
C384 C 0.43198 0.38626 0.4885 0.0
C385 C 0.45172 0.38477 0.49992 0.0
C386 C 0.42659 0.3801 0.46327 0.0
C387 C 0.43122 0.34237 0.41299 0.0
H388 H 0.42559 0.38937 0.3692 0.0
C389 C 0.41028 0.31968 0.30852 0.0
C390 C 0.39278 0.32534 0.29809 0.0
C391 C 0.42073 0.32932 0.33198 0.0
C392 C 0.42682 0.37588 0.38118 0.0
H393 H 0.48091 0.37516 0.49411 0.0
H394 H 0.47101 0.36377 0.45014 0.0
H395 H 0.43594 0.40036 0.41307 0.0
H396 H 0.37324 0.34627 0.30365 0.0
H397 H 0.39072 0.36232 0.34464 0.0
H398 H 0.42108 0.31737 0.38162 0.0
C399 C 0.45994 0.36995 0.46068 0.0
C400 C 0.43281 0.38225 0.40628 0.0
C401 C 0.46562 0.37653 0.48578 0.0
C402 C 0.38677 0.34164 0.3111 0.0
C403 C 0.39693 0.35098 0.33464 0.0
C404 C 0.42483 0.33581 0.38799 0.0
C405 C 0.44055 0.37192 0.44915 0.0
C406 C 0.43489 0.36547 0.42243 0.0
C407 C 0.41366 0.34454 0.34564 0.0
C408 C 0.42235 0.35239 0.37177 0.0
H409 H 0.42103 0.39267 0.49892 0.0
H410 H 0.4114 0.38155 0.45482 0.0
H411 H 0.43254 0.32905 0.42515 0.0
H412 H 0.41543 0.30731 0.29885 0.0
H413 H 0.434 0.32443 0.33958 0.0
C414 C 0.03817 0.37108 0.80947 0.0
C415 C 1.01694 0.34754 0.80331 0.0
C416 C 0.04022 0.38183 0.83311 0.0
C417 C 1.00373 0.37595 0.89123 0.0
H418 H 0.06942 0.40458 0.92273 0.0
C419 C 1.01596 0.38812 -0.00263 0.0
C420 C 0.0346 0.41214 0.00612 0.0
C421 C 1.01482 0.38183 0.97214 0.0
C422 C 0.05104 0.39684 0.91408 0.0
H423 H 0.98061 0.31747 0.81671 0.0
H424 H 0.98439 0.33581 0.85786 0.0
H425 H 0.06467 0.39188 0.87891 0.0
H426 H 0.06741 0.4479 -0.00461 0.0
H427 H 0.06564 0.4366 0.95126 0.0
H428 H 0.99 0.38013 0.92674 0.0
C429 C 0.99936 0.34627 0.84445 0.0
C430 C 0.0483 0.3897 0.88893 0.0
C431 C 0.99722 0.33565 0.8208 0.0
C432 C 0.0528 0.42926 0.98925 0.0
C433 C 0.05182 0.42281 0.964 0.0
C434 C 1.00642 0.38281 0.91642 0.0
C435 C 1.02115 0.3692 0.85114 0.0
C436 C 1.02453 0.37887 0.87725 0.0
C437 C 0.03244 0.39926 0.95514 0.0
C438 C 0.03002 0.39303 0.92816 0.0
H439 H 0.05363 0.38082 0.79636 0.0
H440 H 0.05702 0.39978 0.83742 0.0
H441 H 0.98527 0.36819 0.88278 0.0
H442 H 1.00166 0.37445 0.00984 0.0
H443 H 0.99993 0.36338 0.96586 0.0
C444 C 0.69314 0.65075 0.98955 0.0
C445 C 0.70377 0.63904 0.00334 0.0
C446 C 0.69722 0.6541 0.96382 0.0
C447 C 0.73973 0.65633 0.91348 0.0
H448 H 0.68345 0.64206 0.87041 0.0
C449 C 0.75071 0.65832 0.80724 0.0
C450 C 0.74211 0.67248 0.7945 0.0
C451 C 0.74359 0.65119 0.83199 0.0
C452 C 0.69937 0.64623 0.88221 0.0
H453 H 0.72743 0.62212 0.00101 0.0
H454 H 0.73444 0.62786 0.95624 0.0
H455 H 0.67701 0.63733 0.9155 0.0
H456 H 0.71786 0.68872 0.79722 0.0
H457 H 0.70557 0.6764 0.84038 0.0
H458 H 0.76216 0.66545 0.88034 0.0
C459 C 0.72311 0.63464 0.96529 0.0
C460 C 0.69571 0.64362 0.90803 0.0
C461 C 0.71901 0.63128 0.99096 0.0
C462 C 0.72483 0.67781 0.80647 0.0
C463 C 0.71775 0.67071 0.83124 0.0
C464 C 0.74338 0.65892 0.88772 0.0
C465 C 0.71207 0.64586 0.95138 0.0
C466 C 0.71588 0.64871 0.92395 0.0
C467 C 0.72773 0.65808 0.84452 0.0
C468 C 0.72326 0.65394 0.87178 0.0
H469 H 0.68131 0.65696 -0.00148 0.0
H470 H 0.68877 0.66316 0.95368 0.0
H471 H 0.75575 0.66077 0.92525 0.0
H472 H 0.7639 0.65374 0.7985 0.0
H473 H 0.75116 0.64098 0.84157 0.0
C474 C 0.44427 0.05871 0.98387 0.0
C475 C 0.46396 0.07938 -0.00336 0.0
C476 C 0.43794 0.06166 0.95963 0.0
C477 C 0.44007 0.10916 0.91751 0.0
H478 H 0.43103 0.06127 0.86501 0.0
C479 C 0.41527 0.12266 0.81778 0.0
C480 C 0.39678 0.10072 0.80551 0.0
C481 C 0.42649 0.12076 0.83963 0.0
C482 C 0.43324 0.07469 0.87949 0.0
H483 H 0.49234 0.11935 -0.00591 0.0
H484 H 0.48096 0.1245 0.95199 0.0
H485 H 0.44352 0.05599 0.90662 0.0
H486 H 0.3762 0.05955 0.80607 0.0
H487 H 0.3951 0.05625 0.84433 0.0
H488 H 0.42893 0.12738 0.89093 0.0
C489 C 0.47055 0.10604 0.96069 0.0
C490 C 0.44043 0.07166 0.90329 0.0
C491 C 0.4771 0.10303 0.98474 0.0
C492 C 0.39048 0.07686 0.81498 0.0
C493 C 0.40145 0.07496 0.83694 0.0
C494 C 0.43257 0.11202 0.89384 0.0
C495 C 0.45094 0.0854 0.94789 0.0
C496 C 0.4438 0.0888 0.92253 0.0
C497 C 0.41924 0.09688 0.84983 0.0
C498 C 0.4289 0.09475 0.87453 0.0
H499 H 0.43385 0.04025 0.99255 0.0
H500 H 0.4226 0.04548 0.95021 0.0
H501 H 0.4423 0.1225 0.93211 0.0
H502 H 0.42066 0.14132 0.81084 0.0
H503 H 0.44053 0.13805 0.84874 0.0
C504 C 0.29554 0.01992 0.66699 0.0
C505 C 0.31791 0.03988 0.67719 0.0
C506 C 0.2946 1.01307 0.64195 0.0
C507 C 0.32502 0.03767 0.58127 0.0
H508 H 0.29284 0.96652 0.56309 0.0
C509 C 0.33139 1.00166 0.48253 0.0
C510 C 0.31055 0.97881 0.47418 0.0
C511 C 0.3314 1.01084 0.50653 0.0
C512 C 0.30151 0.98647 0.56776 0.0
H513 H 0.35692 0.06823 0.66916 0.0
H514 H 0.35525 0.05616 0.62535 0.0
H515 H 0.29519 0.97856 0.60675 0.0
H516 H 0.27265 0.94877 0.48347 0.0
H517 H 0.27232 0.96516 0.52492 0.0
H518 H 0.33127 0.04556 0.54219 0.0
C519 C 0.33841 0.04596 0.63674 0.0
C520 C 0.30295 0.99335 0.59282 0.0
C521 C 0.33941 0.0527 0.66187 0.0
C522 C 0.2891 0.96628 0.48954 0.0
C523 C 0.289 0.97556 0.51336 0.0
C524 C 0.32346 0.03078 0.55611 0.0
C525 C 0.31596 0.02613 0.62652 0.0
C526 C 0.31471 0.019 0.59985 0.0
C527 C 0.31048 0.99744 0.5225 0.0
C528 C 0.31164 1.00507 0.54907 0.0
H529 H 0.27863 1.0097 0.67828 0.0
H530 H 0.27697 0.99785 0.63453 0.0
H531 H 0.33396 0.0576 0.58615 0.0
H532 H 0.34824 1.01168 0.47113 0.0
H533 H 0.34829 0.02769 0.51299 0.0
C534 C 0.03259 0.31434 0.66344 0.0
C535 C 1.02485 0.2903 0.67339 0.0
C536 C 0.04169 0.32009 0.63895 0.0
C537 C 0.07105 0.30098 0.58993 0.0
H538 H 0.05189 0.33855 0.54621 0.0
C539 C 0.12541 0.34954 0.50002 0.0
C540 C 0.11149 0.34889 0.47905 0.0
C541 C 0.11333 0.33974 0.52277 0.0
C542 C 0.05719 0.3278 0.55811 0.0
H543 H 1.02034 0.25336 0.66533 0.0
H544 H 0.03615 0.26341 0.62277 0.0
H545 H 0.03349 0.32717 0.588 0.0
H546 H 0.07382 0.33658 0.46526 0.0
H547 H 0.05266 0.31936 0.50515 0.0
H548 H 0.09479 0.30165 0.56013 0.0
C549 C 0.0354 0.27788 0.63392 0.0
C550 C 0.0469 0.32157 0.58213 0.0
C551 C 1.02622 0.2721 0.6583 0.0
C552 C 0.08507 0.33734 0.48108 0.0
C553 C 0.07298 0.32768 0.50394 0.0
C554 C 0.08143 0.30732 0.566 0.0
C555 C 0.04335 0.30195 0.624 0.0
C556 C 0.05383 0.3082 0.59833 0.0
C557 C 0.08706 0.32917 0.52511 0.0
C558 C 0.07474 0.32094 0.54989 0.0
H559 H 0.03176 0.32876 0.6746 0.0
H560 H 0.04791 0.33889 0.63188 0.0
H561 H 0.07692 0.29085 0.60206 0.0
H562 H 0.14579 0.35828 0.49906 0.0
H563 H 0.12472 0.34135 0.53878 0.0
C564 C 0.70368 0.77471 0.50617 0.0
C565 C 0.70504 0.76275 0.48421 0.0
C566 C 0.714 0.7723 0.52832 0.0
C567 C 0.72887 0.72883 0.5599 0.0
H568 H 0.76241 0.78437 0.60719 0.0
C569 C 0.76713 0.71863 0.65495 0.0
C570 C 0.76372 0.73103 0.67553 0.0
C571 C 0.7613 0.72256 0.63087 0.0
C572 C 0.75286 0.76861 0.59428 0.0
H573 H 0.7191 0.73962 0.46799 0.0
H574 H 0.73723 0.73539 0.50691 0.0
H575 H 0.75175 0.79238 0.56589 0.0
H576 H 0.75073 0.75664 0.68703 0.0
H577 H 0.74016 0.76315 0.64512 0.0
H578 H 0.72954 0.70496 0.58847 0.0
C579 C 0.72798 0.74649 0.50692 0.0
C580 C 0.74686 0.77323 0.57059 0.0
C581 C 0.71779 0.74908 0.48463 0.0
C582 C 0.75372 0.74691 0.67158 0.0
C583 C 0.74786 0.75081 0.64752 0.0
C584 C 0.73483 0.72419 0.58364 0.0
C585 C 0.72583 0.75776 0.52908 0.0
C586 C 0.73448 0.75333 0.55327 0.0
C587 C 0.7519 0.73896 0.62686 0.0
C588 C 0.74656 0.74397 0.60123 0.0
H589 H 0.69403 0.78543 0.50645 0.0
H590 H 0.7118 0.781 0.54511 0.0
H591 H 0.71903 0.71304 0.54706 0.0
H592 H 0.77485 0.70631 0.65735 0.0
H593 H 0.76478 0.71328 0.61534 0.0
C594 C 0.3836 0.42314 0.82685 0.0
C595 C 0.36104 0.40647 0.83924 0.0
C596 C 0.38634 0.42013 0.80138 0.0
C597 C 0.3566 0.37466 0.74808 0.0
H598 H 0.40019 0.43507 0.71002 0.0
C599 C 0.39098 0.36918 0.64952 0.0
C600 C 0.39881 0.38959 0.63308 0.0
C601 C 0.3827 0.37031 0.67354 0.0
C602 C 0.38748 0.41798 0.7201 0.0
H603 H 0.32358 0.37362 0.83492 0.0
H604 H 0.32772 0.36907 0.79027 0.0
H605 H 0.39308 0.43895 0.75377 0.0
H606 H 0.40233 0.42634 0.62814 0.0
H607 H 0.38632 0.42771 0.66956 0.0
H608 H 0.34981 0.35385 0.71405 0.0
C609 C 0.34378 0.38393 0.80018 0.0
C610 C 0.38386 0.42016 0.74553 0.0
C611 C 0.34132 0.38656 0.82582 0.0
C612 C 0.39659 0.41043 0.64053 0.0
C613 C 0.38769 0.41129 0.66441 0.0
C614 C 0.35971 0.37254 0.7225 0.0
C615 C 0.36628 0.40081 0.78753 0.0
C616 C 0.36885 0.39849 0.76005 0.0
C617 C 0.38147 0.39164 0.68158 0.0
C618 C 0.37568 0.39411 0.70821 0.0
H619 H 0.39916 0.43854 0.83686 0.0
H620 H 0.40427 0.43305 0.79264 0.0
H621 H 0.34503 0.35745 0.75849 0.0
H622 H 0.3927 0.35293 0.64441 0.0
H623 H 0.37857 0.35493 0.68612 0.0
C624 C 0.65069 0.03947 0.67597 0.0
C625 C 0.65114 0.03026 0.65199 0.0
C626 C 0.65032 0.02619 0.69708 0.0
C627 C 0.66562 0.97816 0.71811 0.0
H628 H 0.6307 0.98008 0.77798 0.0
C629 C 0.65878 0.92436 0.80926 0.0
C630 C 0.66499 0.93907 0.83119 0.0
C631 C 0.65615 0.93402 0.78669 0.0
C632 C 0.64061 0.97949 0.76141 0.0
H633 H 0.65083 0.99948 0.63132 0.0
H634 H 0.64946 0.97576 0.66835 0.0
H635 H 0.62606 0.99819 0.73951 0.0
H636 H 0.67341 0.9754 0.8467 0.0
H637 H 0.66842 0.9921 0.80729 0.0
H638 H 0.67983 0.95906 0.7402 0.0
C639 C 0.64997 0.99361 0.67079 0.0
C640 C 0.63803 0.98991 0.73937 0.0
C641 C 0.65058 1.00709 0.64957 0.0
C642 C 0.66866 0.96365 0.8301 0.0
C643 C 0.66565 0.97314 0.80761 0.0
C644 C 0.66791 0.96742 0.74012 0.0
C645 C 0.65008 1.00315 0.69482 0.0
C646 C 0.6509 0.98984 0.71755 0.0
C647 C 0.6593 0.95838 0.78574 0.0
C648 C 0.65578 0.96841 0.76205 0.0
H649 H 0.65129 0.05736 0.67853 0.0
H650 H 0.65095 0.03443 0.71521 0.0
H651 H 0.67607 0.97803 0.70179 0.0
H652 H 0.65591 0.90537 0.80952 0.0
H653 H 0.65116 0.92226 0.77008 0.0
C654 C 0.09262 0.70392 0.82365 0.0
C655 C 0.10137 0.72993 0.82658 0.0
C656 C 0.08721 0.69274 0.8 0.0
C657 C 0.101 0.70866 0.73307 0.0
H658 H 0.04618 0.63939 0.72403 0.0
C659 C 0.06441 0.65844 0.63707 0.0
C660 C 0.05849 0.63304 0.63543 0.0
C661 C 0.0717 0.67151 0.65983 0.0
C662 C 0.06172 0.65867 0.72634 0.0
H663 H 0.11047 0.76444 0.80702 0.0
H664 H 0.10031 0.74474 0.76572 0.0
H665 H 0.0528 0.65964 0.76476 0.0
H666 H 0.05704 0.60195 0.65607 0.0
H667 H 0.06967 0.62476 0.69571 0.0
H668 H 0.10944 0.70765 0.69431 0.0
C669 C 0.09824 0.73311 0.78168 0.0
C670 C 0.06554 0.6703 0.74968 0.0
C671 C 0.10386 0.74436 0.80538 0.0
C672 C 0.06136 0.62146 0.65668 0.0
C673 C 0.06841 0.63444 0.67944 0.0
C674 C 0.09698 0.69708 0.7096 0.0
C675 C 0.09016 0.70722 0.77867 0.0
C676 C 0.08538 0.69536 0.75344 0.0
C677 C 0.073 0.65934 0.68138 0.0
C678 C 0.07746 0.67188 0.7061 0.0
H679 H 0.09063 0.69225 0.83956 0.0
H680 H 0.08142 0.67285 0.79842 0.0
H681 H 0.11668 0.72785 0.73534 0.0
H682 H 0.06243 0.66792 0.62102 0.0
H683 H 0.07511 0.69069 0.66082 0.0
C684 C 0.62784 0.71287 0.32355 0.0
C685 C 0.65041 0.72341 0.33726 0.0
C686 C 0.62726 0.70572 0.29867 0.0
C687 C 0.667 0.71829 0.24342 0.0
H688 H 0.61357 0.65221 0.22122 0.0
C689 C 0.66904 0.67523 0.14779 0.0
C690 C 0.646 0.65861 0.136 0.0
C691 C 0.66932 0.68524 0.17137 0.0
C692 C 0.62834 0.67094 0.22692 0.0
H693 H 0.6901 0.73473 0.33565 0.0
H694 H 0.68909 0.72238 0.29189 0.0
H695 H 0.61479 0.66488 0.26459 0.0
H696 H 0.60525 0.64086 0.13892 0.0
H697 H 0.60573 0.65907 0.1797 0.0
H698 H 0.68042 0.72456 0.20574 0.0
C699 C 0.67189 0.71971 0.30052 0.0
C700 C 0.62912 0.6781 0.25184 0.0
C701 C 0.67242 0.7266 0.32557 0.0
C702 C 0.6233 0.65344 0.14762 0.0
C703 C 0.62359 0.6637 0.17111 0.0
C704 C 0.66608 0.71125 0.21839 0.0
C705 C 0.64928 0.70919 0.28686 0.0
C706 C 0.64853 0.70176 0.26037 0.0
C707 C 0.64658 0.67911 0.18361 0.0
C708 C 0.64682 0.6874 0.20985 0.0
H709 H 0.61056 0.71014 0.33202 0.0
H710 H 0.60962 0.69782 0.28853 0.0
H711 H 0.68198 0.73679 0.24946 0.0
H712 H 0.68689 0.67951 0.13941 0.0
H713 H 0.68738 0.69681 0.18046 0.0
C714 C 0.38873 1.01292 0.13401 0.0
C715 C 0.41048 1.01283 0.12566 0.0
C716 C 0.37952 1.00509 0.1582 0.0
C717 C 0.40269 1.00254 0.21988 0.0
H718 H 0.33197 0.95988 0.23758 0.0
C719 C 0.36685 0.98856 0.32193 0.0
C720 C 0.35091 0.96316 0.32887 0.0
C721 C 0.37301 0.99488 0.29681 0.0
C722 C 0.35178 0.97184 0.23286 0.0
H723 H 0.43858 1.00284 0.13562 0.0
H724 H 0.42247 0.98925 0.17772 0.0
H725 H 0.34423 0.96845 0.1936 0.0
H726 H 0.3284 0.92457 0.31492 0.0
H727 H 0.339 0.93565 0.27127 0.0
H728 H 0.41029 1.00589 0.25906 0.0
C729 C 0.4128 0.99571 0.16567 0.0
C730 C 0.35876 0.97681 0.20776 0.0
C731 C 0.42189 1.00332 0.14147 0.0
C732 C 0.34085 0.94432 0.31021 0.0
C733 C 0.34674 0.95066 0.28517 0.0
C734 C 0.39569 0.99782 0.24495 0.0
C735 C 0.39198 0.9972 0.17449 0.0
C736 C 0.38431 0.99198 0.20103 0.0
C737 C 0.36303 0.97595 0.27822 0.0
C738 C 0.37021 0.98224 0.25169 0.0
H739 H 0.37948 0.02009 0.12229 0.0
H740 H 0.36341 1.00641 0.16454 0.0
H741 H 0.4225 1.01461 0.21522 0.0
H742 H 0.37486 1.00347 0.3359 0.0
H743 H 0.38552 1.01456 0.29191 0.0
C744 C 0.09413 0.38316 0.32734 0.0
C745 C 0.08663 0.39086 0.34894 0.0
C746 C 0.08745 0.38726 0.30375 0.0
C747 C 0.04412 0.40281 0.27082 0.0
H748 H 0.09575 0.4265 0.21928 0.0
C749 C 0.03257 0.44116 0.17731 0.0
C750 C 0.03824 0.43178 0.1557 0.0
C751 C 0.03933 0.43694 0.20081 0.0
C752 C 0.08109 0.41971 0.23342 0.0
H753 H 0.06561 0.40827 0.36272 0.0
H754 H 0.05424 0.41575 0.32153 0.0
H755 H 0.10466 0.41641 0.26048 0.0
H756 H 0.05641 0.41153 0.14176 0.0
H757 H 0.06836 0.40428 0.18286 0.0
H758 H 1.02065 0.40637 0.24376 0.0
C759 C 0.06503 0.40625 0.32282 0.0
C760 C 0.08613 0.41383 0.25701 0.0
C761 C 0.0716 0.40201 0.34645 0.0
C762 C 0.05178 0.41902 0.15803 0.0
C763 C 0.05866 0.4149 0.18157 0.0
C764 C 0.03913 0.40881 0.24726 0.0
C765 C 0.07324 0.3993 0.30117 0.0
C766 C 0.06769 0.40527 0.276 0.0
C767 C 0.05204 0.42337 0.20323 0.0
C768 C 0.05756 0.41733 0.22831 0.0
H769 H 0.10556 0.37433 0.32861 0.0
H770 H 0.09362 0.38117 0.2875 0.0
H771 H 0.02936 0.39591 0.28487 0.0
H772 H 1.02223 0.45115 0.1762 0.0
H773 H 0.03435 0.44407 0.21714 0.0
C774 C 0.24073 0.91897 0.37872 0.0
C775 C 0.25818 0.91082 0.38237 0.0
C776 C 0.21759 0.90328 0.36703 0.0
C777 C 0.18711 0.85002 0.32267 0.0
H778 H 0.12533 0.84728 0.3445 0.0
C779 C 0.09077 0.78097 0.27812 0.0
C780 C 0.073 0.7888 0.27483 0.0
C781 C 0.11306 0.79595 0.29137 0.0
C782 C 0.14247 0.8481 0.33792 0.0
H783 H 0.26466 0.87941 0.37707 0.0
H784 H 0.22402 0.85179 0.35651 0.0
H785 H 0.16408 0.87178 0.36854 0.0
H786 H 0.06504 0.81885 0.28282 0.0
H787 H 0.10442 0.84543 0.30575 0.0
H788 H 0.16573 0.82669 0.29189 0.0
C789 C 0.22843 0.87051 0.36265 0.0
C790 C 0.16468 0.86206 0.3518 0.0
C791 C 0.25161 0.88622 0.37461 0.0
C792 C 0.07831 0.81226 0.28498 0.0
C793 C 0.1008 0.82739 0.29828 0.0
C794 C 0.16495 0.83618 0.30874 0.0
C795 C 0.21125 0.87899 0.35847 0.0
C796 C 0.1873 0.86319 0.34436 0.0
C797 C 0.11846 0.81936 0.3017 0.0
C798 C 0.14228 0.83494 0.31618 0.0
H799 H 0.24512 0.93779 0.3845 0.0
H800 H 0.20501 0.91056 0.36393 0.0
H801 H 0.20427 0.85088 0.31611 0.0
H802 H 0.08736 0.76297 0.27072 0.0
H803 H 0.12586 0.78884 0.29394 0.0
C804 C 0.28695 0.30533 0.2593 0.0
C805 C 0.29085 0.28547 0.26644 0.0
C806 C 0.27374 0.3132 0.27474 0.0
C807 C 0.22739 0.29392 0.32555 0.0
H808 H 0.25787 0.36631 0.33696 0.0
C809 C 0.18134 0.33313 0.39303 0.0
C810 C 0.18204 0.35571 0.38657 0.0
C811 C 0.19585 0.32504 0.37997 0.0
C812 C 0.24884 0.34607 0.33377 0.0
H813 H 0.28296 0.25773 0.29522 0.0
H814 H 0.25923 0.2712 0.32207 0.0
H815 H 0.27951 0.35039 0.31078 0.0
H816 H 0.19903 0.38781 0.36158 0.0
H817 H 0.22384 0.37344 0.33826 0.0
H818 H 0.19632 0.28948 0.34775 0.0
C819 C 0.26671 0.28076 0.30448 0.0
C820 C 0.26136 0.33693 0.31881 0.0
C821 C 0.28028 0.27303 0.2891 0.0
C822 C 0.19822 0.37043 0.36717 0.0
C823 C 0.21251 0.36215 0.35382 0.0
C824 C 0.21469 0.30306 0.34026 0.0
C825 C 0.26375 0.3013 0.29767 0.0
C826 C 0.25073 0.31076 0.31441 0.0
C827 C 0.21123 0.33909 0.35976 0.0
C828 C 0.22517 0.32931 0.34456 0.0
H829 H 0.29471 0.31538 0.24199 0.0
H830 H 0.27143 0.32878 0.26874 0.0
H831 H 0.21858 0.27368 0.3223 0.0
H832 H 0.16923 0.32143 0.40803 0.0
H833 H 0.19478 0.30759 0.38566 0.0
C834 C 0.79581 0.02061 0.3188 0.0
C835 C 0.79147 0.02172 0.29324 0.0
C836 C 0.78549 0.99723 0.33096 0.0
C837 C 0.73158 0.93252 0.32848 0.0
H838 H 0.77089 0.9164 0.3729 0.0
C839 C 0.68962 0.83366 0.37553 0.0
C840 C 0.69957 0.83223 0.39856 0.0
C841 C 0.70009 0.85678 0.36273 0.0
C842 C 0.75938 0.92067 0.36099 0.0
H843 H 0.7732 0.99897 0.26036 0.0
H844 H 0.75487 0.95817 0.28175 0.0
H845 H 0.79144 0.95631 0.35033 0.0
H846 H 0.7272 0.85415 0.42695 0.0
H847 H 0.74441 0.8945 0.40558 0.0
H848 H 0.69932 0.89742 0.33966 0.0
C849 C 0.76639 0.97545 0.29229 0.0
C850 C 0.77132 0.94355 0.34786 0.0
C851 C 0.77711 0.99882 0.28 0.0
C852 C 0.71923 0.85461 0.40914 0.0
C853 C 0.72934 0.87774 0.39664 0.0
C854 C 0.7195 0.9098 0.34195 0.0
C855 C 0.77019 0.97441 0.31798 0.0
C856 C 0.75758 0.94975 0.33144 0.0
C857 C 0.72052 0.87912 0.37286 0.0
C858 C 0.7332 0.90349 0.35848 0.0
H859 H 0.80668 0.03786 0.32957 0.0
H860 H 0.7887 0.99706 0.35078 0.0
H861 H 0.72041 0.93692 0.31618 0.0
H862 H 0.67467 0.81668 0.36674 0.0
H863 H 0.69281 0.85681 0.34442 0.0
C864 C 0.85685 0.16245 0.20165 0.0
C865 C 0.83586 0.1572 0.21664 0.0
C866 C 0.87135 0.18635 0.19049 0.0
C867 C 0.88874 0.2532 0.19556 0.0
H868 H 0.89603 0.2554 0.12362 0.0
C869 C 0.92741 0.34788 0.14318 0.0
C870 C 0.94255 0.35208 0.12194 0.0
C871 C 0.91419 0.32383 0.15411 0.0
C872 C 0.89464 0.25531 0.14376 0.0
H873 H 0.81427 0.17308 0.23254 0.0
H874 H 0.84005 0.21488 0.21393 0.0
H875 H 0.87593 0.21463 0.14492 0.0
H876 H 0.95531 0.33403 0.09529 0.0
H877 H 0.93313 0.29251 0.1147 0.0
H878 H 0.90794 0.29367 0.1948 0.0
C879 C 0.84512 0.20053 0.21048 0.0
C880 C 0.88303 0.23184 0.15594 0.0
C881 C 0.83035 0.17657 0.2211 0.0
C882 C 0.9436 0.33144 0.11149 0.0
C883 C 0.93075 0.30749 0.12267 0.0
C884 C 0.90075 0.27667 0.18348 0.0
C885 C 0.86548 0.20557 0.19467 0.0
C886 C 0.8797 0.23053 0.18194 0.0
C887 C 0.91614 0.30336 0.14442 0.0
C888 C 0.90362 0.27815 0.15732 0.0
H889 H 0.86137 0.14779 0.1977 0.0
H890 H 0.88701 0.18977 0.17845 0.0
H891 H 0.88659 0.25278 0.21565 0.0
H892 H 0.92609 0.36333 0.15164 0.0
H893 H 0.90261 0.32143 0.17035 0.0
C894 C 0.74853 0.63981 0.11747 0.0
C895 C 0.72607 0.62926 0.13157 0.0
C896 C 0.77212 0.65084 0.12927 0.0
C897 C 0.80205 0.67774 0.19103 0.0
H898 H 0.85969 0.6773 0.16145 0.0
C899 C 0.8952 0.7078 0.24401 0.0
C900 C 0.91815 0.72237 0.23113 0.0
C901 C 0.87204 0.69819 0.23173 0.0
C902 C 0.84382 0.67783 0.16981 0.0
H903 H 0.71079 0.62076 0.1691 0.0
H904 H 0.75165 0.63888 0.1896 0.0
H905 H 0.81881 0.65512 0.14054 0.0
H906 H 0.93468 0.73888 0.19532 0.0
H907 H 0.89414 0.72187 0.1738 0.0
H908 H 0.82705 0.69987 0.22064 0.0
C909 C 0.75125 0.63957 0.16945 0.0
C910 C 0.82033 0.66511 0.1578 0.0
C911 C 0.72772 0.62886 0.15767 0.0
C912 C 0.91736 0.72786 0.20584 0.0
C913 C 0.89415 0.71791 0.19345 0.0
C914 C 0.82545 0.69017 0.20315 0.0
C915 C 0.77386 0.65135 0.15549 0.0
C916 C 0.79903 0.66479 0.16827 0.0
C917 C 0.87124 0.70262 0.20617 0.0
C918 C 0.84661 0.69034 0.19272 0.0
H919 H 0.74799 0.64066 0.09733 0.0
H920 H 0.78899 0.65986 0.11779 0.0
H921 H 0.78639 0.67856 0.19945 0.0
H922 H 0.89514 0.70318 0.26348 0.0
H923 H 0.85475 0.6864 0.24204 0.0
C924 C 0.3667 0.20417 0.20345 0.0
C925 C 0.37893 0.21733 0.22537 0.0
C926 C 0.37557 0.19046 0.18997 0.0
C927 C 0.43359 0.1858 0.18137 0.0
H928 H 0.38811 0.12563 0.1434 0.0
C929 C 0.46501 0.12311 0.1259 0.0
C930 C 0.45428 0.1151 0.10207 0.0
C931 C 0.45686 0.13588 0.14197 0.0
C932 C 0.4011 0.14251 0.1538 0.0
H933 H 0.40936 0.22533 0.2509 0.0
H934 H 0.42423 0.20079 0.22798 0.0
H935 H 0.37087 0.14567 0.17012 0.0
H936 H 0.42736 0.11537 0.07616 0.0
H937 H 0.41334 0.13736 0.10398 0.0
H938 H 0.46379 0.18228 0.16509 0.0
C939 C 0.40827 0.20165 0.22069 0.0
C940 C 0.3912 0.15409 0.1691 0.0
C941 C 0.39956 0.21554 0.23402 0.0
C942 C 0.43597 0.12102 0.09442 0.0
C943 C 0.42774 0.13351 0.11045 0.0
C944 C 0.44348 0.17403 0.16623 0.0
C945 C 0.39676 0.18932 0.19816 0.0
C946 C 0.40729 0.17612 0.18289 0.0
C947 C 0.43767 0.14067 0.1346 0.0
C948 C 0.42736 0.15246 0.15197 0.0
H949 H 0.35093 0.20534 0.1961 0.0
H950 H 0.36632 0.18156 0.17259 0.0
H951 H 0.44669 0.20292 0.19135 0.0
H952 H 0.47906 0.1188 0.13243 0.0
H953 H 0.4649 0.14119 0.16048 0.0
C954 C 0.74269 0.13897 0.6296 0.0
C955 C 0.73885 0.11601 0.61941 0.0
C956 C 0.76438 0.15459 0.64384 0.0
C957 C 0.81475 0.15256 0.68038 0.0
H958 H 0.85206 0.22536 0.67113 0.0
C959 C 0.91581 0.21744 0.72034 0.0
C960 C 0.92222 0.24187 0.72857 0.0
C961 C 0.89256 0.20168 0.7085 0.0
C962 C 0.84171 0.20509 0.67426 0.0
H963 H 0.75512 0.09175 0.61608 0.0
H964 H 0.7925 0.11877 0.64047 0.0
H965 H 0.81311 0.19934 0.64792 0.0
H966 H 0.90865 0.26838 0.73177 0.0
H967 H 0.86825 0.24091 0.7118 0.0
H968 H 0.84335 0.15825 0.70664 0.0
C969 C 0.77873 0.12466 0.63788 0.0
C970 C 0.81932 0.19016 0.6609 0.0
C971 C 0.75726 0.10921 0.62367 0.0
C972 C 0.90449 0.24977 0.72548 0.0
C973 C 0.88132 0.23406 0.7138 0.0
C974 C 0.8371 0.16749 0.69378 0.0
C975 C 0.78258 0.14749 0.64833 0.0
C976 C 0.80565 0.16366 0.6636 0.0
C977 C 0.87516 0.20996 0.70471 0.0
C978 C 0.851 0.19397 0.69082 0.0
H979 H 0.7289 0.14477 0.62673 0.0
H980 H 0.76669 0.17202 0.6517 0.0
H981 H 0.80452 0.13224 0.68326 0.0
H982 H 0.92906 0.21081 0.72228 0.0
H983 H 0.8886 0.18333 0.70161 0.0
C984 C 0.9501 0.59448 0.65118 0.0
C985 C 0.95386 0.59687 0.62523 0.0
C986 C 0.93621 0.60386 0.66336 0.0
C987 C 0.89314 0.62977 0.65234 0.0
H988 H 0.91707 0.65996 0.71765 0.0
C989 C 0.85913 0.69222 0.70162 0.0
C990 C 0.85111 0.68584 0.72651 0.0
C991 C 0.87201 0.68174 0.68933 0.0
C992 C 0.91008 0.6515 0.69948 0.0
H993 H 0.94522 0.61042 0.59164 0.0
H994 H 0.92165 0.62735 0.6128 0.0
H995 H 0.93746 0.63987 0.69601 0.0
H996 H 0.85122 0.66417 0.75822 0.0
H997 H 0.87421 0.64641 0.73696 0.0
H998 H 0.8662 0.64218 0.65572 0.0
C999 C 0.92891 0.61774 0.62385 0.0
C1000 C 0.92165 0.63975 0.68707 0.0
C1001 C 0.94251 0.60801 0.61163 0.0
C1002 C 0.85714 0.66951 0.73907 0.0
C1003 C 0.87035 0.65936 0.7269 0.0
C1004 C 0.88181 0.64184 0.66462 0.0
C1005 C 0.92599 0.6163 0.64999 0.0
C1006 C 0.9133 0.62857 0.66333 0.0
C1007 C 0.87753 0.66496 0.70174 0.0
C1008 C 0.89008 0.65277 0.68838 0.0
H1009 H 0.95847 0.58589 0.66223 0.0
H1010 H 0.93384 0.60166 0.68338 0.0
H1011 H 0.88581 0.6211 0.63433 0.0
H1012 H 0.8547 0.70463 0.69133 0.0
H1013 H 0.87752 0.68663 0.67002 0.0
C1014 C 0.35145 0.15418 0.6845 0.0
C1015 C 0.35273 0.15019 0.71012 0.0
C1016 C 0.36503 0.1785 0.67441 0.0
C1017 C 0.39515 0.24645 0.687 0.0
H1018 H 0.43451 0.25201 0.62795 0.0
C1019 C 0.45175 0.34137 0.63232 0.0
C1020 C 0.44957 0.33892 0.6062 0.0
C1021 C 0.4434 0.31983 0.6474 0.0
C1022 C 0.4235 0.25085 0.64429 0.0
H1023 H 0.36858 0.16907 0.74538 0.0
H1024 H 0.39196 0.21194 0.72763 0.0
H1025 H 0.41177 0.21177 0.64979 0.0
H1026 H 0.43782 0.31201 0.57552 0.0
H1027 H 0.42325 0.27493 0.60141 0.0
H1028 H 0.40601 0.28531 0.68087 0.0
C1029 C 0.38054 0.19597 0.71544 0.0
C1030 C 0.41052 0.22775 0.65686 0.0
C1031 C 0.36714 0.17144 0.72559 0.0
C1032 C 0.43989 0.31467 0.59554 0.0
C1033 C 0.43161 0.2933 0.61049 0.0
C1034 C 0.40794 0.26961 0.67419 0.0
C1035 C 0.38009 0.19964 0.68962 0.0
C1036 C 0.39576 0.22508 0.67804 0.0
C1037 C 0.43281 0.29541 0.63667 0.0
C1038 C 0.42183 0.27195 0.65229 0.0
H1039 H 0.34054 0.13839 0.67196 0.0
H1040 H 0.36396 0.18074 0.65451 0.0
H1041 H 0.3839 0.24495 0.70326 0.0
H1042 H 0.45892 0.35975 0.64116 0.0
H1043 H 0.4449 0.32229 0.66745 0.0
C1044 C 0.2717 1.00149 0.78791 0.0
C1045 C 0.28442 0.02358 0.80263 0.0
C1046 C 0.25805 0.97753 0.79903 0.0
C1047 C 0.25265 0.94537 0.85979 0.0
H1048 H 0.19422 0.88898 0.82843 0.0
C1049 C 0.18712 0.84964 0.90925 0.0
C1050 C 0.17937 0.82724 0.89542 0.0
C1051 C 0.20075 0.87343 0.8979 0.0
C1052 C 0.21066 0.9045 0.8373 0.0
H1053 H 0.29149 0.03784 0.84061 0.0
H1054 H 0.2668 0.99642 0.85996 0.0
H1055 H 0.21444 0.93071 0.80905 0.0
H1056 H 0.18024 0.8124 0.85877 0.0
H1057 H 0.20379 0.854 0.83888 0.0
H1058 H 0.2483 0.91914 0.88839 0.0
C1059 C 0.26811 0.99733 0.83982 0.0
C1060 C 0.22235 0.9285 0.82616 0.0
C1061 C 0.28205 0.02122 0.8287 0.0
C1062 C 0.18606 0.82926 0.87003 0.0
C1063 C 0.19935 0.85307 0.85856 0.0
C1064 C 0.24074 0.92147 0.87108 0.0
C1065 C 0.25645 0.97502 0.8252 0.0
C1066 C 0.24356 0.94936 0.83722 0.0
C1067 C 0.20662 0.87543 0.87231 0.0
C1068 C 0.21963 0.90073 0.85997 0.0
H1069 H 0.27333 1.00257 0.76777 0.0
H1070 H 0.24965 0.96095 0.78703 0.0
H1071 H 0.26926 0.96062 0.86868 0.0
H1072 H 0.18224 0.84878 0.92882 0.0
H1073 H 0.20595 0.89026 0.90899 0.0
C1074 C 0.07365 0.29122 0.8013 0.0
C1075 C 0.07609 0.30316 0.77831 0.0
C1076 C 0.09489 0.29879 0.81655 0.0
C1077 C 0.16581 0.3363 0.81543 0.0
H1078 H 0.15878 0.34035 0.88696 0.0
C1079 C 0.253 0.38864 0.87946 0.0
C1080 C 0.25299 0.37514 0.90055 0.0
C1081 C 0.23085 0.3803 0.86557 0.0
C1082 C 0.16103 0.33923 0.86702 0.0
H1083 H 0.10299 0.33207 0.7532 0.0
H1084 H 0.13938 0.34544 0.77965 0.0
H1085 H 0.12139 0.32333 0.86043 0.0
H1086 H 0.22932 0.3431 0.92432 0.0
H1087 H 0.19072 0.32889 0.90037 0.0
H1088 H 0.20549 0.35261 0.822 0.0
C1089 C 0.12135 0.32993 0.78591 0.0
C1090 C 0.13955 0.32929 0.85179 0.0
C1091 C 0.10029 0.32231 0.77071 0.0
C1092 C 0.23002 0.35395 0.90816 0.0
C1093 C 0.20784 0.34581 0.89446 0.0
C1094 C 0.18726 0.34645 0.83061 0.0
C1095 C 0.11901 0.31851 0.80918 0.0
C1096 C 0.14164 0.3278 0.82572 0.0
C1097 C 0.20812 0.35848 0.87263 0.0
C1098 C 0.18518 0.34815 0.85658 0.0
H1099 H 0.0553 0.27644 0.80777 0.0
H1100 H 0.09234 0.28926 0.83417 0.0
H1101 H 0.16824 0.33499 0.79556 0.0
H1102 H 0.27036 0.40496 0.873 0.0
H1103 H 0.23162 0.39069 0.84902 0.0
C1104 C 0.78262 0.76075 0.81855 0.0
C1105 C 0.79385 0.76643 0.79471 0.0
C1106 C 0.77244 0.77478 0.82888 0.0
C1107 C 0.74914 0.81802 0.81043 0.0
H1108 H 0.75024 0.83006 0.88168 0.0
C1109 C 0.72451 0.88965 0.85323 0.0
C1110 C 0.70931 0.88281 0.8748 0.0
C1111 C 0.73334 0.87419 0.84377 0.0
C1112 C 0.7495 0.82656 0.86178 0.0
H1113 H 0.80395 0.79204 0.76346 0.0
H1114 H 0.78708 0.81712 0.7818 0.0
H1115 H 0.77031 0.80727 0.86494 0.0
H1116 H 0.6913 0.85411 0.90328 0.0
H1117 H 0.70718 0.82704 0.88686 0.0
H1118 H 0.7289 0.83792 0.8073 0.0
C1119 C 0.78545 0.80132 0.79229 0.0
C1120 C 0.76103 0.81348 0.85211 0.0
C1121 C 0.79543 0.78711 0.78184 0.0
C1122 C 0.70291 0.85986 0.88659 0.0
C1123 C 0.71213 0.84448 0.87728 0.0
C1124 C 0.73786 0.83129 0.82007 0.0
C1125 C 0.77337 0.79507 0.81579 0.0
C1126 C 0.76116 0.80912 0.82625 0.0
C1127 C 0.72749 0.85153 0.85575 0.0
C1128 C 0.73802 0.83587 0.84584 0.0
H1129 H 0.78078 0.7448 0.82896 0.0
H1130 H 0.76305 0.76906 0.84681 0.0
H1131 H 0.74819 0.81455 0.79053 0.0
H1132 H 0.72976 0.90714 0.84358 0.0
H1133 H 0.74531 0.88035 0.82734 0.0
C1134 C 0.49719 0.48898 0.51656 0.0
C1135 C 0.4994 0.48453 0.54184 0.0
C1136 C 0.51229 0.51297 0.50624 0.0
C1137 C 0.54498 0.58023 0.5195 0.0
H1138 H 0.58014 0.58583 0.45739 0.0
C1139 C 0.60615 0.67637 0.46679 0.0
C1140 C 0.60735 0.67514 0.44066 0.0
C1141 C 0.5932 0.65403 0.48089 0.0
C1142 C 0.57013 0.58467 0.4745 0.0
H1143 H 0.51926 0.5019 0.57618 0.0
H1144 H 0.54549 0.54452 0.55808 0.0
H1145 H 0.55856 0.54548 0.47904 0.0
H1146 H 0.59452 0.6498 0.40875 0.0
H1147 H 0.57096 0.61125 0.43291 0.0
H1148 H 0.55566 0.6192 0.51445 0.0
C1149 C 0.53211 0.5291 0.54632 0.0
C1150 C 0.558 0.56152 0.48705 0.0
C1151 C 0.51728 0.50474 0.55661 0.0
C1152 C 0.59408 0.65135 0.42887 0.0
C1153 C 0.58085 0.62917 0.44283 0.0
C1154 C 0.55688 0.60344 0.50671 0.0
C1155 C 0.52973 0.53339 0.52098 0.0
C1156 C 0.54497 0.5589 0.50949 0.0
C1157 C 0.58096 0.63002 0.4691 0.0
C1158 C 0.56924 0.60586 0.48374 0.0
H1159 H 0.48365 0.47381 0.50466 0.0
H1160 H 0.50992 0.5157 0.48673 0.0
H1161 H 0.53491 0.57868 0.53668 0.0
H1162 H 0.61647 0.69445 0.47641 0.0
H1163 H 0.59382 0.65557 0.50103 0.0
C1164 C 0.58483 0.05692 0.54563 0.0
C1165 C 0.5883 0.03854 0.55757 0.0
C1166 C 0.5623 0.04984 0.53277 0.0
C1167 C 0.50795 0.99331 0.50305 0.0
H1168 H 0.47804 0.0359 0.50191 0.0
C1169 C 0.4108 0.96212 0.45607 0.0
C1170 C 0.40923 0.98089 0.44259 0.0
C1171 C 0.43223 0.96848 0.47061 0.0
C1172 C 0.48625 0.02386 0.50185 0.0
H1173 H 0.57025 0.99849 0.56632 0.0
H1174 H 0.53113 0.98637 0.54458 0.0
H1175 H 0.51589 0.04883 0.52664 0.0
H1176 H 0.42939 0.02097 0.43342 0.0
H1177 H 0.46635 0.03182 0.45832 0.0
H1178 H 0.47827 0.96835 0.47822 0.0
C1179 C 0.54594 1.00612 0.54446 0.0
C1180 C 0.50803 0.03132 0.51603 0.0
C1181 C 0.56838 1.01315 0.55714 0.0
C1182 C 0.42975 1.00597 0.44364 0.0
C1183 C 0.45098 1.0123 0.45813 0.0
C1184 C 0.48612 0.98582 0.48892 0.0
C1185 C 0.54271 0.02424 0.53166 0.0
C1186 C 0.51927 1.01622 0.51678 0.0
C1187 C 0.45246 0.99376 0.47206 0.0
C1188 C 0.47507 1.00107 0.48797 0.0
H1189 H 0.59982 0.0766 0.54547 0.0
H1190 H 0.56061 0.06433 0.52302 0.0
H1191 H 0.51625 0.98135 0.50278 0.0
H1192 H 0.39534 0.94265 0.45573 0.0
H1193 H 0.43269 0.95372 0.48117 0.0
C1194 C 0.13282 0.47804 0.42285 0.0
C1195 C 0.13316 0.45732 0.43354 0.0
C1196 C 0.12297 0.49101 0.43605 0.0
C1197 C 0.10158 0.49913 0.4995 0.0
H1198 H 0.06468 0.5229 0.46071 0.0
C1199 C 0.04136 0.53986 0.54322 0.0
C1200 C 0.04654 0.56314 0.53305 0.0
C1201 C 0.05123 0.5258 0.53199 0.0
C1202 C 0.07496 0.51642 0.47181 0.0
H1203 H 0.12397 0.43449 0.46693 0.0
H1204 H 0.1063 0.4566 0.48966 0.0
H1205 H 0.0842 0.50162 0.43981 0.0
H1206 H 0.06566 0.58955 0.5028 0.0
H1207 H 0.08224 0.56498 0.48319 0.0
H1208 H 0.09171 0.51369 0.53159 0.0
C1209 C 0.11407 0.46326 0.47124 0.0
C1210 C 0.0864 0.50438 0.4598 0.0
C1211 C 0.12421 0.45049 0.45814 0.0
C1212 C 0.06134 0.57176 0.51124 0.0
C1213 C 0.07076 0.5576 0.49986 0.0
C1214 C 0.08983 0.51095 0.51157 0.0
C1215 C 0.11282 0.48341 0.46021 0.0
C1216 C 0.10022 0.49585 0.47337 0.0
C1217 C 0.06598 0.53453 0.5101 0.0
C1218 C 0.07668 0.52003 0.4978 0.0
H1219 H 0.13966 0.48393 0.40401 0.0
H1220 H 0.12306 0.50684 0.42709 0.0
H1221 H 0.1122 0.4931 0.51065 0.0
H1222 H 0.03009 0.53276 0.56004 0.0
H1223 H 0.04714 0.50802 0.54025 0.0
C1224 C 0.41123 0.46803 0.96195 0.0
C1225 C 0.41064 0.45352 0.94118 0.0
C1226 C 0.43398 0.48331 0.97484 0.0
C1227 C 0.50373 0.51372 0.968 0.0
H1228 H 0.5044 0.50914 0.04003 0.0
C1229 C 0.59679 0.54738 0.02012 0.0
C1230 C 0.60104 0.56144 0.04227 0.0
C1231 C 0.57285 0.53475 0.00915 0.0
C1232 C 0.50452 0.51088 0.01995 0.0
H1233 H 0.43361 0.4444 0.9172 0.0
H1234 H 0.47287 0.47094 0.93929 0.0
H1235 H 0.46406 0.48801 0.01773 0.0
H1236 H 0.583 0.57229 0.07081 0.0
H1237 H 0.54112 0.55022 0.05155 0.0
H1238 H 0.54402 0.53633 0.96999 0.0
C1239 C 0.45596 0.47067 0.94574 0.0
C1240 C 0.48138 0.49882 0.00717 0.0
C1241 C 0.43335 0.45531 0.93312 0.0
C1242 C 0.5804 0.56158 0.05378 0.0
C1243 C 0.55636 0.54892 0.04273 0.0
C1244 C 0.52676 0.52575 0.98071 0.0
C1245 C 0.45659 0.48463 0.96697 0.0
C1246 C 0.48076 0.49969 0.98097 0.0
C1247 C 0.55244 0.53585 0.01993 0.0
C1248 C 0.52756 0.52409 0.00681 0.0
H1249 H 0.39402 0.46693 0.96872 0.0
H1250 H 0.43386 0.49397 0.99103 0.0
H1251 H 0.50395 0.51523 0.94788 0.0
H1252 H 0.61214 0.54666 0.01082 0.0
H1253 H 0.57043 0.52434 0.99195 0.0
C1254 C 0.64085 0.97731 0.95389 0.0
C1255 C 0.63281 0.9517 0.94877 0.0
C1256 C 0.62593 0.98407 0.96798 0.0
C1257 C 0.56042 0.96176 0.9877 0.0
H1258 H 0.59266 1.01767 0.03486 0.0
C1259 C 0.50206 0.99274 0.04769 0.0
C1260 C 0.51155 0.0189 0.05093 0.0
C1261 C 0.51703 0.98379 0.03722 0.0
C1262 C 0.58336 1.0022 0.0216 0.0
H1263 H 0.60252 0.91305 0.95465 0.0
H1264 H 0.57613 0.92493 0.97939 0.0
H1265 H 0.61776 1.00259 0.01334 0.0
H1266 H 0.54463 0.05617 0.0462 0.0
H1267 H 0.57085 0.04059 0.02762 0.0
H1268 H 0.5261 0.96162 -0.0044 0.0
C1269 C 0.59415 0.93977 0.9723 0.0
C1270 C 0.59775 0.99348 0.00928 0.0
C1271 C 0.60928 0.93293 0.95822 0.0
C1272 C 0.53676 0.03591 0.04407 0.0
C1273 C 0.55179 0.02693 0.03346 0.0
C1274 C 0.54602 0.97052 -3e-05 0.0
C1275 C 0.60238 0.96548 0.97741 0.0
C1276 C 0.58655 0.97331 0.99196 0.0
C1277 C 0.54198 1.00073 0.02954 0.0
C1278 C 0.55731 0.99101 0.01697 0.0
H1279 H 0.65883 0.99239 0.94698 0.0
H1280 H 0.63274 1.00404 0.97109 0.0
H1281 H 0.55122 0.94645 0.97425 0.0
H1282 H 0.4828 0.97902 0.05295 0.0
H1283 H 0.50895 0.96351 0.03508 0.0
C1284 C 0.0892 0.64633 0.92777 0.0
C1285 C 0.10763 0.67098 0.93534 0.0
C1286 C 0.08075 0.6258 0.94395 0.0
C1287 C 0.09664 0.60262 -2e-05 0.0
H1288 H 1.02412 0.55681 0.00415 0.0
C1289 C 0.05412 0.51915 0.06923 0.0
C1290 C 0.03357 0.49592 0.06114 0.0
C1291 C 0.0623 0.54132 0.05546 0.0
C1292 C 0.04443 0.56916 0.00305 0.0
H1293 H 0.13227 0.69303 0.96577 0.0
H1294 H 0.11776 0.65685 0.99402 0.0
H1295 H 0.04107 0.59358 0.97691 0.0
H1296 H 1.00508 0.47794 0.03246 0.0
H1297 H 1.01961 0.51643 0.00807 0.0
H1298 H 0.10017 0.57793 0.0255 0.0
C1299 C 0.1098 0.65361 0.97548 0.0
C1300 C 0.05415 0.59035 0.98745 0.0
C1301 C 0.11814 0.67433 0.95929 0.0
C1302 C 1.0208 0.49557 0.03936 0.0
C1303 C 0.02919 0.51774 0.02538 0.0
C1304 C 0.08693 0.58128 0.0154 0.0
C1305 C 0.0906 0.62919 0.96814 0.0
C1306 C 0.08038 0.60725 0.98558 0.0
C1307 C 0.0504 0.54087 0.03296 0.0
C1308 C 0.06066 0.56413 0.0171 0.0
H1309 H 0.08069 0.64289 0.90947 0.0
H1310 H 0.06631 0.60719 0.93752 0.0
H1311 H 0.11693 0.61511 -0.00122 0.0
H1312 H 0.06428 0.52013 0.08602 0.0
H1313 H 0.07823 0.55878 0.06235 0.0
loop_
_geom_bond_atom_site_label_1
_geom_bond_atom_site_label_2
_geom_bond_distance
_geom_bond_site_symmetry_2
_ccdc_geom_bond_type
Mg0 O7 2.141 1_455 S
Mg0 O8 2.048 . S
Mg0 O9 2.048 . S
Mg0 O12 2.141 . S
C1 O2 1.313 . S
C1 O8 1.195 . S
O2 C1 1.313 . S
C3 O4 1.245 1_655 S
C3 O12 1.289 1_655 S
O4 C3 1.245 1_455 S
C5 O6 1.245 . S
C5 O7 1.289 . S
O6 C5 1.245 . S
O7 Mg0 2.141 1_655 S
O7 C5 1.289 . S
O8 Mg0 2.048 . S
O8 C1 1.195 . S
O9 Mg0 2.048 . S
O9 C10 1.195 . S
C10 O9 1.195 . S
C10 O11 1.313 . S
O11 C10 1.313 . S
O12 Mg0 2.141 . S
O12 C3 1.289 1_455 S
Mg13 O20 2.141 . S
Mg13 O21 2.048 . S
Mg13 O22 2.048 . S
Mg13 O25 2.141 . S
C14 O15 1.313 . S
C14 O21 1.195 . S
O15 C14 1.313 . S
C16 O17 1.245 . S
C16 O25 1.289 . S
O17 C16 1.245 . S
C18 O19 1.245 . S
C18 O20 1.289 . S
O19 C18 1.245 . S
O20 Mg13 2.141 . S
O20 C18 1.289 . S
O21 Mg13 2.048 . S
O21 C14 1.195 . S
O22 Mg13 2.048 . S
O22 C23 1.195 . S
C23 O22 1.195 . S
C23 O24 1.313 . S
O24 C23 1.313 . S
O25 Mg13 2.141 . S
O25 C16 1.289 . S
Mg26 O33 2.141 1_545 S
Mg26 O34 2.048 . S
Mg26 O35 2.048 . S
Mg26 O38 2.141 1_545 S
C27 O28 1.313 . S
C27 O34 1.195 . S
O28 C27 1.313 . S
C29 O30 1.245 . S
C29 O38 1.289 . S
O30 C29 1.245 . S
C31 O32 1.245 . S
C31 O33 1.289 . S
O32 C31 1.245 . S
O33 Mg26 2.141 1_565 S
O33 C31 1.289 . S
O34 Mg26 2.048 . S
O34 C27 1.195 . S
O35 Mg26 2.048 . S
O35 C36 1.195 . S
C36 O35 1.195 . S
C36 O37 1.313 . S
O37 C36 1.313 . S
O38 Mg26 2.141 1_565 S
O38 C29 1.289 . S
Mg39 O46 2.141 . S
Mg39 O47 2.048 1_455 S
Mg39 O48 2.048 . S
Mg39 O51 2.141 . S
C40 O41 1.313 . S
C40 O47 1.195 . S
O41 C40 1.313 . S
C42 O43 1.245 . S
C42 O51 1.289 . S
O43 C42 1.245 . S
C44 O45 1.245 . S
C44 O46 1.289 . S
O45 C44 1.245 . S
O46 Mg39 2.141 . S
O46 C44 1.289 . S
O47 Mg39 2.048 1_655 S
O47 C40 1.195 . S
O48 Mg39 2.048 . S
O48 C49 1.195 1_455 S
C49 O48 1.195 1_655 S
C49 O50 1.313 . S
O50 C49 1.313 . S
O51 Mg39 2.141 . S
O51 C42 1.289 . S
Mg52 O59 2.141 . S
Mg52 O60 2.048 . S
Mg52 O61 2.048 . S
Mg52 O64 2.141 . S
C53 O54 1.313 . S
C53 O60 1.195 . S
O54 C53 1.313 . S
C55 O56 1.245 . S
C55 O64 1.289 . S
O56 C55 1.245 . S
C57 O58 1.245 . S
C57 O59 1.289 . S
O58 C57 1.245 . S
O59 Mg52 2.141 . S
O59 C57 1.289 . S
O60 Mg52 2.048 . S
O60 C53 1.195 . S
O61 Mg52 2.048 . S
O61 C62 1.195 . S
C62 O61 1.195 . S
C62 O63 1.313 . S
O63 C62 1.313 . S
O64 Mg52 2.141 . S
O64 C55 1.289 . S
Mg65 O72 2.141 . S
Mg65 O73 2.056 . S
Mg65 O74 2.048 1_545 S
Mg65 O77 2.141 . S
C66 O67 1.313 . S
C66 O73 1.196 1_565 S
O67 C66 1.313 . S
C68 O69 1.245 . S
C68 O77 1.289 . S
O69 C68 1.245 . S
C70 O71 1.245 . S
C70 O72 1.289 . S
O71 C70 1.245 . S
O72 Mg65 2.141 . S
O72 C70 1.289 . S
O73 Mg65 2.056 . S
O73 C66 1.196 1_545 S
O74 Mg65 2.048 1_565 S
O74 C75 1.195 . S
C75 O74 1.195 . S
C75 O76 1.313 . S
O76 C75 1.313 . S
O77 Mg65 2.141 . S
O77 C68 1.289 . S
Mg78 O85 2.141 . S
Mg78 O86 2.048 . S
Mg78 O87 2.048 . S
Mg78 O90 2.141 . S
C79 O80 1.313 . S
C79 O86 1.195 . S
O80 C79 1.313 . S
C81 O82 1.245 . S
C81 O90 1.289 . S
O82 C81 1.245 . S
C83 O84 1.245 . S
C83 O85 1.289 . S
O84 C83 1.245 . S
O85 Mg78 2.141 . S
O85 C83 1.289 . S
O86 Mg78 2.048 . S
O86 C79 1.195 . S
O87 Mg78 2.048 . S
O87 C88 1.195 . S
C88 O87 1.195 . S
C88 O89 1.313 . S
O89 C88 1.313 . S
O90 Mg78 2.141 . S
O90 C81 1.289 . S
Mg91 O98 2.141 . S
Mg91 O99 2.048 . S
Mg91 O100 2.048 . S
Mg91 O103 2.141 . S
C92 O93 1.313 . S
C92 O99 1.195 . S
O93 C92 1.313 . S
C94 O95 1.245 . S
C94 O103 1.289 . S
O95 C94 1.245 . S
C96 O97 1.245 . S
C96 O98 1.289 . S
O97 C96 1.245 . S
O98 Mg91 2.141 . S
O98 C96 1.289 . S
O99 Mg91 2.048 . S
O99 C92 1.195 . S
O100 Mg91 2.048 . S
O100 C101 1.195 . S
C101 O100 1.195 . S
C101 O102 1.313 . S
O102 C101 1.313 . S
O103 Mg91 2.141 . S
O103 C94 1.289 . S
Mg104 O111 2.141 . S
Mg104 O112 2.048 . S
Mg104 O113 2.048 . S
Mg104 O116 2.141 . S
C105 O106 1.313 . S
C105 O112 1.195 . S
O106 C105 1.313 . S
C107 O108 1.245 . S
C107 O116 1.289 . S
O108 C107 1.245 . S
C109 O110 1.245 . S
C109 O111 1.289 . S
O110 C109 1.245 . S
O111 Mg104 2.141 . S
O111 C109 1.289 . S
O112 Mg104 2.048 . S
O112 C105 1.195 . S
O113 Mg104 2.048 . S
O113 C114 1.195 . S
C114 O113 1.195 . S
C114 O115 1.313 . S
O115 C114 1.313 . S
O116 Mg104 2.141 . S
O116 C107 1.289 . S
Mg117 O124 2.141 . S
Mg117 O125 2.048 . S
Mg117 O126 2.048 . S
Mg117 O129 2.141 . S
C118 O119 1.313 . S
C118 O125 1.195 . S
O119 C118 1.313 . S
C120 O121 1.245 . S
C120 O129 1.289 . S
O121 C120 1.245 . S
C122 O123 1.245 . S
C122 O124 1.289 . S
O123 C122 1.245 . S
O124 Mg117 2.141 . S
O124 C122 1.289 . S
O125 Mg117 2.048 . S
O125 C118 1.195 . S
O126 Mg117 2.048 . S
O126 C127 1.195 . S
C127 O126 1.195 . S
C127 O128 1.313 . S
O128 C127 1.313 . S
O129 Mg117 2.141 . S
O129 C120 1.289 . S
Mg130 O137 2.141 . S
Mg130 O138 2.048 . S
Mg130 O139 2.048 . S
Mg130 O142 2.141 . S
C131 O132 1.313 . S
C131 O138 1.195 . S
O132 C131 1.313 . S
C133 O134 1.245 . S
C133 O142 1.289 . S
O134 C133 1.245 . S
C135 O136 1.245 . S
C135 O137 1.289 . S
O136 C135 1.245 . S
O137 Mg130 2.141 . S
O137 C135 1.289 . S
O138 Mg130 2.048 . S
O138 C131 1.195 . S
O139 Mg130 2.048 . S
O139 C140 1.195 . S
C140 O139 1.195 . S
C140 O141 1.313 . S
O141 C140 1.313 . S
O142 Mg130 2.141 . S
O142 C133 1.289 . S
Mg143 O150 2.141 . S
Mg143 O151 2.048 . S
Mg143 O152 2.048 . S
Mg143 O155 2.141 . S
C144 O145 1.313 . S
C144 O151 1.195 . S
O145 C144 1.313 . S
C146 O147 1.245 . S
C146 O155 1.289 . S
O147 C146 1.245 . S
C148 O149 1.245 . S
C148 O150 1.289 . S
O149 C148 1.245 . S
O150 Mg143 2.141 . S
O150 C148 1.289 . S
O151 Mg143 2.048 . S
O151 C144 1.195 . S
O152 Mg143 2.048 . S
O152 C153 1.195 . S
C153 O152 1.195 . S
C153 O154 1.313 . S
O154 C153 1.313 . S
O155 Mg143 2.141 . S
O155 C146 1.289 . S
Mg156 O163 2.141 . S
Mg156 O164 2.048 . S
Mg156 O165 2.048 . S
Mg156 O168 2.141 . S
C157 O158 1.313 . S
C157 O164 1.195 . S
O158 C157 1.313 . S
C159 O160 1.245 . S
C159 O168 1.289 . S
O160 C159 1.245 . S
C161 O162 1.245 . S
C161 O163 1.289 . S
O162 C161 1.245 . S
O163 Mg156 2.141 . S
O163 C161 1.289 . S
O164 Mg156 2.048 . S
O164 C157 1.195 . S
O165 Mg156 2.048 . S
O165 C166 1.195 . S
C166 O165 1.195 . S
C166 O167 1.313 . S
O167 C166 1.313 . S
O168 Mg156 2.141 . S
O168 C159 1.289 . S
Mg169 O176 2.141 . S
Mg169 O177 2.048 . S
Mg169 O178 2.048 . S
Mg169 O181 2.141 . S
C170 O171 1.313 . S
C170 O177 1.195 . S
O171 C170 1.313 . S
C172 O173 1.245 . S
C172 O181 1.289 . S
O173 C172 1.245 . S
C174 O175 1.245 . S
C174 O176 1.289 . S
O175 C174 1.245 . S
O176 Mg169 2.141 . S
O176 C174 1.289 . S
O177 Mg169 2.048 . S
O177 C170 1.195 . S
O178 Mg169 2.048 . S
O178 C179 1.195 . S
C179 O178 1.195 . S
C179 O180 1.313 . S
O180 C179 1.313 . S
O181 Mg169 2.141 . S
O181 C172 1.289 . S
Mg182 O189 2.141 . S
Mg182 O190 2.048 . S
Mg182 O191 2.048 . S
Mg182 O194 2.141 . S
C183 O184 1.313 . S
C183 O190 1.195 . S
O184 C183 1.313 . S
C185 O186 1.245 . S
C185 O194 1.289 . S
O186 C185 1.245 . S
C187 O188 1.245 . S
C187 O189 1.289 . S
O188 C187 1.245 . S
O189 Mg182 2.141 . S
O189 C187 1.289 . S
O190 Mg182 2.048 . S
O190 C183 1.195 . S
O191 Mg182 2.048 . S
O191 C192 1.195 . S
C192 O191 1.195 . S
C192 O193 1.313 . S
O193 C192 1.313 . S
O194 Mg182 2.141 . S
O194 C185 1.289 . S
Mg195 O202 2.141 . S
Mg195 O203 2.048 . S
Mg195 O204 2.048 . S
Mg195 O207 2.141 . S
C196 O197 1.313 . S
C196 O203 1.195 . S
O197 C196 1.313 . S
C198 O199 1.245 . S
C198 O207 1.289 . S
O199 C198 1.245 . S
C200 O201 1.245 . S
C200 O202 1.289 . S
O201 C200 1.245 . S
O202 Mg195 2.141 . S
O202 C200 1.289 . S
O203 Mg195 2.048 . S
O203 C196 1.195 . S
O204 Mg195 2.048 . S
O204 C205 1.195 . S
C205 O204 1.195 . S
C205 O206 1.313 . S
O206 C205 1.313 . S
O207 Mg195 2.141 . S
O207 C198 1.289 . S
Mg208 O215 2.141 . S
Mg208 O216 2.048 . S
Mg208 O217 2.048 . S
Mg208 O220 2.141 . S
C209 O210 1.313 . S
C209 O216 1.195 . S
O210 C209 1.313 . S
C211 O212 1.245 . S
C211 O220 1.289 . S
O212 C211 1.245 . S
C213 O214 1.245 . S
C213 O215 1.289 . S
O214 C213 1.245 . S
O215 Mg208 2.141 . S
O215 C213 1.289 . S
O216 Mg208 2.048 . S
O216 C209 1.195 . S
O217 Mg208 2.048 . S
O217 C218 1.195 . S
C218 O217 1.195 . S
C218 O219 1.313 . S
O219 C218 1.313 . S
O220 Mg208 2.141 . S
O220 C211 1.289 . S
Mg221 O228 2.141 . S
Mg221 O229 2.048 . S
Mg221 O230 2.048 . S
Mg221 O233 2.141 . S
C222 O223 1.313 . S
C222 O229 1.195 . S
O223 C222 1.313 . S
C224 O225 1.245 . S
C224 O233 1.289 . S
O225 C224 1.245 . S
C226 O227 1.245 . S
C226 O228 1.289 . S
O227 C226 1.245 . S
O228 Mg221 2.141 . S
O228 C226 1.289 . S
O229 Mg221 2.048 . S
O229 C222 1.195 . S
O230 Mg221 2.048 . S
O230 C231 1.195 . S
C231 O230 1.195 . S
C231 O232 1.313 . S
O232 C231 1.313 . S
O233 Mg221 2.141 . S
O233 C224 1.289 . S
C234 C235 1.349 . S
C234 C236 1.327 . S
C234 H259 0.950 . S
C235 C234 1.349 . S
C235 C251 1.349 . S
C236 C234 1.327 . S
C236 C255 1.429 . S
C236 H260 0.950 . S
C237 C254 1.574 . S
C237 C256 1.368 . S
C237 H261 0.949 . S
H238 C242 0.949 . S
C239 C240 1.354 . S
C239 C241 1.327 . S
C239 H262 0.950 . S
C240 C239 1.354 . S
C240 C252 1.349 . S
C241 C239 1.327 . S
C241 C257 1.429 . S
C241 H263 0.950 . S
C242 H238 0.949 . S
C242 C250 1.574 . S
C242 C258 1.368 . S
H243 C251 0.950 . S
H244 C249 0.950 . S
H245 C250 0.949 . S
H246 C252 0.950 1_556 S
H247 C253 0.950 . S
H248 C254 0.949 . S
C249 H244 0.950 . S
C249 C251 1.327 . S
C249 C255 1.429 . S
C250 C242 1.574 . S
C250 H245 0.949 . S
C250 C256 1.368 . S
C251 C235 1.349 . S
C251 H243 0.950 . S
C251 C249 1.327 . S
C252 C240 1.349 . S
C252 H246 0.950 1_554 S
C252 C253 1.327 . S
C253 H247 0.950 . S
C253 C252 1.327 . S
C253 C257 1.429 . S
C254 C237 1.574 . S
C254 H248 0.949 . S
C254 C258 1.368 . S
C255 C236 1.429 . S
C255 C249 1.429 . S
C255 C256 1.523 . S
C256 C237 1.368 . S
C256 C250 1.368 . S
C256 C255 1.523 . S
C257 C241 1.429 . S
C257 C253 1.429 . S
C257 C258 1.523 . S
C258 C242 1.368 . S
C258 C254 1.368 . S
C258 C257 1.523 . S
H259 C234 0.950 . S
H260 C236 0.950 . S
H261 C237 0.949 . S
H262 C239 0.950 . S
H263 C241 0.950 . S
C264 C265 1.349 . S
C264 C266 1.327 . S
C264 H289 0.950 1_554 S
C265 C264 1.349 . S
C265 C281 1.349 . S
C266 C264 1.327 . S
C266 C285 1.429 . S
C266 H290 0.950 . S
C267 C284 1.574 . S
C267 C286 1.368 . S
C267 H291 0.949 . S
H268 C272 0.949 . S
C269 C270 1.349 . S
C269 C271 1.327 . S
C269 H292 0.950 . S
C270 C269 1.349 . S
C270 C282 1.349 . S
C271 C269 1.327 . S
C271 C287 1.429 . S
C271 H293 0.950 . S
C272 H268 0.949 . S
C272 C280 1.574 . S
C272 C288 1.368 . S
H273 C281 0.950 . S
H274 C279 0.950 . S
H275 C280 0.949 . S
H276 C282 0.950 . S
H277 C283 0.950 . S
H278 C284 0.949 . S
C279 H274 0.950 . S
C279 C281 1.327 . S
C279 C285 1.429 . S
C280 C272 1.574 . S
C280 H275 0.949 . S
C280 C286 1.368 . S
C281 C265 1.349 . S
C281 H273 0.950 . S
C281 C279 1.327 . S
C282 C270 1.349 . S
C282 H276 0.950 . S
C282 C283 1.327 . S
C283 H277 0.950 . S
C283 C282 1.327 . S
C283 C287 1.429 . S
C284 C267 1.574 . S
C284 H278 0.949 . S
C284 C288 1.368 . S
C285 C266 1.429 . S
C285 C279 1.429 . S
C285 C286 1.523 . S
C286 C267 1.368 . S
C286 C280 1.368 . S
C286 C285 1.523 . S
C287 C271 1.429 . S
C287 C283 1.429 . S
C287 C288 1.523 . S
C288 C272 1.368 . S
C288 C284 1.368 . S
C288 C287 1.523 . S
H289 C264 0.950 1_556 S
H290 C266 0.950 . S
H291 C267 0.949 . S
H292 C269 0.950 . S
H293 C271 0.950 . S
C294 C295 1.349 . S
C294 C296 1.327 . S
C294 H319 0.950 . S
C295 C294 1.349 . S
C295 C311 1.349 . S
C296 C294 1.327 . S
C296 C315 1.429 . S
C296 H320 0.950 . S
C297 C314 1.574 . S
C297 C316 1.368 . S
C297 H321 0.949 . S
H298 C302 0.949 . S
C299 C300 1.349 . S
C299 C301 1.327 1_556 S
C299 H322 0.950 . S
C300 C299 1.349 . S
C300 C312 1.349 1_556 S
C301 C299 1.327 1_554 S
C301 C317 1.429 . S
C301 H323 0.950 . S
C302 H298 0.949 . S
C302 C310 1.574 . S
C302 C318 1.368 . S
H303 C311 0.950 1_545 S
H304 C309 0.950 . S
H305 C310 0.949 . S
H306 C312 0.950 . S
H307 C313 0.950 . S
H308 C314 0.949 . S
C309 H304 0.950 . S
C309 C311 1.327 . S
C309 C315 1.429 . S
C310 C302 1.574 . S
C310 H305 0.949 . S
C310 C316 1.368 . S
C311 C295 1.349 . S
C311 H303 0.950 1_565 S
C311 C309 1.327 . S
C312 C300 1.349 1_554 S
C312 H306 0.950 . S
C312 C313 1.327 . S
C313 H307 0.950 . S
C313 C312 1.327 . S
C313 C317 1.429 . S
C314 C297 1.574 . S
C314 H308 0.949 . S
C314 C318 1.368 . S
C315 C296 1.429 . S
C315 C309 1.429 . S
C315 C316 1.523 . S
C316 C297 1.368 . S
C316 C310 1.368 . S
C316 C315 1.523 . S
C317 C301 1.429 . S
C317 C313 1.429 . S
C317 C318 1.523 . S
C318 C302 1.368 . S
C318 C314 1.368 . S
C318 C317 1.523 . S
H319 C294 0.950 . S
H320 C296 0.950 . S
H321 C297 0.949 . S
H322 C299 0.950 . S
H323 C301 0.950 . S
C324 C325 1.349 . S
C324 C326 1.327 . S
C324 H349 0.950 . S
C325 C324 1.349 . S
C325 C341 1.349 . S
C326 C324 1.327 . S
C326 C345 1.429 . S
C326 H350 0.950 . S
C327 C344 1.574 . S
C327 C346 1.368 . S
C327 H351 0.949 . S
H328 C332 0.949 . S
C329 C330 1.349 . S
C329 C331 1.327 . S
C329 H352 0.950 . S
C330 C329 1.349 . S
C330 C342 1.349 . S
C331 C329 1.327 . S
C331 C347 1.429 . S
C331 H353 0.950 . S
C332 H328 0.949 . S
C332 C340 1.574 . S
C332 C348 1.368 . S
H333 C341 0.950 . S
H334 C339 0.950 . S
H335 C340 0.949 . S
H336 C342 0.950 . S
H337 C343 0.950 . S
H338 C344 0.949 . S
C339 H334 0.950 . S
C339 C341 1.327 . S
C339 C345 1.429 . S
C340 C332 1.574 . S
C340 H335 0.949 . S
C340 C346 1.368 . S
C341 C325 1.349 . S
C341 H333 0.950 . S
C341 C339 1.327 . S
C342 C330 1.349 . S
C342 H336 0.950 . S
C342 C343 1.327 . S
C343 H337 0.950 . S
C343 C342 1.327 . S
C343 C347 1.429 . S
C344 C327 1.574 . S
C344 H338 0.949 . S
C344 C348 1.368 . S
C345 C326 1.429 . S
C345 C339 1.429 . S
C345 C346 1.523 . S
C346 C327 1.368 . S
C346 C340 1.368 . S
C346 C345 1.523 . S
C347 C331 1.429 . S
C347 C343 1.429 . S
C347 C348 1.523 . S
C348 C332 1.368 . S
C348 C344 1.368 . S
C348 C347 1.523 . S
H349 C324 0.950 . S
H350 C326 0.950 . S
H351 C327 0.949 . S
H352 C329 0.950 . S
H353 C331 0.950 . S
C354 C355 1.349 . S
C354 C356 1.327 . S
C354 H379 0.950 . S
C355 C354 1.349 . S
C355 C371 1.349 . S
C356 C354 1.327 . S
C356 C375 1.429 . S
C356 H380 0.950 . S
C357 C374 1.574 . S
C357 C376 1.368 . S
C357 H381 0.949 . S
H358 C362 0.949 . S
C359 C360 1.349 . S
C359 C361 1.327 . S
C359 H382 0.950 1_655 S
C360 C359 1.349 . S
C360 C372 1.349 . S
C361 C359 1.327 . S
C361 C377 1.429 . S
C361 H383 0.950 . S
C362 H358 0.949 . S
C362 C370 1.574 . S
C362 C378 1.368 . S
H363 C371 0.950 . S
H364 C369 0.950 . S
H365 C370 0.949 . S
H366 C372 0.950 . S
H367 C373 0.950 . S
H368 C374 0.949 . S
C369 H364 0.950 . S
C369 C371 1.327 . S
C369 C375 1.429 . S
C370 C362 1.574 . S
C370 H365 0.949 . S
C370 C376 1.368 . S
C371 C355 1.349 . S
C371 H363 0.950 . S
C371 C369 1.327 . S
C372 C360 1.349 . S
C372 H366 0.950 . S
C372 C373 1.327 . S
C373 H367 0.950 . S
C373 C372 1.327 . S
C373 C377 1.429 . S
C374 C357 1.574 . S
C374 H368 0.949 . S
C374 C378 1.368 . S
C375 C356 1.429 . S
C375 C369 1.429 . S
C375 C376 1.523 . S
C376 C357 1.368 . S
C376 C370 1.368 . S
C376 C375 1.523 . S
C377 C361 1.429 . S
C377 C373 1.429 . S
C377 C378 1.523 . S
C378 C362 1.368 . S
C378 C374 1.368 . S
C378 C377 1.523 . S
H379 C354 0.950 . S
H380 C356 0.950 . S
H381 C357 0.949 . S
H382 C359 0.950 1_455 S
H383 C361 0.950 . S
C384 C385 1.349 . S
C384 C386 1.327 . S
C384 H409 0.950 . S
C385 C384 1.349 . S
C385 C401 1.349 . S
C386 C384 1.327 . S
C386 C405 1.429 . S
C386 H410 0.950 . S
C387 C404 1.574 . S
C387 C406 1.368 . S
C387 H411 0.949 . S
H388 C392 0.949 . S
C389 C390 1.349 . S
C389 C391 1.327 . S
C389 H412 0.950 . S
C390 C389 1.349 . S
C390 C402 1.349 . S
C391 C389 1.327 . S
C391 C407 1.429 . S
C391 H413 0.950 . S
C392 H388 0.949 . S
C392 C400 1.574 . S
C392 C408 1.368 . S
H393 C401 0.950 . S
H394 C399 0.950 . S
H395 C400 0.949 . S
H396 C402 0.950 . S
H397 C403 0.950 . S
H398 C404 0.949 . S
C399 H394 0.950 . S
C399 C401 1.327 . S
C399 C405 1.429 . S
C400 C392 1.574 . S
C400 H395 0.949 . S
C400 C406 1.368 . S
C401 C385 1.349 . S
C401 H393 0.950 . S
C401 C399 1.327 . S
C402 C390 1.349 . S
C402 H396 0.950 . S
C402 C403 1.327 . S
C403 H397 0.950 . S
C403 C402 1.327 . S
C403 C407 1.429 . S
C404 C387 1.574 . S
C404 H398 0.949 . S
C404 C408 1.368 . S
C405 C386 1.429 . S
C405 C399 1.429 . S
C405 C406 1.523 . S
C406 C387 1.368 . S
C406 C400 1.368 . S
C406 C405 1.523 . S
C407 C391 1.429 . S
C407 C403 1.429 . S
C407 C408 1.523 . S
C408 C392 1.368 . S
C408 C404 1.368 . S
C408 C407 1.523 . S
H409 C384 0.950 . S
H410 C386 0.950 . S
H411 C387 0.949 . S
H412 C389 0.950 . S
H413 C391 0.950 . S
C414 C415 1.349 . S
C414 C416 1.327 . S
C414 H439 0.950 . S
C415 C414 1.349 . S
C415 C431 1.349 . S
C416 C414 1.327 . S
C416 C435 1.429 . S
C416 H440 0.950 . S
C417 C434 1.574 . S
C417 C436 1.368 . S
C417 H441 0.949 . S
H418 C422 0.949 . S
C419 C420 1.351 . S
C419 C421 1.327 1_554 S
C419 H442 0.950 . S
C420 C419 1.351 . S
C420 C432 1.335 1_554 S
C421 C419 1.327 1_556 S
C421 C437 1.429 . S
C421 H443 0.950 . S
C422 H418 0.949 . S
C422 C430 1.574 . S
C422 C438 1.368 . S
H423 C431 0.950 . S
H424 C429 0.950 . S
H425 C430 0.949 . S
H426 C432 0.950 . S
H427 C433 0.950 . S
H428 C434 0.949 . S
C429 H424 0.950 . S
C429 C431 1.327 . S
C429 C435 1.429 . S
C430 C422 1.574 . S
C430 H425 0.949 . S
C430 C436 1.368 . S
C431 C415 1.349 . S
C431 H423 0.950 . S
C431 C429 1.327 . S
C432 C420 1.335 1_556 S
C432 H426 0.950 . S
C432 C433 1.327 . S
C433 H427 0.950 . S
C433 C432 1.327 . S
C433 C437 1.429 . S
C434 C417 1.574 . S
C434 H428 0.949 . S
C434 C438 1.368 . S
C435 C416 1.429 . S
C435 C429 1.429 . S
C435 C436 1.523 . S
C436 C417 1.368 . S
C436 C430 1.368 . S
C436 C435 1.523 . S
C437 C421 1.429 . S
C437 C433 1.429 . S
C437 C438 1.523 . S
C438 C422 1.368 . S
C438 C434 1.368 . S
C438 C437 1.523 . S
H439 C414 0.950 . S
H440 C416 0.950 . S
H441 C417 0.949 . S
H442 C419 0.950 . S
H443 C421 0.950 . S
C444 C445 1.349 1_556 S
C444 C446 1.327 . S
C444 H469 0.950 . S
C445 C444 1.349 1_554 S
C445 C461 1.347 1_554 S
C446 C444 1.327 . S
C446 C465 1.429 . S
C446 H470 0.950 . S
C447 C464 1.574 . S
C447 C466 1.368 . S
C447 H471 0.949 . S
H448 C452 0.949 . S
C449 C450 1.349 . S
C449 C451 1.327 . S
C449 H472 0.950 . S
C450 C449 1.349 . S
C450 C462 1.349 . S
C451 C449 1.327 . S
C451 C467 1.429 . S
C451 H473 0.950 . S
C452 H448 0.949 . S
C452 C460 1.574 . S
C452 C468 1.368 . S
H453 C461 0.936 1_554 S
H454 C459 0.950 . S
H455 C460 0.949 . S
H456 C462 0.950 . S
H457 C463 0.950 . S
H458 C464 0.949 . S
C459 H454 0.950 . S
C459 C461 1.342 . S
C459 C465 1.429 . S
C460 C452 1.574 . S
C460 H455 0.949 . S
C460 C466 1.368 . S
C461 C445 1.347 1_556 S
C461 H453 0.936 1_556 S
C461 C459 1.342 . S
C462 C450 1.349 . S
C462 H456 0.950 . S
C462 C463 1.327 . S
C463 H457 0.950 . S
C463 C462 1.327 . S
C463 C467 1.429 . S
C464 C447 1.574 . S
C464 H458 0.949 . S
C464 C468 1.368 . S
C465 C446 1.429 . S
C465 C459 1.429 . S
C465 C466 1.523 . S
C466 C447 1.368 . S
C466 C460 1.368 . S
C466 C465 1.523 . S
C467 C451 1.429 . S
C467 C463 1.429 . S
C467 C468 1.523 . S
C468 C452 1.368 . S
C468 C464 1.368 . S
C468 C467 1.523 . S
H469 C444 0.950 . S
H470 C446 0.950 . S
H471 C447 0.949 . S
H472 C449 0.950 . S
H473 C451 0.950 . S
C474 C475 1.349 1_556 S
C474 C476 1.327 . S
C474 H499 0.950 . S
C475 C474 1.349 1_554 S
C475 C491 1.349 . S
C476 C474 1.327 . S
C476 C495 1.429 . S
C476 H500 0.950 . S
C477 C494 1.574 . S
C477 C496 1.368 . S
C477 H501 0.949 . S
H478 C482 0.949 . S
C479 C480 1.349 . S
C479 C481 1.327 . S
C479 H502 0.950 . S
C480 C479 1.349 . S
C480 C492 1.349 . S
C481 C479 1.327 . S
C481 C497 1.429 . S
C481 H503 0.950 . S
C482 H478 0.949 . S
C482 C490 1.574 . S
C482 C498 1.368 . S
H483 C491 0.950 . S
H484 C489 0.950 . S
H485 C490 0.949 . S
H486 C492 0.950 . S
H487 C493 0.950 . S
H488 C494 0.949 . S
C489 H484 0.950 . S
C489 C491 1.327 1_556 S
C489 C495 1.429 . S
C490 C482 1.574 . S
C490 H485 0.949 . S
C490 C496 1.368 . S
C491 C475 1.349 . S
C491 H483 0.950 . S
C491 C489 1.327 1_554 S
C492 C480 1.349 . S
C492 H486 0.950 . S
C492 C493 1.327 . S
C493 H487 0.950 . S
C493 C492 1.327 . S
C493 C497 1.429 . S
C494 C477 1.574 . S
C494 H488 0.949 . S
C494 C498 1.368 . S
C495 C476 1.429 . S
C495 C489 1.429 . S
C495 C496 1.523 . S
C496 C477 1.368 . S
C496 C490 1.368 . S
C496 C495 1.523 . S
C497 C481 1.429 . S
C497 C493 1.429 . S
C497 C498 1.523 . S
C498 C482 1.368 . S
C498 C494 1.368 . S
C498 C497 1.523 . S
H499 C474 0.950 . S
H500 C476 0.950 . S
H501 C477 0.949 . S
H502 C479 0.950 . S
H503 C481 0.950 . S
C504 C505 1.349 . S
C504 C506 1.327 . S
C504 H529 0.950 . S
C505 C504 1.349 . S
C505 C521 1.349 . S
C506 C504 1.327 . S
C506 C525 1.429 . S
C506 H530 0.950 . S
C507 C524 1.574 . S
C507 C526 1.368 . S
C507 H531 0.949 . S
H508 C512 0.949 . S
C509 C510 1.349 . S
C509 C511 1.327 . S
C509 H532 0.950 . S
C510 C509 1.349 . S
C510 C522 1.349 . S
C511 C509 1.327 . S
C511 C527 1.429 . S
C511 H533 0.950 . S
C512 H508 0.949 . S
C512 C520 1.574 . S
C512 C528 1.368 . S
H513 C521 0.950 1_545 S
H514 C519 0.950 . S
H515 C520 0.949 . S
H516 C522 0.950 . S
H517 C523 0.950 . S
H518 C524 0.949 . S
C519 H514 0.950 . S
C519 C521 1.327 . S
C519 C525 1.429 . S
C520 C512 1.574 . S
C520 H515 0.949 . S
C520 C526 1.368 . S
C521 C505 1.349 . S
C521 H513 0.950 1_565 S
C521 C519 1.327 . S
C522 C510 1.349 . S
C522 H516 0.950 . S
C522 C523 1.327 . S
C523 H517 0.950 . S
C523 C522 1.327 . S
C523 C527 1.429 . S
C524 C507 1.574 . S
C524 H518 0.949 . S
C524 C528 1.368 . S
C525 C506 1.429 . S
C525 C519 1.429 . S
C525 C526 1.523 . S
C526 C507 1.368 . S
C526 C520 1.368 . S
C526 C525 1.523 . S
C527 C511 1.429 . S
C527 C523 1.429 . S
C527 C528 1.523 . S
C528 C512 1.368 . S
C528 C524 1.368 . S
C528 C527 1.523 . S
H529 C504 0.950 . S
H530 C506 0.950 . S
H531 C507 0.949 . S
H532 C509 0.950 . S
H533 C511 0.950 . S
C534 C535 1.349 . S
C534 C536 1.327 . S
C534 H559 0.950 . S
C535 C534 1.349 . S
C535 C551 1.349 . S
C536 C534 1.327 . S
C536 C555 1.429 . S
C536 H560 0.950 . S
C537 C554 1.574 . S
C537 C556 1.368 . S
C537 H561 0.949 . S
H538 C542 0.949 . S
C539 C540 1.349 . S
C539 C541 1.327 . S
C539 H562 0.950 . S
C540 C539 1.349 . S
C540 C552 1.349 . S
C541 C539 1.327 . S
C541 C557 1.429 . S
C541 H563 0.950 . S
C542 H538 0.949 . S
C542 C550 1.574 . S
C542 C558 1.368 . S
H543 C551 0.950 . S
H544 C549 0.950 . S
H545 C550 0.949 . S
H546 C552 0.950 . S
H547 C553 0.950 . S
H548 C554 0.949 . S
C549 H544 0.950 . S
C549 C551 1.327 . S
C549 C555 1.429 . S
C550 C542 1.574 . S
C550 H545 0.949 . S
C550 C556 1.368 . S
C551 C535 1.349 . S
C551 H543 0.950 . S
C551 C549 1.327 . S
C552 C540 1.349 . S
C552 H546 0.950 . S
C552 C553 1.327 . S
C553 H547 0.950 . S
C553 C552 1.327 . S
C553 C557 1.429 . S
C554 C537 1.574 . S
C554 H548 0.949 . S
C554 C558 1.368 . S
C555 C536 1.429 . S
C555 C549 1.429 . S
C555 C556 1.523 . S
C556 C537 1.368 . S
C556 C550 1.368 . S
C556 C555 1.523 . S
C557 C541 1.429 . S
C557 C553 1.429 . S
C557 C558 1.523 . S
C558 C542 1.368 . S
C558 C554 1.368 . S
C558 C557 1.523 . S
H559 C534 0.950 . S
H560 C536 0.950 . S
H561 C537 0.949 . S
H562 C539 0.950 . S
H563 C541 0.950 . S
C564 C565 1.349 . S
C564 C566 1.327 . S
C564 H589 0.950 . S
C565 C564 1.349 . S
C565 C581 1.349 . S
C566 C564 1.327 . S
C566 C585 1.429 . S
C566 H590 0.950 . S
C567 C584 1.574 . S
C567 C586 1.368 . S
C567 H591 0.949 . S
H568 C572 0.949 . S
C569 C570 1.349 . S
C569 C571 1.327 . S
C569 H592 0.950 . S
C570 C569 1.349 . S
C570 C582 1.349 . S
C571 C569 1.327 . S
C571 C587 1.429 . S
C571 H593 0.950 . S
C572 H568 0.949 . S
C572 C580 1.574 . S
C572 C588 1.368 . S
H573 C581 0.950 . S
H574 C579 0.950 . S
H575 C580 0.949 . S
H576 C582 0.950 . S
H577 C583 0.950 . S
H578 C584 0.949 . S
C579 H574 0.950 . S
C579 C581 1.327 . S
C579 C585 1.429 . S
C580 C572 1.574 . S
C580 H575 0.949 . S
C580 C586 1.368 . S
C581 C565 1.349 . S
C581 H573 0.950 . S
C581 C579 1.327 . S
C582 C570 1.349 . S
C582 H576 0.950 . S
C582 C583 1.327 . S
C583 H577 0.950 . S
C583 C582 1.327 . S
C583 C587 1.429 . S
C584 C567 1.574 . S
C584 H578 0.949 . S
C584 C588 1.368 . S
C585 C566 1.429 . S
C585 C579 1.429 . S
C585 C586 1.523 . S
C586 C567 1.368 . S
C586 C580 1.368 . S
C586 C585 1.523 . S
C587 C571 1.429 . S
C587 C583 1.429 . S
C587 C588 1.523 . S
C588 C572 1.368 . S
C588 C584 1.368 . S
C588 C587 1.523 . S
H589 C564 0.950 . S
H590 C566 0.950 . S
H591 C567 0.949 . S
H592 C569 0.950 . S
H593 C571 0.950 . S
C594 C595 1.349 . S
C594 C596 1.327 . S
C594 H619 0.950 . S
C595 C594 1.349 . S
C595 C611 1.349 . S
C596 C594 1.327 . S
C596 C615 1.429 . S
C596 H620 0.950 . S
C597 C614 1.574 . S
C597 C616 1.368 . S
C597 H621 0.949 . S
H598 C602 0.949 . S
C599 C600 1.349 . S
C599 C601 1.327 . S
C599 H622 0.950 . S
C600 C599 1.349 . S
C600 C612 1.349 . S
C601 C599 1.327 . S
C601 C617 1.429 . S
C601 H623 0.950 . S
C602 H598 0.949 . S
C602 C610 1.574 . S
C602 C618 1.368 . S
H603 C611 0.950 . S
H604 C609 0.950 . S
H605 C610 0.949 . S
H606 C612 0.950 . S
H607 C613 0.950 . S
H608 C614 0.949 . S
C609 H604 0.950 . S
C609 C611 1.327 . S
C609 C615 1.429 . S
C610 C602 1.574 . S
C610 H605 0.949 . S
C610 C616 1.368 . S
C611 C595 1.349 . S
C611 H603 0.950 . S
C611 C609 1.327 . S
C612 C600 1.349 . S
C612 H606 0.950 . S
C612 C613 1.327 . S
C613 H607 0.950 . S
C613 C612 1.327 . S
C613 C617 1.429 . S
C614 C597 1.574 . S
C614 H608 0.949 . S
C614 C618 1.368 . S
C615 C596 1.429 . S
C615 C609 1.429 . S
C615 C616 1.523 . S
C616 C597 1.368 . S
C616 C610 1.368 . S
C616 C615 1.523 . S
C617 C601 1.429 . S
C617 C613 1.429 . S
C617 C618 1.523 . S
C618 C602 1.368 . S
C618 C614 1.368 . S
C618 C617 1.523 . S
H619 C594 0.950 . S
H620 C596 0.950 . S
H621 C597 0.949 . S
H622 C599 0.950 . S
H623 C601 0.950 . S
C624 C625 1.349 . S
C624 C626 1.327 . S
C624 H649 0.950 . S
C625 C624 1.349 . S
C625 C641 1.349 . S
C626 C624 1.327 . S
C626 C645 1.429 . S
C626 H650 0.950 . S
C627 C644 1.574 1_545 S
C627 C646 1.368 . S
C627 H651 0.949 . S
H628 C632 0.949 . S
C629 C630 1.349 . S
C629 C631 1.327 . S
C629 H652 0.950 . S
C630 C629 1.349 . S
C630 C642 1.349 . S
C631 C629 1.327 . S
C631 C647 1.429 . S
C631 H653 0.950 . S
C632 H628 0.949 . S
C632 C640 1.574 . S
C632 C648 1.368 1_545 S
H633 C641 0.950 . S
H634 C639 0.950 . S
H635 C640 0.949 . S
H636 C642 0.950 . S
H637 C643 0.917 1_545 S
H638 C644 0.949 . S
C639 H634 0.950 . S
C639 C641 1.327 . S
C639 C645 1.429 . S
C640 C632 1.574 . S
C640 H635 0.949 . S
C640 C646 1.368 . S
C641 C625 1.349 . S
C641 H633 0.950 . S
C641 C639 1.327 . S
C642 C630 1.349 . S
C642 H636 0.950 . S
C642 C643 1.327 . S
C643 H637 0.917 1_565 S
C643 C642 1.327 . S
C643 C647 1.429 . S
C644 C627 1.574 1_565 S
C644 H638 0.949 . S
C644 C648 1.368 . S
C645 C626 1.429 . S
C645 C639 1.429 . S
C645 C646 1.523 . S
C646 C627 1.368 . S
C646 C640 1.368 . S
C646 C645 1.523 . S
C647 C631 1.429 . S
C647 C643 1.429 . S
C647 C648 1.523 . S
C648 C632 1.368 1_565 S
C648 C644 1.368 . S
C648 C647 1.523 . S
H649 C624 0.950 . S
H650 C626 0.950 . S
H651 C627 0.949 . S
H652 C629 0.950 . S
H653 C631 0.950 . S
C654 C655 1.349 . S
C654 C656 1.327 . S
C654 H679 0.950 . S
C655 C654 1.349 . S
C655 C671 1.349 . S
C656 C654 1.327 . S
C656 C675 1.429 . S
C656 H680 0.950 . S
C657 C674 1.574 . S
C657 C676 1.368 . S
C657 H681 0.949 . S
H658 C662 0.949 . S
C659 C660 1.349 . S
C659 C661 1.327 . S
C659 H682 0.950 . S
C660 C659 1.349 . S
C660 C672 1.349 . S
C661 C659 1.327 . S
C661 C677 1.429 . S
C661 H683 0.950 1_655 S
C662 H658 0.949 . S
C662 C670 1.574 1_655 S
C662 C678 1.368 1_655 S
H663 C671 0.950 . S
H664 C669 0.950 . S
H665 C670 0.949 . S
H666 C672 0.950 . S
H667 C673 0.950 . S
H668 C674 0.949 . S
C669 H664 0.950 . S
C669 C671 1.327 . S
C669 C675 1.429 . S
C670 C662 1.574 1_455 S
C670 H665 0.949 . S
C670 C676 1.368 . S
C671 C655 1.349 . S
C671 H663 0.950 . S
C671 C669 1.327 . S
C672 C660 1.349 . S
C672 H666 0.950 . S
C672 C673 1.327 . S
C673 H667 0.950 . S
C673 C672 1.327 . S
C673 C677 1.429 . S
C674 C657 1.574 . S
C674 H668 0.949 . S
C674 C678 1.368 . S
C675 C656 1.429 . S
C675 C669 1.429 . S
C675 C676 1.523 . S
C676 C657 1.368 . S
C676 C670 1.368 . S
C676 C675 1.523 . S
C677 C661 1.429 . S
C677 C673 1.429 . S
C677 C678 1.523 1_655 S
C678 C662 1.368 1_455 S
C678 C674 1.368 . S
C678 C677 1.523 1_455 S
H679 C654 0.950 . S
H680 C656 0.950 . S
H681 C657 0.949 . S
H682 C659 0.950 . S
H683 C661 0.950 1_455 S
C684 C685 1.349 . S
C684 C686 1.327 . S
C684 H709 0.950 . S
C685 C684 1.349 . S
C685 C701 1.349 . S
C686 C684 1.327 . S
C686 C705 1.429 . S
C686 H710 0.950 . S
C687 C704 1.574 . S
C687 C706 1.368 . S
C687 H711 0.949 . S
H688 C692 0.949 . S
C689 C690 1.349 . S
C689 C691 1.327 . S
C689 H712 0.950 . S
C690 C689 1.349 . S
C690 C702 1.349 . S
C691 C689 1.327 . S
C691 C707 1.429 . S
C691 H713 0.950 . S
C692 H688 0.949 . S
C692 C700 1.574 . S
C692 C708 1.368 . S
H693 C701 0.950 . S
H694 C699 0.950 . S
H695 C700 0.949 . S
H696 C702 0.950 . S
H697 C703 0.950 . S
H698 C704 0.949 . S
C699 H694 0.950 . S
C699 C701 1.327 . S
C699 C705 1.429 . S
C700 C692 1.574 . S
C700 H695 0.949 . S
C700 C706 1.368 . S
C701 C685 1.349 . S
C701 H693 0.950 . S
C701 C699 1.327 . S
C702 C690 1.349 . S
C702 H696 0.950 . S
C702 C703 1.327 . S
C703 H697 0.950 . S
C703 C702 1.327 . S
C703 C707 1.429 . S
C704 C687 1.574 . S
C704 H698 0.949 . S
C704 C708 1.368 . S
C705 C686 1.429 . S
C705 C699 1.429 . S
C705 C706 1.523 . S
C706 C687 1.368 . S
C706 C700 1.368 . S
C706 C705 1.523 . S
C707 C691 1.429 . S
C707 C703 1.429 . S
C707 C708 1.523 . S
C708 C692 1.368 . S
C708 C704 1.368 . S
C708 C707 1.523 . S
H709 C684 0.950 . S
H710 C686 0.950 . S
H711 C687 0.949 . S
H712 C689 0.950 . S
H713 C691 0.950 . S
C714 C715 1.349 . S
C714 C716 1.327 . S
C714 H739 0.950 . S
C715 C714 1.349 . S
C715 C731 1.349 . S
C716 C714 1.327 . S
C716 C735 1.429 . S
C716 H740 0.950 . S
C717 C734 1.574 . S
C717 C736 1.368 . S
C717 H741 0.949 . S
H718 C722 0.949 . S
C719 C720 1.349 . S
C719 C721 1.327 . S
C719 H742 0.950 . S
C720 C719 1.349 . S
C720 C732 1.349 . S
C721 C719 1.327 . S
C721 C737 1.429 . S
C721 H743 0.950 . S
C722 H718 0.949 . S
C722 C730 1.574 1_565 S
C722 C738 1.368 . S
H723 C731 0.950 . S
H724 C729 0.950 . S
H725 C730 0.949 . S
H726 C732 0.950 . S
H727 C733 0.950 . S
H728 C734 0.949 . S
C729 H724 0.950 . S
C729 C731 1.327 . S
C729 C735 1.429 . S
C730 C722 1.574 1_545 S
C730 H725 0.949 . S
C730 C736 1.368 . S
C731 C715 1.349 . S
C731 H723 0.950 . S
C731 C729 1.327 . S
C732 C720 1.349 . S
C732 H726 0.950 . S
C732 C733 1.327 . S
C733 H727 0.950 . S
C733 C732 1.327 . S
C733 C737 1.429 . S
C734 C717 1.574 . S
C734 H728 0.949 . S
C734 C738 1.368 1_545 S
C735 C716 1.429 . S
C735 C729 1.429 . S
C735 C736 1.523 . S
C736 C717 1.368 . S
C736 C730 1.368 . S
C736 C735 1.523 . S
C737 C721 1.429 . S
C737 C733 1.429 . S
C737 C738 1.523 . S
C738 C722 1.368 . S
C738 C734 1.368 1_565 S
C738 C737 1.523 . S
H739 C714 0.950 . S
H740 C716 0.950 . S
H741 C717 0.949 . S
H742 C719 0.950 . S
H743 C721 0.950 . S
C744 C745 1.349 . S
C744 C746 1.327 . S
C744 H769 0.950 . S
C745 C744 1.349 . S
C745 C761 1.349 . S
C746 C744 1.327 . S
C746 C765 1.429 . S
C746 H770 0.950 . S
C747 C764 1.574 1_455 S
C747 C766 1.368 . S
C747 H771 0.949 . S
H748 C752 0.949 . S
C749 C750 1.349 . S
C749 C751 1.327 . S
C749 H772 0.950 . S
C750 C749 1.349 . S
C750 C762 1.349 . S
C751 C749 1.327 . S
C751 C767 1.429 . S
C751 H773 0.950 . S
C752 H748 0.949 . S
C752 C760 1.574 . S
C752 C768 1.368 . S
H753 C761 0.950 . S
H754 C759 0.950 . S
H755 C760 0.949 . S
H756 C762 0.950 . S
H757 C763 0.950 1_455 S
H758 C764 0.949 . S
C759 H754 0.950 . S
C759 C761 1.327 . S
C759 C765 1.429 . S
C760 C752 1.574 . S
C760 H755 0.949 . S
C760 C766 1.368 . S
C761 C745 1.349 . S
C761 H753 0.950 . S
C761 C759 1.327 . S
C762 C750 1.349 . S
C762 H756 0.950 . S
C762 C763 1.327 . S
C763 H757 0.950 1_655 S
C763 C762 1.327 . S
C763 C767 1.429 . S
C764 C747 1.574 1_655 S
C764 H758 0.949 . S
C764 C768 1.368 1_655 S
C765 C746 1.429 . S
C765 C759 1.429 . S
C765 C766 1.523 . S
C766 C747 1.368 . S
C766 C760 1.368 . S
C766 C765 1.523 . S
C767 C751 1.429 . S
C767 C763 1.429 . S
C767 C768 1.523 1_655 S
C768 C752 1.368 . S
C768 C764 1.368 1_455 S
C768 C767 1.523 1_455 S
H769 C744 0.950 . S
H770 C746 0.950 . S
H771 C747 0.949 . S
H772 C749 0.950 . S
H773 C751 0.950 . S
C774 C775 1.349 . S
C774 C776 1.327 . S
C774 H799 0.950 . S
C775 C774 1.349 . S
C775 C791 1.349 . S
C776 C774 1.327 . S
C776 C795 1.429 . S
C776 H800 0.950 . S
C777 C794 1.574 . S
C777 C796 1.368 . S
C777 H801 0.949 . S
H778 C782 0.949 . S
C779 C780 1.349 . S
C779 C781 1.327 . S
C779 H802 0.950 . S
C780 C779 1.349 . S
C780 C792 1.349 . S
C781 C779 1.327 . S
C781 C797 1.429 . S
C781 H803 0.950 . S
C782 H778 0.949 . S
C782 C790 1.574 . S
C782 C798 1.368 . S
H783 C791 0.950 . S
H784 C789 0.950 . S
H785 C790 0.949 . S
H786 C792 0.950 . S
H787 C793 0.950 . S
H788 C794 0.949 . S
C789 H784 0.950 . S
C789 C791 1.327 . S
C789 C795 1.429 . S
C790 C782 1.574 . S
C790 H785 0.949 . S
C790 C796 1.368 . S
C791 C775 1.349 . S
C791 H783 0.950 . S
C791 C789 1.327 . S
C792 C780 1.349 . S
C792 H786 0.950 . S
C792 C793 1.327 . S
C793 H787 0.950 . S
C793 C792 1.327 . S
C793 C797 1.429 . S
C794 C777 1.574 . S
C794 H788 0.949 . S
C794 C798 1.368 . S
C795 C776 1.429 . S
C795 C789 1.429 . S
C795 C796 1.523 . S
C796 C777 1.368 . S
C796 C790 1.368 . S
C796 C795 1.523 . S
C797 C781 1.429 . S
C797 C793 1.429 . S
C797 C798 1.523 . S
C798 C782 1.368 . S
C798 C794 1.368 . S
C798 C797 1.523 . S
H799 C774 0.950 . S
H800 C776 0.950 . S
H801 C777 0.949 . S
H802 C779 0.950 . S
H803 C781 0.950 . S
C804 C805 1.349 . S
C804 C806 1.327 . S
C804 H829 0.950 . S
C805 C804 1.349 . S
C805 C821 1.349 . S
C806 C804 1.327 . S
C806 C825 1.429 . S
C806 H830 0.950 . S
C807 C824 1.574 . S
C807 C826 1.368 . S
C807 H831 0.949 . S
H808 C812 0.949 . S
C809 C810 1.349 . S
C809 C811 1.327 . S
C809 H832 0.950 . S
C810 C809 1.349 . S
C810 C822 1.349 . S
C811 C809 1.327 . S
C811 C827 1.429 . S
C811 H833 0.950 . S
C812 H808 0.949 . S
C812 C820 1.574 . S
C812 C828 1.368 . S
H813 C821 0.950 . S
H814 C819 0.950 . S
H815 C820 0.949 . S
H816 C822 0.950 . S
H817 C823 0.950 . S
H818 C824 0.949 . S
C819 H814 0.950 . S
C819 C821 1.327 . S
C819 C825 1.429 . S
C820 C812 1.574 . S
C820 H815 0.949 . S
C820 C826 1.368 . S
C821 C805 1.349 . S
C821 H813 0.950 . S
C821 C819 1.327 . S
C822 C810 1.349 . S
C822 H816 0.950 . S
C822 C823 1.327 . S
C823 H817 0.950 . S
C823 C822 1.327 . S
C823 C827 1.429 . S
C824 C807 1.574 . S
C824 H818 0.949 . S
C824 C828 1.368 . S
C825 C806 1.429 . S
C825 C819 1.429 . S
C825 C826 1.523 . S
C826 C807 1.368 . S
C826 C820 1.368 . S
C826 C825 1.523 . S
C827 C811 1.429 . S
C827 C823 1.429 . S
C827 C828 1.523 . S
C828 C812 1.368 . S
C828 C824 1.368 . S
C828 C827 1.523 . S
H829 C804 0.950 . S
H830 C806 0.950 . S
H831 C807 0.949 . S
H832 C809 0.950 . S
H833 C811 0.950 . S
C834 C835 1.349 . S
C834 C836 1.327 . S
C834 H859 0.950 . S
C835 C834 1.349 . S
C835 C851 1.349 . S
C836 C834 1.327 . S
C836 C855 1.429 . S
C836 H860 0.950 . S
C837 C854 1.574 . S
C837 C856 1.368 . S
C837 H861 0.949 . S
H838 C842 0.949 . S
C839 C840 1.349 . S
C839 C841 1.327 . S
C839 H862 0.950 . S
C840 C839 1.349 . S
C840 C852 1.349 . S
C841 C839 1.327 . S
C841 C857 1.429 . S
C841 H863 0.950 . S
C842 H838 0.949 . S
C842 C850 1.574 . S
C842 C858 1.368 . S
H843 C851 0.950 . S
H844 C849 0.950 . S
H845 C850 0.949 . S
H846 C852 0.950 . S
H847 C853 0.950 . S
H848 C854 0.949 . S
C849 H844 0.950 . S
C849 C851 1.327 . S
C849 C855 1.429 . S
C850 C842 1.574 . S
C850 H845 0.949 . S
C850 C856 1.368 . S
C851 C835 1.349 . S
C851 H843 0.950 . S
C851 C849 1.327 . S
C852 C840 1.349 . S
C852 H846 0.950 . S
C852 C853 1.327 . S
C853 H847 0.950 . S
C853 C852 1.327 . S
C853 C857 1.429 . S
C854 C837 1.574 . S
C854 H848 0.949 . S
C854 C858 1.368 . S
C855 C836 1.429 . S
C855 C849 1.429 . S
C855 C856 1.523 . S
C856 C837 1.368 . S
C856 C850 1.368 . S
C856 C855 1.523 . S
C857 C841 1.429 . S
C857 C853 1.429 . S
C857 C858 1.523 . S
C858 C842 1.368 . S
C858 C854 1.368 . S
C858 C857 1.523 . S
H859 C834 0.950 . S
H860 C836 0.950 . S
H861 C837 0.949 . S
H862 C839 0.950 . S
H863 C841 0.950 . S
C864 C865 1.349 . S
C864 C866 1.327 . S
C864 H889 0.950 . S
C865 C864 1.349 . S
C865 C881 1.349 . S
C866 C864 1.327 . S
C866 C885 1.429 . S
C866 H890 0.950 . S
C867 C884 1.574 . S
C867 C886 1.368 . S
C867 H891 0.949 . S
H868 C872 0.949 . S
C869 C870 1.349 . S
C869 C871 1.327 . S
C869 H892 0.950 . S
C870 C869 1.349 . S
C870 C882 1.349 . S
C871 C869 1.327 . S
C871 C887 1.429 . S
C871 H893 0.950 . S
C872 H868 0.949 . S
C872 C880 1.574 . S
C872 C888 1.368 . S
H873 C881 0.950 . S
H874 C879 0.950 . S
H875 C880 0.949 . S
H876 C882 0.950 . S
H877 C883 0.950 . S
H878 C884 0.949 . S
C879 H874 0.950 . S
C879 C881 1.327 . S
C879 C885 1.429 . S
C880 C872 1.574 . S
C880 H875 0.949 . S
C880 C886 1.368 . S
C881 C865 1.349 . S
C881 H873 0.950 . S
C881 C879 1.327 . S
C882 C870 1.349 . S
C882 H876 0.950 . S
C882 C883 1.327 . S
C883 H877 0.950 . S
C883 C882 1.327 . S
C883 C887 1.429 . S
C884 C867 1.574 . S
C884 H878 0.949 . S
C884 C888 1.368 . S
C885 C866 1.429 . S
C885 C879 1.429 . S
C885 C886 1.523 . S
C886 C867 1.368 . S
C886 C880 1.368 . S
C886 C885 1.523 . S
C887 C871 1.429 . S
C887 C883 1.429 . S
C887 C888 1.523 . S
C888 C872 1.368 . S
C888 C884 1.368 . S
C888 C887 1.523 . S
H889 C864 0.950 . S
H890 C866 0.950 . S
H891 C867 0.949 . S
H892 C869 0.950 . S
H893 C871 0.950 . S
C894 C895 1.349 . S
C894 C896 1.327 . S
C894 H919 0.950 . S
C895 C894 1.349 . S
C895 C911 1.349 . S
C896 C894 1.327 . S
C896 C915 1.429 . S
C896 H920 0.950 . S
C897 C914 1.574 . S
C897 C916 1.368 . S
C897 H921 0.949 . S
H898 C902 0.949 . S
C899 C900 1.349 . S
C899 C901 1.327 . S
C899 H922 0.950 . S
C900 C899 1.349 . S
C900 C912 1.349 . S
C901 C899 1.327 . S
C901 C917 1.429 . S
C901 H923 0.950 . S
C902 H898 0.949 . S
C902 C910 1.574 . S
C902 C918 1.368 . S
H903 C911 0.950 . S
H904 C909 0.950 . S
H905 C910 0.949 . S
H906 C912 0.950 . S
H907 C913 0.950 . S
H908 C914 0.949 . S
C909 H904 0.950 . S
C909 C911 1.327 . S
C909 C915 1.429 . S
C910 C902 1.574 . S
C910 H905 0.949 . S
C910 C916 1.368 . S
C911 C895 1.349 . S
C911 H903 0.950 . S
C911 C909 1.327 . S
C912 C900 1.349 . S
C912 H906 0.950 . S
C912 C913 1.327 . S
C913 H907 0.950 . S
C913 C912 1.327 . S
C913 C917 1.429 . S
C914 C897 1.574 . S
C914 H908 0.949 . S
C914 C918 1.368 . S
C915 C896 1.429 . S
C915 C909 1.429 . S
C915 C916 1.523 . S
C916 C897 1.368 . S
C916 C910 1.368 . S
C916 C915 1.523 . S
C917 C901 1.429 . S
C917 C913 1.429 . S
C917 C918 1.523 . S
C918 C902 1.368 . S
C918 C914 1.368 . S
C918 C917 1.523 . S
H919 C894 0.950 . S
H920 C896 0.950 . S
H921 C897 0.949 . S
H922 C899 0.950 . S
H923 C901 0.950 . S
C924 C925 1.349 . S
C924 C926 1.327 . S
C924 H949 0.950 . S
C925 C924 1.349 . S
C925 C941 1.349 . S
C926 C924 1.327 . S
C926 C945 1.429 . S
C926 H950 0.950 . S
C927 C944 1.574 . S
C927 C946 1.368 . S
C927 H951 0.949 . S
H928 C932 0.949 . S
C929 C930 1.349 . S
C929 C931 1.327 . S
C929 H952 0.950 . S
C930 C929 1.349 . S
C930 C942 1.349 . S
C931 C929 1.327 . S
C931 C947 1.429 . S
C931 H953 0.950 . S
C932 H928 0.949 . S
C932 C940 1.574 . S
C932 C948 1.368 . S
H933 C941 0.950 . S
H934 C939 0.950 . S
H935 C940 0.949 . S
H936 C942 0.950 . S
H937 C943 0.950 . S
H938 C944 0.949 . S
C939 H934 0.950 . S
C939 C941 1.327 . S
C939 C945 1.429 . S
C940 C932 1.574 . S
C940 H935 0.949 . S
C940 C946 1.368 . S
C941 C925 1.349 . S
C941 H933 0.950 . S
C941 C939 1.327 . S
C942 C930 1.349 . S
C942 H936 0.950 . S
C942 C943 1.327 . S
C943 H937 0.950 . S
C943 C942 1.327 . S
C943 C947 1.429 . S
C944 C927 1.574 . S
C944 H938 0.949 . S
C944 C948 1.368 . S
C945 C926 1.429 . S
C945 C939 1.429 . S
C945 C946 1.523 . S
C946 C927 1.368 . S
C946 C940 1.368 . S
C946 C945 1.523 . S
C947 C931 1.429 . S
C947 C943 1.429 . S
C947 C948 1.523 . S
C948 C932 1.368 . S
C948 C944 1.368 . S
C948 C947 1.523 . S
H949 C924 0.950 . S
H950 C926 0.950 . S
H951 C927 0.949 . S
H952 C929 0.950 . S
H953 C931 0.950 . S
C954 C955 1.349 . S
C954 C956 1.327 . S
C954 H979 0.950 . S
C955 C954 1.349 . S
C955 C971 1.349 . S
C956 C954 1.327 . S
C956 C975 1.429 . S
C956 H980 0.950 . S
C957 C974 1.574 . S
C957 C976 1.368 . S
C957 H981 0.949 . S
H958 C962 0.949 . S
C959 C960 1.349 . S
C959 C961 1.327 . S
C959 H982 0.950 . S
C960 C959 1.349 . S
C960 C972 1.349 . S
C961 C959 1.327 . S
C961 C977 1.429 . S
C961 H983 0.950 . S
C962 H958 0.949 . S
C962 C970 1.574 . S
C962 C978 1.368 . S
H963 C971 0.950 . S
H964 C969 0.950 . S
H965 C970 0.949 . S
H966 C972 0.950 . S
H967 C973 0.950 . S
H968 C974 0.949 . S
C969 H964 0.950 . S
C969 C971 1.327 . S
C969 C975 1.429 . S
C970 C962 1.574 . S
C970 H965 0.949 . S
C970 C976 1.368 . S
C971 C955 1.349 . S
C971 H963 0.950 . S
C971 C969 1.327 . S
C972 C960 1.349 . S
C972 H966 0.950 . S
C972 C973 1.327 . S
C973 H967 0.950 . S
C973 C972 1.327 . S
C973 C977 1.429 . S
C974 C957 1.574 . S
C974 H968 0.949 . S
C974 C978 1.368 . S
C975 C956 1.429 . S
C975 C969 1.429 . S
C975 C976 1.523 . S
C976 C957 1.368 . S
C976 C970 1.368 . S
C976 C975 1.523 . S
C977 C961 1.429 . S
C977 C973 1.429 . S
C977 C978 1.523 . S
C978 C962 1.368 . S
C978 C974 1.368 . S
C978 C977 1.523 . S
H979 C954 0.950 . S
H980 C956 0.950 . S
H981 C957 0.949 . S
H982 C959 0.950 . S
H983 C961 0.950 . S
C984 C985 1.349 . S
C984 C986 1.327 . S
C984 H1009 0.950 . S
C985 C984 1.349 . S
C985 C1001 1.349 . S
C986 C984 1.327 . S
C986 C1005 1.429 . S
C986 H1010 0.950 . S
C987 C1004 1.574 . S
C987 C1006 1.368 . S
C987 H1011 0.949 . S
H988 C992 0.949 . S
C989 C990 1.349 . S
C989 C991 1.327 . S
C989 H1012 0.950 . S
C990 C989 1.349 . S
C990 C1002 1.349 . S
C991 C989 1.327 . S
C991 C1007 1.429 . S
C991 H1013 0.950 . S
C992 H988 0.949 . S
C992 C1000 1.574 . S
C992 C1008 1.368 . S
H993 C1001 0.950 . S
H994 C999 0.950 . S
H995 C1000 0.949 . S
H996 C1002 0.950 . S
H997 C1003 0.950 . S
H998 C1004 0.949 . S
C999 H994 0.950 . S
C999 C1001 1.327 . S
C999 C1005 1.429 . S
C1000 C992 1.574 . S
C1000 H995 0.949 . S
C1000 C1006 1.368 . S
C1001 C985 1.349 . S
C1001 H993 0.950 . S
C1001 C999 1.327 . S
C1002 C990 1.349 . S
C1002 H996 0.950 . S
C1002 C1003 1.327 . S
C1003 H997 0.950 . S
C1003 C1002 1.327 . S
C1003 C1007 1.429 . S
C1004 C987 1.574 . S
C1004 H998 0.949 . S
C1004 C1008 1.368 . S
C1005 C986 1.429 . S
C1005 C999 1.429 . S
C1005 C1006 1.523 . S
C1006 C987 1.368 . S
C1006 C1000 1.368 . S
C1006 C1005 1.523 . S
C1007 C991 1.429 . S
C1007 C1003 1.429 . S
C1007 C1008 1.523 . S
C1008 C992 1.368 . S
C1008 C1004 1.368 . S
C1008 C1007 1.523 . S
H1009 C984 0.950 . S
H1010 C986 0.950 . S
H1011 C987 0.949 . S
H1012 C989 0.950 . S
H1013 C991 0.950 . S
C1014 C1015 1.349 . S
C1014 C1016 1.327 . S
C1014 H1039 0.950 . S
C1015 C1014 1.349 . S
C1015 C1031 1.349 . S
C1016 C1014 1.327 . S
C1016 C1035 1.429 . S
C1016 H1040 0.950 . S
C1017 C1034 1.574 . S
C1017 C1036 1.368 . S
C1017 H1041 0.949 . S
H1018 C1022 0.949 . S
C1019 C1020 1.349 . S
C1019 C1021 1.327 . S
C1019 H1042 0.950 . S
C1020 C1019 1.349 . S
C1020 C1032 1.349 . S
C1021 C1019 1.327 . S
C1021 C1037 1.429 . S
C1021 H1043 0.950 . S
C1022 H1018 0.949 . S
C1022 C1030 1.574 . S
C1022 C1038 1.368 . S
H1023 C1031 0.950 . S
H1024 C1029 0.950 . S
H1025 C1030 0.949 . S
H1026 C1032 0.950 . S
H1027 C1033 0.950 . S
H1028 C1034 0.949 . S
C1029 H1024 0.950 . S
C1029 C1031 1.327 . S
C1029 C1035 1.429 . S
C1030 C1022 1.574 . S
C1030 H1025 0.949 . S
C1030 C1036 1.368 . S
C1031 C1015 1.349 . S
C1031 H1023 0.950 . S
C1031 C1029 1.327 . S
C1032 C1020 1.349 . S
C1032 H1026 0.950 . S
C1032 C1033 1.327 . S
C1033 H1027 0.950 . S
C1033 C1032 1.327 . S
C1033 C1037 1.429 . S
C1034 C1017 1.574 . S
C1034 H1028 0.949 . S
C1034 C1038 1.368 . S
C1035 C1016 1.429 . S
C1035 C1029 1.429 . S
C1035 C1036 1.523 . S
C1036 C1017 1.368 . S
C1036 C1030 1.368 . S
C1036 C1035 1.523 . S
C1037 C1021 1.429 . S
C1037 C1033 1.429 . S
C1037 C1038 1.523 . S
C1038 C1022 1.368 . S
C1038 C1034 1.368 . S
C1038 C1037 1.523 . S
H1039 C1014 0.950 . S
H1040 C1016 0.950 . S
H1041 C1017 0.949 . S
H1042 C1019 0.950 . S
H1043 C1021 0.950 . S
C1044 C1045 1.349 . S
C1044 C1046 1.327 . S
C1044 H1069 0.950 . S
C1045 C1044 1.349 . S
C1045 C1061 1.349 . S
C1046 C1044 1.327 . S
C1046 C1065 1.429 . S
C1046 H1070 0.950 . S
C1047 C1064 1.574 . S
C1047 C1066 1.368 . S
C1047 H1071 0.949 . S
H1048 C1052 0.949 . S
C1049 C1050 1.349 . S
C1049 C1051 1.327 . S
C1049 H1072 0.950 . S
C1050 C1049 1.349 . S
C1050 C1062 1.349 . S
C1051 C1049 1.327 . S
C1051 C1067 1.429 . S
C1051 H1073 0.950 . S
C1052 H1048 0.949 . S
C1052 C1060 1.574 . S
C1052 C1068 1.368 . S
H1053 C1061 0.950 . S
H1054 C1059 0.950 . S
H1055 C1060 0.949 . S
H1056 C1062 0.950 . S
H1057 C1063 0.950 . S
H1058 C1064 0.949 . S
C1059 H1054 0.950 . S
C1059 C1061 1.327 . S
C1059 C1065 1.429 . S
C1060 C1052 1.574 . S
C1060 H1055 0.949 . S
C1060 C1066 1.368 . S
C1061 C1045 1.349 . S
C1061 H1053 0.950 . S
C1061 C1059 1.327 . S
C1062 C1050 1.349 . S
C1062 H1056 0.950 . S
C1062 C1063 1.327 . S
C1063 H1057 0.950 . S
C1063 C1062 1.327 . S
C1063 C1067 1.429 . S
C1064 C1047 1.574 . S
C1064 H1058 0.949 . S
C1064 C1068 1.368 . S
C1065 C1046 1.429 . S
C1065 C1059 1.429 . S
C1065 C1066 1.523 . S
C1066 C1047 1.368 . S
C1066 C1060 1.368 . S
C1066 C1065 1.523 . S
C1067 C1051 1.429 . S
C1067 C1063 1.429 . S
C1067 C1068 1.523 . S
C1068 C1052 1.368 . S
C1068 C1064 1.368 . S
C1068 C1067 1.523 . S
H1069 C1044 0.950 . S
H1070 C1046 0.950 . S
H1071 C1047 0.949 . S
H1072 C1049 0.950 . S
H1073 C1051 0.950 . S
C1074 C1075 1.349 . S
C1074 C1076 1.327 . S
C1074 H1099 0.950 . S
C1075 C1074 1.349 . S
C1075 C1091 1.349 . S
C1076 C1074 1.327 . S
C1076 C1095 1.429 . S
C1076 H1100 0.950 . S
C1077 C1094 1.574 . S
C1077 C1096 1.368 . S
C1077 H1101 0.949 . S
H1078 C1082 0.949 . S
C1079 C1080 1.349 . S
C1079 C1081 1.327 . S
C1079 H1102 0.950 . S
C1080 C1079 1.349 . S
C1080 C1092 1.349 . S
C1081 C1079 1.327 . S
C1081 C1097 1.429 . S
C1081 H1103 0.950 . S
C1082 H1078 0.949 . S
C1082 C1090 1.574 . S
C1082 C1098 1.368 . S
H1083 C1091 0.950 . S
H1084 C1089 0.950 . S
H1085 C1090 0.949 . S
H1086 C1092 0.950 . S
H1087 C1093 0.950 . S
H1088 C1094 0.949 . S
C1089 H1084 0.950 . S
C1089 C1091 1.327 . S
C1089 C1095 1.429 . S
C1090 C1082 1.574 . S
C1090 H1085 0.949 . S
C1090 C1096 1.368 . S
C1091 C1075 1.349 . S
C1091 H1083 0.950 . S
C1091 C1089 1.327 . S
C1092 C1080 1.349 . S
C1092 H1086 0.950 . S
C1092 C1093 1.327 . S
C1093 H1087 0.950 . S
C1093 C1092 1.327 . S
C1093 C1097 1.429 . S
C1094 C1077 1.574 . S
C1094 H1088 0.949 . S
C1094 C1098 1.368 . S
C1095 C1076 1.429 . S
C1095 C1089 1.429 . S
C1095 C1096 1.523 . S
C1096 C1077 1.368 . S
C1096 C1090 1.368 . S
C1096 C1095 1.523 . S
C1097 C1081 1.429 . S
C1097 C1093 1.429 . S
C1097 C1098 1.523 . S
C1098 C1082 1.368 . S
C1098 C1094 1.368 . S
C1098 C1097 1.523 . S
H1099 C1074 0.950 . S
H1100 C1076 0.950 . S
H1101 C1077 0.949 . S
H1102 C1079 0.950 . S
H1103 C1081 0.950 . S
C1104 C1105 1.349 . S
C1104 C1106 1.327 . S
C1104 H1129 0.950 . S
C1105 C1104 1.349 . S
C1105 C1121 1.349 . S
C1106 C1104 1.327 . S
C1106 C1125 1.429 . S
C1106 H1130 0.950 . S
C1107 C1124 1.574 . S
C1107 C1126 1.368 . S
C1107 H1131 0.949 . S
H1108 C1112 0.949 . S
C1109 C1110 1.349 . S
C1109 C1111 1.327 . S
C1109 H1132 0.950 . S
C1110 C1109 1.349 . S
C1110 C1122 1.349 . S
C1111 C1109 1.327 . S
C1111 C1127 1.429 . S
C1111 H1133 0.950 . S
C1112 H1108 0.949 . S
C1112 C1120 1.574 . S
C1112 C1128 1.368 . S
H1113 C1121 0.950 . S
H1114 C1119 0.950 . S
H1115 C1120 0.949 . S
H1116 C1122 0.950 . S
H1117 C1123 0.950 . S
H1118 C1124 0.949 . S
C1119 H1114 0.950 . S
C1119 C1121 1.327 . S
C1119 C1125 1.429 . S
C1120 C1112 1.574 . S
C1120 H1115 0.949 . S
C1120 C1126 1.368 . S
C1121 C1105 1.349 . S
C1121 H1113 0.950 . S
C1121 C1119 1.327 . S
C1122 C1110 1.349 . S
C1122 H1116 0.950 . S
C1122 C1123 1.327 . S
C1123 H1117 0.950 . S
C1123 C1122 1.327 . S
C1123 C1127 1.429 . S
C1124 C1107 1.574 . S
C1124 H1118 0.949 . S
C1124 C1128 1.368 . S
C1125 C1106 1.429 . S
C1125 C1119 1.429 . S
C1125 C1126 1.523 . S
C1126 C1107 1.368 . S
C1126 C1120 1.368 . S
C1126 C1125 1.523 . S
C1127 C1111 1.429 . S
C1127 C1123 1.429 . S
C1127 C1128 1.523 . S
C1128 C1112 1.368 . S
C1128 C1124 1.368 . S
C1128 C1127 1.523 . S
H1129 C1104 0.950 . S
H1130 C1106 0.950 . S
H1131 C1107 0.949 . S
H1132 C1109 0.950 . S
H1133 C1111 0.950 . S
C1134 C1135 1.349 . S
C1134 C1136 1.327 . S
C1134 H1159 0.950 . S
C1135 C1134 1.349 . S
C1135 C1151 1.349 . S
C1136 C1134 1.327 . S
C1136 C1155 1.429 . S
C1136 H1160 0.950 . S
C1137 C1154 1.574 . S
C1137 C1156 1.368 . S
C1137 H1161 0.949 . S
H1138 C1142 0.949 . S
C1139 C1140 1.349 . S
C1139 C1141 1.327 . S
C1139 H1162 0.950 . S
C1140 C1139 1.349 . S
C1140 C1152 1.349 . S
C1141 C1139 1.327 . S
C1141 C1157 1.429 . S
C1141 H1163 0.950 . S
C1142 H1138 0.949 . S
C1142 C1150 1.574 . S
C1142 C1158 1.368 . S
H1143 C1151 0.950 . S
H1144 C1149 0.950 . S
H1145 C1150 0.949 . S
H1146 C1152 0.950 . S
H1147 C1153 0.950 . S
H1148 C1154 0.949 . S
C1149 H1144 0.950 . S
C1149 C1151 1.327 . S
C1149 C1155 1.429 . S
C1150 C1142 1.574 . S
C1150 H1145 0.949 . S
C1150 C1156 1.368 . S
C1151 C1135 1.349 . S
C1151 H1143 0.950 . S
C1151 C1149 1.327 . S
C1152 C1140 1.349 . S
C1152 H1146 0.950 . S
C1152 C1153 1.327 . S
C1153 H1147 0.950 . S
C1153 C1152 1.327 . S
C1153 C1157 1.429 . S
C1154 C1137 1.574 . S
C1154 H1148 0.949 . S
C1154 C1158 1.368 . S
C1155 C1136 1.429 . S
C1155 C1149 1.429 . S
C1155 C1156 1.523 . S
C1156 C1137 1.368 . S
C1156 C1150 1.368 . S
C1156 C1155 1.523 . S
C1157 C1141 1.429 . S
C1157 C1153 1.429 . S
C1157 C1158 1.523 . S
C1158 C1142 1.368 . S
C1158 C1154 1.368 . S
C1158 C1157 1.523 . S
H1159 C1134 0.950 . S
H1160 C1136 0.950 . S
H1161 C1137 0.949 . S
H1162 C1139 0.950 . S
H1163 C1141 0.950 . S
C1164 C1165 1.349 . S
C1164 C1166 1.327 . S
C1164 H1189 0.950 . S
C1165 C1164 1.349 . S
C1165 C1181 1.349 . S
C1166 C1164 1.327 . S
C1166 C1185 1.429 . S
C1166 H1190 0.950 . S
C1167 C1184 1.575 . S
C1167 C1186 1.350 1_565 S
C1167 H1191 0.965 . S
H1168 C1172 0.949 . S
C1169 C1170 1.349 . S
C1169 C1171 1.327 . S
C1169 H1192 0.950 . S
C1170 C1169 1.349 . S
C1170 C1182 1.349 . S
C1171 C1169 1.327 . S
C1171 C1187 1.429 . S
C1171 H1193 0.950 . S
C1172 H1168 0.949 . S
C1172 C1180 1.574 . S
C1172 C1188 1.368 1_545 S
H1173 C1181 0.950 . S
H1174 C1179 0.950 . S
H1175 C1180 0.949 . S
H1176 C1182 0.950 . S
H1177 C1183 0.950 1_545 S
H1178 C1184 0.949 . S
C1179 H1174 0.950 . S
C1179 C1181 1.327 . S
C1179 C1185 1.429 . S
C1180 C1172 1.574 . S
C1180 H1175 0.949 . S
C1180 C1186 1.368 . S
C1181 C1165 1.349 . S
C1181 H1173 0.950 . S
C1181 C1179 1.327 . S
C1182 C1170 1.349 . S
C1182 H1176 0.950 . S
C1182 C1183 1.327 . S
C1183 H1177 0.950 1_565 S
C1183 C1182 1.327 . S
C1183 C1187 1.429 . S
C1184 C1167 1.575 . S
C1184 H1178 0.949 . S
C1184 C1188 1.368 . S
C1185 C1166 1.429 . S
C1185 C1179 1.429 . S
C1185 C1186 1.523 . S
C1186 C1167 1.350 1_545 S
C1186 C1180 1.368 . S
C1186 C1185 1.523 . S
C1187 C1171 1.429 . S
C1187 C1183 1.429 . S
C1187 C1188 1.523 . S
C1188 C1172 1.368 1_565 S
C1188 C1184 1.368 . S
C1188 C1187 1.523 . S
H1189 C1164 0.950 . S
H1190 C1166 0.950 . S
H1191 C1167 0.965 . S
H1192 C1169 0.950 . S
H1193 C1171 0.950 . S
C1194 C1195 1.349 . S
C1194 C1196 1.327 . S
C1194 H1219 0.950 . S
C1195 C1194 1.349 . S
C1195 C1211 1.349 . S
C1196 C1194 1.327 . S
C1196 C1215 1.429 . S
C1196 H1220 0.950 . S
C1197 C1214 1.574 . S
C1197 C1216 1.368 . S
C1197 H1221 0.949 . S
H1198 C1202 0.949 . S
C1199 C1200 1.349 . S
C1199 C1201 1.327 1_655 S
C1199 H1222 0.949 . S
C1200 C1199 1.349 . S
C1200 C1212 1.349 . S
C1201 C1199 1.327 1_455 S
C1201 C1217 1.429 1_455 S
C1201 H1223 0.950 . S
C1202 H1198 0.949 . S
C1202 C1210 1.574 1_655 S
C1202 C1218 1.368 1_655 S
H1203 C1211 0.950 . S
H1204 C1209 0.950 . S
H1205 C1210 0.949 1_655 S
H1206 C1212 0.950 . S
H1207 C1213 0.950 . S
H1208 C1214 0.949 . S
C1209 H1204 0.950 . S
C1209 C1211 1.327 . S
C1209 C1215 1.429 . S
C1210 C1202 1.574 1_455 S
C1210 H1205 0.949 1_455 S
C1210 C1216 1.368 . S
C1211 C1195 1.349 . S
C1211 H1203 0.950 . S
C1211 C1209 1.327 . S
C1212 C1200 1.349 . S
C1212 H1206 0.950 . S
C1212 C1213 1.327 . S
C1213 H1207 0.950 . S
C1213 C1212 1.327 . S
C1213 C1217 1.429 . S
C1214 C1197 1.574 . S
C1214 H1208 0.949 . S
C1214 C1218 1.368 . S
C1215 C1196 1.429 . S
C1215 C1209 1.429 . S
C1215 C1216 1.523 . S
C1216 C1197 1.368 . S
C1216 C1210 1.368 . S
C1216 C1215 1.523 . S
C1217 C1201 1.429 1_655 S
C1217 C1213 1.429 . S
C1217 C1218 1.523 1_655 S
C1218 C1202 1.368 1_455 S
C1218 C1214 1.368 . S
C1218 C1217 1.523 1_455 S
H1219 C1194 0.950 . S
H1220 C1196 0.950 . S
H1221 C1197 0.949 . S
H1222 C1199 0.949 . S
H1223 C1201 0.950 . S
C1224 C1225 1.349 . S
C1224 C1226 1.327 . S
C1224 H1249 0.950 . S
C1225 C1224 1.349 . S
C1225 C1241 1.349 . S
C1226 C1224 1.327 . S
C1226 C1245 1.429 . S
C1226 H1250 0.950 . S
C1227 C1244 1.595 . S
C1227 C1246 1.368 . S
C1227 H1251 0.949 . S
H1228 C1232 0.949 . S
C1229 C1230 1.349 . S
C1229 C1231 1.327 . S
C1229 H1252 0.950 . S
C1230 C1229 1.349 . S
C1230 C1242 1.349 . S
C1231 C1229 1.327 . S
C1231 C1247 1.429 . S
C1231 H1253 0.950 . S
C1232 H1228 0.949 . S
C1232 C1240 1.558 1_554 S
C1232 C1248 1.368 . S
H1233 C1241 0.950 . S
H1234 C1239 0.950 . S
H1235 C1240 0.949 . S
H1236 C1242 0.950 . S
H1237 C1243 0.950 . S
H1238 C1244 0.949 . S
C1239 H1234 0.950 . S
C1239 C1241 1.327 . S
C1239 C1245 1.429 . S
C1240 C1232 1.558 1_556 S
C1240 H1235 0.949 . S
C1240 C1246 1.383 . S
C1241 C1225 1.349 . S
C1241 H1233 0.950 . S
C1241 C1239 1.327 . S
C1242 C1230 1.349 . S
C1242 H1236 0.950 . S
C1242 C1243 1.327 . S
C1243 H1237 0.950 . S
C1243 C1242 1.327 . S
C1243 C1247 1.429 . S
C1244 C1227 1.595 . S
C1244 H1238 0.949 . S
C1244 C1248 1.349 1_556 S
C1245 C1226 1.429 . S
C1245 C1239 1.429 . S
C1245 C1246 1.523 . S
C1246 C1227 1.368 . S
C1246 C1240 1.383 . S
C1246 C1245 1.523 . S
C1247 C1231 1.429 . S
C1247 C1243 1.429 . S
C1247 C1248 1.523 . S
C1248 C1232 1.368 . S
C1248 C1244 1.349 1_554 S
C1248 C1247 1.523 . S
H1249 C1224 0.950 . S
H1250 C1226 0.950 . S
H1251 C1227 0.949 . S
H1252 C1229 0.950 . S
H1253 C1231 0.950 . S
C1254 C1255 1.349 . S
C1254 C1256 1.327 . S
C1254 H1279 0.950 . S
C1255 C1254 1.349 . S
C1255 C1271 1.349 . S
C1256 C1254 1.327 . S
C1256 C1275 1.429 . S
C1256 H1280 0.950 1_556 S
C1257 C1274 1.569 1_565 S
C1257 C1276 1.371 . S
C1257 H1281 0.951 . S
H1258 C1262 0.949 . S
C1259 C1260 1.349 . S
C1259 C1261 1.327 . S
C1259 H1282 0.950 . S
C1260 C1259 1.349 . S
C1260 C1272 1.349 . S
C1261 C1259 1.327 . S
C1261 C1277 1.429 . S
C1261 H1283 0.950 1_554 S
C1262 H1258 0.949 . S
C1262 C1270 1.574 . S
C1262 C1278 1.368 . S
H1263 C1271 0.950 . S
H1264 C1269 0.950 . S
H1265 C1270 0.949 . S
H1266 C1272 0.950 . S
H1267 C1273 0.950 . S
H1268 C1274 0.949 . S
C1269 H1264 0.950 . S
C1269 C1271 1.327 . S
C1269 C1275 1.429 . S
C1270 C1262 1.574 . S
C1270 H1265 0.949 . S
C1270 C1276 1.368 1_544 S
C1271 C1255 1.349 . S
C1271 H1263 0.950 . S
C1271 C1269 1.327 . S
C1272 C1260 1.349 . S
C1272 H1266 0.950 . S
C1272 C1273 1.327 . S
C1273 H1267 0.950 . S
C1273 C1272 1.327 . S
C1273 C1277 1.429 . S
C1274 C1257 1.569 1_545 S
C1274 H1268 0.949 . S
C1274 C1278 1.368 1_556 S
C1275 C1256 1.429 . S
C1275 C1269 1.429 . S
C1275 C1276 1.523 . S
C1276 C1257 1.371 . S
C1276 C1270 1.368 1_566 S
C1276 C1275 1.523 . S
C1277 C1261 1.429 . S
C1277 C1273 1.429 . S
C1277 C1278 1.523 . S
C1278 C1262 1.368 . S
C1278 C1274 1.368 1_554 S
C1278 C1277 1.523 . S
H1279 C1254 0.950 . S
H1280 C1256 0.950 1_554 S
H1281 C1257 0.951 . S
H1282 C1259 0.950 . S
H1283 C1261 0.950 1_556 S
C1284 C1285 1.349 . S
C1284 C1286 1.327 . S
C1284 H1309 0.950 . S
C1285 C1284 1.349 . S
C1285 C1301 1.349 . S
C1286 C1284 1.327 . S
C1286 C1305 1.429 . S
C1286 H1310 0.950 1_556 S
C1287 C1304 1.574 . S
C1287 C1306 1.368 . S
C1287 H1311 0.949 . S
H1288 C1292 0.939 1_655 S
C1289 C1290 1.349 . S
C1289 C1291 1.327 . S
C1289 H1312 0.950 . S
C1290 C1289 1.349 . S
C1290 C1302 1.349 . S
C1291 C1289 1.327 . S
C1291 C1307 1.429 . S
C1291 H1313 0.950 1_554 S
C1292 H1288 0.939 1_455 S
C1292 C1300 1.574 . S
C1292 C1308 1.368 . S
H1293 C1301 0.950 . S
H1294 C1299 0.950 . S
H1295 C1300 0.949 . S
H1296 C1302 0.950 . S
H1297 C1303 0.950 . S
H1298 C1304 0.949 . S
C1299 H1294 0.950 . S
C1299 C1301 1.327 . S
C1299 C1305 1.429 . S
C1300 C1292 1.574 . S
C1300 H1295 0.949 . S
C1300 C1306 1.368 1_554 S
C1301 C1285 1.349 . S
C1301 H1293 0.950 . S
C1301 C1299 1.327 . S
C1302 C1290 1.349 . S
C1302 H1296 0.950 . S
C1302 C1303 1.327 . S
C1303 H1297 0.950 . S
C1303 C1302 1.327 . S
C1303 C1307 1.429 . S
C1304 C1287 1.574 . S
C1304 H1298 0.949 . S
C1304 C1308 1.368 1_556 S
C1305 C1286 1.429 . S
C1305 C1299 1.429 . S
C1305 C1306 1.523 . S
C1306 C1287 1.368 . S
C1306 C1300 1.368 1_556 S
C1306 C1305 1.523 . S
C1307 C1291 1.429 . S
C1307 C1303 1.429 . S
C1307 C1308 1.523 1_655 S
C1308 C1292 1.368 . S
C1308 C1304 1.368 1_554 S
C1308 C1307 1.523 1_455 S
H1309 C1284 0.950 . S
H1310 C1286 0.950 1_554 S
H1311 C1287 0.949 . S
H1312 C1289 0.950 . S
H1313 C1291 0.950 1_556 S
C235 C1 1.981 . S
C240 C183 1.978 1_554 S
C265 C159 1.839 1_554 S
C270 C16 1.836 . S
C295 C29 1.900 . S
C300 C170 1.921 . S
C325 C79 1.983 . S
C330 C27 1.982 . S
C355 C101 2.031 . S
C360 C3 1.913 . S
C385 C105 1.987 . S
C390 C14 1.988 . S
C415 C49 1.992 . S
C420 C144 2.101 . S
C445 C118 2.041 . S
C450 C57 1.924 . S
C475 C140 1.940 . S
C480 C68 2.046 . S
C505 C66 2.080 . S
C510 C205 1.984 . S
C535 C44 1.837 . S
C540 C213 1.838 . S
C565 C224 2.028 . S
C570 C62 1.918 . S
C595 C157 1.907 . S
C600 C107 1.885 . S
C625 C81 1.838 . S
C630 C172 1.839 . S
C655 C185 1.833 . S
C660 C96 1.959 . S
C685 C222 1.993 . S
C690 C120 2.004 . S
C715 C135 1.831 . S
C720 C200 1.829 . S
C745 C218 1.903 . S
C750 C146 2.009 . S
C775 C196 1.701 . S
C780 C10 1.700 . S
C805 C18 1.615 . S
C810 C211 1.616 . S
C835 C31 1.601 . S
C840 C226 1.615 . S
C865 C36 1.678 . S
C870 C153 1.688 . S
C895 C127 1.678 . S
C900 C5 1.659 . S
C925 C23 1.685 . S
C930 C131 1.686 . S
C955 C88 1.681 . S
C960 C40 1.682 . S
C985 C92 1.681 . S
C990 C55 1.663 . S
C1015 C70 1.670 . S
C1020 C114 1.663 . S
C1045 C75 1.709 . S
C1050 C192 1.700 . S
C1075 C42 1.615 . S
C1080 C161 1.616 . S
C1105 C53 1.713 . S
C1110 C179 1.713 . S
C1135 C109 1.644 . S
C1140 C231 1.662 . S
C1165 C83 1.634 . S
C1170 C198 1.634 . S
C1195 C209 1.660 . S
C1200 C94 1.666 . S
C1225 C166 1.655 . S
C1230 C122 1.660 . S
C1255 C174 1.636 . S
C1260 C133 1.637 . S
C1285 C187 1.629 . S
C1290 C148 1.643 . S
