# Generated by pormake.
# Topology bcs, (6)-cn, num edge types: 1
# Building blocks:
#     Node 0, Type 0, BuildingBlock: GEDQOX_clean_sbu_0, # of connection points: 6
#     Node 1, Type 0, BuildingBlock: GEDQOX_clean_sbu_0, # of connection points: 6
#     Node 2, Type 0, BuildingBlock: GEDQOX_clean_sbu_0, # of connection points: 6
#     Node 3, Type 0, BuildingBlock: GEDQOX_clean_sbu_0, # of connection points: 6
#     Node 4, Type 0, BuildingBlock: GEDQOX_clean_sbu_0, # of connection points: 6
#     Node 5, Type 0, BuildingBlock: GEDQOX_clean_sbu_0, # of connection points: 6
#     Node 6, Type 0, BuildingBlock: GEDQOX_clean_sbu_0, # of connection points: 6
#     Node 7, Type 0, BuildingBlock: GEDQOX_clean_sbu_0, # of connection points: 6
#     Node 8, Type 0, BuildingBlock: GEDQOX_clean_sbu_0, # of connection points: 6
#     Node 9, Type 0, BuildingBlock: GEDQOX_clean_sbu_0, # of connection points: 6
#     Node 10, Type 0, BuildingBlock: GEDQOX_clean_sbu_0, # of connection points: 6
#     Node 11, Type 0, BuildingBlock: GEDQOX_clean_sbu_0, # of connection points: 6
#     Node 12, Type 0, BuildingBlock: GEDQOX_clean_sbu_0, # of connection points: 6
#     Node 13, Type 0, BuildingBlock: GEDQOX_clean_sbu_0, # of connection points: 6
#     Node 14, Type 0, BuildingBlock: GEDQOX_clean_sbu_0, # of connection points: 6
#     Node 15, Type 0, BuildingBlock: GEDQOX_clean_sbu_0, # of connection points: 6
#     Edge 16, Type (0, 0), BuildingBlock: ZUJKAS_clean_linker_0, # of connection points: 2
#     Edge 17, Type (0, 0), BuildingBlock: ZUJKAS_clean_linker_0, # of connection points: 2
#     Edge 18, Type (0, 0), BuildingBlock: ZUJKAS_clean_linker_0, # of connection points: 2
#     Edge 19, Type (0, 0), BuildingBlock: ZUJKAS_clean_linker_0, # of connection points: 2
#     Edge 20, Type (0, 0), BuildingBlock: ZUJKAS_clean_linker_0, # of connection points: 2
#     Edge 21, Type (0, 0), BuildingBlock: ZUJKAS_clean_linker_0, # of connection points: 2
#     Edge 22, Type (0, 0), BuildingBlock: ZUJKAS_clean_linker_0, # of connection points: 2
#     Edge 23, Type (0, 0), BuildingBlock: ZUJKAS_clean_linker_0, # of connection points: 2
#     Edge 24, Type (0, 0), BuildingBlock: ZUJKAS_clean_linker_0, # of connection points: 2
#     Edge 25, Type (0, 0), BuildingBlock: ZUJKAS_clean_linker_0, # of connection points: 2
#     Edge 26, Type (0, 0), BuildingBlock: ZUJKAS_clean_linker_0, # of connection points: 2
#     Edge 27, Type (0, 0), BuildingBlock: ZUJKAS_clean_linker_0, # of connection points: 2
#     Edge 28, Type (0, 0), BuildingBlock: ZUJKAS_clean_linker_0, # of connection points: 2
#     Edge 29, Type (0, 0), BuildingBlock: ZUJKAS_clean_linker_0, # of connection points: 2
#     Edge 30, Type (0, 0), BuildingBlock: ZUJKAS_clean_linker_0, # of connection points: 2
#     Edge 31, Type (0, 0), BuildingBlock: ZUJKAS_clean_linker_0, # of connection points: 2
#     Edge 32, Type (0, 0), BuildingBlock: ZUJKAS_clean_linker_0, # of connection points: 2
#     Edge 33, Type (0, 0), BuildingBlock: ZUJKAS_clean_linker_0, # of connection points: 2
#     Edge 34, Type (0, 0), BuildingBlock: ZUJKAS_clean_linker_0, # of connection points: 2
#     Edge 35, Type (0, 0), BuildingBlock: ZUJKAS_clean_linker_0, # of connection points: 2
#     Edge 36, Type (0, 0), BuildingBlock: ZUJKAS_clean_linker_0, # of connection points: 2
#     Edge 37, Type (0, 0), BuildingBlock: ZUJKAS_clean_linker_0, # of connection points: 2
#     Edge 38, Type (0, 0), BuildingBlock: ZUJKAS_clean_linker_0, # of connection points: 2
#     Edge 39, Type (0, 0), BuildingBlock: ZUJKAS_clean_linker_0, # of connection points: 2
#     Edge 40, Type (0, 0), BuildingBlock: ZUJKAS_clean_linker_0, # of connection points: 2
#     Edge 41, Type (0, 0), BuildingBlock: ZUJKAS_clean_linker_0, # of connection points: 2
#     Edge 42, Type (0, 0), BuildingBlock: ZUJKAS_clean_linker_0, # of connection points: 2
#     Edge 43, Type (0, 0), BuildingBlock: ZUJKAS_clean_linker_0, # of connection points: 2
#     Edge 44, Type (0, 0), BuildingBlock: ZUJKAS_clean_linker_0, # of connection points: 2
#     Edge 45, Type (0, 0), BuildingBlock: ZUJKAS_clean_linker_0, # of connection points: 2
#     Edge 46, Type (0, 0), BuildingBlock: ZUJKAS_clean_linker_0, # of connection points: 2
#     Edge 47, Type (0, 0), BuildingBlock: ZUJKAS_clean_linker_0, # of connection points: 2
#     Edge 48, Type (0, 0), BuildingBlock: ZUJKAS_clean_linker_0, # of connection points: 2
#     Edge 49, Type (0, 0), BuildingBlock: ZUJKAS_clean_linker_0, # of connection points: 2
#     Edge 50, Type (0, 0), BuildingBlock: ZUJKAS_clean_linker_0, # of connection points: 2
#     Edge 51, Type (0, 0), BuildingBlock: ZUJKAS_clean_linker_0, # of connection points: 2
#     Edge 52, Type (0, 0), BuildingBlock: ZUJKAS_clean_linker_0, # of connection points: 2
#     Edge 53, Type (0, 0), BuildingBlock: ZUJKAS_clean_linker_0, # of connection points: 2
#     Edge 54, Type (0, 0), BuildingBlock: ZUJKAS_clean_linker_0, # of connection points: 2
#     Edge 55, Type (0, 0), BuildingBlock: ZUJKAS_clean_linker_0, # of connection points: 2
#     Edge 56, Type (0, 0), BuildingBlock: ZUJKAS_clean_linker_0, # of connection points: 2
#     Edge 57, Type (0, 0), BuildingBlock: ZUJKAS_clean_linker_0, # of connection points: 2
#     Edge 58, Type (0, 0), BuildingBlock: ZUJKAS_clean_linker_0, # of connection points: 2
#     Edge 59, Type (0, 0), BuildingBlock: ZUJKAS_clean_linker_0, # of connection points: 2
#     Edge 60, Type (0, 0), BuildingBlock: ZUJKAS_clean_linker_0, # of connection points: 2
#     Edge 61, Type (0, 0), BuildingBlock: ZUJKAS_clean_linker_0, # of connection points: 2
#     Edge 62, Type (0, 0), BuildingBlock: ZUJKAS_clean_linker_0, # of connection points: 2
#     Edge 63, Type (0, 0), BuildingBlock: ZUJKAS_clean_linker_0, # of connection points: 2
# Relax obj value: 0.327
# Max RMSD: 0.303
# Mean RMSD: 0.221
data_MOF--net-bcs--node1-GEDQOX_clean_sbu_0--edge1-ZUJKAS_clean_linker_0
_symmetry_space_group_name_H-M    P1
_symmetry_Int_Tables_number       1
_symmetry_cell_setting            triclinic
loop_
_symmetry_equiv_pos_as_xyz
'x, y, z'
_cell_length_a     51.993198
_cell_length_b     53.16379
_cell_length_c     50.777116
_cell_angle_alpha  114.22697
_cell_angle_beta   92.573461
_cell_angle_gamma 95.324573
loop_
_atom_site_label
_atom_site_type_symbol
_atom_site_fract_x
_atom_site_fract_y
_atom_site_fract_z
_atom_type_partial_charge
Nd0 Nd 0.04452 1.01616 0.03201 0.0
Nd1 Nd 1.00692 0.0188 0.97976 0.0
C2 C 0.08335 1.01691 0.06879 0.0
C3 C 0.09475 0.9978 0.08023 0.0
C4 C 0.10806 0.97573 0.06279 0.0
C5 C 0.1199 0.9591 0.07431 0.0
C6 C 0.11901 0.9639 0.10377 0.0
C7 C 0.10545 0.98586 0.12105 0.0
C8 C 0.09364 1.00248 0.10953 0.0
C9 C 1.00014 0.97843 0.02015 0.0
C10 C 0.05098 0.97433 0.96325 0.0
C11 C 0.96834 1.01823 0.94276 0.0
C12 C 0.9575 0.03721 0.93078 0.0
C13 C 0.94733 0.06166 0.94855 0.0
C14 C 0.93594 0.07826 0.93664 0.0
C15 C 0.93419 0.07106 0.90647 0.0
C16 C 0.94467 0.0467 0.88885 0.0
C17 C 0.95603 0.03012 0.90076 0.0
C18 C 0.05121 0.05675 0.99199 0.0
C19 C 1.00047 0.06053 0.04855 0.0
O20 O 0.08591 1.01256 0.04175 0.0
O21 O 0.06084 0.02507 0.07693 0.0
O22 O 1.01937 0.98177 0.03871 0.0
O23 O 1.00547 0.99398 0.00716 0.0
O24 O 0.06068 0.98636 0.99071 0.0
O25 O 0.02909 0.98082 0.95413 0.0
O26 O 0.96581 0.0233 0.96998 0.0
O27 O 0.99062 1.00934 0.93465 0.0
O28 O 0.03215 0.0533 0.97321 0.0
O29 O 0.0458 0.04104 1.00475 0.0
O30 O 0.99061 0.04832 0.02113 0.0
O31 O 1.02249 0.05422 0.05759 0.0
H32 H 0.10964 0.97143 0.04019 0.0
H33 H 0.13031 0.94282 0.06012 0.0
H34 H 0.10374 0.99024 0.14364 0.0
H35 H 0.08375 0.01929 0.12375 0.0
H36 H 0.94787 0.0679 0.97174 0.0
H37 H 0.92796 0.09649 0.95117 0.0
H38 H 0.9443 0.04037 0.86566 0.0
H39 H 0.96351 1.01147 0.88631 0.0
Nd40 Nd 0.26743 0.78656 0.28555 0.0
Nd41 Nd 0.27599 0.74295 0.22573 0.0
C42 C 0.27433 0.8219 0.34059 0.0
C43 C 0.27821 0.81661 0.36681 0.0
C44 C 0.3003 0.80512 0.37167 0.0
C45 C 0.30018 0.79198 0.39051 0.0
C46 C 0.27797 0.78999 0.40464 0.0
C47 C 0.25735 0.80471 0.40266 0.0
C48 C 0.25755 0.81802 0.38401 0.0
C49 C 0.22766 0.74436 0.26052 0.0
C50 C 0.29733 0.73093 0.27988 0.0
C51 C 0.26994 0.70775 0.17066 0.0
C52 C 0.26656 0.71273 0.14423 0.0
C53 C 0.24551 0.7257 0.13957 0.0
C54 C 0.24616 0.73736 0.11942 0.0
C55 C 0.26793 0.73642 0.10374 0.0
C56 C 0.28757 0.72076 0.10621 0.0
C57 C 0.2868 0.70893 0.12616 0.0
C58 C 0.31541 0.7856 0.25124 0.0
C59 C 0.24631 0.79861 0.23124 0.0
O60 O 0.29311 0.81695 0.32344 0.0
O61 O 0.25136 0.81253 0.32626 0.0
O62 O 0.22388 0.76988 0.27611 0.0
O63 O 0.25145 0.74179 0.2602 0.0
O64 O 0.29301 0.7569 0.29606 0.0
O65 O 0.28949 0.71902 0.25182 0.0
O66 O 0.25083 0.7126 0.18736 0.0
O67 O 0.29272 0.71733 0.18537 0.0
O68 O 0.3196 0.76007 0.23635 0.0
O69 O 0.29158 0.78763 0.25087 0.0
O70 O 0.25058 0.77263 0.21506 0.0
O71 O 0.25401 0.81045 0.25935 0.0
H72 H 0.31684 0.8042 0.35921 0.0
H73 H 0.31664 0.78147 0.3922 0.0
H74 H 0.23989 0.8037 0.41321 0.0
H75 H 0.24045 0.8271 0.38102 0.0
H76 H 0.22935 0.72859 0.15283 0.0
H77 H 0.2304 0.74866 0.11752 0.0
H78 H 0.30474 0.71962 0.09467 0.0
H79 H 0.30315 0.69881 0.12915 0.0
Nd80 Nd 0.53414 0.043 0.49507 0.0
Nd81 Nd 0.51757 0.99898 0.51713 0.0
C82 C 0.55831 0.08195 0.48224 0.0
C83 C 0.55249 0.10858 0.48285 0.0
C84 C 0.56876 0.12239 0.47047 0.0
C85 C 0.56176 0.14612 0.46796 0.0
C86 C 0.53829 0.15621 0.47769 0.0
C87 C 0.52263 0.14293 0.49125 0.0
C88 C 0.52966 0.11926 0.49377 0.0
C89 C 0.49355 1.00458 0.46253 0.0
C90 C 0.48662 0.05558 0.53541 0.0
C91 C 0.49214 0.96159 0.53135 0.0
C92 C 0.49595 0.93681 0.53622 0.0
C93 C 0.51475 0.91971 0.52268 0.0
C94 C 0.51932 0.8975 0.52958 0.0
C95 C 0.50533 0.89236 0.55031 0.0
C96 C 0.48609 0.90918 0.56322 0.0
C97 C 0.48143 0.93119 0.55617 0.0
C98 C 0.55803 0.03741 0.54971 0.0
C99 C 0.56555 0.98667 0.47697 0.0
O100 O 0.5621 0.08097 0.50744 0.0
O101 O 0.54368 0.06011 0.46322 0.0
O102 O 0.49479 0.03071 0.46748 0.0
O103 O 0.51358 0.99967 0.47351 0.0
O104 O 0.50522 0.06723 0.52568 0.0
O105 O 0.48571 0.02911 0.53111 0.0
O106 O 0.49203 0.95935 0.50468 0.0
O107 O 0.50468 0.98494 0.55033 0.0
O108 O 0.55679 1.01131 0.54491 0.0
O109 O 0.53797 0.04226 0.53871 0.0
O110 O 0.5476 0.97516 0.4877 0.0
O111 O 0.56563 1.01272 0.48001 0.0
H112 H 0.5864 0.11427 0.46185 0.0
H113 H 0.57406 0.15573 0.45715 0.0
H114 H 0.50459 0.15043 0.49923 0.0
H115 H 0.51689 0.10878 0.5034 0.0
H116 H 0.5263 0.92393 0.50738 0.0
H117 H 0.53447 0.88506 0.51957 0.0
H118 H 0.47492 0.90554 0.57909 0.0
H119 H 0.46686 0.94426 0.56683 0.0
Nd120 Nd 0.27945 0.28976 0.74216 0.0
Nd121 Nd 0.26975 0.24937 0.77047 0.0
C122 C 0.28623 0.31635 0.70774 0.0
C123 C 0.30459 0.32713 0.69163 0.0
C124 C 0.31177 0.30991 0.66414 0.0
C125 C 0.32658 0.32115 0.64801 0.0
C126 C 0.33445 0.35001 0.6587 0.0
C127 C 0.32762 0.36704 0.68645 0.0
C128 C 0.31294 0.35582 0.70254 0.0
C129 C 0.31267 0.30113 0.79047 0.0
C130 C 0.30971 0.23302 0.72047 0.0
C131 C 0.26296 0.22276 0.80489 0.0
C132 C 0.24471 0.21242 0.82145 0.0
C133 C 0.24161 0.22861 0.85084 0.0
C134 C 0.22703 0.21743 0.86715 0.0
C135 C 0.21528 0.18958 0.85472 0.0
C136 C 0.21802 0.17364 0.82516 0.0
C137 C 0.23249 0.18482 0.80888 0.0
C138 C 0.23668 0.23804 0.72202 0.0
C139 C 0.2392 0.30585 0.79188 0.0
O140 O 0.27878 0.28961 0.69798 0.0
O141 O 0.28841 0.32869 0.73607 0.0
O142 O 0.30321 0.31989 0.78419 0.0
O143 O 0.30533 0.27725 0.77096 0.0
O144 O 0.30035 0.25216 0.7136 0.0
O145 O 0.30387 0.23058 0.74452 0.0
O146 O 0.27107 0.24936 0.81464 0.0
O147 O 0.26013 0.21057 0.77656 0.0
O148 O 0.2461 0.21926 0.72828 0.0
O149 O 0.2439 0.26185 0.74168 0.0
O150 O 0.24889 0.28704 0.79904 0.0
O151 O 0.2449 0.30803 0.76766 0.0
H152 H 0.30546 0.28779 0.65473 0.0
H153 H 0.33113 0.30725 0.6267 0.0
H154 H 0.33356 0.38923 0.69584 0.0
H155 H 0.30761 0.36985 0.72343 0.0
H156 H 0.25102 0.24978 0.86153 0.0
H157 H 0.22572 0.23043 0.88984 0.0
H158 H 0.20903 0.15231 0.81447 0.0
H159 H 0.23462 0.17149 0.78647 0.0
Nd160 Nd 1.00554 1.01626 0.52354 0.0
Nd161 Nd 0.04814 0.02479 0.48876 0.0
C162 C 0.97401 1.01134 0.56194 0.0
C163 C 0.96373 0.99263 0.57554 0.0
C164 C 0.96536 1.00238 0.60591 0.0
C165 C 0.95307 0.98657 0.61926 0.0
C166 C 0.93858 0.96046 0.60267 0.0
C167 C 0.93753 0.95045 0.57218 0.0
C168 C 0.94987 0.96626 0.55885 0.0
C169 C 1.00089 0.97772 0.46693 0.0
C170 C 0.0594 0.98965 0.52825 0.0
C171 C 0.08499 0.02771 0.45482 0.0
C172 C 0.0968 0.04592 0.44124 0.0
C173 C 0.09261 0.03799 0.41115 0.0
C174 C 0.10521 0.05368 0.3978 0.0
C175 C 0.12263 0.07778 0.41405 0.0
C176 C 0.12656 0.08584 0.44424 0.0
C177 C 0.11392 0.0702 0.45759 0.0
C178 C 0.04046 0.07252 0.53599 0.0
C179 C 0.99325 0.04697 0.48199 0.0
O180 O 0.99791 0.02345 0.56917 0.0
O181 O 0.96691 1.00418 0.53463 0.0
O182 O 0.98187 0.98939 0.48066 0.0
O183 O 1.02192 0.98611 0.48301 0.0
O184 O 0.03491 0.99099 0.53416 0.0
O185 O 0.06931 1.00135 0.51173 0.0
O186 O 0.06165 1.01443 0.44471 0.0
O187 O 0.08901 0.03634 0.48299 0.0
O188 O 0.04477 0.07136 0.5107 0.0
O189 O 0.04054 0.0488 0.53595 0.0
O190 O 1.01184 0.03352 0.46731 0.0
O191 O 0.98994 0.04815 0.50825 0.0
H192 H 0.97569 0.02266 0.61944 0.0
H193 H 0.95488 0.99497 0.64271 0.0
H194 H 0.92642 0.93071 0.55845 0.0
H195 H 0.94794 0.95805 0.5354 0.0
H196 H 0.07991 0.01925 0.39773 0.0
H197 H 0.10178 0.0464 0.37452 0.0
H198 H 0.13944 0.1044 0.45773 0.0
H199 H 0.11787 0.07703 0.48076 0.0
Nd200 Nd 0.2738 0.78121 0.7332 0.0
Nd201 Nd 0.28582 0.76312 0.78313 0.0
C202 C 0.26344 0.80746 0.69955 0.0
C203 C 0.24553 0.82354 0.69024 0.0
C204 C 0.25537 0.84881 0.68956 0.0
C205 C 0.24008 0.86264 0.67747 0.0
C206 C 0.21432 0.85167 0.66552 0.0
C207 C 0.20426 0.82668 0.66694 0.0
C208 C 0.21962 0.8128 0.679 0.0
C209 C 0.25165 0.72958 0.72493 0.0
C210 C 0.23792 0.80036 0.79037 0.0
C211 C 0.29633 0.73698 0.81684 0.0
C212 C 0.31381 0.72019 0.82559 0.0
C213 C 0.30351 0.69477 0.82564 0.0
C214 C 0.31839 0.68032 0.83732 0.0
C215 C 0.34417 0.69079 0.8495 0.0
C216 C 0.3547 0.71592 0.84871 0.0
C217 C 0.33975 0.73042 0.83706 0.0
C218 C 0.30836 0.81469 0.79119 0.0
C219 C 0.32118 0.74335 0.72577 0.0
O220 O 0.2773 0.81958 0.72469 0.0
O221 O 0.25638 0.78104 0.69234 0.0
O222 O 0.2609 0.73534 0.70447 0.0
O223 O 0.25284 0.75095 0.74846 0.0
O224 O 0.24597 0.80445 0.76777 0.0
O225 O 0.24816 0.78256 0.79878 0.0
O226 O 0.28148 0.72518 0.79237 0.0
O227 O 0.30436 0.76308 0.82341 0.0
O228 O 0.29931 0.80899 0.81178 0.0
O229 O 0.30673 0.79323 0.76771 0.0
O230 O 0.31253 0.73887 0.7479 0.0
O231 O 0.31176 0.76197 0.718 0.0
H232 H 0.27526 0.8576 0.69777 0.0
H233 H 0.2486 0.88198 0.6774 0.0
H234 H 0.18471 0.81724 0.65785 0.0
H235 H 0.21135 0.79326 0.67882 0.0
H236 H 0.28358 0.68635 0.81727 0.0
H237 H 0.30954 0.6609 0.83691 0.0
H238 H 0.37428 0.72499 0.85802 0.0
H239 H 0.34837 0.75005 0.83776 0.0
Nd240 Nd 0.5311 0.04176 0.99431 0.0
Nd241 Nd 0.51714 0.99633 0.01178 0.0
C242 C 0.54351 0.0753 0.96897 0.0
C243 C 0.56546 0.0808 0.95413 0.0
C244 C 0.56187 0.09315 0.93486 0.0
C245 C 0.58326 0.1025 0.92417 0.0
C246 C 0.60862 0.09998 0.93295 0.0
C247 C 0.61193 0.08594 0.95085 0.0
C248 C 0.59051 0.07631 0.96122 0.0
C249 C 0.55191 0.05122 0.04858 0.0
C250 C 0.56522 0.98886 0.97013 0.0
C251 C 0.51027 0.9575 0.03132 0.0
C252 C 0.48718 0.94427 0.03822 0.0
C253 C 0.48809 0.91932 0.04116 0.0
C254 C 0.46548 0.90527 0.04493 0.0
C255 C 0.44162 0.91599 0.04571 0.0
C256 C 0.44097 0.94138 0.04341 0.0
C257 C 0.46357 0.95537 0.03961 0.0
C258 C 0.48284 0.99656 0.96905 0.0
C259 C 0.4852 0.04993 0.03649 0.0
O260 O 0.52875 0.05161 0.95568 0.0
O261 O 0.54859 0.08201 0.99657 0.0
O262 O 0.54108 0.06949 0.04271 0.0
O263 O 0.55171 0.02886 0.02634 0.0
O264 O 0.56269 1.01408 0.97201 0.0
O265 O 0.55007 0.97755 0.98358 0.0
O266 O 0.51718 0.98379 0.04834 0.0
O267 O 0.51103 0.95201 1.00381 0.0
O268 O 0.47584 0.99144 0.99067 0.0
O269 O 0.50712 1.00051 0.9701 0.0
O270 O 0.49575 0.03146 0.04343 0.0
O271 O 0.49223 0.05389 0.0136 0.0
H272 H 0.54262 0.09655 0.92897 0.0
H273 H 0.57996 0.11257 0.90983 0.0
H274 H 0.63111 0.08374 0.95823 0.0
H275 H 0.59364 0.0666 0.97596 0.0
H276 H 0.50618 0.91046 0.03999 0.0
H277 H 0.46662 0.88595 0.04707 0.0
H278 H 0.42286 0.95001 0.04366 0.0
H279 H 0.46253 0.97453 0.03707 0.0
Nd280 Nd 0.29441 0.28497 0.27547 0.0
Nd281 Nd 0.25465 0.25243 0.23138 0.0
C282 C 0.33782 0.3137 0.3072 0.0
C283 C 0.36088 0.30739 0.31978 0.0
C284 C 0.38149 0.3283 0.33418 0.0
C285 C 0.40289 0.32269 0.34765 0.0
C286 C 0.40389 0.29605 0.3469 0.0
C287 C 0.38326 0.27505 0.33189 0.0
C288 C 0.36199 0.28066 0.31838 0.0
C289 C 0.26434 0.24803 0.29113 0.0
C290 C 0.30833 0.22717 0.22307 0.0
C291 C 0.21139 0.22428 0.19895 0.0
C292 C 0.18801 0.23119 0.18744 0.0
C293 C 0.18037 0.25785 0.20075 0.0
C294 C 0.15952 0.26504 0.18812 0.0
C295 C 0.14614 0.24579 0.16178 0.0
C296 C 0.15344 0.21883 0.14897 0.0
C297 C 0.17424 0.21163 0.16173 0.0
C298 C 0.2851 0.28932 0.21606 0.0
C299 C 0.2407 0.31017 0.28385 0.0
O300 O 0.33504 0.30389 0.27895 0.0
O301 O 0.31623 0.31033 0.31814 0.0
O302 O 0.27269 0.27352 0.30826 0.0
O303 O 0.2726 0.24199 0.26641 0.0
O304 O 0.3174 0.25255 0.24206 0.0
O305 O 0.28309 0.21965 0.2186 0.0
O306 O 0.21443 0.23225 0.22701 0.0
O307 O 0.23278 0.22882 0.1883 0.0
O308 O 0.27719 0.26371 0.19897 0.0
O309 O 0.2764 0.29537 0.24056 0.0
O310 O 0.23159 0.28488 0.26469 0.0
O311 O 0.26593 0.31763 0.28842 0.0
H312 H 0.38087 0.34905 0.33534 0.0
H313 H 0.41856 0.33921 0.35874 0.0
H314 H 0.38313 0.25444 0.33131 0.0
H315 H 0.34613 0.2643 0.30735 0.0
H316 H 0.19086 0.2733 0.22056 0.0
H317 H 0.15414 0.28584 0.19875 0.0
H318 H 0.14375 0.20364 0.12854 0.0
H319 H 0.18005 0.19101 0.15108 0.0
Nd320 Nd 0.50643 0.5119 0.02187 0.0
Nd321 Nd 0.54921 0.51947 0.98685 0.0
C322 C 0.46941 0.50979 0.05589 0.0
C323 C 0.45709 0.4915 0.06909 0.0
C324 C 0.46234 0.49805 0.09878 0.0
C325 C 0.44945 0.48223 0.1118 0.0
C326 C 0.4307 0.45934 0.0956 0.0
C327 C 0.42563 0.45271 0.06581 0.0
C328 C 0.43853 0.46851 0.05281 0.0
C329 C 0.51296 0.46389 0.97442 0.0
C330 C 0.56055 0.48813 0.02809 0.0
C331 C 0.58061 0.52385 0.94813 0.0
C332 C 0.59145 0.54304 0.93534 0.0
C333 C 0.588 0.53506 0.90523 0.0
C334 C 0.60048 0.55125 0.89238 0.0
C335 C 0.61699 0.57592 0.90921 0.0
C336 C 0.61994 0.58415 0.93949 0.0
C337 C 0.60741 0.568 0.95232 0.0
C338 C 0.55482 0.55766 0.04356 0.0
C339 C 0.49631 0.54785 0.98303 0.0
O340 O 0.493 0.52234 0.06595 0.0
O341 O 0.4653 0.5016 0.02779 0.0
O342 O 0.50859 0.46513 0.99973 0.0
O343 O 0.51363 0.4877 0.97454 0.0
O344 O 0.54217 0.5019 0.04288 0.0
O345 O 0.56407 0.4871 1.00192 0.0
O346 O 0.55631 0.51304 0.94132 0.0
O347 O 0.58814 0.52972 0.97506 0.0
O348 O 0.57347 0.54554 0.02942 0.0
O349 O 0.53361 0.55 0.02775 0.0
O350 O 0.52077 0.54607 0.97713 0.0
O351 O 0.48599 0.53604 0.99925 0.0
H352 H 0.47628 0.51571 0.11214 0.0
H353 H 0.45431 0.48795 0.13464 0.0
H354 H 0.41113 0.43565 0.0525 0.0
H355 H 0.43358 0.46291 0.03 0.0
H356 H 0.57603 0.51589 0.89145 0.0
H357 H 0.59721 0.54426 0.86912 0.0
H358 H 0.63265 0.60269 0.95335 0.0
H359 H 0.61081 0.57479 0.97555 0.0
Nd360 Nd 0.76793 0.27394 0.22964 0.0
Nd361 Nd 0.7805 0.2578 0.28038 0.0
C362 C 0.75828 0.29889 0.19466 0.0
C363 C 0.74177 0.31603 0.18552 0.0
C364 C 0.75372 0.33532 0.17613 0.0
C365 C 0.73893 0.34958 0.16421 0.0
C366 C 0.71159 0.34507 0.16131 0.0
C367 C 0.69959 0.3263 0.17156 0.0
C368 C 0.71447 0.31187 0.18338 0.0
C369 C 0.7439 0.22368 0.22399 0.0
C370 C 0.73353 0.29606 0.28757 0.0
C371 C 0.79053 0.23235 0.31481 0.0
C372 C 0.80949 0.21865 0.32608 0.0
C373 C 0.81635 0.19214 0.30892 0.0
C374 C 0.83185 0.17848 0.32108 0.0
C375 C 0.8408 0.19078 0.35083 0.0
C376 C 0.83431 0.21755 0.36772 0.0
C377 C 0.81891 0.23118 0.35557 0.0
C378 C 0.80476 0.30794 0.28591 0.0
C379 C 0.8151 0.2357 0.22234 0.0
O380 O 0.77362 0.3108 0.21876 0.0
O381 O 0.74891 0.27341 0.18932 0.0
O382 O 0.75303 0.22808 0.20267 0.0
O383 O 0.74654 0.24569 0.24703 0.0
O384 O 0.74177 0.29971 0.26483 0.0
O385 O 0.74306 0.27782 0.29581 0.0
O386 O 0.77961 0.21936 0.28819 0.0
O387 O 0.79467 0.25928 0.32316 0.0
O388 O 0.79613 0.30349 0.30739 0.0
O389 O 0.80194 0.28591 0.26296 0.0
O390 O 0.80775 0.23308 0.24593 0.0
O391 O 0.80459 0.25276 0.21306 0.0
H392 H 0.77469 0.33891 0.17735 0.0
H393 H 0.74901 0.36414 0.15714 0.0
H394 H 0.67866 0.32204 0.16962 0.0
H395 H 0.70461 0.29703 0.19023 0.0
H396 H 0.80927 0.18163 0.28621 0.0
H397 H 0.83611 0.15784 0.30729 0.0
H398 H 0.84107 0.22809 0.39051 0.0
H399 H 0.81386 0.25143 0.36955 0.0
Nd400 Nd 0.02696 0.53728 0.49259 0.0
Nd401 Nd 1.02338 0.4976 0.51881 0.0
C402 C 0.03294 0.56333 0.45841 0.0
C403 C 0.05655 0.57393 0.44974 0.0
C404 C 0.0552 0.5846 0.42878 0.0
C405 C 0.07781 0.59629 0.42212 0.0
C406 C 0.10206 0.59762 0.43652 0.0
C407 C 0.10325 0.58608 0.45693 0.0
C408 C 0.08071 0.57425 0.46339 0.0
C409 C 0.05847 0.55431 0.54328 0.0
C410 C 0.0653 0.48717 0.47291 0.0
C411 C 1.01713 0.47088 0.55235 0.0
C412 C 0.99352 0.46079 0.56151 0.0
C413 C 0.99499 0.44923 0.58172 0.0
C414 C 0.97236 0.43776 0.58859 0.0
C415 C 0.94797 0.43753 0.57514 0.0
C416 C 0.94668 0.45 0.55553 0.0
C417 C 0.96925 0.4616 0.54888 0.0
C418 C 0.99307 0.48039 0.46761 0.0
C419 C 0.98515 0.54789 0.53866 0.0
O420 O 0.02836 0.5363 0.44856 0.0
O421 O 0.02958 0.57596 0.48591 0.0
O422 O 0.04564 0.57071 0.53633 0.0
O423 O 0.05563 0.53024 0.52331 0.0
O424 O 0.05207 0.50329 0.46474 0.0
O425 O 0.06116 0.48543 0.49761 0.0
O426 O 1.02253 0.49787 0.56261 0.0
O427 O 1.01971 0.45849 0.52464 0.0
O428 O 1.00661 0.46435 0.47431 0.0
O429 O 0.99483 0.50432 0.48779 0.0
O430 O 0.99814 0.53148 0.54664 0.0
O431 O 0.98948 0.54989 0.51415 0.0
H432 H 0.03666 0.58429 0.41794 0.0
H433 H 0.07627 0.60456 0.40593 0.0
H434 H 0.12146 0.58705 0.46873 0.0
H435 H 0.08204 0.56598 0.47962 0.0
H436 H 1.01362 0.44862 0.59176 0.0
H437 H 0.974 0.42878 0.60417 0.0
H438 H 0.92835 0.4499 0.54447 0.0
H439 H 0.96784 0.47054 0.53321 0.0
Nd440 Nd 0.78204 0.7876 0.24145 0.0
Nd441 Nd 0.77066 0.75377 0.27684 0.0
C442 C 0.78581 0.81856 0.21118 0.0
C443 C 0.80257 0.8275 0.1925 0.0
C444 C 0.79128 0.82862 0.16737 0.0
C445 C 0.80594 0.83938 0.15084 0.0
C446 C 0.83248 0.84951 0.15892 0.0
C447 C 0.84387 0.84787 0.18388 0.0
C448 C 0.82917 0.83707 0.20041 0.0
C449 C 0.82379 0.78768 0.27662 0.0
C450 C 0.80406 0.7284 0.21899 0.0
C451 C 0.76632 0.72232 0.30655 0.0
C452 C 0.74887 0.71252 0.32418 0.0
C453 C 0.75429 0.72264 0.35443 0.0
C454 C 0.73975 0.7115 0.37077 0.0
C455 C 0.71933 0.68969 0.35741 0.0
C456 C 0.7137 0.67989 0.32714 0.0
C457 C 0.72822 0.69104 0.31083 0.0
C458 C 0.72905 0.7536 0.24124 0.0
C459 C 0.74895 0.81304 0.29981 0.0
O460 O 0.77404 0.79308 0.20048 0.0
O461 O 0.79354 0.82772 0.23876 0.0
O462 O 0.8252 0.78696 0.25096 0.0
O463 O 0.80093 0.78984 0.28399 0.0
O464 O 0.79504 0.74647 0.21033 0.0
O465 O 0.79992 0.72935 0.24501 0.0
O466 O 0.7774 0.74811 0.31784 0.0
O467 O 0.75994 0.71309 0.27866 0.0
O468 O 0.72751 0.75458 0.26698 0.0
O469 O 0.75197 0.75133 0.23418 0.0
O470 O 0.75777 0.79469 0.30815 0.0
O471 O 0.75328 0.81248 0.27396 0.0
H472 H 0.7708 0.82174 0.16083 0.0
H473 H 0.79616 0.84049 0.13214 0.0
H474 H 0.86426 0.85493 0.19074 0.0
H475 H 0.83859 0.83657 0.21963 0.0
H476 H 0.77018 0.73891 0.36551 0.0
H477 H 0.74463 0.72006 0.39398 0.0
H478 H 0.69851 0.66291 0.31574 0.0
H479 H 0.72358 0.6823 0.28757 0.0
Nd480 Nd 0.77981 0.2932 0.78385 0.0
Nd481 Nd 0.78542 0.24799 0.72418 0.0
C482 C 0.78811 0.3285 0.83876 0.0
C483 C 0.79137 0.32227 0.86448 0.0
C484 C 0.81212 0.30832 0.86789 0.0
C485 C 0.81038 0.29353 0.88513 0.0
C486 C 0.78791 0.29247 0.89918 0.0
C487 C 0.76897 0.30969 0.89907 0.0
C488 C 0.77075 0.32456 0.88193 0.0
C489 C 0.73879 0.25209 0.7612 0.0
C490 C 0.8079 0.23637 0.77797 0.0
C491 C 0.77697 0.21244 0.66934 0.0
C492 C 0.77208 0.21797 0.6434 0.0
C493 C 0.75002 0.23019 0.63996 0.0
C494 C 0.74963 0.24394 0.62169 0.0
C495 C 0.7713 0.2458 0.60672 0.0
C496 C 0.79172 0.23031 0.6072 0.0
C497 C 0.79202 0.21641 0.62528 0.0
C498 C 0.82646 0.28906 0.74712 0.0
C499 C 0.7571 0.30458 0.72997 0.0
O500 O 0.80662 0.32273 0.82124 0.0
O501 O 0.76493 0.32051 0.82477 0.0
O502 O 0.73582 0.27806 0.77567 0.0
O503 O 0.76237 0.24886 0.76037 0.0
O504 O 0.80513 0.26293 0.79378 0.0
O505 O 0.79859 0.22405 0.75036 0.0
O506 O 0.75883 0.21737 0.68729 0.0
O507 O 0.80029 0.22173 0.68279 0.0
O508 O 0.82943 0.26301 0.73319 0.0
O509 O 0.80289 0.29237 0.74761 0.0
O510 O 0.75977 0.27799 0.71426 0.0
O511 O 0.76666 0.31703 0.7575 0.0
H512 H 0.82863 0.30666 0.85526 0.0
H513 H 0.8256 0.28103 0.88548 0.0
H514 H 0.75141 0.30946 0.90971 0.0
H515 H 0.75467 0.33548 0.88003 0.0
H516 H 0.734 0.23127 0.65315 0.0
H517 H 0.73329 0.25501 0.62112 0.0
H518 H 0.80877 0.23118 0.59597 0.0
H519 H 0.80908 0.2068 0.6272 0.0
Nd520 Nd 0.7975 0.78528 0.78047 0.0
Nd521 Nd 0.75817 0.75434 0.73518 0.0
C522 C 0.84066 0.81161 0.81422 0.0
C523 C 0.86273 0.80335 0.82647 0.0
C524 C 0.86828 0.77577 0.81424 0.0
C525 C 0.88777 0.76745 0.82758 0.0
C526 C 0.90188 0.78651 0.85353 0.0
C527 C 0.89668 0.81432 0.86525 0.0
C528 C 0.87722 0.82264 0.85181 0.0
C529 C 0.76528 0.74853 0.7942 0.0
C530 C 0.81115 0.7276 0.72729 0.0
C531 C 0.71524 0.72678 0.70169 0.0
C532 C 0.69044 0.7327 0.69184 0.0
C533 C 0.67648 0.75293 0.71083 0.0
C534 C 0.65399 0.75961 0.70036 0.0
C535 C 0.64521 0.74635 0.67069 0.0
C536 C 0.65889 0.72552 0.65197 0.0
C537 C 0.68126 0.71874 0.66249 0.0
C538 C 0.79088 0.79063 0.72135 0.0
C539 C 0.74467 0.8124 0.78766 0.0
O540 O 0.83857 0.80365 0.78614 0.0
O541 O 0.81851 0.80825 0.82413 0.0
O542 O 0.77345 0.77391 0.81177 0.0
O543 O 0.77449 0.74264 0.76999 0.0
O544 O 0.82049 0.75235 0.74749 0.0
O545 O 0.78588 0.72096 0.7215 0.0
O546 O 0.71892 0.73139 0.72899 0.0
O547 O 0.73582 0.73476 0.69201 0.0
O548 O 0.78281 0.76513 0.70394 0.0
O549 O 0.78142 0.79683 0.7455 0.0
O550 O 0.73523 0.78747 0.7679 0.0
O551 O 0.77 0.819 0.79317 0.0
H552 H 0.85718 0.76053 0.79473 0.0
H553 H 0.89155 0.74598 0.81777 0.0
H554 H 0.90698 0.82942 0.88537 0.0
H555 H 0.873 0.84396 0.86164 0.0
H556 H 0.68322 0.76397 0.7336 0.0
H557 H 0.64372 0.77549 0.71542 0.0
H558 H 0.65298 0.71521 0.62894 0.0
H559 H 0.69184 0.70313 0.64751 0.0
Nd560 Nd 0.54598 0.51776 0.53258 0.0
Nd561 Nd 0.50731 0.5191 0.48015 0.0
C562 C 0.58544 0.51916 0.56903 0.0
C563 C 0.5975 0.50031 0.58036 0.0
C564 C 0.60767 0.47611 0.56197 0.0
C565 C 0.62013 0.45963 0.57326 0.0
C566 C 0.62299 0.46671 0.60339 0.0
C567 C 0.61253 0.49083 0.62165 0.0
C568 C 0.6001 0.50728 0.61035 0.0
C569 C 0.50206 0.47943 0.52119 0.0
C570 C 0.5516 0.475 0.46381 0.0
C571 C 0.46796 0.51782 0.44363 0.0
C572 C 0.45611 0.53657 0.43195 0.0
C573 C 0.44091 0.55707 0.44862 0.0
C574 C 0.42858 0.57325 0.43685 0.0
C575 C 0.43084 0.56953 0.40787 0.0
C576 C 0.44627 0.54913 0.39135 0.0
C577 C 0.45858 0.53297 0.40312 0.0
C578 C 0.55114 0.55762 0.49177 0.0
C579 C 0.50103 0.56105 0.54891 0.0
O580 O 0.58764 0.51486 0.54193 0.0
O581 O 0.56284 0.52684 0.57739 0.0
O582 O 0.52136 0.48331 0.53988 0.0
O583 O 0.50707 0.49491 0.50809 0.0
O584 O 0.56173 0.48762 0.49112 0.0
O585 O 0.52944 0.48107 0.45477 0.0
O586 O 0.46578 0.52254 0.47083 0.0
O587 O 0.49041 0.50962 0.43527 0.0
O588 O 0.53173 0.55396 0.47331 0.0
O589 O 0.54619 0.542 0.50472 0.0
O590 O 0.49072 0.54766 0.52174 0.0
O591 O 0.52387 0.55606 0.55771 0.0
H592 H 0.60628 0.46998 0.53876 0.0
H593 H 0.62804 0.4416 0.55824 0.0
H594 H 0.61373 0.49704 0.64485 0.0
H595 H 0.59264 0.52573 0.62526 0.0
H596 H 0.43817 0.56045 0.47079 0.0
H597 H 0.41671 0.58826 0.45042 0.0
H598 H 0.44905 0.54564 0.36917 0.0
H599 H 0.4699 0.51734 0.38943 0.0
Nd600 Nd 0.03812 0.54102 0.00641 0.0
Nd601 Nd 1.00887 0.49171 0.01368 0.0
C602 C 0.06315 0.58928 0.01346 0.0
C603 C 0.05539 0.61429 0.01149 0.0
C604 C 0.07427 0.63525 0.01235 0.0
C605 C 0.067 0.65745 0.00685 0.0
C606 C 0.04072 0.65888 1.0003 0.0
C607 C 1.02183 0.63826 1.00062 0.0
C608 C 0.02912 0.61617 0.00617 0.0
C609 C 1.00014 0.51005 0.96272 0.0
C610 C 0.98501 0.55019 0.04215 0.0
C611 C 0.98397 0.44358 0.00735 0.0
C612 C 0.99134 0.41865 0.00979 0.0
C613 C 0.97225 0.39715 0.00711 0.0
C614 C 0.97901 0.37452 0.01209 0.0
C615 C 1.005 0.37316 0.0199 0.0
C616 C 1.02414 0.39448 0.02165 0.0
C617 C 1.01736 0.41701 0.01661 0.0
C618 C 0.04679 0.52312 0.05739 0.0
C619 C 0.0613 0.48224 0.97693 0.0
O620 O 0.05505 0.58418 0.03502 0.0
O621 O 0.06052 0.56715 0.9889 0.0
O622 O 1.0213 0.52222 0.95846 0.0
O623 O 0.99872 0.51656 0.98928 0.0
O624 O 1.00759 0.56168 0.03852 0.0
O625 O 0.97896 0.52285 0.03006 0.0
O626 O 0.99246 0.44822 0.9857 0.0
O627 O 0.98649 0.46597 0.03167 0.0
O628 O 1.02542 0.51139 0.06176 0.0
O629 O 0.0483 0.5161 0.03076 0.0
O630 O 0.03874 0.47094 0.9808 0.0
O631 O 0.06765 0.50954 0.98919 0.0
H632 H 0.09465 0.63402 0.0164 0.0
H633 H 0.08197 0.67314 0.0071 0.0
H634 H 1.00148 0.63843 0.99523 0.0
H635 H 1.01433 0.59998 1.00524 0.0
H636 H 0.95206 0.39818 1.00183 0.0
H637 H 0.96387 0.35831 0.01027 0.0
H638 H 0.04426 0.39438 0.02808 0.0
H639 H 0.03231 0.43358 0.01889 0.0
H640 H 0.1834 0.21386 0.89822 0.0
H641 H 0.16001 0.19312 0.92671 0.0
H642 H 0.19002 0.11565 0.8797 0.0
H643 H 0.214 0.13637 0.85174 0.0
H644 H 0.12188 0.14864 0.90886 0.0
H645 H 0.20576 0.1254 0.96252 0.0
H646 H 0.20932 0.14803 0.94406 0.0
H647 H 0.20522 0.11091 0.92371 0.0
C648 C 0.18538 0.19252 0.89413 0.0
C649 C 0.2008 0.17697 0.87247 0.0
C650 C 0.1718 0.18057 0.91043 0.0
C651 C 0.17342 0.15281 0.90589 0.0
C652 C 0.18873 0.13723 0.88426 0.0
H653 H 0.0945 0.03641 0.96687 0.0
H654 H 0.12589 0.0609 0.94803 0.0
C655 C 0.20222 0.1491 0.86788 0.0
C656 C 0.1583 0.13989 0.92285 0.0
H657 H 0.16403 0.10572 0.96701 0.0
C658 C 0.13119 0.13949 0.92176 0.0
C659 C 0.17019 0.12763 0.93964 0.0
C660 C 0.19924 0.12818 0.94285 0.0
C661 C 0.11574 0.1268 0.93621 0.0
C662 C 0.12761 0.11464 0.95315 0.0
C663 C 0.15475 0.11505 0.95428 0.0
C664 C 0.11198 0.10094 0.9691 0.0
C665 C 0.08665 0.12571 0.93223 0.0
C666 C 0.09473 0.11541 0.98891 0.0
C667 C 0.0769 0.1014 0.99982 0.0
C668 C 0.07626 0.0727 0.99197 0.0
C669 C 0.09507 0.05871 0.97427 0.0
C670 C 0.11279 0.07268 0.96306 0.0
H671 H 0.08042 0.12858 0.91252 0.0
H672 H 0.07672 0.10562 0.93052 0.0
H673 H 0.08012 0.14271 0.9512 0.0
H674 H 0.094 0.13731 0.99468 0.0
H675 H 0.06221 0.11264 0.01265 0.0
H676 H 0.12594 0.90791 0.07744 0.0
H677 H 0.14735 0.88012 0.09811 0.0
H678 H 0.164 0.95185 0.17963 0.0
H679 H 0.14298 0.97986 0.15916 0.0
H680 H 0.19714 0.88382 0.12129 0.0
H681 H 0.13062 0.89602 0.20666 0.0
H682 H 0.12342 0.90576 0.17727 0.0
H683 H 0.14524 0.92855 0.20815 0.0
C684 C 0.13425 0.918 0.09974 0.0
C685 C 0.13228 0.94644 0.11645 0.0
C686 C 0.14649 0.90189 0.11165 0.0
C687 C 0.15705 0.91347 0.14078 0.0
C688 C 0.15549 0.94191 0.15739 0.0
H689 H 0.23649 0.85331 0.25646 0.0
H690 H 0.21584 0.88008 0.23395 0.0
C691 C 0.14331 0.95804 0.14551 0.0
C692 C 0.16991 0.89603 0.15363 0.0
H693 H 0.16868 0.87556 0.20958 0.0
C694 C 0.19076 0.88193 0.14051 0.0
C695 C 0.16189 0.8933 0.17882 0.0
C696 C 0.13892 0.90647 0.19342 0.0
C697 C 0.20405 0.86606 0.1521 0.0
C698 C 0.19607 0.86342 0.17738 0.0
C699 C 0.17511 0.8774 0.19036 0.0
C700 C 0.2092 0.84664 0.19092 0.0
C701 C 0.22712 0.85304 0.13755 0.0
C702 C 0.21239 0.8185 0.17471 0.0
C703 C 0.22439 0.80306 0.18763 0.0
C704 C 0.23341 0.81507 0.21733 0.0
C705 C 0.22993 0.84313 0.23359 0.0
C706 C 0.21801 0.85857 0.22064 0.0
H707 H 0.23554 0.86377 0.12462 0.0
H708 H 0.24254 0.85352 0.15365 0.0
H709 H 0.22085 0.83105 0.12249 0.0
H710 H 0.20528 0.80821 0.15201 0.0
H711 H 0.2264 0.78155 0.1743 0.0
H712 H 0.49404 0.94889 0.44351 0.0
H713 H 0.46358 0.91184 0.40704 0.0
H714 H 0.41907 0.97291 0.39825 0.0
H715 H 0.44967 1.01034 0.43479 0.0
H716 H 0.39189 0.9204 0.40598 0.0
H717 H 0.45675 0.90042 0.31688 0.0
H718 H 0.47077 0.90514 0.35195 0.0
H719 H 0.45873 0.93381 0.34751 0.0
C720 C 0.47769 0.95447 0.43396 0.0
C721 C 0.47422 0.98247 0.44184 0.0
C722 C 0.46039 0.93329 0.41311 0.0
C723 C 0.43933 0.93978 0.39993 0.0
C724 C 0.43536 0.96765 0.40823 0.0
H725 H 0.3096 0.84019 0.27771 0.0
H726 H 0.34019 0.87762 0.31341 0.0
C727 C 0.45279 0.98892 0.42901 0.0
C728 C 0.4217 0.9173 0.37715 0.0
H729 H 0.41759 0.87054 0.30638 0.0
C730 C 0.39736 0.90954 0.38415 0.0
C731 C 0.42922 0.90308 0.34893 0.0
C732 C 0.45523 0.91098 0.3406 0.0
C733 C 0.38027 0.88759 0.36353 0.0
C734 C 0.38759 0.87364 0.33506 0.0
C735 C 0.41205 0.88135 0.32818 0.0
C736 C 0.36989 0.85127 0.31205 0.0
C737 C 0.35481 0.87911 0.37258 0.0
C738 C 0.37699 0.82433 0.29848 0.0
C739 C 0.35963 0.80293 0.27776 0.0
C740 C 0.33501 0.80829 0.27044 0.0
C741 C 0.3284 0.83549 0.2832 0.0
C742 C 0.34575 0.85683 0.30373 0.0
H743 H 0.35535 0.88634 0.39649 0.0
H744 H 0.33919 0.88857 0.36568 0.0
H745 H 0.34972 0.85618 0.36227 0.0
H746 H 0.39566 0.81973 0.30447 0.0
H747 H 0.36513 0.78211 0.2682 0.0
H748 H 0.32721 0.18617 0.72196 0.0
H749 H 0.35644 0.1561 0.69014 0.0
H750 H 0.36259 0.20792 0.64354 0.0
H751 H 0.33319 0.23791 0.67497 0.0
H752 H 0.34977 0.12719 0.62453 0.0
H753 H 0.43981 0.20151 0.66847 0.0
H754 H 0.4118 0.20405 0.68884 0.0
H755 H 0.41161 0.21475 0.65962 0.0
C756 C 0.33478 0.19127 0.705 0.0
C757 C 0.32774 0.21464 0.70122 0.0
C758 C 0.3515 0.17395 0.68673 0.0
C759 C 0.36199 0.17975 0.66448 0.0
C760 C 0.35503 0.20306 0.66066 0.0
H761 H 0.47727 0.10803 0.54233 0.0
H762 H 0.44645 0.13695 0.57223 0.0
C763 C 0.33808 0.22019 0.67867 0.0
C764 C 0.37994 0.16135 0.64511 0.0
H765 H 0.44293 0.15962 0.62798 0.0
C766 C 0.37017 0.13424 0.62534 0.0
C767 C 0.40653 0.17052 0.64585 0.0
C768 C 0.41827 0.19922 0.66691 0.0
C769 C 0.38603 0.1163 0.60606 0.0
C770 C 0.41284 0.12525 0.60709 0.0
C771 C 0.42254 0.15247 0.62695 0.0
C772 C 0.43114 0.10689 0.58792 0.0
C773 C 0.37354 0.08827 0.58412 0.0
C774 C 0.43324 0.08014 0.58651 0.0
C775 C 0.45066 0.06332 0.56899 0.0
C776 C 0.46696 0.07291 0.55274 0.0
C777 C 0.46505 0.09978 0.55437 0.0
C778 C 0.4474 0.11646 0.57163 0.0
H779 H 0.35243 0.0883 0.57964 0.0
H780 H 0.38261 0.08188 0.56333 0.0
H781 H 0.3758 0.07252 0.59287 0.0
H782 H 0.42174 0.07235 0.59942 0.0
H783 H 0.45176 0.04299 0.56875 0.0
H784 H 0.04481 0.96152 0.56124 0.0
H785 H 0.07152 0.9386 0.58335 0.0
H786 H 0.13834 0.9603 0.54632 0.0
H787 H 0.11172 0.98367 0.52432 0.0
H788 H 0.09932 0.8947 0.56031 0.0
H789 H 0.16677 0.988 0.63028 0.0
H790 H 0.13711 0.99021 0.61192 0.0
H791 H 0.1653 0.98086 0.59245 0.0
C792 C 0.0652 0.96154 0.55771 0.0
C793 C 0.07595 0.97474 0.54091 0.0
C794 C 0.08054 0.94829 0.57046 0.0
C795 C 0.10724 0.94793 0.56713 0.0
C796 C 0.118 0.96069 0.54997 0.0
H797 H 0.23058 0.87956 0.63245 0.0
H798 H 0.2049 0.90205 0.60885 0.0
C799 C 0.10262 0.97393 0.53712 0.0
C800 C 0.12348 0.9339 0.58129 0.0
H801 H 0.1767 0.94494 0.62895 0.0
C802 C 0.11619 0.90579 0.57538 0.0
C803 C 0.14565 0.94807 0.60103 0.0
C804 C 0.15411 0.97851 0.60957 0.0
C805 C 0.13046 0.89152 0.58807 0.0
C806 C 0.15253 0.90573 0.608 0.0
C807 C 0.15989 0.93382 0.6138 0.0
C808 C 0.16825 0.89191 0.6229 0.0
C809 C 0.12206 0.86102 0.57929 0.0
C810 C 0.15663 0.87884 0.63934 0.0
C811 C 0.17139 0.8659 0.65304 0.0
C812 C 0.19839 0.86582 0.65109 0.0
C813 C 0.21001 0.87931 0.63496 0.0
C814 C 0.19522 0.89217 0.62121 0.0
H815 H 0.11027 0.85144 0.558 0.0
H816 H 0.13903 0.84946 0.57793 0.0
H817 H 0.1099 0.85857 0.59569 0.0
H818 H 0.13608 0.87888 0.6419 0.0
H819 H 0.16162 0.85632 0.6656 0.0
H820 H 0.30905 0.86284 0.83865 0.0
H821 H 0.33854 0.90521 0.85193 0.0
H822 H 0.37035 0.86999 0.76919 0.0
H823 H 0.34064 0.82702 0.75579 0.0
H824 H 0.40647 0.88483 0.8134 0.0
H825 H 0.35105 0.97318 0.83624 0.0
H826 H 0.33636 0.95164 0.8522 0.0
H827 H 0.33723 0.9379 0.81334 0.0
C828 C 0.32184 0.86437 0.82296 0.0
C829 C 0.32291 0.84162 0.79643 0.0
C830 C 0.33846 0.8888 0.83039 0.0
C831 C 0.35642 0.89101 0.81138 0.0
C832 C 0.35641 0.86885 0.78401 0.0
H833 H 0.49573 0.99595 0.91717 0.0
H834 H 0.46751 0.97763 0.87162 0.0
C835 C 0.33957 0.84433 0.77646 0.0
C836 C 0.37819 0.91376 0.82301 0.0
H837 H 0.38947 0.9816 0.87159 0.0
C838 C 0.40312 0.9063 0.82515 0.0
C839 C 0.37389 0.9418 0.83799 0.0
C840 C 0.34818 0.95156 0.8345 0.0
C841 C 0.42278 0.92516 0.84518 0.0
C842 C 0.41731 0.95222 0.86308 0.0
C843 C 0.39349 0.9607 0.85813 0.0
C844 C 0.43327 0.96906 0.8907 0.0
C845 C 0.44818 0.91498 0.84934 0.0
C846 C 0.42298 0.97162 0.91664 0.0
C847 C 0.43892 0.98205 0.94252 0.0
C848 C 0.46544 0.99008 0.94286 0.0
C849 C 0.47536 0.98956 0.91735 0.0
C850 C 0.45932 0.97912 0.89137 0.0
H851 H 0.44851 0.89267 0.83495 0.0
H852 H 0.46428 0.92722 0.84455 0.0
H853 H 0.45188 0.9179 0.87218 0.0
H854 H 0.40291 0.96394 0.91656 0.0
H855 H 0.43074 0.98254 0.96195 0.0
H856 H 0.46395 0.09433 0.03327 0.0
H857 H 0.43449 0.12357 0.06532 0.0
H858 H 0.43313 0.07359 0.11408 0.0
H859 H 0.46312 0.04477 0.08262 0.0
H860 H 0.38642 0.11452 0.07724 0.0
H861 H 0.44959 0.14886 0.17933 0.0
H862 H 0.46101 0.13037 0.14429 0.0
H863 H 0.44261 0.11176 0.16134 0.0
C864 C 0.45745 0.08953 0.05083 0.0
C865 C 0.46622 0.06716 0.05533 0.0
C866 C 0.44051 0.10635 0.06924 0.0
C867 C 0.43179 0.1014 0.09276 0.0
C868 C 0.44001 0.07861 0.0968 0.0
H869 H 0.29709 0.17249 0.18354 0.0
H870 H 0.32641 0.14196 0.15271 0.0
C871 C 0.45709 0.06189 0.07852 0.0
C872 C 0.41389 0.11978 0.11263 0.0
H873 H 0.40616 0.15964 0.18402 0.0
C874 C 0.39084 0.12439 0.10058 0.0
C875 C 0.41956 0.13327 0.14321 0.0
C876 C 0.44465 0.13109 0.15782 0.0
C877 C 0.37338 0.14154 0.11799 0.0
C878 C 0.37855 0.15413 0.14865 0.0
C879 C 0.40179 0.14985 0.16067 0.0
C880 C 0.36058 0.17238 0.16852 0.0
C881 C 0.3499 0.14658 0.10312 0.0
C882 C 0.36988 0.19949 0.18893 0.0
C883 C 0.35314 0.21692 0.20702 0.0
C884 C 0.32652 0.2078 0.20534 0.0
C885 C 0.31736 0.18042 0.18544 0.0
C886 C 0.33415 0.16294 0.16748 0.0
H887 H 0.35277 0.14271 0.08028 0.0
H888 H 0.33294 0.13213 0.10281 0.0
H889 H 0.34532 0.16821 0.11466 0.0
H890 H 0.39011 0.20744 0.19053 0.0
H891 H 0.36104 0.23779 0.22198 0.0
H892 H 0.10496 0.08877 0.36803 0.0
H893 H 0.12839 0.1147 0.34441 0.0
H894 H 0.1959 0.13075 0.40393 0.0
H895 H 0.17294 0.1042 0.42708 0.0
H896 H 0.14937 0.16877 0.36502 0.0
H897 H 0.22782 0.10229 0.32732 0.0
H898 H 0.19909 0.09149 0.34054 0.0
H899 H 0.22535 0.11451 0.36561 0.0
C900 C 0.12491 0.09745 0.37594 0.0
C901 C 0.1369 0.09407 0.39959 0.0
C902 C 0.1383 0.11252 0.36244 0.0
C903 C 0.16422 0.12447 0.37189 0.0
C904 C 0.17618 0.12136 0.39563 0.0
H905 H 0.24739 0.26022 0.34443 0.0
H906 H 0.22293 0.22969 0.362 0.0
C907 C 0.16279 0.10638 0.4092 0.0
C908 C 0.1784 0.14085 0.35757 0.0
H909 H 0.23371 0.14631 0.3248 0.0
C910 C 0.16774 0.16368 0.35612 0.0
C911 C 0.20226 0.13423 0.34536 0.0
C912 C 0.21421 0.10914 0.34447 0.0
C913 C 0.18048 0.18037 0.34381 0.0
C914 C 0.2049 0.1745 0.33281 0.0
C915 C 0.21519 0.15115 0.33339 0.0
C916 C 0.22033 0.19292 0.32164 0.0
C917 C 0.16744 0.20407 0.34249 0.0
C918 C 0.22793 0.18258 0.29313 0.0
C919 C 0.24218 0.20019 0.28292 0.0
C920 C 0.24944 0.22851 0.30111 0.0
C921 C 0.24212 0.23861 0.32969 0.0
C922 C 0.2279 0.22113 0.33978 0.0
H923 H 0.14614 0.2008 0.34343 0.0
H924 H 0.17526 0.2236 0.36135 0.0
H925 H 0.17112 0.20675 0.32236 0.0
H926 H 0.22256 0.16091 0.27863 0.0
H927 H 0.24747 0.19166 0.26083 0.0
H928 H 0.831 0.22839 0.16862 0.0
H929 H 0.86366 0.19994 0.14188 0.0
H930 H 0.87987 0.17741 0.2128 0.0
H931 H 0.84667 0.2049 0.23909 0.0
H932 H 0.91384 0.20125 0.14987 0.0
H933 H 0.87141 0.1018 0.14952 0.0
H934 H 0.85443 0.13207 0.16145 0.0
H935 H 0.87879 0.12838 0.18559 0.0
C936 C 0.8414 0.2173 0.17855 0.0
C937 C 0.83579 0.21896 0.2061 0.0
C938 C 0.86023 0.20094 0.16314 0.0
C939 C 0.87417 0.18567 0.17472 0.0
C940 C 0.86904 0.18795 0.2026 0.0
H941 H 0.99998 0.07874 0.10842 0.0
H942 H 0.97103 0.10977 0.1403 0.0
C943 C 0.85005 0.20405 0.21786 0.0
C944 C 0.89424 0.16795 0.15792 0.0
H945 H 0.91355 0.1026 0.13336 0.0
C946 C 0.91359 0.17967 0.14628 0.0
C947 C 0.89437 0.13957 0.1529 0.0
C948 C 0.87349 0.12462 0.16276 0.0
C949 C 0.93277 0.1642 0.13028 0.0
C950 C 0.9329 0.13596 0.12539 0.0
C951 C 0.91381 0.12426 0.13723 0.0
C952 C 0.95156 0.11784 0.1065 0.0
C953 C 0.95298 0.17836 0.11884 0.0
C954 C 0.95052 0.1118 0.07678 0.0
C955 C 0.96686 0.09398 0.05856 0.0
C956 C 0.98508 0.08159 0.06935 0.0
C957 C 0.98651 0.08802 0.09927 0.0
C958 C 0.96979 0.10568 0.11753 0.0
H959 H 0.95443 0.20135 0.13032 0.0
H960 H 0.97233 0.17177 0.12101 0.0
H961 H 0.94762 0.17243 0.09548 0.0
H962 H 0.93656 0.12044 0.06743 0.0
H963 H 0.96495 0.08965 0.03573 0.0
H964 H 0.10624 0.64572 0.42882 0.0
H965 H 0.1455 0.67169 0.42385 0.0
H966 H 0.19115 0.61032 0.42997 0.0
H967 H 0.15174 0.58349 0.43399 0.0
H968 H 0.20853 0.67084 0.46921 0.0
H969 H 0.19118 0.6473 0.35233 0.0
H970 H 0.16354 0.65697 0.3727 0.0
H971 H 0.17636 0.62537 0.36824 0.0
C972 C 0.12448 0.63732 0.42845 0.0
C973 C 0.12578 0.61242 0.43168 0.0
C974 C 0.14692 0.65232 0.42582 0.0
C975 C 0.17108 0.6428 0.42646 0.0
C976 C 0.1726 0.61794 0.42948 0.0
H977 H 0.29148 0.73737 0.38124 0.0
H978 H 0.27322 0.69825 0.3904 0.0
C979 C 0.15009 0.60274 0.43188 0.0
C980 C 0.19467 0.65953 0.42473 0.0
H981 H 0.22139 0.68699 0.38093 0.0
C982 C 0.21176 0.67404 0.44978 0.0
C983 C 0.19893 0.66324 0.39925 0.0
C984 C 0.18169 0.64723 0.37148 0.0
C985 C 0.23212 0.69369 0.45052 0.0
C986 C 0.23514 0.69897 0.42566 0.0
C987 C 0.21906 0.68301 0.40006 0.0
C988 C 0.25248 0.72294 0.42625 0.0
C989 C 0.24973 0.70911 0.47808 0.0
C990 C 0.24809 0.75006 0.44448 0.0
C991 C 0.25882 0.77265 0.43955 0.0
C992 C 0.27378 0.76842 0.41603 0.0
C993 C 0.28025 0.74154 0.39971 0.0
C994 C 0.26965 0.71902 0.40477 0.0
H995 H 0.25106 0.69643 0.49076 0.0
H996 H 0.26955 0.71491 0.47347 0.0
H997 H 0.24167 0.72841 0.49175 0.0
H998 H 0.23461 0.75358 0.46093 0.0
H999 H 0.25376 0.79312 0.45274 0.0
H1000 H 0.51353 0.83877 0.51687 0.0
H1001 H 0.52801 0.8048 0.5337 0.0
H1002 H 0.52798 0.86437 0.62245 0.0
H1003 H 0.51305 0.89793 0.60581 0.0
H1004 H 0.57245 0.81019 0.56327 0.0
H1005 H 0.49484 0.79634 0.62845 0.0
H1006 H 0.49047 0.81256 0.60378 0.0
H1007 H 0.50578 0.83252 0.64 0.0
C1008 C 0.51626 0.84437 0.53995 0.0
C1009 C 0.51206 0.87089 0.56005 0.0
C1010 C 0.52439 0.82495 0.54954 0.0
C1011 C 0.52855 0.83181 0.57935 0.0
C1012 C 0.52402 0.8582 0.59938 0.0
H1013 H 0.63437 0.79959 0.68612 0.0
H1014 H 0.60184 0.81565 0.66254 0.0
C1015 C 0.51565 0.87745 0.58983 0.0
C1016 C 0.5406 0.81292 0.58969 0.0
H1017 H 0.53773 0.78718 0.64123 0.0
C1018 C 0.5645 0.80455 0.57976 0.0
C1019 C 0.53019 0.80543 0.61115 0.0
C1020 C 0.50376 0.81195 0.62119 0.0
C1021 C 0.57903 0.79053 0.59206 0.0
C1022 C 0.56948 0.78492 0.61491 0.0
C1023 C 0.545 0.79182 0.62382 0.0
C1024 C 0.58606 0.77448 0.63148 0.0
C1025 C 0.60516 0.78299 0.58166 0.0
C1026 C 0.58734 0.74595 0.62213 0.0
C1027 C 0.60578 0.73661 0.63574 0.0
C1028 C 0.62328 0.75572 0.65877 0.0
C1029 C 0.62103 0.78426 0.66878 0.0
C1030 C 0.60254 0.79352 0.65526 0.0
H1031 H 0.60923 0.78749 0.56263 0.0
H1032 H 0.62061 0.79486 0.59946 0.0
H1033 H 0.60612 0.76055 0.57568 0.0
H1034 H 0.5747 0.73104 0.60372 0.0
H1035 H 0.60677 0.71448 0.62778 0.0
H1036 H 0.51443 0.41168 0.97027 0.0
H1037 H 0.49058 0.36928 0.93295 0.0
H1038 H 0.46967 0.41529 0.88387 0.0
H1039 H 0.4941 0.45746 0.92069 0.0
H1040 H 0.44 0.36893 0.92718 0.0
H1041 H 0.47509 0.34097 0.81913 0.0
H1042 H 0.49513 0.36307 0.85208 0.0
H1043 H 0.47243 0.37745 0.83587 0.0
C1044 C 0.50563 0.41242 0.95088 0.0
C1045 C 0.50569 0.4378 0.94846 0.0
C1046 C 0.49205 0.3882 0.92959 0.0
C1047 C 0.47829 0.38907 0.90563 0.0
C1048 C 0.48053 0.41392 0.90184 0.0
H1049 H 0.32828 0.34981 0.83643 0.0
H1050 H 0.37025 0.36395 0.8652 0.0
C1051 C 0.49437 0.43811 0.92302 0.0
C1052 C 0.45739 0.36651 0.88851 0.0
H1053 H 0.42799 0.33098 0.81989 0.0
C1054 C 0.43781 0.35993 0.90366 0.0
C1055 C 0.45452 0.3545 0.85786 0.0
C1056 C 0.47561 0.35917 0.84035 0.0
C1057 C 0.41448 0.34384 0.88911 0.0
C1058 C 0.41058 0.33435 0.85875 0.0
C1059 C 0.43099 0.33863 0.8433 0.0
C1060 C 0.38441 0.32414 0.84343 0.0
C1061 C 0.39354 0.3385 0.90646 0.0
C1062 C 0.37847 0.29696 0.82197 0.0
C1063 C 0.35432 0.28873 0.80572 0.0
C1064 C 0.33618 0.30785 0.8104 0.0
C1065 C 0.34194 0.33473 0.83248 0.0
C1066 C 0.36584 0.34278 0.84892 0.0
H1067 H 0.40182 0.33976 0.92759 0.0
H1068 H 0.38005 0.35447 0.91095 0.0
H1069 H 0.38222 0.31775 0.89427 0.0
H1070 H 0.39269 0.28241 0.8174 0.0
H1071 H 0.35035 0.26792 0.78862 0.0
H1072 H 0.87048 0.77076 0.26216 0.0
H1073 H 0.91183 0.78879 0.29205 0.0
H1074 H 0.87144 0.83766 0.36482 0.0
H1075 H 0.83 0.81865 0.33523 0.0
H1076 H 0.92952 0.84025 0.30999 0.0
H1077 H 0.92732 0.81829 0.40672 0.0
H1078 H 0.90466 0.79952 0.37505 0.0
H1079 H 0.89823 0.83237 0.40252 0.0
C1080 C 0.87044 0.78461 0.28486 0.0
C1081 C 0.84723 0.79356 0.29646 0.0
C1082 C 0.89405 0.79487 0.3019 0.0
C1083 C 0.89485 0.81454 0.33074 0.0
C1084 C 0.87138 0.822 0.34288 0.0
H1085 H 0.96685 0.96819 0.42183 0.0
H1086 H 0.94924 0.92312 0.38396 0.0
C1087 C 0.84767 0.81131 0.32593 0.0
C1088 C 0.91985 0.83095 0.34623 0.0
H1089 H 0.95197 0.86296 0.4138 0.0
C1090 C 0.93487 0.84449 0.33244 0.0
C1091 C 0.92737 0.83618 0.37531 0.0
C1092 C 0.91365 0.82051 0.39056 0.0
C1093 C 0.95541 0.86517 0.3478 0.0
C1094 C 0.96072 0.87286 0.37778 0.0
C1095 C 0.94762 0.85732 0.39084 0.0
C1096 C 0.97549 0.89998 0.3968 0.0
C1097 C 0.97021 0.87978 0.33217 0.0
C1098 C 0.99651 0.90202 0.41626 0.0
C1099 C 1.00685 0.92802 0.43783 0.0
C1100 C 0.99578 0.95195 0.44041 0.0
C1101 C 0.97579 0.94998 0.41998 0.0
C1102 C 0.9658 0.92425 0.39831 0.0
H1103 H 0.97106 0.86555 0.30905 0.0
H1104 H 0.96008 0.89744 0.33271 0.0
H1105 H 0.99029 0.88797 0.34249 0.0
H1106 H 1.00403 0.88347 0.41561 0.0
H1107 H 1.02202 0.92912 0.45374 0.0
H1108 H 0.45311 0.57334 0.53685 0.0
H1109 H 0.426 0.60528 0.56873 0.0
H1110 H 0.48428 0.62846 0.6403 0.0
H1111 H 0.51208 0.59611 0.60805 0.0
H1112 H 0.40438 0.6053 0.61663 0.0
H1113 H 0.46772 0.70469 0.6466 0.0
H1114 H 0.47329 0.67288 0.61682 0.0
H1115 H 0.48239 0.67841 0.6535 0.0
C1116 C 0.46055 0.58519 0.55931 0.0
C1117 C 0.48518 0.58185 0.56955 0.0
C1118 C 0.44475 0.60361 0.57768 0.0
C1119 C 0.45287 0.61977 0.60711 0.0
C1120 C 0.47751 0.61673 0.61763 0.0
H1121 H 0.34287 0.70151 0.73401 0.0
H1122 H 0.37488 0.67279 0.70668 0.0
C1123 C 0.49343 0.59802 0.59913 0.0
C1124 C 0.43492 0.63885 0.62634 0.0
H1125 H 0.42836 0.70717 0.66871 0.0
C1126 C 0.40979 0.62755 0.62812 0.0
C1127 C 0.44147 0.66809 0.64115 0.0
C1128 C 0.46758 0.68191 0.63935 0.0
C1129 C 0.39137 0.64431 0.64409 0.0
C1130 C 0.39801 0.6735 0.65926 0.0
C1131 C 0.42308 0.68489 0.65738 0.0
C1132 C 0.3791 0.69229 0.67694 0.0
C1133 C 0.36459 0.63056 0.64389 0.0
C1134 C 0.37093 0.71371 0.67021 0.0
C1135 C 0.35241 0.7304 0.68599 0.0
C1136 C 0.34166 0.7264 0.70923 0.0
C1137 C 0.3504 0.70536 0.71629 0.0
C1138 C 0.36876 0.68866 0.70047 0.0
H1139 H 0.36041 0.6097 0.62554 0.0
H1140 H 0.36316 0.62788 0.66435 0.0
H1141 H 0.3495 0.64351 0.64242 0.0
H1142 H 0.37852 0.7172 0.65232 0.0
H1143 H 0.34638 0.74632 0.67979 0.0
H1144 H 0.61273 0.15069 0.93088 0.0
H1145 H 0.65094 0.1762 0.92338 0.0
H1146 H 0.69523 0.10884 0.91384 0.0
H1147 H 0.65663 0.08238 0.92024 0.0
H1148 H 0.71654 0.16838 0.95738 0.0
H1149 H 0.68849 0.15535 0.84524 0.0
H1150 H 0.66323 0.16386 0.86943 0.0
H1151 H 0.67583 0.13118 0.85958 0.0
C1152 C 0.63031 0.14083 0.92641 0.0
C1153 C 0.63148 0.11432 0.92597 0.0
C1154 C 0.65221 0.15561 0.9224 0.0
C1155 C 0.67575 0.14431 0.91803 0.0
C1156 C 0.67714 0.11782 0.91725 0.0
H1157 H 0.79535 0.23823 0.87027 0.0
H1158 H 0.77402 0.1988 0.87699 0.0
C1159 C 0.6551 0.10283 0.921 0.0
C1160 C 0.69891 0.16095 0.91524 0.0
H1161 H 0.72145 0.19238 0.87295 0.0
C1162 C 0.718 0.17328 0.93873 0.0
C1163 C 0.70075 0.167 0.89077 0.0
C1164 C 0.68112 0.15351 0.86466 0.0
C1165 C 0.73821 0.19289 0.93903 0.0
C1166 C 0.73902 0.20036 0.91535 0.0
C1167 C 0.72075 0.18672 0.89117 0.0
C1168 C 0.75706 0.2238 0.91586 0.0
C1169 C 0.75814 0.20587 0.96485 0.0
C1170 C 0.75526 0.25099 0.93615 0.0
C1171 C 0.76742 0.27372 0.9324 0.0
C1172 C 0.78148 0.26957 0.90824 0.0
C1173 C 0.78502 0.24226 0.88937 0.0
C1174 C 0.77275 0.21962 0.89307 0.0
H1175 H 0.75971 0.19221 0.9764 0.0
H1176 H 0.77751 0.2103 0.95825 0.0
H1177 H 0.75222 0.22579 0.9803 0.0
H1178 H 0.74286 0.2547 0.95362 0.0
H1179 H 0.76444 0.29449 0.94733 0.0
H1180 H 0.04787 0.34548 0.00746 0.0
H1181 H 0.063 0.3151 0.0285 0.0
H1182 H 0.99314 0.3195 0.07213 0.0
H1183 H 0.97841 0.35101 0.05227 0.0
H1184 H 0.0349 0.3332 0.10907 0.0
H1185 H 0.04667 0.23543 0.01591 0.0
H1186 H 0.06267 0.26465 0.01156 0.0
H1187 H 0.02794 0.26105 0.01242 0.0
C1188 C 0.03557 0.33974 0.02126 0.0
C1189 C 1.01205 0.3509 0.0284 0.0
C1190 C 0.04406 0.32198 0.03292 0.0
C1191 C 0.02905 0.31471 0.0516 0.0
C1192 C 1.00493 0.32466 0.05757 0.0
H1193 H 0.09969 0.21602 0.13277 0.0
H1194 H 0.06719 0.23018 0.10671 0.0
C1195 C 0.99648 0.34256 0.04605 0.0
C1196 C 0.04024 0.30016 0.06797 0.0
H1197 H 0.07397 0.24581 0.06027 0.0
C1198 C 0.04292 0.31375 0.09837 0.0
C1199 C 0.0504 0.2746 0.05412 0.0
C1200 C 0.04651 0.25796 0.02171 0.0
C1201 C 0.05701 0.3035 0.11517 0.0
C1202 C 0.06916 0.27934 0.10116 0.0
C1203 C 0.06496 0.26461 0.07093 0.0
C1204 C 0.08821 0.27067 0.11728 0.0
C1205 C 0.0594 0.3191 0.14776 0.0
C1206 C 0.11086 0.28862 0.13144 0.0
C1207 C 0.12941 0.2806 0.14613 0.0
C1208 C 0.12577 0.25438 0.14688 0.0
C1209 C 0.1031 0.23631 0.13249 0.0
C1210 C 0.0845 0.24438 0.11771 0.0
H1211 H 0.04281 0.33121 0.15524 0.0
H1212 H 0.06039 0.30472 0.15852 0.0
H1213 H 0.07743 0.33396 0.15477 0.0
H1214 H 0.11439 0.30872 0.13072 0.0
H1215 H 0.14692 0.29474 0.15631 0.0
H1216 H 0.62962 0.63295 0.93046 0.0
H1217 H 0.6545 0.65958 0.90864 0.0
H1218 H 0.66235 0.58389 0.83447 0.0
H1219 H 0.63795 0.55698 0.85631 0.0
H1220 H 0.70532 0.65628 0.89258 0.0
H1221 H 0.63668 0.63247 0.79619 0.0
H1222 H 0.62733 0.62606 0.82692 0.0
H1223 H 0.64584 0.60261 0.80069 0.0
C1224 C 0.63669 0.6218 0.90957 0.0
C1225 C 0.63151 0.59257 0.89531 0.0
C1226 C 0.65087 0.63718 0.89698 0.0
C1227 C 0.66012 0.62394 0.86961 0.0
C1228 C 0.655 0.59482 0.85526 0.0
H1229 H 0.751 0.69166 0.76418 0.0
H1230 H 0.72638 0.66034 0.78149 0.0
C1231 C 0.64091 0.57938 0.86787 0.0
C1232 C 0.67585 0.64055 0.85671 0.0
H1233 H 0.67728 0.65785 0.79866 0.0
C1234 C 0.69911 0.65661 0.87206 0.0
C1235 C 0.66809 0.64091 0.82973 0.0
C1236 C 0.64303 0.6248 0.81246 0.0
C1237 C 0.71472 0.6728 0.86129 0.0
C1238 C 0.70666 0.67375 0.83465 0.0
C1239 C 0.6836 0.65731 0.81904 0.0
C1240 C 0.7213 0.69261 0.82347 0.0
C1241 C 0.74002 0.68832 0.87846 0.0
C1242 C 0.72627 0.72133 0.8408 0.0
C1243 C 0.7404 0.7391 0.83104 0.0
C1244 C 0.7498 0.72886 0.80344 0.0
C1245 C 0.74424 0.70023 0.78562 0.0
C1246 C 0.73011 0.68232 0.79552 0.0
H1247 H 0.7474 0.67845 0.89232 0.0
H1248 H 0.75511 0.68931 0.864 0.0
H1249 H 0.73692 0.70985 0.89294 0.0
H1250 H 0.71912 0.73014 0.86202 0.0
H1251 H 0.74394 0.76104 0.84526 0.0
H1252 H 0.66535 0.36701 0.1761 0.0
H1253 H 0.64026 0.39042 0.15279 0.0
H1254 H 0.69721 0.37972 0.0912 0.0
H1255 H 0.72209 0.35592 0.11395 0.0
H1256 H 0.65531 0.43927 0.14474 0.0
H1257 H 0.62926 0.34953 0.03838 0.0
H1258 H 0.64137 0.34557 0.07019 0.0
H1259 H 0.66334 0.35711 0.04995 0.0
C1260 C 0.67245 0.36933 0.1574 0.0
C1261 C 0.6959 0.35941 0.14706 0.0
C1262 C 0.6581 0.38292 0.14414 0.0
C1263 C 0.66653 0.38665 0.11987 0.0
C1264 C 0.68992 0.37682 0.10953 0.0
H1265 H 0.60355 0.46129 0.00795 0.0
H1266 H 0.6296 0.43763 0.03022 0.0
C1267 C 0.70435 0.36342 0.12287 0.0
C1268 C 0.65126 0.40137 0.10585 0.0
H1269 H 0.61898 0.39322 0.0419 0.0
C1270 C 0.64728 0.42912 0.12229 0.0
C1271 C 0.64088 0.38841 0.07642 0.0
C1272 C 0.64368 0.35844 0.05769 0.0
C1273 C 0.6337 0.44426 0.11016 0.0
C1274 C 0.62295 0.43119 0.0808 0.0
C1275 C 0.62707 0.40345 0.06433 0.0
C1276 C 0.60702 0.44571 0.06703 0.0
C1277 C 0.63173 0.47445 0.12885 0.0
C1278 C 0.58522 0.45789 0.07974 0.0
C1279 C 0.57044 0.47163 0.06716 0.0
C1280 C 0.57666 0.47332 0.04114 0.0
C1281 C 0.59815 0.4606 0.02801 0.0
C1282 C 0.61309 0.44698 0.04077 0.0
H1283 H 0.64767 0.48352 0.14662 0.0
H1284 H 0.63233 0.48697 0.11591 0.0
H1285 H 0.61313 0.4762 0.13899 0.0
H1286 H 0.57939 0.4566 0.09939 0.0
H1287 H 0.5539 0.48077 0.07785 0.0
H1288 H 0.9434 0.48887 0.45869 0.0
H1289 H 0.91547 0.46624 0.41306 0.0
H1290 H 0.98109 0.43138 0.36829 0.0
H1291 H 1.00839 0.45204 0.41442 0.0
H1292 H 0.91084 0.46288 0.35957 0.0
H1293 H 0.93687 0.36212 0.35561 0.0
H1294 H 0.94746 0.39459 0.38605 0.0
H1295 H 0.96358 0.38467 0.35321 0.0
C1296 C 0.95177 0.47658 0.43896 0.0
C1297 C 0.97764 0.47142 0.43984 0.0
C1298 C 0.93593 0.46381 0.41291 0.0
C1299 C 0.94603 0.44636 0.38741 0.0
C1300 C 0.97266 0.44383 0.38788 0.0
H1301 H 0.84316 0.31271 0.25268 0.0
H1302 H 0.87875 0.35081 0.26748 0.0
C1303 C 0.98823 0.45569 0.41411 0.0
C1304 C 0.92801 0.42829 0.36172 0.0
H1305 H 0.90445 0.36024 0.32185 0.0
C1306 C 0.90971 0.44042 0.35094 0.0
C1307 C 0.92656 0.39891 0.35037 0.0
C1308 C 0.94448 0.38425 0.36201 0.0
C1309 C 0.88905 0.42399 0.33059 0.0
C1310 C 0.88692 0.39484 0.32062 0.0
C1311 C 0.90638 0.38267 0.32942 0.0
C1312 C 0.86248 0.37679 0.30658 0.0
C1313 C 0.86892 0.43789 0.321 0.0
C1314 C 0.84125 0.37929 0.3232 0.0
C1315 C 0.82134 0.35741 0.31519 0.0
C1316 C 0.82228 0.33289 0.2903 0.0
C1317 C 0.84211 0.33147 0.27204 0.0
C1318 C 0.86232 0.35324 0.28034 0.0
H1319 H 0.87715 0.45862 0.32276 0.0
H1320 H 0.8608 0.42488 0.2983 0.0
H1321 H 0.8528 0.44092 0.3352 0.0
H1322 H 0.84125 0.39703 0.34381 0.0
H1323 H 0.80609 0.35898 0.32945 0.0
H1324 H 0.59892 0.54038 0.47799 0.0
H1325 H 0.63275 0.5636 0.4603 0.0
H1326 H 0.59057 0.63464 0.48368 0.0
H1327 H 0.55711 0.61157 0.50121 0.0
H1328 H 0.62414 0.57758 0.4147 0.0
H1329 H 0.66378 0.67312 0.51026 0.0
H1330 H 0.64523 0.64424 0.51348 0.0
H1331 H 0.62902 0.66914 0.50555 0.0
C1332 C 0.59766 0.56156 0.48083 0.0
C1333 C 0.57573 0.57451 0.492 0.0
C1334 C 0.61679 0.57468 0.47019 0.0
C1335 C 0.61456 0.60116 0.47076 0.0
C1336 C 0.59334 0.61462 0.48348 0.0
H1337 H 0.66731 0.66894 0.34953 0.0
H1338 H 0.64357 0.64709 0.37667 0.0
C1339 C 0.57421 0.60145 0.49378 0.0
C1340 C 0.63247 0.6135 0.4554 0.0
H1341 H 0.67053 0.67304 0.46372 0.0
C1342 C 0.63449 0.59835 0.42558 0.0
C1343 C 0.64626 0.64059 0.46931 0.0
C1344 C 0.64621 0.65762 0.50147 0.0
C1345 C 0.64902 0.60971 0.4093 0.0
C1346 C 0.6618 0.63729 0.42292 0.0
C1347 C 0.66055 0.65209 0.45296 0.0
C1348 C 0.67643 0.65106 0.40639 0.0
C1349 C 0.65068 0.59187 0.37758 0.0
C1350 C 0.70284 0.6615 0.41425 0.0
C1351 C 0.71662 0.67405 0.39861 0.0
C1352 C 0.70439 0.67683 0.3747 0.0
C1353 C 0.67776 0.66679 0.36727 0.0
C1354 C 0.66404 0.6542 0.38288 0.0
H1355 H 0.64644 0.5694 0.37246 0.0
H1356 H 0.63615 0.597 0.36446 0.0
H1357 H 0.6702 0.59565 0.37092 0.0
H1358 H 0.71299 0.65953 0.43228 0.0
H1359 H 0.73707 0.68108 0.40501 0.0
H1360 H 0.87135 0.28356 0.77312 0.0
H1361 H 0.90191 0.32126 0.80914 0.0
H1362 H 0.85839 0.38163 0.79704 0.0
H1363 H 0.82714 0.3441 0.76243 0.0
H1364 H 0.9338 0.36272 0.80968 0.0
H1365 H 0.85786 0.40641 0.88226 0.0
H1366 H 0.85186 0.37352 0.85105 0.0
H1367 H 0.85038 0.40556 0.8471 0.0
C1368 C 0.86856 0.30491 0.77802 0.0
C1369 C 0.84694 0.3111 0.76531 0.0
C1370 C 0.88593 0.32641 0.79861 0.0
C1371 C 0.88201 0.35428 0.80639 0.0
C1372 C 0.86128 0.36032 0.79218 0.0
H1373 H 0.99916 0.49506 0.90444 0.0
H1374 H 0.97035 0.4576 0.86614 0.0
C1375 C 0.84363 0.33891 0.77219 0.0
C1376 C 0.8992 0.37707 0.82975 0.0
H1377 H 0.89841 0.43508 0.89248 0.0
C1378 C 0.92611 0.37845 0.82791 0.0
C1379 C 0.8892 0.3972 0.85393 0.0
C1380 C 0.86078 0.39544 0.8589 0.0
C1381 C 0.94327 0.39971 0.8493 0.0
C1382 C 0.93312 0.42086 0.87249 0.0
C1383 C 0.90622 0.41918 0.8745 0.0
C1384 C 0.94996 0.44443 0.8955 0.0
C1385 C 0.97205 0.39868 0.84716 0.0
C1386 C 0.94708 0.45064 0.92482 0.0
C1387 C 0.96279 0.47268 0.94666 0.0
C1388 C 0.98209 0.48854 0.93962 0.0
C1389 C 0.98463 0.48286 0.91039 0.0
C1390 C 0.96841 0.46123 0.8885 0.0
H1391 H 0.97642 0.37717 0.83429 0.0
H1392 H 0.9793 0.41166 0.836 0.0
H1393 H 0.98285 0.40663 0.86893 0.0
H1394 H 0.93285 0.43821 0.93085 0.0
H1395 H 0.96017 0.47691 0.96907 0.0
H1396 H 0.82872 0.83432 0.09955 0.0
H1397 H 0.85356 0.85512 0.07212 0.0
H1398 H 0.89622 0.9144 0.15141 0.0
H1399 H 0.87142 0.89392 0.17904 0.0
H1400 H 0.85932 0.90741 0.07296 0.0
H1401 H 0.9548 0.88348 0.10287 0.0
H1402 H 0.9247 0.86854 0.10982 0.0
H1403 H 0.93847 0.90332 0.13374 0.0
C1404 C 0.84326 0.85189 0.11133 0.0
C1405 C 0.84797 0.86212 0.14177 0.0
C1406 C 0.85758 0.86378 0.09547 0.0
C1407 C 0.87723 0.8862 0.10942 0.0
C1408 C 0.88173 0.89673 0.13981 0.0
H1409 H 0.95509 0.99838 0.04101 0.0
H1410 H 0.92291 0.97534 0.06044 0.0
C1411 C 0.86744 0.88486 0.15568 0.0
C1412 C 0.89298 0.89846 0.09228 0.0
H1413 H 0.95526 0.91355 0.07893 0.0
C1414 C 0.8803 0.90865 0.07422 0.0
C1415 C 0.92041 0.89989 0.09335 0.0
C1416 C 0.93542 0.88799 0.11074 0.0
C1417 C 0.89418 0.92053 0.05787 0.0
C1418 C 0.92168 0.92274 0.05969 0.0
C1419 C 0.93426 0.91216 0.07742 0.0
C1420 C 0.93803 0.93562 0.04345 0.0
C1421 C 0.87913 0.93009 0.03833 0.0
C1422 C 0.95707 0.92114 0.0266 0.0
C1423 C 0.97539 0.93436 0.01541 0.0
C1424 C 0.97516 0.96238 0.02035 0.0
C1425 C 0.95514 0.97643 0.03558 0.0
C1426 C 0.93683 0.96325 0.04704 0.0
H1427 H 0.85886 0.91965 0.03265 0.0
H1428 H 0.87836 0.95279 0.04974 0.0
H1429 H 0.88852 0.92601 0.01799 0.0
H1430 H 0.95868 0.89993 0.02338 0.0
H1431 H 0.99107 0.92322 1.00476 0.0
H1432 H 0.8121 0.18007 0.75478 0.0
H1433 H 0.8332 0.15338 0.77713 0.0
H1434 H 0.85568 0.2284 0.85448 0.0
H1435 H 0.83434 0.25506 0.83232 0.0
H1436 H 0.88196 0.15389 0.79567 0.0
H1437 H 0.82511 0.18021 0.89092 0.0
H1438 H 0.81643 0.18839 0.8608 0.0
H1439 H 0.84136 0.21041 0.8886 0.0
C1440 C 0.82141 0.19098 0.77662 0.0
C1441 C 0.8211 0.21992 0.79172 0.0
C1442 C 0.83359 0.17558 0.78947 0.0
C1443 C 0.84584 0.18846 0.81794 0.0
C1444 C 0.84588 0.21746 0.83289 0.0
H1445 H 0.93302 0.12832 0.92987 0.0
H1446 H 0.91224 0.1561 0.90872 0.0
C1447 C 0.83367 0.23286 0.82006 0.0
C1448 C 0.85895 0.17166 0.83151 0.0
H1449 H 0.86177 0.15662 0.89123 0.0
C1450 C 0.87736 0.15447 0.81652 0.0
C1451 C 0.85333 0.17211 0.85885 0.0
C1452 C 0.83281 0.18855 0.87566 0.0
C1453 C 0.89036 0.1384 0.82804 0.0
C1454 C 0.88469 0.13882 0.85534 0.0
C1455 C 0.86639 0.1561 0.87041 0.0
C1456 C 0.89734 0.12144 0.86845 0.0
C1457 C 0.91063 0.12162 0.81105 0.0
C1458 C 0.89581 0.09233 0.85343 0.0
C1459 C 0.90763 0.07622 0.86562 0.0
C1460 C 0.92137 0.08853 0.89344 0.0
C1461 C 0.92254 0.1177 0.9086 0.0
C1462 C 0.91067 0.1338 0.89639 0.0
H1463 H 0.91816 0.12968 0.7955 0.0
H1464 H 0.9272 0.12169 0.82567 0.0
H1465 H 0.90183 0.09981 0.7984 0.0
H1466 H 0.88512 0.08187 0.83226 0.0
H1467 H 0.90551 0.05391 0.85326 0.0
H1468 H 0.74185 0.19688 0.73584 0.0
H1469 H 0.71016 0.16071 0.7003 0.0
H1470 H 0.65814 0.22168 0.70852 0.0
H1471 H 0.6898 0.25809 0.74461 0.0
H1472 H 0.63364 0.17114 0.70637 0.0
H1473 H 0.69731 0.1536 0.61716 0.0
H1474 H 0.71256 0.15083 0.64813 0.0
H1475 H 0.70317 0.18364 0.65148 0.0
C1476 C 0.72353 0.20252 0.73029 0.0
C1477 C 0.71825 0.23023 0.74271 0.0
C1478 C 0.70556 0.1819 0.70987 0.0
C1479 C 0.68215 0.1887 0.70134 0.0
C1480 C 0.67627 0.21615 0.71471 0.0
H1481 H 0.55734 0.09311 0.56901 0.0
H1482 H 0.58767 0.13011 0.60575 0.0
C1483 C 0.69425 0.23684 0.73533 0.0
C1484 C 0.66411 0.16713 0.67807 0.0
H1485 H 0.65986 0.1205 0.60715 0.0
C1486 C 0.63927 0.16018 0.68463 0.0
C1487 C 0.67157 0.15304 0.64971 0.0
C1488 C 0.6975 0.1608 0.64105 0.0
C1489 C 0.62186 0.13892 0.66367 0.0
C1490 C 0.62955 0.12445 0.63557 0.0
C1491 C 0.65424 0.13157 0.62888 0.0
C1492 C 0.61194 0.1021 0.61271 0.0
C1493 C 0.59548 0.13168 0.67169 0.0
C1494 C 0.61599 0.07423 0.60421 0.0
C1495 C 0.59866 0.05302 0.58329 0.0
C1496 C 0.57725 0.05952 0.57051 0.0
C1497 C 0.57369 0.08752 0.57855 0.0
C1498 C 0.59089 0.10865 0.59955 0.0
H1499 H 0.59385 0.14217 0.6954 0.0
H1500 H 0.58043 0.13811 0.66036 0.0
H1501 H 0.59133 0.10886 0.66458 0.0
H1502 H 0.63227 0.06893 0.61415 0.0
H1503 H 0.60184 0.03159 0.57737 0.0
H1504 H 0.57674 0.93497 0.47128 0.0
H1505 H 0.60892 0.90727 0.44252 0.0
H1506 H 0.63105 0.97146 0.41387 0.0
H1507 H 0.59972 0.99957 0.4433 0.0
H1508 H 0.61384 0.88405 0.38679 0.0
H1509 H 0.70132 0.95997 0.43671 0.0
H1510 H 0.67057 0.96488 0.452 0.0
H1511 H 0.6772 0.97406 0.42231 0.0
C1512 C 0.58865 0.94337 0.45913 0.0
C1513 C 0.58566 0.96978 0.46002 0.0
C1514 C 0.60709 0.9274 0.44254 0.0
C1515 C 0.62308 0.93729 0.42625 0.0
C1516 C 0.6198 0.9635 0.42683 0.0
H1517 H 0.72895 0.85703 0.29362 0.0
H1518 H 0.69884 0.88731 0.32388 0.0
C1519 C 0.6016 0.97958 0.44363 0.0
C1520 C 0.64242 0.91985 0.40799 0.0
H1521 H 0.70609 0.92102 0.39262 0.0
C1522 C 0.63402 0.89221 0.38831 0.0
C1523 C 0.66898 0.93014 0.40969 0.0
C1524 C 0.68012 0.95878 0.43153 0.0
C1525 C 0.65107 0.875 0.37027 0.0
C1526 C 0.67738 0.88548 0.37167 0.0
C1527 C 0.68589 0.91301 0.39125 0.0
C1528 C 0.69644 0.86772 0.35368 0.0
C1529 C 0.64084 0.84565 0.34953 0.0
C1530 C 0.70554 0.84684 0.36047 0.0
C1531 C 0.72297 0.82972 0.34344 0.0
C1532 C 0.73172 0.8328 0.31889 0.0
C1533 C 0.72276 0.85397 0.31229 0.0
C1534 C 0.70549 0.87133 0.32959 0.0
H1535 H 0.61933 0.8418 0.34798 0.0
H1536 H 0.64706 0.84117 0.32757 0.0
H1537 H 0.649 0.83092 0.35704 0.0
H1538 H 0.69902 0.84366 0.37897 0.0
H1539 H 0.7292 0.81368 0.34931 0.0
H1540 H 0.87839 0.15618 0.32772 0.0
H1541 H 0.90303 0.13167 0.35002 0.0
H1542 H 0.8637 0.16708 0.42749 0.0
H1543 H 0.83848 0.1909 0.40514 0.0
H1544 H 0.93706 0.15172 0.39943 0.0
H1545 H 0.85411 0.08566 0.4123 0.0
H1546 H 0.85111 0.10449 0.38998 0.0
H1547 H 0.85093 0.12209 0.42871 0.0
C1548 C 0.87467 0.15853 0.34937 0.0
C1549 C 0.85621 0.17566 0.36442 0.0
C1550 C 0.88898 0.14457 0.36223 0.0
C1551 C 0.8851 0.14702 0.39041 0.0
C1552 C 0.86685 0.16424 0.40556 0.0
H1553 H 0.95461 0.07973 0.50583 0.0
H1554 H 0.92894 0.10421 0.48425 0.0
C1555 C 0.8526 0.17824 0.39278 0.0
C1556 C 0.90053 0.13216 0.40417 0.0
H1557 H 0.89489 0.08589 0.43546 0.0
C1558 C 0.92778 0.13722 0.40715 0.0
C1559 C 0.88865 0.11326 0.41453 0.0
C1560 C 0.85961 0.1058 0.41102 0.0
C1561 C 0.9433 0.12444 0.42046 0.0
C1562 C 0.93143 0.10541 0.43068 0.0
C1563 C 0.90417 0.10042 0.4278 0.0
C1564 C 0.94695 0.09015 0.44387 0.0
C1565 C 0.97232 0.1321 0.42412 0.0
C1566 C 0.96543 0.07349 0.4284 0.0
C1567 C 0.98016 0.0595 0.44072 0.0
C1568 C 0.97679 0.06147 0.46888 0.0
C1569 C 0.9579 0.07769 0.48417 0.0
C1570 C 0.94314 0.09175 0.47179 0.0
H1571 H 0.97767 0.15258 0.42353 0.0
H1572 H 0.98089 0.13285 0.4449 0.0
H1573 H 0.98107 0.11626 0.40607 0.0
H1574 H 0.96842 0.07113 0.40658 0.0
H1575 H 0.99429 0.0471 0.42804 0.0
H1576 H 0.70623 0.21852 0.25784 0.0
H1577 H 0.67076 0.18038 0.24364 0.0
H1578 H 0.70646 0.13485 0.16568 0.0
H1579 H 0.74155 0.17296 0.17945 0.0
H1580 H 0.64313 0.17035 0.1896 0.0
H1581 H 0.67349 0.07305 0.18881 0.0
H1582 H 0.68959 0.10712 0.21269 0.0
H1583 H 0.69663 0.09116 0.17544 0.0
C1584 C 0.70691 0.19994 0.23818 0.0
C1585 C 0.72626 0.19872 0.21941 0.0
C1586 C 0.68676 0.17815 0.23022 0.0
C1587 C 0.68616 0.15473 0.20378 0.0
C1588 C 0.70683 0.15249 0.18644 0.0
H1589 H 0.60131 0.04109 0.05562 0.0
H1590 H 0.63045 0.0634 0.10026 0.0
C1591 C 0.72669 0.17439 0.19414 0.0
C1592 C 0.66171 0.13629 0.19067 0.0
H1593 H 0.63783 0.06793 0.15395 0.0
C1594 C 0.64148 0.14798 0.18248 0.0
C1595 C 0.65996 0.10722 0.18128 0.0
C1596 C 0.681 0.09387 0.19022 0.0
C1597 C 0.62068 0.13129 0.16272 0.0
C1598 C 0.61946 0.10195 0.152 0.0
C1599 C 0.63872 0.09035 0.16215 0.0
C1600 C 0.60069 0.08336 0.12726 0.0
C1601 C 0.60174 0.14539 0.15157 0.0
C1602 C 0.57403 0.08579 0.12792 0.0
C1603 C 0.55768 0.07403 0.10222 0.0
C1604 C 0.56754 0.05845 0.07592 0.0
C1605 C 0.59342 0.05312 0.07578 0.0
C1606 C 0.61 0.06577 0.10129 0.0
H1607 H 0.60896 0.16749 0.15727 0.0
H1608 H 0.59787 0.13462 0.12762 0.0
H1609 H 0.58316 0.14499 0.16137 0.0
H1610 H 0.56622 0.09836 0.1479 0.0
H1611 H 0.53759 0.07798 0.10268 0.0
H1612 H 0.75715 0.86436 0.83249 0.0
H1613 H 0.72788 0.89544 0.86276 0.0
H1614 H 0.66201 0.83691 0.81323 0.0
H1615 H 0.69115 0.80582 0.78268 0.0
H1616 H 0.6535 0.89089 0.82502 0.0
H1617 H 0.68973 0.885 0.92642 0.0
H1618 H 0.71457 0.89628 0.90884 0.0
H1619 H 0.69775 0.86165 0.89118 0.0
C1620 C 0.73643 0.85807 0.82785 0.0
C1621 C 0.72669 0.83235 0.80501 0.0
C1622 C 0.71964 0.87587 0.84544 0.0
C1623 C 0.69256 0.86849 0.84084 0.0
C1624 C 0.68275 0.8432 0.81752 0.0
H1625 H 0.57683 0.93698 0.96248 0.0
H1626 H 0.60746 0.90909 0.93132 0.0
C1627 C 0.69953 0.82535 0.79996 0.0
C1628 C 0.67451 0.88694 0.86033 0.0
H1629 H 0.65998 0.91742 0.93101 0.0
C1630 C 0.65499 0.8967 0.8482 0.0
C1631 C 0.67599 0.89439 0.89064 0.0
C1632 C 0.69545 0.88361 0.90508 0.0
C1633 C 0.63732 0.91375 0.86537 0.0
C1634 C 0.6392 0.92174 0.89579 0.0
C1635 C 0.65854 0.91172 0.90785 0.0
C1636 C 0.62073 0.9395 0.91529 0.0
C1637 C 0.61632 0.92243 0.85057 0.0
C1638 C 0.618 0.96638 0.91739 0.0
C1639 C 0.60039 0.98256 0.93539 0.0
C1640 C 0.58501 0.97238 0.95193 0.0
C1641 C 0.58817 0.94568 0.95016 0.0
C1642 C 0.60579 0.92959 0.93226 0.0
H1643 H 0.61329 0.90898 0.82693 0.0
H1644 H 0.59764 0.9217 0.86017 0.0
H1645 H 0.622 0.94409 0.8534 0.0
H1646 H 0.62959 0.97496 0.90516 0.0
H1647 H 0.5987 1.00299 0.93614 0.0
H1648 H 0.93 0.90342 0.58489 0.0
H1649 H 0.90527 0.87721 0.60724 0.0
H1650 H 0.89045 0.95382 0.67618 0.0
H1651 H 0.91406 0.98018 0.65332 0.0
H1652 H 0.91214 0.87439 0.65858 0.0
H1653 H 0.81808 0.91421 0.65383 0.0
H1654 H 0.84481 0.92028 0.63489 0.0
H1655 H 0.84411 0.94122 0.67306 0.0
C1656 C 0.9212 0.91483 0.60458 0.0
C1657 C 0.9241 0.94416 0.61698 0.0
C1658 C 0.90715 0.8997 0.61754 0.0
C1659 C 0.89539 0.91332 0.64326 0.0
C1660 C 0.89865 0.94258 0.65602 0.0
H1661 H 0.8039 0.84778 0.75016 0.0
H1662 H 0.82977 0.87854 0.7331 0.0
C1663 C 0.91263 0.95773 0.64304 0.0
C1664 C 0.88023 0.8969 0.65686 0.0
H1665 H 0.82085 0.88648 0.68021 0.0
C1666 C 0.89217 0.87709 0.66322 0.0
C1667 C 0.85408 0.90022 0.66317 0.0
C1668 C 0.8394 0.91993 0.65565 0.0
C1669 C 0.87893 0.86081 0.67563 0.0
C1670 C 0.85277 0.86399 0.68172 0.0
C1671 C 0.8409 0.88405 0.67579 0.0
C1672 C 0.83708 0.84557 0.69257 0.0
C1673 C 0.8932 0.84042 0.68239 0.0
C1674 C 0.83219 0.81681 0.67551 0.0
C1675 C 0.81733 0.79934 0.6851 0.0
C1676 C 0.80686 0.81001 0.71211 0.0
C1677 C 0.81169 0.83883 0.7293 0.0
C1678 C 0.82646 0.85644 0.71952 0.0
H1679 H 0.91457 0.84568 0.68403 0.0
H1680 H 0.88775 0.83977 0.70303 0.0
H1681 H 0.88799 0.81933 0.66474 0.0
H1682 H 0.83968 0.80782 0.65448 0.0
H1683 H 0.81404 0.7773 0.67121 0.0
H1684 H 0.20692 0.83254 0.77503 0.0
H1685 H 0.17396 0.86017 0.8022 0.0
H1686 H 0.1882 0.83329 0.87022 0.0
H1687 H 0.22109 0.80541 0.84309 0.0
H1688 H 0.12699 0.84386 0.82392 0.0
H1689 H 0.19687 0.91964 0.91316 0.0
H1690 H 0.2069 0.89699 0.87863 0.0
H1691 H 0.19907 0.88369 0.90496 0.0
C1692 C 0.20308 0.83236 0.79574 0.0
C1693 C 0.21698 0.81659 0.80672 0.0
C1694 C 0.18407 0.84824 0.8113 0.0
C1695 C 0.17854 0.84927 0.83859 0.0
C1696 C 0.19215 0.8333 0.84947 0.0
H1697 H 0.08548 0.94429 0.97604 0.0
H1698 H 0.11422 0.91379 0.94483 0.0
C1699 C 0.21098 0.81716 0.83377 0.0
C1700 C 0.15885 0.86718 0.8557 0.0
H1701 H 0.15244 0.92343 0.91893 0.0
C1702 C 0.13258 0.86131 0.84467 0.0
C1703 C 0.16585 0.89007 0.88285 0.0
C1704 C 0.19371 0.89825 0.89562 0.0
C1705 C 0.11326 0.87698 0.86026 0.0
C1706 C 0.12026 0.89998 0.8875 0.0
C1707 C 0.14666 0.90595 0.89824 0.0
C1708 C 0.10077 0.91756 0.90581 0.0
C1709 C 0.08538 0.86793 0.84774 0.0
C1710 C 0.08286 0.93011 0.89477 0.0
C1711 C 0.06579 0.94749 0.91278 0.0
C1712 C 0.06647 0.95331 0.94252 0.0
C1713 C 0.08421 0.94051 0.95334 0.0
C1714 C 0.1009 0.92298 0.93539 0.0
H1715 H 0.08235 0.84575 0.832 0.0
H1716 H 0.07211 0.87085 0.86503 0.0
H1717 H 0.08001 0.88055 0.836 0.0
H1718 H 0.08252 0.92719 0.87238 0.0
H1719 H 0.0528 0.95722 0.90364 0.0
H1720 H 0.89873 0.45298 0.57971 0.0
H1721 H 0.85914 0.42661 0.58407 0.0
H1722 H 0.90373 0.36299 0.58631 0.0
H1723 H 0.94313 0.3885 0.58097 0.0
H1724 H 0.84009 0.36647 0.54385 0.0
H1725 H 0.86014 0.38741 0.65975 0.0
H1726 H 0.87479 0.40961 0.64405 0.0
H1727 H 0.8871 0.37745 0.63829 0.0
C1728 C 0.90011 0.43332 0.58102 0.0
C1729 C 0.92417 0.42289 0.58006 0.0
C1730 C 0.8775 0.41839 0.58361 0.0
C1731 C 0.87866 0.39303 0.58566 0.0
C1732 C 0.90258 0.38273 0.58508 0.0
H1733 H 0.79399 0.24342 0.55802 0.0
H1734 H 0.81319 0.2833 0.55047 0.0
C1735 C 0.92511 0.39747 0.58226 0.0
C1736 C 0.85497 0.37666 0.58776 0.0
H1737 H 0.82893 0.34862 0.63141 0.0
C1738 C 0.83724 0.36292 0.56314 0.0
C1739 C 0.85121 0.37249 0.61308 0.0
C1740 C 0.86917 0.38769 0.64043 0.0
C1741 C 0.81669 0.34354 0.5626 0.0
C1742 C 0.81414 0.33774 0.58722 0.0
C1743 C 0.83089 0.35299 0.61247 0.0
C1744 C 0.79665 0.31383 0.58656 0.0
C1745 C 0.79838 0.32896 0.53549 0.0
C1746 C 0.78018 0.3176 0.60867 0.0
C1747 C 0.76958 0.29485 0.61335 0.0
C1748 C 0.77532 0.2679 0.59602 0.0
C1749 C 0.78951 0.26393 0.57198 0.0
C1750 C 0.80026 0.28673 0.56743 0.0
H1751 H 0.79682 0.34218 0.52344 0.0
H1752 H 0.80598 0.30966 0.52101 0.0
H1753 H 0.77872 0.32328 0.54056 0.0
H1754 H 0.7772 0.33833 0.62373 0.0
H1755 H 0.75897 0.29883 0.63224 0.0
H1756 H 0.48981 0.1577 0.45656 0.0
H1757 H 0.47486 0.19236 0.44169 0.0
H1758 H 0.55052 0.24018 0.46855 0.0
H1759 H 0.5658 0.20516 0.48337 0.0
H1760 H 0.47248 0.24834 0.47166 0.0
H1761 H 0.5388 0.22775 0.38386 0.0
H1762 H 0.53396 0.2053 0.40235 0.0
H1763 H 0.55365 0.23831 0.42003 0.0
C1764 C 0.50319 0.1758 0.4598 0.0
C1765 C 0.52898 0.17872 0.47115 0.0
C1766 C 0.49465 0.19555 0.45117 0.0
C1767 C 0.51166 0.21866 0.45371 0.0
C1768 C 0.53723 0.22222 0.46592 0.0
H1769 H 0.4287 0.32993 0.40047 0.0
H1770 H 0.46043 0.31782 0.42899 0.0
C1771 C 0.54589 0.20227 0.47442 0.0
C1772 C 0.50237 0.2381 0.44236 0.0
H1773 H 0.50718 0.25697 0.38596 0.0
C1774 C 0.4803 0.25071 0.45325 0.0
C1775 C 0.51267 0.24099 0.4183 0.0
C1776 C 0.53597 0.22728 0.40522 0.0
C1777 C 0.46715 0.26458 0.43956 0.0
C1778 C 0.47685 0.26653 0.41476 0.0
C1779 C 0.4999 0.25549 0.40502 0.0
C1780 C 0.46136 0.27611 0.39626 0.0
C1781 C 0.442 0.27516 0.45053 0.0
C1782 C 0.45264 0.25731 0.36776 0.0
C1783 C 0.43499 0.26435 0.35119 0.0
C1784 C 0.42554 0.29028 0.36287 0.0
C1785 C 0.43557 0.30977 0.39079 0.0
C1786 C 0.45349 0.30278 0.40727 0.0
H1787 H 0.43489 0.26734 0.46642 0.0
H1788 H 0.44499 0.29819 0.46144 0.0
H1789 H 0.42669 0.26887 0.4323 0.0
H1790 H 0.45863 0.23667 0.35873 0.0
H1791 H 0.42817 0.24913 0.32951 0.0
H1792 H 0.5313 0.60547 0.06129 0.0
H1793 H 0.54911 0.6507 0.10038 0.0
H1794 H 0.6098 0.61166 0.12404 0.0
H1795 H 0.59218 0.567 0.08555 0.0
H1796 H 0.59025 0.6527 0.17172 0.0
H1797 H 0.61751 0.68905 0.087 0.0
H1798 H 0.58391 0.67798 0.08795 0.0
H1799 H 0.60668 0.65299 0.07789 0.0
C1800 C 0.54793 0.60657 0.07554 0.0
C1801 C 0.56058 0.58299 0.07049 0.0
C1802 C 0.55821 0.63236 0.09758 0.0
C1803 C 0.58101 0.63453 0.11471 0.0
C1804 C 0.59224 0.61046 0.11102 0.0
H1805 H 0.72411 0.72048 0.18313 0.0
H1806 H 0.68318 0.69873 0.15305 0.0
C1807 C 0.58218 0.58496 0.08905 0.0
C1808 C 0.5953 0.66164 0.13456 0.0
H1809 H 0.63913 0.71305 0.13337 0.0
C1810 C 0.60041 0.6665 0.16369 0.0
C1811 C 0.60863 0.67931 0.12374 0.0
C1812 C 0.60412 0.6747 0.09243 0.0
C1813 C 0.62015 0.68697 0.18168 0.0
C1814 C 0.6346 0.70362 0.17036 0.0
C1815 C 0.628 0.70027 0.14192 0.0
C1816 C 0.65886 0.72142 0.18622 0.0
C1817 C 0.6268 0.6888 0.21174 0.0
C1818 C 0.65879 0.7425 0.21417 0.0
C1819 C 0.68209 0.75447 0.23149 0.0
C1820 C 0.70577 0.74606 0.22081 0.0
C1821 C 0.70606 0.72724 0.19181 0.0
C1822 C 0.68269 0.71484 0.17466 0.0
H1823 H 0.61689 0.67098 0.21498 0.0
H1824 H 0.64804 0.68941 0.21598 0.0
H1825 H 0.62065 0.70813 0.22805 0.0
H1826 H 0.64068 0.74845 0.2232 0.0
H1827 H 0.68152 0.76926 0.25375 0.0
H1828 H 0.22166 0.18965 0.67553 0.0
H1829 H 0.1799 0.17539 0.64634 0.0
H1830 H 0.1566 0.25639 0.6948 0.0
H1831 H 0.19874 0.27101 0.72398 0.0
H1832 H 0.12169 0.20724 0.69142 0.0
H1833 H 0.14822 0.20005 0.58439 0.0
H1834 H 0.17024 0.18545 0.60089 0.0
H1835 H 0.16753 0.22206 0.61794 0.0
C1836 C 0.20786 0.2046 0.67953 0.0
C1837 C 0.21331 0.23135 0.70191 0.0
C1838 C 0.18409 0.19649 0.66285 0.0
C1839 C 0.16534 0.21493 0.6684 0.0
C1840 C 0.17097 0.242 0.69016 0.0
H1841 H 0.03743 0.12441 0.53983 0.0
H1842 H 0.05995 0.1675 0.57744 0.0
C1843 C 0.19501 0.2503 0.70666 0.0
C1844 C 0.13927 0.20455 0.65286 0.0
H1845 H 0.11058 0.16977 0.58412 0.0
C1846 C 0.11886 0.19971 0.66801 0.0
C1847 C 0.13558 0.19523 0.6225 0.0
C1848 C 0.15649 0.20119 0.60547 0.0
C1849 C 0.09562 0.18337 0.65315 0.0
C1850 C 0.09306 0.17145 0.62249 0.0
C1851 C 0.11254 0.17867 0.60764 0.0
C1852 C 0.07277 0.14827 0.6051 0.0
C1853 C 0.07455 0.17807 0.67034 0.0
C1854 C 0.07127 0.12347 0.60896 0.0
C1855 C 0.05819 0.09888 0.58762 0.0
C1856 C 0.04692 0.09876 0.56195 0.0
C1857 C 0.04622 0.12402 0.5594 0.0
C1858 C 0.05903 0.14863 0.58086 0.0
H1859 H 0.07454 0.19623 0.69149 0.0
H1860 H 0.05509 0.17354 0.65831 0.0
H1861 H 0.07824 0.16 0.67499 0.0
H1862 H 0.08214 0.1225 0.62714 0.0
H1863 H 0.05903 0.07965 0.59004 0.0
H1864 H 0.71762 0.30269 0.34105 0.0
H1865 H 0.68543 0.33159 0.36847 0.0
H1866 H 0.67072 0.35708 0.29948 0.0
H1867 H 0.70303 0.32852 0.27208 0.0
H1868 H 0.68537 0.3919 0.38654 0.0
H1869 H 0.59666 0.33131 0.31558 0.0
H1870 H 0.62665 0.31648 0.31496 0.0
H1871 H 0.62322 0.33978 0.29794 0.0
C1872 C 0.70747 0.31427 0.33154 0.0
C1873 C 0.7131 0.31301 0.30413 0.0
C1874 C 0.68901 0.33092 0.34736 0.0
C1875 C 0.67522 0.34647 0.3361 0.0
C1876 C 0.68066 0.3451 0.30866 0.0
H1877 H 0.55268 0.45688 0.40398 0.0
H1878 H 0.58217 0.42632 0.37264 0.0
C1879 C 0.69935 0.32876 0.293 0.0
C1880 C 0.65593 0.36479 0.35344 0.0
H1881 H 0.59128 0.37355 0.35476 0.0
C1882 C 0.66479 0.38778 0.37958 0.0
C1883 C 0.62901 0.35993 0.34439 0.0
C1884 C 0.61812 0.33546 0.3168 0.0
C1885 C 0.64779 0.40596 0.39661 0.0
C1886 C 0.62066 0.40068 0.38809 0.0
C1887 C 0.61185 0.37782 0.36168 0.0
C1888 C 0.60132 0.4182 0.40663 0.0
C1889 C 0.65941 0.43121 0.42318 0.0
C1890 C 0.60118 0.42331 0.4361 0.0
C1891 C 0.58455 0.44095 0.45403 0.0
C1892 C 0.56687 0.45373 0.44312 0.0
C1893 C 0.5659 0.44748 0.41326 0.0
C1894 C 0.58292 0.43 0.39529 0.0
H1895 H 0.67994 0.43748 0.42111 0.0
H1896 H 0.6484 0.44915 0.42717 0.0
H1897 H 0.65915 0.42623 0.44236 0.0
H1898 H 0.61419 0.41383 0.4455 0.0
H1899 H 0.58577 0.44478 0.47674 0.0
H1900 H 0.42621 0.86027 0.01738 0.0
H1901 H 0.38711 0.83415 0.02271 0.0
H1902 H 0.36289 0.91009 0.08428 0.0
H1903 H 0.40235 0.93639 0.07955 0.0
H1904 H 0.36358 0.8676 0.1033 0.0
H1905 H 0.31046 0.82842 0.99432 0.0
H1906 H 0.34394 0.82259 0.99349 0.0
H1907 H 0.33573 0.85756 0.00753 0.0
C1908 C 0.41255 0.87142 0.03203 0.0
C1909 C 0.4174 0.90035 0.04817 0.0
C1910 C 0.39003 0.85653 0.0347 0.0
C1911 C 0.3719 0.87029 0.05343 0.0
C1912 C 0.37652 0.89919 0.06939 0.0
H1913 H 0.25578 0.78966 0.1214 0.0
H1914 H 0.27432 0.82458 0.10594 0.0
C1915 C 0.39902 0.91415 0.06666 0.0
C1916 C 0.34962 0.85401 0.05853 0.0
H1917 H 0.29809 0.80457 0.02394 0.0
C1918 C 0.34889 0.85424 0.08617 0.0
C1919 C 0.33066 0.83657 0.03601 0.0
C1920 C 0.33002 0.8364 0.00622 0.0
C1921 C 0.33065 0.83621 0.09152 0.0
C1922 C 0.31215 0.81801 0.06873 0.0
C1923 C 0.31219 0.81864 0.04137 0.0
C1924 C 0.29479 0.79617 0.0723 0.0
C1925 C 0.33248 0.8356 0.12104 0.0
C1926 C 0.29819 0.76819 0.05663 0.0
C1927 C 0.28706 0.74793 0.06488 0.0
C1928 C 0.27262 0.75542 0.08917 0.0
C1929 C 0.26682 0.783 0.10263 0.0
C1930 C 0.27766 0.80316 0.09406 0.0
H1931 H 0.35103 0.84682 0.13403 0.0
H1932 H 0.31639 0.84575 0.13326 0.0
H1933 H 0.33079 0.81388 0.11898 0.0
H1934 H 0.31106 0.76232 0.03944 0.0
H1935 H 0.29128 0.72675 0.05352 0.0
H1936 H 0.06534 0.67811 0.96448 0.0
H1937 H 0.0495 0.70804 0.94315 0.0
H1938 H 0.98206 0.71621 0.99115 0.0
H1939 H 0.99832 0.68735 0.01358 0.0
H1940 H 1.00577 0.69372 0.90829 0.0
H1941 H 0.99965 0.79483 0.99976 0.0
H1942 H 1.01829 0.76913 1.0032 0.0
H1943 H 0.98383 0.76663 0.00606 0.0
C1944 C 0.04759 0.68705 0.9713 0.0
C1945 C 0.03304 0.68023 0.99068 0.0
C1946 C 0.03848 0.70402 0.95892 0.0
C1947 C 1.01471 0.71458 0.96573 0.0
C1948 C 1.0007 0.7088 0.986 0.0
H1949 H 0.89686 0.73866 0.86152 0.0
H1950 H 0.92748 0.72315 0.88775 0.0
C1951 C 1.00985 0.69195 0.9985 0.0
C1952 C 1.00293 0.72847 0.94898 0.0
H1953 H 0.97196 0.78448 0.95602 0.0
C1954 C 0.99881 0.71381 0.91871 0.0
C1955 C 0.99413 0.75483 0.96249 0.0
C1956 C 0.99946 0.77239 0.99464 0.0
C1957 C 0.98488 0.72406 0.90179 0.0
C1958 C 0.97437 0.74937 0.91555 0.0
C1959 C 0.97974 0.76486 0.94558 0.0
C1960 C 0.95624 0.75898 0.89938 0.0
C1961 C 0.98111 0.70742 0.86934 0.0
C1962 C 0.96205 0.78458 0.89777 0.0
C1963 C 0.94456 0.79351 0.88264 0.0
C1964 C 0.92092 0.77702 0.86907 0.0
C1965 C 0.91514 0.75154 0.87108 0.0
C1966 C 0.9326 0.74266 0.88613 0.0
H1967 H 0.99652 0.69364 0.86154 0.0
H1968 H 0.96218 0.69408 0.86354 0.0
H1969 H 0.98108 0.72122 0.85782 0.0
H1970 H 0.98017 0.79752 0.90802 0.0
H1971 H 0.94962 0.81318 0.88138 0.0
H1972 H 0.4141 0.47778 0.15079 0.0
H1973 H 0.39094 0.45077 0.17341 0.0
H1974 H 0.39001 0.37635 0.09488 0.0
H1975 H 0.41406 0.4029 0.0725 0.0
H1976 H 0.34349 0.42043 0.16006 0.0
H1977 H 0.41742 0.35014 0.15332 0.0
H1978 H 0.42411 0.38079 0.1466 0.0
H1979 H 0.40744 0.34926 0.11866 0.0
C1980 C 0.40942 0.45559 0.13837 0.0
C1981 C 0.41634 0.44273 0.10968 0.0
C1982 C 0.39588 0.44013 0.15136 0.0
C1983 C 0.38895 0.41125 0.13621 0.0
C1984 C 0.39552 0.39841 0.10747 0.0
H1985 H 0.30304 0.27715 0.16322 0.0
H1986 H 0.32779 0.30785 0.14604 0.0
C1987 C 0.40907 0.41382 0.09448 0.0
C1988 C 0.37446 0.39472 0.15016 0.0
H1989 H 0.37576 0.33753 0.16515 0.0
C1990 C 0.35071 0.40245 0.16138 0.0
C1991 C 0.3837 0.37121 0.15216 0.0
C1992 C 0.40968 0.36249 0.14232 0.0
C1993 C 0.33568 0.38693 0.17344 0.0
C1994 C 0.34469 0.36309 0.17487 0.0
C1995 C 0.36864 0.35566 0.16409 0.0
C1996 C 0.32914 0.34477 0.18607 0.0
C1997 C 0.30978 0.39565 0.18357 0.0
C1998 C 0.32158 0.35493 0.21459 0.0
C1999 C 0.30725 0.33721 0.22459 0.0
C2000 C 0.30018 0.30889 0.20631 0.0
C2001 C 0.30796 0.29883 0.17793 0.0
C2002 C 0.32224 0.31642 0.16803 0.0
H2003 H 0.30287 0.41006 0.17476 0.0
H2004 H 0.29489 0.37729 0.17705 0.0
H2005 H 0.31166 0.40654 0.20758 0.0
H2006 H 0.32703 0.37651 0.2293 0.0
H2007 H 0.3018 0.34565 0.24662 0.0
H2008 H 0.44404 0.55431 0.98637 0.0
H2009 H 0.41811 0.578 0.96406 0.0
H2010 H 0.48624 0.60079 0.92966 0.0
H2011 H 0.51204 0.57687 0.9513 0.0
H2012 H 0.42015 0.63161 0.97041 0.0
H2013 H 0.43744 0.56642 0.85711 0.0
H2014 H 0.44595 0.55731 0.88663 0.0
H2015 H 0.46699 0.5825 0.87991 0.0
C2016 C 0.45355 0.56433 0.97404 0.0
C2017 C 0.48027 0.56334 0.97062 0.0
C2018 C 0.43863 0.57794 0.96122 0.0
C2019 C 0.44989 0.59084 0.94444 0.0
C2020 C 0.47668 0.59044 0.94166 0.0
H2021 H 0.39672 0.68535 0.84954 0.0
H2022 H 0.42157 0.662 0.87302 0.0
C2023 C 0.49156 0.57683 0.95437 0.0
C2024 C 0.43388 0.60498 0.93021 0.0
H2025 H 0.41794 0.60738 0.86498 0.0
C2026 C 0.41956 0.62611 0.94731 0.0
C2027 C 0.43291 0.59809 0.89999 0.0
C2028 C 0.44642 0.57466 0.87978 0.0
C2029 C 0.40506 0.64082 0.93536 0.0
C2030 C 0.40426 0.63406 0.90518 0.0
C2031 C 0.41847 0.61284 0.88807 0.0
C2032 C 0.38884 0.64862 0.89096 0.0
C2033 C 0.39131 0.66408 0.95544 0.0
C2034 C 0.3619 0.64882 0.89263 0.0
C2035 C 0.34757 0.66231 0.87925 0.0
C2036 C 0.35963 0.676 0.86355 0.0
C2037 C 0.38661 0.67551 0.86167 0.0
C2038 C 0.40091 0.66193 0.87501 0.0
H2039 H 0.39963 0.67186 0.97831 0.0
H2040 H 0.39238 0.68174 0.94902 0.0
H2041 H 0.37057 0.6563 0.95441 0.0
H2042 H 0.3518 0.63833 0.90418 0.0
H2043 H 0.32698 0.66228 0.88161 0.0
H2044 H 0.06573 0.60508 0.58854 0.0
H2045 H 0.10057 0.62274 0.62796 0.0
H2046 H 0.12895 0.54279 0.59478 0.0
H2047 H 0.0939 0.5248 0.55529 0.0
H2048 H 0.12265 0.59596 0.67109 0.0
H2049 H 0.18369 0.60784 0.58823 0.0
H2050 H 0.14894 0.60714 0.58426 0.0
H2051 H 0.16267 0.57606 0.57966 0.0
C2052 C 0.07911 0.59113 0.58996 0.0
C2053 C 0.07747 0.56377 0.56872 0.0
C2054 C 0.09879 0.60114 0.61258 0.0
C2055 C 0.11712 0.58397 0.61418 0.0
C2056 C 0.11475 0.55618 0.59392 0.0
H2057 H 0.26446 0.6782 0.69448 0.0
H2058 H 0.23473 0.635 0.67374 0.0
C2059 C 0.09491 0.54606 0.57134 0.0
C2060 C 0.14077 0.59669 0.63407 0.0
H2061 H 0.19983 0.63118 0.63667 0.0
C2062 C 0.13988 0.60319 0.66368 0.0
C2063 C 0.16317 0.60567 0.62411 0.0
C2064 C 0.16492 0.59894 0.59236 0.0
C2065 C 0.16056 0.61984 0.68394 0.0
C2066 C 0.18207 0.63093 0.67423 0.0
C2067 C 0.18348 0.62274 0.64431 0.0
C2068 C 0.20151 0.65392 0.69416 0.0
C2069 C 0.15884 0.62572 0.71544 0.0
C2070 C 0.19322 0.67857 0.71406 0.0
C2071 C 0.21048 0.70299 0.72669 0.0
C2072 C 0.23592 0.70321 0.71877 0.0
C2073 C 0.24479 0.67831 0.70071 0.0
C2074 C 0.22782 0.65371 0.68891 0.0
H2075 H 0.14871 0.60742 0.71762 0.0
H2076 H 0.1783 0.63116 0.72763 0.0
H2077 H 0.14727 0.64325 0.72544 0.0
H2078 H 0.17297 0.67966 0.71793 0.0
H2079 H 0.20328 0.72216 0.74039 0.0
H2080 H 0.37265 0.32892 0.62207 0.0
H2081 H 0.39675 0.34989 0.59419 0.0
H2082 H 0.35352 0.42016 0.62647 0.0
H2083 H 0.32947 0.39947 0.65437 0.0
H2084 H 0.38268 0.36494 0.55099 0.0
H2085 H 0.42608 0.45965 0.6459 0.0
H2086 H 0.4095 0.43011 0.64961 0.0
H2087 H 0.39133 0.45482 0.64367 0.0
C2088 C 0.36814 0.3488 0.62322 0.0
C2089 C 0.34915 0.3625 0.64098 0.0
C2090 C 0.38206 0.36087 0.60723 0.0
C2091 C 0.37754 0.38705 0.60851 0.0
C2092 C 0.35815 0.40042 0.62563 0.0
H2093 H 0.4549 0.49732 0.53686 0.0
H2094 H 0.42156 0.4741 0.55507 0.0
C2095 C 0.34431 0.38845 0.64167 0.0
C2096 C 0.39289 0.40024 0.5919 0.0
H2097 H 0.43203 0.45895 0.59966 0.0
C2098 C 0.39348 0.38549 0.56173 0.0
C2099 C 0.4071 0.42716 0.60557 0.0
C2100 C 0.40874 0.44378 0.63799 0.0
C2101 C 0.40749 0.39685 0.54507 0.0
C2102 C 0.42177 0.4237 0.55879 0.0
C2103 C 0.42096 0.43855 0.58887 0.0
C2104 C 0.43917 0.43601 0.54297 0.0
C2105 C 0.40656 0.38002 0.51276 0.0
C2106 C 0.45986 0.42227 0.52913 0.0
C2107 C 0.47872 0.43547 0.51852 0.0
C2108 C 0.47742 0.4627 0.52109 0.0
C2109 C 0.45594 0.47594 0.53338 0.0
C2110 C 0.4371 0.4628 0.54431 0.0
H2111 H 0.38874 0.36483 0.50444 0.0
H2112 H 0.40726 0.39359 0.50095 0.0
H2113 H 0.42351 0.36814 0.50785 0.0
H2114 H 0.46252 0.40201 0.52831 0.0
H2115 H 0.49551 0.4251 0.51025 0.0
H2116 H 0.17576 0.74727 0.25391 0.0
H2117 H 0.14222 0.70961 0.22321 0.0
H2118 H 0.20005 0.65299 0.19752 0.0
H2119 H 0.23341 0.69024 0.2285 0.0
H2120 H 0.14014 0.6799 0.16422 0.0
H2121 H 0.14313 0.60905 0.21911 0.0
H2122 H 0.15761 0.64485 0.23599 0.0
H2123 H 0.17452 0.61873 0.21039 0.0
C2124 C 0.18119 0.72667 0.242 0.0
C2125 C 0.20711 0.7216 0.24356 0.0
C2126 C 0.16207 0.70524 0.22447 0.0
C2127 C 0.1686 0.67843 0.20844 0.0
C2128 C 0.19448 0.67334 0.21022 0.0
H2129 H 0.09191 0.54936 0.05093 0.0
H2130 H 0.12044 0.58754 0.08868 0.0
C2131 C 0.21354 0.6947 0.22775 0.0
C2132 C 0.14877 0.65612 0.18842 0.0
H2133 H 0.12228 0.5894 0.17072 0.0
C2134 C 0.13601 0.66021 0.16581 0.0
C2135 C 0.14319 0.6306 0.19075 0.0
C2136 C 0.15513 0.6256 0.21555 0.0
C2137 C 0.11849 0.63909 0.14484 0.0
C2138 C 0.11403 0.61303 0.14625 0.0
C2139 C 0.12603 0.60928 0.16946 0.0
C2140 C 0.09723 0.5893 0.12361 0.0
C2141 C 0.10486 0.64491 0.12141 0.0
C2142 C 0.07527 0.57697 0.13092 0.0
C2143 C 0.0591 0.55496 0.10943 0.0
C2144 C 0.06473 0.54494 0.08035 0.0
C2145 C 0.08707 0.55682 0.07318 0.0
C2146 C 0.10326 0.57874 0.09467 0.0
H2147 H 0.1045 0.66756 0.12809 0.0
H2148 H 0.11537 0.63693 0.10162 0.0
H2149 H 0.08461 0.63446 0.1158 0.0
H2150 H 0.07041 0.5847 0.15318 0.0
H2151 H 0.04198 0.54614 0.1155 0.0
H2152 H 0.72999 0.28552 0.67589 0.0
H2153 H 0.70828 0.31207 0.65369 0.0
H2154 H 0.73105 0.38723 0.73074 0.0
H2155 H 0.75303 0.36088 0.75284 0.0
H2156 H 0.66759 0.34388 0.67031 0.0
H2157 H 0.75453 0.41143 0.66852 0.0
H2158 H 0.75667 0.38059 0.67477 0.0
H2159 H 0.75023 0.41233 0.70377 0.0
C2160 C 0.73062 0.30773 0.68809 0.0
C2161 C 0.74363 0.32087 0.71622 0.0
C2162 C 0.71801 0.32299 0.67534 0.0
C2163 C 0.71817 0.35199 0.69014 0.0
C2164 C 0.73096 0.3651 0.71834 0.0
H2165 H 0.65347 0.48392 0.65555 0.0
H2166 H 0.67528 0.45597 0.67558 0.0
C2167 C 0.74345 0.34984 0.73114 0.0
C2168 C 0.70451 0.36836 0.6765 0.0
H2169 H 0.71374 0.42373 0.65806 0.0
C2170 C 0.6778 0.36121 0.66749 0.0
C2171 C 0.7175 0.39114 0.67262 0.0
C2172 C 0.74635 0.39923 0.68014 0.0
C2173 C 0.66378 0.37644 0.65569 0.0
C2174 C 0.67673 0.39938 0.65198 0.0
C2175 C 0.70351 0.40637 0.66081 0.0
C2176 C 0.66293 0.41649 0.63935 0.0
C2177 C 0.63494 0.36825 0.6482 0.0
C2178 C 0.64866 0.40413 0.6119 0.0
C2179 C 0.63584 0.42019 0.60036 0.0
C2180 C 0.63688 0.44932 0.61571 0.0
C2181 C 0.65152 0.46164 0.64304 0.0
C2182 C 0.66434 0.44557 0.65453 0.0
H2183 H 0.62683 0.35617 0.65997 0.0
H2184 H 0.62453 0.38679 0.65341 0.0
H2185 H 0.63108 0.35494 0.62462 0.0
H2186 H 0.64755 0.38195 0.59913 0.0
H2187 H 0.6248 0.40955 0.57941 0.0
H2188 H 0.8304 0.69072 0.23054 0.0
H2189 H 0.86032 0.66023 0.2007 0.0
H2190 H 0.84733 0.69057 0.13509 0.0
H2191 H 0.81716 0.72076 0.16453 0.0
H2192 H 0.8476 0.63459 0.1107 0.0
H2193 H 0.93415 0.68304 0.18959 0.0
H2194 H 0.90749 0.67063 0.20412 0.0
H2195 H 0.90436 0.69862 0.19343 0.0
C2196 C 0.83377 0.69086 0.20971 0.0
C2197 C 0.82124 0.70842 0.20014 0.0
C2198 C 0.85116 0.67352 0.1927 0.0
C2199 C 0.85666 0.67331 0.1657 0.0
C2200 C 0.84368 0.69031 0.15582 0.0
H2201 H 0.98919 0.60746 0.06881 0.0
H2202 H 0.95808 0.63675 0.09785 0.0
C2203 C 0.82633 0.70765 0.17279 0.0
C2204 C 0.87572 0.65537 0.14764 0.0
H2205 H 0.9389 0.64174 0.14838 0.0
C2206 C 0.86756 0.63621 0.11901 0.0
C2207 C 0.90201 0.6576 0.15805 0.0
C2208 C 0.91267 0.67875 0.18786 0.0
C2209 C 0.88461 0.6191 0.10085 0.0
C2210 C 0.91068 0.62067 0.11157 0.0
C2211 C 0.91895 0.64016 0.14005 0.0
C2212 C 0.92966 0.60256 0.09357 0.0
C2213 C 0.8746 0.59994 0.07005 0.0
C2214 C 0.92448 0.57338 0.08152 0.0
C2215 C 0.94225 0.55653 0.06476 0.0
C2216 C 0.96591 0.5683 0.0597 0.0
C2217 C 0.97122 0.59752 0.07205 0.0
C2218 C 0.95339 0.61437 0.08878 0.0
H2219 H 0.85723 0.60688 0.06272 0.0
H2220 H 0.88971 0.59865 0.05491 0.0
H2221 H 0.86892 0.57878 0.06872 0.0
H2222 H 0.90674 0.56354 0.08533 0.0
H2223 H 0.93746 0.53418 0.05595 0.0
H2224 H 0.97445 0.55284 0.59312 0.0
H2225 H 0.94532 0.58225 0.62543 0.0
H2226 H 0.92359 0.61097 0.56054 0.0
H2227 H 0.95323 0.58214 0.52842 0.0
H2228 H 0.93155 0.65371 0.61196 0.0
H2229 H 0.86821 0.57071 0.62478 0.0
H2230 H 0.90169 0.57118 0.63532 0.0
H2231 H 0.8915 0.56324 0.59811 0.0
C2232 C 0.96334 0.56522 0.58555 0.0
C2233 C 0.96624 0.56484 0.55791 0.0
C2234 C 0.94645 0.582 0.60409 0.0
C2235 C 0.93165 0.59869 0.59549 0.0
C2236 C 0.93456 0.59834 0.56789 0.0
H2237 H 0.79868 0.67758 0.67986 0.0
H2238 H 0.82794 0.6472 0.64885 0.0
C2239 C 0.95154 0.58168 0.5494 0.0
C2240 C 0.91381 0.61709 0.61542 0.0
H2241 H 0.86321 0.61721 0.65658 0.0
C2242 C 0.91659 0.64562 0.62162 0.0
C2243 C 0.89387 0.60681 0.62794 0.0
C2244 C 0.88841 0.57627 0.621 0.0
C2245 C 0.90044 0.66396 0.63997 0.0
C2246 C 0.88113 0.65386 0.65334 0.0
C2247 C 0.87812 0.62527 0.64684 0.0
C2248 C 0.86331 0.67233 0.67323 0.0
C2249 C 0.90385 0.69389 0.64414 0.0
C2250 C 0.87309 0.69655 0.69796 0.0
C2251 C 0.85629 0.71416 0.71577 0.0
C2252 C 0.82914 0.70791 0.70964 0.0
C2253 C 0.81939 0.68321 0.68543 0.0
C2254 C 0.8362 0.66571 0.66756 0.0
H2255 H 0.91371 0.69641 0.62625 0.0
H2256 H 0.88489 0.70216 0.64534 0.0
H2257 H 0.91606 0.70662 0.66469 0.0
H2258 H 0.89381 0.70194 0.70354 0.0
H2259 H 0.86463 0.73282 0.73426 0.0
H2260 H 0.42021 0.62429 0.43456 0.0
H2261 H 0.39721 0.65098 0.41375 0.0
H2262 H 0.38776 0.5809 0.33049 0.0
H2263 H 0.40973 0.55371 0.35129 0.0
H2264 H 0.40717 0.66832 0.37195 0.0
H2265 H 0.31451 0.59876 0.3361 0.0
H2266 H 0.33948 0.59507 0.35964 0.0
H2267 H 0.34171 0.58115 0.32108 0.0
C2268 C 0.41295 0.61424 0.41189 0.0
C2269 C 0.41696 0.58643 0.39491 0.0
C2270 C 0.39986 0.62976 0.39987 0.0
C2271 C 0.39007 0.61809 0.37046 0.0
C2272 C 0.39438 0.59051 0.35335 0.0
H2273 H 0.30897 0.67685 0.25428 0.0
H2274 H 0.33125 0.65075 0.2765 0.0
C2275 C 0.40744 0.57497 0.36533 0.0
C2276 C 0.37593 0.63485 0.35766 0.0
H2277 H 0.31973 0.63419 0.31891 0.0
C2278 C 0.38797 0.66083 0.36054 0.0
C2279 C 0.35076 0.62548 0.3426 0.0
C2280 C 0.33573 0.59874 0.33988 0.0
C2281 C 0.37608 0.67708 0.34836 0.0
C2282 C 0.35099 0.66761 0.33313 0.0
C2283 C 0.3389 0.6417 0.33037 0.0
C2284 C 0.33712 0.68399 0.31966 0.0
C2285 C 0.39099 0.70394 0.35122 0.0
C2286 C 0.33233 0.71155 0.33623 0.0
C2287 C 0.31955 0.72665 0.32345 0.0
C2288 C 0.31086 0.71471 0.29366 0.0
C2289 C 0.31533 0.687 0.27721 0.0
C2290 C 0.32812 0.67191 0.28999 0.0
H2291 H 0.41216 0.70436 0.35583 0.0
H2292 H 0.38774 0.70727 0.33119 0.0
H2293 H 0.38436 0.72151 0.36952 0.0
H2294 H 0.33828 0.72142 0.35926 0.0
H2295 H 0.31645 0.74776 0.33702 0.0
H2296 H 0.22134 0.30587 0.84216 0.0
H2297 H 0.19116 0.33509 0.87288 0.0
H2298 H 0.18548 0.37679 0.8162 0.0
H2299 H 0.21532 0.34732 0.78508 0.0
H2300 H 0.19397 0.39069 0.90402 0.0
H2301 H 0.10966 0.35699 0.82162 0.0
H2302 H 0.13803 0.33892 0.81608 0.0
H2303 H 0.13819 0.37028 0.81059 0.0
C2304 C 0.21363 0.32116 0.83607 0.0
C2305 C 0.22082 0.32397 0.81086 0.0
C2306 C 0.19632 0.33797 0.85379 0.0
C2307 C 0.18549 0.35802 0.84682 0.0
C2308 C 0.1929 0.36112 0.82187 0.0
H2309 H 0.11061 0.49729 0.96633 0.0
H2310 H 0.14041 0.46751 0.93554 0.0
C2311 C 0.2102 0.34429 0.8041 0.0
C2312 C 0.16695 0.37592 0.86595 0.0
H2313 H 0.10599 0.39573 0.86597 0.0
C2314 C 0.17473 0.39171 0.89562 0.0
C2315 C 0.14157 0.37717 0.85538 0.0
C2316 C 0.13121 0.35974 0.82426 0.0
C2317 C 0.15823 0.40886 0.91467 0.0
C2318 C 0.13318 0.41078 0.9039 0.0
C2319 C 0.12521 0.39463 0.87435 0.0
C2320 C 0.1149 0.42913 0.92294 0.0
C2321 C 0.16765 0.42435 0.94637 0.0
C2322 C 0.09019 0.41785 0.92593 0.0
C2323 C 0.07299 0.43493 0.94359 0.0
C2324 C 0.07988 0.46389 0.9586 0.0
C2325 C 0.10455 0.47515 0.95537 0.0
C2326 C 0.12177 0.45804 0.9378 0.0
H2327 H 0.18387 0.41504 0.95252 0.0
H2328 H 0.1748 0.44617 0.95089 0.0
H2329 H 0.15172 0.42455 0.96028 0.0
H2330 H 0.08422 0.3957 0.91469 0.0
H2331 H 0.05419 0.42539 0.94531 0.0
H2332 H 0.25294 0.3612 0.32999 0.0
H2333 H 0.22358 0.39115 0.36136 0.0
H2334 H 0.15789 0.33372 0.30952 0.0
H2335 H 0.18719 0.30329 0.27853 0.0
H2336 H 0.18663 0.41933 0.35376 0.0
H2337 H 0.14088 0.34087 0.38813 0.0
H2338 H 0.16917 0.33546 0.36812 0.0
H2339 H 0.13737 0.32957 0.34954 0.0
C2340 C 0.23224 0.3549 0.32514 0.0
C2341 C 0.22259 0.32958 0.30166 0.0
C2342 C 0.21538 0.37213 0.34321 0.0
C2343 C 0.18832 0.36464 0.33846 0.0
C2344 C 0.1786 0.3398 0.31442 0.0
H2345 H 0.07464 0.48086 0.41774 0.0
H2346 H 0.1041 0.4519 0.38559 0.0
C2347 C 0.19547 0.32245 0.29644 0.0
C2348 C 0.17046 0.38284 0.35854 0.0
H2349 H 0.12142 0.38259 0.40148 0.0
C2350 C 0.17242 0.41122 0.36419 0.0
C2351 C 0.15206 0.3727 0.37281 0.0
C2352 C 0.14987 0.34307 0.36962 0.0
C2353 C 0.15649 0.42941 0.38309 0.0
C2354 C 0.1374 0.41903 0.39647 0.0
C2355 C 0.13571 0.39074 0.39115 0.0
C2356 C 0.11931 0.4371 0.41631 0.0
C2357 C 0.16086 0.4598 0.3891 0.0
C2358 C 0.11711 0.43814 0.44428 0.0
C2359 C 0.09991 0.45452 0.4627 0.0
C2360 C 0.08432 0.47039 0.45372 0.0
C2361 C 0.08648 0.46928 0.42569 0.0
C2362 C 0.10355 0.45275 0.40723 0.0
H2363 H 0.18076 0.46582 0.38485 0.0
H2364 H 0.14696 0.46395 0.37456 0.0
H2365 H 0.15784 0.47319 0.4119 0.0
H2366 H 0.12882 0.42629 0.452 0.0
H2367 H 0.09881 0.45467 0.48401 0.0
loop_
_geom_bond_atom_site_label_1
_geom_bond_atom_site_label_2
_geom_bond_distance
_geom_bond_site_symmetry_2
_ccdc_geom_bond_type
Nd0 C2 2.836 1_545 S
Nd0 O20 2.500 . S
Nd0 O21 2.492 1_545 S
Nd0 O22 2.487 1_445 S
Nd0 O23 2.682 1_445 S
Nd0 O24 2.410 1_544 S
Nd0 O29 2.414 1_554 S
Nd0 O31 2.424 1_455 S
Nd1 C11 2.836 1_565 S
Nd1 O23 2.414 1_556 S
Nd1 O25 2.424 1_655 S
Nd1 O26 2.500 . S
Nd1 O27 2.492 1_565 S
Nd1 O28 2.487 1_665 S
Nd1 O29 2.682 1_665 S
Nd1 O30 2.410 1_566 S
C2 Nd0 2.836 1_565 S
C2 C3 1.498 . S
C2 O20 1.258 1_565 S
C2 O21 1.239 . S
C3 C2 1.498 . S
C3 C4 1.366 . S
C3 C8 1.407 . S
C4 C3 1.366 . S
C4 C5 1.392 . S
C4 H32 0.930 . S
C5 C4 1.392 . S
C5 C6 1.398 . S
C5 H33 0.929 . S
C6 C5 1.398 . S
C6 C7 1.352 . S
C7 C6 1.352 . S
C7 C8 1.384 . S
C7 H34 0.930 . S
C8 C3 1.407 . S
C8 C7 1.384 . S
C8 H35 0.929 . S
C9 O22 1.241 . S
C9 O23 1.273 . S
C10 O24 1.251 . S
C10 O25 1.268 . S
C11 Nd1 2.836 1_545 S
C11 C12 1.498 . S
C11 O26 1.258 1_545 S
C11 O27 1.239 . S
C12 C11 1.498 . S
C12 C13 1.366 . S
C12 C17 1.407 . S
C13 C12 1.366 . S
C13 C14 1.392 . S
C13 H36 0.930 . S
C14 C13 1.392 . S
C14 C15 1.398 . S
C14 H37 0.929 . S
C15 C14 1.398 . S
C15 C16 1.352 . S
C16 C15 1.352 . S
C16 C17 1.384 . S
C16 H38 0.930 . S
C17 C12 1.407 . S
C17 C16 1.384 . S
C17 H39 0.929 . S
C18 O28 1.241 . S
C18 O29 1.273 . S
C19 O30 1.251 . S
C19 O31 1.268 . S
O20 Nd0 2.500 . S
O20 C2 1.258 1_545 S
O21 Nd0 2.492 1_565 S
O21 C2 1.239 . S
O22 Nd0 2.487 1_665 S
O22 C9 1.241 . S
O23 Nd0 2.682 1_665 S
O23 Nd1 2.414 1_554 S
O23 C9 1.273 . S
O24 Nd0 2.410 1_566 S
O24 C10 1.251 . S
O25 Nd1 2.424 1_455 S
O25 C10 1.268 . S
O26 Nd1 2.500 . S
O26 C11 1.258 1_565 S
O27 Nd1 2.492 1_545 S
O27 C11 1.239 . S
O28 Nd1 2.487 1_445 S
O28 C18 1.241 . S
O29 Nd0 2.414 1_556 S
O29 Nd1 2.682 1_445 S
O29 C18 1.273 . S
O30 Nd1 2.410 1_544 S
O30 C19 1.251 . S
O31 Nd0 2.424 1_655 S
O31 C19 1.268 . S
H32 C4 0.930 . S
H33 C5 0.929 . S
H34 C7 0.930 . S
H35 C8 0.929 . S
H36 C13 0.930 . S
H37 C14 0.929 . S
H38 C16 0.930 . S
H39 C17 0.929 . S
Nd40 C42 2.836 . S
Nd40 O60 2.500 . S
Nd40 O61 2.492 . S
Nd40 O62 2.487 . S
Nd40 O63 2.682 . S
Nd40 O64 2.410 . S
Nd40 O69 2.414 . S
Nd40 O71 2.424 . S
Nd41 C51 2.836 . S
Nd41 O63 2.414 . S
Nd41 O65 2.424 . S
Nd41 O66 2.500 . S
Nd41 O67 2.492 . S
Nd41 O68 2.487 . S
Nd41 O69 2.682 . S
Nd41 O70 2.410 . S
C42 Nd40 2.836 . S
C42 C43 1.498 . S
C42 O60 1.258 . S
C42 O61 1.239 . S
C43 C42 1.498 . S
C43 C44 1.366 . S
C43 C48 1.407 . S
C44 C43 1.366 . S
C44 C45 1.392 . S
C44 H72 0.930 . S
C45 C44 1.392 . S
C45 C46 1.398 . S
C45 H73 0.929 . S
C46 C45 1.398 . S
C46 C47 1.352 . S
C47 C46 1.352 . S
C47 C48 1.384 . S
C47 H74 0.930 . S
C48 C43 1.407 . S
C48 C47 1.384 . S
C48 H75 0.929 . S
C49 O62 1.241 . S
C49 O63 1.273 . S
C50 O64 1.251 . S
C50 O65 1.268 . S
C51 Nd41 2.836 . S
C51 C52 1.498 . S
C51 O66 1.258 . S
C51 O67 1.239 . S
C52 C51 1.498 . S
C52 C53 1.366 . S
C52 C57 1.407 . S
C53 C52 1.366 . S
C53 C54 1.392 . S
C53 H76 0.930 . S
C54 C53 1.392 . S
C54 C55 1.398 . S
C54 H77 0.929 . S
C55 C54 1.398 . S
C55 C56 1.352 . S
C56 C55 1.352 . S
C56 C57 1.384 . S
C56 H78 0.930 . S
C57 C52 1.407 . S
C57 C56 1.384 . S
C57 H79 0.929 . S
C58 O68 1.241 . S
C58 O69 1.273 . S
C59 O70 1.251 . S
C59 O71 1.268 . S
O60 Nd40 2.500 . S
O60 C42 1.258 . S
O61 Nd40 2.492 . S
O61 C42 1.239 . S
O62 Nd40 2.487 . S
O62 C49 1.241 . S
O63 Nd40 2.682 . S
O63 Nd41 2.414 . S
O63 C49 1.273 . S
O64 Nd40 2.410 . S
O64 C50 1.251 . S
O65 Nd41 2.424 . S
O65 C50 1.268 . S
O66 Nd41 2.500 . S
O66 C51 1.258 . S
O67 Nd41 2.492 . S
O67 C51 1.239 . S
O68 Nd41 2.487 . S
O68 C58 1.241 . S
O69 Nd40 2.414 . S
O69 Nd41 2.682 . S
O69 C58 1.273 . S
O70 Nd41 2.410 . S
O70 C59 1.251 . S
O71 Nd40 2.424 . S
O71 C59 1.268 . S
H72 C44 0.930 . S
H73 C45 0.929 . S
H74 C47 0.930 . S
H75 C48 0.929 . S
H76 C53 0.930 . S
H77 C54 0.929 . S
H78 C56 0.930 . S
H79 C57 0.929 . S
Nd80 C82 2.836 . S
Nd80 O100 2.500 . S
Nd80 O101 2.492 . S
Nd80 O102 2.487 1_545 S
Nd80 O103 2.682 1_545 S
Nd80 O104 2.410 . S
Nd80 O109 2.414 . S
Nd80 O111 2.424 1_545 S
Nd81 C91 2.836 . S
Nd81 O103 2.414 . S
Nd81 O105 2.424 1_565 S
Nd81 O106 2.500 . S
Nd81 O107 2.492 . S
Nd81 O108 2.487 1_565 S
Nd81 O109 2.682 1_565 S
Nd81 O110 2.410 . S
C82 Nd80 2.836 . S
C82 C83 1.498 . S
C82 O100 1.258 . S
C82 O101 1.239 . S
C83 C82 1.498 . S
C83 C84 1.366 . S
C83 C88 1.407 . S
C84 C83 1.366 . S
C84 C85 1.392 . S
C84 H112 0.930 . S
C85 C84 1.392 . S
C85 C86 1.398 . S
C85 H113 0.929 . S
C86 C85 1.398 . S
C86 C87 1.352 . S
C87 C86 1.352 . S
C87 C88 1.384 . S
C87 H114 0.930 . S
C88 C83 1.407 . S
C88 C87 1.384 . S
C88 H115 0.929 . S
C89 O102 1.241 . S
C89 O103 1.273 . S
C90 O104 1.251 . S
C90 O105 1.268 . S
C91 Nd81 2.836 . S
C91 C92 1.498 . S
C91 O106 1.258 . S
C91 O107 1.239 . S
C92 C91 1.498 . S
C92 C93 1.366 . S
C92 C97 1.407 . S
C93 C92 1.366 . S
C93 C94 1.392 . S
C93 H116 0.930 . S
C94 C93 1.392 . S
C94 C95 1.398 . S
C94 H117 0.929 . S
C95 C94 1.398 . S
C95 C96 1.352 . S
C96 C95 1.352 . S
C96 C97 1.384 . S
C96 H118 0.930 . S
C97 C92 1.407 . S
C97 C96 1.384 . S
C97 H119 0.929 . S
C98 O108 1.241 . S
C98 O109 1.273 . S
C99 O110 1.251 . S
C99 O111 1.268 . S
O100 Nd80 2.500 . S
O100 C82 1.258 . S
O101 Nd80 2.492 . S
O101 C82 1.239 . S
O102 Nd80 2.487 1_565 S
O102 C89 1.241 . S
O103 Nd80 2.682 1_565 S
O103 Nd81 2.414 . S
O103 C89 1.273 . S
O104 Nd80 2.410 . S
O104 C90 1.251 . S
O105 Nd81 2.424 1_545 S
O105 C90 1.268 . S
O106 Nd81 2.500 . S
O106 C91 1.258 . S
O107 Nd81 2.492 . S
O107 C91 1.239 . S
O108 Nd81 2.487 1_545 S
O108 C98 1.241 . S
O109 Nd80 2.414 . S
O109 Nd81 2.682 1_545 S
O109 C98 1.273 . S
O110 Nd81 2.410 . S
O110 C99 1.251 . S
O111 Nd80 2.424 1_565 S
O111 C99 1.268 . S
H112 C84 0.930 . S
H113 C85 0.929 . S
H114 C87 0.930 . S
H115 C88 0.929 . S
H116 C93 0.930 . S
H117 C94 0.929 . S
H118 C96 0.930 . S
H119 C97 0.929 . S
Nd120 C122 2.836 . S
Nd120 O140 2.500 . S
Nd120 O141 2.492 . S
Nd120 O142 2.487 . S
Nd120 O143 2.682 . S
Nd120 O144 2.410 . S
Nd120 O149 2.414 . S
Nd120 O151 2.424 . S
Nd121 C131 2.836 . S
Nd121 O143 2.414 . S
Nd121 O145 2.424 . S
Nd121 O146 2.500 . S
Nd121 O147 2.492 . S
Nd121 O148 2.487 . S
Nd121 O149 2.682 . S
Nd121 O150 2.410 . S
C122 Nd120 2.836 . S
C122 C123 1.498 . S
C122 O140 1.258 . S
C122 O141 1.239 . S
C123 C122 1.498 . S
C123 C124 1.366 . S
C123 C128 1.407 . S
C124 C123 1.366 . S
C124 C125 1.392 . S
C124 H152 0.930 . S
C125 C124 1.392 . S
C125 C126 1.398 . S
C125 H153 0.929 . S
C126 C125 1.398 . S
C126 C127 1.352 . S
C127 C126 1.352 . S
C127 C128 1.384 . S
C127 H154 0.930 . S
C128 C123 1.407 . S
C128 C127 1.384 . S
C128 H155 0.929 . S
C129 O142 1.241 . S
C129 O143 1.273 . S
C130 O144 1.251 . S
C130 O145 1.268 . S
C131 Nd121 2.836 . S
C131 C132 1.498 . S
C131 O146 1.258 . S
C131 O147 1.239 . S
C132 C131 1.498 . S
C132 C133 1.366 . S
C132 C137 1.407 . S
C133 C132 1.366 . S
C133 C134 1.392 . S
C133 H156 0.930 . S
C134 C133 1.392 . S
C134 C135 1.398 . S
C134 H157 0.929 . S
C135 C134 1.398 . S
C135 C136 1.352 . S
C136 C135 1.352 . S
C136 C137 1.384 . S
C136 H158 0.930 . S
C137 C132 1.407 . S
C137 C136 1.384 . S
C137 H159 0.929 . S
C138 O148 1.241 . S
C138 O149 1.273 . S
C139 O150 1.251 . S
C139 O151 1.268 . S
O140 Nd120 2.500 . S
O140 C122 1.258 . S
O141 Nd120 2.492 . S
O141 C122 1.239 . S
O142 Nd120 2.487 . S
O142 C129 1.241 . S
O143 Nd120 2.682 . S
O143 Nd121 2.414 . S
O143 C129 1.273 . S
O144 Nd120 2.410 . S
O144 C130 1.251 . S
O145 Nd121 2.424 . S
O145 C130 1.268 . S
O146 Nd121 2.500 . S
O146 C131 1.258 . S
O147 Nd121 2.492 . S
O147 C131 1.239 . S
O148 Nd121 2.487 . S
O148 C138 1.241 . S
O149 Nd120 2.414 . S
O149 Nd121 2.682 . S
O149 C138 1.273 . S
O150 Nd121 2.410 . S
O150 C139 1.251 . S
O151 Nd120 2.424 . S
O151 C139 1.268 . S
H152 C124 0.930 . S
H153 C125 0.929 . S
H154 C127 0.930 . S
H155 C128 0.929 . S
H156 C133 0.930 . S
H157 C134 0.929 . S
H158 C136 0.930 . S
H159 C137 0.929 . S
Nd160 C162 2.836 . S
Nd160 O180 2.483 . S
Nd160 O181 2.492 . S
Nd160 O182 2.487 . S
Nd160 O183 2.682 . S
Nd160 O184 2.410 . S
Nd160 O189 2.414 1_665 S
Nd160 O191 2.424 1_565 S
Nd161 C171 2.836 . S
Nd161 O183 2.414 1_445 S
Nd161 O185 2.424 1_545 S
Nd161 O186 2.500 . S
Nd161 O187 2.492 . S
Nd161 O188 2.487 . S
Nd161 O189 2.682 . S
Nd161 O190 2.410 . S
C162 Nd160 2.836 . S
C162 C163 1.498 . S
C162 O180 1.283 . S
C162 O181 1.239 . S
C163 C162 1.498 . S
C163 C164 1.366 . S
C163 C168 1.407 . S
C164 C163 1.366 . S
C164 C165 1.392 . S
C164 H192 0.930 . S
C165 C164 1.392 . S
C165 C166 1.398 . S
C165 H193 0.929 . S
C166 C165 1.398 . S
C166 C167 1.352 . S
C167 C166 1.352 . S
C167 C168 1.384 . S
C167 H194 0.930 . S
C168 C163 1.407 . S
C168 C167 1.384 . S
C168 H195 0.929 . S
C169 O182 1.241 . S
C169 O183 1.273 . S
C170 O184 1.251 1_455 S
C170 O185 1.268 . S
C171 Nd161 2.836 . S
C171 C172 1.498 . S
C171 O186 1.258 . S
C171 O187 1.239 . S
C172 C171 1.498 . S
C172 C173 1.366 . S
C172 C177 1.407 . S
C173 C172 1.366 . S
C173 C174 1.392 . S
C173 H196 0.930 . S
C174 C173 1.392 . S
C174 C175 1.398 . S
C174 H197 0.929 . S
C175 C174 1.398 . S
C175 C176 1.352 . S
C176 C175 1.352 . S
C176 C177 1.384 . S
C176 H198 0.930 . S
C177 C172 1.407 . S
C177 C176 1.384 . S
C177 H199 0.929 . S
C178 O188 1.241 . S
C178 O189 1.273 . S
C179 O190 1.251 1_655 S
C179 O191 1.268 . S
O180 Nd160 2.483 . S
O180 C162 1.283 . S
O181 Nd160 2.492 . S
O181 C162 1.239 . S
O182 Nd160 2.487 . S
O182 C169 1.241 . S
O183 Nd160 2.682 . S
O183 Nd161 2.414 1_665 S
O183 C169 1.273 . S
O184 Nd160 2.410 . S
O184 C170 1.251 1_655 S
O185 Nd161 2.424 1_565 S
O185 C170 1.268 . S
O186 Nd161 2.500 . S
O186 C171 1.258 . S
O187 Nd161 2.492 . S
O187 C171 1.239 . S
O188 Nd161 2.487 . S
O188 C178 1.241 . S
O189 Nd160 2.414 1_445 S
O189 Nd161 2.682 . S
O189 C178 1.273 . S
O190 Nd161 2.410 . S
O190 C179 1.251 1_455 S
O191 Nd160 2.424 1_545 S
O191 C179 1.268 . S
H192 C164 0.930 . S
H193 C165 0.929 . S
H194 C167 0.930 . S
H195 C168 0.929 . S
H196 C173 0.930 . S
H197 C174 0.929 . S
H198 C176 0.930 . S
H199 C177 0.929 . S
Nd200 C202 2.836 . S
Nd200 O220 2.500 . S
Nd200 O221 2.492 . S
Nd200 O222 2.487 . S
Nd200 O223 2.682 . S
Nd200 O224 2.410 . S
Nd200 O229 2.414 . S
Nd200 O231 2.424 . S
Nd201 C211 2.836 . S
Nd201 O223 2.414 . S
Nd201 O225 2.424 . S
Nd201 O226 2.500 . S
Nd201 O227 2.492 . S
Nd201 O228 2.487 . S
Nd201 O229 2.682 . S
Nd201 O230 2.410 . S
C202 Nd200 2.836 . S
C202 C203 1.498 . S
C202 O220 1.258 . S
C202 O221 1.239 . S
C203 C202 1.498 . S
C203 C204 1.366 . S
C203 C208 1.407 . S
C204 C203 1.366 . S
C204 C205 1.392 . S
C204 H232 0.930 . S
C205 C204 1.392 . S
C205 C206 1.398 . S
C205 H233 0.929 . S
C206 C205 1.398 . S
C206 C207 1.352 . S
C207 C206 1.352 . S
C207 C208 1.384 . S
C207 H234 0.930 . S
C208 C203 1.407 . S
C208 C207 1.384 . S
C208 H235 0.929 . S
C209 O222 1.241 . S
C209 O223 1.273 . S
C210 O224 1.251 . S
C210 O225 1.268 . S
C211 Nd201 2.836 . S
C211 C212 1.498 . S
C211 O226 1.258 . S
C211 O227 1.239 . S
C212 C211 1.498 . S
C212 C213 1.366 . S
C212 C217 1.407 . S
C213 C212 1.366 . S
C213 C214 1.392 . S
C213 H236 0.930 . S
C214 C213 1.392 . S
C214 C215 1.398 . S
C214 H237 0.929 . S
C215 C214 1.398 . S
C215 C216 1.352 . S
C216 C215 1.352 . S
C216 C217 1.384 . S
C216 H238 0.930 . S
C217 C212 1.407 . S
C217 C216 1.384 . S
C217 H239 0.929 . S
C218 O228 1.241 . S
C218 O229 1.273 . S
C219 O230 1.251 . S
C219 O231 1.268 . S
O220 Nd200 2.500 . S
O220 C202 1.258 . S
O221 Nd200 2.492 . S
O221 C202 1.239 . S
O222 Nd200 2.487 . S
O222 C209 1.241 . S
O223 Nd200 2.682 . S
O223 Nd201 2.414 . S
O223 C209 1.273 . S
O224 Nd200 2.410 . S
O224 C210 1.251 . S
O225 Nd201 2.424 . S
O225 C210 1.268 . S
O226 Nd201 2.500 . S
O226 C211 1.258 . S
O227 Nd201 2.492 . S
O227 C211 1.239 . S
O228 Nd201 2.487 . S
O228 C218 1.241 . S
O229 Nd200 2.414 . S
O229 Nd201 2.682 . S
O229 C218 1.273 . S
O230 Nd201 2.410 . S
O230 C219 1.251 . S
O231 Nd200 2.424 . S
O231 C219 1.268 . S
H232 C204 0.930 . S
H233 C205 0.929 . S
H234 C207 0.930 . S
H235 C208 0.929 . S
H236 C213 0.930 . S
H237 C214 0.929 . S
H238 C216 0.930 . S
H239 C217 0.929 . S
Nd240 C242 2.836 . S
Nd240 O260 2.500 . S
Nd240 O261 2.492 . S
Nd240 O262 2.487 1_556 S
Nd240 O263 2.682 1_556 S
Nd240 O264 2.391 1_545 S
Nd240 O269 2.414 1_545 S
Nd240 O271 2.424 1_556 S
Nd241 C251 2.836 . S
Nd241 O263 2.414 1_565 S
Nd241 O265 2.424 1_554 S
Nd241 O266 2.500 . S
Nd241 O267 2.492 . S
Nd241 O268 2.487 1_554 S
Nd241 O269 2.682 1_554 S
Nd241 O270 2.383 1_565 S
C242 Nd240 2.836 . S
C242 C243 1.498 . S
C242 O260 1.258 . S
C242 O261 1.239 . S
C243 C242 1.498 . S
C243 C244 1.366 . S
C243 C248 1.407 . S
C244 C243 1.366 . S
C244 C245 1.392 . S
C244 H272 0.930 . S
C245 C244 1.392 . S
C245 C246 1.398 . S
C245 H273 0.929 . S
C246 C245 1.398 . S
C246 C247 1.352 . S
C247 C246 1.352 . S
C247 C248 1.384 . S
C247 H274 0.930 . S
C248 C243 1.407 . S
C248 C247 1.384 . S
C248 H275 0.929 . S
C249 O262 1.241 . S
C249 O263 1.273 . S
C250 O264 1.277 . S
C250 O265 1.268 . S
C251 Nd241 2.836 . S
C251 C252 1.498 . S
C251 O266 1.258 . S
C251 O267 1.239 . S
C252 C251 1.498 . S
C252 C253 1.366 . S
C252 C257 1.407 . S
C253 C252 1.366 . S
C253 C254 1.392 . S
C253 H276 0.961 . S
C254 C253 1.392 . S
C254 C255 1.398 . S
C254 H277 0.929 . S
C255 C254 1.398 . S
C255 C256 1.352 . S
C256 C255 1.352 . S
C256 C257 1.384 . S
C256 H278 0.930 . S
C257 C252 1.407 . S
C257 C256 1.384 . S
C257 H279 0.929 . S
C258 O268 1.241 . S
C258 O269 1.273 . S
C259 O270 1.288 . S
C259 O271 1.268 . S
O260 Nd240 2.500 . S
O260 C242 1.258 . S
O261 Nd240 2.492 . S
O261 C242 1.239 . S
O262 Nd240 2.487 1_554 S
O262 C249 1.241 . S
O263 Nd240 2.682 1_554 S
O263 Nd241 2.414 1_545 S
O263 C249 1.273 . S
O264 Nd240 2.391 1_565 S
O264 C250 1.277 . S
O265 Nd241 2.424 1_556 S
O265 C250 1.268 . S
O266 Nd241 2.500 . S
O266 C251 1.258 . S
O267 Nd241 2.492 . S
O267 C251 1.239 . S
O268 Nd241 2.487 1_556 S
O268 C258 1.241 . S
O269 Nd240 2.414 1_565 S
O269 Nd241 2.682 1_556 S
O269 C258 1.273 . S
O270 Nd241 2.383 1_545 S
O270 C259 1.288 . S
O271 Nd240 2.424 1_554 S
O271 C259 1.268 . S
H272 C244 0.930 . S
H273 C245 0.929 . S
H274 C247 0.930 . S
H275 C248 0.929 . S
H276 C253 0.961 . S
H277 C254 0.929 . S
H278 C256 0.930 . S
H279 C257 0.929 . S
Nd280 C282 2.836 . S
Nd280 O300 2.500 . S
Nd280 O301 2.492 . S
Nd280 O302 2.487 . S
Nd280 O303 2.682 . S
Nd280 O304 2.410 . S
Nd280 O309 2.414 . S
Nd280 O311 2.424 . S
Nd281 C291 2.836 . S
Nd281 O303 2.414 . S
Nd281 O305 2.424 . S
Nd281 O306 2.500 . S
Nd281 O307 2.492 . S
Nd281 O308 2.487 . S
Nd281 O309 2.682 . S
Nd281 O310 2.410 . S
C282 Nd280 2.836 . S
C282 C283 1.498 . S
C282 O300 1.258 . S
C282 O301 1.239 . S
C283 C282 1.498 . S
C283 C284 1.366 . S
C283 C288 1.407 . S
C284 C283 1.366 . S
C284 C285 1.392 . S
C284 H312 0.930 . S
C285 C284 1.392 . S
C285 C286 1.398 . S
C285 H313 0.929 . S
C286 C285 1.398 . S
C286 C287 1.352 . S
C287 C286 1.352 . S
C287 C288 1.384 . S
C287 H314 0.930 . S
C288 C283 1.407 . S
C288 C287 1.384 . S
C288 H315 0.929 . S
C289 O302 1.241 . S
C289 O303 1.273 . S
C290 O304 1.251 . S
C290 O305 1.268 . S
C291 Nd281 2.836 . S
C291 C292 1.498 . S
C291 O306 1.258 . S
C291 O307 1.239 . S
C292 C291 1.498 . S
C292 C293 1.366 . S
C292 C297 1.407 . S
C293 C292 1.366 . S
C293 C294 1.392 . S
C293 H316 0.930 . S
C294 C293 1.392 . S
C294 C295 1.398 . S
C294 H317 0.929 . S
C295 C294 1.398 . S
C295 C296 1.352 . S
C296 C295 1.352 . S
C296 C297 1.384 . S
C296 H318 0.930 . S
C297 C292 1.407 . S
C297 C296 1.384 . S
C297 H319 0.929 . S
C298 O308 1.241 . S
C298 O309 1.273 . S
C299 O310 1.251 . S
C299 O311 1.268 . S
O300 Nd280 2.500 . S
O300 C282 1.258 . S
O301 Nd280 2.492 . S
O301 C282 1.239 . S
O302 Nd280 2.487 . S
O302 C289 1.241 . S
O303 Nd280 2.682 . S
O303 Nd281 2.414 . S
O303 C289 1.273 . S
O304 Nd280 2.410 . S
O304 C290 1.251 . S
O305 Nd281 2.424 . S
O305 C290 1.268 . S
O306 Nd281 2.500 . S
O306 C291 1.258 . S
O307 Nd281 2.492 . S
O307 C291 1.239 . S
O308 Nd281 2.487 . S
O308 C298 1.241 . S
O309 Nd280 2.414 . S
O309 Nd281 2.682 . S
O309 C298 1.273 . S
O310 Nd281 2.410 . S
O310 C299 1.251 . S
O311 Nd280 2.424 . S
O311 C299 1.268 . S
H312 C284 0.930 . S
H313 C285 0.929 . S
H314 C287 0.930 . S
H315 C288 0.929 . S
H316 C293 0.930 . S
H317 C294 0.929 . S
H318 C296 0.930 . S
H319 C297 0.929 . S
Nd320 C322 2.836 . S
Nd320 O340 2.500 . S
Nd320 O341 2.492 . S
Nd320 O342 2.487 1_554 S
Nd320 O343 2.682 1_554 S
Nd320 O344 2.410 . S
Nd320 O349 2.414 . S
Nd320 O351 2.424 1_554 S
Nd321 C331 2.836 . S
Nd321 O343 2.414 . S
Nd321 O345 2.424 1_556 S
Nd321 O346 2.500 . S
Nd321 O347 2.492 . S
Nd321 O348 2.487 1_556 S
Nd321 O349 2.682 1_556 S
Nd321 O350 2.410 . S
C322 Nd320 2.836 . S
C322 C323 1.498 . S
C322 O340 1.258 . S
C322 O341 1.239 . S
C323 C322 1.498 . S
C323 C324 1.366 . S
C323 C328 1.407 . S
C324 C323 1.366 . S
C324 C325 1.392 . S
C324 H352 0.930 . S
C325 C324 1.392 . S
C325 C326 1.398 . S
C325 H353 0.929 . S
C326 C325 1.398 . S
C326 C327 1.352 . S
C327 C326 1.352 . S
C327 C328 1.384 . S
C327 H354 0.930 . S
C328 C323 1.407 . S
C328 C327 1.384 . S
C328 H355 0.929 . S
C329 O342 1.241 . S
C329 O343 1.273 . S
C330 O344 1.251 . S
C330 O345 1.268 . S
C331 Nd321 2.836 . S
C331 C332 1.498 . S
C331 O346 1.258 . S
C331 O347 1.239 . S
C332 C331 1.498 . S
C332 C333 1.366 . S
C332 C337 1.407 . S
C333 C332 1.366 . S
C333 C334 1.392 . S
C333 H356 0.930 . S
C334 C333 1.392 . S
C334 C335 1.398 . S
C334 H357 0.929 . S
C335 C334 1.398 . S
C335 C336 1.352 . S
C336 C335 1.352 . S
C336 C337 1.384 . S
C336 H358 0.930 . S
C337 C332 1.407 . S
C337 C336 1.384 . S
C337 H359 0.929 . S
C338 O348 1.241 . S
C338 O349 1.273 . S
C339 O350 1.251 . S
C339 O351 1.268 . S
O340 Nd320 2.500 . S
O340 C322 1.258 . S
O341 Nd320 2.492 . S
O341 C322 1.239 . S
O342 Nd320 2.487 1_556 S
O342 C329 1.241 . S
O343 Nd320 2.682 1_556 S
O343 Nd321 2.414 . S
O343 C329 1.273 . S
O344 Nd320 2.410 . S
O344 C330 1.251 . S
O345 Nd321 2.424 1_554 S
O345 C330 1.268 . S
O346 Nd321 2.500 . S
O346 C331 1.258 . S
O347 Nd321 2.492 . S
O347 C331 1.239 . S
O348 Nd321 2.487 1_554 S
O348 C338 1.241 . S
O349 Nd320 2.414 . S
O349 Nd321 2.682 1_554 S
O349 C338 1.273 . S
O350 Nd321 2.410 . S
O350 C339 1.251 . S
O351 Nd320 2.424 1_556 S
O351 C339 1.268 . S
H352 C324 0.930 . S
H353 C325 0.929 . S
H354 C327 0.930 . S
H355 C328 0.929 . S
H356 C333 0.930 . S
H357 C334 0.929 . S
H358 C336 0.930 . S
H359 C337 0.929 . S
Nd360 C362 2.836 . S
Nd360 O380 2.500 . S
Nd360 O381 2.492 . S
Nd360 O382 2.487 . S
Nd360 O383 2.682 . S
Nd360 O384 2.410 . S
Nd360 O389 2.414 . S
Nd360 O391 2.424 . S
Nd361 C371 2.836 . S
Nd361 O383 2.414 . S
Nd361 O385 2.424 . S
Nd361 O386 2.500 . S
Nd361 O387 2.492 . S
Nd361 O388 2.487 . S
Nd361 O389 2.682 . S
Nd361 O390 2.410 . S
C362 Nd360 2.836 . S
C362 C363 1.498 . S
C362 O380 1.258 . S
C362 O381 1.239 . S
C363 C362 1.498 . S
C363 C364 1.366 . S
C363 C368 1.407 . S
C364 C363 1.366 . S
C364 C365 1.392 . S
C364 H392 0.930 . S
C365 C364 1.392 . S
C365 C366 1.398 . S
C365 H393 0.929 . S
C366 C365 1.398 . S
C366 C367 1.352 . S
C367 C366 1.352 . S
C367 C368 1.384 . S
C367 H394 0.930 . S
C368 C363 1.407 . S
C368 C367 1.384 . S
C368 H395 0.929 . S
C369 O382 1.241 . S
C369 O383 1.273 . S
C370 O384 1.251 . S
C370 O385 1.268 . S
C371 Nd361 2.836 . S
C371 C372 1.498 . S
C371 O386 1.258 . S
C371 O387 1.239 . S
C372 C371 1.498 . S
C372 C373 1.366 . S
C372 C377 1.407 . S
C373 C372 1.366 . S
C373 C374 1.392 . S
C373 H396 0.930 . S
C374 C373 1.392 . S
C374 C375 1.398 . S
C374 H397 0.929 . S
C375 C374 1.398 . S
C375 C376 1.352 . S
C376 C375 1.352 . S
C376 C377 1.384 . S
C376 H398 0.930 . S
C377 C372 1.407 . S
C377 C376 1.384 . S
C377 H399 0.929 . S
C378 O388 1.241 . S
C378 O389 1.273 . S
C379 O390 1.251 . S
C379 O391 1.268 . S
O380 Nd360 2.500 . S
O380 C362 1.258 . S
O381 Nd360 2.492 . S
O381 C362 1.239 . S
O382 Nd360 2.487 . S
O382 C369 1.241 . S
O383 Nd360 2.682 . S
O383 Nd361 2.414 . S
O383 C369 1.273 . S
O384 Nd360 2.410 . S
O384 C370 1.251 . S
O385 Nd361 2.424 . S
O385 C370 1.268 . S
O386 Nd361 2.500 . S
O386 C371 1.258 . S
O387 Nd361 2.492 . S
O387 C371 1.239 . S
O388 Nd361 2.487 . S
O388 C378 1.241 . S
O389 Nd360 2.414 . S
O389 Nd361 2.682 . S
O389 C378 1.273 . S
O390 Nd361 2.410 . S
O390 C379 1.251 . S
O391 Nd360 2.424 . S
O391 C379 1.268 . S
H392 C364 0.930 . S
H393 C365 0.929 . S
H394 C367 0.930 . S
H395 C368 0.929 . S
H396 C373 0.930 . S
H397 C374 0.929 . S
H398 C376 0.930 . S
H399 C377 0.929 . S
Nd400 C402 2.836 . S
Nd400 O420 2.500 . S
Nd400 O421 2.492 . S
Nd400 O422 2.487 . S
Nd400 O423 2.682 . S
Nd400 O424 2.410 . S
Nd400 O429 2.414 1_455 S
Nd400 O431 2.424 1_455 S
Nd401 C411 2.836 . S
Nd401 O423 2.414 1_655 S
Nd401 O425 2.424 1_655 S
Nd401 O426 2.500 . S
Nd401 O427 2.492 . S
Nd401 O428 2.487 . S
Nd401 O429 2.682 . S
Nd401 O430 2.410 . S
C402 Nd400 2.836 . S
C402 C403 1.498 . S
C402 O420 1.258 . S
C402 O421 1.239 . S
C403 C402 1.498 . S
C403 C404 1.366 . S
C403 C408 1.407 . S
C404 C403 1.366 . S
C404 C405 1.392 . S
C404 H432 0.930 . S
C405 C404 1.392 . S
C405 C406 1.398 . S
C405 H433 0.929 . S
C406 C405 1.398 . S
C406 C407 1.352 . S
C407 C406 1.352 . S
C407 C408 1.384 . S
C407 H434 0.930 . S
C408 C403 1.407 . S
C408 C407 1.384 . S
C408 H435 0.929 . S
C409 O422 1.241 . S
C409 O423 1.273 . S
C410 O424 1.251 . S
C410 O425 1.268 . S
C411 Nd401 2.836 . S
C411 C412 1.498 . S
C411 O426 1.258 . S
C411 O427 1.239 . S
C412 C411 1.498 . S
C412 C413 1.366 . S
C412 C417 1.407 . S
C413 C412 1.366 . S
C413 C414 1.392 . S
C413 H436 0.930 . S
C414 C413 1.392 . S
C414 C415 1.398 . S
C414 H437 0.929 . S
C415 C414 1.398 . S
C415 C416 1.352 . S
C416 C415 1.352 . S
C416 C417 1.384 . S
C416 H438 0.930 . S
C417 C412 1.407 . S
C417 C416 1.384 . S
C417 H439 0.929 . S
C418 O428 1.241 . S
C418 O429 1.273 . S
C419 O430 1.251 . S
C419 O431 1.268 . S
O420 Nd400 2.500 . S
O420 C402 1.258 . S
O421 Nd400 2.492 . S
O421 C402 1.239 . S
O422 Nd400 2.487 . S
O422 C409 1.241 . S
O423 Nd400 2.682 . S
O423 Nd401 2.414 1_455 S
O423 C409 1.273 . S
O424 Nd400 2.410 . S
O424 C410 1.251 . S
O425 Nd401 2.424 1_455 S
O425 C410 1.268 . S
O426 Nd401 2.500 . S
O426 C411 1.258 . S
O427 Nd401 2.492 . S
O427 C411 1.239 . S
O428 Nd401 2.487 . S
O428 C418 1.241 . S
O429 Nd400 2.414 1_655 S
O429 Nd401 2.682 . S
O429 C418 1.273 . S
O430 Nd401 2.410 . S
O430 C419 1.251 . S
O431 Nd400 2.424 1_655 S
O431 C419 1.268 . S
H432 C404 0.930 . S
H433 C405 0.929 . S
H434 C407 0.930 . S
H435 C408 0.929 . S
H436 C413 0.930 . S
H437 C414 0.929 . S
H438 C416 0.930 . S
H439 C417 0.929 . S
Nd440 C442 2.836 . S
Nd440 O460 2.500 . S
Nd440 O461 2.492 . S
Nd440 O462 2.487 . S
Nd440 O463 2.682 . S
Nd440 O464 2.410 . S
Nd440 O469 2.414 . S
Nd440 O471 2.424 . S
Nd441 C451 2.836 . S
Nd441 O463 2.414 . S
Nd441 O465 2.424 . S
Nd441 O466 2.500 . S
Nd441 O467 2.492 . S
Nd441 O468 2.487 . S
Nd441 O469 2.682 . S
Nd441 O470 2.410 . S
C442 Nd440 2.836 . S
C442 C443 1.498 . S
C442 O460 1.258 . S
C442 O461 1.239 . S
C443 C442 1.498 . S
C443 C444 1.366 . S
C443 C448 1.407 . S
C444 C443 1.366 . S
C444 C445 1.392 . S
C444 H472 0.930 . S
C445 C444 1.392 . S
C445 C446 1.398 . S
C445 H473 0.929 . S
C446 C445 1.398 . S
C446 C447 1.352 . S
C447 C446 1.352 . S
C447 C448 1.384 . S
C447 H474 0.930 . S
C448 C443 1.407 . S
C448 C447 1.384 . S
C448 H475 0.929 . S
C449 O462 1.241 . S
C449 O463 1.273 . S
C450 O464 1.251 . S
C450 O465 1.268 . S
C451 Nd441 2.836 . S
C451 C452 1.498 . S
C451 O466 1.258 . S
C451 O467 1.239 . S
C452 C451 1.498 . S
C452 C453 1.366 . S
C452 C457 1.407 . S
C453 C452 1.366 . S
C453 C454 1.392 . S
C453 H476 0.930 . S
C454 C453 1.392 . S
C454 C455 1.398 . S
C454 H477 0.929 . S
C455 C454 1.398 . S
C455 C456 1.352 . S
C456 C455 1.352 . S
C456 C457 1.384 . S
C456 H478 0.930 . S
C457 C452 1.407 . S
C457 C456 1.384 . S
C457 H479 0.929 . S
C458 O468 1.241 . S
C458 O469 1.273 . S
C459 O470 1.251 . S
C459 O471 1.268 . S
O460 Nd440 2.500 . S
O460 C442 1.258 . S
O461 Nd440 2.492 . S
O461 C442 1.239 . S
O462 Nd440 2.487 . S
O462 C449 1.241 . S
O463 Nd440 2.682 . S
O463 Nd441 2.414 . S
O463 C449 1.273 . S
O464 Nd440 2.410 . S
O464 C450 1.251 . S
O465 Nd441 2.424 . S
O465 C450 1.268 . S
O466 Nd441 2.500 . S
O466 C451 1.258 . S
O467 Nd441 2.492 . S
O467 C451 1.239 . S
O468 Nd441 2.487 . S
O468 C458 1.241 . S
O469 Nd440 2.414 . S
O469 Nd441 2.682 . S
O469 C458 1.273 . S
O470 Nd441 2.410 . S
O470 C459 1.251 . S
O471 Nd440 2.424 . S
O471 C459 1.268 . S
H472 C444 0.930 . S
H473 C445 0.929 . S
H474 C447 0.930 . S
H475 C448 0.929 . S
H476 C453 0.930 . S
H477 C454 0.929 . S
H478 C456 0.930 . S
H479 C457 0.929 . S
Nd480 C482 2.836 . S
Nd480 O500 2.500 . S
Nd480 O501 2.492 . S
Nd480 O502 2.487 . S
Nd480 O503 2.682 . S
Nd480 O504 2.410 . S
Nd480 O509 2.414 . S
Nd480 O511 2.424 . S
Nd481 C491 2.836 . S
Nd481 O503 2.414 . S
Nd481 O505 2.424 . S
Nd481 O506 2.500 . S
Nd481 O507 2.492 . S
Nd481 O508 2.487 . S
Nd481 O509 2.682 . S
Nd481 O510 2.410 . S
C482 Nd480 2.836 . S
C482 C483 1.498 . S
C482 O500 1.258 . S
C482 O501 1.239 . S
C483 C482 1.498 . S
C483 C484 1.366 . S
C483 C488 1.407 . S
C484 C483 1.366 . S
C484 C485 1.392 . S
C484 H512 0.930 . S
C485 C484 1.392 . S
C485 C486 1.398 . S
C485 H513 0.929 . S
C486 C485 1.398 . S
C486 C487 1.352 . S
C487 C486 1.352 . S
C487 C488 1.384 . S
C487 H514 0.930 . S
C488 C483 1.407 . S
C488 C487 1.384 . S
C488 H515 0.929 . S
C489 O502 1.241 . S
C489 O503 1.273 . S
C490 O504 1.251 . S
C490 O505 1.268 . S
C491 Nd481 2.836 . S
C491 C492 1.498 . S
C491 O506 1.258 . S
C491 O507 1.239 . S
C492 C491 1.498 . S
C492 C493 1.366 . S
C492 C497 1.407 . S
C493 C492 1.366 . S
C493 C494 1.392 . S
C493 H516 0.930 . S
C494 C493 1.392 . S
C494 C495 1.398 . S
C494 H517 0.929 . S
C495 C494 1.398 . S
C495 C496 1.352 . S
C496 C495 1.352 . S
C496 C497 1.384 . S
C496 H518 0.930 . S
C497 C492 1.407 . S
C497 C496 1.384 . S
C497 H519 0.929 . S
C498 O508 1.241 . S
C498 O509 1.273 . S
C499 O510 1.251 . S
C499 O511 1.268 . S
O500 Nd480 2.500 . S
O500 C482 1.258 . S
O501 Nd480 2.492 . S
O501 C482 1.239 . S
O502 Nd480 2.487 . S
O502 C489 1.241 . S
O503 Nd480 2.682 . S
O503 Nd481 2.414 . S
O503 C489 1.273 . S
O504 Nd480 2.410 . S
O504 C490 1.251 . S
O505 Nd481 2.424 . S
O505 C490 1.268 . S
O506 Nd481 2.500 . S
O506 C491 1.258 . S
O507 Nd481 2.492 . S
O507 C491 1.239 . S
O508 Nd481 2.487 . S
O508 C498 1.241 . S
O509 Nd480 2.414 . S
O509 Nd481 2.682 . S
O509 C498 1.273 . S
O510 Nd481 2.410 . S
O510 C499 1.251 . S
O511 Nd480 2.424 . S
O511 C499 1.268 . S
H512 C484 0.930 . S
H513 C485 0.929 . S
H514 C487 0.930 . S
H515 C488 0.929 . S
H516 C493 0.930 . S
H517 C494 0.929 . S
H518 C496 0.930 . S
H519 C497 0.929 . S
Nd520 C522 2.836 . S
Nd520 O540 2.500 . S
Nd520 O541 2.492 . S
Nd520 O542 2.487 . S
Nd520 O543 2.682 . S
Nd520 O544 2.410 . S
Nd520 O549 2.414 . S
Nd520 O551 2.424 . S
Nd521 C531 2.836 . S
Nd521 O543 2.414 . S
Nd521 O545 2.424 . S
Nd521 O546 2.500 . S
Nd521 O547 2.492 . S
Nd521 O548 2.487 . S
Nd521 O549 2.682 . S
Nd521 O550 2.410 . S
C522 Nd520 2.836 . S
C522 C523 1.498 . S
C522 O540 1.258 . S
C522 O541 1.239 . S
C523 C522 1.498 . S
C523 C524 1.366 . S
C523 C528 1.407 . S
C524 C523 1.366 . S
C524 C525 1.392 . S
C524 H552 0.930 . S
C525 C524 1.392 . S
C525 C526 1.398 . S
C525 H553 0.929 . S
C526 C525 1.398 . S
C526 C527 1.352 . S
C527 C526 1.352 . S
C527 C528 1.384 . S
C527 H554 0.930 . S
C528 C523 1.407 . S
C528 C527 1.384 . S
C528 H555 0.929 . S
C529 O542 1.241 . S
C529 O543 1.273 . S
C530 O544 1.251 . S
C530 O545 1.268 . S
C531 Nd521 2.836 . S
C531 C532 1.498 . S
C531 O546 1.258 . S
C531 O547 1.239 . S
C532 C531 1.498 . S
C532 C533 1.366 . S
C532 C537 1.407 . S
C533 C532 1.366 . S
C533 C534 1.392 . S
C533 H556 0.930 . S
C534 C533 1.392 . S
C534 C535 1.398 . S
C534 H557 0.929 . S
C535 C534 1.398 . S
C535 C536 1.352 . S
C536 C535 1.352 . S
C536 C537 1.384 . S
C536 H558 0.930 . S
C537 C532 1.407 . S
C537 C536 1.384 . S
C537 H559 0.929 . S
C538 O548 1.241 . S
C538 O549 1.273 . S
C539 O550 1.251 . S
C539 O551 1.268 . S
O540 Nd520 2.500 . S
O540 C522 1.258 . S
O541 Nd520 2.492 . S
O541 C522 1.239 . S
O542 Nd520 2.487 . S
O542 C529 1.241 . S
O543 Nd520 2.682 . S
O543 Nd521 2.414 . S
O543 C529 1.273 . S
O544 Nd520 2.410 . S
O544 C530 1.251 . S
O545 Nd521 2.424 . S
O545 C530 1.268 . S
O546 Nd521 2.500 . S
O546 C531 1.258 . S
O547 Nd521 2.492 . S
O547 C531 1.239 . S
O548 Nd521 2.487 . S
O548 C538 1.241 . S
O549 Nd520 2.414 . S
O549 Nd521 2.682 . S
O549 C538 1.273 . S
O550 Nd521 2.410 . S
O550 C539 1.251 . S
O551 Nd520 2.424 . S
O551 C539 1.268 . S
H552 C524 0.930 . S
H553 C525 0.929 . S
H554 C527 0.930 . S
H555 C528 0.929 . S
H556 C533 0.930 . S
H557 C534 0.929 . S
H558 C536 0.930 . S
H559 C537 0.929 . S
Nd560 C562 2.836 . S
Nd560 O580 2.500 . S
Nd560 O581 2.492 . S
Nd560 O582 2.487 . S
Nd560 O583 2.682 . S
Nd560 O584 2.410 . S
Nd560 O589 2.414 . S
Nd560 O591 2.424 . S
Nd561 C571 2.836 . S
Nd561 O583 2.414 . S
Nd561 O585 2.424 . S
Nd561 O586 2.500 . S
Nd561 O587 2.492 . S
Nd561 O588 2.487 . S
Nd561 O589 2.682 . S
Nd561 O590 2.410 . S
C562 Nd560 2.836 . S
C562 C563 1.498 . S
C562 O580 1.258 . S
C562 O581 1.239 . S
C563 C562 1.498 . S
C563 C564 1.366 . S
C563 C568 1.407 . S
C564 C563 1.366 . S
C564 C565 1.392 . S
C564 H592 0.930 . S
C565 C564 1.392 . S
C565 C566 1.398 . S
C565 H593 0.929 . S
C566 C565 1.398 . S
C566 C567 1.352 . S
C567 C566 1.352 . S
C567 C568 1.384 . S
C567 H594 0.930 . S
C568 C563 1.407 . S
C568 C567 1.384 . S
C568 H595 0.929 . S
C569 O582 1.241 . S
C569 O583 1.273 . S
C570 O584 1.251 . S
C570 O585 1.268 . S
C571 Nd561 2.836 . S
C571 C572 1.498 . S
C571 O586 1.258 . S
C571 O587 1.239 . S
C572 C571 1.498 . S
C572 C573 1.366 . S
C572 C577 1.407 . S
C573 C572 1.366 . S
C573 C574 1.392 . S
C573 H596 0.930 . S
C574 C573 1.392 . S
C574 C575 1.398 . S
C574 H597 0.929 . S
C575 C574 1.398 . S
C575 C576 1.352 . S
C576 C575 1.352 . S
C576 C577 1.384 . S
C576 H598 0.930 . S
C577 C572 1.407 . S
C577 C576 1.384 . S
C577 H599 0.929 . S
C578 O588 1.241 . S
C578 O589 1.273 . S
C579 O590 1.251 . S
C579 O591 1.268 . S
O580 Nd560 2.500 . S
O580 C562 1.258 . S
O581 Nd560 2.492 . S
O581 C562 1.239 . S
O582 Nd560 2.487 . S
O582 C569 1.241 . S
O583 Nd560 2.682 . S
O583 Nd561 2.414 . S
O583 C569 1.273 . S
O584 Nd560 2.410 . S
O584 C570 1.251 . S
O585 Nd561 2.424 . S
O585 C570 1.268 . S
O586 Nd561 2.500 . S
O586 C571 1.258 . S
O587 Nd561 2.492 . S
O587 C571 1.239 . S
O588 Nd561 2.487 . S
O588 C578 1.241 . S
O589 Nd560 2.414 . S
O589 Nd561 2.682 . S
O589 C578 1.273 . S
O590 Nd561 2.410 . S
O590 C579 1.251 . S
O591 Nd560 2.424 . S
O591 C579 1.268 . S
H592 C564 0.930 . S
H593 C565 0.929 . S
H594 C567 0.930 . S
H595 C568 0.929 . S
H596 C573 0.930 . S
H597 C574 0.929 . S
H598 C576 0.930 . S
H599 C577 0.929 . S
Nd600 C602 2.836 . S
Nd600 O620 2.500 . S
Nd600 O621 2.492 . S
Nd600 O622 2.487 . S
Nd600 O623 2.682 . S
Nd600 O624 2.410 1_556 S
Nd600 O629 2.414 1_656 S
Nd600 O631 2.424 1_655 S
Nd601 C611 2.836 . S
Nd601 O623 2.414 1_454 S
Nd601 O625 2.424 1_455 S
Nd601 O626 2.500 . S
Nd601 O627 2.492 . S
Nd601 O628 2.487 . S
Nd601 O629 2.682 . S
Nd601 O630 2.382 1_554 S
C602 Nd600 2.836 . S
C602 C603 1.498 . S
C602 O620 1.258 . S
C602 O621 1.239 . S
C603 C602 1.498 . S
C603 C604 1.366 . S
C603 C608 1.407 . S
C604 C603 1.366 . S
C604 C605 1.392 . S
C604 H632 0.930 . S
C605 C604 1.392 . S
C605 C606 1.398 . S
C605 H633 0.929 . S
C606 C605 1.398 . S
C606 C607 1.352 . S
C607 C606 1.352 . S
C607 C608 1.384 . S
C607 H634 0.930 . S
C608 C603 1.407 . S
C608 C607 1.384 . S
C608 H635 0.929 . S
C609 O622 1.241 . S
C609 O623 1.273 . S
C610 O624 1.251 . S
C610 O625 1.268 . S
C611 Nd601 2.836 . S
C611 C612 1.498 . S
C611 O626 1.258 . S
C611 O627 1.239 . S
C612 C611 1.498 . S
C612 C613 1.366 . S
C612 C617 1.407 . S
C613 C612 1.366 . S
C613 C614 1.392 . S
C613 H636 0.930 . S
C614 C613 1.392 . S
C614 C615 1.398 . S
C614 H637 0.929 . S
C615 C614 1.398 . S
C615 C616 1.352 . S
C616 C615 1.352 . S
C616 C617 1.384 . S
C616 H638 0.930 . S
C617 C612 1.407 . S
C617 C616 1.384 . S
C617 H639 0.929 . S
C618 O628 1.241 . S
C618 O629 1.273 . S
C619 O630 1.292 . S
C619 O631 1.268 . S
O620 Nd600 2.500 . S
O620 C602 1.258 . S
O621 Nd600 2.492 . S
O621 C602 1.239 . S
O622 Nd600 2.487 . S
O622 C609 1.241 . S
O623 Nd600 2.682 . S
O623 Nd601 2.414 1_656 S
O623 C609 1.273 . S
O624 Nd600 2.410 1_554 S
O624 C610 1.251 . S
O625 Nd601 2.424 1_655 S
O625 C610 1.268 . S
O626 Nd601 2.500 . S
O626 C611 1.258 . S
O627 Nd601 2.492 . S
O627 C611 1.239 . S
O628 Nd601 2.487 . S
O628 C618 1.241 . S
O629 Nd600 2.414 1_454 S
O629 Nd601 2.682 . S
O629 C618 1.273 . S
O630 Nd601 2.382 1_556 S
O630 C619 1.292 . S
O631 Nd600 2.424 1_455 S
O631 C619 1.268 . S
H632 C604 0.930 . S
H633 C605 0.929 . S
H634 C607 0.930 . S
H635 C608 0.929 . S
H636 C613 0.930 . S
H637 C614 0.929 . S
H638 C616 0.930 . S
H639 C617 0.929 . S
H640 C648 0.929 . S
H641 C650 0.930 . S
H642 C652 0.930 . S
H643 C655 0.929 . S
H644 C658 0.930 . S
H645 C660 0.960 . S
H646 C660 0.960 . S
H647 C660 0.960 . S
C648 H640 0.929 . S
C648 C649 1.377 . S
C648 C650 1.384 . S
C649 C648 1.377 . S
C649 C655 1.390 . S
C650 H641 0.930 . S
C650 C648 1.384 . S
C650 C651 1.372 . S
C651 C650 1.372 . S
C651 C652 1.400 . S
C651 C656 1.490 . S
C652 H642 0.930 . S
C652 C651 1.400 . S
C652 C655 1.386 . S
H653 C669 0.930 . S
H654 C670 0.931 . S
C655 H643 0.929 . S
C655 C649 1.390 . S
C655 C652 1.386 . S
C656 C651 1.490 . S
C656 C658 1.395 . S
C656 C659 1.403 . S
H657 C663 0.930 . S
C658 H644 0.930 . S
C658 C656 1.395 . S
C658 C661 1.403 . S
C659 C656 1.403 . S
C659 C660 1.524 . S
C659 C663 1.400 . S
C660 H645 0.960 . S
C660 H646 0.960 . S
C660 H647 0.960 . S
C660 C659 1.524 . S
C661 C658 1.403 . S
C661 C662 1.392 . S
C661 C665 1.495 . S
C662 C661 1.392 . S
C662 C663 1.385 . S
C662 C664 1.478 . S
C663 H657 0.930 . S
C663 C659 1.400 . S
C663 C662 1.385 . S
C664 C662 1.478 . S
C664 C666 1.381 . S
C664 C670 1.383 . S
C665 C661 1.495 . S
C665 H671 0.959 . S
C665 H672 0.961 . S
C665 H673 0.960 . S
C666 C664 1.381 . S
C666 C667 1.394 . S
C666 H674 0.930 . S
C667 C666 1.394 . S
C667 C668 1.383 . S
C667 H675 0.939 . S
C668 C667 1.383 . S
C668 C669 1.377 . S
C669 H653 0.930 . S
C669 C668 1.377 . S
C669 C670 1.379 . S
C670 H654 0.931 . S
C670 C664 1.383 . S
C670 C669 1.379 . S
H671 C665 0.959 . S
H672 C665 0.961 . S
H673 C665 0.960 . S
H674 C666 0.930 . S
H675 C667 0.939 . S
H676 C684 0.929 . S
H677 C686 0.930 . S
H678 C688 0.930 . S
H679 C691 0.929 . S
H680 C694 0.930 . S
H681 C696 0.960 . S
H682 C696 0.960 . S
H683 C696 0.960 . S
C684 H676 0.929 . S
C684 C685 1.377 . S
C684 C686 1.384 . S
C685 C684 1.377 . S
C685 C691 1.390 . S
C686 H677 0.930 . S
C686 C684 1.384 . S
C686 C687 1.372 . S
C687 C686 1.372 . S
C687 C688 1.400 . S
C687 C692 1.490 . S
C688 H678 0.930 . S
C688 C687 1.400 . S
C688 C691 1.386 . S
H689 C705 0.930 . S
H690 C706 0.931 . S
C691 H679 0.929 . S
C691 C685 1.390 . S
C691 C688 1.386 . S
C692 C687 1.490 . S
C692 C694 1.395 . S
C692 C695 1.403 . S
H693 C699 0.930 . S
C694 H680 0.930 . S
C694 C692 1.395 . S
C694 C697 1.403 . S
C695 C692 1.403 . S
C695 C696 1.524 . S
C695 C699 1.400 . S
C696 H681 0.960 . S
C696 H682 0.960 . S
C696 H683 0.960 . S
C696 C695 1.524 . S
C697 C694 1.403 . S
C697 C698 1.392 . S
C697 C701 1.495 . S
C698 C697 1.392 . S
C698 C699 1.385 . S
C698 C700 1.478 . S
C699 H693 0.930 . S
C699 C695 1.400 . S
C699 C698 1.385 . S
C700 C698 1.478 . S
C700 C702 1.381 . S
C700 C706 1.383 . S
C701 C697 1.495 . S
C701 H707 0.959 . S
C701 H708 0.961 . S
C701 H709 0.960 . S
C702 C700 1.381 . S
C702 C703 1.394 . S
C702 H710 0.930 . S
C703 C702 1.394 . S
C703 C704 1.383 . S
C703 H711 0.929 . S
C704 C703 1.383 . S
C704 C705 1.377 . S
C705 H689 0.930 . S
C705 C704 1.377 . S
C705 C706 1.379 . S
C706 H690 0.931 . S
C706 C700 1.383 . S
C706 C705 1.379 . S
H707 C701 0.959 . S
H708 C701 0.961 . S
H709 C701 0.960 . S
H710 C702 0.930 . S
H711 C703 0.929 . S
H712 C720 0.929 . S
H713 C722 0.930 . S
H714 C724 0.930 . S
H715 C727 0.929 . S
H716 C730 0.930 . S
H717 C732 0.960 . S
H718 C732 0.960 . S
H719 C732 0.960 . S
C720 H712 0.929 . S
C720 C721 1.377 . S
C720 C722 1.384 . S
C721 C720 1.377 . S
C721 C727 1.390 . S
C722 H713 0.930 . S
C722 C720 1.384 . S
C722 C723 1.372 . S
C723 C722 1.372 . S
C723 C724 1.400 . S
C723 C728 1.490 . S
C724 H714 0.930 . S
C724 C723 1.400 . S
C724 C727 1.386 . S
H725 C741 0.930 . S
H726 C742 0.931 . S
C727 H715 0.929 . S
C727 C721 1.390 . S
C727 C724 1.386 . S
C728 C723 1.490 . S
C728 C730 1.395 . S
C728 C731 1.403 . S
H729 C735 0.930 . S
C730 H716 0.930 . S
C730 C728 1.395 . S
C730 C733 1.403 . S
C731 C728 1.403 . S
C731 C732 1.524 . S
C731 C735 1.400 . S
C732 H717 0.960 . S
C732 H718 0.960 . S
C732 H719 0.960 . S
C732 C731 1.524 . S
C733 C730 1.403 . S
C733 C734 1.392 . S
C733 C737 1.495 . S
C734 C733 1.392 . S
C734 C735 1.385 . S
C734 C736 1.478 . S
C735 H729 0.930 . S
C735 C731 1.400 . S
C735 C734 1.385 . S
C736 C734 1.478 . S
C736 C738 1.381 . S
C736 C742 1.383 . S
C737 C733 1.495 . S
C737 H743 0.959 . S
C737 H744 0.961 . S
C737 H745 0.960 . S
C738 C736 1.381 . S
C738 C739 1.394 . S
C738 H746 0.930 . S
C739 C738 1.394 . S
C739 C740 1.383 . S
C739 H747 0.929 . S
C740 C739 1.383 . S
C740 C741 1.377 . S
C741 H725 0.930 . S
C741 C740 1.377 . S
C741 C742 1.379 . S
C742 H726 0.931 . S
C742 C736 1.383 . S
C742 C741 1.379 . S
H743 C737 0.959 . S
H744 C737 0.961 . S
H745 C737 0.960 . S
H746 C738 0.930 . S
H747 C739 0.929 . S
H748 C756 0.929 . S
H749 C758 0.930 . S
H750 C760 0.930 . S
H751 C763 0.929 . S
H752 C766 0.930 . S
H753 C768 0.960 . S
H754 C768 0.960 . S
H755 C768 0.960 . S
C756 H748 0.929 . S
C756 C757 1.377 . S
C756 C758 1.384 . S
C757 C756 1.377 . S
C757 C763 1.390 . S
C758 H749 0.930 . S
C758 C756 1.384 . S
C758 C759 1.372 . S
C759 C758 1.372 . S
C759 C760 1.400 . S
C759 C764 1.490 . S
C760 H750 0.930 . S
C760 C759 1.400 . S
C760 C763 1.386 . S
H761 C777 0.930 . S
H762 C778 0.931 . S
C763 H751 0.929 . S
C763 C757 1.390 . S
C763 C760 1.386 . S
C764 C759 1.490 . S
C764 C766 1.395 . S
C764 C767 1.403 . S
H765 C771 0.930 . S
C766 H752 0.930 . S
C766 C764 1.395 . S
C766 C769 1.403 . S
C767 C764 1.403 . S
C767 C768 1.524 . S
C767 C771 1.400 . S
C768 H753 0.960 . S
C768 H754 0.960 . S
C768 H755 0.960 . S
C768 C767 1.524 . S
C769 C766 1.403 . S
C769 C770 1.392 . S
C769 C773 1.495 . S
C770 C769 1.392 . S
C770 C771 1.385 . S
C770 C772 1.478 . S
C771 H765 0.930 . S
C771 C767 1.400 . S
C771 C770 1.385 . S
C772 C770 1.478 . S
C772 C774 1.381 . S
C772 C778 1.383 . S
C773 C769 1.495 . S
C773 H779 0.959 . S
C773 H780 0.961 . S
C773 H781 0.960 . S
C774 C772 1.381 . S
C774 C775 1.394 . S
C774 H782 0.930 . S
C775 C774 1.394 . S
C775 C776 1.383 . S
C775 H783 0.929 . S
C776 C775 1.383 . S
C776 C777 1.377 . S
C777 H761 0.930 . S
C777 C776 1.377 . S
C777 C778 1.379 . S
C778 H762 0.931 . S
C778 C772 1.383 . S
C778 C777 1.379 . S
H779 C773 0.959 . S
H780 C773 0.961 . S
H781 C773 0.960 . S
H782 C774 0.930 . S
H783 C775 0.929 . S
H784 C792 0.929 . S
H785 C794 0.930 . S
H786 C796 0.930 . S
H787 C799 0.929 . S
H788 C802 0.930 . S
H789 C804 0.960 . S
H790 C804 0.960 . S
H791 C804 0.960 . S
C792 H784 0.929 . S
C792 C793 1.377 . S
C792 C794 1.384 . S
C793 C792 1.377 . S
C793 C799 1.390 . S
C794 H785 0.930 . S
C794 C792 1.384 . S
C794 C795 1.372 . S
C795 C794 1.372 . S
C795 C796 1.400 . S
C795 C800 1.490 . S
C796 H786 0.930 . S
C796 C795 1.400 . S
C796 C799 1.386 . S
H797 C813 0.930 . S
H798 C814 0.931 . S
C799 H787 0.929 . S
C799 C793 1.390 . S
C799 C796 1.386 . S
C800 C795 1.490 . S
C800 C802 1.395 . S
C800 C803 1.403 . S
H801 C807 0.930 . S
C802 H788 0.930 . S
C802 C800 1.395 . S
C802 C805 1.403 . S
C803 C800 1.403 . S
C803 C804 1.524 . S
C803 C807 1.400 . S
C804 H789 0.960 . S
C804 H790 0.960 . S
C804 H791 0.960 . S
C804 C803 1.524 . S
C805 C802 1.403 . S
C805 C806 1.392 . S
C805 C809 1.495 . S
C806 C805 1.392 . S
C806 C807 1.385 . S
C806 C808 1.478 . S
C807 H801 0.930 . S
C807 C803 1.400 . S
C807 C806 1.385 . S
C808 C806 1.478 . S
C808 C810 1.381 . S
C808 C814 1.383 . S
C809 C805 1.495 . S
C809 H815 0.959 . S
C809 H816 0.961 . S
C809 H817 0.960 . S
C810 C808 1.381 . S
C810 C811 1.394 . S
C810 H818 0.930 . S
C811 C810 1.394 . S
C811 C812 1.383 . S
C811 H819 0.929 . S
C812 C811 1.383 . S
C812 C813 1.377 . S
C813 H797 0.930 . S
C813 C812 1.377 . S
C813 C814 1.379 . S
C814 H798 0.931 . S
C814 C808 1.383 . S
C814 C813 1.379 . S
H815 C809 0.959 . S
H816 C809 0.961 . S
H817 C809 0.960 . S
H818 C810 0.930 . S
H819 C811 0.929 . S
H820 C828 0.929 . S
H821 C830 0.930 . S
H822 C832 0.930 . S
H823 C835 0.929 . S
H824 C838 0.930 . S
H825 C840 0.960 . S
H826 C840 0.960 . S
H827 C840 0.960 . S
C828 H820 0.929 . S
C828 C829 1.377 . S
C828 C830 1.384 . S
C829 C828 1.377 . S
C829 C835 1.390 . S
C830 H821 0.930 . S
C830 C828 1.384 . S
C830 C831 1.372 . S
C831 C830 1.372 . S
C831 C832 1.400 . S
C831 C836 1.490 . S
C832 H822 0.930 . S
C832 C831 1.400 . S
C832 C835 1.386 . S
H833 C849 0.930 . S
H834 C850 0.931 . S
C835 H823 0.929 . S
C835 C829 1.390 . S
C835 C832 1.386 . S
C836 C831 1.490 . S
C836 C838 1.395 . S
C836 C839 1.403 . S
H837 C843 0.930 . S
C838 H824 0.930 . S
C838 C836 1.395 . S
C838 C841 1.403 . S
C839 C836 1.403 . S
C839 C840 1.524 . S
C839 C843 1.400 . S
C840 H825 0.960 . S
C840 H826 0.960 . S
C840 H827 0.960 . S
C840 C839 1.524 . S
C841 C838 1.403 . S
C841 C842 1.392 . S
C841 C845 1.495 . S
C842 C841 1.392 . S
C842 C843 1.385 . S
C842 C844 1.478 . S
C843 H837 0.930 . S
C843 C839 1.400 . S
C843 C842 1.385 . S
C844 C842 1.478 . S
C844 C846 1.381 . S
C844 C850 1.383 . S
C845 C841 1.495 . S
C845 H851 0.959 . S
C845 H852 0.961 . S
C845 H853 0.960 . S
C846 C844 1.381 . S
C846 C847 1.394 . S
C846 H854 0.930 . S
C847 C846 1.394 . S
C847 C848 1.383 . S
C847 H855 0.929 . S
C848 C847 1.383 . S
C848 C849 1.377 . S
C849 H833 0.930 . S
C849 C848 1.377 . S
C849 C850 1.379 . S
C850 H834 0.931 . S
C850 C844 1.383 . S
C850 C849 1.379 . S
H851 C845 0.959 . S
H852 C845 0.961 . S
H853 C845 0.960 . S
H854 C846 0.930 . S
H855 C847 0.929 . S
H856 C864 0.929 . S
H857 C866 0.930 . S
H858 C868 0.930 . S
H859 C871 0.929 . S
H860 C874 0.930 . S
H861 C876 0.960 . S
H862 C876 0.960 . S
H863 C876 0.960 . S
C864 H856 0.929 . S
C864 C865 1.377 . S
C864 C866 1.384 . S
C865 C864 1.377 . S
C865 C871 1.390 . S
C866 H857 0.930 . S
C866 C864 1.384 . S
C866 C867 1.372 . S
C867 C866 1.372 . S
C867 C868 1.400 . S
C867 C872 1.490 . S
C868 H858 0.930 . S
C868 C867 1.400 . S
C868 C871 1.386 . S
H869 C885 0.930 . S
H870 C886 0.931 . S
C871 H859 0.929 . S
C871 C865 1.390 . S
C871 C868 1.386 . S
C872 C867 1.490 . S
C872 C874 1.395 . S
C872 C875 1.403 . S
H873 C879 0.930 . S
C874 H860 0.930 . S
C874 C872 1.395 . S
C874 C877 1.403 . S
C875 C872 1.403 . S
C875 C876 1.524 . S
C875 C879 1.400 . S
C876 H861 0.960 . S
C876 H862 0.960 . S
C876 H863 0.960 . S
C876 C875 1.524 . S
C877 C874 1.403 . S
C877 C878 1.392 . S
C877 C881 1.495 . S
C878 C877 1.392 . S
C878 C879 1.385 . S
C878 C880 1.478 . S
C879 H873 0.930 . S
C879 C875 1.400 . S
C879 C878 1.385 . S
C880 C878 1.478 . S
C880 C882 1.381 . S
C880 C886 1.383 . S
C881 C877 1.495 . S
C881 H887 0.959 . S
C881 H888 0.961 . S
C881 H889 0.960 . S
C882 C880 1.381 . S
C882 C883 1.394 . S
C882 H890 0.930 . S
C883 C882 1.394 . S
C883 C884 1.383 . S
C883 H891 0.929 . S
C884 C883 1.383 . S
C884 C885 1.377 . S
C885 H869 0.930 . S
C885 C884 1.377 . S
C885 C886 1.379 . S
C886 H870 0.931 . S
C886 C880 1.383 . S
C886 C885 1.379 . S
H887 C881 0.959 . S
H888 C881 0.961 . S
H889 C881 0.960 . S
H890 C882 0.930 . S
H891 C883 0.929 . S
H892 C900 0.929 . S
H893 C902 0.930 . S
H894 C904 0.930 . S
H895 C907 0.929 . S
H896 C910 0.930 . S
H897 C912 0.960 . S
H898 C912 0.960 . S
H899 C912 0.960 . S
C900 H892 0.929 . S
C900 C901 1.377 . S
C900 C902 1.384 . S
C901 C900 1.377 . S
C901 C907 1.390 . S
C902 H893 0.930 . S
C902 C900 1.384 . S
C902 C903 1.372 . S
C903 C902 1.372 . S
C903 C904 1.400 . S
C903 C908 1.490 . S
C904 H894 0.930 . S
C904 C903 1.400 . S
C904 C907 1.386 . S
H905 C921 0.930 . S
H906 C922 0.931 . S
C907 H895 0.929 . S
C907 C901 1.390 . S
C907 C904 1.386 . S
C908 C903 1.490 . S
C908 C910 1.395 . S
C908 C911 1.403 . S
H909 C915 0.930 . S
C910 H896 0.930 . S
C910 C908 1.395 . S
C910 C913 1.403 . S
C911 C908 1.403 . S
C911 C912 1.524 . S
C911 C915 1.400 . S
C912 H897 0.960 . S
C912 H898 0.960 . S
C912 H899 0.960 . S
C912 C911 1.524 . S
C913 C910 1.403 . S
C913 C914 1.392 . S
C913 C917 1.495 . S
C914 C913 1.392 . S
C914 C915 1.385 . S
C914 C916 1.478 . S
C915 H909 0.930 . S
C915 C911 1.400 . S
C915 C914 1.385 . S
C916 C914 1.478 . S
C916 C918 1.381 . S
C916 C922 1.383 . S
C917 C913 1.495 . S
C917 H923 0.959 . S
C917 H924 0.961 . S
C917 H925 0.960 . S
C918 C916 1.381 . S
C918 C919 1.394 . S
C918 H926 0.930 . S
C919 C918 1.394 . S
C919 C920 1.383 . S
C919 H927 0.929 . S
C920 C919 1.383 . S
C920 C921 1.377 . S
C921 H905 0.930 . S
C921 C920 1.377 . S
C921 C922 1.379 . S
C922 H906 0.931 . S
C922 C916 1.383 . S
C922 C921 1.379 . S
H923 C917 0.959 . S
H924 C917 0.961 . S
H925 C917 0.960 . S
H926 C918 0.930 . S
H927 C919 0.929 . S
H928 C936 0.929 . S
H929 C938 0.930 . S
H930 C940 0.930 . S
H931 C943 0.929 . S
H932 C946 0.930 . S
H933 C948 0.960 . S
H934 C948 0.960 . S
H935 C948 0.960 . S
C936 H928 0.929 . S
C936 C937 1.377 . S
C936 C938 1.384 . S
C937 C936 1.377 . S
C937 C943 1.390 . S
C938 H929 0.930 . S
C938 C936 1.384 . S
C938 C939 1.372 . S
C939 C938 1.372 . S
C939 C940 1.400 . S
C939 C944 1.490 . S
C940 H930 0.930 . S
C940 C939 1.400 . S
C940 C943 1.386 . S
H941 C957 0.930 . S
H942 C958 0.931 . S
C943 H931 0.929 . S
C943 C937 1.390 . S
C943 C940 1.386 . S
C944 C939 1.490 . S
C944 C946 1.395 . S
C944 C947 1.403 . S
H945 C951 0.930 . S
C946 H932 0.930 . S
C946 C944 1.395 . S
C946 C949 1.403 . S
C947 C944 1.403 . S
C947 C948 1.524 . S
C947 C951 1.400 . S
C948 H933 0.960 . S
C948 H934 0.960 . S
C948 H935 0.960 . S
C948 C947 1.524 . S
C949 C946 1.403 . S
C949 C950 1.392 . S
C949 C953 1.495 . S
C950 C949 1.392 . S
C950 C951 1.385 . S
C950 C952 1.478 . S
C951 H945 0.930 . S
C951 C947 1.400 . S
C951 C950 1.385 . S
C952 C950 1.478 . S
C952 C954 1.381 . S
C952 C958 1.383 . S
C953 C949 1.495 . S
C953 H959 0.959 . S
C953 H960 0.961 . S
C953 H961 0.960 . S
C954 C952 1.381 . S
C954 C955 1.394 . S
C954 H962 0.930 . S
C955 C954 1.394 . S
C955 C956 1.383 . S
C955 H963 0.929 . S
C956 C955 1.383 . S
C956 C957 1.377 . S
C957 H941 0.930 . S
C957 C956 1.377 . S
C957 C958 1.379 . S
C958 H942 0.931 . S
C958 C952 1.383 . S
C958 C957 1.379 . S
H959 C953 0.959 . S
H960 C953 0.961 . S
H961 C953 0.960 . S
H962 C954 0.930 . S
H963 C955 0.929 . S
H964 C972 0.929 . S
H965 C974 0.930 . S
H966 C976 0.930 . S
H967 C979 0.929 . S
H968 C982 0.930 . S
H969 C984 0.960 . S
H970 C984 0.960 . S
H971 C984 0.960 . S
C972 H964 0.929 . S
C972 C973 1.377 . S
C972 C974 1.384 . S
C973 C972 1.377 . S
C973 C979 1.390 . S
C974 H965 0.930 . S
C974 C972 1.384 . S
C974 C975 1.372 . S
C975 C974 1.372 . S
C975 C976 1.400 . S
C975 C980 1.490 . S
C976 H966 0.930 . S
C976 C975 1.400 . S
C976 C979 1.386 . S
H977 C993 0.930 . S
H978 C994 0.931 . S
C979 H967 0.929 . S
C979 C973 1.390 . S
C979 C976 1.386 . S
C980 C975 1.490 . S
C980 C982 1.395 . S
C980 C983 1.403 . S
H981 C987 0.930 . S
C982 H968 0.930 . S
C982 C980 1.395 . S
C982 C985 1.403 . S
C983 C980 1.403 . S
C983 C984 1.524 . S
C983 C987 1.400 . S
C984 H969 0.960 . S
C984 H970 0.960 . S
C984 H971 0.960 . S
C984 C983 1.524 . S
C985 C982 1.403 . S
C985 C986 1.392 . S
C985 C989 1.495 . S
C986 C985 1.392 . S
C986 C987 1.385 . S
C986 C988 1.478 . S
C987 H981 0.930 . S
C987 C983 1.400 . S
C987 C986 1.385 . S
C988 C986 1.478 . S
C988 C990 1.381 . S
C988 C994 1.383 . S
C989 C985 1.495 . S
C989 H995 0.959 . S
C989 H996 0.961 . S
C989 H997 0.960 . S
C990 C988 1.381 . S
C990 C991 1.394 . S
C990 H998 0.930 . S
C991 C990 1.394 . S
C991 C992 1.383 . S
C991 H999 0.929 . S
C992 C991 1.383 . S
C992 C993 1.377 . S
C993 H977 0.930 . S
C993 C992 1.377 . S
C993 C994 1.379 . S
C994 H978 0.931 . S
C994 C988 1.383 . S
C994 C993 1.379 . S
H995 C989 0.959 . S
H996 C989 0.961 . S
H997 C989 0.960 . S
H998 C990 0.930 . S
H999 C991 0.929 . S
H1000 C1008 0.929 . S
H1001 C1010 0.930 . S
H1002 C1012 0.930 . S
H1003 C1015 0.929 . S
H1004 C1018 0.930 . S
H1005 C1020 0.960 . S
H1006 C1020 0.960 . S
H1007 C1020 0.960 . S
C1008 H1000 0.929 . S
C1008 C1009 1.377 . S
C1008 C1010 1.384 . S
C1009 C1008 1.377 . S
C1009 C1015 1.390 . S
C1010 H1001 0.930 . S
C1010 C1008 1.384 . S
C1010 C1011 1.372 . S
C1011 C1010 1.372 . S
C1011 C1012 1.400 . S
C1011 C1016 1.490 . S
C1012 H1002 0.930 . S
C1012 C1011 1.400 . S
C1012 C1015 1.386 . S
H1013 C1029 0.930 . S
H1014 C1030 0.931 . S
C1015 H1003 0.929 . S
C1015 C1009 1.390 . S
C1015 C1012 1.386 . S
C1016 C1011 1.490 . S
C1016 C1018 1.395 . S
C1016 C1019 1.403 . S
H1017 C1023 0.930 . S
C1018 H1004 0.930 . S
C1018 C1016 1.395 . S
C1018 C1021 1.403 . S
C1019 C1016 1.403 . S
C1019 C1020 1.524 . S
C1019 C1023 1.400 . S
C1020 H1005 0.960 . S
C1020 H1006 0.960 . S
C1020 H1007 0.960 . S
C1020 C1019 1.524 . S
C1021 C1018 1.403 . S
C1021 C1022 1.392 . S
C1021 C1025 1.495 . S
C1022 C1021 1.392 . S
C1022 C1023 1.385 . S
C1022 C1024 1.478 . S
C1023 H1017 0.930 . S
C1023 C1019 1.400 . S
C1023 C1022 1.385 . S
C1024 C1022 1.478 . S
C1024 C1026 1.381 . S
C1024 C1030 1.383 . S
C1025 C1021 1.495 . S
C1025 H1031 0.959 . S
C1025 H1032 0.961 . S
C1025 H1033 0.960 . S
C1026 C1024 1.381 . S
C1026 C1027 1.394 . S
C1026 H1034 0.930 . S
C1027 C1026 1.394 . S
C1027 C1028 1.383 . S
C1027 H1035 0.929 . S
C1028 C1027 1.383 . S
C1028 C1029 1.377 . S
C1029 H1013 0.930 . S
C1029 C1028 1.377 . S
C1029 C1030 1.379 . S
C1030 H1014 0.931 . S
C1030 C1024 1.383 . S
C1030 C1029 1.379 . S
H1031 C1025 0.959 . S
H1032 C1025 0.961 . S
H1033 C1025 0.960 . S
H1034 C1026 0.930 . S
H1035 C1027 0.929 . S
H1036 C1044 0.929 . S
H1037 C1046 0.930 . S
H1038 C1048 0.930 . S
H1039 C1051 0.929 . S
H1040 C1054 0.930 . S
H1041 C1056 0.960 . S
H1042 C1056 0.960 . S
H1043 C1056 0.960 . S
C1044 H1036 0.929 . S
C1044 C1045 1.377 . S
C1044 C1046 1.384 . S
C1045 C1044 1.377 . S
C1045 C1051 1.390 . S
C1046 H1037 0.930 . S
C1046 C1044 1.384 . S
C1046 C1047 1.372 . S
C1047 C1046 1.372 . S
C1047 C1048 1.400 . S
C1047 C1052 1.490 . S
C1048 H1038 0.930 . S
C1048 C1047 1.400 . S
C1048 C1051 1.386 . S
H1049 C1065 0.930 . S
H1050 C1066 0.931 . S
C1051 H1039 0.929 . S
C1051 C1045 1.390 . S
C1051 C1048 1.386 . S
C1052 C1047 1.490 . S
C1052 C1054 1.395 . S
C1052 C1055 1.403 . S
H1053 C1059 0.930 . S
C1054 H1040 0.930 . S
C1054 C1052 1.395 . S
C1054 C1057 1.403 . S
C1055 C1052 1.403 . S
C1055 C1056 1.524 . S
C1055 C1059 1.400 . S
C1056 H1041 0.960 . S
C1056 H1042 0.960 . S
C1056 H1043 0.960 . S
C1056 C1055 1.524 . S
C1057 C1054 1.403 . S
C1057 C1058 1.392 . S
C1057 C1061 1.495 . S
C1058 C1057 1.392 . S
C1058 C1059 1.385 . S
C1058 C1060 1.478 . S
C1059 H1053 0.930 . S
C1059 C1055 1.400 . S
C1059 C1058 1.385 . S
C1060 C1058 1.478 . S
C1060 C1062 1.381 . S
C1060 C1066 1.383 . S
C1061 C1057 1.495 . S
C1061 H1067 0.959 . S
C1061 H1068 0.961 . S
C1061 H1069 0.960 . S
C1062 C1060 1.381 . S
C1062 C1063 1.394 . S
C1062 H1070 0.930 . S
C1063 C1062 1.394 . S
C1063 C1064 1.383 . S
C1063 H1071 0.929 . S
C1064 C1063 1.383 . S
C1064 C1065 1.377 . S
C1065 H1049 0.930 . S
C1065 C1064 1.377 . S
C1065 C1066 1.379 . S
C1066 H1050 0.931 . S
C1066 C1060 1.383 . S
C1066 C1065 1.379 . S
H1067 C1061 0.959 . S
H1068 C1061 0.961 . S
H1069 C1061 0.960 . S
H1070 C1062 0.930 . S
H1071 C1063 0.929 . S
H1072 C1080 0.929 . S
H1073 C1082 0.930 . S
H1074 C1084 0.930 . S
H1075 C1087 0.929 . S
H1076 C1090 0.930 . S
H1077 C1092 0.960 . S
H1078 C1092 0.960 . S
H1079 C1092 0.960 . S
C1080 H1072 0.929 . S
C1080 C1081 1.377 . S
C1080 C1082 1.384 . S
C1081 C1080 1.377 . S
C1081 C1087 1.390 . S
C1082 H1073 0.930 . S
C1082 C1080 1.384 . S
C1082 C1083 1.372 . S
C1083 C1082 1.372 . S
C1083 C1084 1.400 . S
C1083 C1088 1.490 . S
C1084 H1074 0.930 . S
C1084 C1083 1.400 . S
C1084 C1087 1.386 . S
H1085 C1101 0.930 . S
H1086 C1102 0.931 . S
C1087 H1075 0.929 . S
C1087 C1081 1.390 . S
C1087 C1084 1.386 . S
C1088 C1083 1.490 . S
C1088 C1090 1.395 . S
C1088 C1091 1.403 . S
H1089 C1095 0.930 . S
C1090 H1076 0.930 . S
C1090 C1088 1.395 . S
C1090 C1093 1.403 . S
C1091 C1088 1.403 . S
C1091 C1092 1.524 . S
C1091 C1095 1.400 . S
C1092 H1077 0.960 . S
C1092 H1078 0.960 . S
C1092 H1079 0.960 . S
C1092 C1091 1.524 . S
C1093 C1090 1.403 . S
C1093 C1094 1.392 . S
C1093 C1097 1.495 . S
C1094 C1093 1.392 . S
C1094 C1095 1.385 . S
C1094 C1096 1.478 . S
C1095 H1089 0.930 . S
C1095 C1091 1.400 . S
C1095 C1094 1.385 . S
C1096 C1094 1.478 . S
C1096 C1098 1.381 . S
C1096 C1102 1.383 . S
C1097 C1093 1.495 . S
C1097 H1103 0.959 . S
C1097 H1104 0.961 . S
C1097 H1105 0.960 . S
C1098 C1096 1.381 . S
C1098 C1099 1.394 . S
C1098 H1106 0.930 . S
C1099 C1098 1.394 . S
C1099 C1100 1.383 . S
C1099 H1107 0.929 . S
C1100 C1099 1.383 . S
C1100 C1101 1.377 . S
C1101 H1085 0.930 . S
C1101 C1100 1.377 . S
C1101 C1102 1.379 . S
C1102 H1086 0.931 . S
C1102 C1096 1.383 . S
C1102 C1101 1.379 . S
H1103 C1097 0.959 . S
H1104 C1097 0.961 . S
H1105 C1097 0.960 . S
H1106 C1098 0.930 . S
H1107 C1099 0.929 . S
H1108 C1116 0.929 . S
H1109 C1118 0.930 . S
H1110 C1120 0.930 . S
H1111 C1123 0.929 . S
H1112 C1126 0.930 . S
H1113 C1128 0.960 . S
H1114 C1128 0.960 . S
H1115 C1128 0.960 . S
C1116 H1108 0.929 . S
C1116 C1117 1.377 . S
C1116 C1118 1.384 . S
C1117 C1116 1.377 . S
C1117 C1123 1.390 . S
C1118 H1109 0.930 . S
C1118 C1116 1.384 . S
C1118 C1119 1.372 . S
C1119 C1118 1.372 . S
C1119 C1120 1.400 . S
C1119 C1124 1.490 . S
C1120 H1110 0.930 . S
C1120 C1119 1.400 . S
C1120 C1123 1.386 . S
H1121 C1137 0.930 . S
H1122 C1138 0.931 . S
C1123 H1111 0.929 . S
C1123 C1117 1.390 . S
C1123 C1120 1.386 . S
C1124 C1119 1.490 . S
C1124 C1126 1.395 . S
C1124 C1127 1.403 . S
H1125 C1131 0.930 . S
C1126 H1112 0.930 . S
C1126 C1124 1.395 . S
C1126 C1129 1.403 . S
C1127 C1124 1.403 . S
C1127 C1128 1.524 . S
C1127 C1131 1.400 . S
C1128 H1113 0.960 . S
C1128 H1114 0.960 . S
C1128 H1115 0.960 . S
C1128 C1127 1.524 . S
C1129 C1126 1.403 . S
C1129 C1130 1.392 . S
C1129 C1133 1.495 . S
C1130 C1129 1.392 . S
C1130 C1131 1.385 . S
C1130 C1132 1.478 . S
C1131 H1125 0.930 . S
C1131 C1127 1.400 . S
C1131 C1130 1.385 . S
C1132 C1130 1.478 . S
C1132 C1134 1.381 . S
C1132 C1138 1.383 . S
C1133 C1129 1.495 . S
C1133 H1139 0.959 . S
C1133 H1140 0.961 . S
C1133 H1141 0.960 . S
C1134 C1132 1.381 . S
C1134 C1135 1.394 . S
C1134 H1142 0.930 . S
C1135 C1134 1.394 . S
C1135 C1136 1.383 . S
C1135 H1143 0.929 . S
C1136 C1135 1.383 . S
C1136 C1137 1.377 . S
C1137 H1121 0.930 . S
C1137 C1136 1.377 . S
C1137 C1138 1.379 . S
C1138 H1122 0.931 . S
C1138 C1132 1.383 . S
C1138 C1137 1.379 . S
H1139 C1133 0.959 . S
H1140 C1133 0.961 . S
H1141 C1133 0.960 . S
H1142 C1134 0.930 . S
H1143 C1135 0.929 . S
H1144 C1152 0.929 . S
H1145 C1154 0.930 . S
H1146 C1156 0.930 . S
H1147 C1159 0.929 . S
H1148 C1162 0.930 . S
H1149 C1164 0.960 . S
H1150 C1164 0.960 . S
H1151 C1164 0.960 . S
C1152 H1144 0.929 . S
C1152 C1153 1.377 . S
C1152 C1154 1.384 . S
C1153 C1152 1.377 . S
C1153 C1159 1.390 . S
C1154 H1145 0.930 . S
C1154 C1152 1.384 . S
C1154 C1155 1.372 . S
C1155 C1154 1.372 . S
C1155 C1156 1.400 . S
C1155 C1160 1.490 . S
C1156 H1146 0.930 . S
C1156 C1155 1.400 . S
C1156 C1159 1.386 . S
H1157 C1173 0.930 . S
H1158 C1174 0.931 . S
C1159 H1147 0.929 . S
C1159 C1153 1.390 . S
C1159 C1156 1.386 . S
C1160 C1155 1.490 . S
C1160 C1162 1.395 . S
C1160 C1163 1.403 . S
H1161 C1167 0.930 . S
C1162 H1148 0.930 . S
C1162 C1160 1.395 . S
C1162 C1165 1.403 . S
C1163 C1160 1.403 . S
C1163 C1164 1.524 . S
C1163 C1167 1.400 . S
C1164 H1149 0.960 . S
C1164 H1150 0.960 . S
C1164 H1151 0.960 . S
C1164 C1163 1.524 . S
C1165 C1162 1.403 . S
C1165 C1166 1.392 . S
C1165 C1169 1.495 . S
C1166 C1165 1.392 . S
C1166 C1167 1.385 . S
C1166 C1168 1.478 . S
C1167 H1161 0.930 . S
C1167 C1163 1.400 . S
C1167 C1166 1.385 . S
C1168 C1166 1.478 . S
C1168 C1170 1.381 . S
C1168 C1174 1.383 . S
C1169 C1165 1.495 . S
C1169 H1175 0.959 . S
C1169 H1176 0.961 . S
C1169 H1177 0.960 . S
C1170 C1168 1.381 . S
C1170 C1171 1.394 . S
C1170 H1178 0.930 . S
C1171 C1170 1.394 . S
C1171 C1172 1.383 . S
C1171 H1179 0.929 . S
C1172 C1171 1.383 . S
C1172 C1173 1.377 . S
C1173 H1157 0.930 . S
C1173 C1172 1.377 . S
C1173 C1174 1.379 . S
C1174 H1158 0.931 . S
C1174 C1168 1.383 . S
C1174 C1173 1.379 . S
H1175 C1169 0.959 . S
H1176 C1169 0.961 . S
H1177 C1169 0.960 . S
H1178 C1170 0.930 . S
H1179 C1171 0.929 . S
H1180 C1188 0.929 . S
H1181 C1190 0.930 . S
H1182 C1192 0.930 . S
H1183 C1195 0.929 . S
H1184 C1198 0.930 . S
H1185 C1200 0.960 . S
H1186 C1200 0.960 . S
H1187 C1200 0.960 . S
C1188 H1180 0.929 . S
C1188 C1189 1.377 . S
C1188 C1190 1.384 . S
C1189 C1188 1.377 . S
C1189 C1195 1.390 . S
C1190 H1181 0.930 . S
C1190 C1188 1.384 . S
C1190 C1191 1.372 . S
C1191 C1190 1.372 . S
C1191 C1192 1.400 . S
C1191 C1196 1.490 . S
C1192 H1182 0.930 . S
C1192 C1191 1.400 . S
C1192 C1195 1.386 . S
H1193 C1209 0.930 . S
H1194 C1210 0.931 . S
C1195 H1183 0.929 . S
C1195 C1189 1.390 . S
C1195 C1192 1.386 . S
C1196 C1191 1.490 . S
C1196 C1198 1.395 . S
C1196 C1199 1.403 . S
H1197 C1203 0.930 . S
C1198 H1184 0.930 . S
C1198 C1196 1.395 . S
C1198 C1201 1.403 . S
C1199 C1196 1.403 . S
C1199 C1200 1.524 . S
C1199 C1203 1.400 . S
C1200 H1185 0.960 . S
C1200 H1186 0.960 . S
C1200 H1187 0.960 . S
C1200 C1199 1.524 . S
C1201 C1198 1.403 . S
C1201 C1202 1.392 . S
C1201 C1205 1.495 . S
C1202 C1201 1.392 . S
C1202 C1203 1.385 . S
C1202 C1204 1.478 . S
C1203 H1197 0.930 . S
C1203 C1199 1.400 . S
C1203 C1202 1.385 . S
C1204 C1202 1.478 . S
C1204 C1206 1.381 . S
C1204 C1210 1.383 . S
C1205 C1201 1.495 . S
C1205 H1211 0.959 . S
C1205 H1212 0.961 . S
C1205 H1213 0.960 . S
C1206 C1204 1.381 . S
C1206 C1207 1.394 . S
C1206 H1214 0.930 . S
C1207 C1206 1.394 . S
C1207 C1208 1.383 . S
C1207 H1215 0.929 . S
C1208 C1207 1.383 . S
C1208 C1209 1.377 . S
C1209 H1193 0.930 . S
C1209 C1208 1.377 . S
C1209 C1210 1.379 . S
C1210 H1194 0.931 . S
C1210 C1204 1.383 . S
C1210 C1209 1.379 . S
H1211 C1205 0.959 . S
H1212 C1205 0.961 . S
H1213 C1205 0.960 . S
H1214 C1206 0.930 . S
H1215 C1207 0.929 . S
H1216 C1224 0.929 . S
H1217 C1226 0.930 . S
H1218 C1228 0.930 . S
H1219 C1231 0.929 . S
H1220 C1234 0.930 . S
H1221 C1236 0.960 . S
H1222 C1236 0.960 . S
H1223 C1236 0.960 . S
C1224 H1216 0.929 . S
C1224 C1225 1.377 . S
C1224 C1226 1.384 . S
C1225 C1224 1.377 . S
C1225 C1231 1.390 . S
C1226 H1217 0.930 . S
C1226 C1224 1.384 . S
C1226 C1227 1.372 . S
C1227 C1226 1.372 . S
C1227 C1228 1.400 . S
C1227 C1232 1.490 . S
C1228 H1218 0.930 . S
C1228 C1227 1.400 . S
C1228 C1231 1.386 . S
H1229 C1245 0.930 . S
H1230 C1246 0.931 . S
C1231 H1219 0.929 . S
C1231 C1225 1.390 . S
C1231 C1228 1.386 . S
C1232 C1227 1.490 . S
C1232 C1234 1.395 . S
C1232 C1235 1.403 . S
H1233 C1239 0.930 . S
C1234 H1220 0.930 . S
C1234 C1232 1.395 . S
C1234 C1237 1.403 . S
C1235 C1232 1.403 . S
C1235 C1236 1.524 . S
C1235 C1239 1.400 . S
C1236 H1221 0.960 . S
C1236 H1222 0.960 . S
C1236 H1223 0.960 . S
C1236 C1235 1.524 . S
C1237 C1234 1.403 . S
C1237 C1238 1.392 . S
C1237 C1241 1.495 . S
C1238 C1237 1.392 . S
C1238 C1239 1.385 . S
C1238 C1240 1.478 . S
C1239 H1233 0.930 . S
C1239 C1235 1.400 . S
C1239 C1238 1.385 . S
C1240 C1238 1.478 . S
C1240 C1242 1.381 . S
C1240 C1246 1.383 . S
C1241 C1237 1.495 . S
C1241 H1247 0.959 . S
C1241 H1248 0.961 . S
C1241 H1249 0.960 . S
C1242 C1240 1.381 . S
C1242 C1243 1.394 . S
C1242 H1250 0.930 . S
C1243 C1242 1.394 . S
C1243 C1244 1.383 . S
C1243 H1251 0.929 . S
C1244 C1243 1.383 . S
C1244 C1245 1.377 . S
C1245 H1229 0.930 . S
C1245 C1244 1.377 . S
C1245 C1246 1.379 . S
C1246 H1230 0.931 . S
C1246 C1240 1.383 . S
C1246 C1245 1.379 . S
H1247 C1241 0.959 . S
H1248 C1241 0.961 . S
H1249 C1241 0.960 . S
H1250 C1242 0.930 . S
H1251 C1243 0.929 . S
H1252 C1260 0.929 . S
H1253 C1262 0.930 . S
H1254 C1264 0.930 . S
H1255 C1267 0.929 . S
H1256 C1270 0.930 . S
H1257 C1272 0.960 . S
H1258 C1272 0.960 . S
H1259 C1272 0.960 . S
C1260 H1252 0.929 . S
C1260 C1261 1.377 . S
C1260 C1262 1.384 . S
C1261 C1260 1.377 . S
C1261 C1267 1.390 . S
C1262 H1253 0.930 . S
C1262 C1260 1.384 . S
C1262 C1263 1.372 . S
C1263 C1262 1.372 . S
C1263 C1264 1.400 . S
C1263 C1268 1.490 . S
C1264 H1254 0.930 . S
C1264 C1263 1.400 . S
C1264 C1267 1.386 . S
H1265 C1281 0.930 . S
H1266 C1282 0.931 . S
C1267 H1255 0.929 . S
C1267 C1261 1.390 . S
C1267 C1264 1.386 . S
C1268 C1263 1.490 . S
C1268 C1270 1.395 . S
C1268 C1271 1.403 . S
H1269 C1275 0.930 . S
C1270 H1256 0.930 . S
C1270 C1268 1.395 . S
C1270 C1273 1.403 . S
C1271 C1268 1.403 . S
C1271 C1272 1.524 . S
C1271 C1275 1.400 . S
C1272 H1257 0.960 . S
C1272 H1258 0.960 . S
C1272 H1259 0.960 . S
C1272 C1271 1.524 . S
C1273 C1270 1.403 . S
C1273 C1274 1.392 . S
C1273 C1277 1.495 . S
C1274 C1273 1.392 . S
C1274 C1275 1.385 . S
C1274 C1276 1.478 . S
C1275 H1269 0.930 . S
C1275 C1271 1.400 . S
C1275 C1274 1.385 . S
C1276 C1274 1.478 . S
C1276 C1278 1.381 . S
C1276 C1282 1.383 . S
C1277 C1273 1.495 . S
C1277 H1283 0.959 . S
C1277 H1284 0.961 . S
C1277 H1285 0.960 . S
C1278 C1276 1.381 . S
C1278 C1279 1.394 . S
C1278 H1286 0.930 . S
C1279 C1278 1.394 . S
C1279 C1280 1.383 . S
C1279 H1287 0.929 . S
C1280 C1279 1.383 . S
C1280 C1281 1.377 . S
C1281 H1265 0.930 . S
C1281 C1280 1.377 . S
C1281 C1282 1.379 . S
C1282 H1266 0.931 . S
C1282 C1276 1.383 . S
C1282 C1281 1.379 . S
H1283 C1277 0.959 . S
H1284 C1277 0.961 . S
H1285 C1277 0.960 . S
H1286 C1278 0.930 . S
H1287 C1279 0.929 . S
H1288 C1296 0.929 . S
H1289 C1298 0.930 . S
H1290 C1300 0.930 . S
H1291 C1303 0.929 . S
H1292 C1306 0.930 . S
H1293 C1308 0.960 . S
H1294 C1308 0.960 . S
H1295 C1308 0.960 . S
C1296 H1288 0.929 . S
C1296 C1297 1.377 . S
C1296 C1298 1.384 . S
C1297 C1296 1.377 . S
C1297 C1303 1.390 . S
C1298 H1289 0.930 . S
C1298 C1296 1.384 . S
C1298 C1299 1.372 . S
C1299 C1298 1.372 . S
C1299 C1300 1.400 . S
C1299 C1304 1.490 . S
C1300 H1290 0.930 . S
C1300 C1299 1.400 . S
C1300 C1303 1.386 . S
H1301 C1317 0.930 . S
H1302 C1318 0.931 . S
C1303 H1291 0.929 . S
C1303 C1297 1.390 . S
C1303 C1300 1.386 . S
C1304 C1299 1.490 . S
C1304 C1306 1.395 . S
C1304 C1307 1.403 . S
H1305 C1311 0.930 . S
C1306 H1292 0.930 . S
C1306 C1304 1.395 . S
C1306 C1309 1.403 . S
C1307 C1304 1.403 . S
C1307 C1308 1.524 . S
C1307 C1311 1.400 . S
C1308 H1293 0.960 . S
C1308 H1294 0.960 . S
C1308 H1295 0.960 . S
C1308 C1307 1.524 . S
C1309 C1306 1.403 . S
C1309 C1310 1.392 . S
C1309 C1313 1.495 . S
C1310 C1309 1.392 . S
C1310 C1311 1.385 . S
C1310 C1312 1.478 . S
C1311 H1305 0.930 . S
C1311 C1307 1.400 . S
C1311 C1310 1.385 . S
C1312 C1310 1.478 . S
C1312 C1314 1.381 . S
C1312 C1318 1.383 . S
C1313 C1309 1.495 . S
C1313 H1319 0.959 . S
C1313 H1320 0.961 . S
C1313 H1321 0.960 . S
C1314 C1312 1.381 . S
C1314 C1315 1.394 . S
C1314 H1322 0.930 . S
C1315 C1314 1.394 . S
C1315 C1316 1.383 . S
C1315 H1323 0.929 . S
C1316 C1315 1.383 . S
C1316 C1317 1.377 . S
C1317 H1301 0.930 . S
C1317 C1316 1.377 . S
C1317 C1318 1.379 . S
C1318 H1302 0.931 . S
C1318 C1312 1.383 . S
C1318 C1317 1.379 . S
H1319 C1313 0.959 . S
H1320 C1313 0.961 . S
H1321 C1313 0.960 . S
H1322 C1314 0.930 . S
H1323 C1315 0.929 . S
H1324 C1332 0.929 . S
H1325 C1334 0.930 . S
H1326 C1336 0.930 . S
H1327 C1339 0.929 . S
H1328 C1342 0.930 . S
H1329 C1344 0.960 . S
H1330 C1344 0.960 . S
H1331 C1344 0.960 . S
C1332 H1324 0.929 . S
C1332 C1333 1.377 . S
C1332 C1334 1.384 . S
C1333 C1332 1.377 . S
C1333 C1339 1.390 . S
C1334 H1325 0.930 . S
C1334 C1332 1.384 . S
C1334 C1335 1.372 . S
C1335 C1334 1.372 . S
C1335 C1336 1.400 . S
C1335 C1340 1.490 . S
C1336 H1326 0.930 . S
C1336 C1335 1.400 . S
C1336 C1339 1.386 . S
H1337 C1353 0.930 . S
H1338 C1354 0.931 . S
C1339 H1327 0.929 . S
C1339 C1333 1.390 . S
C1339 C1336 1.386 . S
C1340 C1335 1.490 . S
C1340 C1342 1.395 . S
C1340 C1343 1.403 . S
H1341 C1347 0.930 . S
C1342 H1328 0.930 . S
C1342 C1340 1.395 . S
C1342 C1345 1.403 . S
C1343 C1340 1.403 . S
C1343 C1344 1.524 . S
C1343 C1347 1.400 . S
C1344 H1329 0.960 . S
C1344 H1330 0.960 . S
C1344 H1331 0.960 . S
C1344 C1343 1.524 . S
C1345 C1342 1.403 . S
C1345 C1346 1.392 . S
C1345 C1349 1.495 . S
C1346 C1345 1.392 . S
C1346 C1347 1.385 . S
C1346 C1348 1.478 . S
C1347 H1341 0.930 . S
C1347 C1343 1.400 . S
C1347 C1346 1.385 . S
C1348 C1346 1.478 . S
C1348 C1350 1.381 . S
C1348 C1354 1.383 . S
C1349 C1345 1.495 . S
C1349 H1355 0.959 . S
C1349 H1356 0.961 . S
C1349 H1357 0.960 . S
C1350 C1348 1.381 . S
C1350 C1351 1.394 . S
C1350 H1358 0.930 . S
C1351 C1350 1.394 . S
C1351 C1352 1.383 . S
C1351 H1359 0.929 . S
C1352 C1351 1.383 . S
C1352 C1353 1.377 . S
C1353 H1337 0.930 . S
C1353 C1352 1.377 . S
C1353 C1354 1.379 . S
C1354 H1338 0.931 . S
C1354 C1348 1.383 . S
C1354 C1353 1.379 . S
H1355 C1349 0.959 . S
H1356 C1349 0.961 . S
H1357 C1349 0.960 . S
H1358 C1350 0.930 . S
H1359 C1351 0.929 . S
H1360 C1368 0.929 . S
H1361 C1370 0.930 . S
H1362 C1372 0.930 . S
H1363 C1375 0.929 . S
H1364 C1378 0.930 . S
H1365 C1380 0.960 . S
H1366 C1380 0.960 . S
H1367 C1380 0.960 . S
C1368 H1360 0.929 . S
C1368 C1369 1.377 . S
C1368 C1370 1.384 . S
C1369 C1368 1.377 . S
C1369 C1375 1.390 . S
C1370 H1361 0.930 . S
C1370 C1368 1.384 . S
C1370 C1371 1.372 . S
C1371 C1370 1.372 . S
C1371 C1372 1.400 . S
C1371 C1376 1.490 . S
C1372 H1362 0.930 . S
C1372 C1371 1.400 . S
C1372 C1375 1.386 . S
H1373 C1389 0.930 . S
H1374 C1390 0.931 . S
C1375 H1363 0.929 . S
C1375 C1369 1.390 . S
C1375 C1372 1.386 . S
C1376 C1371 1.490 . S
C1376 C1378 1.395 . S
C1376 C1379 1.403 . S
H1377 C1383 0.930 . S
C1378 H1364 0.930 . S
C1378 C1376 1.395 . S
C1378 C1381 1.403 . S
C1379 C1376 1.403 . S
C1379 C1380 1.524 . S
C1379 C1383 1.400 . S
C1380 H1365 0.960 . S
C1380 H1366 0.960 . S
C1380 H1367 0.960 . S
C1380 C1379 1.524 . S
C1381 C1378 1.403 . S
C1381 C1382 1.392 . S
C1381 C1385 1.495 . S
C1382 C1381 1.392 . S
C1382 C1383 1.385 . S
C1382 C1384 1.478 . S
C1383 H1377 0.930 . S
C1383 C1379 1.400 . S
C1383 C1382 1.385 . S
C1384 C1382 1.478 . S
C1384 C1386 1.381 . S
C1384 C1390 1.383 . S
C1385 C1381 1.495 . S
C1385 H1391 0.959 . S
C1385 H1392 0.961 . S
C1385 H1393 0.960 . S
C1386 C1384 1.381 . S
C1386 C1387 1.394 . S
C1386 H1394 0.930 . S
C1387 C1386 1.394 . S
C1387 C1388 1.383 . S
C1387 H1395 0.929 . S
C1388 C1387 1.383 . S
C1388 C1389 1.377 . S
C1389 H1373 0.930 . S
C1389 C1388 1.377 . S
C1389 C1390 1.379 . S
C1390 H1374 0.931 . S
C1390 C1384 1.383 . S
C1390 C1389 1.379 . S
H1391 C1385 0.959 . S
H1392 C1385 0.961 . S
H1393 C1385 0.960 . S
H1394 C1386 0.930 . S
H1395 C1387 0.929 . S
H1396 C1404 0.929 . S
H1397 C1406 0.930 . S
H1398 C1408 0.930 . S
H1399 C1411 0.929 . S
H1400 C1414 0.930 . S
H1401 C1416 0.960 . S
H1402 C1416 0.960 . S
H1403 C1416 0.960 . S
C1404 H1396 0.929 . S
C1404 C1405 1.377 . S
C1404 C1406 1.384 . S
C1405 C1404 1.377 . S
C1405 C1411 1.390 . S
C1406 H1397 0.930 . S
C1406 C1404 1.384 . S
C1406 C1407 1.372 . S
C1407 C1406 1.372 . S
C1407 C1408 1.400 . S
C1407 C1412 1.490 . S
C1408 H1398 0.930 . S
C1408 C1407 1.400 . S
C1408 C1411 1.386 . S
H1409 C1425 0.930 . S
H1410 C1426 0.931 . S
C1411 H1399 0.929 . S
C1411 C1405 1.390 . S
C1411 C1408 1.386 . S
C1412 C1407 1.490 . S
C1412 C1414 1.395 . S
C1412 C1415 1.403 . S
H1413 C1419 0.930 . S
C1414 H1400 0.930 . S
C1414 C1412 1.395 . S
C1414 C1417 1.403 . S
C1415 C1412 1.403 . S
C1415 C1416 1.524 . S
C1415 C1419 1.400 . S
C1416 H1401 0.960 . S
C1416 H1402 0.960 . S
C1416 H1403 0.960 . S
C1416 C1415 1.524 . S
C1417 C1414 1.403 . S
C1417 C1418 1.392 . S
C1417 C1421 1.495 . S
C1418 C1417 1.392 . S
C1418 C1419 1.385 . S
C1418 C1420 1.478 . S
C1419 H1413 0.930 . S
C1419 C1415 1.400 . S
C1419 C1418 1.385 . S
C1420 C1418 1.478 . S
C1420 C1422 1.381 . S
C1420 C1426 1.383 . S
C1421 C1417 1.495 . S
C1421 H1427 0.959 . S
C1421 H1428 0.961 . S
C1421 H1429 0.960 . S
C1422 C1420 1.381 . S
C1422 C1423 1.394 . S
C1422 H1430 0.931 . S
C1423 C1422 1.394 . S
C1423 C1424 1.383 . S
C1423 H1431 0.929 1_554 S
C1424 C1423 1.383 . S
C1424 C1425 1.377 . S
C1425 H1409 0.930 . S
C1425 C1424 1.377 . S
C1425 C1426 1.379 . S
C1426 H1410 0.931 . S
C1426 C1420 1.383 . S
C1426 C1425 1.379 . S
H1427 C1421 0.959 . S
H1428 C1421 0.961 . S
H1429 C1421 0.960 . S
H1430 C1422 0.931 . S
H1431 C1423 0.929 1_556 S
H1432 C1440 0.929 . S
H1433 C1442 0.930 . S
H1434 C1444 0.930 . S
H1435 C1447 0.929 . S
H1436 C1450 0.930 . S
H1437 C1452 0.960 . S
H1438 C1452 0.960 . S
H1439 C1452 0.960 . S
C1440 H1432 0.929 . S
C1440 C1441 1.377 . S
C1440 C1442 1.384 . S
C1441 C1440 1.377 . S
C1441 C1447 1.390 . S
C1442 H1433 0.930 . S
C1442 C1440 1.384 . S
C1442 C1443 1.372 . S
C1443 C1442 1.372 . S
C1443 C1444 1.400 . S
C1443 C1448 1.490 . S
C1444 H1434 0.930 . S
C1444 C1443 1.400 . S
C1444 C1447 1.386 . S
H1445 C1461 0.930 . S
H1446 C1462 0.931 . S
C1447 H1435 0.929 . S
C1447 C1441 1.390 . S
C1447 C1444 1.386 . S
C1448 C1443 1.490 . S
C1448 C1450 1.395 . S
C1448 C1451 1.403 . S
H1449 C1455 0.930 . S
C1450 H1436 0.930 . S
C1450 C1448 1.395 . S
C1450 C1453 1.403 . S
C1451 C1448 1.403 . S
C1451 C1452 1.524 . S
C1451 C1455 1.400 . S
C1452 H1437 0.960 . S
C1452 H1438 0.960 . S
C1452 H1439 0.960 . S
C1452 C1451 1.524 . S
C1453 C1450 1.403 . S
C1453 C1454 1.392 . S
C1453 C1457 1.495 . S
C1454 C1453 1.392 . S
C1454 C1455 1.385 . S
C1454 C1456 1.478 . S
C1455 H1449 0.930 . S
C1455 C1451 1.400 . S
C1455 C1454 1.385 . S
C1456 C1454 1.478 . S
C1456 C1458 1.381 . S
C1456 C1462 1.383 . S
C1457 C1453 1.495 . S
C1457 H1463 0.959 . S
C1457 H1464 0.961 . S
C1457 H1465 0.960 . S
C1458 C1456 1.381 . S
C1458 C1459 1.394 . S
C1458 H1466 0.930 . S
C1459 C1458 1.394 . S
C1459 C1460 1.383 . S
C1459 H1467 0.929 . S
C1460 C1459 1.383 . S
C1460 C1461 1.377 . S
C1461 H1445 0.930 . S
C1461 C1460 1.377 . S
C1461 C1462 1.379 . S
C1462 H1446 0.931 . S
C1462 C1456 1.383 . S
C1462 C1461 1.379 . S
H1463 C1457 0.959 . S
H1464 C1457 0.961 . S
H1465 C1457 0.960 . S
H1466 C1458 0.930 . S
H1467 C1459 0.929 . S
H1468 C1476 0.929 . S
H1469 C1478 0.930 . S
H1470 C1480 0.930 . S
H1471 C1483 0.929 . S
H1472 C1486 0.930 . S
H1473 C1488 0.960 . S
H1474 C1488 0.960 . S
H1475 C1488 0.960 . S
C1476 H1468 0.929 . S
C1476 C1477 1.377 . S
C1476 C1478 1.384 . S
C1477 C1476 1.377 . S
C1477 C1483 1.390 . S
C1478 H1469 0.930 . S
C1478 C1476 1.384 . S
C1478 C1479 1.372 . S
C1479 C1478 1.372 . S
C1479 C1480 1.400 . S
C1479 C1484 1.490 . S
C1480 H1470 0.930 . S
C1480 C1479 1.400 . S
C1480 C1483 1.386 . S
H1481 C1497 0.930 . S
H1482 C1498 0.931 . S
C1483 H1471 0.929 . S
C1483 C1477 1.390 . S
C1483 C1480 1.386 . S
C1484 C1479 1.490 . S
C1484 C1486 1.395 . S
C1484 C1487 1.403 . S
H1485 C1491 0.930 . S
C1486 H1472 0.930 . S
C1486 C1484 1.395 . S
C1486 C1489 1.403 . S
C1487 C1484 1.403 . S
C1487 C1488 1.524 . S
C1487 C1491 1.400 . S
C1488 H1473 0.960 . S
C1488 H1474 0.960 . S
C1488 H1475 0.960 . S
C1488 C1487 1.524 . S
C1489 C1486 1.403 . S
C1489 C1490 1.392 . S
C1489 C1493 1.495 . S
C1490 C1489 1.392 . S
C1490 C1491 1.385 . S
C1490 C1492 1.478 . S
C1491 H1485 0.930 . S
C1491 C1487 1.400 . S
C1491 C1490 1.385 . S
C1492 C1490 1.478 . S
C1492 C1494 1.381 . S
C1492 C1498 1.383 . S
C1493 C1489 1.495 . S
C1493 H1499 0.959 . S
C1493 H1500 0.961 . S
C1493 H1501 0.960 . S
C1494 C1492 1.381 . S
C1494 C1495 1.394 . S
C1494 H1502 0.930 . S
C1495 C1494 1.394 . S
C1495 C1496 1.383 . S
C1495 H1503 0.929 . S
C1496 C1495 1.383 . S
C1496 C1497 1.377 . S
C1497 H1481 0.930 . S
C1497 C1496 1.377 . S
C1497 C1498 1.379 . S
C1498 H1482 0.931 . S
C1498 C1492 1.383 . S
C1498 C1497 1.379 . S
H1499 C1493 0.959 . S
H1500 C1493 0.961 . S
H1501 C1493 0.960 . S
H1502 C1494 0.930 . S
H1503 C1495 0.929 . S
H1504 C1512 0.929 . S
H1505 C1514 0.930 . S
H1506 C1516 0.930 . S
H1507 C1519 0.929 . S
H1508 C1522 0.930 . S
H1509 C1524 0.960 . S
H1510 C1524 0.960 . S
H1511 C1524 0.960 . S
C1512 H1504 0.929 . S
C1512 C1513 1.377 . S
C1512 C1514 1.384 . S
C1513 C1512 1.377 . S
C1513 C1519 1.390 . S
C1514 H1505 0.930 . S
C1514 C1512 1.384 . S
C1514 C1515 1.372 . S
C1515 C1514 1.372 . S
C1515 C1516 1.400 . S
C1515 C1520 1.490 . S
C1516 H1506 0.930 . S
C1516 C1515 1.400 . S
C1516 C1519 1.386 . S
H1517 C1533 0.930 . S
H1518 C1534 0.931 . S
C1519 H1507 0.929 . S
C1519 C1513 1.390 . S
C1519 C1516 1.386 . S
C1520 C1515 1.490 . S
C1520 C1522 1.395 . S
C1520 C1523 1.403 . S
H1521 C1527 0.930 . S
C1522 H1508 0.930 . S
C1522 C1520 1.395 . S
C1522 C1525 1.403 . S
C1523 C1520 1.403 . S
C1523 C1524 1.524 . S
C1523 C1527 1.400 . S
C1524 H1509 0.960 . S
C1524 H1510 0.960 . S
C1524 H1511 0.960 . S
C1524 C1523 1.524 . S
C1525 C1522 1.403 . S
C1525 C1526 1.392 . S
C1525 C1529 1.495 . S
C1526 C1525 1.392 . S
C1526 C1527 1.385 . S
C1526 C1528 1.478 . S
C1527 H1521 0.930 . S
C1527 C1523 1.400 . S
C1527 C1526 1.385 . S
C1528 C1526 1.478 . S
C1528 C1530 1.381 . S
C1528 C1534 1.383 . S
C1529 C1525 1.495 . S
C1529 H1535 0.959 . S
C1529 H1536 0.961 . S
C1529 H1537 0.960 . S
C1530 C1528 1.381 . S
C1530 C1531 1.394 . S
C1530 H1538 0.930 . S
C1531 C1530 1.394 . S
C1531 C1532 1.383 . S
C1531 H1539 0.929 . S
C1532 C1531 1.383 . S
C1532 C1533 1.377 . S
C1533 H1517 0.930 . S
C1533 C1532 1.377 . S
C1533 C1534 1.379 . S
C1534 H1518 0.931 . S
C1534 C1528 1.383 . S
C1534 C1533 1.379 . S
H1535 C1529 0.959 . S
H1536 C1529 0.961 . S
H1537 C1529 0.960 . S
H1538 C1530 0.930 . S
H1539 C1531 0.929 . S
H1540 C1548 0.929 . S
H1541 C1550 0.930 . S
H1542 C1552 0.930 . S
H1543 C1555 0.929 . S
H1544 C1558 0.930 . S
H1545 C1560 0.960 . S
H1546 C1560 0.960 . S
H1547 C1560 0.960 . S
C1548 H1540 0.929 . S
C1548 C1549 1.377 . S
C1548 C1550 1.384 . S
C1549 C1548 1.377 . S
C1549 C1555 1.390 . S
C1550 H1541 0.930 . S
C1550 C1548 1.384 . S
C1550 C1551 1.372 . S
C1551 C1550 1.372 . S
C1551 C1552 1.400 . S
C1551 C1556 1.490 . S
C1552 H1542 0.930 . S
C1552 C1551 1.400 . S
C1552 C1555 1.386 . S
H1553 C1569 0.930 . S
H1554 C1570 0.931 . S
C1555 H1543 0.929 . S
C1555 C1549 1.390 . S
C1555 C1552 1.386 . S
C1556 C1551 1.490 . S
C1556 C1558 1.395 . S
C1556 C1559 1.403 . S
H1557 C1563 0.930 . S
C1558 H1544 0.930 . S
C1558 C1556 1.395 . S
C1558 C1561 1.403 . S
C1559 C1556 1.403 . S
C1559 C1560 1.524 . S
C1559 C1563 1.400 . S
C1560 H1545 0.960 . S
C1560 H1546 0.960 . S
C1560 H1547 0.960 . S
C1560 C1559 1.524 . S
C1561 C1558 1.403 . S
C1561 C1562 1.392 . S
C1561 C1565 1.495 . S
C1562 C1561 1.392 . S
C1562 C1563 1.385 . S
C1562 C1564 1.478 . S
C1563 H1557 0.930 . S
C1563 C1559 1.400 . S
C1563 C1562 1.385 . S
C1564 C1562 1.478 . S
C1564 C1566 1.381 . S
C1564 C1570 1.383 . S
C1565 C1561 1.495 . S
C1565 H1571 0.959 . S
C1565 H1572 0.961 . S
C1565 H1573 0.960 . S
C1566 C1564 1.381 . S
C1566 C1567 1.394 . S
C1566 H1574 0.930 . S
C1567 C1566 1.394 . S
C1567 C1568 1.383 . S
C1567 H1575 0.929 . S
C1568 C1567 1.383 . S
C1568 C1569 1.377 . S
C1569 H1553 0.930 . S
C1569 C1568 1.377 . S
C1569 C1570 1.379 . S
C1570 H1554 0.931 . S
C1570 C1564 1.383 . S
C1570 C1569 1.379 . S
H1571 C1565 0.959 . S
H1572 C1565 0.961 . S
H1573 C1565 0.960 . S
H1574 C1566 0.930 . S
H1575 C1567 0.929 . S
H1576 C1584 0.929 . S
H1577 C1586 0.930 . S
H1578 C1588 0.930 . S
H1579 C1591 0.929 . S
H1580 C1594 0.930 . S
H1581 C1596 0.960 . S
H1582 C1596 0.960 . S
H1583 C1596 0.960 . S
C1584 H1576 0.929 . S
C1584 C1585 1.377 . S
C1584 C1586 1.384 . S
C1585 C1584 1.377 . S
C1585 C1591 1.390 . S
C1586 H1577 0.930 . S
C1586 C1584 1.384 . S
C1586 C1587 1.372 . S
C1587 C1586 1.372 . S
C1587 C1588 1.400 . S
C1587 C1592 1.490 . S
C1588 H1578 0.930 . S
C1588 C1587 1.400 . S
C1588 C1591 1.386 . S
H1589 C1605 0.930 . S
H1590 C1606 0.931 . S
C1591 H1579 0.929 . S
C1591 C1585 1.390 . S
C1591 C1588 1.386 . S
C1592 C1587 1.490 . S
C1592 C1594 1.395 . S
C1592 C1595 1.403 . S
H1593 C1599 0.930 . S
C1594 H1580 0.930 . S
C1594 C1592 1.395 . S
C1594 C1597 1.403 . S
C1595 C1592 1.403 . S
C1595 C1596 1.524 . S
C1595 C1599 1.400 . S
C1596 H1581 0.960 . S
C1596 H1582 0.960 . S
C1596 H1583 0.960 . S
C1596 C1595 1.524 . S
C1597 C1594 1.403 . S
C1597 C1598 1.392 . S
C1597 C1601 1.495 . S
C1598 C1597 1.392 . S
C1598 C1599 1.385 . S
C1598 C1600 1.478 . S
C1599 H1593 0.930 . S
C1599 C1595 1.400 . S
C1599 C1598 1.385 . S
C1600 C1598 1.478 . S
C1600 C1602 1.381 . S
C1600 C1606 1.383 . S
C1601 C1597 1.495 . S
C1601 H1607 0.959 . S
C1601 H1608 0.961 . S
C1601 H1609 0.960 . S
C1602 C1600 1.381 . S
C1602 C1603 1.394 . S
C1602 H1610 0.930 . S
C1603 C1602 1.394 . S
C1603 C1604 1.383 . S
C1603 H1611 0.929 . S
C1604 C1603 1.383 . S
C1604 C1605 1.377 . S
C1605 H1589 0.930 . S
C1605 C1604 1.377 . S
C1605 C1606 1.379 . S
C1606 H1590 0.931 . S
C1606 C1600 1.383 . S
C1606 C1605 1.379 . S
H1607 C1601 0.959 . S
H1608 C1601 0.961 . S
H1609 C1601 0.960 . S
H1610 C1602 0.930 . S
H1611 C1603 0.929 . S
H1612 C1620 0.929 . S
H1613 C1622 0.930 . S
H1614 C1624 0.930 . S
H1615 C1627 0.929 . S
H1616 C1630 0.930 . S
H1617 C1632 0.960 . S
H1618 C1632 0.960 . S
H1619 C1632 0.960 . S
C1620 H1612 0.929 . S
C1620 C1621 1.377 . S
C1620 C1622 1.384 . S
C1621 C1620 1.377 . S
C1621 C1627 1.390 . S
C1622 H1613 0.930 . S
C1622 C1620 1.384 . S
C1622 C1623 1.372 . S
C1623 C1622 1.372 . S
C1623 C1624 1.400 . S
C1623 C1628 1.490 . S
C1624 H1614 0.930 . S
C1624 C1623 1.400 . S
C1624 C1627 1.386 . S
H1625 C1641 0.930 . S
H1626 C1642 0.931 . S
C1627 H1615 0.929 . S
C1627 C1621 1.390 . S
C1627 C1624 1.386 . S
C1628 C1623 1.490 . S
C1628 C1630 1.395 . S
C1628 C1631 1.403 . S
H1629 C1635 0.930 . S
C1630 H1616 0.930 . S
C1630 C1628 1.395 . S
C1630 C1633 1.403 . S
C1631 C1628 1.403 . S
C1631 C1632 1.524 . S
C1631 C1635 1.400 . S
C1632 H1617 0.960 . S
C1632 H1618 0.960 . S
C1632 H1619 0.960 . S
C1632 C1631 1.524 . S
C1633 C1630 1.403 . S
C1633 C1634 1.392 . S
C1633 C1637 1.495 . S
C1634 C1633 1.392 . S
C1634 C1635 1.385 . S
C1634 C1636 1.478 . S
C1635 H1629 0.930 . S
C1635 C1631 1.400 . S
C1635 C1634 1.385 . S
C1636 C1634 1.478 . S
C1636 C1638 1.381 . S
C1636 C1642 1.383 . S
C1637 C1633 1.495 . S
C1637 H1643 0.959 . S
C1637 H1644 0.961 . S
C1637 H1645 0.960 . S
C1638 C1636 1.381 . S
C1638 C1639 1.394 . S
C1638 H1646 0.930 . S
C1639 C1638 1.394 . S
C1639 C1640 1.383 . S
C1639 H1647 0.929 . S
C1640 C1639 1.383 . S
C1640 C1641 1.377 . S
C1641 H1625 0.930 . S
C1641 C1640 1.377 . S
C1641 C1642 1.379 . S
C1642 H1626 0.931 . S
C1642 C1636 1.383 . S
C1642 C1641 1.379 . S
H1643 C1637 0.959 . S
H1644 C1637 0.961 . S
H1645 C1637 0.960 . S
H1646 C1638 0.930 . S
H1647 C1639 0.929 . S
H1648 C1656 0.929 . S
H1649 C1658 0.930 . S
H1650 C1660 0.930 . S
H1651 C1663 0.929 . S
H1652 C1666 0.930 . S
H1653 C1668 0.960 . S
H1654 C1668 0.960 . S
H1655 C1668 0.960 . S
C1656 H1648 0.929 . S
C1656 C1657 1.377 . S
C1656 C1658 1.384 . S
C1657 C1656 1.377 . S
C1657 C1663 1.390 . S
C1658 H1649 0.930 . S
C1658 C1656 1.384 . S
C1658 C1659 1.372 . S
C1659 C1658 1.372 . S
C1659 C1660 1.400 . S
C1659 C1664 1.490 . S
C1660 H1650 0.930 . S
C1660 C1659 1.400 . S
C1660 C1663 1.386 . S
H1661 C1677 0.930 . S
H1662 C1678 0.931 . S
C1663 H1651 0.929 . S
C1663 C1657 1.390 . S
C1663 C1660 1.386 . S
C1664 C1659 1.490 . S
C1664 C1666 1.395 . S
C1664 C1667 1.403 . S
H1665 C1671 0.930 . S
C1666 H1652 0.930 . S
C1666 C1664 1.395 . S
C1666 C1669 1.403 . S
C1667 C1664 1.403 . S
C1667 C1668 1.524 . S
C1667 C1671 1.400 . S
C1668 H1653 0.960 . S
C1668 H1654 0.960 . S
C1668 H1655 0.960 . S
C1668 C1667 1.524 . S
C1669 C1666 1.403 . S
C1669 C1670 1.392 . S
C1669 C1673 1.495 . S
C1670 C1669 1.392 . S
C1670 C1671 1.385 . S
C1670 C1672 1.478 . S
C1671 H1665 0.930 . S
C1671 C1667 1.400 . S
C1671 C1670 1.385 . S
C1672 C1670 1.478 . S
C1672 C1674 1.381 . S
C1672 C1678 1.383 . S
C1673 C1669 1.495 . S
C1673 H1679 0.959 . S
C1673 H1680 0.961 . S
C1673 H1681 0.960 . S
C1674 C1672 1.381 . S
C1674 C1675 1.394 . S
C1674 H1682 0.930 . S
C1675 C1674 1.394 . S
C1675 C1676 1.383 . S
C1675 H1683 0.929 . S
C1676 C1675 1.383 . S
C1676 C1677 1.377 . S
C1677 H1661 0.930 . S
C1677 C1676 1.377 . S
C1677 C1678 1.379 . S
C1678 H1662 0.931 . S
C1678 C1672 1.383 . S
C1678 C1677 1.379 . S
H1679 C1673 0.959 . S
H1680 C1673 0.961 . S
H1681 C1673 0.960 . S
H1682 C1674 0.930 . S
H1683 C1675 0.929 . S
H1684 C1692 0.929 . S
H1685 C1694 0.930 . S
H1686 C1696 0.930 . S
H1687 C1699 0.929 . S
H1688 C1702 0.930 . S
H1689 C1704 0.960 . S
H1690 C1704 0.960 . S
H1691 C1704 0.960 . S
C1692 H1684 0.929 . S
C1692 C1693 1.377 . S
C1692 C1694 1.384 . S
C1693 C1692 1.377 . S
C1693 C1699 1.390 . S
C1694 H1685 0.930 . S
C1694 C1692 1.384 . S
C1694 C1695 1.372 . S
C1695 C1694 1.372 . S
C1695 C1696 1.400 . S
C1695 C1700 1.490 . S
C1696 H1686 0.930 . S
C1696 C1695 1.400 . S
C1696 C1699 1.386 . S
H1697 C1713 0.930 . S
H1698 C1714 0.931 . S
C1699 H1687 0.929 . S
C1699 C1693 1.390 . S
C1699 C1696 1.386 . S
C1700 C1695 1.490 . S
C1700 C1702 1.395 . S
C1700 C1703 1.403 . S
H1701 C1707 0.930 . S
C1702 H1688 0.930 . S
C1702 C1700 1.395 . S
C1702 C1705 1.403 . S
C1703 C1700 1.403 . S
C1703 C1704 1.524 . S
C1703 C1707 1.400 . S
C1704 H1689 0.960 . S
C1704 H1690 0.960 . S
C1704 H1691 0.960 . S
C1704 C1703 1.524 . S
C1705 C1702 1.403 . S
C1705 C1706 1.392 . S
C1705 C1709 1.495 . S
C1706 C1705 1.392 . S
C1706 C1707 1.385 . S
C1706 C1708 1.478 . S
C1707 H1701 0.930 . S
C1707 C1703 1.400 . S
C1707 C1706 1.385 . S
C1708 C1706 1.478 . S
C1708 C1710 1.381 . S
C1708 C1714 1.383 . S
C1709 C1705 1.495 . S
C1709 H1715 0.959 . S
C1709 H1716 0.961 . S
C1709 H1717 0.960 . S
C1710 C1708 1.381 . S
C1710 C1711 1.394 . S
C1710 H1718 0.930 . S
C1711 C1710 1.394 . S
C1711 C1712 1.383 . S
C1711 H1719 0.929 . S
C1712 C1711 1.383 . S
C1712 C1713 1.377 . S
C1713 H1697 0.930 . S
C1713 C1712 1.377 . S
C1713 C1714 1.379 . S
C1714 H1698 0.931 . S
C1714 C1708 1.383 . S
C1714 C1713 1.379 . S
H1715 C1709 0.959 . S
H1716 C1709 0.961 . S
H1717 C1709 0.960 . S
H1718 C1710 0.930 . S
H1719 C1711 0.929 . S
H1720 C1728 0.929 . S
H1721 C1730 0.930 . S
H1722 C1732 0.930 . S
H1723 C1735 0.929 . S
H1724 C1738 0.930 . S
H1725 C1740 0.960 . S
H1726 C1740 0.960 . S
H1727 C1740 0.960 . S
C1728 H1720 0.929 . S
C1728 C1729 1.377 . S
C1728 C1730 1.384 . S
C1729 C1728 1.377 . S
C1729 C1735 1.390 . S
C1730 H1721 0.930 . S
C1730 C1728 1.384 . S
C1730 C1731 1.372 . S
C1731 C1730 1.372 . S
C1731 C1732 1.400 . S
C1731 C1736 1.490 . S
C1732 H1722 0.930 . S
C1732 C1731 1.400 . S
C1732 C1735 1.386 . S
H1733 C1749 0.930 . S
H1734 C1750 0.931 . S
C1735 H1723 0.929 . S
C1735 C1729 1.390 . S
C1735 C1732 1.386 . S
C1736 C1731 1.490 . S
C1736 C1738 1.395 . S
C1736 C1739 1.403 . S
H1737 C1743 0.930 . S
C1738 H1724 0.930 . S
C1738 C1736 1.395 . S
C1738 C1741 1.403 . S
C1739 C1736 1.403 . S
C1739 C1740 1.524 . S
C1739 C1743 1.400 . S
C1740 H1725 0.960 . S
C1740 H1726 0.960 . S
C1740 H1727 0.960 . S
C1740 C1739 1.524 . S
C1741 C1738 1.403 . S
C1741 C1742 1.392 . S
C1741 C1745 1.495 . S
C1742 C1741 1.392 . S
C1742 C1743 1.385 . S
C1742 C1744 1.478 . S
C1743 H1737 0.930 . S
C1743 C1739 1.400 . S
C1743 C1742 1.385 . S
C1744 C1742 1.478 . S
C1744 C1746 1.381 . S
C1744 C1750 1.383 . S
C1745 C1741 1.495 . S
C1745 H1751 0.959 . S
C1745 H1752 0.961 . S
C1745 H1753 0.960 . S
C1746 C1744 1.381 . S
C1746 C1747 1.394 . S
C1746 H1754 0.930 . S
C1747 C1746 1.394 . S
C1747 C1748 1.383 . S
C1747 H1755 0.929 . S
C1748 C1747 1.383 . S
C1748 C1749 1.377 . S
C1749 H1733 0.930 . S
C1749 C1748 1.377 . S
C1749 C1750 1.379 . S
C1750 H1734 0.931 . S
C1750 C1744 1.383 . S
C1750 C1749 1.379 . S
H1751 C1745 0.959 . S
H1752 C1745 0.961 . S
H1753 C1745 0.960 . S
H1754 C1746 0.930 . S
H1755 C1747 0.929 . S
H1756 C1764 0.929 . S
H1757 C1766 0.930 . S
H1758 C1768 0.930 . S
H1759 C1771 0.929 . S
H1760 C1774 0.930 . S
H1761 C1776 0.960 . S
H1762 C1776 0.960 . S
H1763 C1776 0.960 . S
C1764 H1756 0.929 . S
C1764 C1765 1.377 . S
C1764 C1766 1.384 . S
C1765 C1764 1.377 . S
C1765 C1771 1.390 . S
C1766 H1757 0.930 . S
C1766 C1764 1.384 . S
C1766 C1767 1.372 . S
C1767 C1766 1.372 . S
C1767 C1768 1.400 . S
C1767 C1772 1.490 . S
C1768 H1758 0.930 . S
C1768 C1767 1.400 . S
C1768 C1771 1.386 . S
H1769 C1785 0.930 . S
H1770 C1786 0.931 . S
C1771 H1759 0.929 . S
C1771 C1765 1.390 . S
C1771 C1768 1.386 . S
C1772 C1767 1.490 . S
C1772 C1774 1.395 . S
C1772 C1775 1.403 . S
H1773 C1779 0.930 . S
C1774 H1760 0.930 . S
C1774 C1772 1.395 . S
C1774 C1777 1.403 . S
C1775 C1772 1.403 . S
C1775 C1776 1.524 . S
C1775 C1779 1.400 . S
C1776 H1761 0.960 . S
C1776 H1762 0.960 . S
C1776 H1763 0.960 . S
C1776 C1775 1.524 . S
C1777 C1774 1.403 . S
C1777 C1778 1.392 . S
C1777 C1781 1.495 . S
C1778 C1777 1.392 . S
C1778 C1779 1.385 . S
C1778 C1780 1.478 . S
C1779 H1773 0.930 . S
C1779 C1775 1.400 . S
C1779 C1778 1.385 . S
C1780 C1778 1.478 . S
C1780 C1782 1.381 . S
C1780 C1786 1.383 . S
C1781 C1777 1.495 . S
C1781 H1787 0.959 . S
C1781 H1788 0.961 . S
C1781 H1789 0.960 . S
C1782 C1780 1.381 . S
C1782 C1783 1.394 . S
C1782 H1790 0.930 . S
C1783 C1782 1.394 . S
C1783 C1784 1.383 . S
C1783 H1791 0.929 . S
C1784 C1783 1.383 . S
C1784 C1785 1.377 . S
C1785 H1769 0.930 . S
C1785 C1784 1.377 . S
C1785 C1786 1.379 . S
C1786 H1770 0.931 . S
C1786 C1780 1.383 . S
C1786 C1785 1.379 . S
H1787 C1781 0.959 . S
H1788 C1781 0.961 . S
H1789 C1781 0.960 . S
H1790 C1782 0.930 . S
H1791 C1783 0.929 . S
H1792 C1800 0.929 . S
H1793 C1802 0.930 . S
H1794 C1804 0.930 . S
H1795 C1807 0.929 . S
H1796 C1810 0.930 . S
H1797 C1812 0.960 . S
H1798 C1812 0.960 . S
H1799 C1812 0.960 . S
C1800 H1792 0.929 . S
C1800 C1801 1.377 . S
C1800 C1802 1.384 . S
C1801 C1800 1.377 . S
C1801 C1807 1.390 . S
C1802 H1793 0.930 . S
C1802 C1800 1.384 . S
C1802 C1803 1.372 . S
C1803 C1802 1.372 . S
C1803 C1804 1.400 . S
C1803 C1808 1.490 . S
C1804 H1794 0.930 . S
C1804 C1803 1.400 . S
C1804 C1807 1.386 . S
H1805 C1821 0.930 . S
H1806 C1822 0.931 . S
C1807 H1795 0.929 . S
C1807 C1801 1.390 . S
C1807 C1804 1.386 . S
C1808 C1803 1.490 . S
C1808 C1810 1.395 . S
C1808 C1811 1.403 . S
H1809 C1815 0.930 . S
C1810 H1796 0.930 . S
C1810 C1808 1.395 . S
C1810 C1813 1.403 . S
C1811 C1808 1.403 . S
C1811 C1812 1.524 . S
C1811 C1815 1.400 . S
C1812 H1797 0.960 . S
C1812 H1798 0.960 . S
C1812 H1799 0.960 . S
C1812 C1811 1.524 . S
C1813 C1810 1.403 . S
C1813 C1814 1.392 . S
C1813 C1817 1.495 . S
C1814 C1813 1.392 . S
C1814 C1815 1.385 . S
C1814 C1816 1.478 . S
C1815 H1809 0.930 . S
C1815 C1811 1.400 . S
C1815 C1814 1.385 . S
C1816 C1814 1.478 . S
C1816 C1818 1.381 . S
C1816 C1822 1.383 . S
C1817 C1813 1.495 . S
C1817 H1823 0.959 . S
C1817 H1824 0.961 . S
C1817 H1825 0.960 . S
C1818 C1816 1.381 . S
C1818 C1819 1.394 . S
C1818 H1826 0.930 . S
C1819 C1818 1.394 . S
C1819 C1820 1.383 . S
C1819 H1827 0.929 . S
C1820 C1819 1.383 . S
C1820 C1821 1.377 . S
C1821 H1805 0.930 . S
C1821 C1820 1.377 . S
C1821 C1822 1.379 . S
C1822 H1806 0.931 . S
C1822 C1816 1.383 . S
C1822 C1821 1.379 . S
H1823 C1817 0.959 . S
H1824 C1817 0.961 . S
H1825 C1817 0.960 . S
H1826 C1818 0.930 . S
H1827 C1819 0.929 . S
H1828 C1836 0.929 . S
H1829 C1838 0.930 . S
H1830 C1840 0.930 . S
H1831 C1843 0.929 . S
H1832 C1846 0.930 . S
H1833 C1848 0.960 . S
H1834 C1848 0.960 . S
H1835 C1848 0.960 . S
C1836 H1828 0.929 . S
C1836 C1837 1.377 . S
C1836 C1838 1.384 . S
C1837 C1836 1.377 . S
C1837 C1843 1.390 . S
C1838 H1829 0.930 . S
C1838 C1836 1.384 . S
C1838 C1839 1.372 . S
C1839 C1838 1.372 . S
C1839 C1840 1.400 . S
C1839 C1844 1.490 . S
C1840 H1830 0.930 . S
C1840 C1839 1.400 . S
C1840 C1843 1.386 . S
H1841 C1857 0.930 . S
H1842 C1858 0.931 . S
C1843 H1831 0.929 . S
C1843 C1837 1.390 . S
C1843 C1840 1.386 . S
C1844 C1839 1.490 . S
C1844 C1846 1.395 . S
C1844 C1847 1.403 . S
H1845 C1851 0.930 . S
C1846 H1832 0.930 . S
C1846 C1844 1.395 . S
C1846 C1849 1.403 . S
C1847 C1844 1.403 . S
C1847 C1848 1.524 . S
C1847 C1851 1.400 . S
C1848 H1833 0.960 . S
C1848 H1834 0.960 . S
C1848 H1835 0.960 . S
C1848 C1847 1.524 . S
C1849 C1846 1.403 . S
C1849 C1850 1.392 . S
C1849 C1853 1.495 . S
C1850 C1849 1.392 . S
C1850 C1851 1.385 . S
C1850 C1852 1.478 . S
C1851 H1845 0.930 . S
C1851 C1847 1.400 . S
C1851 C1850 1.385 . S
C1852 C1850 1.478 . S
C1852 C1854 1.381 . S
C1852 C1858 1.383 . S
C1853 C1849 1.495 . S
C1853 H1859 0.959 . S
C1853 H1860 0.961 . S
C1853 H1861 0.960 . S
C1854 C1852 1.381 . S
C1854 C1855 1.394 . S
C1854 H1862 0.930 . S
C1855 C1854 1.394 . S
C1855 C1856 1.383 . S
C1855 H1863 0.929 . S
C1856 C1855 1.383 . S
C1856 C1857 1.377 . S
C1857 H1841 0.930 . S
C1857 C1856 1.377 . S
C1857 C1858 1.379 . S
C1858 H1842 0.931 . S
C1858 C1852 1.383 . S
C1858 C1857 1.379 . S
H1859 C1853 0.959 . S
H1860 C1853 0.961 . S
H1861 C1853 0.960 . S
H1862 C1854 0.930 . S
H1863 C1855 0.929 . S
H1864 C1872 0.929 . S
H1865 C1874 0.930 . S
H1866 C1876 0.930 . S
H1867 C1879 0.929 . S
H1868 C1882 0.930 . S
H1869 C1884 0.960 . S
H1870 C1884 0.960 . S
H1871 C1884 0.960 . S
C1872 H1864 0.929 . S
C1872 C1873 1.377 . S
C1872 C1874 1.384 . S
C1873 C1872 1.377 . S
C1873 C1879 1.390 . S
C1874 H1865 0.930 . S
C1874 C1872 1.384 . S
C1874 C1875 1.372 . S
C1875 C1874 1.372 . S
C1875 C1876 1.400 . S
C1875 C1880 1.490 . S
C1876 H1866 0.930 . S
C1876 C1875 1.400 . S
C1876 C1879 1.386 . S
H1877 C1893 0.930 . S
H1878 C1894 0.931 . S
C1879 H1867 0.929 . S
C1879 C1873 1.390 . S
C1879 C1876 1.386 . S
C1880 C1875 1.490 . S
C1880 C1882 1.395 . S
C1880 C1883 1.403 . S
H1881 C1887 0.930 . S
C1882 H1868 0.930 . S
C1882 C1880 1.395 . S
C1882 C1885 1.403 . S
C1883 C1880 1.403 . S
C1883 C1884 1.524 . S
C1883 C1887 1.400 . S
C1884 H1869 0.960 . S
C1884 H1870 0.960 . S
C1884 H1871 0.960 . S
C1884 C1883 1.524 . S
C1885 C1882 1.403 . S
C1885 C1886 1.392 . S
C1885 C1889 1.495 . S
C1886 C1885 1.392 . S
C1886 C1887 1.385 . S
C1886 C1888 1.478 . S
C1887 H1881 0.930 . S
C1887 C1883 1.400 . S
C1887 C1886 1.385 . S
C1888 C1886 1.478 . S
C1888 C1890 1.381 . S
C1888 C1894 1.383 . S
C1889 C1885 1.495 . S
C1889 H1895 0.959 . S
C1889 H1896 0.961 . S
C1889 H1897 0.960 . S
C1890 C1888 1.381 . S
C1890 C1891 1.394 . S
C1890 H1898 0.930 . S
C1891 C1890 1.394 . S
C1891 C1892 1.383 . S
C1891 H1899 0.929 . S
C1892 C1891 1.383 . S
C1892 C1893 1.377 . S
C1893 H1877 0.930 . S
C1893 C1892 1.377 . S
C1893 C1894 1.379 . S
C1894 H1878 0.931 . S
C1894 C1888 1.383 . S
C1894 C1893 1.379 . S
H1895 C1889 0.959 . S
H1896 C1889 0.961 . S
H1897 C1889 0.960 . S
H1898 C1890 0.930 . S
H1899 C1891 0.929 . S
H1900 C1908 0.929 . S
H1901 C1910 0.930 . S
H1902 C1912 0.930 . S
H1903 C1915 0.929 . S
H1904 C1918 0.930 . S
H1905 C1920 0.960 . S
H1906 C1920 0.960 . S
H1907 C1920 0.960 . S
C1908 H1900 0.929 . S
C1908 C1909 1.377 . S
C1908 C1910 1.384 . S
C1909 C1908 1.377 . S
C1909 C1915 1.390 . S
C1910 H1901 0.930 . S
C1910 C1908 1.384 . S
C1910 C1911 1.372 . S
C1911 C1910 1.372 . S
C1911 C1912 1.400 . S
C1911 C1916 1.490 . S
C1912 H1902 0.930 . S
C1912 C1911 1.400 . S
C1912 C1915 1.386 . S
H1913 C1929 0.930 . S
H1914 C1930 0.931 . S
C1915 H1903 0.929 . S
C1915 C1909 1.390 . S
C1915 C1912 1.386 . S
C1916 C1911 1.490 . S
C1916 C1918 1.395 . S
C1916 C1919 1.403 . S
H1917 C1923 0.930 . S
C1918 H1904 0.930 . S
C1918 C1916 1.395 . S
C1918 C1921 1.403 . S
C1919 C1916 1.403 . S
C1919 C1920 1.524 . S
C1919 C1923 1.400 . S
C1920 H1905 0.960 . S
C1920 H1906 0.960 . S
C1920 H1907 0.960 . S
C1920 C1919 1.524 . S
C1921 C1918 1.403 . S
C1921 C1922 1.392 . S
C1921 C1925 1.495 . S
C1922 C1921 1.392 . S
C1922 C1923 1.385 . S
C1922 C1924 1.478 . S
C1923 H1917 0.930 . S
C1923 C1919 1.400 . S
C1923 C1922 1.385 . S
C1924 C1922 1.478 . S
C1924 C1926 1.381 . S
C1924 C1930 1.383 . S
C1925 C1921 1.495 . S
C1925 H1931 0.959 . S
C1925 H1932 0.961 . S
C1925 H1933 0.960 . S
C1926 C1924 1.381 . S
C1926 C1927 1.394 . S
C1926 H1934 0.930 . S
C1927 C1926 1.394 . S
C1927 C1928 1.383 . S
C1927 H1935 0.929 . S
C1928 C1927 1.383 . S
C1928 C1929 1.377 . S
C1929 H1913 0.930 . S
C1929 C1928 1.377 . S
C1929 C1930 1.379 . S
C1930 H1914 0.931 . S
C1930 C1924 1.383 . S
C1930 C1929 1.379 . S
H1931 C1925 0.959 . S
H1932 C1925 0.961 . S
H1933 C1925 0.960 . S
H1934 C1926 0.930 . S
H1935 C1927 0.929 . S
H1936 C1944 0.929 . S
H1937 C1946 0.930 . S
H1938 C1948 0.930 . S
H1939 C1951 0.929 . S
H1940 C1954 0.930 . S
H1941 C1956 0.960 . S
H1942 C1956 0.960 . S
H1943 C1956 0.960 . S
C1944 H1936 0.929 . S
C1944 C1945 1.377 . S
C1944 C1946 1.384 . S
C1945 C1944 1.377 . S
C1945 C1951 1.390 . S
C1946 H1937 0.930 . S
C1946 C1944 1.384 . S
C1946 C1947 1.372 . S
C1947 C1946 1.372 . S
C1947 C1948 1.400 . S
C1947 C1952 1.490 . S
C1948 H1938 0.930 . S
C1948 C1947 1.400 . S
C1948 C1951 1.386 . S
H1949 C1965 0.930 . S
H1950 C1966 0.931 . S
C1951 H1939 0.929 . S
C1951 C1945 1.390 . S
C1951 C1948 1.386 . S
C1952 C1947 1.490 . S
C1952 C1954 1.395 . S
C1952 C1955 1.403 . S
H1953 C1959 0.930 . S
C1954 H1940 0.930 . S
C1954 C1952 1.395 . S
C1954 C1957 1.403 . S
C1955 C1952 1.403 . S
C1955 C1956 1.524 . S
C1955 C1959 1.400 . S
C1956 H1941 0.960 . S
C1956 H1942 0.960 . S
C1956 H1943 0.960 . S
C1956 C1955 1.524 . S
C1957 C1954 1.403 . S
C1957 C1958 1.392 . S
C1957 C1961 1.495 . S
C1958 C1957 1.392 . S
C1958 C1959 1.385 . S
C1958 C1960 1.478 . S
C1959 H1953 0.930 . S
C1959 C1955 1.400 . S
C1959 C1958 1.385 . S
C1960 C1958 1.478 . S
C1960 C1962 1.381 . S
C1960 C1966 1.383 . S
C1961 C1957 1.495 . S
C1961 H1967 0.959 . S
C1961 H1968 0.961 . S
C1961 H1969 0.960 . S
C1962 C1960 1.381 . S
C1962 C1963 1.394 . S
C1962 H1970 0.930 . S
C1963 C1962 1.394 . S
C1963 C1964 1.383 . S
C1963 H1971 0.929 . S
C1964 C1963 1.383 . S
C1964 C1965 1.377 . S
C1965 H1949 0.930 . S
C1965 C1964 1.377 . S
C1965 C1966 1.379 . S
C1966 H1950 0.931 . S
C1966 C1960 1.383 . S
C1966 C1965 1.379 . S
H1967 C1961 0.959 . S
H1968 C1961 0.961 . S
H1969 C1961 0.960 . S
H1970 C1962 0.930 . S
H1971 C1963 0.929 . S
H1972 C1980 0.929 . S
H1973 C1982 0.930 . S
H1974 C1984 0.930 . S
H1975 C1987 0.929 . S
H1976 C1990 0.930 . S
H1977 C1992 0.960 . S
H1978 C1992 0.960 . S
H1979 C1992 0.960 . S
C1980 H1972 0.929 . S
C1980 C1981 1.377 . S
C1980 C1982 1.384 . S
C1981 C1980 1.377 . S
C1981 C1987 1.390 . S
C1982 H1973 0.930 . S
C1982 C1980 1.384 . S
C1982 C1983 1.372 . S
C1983 C1982 1.372 . S
C1983 C1984 1.400 . S
C1983 C1988 1.490 . S
C1984 H1974 0.930 . S
C1984 C1983 1.400 . S
C1984 C1987 1.386 . S
H1985 C2001 0.930 . S
H1986 C2002 0.931 . S
C1987 H1975 0.929 . S
C1987 C1981 1.390 . S
C1987 C1984 1.386 . S
C1988 C1983 1.490 . S
C1988 C1990 1.395 . S
C1988 C1991 1.403 . S
H1989 C1995 0.930 . S
C1990 H1976 0.930 . S
C1990 C1988 1.395 . S
C1990 C1993 1.403 . S
C1991 C1988 1.403 . S
C1991 C1992 1.524 . S
C1991 C1995 1.400 . S
C1992 H1977 0.960 . S
C1992 H1978 0.960 . S
C1992 H1979 0.960 . S
C1992 C1991 1.524 . S
C1993 C1990 1.403 . S
C1993 C1994 1.392 . S
C1993 C1997 1.495 . S
C1994 C1993 1.392 . S
C1994 C1995 1.385 . S
C1994 C1996 1.478 . S
C1995 H1989 0.930 . S
C1995 C1991 1.400 . S
C1995 C1994 1.385 . S
C1996 C1994 1.478 . S
C1996 C1998 1.381 . S
C1996 C2002 1.383 . S
C1997 C1993 1.495 . S
C1997 H2003 0.959 . S
C1997 H2004 0.961 . S
C1997 H2005 0.960 . S
C1998 C1996 1.381 . S
C1998 C1999 1.394 . S
C1998 H2006 0.930 . S
C1999 C1998 1.394 . S
C1999 C2000 1.383 . S
C1999 H2007 0.929 . S
C2000 C1999 1.383 . S
C2000 C2001 1.377 . S
C2001 H1985 0.930 . S
C2001 C2000 1.377 . S
C2001 C2002 1.379 . S
C2002 H1986 0.931 . S
C2002 C1996 1.383 . S
C2002 C2001 1.379 . S
H2003 C1997 0.959 . S
H2004 C1997 0.961 . S
H2005 C1997 0.960 . S
H2006 C1998 0.930 . S
H2007 C1999 0.929 . S
H2008 C2016 0.929 . S
H2009 C2018 0.930 . S
H2010 C2020 0.930 . S
H2011 C2023 0.929 . S
H2012 C2026 0.930 . S
H2013 C2028 0.960 . S
H2014 C2028 0.960 . S
H2015 C2028 0.960 . S
C2016 H2008 0.929 . S
C2016 C2017 1.377 . S
C2016 C2018 1.384 . S
C2017 C2016 1.377 . S
C2017 C2023 1.390 . S
C2018 H2009 0.930 . S
C2018 C2016 1.384 . S
C2018 C2019 1.372 . S
C2019 C2018 1.372 . S
C2019 C2020 1.400 . S
C2019 C2024 1.490 . S
C2020 H2010 0.930 . S
C2020 C2019 1.400 . S
C2020 C2023 1.386 . S
H2021 C2037 0.930 . S
H2022 C2038 0.931 . S
C2023 H2011 0.929 . S
C2023 C2017 1.390 . S
C2023 C2020 1.386 . S
C2024 C2019 1.490 . S
C2024 C2026 1.395 . S
C2024 C2027 1.403 . S
H2025 C2031 0.930 . S
C2026 H2012 0.930 . S
C2026 C2024 1.395 . S
C2026 C2029 1.403 . S
C2027 C2024 1.403 . S
C2027 C2028 1.524 . S
C2027 C2031 1.400 . S
C2028 H2013 0.960 . S
C2028 H2014 0.960 . S
C2028 H2015 0.960 . S
C2028 C2027 1.524 . S
C2029 C2026 1.403 . S
C2029 C2030 1.392 . S
C2029 C2033 1.495 . S
C2030 C2029 1.392 . S
C2030 C2031 1.385 . S
C2030 C2032 1.478 . S
C2031 H2025 0.930 . S
C2031 C2027 1.400 . S
C2031 C2030 1.385 . S
C2032 C2030 1.478 . S
C2032 C2034 1.381 . S
C2032 C2038 1.383 . S
C2033 C2029 1.495 . S
C2033 H2039 0.959 . S
C2033 H2040 0.961 . S
C2033 H2041 0.960 . S
C2034 C2032 1.381 . S
C2034 C2035 1.394 . S
C2034 H2042 0.930 . S
C2035 C2034 1.394 . S
C2035 C2036 1.383 . S
C2035 H2043 0.929 . S
C2036 C2035 1.383 . S
C2036 C2037 1.377 . S
C2037 H2021 0.930 . S
C2037 C2036 1.377 . S
C2037 C2038 1.379 . S
C2038 H2022 0.931 . S
C2038 C2032 1.383 . S
C2038 C2037 1.379 . S
H2039 C2033 0.959 . S
H2040 C2033 0.961 . S
H2041 C2033 0.960 . S
H2042 C2034 0.930 . S
H2043 C2035 0.929 . S
H2044 C2052 0.929 . S
H2045 C2054 0.930 . S
H2046 C2056 0.930 . S
H2047 C2059 0.929 . S
H2048 C2062 0.930 . S
H2049 C2064 0.960 . S
H2050 C2064 0.960 . S
H2051 C2064 0.960 . S
C2052 H2044 0.929 . S
C2052 C2053 1.377 . S
C2052 C2054 1.384 . S
C2053 C2052 1.377 . S
C2053 C2059 1.390 . S
C2054 H2045 0.930 . S
C2054 C2052 1.384 . S
C2054 C2055 1.372 . S
C2055 C2054 1.372 . S
C2055 C2056 1.400 . S
C2055 C2060 1.490 . S
C2056 H2046 0.930 . S
C2056 C2055 1.400 . S
C2056 C2059 1.386 . S
H2057 C2073 0.930 . S
H2058 C2074 0.931 . S
C2059 H2047 0.929 . S
C2059 C2053 1.390 . S
C2059 C2056 1.386 . S
C2060 C2055 1.490 . S
C2060 C2062 1.395 . S
C2060 C2063 1.403 . S
H2061 C2067 0.930 . S
C2062 H2048 0.930 . S
C2062 C2060 1.395 . S
C2062 C2065 1.403 . S
C2063 C2060 1.403 . S
C2063 C2064 1.524 . S
C2063 C2067 1.400 . S
C2064 H2049 0.960 . S
C2064 H2050 0.960 . S
C2064 H2051 0.960 . S
C2064 C2063 1.524 . S
C2065 C2062 1.403 . S
C2065 C2066 1.392 . S
C2065 C2069 1.495 . S
C2066 C2065 1.392 . S
C2066 C2067 1.385 . S
C2066 C2068 1.478 . S
C2067 H2061 0.930 . S
C2067 C2063 1.400 . S
C2067 C2066 1.385 . S
C2068 C2066 1.478 . S
C2068 C2070 1.381 . S
C2068 C2074 1.383 . S
C2069 C2065 1.495 . S
C2069 H2075 0.959 . S
C2069 H2076 0.961 . S
C2069 H2077 0.960 . S
C2070 C2068 1.381 . S
C2070 C2071 1.394 . S
C2070 H2078 0.930 . S
C2071 C2070 1.394 . S
C2071 C2072 1.383 . S
C2071 H2079 0.929 . S
C2072 C2071 1.383 . S
C2072 C2073 1.377 . S
C2073 H2057 0.930 . S
C2073 C2072 1.377 . S
C2073 C2074 1.379 . S
C2074 H2058 0.931 . S
C2074 C2068 1.383 . S
C2074 C2073 1.379 . S
H2075 C2069 0.959 . S
H2076 C2069 0.961 . S
H2077 C2069 0.960 . S
H2078 C2070 0.930 . S
H2079 C2071 0.929 . S
H2080 C2088 0.929 . S
H2081 C2090 0.930 . S
H2082 C2092 0.930 . S
H2083 C2095 0.929 . S
H2084 C2098 0.930 . S
H2085 C2100 0.960 . S
H2086 C2100 0.960 . S
H2087 C2100 0.960 . S
C2088 H2080 0.929 . S
C2088 C2089 1.377 . S
C2088 C2090 1.384 . S
C2089 C2088 1.377 . S
C2089 C2095 1.390 . S
C2090 H2081 0.930 . S
C2090 C2088 1.384 . S
C2090 C2091 1.372 . S
C2091 C2090 1.372 . S
C2091 C2092 1.400 . S
C2091 C2096 1.490 . S
C2092 H2082 0.930 . S
C2092 C2091 1.400 . S
C2092 C2095 1.386 . S
H2093 C2109 0.930 . S
H2094 C2110 0.931 . S
C2095 H2083 0.929 . S
C2095 C2089 1.390 . S
C2095 C2092 1.386 . S
C2096 C2091 1.490 . S
C2096 C2098 1.395 . S
C2096 C2099 1.403 . S
H2097 C2103 0.930 . S
C2098 H2084 0.930 . S
C2098 C2096 1.395 . S
C2098 C2101 1.403 . S
C2099 C2096 1.403 . S
C2099 C2100 1.524 . S
C2099 C2103 1.400 . S
C2100 H2085 0.960 . S
C2100 H2086 0.960 . S
C2100 H2087 0.960 . S
C2100 C2099 1.524 . S
C2101 C2098 1.403 . S
C2101 C2102 1.392 . S
C2101 C2105 1.495 . S
C2102 C2101 1.392 . S
C2102 C2103 1.385 . S
C2102 C2104 1.478 . S
C2103 H2097 0.930 . S
C2103 C2099 1.400 . S
C2103 C2102 1.385 . S
C2104 C2102 1.478 . S
C2104 C2106 1.381 . S
C2104 C2110 1.383 . S
C2105 C2101 1.495 . S
C2105 H2111 0.959 . S
C2105 H2112 0.961 . S
C2105 H2113 0.960 . S
C2106 C2104 1.381 . S
C2106 C2107 1.394 . S
C2106 H2114 0.930 . S
C2107 C2106 1.394 . S
C2107 C2108 1.383 . S
C2107 H2115 0.929 . S
C2108 C2107 1.383 . S
C2108 C2109 1.377 . S
C2109 H2093 0.930 . S
C2109 C2108 1.377 . S
C2109 C2110 1.379 . S
C2110 H2094 0.931 . S
C2110 C2104 1.383 . S
C2110 C2109 1.379 . S
H2111 C2105 0.959 . S
H2112 C2105 0.961 . S
H2113 C2105 0.960 . S
H2114 C2106 0.930 . S
H2115 C2107 0.929 . S
H2116 C2124 0.929 . S
H2117 C2126 0.930 . S
H2118 C2128 0.930 . S
H2119 C2131 0.929 . S
H2120 C2134 0.930 . S
H2121 C2136 0.960 . S
H2122 C2136 0.960 . S
H2123 C2136 0.960 . S
C2124 H2116 0.929 . S
C2124 C2125 1.377 . S
C2124 C2126 1.384 . S
C2125 C2124 1.377 . S
C2125 C2131 1.390 . S
C2126 H2117 0.930 . S
C2126 C2124 1.384 . S
C2126 C2127 1.372 . S
C2127 C2126 1.372 . S
C2127 C2128 1.400 . S
C2127 C2132 1.490 . S
C2128 H2118 0.930 . S
C2128 C2127 1.400 . S
C2128 C2131 1.386 . S
H2129 C2145 0.930 . S
H2130 C2146 0.931 . S
C2131 H2119 0.929 . S
C2131 C2125 1.390 . S
C2131 C2128 1.386 . S
C2132 C2127 1.490 . S
C2132 C2134 1.395 . S
C2132 C2135 1.403 . S
H2133 C2139 0.930 . S
C2134 H2120 0.930 . S
C2134 C2132 1.395 . S
C2134 C2137 1.403 . S
C2135 C2132 1.403 . S
C2135 C2136 1.524 . S
C2135 C2139 1.400 . S
C2136 H2121 0.960 . S
C2136 H2122 0.960 . S
C2136 H2123 0.960 . S
C2136 C2135 1.524 . S
C2137 C2134 1.403 . S
C2137 C2138 1.392 . S
C2137 C2141 1.495 . S
C2138 C2137 1.392 . S
C2138 C2139 1.385 . S
C2138 C2140 1.478 . S
C2139 H2133 0.930 . S
C2139 C2135 1.400 . S
C2139 C2138 1.385 . S
C2140 C2138 1.478 . S
C2140 C2142 1.381 . S
C2140 C2146 1.383 . S
C2141 C2137 1.495 . S
C2141 H2147 0.959 . S
C2141 H2148 0.961 . S
C2141 H2149 0.960 . S
C2142 C2140 1.381 . S
C2142 C2143 1.394 . S
C2142 H2150 0.930 . S
C2143 C2142 1.394 . S
C2143 C2144 1.383 . S
C2143 H2151 0.929 . S
C2144 C2143 1.383 . S
C2144 C2145 1.377 . S
C2145 H2129 0.930 . S
C2145 C2144 1.377 . S
C2145 C2146 1.379 . S
C2146 H2130 0.931 . S
C2146 C2140 1.383 . S
C2146 C2145 1.379 . S
H2147 C2141 0.959 . S
H2148 C2141 0.961 . S
H2149 C2141 0.960 . S
H2150 C2142 0.930 . S
H2151 C2143 0.929 . S
H2152 C2160 0.929 . S
H2153 C2162 0.930 . S
H2154 C2164 0.930 . S
H2155 C2167 0.929 . S
H2156 C2170 0.930 . S
H2157 C2172 0.960 . S
H2158 C2172 0.960 . S
H2159 C2172 0.960 . S
C2160 H2152 0.929 . S
C2160 C2161 1.377 . S
C2160 C2162 1.384 . S
C2161 C2160 1.377 . S
C2161 C2167 1.390 . S
C2162 H2153 0.930 . S
C2162 C2160 1.384 . S
C2162 C2163 1.372 . S
C2163 C2162 1.372 . S
C2163 C2164 1.400 . S
C2163 C2168 1.490 . S
C2164 H2154 0.930 . S
C2164 C2163 1.400 . S
C2164 C2167 1.386 . S
H2165 C2181 0.930 . S
H2166 C2182 0.931 . S
C2167 H2155 0.929 . S
C2167 C2161 1.390 . S
C2167 C2164 1.386 . S
C2168 C2163 1.490 . S
C2168 C2170 1.395 . S
C2168 C2171 1.403 . S
H2169 C2175 0.930 . S
C2170 H2156 0.930 . S
C2170 C2168 1.395 . S
C2170 C2173 1.403 . S
C2171 C2168 1.403 . S
C2171 C2172 1.524 . S
C2171 C2175 1.400 . S
C2172 H2157 0.960 . S
C2172 H2158 0.960 . S
C2172 H2159 0.960 . S
C2172 C2171 1.524 . S
C2173 C2170 1.403 . S
C2173 C2174 1.392 . S
C2173 C2177 1.495 . S
C2174 C2173 1.392 . S
C2174 C2175 1.385 . S
C2174 C2176 1.478 . S
C2175 H2169 0.930 . S
C2175 C2171 1.400 . S
C2175 C2174 1.385 . S
C2176 C2174 1.478 . S
C2176 C2178 1.381 . S
C2176 C2182 1.383 . S
C2177 C2173 1.495 . S
C2177 H2183 0.959 . S
C2177 H2184 0.961 . S
C2177 H2185 0.960 . S
C2178 C2176 1.381 . S
C2178 C2179 1.394 . S
C2178 H2186 0.930 . S
C2179 C2178 1.394 . S
C2179 C2180 1.383 . S
C2179 H2187 0.929 . S
C2180 C2179 1.383 . S
C2180 C2181 1.377 . S
C2181 H2165 0.930 . S
C2181 C2180 1.377 . S
C2181 C2182 1.379 . S
C2182 H2166 0.931 . S
C2182 C2176 1.383 . S
C2182 C2181 1.379 . S
H2183 C2177 0.959 . S
H2184 C2177 0.961 . S
H2185 C2177 0.960 . S
H2186 C2178 0.930 . S
H2187 C2179 0.929 . S
H2188 C2196 0.929 . S
H2189 C2198 0.930 . S
H2190 C2200 0.930 . S
H2191 C2203 0.929 . S
H2192 C2206 0.930 . S
H2193 C2208 0.960 . S
H2194 C2208 0.960 . S
H2195 C2208 0.960 . S
C2196 H2188 0.929 . S
C2196 C2197 1.377 . S
C2196 C2198 1.384 . S
C2197 C2196 1.377 . S
C2197 C2203 1.390 . S
C2198 H2189 0.930 . S
C2198 C2196 1.384 . S
C2198 C2199 1.372 . S
C2199 C2198 1.372 . S
C2199 C2200 1.400 . S
C2199 C2204 1.490 . S
C2200 H2190 0.930 . S
C2200 C2199 1.400 . S
C2200 C2203 1.386 . S
H2201 C2217 0.930 . S
H2202 C2218 0.931 . S
C2203 H2191 0.929 . S
C2203 C2197 1.390 . S
C2203 C2200 1.386 . S
C2204 C2199 1.490 . S
C2204 C2206 1.395 . S
C2204 C2207 1.403 . S
H2205 C2211 0.930 . S
C2206 H2192 0.930 . S
C2206 C2204 1.395 . S
C2206 C2209 1.403 . S
C2207 C2204 1.403 . S
C2207 C2208 1.524 . S
C2207 C2211 1.400 . S
C2208 H2193 0.960 . S
C2208 H2194 0.960 . S
C2208 H2195 0.960 . S
C2208 C2207 1.524 . S
C2209 C2206 1.403 . S
C2209 C2210 1.392 . S
C2209 C2213 1.495 . S
C2210 C2209 1.392 . S
C2210 C2211 1.385 . S
C2210 C2212 1.478 . S
C2211 H2205 0.930 . S
C2211 C2207 1.400 . S
C2211 C2210 1.385 . S
C2212 C2210 1.478 . S
C2212 C2214 1.381 . S
C2212 C2218 1.383 . S
C2213 C2209 1.495 . S
C2213 H2219 0.959 . S
C2213 H2220 0.961 . S
C2213 H2221 0.960 . S
C2214 C2212 1.381 . S
C2214 C2215 1.394 . S
C2214 H2222 0.930 . S
C2215 C2214 1.394 . S
C2215 C2216 1.383 . S
C2215 H2223 0.929 . S
C2216 C2215 1.383 . S
C2216 C2217 1.377 . S
C2217 H2201 0.930 . S
C2217 C2216 1.377 . S
C2217 C2218 1.379 . S
C2218 H2202 0.931 . S
C2218 C2212 1.383 . S
C2218 C2217 1.379 . S
H2219 C2213 0.959 . S
H2220 C2213 0.961 . S
H2221 C2213 0.960 . S
H2222 C2214 0.930 . S
H2223 C2215 0.929 . S
H2224 C2232 0.929 . S
H2225 C2234 0.930 . S
H2226 C2236 0.930 . S
H2227 C2239 0.929 . S
H2228 C2242 0.930 . S
H2229 C2244 0.960 . S
H2230 C2244 0.960 . S
H2231 C2244 0.960 . S
C2232 H2224 0.929 . S
C2232 C2233 1.377 . S
C2232 C2234 1.384 . S
C2233 C2232 1.377 . S
C2233 C2239 1.390 . S
C2234 H2225 0.930 . S
C2234 C2232 1.384 . S
C2234 C2235 1.372 . S
C2235 C2234 1.372 . S
C2235 C2236 1.400 . S
C2235 C2240 1.490 . S
C2236 H2226 0.930 . S
C2236 C2235 1.400 . S
C2236 C2239 1.386 . S
H2237 C2253 0.930 . S
H2238 C2254 0.931 . S
C2239 H2227 0.929 . S
C2239 C2233 1.390 . S
C2239 C2236 1.386 . S
C2240 C2235 1.490 . S
C2240 C2242 1.395 . S
C2240 C2243 1.403 . S
H2241 C2247 0.930 . S
C2242 H2228 0.930 . S
C2242 C2240 1.395 . S
C2242 C2245 1.403 . S
C2243 C2240 1.403 . S
C2243 C2244 1.524 . S
C2243 C2247 1.400 . S
C2244 H2229 0.960 . S
C2244 H2230 0.960 . S
C2244 H2231 0.960 . S
C2244 C2243 1.524 . S
C2245 C2242 1.403 . S
C2245 C2246 1.392 . S
C2245 C2249 1.495 . S
C2246 C2245 1.392 . S
C2246 C2247 1.385 . S
C2246 C2248 1.478 . S
C2247 H2241 0.930 . S
C2247 C2243 1.400 . S
C2247 C2246 1.385 . S
C2248 C2246 1.478 . S
C2248 C2250 1.381 . S
C2248 C2254 1.383 . S
C2249 C2245 1.495 . S
C2249 H2255 0.959 . S
C2249 H2256 0.961 . S
C2249 H2257 0.960 . S
C2250 C2248 1.381 . S
C2250 C2251 1.394 . S
C2250 H2258 0.930 . S
C2251 C2250 1.394 . S
C2251 C2252 1.383 . S
C2251 H2259 0.929 . S
C2252 C2251 1.383 . S
C2252 C2253 1.377 . S
C2253 H2237 0.930 . S
C2253 C2252 1.377 . S
C2253 C2254 1.379 . S
C2254 H2238 0.931 . S
C2254 C2248 1.383 . S
C2254 C2253 1.379 . S
H2255 C2249 0.959 . S
H2256 C2249 0.961 . S
H2257 C2249 0.960 . S
H2258 C2250 0.930 . S
H2259 C2251 0.929 . S
H2260 C2268 0.929 . S
H2261 C2270 0.930 . S
H2262 C2272 0.930 . S
H2263 C2275 0.929 . S
H2264 C2278 0.930 . S
H2265 C2280 0.960 . S
H2266 C2280 0.960 . S
H2267 C2280 0.960 . S
C2268 H2260 0.929 . S
C2268 C2269 1.377 . S
C2268 C2270 1.384 . S
C2269 C2268 1.377 . S
C2269 C2275 1.390 . S
C2270 H2261 0.930 . S
C2270 C2268 1.384 . S
C2270 C2271 1.372 . S
C2271 C2270 1.372 . S
C2271 C2272 1.400 . S
C2271 C2276 1.490 . S
C2272 H2262 0.930 . S
C2272 C2271 1.400 . S
C2272 C2275 1.386 . S
H2273 C2289 0.930 . S
H2274 C2290 0.931 . S
C2275 H2263 0.929 . S
C2275 C2269 1.390 . S
C2275 C2272 1.386 . S
C2276 C2271 1.490 . S
C2276 C2278 1.395 . S
C2276 C2279 1.403 . S
H2277 C2283 0.930 . S
C2278 H2264 0.930 . S
C2278 C2276 1.395 . S
C2278 C2281 1.403 . S
C2279 C2276 1.403 . S
C2279 C2280 1.524 . S
C2279 C2283 1.400 . S
C2280 H2265 0.960 . S
C2280 H2266 0.960 . S
C2280 H2267 0.960 . S
C2280 C2279 1.524 . S
C2281 C2278 1.403 . S
C2281 C2282 1.392 . S
C2281 C2285 1.495 . S
C2282 C2281 1.392 . S
C2282 C2283 1.385 . S
C2282 C2284 1.478 . S
C2283 H2277 0.930 . S
C2283 C2279 1.400 . S
C2283 C2282 1.385 . S
C2284 C2282 1.478 . S
C2284 C2286 1.381 . S
C2284 C2290 1.383 . S
C2285 C2281 1.495 . S
C2285 H2291 0.959 . S
C2285 H2292 0.961 . S
C2285 H2293 0.960 . S
C2286 C2284 1.381 . S
C2286 C2287 1.394 . S
C2286 H2294 0.930 . S
C2287 C2286 1.394 . S
C2287 C2288 1.383 . S
C2287 H2295 0.929 . S
C2288 C2287 1.383 . S
C2288 C2289 1.377 . S
C2289 H2273 0.930 . S
C2289 C2288 1.377 . S
C2289 C2290 1.379 . S
C2290 H2274 0.931 . S
C2290 C2284 1.383 . S
C2290 C2289 1.379 . S
H2291 C2285 0.959 . S
H2292 C2285 0.961 . S
H2293 C2285 0.960 . S
H2294 C2286 0.930 . S
H2295 C2287 0.929 . S
H2296 C2304 0.929 . S
H2297 C2306 0.930 . S
H2298 C2308 0.930 . S
H2299 C2311 0.929 . S
H2300 C2314 0.930 . S
H2301 C2316 0.960 . S
H2302 C2316 0.960 . S
H2303 C2316 0.960 . S
C2304 H2296 0.929 . S
C2304 C2305 1.377 . S
C2304 C2306 1.384 . S
C2305 C2304 1.377 . S
C2305 C2311 1.390 . S
C2306 H2297 0.930 . S
C2306 C2304 1.384 . S
C2306 C2307 1.372 . S
C2307 C2306 1.372 . S
C2307 C2308 1.400 . S
C2307 C2312 1.490 . S
C2308 H2298 0.930 . S
C2308 C2307 1.400 . S
C2308 C2311 1.386 . S
H2309 C2325 0.930 . S
H2310 C2326 0.931 . S
C2311 H2299 0.929 . S
C2311 C2305 1.390 . S
C2311 C2308 1.386 . S
C2312 C2307 1.490 . S
C2312 C2314 1.395 . S
C2312 C2315 1.403 . S
H2313 C2319 0.930 . S
C2314 H2300 0.930 . S
C2314 C2312 1.395 . S
C2314 C2317 1.403 . S
C2315 C2312 1.403 . S
C2315 C2316 1.524 . S
C2315 C2319 1.400 . S
C2316 H2301 0.960 . S
C2316 H2302 0.960 . S
C2316 H2303 0.960 . S
C2316 C2315 1.524 . S
C2317 C2314 1.403 . S
C2317 C2318 1.392 . S
C2317 C2321 1.495 . S
C2318 C2317 1.392 . S
C2318 C2319 1.385 . S
C2318 C2320 1.478 . S
C2319 H2313 0.930 . S
C2319 C2315 1.400 . S
C2319 C2318 1.385 . S
C2320 C2318 1.478 . S
C2320 C2322 1.381 . S
C2320 C2326 1.383 . S
C2321 C2317 1.495 . S
C2321 H2327 0.959 . S
C2321 H2328 0.961 . S
C2321 H2329 0.960 . S
C2322 C2320 1.381 . S
C2322 C2323 1.394 . S
C2322 H2330 0.930 . S
C2323 C2322 1.394 . S
C2323 C2324 1.383 . S
C2323 H2331 0.929 . S
C2324 C2323 1.383 . S
C2324 C2325 1.377 . S
C2325 H2309 0.930 . S
C2325 C2324 1.377 . S
C2325 C2326 1.379 . S
C2326 H2310 0.931 . S
C2326 C2320 1.383 . S
C2326 C2325 1.379 . S
H2327 C2321 0.959 . S
H2328 C2321 0.961 . S
H2329 C2321 0.960 . S
H2330 C2322 0.930 . S
H2331 C2323 0.929 . S
H2332 C2340 0.929 . S
H2333 C2342 0.930 . S
H2334 C2344 0.930 . S
H2335 C2347 0.929 . S
H2336 C2350 0.930 . S
H2337 C2352 0.960 . S
H2338 C2352 0.960 . S
H2339 C2352 0.960 . S
C2340 H2332 0.929 . S
C2340 C2341 1.377 . S
C2340 C2342 1.384 . S
C2341 C2340 1.377 . S
C2341 C2347 1.390 . S
C2342 H2333 0.930 . S
C2342 C2340 1.384 . S
C2342 C2343 1.372 . S
C2343 C2342 1.372 . S
C2343 C2344 1.400 . S
C2343 C2348 1.490 . S
C2344 H2334 0.930 . S
C2344 C2343 1.400 . S
C2344 C2347 1.386 . S
H2345 C2361 0.930 . S
H2346 C2362 0.931 . S
C2347 H2335 0.929 . S
C2347 C2341 1.390 . S
C2347 C2344 1.386 . S
C2348 C2343 1.490 . S
C2348 C2350 1.395 . S
C2348 C2351 1.403 . S
H2349 C2355 0.930 . S
C2350 H2336 0.930 . S
C2350 C2348 1.395 . S
C2350 C2353 1.403 . S
C2351 C2348 1.403 . S
C2351 C2352 1.524 . S
C2351 C2355 1.400 . S
C2352 H2337 0.960 . S
C2352 H2338 0.960 . S
C2352 H2339 0.960 . S
C2352 C2351 1.524 . S
C2353 C2350 1.403 . S
C2353 C2354 1.392 . S
C2353 C2357 1.495 . S
C2354 C2353 1.392 . S
C2354 C2355 1.385 . S
C2354 C2356 1.478 . S
C2355 H2349 0.930 . S
C2355 C2351 1.400 . S
C2355 C2354 1.385 . S
C2356 C2354 1.478 . S
C2356 C2358 1.381 . S
C2356 C2362 1.383 . S
C2357 C2353 1.495 . S
C2357 H2363 0.959 . S
C2357 H2364 0.961 . S
C2357 H2365 0.960 . S
C2358 C2356 1.381 . S
C2358 C2359 1.394 . S
C2358 H2366 0.930 . S
C2359 C2358 1.394 . S
C2359 C2360 1.383 . S
C2359 H2367 0.929 . S
C2360 C2359 1.383 . S
C2360 C2361 1.377 . S
C2361 H2345 0.930 . S
C2361 C2360 1.377 . S
C2361 C2362 1.379 . S
C2362 H2346 0.931 . S
C2362 C2356 1.383 . S
C2362 C2361 1.379 . S
H2363 C2357 0.959 . S
H2364 C2357 0.961 . S
H2365 C2357 0.960 . S
H2366 C2358 0.930 . S
H2367 C2359 0.929 . S
C649 C135 1.939 . S
C668 C18 1.817 . S
C685 C6 2.601 . S
C704 C59 2.695 . S
C721 C89 0.609 . S
C740 C58 0.662 . S
C757 C130 2.671 . S
C776 C90 2.670 . S
C793 C170 2.443 . S
C812 C206 2.381 . S
C829 C218 0.563 . S
C848 C258 0.617 . S
C865 C259 2.716 . S
C884 C290 2.725 . S
C901 C175 1.932 . S
C920 C289 1.856 . S
C937 C379 2.716 . S
C956 C19 2.732 . S
C973 C406 0.871 . S
C992 C46 0.920 . S
C1009 C95 0.386 . S
C1028 C535 0.533 . S
C1045 C329 0.637 . S
C1064 C129 0.660 . S
C1081 C449 0.635 . S
C1100 C169 0.705 . S
C1117 C579 2.732 . S
C1136 C219 2.718 . S
C1153 C246 0.872 . S
C1172 C486 0.921 . S
C1189 C615 0.419 . S
C1208 C295 0.575 . S
C1225 C335 1.927 . S
C1244 C529 1.831 . S
C1261 C366 2.395 . S
C1280 C330 2.440 . S
C1297 C418 0.564 . S
C1316 C378 0.640 . S
C1333 C578 1.857 . S
C1352 C455 1.915 . S
C1369 C498 0.618 . S
C1388 C609 0.617 . S
C1405 C446 1.938 . S
C1424 C9 1.877 . S
C1441 C490 2.701 . S
C1460 C15 2.582 . S
C1477 C489 0.605 . S
C1496 C98 0.598 . S
C1513 C99 2.683 . S
C1532 C459 2.660 . S
C1549 C375 2.401 . S
C1568 C179 2.443 . S
C1585 C369 0.592 . S
C1604 C249 0.532 . S
C1621 C539 2.733 . S
C1640 C250 2.718 . S
C1657 C166 1.926 . S
C1676 C538 1.873 . S
C1693 C210 2.716 . S
C1712 C10 2.727 . S
C1729 C415 0.889 . S
C1748 C495 0.896 . S
C1765 C86 0.385 . S
C1784 C286 0.509 . S
C1801 C338 0.606 . S
C1820 C458 0.616 . S
C1837 C138 0.635 . S
C1856 C178 0.603 . S
C1873 C370 2.713 . S
C1892 C570 2.729 . S
C1909 C255 0.862 . S
C1928 C55 0.813 . S
C1945 C606 0.413 . S
C1964 C526 0.638 . S
C1981 C326 1.932 . S
C2000 C298 1.831 . S
C2017 C339 2.442 . S
C2036 C215 2.387 . S
C2053 C409 0.566 . S
C2072 C209 0.621 . S
C2089 C126 1.935 . S
C2108 C569 1.867 . S
C2125 C49 0.584 . S
C2144 C618 0.666 . S
C2161 C499 2.700 . S
C2180 C566 2.590 . S
C2197 C450 2.670 . S
C2216 C610 2.675 . S
C2233 C419 2.715 . S
C2252 C530 2.732 . S
C2269 C575 2.606 . S
C2288 C50 2.700 . S
C2305 C139 2.673 . S
C2324 C619 2.671 . S
C2341 C299 2.732 . S
C2360 C410 2.711 . S
