# Generated by pormake.
# Topology rkf, (6)-cn, num edge types: 1
# Building blocks:
#     Node 0, Type 0, BuildingBlock: VOLQOD_clean_sbu_1, # of connection points: 6
#     Node 1, Type 0, BuildingBlock: VOLQOD_clean_sbu_1, # of connection points: 6
#     Node 2, Type 0, BuildingBlock: VOLQOD_clean_sbu_1, # of connection points: 6
#     Node 3, Type 0, BuildingBlock: VOLQOD_clean_sbu_1, # of connection points: 6
#     Node 4, Type 0, BuildingBlock: VOLQOD_clean_sbu_1, # of connection points: 6
#     Node 5, Type 0, BuildingBlock: VOLQOD_clean_sbu_1, # of connection points: 6
#     Edge 6, Type (0, 0), BuildingBlock: FUNLAD_clean_linker_0, # of connection points: 2
#     Edge 7, Type (0, 0), BuildingBlock: FUNLAD_clean_linker_0, # of connection points: 2
#     Edge 8, Type (0, 0), BuildingBlock: FUNLAD_clean_linker_0, # of connection points: 2
#     Edge 9, Type (0, 0), BuildingBlock: FUNLAD_clean_linker_0, # of connection points: 2
#     Edge 10, Type (0, 0), BuildingBlock: FUNLAD_clean_linker_0, # of connection points: 2
#     Edge 11, Type (0, 0), BuildingBlock: FUNLAD_clean_linker_0, # of connection points: 2
#     Edge 12, Type (0, 0), BuildingBlock: FUNLAD_clean_linker_0, # of connection points: 2
#     Edge 13, Type (0, 0), BuildingBlock: FUNLAD_clean_linker_0, # of connection points: 2
#     Edge 14, Type (0, 0), BuildingBlock: FUNLAD_clean_linker_0, # of connection points: 2
#     Edge 15, Type (0, 0), BuildingBlock: FUNLAD_clean_linker_0, # of connection points: 2
#     Edge 16, Type (0, 0), BuildingBlock: FUNLAD_clean_linker_0, # of connection points: 2
#     Edge 17, Type (0, 0), BuildingBlock: FUNLAD_clean_linker_0, # of connection points: 2
#     Edge 18, Type (0, 0), BuildingBlock: FUNLAD_clean_linker_0, # of connection points: 2
#     Edge 19, Type (0, 0), BuildingBlock: FUNLAD_clean_linker_0, # of connection points: 2
#     Edge 20, Type (0, 0), BuildingBlock: FUNLAD_clean_linker_0, # of connection points: 2
#     Edge 21, Type (0, 0), BuildingBlock: FUNLAD_clean_linker_0, # of connection points: 2
#     Edge 22, Type (0, 0), BuildingBlock: FUNLAD_clean_linker_0, # of connection points: 2
#     Edge 23, Type (0, 0), BuildingBlock: FUNLAD_clean_linker_0, # of connection points: 2
# Relax obj value: 0.814
# Max RMSD: 0.323
# Mean RMSD: 0.323
data_MOF--net-rkf--node1-VOLQOD_clean_sbu_1--edge1-FUNLAD_clean_linker_0
_symmetry_space_group_name_H-M    P1
_symmetry_Int_Tables_number       1
_symmetry_cell_setting            triclinic
loop_
_symmetry_equiv_pos_as_xyz
'x, y, z'
_cell_length_a     32.238848
_cell_length_b     32.25621
_cell_length_c     42.801423
_cell_angle_alpha  89.800407
_cell_angle_beta   90.061965
_cell_angle_gamma 120.0296
loop_
_atom_site_label
_atom_site_type_symbol
_atom_site_fract_x
_atom_site_fract_y
_atom_site_fract_z
_atom_type_partial_charge
O0 O 0.15228 0.9813 0.95935 0.0
Zn1 Zn 0.18726 0.9522 0.98135 0.0
O2 O 0.25025 0.00559 0.98833 0.0
Zn3 Zn 0.2896 0.01283 0.95383 0.0
Zn4 Zn 0.24338 0.06074 0.9911 0.0
Zn5 Zn 0.27689 0.99699 0.02557 0.0
O6 O 0.35449 0.02864 0.97032 0.0
O7 O 0.32966 0.98282 0.01325 0.0
O8 O 0.19217 0.90194 0.95567 0.0
O9 O 0.2656 0.94796 0.93657 0.0
O10 O 0.28581 0.05751 0.92058 0.0
O11 O 0.2586 0.09521 0.95017 0.0
O12 O 0.28597 0.10572 0.02429 0.0
O13 O 0.15854 0.92537 0.02333 0.0
O14 O 0.31276 0.06097 0.04624 0.0
O15 O 0.22181 0.95002 0.05472 0.0
C16 C 0.15083 0.01684 0.97116 0.0
C17 C 0.36149 0.00558 0.9922 0.0
C18 C 0.27268 0.08872 0.92386 0.0
C19 C 0.22793 0.90734 0.93969 0.0
C20 C 0.31323 0.10053 0.04353 0.0
C21 C 0.17636 0.92643 0.05018 0.0
O22 O 0.17355 0.03521 0.99641 0.0
O23 O 0.25908 0.13065 0.32057 0.0
Zn24 Zn 0.31539 0.19728 0.32411 0.0
O25 O 0.29456 0.24372 0.32928 0.0
Zn26 Zn 0.31072 0.28596 0.29392 0.0
Zn27 Zn 0.22655 0.20905 0.33415 0.0
Zn28 Zn 0.32386 0.27945 0.36658 0.0
O29 O 0.35176 0.35491 0.30801 0.0
O30 O 0.37711 0.34534 0.35459 0.0
O31 O 0.3604 0.215 0.28774 0.0
O32 O 0.35463 0.275 0.26644 0.0
O33 O 0.2504 0.2716 0.26851 0.0
O34 O 0.1939 0.20831 0.2941 0.0
O35 O 0.20659 0.23947 0.36721 0.0
O36 O 0.3449 0.18965 0.36335 0.0
O37 O 0.27598 0.28921 0.38976 0.0
O38 O 0.34239 0.24136 0.39608 0.0
C39 C 0.22468 0.11593 0.34007 0.0
C40 C 0.3799 0.37186 0.33148 0.0
C41 C 0.20709 0.23716 0.27095 0.0
C42 C 0.37222 0.24733 0.26689 0.0
C43 C 0.23082 0.27102 0.38765 0.0
C44 C 0.34926 0.20633 0.39079 0.0
O45 O 0.20922 0.14344 0.34885 0.0
O46 O 0.95612 0.09748 0.69926 0.0
Zn47 Zn 0.99553 0.16897 0.69195 0.0
O48 O 0.95808 0.19815 0.70105 0.0
Zn49 Zn 0.94925 0.22662 0.66492 0.0
Zn50 Zn 0.89688 0.14666 0.71208 0.0
Zn51 Zn 0.98483 0.24472 0.7337 0.0
O52 O 0.95575 0.29011 0.6751 0.0
O53 O 0.00732 0.31085 0.71471 0.0
O54 O 0.02614 0.18899 0.64929 0.0
O55 O 0.00182 0.23994 0.63555 0.0
O56 O 0.88976 0.18029 0.64143 0.0
O57 O 0.86071 0.11597 0.67198 0.0
O58 O 0.86535 0.17302 0.73974 0.0
O59 O 0.04795 0.19108 0.72341 0.0
O60 O 0.92956 0.23411 0.7618 0.0
O61 O 0.03921 0.23947 0.75627 0.0
C62 C 0.93217 0.08139 0.72451 0.0
C63 C 0.98643 0.32176 0.69344 0.0
C64 C 0.86149 0.13561 0.64585 0.0
C65 C 0.02738 0.22072 0.63081 0.0
C66 C 0.8841 0.20724 0.75945 0.0
C67 C 0.06071 0.21691 0.74785 0.0
O68 O 0.90941 0.10061 0.73591 0.0
O69 O 0.969 0.19861 0.95994 0.0
Zn70 Zn 0.91075 0.16854 0.98746 0.0
O71 O 0.88309 0.10036 0.98676 0.0
Zn72 Zn 0.83708 0.07189 0.95424 0.0
Zn73 Zn 0.93391 0.08701 0.98343 0.0
Zn74 Zn 0.85416 0.07456 0.02604 0.0
O75 O 0.77077 0.03147 0.97309 0.0
O76 O 0.78287 0.04855 0.02379 0.0
O77 O 0.86436 0.18514 0.96765 0.0
O78 O 0.83173 0.12521 0.93315 0.0
O79 O 0.8564 0.0337 0.92478 0.0
O80 O 0.91747 0.0364 0.951 0.0
O81 O 0.94584 0.06683 0.0255 0.0
O82 O 0.93288 0.19155 0.03194 0.0
O83 O 0.8693 0.02376 0.03859 0.0
O84 O 0.88801 0.12483 0.05902 0.0
C85 C 0.99933 0.18484 0.95643 0.0
C86 C 0.75463 0.03013 0.00056 0.0
C87 C 0.88831 0.02137 0.92807 0.0
C88 C 0.83898 0.16557 0.94335 0.0
C89 C 0.91301 0.03602 0.04315 0.0
C90 C 0.92059 0.16881 0.0579 0.0
O91 O 0.99207 0.14476 0.9669 0.0
O92 O 0.96566 0.91382 0.3866 0.0
Zn93 Zn 0.90389 0.90497 0.36783 0.0
O94 O 0.86363 0.83914 0.354 0.0
Zn95 Zn 0.84113 0.83752 0.312 0.0
Zn96 Zn 0.89923 0.80508 0.35346 0.0
Zn97 Zn 0.8093 0.80792 0.38155 0.0
O98 O 0.77056 0.78661 0.30747 0.0
O99 O 0.74846 0.77283 0.35735 0.0
O100 O 0.91726 0.9487 0.33055 0.0
O101 O 0.85318 0.9031 0.30122 0.0
O102 O 0.8818 0.82604 0.28076 0.0
O103 O 0.91858 0.7972 0.30979 0.0
O104 O 0.86601 0.74438 0.3792 0.0
O105 O 0.87138 0.92249 0.40171 0.0
O106 O 0.81579 0.75899 0.40612 0.0
O107 O 0.80537 0.85366 0.41205 0.0
C108 C 0.98306 0.88598 0.38741 0.0
C109 C 0.73837 0.76572 0.3284 0.0
C110 C 0.91069 0.81004 0.28328 0.0
C111 C 0.89013 0.94342 0.30734 0.0
C112 C 0.83686 0.73498 0.40186 0.0
C113 C 0.83287 0.89815 0.41732 0.0
O114 O 0.96145 0.84454 0.37529 0.0
O115 O 0.14583 0.97547 0.67757 0.0
Zn116 Zn 0.10385 0.90358 0.67246 0.0
O117 O 0.14364 0.87537 0.67692 0.0
Zn118 Zn 0.14683 0.84581 0.6397 0.0
Zn119 Zn 0.20709 0.92399 0.6868 0.0
Zn120 Zn 0.11803 0.82746 0.70828 0.0
O121 O 0.1434 0.78252 0.65021 0.0
O122 O 0.08915 0.76296 0.68798 0.0
O123 O 0.06101 0.8763 0.63403 0.0
O124 O 0.08628 0.82721 0.61762 0.0
O125 O 0.20188 0.89459 0.61237 0.0
O126 O 0.24252 0.95301 0.64653 0.0
O127 O 0.23881 0.89609 0.71411 0.0
O128 O 0.05953 0.88584 0.70925 0.0
O129 O 0.17308 0.83131 0.73143 0.0
O130 O 0.07267 0.83592 0.73773 0.0
C131 C 0.17377 0.99166 0.70123 0.0
C132 C 0.111 0.75118 0.66814 0.0
C133 C 0.23585 0.93684 0.61868 0.0
C134 C 0.05644 0.84204 0.61668 0.0
C135 C 0.21843 0.85796 0.73065 0.0
C136 C 0.05193 0.86048 0.7337 0.0
O137 O 0.19803 0.97239 0.71011 0.0
C138 C 0.08623 0.23312 0.94857 0.0
C139 C 0.04023 0.21071 0.93564 0.0
C140 C 0.12404 0.23492 0.93167 0.0
C141 C 0.11531 0.21249 0.9024 0.0
C142 C 0.07148 0.19835 0.88735 0.0
C143 C 0.0339 0.19746 0.90406 0.0
C144 C 0.14479 0.19087 0.8941 0.0
C145 C 0.12258 0.14324 0.88923 0.0
C146 C 0.13305 0.11194 0.90918 0.0
C147 C 0.12025 0.06564 0.8992 0.0
C148 C 0.12434 0.03372 0.91955 0.0
C149 C 0.14032 0.04732 0.95046 0.0
H150 H 0.15689 0.15977 0.94923 0.0
C151 C 0.15197 0.09331 0.96047 0.0
C152 C 0.14864 0.1252 0.94014 0.0
H153 H 0.16449 0.10522 0.98403 0.0
H154 H 0.0916 0.24334 0.97297 0.0
H155 H 0.15781 0.24675 0.94357 0.0
H156 H 0.06428 0.18206 0.86443 0.0
H157 H 0.99842 0.17997 0.89378 0.0
H158 H 0.18046 0.20799 0.90428 0.0
H159 H 0.08808 0.12535 0.87749 0.0
H160 H 0.10701 0.05419 0.8757 0.0
H161 H 0.11543 0.99867 0.91099 0.0
C162 C 0.03893 0.92209 0.43256 0.0
C163 C 0.02925 0.9013 0.40275 0.0
C164 C 0.08198 0.93382 0.44763 0.0
C165 C 0.11642 0.92664 0.43246 0.0
C166 C 0.1066 0.90568 0.40275 0.0
C167 C 0.06306 0.8925 0.38818 0.0
C168 C 0.16401 0.94376 0.44663 0.0
C169 C 0.20458 0.97874 0.43362 0.0
C170 C 0.20534 0.00906 0.40718 0.0
C171 C 0.1755 0.02921 0.4073 0.0
C172 C 0.1786 0.06031 0.38358 0.0
C173 C 0.21284 0.07348 0.35969 0.0
H174 H 0.26229 0.00617 0.38252 0.0
C175 C 0.24196 0.05237 0.35912 0.0
C176 C 0.23841 0.02069 0.38281 0.0
H177 H 0.26937 0.06235 0.34143 0.0
H178 H 0.01291 0.92843 0.44436 0.0
H179 H 0.08917 0.95006 0.47057 0.0
H180 H 0.13282 0.89983 0.39077 0.0
H181 H 0.05607 0.87613 0.36528 0.0
H182 H 0.16639 0.92577 0.46747 0.0
H183 H 0.23865 0.98584 0.44332 0.0
H184 H 0.1513 0.02293 0.42653 0.0
H185 H 0.15615 0.07639 0.38514 0.0
C186 C 0.15168 0.05367 0.71366 0.0
C187 C 0.16556 0.02108 0.7239 0.0
C188 C 0.1308 0.07102 0.73458 0.0
C189 C 0.1221 0.05468 0.76564 0.0
C190 C 0.13972 0.0255 0.77657 0.0
C191 C 0.16205 0.0094 0.7559 0.0
C192 C 0.08566 0.05957 0.78336 0.0
C193 C 0.04265 0.02007 0.78762 0.0
C194 C 1.00022 0.02226 0.77734 0.0
C195 C 0.9806 0.0024 0.74815 0.0
C196 C 0.95338 0.01789 0.73182 0.0
C197 C 0.94442 0.05238 0.74493 0.0
H198 H 0.00236 0.06878 0.8143 0.0
C199 C 0.95872 0.06737 0.77589 0.0
C200 C 0.98718 0.0529 0.79188 0.0
H201 H 0.95266 0.09441 0.78639 0.0
H202 H 0.15393 0.06309 0.68915 0.0
H203 H 0.11703 0.0933 0.72572 0.0
H204 H 0.13305 0.01238 0.80043 0.0
H205 H 0.17211 0.98399 0.76442 0.0
H206 H 0.08724 0.09394 0.78153 0.0
H207 H 0.04024 0.98529 0.78615 0.0
H208 H 0.99087 0.97917 0.73643 0.0
H209 H 0.94292 0.0061 0.70797 0.0
C210 C 0.2662 0.1565 0.90053 0.0
C211 C 0.26608 0.11319 0.89642 0.0
C212 C 0.2498 0.17492 0.87694 0.0
C213 C 0.23166 0.14983 0.84873 0.0
C214 C 0.23418 0.10791 0.84404 0.0
C215 C 0.25143 0.08993 0.86748 0.0
C216 C 0.20646 0.16337 0.82476 0.0
C217 C 0.19976 0.20158 0.82655 0.0
C218 C 0.16754 0.20911 0.80498 0.0
C219 C 0.15796 0.19092 0.77443 0.0
C220 C 0.1244 0.19489 0.75587 0.0
C221 C 0.09969 0.21762 0.76709 0.0
H222 H 0.15268 0.24994 0.83867 0.0
C223 C 0.11121 0.23822 0.79698 0.0
C224 C 0.14507 0.23433 0.81556 0.0
H225 H 0.0933 0.2563 0.80633 0.0
H226 H 0.27721 0.1753 0.9226 0.0
H227 H 0.24977 0.2077 0.88177 0.0
H228 H 0.22091 0.08778 0.82258 0.0
H229 H 0.25027 0.05619 0.86367 0.0
H230 H 0.18961 0.13821 0.80577 0.0
H231 H 0.21511 0.22655 0.8457 0.0
H232 H 0.17592 0.17315 0.76474 0.0
H233 H 0.11729 0.17922 0.73277 0.0
C234 C 0.18011 0.26349 0.22292 0.0
C235 C 0.17076 0.22961 0.24669 0.0
C236 C 0.14501 0.25553 0.20047 0.0
C237 C 0.09984 0.21333 0.20127 0.0
C238 C 0.09091 0.17954 0.22486 0.0
C239 C 0.1256 0.18761 0.24731 0.0
C240 C 0.06159 0.2015 0.17749 0.0
C241 C 0.05811 0.23363 0.15896 0.0
C242 C 0.0194 0.21947 0.1351 0.0
C243 C 0.02793 0.24857 0.10862 0.0
C244 C 0.99427 0.234 0.08434 0.0
C245 C 0.95099 0.19006 0.08613 0.0
H246 H 0.96546 0.15474 0.15844 0.0
C247 C 0.94099 0.16276 0.11372 0.0
C248 C 0.97461 0.17726 0.13789 0.0
H249 H 0.90798 0.12887 0.11616 0.0
H250 H 0.21451 0.29614 0.22165 0.0
H251 H 0.15386 0.28203 0.18229 0.0
H252 H 0.05672 0.14657 0.22602 0.0
H253 H 0.11694 0.16048 0.26507 0.0
H254 H 0.03478 0.16391 0.17545 0.0
H255 H 0.0852 0.27123 0.16031 0.0
H256 H 0.06169 0.28169 0.10602 0.0
H257 H 0.00334 0.25603 0.06352 0.0
C258 C 0.83744 0.12692 0.5895 0.0
C259 C 0.83741 0.10535 0.61812 0.0
C260 C 0.82677 0.10113 0.5616 0.0
C261 C 0.81573 0.05311 0.56147 0.0
C262 C 0.81209 0.03042 0.5904 0.0
C263 C 0.82256 0.05624 0.61838 0.0
C264 C 0.81405 0.03043 0.53072 0.0
C265 C 0.79947 0.98362 0.52664 0.0
C266 C 0.80559 0.96362 0.49671 0.0
C267 C 0.77635 0.91449 0.49075 0.0
C268 C 0.784 0.89357 0.4644 0.0
C269 C 0.82165 0.92121 0.44351 0.0
H270 H 0.86687 0.02923 0.47949 0.0
C271 C 0.8504 0.97059 0.44914 0.0
C272 C 0.84256 0.99155 0.4754 0.0
H273 H 0.87988 0.99299 0.43369 0.0
H274 H 0.84851 0.16461 0.58835 0.0
H275 H 0.82963 0.11963 0.53983 0.0
H276 H 0.80412 0.9937 0.59167 0.0
H277 H 0.82239 0.03847 0.63994 0.0
H278 H 0.82702 0.05413 0.51057 0.0
H279 H 0.78266 0.9586 0.5458 0.0
H280 H 0.74791 0.89197 0.50685 0.0
H281 H 0.76122 0.8554 0.46094 0.0
C282 C 0.92736 0.97556 0.9092 0.0
C283 C 0.89506 0.99221 0.90382 0.0
C284 C 0.93836 0.95265 0.88567 0.0
C285 C 0.91709 0.94533 0.85596 0.0
C286 C 0.8842 0.96125 0.85069 0.0
C287 C 0.87305 0.98414 0.87436 0.0
C288 C 0.93113 0.9249 0.82936 0.0
C289 C 0.95314 0.89875 0.83281 0.0
C290 C 0.97339 0.88369 0.80658 0.0
C291 C 0.00475 0.86651 0.8138 0.0
C292 C 0.02842 0.85638 0.79016 0.0
C293 C 0.02159 0.86362 0.75864 0.0
H294 H 0.93924 0.89914 0.76786 0.0
C295 C 0.98854 0.87857 0.75129 0.0
C296 C 0.96425 0.88785 0.77486 0.0
H297 H 0.98202 0.88399 0.72719 0.0
H298 H 0.94537 0.98135 0.93149 0.0
H299 H 0.96501 0.94259 0.89072 0.0
H300 H 0.86764 0.95673 0.82797 0.0
H301 H 0.84841 0.99687 0.86922 0.0
H302 H 0.92389 0.93324 0.80617 0.0
H303 H 0.95884 0.88947 0.85618 0.0
H304 H 0.0123 0.8624 0.83793 0.0
H305 H 0.05374 0.84507 0.79665 0.0
C306 C 0.93515 0.83038 0.22689 0.0
C307 C 0.94051 0.81275 0.25585 0.0
C308 C 0.96765 0.83974 0.20246 0.0
C309 C 0.0064 0.83152 0.20626 0.0
C310 C 0.01096 0.8127 0.23489 0.0
C311 C 0.97836 0.80317 0.25928 0.0
C312 C 0.04436 0.84517 0.18185 0.0
C313 C 0.03711 0.84912 0.15117 0.0
C314 C 0.07482 0.86531 0.12638 0.0
C315 C 0.05993 0.85584 0.09512 0.0
C316 C 0.09312 0.87392 0.07069 0.0
C317 C 0.14251 0.90248 0.0767 0.0
H318 H 0.13753 0.90151 0.15631 0.0
C319 C 0.15785 0.91081 0.10802 0.0
C320 C 0.1244 0.89254 0.13263 0.0
H321 H 0.19551 0.93292 0.11355 0.0
H322 H 0.90683 0.83872 0.22341 0.0
H323 H 0.96329 0.85535 0.18119 0.0
H324 H 0.04045 0.80617 0.23864 0.0
H325 H 0.98399 0.78995 0.28125 0.0
H326 H 0.07901 0.85113 0.18954 0.0
H327 H 0.00124 0.8391 0.14338 0.0
H328 H 0.02216 0.83509 0.08944 0.0
H329 H 0.07971 0.86644 0.04696 0.0
C330 C 0.25017 0.95818 0.56142 0.0
C331 C 0.26376 0.97035 0.59282 0.0
C332 C 0.27092 0.99266 0.53764 0.0
C333 C 0.30614 0.04018 0.54467 0.0
C334 C 0.32112 0.05163 0.57584 0.0
C335 C 0.30041 0.01725 0.59956 0.0
C336 C 0.32496 0.07967 0.52097 0.0
C337 C 0.323 0.07271 0.4898 0.0
C338 C 0.33732 0.11159 0.46598 0.0
C339 C 0.34528 0.10257 0.43515 0.0
C340 C 0.35303 0.13526 0.41119 0.0
C341 C 0.35244 0.17787 0.41727 0.0
H342 H 0.33227 0.16354 0.49569 0.0
C343 C 0.34671 0.18808 0.44838 0.0
C344 C 0.33916 0.15535 0.47246 0.0
H345 H 0.34543 0.22015 0.45395 0.0
H346 H 0.22176 0.92261 0.55533 0.0
H347 H 0.25741 0.9823 0.51413 0.0
H348 H 0.34805 0.0878 0.58207 0.0
H349 H 0.31189 0.02811 0.6234 0.0
H350 H 0.34124 0.11595 0.52985 0.0
H351 H 0.31053 0.03686 0.48102 0.0
H352 H 0.34389 0.06923 0.42931 0.0
H353 H 0.35696 0.12576 0.38758 0.0
C354 C 0.41634 0.97908 0.01557 0.0
C355 C 0.40693 0.00432 0.99237 0.0
C356 C 0.45887 0.97722 0.01498 0.0
C357 C 0.493 0.00076 0.99119 0.0
C358 C 0.48335 0.02572 0.96804 0.0
C359 C 0.44107 0.02765 0.96865 0.0
C360 C 0.5386 0.99972 0.98894 0.0
C361 C 0.55918 0.98929 0.01286 0.0
C362 C 0.60723 0.99356 0.01003 0.0
C363 C 0.63707 0.00641 0.03638 0.0
C364 C 0.68433 0.01591 0.03374 0.0
C365 C 0.70262 0.01232 0.00467 0.0
H366 H 0.60191 0.9749 0.96087 0.0
C367 C 0.67161 0.99613 0.97878 0.0
C368 C 0.62445 0.98673 0.98143 0.0
H369 H 0.68416 0.99228 0.9561 0.0
H370 H 0.39068 0.96038 0.03405 0.0
H371 H 0.46425 0.95664 0.03288 0.0
H372 H 0.50876 0.04403 0.94934 0.0
H373 H 0.43512 0.0473 0.9503 0.0
H374 H 0.55767 0.01135 0.96686 0.0
H375 H 0.54285 0.98181 0.03586 0.0
H376 H 0.62451 0.01119 0.05882 0.0
H377 H 0.70701 0.02792 0.05425 0.0
C378 C 0.42632 0.45216 0.30496 0.0
C379 C 0.41757 0.42317 0.33159 0.0
C380 C 0.46328 0.50004 0.30485 0.0
C381 C 0.49226 0.51989 0.33143 0.0
C382 C 0.48266 0.49118 0.35819 0.0
C383 C 0.44601 0.44343 0.35826 0.0
C384 C 0.53256 0.57018 0.33267 0.0
C385 C 0.55568 0.59704 0.30742 0.0
C386 C 0.59961 0.6449 0.31045 0.0
C387 C 0.63565 0.66036 0.28757 0.0
C388 C 0.68013 0.70182 0.2922 0.0
C389 C 0.68915 0.72845 0.31981 0.0
H390 H 0.57966 0.66471 0.35404 0.0
C391 C 0.65169 0.71513 0.34137 0.0
C392 C 0.60732 0.67411 0.33664 0.0
H393 H 0.65721 0.73551 0.36257 0.0
H394 H 0.40493 0.43779 0.28405 0.0
H395 H 0.46864 0.52125 0.28403 0.0
H396 H 0.5041 0.50555 0.3791 0.0
H397 H 0.44019 0.42236 0.37926 0.0
H398 H 0.54618 0.58421 0.35579 0.0
H399 H 0.54545 0.58197 0.28418 0.0
H400 H 0.63036 0.63896 0.26691 0.0
H401 H 0.70826 0.71128 0.27511 0.0
C402 C 0.04034 0.41012 0.70187 0.0
C403 C 0.99803 0.37206 0.68946 0.0
C404 C 0.0514 0.45757 0.6972 0.0
C405 C 0.02004 0.46773 0.68029 0.0
C406 C 0.97749 0.42967 0.6684 0.0
C407 C 0.96682 0.38242 0.67262 0.0
C408 C 0.02908 0.51725 0.67612 0.0
C409 C 0.07323 0.55598 0.67412 0.0
C410 C 0.08119 0.60535 0.67109 0.0
C411 C 0.12218 0.64067 0.6556 0.0
C412 C 0.13126 0.68787 0.65359 0.0
C413 C 0.0999 0.70074 0.66758 0.0
H414 H 0.01834 0.59237 0.69763 0.0
C415 C 0.05883 0.66526 0.68296 0.0
C416 C 0.04957 0.6182 0.68472 0.0
H417 H 0.034 0.67394 0.69414 0.0
H418 H 0.06507 0.40329 0.71498 0.0
H419 H 0.08392 0.48607 0.7074 0.0
H420 H 0.95249 0.43651 0.65561 0.0
H421 H 0.93376 0.35395 0.66292 0.0
H422 H 0.99793 0.52152 0.67329 0.0
H423 H 0.10441 0.55142 0.6737 0.0
H424 H 0.1473 0.63177 0.64514 0.0
H425 H 0.16344 0.71445 0.64182 0.0
C426 C 0.34071 0.18034 0.06809 0.0
C427 C 0.34785 0.14162 0.06222 0.0
C428 C 0.37185 0.21721 0.08785 0.0
C429 C 0.4107 0.21613 0.10198 0.0
C430 C 0.42028 0.17959 0.09366 0.0
C431 C 0.38878 0.14241 0.0743 0.0
C432 C 0.4349 0.24896 0.12854 0.0
C433 C 0.4541 0.23699 0.15253 0.0
C434 C 0.44781 0.24813 0.18511 0.0
C435 C 0.43526 0.21215 0.20773 0.0
C436 C 0.41358 0.21343 0.2356 0.0
C437 C 0.40438 0.25092 0.24126 0.0
H438 H 0.45603 0.31825 0.17636 0.0
C439 C 0.42263 0.28996 0.22045 0.0
C440 C 0.44461 0.28881 0.19268 0.0
H441 H 0.41761 0.32024 0.22475 0.0
H442 H 0.30996 0.18111 0.05858 0.0
H443 H 0.3638 0.24515 0.09356 0.0
H444 H 0.45098 0.17846 0.10278 0.0
H445 H 0.39616 0.11386 0.06916 0.0
H446 H 0.42562 0.27667 0.13195 0.0
H447 H 0.46199 0.20825 0.14975 0.0
H448 H 0.43806 0.18073 0.20268 0.0
H449 H 0.40089 0.18332 0.25153 0.0
C450 C 0.15556 0.2614 0.41136 0.0
C451 C 0.20574 0.28269 0.4118 0.0
C452 C 0.13138 0.26518 0.43724 0.0
C453 C 0.15697 0.28963 0.46396 0.0
C454 C 0.20723 0.31446 0.46336 0.0
C455 C 0.23143 0.31112 0.43745 0.0
C456 C 0.13064 0.28503 0.49307 0.0
C457 C 0.14586 0.27729 0.5206 0.0
C458 C 0.11662 0.26462 0.54928 0.0
C459 C 0.08511 0.28191 0.55481 0.0
C460 C 0.0564 0.26766 0.58139 0.0
C461 C 0.05866 0.23594 0.60305 0.0
H462 H 0.14446 0.22069 0.56756 0.0
C463 C 0.09106 0.21957 0.59789 0.0
C464 C 0.12005 0.23411 0.57129 0.0
H465 H 0.09395 0.1955 0.6143 0.0
H466 H 0.13481 0.23983 0.39175 0.0
H467 H 0.09256 0.24635 0.43716 0.0
H468 H 0.22777 0.33484 0.4834 0.0
H469 H 0.27016 0.32872 0.43833 0.0
H470 H 0.09542 0.28153 0.49116 0.0
H471 H 0.17861 0.27544 0.5215 0.0
H472 H 0.08269 0.30662 0.53876 0.0
H473 H 0.03221 0.28142 0.58479 0.0
C474 C 0.87189 0.25807 0.79843 0.0
C475 C 0.8524 0.21791 0.77871 0.0
C476 C 0.84203 0.26891 0.81594 0.0
C477 C 0.79188 0.2396 0.81432 0.0
C478 C 0.77242 0.20009 0.79412 0.0
C479 C 0.80228 0.18929 0.77656 0.0
C480 C 0.75946 0.24746 0.83515 0.0
C481 C 0.77482 0.26645 0.86358 0.0
C482 C 0.78561 0.23933 0.88732 0.0
C483 C 0.82144 0.2644 0.90969 0.0
C484 C 0.83763 0.24025 0.92888 0.0
C485 C 0.81843 0.1906 0.92586 0.0
H486 H 0.73565 0.16841 0.86949 0.0
C487 C 0.7806 0.16514 0.90483 0.0
C488 C 0.76402 0.18912 0.88599 0.0
H489 H 0.7644 0.12669 0.90243 0.0
H490 H 0.9103 0.28129 0.80038 0.0
H491 H 0.85834 0.29988 0.83108 0.0
H492 H 0.73397 0.17684 0.79241 0.0
H493 H 0.78599 0.15833 0.76139 0.0
H494 H 0.72212 0.21934 0.83396 0.0
H495 H 0.79916 0.30493 0.86395 0.0
H496 H 0.83845 0.303 0.91142 0.0
H497 H 0.86659 0.26078 0.94507 0.0
C498 C 0.96435 0.05972 0.09061 0.0
C499 C 0.9257 0.02414 0.07352 0.0
C500 C 0.96916 0.05308 0.12242 0.0
C501 C 0.93563 0.01043 0.13735 0.0
C502 C 0.89966 0.97343 0.11949 0.0
C503 C 0.89432 0.98044 0.08795 0.0
C504 C 0.934 0.00382 0.17162 0.0
C505 C 0.95122 0.03974 0.19253 0.0
C506 C 0.93687 0.02799 0.22548 0.0
C507 C 0.88793 0.00279 0.23291 0.0
C508 C 0.87268 0.97943 0.26154 0.0
C509 C 0.90619 0.98092 0.28313 0.0
H510 H 0.00864 0.05419 0.24298 0.0
C511 C 0.95541 0.01116 0.27722 0.0
C512 C 0.97071 0.03461 0.24837 0.0
H513 H 0.98202 0.01297 0.29349 0.0
H514 H 0.98879 0.094 0.08001 0.0
H515 H 0.99802 0.08189 0.1353 0.0
H516 H 0.87366 0.94003 0.1304 0.0
H517 H 0.86424 0.95259 0.07523 0.0
H518 H 0.9125 0.96727 0.18026 0.0
H519 H 0.9729 0.07698 0.18567 0.0
H520 H 0.86135 0.99798 0.21558 0.0
H521 H 0.83457 0.95693 0.26566 0.0
C522 C 0.87411 0.69448 0.43059 0.0
C523 C 0.83699 0.70518 0.42811 0.0
C524 C 0.88783 0.68652 0.45994 0.0
C525 C 0.86472 0.68943 0.4869 0.0
C526 C 0.82237 0.69136 0.48383 0.0
C527 C 0.80842 0.69894 0.45451 0.0
C528 C 0.89074 0.70024 0.51692 0.0
C529 C 0.89428 0.73578 0.53537 0.0
C530 C 0.93292 0.7608 0.55879 0.0
C531 C 0.94628 0.80801 0.5673 0.0
C532 C 0.9861 0.83479 0.58648 0.0
C533 C 0.01337 0.8148 0.59721 0.0
H534 H 0.94859 0.70331 0.5664 0.0
C535 C 0.99867 0.76692 0.58983 0.0
C536 C 0.95869 0.74007 0.57116 0.0
H537 H 0.01802 0.74987 0.59862 0.0
H538 H 0.89621 0.69791 0.4106 0.0
H539 H 0.91997 0.68389 0.46177 0.0
H540 H 0.80273 0.69162 0.50427 0.0
H541 H 0.77856 0.70541 0.4532 0.0
H542 H 0.91491 0.68633 0.52006 0.0
H543 H 0.87271 0.75214 0.52995 0.0
H544 H 0.92676 0.82475 0.55831 0.0
H545 H 0.99621 0.87134 0.5922 0.0
C546 C 0.228 0.79607 0.75896 0.0
C547 C 0.24648 0.84457 0.75117 0.0
C548 C 0.24503 0.78335 0.78508 0.0
C549 C 0.28015 0.81913 0.80404 0.0
C550 C 0.30356 0.86689 0.79344 0.0
C551 C 0.28672 0.87964 0.7671 0.0
C552 C 0.28476 0.81029 0.8375 0.0
C553 C 0.24481 0.78383 0.85472 0.0
C554 C 0.23693 0.80368 0.88384 0.0
C555 C 0.27516 0.83368 0.90346 0.0
C556 C 0.27074 0.86521 0.92346 0.0
C557 C 0.22776 0.86633 0.92477 0.0
H558 H 0.1619 0.77727 0.87359 0.0
C559 C 0.18753 0.83178 0.90861 0.0
C560 C 0.19214 0.80056 0.88819 0.0
H561 H 0.15391 0.83168 0.90962 0.0
H562 H 0.19779 0.76821 0.74633 0.0
H563 H 0.22763 0.74603 0.79199 0.0
H564 H 0.33125 0.89511 0.80745 0.0
H565 H 0.30195 0.91719 0.76126 0.0
H566 H 0.3168 0.83788 0.8489 0.0
H567 H 0.21246 0.7572 0.84305 0.0
H568 H 0.30953 0.83552 0.90167 0.0
H569 H 0.30189 0.89072 0.93657 0.0
loop_
_geom_bond_atom_site_label_1
_geom_bond_atom_site_label_2
_geom_bond_distance
_geom_bond_site_symmetry_2
_ccdc_geom_bond_type
O0 Zn1 1.953 1_556 S
O0 C16 1.226 1_556 S
Zn1 O0 1.953 1_554 S
Zn1 O2 1.949 . S
Zn1 O8 1.919 1_544 S
Zn1 O13 1.924 1_545 S
O2 Zn1 1.949 . S
O2 Zn3 1.923 1_554 S
O2 Zn4 1.950 . S
O2 Zn5 1.945 . S
Zn3 O2 1.923 1_556 S
Zn3 O6 1.933 . S
Zn3 O9 1.941 . S
Zn3 O10 1.965 . S
Zn4 O2 1.950 . S
Zn4 O11 1.938 1_554 S
Zn4 O12 1.906 . S
Zn4 O22 1.953 . S
Zn5 O2 1.945 . S
Zn5 O7 1.932 . S
Zn5 O14 1.977 . S
Zn5 O15 1.910 . S
O6 Zn3 1.933 . S
O6 C17 1.226 1_556 S
O7 Zn5 1.932 . S
O7 C17 1.307 . S
O8 Zn1 1.919 1_566 S
O8 C19 1.253 . S
O9 Zn3 1.941 . S
O9 C19 1.283 1_545 S
O10 Zn3 1.965 . S
O10 C18 1.303 . S
O11 Zn4 1.938 1_556 S
O11 C18 1.247 . S
O12 Zn4 1.906 . S
O12 C20 1.304 . S
O13 Zn1 1.924 1_565 S
O13 C21 1.311 . S
O14 Zn5 1.977 . S
O14 C20 1.272 . S
O15 Zn5 1.910 . S
O15 C21 1.231 1_545 S
C16 O0 1.226 1_554 S
C16 O22 1.298 . S
C17 O6 1.226 1_554 S
C17 O7 1.307 . S
C18 O10 1.303 . S
C18 O11 1.247 . S
C19 O8 1.253 . S
C19 O9 1.283 1_565 S
C20 O12 1.304 . S
C20 O14 1.272 . S
C21 O13 1.311 . S
C21 O15 1.231 1_565 S
O22 Zn4 1.953 . S
O22 C16 1.298 . S
O23 Zn24 1.953 . S
O23 C39 1.225 . S
Zn24 O23 1.953 . S
Zn24 O25 1.949 . S
Zn24 O31 1.919 . S
Zn24 O36 1.924 . S
O25 Zn24 1.949 . S
O25 Zn26 1.923 . S
O25 Zn27 1.950 . S
O25 Zn28 1.945 . S
Zn26 O25 1.923 . S
Zn26 O29 1.933 . S
Zn26 O32 1.941 . S
Zn26 O33 1.965 . S
Zn27 O25 1.950 . S
Zn27 O34 1.938 . S
Zn27 O35 1.906 . S
Zn27 O45 1.953 . S
Zn28 O25 1.945 . S
Zn28 O30 1.932 . S
Zn28 O37 1.977 . S
Zn28 O38 1.910 . S
O29 Zn26 1.933 . S
O29 C40 1.226 . S
O30 Zn28 1.932 . S
O30 C40 1.307 . S
O31 Zn24 1.919 . S
O31 C42 1.253 . S
O32 Zn26 1.941 . S
O32 C42 1.283 . S
O33 Zn26 1.965 . S
O33 C41 1.303 . S
O34 Zn27 1.938 . S
O34 C41 1.247 . S
O35 Zn27 1.906 . S
O35 C43 1.304 . S
O36 Zn24 1.924 . S
O36 C44 1.311 . S
O37 Zn28 1.977 . S
O37 C43 1.272 . S
O38 Zn28 1.910 . S
O38 C44 1.231 . S
C39 O23 1.225 . S
C39 O45 1.298 . S
C40 O29 1.226 . S
C40 O30 1.307 . S
C41 O33 1.303 . S
C41 O34 1.247 . S
C42 O31 1.253 . S
C42 O32 1.283 . S
C43 O35 1.304 . S
C43 O37 1.272 . S
C44 O36 1.311 . S
C44 O38 1.231 . S
O45 Zn27 1.953 . S
O45 C39 1.298 . S
O46 Zn47 1.953 . S
O46 C62 1.225 . S
Zn47 O46 1.953 . S
Zn47 O48 1.949 . S
Zn47 O54 1.919 . S
Zn47 O59 1.924 . S
O48 Zn47 1.949 . S
O48 Zn49 1.923 . S
O48 Zn50 1.950 1_455 S
O48 Zn51 1.945 . S
Zn49 O48 1.923 . S
Zn49 O52 1.933 . S
Zn49 O55 1.941 . S
Zn49 O56 1.965 1_455 S
Zn50 O48 1.950 1_655 S
Zn50 O57 1.938 . S
Zn50 O58 1.906 . S
Zn50 O68 1.953 1_655 S
Zn51 O48 1.945 . S
Zn51 O53 1.932 . S
Zn51 O60 1.977 . S
Zn51 O61 1.910 . S
O52 Zn49 1.933 . S
O52 C63 1.226 . S
O53 Zn51 1.932 . S
O53 C63 1.307 . S
O54 Zn47 1.919 . S
O54 C65 1.253 . S
O55 Zn49 1.941 . S
O55 C65 1.283 . S
O56 Zn49 1.965 1_655 S
O56 C64 1.303 . S
O57 Zn50 1.938 . S
O57 C64 1.247 . S
O58 Zn50 1.906 . S
O58 C66 1.304 . S
O59 Zn47 1.924 . S
O59 C67 1.311 . S
O60 Zn51 1.977 . S
O60 C66 1.272 1_455 S
O61 Zn51 1.910 . S
O61 C67 1.231 . S
C62 O46 1.225 . S
C62 O68 1.298 . S
C63 O52 1.226 . S
C63 O53 1.307 . S
C64 O56 1.303 . S
C64 O57 1.247 . S
C65 O54 1.253 . S
C65 O55 1.283 . S
C66 O58 1.304 . S
C66 O60 1.272 1_655 S
C67 O59 1.311 . S
C67 O61 1.231 . S
O68 Zn50 1.953 1_455 S
O68 C62 1.298 . S
O69 Zn70 1.953 1_556 S
O69 C85 1.226 1_556 S
Zn70 O69 1.953 1_554 S
Zn70 O71 1.949 . S
Zn70 O77 1.919 1_554 S
Zn70 O82 1.924 . S
O71 Zn70 1.949 . S
O71 Zn72 1.923 1_554 S
O71 Zn73 1.950 1_545 S
O71 Zn74 1.945 . S
Zn72 O71 1.923 1_556 S
Zn72 O75 1.933 . S
Zn72 O78 1.941 . S
Zn72 O79 1.965 1_545 S
Zn73 O71 1.950 1_565 S
Zn73 O80 1.938 1_554 S
Zn73 O81 1.906 . S
Zn73 O91 1.953 . S
Zn74 O71 1.945 . S
Zn74 O76 1.932 . S
Zn74 O83 1.977 1_545 S
Zn74 O84 1.910 . S
O75 Zn72 1.933 . S
O75 C86 1.226 1_556 S
O76 Zn74 1.932 . S
O76 C86 1.307 . S
O77 Zn70 1.919 1_556 S
O77 C88 1.253 . S
O78 Zn72 1.941 . S
O78 C88 1.283 . S
O79 Zn72 1.965 1_565 S
O79 C87 1.303 . S
O80 Zn73 1.938 1_556 S
O80 C87 1.247 . S
O81 Zn73 1.906 . S
O81 C89 1.304 . S
O82 Zn70 1.924 . S
O82 C90 1.311 . S
O83 Zn74 1.977 1_565 S
O83 C89 1.272 . S
O84 Zn74 1.910 . S
O84 C90 1.231 . S
C85 O69 1.226 1_554 S
C85 O91 1.298 1_545 S
C86 O75 1.226 1_554 S
C86 O76 1.307 . S
C87 O79 1.303 . S
C87 O80 1.247 . S
C88 O77 1.253 . S
C88 O78 1.283 . S
C89 O81 1.304 . S
C89 O83 1.272 . S
C90 O82 1.311 . S
C90 O84 1.231 . S
O91 Zn73 1.953 . S
O91 C85 1.298 1_565 S
O92 Zn93 1.953 . S
O92 C108 1.225 . S
Zn93 O92 1.953 . S
Zn93 O94 1.949 . S
Zn93 O100 1.919 . S
Zn93 O105 1.924 . S
O94 Zn93 1.949 . S
O94 Zn95 1.923 . S
O94 Zn96 1.950 . S
O94 Zn97 1.945 . S
Zn95 O94 1.923 . S
Zn95 O98 1.933 . S
Zn95 O101 1.941 . S
Zn95 O102 1.965 . S
Zn96 O94 1.950 . S
Zn96 O103 1.938 . S
Zn96 O104 1.906 . S
Zn96 O114 1.953 . S
Zn97 O94 1.945 . S
Zn97 O99 1.932 . S
Zn97 O106 1.977 . S
Zn97 O107 1.910 . S
O98 Zn95 1.933 . S
O98 C109 1.226 . S
O99 Zn97 1.932 . S
O99 C109 1.307 . S
O100 Zn93 1.919 . S
O100 C111 1.253 . S
O101 Zn95 1.941 . S
O101 C111 1.283 . S
O102 Zn95 1.965 . S
O102 C110 1.303 . S
O103 Zn96 1.938 . S
O103 C110 1.247 . S
O104 Zn96 1.906 . S
O104 C112 1.304 . S
O105 Zn93 1.924 . S
O105 C113 1.311 . S
O106 Zn97 1.977 . S
O106 C112 1.272 . S
O107 Zn97 1.910 . S
O107 C113 1.231 . S
C108 O92 1.225 . S
C108 O114 1.298 . S
C109 O98 1.226 . S
C109 O99 1.307 . S
C110 O102 1.303 . S
C110 O103 1.247 . S
C111 O100 1.253 . S
C111 O101 1.283 . S
C112 O104 1.304 . S
C112 O106 1.272 . S
C113 O105 1.311 . S
C113 O107 1.231 . S
O114 Zn96 1.953 . S
O114 C108 1.298 . S
O115 Zn116 1.953 . S
O115 C131 1.225 . S
Zn116 O115 1.953 . S
Zn116 O117 1.949 . S
Zn116 O123 1.923 . S
Zn116 O128 1.924 1_455 S
O117 Zn116 1.949 . S
O117 Zn118 1.923 . S
O117 Zn119 1.950 . S
O117 Zn120 1.945 . S
Zn118 O117 1.923 . S
Zn118 O121 1.933 . S
Zn118 O124 1.941 . S
Zn118 O125 1.965 . S
Zn119 O117 1.950 . S
Zn119 O126 1.938 . S
Zn119 O127 1.906 . S
Zn119 O137 1.953 . S
Zn120 O117 1.945 . S
Zn120 O122 1.932 . S
Zn120 O129 1.977 . S
Zn120 O130 1.910 . S
O121 Zn118 1.933 . S
O121 C132 1.226 . S
O122 Zn120 1.932 . S
O122 C132 1.307 . S
O123 Zn116 1.923 . S
O123 C134 1.262 . S
O124 Zn118 1.941 . S
O124 C134 1.283 . S
O125 Zn118 1.965 . S
O125 C133 1.303 . S
O126 Zn119 1.938 . S
O126 C133 1.247 . S
O127 Zn119 1.906 . S
O127 C135 1.304 . S
O128 Zn116 1.924 1_655 S
O128 C136 1.304 1_655 S
O129 Zn120 1.977 . S
O129 C135 1.272 . S
O130 Zn120 1.910 . S
O130 C136 1.251 . S
C131 O115 1.225 . S
C131 O137 1.298 . S
C132 O121 1.226 . S
C132 O122 1.307 . S
C133 O125 1.303 . S
C133 O126 1.247 . S
C134 O123 1.262 . S
C134 O124 1.283 . S
C135 O127 1.304 . S
C135 O129 1.272 . S
C136 O128 1.304 1_455 S
C136 O130 1.251 . S
O137 Zn119 1.953 . S
O137 C131 1.298 . S
C138 C139 1.386 1_565 S
C138 C140 1.383 1_565 S
C138 H154 0.951 . S
C139 C138 1.386 1_545 S
C139 C143 1.383 . S
C140 C138 1.383 1_545 S
C140 C141 1.402 1_655 S
C140 H155 0.951 1_545 S
C141 C140 1.402 1_455 S
C141 C142 1.375 1_455 S
C141 C144 1.480 1_554 S
C142 C141 1.375 1_655 S
C142 C143 1.367 . S
C142 H156 0.951 1_655 S
C143 C139 1.383 . S
C143 C142 1.367 . S
C143 H157 0.950 . S
C144 C141 1.480 1_556 S
C144 C145 1.300 . S
C144 H158 0.949 1_556 S
C145 C144 1.300 . S
C145 C146 1.479 . S
C145 H159 0.950 . S
C146 C145 1.479 . S
C146 C147 1.375 . S
C146 C152 1.404 . S
C147 C146 1.375 . S
C147 C148 1.369 1_556 S
C147 H160 0.950 1_545 S
C148 C147 1.369 1_554 S
C148 C149 1.392 . S
C148 H161 0.951 1_545 S
C149 C148 1.392 . S
C149 C151 1.384 . S
H150 C152 0.949 . S
C151 C149 1.384 . S
C151 C152 1.385 1_554 S
C151 H153 0.950 1_554 S
C152 C146 1.404 . S
C152 H150 0.949 . S
C152 C151 1.385 1_556 S
H153 C151 0.950 1_556 S
H154 C138 0.951 . S
H155 C140 0.951 1_565 S
H156 C142 0.951 1_455 S
H157 C143 0.950 . S
H158 C144 0.949 1_554 S
H159 C145 0.950 . S
H160 C147 0.950 1_565 S
H161 C148 0.951 1_565 S
C162 C163 1.386 . S
C162 C164 1.383 . S
C162 H178 0.951 . S
C163 C162 1.386 . S
C163 C167 1.383 . S
C164 C162 1.383 . S
C164 C165 1.402 1_655 S
C164 H179 0.951 1_655 S
C165 C164 1.402 1_455 S
C165 C166 1.375 . S
C165 C168 1.481 1_565 S
C166 C165 1.375 . S
C166 C167 1.367 1_455 S
C166 H180 0.951 . S
C167 C163 1.383 . S
C167 C166 1.367 1_655 S
C167 H181 0.950 . S
C168 C165 1.481 1_545 S
C168 C169 1.297 . S
C168 H182 0.950 . S
C169 C168 1.297 . S
C169 C170 1.479 . S
C169 H183 0.950 . S
C170 C169 1.479 . S
C170 C171 1.375 . S
C170 C176 1.404 . S
C171 C170 1.375 . S
C171 C172 1.369 . S
C171 H184 0.950 . S
C172 C171 1.369 . S
C172 C173 1.392 . S
C172 H185 0.951 . S
C173 C172 1.392 . S
C173 C175 1.384 . S
H174 C176 0.949 . S
C175 C173 1.384 . S
C175 C176 1.385 . S
C175 H177 0.950 . S
C176 C170 1.404 . S
C176 H174 0.949 . S
C176 C175 1.385 . S
H177 C175 0.950 . S
H178 C162 0.951 . S
H179 C164 0.951 1_455 S
H180 C166 0.951 . S
H181 C167 0.950 . S
H182 C168 0.950 . S
H183 C169 0.950 . S
H184 C171 0.950 . S
H185 C172 0.951 . S
C186 C187 1.386 . S
C186 C188 1.383 . S
C186 H202 0.951 . S
C187 C186 1.386 . S
C187 C191 1.383 . S
C188 C186 1.383 . S
C188 C189 1.402 . S
C188 H203 0.951 . S
C189 C188 1.402 . S
C189 C190 1.375 . S
C189 C192 1.481 1_565 S
C190 C189 1.375 . S
C190 C191 1.367 . S
C190 H204 0.951 1_565 S
C191 C187 1.383 . S
C191 C190 1.367 . S
C191 H205 0.950 . S
C192 C189 1.481 1_545 S
C192 C193 1.297 . S
C192 H206 0.950 . S
C193 C192 1.297 . S
C193 C194 1.479 . S
C193 H207 0.950 . S
C194 C193 1.479 . S
C194 C195 1.375 . S
C194 C200 1.404 . S
C195 C194 1.375 . S
C195 C196 1.369 . S
C195 H208 0.950 1_455 S
C196 C195 1.369 . S
C196 C197 1.392 . S
C196 H209 0.951 1_455 S
C197 C196 1.392 . S
C197 C199 1.384 . S
H198 C200 0.949 . S
C199 C197 1.384 . S
C199 C200 1.385 . S
C199 H201 0.950 . S
C200 C194 1.404 . S
C200 H198 0.949 . S
C200 C199 1.385 . S
H201 C199 0.950 . S
H202 C186 0.951 . S
H203 C188 0.951 . S
H204 C190 0.951 1_545 S
H205 C191 0.950 . S
H206 C192 0.950 . S
H207 C193 0.950 . S
H208 C195 0.950 1_655 S
H209 C196 0.951 1_655 S
C210 C211 1.386 . S
C210 C212 1.383 . S
C210 H226 0.951 . S
C211 C210 1.386 . S
C211 C215 1.383 . S
C212 C210 1.383 . S
C212 C213 1.402 . S
C212 H227 0.951 . S
C213 C212 1.402 . S
C213 C214 1.375 . S
C213 C216 1.481 . S
C214 C213 1.375 . S
C214 C215 1.367 . S
C214 H228 0.951 . S
C215 C211 1.383 . S
C215 C214 1.367 . S
C215 H229 0.950 . S
C216 C213 1.481 . S
C216 C217 1.297 . S
C216 H230 0.950 . S
C217 C216 1.297 . S
C217 C218 1.479 . S
C217 H231 0.950 . S
C218 C217 1.479 . S
C218 C219 1.375 . S
C218 C224 1.404 . S
C219 C218 1.375 . S
C219 C220 1.369 . S
C219 H232 0.950 . S
C220 C219 1.369 . S
C220 C221 1.392 . S
C220 H233 0.951 . S
C221 C220 1.392 . S
C221 C223 1.384 . S
H222 C224 0.949 . S
C223 C221 1.384 . S
C223 C224 1.385 . S
C223 H225 0.950 . S
C224 C218 1.404 . S
C224 H222 0.949 . S
C224 C223 1.385 . S
H225 C223 0.950 . S
H226 C210 0.951 . S
H227 C212 0.951 . S
H228 C214 0.951 . S
H229 C215 0.950 . S
H230 C216 0.950 . S
H231 C217 0.950 . S
H232 C219 0.950 . S
H233 C220 0.951 . S
C234 C235 1.386 . S
C234 C236 1.383 . S
C234 H250 0.951 . S
C235 C234 1.386 . S
C235 C239 1.383 . S
C236 C234 1.383 . S
C236 C237 1.402 . S
C236 H251 0.951 . S
C237 C236 1.402 . S
C237 C238 1.375 . S
C237 C240 1.481 . S
C238 C237 1.375 . S
C238 C239 1.367 . S
C238 H252 0.951 . S
C239 C235 1.383 . S
C239 C238 1.367 . S
C239 H253 0.950 . S
C240 C237 1.481 . S
C240 C241 1.297 . S
C240 H254 0.950 . S
C241 C240 1.297 . S
C241 C242 1.479 . S
C241 H255 0.950 . S
C242 C241 1.479 . S
C242 C243 1.375 . S
C242 C248 1.404 1_455 S
C243 C242 1.375 . S
C243 C244 1.369 1_455 S
C243 H256 0.950 . S
C244 C243 1.369 1_655 S
C244 C245 1.392 . S
C244 H257 0.951 . S
C245 C244 1.392 . S
C245 C247 1.384 . S
H246 C248 0.949 . S
C247 C245 1.384 . S
C247 C248 1.385 . S
C247 H249 0.950 . S
C248 C242 1.404 1_655 S
C248 H246 0.949 . S
C248 C247 1.385 . S
H249 C247 0.950 . S
H250 C234 0.951 . S
H251 C236 0.951 . S
H252 C238 0.951 . S
H253 C239 0.950 . S
H254 C240 0.950 . S
H255 C241 0.950 . S
H256 C243 0.950 . S
H257 C244 0.951 . S
C258 C259 1.386 . S
C258 C260 1.383 . S
C258 H274 0.951 . S
C259 C258 1.386 . S
C259 C263 1.383 . S
C260 C258 1.383 . S
C260 C261 1.402 . S
C260 H275 0.951 . S
C261 C260 1.402 . S
C261 C262 1.375 . S
C261 C264 1.481 . S
C262 C261 1.375 . S
C262 C263 1.367 . S
C262 H276 0.951 . S
C263 C259 1.383 . S
C263 C262 1.367 . S
C263 H277 0.950 . S
C264 C261 1.481 . S
C264 C265 1.297 . S
C264 H278 0.950 . S
C265 C264 1.297 . S
C265 C266 1.479 1_545 S
C265 H279 0.950 . S
C266 C265 1.479 1_565 S
C266 C267 1.375 . S
C266 C272 1.404 . S
C267 C266 1.375 . S
C267 C268 1.369 . S
C267 H280 0.950 . S
C268 C267 1.369 . S
C268 C269 1.392 . S
C268 H281 0.951 . S
C269 C268 1.392 . S
C269 C271 1.384 . S
H270 C272 0.949 . S
C271 C269 1.384 . S
C271 C272 1.385 . S
C271 H273 0.950 . S
C272 C266 1.404 . S
C272 H270 0.949 . S
C272 C271 1.385 . S
H273 C271 0.950 . S
H274 C258 0.951 . S
H275 C260 0.951 . S
H276 C262 0.951 . S
H277 C263 0.950 . S
H278 C264 0.950 . S
H279 C265 0.950 . S
H280 C267 0.950 . S
H281 C268 0.951 . S
C282 C283 1.386 . S
C282 C284 1.383 . S
C282 H298 0.951 . S
C283 C282 1.386 . S
C283 C287 1.383 . S
C284 C282 1.383 . S
C284 C285 1.402 . S
C284 H299 0.951 . S
C285 C284 1.402 . S
C285 C286 1.375 . S
C285 C288 1.481 . S
C286 C285 1.375 . S
C286 C287 1.367 . S
C286 H300 0.951 . S
C287 C283 1.383 . S
C287 C286 1.367 . S
C287 H301 0.950 . S
C288 C285 1.481 . S
C288 C289 1.297 . S
C288 H302 0.950 . S
C289 C288 1.297 . S
C289 C290 1.479 . S
C289 H303 0.950 . S
C290 C289 1.479 . S
C290 C291 1.375 . S
C290 C296 1.404 . S
C291 C290 1.375 . S
C291 C292 1.369 . S
C291 H304 0.950 . S
C292 C291 1.369 . S
C292 C293 1.392 . S
C292 H305 0.951 . S
C293 C292 1.392 . S
C293 C295 1.384 . S
H294 C296 0.949 . S
C295 C293 1.384 . S
C295 C296 1.385 . S
C295 H297 0.950 . S
C296 C290 1.404 . S
C296 H294 0.949 . S
C296 C295 1.385 . S
H297 C295 0.950 . S
H298 C282 0.951 . S
H299 C284 0.951 . S
H300 C286 0.951 . S
H301 C287 0.950 . S
H302 C288 0.950 . S
H303 C289 0.950 . S
H304 C291 0.950 . S
H305 C292 0.951 . S
C306 C307 1.386 . S
C306 C308 1.383 1_655 S
C306 H322 0.951 . S
C307 C306 1.386 . S
C307 C311 1.383 1_655 S
C308 C306 1.383 1_455 S
C308 C309 1.402 . S
C308 H323 0.951 . S
C309 C308 1.402 . S
C309 C310 1.375 . S
C309 C312 1.481 . S
C310 C309 1.375 . S
C310 C311 1.367 . S
C310 H324 0.951 . S
C311 C307 1.383 1_455 S
C311 C310 1.367 . S
C311 H325 0.950 . S
C312 C309 1.481 . S
C312 C313 1.297 . S
C312 H326 0.950 . S
C313 C312 1.297 . S
C313 C314 1.479 . S
C313 H327 0.950 . S
C314 C313 1.479 . S
C314 C315 1.375 . S
C314 C320 1.404 . S
C315 C314 1.375 . S
C315 C316 1.369 . S
C315 H328 0.950 . S
C316 C315 1.369 . S
C316 C317 1.392 . S
C316 H329 0.951 . S
C317 C316 1.392 . S
C317 C319 1.384 . S
H318 C320 0.949 . S
C319 C317 1.384 . S
C319 C320 1.385 . S
C319 H321 0.950 . S
C320 C314 1.404 . S
C320 H318 0.949 . S
C320 C319 1.385 . S
H321 C319 0.950 . S
H322 C306 0.951 . S
H323 C308 0.951 . S
H324 C310 0.951 . S
H325 C311 0.950 . S
H326 C312 0.950 . S
H327 C313 0.950 . S
H328 C315 0.950 . S
H329 C316 0.951 . S
C330 C331 1.386 . S
C330 C332 1.383 . S
C330 H346 0.951 . S
C331 C330 1.386 . S
C331 C335 1.383 . S
C332 C330 1.383 . S
C332 C333 1.402 1_565 S
C332 H347 0.951 . S
C333 C332 1.402 1_545 S
C333 C334 1.375 . S
C333 C336 1.481 . S
C334 C333 1.375 . S
C334 C335 1.367 1_545 S
C334 H348 0.951 . S
C335 C331 1.383 . S
C335 C334 1.367 1_565 S
C335 H349 0.950 . S
C336 C333 1.481 . S
C336 C337 1.297 . S
C336 H350 0.950 . S
C337 C336 1.297 . S
C337 C338 1.479 . S
C337 H351 0.950 . S
C338 C337 1.479 . S
C338 C339 1.375 . S
C338 C344 1.404 . S
C339 C338 1.375 . S
C339 C340 1.369 . S
C339 H352 0.950 . S
C340 C339 1.369 . S
C340 C341 1.392 . S
C340 H353 0.951 . S
C341 C340 1.392 . S
C341 C343 1.384 . S
H342 C344 0.949 . S
C343 C341 1.384 . S
C343 C344 1.385 . S
C343 H345 0.950 . S
C344 C338 1.404 . S
C344 H342 0.949 . S
C344 C343 1.385 . S
H345 C343 0.950 . S
H346 C330 0.951 . S
H347 C332 0.951 . S
H348 C334 0.951 . S
H349 C335 0.950 . S
H350 C336 0.950 . S
H351 C337 0.950 . S
H352 C339 0.950 . S
H353 C340 0.951 . S
C354 C355 1.386 . S
C354 C356 1.383 . S
C354 H370 0.951 . S
C355 C354 1.386 . S
C355 C359 1.383 1_554 S
C356 C354 1.383 . S
C356 C357 1.402 1_554 S
C356 H371 0.951 . S
C357 C356 1.402 1_556 S
C357 C358 1.375 . S
C357 C360 1.481 . S
C358 C357 1.375 . S
C358 C359 1.367 . S
C358 H372 0.951 . S
C359 C355 1.383 1_556 S
C359 C358 1.367 . S
C359 H373 0.950 . S
C360 C357 1.481 . S
C360 C361 1.297 1_556 S
C360 H374 0.950 . S
C361 C360 1.297 1_554 S
C361 C362 1.479 . S
C361 H375 0.950 1_545 S
C362 C361 1.479 . S
C362 C363 1.375 1_545 S
C362 C368 1.404 1_554 S
C363 C362 1.375 1_565 S
C363 C364 1.369 . S
C363 H376 0.950 . S
C364 C363 1.369 . S
C364 C365 1.392 1_565 S
C364 H377 0.951 . S
C365 C364 1.392 1_545 S
C365 C367 1.384 1_554 S
H366 C368 0.949 . S
C367 C365 1.384 1_556 S
C367 C368 1.385 . S
C367 H369 0.950 . S
C368 C362 1.404 1_556 S
C368 H366 0.949 . S
C368 C367 1.385 . S
H369 C367 0.950 . S
H370 C354 0.951 . S
H371 C356 0.951 . S
H372 C358 0.951 . S
H373 C359 0.950 . S
H374 C360 0.950 . S
H375 C361 0.950 1_565 S
H376 C363 0.950 . S
H377 C364 0.951 . S
C378 C379 1.386 . S
C378 C380 1.383 . S
C378 H394 0.951 . S
C379 C378 1.386 . S
C379 C383 1.383 . S
C380 C378 1.383 . S
C380 C381 1.402 . S
C380 H395 0.951 . S
C381 C380 1.402 . S
C381 C382 1.375 . S
C381 C384 1.481 . S
C382 C381 1.375 . S
C382 C383 1.367 . S
C382 H396 0.951 . S
C383 C379 1.383 . S
C383 C382 1.367 . S
C383 H397 0.950 . S
C384 C381 1.481 . S
C384 C385 1.297 . S
C384 H398 0.950 . S
C385 C384 1.297 . S
C385 C386 1.479 . S
C385 H399 0.950 . S
C386 C385 1.479 . S
C386 C387 1.375 . S
C386 C392 1.404 . S
C387 C386 1.375 . S
C387 C388 1.369 . S
C387 H400 0.950 . S
C388 C387 1.369 . S
C388 C389 1.392 . S
C388 H401 0.951 . S
C389 C388 1.392 . S
C389 C391 1.384 . S
H390 C392 0.949 . S
C391 C389 1.384 . S
C391 C392 1.385 . S
C391 H393 0.950 . S
C392 C386 1.404 . S
C392 H390 0.949 . S
C392 C391 1.385 . S
H393 C391 0.950 . S
H394 C378 0.951 . S
H395 C380 0.951 . S
H396 C382 0.951 . S
H397 C383 0.950 . S
H398 C384 0.950 . S
H399 C385 0.950 . S
H400 C387 0.950 . S
H401 C388 0.951 . S
C402 C403 1.386 . S
C402 C404 1.383 . S
C402 H418 0.951 . S
C403 C402 1.386 . S
C403 C407 1.404 . S
C404 C402 1.383 . S
C404 C405 1.402 . S
C404 H419 0.951 . S
C405 C404 1.402 . S
C405 C406 1.375 . S
C405 C408 1.481 . S
C406 C405 1.375 . S
C406 C407 1.357 . S
C406 H420 0.951 1_455 S
C407 C403 1.404 . S
C407 C406 1.357 . S
C407 H421 0.939 1_455 S
C408 C405 1.481 . S
C408 C409 1.297 . S
C408 H422 0.950 . S
C409 C408 1.297 . S
C409 C410 1.479 . S
C409 H423 0.950 . S
C410 C409 1.479 . S
C410 C411 1.375 . S
C410 C416 1.404 . S
C411 C410 1.375 . S
C411 C412 1.369 . S
C411 H424 0.950 . S
C412 C411 1.369 . S
C412 C413 1.392 . S
C412 H425 0.951 . S
C413 C412 1.392 . S
C413 C415 1.384 . S
H414 C416 0.949 . S
C415 C413 1.384 . S
C415 C416 1.385 . S
C415 H417 0.950 . S
C416 C410 1.404 . S
C416 H414 0.949 . S
C416 C415 1.385 . S
H417 C415 0.950 . S
H418 C402 0.951 . S
H419 C404 0.951 . S
H420 C406 0.951 1_655 S
H421 C407 0.939 1_655 S
H422 C408 0.950 . S
H423 C409 0.950 . S
H424 C411 0.950 . S
H425 C412 0.951 . S
C426 C427 1.386 . S
C426 C428 1.383 . S
C426 H442 0.951 . S
C427 C426 1.386 . S
C427 C431 1.383 . S
C428 C426 1.383 . S
C428 C429 1.402 . S
C428 H443 0.951 . S
C429 C428 1.402 . S
C429 C430 1.375 . S
C429 C432 1.481 . S
C430 C429 1.375 . S
C430 C431 1.367 . S
C430 H444 0.951 . S
C431 C427 1.383 . S
C431 C430 1.367 . S
C431 H445 0.950 . S
C432 C429 1.481 . S
C432 C433 1.297 . S
C432 H446 0.950 . S
C433 C432 1.297 . S
C433 C434 1.479 . S
C433 H447 0.950 . S
C434 C433 1.479 . S
C434 C435 1.375 . S
C434 C440 1.404 . S
C435 C434 1.375 . S
C435 C436 1.369 . S
C435 H448 0.950 . S
C436 C435 1.369 . S
C436 C437 1.392 . S
C436 H449 0.951 . S
C437 C436 1.392 . S
C437 C439 1.384 . S
H438 C440 0.949 . S
C439 C437 1.384 . S
C439 C440 1.385 . S
C439 H441 0.950 . S
C440 C434 1.404 . S
C440 H438 0.949 . S
C440 C439 1.385 . S
H441 C439 0.950 . S
H442 C426 0.951 . S
H443 C428 0.951 . S
H444 C430 0.951 . S
H445 C431 0.950 . S
H446 C432 0.950 . S
H447 C433 0.950 . S
H448 C435 0.950 . S
H449 C436 0.951 . S
C450 C451 1.386 . S
C450 C452 1.383 . S
C450 H466 0.951 . S
C451 C450 1.386 . S
C451 C455 1.383 . S
C452 C450 1.383 . S
C452 C453 1.402 . S
C452 H467 0.951 . S
C453 C452 1.402 . S
C453 C454 1.375 . S
C453 C456 1.481 . S
C454 C453 1.375 . S
C454 C455 1.367 . S
C454 H468 0.951 . S
C455 C451 1.383 . S
C455 C454 1.367 . S
C455 H469 0.950 . S
C456 C453 1.481 . S
C456 C457 1.297 . S
C456 H470 0.950 . S
C457 C456 1.297 . S
C457 C458 1.479 . S
C457 H471 0.950 . S
C458 C457 1.479 . S
C458 C459 1.375 . S
C458 C464 1.404 . S
C459 C458 1.375 . S
C459 C460 1.369 . S
C459 H472 0.950 . S
C460 C459 1.369 . S
C460 C461 1.392 . S
C460 H473 0.951 . S
C461 C460 1.392 . S
C461 C463 1.384 . S
H462 C464 0.949 . S
C463 C461 1.384 . S
C463 C464 1.385 . S
C463 H465 0.950 . S
C464 C458 1.404 . S
C464 H462 0.949 . S
C464 C463 1.385 . S
H465 C463 0.950 . S
H466 C450 0.951 . S
H467 C452 0.951 . S
H468 C454 0.951 . S
H469 C455 0.950 . S
H470 C456 0.950 . S
H471 C457 0.950 . S
H472 C459 0.950 . S
H473 C460 0.951 . S
C474 C475 1.386 . S
C474 C476 1.383 . S
C474 H490 0.951 1_655 S
C475 C474 1.386 . S
C475 C479 1.383 . S
C476 C474 1.383 . S
C476 C477 1.402 . S
C476 H491 0.951 . S
C477 C476 1.402 . S
C477 C478 1.375 . S
C477 C480 1.481 . S
C478 C477 1.375 . S
C478 C479 1.367 . S
C478 H492 0.951 . S
C479 C475 1.383 . S
C479 C478 1.367 . S
C479 H493 0.950 . S
C480 C477 1.481 . S
C480 C481 1.297 . S
C480 H494 0.950 . S
C481 C480 1.297 . S
C481 C482 1.479 . S
C481 H495 0.950 . S
C482 C481 1.479 . S
C482 C483 1.375 . S
C482 C488 1.404 . S
C483 C482 1.375 . S
C483 C484 1.369 . S
C483 H496 0.950 . S
C484 C483 1.369 . S
C484 C485 1.392 . S
C484 H497 0.951 . S
C485 C484 1.392 . S
C485 C487 1.384 . S
H486 C488 0.949 . S
C487 C485 1.384 . S
C487 C488 1.385 . S
C487 H489 0.950 . S
C488 C482 1.404 . S
C488 H486 0.949 . S
C488 C487 1.385 . S
H489 C487 0.950 . S
H490 C474 0.951 1_455 S
H491 C476 0.951 . S
H492 C478 0.951 . S
H493 C479 0.950 . S
H494 C480 0.950 . S
H495 C481 0.950 . S
H496 C483 0.950 . S
H497 C484 0.951 . S
C498 C499 1.386 . S
C498 C500 1.383 . S
C498 H514 0.951 . S
C499 C498 1.386 . S
C499 C503 1.383 . S
C500 C498 1.383 . S
C500 C501 1.402 . S
C500 H515 0.951 . S
C501 C500 1.402 . S
C501 C502 1.375 . S
C501 C504 1.481 . S
C502 C501 1.375 . S
C502 C503 1.367 . S
C502 H516 0.951 . S
C503 C499 1.383 . S
C503 C502 1.367 . S
C503 H517 0.950 . S
C504 C501 1.481 . S
C504 C505 1.297 . S
C504 H518 0.950 . S
C505 C504 1.297 . S
C505 C506 1.479 . S
C505 H519 0.950 . S
C506 C505 1.479 . S
C506 C507 1.375 . S
C506 C512 1.404 . S
C507 C506 1.375 . S
C507 C508 1.369 . S
C507 H520 0.950 . S
C508 C507 1.369 . S
C508 C509 1.392 . S
C508 H521 0.951 . S
C509 C508 1.392 . S
C509 C511 1.384 . S
H510 C512 0.949 . S
C511 C509 1.384 . S
C511 C512 1.385 . S
C511 H513 0.950 . S
C512 C506 1.404 . S
C512 H510 0.949 . S
C512 C511 1.385 . S
H513 C511 0.950 . S
H514 C498 0.951 . S
H515 C500 0.951 . S
H516 C502 0.951 . S
H517 C503 0.950 . S
H518 C504 0.950 . S
H519 C505 0.950 . S
H520 C507 0.950 . S
H521 C508 0.951 . S
C522 C523 1.386 . S
C522 C524 1.383 . S
C522 H538 0.951 . S
C523 C522 1.386 . S
C523 C527 1.383 . S
C524 C522 1.383 . S
C524 C525 1.402 . S
C524 H539 0.951 . S
C525 C524 1.402 . S
C525 C526 1.375 . S
C525 C528 1.481 . S
C526 C525 1.375 . S
C526 C527 1.367 . S
C526 H540 0.951 . S
C527 C523 1.383 . S
C527 C526 1.367 . S
C527 H541 0.950 . S
C528 C525 1.481 . S
C528 C529 1.297 . S
C528 H542 0.950 . S
C529 C528 1.297 . S
C529 C530 1.479 . S
C529 H543 0.950 . S
C530 C529 1.479 . S
C530 C531 1.375 . S
C530 C536 1.404 . S
C531 C530 1.375 . S
C531 C532 1.369 . S
C531 H544 0.950 . S
C532 C531 1.369 . S
C532 C533 1.392 . S
C532 H545 0.951 1_655 S
C533 C532 1.392 . S
C533 C535 1.384 . S
H534 C536 0.949 . S
C535 C533 1.384 . S
C535 C536 1.385 . S
C535 H537 0.950 . S
C536 C530 1.404 . S
C536 H534 0.949 . S
C536 C535 1.385 . S
H537 C535 0.950 . S
H538 C522 0.951 . S
H539 C524 0.951 . S
H540 C526 0.951 . S
H541 C527 0.950 . S
H542 C528 0.950 . S
H543 C529 0.950 . S
H544 C531 0.950 . S
H545 C532 0.951 1_455 S
C546 C547 1.386 . S
C546 C548 1.383 . S
C546 H562 0.951 . S
C547 C546 1.386 . S
C547 C551 1.383 . S
C548 C546 1.383 . S
C548 C549 1.402 . S
C548 H563 0.951 . S
C549 C548 1.402 . S
C549 C550 1.375 . S
C549 C552 1.481 . S
C550 C549 1.375 . S
C550 C551 1.367 . S
C550 H564 0.951 . S
C551 C547 1.383 . S
C551 C550 1.367 . S
C551 H565 0.950 . S
C552 C549 1.481 . S
C552 C553 1.297 . S
C552 H566 0.950 . S
C553 C552 1.297 . S
C553 C554 1.479 . S
C553 H567 0.950 . S
C554 C553 1.479 . S
C554 C555 1.375 . S
C554 C560 1.404 . S
C555 C554 1.375 . S
C555 C556 1.369 . S
C555 H568 0.950 . S
C556 C555 1.369 . S
C556 C557 1.392 . S
C556 H569 0.951 . S
C557 C556 1.392 . S
C557 C559 1.384 1_565 S
H558 C560 0.949 1_545 S
C559 C557 1.384 1_545 S
C559 C560 1.385 1_545 S
C559 H561 0.950 . S
C560 C554 1.404 . S
C560 H558 0.949 1_565 S
C560 C559 1.385 1_565 S
H561 C559 0.950 . S
H562 C546 0.951 . S
H563 C548 0.951 . S
H564 C550 0.951 . S
H565 C551 0.950 . S
H566 C552 0.950 . S
H567 C553 0.950 . S
H568 C555 0.950 . S
H569 C556 0.951 . S
C139 C85 1.099 . S
C149 C16 1.131 . S
C163 C108 1.120 . S
C173 C39 1.121 . S
C187 C131 1.113 . S
C197 C62 1.148 . S
C211 C18 1.888 . S
C221 C67 1.886 . S
C235 C41 1.877 . S
C245 C90 1.872 . S
C259 C64 1.894 . S
C269 C113 1.894 . S
C283 C87 1.900 . S
C293 C136 1.886 1_655 S
C307 C110 1.879 . S
C317 C21 1.875 . S
C331 C133 1.877 . S
C341 C44 1.871 . S
C355 C17 0.862 . S
C365 C86 0.874 . S
C379 C40 0.863 . S
C389 C109 0.845 . S
C403 C63 0.870 . S
C413 C132 0.862 . S
C427 C20 0.638 . S
C437 C42 0.590 . S
C451 C43 0.527 . S
C461 C65 0.415 . S
C475 C66 0.703 . S
C485 C88 0.724 . S
C499 C89 0.497 . S
C509 C111 0.395 . S
C523 C112 0.675 . S
C533 C134 0.659 1_655 S
C547 C135 0.591 . S
C557 C19 0.628 . S
