# Generated by pormake.
# Topology qtz-x, (6)-cn, num edge types: 1
# Building blocks:
#     Node 0, Type 0, BuildingBlock: KUMBUR_clean_sbu_1, # of connection points: 6
#     Node 1, Type 0, BuildingBlock: KUMBUR_clean_sbu_1, # of connection points: 6
#     Node 2, Type 0, BuildingBlock: KUMBUR_clean_sbu_1, # of connection points: 6
#     Edge 3, Type (0, 0), BuildingBlock: FUNLAD_clean_linker_1, # of connection points: 2
#     Edge 4, Type (0, 0), BuildingBlock: FUNLAD_clean_linker_1, # of connection points: 2
#     Edge 5, Type (0, 0), BuildingBlock: FUNLAD_clean_linker_1, # of connection points: 2
#     Edge 6, Type (0, 0), BuildingBlock: FUNLAD_clean_linker_1, # of connection points: 2
#     Edge 7, Type (0, 0), BuildingBlock: FUNLAD_clean_linker_1, # of connection points: 2
#     Edge 8, Type (0, 0), BuildingBlock: FUNLAD_clean_linker_1, # of connection points: 2
#     Edge 9, Type (0, 0), BuildingBlock: FUNLAD_clean_linker_1, # of connection points: 2
#     Edge 10, Type (0, 0), BuildingBlock: FUNLAD_clean_linker_1, # of connection points: 2
#     Edge 11, Type (0, 0), BuildingBlock: FUNLAD_clean_linker_1, # of connection points: 2
# Relax obj value: 0.201
# Max RMSD: 0.278
# Mean RMSD: 0.278
data_MOF--net-qtz-x--node1-KUMBUR_clean_sbu_1--edge1-FUNLAD_clean_linker_1
_symmetry_space_group_name_H-M    P1
_symmetry_Int_Tables_number       1
_symmetry_cell_setting            triclinic
loop_
_symmetry_equiv_pos_as_xyz
'x, y, z'
_cell_length_a     15.583748
_cell_length_b     15.570228
_cell_length_c     53.553561
_cell_angle_alpha  89.805964
_cell_angle_beta   90.281643
_cell_angle_gamma 120.1127
loop_
_atom_site_label
_atom_site_type_symbol
_atom_site_fract_x
_atom_site_fract_y
_atom_site_fract_z
_atom_type_partial_charge
Tb0 Tb 0.90045 0.3863 0.15556 0.0
C1 C 0.33084 0.52993 0.1713 0.0
N2 N 0.25462 0.46854 0.18652 0.0
C3 C 0.3114 0.3509 0.18597 0.0
C4 C 0.39664 0.50127 0.16161 0.0
C5 C 0.25042 0.38447 0.19574 0.0
C6 C 0.38273 0.40809 0.16819 0.0
C7 C 0.42641 0.69191 0.15176 0.0
C8 C 0.34559 0.62389 0.16629 0.0
C9 C 0.49078 0.66279 0.14156 0.0
C10 C 0.47547 0.56742 0.14631 0.0
Tb11 Tb 0.15061 0.52672 0.19747 0.0
N12 N 0.27886 0.64771 0.17539 0.0
C13 C 0.43992 0.78703 0.148 0.0
C14 C 0.29389 0.74154 0.17282 0.0
C15 C 0.37413 0.81233 0.15887 0.0
H16 H 0.2011 0.34317 0.21082 0.0
H17 H 0.38511 0.88625 0.15648 0.0
H18 H 0.84216 0.56013 0.14353 0.0
H19 H 0.68137 0.01711 0.19492 0.0
H20 H 0.24356 0.7614 0.18134 0.0
H21 H 0.50152 0.8418 0.13705 0.0
H22 H 0.82131 0.1492 0.17197 0.0
H23 H 0.30442 0.28177 0.19246 0.0
H24 H 0.553 0.71367 0.13013 0.0
H25 H 0.52647 0.54644 0.13858 0.0
H26 H 0.71754 0.60223 0.15765 0.0
H27 H 0.42968 0.38179 0.1606 0.0
H28 H 0.54819 0.04429 0.21083 0.0
N29 N 0.78151 0.4259 0.16442 0.0
C30 C 0.70261 0.35769 0.17772 0.0
C31 C 0.71299 0.5336 0.16365 0.0
C32 C 0.62704 0.37635 0.18529 0.0
C33 C 0.78488 0.51055 0.15614 0.0
C34 C 0.63487 0.46715 0.17876 0.0
N35 N 0.77397 0.25509 0.17637 0.0
C36 C 0.767 0.16473 0.17968 0.0
C37 C 0.61583 0.19474 0.19675 0.0
C38 C 0.69845 0.26914 0.18379 0.0
C39 C 0.61085 0.10377 0.20116 0.0
C40 C 0.68616 0.08836 0.19231 0.0
H41 H 0.58029 0.48597 0.18489 0.0
H42 H 0.4874 0.31671 0.20496 0.0
H43 H 0.47641 0.15671 0.21454 0.0
O44 O 0.80916 0.27331 0.13066 0.0
O45 O 0.89603 0.44124 0.1929 0.0
O46 O 0.01068 0.42065 0.21502 0.0
O47 O 0.88519 0.42704 0.11897 0.0
O48 O 0.97298 0.29906 0.16415 0.0
O49 O 0.06416 0.36235 0.20089 0.0
O50 O 0.16193 0.61435 0.2289 0.0
O51 O 0.15337 0.5494 0.15687 0.0
O52 O 0.03768 0.39683 0.14262 0.0
O53 O 0.26716 0.56721 0.22299 0.0
O54 O 0.07381 0.61159 0.18996 0.0
O55 O 0.9905 0.54929 0.15209 0.0
C56 C 0.92996 0.427 0.21399 0.0
C57 C 0.74667 0.3112 0.09488 0.0
C58 C 0.67255 0.23985 0.05462 0.0
C59 C 0.59714 0.2626 0.05936 0.0
C60 C 0.67254 0.33487 0.09935 0.0
C61 C 0.5976 0.30996 0.0816 0.0
C62 C 0.74555 0.26289 0.07283 0.0
C63 C 0.01915 0.29105 0.18402 0.0
C64 C 0.82756 0.33494 0.11236 0.0
C65 C 0.54626 0.30382 0.19894 0.0
C66 C 0.54021 0.21284 0.20446 0.0
C67 C 0.12131 0.4799 0.13982 0.0
C68 C 0.23254 0.58146 0.26454 0.0
C69 C 0.29735 0.61809 0.30728 0.0
C70 C 0.24134 0.51656 0.31293 0.0
C71 C 0.17772 0.4803 0.27072 0.0
C72 C 0.29182 0.65094 0.28302 0.0
C73 C 0.18092 0.44842 0.29487 0.0
C74 C 0.02791 0.61821 0.16971 0.0
C75 C 0.23779 0.61162 0.23819 0.0
H76 H 0.53832 0.24523 0.04606 0.0
H77 H 0.67252 0.37208 0.11637 0.0
H78 H 0.54019 0.32826 0.08496 0.0
H79 H 0.80447 0.24642 0.06946 0.0
H80 H 0.24531 0.48977 0.33136 0.0
H81 H 0.13465 0.42554 0.25661 0.0
H82 H 0.33735 0.72876 0.2782 0.0
H83 H 0.13871 0.37018 0.29942 0.0
Tb84 Tb 0.77174 0.24165 0.48509 0.0
C85 C 0.44555 0.79507 0.50143 0.0
N86 N 0.4537 0.87271 0.51475 0.0
C87 C 0.27819 0.80742 0.5113 0.0
C88 C 0.35321 0.72113 0.49202 0.0
C89 C 0.37129 0.87797 0.52048 0.0
C90 C 0.26931 0.72937 0.49668 0.0
C91 C 0.52541 0.71019 0.48388 0.0
C92 C 0.53085 0.79107 0.49702 0.0
C93 C 0.43369 0.63632 0.47428 0.0
C94 C 0.34784 0.64207 0.47824 0.0
Tb95 Tb 0.60996 0.9902 0.52679 0.0
N96 N 0.61855 0.86532 0.50617 0.0
C97 C 0.61179 0.70478 0.48131 0.0
C98 C 0.70087 0.85556 0.50545 0.0
C99 C 0.69944 0.77681 0.49258 0.0
H100 H 0.37714 0.93485 0.53278 0.0
H101 H 0.76551 0.77059 0.49182 0.0
H102 H 1.00491 0.29528 0.48359 0.0
H103 H 0.61163 0.46574 0.5138 0.0
H104 H 0.76687 0.90504 0.51559 0.0
H105 H 0.61077 0.64351 0.47151 0.0
H106 H 0.61357 0.32902 0.49214 0.0
H107 H 0.21336 0.81291 0.51568 0.0
H108 H 0.42821 0.57395 0.464 0.0
H109 H 0.27759 0.58458 0.47078 0.0
H110 H 0.16464 0.41609 0.50285 0.0
H111 H 0.19727 0.67524 0.48938 0.0
H112 H 0.76275 0.59409 0.5351 0.0
N113 N 0.92519 0.35832 0.4992 0.0
C114 C 0.93116 0.43737 0.51141 0.0
C115 C 0.09928 0.42237 0.50571 0.0
C116 C 0.02146 0.51119 0.52184 0.0
C117 C 0.00835 0.3523 0.49533 0.0
C118 C 0.10546 0.50123 0.51946 0.0
N119 N 0.75945 0.36784 0.50405 0.0
C120 C 0.67769 0.37867 0.50289 0.0
C121 C 0.84928 0.52532 0.52559 0.0
C122 C 0.84553 0.44255 0.51383 0.0
C123 C 0.76301 0.53165 0.5263 0.0
C124 C 0.67737 0.45888 0.5145 0.0
H125 H 0.17581 0.55515 0.52764 0.0
H126 H 0.09346 0.64957 0.54241 0.0
H127 H 0.94331 0.6636 0.54505 0.0
O128 O 0.72408 0.29112 0.45403 0.0
O129 O 0.80426 0.24746 0.52517 0.0
O130 O 0.65215 0.13682 0.54117 0.0
O131 O 0.87312 0.31248 0.45563 0.0
O132 O 0.60877 0.1762 0.48639 0.0
O133 O 0.54668 0.08923 0.52381 0.0
O134 O 0.66082 0.93878 0.55792 0.0
O135 O 0.57284 0.98565 0.487 0.0
O136 O 0.72292 0.09401 0.46954 0.0
O137 O 0.51591 0.92596 0.55704 0.0
O138 O 0.77314 0.0588 0.52555 0.0
O139 O 0.83166 0.14036 0.48745 0.0
C140 C 0.74298 0.20962 0.544 0.0
C141 C 0.83229 0.37685 0.41865 0.0
C142 C 0.77847 0.43084 0.3818 0.0
C143 C 0.87684 0.4806 0.37313 0.0
C144 C 0.92943 0.42456 0.4093 0.0
C145 C 0.95138 0.47624 0.3867 0.0
C146 C 0.75734 0.3803 0.40477 0.0
C147 C 0.53983 0.13642 0.50387 0.0
C148 C 0.80985 0.32688 0.4432 0.0
C149 C 0.02485 0.59212 0.53423 0.0
C150 C 0.93928 0.59991 0.53579 0.0
C151 C 0.63024 0.02318 0.46746 0.0
C152 C 0.54851 0.8592 0.5943 0.0
C153 C 0.57697 0.78872 0.63253 0.0
C154 C 0.47942 0.75835 0.63987 0.0
C155 C 0.45277 0.83058 0.60302 0.0
C156 C 0.61133 0.83792 0.60924 0.0
C157 C 0.41867 0.78028 0.62548 0.0
C158 C 0.84042 0.09601 0.50765 0.0
C159 C 0.577 0.90843 0.5694 0.0
H160 H 0.89724 0.52477 0.35628 0.0
H161 H 0.9888 0.42358 0.41967 0.0
H162 H 0.02684 0.51438 0.37985 0.0
H163 H 0.68205 0.34353 0.41183 0.0
H164 H 0.44866 0.71486 0.65659 0.0
H165 H 0.40259 0.84541 0.59225 0.0
H166 H 0.68532 0.8592 0.60291 0.0
H167 H 0.34396 0.75675 0.63159 0.0
Tb168 Tb 0.72635 0.3917 0.81988 0.0
C169 C 0.58928 0.69581 0.83608 0.0
N170 N 0.65879 0.69129 0.85052 0.0
C171 C 0.76742 0.86657 0.84624 0.0
C172 C 0.60707 0.78649 0.82575 0.0
C173 C 0.7454 0.77527 0.85649 0.0
C174 C 0.69852 0.87202 0.83051 0.0
C175 C 0.42877 0.60957 0.81568 0.0
C176 C 0.50293 0.60761 0.8304 0.0
C177 C 0.44488 0.70031 0.80581 0.0
C178 C 0.53425 0.78835 0.81061 0.0
Tb179 Tb 0.62265 0.53705 0.86293 0.0
N180 N 0.49239 0.52029 0.83913 0.0
C181 C 0.34037 0.52043 0.8115 0.0
C182 C 0.40377 0.43435 0.83638 0.0
C183 C 0.3273 0.43281 0.82222 0.0
H184 H 0.79678 0.77166 0.86944 0.0
H185 H 0.25759 0.3642 0.81992 0.0
H186 H 0.53533 0.16216 0.81329 0.0
H187 H 0.10615 0.52031 0.84693 0.0
H188 H 0.38917 0.3673 0.84575 0.0
H189 H 0.2809 0.51885 0.80058 0.0
H190 H 0.96984 0.5312 0.82641 0.0
H191 H 0.83743 0.93252 0.85048 0.0
H192 H 0.38893 0.70309 0.79431 0.0
H193 H 0.54621 0.85749 0.80259 0.0
H194 H 0.48674 0.99495 0.82926 0.0
H195 H 0.71648 0.94262 0.82225 0.0
H196 H 0.07274 0.36167 0.8662 0.0
N197 N 0.67876 0.23066 0.82984 0.0
C198 C 0.74763 0.21588 0.84163 0.0
C199 C 0.56018 0.05673 0.8331 0.0
C200 C 0.72431 0.12162 0.85066 0.0
C201 C 0.58743 0.15185 0.82438 0.0
C202 C 0.62814 0.04203 0.84685 0.0
N203 N 0.8593 0.38623 0.83643 0.0
C204 C 0.95375 0.46455 0.83604 0.0
C205 C 0.91682 0.28489 0.85628 0.0
C206 C 0.84167 0.29647 0.84481 0.0
C207 C 0.01258 0.36734 0.85767 0.0
C208 C 0.03152 0.45718 0.84702 0.0
H209 H 0.6062 0.96874 0.85399 0.0
H210 H 0.78039 0.03911 0.8709 0.0
H211 H 0.95012 0.18132 0.87503 0.0
O212 O 0.82362 0.44829 0.78906 0.0
O213 O 0.71197 0.36071 0.86031 0.0
O214 O 0.72779 0.50102 0.87996 0.0
O215 O 0.69171 0.30467 0.78764 0.0
O216 O 0.82887 0.55512 0.8258 0.0
O217 O 0.78538 0.60394 0.86294 0.0
O218 O 0.51956 0.47904 0.89285 0.0
O219 O 0.66742 0.5847 0.82426 0.0
O220 O 0.62763 0.44013 0.80489 0.0
O221 O 0.62802 0.63311 0.89095 0.0
O222 O 0.53807 0.37345 0.86259 0.0
O223 O 0.56554 0.33313 0.82329 0.0
C224 C 0.72594 0.41577 0.88023 0.0
C225 C 0.82467 0.32699 0.76249 0.0
C226 C 0.90973 0.32306 0.72481 0.0
C227 C 0.91452 0.24177 0.73451 0.0
C228 C 0.8286 0.24451 0.77177 0.0
C229 C 0.8733 0.20221 0.75777 0.0
C230 C 0.86485 0.36573 0.73891 0.0
C231 C 0.8472 0.61988 0.84417 0.0
C232 C 0.77138 0.36809 0.77594 0.0
C233 C 0.79745 0.11033 0.86324 0.0
C234 C 0.89389 0.19153 0.86578 0.0
C235 C 0.65285 0.53353 0.80387 0.0
C236 C 0.56922 0.56999 0.93127 0.0
C237 C 0.49807 0.55413 0.97306 0.0
C238 C 0.59521 0.60825 0.98279 0.0
C239 C 0.66479 0.62071 0.94175 0.0
C240 C 0.48599 0.53612 0.94707 0.0
C241 C 0.67737 0.64013 0.96728 0.0
C242 C 0.51718 0.30851 0.84461 0.0
C243 C 0.55599 0.56474 0.90382 0.0
H244 H 0.94704 0.20669 0.72369 0.0
H245 H 0.79569 0.21171 0.78956 0.0
H246 H 0.87475 0.13769 0.76481 0.0
H247 H 0.85963 0.4277 0.73135 0.0
H248 H 0.60882 0.62912 1.00226 0.0
H249 H 0.73 0.64872 0.93007 0.0
H250 H 0.41203 0.49832 0.93904 0.0
H251 H 0.7514 0.68236 0.97504 0.0
H252 H 0.9915 0.71603 0.14757 0.0
C253 C 0.02086 0.70907 0.16544 0.0
H254 H 0.07039 0.77287 0.201 0.0
H255 H 0.11378 0.1583 0.13476 0.0
H256 H 0.22448 0.1358 0.10756 0.0
H257 H 0.25137 0.99375 0.11319 0.0
H258 H 0.16679 0.8727 0.14583 0.0
C259 C 0.04536 0.78087 0.18263 0.0
C260 C 0.02855 0.86702 0.17837 0.0
C261 C 0.08171 0.9397 0.15973 0.0
C262 C 0.06787 0.02327 0.15682 0.0
C263 C 0.12095 0.09347 0.13781 0.0
C264 C 0.18524 0.08176 0.1221 0.0
C265 C 0.20023 1.00169 0.12525 0.0
C266 C 0.15029 0.93204 0.14397 0.0
H267 H 0.05114 0.18735 0.2052 0.0
C268 C 0.02129 0.19716 0.18774 0.0
H269 H 0.9653 0.13677 0.15214 0.0
H270 H 0.90554 0.73689 0.2137 0.0
H271 H 0.78567 0.75365 0.23879 0.0
H272 H 0.76431 0.8994 0.23422 0.0
H273 H 0.86151 0.02882 0.20428 0.0
C274 C 0.99176 0.12613 0.17004 0.0
C275 C 1.0033 0.03638 0.17298 0.0
C276 C 0.94729 0.96188 0.19093 0.0
C277 C 0.95987 0.87747 0.1936 0.0
C278 C 0.90046 0.80318 0.21116 0.0
C279 C 0.83099 0.81159 0.22562 0.0
C280 C 0.81888 0.89365 0.22303 0.0
C281 C 0.87582 0.96789 0.20588 0.0
H282 H 0.44987 0.18791 0.48381 0.0
C283 C 0.45074 0.14692 0.50018 0.0
H284 H 0.37326 0.06992 0.53217 0.0
H285 H 0.06264 0.21048 0.5406 0.0
H286 H 0.13804 0.24401 0.58144 0.0
H287 H 0.27976 0.21965 0.59018 0.0
H288 H 0.3476 0.16374 0.55799 0.0
C289 C 0.37032 0.10519 0.51506 0.0
C290 C 0.27806 0.11084 0.50994 0.0
C291 C 0.23766 0.14254 0.5292 0.0
C292 C 0.15217 0.15161 0.52455 0.0
C293 C 0.12057 0.19275 0.54355 0.0
C294 C 0.16496 0.21488 0.56704 0.0
C295 C 0.24493 0.20156 0.57193 0.0
C296 C 0.28253 0.16815 0.5532 0.0
H297 H 0.93243 0.04775 0.52798 0.0
C298 C 0.93015 0.08666 0.51133 0.0
H299 H 1.00414 0.1595 0.47863 0.0
H300 H 0.31977 0.02605 0.4701 0.0
H301 H 0.24507 0.99353 0.42922 0.0
H302 H 0.10299 0.01735 0.42051 0.0
H303 H 0.03393 0.07121 0.45276 0.0
C304 C 0.00924 0.12681 0.496 0.0
C305 C 0.10268 0.12318 0.50099 0.0
C306 C 0.14355 0.09223 0.48167 0.0
C307 C 0.22916 0.08336 0.48632 0.0
C308 C 0.26151 0.04333 0.46722 0.0
C309 C 0.2176 0.02189 0.44367 0.0
C310 C 0.13744 0.03488 0.4388 0.0
C311 C 0.09912 0.06719 0.45761 0.0
H312 H 0.92593 0.78251 0.84904 0.0
C313 C 0.93613 0.7219 0.8431 0.0
H314 H 0.04416 0.6873 0.8314 0.0
H315 H 0.37318 0.10229 0.79197 0.0
H316 H 0.33431 0.99782 0.7556 0.0
H317 H 0.19381 0.82593 0.75581 0.0
H318 H 0.09196 0.75719 0.79253 0.0
C319 C 0.02927 0.7447 0.83718 0.0
C320 C 0.11535 0.8501 0.83747 0.0
C321 C 0.1732 0.8907 0.8156 0.0
C322 C 0.253 0.99116 0.81525 0.0
C323 C 0.31055 0.02772 0.79326 0.0
C324 C 0.28931 0.96833 0.77219 0.0
C325 C 0.21036 0.87155 0.77233 0.0
C326 C 0.1526 0.83292 0.79365 0.0
H327 H 0.44325 0.16427 0.86443 0.0
C328 C 0.43541 0.205 0.84893 0.0
H329 H 0.34712 0.20364 0.81914 0.0
H330 H 0.03889 0.79132 0.88447 0.0
H331 H 0.07562 0.89606 0.92081 0.0
H332 H 0.19921 0.07466 0.91881 0.0
H333 H 0.28835 0.1491 0.88057 0.0
C334 C 0.35323 0.16127 0.83453 0.0
C335 C 0.27457 0.05303 0.83655 0.0
C336 C 0.21812 0.01184 0.85869 0.0
C337 C 0.14128 0.90973 0.85938 0.0
C338 C 0.09283 0.86923 0.88235 0.0
C339 C 0.11409 0.92836 0.90349 0.0
C340 C 0.18404 0.02881 0.90239 0.0
C341 C 0.23543 0.07047 0.88031 0.0
H342 H 0.34109 0.51171 0.98077 0.0
C343 C 0.40951 0.52357 0.98938 0.0
H344 H 0.4778 0.52036 0.02342 0.0
H345 H 0.22227 0.64856 0.08824 0.0
H346 H 0.34941 0.81329 0.07567 0.0
H347 H 0.46976 0.83635 0.04286 0.0
H348 H 0.4623 0.69434 0.02215 0.0
C349 C 0.41206 0.51297 0.01438 0.0
C350 C 0.33039 0.49893 0.03141 0.0
C351 C 0.337 0.58228 0.04383 0.0
C352 C 0.27031 0.56884 0.06356 0.0
C353 C 0.27483 0.65398 0.07434 0.0
C354 C 0.34663 0.7492 0.06702 0.0
C355 C 0.41422 0.76217 0.04851 0.0
C356 C 0.40942 0.68001 0.03687 0.0
H357 H 0.26027 0.54678 0.11822 0.0
C358 C 0.18076 0.49669 0.11702 0.0
H359 H 0.05954 0.40694 0.09367 0.0
H360 H 0.28808 0.3253 0.00894 0.0
H361 H 0.1588 0.15958 0.02082 0.0
H362 H 0.04888 0.13461 0.05645 0.0
H363 H 0.06647 0.27428 0.08027 0.0
C364 C 0.1394 0.45565 0.09485 0.0
C365 C 0.20035 0.47153 0.07184 0.0
C366 C 0.18927 0.38833 0.05819 0.0
C367 C 0.25384 0.40233 0.03784 0.0
C368 C 0.2415 0.31834 0.02463 0.0
C369 C 0.16763 0.223 0.03123 0.0
C370 C 0.10562 0.20897 0.05127 0.0
C371 C 0.11635 0.29018 0.06475 0.0
H372 H 0.6366 0.42929 0.37989 0.0
C373 C 0.69599 0.43358 0.36841 0.0
H374 H 0.61889 0.43706 0.33693 0.0
H375 H 0.95306 0.60892 0.25668 0.0
H376 H 0.93029 0.74968 0.26369 0.0
H377 H 0.82336 0.74787 0.29772 0.0
H378 H 0.74212 0.60674 0.32567 0.0
C379 C 0.68359 0.43433 0.34348 0.0
C380 C 0.75204 0.43602 0.32382 0.0
C381 C 0.79696 0.51817 0.30725 0.0
C382 C 0.85571 0.51795 0.28705 0.0
C383 C 0.90389 0.60315 0.2716 0.0
C384 C 0.89205 0.68491 0.27552 0.0
C385 C 0.83236 0.68408 0.29478 0.0
C386 C 0.78569 0.60223 0.31061 0.0
H387 H 0.81215 0.43109 0.23555 0.0
C388 C 0.87954 0.42689 0.2372 0.0
H389 H 0.98216 0.42107 0.2619 0.0
H390 H 0.67362 0.26371 0.35122 0.0
H391 H 0.71226 0.13292 0.34702 0.0
H392 H 0.82393 0.13808 0.31361 0.0
H393 H 0.8943 0.27366 0.28386 0.0
C394 C 0.91646 0.42739 0.25996 0.0
C395 C 0.86733 0.43442 0.28303 0.0
C396 C 0.82918 0.35595 0.30066 0.0
C397 C 0.76878 0.35509 0.32064 0.0
C398 C 0.72466 0.27151 0.33664 0.0
C399 C 0.74538 0.19486 0.33421 0.0
C400 C 0.80769 0.19767 0.31538 0.0
C401 C 0.84795 0.27624 0.29847 0.0
H402 H 0.65242 0.65162 0.78155 0.0
C403 C 0.65215 0.58179 0.78016 0.0
H404 H 0.6573 0.4791 0.75532 0.0
H405 H 0.48727 0.74808 0.69649 0.0
H406 H 0.34457 0.6612 0.72301 0.0
H407 H 0.33551 0.5401 0.75416 0.0
H408 H 0.47132 0.50809 0.75933 0.0
C409 C 0.65222 0.54582 0.75735 0.0
C410 C 0.64837 0.59963 0.73448 0.0
C411 C 0.56565 0.61256 0.7304 0.0
C412 C 0.56813 0.67712 0.71116 0.0
C413 C 0.48774 0.69525 0.70941 0.0
C414 C 0.40532 0.64663 0.72486 0.0
C415 C 0.40048 0.57901 0.74249 0.0
C416 C 0.47945 0.562 0.74536 0.0
H417 H 0.64895 0.70173 0.64302 0.0
C418 C 0.63621 0.76076 0.6492 0.0
H419 H 0.63352 0.84572 0.67904 0.0
H420 H 0.81737 0.5882 0.73654 0.0
H421 H 0.96087 0.67379 0.70958 0.0
H422 H 0.9639 0.78251 0.67559 0.0
H423 H 0.82197 0.80391 0.6677 0.0
C424 C 0.64771 0.7868 0.67361 0.0
C425 C 0.64953 0.72189 0.69427 0.0
C426 C 0.73125 0.70654 0.69795 0.0
C427 C 0.73055 0.6454 0.71805 0.0
C428 C 0.81432 0.63405 0.72172 0.0
C429 C 0.89719 0.68287 0.70642 0.0
C430 C 0.89874 0.74394 0.68723 0.0
C431 C 0.81666 0.75519 0.6828 0.0
H432 H 0.72791 0.41833 0.92086 0.0
C433 C 0.73735 0.38124 0.9048 0.0
H434 H 0.76334 0.26753 0.89276 0.0
H435 H 0.81239 0.38323 0.01608 0.0
H436 H 0.95302 0.54104 1.00429 0.0
H437 H 0.00839 0.57588 0.96045 0.0
H438 H 0.92142 0.45177 0.92809 0.0
C439 C 0.75582 0.30669 0.90844 0.0
C440 C 0.75479 0.27137 0.93431 0.0
C441 C 0.81096 0.34089 0.95315 0.0
C442 C 0.78086 0.31942 0.9784 0.0
C443 C 0.83273 0.39397 0.99661 0.0
C444 C 0.91389 0.48533 0.99009 0.0
C445 C 0.94501 0.50498 0.96542 0.0
C446 C 0.89441 0.43374 0.94707 0.0
H447 H 0.74512 0.18557 0.02872 0.0
C448 C 0.68612 0.20343 0.03014 0.0
H449 H 0.59098 0.23589 0.00891 0.0
H450 H 0.65453 0.11127 0.90331 0.0
H451 H 0.52953 0.94466 0.91564 0.0
H452 H 0.48123 0.90465 0.95988 0.0
H453 H 0.55756 0.03231 0.99204 0.0
C454 C 0.64749 0.21485 0.00884 0.0
C455 C 0.69778 0.22611 0.98466 0.0
C456 C 0.65439 0.15049 0.96642 0.0
C457 C 0.68307 0.17321 0.94103 0.0
C458 C 0.63577 0.09782 0.92287 0.0
C459 C 0.56406 1.00186 0.92974 0.0
C460 C 0.53682 0.97939 0.95465 0.0
C461 C 0.5807 0.05293 0.97287 0.0
H462 H 0.41206 0.6588 0.33624 0.0
C463 C 0.36771 0.68471 0.32657 0.0
H464 H 0.31748 0.78771 0.32759 0.0
H465 H 0.40859 0.83614 0.44499 0.0
H466 H 0.22922 0.74427 0.44444 0.0
H467 H 0.13697 0.68405 0.40492 0.0
H468 H 0.22373 0.71548 0.36551 0.0
C469 C 0.36804 0.76559 0.33537 0.0
C470 C 0.42467 0.81466 0.35874 0.0
C471 C 0.37311 0.79968 0.38157 0.0
C472 C 0.42665 0.83646 0.40441 0.0
C473 C 0.37252 0.81398 0.42701 0.0
C474 C 0.26925 0.76013 0.42702 0.0
C475 C 0.21724 0.7261 0.40475 0.0
C476 C 0.26807 0.74496 0.38225 0.0
H477 H 0.53454 0.02353 0.43716 0.0
C478 C 0.58355 0.99585 0.44259 0.0
H479 H 0.63787 0.90017 0.43393 0.0
H480 H 0.54635 0.86179 0.31831 0.0
H481 H 0.72618 0.94866 0.31877 0.0
H482 H 0.81932 0.01242 0.35819 0.0
H483 H 0.73317 0.98966 0.39741 0.0
C484 C 0.58953 0.92842 0.42827 0.0
C485 C 0.53219 0.8911 0.40436 0.0
C486 C 0.58356 0.90626 0.38149 0.0
C487 C 0.52988 0.86871 0.3587 0.0
C488 C 0.58336 0.88633 0.33618 0.0
C489 C 0.68661 0.93659 0.33617 0.0
C490 C 0.73902 0.97238 0.35837 0.0
C491 C 0.68857 0.95865 0.38077 0.0
H492 H 0.01487 0.3636 0.69342 0.0
C493 C 0.94451 0.35611 0.69906 0.0
H494 H 0.81011 0.34416 0.68712 0.0
H495 H 0.87424 0.4868 0.57844 0.0
H496 H 0.86722 0.62307 0.59848 0.0
H497 H 0.87863 0.64074 0.6442 0.0
H498 H 0.89654 0.52224 0.6704 0.0
C499 C 0.88159 0.35416 0.68156 0.0
C500 C 0.90135 0.35792 0.65424 0.0
C501 C 0.89557 0.43059 0.63939 0.0
C502 C 0.89133 0.42215 0.61295 0.0
C503 C 0.8797 0.49181 0.59853 0.0
C504 C 0.87545 0.56992 0.60982 0.0
C505 C 0.88188 0.5798 0.63564 0.0
C506 C 0.8916 0.5111 0.65039 0.0
H507 H 0.72157 0.21382 0.58426 0.0
C508 C 0.77522 0.24853 0.56929 0.0
H509 H 0.92419 0.35528 0.56055 0.0
H510 H 0.91072 0.20083 0.67622 0.0
H511 H 0.93538 0.07851 0.65525 0.0
H512 H 0.94592 0.07718 0.60932 0.0
H513 H 0.9302 0.19871 0.58424 0.0
C514 C 0.868 0.31965 0.57484 0.0
C515 C 0.89622 0.34336 0.60144 0.0
C516 C 0.91308 0.27732 0.61594 0.0
C517 C 0.91218 0.28188 0.64244 0.0
C518 C 0.91744 0.20666 0.65622 0.0
C519 C 0.93024 0.13439 0.64432 0.0
C520 C 0.93579 0.13332 0.61848 0.0
C521 C 0.92648 0.20327 0.60434 0.0
loop_
_geom_bond_atom_site_label_1
_geom_bond_atom_site_label_2
_geom_bond_distance
_geom_bond_site_symmetry_2
_ccdc_geom_bond_type
Tb0 N29 2.617 . S
Tb0 N35 2.572 . S
Tb0 O44 2.465 . S
Tb0 O45 2.387 . S
Tb0 O47 2.428 . S
Tb0 O48 2.308 . S
Tb0 O52 2.349 1_655 S
Tb0 O55 2.393 . S
Tb0 C64 2.802 . S
C1 N2 1.379 . S
C1 C4 1.416 . S
C1 C8 1.424 . S
N2 C1 1.379 . S
N2 C5 1.334 . S
N2 Tb11 2.617 . S
C3 C5 1.390 . S
C3 C6 1.339 . S
C3 H23 0.930 . S
C4 C1 1.416 . S
C4 C6 1.416 . S
C4 C10 1.448 . S
C5 N2 1.334 . S
C5 C3 1.390 . S
C5 H16 0.930 . S
C6 C3 1.339 . S
C6 C4 1.416 . S
C6 H27 0.930 . S
C7 C8 1.413 . S
C7 C9 1.427 . S
C7 C13 1.416 . S
C8 C1 1.424 . S
C8 C7 1.413 . S
C8 N12 1.361 . S
C9 C7 1.427 . S
C9 C10 1.328 . S
C9 H24 0.929 . S
C10 C4 1.448 . S
C10 C9 1.328 . S
C10 H25 0.930 . S
Tb11 N2 2.617 . S
Tb11 N12 2.572 . S
Tb11 O46 2.349 1_455 S
Tb11 O49 2.393 . S
Tb11 O50 2.465 . S
Tb11 O51 2.387 . S
Tb11 O53 2.428 . S
Tb11 O54 2.308 . S
Tb11 C75 2.802 . S
N12 C8 1.361 . S
N12 Tb11 2.572 . S
N12 C14 1.340 . S
C13 C7 1.416 . S
C13 C15 1.332 . S
C13 H21 0.931 . S
C14 N12 1.340 . S
C14 C15 1.407 . S
C14 H20 0.930 . S
C15 C13 1.332 . S
C15 C14 1.407 . S
C15 H17 0.929 . S
H16 C5 0.930 . S
H17 C15 0.929 . S
H18 C33 0.930 . S
H19 C40 0.929 . S
H20 C14 0.930 . S
H21 C13 0.931 . S
H22 C36 0.930 . S
H23 C3 0.930 . S
H24 C9 0.929 . S
H25 C10 0.930 . S
H26 C31 0.930 . S
H27 C6 0.930 . S
H28 C39 0.931 . S
N29 Tb0 2.617 . S
N29 C30 1.379 . S
N29 C33 1.334 . S
C30 N29 1.379 . S
C30 C32 1.416 . S
C30 C38 1.424 . S
C31 H26 0.930 . S
C31 C33 1.390 . S
C31 C34 1.339 . S
C32 C30 1.416 . S
C32 C34 1.416 . S
C32 C65 1.448 . S
C33 H18 0.930 . S
C33 N29 1.334 . S
C33 C31 1.390 . S
C34 C31 1.339 . S
C34 C32 1.416 . S
C34 H41 0.930 . S
N35 Tb0 2.572 . S
N35 C36 1.340 . S
N35 C38 1.361 . S
C36 H22 0.930 . S
C36 N35 1.340 . S
C36 C40 1.407 . S
C37 C38 1.413 . S
C37 C39 1.416 . S
C37 C66 1.427 . S
C38 C30 1.424 . S
C38 N35 1.361 . S
C38 C37 1.413 . S
C39 H28 0.931 . S
C39 C37 1.416 . S
C39 C40 1.332 . S
C40 H19 0.929 . S
C40 C36 1.407 . S
C40 C39 1.332 . S
H41 C34 0.930 . S
H42 C65 0.930 . S
H43 C66 0.929 . S
O44 Tb0 2.465 . S
O44 C64 1.264 . S
O45 Tb0 2.387 . S
O45 C56 1.264 . S
O46 Tb11 2.349 1_655 S
O46 C56 1.243 . S
O47 Tb0 2.428 . S
O47 C64 1.256 . S
O48 Tb0 2.308 . S
O48 C63 1.266 . S
O49 Tb11 2.393 . S
O49 C63 1.248 1_455 S
O50 Tb11 2.465 . S
O50 C75 1.264 . S
O51 Tb11 2.387 . S
O51 C67 1.264 . S
O52 Tb0 2.349 1_455 S
O52 C67 1.243 . S
O53 Tb11 2.428 . S
O53 C75 1.256 . S
O54 Tb11 2.308 . S
O54 C74 1.266 . S
O55 Tb0 2.393 . S
O55 C74 1.248 1_655 S
C56 O45 1.264 . S
C56 O46 1.243 . S
C57 C60 1.399 . S
C57 C62 1.383 . S
C57 C64 1.496 . S
C58 C59 1.399 . S
C58 C62 1.389 . S
C59 C58 1.399 . S
C59 C61 1.380 . S
C59 H76 0.929 . S
C60 C57 1.399 . S
C60 C61 1.392 . S
C60 H77 0.929 . S
C61 C59 1.380 . S
C61 C60 1.392 . S
C61 H78 0.929 . S
C62 C57 1.383 . S
C62 C58 1.389 . S
C62 H79 0.931 . S
C63 O48 1.266 . S
C63 O49 1.248 1_655 S
C64 Tb0 2.802 . S
C64 O44 1.264 . S
C64 O47 1.256 . S
C64 C57 1.496 . S
C65 C32 1.448 . S
C65 H42 0.930 . S
C65 C66 1.328 . S
C66 C37 1.427 . S
C66 H43 0.929 . S
C66 C65 1.328 . S
C67 O51 1.264 . S
C67 O52 1.243 . S
C68 C71 1.399 . S
C68 C72 1.383 . S
C68 C75 1.496 . S
C69 C70 1.399 . S
C69 C72 1.389 . S
C70 C69 1.399 . S
C70 C73 1.380 . S
C70 H80 0.929 . S
C71 C68 1.399 . S
C71 C73 1.392 . S
C71 H81 0.929 . S
C72 C68 1.383 . S
C72 C69 1.389 . S
C72 H82 0.931 . S
C73 C70 1.380 . S
C73 C71 1.392 . S
C73 H83 0.929 . S
C74 O54 1.266 . S
C74 O55 1.248 1_455 S
C75 Tb11 2.802 . S
C75 O50 1.264 . S
C75 O53 1.256 . S
C75 C68 1.496 . S
H76 C59 0.929 . S
H77 C60 0.929 . S
H78 C61 0.929 . S
H79 C62 0.931 . S
H80 C70 0.929 . S
H81 C71 0.929 . S
H82 C72 0.931 . S
H83 C73 0.929 . S
Tb84 N113 2.617 . S
Tb84 N119 2.572 . S
Tb84 O128 2.465 . S
Tb84 O129 2.387 . S
Tb84 O131 2.428 . S
Tb84 O132 2.308 . S
Tb84 O136 2.349 . S
Tb84 O139 2.393 . S
Tb84 C148 2.802 . S
C85 N86 1.379 . S
C85 C88 1.416 . S
C85 C92 1.424 . S
N86 C85 1.379 . S
N86 C89 1.334 . S
N86 Tb95 2.617 . S
C87 C89 1.390 . S
C87 C90 1.339 . S
C87 H107 0.930 . S
C88 C85 1.416 . S
C88 C90 1.416 . S
C88 C94 1.448 . S
C89 N86 1.334 . S
C89 C87 1.390 . S
C89 H100 0.930 . S
C90 C87 1.339 . S
C90 C88 1.416 . S
C90 H111 0.930 . S
C91 C92 1.413 . S
C91 C93 1.427 . S
C91 C97 1.416 . S
C92 C85 1.424 . S
C92 C91 1.413 . S
C92 N96 1.361 . S
C93 C91 1.427 . S
C93 C94 1.328 . S
C93 H108 0.929 . S
C94 C88 1.448 . S
C94 C93 1.328 . S
C94 H109 0.930 . S
Tb95 N86 2.617 . S
Tb95 N96 2.572 . S
Tb95 O130 2.349 1_565 S
Tb95 O133 2.393 1_565 S
Tb95 O134 2.465 . S
Tb95 O135 2.387 . S
Tb95 O137 2.428 . S
Tb95 O138 2.308 1_565 S
Tb95 C159 2.802 . S
N96 C92 1.361 . S
N96 Tb95 2.572 . S
N96 C98 1.340 . S
C97 C91 1.416 . S
C97 C99 1.332 . S
C97 H105 0.931 . S
C98 N96 1.340 . S
C98 C99 1.407 . S
C98 H104 0.930 . S
C99 C97 1.332 . S
C99 C98 1.407 . S
C99 H101 0.929 . S
H100 C89 0.930 . S
H101 C99 0.929 . S
H102 C117 0.930 . S
H103 C124 0.929 . S
H104 C98 0.930 . S
H105 C97 0.931 . S
H106 C120 0.930 . S
H107 C87 0.930 . S
H108 C93 0.929 . S
H109 C94 0.930 . S
H110 C115 0.930 . S
H111 C90 0.930 . S
H112 C123 0.931 . S
N113 Tb84 2.617 . S
N113 C114 1.379 . S
N113 C117 1.334 1_655 S
C114 N113 1.379 . S
C114 C116 1.416 1_655 S
C114 C122 1.424 . S
C115 H110 0.930 . S
C115 C117 1.390 . S
C115 C118 1.339 . S
C116 C114 1.416 1_455 S
C116 C118 1.416 . S
C116 C149 1.448 . S
C117 H102 0.930 . S
C117 N113 1.334 1_455 S
C117 C115 1.390 . S
C118 C115 1.339 . S
C118 C116 1.416 . S
C118 H125 0.930 . S
N119 Tb84 2.572 . S
N119 C120 1.340 . S
N119 C122 1.361 . S
C120 H106 0.930 . S
C120 N119 1.340 . S
C120 C124 1.407 . S
C121 C122 1.413 . S
C121 C123 1.416 . S
C121 C150 1.427 . S
C122 C114 1.424 . S
C122 N119 1.361 . S
C122 C121 1.413 . S
C123 H112 0.931 . S
C123 C121 1.416 . S
C123 C124 1.332 . S
C124 H103 0.929 . S
C124 C120 1.407 . S
C124 C123 1.332 . S
H125 C118 0.930 . S
H126 C149 0.930 . S
H127 C150 0.929 1_455 S
O128 Tb84 2.465 . S
O128 C148 1.264 . S
O129 Tb84 2.387 . S
O129 C140 1.264 . S
O130 Tb95 2.349 1_545 S
O130 C140 1.243 . S
O131 Tb84 2.428 . S
O131 C148 1.256 . S
O132 Tb84 2.308 . S
O132 C147 1.266 . S
O133 Tb95 2.393 1_545 S
O133 C147 1.248 . S
O134 Tb95 2.465 . S
O134 C159 1.264 . S
O135 Tb95 2.387 . S
O135 C151 1.264 1_565 S
O136 Tb84 2.349 . S
O136 C151 1.243 . S
O137 Tb95 2.428 . S
O137 C159 1.256 . S
O138 Tb95 2.308 1_545 S
O138 C158 1.266 . S
O139 Tb84 2.393 . S
O139 C158 1.248 . S
C140 O129 1.264 . S
C140 O130 1.243 . S
C141 C144 1.399 . S
C141 C146 1.383 . S
C141 C148 1.496 . S
C142 C143 1.399 . S
C142 C146 1.389 . S
C143 C142 1.399 . S
C143 C145 1.380 . S
C143 H160 0.929 . S
C144 C141 1.399 . S
C144 C145 1.392 . S
C144 H161 0.929 . S
C145 C143 1.380 . S
C145 C144 1.392 . S
C145 H162 0.929 . S
C146 C141 1.383 . S
C146 C142 1.389 . S
C146 H163 0.931 . S
C147 O132 1.266 . S
C147 O133 1.248 . S
C148 Tb84 2.802 . S
C148 O128 1.264 . S
C148 O131 1.256 . S
C148 C141 1.496 . S
C149 C116 1.448 . S
C149 H126 0.930 . S
C149 C150 1.328 1_455 S
C150 C121 1.427 . S
C150 H127 0.929 1_655 S
C150 C149 1.328 1_655 S
C151 O135 1.264 1_545 S
C151 O136 1.243 . S
C152 C155 1.399 . S
C152 C156 1.383 . S
C152 C159 1.496 . S
C153 C154 1.399 . S
C153 C156 1.389 . S
C154 C153 1.399 . S
C154 C157 1.380 . S
C154 H164 0.929 . S
C155 C152 1.399 . S
C155 C157 1.392 . S
C155 H165 0.929 . S
C156 C152 1.383 . S
C156 C153 1.389 . S
C156 H166 0.931 . S
C157 C154 1.380 . S
C157 C155 1.392 . S
C157 H167 0.929 . S
C158 O138 1.266 . S
C158 O139 1.248 . S
C159 Tb95 2.802 . S
C159 O134 1.264 . S
C159 O137 1.256 . S
C159 C152 1.496 . S
H160 C143 0.929 . S
H161 C144 0.929 . S
H162 C145 0.929 . S
H163 C146 0.931 . S
H164 C154 0.929 . S
H165 C155 0.929 . S
H166 C156 0.931 . S
H167 C157 0.929 . S
Tb168 N197 2.617 . S
Tb168 N203 2.572 . S
Tb168 O212 2.465 . S
Tb168 O213 2.387 . S
Tb168 O215 2.428 . S
Tb168 O216 2.308 . S
Tb168 O220 2.349 . S
Tb168 O223 2.393 . S
Tb168 C232 2.802 . S
C169 N170 1.379 . S
C169 C172 1.416 . S
C169 C176 1.424 . S
N170 C169 1.379 . S
N170 C173 1.334 . S
N170 Tb179 2.617 . S
C171 C173 1.390 . S
C171 C174 1.339 . S
C171 H191 0.930 . S
C172 C169 1.416 . S
C172 C174 1.416 . S
C172 C178 1.448 . S
C173 N170 1.334 . S
C173 C171 1.390 . S
C173 H184 0.930 . S
C174 C171 1.339 . S
C174 C172 1.416 . S
C174 H195 0.930 . S
C175 C176 1.413 . S
C175 C177 1.427 . S
C175 C181 1.416 . S
C176 C169 1.424 . S
C176 C175 1.413 . S
C176 N180 1.361 . S
C177 C175 1.427 . S
C177 C178 1.328 . S
C177 H192 0.929 . S
C178 C172 1.448 . S
C178 C177 1.328 . S
C178 H193 0.930 . S
Tb179 N170 2.617 . S
Tb179 N180 2.572 . S
Tb179 O214 2.349 . S
Tb179 O217 2.393 . S
Tb179 O218 2.465 . S
Tb179 O219 2.387 . S
Tb179 O221 2.428 . S
Tb179 O222 2.308 . S
Tb179 C243 2.802 . S
N180 C176 1.361 . S
N180 Tb179 2.572 . S
N180 C182 1.340 . S
C181 C175 1.416 . S
C181 C183 1.332 . S
C181 H189 0.931 . S
C182 N180 1.340 . S
C182 C183 1.407 . S
C182 H188 0.930 . S
C183 C181 1.332 . S
C183 C182 1.407 . S
C183 H185 0.929 . S
H184 C173 0.930 . S
H185 C183 0.929 . S
H186 C201 0.930 . S
H187 C208 0.929 . S
H188 C182 0.930 . S
H189 C181 0.931 . S
H190 C204 0.930 . S
H191 C171 0.930 . S
H192 C177 0.929 . S
H193 C178 0.930 . S
H194 C199 0.930 . S
H195 C174 0.930 . S
H196 C207 0.931 . S
N197 Tb168 2.617 . S
N197 C198 1.379 . S
N197 C201 1.334 . S
C198 N197 1.379 . S
C198 C200 1.416 . S
C198 C206 1.424 . S
C199 H194 0.930 . S
C199 C201 1.390 1_565 S
C199 C202 1.339 . S
C200 C198 1.416 . S
C200 C202 1.416 1_545 S
C200 C233 1.448 . S
C201 H186 0.930 . S
C201 N197 1.334 . S
C201 C199 1.390 1_545 S
C202 C199 1.339 . S
C202 C200 1.416 1_565 S
C202 H209 0.930 . S
N203 Tb168 2.572 . S
N203 C204 1.340 . S
N203 C206 1.361 . S
C204 H190 0.930 . S
C204 N203 1.340 . S
C204 C208 1.407 1_655 S
C205 C206 1.413 . S
C205 C207 1.416 1_655 S
C205 C234 1.427 . S
C206 C198 1.424 . S
C206 N203 1.361 . S
C206 C205 1.413 . S
C207 H196 0.931 . S
C207 C205 1.416 1_455 S
C207 C208 1.332 . S
C208 H187 0.929 . S
C208 C204 1.407 1_455 S
C208 C207 1.332 . S
H209 C202 0.930 . S
H210 C233 0.930 1_565 S
H211 C234 0.929 . S
O212 Tb168 2.465 . S
O212 C232 1.264 . S
O213 Tb168 2.387 . S
O213 C224 1.264 . S
O214 Tb179 2.349 . S
O214 C224 1.243 . S
O215 Tb168 2.428 . S
O215 C232 1.256 . S
O216 Tb168 2.308 . S
O216 C231 1.266 . S
O217 Tb179 2.393 . S
O217 C231 1.248 . S
O218 Tb179 2.465 . S
O218 C243 1.264 . S
O219 Tb179 2.387 . S
O219 C235 1.264 . S
O220 Tb168 2.349 . S
O220 C235 1.243 . S
O221 Tb179 2.428 . S
O221 C243 1.256 . S
O222 Tb179 2.308 . S
O222 C242 1.266 . S
O223 Tb168 2.393 . S
O223 C242 1.248 . S
C224 O213 1.264 . S
C224 O214 1.243 . S
C225 C228 1.399 . S
C225 C230 1.383 . S
C225 C232 1.496 . S
C226 C227 1.399 . S
C226 C230 1.389 . S
C227 C226 1.399 . S
C227 C229 1.380 . S
C227 H244 0.929 . S
C228 C225 1.399 . S
C228 C229 1.392 . S
C228 H245 0.929 . S
C229 C227 1.380 . S
C229 C228 1.392 . S
C229 H246 0.929 . S
C230 C225 1.383 . S
C230 C226 1.389 . S
C230 H247 0.931 . S
C231 O216 1.266 . S
C231 O217 1.248 . S
C232 Tb168 2.802 . S
C232 O212 1.264 . S
C232 O215 1.256 . S
C232 C225 1.496 . S
C233 C200 1.448 . S
C233 H210 0.930 1_545 S
C233 C234 1.328 . S
C234 C205 1.427 . S
C234 H211 0.929 . S
C234 C233 1.328 . S
C235 O219 1.264 . S
C235 O220 1.243 . S
C236 C239 1.399 . S
C236 C240 1.383 . S
C236 C243 1.496 . S
C237 C238 1.399 . S
C237 C240 1.389 . S
C238 C237 1.399 . S
C238 C241 1.380 . S
C238 H248 0.929 . S
C239 C236 1.399 . S
C239 C241 1.392 . S
C239 H249 0.929 . S
C240 C236 1.383 . S
C240 C237 1.389 . S
C240 H250 0.931 . S
C241 C238 1.380 . S
C241 C239 1.392 . S
C241 H251 0.929 . S
C242 O222 1.266 . S
C242 O223 1.248 . S
C243 Tb179 2.802 . S
C243 O218 1.264 . S
C243 O221 1.256 . S
C243 C236 1.496 . S
H244 C227 0.929 . S
H245 C228 0.929 . S
H246 C229 0.929 . S
H247 C230 0.931 . S
H248 C238 0.929 . S
H249 C239 0.929 . S
H250 C240 0.931 . S
H251 C241 0.929 . S
H252 C253 0.951 1_655 S
C253 H252 0.951 1_455 S
C253 C259 1.265 . S
H254 C259 0.950 . S
H255 C263 0.949 . S
H256 C264 0.950 . S
H257 C265 0.951 . S
H258 C266 0.951 . S
C259 C253 1.265 . S
C259 H254 0.950 . S
C259 C260 1.478 . S
C260 C259 1.478 . S
C260 C261 1.397 . S
C260 C277 1.394 1_455 S
C261 C260 1.397 . S
C261 C262 1.438 1_565 S
C261 C266 1.429 . S
C262 C261 1.438 1_545 S
C262 C263 1.428 . S
C262 C275 1.394 1_455 S
C263 H255 0.949 . S
C263 C262 1.428 . S
C263 C264 1.345 . S
C264 H256 0.950 . S
C264 C263 1.345 . S
C264 C265 1.424 1_545 S
C265 H257 0.951 . S
C265 C264 1.424 1_565 S
C265 C266 1.347 . S
C266 H258 0.951 . S
C266 C261 1.429 . S
C266 C265 1.347 . S
H267 C268 0.951 1_455 S
C268 H267 0.951 1_655 S
C268 C274 1.265 . S
H269 C274 0.950 . S
H270 C278 0.949 . S
H271 C279 0.950 . S
H272 C280 0.951 . S
H273 C281 0.951 . S
C274 C268 1.265 . S
C274 H269 0.950 . S
C274 C275 1.478 . S
C275 C262 1.394 1_655 S
C275 C274 1.478 . S
C275 C276 1.397 1_545 S
C276 C275 1.397 1_565 S
C276 C277 1.438 . S
C276 C281 1.429 . S
C277 C260 1.394 1_655 S
C277 C276 1.438 . S
C277 C278 1.428 . S
C278 H270 0.949 . S
C278 C277 1.428 . S
C278 C279 1.345 . S
C279 H271 0.950 . S
C279 C278 1.345 . S
C279 C280 1.424 . S
C280 H272 0.951 . S
C280 C279 1.424 . S
C280 C281 1.347 . S
C281 H273 0.951 . S
C281 C276 1.429 . S
C281 C280 1.347 . S
H282 C283 0.951 . S
C283 H282 0.951 . S
C283 C289 1.265 . S
H284 C289 0.950 . S
H285 C293 0.949 . S
H286 C294 0.950 . S
H287 C295 0.951 . S
H288 C296 0.951 . S
C289 C283 1.265 . S
C289 H284 0.950 . S
C289 C290 1.478 . S
C290 C289 1.478 . S
C290 C291 1.397 . S
C290 C307 1.394 . S
C291 C290 1.397 . S
C291 C292 1.438 . S
C291 C296 1.429 . S
C292 C291 1.438 . S
C292 C293 1.428 . S
C292 C305 1.394 . S
C293 H285 0.949 . S
C293 C292 1.428 . S
C293 C294 1.345 . S
C294 H286 0.950 . S
C294 C293 1.345 . S
C294 C295 1.424 . S
C295 H287 0.951 . S
C295 C294 1.424 . S
C295 C296 1.347 . S
C296 H288 0.951 . S
C296 C291 1.429 . S
C296 C295 1.347 . S
H297 C298 0.951 . S
C298 H297 0.951 . S
C298 C304 1.265 1_655 S
H299 C304 0.950 . S
H300 C308 0.949 . S
H301 C309 0.950 . S
H302 C310 0.951 . S
H303 C311 0.951 . S
C304 C298 1.265 1_455 S
C304 H299 0.950 . S
C304 C305 1.478 . S
C305 C292 1.394 . S
C305 C304 1.478 . S
C305 C306 1.397 . S
C306 C305 1.397 . S
C306 C307 1.438 . S
C306 C311 1.429 . S
C307 C290 1.394 . S
C307 C306 1.438 . S
C307 C308 1.428 . S
C308 H300 0.949 . S
C308 C307 1.428 . S
C308 C309 1.345 . S
C309 H301 0.950 . S
C309 C308 1.345 . S
C309 C310 1.424 . S
C310 H302 0.951 . S
C310 C309 1.424 . S
C310 C311 1.347 . S
C311 H303 0.951 . S
C311 C306 1.429 . S
C311 C310 1.347 . S
H312 C313 0.951 . S
C313 H312 0.951 . S
C313 C319 1.265 1_655 S
H314 C319 0.950 . S
H315 C323 0.949 . S
H316 C324 0.949 1_545 S
H317 C325 0.951 . S
H318 C326 0.951 . S
C319 C313 1.265 1_455 S
C319 H314 0.950 . S
C319 C320 1.478 . S
C320 C319 1.478 . S
C320 C321 1.397 . S
C320 C337 1.394 . S
C321 C320 1.397 . S
C321 C322 1.438 . S
C321 C326 1.429 . S
C322 C321 1.438 . S
C322 C323 1.428 1_565 S
C322 C335 1.394 1_565 S
C323 H315 0.949 . S
C323 C322 1.428 1_545 S
C323 C324 1.343 1_545 S
C324 H316 0.949 1_565 S
C324 C323 1.343 1_565 S
C324 C325 1.426 . S
C325 H317 0.951 . S
C325 C324 1.426 . S
C325 C326 1.347 . S
C326 H318 0.951 . S
C326 C321 1.429 . S
C326 C325 1.347 . S
H327 C328 0.951 . S
C328 H327 0.951 . S
C328 C334 1.265 . S
H329 C334 0.950 . S
H330 C338 0.949 . S
H331 C339 0.950 . S
H332 C340 0.951 1_545 S
H333 C341 0.951 . S
C334 C328 1.265 . S
C334 H329 0.950 . S
C334 C335 1.478 . S
C335 C322 1.394 1_545 S
C335 C334 1.478 . S
C335 C336 1.397 1_545 S
C336 C335 1.397 1_565 S
C336 C337 1.438 . S
C336 C341 1.429 1_565 S
C337 C320 1.394 . S
C337 C336 1.438 . S
C337 C338 1.428 . S
C338 H330 0.949 . S
C338 C337 1.428 . S
C338 C339 1.345 . S
C339 H331 0.950 . S
C339 C338 1.345 . S
C339 C340 1.424 . S
C340 H332 0.951 1_565 S
C340 C339 1.424 . S
C340 C341 1.347 1_565 S
C341 H333 0.951 . S
C341 C336 1.429 1_545 S
C341 C340 1.347 1_545 S
H342 C343 0.951 . S
C343 H342 0.951 . S
C343 C349 1.265 . S
H344 C349 0.944 1_554 S
H345 C353 0.949 . S
H346 C354 0.950 . S
H347 C355 0.951 . S
H348 C356 0.951 . S
C349 C343 1.265 . S
C349 H344 0.944 1_556 S
C349 C350 1.478 1_556 S
C350 C349 1.478 1_554 S
C350 C351 1.397 . S
C350 C367 1.394 . S
C351 C350 1.397 . S
C351 C352 1.438 . S
C351 C356 1.429 . S
C352 C351 1.438 . S
C352 C353 1.428 . S
C352 C365 1.394 . S
C353 H345 0.949 . S
C353 C352 1.428 . S
C353 C354 1.345 . S
C354 H346 0.950 . S
C354 C353 1.345 . S
C354 C355 1.424 . S
C355 H347 0.951 . S
C355 C354 1.424 . S
C355 C356 1.347 . S
C356 H348 0.951 . S
C356 C351 1.429 . S
C356 C355 1.347 . S
H357 C358 0.951 . S
C358 H357 0.951 . S
C358 C364 1.265 . S
H359 C364 0.950 . S
H360 C368 0.949 . S
H361 C369 0.950 . S
H362 C370 0.951 . S
H363 C371 0.951 . S
C364 C358 1.265 . S
C364 H359 0.950 . S
C364 C365 1.478 . S
C365 C352 1.394 . S
C365 C364 1.478 . S
C365 C366 1.397 . S
C366 C365 1.397 . S
C366 C367 1.438 . S
C366 C371 1.429 . S
C367 C350 1.394 . S
C367 C366 1.438 . S
C367 C368 1.428 . S
C368 H360 0.949 . S
C368 C367 1.428 . S
C368 C369 1.345 . S
C369 H361 0.950 . S
C369 C368 1.345 . S
C369 C370 1.424 . S
C370 H362 0.951 . S
C370 C369 1.424 . S
C370 C371 1.347 . S
C371 H363 0.951 . S
C371 C366 1.429 . S
C371 C370 1.347 . S
H372 C373 0.951 . S
C373 H372 0.951 . S
C373 C379 1.265 . S
H374 C379 0.950 . S
H375 C383 0.949 . S
H376 C384 0.950 . S
H377 C385 0.951 . S
H378 C386 0.951 . S
C379 C373 1.265 . S
C379 H374 0.950 . S
C379 C380 1.478 . S
C380 C379 1.478 . S
C380 C381 1.397 . S
C380 C397 1.394 . S
C381 C380 1.397 . S
C381 C382 1.438 . S
C381 C386 1.429 . S
C382 C381 1.438 . S
C382 C383 1.428 . S
C382 C395 1.394 . S
C383 H375 0.949 . S
C383 C382 1.428 . S
C383 C384 1.345 . S
C384 H376 0.950 . S
C384 C383 1.345 . S
C384 C385 1.424 . S
C385 H377 0.951 . S
C385 C384 1.424 . S
C385 C386 1.347 . S
C386 H378 0.951 . S
C386 C381 1.429 . S
C386 C385 1.347 . S
H387 C388 0.951 . S
C388 H387 0.951 . S
C388 C394 1.265 . S
H389 C394 0.950 . S
H390 C398 0.949 . S
H391 C399 0.950 . S
H392 C400 0.951 . S
H393 C401 0.951 . S
C394 C388 1.265 . S
C394 H389 0.950 . S
C394 C395 1.478 . S
C395 C382 1.394 . S
C395 C394 1.478 . S
C395 C396 1.397 . S
C396 C395 1.397 . S
C396 C397 1.438 . S
C396 C401 1.429 . S
C397 C380 1.394 . S
C397 C396 1.438 . S
C397 C398 1.428 . S
C398 H390 0.949 . S
C398 C397 1.428 . S
C398 C399 1.345 . S
C399 H391 0.950 . S
C399 C398 1.345 . S
C399 C400 1.424 . S
C400 H392 0.951 . S
C400 C399 1.424 . S
C400 C401 1.347 . S
C401 H393 0.951 . S
C401 C396 1.429 . S
C401 C400 1.347 . S
H402 C403 0.951 . S
C403 H402 0.951 . S
C403 C409 1.265 . S
H404 C409 0.950 . S
H405 C413 0.949 . S
H406 C414 0.950 . S
H407 C415 0.951 . S
H408 C416 0.951 . S
C409 C403 1.265 . S
C409 H404 0.950 . S
C409 C410 1.478 . S
C410 C409 1.478 . S
C410 C411 1.397 . S
C410 C427 1.394 . S
C411 C410 1.397 . S
C411 C412 1.438 . S
C411 C416 1.429 . S
C412 C411 1.438 . S
C412 C413 1.428 . S
C412 C425 1.394 . S
C413 H405 0.949 . S
C413 C412 1.428 . S
C413 C414 1.345 . S
C414 H406 0.950 . S
C414 C413 1.345 . S
C414 C415 1.424 . S
C415 H407 0.951 . S
C415 C414 1.424 . S
C415 C416 1.347 . S
C416 H408 0.951 . S
C416 C411 1.429 . S
C416 C415 1.347 . S
H417 C418 0.951 . S
C418 H417 0.951 . S
C418 C424 1.265 . S
H419 C424 0.950 . S
H420 C428 0.949 . S
H421 C429 0.950 . S
H422 C430 0.951 . S
H423 C431 0.951 . S
C424 C418 1.265 . S
C424 H419 0.950 . S
C424 C425 1.478 . S
C425 C412 1.394 . S
C425 C424 1.478 . S
C425 C426 1.397 . S
C426 C425 1.397 . S
C426 C427 1.438 . S
C426 C431 1.429 . S
C427 C410 1.394 . S
C427 C426 1.438 . S
C427 C428 1.428 . S
C428 H420 0.949 . S
C428 C427 1.428 . S
C428 C429 1.345 . S
C429 H421 0.950 . S
C429 C428 1.345 . S
C429 C430 1.424 . S
C430 H422 0.951 . S
C430 C429 1.424 . S
C430 C431 1.347 . S
C431 H423 0.951 . S
C431 C426 1.429 . S
C431 C430 1.347 . S
H432 C433 0.951 . S
C433 H432 0.951 . S
C433 C439 1.265 . S
H434 C439 0.950 . S
H435 C443 0.949 . S
H436 C444 0.950 . S
H437 C445 0.951 . S
H438 C446 0.951 . S
C439 C433 1.265 . S
C439 H434 0.950 . S
C439 C440 1.478 . S
C440 C439 1.478 . S
C440 C441 1.397 . S
C440 C457 1.394 . S
C441 C440 1.397 . S
C441 C442 1.438 . S
C441 C446 1.429 . S
C442 C441 1.438 . S
C442 C443 1.428 1_556 S
C442 C455 1.394 . S
C443 H435 0.949 . S
C443 C442 1.428 1_554 S
C443 C444 1.345 . S
C444 H436 0.950 . S
C444 C443 1.345 . S
C444 C445 1.424 1_554 S
C445 H437 0.951 . S
C445 C444 1.424 1_556 S
C445 C446 1.347 . S
C446 H438 0.951 . S
C446 C441 1.429 . S
C446 C445 1.347 . S
H447 C448 0.951 . S
C448 H447 0.951 . S
C448 C454 1.265 . S
H449 C454 0.950 . S
H450 C458 0.949 . S
H451 C459 0.950 . S
H452 C460 0.951 1_565 S
H453 C461 0.951 . S
C454 C448 1.265 . S
C454 H449 0.950 . S
C454 C455 1.478 1_554 S
C455 C442 1.394 . S
C455 C454 1.478 1_556 S
C455 C456 1.397 . S
C456 C455 1.397 . S
C456 C457 1.438 . S
C456 C461 1.429 . S
C457 C440 1.394 . S
C457 C456 1.438 . S
C457 C458 1.428 . S
C458 H450 0.949 . S
C458 C457 1.428 . S
C458 C459 1.345 . S
C459 H451 0.950 . S
C459 C458 1.345 . S
C459 C460 1.424 . S
C460 H452 0.951 1_545 S
C460 C459 1.424 . S
C460 C461 1.347 . S
C461 H453 0.951 . S
C461 C456 1.429 . S
C461 C460 1.347 . S
H462 C463 0.951 . S
C463 H462 0.951 . S
C463 C469 1.265 . S
H464 C469 0.950 . S
H465 C473 0.949 . S
H466 C474 0.950 . S
H467 C475 0.951 . S
H468 C476 0.951 . S
C469 C463 1.265 . S
C469 H464 0.950 . S
C469 C470 1.478 . S
C470 C469 1.478 . S
C470 C471 1.397 . S
C470 C487 1.394 . S
C471 C470 1.397 . S
C471 C472 1.438 . S
C471 C476 1.429 . S
C472 C471 1.438 . S
C472 C473 1.428 . S
C472 C485 1.394 . S
C473 H465 0.949 . S
C473 C472 1.428 . S
C473 C474 1.345 . S
C474 H466 0.950 . S
C474 C473 1.345 . S
C474 C475 1.424 . S
C475 H467 0.951 . S
C475 C474 1.424 . S
C475 C476 1.347 . S
C476 H468 0.951 . S
C476 C471 1.429 . S
C476 C475 1.347 . S
H477 C478 0.951 . S
C478 H477 0.951 . S
C478 C484 1.265 . S
H479 C484 0.950 . S
H480 C488 0.949 . S
H481 C489 0.950 . S
H482 C490 0.951 . S
H483 C491 0.951 . S
C484 C478 1.265 . S
C484 H479 0.950 . S
C484 C485 1.478 . S
C485 C472 1.394 . S
C485 C484 1.478 . S
C485 C486 1.397 . S
C486 C485 1.397 . S
C486 C487 1.438 . S
C486 C491 1.429 1_565 S
C487 C470 1.394 . S
C487 C486 1.438 . S
C487 C488 1.428 . S
C488 H480 0.949 . S
C488 C487 1.428 . S
C488 C489 1.345 1_565 S
C489 H481 0.950 . S
C489 C488 1.345 1_545 S
C489 C490 1.424 . S
C490 H482 0.951 . S
C490 C489 1.424 . S
C490 C491 1.347 . S
C491 H483 0.951 . S
C491 C486 1.429 1_545 S
C491 C490 1.347 . S
H492 C493 0.951 1_455 S
C493 H492 0.951 1_655 S
C493 C499 1.265 . S
H494 C499 0.950 . S
H495 C503 0.949 . S
H496 C504 0.950 . S
H497 C505 0.951 . S
H498 C506 0.951 . S
C499 C493 1.265 . S
C499 H494 0.950 . S
C499 C500 1.478 . S
C500 C499 1.478 . S
C500 C501 1.397 . S
C500 C517 1.394 . S
C501 C500 1.397 . S
C501 C502 1.438 . S
C501 C506 1.429 . S
C502 C501 1.438 . S
C502 C503 1.428 . S
C502 C515 1.394 . S
C503 H495 0.949 . S
C503 C502 1.428 . S
C503 C504 1.345 . S
C504 H496 0.950 . S
C504 C503 1.345 . S
C504 C505 1.424 . S
C505 H497 0.951 . S
C505 C504 1.424 . S
C505 C506 1.347 . S
C506 H498 0.951 . S
C506 C501 1.429 . S
C506 C505 1.347 . S
H507 C508 0.951 . S
C508 H507 0.951 . S
C508 C514 1.265 . S
H509 C514 0.950 . S
H510 C518 0.949 . S
H511 C519 0.950 . S
H512 C520 0.951 . S
H513 C521 0.951 . S
C514 C508 1.265 . S
C514 H509 0.950 . S
C514 C515 1.478 . S
C515 C502 1.394 . S
C515 C514 1.478 . S
C515 C516 1.397 . S
C516 C515 1.397 . S
C516 C517 1.438 . S
C516 C521 1.429 . S
C517 C500 1.394 . S
C517 C516 1.438 . S
C517 C518 1.428 . S
C518 H510 0.949 . S
C518 C517 1.428 . S
C518 C519 1.345 . S
C519 H511 0.950 . S
C519 C518 1.345 . S
C519 C520 1.424 . S
C520 H512 0.951 . S
C520 C519 1.424 . S
C520 C521 1.347 . S
C521 H513 0.951 . S
C521 C516 1.429 . S
C521 C520 1.347 . S
C253 C74 1.486 . S
C268 C63 1.486 . S
C283 C147 1.556 . S
C298 C158 1.556 . S
C313 C231 1.488 . S
C328 C242 1.488 . S
C343 C237 1.482 . S
C358 C67 1.575 . S
C373 C142 0.864 . S
C388 C56 1.355 . S
C403 C235 1.535 . S
C418 C153 1.406 . S
C433 C224 1.299 . S
C448 C58 1.026 . S
C463 C69 1.363 . S
C478 C151 1.524 1_565 S
C493 C226 1.088 . S
C508 C140 1.389 . S
