# Generated by pormake.
# Topology fnr, (5)-cn, num edge types: 1
# Building blocks:
#     Node 0, Type 0, BuildingBlock: BEQFEK_clean_sbu_0, # of connection points: 5
#     Node 1, Type 0, BuildingBlock: BEQFEK_clean_sbu_0, # of connection points: 5
#     Node 2, Type 0, BuildingBlock: BEQFEK_clean_sbu_0, # of connection points: 5
#     Node 3, Type 0, BuildingBlock: BEQFEK_clean_sbu_0, # of connection points: 5
#     Node 4, Type 0, BuildingBlock: BEQFEK_clean_sbu_0, # of connection points: 5
#     Node 5, Type 0, BuildingBlock: BEQFEK_clean_sbu_0, # of connection points: 5
#     Node 6, Type 0, BuildingBlock: BEQFEK_clean_sbu_0, # of connection points: 5
#     Node 7, Type 0, BuildingBlock: BEQFEK_clean_sbu_0, # of connection points: 5
#     Node 8, Type 0, BuildingBlock: BEQFEK_clean_sbu_0, # of connection points: 5
#     Node 9, Type 0, BuildingBlock: BEQFEK_clean_sbu_0, # of connection points: 5
#     Node 10, Type 0, BuildingBlock: BEQFEK_clean_sbu_0, # of connection points: 5
#     Node 11, Type 0, BuildingBlock: BEQFEK_clean_sbu_0, # of connection points: 5
#     Edge 12, Type (0, 0), BuildingBlock: XUDNAN_clean_linker_2, # of connection points: 2
#     Edge 13, Type (0, 0), BuildingBlock: XUDNAN_clean_linker_2, # of connection points: 2
#     Edge 14, Type (0, 0), BuildingBlock: XUDNAN_clean_linker_2, # of connection points: 2
#     Edge 15, Type (0, 0), BuildingBlock: XUDNAN_clean_linker_2, # of connection points: 2
#     Edge 16, Type (0, 0), BuildingBlock: XUDNAN_clean_linker_2, # of connection points: 2
#     Edge 17, Type (0, 0), BuildingBlock: XUDNAN_clean_linker_2, # of connection points: 2
#     Edge 18, Type (0, 0), BuildingBlock: XUDNAN_clean_linker_2, # of connection points: 2
#     Edge 19, Type (0, 0), BuildingBlock: XUDNAN_clean_linker_2, # of connection points: 2
#     Edge 20, Type (0, 0), BuildingBlock: XUDNAN_clean_linker_2, # of connection points: 2
#     Edge 21, Type (0, 0), BuildingBlock: XUDNAN_clean_linker_2, # of connection points: 2
#     Edge 22, Type (0, 0), BuildingBlock: XUDNAN_clean_linker_2, # of connection points: 2
#     Edge 23, Type (0, 0), BuildingBlock: XUDNAN_clean_linker_2, # of connection points: 2
#     Edge 24, Type (0, 0), BuildingBlock: XUDNAN_clean_linker_2, # of connection points: 2
#     Edge 25, Type (0, 0), BuildingBlock: XUDNAN_clean_linker_2, # of connection points: 2
#     Edge 26, Type (0, 0), BuildingBlock: XUDNAN_clean_linker_2, # of connection points: 2
#     Edge 27, Type (0, 0), BuildingBlock: XUDNAN_clean_linker_2, # of connection points: 2
#     Edge 28, Type (0, 0), BuildingBlock: XUDNAN_clean_linker_2, # of connection points: 2
#     Edge 29, Type (0, 0), BuildingBlock: XUDNAN_clean_linker_2, # of connection points: 2
#     Edge 30, Type (0, 0), BuildingBlock: XUDNAN_clean_linker_2, # of connection points: 2
#     Edge 31, Type (0, 0), BuildingBlock: XUDNAN_clean_linker_2, # of connection points: 2
#     Edge 32, Type (0, 0), BuildingBlock: XUDNAN_clean_linker_2, # of connection points: 2
#     Edge 33, Type (0, 0), BuildingBlock: XUDNAN_clean_linker_2, # of connection points: 2
#     Edge 34, Type (0, 0), BuildingBlock: XUDNAN_clean_linker_2, # of connection points: 2
#     Edge 35, Type (0, 0), BuildingBlock: XUDNAN_clean_linker_2, # of connection points: 2
#     Edge 36, Type (0, 0), BuildingBlock: XUDNAN_clean_linker_2, # of connection points: 2
#     Edge 37, Type (0, 0), BuildingBlock: XUDNAN_clean_linker_2, # of connection points: 2
#     Edge 38, Type (0, 0), BuildingBlock: XUDNAN_clean_linker_2, # of connection points: 2
#     Edge 39, Type (0, 0), BuildingBlock: XUDNAN_clean_linker_2, # of connection points: 2
#     Edge 40, Type (0, 0), BuildingBlock: XUDNAN_clean_linker_2, # of connection points: 2
#     Edge 41, Type (0, 0), BuildingBlock: XUDNAN_clean_linker_2, # of connection points: 2
# Relax obj value: 0.144
# Max RMSD: 0.110
# Mean RMSD: 0.110
data_MOF--net-fnr--node1-BEQFEK_clean_sbu_0--edge1-XUDNAN_clean_linker_2
_symmetry_space_group_name_H-M    P1
_symmetry_Int_Tables_number       1
_symmetry_cell_setting            triclinic
loop_
_symmetry_equiv_pos_as_xyz
'x, y, z'
_cell_length_a     44.626259
_cell_length_b     44.636614
_cell_length_c     47.447554
_cell_angle_alpha  90.177393
_cell_angle_beta   89.839733
_cell_angle_gamma 120.04541
loop_
_atom_site_label
_atom_site_type_symbol
_atom_site_fract_x
_atom_site_fract_y
_atom_site_fract_z
_atom_type_partial_charge
Co0 Co 0.47058 0.28018 0.11306 0.0
Co1 Co 0.4118 0.20475 0.09862 0.0
C2 C 0.48425 0.22453 0.08876 0.0
O3 O 0.49364 0.25454 0.09859 0.0
O4 O 0.45244 0.20178 0.08647 0.0
C5 C 0.51928 0.34513 0.08991 0.0
O6 O 0.50374 0.32952 0.06642 0.0
C7 C 0.3648 0.1357 0.07403 0.0
C8 C 0.31555 0.12269 0.09521 0.0
C9 C 0.33027 0.10999 0.07639 0.0
N10 N 0.37004 0.16245 0.09057 0.0
N11 N 0.34047 0.1545 0.10307 0.0
C12 C 0.39321 0.13395 0.05862 0.0
H13 H 0.41289 0.13622 0.07403 0.0
H14 H 0.40609 0.15619 0.04394 0.0
H15 H 0.38374 0.10938 0.04685 0.0
C16 C 0.42206 0.29553 0.08011 0.0
N17 N 0.43264 0.27395 0.08994 0.0
N18 N 0.41101 0.24244 0.08112 0.0
C19 C 0.38761 0.24316 0.06378 0.0
C20 C 0.393 0.27681 0.06293 0.0
C21 C 0.43694 0.33217 0.08993 0.0
H22 H 0.45139 0.33632 0.1099 0.0
H23 H 0.45502 0.34992 0.07372 0.0
H24 H 0.4161 0.33851 0.0932 0.0
O25 O 0.45429 0.26329 0.1517 0.0
O26 O 0.41255 0.21006 0.14064 0.0
H27 H 0.33852 0.19676 0.05949 0.0
H28 H 0.35554 0.22042 0.02698 0.0
C29 C 0.36237 0.21238 0.04693 0.0
H30 H 0.37371 0.19587 0.04179 0.0
H31 H 0.33746 0.17064 0.11734 0.0
O32 O 0.50848 0.32931 0.11325 0.0
C33 C 0.42995 0.23343 0.1589 0.0
Co34 Co 0.19659 0.46596 0.61737 0.0
Co35 Co 0.20447 0.40141 0.6011 0.0
C36 C 0.26396 0.47304 0.59637 0.0
O37 O 0.24497 0.48508 0.60467 0.0
O38 O 0.25197 0.44062 0.59383 0.0
C39 C 0.20471 0.53125 0.60238 0.0
O40 O 0.22692 0.53041 0.58466 0.0
C41 C 0.22377 0.35423 0.57304 0.0
C42 C 0.18429 0.30349 0.58993 0.0
C43 C 0.21327 0.31919 0.57274 0.0
N44 N 0.20186 0.3589 0.58958 0.0
N45 N 0.17816 0.32841 0.59937 0.0
C46 C 0.25595 0.38334 0.56041 0.0
H47 H 0.2742 0.39831 0.57761 0.0
H48 H 0.24942 0.40101 0.54905 0.0
H49 H 0.26912 0.37414 0.5459 0.0
C50 C 0.13695 0.43022 0.57946 0.0
N51 N 0.16507 0.43253 0.5918 0.0
N52 N 0.16982 0.40742 0.58257 0.0
C53 C 0.14566 0.38925 0.56276 0.0
C54 C 0.12378 0.40308 0.56003 0.0
C55 C 0.12121 0.45149 0.58863 0.0
H56 H 0.12588 0.45748 0.61144 0.0
H57 H 0.1335 0.47626 0.57685 0.0
H58 H 0.09288 0.43764 0.58487 0.0
O59 O 0.19317 0.44522 0.65479 0.0
O60 O 0.19707 0.39886 0.64303 0.0
H61 H 0.12942 0.33573 0.55743 0.0
H62 H 0.13311 0.35829 0.52491 0.0
C63 C 0.14487 0.36047 0.54593 0.0
H64 H 0.17149 0.36501 0.54308 0.0
H65 H 0.15833 0.32475 0.61314 0.0
O66 O 0.18813 0.50603 0.61924 0.0
C67 C 0.19385 0.41792 0.66153 0.0
Co68 Co 0.74013 0.19046 0.10745 0.0
Co69 Co 0.81633 0.20445 0.10196 0.0
C70 C 0.80082 0.26038 0.0912 0.0
O71 O 0.76912 0.23965 0.09676 0.0
O72 O 0.82288 0.2503 0.09158 0.0
C73 C 0.68067 0.18391 0.08004 0.0
O74 O 0.69937 0.18775 0.05747 0.0
C75 C 0.88247 0.22157 0.07535 0.0
C76 C 0.90187 0.19569 0.10342 0.0
C77 C 0.90987 0.21554 0.07917 0.0
N78 N 0.85953 0.20606 0.09635 0.0
N79 N 0.87142 0.19088 0.11319 0.0
C80 C 0.87637 0.23903 0.05097 0.0
H81 H 0.84823 0.22905 0.04824 0.0
H82 H 0.8873 0.23488 0.03128 0.0
H83 H 0.88922 0.26724 0.0552 0.0
C84 C 0.72617 0.12981 0.07196 0.0
N85 N 0.74808 0.16058 0.08398 0.0
N86 N 0.78006 0.16669 0.08127 0.0
C87 C 0.77937 0.14005 0.06713 0.0
C88 C 0.74526 0.11588 0.06068 0.0
C89 C 0.68761 0.1115 0.07515 0.0
H90 H 0.68037 0.11971 0.09487 0.0
H91 H 0.67635 0.11801 0.05699 0.0
H92 H 0.67646 0.083 0.0754 0.0
O93 O 0.75066 0.18492 0.14714 0.0
O94 O 0.8058 0.19822 0.14308 0.0
H95 H 0.82108 0.13383 0.08202 0.0
H96 H 0.80416 0.11377 0.04818 0.0
C97 C 0.8105 0.13652 0.06167 0.0
H98 H 0.83066 0.16012 0.05102 0.0
H99 H 0.85848 0.17678 0.13111 0.0
O100 O 0.69224 0.18251 0.10417 0.0
C101 C 0.77897 0.19002 0.15799 0.0
Co102 Co 0.55617 0.73721 0.61279 0.0
Co103 Co 0.61559 0.8135 0.60057 0.0
C104 C 0.5413 0.79372 0.59668 0.0
O105 O 0.53228 0.76296 0.60377 0.0
O106 O 0.57307 0.81643 0.5939 0.0
C107 C 0.4939 0.67874 0.59642 0.0
O108 O 0.49449 0.70201 0.57921 0.0
C109 C 0.65351 0.87585 0.56755 0.0
C110 C 0.7023 0.90627 0.5911 0.0
C111 C 0.68405 0.90752 0.56795 0.0
N112 N 0.65349 0.85708 0.58957 0.0
N113 N 0.6828 0.87525 0.60354 0.0
C114 C 0.62516 0.86262 0.54609 0.0
H115 H 0.61232 0.834 0.54457 0.0
H116 H 0.63544 0.87429 0.52514 0.0
H117 H 0.60542 0.86937 0.55277 0.0
C118 C 0.59597 0.72264 0.56975 0.0
N119 N 0.59059 0.74479 0.58543 0.0
N120 N 0.61557 0.77661 0.58045 0.0
C121 C 0.63797 0.77573 0.5618 0.0
C122 C 0.62626 0.74149 0.55422 0.0
C123 C 0.5716 0.68437 0.569 0.0
H124 H 0.54556 0.67932 0.56275 0.0
H125 H 0.57984 0.67101 0.55378 0.0
H126 H 0.56946 0.67351 0.5904 0.0
O127 O 0.57667 0.7538 0.65104 0.0
O128 O 0.61879 0.80752 0.6415 0.0
H129 H 0.6893 0.79952 0.5432 0.0
H130 H 0.66622 0.82285 0.53869 0.0
C131 C 0.6715 0.80682 0.55344 0.0
H132 H 0.68444 0.82263 0.57235 0.0
H133 H 0.68916 0.86678 0.62184 0.0
O134 O 0.51911 0.68737 0.61328 0.0
C135 C 0.60164 0.7831 0.65894 0.0
Co136 Co 0.82529 0.55216 0.11035 0.0
Co137 Co 0.81396 0.61539 0.09942 0.0
C138 C 0.75588 0.54224 0.09425 0.0
O139 O 0.77559 0.53069 0.10134 0.0
O140 O 0.76738 0.57455 0.09188 0.0
C141 C 0.81756 0.48717 0.0956 0.0
O142 O 0.79273 0.48629 0.08022 0.0
C143 C 0.80128 0.65985 0.06256 0.0
C144 C 0.81169 0.70405 0.09007 0.0
C145 C 0.80158 0.69107 0.06303 0.0
N146 N 0.81121 0.65484 0.08798 0.0
N147 N 0.81743 0.68135 0.10436 0.0
C148 C 0.78932 0.63388 0.03908 0.0
H149 H 0.76512 0.63071 0.02973 0.0
H150 H 0.78511 0.6086 0.04661 0.0
H151 H 0.80923 0.64301 0.02227 0.0
C152 C 0.88098 0.59026 0.06769 0.0
N153 N 0.8539 0.58632 0.08333 0.0
N154 N 0.85011 0.61345 0.0797 0.0
C155 C 0.87538 0.63604 0.06244 0.0
C156 C 0.8955 0.62194 0.05383 0.0
C157 C 0.89198 0.56368 0.06572 0.0
H158 H 0.90205 0.56136 0.08647 0.0
H159 H 0.86922 0.53821 0.06054 0.0
H160 H 0.91204 0.5702 0.04931 0.0
O161 O 0.83072 0.57302 0.14876 0.0
O162 O 0.82287 0.61782 0.14044 0.0
H163 H 0.87643 0.68256 0.07605 0.0
H164 H 0.91092 0.68965 0.05232 0.0
C165 C 0.88311 0.67232 0.05724 0.0
H166 H 0.86773 0.67259 0.03906 0.0
H167 H 0.82519 0.68374 0.12537 0.0
O168 O 0.83617 0.51375 0.11072 0.0
C169 C 0.82868 0.59913 0.15732 0.0
Co170 Co 0.27798 0.82661 0.6105 0.0
Co171 Co 0.20245 0.81376 0.60274 0.0
C172 C 0.21897 0.75704 0.59389 0.0
O173 O 0.25084 0.77791 0.59855 0.0
O174 O 0.19686 0.76714 0.59481 0.0
C175 C 0.33379 0.81452 0.61608 0.0
O176 O 0.30869 0.78492 0.62566 0.0
C177 C 0.13451 0.79204 0.57694 0.0
C178 C 0.11702 0.82254 0.60166 0.0
C179 C 0.10707 0.79822 0.58027 0.0
N180 N 0.15951 0.81211 0.59537 0.0
N181 N 0.14889 0.83028 0.61002 0.0
C182 C 0.13588 0.76496 0.55916 0.0
H183 H 0.16077 0.77674 0.54746 0.0
H184 H 0.11395 0.75226 0.54429 0.0
H185 H 0.13509 0.74473 0.57316 0.0
C186 C 0.2931 0.88286 0.56964 0.0
N187 N 0.27088 0.85562 0.58545 0.0
N188 N 0.23931 0.85016 0.58184 0.0
C189 C 0.24051 0.87415 0.56389 0.0
C190 C 0.2747 0.89576 0.55545 0.0
C191 C 0.33096 0.89503 0.56731 0.0
H192 H 0.3438 0.90713 0.58754 0.0
H193 H 0.3346 0.87253 0.56347 0.0
H194 H 0.34341 0.91388 0.54994 0.0
O195 O 0.26389 0.82938 0.65008 0.0
O196 O 0.21138 0.82246 0.64361 0.0
H197 H 0.19753 0.87951 0.57674 0.0
H198 H 0.2169 0.90128 0.54429 0.0
C199 C 0.2098 0.87782 0.55693 0.0
H200 H 0.19054 0.85452 0.54525 0.0
H201 H 0.16321 0.84758 0.62606 0.0
O202 O 0.32709 0.8381 0.60938 0.0
C203 C 0.2362 0.82731 0.65974 0.0
Co204 Co 0.73984 0.5545 0.40559 0.0
Co205 Co 0.81417 0.61611 0.42044 0.0
C206 C 0.79663 0.54304 0.42742 0.0
O207 O 0.76619 0.53258 0.41846 0.0
O208 O 0.81821 0.57511 0.43029 0.0
C209 C 0.67796 0.50242 0.42883 0.0
O210 O 0.69567 0.51688 0.45186 0.0
C211 C 0.8721 0.65912 0.45727 0.0
C212 C 0.90356 0.70625 0.43198 0.0
C213 C 0.90234 0.69106 0.45772 0.0
N214 N 0.85607 0.65579 0.43258 0.0
N215 N 0.87495 0.68401 0.41752 0.0
C216 C 0.85988 0.63053 0.47844 0.0
H217 H 0.8692 0.6127 0.47194 0.0
H218 H 0.83115 0.61556 0.47883 0.0
H219 H 0.86988 0.64014 0.49985 0.0
C220 C 0.72025 0.5982 0.43996 0.0
N221 N 0.74398 0.59047 0.43006 0.0
N222 N 0.77508 0.6155 0.43716 0.0
C223 C 0.77197 0.6396 0.45209 0.0
C224 C 0.73716 0.62917 0.45465 0.0
C225 C 0.68268 0.57912 0.43225 0.0
H226 H 0.67879 0.56581 0.4117 0.0
H227 H 0.66795 0.55964 0.44875 0.0
H228 H 0.67226 0.59705 0.43112 0.0
O229 O 0.75829 0.5734 0.36749 0.0
O230 O 0.8106 0.61738 0.37863 0.0
H231 H 0.81785 0.68749 0.44277 0.0
H232 H 0.79285 0.69 0.47182 0.0
C233 C 0.80175 0.67358 0.46132 0.0
H234 H 0.818 0.66892 0.47627 0.0
H235 H 0.8685 0.68794 0.39728 0.0
O236 O 0.69132 0.51503 0.40495 0.0
C237 C 0.78762 0.59898 0.3604 0.0
Co238 Co 0.19928 0.73694 0.90926 0.0
Co239 Co 0.21109 0.81108 0.9228 0.0
C240 C 0.26701 0.79382 0.93131 0.0
O241 O 0.24691 0.76271 0.92382 0.0
O242 O 0.25668 0.81566 0.93181 0.0
C243 C 0.1905 0.67556 0.93209 0.0
O244 O 0.19431 0.69348 0.95515 0.0
C245 C 0.22429 0.8689 0.9598 0.0
C246 C 0.21602 0.90332 0.93153 0.0
C247 C 0.22581 0.90069 0.95869 0.0
N248 N 0.2138 0.85334 0.93457 0.0
N249 N 0.20874 0.87397 0.91779 0.0
C250 C 0.23534 0.85471 0.98363 0.0
H251 H 0.23665 0.83162 0.97688 0.0
H252 H 0.21636 0.8469 1.0011 0.0
H253 H 0.26087 0.87492 0.99178 0.0
C254 C 0.13557 0.71707 0.94334 0.0
N255 N 0.16696 0.74089 0.93333 0.0
N256 N 0.1725 0.77202 0.93966 0.0
C257 C 0.14476 0.76888 0.95379 0.0
C258 C 0.12074 0.73399 0.95697 0.0
C259 C 0.11777 0.67926 0.93645 0.0
H260 H 0.12365 0.66559 0.95311 0.0
H261 H 0.08926 0.66798 0.93575 0.0
H262 H 0.12691 0.67503 0.91588 0.0
O263 O 0.19937 0.75542 0.87068 0.0
O264 O 0.20555 0.80697 0.88133 0.0
H265 H 0.11361 0.78981 0.97032 0.0
H266 H 0.15915 0.81469 0.9777 0.0
C267 C 0.13979 0.79863 0.96158 0.0
H268 H 0.14394 0.81495 0.94276 0.0
H269 H 0.20118 0.86841 0.89674 0.0
O270 O 0.19033 0.68853 0.90829 0.0
C271 C 0.20186 0.78413 0.86329 0.0
Co272 Co 0.46842 0.19811 0.41076 0.0
Co273 Co 0.40606 0.21067 0.42261 0.0
C274 C 0.47923 0.26681 0.43067 0.0
O275 O 0.49003 0.24668 0.42284 0.0
O276 O 0.44705 0.25627 0.4325 0.0
C277 C 0.52179 0.19153 0.43503 0.0
O278 O 0.50746 0.196 0.45768 0.0
C279 C 0.36001 0.22365 0.4584 0.0
C280 C 0.31832 0.21556 0.429 0.0
C281 C 0.32964 0.22495 0.45649 0.0
N282 N 0.36617 0.21364 0.43331 0.0
N283 N 0.34108 0.20876 0.41584 0.0
C284 C 0.38428 0.23434 0.48295 0.0
H285 H 0.40917 0.2363 0.47681 0.0
H286 H 0.37262 0.21485 0.49996 0.0
H287 H 0.38886 0.25948 0.49148 0.0
C288 C 0.42397 0.13553 0.4456 0.0
N289 N 0.43183 0.16675 0.43511 0.0
N290 N 0.40591 0.1722 0.44027 0.0
C291 C 0.38076 0.14451 0.45402 0.0
C292 C 0.39159 0.12062 0.45824 0.0
C293 C 0.4445 0.11796 0.44001 0.0
H294 H 0.46421 0.1252 0.45679 0.0
H295 H 0.42768 0.08938 0.4402 0.0
H296 H 0.45785 0.12622 0.41937 0.0
O297 O 0.45042 0.19627 0.37206 0.0
O298 O 0.40586 0.20455 0.38083 0.0
H299 H 0.33457 0.14398 0.441 0.0
H300 H 0.32768 0.1129 0.4683 0.0
C301 C 0.34558 0.13931 0.46031 0.0
H302 H 0.34788 0.15819 0.47657 0.0
H303 H 0.33986 0.20147 0.39477 0.0
O304 O 0.50823 0.18973 0.41107 0.0
C305 C 0.425 0.19949 0.36365 0.0
Co306 Co 0.27947 0.45997 0.90984 0.0
Co307 Co 0.20386 0.40097 0.92514 0.0
C308 C 0.22236 0.47362 0.93103 0.0
O309 O 0.2525 0.48269 0.92165 0.0
O310 O 0.19995 0.44192 0.93477 0.0
C311 C 0.33897 0.52245 0.92622 0.0
O312 O 0.31641 0.52244 0.94406 0.0
C313 C 0.13815 0.35326 0.9546 0.0
C314 C 0.12398 0.30404 0.93292 0.0
C315 C 0.11358 0.31816 0.95422 0.0
N316 N 0.16193 0.35936 0.9345 0.0
N317 N 0.15301 0.32987 0.92146 0.0
C318 C 0.14095 0.37994 0.97526 0.0
H319 H 0.16824 0.40098 0.97735 0.0
H320 H 0.13087 0.36813 0.99622 0.0
H321 H 0.1254 0.39135 0.96757 0.0
C322 C 0.29597 0.41513 0.94569 0.0
N323 N 0.27355 0.424 0.93482 0.0
N324 N 0.24215 0.40186 0.94354 0.0
C325 C 0.24372 0.37951 0.96162 0.0
C326 C 0.27786 0.38632 0.96317 0.0
C327 C 0.33311 0.43174 0.93685 0.0
H328 H 0.33679 0.444 0.91587 0.0
H329 H 0.34934 0.45208 0.95237 0.0
H330 H 0.3418 0.41242 0.93587 0.0
O331 O 0.26254 0.44108 0.87183 0.0
O332 O 0.20912 0.3998 0.88315 0.0
H333 H 0.19749 0.33023 0.96559 0.0
H334 H 0.22155 0.34651 0.99809 0.0
C335 C 0.21327 0.35375 0.97848 0.0
H336 H 0.19693 0.36497 0.9844 0.0
H337 H 0.16728 0.32725 0.90515 0.0
O338 O 0.32924 0.49735 0.90899 0.0
C339 C 0.23268 0.41651 0.86484 0.0
Co340 Co 0.82676 0.28537 0.39988 0.0
Co341 Co 0.81331 0.21457 0.42413 0.0
C342 C 0.75957 0.23375 0.4291 0.0
O343 O 0.77865 0.26111 0.41515 0.0
O344 O 0.77024 0.21321 0.43587 0.0
C345 C 0.83788 0.34775 0.4204 0.0
O346 O 0.83523 0.33059 0.44359 0.0
C347 C 0.79061 0.15222 0.4578 0.0
C348 C 0.81982 0.1291 0.43929 0.0
C349 C 0.79427 0.12318 0.45879 0.0
N350 N 0.81232 0.17396 0.4382 0.0
N351 N 0.8301 0.16022 0.42746 0.0
C352 C 0.76767 0.15982 0.4759 0.0
H353 H 0.78082 0.18785 0.48093 0.0
H354 H 0.76094 0.14485 0.49582 0.0
H355 H 0.74347 0.15273 0.46427 0.0
C356 C 0.89167 0.30968 0.43174 0.0
N357 N 0.8601 0.28426 0.42402 0.0
N358 N 0.85319 0.25555 0.43694 0.0
C359 C 0.87917 0.26238 0.45507 0.0
C360 C 0.90477 0.29725 0.45249 0.0
C361 C 0.91049 0.34356 0.41646 0.0
H362 H 0.9002 0.34074 0.39475 0.0
H363 H 0.90667 0.36327 0.42758 0.0
H364 H 0.93865 0.35284 0.41542 0.0
O365 O 0.8257 0.26315 0.36387 0.0
O366 O 0.81238 0.21169 0.38158 0.0
H367 H 0.8915 0.22333 0.46563 0.0
H368 H 0.89159 0.2489 0.49525 0.0
C369 C 0.8783 0.23631 0.47529 0.0
H370 H 0.85118 0.2164 0.48005 0.0
H371 H 0.84834 0.1715 0.41135 0.0
O372 O 0.83625 0.33372 0.39662 0.0
C373 C 0.81784 0.23168 0.36054 0.0
Co374 Co 0.55851 0.82004 0.9116 0.0
Co375 Co 0.62205 0.80794 0.91719 0.0
C376 C 0.54929 0.7499 0.9247 0.0
O377 O 0.53781 0.77047 0.92074 0.0
O378 O 0.58162 0.7606 0.92398 0.0
C379 C 0.49442 0.81245 0.92981 0.0
O380 O 0.49392 0.78726 0.94438 0.0
C381 C 0.67177 0.79132 0.94361 0.0
C382 C 0.71431 0.81306 0.91243 0.0
C383 C 0.70399 0.79496 0.9376 0.0
N384 N 0.66369 0.80662 0.92294 0.0
N385 N 0.68935 0.81976 0.90451 0.0
C386 C 0.64803 0.77199 0.96755 0.0
H387 H 0.62151 0.767 0.9635 0.0
H388 H 0.65752 0.78783 0.98701 0.0
H389 H 0.64753 0.74718 0.97114 0.0
C390 C 0.60028 0.87523 0.95347 0.0
N391 N 0.59478 0.84809 0.93722 0.0
N392 N 0.62143 0.84323 0.93947 0.0
C393 C 0.64516 0.86771 0.95665 0.0
C394 C 0.63252 0.88878 0.96632 0.0
C395 C 0.57451 0.8871 0.95707 0.0
H396 H 0.54888 0.8646 0.96228 0.0
H397 H 0.58196 0.90657 0.97413 0.0
H398 H 0.57196 0.8982 0.93693 0.0
O399 O 0.5758 0.82576 0.87175 0.0
O400 O 0.62139 0.81859 0.87712 0.0
H401 H 0.69861 0.89891 0.97018 0.0
H402 H 0.6792 0.85279 0.9754 0.0
C403 C 0.68075 0.8731 0.96107 0.0
H404 H 0.69159 0.87086 0.94066 0.0
H405 H 0.68951 0.83271 0.88618 0.0
O406 O 0.5204 0.83118 0.91417 0.0
C407 C 0.60168 0.82446 0.86164 0.0
H408 H 0.65912 0.22043 0.11191 0.0
H409 H 0.62961 0.14927 0.04143 0.0
H410 H 0.57568 0.15178 0.03563 0.0
H411 H 0.57424 0.1912 0.14088 0.0
H412 H 0.58283 0.23421 0.14927 0.0
H413 H 0.61776 0.22497 0.14872 0.0
H414 H 0.6508 0.27454 0.11277 0.0
H415 H 0.61586 0.28378 0.11307 0.0
H416 H 0.62999 0.27447 0.08025 0.0
H417 H 0.52389 0.16051 0.03908 0.0
H418 H 0.48049 0.17833 0.04889 0.0
H419 H 0.54723 0.24852 0.11379 0.0
C420 C 0.64098 0.20503 0.09554 0.0
C421 C 0.64792 0.18412 0.07741 0.0
C422 C 0.62435 0.16514 0.05564 0.0
C423 C 0.59378 0.16644 0.05222 0.0
C424 C 0.58773 0.18755 0.07032 0.0
C425 C 0.61092 0.20687 0.09131 0.0
C426 C 0.59935 0.22899 0.1069 0.0
C427 C 0.59317 0.21924 0.1383 0.0
C428 C 0.62556 0.26773 0.103 0.0
C429 C 0.56572 0.21867 0.09175 0.0
C430 C 0.55927 0.19447 0.07092 0.0
C431 C 0.52888 0.17978 0.05509 0.0
C432 C 0.5044 0.19001 0.0608 0.0
C433 C 0.5108 0.21515 0.08176 0.0
C434 C 0.54201 0.22979 0.09721 0.0
H435 H 0.2942 0.54106 0.5819 0.0
H436 H 0.31788 0.46063 0.60273 0.0
H437 H 0.38039 0.50432 0.6036 0.0
H438 H 0.3704 0.59161 0.53644 0.0
H439 H 0.37498 0.63215 0.54816 0.0
H440 H 0.33277 0.59391 0.54702 0.0
H441 H 0.32376 0.60261 0.59971 0.0
H442 H 0.36608 0.64053 0.60115 0.0
H443 H 0.35481 0.60538 0.62534 0.0
H444 H 0.43978 0.55864 0.60816 0.0
H445 H 0.49141 0.61762 0.60972 0.0
H446 H 0.42796 0.66077 0.58325 0.0
C447 C 0.31255 0.53249 0.58611 0.0
C448 C 0.30127 0.49752 0.59229 0.0
C449 C 0.32606 0.48729 0.59769 0.0
C450 C 0.36156 0.51195 0.5984 0.0
C451 C 0.37173 0.54649 0.59313 0.0
C452 C 0.34792 0.55657 0.58647 0.0
C453 C 0.36518 0.59524 0.58213 0.0
C454 C 0.36056 0.60371 0.55162 0.0
C455 C 0.35165 0.6119 0.60335 0.0
C456 C 0.40237 0.60556 0.58809 0.0
C457 C 0.40575 0.57722 0.59458 0.0
C458 C 0.43752 0.58092 0.6026 0.0
C459 C 0.4666 0.61442 0.60362 0.0
C460 C 0.4636 0.64351 0.5963 0.0
C461 C 0.43108 0.63887 0.58845 0.0
H462 H 0.76086 0.28881 0.07803 0.0
H463 H 0.86649 0.31585 0.09732 0.0
H464 H 0.88332 0.37773 0.09912 0.0
H465 H 0.78325 0.36524 0.03396 0.0
H466 H 0.74671 0.36819 0.04669 0.0
H467 H 0.74417 0.32667 0.04455 0.0
H468 H 0.72761 0.31638 0.09743 0.0
H469 H 0.73062 0.35802 0.09989 0.0
H470 H 0.75587 0.34748 0.12314 0.0
H471 H 0.88662 0.43607 0.10451 0.0
H472 H 0.87752 0.48648 0.10728 0.0
H473 H 0.77042 0.4206 0.08246 0.0
C474 C 0.78771 0.30777 0.08207 0.0
C475 C 0.81236 0.29752 0.08756 0.0
C476 C 0.84721 0.32314 0.09283 0.0
C477 C 0.85697 0.35833 0.09406 0.0
C478 C 0.83168 0.36742 0.08951 0.0
C479 C 0.79792 0.34289 0.08305 0.0
C480 C 0.7754 0.35909 0.07971 0.0
C481 C 0.76158 0.35453 0.04942 0.0
C482 C 0.74564 0.34436 0.10134 0.0
C483 C 0.80155 0.3965 0.08595 0.0
C484 C 0.83386 0.40089 0.09169 0.0
C485 C 0.86157 0.43301 0.0996 0.0
C486 C 0.85614 0.46141 0.10131 0.0
C487 C 0.82339 0.45742 0.09486 0.0
C488 C 0.7959 0.42453 0.0871 0.0
H489 H 0.47183 0.7522 0.60542 0.0
H490 H 0.54934 0.8574 0.58326 0.0
H491 H 0.50423 0.87418 0.58427 0.0
H492 H 0.39993 0.74855 0.56594 0.0
H493 H 0.36883 0.72347 0.59282 0.0
H494 H 0.40668 0.71945 0.58775 0.0
H495 H 0.42264 0.73448 0.64034 0.0
H496 H 0.3851 0.73893 0.64555 0.0
H497 H 0.42745 0.77421 0.65446 0.0
H498 H 0.45064 0.87987 0.59043 0.0
H499 H 0.39329 0.87367 0.60029 0.0
H500 H 0.3525 0.76505 0.61972 0.0
C501 C 0.47939 0.77869 0.60029 0.0
C502 C 0.51419 0.80347 0.59416 0.0
C503 C 0.52285 0.83791 0.58789 0.0
C504 C 0.49741 0.84769 0.58845 0.0
C505 C 0.46351 0.82272 0.59529 0.0
C506 C 0.4545 0.78887 0.60092 0.0
C507 C 0.41676 0.76725 0.60906 0.0
C508 C 0.39689 0.73796 0.5876 0.0
C509 C 0.41278 0.7529 0.63914 0.0
C510 C 0.40595 0.79433 0.6075 0.0
C511 C 0.43311 0.82611 0.59934 0.0
C512 C 0.42918 0.85507 0.59674 0.0
C513 C 0.39657 0.85133 0.60247 0.0
C514 C 0.36848 0.81895 0.61094 0.0
C515 C 0.37346 0.79023 0.61349 0.0
H516 H 0.7177 0.47918 0.11903 0.0
H517 H 0.71 0.54969 0.06073 0.0
H518 H 0.6476 0.50747 0.05411 0.0
H519 H 0.65964 0.40023 0.08423 0.0
H520 H 0.64126 0.37675 0.11644 0.0
H521 H 0.6851 0.41236 0.11603 0.0
H522 H 0.67033 0.44186 0.15662 0.0
H523 H 0.62637 0.4064 0.15706 0.0
H524 H 0.63493 0.45007 0.15249 0.0
H525 H 0.5869 0.4553 0.05159 0.0
H526 H 0.53185 0.39958 0.05624 0.0
H527 H 0.57866 0.36636 0.11965 0.0
C528 C 0.70292 0.48571 0.10477 0.0
C529 C 0.71864 0.5175 0.09014 0.0
C530 C 0.69836 0.5254 0.07207 0.0
C531 C 0.66299 0.50159 0.06818 0.0
C532 C 0.64829 0.47042 0.08297 0.0
C533 C 0.66757 0.46268 0.10117 0.0
C534 C 0.64559 0.42787 0.1151 0.0
C535 C 0.65868 0.40283 0.10748 0.0
C536 C 0.64423 0.4318 0.14722 0.0
C537 C 0.61091 0.41691 0.10165 0.0
C538 C 0.61303 0.4416 0.08293 0.0
C539 C 0.5848 0.43609 0.06655 0.0
C540 C 0.55373 0.40447 0.06929 0.0
C541 C 0.55102 0.37922 0.08869 0.0
C542 C 0.57986 0.38572 0.10525 0.0
H543 H 0.251 0.59739 0.58712 0.0
H544 H 0.14569 0.53245 0.61671 0.0
H545 H 0.13595 0.58239 0.61356 0.0
H546 H 0.26707 0.67256 0.62636 0.0
H547 H 0.29376 0.70239 0.59935 0.0
H548 H 0.29128 0.66105 0.60256 0.0
H549 H 0.27243 0.64774 0.55029 0.0
H550 H 0.27443 0.68891 0.54704 0.0
H551 H 0.23503 0.64957 0.53842 0.0
H552 H 0.13804 0.63996 0.60661 0.0
H553 H 0.15392 0.70146 0.60282 0.0
H554 H 0.25871 0.72844 0.57992 0.0
C555 C 0.22581 0.59364 0.59281 0.0
C556 C 0.19896 0.56108 0.60195 0.0
C557 C 0.16658 0.55727 0.60971 0.0
C558 C 0.16078 0.58539 0.60777 0.0
C559 C 0.18777 0.61714 0.59839 0.0
C560 C 0.21983 0.62149 0.5915 0.0
C561 C 0.24526 0.65865 0.58374 0.0
C562 C 0.27615 0.67459 0.60423 0.0
C563 C 0.25749 0.66136 0.55304 0.0
C564 C 0.22256 0.67464 0.5874 0.0
C565 C 0.18934 0.65027 0.59541 0.0
C566 C 0.16398 0.65924 0.60035 0.0
C567 C 0.17317 0.69421 0.59794 0.0
C568 C 0.20753 0.71977 0.59107 0.0
C569 C 0.23219 0.70954 0.58515 0.0
H570 H 0.77146 0.48114 0.40062 0.0
H571 H 0.84847 0.54791 0.46166 0.0
H572 H 0.86927 0.50593 0.46524 0.0
H573 H 0.75147 0.3995 0.43065 0.0
H574 H 0.74717 0.3791 0.3969 0.0
H575 H 0.73788 0.41382 0.40029 0.0
H576 H 0.78222 0.44742 0.36068 0.0
H577 H 0.79197 0.41298 0.3574 0.0
H578 H 0.82624 0.45659 0.36418 0.0
H579 H 0.87939 0.45499 0.46357 0.0
H580 H 0.87983 0.40037 0.45533 0.0
H581 H 0.80005 0.37031 0.39196 0.0
C582 C 0.79243 0.48677 0.41503 0.0
C583 C 0.80809 0.51751 0.4312 0.0
C584 C 0.83601 0.52437 0.44926 0.0
C585 C 0.84799 0.50073 0.45136 0.0
C586 C 0.83217 0.47083 0.43484 0.0
C587 C 0.80515 0.46395 0.41688 0.0
C588 C 0.79322 0.43057 0.40074 0.0
C589 C 0.75519 0.40419 0.40757 0.0
C590 C 0.79876 0.43731 0.36886 0.0
C591 C 0.81749 0.4194 0.41264 0.0
C592 C 0.83956 0.44281 0.43247 0.0
C593 C 0.86266 0.43681 0.44776 0.0
C594 C 0.8628 0.40587 0.44293 0.0
C595 C 0.84056 0.38182 0.42258 0.0
C596 C 0.81804 0.38891 0.40698 0.0
H597 H 0.29514 0.75335 0.94372 0.0
H598 H 0.32233 0.8599 0.92874 0.0
H599 H 0.38436 0.87729 0.92885 0.0
H600 H 0.36956 0.77345 0.99012 0.0
H601 H 0.37358 0.73801 0.97615 0.0
H602 H 0.33177 0.73494 0.97754 0.0
H603 H 0.32424 0.72183 0.92398 0.0
H604 H 0.36617 0.72536 0.92233 0.0
H605 H 0.35649 0.75187 0.89982 0.0
H606 H 0.44294 0.88136 0.9242 0.0
H607 H 0.49369 0.87285 0.92109 0.0
H608 H 0.42774 0.76433 0.94159 0.0
C609 C 0.31415 0.78048 0.94107 0.0
C610 C 0.30392 0.80528 0.9362 0.0
C611 C 0.32959 0.8405 0.93273 0.0
C612 C 0.36487 0.85059 0.93262 0.0
C613 C 0.37401 0.82524 0.9365 0.0
C614 C 0.34937 0.79102 0.94127 0.0
C615 C 0.36574 0.76857 0.94406 0.0
C616 C 0.35982 0.75283 0.97374 0.0
C617 C 0.35236 0.74026 0.92118 0.0
C618 C 0.40336 0.79533 0.93936 0.0
C619 C 0.40769 0.82785 0.93492 0.0
C620 C 0.43995 0.85615 0.92819 0.0
C621 C 0.46854 0.85107 0.92628 0.0
C622 C 0.4646 0.81807 0.93139 0.0
C623 C 0.4316 0.79 0.93809 0.0
H624 H 0.65444 0.44248 0.39916 0.0
H625 H 0.62583 0.49112 0.46483 0.0
H626 H 0.57029 0.43646 0.47171 0.0
H627 H 0.5684 0.38571 0.37021 0.0
H628 H 0.57627 0.3502 0.3651 0.0
H629 H 0.6117 0.39411 0.36342 0.0
H630 H 0.644 0.38022 0.40196 0.0
H631 H 0.60855 0.33639 0.40393 0.0
H632 H 0.62294 0.3628 0.43525 0.0
H633 H 0.51764 0.37591 0.47114 0.0
H634 H 0.4745 0.31348 0.46569 0.0
H635 H 0.54113 0.30381 0.40403 0.0
C636 C 0.63605 0.44172 0.4145 0.0
C637 C 0.64379 0.47097 0.43107 0.0
C638 C 0.61991 0.46891 0.45173 0.0
C639 C 0.58841 0.43806 0.45575 0.0
C640 C 0.58166 0.40937 0.43936 0.0
C641 C 0.605 0.41086 0.41936 0.0
C642 C 0.59296 0.37575 0.40617 0.0
C643 C 0.58697 0.3765 0.37434 0.0
C644 C 0.61864 0.36305 0.4122 0.0
C645 C 0.55918 0.35431 0.42179 0.0
C646 C 0.55277 0.37418 0.44054 0.0
C647 C 0.52252 0.36004 0.45667 0.0
C648 C 0.49821 0.32466 0.45349 0.0
C649 C 0.50478 0.30383 0.43481 0.0
C650 C 0.53572 0.31898 0.4189 0.0
H651 H 0.22724 0.6522 0.90251 0.0
H652 H 0.14938 0.62336 0.96766 0.0
H653 H 0.14801 0.56762 0.97412 0.0
H654 H 0.19742 0.56685 0.87257 0.0
H655 H 0.24058 0.57401 0.86761 0.0
H656 H 0.23299 0.61 0.86652 0.0
H657 H 0.27893 0.64084 0.90564 0.0
H658 H 0.28644 0.60481 0.90702 0.0
H659 H 0.27449 0.61893 0.93856 0.0
H660 H 0.15494 0.5148 0.97296 0.0
H661 H 0.17236 0.47054 0.96655 0.0
H662 H 0.2498 0.53676 0.90552 0.0
C663 C 0.20945 0.63375 0.91769 0.0
C664 C 0.18783 0.64145 0.9342 0.0
C665 C 0.16575 0.61748 0.95462 0.0
C666 C 0.16485 0.58588 0.95842 0.0
C667 C 0.18682 0.57913 0.94208 0.0
C668 C 0.20898 0.60255 0.92233 0.0
C669 C 0.2317 0.59016 0.90895 0.0
C670 C 0.22527 0.58494 0.87702 0.0
C671 C 0.27016 0.61517 0.91544 0.0
C672 C 0.21859 0.55595 0.92401 0.0
C673 C 0.19245 0.54986 0.94281 0.0
C674 C 0.17557 0.5194 0.95847 0.0
C675 C 0.18561 0.49443 0.9547 0.0
C676 C 0.21266 0.50041 0.93582 0.0
C677 C 0.22942 0.53171 0.92047 0.0
H678 H 0.57789 0.22202 0.39999 0.0
H679 H 0.53986 0.16198 0.47671 0.0
H680 H 0.59656 0.16554 0.48351 0.0
H681 H 0.63322 0.18871 0.37614 0.0
H682 H 0.66685 0.2303 0.36387 0.0
H683 H 0.62245 0.22038 0.36395 0.0
H684 H 0.63966 0.27515 0.39414 0.0
H685 H 0.68405 0.28503 0.3944 0.0
H686 H 0.6617 0.28062 0.42718 0.0
H687 H 0.65748 0.17563 0.48172 0.0
H688 H 0.71894 0.19386 0.4727 0.0
H689 H 0.71844 0.25154 0.39944 0.0
C690 C 0.58138 0.20907 0.41788 0.0
C691 C 0.55451 0.19119 0.4376 0.0
C692 C 0.56019 0.1755 0.46128 0.0
C693 C 0.59224 0.17741 0.4653 0.0
C694 C 0.61849 0.19572 0.44572 0.0
C695 C 0.6135 0.21151 0.4226 0.0
C696 C 0.64657 0.23145 0.4057 0.0
C697 C 0.64199 0.21683 0.37564 0.0
C698 C 0.6587 0.27036 0.40535 0.0
C699 C 0.67083 0.22419 0.42281 0.0
C700 C 0.65407 0.20325 0.44565 0.0
C701 C 0.67094 0.19221 0.464 0.0
C702 C 0.70579 0.20265 0.45872 0.0
C703 C 0.72349 0.22435 0.43557 0.0
C704 C 0.70574 0.23542 0.41759 0.0
H705 H 0.35989 0.58855 0.94231 0.0
H706 H 0.39827 0.52372 0.90847 0.0
H707 H 0.4579 0.57427 0.90817 0.0
H708 H 0.41336 0.66196 0.90014 0.0
H709 H 0.41907 0.6928 0.92721 0.0
H710 H 0.38041 0.65099 0.9266 0.0
H711 H 0.39227 0.64028 0.97799 0.0
H712 H 0.43117 0.68201 0.9786 0.0
H713 H 0.43315 0.64358 0.98661 0.0
H714 H 0.51354 0.63282 0.91157 0.0
H715 H 0.55872 0.69481 0.91303 0.0
H716 H 0.48218 0.7206 0.94231 0.0
C717 C 0.3809 0.58487 0.93512 0.0
C718 C 0.37465 0.55222 0.92569 0.0
C719 C 0.40263 0.54858 0.91582 0.0
C720 C 0.43653 0.57707 0.91574 0.0
C721 C 0.44181 0.60898 0.92528 0.0
C722 C 0.41461 0.61304 0.93443 0.0
C723 C 0.42651 0.65036 0.94172 0.0
C724 C 0.4088 0.66487 0.92278 0.0
C725 C 0.42041 0.65427 0.9731 0.0
C726 C 0.4647 0.66681 0.93515 0.0
C727 C 0.47324 0.64256 0.92613 0.0
C728 C 0.5071 0.65199 0.91861 0.0
C729 C 0.53263 0.68722 0.91966 0.0
C730 C 0.52396 0.71254 0.92772 0.0
C731 C 0.48965 0.70192 0.93601 0.0
H732 H 0.47301 0.22894 0.32165 0.0
H733 H 0.36244 0.17068 0.33715 0.0
H734 H 0.3515 0.17222 0.28616 0.0
H735 H 0.46876 0.28588 0.2708 0.0
H736 H 0.5035 0.28875 0.24933 0.0
H737 H 0.50264 0.28079 0.2866 0.0
H738 H 0.5055 0.22519 0.27651 0.0
H739 H 0.50656 0.23308 0.23922 0.0
H740 H 0.47376 0.19239 0.25364 0.0
H741 H 0.35295 0.17863 0.2332 0.0
H742 H 0.3664 0.19391 0.18282 0.0
H743 H 0.47579 0.25331 0.20274 0.0
C744 C 0.44653 0.2161 0.31418 0.0
C745 C 0.4185 0.19915 0.33313 0.0
C746 C 0.38419 0.18352 0.32284 0.0
C747 C 0.37777 0.18425 0.29397 0.0
C748 C 0.40598 0.20141 0.27582 0.0
C749 C 0.43967 0.21744 0.28557 0.0
C750 C 0.46529 0.23596 0.26196 0.0
C751 C 0.48628 0.27517 0.26751 0.0
C752 C 0.48918 0.22073 0.25758 0.0
C753 C 0.44079 0.22762 0.23735 0.0
C754 C 0.4067 0.20723 0.24571 0.0
C755 C 0.37951 0.19491 0.22647 0.0
C756 C 0.38736 0.20366 0.19795 0.0
C757 C 0.42203 0.22514 0.18907 0.0
C758 C 0.449 0.2374 0.20909 0.0
H759 H 0.22519 0.46389 0.70432 0.0
H760 H 0.16451 0.35403 0.68639 0.0
H761 H 0.16752 0.34119 0.73681 0.0
H762 H 0.28305 0.45677 0.75227 0.0
H763 H 0.28734 0.49115 0.77497 0.0
H764 H 0.27825 0.49155 0.73806 0.0
H765 H 0.22363 0.49528 0.75052 0.0
H766 H 0.23268 0.49515 0.78747 0.0
H767 H 0.19126 0.46327 0.77349 0.0
H768 H 0.17559 0.34102 0.78992 0.0
H769 H 0.19212 0.35322 0.84029 0.0
H770 H 0.25271 0.46283 0.82173 0.0
C771 C 0.21212 0.43714 0.71111 0.0
C772 C 0.19406 0.4099 0.69168 0.0
C773 C 0.17817 0.37521 0.7011 0.0
C774 C 0.17976 0.36773 0.72963 0.0
C775 C 0.19802 0.39524 0.74825 0.0
C776 C 0.21428 0.42924 0.73926 0.0
C777 C 0.2339 0.45405 0.76303 0.0
C778 C 0.27295 0.47458 0.7567 0.0
C779 C 0.21949 0.47836 0.76898 0.0
C780 C 0.22591 0.42878 0.78694 0.0
C781 C 0.20479 0.39499 0.77814 0.0
C782 C 0.1925 0.36733 0.79694 0.0
C783 C 0.20199 0.37446 0.82544 0.0
C784 C 0.22416 0.40884 0.83467 0.0
C785 C 0.2364 0.43622 0.81508 0.0
H786 H 0.84746 0.26568 0.31122 0.0
H787 H 0.77286 0.1651 0.34476 0.0
H788 H 0.75604 0.14244 0.2963 0.0
H789 H 0.7986 0.2668 0.25434 0.0
H790 H 0.83419 0.28695 0.22983 0.0
H791 H 0.84198 0.29474 0.26704 0.0
H792 H 0.8865 0.27364 0.26509 0.0
H793 H 0.87912 0.26611 0.22776 0.0
H794 H 0.87379 0.23156 0.25059 0.0
H795 H 0.74187 0.1333 0.24435 0.0
H796 H 0.73759 0.13597 0.19236 0.0
H797 H 0.82524 0.24037 0.19263 0.0
C798 C 0.82802 0.23874 0.30833 0.0
C799 C 0.81141 0.21714 0.3317 0.0
C800 C 0.7861 0.18201 0.32713 0.0
C801 C 0.77625 0.16896 0.29969 0.0
C802 C 0.79254 0.19116 0.27708 0.0
C803 C 0.81849 0.22507 0.28109 0.0
C804 C 0.83182 0.24355 0.25323 0.0
C805 C 0.8263 0.27485 0.25099 0.0
C806 C 0.87008 0.25434 0.24892 0.0
C807 C 0.80867 0.21507 0.23295 0.0
C808 C 0.78592 0.18513 0.24712 0.0
C809 C 0.76008 0.1563 0.23298 0.0
C810 C 0.75769 0.15805 0.20358 0.0
C811 C 0.78143 0.18812 0.18875 0.0
C812 C 0.8073 0.21683 0.20359 0.0
H813 H 0.5539 0.79239 0.81983 0.0
H814 H 0.6637 0.85905 0.835 0.0
H815 H 0.67576 0.85541 0.78459 0.0
H816 H 0.56343 0.73556 0.77365 0.0
H817 H 0.52824 0.72804 0.75065 0.0
H818 H 0.52743 0.73897 0.78711 0.0
H819 H 0.52059 0.7911 0.77247 0.0
H820 H 0.52067 0.77992 0.73596 0.0
H821 H 0.55129 0.82277 0.74831 0.0
H822 H 0.676 0.84354 0.73302 0.0
H823 H 0.66439 0.82428 0.68333 0.0
H824 H 0.55498 0.76108 0.70239 0.0
C825 C 0.58032 0.80702 0.81227 0.0
C826 C 0.60788 0.82666 0.83101 0.0
C827 C 0.64229 0.84435 0.82075 0.0
C828 C 0.64936 0.8423 0.79224 0.0
C829 C 0.62175 0.82192 0.77441 0.0
C830 C 0.58791 0.80457 0.78395 0.0
C831 C 0.5633 0.78264 0.76075 0.0
C832 C 0.5445 0.74402 0.76852 0.0
C833 C 0.53744 0.79485 0.75397 0.0
C834 C 0.5886 0.79038 0.73673 0.0
C835 C 0.62214 0.81335 0.74502 0.0
C836 C 0.64989 0.82538 0.72631 0.0
C837 C 0.6431 0.81421 0.69821 0.0
C838 C 0.60894 0.79077 0.68923 0.0
C839 C 0.58146 0.77833 0.70888 0.0
H840 H 0.80086 0.55216 0.20007 0.0
H841 H 0.85714 0.6623 0.18283 0.0
H842 H 0.8536 0.67446 0.2333 0.0
H843 H 0.74123 0.55544 0.24748 0.0
H844 H 0.73845 0.52212 0.27054 0.0
H845 H 0.74865 0.52197 0.23382 0.0
H846 H 0.80494 0.52202 0.24718 0.0
H847 H 0.79468 0.52171 0.28397 0.0
H848 H 0.83567 0.55511 0.27044 0.0
H849 H 0.84373 0.67442 0.28564 0.0
H850 H 0.8257 0.66218 0.33564 0.0
H851 H 0.7708 0.55212 0.31763 0.0
C852 C 0.81315 0.57882 0.2071 0.0
C853 C 0.8299 0.60637 0.18779 0.0
C854 C 0.84459 0.64091 0.19747 0.0
C855 C 0.84266 0.64803 0.22603 0.0
C856 C 0.82536 0.62027 0.24448 0.0
C857 C 0.81067 0.58634 0.2354 0.0
C858 C 0.79142 0.56125 0.25911 0.0
C859 C 0.75264 0.53889 0.25232 0.0
C860 C 0.80766 0.5387 0.26556 0.0
C861 C 0.79753 0.58635 0.28292 0.0
C862 C 0.81759 0.62026 0.27416 0.0
C863 C 0.82777 0.64799 0.29269 0.0
C864 C 0.81739 0.64083 0.32098 0.0
C865 C 0.79643 0.6063 0.33026 0.0
C866 C 0.78618 0.57879 0.3109 0.0
H867 H 0.22984 0.76649 0.81899 0.0
H868 H 0.17561 0.82159 0.83984 0.0
H869 H 0.17965 0.83971 0.79017 0.0
H870 H 0.29005 0.83069 0.77131 0.0
H871 H 0.29114 0.80002 0.74713 0.0
H872 H 0.28211 0.78928 0.78391 0.0
H873 H 0.22465 0.73391 0.77097 0.0
H874 H 0.23373 0.74425 0.73415 0.0
H875 H 0.19359 0.7374 0.74907 0.0
H876 H 0.18839 0.8508 0.73827 0.0
H877 H 0.20288 0.85559 0.68753 0.0
H878 H 0.25599 0.79782 0.70085 0.0
C879 C 0.21835 0.78189 0.81293 0.0
C880 C 0.202 0.7923 0.83311 0.0
C881 C 0.18805 0.8132 0.82462 0.0
C882 C 0.19026 0.82364 0.7965 0.0
C883 C 0.20705 0.81348 0.7772 0.0
C884 C 0.22103 0.79323 0.78501 0.0
C885 C 0.23897 0.78716 0.76028 0.0
C886 C 0.27788 0.80272 0.76601 0.0
C887 C 0.22169 0.74838 0.7532 0.0
C888 C 0.23265 0.80694 0.73734 0.0
C889 C 0.21393 0.82167 0.74754 0.0
C890 C 0.2034 0.83974 0.73009 0.0
C891 C 0.21179 0.8424 0.70136 0.0
C892 C 0.23106 0.82765 0.69047 0.0
C893 C 0.242 0.81011 0.70881 0.0
H894 H 0.26917 0.97016 0.95225 0.0
H895 H 0.20813 0.89223 0.0146 0.0
H896 H 0.22903 0.93727 0.05155 0.0
H897 H 0.34261 0.0218 0.99668 0.0
H898 H 0.35048 0.0625 0.98244 0.0
H899 H 0.33073 0.02413 0.96081 0.0
H900 H 0.27867 0.03318 0.95117 0.0
H901 H 0.29834 0.07166 0.97265 0.0
H902 H 0.25511 0.03727 0.98045 0.0
H903 H 0.25572 0.99084 0.08149 0.0
H904 H 0.28743 0.04934 0.10264 0.0
H905 H 0.33105 0.0926 0.0209 0.0
C906 C 0.2602 0.96267 0.9737 0.0
C907 C 0.23763 0.92766 0.98075 0.0
C908 C 0.22631 0.91873 1.00895 0.0
C909 C 0.23777 0.94419 0.03001 0.0
C910 C 0.26046 0.97843 0.02246 0.0
C911 C 0.27158 0.98774 0.995 0.0
C912 C 0.29612 0.02638 0.99254 0.0
C913 C 0.33212 0.03414 0.98253 0.0
C914 C 0.28115 0.0431 0.97305 0.0
C915 C 0.297 0.03734 0.0229 0.0
C916 C 0.27616 0.00928 0.03979 0.0
C917 C 0.27229 0.01297 0.06852 0.0
C918 C 0.29031 0.04621 0.08032 0.0
C919 C 0.31219 0.0752 0.06349 0.0
C920 C 0.3153 0.07069 0.03438 0.0
H921 H 0.23471 0.32292 0.51785 0.0
H922 H 0.2298 0.27516 0.59843 0.0
H923 H 0.25921 0.24579 0.57759 0.0
H924 H 0.21869 0.24971 0.47501 0.0
H925 H 0.24793 0.2755 0.44732 0.0
H926 H 0.2268 0.29295 0.46865 0.0
H927 H 0.28642 0.34542 0.48184 0.0
H928 H 0.30773 0.32816 0.46051 0.0
H929 H 0.3191 0.33805 0.49714 0.0
H930 H 0.28997 0.22249 0.54821 0.0
H931 H 0.31778 0.20488 0.51181 0.0
H932 H 0.30254 0.26749 0.45013 0.0
C933 C 0.24028 0.30662 0.53113 0.0
C934 C 0.2307 0.30175 0.55986 0.0
C935 C 0.23724 0.27934 0.57641 0.0
C936 C 0.25397 0.26266 0.56479 0.0
C937 C 0.26358 0.26837 0.53648 0.0
C938 C 0.25679 0.28961 0.5198 0.0
C939 C 0.26927 0.29084 0.48985 0.0
C940 C 0.23885 0.27638 0.46898 0.0
C941 C 0.2973 0.32781 0.48188 0.0
C942 C 0.28424 0.26707 0.49233 0.0
C943 C 0.28084 0.25453 0.51944 0.0
C944 C 0.29296 0.23232 0.52695 0.0
C945 C 0.30908 0.22275 0.50621 0.0
C946 C 0.31292 0.23538 0.47834 0.0
C947 C 0.3 0.25754 0.47132 0.0
H948 H 0.94923 0.27671 0.05016 0.0
H949 H 0.94036 0.17727 0.06794 0.0
H950 H 0.99155 0.19298 0.03814 0.0
H951 H 0.9755 0.28219 0.97725 0.0
H952 H 1.00532 0.32814 0.97866 0.0
H953 H 0.96784 0.309 1.0013 0.0
H954 H 1.0075 0.33534 0.04489 0.0
H955 H 0.04512 0.35434 0.0224 0.0
H956 H 0.04203 0.32622 0.05082 0.0
H957 H 0.04258 0.21863 1.00583 0.0
H958 H 0.0919 0.25362 0.97422 0.0
H959 H 0.06803 0.33664 0.97718 0.0
C960 C 0.95767 0.25801 0.04739 0.0
C961 C 0.94042 0.22547 0.06095 0.0
C962 C 0.95312 0.20227 0.05764 0.0
C963 C 0.9821 0.21092 0.04072 0.0
C964 C 0.99834 0.24304 0.02746 0.0
C965 C 0.98673 0.26632 0.03065 0.0
C966 C 1.00931 0.29934 0.01436 0.0
C967 C 0.98823 0.30499 0.99154 0.0
C968 C 0.02704 0.33066 0.03432 0.0
C969 C 0.03533 0.2909 1.00145 0.0
C970 C 0.0284 0.25823 1.00925 0.0
C971 C 0.04838 0.24432 0.99967 0.0
C972 C 0.07627 0.26435 0.98168 0.0
C973 C 0.08417 0.29805 0.97362 0.0
C974 C 0.06326 0.31137 0.98357 0.0
H975 H 0.74913 0.95474 0.54953 0.0
H976 H 0.64212 0.93068 0.54719 0.0
H977 H 0.65878 0.98186 0.51775 0.0
H978 H 0.7859 0.04661 0.55546 0.0
H979 H 0.82296 0.05703 0.53361 0.0
H980 H 0.80258 0.01729 0.55338 0.0
H981 H 0.79417 0.9824 0.50746 0.0
H982 H 0.81458 0.02205 0.48754 0.0
H983 H 0.77184 0.98794 0.4781 0.0
H984 H 0.68647 0.03557 0.48939 0.0
H985 H 0.72408 0.08986 0.46417 0.0
H986 H 0.81404 0.08153 0.48575 0.0
C987 C 0.72923 0.96017 0.54258 0.0
C988 C 0.69413 0.93802 0.54982 0.0
C989 C 0.66889 0.94626 0.54085 0.0
C990 C 0.67817 0.97558 0.52438 0.0
C991 C 0.71286 0.99661 0.51729 0.0
C992 C 0.73808 0.98944 0.5261 0.0
C993 C 0.77363 0.01698 0.51604 0.0
C994 C 0.79768 0.03558 0.54112 0.0
C995 C 0.78948 1.0014 0.4961 0.0
C996 C 0.76437 0.0408 0.5004 0.0
C997 C 0.72913 0.02842 0.50141 0.0
C998 C 0.71415 0.04574 0.48866 0.0
C999 C 0.73578 0.07677 0.47466 0.0
C1000 C 0.77204 0.09037 0.47375 0.0
C1001 C 0.78642 0.07183 0.48641 0.0
H1002 H 0.76338 0.7232 0.06763 0.0
H1003 H 0.81926 0.69632 1.00721 0.0
H1004 H 0.80078 0.72054 0.96882 0.0
H1005 H 0.69103 0.70365 0.02386 0.0
H1006 H 0.6865 0.7395 0.03595 0.0
H1007 H 0.70465 0.72067 0.05893 0.0
H1008 H 0.75968 0.7807 0.0655 0.0
H1009 H 0.74159 0.79976 0.04268 0.0
H1010 H 0.78346 0.80488 0.03491 0.0
H1011 H 0.77525 0.74637 0.93695 0.0
H1012 H 0.74444 0.77236 0.91357 0.0
H1013 H 0.70727 0.78492 0.99494 0.0
C1014 C 0.77185 0.72263 0.04632 0.0
C1015 C 0.79195 0.70706 0.04022 0.0
C1016 C 0.80273 0.70689 0.01217 0.0
C1017 C 0.79273 0.72099 0.99028 0.0
C1018 C 0.77224 0.73544 0.99688 0.0
C1019 C 0.76206 0.73658 0.02421 0.0
C1020 C 0.73973 0.75327 0.02549 0.0
C1021 C 0.70332 0.72774 0.03672 0.0
C1022 C 0.75717 0.78664 0.04319 0.0
C1023 C 0.73872 0.76105 0.99457 0.0
C1024 C 0.75773 0.75064 0.97847 0.0
C1025 C 0.76034 0.7547 0.94934 0.0
C1026 C 0.74281 0.76957 0.93628 0.0
C1027 C 0.72276 0.78004 0.95229 0.0
C1028 C 0.72124 0.77615 0.98189 0.0
H1029 H 0.97248 0.72106 0.45242 0.0
H1030 H 0.8912 0.6973 0.5135 0.0
H1031 H 0.9348 0.72153 0.55153 0.0
H1032 H 0.02591 0.70168 0.49632 0.0
H1033 H 0.06618 0.73695 0.48345 0.0
H1034 H 0.02863 0.71759 0.46099 0.0
H1035 H 0.03403 0.77759 0.45346 0.0
H1036 H 0.07173 0.79717 0.47575 0.0
H1037 H 0.03534 0.80283 0.48366 0.0
H1038 H 0.98701 0.7478 0.58282 0.0
H1039 H 0.04464 0.77536 0.60534 0.0
H1040 H 0.09245 0.78464 0.52369 0.0
C1041 C 0.96398 0.721 0.47383 0.0
C1042 C 0.92848 0.70634 0.4803 0.0
C1043 C 0.91819 0.70714 0.50839 0.0
C1044 C 0.94278 0.72117 0.53003 0.0
C1045 C 0.97756 0.7347 0.52311 0.0
C1046 C 0.98823 0.73498 0.49568 0.0
C1047 C 0.02725 0.75141 0.49393 0.0
C1048 C 0.03759 0.72535 0.48303 0.0
C1049 C 0.04301 0.7842 0.47562 0.0
C1050 C 0.03682 0.76015 0.52467 0.0
C1051 C 1.00775 0.75028 0.54112 0.0
C1052 C 1.00996 0.75559 0.57016 0.0
C1053 C 0.04275 0.77128 0.58274 0.0
C1054 C 0.07284 0.78125 0.56635 0.0
C1055 C 0.06979 0.77606 0.53689 0.0
H1056 H 0.70466 0.08558 0.01437 0.0
H1057 H 0.75452 0.06564 0.0842 0.0
H1058 H 0.72989 1.00488 0.06836 0.0
H1059 H 0.62624 1.0027 0.01379 0.0
H1060 H 0.62284 0.99991 0.97592 0.0
H1061 H 0.64385 0.04162 0.99297 0.0
H1062 H 0.69912 0.06005 0.96317 0.0
H1063 H 0.6782 0.01851 0.94589 0.0
H1064 H 0.71909 0.03354 0.96341 0.0
H1065 H 0.69835 0.94598 0.04573 0.0
H1066 H 0.66577 0.89404 0.01582 0.0
H1067 H 0.63976 0.95319 0.95867 0.0
C1068 C 0.71038 0.06831 0.02616 0.0
C1069 C 0.73156 0.08006 0.05035 0.0
C1070 C 0.7386 0.057 0.06544 0.0
C1071 C 0.72459 0.0225 0.05668 0.0
C1072 C 0.7038 0.01161 0.03269 0.0
C1073 C 0.697 0.03389 0.01745 0.0
C1074 C 0.67468 0.01585 0.99196 0.0
C1075 C 0.63984 0.01497 0.99378 0.0
C1076 C 0.69393 0.03301 0.96448 0.0
C1077 C 0.66993 0.97995 0.9953 0.0
C1078 C 0.68663 0.97797 0.0191 0.0
C1079 C 0.68543 0.94731 0.0269 0.0
C1080 C 0.66699 0.918 1.00977 0.0
C1081 C 0.6504 0.91963 0.98491 0.0
C1082 C 0.65188 0.95106 0.97771 0.0
H1083 H 0.70424 0.62263 0.50471 0.0
H1084 H 0.73629 0.68207 0.42747 0.0
H1085 H 0.71024 0.71675 0.44406 0.0
H1086 H 0.62271 0.62038 0.51318 0.0
H1087 H 0.6262 0.62522 0.55095 0.0
H1088 H 0.64663 0.60468 0.53274 0.0
H1089 H 0.70568 0.64858 0.55484 0.0
H1090 H 0.68542 0.66914 0.57323 0.0
H1091 H 0.72203 0.69431 0.55054 0.0
H1092 H 0.67988 0.74408 0.46885 0.0
H1093 H 0.64994 0.7643 0.50109 0.0
H1094 H 0.64069 0.68932 0.56344 0.0
C1095 C 0.70564 0.64298 0.49142 0.0
C1096 C 0.72203 0.64993 0.46489 0.0
C1097 C 0.72372 0.67665 0.44789 0.0
C1098 C 0.70899 0.69632 0.45711 0.0
C1099 C 0.69293 0.68895 0.48345 0.0
C1100 C 0.69139 0.6631 0.50047 0.0
C1101 C 0.67345 0.66107 0.52815 0.0
C1102 C 0.64028 0.62574 0.53144 0.0
C1103 C 0.69813 0.66874 0.55316 0.0
C1104 C 0.66512 0.68977 0.52405 0.0
C1105 C 0.67632 0.70533 0.49804 0.0
C1106 C 0.67116 0.73221 0.48933 0.0
C1107 C 0.65426 0.74358 0.50777 0.0
C1108 C 0.64303 0.72834 0.53466 0.0
C1109 C 0.64861 0.70112 0.54284 0.0
H1110 H 0.9601 0.62911 0.06107 0.0
H1111 H 0.899 0.65151 1.00305 0.0
H1112 H 0.94981 0.68211 0.97175 0.0
H1113 H 0.03886 0.70862 0.05358 0.0
H1114 H 0.06641 0.68985 0.05495 0.0
H1115 H 0.02507 0.66885 0.07253 0.0
H1116 H 1.00739 0.61239 0.04469 0.0
H1117 H 0.04881 0.63315 0.02716 0.0
H1118 H 1.00951 0.61363 1.00673 0.0
H1119 H 1.00777 0.71277 0.94801 0.0
H1120 H 0.0687 0.73889 0.93207 0.0
H1121 H 0.09179 0.69424 1.00387 0.0
C1122 C 0.95731 0.63988 0.0415 0.0
C1123 C 0.92563 0.63793 0.03439 0.0
C1124 C 0.92314 0.65297 1.00893 0.0
C1125 C 0.95179 0.67028 0.991 0.0
C1126 C 0.98275 0.67208 0.9987 0.0
C1127 C 0.98565 0.65701 0.02318 0.0
C1128 C 0.02205 0.66299 0.02657 0.0
C1129 C 0.0391 0.68382 0.0535 0.0
C1130 C 0.02192 0.62848 0.02626 0.0
C1131 C 0.0392 0.68407 1.00034 0.0
C1132 C 0.01606 0.68912 0.98463 0.0
C1133 C 0.02606 0.70877 0.96 0.0
C1134 C 0.0606 0.72357 0.95116 0.0
C1135 C 0.08457 0.71849 0.96683 0.0
C1136 C 0.07372 0.69832 0.99158 0.0
H1137 H 0.32992 0.96111 0.56415 0.0
H1138 H 0.25061 0.89853 0.50324 0.0
H1139 H 0.27193 0.94921 0.47166 0.0
H1140 H 0.32891 0.03972 0.55404 0.0
H1141 H 0.37509 0.06737 0.5573 0.0
H1142 H 0.35364 0.02624 0.57506 0.0
H1143 H 0.39428 0.00849 0.55033 0.0
H1144 H 0.41597 0.04966 0.53258 0.0
H1145 H 0.39753 0.01009 0.51243 0.0
H1146 H 0.30063 1.00728 0.44751 0.0
H1147 H 0.33651 0.06803 0.43155 0.0
H1148 H 0.39932 0.09216 0.50673 0.0
C1149 C 0.31731 0.95805 0.54402 0.0
C1150 C 0.28842 0.926 0.53618 0.0
C1151 C 0.27242 0.92302 0.5098 0.0
C1152 C 0.28446 0.95159 0.49169 0.0
C1153 C 0.31284 0.9829 0.50013 0.0
C1154 C 0.32928 0.98624 0.52555 0.0
C1155 C 0.35944 0.02272 0.52948 0.0
C1156 C 0.35392 0.04003 0.55552 0.0
C1157 C 0.39384 0.02273 0.53131 0.0
C1158 C 0.35717 0.0395 0.50245 0.0
C1159 C 0.33 0.01609 0.48585 0.0
C1160 C 0.32208 0.02575 0.46025 0.0
C1161 C 0.34245 0.0602 0.45137 0.0
C1162 C 0.37043 0.08444 0.46798 0.0
C1163 C 0.37804 0.07392 0.4937 0.0
H1164 H 0.34244 0.40702 0.98729 0.0
H1165 H 0.24307 0.31584 0.96938 0.0
H1166 H 0.26037 0.28018 0.99614 0.0
H1167 H 0.38894 0.35984 0.97326 0.0
H1168 H 0.42228 0.38429 0.9988 0.0
H1169 H 0.40086 0.40399 0.98105 0.0
H1170 H 0.38438 0.41874 0.02941 0.0
H1171 H 0.40527 0.39858 0.0473 0.0
H1172 H 0.36047 0.38456 0.05445 0.0
H1173 H 0.28572 0.25579 0.02944 0.0
H1174 H 0.32251 0.23983 0.05607 0.0
H1175 H 0.41138 0.34155 0.04025 0.0
C1176 C 0.32439 0.37954 0.98862 0.0
C1177 C 0.29047 0.36479 0.97734 0.0
C1178 C 0.26815 0.32848 0.97942 0.0
C1179 C 0.27795 0.30775 0.99428 0.0
C1180 C 0.31099 0.32322 1.00574 0.0
C1181 C 0.33447 0.35794 1.00206 0.0
C1182 C 0.36967 0.3669 0.01386 0.0
C1183 C 0.39706 0.37949 0.99034 0.0
C1184 C 0.38058 0.3938 0.03767 0.0
C1185 C 0.36186 0.33187 0.02518 0.0
C1186 C 0.32754 0.30746 0.02094 0.0
C1187 C 0.31305 0.27418 0.03177 0.0
C1188 C 0.33446 0.26517 0.04654 0.0
C1189 C 0.37051 0.28858 0.04917 0.0
C1190 C 0.38417 0.32268 0.03858 0.0
H1191 H 0.07413 0.33692 0.54205 0.0
H1192 H 0.10577 0.44563 0.53306 0.0
H1193 H 0.05216 0.42961 0.50736 0.0
H1194 H 0.04082 0.31679 0.46843 0.0
H1195 H 1.00677 0.27386 0.47746 0.0
H1196 H 0.0469 0.29356 0.49679 0.0
H1197 H 0.01267 0.28348 0.5433 0.0
H1198 H 0.9725 0.26442 0.52407 0.0
H1199 H 0.984 0.30077 0.5471 0.0
H1200 H 0.99159 0.40163 0.48991 0.0
H1201 H 0.93479 0.3651 0.46853 0.0
H1202 H 0.94897 0.27591 0.47525 0.0
C1203 C 0.07027 0.35744 0.53417 0.0
C1204 C 0.09369 0.39262 0.54082 0.0
C1205 C 0.08745 0.41847 0.5298 0.0
C1206 C 0.05718 0.40966 0.51485 0.0
C1207 C 0.03409 0.37487 0.50969 0.0
C1208 C 0.04089 0.34921 0.51781 0.0
C1209 C 0.01275 0.31407 0.50722 0.0
C1210 C 0.0277 0.29866 0.48622 0.0
C1211 C 0.99441 0.28923 0.5319 0.0
C1212 C 0.98876 0.32413 0.49267 0.0
C1213 C 1.0013 0.35923 0.49516 0.0
C1214 C 0.98226 0.37438 0.48646 0.0
C1215 C 0.95008 0.35335 0.47387 0.0
C1216 C 0.93775 0.31777 0.46857 0.0
C1217 C 0.95738 0.30295 0.47856 0.0
loop_
_geom_bond_atom_site_label_1
_geom_bond_atom_site_label_2
_geom_bond_distance
_geom_bond_site_symmetry_2
_ccdc_geom_bond_type
Co0 O3 1.970 . S
Co0 N17 1.989 . S
Co0 O25 1.967 . S
Co0 O32 1.920 . S
Co1 O4 1.966 . S
Co1 N10 2.022 . S
Co1 N18 1.993 . S
Co1 O26 1.941 . S
C2 O3 1.258 . S
C2 O4 1.263 . S
O3 Co0 1.970 . S
O3 C2 1.258 . S
O4 Co1 1.966 . S
O4 C2 1.263 . S
C5 O6 1.235 . S
C5 O32 1.289 . S
O6 C5 1.235 . S
C7 C9 1.400 . S
C7 N10 1.351 . S
C7 C12 1.501 . S
C8 C9 1.387 . S
C8 N11 1.341 . S
C9 C7 1.400 . S
C9 C8 1.387 . S
N10 Co1 2.022 . S
N10 C7 1.351 . S
N10 N11 1.365 . S
N11 C8 1.341 . S
N11 N10 1.365 . S
N11 H31 0.862 . S
C12 C7 1.501 . S
C12 H13 0.961 . S
C12 H14 0.961 . S
C12 H15 0.960 . S
H13 C12 0.961 . S
H14 C12 0.961 . S
H15 C12 0.960 . S
C16 N17 1.342 . S
C16 C20 1.401 . S
C16 C21 1.499 . S
N17 Co0 1.989 . S
N17 C16 1.342 . S
N17 N18 1.388 . S
N18 Co1 1.993 . S
N18 N17 1.388 . S
N18 C19 1.346 . S
C19 N18 1.346 . S
C19 C20 1.396 . S
C19 C29 1.510 . S
C20 C16 1.401 . S
C20 C19 1.396 . S
C21 C16 1.499 . S
C21 H22 0.959 . S
C21 H23 0.960 . S
C21 H24 0.961 . S
H22 C21 0.959 . S
H23 C21 0.960 . S
H24 C21 0.961 . S
O25 Co0 1.967 . S
O25 C33 1.258 . S
O26 Co1 1.941 . S
O26 C33 1.266 . S
H27 C29 0.959 . S
H28 C29 0.961 . S
C29 C19 1.510 . S
C29 H27 0.959 . S
C29 H28 0.961 . S
C29 H30 0.960 . S
H30 C29 0.960 . S
H31 N11 0.862 . S
O32 Co0 1.920 . S
O32 C5 1.289 . S
C33 O25 1.258 . S
C33 O26 1.266 . S
Co34 O37 1.970 . S
Co34 N51 1.989 . S
Co34 O59 1.967 . S
Co34 O66 1.920 . S
Co35 O38 1.966 . S
Co35 N44 2.022 . S
Co35 N52 1.993 . S
Co35 O60 1.941 . S
C36 O37 1.258 . S
C36 O38 1.263 . S
O37 Co34 1.970 . S
O37 C36 1.258 . S
O38 Co35 1.966 . S
O38 C36 1.263 . S
C39 O40 1.235 . S
C39 O66 1.289 . S
O40 C39 1.235 . S
C41 C43 1.400 . S
C41 N44 1.351 . S
C41 C46 1.501 . S
C42 C43 1.387 . S
C42 N45 1.341 . S
C43 C41 1.400 . S
C43 C42 1.387 . S
N44 Co35 2.022 . S
N44 C41 1.351 . S
N44 N45 1.365 . S
N45 C42 1.341 . S
N45 N44 1.365 . S
N45 H65 0.862 . S
C46 C41 1.501 . S
C46 H47 0.961 . S
C46 H48 0.961 . S
C46 H49 0.960 . S
H47 C46 0.961 . S
H48 C46 0.961 . S
H49 C46 0.960 . S
C50 N51 1.342 . S
C50 C54 1.401 . S
C50 C55 1.499 . S
N51 Co34 1.989 . S
N51 C50 1.342 . S
N51 N52 1.388 . S
N52 Co35 1.993 . S
N52 N51 1.388 . S
N52 C53 1.346 . S
C53 N52 1.346 . S
C53 C54 1.396 . S
C53 C63 1.510 . S
C54 C50 1.401 . S
C54 C53 1.396 . S
C55 C50 1.499 . S
C55 H56 0.959 . S
C55 H57 0.960 . S
C55 H58 0.961 . S
H56 C55 0.959 . S
H57 C55 0.960 . S
H58 C55 0.961 . S
O59 Co34 1.967 . S
O59 C67 1.258 . S
O60 Co35 1.941 . S
O60 C67 1.266 . S
H61 C63 0.959 . S
H62 C63 0.961 . S
C63 C53 1.510 . S
C63 H61 0.959 . S
C63 H62 0.961 . S
C63 H64 0.960 . S
H64 C63 0.960 . S
H65 N45 0.862 . S
O66 Co34 1.920 . S
O66 C39 1.289 . S
C67 O59 1.258 . S
C67 O60 1.266 . S
Co68 O71 1.970 . S
Co68 N85 1.989 . S
Co68 O93 1.967 . S
Co68 O100 1.920 . S
Co69 O72 1.966 . S
Co69 N78 2.022 . S
Co69 N86 1.993 . S
Co69 O94 1.941 . S
C70 O71 1.258 . S
C70 O72 1.263 . S
O71 Co68 1.970 . S
O71 C70 1.258 . S
O72 Co69 1.966 . S
O72 C70 1.263 . S
C73 O74 1.235 . S
C73 O100 1.289 . S
O74 C73 1.235 . S
C75 C77 1.400 . S
C75 N78 1.351 . S
C75 C80 1.501 . S
C76 C77 1.387 . S
C76 N79 1.341 . S
C77 C75 1.400 . S
C77 C76 1.387 . S
N78 Co69 2.022 . S
N78 C75 1.351 . S
N78 N79 1.365 . S
N79 C76 1.341 . S
N79 N78 1.365 . S
N79 H99 0.862 . S
C80 C75 1.501 . S
C80 H81 0.961 . S
C80 H82 0.961 . S
C80 H83 0.960 . S
H81 C80 0.961 . S
H82 C80 0.961 . S
H83 C80 0.960 . S
C84 N85 1.342 . S
C84 C88 1.401 . S
C84 C89 1.499 . S
N85 Co68 1.989 . S
N85 C84 1.342 . S
N85 N86 1.388 . S
N86 Co69 1.993 . S
N86 N85 1.388 . S
N86 C87 1.346 . S
C87 N86 1.346 . S
C87 C88 1.396 . S
C87 C97 1.510 . S
C88 C84 1.401 . S
C88 C87 1.396 . S
C89 C84 1.499 . S
C89 H90 0.959 . S
C89 H91 0.960 . S
C89 H92 0.961 . S
H90 C89 0.959 . S
H91 C89 0.960 . S
H92 C89 0.961 . S
O93 Co68 1.967 . S
O93 C101 1.258 . S
O94 Co69 1.941 . S
O94 C101 1.266 . S
H95 C97 0.959 . S
H96 C97 0.961 . S
C97 C87 1.510 . S
C97 H95 0.959 . S
C97 H96 0.961 . S
C97 H98 0.960 . S
H98 C97 0.960 . S
H99 N79 0.862 . S
O100 Co68 1.920 . S
O100 C73 1.289 . S
C101 O93 1.258 . S
C101 O94 1.266 . S
Co102 O105 1.970 . S
Co102 N119 1.989 . S
Co102 O127 1.967 . S
Co102 O134 1.920 . S
Co103 O106 1.966 . S
Co103 N112 2.022 . S
Co103 N120 1.993 . S
Co103 O128 1.941 . S
C104 O105 1.258 . S
C104 O106 1.263 . S
O105 Co102 1.970 . S
O105 C104 1.258 . S
O106 Co103 1.966 . S
O106 C104 1.263 . S
C107 O108 1.235 . S
C107 O134 1.289 . S
O108 C107 1.235 . S
C109 C111 1.400 . S
C109 N112 1.351 . S
C109 C114 1.501 . S
C110 C111 1.387 . S
C110 N113 1.341 . S
C111 C109 1.400 . S
C111 C110 1.387 . S
N112 Co103 2.022 . S
N112 C109 1.351 . S
N112 N113 1.365 . S
N113 C110 1.341 . S
N113 N112 1.365 . S
N113 H133 0.862 . S
C114 C109 1.501 . S
C114 H115 0.961 . S
C114 H116 0.961 . S
C114 H117 0.960 . S
H115 C114 0.961 . S
H116 C114 0.961 . S
H117 C114 0.960 . S
C118 N119 1.342 . S
C118 C122 1.401 . S
C118 C123 1.499 . S
N119 Co102 1.989 . S
N119 C118 1.342 . S
N119 N120 1.388 . S
N120 Co103 1.993 . S
N120 N119 1.388 . S
N120 C121 1.346 . S
C121 N120 1.346 . S
C121 C122 1.396 . S
C121 C131 1.510 . S
C122 C118 1.401 . S
C122 C121 1.396 . S
C123 C118 1.499 . S
C123 H124 0.959 . S
C123 H125 0.960 . S
C123 H126 0.961 . S
H124 C123 0.959 . S
H125 C123 0.960 . S
H126 C123 0.961 . S
O127 Co102 1.967 . S
O127 C135 1.258 . S
O128 Co103 1.941 . S
O128 C135 1.266 . S
H129 C131 0.959 . S
H130 C131 0.961 . S
C131 C121 1.510 . S
C131 H129 0.959 . S
C131 H130 0.961 . S
C131 H132 0.960 . S
H132 C131 0.960 . S
H133 N113 0.862 . S
O134 Co102 1.920 . S
O134 C107 1.289 . S
C135 O127 1.258 . S
C135 O128 1.266 . S
Co136 O139 1.970 . S
Co136 N153 1.989 . S
Co136 O161 1.967 . S
Co136 O168 1.920 . S
Co137 O140 1.966 . S
Co137 N146 2.022 . S
Co137 N154 1.993 . S
Co137 O162 1.941 . S
C138 O139 1.258 . S
C138 O140 1.263 . S
O139 Co136 1.970 . S
O139 C138 1.258 . S
O140 Co137 1.966 . S
O140 C138 1.263 . S
C141 O142 1.235 . S
C141 O168 1.289 . S
O142 C141 1.235 . S
C143 C145 1.400 . S
C143 N146 1.351 . S
C143 C148 1.501 . S
C144 C145 1.387 . S
C144 N147 1.341 . S
C145 C143 1.400 . S
C145 C144 1.387 . S
N146 Co137 2.022 . S
N146 C143 1.351 . S
N146 N147 1.365 . S
N147 C144 1.341 . S
N147 N146 1.365 . S
N147 H167 0.862 . S
C148 C143 1.501 . S
C148 H149 0.961 . S
C148 H150 0.961 . S
C148 H151 0.960 . S
H149 C148 0.961 . S
H150 C148 0.961 . S
H151 C148 0.960 . S
C152 N153 1.342 . S
C152 C156 1.401 . S
C152 C157 1.499 . S
N153 Co136 1.989 . S
N153 C152 1.342 . S
N153 N154 1.388 . S
N154 Co137 1.993 . S
N154 N153 1.388 . S
N154 C155 1.346 . S
C155 N154 1.346 . S
C155 C156 1.396 . S
C155 C165 1.510 . S
C156 C152 1.401 . S
C156 C155 1.396 . S
C157 C152 1.499 . S
C157 H158 0.959 . S
C157 H159 0.960 . S
C157 H160 0.961 . S
H158 C157 0.959 . S
H159 C157 0.960 . S
H160 C157 0.961 . S
O161 Co136 1.967 . S
O161 C169 1.258 . S
O162 Co137 1.941 . S
O162 C169 1.266 . S
H163 C165 0.959 . S
H164 C165 0.961 . S
C165 C155 1.510 . S
C165 H163 0.959 . S
C165 H164 0.961 . S
C165 H166 0.960 . S
H166 C165 0.960 . S
H167 N147 0.862 . S
O168 Co136 1.920 . S
O168 C141 1.289 . S
C169 O161 1.258 . S
C169 O162 1.266 . S
Co170 O173 1.970 . S
Co170 N187 1.989 . S
Co170 O195 1.967 . S
Co170 O202 1.920 . S
Co171 O174 1.966 . S
Co171 N180 2.022 . S
Co171 N188 1.993 . S
Co171 O196 1.941 . S
C172 O173 1.258 . S
C172 O174 1.263 . S
O173 Co170 1.970 . S
O173 C172 1.258 . S
O174 Co171 1.966 . S
O174 C172 1.263 . S
C175 O176 1.235 . S
C175 O202 1.289 . S
O176 C175 1.235 . S
C177 C179 1.400 . S
C177 N180 1.351 . S
C177 C182 1.501 . S
C178 C179 1.387 . S
C178 N181 1.341 . S
C179 C177 1.400 . S
C179 C178 1.387 . S
N180 Co171 2.022 . S
N180 C177 1.351 . S
N180 N181 1.365 . S
N181 C178 1.341 . S
N181 N180 1.365 . S
N181 H201 0.862 . S
C182 C177 1.501 . S
C182 H183 0.961 . S
C182 H184 0.961 . S
C182 H185 0.960 . S
H183 C182 0.961 . S
H184 C182 0.961 . S
H185 C182 0.960 . S
C186 N187 1.342 . S
C186 C190 1.401 . S
C186 C191 1.499 . S
N187 Co170 1.989 . S
N187 C186 1.342 . S
N187 N188 1.388 . S
N188 Co171 1.993 . S
N188 N187 1.388 . S
N188 C189 1.346 . S
C189 N188 1.346 . S
C189 C190 1.396 . S
C189 C199 1.510 . S
C190 C186 1.401 . S
C190 C189 1.396 . S
C191 C186 1.499 . S
C191 H192 0.959 . S
C191 H193 0.960 . S
C191 H194 0.961 . S
H192 C191 0.959 . S
H193 C191 0.960 . S
H194 C191 0.961 . S
O195 Co170 1.967 . S
O195 C203 1.258 . S
O196 Co171 1.941 . S
O196 C203 1.266 . S
H197 C199 0.959 . S
H198 C199 0.961 . S
C199 C189 1.510 . S
C199 H197 0.959 . S
C199 H198 0.961 . S
C199 H200 0.960 . S
H200 C199 0.960 . S
H201 N181 0.862 . S
O202 Co170 1.920 . S
O202 C175 1.289 . S
C203 O195 1.258 . S
C203 O196 1.266 . S
Co204 O207 1.970 . S
Co204 N221 1.989 . S
Co204 O229 1.967 . S
Co204 O236 1.920 . S
Co205 O208 1.966 . S
Co205 N214 2.022 . S
Co205 N222 1.993 . S
Co205 O230 1.941 . S
C206 O207 1.258 . S
C206 O208 1.263 . S
O207 Co204 1.970 . S
O207 C206 1.258 . S
O208 Co205 1.966 . S
O208 C206 1.263 . S
C209 O210 1.235 . S
C209 O236 1.289 . S
O210 C209 1.235 . S
C211 C213 1.400 . S
C211 N214 1.351 . S
C211 C216 1.501 . S
C212 C213 1.387 . S
C212 N215 1.341 . S
C213 C211 1.400 . S
C213 C212 1.387 . S
N214 Co205 2.022 . S
N214 C211 1.351 . S
N214 N215 1.365 . S
N215 C212 1.341 . S
N215 N214 1.365 . S
N215 H235 0.862 . S
C216 C211 1.501 . S
C216 H217 0.961 . S
C216 H218 0.961 . S
C216 H219 0.960 . S
H217 C216 0.961 . S
H218 C216 0.961 . S
H219 C216 0.960 . S
C220 N221 1.342 . S
C220 C224 1.401 . S
C220 C225 1.499 . S
N221 Co204 1.989 . S
N221 C220 1.342 . S
N221 N222 1.388 . S
N222 Co205 1.993 . S
N222 N221 1.388 . S
N222 C223 1.346 . S
C223 N222 1.346 . S
C223 C224 1.396 . S
C223 C233 1.510 . S
C224 C220 1.401 . S
C224 C223 1.396 . S
C225 C220 1.499 . S
C225 H226 0.959 . S
C225 H227 0.960 . S
C225 H228 0.961 . S
H226 C225 0.959 . S
H227 C225 0.960 . S
H228 C225 0.961 . S
O229 Co204 1.967 . S
O229 C237 1.258 . S
O230 Co205 1.941 . S
O230 C237 1.266 . S
H231 C233 0.959 . S
H232 C233 0.961 . S
C233 C223 1.510 . S
C233 H231 0.959 . S
C233 H232 0.961 . S
C233 H234 0.960 . S
H234 C233 0.960 . S
H235 N215 0.862 . S
O236 Co204 1.920 . S
O236 C209 1.289 . S
C237 O229 1.258 . S
C237 O230 1.266 . S
Co238 O241 1.970 . S
Co238 N255 1.989 . S
Co238 O263 1.967 . S
Co238 O270 1.920 . S
Co239 O242 1.966 . S
Co239 N248 2.022 . S
Co239 N256 1.993 . S
Co239 O264 1.941 . S
C240 O241 1.258 . S
C240 O242 1.263 . S
O241 Co238 1.970 . S
O241 C240 1.258 . S
O242 Co239 1.966 . S
O242 C240 1.263 . S
C243 O244 1.235 . S
C243 O270 1.289 . S
O244 C243 1.235 . S
C245 C247 1.400 . S
C245 N248 1.351 . S
C245 C250 1.501 . S
C246 C247 1.387 . S
C246 N249 1.341 . S
C247 C245 1.400 . S
C247 C246 1.387 . S
N248 Co239 2.022 . S
N248 C245 1.351 . S
N248 N249 1.365 . S
N249 C246 1.341 . S
N249 N248 1.365 . S
N249 H269 0.862 . S
C250 C245 1.501 . S
C250 H251 0.961 . S
C250 H252 0.961 . S
C250 H253 0.960 . S
H251 C250 0.961 . S
H252 C250 0.961 . S
H253 C250 0.960 . S
C254 N255 1.342 . S
C254 C258 1.401 . S
C254 C259 1.499 . S
N255 Co238 1.989 . S
N255 C254 1.342 . S
N255 N256 1.388 . S
N256 Co239 1.993 . S
N256 N255 1.388 . S
N256 C257 1.346 . S
C257 N256 1.346 . S
C257 C258 1.396 . S
C257 C267 1.510 . S
C258 C254 1.401 . S
C258 C257 1.396 . S
C259 C254 1.499 . S
C259 H260 0.959 . S
C259 H261 0.960 . S
C259 H262 0.961 . S
H260 C259 0.959 . S
H261 C259 0.960 . S
H262 C259 0.961 . S
O263 Co238 1.967 . S
O263 C271 1.258 . S
O264 Co239 1.941 . S
O264 C271 1.266 . S
H265 C267 0.959 . S
H266 C267 0.961 . S
C267 C257 1.510 . S
C267 H265 0.959 . S
C267 H266 0.961 . S
C267 H268 0.960 . S
H268 C267 0.960 . S
H269 N249 0.862 . S
O270 Co238 1.920 . S
O270 C243 1.289 . S
C271 O263 1.258 . S
C271 O264 1.266 . S
Co272 O275 1.970 . S
Co272 N289 1.989 . S
Co272 O297 1.967 . S
Co272 O304 1.920 . S
Co273 O276 1.966 . S
Co273 N282 2.022 . S
Co273 N290 1.993 . S
Co273 O298 1.941 . S
C274 O275 1.258 . S
C274 O276 1.263 . S
O275 Co272 1.970 . S
O275 C274 1.258 . S
O276 Co273 1.966 . S
O276 C274 1.263 . S
C277 O278 1.235 . S
C277 O304 1.289 . S
O278 C277 1.235 . S
C279 C281 1.400 . S
C279 N282 1.351 . S
C279 C284 1.501 . S
C280 C281 1.387 . S
C280 N283 1.341 . S
C281 C279 1.400 . S
C281 C280 1.387 . S
N282 Co273 2.022 . S
N282 C279 1.351 . S
N282 N283 1.365 . S
N283 C280 1.341 . S
N283 N282 1.365 . S
N283 H303 0.862 . S
C284 C279 1.501 . S
C284 H285 0.961 . S
C284 H286 0.961 . S
C284 H287 0.960 . S
H285 C284 0.961 . S
H286 C284 0.961 . S
H287 C284 0.960 . S
C288 N289 1.342 . S
C288 C292 1.401 . S
C288 C293 1.499 . S
N289 Co272 1.989 . S
N289 C288 1.342 . S
N289 N290 1.388 . S
N290 Co273 1.993 . S
N290 N289 1.388 . S
N290 C291 1.346 . S
C291 N290 1.346 . S
C291 C292 1.396 . S
C291 C301 1.510 . S
C292 C288 1.401 . S
C292 C291 1.396 . S
C293 C288 1.499 . S
C293 H294 0.959 . S
C293 H295 0.960 . S
C293 H296 0.961 . S
H294 C293 0.959 . S
H295 C293 0.960 . S
H296 C293 0.961 . S
O297 Co272 1.967 . S
O297 C305 1.258 . S
O298 Co273 1.941 . S
O298 C305 1.266 . S
H299 C301 0.959 . S
H300 C301 0.961 . S
C301 C291 1.510 . S
C301 H299 0.959 . S
C301 H300 0.961 . S
C301 H302 0.960 . S
H302 C301 0.960 . S
H303 N283 0.862 . S
O304 Co272 1.920 . S
O304 C277 1.289 . S
C305 O297 1.258 . S
C305 O298 1.266 . S
Co306 O309 1.970 . S
Co306 N323 1.989 . S
Co306 O331 1.967 . S
Co306 O338 1.920 . S
Co307 O310 1.966 . S
Co307 N316 2.022 . S
Co307 N324 1.993 . S
Co307 O332 1.941 . S
C308 O309 1.258 . S
C308 O310 1.263 . S
O309 Co306 1.970 . S
O309 C308 1.258 . S
O310 Co307 1.966 . S
O310 C308 1.263 . S
C311 O312 1.235 . S
C311 O338 1.289 . S
O312 C311 1.235 . S
C313 C315 1.400 . S
C313 N316 1.351 . S
C313 C318 1.501 . S
C314 C315 1.387 . S
C314 N317 1.341 . S
C315 C313 1.400 . S
C315 C314 1.387 . S
N316 Co307 2.022 . S
N316 C313 1.351 . S
N316 N317 1.365 . S
N317 C314 1.341 . S
N317 N316 1.365 . S
N317 H337 0.862 . S
C318 C313 1.501 . S
C318 H319 0.961 . S
C318 H320 0.961 . S
C318 H321 0.960 . S
H319 C318 0.961 . S
H320 C318 0.961 . S
H321 C318 0.960 . S
C322 N323 1.342 . S
C322 C326 1.401 . S
C322 C327 1.499 . S
N323 Co306 1.989 . S
N323 C322 1.342 . S
N323 N324 1.388 . S
N324 Co307 1.993 . S
N324 N323 1.388 . S
N324 C325 1.346 . S
C325 N324 1.346 . S
C325 C326 1.396 . S
C325 C335 1.510 . S
C326 C322 1.401 . S
C326 C325 1.396 . S
C327 C322 1.499 . S
C327 H328 0.959 . S
C327 H329 0.960 . S
C327 H330 0.961 . S
H328 C327 0.959 . S
H329 C327 0.960 . S
H330 C327 0.961 . S
O331 Co306 1.967 . S
O331 C339 1.258 . S
O332 Co307 1.941 . S
O332 C339 1.266 . S
H333 C335 0.959 . S
H334 C335 0.961 . S
C335 C325 1.510 . S
C335 H333 0.959 . S
C335 H334 0.961 . S
C335 H336 0.960 . S
H336 C335 0.960 . S
H337 N317 0.862 . S
O338 Co306 1.920 . S
O338 C311 1.289 . S
C339 O331 1.258 . S
C339 O332 1.266 . S
Co340 O343 1.970 . S
Co340 N357 1.989 . S
Co340 O365 1.967 . S
Co340 O372 1.920 . S
Co341 O344 1.966 . S
Co341 N350 2.022 . S
Co341 N358 1.993 . S
Co341 O366 1.941 . S
C342 O343 1.258 . S
C342 O344 1.263 . S
O343 Co340 1.970 . S
O343 C342 1.258 . S
O344 Co341 1.966 . S
O344 C342 1.263 . S
C345 O346 1.235 . S
C345 O372 1.289 . S
O346 C345 1.235 . S
C347 C349 1.400 . S
C347 N350 1.351 . S
C347 C352 1.501 . S
C348 C349 1.387 . S
C348 N351 1.341 . S
C349 C347 1.400 . S
C349 C348 1.387 . S
N350 Co341 2.022 . S
N350 C347 1.351 . S
N350 N351 1.365 . S
N351 C348 1.341 . S
N351 N350 1.365 . S
N351 H371 0.862 . S
C352 C347 1.501 . S
C352 H353 0.961 . S
C352 H354 0.961 . S
C352 H355 0.960 . S
H353 C352 0.961 . S
H354 C352 0.961 . S
H355 C352 0.960 . S
C356 N357 1.342 . S
C356 C360 1.401 . S
C356 C361 1.499 . S
N357 Co340 1.989 . S
N357 C356 1.342 . S
N357 N358 1.388 . S
N358 Co341 1.993 . S
N358 N357 1.388 . S
N358 C359 1.346 . S
C359 N358 1.346 . S
C359 C360 1.396 . S
C359 C369 1.510 . S
C360 C356 1.401 . S
C360 C359 1.396 . S
C361 C356 1.499 . S
C361 H362 0.959 . S
C361 H363 0.960 . S
C361 H364 0.961 . S
H362 C361 0.959 . S
H363 C361 0.960 . S
H364 C361 0.961 . S
O365 Co340 1.967 . S
O365 C373 1.258 . S
O366 Co341 1.941 . S
O366 C373 1.266 . S
H367 C369 0.959 . S
H368 C369 0.961 . S
C369 C359 1.510 . S
C369 H367 0.959 . S
C369 H368 0.961 . S
C369 H370 0.960 . S
H370 C369 0.960 . S
H371 N351 0.862 . S
O372 Co340 1.920 . S
O372 C345 1.289 . S
C373 O365 1.258 . S
C373 O366 1.266 . S
Co374 O377 1.970 . S
Co374 N391 1.989 . S
Co374 O399 1.967 . S
Co374 O406 1.920 . S
Co375 O378 1.966 . S
Co375 N384 2.022 . S
Co375 N392 1.993 . S
Co375 O400 1.941 . S
C376 O377 1.258 . S
C376 O378 1.263 . S
O377 Co374 1.970 . S
O377 C376 1.258 . S
O378 Co375 1.966 . S
O378 C376 1.263 . S
C379 O380 1.235 . S
C379 O406 1.289 . S
O380 C379 1.235 . S
C381 C383 1.400 . S
C381 N384 1.351 . S
C381 C386 1.501 . S
C382 C383 1.387 . S
C382 N385 1.341 . S
C383 C381 1.400 . S
C383 C382 1.387 . S
N384 Co375 2.022 . S
N384 C381 1.351 . S
N384 N385 1.365 . S
N385 C382 1.341 . S
N385 N384 1.365 . S
N385 H405 0.862 . S
C386 C381 1.501 . S
C386 H387 0.961 . S
C386 H388 0.961 . S
C386 H389 0.960 . S
H387 C386 0.961 . S
H388 C386 0.961 . S
H389 C386 0.960 . S
C390 N391 1.342 . S
C390 C394 1.401 . S
C390 C395 1.499 . S
N391 Co374 1.989 . S
N391 C390 1.342 . S
N391 N392 1.388 . S
N392 Co375 1.993 . S
N392 N391 1.388 . S
N392 C393 1.346 . S
C393 N392 1.346 . S
C393 C394 1.396 . S
C393 C403 1.510 . S
C394 C390 1.401 . S
C394 C393 1.396 . S
C395 C390 1.499 . S
C395 H396 0.959 . S
C395 H397 0.960 . S
C395 H398 0.961 . S
H396 C395 0.959 . S
H397 C395 0.960 . S
H398 C395 0.961 . S
O399 Co374 1.967 . S
O399 C407 1.258 . S
O400 Co375 1.941 . S
O400 C407 1.266 . S
H401 C403 0.959 . S
H402 C403 0.961 . S
C403 C393 1.510 . S
C403 H401 0.959 . S
C403 H402 0.961 . S
C403 H404 0.960 . S
H404 C403 0.960 . S
H405 N385 0.862 . S
O406 Co374 1.920 . S
O406 C379 1.289 . S
C407 O399 1.258 . S
C407 O400 1.266 . S
H408 C420 0.930 . S
H409 C422 0.930 . S
H410 C423 0.930 . S
H411 C427 0.959 . S
H412 C427 0.959 . S
H413 C427 0.961 . S
H414 C428 0.960 . S
H415 C428 0.961 . S
H416 C428 0.959 . S
H417 C431 0.929 . S
H418 C432 0.931 . S
H419 C434 0.930 . S
C420 H408 0.930 . S
C420 C421 1.399 . S
C420 C425 1.399 . S
C421 C420 1.399 . S
C421 C422 1.376 . S
C422 H409 0.930 . S
C422 C421 1.376 . S
C422 C423 1.388 . S
C423 H410 0.930 . S
C423 C422 1.388 . S
C423 C424 1.390 . S
C424 C423 1.390 . S
C424 C425 1.394 . S
C424 C430 1.465 . S
C425 C420 1.399 . S
C425 C424 1.394 . S
C425 C426 1.516 . S
C426 C425 1.516 . S
C426 C427 1.502 . S
C426 C428 1.561 . S
C426 C429 1.526 . S
C427 H411 0.959 . S
C427 H412 0.959 . S
C427 H413 0.961 . S
C427 C426 1.502 . S
C428 H414 0.960 . S
C428 H415 0.961 . S
C428 H416 0.959 . S
C428 C426 1.561 . S
C429 C426 1.526 . S
C429 C430 1.396 . S
C429 C434 1.390 . S
C430 C424 1.465 . S
C430 C429 1.396 . S
C430 C431 1.399 . S
C431 H417 0.929 . S
C431 C430 1.399 . S
C431 C432 1.385 . S
C432 H418 0.931 . S
C432 C431 1.385 . S
C432 C433 1.389 . S
C433 C432 1.389 . S
C433 C434 1.387 . S
C434 H419 0.930 . S
C434 C429 1.390 . S
C434 C433 1.387 . S
H435 C447 0.930 . S
H436 C449 0.930 . S
H437 C450 0.930 . S
H438 C454 0.959 . S
H439 C454 0.959 . S
H440 C454 0.961 . S
H441 C455 0.960 . S
H442 C455 0.961 . S
H443 C455 0.959 . S
H444 C458 0.929 . S
H445 C459 0.931 . S
H446 C461 0.930 . S
C447 H435 0.930 . S
C447 C448 1.399 . S
C447 C452 1.399 . S
C448 C447 1.399 . S
C448 C449 1.376 . S
C449 H436 0.930 . S
C449 C448 1.376 . S
C449 C450 1.388 . S
C450 H437 0.930 . S
C450 C449 1.388 . S
C450 C451 1.390 . S
C451 C450 1.390 . S
C451 C452 1.394 . S
C451 C457 1.465 . S
C452 C447 1.399 . S
C452 C451 1.394 . S
C452 C453 1.516 . S
C453 C452 1.516 . S
C453 C454 1.502 . S
C453 C455 1.561 . S
C453 C456 1.526 . S
C454 H438 0.959 . S
C454 H439 0.959 . S
C454 H440 0.961 . S
C454 C453 1.502 . S
C455 H441 0.960 . S
C455 H442 0.961 . S
C455 H443 0.959 . S
C455 C453 1.561 . S
C456 C453 1.526 . S
C456 C457 1.396 . S
C456 C461 1.390 . S
C457 C451 1.465 . S
C457 C456 1.396 . S
C457 C458 1.399 . S
C458 H444 0.929 . S
C458 C457 1.399 . S
C458 C459 1.385 . S
C459 H445 0.931 . S
C459 C458 1.385 . S
C459 C460 1.389 . S
C460 C459 1.389 . S
C460 C461 1.387 . S
C461 H446 0.930 . S
C461 C456 1.390 . S
C461 C460 1.387 . S
H462 C474 0.930 . S
H463 C476 0.930 . S
H464 C477 0.930 . S
H465 C481 0.959 . S
H466 C481 0.959 . S
H467 C481 0.961 . S
H468 C482 0.960 . S
H469 C482 0.961 . S
H470 C482 0.959 . S
H471 C485 0.929 . S
H472 C486 0.931 . S
H473 C488 0.930 . S
C474 H462 0.930 . S
C474 C475 1.399 . S
C474 C479 1.399 . S
C475 C474 1.399 . S
C475 C476 1.376 . S
C476 H463 0.930 . S
C476 C475 1.376 . S
C476 C477 1.388 . S
C477 H464 0.930 . S
C477 C476 1.388 . S
C477 C478 1.390 . S
C478 C477 1.390 . S
C478 C479 1.394 . S
C478 C484 1.465 . S
C479 C474 1.399 . S
C479 C478 1.394 . S
C479 C480 1.516 . S
C480 C479 1.516 . S
C480 C481 1.502 . S
C480 C482 1.561 . S
C480 C483 1.526 . S
C481 H465 0.959 . S
C481 H466 0.959 . S
C481 H467 0.961 . S
C481 C480 1.502 . S
C482 H468 0.960 . S
C482 H469 0.961 . S
C482 H470 0.959 . S
C482 C480 1.561 . S
C483 C480 1.526 . S
C483 C484 1.396 . S
C483 C488 1.390 . S
C484 C478 1.465 . S
C484 C483 1.396 . S
C484 C485 1.399 . S
C485 H471 0.929 . S
C485 C484 1.399 . S
C485 C486 1.385 . S
C486 H472 0.931 . S
C486 C485 1.385 . S
C486 C487 1.389 . S
C487 C486 1.389 . S
C487 C488 1.387 . S
C488 H473 0.930 . S
C488 C483 1.390 . S
C488 C487 1.387 . S
H489 C501 0.930 . S
H490 C503 0.930 . S
H491 C504 0.930 . S
H492 C508 0.959 . S
H493 C508 0.959 . S
H494 C508 0.961 . S
H495 C509 0.960 . S
H496 C509 0.961 . S
H497 C509 0.959 . S
H498 C512 0.929 . S
H499 C513 0.931 . S
H500 C515 0.930 . S
C501 H489 0.930 . S
C501 C502 1.399 . S
C501 C506 1.399 . S
C502 C501 1.399 . S
C502 C503 1.376 . S
C503 H490 0.930 . S
C503 C502 1.376 . S
C503 C504 1.388 . S
C504 H491 0.930 . S
C504 C503 1.388 . S
C504 C505 1.390 . S
C505 C504 1.390 . S
C505 C506 1.394 . S
C505 C511 1.465 . S
C506 C501 1.399 . S
C506 C505 1.394 . S
C506 C507 1.516 . S
C507 C506 1.516 . S
C507 C508 1.502 . S
C507 C509 1.561 . S
C507 C510 1.526 . S
C508 H492 0.959 . S
C508 H493 0.959 . S
C508 H494 0.961 . S
C508 C507 1.502 . S
C509 H495 0.960 . S
C509 H496 0.961 . S
C509 H497 0.959 . S
C509 C507 1.561 . S
C510 C507 1.526 . S
C510 C511 1.396 . S
C510 C515 1.390 . S
C511 C505 1.465 . S
C511 C510 1.396 . S
C511 C512 1.399 . S
C512 H498 0.929 . S
C512 C511 1.399 . S
C512 C513 1.385 . S
C513 H499 0.931 . S
C513 C512 1.385 . S
C513 C514 1.389 . S
C514 C513 1.389 . S
C514 C515 1.387 . S
C515 H500 0.930 . S
C515 C510 1.390 . S
C515 C514 1.387 . S
H516 C528 0.930 . S
H517 C530 0.930 . S
H518 C531 0.930 . S
H519 C535 0.959 . S
H520 C535 0.959 . S
H521 C535 0.961 . S
H522 C536 0.960 . S
H523 C536 0.961 . S
H524 C536 0.959 . S
H525 C539 0.929 . S
H526 C540 0.931 . S
H527 C542 0.930 . S
C528 H516 0.930 . S
C528 C529 1.399 . S
C528 C533 1.399 . S
C529 C528 1.399 . S
C529 C530 1.376 . S
C530 H517 0.930 . S
C530 C529 1.376 . S
C530 C531 1.388 . S
C531 H518 0.930 . S
C531 C530 1.388 . S
C531 C532 1.390 . S
C532 C531 1.390 . S
C532 C533 1.394 . S
C532 C538 1.465 . S
C533 C528 1.399 . S
C533 C532 1.394 . S
C533 C534 1.516 . S
C534 C533 1.516 . S
C534 C535 1.502 . S
C534 C536 1.561 . S
C534 C537 1.526 . S
C535 H519 0.959 . S
C535 H520 0.959 . S
C535 H521 0.961 . S
C535 C534 1.502 . S
C536 H522 0.960 . S
C536 H523 0.961 . S
C536 H524 0.959 . S
C536 C534 1.561 . S
C537 C534 1.526 . S
C537 C538 1.396 . S
C537 C542 1.390 . S
C538 C532 1.465 . S
C538 C537 1.396 . S
C538 C539 1.399 . S
C539 H525 0.929 . S
C539 C538 1.399 . S
C539 C540 1.385 . S
C540 H526 0.931 . S
C540 C539 1.385 . S
C540 C541 1.389 . S
C541 C540 1.389 . S
C541 C542 1.387 . S
C542 H527 0.930 . S
C542 C537 1.390 . S
C542 C541 1.387 . S
H543 C555 0.930 . S
H544 C557 0.930 . S
H545 C558 0.930 . S
H546 C562 0.959 . S
H547 C562 0.959 . S
H548 C562 0.961 . S
H549 C563 0.960 . S
H550 C563 0.961 . S
H551 C563 0.959 . S
H552 C566 0.929 . S
H553 C567 0.931 . S
H554 C569 0.930 . S
C555 H543 0.930 . S
C555 C556 1.399 . S
C555 C560 1.399 . S
C556 C555 1.399 . S
C556 C557 1.376 . S
C557 H544 0.930 . S
C557 C556 1.376 . S
C557 C558 1.388 . S
C558 H545 0.930 . S
C558 C557 1.388 . S
C558 C559 1.390 . S
C559 C558 1.390 . S
C559 C560 1.394 . S
C559 C565 1.465 . S
C560 C555 1.399 . S
C560 C559 1.394 . S
C560 C561 1.516 . S
C561 C560 1.516 . S
C561 C562 1.502 . S
C561 C563 1.561 . S
C561 C564 1.526 . S
C562 H546 0.959 . S
C562 H547 0.959 . S
C562 H548 0.961 . S
C562 C561 1.502 . S
C563 H549 0.960 . S
C563 H550 0.961 . S
C563 H551 0.959 . S
C563 C561 1.561 . S
C564 C561 1.526 . S
C564 C565 1.396 . S
C564 C569 1.390 . S
C565 C559 1.465 . S
C565 C564 1.396 . S
C565 C566 1.399 . S
C566 H552 0.929 . S
C566 C565 1.399 . S
C566 C567 1.385 . S
C567 H553 0.931 . S
C567 C566 1.385 . S
C567 C568 1.389 . S
C568 C567 1.389 . S
C568 C569 1.387 . S
C569 H554 0.930 . S
C569 C564 1.390 . S
C569 C568 1.387 . S
H570 C582 0.930 . S
H571 C584 0.930 . S
H572 C585 0.930 . S
H573 C589 0.959 . S
H574 C589 0.959 . S
H575 C589 0.961 . S
H576 C590 0.960 . S
H577 C590 0.961 . S
H578 C590 0.959 . S
H579 C593 0.929 . S
H580 C594 0.931 . S
H581 C596 0.930 . S
C582 H570 0.930 . S
C582 C583 1.399 . S
C582 C587 1.399 . S
C583 C582 1.399 . S
C583 C584 1.376 . S
C584 H571 0.930 . S
C584 C583 1.376 . S
C584 C585 1.388 . S
C585 H572 0.930 . S
C585 C584 1.388 . S
C585 C586 1.390 . S
C586 C585 1.390 . S
C586 C587 1.394 . S
C586 C592 1.465 . S
C587 C582 1.399 . S
C587 C586 1.394 . S
C587 C588 1.516 . S
C588 C587 1.516 . S
C588 C589 1.502 . S
C588 C590 1.561 . S
C588 C591 1.526 . S
C589 H573 0.959 . S
C589 H574 0.959 . S
C589 H575 0.961 . S
C589 C588 1.502 . S
C590 H576 0.960 . S
C590 H577 0.961 . S
C590 H578 0.959 . S
C590 C588 1.561 . S
C591 C588 1.526 . S
C591 C592 1.396 . S
C591 C596 1.390 . S
C592 C586 1.465 . S
C592 C591 1.396 . S
C592 C593 1.399 . S
C593 H579 0.929 . S
C593 C592 1.399 . S
C593 C594 1.385 . S
C594 H580 0.931 . S
C594 C593 1.385 . S
C594 C595 1.389 . S
C595 C594 1.389 . S
C595 C596 1.387 . S
C596 H581 0.930 . S
C596 C591 1.390 . S
C596 C595 1.387 . S
H597 C609 0.930 . S
H598 C611 0.930 . S
H599 C612 0.930 . S
H600 C616 0.959 . S
H601 C616 0.959 . S
H602 C616 0.961 . S
H603 C617 0.960 . S
H604 C617 0.961 . S
H605 C617 0.959 . S
H606 C620 0.929 . S
H607 C621 0.931 . S
H608 C623 0.930 . S
C609 H597 0.930 . S
C609 C610 1.399 . S
C609 C614 1.399 . S
C610 C609 1.399 . S
C610 C611 1.376 . S
C611 H598 0.930 . S
C611 C610 1.376 . S
C611 C612 1.388 . S
C612 H599 0.930 . S
C612 C611 1.388 . S
C612 C613 1.390 . S
C613 C612 1.390 . S
C613 C614 1.394 . S
C613 C619 1.465 . S
C614 C609 1.399 . S
C614 C613 1.394 . S
C614 C615 1.516 . S
C615 C614 1.516 . S
C615 C616 1.502 . S
C615 C617 1.561 . S
C615 C618 1.526 . S
C616 H600 0.959 . S
C616 H601 0.959 . S
C616 H602 0.961 . S
C616 C615 1.502 . S
C617 H603 0.960 . S
C617 H604 0.961 . S
C617 H605 0.959 . S
C617 C615 1.561 . S
C618 C615 1.526 . S
C618 C619 1.396 . S
C618 C623 1.390 . S
C619 C613 1.465 . S
C619 C618 1.396 . S
C619 C620 1.399 . S
C620 H606 0.929 . S
C620 C619 1.399 . S
C620 C621 1.385 . S
C621 H607 0.931 . S
C621 C620 1.385 . S
C621 C622 1.389 . S
C622 C621 1.389 . S
C622 C623 1.387 . S
C623 H608 0.930 . S
C623 C618 1.390 . S
C623 C622 1.387 . S
H624 C636 0.930 . S
H625 C638 0.930 . S
H626 C639 0.930 . S
H627 C643 0.959 . S
H628 C643 0.959 . S
H629 C643 0.961 . S
H630 C644 0.960 . S
H631 C644 0.961 . S
H632 C644 0.959 . S
H633 C647 0.929 . S
H634 C648 0.931 . S
H635 C650 0.930 . S
C636 H624 0.930 . S
C636 C637 1.399 . S
C636 C641 1.399 . S
C637 C636 1.399 . S
C637 C638 1.376 . S
C638 H625 0.930 . S
C638 C637 1.376 . S
C638 C639 1.388 . S
C639 H626 0.930 . S
C639 C638 1.388 . S
C639 C640 1.390 . S
C640 C639 1.390 . S
C640 C641 1.394 . S
C640 C646 1.465 . S
C641 C636 1.399 . S
C641 C640 1.394 . S
C641 C642 1.516 . S
C642 C641 1.516 . S
C642 C643 1.502 . S
C642 C644 1.561 . S
C642 C645 1.526 . S
C643 H627 0.959 . S
C643 H628 0.959 . S
C643 H629 0.961 . S
C643 C642 1.502 . S
C644 H630 0.960 . S
C644 H631 0.961 . S
C644 H632 0.959 . S
C644 C642 1.561 . S
C645 C642 1.526 . S
C645 C646 1.396 . S
C645 C650 1.390 . S
C646 C640 1.465 . S
C646 C645 1.396 . S
C646 C647 1.399 . S
C647 H633 0.929 . S
C647 C646 1.399 . S
C647 C648 1.385 . S
C648 H634 0.931 . S
C648 C647 1.385 . S
C648 C649 1.389 . S
C649 C648 1.389 . S
C649 C650 1.387 . S
C650 H635 0.930 . S
C650 C645 1.390 . S
C650 C649 1.387 . S
H651 C663 0.930 . S
H652 C665 0.930 . S
H653 C666 0.930 . S
H654 C670 0.959 . S
H655 C670 0.959 . S
H656 C670 0.961 . S
H657 C671 0.960 . S
H658 C671 0.961 . S
H659 C671 0.959 . S
H660 C674 0.929 . S
H661 C675 0.931 . S
H662 C677 0.930 . S
C663 H651 0.930 . S
C663 C664 1.399 . S
C663 C668 1.399 . S
C664 C663 1.399 . S
C664 C665 1.376 . S
C665 H652 0.930 . S
C665 C664 1.376 . S
C665 C666 1.388 . S
C666 H653 0.930 . S
C666 C665 1.388 . S
C666 C667 1.390 . S
C667 C666 1.390 . S
C667 C668 1.394 . S
C667 C673 1.465 . S
C668 C663 1.399 . S
C668 C667 1.394 . S
C668 C669 1.516 . S
C669 C668 1.516 . S
C669 C670 1.502 . S
C669 C671 1.561 . S
C669 C672 1.526 . S
C670 H654 0.959 . S
C670 H655 0.959 . S
C670 H656 0.961 . S
C670 C669 1.502 . S
C671 H657 0.960 . S
C671 H658 0.961 . S
C671 H659 0.959 . S
C671 C669 1.561 . S
C672 C669 1.526 . S
C672 C673 1.396 . S
C672 C677 1.390 . S
C673 C667 1.465 . S
C673 C672 1.396 . S
C673 C674 1.399 . S
C674 H660 0.929 . S
C674 C673 1.399 . S
C674 C675 1.385 . S
C675 H661 0.931 . S
C675 C674 1.385 . S
C675 C676 1.389 . S
C676 C675 1.389 . S
C676 C677 1.387 . S
C677 H662 0.930 . S
C677 C672 1.390 . S
C677 C676 1.387 . S
H678 C690 0.930 . S
H679 C692 0.930 . S
H680 C693 0.930 . S
H681 C697 0.959 . S
H682 C697 0.959 . S
H683 C697 0.961 . S
H684 C698 0.960 . S
H685 C698 0.961 . S
H686 C698 0.959 . S
H687 C701 0.929 . S
H688 C702 0.931 . S
H689 C704 0.930 . S
C690 H678 0.930 . S
C690 C691 1.399 . S
C690 C695 1.399 . S
C691 C690 1.399 . S
C691 C692 1.376 . S
C692 H679 0.930 . S
C692 C691 1.376 . S
C692 C693 1.388 . S
C693 H680 0.930 . S
C693 C692 1.388 . S
C693 C694 1.390 . S
C694 C693 1.390 . S
C694 C695 1.394 . S
C694 C700 1.465 . S
C695 C690 1.399 . S
C695 C694 1.394 . S
C695 C696 1.516 . S
C696 C695 1.516 . S
C696 C697 1.502 . S
C696 C698 1.561 . S
C696 C699 1.526 . S
C697 H681 0.959 . S
C697 H682 0.959 . S
C697 H683 0.961 . S
C697 C696 1.502 . S
C698 H684 0.960 . S
C698 H685 0.961 . S
C698 H686 0.959 . S
C698 C696 1.561 . S
C699 C696 1.526 . S
C699 C700 1.396 . S
C699 C704 1.390 . S
C700 C694 1.465 . S
C700 C699 1.396 . S
C700 C701 1.399 . S
C701 H687 0.929 . S
C701 C700 1.399 . S
C701 C702 1.385 . S
C702 H688 0.931 . S
C702 C701 1.385 . S
C702 C703 1.389 . S
C703 C702 1.389 . S
C703 C704 1.387 . S
C704 H689 0.930 . S
C704 C699 1.390 . S
C704 C703 1.387 . S
H705 C717 0.930 . S
H706 C719 0.930 . S
H707 C720 0.930 . S
H708 C724 0.959 . S
H709 C724 0.959 . S
H710 C724 0.961 . S
H711 C725 0.960 . S
H712 C725 0.961 . S
H713 C725 0.959 . S
H714 C728 0.929 . S
H715 C729 0.931 . S
H716 C731 0.930 . S
C717 H705 0.930 . S
C717 C718 1.399 . S
C717 C722 1.399 . S
C718 C717 1.399 . S
C718 C719 1.376 . S
C719 H706 0.930 . S
C719 C718 1.376 . S
C719 C720 1.388 . S
C720 H707 0.930 . S
C720 C719 1.388 . S
C720 C721 1.390 . S
C721 C720 1.390 . S
C721 C722 1.394 . S
C721 C727 1.465 . S
C722 C717 1.399 . S
C722 C721 1.394 . S
C722 C723 1.516 . S
C723 C722 1.516 . S
C723 C724 1.502 . S
C723 C725 1.561 . S
C723 C726 1.526 . S
C724 H708 0.959 . S
C724 H709 0.959 . S
C724 H710 0.961 . S
C724 C723 1.502 . S
C725 H711 0.960 . S
C725 H712 0.961 . S
C725 H713 0.959 . S
C725 C723 1.561 . S
C726 C723 1.526 . S
C726 C727 1.396 . S
C726 C731 1.390 . S
C727 C721 1.465 . S
C727 C726 1.396 . S
C727 C728 1.399 . S
C728 H714 0.929 . S
C728 C727 1.399 . S
C728 C729 1.385 . S
C729 H715 0.931 . S
C729 C728 1.385 . S
C729 C730 1.389 . S
C730 C729 1.389 . S
C730 C731 1.387 . S
C731 H716 0.930 . S
C731 C726 1.390 . S
C731 C730 1.387 . S
H732 C744 0.930 . S
H733 C746 0.930 . S
H734 C747 0.930 . S
H735 C751 0.959 . S
H736 C751 0.959 . S
H737 C751 0.961 . S
H738 C752 0.960 . S
H739 C752 0.961 . S
H740 C752 0.959 . S
H741 C755 0.929 . S
H742 C756 0.931 . S
H743 C758 0.930 . S
C744 H732 0.930 . S
C744 C745 1.399 . S
C744 C749 1.399 . S
C745 C744 1.399 . S
C745 C746 1.376 . S
C746 H733 0.930 . S
C746 C745 1.376 . S
C746 C747 1.388 . S
C747 H734 0.930 . S
C747 C746 1.388 . S
C747 C748 1.390 . S
C748 C747 1.390 . S
C748 C749 1.394 . S
C748 C754 1.465 . S
C749 C744 1.399 . S
C749 C748 1.394 . S
C749 C750 1.516 . S
C750 C749 1.516 . S
C750 C751 1.502 . S
C750 C752 1.561 . S
C750 C753 1.526 . S
C751 H735 0.959 . S
C751 H736 0.959 . S
C751 H737 0.961 . S
C751 C750 1.502 . S
C752 H738 0.960 . S
C752 H739 0.961 . S
C752 H740 0.959 . S
C752 C750 1.561 . S
C753 C750 1.526 . S
C753 C754 1.396 . S
C753 C758 1.390 . S
C754 C748 1.465 . S
C754 C753 1.396 . S
C754 C755 1.399 . S
C755 H741 0.929 . S
C755 C754 1.399 . S
C755 C756 1.385 . S
C756 H742 0.931 . S
C756 C755 1.385 . S
C756 C757 1.389 . S
C757 C756 1.389 . S
C757 C758 1.387 . S
C758 H743 0.930 . S
C758 C753 1.390 . S
C758 C757 1.387 . S
H759 C771 0.930 . S
H760 C773 0.930 . S
H761 C774 0.930 . S
H762 C778 0.959 . S
H763 C778 0.959 . S
H764 C778 0.961 . S
H765 C779 0.960 . S
H766 C779 0.961 . S
H767 C779 0.959 . S
H768 C782 0.929 . S
H769 C783 0.931 . S
H770 C785 0.930 . S
C771 H759 0.930 . S
C771 C772 1.399 . S
C771 C776 1.399 . S
C772 C771 1.399 . S
C772 C773 1.376 . S
C773 H760 0.930 . S
C773 C772 1.376 . S
C773 C774 1.388 . S
C774 H761 0.930 . S
C774 C773 1.388 . S
C774 C775 1.390 . S
C775 C774 1.390 . S
C775 C776 1.394 . S
C775 C781 1.465 . S
C776 C771 1.399 . S
C776 C775 1.394 . S
C776 C777 1.516 . S
C777 C776 1.516 . S
C777 C778 1.502 . S
C777 C779 1.561 . S
C777 C780 1.526 . S
C778 H762 0.959 . S
C778 H763 0.959 . S
C778 H764 0.961 . S
C778 C777 1.502 . S
C779 H765 0.960 . S
C779 H766 0.961 . S
C779 H767 0.959 . S
C779 C777 1.561 . S
C780 C777 1.526 . S
C780 C781 1.396 . S
C780 C785 1.390 . S
C781 C775 1.465 . S
C781 C780 1.396 . S
C781 C782 1.399 . S
C782 H768 0.929 . S
C782 C781 1.399 . S
C782 C783 1.385 . S
C783 H769 0.931 . S
C783 C782 1.385 . S
C783 C784 1.389 . S
C784 C783 1.389 . S
C784 C785 1.387 . S
C785 H770 0.930 . S
C785 C780 1.390 . S
C785 C784 1.387 . S
H786 C798 0.930 . S
H787 C800 0.930 . S
H788 C801 0.930 . S
H789 C805 0.959 . S
H790 C805 0.959 . S
H791 C805 0.961 . S
H792 C806 0.960 . S
H793 C806 0.961 . S
H794 C806 0.959 . S
H795 C809 0.929 . S
H796 C810 0.931 . S
H797 C812 0.930 . S
C798 H786 0.930 . S
C798 C799 1.399 . S
C798 C803 1.399 . S
C799 C798 1.399 . S
C799 C800 1.376 . S
C800 H787 0.930 . S
C800 C799 1.376 . S
C800 C801 1.388 . S
C801 H788 0.930 . S
C801 C800 1.388 . S
C801 C802 1.390 . S
C802 C801 1.390 . S
C802 C803 1.394 . S
C802 C808 1.465 . S
C803 C798 1.399 . S
C803 C802 1.394 . S
C803 C804 1.516 . S
C804 C803 1.516 . S
C804 C805 1.502 . S
C804 C806 1.561 . S
C804 C807 1.526 . S
C805 H789 0.959 . S
C805 H790 0.959 . S
C805 H791 0.961 . S
C805 C804 1.502 . S
C806 H792 0.960 . S
C806 H793 0.961 . S
C806 H794 0.959 . S
C806 C804 1.561 . S
C807 C804 1.526 . S
C807 C808 1.396 . S
C807 C812 1.390 . S
C808 C802 1.465 . S
C808 C807 1.396 . S
C808 C809 1.399 . S
C809 H795 0.929 . S
C809 C808 1.399 . S
C809 C810 1.385 . S
C810 H796 0.931 . S
C810 C809 1.385 . S
C810 C811 1.389 . S
C811 C810 1.389 . S
C811 C812 1.387 . S
C812 H797 0.930 . S
C812 C807 1.390 . S
C812 C811 1.387 . S
H813 C825 0.930 . S
H814 C827 0.930 . S
H815 C828 0.930 . S
H816 C832 0.959 . S
H817 C832 0.959 . S
H818 C832 0.961 . S
H819 C833 0.960 . S
H820 C833 0.961 . S
H821 C833 0.959 . S
H822 C836 0.929 . S
H823 C837 0.931 . S
H824 C839 0.930 . S
C825 H813 0.930 . S
C825 C826 1.399 . S
C825 C830 1.399 . S
C826 C825 1.399 . S
C826 C827 1.376 . S
C827 H814 0.930 . S
C827 C826 1.376 . S
C827 C828 1.388 . S
C828 H815 0.930 . S
C828 C827 1.388 . S
C828 C829 1.390 . S
C829 C828 1.390 . S
C829 C830 1.394 . S
C829 C835 1.465 . S
C830 C825 1.399 . S
C830 C829 1.394 . S
C830 C831 1.516 . S
C831 C830 1.516 . S
C831 C832 1.502 . S
C831 C833 1.561 . S
C831 C834 1.526 . S
C832 H816 0.959 . S
C832 H817 0.959 . S
C832 H818 0.961 . S
C832 C831 1.502 . S
C833 H819 0.960 . S
C833 H820 0.961 . S
C833 H821 0.959 . S
C833 C831 1.561 . S
C834 C831 1.526 . S
C834 C835 1.396 . S
C834 C839 1.390 . S
C835 C829 1.465 . S
C835 C834 1.396 . S
C835 C836 1.399 . S
C836 H822 0.929 . S
C836 C835 1.399 . S
C836 C837 1.385 . S
C837 H823 0.931 . S
C837 C836 1.385 . S
C837 C838 1.389 . S
C838 C837 1.389 . S
C838 C839 1.387 . S
C839 H824 0.930 . S
C839 C834 1.390 . S
C839 C838 1.387 . S
H840 C852 0.930 . S
H841 C854 0.930 . S
H842 C855 0.930 . S
H843 C859 0.959 . S
H844 C859 0.959 . S
H845 C859 0.961 . S
H846 C860 0.960 . S
H847 C860 0.961 . S
H848 C860 0.959 . S
H849 C863 0.929 . S
H850 C864 0.931 . S
H851 C866 0.930 . S
C852 H840 0.930 . S
C852 C853 1.399 . S
C852 C857 1.399 . S
C853 C852 1.399 . S
C853 C854 1.376 . S
C854 H841 0.930 . S
C854 C853 1.376 . S
C854 C855 1.388 . S
C855 H842 0.930 . S
C855 C854 1.388 . S
C855 C856 1.390 . S
C856 C855 1.390 . S
C856 C857 1.394 . S
C856 C862 1.465 . S
C857 C852 1.399 . S
C857 C856 1.394 . S
C857 C858 1.516 . S
C858 C857 1.516 . S
C858 C859 1.502 . S
C858 C860 1.561 . S
C858 C861 1.526 . S
C859 H843 0.959 . S
C859 H844 0.959 . S
C859 H845 0.961 . S
C859 C858 1.502 . S
C860 H846 0.960 . S
C860 H847 0.961 . S
C860 H848 0.959 . S
C860 C858 1.561 . S
C861 C858 1.526 . S
C861 C862 1.396 . S
C861 C866 1.390 . S
C862 C856 1.465 . S
C862 C861 1.396 . S
C862 C863 1.399 . S
C863 H849 0.929 . S
C863 C862 1.399 . S
C863 C864 1.385 . S
C864 H850 0.931 . S
C864 C863 1.385 . S
C864 C865 1.389 . S
C865 C864 1.389 . S
C865 C866 1.387 . S
C866 H851 0.930 . S
C866 C861 1.390 . S
C866 C865 1.387 . S
H867 C879 0.930 . S
H868 C881 0.930 . S
H869 C882 0.930 . S
H870 C886 0.959 . S
H871 C886 0.959 . S
H872 C886 0.961 . S
H873 C887 0.960 . S
H874 C887 0.961 . S
H875 C887 0.959 . S
H876 C890 0.929 . S
H877 C891 0.931 . S
H878 C893 0.930 . S
C879 H867 0.930 . S
C879 C880 1.399 . S
C879 C884 1.399 . S
C880 C879 1.399 . S
C880 C881 1.376 . S
C881 H868 0.930 . S
C881 C880 1.376 . S
C881 C882 1.388 . S
C882 H869 0.930 . S
C882 C881 1.388 . S
C882 C883 1.390 . S
C883 C882 1.390 . S
C883 C884 1.394 . S
C883 C889 1.465 . S
C884 C879 1.399 . S
C884 C883 1.394 . S
C884 C885 1.516 . S
C885 C884 1.516 . S
C885 C886 1.502 . S
C885 C887 1.561 . S
C885 C888 1.526 . S
C886 H870 0.959 . S
C886 H871 0.959 . S
C886 H872 0.961 . S
C886 C885 1.502 . S
C887 H873 0.960 . S
C887 H874 0.961 . S
C887 H875 0.959 . S
C887 C885 1.561 . S
C888 C885 1.526 . S
C888 C889 1.396 . S
C888 C893 1.390 . S
C889 C883 1.465 . S
C889 C888 1.396 . S
C889 C890 1.399 . S
C890 H876 0.929 . S
C890 C889 1.399 . S
C890 C891 1.385 . S
C891 H877 0.931 . S
C891 C890 1.385 . S
C891 C892 1.389 . S
C892 C891 1.389 . S
C892 C893 1.387 . S
C893 H878 0.930 . S
C893 C888 1.390 . S
C893 C892 1.387 . S
H894 C906 0.930 . S
H895 C908 0.930 . S
H896 C909 0.930 . S
H897 C913 0.959 . S
H898 C913 0.959 . S
H899 C913 0.961 . S
H900 C914 0.960 . S
H901 C914 0.961 . S
H902 C914 0.959 . S
H903 C917 0.929 1_565 S
H904 C918 0.931 . S
H905 C920 0.930 . S
C906 H894 0.930 . S
C906 C907 1.399 . S
C906 C911 1.399 . S
C907 C906 1.399 . S
C907 C908 1.376 . S
C908 H895 0.930 . S
C908 C907 1.376 . S
C908 C909 1.388 1_556 S
C909 H896 0.930 . S
C909 C908 1.388 1_554 S
C909 C910 1.390 . S
C910 C909 1.390 . S
C910 C911 1.394 1_554 S
C910 C916 1.465 1_565 S
C911 C906 1.399 . S
C911 C910 1.394 1_556 S
C911 C912 1.516 1_565 S
C912 C911 1.516 1_545 S
C912 C913 1.502 . S
C912 C914 1.561 . S
C912 C915 1.526 1_556 S
C913 H897 0.959 . S
C913 H898 0.959 . S
C913 H899 0.961 . S
C913 C912 1.502 . S
C914 H900 0.960 . S
C914 H901 0.961 . S
C914 H902 0.959 . S
C914 C912 1.561 . S
C915 C912 1.526 1_554 S
C915 C916 1.396 . S
C915 C920 1.390 . S
C916 C910 1.465 1_545 S
C916 C915 1.396 . S
C916 C917 1.399 . S
C917 H903 0.929 1_545 S
C917 C916 1.399 . S
C917 C918 1.385 . S
C918 H904 0.931 . S
C918 C917 1.385 . S
C918 C919 1.389 . S
C919 C918 1.389 . S
C919 C920 1.387 . S
C920 H905 0.930 . S
C920 C915 1.390 . S
C920 C919 1.387 . S
H921 C933 0.930 . S
H922 C935 0.930 . S
H923 C936 0.930 . S
H924 C940 0.959 . S
H925 C940 0.959 . S
H926 C940 0.961 . S
H927 C941 0.960 . S
H928 C941 0.961 . S
H929 C941 0.959 . S
H930 C944 0.929 . S
H931 C945 0.931 . S
H932 C947 0.930 . S
C933 H921 0.930 . S
C933 C934 1.399 . S
C933 C938 1.399 . S
C934 C933 1.399 . S
C934 C935 1.376 . S
C935 H922 0.930 . S
C935 C934 1.376 . S
C935 C936 1.388 . S
C936 H923 0.930 . S
C936 C935 1.388 . S
C936 C937 1.390 . S
C937 C936 1.390 . S
C937 C938 1.394 . S
C937 C943 1.465 . S
C938 C933 1.399 . S
C938 C937 1.394 . S
C938 C939 1.516 . S
C939 C938 1.516 . S
C939 C940 1.502 . S
C939 C941 1.561 . S
C939 C942 1.526 . S
C940 H924 0.959 . S
C940 H925 0.959 . S
C940 H926 0.961 . S
C940 C939 1.502 . S
C941 H927 0.960 . S
C941 H928 0.961 . S
C941 H929 0.959 . S
C941 C939 1.561 . S
C942 C939 1.526 . S
C942 C943 1.396 . S
C942 C947 1.390 . S
C943 C937 1.465 . S
C943 C942 1.396 . S
C943 C944 1.399 . S
C944 H930 0.929 . S
C944 C943 1.399 . S
C944 C945 1.385 . S
C945 H931 0.931 . S
C945 C944 1.385 . S
C945 C946 1.389 . S
C946 C945 1.389 . S
C946 C947 1.387 . S
C947 H932 0.930 . S
C947 C942 1.390 . S
C947 C946 1.387 . S
H948 C960 0.930 . S
H949 C962 0.930 . S
H950 C963 0.930 . S
H951 C967 0.959 . S
H952 C967 0.959 . S
H953 C967 0.961 . S
H954 C968 0.961 1_655 S
H955 C968 0.961 . S
H956 C968 0.959 . S
H957 C971 0.929 . S
H958 C972 0.931 . S
H959 C974 0.930 . S
C960 H948 0.930 . S
C960 C961 1.399 . S
C960 C965 1.399 . S
C961 C960 1.399 . S
C961 C962 1.376 . S
C962 H949 0.930 . S
C962 C961 1.376 . S
C962 C963 1.388 . S
C963 H950 0.930 . S
C963 C962 1.388 . S
C963 C964 1.390 . S
C964 C963 1.390 . S
C964 C965 1.394 . S
C964 C970 1.465 1_654 S
C965 C960 1.399 . S
C965 C964 1.394 . S
C965 C966 1.524 1_554 S
C966 C965 1.524 1_556 S
C966 C967 1.524 . S
C966 C968 1.559 1_656 S
C966 C969 1.495 1_655 S
C967 H951 0.959 . S
C967 H952 0.959 . S
C967 H953 0.961 . S
C967 C966 1.524 . S
C968 H954 0.961 1_455 S
C968 H955 0.961 . S
C968 H956 0.959 . S
C968 C966 1.559 1_454 S
C969 C966 1.495 1_455 S
C969 C970 1.396 . S
C969 C974 1.390 . S
C970 C964 1.465 1_456 S
C970 C969 1.396 . S
C970 C971 1.399 . S
C971 H957 0.929 . S
C971 C970 1.399 . S
C971 C972 1.385 . S
C972 H958 0.931 . S
C972 C971 1.385 . S
C972 C973 1.389 . S
C973 C972 1.389 . S
C973 C974 1.387 . S
C974 H959 0.930 . S
C974 C969 1.390 . S
C974 C973 1.387 . S
H975 C987 0.930 . S
H976 C989 0.930 . S
H977 C990 0.930 . S
H978 C994 0.959 . S
H979 C994 0.959 . S
H980 C994 0.953 1_565 S
H981 C995 0.960 . S
H982 C995 0.961 . S
H983 C995 0.959 . S
H984 C998 0.929 . S
H985 C999 0.931 . S
H986 C1001 0.930 . S
C987 H975 0.930 . S
C987 C988 1.399 . S
C987 C992 1.399 . S
C988 C987 1.399 . S
C988 C989 1.376 . S
C989 H976 0.930 . S
C989 C988 1.376 . S
C989 C990 1.388 . S
C990 H977 0.930 . S
C990 C989 1.388 . S
C990 C991 1.390 . S
C991 C990 1.390 . S
C991 C992 1.394 . S
C991 C997 1.465 1_565 S
C992 C987 1.399 . S
C992 C991 1.394 . S
C992 C993 1.519 . S
C993 C992 1.519 . S
C993 C994 1.501 1_565 S
C993 C995 1.570 . S
C993 C996 1.515 1_565 S
C994 H978 0.959 . S
C994 H979 0.959 . S
C994 H980 0.953 1_545 S
C994 C993 1.501 1_545 S
C995 H981 0.960 . S
C995 H982 0.961 . S
C995 H983 0.959 . S
C995 C993 1.570 . S
C996 C993 1.515 1_545 S
C996 C997 1.396 . S
C996 C1001 1.390 . S
C997 C991 1.465 1_545 S
C997 C996 1.396 . S
C997 C998 1.399 . S
C998 H984 0.929 . S
C998 C997 1.399 . S
C998 C999 1.385 . S
C999 H985 0.931 . S
C999 C998 1.385 . S
C999 C1000 1.389 . S
C1000 C999 1.389 . S
C1000 C1001 1.387 . S
C1001 H986 0.930 . S
C1001 C996 1.390 . S
C1001 C1000 1.387 . S
H1002 C1014 0.930 . S
H1003 C1016 0.930 . S
H1004 C1017 0.930 . S
H1005 C1021 0.959 . S
H1006 C1021 0.959 . S
H1007 C1021 0.961 . S
H1008 C1022 0.960 . S
H1009 C1022 0.961 . S
H1010 C1022 0.981 . S
H1011 C1025 0.929 . S
H1012 C1026 0.931 . S
H1013 C1028 0.930 . S
C1014 H1002 0.930 . S
C1014 C1015 1.399 . S
C1014 C1019 1.399 . S
C1015 C1014 1.399 . S
C1015 C1016 1.376 . S
C1016 H1003 0.930 . S
C1016 C1015 1.376 . S
C1016 C1017 1.388 1_554 S
C1017 H1004 0.930 . S
C1017 C1016 1.388 1_556 S
C1017 C1018 1.390 . S
C1018 C1017 1.390 . S
C1018 C1019 1.394 1_556 S
C1018 C1024 1.465 . S
C1019 C1014 1.399 . S
C1019 C1018 1.394 1_554 S
C1019 C1020 1.516 . S
C1020 C1019 1.516 . S
C1020 C1021 1.502 . S
C1020 C1022 1.561 . S
C1020 C1023 1.526 1_554 S
C1021 H1005 0.959 . S
C1021 H1006 0.959 . S
C1021 H1007 0.961 . S
C1021 C1020 1.502 . S
C1022 H1008 0.960 . S
C1022 H1009 0.961 . S
C1022 H1010 0.981 . S
C1022 C1020 1.561 . S
C1023 C1020 1.526 1_556 S
C1023 C1024 1.396 . S
C1023 C1028 1.390 . S
C1024 C1018 1.465 . S
C1024 C1023 1.396 . S
C1024 C1025 1.399 . S
C1025 H1011 0.929 . S
C1025 C1024 1.399 . S
C1025 C1026 1.385 . S
C1026 H1012 0.931 . S
C1026 C1025 1.385 . S
C1026 C1027 1.389 . S
C1027 C1026 1.389 . S
C1027 C1028 1.387 . S
C1028 H1013 0.930 . S
C1028 C1023 1.390 . S
C1028 C1027 1.387 . S
H1029 C1041 0.930 . S
H1030 C1043 0.930 . S
H1031 C1044 0.930 . S
H1032 C1048 0.959 . S
H1033 C1048 0.959 . S
H1034 C1048 0.961 . S
H1035 C1049 0.960 1_655 S
H1036 C1049 0.961 . S
H1037 C1049 0.941 1_655 S
H1038 C1052 0.921 1_655 S
H1039 C1053 0.931 . S
H1040 C1055 0.930 . S
C1041 H1029 0.930 . S
C1041 C1042 1.399 . S
C1041 C1046 1.399 . S
C1042 C1041 1.399 . S
C1042 C1043 1.376 . S
C1043 H1030 0.930 . S
C1043 C1042 1.376 . S
C1043 C1044 1.388 . S
C1044 H1031 0.930 . S
C1044 C1043 1.388 . S
C1044 C1045 1.390 . S
C1045 C1044 1.390 . S
C1045 C1046 1.394 . S
C1045 C1051 1.465 1_655 S
C1046 C1041 1.399 . S
C1046 C1045 1.394 . S
C1046 C1047 1.516 1_655 S
C1047 C1046 1.516 1_455 S
C1047 C1048 1.502 . S
C1047 C1049 1.561 . S
C1047 C1050 1.526 . S
C1048 H1032 0.959 . S
C1048 H1033 0.959 . S
C1048 H1034 0.961 . S
C1048 C1047 1.502 . S
C1049 H1035 0.960 1_455 S
C1049 H1036 0.961 . S
C1049 H1037 0.941 1_455 S
C1049 C1047 1.561 . S
C1050 C1047 1.526 . S
C1050 C1051 1.396 . S
C1050 C1055 1.390 . S
C1051 C1045 1.465 1_455 S
C1051 C1050 1.396 . S
C1051 C1052 1.399 . S
C1052 H1038 0.921 1_455 S
C1052 C1051 1.399 . S
C1052 C1053 1.385 . S
C1053 H1039 0.931 . S
C1053 C1052 1.385 . S
C1053 C1054 1.389 . S
C1054 C1053 1.389 . S
C1054 C1055 1.387 . S
C1055 H1040 0.930 . S
C1055 C1050 1.390 . S
C1055 C1054 1.387 . S
H1056 C1068 0.930 . S
H1057 C1070 0.930 . S
H1058 C1071 0.930 . S
H1059 C1075 0.990 1_565 S
H1060 C1075 0.959 . S
H1061 C1075 0.961 . S
H1062 C1076 0.960 . S
H1063 C1076 0.961 . S
H1064 C1076 0.959 . S
H1065 C1079 0.917 1_554 S
H1066 C1080 0.931 . S
H1067 C1082 0.930 . S
C1068 H1056 0.930 . S
C1068 C1069 1.399 . S
C1068 C1073 1.399 . S
C1069 C1068 1.399 . S
C1069 C1070 1.376 . S
C1070 H1057 0.930 . S
C1070 C1069 1.376 . S
C1070 C1071 1.388 . S
C1071 H1058 0.930 . S
C1071 C1070 1.388 . S
C1071 C1072 1.390 . S
C1072 C1071 1.390 . S
C1072 C1073 1.394 . S
C1072 C1078 1.465 1_544 S
C1073 C1068 1.399 . S
C1073 C1072 1.394 . S
C1073 C1074 1.516 1_554 S
C1074 C1073 1.516 1_556 S
C1074 C1075 1.502 . S
C1074 C1076 1.561 . S
C1074 C1077 1.526 1_545 S
C1075 H1059 0.990 1_545 S
C1075 H1060 0.959 . S
C1075 H1061 0.961 . S
C1075 C1074 1.502 . S
C1076 H1062 0.960 . S
C1076 H1063 0.961 . S
C1076 H1064 0.959 . S
C1076 C1074 1.561 . S
C1077 C1074 1.526 1_565 S
C1077 C1078 1.396 . S
C1077 C1082 1.390 . S
C1078 C1072 1.465 1_566 S
C1078 C1077 1.396 . S
C1078 C1079 1.400 . S
C1079 H1065 0.917 1_556 S
C1079 C1078 1.400 . S
C1079 C1080 1.397 . S
C1080 H1066 0.931 . S
C1080 C1079 1.397 . S
C1080 C1081 1.389 . S
C1081 C1080 1.389 . S
C1081 C1082 1.387 . S
C1082 H1067 0.930 . S
C1082 C1077 1.390 . S
C1082 C1081 1.387 . S
H1083 C1095 0.930 . S
H1084 C1097 0.930 . S
H1085 C1098 0.930 . S
H1086 C1102 0.959 . S
H1087 C1102 0.959 . S
H1088 C1102 0.961 . S
H1089 C1103 0.960 . S
H1090 C1103 0.961 . S
H1091 C1103 0.959 . S
H1092 C1106 0.929 . S
H1093 C1107 0.931 . S
H1094 C1109 0.930 . S
C1095 H1083 0.930 . S
C1095 C1096 1.399 . S
C1095 C1100 1.399 . S
C1096 C1095 1.399 . S
C1096 C1097 1.376 . S
C1097 H1084 0.930 . S
C1097 C1096 1.376 . S
C1097 C1098 1.388 . S
C1098 H1085 0.930 . S
C1098 C1097 1.388 . S
C1098 C1099 1.390 . S
C1099 C1098 1.390 . S
C1099 C1100 1.394 . S
C1099 C1105 1.465 . S
C1100 C1095 1.399 . S
C1100 C1099 1.394 . S
C1100 C1101 1.516 . S
C1101 C1100 1.516 . S
C1101 C1102 1.502 . S
C1101 C1103 1.561 . S
C1101 C1104 1.526 . S
C1102 H1086 0.959 . S
C1102 H1087 0.959 . S
C1102 H1088 0.961 . S
C1102 C1101 1.502 . S
C1103 H1089 0.960 . S
C1103 H1090 0.961 . S
C1103 H1091 0.959 . S
C1103 C1101 1.561 . S
C1104 C1101 1.526 . S
C1104 C1105 1.396 . S
C1104 C1109 1.390 . S
C1105 C1099 1.465 . S
C1105 C1104 1.396 . S
C1105 C1106 1.399 . S
C1106 H1092 0.929 . S
C1106 C1105 1.399 . S
C1106 C1107 1.385 . S
C1107 H1093 0.931 . S
C1107 C1106 1.385 . S
C1107 C1108 1.389 . S
C1108 C1107 1.389 . S
C1108 C1109 1.387 . S
C1109 H1094 0.930 . S
C1109 C1104 1.390 . S
C1109 C1108 1.387 . S
H1110 C1122 0.930 . S
H1111 C1124 0.930 . S
H1112 C1125 0.930 . S
H1113 C1129 0.959 . S
H1114 C1129 0.959 . S
H1115 C1129 0.961 . S
H1116 C1130 0.960 . S
H1117 C1130 0.961 . S
H1118 C1130 0.959 . S
H1119 C1133 0.929 . S
H1120 C1134 0.931 . S
H1121 C1136 0.930 . S
C1122 H1110 0.930 . S
C1122 C1123 1.399 . S
C1122 C1127 1.399 . S
C1123 C1122 1.399 . S
C1123 C1124 1.376 . S
C1124 H1111 0.930 . S
C1124 C1123 1.376 . S
C1124 C1125 1.388 1_554 S
C1125 H1112 0.930 . S
C1125 C1124 1.388 1_556 S
C1125 C1126 1.390 1_556 S
C1126 C1125 1.390 1_554 S
C1126 C1127 1.394 . S
C1126 C1132 1.465 1_654 S
C1127 C1122 1.399 . S
C1127 C1126 1.394 . S
C1127 C1128 1.516 1_655 S
C1128 C1127 1.516 1_455 S
C1128 C1129 1.502 . S
C1128 C1130 1.561 . S
C1128 C1131 1.526 1_554 S
C1129 H1113 0.959 . S
C1129 H1114 0.959 . S
C1129 H1115 0.961 . S
C1129 C1128 1.502 . S
C1130 H1116 0.960 . S
C1130 H1117 0.961 . S
C1130 H1118 0.959 . S
C1130 C1128 1.561 . S
C1131 C1128 1.526 1_556 S
C1131 C1132 1.396 . S
C1131 C1136 1.390 . S
C1132 C1126 1.465 1_456 S
C1132 C1131 1.396 . S
C1132 C1133 1.399 . S
C1133 H1119 0.929 . S
C1133 C1132 1.399 . S
C1133 C1134 1.385 . S
C1134 H1120 0.931 . S
C1134 C1133 1.385 . S
C1134 C1135 1.389 . S
C1135 C1134 1.389 . S
C1135 C1136 1.387 . S
C1136 H1121 0.930 . S
C1136 C1131 1.390 . S
C1136 C1135 1.387 . S
H1137 C1149 0.930 . S
H1138 C1151 0.930 . S
H1139 C1152 0.930 . S
H1140 C1156 0.959 . S
H1141 C1156 0.959 . S
H1142 C1156 0.961 . S
H1143 C1157 0.960 . S
H1144 C1157 0.961 . S
H1145 C1157 0.959 . S
H1146 C1160 0.929 . S
H1147 C1161 0.931 . S
H1148 C1163 0.930 . S
C1149 H1137 0.930 . S
C1149 C1150 1.399 . S
C1149 C1154 1.399 . S
C1150 C1149 1.399 . S
C1150 C1151 1.376 . S
C1151 H1138 0.930 . S
C1151 C1150 1.376 . S
C1151 C1152 1.388 . S
C1152 H1139 0.930 . S
C1152 C1151 1.388 . S
C1152 C1153 1.390 . S
C1153 C1152 1.390 . S
C1153 C1154 1.394 . S
C1153 C1159 1.465 1_565 S
C1154 C1149 1.399 . S
C1154 C1153 1.394 . S
C1154 C1155 1.516 1_565 S
C1155 C1154 1.516 1_545 S
C1155 C1156 1.502 . S
C1155 C1157 1.561 . S
C1155 C1158 1.526 . S
C1156 H1140 0.959 . S
C1156 H1141 0.959 . S
C1156 H1142 0.961 . S
C1156 C1155 1.502 . S
C1157 H1143 0.960 . S
C1157 H1144 0.961 . S
C1157 H1145 0.959 . S
C1157 C1155 1.561 . S
C1158 C1155 1.526 . S
C1158 C1159 1.396 . S
C1158 C1163 1.390 . S
C1159 C1153 1.465 1_545 S
C1159 C1158 1.396 . S
C1159 C1160 1.399 . S
C1160 H1146 0.929 . S
C1160 C1159 1.399 . S
C1160 C1161 1.385 . S
C1161 H1147 0.931 . S
C1161 C1160 1.385 . S
C1161 C1162 1.389 . S
C1162 C1161 1.389 . S
C1162 C1163 1.387 . S
C1163 H1148 0.930 . S
C1163 C1158 1.390 . S
C1163 C1162 1.387 . S
H1164 C1176 0.930 . S
H1165 C1178 0.930 . S
H1166 C1179 0.930 . S
H1167 C1183 0.959 1_556 S
H1168 C1183 0.959 . S
H1169 C1183 0.961 1_556 S
H1170 C1184 0.960 . S
H1171 C1184 0.961 . S
H1172 C1184 0.959 . S
H1173 C1187 0.925 1_556 S
H1174 C1188 0.931 . S
H1175 C1190 0.930 . S
C1176 H1164 0.930 . S
C1176 C1177 1.399 . S
C1176 C1181 1.399 . S
C1177 C1176 1.399 . S
C1177 C1178 1.376 . S
C1178 H1165 0.930 . S
C1178 C1177 1.376 . S
C1178 C1179 1.388 . S
C1179 H1166 0.930 . S
C1179 C1178 1.388 . S
C1179 C1180 1.390 . S
C1180 C1179 1.390 . S
C1180 C1181 1.394 . S
C1180 C1186 1.465 1_556 S
C1181 C1176 1.399 . S
C1181 C1180 1.394 . S
C1181 C1182 1.516 1_556 S
C1182 C1181 1.516 1_554 S
C1182 C1183 1.502 . S
C1182 C1184 1.561 . S
C1182 C1185 1.526 . S
C1183 H1167 0.959 1_554 S
C1183 H1168 0.959 . S
C1183 H1169 0.961 1_554 S
C1183 C1182 1.502 . S
C1184 H1170 0.960 . S
C1184 H1171 0.961 . S
C1184 H1172 0.959 . S
C1184 C1182 1.561 . S
C1185 C1182 1.526 . S
C1185 C1186 1.396 . S
C1185 C1190 1.390 . S
C1186 C1180 1.465 1_554 S
C1186 C1185 1.396 . S
C1186 C1187 1.399 . S
C1187 H1173 0.925 1_554 S
C1187 C1186 1.399 . S
C1187 C1188 1.385 . S
C1188 H1174 0.931 . S
C1188 C1187 1.385 . S
C1188 C1189 1.389 . S
C1189 C1188 1.389 . S
C1189 C1190 1.387 . S
C1190 H1175 0.930 . S
C1190 C1185 1.390 . S
C1190 C1189 1.387 . S
H1191 C1203 0.930 . S
H1192 C1205 0.930 . S
H1193 C1206 0.930 . S
H1194 C1210 0.971 . S
H1195 C1210 0.944 1_655 S
H1196 C1210 0.992 . S
H1197 C1211 0.960 . S
H1198 C1211 0.961 . S
H1199 C1211 0.959 . S
H1200 C1214 0.929 . S
H1201 C1215 0.931 . S
H1202 C1217 0.930 . S
C1203 H1191 0.930 . S
C1203 C1204 1.399 . S
C1203 C1208 1.399 . S
C1204 C1203 1.399 . S
C1204 C1205 1.376 . S
C1205 H1192 0.930 . S
C1205 C1204 1.376 . S
C1205 C1206 1.388 . S
C1206 H1193 0.930 . S
C1206 C1205 1.388 . S
C1206 C1207 1.390 . S
C1207 C1206 1.390 . S
C1207 C1208 1.394 . S
C1207 C1213 1.465 1_455 S
C1208 C1203 1.399 . S
C1208 C1207 1.394 . S
C1208 C1209 1.516 1_455 S
C1209 C1208 1.516 1_655 S
C1209 C1210 1.477 1_655 S
C1209 C1211 1.561 . S
C1209 C1212 1.526 . S
C1210 H1194 0.971 . S
C1210 H1195 0.944 1_455 S
C1210 H1196 0.992 . S
C1210 C1209 1.477 1_455 S
C1211 H1197 0.960 . S
C1211 H1198 0.961 . S
C1211 H1199 0.959 . S
C1211 C1209 1.561 . S
C1212 C1209 1.526 . S
C1212 C1213 1.396 . S
C1212 C1217 1.390 . S
C1213 C1207 1.465 1_655 S
C1213 C1212 1.396 . S
C1213 C1214 1.399 . S
C1214 H1200 0.929 . S
C1214 C1213 1.399 . S
C1214 C1215 1.385 . S
C1215 H1201 0.931 . S
C1215 C1214 1.385 . S
C1215 C1216 1.389 . S
C1216 C1215 1.389 . S
C1216 C1217 1.387 . S
C1217 H1202 0.930 . S
C1217 C1212 1.390 . S
C1217 C1216 1.387 . S
C421 C73 1.464 . S
C433 C2 1.615 . S
C448 C36 1.619 . S
C460 C107 1.493 . S
C475 C70 1.596 . S
C487 C141 1.544 . S
C502 C104 1.613 . S
C514 C175 1.538 . S
C529 C138 1.617 . S
C541 C5 1.515 . S
C556 C39 1.551 . S
C568 C172 1.598 . S
C583 C206 1.619 . S
C595 C345 1.497 . S
C610 C240 1.598 . S
C622 C379 1.506 . S
C637 C209 1.465 . S
C649 C274 1.610 . S
C664 C243 1.463 . S
C676 C308 1.613 . S
C691 C277 1.470 . S
C703 C342 1.617 . S
C718 C311 1.559 . S
C730 C376 1.603 . S
C745 C305 1.260 . S
C757 C33 1.231 . S
C772 C67 1.253 . S
C784 C339 1.265 . S
C799 C373 1.232 . S
C811 C101 1.232 . S
C826 C407 1.259 . S
C838 C135 1.230 . S
C853 C169 1.226 . S
C865 C237 1.240 . S
C880 C271 1.235 . S
C892 C203 1.229 . S
C907 C247 1.519 . S
C919 C9 1.496 . S
C934 C43 1.495 . S
C946 C281 1.522 . S
C961 C77 1.497 . S
C973 C315 1.510 . S
C988 C111 1.531 . S
C1000 C349 1.520 . S
C1015 C145 1.532 . S
C1027 C383 1.504 . S
C1042 C213 1.533 . S
C1054 C179 1.506 . S
C1069 C88 1.862 . S
C1081 C394 1.859 . S
C1096 C224 1.862 . S
C1108 C122 1.860 . S
C1123 C156 1.842 . S
C1135 C258 1.847 . S
C1150 C190 1.842 . S
C1162 C292 1.847 . S
C1177 C326 1.862 . S
C1189 C20 1.861 . S
C1204 C54 1.843 . S
C1216 C360 1.843 . S
