# Generated by pormake.
# Topology wjd, (6)-cn, num edge types: 1
# Building blocks:
#     Node 0, Type 0, BuildingBlock: GEDQOX_clean_sbu_0, # of connection points: 6
#     Node 1, Type 0, BuildingBlock: GEDQOX_clean_sbu_0, # of connection points: 6
#     Node 2, Type 0, BuildingBlock: GEDQOX_clean_sbu_0, # of connection points: 6
#     Node 3, Type 0, BuildingBlock: GEDQOX_clean_sbu_0, # of connection points: 6
#     Node 4, Type 0, BuildingBlock: GEDQOX_clean_sbu_0, # of connection points: 6
#     Node 5, Type 0, BuildingBlock: GEDQOX_clean_sbu_0, # of connection points: 6
#     Node 6, Type 0, BuildingBlock: GEDQOX_clean_sbu_0, # of connection points: 6
#     Node 7, Type 0, BuildingBlock: GEDQOX_clean_sbu_0, # of connection points: 6
#     Node 8, Type 0, BuildingBlock: GEDQOX_clean_sbu_0, # of connection points: 6
#     Node 9, Type 0, BuildingBlock: GEDQOX_clean_sbu_0, # of connection points: 6
#     Node 10, Type 0, BuildingBlock: GEDQOX_clean_sbu_0, # of connection points: 6
#     Node 11, Type 0, BuildingBlock: GEDQOX_clean_sbu_0, # of connection points: 6
#     Edge 12, Type (0, 0), BuildingBlock: UVAHIK_clean_linker_0, # of connection points: 2
#     Edge 13, Type (0, 0), BuildingBlock: UVAHIK_clean_linker_0, # of connection points: 2
#     Edge 14, Type (0, 0), BuildingBlock: UVAHIK_clean_linker_0, # of connection points: 2
#     Edge 15, Type (0, 0), BuildingBlock: UVAHIK_clean_linker_0, # of connection points: 2
#     Edge 16, Type (0, 0), BuildingBlock: UVAHIK_clean_linker_0, # of connection points: 2
#     Edge 17, Type (0, 0), BuildingBlock: UVAHIK_clean_linker_0, # of connection points: 2
#     Edge 18, Type (0, 0), BuildingBlock: UVAHIK_clean_linker_0, # of connection points: 2
#     Edge 19, Type (0, 0), BuildingBlock: UVAHIK_clean_linker_0, # of connection points: 2
#     Edge 20, Type (0, 0), BuildingBlock: UVAHIK_clean_linker_0, # of connection points: 2
#     Edge 21, Type (0, 0), BuildingBlock: UVAHIK_clean_linker_0, # of connection points: 2
#     Edge 22, Type (0, 0), BuildingBlock: UVAHIK_clean_linker_0, # of connection points: 2
#     Edge 23, Type (0, 0), BuildingBlock: UVAHIK_clean_linker_0, # of connection points: 2
#     Edge 24, Type (0, 0), BuildingBlock: UVAHIK_clean_linker_0, # of connection points: 2
#     Edge 25, Type (0, 0), BuildingBlock: UVAHIK_clean_linker_0, # of connection points: 2
#     Edge 26, Type (0, 0), BuildingBlock: UVAHIK_clean_linker_0, # of connection points: 2
#     Edge 27, Type (0, 0), BuildingBlock: UVAHIK_clean_linker_0, # of connection points: 2
#     Edge 28, Type (0, 0), BuildingBlock: UVAHIK_clean_linker_0, # of connection points: 2
#     Edge 29, Type (0, 0), BuildingBlock: UVAHIK_clean_linker_0, # of connection points: 2
#     Edge 30, Type (0, 0), BuildingBlock: UVAHIK_clean_linker_0, # of connection points: 2
#     Edge 31, Type (0, 0), BuildingBlock: UVAHIK_clean_linker_0, # of connection points: 2
#     Edge 32, Type (0, 0), BuildingBlock: UVAHIK_clean_linker_0, # of connection points: 2
#     Edge 33, Type (0, 0), BuildingBlock: UVAHIK_clean_linker_0, # of connection points: 2
#     Edge 34, Type (0, 0), BuildingBlock: UVAHIK_clean_linker_0, # of connection points: 2
#     Edge 35, Type (0, 0), BuildingBlock: UVAHIK_clean_linker_0, # of connection points: 2
#     Edge 36, Type (0, 0), BuildingBlock: UVAHIK_clean_linker_0, # of connection points: 2
#     Edge 37, Type (0, 0), BuildingBlock: UVAHIK_clean_linker_0, # of connection points: 2
#     Edge 38, Type (0, 0), BuildingBlock: UVAHIK_clean_linker_0, # of connection points: 2
#     Edge 39, Type (0, 0), BuildingBlock: UVAHIK_clean_linker_0, # of connection points: 2
#     Edge 40, Type (0, 0), BuildingBlock: UVAHIK_clean_linker_0, # of connection points: 2
#     Edge 41, Type (0, 0), BuildingBlock: UVAHIK_clean_linker_0, # of connection points: 2
#     Edge 42, Type (0, 0), BuildingBlock: UVAHIK_clean_linker_0, # of connection points: 2
#     Edge 43, Type (0, 0), BuildingBlock: UVAHIK_clean_linker_0, # of connection points: 2
#     Edge 44, Type (0, 0), BuildingBlock: UVAHIK_clean_linker_0, # of connection points: 2
#     Edge 45, Type (0, 0), BuildingBlock: UVAHIK_clean_linker_0, # of connection points: 2
#     Edge 46, Type (0, 0), BuildingBlock: UVAHIK_clean_linker_0, # of connection points: 2
#     Edge 47, Type (0, 0), BuildingBlock: UVAHIK_clean_linker_0, # of connection points: 2
# Relax obj value: 0.094
# Max RMSD: 0.207
# Mean RMSD: 0.206
data_MOF--net-wjd--node1-GEDQOX_clean_sbu_0--edge1-UVAHIK_clean_linker_0
_symmetry_space_group_name_H-M    P1
_symmetry_Int_Tables_number       1
_symmetry_cell_setting            triclinic
loop_
_symmetry_equiv_pos_as_xyz
'x, y, z'
_cell_length_a     48.995568
_cell_length_b     49.100549
_cell_length_c     69.018424
_cell_angle_alpha  89.993281
_cell_angle_beta   90.085003
_cell_angle_gamma 120.00537
loop_
_atom_site_label
_atom_site_type_symbol
_atom_site_fract_x
_atom_site_fract_y
_atom_site_fract_z
_atom_type_partial_charge
Nd0 Nd 0.3818 0.12598 0.14251 0.0
Nd1 Nd 0.33813 0.15412 0.12787 0.0
C2 C 0.42679 0.11742 0.15734 0.0
C3 C 0.46067 0.12974 0.15333 0.0
C4 C 0.48242 0.13946 0.16865 0.0
C5 C 0.51436 0.15017 0.16504 0.0
C6 C 0.52513 0.1511 0.14602 0.0
C7 C 0.50336 0.14179 0.13068 0.0
C8 C 0.47155 0.13141 0.13427 0.0
C9 C 0.35234 0.10368 0.10778 0.0
C10 C 0.41462 0.19833 0.1239 0.0
C11 C 0.29953 0.16765 0.10892 0.0
C12 C 0.27246 0.17138 0.11419 0.0
C13 C 0.26494 0.19035 0.10279 0.0
C14 C 0.24043 0.19559 0.10821 0.0
C15 C 0.22294 0.18191 0.12516 0.0
C16 C 0.23047 0.16272 0.13649 0.0
C17 C 0.25509 0.15761 0.1311 0.0
C18 C 0.35005 0.16313 0.1674 0.0
C19 C 0.30637 0.08501 0.14936 0.0
O20 O 0.4189 0.13703 0.16482 0.0
O21 O 0.40698 0.09923 0.14405 0.0
O22 O 0.35908 0.08774 0.1199 0.0
O23 O 0.36401 0.1322 0.11311 0.0
O24 O 0.41822 0.17607 0.13232 0.0
O25 O 0.38669 0.19431 0.11915 0.0
O26 O 0.29538 0.13912 0.10992 0.0
O27 O 0.32678 0.18912 0.11588 0.0
O28 O 0.33336 0.17286 0.15826 0.0
O29 O 0.35905 0.15038 0.15535 0.0
O30 O 0.30319 0.10337 0.13659 0.0
O31 O 0.3341 0.091 0.15646 0.0
H32 H 0.47462 0.13844 0.18345 0.0
H33 H 0.53051 0.15702 0.17718 0.0
H34 H 0.51096 0.14267 0.11585 0.0
H35 H 0.45543 0.12444 0.1221 0.0
H36 H 0.27822 0.20133 0.08975 0.0
H37 H 0.23501 0.21016 0.09903 0.0
H38 H 0.21773 0.15212 0.14974 0.0
H39 H 0.26082 0.14322 0.14025 0.0
Nd40 Nd 0.84371 0.70359 0.41376 0.0
Nd41 Nd 0.77374 0.65904 0.3958 0.0
C42 C 0.89404 0.74089 0.43465 0.0
C43 C 0.92647 0.76632 0.43055 0.0
C44 C 0.94208 0.79106 0.44378 0.0
C45 C 0.97279 0.81539 0.44006 0.0
C46 C 0.98857 0.81544 0.423 0.0
C47 C 0.97282 0.79052 0.40977 0.0
C48 C 0.94205 0.76628 0.41347 0.0
C49 C 0.84472 0.69982 0.37348 0.0
C50 C 0.8017 0.73341 0.39743 0.0
C51 C 0.72415 0.61558 0.37677 0.0
C52 C 0.70079 0.58245 0.38099 0.0
C53 C 0.68662 0.56085 0.36582 0.0
C54 C 0.66492 0.52924 0.36979 0.0
C55 C 0.65691 0.51871 0.38903 0.0
C56 C 0.67128 0.54049 0.40419 0.0
C57 C 0.69312 0.57198 0.40021 0.0
C58 C 0.77492 0.67806 0.43325 0.0
C59 C 0.81472 0.62717 0.41338 0.0
O60 O 0.87139 0.74708 0.43117 0.0
O61 O 0.88698 0.71253 0.42922 0.0
O62 O 0.86999 0.71594 0.38375 0.0
O63 O 0.82202 0.68737 0.38486 0.0
O64 O 0.82051 0.73389 0.41136 0.0
O65 O 0.78572 0.70872 0.3859 0.0
O66 O 0.75291 0.62158 0.37336 0.0
O67 O 0.72325 0.63668 0.38793 0.0
O68 O 0.75158 0.66993 0.42134 0.0
O69 O 0.79495 0.67164 0.42612 0.0
O70 O 0.78924 0.62354 0.40437 0.0
O71 O 0.83742 0.65478 0.41965 0.0
H72 H 0.93051 0.79155 0.45704 0.0
H73 H 0.98433 0.83402 0.45066 0.0
H74 H 0.9841 0.79001 0.3964 0.0
H75 H 0.93041 0.74754 0.40295 0.0
H76 H 0.69236 0.56841 0.3509 0.0
H77 H 0.65412 0.51312 0.35778 0.0
H78 H 0.666 0.53307 0.41916 0.0
H79 H 0.70413 0.58815 0.41218 0.0
Nd80 Nd 0.91957 0.2611 0.14072 0.0
Nd81 Nd 0.88787 0.18913 0.12663 0.0
C82 C 0.93213 0.31731 0.153 0.0
C83 C 0.91703 0.3369 0.15195 0.0
C84 C 0.92258 0.35894 0.16654 0.0
C85 C 0.91124 0.37997 0.16467 0.0
C86 C 0.89432 0.37963 0.14802 0.0
C87 C 0.8879 0.35666 0.13375 0.0
C88 C 0.89898 0.33547 0.13574 0.0
C89 C 0.94177 0.25089 0.10687 0.0
C90 C 0.84651 0.22381 0.12274 0.0
C91 C 0.87285 0.1365 0.10794 0.0
C92 C 0.86818 0.10532 0.11313 0.0
C93 C 0.8465 0.07874 0.10267 0.0
C94 C 0.84057 0.04875 0.10797 0.0
C95 C 0.85628 0.04476 0.12385 0.0
C96 C 0.87821 0.07156 0.13423 0.0
C97 C 0.88399 0.10154 0.12898 0.0
C98 C 0.87723 0.1924 0.1658 0.0
C99 C 0.95694 0.22372 0.14921 0.0
O100 O 0.919 0.29229 0.16409 0.0
O101 O 0.94202 0.31234 0.13649 0.0
O102 O 0.95899 0.27203 0.11957 0.0
O103 O 0.91278 0.23654 0.11152 0.0
O104 O 0.86889 0.24808 0.13232 0.0
O105 O 0.8499 0.20013 0.11675 0.0
O106 O 0.90174 0.16039 0.10891 0.0
O107 O 0.85184 0.14301 0.11481 0.0
O108 O 0.8668 0.16601 0.15659 0.0
O109 O 0.89164 0.21436 0.154 0.0
O110 O 0.93747 0.20192 0.13686 0.0
O111 O 0.95309 0.24724 0.15535 0.0
H112 H 0.93632 0.36037 0.17922 0.0
H113 H 0.91607 0.39672 0.1762 0.0
H114 H 0.87531 0.3557 0.12063 0.0
H115 H 0.89427 0.3186 0.12427 0.0
H116 H 0.83395 0.08116 0.09045 0.0
H117 H 0.82383 0.02868 0.09953 0.0
H118 H 0.89045 0.06929 0.14666 0.0
H119 H 0.90054 0.12172 0.13743 0.0
Nd120 Nd 0.33983 0.15748 0.41376 0.0
Nd121 Nd 0.37446 0.12363 0.4024 0.0
C122 C 0.30203 0.17721 0.42741 0.0
C123 C 0.27503 0.18054 0.42127 0.0
C124 C 0.26879 0.20177 0.43113 0.0
C125 C 0.244 0.20628 0.42527 0.0
C126 C 0.22488 0.18963 0.40938 0.0
C127 C 0.23117 0.1682 0.39955 0.0
C128 C 0.25611 0.16377 0.40541 0.0
C129 C 0.35747 0.16449 0.37524 0.0
C130 C 0.29915 0.08342 0.39936 0.0
C131 C 0.41671 0.10932 0.38939 0.0
C132 C 0.45081 0.12088 0.3927 0.0
C133 C 0.47223 0.13321 0.37723 0.0
C134 C 0.50434 0.14363 0.38008 0.0
C135 C 0.51579 0.14175 0.39847 0.0
C136 C 0.49433 0.12962 0.41397 0.0
C137 C 0.46231 0.11939 0.41114 0.0
C138 C 0.3517 0.11091 0.43929 0.0
C139 C 0.41369 0.19715 0.41788 0.0
O140 O 0.29708 0.1487 0.43004 0.0
O141 O 0.32876 0.19552 0.41877 0.0
O142 O 0.35735 0.18641 0.38556 0.0
O143 O 0.34656 0.13946 0.38482 0.0
O144 O 0.29996 0.10653 0.40964 0.0
O145 O 0.32516 0.08569 0.39194 0.0
O146 O 0.40932 0.12797 0.38009 0.0
O147 O 0.39753 0.09471 0.40375 0.0
O148 O 0.35239 0.09049 0.42778 0.0
O149 O 0.36477 0.13824 0.4319 0.0
O150 O 0.41337 0.1756 0.40632 0.0
O151 O 0.38772 0.19228 0.42648 0.0
H152 H 0.28319 0.21497 0.44339 0.0
H153 H 0.23958 0.22256 0.43338 0.0
H154 H 0.21712 0.1552 0.38715 0.0
H155 H 0.26074 0.14745 0.3975 0.0
H156 H 0.46407 0.13458 0.36286 0.0
H157 H 0.52009 0.15254 0.36777 0.0
H158 H 0.50231 0.12823 0.42838 0.0
H159 H 0.44659 0.11023 0.42345 0.0
Nd160 Nd 0.78228 0.66446 0.13839 0.0
Nd161 Nd 0.85446 0.70503 0.12557 0.0
C162 C 0.72447 0.62139 0.14883 0.0
C163 C 0.70427 0.5869 0.15022 0.0
C164 C 0.71371 0.56657 0.14227 0.0
C165 C 0.69227 0.5342 0.14081 0.0
C166 C 0.6609 0.52163 0.14708 0.0
C167 C 0.65203 0.542 0.15575 0.0
C168 C 0.67349 0.57426 0.15729 0.0
C169 C 0.79362 0.69689 0.10434 0.0
C170 C 0.82167 0.62929 0.1237 0.0
C171 C 0.90803 0.74243 0.10759 0.0
C172 C 0.9391 0.76881 0.11323 0.0
C173 C 0.96553 0.77648 0.10173 0.0
C174 C 0.9954 0.80067 0.1073 0.0
C175 C 0.99942 0.8177 0.1245 0.0
C176 C 0.97275 0.80992 0.13597 0.0
C177 C 0.94289 0.78563 0.13042 0.0
C178 C 0.85026 0.69254 0.16502 0.0
C179 C 0.81832 0.73926 0.14636 0.0
O180 O 0.74758 0.63582 0.16133 0.0
O181 O 0.73239 0.63231 0.13121 0.0
O182 O 0.7724 0.69326 0.11686 0.0
O183 O 0.80782 0.68226 0.10938 0.0
O184 O 0.79755 0.62755 0.13335 0.0
O185 O 0.84428 0.65602 0.11653 0.0
O186 O 0.88423 0.74761 0.10805 0.0
O187 O 0.90102 0.71491 0.11462 0.0
O188 O 0.87682 0.70863 0.15598 0.0
O189 O 0.82839 0.68393 0.15293 0.0
O190 O 0.84074 0.74166 0.13453 0.0
O191 O 0.79483 0.7118 0.15244 0.0
H192 H 0.73722 0.57589 0.13646 0.0
H193 H 0.69987 0.51927 0.13395 0.0
H194 H 0.62823 0.53308 0.16101 0.0
H195 H 0.66564 0.58954 0.16334 0.0
H196 H 0.96308 0.76366 0.08846 0.0
H197 H 1.01531 0.80627 0.098 0.0
H198 H 0.97501 0.82227 0.14941 0.0
H199 H 0.9228 0.77981 0.13963 0.0
Nd200 Nd 0.88557 0.19018 0.41288 0.0
Nd201 Nd 0.91501 0.26151 0.39827 0.0
C202 C 0.87168 0.13825 0.43191 0.0
C203 C 0.86543 0.10651 0.42668 0.0
C204 C 0.87617 0.09093 0.43879 0.0
C205 C 0.86974 0.06051 0.43428 0.0
C206 C 0.85227 0.04496 0.41759 0.0
C207 C 0.84202 0.06094 0.40531 0.0
C208 C 0.84862 0.09144 0.40977 0.0
C209 C 0.87498 0.19227 0.37353 0.0
C210 C 0.95441 0.22589 0.39057 0.0
C211 C 0.92625 0.31663 0.38477 0.0
C212 C 0.91158 0.33646 0.38656 0.0
C213 C 0.91448 0.35688 0.37151 0.0
C214 C 0.90325 0.3779 0.37381 0.0
C215 C 0.88913 0.37915 0.39133 0.0
C216 C 0.88541 0.35783 0.40615 0.0
C217 C 0.89633 0.33662 0.40374 0.0
C218 C 0.938 0.25326 0.43258 0.0
C219 C 0.84202 0.2228 0.41628 0.0
O220 O 0.90069 0.16137 0.42968 0.0
O221 O 0.85049 0.1455 0.42639 0.0
O222 O 0.86515 0.16611 0.3829 0.0
O223 O 0.88859 0.21443 0.38529 0.0
O224 O 0.93584 0.20461 0.4034 0.0
O225 O 0.94923 0.24829 0.38385 0.0
O226 O 0.91102 0.29055 0.37476 0.0
O227 O 0.93881 0.31315 0.40064 0.0
O228 O 0.95452 0.2747 0.41989 0.0
O229 O 0.90909 0.23785 0.42771 0.0
O230 O 0.86406 0.24767 0.40693 0.0
O231 O 0.84633 0.19963 0.42215 0.0
H232 H 0.88942 0.10225 0.4518 0.0
H233 H 0.87858 0.04922 0.44387 0.0
H234 H 0.82829 0.04966 0.39245 0.0
H235 H 0.84024 0.10307 0.40011 0.0
H236 H 0.92601 0.357 0.35809 0.0
H237 H 0.90592 0.39338 0.36189 0.0
H238 H 0.87504 0.35817 0.41992 0.0
H239 H 0.89367 0.32095 0.41557 0.0
Nd240 Nd 0.1639 0.32427 0.6265 0.0
Nd241 Nd 0.13359 0.36595 0.64027 0.0
C242 C 0.17845 0.28618 0.60795 0.0
C243 C 0.18286 0.25947 0.61315 0.0
C244 C 0.20539 0.25515 0.60327 0.0
C245 C 0.21113 0.23097 0.60862 0.0
C246 C 0.19435 0.21052 0.62395 0.0
C247 C 0.17156 0.2148 0.63374 0.0
C248 C 0.16599 0.23914 0.62846 0.0
C249 C 0.17368 0.33736 0.66584 0.0
C250 C 0.09482 0.29122 0.64868 0.0
C251 C 0.12204 0.41012 0.65288 0.0
C252 C 0.13713 0.44471 0.65127 0.0
C253 C 0.13322 0.46203 0.66604 0.0
C254 C 0.14479 0.49436 0.66382 0.0
C255 C 0.16031 0.51005 0.64667 0.0
C256 C 0.16506 0.49264 0.63217 0.0
C257 C 0.15375 0.46042 0.63449 0.0
C258 C 0.111 0.33364 0.60635 0.0
C259 C 0.20667 0.40038 0.62256 0.0
O260 O 0.14966 0.28152 0.60881 0.0
O261 O 0.19962 0.31359 0.61483 0.0
O262 O 0.18357 0.32085 0.65672 0.0
O263 O 0.16028 0.3459 0.65386 0.0
O264 O 0.11388 0.28831 0.63631 0.0
O265 O 0.09941 0.31885 0.65488 0.0
O266 O 0.13622 0.39878 0.66353 0.0
O267 O 0.11058 0.39444 0.63677 0.0
O268 O 0.09411 0.33833 0.6189 0.0
O269 O 0.13996 0.34769 0.61115 0.0
O270 O 0.18418 0.40305 0.6314 0.0
O271 O 0.20314 0.37294 0.61728 0.0
H272 H 0.21877 0.27069 0.59149 0.0
H273 H 0.22855 0.22812 0.60063 0.0
H274 H 0.15848 0.1997 0.64575 0.0
H275 H 0.14876 0.2423 0.63647 0.0
H276 H 0.12063 0.45043 0.67915 0.0
H277 H 0.14128 0.50697 0.67552 0.0
H278 H 0.17654 0.50359 0.61867 0.0
H279 H 0.15721 0.44759 0.62289 0.0
Nd280 Nd 0.27177 0.91276 0.89795 0.0
Nd281 Nd 0.20507 0.87949 0.91159 0.0
C282 C 0.3279 0.92874 0.88325 0.0
C283 C 0.3504 0.91716 0.88457 0.0
C284 C 0.381 0.93557 0.8773 0.0
C285 C 0.4035 0.92626 0.87992 0.0
C286 C 0.3958 0.89828 0.88987 0.0
C287 C 0.36483 0.87953 0.89678 0.0
C288 C 0.34241 0.88899 0.89424 0.0
C289 C 0.26517 0.9312 0.93412 0.0
C290 C 0.23994 0.8408 0.91557 0.0
C291 C 0.14835 0.86057 0.92627 0.0
C292 C 0.11737 0.85652 0.92051 0.0
C293 C 0.10576 0.8739 0.93001 0.0
C294 C 0.07557 0.86874 0.92589 0.0
C295 C 0.05611 0.84585 0.91226 0.0
C296 C 0.06808 0.829 0.90239 0.0
C297 C 0.09835 0.83426 0.90646 0.0
C298 C 0.21238 0.86883 0.87305 0.0
C299 C 0.2355 0.95166 0.89441 0.0
O300 O 0.30138 0.91101 0.87409 0.0
O301 O 0.32388 0.94051 0.89922 0.0
O302 O 0.28453 0.94957 0.92106 0.0
O303 O 0.25072 0.90258 0.92861 0.0
O304 O 0.25952 0.86128 0.90287 0.0
O305 O 0.21989 0.8464 0.92489 0.0
O306 O 0.17193 0.88929 0.92815 0.0
O307 O 0.15674 0.84161 0.91851 0.0
O308 O 0.19192 0.84758 0.88448 0.0
O309 O 0.2266 0.89478 0.88164 0.0
O310 O 0.21422 0.92934 0.90561 0.0
O311 O 0.25901 0.94925 0.88679 0.0
H312 H 0.38768 0.95747 0.86989 0.0
H313 H 0.42699 0.94105 0.87421 0.0
H314 H 0.35818 0.85805 0.90468 0.0
H315 H 0.31907 0.87468 0.90023 0.0
H316 H 0.11987 0.89118 0.9409 0.0
H317 H 0.0674 0.88257 0.93353 0.0
H318 H 0.05371 0.81102 0.89194 0.0
H319 H 0.10653 0.82038 0.89888 0.0
Nd320 Nd 0.71354 0.84118 0.62652 0.0
Nd321 Nd 0.67276 0.76921 0.63962 0.0
C322 C 0.75139 0.89421 0.60831 0.0
C323 C 0.7781 0.92503 0.61389 0.0
C324 C 0.78571 0.95156 0.60255 0.0
C325 C 0.81008 0.98125 0.60817 0.0
C326 C 0.82734 0.98494 0.62525 0.0
C327 C 0.81965 0.95817 0.63655 0.0
C328 C 0.79517 0.92851 0.63096 0.0
C329 C 0.70079 0.83731 0.66591 0.0
C330 C 0.74746 0.80557 0.64817 0.0
C331 C 0.62893 0.71222 0.65074 0.0
C332 C 0.59437 0.69104 0.64817 0.0
C333 C 0.57236 0.6917 0.66096 0.0
C334 C 0.53991 0.67123 0.65831 0.0
C335 C 0.52875 0.64974 0.64277 0.0
C336 C 0.55082 0.64902 0.63011 0.0
C337 C 0.58311 0.66922 0.63283 0.0
C338 C 0.70478 0.78036 0.60544 0.0
C339 C 0.63745 0.80756 0.62283 0.0
O340 O 0.75617 0.8702 0.60884 0.0
O341 O 0.72398 0.88769 0.61537 0.0
O342 O 0.71682 0.86377 0.65679 0.0
O343 O 0.69238 0.81539 0.65393 0.0
O344 O 0.75001 0.82748 0.63589 0.0
O345 O 0.71992 0.78238 0.65439 0.0
O346 O 0.63887 0.7371 0.66186 0.0
O347 O 0.6461 0.71788 0.63517 0.0
O348 O 0.70123 0.75908 0.61788 0.0
O349 O 0.69018 0.79447 0.61062 0.0
O350 O 0.63514 0.78269 0.63184 0.0
O351 O 0.66473 0.83126 0.61712 0.0
H352 H 0.77266 0.94934 0.58939 0.0
H353 H 0.81563 1.00127 0.59901 0.0
H354 H 0.8322 0.96022 0.64989 0.0
H355 H 0.78938 0.90833 0.64005 0.0
H356 H 0.58018 0.708 0.67303 0.0
H357 H 0.52353 0.67245 0.6683 0.0
H358 H 0.54315 0.63238 0.61823 0.0
H359 H 0.59931 0.66761 0.62286 0.0
Nd360 Nd 0.13333 0.374 0.898 0.0
Nd361 Nd 0.16202 0.33167 0.91393 0.0
C362 C 0.12477 0.41852 0.88251 0.0
C363 C 0.13789 0.45257 0.88602 0.0
C364 C 0.14177 0.47274 0.87056 0.0
C365 C 0.15305 0.50481 0.87388 0.0
C366 C 0.16044 0.51729 0.89277 0.0
C367 C 0.15699 0.49705 0.90818 0.0
C368 C 0.14603 0.4651 0.90483 0.0
C369 C 0.11175 0.34656 0.93334 0.0
C370 C 0.20566 0.40796 0.91707 0.0
C371 C 0.17572 0.29401 0.9337 0.0
C372 C 0.18145 0.26799 0.92889 0.0
C373 C 0.17192 0.24277 0.94177 0.0
C374 C 0.17748 0.2181 0.93745 0.0
C375 C 0.19281 0.21825 0.92017 0.0
C376 C 0.20224 0.24356 0.90726 0.0
C377 C 0.19649 0.2681 0.91153 0.0
C378 C 0.17114 0.34135 0.87425 0.0
C379 C 0.0924 0.29862 0.89264 0.0
O380 O 0.1438 0.40985 0.87504 0.0
O381 O 0.10709 0.39971 0.8963 0.0
O382 O 0.09536 0.35231 0.92094 0.0
O383 O 0.14016 0.35809 0.92781 0.0
O384 O 0.18349 0.41088 0.9079 0.0
O385 O 0.20179 0.38047 0.92253 0.0
O386 O 0.14679 0.28847 0.93151 0.0
O387 O 0.19702 0.32202 0.9277 0.0
O388 O 0.18089 0.32537 0.88412 0.0
O389 O 0.1583 0.35118 0.88573 0.0
O390 O 0.11083 0.29657 0.90593 0.0
O391 O 0.09828 0.32573 0.88474 0.0
H392 H 0.13572 0.46361 0.85593 0.0
H393 H 0.15526 0.5197 0.86171 0.0
H394 H 0.16291 0.50597 0.92285 0.0
H395 H 0.14362 0.45012 0.917 0.0
H396 H 0.16029 0.24222 0.95522 0.0
H397 H 0.17018 0.19911 0.94778 0.0
H398 H 0.2137 0.24419 0.89373 0.0
H399 H 0.20385 0.28719 0.90126 0.0
Nd400 Nd 0.19697 0.87264 0.6256 0.0
Nd401 Nd 0.26913 0.90412 0.64042 0.0
C402 C 0.14444 0.85747 0.60662 0.0
C403 C 0.11368 0.85386 0.61191 0.0
C404 C 0.087 0.83472 0.60065 0.0
C405 C 0.05734 0.82973 0.60612 0.0
C406 C 0.05382 0.84383 0.62297 0.0
C407 C 0.08074 0.86316 0.63417 0.0
C408 C 0.11037 0.86803 0.62872 0.0
C409 C 0.20001 0.86443 0.66519 0.0
C410 C 0.23235 0.94269 0.64656 0.0
C411 C 0.32389 0.91523 0.65479 0.0
C412 C 0.34556 0.90289 0.65125 0.0
C413 C 0.35918 0.89568 0.6669 0.0
C414 C 0.3807 0.88522 0.66366 0.0
C415 C 0.38925 0.88203 0.64468 0.0
C416 C 0.37511 0.88873 0.62905 0.0
C417 C 0.35341 0.89886 0.63228 0.0
C418 C 0.26025 0.92328 0.605 0.0
C419 C 0.23183 0.8311 0.62247 0.0
O420 O 0.16873 0.88615 0.60702 0.0
O421 O 0.15056 0.83659 0.61412 0.0
O422 O 0.17356 0.85326 0.65584 0.0
O423 O 0.22193 0.87814 0.65331 0.0
O424 O 0.21115 0.9233 0.63389 0.0
O425 O 0.25478 0.93801 0.65391 0.0
O426 O 0.29692 0.8963 0.66316 0.0
O427 O 0.32116 0.93162 0.64075 0.0
O428 O 0.28224 0.94121 0.61708 0.0
O429 O 0.24484 0.89511 0.61103 0.0
O430 O 0.25666 0.85386 0.63149 0.0
O431 O 0.20766 0.83405 0.61681 0.0
H432 H 0.08908 0.82344 0.58769 0.0
H433 H 0.0372 0.81504 0.59704 0.0
H434 H 0.07884 0.87407 0.64734 0.0
H435 H 0.13065 0.88257 0.63776 0.0
H436 H 0.35346 0.89852 0.68165 0.0
H437 H 0.39128 0.88041 0.67602 0.0
H438 H 0.38079 0.88607 0.61426 0.0
H439 H 0.34302 0.90384 0.61989 0.0
Nd440 Nd 0.66902 0.77308 0.89873 0.0
Nd441 Nd 0.71678 0.84385 0.91394 0.0
C442 C 0.62454 0.72308 0.88046 0.0
C443 C 0.59133 0.69987 0.88459 0.0
C444 C 0.57142 0.68107 0.86966 0.0
C445 C 0.5399 0.65881 0.87352 0.0
C446 C 0.52767 0.65484 0.89244 0.0
C447 C 0.54779 0.67405 0.90733 0.0
C448 C 0.57925 0.69638 0.90343 0.0
C449 C 0.68683 0.77642 0.93661 0.0
C450 C 0.64084 0.81895 0.91323 0.0
C451 C 0.75644 0.89571 0.93277 0.0
C452 C 0.78067 0.92818 0.92756 0.0
C453 C 0.80985 0.94243 0.93711 0.0
C454 C 0.83345 0.9728 0.93208 0.0
C455 C 0.82832 0.98968 0.91741 0.0
C456 C 0.79891 0.97546 0.90797 0.0
C457 C 0.77538 0.94494 0.91292 0.0
C458 C 0.71177 0.84099 0.87367 0.0
C459 C 0.74299 0.7975 0.90096 0.0
O460 O 0.63069 0.75176 0.87681 0.0
O461 O 0.64551 0.72226 0.89185 0.0
O462 O 0.67685 0.7516 0.92584 0.0
O463 O 0.68285 0.79728 0.92827 0.0
O464 O 0.63538 0.79175 0.90586 0.0
O465 O 0.66928 0.84144 0.91849 0.0
O466 O 0.76289 0.87355 0.92848 0.0
O467 O 0.72699 0.88749 0.92937 0.0
O468 O 0.72884 0.86706 0.88299 0.0
O469 O 0.69921 0.8196 0.88591 0.0
O470 O 0.74424 0.81755 0.91419 0.0
O471 O 0.7181 0.78174 0.88951 0.0
H472 H 0.58025 0.6836 0.855 0.0
H473 H 0.52506 0.64489 0.86161 0.0
H474 H 0.53942 0.67149 0.9221 0.0
H475 H 0.59423 0.71079 0.91516 0.0
H476 H 0.81446 0.92996 0.94844 0.0
H477 H 0.85568 0.98319 0.9398 0.0
H478 H 0.79432 0.98767 0.89648 0.0
H479 H 0.75316 0.9344 0.90517 0.0
C480 C 1.01548 0.24899 0.15289 0.0
C481 C 0.98538 0.22234 0.15453 0.0
C482 C 0.04239 0.24578 0.15296 0.0
C483 C 0.0634 0.18473 0.1417 0.0
H484 H 0.14639 0.24658 0.16019 0.0
C485 C 0.16821 0.16271 0.13787 0.0
C486 C 0.19685 0.18753 0.13092 0.0
C487 C 0.14333 0.16771 0.14268 0.0
C488 C 0.12336 0.22918 0.15486 0.0
H489 H 0.95975 0.17199 0.15907 0.0
H490 H 1.00643 0.16653 0.16023 0.0
H491 H 0.10143 0.25416 0.16633 0.0
H492 H 0.22208 0.23734 0.12418 0.0
H493 H 0.17849 0.24598 0.1324 0.0
H494 H 0.08516 0.15982 0.13019 0.0
C495 C 1.0095 0.18975 0.15813 0.0
C496 C 0.09759 0.23353 0.15837 0.0
C497 C 0.98274 0.1929 0.15773 0.0
C498 C 0.2002 0.21762 0.12926 0.0
C499 C 0.17535 0.22266 0.13419 0.0
C500 C 0.08901 0.18032 0.13832 0.0
C501 C 0.03959 0.21589 0.15487 0.0
C502 C 0.06722 0.21131 0.15184 0.0
C503 C 0.14649 0.19768 0.14075 0.0
C504 C 0.11932 0.20245 0.14483 0.0
H505 H 1.01806 0.27187 0.15009 0.0
H506 H 0.06512 0.26643 0.15034 0.0
H507 H 0.04064 0.16752 0.13593 0.0
H508 H 0.16474 0.13921 0.13921 0.0
H509 H 0.12152 0.14802 0.14788 0.0
C510 C 0.26512 0.02492 0.39334 0.0
C511 C 0.26803 0.05436 0.3973 0.0
C512 C 0.23552 0.99731 0.39452 0.0
C513 C 0.16 0.96832 0.41979 0.0
H514 H 0.12472 0.90024 0.38244 0.0
C515 C 0.02954 0.87285 0.42294 0.0
C516 C 1.02118 0.84155 0.41899 0.0
C517 C 0.06019 0.89741 0.41955 0.0
C518 C 0.13441 0.91887 0.39314 0.0
H519 H 0.24182 0.07802 0.40419 0.0
H520 H 0.19092 0.03046 0.40611 0.0
H521 H 0.17769 0.94534 0.37731 0.0
H522 H 0.03864 0.81161 0.40825 0.0
H523 H 0.09234 0.85453 0.4025 0.0
H524 H 0.11726 0.94224 0.43573 0.0
C525 C 0.21136 0.02842 0.40255 0.0
C526 C 0.16473 0.94468 0.39017 0.0
C527 C 0.24063 0.05575 0.40136 0.0
C528 C 0.04422 0.83548 0.41131 0.0
C529 C 0.07501 0.86011 0.40798 0.0
C530 C 0.12994 0.9426 0.4228 0.0
C531 C 0.20851 0.99881 0.39973 0.0
C532 C 0.17756 0.96998 0.4033 0.0
C533 C 0.08347 0.8914 0.41222 0.0
C534 C 0.11642 0.91778 0.40935 0.0
H535 H 0.28579 0.02307 0.39023 0.0
H536 H 0.234 0.97477 0.39221 0.0
H537 H 0.1695 0.98709 0.43041 0.0
H538 H 1.01226 0.87845 0.42849 0.0
H539 H 0.06556 0.92123 0.42257 0.0
C540 C 0.87451 1.00752 0.13472 0.0
C541 C 0.84976 1.01277 0.12956 0.0
C542 C 0.86846 0.97736 0.13967 0.0
C543 C 0.80817 0.89296 0.13413 0.0
H544 H 0.85953 0.88188 0.17262 0.0
C545 C 0.79082 0.77006 0.15235 0.0
C546 C 0.81883 0.76886 0.15116 0.0
C547 C 0.7919 0.79916 0.15303 0.0
C548 C 0.84495 0.88458 0.16185 0.0
H549 H 0.79908 0.99048 0.12611 0.0
H550 H 0.78846 0.93797 0.13494 0.0
H551 H 0.86656 0.93407 0.16705 0.0
H552 H 0.86982 0.79691 0.15093 0.0
H553 H 0.87171 0.84734 0.15251 0.0
H554 H 0.78682 0.84344 0.12884 0.0
C555 C 0.81266 0.95702 0.13478 0.0
C556 C 0.8491 0.91455 0.15856 0.0
C557 C 0.81875 0.98716 0.12971 0.0
C558 C 0.84784 0.79711 0.15185 0.0
C559 C 0.84892 0.82603 0.15283 0.0
C560 C 0.80388 0.86295 0.13753 0.0
C561 C 0.83745 0.95164 0.13972 0.0
C562 C 0.83122 0.91929 0.14437 0.0
C563 C 0.821 0.82748 0.15287 0.0
C564 C 0.82266 0.85851 0.15116 0.0
H565 H 0.8987 0.02662 0.13451 0.0
H566 H 0.88825 0.97412 0.14302 0.0
H567 H 0.79421 0.89565 0.12293 0.0
H568 H 0.76814 0.74866 0.15163 0.0
H569 H 0.76999 0.79954 0.15318 0.0
C570 C 0.16895 0.16865 0.3981 0.0
C571 C 0.19828 0.19439 0.40337 0.0
C572 C 0.14344 0.1729 0.39362 0.0
C573 C 0.12137 0.23279 0.38024 0.0
H574 H 0.04131 0.17283 0.4031 0.0
C575 C 1.01285 0.25166 0.38538 0.0
C576 C 0.98283 0.22468 0.38488 0.0
C577 C 0.04001 0.24886 0.38467 0.0
C578 C 0.06328 0.18954 0.39626 0.0
H579 H 0.22403 0.24503 0.40723 0.0
H580 H 0.17944 0.25235 0.39969 0.0
H581 H 0.08663 0.16599 0.4075 0.0
H582 H 0.95749 0.17403 0.3817 0.0
H583 H 1.00444 0.1692 0.37955 0.0
H584 H 0.09782 0.25648 0.36914 0.0
C585 C 0.17618 0.22887 0.39895 0.0
C586 C 0.08938 0.1856 0.39884 0.0
C587 C 0.20167 0.22461 0.4035 0.0
C588 C 0.9804 0.19521 0.38221 0.0
C589 C 1.00735 0.19244 0.38122 0.0
C590 C 0.09511 0.23669 0.37758 0.0
C591 C 0.1466 0.20301 0.39423 0.0
C592 C 0.11878 0.20713 0.39089 0.0
C593 C 0.03751 0.21903 0.38328 0.0
C594 C 0.06567 0.21504 0.38554 0.0
H595 H 0.1654 0.14504 0.39795 0.0
H596 H 0.12111 0.1525 0.3898 0.0
H597 H 0.14363 0.24971 0.37379 0.0
H598 H 1.01532 0.27461 0.38771 0.0
H599 H 0.06282 0.26985 0.38635 0.0
C600 C 0.25001 0.05784 0.15853 0.0
C601 C 0.27713 0.056 0.15463 0.0
C602 C 0.22034 0.03078 0.15871 0.0
C603 C 0.1773 0.94293 0.15705 0.0
H604 H 0.11447 0.95556 0.13075 0.0
C605 C 0.05815 0.84065 0.12808 0.0
C606 C 0.03123 0.84368 0.13031 0.0
C607 C 0.08811 0.86547 0.13297 0.0
C608 C 0.13154 0.95162 0.13836 0.0
H609 H 0.29484 0.02443 0.14859 0.0
H610 H 0.24272 0.97681 0.1485 0.0
H611 H 0.16658 1.00015 0.13662 0.0
H612 H 1.01487 0.87525 0.1396 0.0
H613 H 0.06697 0.91834 0.14826 0.0
H614 H 0.14204 0.89401 0.15826 0.0
C615 C 0.24438 0.99912 0.15186 0.0
C616 C 0.16152 0.97728 0.14181 0.0
C617 C 0.27428 0.02634 0.152 0.0
C618 C 0.03501 0.87199 0.13782 0.0
C619 C 0.06495 0.89682 0.14261 0.0
C620 C 0.1472 0.91712 0.15349 0.0
C621 C 0.21692 1.00118 0.1545 0.0
C622 C 0.18483 0.97341 0.1513 0.0
C623 C 0.09192 0.894 0.14009 0.0
C624 C 0.12393 0.9212 0.14415 0.0
H625 H 0.25163 0.0805 0.16056 0.0
H626 H 0.19992 0.03326 0.16138 0.0
H627 H 0.19453 0.93904 0.16448 0.0
H628 H 0.05607 0.81905 0.12256 0.0
H629 H 0.10838 0.86256 0.13073 0.0
C630 C 0.80017 0.7767 0.37872 0.0
C631 C 0.79763 0.76114 0.39627 0.0
C632 C 0.80321 0.80675 0.37884 0.0
C633 C 0.83265 0.87438 0.41196 0.0
H634 H 0.79384 0.90745 0.37738 0.0
C635 C 0.83643 0.99021 0.42843 0.0
C636 C 0.8443 1.01204 0.4133 0.0
C637 C 0.82968 0.95954 0.42465 0.0
C638 C 0.80507 0.89856 0.387 0.0
H639 H 0.79355 0.7632 0.42741 0.0
H640 H 0.79763 0.81449 0.42759 0.0
H641 H 0.7824 0.85296 0.37346 0.0
H642 H 0.85068 0.01831 0.38217 0.0
H643 H 0.83851 0.9644 0.37558 0.0
H644 H 0.8551 0.91945 0.42562 0.0
C645 C 0.7984 0.80437 0.4138 0.0
C646 C 0.79852 0.86743 0.38475 0.0
C647 C 0.79575 0.77483 0.41369 0.0
C648 C 0.84448 1.00208 0.39418 0.0
C649 C 0.83753 0.97121 0.39038 0.0
C650 C 0.83906 0.90521 0.41422 0.0
C651 C 0.80358 0.82133 0.39651 0.0
C652 C 0.81175 0.85484 0.39751 0.0
C653 C 0.83048 0.94976 0.40562 0.0
C654 C 0.82492 0.91752 0.40204 0.0
H655 H 0.80188 0.76662 0.36513 0.0
H656 H 0.80706 0.81924 0.36527 0.0
H657 H 0.844 0.86574 0.42168 0.0
H658 H 0.83524 0.99672 0.44327 0.0
H659 H 0.82372 0.94337 0.43668 0.0
C660 C 0.20232 0.97079 0.65084 0.0
C661 C 0.23139 0.97161 0.65122 0.0
C662 C 0.20102 0.99852 0.65181 0.0
C663 C 0.2469 0.08116 0.63842 0.0
H664 H 0.18158 0.08773 0.66605 0.0
C665 C 0.23169 0.19041 0.63074 0.0
C666 C 0.20065 0.1849 0.6297 0.0
C667 C 0.23759 0.16622 0.63582 0.0
C668 C 0.19979 0.08622 0.65809 0.0
H669 H 0.28193 1.00205 0.65353 0.0
H670 H 0.27973 0.05093 0.65504 0.0
H671 H 0.18851 0.04249 0.67157 0.0
H672 H 0.15148 0.14947 0.63308 0.0
H673 H 0.16163 0.1072 0.6416 0.0
H674 H 0.25746 0.12418 0.62436 0.0
C675 C 0.25792 0.02866 0.65408 0.0
C676 C 0.20388 0.06035 0.66136 0.0
C677 C 0.25918 1.00072 0.65341 0.0
C678 C 0.17568 0.15464 0.63399 0.0
C679 C 0.18155 0.13039 0.63895 0.0
C680 C 0.24267 0.10695 0.63504 0.0
C681 C 0.22882 0.02786 0.65292 0.0
C682 C 0.22713 0.05724 0.65132 0.0
C683 C 0.2126 0.13579 0.6399 0.0
C684 C 0.21869 0.10957 0.64458 0.0
H685 H 0.1805 0.94868 0.64912 0.0
H686 H 0.17826 0.99702 0.6507 0.0
H687 H 0.26473 0.07926 0.63025 0.0
H688 H 0.25151 0.21358 0.62781 0.0
H689 H 0.26182 0.17146 0.63669 0.0
C690 C 1.00954 0.83214 0.89035 0.0
C691 C 1.02309 0.83879 0.909 0.0
C692 C 0.97848 0.82564 0.88752 0.0
C693 C 0.91788 0.8383 0.91078 0.0
H694 H 0.85804 0.77012 0.87809 0.0
C695 C 0.78753 0.79616 0.91691 0.0
C696 C 0.77078 0.7933 0.89979 0.0
C697 C 0.81716 0.79884 0.91626 0.0
C698 C 0.87462 0.78943 0.88709 0.0
H699 H 1.01395 0.8425 0.93935 0.0
H700 H 0.9603 0.83151 0.93443 0.0
H701 H 0.9128 0.7814 0.88023 0.0
H702 H 0.77094 0.78891 0.86859 0.0
H703 H 0.82347 0.79372 0.86739 0.0
H704 H 0.88004 0.84628 0.91784 0.0
C705 C 0.9738 0.83192 0.92191 0.0
C706 C 0.90594 0.79592 0.88831 0.0
C707 C 1.00467 0.83832 0.92473 0.0
C708 C 0.78335 0.79095 0.88199 0.0
C709 C 0.81339 0.79382 0.88132 0.0
C710 C 0.88679 0.83182 0.90959 0.0
C711 C 0.96036 0.82576 0.90327 0.0
C712 C 0.92774 0.82004 0.90052 0.0
C713 C 0.83104 0.799 0.89845 0.0
C714 C 0.86458 0.80689 0.8981 0.0
H715 H 1.0231 0.83251 0.87788 0.0
H716 H 0.96891 0.82119 0.87297 0.0
H717 H 0.93421 0.85758 0.91989 0.0
H718 H 0.7782 0.79758 0.93087 0.0
H719 H 0.82973 0.80191 0.92974 0.0
C720 C 0.88195 0.02018 0.63828 0.0
C721 C 0.85344 0.01654 0.63113 0.0
C722 C 0.90692 0.04997 0.64311 0.0
C723 C 0.92751 0.13176 0.65477 0.0
H724 H 1.01004 0.15161 0.63623 0.0
C725 C 0.03623 0.25873 0.65225 0.0
C726 C 0.06617 0.26179 0.65413 0.0
C727 C 1.0091 0.22881 0.65246 0.0
C728 C 0.98733 0.14641 0.64189 0.0
H729 H 0.8285 0.04138 0.62408 0.0
H730 H 0.87226 0.09346 0.63232 0.0
H731 H 0.96525 0.09959 0.63064 0.0
H732 H 0.09132 0.23668 0.65922 0.0
H733 H 0.04428 0.18492 0.66061 0.0
H734 H 0.94978 0.17885 0.66595 0.0
C735 C 0.87523 0.07321 0.63425 0.0
C736 C 0.96156 0.11649 0.6386 0.0
C737 C 0.85029 0.0434 0.62932 0.0
C738 C 0.06846 0.23488 0.6577 0.0
C739 C 0.04149 0.20519 0.65823 0.0
C740 C 0.95344 0.16179 0.65818 0.0
C741 C 0.90399 0.07689 0.64098 0.0
C742 C 0.93132 0.10874 0.64497 0.0
C743 C 1.01155 0.20156 0.65473 0.0
C744 C 0.98374 0.16949 0.6518 0.0
H745 H 0.88528 1.00006 0.63974 0.0
H746 H 0.92864 0.05194 0.64844 0.0
H747 H 0.90452 0.12646 0.65998 0.0
H748 H 0.03393 0.27913 0.64917 0.0
H749 H 0.9865 0.22697 0.64964 0.0
C750 C 0.17542 0.16071 0.91905 0.0
C751 C 0.1988 0.19204 0.91562 0.0
C752 C 0.18109 0.13605 0.91514 0.0
C753 C 0.23383 0.11507 0.88828 0.0
H754 H 0.19941 0.04534 0.92442 0.0
C755 C 0.25926 1.00981 0.888 0.0
C756 C 0.23281 0.98016 0.89168 0.0
C757 C 0.2568 0.03712 0.88906 0.0
C758 C 0.209 0.06453 0.9141 0.0
H759 H 0.24651 0.22199 0.9053 0.0
H760 H 0.25658 0.1789 0.8987 0.0
H761 H 0.19212 0.09004 0.93039 0.0
H762 H 0.18264 0.95569 0.89781 0.0
H763 H 0.17845 1.0028 0.89946 0.0
H764 H 0.25099 0.08922 0.87215 0.0
C765 C 0.23365 0.17337 0.90413 0.0
C766 C 0.20473 0.09015 0.91749 0.0
C767 C 0.2279 0.19808 0.90795 0.0
C768 C 0.20362 0.97819 0.89518 0.0
C769 C 0.2012 1.00522 0.89623 0.0
C770 C 0.23829 0.08935 0.88495 0.0
C771 C 0.21039 0.14202 0.90783 0.0
C772 C 0.21658 0.11555 0.90448 0.0
C773 C 0.2279 0.03506 0.89384 0.0
C774 C 0.2254 0.06356 0.89766 0.0
H775 H 0.15255 0.15519 0.9246 0.0
H776 H 0.16233 0.1122 0.91775 0.0
H777 H 0.24318 0.13415 0.8779 0.0
H778 H 0.28208 1.01206 0.88535 0.0
H779 H 0.27777 0.05985 0.8871 0.0
C780 C 1.01875 0.86358 0.63565 0.0
C781 C 1.02223 0.83853 0.62877 0.0
C782 C 0.989 0.85888 0.64055 0.0
C783 C 0.90733 0.79795 0.65306 0.0
H784 H 0.88701 0.86008 0.63427 0.0
C785 C 0.7801 0.77962 0.65161 0.0
C786 C 0.77713 0.8065 0.65336 0.0
C787 C 0.81006 0.78243 0.65154 0.0
C788 C 0.89236 0.84274 0.64 0.0
H789 H 0.99713 0.78863 0.62225 0.0
H790 H 0.94513 0.78051 0.6306 0.0
H791 H 0.93895 0.8672 0.62829 0.0
H792 H 0.80254 0.85685 0.65797 0.0
H793 H 0.85441 0.86162 0.65887 0.0
H794 H 0.86048 0.77343 0.66471 0.0
C795 C 0.96548 0.80378 0.63227 0.0
C796 C 0.92223 0.84682 0.63649 0.0
C797 C 0.99525 0.80852 0.62727 0.0
C798 C 0.80425 0.83577 0.65654 0.0
C799 C 0.834 0.83852 0.65679 0.0
C800 C 0.87736 0.79393 0.65669 0.0
C801 C 0.96196 0.82898 0.63877 0.0
C802 C 0.93014 0.82452 0.64295 0.0
C803 C 0.83747 0.81215 0.65341 0.0
C804 C 0.8695 0.81634 0.65023 0.0
H805 H 0.03896 0.88703 0.63687 0.0
H806 H 0.98718 0.87874 0.6457 0.0
H807 H 0.91277 0.78044 0.65836 0.0
H808 H 0.75954 0.75687 0.64883 0.0
H809 H 0.81178 0.76162 0.64884 0.0
C810 C 0.06595 0.2414 0.8864 0.0
C811 C 0.06373 0.26876 0.88763 0.0
C812 C 0.03894 0.21178 0.8866 0.0
C813 C 0.95204 0.1667 0.88273 0.0
H814 H 0.96143 0.11227 0.91958 0.0
C815 C 0.84734 0.04631 0.90864 0.0
C816 C 0.85381 0.02179 0.91188 0.0
C817 C 0.87171 0.07674 0.90422 0.0
C818 C 0.95841 0.12687 0.90902 0.0
H819 H 0.03148 0.28676 0.88886 0.0
H820 H 0.9837 0.23447 0.88928 0.0
H821 H 1.00551 0.16443 0.91337 0.0
H822 H 0.89075 1.00975 0.91204 0.0
H823 H 0.933 0.0624 0.90414 0.0
H824 H 0.90473 0.12875 0.87842 0.0
C825 C 1.0065 0.23609 0.888 0.0
C826 C 0.98376 0.1569 0.90547 0.0
C827 C 0.03377 0.266 0.88766 0.0
C828 C 0.88503 0.02822 0.91006 0.0
C829 C 0.90929 0.05849 0.90554 0.0
C830 C 0.92655 0.13639 0.88624 0.0
C831 C 1.00894 0.20869 0.88828 0.0
C832 C 0.9811 0.17709 0.89212 0.0
C833 C 0.9031 0.08332 0.90286 0.0
C834 C 0.92956 0.11595 0.89929 0.0
H835 H 0.08878 0.24289 0.88627 0.0
H836 H 0.04164 0.19119 0.8863 0.0
H837 H 0.94925 0.18171 0.87238 0.0
H838 H 0.82355 0.04217 0.91005 0.0
H839 H 0.86606 0.09528 0.90241 0.0
C840 C 0.36358 0.19138 0.34348 0.0
C841 C 0.36189 0.16617 0.35403 0.0
C842 C 0.3657 0.19196 0.32326 0.0
C843 C 0.35134 0.13902 0.28108 0.0
H844 H 0.39444 0.21796 0.25309 0.0
C845 C 0.36602 0.1464 0.19755 0.0
C846 C 0.35577 0.1653 0.18847 0.0
C847 C 0.36959 0.14721 0.2177 0.0
C848 C 0.38231 0.19576 0.26075 0.0
H849 H 0.36228 0.12237 0.3519 0.0
H850 H 0.36738 0.12393 0.31672 0.0
H851 H 0.39652 0.21814 0.28841 0.0
H852 H 0.34188 0.2003 0.1931 0.0
H853 H 0.34884 0.20229 0.22829 0.0
H854 H 0.33771 0.11677 0.25325 0.0
C855 C 0.36598 0.14281 0.32388 0.0
C856 C 0.3833 0.19581 0.281 0.0
C857 C 0.36333 0.142 0.34408 0.0
C858 C 0.34985 0.18553 0.19978 0.0
C859 C 0.35395 0.18676 0.21987 0.0
C860 C 0.35082 0.13898 0.26082 0.0
C861 C 0.36671 0.16757 0.31314 0.0
C862 C 0.36743 0.16746 0.29149 0.0
C863 C 0.3635 0.16735 0.22905 0.0
C864 C 0.36593 0.16736 0.25047 0.0
H865 H 0.36238 0.21028 0.35079 0.0
H866 H 0.36564 0.21116 0.31559 0.0
H867 H 0.33832 0.11674 0.28854 0.0
H868 H 0.37054 0.13045 0.18915 0.0
H869 H 0.37708 0.13209 0.22443 0.0
C870 C 0.8142 0.68156 0.34242 0.0
C871 C 0.84327 0.6971 0.35215 0.0
C872 C 0.81312 0.6797 0.32215 0.0
C873 C 0.86185 0.71857 0.27884 0.0
H874 H 0.80225 0.64213 0.25209 0.0
C875 C 0.87433 0.70188 0.19782 0.0
C876 C 0.84708 0.68932 0.1863 0.0
C877 C 0.87218 0.70144 0.21799 0.0
C878 C 0.8188 0.66374 0.25935 0.0
H879 H 0.89393 0.72257 0.34847 0.0
H880 H 0.89218 0.71903 0.31322 0.0
H881 H 0.80172 0.64417 0.28751 0.0
H882 H 0.79612 0.66579 0.18678 0.0
H883 H 0.79222 0.66489 0.22226 0.0
H884 H 0.87913 0.73809 0.25081 0.0
C885 C 0.87015 0.70868 0.32111 0.0
C886 C 0.81849 0.66493 0.27964 0.0
C887 C 0.8712 0.71056 0.34132 0.0
C888 C 0.81748 0.67551 0.19535 0.0
C889 C 0.81528 0.67497 0.21563 0.0
C890 C 0.86221 0.71734 0.25863 0.0
C891 C 0.84111 0.69342 0.31123 0.0
C892 C 0.84029 0.69227 0.28964 0.0
C893 C 0.84269 0.68843 0.22716 0.0
C894 C 0.84097 0.68982 0.24864 0.0
H895 H 0.79231 0.67123 0.35044 0.0
H896 H 0.79036 0.66808 0.31502 0.0
H897 H 0.87846 0.74026 0.28599 0.0
H898 H 0.89748 0.71257 0.19124 0.0
H899 H 0.89372 0.71147 0.22642 0.0
C900 C 0.89128 0.22472 0.19618 0.0
C901 C 0.87458 0.19544 0.18689 0.0
C902 C 0.88977 0.22693 0.21634 0.0
C903 C 0.84262 0.18332 0.25934 0.0
H904 H 0.92041 0.23462 0.28753 0.0
C905 C 0.85465 0.16809 0.34113 0.0
C906 C 0.87271 0.1951 0.35238 0.0
C907 C 0.85351 0.17027 0.32099 0.0
C908 C 0.89838 0.22055 0.27988 0.0
H909 H 0.84306 0.14556 0.19127 0.0
H910 H 0.84056 0.14927 0.22635 0.0
H911 H 0.9208 0.2348 0.25219 0.0
H912 H 0.90384 0.24551 0.35146 0.0
H913 H 0.90161 0.24953 0.31623 0.0
H914 H 0.8203 0.16866 0.28702 0.0
C915 C 0.85448 0.17066 0.21815 0.0
C916 C 0.89861 0.22067 0.25961 0.0
C917 C 0.85606 0.16848 0.19805 0.0
C918 C 0.88945 0.2244 0.34314 0.0
C919 C 0.88841 0.22661 0.32296 0.0
C920 C 0.8424 0.18319 0.27959 0.0
C921 C 0.87147 0.19987 0.22758 0.0
C922 C 0.87081 0.20169 0.24909 0.0
C923 C 0.87053 0.19953 0.31163 0.0
C924 C 0.87036 0.20145 0.29011 0.0
H925 H 0.90595 0.24579 0.18792 0.0
H926 H 0.90296 0.24982 0.22312 0.0
H927 H 0.82068 0.16888 0.25169 0.0
H928 H 0.84166 0.14516 0.34789 0.0
H929 H 0.8399 0.14888 0.31271 0.0
C930 C 0.19169 0.33135 0.69845 0.0
C931 C 0.17497 0.34174 0.68705 0.0
C932 C 0.19152 0.33332 0.71863 0.0
C933 C 0.17562 0.37203 0.75951 0.0
H934 H 0.16617 0.29978 0.78805 0.0
C935 C 0.15694 0.35778 0.84313 0.0
C936 C 0.17284 0.34477 0.85297 0.0
C937 C 0.15723 0.35899 0.82283 0.0
C938 C 0.16919 0.32032 0.78034 0.0
H939 H 0.14516 0.36261 0.68774 0.0
H940 H 0.14481 0.36616 0.72314 0.0
H941 H 0.16671 0.2992 0.75284 0.0
H942 H 0.20206 0.32353 0.84947 0.0
H943 H 0.20297 0.32597 0.81422 0.0
H944 H 0.17813 0.39311 0.78718 0.0
C945 C 0.15835 0.35678 0.71645 0.0
C946 C 0.16949 0.31998 0.76012 0.0
C947 C 0.15852 0.35476 0.69619 0.0
C948 C 0.18949 0.33357 0.84224 0.0
C949 C 0.18982 0.33478 0.82203 0.0
C950 C 0.17534 0.37238 0.77982 0.0
C951 C 0.17451 0.34565 0.7279 0.0
C952 C 0.17307 0.34594 0.74944 0.0
C953 C 0.17335 0.3471 0.81204 0.0
C954 C 0.17249 0.34664 0.79047 0.0
H955 H 0.20467 0.32131 0.69179 0.0
H956 H 0.20469 0.32506 0.72698 0.0
H957 H 0.17859 0.39248 0.75171 0.0
H958 H 0.14367 0.3663 0.85107 0.0
H959 H 0.14411 0.3684 0.81559 0.0
C960 C 0.23719 0.88943 0.84079 0.0
C961 C 0.21329 0.8653 0.85187 0.0
C962 C 0.23716 0.88704 0.8206 0.0
C963 C 0.18347 0.8524 0.78003 0.0
H964 H 0.25769 0.87022 0.75031 0.0
C965 C 0.1772 0.84011 0.69707 0.0
C966 C 0.2032 0.86192 0.68625 0.0
C967 C 0.17934 0.83856 0.71718 0.0
C968 C 0.23683 0.86559 0.75834 0.0
H969 H 0.17097 0.81954 0.85063 0.0
H970 H 0.17051 0.8157 0.81523 0.0
H971 H 0.26006 0.87134 0.78569 0.0
H972 H 0.25189 0.89917 0.6878 0.0
H973 H 0.25547 0.89746 0.72303 0.0
H974 H 0.16045 0.84796 0.75298 0.0
C975 C 0.18932 0.83634 0.82221 0.0
C976 C 0.23819 0.86606 0.77861 0.0
C977 C 0.18965 0.83849 0.84243 0.0
C978 C 0.23157 0.88196 0.69583 0.0
C979 C 0.2336 0.88082 0.71603 0.0
C980 C 0.18222 0.85242 0.75981 0.0
C981 C 0.21294 0.86072 0.8111 0.0
C982 C 0.21149 0.85941 0.78963 0.0
C983 C 0.20739 0.85927 0.72702 0.0
C984 C 0.20885 0.85894 0.74864 0.0
H985 H 0.25568 0.91036 0.84772 0.0
H986 H 0.2555 0.90626 0.81238 0.0
H987 H 0.16267 0.8477 0.78818 0.0
H988 H 0.15511 0.82423 0.68998 0.0
H989 H 0.15889 0.8211 0.72498 0.0
C990 C 0.70737 0.86144 0.69849 0.0
C991 C 0.69628 0.83425 0.68711 0.0
C992 C 0.70495 0.85935 0.71864 0.0
C993 C 0.69722 0.80761 0.75956 0.0
H994 H 0.68067 0.86563 0.78836 0.0
C995 C 0.69058 0.8079 0.84377 0.0
C996 C 0.70689 0.83771 0.8525 0.0
C997 C 0.68624 0.80511 0.82364 0.0
C998 C 0.68548 0.84937 0.78053 0.0
H999 H 0.67375 0.78347 0.68781 0.0
H1000 H 0.66907 0.77963 0.7232 0.0
H1001 H 0.6775 0.8645 0.75311 0.0
H1002 H 0.73152 0.88789 0.84718 0.0
H1003 H 0.72394 0.88311 0.81214 0.0
H1004 H 0.70541 0.79271 0.7871 0.0
C1005 C 0.6799 0.80265 0.71652 0.0
C1006 C 0.68369 0.84873 0.76032 0.0
C1007 C 0.68233 0.80478 0.69626 0.0
C1008 C 0.71875 0.86463 0.84082 0.0
C1009 C 0.71422 0.86186 0.82077 0.0
C1010 C 0.69887 0.80817 0.77984 0.0
C1011 C 0.69134 0.82997 0.72796 0.0
C1012 C 0.69017 0.8283 0.74953 0.0
C1013 C 0.69791 0.83209 0.81192 0.0
C1014 C 0.69362 0.8295 0.79052 0.0
H1015 H 0.7184 0.8845 0.69183 0.0
H1016 H 0.71453 0.88093 0.72695 0.0
H1017 H 0.70265 0.79179 0.75174 0.0
H1018 H 0.68139 0.78678 0.85246 0.0
H1019 H 0.67346 0.78185 0.81727 0.0
C1020 C 0.25073 0.92679 0.96975 0.0
C1021 C 0.26149 0.94433 0.9526 0.0
C1022 C 0.25215 0.94198 0.98737 0.0
C1023 C 0.26702 0.01953 1.00789 0.0
H1024 H 0.30052 0.99607 0.05158 0.0
C1025 C 0.33679 0.10234 0.0727 0.0
C1026 C 0.33174 0.08797 0.09094 0.0
C1027 C 0.32159 0.08403 0.05623 0.0
C1028 C 0.29078 1.00274 0.0396 0.0
H1029 H 0.28005 0.99088 0.94016 0.0
H1030 H 0.28301 0.01693 0.97031 0.0
H1031 H 0.28442 0.9636 0.02256 0.0
H1032 H 0.30485 0.04417 0.10662 0.0
H1033 H 0.2783 1.01274 0.07823 0.0
H1034 H 0.27488 0.05957 0.0248 0.0
C1035 C 0.27325 0.99169 0.97055 0.0
C1036 C 0.28133 0.98394 0.02296 0.0
C1037 C 0.27189 0.97669 0.95318 0.0
C1038 C 0.30952 0.05579 0.09267 0.0
C1039 C 0.29442 0.0377 0.07639 0.0
C1040 C 0.27684 0.03856 0.02449 0.0
C1041 C 0.26411 0.97483 0.98801 0.0
C1042 C 0.26983 0.99232 1.00671 0.0
C1043 C 0.3012 0.05124 0.05787 0.0
C1044 C 0.28917 0.03056 0.04046 0.0
H1045 H 0.24251 0.90181 0.9697 0.0
H1046 H 0.2445 0.92812 1.00051 0.0
H1047 H 0.25771 0.0265 0.99584 0.0
H1048 H 0.35393 0.12705 0.071 0.0
H1049 H 0.32724 0.09516 0.04212 0.0
C1050 C 0.75755 0.70881 0.45283 0.0
C1051 C 0.77827 0.69699 0.45076 0.0
C1052 C 0.75847 0.7258 0.46918 0.0
C1053 C 0.77749 0.73389 0.52046 0.0
H1054 H 0.76069 0.80306 0.51672 0.0
C1055 C 0.74998 0.78163 0.58883 0.0
C1056 C 0.72361 0.78569 0.58773 0.0
C1057 C 0.76411 0.77858 0.57206 0.0
C1058 C 0.76528 0.78373 0.51805 0.0
H1059 H 0.81684 0.69437 0.46417 0.0
H1060 H 0.818 0.72381 0.49349 0.0
H1061 H 0.77325 0.78336 0.48756 0.0
H1062 H 0.69238 0.79166 0.56829 0.0
H1063 H 0.71669 0.78576 0.5387 0.0
H1064 H 0.76827 0.73324 0.55075 0.0
C1065 C 0.80112 0.71989 0.48214 0.0
C1066 C 0.77264 0.77252 0.50134 0.0
C1067 C 0.80052 0.7031 0.46542 0.0
C1068 C 0.7129 0.78889 0.56948 0.0
C1069 C 0.72685 0.78541 0.55257 0.0
C1070 C 0.77009 0.74505 0.53716 0.0
C1071 C 0.77993 0.73131 0.48419 0.0
C1072 C 0.77799 0.74689 0.50227 0.0
C1073 C 0.75187 0.77896 0.5537 0.0
C1074 C 0.76316 0.76967 0.53614 0.0
H1075 H 0.74021 0.7048 0.44177 0.0
H1076 H 0.74146 0.73369 0.47032 0.0
H1077 H 0.78105 0.71389 0.52168 0.0
H1078 H 0.75883 0.77931 0.60277 0.0
H1079 H 0.78385 0.7746 0.57354 0.0
C1080 C 0.06389 0.31002 0.95166 0.0
C1081 C 0.09697 0.32744 0.95085 0.0
C1082 C 0.0484 0.29428 0.96848 0.0
C1083 C 0.05957 0.29853 0.02108 0.0
H1084 H 0.97753 0.2226 1.02 0.0
C1085 C 0.98746 0.2528 0.09053 0.0
C1086 C 0.95607 0.24606 0.08935 0.0
C1087 C 1.00466 0.25569 0.07382 0.0
C1088 C 1.00036 0.24383 0.02054 0.0
H1089 H 0.13991 0.3407 0.96676 0.0
H1090 H 0.11265 0.31292 0.9966 0.0
H1091 H 1.00945 0.24021 0.99058 0.0
H1092 H 0.91723 0.23491 0.06989 0.0
H1093 H 0.94751 0.24031 0.04033 0.0
H1094 H 0.05029 0.3026 0.05086 0.0
C1095 C 0.09874 0.31182 0.9841 0.0
C1096 C 1.01873 0.25395 1.00369 0.0
C1097 C 0.11439 0.32757 0.96705 0.0
C1098 C 0.94135 0.23993 0.07116 0.0
C1099 C 0.95876 0.24311 0.05428 0.0
C1100 C 0.04131 0.28834 0.03792 0.0
C1101 C 0.06548 0.29544 0.9851 0.0
C1102 C 0.04827 0.28187 1.00363 0.0
C1103 C 0.99101 0.25226 0.05544 0.0
C1104 C 1.01122 0.26119 0.03779 0.0
H1105 H 0.04973 0.30917 0.93935 0.0
H1106 H 1.0229 0.2824 0.96867 0.0
H1107 H 0.08188 0.32036 0.02157 0.0
H1108 H 0.99927 0.25725 0.10444 0.0
H1109 H 0.02911 0.26189 0.0753 0.0
C1110 C 0.30332 0.0783 0.45805 0.0
C1111 C 0.33542 0.10118 0.45804 0.0
C1112 C 0.28911 0.06062 0.47467 0.0
C1113 C 0.30144 0.05227 0.52731 0.0
H1114 H 0.2472 0.96343 0.51639 0.0
C1115 C 0.25204 0.964 0.58973 0.0
C1116 C 0.25377 0.93649 0.58762 0.0
C1117 C 0.25541 0.98281 0.57372 0.0
C1118 C 0.26234 0.98811 0.51973 0.0
H1119 H 0.37776 0.12431 0.4754 0.0
H1120 H 0.35319 0.09336 0.50457 0.0
H1121 H 0.26691 1.00102 0.48983 0.0
H1122 H 0.25902 0.90616 0.56714 0.0
H1123 H 0.26553 0.93927 0.53898 0.0
H1124 H 0.29831 0.03923 0.55709 0.0
C1125 C 0.33861 0.08945 0.4919 0.0
C1126 C 0.27335 1.00983 0.50449 0.0
C1127 C 0.35274 0.10742 0.47525 0.0
C1128 C 0.25693 0.92694 0.56903 0.0
C1129 C 0.26083 0.94609 0.55294 0.0
C1130 C 0.29057 0.03055 0.54254 0.0
C1131 C 0.3069 0.06493 0.49158 0.0
C1132 C 0.2933 0.04222 0.50803 0.0
C1133 C 0.26141 0.97496 0.55523 0.0
C1134 C 0.27106 0.9981 0.53897 0.0
H1135 H 0.28963 0.07268 0.4448 0.0
H1136 H 0.26452 0.04254 0.47395 0.0
H1137 H 0.31651 0.07696 0.53066 0.0
H1138 H 0.24983 0.97194 0.60399 0.0
H1139 H 0.25477 1.0043 0.57602 0.0
C1140 C 0.78996 0.73879 0.08682 0.0
C1141 C 0.79815 0.71517 0.08642 0.0
C1142 C 0.7867 0.75202 0.06972 0.0
C1143 C 0.76526 0.72938 1.01891 0.0
H1144 H 0.77215 0.81154 1.01607 0.0
C1145 C 0.68738 0.7499 0.96677 0.0
C1146 C 0.7004 0.7778 0.95596 0.0
C1147 C 0.70367 0.74676 0.98237 0.0
C1148 C 0.77036 0.78866 1.01649 0.0
H1149 H 0.81177 0.68848 0.06789 0.0
H1150 H 0.80644 0.71195 0.03765 0.0
H1151 H 0.79765 0.79965 0.04258 0.0
H1152 H 0.7401 0.82503 0.95363 0.0
H1153 H 0.76915 0.81958 0.98104 0.0
H1154 H 0.73817 0.71837 0.99286 0.0
C1155 C 0.80204 0.71992 0.0513 0.0
C1156 C 0.78479 0.7817 0.03179 0.0
C1157 C 0.80546 0.70669 0.06859 0.0
C1158 C 0.72935 0.8034 0.96186 0.0
C1159 C 0.74604 0.80013 0.97747 0.0
C1160 C 0.75103 0.73638 1.00363 0.0
C1161 C 0.79148 0.74196 0.05163 0.0
C1162 C 0.78158 0.75159 0.03356 0.0
C1163 C 0.73384 0.77127 0.98744 0.0
C1164 C 0.75241 0.7657 1.00256 0.0
H1165 H 0.78436 0.74594 0.10041 0.0
H1166 H 0.77829 0.76859 0.07073 0.0
H1167 H 0.76199 0.70591 1.01973 0.0
H1168 H 0.66506 0.72978 0.96255 0.0
H1169 H 0.69296 0.72459 0.99009 0.0
C1170 C 0.11099 0.3221 0.57069 0.0
C1171 C 0.09631 0.31434 0.58889 0.0
C1172 C 0.09333 0.30779 0.55385 0.0
C1173 C 1.01092 0.27228 0.53728 0.0
H1174 H 0.04053 0.25081 0.49094 0.0
C1175 C 0.93574 0.23454 0.46707 0.0
C1176 C 0.95284 0.24937 0.45027 0.0
C1177 C 0.95173 0.23554 0.48426 0.0
C1178 C 0.0319 0.25681 0.50374 0.0
H1179 H 0.05281 0.2837 0.60403 0.0
H1180 H 1.02252 0.25848 0.575 0.0
H1181 H 0.07305 0.26651 0.5202 0.0
H1182 H 0.99975 0.27495 0.4379 0.0
H1183 H 0.02721 0.27703 0.46744 0.0
H1184 H 0.97045 0.26389 0.52078 0.0
C1185 C 0.04717 0.27611 0.57347 0.0
C1186 C 0.05062 0.26583 0.52051 0.0
C1187 C 0.06462 0.29042 0.59013 0.0
C1188 C 0.98585 0.26353 0.45067 0.0
C1189 C 1.00169 0.26445 0.46765 0.0
C1190 C 0.99235 0.26351 0.52051 0.0
C1191 C 0.06086 0.28549 0.55507 0.0
C1192 C 0.04052 0.27404 0.53742 0.0
C1193 C 0.98503 0.25115 0.48484 0.0
C1194 C 1.00279 0.25617 0.50339 0.0
H1195 H 0.13533 0.34061 0.56936 0.0
H1196 H 0.10461 0.31554 0.53987 0.0
H1197 H 1.00256 0.27889 0.54995 0.0
H1198 H 0.91028 0.22337 0.46714 0.0
H1199 H 0.93808 0.22466 0.49718 0.0
C1200 C 0.80922 0.24377 0.12958 0.0
C1201 C 0.81516 0.22147 0.12066 0.0
C1202 C 0.77858 0.23896 0.13049 0.0
C1203 C 0.69803 0.19299 0.11001 0.0
H1204 H 0.67191 0.20434 0.16094 0.0
C1205 C 0.56673 0.14406 0.12927 0.0
C1206 C 0.55879 0.16118 0.14216 0.0
C1207 C 0.59829 0.15318 0.12575 0.0
C1208 C 0.67881 0.20152 0.14652 0.0
H1209 H 0.79353 0.17748 0.10469 0.0
H1210 H 0.74021 0.16932 0.10614 0.0
H1211 H 0.72641 0.21816 0.15555 0.0
H1212 H 0.57788 0.20171 0.16116 0.0
H1213 H 0.63295 0.21808 0.15476 0.0
H1214 H 0.65049 0.17646 0.10092 0.0
C1215 C 0.75929 0.19049 0.11249 0.0
C1216 C 0.71015 0.20943 0.14344 0.0
C1217 C 0.78992 0.19517 0.11169 0.0
C1218 C 0.58321 0.1878 0.15134 0.0
C1219 C 0.61481 0.19711 0.14768 0.0
C1220 C 0.6667 0.18531 0.11304 0.0
C1221 C 0.75312 0.21189 0.12236 0.0
C1222 C 0.72012 0.20505 0.12519 0.0
C1223 C 0.62284 0.17985 0.1349 0.0
C1224 C 0.65655 0.1892 0.1314 0.0
H1225 H 0.82801 0.26441 0.13658 0.0
H1226 H 0.77471 0.25618 0.13791 0.0
H1227 H 0.70501 0.18963 0.09573 0.0
H1228 H 0.54848 0.12318 0.12216 0.0
H1229 H 0.60337 0.13887 0.11613 0.0
C1230 C 0.6347 0.46079 0.38326 0.0
C1231 C 0.6337 0.48517 0.39331 0.0
C1232 C 0.61289 0.42929 0.38729 0.0
C1233 C 0.55423 0.37731 0.42419 0.0
H1234 H 0.52132 0.31832 0.38141 0.0
C1235 C 0.4425 0.25339 0.42924 0.0
C1236 C 0.44251 0.22867 0.41893 0.0
C1237 C 0.4679 0.28417 0.42774 0.0
C1238 C 0.53058 0.33437 0.39358 0.0
H1239 H 0.60873 0.4955 0.41536 0.0
H1240 H 0.57036 0.44067 0.42216 0.0
H1241 H 0.56089 0.37284 0.37527 0.0
H1242 H 0.47018 0.21681 0.39981 0.0
H1243 H 0.51437 0.27034 0.39731 0.0
H1244 H 0.52316 0.33874 0.44239 0.0
C1245 C 0.58843 0.44578 0.41146 0.0
C1246 C 0.55335 0.36571 0.39006 0.0
C1247 C 0.61039 0.47727 0.40752 0.0
C1248 C 0.46922 0.23524 0.40788 0.0
C1249 C 0.4945 0.266 0.40631 0.0
C1250 C 0.53126 0.34595 0.42769 0.0
C1251 C 0.58933 0.42131 0.40139 0.0
C1252 C 0.56548 0.38769 0.4053 0.0
C1253 C 0.49383 0.29097 0.41583 0.0
C1254 C 0.51912 0.3241 0.41241 0.0
H1255 H 0.65266 0.46606 0.37243 0.0
H1256 H 0.61475 0.41117 0.37947 0.0
H1257 H 0.56334 0.39337 0.43635 0.0
H1258 H 0.42233 0.24923 0.43788 0.0
H1259 H 0.46655 0.30286 0.43521 0.0
C1260 C 0.85655 0.39657 0.13534 0.0
C1261 C 0.88466 0.40389 0.14514 0.0
C1262 C 0.84845 0.41976 0.13181 0.0
C1263 C 0.88344 0.50707 0.13019 0.0
H1264 H 0.79605 0.48631 0.13105 0.0
C1265 C 0.84886 0.6006 0.11148 0.0
C1266 C 0.82505 0.60082 0.12271 0.0
C1267 C 0.85444 0.57528 0.11247 0.0
C1268 C 0.82063 0.49266 0.13088 0.0
H1269 H 0.92613 0.44185 0.15893 0.0
H1270 H 0.91132 0.4816 0.15365 0.0
H1271 H 0.80925 0.44552 0.13739 0.0
H1272 H 0.7879 0.57393 0.14346 0.0
H1273 H 0.79799 0.53042 0.1455 0.0
H1274 H 0.89499 0.55447 0.12461 0.0
C1275 C 0.89583 0.45809 0.14822 0.0
C1276 C 0.8282 0.46907 0.13427 0.0
C1277 C 0.90408 0.43501 0.15158 0.0
C1278 C 0.80629 0.57457 0.13445 0.0
C1279 C 0.81205 0.54942 0.13559 0.0
C1280 C 0.8759 0.5307 0.12698 0.0
C1281 C 0.86805 0.45094 0.13811 0.0
C1282 C 0.85976 0.47594 0.1341 0.0
C1283 C 0.83658 0.5496 0.12487 0.0
C1284 C 0.84438 0.52393 0.12737 0.0
H1285 H 0.84069 0.37286 0.13036 0.0
H1286 H 0.82701 0.41326 0.12382 0.0
H1287 H 0.90798 0.51333 0.12955 0.0
H1288 H 0.86369 0.62031 0.10219 0.0
H1289 H 0.87306 0.57606 0.10364 0.0
C1290 C 0.57381 0.17921 0.39265 0.0
C1291 C 0.54981 0.15183 0.40147 0.0
C1292 C 0.60566 0.18846 0.39548 0.0
C1293 C 0.6575 0.15683 0.40968 0.0
H1294 H 0.72061 0.24447 0.41716 0.0
C1295 C 0.78595 0.19262 0.42801 0.0
C1296 C 0.80998 0.21897 0.41837 0.0
C1297 C 0.7547 0.18616 0.42743 0.0
C1298 C 0.70337 0.21991 0.41492 0.0
H1299 H 0.54078 0.11259 0.42006 0.0
H1300 H 0.59608 0.12879 0.42512 0.0
H1301 H 0.66539 0.22967 0.41276 0.0
H1302 H 0.81986 0.26002 0.40131 0.0
H1303 H 0.76539 0.24861 0.40017 0.0
H1304 H 0.69529 0.14698 0.41156 0.0
C1305 C 0.59034 0.14311 0.41592 0.0
C1306 C 0.67165 0.21142 0.41238 0.0
C1307 C 0.55856 0.13397 0.41319 0.0
C1308 C 0.80208 0.23953 0.40894 0.0
C1309 C 0.77073 0.23299 0.40831 0.0
C1310 C 0.68915 0.1653 0.41216 0.0
C1311 C 0.61437 0.17044 0.40708 0.0
C1312 C 0.64825 0.17973 0.40976 0.0
C1313 C 0.74645 0.20577 0.41713 0.0
C1314 C 0.71259 0.19696 0.41486 0.0
H1315 H 0.568 0.19371 0.38368 0.0
H1316 H 0.62345 0.20949 0.3883 0.0
H1317 H 0.64031 0.13228 0.40734 0.0
H1318 H 0.79105 0.17632 0.43554 0.0
H1319 H 0.73686 0.1654 0.43481 0.0
C1320 C 0.4391 0.25547 0.11503 0.0
C1321 C 0.44269 0.23036 0.12172 0.0
C1322 C 0.46406 0.28649 0.11612 0.0
C1323 C 0.55046 0.3368 0.12298 0.0
H1324 H 0.5275 0.39572 0.14414 0.0
C1325 C 0.6441 0.46379 0.14676 0.0
C1326 C 0.63698 0.48788 0.14363 0.0
C1327 C 0.62133 0.43219 0.14347 0.0
C1328 C 0.53441 0.37982 0.13793 0.0
H1329 H 0.47629 0.21839 0.1338 0.0
H1330 H 0.51988 0.27256 0.13555 0.0
H1331 H 0.48691 0.34152 0.13837 0.0
H1332 H 0.60062 0.49754 0.13382 0.0
H1333 H 0.56133 0.44292 0.12785 0.0
H1334 H 0.59803 0.37528 0.12243 0.0
C1335 C 0.49763 0.26815 0.1295 0.0
C1336 C 0.51103 0.34861 0.13464 0.0
C1337 C 0.47256 0.23704 0.12849 0.0
C1338 C 0.60673 0.47959 0.13683 0.0
C1339 C 0.58412 0.44814 0.13342 0.0
C1340 C 0.57392 0.36819 0.12615 0.0
C1341 C 0.49339 0.29334 0.12385 0.0
C1342 C 0.51867 0.32667 0.12706 0.0
C1343 C 0.59093 0.42388 0.13683 0.0
C1344 C 0.56621 0.39021 0.13362 0.0
H1345 H 0.41659 0.25138 0.10963 0.0
H1346 H 0.46015 0.30525 0.11128 0.0
H1347 H 0.55716 0.32057 0.11703 0.0
H1348 H 0.66711 0.46932 0.15209 0.0
H1349 H 0.62743 0.41424 0.14649 0.0
C1350 C 0.84441 0.60098 0.42557 0.0
C1351 C 0.81897 0.59933 0.41512 0.0
C1352 C 0.85041 0.57592 0.42521 0.0
C1353 C 0.81564 0.49147 0.41042 0.0
H1354 H 0.90334 0.51361 0.4076 0.0
C1355 C 0.853 0.39667 0.40577 0.0
C1356 C 0.87954 0.40335 0.39447 0.0
C1357 C 0.84503 0.41987 0.40947 0.0
C1358 C 0.87868 0.50694 0.40815 0.0
H1359 H 0.7793 0.56941 0.39655 0.0
H1360 H 0.79019 0.52641 0.3955 0.0
H1361 H 0.89008 0.55462 0.41222 0.0
H1362 H 0.9184 0.44011 0.37819 0.0
H1363 H 0.90365 0.47983 0.38377 0.0
H1364 H 0.80425 0.44396 0.40534 0.0
C1365 C 0.80524 0.54669 0.40434 0.0
C1366 C 0.87105 0.53052 0.41117 0.0
C1367 C 0.79906 0.57156 0.40487 0.0
C1368 C 0.89754 0.43379 0.38672 0.0
C1369 C 0.88938 0.45687 0.39024 0.0
C1370 C 0.82328 0.46791 0.40719 0.0
C1371 C 0.83133 0.54868 0.41422 0.0
C1372 C 0.8394 0.52319 0.41221 0.0
C1373 C 0.86318 0.45038 0.40182 0.0
C1374 C 0.85493 0.47533 0.40585 0.0
H1375 H 0.86014 0.6219 0.43373 0.0
H1376 H 0.87031 0.57812 0.43337 0.0
H1377 H 0.791 0.48473 0.41142 0.0
H1378 H 0.83825 0.37344 0.4118 0.0
H1379 H 0.82487 0.41394 0.4186 0.0
C1380 C 0.20502 0.77564 0.60973 0.0
C1381 C 0.22948 0.79981 0.62055 0.0
C1382 C 0.19983 0.74489 0.6104 0.0
C1383 C 0.2347 0.69618 0.62746 0.0
H1384 H 0.14708 0.63028 0.62864 0.0
C1385 C 0.19756 0.56395 0.63289 0.0
C1386 C 0.17022 0.54394 0.64352 0.0
C1387 C 0.20581 0.59521 0.62914 0.0
C1388 C 0.1717 0.64834 0.62857 0.0
H1389 H 0.26851 0.81062 0.63996 0.0
H1390 H 0.25904 0.75717 0.64151 0.0
H1391 H 0.16017 0.6843 0.62342 0.0
H1392 H 0.1303 0.54175 0.6586 0.0
H1393 H 0.14543 0.59625 0.65292 0.0
H1394 H 0.24611 0.66029 0.63358 0.0
C1395 C 0.24411 0.7619 0.63219 0.0
C1396 C 0.17928 0.67944 0.62519 0.0
C1397 C 0.24951 0.7927 0.63134 0.0
C1398 C 0.15175 0.55636 0.65059 0.0
C1399 C 0.16016 0.58765 0.64701 0.0
C1400 C 0.2271 0.66506 0.63103 0.0
C1401 C 0.21872 0.73735 0.62209 0.0
C1402 C 0.21089 0.70391 0.62467 0.0
C1403 C 0.18713 0.60749 0.63605 0.0
C1404 C 0.19545 0.64068 0.63178 0.0
H1405 H 0.18925 0.78025 0.60113 0.0
H1406 H 0.18057 0.72691 0.60199 0.0
H1407 H 0.25932 0.71419 0.62693 0.0
H1408 H 0.21269 0.55553 0.62741 0.0
H1409 H 0.22659 0.60954 0.62051 0.0
C1410 C 0.41322 0.85789 0.89146 0.0
C1411 C 0.42024 0.88924 0.8935 0.0
C1412 C 0.43636 0.84961 0.89482 0.0
C1413 C 0.52338 0.88452 0.89798 0.0
H1414 H 0.50221 0.80511 0.92222 0.0
C1415 C 0.61954 0.85527 0.91959 0.0
C1416 C 0.61415 0.82524 0.91445 0.0
C1417 C 0.59524 0.86236 0.91852 0.0
C1418 C 0.50845 0.82728 0.91532 0.0
H1419 H 0.45693 0.93628 0.9013 0.0
H1420 H 0.49706 0.9219 0.90735 0.0
H1421 H 0.46121 0.81889 0.91723 0.0
H1422 H 0.57836 0.77871 0.90494 0.0
H1423 H 0.53606 0.79114 0.90314 0.0
H1424 H 0.57058 0.89296 0.89611 0.0
C1425 C 0.47392 0.90374 0.90267 0.0
C1426 C 0.48492 0.83517 0.9124 0.0
C1427 C 0.45086 0.91202 0.89921 0.0
C1428 C 0.58346 0.80211 0.909 0.0
C1429 C 0.55911 0.80919 0.90802 0.0
C1430 C 0.54687 0.87671 0.90099 0.0
C1431 C 0.46709 0.87246 0.90042 0.0
C1432 C 0.49206 0.86391 0.90367 0.0
C1433 C 0.56486 0.8396 0.91238 0.0
C1434 C 0.53975 0.848 0.90968 0.0
H1435 H 0.38995 0.8398 0.88691 0.0
H1436 H 0.43029 0.82538 0.89266 0.0
H1437 H 0.52973 0.90655 0.89086 0.0
H1438 H 0.64279 0.87369 0.92391 0.0
H1439 H 0.60036 0.88587 0.92229 0.0
C1440 C 0.47456 0.61144 0.65545 0.0
C1441 C 0.49436 0.62768 0.63977 0.0
C1442 C 0.44274 0.58915 0.65237 0.0
C1443 C 0.388 0.53789 0.61381 0.0
H1444 H 0.32376 0.52563 0.65109 0.0
C1445 C 0.26431 0.42649 0.61432 0.0
C1446 C 0.23825 0.42902 0.62037 0.0
C1447 C 0.29483 0.4525 0.61506 0.0
C1448 C 0.34127 0.52893 0.64037 0.0
H1449 H 0.49576 0.6342 0.60865 0.0
H1450 H 0.44037 0.5958 0.60331 0.0
H1451 H 0.37775 0.56807 0.65584 0.0
H1452 H 0.22397 0.46163 0.63099 0.0
H1453 H 0.27706 0.50706 0.63186 0.0
H1454 H 0.35146 0.49909 0.59817 0.0
C1455 C 0.44952 0.59959 0.61796 0.0
C1456 C 0.37242 0.55307 0.64326 0.0
C1457 C 0.48132 0.62172 0.62102 0.0
C1458 C 0.24342 0.45867 0.6263 0.0
C1459 C 0.27398 0.48473 0.62698 0.0
C1460 C 0.35685 0.51383 0.61089 0.0
C1461 C 0.42983 0.58265 0.63355 0.0
C1462 C 0.39631 0.55773 0.63011 0.0
C1463 C 0.3002 0.48185 0.62179 0.0
C1464 C 0.33307 0.50879 0.62422 0.0
H1465 H 0.48389 0.6152 0.67005 0.0
H1466 H 0.42851 0.57634 0.66473 0.0
H1467 H 0.40571 0.54043 0.60346 0.0
H1468 H 0.26137 0.40408 0.60975 0.0
H1469 H 0.31436 0.44918 0.61111 0.0
C1470 C 0.21442 0.7856 0.92884 0.0
C1471 C 0.23725 0.80928 0.91693 0.0
C1472 C 0.20875 0.75466 0.9278 0.0
C1473 C 0.21509 0.70108 0.8932 0.0
H1474 H 0.19847 0.64682 0.93767 0.0
C1475 C 0.1936 0.57473 0.88438 0.0
C1476 C 0.17116 0.55111 0.89645 0.0
C1477 C 0.20332 0.60645 0.88771 0.0
C1478 C 0.20265 0.66149 0.92505 0.0
H1479 H 0.27303 0.81904 0.89523 0.0
H1480 H 0.26325 0.76539 0.89353 0.0
H1481 H 0.21277 0.70166 0.94251 0.0
H1482 H 0.14112 0.54238 0.92142 0.0
H1483 H 0.15743 0.59747 0.92699 0.0
H1484 H 0.20423 0.66103 0.87567 0.0
C1485 C 0.24944 0.77063 0.9035 0.0
C1486 C 0.21098 0.69301 0.92787 0.0
C1487 C 0.25523 0.80152 0.90462 0.0
C1488 C 0.15875 0.56002 0.91198 0.0
C1489 C 0.16823 0.5917 0.91522 0.0
C1490 C 0.20652 0.66957 0.89038 0.0
C1491 C 0.22563 0.74664 0.91473 0.0
C1492 C 0.21736 0.71322 0.91197 0.0
C1493 C 0.19061 0.61543 0.9031 0.0
C1494 C 0.20017 0.64925 0.90624 0.0
H1495 H 0.20007 0.79066 0.93847 0.0
H1496 H 0.19018 0.73674 0.93661 0.0
H1497 H 0.21925 0.71581 0.8806 0.0
H1498 H 0.20396 0.56872 0.87245 0.0
H1499 H 0.22105 0.62395 0.87828 0.0
C1500 C 0.43718 0.88848 0.62727 0.0
C1501 C 0.41336 0.87255 0.64113 0.0
C1502 C 0.46013 0.88 0.624 0.0
C1503 C 0.47689 0.81495 0.62972 0.0
H1504 H 0.56416 0.88113 0.6258 0.0
C1505 C 0.58121 0.79043 0.63132 0.0
C1506 C 0.60882 0.81063 0.621 0.0
C1507 C 0.55606 0.79633 0.63217 0.0
C1508 C 0.53989 0.86228 0.62648 0.0
H1509 H 0.3948 0.83483 0.66222 0.0
H1510 H 0.43492 0.81993 0.65649 0.0
H1511 H 0.52324 0.89472 0.63065 0.0
H1512 H 0.63065 0.85181 0.60249 0.0
H1513 H 0.58655 0.86148 0.60346 0.0
H1514 H 0.49348 0.78246 0.62541 0.0
C1515 C 0.43576 0.839 0.64813 0.0
C1516 C 0.51639 0.87013 0.62936 0.0
C1517 C 0.41295 0.84772 0.65155 0.0
C1518 C 0.6099 0.83587 0.61071 0.0
C1519 C 0.58466 0.84162 0.61143 0.0
C1520 C 0.50039 0.80706 0.62667 0.0
C1521 C 0.45975 0.85517 0.63439 0.0
C1522 C 0.48461 0.84659 0.63109 0.0
C1523 C 0.55771 0.82245 0.62261 0.0
C1524 C 0.53228 0.83063 0.62508 0.0
H1525 H 0.43836 0.9079 0.61911 0.0
H1526 H 0.47811 0.89279 0.61321 0.0
H1527 H 0.45258 0.79624 0.63075 0.0
H1528 H 0.57952 0.77082 0.63951 0.0
H1529 H 0.5359 0.78113 0.64104 0.0
C1530 C 0.47621 0.63646 0.91009 0.0
C1531 C 0.49424 0.63057 0.89664 0.0
C1532 C 0.445 0.61352 0.91415 0.0
C1533 C 0.389 0.52748 0.91 0.0
H1534 H 0.32543 0.55139 0.9178 0.0
C1535 C 0.26148 0.43438 0.92932 0.0
C1536 C 0.23736 0.43633 0.91948 0.0
C1537 C 0.29256 0.45945 0.9289 0.0
C1538 C 0.34283 0.54425 0.91558 0.0
H1539 H 0.49327 0.5955 0.87708 0.0
H1540 H 0.43882 0.55606 0.88368 0.0
H1541 H 0.37983 0.59183 0.91149 0.0
H1542 H 0.22698 0.46706 0.90226 0.0
H1543 H 0.28106 0.51042 0.90128 0.0
H1544 H 0.35194 0.47989 0.91331 0.0
C1545 C 0.44891 0.57825 0.89135 0.0
C1546 C 0.37417 0.56752 0.91217 0.0
C1547 C 0.48011 0.60112 0.88734 0.0
C1548 C 0.24486 0.46465 0.91005 0.0
C1549 C 0.276 0.48966 0.90953 0.0
C1550 C 0.3577 0.50424 0.91333 0.0
C1551 C 0.43092 0.58405 0.90486 0.0
C1552 C 0.39766 0.55943 0.90917 0.0
C1553 C 0.30043 0.4871 0.91852 0.0
C1554 C 0.3341 0.51224 0.91606 0.0
H1555 H 0.4861 0.65895 0.91739 0.0
H1556 H 0.43205 0.61879 0.92477 0.0
H1557 H 0.40643 0.52031 0.90806 0.0
H1558 H 0.25662 0.41308 0.93687 0.0
H1559 H 0.31056 0.45686 0.9364 0.0
loop_
_geom_bond_atom_site_label_1
_geom_bond_atom_site_label_2
_geom_bond_distance
_geom_bond_site_symmetry_2
_ccdc_geom_bond_type
Nd0 C2 2.836 . S
Nd0 O20 2.500 . S
Nd0 O21 2.492 . S
Nd0 O22 2.487 . S
Nd0 O23 2.682 . S
Nd0 O24 2.410 . S
Nd0 O29 2.414 . S
Nd0 O31 2.424 . S
Nd1 C11 2.836 . S
Nd1 O23 2.414 . S
Nd1 O25 2.424 . S
Nd1 O26 2.500 . S
Nd1 O27 2.492 . S
Nd1 O28 2.487 . S
Nd1 O29 2.682 . S
Nd1 O30 2.410 . S
C2 Nd0 2.836 . S
C2 C3 1.498 . S
C2 O20 1.258 . S
C2 O21 1.239 . S
C3 C2 1.498 . S
C3 C4 1.366 . S
C3 C8 1.407 . S
C4 C3 1.366 . S
C4 C5 1.392 . S
C4 H32 0.930 . S
C5 C4 1.392 . S
C5 C6 1.398 . S
C5 H33 0.929 . S
C6 C5 1.398 . S
C6 C7 1.352 . S
C7 C6 1.352 . S
C7 C8 1.384 . S
C7 H34 0.930 . S
C8 C3 1.407 . S
C8 C7 1.384 . S
C8 H35 0.929 . S
C9 O22 1.241 . S
C9 O23 1.273 . S
C10 O24 1.251 . S
C10 O25 1.268 . S
C11 Nd1 2.836 . S
C11 C12 1.498 . S
C11 O26 1.258 . S
C11 O27 1.239 . S
C12 C11 1.498 . S
C12 C13 1.366 . S
C12 C17 1.407 . S
C13 C12 1.366 . S
C13 C14 1.392 . S
C13 H36 0.930 . S
C14 C13 1.392 . S
C14 C15 1.398 . S
C14 H37 0.929 . S
C15 C14 1.398 . S
C15 C16 1.352 . S
C16 C15 1.352 . S
C16 C17 1.384 . S
C16 H38 0.930 . S
C17 C12 1.407 . S
C17 C16 1.384 . S
C17 H39 0.929 . S
C18 O28 1.241 . S
C18 O29 1.273 . S
C19 O30 1.251 . S
C19 O31 1.268 . S
O20 Nd0 2.500 . S
O20 C2 1.258 . S
O21 Nd0 2.492 . S
O21 C2 1.239 . S
O22 Nd0 2.487 . S
O22 C9 1.241 . S
O23 Nd0 2.682 . S
O23 Nd1 2.414 . S
O23 C9 1.273 . S
O24 Nd0 2.410 . S
O24 C10 1.251 . S
O25 Nd1 2.424 . S
O25 C10 1.268 . S
O26 Nd1 2.500 . S
O26 C11 1.258 . S
O27 Nd1 2.492 . S
O27 C11 1.239 . S
O28 Nd1 2.487 . S
O28 C18 1.241 . S
O29 Nd0 2.414 . S
O29 Nd1 2.682 . S
O29 C18 1.273 . S
O30 Nd1 2.410 . S
O30 C19 1.251 . S
O31 Nd0 2.424 . S
O31 C19 1.268 . S
H32 C4 0.930 . S
H33 C5 0.929 . S
H34 C7 0.930 . S
H35 C8 0.929 . S
H36 C13 0.930 . S
H37 C14 0.929 . S
H38 C16 0.930 . S
H39 C17 0.929 . S
Nd40 C42 2.836 . S
Nd40 O60 2.500 . S
Nd40 O61 2.492 . S
Nd40 O62 2.487 . S
Nd40 O63 2.682 . S
Nd40 O64 2.410 . S
Nd40 O69 2.414 . S
Nd40 O71 2.424 . S
Nd41 C51 2.836 . S
Nd41 O63 2.414 . S
Nd41 O65 2.424 . S
Nd41 O66 2.500 . S
Nd41 O67 2.492 . S
Nd41 O68 2.487 . S
Nd41 O69 2.682 . S
Nd41 O70 2.410 . S
C42 Nd40 2.836 . S
C42 C43 1.498 . S
C42 O60 1.258 . S
C42 O61 1.239 . S
C43 C42 1.498 . S
C43 C44 1.366 . S
C43 C48 1.407 . S
C44 C43 1.366 . S
C44 C45 1.392 . S
C44 H72 0.930 . S
C45 C44 1.392 . S
C45 C46 1.398 . S
C45 H73 0.929 . S
C46 C45 1.398 . S
C46 C47 1.352 . S
C47 C46 1.352 . S
C47 C48 1.384 . S
C47 H74 0.930 . S
C48 C43 1.407 . S
C48 C47 1.384 . S
C48 H75 0.929 . S
C49 O62 1.241 . S
C49 O63 1.273 . S
C50 O64 1.251 . S
C50 O65 1.268 . S
C51 Nd41 2.836 . S
C51 C52 1.498 . S
C51 O66 1.258 . S
C51 O67 1.239 . S
C52 C51 1.498 . S
C52 C53 1.366 . S
C52 C57 1.407 . S
C53 C52 1.366 . S
C53 C54 1.392 . S
C53 H76 0.930 . S
C54 C53 1.392 . S
C54 C55 1.398 . S
C54 H77 0.929 . S
C55 C54 1.398 . S
C55 C56 1.352 . S
C56 C55 1.352 . S
C56 C57 1.384 . S
C56 H78 0.930 . S
C57 C52 1.407 . S
C57 C56 1.384 . S
C57 H79 0.929 . S
C58 O68 1.241 . S
C58 O69 1.273 . S
C59 O70 1.251 . S
C59 O71 1.268 . S
O60 Nd40 2.500 . S
O60 C42 1.258 . S
O61 Nd40 2.492 . S
O61 C42 1.239 . S
O62 Nd40 2.487 . S
O62 C49 1.241 . S
O63 Nd40 2.682 . S
O63 Nd41 2.414 . S
O63 C49 1.273 . S
O64 Nd40 2.410 . S
O64 C50 1.251 . S
O65 Nd41 2.424 . S
O65 C50 1.268 . S
O66 Nd41 2.500 . S
O66 C51 1.258 . S
O67 Nd41 2.492 . S
O67 C51 1.239 . S
O68 Nd41 2.487 . S
O68 C58 1.241 . S
O69 Nd40 2.414 . S
O69 Nd41 2.682 . S
O69 C58 1.273 . S
O70 Nd41 2.410 . S
O70 C59 1.251 . S
O71 Nd40 2.424 . S
O71 C59 1.268 . S
H72 C44 0.930 . S
H73 C45 0.929 . S
H74 C47 0.930 . S
H75 C48 0.929 . S
H76 C53 0.930 . S
H77 C54 0.929 . S
H78 C56 0.930 . S
H79 C57 0.929 . S
Nd80 C82 2.836 . S
Nd80 O100 2.500 . S
Nd80 O101 2.492 . S
Nd80 O102 2.487 . S
Nd80 O103 2.682 . S
Nd80 O104 2.410 . S
Nd80 O109 2.414 . S
Nd80 O111 2.424 . S
Nd81 C91 2.836 . S
Nd81 O103 2.414 . S
Nd81 O105 2.424 . S
Nd81 O106 2.500 . S
Nd81 O107 2.492 . S
Nd81 O108 2.487 . S
Nd81 O109 2.682 . S
Nd81 O110 2.410 . S
C82 Nd80 2.836 . S
C82 C83 1.498 . S
C82 O100 1.258 . S
C82 O101 1.239 . S
C83 C82 1.498 . S
C83 C84 1.366 . S
C83 C88 1.407 . S
C84 C83 1.366 . S
C84 C85 1.392 . S
C84 H112 0.930 . S
C85 C84 1.392 . S
C85 C86 1.398 . S
C85 H113 0.929 . S
C86 C85 1.398 . S
C86 C87 1.352 . S
C87 C86 1.352 . S
C87 C88 1.384 . S
C87 H114 0.930 . S
C88 C83 1.407 . S
C88 C87 1.384 . S
C88 H115 0.929 . S
C89 O102 1.241 . S
C89 O103 1.273 . S
C90 O104 1.251 . S
C90 O105 1.268 . S
C91 Nd81 2.836 . S
C91 C92 1.498 . S
C91 O106 1.258 . S
C91 O107 1.239 . S
C92 C91 1.498 . S
C92 C93 1.366 . S
C92 C97 1.407 . S
C93 C92 1.366 . S
C93 C94 1.392 . S
C93 H116 0.930 . S
C94 C93 1.392 . S
C94 C95 1.398 . S
C94 H117 0.929 . S
C95 C94 1.398 . S
C95 C96 1.352 . S
C96 C95 1.352 . S
C96 C97 1.384 . S
C96 H118 0.930 . S
C97 C92 1.407 . S
C97 C96 1.384 . S
C97 H119 0.929 . S
C98 O108 1.241 . S
C98 O109 1.273 . S
C99 O110 1.251 . S
C99 O111 1.268 . S
O100 Nd80 2.500 . S
O100 C82 1.258 . S
O101 Nd80 2.492 . S
O101 C82 1.239 . S
O102 Nd80 2.487 . S
O102 C89 1.241 . S
O103 Nd80 2.682 . S
O103 Nd81 2.414 . S
O103 C89 1.273 . S
O104 Nd80 2.410 . S
O104 C90 1.251 . S
O105 Nd81 2.424 . S
O105 C90 1.268 . S
O106 Nd81 2.500 . S
O106 C91 1.258 . S
O107 Nd81 2.492 . S
O107 C91 1.239 . S
O108 Nd81 2.487 . S
O108 C98 1.241 . S
O109 Nd80 2.414 . S
O109 Nd81 2.682 . S
O109 C98 1.273 . S
O110 Nd81 2.410 . S
O110 C99 1.251 . S
O111 Nd80 2.424 . S
O111 C99 1.268 . S
H112 C84 0.930 . S
H113 C85 0.929 . S
H114 C87 0.930 . S
H115 C88 0.929 . S
H116 C93 0.930 . S
H117 C94 0.929 . S
H118 C96 0.930 . S
H119 C97 0.929 . S
Nd120 C122 2.836 . S
Nd120 O140 2.500 . S
Nd120 O141 2.492 . S
Nd120 O142 2.487 . S
Nd120 O143 2.682 . S
Nd120 O144 2.410 . S
Nd120 O149 2.414 . S
Nd120 O151 2.424 . S
Nd121 C131 2.836 . S
Nd121 O143 2.414 . S
Nd121 O145 2.424 . S
Nd121 O146 2.500 . S
Nd121 O147 2.492 . S
Nd121 O148 2.487 . S
Nd121 O149 2.682 . S
Nd121 O150 2.410 . S
C122 Nd120 2.836 . S
C122 C123 1.498 . S
C122 O140 1.258 . S
C122 O141 1.239 . S
C123 C122 1.498 . S
C123 C124 1.366 . S
C123 C128 1.407 . S
C124 C123 1.366 . S
C124 C125 1.392 . S
C124 H152 0.930 . S
C125 C124 1.392 . S
C125 C126 1.398 . S
C125 H153 0.929 . S
C126 C125 1.398 . S
C126 C127 1.352 . S
C127 C126 1.352 . S
C127 C128 1.384 . S
C127 H154 0.930 . S
C128 C123 1.407 . S
C128 C127 1.384 . S
C128 H155 0.929 . S
C129 O142 1.241 . S
C129 O143 1.273 . S
C130 O144 1.251 . S
C130 O145 1.268 . S
C131 Nd121 2.836 . S
C131 C132 1.498 . S
C131 O146 1.258 . S
C131 O147 1.239 . S
C132 C131 1.498 . S
C132 C133 1.366 . S
C132 C137 1.407 . S
C133 C132 1.366 . S
C133 C134 1.392 . S
C133 H156 0.930 . S
C134 C133 1.392 . S
C134 C135 1.398 . S
C134 H157 0.929 . S
C135 C134 1.398 . S
C135 C136 1.352 . S
C136 C135 1.352 . S
C136 C137 1.384 . S
C136 H158 0.930 . S
C137 C132 1.407 . S
C137 C136 1.384 . S
C137 H159 0.929 . S
C138 O148 1.241 . S
C138 O149 1.273 . S
C139 O150 1.251 . S
C139 O151 1.268 . S
O140 Nd120 2.500 . S
O140 C122 1.258 . S
O141 Nd120 2.492 . S
O141 C122 1.239 . S
O142 Nd120 2.487 . S
O142 C129 1.241 . S
O143 Nd120 2.682 . S
O143 Nd121 2.414 . S
O143 C129 1.273 . S
O144 Nd120 2.410 . S
O144 C130 1.251 . S
O145 Nd121 2.424 . S
O145 C130 1.268 . S
O146 Nd121 2.500 . S
O146 C131 1.258 . S
O147 Nd121 2.492 . S
O147 C131 1.239 . S
O148 Nd121 2.487 . S
O148 C138 1.241 . S
O149 Nd120 2.414 . S
O149 Nd121 2.682 . S
O149 C138 1.273 . S
O150 Nd121 2.410 . S
O150 C139 1.251 . S
O151 Nd120 2.424 . S
O151 C139 1.268 . S
H152 C124 0.930 . S
H153 C125 0.929 . S
H154 C127 0.930 . S
H155 C128 0.929 . S
H156 C133 0.930 . S
H157 C134 0.929 . S
H158 C136 0.930 . S
H159 C137 0.929 . S
Nd160 C162 2.836 . S
Nd160 O180 2.500 . S
Nd160 O181 2.492 . S
Nd160 O182 2.487 . S
Nd160 O183 2.682 . S
Nd160 O184 2.410 . S
Nd160 O189 2.414 . S
Nd160 O191 2.424 . S
Nd161 C171 2.836 . S
Nd161 O183 2.414 . S
Nd161 O185 2.424 . S
Nd161 O186 2.500 . S
Nd161 O187 2.492 . S
Nd161 O188 2.487 . S
Nd161 O189 2.682 . S
Nd161 O190 2.410 . S
C162 Nd160 2.836 . S
C162 C163 1.498 . S
C162 O180 1.258 . S
C162 O181 1.239 . S
C163 C162 1.498 . S
C163 C164 1.366 . S
C163 C168 1.407 . S
C164 C163 1.366 . S
C164 C165 1.392 . S
C164 H192 0.930 . S
C165 C164 1.392 . S
C165 C166 1.398 . S
C165 H193 0.929 . S
C166 C165 1.398 . S
C166 C167 1.352 . S
C167 C166 1.352 . S
C167 C168 1.384 . S
C167 H194 0.930 . S
C168 C163 1.407 . S
C168 C167 1.384 . S
C168 H195 0.929 . S
C169 O182 1.241 . S
C169 O183 1.273 . S
C170 O184 1.251 . S
C170 O185 1.268 . S
C171 Nd161 2.836 . S
C171 C172 1.498 . S
C171 O186 1.258 . S
C171 O187 1.239 . S
C172 C171 1.498 . S
C172 C173 1.366 . S
C172 C177 1.407 . S
C173 C172 1.366 . S
C173 C174 1.392 . S
C173 H196 0.930 . S
C174 C173 1.392 . S
C174 C175 1.398 . S
C174 H197 0.929 . S
C175 C174 1.398 . S
C175 C176 1.352 . S
C176 C175 1.352 . S
C176 C177 1.384 . S
C176 H198 0.930 . S
C177 C172 1.407 . S
C177 C176 1.384 . S
C177 H199 0.929 . S
C178 O188 1.241 . S
C178 O189 1.273 . S
C179 O190 1.251 . S
C179 O191 1.268 . S
O180 Nd160 2.500 . S
O180 C162 1.258 . S
O181 Nd160 2.492 . S
O181 C162 1.239 . S
O182 Nd160 2.487 . S
O182 C169 1.241 . S
O183 Nd160 2.682 . S
O183 Nd161 2.414 . S
O183 C169 1.273 . S
O184 Nd160 2.410 . S
O184 C170 1.251 . S
O185 Nd161 2.424 . S
O185 C170 1.268 . S
O186 Nd161 2.500 . S
O186 C171 1.258 . S
O187 Nd161 2.492 . S
O187 C171 1.239 . S
O188 Nd161 2.487 . S
O188 C178 1.241 . S
O189 Nd160 2.414 . S
O189 Nd161 2.682 . S
O189 C178 1.273 . S
O190 Nd161 2.410 . S
O190 C179 1.251 . S
O191 Nd160 2.424 . S
O191 C179 1.268 . S
H192 C164 0.930 . S
H193 C165 0.929 . S
H194 C167 0.930 . S
H195 C168 0.929 . S
H196 C173 0.930 . S
H197 C174 0.929 . S
H198 C176 0.930 . S
H199 C177 0.929 . S
Nd200 C202 2.836 . S
Nd200 O220 2.500 . S
Nd200 O221 2.492 . S
Nd200 O222 2.487 . S
Nd200 O223 2.682 . S
Nd200 O224 2.410 . S
Nd200 O229 2.414 . S
Nd200 O231 2.424 . S
Nd201 C211 2.836 . S
Nd201 O223 2.414 . S
Nd201 O225 2.424 . S
Nd201 O226 2.500 . S
Nd201 O227 2.492 . S
Nd201 O228 2.487 . S
Nd201 O229 2.682 . S
Nd201 O230 2.410 . S
C202 Nd200 2.836 . S
C202 C203 1.498 . S
C202 O220 1.258 . S
C202 O221 1.239 . S
C203 C202 1.498 . S
C203 C204 1.366 . S
C203 C208 1.407 . S
C204 C203 1.366 . S
C204 C205 1.392 . S
C204 H232 0.930 . S
C205 C204 1.392 . S
C205 C206 1.398 . S
C205 H233 0.929 . S
C206 C205 1.398 . S
C206 C207 1.352 . S
C207 C206 1.352 . S
C207 C208 1.384 . S
C207 H234 0.930 . S
C208 C203 1.407 . S
C208 C207 1.384 . S
C208 H235 0.929 . S
C209 O222 1.241 . S
C209 O223 1.273 . S
C210 O224 1.251 . S
C210 O225 1.268 . S
C211 Nd201 2.836 . S
C211 C212 1.498 . S
C211 O226 1.258 . S
C211 O227 1.239 . S
C212 C211 1.498 . S
C212 C213 1.366 . S
C212 C217 1.407 . S
C213 C212 1.366 . S
C213 C214 1.392 . S
C213 H236 0.930 . S
C214 C213 1.392 . S
C214 C215 1.398 . S
C214 H237 0.929 . S
C215 C214 1.398 . S
C215 C216 1.352 . S
C216 C215 1.352 . S
C216 C217 1.384 . S
C216 H238 0.930 . S
C217 C212 1.407 . S
C217 C216 1.384 . S
C217 H239 0.929 . S
C218 O228 1.241 . S
C218 O229 1.273 . S
C219 O230 1.251 . S
C219 O231 1.268 . S
O220 Nd200 2.500 . S
O220 C202 1.258 . S
O221 Nd200 2.492 . S
O221 C202 1.239 . S
O222 Nd200 2.487 . S
O222 C209 1.241 . S
O223 Nd200 2.682 . S
O223 Nd201 2.414 . S
O223 C209 1.273 . S
O224 Nd200 2.410 . S
O224 C210 1.251 . S
O225 Nd201 2.424 . S
O225 C210 1.268 . S
O226 Nd201 2.500 . S
O226 C211 1.258 . S
O227 Nd201 2.492 . S
O227 C211 1.239 . S
O228 Nd201 2.487 . S
O228 C218 1.241 . S
O229 Nd200 2.414 . S
O229 Nd201 2.682 . S
O229 C218 1.273 . S
O230 Nd201 2.410 . S
O230 C219 1.251 . S
O231 Nd200 2.424 . S
O231 C219 1.268 . S
H232 C204 0.930 . S
H233 C205 0.929 . S
H234 C207 0.930 . S
H235 C208 0.929 . S
H236 C213 0.930 . S
H237 C214 0.929 . S
H238 C216 0.930 . S
H239 C217 0.929 . S
Nd240 C242 2.836 . S
Nd240 O260 2.500 . S
Nd240 O261 2.492 . S
Nd240 O262 2.487 . S
Nd240 O263 2.682 . S
Nd240 O264 2.410 . S
Nd240 O269 2.414 . S
Nd240 O271 2.424 . S
Nd241 C251 2.836 . S
Nd241 O263 2.414 . S
Nd241 O265 2.424 . S
Nd241 O266 2.500 . S
Nd241 O267 2.492 . S
Nd241 O268 2.487 . S
Nd241 O269 2.682 . S
Nd241 O270 2.410 . S
C242 Nd240 2.836 . S
C242 C243 1.498 . S
C242 O260 1.258 . S
C242 O261 1.239 . S
C243 C242 1.498 . S
C243 C244 1.366 . S
C243 C248 1.407 . S
C244 C243 1.366 . S
C244 C245 1.392 . S
C244 H272 0.930 . S
C245 C244 1.392 . S
C245 C246 1.398 . S
C245 H273 0.929 . S
C246 C245 1.398 . S
C246 C247 1.352 . S
C247 C246 1.352 . S
C247 C248 1.384 . S
C247 H274 0.930 . S
C248 C243 1.407 . S
C248 C247 1.384 . S
C248 H275 0.929 . S
C249 O262 1.241 . S
C249 O263 1.273 . S
C250 O264 1.251 . S
C250 O265 1.268 . S
C251 Nd241 2.836 . S
C251 C252 1.498 . S
C251 O266 1.258 . S
C251 O267 1.239 . S
C252 C251 1.498 . S
C252 C253 1.366 . S
C252 C257 1.407 . S
C253 C252 1.366 . S
C253 C254 1.392 . S
C253 H276 0.930 . S
C254 C253 1.392 . S
C254 C255 1.398 . S
C254 H277 0.929 . S
C255 C254 1.398 . S
C255 C256 1.352 . S
C256 C255 1.352 . S
C256 C257 1.384 . S
C256 H278 0.930 . S
C257 C252 1.407 . S
C257 C256 1.384 . S
C257 H279 0.929 . S
C258 O268 1.241 . S
C258 O269 1.273 . S
C259 O270 1.251 . S
C259 O271 1.268 . S
O260 Nd240 2.500 . S
O260 C242 1.258 . S
O261 Nd240 2.492 . S
O261 C242 1.239 . S
O262 Nd240 2.487 . S
O262 C249 1.241 . S
O263 Nd240 2.682 . S
O263 Nd241 2.414 . S
O263 C249 1.273 . S
O264 Nd240 2.410 . S
O264 C250 1.251 . S
O265 Nd241 2.424 . S
O265 C250 1.268 . S
O266 Nd241 2.500 . S
O266 C251 1.258 . S
O267 Nd241 2.492 . S
O267 C251 1.239 . S
O268 Nd241 2.487 . S
O268 C258 1.241 . S
O269 Nd240 2.414 . S
O269 Nd241 2.682 . S
O269 C258 1.273 . S
O270 Nd241 2.410 . S
O270 C259 1.251 . S
O271 Nd240 2.424 . S
O271 C259 1.268 . S
H272 C244 0.930 . S
H273 C245 0.929 . S
H274 C247 0.930 . S
H275 C248 0.929 . S
H276 C253 0.930 . S
H277 C254 0.929 . S
H278 C256 0.930 . S
H279 C257 0.929 . S
Nd280 C282 2.836 . S
Nd280 O300 2.500 . S
Nd280 O301 2.492 . S
Nd280 O302 2.487 . S
Nd280 O303 2.682 . S
Nd280 O304 2.410 . S
Nd280 O309 2.414 . S
Nd280 O311 2.424 . S
Nd281 C291 2.836 . S
Nd281 O303 2.414 . S
Nd281 O305 2.424 . S
Nd281 O306 2.500 . S
Nd281 O307 2.492 . S
Nd281 O308 2.487 . S
Nd281 O309 2.682 . S
Nd281 O310 2.410 . S
C282 Nd280 2.836 . S
C282 C283 1.498 . S
C282 O300 1.258 . S
C282 O301 1.239 . S
C283 C282 1.498 . S
C283 C284 1.366 . S
C283 C288 1.407 . S
C284 C283 1.366 . S
C284 C285 1.392 . S
C284 H312 0.930 . S
C285 C284 1.392 . S
C285 C286 1.398 . S
C285 H313 0.929 . S
C286 C285 1.398 . S
C286 C287 1.352 . S
C287 C286 1.352 . S
C287 C288 1.384 . S
C287 H314 0.930 . S
C288 C283 1.407 . S
C288 C287 1.384 . S
C288 H315 0.929 . S
C289 O302 1.241 . S
C289 O303 1.273 . S
C290 O304 1.251 . S
C290 O305 1.268 . S
C291 Nd281 2.836 . S
C291 C292 1.498 . S
C291 O306 1.258 . S
C291 O307 1.239 . S
C292 C291 1.498 . S
C292 C293 1.366 . S
C292 C297 1.407 . S
C293 C292 1.366 . S
C293 C294 1.392 . S
C293 H316 0.930 . S
C294 C293 1.392 . S
C294 C295 1.398 . S
C294 H317 0.929 . S
C295 C294 1.398 . S
C295 C296 1.352 . S
C296 C295 1.352 . S
C296 C297 1.384 . S
C296 H318 0.930 . S
C297 C292 1.407 . S
C297 C296 1.384 . S
C297 H319 0.929 . S
C298 O308 1.241 . S
C298 O309 1.273 . S
C299 O310 1.251 . S
C299 O311 1.268 . S
O300 Nd280 2.500 . S
O300 C282 1.258 . S
O301 Nd280 2.492 . S
O301 C282 1.239 . S
O302 Nd280 2.487 . S
O302 C289 1.241 . S
O303 Nd280 2.682 . S
O303 Nd281 2.414 . S
O303 C289 1.273 . S
O304 Nd280 2.410 . S
O304 C290 1.251 . S
O305 Nd281 2.424 . S
O305 C290 1.268 . S
O306 Nd281 2.500 . S
O306 C291 1.258 . S
O307 Nd281 2.492 . S
O307 C291 1.239 . S
O308 Nd281 2.487 . S
O308 C298 1.241 . S
O309 Nd280 2.414 . S
O309 Nd281 2.682 . S
O309 C298 1.273 . S
O310 Nd281 2.410 . S
O310 C299 1.251 . S
O311 Nd280 2.424 . S
O311 C299 1.268 . S
H312 C284 0.930 . S
H313 C285 0.929 . S
H314 C287 0.930 . S
H315 C288 0.929 . S
H316 C293 0.930 . S
H317 C294 0.929 . S
H318 C296 0.930 . S
H319 C297 0.929 . S
Nd320 C322 2.836 . S
Nd320 O340 2.500 . S
Nd320 O341 2.492 . S
Nd320 O342 2.487 . S
Nd320 O343 2.682 . S
Nd320 O344 2.410 . S
Nd320 O349 2.414 . S
Nd320 O351 2.424 . S
Nd321 C331 2.836 . S
Nd321 O343 2.414 . S
Nd321 O345 2.424 . S
Nd321 O346 2.500 . S
Nd321 O347 2.492 . S
Nd321 O348 2.487 . S
Nd321 O349 2.682 . S
Nd321 O350 2.410 . S
C322 Nd320 2.836 . S
C322 C323 1.498 . S
C322 O340 1.258 . S
C322 O341 1.239 . S
C323 C322 1.498 . S
C323 C324 1.366 . S
C323 C328 1.407 . S
C324 C323 1.366 . S
C324 C325 1.392 . S
C324 H352 0.930 . S
C325 C324 1.392 . S
C325 C326 1.398 . S
C325 H353 0.929 . S
C326 C325 1.398 . S
C326 C327 1.352 . S
C327 C326 1.352 . S
C327 C328 1.384 . S
C327 H354 0.930 . S
C328 C323 1.407 . S
C328 C327 1.384 . S
C328 H355 0.929 . S
C329 O342 1.241 . S
C329 O343 1.273 . S
C330 O344 1.251 . S
C330 O345 1.268 . S
C331 Nd321 2.836 . S
C331 C332 1.498 . S
C331 O346 1.258 . S
C331 O347 1.239 . S
C332 C331 1.498 . S
C332 C333 1.366 . S
C332 C337 1.407 . S
C333 C332 1.366 . S
C333 C334 1.392 . S
C333 H356 0.930 . S
C334 C333 1.392 . S
C334 C335 1.398 . S
C334 H357 0.929 . S
C335 C334 1.398 . S
C335 C336 1.352 . S
C336 C335 1.352 . S
C336 C337 1.384 . S
C336 H358 0.930 . S
C337 C332 1.407 . S
C337 C336 1.384 . S
C337 H359 0.929 . S
C338 O348 1.241 . S
C338 O349 1.273 . S
C339 O350 1.251 . S
C339 O351 1.268 . S
O340 Nd320 2.500 . S
O340 C322 1.258 . S
O341 Nd320 2.492 . S
O341 C322 1.239 . S
O342 Nd320 2.487 . S
O342 C329 1.241 . S
O343 Nd320 2.682 . S
O343 Nd321 2.414 . S
O343 C329 1.273 . S
O344 Nd320 2.410 . S
O344 C330 1.251 . S
O345 Nd321 2.424 . S
O345 C330 1.268 . S
O346 Nd321 2.500 . S
O346 C331 1.258 . S
O347 Nd321 2.492 . S
O347 C331 1.239 . S
O348 Nd321 2.487 . S
O348 C338 1.241 . S
O349 Nd320 2.414 . S
O349 Nd321 2.682 . S
O349 C338 1.273 . S
O350 Nd321 2.410 . S
O350 C339 1.251 . S
O351 Nd320 2.424 . S
O351 C339 1.268 . S
H352 C324 0.930 . S
H353 C325 0.929 . S
H354 C327 0.930 . S
H355 C328 0.929 . S
H356 C333 0.930 . S
H357 C334 0.929 . S
H358 C336 0.930 . S
H359 C337 0.929 . S
Nd360 C362 2.836 . S
Nd360 O380 2.500 . S
Nd360 O381 2.492 . S
Nd360 O382 2.487 . S
Nd360 O383 2.682 . S
Nd360 O384 2.410 . S
Nd360 O389 2.414 . S
Nd360 O391 2.424 . S
Nd361 C371 2.836 . S
Nd361 O383 2.414 . S
Nd361 O385 2.424 . S
Nd361 O386 2.500 . S
Nd361 O387 2.492 . S
Nd361 O388 2.487 . S
Nd361 O389 2.682 . S
Nd361 O390 2.410 . S
C362 Nd360 2.836 . S
C362 C363 1.498 . S
C362 O380 1.258 . S
C362 O381 1.239 . S
C363 C362 1.498 . S
C363 C364 1.366 . S
C363 C368 1.407 . S
C364 C363 1.366 . S
C364 C365 1.392 . S
C364 H392 0.930 . S
C365 C364 1.392 . S
C365 C366 1.398 . S
C365 H393 0.929 . S
C366 C365 1.398 . S
C366 C367 1.352 . S
C367 C366 1.352 . S
C367 C368 1.384 . S
C367 H394 0.930 . S
C368 C363 1.407 . S
C368 C367 1.384 . S
C368 H395 0.929 . S
C369 O382 1.241 . S
C369 O383 1.273 . S
C370 O384 1.251 . S
C370 O385 1.268 . S
C371 Nd361 2.836 . S
C371 C372 1.498 . S
C371 O386 1.258 . S
C371 O387 1.239 . S
C372 C371 1.498 . S
C372 C373 1.366 . S
C372 C377 1.407 . S
C373 C372 1.366 . S
C373 C374 1.392 . S
C373 H396 0.930 . S
C374 C373 1.392 . S
C374 C375 1.398 . S
C374 H397 0.929 . S
C375 C374 1.398 . S
C375 C376 1.352 . S
C376 C375 1.352 . S
C376 C377 1.384 . S
C376 H398 0.930 . S
C377 C372 1.407 . S
C377 C376 1.384 . S
C377 H399 0.929 . S
C378 O388 1.241 . S
C378 O389 1.273 . S
C379 O390 1.251 . S
C379 O391 1.268 . S
O380 Nd360 2.500 . S
O380 C362 1.258 . S
O381 Nd360 2.492 . S
O381 C362 1.239 . S
O382 Nd360 2.487 . S
O382 C369 1.241 . S
O383 Nd360 2.682 . S
O383 Nd361 2.414 . S
O383 C369 1.273 . S
O384 Nd360 2.410 . S
O384 C370 1.251 . S
O385 Nd361 2.424 . S
O385 C370 1.268 . S
O386 Nd361 2.500 . S
O386 C371 1.258 . S
O387 Nd361 2.492 . S
O387 C371 1.239 . S
O388 Nd361 2.487 . S
O388 C378 1.241 . S
O389 Nd360 2.414 . S
O389 Nd361 2.682 . S
O389 C378 1.273 . S
O390 Nd361 2.410 . S
O390 C379 1.251 . S
O391 Nd360 2.424 . S
O391 C379 1.268 . S
H392 C364 0.930 . S
H393 C365 0.929 . S
H394 C367 0.930 . S
H395 C368 0.929 . S
H396 C373 0.930 . S
H397 C374 0.929 . S
H398 C376 0.930 . S
H399 C377 0.929 . S
Nd400 C402 2.836 . S
Nd400 O420 2.500 . S
Nd400 O421 2.492 . S
Nd400 O422 2.487 . S
Nd400 O423 2.682 . S
Nd400 O424 2.410 . S
Nd400 O429 2.414 . S
Nd400 O431 2.424 . S
Nd401 C411 2.836 . S
Nd401 O423 2.414 . S
Nd401 O425 2.424 . S
Nd401 O426 2.500 . S
Nd401 O427 2.492 . S
Nd401 O428 2.487 . S
Nd401 O429 2.682 . S
Nd401 O430 2.410 . S
C402 Nd400 2.836 . S
C402 C403 1.498 . S
C402 O420 1.258 . S
C402 O421 1.239 . S
C403 C402 1.498 . S
C403 C404 1.366 . S
C403 C408 1.407 . S
C404 C403 1.366 . S
C404 C405 1.392 . S
C404 H432 0.930 . S
C405 C404 1.392 . S
C405 C406 1.398 . S
C405 H433 0.929 . S
C406 C405 1.398 . S
C406 C407 1.352 . S
C407 C406 1.352 . S
C407 C408 1.384 . S
C407 H434 0.930 . S
C408 C403 1.407 . S
C408 C407 1.384 . S
C408 H435 0.929 . S
C409 O422 1.241 . S
C409 O423 1.273 . S
C410 O424 1.251 . S
C410 O425 1.268 . S
C411 Nd401 2.836 . S
C411 C412 1.498 . S
C411 O426 1.258 . S
C411 O427 1.239 . S
C412 C411 1.498 . S
C412 C413 1.366 . S
C412 C417 1.407 . S
C413 C412 1.366 . S
C413 C414 1.392 . S
C413 H436 0.930 . S
C414 C413 1.392 . S
C414 C415 1.398 . S
C414 H437 0.929 . S
C415 C414 1.398 . S
C415 C416 1.352 . S
C416 C415 1.352 . S
C416 C417 1.384 . S
C416 H438 0.930 . S
C417 C412 1.407 . S
C417 C416 1.384 . S
C417 H439 0.929 . S
C418 O428 1.241 . S
C418 O429 1.273 . S
C419 O430 1.251 . S
C419 O431 1.268 . S
O420 Nd400 2.500 . S
O420 C402 1.258 . S
O421 Nd400 2.492 . S
O421 C402 1.239 . S
O422 Nd400 2.487 . S
O422 C409 1.241 . S
O423 Nd400 2.682 . S
O423 Nd401 2.414 . S
O423 C409 1.273 . S
O424 Nd400 2.410 . S
O424 C410 1.251 . S
O425 Nd401 2.424 . S
O425 C410 1.268 . S
O426 Nd401 2.500 . S
O426 C411 1.258 . S
O427 Nd401 2.492 . S
O427 C411 1.239 . S
O428 Nd401 2.487 . S
O428 C418 1.241 . S
O429 Nd400 2.414 . S
O429 Nd401 2.682 . S
O429 C418 1.273 . S
O430 Nd401 2.410 . S
O430 C419 1.251 . S
O431 Nd400 2.424 . S
O431 C419 1.268 . S
H432 C404 0.930 . S
H433 C405 0.929 . S
H434 C407 0.930 . S
H435 C408 0.929 . S
H436 C413 0.930 . S
H437 C414 0.929 . S
H438 C416 0.930 . S
H439 C417 0.929 . S
Nd440 C442 2.836 . S
Nd440 O460 2.500 . S
Nd440 O461 2.492 . S
Nd440 O462 2.487 . S
Nd440 O463 2.682 . S
Nd440 O464 2.410 . S
Nd440 O469 2.414 . S
Nd440 O471 2.424 . S
Nd441 C451 2.836 . S
Nd441 O463 2.414 . S
Nd441 O465 2.424 . S
Nd441 O466 2.500 . S
Nd441 O467 2.492 . S
Nd441 O468 2.487 . S
Nd441 O469 2.682 . S
Nd441 O470 2.410 . S
C442 Nd440 2.836 . S
C442 C443 1.498 . S
C442 O460 1.258 . S
C442 O461 1.239 . S
C443 C442 1.498 . S
C443 C444 1.366 . S
C443 C448 1.407 . S
C444 C443 1.366 . S
C444 C445 1.392 . S
C444 H472 0.930 . S
C445 C444 1.392 . S
C445 C446 1.398 . S
C445 H473 0.929 . S
C446 C445 1.398 . S
C446 C447 1.352 . S
C447 C446 1.352 . S
C447 C448 1.384 . S
C447 H474 0.930 . S
C448 C443 1.407 . S
C448 C447 1.384 . S
C448 H475 0.929 . S
C449 O462 1.241 . S
C449 O463 1.273 . S
C450 O464 1.251 . S
C450 O465 1.268 . S
C451 Nd441 2.836 . S
C451 C452 1.498 . S
C451 O466 1.258 . S
C451 O467 1.239 . S
C452 C451 1.498 . S
C452 C453 1.366 . S
C452 C457 1.407 . S
C453 C452 1.366 . S
C453 C454 1.392 . S
C453 H476 0.930 . S
C454 C453 1.392 . S
C454 C455 1.398 . S
C454 H477 0.929 . S
C455 C454 1.398 . S
C455 C456 1.352 . S
C456 C455 1.352 . S
C456 C457 1.384 . S
C456 H478 0.930 . S
C457 C452 1.407 . S
C457 C456 1.384 . S
C457 H479 0.929 . S
C458 O468 1.241 . S
C458 O469 1.273 . S
C459 O470 1.251 . S
C459 O471 1.268 . S
O460 Nd440 2.500 . S
O460 C442 1.258 . S
O461 Nd440 2.492 . S
O461 C442 1.239 . S
O462 Nd440 2.487 . S
O462 C449 1.241 . S
O463 Nd440 2.682 . S
O463 Nd441 2.414 . S
O463 C449 1.273 . S
O464 Nd440 2.410 . S
O464 C450 1.251 . S
O465 Nd441 2.424 . S
O465 C450 1.268 . S
O466 Nd441 2.500 . S
O466 C451 1.258 . S
O467 Nd441 2.492 . S
O467 C451 1.239 . S
O468 Nd441 2.487 . S
O468 C458 1.241 . S
O469 Nd440 2.414 . S
O469 Nd441 2.682 . S
O469 C458 1.273 . S
O470 Nd441 2.410 . S
O470 C459 1.251 . S
O471 Nd440 2.424 . S
O471 C459 1.268 . S
H472 C444 0.930 . S
H473 C445 0.929 . S
H474 C447 0.930 . S
H475 C448 0.929 . S
H476 C453 0.930 . S
H477 C454 0.929 . S
H478 C456 0.930 . S
H479 C457 0.929 . S
C480 C481 1.349 . S
C480 C482 1.327 . S
C480 H505 0.950 . S
C481 C480 1.349 . S
C481 C497 1.349 . S
C482 C480 1.327 . S
C482 C501 1.429 . S
C482 H506 0.950 1_655 S
C483 C500 1.574 . S
C483 C502 1.368 . S
C483 H507 0.949 1_455 S
H484 C488 0.949 . S
C485 C486 1.349 . S
C485 C487 1.327 . S
C485 H508 0.950 . S
C486 C485 1.349 . S
C486 C498 1.349 . S
C487 C485 1.327 . S
C487 C503 1.429 . S
C487 H509 0.950 . S
C488 H484 0.949 . S
C488 C496 1.574 . S
C488 C504 1.368 . S
H489 C497 0.950 . S
H490 C495 0.950 . S
H491 C496 0.949 . S
H492 C498 0.950 . S
H493 C499 0.950 . S
H494 C500 0.949 . S
C495 H490 0.950 . S
C495 C497 1.327 . S
C495 C501 1.429 . S
C496 C488 1.574 . S
C496 H491 0.949 . S
C496 C502 1.368 . S
C497 C481 1.349 . S
C497 H489 0.950 . S
C497 C495 1.327 . S
C498 C486 1.349 . S
C498 H492 0.950 . S
C498 C499 1.327 . S
C499 H493 0.950 . S
C499 C498 1.327 . S
C499 C503 1.429 . S
C500 C483 1.574 . S
C500 H494 0.949 . S
C500 C504 1.368 . S
C501 C482 1.429 . S
C501 C495 1.429 . S
C501 C502 1.523 1_655 S
C502 C483 1.368 . S
C502 C496 1.368 . S
C502 C501 1.523 1_455 S
C503 C487 1.429 . S
C503 C499 1.429 . S
C503 C504 1.523 . S
C504 C488 1.368 . S
C504 C500 1.368 . S
C504 C503 1.523 . S
H505 C480 0.950 . S
H506 C482 0.950 1_455 S
H507 C483 0.949 1_655 S
H508 C485 0.950 . S
H509 C487 0.950 . S
C510 C511 1.349 . S
C510 C512 1.327 . S
C510 H535 0.950 . S
C511 C510 1.349 . S
C511 C527 1.349 . S
C512 C510 1.327 . S
C512 C531 1.429 . S
C512 H536 0.950 1_545 S
C513 C530 1.574 . S
C513 C532 1.368 . S
C513 H537 0.949 1_565 S
H514 C518 0.949 . S
C515 C516 1.348 . S
C515 C517 1.327 . S
C515 H538 0.950 1_455 S
C516 C515 1.348 . S
C516 C528 1.356 . S
C517 C515 1.327 . S
C517 C533 1.429 . S
C517 H539 0.950 . S
C518 H514 0.949 . S
C518 C526 1.574 . S
C518 C534 1.368 . S
H519 C527 0.950 . S
H520 C525 0.950 . S
H521 C526 0.949 . S
H522 C528 0.950 . S
H523 C529 0.950 . S
H524 C530 0.949 . S
C525 H520 0.950 . S
C525 C527 1.327 . S
C525 C531 1.429 . S
C526 C518 1.574 . S
C526 H521 0.949 . S
C526 C532 1.368 . S
C527 C511 1.349 . S
C527 H519 0.950 . S
C527 C525 1.327 . S
C528 C516 1.356 . S
C528 H522 0.950 . S
C528 C529 1.327 . S
C529 H523 0.950 . S
C529 C528 1.327 . S
C529 C533 1.429 . S
C530 C513 1.574 . S
C530 H524 0.949 . S
C530 C534 1.368 . S
C531 C512 1.429 . S
C531 C525 1.429 . S
C531 C532 1.523 1_545 S
C532 C513 1.368 . S
C532 C526 1.368 . S
C532 C531 1.523 1_565 S
C533 C517 1.429 . S
C533 C529 1.429 . S
C533 C534 1.523 . S
C534 C518 1.368 . S
C534 C530 1.368 . S
C534 C533 1.523 . S
H535 C510 0.950 . S
H536 C512 0.950 1_565 S
H537 C513 0.949 1_545 S
H538 C515 0.950 1_655 S
H539 C517 0.950 . S
C540 C541 1.352 . S
C540 C542 1.327 . S
C540 H565 0.950 . S
C541 C540 1.352 . S
C541 C557 1.354 . S
C542 C540 1.327 . S
C542 C561 1.429 . S
C542 H566 0.950 . S
C543 C560 1.574 . S
C543 C562 1.368 . S
C543 H567 0.949 . S
H544 C548 0.949 . S
C545 C546 1.349 . S
C545 C547 1.327 . S
C545 H568 0.950 . S
C546 C545 1.349 . S
C546 C558 1.349 . S
C547 C545 1.327 . S
C547 C563 1.429 . S
C547 H569 0.950 . S
C548 H544 0.949 . S
C548 C556 1.574 . S
C548 C564 1.368 . S
H549 C557 0.948 1_545 S
H550 C555 0.950 . S
H551 C556 0.949 . S
H552 C558 0.950 . S
H553 C559 0.950 . S
H554 C560 0.949 . S
C555 H550 0.950 . S
C555 C557 1.327 . S
C555 C561 1.429 . S
C556 C548 1.574 . S
C556 H551 0.949 . S
C556 C562 1.368 . S
C557 C541 1.354 . S
C557 H549 0.948 1_565 S
C557 C555 1.327 . S
C558 C546 1.349 . S
C558 H552 0.950 . S
C558 C559 1.327 . S
C559 H553 0.950 . S
C559 C558 1.327 . S
C559 C563 1.429 . S
C560 C543 1.574 . S
C560 H554 0.949 . S
C560 C564 1.368 . S
C561 C542 1.429 . S
C561 C555 1.429 . S
C561 C562 1.523 . S
C562 C543 1.368 . S
C562 C556 1.368 . S
C562 C561 1.523 . S
C563 C547 1.429 . S
C563 C559 1.429 . S
C563 C564 1.523 . S
C564 C548 1.368 . S
C564 C560 1.368 . S
C564 C563 1.523 . S
H565 C540 0.950 . S
H566 C542 0.950 . S
H567 C543 0.949 . S
H568 C545 0.950 . S
H569 C547 0.950 . S
C570 C571 1.349 . S
C570 C572 1.327 . S
C570 H595 0.950 . S
C571 C570 1.349 . S
C571 C587 1.349 . S
C572 C570 1.327 . S
C572 C591 1.429 . S
C572 H596 0.950 . S
C573 C590 1.574 . S
C573 C592 1.368 . S
C573 H597 0.949 . S
H574 C578 0.949 1_655 S
C575 C576 1.349 . S
C575 C577 1.327 . S
C575 H598 0.950 . S
C576 C575 1.349 . S
C576 C588 1.349 . S
C577 C575 1.327 . S
C577 C593 1.429 . S
C577 H599 0.950 1_655 S
C578 H574 0.949 1_455 S
C578 C586 1.574 . S
C578 C594 1.368 . S
H579 C587 0.950 . S
H580 C585 0.950 . S
H581 C586 0.949 . S
H582 C588 0.950 . S
H583 C589 0.950 . S
H584 C590 0.949 . S
C585 H580 0.950 . S
C585 C587 1.327 . S
C585 C591 1.429 . S
C586 C578 1.574 . S
C586 H581 0.949 . S
C586 C592 1.368 . S
C587 C571 1.349 . S
C587 H579 0.950 . S
C587 C585 1.327 . S
C588 C576 1.349 . S
C588 H582 0.950 . S
C588 C589 1.327 . S
C589 H583 0.950 . S
C589 C588 1.327 . S
C589 C593 1.429 . S
C590 C573 1.574 . S
C590 H584 0.949 . S
C590 C594 1.368 . S
C591 C572 1.429 . S
C591 C585 1.429 . S
C591 C592 1.523 . S
C592 C573 1.368 . S
C592 C586 1.368 . S
C592 C591 1.523 . S
C593 C577 1.429 . S
C593 C589 1.429 . S
C593 C594 1.523 1_655 S
C594 C578 1.368 . S
C594 C590 1.368 . S
C594 C593 1.523 1_455 S
H595 C570 0.950 . S
H596 C572 0.950 . S
H597 C573 0.949 . S
H598 C575 0.950 . S
H599 C577 0.950 1_455 S
C600 C601 1.349 . S
C600 C602 1.327 . S
C600 H625 0.950 . S
C601 C600 1.349 . S
C601 C617 1.349 . S
C602 C600 1.327 . S
C602 C621 1.429 . S
C602 H626 0.950 . S
C603 C620 1.574 . S
C603 C622 1.368 . S
C603 H627 0.949 . S
H604 C608 0.949 . S
C605 C606 1.355 . S
C605 C607 1.327 . S
C605 H628 0.950 . S
C606 C605 1.355 . S
C606 C618 1.348 . S
C607 C605 1.327 . S
C607 C623 1.429 . S
C607 H629 0.950 . S
C608 H604 0.949 . S
C608 C616 1.574 . S
C608 C624 1.368 . S
H609 C617 0.950 . S
H610 C615 0.950 . S
H611 C616 0.949 1_545 S
H612 C618 0.950 1_655 S
H613 C619 0.950 . S
H614 C620 0.949 . S
C615 H610 0.950 . S
C615 C617 1.327 . S
C615 C621 1.429 . S
C616 C608 1.574 . S
C616 H611 0.949 1_565 S
C616 C622 1.368 . S
C617 C601 1.349 . S
C617 H609 0.950 . S
C617 C615 1.327 . S
C618 C606 1.348 . S
C618 H612 0.950 1_455 S
C618 C619 1.327 . S
C619 H613 0.950 . S
C619 C618 1.327 . S
C619 C623 1.429 . S
C620 C603 1.574 . S
C620 H614 0.949 . S
C620 C624 1.368 . S
C621 C602 1.429 . S
C621 C615 1.429 . S
C621 C622 1.523 1_545 S
C622 C603 1.368 . S
C622 C616 1.368 . S
C622 C621 1.523 1_565 S
C623 C607 1.429 . S
C623 C619 1.429 . S
C623 C624 1.523 . S
C624 C608 1.368 . S
C624 C620 1.368 . S
C624 C623 1.523 . S
H625 C600 0.950 . S
H626 C602 0.950 . S
H627 C603 0.949 . S
H628 C605 0.950 . S
H629 C607 0.950 . S
C630 C631 1.349 . S
C630 C632 1.327 . S
C630 H655 0.950 . S
C631 C630 1.349 . S
C631 C647 1.349 . S
C632 C630 1.327 . S
C632 C651 1.429 . S
C632 H656 0.950 . S
C633 C650 1.574 . S
C633 C652 1.368 . S
C633 H657 0.949 . S
H634 C638 0.949 . S
C635 C636 1.354 . S
C635 C637 1.327 . S
C635 H658 0.954 . S
C636 C635 1.354 . S
C636 C648 1.352 . S
C637 C635 1.327 . S
C637 C653 1.429 . S
C637 H659 0.950 . S
C638 H634 0.949 . S
C638 C646 1.574 . S
C638 C654 1.368 . S
H639 C647 0.950 . S
H640 C645 0.950 . S
H641 C646 0.949 . S
H642 C648 0.950 . S
H643 C649 0.950 . S
H644 C650 0.949 . S
C645 H640 0.950 . S
C645 C647 1.327 . S
C645 C651 1.429 . S
C646 C638 1.574 . S
C646 H641 0.949 . S
C646 C652 1.368 . S
C647 C631 1.349 . S
C647 H639 0.950 . S
C647 C645 1.327 . S
C648 C636 1.352 . S
C648 H642 0.950 . S
C648 C649 1.327 . S
C649 H643 0.950 . S
C649 C648 1.327 . S
C649 C653 1.429 . S
C650 C633 1.574 . S
C650 H644 0.949 . S
C650 C654 1.368 . S
C651 C632 1.429 . S
C651 C645 1.429 . S
C651 C652 1.523 . S
C652 C633 1.368 . S
C652 C646 1.368 . S
C652 C651 1.523 . S
C653 C637 1.429 . S
C653 C649 1.429 . S
C653 C654 1.523 . S
C654 C638 1.368 . S
C654 C650 1.368 . S
C654 C653 1.523 . S
H655 C630 0.950 . S
H656 C632 0.950 . S
H657 C633 0.949 . S
H658 C635 0.954 . S
H659 C637 0.950 . S
C660 C661 1.349 . S
C660 C662 1.327 . S
C660 H685 0.950 . S
C661 C660 1.349 . S
C661 C677 1.349 . S
C662 C660 1.327 . S
C662 C681 1.429 . S
C662 H686 0.950 . S
C663 C680 1.574 . S
C663 C682 1.368 . S
C663 H687 0.949 . S
H664 C668 0.949 . S
C665 C666 1.349 . S
C665 C667 1.327 . S
C665 H688 0.950 . S
C666 C665 1.349 . S
C666 C678 1.349 . S
C667 C665 1.327 . S
C667 C683 1.429 . S
C667 H689 0.950 . S
C668 H664 0.949 . S
C668 C676 1.574 . S
C668 C684 1.368 . S
H669 C677 0.950 . S
H670 C675 0.950 . S
H671 C676 0.971 . S
H672 C678 0.950 . S
H673 C679 0.950 . S
H674 C680 0.949 . S
C675 H670 0.950 . S
C675 C677 1.327 . S
C675 C681 1.429 . S
C676 C668 1.574 . S
C676 H671 0.971 . S
C676 C682 1.368 . S
C677 C661 1.349 . S
C677 H669 0.950 . S
C677 C675 1.327 . S
C678 C666 1.349 . S
C678 H672 0.950 . S
C678 C679 1.327 . S
C679 H673 0.950 . S
C679 C678 1.327 . S
C679 C683 1.429 . S
C680 C663 1.574 . S
C680 H674 0.949 . S
C680 C684 1.368 . S
C681 C662 1.429 . S
C681 C675 1.429 . S
C681 C682 1.523 1_565 S
C682 C663 1.368 . S
C682 C676 1.368 . S
C682 C681 1.523 1_545 S
C683 C667 1.429 . S
C683 C679 1.429 . S
C683 C684 1.523 . S
C684 C668 1.368 . S
C684 C680 1.368 . S
C684 C683 1.523 . S
H685 C660 0.950 . S
H686 C662 0.950 . S
H687 C663 0.949 . S
H688 C665 0.950 . S
H689 C667 0.950 . S
C690 C691 1.352 . S
C690 C692 1.327 . S
C690 H715 0.950 . S
C691 C690 1.352 . S
C691 C707 1.354 . S
C692 C690 1.327 . S
C692 C711 1.429 . S
C692 H716 0.950 . S
C693 C710 1.574 . S
C693 C712 1.368 . S
C693 H717 0.949 . S
H694 C698 0.949 . S
C695 C696 1.349 . S
C695 C697 1.327 . S
C695 H718 0.950 . S
C696 C695 1.349 . S
C696 C708 1.349 . S
C697 C695 1.327 . S
C697 C713 1.429 . S
C697 H719 0.950 . S
C698 H694 0.949 . S
C698 C706 1.574 . S
C698 C714 1.368 . S
H699 C707 0.940 1_455 S
H700 C705 0.950 . S
H701 C706 0.949 . S
H702 C708 0.950 . S
H703 C709 0.950 . S
H704 C710 0.949 . S
C705 H700 0.950 . S
C705 C707 1.327 . S
C705 C711 1.429 . S
C706 C698 1.574 . S
C706 H701 0.949 . S
C706 C712 1.368 . S
C707 C691 1.354 . S
C707 H699 0.940 1_655 S
C707 C705 1.327 . S
C708 C696 1.349 . S
C708 H702 0.950 . S
C708 C709 1.327 . S
C709 H703 0.950 . S
C709 C708 1.327 . S
C709 C713 1.429 . S
C710 C693 1.574 . S
C710 H704 0.949 . S
C710 C714 1.368 . S
C711 C692 1.429 . S
C711 C705 1.429 . S
C711 C712 1.523 . S
C712 C693 1.368 . S
C712 C706 1.368 . S
C712 C711 1.523 . S
C713 C697 1.429 . S
C713 C709 1.429 . S
C713 C714 1.523 . S
C714 C698 1.368 . S
C714 C710 1.368 . S
C714 C713 1.523 . S
H715 C690 0.950 . S
H716 C692 0.950 . S
H717 C693 0.949 . S
H718 C695 0.950 . S
H719 C697 0.950 . S
C720 C721 1.348 . S
C720 C722 1.327 . S
C720 H745 0.950 1_545 S
C721 C720 1.348 . S
C721 C737 1.355 . S
C722 C720 1.327 . S
C722 C741 1.429 . S
C722 H746 0.950 . S
C723 C740 1.574 . S
C723 C742 1.368 . S
C723 H747 0.949 . S
H724 C728 0.949 1_455 S
C725 C726 1.349 . S
C725 C727 1.327 . S
C725 H748 0.950 . S
C726 C725 1.349 . S
C726 C738 1.349 . S
C727 C725 1.327 . S
C727 C743 1.429 . S
C727 H749 0.950 . S
C728 H724 0.949 1_655 S
C728 C736 1.574 . S
C728 C744 1.368 . S
H729 C737 0.950 . S
H730 C735 0.950 . S
H731 C736 0.949 . S
H732 C738 0.950 . S
H733 C739 0.950 . S
H734 C740 0.949 . S
C735 H730 0.950 . S
C735 C737 1.327 . S
C735 C741 1.429 . S
C736 C728 1.574 . S
C736 H731 0.949 . S
C736 C742 1.368 . S
C737 C721 1.355 . S
C737 H729 0.950 . S
C737 C735 1.327 . S
C738 C726 1.349 . S
C738 H732 0.950 . S
C738 C739 1.327 . S
C739 H733 0.950 . S
C739 C738 1.327 . S
C739 C743 1.429 . S
C740 C723 1.574 . S
C740 H734 0.949 . S
C740 C744 1.368 . S
C741 C722 1.429 . S
C741 C735 1.429 . S
C741 C742 1.523 . S
C742 C723 1.368 . S
C742 C736 1.368 . S
C742 C741 1.523 . S
C743 C727 1.429 . S
C743 C739 1.429 . S
C743 C744 1.523 1_455 S
C744 C728 1.368 . S
C744 C740 1.368 . S
C744 C743 1.523 1_655 S
H745 C720 0.950 1_565 S
H746 C722 0.950 . S
H747 C723 0.949 . S
H748 C725 0.950 . S
H749 C727 0.950 . S
C750 C751 1.349 . S
C750 C752 1.327 . S
C750 H775 0.950 . S
C751 C750 1.349 . S
C751 C767 1.349 . S
C752 C750 1.327 . S
C752 C771 1.429 . S
C752 H776 0.950 . S
C753 C770 1.574 . S
C753 C772 1.368 . S
C753 H777 0.949 . S
H754 C758 0.949 1_565 S
C755 C756 1.349 . S
C755 C757 1.327 . S
C755 H778 0.950 . S
C756 C755 1.349 . S
C756 C768 1.349 . S
C757 C755 1.327 . S
C757 C773 1.429 . S
C757 H779 0.940 1_565 S
C758 H754 0.949 1_545 S
C758 C766 1.574 . S
C758 C774 1.368 . S
H759 C767 0.950 . S
H760 C765 0.950 . S
H761 C766 0.949 . S
H762 C768 0.950 . S
H763 C769 0.950 . S
H764 C770 0.949 . S
C765 H760 0.950 . S
C765 C767 1.327 . S
C765 C771 1.429 . S
C766 C758 1.574 . S
C766 H761 0.949 . S
C766 C772 1.368 . S
C767 C751 1.349 . S
C767 H759 0.950 . S
C767 C765 1.327 . S
C768 C756 1.349 . S
C768 H762 0.950 . S
C768 C769 1.327 . S
C769 H763 0.950 . S
C769 C768 1.327 . S
C769 C773 1.429 . S
C770 C753 1.574 . S
C770 H764 0.949 . S
C770 C774 1.368 . S
C771 C752 1.429 . S
C771 C765 1.429 . S
C771 C772 1.523 . S
C772 C753 1.368 . S
C772 C766 1.368 . S
C772 C771 1.523 . S
C773 C757 1.429 . S
C773 C769 1.429 . S
C773 C774 1.523 1_565 S
C774 C758 1.368 . S
C774 C770 1.368 . S
C774 C773 1.523 1_545 S
H775 C750 0.950 . S
H776 C752 0.950 . S
H777 C753 0.949 . S
H778 C755 0.950 . S
H779 C757 0.940 1_545 S
C780 C781 1.354 . S
C780 C782 1.327 . S
C780 H805 0.950 1_655 S
C781 C780 1.354 . S
C781 C797 1.352 . S
C782 C780 1.327 . S
C782 C801 1.429 . S
C782 H806 0.950 . S
C783 C800 1.574 . S
C783 C802 1.368 . S
C783 H807 0.949 . S
H784 C788 0.949 . S
C785 C786 1.349 . S
C785 C787 1.327 . S
C785 H808 0.950 . S
C786 C785 1.349 . S
C786 C798 1.349 . S
C787 C785 1.327 . S
C787 C803 1.429 . S
C787 H809 0.950 . S
C788 H784 0.949 . S
C788 C796 1.574 . S
C788 C804 1.368 . S
H789 C797 0.950 . S
H790 C795 0.950 . S
H791 C796 0.949 . S
H792 C798 0.950 . S
H793 C799 0.950 . S
H794 C800 0.949 . S
C795 H790 0.950 . S
C795 C797 1.327 . S
C795 C801 1.429 . S
C796 C788 1.574 . S
C796 H791 0.949 . S
C796 C802 1.368 . S
C797 C781 1.352 . S
C797 H789 0.950 . S
C797 C795 1.327 . S
C798 C786 1.349 . S
C798 H792 0.950 . S
C798 C799 1.327 . S
C799 H793 0.950 . S
C799 C798 1.327 . S
C799 C803 1.429 . S
C800 C783 1.574 . S
C800 H794 0.949 . S
C800 C804 1.368 . S
C801 C782 1.429 . S
C801 C795 1.429 . S
C801 C802 1.523 . S
C802 C783 1.368 . S
C802 C796 1.368 . S
C802 C801 1.523 . S
C803 C787 1.429 . S
C803 C799 1.429 . S
C803 C804 1.523 . S
C804 C788 1.368 . S
C804 C800 1.368 . S
C804 C803 1.523 . S
H805 C780 0.950 1_455 S
H806 C782 0.950 . S
H807 C783 0.949 . S
H808 C785 0.950 . S
H809 C787 0.950 . S
C810 C811 1.349 . S
C810 C812 1.327 . S
C810 H835 0.950 . S
C811 C810 1.349 . S
C811 C827 1.349 . S
C812 C810 1.327 . S
C812 C831 1.429 . S
C812 H836 0.950 . S
C813 C830 1.574 . S
C813 C832 1.368 . S
C813 H837 0.949 . S
H814 C818 0.949 . S
C815 C816 1.357 . S
C815 C817 1.327 . S
C815 H838 0.950 . S
C816 C815 1.357 . S
C816 C828 1.347 . S
C817 C815 1.327 . S
C817 C833 1.429 . S
C817 H839 0.950 . S
C818 H814 0.949 . S
C818 C826 1.572 1_655 S
C818 C834 1.368 . S
H819 C827 0.950 . S
H820 C825 0.950 1_655 S
H821 C826 0.955 . S
H822 C828 0.950 1_565 S
H823 C829 0.950 . S
H824 C830 0.949 . S
C825 H820 0.950 1_455 S
C825 C827 1.327 . S
C825 C831 1.429 . S
C826 C818 1.572 1_455 S
C826 H821 0.955 . S
C826 C832 1.363 1_455 S
C827 C811 1.349 . S
C827 H819 0.950 . S
C827 C825 1.327 . S
C828 C816 1.347 . S
C828 H822 0.950 1_545 S
C828 C829 1.327 . S
C829 H823 0.950 . S
C829 C828 1.327 . S
C829 C833 1.429 . S
C830 C813 1.574 . S
C830 H824 0.949 . S
C830 C834 1.368 . S
C831 C812 1.429 . S
C831 C825 1.429 . S
C831 C832 1.523 1_455 S
C832 C813 1.368 . S
C832 C826 1.363 1_655 S
C832 C831 1.523 1_655 S
C833 C817 1.429 . S
C833 C829 1.429 . S
C833 C834 1.523 . S
C834 C818 1.368 . S
C834 C830 1.368 . S
C834 C833 1.523 . S
H835 C810 0.950 . S
H836 C812 0.950 . S
H837 C813 0.949 . S
H838 C815 0.950 . S
H839 C817 0.950 . S
C840 C841 1.349 . S
C840 C842 1.327 . S
C840 H865 0.950 . S
C841 C840 1.349 . S
C841 C857 1.349 . S
C842 C840 1.327 . S
C842 C861 1.429 . S
C842 H866 0.950 . S
C843 C860 1.574 . S
C843 C862 1.368 . S
C843 H867 0.949 . S
H844 C848 0.949 . S
C845 C846 1.349 . S
C845 C847 1.327 . S
C845 H868 0.950 . S
C846 C845 1.349 . S
C846 C858 1.349 . S
C847 C845 1.327 . S
C847 C863 1.429 . S
C847 H869 0.950 . S
C848 H844 0.949 . S
C848 C856 1.574 . S
C848 C864 1.368 . S
H849 C857 0.950 . S
H850 C855 0.950 . S
H851 C856 0.949 . S
H852 C858 0.950 . S
H853 C859 0.950 . S
H854 C860 0.949 . S
C855 H850 0.950 . S
C855 C857 1.327 . S
C855 C861 1.429 . S
C856 C848 1.574 . S
C856 H851 0.949 . S
C856 C862 1.368 . S
C857 C841 1.349 . S
C857 H849 0.950 . S
C857 C855 1.327 . S
C858 C846 1.349 . S
C858 H852 0.950 . S
C858 C859 1.327 . S
C859 H853 0.950 . S
C859 C858 1.327 . S
C859 C863 1.429 . S
C860 C843 1.574 . S
C860 H854 0.949 . S
C860 C864 1.368 . S
C861 C842 1.429 . S
C861 C855 1.429 . S
C861 C862 1.523 . S
C862 C843 1.368 . S
C862 C856 1.368 . S
C862 C861 1.523 . S
C863 C847 1.429 . S
C863 C859 1.429 . S
C863 C864 1.523 . S
C864 C848 1.368 . S
C864 C860 1.368 . S
C864 C863 1.523 . S
H865 C840 0.950 . S
H866 C842 0.950 . S
H867 C843 0.949 . S
H868 C845 0.950 . S
H869 C847 0.950 . S
C870 C871 1.349 . S
C870 C872 1.327 . S
C870 H895 0.950 . S
C871 C870 1.349 . S
C871 C887 1.349 . S
C872 C870 1.327 . S
C872 C891 1.429 . S
C872 H896 0.950 . S
C873 C890 1.574 . S
C873 C892 1.368 . S
C873 H897 0.949 . S
H874 C878 0.949 . S
C875 C876 1.349 . S
C875 C877 1.327 . S
C875 H898 0.950 . S
C876 C875 1.349 . S
C876 C888 1.349 . S
C877 C875 1.327 . S
C877 C893 1.429 . S
C877 H899 0.950 . S
C878 H874 0.949 . S
C878 C886 1.574 . S
C878 C894 1.368 . S
H879 C887 0.950 . S
H880 C885 0.950 . S
H881 C886 0.949 . S
H882 C888 0.950 . S
H883 C889 0.950 . S
H884 C890 0.949 . S
C885 H880 0.950 . S
C885 C887 1.327 . S
C885 C891 1.429 . S
C886 C878 1.574 . S
C886 H881 0.949 . S
C886 C892 1.368 . S
C887 C871 1.349 . S
C887 H879 0.950 . S
C887 C885 1.327 . S
C888 C876 1.349 . S
C888 H882 0.950 . S
C888 C889 1.327 . S
C889 H883 0.950 . S
C889 C888 1.327 . S
C889 C893 1.429 . S
C890 C873 1.574 . S
C890 H884 0.949 . S
C890 C894 1.368 . S
C891 C872 1.429 . S
C891 C885 1.429 . S
C891 C892 1.523 . S
C892 C873 1.368 . S
C892 C886 1.368 . S
C892 C891 1.523 . S
C893 C877 1.429 . S
C893 C889 1.429 . S
C893 C894 1.523 . S
C894 C878 1.368 . S
C894 C890 1.368 . S
C894 C893 1.523 . S
H895 C870 0.950 . S
H896 C872 0.950 . S
H897 C873 0.949 . S
H898 C875 0.950 . S
H899 C877 0.950 . S
C900 C901 1.349 . S
C900 C902 1.327 . S
C900 H925 0.950 . S
C901 C900 1.349 . S
C901 C917 1.349 . S
C902 C900 1.327 . S
C902 C921 1.429 . S
C902 H926 0.950 . S
C903 C920 1.574 . S
C903 C922 1.368 . S
C903 H927 0.949 . S
H904 C908 0.949 . S
C905 C906 1.349 . S
C905 C907 1.327 . S
C905 H928 0.950 . S
C906 C905 1.349 . S
C906 C918 1.349 . S
C907 C905 1.327 . S
C907 C923 1.429 . S
C907 H929 0.950 . S
C908 H904 0.949 . S
C908 C916 1.574 . S
C908 C924 1.368 . S
H909 C917 0.950 . S
H910 C915 0.950 . S
H911 C916 0.949 . S
H912 C918 0.950 . S
H913 C919 0.950 . S
H914 C920 0.949 . S
C915 H910 0.950 . S
C915 C917 1.327 . S
C915 C921 1.429 . S
C916 C908 1.574 . S
C916 H911 0.949 . S
C916 C922 1.368 . S
C917 C901 1.349 . S
C917 H909 0.950 . S
C917 C915 1.327 . S
C918 C906 1.349 . S
C918 H912 0.950 . S
C918 C919 1.327 . S
C919 H913 0.950 . S
C919 C918 1.327 . S
C919 C923 1.429 . S
C920 C903 1.574 . S
C920 H914 0.949 . S
C920 C924 1.368 . S
C921 C902 1.429 . S
C921 C915 1.429 . S
C921 C922 1.523 . S
C922 C903 1.368 . S
C922 C916 1.368 . S
C922 C921 1.523 . S
C923 C907 1.429 . S
C923 C919 1.429 . S
C923 C924 1.523 . S
C924 C908 1.368 . S
C924 C920 1.368 . S
C924 C923 1.523 . S
H925 C900 0.950 . S
H926 C902 0.950 . S
H927 C903 0.949 . S
H928 C905 0.950 . S
H929 C907 0.950 . S
C930 C931 1.349 . S
C930 C932 1.327 . S
C930 H955 0.950 . S
C931 C930 1.349 . S
C931 C947 1.349 . S
C932 C930 1.327 . S
C932 C951 1.429 . S
C932 H956 0.950 . S
C933 C950 1.574 . S
C933 C952 1.368 . S
C933 H957 0.949 . S
H934 C938 0.949 . S
C935 C936 1.349 . S
C935 C937 1.327 . S
C935 H958 0.950 . S
C936 C935 1.349 . S
C936 C948 1.349 . S
C937 C935 1.327 . S
C937 C953 1.429 . S
C937 H959 0.950 . S
C938 H934 0.949 . S
C938 C946 1.574 . S
C938 C954 1.368 . S
H939 C947 0.950 . S
H940 C945 0.950 . S
H941 C946 0.949 . S
H942 C948 0.950 . S
H943 C949 0.950 . S
H944 C950 0.949 . S
C945 H940 0.950 . S
C945 C947 1.327 . S
C945 C951 1.429 . S
C946 C938 1.574 . S
C946 H941 0.949 . S
C946 C952 1.368 . S
C947 C931 1.349 . S
C947 H939 0.950 . S
C947 C945 1.327 . S
C948 C936 1.349 . S
C948 H942 0.950 . S
C948 C949 1.327 . S
C949 H943 0.950 . S
C949 C948 1.327 . S
C949 C953 1.429 . S
C950 C933 1.574 . S
C950 H944 0.949 . S
C950 C954 1.368 . S
C951 C932 1.429 . S
C951 C945 1.429 . S
C951 C952 1.523 . S
C952 C933 1.368 . S
C952 C946 1.368 . S
C952 C951 1.523 . S
C953 C937 1.429 . S
C953 C949 1.429 . S
C953 C954 1.523 . S
C954 C938 1.368 . S
C954 C950 1.368 . S
C954 C953 1.523 . S
H955 C930 0.950 . S
H956 C932 0.950 . S
H957 C933 0.949 . S
H958 C935 0.950 . S
H959 C937 0.950 . S
C960 C961 1.349 . S
C960 C962 1.327 . S
C960 H985 0.950 . S
C961 C960 1.349 . S
C961 C977 1.349 . S
C962 C960 1.327 . S
C962 C981 1.429 . S
C962 H986 0.950 . S
C963 C980 1.574 . S
C963 C982 1.368 . S
C963 H987 0.949 . S
H964 C968 0.949 . S
C965 C966 1.349 . S
C965 C967 1.327 . S
C965 H988 0.950 . S
C966 C965 1.349 . S
C966 C978 1.349 . S
C967 C965 1.327 . S
C967 C983 1.429 . S
C967 H989 0.950 . S
C968 H964 0.949 . S
C968 C976 1.574 . S
C968 C984 1.368 . S
H969 C977 0.950 . S
H970 C975 0.950 . S
H971 C976 0.949 . S
H972 C978 0.950 . S
H973 C979 0.950 . S
H974 C980 0.949 . S
C975 H970 0.950 . S
C975 C977 1.327 . S
C975 C981 1.429 . S
C976 C968 1.574 . S
C976 H971 0.949 . S
C976 C982 1.368 . S
C977 C961 1.349 . S
C977 H969 0.950 . S
C977 C975 1.327 . S
C978 C966 1.349 . S
C978 H972 0.950 . S
C978 C979 1.327 . S
C979 H973 0.950 . S
C979 C978 1.327 . S
C979 C983 1.429 . S
C980 C963 1.574 . S
C980 H974 0.949 . S
C980 C984 1.368 . S
C981 C962 1.429 . S
C981 C975 1.429 . S
C981 C982 1.523 . S
C982 C963 1.368 . S
C982 C976 1.368 . S
C982 C981 1.523 . S
C983 C967 1.429 . S
C983 C979 1.429 . S
C983 C984 1.523 . S
C984 C968 1.368 . S
C984 C980 1.368 . S
C984 C983 1.523 . S
H985 C960 0.950 . S
H986 C962 0.950 . S
H987 C963 0.949 . S
H988 C965 0.950 . S
H989 C967 0.950 . S
C990 C991 1.349 . S
C990 C992 1.327 . S
C990 H1015 0.950 . S
C991 C990 1.349 . S
C991 C1007 1.349 . S
C992 C990 1.327 . S
C992 C1011 1.429 . S
C992 H1016 0.950 . S
C993 C1010 1.574 . S
C993 C1012 1.368 . S
C993 H1017 0.949 . S
H994 C998 0.949 . S
C995 C996 1.349 . S
C995 C997 1.327 . S
C995 H1018 0.950 . S
C996 C995 1.349 . S
C996 C1008 1.349 . S
C997 C995 1.327 . S
C997 C1013 1.429 . S
C997 H1019 0.950 . S
C998 H994 0.949 . S
C998 C1006 1.574 . S
C998 C1014 1.368 . S
H999 C1007 0.950 . S
H1000 C1005 0.950 . S
H1001 C1006 0.949 . S
H1002 C1008 0.950 . S
H1003 C1009 0.950 . S
H1004 C1010 0.949 . S
C1005 H1000 0.950 . S
C1005 C1007 1.327 . S
C1005 C1011 1.429 . S
C1006 C998 1.574 . S
C1006 H1001 0.949 . S
C1006 C1012 1.368 . S
C1007 C991 1.349 . S
C1007 H999 0.950 . S
C1007 C1005 1.327 . S
C1008 C996 1.349 . S
C1008 H1002 0.950 . S
C1008 C1009 1.327 . S
C1009 H1003 0.950 . S
C1009 C1008 1.327 . S
C1009 C1013 1.429 . S
C1010 C993 1.574 . S
C1010 H1004 0.949 . S
C1010 C1014 1.368 . S
C1011 C992 1.429 . S
C1011 C1005 1.429 . S
C1011 C1012 1.523 . S
C1012 C993 1.368 . S
C1012 C1006 1.368 . S
C1012 C1011 1.523 . S
C1013 C997 1.429 . S
C1013 C1009 1.429 . S
C1013 C1014 1.523 . S
C1014 C998 1.368 . S
C1014 C1010 1.368 . S
C1014 C1013 1.523 . S
H1015 C990 0.950 . S
H1016 C992 0.950 . S
H1017 C993 0.949 . S
H1018 C995 0.950 . S
H1019 C997 0.950 . S
C1020 C1021 1.349 . S
C1020 C1022 1.327 . S
C1020 H1045 0.950 . S
C1021 C1020 1.349 . S
C1021 C1037 1.349 . S
C1022 C1020 1.327 . S
C1022 C1041 1.429 . S
C1022 H1046 0.950 . S
C1023 C1040 1.572 1_565 S
C1023 C1042 1.368 . S
C1023 H1047 0.949 . S
H1024 C1028 0.949 . S
C1025 C1026 1.349 . S
C1025 C1027 1.327 . S
C1025 H1048 0.950 . S
C1026 C1025 1.349 . S
C1026 C1038 1.349 . S
C1027 C1025 1.327 . S
C1027 C1043 1.429 . S
C1027 H1049 0.950 . S
C1028 H1024 0.949 . S
C1028 C1036 1.572 1_545 S
C1028 C1044 1.368 . S
H1029 C1037 0.950 . S
H1030 C1035 0.950 . S
H1031 C1036 0.949 1_556 S
H1032 C1038 0.950 . S
H1033 C1039 0.950 . S
H1034 C1040 0.949 1_554 S
C1035 H1030 0.950 . S
C1035 C1037 1.327 . S
C1035 C1041 1.429 . S
C1036 C1028 1.572 1_565 S
C1036 H1031 0.949 1_554 S
C1036 C1042 1.370 1_554 S
C1037 C1021 1.349 . S
C1037 H1029 0.950 . S
C1037 C1035 1.327 . S
C1038 C1026 1.349 . S
C1038 H1032 0.950 . S
C1038 C1039 1.327 . S
C1039 H1033 0.950 . S
C1039 C1038 1.327 . S
C1039 C1043 1.429 . S
C1040 C1023 1.572 1_545 S
C1040 H1034 0.949 1_556 S
C1040 C1044 1.370 1_556 S
C1041 C1022 1.429 . S
C1041 C1035 1.429 . S
C1041 C1042 1.523 . S
C1042 C1023 1.368 . S
C1042 C1036 1.370 1_556 S
C1042 C1041 1.523 . S
C1043 C1027 1.429 . S
C1043 C1039 1.429 . S
C1043 C1044 1.523 . S
C1044 C1028 1.368 . S
C1044 C1040 1.370 1_554 S
C1044 C1043 1.523 . S
H1045 C1020 0.950 . S
H1046 C1022 0.950 . S
H1047 C1023 0.949 . S
H1048 C1025 0.950 . S
H1049 C1027 0.950 . S
C1050 C1051 1.349 . S
C1050 C1052 1.327 . S
C1050 H1075 0.950 . S
C1051 C1050 1.349 . S
C1051 C1067 1.349 . S
C1052 C1050 1.327 . S
C1052 C1071 1.429 . S
C1052 H1076 0.950 . S
C1053 C1070 1.574 . S
C1053 C1072 1.368 . S
C1053 H1077 0.949 . S
H1054 C1058 0.949 . S
C1055 C1056 1.349 . S
C1055 C1057 1.327 . S
C1055 H1078 0.950 . S
C1056 C1055 1.349 . S
C1056 C1068 1.349 . S
C1057 C1055 1.327 . S
C1057 C1073 1.429 . S
C1057 H1079 0.950 . S
C1058 H1054 0.949 . S
C1058 C1066 1.574 . S
C1058 C1074 1.368 . S
H1059 C1067 0.950 . S
H1060 C1065 0.950 . S
H1061 C1066 0.949 . S
H1062 C1068 0.950 . S
H1063 C1069 0.950 . S
H1064 C1070 0.949 . S
C1065 H1060 0.950 . S
C1065 C1067 1.327 . S
C1065 C1071 1.429 . S
C1066 C1058 1.574 . S
C1066 H1061 0.949 . S
C1066 C1072 1.368 . S
C1067 C1051 1.349 . S
C1067 H1059 0.950 . S
C1067 C1065 1.327 . S
C1068 C1056 1.349 . S
C1068 H1062 0.950 . S
C1068 C1069 1.327 . S
C1069 H1063 0.950 . S
C1069 C1068 1.327 . S
C1069 C1073 1.429 . S
C1070 C1053 1.574 . S
C1070 H1064 0.949 . S
C1070 C1074 1.368 . S
C1071 C1052 1.429 . S
C1071 C1065 1.429 . S
C1071 C1072 1.523 . S
C1072 C1053 1.368 . S
C1072 C1066 1.368 . S
C1072 C1071 1.523 . S
C1073 C1057 1.429 . S
C1073 C1069 1.429 . S
C1073 C1074 1.523 . S
C1074 C1058 1.368 . S
C1074 C1070 1.368 . S
C1074 C1073 1.523 . S
H1075 C1050 0.950 . S
H1076 C1052 0.950 . S
H1077 C1053 0.949 . S
H1078 C1055 0.950 . S
H1079 C1057 0.950 . S
C1080 C1081 1.349 . S
C1080 C1082 1.327 . S
C1080 H1105 0.950 . S
C1081 C1080 1.349 . S
C1081 C1097 1.349 . S
C1082 C1080 1.327 . S
C1082 C1101 1.429 . S
C1082 H1106 0.950 . S
C1083 C1100 1.594 1_455 S
C1083 C1102 1.348 1_554 S
C1083 H1107 0.949 . S
H1084 C1088 0.949 . S
C1085 C1086 1.349 . S
C1085 C1087 1.327 . S
C1085 H1108 0.950 . S
C1086 C1085 1.349 . S
C1086 C1098 1.349 . S
C1087 C1085 1.327 . S
C1087 C1103 1.429 . S
C1087 H1109 0.950 . S
C1088 H1084 0.949 . S
C1088 C1096 1.594 1_655 S
C1088 C1104 1.348 1_556 S
H1089 C1097 0.950 . S
H1090 C1095 0.950 . S
H1091 C1096 0.949 . S
H1092 C1098 0.950 . S
H1093 C1099 0.950 . S
H1094 C1100 0.949 . S
C1095 H1090 0.950 . S
C1095 C1097 1.327 . S
C1095 C1101 1.429 . S
C1096 C1088 1.594 1_455 S
C1096 H1091 0.949 . S
C1096 C1102 1.368 . S
C1097 C1081 1.349 . S
C1097 H1089 0.950 . S
C1097 C1095 1.327 . S
C1098 C1086 1.349 . S
C1098 H1092 0.950 . S
C1098 C1099 1.327 . S
C1099 H1093 0.950 . S
C1099 C1098 1.327 . S
C1099 C1103 1.429 . S
C1100 C1083 1.594 1_655 S
C1100 H1094 0.949 . S
C1100 C1104 1.368 . S
C1101 C1082 1.429 . S
C1101 C1095 1.429 . S
C1101 C1102 1.523 . S
C1102 C1083 1.348 1_556 S
C1102 C1096 1.368 . S
C1102 C1101 1.523 . S
C1103 C1087 1.429 . S
C1103 C1099 1.429 . S
C1103 C1104 1.523 . S
C1104 C1088 1.348 1_554 S
C1104 C1100 1.368 . S
C1104 C1103 1.523 . S
H1105 C1080 0.950 . S
H1106 C1082 0.950 . S
H1107 C1083 0.949 . S
H1108 C1085 0.950 . S
H1109 C1087 0.950 . S
C1110 C1111 1.349 . S
C1110 C1112 1.327 . S
C1110 H1135 0.950 . S
C1111 C1110 1.349 . S
C1111 C1127 1.349 . S
C1112 C1110 1.327 . S
C1112 C1131 1.429 . S
C1112 H1136 0.950 . S
C1113 C1130 1.574 . S
C1113 C1132 1.368 . S
C1113 H1137 0.949 . S
H1114 C1118 0.949 . S
C1115 C1116 1.349 . S
C1115 C1117 1.327 . S
C1115 H1138 0.950 . S
C1116 C1115 1.349 . S
C1116 C1128 1.349 . S
C1117 C1115 1.327 . S
C1117 C1133 1.429 . S
C1117 H1139 0.950 . S
C1118 H1114 0.949 . S
C1118 C1126 1.574 . S
C1118 C1134 1.368 . S
H1119 C1127 0.950 . S
H1120 C1125 0.950 . S
H1121 C1126 0.949 . S
H1122 C1128 0.950 . S
H1123 C1129 0.950 . S
H1124 C1130 0.949 . S
C1125 H1120 0.950 . S
C1125 C1127 1.327 . S
C1125 C1131 1.429 . S
C1126 C1118 1.574 . S
C1126 H1121 0.949 . S
C1126 C1132 1.368 1_565 S
C1127 C1111 1.349 . S
C1127 H1119 0.950 . S
C1127 C1125 1.327 . S
C1128 C1116 1.349 . S
C1128 H1122 0.950 . S
C1128 C1129 1.327 . S
C1129 H1123 0.950 . S
C1129 C1128 1.327 . S
C1129 C1133 1.429 . S
C1130 C1113 1.574 . S
C1130 H1124 0.949 . S
C1130 C1134 1.368 1_545 S
C1131 C1112 1.429 . S
C1131 C1125 1.429 . S
C1131 C1132 1.523 . S
C1132 C1113 1.368 . S
C1132 C1126 1.368 1_545 S
C1132 C1131 1.523 . S
C1133 C1117 1.429 . S
C1133 C1129 1.429 . S
C1133 C1134 1.523 . S
C1134 C1118 1.368 . S
C1134 C1130 1.368 1_565 S
C1134 C1133 1.523 . S
H1135 C1110 0.950 . S
H1136 C1112 0.950 . S
H1137 C1113 0.949 . S
H1138 C1115 0.950 . S
H1139 C1117 0.950 . S
C1140 C1141 1.349 . S
C1140 C1142 1.327 . S
C1140 H1165 0.950 . S
C1141 C1140 1.349 . S
C1141 C1157 1.349 . S
C1142 C1140 1.327 . S
C1142 C1161 1.429 . S
C1142 H1166 0.950 . S
C1143 C1160 1.574 1_554 S
C1143 C1162 1.368 . S
C1143 H1167 0.949 . S
H1144 C1148 0.949 . S
C1145 C1146 1.349 . S
C1145 C1147 1.327 . S
C1145 H1168 0.950 . S
C1146 C1145 1.349 . S
C1146 C1158 1.349 . S
C1147 C1145 1.327 . S
C1147 C1163 1.429 . S
C1147 H1169 0.950 . S
C1148 H1144 0.949 . S
C1148 C1156 1.574 1_556 S
C1148 C1164 1.368 . S
H1149 C1157 0.950 . S
H1150 C1155 0.950 . S
H1151 C1156 0.949 . S
H1152 C1158 0.950 . S
H1153 C1159 0.950 . S
H1154 C1160 0.949 . S
C1155 H1150 0.950 . S
C1155 C1157 1.327 . S
C1155 C1161 1.429 . S
C1156 C1148 1.574 1_554 S
C1156 H1151 0.949 . S
C1156 C1162 1.368 . S
C1157 C1141 1.349 . S
C1157 H1149 0.950 . S
C1157 C1155 1.327 . S
C1158 C1146 1.349 . S
C1158 H1152 0.950 . S
C1158 C1159 1.327 . S
C1159 H1153 0.950 . S
C1159 C1158 1.327 . S
C1159 C1163 1.429 . S
C1160 C1143 1.574 1_556 S
C1160 H1154 0.949 . S
C1160 C1164 1.368 . S
C1161 C1142 1.429 . S
C1161 C1155 1.429 . S
C1161 C1162 1.523 . S
C1162 C1143 1.368 . S
C1162 C1156 1.368 . S
C1162 C1161 1.523 . S
C1163 C1147 1.429 . S
C1163 C1159 1.429 . S
C1163 C1164 1.523 . S
C1164 C1148 1.368 . S
C1164 C1160 1.368 . S
C1164 C1163 1.523 . S
H1165 C1140 0.950 . S
H1166 C1142 0.950 . S
H1167 C1143 0.949 . S
H1168 C1145 0.950 . S
H1169 C1147 0.950 . S
C1170 C1171 1.349 . S
C1170 C1172 1.327 . S
C1170 H1195 0.950 . S
C1171 C1170 1.349 . S
C1171 C1187 1.349 . S
C1172 C1170 1.327 . S
C1172 C1191 1.429 . S
C1172 H1196 0.950 . S
C1173 C1190 1.574 . S
C1173 C1192 1.368 1_655 S
C1173 H1197 0.949 . S
H1174 C1178 0.949 . S
C1175 C1176 1.349 . S
C1175 C1177 1.327 . S
C1175 H1198 0.950 . S
C1176 C1175 1.349 . S
C1176 C1188 1.349 . S
C1177 C1175 1.327 . S
C1177 C1193 1.429 . S
C1177 H1199 0.950 . S
C1178 H1174 0.949 . S
C1178 C1186 1.574 . S
C1178 C1194 1.368 1_455 S
H1179 C1187 0.950 . S
H1180 C1185 0.950 . S
H1181 C1186 0.949 . S
H1182 C1188 0.950 . S
H1183 C1189 0.950 . S
H1184 C1190 0.949 . S
C1185 H1180 0.950 . S
C1185 C1187 1.327 . S
C1185 C1191 1.429 . S
C1186 C1178 1.574 . S
C1186 H1181 0.949 . S
C1186 C1192 1.368 . S
C1187 C1171 1.349 . S
C1187 H1179 0.950 . S
C1187 C1185 1.327 . S
C1188 C1176 1.349 . S
C1188 H1182 0.950 . S
C1188 C1189 1.327 . S
C1189 H1183 0.950 . S
C1189 C1188 1.327 . S
C1189 C1193 1.429 . S
C1190 C1173 1.574 . S
C1190 H1184 0.949 . S
C1190 C1194 1.368 . S
C1191 C1172 1.429 . S
C1191 C1185 1.429 . S
C1191 C1192 1.523 . S
C1192 C1173 1.368 1_455 S
C1192 C1186 1.368 . S
C1192 C1191 1.523 . S
C1193 C1177 1.429 . S
C1193 C1189 1.429 . S
C1193 C1194 1.523 . S
C1194 C1178 1.368 1_655 S
C1194 C1190 1.368 . S
C1194 C1193 1.523 . S
H1195 C1170 0.950 . S
H1196 C1172 0.950 . S
H1197 C1173 0.949 . S
H1198 C1175 0.950 . S
H1199 C1177 0.950 . S
C1200 C1201 1.349 . S
C1200 C1202 1.327 . S
C1200 H1225 0.950 . S
C1201 C1200 1.349 . S
C1201 C1217 1.349 . S
C1202 C1200 1.327 . S
C1202 C1221 1.429 . S
C1202 H1226 0.950 . S
C1203 C1220 1.574 . S
C1203 C1222 1.368 . S
C1203 H1227 0.949 . S
H1204 C1208 0.949 . S
C1205 C1206 1.349 . S
C1205 C1207 1.327 . S
C1205 H1228 0.950 . S
C1206 C1205 1.349 . S
C1206 C1218 1.349 . S
C1207 C1205 1.327 . S
C1207 C1223 1.429 . S
C1207 H1229 0.950 . S
C1208 H1204 0.949 . S
C1208 C1216 1.574 . S
C1208 C1224 1.368 . S
H1209 C1217 0.950 . S
H1210 C1215 0.950 . S
H1211 C1216 0.949 . S
H1212 C1218 0.950 . S
H1213 C1219 0.950 . S
H1214 C1220 0.949 . S
C1215 H1210 0.950 . S
C1215 C1217 1.327 . S
C1215 C1221 1.429 . S
C1216 C1208 1.574 . S
C1216 H1211 0.949 . S
C1216 C1222 1.368 . S
C1217 C1201 1.349 . S
C1217 H1209 0.950 . S
C1217 C1215 1.327 . S
C1218 C1206 1.349 . S
C1218 H1212 0.950 . S
C1218 C1219 1.327 . S
C1219 H1213 0.950 . S
C1219 C1218 1.327 . S
C1219 C1223 1.429 . S
C1220 C1203 1.574 . S
C1220 H1214 0.949 . S
C1220 C1224 1.368 . S
C1221 C1202 1.429 . S
C1221 C1215 1.429 . S
C1221 C1222 1.523 . S
C1222 C1203 1.368 . S
C1222 C1216 1.368 . S
C1222 C1221 1.523 . S
C1223 C1207 1.429 . S
C1223 C1219 1.429 . S
C1223 C1224 1.523 . S
C1224 C1208 1.368 . S
C1224 C1220 1.368 . S
C1224 C1223 1.523 . S
H1225 C1200 0.950 . S
H1226 C1202 0.950 . S
H1227 C1203 0.949 . S
H1228 C1205 0.950 . S
H1229 C1207 0.950 . S
C1230 C1231 1.349 . S
C1230 C1232 1.327 . S
C1230 H1255 0.950 . S
C1231 C1230 1.349 . S
C1231 C1247 1.349 . S
C1232 C1230 1.327 . S
C1232 C1251 1.429 . S
C1232 H1256 0.950 . S
C1233 C1250 1.574 . S
C1233 C1252 1.368 . S
C1233 H1257 0.949 . S
H1234 C1238 0.949 . S
C1235 C1236 1.349 . S
C1235 C1237 1.327 . S
C1235 H1258 0.950 . S
C1236 C1235 1.349 . S
C1236 C1248 1.349 . S
C1237 C1235 1.327 . S
C1237 C1253 1.429 . S
C1237 H1259 0.950 . S
C1238 H1234 0.949 . S
C1238 C1246 1.574 . S
C1238 C1254 1.368 . S
H1239 C1247 0.950 . S
H1240 C1245 0.950 . S
H1241 C1246 0.949 . S
H1242 C1248 0.950 . S
H1243 C1249 0.950 . S
H1244 C1250 0.949 . S
C1245 H1240 0.950 . S
C1245 C1247 1.327 . S
C1245 C1251 1.429 . S
C1246 C1238 1.574 . S
C1246 H1241 0.949 . S
C1246 C1252 1.368 . S
C1247 C1231 1.349 . S
C1247 H1239 0.950 . S
C1247 C1245 1.327 . S
C1248 C1236 1.349 . S
C1248 H1242 0.950 . S
C1248 C1249 1.327 . S
C1249 H1243 0.950 . S
C1249 C1248 1.327 . S
C1249 C1253 1.429 . S
C1250 C1233 1.574 . S
C1250 H1244 0.949 . S
C1250 C1254 1.368 . S
C1251 C1232 1.429 . S
C1251 C1245 1.429 . S
C1251 C1252 1.523 . S
C1252 C1233 1.368 . S
C1252 C1246 1.368 . S
C1252 C1251 1.523 . S
C1253 C1237 1.429 . S
C1253 C1249 1.429 . S
C1253 C1254 1.523 . S
C1254 C1238 1.368 . S
C1254 C1250 1.368 . S
C1254 C1253 1.523 . S
H1255 C1230 0.950 . S
H1256 C1232 0.950 . S
H1257 C1233 0.949 . S
H1258 C1235 0.950 . S
H1259 C1237 0.950 . S
C1260 C1261 1.349 . S
C1260 C1262 1.327 . S
C1260 H1285 0.950 . S
C1261 C1260 1.349 . S
C1261 C1277 1.349 . S
C1262 C1260 1.327 . S
C1262 C1281 1.429 . S
C1262 H1286 0.950 . S
C1263 C1280 1.574 . S
C1263 C1282 1.368 . S
C1263 H1287 0.949 . S
H1264 C1268 0.949 . S
C1265 C1266 1.349 . S
C1265 C1267 1.327 . S
C1265 H1288 0.950 . S
C1266 C1265 1.349 . S
C1266 C1278 1.349 . S
C1267 C1265 1.327 . S
C1267 C1283 1.429 . S
C1267 H1289 0.950 . S
C1268 H1264 0.949 . S
C1268 C1276 1.574 . S
C1268 C1284 1.368 . S
H1269 C1277 0.950 . S
H1270 C1275 0.950 . S
H1271 C1276 0.949 . S
H1272 C1278 0.950 . S
H1273 C1279 0.950 . S
H1274 C1280 0.949 . S
C1275 H1270 0.950 . S
C1275 C1277 1.327 . S
C1275 C1281 1.429 . S
C1276 C1268 1.574 . S
C1276 H1271 0.949 . S
C1276 C1282 1.368 . S
C1277 C1261 1.349 . S
C1277 H1269 0.950 . S
C1277 C1275 1.327 . S
C1278 C1266 1.349 . S
C1278 H1272 0.950 . S
C1278 C1279 1.327 . S
C1279 H1273 0.950 . S
C1279 C1278 1.327 . S
C1279 C1283 1.429 . S
C1280 C1263 1.574 . S
C1280 H1274 0.949 . S
C1280 C1284 1.368 . S
C1281 C1262 1.429 . S
C1281 C1275 1.429 . S
C1281 C1282 1.523 . S
C1282 C1263 1.368 . S
C1282 C1276 1.368 . S
C1282 C1281 1.523 . S
C1283 C1267 1.429 . S
C1283 C1279 1.429 . S
C1283 C1284 1.523 . S
C1284 C1268 1.368 . S
C1284 C1280 1.368 . S
C1284 C1283 1.523 . S
H1285 C1260 0.950 . S
H1286 C1262 0.950 . S
H1287 C1263 0.949 . S
H1288 C1265 0.950 . S
H1289 C1267 0.950 . S
C1290 C1291 1.349 . S
C1290 C1292 1.327 . S
C1290 H1315 0.950 . S
C1291 C1290 1.349 . S
C1291 C1307 1.349 . S
C1292 C1290 1.327 . S
C1292 C1311 1.429 . S
C1292 H1316 0.950 . S
C1293 C1310 1.574 . S
C1293 C1312 1.368 . S
C1293 H1317 0.949 . S
H1294 C1298 0.949 . S
C1295 C1296 1.349 . S
C1295 C1297 1.327 . S
C1295 H1318 0.950 . S
C1296 C1295 1.349 . S
C1296 C1308 1.349 . S
C1297 C1295 1.327 . S
C1297 C1313 1.429 . S
C1297 H1319 0.950 . S
C1298 H1294 0.949 . S
C1298 C1306 1.574 . S
C1298 C1314 1.368 . S
H1299 C1307 0.950 . S
H1300 C1305 0.950 . S
H1301 C1306 0.949 . S
H1302 C1308 0.950 . S
H1303 C1309 0.950 . S
H1304 C1310 0.949 . S
C1305 H1300 0.950 . S
C1305 C1307 1.327 . S
C1305 C1311 1.429 . S
C1306 C1298 1.574 . S
C1306 H1301 0.949 . S
C1306 C1312 1.368 . S
C1307 C1291 1.349 . S
C1307 H1299 0.950 . S
C1307 C1305 1.327 . S
C1308 C1296 1.349 . S
C1308 H1302 0.950 . S
C1308 C1309 1.327 . S
C1309 H1303 0.950 . S
C1309 C1308 1.327 . S
C1309 C1313 1.429 . S
C1310 C1293 1.574 . S
C1310 H1304 0.949 . S
C1310 C1314 1.368 . S
C1311 C1292 1.429 . S
C1311 C1305 1.429 . S
C1311 C1312 1.523 . S
C1312 C1293 1.368 . S
C1312 C1306 1.368 . S
C1312 C1311 1.523 . S
C1313 C1297 1.429 . S
C1313 C1309 1.429 . S
C1313 C1314 1.523 . S
C1314 C1298 1.368 . S
C1314 C1310 1.368 . S
C1314 C1313 1.523 . S
H1315 C1290 0.950 . S
H1316 C1292 0.950 . S
H1317 C1293 0.949 . S
H1318 C1295 0.950 . S
H1319 C1297 0.950 . S
C1320 C1321 1.349 . S
C1320 C1322 1.327 . S
C1320 H1345 0.950 . S
C1321 C1320 1.349 . S
C1321 C1337 1.349 . S
C1322 C1320 1.327 . S
C1322 C1341 1.429 . S
C1322 H1346 0.950 . S
C1323 C1340 1.574 . S
C1323 C1342 1.368 . S
C1323 H1347 0.949 . S
H1324 C1328 0.949 . S
C1325 C1326 1.349 . S
C1325 C1327 1.327 . S
C1325 H1348 0.950 . S
C1326 C1325 1.349 . S
C1326 C1338 1.349 . S
C1327 C1325 1.327 . S
C1327 C1343 1.429 . S
C1327 H1349 0.950 . S
C1328 H1324 0.949 . S
C1328 C1336 1.574 . S
C1328 C1344 1.368 . S
H1329 C1337 0.950 . S
H1330 C1335 0.950 . S
H1331 C1336 0.949 . S
H1332 C1338 0.950 . S
H1333 C1339 0.950 . S
H1334 C1340 0.949 . S
C1335 H1330 0.950 . S
C1335 C1337 1.327 . S
C1335 C1341 1.429 . S
C1336 C1328 1.574 . S
C1336 H1331 0.949 . S
C1336 C1342 1.368 . S
C1337 C1321 1.349 . S
C1337 H1329 0.950 . S
C1337 C1335 1.327 . S
C1338 C1326 1.349 . S
C1338 H1332 0.950 . S
C1338 C1339 1.327 . S
C1339 H1333 0.950 . S
C1339 C1338 1.327 . S
C1339 C1343 1.429 . S
C1340 C1323 1.574 . S
C1340 H1334 0.949 . S
C1340 C1344 1.368 . S
C1341 C1322 1.429 . S
C1341 C1335 1.429 . S
C1341 C1342 1.523 . S
C1342 C1323 1.368 . S
C1342 C1336 1.368 . S
C1342 C1341 1.523 . S
C1343 C1327 1.429 . S
C1343 C1339 1.429 . S
C1343 C1344 1.523 . S
C1344 C1328 1.368 . S
C1344 C1340 1.368 . S
C1344 C1343 1.523 . S
H1345 C1320 0.950 . S
H1346 C1322 0.950 . S
H1347 C1323 0.949 . S
H1348 C1325 0.950 . S
H1349 C1327 0.950 . S
C1350 C1351 1.349 . S
C1350 C1352 1.327 . S
C1350 H1375 0.950 . S
C1351 C1350 1.349 . S
C1351 C1367 1.349 . S
C1352 C1350 1.327 . S
C1352 C1371 1.429 . S
C1352 H1376 0.950 . S
C1353 C1370 1.574 . S
C1353 C1372 1.368 . S
C1353 H1377 0.949 . S
H1354 C1358 0.949 . S
C1355 C1356 1.349 . S
C1355 C1357 1.327 . S
C1355 H1378 0.950 . S
C1356 C1355 1.349 . S
C1356 C1368 1.349 . S
C1357 C1355 1.327 . S
C1357 C1373 1.429 . S
C1357 H1379 0.950 . S
C1358 H1354 0.949 . S
C1358 C1366 1.574 . S
C1358 C1374 1.368 . S
H1359 C1367 0.950 . S
H1360 C1365 0.950 . S
H1361 C1366 0.949 . S
H1362 C1368 0.950 . S
H1363 C1369 0.950 . S
H1364 C1370 0.949 . S
C1365 H1360 0.950 . S
C1365 C1367 1.327 . S
C1365 C1371 1.429 . S
C1366 C1358 1.574 . S
C1366 H1361 0.949 . S
C1366 C1372 1.368 . S
C1367 C1351 1.349 . S
C1367 H1359 0.950 . S
C1367 C1365 1.327 . S
C1368 C1356 1.349 . S
C1368 H1362 0.950 . S
C1368 C1369 1.327 . S
C1369 H1363 0.950 . S
C1369 C1368 1.327 . S
C1369 C1373 1.429 . S
C1370 C1353 1.574 . S
C1370 H1364 0.949 . S
C1370 C1374 1.368 . S
C1371 C1352 1.429 . S
C1371 C1365 1.429 . S
C1371 C1372 1.523 . S
C1372 C1353 1.368 . S
C1372 C1366 1.368 . S
C1372 C1371 1.523 . S
C1373 C1357 1.429 . S
C1373 C1369 1.429 . S
C1373 C1374 1.523 . S
C1374 C1358 1.368 . S
C1374 C1370 1.368 . S
C1374 C1373 1.523 . S
H1375 C1350 0.950 . S
H1376 C1352 0.950 . S
H1377 C1353 0.949 . S
H1378 C1355 0.950 . S
H1379 C1357 0.950 . S
C1380 C1381 1.349 . S
C1380 C1382 1.327 . S
C1380 H1405 0.950 . S
C1381 C1380 1.349 . S
C1381 C1397 1.349 . S
C1382 C1380 1.327 . S
C1382 C1401 1.429 . S
C1382 H1406 0.950 . S
C1383 C1400 1.574 . S
C1383 C1402 1.368 . S
C1383 H1407 0.949 . S
H1384 C1388 0.949 . S
C1385 C1386 1.349 . S
C1385 C1387 1.327 . S
C1385 H1408 0.950 . S
C1386 C1385 1.349 . S
C1386 C1398 1.349 . S
C1387 C1385 1.327 . S
C1387 C1403 1.429 . S
C1387 H1409 0.950 . S
C1388 H1384 0.949 . S
C1388 C1396 1.574 . S
C1388 C1404 1.368 . S
H1389 C1397 0.950 . S
H1390 C1395 0.950 . S
H1391 C1396 0.949 . S
H1392 C1398 0.950 . S
H1393 C1399 0.950 . S
H1394 C1400 0.949 . S
C1395 H1390 0.950 . S
C1395 C1397 1.327 . S
C1395 C1401 1.429 . S
C1396 C1388 1.574 . S
C1396 H1391 0.949 . S
C1396 C1402 1.368 . S
C1397 C1381 1.349 . S
C1397 H1389 0.950 . S
C1397 C1395 1.327 . S
C1398 C1386 1.349 . S
C1398 H1392 0.950 . S
C1398 C1399 1.327 . S
C1399 H1393 0.950 . S
C1399 C1398 1.327 . S
C1399 C1403 1.429 . S
C1400 C1383 1.574 . S
C1400 H1394 0.949 . S
C1400 C1404 1.368 . S
C1401 C1382 1.429 . S
C1401 C1395 1.429 . S
C1401 C1402 1.523 . S
C1402 C1383 1.368 . S
C1402 C1396 1.368 . S
C1402 C1401 1.523 . S
C1403 C1387 1.429 . S
C1403 C1399 1.429 . S
C1403 C1404 1.523 . S
C1404 C1388 1.368 . S
C1404 C1400 1.368 . S
C1404 C1403 1.523 . S
H1405 C1380 0.950 . S
H1406 C1382 0.950 . S
H1407 C1383 0.949 . S
H1408 C1385 0.950 . S
H1409 C1387 0.950 . S
C1410 C1411 1.349 . S
C1410 C1412 1.327 . S
C1410 H1435 0.950 . S
C1411 C1410 1.349 . S
C1411 C1427 1.349 . S
C1412 C1410 1.327 . S
C1412 C1431 1.429 . S
C1412 H1436 0.950 . S
C1413 C1430 1.574 . S
C1413 C1432 1.368 . S
C1413 H1437 0.949 . S
H1414 C1418 0.949 . S
C1415 C1416 1.349 . S
C1415 C1417 1.327 . S
C1415 H1438 0.950 . S
C1416 C1415 1.349 . S
C1416 C1428 1.349 . S
C1417 C1415 1.327 . S
C1417 C1433 1.429 . S
C1417 H1439 0.950 . S
C1418 H1414 0.949 . S
C1418 C1426 1.574 . S
C1418 C1434 1.368 . S
H1419 C1427 0.950 . S
H1420 C1425 0.950 . S
H1421 C1426 0.949 . S
H1422 C1428 0.950 . S
H1423 C1429 0.950 . S
H1424 C1430 0.949 . S
C1425 H1420 0.950 . S
C1425 C1427 1.327 . S
C1425 C1431 1.429 . S
C1426 C1418 1.574 . S
C1426 H1421 0.949 . S
C1426 C1432 1.368 . S
C1427 C1411 1.349 . S
C1427 H1419 0.950 . S
C1427 C1425 1.327 . S
C1428 C1416 1.349 . S
C1428 H1422 0.950 . S
C1428 C1429 1.327 . S
C1429 H1423 0.950 . S
C1429 C1428 1.327 . S
C1429 C1433 1.429 . S
C1430 C1413 1.574 . S
C1430 H1424 0.949 . S
C1430 C1434 1.368 . S
C1431 C1412 1.429 . S
C1431 C1425 1.429 . S
C1431 C1432 1.523 . S
C1432 C1413 1.368 . S
C1432 C1426 1.368 . S
C1432 C1431 1.523 . S
C1433 C1417 1.429 . S
C1433 C1429 1.429 . S
C1433 C1434 1.523 . S
C1434 C1418 1.368 . S
C1434 C1430 1.368 . S
C1434 C1433 1.523 . S
H1435 C1410 0.950 . S
H1436 C1412 0.950 . S
H1437 C1413 0.949 . S
H1438 C1415 0.950 . S
H1439 C1417 0.950 . S
C1440 C1441 1.349 . S
C1440 C1442 1.327 . S
C1440 H1465 0.950 . S
C1441 C1440 1.349 . S
C1441 C1457 1.349 . S
C1442 C1440 1.327 . S
C1442 C1461 1.429 . S
C1442 H1466 0.950 . S
C1443 C1460 1.574 . S
C1443 C1462 1.368 . S
C1443 H1467 0.949 . S
H1444 C1448 0.949 . S
C1445 C1446 1.349 . S
C1445 C1447 1.327 . S
C1445 H1468 0.950 . S
C1446 C1445 1.349 . S
C1446 C1458 1.349 . S
C1447 C1445 1.327 . S
C1447 C1463 1.429 . S
C1447 H1469 0.950 . S
C1448 H1444 0.949 . S
C1448 C1456 1.574 . S
C1448 C1464 1.368 . S
H1449 C1457 0.950 . S
H1450 C1455 0.950 . S
H1451 C1456 0.949 . S
H1452 C1458 0.950 . S
H1453 C1459 0.950 . S
H1454 C1460 0.949 . S
C1455 H1450 0.950 . S
C1455 C1457 1.327 . S
C1455 C1461 1.429 . S
C1456 C1448 1.574 . S
C1456 H1451 0.949 . S
C1456 C1462 1.368 . S
C1457 C1441 1.349 . S
C1457 H1449 0.950 . S
C1457 C1455 1.327 . S
C1458 C1446 1.349 . S
C1458 H1452 0.950 . S
C1458 C1459 1.327 . S
C1459 H1453 0.950 . S
C1459 C1458 1.327 . S
C1459 C1463 1.429 . S
C1460 C1443 1.574 . S
C1460 H1454 0.949 . S
C1460 C1464 1.368 . S
C1461 C1442 1.429 . S
C1461 C1455 1.429 . S
C1461 C1462 1.523 . S
C1462 C1443 1.368 . S
C1462 C1456 1.368 . S
C1462 C1461 1.523 . S
C1463 C1447 1.429 . S
C1463 C1459 1.429 . S
C1463 C1464 1.523 . S
C1464 C1448 1.368 . S
C1464 C1460 1.368 . S
C1464 C1463 1.523 . S
H1465 C1440 0.950 . S
H1466 C1442 0.950 . S
H1467 C1443 0.949 . S
H1468 C1445 0.950 . S
H1469 C1447 0.950 . S
C1470 C1471 1.349 . S
C1470 C1472 1.327 . S
C1470 H1495 0.950 . S
C1471 C1470 1.349 . S
C1471 C1487 1.349 . S
C1472 C1470 1.327 . S
C1472 C1491 1.429 . S
C1472 H1496 0.950 . S
C1473 C1490 1.574 . S
C1473 C1492 1.368 . S
C1473 H1497 0.949 . S
H1474 C1478 0.949 . S
C1475 C1476 1.349 . S
C1475 C1477 1.327 . S
C1475 H1498 0.950 . S
C1476 C1475 1.349 . S
C1476 C1488 1.349 . S
C1477 C1475 1.327 . S
C1477 C1493 1.429 . S
C1477 H1499 0.950 . S
C1478 H1474 0.949 . S
C1478 C1486 1.574 . S
C1478 C1494 1.368 . S
H1479 C1487 0.950 . S
H1480 C1485 0.950 . S
H1481 C1486 0.949 . S
H1482 C1488 0.950 . S
H1483 C1489 0.950 . S
H1484 C1490 0.949 . S
C1485 H1480 0.950 . S
C1485 C1487 1.327 . S
C1485 C1491 1.429 . S
C1486 C1478 1.574 . S
C1486 H1481 0.949 . S
C1486 C1492 1.368 . S
C1487 C1471 1.349 . S
C1487 H1479 0.950 . S
C1487 C1485 1.327 . S
C1488 C1476 1.349 . S
C1488 H1482 0.950 . S
C1488 C1489 1.327 . S
C1489 H1483 0.950 . S
C1489 C1488 1.327 . S
C1489 C1493 1.429 . S
C1490 C1473 1.574 . S
C1490 H1484 0.949 . S
C1490 C1494 1.368 . S
C1491 C1472 1.429 . S
C1491 C1485 1.429 . S
C1491 C1492 1.523 . S
C1492 C1473 1.368 . S
C1492 C1486 1.368 . S
C1492 C1491 1.523 . S
C1493 C1477 1.429 . S
C1493 C1489 1.429 . S
C1493 C1494 1.523 . S
C1494 C1478 1.368 . S
C1494 C1490 1.368 . S
C1494 C1493 1.523 . S
H1495 C1470 0.950 . S
H1496 C1472 0.950 . S
H1497 C1473 0.949 . S
H1498 C1475 0.950 . S
H1499 C1477 0.950 . S
C1500 C1501 1.349 . S
C1500 C1502 1.327 . S
C1500 H1525 0.950 . S
C1501 C1500 1.349 . S
C1501 C1517 1.349 . S
C1502 C1500 1.327 . S
C1502 C1521 1.429 . S
C1502 H1526 0.950 . S
C1503 C1520 1.574 . S
C1503 C1522 1.368 . S
C1503 H1527 0.949 . S
H1504 C1508 0.949 . S
C1505 C1506 1.349 . S
C1505 C1507 1.327 . S
C1505 H1528 0.950 . S
C1506 C1505 1.349 . S
C1506 C1518 1.349 . S
C1507 C1505 1.327 . S
C1507 C1523 1.429 . S
C1507 H1529 0.950 . S
C1508 H1504 0.949 . S
C1508 C1516 1.574 . S
C1508 C1524 1.368 . S
H1509 C1517 0.950 . S
H1510 C1515 0.950 . S
H1511 C1516 0.949 . S
H1512 C1518 0.950 . S
H1513 C1519 0.950 . S
H1514 C1520 0.949 . S
C1515 H1510 0.950 . S
C1515 C1517 1.327 . S
C1515 C1521 1.429 . S
C1516 C1508 1.574 . S
C1516 H1511 0.949 . S
C1516 C1522 1.368 . S
C1517 C1501 1.349 . S
C1517 H1509 0.950 . S
C1517 C1515 1.327 . S
C1518 C1506 1.349 . S
C1518 H1512 0.950 . S
C1518 C1519 1.327 . S
C1519 H1513 0.950 . S
C1519 C1518 1.327 . S
C1519 C1523 1.429 . S
C1520 C1503 1.574 . S
C1520 H1514 0.949 . S
C1520 C1524 1.368 . S
C1521 C1502 1.429 . S
C1521 C1515 1.429 . S
C1521 C1522 1.523 . S
C1522 C1503 1.368 . S
C1522 C1516 1.368 . S
C1522 C1521 1.523 . S
C1523 C1507 1.429 . S
C1523 C1519 1.429 . S
C1523 C1524 1.523 . S
C1524 C1508 1.368 . S
C1524 C1520 1.368 . S
C1524 C1523 1.523 . S
H1525 C1500 0.950 . S
H1526 C1502 0.950 . S
H1527 C1503 0.949 . S
H1528 C1505 0.950 . S
H1529 C1507 0.950 . S
C1530 C1531 1.349 . S
C1530 C1532 1.327 . S
C1530 H1555 0.950 . S
C1531 C1530 1.349 . S
C1531 C1547 1.349 . S
C1532 C1530 1.327 . S
C1532 C1551 1.429 . S
C1532 H1556 0.950 . S
C1533 C1550 1.574 . S
C1533 C1552 1.368 . S
C1533 H1557 0.949 . S
H1534 C1538 0.949 . S
C1535 C1536 1.349 . S
C1535 C1537 1.327 . S
C1535 H1558 0.950 . S
C1536 C1535 1.349 . S
C1536 C1548 1.349 . S
C1537 C1535 1.327 . S
C1537 C1553 1.429 . S
C1537 H1559 0.950 . S
C1538 H1534 0.949 . S
C1538 C1546 1.574 . S
C1538 C1554 1.368 . S
H1539 C1547 0.950 . S
H1540 C1545 0.950 . S
H1541 C1546 0.949 . S
H1542 C1548 0.950 . S
H1543 C1549 0.950 . S
H1544 C1550 0.949 . S
C1545 H1540 0.950 . S
C1545 C1547 1.327 . S
C1545 C1551 1.429 . S
C1546 C1538 1.574 . S
C1546 H1541 0.949 . S
C1546 C1552 1.368 . S
C1547 C1531 1.349 . S
C1547 H1539 0.950 . S
C1547 C1545 1.327 . S
C1548 C1536 1.349 . S
C1548 H1542 0.950 . S
C1548 C1549 1.327 . S
C1549 H1543 0.950 . S
C1549 C1548 1.327 . S
C1549 C1553 1.429 . S
C1550 C1533 1.574 . S
C1550 H1544 0.949 . S
C1550 C1554 1.368 . S
C1551 C1532 1.429 . S
C1551 C1545 1.429 . S
C1551 C1552 1.523 . S
C1552 C1533 1.368 . S
C1552 C1546 1.368 . S
C1552 C1551 1.523 . S
C1553 C1537 1.429 . S
C1553 C1549 1.429 . S
C1553 C1554 1.523 . S
C1554 C1538 1.368 . S
C1554 C1550 1.368 . S
C1554 C1553 1.523 . S
H1555 C1530 0.950 . S
H1556 C1532 0.950 . S
H1557 C1533 0.949 . S
H1558 C1535 0.950 . S
H1559 C1537 0.950 . S
C481 C99 1.324 . S
C486 C15 1.298 . S
C511 C130 1.324 . S
C516 C46 1.294 1_455 S
C541 C95 1.290 1_565 S
C546 C179 1.324 . S
C571 C126 1.298 . S
C576 C210 1.324 . S
C601 C19 1.324 . S
C606 C175 1.294 1_455 S
C631 C50 1.324 . S
C636 C206 1.290 1_565 S
C661 C410 1.324 . S
C666 C246 1.298 . S
C691 C295 1.290 1_655 S
C696 C459 1.324 . S
C721 C326 1.294 1_545 S
C726 C250 1.324 . S
C751 C375 1.298 . S
C756 C299 1.324 . S
C781 C406 1.290 1_655 S
C786 C330 1.325 . S
C811 C379 1.324 . S
C816 C455 1.294 1_545 S
C841 C129 1.816 . S
C846 C18 1.816 . S
C871 C49 1.816 . S
C876 C178 1.816 . S
C901 C98 1.816 . S
C906 C209 1.816 . S
C931 C249 1.816 . S
C936 C378 1.816 . S
C961 C298 1.816 . S
C966 C409 1.816 . S
C991 C329 1.816 . S
C996 C458 1.816 . S
C1021 C289 2.082 . S
C1026 C9 2.082 . S
C1051 C58 2.083 . S
C1056 C338 2.083 . S
C1081 C369 2.082 . S
C1086 C89 2.082 . S
C1111 C138 2.082 . S
C1116 C418 2.082 . S
C1141 C169 2.083 . S
C1146 C449 2.083 . S
C1171 C258 2.082 . S
C1176 C218 2.082 . S
C1201 C90 1.692 . S
C1206 C6 1.706 . S
C1231 C55 1.706 . S
C1236 C139 1.692 . S
C1261 C86 1.706 . S
C1266 C170 1.692 . S
C1291 C135 1.706 . S
C1296 C219 1.692 . S
C1321 C10 1.692 . S
C1326 C166 1.706 . S
C1351 C59 1.692 . S
C1356 C215 1.706 . S
C1381 C419 1.692 . S
C1386 C255 1.706 . S
C1411 C286 1.706 . S
C1416 C450 1.692 . S
C1441 C335 1.706 . S
C1446 C259 1.692 . S
C1471 C290 1.693 . S
C1476 C366 1.706 . S
C1501 C415 1.706 . S
C1506 C339 1.692 . S
C1531 C446 1.706 . S
C1536 C370 1.692 . S
