# Generated by pormake.
# Topology umd, (4)-cn, num edge types: 1
# Building blocks:
#     Node 0, Type 0, BuildingBlock: QUQFOY_clean_sbu_1, # of connection points: 4
#     Node 1, Type 0, BuildingBlock: QUQFOY_clean_sbu_1, # of connection points: 4
#     Node 2, Type 0, BuildingBlock: QUQFOY_clean_sbu_1, # of connection points: 4
#     Node 3, Type 0, BuildingBlock: QUQFOY_clean_sbu_1, # of connection points: 4
#     Node 4, Type 0, BuildingBlock: QUQFOY_clean_sbu_1, # of connection points: 4
#     Node 5, Type 0, BuildingBlock: QUQFOY_clean_sbu_1, # of connection points: 4
#     Node 6, Type 0, BuildingBlock: QUQFOY_clean_sbu_1, # of connection points: 4
#     Node 7, Type 0, BuildingBlock: QUQFOY_clean_sbu_1, # of connection points: 4
#     Node 8, Type 0, BuildingBlock: QUQFOY_clean_sbu_1, # of connection points: 4
#     Node 9, Type 0, BuildingBlock: QUQFOY_clean_sbu_1, # of connection points: 4
#     Node 10, Type 0, BuildingBlock: QUQFOY_clean_sbu_1, # of connection points: 4
#     Node 11, Type 0, BuildingBlock: QUQFOY_clean_sbu_1, # of connection points: 4
#     Node 12, Type 0, BuildingBlock: QUQFOY_clean_sbu_1, # of connection points: 4
#     Node 13, Type 0, BuildingBlock: QUQFOY_clean_sbu_1, # of connection points: 4
#     Node 14, Type 0, BuildingBlock: QUQFOY_clean_sbu_1, # of connection points: 4
#     Node 15, Type 0, BuildingBlock: QUQFOY_clean_sbu_1, # of connection points: 4
#     Edge 16, Type (0, 0), BuildingBlock: CIFDUS_clean_linker_0, # of connection points: 2
#     Edge 17, Type (0, 0), BuildingBlock: CIFDUS_clean_linker_0, # of connection points: 2
#     Edge 18, Type (0, 0), BuildingBlock: CIFDUS_clean_linker_0, # of connection points: 2
#     Edge 19, Type (0, 0), BuildingBlock: CIFDUS_clean_linker_0, # of connection points: 2
#     Edge 20, Type (0, 0), BuildingBlock: CIFDUS_clean_linker_0, # of connection points: 2
#     Edge 21, Type (0, 0), BuildingBlock: CIFDUS_clean_linker_0, # of connection points: 2
#     Edge 22, Type (0, 0), BuildingBlock: CIFDUS_clean_linker_0, # of connection points: 2
#     Edge 23, Type (0, 0), BuildingBlock: CIFDUS_clean_linker_0, # of connection points: 2
#     Edge 24, Type (0, 0), BuildingBlock: CIFDUS_clean_linker_0, # of connection points: 2
#     Edge 25, Type (0, 0), BuildingBlock: CIFDUS_clean_linker_0, # of connection points: 2
#     Edge 26, Type (0, 0), BuildingBlock: CIFDUS_clean_linker_0, # of connection points: 2
#     Edge 27, Type (0, 0), BuildingBlock: CIFDUS_clean_linker_0, # of connection points: 2
#     Edge 28, Type (0, 0), BuildingBlock: CIFDUS_clean_linker_0, # of connection points: 2
#     Edge 29, Type (0, 0), BuildingBlock: CIFDUS_clean_linker_0, # of connection points: 2
#     Edge 30, Type (0, 0), BuildingBlock: CIFDUS_clean_linker_0, # of connection points: 2
#     Edge 31, Type (0, 0), BuildingBlock: CIFDUS_clean_linker_0, # of connection points: 2
#     Edge 32, Type (0, 0), BuildingBlock: CIFDUS_clean_linker_0, # of connection points: 2
#     Edge 33, Type (0, 0), BuildingBlock: CIFDUS_clean_linker_0, # of connection points: 2
#     Edge 34, Type (0, 0), BuildingBlock: CIFDUS_clean_linker_0, # of connection points: 2
#     Edge 35, Type (0, 0), BuildingBlock: CIFDUS_clean_linker_0, # of connection points: 2
#     Edge 36, Type (0, 0), BuildingBlock: CIFDUS_clean_linker_0, # of connection points: 2
#     Edge 37, Type (0, 0), BuildingBlock: CIFDUS_clean_linker_0, # of connection points: 2
#     Edge 38, Type (0, 0), BuildingBlock: CIFDUS_clean_linker_0, # of connection points: 2
#     Edge 39, Type (0, 0), BuildingBlock: CIFDUS_clean_linker_0, # of connection points: 2
#     Edge 40, Type (0, 0), BuildingBlock: CIFDUS_clean_linker_0, # of connection points: 2
#     Edge 41, Type (0, 0), BuildingBlock: CIFDUS_clean_linker_0, # of connection points: 2
#     Edge 42, Type (0, 0), BuildingBlock: CIFDUS_clean_linker_0, # of connection points: 2
#     Edge 43, Type (0, 0), BuildingBlock: CIFDUS_clean_linker_0, # of connection points: 2
#     Edge 44, Type (0, 0), BuildingBlock: CIFDUS_clean_linker_0, # of connection points: 2
#     Edge 45, Type (0, 0), BuildingBlock: CIFDUS_clean_linker_0, # of connection points: 2
#     Edge 46, Type (0, 0), BuildingBlock: CIFDUS_clean_linker_0, # of connection points: 2
#     Edge 47, Type (0, 0), BuildingBlock: CIFDUS_clean_linker_0, # of connection points: 2
# Relax obj value: 0.065
# Max RMSD: 0.196
# Mean RMSD: 0.196
data_MOF--net-umd--node1-QUQFOY_clean_sbu_1--edge1-CIFDUS_clean_linker_0
_symmetry_space_group_name_H-M    P1
_symmetry_Int_Tables_number       1
_symmetry_cell_setting            triclinic
loop_
_symmetry_equiv_pos_as_xyz
'x, y, z'
_cell_length_a     35.735737
_cell_length_b     35.766464
_cell_length_c     50.128296
_cell_angle_alpha  90.678151
_cell_angle_beta   90.403749
_cell_angle_gamma 89.657569
loop_
_atom_site_label
_atom_site_type_symbol
_atom_site_fract_x
_atom_site_fract_y
_atom_site_fract_z
_atom_type_partial_charge
O0 O 0.20209 0.4251 0.10888 0.0
Cd1 Cd 0.18064 0.41251 0.14577 0.0
Cd2 Cd 0.19919 0.48707 0.15168 0.0
O3 O 0.22427 0.4822 0.11449 0.0
O4 O 0.17808 0.35626 0.14464 0.0
O5 O 0.21581 0.3875 0.17166 0.0
C6 C 0.20481 0.35584 0.16205 0.0
C7 C 0.22836 0.48945 0.19335 0.0
C8 C 0.21954 0.45316 0.09994 0.0
C9 C 0.11787 0.46818 0.15505 0.0
O10 O 0.14191 0.49388 0.15206 0.0
O11 O 0.12801 0.43391 0.15526 0.0
O12 O 0.22379 0.51966 0.17971 0.0
O13 O 0.21866 0.45822 0.18233 0.0
O14 O 0.58706 0.20646 0.60665 0.0
Cd15 Cd 0.60275 0.18854 0.64414 0.0
Cd16 Cd 0.52906 0.20454 0.65211 0.0
O17 O 0.53023 0.22837 0.61458 0.0
O18 O 0.65889 0.19451 0.64601 0.0
O19 O 0.61953 0.22832 0.67008 0.0
C20 C 0.65343 0.22177 0.66268 0.0
C21 C 0.51617 0.23364 0.69289 0.0
C22 C 0.55745 0.223 0.59869 0.0
C23 C 0.55228 0.12373 0.65505 0.0
O24 O 0.52566 0.14724 0.65276 0.0
O25 O 0.58622 0.13463 0.65448 0.0
O26 O 0.48938 0.22513 0.67648 0.0
O27 O 0.55009 0.22817 0.68507 0.0
O28 O 0.82621 0.58559 0.10193 0.0
Cd29 Cd 0.84496 0.60253 0.13915 0.0
Cd30 Cd 0.82932 0.52943 0.14824 0.0
O31 O 0.8053 0.52902 0.11046 0.0
O32 O 0.83956 0.65863 0.13943 0.0
O33 O 0.80635 0.62151 0.16483 0.0
C34 C 0.81295 0.65473 0.15643 0.0
C35 C 0.79949 0.51882 0.18859 0.0
C36 C 0.80991 0.55574 0.09428 0.0
C37 C 0.91008 0.5525 0.15182 0.0
O38 O 0.88677 0.52584 0.14998 0.0
O39 O 0.89894 0.58634 0.15011 0.0
O40 O 0.80848 0.4912 0.17299 0.0
O41 O 0.80511 0.55226 0.18021 0.0
O42 O 0.4269 0.8342 0.60302 0.0
Cd43 Cd 0.41211 0.85495 0.64001 0.0
Cd44 Cd 0.48609 0.83586 0.64738 0.0
O45 O 0.48365 0.81119 0.60968 0.0
O46 O 0.35585 0.85689 0.63728 0.0
O47 O 0.38625 0.81881 0.66419 0.0
C48 C 0.35496 0.82949 0.65376 0.0
C49 C 0.48834 0.80615 0.68845 0.0
C50 C 0.45545 0.81647 0.59451 0.0
C51 C 0.46693 0.91725 0.65196 0.0
O52 O 0.49279 0.89298 0.64901 0.0
O53 O 0.43261 0.90746 0.65124 0.0
O54 O 0.51862 0.81104 0.67495 0.0
O55 O 0.45699 0.81584 0.67758 0.0
O56 O 0.20524 0.6021 0.43142 0.0
Cd57 Cd 0.18506 0.61574 0.39407 0.0
Cd58 Cd 0.20094 0.5393 0.38875 0.0
O59 O 0.22485 0.54365 0.42658 0.0
O60 O 0.18835 0.67227 0.39345 0.0
O61 O 0.22236 0.63509 0.36786 0.0
C62 C 0.21488 0.66841 0.37628 0.0
C63 C 0.23089 0.53288 0.34781 0.0
C64 C 0.22102 0.57309 0.44088 0.0
C65 C 0.12031 0.56308 0.38371 0.0
O66 O 0.14353 0.53638 0.38698 0.0
O67 O 0.13143 0.59698 0.38383 0.0
O68 O 0.22394 0.50365 0.36187 0.0
O69 O 0.22321 0.56516 0.35811 0.0
O70 O 0.44294 0.20017 0.93703 0.0
Cd71 Cd 0.42543 0.18183 0.89975 0.0
Cd72 Cd 0.49846 0.19835 0.88972 0.0
O73 O 0.4991 0.22178 0.92777 0.0
O74 O 0.36909 0.18828 0.89955 0.0
O75 O 0.40697 0.22138 0.87468 0.0
C76 C 0.37352 0.21531 0.88302 0.0
C77 C 0.50982 0.22884 0.84972 0.0
C78 C 0.47284 0.21666 0.94434 0.0
C79 C 0.47687 0.11731 0.88586 0.0
O80 O 0.50316 0.14105 0.88754 0.0
O81 O 0.4428 0.12796 0.88798 0.0
O82 O 0.5371 0.21975 0.86547 0.0
O83 O 0.47617 0.22286 0.85771 0.0
O84 O 0.82831 0.4487 0.43111 0.0
Cd85 Cd 0.84643 0.43266 0.3936 0.0
Cd86 Cd 0.83108 0.50662 0.38578 0.0
O87 O 0.80764 0.50595 0.42347 0.0
O88 O 0.84115 0.37645 0.39213 0.0
O89 O 0.80706 0.41483 0.36773 0.0
C90 C 0.81403 0.3812 0.37534 0.0
C91 C 0.80074 0.51786 0.34538 0.0
C92 C 0.81238 0.47863 0.43922 0.0
C93 C 0.91165 0.48281 0.38216 0.0
O94 O 0.88846 0.50974 0.38444 0.0
O95 O 0.90035 0.44904 0.38306 0.0
O96 O 0.80961 0.54528 0.36119 0.0
O97 O 0.80682 0.48431 0.35356 0.0
O98 O 0.60403 0.82499 0.92648 0.0
Cd99 Cd 0.61772 0.84523 0.88941 0.0
Cd100 Cd 0.54129 0.82917 0.88388 0.0
O101 O 0.54609 0.80461 0.9211 0.0
O102 O 0.67442 0.84033 0.8878 0.0
O103 O 0.63604 0.80704 0.86266 0.0
C104 C 0.66972 0.81354 0.87062 0.0
C105 C 0.53391 0.80014 0.84234 0.0
C106 C 0.57527 0.80874 0.93556 0.0
C107 C 0.56375 0.91004 0.88077 0.0
O108 O 0.53758 0.88649 0.88366 0.0
O109 O 0.59794 0.89919 0.88027 0.0
O110 O 0.50499 0.80702 0.85704 0.0
O111 O 0.56643 0.8074 0.85227 0.0
O112 O 0.83572 0.59552 0.92898 0.0
Cd113 Cd 0.85562 0.60515 0.89123 0.0
Cd114 Cd 0.82759 0.53581 0.88556 0.0
O115 O 0.8032 0.54386 0.92264 0.0
O116 O 0.86065 0.66114 0.89102 0.0
O117 O 0.81907 0.6307 0.86646 0.0
C118 C 0.83193 0.6622 0.87527 0.0
C119 C 0.79763 0.52506 0.84479 0.0
C120 C 0.81362 0.57082 0.93767 0.0
C121 C 0.91115 0.5432 0.88217 0.0
O122 O 0.88345 0.52174 0.88579 0.0
O123 O 0.90612 0.57854 0.88099 0.0
O124 O 0.80133 0.49863 0.862 0.0
O125 O 0.80839 0.55822 0.85176 0.0
O126 O 0.44331 0.8327 0.43221 0.0
Cd127 Cd 0.42371 0.85377 0.39654 0.0
Cd128 Cd 0.49563 0.83514 0.38399 0.0
O129 O 0.49924 0.81103 0.42134 0.0
O130 O 0.36796 0.85559 0.40181 0.0
O131 O 0.39525 0.81837 0.37236 0.0
C132 C 0.3651 0.82907 0.38428 0.0
C133 C 0.49624 0.80487 0.34265 0.0
C134 C 0.47346 0.81574 0.43846 0.0
C135 C 0.47592 0.91665 0.38292 0.0
O136 O 0.50193 0.89222 0.38293 0.0
O137 O 0.44195 0.9069 0.38603 0.0
O138 O 0.52713 0.81132 0.35546 0.0
O139 O 0.46519 0.81334 0.35434 0.0
O140 O 0.20509 0.44295 0.93703 0.0
Cd141 Cd 0.18458 0.42483 0.90054 0.0
Cd142 Cd 0.21158 0.49419 0.88857 0.0
O143 O 0.23526 0.49446 0.9265 0.0
O144 O 0.18178 0.3686 0.9041 0.0
O145 O 0.22132 0.39658 0.87746 0.0
C146 C 0.20986 0.36612 0.88808 0.0
C147 C 0.24092 0.49295 0.84724 0.0
C148 C 0.22591 0.47032 0.94366 0.0
C149 C 0.12813 0.48399 0.88531 0.0
O150 O 0.15551 0.50649 0.88674 0.0
O151 O 0.13362 0.44884 0.88789 0.0
O152 O 0.23775 0.524 0.86057 0.0
O153 O 0.23018 0.46269 0.85855 0.0
O154 O 0.60606 0.20145 0.43226 0.0
Cd155 Cd 0.61765 0.18426 0.39379 0.0
Cd156 Cd 0.54514 0.20314 0.38944 0.0
O157 O 0.55022 0.22712 0.42725 0.0
O158 O 0.6738 0.18369 0.3934 0.0
O159 O 0.63972 0.22329 0.36995 0.0
C160 C 0.67229 0.21249 0.37817 0.0
C161 C 0.53202 0.23273 0.34929 0.0
C162 C 0.57857 0.21978 0.44183 0.0
C163 C 0.56375 0.12191 0.38305 0.0
O164 O 0.53839 0.14607 0.38791 0.0
O165 O 0.59794 0.13181 0.38191 0.0
O166 O 0.50574 0.22613 0.36618 0.0
O167 O 0.56606 0.22518 0.35632 0.0
O168 O 0.83218 0.43147 0.606 0.0
Cd169 Cd 0.84894 0.42031 0.64454 0.0
Cd170 Cd 0.83139 0.49328 0.6483 0.0
O171 O 0.80792 0.48803 0.61046 0.0
O172 O 0.84945 0.36424 0.64481 0.0
O173 O 0.80963 0.39827 0.66835 0.0
C174 C 0.82055 0.36571 0.66005 0.0
C175 C 0.80093 0.50779 0.68801 0.0
C176 C 0.81467 0.45917 0.59615 0.0
C177 C 0.91228 0.47328 0.65511 0.0
O178 O 0.88864 0.49902 0.65014 0.0
O179 O 0.90168 0.43935 0.65633 0.0
O180 O 0.80879 0.53357 0.6711 0.0
O181 O 0.80785 0.47346 0.68125 0.0
O182 O 0.58768 0.82512 0.09912 0.0
Cd183 Cd 0.6067 0.84484 0.13562 0.0
Cd184 Cd 0.534 0.82895 0.14672 0.0
O185 O 0.53114 0.80498 0.10886 0.0
O186 O 0.66259 0.84495 0.13143 0.0
O187 O 0.6334 0.80818 0.15941 0.0
C188 C 0.66422 0.81821 0.14844 0.0
C189 C 0.53189 0.79945 0.18778 0.0
C190 C 0.55739 0.80913 0.09213 0.0
C191 C 0.55604 0.90943 0.15015 0.0
O192 O 0.52926 0.88621 0.14882 0.0
O193 O 0.58977 0.89828 0.14742 0.0
O194 O 0.50138 0.80663 0.17471 0.0
O195 O 0.56332 0.80644 0.17637 0.0
O196 O 0.20499 0.58744 0.60472 0.0
Cd197 Cd 0.18453 0.60644 0.64096 0.0
Cd198 Cd 0.20087 0.53212 0.65209 0.0
O199 O 0.22367 0.52998 0.61414 0.0
O200 O 0.18813 0.66287 0.63974 0.0
O201 O 0.22142 0.62805 0.66717 0.0
C202 C 0.21402 0.66062 0.65775 0.0
C203 C 0.23275 0.52801 0.6927 0.0
C204 C 0.22022 0.55664 0.59765 0.0
C205 C 0.1199 0.55591 0.65433 0.0
O206 O 0.14348 0.52912 0.65412 0.0
O207 O 0.13068 0.58954 0.65119 0.0
O208 O 0.22404 0.49802 0.67945 0.0
O209 O 0.22542 0.55975 0.68188 0.0
O210 O 0.43186 0.20083 0.11199 0.0
Cd211 Cd 0.42249 0.1826 0.15022 0.0
Cd212 Cd 0.49653 0.19859 0.15256 0.0
O213 O 0.48955 0.22225 0.11516 0.0
O214 O 0.36652 0.18496 0.15348 0.0
O215 O 0.40481 0.22084 0.17701 0.0
C216 C 0.37103 0.21226 0.17022 0.0
C217 C 0.51236 0.22863 0.19255 0.0
C218 C 0.45965 0.21717 0.10165 0.0
C219 C 0.47506 0.11801 0.15777 0.0
O220 O 0.50107 0.14121 0.15338 0.0
O221 O 0.44121 0.12917 0.15949 0.0
O222 O 0.53775 0.2203 0.17517 0.0
O223 O 0.47789 0.22235 0.18615 0.0
H224 H 0.08649 0.53797 0.15469 0.0
H225 H 0.0584 0.42101 0.16008 0.0
H226 H 0.992 0.43712 0.16083 0.0
H227 H 0.9419 0.48386 0.15794 0.0
H228 H 0.96947 0.60084 0.15204 0.0
H229 H 0.03613 0.58515 0.15369 0.0
C230 C 0.06591 0.51596 0.15618 0.0
C231 C 0.07759 0.47826 0.15718 0.0
C232 C 0.02764 0.52538 0.15644 0.0
C233 C 0.05037 0.45022 0.1592 0.0
C234 C 1.01232 0.4594 0.1596 0.0
C235 C 0.9624 0.50605 0.15715 0.0
C236 C 0.95055 0.54352 0.15472 0.0
C237 C 1.00064 0.49682 0.15792 0.0
C238 C 0.97768 0.57178 0.15388 0.0
C239 C 1.01585 0.56281 0.15475 0.0
H240 H 0.53691 0.94756 0.65401 0.0
H241 H 0.4197 0.97743 0.65707 0.0
H242 H 0.43608 0.04352 0.65965 0.0
H243 H 0.48322 0.09284 0.65899 0.0
H244 H 0.60048 0.06355 0.65539 0.0
H245 H 0.5844 0.99715 0.65527 0.0
C246 C 0.51488 0.96846 0.65538 0.0
C247 C 0.47703 0.95735 0.65519 0.0
C248 C 0.52448 1.00654 0.65671 0.0
C249 C 0.44901 0.98499 0.65709 0.0
C250 C 0.45835 0.02286 0.65855 0.0
C251 C 0.50539 0.07203 0.65833 0.0
C252 C 0.54307 0.08335 0.65705 0.0
C253 C 0.49594 0.03396 0.65805 0.0
C254 C 0.57128 0.05579 0.65635 0.0
C255 C 0.56208 0.01777 0.65621 0.0
H256 H 0.0881 0.49419 0.38125 0.0
H257 H 0.06122 0.61205 0.37977 0.0
H258 H 0.99457 0.59736 0.37783 0.0
H259 H 0.94397 0.55134 0.37865 0.0
H260 H 0.97076 0.4335 0.38065 0.0
H261 H 0.03748 0.44806 0.38013 0.0
C262 C 0.06775 0.51676 0.38037 0.0
C263 C 0.07984 0.55426 0.38081 0.0
C264 C 0.02942 0.50813 0.37941 0.0
C265 C 0.05288 0.58298 0.37952 0.0
C266 C 1.0147 0.5746 0.37845 0.0
C267 C 0.96432 0.52873 0.37882 0.0
C268 C 0.95218 0.49131 0.37983 0.0
C269 C 1.00266 0.5373 0.37871 0.0
C270 C 0.97914 0.46252 0.37991 0.0
C271 C 0.01736 0.47084 0.37967 0.0
H272 H 0.4939 0.94117 0.88036 0.0
H273 H 0.61093 0.97023 0.87772 0.0
H274 H 0.59412 0.03662 0.87789 0.0
H275 H 0.54646 0.08633 0.8807 0.0
H276 H 0.4295 0.05715 0.88394 0.0
H277 H 0.44619 0.99082 0.8815 0.0
C278 C 0.51586 0.96193 0.87968 0.0
C279 C 0.55376 0.95049 0.87915 0.0
C280 C 0.506 1.00008 0.87996 0.0
C281 C 0.58161 0.97803 0.87817 0.0
C282 C 0.57199 0.01606 0.87832 0.0
C283 C 0.52449 0.06556 0.88073 0.0
C284 C 0.48667 0.07695 0.88262 0.0
C285 C 0.53431 0.0274 0.8795 0.0
C286 C 0.45877 0.0494 0.88254 0.0
C287 C 0.46832 1.01139 0.88119 0.0
H288 H 0.97839 0.57884 0.87671 0.0
H289 H 0.93001 0.46918 0.88427 0.0
H290 H 0.99215 0.44095 0.88479 0.0
H291 H 0.06078 0.44725 0.88517 0.0
H292 H 0.10897 0.55702 0.87758 0.0
H293 H 0.04683 0.58482 0.87489 0.0
C294 C 0.98139 0.54875 0.87828 0.0
C295 C 0.94934 0.52638 0.88059 0.0
C296 C 0.01741 0.53247 0.87867 0.0
C297 C 0.954 0.48733 0.88256 0.0
C298 C 0.98965 0.47102 0.88288 0.0
C299 C 0.05772 0.4772 0.88272 0.0
C300 C 0.08976 0.49983 0.88176 0.0
C301 C 0.02164 0.49331 0.88127 0.0
C302 C 0.08501 0.53869 0.87854 0.0
C303 C 0.04936 0.55478 0.877 0.0
H304 H 0.4937 0.09231 0.38367 0.0
H305 H 0.61009 0.06135 0.37553 0.0
H306 H 0.59287 0.99537 0.37343 0.0
H307 H 0.5452 0.94643 0.37609 0.0
H308 H 0.4289 0.97744 0.38482 0.0
H309 H 0.44579 0.04349 0.38435 0.0
C310 C 0.51538 0.07122 0.38129 0.0
C311 C 0.55323 0.08193 0.37992 0.0
C312 C 0.50531 0.03329 0.38027 0.0
C313 C 0.58078 0.05405 0.3767 0.0
C314 C 0.57095 0.01625 0.37554 0.0
C315 C 0.52343 0.96757 0.37772 0.0
C316 C 0.48578 0.95681 0.38063 0.0
C317 C 0.53336 1.00554 0.37764 0.0
C318 C 0.45807 0.98476 0.38261 0.0
C319 C 0.46772 0.0226 0.3824 0.0
H320 H 0.94357 0.54259 0.65386 0.0
H321 H 0.97172 0.42585 0.66318 0.0
H322 H 0.03812 0.44151 0.66515 0.0
H323 H 0.08825 0.48778 0.66199 0.0
H324 H 0.06023 0.60444 0.65208 0.0
H325 H 0.99367 0.58925 0.65276 0.0
C326 C 0.96415 0.52051 0.65649 0.0
C327 C 0.9525 0.483 0.65821 0.0
C328 C 1.00235 0.52967 0.65742 0.0
C329 C 0.97973 0.45491 0.66173 0.0
C330 C 0.01777 0.46384 0.66281 0.0
C331 C 0.06766 0.51002 0.66014 0.0
C332 C 0.07942 0.54725 0.65683 0.0
C333 C 0.02941 0.50106 0.66034 0.0
C334 C 0.05215 0.57557 0.6546 0.0
C335 C 1.01402 0.56688 0.65493 0.0
H336 H 0.54411 0.08553 0.15597 0.0
H337 H 0.42682 0.05939 0.1633 0.0
H338 H 0.44184 0.99269 0.16282 0.0
H339 H 0.48781 0.94187 0.15809 0.0
H340 H 0.60503 0.96805 0.1503 0.0
H341 H 0.59036 0.03472 0.15332 0.0
C342 C 0.52177 0.06531 0.15762 0.0
C343 C 0.48432 0.07759 0.1595 0.0
C344 C 0.53056 0.02698 0.15715 0.0
C345 C 0.45586 0.05085 0.16177 0.0
C346 C 0.46442 1.01265 0.16144 0.0
C347 C 0.51025 0.96209 0.15719 0.0
C348 C 0.54749 0.94983 0.15379 0.0
C349 C 0.50161 1.00041 0.15879 0.0
C350 C 0.57613 0.97657 0.15283 0.0
C351 C 0.56775 1.01475 0.15451 0.0
H352 H 0.23944 0.46961 0.31733 0.0
H353 H 0.24714 0.58988 0.31426 0.0
H354 H 0.25208 0.5868 0.26584 0.0
H355 H 0.24495 0.55078 0.22407 0.0
H356 H 0.23632 0.43058 0.22707 0.0
H357 H 0.24161 0.43287 0.27555 0.0
C358 C 0.24307 0.49507 0.30614 0.0
C359 C 0.2423 0.52991 0.31945 0.0
C360 C 0.24529 0.49321 0.27813 0.0
C361 C 0.24724 0.56264 0.30458 0.0
C362 C 0.24993 0.56096 0.2768 0.0
C363 C 0.24503 0.52502 0.23527 0.0
C364 C 0.23962 0.49066 0.2219 0.0
C365 C 0.24754 0.52652 0.26329 0.0
C366 C 0.24007 0.45752 0.23679 0.0
C367 C 0.24296 0.45877 0.2646 0.0
H368 H 0.56682 0.24666 0.7326 0.0
H369 H 0.44802 0.24324 0.71666 0.0
H370 H 0.43545 0.24705 0.76444 0.0
H371 H 0.45837 0.24201 0.81059 0.0
H372 H 0.57728 0.24215 0.82637 0.0
H373 H 0.58953 0.2495 0.77888 0.0
C374 C 0.53813 0.24753 0.73951 0.0
C375 C 0.50842 0.24416 0.72104 0.0
C376 C 0.53111 0.24871 0.76706 0.0
C377 C 0.47144 0.24555 0.7304 0.0
C378 C 0.46422 0.24754 0.75777 0.0
C379 C 0.48697 0.24441 0.80374 0.0
C380 C 0.51688 0.24101 0.82203 0.0
C381 C 0.49386 0.24769 0.77629 0.0
C382 C 0.55373 0.24439 0.81276 0.0
C383 C 0.56078 0.24844 0.78555 0.0
H384 H 0.78658 0.57132 0.22717 0.0
H385 H 0.7877 0.45202 0.21307 0.0
H386 H 0.78227 0.44134 0.2609 0.0
H387 H 0.78673 0.4657 0.30676 0.0
H388 H 0.78917 0.58496 0.3209 0.0
H389 H 0.78306 0.59578 0.27305 0.0
C390 C 0.78485 0.54296 0.23448 0.0
C391 C 0.78808 0.5125 0.21655 0.0
C392 C 0.78276 0.53701 0.26208 0.0
C393 C 0.78556 0.47598 0.2264 0.0
C394 C 0.78263 0.46984 0.25379 0.0
C395 C 0.78515 0.4941 0.29946 0.0
C396 C 0.78894 0.52448 0.31741 0.0
C397 C 0.78267 0.50012 0.27186 0.0
C398 C 0.78659 0.56106 0.30756 0.0
C399 C 0.78328 0.56728 0.28016 0.0
H400 H 0.46996 0.79393 0.81243 0.0
H401 H 0.59009 0.78268 0.80783 0.0
H402 H 0.5862 0.77854 0.75935 0.0
H403 H 0.54971 0.78733 0.71817 0.0
H404 H 0.42968 0.7996 0.72263 0.0
H405 H 0.43255 0.79353 0.771 0.0
C406 C 0.4952 0.78969 0.80087 0.0
C407 C 0.53027 0.78923 0.8138 0.0
C408 C 0.49288 0.78796 0.77283 0.0
C409 C 0.5627 0.78354 0.79845 0.0
C410 C 0.56055 0.78131 0.77065 0.0
C411 C 0.52409 0.7879 0.72965 0.0
C412 C 0.48964 0.79453 0.71676 0.0
C413 C 0.52595 0.78494 0.75758 0.0
C414 C 0.45668 0.79487 0.73199 0.0
C415 C 0.45828 0.79155 0.75973 0.0
H416 H 0.78876 0.57411 0.80399 0.0
H417 H 0.78228 0.45676 0.82244 0.0
H418 H 0.77748 0.44125 0.77501 0.0
H419 H 0.78439 0.46029 0.72835 0.0
H420 H 0.79228 0.57757 0.70995 0.0
H421 H 0.78667 0.59371 0.75718 0.0
C422 C 0.78551 0.54519 0.7977 0.0
C423 C 0.78646 0.51663 0.8168 0.0
C424 C 0.78341 0.53636 0.77031 0.0
C425 C 0.78189 0.47933 0.80823 0.0
C426 C 0.77934 0.47038 0.78105 0.0
C427 C 0.7841 0.48944 0.73458 0.0
C428 C 0.78933 0.51761 0.7156 0.0
C429 C 0.78149 0.49855 0.76189 0.0
C430 C 0.78857 0.55524 0.72408 0.0
C431 C 0.78555 0.56453 0.75116 0.0
H432 H 0.55663 0.78929 0.31138 0.0
H433 H 0.43592 0.79423 0.30975 0.0
H434 H 0.4361 0.78755 0.26128 0.0
H435 H 0.4707 0.78957 0.21911 0.0
H436 H 0.59147 0.7861 0.22076 0.0
H437 H 0.59097 0.78231 0.26928 0.0
C438 C 0.53033 0.78812 0.30049 0.0
C439 C 0.49637 0.79286 0.31421 0.0
C440 C 0.5306 0.78491 0.2725 0.0
C441 C 0.46253 0.79098 0.29974 0.0
C442 C 0.46258 0.78731 0.27195 0.0
C443 C 0.4969 0.78714 0.23002 0.0
C444 C 0.53105 0.78871 0.21627 0.0
C445 C 0.49648 0.78566 0.25805 0.0
C446 C 0.56473 0.78529 0.23078 0.0
C447 C 0.56451 0.78329 0.2586 0.0
H448 H 0.25638 0.55241 0.81566 0.0
H449 H 0.24718 0.43213 0.81416 0.0
H450 H 0.24903 0.43184 0.76555 0.0
H451 H 0.24355 0.46641 0.72355 0.0
H452 H 0.2514 0.58681 0.72517 0.0
H453 H 0.26032 0.58623 0.7734 0.0
C454 C 0.25568 0.52606 0.80474 0.0
C455 C 0.25103 0.49244 0.81859 0.0
C456 C 0.25602 0.5261 0.77668 0.0
C457 C 0.25039 0.45852 0.80407 0.0
C458 C 0.25127 0.4583 0.7762 0.0
C459 C 0.24804 0.49245 0.73437 0.0
C460 C 0.24615 0.5266 0.72075 0.0
C461 C 0.25256 0.49203 0.76227 0.0
C462 C 0.25229 0.56008 0.73511 0.0
C463 C 0.25728 0.55983 0.76278 0.0
H464 H 0.58034 0.24167 0.30803 0.0
H465 H 0.46302 0.24712 0.32775 0.0
H466 H 0.44679 0.25164 0.28053 0.0
H467 H 0.46534 0.245 0.23363 0.0
H468 H 0.58251 0.23726 0.21384 0.0
H469 H 0.59927 0.24327 0.261 0.0
C470 C 0.55125 0.24465 0.30207 0.0
C471 C 0.52294 0.24354 0.32146 0.0
C472 C 0.54201 0.24643 0.27478 0.0
C473 C 0.48541 0.24763 0.31331 0.0
C474 C 0.47606 0.25004 0.28625 0.0
C475 C 0.49459 0.24538 0.23955 0.0
C476 C 0.52259 0.24016 0.22019 0.0
C477 C 0.50404 0.24807 0.26678 0.0
C478 C 0.56034 0.24099 0.22827 0.0
C479 C 0.56997 0.24425 0.25529 0.0
H480 H 0.23822 0.41525 0.97871 0.0
H481 H 0.23547 0.53529 0.97264 0.0
H482 H 0.23823 0.54128 0.02146 0.0
H483 H 0.23207 0.51156 0.06589 0.0
H484 H 0.23381 0.39106 0.0704 0.0
H485 H 0.24127 0.38615 0.02234 0.0
C486 C 0.23896 0.44276 0.98806 0.0
C487 C 0.23616 0.47474 0.97218 0.0
C488 C 0.23997 0.44588 1.01595 0.0
C489 C 0.23764 0.51022 0.98448 0.0
C490 C 0.23889 0.51362 1.01241 0.0
C491 C 0.23498 0.48432 0.05638 0.0
C492 C 0.2317 0.45172 0.07171 0.0
C493 C 0.23869 0.48157 0.0284 0.0
C494 C 0.23558 0.4166 0.05907 0.0
C495 C 0.23984 0.4137 0.03154 0.0
H496 H 0.51973 0.23253 0.47586 0.0
H497 H 0.64041 0.22945 0.47246 0.0
H498 H 0.64429 0.23497 0.52079 0.0
H499 H 0.61396 0.23272 0.56405 0.0
H500 H 0.49353 0.23395 0.56884 0.0
H501 H 0.48901 0.2378 0.52012 0.0
C502 C 0.54681 0.23389 0.48571 0.0
C503 C 0.57972 0.23005 0.47056 0.0
C504 C 0.54893 0.23636 0.5138 0.0
C505 C 0.61463 0.23181 0.48363 0.0
C506 C 0.61693 0.23495 0.51131 0.0
C507 C 0.58667 0.23437 0.5545 0.0
C508 C 0.55416 0.23251 0.57004 0.0
C509 C 0.58432 0.23593 0.52661 0.0
C510 C 0.51904 0.23526 0.55735 0.0
C511 C 0.51644 0.23721 0.52946 0.0
H512 H 0.8 0.61111 0.05878 0.0
H513 H 0.79773 0.49104 0.06538 0.0
H514 H 0.7932 0.48484 1.0167 0.0
H515 H 0.79888 0.51379 0.97207 0.0
H516 H 0.80408 0.63399 0.96686 0.0
H517 H 0.79802 0.63987 1.01506 0.0
C518 C 0.79797 0.58354 0.04964 0.0
C519 C 0.79981 0.55159 0.06566 0.0
C520 C 0.79617 0.58022 0.02178 0.0
C521 C 0.7965 0.51612 0.0535 0.0
C522 C 0.79415 0.51256 0.02564 0.0
C523 C 0.79775 0.54121 0.9815 0.0
C524 C 0.80234 0.5734 0.96597 0.0
C525 C 0.79526 0.54442 1.00951 0.0
C526 C 0.80104 0.60879 0.97842 0.0
C527 C 0.79764 0.6122 1.006 0.0
H528 H 0.51501 0.80939 0.56039 0.0
H529 H 0.39516 0.79701 0.56492 0.0
H530 H 0.3911 0.79004 0.51667 0.0
H531 H 0.41985 0.79692 0.47314 0.0
H532 H 0.53913 0.81123 0.46713 0.0
H533 H 0.54533 0.80726 0.51581 0.0
C534 C 0.48822 0.8042 0.5508 0.0
C535 C 0.45536 0.80429 0.56618 0.0
C536 C 0.4859 0.80102 0.52274 0.0
C537 C 0.42079 0.79761 0.5535 0.0
C538 C 0.41839 0.79367 0.52588 0.0
C539 C 0.44733 0.79846 0.48244 0.0
C540 C 0.47889 0.80491 0.46665 0.0
C541 C 0.45051 0.79685 0.51028 0.0
C542 C 0.51437 0.80629 0.4789 0.0
C543 C 0.51787 0.80433 0.50675 0.0
H544 H 0.22776 0.5143 0.47547 0.0
H545 H 0.2383 0.63422 0.47068 0.0
H546 H 0.24393 0.63895 0.51896 0.0
H547 H 0.23725 0.61052 0.56259 0.0
H548 H 0.22523 0.49108 0.56871 0.0
H549 H 0.22948 0.48459 0.52007 0.0
C550 C 0.23219 0.54131 0.48499 0.0
C551 C 0.23204 0.57391 0.46947 0.0
C552 C 0.23471 0.544 0.51307 0.0
C553 C 0.23776 0.60873 0.48214 0.0
C554 C 0.24094 0.61152 0.5098 0.0
C555 C 0.23617 0.58296 0.55334 0.0
C556 C 0.23039 0.55141 0.5692 0.0
C557 C 0.23804 0.57956 0.52548 0.0
C558 C 0.22962 0.51586 0.55694 0.0
C559 C 0.23178 0.51217 0.52909 0.0
H560 H 0.41822 0.2286 0.98045 0.0
H561 H 0.53829 0.2264 0.97261 0.0
H562 H 0.54534 0.23118 0.02121 0.0
H563 H 0.51683 0.22765 0.06617 0.0
H564 H 0.39641 0.22856 0.07273 0.0
H565 H 0.39016 0.23305 0.02455 0.0
C566 C 0.44598 0.22971 0.98932 0.0
C567 C 0.47765 0.22659 0.97296 0.0
C568 C 0.44977 0.23194 1.01716 0.0
C569 C 0.51341 0.22867 0.98476 0.0
C570 C 0.51745 0.23116 1.01258 0.0
C571 C 0.48929 0.22967 0.05706 0.0
C572 C 0.45714 0.22719 0.07306 0.0
C573 C 0.48577 0.23161 0.02905 0.0
C574 C 0.42163 0.22985 0.06091 0.0
C575 C 0.41797 0.23238 0.03331 0.0
H576 H 0.8025 0.42249 0.47397 0.0
H577 H 0.8015 0.54278 0.469 0.0
H578 H 0.79742 0.54779 0.51771 0.0
H579 H 0.80237 0.51755 0.56198 0.0
H580 H 0.80518 0.39701 0.56562 0.0
H581 H 0.79998 0.39264 0.5173 0.0
C582 C 0.80086 0.44986 0.48348 0.0
C583 C 0.80286 0.48219 0.46789 0.0
C584 C 0.79917 0.45249 0.51137 0.0
C585 C 0.80011 0.51741 0.48053 0.0
C586 C 0.79802 0.52028 0.50841 0.0
C587 C 0.80104 0.49039 0.55219 0.0
C588 C 0.80471 0.45768 0.5674 0.0
C589 C 0.79873 0.48798 0.52411 0.0
C590 C 0.80297 0.42265 0.5544 0.0
C591 C 0.80001 0.42007 0.52673 0.0
H592 H 0.61168 0.79184 0.05699 0.0
H593 H 0.49197 0.80395 0.06315 0.0
H594 H 0.48597 0.79975 1.01442 0.0
H595 H 0.51615 0.80168 0.96989 0.0
H596 H 0.63636 0.79132 0.96515 0.0
H597 H 0.64066 0.78534 1.01335 0.0
C598 C 0.58417 0.79292 0.04771 0.0
C599 C 0.55239 0.79874 0.06362 0.0
C600 C 0.58107 0.79114 0.01984 0.0
C601 C 0.5169 0.79952 0.05134 0.0
C602 C 0.51351 0.7974 0.02345 0.0
C603 C 0.54314 0.7972 0.97939 0.0
C604 C 0.57594 0.7975 0.96394 0.0
C605 C 0.54557 0.79452 1.00743 0.0
C606 C 0.61073 0.79173 0.97657 0.0
C607 C 0.61326 0.78835 1.00417 0.0
H608 H 0.26491 0.34771 0.19509 0.0
H609 H 0.1929 0.28586 0.14124 0.0
H610 H 0.23604 0.23271 0.14246 0.0
H611 H 0.29869 0.20808 0.15304 0.0
H612 H 0.3719 0.27138 0.20518 0.0
H613 H 0.3236 0.3193 0.2107 0.0
C614 C 0.25819 0.32231 0.18408 0.0
C615 C 0.22599 0.32104 0.16776 0.0
C616 C 0.28362 0.2922 0.1843 0.0
C617 C 0.21761 0.28776 0.15381 0.0
C618 C 0.2424 0.25738 0.15437 0.0
C619 C 0.30379 0.23191 0.16611 0.0
C620 C 0.33911 0.23638 0.17833 0.0
C621 C 0.27621 0.2599 0.16867 0.0
C622 C 0.34513 0.26738 0.19531 0.0
C623 C 0.31755 0.29492 0.1984 0.0
H624 H 0.7556 0.36038 0.68807 0.0
H625 H 0.83369 0.29478 0.64149 0.0
H626 H 0.79034 0.24236 0.64082 0.0
H627 H 0.727 0.21816 0.64835 0.0
H628 H 0.6486 0.28416 0.69438 0.0
H629 H 0.69537 0.33292 0.70059 0.0
C630 C 0.76349 0.33436 0.67824 0.0
C631 C 0.79772 0.3318 0.66457 0.0
C632 C 0.73812 0.30439 0.67755 0.0
C633 C 0.80748 0.29773 0.65206 0.0
C634 C 0.78259 0.26771 0.65153 0.0
C635 C 0.72035 0.24288 0.66017 0.0
C636 C 0.6841 0.24761 0.67055 0.0
C637 C 0.7473 0.27117 0.66342 0.0
C638 C 0.67613 0.27979 0.68597 0.0
C639 C 0.70286 0.30784 0.68947 0.0
H640 H 0.81297 0.72539 0.1366 0.0
H641 H 0.75529 0.65459 0.19183 0.0
H642 H 0.70612 0.70165 0.19694 0.0
H643 H 0.67534 0.75885 0.18111 0.0
H644 H 0.73196 0.82881 0.1248 0.0
H645 H 0.78578 0.78648 0.12508 0.0
C646 C 0.79006 0.72057 0.15018 0.0
C647 C 0.78763 0.68626 0.16352 0.0
C648 C 0.76139 0.74748 0.15264 0.0
C649 C 0.75777 0.68058 0.18112 0.0
C650 C 0.7295 0.70745 0.184 0.0
C651 C 0.69972 0.76525 0.16927 0.0
C652 C 0.69933 0.79672 0.15268 0.0
C653 C 0.73035 0.7404 0.16913 0.0
C654 C 0.73133 0.80467 0.13763 0.0
C655 C 0.76212 0.78036 0.13768 0.0
H656 H 0.21148 0.73119 0.63737 0.0
H657 H 0.27017 0.66306 0.69478 0.0
H658 H 0.31652 0.71204 0.70142 0.0
H659 H 0.34502 0.77034 0.68655 0.0
H660 H 0.28745 0.83811 0.62842 0.0
H661 H 0.23589 0.79363 0.62689 0.0
C662 C 0.23398 0.72735 0.65172 0.0
C663 C 0.23756 0.69321 0.66524 0.0
C664 C 0.26102 0.75552 0.6552 0.0
C665 C 0.26684 0.68886 0.68388 0.0
C666 C 0.2935 0.71685 0.68767 0.0
C667 C 0.32085 0.77583 0.67395 0.0
C668 C 0.32041 0.80732 0.65738 0.0
C669 C 0.29159 0.74974 0.67277 0.0
C670 C 0.28869 0.81405 0.64132 0.0
C671 C 0.25923 0.78846 0.6403 0.0
H672 H 0.35116 0.77098 0.35007 0.0
H673 H 0.2991 0.8402 0.41054 0.0
H674 H 0.24494 0.79894 0.41075 0.0
H675 H 0.21642 0.73863 0.39825 0.0
H676 H 0.26965 0.66867 0.33873 0.0
H677 H 0.31876 0.71497 0.33342 0.0
C678 C 0.32767 0.77748 0.36294 0.0
C679 C 0.3295 0.80842 0.38051 0.0
C680 C 0.29683 0.75324 0.36332 0.0
C681 C 0.29862 0.81649 0.3969 0.0
C682 C 0.26763 0.79278 0.39713 0.0
C683 C 0.23827 0.7339 0.38367 0.0
C684 C 0.23953 0.69997 0.36917 0.0
C685 C 0.267 0.76037 0.38109 0.0
C686 C 0.2681 0.69436 0.35034 0.0
C687 C 0.29635 0.72079 0.34735 0.0
H688 H 0.30257 0.21735 0.90332 0.0
H689 H 0.37467 0.27263 0.84764 0.0
H690 H 0.32812 0.32203 0.84183 0.0
H691 H 0.27043 0.35342 0.85648 0.0
H692 H 0.19877 0.29937 0.91301 0.0
H693 H 0.24123 0.24558 0.91419 0.0
C694 C 0.30782 0.23981 0.88953 0.0
C695 C 0.34235 0.24134 0.87616 0.0
C696 C 0.28105 0.26864 0.88657 0.0
C697 C 0.34854 0.27074 0.85835 0.0
C698 C 0.32193 0.29916 0.85505 0.0
C699 C 0.26368 0.3296 0.8687 0.0
C700 C 0.23154 0.33071 0.88482 0.0
C701 C 0.28859 0.299 0.86966 0.0
C702 C 0.22328 0.29943 0.90043 0.0
C703 C 0.24771 0.26867 0.90124 0.0
H704 H 0.67745 0.27664 0.34958 0.0
H705 H 0.74311 0.20051 0.39725 0.0
H706 H 0.795 0.24453 0.39796 0.0
H707 H 0.81845 0.30804 0.39019 0.0
H708 H 0.75227 0.38448 0.34311 0.0
H709 H 0.70433 0.3369 0.33682 0.0
C710 C 0.70338 0.26931 0.35966 0.0
C711 C 0.70609 0.23547 0.37363 0.0
C712 C 0.733 0.29507 0.36038 0.0
C713 C 0.74006 0.22641 0.38644 0.0
C714 C 0.76976 0.2517 0.387 0.0
C715 C 0.79389 0.31407 0.37812 0.0
C716 C 0.78882 0.35002 0.36748 0.0
C717 C 0.76605 0.28667 0.37484 0.0
C718 C 0.75686 0.3572 0.35175 0.0
C719 C 0.72928 0.33 0.34819 0.0
H720 H 0.77023 0.67346 0.84389 0.0
H721 H 0.84579 0.73084 0.89772 0.0
H722 H 0.80416 0.78518 0.89857 0.0
H723 H 0.7422 0.81297 0.88891 0.0
H724 H 0.66658 0.75498 0.8354 0.0
H725 H 0.71237 0.70491 0.82935 0.0
C726 C 0.77803 0.69814 0.85536 0.0
C727 C 0.81096 0.69774 0.87096 0.0
C728 C 0.75364 0.72922 0.85609 0.0
C729 C 0.82061 0.73016 0.88558 0.0
C730 C 0.79665 0.76127 0.88622 0.0
C731 C 0.73605 0.7898 0.87547 0.0
C732 C 0.70069 0.78765 0.86294 0.0
C733 C 0.76245 0.76063 0.8723 0.0
C734 C 0.69337 0.75737 0.84552 0.0
C735 C 0.71954 0.72853 0.84209 0.0
loop_
_geom_bond_atom_site_label_1
_geom_bond_atom_site_label_2
_geom_bond_distance
_geom_bond_site_symmetry_2
_ccdc_geom_bond_type
O0 Cd1 2.223 . S
O0 C8 1.315 . S
Cd1 O0 2.223 . S
Cd1 O4 2.297 . S
Cd1 O5 2.439 . S
Cd1 O11 2.240 . S
Cd2 O3 2.240 . S
Cd2 O10 2.223 . S
Cd2 O12 2.297 . S
Cd2 O13 2.439 . S
O3 Cd2 2.240 . S
O3 C8 1.279 . S
O4 Cd1 2.297 . S
O4 C6 1.247 . S
O5 Cd1 2.439 . S
O5 C6 1.208 . S
C6 O4 1.247 . S
C6 O5 1.208 . S
C7 O12 1.247 . S
C7 O13 1.208 . S
C8 O0 1.315 . S
C8 O3 1.279 . S
C9 O10 1.315 . S
C9 O11 1.279 . S
O10 Cd2 2.223 . S
O10 C9 1.315 . S
O11 Cd1 2.240 . S
O11 C9 1.279 . S
O12 Cd2 2.297 . S
O12 C7 1.247 . S
O13 Cd2 2.439 . S
O13 C7 1.208 . S
O14 Cd15 2.223 . S
O14 C22 1.315 . S
Cd15 O14 2.223 . S
Cd15 O18 2.297 . S
Cd15 O19 2.439 . S
Cd15 O25 2.240 . S
Cd16 O17 2.240 . S
Cd16 O24 2.223 . S
Cd16 O26 2.297 . S
Cd16 O27 2.439 . S
O17 Cd16 2.240 . S
O17 C22 1.279 . S
O18 Cd15 2.297 . S
O18 C20 1.247 . S
O19 Cd15 2.439 . S
O19 C20 1.208 . S
C20 O18 1.247 . S
C20 O19 1.208 . S
C21 O26 1.247 . S
C21 O27 1.208 . S
C22 O14 1.315 . S
C22 O17 1.279 . S
C23 O24 1.315 . S
C23 O25 1.279 . S
O24 Cd16 2.223 . S
O24 C23 1.315 . S
O25 Cd15 2.240 . S
O25 C23 1.279 . S
O26 Cd16 2.297 . S
O26 C21 1.247 . S
O27 Cd16 2.439 . S
O27 C21 1.208 . S
O28 Cd29 2.223 . S
O28 C36 1.315 . S
Cd29 O28 2.223 . S
Cd29 O32 2.297 . S
Cd29 O33 2.439 . S
Cd29 O39 2.240 . S
Cd30 O31 2.240 . S
Cd30 O38 2.223 . S
Cd30 O40 2.297 . S
Cd30 O41 2.439 . S
O31 Cd30 2.240 . S
O31 C36 1.279 . S
O32 Cd29 2.297 . S
O32 C34 1.247 . S
O33 Cd29 2.439 . S
O33 C34 1.208 . S
C34 O32 1.247 . S
C34 O33 1.208 . S
C35 O40 1.247 . S
C35 O41 1.208 . S
C36 O28 1.315 . S
C36 O31 1.279 . S
C37 O38 1.315 . S
C37 O39 1.279 . S
O38 Cd30 2.223 . S
O38 C37 1.315 . S
O39 Cd29 2.240 . S
O39 C37 1.279 . S
O40 Cd30 2.297 . S
O40 C35 1.247 . S
O41 Cd30 2.439 . S
O41 C35 1.208 . S
O42 Cd43 2.223 . S
O42 C50 1.315 . S
Cd43 O42 2.223 . S
Cd43 O46 2.297 . S
Cd43 O47 2.439 . S
Cd43 O53 2.240 . S
Cd44 O45 2.240 . S
Cd44 O52 2.223 . S
Cd44 O54 2.297 . S
Cd44 O55 2.439 . S
O45 Cd44 2.240 . S
O45 C50 1.279 . S
O46 Cd43 2.297 . S
O46 C48 1.247 . S
O47 Cd43 2.439 . S
O47 C48 1.208 . S
C48 O46 1.247 . S
C48 O47 1.208 . S
C49 O54 1.247 . S
C49 O55 1.208 . S
C50 O42 1.315 . S
C50 O45 1.279 . S
C51 O52 1.315 . S
C51 O53 1.279 . S
O52 Cd44 2.223 . S
O52 C51 1.315 . S
O53 Cd43 2.240 . S
O53 C51 1.279 . S
O54 Cd44 2.297 . S
O54 C49 1.247 . S
O55 Cd44 2.439 . S
O55 C49 1.208 . S
O56 Cd57 2.223 . S
O56 C64 1.315 . S
Cd57 O56 2.223 . S
Cd57 O60 2.297 . S
Cd57 O61 2.439 . S
Cd57 O67 2.240 . S
Cd58 O59 2.240 . S
Cd58 O66 2.223 . S
Cd58 O68 2.297 . S
Cd58 O69 2.439 . S
O59 Cd58 2.240 . S
O59 C64 1.279 . S
O60 Cd57 2.297 . S
O60 C62 1.247 . S
O61 Cd57 2.439 . S
O61 C62 1.208 . S
C62 O60 1.247 . S
C62 O61 1.208 . S
C63 O68 1.247 . S
C63 O69 1.208 . S
C64 O56 1.315 . S
C64 O59 1.279 . S
C65 O66 1.315 . S
C65 O67 1.279 . S
O66 Cd58 2.223 . S
O66 C65 1.315 . S
O67 Cd57 2.240 . S
O67 C65 1.279 . S
O68 Cd58 2.297 . S
O68 C63 1.247 . S
O69 Cd58 2.439 . S
O69 C63 1.208 . S
O70 Cd71 2.223 . S
O70 C78 1.315 . S
Cd71 O70 2.223 . S
Cd71 O74 2.297 . S
Cd71 O75 2.439 . S
Cd71 O81 2.240 . S
Cd72 O73 2.240 . S
Cd72 O80 2.223 . S
Cd72 O82 2.297 . S
Cd72 O83 2.439 . S
O73 Cd72 2.240 . S
O73 C78 1.279 . S
O74 Cd71 2.297 . S
O74 C76 1.247 . S
O75 Cd71 2.439 . S
O75 C76 1.208 . S
C76 O74 1.247 . S
C76 O75 1.208 . S
C77 O82 1.247 . S
C77 O83 1.208 . S
C78 O70 1.315 . S
C78 O73 1.279 . S
C79 O80 1.315 . S
C79 O81 1.279 . S
O80 Cd72 2.223 . S
O80 C79 1.315 . S
O81 Cd71 2.240 . S
O81 C79 1.279 . S
O82 Cd72 2.297 . S
O82 C77 1.247 . S
O83 Cd72 2.439 . S
O83 C77 1.208 . S
O84 Cd85 2.223 . S
O84 C92 1.315 . S
Cd85 O84 2.223 . S
Cd85 O88 2.297 . S
Cd85 O89 2.439 . S
Cd85 O95 2.240 . S
Cd86 O87 2.240 . S
Cd86 O94 2.223 . S
Cd86 O96 2.297 . S
Cd86 O97 2.439 . S
O87 Cd86 2.240 . S
O87 C92 1.279 . S
O88 Cd85 2.297 . S
O88 C90 1.247 . S
O89 Cd85 2.439 . S
O89 C90 1.208 . S
C90 O88 1.247 . S
C90 O89 1.208 . S
C91 O96 1.247 . S
C91 O97 1.208 . S
C92 O84 1.315 . S
C92 O87 1.279 . S
C93 O94 1.315 . S
C93 O95 1.279 . S
O94 Cd86 2.223 . S
O94 C93 1.315 . S
O95 Cd85 2.240 . S
O95 C93 1.279 . S
O96 Cd86 2.297 . S
O96 C91 1.247 . S
O97 Cd86 2.439 . S
O97 C91 1.208 . S
O98 Cd99 2.223 . S
O98 C106 1.315 . S
Cd99 O98 2.223 . S
Cd99 O102 2.297 . S
Cd99 O103 2.439 . S
Cd99 O109 2.240 . S
Cd100 O101 2.240 . S
Cd100 O108 2.223 . S
Cd100 O110 2.297 . S
Cd100 O111 2.439 . S
O101 Cd100 2.240 . S
O101 C106 1.279 . S
O102 Cd99 2.297 . S
O102 C104 1.247 . S
O103 Cd99 2.439 . S
O103 C104 1.208 . S
C104 O102 1.247 . S
C104 O103 1.208 . S
C105 O110 1.247 . S
C105 O111 1.208 . S
C106 O98 1.315 . S
C106 O101 1.279 . S
C107 O108 1.315 . S
C107 O109 1.279 . S
O108 Cd100 2.223 . S
O108 C107 1.315 . S
O109 Cd99 2.240 . S
O109 C107 1.279 . S
O110 Cd100 2.297 . S
O110 C105 1.247 . S
O111 Cd100 2.439 . S
O111 C105 1.208 . S
O112 Cd113 2.223 . S
O112 C120 1.315 . S
Cd113 O112 2.223 . S
Cd113 O116 2.297 . S
Cd113 O117 2.439 . S
Cd113 O123 2.240 . S
Cd114 O115 2.240 . S
Cd114 O122 2.223 . S
Cd114 O124 2.297 . S
Cd114 O125 2.439 . S
O115 Cd114 2.240 . S
O115 C120 1.279 . S
O116 Cd113 2.297 . S
O116 C118 1.247 . S
O117 Cd113 2.439 . S
O117 C118 1.208 . S
C118 O116 1.247 . S
C118 O117 1.208 . S
C119 O124 1.247 . S
C119 O125 1.208 . S
C120 O112 1.315 . S
C120 O115 1.279 . S
C121 O122 1.315 . S
C121 O123 1.279 . S
O122 Cd114 2.223 . S
O122 C121 1.315 . S
O123 Cd113 2.240 . S
O123 C121 1.279 . S
O124 Cd114 2.297 . S
O124 C119 1.247 . S
O125 Cd114 2.439 . S
O125 C119 1.208 . S
O126 Cd127 2.223 . S
O126 C134 1.315 . S
Cd127 O126 2.223 . S
Cd127 O130 2.297 . S
Cd127 O131 2.439 . S
Cd127 O137 2.240 . S
Cd128 O129 2.240 . S
Cd128 O136 2.223 . S
Cd128 O138 2.297 . S
Cd128 O139 2.439 . S
O129 Cd128 2.240 . S
O129 C134 1.279 . S
O130 Cd127 2.297 . S
O130 C132 1.247 . S
O131 Cd127 2.439 . S
O131 C132 1.208 . S
C132 O130 1.247 . S
C132 O131 1.208 . S
C133 O138 1.247 . S
C133 O139 1.208 . S
C134 O126 1.315 . S
C134 O129 1.279 . S
C135 O136 1.315 . S
C135 O137 1.279 . S
O136 Cd128 2.223 . S
O136 C135 1.315 . S
O137 Cd127 2.240 . S
O137 C135 1.279 . S
O138 Cd128 2.297 . S
O138 C133 1.247 . S
O139 Cd128 2.439 . S
O139 C133 1.208 . S
O140 Cd141 2.223 . S
O140 C148 1.315 . S
Cd141 O140 2.223 . S
Cd141 O144 2.297 . S
Cd141 O145 2.439 . S
Cd141 O151 2.240 . S
Cd142 O143 2.240 . S
Cd142 O150 2.223 . S
Cd142 O152 2.297 . S
Cd142 O153 2.439 . S
O143 Cd142 2.240 . S
O143 C148 1.279 . S
O144 Cd141 2.297 . S
O144 C146 1.247 . S
O145 Cd141 2.439 . S
O145 C146 1.208 . S
C146 O144 1.247 . S
C146 O145 1.208 . S
C147 O152 1.247 . S
C147 O153 1.208 . S
C148 O140 1.315 . S
C148 O143 1.279 . S
C149 O150 1.315 . S
C149 O151 1.279 . S
O150 Cd142 2.223 . S
O150 C149 1.315 . S
O151 Cd141 2.240 . S
O151 C149 1.279 . S
O152 Cd142 2.297 . S
O152 C147 1.247 . S
O153 Cd142 2.439 . S
O153 C147 1.208 . S
O154 Cd155 2.223 . S
O154 C162 1.315 . S
Cd155 O154 2.223 . S
Cd155 O158 2.297 . S
Cd155 O159 2.439 . S
Cd155 O165 2.240 . S
Cd156 O157 2.240 . S
Cd156 O164 2.223 . S
Cd156 O166 2.297 . S
Cd156 O167 2.439 . S
O157 Cd156 2.240 . S
O157 C162 1.279 . S
O158 Cd155 2.297 . S
O158 C160 1.247 . S
O159 Cd155 2.439 . S
O159 C160 1.208 . S
C160 O158 1.247 . S
C160 O159 1.208 . S
C161 O166 1.247 . S
C161 O167 1.208 . S
C162 O154 1.315 . S
C162 O157 1.279 . S
C163 O164 1.315 . S
C163 O165 1.279 . S
O164 Cd156 2.223 . S
O164 C163 1.315 . S
O165 Cd155 2.240 . S
O165 C163 1.279 . S
O166 Cd156 2.297 . S
O166 C161 1.247 . S
O167 Cd156 2.439 . S
O167 C161 1.208 . S
O168 Cd169 2.223 . S
O168 C176 1.315 . S
Cd169 O168 2.223 . S
Cd169 O172 2.297 . S
Cd169 O173 2.439 . S
Cd169 O179 2.240 . S
Cd170 O171 2.240 . S
Cd170 O178 2.223 . S
Cd170 O180 2.297 . S
Cd170 O181 2.439 . S
O171 Cd170 2.240 . S
O171 C176 1.279 . S
O172 Cd169 2.297 . S
O172 C174 1.247 . S
O173 Cd169 2.439 . S
O173 C174 1.208 . S
C174 O172 1.247 . S
C174 O173 1.208 . S
C175 O180 1.247 . S
C175 O181 1.208 . S
C176 O168 1.315 . S
C176 O171 1.279 . S
C177 O178 1.315 . S
C177 O179 1.279 . S
O178 Cd170 2.223 . S
O178 C177 1.315 . S
O179 Cd169 2.240 . S
O179 C177 1.279 . S
O180 Cd170 2.297 . S
O180 C175 1.247 . S
O181 Cd170 2.439 . S
O181 C175 1.208 . S
O182 Cd183 2.223 . S
O182 C190 1.315 . S
Cd183 O182 2.223 . S
Cd183 O186 2.297 . S
Cd183 O187 2.439 . S
Cd183 O193 2.240 . S
Cd184 O185 2.240 . S
Cd184 O192 2.223 . S
Cd184 O194 2.297 . S
Cd184 O195 2.439 . S
O185 Cd184 2.240 . S
O185 C190 1.279 . S
O186 Cd183 2.297 . S
O186 C188 1.247 . S
O187 Cd183 2.439 . S
O187 C188 1.208 . S
C188 O186 1.247 . S
C188 O187 1.208 . S
C189 O194 1.247 . S
C189 O195 1.208 . S
C190 O182 1.315 . S
C190 O185 1.279 . S
C191 O192 1.315 . S
C191 O193 1.279 . S
O192 Cd184 2.223 . S
O192 C191 1.315 . S
O193 Cd183 2.240 . S
O193 C191 1.279 . S
O194 Cd184 2.297 . S
O194 C189 1.247 . S
O195 Cd184 2.439 . S
O195 C189 1.208 . S
O196 Cd197 2.223 . S
O196 C204 1.315 . S
Cd197 O196 2.223 . S
Cd197 O200 2.297 . S
Cd197 O201 2.439 . S
Cd197 O207 2.240 . S
Cd198 O199 2.240 . S
Cd198 O206 2.223 . S
Cd198 O208 2.297 . S
Cd198 O209 2.439 . S
O199 Cd198 2.240 . S
O199 C204 1.279 . S
O200 Cd197 2.297 . S
O200 C202 1.247 . S
O201 Cd197 2.439 . S
O201 C202 1.208 . S
C202 O200 1.247 . S
C202 O201 1.208 . S
C203 O208 1.247 . S
C203 O209 1.208 . S
C204 O196 1.315 . S
C204 O199 1.279 . S
C205 O206 1.315 . S
C205 O207 1.279 . S
O206 Cd198 2.223 . S
O206 C205 1.315 . S
O207 Cd197 2.240 . S
O207 C205 1.279 . S
O208 Cd198 2.297 . S
O208 C203 1.247 . S
O209 Cd198 2.439 . S
O209 C203 1.208 . S
O210 Cd211 2.223 . S
O210 C218 1.315 . S
Cd211 O210 2.223 . S
Cd211 O214 2.297 . S
Cd211 O215 2.439 . S
Cd211 O221 2.240 . S
Cd212 O213 2.240 . S
Cd212 O220 2.223 . S
Cd212 O222 2.297 . S
Cd212 O223 2.439 . S
O213 Cd212 2.240 . S
O213 C218 1.279 . S
O214 Cd211 2.297 . S
O214 C216 1.247 . S
O215 Cd211 2.439 . S
O215 C216 1.208 . S
C216 O214 1.247 . S
C216 O215 1.208 . S
C217 O222 1.247 . S
C217 O223 1.208 . S
C218 O210 1.315 . S
C218 O213 1.279 . S
C219 O220 1.315 . S
C219 O221 1.279 . S
O220 Cd212 2.223 . S
O220 C219 1.315 . S
O221 Cd211 2.240 . S
O221 C219 1.279 . S
O222 Cd212 2.297 . S
O222 C217 1.247 . S
O223 Cd212 2.439 . S
O223 C217 1.208 . S
H224 C230 0.930 . S
H225 C233 0.930 . S
H226 C234 0.930 . S
H227 C235 0.930 . S
H228 C238 0.930 . S
H229 C239 0.930 . S
C230 H224 0.930 . S
C230 C231 1.355 . S
C230 C232 1.415 . S
C231 C230 1.355 . S
C231 C233 1.419 . S
C232 C230 1.415 . S
C232 C237 1.425 1_455 S
C232 C239 1.409 . S
C233 H225 0.930 . S
C233 C231 1.419 . S
C233 C234 1.362 1_455 S
C234 H226 0.930 . S
C234 C233 1.362 1_655 S
C234 C237 1.409 . S
C235 H227 0.930 . S
C235 C236 1.355 . S
C235 C237 1.415 . S
C236 C235 1.355 . S
C236 C238 1.419 . S
C237 C232 1.425 1_655 S
C237 C234 1.409 . S
C237 C235 1.415 . S
C238 H228 0.930 . S
C238 C236 1.419 . S
C238 C239 1.362 1_655 S
C239 H229 0.930 . S
C239 C232 1.409 . S
C239 C238 1.362 1_455 S
H240 C246 0.930 . S
H241 C249 0.930 . S
H242 C250 0.930 . S
H243 C251 0.930 . S
H244 C254 0.930 . S
H245 C255 0.930 . S
C246 H240 0.930 . S
C246 C247 1.355 . S
C246 C248 1.415 . S
C247 C246 1.355 . S
C247 C249 1.419 . S
C248 C246 1.415 . S
C248 C253 1.425 1_565 S
C248 C255 1.409 . S
C249 H241 0.930 . S
C249 C247 1.419 . S
C249 C250 1.362 1_565 S
C250 H242 0.930 . S
C250 C249 1.362 1_545 S
C250 C253 1.409 . S
C251 H243 0.930 . S
C251 C252 1.355 . S
C251 C253 1.415 . S
C252 C251 1.355 . S
C252 C254 1.419 . S
C253 C248 1.425 1_545 S
C253 C250 1.409 . S
C253 C251 1.415 . S
C254 H244 0.930 . S
C254 C252 1.419 . S
C254 C255 1.362 1_545 S
C255 H245 0.930 . S
C255 C248 1.409 . S
C255 C254 1.362 1_565 S
H256 C262 0.930 . S
H257 C265 0.930 . S
H258 C266 0.930 . S
H259 C267 0.930 . S
H260 C270 0.930 . S
H261 C271 0.930 . S
C262 H256 0.930 . S
C262 C263 1.355 . S
C262 C264 1.415 . S
C263 C262 1.355 . S
C263 C265 1.419 . S
C264 C262 1.415 . S
C264 C269 1.425 1_455 S
C264 C271 1.409 1_455 S
C265 H257 0.930 . S
C265 C263 1.419 . S
C265 C266 1.362 . S
C266 H258 0.930 . S
C266 C265 1.362 . S
C266 C269 1.409 1_455 S
C267 H259 0.930 . S
C267 C268 1.355 . S
C267 C269 1.415 . S
C268 C267 1.355 . S
C268 C270 1.419 . S
C269 C264 1.425 1_655 S
C269 C266 1.409 1_655 S
C269 C267 1.415 . S
C270 H260 0.930 . S
C270 C268 1.419 . S
C270 C271 1.362 . S
C271 H261 0.930 . S
C271 C264 1.409 1_655 S
C271 C270 1.362 . S
H272 C278 0.930 . S
H273 C281 0.930 . S
H274 C282 0.930 . S
H275 C283 0.930 . S
H276 C286 0.930 . S
H277 C287 0.930 . S
C278 H272 0.930 . S
C278 C279 1.355 . S
C278 C280 1.415 . S
C279 C278 1.355 . S
C279 C281 1.419 . S
C280 C278 1.415 . S
C280 C285 1.425 1_565 S
C280 C287 1.409 . S
C281 H273 0.930 . S
C281 C279 1.419 . S
C281 C282 1.362 1_565 S
C282 H274 0.930 . S
C282 C281 1.362 1_545 S
C282 C285 1.409 . S
C283 H275 0.930 . S
C283 C284 1.355 . S
C283 C285 1.415 . S
C284 C283 1.355 . S
C284 C286 1.419 . S
C285 C280 1.425 1_545 S
C285 C282 1.409 . S
C285 C283 1.415 . S
C286 H276 0.930 . S
C286 C284 1.419 . S
C286 C287 1.362 1_545 S
C287 H277 0.930 . S
C287 C280 1.409 . S
C287 C286 1.362 1_565 S
H288 C294 0.930 . S
H289 C297 0.930 . S
H290 C298 0.930 . S
H291 C299 0.930 . S
H292 C302 0.930 . S
H293 C303 0.930 . S
C294 H288 0.930 . S
C294 C295 1.355 . S
C294 C296 1.415 1_655 S
C295 C294 1.355 . S
C295 C297 1.419 . S
C296 C294 1.415 1_455 S
C296 C301 1.425 1_455 S
C296 C303 1.409 . S
C297 H289 0.930 . S
C297 C295 1.419 . S
C297 C298 1.362 . S
C298 H290 0.930 . S
C298 C297 1.362 . S
C298 C301 1.409 . S
C299 H291 0.930 . S
C299 C300 1.355 . S
C299 C301 1.415 1_455 S
C300 C299 1.355 . S
C300 C302 1.419 . S
C301 C296 1.425 1_655 S
C301 C298 1.409 . S
C301 C299 1.415 1_655 S
C302 H292 0.930 . S
C302 C300 1.419 . S
C302 C303 1.362 . S
C303 H293 0.930 . S
C303 C296 1.409 . S
C303 C302 1.362 . S
H304 C310 0.930 . S
H305 C313 0.930 . S
H306 C314 0.930 . S
H307 C315 0.930 . S
H308 C318 0.930 . S
H309 C319 0.930 . S
C310 H304 0.930 . S
C310 C311 1.355 . S
C310 C312 1.415 1_545 S
C311 C310 1.355 . S
C311 C313 1.419 . S
C312 C310 1.415 1_565 S
C312 C317 1.425 1_565 S
C312 C319 1.409 . S
C313 H305 0.930 . S
C313 C311 1.419 . S
C313 C314 1.362 . S
C314 H306 0.930 . S
C314 C313 1.362 . S
C314 C317 1.409 . S
C315 H307 0.930 . S
C315 C316 1.355 . S
C315 C317 1.415 1_565 S
C316 C315 1.355 . S
C316 C318 1.419 . S
C317 C312 1.425 1_545 S
C317 C314 1.409 . S
C317 C315 1.415 1_545 S
C318 H308 0.930 . S
C318 C316 1.419 . S
C318 C319 1.362 . S
C319 H309 0.930 . S
C319 C312 1.409 . S
C319 C318 1.362 . S
H320 C326 0.930 . S
H321 C329 0.930 . S
H322 C330 0.930 . S
H323 C331 0.930 . S
H324 C334 0.930 . S
H325 C335 0.930 . S
C326 H320 0.930 . S
C326 C327 1.355 . S
C326 C328 1.415 . S
C327 C326 1.355 . S
C327 C329 1.419 . S
C328 C326 1.415 . S
C328 C333 1.425 1_655 S
C328 C335 1.409 . S
C329 H321 0.930 . S
C329 C327 1.419 . S
C329 C330 1.362 1_655 S
C330 H322 0.930 . S
C330 C329 1.362 1_455 S
C330 C333 1.409 . S
C331 H323 0.930 . S
C331 C332 1.355 . S
C331 C333 1.415 . S
C332 C331 1.355 . S
C332 C334 1.419 . S
C333 C328 1.425 1_455 S
C333 C330 1.409 . S
C333 C331 1.415 . S
C334 H324 0.930 . S
C334 C332 1.419 . S
C334 C335 1.362 1_455 S
C335 H325 0.930 . S
C335 C328 1.409 . S
C335 C334 1.362 1_655 S
H336 C342 0.930 . S
H337 C345 0.930 . S
H338 C346 0.930 . S
H339 C347 0.930 . S
H340 C350 0.930 . S
H341 C351 0.930 . S
C342 H336 0.930 . S
C342 C343 1.355 . S
C342 C344 1.415 . S
C343 C342 1.355 . S
C343 C345 1.419 . S
C344 C342 1.415 . S
C344 C349 1.425 1_545 S
C344 C351 1.409 1_545 S
C345 H337 0.930 . S
C345 C343 1.419 . S
C345 C346 1.362 . S
C346 H338 0.930 . S
C346 C345 1.362 . S
C346 C349 1.409 1_545 S
C347 H339 0.930 . S
C347 C348 1.355 . S
C347 C349 1.415 . S
C348 C347 1.355 . S
C348 C350 1.419 . S
C349 C344 1.425 1_565 S
C349 C346 1.409 1_565 S
C349 C347 1.415 . S
C350 H340 0.930 . S
C350 C348 1.419 . S
C350 C351 1.362 . S
C351 H341 0.930 . S
C351 C344 1.409 1_565 S
C351 C350 1.362 . S
H352 C358 0.930 . S
H353 C361 0.930 . S
H354 C362 0.930 . S
H355 C363 0.930 . S
H356 C366 0.930 . S
H357 C367 0.930 . S
C358 H352 0.930 . S
C358 C359 1.355 . S
C358 C360 1.415 . S
C359 C358 1.355 . S
C359 C361 1.419 . S
C360 C358 1.415 . S
C360 C365 1.425 . S
C360 C367 1.409 . S
C361 H353 0.930 . S
C361 C359 1.419 . S
C361 C362 1.362 . S
C362 H354 0.930 . S
C362 C361 1.362 . S
C362 C365 1.409 . S
C363 H355 0.930 . S
C363 C364 1.355 . S
C363 C365 1.415 . S
C364 C363 1.355 . S
C364 C366 1.419 . S
C365 C360 1.425 . S
C365 C362 1.409 . S
C365 C363 1.415 . S
C366 H356 0.930 . S
C366 C364 1.419 . S
C366 C367 1.362 . S
C367 H357 0.930 . S
C367 C360 1.409 . S
C367 C366 1.362 . S
H368 C374 0.930 . S
H369 C377 0.930 . S
H370 C378 0.930 . S
H371 C379 0.930 . S
H372 C382 0.930 . S
H373 C383 0.930 . S
C374 H368 0.930 . S
C374 C375 1.355 . S
C374 C376 1.415 . S
C375 C374 1.355 . S
C375 C377 1.419 . S
C376 C374 1.415 . S
C376 C381 1.425 . S
C376 C383 1.409 . S
C377 H369 0.930 . S
C377 C375 1.419 . S
C377 C378 1.362 . S
C378 H370 0.930 . S
C378 C377 1.362 . S
C378 C381 1.409 . S
C379 H371 0.930 . S
C379 C380 1.355 . S
C379 C381 1.415 . S
C380 C379 1.355 . S
C380 C382 1.419 . S
C381 C376 1.425 . S
C381 C378 1.409 . S
C381 C379 1.415 . S
C382 H372 0.930 . S
C382 C380 1.419 . S
C382 C383 1.362 . S
C383 H373 0.930 . S
C383 C376 1.409 . S
C383 C382 1.362 . S
H384 C390 0.930 . S
H385 C393 0.930 . S
H386 C394 0.930 . S
H387 C395 0.930 . S
H388 C398 0.930 . S
H389 C399 0.930 . S
C390 H384 0.930 . S
C390 C391 1.355 . S
C390 C392 1.415 . S
C391 C390 1.355 . S
C391 C393 1.419 . S
C392 C390 1.415 . S
C392 C397 1.425 . S
C392 C399 1.409 . S
C393 H385 0.930 . S
C393 C391 1.419 . S
C393 C394 1.362 . S
C394 H386 0.930 . S
C394 C393 1.362 . S
C394 C397 1.409 . S
C395 H387 0.930 . S
C395 C396 1.355 . S
C395 C397 1.415 . S
C396 C395 1.355 . S
C396 C398 1.419 . S
C397 C392 1.425 . S
C397 C394 1.409 . S
C397 C395 1.415 . S
C398 H388 0.930 . S
C398 C396 1.419 . S
C398 C399 1.362 . S
C399 H389 0.930 . S
C399 C392 1.409 . S
C399 C398 1.362 . S
H400 C406 0.930 . S
H401 C409 0.930 . S
H402 C410 0.930 . S
H403 C411 0.930 . S
H404 C414 0.930 . S
H405 C415 0.930 . S
C406 H400 0.930 . S
C406 C407 1.355 . S
C406 C408 1.415 . S
C407 C406 1.355 . S
C407 C409 1.419 . S
C408 C406 1.415 . S
C408 C413 1.425 . S
C408 C415 1.409 . S
C409 H401 0.930 . S
C409 C407 1.419 . S
C409 C410 1.362 . S
C410 H402 0.930 . S
C410 C409 1.362 . S
C410 C413 1.409 . S
C411 H403 0.930 . S
C411 C412 1.355 . S
C411 C413 1.415 . S
C412 C411 1.355 . S
C412 C414 1.419 . S
C413 C408 1.425 . S
C413 C410 1.409 . S
C413 C411 1.415 . S
C414 H404 0.930 . S
C414 C412 1.419 . S
C414 C415 1.362 . S
C415 H405 0.930 . S
C415 C408 1.409 . S
C415 C414 1.362 . S
H416 C422 0.930 . S
H417 C425 0.930 . S
H418 C426 0.930 . S
H419 C427 0.930 . S
H420 C430 0.930 . S
H421 C431 0.930 . S
C422 H416 0.930 . S
C422 C423 1.355 . S
C422 C424 1.415 . S
C423 C422 1.355 . S
C423 C425 1.419 . S
C424 C422 1.415 . S
C424 C429 1.425 . S
C424 C431 1.409 . S
C425 H417 0.930 . S
C425 C423 1.419 . S
C425 C426 1.362 . S
C426 H418 0.930 . S
C426 C425 1.362 . S
C426 C429 1.409 . S
C427 H419 0.930 . S
C427 C428 1.355 . S
C427 C429 1.415 . S
C428 C427 1.355 . S
C428 C430 1.419 . S
C429 C424 1.425 . S
C429 C426 1.409 . S
C429 C427 1.415 . S
C430 H420 0.930 . S
C430 C428 1.419 . S
C430 C431 1.362 . S
C431 H421 0.930 . S
C431 C424 1.409 . S
C431 C430 1.362 . S
H432 C438 0.930 . S
H433 C441 0.930 . S
H434 C442 0.930 . S
H435 C443 0.930 . S
H436 C446 0.930 . S
H437 C447 0.930 . S
C438 H432 0.930 . S
C438 C439 1.355 . S
C438 C440 1.415 . S
C439 C438 1.355 . S
C439 C441 1.419 . S
C440 C438 1.415 . S
C440 C445 1.425 . S
C440 C447 1.409 . S
C441 H433 0.930 . S
C441 C439 1.419 . S
C441 C442 1.362 . S
C442 H434 0.930 . S
C442 C441 1.362 . S
C442 C445 1.409 . S
C443 H435 0.930 . S
C443 C444 1.355 . S
C443 C445 1.415 . S
C444 C443 1.355 . S
C444 C446 1.419 . S
C445 C440 1.425 . S
C445 C442 1.409 . S
C445 C443 1.415 . S
C446 H436 0.930 . S
C446 C444 1.419 . S
C446 C447 1.362 . S
C447 H437 0.930 . S
C447 C440 1.409 . S
C447 C446 1.362 . S
H448 C454 0.930 . S
H449 C457 0.930 . S
H450 C458 0.930 . S
H451 C459 0.930 . S
H452 C462 0.930 . S
H453 C463 0.930 . S
C454 H448 0.930 . S
C454 C455 1.355 . S
C454 C456 1.415 . S
C455 C454 1.355 . S
C455 C457 1.419 . S
C456 C454 1.415 . S
C456 C461 1.425 . S
C456 C463 1.409 . S
C457 H449 0.930 . S
C457 C455 1.419 . S
C457 C458 1.362 . S
C458 H450 0.930 . S
C458 C457 1.362 . S
C458 C461 1.409 . S
C459 H451 0.930 . S
C459 C460 1.355 . S
C459 C461 1.415 . S
C460 C459 1.355 . S
C460 C462 1.419 . S
C461 C456 1.425 . S
C461 C458 1.409 . S
C461 C459 1.415 . S
C462 H452 0.930 . S
C462 C460 1.419 . S
C462 C463 1.362 . S
C463 H453 0.930 . S
C463 C456 1.409 . S
C463 C462 1.362 . S
H464 C470 0.930 . S
H465 C473 0.930 . S
H466 C474 0.930 . S
H467 C475 0.930 . S
H468 C478 0.930 . S
H469 C479 0.930 . S
C470 H464 0.930 . S
C470 C471 1.355 . S
C470 C472 1.415 . S
C471 C470 1.355 . S
C471 C473 1.419 . S
C472 C470 1.415 . S
C472 C477 1.425 . S
C472 C479 1.409 . S
C473 H465 0.930 . S
C473 C471 1.419 . S
C473 C474 1.362 . S
C474 H466 0.930 . S
C474 C473 1.362 . S
C474 C477 1.409 . S
C475 H467 0.930 . S
C475 C476 1.355 . S
C475 C477 1.415 . S
C476 C475 1.355 . S
C476 C478 1.419 . S
C477 C472 1.425 . S
C477 C474 1.409 . S
C477 C475 1.415 . S
C478 H468 0.930 . S
C478 C476 1.419 . S
C478 C479 1.362 . S
C479 H469 0.930 . S
C479 C472 1.409 . S
C479 C478 1.362 . S
H480 C486 0.930 . S
H481 C489 0.930 . S
H482 C490 0.930 . S
H483 C491 0.930 . S
H484 C494 0.930 . S
H485 C495 0.930 . S
C486 H480 0.930 . S
C486 C487 1.355 . S
C486 C488 1.415 . S
C487 C486 1.355 . S
C487 C489 1.419 . S
C488 C486 1.415 . S
C488 C493 1.425 1_556 S
C488 C495 1.409 1_556 S
C489 H481 0.930 . S
C489 C487 1.419 . S
C489 C490 1.362 . S
C490 H482 0.930 . S
C490 C489 1.362 . S
C490 C493 1.409 1_556 S
C491 H483 0.930 . S
C491 C492 1.355 . S
C491 C493 1.415 . S
C492 C491 1.355 . S
C492 C494 1.419 . S
C493 C488 1.425 1_554 S
C493 C490 1.409 1_554 S
C493 C491 1.415 . S
C494 H484 0.930 . S
C494 C492 1.419 . S
C494 C495 1.362 . S
C495 H485 0.930 . S
C495 C488 1.409 1_554 S
C495 C494 1.362 . S
H496 C502 0.930 . S
H497 C505 0.930 . S
H498 C506 0.930 . S
H499 C507 0.930 . S
H500 C510 0.930 . S
H501 C511 0.930 . S
C502 H496 0.930 . S
C502 C503 1.355 . S
C502 C504 1.415 . S
C503 C502 1.355 . S
C503 C505 1.419 . S
C504 C502 1.415 . S
C504 C509 1.425 . S
C504 C511 1.409 . S
C505 H497 0.930 . S
C505 C503 1.419 . S
C505 C506 1.362 . S
C506 H498 0.930 . S
C506 C505 1.362 . S
C506 C509 1.409 . S
C507 H499 0.930 . S
C507 C508 1.355 . S
C507 C509 1.415 . S
C508 C507 1.355 . S
C508 C510 1.419 . S
C509 C504 1.425 . S
C509 C506 1.409 . S
C509 C507 1.415 . S
C510 H500 0.930 . S
C510 C508 1.419 . S
C510 C511 1.362 . S
C511 H501 0.930 . S
C511 C504 1.409 . S
C511 C510 1.362 . S
H512 C518 0.930 . S
H513 C521 0.930 . S
H514 C522 0.930 . S
H515 C523 0.930 . S
H516 C526 0.930 . S
H517 C527 0.930 . S
C518 H512 0.930 . S
C518 C519 1.355 . S
C518 C520 1.415 . S
C519 C518 1.355 . S
C519 C521 1.419 . S
C520 C518 1.415 . S
C520 C525 1.425 1_554 S
C520 C527 1.409 1_554 S
C521 H513 0.930 . S
C521 C519 1.419 . S
C521 C522 1.362 . S
C522 H514 0.930 . S
C522 C521 1.362 . S
C522 C525 1.409 1_554 S
C523 H515 0.930 . S
C523 C524 1.355 . S
C523 C525 1.415 . S
C524 C523 1.355 . S
C524 C526 1.419 . S
C525 C520 1.425 1_556 S
C525 C522 1.409 1_556 S
C525 C523 1.415 . S
C526 H516 0.930 . S
C526 C524 1.419 . S
C526 C527 1.362 . S
C527 H517 0.930 . S
C527 C520 1.409 1_556 S
C527 C526 1.362 . S
H528 C534 0.930 . S
H529 C537 0.930 . S
H530 C538 0.930 . S
H531 C539 0.930 . S
H532 C542 0.930 . S
H533 C543 0.930 . S
C534 H528 0.930 . S
C534 C535 1.355 . S
C534 C536 1.415 . S
C535 C534 1.355 . S
C535 C537 1.419 . S
C536 C534 1.415 . S
C536 C541 1.425 . S
C536 C543 1.409 . S
C537 H529 0.930 . S
C537 C535 1.419 . S
C537 C538 1.362 . S
C538 H530 0.930 . S
C538 C537 1.362 . S
C538 C541 1.409 . S
C539 H531 0.930 . S
C539 C540 1.355 . S
C539 C541 1.415 . S
C540 C539 1.355 . S
C540 C542 1.419 . S
C541 C536 1.425 . S
C541 C538 1.409 . S
C541 C539 1.415 . S
C542 H532 0.930 . S
C542 C540 1.419 . S
C542 C543 1.362 . S
C543 H533 0.930 . S
C543 C536 1.409 . S
C543 C542 1.362 . S
H544 C550 0.930 . S
H545 C553 0.930 . S
H546 C554 0.930 . S
H547 C555 0.930 . S
H548 C558 0.930 . S
H549 C559 0.930 . S
C550 H544 0.930 . S
C550 C551 1.355 . S
C550 C552 1.415 . S
C551 C550 1.355 . S
C551 C553 1.419 . S
C552 C550 1.415 . S
C552 C557 1.425 . S
C552 C559 1.409 . S
C553 H545 0.930 . S
C553 C551 1.419 . S
C553 C554 1.362 . S
C554 H546 0.930 . S
C554 C553 1.362 . S
C554 C557 1.409 . S
C555 H547 0.930 . S
C555 C556 1.355 . S
C555 C557 1.415 . S
C556 C555 1.355 . S
C556 C558 1.419 . S
C557 C552 1.425 . S
C557 C554 1.409 . S
C557 C555 1.415 . S
C558 H548 0.930 . S
C558 C556 1.419 . S
C558 C559 1.362 . S
C559 H549 0.930 . S
C559 C552 1.409 . S
C559 C558 1.362 . S
H560 C566 0.930 . S
H561 C569 0.930 . S
H562 C570 0.930 . S
H563 C571 0.930 . S
H564 C574 0.930 . S
H565 C575 0.930 . S
C566 H560 0.930 . S
C566 C567 1.355 . S
C566 C568 1.415 . S
C567 C566 1.355 . S
C567 C569 1.419 . S
C568 C566 1.415 . S
C568 C573 1.425 1_556 S
C568 C575 1.409 1_556 S
C569 H561 0.930 . S
C569 C567 1.419 . S
C569 C570 1.362 . S
C570 H562 0.930 . S
C570 C569 1.362 . S
C570 C573 1.409 1_556 S
C571 H563 0.930 . S
C571 C572 1.355 . S
C571 C573 1.415 . S
C572 C571 1.355 . S
C572 C574 1.419 . S
C573 C568 1.425 1_554 S
C573 C570 1.409 1_554 S
C573 C571 1.415 . S
C574 H564 0.930 . S
C574 C572 1.419 . S
C574 C575 1.362 . S
C575 H565 0.930 . S
C575 C568 1.409 1_554 S
C575 C574 1.362 . S
H576 C582 0.930 . S
H577 C585 0.930 . S
H578 C586 0.930 . S
H579 C587 0.930 . S
H580 C590 0.930 . S
H581 C591 0.930 . S
C582 H576 0.930 . S
C582 C583 1.355 . S
C582 C584 1.415 . S
C583 C582 1.355 . S
C583 C585 1.419 . S
C584 C582 1.415 . S
C584 C589 1.425 . S
C584 C591 1.409 . S
C585 H577 0.930 . S
C585 C583 1.419 . S
C585 C586 1.362 . S
C586 H578 0.930 . S
C586 C585 1.362 . S
C586 C589 1.409 . S
C587 H579 0.930 . S
C587 C588 1.355 . S
C587 C589 1.415 . S
C588 C587 1.355 . S
C588 C590 1.419 . S
C589 C584 1.425 . S
C589 C586 1.409 . S
C589 C587 1.415 . S
C590 H580 0.930 . S
C590 C588 1.419 . S
C590 C591 1.362 . S
C591 H581 0.930 . S
C591 C584 1.409 . S
C591 C590 1.362 . S
H592 C598 0.930 . S
H593 C601 0.930 . S
H594 C602 0.930 . S
H595 C603 0.930 . S
H596 C606 0.930 . S
H597 C607 0.930 . S
C598 H592 0.930 . S
C598 C599 1.355 . S
C598 C600 1.415 . S
C599 C598 1.355 . S
C599 C601 1.419 . S
C600 C598 1.415 . S
C600 C605 1.425 1_554 S
C600 C607 1.409 1_554 S
C601 H593 0.930 . S
C601 C599 1.419 . S
C601 C602 1.362 . S
C602 H594 0.930 . S
C602 C601 1.362 . S
C602 C605 1.409 1_554 S
C603 H595 0.930 . S
C603 C604 1.355 . S
C603 C605 1.415 . S
C604 C603 1.355 . S
C604 C606 1.419 . S
C605 C600 1.425 1_556 S
C605 C602 1.409 1_556 S
C605 C603 1.415 . S
C606 H596 0.930 . S
C606 C604 1.419 . S
C606 C607 1.362 . S
C607 H597 0.930 . S
C607 C600 1.409 1_556 S
C607 C606 1.362 . S
H608 C614 0.930 . S
H609 C617 0.930 . S
H610 C618 0.930 . S
H611 C619 0.930 . S
H612 C622 0.930 . S
H613 C623 0.930 . S
C614 H608 0.930 . S
C614 C615 1.355 . S
C614 C616 1.415 . S
C615 C614 1.355 . S
C615 C617 1.419 . S
C616 C614 1.415 . S
C616 C621 1.425 . S
C616 C623 1.409 . S
C617 H609 0.930 . S
C617 C615 1.419 . S
C617 C618 1.362 . S
C618 H610 0.930 . S
C618 C617 1.362 . S
C618 C621 1.409 . S
C619 H611 0.930 . S
C619 C620 1.355 . S
C619 C621 1.415 . S
C620 C619 1.355 . S
C620 C622 1.419 . S
C621 C616 1.425 . S
C621 C618 1.409 . S
C621 C619 1.415 . S
C622 H612 0.930 . S
C622 C620 1.419 . S
C622 C623 1.362 . S
C623 H613 0.930 . S
C623 C616 1.409 . S
C623 C622 1.362 . S
H624 C630 0.930 . S
H625 C633 0.930 . S
H626 C634 0.930 . S
H627 C635 0.930 . S
H628 C638 0.930 . S
H629 C639 0.930 . S
C630 H624 0.930 . S
C630 C631 1.355 . S
C630 C632 1.415 . S
C631 C630 1.355 . S
C631 C633 1.419 . S
C632 C630 1.415 . S
C632 C637 1.425 . S
C632 C639 1.409 . S
C633 H625 0.930 . S
C633 C631 1.419 . S
C633 C634 1.362 . S
C634 H626 0.930 . S
C634 C633 1.362 . S
C634 C637 1.409 . S
C635 H627 0.930 . S
C635 C636 1.355 . S
C635 C637 1.415 . S
C636 C635 1.355 . S
C636 C638 1.419 . S
C637 C632 1.425 . S
C637 C634 1.409 . S
C637 C635 1.415 . S
C638 H628 0.930 . S
C638 C636 1.419 . S
C638 C639 1.362 . S
C639 H629 0.930 . S
C639 C632 1.409 . S
C639 C638 1.362 . S
H640 C646 0.930 . S
H641 C649 0.930 . S
H642 C650 0.930 . S
H643 C651 0.930 . S
H644 C654 0.930 . S
H645 C655 0.930 . S
C646 H640 0.930 . S
C646 C647 1.355 . S
C646 C648 1.415 . S
C647 C646 1.355 . S
C647 C649 1.419 . S
C648 C646 1.415 . S
C648 C653 1.425 . S
C648 C655 1.409 . S
C649 H641 0.930 . S
C649 C647 1.419 . S
C649 C650 1.362 . S
C650 H642 0.930 . S
C650 C649 1.362 . S
C650 C653 1.409 . S
C651 H643 0.930 . S
C651 C652 1.355 . S
C651 C653 1.415 . S
C652 C651 1.355 . S
C652 C654 1.419 . S
C653 C648 1.425 . S
C653 C650 1.409 . S
C653 C651 1.415 . S
C654 H644 0.930 . S
C654 C652 1.419 . S
C654 C655 1.362 . S
C655 H645 0.930 . S
C655 C648 1.409 . S
C655 C654 1.362 . S
H656 C662 0.930 . S
H657 C665 0.930 . S
H658 C666 0.930 . S
H659 C667 0.930 . S
H660 C670 0.930 . S
H661 C671 0.930 . S
C662 H656 0.930 . S
C662 C663 1.355 . S
C662 C664 1.415 . S
C663 C662 1.355 . S
C663 C665 1.419 . S
C664 C662 1.415 . S
C664 C669 1.425 . S
C664 C671 1.409 . S
C665 H657 0.930 . S
C665 C663 1.419 . S
C665 C666 1.362 . S
C666 H658 0.930 . S
C666 C665 1.362 . S
C666 C669 1.409 . S
C667 H659 0.930 . S
C667 C668 1.355 . S
C667 C669 1.415 . S
C668 C667 1.355 . S
C668 C670 1.419 . S
C669 C664 1.425 . S
C669 C666 1.409 . S
C669 C667 1.415 . S
C670 H660 0.930 . S
C670 C668 1.419 . S
C670 C671 1.362 . S
C671 H661 0.930 . S
C671 C664 1.409 . S
C671 C670 1.362 . S
H672 C678 0.930 . S
H673 C681 0.930 . S
H674 C682 0.930 . S
H675 C683 0.930 . S
H676 C686 0.930 . S
H677 C687 0.930 . S
C678 H672 0.930 . S
C678 C679 1.355 . S
C678 C680 1.415 . S
C679 C678 1.355 . S
C679 C681 1.419 . S
C680 C678 1.415 . S
C680 C685 1.425 . S
C680 C687 1.409 . S
C681 H673 0.930 . S
C681 C679 1.419 . S
C681 C682 1.362 . S
C682 H674 0.930 . S
C682 C681 1.362 . S
C682 C685 1.409 . S
C683 H675 0.930 . S
C683 C684 1.355 . S
C683 C685 1.415 . S
C684 C683 1.355 . S
C684 C686 1.419 . S
C685 C680 1.425 . S
C685 C682 1.409 . S
C685 C683 1.415 . S
C686 H676 0.930 . S
C686 C684 1.419 . S
C686 C687 1.362 . S
C687 H677 0.930 . S
C687 C680 1.409 . S
C687 C686 1.362 . S
H688 C694 0.930 . S
H689 C697 0.930 . S
H690 C698 0.930 . S
H691 C699 0.930 . S
H692 C702 0.930 . S
H693 C703 0.930 . S
C694 H688 0.930 . S
C694 C695 1.355 . S
C694 C696 1.415 . S
C695 C694 1.355 . S
C695 C697 1.419 . S
C696 C694 1.415 . S
C696 C701 1.425 . S
C696 C703 1.409 . S
C697 H689 0.930 . S
C697 C695 1.419 . S
C697 C698 1.362 . S
C698 H690 0.930 . S
C698 C697 1.362 . S
C698 C701 1.409 . S
C699 H691 0.930 . S
C699 C700 1.355 . S
C699 C701 1.415 . S
C700 C699 1.355 . S
C700 C702 1.419 . S
C701 C696 1.425 . S
C701 C698 1.409 . S
C701 C699 1.415 . S
C702 H692 0.930 . S
C702 C700 1.419 . S
C702 C703 1.362 . S
C703 H693 0.930 . S
C703 C696 1.409 . S
C703 C702 1.362 . S
H704 C710 0.930 . S
H705 C713 0.930 . S
H706 C714 0.930 . S
H707 C715 0.930 . S
H708 C718 0.930 . S
H709 C719 0.930 . S
C710 H704 0.930 . S
C710 C711 1.355 . S
C710 C712 1.415 . S
C711 C710 1.355 . S
C711 C713 1.419 . S
C712 C710 1.415 . S
C712 C717 1.425 . S
C712 C719 1.409 . S
C713 H705 0.930 . S
C713 C711 1.419 . S
C713 C714 1.362 . S
C714 H706 0.930 . S
C714 C713 1.362 . S
C714 C717 1.409 . S
C715 H707 0.930 . S
C715 C716 1.355 . S
C715 C717 1.415 . S
C716 C715 1.355 . S
C716 C718 1.419 . S
C717 C712 1.425 . S
C717 C714 1.409 . S
C717 C715 1.415 . S
C718 H708 0.930 . S
C718 C716 1.419 . S
C718 C719 1.362 . S
C719 H709 0.930 . S
C719 C712 1.409 . S
C719 C718 1.362 . S
H720 C726 0.930 . S
H721 C729 0.930 . S
H722 C730 0.930 . S
H723 C731 0.930 . S
H724 C734 0.930 . S
H725 C735 0.930 . S
C726 H720 0.930 . S
C726 C727 1.355 . S
C726 C728 1.415 . S
C727 C726 1.355 . S
C727 C729 1.419 . S
C728 C726 1.415 . S
C728 C733 1.425 . S
C728 C735 1.409 . S
C729 H721 0.930 . S
C729 C727 1.419 . S
C729 C730 1.362 . S
C730 H722 0.930 . S
C730 C729 1.362 . S
C730 C733 1.409 . S
C731 H723 0.930 . S
C731 C732 1.355 . S
C731 C733 1.415 . S
C732 C731 1.355 . S
C732 C734 1.419 . S
C733 C728 1.425 . S
C733 C730 1.409 . S
C733 C731 1.415 . S
C734 H724 0.930 . S
C734 C732 1.419 . S
C734 C735 1.362 . S
C735 H725 0.930 . S
C735 C728 1.409 . S
C735 C734 1.362 . S
C231 C9 1.331 . S
C236 C37 1.327 . S
C247 C51 1.322 . S
C252 C23 1.331 . S
C263 C65 1.301 . S
C268 C93 1.274 . S
C279 C107 1.329 . S
C284 C79 1.329 . S
C295 C121 1.227 . S
C300 C149 1.243 . S
C311 C163 1.245 . S
C316 C135 1.270 . S
C327 C177 1.331 . S
C332 C205 1.324 . S
C343 C219 1.270 . S
C348 C191 1.298 . S
C359 C63 1.496 . S
C364 C7 1.478 . S
C375 C21 1.484 . S
C380 C77 1.497 . S
C391 C35 1.489 . S
C396 C91 1.494 . S
C407 C105 1.477 . S
C412 C49 1.491 . S
C423 C119 1.497 . S
C428 C175 1.484 . S
C439 C133 1.477 . S
C444 C189 1.492 . S
C455 C147 1.481 . S
C460 C203 1.483 . S
C471 C161 1.497 . S
C476 C217 1.485 . S
C487 C148 1.251 . S
C492 C8 1.170 . S
C503 C162 1.169 . S
C508 C22 1.252 . S
C519 C36 1.257 . S
C524 C120 1.164 . S
C535 C50 1.170 . S
C540 C134 1.251 . S
C551 C64 1.165 . S
C556 C204 1.255 . S
C567 C78 1.241 . S
C572 C218 1.180 . S
C583 C92 1.240 . S
C588 C176 1.182 . S
C599 C190 1.209 . S
C604 C106 1.213 . S
C615 C6 1.424 . S
C620 C216 1.441 . S
C631 C174 1.422 . S
C636 C20 1.443 . S
C647 C34 1.429 . S
C652 C188 1.436 . S
C663 C202 1.441 . S
C668 C48 1.424 . S
C679 C132 1.417 . S
C684 C62 1.448 . S
C695 C76 1.443 . S
C700 C146 1.422 . S
C711 C160 1.419 . S
C716 C90 1.447 . S
C727 C118 1.419 . S
C732 C104 1.447 . S
