# Generated by pormake.
# Topology why, (6)-cn, num edge types: 1
# Building blocks:
#     Node 0, Type 0, BuildingBlock: BETFAJ_clean_sbu_0, # of connection points: 6
#     Node 1, Type 0, BuildingBlock: BETFAJ_clean_sbu_0, # of connection points: 6
#     Node 2, Type 0, BuildingBlock: BETFAJ_clean_sbu_0, # of connection points: 6
#     Node 3, Type 0, BuildingBlock: BETFAJ_clean_sbu_0, # of connection points: 6
#     Node 4, Type 0, BuildingBlock: BETFAJ_clean_sbu_0, # of connection points: 6
#     Node 5, Type 0, BuildingBlock: BETFAJ_clean_sbu_0, # of connection points: 6
#     Node 6, Type 0, BuildingBlock: BETFAJ_clean_sbu_0, # of connection points: 6
#     Node 7, Type 0, BuildingBlock: BETFAJ_clean_sbu_0, # of connection points: 6
#     Node 8, Type 0, BuildingBlock: BETFAJ_clean_sbu_0, # of connection points: 6
#     Node 9, Type 0, BuildingBlock: BETFAJ_clean_sbu_0, # of connection points: 6
#     Node 10, Type 0, BuildingBlock: BETFAJ_clean_sbu_0, # of connection points: 6
#     Node 11, Type 0, BuildingBlock: BETFAJ_clean_sbu_0, # of connection points: 6
#     Node 12, Type 0, BuildingBlock: BETFAJ_clean_sbu_0, # of connection points: 6
#     Node 13, Type 0, BuildingBlock: BETFAJ_clean_sbu_0, # of connection points: 6
#     Node 14, Type 0, BuildingBlock: BETFAJ_clean_sbu_0, # of connection points: 6
#     Node 15, Type 0, BuildingBlock: BETFAJ_clean_sbu_0, # of connection points: 6
#     Edge 16, Type (0, 0), BuildingBlock: TEMPAE_clean_linker_10, # of connection points: 2
#     Edge 17, Type (0, 0), BuildingBlock: TEMPAE_clean_linker_10, # of connection points: 2
#     Edge 18, Type (0, 0), BuildingBlock: TEMPAE_clean_linker_10, # of connection points: 2
#     Edge 19, Type (0, 0), BuildingBlock: TEMPAE_clean_linker_10, # of connection points: 2
#     Edge 20, Type (0, 0), BuildingBlock: TEMPAE_clean_linker_10, # of connection points: 2
#     Edge 21, Type (0, 0), BuildingBlock: TEMPAE_clean_linker_10, # of connection points: 2
#     Edge 22, Type (0, 0), BuildingBlock: TEMPAE_clean_linker_10, # of connection points: 2
#     Edge 23, Type (0, 0), BuildingBlock: TEMPAE_clean_linker_10, # of connection points: 2
#     Edge 24, Type (0, 0), BuildingBlock: TEMPAE_clean_linker_10, # of connection points: 2
#     Edge 25, Type (0, 0), BuildingBlock: TEMPAE_clean_linker_10, # of connection points: 2
#     Edge 26, Type (0, 0), BuildingBlock: TEMPAE_clean_linker_10, # of connection points: 2
#     Edge 27, Type (0, 0), BuildingBlock: TEMPAE_clean_linker_10, # of connection points: 2
#     Edge 28, Type (0, 0), BuildingBlock: TEMPAE_clean_linker_10, # of connection points: 2
#     Edge 29, Type (0, 0), BuildingBlock: TEMPAE_clean_linker_10, # of connection points: 2
#     Edge 30, Type (0, 0), BuildingBlock: TEMPAE_clean_linker_10, # of connection points: 2
#     Edge 31, Type (0, 0), BuildingBlock: TEMPAE_clean_linker_10, # of connection points: 2
#     Edge 32, Type (0, 0), BuildingBlock: TEMPAE_clean_linker_10, # of connection points: 2
#     Edge 33, Type (0, 0), BuildingBlock: TEMPAE_clean_linker_10, # of connection points: 2
#     Edge 34, Type (0, 0), BuildingBlock: TEMPAE_clean_linker_10, # of connection points: 2
#     Edge 35, Type (0, 0), BuildingBlock: TEMPAE_clean_linker_10, # of connection points: 2
#     Edge 36, Type (0, 0), BuildingBlock: TEMPAE_clean_linker_10, # of connection points: 2
#     Edge 37, Type (0, 0), BuildingBlock: TEMPAE_clean_linker_10, # of connection points: 2
#     Edge 38, Type (0, 0), BuildingBlock: TEMPAE_clean_linker_10, # of connection points: 2
#     Edge 39, Type (0, 0), BuildingBlock: TEMPAE_clean_linker_10, # of connection points: 2
#     Edge 40, Type (0, 0), BuildingBlock: TEMPAE_clean_linker_10, # of connection points: 2
#     Edge 41, Type (0, 0), BuildingBlock: TEMPAE_clean_linker_10, # of connection points: 2
#     Edge 42, Type (0, 0), BuildingBlock: TEMPAE_clean_linker_10, # of connection points: 2
#     Edge 43, Type (0, 0), BuildingBlock: TEMPAE_clean_linker_10, # of connection points: 2
#     Edge 44, Type (0, 0), BuildingBlock: TEMPAE_clean_linker_10, # of connection points: 2
#     Edge 45, Type (0, 0), BuildingBlock: TEMPAE_clean_linker_10, # of connection points: 2
#     Edge 46, Type (0, 0), BuildingBlock: TEMPAE_clean_linker_10, # of connection points: 2
#     Edge 47, Type (0, 0), BuildingBlock: TEMPAE_clean_linker_10, # of connection points: 2
#     Edge 48, Type (0, 0), BuildingBlock: TEMPAE_clean_linker_10, # of connection points: 2
#     Edge 49, Type (0, 0), BuildingBlock: TEMPAE_clean_linker_10, # of connection points: 2
#     Edge 50, Type (0, 0), BuildingBlock: TEMPAE_clean_linker_10, # of connection points: 2
#     Edge 51, Type (0, 0), BuildingBlock: TEMPAE_clean_linker_10, # of connection points: 2
#     Edge 52, Type (0, 0), BuildingBlock: TEMPAE_clean_linker_10, # of connection points: 2
#     Edge 53, Type (0, 0), BuildingBlock: TEMPAE_clean_linker_10, # of connection points: 2
#     Edge 54, Type (0, 0), BuildingBlock: TEMPAE_clean_linker_10, # of connection points: 2
#     Edge 55, Type (0, 0), BuildingBlock: TEMPAE_clean_linker_10, # of connection points: 2
#     Edge 56, Type (0, 0), BuildingBlock: TEMPAE_clean_linker_10, # of connection points: 2
#     Edge 57, Type (0, 0), BuildingBlock: TEMPAE_clean_linker_10, # of connection points: 2
#     Edge 58, Type (0, 0), BuildingBlock: TEMPAE_clean_linker_10, # of connection points: 2
#     Edge 59, Type (0, 0), BuildingBlock: TEMPAE_clean_linker_10, # of connection points: 2
#     Edge 60, Type (0, 0), BuildingBlock: TEMPAE_clean_linker_10, # of connection points: 2
#     Edge 61, Type (0, 0), BuildingBlock: TEMPAE_clean_linker_10, # of connection points: 2
#     Edge 62, Type (0, 0), BuildingBlock: TEMPAE_clean_linker_10, # of connection points: 2
#     Edge 63, Type (0, 0), BuildingBlock: TEMPAE_clean_linker_10, # of connection points: 2
# Relax obj value: 0.420
# Max RMSD: 0.230
# Mean RMSD: 0.230
data_MOF--net-why--node1-BETFAJ_clean_sbu_0--edge1-TEMPAE_clean_linker_10
_symmetry_space_group_name_H-M    P1
_symmetry_Int_Tables_number       1
_symmetry_cell_setting            triclinic
loop_
_symmetry_equiv_pos_as_xyz
'x, y, z'
_cell_length_a     46.986175
_cell_length_b     47.385113
_cell_length_c     40.521209
_cell_angle_alpha  90.058923
_cell_angle_beta   89.9824
_cell_angle_gamma 89.917469
loop_
_atom_site_label
_atom_site_type_symbol
_atom_site_fract_x
_atom_site_fract_y
_atom_site_fract_z
_atom_type_partial_charge
Sm0 Sm 0.53125 0.25415 0.03714 0.0
Sm1 Sm 0.49794 0.2852 0.08215 0.0
C2 C 0.55623 0.227 -0.0122 0.0
C3 C 0.57129 0.23426 0.95717 0.0
C4 C 0.59168 0.25593 0.95633 0.0
C5 C 0.60664 0.26155 0.92726 0.0
C6 C 0.60111 0.24588 0.89853 0.0
C7 C 0.58011 0.22481 0.89922 0.0
C8 C 0.56541 0.21899 0.92836 0.0
C9 C 0.52455 0.22531 0.09752 0.0
C10 C 0.5645 0.3089 0.06989 0.0
C11 C 0.48024 0.29841 0.14191 0.0
C12 C 0.47054 0.28287 0.17139 0.0
C13 C 0.48939 0.26592 0.18984 0.0
C14 C 0.48163 0.2562 0.22113 0.0
C15 C 0.45492 0.2632 0.23441 0.0
C16 C 0.43499 0.2771 0.21406 0.0
C17 C 0.44285 0.28709 0.18306 0.0
C18 C 0.49903 0.31325 0.02378 0.0
C19 C 0.46108 0.25826 0.02283 0.0
O20 O 0.52898 0.23235 -0.01148 0.0
O21 O 0.56904 0.23314 0.01548 0.0
O22 O 0.50522 0.23776 0.08139 0.0
O23 O 0.54839 0.22867 0.08217 0.0
O24 O 0.56515 0.28995 0.04576 0.0
O25 O 0.54135 0.31011 0.08871 0.0
O26 O 0.50706 0.29555 0.13409 0.0
O27 O 0.46334 0.29901 0.11625 0.0
O28 O 0.51992 0.3001 0.03595 0.0
O29 O 0.47815 0.31573 0.04476 0.0
O30 O 0.4588 0.26882 0.05297 0.0
O31 O 0.48657 0.25162 0.01106 0.0
H32 H 0.59629 0.2683 -0.02182 0.0
H33 H 0.62253 0.27809 0.92722 0.0
H34 H 0.57563 0.21229 0.87746 0.0
H35 H 0.54968 0.20228 0.92851 0.0
H36 H 0.51075 0.26162 0.18111 0.0
H37 H 0.49728 0.24515 0.23592 0.0
H38 H 0.41415 0.2829 0.22324 0.0
H39 H 0.42782 0.29973 0.16916 0.0
Sm40 Sm 0.77485 0.7821 0.28444 0.0
Sm41 Sm 0.73921 0.75336 0.3276 0.0
C42 C 0.80131 0.81697 0.24344 0.0
C43 C 0.7941 0.83137 0.2125 0.0
C44 C 0.77091 0.82244 0.19335 0.0
C45 C 0.76495 0.83554 0.16322 0.0
C46 C 0.78205 0.85788 0.15185 0.0
C47 C 0.80487 0.8671 0.17163 0.0
C48 C 0.81086 0.8539 0.20164 0.0
C49 C 0.80429 0.76595 0.34181 0.0
C50 C 0.72205 0.81817 0.32044 0.0
C51 C 0.72068 0.71874 0.37387 0.0
C52 C 0.70332 0.69314 0.37477 0.0
C53 C 0.68451 0.68958 0.40109 0.0
C54 C 0.66578 0.6669 0.4014 0.0
C55 C 0.66573 0.64703 0.37552 0.0
C56 C 0.68471 0.6506 0.34904 0.0
C57 C 0.70337 0.67361 0.34862 0.0
C58 C 0.70925 0.76702 0.27185 0.0
C59 C 0.76688 0.71542 0.26518 0.0
O60 O 0.80332 0.78955 0.24173 0.0
O61 O 0.78786 0.82551 0.26981 0.0
O62 O 0.77988 0.77746 0.341 0.0
O63 O 0.81297 0.76182 0.31201 0.0
O64 O 0.73861 0.81592 0.29404 0.0
O65 O 0.72273 0.79767 0.34245 0.0
O66 O 0.74607 0.71672 0.36083 0.0
O67 O 0.70711 0.74154 0.36506 0.0
O68 O 0.73472 0.75883 0.27243 0.0
O69 O 0.69765 0.76536 0.30083 0.0
O70 O 0.75286 0.71484 0.29366 0.0
O71 O 0.77643 0.74 0.25432 0.0
H72 H 0.75767 0.80511 0.2015 0.0
H73 H 0.74736 0.82776 0.14854 0.0
H74 H 0.8181 0.8846 0.16395 0.0
H75 H 0.82872 0.86115 0.21626 0.0
H76 H 0.68381 0.70477 0.4211 0.0
H77 H 0.65088 0.66532 0.42171 0.0
H78 H 0.68515 0.63568 0.32878 0.0
H79 H 0.7175 0.67634 0.32775 0.0
Sm80 Sm 0.24038 1.02845 0.53345 0.0
Sm81 Sm 0.27514 0.99503 0.57372 0.0
C82 C 0.20156 1.05331 0.49587 0.0
C83 C 0.18422 1.04574 0.46721 0.0
C84 C 0.18632 1.01883 0.45297 0.0
C85 C 0.17077 1.01234 0.42457 0.0
C86 C 0.15271 1.03263 0.41027 0.0
C87 C 0.1502 1.05932 0.42521 0.0
C88 C 0.16592 1.06584 0.45342 0.0
C89 C 0.25948 1.05994 0.58808 0.0
C90 C 0.20997 0.97245 0.56922 0.0
C91 C 0.30889 0.97276 0.61851 0.0
C92 C 0.31013 0.94378 0.63149 0.0
C93 C 0.30548 0.93897 0.66517 0.0
C94 C 0.3051 0.91149 0.6775 0.0
C95 C 0.30973 0.88831 0.65641 0.0
C96 C 0.31382 0.89315 0.62257 0.0
C97 C 0.31389 0.9206 0.61019 0.0
C98 C 0.25892 0.9644 0.51924 0.0
C99 C 0.30715 1.02605 0.51135 0.0
O100 O 0.2289 1.05525 0.4906 0.0
O101 O 0.19549 1.04029 0.52336 0.0
O102 O 0.25048 1.03466 0.58908 0.0
O103 O 0.25887 1.06851 0.5579 0.0
O104 O 0.20824 0.99168 0.54559 0.0
O105 O 0.23331 0.97138 0.58739 0.0
O106 O 0.31655 0.97616 0.58777 0.0
O107 O 0.2861 0.98716 0.62627 0.0
O108 O 0.26548 0.99014 0.51913 0.0
O109 O 0.2631 0.9533 0.54807 0.0
O110 O 0.31041 1.01822 0.54255 0.0
O111 O 0.28087 1.02867 0.49983 0.0
H112 H 0.20016 1.00301 0.46364 0.0
H113 H 0.17295 0.99154 0.41372 0.0
H114 H 0.13674 1.07547 0.41449 0.0
H115 H 0.16412 1.08671 0.46419 0.0
H116 H 0.30199 0.95648 0.68192 0.0
H117 H 0.3015 0.90841 0.70365 0.0
H118 H 0.31783 0.87581 0.60577 0.0
H119 H 0.31703 0.92359 0.58395 0.0
Sm120 Sm 1.0009 0.49467 0.7807 0.0
Sm121 Sm 1.03399 0.52867 0.82469 0.0
C122 C 0.97757 0.45836 0.73891 0.0
C123 C 0.98462 0.44517 0.70724 0.0
C124 C 1.00903 0.45311 0.68961 0.0
C125 C 1.01499 0.4408 0.65897 0.0
C126 C 0.99659 0.42034 0.64564 0.0
C127 C 0.97245 0.41219 0.66385 0.0
C128 C 0.9665 0.42456 0.69433 0.0
C129 C 0.96886 0.5111 0.83616 0.0
C130 C 1.05578 0.46351 0.8192 0.0
C131 C 1.05202 0.55882 0.87504 0.0
C132 C 1.07419 0.55286 0.89955 0.0
C133 C 1.06852 0.55729 0.93306 0.0
C134 C 1.08907 0.5508 0.95672 0.0
C135 C 1.11581 0.54009 0.94717 0.0
C136 C 1.12096 0.53459 0.91362 0.0
C137 C 1.10026 0.54076 0.89003 0.0
C138 C 1.06523 0.5134 0.77035 0.0
C139 C 1.00439 0.56193 0.76182 0.0
O140 O 0.97266 0.48548 0.7382 0.0
O141 O 0.993 0.45067 0.76416 0.0
O142 O 0.99448 0.50247 0.83651 0.0
O143 O 0.95972 0.5105 0.80616 0.0
O144 O 1.0373 0.46238 0.79447 0.0
O145 O 1.05634 0.48625 0.83822 0.0
O146 O 1.06057 0.56329 0.84476 0.0
O147 O 1.02971 0.54248 0.87675 0.0
O148 O 1.03945 0.52061 0.77024 0.0
O149 O 1.07636 0.51623 0.79954 0.0
O150 O 1.0118 0.56467 0.79333 0.0
O151 O 1.00236 0.53611 0.74934 0.0
H152 H 1.02329 0.46894 0.69944 0.0
H153 H 1.03367 0.44763 0.64551 0.0
H154 H 0.95817 0.39608 0.65461 0.0
H155 H 0.94768 0.41809 0.70779 0.0
H156 H 1.04821 0.56585 0.94092 0.0
H157 H 1.08428 0.5548 -0.01755 0.0
H158 H 0.14138 0.52662 0.9054 0.0
H159 H 1.10482 0.53638 0.86431 0.0
Sm160 Sm 0.77503 0.99139 0.88107 0.0
Sm161 Sm 0.74131 1.02459 0.92242 0.0
C162 C 0.81079 0.97861 0.83301 0.0
C163 C 0.83208 0.99461 0.81375 0.0
C164 C 0.82387 1.01104 0.78648 0.0
C165 C 0.84423 1.02464 0.76712 0.0
C166 C 0.8734 1.02107 0.77368 0.0
C167 C 0.88144 1.00594 0.80216 0.0
C168 C 0.86102 0.99292 0.82194 0.0
C169 C 0.76135 0.96062 0.93632 0.0
C170 C 0.80817 1.02223 0.94356 0.0
C171 C 0.70319 1.04965 0.96059 0.0
C172 C 0.68718 1.04358 -0.00919 0.0
C173 C 0.7004 1.03125 0.01833 0.0
C174 C 0.68501 1.02691 0.04733 0.0
C175 C 0.65609 1.03451 0.04915 0.0
C176 C 0.64276 1.04594 0.0211 0.0
C177 C 0.65824 1.05054 -0.00776 0.0
C178 C 0.75869 1.05599 0.86721 0.0
C179 C 0.71049 0.96783 0.88803 0.0
O180 O 0.78408 0.98498 0.82796 0.0
O181 O 0.81653 0.97408 0.86412 0.0
O182 O 0.76717 0.98655 0.93594 0.0
O183 O 0.76499 0.94931 0.90733 0.0
O184 O 0.81092 1.01401 0.91237 0.0
O185 O 0.78206 1.02506 0.95548 0.0
O186 O 0.7306 1.05332 0.96369 0.0
O187 O 0.69634 1.03489 0.93456 0.0
O188 O 0.74953 1.03075 0.86669 0.0
O189 O 0.75938 1.06456 0.89739 0.0
O190 O 0.70911 0.98759 0.91119 0.0
O191 O 0.73356 0.96633 0.86936 0.0
H192 H 0.80178 1.01246 0.77916 0.0
H193 H 0.83718 1.03636 0.7457 0.0
H194 H 0.90361 1.00214 0.80791 0.0
H195 H 0.86805 0.98044 0.84279 0.0
H196 H 0.7227 1.02541 0.01764 0.0
H197 H 0.696 1.01832 0.06856 0.0
H198 H 0.6204 1.05148 0.02149 0.0
H199 H 0.64766 1.05979 0.97109 0.0
Sm200 Sm 0.53227 0.52382 0.63196 0.0
Sm201 Sm 0.49857 0.49416 0.67563 0.0
C202 C 0.54183 0.55814 0.58196 0.0
C203 C 0.53687 0.55748 0.54634 0.0
C204 C 0.53053 0.53219 0.52981 0.0
C205 C 0.52751 0.53195 0.49542 0.0
C206 C 0.53066 0.55706 0.47725 0.0
C207 C 0.53521 0.58253 0.49457 0.0
C208 C 0.53831 0.58267 0.5287 0.0
C209 C 0.56433 0.51223 0.6867 0.0
C210 C 0.50523 0.5608 0.69559 0.0
C211 C 0.47306 0.4581 0.71601 0.0
C212 C 0.47982 0.44196 0.74624 0.0
C213 C 0.47565 0.45417 0.7775 0.0
C214 C 0.48121 0.43878 0.80609 0.0
C215 C 0.49094 0.41077 0.80415 0.0
C216 C 0.49512 0.39851 0.77293 0.0
C217 C 0.48958 0.41394 0.74424 0.0
C218 C 0.4682 0.50935 0.61878 0.0
C219 C 0.55247 0.45991 0.63897 0.0
O220 O 0.56111 0.5408 0.59346 0.0
O221 O 0.51888 0.55932 0.6001 0.0
O222 O 0.53826 0.51859 0.68702 0.0
O223 O 0.57515 0.5146 0.65726 0.0
O224 O 0.51964 0.56162 0.66739 0.0
O225 O 0.4955 0.53616 0.70598 0.0
O226 O 0.4712 0.48547 0.71896 0.0
O227 O 0.48562 0.45042 0.68868 0.0
O228 O 0.49265 0.49801 0.6195 0.0
O229 O 0.45992 0.51417 0.64858 0.0
O230 O 0.53594 0.46165 0.6655 0.0
O231 O 0.55124 0.4805 0.61705 0.0
H232 H 0.52872 0.51258 0.54339 0.0
H233 H 0.52381 0.51205 0.483 0.0
H234 H 0.53837 0.6023 0.48174 0.0
H235 H 0.54279 0.6024 0.54121 0.0
H236 H 0.46778 0.47557 0.77996 0.0
H237 H 0.47726 0.44865 0.82978 0.0
H238 H 0.50274 0.37701 0.77067 0.0
H239 H 0.49278 0.40386 0.72052 0.0
Sm240 Sm 0.99705 0.2786 0.38109 0.0
Sm241 Sm 1.03139 0.24715 0.42462 0.0
C242 C 0.96133 0.28966 0.33244 0.0
C243 C 0.93907 0.27411 0.31419 0.0
C244 C 0.94618 0.25439 0.28954 0.0
C245 C 0.92507 0.24242 0.26973 0.0
C246 C 0.89647 0.25055 0.27354 0.0
C247 C 0.88927 0.26857 0.29999 0.0
C248 C 0.91033 0.28024 0.31999 0.0
C249 C 1.01077 0.31122 0.43472 0.0
C250 C 0.96427 0.24922 0.44493 0.0
C251 C 1.06902 0.22474 0.46564 0.0
C252 C 1.08245 0.23292 0.49674 0.0
C253 C 1.07423 0.25771 0.51317 0.0
C254 C 1.0865 0.26471 0.54351 0.0
C255 C 1.10712 0.24694 0.55774 0.0
C256 C 1.11561 0.22244 0.54071 0.0
C257 C 1.10331 0.21547 0.51048 0.0
C258 C 1.01523 0.21409 0.37008 0.0
C259 C 1.06163 0.30271 0.38701 0.0
O260 O 0.98766 0.28172 0.3277 0.0
O261 O 0.95594 0.2961 0.36319 0.0
O262 O 1.00481 0.28532 0.43558 0.0
O263 O 1.00719 0.32156 0.40526 0.0
O264 O 0.96147 0.25643 0.4134 0.0
O265 O 0.99035 0.24727 0.45711 0.0
O266 O 1.04176 0.21964 0.46714 0.0
O267 O 1.07617 0.23949 0.43974 0.0
O268 O 1.02373 0.23952 0.369 0.0
O269 O 1.01492 0.20599 0.40044 0.0
O270 O 1.06329 0.28375 0.41099 0.0
O271 O 1.03845 0.30351 0.36843 0.0
H272 H 0.96812 0.24926 0.2843 0.0
H273 H 0.9314 0.2284 0.24991 0.0
H274 H 0.86761 0.27575 0.30362 0.0
H275 H 0.90419 0.29529 0.33885 0.0
H276 H 1.05813 0.27141 0.50269 0.0
H277 H 1.07944 0.28363 0.55613 0.0
H278 H 1.13182 0.20863 0.55076 0.0
H279 H 1.10995 0.19635 0.49793 0.0
Sm280 Sm 0.23819 0.74427 0.13214 0.0
Sm281 Sm 0.27258 0.77731 0.17591 0.0
C282 C 0.22666 0.70663 0.08617 0.0
C283 C 0.23446 0.67656 0.08222 0.0
C284 C 0.25914 0.66868 0.0648 0.0
C285 C 0.26548 0.64021 0.05945 0.0
C286 C 0.24707 0.61904 0.071 0.0
C287 C 0.22346 0.62703 0.09034 0.0
C288 C 0.21719 0.6554 0.09576 0.0
C289 C 0.2081 0.75856 0.18735 0.0
C290 C 0.26884 0.70995 0.19466 0.0
C291 C 0.29587 0.81362 0.21753 0.0
C292 C 0.28814 0.8279 0.2485 0.0
C293 C 0.26221 0.84242 0.25208 0.0
C294 C 0.25586 0.85635 0.28162 0.0
C295 C 0.2752 0.85577 0.30812 0.0
C296 C 0.30068 0.84042 0.30465 0.0
C297 C 0.30713 0.82679 0.27508 0.0
C298 C 0.30322 0.76153 0.11934 0.0
C299 C 0.21705 0.80887 0.13821 0.0
O300 O 0.24735 0.72489 0.08347 0.0
O301 O 0.2089 0.71285 0.10995 0.0
O302 O 0.23402 0.75163 0.18686 0.0
O303 O 0.1962 0.75543 0.15853 0.0
O304 O 0.25797 0.70789 0.16454 0.0
O305 O 0.27434 0.73543 0.20664 0.0
O306 O 0.29981 0.7864 0.21939 0.0
O307 O 0.28238 0.82129 0.19078 0.0
O308 O 0.27769 0.77051 0.1199 0.0
O309 O 0.313 0.76149 0.14907 0.0
O310 O 0.23532 0.80911 0.16327 0.0
O311 O 0.21659 0.7868 0.11807 0.0
H312 H 0.27309 0.68448 0.05433 0.0
H313 H 0.28393 0.63484 0.04468 0.0
H314 H 0.20843 0.61151 0.09926 0.0
H315 H 0.19815 0.66069 0.10953 0.0
H316 H 0.24701 0.84328 0.23201 0.0
H317 H 0.23612 0.86808 0.28339 0.0
H318 H 0.31573 0.83896 0.32481 0.0
H319 H 0.32707 0.81541 0.27293 0.0
Sm320 Sm 1.03074 0.75384 0.53597 0.0
Sm321 Sm 0.99851 0.78765 0.57719 0.0
C322 C 1.06663 0.72704 0.4964 0.0
C323 C 1.08197 0.73348 0.46576 0.0
C324 C 1.09274 0.76059 0.45954 0.0
C325 C 1.10686 0.7663 0.42992 0.0
C326 C 1.11016 0.74507 0.4059 0.0
C327 C 1.09887 0.71809 0.41217 0.0
C328 C 1.08503 0.71236 0.44187 0.0
C329 C 1.0115 0.72323 0.59119 0.0
C330 C 1.06412 0.80832 0.57118 0.0
C331 C 0.96667 0.81064 0.62337 0.0
C332 C 0.96732 0.83943 0.63705 0.0
C333 C 0.97399 0.84355 0.67042 0.0
C334 C 0.97603 0.87079 0.6833 0.0
C335 C 0.97108 0.89444 0.66311 0.0
C336 C 0.96513 0.89028 0.6295 0.0
C337 C 0.96338 0.86307 0.61656 0.0
C338 C 1.01453 0.81872 0.52299 0.0
C339 C 0.96445 0.75877 0.51509 0.0
O340 O 1.03904 0.72501 0.49378 0.0
O341 O 1.07463 0.74056 0.52294 0.0
O342 O 1.02271 0.74755 0.5918 0.0
O343 O 1.00884 0.71535 0.56088 0.0
O344 O 1.06473 0.78922 0.54728 0.0
O345 O 1.04125 0.80986 0.59008 0.0
O346 O 0.95827 0.80814 0.59277 0.0
O347 O 0.98875 0.79489 0.63019 0.0
O348 O 1.00711 0.79322 0.52238 0.0
O349 O 1.01132 0.82941 0.55222 0.0
O350 O 0.96189 0.76515 0.54685 0.0
O351 O 0.99045 0.75699 0.50275 0.0
H352 H 1.09027 0.77734 0.47755 0.0
H353 H 1.11546 0.78723 0.42604 0.0
H354 H 1.1004 0.70142 0.39395 0.0
H355 H 1.07649 0.69143 0.44608 0.0
H356 H 0.97766 0.82567 0.68653 0.0
H357 H 0.98098 0.87334 0.70924 0.0
H358 H 0.96077 0.90801 0.61341 0.0
H359 H 0.95872 0.86064 0.59054 0.0
Sm360 Sm 0.27421 0.28231 0.78821 0.0
Sm361 Sm 0.23848 0.25151 0.82896 0.0
C362 C 0.29976 0.31887 0.74864 0.0
C363 C 0.29225 0.33265 0.71751 0.0
C364 C 0.26851 0.32363 0.69936 0.0
C365 C 0.26221 0.33595 0.66891 0.0
C366 C 0.27953 0.35759 0.65626 0.0
C367 C 0.30287 0.36699 0.67508 0.0
C368 C 0.30921 0.35454 0.70541 0.0
C369 C 0.30405 0.26566 0.84527 0.0
C370 C 0.21951 0.31623 0.82353 0.0
C371 C 0.21801 0.21414 0.87088 0.0
C372 C 0.1969 0.19162 0.86654 0.0
C373 C 0.20092 0.16544 0.88179 0.0
C374 C 0.17993 0.14469 0.87951 0.0
C375 C 0.15439 0.15 0.86235 0.0
C376 C 0.15134 0.17563 0.84531 0.0
C377 C 0.17249 0.19617 0.84721 0.0
C378 C 0.2093 0.26606 0.77272 0.0
C379 C 0.2677 0.2159 0.76601 0.0
O380 O 0.30365 0.29165 0.74694 0.0
O381 O 0.28497 0.32645 0.77445 0.0
O382 O 0.27873 0.27525 0.84485 0.0
O383 O 0.31352 0.26467 0.81544 0.0
O384 O 0.23748 0.31539 0.79831 0.0
O385 O 0.21926 0.29472 0.84424 0.0
O386 O 0.24226 0.2106 0.8557 0.0
O387 O 0.20831 0.23988 0.86857 0.0
O388 O 0.23495 0.25856 0.77388 0.0
O389 O 0.19722 0.26332 0.8013 0.0
O390 O 0.2535 0.21428 0.79423 0.0
O391 O 0.27694 0.24097 0.75631 0.0
H392 H 0.25515 0.30678 0.70855 0.0
H393 H 0.24422 0.32809 0.65497 0.0
H394 H 0.31628 0.38399 0.66635 0.0
H395 H 0.32748 0.36185 0.71929 0.0
H396 H 0.21992 0.16133 0.89616 0.0
H397 H 0.18319 1.12489 0.89232 0.0
H398 H 1.13194 0.18054 0.83208 0.0
H399 H 0.16923 0.21602 0.83452 0.0
Sm400 Sm 0.74471 0.52673 0.03358 0.0
Sm401 Sm 0.77788 0.49284 0.07474 0.0
C402 C 0.70783 0.55175 -0.0064 0.0
C403 C 0.69444 0.54494 0.962 0.0
C404 C 0.67468 0.56361 0.94825 0.0
C405 C 0.66261 0.55782 0.91752 0.0
C406 C 0.67032 0.53332 0.89994 0.0
C407 C 0.68994 0.51444 0.91414 0.0
C408 C 0.70182 0.5202 0.94501 0.0
C409 C 0.76196 0.55786 0.08936 0.0
C410 C 0.71256 0.47123 0.0688 0.0
C411 C 0.8105 0.47015 0.12041 0.0
C412 C 0.8115 0.44106 0.13301 0.0
C413 C 0.80723 0.436 0.16669 0.0
C414 C 0.80683 0.40842 0.17871 0.0
C415 C 0.81103 0.38539 0.15727 0.0
C416 C 0.81466 0.39049 0.12341 0.0
C417 C 0.81475 0.41805 0.11136 0.0
C418 C 0.76271 0.46255 0.01961 0.0
C419 C 0.8119 0.52354 0.01335 0.0
O420 O 0.70019 0.53629 0.01873 0.0
O421 O 0.73522 0.55612 -0.00749 0.0
O422 O 0.75303 0.53254 0.08969 0.0
O423 O 0.76206 0.56669 0.05929 0.0
O424 O 0.71141 0.49075 0.0454 0.0
O425 O 0.73572 0.46947 0.08715 0.0
O426 O 0.81891 0.47386 0.09 0.0
O427 O 0.78748 0.48442 0.12755 0.0
O428 O 0.76975 0.48819 0.01977 0.0
O429 O 0.76554 0.45144 0.04867 0.0
O430 O 0.81443 0.5146 0.04423 0.0
O431 O 0.78597 0.52727 0.00129 0.0
H432 H 0.66868 0.58273 0.96121 0.0
H433 H 0.64712 0.57248 0.90761 0.0
H434 H 0.69647 0.4955 0.90119 0.0
H435 H 0.71696 0.50553 0.95552 0.0
H436 H 0.80412 0.4534 0.1837 0.0
H437 H 0.80356 0.40514 0.20488 0.0
H438 H 0.81831 0.37327 0.10632 0.0
H439 H 0.81754 0.42125 0.08509 0.0
Sm440 Sm 0.50207 0.99613 0.28501 0.0
Sm441 Sm 0.53316 1.03055 0.32903 0.0
C442 C 0.47421 0.96998 0.23688 0.0
C443 C 0.4809 0.95617 0.2054 0.0
C444 C 0.50908 0.9498 0.19669 0.0
C445 C 0.51506 0.9367 0.16651 0.0
C446 C 0.49291 0.9294 0.14472 0.0
C447 C 0.46465 0.93553 0.15401 0.0
C448 C 0.45877 0.94894 0.18395 0.0
C449 C 0.47237 1.00462 0.34475 0.0
C450 C 0.55718 0.96413 0.31892 0.0
C451 C 0.55358 1.04727 0.38613 0.0
C452 C 0.58049 1.04018 0.40261 0.0
C453 C 0.58098 1.03475 0.43655 0.0
C454 C 0.60677 1.02916 0.45243 0.0
C455 C 0.63255 1.02941 0.43463 0.0
C456 C 0.63158 1.03286 0.40018 0.0
C457 C 0.60578 1.03798 0.38431 0.0
C458 C 0.56134 1.02824 0.27083 0.0
C459 C 0.50535 1.06531 0.26905 0.0
O460 O 0.47762 0.9973 0.238 0.0
O461 O 0.48346 0.95732 0.26336 0.0
O462 O 0.48515 1.02337 0.32818 0.0
O463 O 0.4763 0.98053 0.33054 0.0
O464 O 0.53822 0.96277 0.29474 0.0
O465 O 0.55799 0.98748 0.33705 0.0
O466 O 0.55566 1.06241 0.35922 0.0
O467 O 0.53535 1.02653 0.38358 0.0
O468 O 0.5483 1.00761 0.2835 0.0
O469 O 0.56328 1.04963 0.29082 0.0
O470 O 0.51353 1.06832 0.30017 0.0
O471 O 0.50128 1.03955 0.25711 0.0
H472 H 0.52643 0.95496 0.2132 0.0
H473 H 0.53707 0.93259 0.16018 0.0
H474 H 0.44694 0.92959 0.13842 0.0
H475 H 0.43686 0.95345 0.19049 0.0
H476 H 0.56152 1.0355 0.45089 0.0
H477 H 0.60667 1.02592 0.47888 0.0
H478 H 0.65089 1.03343 0.38561 0.0
H479 H 0.6058 1.04119 0.35784 0.0
Sm480 Sm 0.27461 0.48575 0.3826 0.0
Sm481 Sm 0.24146 0.51983 0.42247 0.0
C482 C 0.31354 0.4659 0.34163 0.0
C483 C 0.33578 0.44445 0.34596 0.0
C484 C 0.36261 0.44838 0.33172 0.0
C485 C 0.38327 0.42728 0.33417 0.0
C486 C 0.37724 0.40176 0.35055 0.0
C487 C 0.35092 0.39873 0.36659 0.0
C488 C 0.33043 0.41995 0.36446 0.0
C489 C 0.26019 0.45605 0.43868 0.0
C490 C 0.30779 0.51582 0.44601 0.0
C491 C 0.20349 0.54492 0.46093 0.0
C492 C 0.19051 0.53792 0.49268 0.0
C493 C 0.19881 0.5135 0.50968 0.0
C494 C 0.18743 0.50756 0.54075 0.0
C495 C 0.16744 0.52596 0.55512 0.0
C496 C 0.15875 0.55009 0.53749 0.0
C497 C 0.1703 0.55606 0.50656 0.0
C498 C 0.25942 0.54995 0.3663 0.0
C499 C 0.20959 0.46513 0.38628 0.0
O500 O 0.31695 0.48925 0.35822 0.0
O501 O 0.28737 0.4568 0.34227 0.0
O502 O 0.26651 0.48175 0.43762 0.0
O503 O 0.26424 0.4443 0.41021 0.0
O504 O 0.31097 0.50547 0.41584 0.0
O505 O 0.28156 0.52028 0.45678 0.0
O506 O 0.23067 0.55044 0.46192 0.0
O507 O 0.19654 0.52864 0.4362 0.0
O508 O 0.24983 0.52486 0.36617 0.0
O509 O 0.25971 0.55911 0.39625 0.0
O510 O 0.20925 0.483 0.41141 0.0
O511 O 0.23182 0.46538 0.3663 0.0
H512 H 0.36732 0.46743 0.31801 0.0
H513 H 0.40358 0.43045 0.32208 0.0
H514 H 0.34549 0.37931 0.37918 0.0
H515 H 0.31003 0.41675 0.37635 0.0
H516 H 0.21433 0.49925 0.49905 0.0
H517 H 0.19469 0.48892 0.55374 0.0
H518 H 0.14296 0.56436 0.54759 0.0
H519 H 0.1636 0.57491 0.49358 0.0
Sm520 Sm 1.03216 1.02464 0.12888 0.0
Sm521 Sm 1.00036 0.99182 0.17257 0.0
C522 C 1.04647 1.04294 0.06974 0.0
C523 C 1.03165 1.05336 0.04004 0.0
C524 C 1.01485 1.03528 0.02047 0.0
C525 C 1.00603 1.04368 -0.01098 0.0
C526 C 1.01378 1.07029 0.97675 0.0
C527 C 1.02757 1.08943 -0.00194 0.0
C528 C 1.03666 1.08093 0.02923 0.0
C529 C 1.06074 1.02222 0.18715 0.0
C530 C 1.00593 1.06088 0.18899 0.0
C531 C 0.97224 0.96725 0.22134 0.0
C532 C 0.97983 0.95378 0.2527 0.0
C533 C 1.00549 0.93885 0.25616 0.0
C534 C 1.0121 0.92564 0.28599 0.0
C535 C 0.9933 0.92742 0.31293 0.0
C536 C 0.96802 0.94311 0.30953 0.0
C537 C 0.96132 0.95608 0.27962 0.0
C538 C 0.97141 0.99966 0.11231 0.0
C539 C 1.05503 0.95813 0.13945 0.0
O540 O 1.04298 1.0163 0.07686 0.0
O541 O 1.04685 1.05926 0.0958 0.0
O542 O 1.047 1.0019 0.1748 0.0
O543 O 1.06328 1.04318 0.16661 0.0
O544 O 1.01669 1.06343 0.15897 0.0
O545 O 0.99891 1.03556 0.20015 0.0
O546 O 0.97628 0.99444 0.21974 0.0
O547 O 0.98006 0.95406 0.19452 0.0
O548 O 0.98415 1.01846 0.12886 0.0
O549 O 0.97469 0.97575 0.12709 0.0
O550 O 1.0358 0.95746 0.16343 0.0
O551 O 1.05668 0.98136 0.12124 0.0
H552 H 1.01002 1.01402 0.02846 0.0
H553 H 0.99511 1.02863 0.97339 0.0
H554 H 1.03398 1.11013 -0.01041 0.0
H555 H 1.04925 1.09536 0.04396 0.0
H556 H 1.02026 0.93711 0.23571 0.0
H557 H 1.0316 0.91353 0.28768 0.0
H558 H 0.95336 0.94536 0.33 0.0
H559 H 0.94161 0.96785 0.27746 0.0
Sm560 Sm 0.49671 0.78289 0.88199 0.0
Sm561 Sm 0.52923 0.75114 0.92625 0.0
C562 C 0.46229 0.79443 0.83224 0.0
C563 C 0.44029 0.77902 0.81341 0.0
C564 C 0.44778 0.76011 0.78805 0.0
C565 C 0.42688 0.74798 0.76808 0.0
C566 C 0.39809 0.75523 0.77235 0.0
C567 C 0.39056 0.77254 0.7993 0.0
C568 C 0.41142 0.7843 0.81953 0.0
C569 C 0.50894 0.81531 0.9363 0.0
C570 C 0.46189 0.75317 0.94441 0.0
C571 C 0.56605 0.7282 0.96776 0.0
C572 C 0.57996 0.73684 -0.00166 0.0
C573 C 0.57239 0.76218 0.01404 0.0
C574 C 0.58485 0.76947 0.04417 0.0
C575 C 0.60494 0.75143 0.05888 0.0
C576 C 0.61288 0.72644 0.04251 0.0
C577 C 0.60042 0.71918 0.01249 0.0
C578 C 0.51348 0.71788 0.87185 0.0
C579 C 0.56115 0.80643 0.88997 0.0
O580 O 0.48861 0.78617 0.82833 0.0
O581 O 0.45632 0.80099 0.8628 0.0
O582 O 0.50264 0.78948 0.93689 0.0
O583 O 0.50702 0.82561 0.90664 0.0
O584 O 0.4599 0.76177 0.91328 0.0
O585 O 0.48755 0.75007 0.95733 0.0
O586 O 0.5386 0.72445 0.96972 0.0
O587 O 0.57372 0.74174 0.94117 0.0
O588 O 0.52259 0.74311 0.87055 0.0
O589 O 0.51235 0.71017 0.9023 0.0
O590 O 0.56175 0.78774 0.91431 0.0
O591 O 0.53863 0.80719 0.87039 0.0
H592 H 0.46984 0.75573 0.78247 0.0
H593 H 0.43348 0.73452 0.74785 0.0
H594 H 0.36875 0.77909 0.80327 0.0
H595 H 0.40496 0.79874 0.83889 0.0
H596 H 0.55656 0.77604 0.00323 0.0
H597 H 0.57826 0.78879 0.05631 0.0
H598 H 0.62871 0.71242 0.05298 0.0
H599 H 0.60654 0.69964 0.00049 0.0
Sm600 Sm 0.73911 0.24573 0.62767 0.0
Sm601 Sm 0.77015 0.27947 0.67237 0.0
C602 C 0.72734 0.22172 0.57075 0.0
C603 C 0.73854 0.19603 0.55475 0.0
C604 C 0.75281 0.19794 0.52439 0.0
C605 C 0.76261 0.17357 0.50852 0.0
C606 C 0.75803 0.14683 0.52263 0.0
C607 C 0.74532 0.14526 0.55402 0.0
C608 C 0.73578 0.16956 0.56994 0.0
C609 C 0.71096 0.24818 0.68624 0.0
C610 C 0.76669 0.21021 0.68782 0.0
C611 C 0.79706 0.30486 0.72154 0.0
C612 C 0.78971 0.31953 0.75233 0.0
C613 C 0.76656 0.33827 0.75404 0.0
C614 C 0.76071 0.35276 0.78334 0.0
C615 C 0.77775 0.34855 0.81147 0.0
C616 C 0.80027 0.32897 0.80984 0.0
C617 C 0.80625 0.31473 0.7805 0.0
C618 C 0.80023 0.27087 0.61315 0.0
C619 C 0.71592 0.31219 0.63695 0.0
O620 O 0.74534 0.24263 0.57348 0.0
O621 O 0.71161 0.2182 0.59713 0.0
O622 O 0.72363 0.26883 0.67308 0.0
O623 O 0.7104 0.22611 0.66705 0.0
O624 O 0.75642 0.20758 0.65756 0.0
O625 O 0.77258 0.23566 0.69954 0.0
O626 O 0.79221 0.27776 0.72087 0.0
O627 O 0.79036 0.31747 0.69397 0.0
O628 O 0.78714 0.25225 0.62966 0.0
O629 O 0.79663 0.29501 0.6274 0.0
O630 O 0.73412 0.31279 0.662 0.0
O631 O 0.71547 0.28928 0.61792 0.0
H632 H 0.75577 0.21823 0.51257 0.0
H633 H 0.77256 0.17554 0.48453 0.0
H634 H 0.74094 1.12509 0.56549 0.0
H635 H 0.72545 0.16741 0.5937 0.0
H636 H 0.75326 0.34202 0.73265 0.0
H637 H 0.74333 0.36779 0.78366 0.0
H638 H 0.81339 0.32471 0.83123 0.0
H639 H 0.82396 0.30006 0.77973 0.0
C640 C 0.61061 0.33232 0.05027 0.0
C641 C 0.58706 0.33197 0.07186 0.0
C642 C 0.63077 0.35473 0.05029 0.0
C643 C 0.62769 0.37799 0.07227 0.0
C644 C 0.60408 0.37764 0.09429 0.0
C645 C 0.58433 0.3549 0.09387 0.0
C646 C 0.65537 0.35358 0.02639 0.0
C647 C 0.59941 0.40165 0.11817 0.0
C648 C 0.69329 0.42488 0.09212 0.0
C649 C 0.68977 0.44841 0.07119 0.0
C650 C 0.67349 0.40221 0.09279 0.0
C651 C 0.64898 0.40254 0.07218 0.0
C652 C 0.64511 0.4264 0.05129 0.0
C653 C 0.66537 0.44872 0.05094 0.0
C654 C 0.67911 0.37753 0.11536 0.0
C655 C 0.61955 0.42824 0.02888 0.0
H656 H 0.61323 0.31509 0.03293 0.0
H657 H 0.56635 0.35536 0.11062 0.0
H658 H 0.65446 0.37198 0.00951 0.0
H659 H 0.6758 0.35489 0.04003 0.0
H660 H 0.65536 0.33396 0.01137 0.0
H661 H 0.58034 0.3984 0.13392 0.0
H662 H 0.61829 0.40409 0.13434 0.0
H663 H 0.5968 0.4217 0.10437 0.0
H664 H 0.71197 0.42384 0.10774 0.0
H665 H 0.66218 0.4664 0.0344 0.0
H666 H 0.68115 0.35789 0.1006 0.0
H667 H 0.66091 0.37459 0.13245 0.0
H668 H 0.69881 0.38032 0.13016 0.0
H669 H 0.61978 0.41039 0.01115 0.0
H670 H 0.61894 0.44832 0.01478 0.0
H671 H 0.59971 0.42646 0.04359 0.0
C672 C 0.69776 0.86315 0.29925 0.0
C673 C 0.69929 0.84112 0.32255 0.0
C674 C 0.67522 0.88329 0.2994 0.0
C675 C 0.65291 0.88159 0.32311 0.0
C676 C 0.65446 0.8595 0.34681 0.0
C677 C 0.6774 0.83987 0.34635 0.0
C678 C 0.67515 0.90633 0.27375 0.0
C679 C 0.63139 0.85617 0.37241 0.0
C680 C 0.60521 0.94699 0.3411 0.0
C681 C 0.58082 0.94215 0.32161 0.0
C682 C 0.62852 0.92778 0.34178 0.0
C683 C 0.62787 0.90247 0.32282 0.0
C684 C 0.60311 0.89726 0.30351 0.0
C685 C 0.58026 0.91702 0.30296 0.0
C686 C 0.6542 0.93491 0.3625 0.0
C687 C 0.60079 0.87071 0.28311 0.0
H688 H 0.71414 0.86456 0.2805 0.0
H689 H 0.67776 0.82299 0.36436 0.0
H690 H 0.65615 0.90417 0.25771 0.0
H691 H 0.67378 0.92728 0.28591 0.0
H692 H 0.69448 0.9058 0.25797 0.0
H693 H 0.63561 0.83828 0.38943 0.0
H694 H 0.62937 0.8758 0.38716 0.0
H695 H 0.61063 0.8526 0.36005 0.0
H696 H 0.60643 0.96627 0.35546 0.0
H697 H 0.56187 0.91277 0.2876 0.0
H698 H 0.67338 0.93611 0.34658 0.0
H699 H 0.65804 0.91799 0.38087 0.0
H700 H 0.65172 0.95529 0.37578 0.0
H701 H 0.61802 0.87015 0.2644 0.0
H702 H 0.57999 0.86908 0.27022 0.0
H703 H 0.60354 0.8519 0.29909 0.0
C704 C 0.16335 0.94885 0.55156 0.0
C705 C 0.18772 0.94915 0.57187 0.0
C706 C 0.14357 0.92612 0.552 0.0
C707 C 0.14791 0.90247 0.57307 0.0
C708 C 0.17238 0.90274 0.59375 0.0
C709 C 0.19171 0.92582 0.59297 0.0
C710 C 1.11802 0.92732 0.52951 0.0
C711 C 0.17844 0.87832 0.61654 0.0
C712 C 1.08386 0.85427 0.5951 0.0
C713 C 1.08682 0.83123 0.57328 0.0
C714 C 1.10338 0.87718 0.59539 0.0
C715 C 1.12701 0.87761 0.57343 0.0
C716 C 1.13036 0.85423 0.55165 0.0
C717 C 1.1104 0.83163 0.55174 0.0
C718 C 1.09836 0.90132 0.619 0.0
C719 C 0.15498 0.85321 0.52779 0.0
H720 H 0.1598 0.96636 0.53487 0.0
H721 H 0.21039 0.92526 0.60863 0.0
H722 H 1.11857 0.90931 0.512 0.0
H723 H 1.09818 0.92536 0.54419 0.0
H724 H 1.11709 0.94725 0.51513 0.0
H725 H 0.19811 0.88153 0.63126 0.0
H726 H 0.16031 0.87523 0.63371 0.0
H727 H 0.18075 0.8586 0.60197 0.0
H728 H 1.0658 0.85475 0.61173 0.0
H729 H 1.11313 0.81437 0.53447 0.0
H730 H 1.09542 0.92121 0.60496 0.0
H731 H 1.11722 0.90419 0.63511 0.0
H732 H 1.07935 0.89793 0.63481 0.0
H733 H 0.15373 0.87136 0.51058 0.0
H734 H 0.15532 0.8334 0.51311 0.0
H735 H 0.17539 0.85506 0.54139 0.0
C736 C 1.07892 0.41651 0.80273 0.0
C737 C 1.07894 0.44106 0.82245 0.0
C738 C 1.10153 0.39649 0.80371 0.0
C739 C 1.12548 0.40079 0.82465 0.0
C740 C 1.12556 0.42546 0.84473 0.0
C741 C 1.10253 0.44499 0.8435 0.0
C742 C 1.09987 0.37069 0.78196 0.0
C743 C 0.15036 0.43158 0.86724 0.0
C744 C 0.17369 0.33701 0.84781 0.0
C745 C 0.19663 0.33908 0.82548 0.0
C746 C 0.1508 0.35674 0.84791 0.0
C747 C 0.15036 0.37971 0.82532 0.0
C748 C 0.1737 0.38219 0.80309 0.0
C749 C 0.19619 0.362 0.8033 0.0
C750 C 1.12665 0.3526 0.87195 0.0
C751 C 0.17481 0.40615 0.77864 0.0
H752 H 1.0612 0.41298 0.78612 0.0
H753 H 1.10338 0.46381 0.85869 0.0
H754 H 1.11783 0.37068 0.76417 0.0
H755 H 1.10189 0.35132 0.79714 0.0
H756 H 1.0796 0.36967 0.7679 0.0
H757 H 0.14735 0.45137 0.88156 0.0
H758 H 0.15344 0.41387 0.88476 0.0
H759 H 0.17017 0.43342 0.85248 0.0
H760 H 0.17321 0.31946 0.86492 0.0
H761 H 0.2134 0.36408 0.78567 0.0
H762 H 1.10644 0.3496 0.85825 0.0
H763 H 1.12407 0.3717 0.88754 0.0
H764 H 1.13006 0.33409 0.88828 0.0
H765 H 0.15644 0.40475 0.76152 0.0
H766 H 0.19474 0.40603 0.76388 0.0
H767 H 0.17311 0.42666 0.79175 0.0
C768 C 0.69106 0.92107 0.86559 0.0
C769 C 0.68774 0.94489 0.88614 0.0
C770 C 0.67108 0.8985 0.86537 0.0
C771 C 0.64661 0.89926 0.88608 0.0
C772 C 0.64297 0.9234 0.90661 0.0
C773 C 0.66337 0.94559 0.90649 0.0
C774 C 0.67644 0.8735 0.84315 0.0
C775 C 0.61747 0.92571 0.9291 0.0
C776 C 0.58141 0.85197 0.86533 0.0
C777 C 0.58394 0.82928 0.88766 0.0
C778 C 0.60141 0.87451 0.86451 0.0
C779 C 0.62508 0.87489 0.88642 0.0
C780 C 0.62791 0.8519 0.90878 0.0
C781 C 0.60751 0.82971 0.90922 0.0
C782 C 0.59691 0.89827 0.84032 0.0
C783 C 0.65253 0.85083 0.93264 0.0
H784 H 0.70969 0.91974 0.84989 0.0
H785 H 0.66028 0.96351 0.92274 0.0
H786 H 0.67834 0.85403 0.8582 0.0
H787 H 0.65817 0.87051 0.82617 0.0
H788 H 0.69613 0.87595 0.82824 0.0
H789 H 0.61706 0.94595 0.94295 0.0
H790 H 0.59757 0.92393 0.91451 0.0
H791 H 0.61757 0.90807 0.94708 0.0
H792 H 0.5634 0.85243 0.84866 0.0
H793 H 0.60996 0.8127 0.92685 0.0
H794 H 0.61579 0.90037 0.82408 0.0
H795 H 0.59448 0.9185 0.85386 0.0
H796 H 0.57779 0.89501 0.82466 0.0
H797 H 0.67296 0.85189 0.91896 0.0
H798 H 0.6524 0.83135 0.94788 0.0
H799 H 0.65174 0.86939 0.94934 0.0
C800 C 0.59749 0.43896 0.61299 0.0
C801 C 0.5753 0.43706 0.63634 0.0
C802 C 0.62029 0.41916 0.61195 0.0
C803 C 0.62134 0.39619 0.63453 0.0
C804 C 0.59873 0.39387 0.65779 0.0
C805 C 0.57637 0.41421 0.65857 0.0
C806 C 0.64371 0.42322 0.58695 0.0
C807 C 0.59823 0.36989 0.68223 0.0
C808 C 0.66853 0.33083 0.6142 0.0
C809 C 0.69265 0.33461 0.63443 0.0
C810 C 0.64549 0.35042 0.61397 0.0
C811 C 0.64616 0.37502 0.63418 0.0
C812 C 0.67068 0.37918 0.65421 0.0
C813 C 0.69323 0.35909 0.65427 0.0
C814 C 0.62003 0.34443 0.59243 0.0
C815 C 0.67305 0.40493 0.67596 0.0
H816 H 0.59747 0.45646 0.59579 0.0
H817 H 0.55971 0.41224 0.67692 0.0
H818 H 0.66435 0.42606 0.59984 0.0
H819 H 0.64571 0.40415 0.57121 0.0
H820 H 0.63992 0.44179 0.57083 0.0
H821 H 0.57875 0.3701 0.69778 0.0
H822 H 0.59942 0.3494 0.66901 0.0
H823 H 0.61711 0.37116 0.6986 0.0
H824 H 0.66727 0.31207 0.59895 0.0
H825 H 0.71139 0.36254 0.67025 0.0
H826 H 0.61653 0.36216 0.57505 0.0
H827 H 0.60065 0.34268 0.60795 0.0
H828 H 0.62253 0.32464 0.57799 0.0
H829 H 0.67062 0.42434 0.66092 0.0
H830 H 0.69374 0.40588 0.68918 0.0
H831 H 0.65565 0.40494 0.69447 0.0
C832 C 1.08044 0.34919 0.36315 0.0
C833 C 1.08419 0.32574 0.38413 0.0
C834 C 1.10022 0.37192 0.36221 0.0
C835 C 1.1249 0.3717 0.38257 0.0
C836 C 1.129 0.3479 0.40346 0.0
C837 C 1.10879 0.32555 0.40409 0.0
C838 C 1.09436 0.39656 0.33967 0.0
C839 C 0.15473 0.34615 0.42562 0.0
C840 C 0.18949 0.41963 0.36114 0.0
C841 C 0.18683 0.4423 0.38352 0.0
C842 C 0.16967 0.39692 0.36041 0.0
C843 C 0.14607 0.39638 0.38245 0.0
C844 C 0.14303 0.41943 0.40474 0.0
C845 C 0.16326 0.44175 0.40509 0.0
C846 C 0.17435 0.3731 0.3363 0.0
C847 C 1.11845 0.42037 0.42868 0.0
H848 H 1.06162 0.35012 0.34776 0.0
H849 H 1.1122 0.30793 0.42065 0.0
H850 H 1.09214 0.41616 0.35448 0.0
H851 H 1.11254 0.3997 0.32259 0.0
H852 H 1.07469 0.39359 0.32488 0.0
H853 H 0.1556 0.32601 0.4396 0.0
H854 H 0.17446 0.34815 0.41075 0.0
H855 H 0.15449 0.36391 0.44347 0.0
H856 H 0.20753 0.41927 0.34448 0.0
H857 H 0.16071 0.45877 0.42275 0.0
H858 H 0.15533 0.37053 0.32037 0.0
H859 H 0.17731 0.35301 0.34994 0.0
H860 H 0.19323 0.37662 0.32033 0.0
H861 H 1.098 0.41879 0.41512 0.0
H862 H 1.11827 0.44004 0.44363 0.0
H863 H 1.11961 0.40205 0.44565 0.0
C864 C 0.19409 0.85515 0.15732 0.0
C865 C 0.19417 0.8317 0.13584 0.0
C866 C 0.17177 0.8755 0.15722 0.0
C867 C 0.14825 0.87271 0.13533 0.0
C868 C 0.14829 0.84919 0.11344 0.0
C869 C 0.17102 0.82926 0.11388 0.0
C870 C 0.17329 0.90001 0.18095 0.0
C871 C 1.12394 0.84473 0.08978 0.0
C872 C 1.07753 0.91123 0.1573 0.0
C873 C 1.07794 0.93534 0.13693 0.0
C874 C 1.09977 0.89078 0.15675 0.0
C875 C 1.12369 0.89416 0.13552 0.0
C876 C 1.12411 0.91836 0.11474 0.0
C877 C 1.10147 0.93835 0.11561 0.0
C878 C 1.09777 0.86554 0.17928 0.0
C879 C 0.14887 0.92345 0.09182 0.0
H880 H 0.21147 0.85755 0.17466 0.0
H881 H 0.17028 0.81132 0.0973 0.0
H882 H 0.17206 0.92021 0.16719 0.0
H883 H 0.15484 0.8994 0.19802 0.0
H884 H 0.19317 0.89984 0.19578 0.0
H885 H 1.127 0.82575 0.07406 0.0
H886 H 1.10377 0.84237 0.10377 0.0
H887 H 1.12151 0.86344 0.07358 0.0
H888 H 1.05981 0.90837 0.1741 0.0
H889 H 1.10255 0.95676 0.09982 0.0
H890 H 1.11586 0.8656 0.19687 0.0
H891 H 1.09929 0.84579 0.16465 0.0
H892 H 1.07759 0.86525 0.19357 0.0
H893 H 0.16881 0.92529 0.10633 0.0
H894 H 0.14613 0.94292 0.07691 0.0
H895 H 0.1515 0.90526 0.07484 0.0
C896 C 0.35137 0.2787 0.87088 0.0
C897 C 0.32434 0.2662 0.87435 0.0
C898 C 0.3721 0.27771 0.89629 0.0
C899 C 0.36655 0.26287 0.92605 0.0
C900 C 0.33921 0.25022 0.92978 0.0
C901 C 0.31842 0.25239 0.90427 0.0
C902 C 0.40018 0.2925 0.89106 0.0
C903 C 0.33222 0.23352 0.96036 0.0
C904 C 0.43364 0.23817 0.97381 0.0
C905 C 0.43547 0.25758 4e-05 0.0
C906 C 0.41088 0.23889 0.9507 0.0
C907 C 0.38958 0.26024 0.95263 0.0
C908 C 0.39143 0.27994 -0.02094 0.0
C909 C 0.41386 0.27811 0.0025 0.0
C910 C 0.40989 0.21689 0.9238 0.0
C911 C 0.37031 0.30384 -0.01816 0.0
H912 H 0.3564 0.28943 0.848 0.0
H913 H 0.29791 0.24226 0.90723 0.0
H914 H 0.40471 0.30684 0.91208 0.0
H915 H 0.41766 0.27677 0.89004 0.0
H916 H 0.40053 0.30499 0.86788 0.0
H917 H 0.31019 0.22506 0.95989 0.0
H918 H 0.34734 0.21562 0.96279 0.0
H919 H 0.33475 0.24692 -0.01738 0.0
H920 H 0.45012 0.22229 0.97129 0.0
H921 H 0.41516 0.29368 0.02205 0.0
H922 H 0.41372 0.22697 0.89953 0.0
H923 H 0.38848 0.20704 0.92286 0.0
H924 H 0.42606 0.20005 0.92746 0.0
H925 H 0.37211 0.31767 0.95985 0.0
H926 H 0.3738 0.31684 0.0043 0.0
H927 H 0.34828 0.2955 -0.01767 0.0
C928 C 0.77359 0.57228 0.14891 0.0
C929 C 0.76135 0.57843 0.11806 0.0
C930 C 0.77529 0.59302 0.17438 0.0
C931 C 0.76366 0.62054 0.16965 0.0
C932 C 0.75039 0.62636 0.13889 0.0
C933 C 0.7499 0.60566 0.1136 0.0
C934 C 0.79038 0.58572 0.20607 0.0
C935 C 0.73673 0.65469 0.13249 0.0
C936 C 0.74609 0.66903 0.24423 0.0
C937 C 0.76752 0.68976 0.24272 0.0
C938 C 0.74475 0.64642 0.22117 0.0
C939 C 0.76581 0.64353 0.19614 0.0
C940 C 0.78807 0.66387 0.19531 0.0
C941 C 0.78836 0.68677 0.21799 0.0
C942 C 0.71998 0.62626 0.22281 0.0
C943 C 0.81155 0.66168 0.17004 0.0
H944 H 0.78284 0.55157 0.15272 0.0
H945 H 0.74029 0.61086 0.09006 0.0
H946 H 0.80882 0.60003 0.20955 0.0
H947 H 0.77594 0.58893 0.2274 0.0
H948 H 0.79812 0.56356 0.20632 0.0
H949 H 0.72534 0.65531 0.10848 0.0
H950 H 0.7214 0.65982 0.15246 0.0
H951 H 0.7532 0.67142 0.13248 0.0
H952 H 0.72955 0.67109 0.26273 0.0
H953 H 0.80505 0.70246 0.21632 0.0
H954 H 0.72772 0.60417 0.22409 0.0
H955 H 0.70705 0.62819 0.2 0.0
H956 H 0.70603 0.63038 0.24443 0.0
H957 H 0.82078 0.6401 0.17015 0.0
H958 H 0.82885 0.67715 0.17461 0.0
H959 H 0.80278 0.66548 0.14503 0.0
C960 C 0.44291 1.03671 0.38274 0.0
C961 C 0.44933 1.00964 0.37042 0.0
C962 C 0.42064 1.04117 0.40605 0.0
C963 C 0.40393 1.01813 0.41759 0.0
C964 C 0.41049 0.99078 0.40529 0.0
C965 C 0.4329 0.98692 0.38223 0.0
C966 C 0.41484 1.0707 0.4182 0.0
C967 C 0.39356 0.96542 0.41626 0.0
C968 C 0.36045 1.02222 0.49894 0.0
C969 C 0.33239 1.02678 0.48784 0.0
C970 C 0.38378 1.02014 0.47668 0.0
C971 C 0.37943 1.02243 0.44203 0.0
C972 C 0.35123 1.02753 0.43076 0.0
C973 C 0.32833 1.02967 0.45354 0.0
C974 C 0.41316 1.01478 0.49032 0.0
C975 C 0.34501 1.02996 0.39435 0.0
H976 H 0.45524 1.05452 0.37403 0.0
H977 H 0.43739 0.96587 0.37312 0.0
H978 H 0.39284 1.07702 0.41155 0.0
H979 H 0.41641 1.07141 0.44551 0.0
H980 H 0.42991 1.08634 0.40766 0.0
H981 H 0.40133 0.94551 0.40487 0.0
H982 H 0.39466 0.96328 0.44349 0.0
H983 H 0.37082 0.96827 0.40964 0.0
H984 H 0.36419 1.01973 0.52516 0.0
H985 H 0.30696 1.03293 0.44423 0.0
H986 H 0.42824 1.03088 0.48095 0.0
H987 H 0.42094 0.99389 0.48179 0.0
H988 H 0.41354 1.01514 0.51773 0.0
H989 H 0.35876 1.04633 0.38305 0.0
H990 H 0.3224 1.03538 0.3894 0.0
H991 H 0.34997 1.00966 0.38192 0.0
C992 C 0.98719 0.68243 0.61985 0.0
C993 C 1.00908 0.70266 0.61964 0.0
C994 C 0.98542 0.6612 0.64445 0.0
C995 C 1.00677 0.6589 0.66917 0.0
C996 C 1.02898 0.67937 0.66911 0.0
C997 C 1.02957 0.70115 0.6449 0.0
C998 C 0.96072 0.6409 0.64364 0.0
C999 C 1.05291 0.67754 0.6938 0.0
C1000 C 0.99372 0.61367 0.74783 0.0
C1001 C 1.0045 0.58707 0.73868 0.0
C1002 C 0.99398 0.63697 0.72562 0.0
C1003 C 1.00652 0.63434 0.69372 0.0
C1004 C 1.01818 0.60767 0.6849 0.0
C1005 C 1.01649 0.58451 0.70695 0.0
C1006 C 0.98027 0.66433 0.7361 0.0
C1007 C 1.03283 0.60354 0.65208 0.0
H1008 H 0.97123 0.6832 0.60055 0.0
H1009 H 1.04687 0.71625 0.64486 0.0
H1010 H 0.96843 0.61946 0.63722 0.0
H1011 H 0.95065 0.63959 0.66837 0.0
H1012 H 0.94429 0.6472 0.62536 0.0
H1013 H 1.04432 0.67778 0.71929 0.0
H1014 H 1.06443 0.65726 0.69055 0.0
H1015 H 1.06833 0.69514 0.69114 0.0
H1016 H 0.98441 0.61611 0.77214 0.0
H1017 H 1.02533 0.56435 0.69953 0.0
H1018 H 0.9634 0.67025 0.71821 0.0
H1019 H 0.99623 0.68154 0.73604 0.0
H1020 H 0.97068 0.66297 0.76112 0.0
H1021 H 1.04307 0.58247 0.65001 0.0
H1022 H 1.04931 0.62001 0.64849 0.0
H1023 H 1.01718 0.60578 0.63177 0.0
C1024 C 0.86141 1.01658 0.95579 0.0
C1025 C 0.83363 1.02282 0.96678 0.0
C1026 C 0.88474 1.01428 -0.02195 0.0
C1027 C 0.88065 1.01815 0.01258 0.0
C1028 C 0.85278 1.02504 0.02367 0.0
C1029 C 0.82989 1.02727 0.00092 0.0
C1030 C 0.91375 1.0069 0.9646 0.0
C1031 C 0.84686 1.02937 0.05992 0.0
C1032 C 0.9316 0.98241 0.07499 0.0
C1033 C 0.94912 1.0047 0.0858 0.0
C1034 C 0.90976 0.98645 0.05126 0.0
C1035 C 0.90494 1.01352 0.03722 0.0
C1036 C 0.92294 1.03604 0.04754 0.0
C1037 C 0.94458 1.03142 0.07157 0.0
C1038 C 0.89154 0.9616 0.04147 0.0
C1039 C 0.91915 1.06522 0.03342 0.0
H1040 H 0.8649 1.01286 0.92971 0.0
H1041 H 0.80874 1.03188 0.01017 0.0
H1042 H 0.92977 1.02242 0.97326 0.0
H1043 H 0.92037 0.98591 0.97401 0.0
H1044 H 0.91409 1.00635 0.9372 0.0
H1045 H 0.82459 1.03616 0.06465 0.0
H1046 H 0.85081 1.00942 0.07348 0.0
H1047 H 0.86152 1.04549 0.07018 0.0
H1048 H 0.9347 0.96161 0.08549 0.0
H1049 H 0.95791 1.04886 0.07933 0.0
H1050 H 0.89254 0.9584 0.01437 0.0
H1051 H 0.86898 0.96585 0.04789 0.0
H1052 H 0.89825 0.94176 0.05384 0.0
H1053 H 0.92085 1.06447 0.00612 0.0
H1054 H 0.93519 1.08034 0.04302 0.0
H1055 H 0.89758 1.07325 0.03949 0.0
C1056 C 0.50724 0.70411 0.81103 0.0
C1057 C 0.51306 0.69658 0.84388 0.0
C1058 C 0.50494 0.68342 0.78561 0.0
C1059 C 0.50977 0.65432 0.79259 0.0
C1060 C 0.51669 0.64685 0.82557 0.0
C1061 C 0.51763 0.66775 0.85061 0.0
C1062 C 0.49648 0.69268 0.7514 0.0
C1063 C 0.52332 0.61663 0.83455 0.0
C1064 C 0.48184 0.59261 0.73867 0.0
C1065 C 0.50536 0.586 0.71861 0.0
C1066 C 0.48251 0.61545 0.76146 0.0
C1067 C 0.50777 0.6316 0.76582 0.0
C1068 C 0.53166 0.62475 0.74577 0.0
C1069 C 0.52999 0.60262 0.72219 0.0
C1070 C 0.45609 0.62216 0.78113 0.0
C1071 C 0.55952 0.64011 0.75009 0.0
H1072 H 0.50381 0.72614 0.80536 0.0
H1073 H 0.52238 0.66141 0.8757 0.0
H1074 H 0.51191 0.68469 0.7329 0.0
H1075 H 0.47541 0.68355 0.74517 0.0
H1076 H 0.49512 0.71601 0.74921 0.0
H1077 H 0.53025 0.61442 0.86062 0.0
H1078 H 0.50424 0.60329 0.83069 0.0
H1079 H 0.54038 0.60827 0.81827 0.0
H1080 H 0.46271 0.58002 0.73633 0.0
H1081 H 0.54853 0.59752 0.70741 0.0
H1082 H 0.45108 0.64501 0.77932 0.0
H1083 H 0.45977 0.61734 0.80755 0.0
H1084 H 0.43736 0.60989 0.77257 0.0
H1085 H 0.55637 0.66313 0.74673 0.0
H1086 H 0.57603 0.63275 0.73243 0.0
H1087 H 0.56753 0.63686 0.77558 0.0
C1088 C 0.8399 0.2881 0.5757 0.0
C1089 C 0.82274 0.26568 0.58688 0.0
C1090 C 0.86183 0.28412 0.55206 0.0
C1091 C 0.86717 0.25696 0.53846 0.0
C1092 C 0.84958 0.23425 0.54921 0.0
C1093 C 0.82782 0.23882 0.57317 0.0
C1094 C 0.87961 0.30915 0.54187 0.0
C1095 C 0.85394 0.20494 0.53562 0.0
C1096 C 0.91087 0.25402 0.45704 0.0
C1097 C 0.93876 0.24843 0.46811 0.0
C1098 C 0.88746 0.25601 0.47927 0.0
C1099 C 0.89156 0.25248 0.51385 0.0
C1100 C 0.91955 0.24624 0.52501 0.0
C1101 C 0.94251 0.24431 0.5023 0.0
C1102 C 0.85834 0.26269 0.46573 0.0
C1103 C 0.92551 0.24233 0.56131 0.0
H1104 H 0.8364 0.309 0.5858 0.0
H1105 H 0.81482 0.22126 0.58125 0.0
H1106 H 0.90225 0.30534 0.54826 0.0
H1107 H 0.87849 0.31203 0.51474 0.0
H1108 H 0.87259 0.32901 0.55401 0.0
H1109 H 0.83771 0.18983 0.54482 0.0
H1110 H 0.85307 0.20533 0.50826 0.0
H1111 H 0.87535 0.19711 0.54267 0.0
H1112 H 0.90735 0.25746 0.43093 0.0
H1113 H 0.96372 0.24018 0.51162 0.0
H1114 H 0.85128 0.28363 0.47492 0.0
H1115 H 0.84265 0.24692 0.47453 0.0
H1116 H 0.85803 0.263 0.43832 0.0
H1117 H 0.92111 0.26231 0.57469 0.0
H1118 H 0.94791 0.23605 0.56611 0.0
H1119 H 0.91119 0.22599 0.5717 0.0
C1120 C 0.24239 0.59482 0.33887 0.0
C1121 C 0.25925 0.57026 0.33752 0.0
C1122 C 0.24396 0.6161 0.31434 0.0
C1123 C 0.26373 0.61372 0.28792 0.0
C1124 C 0.2808 0.58885 0.28636 0.0
C1125 C 0.27812 0.56741 0.31078 0.0
C1126 C 0.22457 0.64143 0.31703 0.0
C1127 C 0.30274 0.58536 0.25951 0.0
C1128 C 0.25295 0.66033 0.2103 0.0
C1129 C 0.26974 0.68428 0.21705 0.0
C1130 C 0.25103 0.63734 0.23268 0.0
C1131 C 0.26681 0.6375 0.26263 0.0
C1132 C 0.28455 0.66121 0.26902 0.0
C1133 C 0.28545 0.68428 0.24663 0.0
C1134 C 0.23115 0.6133 0.22477 0.0
C1135 C 0.30242 0.66245 0.2999 0.0
H1136 H 0.22789 0.5975 0.35946 0.0
H1137 H 0.29171 0.54893 0.30972 0.0
H1138 H 0.23735 0.66071 0.32154 0.0
H1139 H 0.2129 0.64462 0.29352 0.0
H1140 H 0.20884 0.63924 0.33734 0.0
H1141 H 0.31404 0.56479 0.26112 0.0
H1142 H 0.29254 0.587 0.23491 0.0
H1143 H 0.31863 0.6026 0.26123 0.0
H1144 H 0.24034 0.65994 0.18791 0.0
H1145 H 0.29847 0.70247 0.25243 0.0
H1146 H 0.21413 0.61226 0.24373 0.0
H1147 H 0.24277 0.59293 0.22551 0.0
H1148 H 0.22108 0.61563 0.20012 0.0
H1149 H 0.28841 0.66393 0.32187 0.0
H1150 H 0.31708 0.68083 0.29998 0.0
H1151 H 0.31517 0.64283 0.30241 0.0
C1152 C 0.84405 0.74162 0.37256 0.0
C1153 C 0.8242 0.76383 0.37104 0.0
C1154 C 0.86502 0.74006 0.39765 0.0
C1155 C 0.86741 0.76186 0.42159 0.0
C1156 C 0.84725 0.78434 0.42032 0.0
C1157 C 0.82572 0.78481 0.39557 0.0
C1158 C 0.88507 0.71515 0.39808 0.0
C1159 C 0.84918 0.80863 0.44427 0.0
C1160 C 0.9121 0.74941 0.50103 0.0
C1161 C 0.93917 0.75937 0.4919 0.0
C1162 C 0.88874 0.74992 0.47863 0.0
C1163 C 0.89188 0.76174 0.4465 0.0
C1164 C 0.91904 0.77256 0.43768 0.0
C1165 C 0.94218 0.77083 0.46003 0.0
C1166 C 0.86078 0.73721 0.48914 0.0
C1167 C 0.9237 0.78636 0.40456 0.0
H1168 H 0.84325 0.7253 0.35381 0.0
H1169 H 0.81091 0.80234 0.3945 0.0
H1170 H 0.90694 0.72223 0.39202 0.0
H1171 H 0.88574 0.70569 0.42311 0.0
H1172 H 0.87878 0.69858 0.3801 0.0
H1173 H 0.83151 0.82399 0.44106 0.0
H1174 H 0.84887 0.80075 0.47002 0.0
H1175 H 0.86969 0.81982 0.44069 0.0
H1176 H 0.90933 0.74054 0.52546 0.0
H1177 H 0.96272 0.77913 0.45269 0.0
H1178 H 0.85484 0.71997 0.47191 0.0
H1179 H 0.84367 0.75332 0.48793 0.0
H1180 H 0.86162 0.72857 0.51459 0.0
H1181 H 0.91901 0.77121 0.38442 0.0
H1182 H 0.94585 0.79411 0.40145 0.0
H1183 H 0.90888 0.80445 0.4017 0.0
C1184 C 0.28883 0.18837 0.71751 0.0
C1185 C 0.26819 0.19091 0.74253 0.0
C1186 C 0.28833 0.16584 0.69428 0.0
C1187 C 0.26602 0.14552 0.69485 0.0
C1188 C 0.24509 0.14809 0.72005 0.0
C1189 C 0.24668 0.17023 0.74364 0.0
C1190 C 0.31166 0.16396 0.66881 0.0
C1191 C 0.22023 1.12801 0.72138 0.0
C1192 C 0.24893 1.10812 0.61231 0.0
C1193 C 0.25993 1.08069 0.61661 0.0
C1194 C 0.2501 1.12882 0.63757 0.0
C1195 C 0.26367 1.12278 0.6681 0.0
C1196 C 0.27498 1.0951 0.6726 0.0
C1197 C 0.27256 1.07438 0.6472 0.0
C1198 C 0.23668 0.15731 0.63148 0.0
C1199 C 0.29037 1.08756 0.70402 0.0
H1200 H 0.30556 0.20405 0.71611 0.0
H1201 H 0.23027 0.17197 0.76233 0.0
H1202 H 0.32087 0.14238 0.6685 0.0
H1203 H 0.30276 0.16806 0.64393 0.0
H1204 H 0.32899 0.17938 0.67351 0.0
H1205 H 0.20606 0.13219 0.7428 0.0
H1206 H 0.20754 1.1299 0.69839 0.0
H1207 H 0.22791 1.10591 0.72284 0.0
H1208 H 0.23901 1.11344 0.58897 0.0
H1209 H 0.28146 1.0535 0.65089 0.0
H1210 H 0.25327 0.17392 0.63167 0.0
H1211 H 0.22139 0.1624 0.65152 0.0
H1212 H 0.22528 0.15823 0.60749 0.0
H1213 H 0.30868 1.10201 0.70762 0.0
H1214 H 0.29832 1.06547 0.70383 0.0
H1215 H 0.27601 1.09035 0.72551 0.0
C1216 C 0.83759 0.54075 0.96172 0.0
C1217 C 0.83742 0.52403 -0.00959 0.0
C1218 C 0.86025 0.5395 0.93851 0.0
C1219 C 0.8832 0.52023 0.94297 0.0
C1220 C 0.88311 0.50331 0.97195 0.0
C1221 C 0.86068 0.50572 -0.00465 0.0
C1222 C 0.85938 0.55867 0.90883 0.0
C1223 C 0.90617 0.48168 -0.02234 0.0
C1224 C 0.92266 0.4969 0.86365 0.0
C1225 C 0.9486 0.51168 0.86522 0.0
C1226 C 0.90194 0.49874 0.88903 0.0
C1227 C 0.9063 0.51679 0.91661 0.0
C1228 C 0.93251 0.53183 0.91833 0.0
C1229 C 0.95338 0.52878 0.89306 0.0
C1230 C 0.87514 0.48138 0.88613 0.0
C1231 C 0.93814 0.55201 0.94636 0.0
H1232 H 0.81985 0.55489 0.95731 0.0
H1233 H 0.86076 0.49224 0.01694 0.0
H1234 H 0.87994 0.56997 0.9062 0.0
H1235 H 0.85624 0.54596 0.88613 0.0
H1236 H 0.84195 0.57447 0.91049 0.0
H1237 H 0.90368 0.47061 0.00163 0.0
H1238 H 0.90574 0.46578 0.95753 0.0
H1239 H 0.9274 0.49186 0.97705 0.0
H1240 H 0.91853 0.48368 0.84233 0.0
H1241 H 0.97296 0.54075 0.89443 0.0
H1242 H 0.85647 0.49549 0.88315 0.0
H1243 H 0.87175 0.46897 0.90901 0.0
H1244 H 0.87584 0.46663 0.86482 0.0
H1245 H 0.92174 0.5689 0.94637 0.0
H1246 H 0.95949 0.56193 0.94461 0.0
H1247 H 0.9365 0.54087 0.97034 0.0
C1248 C 0.51049 1.11811 0.25624 0.0
C1249 C 0.50458 1.0904 0.24561 0.0
C1250 C 0.51233 0.14108 0.2337 0.0
C1251 C 0.50839 0.13666 0.19924 0.0
C1252 C 0.50198 1.10882 0.18849 0.0
C1253 C 0.50014 1.08633 0.21151 0.0
C1254 C 0.51925 0.17009 0.24676 0.0
C1255 C 0.49784 1.10251 0.1523 0.0
C1256 C 0.49337 0.19894 0.13924 0.0
C1257 C 0.52013 0.20362 0.1246 0.0
C1258 C 0.48932 0.17784 0.1638 0.0
C1259 C 0.51246 0.16055 0.17426 0.0
C1260 C 0.53956 0.16557 0.15983 0.0
C1261 C 0.54303 0.18688 0.13559 0.0
C1262 C 0.46007 0.1738 0.17831 0.0
C1263 C 0.56508 0.14823 0.16991 0.0
H1264 H 0.51423 1.12186 0.28226 0.0
H1265 H 0.49585 1.06523 0.20248 0.0
H1266 H 0.54023 0.17694 0.2371 0.0
H1267 H 0.50322 0.18561 0.23807 0.0
H1268 H 0.51994 0.17067 0.27415 0.0
H1269 H 0.49133 1.08031 0.14786 0.0
H1270 H 0.48143 1.11675 0.14177 0.0
H1271 H 0.51798 1.10649 0.13877 0.0
H1272 H 0.47547 0.21171 0.13137 0.0
H1273 H 0.56389 0.19018 0.12484 0.0
H1274 H 0.46097 0.17588 0.20557 0.0
H1275 H 0.45235 0.1522 0.17271 0.0
H1276 H 0.44445 0.18933 0.16859 0.0
H1277 H 0.56984 0.15197 0.19637 0.0
H1278 H 0.58432 0.15338 0.15519 0.0
H1279 H 0.56042 1.12543 0.16705 0.0
C1280 C 0.32866 0.50862 0.50309 0.0
C1281 C 0.33261 0.51626 0.46984 0.0
C1282 C 0.35173 0.50682 0.52556 0.0
C1283 C 0.37978 0.51391 0.51534 0.0
C1284 C 0.38382 0.52217 0.48189 0.0
C1285 C 0.36048 0.52261 0.45953 0.0
C1286 C 0.34605 0.49676 0.56026 0.0
C1287 C 0.41283 0.53097 0.46976 0.0
C1288 C 0.43071 0.53514 0.58597 0.0
C1289 C 0.44824 0.51128 0.58968 0.0
C1290 C 0.40955 0.53675 0.5611 0.0
C1291 C 0.40446 0.51337 0.53991 0.0
C1292 C 0.42225 0.48918 0.54347 0.0
C1293 C 0.44414 0.48863 0.56774 0.0
C1294 C 0.39227 0.56347 0.55791 0.0
C1295 C 0.4173 0.46327 0.52262 0.0
H1296 H 0.30747 0.50315 0.51144 0.0
H1297 H 0.36398 0.52844 0.434 0.0
H1298 H 0.35943 0.478 0.56568 0.0
H1299 H 0.35192 0.5134 0.57826 0.0
H1300 H 0.32337 0.49108 0.56419 0.0
H1301 H 0.41245 0.53789 0.44358 0.0
H1302 H 0.42104 0.54853 0.48519 0.0
H1303 H 0.42804 0.51318 0.47216 0.0
H1304 H 0.43354 0.55275 0.60276 0.0
H1305 H 0.45711 0.46987 0.57064 0.0
H1306 H 0.3699 0.55934 0.56515 0.0
H1307 H 0.39209 0.57067 0.53186 0.0
H1308 H 0.40068 0.58076 0.57365 0.0
H1309 H 0.39568 0.45484 0.52757 0.0
H1310 H 0.43314 0.44639 0.52765 0.0
H1311 H 0.41822 0.46873 0.49605 0.0
C1312 C 1.00929 0.20154 0.30882 0.0
C1313 C 1.01446 0.19325 0.34158 0.0
C1314 C 1.00689 0.18143 0.28277 0.0
C1315 C 1.01109 0.1521 0.28897 0.0
C1316 C 1.01745 0.14385 0.32186 0.0
C1317 C 1.0184 0.1642 0.34754 0.0
C1318 C 0.99909 0.19156 0.2487 0.0
C1319 C 1.02359 1.11337 0.33002 0.0
C1320 C 0.98258 1.09216 0.23264 0.0
C1321 C 1.00609 1.08575 0.21248 0.0
C1322 C 0.98346 1.1144 0.25624 0.0
C1323 C 1.00897 1.13 0.26146 0.0
C1324 C 1.0329 1.12322 0.2414 0.0
C1325 C 1.03095 1.10184 0.21689 0.0
C1326 C 0.95701 1.12105 0.27588 0.0
C1327 C 1.06108 0.13772 0.24675 0.0
H1328 H 1.00654 0.22377 0.30366 0.0
H1329 H 1.02274 0.15725 0.37251 0.0
H1330 H 1.015 0.18416 0.2304 0.0
H1331 H 0.97824 0.18246 0.24149 0.0
H1332 H 0.99763 0.21492 0.24731 0.0
H1333 H 1.03039 1.1105 0.35606 0.0
H1334 H 1.00435 1.10038 0.32567 0.0
H1335 H 1.0406 1.10515 0.31359 0.0
H1336 H 0.9633 1.07987 0.22978 0.0
H1337 H 1.04948 1.09684 0.20205 0.0
H1338 H 0.95246 0.14403 0.27494 0.0
H1339 H 0.96037 1.11538 0.30213 0.0
H1340 H 0.93813 1.10941 0.26661 0.0
H1341 H 1.05856 0.1609 0.24439 0.0
H1342 H 1.07758 1.13052 0.22898 0.0
H1343 H 1.06876 0.13342 0.27216 0.0
C1344 C 0.34752 0.77904 0.09039 0.0
C1345 C 0.32307 0.76191 0.08994 0.0
C1346 C 0.36842 0.77771 0.06515 0.0
C1347 C 0.36576 0.75796 0.0389 0.0
C1348 C 0.341 0.74063 0.03826 0.0
C1349 C 0.31995 0.74305 0.06339 0.0
C1350 C 0.39372 0.79725 0.06697 0.0
C1351 C 0.33724 0.71867 0.01167 0.0
C1352 C 0.41155 0.76839 0.96013 0.0
C1353 C 0.43596 0.75204 0.96669 0.0
C1354 C 0.38863 0.77028 -0.01704 0.0
C1355 C 0.38935 0.7549 0.0131 0.0
C1356 C 0.41352 0.73756 0.01922 0.0
C1357 C 0.43649 0.73672 -0.00356 0.0
C1358 C 0.36406 0.78973 0.97536 0.0
C1359 C 0.41541 0.72012 0.05027 0.0
H1360 H 0.35044 0.79353 0.11083 0.0
H1361 H 0.30164 0.72922 0.06301 0.0
H1362 H 0.41337 0.78484 0.07144 0.0
H1363 H 0.39652 0.80847 0.04316 0.0
H1364 H 0.39151 0.81315 0.08699 0.0
H1365 H 0.31668 0.70728 0.01392 0.0
H1366 H 0.33831 0.72865 -0.01304 0.0
H1367 H 0.35486 0.70308 0.01306 0.0
H1368 H 0.41085 0.78076 0.93766 0.0
H1369 H 0.45509 0.72407 0.0021 0.0
H1370 H 0.36309 0.80675 -0.00583 0.0
H1371 H 0.34366 0.77804 0.97663 0.0
H1372 H 0.36596 0.79954 0.95057 0.0
H1373 H 0.41717 0.73422 0.07203 0.0
H1374 H 0.43404 0.70567 0.05007 0.0
H1375 H 0.39577 0.70742 0.0534 0.0
C1376 C 0.74398 0.16624 0.71192 0.0
C1377 C 0.7671 0.18508 0.71091 0.0
C1378 C 0.74206 0.14456 0.73602 0.0
C1379 C 0.76443 0.14034 0.75917 0.0
C1380 C 0.78838 0.15866 0.75733 0.0
C1381 C 0.78907 0.18108 0.73402 0.0
C1382 C 0.71545 1.12684 0.73749 0.0
C1383 C 0.81333 0.15474 0.78028 0.0
C1384 C 0.75091 1.10502 0.84377 0.0
C1385 C 0.75879 1.07664 0.83859 0.0
C1386 C 0.75178 1.12539 0.81817 0.0
C1387 C 0.76206 1.11799 0.78632 0.0
C1388 C 0.77009 1.08932 0.78089 0.0
C1389 C 0.76783 1.06906 0.80673 0.0
C1390 C 0.7415 0.15498 0.8253 0.0
C1391 C 0.78214 1.08015 0.7481 0.0
H1392 H 0.72659 0.16927 0.69473 0.0
H1393 H 0.807 0.19544 0.73376 0.0
H1394 H 0.7209 1.10418 0.73478 0.0
H1395 H 0.70511 1.12949 0.76194 0.0
H1396 H 0.69989 0.13265 0.71801 0.0
H1397 H 0.83158 0.16847 0.77357 0.0
H1398 H 0.80684 0.15973 0.80594 0.0
H1399 H 0.82048 0.1324 0.77988 0.0
H1400 H 0.74363 1.11135 0.86806 0.0
H1401 H 0.77398 1.04741 0.80232 0.0
H1402 H 0.72536 0.16142 0.80675 0.0
H1403 H 0.75948 0.17002 0.82341 0.0
H1404 H 0.73197 0.15694 0.85029 0.0
H1405 H 0.769 1.08822 0.72743 0.0
H1406 H 0.78363 1.05682 0.74603 0.0
H1407 H 0.8038 1.08915 0.74521 0.0
C1408 C 0.6478 0.2507 0.86962 0.0
C1409 C 0.61799 0.25049 0.8682 0.0
C1410 C 0.66413 0.25218 0.84068 0.0
C1411 C 0.65023 0.25377 0.80975 0.0
C1412 C 0.62014 0.25476 0.80832 0.0
C1413 C 0.60436 0.25293 0.8376 0.0
C1414 C 0.69618 0.25079 0.84313 0.0
C1415 C 0.6046 0.25686 0.7758 0.0
C1416 C 0.69142 0.2759 0.73344 0.0
C1417 C 0.69598 0.2498 0.71804 0.0
C1418 C 0.67679 0.27758 0.76358 0.0
C1419 C 0.66698 0.25249 0.77872 0.0
C1420 C 0.67233 0.22602 0.76365 0.0
C1421 C 0.68656 0.22504 0.7333 0.0
C1422 C 0.67146 0.30616 0.77891 0.0
C1423 C 0.66282 0.19874 0.77942 0.0
H1424 H 0.65833 0.24856 0.89328 0.0
H1425 H 0.5813 0.25307 0.83658 0.0
H1426 H 0.70389 0.23078 0.83199 0.0
H1427 H 0.706 0.26834 0.82909 0.0
H1428 H 0.70371 0.25181 0.86909 0.0
H1429 H 0.58127 0.25949 0.77912 0.0
H1430 H 0.61279 0.27495 0.7613 0.0
H1431 H 0.60845 0.23747 0.76107 0.0
H1432 H 0.69889 0.29506 0.7217 0.0
H1433 H 0.69044 0.20482 0.72157 0.0
H1434 H 0.68002 0.30674 0.8044 0.0
H1435 H 0.64821 0.31007 0.78058 0.0
H1436 H 0.68132 0.32353 0.7645 0.0
H1437 H 0.67133 0.19719 0.80489 0.0
H1438 H 0.66995 0.1799 0.76528 0.0
H1439 H 0.63926 0.19834 0.78119 0.0
C1440 C 0.74861 0.87697 0.10882 0.0
C1441 C 0.77652 0.8713 0.11929 0.0
C1442 C 0.74335 0.89031 0.07847 0.0
C1443 C 0.76655 0.89828 0.05825 0.0
C1444 C 0.79472 0.89225 0.06845 0.0
C1445 C 0.79934 0.87873 0.09873 0.0
C1446 C 0.71303 0.89645 0.06842 0.0
C1447 C 0.82006 0.90052 0.04763 0.0
C1448 C 0.75835 0.9149 0.96702 0.0
C1449 C 0.75959 0.94443 0.96733 0.0
C1450 C 0.75934 0.89951 -0.00337 0.0
C1451 C 0.76171 0.91408 0.02706 0.0
C1452 C 0.76168 0.94395 0.02748 0.0
C1453 C 0.76052 0.95874 -0.00239 0.0
C1454 C 0.75899 0.86768 -0.00473 0.0
C1455 C 0.76415 0.96033 0.05935 0.0
H1456 H 0.73087 0.87154 0.12468 0.0
H1457 H 0.82093 0.87391 0.10629 0.0
H1458 H 0.70954 0.9196 0.06767 0.0
H1459 H 0.70889 0.8882 0.04324 0.0
H1460 H 0.69734 0.88702 0.0857 0.0
H1461 H 0.84055 0.89361 0.05868 0.0
H1462 H 0.8182 0.89115 0.02263 0.0
H1463 H 0.82061 0.92379 0.0446 0.0
H1464 H 0.75733 0.90382 0.94363 0.0
H1465 H 0.76117 0.98161 -0.00202 0.0
H1466 H 0.74281 0.85921 0.01255 0.0
H1467 H 0.77998 0.85934 0.00317 0.0
H1468 H 0.75436 0.85965 0.97007 0.0
H1469 H 0.74806 0.95296 0.07741 0.0
H1470 H 0.76132 0.9834 0.05562 0.0
H1471 H 0.78544 0.95666 0.0704 0.0
C1472 C 1.08926 1.04475 0.23156 0.0
C1473 C 1.07423 1.02131 0.2199 0.0
C1474 C 1.10121 1.04478 0.26322 0.0
C1475 C 1.0981 1.02071 0.28361 0.0
C1476 C 1.08294 0.99691 0.27191 0.0
C1477 C 1.07105 0.99756 0.24016 0.0
C1478 C 1.11696 1.07069 0.27494 0.0
C1479 C 1.07868 0.97102 0.29304 0.0
C1480 C 0.15235 1.01448 0.35237 0.0
C1481 C 0.13766 1.02669 0.37891 0.0
C1482 C 0.13933 1.01142 0.32145 0.0
C1483 C 1.11093 1.02069 0.31708 0.0
C1484 C 1.09557 1.03185 0.34417 0.0
C1485 C 1.10916 1.03478 0.37479 0.0
C1486 C 0.15629 0.99927 0.29313 0.0
C1487 C 1.06502 1.04127 0.34057 0.0
H1488 H 1.09149 1.06323 0.21603 0.0
H1489 H 1.05908 0.97954 0.23131 0.0
H1490 H 1.10641 1.07944 0.29722 0.0
H1491 H 0.13905 1.06497 0.28199 0.0
H1492 H 1.11781 1.08747 0.25583 0.0
H1493 H 1.0717 0.95258 0.27819 0.0
H1494 H 1.09851 0.9653 0.30631 0.0
H1495 H 1.0621 0.97547 0.31185 0.0
H1496 H 0.17444 1.00836 0.35541 0.0
H1497 H 1.09762 1.04378 0.39545 0.0
H1498 H 0.15933 1.01565 0.2739 0.0
H1499 H 0.1445 0.98155 0.28159 0.0
H1500 H 0.17753 0.9915 0.30107 0.0
H1501 H 1.06327 1.05744 0.3209 0.0
H1502 H 1.05628 1.05021 0.36383 0.0
H1503 H 1.05165 1.02311 0.33299 0.0
C1504 C 1.01085 0.31574 0.49579 0.0
C1505 C 1.01397 0.32843 0.46478 0.0
C1506 C 1.01142 0.33187 0.52473 0.0
C1507 C 1.01535 0.36142 0.52259 0.0
C1508 C 1.02006 0.37416 0.49144 0.0
C1509 C 1.01919 0.35746 0.46279 0.0
C1510 C 1.00638 0.31742 0.55742 0.0
C1511 C 1.02481 0.40553 0.48827 0.0
C1512 C 0.97961 0.40279 0.59093 0.0
C1513 C 1.00221 0.40746 0.61285 0.0
C1514 C 0.98386 0.38861 0.561 0.0
C1515 C 1.01148 0.37908 0.55256 0.0
C1516 C 1.03466 0.38474 0.57387 0.0
C1517 C 1.02973 0.39884 0.60387 0.0
C1518 C 0.95855 0.38294 0.53898 0.0
C1519 C 1.06442 0.37498 0.56559 0.0
H1520 H 1.00705 0.29323 0.49745 0.0
H1521 H 1.02201 0.36722 0.43882 0.0
H1522 H 1.02313 0.32338 0.57539 0.0
H1523 H 0.98565 0.32438 0.56777 0.0
H1524 H 1.0061 0.29406 0.55506 0.0
H1525 H 1.03173 0.41155 0.46302 0.0
H1526 H 1.00475 0.4169 0.49404 0.0
H1527 H 1.04109 0.41274 0.50622 0.0
H1528 H 0.9584 0.40996 0.59739 0.0
H1529 H 1.04727 0.40226 0.62076 0.0
H1530 H 0.95494 0.35985 0.53709 0.0
H1531 H 0.96272 0.39088 0.5137 0.0
H1532 H 0.93875 0.39298 0.54837 0.0
H1533 H 1.06549 0.35162 0.5669 0.0
H1534 H 1.08053 0.38384 0.58277 0.0
H1535 H 1.07009 0.38113 0.54001 0.0
C1536 C 0.64465 1.00825 0.10114 0.0
C1537 C 0.64025 1.03168 0.08063 0.0
C1538 C 0.63123 1.00635 0.13194 0.0
C1539 C 0.61274 1.02825 0.1422 0.0
C1540 C 0.60739 1.05145 0.12117 0.0
C1541 C 0.62142 1.05302 0.09075 0.0
C1542 C 0.63726 0.98126 0.15379 0.0
C1543 C 0.58726 1.07487 0.1311 0.0
C1544 C 0.56148 1.01358 0.21224 0.0
C1545 C 0.57504 1.02723 0.23846 0.0
C1546 C 0.5733 1.014 0.18051 0.0
C1547 C 0.5998 1.02751 0.17548 0.0
C1548 C 0.61376 1.04095 0.20217 0.0
C1549 C 0.6009 1.04107 0.23333 0.0
C1550 C 0.55732 1.00016 0.15253 0.0
C1551 C 0.64219 1.0553 0.19775 0.0
H1552 H 0.65875 0.99144 0.0932 0.0
H1553 H 0.61815 1.07138 0.07527 0.0
H1554 H 0.64654 0.98848 0.17752 0.0
H1555 H 0.61713 0.97012 0.15962 0.0
H1556 H 0.6522 0.96602 0.14213 0.0
H1557 H 0.58403 1.09052 0.11106 0.0
H1558 H 0.56627 1.06597 0.13811 0.0
H1559 H 0.59577 1.08603 0.15305 0.0
H1560 H 0.54111 1.0035 0.21635 0.0
H1561 H 0.6112 1.0517 0.2538 0.0
H1562 H 0.56701 0.97929 0.14718 0.0
H1563 H 0.55852 1.01297 0.12968 0.0
H1564 H 0.53454 0.99692 0.15874 0.0
H1565 H 0.65785 1.0402 0.18726 0.0
H1566 H 0.65074 1.0637 0.22135 0.0
H1567 H 0.6401 1.073 0.18003 0.0
C1568 C 0.50894 0.40693 0.86205 0.0
C1569 C 0.4957 0.39431 0.83478 0.0
C1570 C 0.51121 0.39264 0.89219 0.0
C1571 C 0.50008 0.36502 0.89506 0.0
C1572 C 0.48771 0.3517 0.86728 0.0
C1573 C 0.48565 0.36653 0.83742 0.0
C1574 C 0.52456 0.40751 0.9213 0.0
C1575 C 0.47583 0.32216 0.86943 0.0
C1576 C 0.52263 0.32226 0.96977 0.0
C1577 C 0.49943 0.32646 -0.00904 0.0
C1578 C 0.52299 0.33426 0.93815 0.0
C1579 C 0.49964 0.35094 0.92774 0.0
C1580 C 0.47602 0.35491 0.94897 0.0
C1581 C 0.47616 0.3425 -0.01967 0.0
C1582 C 0.54832 0.32917 0.91597 0.0
C1583 C 0.45067 0.37245 0.93866 0.0
H1584 H 0.51718 0.42821 0.85994 0.0
H1585 H 0.47522 0.35675 0.81648 0.0
H1586 H 0.50834 0.41073 0.94086 0.0
H1587 H 0.54177 0.39434 0.932 0.0
H1588 H 0.53357 0.42838 0.91449 0.0
H1589 H 0.46733 0.31462 0.84542 0.0
H1590 H 0.49262 0.30733 0.87782 0.0
H1591 H 0.45848 0.32145 0.88798 0.0
H1592 H 0.54048 0.30947 -0.02217 0.0
H1593 H 0.45805 0.34543 -0.00342 0.0
H1594 H 0.55851 0.34955 0.90958 0.0
H1595 H 0.54129 0.31929 0.89252 0.0
H1596 H 0.56451 0.31528 0.92763 0.0
H1597 H 0.45757 0.39431 0.93302 0.0
H1598 H 0.43397 0.37332 0.95806 0.0
H1599 H 0.44113 0.36363 0.91584 0.0
C1600 C 0.20771 0.26428 0.71155 0.0
C1601 C 0.19359 0.26889 0.74152 0.0
C1602 C 0.19282 0.26439 0.68165 0.0
C1603 C 0.16309 0.26918 0.68184 0.0
C1604 C 0.14897 0.27534 0.71188 0.0
C1605 C 0.16444 0.27507 0.7415 0.0
C1606 C 0.20871 0.25782 0.65015 0.0
C1607 C 1.11734 0.28087 0.71294 0.0
C1608 C 1.1285 0.28091 0.59829 0.0
C1609 C 1.11958 0.25346 0.59045 0.0
C1610 C 0.14195 0.28668 0.62849 0.0
C1611 C 0.14652 0.26445 0.6512 0.0
C1612 C 0.13675 0.23692 0.6438 0.0
C1613 C 1.12332 0.23181 0.61358 0.0
C1614 C 0.15214 0.31628 0.63561 0.0
C1615 C 0.14126 0.21263 0.66739 0.0
H1616 H 0.2303 0.25961 0.71149 0.0
H1617 H 0.1536 0.27897 0.76469 0.0
H1618 H 0.20226 0.23671 0.64095 0.0
H1619 H 0.20334 0.27341 0.63072 0.0
H1620 H 0.23215 0.2578 0.65378 0.0
H1621 H 1.11032 0.28893 0.73739 0.0
H1622 H 1.11119 0.29638 0.69371 0.0
H1623 H 1.10572 0.261 0.70765 0.0
H1624 H 1.12576 0.29769 0.58039 0.0
H1625 H 1.11593 0.21069 0.6079 0.0
H1626 H 0.17575 0.31667 0.63588 0.0
H1627 H 0.14479 0.32322 0.66034 0.0
H1628 H 0.14451 0.33166 0.61691 0.0
H1629 H 0.16439 0.20874 0.67061 0.0
H1630 H 1.13118 0.19282 0.65856 0.0
H1631 H 1.13239 0.21791 0.69201 0.0
C1632 C 0.25073 0.96171 0.45877 0.0
C1633 C 0.25537 0.94786 0.48881 0.0
C1634 C 0.24982 0.94661 0.42905 0.0
C1635 C 0.25459 0.91711 0.42943 0.0
C1636 C 0.2581 0.90288 0.45989 0.0
C1637 C 0.25812 0.91845 0.48934 0.0
C1638 C 0.24521 0.96247 0.3972 0.0
C1639 C 0.2636 0.8715 0.46125 0.0
C1640 C 0.24196 0.87285 0.35257 0.0
C1641 C 0.26943 0.87177 0.33896 0.0
C1642 C 0.2366 0.88789 0.38181 0.0
C1643 C 0.25932 0.90176 0.39798 0.0
C1644 C 0.28702 0.90085 0.3843 0.0
C1645 C 0.29166 0.88611 0.35485 0.0
C1646 C 0.2067 0.88892 0.39543 0.0
C1647 C 0.31186 0.91534 0.40087 0.0
H1648 H 0.2485 0.98448 0.45838 0.0
H1649 H 0.26158 0.90773 0.51262 0.0
H1650 H 0.26565 0.96397 0.38359 0.0
H1651 H 0.2299 0.95113 0.38113 0.0
H1652 H 0.23711 0.9842 0.40158 0.0
H1653 H 0.26326 0.86328 0.48692 0.0
H1654 H 0.24752 0.85993 0.4465 0.0
H1655 H 0.28476 0.86686 0.45032 0.0
H1656 H 0.22471 0.86165 0.3406 0.0
H1657 H 0.31279 0.88598 0.34412 0.0
H1658 H 0.19976 0.91118 0.39833 0.0
H1659 H 0.20612 0.87912 0.42027 0.0
H1660 H 0.19123 0.8778 0.37929 0.0
H1661 H 0.30783 0.93838 0.4025 0.0
H1662 H 0.3322 0.91196 0.38744 0.0
H1663 H 0.31436 0.90738 0.42645 0.0
C1664 C 1.12163 0.7766 0.35781 0.0
C1665 C 1.12526 0.75081 0.37436 0.0
C1666 C 1.13505 0.78167 0.32741 0.0
C1667 C 0.15205 0.76028 0.31303 0.0
C1668 C 0.15617 0.73442 0.32983 0.0
C1669 C 0.14296 0.73013 0.36039 0.0
C1670 C 1.13066 0.80971 0.31046 0.0
C1671 C 0.17416 0.71103 0.31527 0.0
C1672 C 0.16371 0.75547 0.22071 0.0
C1673 C 0.19244 0.76281 0.21833 0.0
C1674 C 0.14982 0.75575 0.25136 0.0
C1675 C 0.16496 0.76426 0.27993 0.0
C1676 C 0.19342 0.7737 0.27709 0.0
C1677 C 0.20697 0.77249 0.24631 0.0
C1678 C 1.11955 0.74524 0.25346 0.0
C1679 C 0.20999 0.78381 0.30675 0.0
H1680 H 1.10781 0.79262 0.36823 0.0
H1681 H 0.14647 0.71044 0.37335 0.0
H1682 H 0.15151 0.81926 0.30415 0.0
H1683 H 1.11895 0.80653 0.28699 0.0
H1684 H 1.1185 0.82483 0.32601 0.0
H1685 H 0.17505 0.69212 0.33143 0.0
H1686 H 0.16544 0.70463 0.29094 0.0
H1687 H 0.19619 0.7186 0.31109 0.0
H1688 H 0.15253 0.74805 0.19897 0.0
H1689 H 0.22914 0.77859 0.24424 0.0
H1690 H 1.10607 0.76053 0.26711 0.0
H1691 H 1.11908 0.72506 0.26734 0.0
H1692 H 1.11005 0.74164 0.22871 0.0
H1693 H 0.19725 0.7992 0.32121 0.0
H1694 H 0.23045 0.79388 0.29964 0.0
H1695 H 0.21472 0.76568 0.32316 0.0
C1696 C 0.24584 0.37625 0.61334 0.0
C1697 C 0.27375 0.37002 0.62332 0.0
C1698 C 0.24043 0.38887 0.58262 0.0
C1699 C 0.26352 0.3955 0.56158 0.0
C1700 C 0.29166 0.38876 0.57125 0.0
C1701 C 0.2964 0.37599 0.6019 0.0
C1702 C 0.21015 0.39579 0.5731 0.0
C1703 C 0.31687 0.39567 0.54955 0.0
C1704 C 0.25528 0.411 0.47023 0.0
C1705 C 0.25795 0.44042 0.46996 0.0
C1706 C 0.25562 0.39603 0.50013 0.0
C1707 C 0.25876 0.41096 0.53022 0.0
C1708 C 0.26011 0.44078 0.53005 0.0
C1709 C 0.25968 0.45512 0.49991 0.0
C1710 C 0.25383 0.36424 0.49944 0.0
C1711 C 0.2633 0.45751 0.56159 0.0
H1712 H 0.22825 0.37189 0.62987 0.0
H1713 H 0.31796 0.37069 0.60914 0.0
H1714 H 0.20727 0.41902 0.57238 0.0
H1715 H 0.20542 0.38763 0.54802 0.0
H1716 H 0.19447 0.38681 0.59071 0.0
H1717 H 0.33728 0.38801 0.56014 0.0
H1718 H 0.31408 0.38611 0.52477 0.0
H1719 H 0.31836 0.41886 0.54614 0.0
H1720 H 0.25366 0.39964 0.44707 0.0
H1721 H 0.26154 0.4779 0.49979 0.0
H1722 H 0.23766 0.35672 0.51733 0.0
H1723 H 0.2746 0.35512 0.50692 0.0
H1724 H 0.24834 0.35607 0.47453 0.0
H1725 H 0.24613 0.45191 0.57918 0.0
H1726 H 0.26263 0.48065 0.55724 0.0
H1727 H 0.28386 0.45218 0.57355 0.0
C1728 C 0.56808 0.51595 0.74762 0.0
C1729 C 0.5814 0.51127 0.71714 0.0
C1730 C 0.58391 0.51732 0.77679 0.0
C1731 C 0.61377 0.51361 0.77549 0.0
C1732 C 0.62723 0.50769 0.74496 0.0
C1733 C 0.61083 0.5067 0.716 0.0
C1734 C 0.56876 0.52382 0.80882 0.0
C1735 C 0.65899 0.50327 0.74277 0.0
C1736 C 0.65388 0.54979 0.84448 0.0
C1737 C 0.65782 0.52763 0.86695 0.0
C1738 C 0.64039 0.54528 0.81412 0.0
C1739 C 0.63088 0.51785 0.80585 0.0
C1740 C 0.63578 0.49514 0.82778 0.0
C1741 C 0.64911 0.50032 0.85818 0.0
C1742 C 0.63542 0.57008 0.79141 0.0
C1743 C 0.62597 0.46559 0.81971 0.0
H1744 H 0.54526 0.51931 0.74862 0.0
H1745 H 0.62108 0.5028 0.69245 0.0
H1746 H 0.57412 0.50775 0.82771 0.0
H1747 H 0.57593 0.54458 0.81839 0.0
H1748 H 0.54526 0.52449 0.80585 0.0
H1749 H 0.66579 0.49637 0.71776 0.0
H1750 H 0.67011 0.52324 0.74889 0.0
H1751 H 0.66596 0.48723 0.761 0.0
H1752 H 0.66113 0.57083 0.85077 0.0
H1753 H 0.65189 0.48312 0.87549 0.0
H1754 H 0.61223 0.57392 0.78879 0.0
H1755 H 0.64391 0.56541 0.76645 0.0
H1756 H 0.64555 0.58972 0.80067 0.0
H1757 H 0.60237 0.46485 0.81983 0.0
H1758 H 0.63407 0.44982 0.83769 0.0
H1759 H 0.63312 0.45944 0.79461 0.0
C1760 C 0.4942 0.82411 -0.00583 0.0
C1761 C 0.50946 0.83278 0.96628 0.0
C1762 C 0.49339 0.84079 0.02268 0.0
C1763 C 0.50904 0.8663 0.02368 0.0
C1764 C 0.52531 0.87467 -0.0041 0.0
C1765 C 0.52493 0.85797 0.96721 0.0
C1766 C 0.47518 0.83143 0.05139 0.0
C1767 C 0.54296 0.90126 -0.00357 0.0
C1768 C 0.48222 0.92075 0.08483 0.0
C1769 C 0.49895 0.91498 0.11274 0.0
C1770 C 0.48582 0.90558 0.0554 0.0
C1771 C 0.50721 0.88461 0.05341 0.0
C1772 C 0.52523 0.87967 0.0808 0.0
C1773 C 0.52068 0.89468 0.11025 0.0
C1774 C 0.4659 0.91121 0.02688 0.0
C1775 C 0.54864 0.85782 0.07938 0.0
H1776 H 0.48213 0.80463 -0.00665 0.0
H1777 H 0.537 0.86439 0.94567 0.0
H1778 H 0.48843 0.82907 0.07386 0.0
H1779 H 0.4588 0.8477 0.05678 0.0
H1780 H 0.46424 0.81107 0.04651 0.0
H1781 H 0.55618 0.90355 0.97384 0.0
H1782 H 0.52885 0.91994 -0.00144 0.0
H1783 H 0.55717 0.90129 0.0183 0.0
H1784 H 0.46591 0.93689 0.08609 0.0
H1785 H 0.53362 0.88979 0.13162 0.0
H1786 H 0.45319 0.89199 0.02163 0.0
H1787 H 0.4782 0.91616 0.00427 0.0
H1788 H 0.45105 0.92895 0.03197 0.0
H1789 H 0.5392 0.8364 0.07827 0.0
H1790 H 0.5629 0.8589 0.10122 0.0
H1791 H 0.56162 0.86063 0.05674 0.0
C1792 C 0.14764 0.493 0.59781 0.0
C1793 C 0.15576 0.52035 0.58848 0.0
C1794 C 1.13488 0.48798 0.62859 0.0
C1795 C 1.12999 0.51092 0.65027 0.0
C1796 C 0.13905 0.53836 0.64144 0.0
C1797 C 0.15197 0.54269 0.61076 0.0
C1798 C 1.12562 0.45841 0.63729 0.0
C1799 C 1.13405 0.56341 0.66384 0.0
C1800 C 1.06796 0.51203 0.70932 0.0
C1801 C 1.08167 0.5093 0.73982 0.0
C1802 C 1.08331 0.51105 0.6798 0.0
C1803 C 1.11314 0.50707 0.68087 0.0
C1804 C 1.12691 0.50259 0.71152 0.0
C1805 C 1.11095 0.50387 0.7408 0.0
C1806 C 1.06777 0.51579 0.64764 0.0
C1807 C 0.15862 0.49776 0.71349 0.0
H1808 H 0.1504 0.47565 0.58065 0.0
H1809 H 0.15882 0.56374 0.604 0.0
H1810 H 1.13232 0.45298 0.66276 0.0
H1811 H 1.10205 0.45709 0.63646 0.0
H1812 H 1.13448 0.44246 0.61999 0.0
H1813 H 0.14383 0.58304 0.65411 0.0
H1814 H 1.11084 0.56702 0.66675 0.0
H1815 H 0.1429 0.55919 0.68873 0.0
H1816 H 1.04524 0.51587 0.70849 0.0
H1817 H 1.12149 0.50136 0.76442 0.0
H1818 H 1.07279 0.49865 0.62991 0.0
H1819 H 1.07491 0.53593 0.63641 0.0
H1820 H 1.04431 0.51674 0.651 0.0
H1821 H 0.16541 0.48175 0.6951 0.0
H1822 H 0.16536 0.49068 0.73843 0.0
H1823 H 0.16991 0.51767 0.70759 0.0
C1824 C 1.02725 0.91132 0.35697 0.0
C1825 C 0.99952 0.91222 0.34413 0.0
C1826 C 1.03324 0.89655 0.38618 0.0
C1827 C 1.01091 0.88264 0.403 0.0
C1828 C 0.9829 0.88352 0.3902 0.0
C1829 C 0.97759 0.89816 0.36086 0.0
C1830 C 1.06342 0.89569 0.39895 0.0
C1831 C 0.9585 0.86896 0.4075 0.0
C1832 C 1.02199 0.82224 0.46251 0.0
C1833 C 1.01757 0.83569 0.49287 0.0
C1834 C 1.02174 0.83762 0.43301 0.0
C1835 C 1.01648 0.86703 0.43404 0.0
C1836 C 1.01351 0.88091 0.46482 0.0
C1837 C 1.01432 0.86504 0.494 0.0
C1838 C 1.02555 0.82211 0.40074 0.0
C1839 C 1.00774 0.91222 0.46688 0.0
H1840 H 1.04425 0.92236 0.34434 0.0
H1841 H 0.95624 0.89827 0.35075 0.0
H1842 H 1.06434 0.90479 0.42416 0.0
H1843 H 1.07077 0.87348 0.40073 0.0
H1844 H 1.07837 0.9075 0.38284 0.0
H1845 H 0.93797 0.87169 0.39427 0.0
H1846 H 0.96297 0.84606 0.40975 0.0
H1847 H 0.95613 0.87747 0.43288 0.0
H1848 H 1.02493 0.79954 0.46174 0.0
H1849 H 1.01109 0.87545 0.51754 0.0
H1850 H 1.0403 0.83373 0.38426 0.0
H1851 H 1.00474 0.82062 0.38793 0.0
H1852 H 1.03392 0.80039 0.40443 0.0
H1853 H 1.02325 0.92408 0.45164 0.0
H1854 H 1.00877 0.92021 0.49264 0.0
H1855 H 0.98621 0.91674 0.4569 0.0
C1856 C 0.62003 0.73669 0.11517 0.0
C1857 C 0.6173 0.75809 0.09155 0.0
C1858 C 0.63364 0.74172 0.14526 0.0
C1859 C 0.64461 0.76891 0.152 0.0
C1860 C 0.64084 0.791 0.12892 0.0
C1861 C 0.6272 0.78531 0.09883 0.0
C1862 C 0.63723 0.7176 0.16929 0.0
C1863 C 0.65221 0.82027 0.13542 0.0
C1864 C 0.66449 0.77865 0.24175 0.0
C1865 C 0.69323 0.77086 0.24106 0.0
C1866 C 0.64861 0.78 0.21247 0.0
C1867 C 0.66191 0.7732 0.18212 0.0
C1868 C 0.69136 0.76694 0.18123 0.0
C1869 C 0.70667 0.76584 0.21078 0.0
C1870 C 0.61735 0.78723 0.21425 0.0
C1871 C 0.70638 0.75969 0.14935 0.0
H1872 H 0.61181 0.7158 0.10989 0.0
H1873 H 0.62515 0.80188 0.08056 0.0
H1874 H 0.66019 0.71268 0.17228 0.0
H1875 H 0.62887 0.72364 0.19391 0.0
H1876 H 0.62614 0.69815 0.161 0.0
H1877 H 0.64451 0.83581 0.11694 0.0
H1878 H 0.64592 0.82756 0.16041 0.0
H1879 H 0.67582 0.81988 0.13462 0.0
H1880 H 0.65424 0.78298 0.26519 0.0
H1881 H 0.72899 0.76004 0.21021 0.0
H1882 H 0.6046 0.76786 0.21008 0.0
H1883 H 0.61155 0.80254 0.19467 0.0
H1884 H 0.61137 0.79624 0.23862 0.0
H1885 H 0.69874 0.73894 0.14027 0.0
H1886 H 0.72985 0.75854 0.15245 0.0
H1887 H 0.70146 0.77557 0.13009 0.0
C1888 C 0.76068 0.45936 0.9584 0.0
C1889 C 0.76007 0.44586 -0.01088 0.0
C1890 C 0.76022 0.44375 0.92903 0.0
C1891 C 0.75994 0.41392 0.93055 0.0
C1892 C 0.7584 0.4002 0.96154 0.0
C1893 C 0.75823 0.4164 -0.00947 0.0
C1894 C 0.76126 0.4592 0.89647 0.0
C1895 C 0.75837 0.36841 0.96414 0.0
C1896 C 0.74513 0.3712 0.85304 0.0
C1897 C 0.77283 0.36517 0.84208 0.0
C1898 C 0.7405 0.38725 0.88171 0.0
C1899 C 0.76413 0.39711 0.90001 0.0
C1900 C 0.7921 0.39105 0.88914 0.0
C1901 C 0.79609 0.37537 0.8602 0.0
C1902 C 0.71039 0.39376 0.89233 0.0
C1903 C 0.81787 0.40122 0.90801 0.0
H1904 H 0.76222 0.48216 0.95727 0.0
H1905 H 0.75764 0.40595 0.0143 0.0
H1906 H 0.78245 0.45613 0.88492 0.0
H1907 H 0.74511 0.45061 0.87922 0.0
H1908 H 0.75749 0.48222 0.89947 0.0
H1909 H 0.75482 0.36109 -0.01015 0.0
H1910 H 0.74162 0.35928 0.9481 0.0
H1911 H 0.77912 0.36002 0.95543 0.0
H1912 H 0.72704 0.36319 0.83936 0.0
H1913 H 0.81755 0.3714 0.85155 0.0
H1914 H 0.70726 0.41694 0.89382 0.0
H1915 H 0.70644 0.3851 0.91734 0.0
H1916 H 0.69435 0.38486 0.8751 0.0
H1917 H 0.81811 0.42462 0.90875 0.0
H1918 H 0.83815 0.39382 0.89685 0.0
H1919 H 0.8169 0.39367 0.9339 0.0
C1920 C 0.42248 0.26106 0.28303 0.0
C1921 C 0.45025 0.2635 0.27068 0.0
C1922 C 0.4138 0.27774 0.3098 0.0
C1923 C 0.43366 0.29644 0.3243 0.0
C1924 C 0.46295 0.29252 0.31799 0.0
C1925 C 0.47108 0.27608 0.29077 0.0
C1926 C 0.38255 0.27946 0.31794 0.0
C1927 C 0.48507 0.31007 0.33538 0.0
C1928 C 0.40719 0.37114 0.3151 0.0
C1929 C 0.39615 0.37693 0.34642 0.0
C1930 C 0.42079 0.34561 0.30832 0.0
C1931 C 0.42355 0.32508 0.33364 0.0
C1932 C 0.41427 0.33152 0.36602 0.0
C1933 C 0.4004 0.35736 0.37199 0.0
C1934 C 0.4304 0.34011 0.27325 0.0
C1935 C 0.41756 0.31096 0.39414 0.0
H1936 H 0.4066 0.24989 0.26867 0.0
H1937 H 0.49299 0.27708 0.28249 0.0
H1938 H 0.37937 0.28245 0.34483 0.0
H1939 H 0.37307 0.29788 0.30505 0.0
H1940 H 0.37105 0.26017 0.30993 0.0
H1941 H 0.50605 0.29925 0.33539 0.0
H1942 H 0.48752 0.33049 0.32227 0.0
H1943 H 0.47861 0.31461 0.36121 0.0
H1944 H 0.40362 0.38589 0.29508 0.0
H1945 H 0.39222 0.36188 0.39645 0.0
H1946 H 0.41799 0.32241 0.2627 0.0
H1947 H 0.45323 0.33423 0.27269 0.0
H1948 H 0.42746 0.35876 0.257 0.0
H1949 H 0.39714 0.29968 0.3979 0.0
H1950 H 0.42245 0.32238 0.41742 0.0
H1951 H 0.43453 0.29514 0.38954 0.0
C1952 C 0.62955 0.61509 0.34873 0.0
C1953 C 0.64526 0.62324 0.37662 0.0
C1954 C 0.60661 0.59618 0.35163 0.0
C1955 C 0.59876 0.58615 0.38328 0.0
C1956 C 0.61608 0.59281 0.411 0.0
C1957 C 0.63948 0.61053 0.40697 0.0
C1958 C 0.59041 0.58828 0.32087 0.0
C1959 C 0.60894 0.58324 0.44566 0.0
C1960 C 0.52902 0.58115 0.42262 0.0
C1961 C 0.53507 0.5567 0.44086 0.0
C1962 C 0.5474 0.58958 0.39726 0.0
C1963 C 0.57093 0.57217 0.38936 0.0
C1964 C 0.57097 0.54387 0.40024 0.0
C1965 C 0.55341 0.53648 0.4269 0.0
C1966 C 0.54472 0.61907 0.38364 0.0
C1967 C 0.59314 0.5233 0.38828 0.0
H1968 H 0.6342 0.62444 0.32493 0.0
H1969 H 0.65241 0.61581 0.42826 0.0
H1970 H 0.57501 0.57091 0.32493 0.0
H1971 H 0.57886 0.60708 0.31147 0.0
H1972 H 0.60559 0.58178 0.30126 0.0
H1973 H 0.62386 0.59181 0.46441 0.0
H1974 H 0.58719 0.59025 0.45238 0.0
H1975 H 0.60974 0.55992 0.44726 0.0
H1976 H 0.51312 0.59585 0.43168 0.0
H1977 H 0.55723 0.51663 0.43937 0.0
H1978 H 0.54697 0.61872 0.35643 0.0
H1979 H 0.56194 0.63253 0.39382 0.0
H1980 H 0.52392 0.62886 0.38997 0.0
H1981 H 0.59951 0.52809 0.36248 0.0
H1982 H 0.58506 0.50132 0.38965 0.0
H1983 H 0.61233 0.52475 0.40414 0.0
C1984 C 0.30281 0.83566 0.65353 0.0
C1985 C 0.3133 0.85954 0.67009 0.0
C1986 C 0.30963 0.80829 0.66438 0.0
C1987 C 0.32716 0.80494 0.69249 0.0
C1988 C 0.33637 0.8291 0.71031 0.0
C1989 C 0.32941 0.85595 0.69877 0.0
C1990 C 0.2981 0.78323 0.64567 0.0
C1991 C 0.35491 0.82688 0.74075 0.0
C1992 C 0.34802 0.75059 0.75185 0.0
C1993 C 0.37732 0.75143 0.745 0.0
C1994 C 0.32864 0.7635 0.73026 0.0
C1995 C 0.33921 0.77711 0.70181 0.0
C1996 C 0.36707 0.77086 0.6908 0.0
C1997 C 0.38605 0.75801 0.71275 0.0
C1998 C 0.29819 0.76729 0.741 0.0
C1999 C 0.37858 0.78302 0.6591 0.0
H2000 H 0.28972 0.83837 0.63174 0.0
H2001 H 0.33788 0.87426 0.71145 0.0
H2002 H 0.31359 0.76555 0.64481 0.0
H2003 H 0.27872 0.77549 0.6584 0.0
H2004 H 0.29212 0.78899 0.62002 0.0
H2005 H 0.35943 0.84779 0.752 0.0
H2006 H 0.34434 0.81365 0.75966 0.0
H2007 H 0.37554 0.81687 0.73437 0.0
H2008 H 0.34078 0.74375 0.77595 0.0
H2009 H 0.40842 0.75757 0.70629 0.0
H2010 H 0.2838 0.76835 0.71932 0.0
H2011 H 0.29615 0.78739 0.75492 0.0
H2012 H 0.29134 0.7498 0.7574 0.0
H2013 H 0.36215 0.78289 0.63946 0.0
H2014 H 0.3975 0.77107 0.65035 0.0
H2015 H 0.38509 0.80524 0.66341 0.0
C2016 C 0.25056 0.58748 0.02232 0.0
C2017 C 0.2478 0.59015 0.05667 0.0
C2018 C 0.23561 0.5664 0.00546 0.0
C2019 C 0.21779 0.5481 0.02369 0.0
C2020 C 0.2216 0.54594 0.05816 0.0
C2021 C 0.23668 0.5673 0.07457 0.0
C2022 C 0.23408 0.56786 0.96831 0.0
C2023 C 0.20534 0.52454 0.07808 0.0
C2024 C 0.14321 0.56061 -0.00643 0.0
C2025 C 0.13944 0.53839 0.9713 0.0
C2026 C 0.16775 0.56261 0.01276 0.0
C2027 C 0.18938 0.54181 0.00952 0.0
C2028 C 0.1848 0.51808 -0.01102 0.0
C2029 C 0.15977 0.51664 0.97001 0.0
C2030 C 0.17113 0.58826 0.03471 0.0
C2031 C 0.20626 0.49443 -0.01332 0.0
H2032 H 0.26024 0.60424 0.00806 0.0
H2033 H 0.23607 0.56826 0.1013 0.0
H2034 H 0.2321 0.54648 0.9574 0.0
H2035 H 0.21504 0.58028 0.96102 0.0
H2036 H 0.25319 0.57831 0.95779 0.0
H2037 H 0.21634 0.51996 0.10175 0.0
H2038 H 0.18388 0.53303 0.08388 0.0
H2039 H 0.20264 0.50463 0.06399 0.0
H2040 H 1.12776 0.5776 -0.00546 0.0
H2041 H 0.15649 0.49895 0.95347 0.0
H2042 H 0.18923 0.60129 0.02603 0.0
H2043 H 0.17554 0.58167 0.06043 0.0
H2044 H 0.15181 0.60181 0.03499 0.0
H2045 H 0.22842 0.50244 -0.01304 0.0
H2046 H 0.20311 0.4815 0.96408 0.0
H2047 H 0.20369 0.48045 0.00842 0.0
C2048 C 0.88853 1.01819 0.71501 0.0
C2049 C 0.895 1.0263 0.7475 0.0
C2050 C 0.90974 1.00697 0.69461 0.0
C2051 C 0.93757 1.00393 0.70743 0.0
C2052 C 0.94532 1.01932 0.73588 0.0
C2053 C 0.9237 1.03044 0.75597 0.0
C2054 C 0.90098 0.99294 0.66275 0.0
C2055 C 0.97554 1.01932 0.7482 0.0
C2056 C 0.95292 0.92615 0.70703 0.0
C2057 C 0.96829 0.92298 0.67772 0.0
C2058 C 0.94503 0.9528 0.71848 0.0
C2059 C 0.95262 0.97712 0.69998 0.0
C2060 C 0.97027 0.97429 0.67188 0.0
C2061 C 0.97792 0.94712 0.66102 0.0
C2062 C 0.92655 0.95445 0.74903 0.0
C2063 C 0.98069 0.99969 0.653 0.0
H2064 H 0.8666 1.01611 0.70718 0.0
H2065 H 0.92908 1.03861 0.78018 0.0
H2066 H 0.91783 0.99501 0.64376 0.0
H2067 H 0.89743 0.9701 0.66725 0.0
H2068 H 0.88092 1.00211 0.65294 0.0
H2069 H 0.97975 1.03812 0.76386 0.0
H2070 H 0.97925 1.00018 0.76338 0.0
H2071 H 0.9908 1.01898 0.72728 0.0
H2072 H 0.94527 0.90764 0.71996 0.0
H2073 H 0.99061 0.94471 0.63884 0.0
H2074 H 0.90515 0.9626 0.74248 0.0
H2075 H 0.93608 0.96898 0.76738 0.0
H2076 H 0.92376 0.93358 0.76107 0.0
H2077 H 0.96399 1.01616 0.65085 0.0
H2078 H 0.98813 0.99391 0.62786 0.0
H2079 H 0.99884 1.00916 0.66656 0.0
C2080 C 0.80363 0.33281 0.15397 0.0
C2081 C 0.81457 0.35648 0.17056 0.0
C2082 C 0.8101 0.3053 0.16465 0.0
C2083 C 0.82769 0.3016 0.19264 0.0
C2084 C 0.83754 0.32557 0.21035 0.0
C2085 C 0.83095 0.35256 0.19897 0.0
C2086 C 0.79805 0.2805 0.14592 0.0
C2087 C 0.85621 0.32298 0.24065 0.0
C2088 C 0.84646 0.24703 0.25262 0.0
C2089 C 0.87582 0.24695 0.24604 0.0
C2090 C 0.82763 0.26038 0.23074 0.0
C2091 C 0.83882 0.27347 0.20227 0.0
C2092 C 0.86652 0.26627 0.19155 0.0
C2093 C 0.88496 0.25299 0.2138 0.0
C2094 C 0.79726 0.26521 0.2412 0.0
C2095 C 0.8786 0.27784 0.15984 0.0
H2096 H 0.7904 0.33579 0.13234 0.0
H2097 H 0.83981 0.3707 0.21162 0.0
H2098 H 0.81301 0.26238 0.14536 0.0
H2099 H 0.7783 0.2734 0.15839 0.0
H2100 H 0.79251 0.28634 0.12016 0.0
H2101 H 0.86139 0.3438 0.25174 0.0
H2102 H 0.84537 0.31014 0.25972 0.0
H2103 H 0.87651 0.31237 0.23418 0.0
H2104 H 0.83887 0.24062 0.27674 0.0
H2105 H 0.90735 0.25183 0.20755 0.0
H2106 H 0.78303 0.26651 0.2194 0.0
H2107 H 0.7958 0.28549 0.25485 0.0
H2108 H 0.78977 0.24809 0.25777 0.0
H2109 H 0.86224 0.27827 0.14012 0.0
H2110 H 0.89707 0.26513 0.15126 0.0
H2111 H 0.88597 0.29981 0.16407 0.0
C2112 C 1.10995 1.12655 0.84074 0.0
C2113 C 1.12947 0.13112 0.86646 0.0
C2114 C 1.08397 1.1127 0.84656 0.0
C2115 C 1.07738 1.1036 0.87892 0.0
C2116 C 1.09787 1.10666 0.90443 0.0
C2117 C 1.1235 1.12037 0.89783 0.0
C2118 C 1.06335 1.10928 0.81833 0.0
C2119 C 1.09221 1.09717 0.93946 0.0
C2120 C 1.01246 1.10339 0.929 0.0
C2121 C 1.01494 1.07565 0.94067 0.0
C2122 C 1.02943 1.1125 0.90264 0.0
C2123 C 1.04863 1.09317 0.88798 0.0
C2124 C 1.04506 1.064 0.89373 0.0
C2125 C 1.0282 1.05542 0.92044 0.0
C2126 C 1.03088 0.14361 0.89514 0.0
C2127 C 1.06332 1.04247 0.87632 0.0
H2128 H 1.11459 0.13448 0.81624 0.0
H2129 H 0.13815 1.12419 0.918 0.0
H2130 H 1.04788 1.092 0.82261 0.0
H2131 H 1.05136 1.12926 0.81501 0.0
H2132 H 1.07497 1.10504 0.79495 0.0
H2133 H 1.11095 1.10009 0.95582 0.0
H2134 H 1.07428 1.1095 0.94992 0.0
H2135 H 1.08631 1.07454 0.93998 0.0
H2136 H 1.0009 1.11884 0.94355 0.0
H2137 H 1.02933 1.03359 0.9283 0.0
H2138 H 1.03439 0.14716 0.86841 0.0
H2139 H 1.04904 0.15305 0.90876 0.0
H2140 H 1.01109 0.15467 0.90283 0.0
H2141 H 1.06802 1.04912 0.85064 0.0
H2142 H 1.05279 1.02149 0.87591 0.0
H2143 H 1.08383 1.04026 0.88968 0.0
C2144 C 0.74891 1.12072 0.47058 0.0
C2145 C 0.76038 1.12071 0.50252 0.0
C2146 C 0.73794 1.09588 0.45695 0.0
C2147 C 0.73847 1.07082 0.47595 0.0
C2148 C 0.75592 1.0695 0.50427 0.0
C2149 C 0.76661 1.09471 0.51757 0.0
C2150 C 0.72127 1.09778 0.42517 0.0
C2151 C 0.75954 1.04242 0.52325 0.0
C2152 C 0.66223 1.04918 0.47978 0.0
C2153 C 0.6603 1.03166 0.45201 0.0
C2154 C 0.6885 1.05932 0.49062 0.0
C2155 C 0.71357 1.05173 0.47317 0.0
C2156 C 0.71221 1.03081 0.44831 0.0
C2157 C 0.68546 1.02104 0.43786 0.0
C2158 C 0.68875 1.08095 0.51813 0.0
C2159 C 0.73844 1.02043 0.43063 0.0
H2160 H 0.74476 0.14052 0.45811 0.0
H2161 H 0.7769 1.09437 0.54151 0.0
H2162 H 0.72591 1.07937 0.40917 0.0
H2163 H 0.69813 1.0977 0.43077 0.0
H2164 H 0.72626 1.11736 0.41127 0.0
H2165 H 0.78027 1.04213 0.53643 0.0
H2166 H 0.74241 1.04066 0.54198 0.0
H2167 H 0.75825 1.0238 0.50667 0.0
H2168 H 0.64307 1.05745 0.49111 0.0
H2169 H 0.68424 1.00658 0.41716 0.0
H2170 H 0.6946 1.10195 0.5081 0.0
H2171 H 0.70469 1.0752 0.53711 0.0
H2172 H 0.66771 1.08293 0.53045 0.0
H2173 H 0.73959 1.03035 0.40586 0.0
H2174 H 0.73713 0.99726 0.42676 0.0
H2175 H 0.75829 1.02531 0.44431 0.0
loop_
_geom_bond_atom_site_label_1
_geom_bond_atom_site_label_2
_geom_bond_distance
_geom_bond_site_symmetry_2
_ccdc_geom_bond_type
Sm0 C2 2.846 . S
Sm0 O20 2.543 . S
Sm0 O21 2.450 . S
Sm0 O22 2.681 1_556 S
Sm0 O23 2.464 1_556 S
Sm0 O24 2.396 1_556 S
Sm0 O28 2.386 1_556 S
Sm0 O31 2.408 . S
Sm1 C11 2.846 . S
Sm1 O22 2.386 . S
Sm1 O25 2.408 . S
Sm1 O26 2.543 . S
Sm1 O27 2.450 . S
Sm1 O28 2.681 . S
Sm1 O29 2.464 . S
Sm1 O30 2.396 . S
C2 Sm0 2.846 . S
C2 C3 1.506 . S
C2 O20 1.261 . S
C2 O21 1.242 . S
C3 C2 1.506 . S
C3 C4 1.358 . S
C3 C8 1.382 . S
C4 C3 1.358 . S
C4 C5 1.385 . S
C4 H32 0.930 . S
C5 C4 1.385 . S
C5 C6 1.395 . S
C5 H33 0.929 . S
C6 C5 1.395 . S
C6 C7 1.335 . S
C7 C6 1.335 . S
C7 C8 1.398 . S
C7 H34 0.930 . S
C8 C3 1.382 . S
C8 C7 1.398 . S
C8 H35 0.929 . S
C9 O22 1.271 . S
C9 O23 1.251 . S
C10 O24 1.252 . S
C10 O25 1.272 . S
C11 Sm1 2.846 . S
C11 C12 1.506 . S
C11 O26 1.261 . S
C11 O27 1.242 . S
C12 C11 1.506 . S
C12 C13 1.358 . S
C12 C17 1.382 . S
C13 C12 1.358 . S
C13 C14 1.385 . S
C13 H36 0.930 . S
C14 C13 1.385 . S
C14 C15 1.395 . S
C14 H37 0.929 . S
C15 C14 1.395 . S
C15 C16 1.335 . S
C16 C15 1.335 . S
C16 C17 1.398 . S
C16 H38 0.930 . S
C17 C12 1.382 . S
C17 C16 1.398 . S
C17 H39 0.929 . S
C18 O28 1.271 1_556 S
C18 O29 1.251 1_556 S
C19 O30 1.252 . S
C19 O31 1.272 1_554 S
O20 Sm0 2.543 . S
O20 C2 1.261 . S
O21 Sm0 2.450 . S
O21 C2 1.242 . S
O22 Sm0 2.681 1_554 S
O22 Sm1 2.386 . S
O22 C9 1.271 . S
O23 Sm0 2.464 1_554 S
O23 C9 1.251 . S
O24 Sm0 2.396 1_554 S
O24 C10 1.252 . S
O25 Sm1 2.408 . S
O25 C10 1.272 . S
O26 Sm1 2.543 . S
O26 C11 1.261 . S
O27 Sm1 2.450 . S
O27 C11 1.242 . S
O28 Sm0 2.386 1_554 S
O28 Sm1 2.681 . S
O28 C18 1.271 1_554 S
O29 Sm1 2.464 . S
O29 C18 1.251 1_554 S
O30 Sm1 2.396 . S
O30 C19 1.252 . S
O31 Sm0 2.408 . S
O31 C19 1.272 1_556 S
H32 C4 0.930 . S
H33 C5 0.929 . S
H34 C7 0.930 . S
H35 C8 0.929 . S
H36 C13 0.930 . S
H37 C14 0.929 . S
H38 C16 0.930 . S
H39 C17 0.929 . S
Sm40 C42 2.846 . S
Sm40 O60 2.543 . S
Sm40 O61 2.450 . S
Sm40 O62 2.681 . S
Sm40 O63 2.464 . S
Sm40 O64 2.396 . S
Sm40 O68 2.386 . S
Sm40 O71 2.408 . S
Sm41 C51 2.846 . S
Sm41 O62 2.386 . S
Sm41 O65 2.408 . S
Sm41 O66 2.543 . S
Sm41 O67 2.450 . S
Sm41 O68 2.681 . S
Sm41 O69 2.464 . S
Sm41 O70 2.396 . S
C42 Sm40 2.846 . S
C42 C43 1.506 . S
C42 O60 1.261 . S
C42 O61 1.242 . S
C43 C42 1.506 . S
C43 C44 1.358 . S
C43 C48 1.382 . S
C44 C43 1.358 . S
C44 C45 1.385 . S
C44 H72 0.930 . S
C45 C44 1.385 . S
C45 C46 1.395 . S
C45 H73 0.929 . S
C46 C45 1.395 . S
C46 C47 1.335 . S
C47 C46 1.335 . S
C47 C48 1.398 . S
C47 H74 0.930 . S
C48 C43 1.382 . S
C48 C47 1.398 . S
C48 H75 0.929 . S
C49 O62 1.271 . S
C49 O63 1.251 . S
C50 O64 1.252 . S
C50 O65 1.272 . S
C51 Sm41 2.846 . S
C51 C52 1.506 . S
C51 O66 1.261 . S
C51 O67 1.242 . S
C52 C51 1.506 . S
C52 C53 1.358 . S
C52 C57 1.382 . S
C53 C52 1.358 . S
C53 C54 1.385 . S
C53 H76 0.930 . S
C54 C53 1.385 . S
C54 C55 1.395 . S
C54 H77 0.929 . S
C55 C54 1.395 . S
C55 C56 1.335 . S
C56 C55 1.335 . S
C56 C57 1.398 . S
C56 H78 0.930 . S
C57 C52 1.382 . S
C57 C56 1.398 . S
C57 H79 0.929 . S
C58 O68 1.271 . S
C58 O69 1.251 . S
C59 O70 1.252 . S
C59 O71 1.272 . S
O60 Sm40 2.543 . S
O60 C42 1.261 . S
O61 Sm40 2.450 . S
O61 C42 1.242 . S
O62 Sm40 2.681 . S
O62 Sm41 2.386 . S
O62 C49 1.271 . S
O63 Sm40 2.464 . S
O63 C49 1.251 . S
O64 Sm40 2.396 . S
O64 C50 1.252 . S
O65 Sm41 2.408 . S
O65 C50 1.272 . S
O66 Sm41 2.543 . S
O66 C51 1.261 . S
O67 Sm41 2.450 . S
O67 C51 1.242 . S
O68 Sm40 2.386 . S
O68 Sm41 2.681 . S
O68 C58 1.271 . S
O69 Sm41 2.464 . S
O69 C58 1.251 . S
O70 Sm41 2.396 . S
O70 C59 1.252 . S
O71 Sm40 2.408 . S
O71 C59 1.272 . S
H72 C44 0.930 . S
H73 C45 0.929 . S
H74 C47 0.930 . S
H75 C48 0.929 . S
H76 C53 0.930 . S
H77 C54 0.929 . S
H78 C56 0.930 . S
H79 C57 0.929 . S
Sm80 C82 2.846 . S
Sm80 O100 2.543 . S
Sm80 O101 2.450 . S
Sm80 O102 2.681 . S
Sm80 O103 2.464 . S
Sm80 O104 2.396 . S
Sm80 O108 2.386 . S
Sm80 O111 2.408 . S
Sm81 C91 2.846 . S
Sm81 O102 2.386 . S
Sm81 O105 2.408 . S
Sm81 O106 2.543 . S
Sm81 O107 2.450 . S
Sm81 O108 2.681 . S
Sm81 O109 2.464 . S
Sm81 O110 2.396 . S
C82 Sm80 2.846 . S
C82 C83 1.506 . S
C82 O100 1.261 . S
C82 O101 1.242 . S
C83 C82 1.506 . S
C83 C84 1.358 . S
C83 C88 1.382 . S
C84 C83 1.358 . S
C84 C85 1.385 . S
C84 H112 0.930 . S
C85 C84 1.385 . S
C85 C86 1.395 . S
C85 H113 0.929 . S
C86 C85 1.395 . S
C86 C87 1.335 . S
C87 C86 1.335 . S
C87 C88 1.398 . S
C87 H114 0.930 . S
C88 C83 1.382 . S
C88 C87 1.398 . S
C88 H115 0.929 . S
C89 O102 1.271 . S
C89 O103 1.251 . S
C90 O104 1.252 . S
C90 O105 1.272 . S
C91 Sm81 2.846 . S
C91 C92 1.506 . S
C91 O106 1.261 . S
C91 O107 1.242 . S
C92 C91 1.506 . S
C92 C93 1.358 . S
C92 C97 1.382 . S
C93 C92 1.358 . S
C93 C94 1.385 . S
C93 H116 0.930 . S
C94 C93 1.385 . S
C94 C95 1.395 . S
C94 H117 0.929 . S
C95 C94 1.395 . S
C95 C96 1.335 . S
C96 C95 1.335 . S
C96 C97 1.398 . S
C96 H118 0.930 . S
C97 C92 1.382 . S
C97 C96 1.398 . S
C97 H119 0.929 . S
C98 O108 1.271 . S
C98 O109 1.251 . S
C99 O110 1.252 . S
C99 O111 1.272 . S
O100 Sm80 2.543 . S
O100 C82 1.261 . S
O101 Sm80 2.450 . S
O101 C82 1.242 . S
O102 Sm80 2.681 . S
O102 Sm81 2.386 . S
O102 C89 1.271 . S
O103 Sm80 2.464 . S
O103 C89 1.251 . S
O104 Sm80 2.396 . S
O104 C90 1.252 . S
O105 Sm81 2.408 . S
O105 C90 1.272 . S
O106 Sm81 2.543 . S
O106 C91 1.261 . S
O107 Sm81 2.450 . S
O107 C91 1.242 . S
O108 Sm80 2.386 . S
O108 Sm81 2.681 . S
O108 C98 1.271 . S
O109 Sm81 2.464 . S
O109 C98 1.251 . S
O110 Sm81 2.396 . S
O110 C99 1.252 . S
O111 Sm80 2.408 . S
O111 C99 1.272 . S
H112 C84 0.930 . S
H113 C85 0.929 . S
H114 C87 0.930 . S
H115 C88 0.929 . S
H116 C93 0.930 . S
H117 C94 0.929 . S
H118 C96 0.930 . S
H119 C97 0.929 . S
Sm120 C122 2.846 . S
Sm120 O140 2.543 . S
Sm120 O141 2.450 . S
Sm120 O142 2.681 . S
Sm120 O143 2.464 . S
Sm120 O144 2.396 . S
Sm120 O148 2.386 . S
Sm120 O151 2.408 . S
Sm121 C131 2.846 . S
Sm121 O142 2.386 . S
Sm121 O145 2.408 . S
Sm121 O146 2.543 . S
Sm121 O147 2.450 . S
Sm121 O148 2.681 . S
Sm121 O149 2.464 . S
Sm121 O150 2.396 . S
C122 Sm120 2.846 . S
C122 C123 1.506 . S
C122 O140 1.261 . S
C122 O141 1.242 . S
C123 C122 1.506 . S
C123 C124 1.358 . S
C123 C128 1.382 . S
C124 C123 1.358 . S
C124 C125 1.385 . S
C124 H152 0.930 . S
C125 C124 1.385 . S
C125 C126 1.395 . S
C125 H153 0.929 . S
C126 C125 1.395 . S
C126 C127 1.335 . S
C127 C126 1.335 . S
C127 C128 1.398 . S
C127 H154 0.930 . S
C128 C123 1.382 . S
C128 C127 1.398 . S
C128 H155 0.929 . S
C129 O142 1.271 . S
C129 O143 1.251 . S
C130 O144 1.252 . S
C130 O145 1.272 . S
C131 Sm121 2.846 . S
C131 C132 1.506 . S
C131 O146 1.261 . S
C131 O147 1.242 . S
C132 C131 1.506 . S
C132 C133 1.358 . S
C132 C137 1.382 . S
C133 C132 1.358 . S
C133 C134 1.385 . S
C133 H156 0.930 . S
C134 C133 1.385 . S
C134 C135 1.395 . S
C134 H157 0.929 . S
C135 C134 1.395 . S
C135 C136 1.335 . S
C136 C135 1.335 . S
C136 C137 1.398 . S
C136 H158 0.930 . S
C137 C132 1.382 . S
C137 C136 1.398 . S
C137 H159 0.929 . S
C138 O148 1.271 . S
C138 O149 1.251 . S
C139 O150 1.252 . S
C139 O151 1.272 . S
O140 Sm120 2.543 . S
O140 C122 1.261 . S
O141 Sm120 2.450 . S
O141 C122 1.242 . S
O142 Sm120 2.681 . S
O142 Sm121 2.386 . S
O142 C129 1.271 . S
O143 Sm120 2.464 . S
O143 C129 1.251 . S
O144 Sm120 2.396 . S
O144 C130 1.252 . S
O145 Sm121 2.408 . S
O145 C130 1.272 . S
O146 Sm121 2.543 . S
O146 C131 1.261 . S
O147 Sm121 2.450 . S
O147 C131 1.242 . S
O148 Sm120 2.386 . S
O148 Sm121 2.681 . S
O148 C138 1.271 . S
O149 Sm121 2.464 . S
O149 C138 1.251 . S
O150 Sm121 2.396 . S
O150 C139 1.252 . S
O151 Sm120 2.408 . S
O151 C139 1.272 . S
H152 C124 0.930 . S
H153 C125 0.929 . S
H154 C127 0.930 . S
H155 C128 0.929 . S
H156 C133 0.930 . S
H157 C134 0.929 . S
H158 C136 0.930 . S
H159 C137 0.929 . S
Sm160 C162 2.846 . S
Sm160 O180 2.543 . S
Sm160 O181 2.450 . S
Sm160 O182 2.681 . S
Sm160 O183 2.464 . S
Sm160 O184 2.396 . S
Sm160 O188 2.386 . S
Sm160 O191 2.408 . S
Sm161 C171 2.846 . S
Sm161 O182 2.386 1_554 S
Sm161 O185 2.408 . S
Sm161 O186 2.543 . S
Sm161 O187 2.450 . S
Sm161 O188 2.681 1_554 S
Sm161 O189 2.464 1_554 S
Sm161 O190 2.396 1_554 S
C162 Sm160 2.846 . S
C162 C163 1.506 . S
C162 O180 1.261 . S
C162 O181 1.242 . S
C163 C162 1.506 . S
C163 C164 1.358 . S
C163 C168 1.382 . S
C164 C163 1.358 . S
C164 C165 1.385 . S
C164 H192 0.930 . S
C165 C164 1.385 . S
C165 C166 1.395 . S
C165 H193 0.929 . S
C166 C165 1.395 . S
C166 C167 1.335 . S
C167 C166 1.335 . S
C167 C168 1.398 . S
C167 H194 0.930 . S
C168 C163 1.382 . S
C168 C167 1.398 . S
C168 H195 0.929 . S
C169 O182 1.271 1_554 S
C169 O183 1.251 1_554 S
C170 O184 1.252 . S
C170 O185 1.272 1_556 S
C171 Sm161 2.846 . S
C171 C172 1.506 . S
C171 O186 1.261 . S
C171 O187 1.242 . S
C172 C171 1.506 . S
C172 C173 1.358 . S
C172 C177 1.382 . S
C173 C172 1.358 . S
C173 C174 1.385 . S
C173 H196 0.930 . S
C174 C173 1.385 . S
C174 C175 1.395 . S
C174 H197 0.929 . S
C175 C174 1.395 . S
C175 C176 1.335 . S
C176 C175 1.335 . S
C176 C177 1.398 . S
C176 H198 0.930 . S
C177 C172 1.382 . S
C177 C176 1.398 . S
C177 H199 0.929 . S
C178 O188 1.271 . S
C178 O189 1.251 . S
C179 O190 1.252 . S
C179 O191 1.272 . S
O180 Sm160 2.543 . S
O180 C162 1.261 . S
O181 Sm160 2.450 . S
O181 C162 1.242 . S
O182 Sm160 2.681 . S
O182 Sm161 2.386 1_556 S
O182 C169 1.271 1_556 S
O183 Sm160 2.464 . S
O183 C169 1.251 1_556 S
O184 Sm160 2.396 . S
O184 C170 1.252 . S
O185 Sm161 2.408 . S
O185 C170 1.272 1_554 S
O186 Sm161 2.543 . S
O186 C171 1.261 . S
O187 Sm161 2.450 . S
O187 C171 1.242 . S
O188 Sm160 2.386 . S
O188 Sm161 2.681 1_556 S
O188 C178 1.271 . S
O189 Sm161 2.464 1_556 S
O189 C178 1.251 . S
O190 Sm161 2.396 1_556 S
O190 C179 1.252 . S
O191 Sm160 2.408 . S
O191 C179 1.272 . S
H192 C164 0.930 . S
H193 C165 0.929 . S
H194 C167 0.930 . S
H195 C168 0.929 . S
H196 C173 0.930 . S
H197 C174 0.929 . S
H198 C176 0.930 . S
H199 C177 0.929 . S
Sm200 C202 2.846 . S
Sm200 O220 2.543 . S
Sm200 O221 2.450 . S
Sm200 O222 2.681 . S
Sm200 O223 2.464 . S
Sm200 O224 2.396 . S
Sm200 O228 2.386 . S
Sm200 O231 2.408 . S
Sm201 C211 2.846 . S
Sm201 O222 2.386 . S
Sm201 O225 2.408 . S
Sm201 O226 2.543 . S
Sm201 O227 2.450 . S
Sm201 O228 2.681 . S
Sm201 O229 2.464 . S
Sm201 O230 2.396 . S
C202 Sm200 2.846 . S
C202 C203 1.506 . S
C202 O220 1.261 . S
C202 O221 1.242 . S
C203 C202 1.506 . S
C203 C204 1.358 . S
C203 C208 1.382 . S
C204 C203 1.358 . S
C204 C205 1.385 . S
C204 H232 0.930 . S
C205 C204 1.385 . S
C205 C206 1.395 . S
C205 H233 0.929 . S
C206 C205 1.395 . S
C206 C207 1.335 . S
C207 C206 1.335 . S
C207 C208 1.398 . S
C207 H234 0.930 . S
C208 C203 1.382 . S
C208 C207 1.398 . S
C208 H235 0.929 . S
C209 O222 1.271 . S
C209 O223 1.251 . S
C210 O224 1.252 . S
C210 O225 1.272 . S
C211 Sm201 2.846 . S
C211 C212 1.506 . S
C211 O226 1.261 . S
C211 O227 1.242 . S
C212 C211 1.506 . S
C212 C213 1.358 . S
C212 C217 1.382 . S
C213 C212 1.358 . S
C213 C214 1.385 . S
C213 H236 0.930 . S
C214 C213 1.385 . S
C214 C215 1.395 . S
C214 H237 0.929 . S
C215 C214 1.395 . S
C215 C216 1.335 . S
C216 C215 1.335 . S
C216 C217 1.398 . S
C216 H238 0.930 . S
C217 C212 1.382 . S
C217 C216 1.398 . S
C217 H239 0.929 . S
C218 O228 1.271 . S
C218 O229 1.251 . S
C219 O230 1.252 . S
C219 O231 1.272 . S
O220 Sm200 2.543 . S
O220 C202 1.261 . S
O221 Sm200 2.450 . S
O221 C202 1.242 . S
O222 Sm200 2.681 . S
O222 Sm201 2.386 . S
O222 C209 1.271 . S
O223 Sm200 2.464 . S
O223 C209 1.251 . S
O224 Sm200 2.396 . S
O224 C210 1.252 . S
O225 Sm201 2.408 . S
O225 C210 1.272 . S
O226 Sm201 2.543 . S
O226 C211 1.261 . S
O227 Sm201 2.450 . S
O227 C211 1.242 . S
O228 Sm200 2.386 . S
O228 Sm201 2.681 . S
O228 C218 1.271 . S
O229 Sm201 2.464 . S
O229 C218 1.251 . S
O230 Sm201 2.396 . S
O230 C219 1.252 . S
O231 Sm200 2.408 . S
O231 C219 1.272 . S
H232 C204 0.930 . S
H233 C205 0.929 . S
H234 C207 0.930 . S
H235 C208 0.929 . S
H236 C213 0.930 . S
H237 C214 0.929 . S
H238 C216 0.930 . S
H239 C217 0.929 . S
Sm240 C242 2.846 . S
Sm240 O260 2.543 . S
Sm240 O261 2.450 . S
Sm240 O262 2.681 . S
Sm240 O263 2.464 . S
Sm240 O264 2.396 . S
Sm240 O268 2.386 . S
Sm240 O271 2.408 . S
Sm241 C251 2.846 . S
Sm241 O262 2.386 . S
Sm241 O265 2.408 . S
Sm241 O266 2.543 . S
Sm241 O267 2.450 . S
Sm241 O268 2.681 . S
Sm241 O269 2.464 . S
Sm241 O270 2.396 . S
C242 Sm240 2.846 . S
C242 C243 1.506 . S
C242 O260 1.261 . S
C242 O261 1.242 . S
C243 C242 1.506 . S
C243 C244 1.358 . S
C243 C248 1.382 . S
C244 C243 1.358 . S
C244 C245 1.385 . S
C244 H272 0.930 . S
C245 C244 1.385 . S
C245 C246 1.395 . S
C245 H273 0.929 . S
C246 C245 1.395 . S
C246 C247 1.335 . S
C247 C246 1.335 . S
C247 C248 1.398 . S
C247 H274 0.930 . S
C248 C243 1.382 . S
C248 C247 1.398 . S
C248 H275 0.929 . S
C249 O262 1.271 . S
C249 O263 1.251 . S
C250 O264 1.252 . S
C250 O265 1.272 . S
C251 Sm241 2.846 . S
C251 C252 1.506 . S
C251 O266 1.261 . S
C251 O267 1.242 . S
C252 C251 1.506 . S
C252 C253 1.358 . S
C252 C257 1.382 . S
C253 C252 1.358 . S
C253 C254 1.385 . S
C253 H276 0.930 . S
C254 C253 1.385 . S
C254 C255 1.395 . S
C254 H277 0.929 . S
C255 C254 1.395 . S
C255 C256 1.335 . S
C256 C255 1.335 . S
C256 C257 1.398 . S
C256 H278 0.930 . S
C257 C252 1.382 . S
C257 C256 1.398 . S
C257 H279 0.929 . S
C258 O268 1.271 . S
C258 O269 1.251 . S
C259 O270 1.252 . S
C259 O271 1.272 . S
O260 Sm240 2.543 . S
O260 C242 1.261 . S
O261 Sm240 2.450 . S
O261 C242 1.242 . S
O262 Sm240 2.681 . S
O262 Sm241 2.386 . S
O262 C249 1.271 . S
O263 Sm240 2.464 . S
O263 C249 1.251 . S
O264 Sm240 2.396 . S
O264 C250 1.252 . S
O265 Sm241 2.408 . S
O265 C250 1.272 . S
O266 Sm241 2.543 . S
O266 C251 1.261 . S
O267 Sm241 2.450 . S
O267 C251 1.242 . S
O268 Sm240 2.386 . S
O268 Sm241 2.681 . S
O268 C258 1.271 . S
O269 Sm241 2.464 . S
O269 C258 1.251 . S
O270 Sm241 2.396 . S
O270 C259 1.252 . S
O271 Sm240 2.408 . S
O271 C259 1.272 . S
H272 C244 0.930 . S
H273 C245 0.929 . S
H274 C247 0.930 . S
H275 C248 0.929 . S
H276 C253 0.930 . S
H277 C254 0.929 . S
H278 C256 0.930 . S
H279 C257 0.929 . S
Sm280 C282 2.846 . S
Sm280 O300 2.543 . S
Sm280 O301 2.450 . S
Sm280 O302 2.681 . S
Sm280 O303 2.464 . S
Sm280 O304 2.396 . S
Sm280 O308 2.386 . S
Sm280 O311 2.408 . S
Sm281 C291 2.846 . S
Sm281 O302 2.386 . S
Sm281 O305 2.408 . S
Sm281 O306 2.543 . S
Sm281 O307 2.450 . S
Sm281 O308 2.681 . S
Sm281 O309 2.464 . S
Sm281 O310 2.396 . S
C282 Sm280 2.846 . S
C282 C283 1.506 . S
C282 O300 1.261 . S
C282 O301 1.242 . S
C283 C282 1.506 . S
C283 C284 1.358 . S
C283 C288 1.382 . S
C284 C283 1.358 . S
C284 C285 1.385 . S
C284 H312 0.930 . S
C285 C284 1.385 . S
C285 C286 1.395 . S
C285 H313 0.929 . S
C286 C285 1.395 . S
C286 C287 1.335 . S
C287 C286 1.335 . S
C287 C288 1.398 . S
C287 H314 0.930 . S
C288 C283 1.382 . S
C288 C287 1.398 . S
C288 H315 0.929 . S
C289 O302 1.271 . S
C289 O303 1.251 . S
C290 O304 1.252 . S
C290 O305 1.272 . S
C291 Sm281 2.846 . S
C291 C292 1.506 . S
C291 O306 1.261 . S
C291 O307 1.242 . S
C292 C291 1.506 . S
C292 C293 1.358 . S
C292 C297 1.382 . S
C293 C292 1.358 . S
C293 C294 1.385 . S
C293 H316 0.930 . S
C294 C293 1.385 . S
C294 C295 1.395 . S
C294 H317 0.929 . S
C295 C294 1.395 . S
C295 C296 1.335 . S
C296 C295 1.335 . S
C296 C297 1.398 . S
C296 H318 0.930 . S
C297 C292 1.382 . S
C297 C296 1.398 . S
C297 H319 0.929 . S
C298 O308 1.271 . S
C298 O309 1.251 . S
C299 O310 1.252 . S
C299 O311 1.272 . S
O300 Sm280 2.543 . S
O300 C282 1.261 . S
O301 Sm280 2.450 . S
O301 C282 1.242 . S
O302 Sm280 2.681 . S
O302 Sm281 2.386 . S
O302 C289 1.271 . S
O303 Sm280 2.464 . S
O303 C289 1.251 . S
O304 Sm280 2.396 . S
O304 C290 1.252 . S
O305 Sm281 2.408 . S
O305 C290 1.272 . S
O306 Sm281 2.543 . S
O306 C291 1.261 . S
O307 Sm281 2.450 . S
O307 C291 1.242 . S
O308 Sm280 2.386 . S
O308 Sm281 2.681 . S
O308 C298 1.271 . S
O309 Sm281 2.464 . S
O309 C298 1.251 . S
O310 Sm281 2.396 . S
O310 C299 1.252 . S
O311 Sm280 2.408 . S
O311 C299 1.272 . S
H312 C284 0.930 . S
H313 C285 0.929 . S
H314 C287 0.930 . S
H315 C288 0.929 . S
H316 C293 0.930 . S
H317 C294 0.929 . S
H318 C296 0.930 . S
H319 C297 0.929 . S
Sm320 C322 2.846 . S
Sm320 O340 2.543 . S
Sm320 O341 2.450 . S
Sm320 O342 2.681 . S
Sm320 O343 2.464 . S
Sm320 O344 2.396 . S
Sm320 O348 2.386 . S
Sm320 O351 2.408 . S
Sm321 C331 2.846 . S
Sm321 O342 2.386 . S
Sm321 O345 2.408 . S
Sm321 O346 2.543 . S
Sm321 O347 2.450 . S
Sm321 O348 2.681 . S
Sm321 O349 2.464 . S
Sm321 O350 2.396 . S
C322 Sm320 2.846 . S
C322 C323 1.506 . S
C322 O340 1.261 . S
C322 O341 1.242 . S
C323 C322 1.506 . S
C323 C324 1.358 . S
C323 C328 1.382 . S
C324 C323 1.358 . S
C324 C325 1.385 . S
C324 H352 0.930 . S
C325 C324 1.385 . S
C325 C326 1.395 . S
C325 H353 0.929 . S
C326 C325 1.395 . S
C326 C327 1.335 . S
C327 C326 1.335 . S
C327 C328 1.398 . S
C327 H354 0.930 . S
C328 C323 1.382 . S
C328 C327 1.398 . S
C328 H355 0.929 . S
C329 O342 1.271 . S
C329 O343 1.251 . S
C330 O344 1.252 . S
C330 O345 1.272 . S
C331 Sm321 2.846 . S
C331 C332 1.506 . S
C331 O346 1.261 . S
C331 O347 1.242 . S
C332 C331 1.506 . S
C332 C333 1.358 . S
C332 C337 1.382 . S
C333 C332 1.358 . S
C333 C334 1.385 . S
C333 H356 0.930 . S
C334 C333 1.385 . S
C334 C335 1.395 . S
C334 H357 0.929 . S
C335 C334 1.395 . S
C335 C336 1.335 . S
C336 C335 1.335 . S
C336 C337 1.398 . S
C336 H358 0.930 . S
C337 C332 1.382 . S
C337 C336 1.398 . S
C337 H359 0.929 . S
C338 O348 1.271 . S
C338 O349 1.251 . S
C339 O350 1.252 . S
C339 O351 1.272 . S
O340 Sm320 2.543 . S
O340 C322 1.261 . S
O341 Sm320 2.450 . S
O341 C322 1.242 . S
O342 Sm320 2.681 . S
O342 Sm321 2.386 . S
O342 C329 1.271 . S
O343 Sm320 2.464 . S
O343 C329 1.251 . S
O344 Sm320 2.396 . S
O344 C330 1.252 . S
O345 Sm321 2.408 . S
O345 C330 1.272 . S
O346 Sm321 2.543 . S
O346 C331 1.261 . S
O347 Sm321 2.450 . S
O347 C331 1.242 . S
O348 Sm320 2.386 . S
O348 Sm321 2.681 . S
O348 C338 1.271 . S
O349 Sm321 2.464 . S
O349 C338 1.251 . S
O350 Sm321 2.396 . S
O350 C339 1.252 . S
O351 Sm320 2.408 . S
O351 C339 1.272 . S
H352 C324 0.930 . S
H353 C325 0.929 . S
H354 C327 0.930 . S
H355 C328 0.929 . S
H356 C333 0.930 . S
H357 C334 0.929 . S
H358 C336 0.930 . S
H359 C337 0.929 . S
Sm360 C362 2.846 . S
Sm360 O380 2.543 . S
Sm360 O381 2.450 . S
Sm360 O382 2.681 . S
Sm360 O383 2.464 . S
Sm360 O384 2.396 . S
Sm360 O388 2.386 . S
Sm360 O391 2.408 . S
Sm361 C371 2.846 . S
Sm361 O382 2.386 . S
Sm361 O385 2.408 . S
Sm361 O386 2.543 . S
Sm361 O387 2.450 . S
Sm361 O388 2.681 . S
Sm361 O389 2.464 . S
Sm361 O390 2.396 . S
C362 Sm360 2.846 . S
C362 C363 1.506 . S
C362 O380 1.261 . S
C362 O381 1.242 . S
C363 C362 1.506 . S
C363 C364 1.358 . S
C363 C368 1.382 . S
C364 C363 1.358 . S
C364 C365 1.385 . S
C364 H392 0.930 . S
C365 C364 1.385 . S
C365 C366 1.395 . S
C365 H393 0.929 . S
C366 C365 1.395 . S
C366 C367 1.335 . S
C367 C366 1.335 . S
C367 C368 1.398 . S
C367 H394 0.930 . S
C368 C363 1.382 . S
C368 C367 1.398 . S
C368 H395 0.929 . S
C369 O382 1.271 . S
C369 O383 1.251 . S
C370 O384 1.252 . S
C370 O385 1.272 . S
C371 Sm361 2.846 . S
C371 C372 1.506 . S
C371 O386 1.261 . S
C371 O387 1.242 . S
C372 C371 1.506 . S
C372 C373 1.358 . S
C372 C377 1.382 . S
C373 C372 1.358 . S
C373 C374 1.385 . S
C373 H396 0.930 . S
C374 C373 1.385 . S
C374 C375 1.395 . S
C374 H397 0.929 . S
C375 C374 1.395 . S
C375 C376 1.335 . S
C376 C375 1.335 . S
C376 C377 1.398 . S
C376 H398 0.930 . S
C377 C372 1.382 . S
C377 C376 1.398 . S
C377 H399 0.929 . S
C378 O388 1.271 . S
C378 O389 1.251 . S
C379 O390 1.252 . S
C379 O391 1.272 . S
O380 Sm360 2.543 . S
O380 C362 1.261 . S
O381 Sm360 2.450 . S
O381 C362 1.242 . S
O382 Sm360 2.681 . S
O382 Sm361 2.386 . S
O382 C369 1.271 . S
O383 Sm360 2.464 . S
O383 C369 1.251 . S
O384 Sm360 2.396 . S
O384 C370 1.252 . S
O385 Sm361 2.408 . S
O385 C370 1.272 . S
O386 Sm361 2.543 . S
O386 C371 1.261 . S
O387 Sm361 2.450 . S
O387 C371 1.242 . S
O388 Sm360 2.386 . S
O388 Sm361 2.681 . S
O388 C378 1.271 . S
O389 Sm361 2.464 . S
O389 C378 1.251 . S
O390 Sm361 2.396 . S
O390 C379 1.252 . S
O391 Sm360 2.408 . S
O391 C379 1.272 . S
H392 C364 0.930 . S
H393 C365 0.929 . S
H394 C367 0.930 . S
H395 C368 0.929 . S
H396 C373 0.930 . S
H397 C374 0.929 . S
H398 C376 0.930 . S
H399 C377 0.929 . S
Sm400 C402 2.846 . S
Sm400 O420 2.543 . S
Sm400 O421 2.450 . S
Sm400 O422 2.681 1_556 S
Sm400 O423 2.464 1_556 S
Sm400 O424 2.396 1_556 S
Sm400 O428 2.386 1_556 S
Sm400 O431 2.408 . S
Sm401 C411 2.846 . S
Sm401 O422 2.386 . S
Sm401 O425 2.408 . S
Sm401 O426 2.543 . S
Sm401 O427 2.450 . S
Sm401 O428 2.681 . S
Sm401 O429 2.464 . S
Sm401 O430 2.396 . S
C402 Sm400 2.846 . S
C402 C403 1.506 . S
C402 O420 1.261 . S
C402 O421 1.242 . S
C403 C402 1.506 . S
C403 C404 1.358 . S
C403 C408 1.382 . S
C404 C403 1.358 . S
C404 C405 1.385 . S
C404 H432 0.930 . S
C405 C404 1.385 . S
C405 C406 1.395 . S
C405 H433 0.929 . S
C406 C405 1.395 . S
C406 C407 1.335 . S
C407 C406 1.335 . S
C407 C408 1.398 . S
C407 H434 0.930 . S
C408 C403 1.382 . S
C408 C407 1.398 . S
C408 H435 0.929 . S
C409 O422 1.271 . S
C409 O423 1.251 . S
C410 O424 1.252 . S
C410 O425 1.272 . S
C411 Sm401 2.846 . S
C411 C412 1.506 . S
C411 O426 1.261 . S
C411 O427 1.242 . S
C412 C411 1.506 . S
C412 C413 1.358 . S
C412 C417 1.382 . S
C413 C412 1.358 . S
C413 C414 1.385 . S
C413 H436 0.930 . S
C414 C413 1.385 . S
C414 C415 1.395 . S
C414 H437 0.929 . S
C415 C414 1.395 . S
C415 C416 1.335 . S
C416 C415 1.335 . S
C416 C417 1.398 . S
C416 H438 0.930 . S
C417 C412 1.382 . S
C417 C416 1.398 . S
C417 H439 0.929 . S
C418 O428 1.271 1_556 S
C418 O429 1.251 1_556 S
C419 O430 1.252 . S
C419 O431 1.272 1_554 S
O420 Sm400 2.543 . S
O420 C402 1.261 . S
O421 Sm400 2.450 . S
O421 C402 1.242 . S
O422 Sm400 2.681 1_554 S
O422 Sm401 2.386 . S
O422 C409 1.271 . S
O423 Sm400 2.464 1_554 S
O423 C409 1.251 . S
O424 Sm400 2.396 1_554 S
O424 C410 1.252 . S
O425 Sm401 2.408 . S
O425 C410 1.272 . S
O426 Sm401 2.543 . S
O426 C411 1.261 . S
O427 Sm401 2.450 . S
O427 C411 1.242 . S
O428 Sm400 2.386 1_554 S
O428 Sm401 2.681 . S
O428 C418 1.271 1_554 S
O429 Sm401 2.464 . S
O429 C418 1.251 1_554 S
O430 Sm401 2.396 . S
O430 C419 1.252 . S
O431 Sm400 2.408 . S
O431 C419 1.272 1_556 S
H432 C404 0.930 . S
H433 C405 0.929 . S
H434 C407 0.930 . S
H435 C408 0.929 . S
H436 C413 0.930 . S
H437 C414 0.929 . S
H438 C416 0.930 . S
H439 C417 0.929 . S
Sm440 C442 2.846 . S
Sm440 O460 2.543 . S
Sm440 O461 2.450 . S
Sm440 O462 2.681 . S
Sm440 O463 2.464 . S
Sm440 O464 2.396 . S
Sm440 O468 2.386 . S
Sm440 O471 2.408 . S
Sm441 C451 2.846 . S
Sm441 O462 2.386 . S
Sm441 O465 2.408 . S
Sm441 O466 2.543 . S
Sm441 O467 2.450 . S
Sm441 O468 2.681 . S
Sm441 O469 2.464 . S
Sm441 O470 2.396 . S
C442 Sm440 2.846 . S
C442 C443 1.506 . S
C442 O460 1.261 . S
C442 O461 1.242 . S
C443 C442 1.506 . S
C443 C444 1.358 . S
C443 C448 1.382 . S
C444 C443 1.358 . S
C444 C445 1.385 . S
C444 H472 0.930 . S
C445 C444 1.385 . S
C445 C446 1.395 . S
C445 H473 0.929 . S
C446 C445 1.395 . S
C446 C447 1.335 . S
C447 C446 1.335 . S
C447 C448 1.398 . S
C447 H474 0.930 . S
C448 C443 1.382 . S
C448 C447 1.398 . S
C448 H475 0.929 . S
C449 O462 1.271 . S
C449 O463 1.251 . S
C450 O464 1.252 . S
C450 O465 1.272 . S
C451 Sm441 2.846 . S
C451 C452 1.506 . S
C451 O466 1.261 . S
C451 O467 1.242 . S
C452 C451 1.506 . S
C452 C453 1.358 . S
C452 C457 1.382 . S
C453 C452 1.358 . S
C453 C454 1.385 . S
C453 H476 0.930 . S
C454 C453 1.385 . S
C454 C455 1.395 . S
C454 H477 0.929 . S
C455 C454 1.395 . S
C455 C456 1.335 . S
C456 C455 1.335 . S
C456 C457 1.398 . S
C456 H478 0.930 . S
C457 C452 1.382 . S
C457 C456 1.398 . S
C457 H479 0.929 . S
C458 O468 1.271 . S
C458 O469 1.251 . S
C459 O470 1.252 . S
C459 O471 1.272 . S
O460 Sm440 2.543 . S
O460 C442 1.261 . S
O461 Sm440 2.450 . S
O461 C442 1.242 . S
O462 Sm440 2.681 . S
O462 Sm441 2.386 . S
O462 C449 1.271 . S
O463 Sm440 2.464 . S
O463 C449 1.251 . S
O464 Sm440 2.396 . S
O464 C450 1.252 . S
O465 Sm441 2.408 . S
O465 C450 1.272 . S
O466 Sm441 2.543 . S
O466 C451 1.261 . S
O467 Sm441 2.450 . S
O467 C451 1.242 . S
O468 Sm440 2.386 . S
O468 Sm441 2.681 . S
O468 C458 1.271 . S
O469 Sm441 2.464 . S
O469 C458 1.251 . S
O470 Sm441 2.396 . S
O470 C459 1.252 . S
O471 Sm440 2.408 . S
O471 C459 1.272 . S
H472 C444 0.930 . S
H473 C445 0.929 . S
H474 C447 0.930 . S
H475 C448 0.929 . S
H476 C453 0.930 . S
H477 C454 0.929 . S
H478 C456 0.930 . S
H479 C457 0.929 . S
Sm480 C482 2.846 . S
Sm480 O500 2.543 . S
Sm480 O501 2.450 . S
Sm480 O502 2.681 . S
Sm480 O503 2.464 . S
Sm480 O504 2.396 . S
Sm480 O508 2.386 . S
Sm480 O511 2.408 . S
Sm481 C491 2.846 . S
Sm481 O502 2.386 . S
Sm481 O505 2.408 . S
Sm481 O506 2.543 . S
Sm481 O507 2.450 . S
Sm481 O508 2.681 . S
Sm481 O509 2.464 . S
Sm481 O510 2.396 . S
C482 Sm480 2.846 . S
C482 C483 1.506 . S
C482 O500 1.261 . S
C482 O501 1.242 . S
C483 C482 1.506 . S
C483 C484 1.358 . S
C483 C488 1.382 . S
C484 C483 1.358 . S
C484 C485 1.385 . S
C484 H512 0.930 . S
C485 C484 1.385 . S
C485 C486 1.395 . S
C485 H513 0.929 . S
C486 C485 1.395 . S
C486 C487 1.335 . S
C487 C486 1.335 . S
C487 C488 1.398 . S
C487 H514 0.930 . S
C488 C483 1.382 . S
C488 C487 1.398 . S
C488 H515 0.929 . S
C489 O502 1.271 . S
C489 O503 1.251 . S
C490 O504 1.252 . S
C490 O505 1.272 . S
C491 Sm481 2.846 . S
C491 C492 1.506 . S
C491 O506 1.261 . S
C491 O507 1.242 . S
C492 C491 1.506 . S
C492 C493 1.358 . S
C492 C497 1.382 . S
C493 C492 1.358 . S
C493 C494 1.385 . S
C493 H516 0.930 . S
C494 C493 1.385 . S
C494 C495 1.395 . S
C494 H517 0.929 . S
C495 C494 1.395 . S
C495 C496 1.335 . S
C496 C495 1.335 . S
C496 C497 1.398 . S
C496 H518 0.930 . S
C497 C492 1.382 . S
C497 C496 1.398 . S
C497 H519 0.929 . S
C498 O508 1.271 . S
C498 O509 1.251 . S
C499 O510 1.252 . S
C499 O511 1.272 . S
O500 Sm480 2.543 . S
O500 C482 1.261 . S
O501 Sm480 2.450 . S
O501 C482 1.242 . S
O502 Sm480 2.681 . S
O502 Sm481 2.386 . S
O502 C489 1.271 . S
O503 Sm480 2.464 . S
O503 C489 1.251 . S
O504 Sm480 2.396 . S
O504 C490 1.252 . S
O505 Sm481 2.408 . S
O505 C490 1.272 . S
O506 Sm481 2.543 . S
O506 C491 1.261 . S
O507 Sm481 2.450 . S
O507 C491 1.242 . S
O508 Sm480 2.386 . S
O508 Sm481 2.681 . S
O508 C498 1.271 . S
O509 Sm481 2.464 . S
O509 C498 1.251 . S
O510 Sm481 2.396 . S
O510 C499 1.252 . S
O511 Sm480 2.408 . S
O511 C499 1.272 . S
H512 C484 0.930 . S
H513 C485 0.929 . S
H514 C487 0.930 . S
H515 C488 0.929 . S
H516 C493 0.930 . S
H517 C494 0.929 . S
H518 C496 0.930 . S
H519 C497 0.929 . S
Sm520 C522 2.846 . S
Sm520 O540 2.543 . S
Sm520 O541 2.450 . S
Sm520 O542 2.681 . S
Sm520 O543 2.464 . S
Sm520 O544 2.396 . S
Sm520 O548 2.386 . S
Sm520 O551 2.408 . S
Sm521 C531 2.846 . S
Sm521 O542 2.386 . S
Sm521 O545 2.408 . S
Sm521 O546 2.543 . S
Sm521 O547 2.450 . S
Sm521 O548 2.681 . S
Sm521 O549 2.464 . S
Sm521 O550 2.396 . S
C522 Sm520 2.846 . S
C522 C523 1.506 . S
C522 O540 1.261 . S
C522 O541 1.242 . S
C523 C522 1.506 . S
C523 C524 1.358 . S
C523 C528 1.382 . S
C524 C523 1.358 . S
C524 C525 1.385 . S
C524 H552 0.930 . S
C525 C524 1.385 . S
C525 C526 1.395 . S
C525 H553 0.929 . S
C526 C525 1.395 . S
C526 C527 1.335 . S
C527 C526 1.335 . S
C527 C528 1.398 . S
C527 H554 0.930 . S
C528 C523 1.382 . S
C528 C527 1.398 . S
C528 H555 0.929 . S
C529 O542 1.271 . S
C529 O543 1.251 . S
C530 O544 1.252 . S
C530 O545 1.272 . S
C531 Sm521 2.846 . S
C531 C532 1.506 . S
C531 O546 1.261 . S
C531 O547 1.242 . S
C532 C531 1.506 . S
C532 C533 1.358 . S
C532 C537 1.382 . S
C533 C532 1.358 . S
C533 C534 1.385 . S
C533 H556 0.930 . S
C534 C533 1.385 . S
C534 C535 1.395 . S
C534 H557 0.929 . S
C535 C534 1.395 . S
C535 C536 1.335 . S
C536 C535 1.335 . S
C536 C537 1.398 . S
C536 H558 0.930 . S
C537 C532 1.382 . S
C537 C536 1.398 . S
C537 H559 0.929 . S
C538 O548 1.271 . S
C538 O549 1.251 . S
C539 O550 1.252 . S
C539 O551 1.272 . S
O540 Sm520 2.543 . S
O540 C522 1.261 . S
O541 Sm520 2.450 . S
O541 C522 1.242 . S
O542 Sm520 2.681 . S
O542 Sm521 2.386 . S
O542 C529 1.271 . S
O543 Sm520 2.464 . S
O543 C529 1.251 . S
O544 Sm520 2.396 . S
O544 C530 1.252 . S
O545 Sm521 2.408 . S
O545 C530 1.272 . S
O546 Sm521 2.543 . S
O546 C531 1.261 . S
O547 Sm521 2.450 . S
O547 C531 1.242 . S
O548 Sm520 2.386 . S
O548 Sm521 2.681 . S
O548 C538 1.271 . S
O549 Sm521 2.464 . S
O549 C538 1.251 . S
O550 Sm521 2.396 . S
O550 C539 1.252 . S
O551 Sm520 2.408 . S
O551 C539 1.272 . S
H552 C524 0.930 . S
H553 C525 0.929 . S
H554 C527 0.930 . S
H555 C528 0.929 . S
H556 C533 0.930 . S
H557 C534 0.929 . S
H558 C536 0.930 . S
H559 C537 0.929 . S
Sm560 C562 2.846 . S
Sm560 O580 2.543 . S
Sm560 O581 2.450 . S
Sm560 O582 2.681 . S
Sm560 O583 2.464 . S
Sm560 O584 2.396 . S
Sm560 O588 2.386 . S
Sm560 O591 2.408 . S
Sm561 C571 2.846 . S
Sm561 O582 2.386 1_554 S
Sm561 O585 2.408 . S
Sm561 O586 2.543 . S
Sm561 O587 2.450 . S
Sm561 O588 2.681 1_554 S
Sm561 O589 2.464 1_554 S
Sm561 O590 2.396 1_554 S
C562 Sm560 2.846 . S
C562 C563 1.506 . S
C562 O580 1.261 . S
C562 O581 1.242 . S
C563 C562 1.506 . S
C563 C564 1.358 . S
C563 C568 1.382 . S
C564 C563 1.358 . S
C564 C565 1.385 . S
C564 H592 0.930 . S
C565 C564 1.385 . S
C565 C566 1.395 . S
C565 H593 0.929 . S
C566 C565 1.395 . S
C566 C567 1.335 . S
C567 C566 1.335 . S
C567 C568 1.398 . S
C567 H594 0.930 . S
C568 C563 1.382 . S
C568 C567 1.398 . S
C568 H595 0.929 . S
C569 O582 1.271 1_554 S
C569 O583 1.251 1_554 S
C570 O584 1.252 . S
C570 O585 1.272 1_556 S
C571 Sm561 2.846 . S
C571 C572 1.506 . S
C571 O586 1.261 . S
C571 O587 1.242 . S
C572 C571 1.506 . S
C572 C573 1.358 . S
C572 C577 1.382 . S
C573 C572 1.358 . S
C573 C574 1.385 . S
C573 H596 0.930 . S
C574 C573 1.385 . S
C574 C575 1.395 . S
C574 H597 0.929 . S
C575 C574 1.395 . S
C575 C576 1.335 . S
C576 C575 1.335 . S
C576 C577 1.398 . S
C576 H598 0.930 . S
C577 C572 1.382 . S
C577 C576 1.398 . S
C577 H599 0.929 . S
C578 O588 1.271 . S
C578 O589 1.251 . S
C579 O590 1.252 . S
C579 O591 1.272 . S
O580 Sm560 2.543 . S
O580 C562 1.261 . S
O581 Sm560 2.450 . S
O581 C562 1.242 . S
O582 Sm560 2.681 . S
O582 Sm561 2.386 1_556 S
O582 C569 1.271 1_556 S
O583 Sm560 2.464 . S
O583 C569 1.251 1_556 S
O584 Sm560 2.396 . S
O584 C570 1.252 . S
O585 Sm561 2.408 . S
O585 C570 1.272 1_554 S
O586 Sm561 2.543 . S
O586 C571 1.261 . S
O587 Sm561 2.450 . S
O587 C571 1.242 . S
O588 Sm560 2.386 . S
O588 Sm561 2.681 1_556 S
O588 C578 1.271 . S
O589 Sm561 2.464 1_556 S
O589 C578 1.251 . S
O590 Sm561 2.396 1_556 S
O590 C579 1.252 . S
O591 Sm560 2.408 . S
O591 C579 1.272 . S
H592 C564 0.930 . S
H593 C565 0.929 . S
H594 C567 0.930 . S
H595 C568 0.929 . S
H596 C573 0.930 . S
H597 C574 0.929 . S
H598 C576 0.930 . S
H599 C577 0.929 . S
Sm600 C602 2.846 . S
Sm600 O620 2.543 . S
Sm600 O621 2.450 . S
Sm600 O622 2.681 . S
Sm600 O623 2.464 . S
Sm600 O624 2.396 . S
Sm600 O628 2.386 . S
Sm600 O631 2.408 . S
Sm601 C611 2.846 . S
Sm601 O622 2.386 . S
Sm601 O625 2.408 . S
Sm601 O626 2.543 . S
Sm601 O627 2.450 . S
Sm601 O628 2.681 . S
Sm601 O629 2.464 . S
Sm601 O630 2.396 . S
C602 Sm600 2.846 . S
C602 C603 1.506 . S
C602 O620 1.261 . S
C602 O621 1.242 . S
C603 C602 1.506 . S
C603 C604 1.358 . S
C603 C608 1.382 . S
C604 C603 1.358 . S
C604 C605 1.385 . S
C604 H632 0.930 . S
C605 C604 1.385 . S
C605 C606 1.395 . S
C605 H633 0.929 . S
C606 C605 1.395 . S
C606 C607 1.335 . S
C607 C606 1.335 . S
C607 C608 1.398 . S
C607 H634 0.930 . S
C608 C603 1.382 . S
C608 C607 1.398 . S
C608 H635 0.929 . S
C609 O622 1.271 . S
C609 O623 1.251 . S
C610 O624 1.252 . S
C610 O625 1.272 . S
C611 Sm601 2.846 . S
C611 C612 1.506 . S
C611 O626 1.261 . S
C611 O627 1.242 . S
C612 C611 1.506 . S
C612 C613 1.358 . S
C612 C617 1.382 . S
C613 C612 1.358 . S
C613 C614 1.385 . S
C613 H636 0.930 . S
C614 C613 1.385 . S
C614 C615 1.395 . S
C614 H637 0.929 . S
C615 C614 1.395 . S
C615 C616 1.335 . S
C616 C615 1.335 . S
C616 C617 1.398 . S
C616 H638 0.930 . S
C617 C612 1.382 . S
C617 C616 1.398 . S
C617 H639 0.929 . S
C618 O628 1.271 . S
C618 O629 1.251 . S
C619 O630 1.252 . S
C619 O631 1.272 . S
O620 Sm600 2.543 . S
O620 C602 1.261 . S
O621 Sm600 2.450 . S
O621 C602 1.242 . S
O622 Sm600 2.681 . S
O622 Sm601 2.386 . S
O622 C609 1.271 . S
O623 Sm600 2.464 . S
O623 C609 1.251 . S
O624 Sm600 2.396 . S
O624 C610 1.252 . S
O625 Sm601 2.408 . S
O625 C610 1.272 . S
O626 Sm601 2.543 . S
O626 C611 1.261 . S
O627 Sm601 2.450 . S
O627 C611 1.242 . S
O628 Sm600 2.386 . S
O628 Sm601 2.681 . S
O628 C618 1.271 . S
O629 Sm601 2.464 . S
O629 C618 1.251 . S
O630 Sm601 2.396 . S
O630 C619 1.252 . S
O631 Sm600 2.408 . S
O631 C619 1.272 . S
H632 C604 0.930 . S
H633 C605 0.929 . S
H634 C607 0.930 . S
H635 C608 0.929 . S
H636 C613 0.930 . S
H637 C614 0.929 . S
H638 C616 0.930 . S
H639 C617 0.929 . S
C640 C641 1.391 . S
C640 C642 1.394 . S
C640 H656 0.931 . S
C641 C640 1.391 . S
C641 C645 1.376 . S
C642 C640 1.394 . S
C642 C643 1.369 . S
C642 C646 1.531 . S
C643 C642 1.369 . S
C643 C644 1.410 . S
C643 C651 1.503 . S
C644 C643 1.410 . S
C644 C645 1.392 . S
C644 C647 1.511 . S
C645 C641 1.376 . S
C645 C644 1.392 . S
C645 H657 0.929 . S
C646 C642 1.531 . S
C646 H658 0.960 . S
C646 H659 0.962 . S
C646 H660 0.960 . S
C647 C644 1.511 . S
C647 H661 0.961 . S
C647 H662 0.961 . S
C647 H663 0.961 1_554 S
C648 C649 1.370 . S
C648 C650 1.363 . S
C648 H664 0.931 . S
C649 C648 1.370 . S
C649 C653 1.408 . S
C650 C648 1.363 . S
C650 C651 1.370 . S
C650 C654 1.524 . S
C651 C643 1.503 . S
C651 C650 1.370 . S
C651 C652 1.403 . S
C652 C651 1.403 . S
C652 C653 1.404 . S
C652 C655 1.539 1_554 S
C653 C649 1.408 . S
C653 C652 1.404 . S
C653 H665 0.930 1_554 S
C654 C650 1.524 . S
C654 H666 0.956 . S
C654 H667 0.961 . S
C654 H668 0.961 . S
C655 C652 1.539 1_556 S
C655 H669 0.958 . S
C655 H670 0.961 . S
C655 H671 0.960 . S
H656 C640 0.931 . S
H657 C645 0.929 . S
H658 C646 0.960 . S
H659 C646 0.962 . S
H660 C646 0.960 . S
H661 C647 0.961 . S
H662 C647 0.961 . S
H663 C647 0.961 1_556 S
H664 C648 0.931 . S
H665 C653 0.930 1_556 S
H666 C654 0.956 . S
H667 C654 0.961 . S
H668 C654 0.961 . S
H669 C655 0.958 . S
H670 C655 0.961 . S
H671 C655 0.960 . S
C672 C673 1.391 . S
C672 C674 1.394 . S
C672 H688 0.931 . S
C673 C672 1.391 . S
C673 C677 1.376 . S
C674 C672 1.394 . S
C674 C675 1.369 . S
C674 C678 1.531 . S
C675 C674 1.369 . S
C675 C676 1.410 . S
C675 C683 1.503 . S
C676 C675 1.410 . S
C676 C677 1.392 . S
C676 C679 1.511 . S
C677 C673 1.376 . S
C677 C676 1.392 . S
C677 H689 0.929 . S
C678 C674 1.531 . S
C678 H690 0.960 . S
C678 H691 0.962 . S
C678 H692 0.960 . S
C679 C676 1.511 . S
C679 H693 0.961 . S
C679 H694 0.961 . S
C679 H695 0.961 . S
C680 C681 1.370 . S
C680 C682 1.363 . S
C680 H696 0.931 . S
C681 C680 1.370 . S
C681 C685 1.408 . S
C682 C680 1.363 . S
C682 C683 1.370 . S
C682 C686 1.524 . S
C683 C675 1.503 . S
C683 C682 1.370 . S
C683 C684 1.403 . S
C684 C683 1.403 . S
C684 C685 1.404 . S
C684 C687 1.539 . S
C685 C681 1.408 . S
C685 C684 1.404 . S
C685 H697 0.930 . S
C686 C682 1.524 . S
C686 H698 0.956 . S
C686 H699 0.961 . S
C686 H700 0.961 . S
C687 C684 1.539 . S
C687 H701 0.958 . S
C687 H702 0.961 . S
C687 H703 0.960 . S
H688 C672 0.931 . S
H689 C677 0.929 . S
H690 C678 0.960 . S
H691 C678 0.962 . S
H692 C678 0.960 . S
H693 C679 0.961 . S
H694 C679 0.961 . S
H695 C679 0.961 . S
H696 C680 0.931 . S
H697 C685 0.930 . S
H698 C686 0.956 . S
H699 C686 0.961 . S
H700 C686 0.961 . S
H701 C687 0.958 . S
H702 C687 0.961 . S
H703 C687 0.960 . S
C704 C705 1.391 . S
C704 C706 1.394 . S
C704 H720 0.931 . S
C705 C704 1.391 . S
C705 C709 1.376 . S
C706 C704 1.394 . S
C706 C707 1.369 . S
C706 C710 1.531 1_455 S
C707 C706 1.369 . S
C707 C708 1.410 . S
C707 C715 1.503 1_455 S
C708 C707 1.410 . S
C708 C709 1.392 . S
C708 C711 1.511 . S
C709 C705 1.376 . S
C709 C708 1.392 . S
C709 H721 0.929 . S
C710 C706 1.531 1_655 S
C710 H722 0.960 . S
C710 H723 0.962 . S
C710 H724 0.960 . S
C711 C708 1.511 . S
C711 H725 0.961 . S
C711 H726 0.961 . S
C711 H727 0.961 . S
C712 C713 1.370 . S
C712 C714 1.363 . S
C712 H728 0.931 . S
C713 C712 1.370 . S
C713 C717 1.408 . S
C714 C712 1.363 . S
C714 C715 1.370 . S
C714 C718 1.524 . S
C715 C707 1.503 1_655 S
C715 C714 1.370 . S
C715 C716 1.403 . S
C716 C715 1.403 . S
C716 C717 1.404 . S
C716 C719 1.539 1_655 S
C717 C713 1.408 . S
C717 C716 1.404 . S
C717 H729 0.930 . S
C718 C714 1.524 . S
C718 H730 0.956 . S
C718 H731 0.961 . S
C718 H732 0.961 . S
C719 C716 1.539 1_455 S
C719 H733 0.958 . S
C719 H734 0.961 . S
C719 H735 0.960 . S
H720 C704 0.931 . S
H721 C709 0.929 . S
H722 C710 0.960 . S
H723 C710 0.962 . S
H724 C710 0.960 . S
H725 C711 0.961 . S
H726 C711 0.961 . S
H727 C711 0.961 . S
H728 C712 0.931 . S
H729 C717 0.930 . S
H730 C718 0.956 . S
H731 C718 0.961 . S
H732 C718 0.961 . S
H733 C719 0.958 . S
H734 C719 0.961 . S
H735 C719 0.960 . S
C736 C737 1.391 . S
C736 C738 1.394 . S
C736 H752 0.931 . S
C737 C736 1.391 . S
C737 C741 1.376 . S
C738 C736 1.394 . S
C738 C739 1.369 . S
C738 C742 1.531 . S
C739 C738 1.369 . S
C739 C740 1.410 . S
C739 C747 1.503 1_655 S
C740 C739 1.410 . S
C740 C741 1.392 . S
C740 C743 1.511 1_655 S
C741 C737 1.376 . S
C741 C740 1.392 . S
C741 H753 0.929 . S
C742 C738 1.531 . S
C742 H754 0.960 . S
C742 H755 0.962 . S
C742 H756 0.960 . S
C743 C740 1.511 1_455 S
C743 H757 0.961 . S
C743 H758 0.961 . S
C743 H759 0.961 . S
C744 C745 1.370 . S
C744 C746 1.363 . S
C744 H760 0.931 . S
C745 C744 1.370 . S
C745 C749 1.408 . S
C746 C744 1.363 . S
C746 C747 1.370 . S
C746 C750 1.524 . S
C747 C739 1.503 1_455 S
C747 C746 1.370 . S
C747 C748 1.403 . S
C748 C747 1.403 . S
C748 C749 1.404 . S
C748 C751 1.539 . S
C749 C745 1.408 . S
C749 C748 1.404 . S
C749 H761 0.930 . S
C750 C746 1.524 . S
C750 H762 0.956 1_455 S
C750 H763 0.961 . S
C750 H764 0.961 . S
C751 C748 1.539 . S
C751 H765 0.958 . S
C751 H766 0.961 . S
C751 H767 0.960 . S
H752 C736 0.931 . S
H753 C741 0.929 . S
H754 C742 0.960 . S
H755 C742 0.962 . S
H756 C742 0.960 . S
H757 C743 0.961 . S
H758 C743 0.961 . S
H759 C743 0.961 . S
H760 C744 0.931 . S
H761 C749 0.930 . S
H762 C750 0.956 1_655 S
H763 C750 0.961 . S
H764 C750 0.961 . S
H765 C751 0.958 . S
H766 C751 0.961 . S
H767 C751 0.960 . S
C768 C769 1.391 . S
C768 C770 1.394 . S
C768 H784 0.931 . S
C769 C768 1.391 . S
C769 C773 1.376 . S
C770 C768 1.394 . S
C770 C771 1.369 . S
C770 C774 1.531 . S
C771 C770 1.369 . S
C771 C772 1.410 . S
C771 C779 1.503 . S
C772 C771 1.410 . S
C772 C773 1.392 . S
C772 C775 1.511 . S
C773 C769 1.376 . S
C773 C772 1.392 . S
C773 H785 0.929 . S
C774 C770 1.531 . S
C774 H786 0.960 . S
C774 H787 0.962 . S
C774 H788 0.960 . S
C775 C772 1.511 . S
C775 H789 0.961 . S
C775 H790 0.961 . S
C775 H791 0.961 . S
C776 C777 1.370 . S
C776 C778 1.363 . S
C776 H792 0.931 . S
C777 C776 1.370 . S
C777 C781 1.408 . S
C778 C776 1.363 . S
C778 C779 1.370 . S
C778 C782 1.524 . S
C779 C771 1.503 . S
C779 C778 1.370 . S
C779 C780 1.403 . S
C780 C779 1.403 . S
C780 C781 1.404 . S
C780 C783 1.539 1_556 S
C781 C777 1.408 . S
C781 C780 1.404 . S
C781 H793 0.930 1_556 S
C782 C778 1.524 . S
C782 H794 0.956 . S
C782 H795 0.961 . S
C782 H796 0.961 . S
C783 C780 1.539 1_554 S
C783 H797 0.958 . S
C783 H798 0.961 . S
C783 H799 0.960 . S
H784 C768 0.931 . S
H785 C773 0.929 . S
H786 C774 0.960 . S
H787 C774 0.962 . S
H788 C774 0.960 . S
H789 C775 0.961 . S
H790 C775 0.961 . S
H791 C775 0.961 . S
H792 C776 0.931 . S
H793 C781 0.930 1_554 S
H794 C782 0.956 . S
H795 C782 0.961 . S
H796 C782 0.961 . S
H797 C783 0.958 . S
H798 C783 0.961 . S
H799 C783 0.960 . S
C800 C801 1.391 . S
C800 C802 1.394 . S
C800 H816 0.931 . S
C801 C800 1.391 . S
C801 C805 1.376 . S
C802 C800 1.394 . S
C802 C803 1.369 . S
C802 C806 1.531 . S
C803 C802 1.369 . S
C803 C804 1.410 . S
C803 C811 1.503 . S
C804 C803 1.410 . S
C804 C805 1.392 . S
C804 C807 1.511 . S
C805 C801 1.376 . S
C805 C804 1.392 . S
C805 H817 0.929 . S
C806 C802 1.531 . S
C806 H818 0.960 . S
C806 H819 0.962 . S
C806 H820 0.960 . S
C807 C804 1.511 . S
C807 H821 0.961 . S
C807 H822 0.961 . S
C807 H823 0.961 . S
C808 C809 1.370 . S
C808 C810 1.363 . S
C808 H824 0.931 . S
C809 C808 1.370 . S
C809 C813 1.408 . S
C810 C808 1.363 . S
C810 C811 1.370 . S
C810 C814 1.524 . S
C811 C803 1.503 . S
C811 C810 1.370 . S
C811 C812 1.403 . S
C812 C811 1.403 . S
C812 C813 1.404 . S
C812 C815 1.539 . S
C813 C809 1.408 . S
C813 C812 1.404 . S
C813 H825 0.930 . S
C814 C810 1.524 . S
C814 H826 0.956 . S
C814 H827 0.961 . S
C814 H828 0.961 . S
C815 C812 1.539 . S
C815 H829 0.958 . S
C815 H830 0.961 . S
C815 H831 0.960 . S
H816 C800 0.931 . S
H817 C805 0.929 . S
H818 C806 0.960 . S
H819 C806 0.962 . S
H820 C806 0.960 . S
H821 C807 0.961 . S
H822 C807 0.961 . S
H823 C807 0.961 . S
H824 C808 0.931 . S
H825 C813 0.930 . S
H826 C814 0.956 . S
H827 C814 0.961 . S
H828 C814 0.961 . S
H829 C815 0.958 . S
H830 C815 0.961 . S
H831 C815 0.960 . S
C832 C833 1.391 . S
C832 C834 1.394 . S
C832 H848 0.931 . S
C833 C832 1.391 . S
C833 C837 1.376 . S
C834 C832 1.394 . S
C834 C835 1.369 . S
C834 C838 1.531 . S
C835 C834 1.369 . S
C835 C836 1.410 . S
C835 C843 1.503 1_655 S
C836 C835 1.410 . S
C836 C837 1.392 . S
C836 C839 1.511 1_655 S
C837 C833 1.376 . S
C837 C836 1.392 . S
C837 H849 0.929 . S
C838 C834 1.531 . S
C838 H850 0.960 . S
C838 H851 0.962 . S
C838 H852 0.960 . S
C839 C836 1.511 1_455 S
C839 H853 0.961 . S
C839 H854 0.961 . S
C839 H855 0.961 1_455 S
C840 C841 1.370 . S
C840 C842 1.363 . S
C840 H856 0.931 . S
C841 C840 1.370 . S
C841 C845 1.408 . S
C842 C840 1.363 . S
C842 C843 1.370 . S
C842 C846 1.524 . S
C843 C835 1.503 1_455 S
C843 C842 1.370 . S
C843 C844 1.404 . S
C844 C843 1.404 . S
C844 C845 1.407 . S
C844 C847 1.535 1_455 S
C845 C841 1.408 . S
C845 C844 1.407 . S
C845 H857 0.930 . S
C846 C842 1.524 . S
C846 H858 0.956 . S
C846 H859 0.961 . S
C846 H860 0.961 . S
C847 C844 1.535 1_655 S
C847 H861 0.958 . S
C847 H862 0.961 . S
C847 H863 0.960 . S
H848 C832 0.931 . S
H849 C837 0.929 . S
H850 C838 0.960 . S
H851 C838 0.962 . S
H852 C838 0.960 . S
H853 C839 0.961 . S
H854 C839 0.961 . S
H855 C839 0.961 1_655 S
H856 C840 0.931 . S
H857 C845 0.930 . S
H858 C846 0.956 . S
H859 C846 0.961 . S
H860 C846 0.961 . S
H861 C847 0.958 . S
H862 C847 0.961 . S
H863 C847 0.960 . S
C864 C865 1.391 . S
C864 C866 1.394 . S
C864 H880 0.931 . S
C865 C864 1.391 . S
C865 C869 1.376 . S
C866 C864 1.394 . S
C866 C867 1.369 . S
C866 C870 1.531 . S
C867 C866 1.369 . S
C867 C868 1.410 . S
C867 C875 1.503 1_455 S
C868 C867 1.410 . S
C868 C869 1.392 . S
C868 C871 1.511 1_455 S
C869 C865 1.376 . S
C869 C868 1.392 . S
C869 H881 0.929 . S
C870 C866 1.531 . S
C870 H882 0.960 . S
C870 H883 0.962 . S
C870 H884 0.960 . S
C871 C868 1.511 1_655 S
C871 H885 0.961 . S
C871 H886 0.961 . S
C871 H887 0.961 . S
C872 C873 1.370 . S
C872 C874 1.363 . S
C872 H888 0.931 . S
C873 C872 1.370 . S
C873 C877 1.408 . S
C874 C872 1.363 . S
C874 C875 1.370 . S
C874 C878 1.550 . S
C875 C867 1.503 1_655 S
C875 C874 1.370 . S
C875 C876 1.403 . S
C876 C875 1.403 . S
C876 C877 1.404 . S
C876 C879 1.539 . S
C877 C873 1.408 . S
C877 C876 1.404 . S
C877 H889 0.930 . S
C878 C874 1.550 . S
C878 H890 0.912 1_655 S
C878 H891 0.960 . S
C878 H892 0.981 . S
C879 C876 1.539 . S
C879 H893 0.958 . S
C879 H894 0.961 . S
C879 H895 0.960 . S
H880 C864 0.931 . S
H881 C869 0.929 . S
H882 C870 0.960 . S
H883 C870 0.962 . S
H884 C870 0.960 . S
H885 C871 0.961 . S
H886 C871 0.961 . S
H887 C871 0.961 . S
H888 C872 0.931 . S
H889 C877 0.930 . S
H890 C878 0.912 1_455 S
H891 C878 0.960 . S
H892 C878 0.981 . S
H893 C879 0.958 . S
H894 C879 0.961 . S
H895 C879 0.960 . S
C896 C897 1.391 . S
C896 C898 1.394 . S
C896 H912 0.931 . S
C897 C896 1.391 . S
C897 C901 1.376 . S
C898 C896 1.394 . S
C898 C899 1.369 . S
C898 C902 1.531 . S
C899 C898 1.369 . S
C899 C900 1.410 . S
C899 C907 1.503 . S
C900 C899 1.410 . S
C900 C901 1.392 . S
C900 C903 1.511 . S
C901 C897 1.376 . S
C901 C900 1.392 . S
C901 H913 0.929 . S
C902 C898 1.531 . S
C902 H914 0.960 . S
C902 H915 0.962 . S
C902 H916 0.960 . S
C903 C900 1.511 . S
C903 H917 0.961 . S
C903 H918 0.961 . S
C903 H919 0.961 . S
C904 C905 1.370 . S
C904 C906 1.363 . S
C904 H920 0.931 . S
C905 C904 1.370 . S
C905 C909 1.408 . S
C906 C904 1.363 . S
C906 C907 1.370 . S
C906 C910 1.524 . S
C907 C899 1.503 . S
C907 C906 1.370 . S
C907 C908 1.403 . S
C908 C907 1.403 . S
C908 C909 1.404 . S
C908 C911 1.539 . S
C909 C905 1.408 . S
C909 C908 1.404 . S
C909 H921 0.930 . S
C910 C906 1.524 . S
C910 H922 0.956 . S
C910 H923 0.961 . S
C910 H924 0.961 . S
C911 C908 1.539 . S
C911 H925 0.958 . S
C911 H926 0.961 . S
C911 H927 0.960 . S
H912 C896 0.931 . S
H913 C901 0.929 . S
H914 C902 0.960 . S
H915 C902 0.962 . S
H916 C902 0.960 . S
H917 C903 0.961 . S
H918 C903 0.961 . S
H919 C903 0.961 . S
H920 C904 0.931 . S
H921 C909 0.930 . S
H922 C910 0.956 . S
H923 C910 0.961 . S
H924 C910 0.961 . S
H925 C911 0.958 . S
H926 C911 0.961 . S
H927 C911 0.960 . S
C928 C929 1.391 . S
C928 C930 1.394 . S
C928 H944 0.931 . S
C929 C928 1.391 . S
C929 C933 1.376 . S
C930 C928 1.394 . S
C930 C931 1.369 . S
C930 C934 1.531 . S
C931 C930 1.369 . S
C931 C932 1.410 . S
C931 C939 1.503 . S
C932 C931 1.410 . S
C932 C933 1.392 . S
C932 C935 1.511 . S
C933 C929 1.376 . S
C933 C932 1.392 . S
C933 H945 0.929 . S
C934 C930 1.531 . S
C934 H946 0.960 . S
C934 H947 0.962 . S
C934 H948 0.960 . S
C935 C932 1.511 . S
C935 H949 0.961 . S
C935 H950 0.961 . S
C935 H951 0.961 . S
C936 C937 1.370 . S
C936 C938 1.363 . S
C936 H952 0.931 . S
C937 C936 1.370 . S
C937 C941 1.408 . S
C938 C936 1.363 . S
C938 C939 1.370 . S
C938 C942 1.524 . S
C939 C931 1.503 . S
C939 C938 1.370 . S
C939 C940 1.403 . S
C940 C939 1.403 . S
C940 C941 1.404 . S
C940 C943 1.539 . S
C941 C937 1.408 . S
C941 C940 1.404 . S
C941 H953 0.930 . S
C942 C938 1.524 . S
C942 H954 0.956 . S
C942 H955 0.961 . S
C942 H956 0.961 . S
C943 C940 1.539 . S
C943 H957 0.958 . S
C943 H958 0.961 . S
C943 H959 0.960 . S
H944 C928 0.931 . S
H945 C933 0.929 . S
H946 C934 0.960 . S
H947 C934 0.962 . S
H948 C934 0.960 . S
H949 C935 0.961 . S
H950 C935 0.961 . S
H951 C935 0.961 . S
H952 C936 0.931 . S
H953 C941 0.930 . S
H954 C942 0.956 . S
H955 C942 0.961 . S
H956 C942 0.961 . S
H957 C943 0.958 . S
H958 C943 0.961 . S
H959 C943 0.960 . S
C960 C961 1.391 . S
C960 C962 1.394 . S
C960 H976 0.931 . S
C961 C960 1.391 . S
C961 C965 1.376 . S
C962 C960 1.394 . S
C962 C963 1.369 . S
C962 C966 1.531 . S
C963 C962 1.369 . S
C963 C964 1.410 . S
C963 C971 1.503 . S
C964 C963 1.410 . S
C964 C965 1.392 . S
C964 C967 1.511 . S
C965 C961 1.376 . S
C965 C964 1.392 . S
C965 H977 0.929 . S
C966 C962 1.531 . S
C966 H978 0.960 . S
C966 H979 0.962 . S
C966 H980 0.960 . S
C967 C964 1.511 . S
C967 H981 0.961 . S
C967 H982 0.961 . S
C967 H983 0.961 . S
C968 C969 1.370 . S
C968 C970 1.363 . S
C968 H984 0.931 . S
C969 C968 1.370 . S
C969 C973 1.408 . S
C970 C968 1.363 . S
C970 C971 1.370 . S
C970 C974 1.524 . S
C971 C963 1.503 . S
C971 C970 1.370 . S
C971 C972 1.403 . S
C972 C971 1.403 . S
C972 C973 1.404 . S
C972 C975 1.539 . S
C973 C969 1.408 . S
C973 C972 1.404 . S
C973 H985 0.930 . S
C974 C970 1.524 . S
C974 H986 0.956 . S
C974 H987 0.961 . S
C974 H988 0.961 . S
C975 C972 1.539 . S
C975 H989 0.958 . S
C975 H990 0.961 . S
C975 H991 0.960 . S
H976 C960 0.931 . S
H977 C965 0.929 . S
H978 C966 0.960 . S
H979 C966 0.962 . S
H980 C966 0.960 . S
H981 C967 0.961 . S
H982 C967 0.961 . S
H983 C967 0.961 . S
H984 C968 0.931 . S
H985 C973 0.930 . S
H986 C974 0.956 . S
H987 C974 0.961 . S
H988 C974 0.961 . S
H989 C975 0.958 . S
H990 C975 0.961 . S
H991 C975 0.960 . S
C992 C993 1.391 . S
C992 C994 1.394 . S
C992 H1008 0.931 . S
C993 C992 1.391 . S
C993 C997 1.376 . S
C994 C992 1.394 . S
C994 C995 1.369 . S
C994 C998 1.531 . S
C995 C994 1.369 . S
C995 C996 1.410 . S
C995 C1003 1.503 . S
C996 C995 1.410 . S
C996 C997 1.392 . S
C996 C999 1.511 . S
C997 C993 1.376 . S
C997 C996 1.392 . S
C997 H1009 0.929 . S
C998 C994 1.531 . S
C998 H1010 0.960 . S
C998 H1011 0.962 . S
C998 H1012 0.960 . S
C999 C996 1.511 . S
C999 H1013 0.961 . S
C999 H1014 0.961 . S
C999 H1015 0.961 . S
C1000 C1001 1.370 . S
C1000 C1002 1.363 . S
C1000 H1016 0.931 . S
C1001 C1000 1.370 . S
C1001 C1005 1.408 . S
C1002 C1000 1.363 . S
C1002 C1003 1.370 . S
C1002 C1006 1.524 . S
C1003 C995 1.503 . S
C1003 C1002 1.370 . S
C1003 C1004 1.403 . S
C1004 C1003 1.403 . S
C1004 C1005 1.404 . S
C1004 C1007 1.539 . S
C1005 C1001 1.408 . S
C1005 C1004 1.404 . S
C1005 H1017 0.930 . S
C1006 C1002 1.524 . S
C1006 H1018 0.956 . S
C1006 H1019 0.961 . S
C1006 H1020 0.961 . S
C1007 C1004 1.539 . S
C1007 H1021 0.958 . S
C1007 H1022 0.961 . S
C1007 H1023 0.960 . S
H1008 C992 0.931 . S
H1009 C997 0.929 . S
H1010 C998 0.960 . S
H1011 C998 0.962 . S
H1012 C998 0.960 . S
H1013 C999 0.961 . S
H1014 C999 0.961 . S
H1015 C999 0.961 . S
H1016 C1000 0.931 . S
H1017 C1005 0.930 . S
H1018 C1006 0.956 . S
H1019 C1006 0.961 . S
H1020 C1006 0.961 . S
H1021 C1007 0.958 . S
H1022 C1007 0.961 . S
H1023 C1007 0.960 . S
C1024 C1025 1.391 . S
C1024 C1026 1.394 . S
C1024 H1040 0.931 1_554 S
C1025 C1024 1.391 . S
C1025 C1029 1.376 . S
C1026 C1024 1.394 . S
C1026 C1027 1.369 . S
C1026 C1030 1.531 . S
C1027 C1026 1.369 . S
C1027 C1028 1.410 . S
C1027 C1035 1.503 . S
C1028 C1027 1.410 . S
C1028 C1029 1.392 . S
C1028 C1031 1.511 . S
C1029 C1025 1.376 . S
C1029 C1028 1.392 . S
C1029 H1041 0.929 . S
C1030 C1026 1.531 . S
C1030 H1042 0.960 . S
C1030 H1043 0.962 . S
C1030 H1044 0.960 . S
C1031 C1028 1.511 . S
C1031 H1045 0.961 . S
C1031 H1046 0.961 . S
C1031 H1047 0.961 . S
C1032 C1033 1.370 . S
C1032 C1034 1.363 . S
C1032 H1048 0.931 . S
C1033 C1032 1.370 . S
C1033 C1037 1.408 . S
C1034 C1032 1.363 . S
C1034 C1035 1.370 . S
C1034 C1038 1.524 . S
C1035 C1027 1.503 . S
C1035 C1034 1.370 . S
C1035 C1036 1.403 . S
C1036 C1035 1.403 . S
C1036 C1037 1.404 . S
C1036 C1039 1.539 . S
C1037 C1033 1.408 . S
C1037 C1036 1.404 . S
C1037 H1049 0.930 . S
C1038 C1034 1.524 . S
C1038 H1050 0.956 . S
C1038 H1051 0.961 . S
C1038 H1052 0.961 . S
C1039 C1036 1.539 . S
C1039 H1053 0.958 . S
C1039 H1054 0.961 . S
C1039 H1055 0.960 . S
H1040 C1024 0.931 1_556 S
H1041 C1029 0.929 . S
H1042 C1030 0.960 . S
H1043 C1030 0.962 . S
H1044 C1030 0.960 . S
H1045 C1031 0.961 . S
H1046 C1031 0.961 . S
H1047 C1031 0.961 . S
H1048 C1032 0.931 . S
H1049 C1037 0.930 . S
H1050 C1038 0.956 . S
H1051 C1038 0.961 . S
H1052 C1038 0.961 . S
H1053 C1039 0.958 . S
H1054 C1039 0.961 . S
H1055 C1039 0.960 . S
C1056 C1057 1.391 . S
C1056 C1058 1.394 . S
C1056 H1072 0.931 . S
C1057 C1056 1.391 . S
C1057 C1061 1.376 . S
C1058 C1056 1.394 . S
C1058 C1059 1.369 . S
C1058 C1062 1.531 . S
C1059 C1058 1.369 . S
C1059 C1060 1.410 . S
C1059 C1067 1.503 . S
C1060 C1059 1.410 . S
C1060 C1061 1.392 . S
C1060 C1063 1.511 . S
C1061 C1057 1.376 . S
C1061 C1060 1.392 . S
C1061 H1073 0.929 . S
C1062 C1058 1.531 . S
C1062 H1074 0.960 . S
C1062 H1075 0.962 . S
C1062 H1076 0.960 . S
C1063 C1060 1.511 . S
C1063 H1077 0.961 . S
C1063 H1078 0.961 . S
C1063 H1079 0.961 . S
C1064 C1065 1.370 . S
C1064 C1066 1.363 . S
C1064 H1080 0.931 . S
C1065 C1064 1.370 . S
C1065 C1069 1.408 . S
C1066 C1064 1.363 . S
C1066 C1067 1.370 . S
C1066 C1070 1.524 . S
C1067 C1059 1.503 . S
C1067 C1066 1.370 . S
C1067 C1068 1.403 . S
C1068 C1067 1.403 . S
C1068 C1069 1.404 . S
C1068 C1071 1.539 . S
C1069 C1065 1.408 . S
C1069 C1068 1.404 . S
C1069 H1081 0.930 . S
C1070 C1066 1.524 . S
C1070 H1082 0.956 . S
C1070 H1083 0.961 . S
C1070 H1084 0.961 . S
C1071 C1068 1.539 . S
C1071 H1085 0.958 . S
C1071 H1086 0.961 . S
C1071 H1087 0.960 . S
H1072 C1056 0.931 . S
H1073 C1061 0.929 . S
H1074 C1062 0.960 . S
H1075 C1062 0.962 . S
H1076 C1062 0.960 . S
H1077 C1063 0.961 . S
H1078 C1063 0.961 . S
H1079 C1063 0.961 . S
H1080 C1064 0.931 . S
H1081 C1069 0.930 . S
H1082 C1070 0.956 . S
H1083 C1070 0.961 . S
H1084 C1070 0.961 . S
H1085 C1071 0.958 . S
H1086 C1071 0.961 . S
H1087 C1071 0.960 . S
C1088 C1089 1.391 . S
C1088 C1090 1.394 . S
C1088 H1104 0.931 . S
C1089 C1088 1.391 . S
C1089 C1093 1.376 . S
C1090 C1088 1.394 . S
C1090 C1091 1.369 . S
C1090 C1094 1.531 . S
C1091 C1090 1.369 . S
C1091 C1092 1.410 . S
C1091 C1099 1.503 . S
C1092 C1091 1.410 . S
C1092 C1093 1.392 . S
C1092 C1095 1.511 . S
C1093 C1089 1.376 . S
C1093 C1092 1.392 . S
C1093 H1105 0.929 . S
C1094 C1090 1.531 . S
C1094 H1106 0.960 . S
C1094 H1107 0.962 . S
C1094 H1108 0.960 . S
C1095 C1092 1.511 . S
C1095 H1109 0.961 . S
C1095 H1110 0.961 . S
C1095 H1111 0.961 . S
C1096 C1097 1.370 . S
C1096 C1098 1.363 . S
C1096 H1112 0.931 . S
C1097 C1096 1.370 . S
C1097 C1101 1.408 . S
C1098 C1096 1.363 . S
C1098 C1099 1.370 . S
C1098 C1102 1.524 . S
C1099 C1091 1.503 . S
C1099 C1098 1.370 . S
C1099 C1100 1.403 . S
C1100 C1099 1.403 . S
C1100 C1101 1.404 . S
C1100 C1103 1.539 . S
C1101 C1097 1.408 . S
C1101 C1100 1.404 . S
C1101 H1113 0.930 . S
C1102 C1098 1.524 . S
C1102 H1114 0.956 . S
C1102 H1115 0.961 . S
C1102 H1116 0.961 . S
C1103 C1100 1.539 . S
C1103 H1117 0.958 . S
C1103 H1118 0.961 . S
C1103 H1119 0.960 . S
H1104 C1088 0.931 . S
H1105 C1093 0.929 . S
H1106 C1094 0.960 . S
H1107 C1094 0.962 . S
H1108 C1094 0.960 . S
H1109 C1095 0.961 . S
H1110 C1095 0.961 . S
H1111 C1095 0.961 . S
H1112 C1096 0.931 . S
H1113 C1101 0.930 . S
H1114 C1102 0.956 . S
H1115 C1102 0.961 . S
H1116 C1102 0.961 . S
H1117 C1103 0.958 . S
H1118 C1103 0.961 . S
H1119 C1103 0.960 . S
C1120 C1121 1.391 . S
C1120 C1122 1.394 . S
C1120 H1136 0.931 . S
C1121 C1120 1.391 . S
C1121 C1125 1.376 . S
C1122 C1120 1.394 . S
C1122 C1123 1.369 . S
C1122 C1126 1.531 . S
C1123 C1122 1.369 . S
C1123 C1124 1.410 . S
C1123 C1131 1.503 . S
C1124 C1123 1.410 . S
C1124 C1125 1.392 . S
C1124 C1127 1.511 . S
C1125 C1121 1.376 . S
C1125 C1124 1.392 . S
C1125 H1137 0.929 . S
C1126 C1122 1.531 . S
C1126 H1138 0.960 . S
C1126 H1139 0.962 . S
C1126 H1140 0.960 . S
C1127 C1124 1.511 . S
C1127 H1141 0.961 . S
C1127 H1142 0.961 . S
C1127 H1143 0.961 . S
C1128 C1129 1.370 . S
C1128 C1130 1.363 . S
C1128 H1144 0.931 . S
C1129 C1128 1.370 . S
C1129 C1133 1.408 . S
C1130 C1128 1.363 . S
C1130 C1131 1.370 . S
C1130 C1134 1.524 . S
C1131 C1123 1.503 . S
C1131 C1130 1.370 . S
C1131 C1132 1.403 . S
C1132 C1131 1.403 . S
C1132 C1133 1.404 . S
C1132 C1135 1.539 . S
C1133 C1129 1.408 . S
C1133 C1132 1.404 . S
C1133 H1145 0.930 . S
C1134 C1130 1.524 . S
C1134 H1146 0.956 . S
C1134 H1147 0.961 . S
C1134 H1148 0.961 . S
C1135 C1132 1.539 . S
C1135 H1149 0.958 . S
C1135 H1150 0.961 . S
C1135 H1151 0.960 . S
H1136 C1120 0.931 . S
H1137 C1125 0.929 . S
H1138 C1126 0.960 . S
H1139 C1126 0.962 . S
H1140 C1126 0.960 . S
H1141 C1127 0.961 . S
H1142 C1127 0.961 . S
H1143 C1127 0.961 . S
H1144 C1128 0.931 . S
H1145 C1133 0.930 . S
H1146 C1134 0.956 . S
H1147 C1134 0.961 . S
H1148 C1134 0.961 . S
H1149 C1135 0.958 . S
H1150 C1135 0.961 . S
H1151 C1135 0.960 . S
C1152 C1153 1.391 . S
C1152 C1154 1.394 . S
C1152 H1168 0.931 . S
C1153 C1152 1.391 . S
C1153 C1157 1.376 . S
C1154 C1152 1.394 . S
C1154 C1155 1.369 . S
C1154 C1158 1.531 . S
C1155 C1154 1.369 . S
C1155 C1156 1.410 . S
C1155 C1163 1.503 . S
C1156 C1155 1.410 . S
C1156 C1157 1.392 . S
C1156 C1159 1.511 . S
C1157 C1153 1.376 . S
C1157 C1156 1.392 . S
C1157 H1169 0.929 . S
C1158 C1154 1.531 . S
C1158 H1170 0.960 . S
C1158 H1171 0.962 . S
C1158 H1172 0.960 . S
C1159 C1156 1.511 . S
C1159 H1173 0.961 . S
C1159 H1174 0.961 . S
C1159 H1175 0.961 . S
C1160 C1161 1.370 . S
C1160 C1162 1.363 . S
C1160 H1176 0.931 . S
C1161 C1160 1.370 . S
C1161 C1165 1.408 . S
C1162 C1160 1.363 . S
C1162 C1163 1.370 . S
C1162 C1166 1.524 . S
C1163 C1155 1.503 . S
C1163 C1162 1.370 . S
C1163 C1164 1.403 . S
C1164 C1163 1.403 . S
C1164 C1165 1.404 . S
C1164 C1167 1.539 . S
C1165 C1161 1.408 . S
C1165 C1164 1.404 . S
C1165 H1177 0.930 . S
C1166 C1162 1.524 . S
C1166 H1178 0.956 . S
C1166 H1179 0.961 . S
C1166 H1180 0.961 . S
C1167 C1164 1.539 . S
C1167 H1181 0.958 . S
C1167 H1182 0.961 . S
C1167 H1183 0.960 . S
H1168 C1152 0.931 . S
H1169 C1157 0.929 . S
H1170 C1158 0.960 . S
H1171 C1158 0.962 . S
H1172 C1158 0.960 . S
H1173 C1159 0.961 . S
H1174 C1159 0.961 . S
H1175 C1159 0.961 . S
H1176 C1160 0.931 . S
H1177 C1165 0.930 . S
H1178 C1166 0.956 . S
H1179 C1166 0.961 . S
H1180 C1166 0.961 . S
H1181 C1167 0.958 . S
H1182 C1167 0.961 . S
H1183 C1167 0.960 . S
C1184 C1185 1.391 . S
C1184 C1186 1.394 . S
C1184 H1200 0.931 . S
C1185 C1184 1.391 . S
C1185 C1189 1.376 . S
C1186 C1184 1.394 . S
C1186 C1187 1.369 1_545 S
C1186 C1190 1.531 1_545 S
C1187 C1186 1.369 1_565 S
C1187 C1188 1.410 . S
C1187 C1195 1.503 . S
C1188 C1187 1.410 . S
C1188 C1189 1.392 1_565 S
C1188 C1191 1.511 . S
C1189 C1185 1.376 . S
C1189 C1188 1.392 1_545 S
C1189 H1201 0.929 . S
C1190 C1186 1.531 1_565 S
C1190 H1202 0.960 . S
C1190 H1203 0.962 . S
C1190 H1204 0.960 . S
C1191 C1188 1.511 . S
C1191 H1205 0.961 . S
C1191 H1206 0.961 . S
C1191 H1207 0.961 . S
C1192 C1193 1.370 . S
C1192 C1194 1.363 . S
C1192 H1208 0.931 . S
C1193 C1192 1.370 . S
C1193 C1197 1.408 . S
C1194 C1192 1.363 . S
C1194 C1195 1.370 . S
C1194 C1198 1.524 . S
C1195 C1187 1.503 . S
C1195 C1194 1.370 . S
C1195 C1196 1.403 . S
C1196 C1195 1.403 . S
C1196 C1197 1.404 . S
C1196 C1199 1.539 . S
C1197 C1193 1.408 . S
C1197 C1196 1.404 . S
C1197 H1209 0.930 . S
C1198 C1194 1.524 . S
C1198 H1210 0.956 1_565 S
C1198 H1211 0.962 1_565 S
C1198 H1212 0.961 . S
C1199 C1196 1.539 . S
C1199 H1213 0.958 . S
C1199 H1214 0.961 . S
C1199 H1215 0.960 . S
H1200 C1184 0.931 . S
H1201 C1189 0.929 . S
H1202 C1190 0.960 . S
H1203 C1190 0.962 . S
H1204 C1190 0.960 . S
H1205 C1191 0.961 . S
H1206 C1191 0.961 . S
H1207 C1191 0.961 . S
H1208 C1192 0.931 . S
H1209 C1197 0.930 . S
H1210 C1198 0.956 1_545 S
H1211 C1198 0.962 1_545 S
H1212 C1198 0.961 . S
H1213 C1199 0.958 . S
H1214 C1199 0.961 . S
H1215 C1199 0.960 . S
C1216 C1217 1.391 . S
C1216 C1218 1.394 . S
C1216 H1232 0.931 . S
C1217 C1216 1.391 . S
C1217 C1221 1.376 . S
C1218 C1216 1.394 . S
C1218 C1219 1.369 . S
C1218 C1222 1.531 . S
C1219 C1218 1.369 . S
C1219 C1220 1.410 . S
C1219 C1227 1.503 . S
C1220 C1219 1.410 . S
C1220 C1221 1.392 . S
C1220 C1223 1.511 . S
C1221 C1217 1.376 . S
C1221 C1220 1.392 . S
C1221 H1233 0.929 . S
C1222 C1218 1.531 . S
C1222 H1234 0.960 . S
C1222 H1235 0.962 . S
C1222 H1236 0.960 . S
C1223 C1220 1.511 . S
C1223 H1237 0.961 . S
C1223 H1238 0.961 . S
C1223 H1239 0.961 . S
C1224 C1225 1.370 . S
C1224 C1226 1.363 . S
C1224 H1240 0.931 . S
C1225 C1224 1.370 . S
C1225 C1229 1.408 . S
C1226 C1224 1.363 . S
C1226 C1227 1.370 . S
C1226 C1230 1.524 . S
C1227 C1219 1.503 . S
C1227 C1226 1.370 . S
C1227 C1228 1.403 . S
C1228 C1227 1.403 . S
C1228 C1229 1.404 . S
C1228 C1231 1.539 . S
C1229 C1225 1.408 . S
C1229 C1228 1.404 . S
C1229 H1241 0.930 . S
C1230 C1226 1.524 . S
C1230 H1242 0.956 . S
C1230 H1243 0.961 . S
C1230 H1244 0.961 . S
C1231 C1228 1.539 . S
C1231 H1245 0.958 . S
C1231 H1246 0.961 . S
C1231 H1247 0.960 . S
H1232 C1216 0.931 . S
H1233 C1221 0.929 . S
H1234 C1222 0.960 . S
H1235 C1222 0.962 . S
H1236 C1222 0.960 . S
H1237 C1223 0.961 . S
H1238 C1223 0.961 . S
H1239 C1223 0.961 . S
H1240 C1224 0.931 . S
H1241 C1229 0.930 . S
H1242 C1230 0.956 . S
H1243 C1230 0.961 . S
H1244 C1230 0.961 . S
H1245 C1231 0.958 . S
H1246 C1231 0.961 . S
H1247 C1231 0.960 . S
C1248 C1249 1.391 . S
C1248 C1250 1.394 1_565 S
C1248 H1264 0.931 . S
C1249 C1248 1.391 . S
C1249 C1253 1.376 . S
C1250 C1248 1.394 1_545 S
C1250 C1251 1.369 . S
C1250 C1254 1.531 . S
C1251 C1250 1.369 . S
C1251 C1252 1.410 1_545 S
C1251 C1259 1.503 . S
C1252 C1251 1.410 1_565 S
C1252 C1253 1.392 . S
C1252 C1255 1.511 . S
C1253 C1249 1.376 . S
C1253 C1252 1.392 . S
C1253 H1265 0.929 . S
C1254 C1250 1.531 . S
C1254 H1266 0.960 . S
C1254 H1267 0.962 . S
C1254 H1268 0.960 . S
C1255 C1252 1.511 . S
C1255 H1269 0.961 . S
C1255 H1270 0.961 1_565 S
C1255 H1271 0.961 . S
C1256 C1257 1.370 . S
C1256 C1258 1.363 . S
C1256 H1272 0.931 . S
C1257 C1256 1.370 . S
C1257 C1261 1.408 . S
C1258 C1256 1.363 . S
C1258 C1259 1.370 . S
C1258 C1262 1.524 . S
C1259 C1251 1.503 . S
C1259 C1258 1.370 . S
C1259 C1260 1.403 . S
C1260 C1259 1.403 . S
C1260 C1261 1.404 . S
C1260 C1263 1.539 . S
C1261 C1257 1.408 . S
C1261 C1260 1.404 . S
C1261 H1273 0.930 . S
C1262 C1258 1.524 . S
C1262 H1274 0.956 . S
C1262 H1275 0.961 . S
C1262 H1276 0.961 . S
C1263 C1260 1.539 . S
C1263 H1277 0.958 . S
C1263 H1278 0.961 . S
C1263 H1279 0.960 1_545 S
H1264 C1248 0.931 . S
H1265 C1253 0.929 . S
H1266 C1254 0.960 . S
H1267 C1254 0.962 . S
H1268 C1254 0.960 . S
H1269 C1255 0.961 . S
H1270 C1255 0.961 1_545 S
H1271 C1255 0.961 . S
H1272 C1256 0.931 . S
H1273 C1261 0.930 . S
H1274 C1262 0.956 . S
H1275 C1262 0.961 . S
H1276 C1262 0.961 . S
H1277 C1263 0.958 . S
H1278 C1263 0.961 . S
H1279 C1263 0.960 1_565 S
C1280 C1281 1.391 . S
C1280 C1282 1.394 . S
C1280 H1296 0.931 . S
C1281 C1280 1.391 . S
C1281 C1285 1.376 . S
C1282 C1280 1.394 . S
C1282 C1283 1.369 . S
C1282 C1286 1.531 . S
C1283 C1282 1.369 . S
C1283 C1284 1.410 . S
C1283 C1291 1.503 . S
C1284 C1283 1.410 . S
C1284 C1285 1.392 . S
C1284 C1287 1.511 . S
C1285 C1281 1.376 . S
C1285 C1284 1.392 . S
C1285 H1297 0.929 . S
C1286 C1282 1.531 . S
C1286 H1298 0.960 . S
C1286 H1299 0.962 . S
C1286 H1300 0.960 . S
C1287 C1284 1.511 . S
C1287 H1301 0.961 . S
C1287 H1302 0.961 . S
C1287 H1303 0.961 . S
C1288 C1289 1.370 . S
C1288 C1290 1.363 . S
C1288 H1304 0.931 . S
C1289 C1288 1.370 . S
C1289 C1293 1.408 . S
C1290 C1288 1.363 . S
C1290 C1291 1.370 . S
C1290 C1294 1.524 . S
C1291 C1283 1.503 . S
C1291 C1290 1.370 . S
C1291 C1292 1.403 . S
C1292 C1291 1.403 . S
C1292 C1293 1.404 . S
C1292 C1295 1.539 . S
C1293 C1289 1.408 . S
C1293 C1292 1.404 . S
C1293 H1305 0.930 . S
C1294 C1290 1.524 . S
C1294 H1306 0.956 . S
C1294 H1307 0.961 . S
C1294 H1308 0.961 . S
C1295 C1292 1.539 . S
C1295 H1309 0.958 . S
C1295 H1310 0.961 . S
C1295 H1311 0.960 . S
H1296 C1280 0.931 . S
H1297 C1285 0.929 . S
H1298 C1286 0.960 . S
H1299 C1286 0.962 . S
H1300 C1286 0.960 . S
H1301 C1287 0.961 . S
H1302 C1287 0.961 . S
H1303 C1287 0.961 . S
H1304 C1288 0.931 . S
H1305 C1293 0.930 . S
H1306 C1294 0.956 . S
H1307 C1294 0.961 . S
H1308 C1294 0.961 . S
H1309 C1295 0.958 . S
H1310 C1295 0.961 . S
H1311 C1295 0.960 . S
C1312 C1313 1.391 . S
C1312 C1314 1.394 . S
C1312 H1328 0.931 . S
C1313 C1312 1.391 . S
C1313 C1317 1.376 . S
C1314 C1312 1.394 . S
C1314 C1315 1.369 . S
C1314 C1318 1.531 . S
C1315 C1314 1.369 . S
C1315 C1316 1.410 . S
C1315 C1323 1.503 . S
C1316 C1315 1.410 . S
C1316 C1317 1.392 . S
C1316 C1319 1.511 . S
C1317 C1313 1.376 . S
C1317 C1316 1.392 . S
C1317 H1329 0.929 . S
C1318 C1314 1.531 . S
C1318 H1330 0.960 . S
C1318 H1331 0.962 . S
C1318 H1332 0.960 . S
C1319 C1316 1.511 . S
C1319 H1333 0.961 . S
C1319 H1334 0.961 . S
C1319 H1335 0.961 . S
C1320 C1321 1.370 . S
C1320 C1322 1.363 . S
C1320 H1336 0.931 . S
C1321 C1320 1.370 . S
C1321 C1325 1.408 . S
C1322 C1320 1.363 . S
C1322 C1323 1.370 1_565 S
C1322 C1326 1.524 . S
C1323 C1315 1.503 . S
C1323 C1322 1.370 1_545 S
C1323 C1324 1.403 . S
C1324 C1323 1.403 . S
C1324 C1325 1.404 1_545 S
C1324 C1327 1.539 . S
C1325 C1321 1.408 . S
C1325 C1324 1.404 1_565 S
C1325 H1337 0.930 . S
C1326 C1322 1.524 . S
C1326 H1338 0.956 1_565 S
C1326 H1339 0.951 1_565 S
C1326 H1340 0.961 . S
C1327 C1324 1.539 . S
C1327 H1341 0.958 . S
C1327 H1342 0.961 . S
C1327 H1343 0.960 . S
H1328 C1312 0.931 . S
H1329 C1317 0.929 . S
H1330 C1318 0.960 . S
H1331 C1318 0.962 . S
H1332 C1318 0.960 . S
H1333 C1319 0.961 . S
H1334 C1319 0.961 . S
H1335 C1319 0.961 . S
H1336 C1320 0.931 . S
H1337 C1325 0.930 . S
H1338 C1326 0.956 1_545 S
H1339 C1326 0.951 1_545 S
H1340 C1326 0.961 . S
H1341 C1327 0.958 . S
H1342 C1327 0.961 . S
H1343 C1327 0.960 . S
C1344 C1345 1.391 . S
C1344 C1346 1.394 . S
C1344 H1360 0.931 . S
C1345 C1344 1.391 . S
C1345 C1349 1.376 . S
C1346 C1344 1.394 . S
C1346 C1347 1.369 . S
C1346 C1350 1.531 . S
C1347 C1346 1.369 . S
C1347 C1348 1.410 . S
C1347 C1355 1.503 . S
C1348 C1347 1.410 . S
C1348 C1349 1.392 . S
C1348 C1351 1.511 . S
C1349 C1345 1.376 . S
C1349 C1348 1.392 . S
C1349 H1361 0.929 . S
C1350 C1346 1.531 . S
C1350 H1362 0.960 . S
C1350 H1363 0.962 . S
C1350 H1364 0.960 . S
C1351 C1348 1.511 . S
C1351 H1365 0.961 . S
C1351 H1366 0.961 . S
C1351 H1367 0.961 . S
C1352 C1353 1.370 . S
C1352 C1354 1.363 . S
C1352 H1368 0.931 . S
C1353 C1352 1.370 . S
C1353 C1357 1.408 . S
C1354 C1352 1.363 . S
C1354 C1355 1.370 . S
C1354 C1358 1.524 . S
C1355 C1347 1.503 . S
C1355 C1354 1.370 . S
C1355 C1356 1.403 . S
C1356 C1355 1.403 . S
C1356 C1357 1.404 . S
C1356 C1359 1.539 . S
C1357 C1353 1.408 . S
C1357 C1356 1.404 . S
C1357 H1369 0.930 . S
C1358 C1354 1.524 . S
C1358 H1370 0.956 . S
C1358 H1371 0.961 . S
C1358 H1372 0.961 . S
C1359 C1356 1.539 . S
C1359 H1373 0.958 . S
C1359 H1374 0.961 . S
C1359 H1375 0.960 . S
H1360 C1344 0.931 . S
H1361 C1349 0.929 . S
H1362 C1350 0.960 . S
H1363 C1350 0.962 . S
H1364 C1350 0.960 . S
H1365 C1351 0.961 . S
H1366 C1351 0.961 . S
H1367 C1351 0.961 . S
H1368 C1352 0.931 . S
H1369 C1357 0.930 . S
H1370 C1358 0.956 . S
H1371 C1358 0.961 . S
H1372 C1358 0.961 . S
H1373 C1359 0.958 . S
H1374 C1359 0.961 . S
H1375 C1359 0.960 . S
C1376 C1377 1.391 . S
C1376 C1378 1.394 1_545 S
C1376 H1392 0.931 . S
C1377 C1376 1.391 . S
C1377 C1381 1.376 . S
C1378 C1376 1.394 1_565 S
C1378 C1379 1.369 . S
C1378 C1382 1.531 . S
C1379 C1378 1.369 . S
C1379 C1380 1.410 . S
C1379 C1387 1.503 . S
C1380 C1379 1.410 . S
C1380 C1381 1.392 1_565 S
C1380 C1383 1.511 . S
C1381 C1377 1.376 . S
C1381 C1380 1.392 1_545 S
C1381 H1393 0.929 . S
C1382 C1378 1.531 . S
C1382 H1394 0.960 . S
C1382 H1395 0.962 . S
C1382 H1396 0.960 . S
C1383 C1380 1.511 . S
C1383 H1397 0.961 . S
C1383 H1398 0.961 . S
C1383 H1399 0.961 . S
C1384 C1385 1.370 . S
C1384 C1386 1.363 . S
C1384 H1400 0.931 . S
C1385 C1384 1.370 . S
C1385 C1389 1.408 . S
C1386 C1384 1.363 . S
C1386 C1387 1.370 . S
C1386 C1390 1.524 . S
C1387 C1379 1.503 . S
C1387 C1386 1.370 . S
C1387 C1388 1.403 . S
C1388 C1387 1.403 . S
C1388 C1389 1.404 . S
C1388 C1391 1.539 . S
C1389 C1385 1.408 . S
C1389 C1388 1.404 . S
C1389 H1401 0.930 . S
C1390 C1386 1.524 . S
C1390 H1402 0.956 1_565 S
C1390 H1403 0.961 1_565 S
C1390 H1404 0.961 . S
C1391 C1388 1.539 . S
C1391 H1405 0.958 . S
C1391 H1406 0.961 . S
C1391 H1407 0.960 . S
H1392 C1376 0.931 . S
H1393 C1381 0.929 . S
H1394 C1382 0.960 . S
H1395 C1382 0.962 . S
H1396 C1382 0.960 . S
H1397 C1383 0.961 . S
H1398 C1383 0.961 . S
H1399 C1383 0.961 . S
H1400 C1384 0.931 . S
H1401 C1389 0.930 . S
H1402 C1390 0.956 1_545 S
H1403 C1390 0.961 1_545 S
H1404 C1390 0.961 . S
H1405 C1391 0.958 . S
H1406 C1391 0.961 . S
H1407 C1391 0.960 . S
C1408 C1409 1.391 . S
C1408 C1410 1.394 . S
C1408 H1424 0.931 . S
C1409 C1408 1.391 . S
C1409 C1413 1.376 . S
C1410 C1408 1.394 . S
C1410 C1411 1.369 . S
C1410 C1414 1.531 . S
C1411 C1410 1.369 . S
C1411 C1412 1.410 . S
C1411 C1419 1.503 . S
C1412 C1411 1.410 . S
C1412 C1413 1.392 . S
C1412 C1415 1.511 . S
C1413 C1409 1.376 . S
C1413 C1412 1.392 . S
C1413 H1425 0.929 . S
C1414 C1410 1.531 . S
C1414 H1426 0.960 . S
C1414 H1427 0.962 . S
C1414 H1428 0.960 . S
C1415 C1412 1.511 . S
C1415 H1429 0.961 . S
C1415 H1430 0.961 . S
C1415 H1431 0.961 . S
C1416 C1417 1.370 . S
C1416 C1418 1.363 . S
C1416 H1432 0.931 . S
C1417 C1416 1.370 . S
C1417 C1421 1.408 . S
C1418 C1416 1.363 . S
C1418 C1419 1.370 . S
C1418 C1422 1.524 . S
C1419 C1411 1.503 . S
C1419 C1418 1.370 . S
C1419 C1420 1.403 . S
C1420 C1419 1.403 . S
C1420 C1421 1.404 . S
C1420 C1423 1.539 . S
C1421 C1417 1.408 . S
C1421 C1420 1.404 . S
C1421 H1433 0.930 . S
C1422 C1418 1.524 . S
C1422 H1434 0.956 . S
C1422 H1435 0.961 . S
C1422 H1436 0.961 . S
C1423 C1420 1.539 . S
C1423 H1437 0.958 . S
C1423 H1438 0.961 . S
C1423 H1439 0.960 . S
H1424 C1408 0.931 . S
H1425 C1413 0.929 . S
H1426 C1414 0.960 . S
H1427 C1414 0.962 . S
H1428 C1414 0.960 . S
H1429 C1415 0.961 . S
H1430 C1415 0.961 . S
H1431 C1415 0.961 . S
H1432 C1416 0.931 . S
H1433 C1421 0.930 . S
H1434 C1422 0.956 . S
H1435 C1422 0.961 . S
H1436 C1422 0.961 . S
H1437 C1423 0.958 . S
H1438 C1423 0.961 . S
H1439 C1423 0.960 . S
C1440 C1441 1.391 . S
C1440 C1442 1.394 . S
C1440 H1456 0.931 . S
C1441 C1440 1.391 . S
C1441 C1445 1.376 . S
C1442 C1440 1.394 . S
C1442 C1443 1.369 . S
C1442 C1446 1.531 . S
C1443 C1442 1.369 . S
C1443 C1444 1.410 . S
C1443 C1451 1.503 . S
C1444 C1443 1.410 . S
C1444 C1445 1.392 . S
C1444 C1447 1.511 . S
C1445 C1441 1.376 . S
C1445 C1444 1.392 . S
C1445 H1457 0.929 . S
C1446 C1442 1.531 . S
C1446 H1458 0.960 . S
C1446 H1459 0.962 . S
C1446 H1460 0.960 . S
C1447 C1444 1.511 . S
C1447 H1461 0.961 . S
C1447 H1462 0.961 . S
C1447 H1463 0.961 . S
C1448 C1449 1.370 . S
C1448 C1450 1.363 . S
C1448 H1464 0.931 . S
C1449 C1448 1.370 . S
C1449 C1453 1.408 . S
C1450 C1448 1.363 . S
C1450 C1451 1.370 . S
C1450 C1454 1.524 . S
C1451 C1443 1.503 . S
C1451 C1450 1.370 . S
C1451 C1452 1.403 . S
C1452 C1451 1.403 . S
C1452 C1453 1.404 . S
C1452 C1455 1.539 . S
C1453 C1449 1.408 . S
C1453 C1452 1.404 . S
C1453 H1465 0.930 . S
C1454 C1450 1.524 . S
C1454 H1466 0.956 . S
C1454 H1467 0.961 . S
C1454 H1468 0.961 . S
C1455 C1452 1.539 . S
C1455 H1469 0.958 . S
C1455 H1470 0.961 . S
C1455 H1471 0.960 . S
H1456 C1440 0.931 . S
H1457 C1445 0.929 . S
H1458 C1446 0.960 . S
H1459 C1446 0.962 . S
H1460 C1446 0.960 . S
H1461 C1447 0.961 . S
H1462 C1447 0.961 . S
H1463 C1447 0.961 . S
H1464 C1448 0.931 . S
H1465 C1453 0.930 . S
H1466 C1454 0.956 . S
H1467 C1454 0.961 . S
H1468 C1454 0.961 . S
H1469 C1455 0.958 . S
H1470 C1455 0.961 . S
H1471 C1455 0.960 . S
C1472 C1473 1.391 . S
C1472 C1474 1.394 . S
C1472 H1488 0.931 . S
C1473 C1472 1.391 . S
C1473 C1477 1.376 . S
C1474 C1472 1.394 . S
C1474 C1475 1.369 . S
C1474 C1478 1.531 . S
C1475 C1474 1.369 . S
C1475 C1476 1.410 . S
C1475 C1483 1.503 . S
C1476 C1475 1.410 . S
C1476 C1477 1.392 . S
C1476 C1479 1.511 . S
C1477 C1473 1.376 . S
C1477 C1476 1.392 . S
C1477 H1489 0.929 . S
C1478 C1474 1.531 . S
C1478 H1490 0.960 . S
C1478 H1491 0.962 . S
C1478 H1492 0.960 . S
C1479 C1476 1.511 . S
C1479 H1493 0.961 . S
C1479 H1494 0.961 . S
C1479 H1495 0.961 . S
C1480 C1481 1.370 . S
C1480 C1482 1.337 1_455 S
C1480 H1496 0.931 . S
C1481 C1480 1.370 . S
C1481 C1485 1.408 1_455 S
C1482 C1480 1.337 1_655 S
C1482 C1483 1.418 . S
C1482 C1486 1.504 1_655 S
C1483 C1475 1.503 . S
C1483 C1482 1.418 . S
C1483 C1484 1.403 . S
C1484 C1483 1.403 . S
C1484 C1485 1.404 . S
C1484 C1487 1.539 . S
C1485 C1481 1.408 1_655 S
C1485 C1484 1.404 . S
C1485 H1497 0.930 . S
C1486 C1482 1.504 1_455 S
C1486 H1498 0.956 . S
C1486 H1499 0.961 . S
C1486 H1500 0.961 . S
C1487 C1484 1.539 . S
C1487 H1501 0.958 . S
C1487 H1502 0.961 . S
C1487 H1503 0.960 . S
H1488 C1472 0.931 . S
H1489 C1477 0.929 . S
H1490 C1478 0.960 . S
H1491 C1478 0.962 . S
H1492 C1478 0.960 . S
H1493 C1479 0.961 . S
H1494 C1479 0.961 . S
H1495 C1479 0.961 . S
H1496 C1480 0.931 . S
H1497 C1485 0.930 . S
H1498 C1486 0.956 . S
H1499 C1486 0.961 . S
H1500 C1486 0.961 . S
H1501 C1487 0.958 . S
H1502 C1487 0.961 . S
H1503 C1487 0.960 . S
C1504 C1505 1.391 . S
C1504 C1506 1.394 . S
C1504 H1520 0.931 . S
C1505 C1504 1.391 . S
C1505 C1509 1.376 . S
C1506 C1504 1.394 . S
C1506 C1507 1.369 . S
C1506 C1510 1.531 . S
C1507 C1506 1.369 . S
C1507 C1508 1.410 . S
C1507 C1515 1.503 . S
C1508 C1507 1.410 . S
C1508 C1509 1.392 . S
C1508 C1511 1.511 . S
C1509 C1505 1.376 . S
C1509 C1508 1.392 . S
C1509 H1521 0.929 . S
C1510 C1506 1.531 . S
C1510 H1522 0.960 . S
C1510 H1523 0.962 . S
C1510 H1524 0.960 . S
C1511 C1508 1.511 . S
C1511 H1525 0.961 . S
C1511 H1526 0.961 . S
C1511 H1527 0.961 . S
C1512 C1513 1.370 . S
C1512 C1514 1.363 . S
C1512 H1528 0.931 . S
C1513 C1512 1.370 . S
C1513 C1517 1.408 . S
C1514 C1512 1.363 . S
C1514 C1515 1.370 . S
C1514 C1518 1.524 . S
C1515 C1507 1.503 . S
C1515 C1514 1.370 . S
C1515 C1516 1.403 . S
C1516 C1515 1.403 . S
C1516 C1517 1.404 . S
C1516 C1519 1.539 . S
C1517 C1513 1.408 . S
C1517 C1516 1.404 . S
C1517 H1529 0.930 . S
C1518 C1514 1.524 . S
C1518 H1530 0.956 . S
C1518 H1531 0.961 . S
C1518 H1532 0.961 . S
C1519 C1516 1.539 . S
C1519 H1533 0.958 . S
C1519 H1534 0.961 . S
C1519 H1535 0.960 . S
H1520 C1504 0.931 . S
H1521 C1509 0.929 . S
H1522 C1510 0.960 . S
H1523 C1510 0.962 . S
H1524 C1510 0.960 . S
H1525 C1511 0.961 . S
H1526 C1511 0.961 . S
H1527 C1511 0.961 . S
H1528 C1512 0.931 . S
H1529 C1517 0.930 . S
H1530 C1518 0.956 . S
H1531 C1518 0.961 . S
H1532 C1518 0.961 . S
H1533 C1519 0.958 . S
H1534 C1519 0.961 . S
H1535 C1519 0.960 . S
C1536 C1537 1.391 . S
C1536 C1538 1.394 . S
C1536 H1552 0.931 . S
C1537 C1536 1.391 . S
C1537 C1541 1.376 . S
C1538 C1536 1.394 . S
C1538 C1539 1.369 . S
C1538 C1542 1.531 . S
C1539 C1538 1.369 . S
C1539 C1540 1.410 . S
C1539 C1547 1.503 . S
C1540 C1539 1.410 . S
C1540 C1541 1.392 . S
C1540 C1543 1.511 . S
C1541 C1537 1.376 . S
C1541 C1540 1.392 . S
C1541 H1553 0.929 . S
C1542 C1538 1.531 . S
C1542 H1554 0.960 . S
C1542 H1555 0.962 . S
C1542 H1556 0.960 . S
C1543 C1540 1.511 . S
C1543 H1557 0.961 . S
C1543 H1558 0.961 . S
C1543 H1559 0.961 . S
C1544 C1545 1.370 . S
C1544 C1546 1.363 . S
C1544 H1560 0.931 . S
C1545 C1544 1.370 . S
C1545 C1549 1.408 . S
C1546 C1544 1.363 . S
C1546 C1547 1.370 . S
C1546 C1550 1.524 . S
C1547 C1539 1.503 . S
C1547 C1546 1.370 . S
C1547 C1548 1.403 . S
C1548 C1547 1.403 . S
C1548 C1549 1.404 . S
C1548 C1551 1.539 . S
C1549 C1545 1.408 . S
C1549 C1548 1.404 . S
C1549 H1561 0.930 . S
C1550 C1546 1.524 . S
C1550 H1562 0.956 . S
C1550 H1563 0.961 . S
C1550 H1564 0.961 . S
C1551 C1548 1.539 . S
C1551 H1565 0.958 . S
C1551 H1566 0.961 . S
C1551 H1567 0.960 . S
H1552 C1536 0.931 . S
H1553 C1541 0.929 . S
H1554 C1542 0.960 . S
H1555 C1542 0.962 . S
H1556 C1542 0.960 . S
H1557 C1543 0.961 . S
H1558 C1543 0.961 . S
H1559 C1543 0.961 . S
H1560 C1544 0.931 . S
H1561 C1549 0.930 . S
H1562 C1550 0.956 . S
H1563 C1550 0.961 . S
H1564 C1550 0.961 . S
H1565 C1551 0.958 . S
H1566 C1551 0.961 . S
H1567 C1551 0.960 . S
C1568 C1569 1.391 . S
C1568 C1570 1.394 . S
C1568 H1584 0.931 . S
C1569 C1568 1.391 . S
C1569 C1573 1.376 . S
C1570 C1568 1.394 . S
C1570 C1571 1.369 . S
C1570 C1574 1.531 . S
C1571 C1570 1.369 . S
C1571 C1572 1.410 . S
C1571 C1579 1.503 . S
C1572 C1571 1.410 . S
C1572 C1573 1.392 . S
C1572 C1575 1.511 . S
C1573 C1569 1.376 . S
C1573 C1572 1.392 . S
C1573 H1585 0.929 . S
C1574 C1570 1.531 . S
C1574 H1586 0.960 . S
C1574 H1587 0.962 . S
C1574 H1588 0.960 . S
C1575 C1572 1.511 . S
C1575 H1589 0.961 . S
C1575 H1590 0.961 . S
C1575 H1591 0.961 . S
C1576 C1577 1.370 . S
C1576 C1578 1.363 . S
C1576 H1592 0.931 . S
C1577 C1576 1.370 . S
C1577 C1581 1.407 1_556 S
C1578 C1576 1.363 . S
C1578 C1579 1.370 . S
C1578 C1582 1.524 . S
C1579 C1571 1.503 . S
C1579 C1578 1.370 . S
C1579 C1580 1.403 . S
C1580 C1579 1.403 . S
C1580 C1581 1.392 1_556 S
C1580 C1583 1.539 . S
C1581 C1577 1.407 1_554 S
C1581 C1580 1.392 1_554 S
C1581 H1593 0.943 . S
C1582 C1578 1.524 . S
C1582 H1594 0.956 . S
C1582 H1595 0.961 . S
C1582 H1596 0.961 . S
C1583 C1580 1.539 . S
C1583 H1597 0.958 . S
C1583 H1598 0.961 . S
C1583 H1599 0.960 . S
H1584 C1568 0.931 . S
H1585 C1573 0.929 . S
H1586 C1574 0.960 . S
H1587 C1574 0.962 . S
H1588 C1574 0.960 . S
H1589 C1575 0.961 . S
H1590 C1575 0.961 . S
H1591 C1575 0.961 . S
H1592 C1576 0.931 . S
H1593 C1581 0.943 . S
H1594 C1582 0.956 . S
H1595 C1582 0.961 . S
H1596 C1582 0.961 . S
H1597 C1583 0.958 . S
H1598 C1583 0.961 . S
H1599 C1583 0.960 . S
C1600 C1601 1.391 . S
C1600 C1602 1.394 . S
C1600 H1616 0.931 . S
C1601 C1600 1.391 . S
C1601 C1605 1.376 . S
C1602 C1600 1.394 . S
C1602 C1603 1.369 . S
C1602 C1606 1.531 . S
C1603 C1602 1.369 . S
C1603 C1604 1.410 . S
C1603 C1611 1.503 . S
C1604 C1603 1.410 . S
C1604 C1605 1.392 . S
C1604 C1607 1.522 . S
C1605 C1601 1.376 . S
C1605 C1604 1.392 . S
C1605 H1617 0.929 . S
C1606 C1602 1.531 . S
C1606 H1618 0.960 . S
C1606 H1619 0.962 . S
C1606 H1620 0.960 . S
C1607 C1604 1.522 . S
C1607 H1621 0.960 . S
C1607 H1622 0.959 1_455 S
C1607 H1623 0.952 1_455 S
C1608 C1609 1.370 1_455 S
C1608 C1610 1.363 . S
C1608 H1624 0.931 . S
C1609 C1608 1.370 1_655 S
C1609 C1613 1.408 . S
C1610 C1608 1.363 . S
C1610 C1611 1.370 . S
C1610 C1614 1.524 . S
C1611 C1603 1.503 . S
C1611 C1610 1.370 . S
C1611 C1612 1.403 . S
C1612 C1611 1.403 . S
C1612 C1613 1.404 1_455 S
C1612 C1615 1.539 1_455 S
C1613 C1609 1.408 . S
C1613 C1612 1.404 1_655 S
C1613 H1625 0.930 . S
C1614 C1610 1.524 . S
C1614 H1626 0.956 . S
C1614 H1627 0.961 . S
C1614 H1628 0.961 . S
C1615 C1612 1.539 1_655 S
C1615 H1629 0.958 1_655 S
C1615 H1630 0.961 . S
C1615 H1631 0.960 . S
H1616 C1600 0.931 . S
H1617 C1605 0.929 . S
H1618 C1606 0.960 . S
H1619 C1606 0.962 . S
H1620 C1606 0.960 . S
H1621 C1607 0.960 . S
H1622 C1607 0.959 1_655 S
H1623 C1607 0.952 1_655 S
H1624 C1608 0.931 . S
H1625 C1613 0.930 . S
H1626 C1614 0.956 . S
H1627 C1614 0.961 . S
H1628 C1614 0.961 . S
H1629 C1615 0.958 1_455 S
H1630 C1615 0.961 . S
H1631 C1615 0.960 . S
C1632 C1633 1.391 . S
C1632 C1634 1.394 . S
C1632 H1648 0.931 . S
C1633 C1632 1.391 . S
C1633 C1637 1.376 . S
C1634 C1632 1.394 . S
C1634 C1635 1.369 . S
C1634 C1638 1.531 . S
C1635 C1634 1.369 . S
C1635 C1636 1.410 . S
C1635 C1643 1.503 . S
C1636 C1635 1.410 . S
C1636 C1637 1.392 . S
C1636 C1639 1.511 . S
C1637 C1633 1.376 . S
C1637 C1636 1.392 . S
C1637 H1649 0.929 . S
C1638 C1634 1.531 . S
C1638 H1650 0.960 . S
C1638 H1651 0.962 . S
C1638 H1652 0.960 . S
C1639 C1636 1.511 . S
C1639 H1653 0.961 . S
C1639 H1654 0.961 . S
C1639 H1655 0.961 . S
C1640 C1641 1.370 . S
C1640 C1642 1.363 . S
C1640 H1656 0.931 . S
C1641 C1640 1.370 . S
C1641 C1645 1.408 . S
C1642 C1640 1.363 . S
C1642 C1643 1.370 . S
C1642 C1646 1.524 . S
C1643 C1635 1.503 . S
C1643 C1642 1.370 . S
C1643 C1644 1.403 . S
C1644 C1643 1.403 . S
C1644 C1645 1.404 . S
C1644 C1647 1.539 . S
C1645 C1641 1.408 . S
C1645 C1644 1.404 . S
C1645 H1657 0.930 . S
C1646 C1642 1.524 . S
C1646 H1658 0.956 . S
C1646 H1659 0.961 . S
C1646 H1660 0.961 . S
C1647 C1644 1.539 . S
C1647 H1661 0.958 . S
C1647 H1662 0.961 . S
C1647 H1663 0.960 . S
H1648 C1632 0.931 . S
H1649 C1637 0.929 . S
H1650 C1638 0.960 . S
H1651 C1638 0.962 . S
H1652 C1638 0.960 . S
H1653 C1639 0.961 . S
H1654 C1639 0.961 . S
H1655 C1639 0.961 . S
H1656 C1640 0.931 . S
H1657 C1645 0.930 . S
H1658 C1646 0.956 . S
H1659 C1646 0.961 . S
H1660 C1646 0.961 . S
H1661 C1647 0.958 . S
H1662 C1647 0.961 . S
H1663 C1647 0.960 . S
C1664 C1665 1.391 . S
C1664 C1666 1.414 . S
C1664 H1680 0.931 . S
C1665 C1664 1.391 . S
C1665 C1669 1.376 1_655 S
C1666 C1664 1.414 . S
C1666 C1667 1.333 1_655 S
C1666 C1670 1.547 . S
C1667 C1666 1.333 1_455 S
C1667 C1668 1.410 . S
C1667 C1675 1.503 . S
C1668 C1667 1.410 . S
C1668 C1669 1.392 . S
C1668 C1671 1.511 . S
C1669 C1665 1.376 1_455 S
C1669 C1668 1.392 . S
C1669 H1681 0.929 . S
C1670 C1666 1.547 . S
C1670 H1682 0.960 . S
C1670 H1683 0.962 . S
C1670 H1684 0.960 . S
C1671 C1668 1.511 . S
C1671 H1685 0.961 . S
C1671 H1686 0.961 . S
C1671 H1687 0.961 . S
C1672 C1673 1.370 . S
C1672 C1674 1.363 . S
C1672 H1688 0.931 . S
C1673 C1672 1.370 . S
C1673 C1677 1.408 . S
C1674 C1672 1.363 . S
C1674 C1675 1.370 . S
C1674 C1678 1.524 . S
C1675 C1667 1.503 . S
C1675 C1674 1.370 . S
C1675 C1676 1.403 . S
C1676 C1675 1.403 . S
C1676 C1677 1.404 . S
C1676 C1679 1.539 . S
C1677 C1673 1.408 . S
C1677 C1676 1.404 . S
C1677 H1689 0.930 . S
C1678 C1674 1.524 . S
C1678 H1690 0.956 . S
C1678 H1691 0.961 . S
C1678 H1692 0.961 . S
C1679 C1676 1.539 . S
C1679 H1693 0.958 . S
C1679 H1694 0.961 . S
C1679 H1695 0.960 . S
H1680 C1664 0.931 . S
H1681 C1669 0.929 . S
H1682 C1670 0.960 . S
H1683 C1670 0.962 . S
H1684 C1670 0.960 . S
H1685 C1671 0.961 . S
H1686 C1671 0.961 . S
H1687 C1671 0.961 . S
H1688 C1672 0.931 . S
H1689 C1677 0.930 . S
H1690 C1678 0.956 . S
H1691 C1678 0.961 . S
H1692 C1678 0.961 . S
H1693 C1679 0.958 . S
H1694 C1679 0.961 . S
H1695 C1679 0.960 . S
C1696 C1697 1.391 . S
C1696 C1698 1.394 . S
C1696 H1712 0.931 . S
C1697 C1696 1.391 . S
C1697 C1701 1.376 . S
C1698 C1696 1.394 . S
C1698 C1699 1.369 . S
C1698 C1702 1.531 . S
C1699 C1698 1.369 . S
C1699 C1700 1.410 . S
C1699 C1707 1.503 . S
C1700 C1699 1.410 . S
C1700 C1701 1.392 . S
C1700 C1703 1.511 . S
C1701 C1697 1.376 . S
C1701 C1700 1.392 . S
C1701 H1713 0.929 . S
C1702 C1698 1.531 . S
C1702 H1714 0.960 . S
C1702 H1715 0.962 . S
C1702 H1716 0.960 . S
C1703 C1700 1.511 . S
C1703 H1717 0.961 . S
C1703 H1718 0.961 . S
C1703 H1719 0.961 . S
C1704 C1705 1.370 . S
C1704 C1706 1.363 . S
C1704 H1720 0.931 . S
C1705 C1704 1.370 . S
C1705 C1709 1.408 . S
C1706 C1704 1.363 . S
C1706 C1707 1.370 . S
C1706 C1710 1.524 . S
C1707 C1699 1.503 . S
C1707 C1706 1.370 . S
C1707 C1708 1.403 . S
C1708 C1707 1.403 . S
C1708 C1709 1.404 . S
C1708 C1711 1.539 . S
C1709 C1705 1.408 . S
C1709 C1708 1.404 . S
C1709 H1721 0.930 . S
C1710 C1706 1.524 . S
C1710 H1722 0.956 . S
C1710 H1723 0.961 . S
C1710 H1724 0.961 . S
C1711 C1708 1.539 . S
C1711 H1725 0.958 . S
C1711 H1726 0.961 . S
C1711 H1727 0.960 . S
H1712 C1696 0.931 . S
H1713 C1701 0.929 . S
H1714 C1702 0.960 . S
H1715 C1702 0.962 . S
H1716 C1702 0.960 . S
H1717 C1703 0.961 . S
H1718 C1703 0.961 . S
H1719 C1703 0.961 . S
H1720 C1704 0.931 . S
H1721 C1709 0.930 . S
H1722 C1710 0.956 . S
H1723 C1710 0.961 . S
H1724 C1710 0.961 . S
H1725 C1711 0.958 . S
H1726 C1711 0.961 . S
H1727 C1711 0.960 . S
C1728 C1729 1.391 . S
C1728 C1730 1.394 . S
C1728 H1744 0.931 . S
C1729 C1728 1.391 . S
C1729 C1733 1.376 . S
C1730 C1728 1.394 . S
C1730 C1731 1.369 . S
C1730 C1734 1.531 . S
C1731 C1730 1.369 . S
C1731 C1732 1.410 . S
C1731 C1739 1.503 . S
C1732 C1731 1.410 . S
C1732 C1733 1.392 . S
C1732 C1735 1.511 . S
C1733 C1729 1.376 . S
C1733 C1732 1.392 . S
C1733 H1745 0.929 . S
C1734 C1730 1.531 . S
C1734 H1746 0.960 . S
C1734 H1747 0.962 . S
C1734 H1748 0.960 . S
C1735 C1732 1.511 . S
C1735 H1749 0.961 . S
C1735 H1750 0.961 . S
C1735 H1751 0.961 . S
C1736 C1737 1.370 . S
C1736 C1738 1.363 . S
C1736 H1752 0.931 . S
C1737 C1736 1.370 . S
C1737 C1741 1.408 . S
C1738 C1736 1.363 . S
C1738 C1739 1.370 . S
C1738 C1742 1.524 . S
C1739 C1731 1.503 . S
C1739 C1738 1.370 . S
C1739 C1740 1.403 . S
C1740 C1739 1.403 . S
C1740 C1741 1.404 . S
C1740 C1743 1.539 . S
C1741 C1737 1.408 . S
C1741 C1740 1.404 . S
C1741 H1753 0.930 . S
C1742 C1738 1.524 . S
C1742 H1754 0.956 . S
C1742 H1755 0.961 . S
C1742 H1756 0.961 . S
C1743 C1740 1.539 . S
C1743 H1757 0.958 . S
C1743 H1758 0.961 . S
C1743 H1759 0.960 . S
H1744 C1728 0.931 . S
H1745 C1733 0.929 . S
H1746 C1734 0.960 . S
H1747 C1734 0.962 . S
H1748 C1734 0.960 . S
H1749 C1735 0.961 . S
H1750 C1735 0.961 . S
H1751 C1735 0.961 . S
H1752 C1736 0.931 . S
H1753 C1741 0.930 . S
H1754 C1742 0.956 . S
H1755 C1742 0.961 . S
H1756 C1742 0.961 . S
H1757 C1743 0.958 . S
H1758 C1743 0.961 . S
H1759 C1743 0.960 . S
C1760 C1761 1.391 . S
C1760 C1762 1.394 . S
C1760 H1776 0.931 . S
C1761 C1760 1.391 . S
C1761 C1765 1.376 . S
C1762 C1760 1.394 . S
C1762 C1763 1.369 . S
C1762 C1766 1.531 . S
C1763 C1762 1.369 . S
C1763 C1764 1.410 . S
C1763 C1771 1.503 . S
C1764 C1763 1.410 . S
C1764 C1765 1.392 . S
C1764 C1767 1.511 . S
C1765 C1761 1.376 . S
C1765 C1764 1.392 . S
C1765 H1777 0.929 1_554 S
C1766 C1762 1.531 . S
C1766 H1778 0.960 . S
C1766 H1779 0.962 . S
C1766 H1780 0.960 . S
C1767 C1764 1.511 . S
C1767 H1781 0.961 . S
C1767 H1782 0.961 . S
C1767 H1783 0.961 . S
C1768 C1769 1.370 . S
C1768 C1770 1.363 . S
C1768 H1784 0.931 . S
C1769 C1768 1.370 . S
C1769 C1773 1.408 . S
C1770 C1768 1.363 . S
C1770 C1771 1.370 . S
C1770 C1774 1.524 . S
C1771 C1763 1.503 . S
C1771 C1770 1.370 . S
C1771 C1772 1.403 . S
C1772 C1771 1.403 . S
C1772 C1773 1.404 . S
C1772 C1775 1.539 . S
C1773 C1769 1.408 . S
C1773 C1772 1.404 . S
C1773 H1785 0.930 . S
C1774 C1770 1.524 . S
C1774 H1786 0.956 . S
C1774 H1787 0.961 . S
C1774 H1788 0.961 . S
C1775 C1772 1.539 . S
C1775 H1789 0.958 . S
C1775 H1790 0.961 . S
C1775 H1791 0.960 . S
H1776 C1760 0.931 . S
H1777 C1765 0.929 1_556 S
H1778 C1766 0.960 . S
H1779 C1766 0.962 . S
H1780 C1766 0.960 . S
H1781 C1767 0.961 . S
H1782 C1767 0.961 . S
H1783 C1767 0.961 . S
H1784 C1768 0.931 . S
H1785 C1773 0.930 . S
H1786 C1774 0.956 . S
H1787 C1774 0.961 . S
H1788 C1774 0.961 . S
H1789 C1775 0.958 . S
H1790 C1775 0.961 . S
H1791 C1775 0.960 . S
C1792 C1793 1.391 1_655 S
C1792 C1794 1.394 . S
C1792 H1808 0.931 . S
C1793 C1792 1.391 1_455 S
C1793 C1797 1.376 . S
C1794 C1792 1.394 . S
C1794 C1795 1.369 . S
C1794 C1798 1.531 . S
C1795 C1794 1.369 . S
C1795 C1796 1.410 1_655 S
C1795 C1803 1.503 . S
C1796 C1795 1.410 1_455 S
C1796 C1797 1.392 . S
C1796 C1799 1.511 . S
C1797 C1793 1.376 . S
C1797 C1796 1.392 . S
C1797 H1809 0.929 . S
C1798 C1794 1.531 . S
C1798 H1810 0.960 . S
C1798 H1811 0.962 . S
C1798 H1812 0.960 . S
C1799 C1796 1.511 . S
C1799 H1813 0.961 . S
C1799 H1814 0.961 . S
C1799 H1815 0.961 . S
C1800 C1801 1.370 . S
C1800 C1802 1.363 . S
C1800 H1816 0.931 . S
C1801 C1800 1.370 . S
C1801 C1805 1.408 . S
C1802 C1800 1.363 . S
C1802 C1803 1.370 . S
C1802 C1806 1.524 . S
C1803 C1795 1.503 . S
C1803 C1802 1.370 . S
C1803 C1804 1.403 . S
C1804 C1803 1.403 . S
C1804 C1805 1.404 . S
C1804 C1807 1.539 . S
C1805 C1801 1.408 . S
C1805 C1804 1.404 . S
C1805 H1817 0.930 . S
C1806 C1802 1.524 . S
C1806 H1818 0.956 . S
C1806 H1819 0.961 . S
C1806 H1820 0.961 . S
C1807 C1804 1.539 . S
C1807 H1821 0.958 . S
C1807 H1822 0.961 . S
C1807 H1823 0.956 . S
H1808 C1792 0.931 . S
H1809 C1797 0.929 . S
H1810 C1798 0.960 . S
H1811 C1798 0.962 . S
H1812 C1798 0.960 . S
H1813 C1799 0.961 . S
H1814 C1799 0.961 . S
H1815 C1799 0.961 . S
H1816 C1800 0.931 . S
H1817 C1805 0.930 . S
H1818 C1806 0.956 . S
H1819 C1806 0.961 . S
H1820 C1806 0.961 . S
H1821 C1807 0.958 . S
H1822 C1807 0.961 . S
H1823 C1807 0.956 . S
C1824 C1825 1.391 . S
C1824 C1826 1.394 . S
C1824 H1840 0.931 . S
C1825 C1824 1.391 . S
C1825 C1829 1.376 . S
C1826 C1824 1.394 . S
C1826 C1827 1.369 . S
C1826 C1830 1.531 . S
C1827 C1826 1.369 . S
C1827 C1828 1.410 . S
C1827 C1835 1.503 . S
C1828 C1827 1.410 . S
C1828 C1829 1.392 . S
C1828 C1831 1.511 . S
C1829 C1825 1.376 . S
C1829 C1828 1.392 . S
C1829 H1841 0.929 . S
C1830 C1826 1.531 . S
C1830 H1842 0.960 . S
C1830 H1843 0.962 . S
C1830 H1844 0.960 . S
C1831 C1828 1.511 . S
C1831 H1845 0.961 . S
C1831 H1846 0.961 . S
C1831 H1847 0.961 . S
C1832 C1833 1.370 . S
C1832 C1834 1.363 . S
C1832 H1848 0.931 . S
C1833 C1832 1.370 . S
C1833 C1837 1.408 . S
C1834 C1832 1.363 . S
C1834 C1835 1.370 . S
C1834 C1838 1.524 . S
C1835 C1827 1.503 . S
C1835 C1834 1.370 . S
C1835 C1836 1.403 . S
C1836 C1835 1.403 . S
C1836 C1837 1.404 . S
C1836 C1839 1.539 . S
C1837 C1833 1.408 . S
C1837 C1836 1.404 . S
C1837 H1849 0.930 . S
C1838 C1834 1.524 . S
C1838 H1850 0.956 . S
C1838 H1851 0.961 . S
C1838 H1852 0.961 . S
C1839 C1836 1.539 . S
C1839 H1853 0.958 . S
C1839 H1854 0.961 . S
C1839 H1855 0.960 . S
H1840 C1824 0.931 . S
H1841 C1829 0.929 . S
H1842 C1830 0.960 . S
H1843 C1830 0.962 . S
H1844 C1830 0.960 . S
H1845 C1831 0.961 . S
H1846 C1831 0.961 . S
H1847 C1831 0.961 . S
H1848 C1832 0.931 . S
H1849 C1837 0.930 . S
H1850 C1838 0.956 . S
H1851 C1838 0.961 . S
H1852 C1838 0.961 . S
H1853 C1839 0.958 . S
H1854 C1839 0.961 . S
H1855 C1839 0.960 . S
C1856 C1857 1.391 . S
C1856 C1858 1.394 . S
C1856 H1872 0.931 . S
C1857 C1856 1.391 . S
C1857 C1861 1.376 . S
C1858 C1856 1.394 . S
C1858 C1859 1.369 . S
C1858 C1862 1.531 . S
C1859 C1858 1.369 . S
C1859 C1860 1.410 . S
C1859 C1867 1.503 . S
C1860 C1859 1.410 . S
C1860 C1861 1.392 . S
C1860 C1863 1.511 . S
C1861 C1857 1.376 . S
C1861 C1860 1.392 . S
C1861 H1873 0.929 . S
C1862 C1858 1.531 . S
C1862 H1874 0.960 . S
C1862 H1875 0.962 . S
C1862 H1876 0.960 . S
C1863 C1860 1.511 . S
C1863 H1877 0.961 . S
C1863 H1878 0.961 . S
C1863 H1879 0.961 . S
C1864 C1865 1.370 . S
C1864 C1866 1.363 . S
C1864 H1880 0.931 . S
C1865 C1864 1.370 . S
C1865 C1869 1.408 . S
C1866 C1864 1.363 . S
C1866 C1867 1.370 . S
C1866 C1870 1.524 . S
C1867 C1859 1.503 . S
C1867 C1866 1.370 . S
C1867 C1868 1.403 . S
C1868 C1867 1.403 . S
C1868 C1869 1.404 . S
C1868 C1871 1.539 . S
C1869 C1865 1.408 . S
C1869 C1868 1.404 . S
C1869 H1881 0.930 . S
C1870 C1866 1.524 . S
C1870 H1882 0.956 . S
C1870 H1883 0.961 . S
C1870 H1884 0.961 . S
C1871 C1868 1.539 . S
C1871 H1885 0.958 . S
C1871 H1886 0.961 . S
C1871 H1887 0.960 . S
H1872 C1856 0.931 . S
H1873 C1861 0.929 . S
H1874 C1862 0.960 . S
H1875 C1862 0.962 . S
H1876 C1862 0.960 . S
H1877 C1863 0.961 . S
H1878 C1863 0.961 . S
H1879 C1863 0.961 . S
H1880 C1864 0.931 . S
H1881 C1869 0.930 . S
H1882 C1870 0.956 . S
H1883 C1870 0.961 . S
H1884 C1870 0.961 . S
H1885 C1871 0.958 . S
H1886 C1871 0.961 . S
H1887 C1871 0.960 . S
C1888 C1889 1.391 . S
C1888 C1890 1.394 . S
C1888 H1904 0.931 . S
C1889 C1888 1.391 . S
C1889 C1893 1.376 . S
C1890 C1888 1.394 . S
C1890 C1891 1.369 . S
C1890 C1894 1.531 . S
C1891 C1890 1.369 . S
C1891 C1892 1.410 . S
C1891 C1899 1.503 . S
C1892 C1891 1.410 . S
C1892 C1893 1.392 . S
C1892 C1895 1.511 . S
C1893 C1889 1.376 . S
C1893 C1892 1.392 . S
C1893 H1905 0.929 1_556 S
C1894 C1890 1.531 . S
C1894 H1906 0.960 . S
C1894 H1907 0.962 . S
C1894 H1908 0.960 . S
C1895 C1892 1.511 . S
C1895 H1909 0.961 . S
C1895 H1910 0.961 . S
C1895 H1911 0.961 . S
C1896 C1897 1.370 . S
C1896 C1898 1.363 . S
C1896 H1912 0.931 . S
C1897 C1896 1.370 . S
C1897 C1901 1.408 . S
C1898 C1896 1.363 . S
C1898 C1899 1.370 . S
C1898 C1902 1.524 . S
C1899 C1891 1.503 . S
C1899 C1898 1.370 . S
C1899 C1900 1.403 . S
C1900 C1899 1.403 . S
C1900 C1901 1.404 . S
C1900 C1903 1.539 . S
C1901 C1897 1.408 . S
C1901 C1900 1.404 . S
C1901 H1913 0.930 . S
C1902 C1898 1.524 . S
C1902 H1914 0.956 . S
C1902 H1915 0.961 . S
C1902 H1916 0.961 . S
C1903 C1900 1.539 . S
C1903 H1917 0.958 . S
C1903 H1918 0.961 . S
C1903 H1919 0.960 . S
H1904 C1888 0.931 . S
H1905 C1893 0.929 1_554 S
H1906 C1894 0.960 . S
H1907 C1894 0.962 . S
H1908 C1894 0.960 . S
H1909 C1895 0.961 . S
H1910 C1895 0.961 . S
H1911 C1895 0.961 . S
H1912 C1896 0.931 . S
H1913 C1901 0.930 . S
H1914 C1902 0.956 . S
H1915 C1902 0.961 . S
H1916 C1902 0.961 . S
H1917 C1903 0.958 . S
H1918 C1903 0.961 . S
H1919 C1903 0.960 . S
C1920 C1921 1.391 . S
C1920 C1922 1.394 . S
C1920 H1936 0.931 . S
C1921 C1920 1.391 . S
C1921 C1925 1.376 . S
C1922 C1920 1.394 . S
C1922 C1923 1.369 . S
C1922 C1926 1.531 . S
C1923 C1922 1.369 . S
C1923 C1924 1.410 . S
C1923 C1931 1.503 . S
C1924 C1923 1.410 . S
C1924 C1925 1.392 . S
C1924 C1927 1.511 . S
C1925 C1921 1.376 . S
C1925 C1924 1.392 . S
C1925 H1937 0.929 . S
C1926 C1922 1.531 . S
C1926 H1938 0.960 . S
C1926 H1939 0.962 . S
C1926 H1940 0.960 . S
C1927 C1924 1.511 . S
C1927 H1941 0.961 . S
C1927 H1942 0.961 . S
C1927 H1943 0.961 . S
C1928 C1929 1.370 . S
C1928 C1930 1.363 . S
C1928 H1944 0.931 . S
C1929 C1928 1.370 . S
C1929 C1933 1.408 . S
C1930 C1928 1.363 . S
C1930 C1931 1.370 . S
C1930 C1934 1.524 . S
C1931 C1923 1.503 . S
C1931 C1930 1.370 . S
C1931 C1932 1.403 . S
C1932 C1931 1.403 . S
C1932 C1933 1.404 . S
C1932 C1935 1.539 . S
C1933 C1929 1.408 . S
C1933 C1932 1.404 . S
C1933 H1945 0.930 . S
C1934 C1930 1.524 . S
C1934 H1946 0.956 . S
C1934 H1947 0.961 . S
C1934 H1948 0.961 . S
C1935 C1932 1.539 . S
C1935 H1949 0.958 . S
C1935 H1950 0.961 . S
C1935 H1951 0.960 . S
H1936 C1920 0.931 . S
H1937 C1925 0.929 . S
H1938 C1926 0.960 . S
H1939 C1926 0.962 . S
H1940 C1926 0.960 . S
H1941 C1927 0.961 . S
H1942 C1927 0.961 . S
H1943 C1927 0.961 . S
H1944 C1928 0.931 . S
H1945 C1933 0.930 . S
H1946 C1934 0.956 . S
H1947 C1934 0.961 . S
H1948 C1934 0.961 . S
H1949 C1935 0.958 . S
H1950 C1935 0.961 . S
H1951 C1935 0.960 . S
C1952 C1953 1.391 . S
C1952 C1954 1.394 . S
C1952 H1968 0.931 . S
C1953 C1952 1.391 . S
C1953 C1957 1.376 . S
C1954 C1952 1.394 . S
C1954 C1955 1.369 . S
C1954 C1958 1.531 . S
C1955 C1954 1.369 . S
C1955 C1956 1.410 . S
C1955 C1963 1.503 . S
C1956 C1955 1.410 . S
C1956 C1957 1.392 . S
C1956 C1959 1.511 . S
C1957 C1953 1.376 . S
C1957 C1956 1.392 . S
C1957 H1969 0.929 . S
C1958 C1954 1.531 . S
C1958 H1970 0.960 . S
C1958 H1971 0.962 . S
C1958 H1972 0.960 . S
C1959 C1956 1.511 . S
C1959 H1973 0.961 . S
C1959 H1974 0.961 . S
C1959 H1975 0.961 . S
C1960 C1961 1.370 . S
C1960 C1962 1.363 . S
C1960 H1976 0.931 . S
C1961 C1960 1.370 . S
C1961 C1965 1.408 . S
C1962 C1960 1.363 . S
C1962 C1963 1.370 . S
C1962 C1966 1.524 . S
C1963 C1955 1.503 . S
C1963 C1962 1.370 . S
C1963 C1964 1.403 . S
C1964 C1963 1.403 . S
C1964 C1965 1.404 . S
C1964 C1967 1.539 . S
C1965 C1961 1.408 . S
C1965 C1964 1.404 . S
C1965 H1977 0.930 . S
C1966 C1962 1.524 . S
C1966 H1978 0.956 . S
C1966 H1979 0.961 . S
C1966 H1980 0.961 . S
C1967 C1964 1.539 . S
C1967 H1981 0.958 . S
C1967 H1982 0.961 . S
C1967 H1983 0.960 . S
H1968 C1952 0.931 . S
H1969 C1957 0.929 . S
H1970 C1958 0.960 . S
H1971 C1958 0.962 . S
H1972 C1958 0.960 . S
H1973 C1959 0.961 . S
H1974 C1959 0.961 . S
H1975 C1959 0.961 . S
H1976 C1960 0.931 . S
H1977 C1965 0.930 . S
H1978 C1966 0.956 . S
H1979 C1966 0.961 . S
H1980 C1966 0.961 . S
H1981 C1967 0.958 . S
H1982 C1967 0.961 . S
H1983 C1967 0.960 . S
C1984 C1985 1.391 . S
C1984 C1986 1.394 . S
C1984 H2000 0.931 . S
C1985 C1984 1.391 . S
C1985 C1989 1.376 . S
C1986 C1984 1.394 . S
C1986 C1987 1.369 . S
C1986 C1990 1.531 . S
C1987 C1986 1.369 . S
C1987 C1988 1.410 . S
C1987 C1995 1.503 . S
C1988 C1987 1.410 . S
C1988 C1989 1.392 . S
C1988 C1991 1.511 . S
C1989 C1985 1.376 . S
C1989 C1988 1.392 . S
C1989 H2001 0.929 . S
C1990 C1986 1.531 . S
C1990 H2002 0.960 . S
C1990 H2003 0.962 . S
C1990 H2004 0.960 . S
C1991 C1988 1.511 . S
C1991 H2005 0.961 . S
C1991 H2006 0.961 . S
C1991 H2007 0.961 . S
C1992 C1993 1.370 . S
C1992 C1994 1.363 . S
C1992 H2008 0.931 . S
C1993 C1992 1.370 . S
C1993 C1997 1.408 . S
C1994 C1992 1.363 . S
C1994 C1995 1.370 . S
C1994 C1998 1.524 . S
C1995 C1987 1.503 . S
C1995 C1994 1.370 . S
C1995 C1996 1.403 . S
C1996 C1995 1.403 . S
C1996 C1997 1.404 . S
C1996 C1999 1.539 . S
C1997 C1993 1.408 . S
C1997 C1996 1.404 . S
C1997 H2009 0.930 . S
C1998 C1994 1.524 . S
C1998 H2010 0.956 . S
C1998 H2011 0.961 . S
C1998 H2012 0.961 . S
C1999 C1996 1.539 . S
C1999 H2013 0.958 . S
C1999 H2014 0.961 . S
C1999 H2015 0.960 . S
H2000 C1984 0.931 . S
H2001 C1989 0.929 . S
H2002 C1990 0.960 . S
H2003 C1990 0.962 . S
H2004 C1990 0.960 . S
H2005 C1991 0.961 . S
H2006 C1991 0.961 . S
H2007 C1991 0.961 . S
H2008 C1992 0.931 . S
H2009 C1997 0.930 . S
H2010 C1998 0.956 . S
H2011 C1998 0.961 . S
H2012 C1998 0.961 . S
H2013 C1999 0.958 . S
H2014 C1999 0.961 . S
H2015 C1999 0.960 . S
C2016 C2017 1.391 . S
C2016 C2018 1.394 . S
C2016 H2032 0.931 . S
C2017 C2016 1.391 . S
C2017 C2021 1.376 . S
C2018 C2016 1.394 . S
C2018 C2019 1.369 . S
C2018 C2022 1.531 1_554 S
C2019 C2018 1.369 . S
C2019 C2020 1.410 . S
C2019 C2027 1.503 1_454 S
C2020 C2019 1.410 . S
C2020 C2021 1.392 . S
C2020 C2023 1.511 1_455 S
C2021 C2017 1.376 . S
C2021 C2020 1.392 . S
C2021 H2033 0.929 . S
C2022 C2018 1.531 1_556 S
C2022 H2034 0.960 . S
C2022 H2035 0.962 . S
C2022 H2036 0.960 . S
C2023 C2020 1.511 1_655 S
C2023 H2037 0.961 . S
C2023 H2038 0.961 . S
C2023 H2039 0.961 . S
C2024 C2025 1.370 . S
C2024 C2026 1.363 . S
C2024 H2040 0.931 . S
C2025 C2024 1.370 . S
C2025 C2029 1.408 . S
C2026 C2024 1.363 . S
C2026 C2027 1.370 . S
C2026 C2030 1.524 . S
C2027 C2019 1.503 1_656 S
C2027 C2026 1.370 . S
C2027 C2028 1.403 . S
C2028 C2027 1.403 . S
C2028 C2029 1.404 . S
C2028 C2031 1.527 1_556 S
C2029 C2025 1.408 . S
C2029 C2028 1.404 . S
C2029 H2041 0.930 . S
C2030 C2026 1.524 . S
C2030 H2042 0.956 1_655 S
C2030 H2043 0.961 1_556 S
C2030 H2044 0.961 . S
C2031 C2028 1.527 1_554 S
C2031 H2045 0.948 1_554 S
C2031 H2046 0.963 . S
C2031 H2047 0.981 . S
H2032 C2016 0.931 . S
H2033 C2021 0.929 . S
H2034 C2022 0.960 . S
H2035 C2022 0.962 . S
H2036 C2022 0.960 . S
H2037 C2023 0.961 . S
H2038 C2023 0.961 . S
H2039 C2023 0.961 . S
H2040 C2024 0.931 . S
H2041 C2029 0.930 . S
H2042 C2030 0.956 1_455 S
H2043 C2030 0.961 1_554 S
H2044 C2030 0.961 . S
H2045 C2031 0.948 1_556 S
H2046 C2031 0.963 . S
H2047 C2031 0.981 . S
C2048 C2049 1.391 . S
C2048 C2050 1.394 . S
C2048 H2064 0.931 . S
C2049 C2048 1.391 . S
C2049 C2053 1.376 . S
C2050 C2048 1.394 . S
C2050 C2051 1.369 . S
C2050 C2054 1.531 . S
C2051 C2050 1.369 . S
C2051 C2052 1.410 . S
C2051 C2059 1.503 . S
C2052 C2051 1.410 . S
C2052 C2053 1.392 . S
C2052 C2055 1.511 . S
C2053 C2049 1.376 . S
C2053 C2052 1.392 . S
C2053 H2065 0.929 . S
C2054 C2050 1.531 . S
C2054 H2066 0.960 . S
C2054 H2067 0.962 . S
C2054 H2068 0.960 . S
C2055 C2052 1.511 . S
C2055 H2069 0.961 . S
C2055 H2070 0.961 . S
C2055 H2071 0.961 . S
C2056 C2057 1.370 . S
C2056 C2058 1.363 . S
C2056 H2072 0.931 . S
C2057 C2056 1.370 . S
C2057 C2061 1.408 . S
C2058 C2056 1.363 . S
C2058 C2059 1.370 . S
C2058 C2062 1.524 . S
C2059 C2051 1.503 . S
C2059 C2058 1.370 . S
C2059 C2060 1.403 . S
C2060 C2059 1.403 . S
C2060 C2061 1.404 . S
C2060 C2063 1.539 . S
C2061 C2057 1.408 . S
C2061 C2060 1.404 . S
C2061 H2073 0.930 . S
C2062 C2058 1.524 . S
C2062 H2074 0.956 . S
C2062 H2075 0.961 . S
C2062 H2076 0.961 . S
C2063 C2060 1.539 . S
C2063 H2077 0.958 . S
C2063 H2078 0.961 . S
C2063 H2079 0.960 . S
H2064 C2048 0.931 . S
H2065 C2053 0.929 . S
H2066 C2054 0.960 . S
H2067 C2054 0.962 . S
H2068 C2054 0.960 . S
H2069 C2055 0.961 . S
H2070 C2055 0.961 . S
H2071 C2055 0.961 . S
H2072 C2056 0.931 . S
H2073 C2061 0.930 . S
H2074 C2062 0.956 . S
H2075 C2062 0.961 . S
H2076 C2062 0.961 . S
H2077 C2063 0.958 . S
H2078 C2063 0.961 . S
H2079 C2063 0.960 . S
C2080 C2081 1.391 . S
C2080 C2082 1.394 . S
C2080 H2096 0.931 . S
C2081 C2080 1.391 . S
C2081 C2085 1.376 . S
C2082 C2080 1.394 . S
C2082 C2083 1.369 . S
C2082 C2086 1.531 . S
C2083 C2082 1.369 . S
C2083 C2084 1.410 . S
C2083 C2091 1.503 . S
C2084 C2083 1.410 . S
C2084 C2085 1.392 . S
C2084 C2087 1.511 . S
C2085 C2081 1.376 . S
C2085 C2084 1.392 . S
C2085 H2097 0.929 . S
C2086 C2082 1.531 . S
C2086 H2098 0.960 . S
C2086 H2099 0.962 . S
C2086 H2100 0.960 . S
C2087 C2084 1.511 . S
C2087 H2101 0.961 . S
C2087 H2102 0.961 . S
C2087 H2103 0.961 . S
C2088 C2089 1.370 . S
C2088 C2090 1.363 . S
C2088 H2104 0.931 . S
C2089 C2088 1.370 . S
C2089 C2093 1.408 . S
C2090 C2088 1.363 . S
C2090 C2091 1.370 . S
C2090 C2094 1.524 . S
C2091 C2083 1.503 . S
C2091 C2090 1.370 . S
C2091 C2092 1.403 . S
C2092 C2091 1.403 . S
C2092 C2093 1.404 . S
C2092 C2095 1.539 . S
C2093 C2089 1.408 . S
C2093 C2092 1.404 . S
C2093 H2105 0.930 . S
C2094 C2090 1.524 . S
C2094 H2106 0.956 . S
C2094 H2107 0.961 . S
C2094 H2108 0.961 . S
C2095 C2092 1.539 . S
C2095 H2109 0.958 . S
C2095 H2110 0.961 . S
C2095 H2111 0.960 . S
H2096 C2080 0.931 . S
H2097 C2085 0.929 . S
H2098 C2086 0.960 . S
H2099 C2086 0.962 . S
H2100 C2086 0.960 . S
H2101 C2087 0.961 . S
H2102 C2087 0.961 . S
H2103 C2087 0.961 . S
H2104 C2088 0.931 . S
H2105 C2093 0.930 . S
H2106 C2094 0.956 . S
H2107 C2094 0.961 . S
H2108 C2094 0.961 . S
H2109 C2095 0.958 . S
H2110 C2095 0.961 . S
H2111 C2095 0.960 . S
C2112 C2113 1.391 . S
C2112 C2114 1.390 1_545 S
C2112 H2128 0.931 . S
C2113 C2112 1.391 . S
C2113 C2117 1.376 1_545 S
C2114 C2112 1.390 1_565 S
C2114 C2115 1.374 . S
C2114 C2118 1.530 1_465 S
C2115 C2114 1.374 . S
C2115 C2116 1.410 . S
C2115 C2123 1.503 1_456 S
C2116 C2115 1.410 . S
C2116 C2117 1.392 . S
C2116 C2119 1.511 1_556 S
C2117 C2113 1.376 1_565 S
C2117 C2116 1.392 . S
C2117 H2129 0.929 . S
C2118 C2114 1.530 1_645 S
C2118 H2130 0.956 1_545 S
C2118 H2131 0.968 . S
C2118 H2132 0.958 1_545 S
C2119 C2116 1.511 1_554 S
C2119 H2133 0.961 . S
C2119 H2134 0.961 . S
C2119 H2135 0.961 . S
C2120 C2121 1.370 1_545 S
C2120 C2122 1.363 . S
C2120 H2136 0.931 . S
C2121 C2120 1.370 1_565 S
C2121 C2125 1.408 . S
C2122 C2120 1.363 . S
C2122 C2123 1.370 1_545 S
C2122 C2126 1.524 . S
C2123 C2115 1.503 1_654 S
C2123 C2122 1.370 1_565 S
C2123 C2124 1.403 . S
C2124 C2123 1.403 . S
C2124 C2125 1.404 . S
C2124 C2127 1.539 . S
C2125 C2121 1.408 . S
C2125 C2124 1.404 . S
C2125 H2137 0.930 . S
C2126 C2122 1.524 . S
C2126 H2138 0.956 1_554 S
C2126 H2139 0.961 1_655 S
C2126 H2140 0.961 . S
C2127 C2124 1.539 . S
C2127 H2141 0.958 1_554 S
C2127 H2142 0.961 . S
C2127 H2143 0.960 1_654 S
H2128 C2112 0.931 . S
H2129 C2117 0.929 . S
H2130 C2118 0.956 1_565 S
H2131 C2118 0.968 . S
H2132 C2118 0.958 1_565 S
H2133 C2119 0.961 . S
H2134 C2119 0.961 . S
H2135 C2119 0.961 . S
H2136 C2120 0.931 . S
H2137 C2125 0.930 . S
H2138 C2126 0.956 1_556 S
H2139 C2126 0.961 1_455 S
H2140 C2126 0.961 . S
H2141 C2127 0.958 1_556 S
H2142 C2127 0.961 . S
H2143 C2127 0.960 1_456 S
C2144 C2145 1.391 . S
C2144 C2146 1.389 1_545 S
C2144 H2160 0.931 . S
C2145 C2144 1.391 . S
C2145 C2149 1.376 1_545 S
C2146 C2144 1.389 1_565 S
C2146 C2147 1.376 . S
C2146 C2150 1.530 . S
C2147 C2146 1.376 . S
C2147 C2148 1.410 . S
C2147 C2155 1.503 . S
C2148 C2147 1.410 . S
C2148 C2149 1.392 . S
C2148 C2151 1.511 . S
C2149 C2145 1.376 1_565 S
C2149 C2148 1.392 . S
C2149 H2161 0.929 . S
C2150 C2146 1.530 . S
C2150 H2162 0.967 . S
C2150 H2163 0.951 1_565 S
C2150 H2164 0.964 . S
C2151 C2148 1.511 . S
C2151 H2165 0.961 . S
C2151 H2166 0.961 . S
C2151 H2167 0.961 . S
C2152 C2153 1.370 1_545 S
C2152 C2154 1.363 . S
C2152 H2168 0.931 . S
C2153 C2152 1.370 1_565 S
C2153 C2157 1.408 . S
C2154 C2152 1.363 . S
C2154 C2155 1.370 1_545 S
C2154 C2158 1.524 . S
C2155 C2147 1.503 . S
C2155 C2154 1.370 1_565 S
C2155 C2156 1.403 . S
C2156 C2155 1.403 . S
C2156 C2157 1.404 . S
C2156 C2159 1.539 . S
C2157 C2153 1.408 . S
C2157 C2156 1.404 . S
C2157 H2169 0.930 . S
C2158 C2154 1.524 . S
C2158 H2170 0.956 . S
C2158 H2171 0.961 . S
C2158 H2172 0.961 . S
C2159 C2156 1.539 . S
C2159 H2173 0.958 . S
C2159 H2174 0.961 . S
C2159 H2175 0.960 . S
H2160 C2144 0.931 . S
H2161 C2149 0.929 . S
H2162 C2150 0.967 . S
H2163 C2150 0.951 1_545 S
H2164 C2150 0.964 . S
H2165 C2151 0.961 . S
H2166 C2151 0.961 . S
H2167 C2151 0.961 . S
H2168 C2152 0.931 . S
H2169 C2157 0.930 . S
H2170 C2158 0.956 . S
H2171 C2158 0.961 . S
H2172 C2158 0.961 . S
H2173 C2159 0.958 . S
H2174 C2159 0.961 . S
H2175 C2159 0.960 . S
C641 C10 3.319 . S
C649 C410 3.317 . S
C673 C50 3.305 . S
C681 C450 3.323 . S
C705 C90 3.303 . S
C713 C330 3.323 . S
C737 C130 3.312 . S
C745 C370 3.320 . S
C769 C179 3.313 . S
C777 C579 3.318 . S
C801 C219 3.300 . S
C809 C619 3.324 . S
C833 C259 3.302 . S
C841 C499 3.323 . S
C865 C299 3.308 . S
C873 C539 3.320 . S
C897 C369 3.740 . S
C905 C19 3.702 1_556 S
C929 C409 3.737 . S
C937 C59 3.702 . S
C961 C449 3.749 . S
C969 C99 3.708 . S
C993 C329 3.736 . S
C1001 C139 3.700 . S
C1025 C170 3.703 1_554 S
C1033 C538 3.752 . S
C1057 C578 3.754 . S
C1065 C210 3.707 . S
C1089 C618 3.735 . S
C1097 C250 3.700 . S
C1121 C498 3.736 . S
C1129 C290 3.703 . S
C1153 C49 3.735 . S
C1161 C339 3.700 . S
C1185 C379 3.714 . S
C1193 C89 3.759 . S
C1217 C419 3.715 1_556 S
C1225 C129 3.759 . S
C1249 C459 3.685 . S
C1257 C9 3.748 . S
C1281 C490 3.694 . S
C1289 C218 3.754 . S
C1313 C258 3.753 . S
C1321 C530 3.707 . S
C1345 C298 3.748 . S
C1353 C570 3.710 1_554 S
C1377 C610 3.713 . S
C1385 C178 3.759 . S
C1409 C6 0.504 . S
C1417 C609 0.167 . S
C1441 C46 0.499 . S
C1449 C169 0.149 . S
C1473 C529 0.240 . S
C1481 C86 0.425 . S
C1505 C249 0.281 . S
C1513 C126 0.398 . S
C1537 C175 0.281 . S
C1545 C458 0.167 . S
C1569 C215 0.324 . S
C1577 C18 0.144 . S
C1601 C378 0.073 . S
C1609 C255 0.377 . S
C1633 C98 0.144 . S
C1641 C295 0.428 . S
C1665 C326 0.379 . S
C1673 C289 0.224 . S
C1697 C366 0.499 . S
C1705 C489 0.148 . S
C1729 C209 0.241 . S
C1737 C406 0.337 . S
C1761 C569 0.284 . S
C1769 C446 0.395 . S
C1793 C495 0.287 . S
C1801 C138 0.204 . S
C1825 C535 0.351 . S
C1833 C338 0.135 . S
C1857 C575 0.469 . S
C1865 C58 0.140 . S
C1889 C418 0.121 . S
C1897 C615 0.422 . S
C1921 C15 1.623 . S
C1929 C486 1.621 . S
C1953 C55 1.642 . S
C1961 C206 1.607 . S
C1985 C95 1.641 . S
C1993 C566 1.608 . S
C2017 C286 1.655 . S
C2025 C135 1.606 . S
C2049 C166 1.651 . S
C2057 C335 1.604 . S
C2081 C415 1.633 . S
C2089 C246 1.611 . S
C2113 C375 1.658 . S
C2121 C526 1.602 . S
C2145 C606 1.660 . S
C2153 C455 1.603 . S
