# Generated by pormake.
# Topology acs-i, (5)-cn, num edge types: 1
# Building blocks:
#     Node 0, Type 0, BuildingBlock: XOMCOT_clean_sbu_0, # of connection points: 5
#     Node 1, Type 0, BuildingBlock: XOMCOT_clean_sbu_0, # of connection points: 5
#     Node 2, Type 0, BuildingBlock: XOMCOT_clean_sbu_0, # of connection points: 5
#     Node 3, Type 0, BuildingBlock: XOMCOT_clean_sbu_0, # of connection points: 5
#     Node 4, Type 0, BuildingBlock: XOMCOT_clean_sbu_0, # of connection points: 5
#     Node 5, Type 0, BuildingBlock: XOMCOT_clean_sbu_0, # of connection points: 5
#     Node 6, Type 0, BuildingBlock: XOMCOT_clean_sbu_0, # of connection points: 5
#     Node 7, Type 0, BuildingBlock: XOMCOT_clean_sbu_0, # of connection points: 5
#     Node 8, Type 0, BuildingBlock: XOMCOT_clean_sbu_0, # of connection points: 5
#     Node 9, Type 0, BuildingBlock: XOMCOT_clean_sbu_0, # of connection points: 5
#     Node 10, Type 0, BuildingBlock: XOMCOT_clean_sbu_0, # of connection points: 5
#     Node 11, Type 0, BuildingBlock: XOMCOT_clean_sbu_0, # of connection points: 5
#     Edge 12, Type (0, 0), BuildingBlock: XUDNAN_clean_linker_2, # of connection points: 2
#     Edge 13, Type (0, 0), BuildingBlock: XUDNAN_clean_linker_2, # of connection points: 2
#     Edge 14, Type (0, 0), BuildingBlock: XUDNAN_clean_linker_2, # of connection points: 2
#     Edge 15, Type (0, 0), BuildingBlock: XUDNAN_clean_linker_2, # of connection points: 2
#     Edge 16, Type (0, 0), BuildingBlock: XUDNAN_clean_linker_2, # of connection points: 2
#     Edge 17, Type (0, 0), BuildingBlock: XUDNAN_clean_linker_2, # of connection points: 2
#     Edge 18, Type (0, 0), BuildingBlock: XUDNAN_clean_linker_2, # of connection points: 2
#     Edge 19, Type (0, 0), BuildingBlock: XUDNAN_clean_linker_2, # of connection points: 2
#     Edge 20, Type (0, 0), BuildingBlock: XUDNAN_clean_linker_2, # of connection points: 2
#     Edge 21, Type (0, 0), BuildingBlock: XUDNAN_clean_linker_2, # of connection points: 2
#     Edge 22, Type (0, 0), BuildingBlock: XUDNAN_clean_linker_2, # of connection points: 2
#     Edge 23, Type (0, 0), BuildingBlock: XUDNAN_clean_linker_2, # of connection points: 2
#     Edge 24, Type (0, 0), BuildingBlock: XUDNAN_clean_linker_2, # of connection points: 2
#     Edge 25, Type (0, 0), BuildingBlock: XUDNAN_clean_linker_2, # of connection points: 2
#     Edge 26, Type (0, 0), BuildingBlock: XUDNAN_clean_linker_2, # of connection points: 2
#     Edge 27, Type (0, 0), BuildingBlock: XUDNAN_clean_linker_2, # of connection points: 2
#     Edge 28, Type (0, 0), BuildingBlock: XUDNAN_clean_linker_2, # of connection points: 2
#     Edge 29, Type (0, 0), BuildingBlock: XUDNAN_clean_linker_2, # of connection points: 2
#     Edge 30, Type (0, 0), BuildingBlock: XUDNAN_clean_linker_2, # of connection points: 2
#     Edge 31, Type (0, 0), BuildingBlock: XUDNAN_clean_linker_2, # of connection points: 2
#     Edge 32, Type (0, 0), BuildingBlock: XUDNAN_clean_linker_2, # of connection points: 2
#     Edge 33, Type (0, 0), BuildingBlock: XUDNAN_clean_linker_2, # of connection points: 2
#     Edge 34, Type (0, 0), BuildingBlock: XUDNAN_clean_linker_2, # of connection points: 2
#     Edge 35, Type (0, 0), BuildingBlock: XUDNAN_clean_linker_2, # of connection points: 2
#     Edge 36, Type (0, 0), BuildingBlock: XUDNAN_clean_linker_2, # of connection points: 2
#     Edge 37, Type (0, 0), BuildingBlock: XUDNAN_clean_linker_2, # of connection points: 2
#     Edge 38, Type (0, 0), BuildingBlock: XUDNAN_clean_linker_2, # of connection points: 2
#     Edge 39, Type (0, 0), BuildingBlock: XUDNAN_clean_linker_2, # of connection points: 2
#     Edge 40, Type (0, 0), BuildingBlock: XUDNAN_clean_linker_2, # of connection points: 2
#     Edge 41, Type (0, 0), BuildingBlock: XUDNAN_clean_linker_2, # of connection points: 2
# Relax obj value: 0.847
# Max RMSD: 0.232
# Mean RMSD: 0.232
data_MOF--net-acs-i--node1-XOMCOT_clean_sbu_0--edge1-XUDNAN_clean_linker_2
_symmetry_space_group_name_H-M    P1
_symmetry_Int_Tables_number       1
_symmetry_cell_setting            triclinic
loop_
_symmetry_equiv_pos_as_xyz
'x, y, z'
_cell_length_a     53.050192
_cell_length_b     52.819097
_cell_length_c     35.46742
_cell_angle_alpha  90.17394
_cell_angle_beta   90.00085
_cell_angle_gamma 120.19825
loop_
_atom_site_label
_atom_site_type_symbol
_atom_site_fract_x
_atom_site_fract_y
_atom_site_fract_z
_atom_type_partial_charge
Co0 Co 0.30117 0.49717 0.07194 0.0
C1 C 0.35001 0.51809 0.12839 0.0
C2 C 0.3605 0.50673 0.07498 0.0
C3 C 0.38523 0.51929 0.09671 0.0
N4 N 0.33813 0.50566 0.09468 0.0
N5 N 0.37854 0.52618 0.1302 0.0
H6 H 0.3389 0.52318 0.15009 0.0
H7 H 0.35982 0.50106 0.04562 0.0
C8 C 0.3213 0.54222 0.00806 0.0
O9 O 0.29575 0.53052 0.99143 0.0
N10 N 0.26502 0.48923 0.04835 0.0
C11 C 0.24766 0.46731 0.02447 0.0
C12 C 0.22671 0.47286 0.01026 0.0
C13 C 0.25373 0.50702 0.04947 0.0
N14 N 0.2307 0.49779 0.02616 0.0
C15 C 0.29995 0.44425 0.05633 0.0
C16 C 0.32088 0.4566 0.9833 0.0
C17 C 0.32049 0.43336 0.00262 0.0
C18 C 0.30806 0.42611 0.0385 0.0
C19 C 0.31189 0.47406 0.00206 0.0
N20 N 0.30351 0.46888 0.03908 0.0
H21 H 0.29311 0.43962 0.08529 0.0
H22 H 0.31351 0.49251 0.98733 0.0
H23 H 0.25052 0.44915 0.01657 0.0
H24 H 0.26371 0.52771 0.06448 0.0
O25 O 0.27916 0.47121 0.11223 0.0
O26 O 0.29488 0.5187 0.11225 0.0
O27 O 0.32527 0.5308 0.03746 0.0
C28 C 0.28093 0.49366 0.12964 0.0
H29 H 0.40691 0.52472 0.08784 0.0
H30 H 0.21046 0.46017 0.98909 0.0
H31 H 0.32993 0.46247 0.95518 0.0
H32 H 0.3067 0.40776 0.05388 0.0
Co33 Co 0.78842 0.30771 0.57729 0.0
C34 C 0.82963 0.35969 0.62334 0.0
C35 C 0.78932 0.3583 0.61048 0.0
C36 C 0.80702 0.3838 0.62952 0.0
N37 N 0.8036 0.34344 0.60605 0.0
N38 N 0.83237 0.38481 0.63714 0.0
H39 H 0.84622 0.35355 0.62529 0.0
H40 H 0.76753 0.35112 0.60026 0.0
C41 C 0.77713 0.33007 0.50357 0.0
O42 O 0.78662 0.31626 0.48224 0.0
N43 N 0.77176 0.27165 0.54835 0.0
C44 C 0.77455 0.24794 0.55463 0.0
C45 C 0.75088 0.22361 0.53933 0.0
C46 C 0.74651 0.26117 0.52931 0.0
N47 N 0.73315 0.23202 0.52372 0.0
C48 C 0.8403 0.30772 0.55587 0.0
C49 C 0.8666 0.36165 0.52048 0.0
C50 C 0.88097 0.34573 0.52226 0.0
C51 C 0.86786 0.31863 0.54025 0.0
C52 C 0.83902 0.34989 0.53643 0.0
N53 N 0.82579 0.3228 0.55277 0.0
H54 H 0.83124 0.28776 0.57171 0.0
H55 H 0.82888 0.36313 0.5369 0.0
H56 H 0.78977 0.24705 0.57399 0.0
H57 H 0.73541 0.2735 0.52593 0.0
O58 O 0.79428 0.28866 0.62023 0.0
O59 O 0.75435 0.29103 0.60871 0.0
O60 O 0.77519 0.32664 0.53923 0.0
C61 C 0.76854 0.28308 0.63107 0.0
H62 H 0.80144 0.40004 0.63821 0.0
H63 H 0.74498 0.2011 0.54452 0.0
H64 H 0.87684 0.38318 0.50773 0.0
H65 H 0.87913 0.30639 0.54295 0.0
Co66 Co 0.48895 0.79914 0.06807 0.0
C67 C 0.47835 0.82995 0.13212 0.0
C68 C 0.48317 0.85097 0.0789 0.0
C69 C 0.47622 0.86542 0.10535 0.0
N70 N 0.48499 0.8289 0.09554 0.0
N71 N 0.47339 0.85226 0.13857 0.0
H72 H 0.47582 0.81417 0.15331 0.0
H73 H 0.4847 0.85529 0.04908 0.0
C74 C 0.43295 0.77905 0.01639 0.0
O75 O 0.43626 0.76472 0.9883 0.0
N76 N 0.49313 0.77056 0.03951 0.0
C77 C 0.51829 0.7736 0.02591 0.0
C78 C 0.51197 0.74918 0.00471 0.0
C79 C 0.47201 0.74437 0.02724 0.0
N80 N 0.48291 0.73132 0.00539 0.0
C81 C 0.54139 0.84823 0.04336 0.0
C82 C 0.51865 0.85902 0.97932 0.0
C83 C 0.54511 0.88124 0.99425 0.0
C84 C 0.55776 0.8744 0.02429 0.0
C85 C 0.50364 0.83232 0.99819 0.0
N86 N 0.51376 0.82863 0.03194 0.0
H87 H 0.55022 0.8449 0.06899 0.0
H88 H 0.48284 0.81605 0.98731 0.0
H89 H 0.53969 0.79243 0.03067 0.0
H90 H 0.44915 0.73497 0.03406 0.0
O91 O 0.51826 0.80199 0.10301 0.0
O92 O 0.47081 0.7715 0.10884 0.0
O93 O 0.45198 0.79073 0.04242 0.0
C94 C 0.49692 0.78168 0.12246 0.0
H95 H 0.4718 0.88303 0.10027 0.0
H96 H 0.52727 0.74497 0.98971 0.0
H97 H 0.50834 0.8629 0.95545 0.0
H98 H 0.57904 0.89019 0.03527 0.0
Co99 Co 0.67016 0.48506 0.5635 0.0
C100 C 0.62471 0.46973 0.62428 0.0
C101 C 0.6075 0.46398 0.56841 0.0
C102 C 0.58481 0.454 0.59296 0.0
N103 N 0.63294 0.47455 0.58753 0.0
N104 N 0.59542 0.45718 0.62801 0.0
H105 H 0.63914 0.47267 0.6475 0.0
H106 H 0.60449 0.46007 0.5386 0.0
C107 C 0.6478 0.44854 0.49146 0.0
O108 O 0.66541 0.47004 0.46918 0.0
N109 N 0.7062 0.49399 0.53843 0.0
C110 C 0.73136 0.51971 0.534 0.0
C111 C 0.75086 0.51464 0.51417 0.0
C112 C 0.71107 0.4738 0.52206 0.0
N113 N 0.73755 0.48588 0.50609 0.0
C114 C 0.6835 0.54292 0.54706 0.0
C115 C 0.63443 0.52753 0.50459 0.0
C116 C 0.64773 0.55438 0.52399 0.0
C117 C 0.67437 0.56315 0.54191 0.0
C118 C 0.64526 0.50848 0.50893 0.0
N119 N 0.66732 0.51485 0.5339 0.0
H120 H 0.70188 0.54932 0.5654 0.0
H121 H 0.63323 0.48749 0.49558 0.0
H122 H 0.73593 0.54059 0.54517 0.0
H123 H 0.69587 0.45046 0.5228 0.0
O124 O 0.69177 0.50988 0.60514 0.0
O125 O 0.67776 0.46289 0.60168 0.0
O126 O 0.64749 0.45211 0.527 0.0
C127 C 0.69157 0.48752 0.62029 0.0
H128 H 0.56188 0.44227 0.58549 0.0
H129 H 0.77315 0.53059 0.50703 0.0
H130 H 0.61432 0.51982 0.48904 0.0
H131 H 0.68681 0.58452 0.55497 0.0
Co132 Co 0.17207 0.68448 0.07805 0.0
C133 C 0.1455 0.63532 0.13389 0.0
C134 C 0.11845 0.6261 0.0851 0.0
C135 C 0.10507 0.60261 0.10891 0.0
N136 N 0.14366 0.64711 0.10084 0.0
N137 N 0.12208 0.60846 0.1394 0.0
H138 H 0.1634 0.64592 0.15365 0.0
H139 H 0.10992 0.62728 0.05801 0.0
C140 C 0.16961 0.64225 0.01677 0.0
O141 O 0.14306 0.6345 0.00609 0.0
N142 N 0.20006 0.72076 0.05488 0.0
C143 C 0.19913 0.74577 0.05327 0.0
C144 C 0.22521 0.76749 0.03879 0.0
C145 C 0.2262 0.72732 0.04094 0.0
N146 N 0.24192 0.75565 0.0307 0.0
C147 C 0.11797 0.68107 0.06367 0.0
C148 C 0.11926 0.67694 0.98607 0.0
C149 C 0.09265 0.66802 0.00429 0.0
C150 C 0.09265 0.67267 0.04315 0.0
C151 C 0.14439 0.68612 0.00788 0.0
N152 N 0.14216 0.68396 0.04619 0.0
H153 H 0.11703 0.68152 0.09409 0.0
H154 H 0.16465 0.69138 0.99416 0.0
H155 H 0.18148 0.74839 0.06398 0.0
H156 H 0.23459 0.71239 0.04139 0.0
O157 O 0.16869 0.7062 0.11965 0.0
O158 O 0.20038 0.69055 0.11699 0.0
O159 O 0.18302 0.66191 0.04199 0.0
C160 C 0.19012 0.70481 0.13532 0.0
H161 H 0.08471 0.58248 0.10393 0.0
H162 H 0.23218 0.79055 0.03682 0.0
H163 H 0.12013 0.67443 0.95585 0.0
H164 H 0.07257 0.66644 0.05817 0.0
Co165 Co 0.49226 0.19157 0.57321 0.0
C166 C 0.50576 0.15891 0.63116 0.0
C167 C 0.51334 0.14962 0.57488 0.0
C168 C 0.52113 0.1347 0.59946 0.0
N169 N 0.50411 0.16525 0.59465 0.0
N170 N 0.51638 0.14047 0.63501 0.0
H171 H 0.49965 0.16783 0.65446 0.0
H172 H 0.51565 0.14998 0.54462 0.0
C173 C 0.54416 0.21168 0.50975 0.0
O174 O 0.53986 0.21841 0.47562 0.0
N175 N 0.47993 0.21728 0.55075 0.0
C176 C 0.4648 0.22876 0.56688 0.0
C177 C 0.46897 0.25261 0.54605 0.0
C178 C 0.49125 0.2332 0.51931 0.0
N179 N 0.48613 0.2556 0.51645 0.0
C180 C 0.43625 0.14203 0.55647 0.0
C181 C 0.45297 0.12578 0.49121 0.0
C182 C 0.42574 0.1063 0.50686 0.0
C183 C 0.4168 0.1155 0.53886 0.0
C184 C 0.4712 0.15231 0.50892 0.0
N185 N 0.46363 0.15935 0.54249 0.0
H186 H 0.4297 0.14798 0.58227 0.0
H187 H 0.49211 0.16582 0.49629 0.0
H188 H 0.45402 0.22251 0.59391 0.0
H189 H 0.5062 0.23121 0.50107 0.0
O190 O 0.46961 0.18785 0.61867 0.0
O191 O 0.51574 0.22165 0.60895 0.0
O192 O 0.52405 0.20386 0.53443 0.0
C193 C 0.4931 0.21115 0.63078 0.0
H194 H 0.53082 0.12172 0.59144 0.0
H195 H 0.46321 0.2687 0.55483 0.0
H196 H 0.46134 0.12001 0.46686 0.0
H197 H 0.39555 0.10178 0.55131 0.0
Co198 Co 0.48481 0.68538 0.43364 0.0
C199 C 0.48857 0.64724 0.3732 0.0
C200 C 0.4491 0.62543 0.40495 0.0
C201 C 0.44738 0.60725 0.37657 0.0
N202 N 0.47537 0.65027 0.40428 0.0
N203 N 0.47198 0.62092 0.35613 0.0
H204 H 0.50854 0.66471 0.36135 0.0
H205 H 0.43054 0.62173 0.42146 0.0
C206 C 0.44678 0.6383 0.48877 0.0
O207 O 0.46423 0.62746 0.48607 0.0
N208 N 0.49172 0.71923 0.46227 0.0
C209 C 0.51612 0.74128 0.47774 0.0
C210 C 0.50829 0.75811 0.49941 0.0
C211 C 0.46985 0.72309 0.47392 0.0
N212 N 0.47903 0.74631 0.49718 0.0
C213 C 0.53355 0.67857 0.44583 0.0
C214 C 0.52744 0.67005 0.52298 0.0
C215 C 0.54528 0.66227 0.50285 0.0
C216 C 0.55023 0.66919 0.46451 0.0
C217 C 0.51174 0.6805 0.50304 0.0
N218 N 0.51259 0.68119 0.46446 0.0
H219 H 0.53638 0.68213 0.41588 0.0
H220 H 0.49675 0.68507 0.51812 0.0
H221 H 0.53776 0.74434 0.47452 0.0
H222 H 0.4475 0.70874 0.46533 0.0
O223 O 0.51176 0.71019 0.39605 0.0
O224 O 0.46438 0.69483 0.3955 0.0
O225 O 0.45158 0.66068 0.46925 0.0
C226 C 0.48986 0.70987 0.37941 0.0
H227 H 0.42781 0.58716 0.3686 0.0
H228 H 0.52292 0.77704 0.51616 0.0
H229 H 0.52395 0.66606 0.55297 0.0
H230 H 0.56538 0.66533 0.44847 0.0
Co231 Co 0.78888 0.47696 0.92432 0.0
C232 C 0.83316 0.47744 0.87083 0.0
C233 C 0.79804 0.43454 0.88498 0.0
C234 C 0.81682 0.43141 0.8618 0.0
N235 N 0.8083 0.46325 0.89114 0.0
N236 N 0.83901 0.45825 0.85293 0.0
H237 H 0.84636 0.50101 0.8687 0.0
H238 H 0.77783 0.41694 0.89611 0.0
C239 C 0.77158 0.43264 0.99013 0.0
O240 O 0.76222 0.44547 0.01336 0.0
N241 N 0.76812 0.48901 0.95779 0.0
C242 C 0.7771 0.51473 0.97576 0.0
C243 C 0.7539 0.5127 0.99624 0.0
C244 C 0.73981 0.47208 0.9669 0.0
N245 N 0.73076 0.48568 0.9908 0.0
C246 C 0.84327 0.53001 0.93431 0.0
C247 C 0.86663 0.50966 0.98763 0.0
C248 C 0.88484 0.53618 0.9696 0.0
C249 C 0.87263 0.54698 0.94391 0.0
C250 C 0.83719 0.49355 0.97766 0.0
N251 N 0.82609 0.50283 0.94956 0.0
H252 H 0.83505 0.53835 0.91287 0.0
H253 H 0.82421 0.47335 0.99201 0.0
H254 H 0.79883 0.53356 0.97434 0.0
H255 H 0.72618 0.44986 0.95678 0.0
O256 O 0.79049 0.50392 0.88695 0.0
O257 O 0.75472 0.45808 0.89085 0.0
O258 O 0.78106 0.44285 0.95734 0.0
C259 C 0.76632 0.48306 0.87318 0.0
H260 H 0.81349 0.41084 0.85063 0.0
H261 H 0.75415 0.5294 0.01425 0.0
H262 H 0.87525 0.50101 0.00843 0.0
H263 H 0.88607 0.56755 0.9295 0.0
Co264 Co 0.30517 0.79899 0.43858 0.0
C265 C 0.3501 0.83418 0.38087 0.0
C266 C 0.36136 0.80697 0.41327 0.0
C267 C 0.38325 0.82242 0.38792 0.0
N268 N 0.34073 0.81461 0.40934 0.0
N269 N 0.37619 0.83949 0.36783 0.0
H270 H 0.33788 0.84368 0.36925 0.0
H271 H 0.36044 0.79067 0.43242 0.0
C272 C 0.32842 0.79074 0.51163 0.0
O273 O 0.3188 0.80621 0.52901 0.0
N274 N 0.26923 0.78142 0.46787 0.0
C275 C 0.24407 0.78107 0.46018 0.0
C276 C 0.22117 0.75696 0.47716 0.0
C277 C 0.2609 0.7575 0.48934 0.0
N278 N 0.23196 0.74215 0.49535 0.0
C279 C 0.30411 0.84944 0.46543 0.0
C280 C 0.36322 0.88237 0.48048 0.0
C281 C 0.34652 0.89602 0.4794 0.0
C282 C 0.31651 0.87916 0.47346 0.0
C283 C 0.34982 0.85238 0.4732 0.0
N284 N 0.32077 0.83648 0.4643 0.0
H285 H 0.28163 0.83763 0.45691 0.0
H286 H 0.36331 0.84246 0.47208 0.0
H287 H 0.24164 0.79468 0.43947 0.0
H288 H 0.27462 0.74822 0.49476 0.0
O289 O 0.28652 0.80714 0.39807 0.0
O290 O 0.28702 0.76566 0.40376 0.0
O291 O 0.32337 0.78466 0.47657 0.0
C292 C 0.27923 0.78159 0.38426 0.0
H293 H 0.4021 0.82004 0.38297 0.0
H294 H 0.19823 0.74873 0.47187 0.0
H295 H 0.38661 0.89503 0.48466 0.0
H296 H 0.3032 0.88936 0.47174 0.0
Co297 Co 0.50081 0.30997 0.94104 0.0
C298 C 0.49877 0.34858 0.88196 0.0
C299 C 0.53809 0.37026 0.91469 0.0
C300 C 0.53981 0.38873 0.88662 0.0
N301 N 0.51236 0.34504 0.91187 0.0
N302 N 0.5153 0.37505 0.86564 0.0
H303 H 0.47814 0.3315 0.87093 0.0
H304 H 0.55553 0.37455 0.93402 0.0
C305 C 0.5336 0.34081 0.01329 0.0
O306 O 0.51028 0.32705 0.03449 0.0
N307 N 0.49051 0.27506 0.9704 0.0
C308 C 0.47025 0.24716 0.96161 0.0
C309 C 0.47918 0.22855 0.97553 0.0
C310 C 0.51055 0.27257 0.99074 0.0
N311 N 0.50484 0.24475 0.99339 0.0
C312 C 0.44332 0.2953 0.96248 0.0
C313 C 0.45877 0.35137 0.98541 0.0
C314 C 0.42945 0.33105 0.97845 0.0
C315 C 0.42155 0.3024 0.96821 0.0
C316 C 0.47974 0.34359 0.97851 0.0
N317 N 0.47204 0.31609 0.96634 0.0
H318 H 0.43714 0.27393 0.95147 0.0
H319 H 0.50225 0.36064 0.97923 0.0
H320 H 0.45284 0.24087 0.94139 0.0
H321 H 0.5321 0.29086 0.99623 0.0
O322 O 0.47694 0.28606 0.89929 0.0
O323 O 0.52373 0.30066 0.90738 0.0
O324 O 0.53261 0.33533 0.9781 0.0
C325 C 0.50036 0.28699 0.88659 0.0
H326 H 0.55903 0.40943 0.8799 0.0
H327 H 0.47008 0.20577 0.96765 0.0
H328 H 0.46574 0.37392 0.99252 0.0
H329 H 0.39901 0.28621 0.96244 0.0
Co330 Co 0.18106 0.49743 0.43331 0.0
C331 C 0.13779 0.49539 0.37641 0.0
C332 C 0.16874 0.53835 0.39642 0.0
C333 C 0.15118 0.54108 0.37085 0.0
N334 N 0.15984 0.50982 0.40132 0.0
N335 N 0.13185 0.51422 0.35798 0.0
H336 H 0.12792 0.47232 0.36984 0.0
H337 H 0.18826 0.55615 0.40834 0.0
C338 C 0.16802 0.53633 0.4826 0.0
O339 O 0.14065 0.52173 0.47167 0.0
N340 N 0.20321 0.48656 0.4654 0.0
C341 C 0.20664 0.46297 0.46325 0.0
C342 C 0.23138 0.46896 0.48342 0.0
C343 C 0.22505 0.50591 0.48728 0.0
N344 N 0.24298 0.49618 0.49801 0.0
C345 C 0.13037 0.44118 0.43557 0.0
C346 C 0.10645 0.44846 0.50067 0.0
C347 C 0.08887 0.42501 0.47623 0.0
C348 C 0.10275 0.41965 0.44627 0.0
C349 C 0.13546 0.46805 0.49079 0.0
N350 N 0.14539 0.46649 0.45585 0.0
H351 H 0.13879 0.43752 0.40987 0.0
H352 H 0.14906 0.48522 0.51031 0.0
H353 H 0.19408 0.44422 0.44512 0.0
H354 H 0.2301 0.5283 0.49112 0.0
O355 O 0.18363 0.47469 0.39292 0.0
O356 O 0.21587 0.52136 0.40236 0.0
O357 O 0.18615 0.52865 0.47134 0.0
C358 C 0.20722 0.49774 0.38216 0.0
H359 H 0.15451 0.56147 0.35919 0.0
H360 H 0.2419 0.45591 0.48338 0.0
H361 H 0.09795 0.45286 0.52596 0.0
H362 H 0.09178 0.4001 0.42905 0.0
Co363 Co 0.67898 0.18922 0.9417 0.0
C364 C 0.63497 0.15838 0.88019 0.0
C365 C 0.61526 0.158 0.93315 0.0
C366 C 0.59359 0.14483 0.90676 0.0
N367 N 0.64138 0.16691 0.91662 0.0
N368 N 0.60598 0.14502 0.87368 0.0
H369 H 0.651 0.16292 0.85847 0.0
H370 H 0.61181 0.16128 0.96232 0.0
C371 C 0.6631 0.20996 0.01446 0.0
O372 O 0.68349 0.21083 0.0363 0.0
N373 N 0.71576 0.21165 0.96761 0.0
C374 C 0.73454 0.20392 0.98189 0.0
C375 C 0.75627 0.22765 1.00146 0.0
C376 C 0.72645 0.23967 0.97793 0.0
N377 N 0.75047 0.24966 0.99933 0.0
C378 C 0.68191 0.13782 0.94907 0.0
C379 C 0.63586 0.11049 0.99892 0.0
C380 C 0.64384 0.09373 0.97687 0.0
C381 C 0.66826 0.10769 0.9536 0.0
C382 C 0.65002 0.14068 0.99333 0.0
N383 N 0.67133 0.15356 0.96659 0.0
H384 H 0.69926 0.14797 0.92871 0.0
H385 H 0.64146 0.15267 0.00769 0.0
H386 H 0.73241 0.18256 0.97932 0.0
H387 H 0.71619 0.25231 0.97106 0.0
O388 O 0.69943 0.18768 0.89675 0.0
O389 O 0.68882 0.22223 0.90992 0.0
O390 O 0.65924 0.20031 0.98078 0.0
C391 C 0.70075 0.21209 0.8871 0.0
H392 H 0.57053 0.13647 0.91117 0.0
H393 H 0.77419 0.22838 0.01699 0.0
H394 H 0.61713 0.10015 0.01746 0.0
H395 H 0.67527 0.09517 0.9368 0.0
H396 H 0.41971 0.36283 0.03099 0.0
H397 H 0.39348 0.3241 0.91969 0.0
H398 H 0.36451 0.3486 0.91122 0.0
H399 H 0.35081 0.35708 0.05605 0.0
H400 H 0.36812 0.39135 0.08143 0.0
H401 H 0.38573 0.36986 0.07833 0.0
H402 H 0.43163 0.4148 0.05058 0.0
H403 H 0.41386 0.43619 0.05276 0.0
H404 H 0.42825 0.43204 0.0086 0.0
H405 H 0.33962 0.379 0.91461 0.0
H406 H 0.31639 0.408 0.93309 0.0
H407 H 0.36053 0.42684 0.04116 0.0
C408 C 0.40748 0.35919 0.00511 0.0
C409 C 0.40845 0.34145 0.97614 0.0
C410 C 0.39241 0.33722 0.94249 0.0
C411 C 0.37627 0.35131 0.93725 0.0
C412 C 0.37639 0.36937 0.96603 0.0
C413 C 0.39124 0.37295 0.99951 0.0
C414 C 0.38763 0.39309 0.02632 0.0
C415 C 0.37214 0.37687 0.06266 0.0
C416 C 0.4171 0.42066 0.03505 0.0
C417 C 0.36838 0.40025 0.00274 0.0
C418 C 0.36223 0.38663 0.96793 0.0
C419 C 0.34417 0.38967 0.94187 0.0
C420 C 0.33121 0.40619 0.95242 0.0
C421 C 0.33636 0.41903 0.98868 0.0
C422 C 0.35587 0.41674 0.01347 0.0
H423 H 0.93133 0.37798 0.5606 0.0
H424 H 0.89582 0.33949 0.45144 0.0
H425 H 0.94563 0.35533 0.42819 0.0
H426 H -0.00079 0.44133 0.52421 0.0
H427 H 0.02065 0.4407 0.56322 0.0
H428 H 0.98255 0.4286 0.56973 0.0
H429 H 0.97428 0.37897 0.59491 0.0
H430 H 0.01217 0.39064 0.5877 0.0
H431 H 0.98432 0.35728 0.56602 0.0
H432 H -0.00227 0.37422 0.41771 0.0
H433 H 0.05017 0.39641 0.41791 0.0
H434 H 0.05245 0.41868 0.537 0.0
C435 C 0.93436 0.37345 0.53166 0.0
C436 C 0.91036 0.35788 0.5074 0.0
C437 C 0.91439 0.35173 0.46991 0.0
C438 C 0.94241 0.36054 0.45667 0.0
C439 C 0.96574 0.37534 0.48151 0.0
C440 C 0.96214 0.38204 0.51805 0.0
C441 C -0.0091 0.39747 0.53906 0.0
C442 C -0.00121 0.42889 0.54967 0.0
C443 C -0.00963 0.38003 0.57398 0.0
C444 C 0.01107 0.39747 0.50892 0.0
C445 C -0.00397 0.38501 0.47593 0.0
C446 C 0.00979 0.38366 0.44351 0.0
C447 C 0.03995 0.39601 0.44439 0.0
C448 C 0.05633 0.40896 0.4779 0.0
C449 C 0.04126 0.40918 0.51077 0.0
H450 H 0.62802 0.05262 0.03204 0.0
H451 H 0.6164 0.0642 0.91366 0.0
H452 H 0.58651 0.01051 0.90534 0.0
H453 H 0.63808 0.99301 0.01946 0.0
H454 H 0.61908 0.97377 0.06147 0.0
H455 H 0.63619 0.01303 0.05958 0.0
H456 H 0.58709 0.00999 0.07595 0.0
H457 H 0.56991 0.97069 0.0786 0.0
H458 H 0.55523 0.98719 0.04776 0.0
H459 H 0.56303 0.95588 0.90845 0.0
H460 H 0.54521 0.90394 0.92386 0.0
H461 H 0.57092 0.92888 0.04065 0.0
C462 C 0.61865 0.0437 0.00466 0.0
C463 C 0.62445 0.06205 0.97339 0.0
C464 C 0.61226 0.05005 0.93773 0.0
C465 C 0.59521 0.01975 0.93281 0.0
C466 C 0.59063 0.00199 0.96391 0.0
C467 C 0.60174 0.01349 0.99923 0.0
C468 C 0.59544 0.98964 0.02729 0.0
C469 C 0.62389 0.99255 0.04285 0.0
C470 C 0.57573 0.98936 0.05928 0.0
C471 C 0.5796 0.9631 0.00207 0.0
C472 C 0.57693 0.97055 0.96567 0.0
C473 C 0.56458 0.94966 0.93703 0.0
C474 C 0.55457 0.92026 0.94602 0.0
C475 C 0.55701 0.91223 0.98333 0.0
C476 C 0.5694 0.9341 0.01156 0.0
H477 H 0.60817 0.55803 0.4768 0.0
H478 H 0.65114 0.58791 0.58563 0.0
H479 H 0.62493 0.61448 0.59635 0.0
H480 H 0.60711 0.61982 0.45024 0.0
H481 H 0.57104 0.60081 0.42997 0.0
H482 H 0.59244 0.58318 0.43188 0.0
H483 H 0.55058 0.53964 0.46797 0.0
H484 H 0.52919 0.55745 0.46654 0.0
H485 H 0.53696 0.54647 0.51108 0.0
H486 H 0.59809 0.64253 0.59189 0.0
H487 H 0.57296 0.6691 0.5713 0.0
H488 H 0.54239 0.61451 0.47111 0.0
C489 C 0.61182 0.56961 0.50326 0.0
C490 C 0.63234 0.57113 0.52984 0.0
C491 C 0.63648 0.58712 0.56386 0.0
C492 C 0.6212 0.60187 0.57074 0.0
C493 C 0.60112 0.59975 0.54397 0.0
C494 C 0.59611 0.58367 0.51116 0.0
C495 C 0.57402 0.5855 0.48634 0.0
C496 C 0.58694 0.59809 0.44733 0.0
C497 C 0.54603 0.55548 0.4828 0.0
C498 C 0.56881 0.60657 0.50924 0.0
C499 C 0.58429 0.61437 0.54265 0.0
C500 C 0.58536 0.63617 0.56618 0.0
C501 C 0.57108 0.65112 0.55438 0.0
C502 C 0.55626 0.64409 0.51943 0.0
C503 C 0.55398 0.62059 0.49776 0.0
H504 H 0.04396 0.67311 1.00004 0.0
H505 H 0.07794 0.61613 0.97153 0.0
H506 H 0.02789 0.57547 0.95952 0.0
H507 H 0.98456 0.6231 0.04971 0.0
H508 H 0.95933 0.63416 0.03357 0.0
H509 H -0.00219 0.66025 0.03456 0.0
H510 H -0.00256 0.67102 0.96334 0.0
H511 H 0.95868 0.64586 0.96242 0.0
H512 H 0.98217 0.64103 0.93013 0.0
H513 H 0.97395 0.53939 0.96058 0.0
H514 H 0.91995 0.51269 0.96172 0.0
H515 H 0.92139 0.59372 0.98734 0.0
C516 C 0.04084 0.65242 0.98965 0.0
C517 C 0.06464 0.64775 0.98604 0.0
C518 C 0.05992 0.62024 0.97345 0.0
C519 C 0.03158 0.59694 0.96708 0.0
C520 C 0.00838 0.6018 0.97284 0.0
C521 C 0.01274 0.62909 0.98267 0.0
C522 C 0.98409 0.62826 0.98838 0.0
C523 C 0.9813 0.63696 0.02896 0.0
C524 C 0.98038 0.64769 0.95933 0.0
C525 C 0.96296 0.59617 0.98108 0.0
C526 C 0.97737 0.58118 0.97256 0.0
C527 C 0.96241 0.551 0.9665 0.0
C528 C 0.93185 0.53599 0.96764 0.0
C529 C 0.91675 0.5513 0.97443 0.0
C530 C 0.93254 0.58164 0.9818 0.0
H531 H 0.34796 0.93361 0.53361 0.0
H532 H 0.37569 0.9296 0.41996 0.0
H533 H 0.39406 0.98264 0.41204 0.0
H534 H 0.32557 0.98652 0.5168 0.0
H535 H 0.3397 0.00575 0.56076 0.0
H536 H 0.32773 0.96727 0.55742 0.0
H537 H 0.37832 0.97704 0.58039 0.0
H538 H 0.39004 0.01534 0.58493 0.0
H539 H 0.41075 0.00397 0.55641 0.0
H540 H 0.40651 0.03503 0.41547 0.0
H541 H 0.42264 0.08583 0.43409 0.0
H542 H 0.39165 0.05641 0.54806 0.0
C543 C 0.35817 0.94413 0.5073 0.0
C544 C 0.36059 0.92799 0.47732 0.0
C545 C 0.37396 0.94203 0.44316 0.0
C546 C 0.3841 0.97192 0.43832 0.0
C547 C 0.38083 0.98726 0.4681 0.0
C548 C 0.36891 0.97408 0.50225 0.0
C549 C 0.36982 -0.00398 0.53051 0.0
C550 C 0.33886 0.98842 0.54204 0.0
C551 C 0.38835 -0.00177 0.56509 0.0
C552 C 0.38442 0.02362 0.50705 0.0
C553 C 0.3898 0.01792 0.47085 0.0
C554 C 0.40288 0.03988 0.44395 0.0
C555 C 0.41213 0.06874 0.45496 0.0
C556 C 0.40922 0.07552 0.49293 0.0
C557 C 0.39413 0.05233 0.51877 0.0
H558 H 0.21407 0.52582 0.07414 0.0
H559 H 0.21843 0.50839 0.95577 0.0
H560 H 0.20307 0.54425 0.93886 0.0
H561 H 0.15038 0.53694 0.06589 0.0
H562 H 0.16472 0.56484 0.10195 0.0
H563 H 0.17249 0.53535 0.10335 0.0
H564 H 0.22779 0.57366 0.1055 0.0
H565 H 0.22021 0.60319 0.10277 0.0
H566 H 0.24372 0.60038 0.06836 0.0
H567 H 0.18931 0.58436 0.93592 0.0
H568 H 0.17644 0.62301 0.94756 0.0
H569 H 0.18471 0.61504 0.06781 0.0
C570 C 0.21116 0.52919 0.04473 0.0
C571 C 0.21718 0.51446 0.01621 0.0
C572 C 0.21337 0.51926 0.97792 0.0
C573 C 0.2049 0.53969 0.96814 0.0
C574 C 0.20007 0.55468 0.99711 0.0
C575 C 0.20262 0.54923 0.03465 0.0
C576 C 0.19718 0.56865 0.0606 0.0
C577 C 0.16956 0.55036 0.08434 0.0
C578 C 0.22382 0.5876 0.08577 0.0
C579 C 0.19247 0.58687 0.03192 0.0
C580 C 0.19358 0.57824 0.9954 0.0
C581 C 0.18849 0.59132 0.9644 0.0
C582 C 0.18139 0.61326 0.97115 0.0
C583 C 0.18036 0.6222 0.00845 0.0
C584 C 0.18629 0.6091 0.03899 0.0
H585 H 0.58744 0.22057 0.46019 0.0
H586 H 0.56301 0.20311 0.57806 0.0
H587 H 0.60436 0.19519 0.58949 0.0
H588 H 0.61704 0.17228 0.44696 0.0
H589 H 0.64757 0.19838 0.41927 0.0
H590 H 0.61371 0.19862 0.41838 0.0
H591 H 0.64039 0.25329 0.43876 0.0
H592 H 0.67429 0.25332 0.43814 0.0
H593 H 0.66326 0.26444 0.48017 0.0
H594 H 0.64768 0.18898 0.58828 0.0
H595 H 0.6985 0.20046 0.58047 0.0
H596 H 0.69864 0.22834 0.46591 0.0
C597 C 0.59054 0.21473 0.48835 0.0
C598 C 0.57084 0.21049 0.5178 0.0
C599 C 0.57663 0.20445 0.55458 0.0
C600 C 0.60013 0.20003 0.56135 0.0
C601 C 0.61817 0.20274 0.53124 0.0
C602 C 0.61441 0.21116 0.49584 0.0
C603 C 0.63943 0.21697 0.46989 0.0
C604 C 0.62879 0.19526 0.43666 0.0
C605 C 0.65528 0.2489 0.45596 0.0
C606 C 0.65821 0.21119 0.49662 0.0
C607 C 0.64487 0.20178 0.53133 0.0
C608 C 0.65832 0.19617 0.56122 0.0
C609 C 0.68699 0.20231 0.55638 0.0
C610 C 0.70205 0.21479 0.52241 0.0
C611 C 0.68712 0.21804 0.49166 0.0
H612 H 0.47551 0.68067 0.03015 0.0
H613 H 0.45039 0.72064 0.94334 0.0
H614 H 0.40986 0.67192 0.92414 0.0
H615 H 0.44798 0.60474 0.98349 0.0
H616 H 0.43504 0.58759 0.02876 0.0
H617 H 0.46743 0.62321 0.02584 0.0
H618 H 0.44413 0.64219 0.07337 0.0
H619 H 0.41032 0.60803 0.07452 0.0
H620 H 0.41045 0.64094 0.06148 0.0
H621 H 0.36568 0.62231 0.92631 0.0
H622 H 0.3232 0.57569 0.94733 0.0
H623 H 0.37693 0.56849 0.03413 0.0
C624 C 0.46253 0.67859 0.00552 0.0
C625 C 0.46612 0.70369 0.9873 0.0
C626 C 0.44803 0.70114 0.95667 0.0
C627 C 0.42507 0.67364 0.94573 0.0
C628 C 0.42069 0.64914 0.96592 0.0
C629 C 0.4393 0.65133 0.99486 0.0
C630 C 0.42667 0.6234 0.01743 0.0
C631 C 0.4454 0.60887 0.01362 0.0
C632 C 0.42269 0.62901 0.05913 0.0
C633 C 0.39765 0.60565 0.99781 0.0
C634 C 0.39464 0.62055 0.96783 0.0
C635 C 0.3681 0.60998 0.94893 0.0
C636 C 0.34404 0.58361 0.96119 0.0
C637 C 0.34676 0.5684 0.99225 0.0
C638 C 0.37414 0.57936 0.00999 0.0
H639 H 0.77766 0.47676 0.53789 0.0
H640 H 0.72188 0.45604 0.44055 0.0
H641 H 0.73368 0.41797 0.4211 0.0
H642 H 0.83255 0.45698 0.50025 0.0
H643 H 0.8322 0.44029 0.54468 0.0
H644 H 0.8267 0.47129 0.54352 0.0
H645 H 0.77843 0.44103 0.58019 0.0
H646 H 0.78295 0.40962 0.58023 0.0
H647 H 0.75031 0.40675 0.56076 0.0
H648 H 0.74509 0.37629 0.41912 0.0
H649 H 0.75266 0.33495 0.43682 0.0
H650 H 0.79723 0.38203 0.53831 0.0
C651 C 0.76947 0.46531 0.51136 0.0
C652 C 0.74986 0.46973 0.48986 0.0
C653 C 0.7377 0.45326 0.45655 0.0
C654 C 0.74427 0.43166 0.44544 0.0
C655 C 0.76272 0.42669 0.46835 0.0
C656 C 0.77519 0.44323 0.50066 0.0
C657 C 0.78903 0.43007 0.52477 0.0
C658 C 0.82209 0.45091 0.52849 0.0
C659 C 0.77429 0.42136 0.56375 0.0
C660 C 0.7822 0.40343 0.50144 0.0
C661 C 0.76751 0.40187 0.46862 0.0
C662 C 0.75703 0.37759 0.44448 0.0
C663 C 0.76135 0.35423 0.45465 0.0
C664 C 0.77532 0.35526 0.48902 0.0
C665 C 0.78636 0.38049 0.51193 0.0
H666 H 0.38617 0.76087 0.96668 0.0
H667 H 0.42071 0.80512 0.07393 0.0
H668 H 0.37898 0.81206 0.08139 0.0
H669 H 0.35106 0.80577 0.9402 0.0
H670 H 0.31974 0.77468 0.91945 0.0
H671 H 0.35494 0.77721 0.91791 0.0
H672 H 0.33346 0.72657 0.95027 0.0
H673 H 0.29827 0.72374 0.95105 0.0
H674 H 0.3142 0.72035 0.99429 0.0
H675 H 0.33298 0.81147 0.08135 0.0
H676 H 0.28051 0.79515 0.07862 0.0
H677 H 0.27236 0.74862 0.97462 0.0
C678 C 0.38516 0.7725 0.99129 0.0
C679 C 0.40725 0.783 0.01917 0.0
C680 C 0.40467 0.79746 0.05152 0.0
C681 C 0.38101 0.80173 0.05607 0.0
C682 C 0.35985 0.79152 0.0281 0.0
C683 C 0.36133 0.77687 0.99652 0.0
C684 C 0.33369 0.7653 0.97314 0.0
C685 C 0.34025 0.78171 0.93543 0.0
C686 C 0.31905 0.73201 0.96688 0.0
C687 C 0.31568 0.77333 0.99852 0.0
C688 C 0.33193 0.78989 0.02895 0.0
C689 C 0.32007 0.79894 0.05737 0.0
C690 C 0.29039 0.78976 0.05557 0.0
C691 C 0.27288 0.77108 0.02624 0.0
C692 C 0.28573 0.76339 0.99683 0.0
H693 H 0.64002 0.39648 0.51239 0.0
H694 H 0.60471 0.43711 0.44047 0.0
H695 H 0.55944 0.38903 0.43199 0.0
H696 H 0.604 0.3221 0.46408 0.0
H697 H 0.59845 0.30411 0.50894 0.0
H698 H 0.62989 0.33988 0.50178 0.0
H699 H 0.6152 0.35913 0.56021 0.0
H700 H 0.5835 0.32375 0.56713 0.0
H701 H 0.57956 0.35551 0.5618 0.0
H702 H 0.5143 0.3387 0.44366 0.0
H703 H 0.47648 0.28993 0.4682 0.0
H704 H 0.54311 0.28377 0.53085 0.0
C705 C 0.62331 0.39483 0.49328 0.0
C706 C 0.6258 0.42003 0.47637 0.0
C707 C 0.60331 0.41767 0.45268 0.0
C708 C 0.5775 0.39053 0.44802 0.0
C709 C 0.57502 0.36617 0.46682 0.0
C710 C 0.59776 0.36804 0.4882 0.0
C711 C 0.58893 0.33993 0.50903 0.0
C712 C 0.60635 0.32566 0.4951 0.0
C713 C 0.59197 0.34491 0.55206 0.0
C714 C 0.55738 0.32229 0.49734 0.0
C715 C 0.54951 0.33748 0.4729 0.0
C716 C 0.52045 0.3263 0.46189 0.0
C717 C 0.49912 0.29886 0.47605 0.0
C718 C 0.50723 0.28319 0.50065 0.0
C719 C 0.53665 0.29511 0.51114 0.0
H720 H 0.33024 0.74039 0.51308 0.0
H721 H 0.37775 0.8316 0.54644 0.0
H722 H 0.42169 0.82786 0.55838 0.0
H723 H 0.37097 0.71567 0.58197 0.0
H724 H 0.36891 0.68957 0.54745 0.0
H725 H 0.3398 0.69769 0.55108 0.0
H726 H 0.34556 0.71059 0.48011 0.0
H727 H 0.37495 0.70319 0.47639 0.0
H728 H 0.38052 0.73847 0.46255 0.0
H729 H 0.4627 0.81767 0.54914 0.0
H730 H 0.49552 0.80023 0.52714 0.0
H731 H 0.42027 0.71399 0.50755 0.0
C732 C 0.3495 0.75904 0.52483 0.0
C733 C 0.35076 0.78613 0.52938 0.0
C734 C 0.37636 0.8105 0.54368 0.0
C735 C 0.40141 0.80858 0.55039 0.0
C736 C 0.40004 0.78186 0.54382 0.0
C737 C 0.37436 0.75718 0.53268 0.0
C738 C 0.37926 0.73196 0.52382 0.0
C739 C 0.36383 0.70727 0.55282 0.0
C740 C 0.36952 0.72043 0.48332 0.0
C741 C 0.41204 0.74708 0.5282 0.0
C742 C 0.42369 0.77569 0.5403 0.0
C743 C 0.45378 0.79498 0.54098 0.0
C744 C 0.47232 0.78489 0.52833 0.0
C745 C 0.46068 0.75578 0.51509 0.0
C746 C 0.43016 0.73652 0.51674 0.0
H747 H 0.70272 0.43383 0.02587 0.0
H748 H 0.69445 0.50765 0.9911 0.0
H749 H 0.64187 0.48025 0.00763 0.0
H750 H 0.64348 0.38075 0.988 0.0
H751 H 0.63231 0.35404 0.02522 0.0
H752 H 0.66991 0.38184 0.02098 0.0
H753 H 0.67019 0.39864 0.08964 0.0
H754 H 0.63245 0.37048 0.09444 0.0
H755 H 0.64344 0.40814 0.10424 0.0
H756 H 0.58947 0.44166 0.01546 0.0
H757 H 0.54215 0.39576 0.01224 0.0
H758 H 0.58423 0.34619 0.04022 0.0
C759 C 0.68991 0.44447 0.02322 0.0
C760 C 0.70232 0.47273 0.00753 0.0
C761 C 0.68522 0.48616 0.00372 0.0
C762 C 0.65543 0.47074 0.01308 0.0
C763 C 0.64345 0.44228 0.02713 0.0
C764 C 0.66036 0.42949 0.03291 0.0
C765 C 0.64183 0.3976 0.04404 0.0
C766 C 0.64719 0.3774 0.01796 0.0
C767 C 0.6473 0.39347 0.08555 0.0
C768 C 0.61159 0.39337 0.03904 0.0
C769 C 0.61302 0.41975 0.03121 0.0
C770 C 0.58809 0.4211 0.02261 0.0
C771 C 0.56124 0.39486 0.02084 0.0
C772 C 0.55958 0.3676 0.02682 0.0
C773 C 0.58492 0.3669 0.03686 0.0
H774 H 0.2107 0.58719 0.45384 0.0
H775 H 0.14882 0.55183 0.54564 0.0
H776 H 0.16009 0.60223 0.56258 0.0
H777 H 0.2621 0.66007 0.48604 0.0
H778 H 0.26262 0.67595 0.44093 0.0
H779 H 0.25547 0.63889 0.44342 0.0
H780 H 0.20724 0.62154 0.40636 0.0
H781 H 0.21385 0.65846 0.40483 0.0
H782 H 0.18041 0.62968 0.42468 0.0
H783 H 0.17745 0.658 0.56609 0.0
H784 H 0.19641 0.71108 0.55349 0.0
H785 H 0.23557 0.704 0.45008 0.0
C786 C 0.19978 0.58993 0.47784 0.0
C787 C 0.17907 0.56577 0.49864 0.0
C788 C 0.16513 0.57033 0.52977 0.0
C789 C 0.17128 0.59878 0.53936 0.0
C790 C 0.19031 0.622 0.51633 0.0
C791 C 0.20392 0.61757 0.48581 0.0
C792 C 0.21885 0.64428 0.46104 0.0
C793 C 0.25171 0.65545 0.45771 0.0
C794 C 0.20422 0.63812 0.42193 0.0
C795 C 0.21295 0.66503 0.48333 0.0
C796 C 0.19675 0.65219 0.51539 0.0
C797 C 0.18981 0.66809 0.54078 0.0
C798 C 0.20031 0.69798 0.53337 0.0
C799 C 0.21697 0.71109 0.50065 0.0
C800 C 0.2226 0.69415 0.47508 0.0
H801 H 0.61909 0.19971 0.06468 0.0
H802 H 0.67527 0.25842 0.97759 0.0
H803 H 0.63908 0.27267 0.96321 0.0
H804 H 0.55519 0.17295 0.02593 0.0
H805 H 0.53354 0.17523 0.06355 0.0
H806 H 0.56577 0.1735 0.0744 0.0
H807 H 0.58782 0.22191 0.11239 0.0
H808 H 0.55488 0.223 0.10363 0.0
H809 H 0.5898 0.25383 0.09118 0.0
H810 H 0.59239 0.26606 0.94338 0.0
H811 H 0.54382 0.26102 0.93843 0.0
H812 H 0.51927 0.21609 0.04583 0.0
C813 C 0.62454 0.21711 0.04461 0.0
C814 C 0.64984 0.22793 0.0221 0.0
C815 C 0.65609 0.25008 0.99525 0.0
C816 C 0.63549 0.25805 0.9865 0.0
C817 C 0.60948 0.24482 0.00638 0.0
C818 C 0.60465 0.22665 0.03679 0.0
C819 C 0.57443 0.21606 0.05314 0.0
C820 C 0.55617 0.18243 0.05429 0.0
C821 C 0.57687 0.2295 0.09242 0.0
C822 C 0.56234 0.22866 0.02462 0.0
C823 C 0.58302 0.24463 0.99759 0.0
C824 C 0.57648 0.25517 0.96546 0.0
C825 C 0.5488 0.25173 0.96253 0.0
C826 C 0.52843 0.23896 0.99219 0.0
C827 C 0.53477 0.22631 0.02313 0.0
H828 H 0.39633 0.63496 0.46705 0.0
H829 H 0.43204 0.59887 0.54626 0.0
H830 H 0.382 0.56055 0.56391 0.0
H831 H 0.32711 0.61613 0.51654 0.0
H832 H 0.30738 0.60619 0.47253 0.0
H833 H 0.34523 0.63445 0.47362 0.0
H834 H 0.35638 0.60612 0.42262 0.0
H835 H 0.31882 0.5775 0.42199 0.0
H836 H 0.34697 0.56878 0.43143 0.0
H837 H 0.32804 0.52124 0.5644 0.0
H838 H 0.27565 0.48681 0.54935 0.0
H839 H 0.27829 0.54834 0.46684 0.0
C840 C 0.39365 0.61983 0.48936 0.0
C841 C 0.41787 0.61997 0.50569 0.0
C842 C 0.41356 0.59912 0.53367 0.0
C843 C 0.38528 0.57734 0.54385 0.0
C844 C 0.36174 0.57672 0.52548 0.0
C845 C 0.36576 0.59765 0.49897 0.0
C846 C 0.33779 0.58988 0.47876 0.0
C847 C 0.32886 0.61304 0.48582 0.0
C848 C 0.34015 0.5853 0.43622 0.0
C849 C 0.3174 0.56138 0.49793 0.0
C850 C 0.33129 0.55397 0.52494 0.0
C851 C 0.31682 0.52714 0.54384 0.0
C852 C 0.2873 0.50766 0.53503 0.0
C853 C 0.27299 0.51537 0.50769 0.0
C854 C 0.28843 0.54241 0.48893 0.0
H855 H 0.72561 0.27287 0.04169 0.0
H856 H 0.80717 0.2904 0.99225 0.0
H857 H 0.82684 0.34352 1.00091 0.0
H858 H 0.71624 0.31794 0.99718 0.0
H859 H 0.70229 0.33259 0.03213 0.0
H860 H 0.69828 0.29722 0.03896 0.0
H861 H 0.72463 0.31171 0.10258 0.0
H862 H 0.72754 0.3471 0.09818 0.0
H863 H 0.75972 0.34459 0.10661 0.0
H864 H 0.82981 0.39033 0.99173 0.0
H865 H 0.81986 0.42926 0.97486 0.0
H866 H 0.73723 0.38452 0.03389 0.0
C867 C 0.74824 0.28805 0.0351 0.0
C868 C 0.76513 0.27799 0.01663 0.0
C869 C 0.7943 0.29793 0.00707 0.0
C870 C 0.8055 0.32808 0.01183 0.0
C871 C 0.78733 0.33758 0.02701 0.0
C872 C 0.75959 0.31812 0.03991 0.0
C873 C 0.74268 0.33359 0.04884 0.0
C874 C 0.71318 0.31952 0.02794 0.0
C875 C 0.73841 0.3343 0.0916 0.0
C876 C 0.7637 0.36393 0.03418 0.0
C877 C 0.78966 0.36592 0.02287 0.0
C878 C 0.81032 0.38963 0.00221 0.0
C879 C 0.80432 0.41164 0.99254 0.0
C880 C 0.77809 0.41027 0.00409 0.0
C881 C 0.75786 0.38649 0.02601 0.0
H882 H 0.23533 0.53848 0.32507 0.0
H883 H 0.21146 0.45111 0.36274 0.0
H884 H 0.22791 0.44151 0.3025 0.0
H885 H 0.21179 0.51827 0.23027 0.0
H886 H 0.24107 0.55061 0.20883 0.0
H887 H 0.22965 0.5523 0.25615 0.0
H888 H 0.28241 0.57215 0.2804 0.0
H889 H 0.29404 0.5708 0.23305 0.0
H890 H 0.30076 0.55194 0.27051 0.0
H891 H 0.24238 0.43898 0.23836 0.0
H892 H 0.25955 0.44526 0.17309 0.0
H893 H 0.27607 0.53465 0.17382 0.0
C894 C 0.23452 0.51777 0.32088 0.0
C895 C 0.22246 0.4956 0.34865 0.0
C896 C 0.2208 0.46839 0.34188 0.0
C897 C 0.22999 0.46268 0.30772 0.0
C898 C 0.24088 0.48442 0.28045 0.0
C899 C 0.24363 0.51157 0.28648 0.0
C900 C 0.25533 0.5304 0.25128 0.0
C901 C 0.23314 0.53837 0.23572 0.0
C902 C 0.2849 0.55796 0.2593 0.0
C903 C 0.25863 0.50946 0.22491 0.0
C904 C 0.24984 0.48304 0.24254 0.0
C905 C 0.24972 0.45967 0.22427 0.0
C906 C 0.25943 0.46347 0.18706 0.0
C907 C 0.26938 0.49051 0.16837 0.0
C908 C 0.2688 0.51381 0.18751 0.0
H909 H 0.71502 0.19126 0.82357 0.0
H910 H 0.71642 0.26799 0.87063 0.0
H911 H 0.7352 0.29396 0.81078 0.0
H912 H 0.78145 0.23136 0.76582 0.0
H913 H 0.7668 0.2059 0.72695 0.0
H914 H 0.75505 0.19341 0.77439 0.0
H915 H 0.70136 0.17297 0.75404 0.0
H916 H 0.71296 0.18561 0.70664 0.0
H917 H 0.6909 0.19702 0.732 0.0
H918 H 0.7495 0.3105 0.74624 0.0
H919 H 0.76265 0.31857 0.67901 0.0
H920 H 0.75475 0.23289 0.67152 0.0
C921 C 0.71976 0.21367 0.82132 0.0
C922 C 0.71424 0.22763 0.85172 0.0
C923 C 0.72033 0.25682 0.84768 0.0
C924 C 0.73106 0.27181 0.81381 0.0
C925 C 0.73567 0.25737 0.78417 0.0
C926 C 0.73054 0.2291 0.7874 0.0
C927 C 0.73661 0.21869 0.75026 0.0
C928 C 0.76147 0.21195 0.75463 0.0
C929 C 0.7088 0.19199 0.73483 0.0
C930 C 0.74577 0.24555 0.72587 0.0
C931 C 0.74479 0.2674 0.74624 0.0
C932 C 0.75068 0.29375 0.73001 0.0
C933 C 0.75794 0.29806 0.69186 0.0
C934 C 0.75965 0.27637 0.67053 0.0
C935 C 0.75372 0.24981 0.68761 0.0
H936 H 0.45829 0.7352 0.16602 0.0
H937 H 0.54623 0.81011 0.16496 0.0
H938 H 0.55309 0.8 0.23079 0.0
H939 H 0.43956 0.74291 0.25889 0.0
H940 H 0.4202 0.70436 0.26979 0.0
H941 H 0.42231 0.7162 0.22176 0.0
H942 H 0.44451 0.68439 0.20135 0.0
H943 H 0.44225 0.67219 0.24928 0.0
H944 H 0.47668 0.68904 0.22491 0.0
H945 H 0.55013 0.7834 0.29665 0.0
H946 H 0.53864 0.75924 0.35865 0.0
H947 H 0.45249 0.69478 0.31852 0.0
C948 C 0.47909 0.74923 0.17955 0.0
C949 C 0.50177 0.77343 0.16038 0.0
C950 C 0.52866 0.79132 0.17897 0.0
C951 C 0.53273 0.78584 0.21643 0.0
C952 C 0.5098 0.76218 0.23475 0.0
C953 C 0.48366 0.74384 0.2169 0.0
C954 C 0.46271 0.71981 0.24325 0.0
C955 C 0.43453 0.72091 0.24874 0.0
C956 C 0.45615 0.68957 0.22884 0.0
C957 C 0.4808 0.72825 0.27909 0.0
C958 C 0.508 0.75259 0.27325 0.0
C959 C 0.52894 0.76433 0.3016 0.0
C960 C 0.52217 0.75052 0.33672 0.0
C961 C 0.49459 0.72544 0.34339 0.0
C962 C 0.47349 0.71432 0.31433 0.0
H963 H 0.68352 0.44455 0.67232 0.0
H964 H 0.73153 0.53839 0.65246 0.0
H965 H 0.75328 0.54657 0.71551 0.0
H966 H 0.66827 0.44926 0.77075 0.0
H967 H 0.67302 0.41936 0.78584 0.0
H968 H 0.661 0.41992 0.73846 0.0
H969 H 0.70411 0.41566 0.7115 0.0
H970 H 0.71603 0.41469 0.75877 0.0
H971 H 0.74082 0.44178 0.72594 0.0
H972 H 0.76923 0.54569 0.77978 0.0
H973 H 0.78217 0.53552 0.84199 0.0
H974 H 0.72503 0.44216 0.82352 0.0
C975 C 0.69883 0.46672 0.68124 0.0
C976 C 0.70573 0.49085 0.65743 0.0
C977 C 0.7257 0.51957 0.67018 0.0
C978 C 0.7382 0.5245 0.70604 0.0
C979 C 0.73054 0.5005 0.72912 0.0
C980 C 0.71158 0.47214 0.7174 0.0
C981 C 0.70745 0.45052 0.74845 0.0
C982 C 0.67553 0.43377 0.76165 0.0
C983 C 0.71772 0.42942 0.73538 0.0
C984 C 0.72733 0.47127 0.77902 0.0
C985 C 0.7401 0.49997 0.76706 0.0
C986 C 0.75944 0.52332 0.78953 0.0
C987 C 0.76662 0.51725 0.82493 0.0
C988 C 0.75466 0.48804 0.83774 0.0
C989 C 0.73431 0.46471 0.81467 0.0
H990 H 0.26495 0.73211 0.34044 0.0
H991 H 0.25932 0.81138 0.3441 0.0
H992 H 0.23649 0.79999 0.28165 0.0
H993 H 0.28221 0.73567 0.24208 0.0
H994 H 0.26017 0.69683 0.23352 0.0
H995 H 0.27533 0.7101 0.27969 0.0
H996 H 0.22372 0.68155 0.30902 0.0
H997 H 0.20844 0.668 0.26295 0.0
H998 H 0.1952 0.68731 0.29115 0.0
H999 H 0.21418 0.78101 0.21978 0.0
H1000 H 0.19382 0.755 0.15977 0.0
H1001 H 0.21463 0.68845 0.19228 0.0
C1002 C 0.25865 0.74686 0.32815 0.0
C1003 C 0.26392 0.77262 0.3474 0.0
C1004 C 0.25554 0.79148 0.33018 0.0
C1005 C 0.24252 0.78525 0.29458 0.0
C1006 C 0.23785 0.75999 0.27623 0.0
C1007 C 0.24552 0.74096 0.29221 0.0
C1008 C 0.23808 0.71546 0.26562 0.0
C1009 C 0.2656 0.71448 0.25457 0.0
C1010 C 0.21499 0.68636 0.28324 0.0
C1011 C 0.22559 0.72359 0.23219 0.0
C1012 C 0.22541 0.74921 0.23937 0.0
C1013 C 0.2142 0.76093 0.21371 0.0
C1014 C 0.20261 0.74598 0.17978 0.0
C1015 C 0.20272 0.71984 0.17146 0.0
C1016 C 0.21458 0.70859 0.19788 0.0
H1017 H 0.46398 0.18836 0.6986 0.0
H1018 H 0.52552 0.26913 0.64262 0.0
H1019 H 0.53213 0.2966 0.70135 0.0
H1020 H 0.43118 0.2206 0.76078 0.0
H1021 H 0.42832 0.19814 0.80057 0.0
H1022 H 0.42625 0.1846 0.7533 0.0
H1023 H 0.46849 0.17521 0.76834 0.0
H1024 H 0.47108 0.18904 0.81552 0.0
H1025 H 0.50271 0.20488 0.78542 0.0
H1026 H 0.53597 0.31511 0.76566 0.0
H1027 H 0.53435 0.32453 0.83352 0.0
H1028 H 0.4694 0.2332 0.8505 0.0
C1029 C 0.47841 0.21188 0.69876 0.0
C1030 C 0.49434 0.22667 0.66611 0.0
C1031 C 0.51335 0.25736 0.66739 0.0
C1032 C 0.51719 0.2732 0.70058 0.0
C1033 C 0.50194 0.25807 0.73253 0.0
C1034 C 0.48274 0.22818 0.73211 0.0
C1035 C 0.47028 0.21753 0.77134 0.0
C1036 C 0.43703 0.20445 0.77149 0.0
C1037 C 0.47865 0.19536 0.78602 0.0
C1038 C 0.4857 0.2461 0.79359 0.0
C1039 C 0.50394 0.26907 0.77039 0.0
C1040 C 0.5217 0.29738 0.78415 0.0
C1041 C 0.52085 0.30248 0.82271 0.0
C1042 C 0.50206 0.27956 0.847 0.0
C1043 C 0.48401 0.25102 0.83231 0.0
H1044 H 0.45064 0.56587 0.33112 0.0
H1045 H 0.49483 0.6564 0.29519 0.0
H1046 H 0.48157 0.64028 0.22925 0.0
H1047 H 0.46013 0.53179 0.23984 0.0
H1048 H 0.42371 0.50101 0.24479 0.0
H1049 H 0.44527 0.51882 0.28613 0.0
H1050 H 0.40361 0.52629 0.3109 0.0
H1051 H 0.38231 0.50961 0.2693 0.0
H1052 H 0.39112 0.54613 0.28257 0.0
H1053 H 0.45443 0.61534 0.17048 0.0
H1054 H 0.41779 0.5832 0.12307 0.0
H1055 H 0.38647 0.50969 0.19891 0.0
C1056 C 0.45871 0.58218 0.30904 0.0
C1057 C 0.47381 0.61232 0.31818 0.0
C1058 C 0.48374 0.63321 0.28882 0.0
C1059 C 0.47606 0.6242 0.25125 0.0
C1060 C 0.45864 0.59429 0.24368 0.0
C1061 C 0.45048 0.57351 0.27174 0.0
C1062 C 0.42763 0.54337 0.25788 0.0
C1063 C 0.43993 0.52252 0.2571 0.0
C1064 C 0.39953 0.53065 0.28157 0.0
C1065 C 0.42274 0.55076 0.21843 0.0
C1066 C 0.4415 0.58004 0.21036 0.0
C1067 C 0.44002 0.59233 0.17632 0.0
C1068 C 0.41903 0.57417 0.14982 0.0
C1069 C 0.39937 0.54443 0.15798 0.0
C1070 C 0.4013 0.53252 0.19251 0.0
H1071 H 0.86269 0.42493 0.83783 0.0
H1072 H 0.86173 0.50253 0.80206 0.0
H1073 H 0.88146 0.49984 0.74044 0.0
H1074 H 0.92332 0.43086 0.76489 0.0
H1075 H 0.90227 0.39167 0.75901 0.0
H1076 H 0.90449 0.40788 0.80463 0.0
H1077 H 0.84814 0.38089 0.80758 0.0
H1078 H 0.84582 0.36498 0.76241 0.0
H1079 H 0.8282 0.38618 0.77016 0.0
H1080 H 0.8803 0.479 0.67953 0.0
H1081 H 0.85731 0.44289 0.62842 0.0
H1082 H 0.85554 0.37568 0.69892 0.0
C1083 C 0.86813 0.44211 0.81745 0.0
C1084 C 0.86035 0.46363 0.82431 0.0
C1085 C 0.86772 0.48596 0.79751 0.0
C1086 C 0.87895 0.4845 0.7623 0.0
C1087 C 0.88279 0.46066 0.75447 0.0
C1088 C 0.87817 0.44006 0.78178 0.0
C1089 C 0.87591 0.41268 0.76443 0.0
C1090 C 0.90313 0.41068 0.77379 0.0
C1091 C 0.84785 0.38461 0.77683 0.0
C1092 C 0.87534 0.41917 0.723 0.0
C1093 C 0.88134 0.44772 0.71778 0.0
C1094 C 0.87667 0.45708 0.68309 0.0
C1095 C 0.86355 0.43645 0.65416 0.0
C1096 C 0.85507 0.4068 0.6601 0.0
C1097 C 0.86288 0.39853 0.69379 0.0
H1098 H 0.41856 0.82171 0.16444 0.0
H1099 H 0.50374 0.89645 0.18691 0.0
H1100 H 0.48484 0.90728 0.24519 0.0
H1101 H 0.3757 0.85499 0.20177 0.0
H1102 H 0.34792 0.82065 0.22108 0.0
H1103 H 0.36734 0.82101 0.17916 0.0
H1104 H 0.38259 0.78669 0.21135 0.0
H1105 H 0.36285 0.78592 0.25287 0.0
H1106 H 0.40096 0.79707 0.25632 0.0
H1107 H 0.45868 0.90511 0.30463 0.0
H1108 H 0.42744 0.88938 0.36161 0.0
H1109 H 0.3582 0.81844 0.29863 0.0
C1110 C 0.43294 0.84042 0.18174 0.0
C1111 C 0.4625 0.85817 0.17218 0.0
C1112 C 0.48105 0.88267 0.1946 0.0
C1113 C 0.47043 0.88905 0.22729 0.0
C1114 C 0.44105 0.87103 0.23632 0.0
C1115 C 0.4225 0.8473 0.21405 0.0
C1116 C 0.3925 0.8301 0.23142 0.0
C1117 C 0.36951 0.83181 0.20688 0.0
C1118 C 0.38427 0.79807 0.23843 0.0
C1119 C 0.39749 0.84687 0.26793 0.0
C1120 C 0.42551 0.87072 0.26996 0.0
C1121 C 0.43641 0.88716 0.30294 0.0
C1122 C 0.4186 0.87829 0.33503 0.0
C1123 C 0.39031 0.85352 0.33359 0.0
C1124 C 0.3793 0.8383 0.29944 0.0
H1125 H 0.53981 0.43011 0.83819 0.0
H1126 H 0.4873 0.3385 0.80678 0.0
H1127 H 0.49741 0.35178 0.74013 0.0
H1128 H 0.52601 0.46184 0.74723 0.0
H1129 H 0.56322 0.49163 0.74792 0.0
H1130 H 0.54425 0.47642 0.7916 0.0
H1131 H 0.58602 0.46767 0.8122 0.0
H1132 H 0.6046 0.48165 0.76822 0.0
H1133 H 0.59513 0.44532 0.78315 0.0
H1134 H 0.52251 0.37214 0.68061 0.0
H1135 H 0.5561 0.39993 0.62894 0.0
H1136 H 0.59511 0.47853 0.69766 0.0
C1137 C 0.52948 0.41304 0.81711 0.0
C1138 C 0.51298 0.38328 0.82777 0.0
C1139 C 0.49973 0.36146 0.79951 0.0
C1140 C 0.50552 0.36881 0.76143 0.0
C1141 C 0.52419 0.39806 0.75214 0.0
C1142 C 0.53541 0.42004 0.77901 0.0
C1143 C 0.55818 0.44903 0.76221 0.0
C1144 C 0.54725 0.47103 0.76223 0.0
C1145 C 0.58771 0.46162 0.78267 0.0
C1146 C 0.55972 0.43932 0.72253 0.0
C1147 C 0.53935 0.41 0.7172 0.0
C1148 C 0.5379 0.39529 0.68401 0.0
C1149 C 0.55718 0.41112 0.65505 0.0
C1150 C 0.57786 0.44124 0.65957 0.0
C1151 C 0.57937 0.45551 0.69379 0.0
H1152 H 0.15786 0.59101 0.16848 0.0
H1153 H 0.07268 0.58234 0.17995 0.0
H1154 H 0.06124 0.54762 0.23285 0.0
H1155 H 0.13452 0.51435 0.18871 0.0
H1156 H 0.16704 0.52306 0.21484 0.0
H1157 H 0.16866 0.54661 0.1771 0.0
H1158 H 0.19023 0.59151 0.22181 0.0
H1159 H 0.19011 0.56863 0.25925 0.0
H1160 H 0.17183 0.58931 0.26547 0.0
H1161 H 0.06242 0.51985 0.28972 0.0
H1162 H 0.07705 0.50275 0.34616 0.0
H1163 H 0.15781 0.52305 0.29198 0.0
C1164 C 0.13685 0.58165 0.18225 0.0
C1165 C 0.11612 0.58923 0.17071 0.0
C1166 C 0.08869 0.57657 0.18877 0.0
C1167 C 0.082 0.55678 0.21852 0.0
C1168 C 0.10274 0.54931 0.229 0.0
C1169 C 0.12956 0.56127 0.21127 0.0
C1170 C 0.14848 0.55064 0.22889 0.0
C1171 C 0.15505 0.53259 0.20068 0.0
C1172 C 0.17681 0.57656 0.24481 0.0
C1173 C 0.1285 0.53152 0.25998 0.0
C1174 C 0.10217 0.53101 0.25971 0.0
C1175 C 0.0824 0.51903 0.28947 0.0
C1176 C 0.09056 0.50891 0.32116 0.0
C1177 C 0.11792 0.51051 0.32237 0.0
C1178 C 0.13612 0.52015 0.29046 0.0
H1179 H 0.57223 0.16482 0.84573 0.0
H1180 H 0.60737 0.1083 0.82164 0.0
H1181 H 0.58159 0.09502 0.75984 0.0
H1182 H 0.50145 0.12132 0.79821 0.0
H1183 H 0.50131 0.15294 0.77966 0.0
H1184 H 0.51917 0.15547 0.82391 0.0
H1185 H 0.56772 0.19846 0.79936 0.0
H1186 H 0.54999 0.1972 0.75564 0.0
H1187 H 0.58254 0.19448 0.75545 0.0
H1188 H 0.55388 0.09031 0.69979 0.0
H1189 H 0.53253 0.09899 0.64334 0.0
H1190 H 0.51895 0.16194 0.70624 0.0
C1191 C 0.574 0.14929 0.82753 0.0
C1192 C 0.59136 0.13724 0.83803 0.0
C1193 C 0.59403 0.11758 0.8136 0.0
C1194 C 0.57929 0.1098 0.77885 0.0
C1195 C 0.56234 0.12222 0.76912 0.0
C1196 C 0.55995 0.14182 0.79264 0.0
C1197 C 0.54317 0.15461 0.77412 0.0
C1198 C 0.51458 0.14553 0.79526 0.0
C1199 C 0.56199 0.18816 0.77094 0.0
C1200 C 0.53734 0.13993 0.73592 0.0
C1201 C 0.5478 0.12072 0.73393 0.0
C1202 C 0.54575 0.10543 0.701 0.0
C1203 C 0.53375 0.11077 0.66886 0.0
C1204 C 0.52452 0.1318 0.66952 0.0
C1205 C 0.52562 0.14576 0.7041 0.0
loop_
_geom_bond_atom_site_label_1
_geom_bond_atom_site_label_2
_geom_bond_distance
_geom_bond_site_symmetry_2
_ccdc_geom_bond_type
Co0 N4 2.148 . S
Co0 N10 2.128 . S
Co0 N20 2.194 . S
Co0 O25 2.351 . S
Co0 O26 2.155 . S
Co0 O27 2.096 . S
C1 N4 1.301 . S
C1 N5 1.328 . S
C1 H6 0.930 . S
C2 C3 1.333 . S
C2 N4 1.317 . S
C2 H7 0.930 . S
C3 C2 1.333 . S
C3 N5 1.350 . S
C3 H29 0.931 . S
N4 Co0 2.148 . S
N4 C1 1.301 . S
N4 C2 1.317 . S
N5 C1 1.328 . S
N5 C3 1.350 . S
H6 C1 0.930 . S
H7 C2 0.930 . S
C8 O9 1.224 . S
C8 O27 1.247 . S
O9 C8 1.224 . S
N10 Co0 2.128 . S
N10 C11 1.355 . S
N10 C13 1.311 . S
C11 N10 1.355 . S
C11 C12 1.363 1_554 S
C11 H23 0.929 . S
C12 C11 1.363 1_556 S
C12 N14 1.375 . S
C12 H30 0.931 . S
C13 N10 1.311 . S
C13 N14 1.347 1_554 S
C13 H24 0.929 . S
N14 C12 1.375 . S
N14 C13 1.347 1_556 S
C15 C18 1.365 . S
C15 N20 1.328 . S
C15 H21 0.929 . S
C16 C17 1.362 1_556 S
C16 C19 1.378 1_556 S
C16 H31 0.929 . S
C17 C16 1.362 1_554 S
C17 C18 1.366 . S
C18 C15 1.365 . S
C18 C17 1.366 . S
C18 H32 0.930 . S
C19 C16 1.378 1_554 S
C19 N20 1.315 . S
C19 H22 0.930 . S
N20 Co0 2.194 . S
N20 C15 1.328 . S
N20 C19 1.315 . S
H21 C15 0.929 . S
H22 C19 0.930 . S
H23 C11 0.929 . S
H24 C13 0.929 . S
O25 Co0 2.351 . S
O25 C28 1.244 . S
O26 Co0 2.155 . S
O26 C28 1.240 . S
O27 Co0 2.096 . S
O27 C8 1.247 . S
C28 O25 1.244 . S
C28 O26 1.240 . S
H29 C3 0.931 . S
H30 C12 0.931 . S
H31 C16 0.929 . S
H32 C18 0.930 . S
Co33 N37 2.148 . S
Co33 N43 2.128 . S
Co33 N53 2.194 . S
Co33 O58 2.351 . S
Co33 O59 2.155 . S
Co33 O60 2.096 . S
C34 N37 1.301 . S
C34 N38 1.328 . S
C34 H39 0.930 . S
C35 C36 1.333 . S
C35 N37 1.317 . S
C35 H40 0.930 . S
C36 C35 1.333 . S
C36 N38 1.350 . S
C36 H62 0.931 . S
N37 Co33 2.148 . S
N37 C34 1.301 . S
N37 C35 1.317 . S
N38 C34 1.328 . S
N38 C36 1.350 . S
H39 C34 0.930 . S
H40 C35 0.930 . S
C41 O42 1.224 . S
C41 O60 1.247 . S
O42 C41 1.224 . S
N43 Co33 2.128 . S
N43 C44 1.355 . S
N43 C46 1.311 . S
C44 N43 1.355 . S
C44 C45 1.363 . S
C44 H56 0.929 . S
C45 C44 1.363 . S
C45 N47 1.375 . S
C45 H63 0.931 . S
C46 N43 1.311 . S
C46 N47 1.347 . S
C46 H57 0.929 . S
N47 C45 1.375 . S
N47 C46 1.347 . S
C48 C51 1.365 . S
C48 N53 1.328 . S
C48 H54 0.929 . S
C49 C50 1.362 . S
C49 C52 1.378 . S
C49 H64 0.929 . S
C50 C49 1.362 . S
C50 C51 1.366 . S
C51 C48 1.365 . S
C51 C50 1.366 . S
C51 H65 0.930 . S
C52 C49 1.378 . S
C52 N53 1.315 . S
C52 H55 0.930 . S
N53 Co33 2.194 . S
N53 C48 1.328 . S
N53 C52 1.315 . S
H54 C48 0.929 . S
H55 C52 0.930 . S
H56 C44 0.929 . S
H57 C46 0.929 . S
O58 Co33 2.351 . S
O58 C61 1.244 . S
O59 Co33 2.155 . S
O59 C61 1.240 . S
O60 Co33 2.096 . S
O60 C41 1.247 . S
C61 O58 1.244 . S
C61 O59 1.240 . S
H62 C36 0.931 . S
H63 C45 0.931 . S
H64 C49 0.929 . S
H65 C51 0.930 . S
Co66 N70 2.148 . S
Co66 N76 2.128 . S
Co66 N86 2.194 . S
Co66 O91 2.351 . S
Co66 O92 2.155 . S
Co66 O93 2.096 . S
C67 N70 1.301 . S
C67 N71 1.328 . S
C67 H72 0.930 . S
C68 C69 1.333 . S
C68 N70 1.317 . S
C68 H73 0.930 . S
C69 C68 1.333 . S
C69 N71 1.350 . S
C69 H95 0.931 . S
N70 Co66 2.148 . S
N70 C67 1.301 . S
N70 C68 1.317 . S
N71 C67 1.328 . S
N71 C69 1.350 . S
H72 C67 0.930 . S
H73 C68 0.930 . S
C74 O75 1.224 . S
C74 O93 1.247 . S
O75 C74 1.224 . S
N76 Co66 2.128 . S
N76 C77 1.355 . S
N76 C79 1.311 . S
C77 N76 1.355 . S
C77 C78 1.363 1_554 S
C77 H89 0.929 . S
C78 C77 1.363 1_556 S
C78 N80 1.375 . S
C78 H96 0.931 . S
C79 N76 1.311 . S
C79 N80 1.347 1_554 S
C79 H90 0.929 . S
N80 C78 1.375 . S
N80 C79 1.347 1_556 S
C81 C84 1.365 . S
C81 N86 1.328 . S
C81 H87 0.929 . S
C82 C83 1.362 1_556 S
C82 C85 1.378 1_556 S
C82 H97 0.929 . S
C83 C82 1.362 1_554 S
C83 C84 1.366 . S
C84 C81 1.365 . S
C84 C83 1.366 . S
C84 H98 0.930 . S
C85 C82 1.378 1_554 S
C85 N86 1.315 . S
C85 H88 0.930 . S
N86 Co66 2.194 . S
N86 C81 1.328 . S
N86 C85 1.315 . S
H87 C81 0.929 . S
H88 C85 0.930 . S
H89 C77 0.929 . S
H90 C79 0.929 . S
O91 Co66 2.351 . S
O91 C94 1.244 . S
O92 Co66 2.155 . S
O92 C94 1.240 . S
O93 Co66 2.096 . S
O93 C74 1.247 . S
C94 O91 1.244 . S
C94 O92 1.240 . S
H95 C69 0.931 . S
H96 C78 0.931 . S
H97 C82 0.929 . S
H98 C84 0.930 . S
Co99 N103 2.148 . S
Co99 N109 2.128 . S
Co99 N119 2.194 . S
Co99 O124 2.351 . S
Co99 O125 2.155 . S
Co99 O126 2.096 . S
C100 N103 1.301 . S
C100 N104 1.328 . S
C100 H105 0.930 . S
C101 C102 1.333 . S
C101 N103 1.317 . S
C101 H106 0.930 . S
C102 C101 1.333 . S
C102 N104 1.350 . S
C102 H128 0.931 . S
N103 Co99 2.148 . S
N103 C100 1.301 . S
N103 C101 1.317 . S
N104 C100 1.328 . S
N104 C102 1.350 . S
H105 C100 0.930 . S
H106 C101 0.930 . S
C107 O108 1.224 . S
C107 O126 1.247 . S
O108 C107 1.224 . S
N109 Co99 2.128 . S
N109 C110 1.355 . S
N109 C112 1.311 . S
C110 N109 1.355 . S
C110 C111 1.363 . S
C110 H122 0.929 . S
C111 C110 1.363 . S
C111 N113 1.375 . S
C111 H129 0.931 . S
C112 N109 1.311 . S
C112 N113 1.347 . S
C112 H123 0.929 . S
N113 C111 1.375 . S
N113 C112 1.347 . S
C114 C117 1.365 . S
C114 N119 1.328 . S
C114 H120 0.929 . S
C115 C116 1.362 . S
C115 C118 1.378 . S
C115 H130 0.929 . S
C116 C115 1.362 . S
C116 C117 1.366 . S
C117 C114 1.365 . S
C117 C116 1.366 . S
C117 H131 0.930 . S
C118 C115 1.378 . S
C118 N119 1.315 . S
C118 H121 0.930 . S
N119 Co99 2.194 . S
N119 C114 1.328 . S
N119 C118 1.315 . S
H120 C114 0.929 . S
H121 C118 0.930 . S
H122 C110 0.929 . S
H123 C112 0.929 . S
O124 Co99 2.351 . S
O124 C127 1.244 . S
O125 Co99 2.155 . S
O125 C127 1.240 . S
O126 Co99 2.096 . S
O126 C107 1.247 . S
C127 O124 1.244 . S
C127 O125 1.240 . S
H128 C102 0.931 . S
H129 C111 0.931 . S
H130 C115 0.929 . S
H131 C117 0.930 . S
Co132 N136 2.148 . S
Co132 N142 2.128 . S
Co132 N152 2.194 . S
Co132 O157 2.351 . S
Co132 O158 2.155 . S
Co132 O159 2.096 . S
C133 N136 1.301 . S
C133 N137 1.328 . S
C133 H138 0.930 . S
C134 C135 1.333 . S
C134 N136 1.317 . S
C134 H139 0.930 . S
C135 C134 1.333 . S
C135 N137 1.350 . S
C135 H161 0.931 . S
N136 Co132 2.148 . S
N136 C133 1.301 . S
N136 C134 1.317 . S
N137 C133 1.328 . S
N137 C135 1.350 . S
H138 C133 0.930 . S
H139 C134 0.930 . S
C140 O141 1.224 . S
C140 O159 1.247 . S
O141 C140 1.224 . S
N142 Co132 2.128 . S
N142 C143 1.355 . S
N142 C145 1.311 . S
C143 N142 1.355 . S
C143 C144 1.363 1_554 S
C143 H155 0.929 . S
C144 C143 1.363 1_556 S
C144 N146 1.375 . S
C144 H162 0.931 . S
C145 N142 1.311 . S
C145 N146 1.347 1_554 S
C145 H156 0.929 . S
N146 C144 1.375 . S
N146 C145 1.347 1_556 S
C147 C150 1.365 . S
C147 N152 1.328 . S
C147 H153 0.929 . S
C148 C149 1.362 1_556 S
C148 C151 1.378 1_556 S
C148 H163 0.929 . S
C149 C148 1.362 1_554 S
C149 C150 1.366 . S
C150 C147 1.365 . S
C150 C149 1.366 . S
C150 H164 0.930 . S
C151 C148 1.378 1_554 S
C151 N152 1.315 . S
C151 H154 0.930 . S
N152 Co132 2.194 . S
N152 C147 1.328 . S
N152 C151 1.315 . S
H153 C147 0.929 . S
H154 C151 0.930 . S
H155 C143 0.929 . S
H156 C145 0.929 . S
O157 Co132 2.351 . S
O157 C160 1.244 . S
O158 Co132 2.155 . S
O158 C160 1.240 . S
O159 Co132 2.096 . S
O159 C140 1.247 . S
C160 O157 1.244 . S
C160 O158 1.240 . S
H161 C135 0.931 . S
H162 C144 0.931 . S
H163 C148 0.929 . S
H164 C150 0.930 . S
Co165 N169 2.148 . S
Co165 N175 2.128 . S
Co165 N185 2.194 . S
Co165 O190 2.351 . S
Co165 O191 2.155 . S
Co165 O192 2.096 . S
C166 N169 1.301 . S
C166 N170 1.328 . S
C166 H171 0.930 . S
C167 C168 1.333 . S
C167 N169 1.317 . S
C167 H172 0.930 . S
C168 C167 1.333 . S
C168 N170 1.350 . S
C168 H194 0.931 . S
N169 Co165 2.148 . S
N169 C166 1.301 . S
N169 C167 1.317 . S
N170 C166 1.328 . S
N170 C168 1.350 . S
H171 C166 0.930 . S
H172 C167 0.930 . S
C173 O174 1.224 . S
C173 O192 1.247 . S
O174 C173 1.224 . S
N175 Co165 2.128 . S
N175 C176 1.355 . S
N175 C178 1.311 . S
C176 N175 1.355 . S
C176 C177 1.363 . S
C176 H188 0.929 . S
C177 C176 1.363 . S
C177 N179 1.375 . S
C177 H195 0.931 . S
C178 N175 1.311 . S
C178 N179 1.347 . S
C178 H189 0.929 . S
N179 C177 1.375 . S
N179 C178 1.347 . S
C180 C183 1.365 . S
C180 N185 1.328 . S
C180 H186 0.929 . S
C181 C182 1.362 . S
C181 C184 1.378 . S
C181 H196 0.929 . S
C182 C181 1.362 . S
C182 C183 1.366 . S
C183 C180 1.365 . S
C183 C182 1.366 . S
C183 H197 0.930 . S
C184 C181 1.378 . S
C184 N185 1.315 . S
C184 H187 0.930 . S
N185 Co165 2.194 . S
N185 C180 1.328 . S
N185 C184 1.315 . S
H186 C180 0.929 . S
H187 C184 0.930 . S
H188 C176 0.929 . S
H189 C178 0.929 . S
O190 Co165 2.351 . S
O190 C193 1.244 . S
O191 Co165 2.155 . S
O191 C193 1.240 . S
O192 Co165 2.096 . S
O192 C173 1.247 . S
C193 O190 1.244 . S
C193 O191 1.240 . S
H194 C168 0.931 . S
H195 C177 0.931 . S
H196 C181 0.929 . S
H197 C183 0.930 . S
Co198 N202 2.148 . S
Co198 N208 2.128 . S
Co198 N218 2.194 . S
Co198 O223 2.351 . S
Co198 O224 2.155 . S
Co198 O225 2.096 . S
C199 N202 1.301 . S
C199 N203 1.328 . S
C199 H204 0.930 . S
C200 C201 1.333 . S
C200 N202 1.317 . S
C200 H205 0.930 . S
C201 C200 1.333 . S
C201 N203 1.350 . S
C201 H227 0.931 . S
N202 Co198 2.148 . S
N202 C199 1.301 . S
N202 C200 1.317 . S
N203 C199 1.328 . S
N203 C201 1.350 . S
H204 C199 0.930 . S
H205 C200 0.930 . S
C206 O207 1.224 . S
C206 O225 1.247 . S
O207 C206 1.224 . S
N208 Co198 2.128 . S
N208 C209 1.355 . S
N208 C211 1.311 . S
C209 N208 1.355 . S
C209 C210 1.363 . S
C209 H221 0.929 . S
C210 C209 1.363 . S
C210 N212 1.375 . S
C210 H228 0.931 . S
C211 N208 1.311 . S
C211 N212 1.347 . S
C211 H222 0.929 . S
N212 C210 1.375 . S
N212 C211 1.347 . S
C213 C216 1.365 . S
C213 N218 1.328 . S
C213 H219 0.929 . S
C214 C215 1.362 . S
C214 C217 1.378 . S
C214 H229 0.929 . S
C215 C214 1.362 . S
C215 C216 1.366 . S
C216 C213 1.365 . S
C216 C215 1.366 . S
C216 H230 0.930 . S
C217 C214 1.378 . S
C217 N218 1.315 . S
C217 H220 0.930 . S
N218 Co198 2.194 . S
N218 C213 1.328 . S
N218 C217 1.315 . S
H219 C213 0.929 . S
H220 C217 0.930 . S
H221 C209 0.929 . S
H222 C211 0.929 . S
O223 Co198 2.351 . S
O223 C226 1.244 . S
O224 Co198 2.155 . S
O224 C226 1.240 . S
O225 Co198 2.096 . S
O225 C206 1.247 . S
C226 O223 1.244 . S
C226 O224 1.240 . S
H227 C201 0.931 . S
H228 C210 0.931 . S
H229 C214 0.929 . S
H230 C216 0.930 . S
Co231 N235 2.148 . S
Co231 N241 2.128 . S
Co231 N251 2.194 . S
Co231 O256 2.351 . S
Co231 O257 2.155 . S
Co231 O258 2.096 . S
C232 N235 1.301 . S
C232 N236 1.328 . S
C232 H237 0.930 . S
C233 C234 1.333 . S
C233 N235 1.317 . S
C233 H238 0.930 . S
C234 C233 1.333 . S
C234 N236 1.350 . S
C234 H260 0.931 . S
N235 Co231 2.148 . S
N235 C232 1.301 . S
N235 C233 1.317 . S
N236 C232 1.328 . S
N236 C234 1.350 . S
H237 C232 0.930 . S
H238 C233 0.930 . S
C239 O240 1.224 . S
C239 O258 1.247 . S
O240 C239 1.224 . S
N241 Co231 2.128 . S
N241 C242 1.355 . S
N241 C244 1.311 . S
C242 N241 1.355 . S
C242 C243 1.363 1_556 S
C242 H254 0.929 . S
C243 C242 1.363 1_554 S
C243 N245 1.375 . S
C243 H261 0.931 . S
C244 N241 1.311 . S
C244 N245 1.347 1_556 S
C244 H255 0.929 . S
N245 C243 1.375 . S
N245 C244 1.347 1_554 S
C246 C249 1.365 . S
C246 N251 1.328 . S
C246 H252 0.929 . S
C247 C248 1.362 1_554 S
C247 C250 1.378 1_554 S
C247 H262 0.929 . S
C248 C247 1.362 1_556 S
C248 C249 1.366 . S
C249 C246 1.365 . S
C249 C248 1.366 . S
C249 H263 0.930 . S
C250 C247 1.378 1_556 S
C250 N251 1.315 . S
C250 H253 0.930 . S
N251 Co231 2.194 . S
N251 C246 1.328 . S
N251 C250 1.315 . S
H252 C246 0.929 . S
H253 C250 0.930 . S
H254 C242 0.929 . S
H255 C244 0.929 . S
O256 Co231 2.351 . S
O256 C259 1.244 . S
O257 Co231 2.155 . S
O257 C259 1.240 . S
O258 Co231 2.096 . S
O258 C239 1.247 . S
C259 O256 1.244 . S
C259 O257 1.240 . S
H260 C234 0.931 . S
H261 C243 0.931 . S
H262 C247 0.929 . S
H263 C249 0.930 . S
Co264 N268 2.148 . S
Co264 N274 2.128 . S
Co264 N284 2.194 . S
Co264 O289 2.351 . S
Co264 O290 2.155 . S
Co264 O291 2.096 . S
C265 N268 1.301 . S
C265 N269 1.328 . S
C265 H270 0.930 . S
C266 C267 1.333 . S
C266 N268 1.317 . S
C266 H271 0.930 . S
C267 C266 1.333 . S
C267 N269 1.350 . S
C267 H293 0.931 . S
N268 Co264 2.148 . S
N268 C265 1.301 . S
N268 C266 1.317 . S
N269 C265 1.328 . S
N269 C267 1.350 . S
H270 C265 0.930 . S
H271 C266 0.930 . S
C272 O273 1.224 . S
C272 O291 1.247 . S
O273 C272 1.224 . S
N274 Co264 2.128 . S
N274 C275 1.355 . S
N274 C277 1.311 . S
C275 N274 1.355 . S
C275 C276 1.363 . S
C275 H287 0.929 . S
C276 C275 1.363 . S
C276 N278 1.375 . S
C276 H294 0.931 . S
C277 N274 1.311 . S
C277 N278 1.347 . S
C277 H288 0.929 . S
N278 C276 1.375 . S
N278 C277 1.347 . S
C279 C282 1.365 . S
C279 N284 1.328 . S
C279 H285 0.929 . S
C280 C281 1.362 . S
C280 C283 1.378 . S
C280 H295 0.929 . S
C281 C280 1.362 . S
C281 C282 1.366 . S
C282 C279 1.365 . S
C282 C281 1.366 . S
C282 H296 0.930 . S
C283 C280 1.378 . S
C283 N284 1.315 . S
C283 H286 0.930 . S
N284 Co264 2.194 . S
N284 C279 1.328 . S
N284 C283 1.315 . S
H285 C279 0.929 . S
H286 C283 0.930 . S
H287 C275 0.929 . S
H288 C277 0.929 . S
O289 Co264 2.351 . S
O289 C292 1.244 . S
O290 Co264 2.155 . S
O290 C292 1.240 . S
O291 Co264 2.096 . S
O291 C272 1.247 . S
C292 O289 1.244 . S
C292 O290 1.240 . S
H293 C267 0.931 . S
H294 C276 0.931 . S
H295 C280 0.929 . S
H296 C282 0.930 . S
Co297 N301 2.148 . S
Co297 N307 2.128 . S
Co297 N317 2.194 . S
Co297 O322 2.351 . S
Co297 O323 2.155 . S
Co297 O324 2.096 . S
C298 N301 1.301 . S
C298 N302 1.328 . S
C298 H303 0.930 . S
C299 C300 1.333 . S
C299 N301 1.317 . S
C299 H304 0.930 . S
C300 C299 1.333 . S
C300 N302 1.350 . S
C300 H326 0.931 . S
N301 Co297 2.148 . S
N301 C298 1.301 . S
N301 C299 1.317 . S
N302 C298 1.328 . S
N302 C300 1.350 . S
H303 C298 0.930 . S
H304 C299 0.930 . S
C305 O306 1.224 . S
C305 O324 1.247 . S
O306 C305 1.224 . S
N307 Co297 2.128 . S
N307 C308 1.355 . S
N307 C310 1.311 . S
C308 N307 1.355 . S
C308 C309 1.363 1_556 S
C308 H320 0.929 . S
C309 C308 1.363 1_554 S
C309 N311 1.375 . S
C309 H327 0.931 . S
C310 N307 1.311 . S
C310 N311 1.347 1_556 S
C310 H321 0.929 . S
N311 C309 1.375 . S
N311 C310 1.347 1_554 S
C312 C315 1.365 . S
C312 N317 1.328 . S
C312 H318 0.929 . S
C313 C314 1.362 1_554 S
C313 C316 1.378 1_554 S
C313 H328 0.929 . S
C314 C313 1.362 1_556 S
C314 C315 1.366 . S
C315 C312 1.365 . S
C315 C314 1.366 . S
C315 H329 0.930 . S
C316 C313 1.378 1_556 S
C316 N317 1.315 . S
C316 H319 0.930 . S
N317 Co297 2.194 . S
N317 C312 1.328 . S
N317 C316 1.315 . S
H318 C312 0.929 . S
H319 C316 0.930 . S
H320 C308 0.929 . S
H321 C310 0.929 . S
O322 Co297 2.351 . S
O322 C325 1.244 . S
O323 Co297 2.155 . S
O323 C325 1.240 . S
O324 Co297 2.096 . S
O324 C305 1.247 . S
C325 O322 1.244 . S
C325 O323 1.240 . S
H326 C300 0.931 . S
H327 C309 0.931 . S
H328 C313 0.929 . S
H329 C315 0.930 . S
Co330 N334 2.148 . S
Co330 N340 2.128 . S
Co330 N350 2.194 . S
Co330 O355 2.351 . S
Co330 O356 2.155 . S
Co330 O357 2.096 . S
C331 N334 1.301 . S
C331 N335 1.328 . S
C331 H336 0.930 . S
C332 C333 1.333 . S
C332 N334 1.317 . S
C332 H337 0.930 . S
C333 C332 1.333 . S
C333 N335 1.350 . S
C333 H359 0.931 . S
N334 Co330 2.148 . S
N334 C331 1.301 . S
N334 C332 1.317 . S
N335 C331 1.328 . S
N335 C333 1.350 . S
H336 C331 0.930 . S
H337 C332 0.930 . S
C338 O339 1.224 . S
C338 O357 1.247 . S
O339 C338 1.224 . S
N340 Co330 2.128 . S
N340 C341 1.355 . S
N340 C343 1.311 . S
C341 N340 1.355 . S
C341 C342 1.363 . S
C341 H353 0.929 . S
C342 C341 1.363 . S
C342 N344 1.375 . S
C342 H360 0.931 . S
C343 N340 1.311 . S
C343 N344 1.347 . S
C343 H354 0.929 . S
N344 C342 1.375 . S
N344 C343 1.347 . S
C345 C348 1.365 . S
C345 N350 1.328 . S
C345 H351 0.929 . S
C346 C347 1.362 . S
C346 C349 1.378 . S
C346 H361 0.929 . S
C347 C346 1.362 . S
C347 C348 1.366 . S
C348 C345 1.365 . S
C348 C347 1.366 . S
C348 H362 0.930 . S
C349 C346 1.378 . S
C349 N350 1.315 . S
C349 H352 0.930 . S
N350 Co330 2.194 . S
N350 C345 1.328 . S
N350 C349 1.315 . S
H351 C345 0.929 . S
H352 C349 0.930 . S
H353 C341 0.929 . S
H354 C343 0.929 . S
O355 Co330 2.351 . S
O355 C358 1.244 . S
O356 Co330 2.155 . S
O356 C358 1.240 . S
O357 Co330 2.096 . S
O357 C338 1.247 . S
C358 O355 1.244 . S
C358 O356 1.240 . S
H359 C333 0.931 . S
H360 C342 0.931 . S
H361 C346 0.929 . S
H362 C348 0.930 . S
Co363 N367 2.148 . S
Co363 N373 2.128 . S
Co363 N383 2.194 . S
Co363 O388 2.351 . S
Co363 O389 2.155 . S
Co363 O390 2.096 . S
C364 N367 1.301 . S
C364 N368 1.328 . S
C364 H369 0.930 . S
C365 C366 1.333 . S
C365 N367 1.317 . S
C365 H370 0.930 . S
C366 C365 1.333 . S
C366 N368 1.350 . S
C366 H392 0.931 . S
N367 Co363 2.148 . S
N367 C364 1.301 . S
N367 C365 1.317 . S
N368 C364 1.328 . S
N368 C366 1.350 . S
H369 C364 0.930 . S
H370 C365 0.930 . S
C371 O372 1.224 . S
C371 O390 1.247 . S
O372 C371 1.224 . S
N373 Co363 2.128 . S
N373 C374 1.355 . S
N373 C376 1.311 . S
C374 N373 1.355 . S
C374 C375 1.363 1_556 S
C374 H386 0.929 . S
C375 C374 1.363 1_554 S
C375 N377 1.375 . S
C375 H393 0.931 . S
C376 N373 1.311 . S
C376 N377 1.347 1_556 S
C376 H387 0.929 . S
N377 C375 1.375 . S
N377 C376 1.347 1_554 S
C378 C381 1.365 . S
C378 N383 1.328 . S
C378 H384 0.929 . S
C379 C380 1.362 1_554 S
C379 C382 1.378 1_554 S
C379 H394 0.929 . S
C380 C379 1.362 1_556 S
C380 C381 1.366 . S
C381 C378 1.365 . S
C381 C380 1.366 . S
C381 H395 0.930 . S
C382 C379 1.378 1_556 S
C382 N383 1.315 . S
C382 H385 0.930 . S
N383 Co363 2.194 . S
N383 C378 1.328 . S
N383 C382 1.315 . S
H384 C378 0.929 . S
H385 C382 0.930 . S
H386 C374 0.929 . S
H387 C376 0.929 . S
O388 Co363 2.351 . S
O388 C391 1.244 . S
O389 Co363 2.155 . S
O389 C391 1.240 . S
O390 Co363 2.096 . S
O390 C371 1.247 . S
C391 O388 1.244 . S
C391 O389 1.240 . S
H392 C366 0.931 . S
H393 C375 0.931 . S
H394 C379 0.929 . S
H395 C381 0.930 . S
H396 C408 0.930 . S
H397 C410 0.930 . S
H398 C411 0.930 . S
H399 C415 0.959 . S
H400 C415 0.959 . S
H401 C415 0.961 . S
H402 C416 0.960 . S
H403 C416 0.961 . S
H404 C416 0.959 . S
H405 C419 0.929 . S
H406 C420 0.931 . S
H407 C422 0.930 . S
C408 H396 0.930 . S
C408 C409 1.399 . S
C408 C413 1.399 . S
C409 C408 1.399 . S
C409 C410 1.376 1_554 S
C410 H397 0.930 . S
C410 C409 1.376 1_556 S
C410 C411 1.388 . S
C411 H398 0.930 . S
C411 C410 1.388 . S
C411 C412 1.390 . S
C412 C411 1.390 . S
C412 C413 1.394 1_556 S
C412 C418 1.465 . S
C413 C408 1.399 . S
C413 C412 1.394 1_554 S
C413 C414 1.516 . S
C414 C413 1.516 . S
C414 C415 1.502 . S
C414 C416 1.561 . S
C414 C417 1.526 . S
C415 H399 0.959 . S
C415 H400 0.959 . S
C415 H401 0.961 . S
C415 C414 1.502 . S
C416 H402 0.960 . S
C416 H403 0.961 . S
C416 H404 0.959 . S
C416 C414 1.561 . S
C417 C414 1.526 . S
C417 C418 1.396 1_554 S
C417 C422 1.390 . S
C418 C412 1.465 . S
C418 C417 1.396 1_556 S
C418 C419 1.399 . S
C419 H405 0.929 . S
C419 C418 1.399 . S
C419 C420 1.385 . S
C420 H406 0.931 . S
C420 C419 1.385 . S
C420 C421 1.389 . S
C421 C420 1.389 . S
C421 C422 1.387 1_556 S
C422 H407 0.930 . S
C422 C417 1.390 . S
C422 C421 1.387 1_554 S
H423 C435 0.930 . S
H424 C437 0.930 . S
H425 C438 0.930 . S
H426 C442 0.967 1_455 S
H427 C442 0.959 1_455 S
H428 C442 0.961 . S
H429 C443 0.960 . S
H430 C443 0.961 1_455 S
H431 C443 0.959 . S
H432 C446 0.929 . S
H433 C447 0.931 . S
H434 C449 0.930 . S
C435 H423 0.930 . S
C435 C436 1.399 . S
C435 C440 1.399 . S
C436 C435 1.399 . S
C436 C437 1.376 . S
C437 H424 0.930 . S
C437 C436 1.376 . S
C437 C438 1.388 . S
C438 H425 0.930 . S
C438 C437 1.388 . S
C438 C439 1.390 . S
C439 C438 1.390 . S
C439 C440 1.394 . S
C439 C445 1.465 1_655 S
C440 C435 1.399 . S
C440 C439 1.394 . S
C440 C441 1.516 . S
C441 C440 1.516 . S
C441 C442 1.502 . S
C441 C443 1.561 . S
C441 C444 1.526 1_655 S
C442 H426 0.967 1_655 S
C442 H427 0.959 1_655 S
C442 H428 0.961 . S
C442 C441 1.502 . S
C443 H429 0.960 . S
C443 H430 0.961 1_655 S
C443 H431 0.959 . S
C443 C441 1.561 . S
C444 C441 1.526 1_455 S
C444 C445 1.396 . S
C444 C449 1.390 . S
C445 C439 1.465 1_455 S
C445 C444 1.396 . S
C445 C446 1.399 . S
C446 H432 0.929 . S
C446 C445 1.399 . S
C446 C447 1.385 . S
C447 H433 0.931 . S
C447 C446 1.385 . S
C447 C448 1.389 . S
C448 C447 1.389 . S
C448 C449 1.387 . S
C449 H434 0.930 . S
C449 C444 1.390 . S
C449 C448 1.387 . S
H450 C462 0.930 . S
H451 C464 0.930 . S
H452 C465 0.930 . S
H453 C469 0.959 . S
H454 C469 0.959 . S
H455 C469 0.961 1_545 S
H456 C470 0.960 1_545 S
H457 C470 0.961 . S
H458 C470 0.959 . S
H459 C473 0.929 . S
H460 C474 0.931 . S
H461 C476 0.930 . S
C462 H450 0.930 . S
C462 C463 1.399 . S
C462 C467 1.399 . S
C463 C462 1.399 . S
C463 C464 1.376 1_554 S
C464 H451 0.930 . S
C464 C463 1.376 1_556 S
C464 C465 1.388 . S
C465 H452 0.930 . S
C465 C464 1.388 . S
C465 C466 1.390 . S
C466 C465 1.390 . S
C466 C467 1.394 1_556 S
C466 C472 1.465 1_545 S
C467 C462 1.399 . S
C467 C466 1.394 1_554 S
C467 C468 1.516 1_545 S
C468 C467 1.516 1_565 S
C468 C469 1.502 . S
C468 C470 1.561 . S
C468 C471 1.526 . S
C469 H453 0.959 . S
C469 H454 0.959 . S
C469 H455 0.961 1_565 S
C469 C468 1.502 . S
C470 H456 0.960 1_565 S
C470 H457 0.961 . S
C470 H458 0.959 . S
C470 C468 1.561 . S
C471 C468 1.526 . S
C471 C472 1.396 1_554 S
C471 C476 1.390 . S
C472 C466 1.465 1_565 S
C472 C471 1.396 1_556 S
C472 C473 1.399 . S
C473 H459 0.929 . S
C473 C472 1.399 . S
C473 C474 1.385 . S
C474 H460 0.931 . S
C474 C473 1.385 . S
C474 C475 1.389 . S
C475 C474 1.389 . S
C475 C476 1.387 1_556 S
C476 H461 0.930 . S
C476 C471 1.390 . S
C476 C475 1.387 1_554 S
H477 C489 0.930 . S
H478 C491 0.930 . S
H479 C492 0.930 . S
H480 C496 0.959 . S
H481 C496 0.959 . S
H482 C496 0.961 . S
H483 C497 0.960 . S
H484 C497 0.961 . S
H485 C497 0.959 . S
H486 C500 0.929 . S
H487 C501 0.931 . S
H488 C503 0.930 . S
C489 H477 0.930 . S
C489 C490 1.399 . S
C489 C494 1.399 . S
C490 C489 1.399 . S
C490 C491 1.376 . S
C491 H478 0.930 . S
C491 C490 1.376 . S
C491 C492 1.388 . S
C492 H479 0.930 . S
C492 C491 1.388 . S
C492 C493 1.390 . S
C493 C492 1.390 . S
C493 C494 1.394 . S
C493 C499 1.465 . S
C494 C489 1.399 . S
C494 C493 1.394 . S
C494 C495 1.516 . S
C495 C494 1.516 . S
C495 C496 1.502 . S
C495 C497 1.561 . S
C495 C498 1.526 . S
C496 H480 0.959 . S
C496 H481 0.959 . S
C496 H482 0.961 . S
C496 C495 1.502 . S
C497 H483 0.960 . S
C497 H484 0.961 . S
C497 H485 0.959 . S
C497 C495 1.561 . S
C498 C495 1.526 . S
C498 C499 1.396 . S
C498 C503 1.390 . S
C499 C493 1.465 . S
C499 C498 1.396 . S
C499 C500 1.399 . S
C500 H486 0.929 . S
C500 C499 1.399 . S
C500 C501 1.385 . S
C501 H487 0.931 . S
C501 C500 1.385 . S
C501 C502 1.389 . S
C502 C501 1.389 . S
C502 C503 1.387 . S
C503 H488 0.930 . S
C503 C498 1.390 . S
C503 C502 1.387 . S
H504 C516 0.930 1_554 S
H505 C518 0.930 . S
H506 C519 0.930 . S
H507 C523 0.948 . S
H508 C523 0.959 1_655 S
H509 C523 0.961 . S
H510 C524 0.960 1_455 S
H511 C524 0.961 . S
H512 C524 0.959 . S
H513 C527 0.929 . S
H514 C528 0.931 . S
H515 C530 0.930 . S
C516 H504 0.930 1_556 S
C516 C517 1.399 . S
C516 C521 1.399 . S
C517 C516 1.399 . S
C517 C518 1.376 . S
C518 H505 0.930 . S
C518 C517 1.376 . S
C518 C519 1.388 . S
C519 H506 0.930 . S
C519 C518 1.388 . S
C519 C520 1.390 . S
C520 C519 1.390 . S
C520 C521 1.394 . S
C520 C526 1.465 1_455 S
C521 C516 1.399 . S
C521 C520 1.394 . S
C521 C522 1.532 1_556 S
C522 C521 1.532 1_554 S
C522 C523 1.498 . S
C522 C524 1.556 1_454 S
C522 C525 1.520 1_455 S
C523 H507 0.948 . S
C523 H508 0.959 1_455 S
C523 H509 0.961 . S
C523 C522 1.498 . S
C524 H510 0.960 1_655 S
C524 H511 0.961 . S
C524 H512 0.959 . S
C524 C522 1.556 1_656 S
C525 C522 1.520 1_655 S
C525 C526 1.396 1_554 S
C525 C530 1.390 . S
C526 C520 1.465 1_655 S
C526 C525 1.396 1_556 S
C526 C527 1.399 . S
C527 H513 0.929 . S
C527 C526 1.399 . S
C527 C528 1.385 . S
C528 H514 0.931 . S
C528 C527 1.385 . S
C528 C529 1.389 1_556 S
C529 C528 1.389 1_554 S
C529 C530 1.387 . S
C530 H515 0.930 . S
C530 C525 1.390 . S
C530 C529 1.387 . S
H531 C543 0.930 . S
H532 C545 0.930 . S
H533 C546 0.930 . S
H534 C550 0.959 . S
H535 C550 0.959 . S
H536 C550 0.961 1_565 S
H537 C551 0.960 1_565 S
H538 C551 0.961 . S
H539 C551 0.959 . S
H540 C554 0.929 . S
H541 C555 0.931 . S
H542 C557 0.930 . S
C543 H531 0.930 . S
C543 C544 1.399 . S
C543 C548 1.399 . S
C544 C543 1.399 . S
C544 C545 1.376 . S
C545 H532 0.930 . S
C545 C544 1.376 . S
C545 C546 1.388 . S
C546 H533 0.930 . S
C546 C545 1.388 . S
C546 C547 1.390 . S
C547 C546 1.390 . S
C547 C548 1.394 . S
C547 C553 1.465 1_565 S
C548 C543 1.399 . S
C548 C547 1.394 . S
C548 C549 1.516 1_565 S
C549 C548 1.516 1_545 S
C549 C550 1.502 . S
C549 C551 1.561 . S
C549 C552 1.526 . S
C550 H534 0.959 . S
C550 H535 0.959 . S
C550 H536 0.961 1_545 S
C550 C549 1.502 . S
C551 H537 0.960 1_545 S
C551 H538 0.961 . S
C551 H539 0.959 . S
C551 C549 1.561 . S
C552 C549 1.526 . S
C552 C553 1.396 . S
C552 C557 1.390 . S
C553 C547 1.465 1_545 S
C553 C552 1.396 . S
C553 C554 1.399 . S
C554 H540 0.929 . S
C554 C553 1.399 . S
C554 C555 1.385 . S
C555 H541 0.931 . S
C555 C554 1.385 . S
C555 C556 1.389 . S
C556 C555 1.389 . S
C556 C557 1.387 . S
C557 H542 0.930 . S
C557 C552 1.390 . S
C557 C556 1.387 . S
H558 C570 0.923 1_554 S
H559 C572 0.930 . S
H560 C573 0.930 . S
H561 C577 0.959 . S
H562 C577 0.959 . S
H563 C577 0.961 . S
H564 C578 0.960 . S
H565 C578 0.961 . S
H566 C578 0.959 . S
H567 C581 0.929 . S
H568 C582 0.931 . S
H569 C584 0.930 . S
C570 H558 0.923 1_556 S
C570 C571 1.407 . S
C570 C575 1.398 1_556 S
C571 C570 1.407 . S
C571 C572 1.376 . S
C572 H559 0.930 . S
C572 C571 1.376 . S
C572 C573 1.388 . S
C573 H560 0.930 . S
C573 C572 1.388 . S
C573 C574 1.390 . S
C574 C573 1.390 . S
C574 C575 1.394 1_556 S
C574 C580 1.465 . S
C575 C570 1.398 1_554 S
C575 C574 1.394 1_554 S
C575 C576 1.516 . S
C576 C575 1.516 . S
C576 C577 1.502 . S
C576 C578 1.561 . S
C576 C579 1.526 . S
C577 H561 0.959 . S
C577 H562 0.959 . S
C577 H563 0.961 . S
C577 C576 1.502 . S
C578 H564 0.960 . S
C578 H565 0.961 . S
C578 H566 0.959 . S
C578 C576 1.561 . S
C579 C576 1.526 . S
C579 C580 1.396 1_554 S
C579 C584 1.390 . S
C580 C574 1.465 . S
C580 C579 1.396 1_556 S
C580 C581 1.399 . S
C581 H567 0.929 . S
C581 C580 1.399 . S
C581 C582 1.385 . S
C582 H568 0.931 . S
C582 C581 1.385 . S
C582 C583 1.389 1_556 S
C583 C582 1.389 1_554 S
C583 C584 1.387 . S
C584 H569 0.930 . S
C584 C579 1.390 . S
C584 C583 1.387 . S
H585 C597 0.930 . S
H586 C599 0.930 . S
H587 C600 0.930 . S
H588 C604 0.959 . S
H589 C604 0.959 . S
H590 C604 0.961 . S
H591 C605 0.960 . S
H592 C605 0.961 . S
H593 C605 0.959 . S
H594 C608 0.929 . S
H595 C609 0.931 . S
H596 C611 0.930 . S
C597 H585 0.930 . S
C597 C598 1.399 . S
C597 C602 1.399 . S
C598 C597 1.399 . S
C598 C599 1.376 . S
C599 H586 0.930 . S
C599 C598 1.376 . S
C599 C600 1.388 . S
C600 H587 0.930 . S
C600 C599 1.388 . S
C600 C601 1.390 . S
C601 C600 1.390 . S
C601 C602 1.394 . S
C601 C607 1.465 . S
C602 C597 1.399 . S
C602 C601 1.394 . S
C602 C603 1.516 . S
C603 C602 1.516 . S
C603 C604 1.502 . S
C603 C605 1.561 . S
C603 C606 1.526 . S
C604 H588 0.959 . S
C604 H589 0.959 . S
C604 H590 0.961 . S
C604 C603 1.502 . S
C605 H591 0.960 . S
C605 H592 0.961 . S
C605 H593 0.959 . S
C605 C603 1.561 . S
C606 C603 1.526 . S
C606 C607 1.396 . S
C606 C611 1.390 . S
C607 C601 1.465 . S
C607 C606 1.396 . S
C607 C608 1.399 . S
C608 H594 0.929 . S
C608 C607 1.399 . S
C608 C609 1.385 . S
C609 H595 0.931 . S
C609 C608 1.385 . S
C609 C610 1.389 . S
C610 C609 1.389 . S
C610 C611 1.387 . S
C611 H596 0.930 . S
C611 C606 1.390 . S
C611 C610 1.387 . S
H612 C624 0.930 1_554 S
H613 C626 0.930 . S
H614 C627 0.930 . S
H615 C631 0.959 . S
H616 C631 0.959 . S
H617 C631 0.961 . S
H618 C632 0.960 . S
H619 C632 0.961 . S
H620 C632 0.959 . S
H621 C635 0.929 . S
H622 C636 0.931 . S
H623 C638 0.930 . S
C624 H612 0.930 1_556 S
C624 C625 1.399 . S
C624 C629 1.397 1_556 S
C625 C624 1.399 . S
C625 C626 1.376 . S
C626 H613 0.930 . S
C626 C625 1.376 . S
C626 C627 1.388 . S
C627 H614 0.930 . S
C627 C626 1.388 . S
C627 C628 1.390 . S
C628 C627 1.390 . S
C628 C629 1.389 1_556 S
C628 C634 1.465 . S
C629 C624 1.397 1_554 S
C629 C628 1.389 1_554 S
C629 C630 1.522 . S
C630 C629 1.522 . S
C630 C631 1.502 . S
C630 C632 1.561 . S
C630 C633 1.526 . S
C631 H615 0.959 . S
C631 H616 0.959 . S
C631 H617 0.961 . S
C631 C630 1.502 . S
C632 H618 0.960 . S
C632 H619 0.961 . S
C632 H620 0.959 . S
C632 C630 1.561 . S
C633 C630 1.526 . S
C633 C634 1.396 1_554 S
C633 C638 1.390 . S
C634 C628 1.465 . S
C634 C633 1.396 1_556 S
C634 C635 1.399 . S
C635 H621 0.929 . S
C635 C634 1.399 . S
C635 C636 1.385 . S
C636 H622 0.931 . S
C636 C635 1.385 . S
C636 C637 1.389 1_556 S
C637 C636 1.389 1_554 S
C637 C638 1.387 . S
C638 H623 0.930 . S
C638 C633 1.390 . S
C638 C637 1.387 . S
H639 C651 0.930 . S
H640 C653 0.930 . S
H641 C654 0.930 . S
H642 C658 0.959 . S
H643 C658 0.959 . S
H644 C658 0.961 . S
H645 C659 0.960 . S
H646 C659 0.961 . S
H647 C659 0.959 . S
H648 C662 0.929 . S
H649 C663 0.931 . S
H650 C665 0.930 . S
C651 H639 0.930 . S
C651 C652 1.399 . S
C651 C656 1.399 . S
C652 C651 1.399 . S
C652 C653 1.376 . S
C653 H640 0.930 . S
C653 C652 1.376 . S
C653 C654 1.388 . S
C654 H641 0.930 . S
C654 C653 1.388 . S
C654 C655 1.390 . S
C655 C654 1.390 . S
C655 C656 1.394 . S
C655 C661 1.465 . S
C656 C651 1.399 . S
C656 C655 1.394 . S
C656 C657 1.516 . S
C657 C656 1.516 . S
C657 C658 1.502 . S
C657 C659 1.561 . S
C657 C660 1.526 . S
C658 H642 0.959 . S
C658 H643 0.959 . S
C658 H644 0.961 . S
C658 C657 1.502 . S
C659 H645 0.960 . S
C659 H646 0.961 . S
C659 H647 0.959 . S
C659 C657 1.561 . S
C660 C657 1.526 . S
C660 C661 1.396 . S
C660 C665 1.390 . S
C661 C655 1.465 . S
C661 C660 1.396 . S
C661 C662 1.399 . S
C662 H648 0.929 . S
C662 C661 1.399 . S
C662 C663 1.385 . S
C663 H649 0.931 . S
C663 C662 1.385 . S
C663 C664 1.389 . S
C664 C663 1.389 . S
C664 C665 1.387 . S
C665 H650 0.930 . S
C665 C660 1.390 . S
C665 C664 1.387 . S
H666 C678 0.930 . S
H667 C680 0.930 . S
H668 C681 0.930 . S
H669 C685 0.959 . S
H670 C685 0.959 . S
H671 C685 0.961 . S
H672 C686 0.960 . S
H673 C686 0.961 . S
H674 C686 0.959 . S
H675 C689 0.929 . S
H676 C690 0.931 . S
H677 C692 0.930 . S
C678 H666 0.930 . S
C678 C679 1.399 1_556 S
C678 C683 1.399 . S
C679 C678 1.399 1_554 S
C679 C680 1.376 . S
C680 H667 0.930 . S
C680 C679 1.376 . S
C680 C681 1.388 . S
C681 H668 0.930 . S
C681 C680 1.388 . S
C681 C682 1.390 . S
C682 C681 1.390 . S
C682 C683 1.394 1_554 S
C682 C688 1.465 . S
C683 C678 1.399 . S
C683 C682 1.394 1_556 S
C683 C684 1.516 . S
C684 C683 1.516 . S
C684 C685 1.502 . S
C684 C686 1.561 . S
C684 C687 1.526 . S
C685 H669 0.959 . S
C685 H670 0.959 . S
C685 H671 0.961 . S
C685 C684 1.502 . S
C686 H672 0.960 . S
C686 H673 0.961 . S
C686 H674 0.959 . S
C686 C684 1.561 . S
C687 C684 1.526 . S
C687 C688 1.396 1_556 S
C687 C692 1.390 . S
C688 C682 1.465 . S
C688 C687 1.396 1_554 S
C688 C689 1.399 . S
C689 H675 0.929 . S
C689 C688 1.399 . S
C689 C690 1.385 . S
C690 H676 0.931 . S
C690 C689 1.385 . S
C690 C691 1.389 1_554 S
C691 C690 1.389 1_556 S
C691 C692 1.387 . S
C692 H677 0.930 . S
C692 C687 1.390 . S
C692 C691 1.387 . S
H693 C705 0.930 . S
H694 C707 0.930 . S
H695 C708 0.930 . S
H696 C712 0.959 . S
H697 C712 0.959 . S
H698 C712 0.961 . S
H699 C713 0.960 . S
H700 C713 0.961 . S
H701 C713 0.959 . S
H702 C716 0.929 . S
H703 C717 0.931 . S
H704 C719 0.930 . S
C705 H693 0.930 . S
C705 C706 1.399 . S
C705 C710 1.399 . S
C706 C705 1.399 . S
C706 C707 1.376 . S
C707 H694 0.930 . S
C707 C706 1.376 . S
C707 C708 1.388 . S
C708 H695 0.930 . S
C708 C707 1.388 . S
C708 C709 1.390 . S
C709 C708 1.390 . S
C709 C710 1.394 . S
C709 C715 1.465 . S
C710 C705 1.399 . S
C710 C709 1.394 . S
C710 C711 1.516 . S
C711 C710 1.516 . S
C711 C712 1.502 . S
C711 C713 1.561 . S
C711 C714 1.526 . S
C712 H696 0.959 . S
C712 H697 0.959 . S
C712 H698 0.961 . S
C712 C711 1.502 . S
C713 H699 0.960 . S
C713 H700 0.961 . S
C713 H701 0.959 . S
C713 C711 1.561 . S
C714 C711 1.526 . S
C714 C715 1.396 . S
C714 C719 1.390 . S
C715 C709 1.465 . S
C715 C714 1.396 . S
C715 C716 1.399 . S
C716 H702 0.929 . S
C716 C715 1.399 . S
C716 C717 1.385 . S
C717 H703 0.931 . S
C717 C716 1.385 . S
C717 C718 1.389 . S
C718 C717 1.389 . S
C718 C719 1.387 . S
C719 H704 0.930 . S
C719 C714 1.390 . S
C719 C718 1.387 . S
H720 C732 0.930 . S
H721 C734 0.930 . S
H722 C735 0.930 . S
H723 C739 0.959 . S
H724 C739 0.959 . S
H725 C739 0.961 . S
H726 C740 0.960 . S
H727 C740 0.961 . S
H728 C740 0.959 . S
H729 C743 0.929 . S
H730 C744 0.931 . S
H731 C746 0.930 . S
C732 H720 0.930 . S
C732 C733 1.399 . S
C732 C737 1.399 . S
C733 C732 1.399 . S
C733 C734 1.376 . S
C734 H721 0.930 . S
C734 C733 1.376 . S
C734 C735 1.388 . S
C735 H722 0.930 . S
C735 C734 1.388 . S
C735 C736 1.390 . S
C736 C735 1.390 . S
C736 C737 1.394 . S
C736 C742 1.465 . S
C737 C732 1.399 . S
C737 C736 1.394 . S
C737 C738 1.516 . S
C738 C737 1.516 . S
C738 C739 1.502 . S
C738 C740 1.561 . S
C738 C741 1.526 . S
C739 H723 0.959 . S
C739 H724 0.959 . S
C739 H725 0.961 . S
C739 C738 1.502 . S
C740 H726 0.960 . S
C740 H727 0.961 . S
C740 H728 0.959 . S
C740 C738 1.561 . S
C741 C738 1.526 . S
C741 C742 1.396 . S
C741 C746 1.390 . S
C742 C736 1.465 . S
C742 C741 1.396 . S
C742 C743 1.399 . S
C743 H729 0.929 . S
C743 C742 1.399 . S
C743 C744 1.385 . S
C744 H730 0.931 . S
C744 C743 1.385 . S
C744 C745 1.389 . S
C745 C744 1.389 . S
C745 C746 1.387 . S
C746 H731 0.930 . S
C746 C741 1.390 . S
C746 C745 1.387 . S
H747 C759 0.930 . S
H748 C761 0.930 . S
H749 C762 0.930 . S
H750 C766 0.959 . S
H751 C766 0.959 . S
H752 C766 0.961 . S
H753 C767 0.960 . S
H754 C767 0.961 . S
H755 C767 0.959 . S
H756 C770 0.929 . S
H757 C771 0.931 . S
H758 C773 0.930 . S
C759 H747 0.930 . S
C759 C760 1.399 . S
C759 C764 1.399 . S
C760 C759 1.399 . S
C760 C761 1.376 1_554 S
C761 H748 0.930 . S
C761 C760 1.376 1_556 S
C761 C762 1.388 . S
C762 H749 0.930 . S
C762 C761 1.388 . S
C762 C763 1.390 . S
C763 C762 1.390 . S
C763 C764 1.394 1_556 S
C763 C769 1.465 . S
C764 C759 1.399 . S
C764 C763 1.394 1_554 S
C764 C765 1.516 . S
C765 C764 1.516 . S
C765 C766 1.502 . S
C765 C767 1.561 . S
C765 C768 1.526 . S
C766 H750 0.959 . S
C766 H751 0.959 . S
C766 H752 0.961 . S
C766 C765 1.502 . S
C767 H753 0.960 . S
C767 H754 0.961 . S
C767 H755 0.959 . S
C767 C765 1.561 . S
C768 C765 1.526 . S
C768 C769 1.396 1_554 S
C768 C773 1.390 . S
C769 C763 1.465 . S
C769 C768 1.396 1_556 S
C769 C770 1.399 . S
C770 H756 0.929 . S
C770 C769 1.399 . S
C770 C771 1.385 . S
C771 H757 0.931 . S
C771 C770 1.385 . S
C771 C772 1.389 . S
C772 C771 1.389 . S
C772 C773 1.387 1_556 S
C773 H758 0.930 . S
C773 C768 1.390 . S
C773 C772 1.387 1_554 S
H774 C786 0.930 . S
H775 C788 0.930 . S
H776 C789 0.930 . S
H777 C793 0.959 . S
H778 C793 0.959 . S
H779 C793 0.961 . S
H780 C794 0.960 . S
H781 C794 0.961 . S
H782 C794 0.959 . S
H783 C797 0.929 . S
H784 C798 0.931 . S
H785 C800 0.930 . S
C786 H774 0.930 . S
C786 C787 1.399 . S
C786 C791 1.399 . S
C787 C786 1.399 . S
C787 C788 1.376 . S
C788 H775 0.930 . S
C788 C787 1.376 . S
C788 C789 1.388 . S
C789 H776 0.930 . S
C789 C788 1.388 . S
C789 C790 1.390 . S
C790 C789 1.390 . S
C790 C791 1.394 . S
C790 C796 1.465 . S
C791 C786 1.399 . S
C791 C790 1.394 . S
C791 C792 1.516 . S
C792 C791 1.516 . S
C792 C793 1.502 . S
C792 C794 1.561 . S
C792 C795 1.526 . S
C793 H777 0.959 . S
C793 H778 0.959 . S
C793 H779 0.961 . S
C793 C792 1.502 . S
C794 H780 0.960 . S
C794 H781 0.961 . S
C794 H782 0.959 . S
C794 C792 1.561 . S
C795 C792 1.526 . S
C795 C796 1.396 . S
C795 C800 1.390 . S
C796 C790 1.465 . S
C796 C795 1.396 . S
C796 C797 1.399 . S
C797 H783 0.929 . S
C797 C796 1.399 . S
C797 C798 1.385 . S
C798 H784 0.931 . S
C798 C797 1.385 . S
C798 C799 1.389 . S
C799 C798 1.389 . S
C799 C800 1.387 . S
C800 H785 0.930 . S
C800 C795 1.390 . S
C800 C799 1.387 . S
H801 C813 0.930 . S
H802 C815 0.930 . S
H803 C816 0.930 . S
H804 C820 0.959 . S
H805 C820 0.959 . S
H806 C820 0.961 . S
H807 C821 0.960 . S
H808 C821 0.961 . S
H809 C821 0.959 . S
H810 C824 0.929 . S
H811 C825 0.931 . S
H812 C827 0.930 . S
C813 H801 0.930 . S
C813 C814 1.399 1_554 S
C813 C818 1.399 . S
C814 C813 1.399 1_556 S
C814 C815 1.376 . S
C815 H802 0.930 . S
C815 C814 1.376 . S
C815 C816 1.388 . S
C816 H803 0.930 . S
C816 C815 1.388 . S
C816 C817 1.390 . S
C817 C816 1.390 . S
C817 C818 1.394 1_556 S
C817 C823 1.465 . S
C818 C813 1.399 . S
C818 C817 1.394 1_554 S
C818 C819 1.516 . S
C819 C818 1.516 . S
C819 C820 1.502 . S
C819 C821 1.561 . S
C819 C822 1.526 . S
C820 H804 0.959 . S
C820 H805 0.959 . S
C820 H806 0.961 . S
C820 C819 1.502 . S
C821 H807 0.960 . S
C821 H808 0.961 . S
C821 H809 0.959 . S
C821 C819 1.561 . S
C822 C819 1.526 . S
C822 C823 1.396 1_554 S
C822 C827 1.390 . S
C823 C817 1.465 . S
C823 C822 1.396 1_556 S
C823 C824 1.399 . S
C824 H810 0.929 . S
C824 C823 1.399 . S
C824 C825 1.385 . S
C825 H811 0.931 . S
C825 C824 1.385 . S
C825 C826 1.389 1_556 S
C826 C825 1.389 1_554 S
C826 C827 1.387 . S
C827 H812 0.930 . S
C827 C822 1.390 . S
C827 C826 1.387 . S
H828 C840 0.930 . S
H829 C842 0.930 . S
H830 C843 0.930 . S
H831 C847 0.959 . S
H832 C847 0.959 . S
H833 C847 0.961 . S
H834 C848 0.960 . S
H835 C848 0.961 . S
H836 C848 0.959 . S
H837 C851 0.929 . S
H838 C852 0.931 . S
H839 C854 0.930 . S
C840 H828 0.930 . S
C840 C841 1.399 . S
C840 C845 1.399 . S
C841 C840 1.399 . S
C841 C842 1.376 . S
C842 H829 0.930 . S
C842 C841 1.376 . S
C842 C843 1.388 . S
C843 H830 0.930 . S
C843 C842 1.388 . S
C843 C844 1.390 . S
C844 C843 1.390 . S
C844 C845 1.394 . S
C844 C850 1.465 . S
C845 C840 1.399 . S
C845 C844 1.394 . S
C845 C846 1.516 . S
C846 C845 1.516 . S
C846 C847 1.502 . S
C846 C848 1.561 . S
C846 C849 1.526 . S
C847 H831 0.959 . S
C847 H832 0.959 . S
C847 H833 0.961 . S
C847 C846 1.502 . S
C848 H834 0.960 . S
C848 H835 0.961 . S
C848 H836 0.959 . S
C848 C846 1.561 . S
C849 C846 1.526 . S
C849 C850 1.396 . S
C849 C854 1.390 . S
C850 C844 1.465 . S
C850 C849 1.396 . S
C850 C851 1.399 . S
C851 H837 0.929 . S
C851 C850 1.399 . S
C851 C852 1.385 . S
C852 H838 0.931 . S
C852 C851 1.385 . S
C852 C853 1.389 . S
C853 C852 1.389 . S
C853 C854 1.387 . S
C854 H839 0.930 . S
C854 C849 1.390 . S
C854 C853 1.387 . S
H855 C867 0.930 . S
H856 C869 0.930 . S
H857 C870 0.930 . S
H858 C874 0.959 . S
H859 C874 0.959 . S
H860 C874 0.961 . S
H861 C875 0.960 . S
H862 C875 0.961 . S
H863 C875 0.959 . S
H864 C878 0.929 . S
H865 C879 0.931 . S
H866 C881 0.930 . S
C867 H855 0.930 . S
C867 C868 1.399 . S
C867 C872 1.399 . S
C868 C867 1.399 . S
C868 C869 1.376 1_554 S
C869 H856 0.930 . S
C869 C868 1.376 1_556 S
C869 C870 1.388 . S
C870 H857 0.930 . S
C870 C869 1.388 . S
C870 C871 1.390 . S
C871 C870 1.390 . S
C871 C872 1.394 1_556 S
C871 C877 1.465 . S
C872 C867 1.399 . S
C872 C871 1.394 1_554 S
C872 C873 1.516 . S
C873 C872 1.516 . S
C873 C874 1.502 . S
C873 C875 1.561 . S
C873 C876 1.526 . S
C874 H858 0.959 . S
C874 H859 0.959 . S
C874 H860 0.961 . S
C874 C873 1.502 . S
C875 H861 0.960 . S
C875 H862 0.961 . S
C875 H863 0.959 . S
C875 C873 1.561 . S
C876 C873 1.526 . S
C876 C877 1.396 1_554 S
C876 C881 1.390 . S
C877 C871 1.465 . S
C877 C876 1.396 1_556 S
C877 C878 1.399 . S
C878 H864 0.929 . S
C878 C877 1.399 . S
C878 C879 1.385 . S
C879 H865 0.931 . S
C879 C878 1.385 . S
C879 C880 1.389 . S
C880 C879 1.389 . S
C880 C881 1.387 1_556 S
C881 H866 0.930 . S
C881 C876 1.390 . S
C881 C880 1.387 1_554 S
H882 C894 0.930 . S
H883 C896 0.930 . S
H884 C897 0.930 . S
H885 C901 0.959 . S
H886 C901 0.959 . S
H887 C901 0.961 . S
H888 C902 0.960 . S
H889 C902 0.961 . S
H890 C902 0.959 . S
H891 C905 0.929 . S
H892 C906 0.931 . S
H893 C908 0.930 . S
C894 H882 0.930 . S
C894 C895 1.399 . S
C894 C899 1.399 . S
C895 C894 1.399 . S
C895 C896 1.376 . S
C896 H883 0.930 . S
C896 C895 1.376 . S
C896 C897 1.388 . S
C897 H884 0.930 . S
C897 C896 1.388 . S
C897 C898 1.390 . S
C898 C897 1.390 . S
C898 C899 1.394 . S
C898 C904 1.465 . S
C899 C894 1.399 . S
C899 C898 1.394 . S
C899 C900 1.516 . S
C900 C899 1.516 . S
C900 C901 1.502 . S
C900 C902 1.561 . S
C900 C903 1.526 . S
C901 H885 0.959 . S
C901 H886 0.959 . S
C901 H887 0.961 . S
C901 C900 1.502 . S
C902 H888 0.960 . S
C902 H889 0.961 . S
C902 H890 0.959 . S
C902 C900 1.561 . S
C903 C900 1.526 . S
C903 C904 1.396 . S
C903 C908 1.390 . S
C904 C898 1.465 . S
C904 C903 1.396 . S
C904 C905 1.399 . S
C905 H891 0.929 . S
C905 C904 1.399 . S
C905 C906 1.385 . S
C906 H892 0.931 . S
C906 C905 1.385 . S
C906 C907 1.389 . S
C907 C906 1.389 . S
C907 C908 1.387 . S
C908 H893 0.930 . S
C908 C903 1.390 . S
C908 C907 1.387 . S
H909 C921 0.930 . S
H910 C923 0.930 . S
H911 C924 0.930 . S
H912 C928 0.959 . S
H913 C928 0.959 . S
H914 C928 0.961 . S
H915 C929 0.960 . S
H916 C929 0.961 . S
H917 C929 0.959 . S
H918 C932 0.929 . S
H919 C933 0.931 . S
H920 C935 0.930 . S
C921 H909 0.930 . S
C921 C922 1.399 . S
C921 C926 1.399 . S
C922 C921 1.399 . S
C922 C923 1.376 . S
C923 H910 0.930 . S
C923 C922 1.376 . S
C923 C924 1.388 . S
C924 H911 0.930 . S
C924 C923 1.388 . S
C924 C925 1.390 . S
C925 C924 1.390 . S
C925 C926 1.394 . S
C925 C931 1.465 . S
C926 C921 1.399 . S
C926 C925 1.394 . S
C926 C927 1.516 . S
C927 C926 1.516 . S
C927 C928 1.502 . S
C927 C929 1.561 . S
C927 C930 1.526 . S
C928 H912 0.959 . S
C928 H913 0.959 . S
C928 H914 0.961 . S
C928 C927 1.502 . S
C929 H915 0.960 . S
C929 H916 0.961 . S
C929 H917 0.959 . S
C929 C927 1.561 . S
C930 C927 1.526 . S
C930 C931 1.396 . S
C930 C935 1.390 . S
C931 C925 1.465 . S
C931 C930 1.396 . S
C931 C932 1.399 . S
C932 H918 0.929 . S
C932 C931 1.399 . S
C932 C933 1.385 . S
C933 H919 0.931 . S
C933 C932 1.385 . S
C933 C934 1.389 . S
C934 C933 1.389 . S
C934 C935 1.387 . S
C935 H920 0.930 . S
C935 C930 1.390 . S
C935 C934 1.387 . S
H936 C948 0.930 . S
H937 C950 0.930 . S
H938 C951 0.930 . S
H939 C955 0.959 . S
H940 C955 0.959 . S
H941 C955 0.961 . S
H942 C956 0.960 . S
H943 C956 0.961 . S
H944 C956 0.959 . S
H945 C959 0.929 . S
H946 C960 0.931 . S
H947 C962 0.930 . S
C948 H936 0.930 . S
C948 C949 1.399 . S
C948 C953 1.399 . S
C949 C948 1.399 . S
C949 C950 1.376 . S
C950 H937 0.930 . S
C950 C949 1.376 . S
C950 C951 1.388 . S
C951 H938 0.930 . S
C951 C950 1.388 . S
C951 C952 1.390 . S
C952 C951 1.390 . S
C952 C953 1.394 . S
C952 C958 1.465 . S
C953 C948 1.399 . S
C953 C952 1.394 . S
C953 C954 1.516 . S
C954 C953 1.516 . S
C954 C955 1.502 . S
C954 C956 1.561 . S
C954 C957 1.526 . S
C955 H939 0.959 . S
C955 H940 0.959 . S
C955 H941 0.961 . S
C955 C954 1.502 . S
C956 H942 0.960 . S
C956 H943 0.961 . S
C956 H944 0.959 . S
C956 C954 1.561 . S
C957 C954 1.526 . S
C957 C958 1.396 . S
C957 C962 1.390 . S
C958 C952 1.465 . S
C958 C957 1.396 . S
C958 C959 1.399 . S
C959 H945 0.929 . S
C959 C958 1.399 . S
C959 C960 1.385 . S
C960 H946 0.931 . S
C960 C959 1.385 . S
C960 C961 1.389 . S
C961 C960 1.389 . S
C961 C962 1.387 . S
C962 H947 0.930 . S
C962 C957 1.390 . S
C962 C961 1.387 . S
H963 C975 0.930 . S
H964 C977 0.930 . S
H965 C978 0.930 . S
H966 C982 0.959 . S
H967 C982 0.959 . S
H968 C982 0.961 . S
H969 C983 0.960 . S
H970 C983 0.961 . S
H971 C983 0.959 . S
H972 C986 0.929 . S
H973 C987 0.931 . S
H974 C989 0.930 . S
C975 H963 0.930 . S
C975 C976 1.399 . S
C975 C980 1.399 . S
C976 C975 1.399 . S
C976 C977 1.376 . S
C977 H964 0.930 . S
C977 C976 1.376 . S
C977 C978 1.388 . S
C978 H965 0.930 . S
C978 C977 1.388 . S
C978 C979 1.390 . S
C979 C978 1.390 . S
C979 C980 1.394 . S
C979 C985 1.465 . S
C980 C975 1.399 . S
C980 C979 1.394 . S
C980 C981 1.516 . S
C981 C980 1.516 . S
C981 C982 1.502 . S
C981 C983 1.561 . S
C981 C984 1.526 . S
C982 H966 0.959 . S
C982 H967 0.959 . S
C982 H968 0.961 . S
C982 C981 1.502 . S
C983 H969 0.960 . S
C983 H970 0.961 . S
C983 H971 0.959 . S
C983 C981 1.561 . S
C984 C981 1.526 . S
C984 C985 1.396 . S
C984 C989 1.390 . S
C985 C979 1.465 . S
C985 C984 1.396 . S
C985 C986 1.399 . S
C986 H972 0.929 . S
C986 C985 1.399 . S
C986 C987 1.385 . S
C987 H973 0.931 . S
C987 C986 1.385 . S
C987 C988 1.389 . S
C988 C987 1.389 . S
C988 C989 1.387 . S
C989 H974 0.930 . S
C989 C984 1.390 . S
C989 C988 1.387 . S
H990 C1002 0.930 . S
H991 C1004 0.930 . S
H992 C1005 0.930 . S
H993 C1009 0.959 . S
H994 C1009 0.959 . S
H995 C1009 0.961 . S
H996 C1010 0.960 . S
H997 C1010 0.961 . S
H998 C1010 0.959 . S
H999 C1013 0.929 . S
H1000 C1014 0.931 . S
H1001 C1016 0.930 . S
C1002 H990 0.930 . S
C1002 C1003 1.399 . S
C1002 C1007 1.399 . S
C1003 C1002 1.399 . S
C1003 C1004 1.376 . S
C1004 H991 0.930 . S
C1004 C1003 1.376 . S
C1004 C1005 1.388 . S
C1005 H992 0.930 . S
C1005 C1004 1.388 . S
C1005 C1006 1.390 . S
C1006 C1005 1.390 . S
C1006 C1007 1.394 . S
C1006 C1012 1.465 . S
C1007 C1002 1.399 . S
C1007 C1006 1.394 . S
C1007 C1008 1.516 . S
C1008 C1007 1.516 . S
C1008 C1009 1.502 . S
C1008 C1010 1.561 . S
C1008 C1011 1.526 . S
C1009 H993 0.959 . S
C1009 H994 0.959 . S
C1009 H995 0.961 . S
C1009 C1008 1.502 . S
C1010 H996 0.960 . S
C1010 H997 0.961 . S
C1010 H998 0.959 . S
C1010 C1008 1.561 . S
C1011 C1008 1.526 . S
C1011 C1012 1.396 . S
C1011 C1016 1.390 . S
C1012 C1006 1.465 . S
C1012 C1011 1.396 . S
C1012 C1013 1.399 . S
C1013 H999 0.929 . S
C1013 C1012 1.399 . S
C1013 C1014 1.385 . S
C1014 H1000 0.931 . S
C1014 C1013 1.385 . S
C1014 C1015 1.389 . S
C1015 C1014 1.389 . S
C1015 C1016 1.387 . S
C1016 H1001 0.930 . S
C1016 C1011 1.390 . S
C1016 C1015 1.387 . S
H1017 C1029 0.930 . S
H1018 C1031 0.930 . S
H1019 C1032 0.930 . S
H1020 C1036 0.959 . S
H1021 C1036 0.959 . S
H1022 C1036 0.961 . S
H1023 C1037 0.960 . S
H1024 C1037 0.961 . S
H1025 C1037 0.959 . S
H1026 C1040 0.929 . S
H1027 C1041 0.931 . S
H1028 C1043 0.930 . S
C1029 H1017 0.930 . S
C1029 C1030 1.399 . S
C1029 C1034 1.399 . S
C1030 C1029 1.399 . S
C1030 C1031 1.376 . S
C1031 H1018 0.930 . S
C1031 C1030 1.376 . S
C1031 C1032 1.388 . S
C1032 H1019 0.930 . S
C1032 C1031 1.388 . S
C1032 C1033 1.390 . S
C1033 C1032 1.390 . S
C1033 C1034 1.394 . S
C1033 C1039 1.465 . S
C1034 C1029 1.399 . S
C1034 C1033 1.394 . S
C1034 C1035 1.516 . S
C1035 C1034 1.516 . S
C1035 C1036 1.502 . S
C1035 C1037 1.561 . S
C1035 C1038 1.526 . S
C1036 H1020 0.959 . S
C1036 H1021 0.959 . S
C1036 H1022 0.961 . S
C1036 C1035 1.502 . S
C1037 H1023 0.960 . S
C1037 H1024 0.961 . S
C1037 H1025 0.959 . S
C1037 C1035 1.561 . S
C1038 C1035 1.526 . S
C1038 C1039 1.396 . S
C1038 C1043 1.390 . S
C1039 C1033 1.465 . S
C1039 C1038 1.396 . S
C1039 C1040 1.399 . S
C1040 H1026 0.929 . S
C1040 C1039 1.399 . S
C1040 C1041 1.385 . S
C1041 H1027 0.931 . S
C1041 C1040 1.385 . S
C1041 C1042 1.389 . S
C1042 C1041 1.389 . S
C1042 C1043 1.387 . S
C1043 H1028 0.930 . S
C1043 C1038 1.390 . S
C1043 C1042 1.387 . S
H1044 C1056 0.930 . S
H1045 C1058 0.930 . S
H1046 C1059 0.930 . S
H1047 C1063 0.959 . S
H1048 C1063 0.959 . S
H1049 C1063 0.961 . S
H1050 C1064 0.960 . S
H1051 C1064 0.961 . S
H1052 C1064 0.959 . S
H1053 C1067 0.929 . S
H1054 C1068 0.931 . S
H1055 C1070 0.930 . S
C1056 H1044 0.930 . S
C1056 C1057 1.399 . S
C1056 C1061 1.399 . S
C1057 C1056 1.399 . S
C1057 C1058 1.376 . S
C1058 H1045 0.930 . S
C1058 C1057 1.376 . S
C1058 C1059 1.388 . S
C1059 H1046 0.930 . S
C1059 C1058 1.388 . S
C1059 C1060 1.390 . S
C1060 C1059 1.390 . S
C1060 C1061 1.394 . S
C1060 C1066 1.465 . S
C1061 C1056 1.399 . S
C1061 C1060 1.394 . S
C1061 C1062 1.516 . S
C1062 C1061 1.516 . S
C1062 C1063 1.502 . S
C1062 C1064 1.561 . S
C1062 C1065 1.526 . S
C1063 H1047 0.959 . S
C1063 H1048 0.959 . S
C1063 H1049 0.961 . S
C1063 C1062 1.502 . S
C1064 H1050 0.960 . S
C1064 H1051 0.961 . S
C1064 H1052 0.959 . S
C1064 C1062 1.561 . S
C1065 C1062 1.526 . S
C1065 C1066 1.396 . S
C1065 C1070 1.390 . S
C1066 C1060 1.465 . S
C1066 C1065 1.396 . S
C1066 C1067 1.399 . S
C1067 H1053 0.929 . S
C1067 C1066 1.399 . S
C1067 C1068 1.385 . S
C1068 H1054 0.931 . S
C1068 C1067 1.385 . S
C1068 C1069 1.389 . S
C1069 C1068 1.389 . S
C1069 C1070 1.387 . S
C1070 H1055 0.930 . S
C1070 C1065 1.390 . S
C1070 C1069 1.387 . S
H1071 C1083 0.930 . S
H1072 C1085 0.930 . S
H1073 C1086 0.930 . S
H1074 C1090 0.959 . S
H1075 C1090 0.959 . S
H1076 C1090 0.961 . S
H1077 C1091 0.960 . S
H1078 C1091 0.961 . S
H1079 C1091 0.959 . S
H1080 C1094 0.929 . S
H1081 C1095 0.931 . S
H1082 C1097 0.930 . S
C1083 H1071 0.930 . S
C1083 C1084 1.399 . S
C1083 C1088 1.399 . S
C1084 C1083 1.399 . S
C1084 C1085 1.376 . S
C1085 H1072 0.930 . S
C1085 C1084 1.376 . S
C1085 C1086 1.388 . S
C1086 H1073 0.930 . S
C1086 C1085 1.388 . S
C1086 C1087 1.390 . S
C1087 C1086 1.390 . S
C1087 C1088 1.394 . S
C1087 C1093 1.465 . S
C1088 C1083 1.399 . S
C1088 C1087 1.394 . S
C1088 C1089 1.516 . S
C1089 C1088 1.516 . S
C1089 C1090 1.502 . S
C1089 C1091 1.561 . S
C1089 C1092 1.526 . S
C1090 H1074 0.959 . S
C1090 H1075 0.959 . S
C1090 H1076 0.961 . S
C1090 C1089 1.502 . S
C1091 H1077 0.960 . S
C1091 H1078 0.961 . S
C1091 H1079 0.959 . S
C1091 C1089 1.561 . S
C1092 C1089 1.526 . S
C1092 C1093 1.396 . S
C1092 C1097 1.390 . S
C1093 C1087 1.465 . S
C1093 C1092 1.396 . S
C1093 C1094 1.399 . S
C1094 H1080 0.929 . S
C1094 C1093 1.399 . S
C1094 C1095 1.385 . S
C1095 H1081 0.931 . S
C1095 C1094 1.385 . S
C1095 C1096 1.389 . S
C1096 C1095 1.389 . S
C1096 C1097 1.387 . S
C1097 H1082 0.930 . S
C1097 C1092 1.390 . S
C1097 C1096 1.387 . S
H1098 C1110 0.930 . S
H1099 C1112 0.930 . S
H1100 C1113 0.930 . S
H1101 C1117 0.959 . S
H1102 C1117 0.959 . S
H1103 C1117 0.961 . S
H1104 C1118 0.960 . S
H1105 C1118 0.961 . S
H1106 C1118 0.959 . S
H1107 C1121 0.929 . S
H1108 C1122 0.931 . S
H1109 C1124 0.930 . S
C1110 H1098 0.930 . S
C1110 C1111 1.399 . S
C1110 C1115 1.399 . S
C1111 C1110 1.399 . S
C1111 C1112 1.376 . S
C1112 H1099 0.930 . S
C1112 C1111 1.376 . S
C1112 C1113 1.388 . S
C1113 H1100 0.930 . S
C1113 C1112 1.388 . S
C1113 C1114 1.390 . S
C1114 C1113 1.390 . S
C1114 C1115 1.394 . S
C1114 C1120 1.465 . S
C1115 C1110 1.399 . S
C1115 C1114 1.394 . S
C1115 C1116 1.516 . S
C1116 C1115 1.516 . S
C1116 C1117 1.502 . S
C1116 C1118 1.561 . S
C1116 C1119 1.526 . S
C1117 H1101 0.959 . S
C1117 H1102 0.959 . S
C1117 H1103 0.961 . S
C1117 C1116 1.502 . S
C1118 H1104 0.960 . S
C1118 H1105 0.961 . S
C1118 H1106 0.959 . S
C1118 C1116 1.561 . S
C1119 C1116 1.526 . S
C1119 C1120 1.396 . S
C1119 C1124 1.390 . S
C1120 C1114 1.465 . S
C1120 C1119 1.396 . S
C1120 C1121 1.399 . S
C1121 H1107 0.929 . S
C1121 C1120 1.399 . S
C1121 C1122 1.385 . S
C1122 H1108 0.931 . S
C1122 C1121 1.385 . S
C1122 C1123 1.389 . S
C1123 C1122 1.389 . S
C1123 C1124 1.387 . S
C1124 H1109 0.930 . S
C1124 C1119 1.390 . S
C1124 C1123 1.387 . S
H1125 C1137 0.930 . S
H1126 C1139 0.930 . S
H1127 C1140 0.930 . S
H1128 C1144 0.959 . S
H1129 C1144 0.959 . S
H1130 C1144 0.961 . S
H1131 C1145 0.960 . S
H1132 C1145 0.961 . S
H1133 C1145 0.959 . S
H1134 C1148 0.929 . S
H1135 C1149 0.931 . S
H1136 C1151 0.930 . S
C1137 H1125 0.930 . S
C1137 C1138 1.399 . S
C1137 C1142 1.399 . S
C1138 C1137 1.399 . S
C1138 C1139 1.376 . S
C1139 H1126 0.930 . S
C1139 C1138 1.376 . S
C1139 C1140 1.388 . S
C1140 H1127 0.930 . S
C1140 C1139 1.388 . S
C1140 C1141 1.390 . S
C1141 C1140 1.390 . S
C1141 C1142 1.394 . S
C1141 C1147 1.465 . S
C1142 C1137 1.399 . S
C1142 C1141 1.394 . S
C1142 C1143 1.516 . S
C1143 C1142 1.516 . S
C1143 C1144 1.502 . S
C1143 C1145 1.561 . S
C1143 C1146 1.526 . S
C1144 H1128 0.959 . S
C1144 H1129 0.959 . S
C1144 H1130 0.961 . S
C1144 C1143 1.502 . S
C1145 H1131 0.960 . S
C1145 H1132 0.961 . S
C1145 H1133 0.959 . S
C1145 C1143 1.561 . S
C1146 C1143 1.526 . S
C1146 C1147 1.396 . S
C1146 C1151 1.390 . S
C1147 C1141 1.465 . S
C1147 C1146 1.396 . S
C1147 C1148 1.399 . S
C1148 H1134 0.929 . S
C1148 C1147 1.399 . S
C1148 C1149 1.385 . S
C1149 H1135 0.931 . S
C1149 C1148 1.385 . S
C1149 C1150 1.389 . S
C1150 C1149 1.389 . S
C1150 C1151 1.387 . S
C1151 H1136 0.930 . S
C1151 C1146 1.390 . S
C1151 C1150 1.387 . S
H1152 C1164 0.930 . S
H1153 C1166 0.930 . S
H1154 C1167 0.930 . S
H1155 C1171 0.959 . S
H1156 C1171 0.959 . S
H1157 C1171 0.961 . S
H1158 C1172 0.960 . S
H1159 C1172 0.961 . S
H1160 C1172 0.959 . S
H1161 C1175 0.929 . S
H1162 C1176 0.931 . S
H1163 C1178 0.930 . S
C1164 H1152 0.930 . S
C1164 C1165 1.399 . S
C1164 C1169 1.399 . S
C1165 C1164 1.399 . S
C1165 C1166 1.376 . S
C1166 H1153 0.930 . S
C1166 C1165 1.376 . S
C1166 C1167 1.388 . S
C1167 H1154 0.930 . S
C1167 C1166 1.388 . S
C1167 C1168 1.390 . S
C1168 C1167 1.390 . S
C1168 C1169 1.394 . S
C1168 C1174 1.465 . S
C1169 C1164 1.399 . S
C1169 C1168 1.394 . S
C1169 C1170 1.516 . S
C1170 C1169 1.516 . S
C1170 C1171 1.502 . S
C1170 C1172 1.561 . S
C1170 C1173 1.526 . S
C1171 H1155 0.959 . S
C1171 H1156 0.959 . S
C1171 H1157 0.961 . S
C1171 C1170 1.502 . S
C1172 H1158 0.960 . S
C1172 H1159 0.961 . S
C1172 H1160 0.959 . S
C1172 C1170 1.561 . S
C1173 C1170 1.526 . S
C1173 C1174 1.396 . S
C1173 C1178 1.390 . S
C1174 C1168 1.465 . S
C1174 C1173 1.396 . S
C1174 C1175 1.399 . S
C1175 H1161 0.929 . S
C1175 C1174 1.399 . S
C1175 C1176 1.385 . S
C1176 H1162 0.931 . S
C1176 C1175 1.385 . S
C1176 C1177 1.389 . S
C1177 C1176 1.389 . S
C1177 C1178 1.387 . S
C1178 H1163 0.930 . S
C1178 C1173 1.390 . S
C1178 C1177 1.387 . S
H1179 C1191 0.930 . S
H1180 C1193 0.930 . S
H1181 C1194 0.930 . S
H1182 C1198 0.959 . S
H1183 C1198 0.959 . S
H1184 C1198 0.961 . S
H1185 C1199 0.960 . S
H1186 C1199 0.961 . S
H1187 C1199 0.959 . S
H1188 C1202 0.929 . S
H1189 C1203 0.931 . S
H1190 C1205 0.930 . S
C1191 H1179 0.930 . S
C1191 C1192 1.399 . S
C1191 C1196 1.399 . S
C1192 C1191 1.399 . S
C1192 C1193 1.376 . S
C1193 H1180 0.930 . S
C1193 C1192 1.376 . S
C1193 C1194 1.388 . S
C1194 H1181 0.930 . S
C1194 C1193 1.388 . S
C1194 C1195 1.390 . S
C1195 C1194 1.390 . S
C1195 C1196 1.394 . S
C1195 C1201 1.465 . S
C1196 C1191 1.399 . S
C1196 C1195 1.394 . S
C1196 C1197 1.516 . S
C1197 C1196 1.516 . S
C1197 C1198 1.502 . S
C1197 C1199 1.561 . S
C1197 C1200 1.526 . S
C1198 H1182 0.959 . S
C1198 H1183 0.959 . S
C1198 H1184 0.961 . S
C1198 C1197 1.502 . S
C1199 H1185 0.960 . S
C1199 H1186 0.961 . S
C1199 H1187 0.959 . S
C1199 C1197 1.561 . S
C1200 C1197 1.526 . S
C1200 C1201 1.396 . S
C1200 C1205 1.390 . S
C1201 C1195 1.465 . S
C1201 C1200 1.396 . S
C1201 C1202 1.399 . S
C1202 H1188 0.929 . S
C1202 C1201 1.399 . S
C1202 C1203 1.385 . S
C1203 H1189 0.931 . S
C1203 C1202 1.385 . S
C1203 C1204 1.389 . S
C1204 C1203 1.389 . S
C1204 C1205 1.387 . S
C1205 H1190 0.930 . S
C1205 C1200 1.390 . S
C1205 C1204 1.387 . S
C409 C314 0.862 1_554 S
C421 C17 1.008 1_556 S
C436 C50 1.008 . S
C448 C347 0.902 . S
C463 C380 0.865 1_554 S
C475 C83 0.980 1_556 S
C490 C116 0.867 . S
C502 C215 1.013 . S
C517 C149 0.951 1_556 S
C529 C248 0.886 1_554 S
C544 C281 0.865 . S
C556 C182 0.979 . S
C571 N14 1.069 . S
C583 C140 1.162 . S
C598 C173 1.169 . S
C610 N47 0.901 . S
C625 N80 1.022 . S
C637 C8 1.178 . S
C652 N113 1.051 . S
C664 C41 1.167 . S
C679 C74 1.172 . S
C691 N146 0.905 . S
C706 C107 1.136 . S
C718 N179 1.067 . S
C733 C272 1.132 . S
C745 N212 1.014 . S
C760 N245 0.965 . S
C772 C305 1.144 . S
C787 C338 1.139 . S
C799 N278 1.092 . S
C814 C371 1.174 . S
C826 N311 0.914 . S
C841 C206 1.140 . S
C853 N344 1.090 . S
C868 N377 0.964 . S
C880 C239 1.141 . S
C895 C358 1.690 . S
C907 C28 1.690 . S
C922 C391 1.651 . S
C934 C61 1.651 . S
C949 C94 1.695 . S
C961 C226 1.695 . S
C976 C127 1.694 . S
C988 C259 1.693 . S
C1003 C292 1.694 . S
C1015 C160 1.694 . S
C1030 C193 1.655 . S
C1042 C325 1.655 . S
C1057 N203 0.593 . S
C1069 N5 0.556 . S
C1084 N236 0.669 . S
C1096 N38 0.587 . S
C1111 N71 0.789 . S
C1123 N269 0.736 . S
C1138 N302 0.601 . S
C1150 N104 0.556 . S
C1165 N137 0.793 . S
C1177 N335 0.748 . S
C1192 N368 0.781 . S
C1204 N170 0.717 . S
