# Generated by pormake.
# Topology ske, (6)-cn, num edge types: 1
# Building blocks:
#     Node 0, Type 0, BuildingBlock: INOVEN_clean_sbu_0, # of connection points: 6
#     Node 1, Type 0, BuildingBlock: INOVEN_clean_sbu_0, # of connection points: 6
#     Node 2, Type 0, BuildingBlock: INOVEN_clean_sbu_0, # of connection points: 6
#     Node 3, Type 0, BuildingBlock: INOVEN_clean_sbu_0, # of connection points: 6
#     Node 4, Type 0, BuildingBlock: INOVEN_clean_sbu_0, # of connection points: 6
#     Node 5, Type 0, BuildingBlock: INOVEN_clean_sbu_0, # of connection points: 6
#     Node 6, Type 0, BuildingBlock: INOVEN_clean_sbu_0, # of connection points: 6
#     Node 7, Type 0, BuildingBlock: INOVEN_clean_sbu_0, # of connection points: 6
#     Edge 8, Type (0, 0), None
#     Edge 9, Type (0, 0), None
#     Edge 10, Type (0, 0), None
#     Edge 11, Type (0, 0), None
#     Edge 12, Type (0, 0), None
#     Edge 13, Type (0, 0), None
#     Edge 14, Type (0, 0), None
#     Edge 15, Type (0, 0), None
#     Edge 16, Type (0, 0), None
#     Edge 17, Type (0, 0), None
#     Edge 18, Type (0, 0), None
#     Edge 19, Type (0, 0), None
#     Edge 20, Type (0, 0), None
#     Edge 21, Type (0, 0), None
#     Edge 22, Type (0, 0), None
#     Edge 23, Type (0, 0), None
#     Edge 24, Type (0, 0), None
#     Edge 25, Type (0, 0), None
#     Edge 26, Type (0, 0), None
#     Edge 27, Type (0, 0), None
#     Edge 28, Type (0, 0), None
#     Edge 29, Type (0, 0), None
#     Edge 30, Type (0, 0), None
#     Edge 31, Type (0, 0), None
# Relax obj value: 0.180
# Max RMSD: 0.224
# Mean RMSD: 0.218
data_MOF--net-ske--node1-INOVEN_clean_sbu_0--edge1-none
_symmetry_space_group_name_H-M    P1
_symmetry_Int_Tables_number       1
_symmetry_cell_setting            triclinic
loop_
_symmetry_equiv_pos_as_xyz
'x, y, z'
_cell_length_a     71.404052
_cell_length_b     12.387709
_cell_length_c     6.9564131
_cell_angle_alpha  90.000427
_cell_angle_beta   90.000399
_cell_angle_gamma 82.584803
loop_
_atom_site_label
_atom_site_type_symbol
_atom_site_fract_x
_atom_site_fract_y
_atom_site_fract_z
_atom_type_partial_charge
Gd0 Gd 0.16736 0.26186 0.50602 0.0
Gd1 Gd 0.12309 0.30124 0.50393 0.0
C2 C 0.14521 0.27933 0.90741 0.0
C3 C 0.20286 0.28019 0.47261 0.0
C4 C 0.2214 0.26643 0.57143 0.0
C5 C 0.23563 0.18401 0.51259 0.0
C6 C 0.22587 0.34333 0.70735 0.0
C7 C 0.2586 0.25885 0.71606 0.0
C8 C 0.24422 0.33941 0.77894 0.0
C9 C 0.25401 0.17997 0.58463 0.0
C10 C 0.14999 0.08189 0.55486 0.0
C11 C 0.14518 0.27907 0.09782 0.0
C12 C 0.08765 0.29175 0.46477 0.0
C13 C 0.06733 0.28519 0.44176 0.0
C14 C 0.05409 0.37728 0.4718 0.0
C15 C 0.06102 0.18651 0.39098 0.0
C16 C 0.02818 0.27066 0.4108 0.0
C17 C 0.04169 0.17958 0.37304 0.0
C18 C 0.03477 0.36988 0.45812 0.0
C19 C 0.1405 0.48068 0.56232 0.0
O20 O 0.16098 0.29488 0.81803 0.0
O21 O 0.12946 0.2647 0.81604 0.0
O22 O 0.19564 0.193 0.41718 0.0
O23 O 0.19015 0.35836 0.53457 0.0
O24 O 0.1661 0.09369 0.63355 0.0
O25 O 0.14468 0.1615 0.44679 0.0
O26 O 0.12898 0.27649 0.18799 0.0
O27 O 0.16137 0.28173 0.18858 0.0
O28 O 0.09558 0.37496 0.40231 0.0
O29 O 0.09896 0.2145 0.55059 0.0
O30 O 0.12402 0.46985 0.63229 0.0
O31 O 0.14588 0.40153 0.45391 0.0
H32 H 0.2327 0.12464 0.40599 0.0
H33 H 0.21532 0.40859 0.75509 0.0
H34 H 0.24717 0.40016 0.88281 0.0
H35 H 0.26476 0.11719 0.53226 0.0
H36 H 0.05867 0.45441 0.51116 0.0
H37 H 0.07106 0.11472 0.36428 0.0
H38 H 0.03746 0.10239 0.32998 0.0
H39 H 0.02507 0.44169 0.49 0.0
Gd40 Gd 0.86825 0.2701 0.506 0.0
Gd41 Gd 0.91252 0.23074 0.50392 0.0
C42 C 0.8904 0.25264 0.90739 0.0
C43 C 0.83275 0.25172 0.47263 0.0
C44 C 0.81421 0.26546 0.57146 0.0
C45 C 0.79998 0.3479 0.51269 0.0
C46 C 0.80974 0.18853 0.70731 0.0
C47 C 0.77701 0.27301 0.7161 0.0
C48 C 0.79139 0.19243 0.77891 0.0
C49 C 0.7816 0.35192 0.58474 0.0
C50 C 0.88562 0.45008 0.55481 0.0
C51 C 0.89043 0.2529 0.0978 0.0
C52 C 0.94796 0.24023 0.46471 0.0
C53 C 0.96828 0.24681 0.44176 0.0
C54 C 0.98151 0.15471 0.47185 0.0
C55 C 0.97459 0.34547 0.39089 0.0
C56 C 1.00743 0.26132 0.41081 0.0
C57 C 0.99392 0.3524 0.37296 0.0
C58 C 1.00084 0.16211 0.45818 0.0
C59 C 0.89511 0.0513 0.56227 0.0
O60 O 0.87463 0.23709 0.81801 0.0
O61 O 0.90614 0.26727 0.81602 0.0
O62 O 0.83997 0.33892 0.41717 0.0
O63 O 0.84546 0.17357 0.53459 0.0
O64 O 0.8695 0.43828 0.63349 0.0
O65 O 0.89092 0.37046 0.44677 0.0
O66 O 0.90663 0.25549 0.18797 0.0
O67 O 0.87423 0.25023 0.18856 0.0
O68 O 0.94003 0.15703 0.40231 0.0
O69 O 0.93664 0.3175 0.55054 0.0
O70 O 0.91159 0.06212 0.63225 0.0
O71 O 0.88973 0.13045 0.45388 0.0
H72 H 0.80291 0.40729 0.40614 0.0
H73 H 0.82028 0.12325 0.75499 0.0
H74 H 0.78844 0.13165 0.88273 0.0
H75 H 0.77085 0.41471 0.53242 0.0
H76 H 0.97694 0.0776 0.51126 0.0
H77 H 0.96455 0.41726 0.36413 0.0
H78 H 0.99815 0.42958 0.32985 0.0
H79 H 1.01054 0.09031 0.49012 0.0
Gd80 Gd 0.12135 0.80989 0.61481 0.0
Gd81 Gd 0.16692 0.76393 0.61847 0.0
C82 C 0.14392 0.7771 1.0218 0.0
C83 C 0.08524 0.81723 0.62668 0.0
C84 C 0.06618 0.80315 0.69428 0.0
C85 C 0.05183 0.89049 0.67112 0.0
C86 C 0.06153 0.70276 0.75912 0.0
C87 C 0.02797 0.77514 0.75751 0.0
C88 C 0.04261 0.68919 0.79243 0.0
C89 C 0.033 0.8767 0.70177 0.0
C90 C 0.14031 0.98405 0.56893 0.0
C91 C 0.1439 0.77727 0.21292 0.0
C92 C 0.20176 0.79938 0.62655 0.0
C93 C 0.22059 0.78064 0.53371 0.0
C94 C 0.2343 0.69604 0.59603 0.0
C95 C 0.22585 0.85637 0.39993 0.0
C96 C 0.25826 0.76653 0.39931 0.0
C97 C 0.24441 0.84915 0.33308 0.0
C98 C 0.25291 0.68881 0.52896 0.0
C99 C 0.15049 0.57657 0.58885 0.0
O100 O 0.12768 0.77497 0.92971 0.0
O101 O 0.1602 0.78292 0.9338 0.0
O102 O 0.09402 0.89499 0.69764 0.0
O103 O 0.09639 0.73333 0.55827 0.0
O104 O 0.12429 0.97486 0.48719 0.0
O105 O 0.14507 0.90357 0.67727 0.0
O106 O 0.16006 0.7858 0.30238 0.0
O107 O 0.12773 0.77185 0.3033 0.0
O108 O 0.1956 0.71867 0.71986 0.0
O109 O 0.18836 0.86261 0.53673 0.0
O110 O 0.16864 0.57807 0.57431 0.0
O111 O 0.14321 0.6728 0.61551 0.0
H112 H 0.05511 0.96848 0.61962 0.0
H113 H 0.07241 0.63408 0.77816 0.0
H114 H 0.0395 0.6103 0.84025 0.0
H115 H 0.02238 0.94456 0.6713 0.0
H116 H 0.23082 0.63737 0.70136 0.0
H117 H 0.21574 0.92343 0.35062 0.0
H118 H 0.24793 0.90911 0.23039 0.0
H119 H 0.26324 0.62448 0.5838 0.0
Gd120 Gd 0.91425 0.72208 0.61474 0.0
Gd121 Gd 0.86869 0.76806 0.61838 0.0
C122 C 0.89169 0.75487 1.02172 0.0
C123 C 0.95037 0.71474 0.62658 0.0
C124 C 0.96942 0.72881 0.69419 0.0
C125 C 0.98377 0.64149 0.67098 0.0
C126 C 0.97407 0.8292 0.75909 0.0
C127 C 1.00763 0.75683 0.75747 0.0
C128 C 0.99299 0.84277 0.79244 0.0
C129 C 1.00261 0.65528 0.70166 0.0
C130 C 0.8953 0.54793 0.56887 0.0
C131 C 0.8917 0.7547 0.21284 0.0
C132 C 0.83384 0.73265 0.62646 0.0
C133 C 0.81501 0.75141 0.53361 0.0
C134 C 0.80131 0.83599 0.59599 0.0
C135 C 0.80976 0.67572 0.39975 0.0
C136 C 0.77734 0.76554 0.3992 0.0
C137 C 0.7912 0.68294 0.3329 0.0
C138 C 0.78269 0.84323 0.52892 0.0
C139 C 0.88511 0.95541 0.58879 0.0
O140 O 0.90793 0.75699 0.92964 0.0
O141 O 0.87541 0.74906 0.93372 0.0
O142 O 0.94159 0.63697 0.69753 0.0
O143 O 0.93922 0.79864 0.55819 0.0
O144 O 0.91131 0.55711 0.48712 0.0
O145 O 0.89053 0.6284 0.6772 0.0
O146 O 0.87554 0.74618 0.30229 0.0
O147 O 0.90788 0.76011 0.30322 0.0
O148 O 0.84001 0.81335 0.71977 0.0
O149 O 0.84724 0.66941 0.53664 0.0
O150 O 0.86697 0.95392 0.57427 0.0
O151 O 0.89239 0.85917 0.6154 0.0
H152 H 0.9805 0.5635 0.61943 0.0
H153 H 0.96319 0.89787 0.77817 0.0
H154 H 0.9961 0.92165 0.84031 0.0
H155 H 1.01323 0.58743 0.67117 0.0
H156 H 0.80479 0.89464 0.70138 0.0
H157 H 0.81986 0.60867 0.35039 0.0
H158 H 0.78768 0.62301 0.23017 0.0
H159 H 0.77236 0.90755 0.58382 0.0
Gd160 Gd 0.66718 0.75823 1.05695 0.0
Gd161 Gd 0.62344 0.7964 0.06785 0.0
C162 C 0.64514 0.77495 0.4677 0.0
C163 C 0.70274 0.77991 0.07218 0.0
C164 C 0.72049 0.77567 0.18305 0.0
C165 C 0.73091 0.676 0.23555 0.0
C166 C 0.72844 0.87233 0.21271 0.0
C167 C 0.75741 0.7696 0.33365 0.0
C168 C 0.74666 0.86947 0.28762 0.0
C169 C 0.74915 0.6731 0.31062 0.0
C170 C 0.65014 0.5762 1.04341 0.0
C171 C 0.64542 0.77552 0.65719 0.0
C172 C 0.58784 0.78512 1.03867 0.0
C173 C 0.56731 0.78032 1.02321 0.0
C174 C 0.55436 0.86796 0.08725 0.0
C175 C 0.56046 0.6877 0.94826 0.0
C176 C 0.52809 0.76959 1.00637 0.0
C177 C 0.54102 0.68231 0.94024 0.0
C178 C 0.53496 0.8627 0.07878 0.0
C179 C 0.6407 0.97754 0.08204 0.0
O180 O 0.66103 0.78365 0.37418 0.0
O181 O 0.62913 0.76322 0.38002 0.0
O182 O 0.69643 0.68845 1.02728 0.0
O183 O 0.68928 0.85987 0.10631 0.0
O184 O 0.66632 0.58395 0.96341 0.0
O185 O 0.64484 0.65959 0.14247 0.0
O186 O 0.62955 0.76838 0.75131 0.0
O187 O 0.66144 0.78675 0.74413 0.0
O188 O 0.59456 0.87254 0.09886 0.0
O189 O 0.60058 0.70327 0.99319 0.0
O190 O 0.62466 0.96988 0.16429 0.0
O191 O 0.64573 0.89441 0.98141 0.0
H192 H 0.72526 0.59994 0.21341 0.0
H193 H 0.72084 0.95014 0.17067 0.0
H194 H 0.75261 0.94521 0.30188 0.0
H195 H 0.75689 0.59492 0.34799 0.0
H196 H 0.55923 0.94002 0.14681 0.0
H197 H 0.57013 0.61921 0.89676 0.0
H198 H 0.53608 0.61011 0.88166 0.0
H199 H 0.52532 0.93026 0.13377 0.0
Gd200 Gd 0.36842 0.77377 1.05688 0.0
Gd201 Gd 0.41216 0.73554 0.06778 0.0
C202 C 0.39046 0.75701 0.46763 0.0
C203 C 0.33286 0.75219 0.07212 0.0
C204 C 0.31511 0.75641 0.18304 0.0
C205 C 0.30469 0.85607 0.23566 0.0
C206 C 0.30716 0.65975 0.21264 0.0
C207 C 0.2782 0.76247 0.33373 0.0
C208 C 0.28893 0.66261 0.28759 0.0
C209 C 0.28646 0.85897 0.31077 0.0
C210 C 0.38547 0.95576 1.0433 0.0
C211 C 0.39018 0.75644 0.65711 0.0
C212 C 0.44776 0.74682 1.03861 0.0
C213 C 0.46829 0.75162 1.02315 0.0
C214 C 0.48124 0.66398 0.08719 0.0
C215 C 0.47513 0.84425 0.94823 0.0
C216 C 0.50751 0.76237 1.00637 0.0
C217 C 0.49458 0.84965 0.94024 0.0
C218 C 0.50064 0.66925 0.07874 0.0
C219 C 0.3949 0.55443 0.08197 0.0
O220 O 0.37457 0.74833 0.3741 0.0
O221 O 0.40647 0.76872 0.37995 0.0
O222 O 0.33918 0.84365 1.02739 0.0
O223 O 0.34632 0.67217 0.10604 0.0
O224 O 0.36929 0.94803 0.96326 0.0
O225 O 0.39076 0.87238 0.14241 0.0
O226 O 0.40605 0.76355 0.75124 0.0
O227 O 0.37416 0.74524 0.74405 0.0
O228 O 0.44104 0.65941 0.09883 0.0
O229 O 0.43502 0.82866 0.99309 0.0
O230 O 0.41094 0.56206 0.16418 0.0
O231 O 0.38987 0.63756 0.98135 0.0
H232 H 0.31035 0.93214 0.21358 0.0
H233 H 0.31476 0.58195 0.1705 0.0
H234 H 0.28299 0.58687 0.30179 0.0
H235 H 0.27872 0.93714 0.34823 0.0
H236 H 0.47637 0.59192 0.14672 0.0
H237 H 0.46547 0.91274 0.89674 0.0
H238 H 0.49952 0.92185 0.88168 0.0
H239 H 0.51028 0.60169 0.13374 0.0
Gd240 Gd 0.62355 0.29642 1.05661 0.0
Gd241 Gd 0.66732 0.25728 0.06748 0.0
C242 C 0.64556 0.27528 0.46735 0.0
C243 C 0.58791 0.28508 0.08538 0.0
C244 C 0.56737 0.28027 0.10058 0.0
C245 C 0.55442 0.36797 1.03673 0.0
C246 C 0.5605 0.18758 0.17505 0.0
C247 C 0.5281 0.26957 0.1169 0.0
C248 C 0.54104 0.18221 0.1828 0.0
C249 C 0.535 0.36274 1.04496 0.0
C250 C 0.64085 0.47738 1.04296 0.0
C251 C 0.64528 0.2749 0.65685 0.0
C252 C 0.70299 0.27644 1.05346 0.0
C253 C 0.72064 0.27487 0.94161 0.0
C254 C 0.73142 0.17636 0.88837 0.0
C255 C 0.72817 0.37287 0.91173 0.0
C256 C 0.7573 0.27394 0.7867 0.0
C257 C 0.74626 0.37252 0.83474 0.0
C258 C 0.74952 0.17597 0.81116 0.0
C259 C 0.65002 0.07618 0.08241 0.0
O260 O 0.62966 0.26869 0.37329 0.0
O261 O 0.66161 0.28558 0.38041 0.0
O262 O 0.59465 0.37226 1.02426 0.0
O263 O 0.60067 0.2035 0.13214 0.0
O264 O 0.62475 0.47008 0.9618 0.0
O265 O 0.64596 0.39401 0.14277 0.0
O266 O 0.66117 0.28356 0.75042 0.0
O267 O 0.62926 0.26332 0.74448 0.0
O268 O 0.69649 0.18425 0.08861 0.0
O269 O 0.68965 0.3583 1.02851 0.0
O270 O 0.6661 0.08387 0.16446 0.0
O271 O 0.64491 0.15936 0.98218 0.0
H272 H 0.55929 0.44012 0.97755 0.0
H273 H 0.57015 0.11902 0.22639 0.0
H274 H 0.53609 0.10996 0.24109 0.0
H275 H 0.52537 0.43039 0.99015 0.0
H276 H 0.72612 0.09928 0.91119 0.0
H277 H 0.72034 0.44987 0.95472 0.0
H278 H 0.75186 0.44931 0.81981 0.0
H279 H 0.75752 0.09868 0.77265 0.0
Gd280 Gd 0.41206 0.23556 1.05654 0.0
Gd281 Gd 0.36828 0.27464 0.0674 0.0
C282 C 0.39005 0.25669 0.46728 0.0
C283 C 0.44769 0.24691 0.08532 0.0
C284 C 0.46824 0.25172 0.10052 0.0
C285 C 0.48119 0.16402 1.03664 0.0
C286 C 0.47511 0.3444 0.17504 0.0
C287 C 0.5075 0.26242 0.11689 0.0
C288 C 0.49456 0.34977 0.18281 0.0
C289 C 0.50061 0.16926 1.0449 0.0
C290 C 0.39476 0.05457 1.0429 0.0
C291 C 0.39033 0.25707 0.65678 0.0
C292 C 0.33262 0.25537 1.05338 0.0
C293 C 0.31497 0.25695 0.94154 0.0
C294 C 0.30419 0.35548 0.88837 0.0
C295 C 0.30744 0.15895 0.91159 0.0
C296 C 0.27831 0.2579 0.78664 0.0
C297 C 0.28935 0.15931 0.83461 0.0
C298 C 0.28608 0.35587 0.81117 0.0
C299 C 0.38557 0.45578 0.08229 0.0
O300 O 0.40594 0.2633 0.37321 0.0
O301 O 0.37399 0.24635 0.38034 0.0
O302 O 0.44096 0.15972 1.0242 0.0
O303 O 0.43494 0.32849 0.13206 0.0
O304 O 0.41086 0.06189 0.96171 0.0
O305 O 0.38965 0.13795 0.14271 0.0
O306 O 0.37444 0.24839 0.75034 0.0
O307 O 0.40634 0.26866 0.74441 0.0
O308 O 0.33911 0.34755 0.08875 0.0
O309 O 0.34597 0.17356 1.02822 0.0
O310 O 0.36949 0.44808 0.16429 0.0
O311 O 0.39069 0.37259 0.9821 0.0
H312 H 0.47631 0.09189 0.97743 0.0
H313 H 0.46546 0.41295 0.2264 0.0
H314 H 0.49951 0.42201 0.24114 0.0
H315 H 0.51024 0.10161 0.99008 0.0
H316 H 0.30948 0.43255 0.91125 0.0
H317 H 0.31527 0.08195 0.95453 0.0
H318 H 0.28376 0.08253 0.81963 0.0
H319 H 0.27809 0.43316 0.77271 0.0
loop_
_geom_bond_atom_site_label_1
_geom_bond_atom_site_label_2
_geom_bond_distance
_geom_bond_site_symmetry_2
_ccdc_geom_bond_type
Gd0 C3 2.818 . S
Gd0 O20 2.377 . S
Gd0 O22 2.448 . S
Gd0 O23 2.506 . S
Gd0 O24 2.435 . S
Gd0 O25 2.717 . S
Gd0 O27 2.395 . S
Gd0 O31 2.327 . S
Gd1 C12 2.818 . S
Gd1 O21 2.395 . S
Gd1 O25 2.327 . S
Gd1 O26 2.377 . S
Gd1 O28 2.448 . S
Gd1 O29 2.506 . S
Gd1 O30 2.435 . S
Gd1 O31 2.717 . S
C2 O20 1.240 . S
C2 O21 1.240 . S
C3 Gd0 2.818 . S
C3 C4 1.510 . S
C3 O22 1.249 . S
C3 O23 1.252 . S
C4 C3 1.510 . S
C4 C5 1.404 . S
C4 C6 1.352 . S
C5 C4 1.404 . S
C5 C9 1.389 . S
C5 H32 0.930 . S
C6 C4 1.352 . S
C6 C8 1.374 . S
C6 H33 0.931 . S
C7 C8 1.359 . S
C7 C9 1.364 . S
C8 C6 1.374 . S
C8 C7 1.359 . S
C8 H34 0.931 . S
C9 C5 1.389 . S
C9 C7 1.364 . S
C9 H35 0.931 . S
C10 O24 1.256 . S
C10 O25 1.257 . S
C11 O26 1.240 . S
C11 O27 1.240 . S
C12 Gd1 2.818 . S
C12 C13 1.510 . S
C12 O28 1.249 . S
C12 O29 1.252 . S
C13 C12 1.510 . S
C13 C14 1.404 . S
C13 C15 1.352 . S
C14 C13 1.404 . S
C14 C18 1.389 . S
C14 H36 0.930 . S
C15 C13 1.352 . S
C15 C17 1.374 1_554 S
C15 H37 0.931 . S
C16 C17 1.359 . S
C16 C18 1.364 1_556 S
C17 C15 1.374 1_556 S
C17 C16 1.359 . S
C17 H38 0.931 . S
C18 C14 1.389 . S
C18 C16 1.364 1_554 S
C18 H39 0.931 . S
C19 O30 1.256 . S
C19 O31 1.257 . S
O20 Gd0 2.377 . S
O20 C2 1.240 . S
O21 Gd1 2.395 . S
O21 C2 1.240 . S
O22 Gd0 2.448 . S
O22 C3 1.249 . S
O23 Gd0 2.506 . S
O23 C3 1.252 . S
O24 Gd0 2.435 . S
O24 C10 1.256 . S
O25 Gd0 2.717 . S
O25 Gd1 2.327 . S
O25 C10 1.257 . S
O26 Gd1 2.377 . S
O26 C11 1.240 . S
O27 Gd0 2.395 . S
O27 C11 1.240 . S
O28 Gd1 2.448 . S
O28 C12 1.249 . S
O29 Gd1 2.506 . S
O29 C12 1.252 . S
O30 Gd1 2.435 . S
O30 C19 1.256 . S
O31 Gd0 2.327 . S
O31 Gd1 2.717 . S
O31 C19 1.257 . S
H32 C5 0.930 . S
H33 C6 0.931 . S
H34 C8 0.931 . S
H35 C9 0.931 . S
H36 C14 0.930 . S
H37 C15 0.931 . S
H38 C17 0.931 . S
H39 C18 0.931 . S
Gd40 C43 2.818 . S
Gd40 O60 2.377 . S
Gd40 O62 2.448 . S
Gd40 O63 2.506 . S
Gd40 O64 2.435 . S
Gd40 O65 2.717 . S
Gd40 O67 2.395 . S
Gd40 O71 2.327 . S
Gd41 C52 2.818 . S
Gd41 O61 2.395 . S
Gd41 O65 2.327 . S
Gd41 O66 2.377 . S
Gd41 O68 2.448 . S
Gd41 O69 2.506 . S
Gd41 O70 2.435 . S
Gd41 O71 2.717 . S
C42 O60 1.240 . S
C42 O61 1.240 . S
C43 Gd40 2.818 . S
C43 C44 1.510 . S
C43 O62 1.249 . S
C43 O63 1.252 . S
C44 C43 1.510 . S
C44 C45 1.404 . S
C44 C46 1.352 . S
C45 C44 1.404 . S
C45 C49 1.389 . S
C45 H72 0.930 . S
C46 C44 1.352 . S
C46 C48 1.374 . S
C46 H73 0.931 . S
C47 C48 1.359 . S
C47 C49 1.364 . S
C48 C46 1.374 . S
C48 C47 1.359 . S
C48 H74 0.931 . S
C49 C45 1.389 . S
C49 C47 1.364 . S
C49 H75 0.931 . S
C50 O64 1.256 . S
C50 O65 1.257 . S
C51 O66 1.240 . S
C51 O67 1.240 . S
C52 Gd41 2.818 . S
C52 C53 1.510 . S
C52 O68 1.249 . S
C52 O69 1.252 . S
C53 C52 1.510 . S
C53 C54 1.404 . S
C53 C55 1.352 . S
C54 C53 1.404 . S
C54 C58 1.389 . S
C54 H76 0.930 . S
C55 C53 1.352 . S
C55 C57 1.374 1_554 S
C55 H77 0.931 . S
C56 C57 1.359 . S
C56 C58 1.364 1_556 S
C57 C55 1.374 1_556 S
C57 C56 1.359 . S
C57 H78 0.931 . S
C58 C54 1.389 . S
C58 C56 1.364 1_554 S
C58 H79 0.931 . S
C59 O70 1.256 . S
C59 O71 1.257 . S
O60 Gd40 2.377 . S
O60 C42 1.240 . S
O61 Gd41 2.395 . S
O61 C42 1.240 . S
O62 Gd40 2.448 . S
O62 C43 1.249 . S
O63 Gd40 2.506 . S
O63 C43 1.252 . S
O64 Gd40 2.435 . S
O64 C50 1.256 . S
O65 Gd40 2.717 . S
O65 Gd41 2.327 . S
O65 C50 1.257 . S
O66 Gd41 2.377 . S
O66 C51 1.240 . S
O67 Gd40 2.395 . S
O67 C51 1.240 . S
O68 Gd41 2.448 . S
O68 C52 1.249 . S
O69 Gd41 2.506 . S
O69 C52 1.252 . S
O70 Gd41 2.435 . S
O70 C59 1.256 . S
O71 Gd40 2.327 . S
O71 Gd41 2.717 . S
O71 C59 1.257 . S
H72 C45 0.930 . S
H73 C46 0.931 . S
H74 C48 0.931 . S
H75 C49 0.931 . S
H76 C54 0.930 . S
H77 C55 0.931 . S
H78 C57 0.931 . S
H79 C58 0.931 . S
Gd80 C83 2.818 . S
Gd80 O100 2.377 . S
Gd80 O102 2.448 . S
Gd80 O103 2.506 . S
Gd80 O104 2.435 . S
Gd80 O105 2.717 . S
Gd80 O107 2.395 . S
Gd80 O111 2.327 . S
Gd81 C92 2.818 . S
Gd81 O101 2.395 . S
Gd81 O105 2.327 . S
Gd81 O106 2.377 . S
Gd81 O108 2.448 . S
Gd81 O109 2.506 . S
Gd81 O110 2.435 . S
Gd81 O111 2.717 . S
C82 O100 1.240 . S
C82 O101 1.240 . S
C83 Gd80 2.818 . S
C83 C84 1.510 . S
C83 O102 1.249 . S
C83 O103 1.252 . S
C84 C83 1.510 . S
C84 C85 1.404 . S
C84 C86 1.352 . S
C85 C84 1.404 . S
C85 C89 1.389 . S
C85 H112 0.930 . S
C86 C84 1.352 . S
C86 C88 1.374 1_556 S
C86 H113 0.931 . S
C87 C88 1.359 . S
C87 C89 1.364 1_554 S
C88 C86 1.374 1_554 S
C88 C87 1.359 . S
C88 H114 0.931 . S
C89 C85 1.389 . S
C89 C87 1.364 1_556 S
C89 H115 0.931 . S
C90 O104 1.256 . S
C90 O105 1.257 . S
C91 O106 1.240 . S
C91 O107 1.240 . S
C92 Gd81 2.818 . S
C92 C93 1.510 . S
C92 O108 1.249 . S
C92 O109 1.252 . S
C93 C92 1.510 . S
C93 C94 1.404 . S
C93 C95 1.352 . S
C94 C93 1.404 . S
C94 C98 1.389 . S
C94 H116 0.930 . S
C95 C93 1.352 . S
C95 C97 1.374 . S
C95 H117 0.931 . S
C96 C97 1.359 . S
C96 C98 1.364 . S
C97 C95 1.374 . S
C97 C96 1.359 . S
C97 H118 0.931 . S
C98 C94 1.389 . S
C98 C96 1.364 . S
C98 H119 0.931 . S
C99 O110 1.256 . S
C99 O111 1.257 . S
O100 Gd80 2.377 . S
O100 C82 1.240 . S
O101 Gd81 2.395 . S
O101 C82 1.240 . S
O102 Gd80 2.448 . S
O102 C83 1.249 . S
O103 Gd80 2.506 . S
O103 C83 1.252 . S
O104 Gd80 2.435 . S
O104 C90 1.256 . S
O105 Gd80 2.717 . S
O105 Gd81 2.327 . S
O105 C90 1.257 . S
O106 Gd81 2.377 . S
O106 C91 1.240 . S
O107 Gd80 2.395 . S
O107 C91 1.240 . S
O108 Gd81 2.448 . S
O108 C92 1.249 . S
O109 Gd81 2.506 . S
O109 C92 1.252 . S
O110 Gd81 2.435 . S
O110 C99 1.256 . S
O111 Gd80 2.327 . S
O111 Gd81 2.717 . S
O111 C99 1.257 . S
H112 C85 0.930 . S
H113 C86 0.931 . S
H114 C88 0.931 . S
H115 C89 0.931 . S
H116 C94 0.930 . S
H117 C95 0.931 . S
H118 C97 0.931 . S
H119 C98 0.931 . S
Gd120 C123 2.818 . S
Gd120 O140 2.377 . S
Gd120 O142 2.448 . S
Gd120 O143 2.506 . S
Gd120 O144 2.435 . S
Gd120 O145 2.717 . S
Gd120 O147 2.395 . S
Gd120 O151 2.327 . S
Gd121 C132 2.818 . S
Gd121 O141 2.395 . S
Gd121 O145 2.327 . S
Gd121 O146 2.377 . S
Gd121 O148 2.448 . S
Gd121 O149 2.506 . S
Gd121 O150 2.435 . S
Gd121 O151 2.717 . S
C122 O140 1.240 . S
C122 O141 1.240 . S
C123 Gd120 2.818 . S
C123 C124 1.510 . S
C123 O142 1.249 . S
C123 O143 1.252 . S
C124 C123 1.510 . S
C124 C125 1.404 . S
C124 C126 1.352 . S
C125 C124 1.404 . S
C125 C129 1.389 . S
C125 H152 0.930 . S
C126 C124 1.352 . S
C126 C128 1.374 1_556 S
C126 H153 0.931 . S
C127 C128 1.359 . S
C127 C129 1.364 1_554 S
C128 C126 1.374 1_554 S
C128 C127 1.359 . S
C128 H154 0.931 . S
C129 C125 1.389 . S
C129 C127 1.364 1_556 S
C129 H155 0.931 . S
C130 O144 1.256 . S
C130 O145 1.257 . S
C131 O146 1.240 . S
C131 O147 1.240 . S
C132 Gd121 2.818 . S
C132 C133 1.510 . S
C132 O148 1.249 . S
C132 O149 1.252 . S
C133 C132 1.510 . S
C133 C134 1.404 . S
C133 C135 1.352 . S
C134 C133 1.404 . S
C134 C138 1.389 . S
C134 H156 0.930 . S
C135 C133 1.352 . S
C135 C137 1.374 . S
C135 H157 0.931 . S
C136 C137 1.359 . S
C136 C138 1.364 . S
C137 C135 1.374 . S
C137 C136 1.359 . S
C137 H158 0.931 . S
C138 C134 1.389 . S
C138 C136 1.364 . S
C138 H159 0.931 . S
C139 O150 1.256 . S
C139 O151 1.257 . S
O140 Gd120 2.377 . S
O140 C122 1.240 . S
O141 Gd121 2.395 . S
O141 C122 1.240 . S
O142 Gd120 2.448 . S
O142 C123 1.249 . S
O143 Gd120 2.506 . S
O143 C123 1.252 . S
O144 Gd120 2.435 . S
O144 C130 1.256 . S
O145 Gd120 2.717 . S
O145 Gd121 2.327 . S
O145 C130 1.257 . S
O146 Gd121 2.377 . S
O146 C131 1.240 . S
O147 Gd120 2.395 . S
O147 C131 1.240 . S
O148 Gd121 2.448 . S
O148 C132 1.249 . S
O149 Gd121 2.506 . S
O149 C132 1.252 . S
O150 Gd121 2.435 . S
O150 C139 1.256 . S
O151 Gd120 2.327 . S
O151 Gd121 2.717 . S
O151 C139 1.257 . S
H152 C125 0.930 . S
H153 C126 0.931 . S
H154 C128 0.931 . S
H155 C129 0.931 . S
H156 C134 0.930 . S
H157 C135 0.931 . S
H158 C137 0.931 . S
H159 C138 0.931 . S
Gd160 C163 2.818 1_556 S
Gd160 O180 2.377 1_556 S
Gd160 O182 2.448 1_556 S
Gd160 O183 2.506 1_556 S
Gd160 O184 2.435 . S
Gd160 O185 2.717 . S
Gd160 O187 2.395 . S
Gd160 O191 2.327 1_556 S
Gd161 C172 2.818 1_554 S
Gd161 O181 2.395 . S
Gd161 O185 2.327 1_554 S
Gd161 O186 2.377 1_554 S
Gd161 O188 2.448 1_554 S
Gd161 O189 2.506 1_554 S
Gd161 O190 2.435 . S
Gd161 O191 2.717 . S
C162 O180 1.240 . S
C162 O181 1.240 . S
C163 Gd160 2.818 1_554 S
C163 C164 1.510 . S
C163 O182 1.249 . S
C163 O183 1.252 . S
C164 C163 1.510 . S
C164 C165 1.404 . S
C164 C166 1.352 . S
C165 C164 1.404 . S
C165 C169 1.389 . S
C165 H192 0.930 . S
C166 C164 1.352 . S
C166 C168 1.374 . S
C166 H193 0.931 . S
C167 C168 1.359 . S
C167 C169 1.364 . S
C168 C166 1.374 . S
C168 C167 1.359 . S
C168 H194 0.931 . S
C169 C165 1.389 . S
C169 C167 1.364 . S
C169 H195 0.931 . S
C170 O184 1.256 . S
C170 O185 1.257 . S
C171 O186 1.240 . S
C171 O187 1.240 . S
C172 Gd161 2.818 1_556 S
C172 C173 1.510 . S
C172 O188 1.249 . S
C172 O189 1.252 . S
C173 C172 1.510 . S
C173 C174 1.404 . S
C173 C175 1.352 . S
C174 C173 1.404 . S
C174 C178 1.389 . S
C174 H196 0.930 . S
C175 C173 1.352 . S
C175 C177 1.374 . S
C175 H197 0.931 . S
C176 C177 1.359 . S
C176 C178 1.364 . S
C177 C175 1.374 . S
C177 C176 1.359 . S
C177 H198 0.931 . S
C178 C174 1.389 . S
C178 C176 1.364 . S
C178 H199 0.931 . S
C179 O190 1.256 . S
C179 O191 1.257 . S
O180 Gd160 2.377 1_554 S
O180 C162 1.240 . S
O181 Gd161 2.395 . S
O181 C162 1.240 . S
O182 Gd160 2.448 1_554 S
O182 C163 1.249 . S
O183 Gd160 2.506 1_554 S
O183 C163 1.252 . S
O184 Gd160 2.435 . S
O184 C170 1.256 . S
O185 Gd160 2.717 . S
O185 Gd161 2.327 1_556 S
O185 C170 1.257 . S
O186 Gd161 2.377 1_556 S
O186 C171 1.240 . S
O187 Gd160 2.395 . S
O187 C171 1.240 . S
O188 Gd161 2.448 1_556 S
O188 C172 1.249 . S
O189 Gd161 2.506 1_556 S
O189 C172 1.252 . S
O190 Gd161 2.435 . S
O190 C179 1.256 . S
O191 Gd160 2.327 1_554 S
O191 Gd161 2.717 . S
O191 C179 1.257 . S
H192 C165 0.930 . S
H193 C166 0.931 . S
H194 C168 0.931 . S
H195 C169 0.931 . S
H196 C174 0.930 . S
H197 C175 0.931 . S
H198 C177 0.931 . S
H199 C178 0.931 . S
Gd200 C203 2.818 1_556 S
Gd200 O220 2.377 1_556 S
Gd200 O222 2.448 1_556 S
Gd200 O223 2.506 1_556 S
Gd200 O224 2.435 . S
Gd200 O225 2.717 . S
Gd200 O227 2.395 . S
Gd200 O231 2.327 1_556 S
Gd201 C212 2.818 1_554 S
Gd201 O221 2.395 . S
Gd201 O225 2.327 1_554 S
Gd201 O226 2.377 1_554 S
Gd201 O228 2.448 1_554 S
Gd201 O229 2.506 1_554 S
Gd201 O230 2.435 . S
Gd201 O231 2.717 . S
C202 O220 1.240 . S
C202 O221 1.240 . S
C203 Gd200 2.818 1_554 S
C203 C204 1.510 . S
C203 O222 1.249 . S
C203 O223 1.252 . S
C204 C203 1.510 . S
C204 C205 1.404 . S
C204 C206 1.352 . S
C205 C204 1.404 . S
C205 C209 1.389 . S
C205 H232 0.930 . S
C206 C204 1.352 . S
C206 C208 1.374 . S
C206 H233 0.931 . S
C207 C208 1.359 . S
C207 C209 1.364 . S
C208 C206 1.374 . S
C208 C207 1.359 . S
C208 H234 0.931 . S
C209 C205 1.389 . S
C209 C207 1.364 . S
C209 H235 0.931 . S
C210 O224 1.256 . S
C210 O225 1.257 . S
C211 O226 1.240 . S
C211 O227 1.240 . S
C212 Gd201 2.818 1_556 S
C212 C213 1.510 . S
C212 O228 1.249 . S
C212 O229 1.252 . S
C213 C212 1.510 . S
C213 C214 1.404 . S
C213 C215 1.352 . S
C214 C213 1.404 . S
C214 C218 1.389 . S
C214 H236 0.930 . S
C215 C213 1.352 . S
C215 C217 1.374 . S
C215 H237 0.931 . S
C216 C217 1.359 . S
C216 C218 1.364 . S
C217 C215 1.374 . S
C217 C216 1.359 . S
C217 H238 0.931 . S
C218 C214 1.389 . S
C218 C216 1.364 . S
C218 H239 0.931 . S
C219 O230 1.256 . S
C219 O231 1.257 . S
O220 Gd200 2.377 1_554 S
O220 C202 1.240 . S
O221 Gd201 2.395 . S
O221 C202 1.240 . S
O222 Gd200 2.448 1_554 S
O222 C203 1.249 . S
O223 Gd200 2.506 1_554 S
O223 C203 1.252 . S
O224 Gd200 2.435 . S
O224 C210 1.256 . S
O225 Gd200 2.717 . S
O225 Gd201 2.327 1_556 S
O225 C210 1.257 . S
O226 Gd201 2.377 1_556 S
O226 C211 1.240 . S
O227 Gd200 2.395 . S
O227 C211 1.240 . S
O228 Gd201 2.448 1_556 S
O228 C212 1.249 . S
O229 Gd201 2.506 1_556 S
O229 C212 1.252 . S
O230 Gd201 2.435 . S
O230 C219 1.256 . S
O231 Gd200 2.327 1_554 S
O231 Gd201 2.717 . S
O231 C219 1.257 . S
H232 C205 0.930 . S
H233 C206 0.931 . S
H234 C208 0.931 . S
H235 C209 0.931 . S
H236 C214 0.930 . S
H237 C215 0.931 . S
H238 C217 0.931 . S
H239 C218 0.931 . S
Gd240 C243 2.818 1_556 S
Gd240 O260 2.377 1_556 S
Gd240 O262 2.448 1_556 S
Gd240 O263 2.506 1_556 S
Gd240 O264 2.435 . S
Gd240 O265 2.717 . S
Gd240 O267 2.395 . S
Gd240 O271 2.327 1_556 S
Gd241 C252 2.818 1_554 S
Gd241 O261 2.395 . S
Gd241 O265 2.327 1_554 S
Gd241 O266 2.377 1_554 S
Gd241 O268 2.448 1_554 S
Gd241 O269 2.506 1_554 S
Gd241 O270 2.435 . S
Gd241 O271 2.717 . S
C242 O260 1.240 . S
C242 O261 1.240 . S
C243 Gd240 2.818 1_554 S
C243 C244 1.510 . S
C243 O262 1.249 . S
C243 O263 1.252 . S
C244 C243 1.510 . S
C244 C245 1.404 . S
C244 C246 1.352 . S
C245 C244 1.404 . S
C245 C249 1.389 . S
C245 H272 0.930 . S
C246 C244 1.352 . S
C246 C248 1.374 . S
C246 H273 0.931 . S
C247 C248 1.359 . S
C247 C249 1.364 . S
C248 C246 1.374 . S
C248 C247 1.359 . S
C248 H274 0.931 . S
C249 C245 1.389 . S
C249 C247 1.364 . S
C249 H275 0.931 . S
C250 O264 1.256 . S
C250 O265 1.257 . S
C251 O266 1.240 . S
C251 O267 1.240 . S
C252 Gd241 2.818 1_556 S
C252 C253 1.510 . S
C252 O268 1.249 . S
C252 O269 1.252 . S
C253 C252 1.510 . S
C253 C254 1.404 . S
C253 C255 1.352 . S
C254 C253 1.404 . S
C254 C258 1.389 . S
C254 H276 0.930 . S
C255 C253 1.352 . S
C255 C257 1.374 . S
C255 H277 0.931 . S
C256 C257 1.359 . S
C256 C258 1.364 . S
C257 C255 1.374 . S
C257 C256 1.359 . S
C257 H278 0.931 . S
C258 C254 1.389 . S
C258 C256 1.364 . S
C258 H279 0.931 . S
C259 O270 1.256 . S
C259 O271 1.257 . S
O260 Gd240 2.377 1_554 S
O260 C242 1.240 . S
O261 Gd241 2.395 . S
O261 C242 1.240 . S
O262 Gd240 2.448 1_554 S
O262 C243 1.249 . S
O263 Gd240 2.506 1_554 S
O263 C243 1.252 . S
O264 Gd240 2.435 . S
O264 C250 1.256 . S
O265 Gd240 2.717 . S
O265 Gd241 2.327 1_556 S
O265 C250 1.257 . S
O266 Gd241 2.377 1_556 S
O266 C251 1.240 . S
O267 Gd240 2.395 . S
O267 C251 1.240 . S
O268 Gd241 2.448 1_556 S
O268 C252 1.249 . S
O269 Gd241 2.506 1_556 S
O269 C252 1.252 . S
O270 Gd241 2.435 . S
O270 C259 1.256 . S
O271 Gd240 2.327 1_554 S
O271 Gd241 2.717 . S
O271 C259 1.257 . S
H272 C245 0.930 . S
H273 C246 0.931 . S
H274 C248 0.931 . S
H275 C249 0.931 . S
H276 C254 0.930 . S
H277 C255 0.931 . S
H278 C257 0.931 . S
H279 C258 0.931 . S
Gd280 C283 2.818 1_556 S
Gd280 O300 2.377 1_556 S
Gd280 O302 2.448 1_556 S
Gd280 O303 2.506 1_556 S
Gd280 O304 2.435 . S
Gd280 O305 2.717 . S
Gd280 O307 2.395 . S
Gd280 O311 2.327 1_556 S
Gd281 C292 2.818 1_554 S
Gd281 O301 2.395 . S
Gd281 O305 2.327 1_554 S
Gd281 O306 2.377 1_554 S
Gd281 O308 2.448 1_554 S
Gd281 O309 2.506 1_554 S
Gd281 O310 2.435 . S
Gd281 O311 2.717 . S
C282 O300 1.240 . S
C282 O301 1.240 . S
C283 Gd280 2.818 1_554 S
C283 C284 1.510 . S
C283 O302 1.249 . S
C283 O303 1.252 . S
C284 C283 1.510 . S
C284 C285 1.404 . S
C284 C286 1.352 . S
C285 C284 1.404 . S
C285 C289 1.389 . S
C285 H312 0.930 . S
C286 C284 1.352 . S
C286 C288 1.374 . S
C286 H313 0.931 . S
C287 C288 1.359 . S
C287 C289 1.364 . S
C288 C286 1.374 . S
C288 C287 1.359 . S
C288 H314 0.931 . S
C289 C285 1.389 . S
C289 C287 1.364 . S
C289 H315 0.931 . S
C290 O304 1.256 . S
C290 O305 1.257 . S
C291 O306 1.240 . S
C291 O307 1.240 . S
C292 Gd281 2.818 1_556 S
C292 C293 1.510 . S
C292 O308 1.249 . S
C292 O309 1.252 . S
C293 C292 1.510 . S
C293 C294 1.404 . S
C293 C295 1.352 . S
C294 C293 1.404 . S
C294 C298 1.389 . S
C294 H316 0.930 . S
C295 C293 1.352 . S
C295 C297 1.374 . S
C295 H317 0.931 . S
C296 C297 1.359 . S
C296 C298 1.364 . S
C297 C295 1.374 . S
C297 C296 1.359 . S
C297 H318 0.931 . S
C298 C294 1.389 . S
C298 C296 1.364 . S
C298 H319 0.931 . S
C299 O310 1.256 . S
C299 O311 1.257 . S
O300 Gd280 2.377 1_554 S
O300 C282 1.240 . S
O301 Gd281 2.395 . S
O301 C282 1.240 . S
O302 Gd280 2.448 1_554 S
O302 C283 1.249 . S
O303 Gd280 2.506 1_554 S
O303 C283 1.252 . S
O304 Gd280 2.435 . S
O304 C290 1.256 . S
O305 Gd280 2.717 . S
O305 Gd281 2.327 1_556 S
O305 C290 1.257 . S
O306 Gd281 2.377 1_556 S
O306 C291 1.240 . S
O307 Gd280 2.395 . S
O307 C291 1.240 . S
O308 Gd281 2.448 1_556 S
O308 C292 1.249 . S
O309 Gd281 2.506 1_556 S
O309 C292 1.252 . S
O310 Gd281 2.435 . S
O310 C299 1.256 . S
O311 Gd280 2.327 1_554 S
O311 Gd281 2.717 . S
O311 C299 1.257 . S
H312 C285 0.930 . S
H313 C286 0.931 . S
H314 C288 0.931 . S
H315 C289 0.931 . S
H316 C294 0.930 . S
H317 C295 0.931 . S
H318 C297 0.931 . S
H319 C298 0.931 . S
C7 C296 2.611 . S
C256 C47 2.611 . S
C207 C96 2.612 . S
C167 C136 2.611 . S
C90 C10 2.327 1_565 S
C50 C130 2.327 . S
C139 C59 2.327 1_565 S
C99 C19 2.327 . S
C170 C250 1.470 . S
C210 C290 1.470 1_565 S
C299 C219 1.469 . S
C259 C179 1.469 1_545 S
C11 C2 2.796 1_554 S
C51 C42 2.796 1_554 S
C91 C82 2.796 1_554 S
C122 C131 2.796 1_556 S
C162 C171 2.793 . S
C211 C202 2.793 . S
C242 C251 2.793 . S
C282 C291 2.793 . S
C16 C56 2.780 1_455 S
C127 C87 2.779 1_655 S
C176 C216 2.784 . S
C287 C247 2.784 . S
