# Generated by pormake.
# Topology wju, (5)-cn, num edge types: 1
# Building blocks:
#     Node 0, Type 0, BuildingBlock: BEQFEK_clean_sbu_0, # of connection points: 5
#     Node 1, Type 0, BuildingBlock: BEQFEK_clean_sbu_0, # of connection points: 5
#     Node 2, Type 0, BuildingBlock: BEQFEK_clean_sbu_0, # of connection points: 5
#     Node 3, Type 0, BuildingBlock: BEQFEK_clean_sbu_0, # of connection points: 5
#     Node 4, Type 0, BuildingBlock: BEQFEK_clean_sbu_0, # of connection points: 5
#     Node 5, Type 0, BuildingBlock: BEQFEK_clean_sbu_0, # of connection points: 5
#     Node 6, Type 0, BuildingBlock: BEQFEK_clean_sbu_0, # of connection points: 5
#     Node 7, Type 0, BuildingBlock: BEQFEK_clean_sbu_0, # of connection points: 5
#     Node 8, Type 0, BuildingBlock: BEQFEK_clean_sbu_0, # of connection points: 5
#     Node 9, Type 0, BuildingBlock: BEQFEK_clean_sbu_0, # of connection points: 5
#     Node 10, Type 0, BuildingBlock: BEQFEK_clean_sbu_0, # of connection points: 5
#     Node 11, Type 0, BuildingBlock: BEQFEK_clean_sbu_0, # of connection points: 5
#     Edge 12, Type (0, 0), BuildingBlock: AJUNOK_clean_linker_0, # of connection points: 2
#     Edge 13, Type (0, 0), BuildingBlock: AJUNOK_clean_linker_0, # of connection points: 2
#     Edge 14, Type (0, 0), BuildingBlock: AJUNOK_clean_linker_0, # of connection points: 2
#     Edge 15, Type (0, 0), BuildingBlock: AJUNOK_clean_linker_0, # of connection points: 2
#     Edge 16, Type (0, 0), BuildingBlock: AJUNOK_clean_linker_0, # of connection points: 2
#     Edge 17, Type (0, 0), BuildingBlock: AJUNOK_clean_linker_0, # of connection points: 2
#     Edge 18, Type (0, 0), BuildingBlock: AJUNOK_clean_linker_0, # of connection points: 2
#     Edge 19, Type (0, 0), BuildingBlock: AJUNOK_clean_linker_0, # of connection points: 2
#     Edge 20, Type (0, 0), BuildingBlock: AJUNOK_clean_linker_0, # of connection points: 2
#     Edge 21, Type (0, 0), BuildingBlock: AJUNOK_clean_linker_0, # of connection points: 2
#     Edge 22, Type (0, 0), BuildingBlock: AJUNOK_clean_linker_0, # of connection points: 2
#     Edge 23, Type (0, 0), BuildingBlock: AJUNOK_clean_linker_0, # of connection points: 2
#     Edge 24, Type (0, 0), BuildingBlock: AJUNOK_clean_linker_0, # of connection points: 2
#     Edge 25, Type (0, 0), BuildingBlock: AJUNOK_clean_linker_0, # of connection points: 2
#     Edge 26, Type (0, 0), BuildingBlock: AJUNOK_clean_linker_0, # of connection points: 2
#     Edge 27, Type (0, 0), BuildingBlock: AJUNOK_clean_linker_0, # of connection points: 2
#     Edge 28, Type (0, 0), BuildingBlock: AJUNOK_clean_linker_0, # of connection points: 2
#     Edge 29, Type (0, 0), BuildingBlock: AJUNOK_clean_linker_0, # of connection points: 2
#     Edge 30, Type (0, 0), BuildingBlock: AJUNOK_clean_linker_0, # of connection points: 2
#     Edge 31, Type (0, 0), BuildingBlock: AJUNOK_clean_linker_0, # of connection points: 2
#     Edge 32, Type (0, 0), BuildingBlock: AJUNOK_clean_linker_0, # of connection points: 2
#     Edge 33, Type (0, 0), BuildingBlock: AJUNOK_clean_linker_0, # of connection points: 2
#     Edge 34, Type (0, 0), BuildingBlock: AJUNOK_clean_linker_0, # of connection points: 2
#     Edge 35, Type (0, 0), BuildingBlock: AJUNOK_clean_linker_0, # of connection points: 2
#     Edge 36, Type (0, 0), BuildingBlock: AJUNOK_clean_linker_0, # of connection points: 2
#     Edge 37, Type (0, 0), BuildingBlock: AJUNOK_clean_linker_0, # of connection points: 2
#     Edge 38, Type (0, 0), BuildingBlock: AJUNOK_clean_linker_0, # of connection points: 2
#     Edge 39, Type (0, 0), BuildingBlock: AJUNOK_clean_linker_0, # of connection points: 2
#     Edge 40, Type (0, 0), BuildingBlock: AJUNOK_clean_linker_0, # of connection points: 2
#     Edge 41, Type (0, 0), BuildingBlock: AJUNOK_clean_linker_0, # of connection points: 2
# Relax obj value: 0.112
# Max RMSD: 0.140
# Mean RMSD: 0.140
data_MOF--net-wju--node1-BEQFEK_clean_sbu_0--edge1-AJUNOK_clean_linker_0
_symmetry_space_group_name_H-M    P1
_symmetry_Int_Tables_number       1
_symmetry_cell_setting            triclinic
loop_
_symmetry_equiv_pos_as_xyz
'x, y, z'
_cell_length_a     20.183643
_cell_length_b     20.171368
_cell_length_c     88.262231
_cell_angle_alpha  89.905741
_cell_angle_beta   90.018761
_cell_angle_gamma 120.06731
loop_
_atom_site_label
_atom_site_type_symbol
_atom_site_fract_x
_atom_site_fract_y
_atom_site_fract_z
_atom_type_partial_charge
Co0 Co 0.31387 0.19451 0.12474 0.0
Co1 Co 0.31604 0.18996 0.08906 0.0
C2 C 0.16866 0.12284 0.10684 0.0
O3 O 0.20427 0.14374 0.11936 0.0
O4 O 0.20511 0.139 0.09436 0.0
C5 C 0.2651 0.13431 0.15447 0.0
O6 O 0.20861 0.0799 0.14669 0.0
C7 C 0.27513 0.1034 0.06084 0.0
C8 C 0.34504 0.19043 0.0437 0.0
C9 C 0.29072 0.11351 0.04539 0.0
N10 N 0.31745 0.17112 0.06783 0.0
N11 N 0.35894 0.22305 0.05752 0.0
C12 C 0.22588 0.02994 0.06916 0.0
H13 H 0.2464 0.03367 0.08096 0.0
H14 H 0.22512 0.98102 0.06326 0.0
H15 H 0.16665 0.01954 0.0698 0.0
C16 C 0.39068 0.10373 0.12089 0.0
N17 N 0.3575 0.14191 0.11521 0.0
N18 N 0.36175 0.1428 0.10029 0.0
C19 C 0.39943 0.10653 0.09605 0.0
C20 C 0.41758 0.07963 0.10892 0.0
C21 C 0.39423 0.08899 0.13741 0.0
H22 H 0.42388 0.14434 0.14355 0.0
H23 H 0.33519 0.05561 0.14193 0.0
H24 H 0.4242 0.05646 0.13954 0.0
O25 O 0.37336 0.30349 0.1183 0.0
O26 O 0.37557 0.30285 0.09315 0.0
H27 H 0.43732 0.15654 0.07397 0.0
H28 H 0.47491 0.09628 0.0801 0.0
C29 C 0.42382 0.1034 0.08017 0.0
H30 H 0.37692 0.05378 0.0742 0.0
H31 H 0.39692 0.28058 0.05992 0.0
O32 O 0.31985 0.18952 0.14735 0.0
C33 C 0.39551 0.33911 0.10571 0.0
Co34 Co 0.11736 0.31317 0.45825 0.0
Co35 Co 0.13167 0.31608 0.42268 0.0
C36 C 0.04706 0.16786 0.44002 0.0
O37 O 0.05892 0.20318 0.45255 0.0
O38 O 0.07029 0.2047 0.42761 0.0
C39 C 0.1182 0.26221 0.48852 0.0
O40 O 0.11128 0.20237 0.48124 0.0
C41 C 0.18017 0.27995 0.39408 0.0
C42 C 0.17487 0.36114 0.37801 0.0
C43 C 0.19278 0.30322 0.379 0.0
N44 N 0.15627 0.32217 0.40157 0.0
N45 N 0.1528 0.37035 0.39188 0.0
C46 C 0.19574 0.22261 0.40161 0.0
H47 H 0.20379 0.23337 0.41398 0.0
H48 H 0.2473 0.22475 0.39664 0.0
H49 H 0.14617 0.16438 0.39982 0.0
C50 C 0.28588 0.389 0.45574 0.0
N51 N 0.21573 0.3566 0.44949 0.0
N52 N 0.22226 0.36053 0.4346 0.0
C53 C 0.29709 0.39713 0.43095 0.0
C54 C 0.33952 0.4156 0.44418 0.0
C55 C 0.30049 0.39111 0.4724 0.0
H56 H 0.2784 0.42509 0.47812 0.0
H57 H 0.26907 0.33201 0.47699 0.0
H58 H 0.36226 0.41601 0.47496 0.0
O59 O 0.0698 0.37421 0.45136 0.0
O60 O 0.07804 0.37522 0.42628 0.0
H61 H 0.29215 0.43606 0.40854 0.0
H62 H 0.3878 0.46764 0.41525 0.0
C63 C 0.32793 0.41919 0.41518 0.0
H64 H 0.3272 0.36966 0.4096 0.0
H65 H 0.1361 0.40999 0.39476 0.0
O66 O 0.12457 0.3189 0.48095 0.0
C67 C 0.05933 0.39592 0.43843 0.0
Co68 Co 0.80495 0.11422 0.79153 0.0
Co69 Co 0.81509 0.12462 0.75584 0.0
C70 C 0.87638 0.03938 0.77352 0.0
O71 O 0.85456 0.05381 0.78599 0.0
O72 O 0.86223 0.06107 0.76097 0.0
C73 C 0.86379 0.12304 0.82134 0.0
O74 O 0.91778 0.11996 0.81364 0.0
C75 C 0.8976 0.16604 0.72686 0.0
C76 C 0.81768 0.178 0.71155 0.0
C77 C 0.8894 0.18481 0.71215 0.0
N78 N 0.83354 0.14847 0.73465 0.0
N79 N 0.7856 0.15494 0.72537 0.0
C80 C 0.96818 0.17217 0.73375 0.0
H81 H 0.96879 0.18043 0.74618 0.0
H82 H 0.02024 0.22042 0.72859 0.0
H83 H 0.96913 0.11867 0.73144 0.0
C84 C 0.9002 0.28246 0.78821 0.0
N85 N 0.86108 0.21154 0.78232 0.0
N86 N 0.86463 0.21621 0.76741 0.0
C87 C 0.90572 0.29049 0.76337 0.0
C88 C 0.93023 0.33442 0.77639 0.0
C89 C 0.9101 0.29948 0.80482 0.0
H90 H 0.85319 0.27218 0.8104 0.0
H91 H 0.94327 0.27464 0.80981 0.0
H92 H 0.94095 0.36192 0.8071 0.0
O93 O 0.6959 0.06744 0.78496 0.0
O94 O 0.70238 0.07396 0.75984 0.0
H95 H 0.86179 0.28856 0.74116 0.0
H96 H 0.93649 0.3818 0.74705 0.0
C97 C 0.91653 0.3196 0.74742 0.0
H98 H 0.95976 0.30979 0.74171 0.0
H99 H 0.73188 0.14572 0.72858 0.0
O100 O 0.80945 0.12389 0.81419 0.0
C101 C 0.66336 0.05671 0.77206 0.0
Co102 Co 0.69681 0.81038 0.12443 0.0
Co103 Co 0.69708 0.81825 0.08885 0.0
C104 C 0.84306 0.89273 0.10686 0.0
O105 O 0.80629 0.87042 0.11926 0.0
O106 O 0.80824 0.87287 0.0942 0.0
C107 C 0.72626 0.87065 0.1548 0.0
O108 O 0.76493 0.93722 0.14795 0.0
C109 C 0.739 0.89647 0.05928 0.0
C110 C 0.64062 0.81957 0.04492 0.0
C111 C 0.70907 0.88853 0.04483 0.0
N112 N 0.6906 0.83492 0.06757 0.0
N113 N 0.63242 0.78864 0.05883 0.0
C114 C 0.80796 0.96532 0.06559 0.0
H115 H 0.79802 0.97416 0.07759 0.0
H116 H 0.82223 0.01752 0.05892 0.0
H117 H 0.85741 0.95571 0.06511 0.0
C118 C 0.60512 0.88708 0.12071 0.0
N119 N 0.64611 0.85674 0.11512 0.0
N120 N 0.64803 0.86207 0.1002 0.0
C121 C 0.60921 0.89717 0.0959 0.0
C122 C 0.58078 0.91367 0.10873 0.0
C123 C 0.58538 0.88642 0.13707 0.0
H124 H 0.57689 0.83339 0.14262 0.0
H125 H 0.63295 0.9366 0.14279 0.0
H126 H 0.53264 0.89015 0.13835 0.0
O127 O 0.64487 0.70261 0.11797 0.0
O128 O 0.64032 0.70443 0.0929 0.0
H129 H 0.56948 0.86421 0.07319 0.0
H130 H 0.57275 0.95138 0.07916 0.0
C131 C 0.60203 0.9174 0.07989 0.0
H132 H 0.65976 0.95175 0.07488 0.0
H133 H 0.58576 0.73725 0.06253 0.0
O134 O 0.69088 0.81005 0.14692 0.0
C135 C 0.62276 0.66743 0.1054 0.0
Co136 Co 0.89178 0.69565 0.45801 0.0
Co137 Co 0.87719 0.6954 0.4226 0.0
C138 C 0.95128 0.84193 0.44027 0.0
O139 O 0.93976 0.80564 0.45269 0.0
O140 O 0.9339 0.80665 0.42766 0.0
C141 C 0.862 0.72555 0.48825 0.0
O142 O 0.83177 0.76156 0.48124 0.0
C143 C 0.83797 0.7361 0.39325 0.0
C144 C 0.81534 0.63736 0.3789 0.0
C145 C 0.81547 0.70609 0.37882 0.0
N146 N 0.85092 0.68754 0.4015 0.0
N147 N 0.83815 0.62905 0.39278 0.0
C148 C 0.83965 0.80577 0.39955 0.0
H149 H 0.81998 0.79567 0.41151 0.0
H150 H 0.80315 0.82151 0.3928 0.0
H151 H 0.89937 0.85434 0.39927 0.0
C152 C 0.72221 0.60264 0.45551 0.0
N153 N 0.79264 0.64379 0.44943 0.0
N154 N 0.78647 0.64592 0.43458 0.0
C155 C 0.71178 0.60716 0.43081 0.0
C156 C 0.66907 0.57888 0.44393 0.0
C157 C 0.70587 0.58166 0.4719 0.0
H158 H 0.75192 0.57406 0.47696 0.0
H159 H 0.70281 0.62803 0.47801 0.0
H160 H 0.65009 0.52805 0.47333 0.0
O161 O 0.94745 0.64359 0.45103 0.0
O162 O 0.93568 0.64028 0.42602 0.0
H163 H 0.70126 0.56669 0.40808 0.0
H164 H 0.61831 0.56987 0.41473 0.0
C165 C 0.68171 0.5994 0.41502 0.0
H166 H 0.70446 0.657 0.40994 0.0
H167 H 0.84294 0.5824 0.39644 0.0
O168 O 0.88895 0.69132 0.48052 0.0
C169 C 0.95805 0.62245 0.43809 0.0
Co170 Co 0.19245 0.8829 0.7913 0.0
Co171 Co 0.18302 0.87556 0.75575 0.0
C172 C 0.10743 0.94513 0.77387 0.0
O173 O 0.13168 0.93266 0.78624 0.0
O174 O 0.12611 0.92896 0.76123 0.0
C175 C 0.12259 0.84873 0.8203 0.0
O176 O 0.0626 0.8326 0.81191 0.0
C177 C 0.09894 0.82985 0.72715 0.0
C178 C 0.1872 0.84564 0.71046 0.0
C179 C 0.11039 0.82291 0.71191 0.0
N180 N 0.16571 0.8549 0.73448 0.0
N181 N 0.21841 0.86451 0.72443 0.0
C182 C 0.02659 0.81661 0.73456 0.0
H183 H 0.02551 0.80095 0.74665 0.0
H184 H 0.97545 0.7713 0.72865 0.0
H185 H 0.02427 0.87036 0.73401 0.0
C186 C 0.11835 0.71482 0.78745 0.0
N187 N 0.14703 0.78603 0.78181 0.0
N188 N 0.14246 0.78245 0.76689 0.0
C189 C 0.11065 0.70861 0.76261 0.0
C190 C 0.0943 0.66385 0.77551 0.0
C191 C 0.11796 0.69595 0.80387 0.0
H192 H 0.1721 0.739 0.8093 0.0
H193 H 0.06945 0.69678 0.80957 0.0
H194 H 0.11105 0.63817 0.80536 0.0
O195 O 0.30195 0.94049 0.78491 0.0
O196 O 0.296 0.93499 0.75977 0.0
H197 H 0.14653 0.71482 0.73954 0.0
H198 H 0.07553 0.61952 0.74559 0.0
C199 C 0.09455 0.68128 0.74655 0.0
H200 H 0.0483 0.68997 0.74203 0.0
H201 H 0.27561 0.88395 0.72709 0.0
O202 O 0.18663 0.87097 0.81379 0.0
C203 C 0.33501 0.95456 0.77201 0.0
Co204 Co 0.80432 0.69597 0.58403 0.0
Co205 Co 0.81114 0.6952 0.61952 0.0
C206 C 0.8919 0.84171 0.60145 0.0
O207 O 0.86808 0.80576 0.58901 0.0
O208 O 0.87106 0.80619 0.61404 0.0
C209 C 0.86635 0.72756 0.55404 0.0
O210 O 0.93092 0.76993 0.5613 0.0
C211 C 0.8962 0.73179 0.648 0.0
C212 C 0.80794 0.65898 0.66467 0.0
C213 C 0.88529 0.71245 0.66329 0.0
N214 N 0.82884 0.69157 0.64076 0.0
N215 N 0.77613 0.64845 0.65081 0.0
C216 C 0.97005 0.78344 0.64004 0.0
H217 H 0.96629 0.76742 0.62792 0.0
H218 H 0.01818 0.78062 0.64548 0.0
H219 H 0.9817 0.84327 0.64065 0.0
C220 C 0.8767 0.59976 0.58783 0.0
N221 N 0.84719 0.64162 0.5934 0.0
N222 N 0.84948 0.64079 0.60834 0.0
C223 C 0.88023 0.598 0.61269 0.0
C224 C 0.89877 0.5713 0.59988 0.0
C225 C 0.88698 0.59042 0.57133 0.0
H226 H 0.93492 0.64476 0.56689 0.0
H227 H 0.90102 0.54469 0.56927 0.0
H228 H 0.83418 0.57717 0.56505 0.0
O229 O 0.69582 0.64743 0.59057 0.0
O230 O 0.69797 0.64398 0.61569 0.0
H231 H 0.89656 0.52907 0.62943 0.0
H232 H 0.93945 0.62921 0.63387 0.0
C233 C 0.88865 0.57963 0.62877 0.0
H234 H 0.83721 0.56774 0.63539 0.0
H235 H 0.71869 0.6114 0.64819 0.0
O236 O 0.80472 0.68942 0.56153 0.0
C237 C 0.6608 0.62757 0.60324 0.0
Co238 Co 0.11839 0.81077 0.91721 0.0
Co239 Co 0.13041 0.81777 0.95275 0.0
C240 C 0.05738 0.8936 0.93518 0.0
O241 O 0.06778 0.87071 0.92244 0.0
O242 O 0.07639 0.87424 0.94744 0.0
C243 C 0.08103 0.81385 0.88589 0.0
O244 O 0.01886 0.80887 0.89175 0.0
C245 C 0.1858 0.9028 0.98128 0.0
C246 C 0.14489 0.81027 0.99831 0.0
C247 C 0.18271 0.88917 0.99671 0.0
N248 N 0.15178 0.83508 0.97401 0.0
N249 N 0.12783 0.77997 0.98427 0.0
C250 C 0.21501 0.97886 0.97371 0.0
H251 H 0.18451 0.00739 0.9783 0.0
H252 H 0.20736 0.97236 0.96125 0.0
H253 H 0.27656 0.01646 0.97635 0.0
C254 C 0.2866 0.89331 0.92025 0.0
N255 N 0.21607 0.85874 0.92636 0.0
N256 N 0.22171 0.85885 0.94124 0.0
C257 C 0.29618 0.89165 0.94502 0.0
C258 C 0.3393 0.91504 0.93187 0.0
C259 C 0.30293 0.9074 0.90367 0.0
H260 H 0.26738 0.92963 0.8987 0.0
H261 H 0.36425 0.9489 0.90149 0.0
H262 H 0.2875 0.85232 0.89808 0.0
O263 O 0.06277 0.7008 0.92372 0.0
O264 O 0.07109 0.70548 0.94882 0.0
H265 H 0.38033 0.8944 0.96043 0.0
H266 H 0.33793 0.95008 0.96607 0.0
C267 C 0.32592 0.89555 0.96072 0.0
H268 H 0.28349 0.84689 0.96765 0.0
H269 H 0.09802 0.72165 0.98173 0.0
O270 O 0.13083 0.81412 0.89475 0.0
C271 C 0.05027 0.66709 0.93654 0.0
Co272 Co 0.31336 0.1205 0.25052 0.0
Co273 Co 0.31557 0.13293 0.28609 0.0
C274 C 0.16785 0.05019 0.26868 0.0
O275 O 0.20336 0.06222 0.25616 0.0
O276 O 0.20444 0.0727 0.28111 0.0
C277 C 0.26292 0.12495 0.22047 0.0
O278 O 0.20429 0.11967 0.22796 0.0
C279 C 0.28216 0.1841 0.31464 0.0
C280 C 0.35135 0.16295 0.33125 0.0
C281 C 0.30054 0.18975 0.32986 0.0
N282 N 0.32073 0.15569 0.30725 0.0
N283 N 0.36197 0.14306 0.31726 0.0
C284 C 0.22593 0.2019 0.30735 0.0
H285 H 0.16709 0.15672 0.31046 0.0
H286 H 0.23194 0.20404 0.29484 0.0
H287 H 0.23411 0.25726 0.31159 0.0
C288 C 0.39015 0.28903 0.25331 0.0
N289 N 0.35717 0.21853 0.25946 0.0
N290 N 0.36105 0.22435 0.27435 0.0
C291 C 0.39833 0.29908 0.27811 0.0
C292 C 0.41718 0.34215 0.26493 0.0
C293 C 0.39225 0.3045 0.23667 0.0
H294 H 0.42512 0.28156 0.2308 0.0
H295 H 0.33305 0.27437 0.23217 0.0
H296 H 0.41821 0.36652 0.2342 0.0
O297 O 0.37386 0.07206 0.25724 0.0
O298 O 0.37405 0.07884 0.28234 0.0
H299 H 0.43437 0.29136 0.30065 0.0
H300 H 0.47134 0.38796 0.29382 0.0
C301 C 0.42074 0.32931 0.29389 0.0
H302 H 0.37264 0.33197 0.29932 0.0
H303 H 0.39704 0.12048 0.31457 0.0
O304 O 0.319 0.1289 0.22785 0.0
C305 C 0.39501 0.06069 0.27015 0.0
Co306 Co 0.18915 0.31438 0.58404 0.0
Co307 Co 0.18366 0.31441 0.61976 0.0
C308 C 0.12193 0.16791 0.60199 0.0
O309 O 0.14145 0.2046 0.58953 0.0
O310 O 0.13741 0.20341 0.61459 0.0
C311 C 0.12579 0.26609 0.55453 0.0
O312 O 0.07047 0.21121 0.56249 0.0
C313 C 0.10699 0.27136 0.64945 0.0
C314 C 0.18405 0.36959 0.66382 0.0
C315 C 0.11552 0.30075 0.66395 0.0
N316 N 0.16785 0.32031 0.64108 0.0
N317 N 0.21424 0.37847 0.64982 0.0
C318 C 0.038 0.20226 0.64326 0.0
H319 H 0.03306 0.2082 0.63088 0.0
H320 H 0.98521 0.19338 0.649 0.0
H321 H 0.04361 0.15117 0.64543 0.0
C322 C 0.09474 0.38727 0.58804 0.0
N323 N 0.13359 0.35462 0.59364 0.0
N324 N 0.13149 0.35536 0.60857 0.0
C325 C 0.09133 0.38898 0.6129 0.0
C326 C 0.06662 0.40969 0.60006 0.0
C327 C 0.08875 0.40086 0.57155 0.0
H328 H 0.14567 0.42434 0.5661 0.0
H329 H 0.04895 0.34552 0.56605 0.0
H330 H 0.06708 0.44114 0.56977 0.0
O331 O 0.29801 0.37771 0.59014 0.0
O332 O 0.29634 0.37877 0.61528 0.0
H333 H 0.13106 0.43256 0.63518 0.0
H334 H 0.04432 0.43194 0.62987 0.0
C335 C 0.07609 0.40045 0.62901 0.0
H336 H 0.04131 0.34392 0.63451 0.0
H337 H 0.26521 0.42551 0.64609 0.0
O338 O 0.18286 0.31943 0.56147 0.0
C339 C 0.33282 0.40086 0.60276 0.0
Co340 Co 0.89002 0.19727 0.9169 0.0
Co341 Co 0.87726 0.18655 0.95254 0.0
C342 C 0.96196 0.12384 0.93522 0.0
O343 O 0.94813 0.1449 0.92257 0.0
O344 O 0.9404 0.13939 0.94759 0.0
C345 C 0.87747 0.1364 0.88727 0.0
O346 O 0.87736 0.08095 0.89511 0.0
C347 C 0.83757 0.10549 0.98178 0.0
C348 C 0.8219 0.18439 0.99668 0.0
C349 C 0.81817 0.11396 0.9964 0.0
N350 N 0.85261 0.16824 0.97372 0.0
N351 N 0.84388 0.21556 0.98276 0.0
C352 C 0.83298 0.03497 0.9752 0.0
H353 H 0.82687 0.03408 0.96271 0.0
H354 H 0.78386 0.9829 0.98016 0.0
H355 H 0.88576 0.03383 0.9781 0.0
C356 C 0.72133 0.1084 0.91983 0.0
N357 N 0.79201 0.14339 0.92588 0.0
N358 N 0.78646 0.13835 0.94077 0.0
C359 C 0.71193 0.09981 0.94464 0.0
C360 C 0.66857 0.07955 0.93152 0.0
C361 C 0.70489 0.10741 0.90327 0.0
H362 H 0.74161 0.16528 0.89838 0.0
H363 H 0.71861 0.06703 0.89746 0.0
H364 H 0.6439 0.08925 0.90119 0.0
O365 O 0.93859 0.30648 0.92343 0.0
O366 O 0.92899 0.29927 0.94852 0.0
H367 H 0.7058 0.13534 0.96719 0.0
H368 H 0.61948 0.05037 0.96118 0.0
C369 C 0.68282 0.08159 0.96059 0.0
H370 H 0.7028 0.04494 0.96586 0.0
H371 H 0.85104 0.26828 0.97932 0.0
O372 O 0.88082 0.19304 0.8943 0.0
C373 C 0.94818 0.3387 0.93632 0.0
Co374 Co 0.69607 0.89459 0.25064 0.0
Co375 Co 0.69597 0.88069 0.28609 0.0
C376 C 0.84236 0.95508 0.26838 0.0
O377 O 0.80606 0.94318 0.25596 0.0
O378 O 0.8071 0.93775 0.281 0.0
C379 C 0.72582 0.86293 0.22062 0.0
O380 O 0.76243 0.83411 0.22789 0.0
C381 C 0.73633 0.84176 0.3155 0.0
C382 C 0.63715 0.81866 0.32978 0.0
C383 C 0.70586 0.81886 0.32991 0.0
N384 N 0.68798 0.85479 0.30721 0.0
N385 N 0.62926 0.84181 0.31589 0.0
C386 C 0.8061 0.84352 0.30924 0.0
H387 H 0.79627 0.82398 0.29728 0.0
H388 H 0.8217 0.80692 0.316 0.0
H389 H 0.85463 0.90328 0.30952 0.0
C390 C 0.60349 0.72486 0.25339 0.0
N391 N 0.64456 0.79551 0.25937 0.0
N392 N 0.64695 0.78968 0.27423 0.0
C393 C 0.60852 0.71503 0.2781 0.0
C394 C 0.58016 0.67197 0.26504 0.0
C395 C 0.58206 0.70803 0.23705 0.0
H396 H 0.57459 0.75407 0.23192 0.0
H397 H 0.62807 0.70444 0.23092 0.0
H398 H 0.52829 0.65229 0.23574 0.0
O399 O 0.64351 0.94996 0.25751 0.0
O400 O 0.6404 0.93858 0.28254 0.0
H401 H 0.56827 0.70471 0.30086 0.0
H402 H 0.57191 0.62189 0.2943 0.0
C403 C 0.60111 0.6853 0.29393 0.0
H404 H 0.65876 0.7084 0.29895 0.0
H405 H 0.58266 0.84649 0.31219 0.0
O406 O 0.69185 0.89092 0.22811 0.0
C407 C 0.62229 0.96055 0.27045 0.0
C408 C 0.31148 0.05788 0.02179 0.0
C409 C 0.26096 0.05575 0.03304 0.0
C410 C 0.28579 0.00397 1.01001 0.0
C411 C 0.20874 0.9459 1.0091 0.0
H412 H 0.37164 0.10098 0.0222 0.0
H413 H 0.32673 0.00698 1.0017 0.0
S414 S 0.0514 0.92029 0.03443 0.0
N415 N 0.12835 0.99524 0.0414 0.0
N416 N 0.08122 0.89175 1.01973 0.0
C417 C 0.15734 0.94377 1.02004 0.0
C418 C 0.18311 0.99936 0.03188 0.0
C419 C 0.19736 0.19664 0.36513 0.0
C420 C 0.22108 0.27507 0.36641 0.0
C421 C 0.2237 0.16939 0.3533 0.0
C422 C 0.2734 0.21935 0.34219 0.0
H423 H 0.15707 0.15557 0.37312 0.0
H424 H 0.20423 0.10869 0.35271 0.0
S425 S 0.35356 0.42921 0.34027 0.0
N426 N 0.29842 0.40222 0.35548 0.0
N427 N 0.34644 0.35025 0.33314 0.0
C428 C 0.29716 0.29745 0.34319 0.0
C429 C 0.27106 0.32545 0.35529 0.0
C430 C 0.97328 0.28625 0.69369 0.0
C431 C 0.94713 0.2131 0.69992 0.0
C432 C 0.02921 0.31495 0.68225 0.0
C433 C 0.05926 0.2706 0.67645 0.0
H434 H 0.951 0.32183 0.69781 0.0
H435 H 0.04806 0.37162 0.67773 0.0
S436 S 0.00888 0.07521 0.68882 0.0
N437 N 0.95532 0.09704 0.69951 0.0
N438 N 0.0592 0.15031 0.67778 0.0
C439 C 0.03321 0.19724 0.68252 0.0
C440 C 0.9774 0.16864 0.69434 0.0
C441 C 0.7186 0.02888 1.01506 0.0
C442 C 0.792 0.05722 1.00883 0.0
C443 C 0.69165 0.97312 0.02654 0.0
C444 C 0.73801 0.94543 0.0324 0.0
H445 H 0.68139 0.04911 1.01086 0.0
H446 H 0.63463 0.95238 0.03103 0.0
S447 S 0.93501 0.00252 1.02007 0.0
N448 N 0.9106 0.05398 1.00933 0.0
N449 N 0.8606 0.95032 0.03114 0.0
C450 C 0.81172 0.97386 0.02635 0.0
C451 C 0.83858 0.02953 1.01449 0.0
C452 C 0.6888 0.71818 0.34851 0.0
C453 C 0.73512 0.79184 0.34242 0.0
C454 C 0.71583 0.69037 0.36014 0.0
C455 C 0.78929 0.73608 0.3663 0.0
H456 H 0.6317 0.68142 0.34409 0.0
H457 H 0.6786 0.63317 0.3645 0.0
S458 S 0.93225 0.93334 0.35446 0.0
N459 N 0.85767 0.91 0.3434 0.0
N460 N 0.90797 0.85821 0.36546 0.0
C461 C 0.83588 0.81 0.3604 0.0
C462 C 0.80888 0.8378 0.34839 0.0
C463 C 0.05726 0.84313 0.68791 0.0
C464 C 0.05288 0.79414 0.69966 0.0
C465 C 0.00266 0.8167 0.67624 0.0
C466 C 0.94272 0.7399 0.67574 0.0
H467 H 0.10247 0.90257 0.68789 0.0
H468 H 0.00691 0.85729 0.66773 0.0
S469 S 0.90895 0.58834 0.70371 0.0
N470 N 0.98566 0.66557 0.71009 0.0
N471 N 0.88366 0.61516 0.68808 0.0
C472 C 0.93828 0.69046 0.68748 0.0
C473 C 0.99344 0.71765 0.69941 0.0
C474 C 0.56483 0.02178 0.11744 0.0
C475 C 0.53596 0.95256 0.10948 0.0
C476 C 0.52545 0.06241 0.11744 0.0
C477 C 0.45613 0.03443 0.10955 0.0
H478 H 0.61904 0.04548 0.12335 0.0
H479 H 0.55002 0.11668 0.12335 0.0
S480 S 0.35367 0.85252 0.0882 0.0
N481 N 0.43224 0.85523 0.09439 0.0
N482 N 0.35788 0.93175 0.09441 0.0
C483 C 0.42568 0.96423 0.10195 0.0
C484 C 0.4657 0.92302 0.10194 0.0
C485 C 0.46375 0.42522 0.43781 0.0
C486 C 0.42332 0.45504 0.44541 0.0
C487 C 0.54377 0.46475 0.43773 0.0
C488 C 0.58534 0.53513 0.44524 0.0
H489 H 0.43324 0.37161 0.4317 0.0
H490 H 0.57339 0.44093 0.43156 0.0
S491 S 0.50624 0.63778 0.46657 0.0
N492 N 0.43016 0.55892 0.4605 0.0
N493 N 0.58119 0.63317 0.46046 0.0
C494 C 0.54569 0.56481 0.45313 0.0
C495 C 0.46427 0.52471 0.45317 0.0
C496 C 0.98447 0.53959 0.78367 0.0
C497 C 0.05591 0.58012 0.77646 0.0
C498 C 0.94469 0.4595 0.78401 0.0
C499 C 0.97576 0.41823 0.77723 0.0
H500 H 0.95846 0.56999 0.78873 0.0
H501 H 0.88855 0.42965 0.78922 0.0
S502 S 0.16412 0.49837 0.75825 0.0
N503 N 0.15858 0.5742 0.76337 0.0
N504 N 0.08356 0.42306 0.76397 0.0
C505 C 0.04826 0.45825 0.77045 0.0
C506 C 0.08861 0.53961 0.7701 0.0
C507 C 0.05541 0.52408 0.60566 0.0
C508 C 0.02363 0.45051 0.5994 0.0
C509 C 0.01443 0.56301 0.60567 0.0
C510 C 0.94079 0.52944 0.59937 0.0
H511 H 0.11209 0.55139 0.61064 0.0
H512 H 0.04037 0.61967 0.61064 0.0
S513 S 0.83187 0.33702 0.58204 0.0
N514 N 0.91456 0.34497 0.58696 0.0
N515 N 0.83678 0.41821 0.5871 0.0
C516 C 0.90842 0.45597 0.59307 0.0
C517 C 0.95025 0.41644 0.59302 0.0
C518 C 0.54401 0.06909 0.93785 0.0
C519 C 0.58479 0.03921 0.93042 0.0
C520 C 0.4641 0.0286 0.93811 0.0
C521 C 0.42297 0.95777 0.93075 0.0
H522 H 0.5742 0.12341 0.94374 0.0
H523 H 0.43425 0.05253 0.94417 0.0
S524 S 0.50315 0.85594 0.9095 0.0
N525 N 0.5789 0.93548 0.91544 0.0
N526 N 0.42779 0.85963 0.91569 0.0
C527 C 0.4629 0.92821 0.92294 0.0
C528 C 0.54431 0.96911 0.92279 0.0
C529 C 0.42738 0.46644 0.27152 0.0
C530 C 0.45693 0.42605 0.26381 0.0
C531 C 0.46672 0.5465 0.27153 0.0
C532 C 0.53668 0.58816 0.26385 0.0
H533 H 0.37402 0.43587 0.27773 0.0
H534 H 0.44304 0.57608 0.27776 0.0
S535 S 0.63867 0.50918 0.24226 0.0
N536 N 0.56023 0.43302 0.24849 0.0
N537 N 0.63416 0.58412 0.24841 0.0
C538 C 0.56618 0.54854 0.2559 0.0
C539 C 0.52626 0.46708 0.25592 0.0
C540 C 0.33223 0.16476 0.19554 0.0
C541 C 0.26303 0.12626 0.20368 0.0
C542 C 0.33268 0.16796 0.17961 0.0
C543 C 0.26403 0.13126 0.17127 0.0
H544 H 0.38635 0.19368 0.20151 0.0
H545 H 0.38718 0.19864 0.1738 0.0
S546 S 0.06765 0.02137 0.18722 0.0
N547 N 0.12425 0.05036 0.20218 0.0
N548 N 0.12509 0.05487 0.17241 0.0
C549 C 0.19462 0.09183 0.1793 0.0
C550 C 0.19412 0.08978 0.19546 0.0
C551 C 0.16002 0.33197 0.51334 0.0
C552 C 0.11841 0.26287 0.50531 0.0
C553 C 0.16262 0.33271 0.52927 0.0
C554 C 0.12222 0.26459 0.53773 0.0
H555 H 0.19199 0.38566 0.50728 0.0
H556 H 0.19602 0.3871 0.53499 0.0
S557 S 0.00255 0.06887 0.52205 0.0
N558 N 0.03515 0.12485 0.507 0.0
N559 N 0.03841 0.12634 0.53679 0.0
C560 C 0.07934 0.19538 0.5298 0.0
C561 C 0.07793 0.19449 0.51363 0.0
C562 C 0.83581 0.16338 0.84634 0.0
C563 C 0.86687 0.12555 0.83813 0.0
C564 C 0.84029 0.16772 0.86224 0.0
C565 C 0.8743 0.13274 0.8705 0.0
H566 H 0.80896 0.19087 0.84043 0.0
H567 H 0.81603 0.19774 0.86812 0.0
S568 S 0.96278 0.02546 0.85439 0.0
N569 N 0.93259 0.05241 0.83949 0.0
N570 N 0.93931 0.05889 0.86926 0.0
C571 C 0.90472 0.09406 0.86242 0.0
C572 C 0.90152 0.09096 0.84627 0.0
C573 C 0.72778 0.92695 0.1801 0.0
C574 C 0.72401 0.86638 0.17154 0.0
C575 C 0.7266 0.92459 0.19599 0.0
C576 C 0.7239 0.86263 0.20388 0.0
H577 H 0.73096 0.97625 0.17447 0.0
H578 H 0.72951 0.9724 0.20215 0.0
S579 S 0.71315 0.68966 0.1868 0.0
N580 N 0.71601 0.74202 0.17214 0.0
N581 N 0.71654 0.73895 0.20199 0.0
C582 C 0.72036 0.80186 0.19547 0.0
C583 C 0.71962 0.80334 0.1793 0.0
C584 C 0.80333 0.7223 0.51336 0.0
C585 C 0.86338 0.72388 0.50499 0.0
C586 C 0.80375 0.72151 0.52926 0.0
C587 C 0.86536 0.7246 0.53731 0.0
H588 H 0.7553 0.72099 0.50759 0.0
H589 H 0.75638 0.72029 0.53528 0.0
S590 S 0.03641 0.72923 0.52074 0.0
N591 N 0.98533 0.72706 0.50592 0.0
N592 N 0.98741 0.72838 0.53579 0.0
C593 C 0.9258 0.72636 0.52909 0.0
C594 C 0.92444 0.72518 0.51292 0.0
C595 C 0.03805 0.82323 0.85975 0.0
C596 C 0.09345 0.82158 0.8692 0.0
C597 C 0.04816 0.83185 0.84402 0.0
C598 C 0.11434 0.83968 0.83701 0.0
H599 H 0.98622 0.8181 0.86451 0.0
H600 H 0.00377 0.83308 0.83734 0.0
S601 S 0.27631 0.8373 0.85644 0.0
N602 N 0.21662 0.82696 0.87022 0.0
N603 N 0.23583 0.84391 0.84069 0.0
C604 C 0.17026 0.83793 0.84626 0.0
C605 C 0.15974 0.82863 0.86231 0.0
C606 C 0.53888 0.54168 0.09206 0.0
C607 C 0.5678 0.58296 0.10564 0.0
C608 C 0.48231 0.46357 0.09214 0.0
C609 C 0.45164 0.42329 0.10581 0.0
H610 H 0.55961 0.56994 0.08123 0.0
H611 H 0.46279 0.43457 0.08136 0.0
S612 S 0.50691 0.50464 0.14461 0.0
N613 N 0.56083 0.57671 0.13323 0.0
N614 N 0.45473 0.43159 0.13335 0.0
C615 C 0.47992 0.46402 0.11948 0.0
C616 C 0.53786 0.54314 0.1194 0.0
C617 C 0.02451 0.48528 0.45124 0.0
C618 C 0.03198 0.45243 0.43774 0.0
C619 C 0.00343 0.54175 0.45112 0.0
C620 C 0.98823 0.56821 0.43749 0.0
H621 H 0.03556 0.46775 0.46212 0.0
H622 H 0.99798 0.56395 0.46192 0.0
S623 S 1.00009 0.50186 0.39885 0.0
N624 N 0.02318 0.45155 0.41022 0.0
N625 N 0.98297 0.55722 0.41 0.0
C626 C 0.99591 0.53636 0.42384 0.0
C627 C 0.01773 0.47871 0.42397 0.0
C628 C 0.46064 0.99685 0.78506 0.0
C629 C 0.41966 0.98549 0.77146 0.0
C630 C 0.53839 0.01833 0.78507 0.0
C631 C 0.57949 0.02986 0.77149 0.0
H632 H 0.43228 0.98792 0.79591 0.0
H633 H 0.56641 0.02612 0.79593 0.0
S634 S 0.50024 0.00972 0.73264 0.0
N635 N 0.42711 0.9889 0.74392 0.0
N636 N 0.57302 0.02948 0.74393 0.0
C637 C 0.53963 0.0196 0.75776 0.0
C638 C 0.4601 0.99757 0.75775 0.0
C639 C 0.5375 0.53508 0.61645 0.0
C640 C 0.57584 0.57554 0.60324 0.0
C641 C 0.45939 0.47863 0.61623 0.0
C642 C 0.41619 0.45971 0.60275 0.0
H643 H 0.56839 0.54561 0.62703 0.0
H644 H 0.43299 0.44896 0.62668 0.0
S645 S 0.48737 0.55319 0.56524 0.0
N646 N 0.56263 0.59569 0.57646 0.0
N647 N 0.41718 0.48996 0.57599 0.0
C648 C 0.45339 0.50119 0.58954 0.0
C649 C 0.5326 0.55892 0.5898 0.0
C650 C 0.01049 0.54227 0.92336 0.0
C651 C 0.01967 0.58248 0.93696 0.0
C652 C 0.98909 0.46448 0.92333 0.0
C653 C 0.97549 0.42267 0.93691 0.0
H654 H 0.0211 0.57129 0.91254 0.0
H655 H 0.98291 0.43696 0.91248 0.0
S656 S 0.98944 0.49987 0.97574 0.0
N657 N 0.01193 0.57358 0.96449 0.0
N658 N 0.97164 0.42771 0.96444 0.0
C659 C 0.98369 0.46184 0.95064 0.0
C660 C 0.0056 0.54135 0.95066 0.0
C661 C 0.54167 0.006 0.25742 0.0
C662 C 0.56769 0.99025 0.27105 0.0
C663 C 0.48497 0.02676 0.2573 0.0
C664 C 0.45144 0.03327 0.2708 0.0
H665 H 0.56446 0.00134 0.24662 0.0
H666 H 0.46786 0.03838 0.24644 0.0
S667 S 0.49917 0.99916 0.30967 0.0
N668 N 0.55533 0.98317 0.29852 0.0
N669 N 0.44919 0.02263 0.2983 0.0
C670 C 0.47715 0.01828 0.28456 0.0
C671 C 0.53505 0.99686 0.28468 0.0
C672 C 0.04675 0.02987 0.09361 0.0
C673 C 0.08431 0.06925 0.10693 0.0
C674 C 0.96963 0.97169 0.09375 0.0
C675 C 0.92634 0.95048 0.10721 0.0
H676 H 0.07736 0.04295 0.08296 0.0
H677 H 0.94396 0.943 0.0832 0.0
S678 S 0.99526 0.0403 0.14501 0.0
N679 N 0.07038 0.08586 0.13383 0.0
N680 N 0.92616 0.97683 0.13414 0.0
C681 C 0.96267 0.99062 0.12057 0.0
C682 C 0.04116 0.04999 0.12041 0.0
C683 C 0.0212 0.04642 0.42698 0.0
C684 C 0.0161 0.08334 0.44012 0.0
C685 C 0.00177 0.96913 0.4272 0.0
C686 C 0.97649 0.92517 0.44056 0.0
H687 H 0.04179 0.0777 0.41645 0.0
H688 H 0.00719 0.94387 0.41679 0.0
S689 S 0.94582 0.99187 0.47777 0.0
N690 N 0.97837 0.06771 0.46666 0.0
N691 N 0.943 0.92338 0.46712 0.0
C692 C 0.9694 0.96078 0.45371 0.0
C693 C 0.98861 0.03934 0.45346 0.0
C694 C 0.968 0.00823 0.7604 0.0
C695 C 0.92964 0.00816 0.77375 0.0
C696 C 0.02635 0.98964 0.76061 0.0
C697 C 0.04921 0.97008 0.77418 0.0
H698 H 0.95396 0.02411 0.74968 0.0
H699 H 0.05387 0.99091 0.74999 0.0
S700 S 0.96247 0.95399 0.81213 0.0
N701 N 0.91531 0.9811 0.80082 0.0
N702 N 0.02556 0.94783 0.80126 0.0
C703 C 0.01018 0.96805 0.78758 0.0
C704 C 0.95021 0.9863 0.78734 0.0
C705 C 0.9752 0.96634 0.6149 0.0
C706 C 0.95102 0.92478 0.60126 0.0
C707 C 0.03316 0.04362 0.61512 0.0
C708 C 0.06968 0.08311 0.60172 0.0
H709 H 0.94889 0.93922 0.62556 0.0
H710 H 0.04818 0.07289 0.6259 0.0
S711 S 0.03354 0.99858 0.56311 0.0
N712 N 0.97224 0.92804 0.57404 0.0
N713 N 0.08119 0.07239 0.57449 0.0
C714 C 0.04806 0.04144 0.58805 0.0
C715 C 0.98872 0.96282 0.58781 0.0
C716 C 0.99385 0.03321 0.92197 0.0
C717 C 0.99267 0.07024 0.93541 0.0
C718 C 0.01288 0.97514 0.92207 0.0
C719 C 0.03144 0.95112 0.93562 0.0
H720 H 0.97841 0.04792 0.91125 0.0
H721 H 0.01301 0.94897 0.91137 0.0
S722 S 0.04114 0.03253 0.9739 0.0
N723 N 0.0161 0.08139 0.96258 0.0
N724 N 0.04917 0.97091 0.96289 0.0
C725 C 0.03133 0.98829 0.94915 0.0
C726 C 0.01289 0.04816 0.94901 0.0
C727 C 0.04678 0.02592 0.28164 0.0
C728 C 0.08355 0.01987 0.26857 0.0
C729 C 0.96954 0.0065 0.28141 0.0
C730 C 0.92558 0.98051 0.26807 0.0
H731 H 0.07819 0.04733 0.29213 0.0
H732 H 0.94431 0.01246 0.29177 0.0
S733 S 0.99227 0.94829 0.231 0.0
N734 N 0.06803 0.98121 0.2421 0.0
N735 N 0.92383 0.94595 0.24159 0.0
C736 C 0.96117 0.97286 0.25497 0.0
C737 C 0.03964 0.99198 0.25524 0.0
loop_
_geom_bond_atom_site_label_1
_geom_bond_atom_site_label_2
_geom_bond_distance
_geom_bond_site_symmetry_2
_ccdc_geom_bond_type
Co0 O3 1.970 . S
Co0 N17 1.989 . S
Co0 O25 1.967 . S
Co0 O32 1.920 . S
Co1 O4 1.966 . S
Co1 N10 2.022 . S
Co1 N18 1.993 . S
Co1 O26 1.941 . S
C2 O3 1.258 . S
C2 O4 1.263 . S
O3 Co0 1.970 . S
O3 C2 1.258 . S
O4 Co1 1.966 . S
O4 C2 1.263 . S
C5 O6 1.235 . S
C5 O32 1.289 . S
O6 C5 1.235 . S
C7 C9 1.400 . S
C7 N10 1.351 . S
C7 C12 1.501 . S
C8 C9 1.387 . S
C8 N11 1.341 . S
C9 C7 1.400 . S
C9 C8 1.387 . S
N10 Co1 2.022 . S
N10 C7 1.351 . S
N10 N11 1.365 . S
N11 C8 1.341 . S
N11 N10 1.365 . S
N11 H31 0.862 . S
C12 C7 1.501 . S
C12 H13 0.961 . S
C12 H14 0.961 1_545 S
C12 H15 0.960 . S
H13 C12 0.961 . S
H14 C12 0.961 1_565 S
H15 C12 0.960 . S
C16 N17 1.342 . S
C16 C20 1.401 . S
C16 C21 1.499 . S
N17 Co0 1.989 . S
N17 C16 1.342 . S
N17 N18 1.388 . S
N18 Co1 1.993 . S
N18 N17 1.388 . S
N18 C19 1.346 . S
C19 N18 1.346 . S
C19 C20 1.396 . S
C19 C29 1.510 . S
C20 C16 1.401 . S
C20 C19 1.396 . S
C21 C16 1.499 . S
C21 H22 0.959 . S
C21 H23 0.960 . S
C21 H24 0.961 . S
H22 C21 0.959 . S
H23 C21 0.960 . S
H24 C21 0.961 . S
O25 Co0 1.967 . S
O25 C33 1.258 . S
O26 Co1 1.941 . S
O26 C33 1.266 . S
H27 C29 0.959 . S
H28 C29 0.961 1_565 S
C29 C19 1.510 . S
C29 H27 0.959 . S
C29 H28 0.961 1_545 S
C29 H30 0.960 . S
H30 C29 0.960 . S
H31 N11 0.862 . S
O32 Co0 1.920 . S
O32 C5 1.289 . S
C33 O25 1.258 . S
C33 O26 1.266 . S
Co34 O37 1.970 . S
Co34 N51 1.989 . S
Co34 O59 1.967 . S
Co34 O66 1.920 . S
Co35 O38 1.966 . S
Co35 N44 2.022 . S
Co35 N52 1.993 . S
Co35 O60 1.941 . S
C36 O37 1.258 . S
C36 O38 1.263 . S
O37 Co34 1.970 . S
O37 C36 1.258 . S
O38 Co35 1.966 . S
O38 C36 1.263 . S
C39 O40 1.235 . S
C39 O66 1.289 . S
O40 C39 1.235 . S
C41 C43 1.400 . S
C41 N44 1.351 . S
C41 C46 1.501 . S
C42 C43 1.387 . S
C42 N45 1.341 . S
C43 C41 1.400 . S
C43 C42 1.387 . S
N44 Co35 2.022 . S
N44 C41 1.351 . S
N44 N45 1.365 . S
N45 C42 1.341 . S
N45 N44 1.365 . S
N45 H65 0.862 . S
C46 C41 1.501 . S
C46 H47 0.961 . S
C46 H48 0.961 . S
C46 H49 0.960 . S
H47 C46 0.961 . S
H48 C46 0.961 . S
H49 C46 0.960 . S
C50 N51 1.342 . S
C50 C54 1.401 . S
C50 C55 1.499 . S
N51 Co34 1.989 . S
N51 C50 1.342 . S
N51 N52 1.388 . S
N52 Co35 1.993 . S
N52 N51 1.388 . S
N52 C53 1.346 . S
C53 N52 1.346 . S
C53 C54 1.396 . S
C53 C63 1.510 . S
C54 C50 1.401 . S
C54 C53 1.396 . S
C55 C50 1.499 . S
C55 H56 0.959 . S
C55 H57 0.960 . S
C55 H58 0.961 . S
H56 C55 0.959 . S
H57 C55 0.960 . S
H58 C55 0.961 . S
O59 Co34 1.967 . S
O59 C67 1.258 . S
O60 Co35 1.941 . S
O60 C67 1.266 . S
H61 C63 0.959 . S
H62 C63 0.961 . S
C63 C53 1.510 . S
C63 H61 0.959 . S
C63 H62 0.961 . S
C63 H64 0.960 . S
H64 C63 0.960 . S
H65 N45 0.862 . S
O66 Co34 1.920 . S
O66 C39 1.289 . S
C67 O59 1.258 . S
C67 O60 1.266 . S
Co68 O71 1.970 . S
Co68 N85 1.989 . S
Co68 O93 1.967 . S
Co68 O100 1.920 . S
Co69 O72 1.966 . S
Co69 N78 2.022 . S
Co69 N86 1.993 . S
Co69 O94 1.941 . S
C70 O71 1.258 . S
C70 O72 1.263 . S
O71 Co68 1.970 . S
O71 C70 1.258 . S
O72 Co69 1.966 . S
O72 C70 1.263 . S
C73 O74 1.235 . S
C73 O100 1.289 . S
O74 C73 1.235 . S
C75 C77 1.400 . S
C75 N78 1.351 . S
C75 C80 1.501 . S
C76 C77 1.387 . S
C76 N79 1.341 . S
C77 C75 1.400 . S
C77 C76 1.387 . S
N78 Co69 2.022 . S
N78 C75 1.351 . S
N78 N79 1.365 . S
N79 C76 1.341 . S
N79 N78 1.365 . S
N79 H99 0.862 . S
C80 C75 1.501 . S
C80 H81 0.961 . S
C80 H82 0.961 1_655 S
C80 H83 0.960 . S
H81 C80 0.961 . S
H82 C80 0.961 1_455 S
H83 C80 0.960 . S
C84 N85 1.342 . S
C84 C88 1.401 . S
C84 C89 1.499 . S
N85 Co68 1.989 . S
N85 C84 1.342 . S
N85 N86 1.388 . S
N86 Co69 1.993 . S
N86 N85 1.388 . S
N86 C87 1.346 . S
C87 N86 1.346 . S
C87 C88 1.396 . S
C87 C97 1.510 . S
C88 C84 1.401 . S
C88 C87 1.396 . S
C89 C84 1.499 . S
C89 H90 0.959 . S
C89 H91 0.960 . S
C89 H92 0.961 . S
H90 C89 0.959 . S
H91 C89 0.960 . S
H92 C89 0.961 . S
O93 Co68 1.967 . S
O93 C101 1.258 . S
O94 Co69 1.941 . S
O94 C101 1.266 . S
H95 C97 0.959 . S
H96 C97 0.961 1_455 S
C97 C87 1.510 . S
C97 H95 0.959 . S
C97 H96 0.961 1_655 S
C97 H98 0.960 . S
H98 C97 0.960 . S
H99 N79 0.862 . S
O100 Co68 1.920 . S
O100 C73 1.289 . S
C101 O93 1.258 . S
C101 O94 1.266 . S
Co102 O105 1.970 . S
Co102 N119 1.989 . S
Co102 O127 1.967 . S
Co102 O134 1.920 . S
Co103 O106 1.966 . S
Co103 N112 2.022 . S
Co103 N120 1.993 . S
Co103 O128 1.941 . S
C104 O105 1.258 . S
C104 O106 1.263 . S
O105 Co102 1.970 . S
O105 C104 1.258 . S
O106 Co103 1.966 . S
O106 C104 1.263 . S
C107 O108 1.235 . S
C107 O134 1.289 . S
O108 C107 1.235 . S
C109 C111 1.400 . S
C109 N112 1.351 . S
C109 C114 1.501 . S
C110 C111 1.387 . S
C110 N113 1.341 . S
C111 C109 1.400 . S
C111 C110 1.387 . S
N112 Co103 2.022 . S
N112 C109 1.351 . S
N112 N113 1.365 . S
N113 C110 1.341 . S
N113 N112 1.365 . S
N113 H133 0.862 . S
C114 C109 1.501 . S
C114 H115 0.961 . S
C114 H116 0.961 1_565 S
C114 H117 0.960 . S
H115 C114 0.961 . S
H116 C114 0.961 1_545 S
H117 C114 0.960 . S
C118 N119 1.342 . S
C118 C122 1.401 . S
C118 C123 1.499 . S
N119 Co102 1.989 . S
N119 C118 1.342 . S
N119 N120 1.388 . S
N120 Co103 1.993 . S
N120 N119 1.388 . S
N120 C121 1.346 . S
C121 N120 1.346 . S
C121 C122 1.396 . S
C121 C131 1.510 . S
C122 C118 1.401 . S
C122 C121 1.396 . S
C123 C118 1.499 . S
C123 H124 0.959 . S
C123 H125 0.960 . S
C123 H126 0.961 . S
H124 C123 0.959 . S
H125 C123 0.960 . S
H126 C123 0.961 . S
O127 Co102 1.967 . S
O127 C135 1.258 . S
O128 Co103 1.941 . S
O128 C135 1.266 . S
H129 C131 0.959 . S
H130 C131 0.961 1_545 S
C131 C121 1.510 . S
C131 H129 0.959 . S
C131 H130 0.961 1_565 S
C131 H132 0.960 . S
H132 C131 0.960 . S
H133 N113 0.862 . S
O134 Co102 1.920 . S
O134 C107 1.289 . S
C135 O127 1.258 . S
C135 O128 1.266 . S
Co136 O139 1.970 . S
Co136 N153 1.989 . S
Co136 O161 1.967 . S
Co136 O168 1.920 . S
Co137 O140 1.966 . S
Co137 N146 2.022 . S
Co137 N154 1.993 . S
Co137 O162 1.941 . S
C138 O139 1.258 . S
C138 O140 1.263 . S
O139 Co136 1.970 . S
O139 C138 1.258 . S
O140 Co137 1.966 . S
O140 C138 1.263 . S
C141 O142 1.235 . S
C141 O168 1.289 . S
O142 C141 1.235 . S
C143 C145 1.400 . S
C143 N146 1.351 . S
C143 C148 1.501 . S
C144 C145 1.387 . S
C144 N147 1.341 . S
C145 C143 1.400 . S
C145 C144 1.387 . S
N146 Co137 2.022 . S
N146 C143 1.351 . S
N146 N147 1.365 . S
N147 C144 1.341 . S
N147 N146 1.365 . S
N147 H167 0.862 . S
C148 C143 1.501 . S
C148 H149 0.961 . S
C148 H150 0.961 . S
C148 H151 0.960 . S
H149 C148 0.961 . S
H150 C148 0.961 . S
H151 C148 0.960 . S
C152 N153 1.342 . S
C152 C156 1.401 . S
C152 C157 1.499 . S
N153 Co136 1.989 . S
N153 C152 1.342 . S
N153 N154 1.388 . S
N154 Co137 1.993 . S
N154 N153 1.388 . S
N154 C155 1.346 . S
C155 N154 1.346 . S
C155 C156 1.396 . S
C155 C165 1.510 . S
C156 C152 1.401 . S
C156 C155 1.396 . S
C157 C152 1.499 . S
C157 H158 0.959 . S
C157 H159 0.960 . S
C157 H160 0.961 . S
H158 C157 0.959 . S
H159 C157 0.960 . S
H160 C157 0.961 . S
O161 Co136 1.967 . S
O161 C169 1.258 . S
O162 Co137 1.941 . S
O162 C169 1.266 . S
H163 C165 0.959 . S
H164 C165 0.961 . S
C165 C155 1.510 . S
C165 H163 0.959 . S
C165 H164 0.961 . S
C165 H166 0.960 . S
H166 C165 0.960 . S
H167 N147 0.862 . S
O168 Co136 1.920 . S
O168 C141 1.289 . S
C169 O161 1.258 . S
C169 O162 1.266 . S
Co170 O173 1.970 . S
Co170 N187 1.989 . S
Co170 O195 1.967 . S
Co170 O202 1.920 . S
Co171 O174 1.966 . S
Co171 N180 2.022 . S
Co171 N188 1.993 . S
Co171 O196 1.941 . S
C172 O173 1.258 . S
C172 O174 1.263 . S
O173 Co170 1.970 . S
O173 C172 1.258 . S
O174 Co171 1.966 . S
O174 C172 1.263 . S
C175 O176 1.235 . S
C175 O202 1.289 . S
O176 C175 1.235 . S
C177 C179 1.400 . S
C177 N180 1.351 . S
C177 C182 1.501 . S
C178 C179 1.387 . S
C178 N181 1.341 . S
C179 C177 1.400 . S
C179 C178 1.387 . S
N180 Co171 2.022 . S
N180 C177 1.351 . S
N180 N181 1.365 . S
N181 C178 1.341 . S
N181 N180 1.365 . S
N181 H201 0.862 . S
C182 C177 1.501 . S
C182 H183 0.961 . S
C182 H184 0.961 1_455 S
C182 H185 0.960 . S
H183 C182 0.961 . S
H184 C182 0.961 1_655 S
H185 C182 0.960 . S
C186 N187 1.342 . S
C186 C190 1.401 . S
C186 C191 1.499 . S
N187 Co170 1.989 . S
N187 C186 1.342 . S
N187 N188 1.388 . S
N188 Co171 1.993 . S
N188 N187 1.388 . S
N188 C189 1.346 . S
C189 N188 1.346 . S
C189 C190 1.396 . S
C189 C199 1.510 . S
C190 C186 1.401 . S
C190 C189 1.396 . S
C191 C186 1.499 . S
C191 H192 0.959 . S
C191 H193 0.960 . S
C191 H194 0.961 . S
H192 C191 0.959 . S
H193 C191 0.960 . S
H194 C191 0.961 . S
O195 Co170 1.967 . S
O195 C203 1.258 . S
O196 Co171 1.941 . S
O196 C203 1.266 . S
H197 C199 0.959 . S
H198 C199 0.961 1_655 S
C199 C189 1.510 . S
C199 H197 0.959 . S
C199 H198 0.961 1_455 S
C199 H200 0.960 . S
H200 C199 0.960 . S
H201 N181 0.862 . S
O202 Co170 1.920 . S
O202 C175 1.289 . S
C203 O195 1.258 . S
C203 O196 1.266 . S
Co204 O207 1.970 . S
Co204 N221 1.989 . S
Co204 O229 1.967 . S
Co204 O236 1.920 . S
Co205 O208 1.966 . S
Co205 N214 2.022 . S
Co205 N222 1.993 . S
Co205 O230 1.941 . S
C206 O207 1.258 . S
C206 O208 1.263 . S
O207 Co204 1.970 . S
O207 C206 1.258 . S
O208 Co205 1.966 . S
O208 C206 1.263 . S
C209 O210 1.235 . S
C209 O236 1.289 . S
O210 C209 1.235 . S
C211 C213 1.400 . S
C211 N214 1.351 . S
C211 C216 1.501 . S
C212 C213 1.387 . S
C212 N215 1.341 . S
C213 C211 1.400 . S
C213 C212 1.387 . S
N214 Co205 2.022 . S
N214 C211 1.351 . S
N214 N215 1.365 . S
N215 C212 1.341 . S
N215 N214 1.365 . S
N215 H235 0.862 . S
C216 C211 1.501 . S
C216 H217 0.961 . S
C216 H218 0.961 1_655 S
C216 H219 0.960 . S
H217 C216 0.961 . S
H218 C216 0.961 1_455 S
H219 C216 0.960 . S
C220 N221 1.342 . S
C220 C224 1.401 . S
C220 C225 1.499 . S
N221 Co204 1.989 . S
N221 C220 1.342 . S
N221 N222 1.388 . S
N222 Co205 1.993 . S
N222 N221 1.388 . S
N222 C223 1.346 . S
C223 N222 1.346 . S
C223 C224 1.396 . S
C223 C233 1.510 . S
C224 C220 1.401 . S
C224 C223 1.396 . S
C225 C220 1.499 . S
C225 H226 0.959 . S
C225 H227 0.960 . S
C225 H228 0.961 . S
H226 C225 0.959 . S
H227 C225 0.960 . S
H228 C225 0.961 . S
O229 Co204 1.967 . S
O229 C237 1.258 . S
O230 Co205 1.941 . S
O230 C237 1.266 . S
H231 C233 0.959 . S
H232 C233 0.961 1_455 S
C233 C223 1.510 . S
C233 H231 0.959 . S
C233 H232 0.961 1_655 S
C233 H234 0.960 . S
H234 C233 0.960 . S
H235 N215 0.862 . S
O236 Co204 1.920 . S
O236 C209 1.289 . S
C237 O229 1.258 . S
C237 O230 1.266 . S
Co238 O241 1.970 . S
Co238 N255 1.989 . S
Co238 O263 1.967 . S
Co238 O270 1.920 . S
Co239 O242 1.966 . S
Co239 N248 2.022 . S
Co239 N256 1.993 . S
Co239 O264 1.941 . S
C240 O241 1.258 . S
C240 O242 1.263 . S
O241 Co238 1.970 . S
O241 C240 1.258 . S
O242 Co239 1.966 . S
O242 C240 1.263 . S
C243 O244 1.235 . S
C243 O270 1.289 . S
O244 C243 1.235 . S
C245 C247 1.400 . S
C245 N248 1.351 . S
C245 C250 1.501 . S
C246 C247 1.387 . S
C246 N249 1.341 . S
C247 C245 1.400 . S
C247 C246 1.387 . S
N248 Co239 2.022 . S
N248 C245 1.351 . S
N248 N249 1.365 . S
N249 C246 1.341 . S
N249 N248 1.365 . S
N249 H269 0.862 . S
C250 C245 1.501 . S
C250 H251 0.961 . S
C250 H252 0.961 1_565 S
C250 H253 0.960 . S
H251 C250 0.961 . S
H252 C250 0.961 1_545 S
H253 C250 0.960 . S
C254 N255 1.342 . S
C254 C258 1.401 . S
C254 C259 1.499 . S
N255 Co238 1.989 . S
N255 C254 1.342 . S
N255 N256 1.388 . S
N256 Co239 1.993 . S
N256 N255 1.388 . S
N256 C257 1.346 . S
C257 N256 1.346 . S
C257 C258 1.396 . S
C257 C267 1.510 . S
C258 C254 1.401 . S
C258 C257 1.396 . S
C259 C254 1.499 . S
C259 H260 0.959 . S
C259 H261 0.960 . S
C259 H262 0.961 . S
H260 C259 0.959 . S
H261 C259 0.960 . S
H262 C259 0.961 . S
O263 Co238 1.967 . S
O263 C271 1.258 . S
O264 Co239 1.941 . S
O264 C271 1.266 . S
H265 C267 0.959 . S
H266 C267 0.961 1_545 S
C267 C257 1.510 . S
C267 H265 0.959 . S
C267 H266 0.961 1_565 S
C267 H268 0.960 . S
H268 C267 0.960 . S
H269 N249 0.862 . S
O270 Co238 1.920 . S
O270 C243 1.289 . S
C271 O263 1.258 . S
C271 O264 1.266 . S
Co272 O275 1.970 . S
Co272 N289 1.989 . S
Co272 O297 1.967 . S
Co272 O304 1.920 . S
Co273 O276 1.966 . S
Co273 N282 2.022 . S
Co273 N290 1.993 . S
Co273 O298 1.941 . S
C274 O275 1.258 . S
C274 O276 1.263 . S
O275 Co272 1.970 . S
O275 C274 1.258 . S
O276 Co273 1.966 . S
O276 C274 1.263 . S
C277 O278 1.235 . S
C277 O304 1.289 . S
O278 C277 1.235 . S
C279 C281 1.400 . S
C279 N282 1.351 . S
C279 C284 1.501 . S
C280 C281 1.387 . S
C280 N283 1.341 . S
C281 C279 1.400 . S
C281 C280 1.387 . S
N282 Co273 2.022 . S
N282 C279 1.351 . S
N282 N283 1.365 . S
N283 C280 1.341 . S
N283 N282 1.365 . S
N283 H303 0.862 . S
C284 C279 1.501 . S
C284 H285 0.961 . S
C284 H286 0.961 . S
C284 H287 0.960 . S
H285 C284 0.961 . S
H286 C284 0.961 . S
H287 C284 0.960 . S
C288 N289 1.342 . S
C288 C292 1.401 . S
C288 C293 1.499 . S
N289 Co272 1.989 . S
N289 C288 1.342 . S
N289 N290 1.388 . S
N290 Co273 1.993 . S
N290 N289 1.388 . S
N290 C291 1.346 . S
C291 N290 1.346 . S
C291 C292 1.396 . S
C291 C301 1.510 . S
C292 C288 1.401 . S
C292 C291 1.396 . S
C293 C288 1.499 . S
C293 H294 0.959 . S
C293 H295 0.960 . S
C293 H296 0.961 . S
H294 C293 0.959 . S
H295 C293 0.960 . S
H296 C293 0.961 . S
O297 Co272 1.967 . S
O297 C305 1.258 . S
O298 Co273 1.941 . S
O298 C305 1.266 . S
H299 C301 0.959 . S
H300 C301 0.961 . S
C301 C291 1.510 . S
C301 H299 0.959 . S
C301 H300 0.961 . S
C301 H302 0.960 . S
H302 C301 0.960 . S
H303 N283 0.862 . S
O304 Co272 1.920 . S
O304 C277 1.289 . S
C305 O297 1.258 . S
C305 O298 1.266 . S
Co306 O309 1.970 . S
Co306 N323 1.989 . S
Co306 O331 1.967 . S
Co306 O338 1.920 . S
Co307 O310 1.966 . S
Co307 N316 2.022 . S
Co307 N324 1.993 . S
Co307 O332 1.941 . S
C308 O309 1.258 . S
C308 O310 1.263 . S
O309 Co306 1.970 . S
O309 C308 1.258 . S
O310 Co307 1.966 . S
O310 C308 1.263 . S
C311 O312 1.235 . S
C311 O338 1.289 . S
O312 C311 1.235 . S
C313 C315 1.400 . S
C313 N316 1.351 . S
C313 C318 1.501 . S
C314 C315 1.387 . S
C314 N317 1.341 . S
C315 C313 1.400 . S
C315 C314 1.387 . S
N316 Co307 2.022 . S
N316 C313 1.351 . S
N316 N317 1.365 . S
N317 C314 1.341 . S
N317 N316 1.365 . S
N317 H337 0.862 . S
C318 C313 1.501 . S
C318 H319 0.961 . S
C318 H320 0.961 1_455 S
C318 H321 0.960 . S
H319 C318 0.961 . S
H320 C318 0.961 1_655 S
H321 C318 0.960 . S
C322 N323 1.342 . S
C322 C326 1.401 . S
C322 C327 1.499 . S
N323 Co306 1.989 . S
N323 C322 1.342 . S
N323 N324 1.388 . S
N324 Co307 1.993 . S
N324 N323 1.388 . S
N324 C325 1.346 . S
C325 N324 1.346 . S
C325 C326 1.396 . S
C325 C335 1.510 . S
C326 C322 1.401 . S
C326 C325 1.396 . S
C327 C322 1.499 . S
C327 H328 0.959 . S
C327 H329 0.960 . S
C327 H330 0.961 . S
H328 C327 0.959 . S
H329 C327 0.960 . S
H330 C327 0.961 . S
O331 Co306 1.967 . S
O331 C339 1.258 . S
O332 Co307 1.941 . S
O332 C339 1.266 . S
H333 C335 0.959 . S
H334 C335 0.961 1_655 S
C335 C325 1.510 . S
C335 H333 0.959 . S
C335 H334 0.961 1_455 S
C335 H336 0.960 . S
H336 C335 0.960 . S
H337 N317 0.862 . S
O338 Co306 1.920 . S
O338 C311 1.289 . S
C339 O331 1.258 . S
C339 O332 1.266 . S
Co340 O343 1.970 . S
Co340 N357 1.989 . S
Co340 O365 1.967 . S
Co340 O372 1.920 . S
Co341 O344 1.966 . S
Co341 N350 2.022 . S
Co341 N358 1.993 . S
Co341 O366 1.941 . S
C342 O343 1.258 . S
C342 O344 1.263 . S
O343 Co340 1.970 . S
O343 C342 1.258 . S
O344 Co341 1.966 . S
O344 C342 1.263 . S
C345 O346 1.235 . S
C345 O372 1.289 . S
O346 C345 1.235 . S
C347 C349 1.400 . S
C347 N350 1.351 . S
C347 C352 1.501 . S
C348 C349 1.387 . S
C348 N351 1.341 . S
C349 C347 1.400 . S
C349 C348 1.387 . S
N350 Co341 2.022 . S
N350 C347 1.351 . S
N350 N351 1.365 . S
N351 C348 1.341 . S
N351 N350 1.365 . S
N351 H371 0.862 . S
C352 C347 1.501 . S
C352 H353 0.961 . S
C352 H354 0.961 1_545 S
C352 H355 0.960 . S
H353 C352 0.961 . S
H354 C352 0.961 1_565 S
H355 C352 0.960 . S
C356 N357 1.342 . S
C356 C360 1.401 . S
C356 C361 1.499 . S
N357 Co340 1.989 . S
N357 C356 1.342 . S
N357 N358 1.388 . S
N358 Co341 1.993 . S
N358 N357 1.388 . S
N358 C359 1.346 . S
C359 N358 1.346 . S
C359 C360 1.396 . S
C359 C369 1.510 . S
C360 C356 1.401 . S
C360 C359 1.396 . S
C361 C356 1.499 . S
C361 H362 0.959 . S
C361 H363 0.960 . S
C361 H364 0.961 . S
H362 C361 0.959 . S
H363 C361 0.960 . S
H364 C361 0.961 . S
O365 Co340 1.967 . S
O365 C373 1.258 . S
O366 Co341 1.941 . S
O366 C373 1.266 . S
H367 C369 0.959 . S
H368 C369 0.961 1_565 S
C369 C359 1.510 . S
C369 H367 0.959 . S
C369 H368 0.961 1_545 S
C369 H370 0.960 . S
H370 C369 0.960 . S
H371 N351 0.862 . S
O372 Co340 1.920 . S
O372 C345 1.289 . S
C373 O365 1.258 . S
C373 O366 1.266 . S
Co374 O377 1.970 . S
Co374 N391 1.989 . S
Co374 O399 1.967 . S
Co374 O406 1.920 . S
Co375 O378 1.966 . S
Co375 N384 2.022 . S
Co375 N392 1.993 . S
Co375 O400 1.941 . S
C376 O377 1.258 . S
C376 O378 1.263 . S
O377 Co374 1.970 . S
O377 C376 1.258 . S
O378 Co375 1.966 . S
O378 C376 1.263 . S
C379 O380 1.235 . S
C379 O406 1.289 . S
O380 C379 1.235 . S
C381 C383 1.400 . S
C381 N384 1.351 . S
C381 C386 1.501 . S
C382 C383 1.387 . S
C382 N385 1.341 . S
C383 C381 1.400 . S
C383 C382 1.387 . S
N384 Co375 2.022 . S
N384 C381 1.351 . S
N384 N385 1.365 . S
N385 C382 1.341 . S
N385 N384 1.365 . S
N385 H405 0.862 . S
C386 C381 1.501 . S
C386 H387 0.961 . S
C386 H388 0.961 . S
C386 H389 0.960 . S
H387 C386 0.961 . S
H388 C386 0.961 . S
H389 C386 0.960 . S
C390 N391 1.342 . S
C390 C394 1.401 . S
C390 C395 1.499 . S
N391 Co374 1.989 . S
N391 C390 1.342 . S
N391 N392 1.388 . S
N392 Co375 1.993 . S
N392 N391 1.388 . S
N392 C393 1.346 . S
C393 N392 1.346 . S
C393 C394 1.396 . S
C393 C403 1.510 . S
C394 C390 1.401 . S
C394 C393 1.396 . S
C395 C390 1.499 . S
C395 H396 0.959 . S
C395 H397 0.960 . S
C395 H398 0.961 . S
H396 C395 0.959 . S
H397 C395 0.960 . S
H398 C395 0.961 . S
O399 Co374 1.967 . S
O399 C407 1.258 . S
O400 Co375 1.941 . S
O400 C407 1.266 . S
H401 C403 0.959 . S
H402 C403 0.961 . S
C403 C393 1.510 . S
C403 H401 0.959 . S
C403 H402 0.961 . S
C403 H404 0.960 . S
H404 C403 0.960 . S
H405 N385 0.862 . S
O406 Co374 1.920 . S
O406 C379 1.289 . S
C407 O399 1.258 . S
C407 O400 1.266 . S
C408 C409 1.369 . S
C408 C410 1.419 1_554 S
C408 H412 0.930 . S
C409 C408 1.369 . S
C409 C418 1.429 1_545 S
C410 C408 1.419 1_556 S
C410 C411 1.363 1_545 S
C410 H413 0.929 . S
C411 C410 1.363 1_565 S
C411 C417 1.428 . S
H412 C408 0.930 . S
H413 C410 0.929 . S
S414 N415 1.613 . S
S414 N416 1.610 1_554 S
N415 S414 1.613 . S
N415 C418 1.350 . S
N416 S414 1.610 1_556 S
N416 C417 1.351 . S
C417 C411 1.428 . S
C417 N416 1.351 . S
C417 C418 1.434 1_556 S
C418 C409 1.429 1_565 S
C418 N415 1.350 . S
C418 C417 1.434 1_554 S
C419 C420 1.369 . S
C419 C421 1.419 . S
C419 H423 0.930 . S
C420 C419 1.369 . S
C420 C429 1.429 . S
C421 C419 1.419 . S
C421 C422 1.363 . S
C421 H424 0.929 . S
C422 C421 1.363 . S
C422 C428 1.428 . S
H423 C419 0.930 . S
H424 C421 0.929 . S
S425 N426 1.613 . S
S425 N427 1.610 . S
N426 S425 1.613 . S
N426 C429 1.350 . S
N427 S425 1.610 . S
N427 C428 1.351 . S
C428 C422 1.428 . S
C428 N427 1.351 . S
C428 C429 1.434 . S
C429 C420 1.429 . S
C429 N426 1.350 . S
C429 C428 1.434 . S
C430 C431 1.369 . S
C430 C432 1.419 1_655 S
C430 H434 0.930 . S
C431 C430 1.369 . S
C431 C440 1.429 . S
C432 C430 1.419 1_455 S
C432 C433 1.363 . S
C432 H435 0.929 . S
C433 C432 1.363 . S
C433 C439 1.428 . S
H434 C430 0.930 . S
H435 C432 0.929 . S
S436 N437 1.613 1_455 S
S436 N438 1.610 . S
N437 S436 1.613 1_655 S
N437 C440 1.350 . S
N438 S436 1.610 . S
N438 C439 1.351 . S
C439 C433 1.428 . S
C439 N438 1.351 . S
C439 C440 1.434 1_455 S
C440 C431 1.429 . S
C440 N437 1.350 . S
C440 C439 1.434 1_655 S
C441 C442 1.369 1_565 S
C441 C443 1.419 1_556 S
C441 H445 0.930 . S
C442 C441 1.369 1_545 S
C442 C451 1.429 . S
C443 C441 1.419 1_554 S
C443 C444 1.363 . S
C443 H446 0.929 . S
C444 C443 1.363 . S
C444 C450 1.428 1_565 S
H445 C441 0.930 . S
H446 C443 0.929 . S
S447 N448 1.613 1_554 S
S447 N449 1.610 . S
N448 S447 1.613 1_556 S
N448 C451 1.350 . S
N449 S447 1.610 . S
N449 C450 1.351 . S
C450 C444 1.428 1_545 S
C450 N449 1.351 . S
C450 C451 1.434 1_554 S
C451 C442 1.429 . S
C451 N448 1.350 . S
C451 C450 1.434 1_556 S
C452 C453 1.369 . S
C452 C454 1.419 . S
C452 H456 0.930 . S
C453 C452 1.369 . S
C453 C462 1.429 . S
C454 C452 1.419 . S
C454 C455 1.363 . S
C454 H457 0.929 . S
C455 C454 1.363 . S
C455 C461 1.428 . S
H456 C452 0.930 . S
H457 C454 0.929 . S
S458 N459 1.613 . S
S458 N460 1.610 . S
N459 S458 1.613 . S
N459 C462 1.350 . S
N460 S458 1.610 . S
N460 C461 1.351 . S
C461 C455 1.428 . S
C461 N460 1.351 . S
C461 C462 1.434 . S
C462 C453 1.429 . S
C462 N459 1.350 . S
C462 C461 1.434 . S
C463 C464 1.369 . S
C463 C465 1.419 . S
C463 H467 0.930 . S
C464 C463 1.369 . S
C464 C473 1.429 1_455 S
C465 C463 1.419 . S
C465 C466 1.363 1_455 S
C465 H468 0.929 . S
C466 C465 1.363 1_655 S
C466 C472 1.428 . S
H467 C463 0.930 . S
H468 C465 0.929 . S
S469 N470 1.613 . S
S469 N471 1.610 . S
N470 S469 1.613 . S
N470 C473 1.350 . S
N471 S469 1.610 . S
N471 C472 1.351 . S
C472 C466 1.428 . S
C472 N471 1.351 . S
C472 C473 1.434 . S
C473 C464 1.429 1_655 S
C473 N470 1.350 . S
C473 C472 1.434 . S
C474 C475 1.369 1_545 S
C474 C476 1.419 . S
C474 H478 0.930 . S
C475 C474 1.369 1_565 S
C475 C484 1.429 . S
C476 C474 1.419 . S
C476 C477 1.363 . S
C476 H479 0.929 . S
C477 C476 1.363 . S
C477 C483 1.428 1_545 S
H478 C474 0.930 . S
H479 C476 0.929 . S
S480 N481 1.613 . S
S480 N482 1.610 . S
N481 S480 1.613 . S
N481 C484 1.350 . S
N482 S480 1.610 . S
N482 C483 1.351 . S
C483 C477 1.428 1_565 S
C483 N482 1.351 . S
C483 C484 1.434 . S
C484 C475 1.429 . S
C484 N481 1.350 . S
C484 C483 1.434 . S
C485 C486 1.369 . S
C485 C487 1.419 . S
C485 H489 0.930 . S
C486 C485 1.369 . S
C486 C495 1.429 . S
C487 C485 1.419 . S
C487 C488 1.363 . S
C487 H490 0.929 . S
C488 C487 1.363 . S
C488 C494 1.428 . S
H489 C485 0.930 . S
H490 C487 0.929 . S
S491 N492 1.613 . S
S491 N493 1.610 . S
N492 S491 1.613 . S
N492 C495 1.350 . S
N493 S491 1.610 . S
N493 C494 1.351 . S
C494 C488 1.428 . S
C494 N493 1.351 . S
C494 C495 1.434 . S
C495 C486 1.429 . S
C495 N492 1.350 . S
C495 C494 1.434 . S
C496 C497 1.369 1_655 S
C496 C498 1.419 . S
C496 H500 0.930 . S
C497 C496 1.369 1_455 S
C497 C506 1.429 . S
C498 C496 1.419 . S
C498 C499 1.363 . S
C498 H501 0.929 . S
C499 C498 1.363 . S
C499 C505 1.428 1_655 S
H500 C496 0.930 . S
H501 C498 0.929 . S
S502 N503 1.613 . S
S502 N504 1.610 . S
N503 S502 1.613 . S
N503 C506 1.350 . S
N504 S502 1.610 . S
N504 C505 1.351 . S
C505 C499 1.428 1_455 S
C505 N504 1.351 . S
C505 C506 1.434 . S
C506 C497 1.429 . S
C506 N503 1.350 . S
C506 C505 1.434 . S
C507 C508 1.369 . S
C507 C509 1.419 1_455 S
C507 H511 0.930 . S
C508 C507 1.369 . S
C508 C517 1.429 . S
C509 C507 1.419 1_655 S
C509 C510 1.363 . S
C509 H512 0.929 . S
C510 C509 1.363 . S
C510 C516 1.428 . S
H511 C507 0.930 . S
H512 C509 0.929 . S
S513 N514 1.613 1_655 S
S513 N515 1.610 . S
N514 S513 1.613 1_455 S
N514 C517 1.350 . S
N515 S513 1.610 . S
N515 C516 1.351 . S
C516 C510 1.428 . S
C516 N515 1.351 . S
C516 C517 1.434 1_655 S
C517 C508 1.429 . S
C517 N514 1.350 . S
C517 C516 1.434 1_455 S
C518 C519 1.369 . S
C518 C520 1.419 . S
C518 H522 0.930 . S
C519 C518 1.369 . S
C519 C528 1.429 1_545 S
C520 C518 1.419 . S
C520 C521 1.363 1_545 S
C520 H523 0.929 . S
C521 C520 1.363 1_565 S
C521 C527 1.428 . S
H522 C518 0.930 . S
H523 C520 0.929 . S
S524 N525 1.613 . S
S524 N526 1.610 . S
N525 S524 1.613 . S
N525 C528 1.350 . S
N526 S524 1.610 . S
N526 C527 1.351 . S
C527 C521 1.428 . S
C527 N526 1.351 . S
C527 C528 1.434 . S
C528 C519 1.429 1_565 S
C528 N525 1.350 . S
C528 C527 1.434 . S
C529 C530 1.369 . S
C529 C531 1.419 . S
C529 H533 0.930 . S
C530 C529 1.369 . S
C530 C539 1.429 . S
C531 C529 1.419 . S
C531 C532 1.363 . S
C531 H534 0.929 . S
C532 C531 1.363 . S
C532 C538 1.428 . S
H533 C529 0.930 . S
H534 C531 0.929 . S
S535 N536 1.613 . S
S535 N537 1.610 . S
N536 S535 1.613 . S
N536 C539 1.350 . S
N537 S535 1.610 . S
N537 C538 1.351 . S
C538 C532 1.428 . S
C538 N537 1.351 . S
C538 C539 1.434 . S
C539 C530 1.429 . S
C539 N536 1.350 . S
C539 C538 1.434 . S
C540 C541 1.369 . S
C540 C542 1.419 . S
C540 H544 0.930 . S
C541 C540 1.369 . S
C541 C550 1.429 . S
C542 C540 1.419 . S
C542 C543 1.363 . S
C542 H545 0.929 . S
C543 C542 1.363 . S
C543 C549 1.428 . S
H544 C540 0.930 . S
H545 C542 0.929 . S
S546 N547 1.615 . S
S546 N548 1.611 . S
N547 S546 1.615 . S
N547 C550 1.350 . S
N548 S546 1.611 . S
N548 C549 1.351 . S
C549 C543 1.428 . S
C549 N548 1.351 . S
C549 C550 1.434 . S
C550 C541 1.429 . S
C550 N547 1.350 . S
C550 C549 1.434 . S
C551 C552 1.369 . S
C551 C553 1.419 . S
C551 H555 0.930 . S
C552 C551 1.369 . S
C552 C561 1.429 . S
C553 C551 1.419 . S
C553 C554 1.363 . S
C553 H556 0.929 . S
C554 C553 1.363 . S
C554 C560 1.428 . S
H555 C551 0.930 . S
H556 C553 0.929 . S
S557 N558 1.613 . S
S557 N559 1.610 . S
N558 S557 1.613 . S
N558 C561 1.350 . S
N559 S557 1.610 . S
N559 C560 1.351 . S
C560 C554 1.428 . S
C560 N559 1.351 . S
C560 C561 1.434 . S
C561 C552 1.429 . S
C561 N558 1.350 . S
C561 C560 1.434 . S
C562 C563 1.369 . S
C562 C564 1.419 . S
C562 H566 0.930 . S
C563 C562 1.369 . S
C563 C572 1.429 . S
C564 C562 1.419 . S
C564 C565 1.363 . S
C564 H567 0.929 . S
C565 C564 1.363 . S
C565 C571 1.428 . S
H566 C562 0.930 . S
H567 C564 0.929 . S
S568 N569 1.613 . S
S568 N570 1.610 . S
N569 S568 1.613 . S
N569 C572 1.350 . S
N570 S568 1.610 . S
N570 C571 1.351 . S
C571 C565 1.428 . S
C571 N570 1.351 . S
C571 C572 1.434 . S
C572 C563 1.429 . S
C572 N569 1.350 . S
C572 C571 1.434 . S
C573 C574 1.369 . S
C573 C575 1.419 . S
C573 H577 0.930 . S
C574 C573 1.369 . S
C574 C583 1.429 . S
C575 C573 1.419 . S
C575 C576 1.363 . S
C575 H578 0.929 . S
C576 C575 1.363 . S
C576 C582 1.428 . S
H577 C573 0.930 . S
H578 C575 0.929 . S
S579 N580 1.613 . S
S579 N581 1.610 . S
N580 S579 1.613 . S
N580 C583 1.350 . S
N581 S579 1.610 . S
N581 C582 1.351 . S
C582 C576 1.428 . S
C582 N581 1.351 . S
C582 C583 1.434 . S
C583 C574 1.429 . S
C583 N580 1.350 . S
C583 C582 1.434 . S
C584 C585 1.369 . S
C584 C586 1.419 . S
C584 H588 0.930 . S
C585 C584 1.369 . S
C585 C594 1.429 . S
C586 C584 1.419 . S
C586 C587 1.363 . S
C586 H589 0.929 . S
C587 C586 1.363 . S
C587 C593 1.428 . S
H588 C584 0.930 . S
H589 C586 0.929 . S
S590 N591 1.613 . S
S590 N592 1.610 . S
N591 S590 1.613 . S
N591 C594 1.350 . S
N592 S590 1.610 . S
N592 C593 1.351 . S
C593 C587 1.428 . S
C593 N592 1.351 . S
C593 C594 1.434 . S
C594 C585 1.429 . S
C594 N591 1.350 . S
C594 C593 1.434 . S
C595 C596 1.369 . S
C595 C597 1.419 . S
C595 H599 0.930 . S
C596 C595 1.369 . S
C596 C605 1.429 . S
C597 C595 1.419 . S
C597 C598 1.363 . S
C597 H600 0.929 . S
C598 C597 1.363 . S
C598 C604 1.428 . S
H599 C595 0.930 . S
H600 C597 0.929 . S
S601 N602 1.613 . S
S601 N603 1.610 . S
N602 S601 1.613 . S
N602 C605 1.350 . S
N603 S601 1.610 . S
N603 C604 1.351 . S
C604 C598 1.428 . S
C604 N603 1.351 . S
C604 C605 1.434 . S
C605 C596 1.429 . S
C605 N602 1.350 . S
C605 C604 1.434 . S
C606 C607 1.369 . S
C606 C608 1.419 . S
C606 H610 0.930 . S
C607 C606 1.369 . S
C607 C616 1.429 . S
C608 C606 1.419 . S
C608 C609 1.363 . S
C608 H611 0.929 . S
C609 C608 1.363 . S
C609 C615 1.428 . S
H610 C606 0.930 . S
H611 C608 0.929 . S
S612 N613 1.613 . S
S612 N614 1.610 . S
N613 S612 1.613 . S
N613 C616 1.350 . S
N614 S612 1.610 . S
N614 C615 1.351 . S
C615 C609 1.428 . S
C615 N614 1.351 . S
C615 C616 1.434 . S
C616 C607 1.429 . S
C616 N613 1.350 . S
C616 C615 1.434 . S
C617 C618 1.369 . S
C617 C619 1.419 . S
C617 H621 0.930 . S
C618 C617 1.369 . S
C618 C627 1.429 1_455 S
C619 C617 1.419 . S
C619 C620 1.363 1_455 S
C619 H622 0.929 . S
C620 C619 1.363 1_655 S
C620 C626 1.428 . S
H621 C617 0.930 . S
H622 C619 0.929 . S
S623 N624 1.613 . S
S623 N625 1.610 . S
N624 S623 1.613 . S
N624 C627 1.350 . S
N625 S623 1.610 . S
N625 C626 1.351 . S
C626 C620 1.428 . S
C626 N625 1.351 . S
C626 C627 1.434 . S
C627 C618 1.429 1_655 S
C627 N624 1.350 . S
C627 C626 1.434 . S
C628 C629 1.369 . S
C628 C630 1.419 . S
C628 H632 0.930 . S
C629 C628 1.369 . S
C629 C638 1.429 1_565 S
C630 C628 1.419 . S
C630 C631 1.363 1_565 S
C630 H633 0.929 . S
C631 C630 1.363 1_545 S
C631 C637 1.428 . S
H632 C628 0.930 . S
H633 C630 0.929 . S
S634 N635 1.613 . S
S634 N636 1.610 . S
N635 S634 1.613 . S
N635 C638 1.350 . S
N636 S634 1.610 . S
N636 C637 1.351 . S
C637 C631 1.428 . S
C637 N636 1.351 . S
C637 C638 1.434 . S
C638 C629 1.429 1_545 S
C638 N635 1.350 . S
C638 C637 1.434 . S
C639 C640 1.369 . S
C639 C641 1.419 . S
C639 H643 0.930 . S
C640 C639 1.369 . S
C640 C649 1.429 . S
C641 C639 1.419 . S
C641 C642 1.363 . S
C641 H644 0.929 . S
C642 C641 1.363 . S
C642 C648 1.428 . S
H643 C639 0.930 . S
H644 C641 0.929 . S
S645 N646 1.613 . S
S645 N647 1.610 . S
N646 S645 1.613 . S
N646 C649 1.350 . S
N647 S645 1.610 . S
N647 C648 1.351 . S
C648 C642 1.428 . S
C648 N647 1.351 . S
C648 C649 1.434 . S
C649 C640 1.429 . S
C649 N646 1.350 . S
C649 C648 1.434 . S
C650 C651 1.369 . S
C650 C652 1.419 . S
C650 H654 0.930 . S
C651 C650 1.369 . S
C651 C660 1.429 1_455 S
C652 C650 1.419 . S
C652 C653 1.363 1_455 S
C652 H655 0.929 . S
C653 C652 1.363 1_655 S
C653 C659 1.428 . S
H654 C650 0.930 . S
H655 C652 0.929 . S
S656 N657 1.613 . S
S656 N658 1.610 . S
N657 S656 1.613 . S
N657 C660 1.350 . S
N658 S656 1.610 . S
N658 C659 1.351 . S
C659 C653 1.428 . S
C659 N658 1.351 . S
C659 C660 1.434 . S
C660 C651 1.429 1_655 S
C660 N657 1.350 . S
C660 C659 1.434 . S
C661 C662 1.369 1_545 S
C661 C663 1.419 . S
C661 H665 0.930 . S
C662 C661 1.369 1_565 S
C662 C671 1.429 . S
C663 C661 1.419 . S
C663 C664 1.363 . S
C663 H666 0.929 . S
C664 C663 1.363 . S
C664 C670 1.428 1_545 S
H665 C661 0.930 . S
H666 C663 0.929 . S
S667 N668 1.613 . S
S667 N669 1.610 . S
N668 S667 1.613 . S
N668 C671 1.350 . S
N669 S667 1.610 . S
N669 C670 1.351 . S
C670 C664 1.428 1_565 S
C670 N669 1.351 . S
C670 C671 1.434 . S
C671 C662 1.429 . S
C671 N668 1.350 . S
C671 C670 1.434 . S
C672 C673 1.369 1_565 S
C672 C674 1.419 1_455 S
C672 H676 0.930 . S
C673 C672 1.369 1_545 S
C673 C682 1.429 . S
C674 C672 1.419 1_655 S
C674 C675 1.363 . S
C674 H677 0.929 . S
C675 C674 1.363 . S
C675 C681 1.428 1_565 S
H676 C672 0.930 . S
H677 C674 0.929 . S
S678 N679 1.613 1_655 S
S678 N680 1.610 . S
N679 S678 1.613 1_455 S
N679 C682 1.350 . S
N680 S678 1.610 . S
N680 C681 1.351 . S
C681 C675 1.428 1_545 S
C681 N680 1.351 . S
C681 C682 1.434 1_655 S
C682 C673 1.429 . S
C682 N679 1.350 . S
C682 C681 1.434 1_455 S
C683 C684 1.369 . S
C683 C685 1.419 1_545 S
C683 H687 0.930 . S
C684 C683 1.369 . S
C684 C693 1.429 1_455 S
C685 C683 1.419 1_565 S
C685 C686 1.363 1_455 S
C685 H688 0.929 . S
C686 C685 1.363 1_655 S
C686 C692 1.428 . S
H687 C683 0.930 . S
H688 C685 0.929 . S
S689 N690 1.613 1_565 S
S689 N691 1.610 . S
N690 S689 1.613 1_545 S
N690 C693 1.350 . S
N691 S689 1.610 . S
N691 C692 1.351 . S
C692 C686 1.428 . S
C692 N691 1.351 . S
C692 C693 1.434 1_565 S
C693 C684 1.429 1_655 S
C693 N690 1.350 . S
C693 C692 1.434 1_545 S
C694 C695 1.369 1_455 S
C694 C696 1.419 . S
C694 H698 0.930 . S
C695 C694 1.369 1_655 S
C695 C704 1.429 1_545 S
C696 C694 1.419 . S
C696 C697 1.363 1_545 S
C696 H699 0.929 . S
C697 C696 1.363 1_565 S
C697 C703 1.428 1_455 S
H698 C694 0.930 . S
H699 C696 0.929 . S
S700 N701 1.613 . S
S700 N702 1.610 . S
N701 S700 1.613 . S
N701 C704 1.350 . S
N702 S700 1.610 . S
N702 C703 1.351 . S
C703 C697 1.428 1_655 S
C703 N702 1.351 . S
C703 C704 1.434 . S
C704 C695 1.429 1_565 S
C704 N701 1.350 . S
C704 C703 1.434 . S
C705 C706 1.369 1_455 S
C705 C707 1.419 1_565 S
C705 H709 0.930 . S
C706 C705 1.369 1_655 S
C706 C715 1.429 . S
C707 C705 1.419 1_545 S
C707 C708 1.363 . S
C707 H710 0.929 . S
C708 C707 1.363 . S
C708 C714 1.428 1_455 S
H709 C705 0.930 . S
H710 C707 0.929 . S
S711 N712 1.613 1_545 S
S711 N713 1.610 . S
N712 S711 1.613 1_565 S
N712 C715 1.350 . S
N713 S711 1.610 . S
N713 C714 1.351 . S
C714 C708 1.428 1_655 S
C714 N713 1.351 . S
C714 C715 1.434 1_545 S
C715 C706 1.429 . S
C715 N712 1.350 . S
C715 C714 1.434 1_565 S
C716 C717 1.369 1_565 S
C716 C718 1.419 . S
C716 H720 0.930 . S
C717 C716 1.369 1_545 S
C717 C726 1.429 1_655 S
C718 C716 1.419 . S
C718 C719 1.363 1_655 S
C718 H721 0.929 . S
C719 C718 1.363 1_455 S
C719 C725 1.428 1_565 S
H720 C716 0.930 . S
H721 C718 0.929 . S
S722 N723 1.613 . S
S722 N724 1.610 . S
N723 S722 1.613 . S
N723 C726 1.350 . S
N724 S722 1.610 . S
N724 C725 1.351 . S
C725 C719 1.428 1_545 S
C725 N724 1.351 . S
C725 C726 1.434 . S
C726 C717 1.429 1_455 S
C726 N723 1.350 . S
C726 C725 1.434 . S
C727 C728 1.369 . S
C727 C729 1.419 1_455 S
C727 H731 0.930 . S
C728 C727 1.369 . S
C728 C737 1.429 1_545 S
C729 C727 1.419 1_655 S
C729 C730 1.363 1_545 S
C729 H732 0.929 . S
C730 C729 1.363 1_565 S
C730 C736 1.428 . S
H731 C727 0.930 . S
H732 C729 0.929 . S
S733 N734 1.613 1_655 S
S733 N735 1.610 . S
N734 S733 1.613 1_455 S
N734 C737 1.350 . S
N735 S733 1.610 . S
N735 C736 1.351 . S
C736 C730 1.428 . S
C736 N735 1.351 . S
C736 C737 1.434 1_655 S
C737 C728 1.429 1_565 S
C737 N734 1.350 . S
C737 C736 1.434 1_455 S
C409 C9 1.461 . S
C411 C247 1.455 . S
C420 C43 1.453 . S
C422 C281 1.458 . S
C431 C77 1.460 . S
C433 C315 1.458 . S
C442 C349 1.459 . S
C444 C111 1.459 . S
C453 C383 1.461 . S
C455 C145 1.456 . S
C464 C179 1.457 . S
C466 C213 1.455 . S
C475 C122 0.807 . S
C477 C20 0.800 . S
C486 C54 0.808 . S
C488 C156 0.800 . S
C497 C190 0.806 . S
C499 C88 0.801 . S
C508 C326 0.804 . S
C510 C224 0.802 . S
C519 C360 0.802 . S
C521 C258 0.804 . S
C530 C292 0.808 . S
C532 C394 0.800 . S
C541 C277 1.497 . S
C543 C5 1.496 . S
C552 C39 1.497 . S
C554 C311 1.496 . S
C563 C73 1.497 . S
C565 C345 1.496 . S
C574 C107 1.498 . S
C576 C379 1.497 . S
C585 C141 1.499 . S
C587 C209 1.498 . S
C596 C243 1.497 . S
C598 C175 1.498 . S
C607 C135 2.114 . S
C609 C33 2.115 . S
C618 C67 2.114 . S
C620 C169 2.114 . S
C629 C203 2.114 . S
C631 C101 2.114 . S
C640 C237 2.116 . S
C642 C339 2.113 . S
C651 C271 2.114 . S
C653 C373 2.114 . S
C662 C407 2.112 . S
C664 C305 2.116 . S
C673 C2 1.607 . S
C675 C104 1.601 . S
C684 C36 1.603 . S
C686 C138 1.604 . S
C695 C70 1.606 . S
C697 C172 1.602 . S
C706 C206 1.606 . S
C708 C308 1.602 . S
C717 C342 1.608 . S
C719 C240 1.601 . S
C728 C274 1.605 . S
C730 C376 1.602 . S
