# Generated by pormake.
# Topology mdf, (4)-cn, num edge types: 1
# Building blocks:
#     Node 0, Type 0, BuildingBlock: NAHDIM_clean_sbu_0, # of connection points: 4
#     Node 1, Type 0, BuildingBlock: NAHDIM_clean_sbu_0, # of connection points: 4
#     Node 2, Type 0, BuildingBlock: NAHDIM_clean_sbu_0, # of connection points: 4
#     Node 3, Type 0, BuildingBlock: NAHDIM_clean_sbu_0, # of connection points: 4
#     Node 4, Type 0, BuildingBlock: NAHDIM_clean_sbu_0, # of connection points: 4
#     Node 5, Type 0, BuildingBlock: NAHDIM_clean_sbu_0, # of connection points: 4
#     Node 6, Type 0, BuildingBlock: NAHDIM_clean_sbu_0, # of connection points: 4
#     Node 7, Type 0, BuildingBlock: NAHDIM_clean_sbu_0, # of connection points: 4
#     Edge 8, Type (0, 0), BuildingBlock: CIFDUS_clean_linker_0, # of connection points: 2
#     Edge 9, Type (0, 0), BuildingBlock: CIFDUS_clean_linker_0, # of connection points: 2
#     Edge 10, Type (0, 0), BuildingBlock: CIFDUS_clean_linker_0, # of connection points: 2
#     Edge 11, Type (0, 0), BuildingBlock: CIFDUS_clean_linker_0, # of connection points: 2
#     Edge 12, Type (0, 0), BuildingBlock: CIFDUS_clean_linker_0, # of connection points: 2
#     Edge 13, Type (0, 0), BuildingBlock: CIFDUS_clean_linker_0, # of connection points: 2
#     Edge 14, Type (0, 0), BuildingBlock: CIFDUS_clean_linker_0, # of connection points: 2
#     Edge 15, Type (0, 0), BuildingBlock: CIFDUS_clean_linker_0, # of connection points: 2
#     Edge 16, Type (0, 0), BuildingBlock: CIFDUS_clean_linker_0, # of connection points: 2
#     Edge 17, Type (0, 0), BuildingBlock: CIFDUS_clean_linker_0, # of connection points: 2
#     Edge 18, Type (0, 0), BuildingBlock: CIFDUS_clean_linker_0, # of connection points: 2
#     Edge 19, Type (0, 0), BuildingBlock: CIFDUS_clean_linker_0, # of connection points: 2
#     Edge 20, Type (0, 0), BuildingBlock: CIFDUS_clean_linker_0, # of connection points: 2
#     Edge 21, Type (0, 0), BuildingBlock: CIFDUS_clean_linker_0, # of connection points: 2
#     Edge 22, Type (0, 0), BuildingBlock: CIFDUS_clean_linker_0, # of connection points: 2
#     Edge 23, Type (0, 0), BuildingBlock: CIFDUS_clean_linker_0, # of connection points: 2
# Relax obj value: 0.050
# Max RMSD: 0.056
# Mean RMSD: 0.056
data_MOF--net-mdf--node1-NAHDIM_clean_sbu_0--edge1-CIFDUS_clean_linker_0
_symmetry_space_group_name_H-M    P1
_symmetry_Int_Tables_number       1
_symmetry_cell_setting            triclinic
loop_
_symmetry_equiv_pos_as_xyz
'x, y, z'
_cell_length_a     30.860596
_cell_length_b     30.885048
_cell_length_c     13.078517
_cell_angle_alpha  90.091512
_cell_angle_beta   89.777516
_cell_angle_gamma 96.477476
loop_
_atom_site_label
_atom_site_type_symbol
_atom_site_fract_x
_atom_site_fract_y
_atom_site_fract_z
_atom_type_partial_charge
C0 C 0.23912 0.59513 0.56599 0.0
O1 O 0.26831 0.62148 0.51643 0.0
O2 O 0.26559 0.5902 0.30078 0.0
Zn3 Zn 0.24391 0.53864 0.38905 0.0
O4 O 0.19315 0.50103 0.32578 0.0
C5 C 0.33276 0.51853 0.41291 0.0
O6 O 0.34237 0.56075 0.40098 0.0
O7 O 0.22469 0.55884 0.52608 0.0
C8 C 0.19918 0.47171 0.26057 0.0
O9 O 0.23913 0.46727 0.23065 0.0
C10 C 0.25781 0.5933 0.2059 0.0
O11 O 0.23214 0.56231 0.16069 0.0
O12 O 0.29306 0.50222 0.41071 0.0
C13 C 0.40683 0.78184 0.51551 0.0
O14 O 0.38851 0.78526 0.60557 0.0
O15 O 0.42486 0.71755 0.72735 0.0
Zn16 Zn 0.47207 0.74635 0.6352 0.0
O17 O 0.50812 0.79794 0.70013 0.0
C18 C 0.50472 0.66187 0.60013 0.0
O19 O 0.46749 0.64524 0.64055 0.0
O20 O 0.44322 0.76642 0.5095 0.0
C21 C 0.5388 0.81617 0.64444 0.0
O22 O 0.54387 0.80086 0.55187 0.0
C23 C 0.41275 0.73205 0.81252 0.0
O24 O 0.43298 0.76838 0.84955 0.0
O25 O 0.51284 0.703 0.59168 0.0
C26 C 0.27639 0.88703 0.07295 0.0
O27 O 0.29403 0.88174 0.98281 0.0
O28 O 0.21653 0.89634 0.84307 0.0
Zn29 Zn 0.23074 0.94122 0.95192 0.0
O30 O 0.2819 0.98272 0.9032 0.0
C31 C 0.14226 0.95691 0.00858 0.0
O32 O 0.13791 0.91595 0.03773 0.0
O33 O 0.24661 0.91206 0.08077 0.0
C34 C 0.29135 0.02019 0.94277 0.0
O35 O 0.26764 0.03211 0.0193 0.0
C36 C 0.21389 0.91036 0.75241 0.0
O37 O 0.22053 0.95256 0.73599 0.0
O38 O 0.17863 0.97383 0.97267 0.0
C39 C 0.1111 0.7089 0.99784 0.0
O40 O 0.0952 0.68294 0.07166 0.0
O41 O 0.09165 0.80012 0.19746 0.0
Zn42 Zn 0.05595 0.76803 0.08848 0.0
O43 O 0.01352 0.71866 0.14563 0.0
C44 C 0.00338 0.83734 0.08077 0.0
O45 O 0.00549 0.83179 0.1801 0.0
O46 O 0.09799 0.74622 0.98846 0.0
C47 C 1.00048 0.71873 0.23804 0.0
O48 O 0.01554 0.75102 0.29818 0.0
C49 C 0.11537 0.78352 0.26231 0.0
O50 O 0.11675 0.74117 0.26348 0.0
O51 O 0.02239 0.81257 0.02189 0.0
C52 C 0.71208 0.11639 0.01261 0.0
O53 O 0.68722 0.10018 0.93735 0.0
O54 O 0.80706 0.10159 0.81056 0.0
Zn55 Zn 0.7741 0.06539 0.91897 0.0
O56 O 0.72541 0.02337 0.85903 0.0
C57 C 0.84751 0.01682 0.93563 0.0
O58 O 0.85161 0.02787 0.83885 0.0
O59 O 0.7505 0.10572 0.02075 0.0
C60 C 0.73073 0.0043 0.77441 0.0
O61 O 0.76769 0.01334 0.72464 0.0
C62 C 0.79047 0.11863 0.73389 0.0
O63 O 0.74796 0.11342 0.72166 0.0
O64 O 0.81653 0.02975 0.98782 0.0
C65 C 0.88938 0.26841 0.91839 0.0
O66 O 0.87968 0.28217 0.00989 0.0
O67 O 0.90807 0.21145 0.14803 0.0
Zn68 Zn 0.95083 0.22688 0.03411 0.0
O69 O 0.99446 0.27766 0.07495 0.0
C70 C 0.97669 0.13727 0.03125 0.0
O71 O 0.94199 0.12574 0.08762 0.0
O72 O 0.91909 0.24334 0.90929 0.0
C73 C 0.02938 0.2843 0.02256 0.0
O74 O 0.0347 0.25885 0.94396 0.0
C75 C 0.92132 0.21085 0.23973 0.0
O76 O 0.96313 0.22034 0.25837 0.0
O77 O 0.98468 0.17655 0.00156 0.0
C78 C 0.77729 0.39519 0.48041 0.0
O79 O 0.7852 0.38054 0.38862 0.0
O80 O 0.71527 0.41326 0.26442 0.0
Zn81 Zn 0.73987 0.45953 0.36348 0.0
O82 O 0.79105 0.49836 0.30401 0.0
C83 C 0.65874 0.47986 0.45047 0.0
O84 O 0.65415 0.43795 0.471 0.0
O85 O 0.7585 0.42954 0.48913 0.0
C86 C 0.81127 0.52663 0.36262 0.0
O87 O 0.79853 0.52864 0.45833 0.0
C88 C 0.72057 0.41548 0.16817 0.0
O89 O 0.74335 0.44991 0.12837 0.0
O90 O 0.69284 0.49642 0.40376 0.0
C91 C 0.58349 0.23888 0.43259 0.0
O92 O 0.60868 0.26789 0.48519 0.0
O93 O 0.56712 0.28527 0.67388 0.0
Zn94 Zn 0.51951 0.25312 0.58878 0.0
O95 O 0.4845 0.20562 0.66988 0.0
C96 C 0.48892 0.33506 0.52669 0.0
O97 O 0.53026 0.3507 0.5318 0.0
O98 O 0.54462 0.22774 0.46279 0.0
C99 C 0.46221 0.21636 0.74593 0.0
O100 O 0.46456 0.25766 0.77202 0.0
C101 C 0.58256 0.27048 0.75495 0.0
O102 O 0.56729 0.23154 0.78779 0.0
O103 O 0.47781 0.29504 0.54625 0.0
H104 H 0.39283 0.73897 0.01441 0.0
H105 H 0.35154 0.66948 0.73858 0.0
H106 H 0.29582 0.62395 0.83452 0.0
H107 H 0.26374 0.59918 -0.00122 0.0
H108 H 0.30802 0.66562 0.27643 0.0
H109 H 0.35716 0.71715 0.17768 0.0
C110 C 0.37137 0.71414 0.9752 0.0
C111 C 0.37676 0.70722 0.86988 0.0
C112 C 0.34001 0.68734 0.03122 0.0
C113 C 0.34854 0.67502 0.82 0.0
C114 C 0.31657 0.64902 0.8747 0.0
C115 C 0.28368 0.62529 0.03767 0.0
C116 C 0.28257 0.62816 0.14494 0.0
C117 C 0.31276 0.65415 0.98073 0.0
C118 C 0.30851 0.66237 0.19396 0.0
C119 C 0.33672 0.69188 0.13756 0.0
H120 H 0.33151 0.81962 0.50288 0.0
H121 H 0.43495 0.77667 0.31831 0.0
H122 H 0.40214 0.80325 0.16478 0.0
H123 H 0.34609 0.84123 0.08379 0.0
H124 H 0.24377 0.88643 0.26769 0.0
H125 H 0.27381 0.85578 0.42059 0.0
C126 C 0.34681 0.81592 0.42906 0.0
C127 C 0.38582 0.79649 0.4223 0.0
C128 C 0.32796 0.83158 0.34098 0.0
C129 C 0.40509 0.79179 0.32591 0.0
C130 C 0.38636 0.80697 0.23797 0.0
C131 C 0.33019 0.84422 0.15716 0.0
C132 C 0.2929 0.8663 0.16446 0.0
C133 C 0.34808 0.82728 0.24476 0.0
C134 C 0.27264 0.86975 0.26015 0.0
C135 C 0.28985 0.85231 0.34761 0.0
H136 H 0.1466 0.76007 0.44586 0.0
H137 H 0.13638 0.87115 0.25107 0.0
H138 H 0.16908 0.91988 0.3833 0.0
H139 H 0.19577 0.93145 0.55768 0.0
H140 H 0.20283 0.82121 0.75695 0.0
H141 H 0.17614 0.77166 0.61913 0.0
C142 C 0.15202 0.79489 0.43209 0.0
C143 C 0.13882 0.81201 0.33933 0.0
C144 C 0.16998 0.8229 0.50937 0.0
C145 C 0.14585 0.85721 0.32244 0.0
C146 C 0.16454 0.88512 0.39795 0.0
C147 C 0.19187 0.89657 0.57094 0.0
C148 C 0.20093 0.88008 0.66759 0.0
C149 C 0.17596 0.86839 0.4923 0.0
C150 C 0.19576 0.83476 0.68335 0.0
C151 C 0.18061 0.8064 0.60469 0.0
H152 H 0.1249 0.62588 0.95249 0.0
H153 H 0.16894 0.75978 0.87896 0.0
H154 H 0.21793 0.73599 0.74808 0.0
H155 H 0.24119 0.67751 0.64072 0.0
H156 H 0.19306 0.5438 0.70698 0.0
H157 H 0.1527 0.56716 0.85414 0.0
C158 C 0.14541 0.64984 0.9082 0.0
C159 C 0.14286 0.69446 0.92413 0.0
C160 C 0.17224 0.636 0.83065 0.0
C161 C 0.16977 0.72519 0.86663 0.0
C162 C 0.19771 0.71165 0.79178 0.0
C163 C 0.22234 0.65346 0.68818 0.0
C164 C 0.21961 0.60907 0.66219 0.0
C165 C 0.19816 0.66718 0.7709 0.0
C166 C 0.19518 0.57825 0.72461 0.0
C167 C 0.17206 0.59156 0.80873 0.0
H168 H 0.76888 0.1429 0.54216 0.0
H169 H 0.87766 0.14375 0.74914 0.0
H170 H 0.92728 0.17437 0.61589 0.0
H171 H 0.94053 0.19742 0.43867 0.0
H172 H 0.83253 0.19432 0.22904 0.0
H173 H 0.78197 0.16819 0.36551 0.0
C174 C 0.80336 0.15022 0.55842 0.0
C175 C 0.81951 0.14078 0.65526 0.0
C176 C 0.83195 0.1673 0.48091 0.0
C177 C 0.86435 0.15034 0.67497 0.0
C178 C 0.89282 0.16784 0.59878 0.0
C179 C 0.9059 0.19136 0.42284 0.0
C180 C 0.89041 0.19755 0.32365 0.0
C181 C 0.87708 0.17591 0.50117 0.0
C182 C 0.84538 0.18957 0.30462 0.0
C183 C 0.8164 0.17472 0.38262 0.0
H184 H 0.82926 0.32623 0.91105 0.0
H185 H 0.90263 0.24673 0.71934 0.0
H186 H 0.87177 0.27656 0.56682 0.0
H187 H 0.82809 0.32898 0.48796 0.0
H188 H 0.75705 0.4107 0.67966 0.0
H189 H 0.78286 0.37622 0.83215 0.0
C190 C 0.83832 0.31521 0.83597 0.0
C191 C 0.8683 0.28435 0.82662 0.0
C192 C 0.82121 0.33324 0.74857 0.0
C193 C 0.87955 0.27037 0.72867 0.0
C194 C 0.86208 0.28756 0.64137 0.0
C195 C 0.81808 0.33913 0.56304 0.0
C196 C 0.79111 0.3727 0.57239 0.0
C197 C 0.83353 0.31961 0.65041 0.0
C198 C 0.77823 0.38528 0.67031 0.0
C199 C 0.79294 0.36556 0.7576 0.0
H200 H 0.71121 0.41734 0.96167 0.0
H201 H 0.68039 0.33584 0.22593 0.0
H202 H 0.63827 0.28163 0.1192 0.0
H203 H 0.60513 0.26029 0.95356 0.0
H204 H 0.63296 0.34373 0.69139 0.0
H205 H 0.68159 0.39395 0.79433 0.0
C206 C 0.69562 0.38756 0.99582 0.0
C207 C 0.69853 0.38096 0.10178 0.0
C208 C 0.67067 0.35693 0.93443 0.0
C209 C 0.67827 0.34203 0.14469 0.0
C210 C 0.65416 0.31097 0.08374 0.0
C211 C 0.62219 0.28923 0.91871 0.0
C212 C 0.61509 0.29848 0.81528 0.0
C213 C 0.64933 0.31854 0.97893 0.0
C214 C 0.63747 0.3361 0.77121 0.0
C215 C 0.66531 0.36486 0.82998 0.0
H216 H 0.62744 0.12706 0.05036 0.0
H217 H 0.75863 0.17075 0.14717 0.0
H218 H 0.73038 0.21578 0.28022 0.0
H219 H 0.66836 0.23854 0.3766 0.0
H220 H 0.53717 0.19133 0.28557 0.0
H221 H 0.5655 0.15196 0.14262 0.0
C222 C 0.64986 0.14664 0.10017 0.0
C223 C 0.69503 0.14533 0.08946 0.0
C224 C 0.63339 0.17153 0.17808 0.0
C225 C 0.72368 0.17084 0.15465 0.0
C226 C 0.70757 0.19658 0.23069 0.0
C227 C 0.64596 0.21991 0.32503 0.0
C228 C 0.60074 0.21759 0.34218 0.0
C229 C 0.66247 0.19652 0.24435 0.0
C230 C 0.57215 0.1933 0.27465 0.0
C231 C 0.5883 0.17079 0.19283 0.0
H232 H 0.3229 0.43134 0.44624 0.0
H233 H 0.42106 0.54186 0.41664 0.0
H234 H 0.47823 0.49471 0.44544 0.0
H235 H 0.50026 0.42223 0.4847 0.0
H236 H 0.40122 0.31235 0.5147 0.0
H237 H 0.34466 0.35929 0.48094 0.0
C238 C 0.3568 0.44522 0.44621 0.0
C239 C 0.3676 0.4901 0.42964 0.0
C240 C 0.38945 0.41806 0.46374 0.0
C241 C 0.41175 0.50743 0.4296 0.0
C242 C 0.44452 0.4805 0.44638 0.0
C243 C 0.46633 0.40853 0.48356 0.0
C244 C 0.45509 0.36381 0.50251 0.0
C245 C 0.43374 0.43579 0.46432 0.0
C246 C 0.4109 0.34663 0.50054 0.0
C247 C 0.37844 0.37345 0.48132 0.0
H248 H 0.6562 0.96838 0.86992 0.0
H249 H 0.72916 0.96466 0.58821 0.0
H250 H 0.67573 0.90728 0.523 0.0
H251 H 0.60969 0.85677 0.54693 0.0
H252 H 0.5368 0.8585 0.82894 0.0
H253 H 0.58877 0.91806 0.8928 0.0
C254 C 0.66026 0.95519 0.79404 0.0
C255 C 0.69677 0.97085 0.73422 0.0
C256 C 0.62952 0.92172 0.7571 0.0
C257 C 0.70154 0.95322 0.63617 0.0
C258 C 0.67097 0.92034 0.59868 0.0
C259 C 0.60496 0.87019 0.6223 0.0
C260 C 0.56937 0.85306 0.68304 0.0
C261 C 0.63506 0.90412 0.65872 0.0
C262 C 0.56393 0.87096 0.78057 0.0
C263 C 0.59365 0.90504 0.81715 0.0
H264 H 0.97546 0.05294 0.09708 0.0
H265 H 0.05024 0.1518 0.91545 0.0
H266 H 0.10683 0.1041 0.89011 0.0
H267 H 0.13726 0.03645 0.92646 0.0
H268 H 0.06408 0.93684 0.10817 0.0
H269 H 0.00503 0.98299 0.12725 0.0
C270 C 0.004 0.06393 0.05143 0.0
C271 C 0.0087 0.10615 0.00922 0.0
C272 C 0.03692 0.03638 0.03772 0.0
C273 C 0.04579 0.11966 0.94958 0.0
C274 C 0.07831 0.09242 0.93505 0.0
C275 C 0.10835 0.02465 0.97003 0.0
C276 C 0.10535 0.98348 0.01674 0.0
C277 C 0.07456 0.05108 0.98011 0.0
C278 C 0.06735 0.96852 0.07175 0.0
C279 C 0.0335 0.99483 0.08249 0.0
H280 H 0.95675 0.65111 0.13147 0.0
H281 H 0.96974 0.70822 0.43298 0.0
H282 H 0.91351 0.65336 0.49789 0.0
H283 H 0.85924 0.59056 0.46902 0.0
H284 H 0.84494 0.53328 0.16809 0.0
H285 H 0.90309 0.5867 0.10339 0.0
C286 C 0.94742 0.65144 0.21147 0.0
C287 C 0.96745 0.68395 0.27703 0.0
C288 C 0.91471 0.61982 0.24853 0.0
C289 C 0.95488 0.68379 0.38052 0.0
C290 C 0.92265 0.65239 0.41788 0.0
C291 C 0.86885 0.58958 0.38927 0.0
C292 C 0.84758 0.55796 0.32356 0.0
C293 C 0.90212 0.62048 0.3525 0.0
C294 C 0.86066 0.55726 0.22047 0.0
C295 C 0.89392 0.58785 0.18335 0.0
H296 H 0.31712 0.10358 0.00266 0.0
H297 H 0.34646 0.00548 0.78545 0.0
H298 H 0.40335 0.05673 0.70881 0.0
H299 H 0.44275 0.13033 0.69863 0.0
H300 H 0.41245 0.22869 0.91415 0.0
H301 H 0.35825 0.17632 0.99633 0.0
C302 C 0.33608 0.09328 0.9389 0.0
C303 C 0.32731 0.05075 0.89974 0.0
C304 C 0.3686 0.12302 0.89461 0.0
C305 C 0.35234 0.03804 0.81709 0.0
C306 C 0.38492 0.06735 0.77308 0.0
C307 C 0.42454 0.14025 0.76405 0.0
C308 C 0.43161 0.18349 0.79976 0.0
C309 C 0.39304 0.11006 0.81052 0.0
C310 C 0.40764 0.19571 0.88468 0.0
C311 C 0.37655 0.16578 0.93178 0.0
H312 H 0.90894 0.97563 0.83757 0.0
H313 H 0.85152 0.99118 0.1351 0.0
H314 H 0.89596 0.9381 0.20663 0.0
H315 H 0.94836 0.88483 0.18297 0.0
H316 H 0.00436 0.86788 0.88461 0.0
H317 H 0.96315 0.92411 0.81514 0.0
C318 C 0.90627 0.96763 0.91823 0.0
C319 C 0.87665 0.9871 0.98068 0.0
C320 C 0.9314 0.93662 0.95852 0.0
C321 C 0.8738 0.97645 0.08511 0.0
C322 C 0.89915 0.94605 0.12607 0.0
C323 C 0.95163 0.89345 0.10274 0.0
C324 C 0.9791 0.87191 0.03886 0.0
C325 C 0.92753 0.92544 0.06313 0.0
C326 C 0.98309 0.88362 0.9352 0.0
C327 C 0.95963 0.91585 0.89549 0.0
H328 H 0.02644 0.34807 0.16646 0.0
H329 H 0.11174 0.29765 0.94434 0.0
H330 H 0.17119 0.35179 0.9963 0.0
H331 H 0.19986 0.41192 0.10814 0.0
H332 H 0.11471 0.46346 0.32872 0.0
H333 H 0.0544 0.41066 0.27351 0.0
C334 C 0.05799 0.34902 0.12923 0.0
C335 C 0.0646 0.31864 0.05198 0.0
C336 C 0.09216 0.38044 0.15918 0.0
C337 C 0.10565 0.32056 0.00405 0.0
C338 C 0.13977 0.3515 0.0338 0.0
C339 C 0.16808 0.41175 0.14397 0.0
C340 C 0.16196 0.44146 0.22287 0.0
C341 C 0.13351 0.38137 0.11179 0.0
C342 C 0.12042 0.44096 0.26783 0.0
C343 C 0.08589 0.41068 0.23648 0.0
H344 H 0.50154 0.57363 0.6214 0.0
H345 H 0.58094 0.68578 0.49842 0.0
H346 H 0.63488 0.63934 0.44013 0.0
H347 H 0.66009 0.5673 0.42524 0.0
H348 H 0.5819 0.45498 0.55051 0.0
H349 H 0.52725 0.50118 0.60746 0.0
C350 C 0.53063 0.58793 0.58182 0.0
C351 C 0.53712 0.63319 0.56452 0.0
C352 C 0.56185 0.56105 0.54905 0.0
C353 C 0.57506 0.6511 0.5131 0.0
C354 C 0.60599 0.62456 0.47959 0.0
C355 C 0.63104 0.55283 0.46466 0.0
C356 C 0.62515 0.50771 0.48336 0.0
C357 C 0.59978 0.57955 0.49731 0.0
C358 C 0.58731 0.48961 0.53492 0.0
C359 C 0.556 0.51602 0.56756 0.0
loop_
_geom_bond_atom_site_label_1
_geom_bond_atom_site_label_2
_geom_bond_distance
_geom_bond_site_symmetry_2
_ccdc_geom_bond_type
C0 O1 1.160 . S
C0 O7 1.185 . S
O1 C0 1.160 . S
O2 Zn3 1.899 . S
O2 C10 1.284 . S
Zn3 O2 1.899 . S
Zn3 O4 2.032 . S
Zn3 O7 2.086 . S
Zn3 O12 1.977 . S
O4 Zn3 2.032 . S
O4 C8 1.278 . S
C5 O6 1.203 . S
C5 O12 1.267 . S
O6 C5 1.203 . S
O7 C0 1.185 . S
O7 Zn3 2.086 . S
C8 O4 1.278 . S
C8 O9 1.211 . S
O9 C8 1.211 . S
C10 O2 1.284 . S
C10 O11 1.273 . S
O11 C10 1.273 . S
O12 Zn3 1.977 . S
O12 C5 1.267 . S
C13 O14 1.160 . S
C13 O20 1.185 . S
O14 C13 1.160 . S
O15 Zn16 1.899 . S
O15 C23 1.284 . S
Zn16 O15 1.899 . S
Zn16 O17 2.032 . S
Zn16 O20 2.086 . S
Zn16 O25 1.977 . S
O17 Zn16 2.032 . S
O17 C21 1.278 . S
C18 O19 1.203 . S
C18 O25 1.267 . S
O19 C18 1.203 . S
O20 C13 1.185 . S
O20 Zn16 2.086 . S
C21 O17 1.278 . S
C21 O22 1.211 . S
O22 C21 1.211 . S
C23 O15 1.284 . S
C23 O24 1.273 . S
O24 C23 1.273 . S
O25 Zn16 1.977 . S
O25 C18 1.267 . S
C26 O27 1.160 1_554 S
C26 O33 1.185 . S
O27 C26 1.160 1_556 S
O28 Zn29 1.899 . S
O28 C36 1.284 . S
Zn29 O28 1.899 . S
Zn29 O30 2.032 . S
Zn29 O33 2.086 1_556 S
Zn29 O38 1.977 . S
O30 Zn29 2.032 . S
O30 C34 1.278 1_565 S
C31 O32 1.203 . S
C31 O38 1.267 1_545 S
O32 C31 1.203 . S
O33 C26 1.185 . S
O33 Zn29 2.086 1_554 S
C34 O30 1.278 1_545 S
C34 O35 1.211 . S
O35 C34 1.211 . S
C36 O28 1.284 . S
C36 O37 1.273 . S
O37 C36 1.273 . S
O38 Zn29 1.977 . S
O38 C31 1.267 1_565 S
C39 O40 1.160 1_556 S
C39 O46 1.185 . S
O40 C39 1.160 1_554 S
O41 Zn42 1.899 . S
O41 C49 1.284 . S
Zn42 O41 1.899 . S
Zn42 O43 2.032 . S
Zn42 O46 2.086 1_554 S
Zn42 O51 1.977 . S
O43 Zn42 2.032 . S
O43 C47 1.278 1_455 S
C44 O45 1.203 . S
C44 O51 1.267 1_655 S
O45 C44 1.203 . S
O46 C39 1.185 . S
O46 Zn42 2.086 1_556 S
C47 O43 1.278 1_655 S
C47 O48 1.211 . S
O48 C47 1.211 . S
C49 O41 1.284 . S
C49 O50 1.273 . S
O50 C49 1.273 . S
O51 Zn42 1.977 . S
O51 C44 1.267 1_455 S
C52 O53 1.160 1_554 S
C52 O59 1.185 . S
O53 C52 1.160 1_556 S
O54 Zn55 1.899 . S
O54 C62 1.284 . S
Zn55 O54 1.899 . S
Zn55 O56 2.032 . S
Zn55 O59 2.086 1_556 S
Zn55 O64 1.977 . S
O56 Zn55 2.032 . S
O56 C60 1.278 1_545 S
C57 O58 1.203 . S
C57 O64 1.267 1_565 S
O58 C57 1.203 . S
O59 C52 1.185 . S
O59 Zn55 2.086 1_554 S
C60 O56 1.278 1_565 S
C60 O61 1.211 . S
O61 C60 1.211 . S
C62 O54 1.284 . S
C62 O63 1.273 . S
O63 C62 1.273 . S
O64 Zn55 1.977 . S
O64 C57 1.267 1_545 S
C65 O66 1.160 1_556 S
C65 O72 1.185 . S
O66 C65 1.160 1_554 S
O67 Zn68 1.899 . S
O67 C75 1.284 . S
Zn68 O67 1.899 . S
Zn68 O69 2.032 . S
Zn68 O72 2.086 1_554 S
Zn68 O77 1.977 . S
O69 Zn68 2.032 . S
O69 C73 1.278 1_655 S
C70 O71 1.203 . S
C70 O77 1.267 1_455 S
O71 C70 1.203 . S
O72 C65 1.185 . S
O72 Zn68 2.086 1_556 S
C73 O69 1.278 1_455 S
C73 O74 1.211 . S
O74 C73 1.211 . S
C75 O67 1.284 . S
C75 O76 1.273 . S
O76 C75 1.273 . S
O77 Zn68 1.977 . S
O77 C70 1.267 1_655 S
C78 O79 1.160 . S
C78 O85 1.185 . S
O79 C78 1.160 . S
O80 Zn81 1.899 . S
O80 C88 1.284 . S
Zn81 O80 1.899 . S
Zn81 O82 2.032 . S
Zn81 O85 2.086 . S
Zn81 O90 1.977 . S
O82 Zn81 2.032 . S
O82 C86 1.278 . S
C83 O84 1.203 . S
C83 O90 1.267 . S
O84 C83 1.203 . S
O85 C78 1.185 . S
O85 Zn81 2.086 . S
C86 O82 1.278 . S
C86 O87 1.211 . S
O87 C86 1.211 . S
C88 O80 1.284 . S
C88 O89 1.273 . S
O89 C88 1.273 . S
O90 Zn81 1.977 . S
O90 C83 1.267 . S
C91 O92 1.160 . S
C91 O98 1.185 . S
O92 C91 1.160 . S
O93 Zn94 1.899 . S
O93 C101 1.284 . S
Zn94 O93 1.899 . S
Zn94 O95 2.032 . S
Zn94 O98 2.086 . S
Zn94 O103 1.977 . S
O95 Zn94 2.032 . S
O95 C99 1.278 . S
C96 O97 1.203 . S
C96 O103 1.267 . S
O97 C96 1.203 . S
O98 C91 1.185 . S
O98 Zn94 2.086 . S
C99 O95 1.278 . S
C99 O100 1.211 . S
O100 C99 1.211 . S
C101 O93 1.284 . S
C101 O102 1.273 . S
O102 C101 1.273 . S
O103 Zn94 1.977 . S
O103 C96 1.267 . S
H104 C110 0.930 . S
H105 C113 0.930 . S
H106 C114 0.930 . S
H107 C115 0.930 . S
H108 C118 0.930 . S
H109 C119 0.930 . S
C110 H104 0.930 . S
C110 C111 1.355 . S
C110 C112 1.415 1_556 S
C111 C110 1.355 . S
C111 C113 1.419 . S
C112 C110 1.415 1_554 S
C112 C117 1.425 1_554 S
C112 C119 1.409 . S
C113 H105 0.930 . S
C113 C111 1.419 . S
C113 C114 1.362 . S
C114 H106 0.930 . S
C114 C113 1.362 . S
C114 C117 1.409 . S
C115 H107 0.930 . S
C115 C116 1.355 . S
C115 C117 1.415 1_554 S
C116 C115 1.355 . S
C116 C118 1.419 . S
C117 C112 1.425 1_556 S
C117 C114 1.409 . S
C117 C115 1.415 1_556 S
C118 H108 0.930 . S
C118 C116 1.419 . S
C118 C119 1.362 . S
C119 H109 0.930 . S
C119 C112 1.409 . S
C119 C118 1.362 . S
H120 C126 0.930 . S
H121 C129 0.930 . S
H122 C130 0.930 . S
H123 C131 0.930 . S
H124 C134 0.930 . S
H125 C135 0.930 . S
C126 H120 0.930 . S
C126 C127 1.355 . S
C126 C128 1.415 . S
C127 C126 1.355 . S
C127 C129 1.419 . S
C128 C126 1.415 . S
C128 C133 1.425 . S
C128 C135 1.409 . S
C129 H121 0.930 . S
C129 C127 1.419 . S
C129 C130 1.362 . S
C130 H122 0.930 . S
C130 C129 1.362 . S
C130 C133 1.409 . S
C131 H123 0.930 . S
C131 C132 1.355 . S
C131 C133 1.415 . S
C132 C131 1.355 . S
C132 C134 1.419 . S
C133 C128 1.425 . S
C133 C130 1.409 . S
C133 C131 1.415 . S
C134 H124 0.930 . S
C134 C132 1.419 . S
C134 C135 1.362 . S
C135 H125 0.930 . S
C135 C128 1.409 . S
C135 C134 1.362 . S
H136 C142 0.930 . S
H137 C145 0.930 . S
H138 C146 0.930 . S
H139 C147 0.930 . S
H140 C150 0.930 . S
H141 C151 0.930 . S
C142 H136 0.930 . S
C142 C143 1.355 . S
C142 C144 1.415 . S
C143 C142 1.355 . S
C143 C145 1.419 . S
C144 C142 1.415 . S
C144 C149 1.425 . S
C144 C151 1.409 . S
C145 H137 0.930 . S
C145 C143 1.419 . S
C145 C146 1.362 . S
C146 H138 0.930 . S
C146 C145 1.362 . S
C146 C149 1.409 . S
C147 H139 0.930 . S
C147 C148 1.355 . S
C147 C149 1.415 . S
C148 C147 1.355 . S
C148 C150 1.419 . S
C149 C144 1.425 . S
C149 C146 1.409 . S
C149 C147 1.415 . S
C150 H140 0.930 . S
C150 C148 1.419 . S
C150 C151 1.362 . S
C151 H141 0.930 . S
C151 C144 1.409 . S
C151 C150 1.362 . S
H152 C158 0.930 . S
H153 C161 0.930 . S
H154 C162 0.930 . S
H155 C163 0.930 . S
H156 C166 0.930 . S
H157 C167 0.930 . S
C158 H152 0.930 . S
C158 C159 1.355 . S
C158 C160 1.415 . S
C159 C158 1.355 . S
C159 C161 1.419 . S
C160 C158 1.415 . S
C160 C165 1.425 . S
C160 C167 1.409 . S
C161 H153 0.930 . S
C161 C159 1.419 . S
C161 C162 1.362 . S
C162 H154 0.930 . S
C162 C161 1.362 . S
C162 C165 1.409 . S
C163 H155 0.930 . S
C163 C164 1.355 . S
C163 C165 1.415 . S
C164 C163 1.355 . S
C164 C166 1.419 . S
C165 C160 1.425 . S
C165 C162 1.409 . S
C165 C163 1.415 . S
C166 H156 0.930 . S
C166 C164 1.419 . S
C166 C167 1.362 . S
C167 H157 0.930 . S
C167 C160 1.409 . S
C167 C166 1.362 . S
H168 C174 0.930 . S
H169 C177 0.930 . S
H170 C178 0.930 . S
H171 C179 0.930 . S
H172 C182 0.930 . S
H173 C183 0.930 . S
C174 H168 0.930 . S
C174 C175 1.355 . S
C174 C176 1.415 . S
C175 C174 1.355 . S
C175 C177 1.419 . S
C176 C174 1.415 . S
C176 C181 1.425 . S
C176 C183 1.409 . S
C177 H169 0.930 . S
C177 C175 1.419 . S
C177 C178 1.362 . S
C178 H170 0.930 . S
C178 C177 1.362 . S
C178 C181 1.409 . S
C179 H171 0.930 . S
C179 C180 1.355 . S
C179 C181 1.415 . S
C180 C179 1.355 . S
C180 C182 1.419 . S
C181 C176 1.425 . S
C181 C178 1.409 . S
C181 C179 1.415 . S
C182 H172 0.930 . S
C182 C180 1.419 . S
C182 C183 1.362 . S
C183 H173 0.930 . S
C183 C176 1.409 . S
C183 C182 1.362 . S
H184 C190 0.930 . S
H185 C193 0.930 . S
H186 C194 0.930 . S
H187 C195 0.930 . S
H188 C198 0.930 . S
H189 C199 0.930 . S
C190 H184 0.930 . S
C190 C191 1.355 . S
C190 C192 1.415 . S
C191 C190 1.355 . S
C191 C193 1.419 . S
C192 C190 1.415 . S
C192 C197 1.425 . S
C192 C199 1.409 . S
C193 H185 0.930 . S
C193 C191 1.419 . S
C193 C194 1.362 . S
C194 H186 0.930 . S
C194 C193 1.362 . S
C194 C197 1.409 . S
C195 H187 0.930 . S
C195 C196 1.355 . S
C195 C197 1.415 . S
C196 C195 1.355 . S
C196 C198 1.419 . S
C197 C192 1.425 . S
C197 C194 1.409 . S
C197 C195 1.415 . S
C198 H188 0.930 . S
C198 C196 1.419 . S
C198 C199 1.362 . S
C199 H189 0.930 . S
C199 C192 1.409 . S
C199 C198 1.362 . S
H200 C206 0.930 . S
H201 C209 0.930 . S
H202 C210 0.930 . S
H203 C211 0.930 . S
H204 C214 0.930 . S
H205 C215 0.930 . S
C206 H200 0.930 . S
C206 C207 1.355 . S
C206 C208 1.415 1_554 S
C207 C206 1.355 . S
C207 C209 1.419 . S
C208 C206 1.415 1_556 S
C208 C213 1.425 1_556 S
C208 C215 1.409 . S
C209 H201 0.930 . S
C209 C207 1.419 . S
C209 C210 1.362 . S
C210 H202 0.930 . S
C210 C209 1.362 . S
C210 C213 1.409 . S
C211 H203 0.930 . S
C211 C212 1.355 . S
C211 C213 1.415 1_556 S
C212 C211 1.355 . S
C212 C214 1.419 . S
C213 C208 1.425 1_554 S
C213 C210 1.409 . S
C213 C211 1.415 1_554 S
C214 H204 0.930 . S
C214 C212 1.419 . S
C214 C215 1.362 . S
C215 H205 0.930 . S
C215 C208 1.409 . S
C215 C214 1.362 . S
H216 C222 0.930 . S
H217 C225 0.930 . S
H218 C226 0.930 . S
H219 C227 0.930 . S
H220 C230 0.930 . S
H221 C231 0.930 . S
C222 H216 0.930 . S
C222 C223 1.355 . S
C222 C224 1.415 . S
C223 C222 1.355 . S
C223 C225 1.419 . S
C224 C222 1.415 . S
C224 C229 1.425 . S
C224 C231 1.409 . S
C225 H217 0.930 . S
C225 C223 1.419 . S
C225 C226 1.362 . S
C226 H218 0.930 . S
C226 C225 1.362 . S
C226 C229 1.409 . S
C227 H219 0.930 . S
C227 C228 1.355 . S
C227 C229 1.415 . S
C228 C227 1.355 . S
C228 C230 1.419 . S
C229 C224 1.425 . S
C229 C226 1.409 . S
C229 C227 1.415 . S
C230 H220 0.930 . S
C230 C228 1.419 . S
C230 C231 1.362 . S
C231 H221 0.930 . S
C231 C224 1.409 . S
C231 C230 1.362 . S
H232 C238 0.930 . S
H233 C241 0.930 . S
H234 C242 0.930 . S
H235 C243 0.930 . S
H236 C246 0.930 . S
H237 C247 0.930 . S
C238 H232 0.930 . S
C238 C239 1.355 . S
C238 C240 1.415 . S
C239 C238 1.355 . S
C239 C241 1.419 . S
C240 C238 1.415 . S
C240 C245 1.425 . S
C240 C247 1.409 . S
C241 H233 0.930 . S
C241 C239 1.419 . S
C241 C242 1.362 . S
C242 H234 0.930 . S
C242 C241 1.362 . S
C242 C245 1.409 . S
C243 H235 0.930 . S
C243 C244 1.355 . S
C243 C245 1.415 . S
C244 C243 1.355 . S
C244 C246 1.419 . S
C245 C240 1.425 . S
C245 C242 1.409 . S
C245 C243 1.415 . S
C246 H236 0.930 . S
C246 C244 1.419 . S
C246 C247 1.362 . S
C247 H237 0.930 . S
C247 C240 1.409 . S
C247 C246 1.362 . S
H248 C254 0.930 . S
H249 C257 0.930 . S
H250 C258 0.930 . S
H251 C259 0.930 . S
H252 C262 0.930 . S
H253 C263 0.930 . S
C254 H248 0.930 . S
C254 C255 1.355 . S
C254 C256 1.415 . S
C255 C254 1.355 . S
C255 C257 1.419 . S
C256 C254 1.415 . S
C256 C261 1.425 . S
C256 C263 1.409 . S
C257 H249 0.930 . S
C257 C255 1.419 . S
C257 C258 1.362 . S
C258 H250 0.930 . S
C258 C257 1.362 . S
C258 C261 1.409 . S
C259 H251 0.930 . S
C259 C260 1.355 . S
C259 C261 1.415 . S
C260 C259 1.355 . S
C260 C262 1.419 . S
C261 C256 1.425 . S
C261 C258 1.409 . S
C261 C259 1.415 . S
C262 H252 0.930 . S
C262 C260 1.419 . S
C262 C263 1.362 . S
C263 H253 0.930 . S
C263 C256 1.409 . S
C263 C262 1.362 . S
H264 C270 0.930 . S
H265 C273 0.930 . S
H266 C274 0.930 . S
H267 C275 0.930 . S
H268 C278 0.930 1_565 S
H269 C279 0.930 . S
C270 H264 0.930 . S
C270 C271 1.355 . S
C270 C272 1.415 . S
C271 C270 1.355 . S
C271 C273 1.419 . S
C272 C270 1.415 . S
C272 C277 1.425 1_554 S
C272 C279 1.409 . S
C273 H265 0.930 . S
C273 C271 1.419 . S
C273 C274 1.362 1_554 S
C274 H266 0.930 . S
C274 C273 1.362 1_556 S
C274 C277 1.409 . S
C275 H267 0.930 . S
C275 C276 1.355 . S
C275 C277 1.415 . S
C276 C275 1.355 . S
C276 C278 1.419 . S
C277 C272 1.425 1_556 S
C277 C274 1.409 . S
C277 C275 1.415 . S
C278 H268 0.930 1_545 S
C278 C276 1.419 . S
C278 C279 1.362 1_556 S
C279 H269 0.930 . S
C279 C272 1.409 . S
C279 C278 1.362 1_554 S
H280 C286 0.930 . S
H281 C289 0.930 . S
H282 C290 0.930 . S
H283 C291 0.930 . S
H284 C294 0.930 . S
H285 C295 0.930 . S
C286 H280 0.930 . S
C286 C287 1.355 . S
C286 C288 1.415 . S
C287 C286 1.355 . S
C287 C289 1.419 . S
C288 C286 1.415 . S
C288 C293 1.425 . S
C288 C295 1.409 . S
C289 H281 0.930 . S
C289 C287 1.419 . S
C289 C290 1.362 . S
C290 H282 0.930 . S
C290 C289 1.362 . S
C290 C293 1.409 . S
C291 H283 0.930 . S
C291 C292 1.355 . S
C291 C293 1.415 . S
C292 C291 1.355 . S
C292 C294 1.419 . S
C293 C288 1.425 . S
C293 C290 1.409 . S
C293 C291 1.415 . S
C294 H284 0.930 . S
C294 C292 1.419 . S
C294 C295 1.362 . S
C295 H285 0.930 . S
C295 C288 1.409 . S
C295 C294 1.362 . S
H296 C302 0.930 . S
H297 C305 0.930 . S
H298 C306 0.930 . S
H299 C307 0.930 . S
H300 C310 0.930 . S
H301 C311 0.930 . S
C302 H296 0.930 . S
C302 C303 1.355 . S
C302 C304 1.415 . S
C303 C302 1.355 . S
C303 C305 1.419 . S
C304 C302 1.415 . S
C304 C309 1.425 . S
C304 C311 1.409 . S
C305 H297 0.930 . S
C305 C303 1.419 . S
C305 C306 1.362 . S
C306 H298 0.930 . S
C306 C305 1.362 . S
C306 C309 1.409 . S
C307 H299 0.930 . S
C307 C308 1.355 . S
C307 C309 1.415 . S
C308 C307 1.355 . S
C308 C310 1.419 . S
C309 C304 1.425 . S
C309 C306 1.409 . S
C309 C307 1.415 . S
C310 H300 0.930 . S
C310 C308 1.419 . S
C310 C311 1.362 . S
C311 H301 0.930 . S
C311 C304 1.409 . S
C311 C310 1.362 . S
H312 C318 0.930 . S
H313 C321 0.930 . S
H314 C322 0.930 . S
H315 C323 0.930 . S
H316 C326 0.930 1_455 S
H317 C327 0.930 . S
C318 H312 0.930 . S
C318 C319 1.355 . S
C318 C320 1.415 . S
C319 C318 1.355 . S
C319 C321 1.419 1_556 S
C320 C318 1.415 . S
C320 C325 1.425 1_556 S
C320 C327 1.409 . S
C321 H313 0.930 . S
C321 C319 1.419 1_554 S
C321 C322 1.362 . S
C322 H314 0.930 . S
C322 C321 1.362 . S
C322 C325 1.409 . S
C323 H315 0.930 . S
C323 C324 1.355 . S
C323 C325 1.415 . S
C324 C323 1.355 . S
C324 C326 1.419 1_554 S
C325 C320 1.425 1_554 S
C325 C322 1.409 . S
C325 C323 1.415 . S
C326 H316 0.930 1_655 S
C326 C324 1.419 1_556 S
C326 C327 1.362 . S
C327 H317 0.930 . S
C327 C320 1.409 . S
C327 C326 1.362 . S
H328 C334 0.930 . S
H329 C337 0.930 . S
H330 C338 0.930 . S
H331 C339 0.930 . S
H332 C342 0.930 . S
H333 C343 0.930 . S
C334 H328 0.930 . S
C334 C335 1.355 . S
C334 C336 1.415 . S
C335 C334 1.355 . S
C335 C337 1.419 . S
C336 C334 1.415 . S
C336 C341 1.425 . S
C336 C343 1.409 . S
C337 H329 0.930 . S
C337 C335 1.419 . S
C337 C338 1.362 . S
C338 H330 0.930 . S
C338 C337 1.362 . S
C338 C341 1.409 . S
C339 H331 0.930 . S
C339 C340 1.355 . S
C339 C341 1.415 . S
C340 C339 1.355 . S
C340 C342 1.419 . S
C341 C336 1.425 . S
C341 C338 1.409 . S
C341 C339 1.415 . S
C342 H332 0.930 . S
C342 C340 1.419 . S
C342 C343 1.362 . S
C343 H333 0.930 . S
C343 C336 1.409 . S
C343 C342 1.362 . S
H344 C350 0.930 . S
H345 C353 0.930 . S
H346 C354 0.930 . S
H347 C355 0.930 . S
H348 C358 0.930 . S
H349 C359 0.930 . S
C350 H344 0.930 . S
C350 C351 1.355 . S
C350 C352 1.415 . S
C351 C350 1.355 . S
C351 C353 1.419 . S
C352 C350 1.415 . S
C352 C357 1.425 . S
C352 C359 1.409 . S
C353 H345 0.930 . S
C353 C351 1.419 . S
C353 C354 1.362 . S
C354 H346 0.930 . S
C354 C353 1.362 . S
C354 C357 1.409 . S
C355 H347 0.930 . S
C355 C356 1.355 . S
C355 C357 1.415 . S
C356 C355 1.355 . S
C356 C358 1.419 . S
C357 C352 1.425 . S
C357 C354 1.409 . S
C357 C355 1.415 . S
C358 H348 0.930 . S
C358 C356 1.419 . S
C358 C359 1.362 . S
C359 H349 0.930 . S
C359 C352 1.409 . S
C359 C358 1.362 . S
C111 C23 1.407 . S
C116 C10 1.413 . S
C127 C13 1.424 . S
C132 C26 1.401 . S
C143 C49 1.391 . S
C148 C36 1.401 . S
C159 C39 1.398 . S
C164 C0 1.423 . S
C175 C62 1.377 . S
C180 C75 1.387 . S
C191 C65 1.393 . S
C196 C78 1.420 . S
C207 C88 1.396 . S
C212 C101 1.406 . S
C223 C52 1.391 . S
C228 C91 1.417 . S
C239 C5 1.441 . S
C244 C96 1.439 . S
C255 C60 1.400 . S
C260 C21 1.464 . S
C271 C70 1.423 . S
C276 C31 1.425 . S
C287 C47 1.408 . S
C292 C86 1.470 . S
C303 C34 1.458 . S
C308 C99 1.400 . S
C319 C57 1.430 . S
C324 C44 1.432 . S
C335 C73 1.407 . S
C340 C8 1.443 . S
C351 C18 1.423 . S
C356 C83 1.424 . S
