# Generated by pormake.
# Topology nbo, (4)-cn, num edge types: 1
# Building blocks:
#     Node 0, Type 0, BuildingBlock: ESEHIV_clean_sbu_0, # of connection points: 4
#     Node 1, Type 0, BuildingBlock: ESEHIV_clean_sbu_0, # of connection points: 4
#     Node 2, Type 0, BuildingBlock: ESEHIV_clean_sbu_0, # of connection points: 4
#     Node 3, Type 0, BuildingBlock: ESEHIV_clean_sbu_0, # of connection points: 4
#     Node 4, Type 0, BuildingBlock: ESEHIV_clean_sbu_0, # of connection points: 4
#     Node 5, Type 0, BuildingBlock: ESEHIV_clean_sbu_0, # of connection points: 4
#     Edge 6, Type (0, 0), BuildingBlock: ZUJKAS_clean_linker_0, # of connection points: 2
#     Edge 7, Type (0, 0), BuildingBlock: ZUJKAS_clean_linker_0, # of connection points: 2
#     Edge 8, Type (0, 0), BuildingBlock: ZUJKAS_clean_linker_0, # of connection points: 2
#     Edge 9, Type (0, 0), BuildingBlock: ZUJKAS_clean_linker_0, # of connection points: 2
#     Edge 10, Type (0, 0), BuildingBlock: ZUJKAS_clean_linker_0, # of connection points: 2
#     Edge 11, Type (0, 0), BuildingBlock: ZUJKAS_clean_linker_0, # of connection points: 2
#     Edge 12, Type (0, 0), BuildingBlock: ZUJKAS_clean_linker_0, # of connection points: 2
#     Edge 13, Type (0, 0), BuildingBlock: ZUJKAS_clean_linker_0, # of connection points: 2
#     Edge 14, Type (0, 0), BuildingBlock: ZUJKAS_clean_linker_0, # of connection points: 2
#     Edge 15, Type (0, 0), BuildingBlock: ZUJKAS_clean_linker_0, # of connection points: 2
#     Edge 16, Type (0, 0), BuildingBlock: ZUJKAS_clean_linker_0, # of connection points: 2
#     Edge 17, Type (0, 0), BuildingBlock: ZUJKAS_clean_linker_0, # of connection points: 2
# Relax obj value: 0.000
# Max RMSD: 0.095
# Mean RMSD: 0.094
data_MOF--net-nbo--node1-ESEHIV_clean_sbu_0--edge1-ZUJKAS_clean_linker_0
_symmetry_space_group_name_H-M    P1
_symmetry_Int_Tables_number       1
_symmetry_cell_setting            triclinic
loop_
_symmetry_equiv_pos_as_xyz
'x, y, z'
_cell_length_a     38.638105
_cell_length_b     43.656792
_cell_length_c     41.229239
_cell_angle_alpha  104.13217
_cell_angle_beta   104.16132
_cell_angle_gamma 104.13037
loop_
_atom_site_label
_atom_site_type_symbol
_atom_site_fract_x
_atom_site_fract_y
_atom_site_fract_z
_atom_type_partial_charge
Cu0 Cu 0.02546 1.0073 0.50534 0.0
N1 N 0.03791 0.05298 0.53072 0.0
N2 N 0.04006 0.10655 0.53983 0.0
C3 C 0.02606 0.07504 0.51671 0.0
C4 C 0.06163 0.10398 0.56965 0.0
C5 C 0.06032 0.0711 0.56395 0.0
O6 O 0.97191 0.99414 0.47754 0.0
C7 C 0.09562 1.00859 0.50318 0.0
O8 O 0.09962 0.017 0.53705 0.0
H9 H 1.00815 0.06801 0.48964 0.0
H10 H 0.07523 0.06137 0.58262 0.0
N11 N 0.02813 0.97831 0.5327 0.0
N12 N 0.02649 0.9303 0.54418 0.0
C13 C 0.02121 0.94513 0.51896 0.0
C14 C 0.03792 0.98471 0.56794 0.0
C15 C 0.03706 0.95524 0.57507 0.0
C16 C 0.95127 0.99462 0.49752 0.0
O17 O 0.96781 1.00289 0.53174 0.0
H18 H 0.01323 0.93228 0.49092 0.0
H19 H 0.0452 1.00901 0.58715 0.0
O20 O 0.06327 1.00345 0.48132 0.0
H21 H 0.07736 0.12432 0.59402 0.0
H22 H 0.04334 0.95238 0.60101 0.0
Cu23 Cu 0.548 0.0806 0.02253 0.0
N24 N 0.52072 0.03523 0.0127 0.0
N25 N 0.51048 0.98201 0.01204 0.0
C26 C 0.53582 1.01309 0.02344 0.0
C27 C 0.47806 0.98488 0.99341 0.0
C28 C 0.48442 0.01757 0.99389 0.0
O29 O 0.57842 0.09513 0.07274 0.0
C30 C 0.55118 0.07068 0.95507 0.0
O31 O 0.51511 0.05733 0.94989 0.0
H32 H 0.56519 0.01967 0.03878 0.0
H33 H 0.46405 0.02751 0.98092 0.0
N34 N 0.51853 0.10915 0.01859 0.0
N35 N 0.5057 0.15698 0.0203 0.0
C36 C 0.53235 0.14169 0.02165 0.0
C37 C 0.48174 0.10356 0.01496 0.0
C38 C 0.4738 0.13292 0.01604 0.0
C39 C 0.55818 0.09578 0.0931 0.0
O40 O 0.52153 0.0878 0.07881 0.0
H41 H 0.56177 0.15414 0.02597 0.0
H42 H 0.46223 0.08014 0.01274 0.0
O43 O 0.5737 0.08309 0.98692 0.0
H44 H 0.45145 0.96487 0.98042 0.0
H45 H 0.44658 0.13624 0.014 0.0
Cu46 Cu 0.04822 0.53886 0.00992 0.0
N47 N 0.03601 0.51109 0.9635 0.0
N48 N 0.03547 0.49648 0.90727 0.0
C49 C 0.04774 0.52127 0.93852 0.0
C50 C 0.01505 0.46957 0.91294 0.0
C51 C 0.01548 0.47865 0.94764 0.0
O52 O 0.09841 0.56952 0.0177 0.0
C53 C 0.97573 0.53752 0.00809 0.0
O54 O 0.97367 0.50631 1.00441 0.0
H55 H 0.06461 0.54665 0.94325 0.0
H56 H 1.00195 0.4627 0.9604 0.0
N57 N 0.05156 0.51494 0.04229 0.0
N58 N 0.05618 0.50295 0.09282 0.0
C59 C 0.04972 0.52463 0.07538 0.0
C60 C 0.05915 0.48604 0.03854 0.0
C61 C 0.062 0.47859 0.06955 0.0
C62 C 0.12843 0.56959 0.03932 0.0
O63 O 0.12557 0.55532 0.06356 0.0
H64 H 0.04506 0.54776 0.08678 0.0
H65 H 0.06318 0.47177 0.01515 0.0
O66 O 1.00729 0.55812 0.01146 0.0
H67 H 1.00117 0.44492 0.89362 0.0
H68 H 0.06796 0.45689 0.07452 0.0
Cu69 Cu 0.55282 0.58163 0.02572 0.0
N70 N 0.56444 0.62642 0.05308 0.0
N71 N 0.56619 0.67999 0.0648 0.0
C72 C 0.55515 0.64977 0.03976 0.0
C73 C 0.5832 0.67531 0.09517 0.0
C74 C 0.58199 0.64231 0.08789 0.0
O75 O 0.50214 0.57249 0.99311 0.0
C76 C 0.62549 0.58444 0.02992 0.0
O77 O 0.6265 0.592 0.06308 0.0
H78 H 0.54077 0.64457 0.012 0.0
H79 H 0.59293 0.63072 0.10668 0.0
N80 N 0.54992 0.55162 0.05185 0.0
N81 N 0.5454 0.50337 0.06357 0.0
C82 C 0.55342 0.52092 0.04191 0.0
C83 C 0.53975 0.55378 0.08107 0.0
C84 C 0.53696 0.52415 0.08834 0.0
C85 C 0.47338 0.54883 0.99021 0.0
O86 O 0.47852 0.52389 1.00101 0.0
H87 H 0.55971 0.51106 0.01808 0.0
H88 H 0.5335 0.57492 0.09533 0.0
O89 O 0.59416 0.57881 0.00626 0.0
H90 H 0.59514 0.69417 0.121 0.0
H91 H 0.52871 0.51826 0.10994 0.0
Cu92 Cu 0.02198 0.50586 0.49797 0.0
N93 N 0.99451 0.45986 0.48258 0.0
N94 N 0.98323 0.4058 0.47893 0.0
C95 C 1.00818 0.43716 0.49362 0.0
C96 C 0.95261 0.40908 0.45757 0.0
C97 C 0.95964 0.44231 0.45984 0.0
O98 O 0.05014 0.51536 0.54781 0.0
C99 C 0.02772 0.51057 0.43463 0.0
O100 O 0.99141 0.50364 0.42973 0.0
H101 H 0.03624 0.44371 0.51193 0.0
H102 H 0.94064 0.45282 0.44585 0.0
N103 N 0.99298 0.53502 0.49767 0.0
N104 N 0.98044 0.58305 0.50033 0.0
C105 C 1.00745 0.56826 0.50437 0.0
C106 C 0.95542 0.52853 0.48932 0.0
C107 C 0.94762 0.55804 0.49082 0.0
C108 C 0.0275 0.50772 0.56476 0.0
O109 O 0.99108 0.49737 0.54781 0.0
H110 H 0.03726 0.58114 0.51108 0.0
H111 H 0.93509 0.50409 0.48227 0.0
O112 O 0.04943 0.51258 0.46453 0.0
H113 H 0.92667 0.38905 0.44165 0.0
H114 H 0.9199 0.56082 0.48544 0.0
Cu115 Cu 0.54551 0.06191 0.51242 0.0
N116 N 0.55454 0.09102 0.48625 0.0
N117 N 0.56504 0.10848 0.44149 0.0
C118 C 0.56603 0.08495 0.45756 0.0
C119 C 0.55248 0.13019 0.46107 0.0
C120 C 0.54579 0.11926 0.48834 0.0
O121 O 0.57632 0.03319 0.50334 0.0
C122 C 0.47109 0.02465 0.5103 0.0
O123 O 0.48868 0.01804 0.53795 0.0
H124 H 0.57308 0.06274 0.44768 0.0
H125 H 0.53388 0.13039 0.50745 0.0
N126 N 0.5612 0.08526 0.56161 0.0
N127 N 0.57511 0.09671 0.62052 0.0
C128 C 0.56215 0.07254 0.58857 0.0
C129 C 0.57445 0.1186 0.57724 0.0
C130 C 0.58294 0.12569 0.6133 0.0
C131 C 0.61184 0.04766 0.51786 0.0
O132 O 0.62387 0.07856 0.53926 0.0
H133 H 0.5542 0.0461 0.58494 0.0
H134 H 0.57795 0.13666 0.56348 0.0
O135 O 0.49042 0.04035 0.49489 0.0
H136 H 0.54764 0.15214 0.45576 0.0
H137 H 0.59348 0.15039 0.63264 0.0
H138 H 0.98384 0.1108 0.4877 0.0
H139 H 0.97487 0.16128 0.47677 0.0
H140 H 0.07217 0.22164 0.56764 0.0
H141 H 0.08237 0.17143 0.57797 0.0
H142 H 0.9607 0.21303 0.51634 0.0
H143 H 0.0965 0.26131 0.49429 0.0
H144 H 0.07948 0.21953 0.49584 0.0
H145 H 0.10239 0.25432 0.53612 0.0
C146 C 1.00377 0.13469 0.50516 0.0
C147 C 0.03412 0.1366 0.53363 0.0
C148 C 0.99838 0.1637 0.49896 0.0
C149 C 0.02321 0.19548 0.52092 0.0
C150 C 0.05309 0.19754 0.5497 0.0
H151 H 0.03456 0.40053 0.53437 0.0
H152 H 0.04343 0.34955 0.5439 0.0
C153 C 0.0586 0.16858 0.55587 0.0
C154 C 0.01733 0.22638 0.51418 0.0
H155 H 0.06066 0.29835 0.50059 0.0
C156 C 0.98251 0.23155 0.51267 0.0
C157 C 0.04569 0.25074 0.50935 0.0
C158 C 0.08297 0.24612 0.50862 0.0
C159 C 0.9756 0.26048 0.50727 0.0
C160 C 1.00407 0.28492 0.50275 0.0
C161 C 0.03884 0.27976 0.50417 0.0
C162 C 0.99839 0.31603 0.49661 0.0
C163 C 0.93814 0.26503 0.50731 0.0
C164 C 0.97038 0.31445 0.46658 0.0
C165 C 0.96537 0.34371 0.46081 0.0
C166 C 0.98833 0.37544 0.48489 0.0
C167 C 0.01652 0.37684 0.51489 0.0
C168 C 0.02157 0.34756 0.52054 0.0
H169 H 0.9232 0.24851 0.51968 0.0
H170 H 0.94188 0.29132 0.52163 0.0
H171 H 0.91995 0.25875 0.47964 0.0
H172 H 0.95261 0.29051 0.44728 0.0
H173 H 0.94379 0.34134 0.43713 0.0
H174 H 0.90824 1.00424 0.43863 0.0
H175 H 0.84228 1.00377 0.42624 0.0
H176 H 0.83638 0.97213 0.51657 0.0
H177 H 0.90102 0.97183 0.52837 0.0
H178 H 0.76996 0.94232 0.46262 0.0
H179 H 0.81923 0.07945 0.48726 0.0
H180 H 0.82857 0.05394 0.45123 0.0
H181 H 0.85168 0.05668 0.49582 0.0
C182 C 0.89242 0.99637 0.45518 0.0
C183 C 0.90997 0.98843 0.48469 0.0
C184 C 0.85489 0.99645 0.44835 0.0
C185 C 0.83449 0.9886 0.47095 0.0
C186 C 0.85135 0.97843 0.49881 0.0
H187 H 0.68525 0.06476 0.55668 0.0
H188 H 0.73482 0.04679 0.53933 0.0
C189 C 0.88851 0.97841 0.50561 0.0
C190 C 0.79711 0.99355 0.46836 0.0
H191 H 0.75662 0.05488 0.48265 0.0
C192 C 0.76675 0.96681 0.46634 0.0
C193 C 0.793 0.0256 0.47362 0.0
C194 C 0.82482 0.05569 0.47738 0.0
C195 C 0.7333 0.97154 0.47114 0.0
C196 C 0.72979 1.00381 0.4776 0.0
C197 C 0.75932 0.03014 0.47773 0.0
C198 C 0.69801 1.01193 0.48831 0.0
C199 C 0.70296 0.94242 0.47139 0.0
C200 C 0.66032 0.99774 0.4658 0.0
C201 C 0.63152 1.0078 0.47594 0.0
C202 C 0.64009 0.03249 0.50858 0.0
C203 C 0.67762 0.04578 0.53132 0.0
C204 C 0.70611 0.03561 0.52136 0.0
H205 H 0.71281 0.92066 0.47224 0.0
H206 H 0.69324 0.9497 0.49447 0.0
H207 H 0.6784 0.93451 0.44707 0.0
H208 H 0.65334 0.97975 0.43996 0.0
H209 H 0.60297 0.99742 0.45764 0.0
H210 H 0.9316 0.60907 0.46588 0.0
H211 H 0.94048 0.66797 0.47235 0.0
H212 H 0.04914 0.69556 0.55125 0.0
H213 H 0.04073 0.63665 0.5442 0.0
H214 H 0.94805 0.71932 0.52572 0.0
H215 H 0.07848 0.74774 0.48982 0.0
H216 H 0.05102 0.70566 0.48356 0.0
H217 H 0.08393 0.73193 0.52634 0.0
C218 C 0.9574 0.62766 0.48461 0.0
C219 C 0.98555 0.61798 0.50435 0.0
C220 C 0.96252 0.66142 0.48823 0.0
C221 C 0.99585 0.68648 0.51178 0.0
C222 C 0.02369 0.67688 0.53203 0.0
H223 H 0.06398 0.90409 0.58925 0.0
H224 H 0.05616 0.84493 0.58096 0.0
C225 C 0.01877 0.64308 0.52811 0.0
C226 C 1.00085 0.72255 0.51585 0.0
H227 H 0.061 0.79448 0.51534 0.0
C228 C 0.97266 0.73559 0.52316 0.0
C229 C 0.03288 0.74409 0.51244 0.0
C230 C 0.06309 0.73158 0.50224 0.0
C231 C 0.97591 0.76936 0.52776 0.0
C232 C 1.0082 0.79088 0.52505 0.0
C233 C 0.03636 0.778 0.51766 0.0
C234 C 0.01309 0.82685 0.52979 0.0
C235 C 0.94507 0.78207 0.53602 0.0
C236 C 0.99171 0.83644 0.50365 0.0
C237 C 0.99626 0.87029 0.50823 0.0
C238 C 0.02209 0.89534 0.53921 0.0
C239 C 0.04352 0.88555 0.56529 0.0
C240 C 0.03924 0.85172 0.56051 0.0
H241 H 0.92431 0.76348 0.5419 0.0
H242 H 0.95733 0.80542 0.55899 0.0
H243 H 0.9299 0.78801 0.51302 0.0
H244 H 0.97148 0.8177 0.47965 0.0
H245 H 0.97909 0.87682 0.48773 0.0
H246 H 0.4228 0.997 0.54188 0.0
H247 H 0.35629 0.99214 0.53048 0.0
H248 H 0.35801 0.0329 0.44544 0.0
H249 H 0.4249 0.03796 0.4567 0.0
H250 H 0.3303 0.04984 0.53385 0.0
H251 H 0.25928 0.94928 0.40369 0.0
H252 H 0.30514 0.95359 0.43222 0.0
H253 H 0.30044 0.98225 0.40814 0.0
C254 C 0.40904 1.00448 0.52035 0.0
C255 C 0.42944 0.01794 0.50027 0.0
C256 C 0.37091 1.0017 0.51389 0.0
C257 C 0.35199 1.01196 0.48698 0.0
C258 C 0.37181 0.0244 0.46605 0.0
H259 H 0.11812 0.02184 0.44751 0.0
H260 H 0.17958 0.02324 0.43889 0.0
C261 C 0.41014 0.02736 0.47261 0.0
C262 C 0.31261 1.01209 0.48311 0.0
H263 H 0.22044 0.97319 0.4305 0.0
C264 C 0.30636 0.03325 0.51111 0.0
C265 C 0.28133 0.99078 0.45323 0.0
C266 C 0.28654 0.96748 0.42256 0.0
C267 C 0.26981 0.03312 0.51051 0.0
C268 C 0.2383 1.01063 0.48149 0.0
C269 C 0.24452 0.99035 0.45276 0.0
C270 C 0.1991 1.0059 0.48273 0.0
C271 C 0.26522 0.05686 0.54134 0.0
C272 C 0.18906 0.99441 0.50911 0.0
C273 C 0.15452 0.99381 0.51411 0.0
C274 C 0.12866 1.00422 0.49256 0.0
C275 C 0.13741 0.01358 0.46444 0.0
C276 C 0.17253 0.01449 0.45961 0.0
H277 H 0.29125 0.07867 0.5557 0.0
H278 H 0.24132 0.06603 0.5325 0.0
H279 H 0.25938 0.04365 0.56023 0.0
H280 H 0.20865 0.98699 0.52679 0.0
H281 H 0.14849 0.98603 0.53572 0.0
H282 H 0.60866 0.07788 0.41161 0.0
H283 H 0.62022 0.07813 0.35578 0.0
H284 H 0.5498 0.13969 0.34073 0.0
H285 H 0.53799 0.13948 0.39602 0.0
H286 H 0.57055 0.05578 0.28802 0.0
H287 H 0.6435 0.19111 0.32537 0.0
H288 H 0.63587 0.17097 0.35759 0.0
H289 H 0.59886 0.18273 0.33292 0.0
C290 C 0.5956 0.09149 0.39647 0.0
C291 C 0.5726 0.10891 0.40876 0.0
C292 C 0.6024 0.09171 0.36455 0.0
C293 C 0.58658 0.10953 0.34428 0.0
C294 C 0.56331 0.12659 0.3563 0.0
H295 H 0.5332 0.12857 0.14192 0.0
H296 H 0.54795 0.13264 0.20411 0.0
C297 C 0.55653 0.12641 0.3881 0.0
C298 C 0.59284 0.10935 0.30987 0.0
H299 H 0.61752 0.16091 0.26292 0.0
C300 C 0.58155 0.07872 0.28272 0.0
C301 C 0.60746 0.13925 0.3029 0.0
C302 C 0.62249 0.17284 0.33137 0.0
C303 C 0.58218 0.07734 0.24835 0.0
C304 C 0.59484 0.10738 0.24096 0.0
C305 C 0.60781 0.13788 0.26852 0.0
C306 C 0.59004 0.10787 0.20408 0.0
C307 C 0.56725 0.0439 0.21966 0.0
C308 C 0.60984 0.09365 0.18345 0.0
C309 C 0.60173 0.09168 0.14762 0.0
C310 C 0.57346 0.10361 0.13196 0.0
C311 C 0.55513 0.11915 0.15321 0.0
C312 C 0.56349 0.12146 0.18881 0.0
H313 H 0.55427 0.02332 0.22874 0.0
H314 H 0.54588 0.04434 0.19637 0.0
H315 H 0.59072 0.03841 0.21097 0.0
H316 H 0.63076 0.0833 0.19478 0.0
H317 H 0.61598 0.07924 0.13179 0.0
H318 H 0.09552 0.4766 0.13653 0.0
H319 H 0.09642 0.47961 0.19681 0.0
H320 H 0.02221 0.53894 0.19215 0.0
H321 H 0.02058 0.53557 0.13161 0.0
H322 H 0.11766 0.53709 0.25942 0.0
H323 H 0.96767 0.45911 0.21879 0.0
H324 H 0.99352 0.46065 0.18787 0.0
H325 H 0.9755 0.49392 0.20248 0.0
C326 C 0.07913 0.4901 0.14814 0.0
C327 C 0.05767 0.50559 0.12891 0.0
C328 C 0.07996 0.49202 0.18279 0.0
C329 C 0.05909 0.50919 0.19893 0.0
C330 C 0.03821 0.52521 0.18013 0.0
H331 H 0.99995 0.53981 0.38859 0.0
H332 H 0.01245 0.54092 0.33375 0.0
C333 C 0.03752 0.52346 0.14554 0.0
C334 C 0.0584 0.50974 0.23508 0.0
H335 H 0.99906 0.48579 0.28013 0.0
C336 C 0.09181 0.52575 0.26402 0.0
C337 C 0.02475 0.4947 0.24103 0.0
C338 C 0.98834 0.47584 0.21092 0.0
C339 C 0.09209 0.52828 0.29888 0.0
C340 C 0.05818 0.51382 0.30487 0.0
C341 C 0.02506 0.49708 0.27571 0.0
C342 C 0.05535 0.51702 0.341 0.0
C343 C 0.12832 0.54739 0.32905 0.0
C344 C 0.07619 0.50419 0.36429 0.0
C345 C 0.06941 0.50399 0.39633 0.0
C346 C 0.04124 0.5161 0.40513 0.0
C347 C 0.02172 0.53013 0.38247 0.0
C348 C 0.02877 0.53071 0.35099 0.0
H349 H 0.1493 0.56353 0.32093 0.0
H350 H 0.12303 0.56322 0.35162 0.0
H351 H 0.14082 0.52947 0.3383 0.0
H352 H 0.09642 0.49295 0.35702 0.0
H353 H 0.08452 0.49265 0.41306 0.0
H354 H 0.62411 0.13976 0.68392 0.0
H355 H 0.62817 0.13504 0.74249 0.0
H356 H 0.53808 0.04092 0.69492 0.0
H357 H 0.53421 0.04536 0.63617 0.0
H358 H 0.57764 0.13341 0.77623 0.0
H359 H 0.61224 0.01617 0.76176 0.0
H360 H 0.61428 0.0383 0.73022 0.0
H361 H 0.56989 1.011 0.72804 0.0
C362 C 0.60521 0.11796 0.68582 0.0
C363 C 0.57884 0.09291 0.65511 0.0
C364 C 0.60765 0.11524 0.71946 0.0
C365 C 0.58388 0.08738 0.72342 0.0
C366 C 0.55755 0.06225 0.69278 0.0
H367 H 0.51465 0.03037 0.88743 0.0
H368 H 0.5279 0.03583 0.83395 0.0
C369 C 0.55526 0.06485 0.65906 0.0
C370 C 0.58537 0.08551 0.75956 0.0
H371 H 0.59144 0.03491 0.811 0.0
C372 C 0.5812 0.11205 0.78396 0.0
C373 C 0.5902 0.05778 0.76999 0.0
C374 C 0.5973 0.02937 0.74626 0.0
C375 C 0.58009 0.11098 0.81761 0.0
C376 C 0.58366 0.08276 0.82752 0.0
C377 C 0.58877 0.0566 0.80352 0.0
C378 C 0.57842 0.07849 0.86111 0.0
C379 C 0.57343 0.13943 0.84174 0.0
C380 C 0.60306 0.1001 0.89464 0.0
C381 C 0.59566 0.09687 0.9257 0.0
C382 C 0.56332 0.07212 0.92365 0.0
C383 C 0.53969 0.04988 0.89008 0.0
C384 C 0.54724 0.05291 0.85934 0.0
H385 H 0.56502 0.15668 0.82795 0.0
H386 H 0.55113 0.12978 0.85274 0.0
H387 H 0.59976 0.15391 0.8642 0.0
H388 H 0.62765 0.11978 0.89677 0.0
H389 H 0.61434 0.11445 0.95107 0.0
H390 H 0.98823 0.469 0.59399 0.0
H391 H 1.00333 0.4707 0.65529 0.0
H392 H 0.10951 0.54753 0.68156 0.0
H393 H 0.09436 0.54593 0.61918 0.0
H394 H 0.06811 0.46146 0.70009 0.0
H395 H 0.0534 0.58693 0.74911 0.0
H396 H 0.0344 0.56242 0.70281 0.0
H397 H 0.08434 0.58214 0.72325 0.0
C398 C 0.01496 0.48625 0.61263 0.0
C399 C 0.03997 0.50759 0.60174 0.0
C400 C 0.02358 0.48707 0.64773 0.0
C401 C 0.0573 0.50944 0.67311 0.0
C402 C 0.0831 0.53027 0.66239 0.0
H403 H 0.09343 0.54161 0.90016 0.0
H404 H 0.10418 0.54595 0.84518 0.0
C405 C 0.07459 0.5292 0.62681 0.0
C406 C 0.06386 0.51095 0.71064 0.0
H407 H 0.05796 0.55607 0.78834 0.0
C408 C 0.06659 0.48239 0.71962 0.0
C409 C 0.0618 0.53822 0.73608 0.0
C410 C 0.05816 0.56922 0.72757 0.0
C411 C 0.06597 0.47991 0.75285 0.0
C412 C 0.06169 0.50639 0.77757 0.0
C413 C 0.06095 0.53567 0.7693 0.0
C414 C 0.05565 0.50339 0.81117 0.0
C415 C 0.06941 0.4487 0.76097 0.0
C416 C 0.02451 0.47827 0.81045 0.0
C417 C 0.01808 0.47581 0.84185 0.0
C418 C 0.04252 0.4986 0.87481 0.0
C419 C 0.07368 0.52383 0.87539 0.0
C420 C 0.08005 0.52627 0.84393 0.0
H421 H 0.08406 0.43598 0.74473 0.0
H422 H 0.085 0.45439 0.78934 0.0
H423 H 0.04077 0.43106 0.75475 0.0
H424 H 1.00472 0.4608 0.78547 0.0
H425 H 0.99349 0.45644 0.84017 0.0
H426 H 0.19739 0.57482 0.0818 0.0
H427 H 0.25505 0.57852 0.06671 0.0
H428 H 0.20105 0.58692 0.96605 0.0
H429 H 0.14257 0.58245 0.98072 0.0
H430 H 0.23508 0.5401 0.9579 0.0
H431 H 0.33655 0.65353 0.06322 0.0
H432 H 0.31268 0.62504 0.08158 0.0
H433 H 0.28624 0.64346 0.05417 0.0
C434 C 0.19788 0.57821 0.05673 0.0
C435 C 0.1652 0.57845 0.03257 0.0
C436 C 0.23111 0.58051 0.04818 0.0
C437 C 0.23281 0.58345 0.01539 0.0
C438 C 0.20063 0.58487 0.99162 0.0
H439 H 0.45412 0.6044 0.98385 0.0
H440 H 0.39428 0.61418 0.98387 0.0
C441 C 0.16724 0.58257 1.00017 0.0
C442 C 0.26705 0.58205 0.00506 0.0
H443 H 0.36335 0.61425 0.03511 0.0
C444 C 0.26308 0.55669 0.97451 0.0
C445 C 0.3037 0.60395 0.02622 0.0
C446 C 0.31003 0.63323 0.0579 0.0
C447 C 0.29467 0.55153 0.96569 0.0
C448 C 0.33144 0.57181 0.98838 0.0
C449 C 0.33532 0.59833 0.01784 0.0
C450 C 0.36615 0.56468 0.98357 0.0
C451 C 0.28821 0.52421 0.93218 0.0
C452 C 0.37031 0.53343 0.98273 0.0
C453 C 0.40435 0.52769 0.98242 0.0
C454 C 0.43541 0.55316 0.98335 0.0
C455 C 0.43079 0.58407 0.98279 0.0
C456 C 0.3966 0.58979 0.98305 0.0
H457 H 0.26066 0.51953 0.91222 0.0
H458 H 0.31091 0.53045 0.92045 0.0
H459 H 0.28763 0.50072 0.93822 0.0
H460 H 0.34778 0.51383 0.98397 0.0
H461 H 0.40682 0.50365 0.9831 0.0
H462 H 0.50181 0.45969 0.08618 0.0
H463 H 0.49729 0.40131 0.07824 0.0
H464 H 0.57838 0.40937 0.02264 0.0
H465 H 0.58352 0.46806 0.03094 0.0
H466 H 0.47569 0.34837 0.01289 0.0
H467 H 0.62041 0.36846 0.09817 0.0
H468 H 0.59943 0.40132 0.10082 0.0
H469 H 0.61744 0.38902 0.06523 0.0
C470 C 0.51913 0.4493 0.07268 0.0
C471 C 0.54322 0.46887 0.0594 0.0
C472 C 0.51629 0.41574 0.06794 0.0
C473 C 0.53778 0.4009 0.05018 0.0
C474 C 0.56189 0.42029 0.03689 0.0
H475 H 0.5577 0.19975 1.00397 0.0
H476 H 0.56524 0.25848 0.00997 0.0
C477 C 0.56455 0.45384 0.04139 0.0
C478 C 0.53404 0.36494 0.04482 0.0
H479 H 0.58222 0.31262 0.06624 0.0
C480 C 0.49898 0.34056 0.0246 0.0
C481 C 0.56446 0.35462 0.05981 0.0
C482 C 0.60254 0.37964 0.08247 0.0
C483 C 0.49356 0.30629 0.01873 0.0
C484 C 0.52375 0.29593 0.03437 0.0
C485 C 0.55897 0.32035 0.05429 0.0
C486 C 0.51922 0.26003 0.03082 0.0
C487 C 0.45568 0.28151 0.99507 0.0
C488 C 0.49129 0.24119 0.04105 0.0
C489 C 0.4868 0.20754 0.03746 0.0
C490 C 0.51051 0.19185 0.02405 0.0
C491 C 0.53903 0.21094 0.01454 0.0
C492 C 0.54332 0.24459 0.01789 0.0
H493 H 0.44029 0.29216 0.97662 0.0
H494 H 0.45868 0.25833 0.97931 0.0
H495 H 0.43818 0.27486 0.01158 0.0
H496 H 0.47306 0.2526 0.05217 0.0
H497 H 0.4651 0.19398 0.0458 0.0
H498 H 0.96141 0.59516 1.00061 0.0
H499 H 0.90228 0.60801 0.99726 0.0
H500 H 0.85329 0.51461 0.01208 0.0
H501 H 0.9112 0.50138 0.01444 0.0
H502 H 0.80439 0.5237 0.96043 0.0
H503 H 0.86266 0.63945 0.07651 0.0
H504 H 0.88388 0.64031 0.04242 0.0
H505 H 0.88956 0.61199 0.06693 0.0
C506 C 0.93808 0.57753 1.00338 0.0
C507 C 0.94123 0.54726 0.00785 0.0
C508 C 0.90426 0.58493 1.00157 0.0
C509 C 0.87315 0.56243 0.00472 0.0
C510 C 0.87658 0.53239 0.00939 0.0
H511 H 0.6899 0.58497 0.07519 0.0
H512 H 0.74792 0.58143 0.06434 0.0
C513 C 0.90997 0.52491 0.01087 0.0
C514 C 0.83676 0.5694 1.00315 0.0
H515 H 0.79765 0.6219 0.04619 0.0
C516 C 0.80295 0.54536 0.979 0.0
C517 C 0.83466 0.59756 0.02741 0.0
C518 C 0.86953 0.62371 0.05501 0.0
C519 C 0.76736 0.54794 0.97935 0.0
C520 C 0.76526 0.57583 1.00401 0.0
C521 C 0.79909 0.60056 0.02716 0.0
C522 C 0.72881 0.57802 0.00931 0.0
C523 C 0.7324 0.51982 0.95461 0.0
C524 C 0.69806 0.57724 0.98195 0.0
C525 C 0.66409 0.57893 0.98804 0.0
C526 C 0.66046 0.58187 0.02172 0.0
C527 C 0.69144 0.58286 0.04889 0.0
C528 C 0.72494 0.58092 0.04277 0.0
H529 H 0.73902 0.49712 0.94277 0.0
H530 H 0.71199 0.51313 0.9686 0.0
H531 H 0.71858 0.52787 0.93276 0.0
H532 H 0.70039 0.57565 0.956 0.0
H533 H 0.64094 0.57832 0.96658 0.0
H534 H 0.60692 0.74399 0.10678 0.0
H535 H 0.59724 0.79535 0.09871 0.0
H536 H 0.50417 0.73743 1.00336 0.0
H537 H 0.51288 0.68601 0.01173 0.0
H538 H 0.59995 0.82053 0.04332 0.0
H539 H 0.45755 0.79791 0.05717 0.0
H540 H 0.48756 0.77406 0.06977 0.0
H541 H 0.46116 0.76458 0.02407 0.0
C542 C 0.58407 0.74205 0.08431 0.0
C543 C 0.56064 0.71057 0.06004 0.0
C544 C 0.57872 0.77156 0.0796 0.0
C545 C 0.5496 0.77043 0.0507 0.0
C546 C 0.52638 0.73911 0.02626 0.0
H547 H 0.47021 0.91739 0.972 0.0
H548 H 0.48074 0.86698 0.98188 0.0
C549 C 0.53174 0.7096 0.03089 0.0
C550 C 0.544 0.80195 0.04574 0.0
H551 H 0.47935 0.84339 0.0373 0.0
C552 C 0.57365 0.82561 0.04223 0.0
C553 C 0.50967 0.8087 0.0442 0.0
C554 C 0.47726 0.78515 0.04932 0.0
C555 C 0.56966 0.85528 0.03643 0.0
C556 C 0.53528 0.862 0.0348 0.0
C557 C 0.5057 0.83838 0.03846 0.0
C558 C 0.52923 0.89313 0.02899 0.0
C559 C 0.60199 0.87869 0.03106 0.0
C560 C 0.55261 0.92491 0.05236 0.0
C561 C 0.54659 0.95395 0.0468 0.0
C562 C 0.5168 0.95201 0.01786 0.0
C563 C 0.49319 0.92009 0.99475 0.0
C564 C 0.49929 0.8911 1.00029 0.0
H565 H 0.6217 0.86588 0.0233 0.0
H566 H 0.59161 0.88957 0.01044 0.0
H567 H 0.61812 0.8994 0.05619 0.0
H568 H 0.57531 0.9273 0.07524 0.0
H569 H 0.56497 0.9779 0.06557 0.0
loop_
_geom_bond_atom_site_label_1
_geom_bond_atom_site_label_2
_geom_bond_distance
_geom_bond_site_symmetry_2
_ccdc_geom_bond_type
Cu0 N1 1.999 . S
Cu0 O6 1.974 1_455 S
Cu0 N11 1.985 1_545 S
Cu0 O20 1.959 . S
N1 Cu0 1.999 . S
N1 C3 1.263 . S
N1 C5 1.389 . S
N2 C3 1.358 . S
N2 C4 1.400 . S
C3 N1 1.263 . S
C3 N2 1.358 . S
C3 H9 0.930 . S
C4 N2 1.400 . S
C4 C5 1.351 . S
C4 H21 0.930 . S
C5 N1 1.389 . S
C5 C4 1.351 . S
C5 H10 0.930 . S
O6 Cu0 1.974 1_655 S
O6 C16 1.282 . S
C7 O8 1.261 . S
C7 O20 1.251 . S
O8 C7 1.261 . S
H9 C3 0.930 . S
H10 C5 0.930 . S
N11 Cu0 1.985 1_565 S
N11 C13 1.335 . S
N11 C14 1.390 1_455 S
N12 C13 1.345 . S
N12 C15 1.336 1_455 S
C13 N11 1.335 . S
C13 N12 1.345 . S
C13 H18 0.930 . S
C14 N11 1.390 1_655 S
C14 C15 1.346 . S
C14 H19 0.930 . S
C15 N12 1.336 1_655 S
C15 C14 1.346 . S
C15 H22 0.929 . S
C16 O6 1.282 . S
C16 O17 1.216 . S
O17 C16 1.216 . S
H18 C13 0.930 . S
H19 C14 0.930 . S
O20 Cu0 1.959 . S
O20 C7 1.251 . S
H21 C4 0.930 . S
H22 C15 0.929 . S
Cu23 N24 1.999 1_545 S
Cu23 O29 1.974 . S
Cu23 N34 1.985 . S
Cu23 O43 1.959 1_554 S
N24 Cu23 1.999 1_565 S
N24 C26 1.263 . S
N24 C28 1.389 1_554 S
N25 C26 1.358 . S
N25 C27 1.400 1_554 S
C26 N24 1.263 . S
C26 N25 1.358 . S
C26 H32 0.930 . S
C27 N25 1.400 1_556 S
C27 C28 1.351 . S
C27 H44 0.930 . S
C28 N24 1.389 1_556 S
C28 C27 1.351 . S
C28 H33 0.930 . S
O29 Cu23 1.974 . S
O29 C39 1.282 . S
C30 O31 1.261 . S
C30 O43 1.251 . S
O31 C30 1.261 . S
H32 C26 0.930 . S
H33 C28 0.930 . S
N34 Cu23 1.985 . S
N34 C36 1.335 . S
N34 C37 1.390 . S
N35 C36 1.345 . S
N35 C38 1.336 . S
C36 N34 1.335 . S
C36 N35 1.345 . S
C36 H41 0.930 1_554 S
C37 N34 1.390 . S
C37 C38 1.346 . S
C37 H42 0.930 . S
C38 N35 1.336 . S
C38 C37 1.346 . S
C38 H45 0.929 . S
C39 O29 1.282 . S
C39 O40 1.216 . S
O40 C39 1.216 . S
H41 C36 0.930 1_556 S
H42 C37 0.930 . S
O43 Cu23 1.959 1_556 S
O43 C30 1.251 . S
H44 C27 0.930 . S
H45 C38 0.929 . S
Cu46 N47 1.999 1_554 S
Cu46 O52 1.974 . S
Cu46 N57 1.985 . S
Cu46 O66 1.959 1_455 S
N47 Cu46 1.999 1_556 S
N47 C49 1.263 . S
N47 C51 1.389 . S
N48 C49 1.358 . S
N48 C50 1.400 . S
C49 N47 1.263 . S
C49 N48 1.358 . S
C49 H55 0.930 . S
C50 N48 1.400 . S
C50 C51 1.351 . S
C50 H67 0.930 1_455 S
C51 N47 1.389 . S
C51 C50 1.351 . S
C51 H56 0.930 1_455 S
O52 Cu46 1.974 . S
O52 C62 1.282 . S
C53 O54 1.261 1_554 S
C53 O66 1.251 . S
O54 C53 1.261 1_556 S
H55 C49 0.930 . S
H56 C51 0.930 1_655 S
N57 Cu46 1.985 . S
N57 C59 1.335 . S
N57 C60 1.390 . S
N58 C59 1.345 . S
N58 C61 1.336 . S
C59 N57 1.335 . S
C59 N58 1.345 . S
C59 H64 0.930 . S
C60 N57 1.390 . S
C60 C61 1.346 . S
C60 H65 0.930 . S
C61 N58 1.336 . S
C61 C60 1.346 . S
C61 H68 0.929 . S
C62 O52 1.282 . S
C62 O63 1.216 1_554 S
O63 C62 1.216 1_556 S
H64 C59 0.930 . S
H65 C60 0.930 . S
O66 Cu46 1.959 1_655 S
O66 C53 1.251 . S
H67 C50 0.930 1_655 S
H68 C61 0.929 . S
Cu69 N70 1.999 . S
Cu69 O75 1.974 . S
Cu69 N80 1.991 . S
Cu69 O89 1.959 . S
N70 Cu69 1.999 . S
N70 C72 1.257 1_556 S
N70 C74 1.389 . S
N71 C72 1.348 1_556 S
N71 C73 1.400 . S
C72 N70 1.257 1_554 S
C72 N71 1.348 1_554 S
C72 H78 0.944 . S
C73 N71 1.400 . S
C73 C74 1.351 . S
C73 H90 0.930 . S
C74 N70 1.389 . S
C74 C73 1.351 . S
C74 H79 0.930 . S
O75 Cu69 1.974 . S
O75 C85 1.282 1_556 S
C76 O77 1.261 . S
C76 O89 1.251 1_554 S
O77 C76 1.261 . S
H78 C72 0.944 . S
H79 C74 0.930 . S
N80 Cu69 1.991 . S
N80 C82 1.338 . S
N80 C83 1.380 1_556 S
N81 C82 1.337 1_554 S
N81 C84 1.344 . S
C82 N80 1.338 . S
C82 N81 1.337 1_556 S
C82 H87 0.930 . S
C83 N80 1.380 1_554 S
C83 C84 1.346 . S
C83 H88 0.930 . S
C84 N81 1.344 . S
C84 C83 1.346 . S
C84 H91 0.929 . S
C85 O75 1.282 1_554 S
C85 O86 1.216 . S
O86 C85 1.216 . S
H87 C82 0.930 . S
H88 C83 0.930 . S
O89 Cu69 1.959 . S
O89 C76 1.251 1_556 S
H90 C73 0.930 . S
H91 C84 0.929 . S
Cu92 N93 1.999 . S
Cu92 O98 1.974 . S
Cu92 N103 1.985 . S
Cu92 O112 1.959 . S
N93 Cu92 1.999 . S
N93 C95 1.263 . S
N93 C97 1.389 . S
N94 C95 1.358 . S
N94 C96 1.400 . S
C95 N93 1.263 . S
C95 N94 1.358 . S
C95 H101 0.930 . S
C96 N94 1.400 . S
C96 C97 1.351 . S
C96 H113 0.930 . S
C97 N93 1.389 . S
C97 C96 1.351 . S
C97 H102 0.930 . S
O98 Cu92 1.974 . S
O98 C108 1.282 . S
C99 O100 1.261 1_455 S
C99 O112 1.251 . S
O100 C99 1.261 1_655 S
H101 C95 0.930 . S
H102 C97 0.930 . S
N103 Cu92 1.985 . S
N103 C105 1.335 . S
N103 C106 1.390 . S
N104 C105 1.345 . S
N104 C107 1.336 . S
C105 N103 1.335 . S
C105 N104 1.345 . S
C105 H110 0.930 . S
C106 N103 1.390 . S
C106 C107 1.346 . S
C106 H111 0.930 . S
C107 N104 1.336 . S
C107 C106 1.346 . S
C107 H114 0.929 . S
C108 O98 1.282 . S
C108 O109 1.216 1_455 S
O109 C108 1.216 1_655 S
H110 C105 0.930 . S
H111 C106 0.930 . S
O112 Cu92 1.959 . S
O112 C99 1.251 . S
H113 C96 0.930 . S
H114 C107 0.929 . S
Cu115 N116 1.999 . S
Cu115 O121 1.974 . S
Cu115 N126 1.985 . S
Cu115 O135 1.959 . S
N116 Cu115 1.999 . S
N116 C118 1.263 . S
N116 C120 1.389 . S
N117 C118 1.358 . S
N117 C119 1.400 . S
C118 N116 1.263 . S
C118 N117 1.358 . S
C118 H124 0.930 . S
C119 N117 1.400 . S
C119 C120 1.351 . S
C119 H136 0.930 . S
C120 N116 1.389 . S
C120 C119 1.351 . S
C120 H125 0.930 . S
O121 Cu115 1.974 . S
O121 C131 1.282 . S
C122 O123 1.261 1_545 S
C122 O135 1.251 . S
O123 C122 1.261 1_565 S
H124 C118 0.930 . S
H125 C120 0.930 . S
N126 Cu115 1.985 . S
N126 C128 1.335 . S
N126 C129 1.390 . S
N127 C128 1.345 . S
N127 C130 1.336 . S
C128 N126 1.335 . S
C128 N127 1.345 . S
C128 H133 0.930 . S
C129 N126 1.390 . S
C129 C130 1.346 . S
C129 H134 0.930 . S
C130 N127 1.336 . S
C130 C129 1.346 . S
C130 H137 0.929 . S
C131 O121 1.282 . S
C131 O132 1.216 1_545 S
O132 C131 1.216 1_565 S
H133 C128 0.930 . S
H134 C129 0.930 . S
O135 Cu115 1.959 . S
O135 C122 1.251 . S
H136 C119 0.930 . S
H137 C130 0.929 . S
H138 C146 0.929 . S
H139 C148 0.930 . S
H140 C150 0.930 . S
H141 C153 0.929 . S
H142 C156 0.930 . S
H143 C158 0.960 . S
H144 C158 0.960 . S
H145 C158 0.960 . S
C146 H138 0.929 . S
C146 C147 1.377 . S
C146 C148 1.384 . S
C147 C146 1.377 . S
C147 C153 1.390 . S
C148 H139 0.930 . S
C148 C146 1.384 . S
C148 C149 1.372 . S
C149 C148 1.372 . S
C149 C150 1.400 . S
C149 C154 1.490 . S
C150 H140 0.930 . S
C150 C149 1.400 . S
C150 C153 1.386 . S
H151 C167 0.930 . S
H152 C168 0.931 . S
C153 H141 0.929 . S
C153 C147 1.390 . S
C153 C150 1.386 . S
C154 C149 1.490 . S
C154 C156 1.395 1_455 S
C154 C157 1.403 . S
H155 C161 0.930 . S
C156 H142 0.930 . S
C156 C154 1.395 1_655 S
C156 C159 1.403 . S
C157 C154 1.403 . S
C157 C158 1.524 . S
C157 C161 1.400 . S
C158 H143 0.960 . S
C158 H144 0.960 . S
C158 H145 0.960 . S
C158 C157 1.524 . S
C159 C156 1.403 . S
C159 C160 1.392 1_655 S
C159 C163 1.495 . S
C160 C159 1.392 1_455 S
C160 C161 1.385 . S
C160 C162 1.478 . S
C161 H155 0.930 . S
C161 C157 1.400 . S
C161 C160 1.385 . S
C162 C160 1.478 . S
C162 C164 1.381 . S
C162 C168 1.383 . S
C163 C159 1.495 . S
C163 H169 0.959 . S
C163 H170 0.961 . S
C163 H171 0.960 . S
C164 C162 1.381 . S
C164 C165 1.394 . S
C164 H172 0.930 . S
C165 C164 1.394 . S
C165 C166 1.383 . S
C165 H173 0.929 . S
C166 C165 1.383 . S
C166 C167 1.377 . S
C167 H151 0.930 . S
C167 C166 1.377 . S
C167 C168 1.379 . S
C168 H152 0.931 . S
C168 C162 1.383 . S
C168 C167 1.379 . S
H169 C163 0.959 . S
H170 C163 0.961 . S
H171 C163 0.960 . S
H172 C164 0.930 . S
H173 C165 0.929 . S
H174 C182 0.929 . S
H175 C184 0.930 . S
H176 C186 0.930 . S
H177 C189 0.929 . S
H178 C192 0.930 1_565 S
H179 C194 0.960 . S
H180 C194 0.960 . S
H181 C194 0.960 . S
C182 H174 0.929 . S
C182 C183 1.377 . S
C182 C184 1.384 . S
C183 C182 1.377 . S
C183 C189 1.390 . S
C184 H175 0.930 . S
C184 C182 1.384 . S
C184 C185 1.372 . S
C185 C184 1.372 . S
C185 C186 1.400 . S
C185 C190 1.490 . S
C186 H176 0.930 . S
C186 C185 1.400 . S
C186 C189 1.386 . S
H187 C203 0.930 . S
H188 C204 0.931 . S
C189 H177 0.929 . S
C189 C183 1.390 . S
C189 C186 1.386 . S
C190 C185 1.490 . S
C190 C192 1.395 . S
C190 C193 1.403 . S
H191 C197 0.930 . S
C192 H178 0.930 1_545 S
C192 C190 1.395 . S
C192 C195 1.403 . S
C193 C190 1.403 . S
C193 C194 1.524 . S
C193 C197 1.400 . S
C194 H179 0.960 . S
C194 H180 0.960 . S
C194 H181 0.960 . S
C194 C193 1.524 . S
C195 C192 1.403 . S
C195 C196 1.392 . S
C195 C199 1.495 1_545 S
C196 C195 1.392 . S
C196 C197 1.385 . S
C196 C198 1.478 . S
C197 H191 0.930 . S
C197 C193 1.400 . S
C197 C196 1.385 . S
C198 C196 1.478 . S
C198 C200 1.381 . S
C198 C204 1.383 . S
C199 C195 1.495 1_565 S
C199 H205 0.959 . S
C199 H206 0.961 . S
C199 H207 0.960 . S
C200 C198 1.381 . S
C200 C201 1.394 . S
C200 H208 0.930 . S
C201 C200 1.394 . S
C201 C202 1.383 . S
C201 H209 0.929 . S
C202 C201 1.383 . S
C202 C203 1.377 . S
C203 H187 0.930 . S
C203 C202 1.377 . S
C203 C204 1.379 . S
C204 H188 0.931 . S
C204 C198 1.383 . S
C204 C203 1.379 . S
H205 C199 0.959 . S
H206 C199 0.961 . S
H207 C199 0.960 . S
H208 C200 0.930 . S
H209 C201 0.929 . S
H210 C218 0.929 1_655 S
H211 C220 0.930 1_655 S
H212 C222 0.930 . S
H213 C225 0.929 . S
H214 C228 0.930 1_655 S
H215 C230 0.960 . S
H216 C230 0.960 . S
H217 C230 0.960 . S
C218 H210 0.929 1_455 S
C218 C219 1.377 . S
C218 C220 1.384 . S
C219 C218 1.377 . S
C219 C225 1.390 . S
C220 H211 0.930 1_455 S
C220 C218 1.384 . S
C220 C221 1.372 . S
C221 C220 1.372 . S
C221 C222 1.400 . S
C221 C226 1.490 . S
C222 H212 0.930 . S
C222 C221 1.400 . S
C222 C225 1.386 . S
H223 C239 0.930 . S
H224 C240 0.931 . S
C225 H213 0.929 . S
C225 C219 1.390 . S
C225 C222 1.386 . S
C226 C221 1.490 . S
C226 C228 1.395 . S
C226 C229 1.403 . S
H227 C233 0.930 . S
C228 H214 0.930 1_455 S
C228 C226 1.395 . S
C228 C231 1.410 . S
C229 C226 1.403 . S
C229 C230 1.524 . S
C229 C233 1.400 . S
C230 H215 0.960 . S
C230 H216 0.960 . S
C230 H217 0.960 . S
C230 C229 1.524 . S
C231 C228 1.410 . S
C231 C232 1.403 . S
C231 C235 1.479 1_455 S
C232 C231 1.403 . S
C232 C233 1.385 . S
C232 C234 1.478 . S
C233 H227 0.930 . S
C233 C229 1.400 . S
C233 C232 1.385 . S
C234 C232 1.478 . S
C234 C236 1.381 1_455 S
C234 C240 1.383 . S
C235 C231 1.479 1_655 S
C235 H241 0.959 . S
C235 H242 0.961 . S
C235 H243 0.960 . S
C236 C234 1.381 1_655 S
C236 C237 1.394 . S
C236 H244 0.930 . S
C237 C236 1.394 . S
C237 C238 1.383 1_655 S
C237 H245 0.929 . S
C238 C237 1.383 1_455 S
C238 C239 1.377 . S
C239 H223 0.930 . S
C239 C238 1.377 . S
C239 C240 1.379 . S
C240 H224 0.931 . S
C240 C234 1.383 . S
C240 C239 1.379 . S
H241 C235 0.959 . S
H242 C235 0.961 . S
H243 C235 0.960 . S
H244 C236 0.930 . S
H245 C237 0.929 . S
H246 C254 0.929 1_565 S
H247 C256 0.930 1_565 S
H248 C258 0.930 . S
H249 C261 0.929 . S
H250 C264 0.930 . S
H251 C266 0.960 1_565 S
H252 C266 0.960 1_565 S
H253 C266 0.960 . S
C254 H246 0.929 1_545 S
C254 C255 1.377 . S
C254 C256 1.384 . S
C255 C254 1.377 . S
C255 C261 1.390 . S
C256 H247 0.930 1_545 S
C256 C254 1.384 . S
C256 C257 1.372 . S
C257 C256 1.372 . S
C257 C258 1.400 . S
C257 C262 1.490 . S
C258 H248 0.930 . S
C258 C257 1.400 . S
C258 C261 1.386 . S
H259 C275 0.930 . S
H260 C276 0.931 . S
C261 H249 0.929 . S
C261 C255 1.390 . S
C261 C258 1.386 . S
C262 C257 1.490 . S
C262 C264 1.395 . S
C262 C265 1.403 . S
H263 C269 0.930 . S
C264 H250 0.930 . S
C264 C262 1.395 . S
C264 C267 1.403 . S
C265 C262 1.403 . S
C265 C266 1.524 . S
C265 C269 1.400 . S
C266 H251 0.960 1_545 S
C266 H252 0.960 1_545 S
C266 H253 0.960 . S
C266 C265 1.524 . S
C267 C264 1.403 . S
C267 C268 1.392 . S
C267 C271 1.495 . S
C268 C267 1.392 . S
C268 C269 1.385 . S
C268 C270 1.478 . S
C269 H263 0.930 . S
C269 C265 1.400 . S
C269 C268 1.385 . S
C270 C268 1.478 . S
C270 C272 1.381 . S
C270 C276 1.383 . S
C271 C267 1.495 . S
C271 H277 0.959 . S
C271 H278 0.961 . S
C271 H279 0.960 . S
C272 C270 1.381 . S
C272 C273 1.394 . S
C272 H280 0.900 1_545 S
C273 C272 1.394 . S
C273 C274 1.383 . S
C273 H281 0.918 1_545 S
C274 C273 1.383 . S
C274 C275 1.377 . S
C275 H259 0.930 . S
C275 C274 1.377 . S
C275 C276 1.379 . S
C276 H260 0.931 . S
C276 C270 1.383 . S
C276 C275 1.379 . S
H277 C271 0.959 . S
H278 C271 0.961 . S
H279 C271 0.960 . S
H280 C272 0.900 1_565 S
H281 C273 0.918 1_565 S
H282 C290 0.929 . S
H283 C292 0.930 . S
H284 C294 0.930 . S
H285 C297 0.929 . S
H286 C300 0.930 1_565 S
H287 C302 0.960 . S
H288 C302 0.960 . S
H289 C302 0.960 . S
C290 H282 0.929 . S
C290 C291 1.377 . S
C290 C292 1.384 . S
C291 C290 1.377 . S
C291 C297 1.390 . S
C292 H283 0.930 . S
C292 C290 1.384 . S
C292 C293 1.372 . S
C293 C292 1.372 . S
C293 C294 1.400 . S
C293 C298 1.490 . S
C294 H284 0.930 . S
C294 C293 1.400 . S
C294 C297 1.386 . S
H295 C311 0.930 . S
H296 C312 0.931 . S
C297 H285 0.929 . S
C297 C291 1.390 . S
C297 C294 1.386 . S
C298 C293 1.490 . S
C298 C300 1.395 . S
C298 C301 1.403 . S
H299 C305 0.930 . S
C300 H286 0.930 1_545 S
C300 C298 1.395 . S
C300 C303 1.403 . S
C301 C298 1.403 . S
C301 C302 1.524 . S
C301 C305 1.400 . S
C302 H287 0.960 . S
C302 H288 0.960 . S
C302 H289 0.960 . S
C302 C301 1.524 . S
C303 C300 1.403 . S
C303 C304 1.392 . S
C303 C307 1.495 1_545 S
C304 C303 1.392 . S
C304 C305 1.385 . S
C304 C306 1.478 . S
C305 H299 0.930 . S
C305 C301 1.400 . S
C305 C304 1.385 . S
C306 C304 1.478 . S
C306 C308 1.381 . S
C306 C312 1.383 . S
C307 C303 1.495 1_565 S
C307 H313 0.959 . S
C307 H314 0.961 . S
C307 H315 0.960 . S
C308 C306 1.381 . S
C308 C309 1.394 . S
C308 H316 0.930 . S
C309 C308 1.394 . S
C309 C310 1.383 . S
C309 H317 0.929 . S
C310 C309 1.383 . S
C310 C311 1.377 . S
C311 H295 0.930 . S
C311 C310 1.377 . S
C311 C312 1.379 . S
C312 H296 0.931 . S
C312 C306 1.383 . S
C312 C311 1.379 . S
H313 C307 0.959 . S
H314 C307 0.961 . S
H315 C307 0.960 . S
H316 C308 0.930 . S
H317 C309 0.929 . S
H318 C326 0.929 . S
H319 C328 0.930 . S
H320 C330 0.930 . S
H321 C333 0.929 . S
H322 C336 0.930 . S
H323 C338 0.960 . S
H324 C338 0.960 . S
H325 C338 0.960 . S
C326 H318 0.929 . S
C326 C327 1.377 . S
C326 C328 1.384 . S
C327 C326 1.377 . S
C327 C333 1.390 . S
C328 H319 0.930 . S
C328 C326 1.384 . S
C328 C329 1.372 . S
C329 C328 1.372 . S
C329 C330 1.400 . S
C329 C334 1.490 . S
C330 H320 0.930 . S
C330 C329 1.400 . S
C330 C333 1.386 . S
H331 C347 0.930 . S
H332 C348 0.931 . S
C333 H321 0.929 . S
C333 C327 1.390 . S
C333 C330 1.386 . S
C334 C329 1.490 . S
C334 C336 1.395 . S
C334 C337 1.403 1_455 S
H335 C341 0.930 . S
C336 H322 0.930 . S
C336 C334 1.395 . S
C336 C339 1.403 . S
C337 C334 1.403 1_655 S
C337 C338 1.524 . S
C337 C341 1.400 . S
C338 H323 0.960 . S
C338 H324 0.960 . S
C338 H325 0.960 . S
C338 C337 1.524 . S
C339 C336 1.403 . S
C339 C340 1.392 . S
C339 C343 1.495 . S
C340 C339 1.392 . S
C340 C341 1.385 1_455 S
C340 C342 1.478 . S
C341 H335 0.930 . S
C341 C337 1.400 . S
C341 C340 1.385 1_655 S
C342 C340 1.478 . S
C342 C344 1.381 . S
C342 C348 1.383 . S
C343 C339 1.495 . S
C343 H349 0.959 . S
C343 H350 0.961 . S
C343 H351 0.960 . S
C344 C342 1.381 . S
C344 C345 1.394 . S
C344 H352 0.930 . S
C345 C344 1.394 . S
C345 C346 1.383 . S
C345 H353 0.929 . S
C346 C345 1.383 . S
C346 C347 1.377 . S
C347 H331 0.930 . S
C347 C346 1.377 . S
C347 C348 1.379 . S
C348 H332 0.931 . S
C348 C342 1.383 . S
C348 C347 1.379 . S
H349 C343 0.959 . S
H350 C343 0.961 . S
H351 C343 0.960 . S
H352 C344 0.930 . S
H353 C345 0.929 . S
H354 C362 0.929 . S
H355 C364 0.930 . S
H356 C366 0.930 . S
H357 C369 0.929 . S
H358 C372 0.930 . S
H359 C374 0.960 . S
H360 C374 0.960 1_565 S
H361 C374 0.960 . S
C362 H354 0.929 . S
C362 C363 1.377 . S
C362 C364 1.384 . S
C363 C362 1.377 . S
C363 C369 1.390 . S
C364 H355 0.930 . S
C364 C362 1.384 . S
C364 C365 1.372 . S
C365 C364 1.372 . S
C365 C366 1.400 . S
C365 C370 1.490 . S
C366 H356 0.930 . S
C366 C365 1.400 . S
C366 C369 1.386 . S
H367 C383 0.930 . S
H368 C384 0.931 . S
C369 H357 0.929 . S
C369 C363 1.390 . S
C369 C366 1.386 . S
C370 C365 1.490 . S
C370 C372 1.395 . S
C370 C373 1.403 . S
H371 C377 0.930 . S
C372 H358 0.930 . S
C372 C370 1.395 . S
C372 C375 1.403 . S
C373 C370 1.403 . S
C373 C374 1.524 . S
C373 C377 1.400 . S
C374 H359 0.960 . S
C374 H360 0.960 1_545 S
C374 H361 0.960 . S
C374 C373 1.524 . S
C375 C372 1.403 . S
C375 C376 1.392 . S
C375 C379 1.495 . S
C376 C375 1.392 . S
C376 C377 1.385 . S
C376 C378 1.478 . S
C377 H371 0.930 . S
C377 C373 1.400 . S
C377 C376 1.385 . S
C378 C376 1.478 . S
C378 C380 1.381 . S
C378 C384 1.383 . S
C379 C375 1.495 . S
C379 H385 0.959 . S
C379 H386 0.961 . S
C379 H387 0.960 . S
C380 C378 1.381 . S
C380 C381 1.394 . S
C380 H388 0.930 1_545 S
C381 C380 1.394 . S
C381 C382 1.383 . S
C381 H389 0.929 1_545 S
C382 C381 1.383 . S
C382 C383 1.377 . S
C383 H367 0.930 . S
C383 C382 1.377 . S
C383 C384 1.379 . S
C384 H368 0.931 . S
C384 C378 1.383 . S
C384 C383 1.379 . S
H385 C379 0.959 . S
H386 C379 0.961 . S
H387 C379 0.960 . S
H388 C380 0.930 1_565 S
H389 C381 0.929 1_565 S
H390 C398 0.930 1_655 S
H391 C400 0.930 . S
H392 C402 0.930 . S
H393 C405 0.929 . S
H394 C408 0.930 . S
H395 C410 0.960 . S
H396 C410 0.960 . S
H397 C410 0.960 . S
C398 H390 0.930 1_455 S
C398 C399 1.377 . S
C398 C400 1.384 . S
C399 C398 1.377 . S
C399 C405 1.390 . S
C400 H391 0.930 . S
C400 C398 1.384 . S
C400 C401 1.372 . S
C401 C400 1.372 . S
C401 C402 1.400 . S
C401 C406 1.490 . S
C402 H392 0.930 . S
C402 C401 1.400 . S
C402 C405 1.386 . S
H403 C419 0.930 . S
H404 C420 0.931 . S
C405 H393 0.929 . S
C405 C399 1.390 . S
C405 C402 1.386 . S
C406 C401 1.490 . S
C406 C408 1.395 . S
C406 C409 1.403 . S
H407 C413 0.930 1_655 S
C408 H394 0.930 . S
C408 C406 1.395 . S
C408 C411 1.403 . S
C409 C406 1.403 . S
C409 C410 1.524 1_455 S
C409 C413 1.400 . S
C410 H395 0.960 . S
C410 H396 0.960 . S
C410 H397 0.960 . S
C410 C409 1.524 1_655 S
C411 C408 1.403 . S
C411 C412 1.392 . S
C411 C415 1.495 . S
C412 C411 1.392 . S
C412 C413 1.385 . S
C412 C414 1.478 . S
C413 H407 0.930 1_455 S
C413 C409 1.400 . S
C413 C412 1.385 . S
C414 C412 1.478 . S
C414 C416 1.381 . S
C414 C420 1.383 . S
C415 C411 1.495 . S
C415 H421 0.959 . S
C415 H422 0.961 . S
C415 H423 0.960 . S
C416 C414 1.381 . S
C416 C417 1.394 . S
C416 H424 0.930 . S
C417 C416 1.394 . S
C417 C418 1.383 . S
C417 H425 0.929 . S
C418 C417 1.383 . S
C418 C419 1.377 . S
C419 H403 0.930 . S
C419 C418 1.377 . S
C419 C420 1.379 . S
C420 H404 0.931 . S
C420 C414 1.383 . S
C420 C419 1.379 . S
H421 C415 0.959 . S
H422 C415 0.961 . S
H423 C415 0.960 . S
H424 C416 0.930 . S
H425 C417 0.929 . S
H426 C434 0.929 . S
H427 C436 0.930 . S
H428 C438 0.930 . S
H429 C441 0.929 . S
H430 C444 0.930 . S
H431 C446 0.960 . S
H432 C446 0.960 . S
H433 C446 0.960 . S
C434 H426 0.929 . S
C434 C435 1.377 . S
C434 C436 1.384 . S
C435 C434 1.377 . S
C435 C441 1.390 . S
C436 H427 0.930 . S
C436 C434 1.384 . S
C436 C437 1.372 . S
C437 C436 1.372 . S
C437 C438 1.400 . S
C437 C442 1.490 . S
C438 H428 0.930 . S
C438 C437 1.400 . S
C438 C441 1.386 . S
H439 C455 0.930 . S
H440 C456 0.931 . S
C441 H429 0.929 . S
C441 C435 1.390 . S
C441 C438 1.386 . S
C442 C437 1.490 . S
C442 C444 1.395 1_554 S
C442 C445 1.403 . S
H443 C449 0.930 . S
C444 H430 0.930 . S
C444 C442 1.395 1_556 S
C444 C447 1.403 . S
C445 C442 1.403 . S
C445 C446 1.524 . S
C445 C449 1.400 . S
C446 H431 0.960 . S
C446 H432 0.960 . S
C446 H433 0.960 . S
C446 C445 1.524 . S
C447 C444 1.403 . S
C447 C448 1.392 1_556 S
C447 C451 1.495 . S
C448 C447 1.392 1_554 S
C448 C449 1.385 . S
C448 C450 1.478 . S
C449 H443 0.930 . S
C449 C445 1.400 . S
C449 C448 1.385 . S
C450 C448 1.478 . S
C450 C452 1.381 . S
C450 C456 1.383 . S
C451 C447 1.495 . S
C451 H457 0.959 . S
C451 H458 0.961 . S
C451 H459 0.960 . S
C452 C450 1.381 . S
C452 C453 1.394 . S
C452 H460 0.930 . S
C453 C452 1.394 . S
C453 C454 1.383 . S
C453 H461 0.929 . S
C454 C453 1.383 . S
C454 C455 1.377 . S
C455 H439 0.930 . S
C455 C454 1.377 . S
C455 C456 1.379 . S
C456 H440 0.931 . S
C456 C450 1.383 . S
C456 C455 1.379 . S
H457 C451 0.959 . S
H458 C451 0.961 . S
H459 C451 0.960 . S
H460 C452 0.930 . S
H461 C453 0.929 . S
H462 C470 0.929 . S
H463 C472 0.930 . S
H464 C474 0.930 . S
H465 C477 0.929 . S
H466 C480 0.930 . S
H467 C482 0.960 . S
H468 C482 0.960 . S
H469 C482 0.960 1_556 S
C470 H462 0.929 . S
C470 C471 1.351 1_554 S
C470 C472 1.384 . S
C471 C470 1.351 1_556 S
C471 C477 1.408 . S
C472 H463 0.930 . S
C472 C470 1.384 . S
C472 C473 1.372 . S
C473 C472 1.372 . S
C473 C474 1.400 1_554 S
C473 C478 1.490 . S
C474 H464 0.930 . S
C474 C473 1.400 1_556 S
C474 C477 1.386 . S
H475 C491 0.930 . S
H476 C492 0.931 . S
C477 H465 0.929 . S
C477 C471 1.408 . S
C477 C474 1.386 . S
C478 C473 1.490 . S
C478 C480 1.395 . S
C478 C481 1.403 . S
H479 C485 0.930 . S
C480 H466 0.930 . S
C480 C478 1.395 . S
C480 C483 1.403 . S
C481 C478 1.403 . S
C481 C482 1.524 . S
C481 C485 1.400 . S
C482 H467 0.960 . S
C482 H468 0.960 . S
C482 H469 0.960 1_554 S
C482 C481 1.524 . S
C483 C480 1.403 . S
C483 C484 1.392 . S
C483 C487 1.495 . S
C484 C483 1.392 . S
C484 C485 1.385 . S
C484 C486 1.478 . S
C485 H479 0.930 . S
C485 C481 1.400 . S
C485 C484 1.385 . S
C486 C484 1.478 . S
C486 C488 1.381 . S
C486 C492 1.383 1_554 S
C487 C483 1.495 . S
C487 H493 0.959 . S
C487 H494 0.961 1_554 S
C487 H495 0.960 . S
C488 C486 1.381 . S
C488 C489 1.394 . S
C488 H496 0.930 . S
C489 C488 1.394 . S
C489 C490 1.383 . S
C489 H497 0.929 . S
C490 C489 1.383 . S
C490 C491 1.377 1_554 S
C491 H475 0.930 . S
C491 C490 1.377 1_556 S
C491 C492 1.379 . S
C492 H476 0.931 . S
C492 C486 1.383 1_556 S
C492 C491 1.379 . S
H493 C487 0.959 . S
H494 C487 0.961 1_556 S
H495 C487 0.960 . S
H496 C488 0.930 . S
H497 C489 0.929 . S
H498 C506 0.929 . S
H499 C508 0.930 . S
H500 C510 0.930 . S
H501 C513 0.929 . S
H502 C516 0.930 . S
H503 C518 0.960 . S
H504 C518 0.960 . S
H505 C518 0.960 . S
C506 H498 0.929 . S
C506 C507 1.377 1_556 S
C506 C508 1.384 . S
C507 C506 1.377 1_554 S
C507 C513 1.390 . S
C508 H499 0.930 . S
C508 C506 1.384 . S
C508 C509 1.372 1_556 S
C509 C508 1.372 1_554 S
C509 C510 1.400 . S
C509 C514 1.490 . S
C510 H500 0.930 . S
C510 C509 1.400 . S
C510 C513 1.386 . S
H511 C527 0.930 . S
H512 C528 0.931 . S
C513 H501 0.929 . S
C513 C507 1.390 . S
C513 C510 1.386 . S
C514 C509 1.490 . S
C514 C516 1.395 1_554 S
C514 C517 1.403 . S
H515 C521 0.930 . S
C516 H502 0.930 . S
C516 C514 1.395 1_556 S
C516 C519 1.403 . S
C517 C514 1.403 . S
C517 C518 1.524 . S
C517 C521 1.400 . S
C518 H503 0.960 . S
C518 H504 0.960 . S
C518 H505 0.960 . S
C518 C517 1.524 . S
C519 C516 1.403 . S
C519 C520 1.392 1_556 S
C519 C523 1.495 . S
C520 C519 1.392 1_554 S
C520 C521 1.385 . S
C520 C522 1.478 . S
C521 H515 0.930 . S
C521 C517 1.400 . S
C521 C520 1.385 . S
C522 C520 1.478 . S
C522 C524 1.381 1_554 S
C522 C528 1.383 . S
C523 C519 1.495 . S
C523 H529 0.959 . S
C523 H530 0.961 . S
C523 H531 0.960 . S
C524 C522 1.381 1_556 S
C524 C525 1.395 . S
C524 H532 0.930 . S
C525 C524 1.395 . S
C525 C526 1.381 1_556 S
C525 H533 0.930 . S
C526 C525 1.381 1_554 S
C526 C527 1.377 . S
C527 H511 0.930 . S
C527 C526 1.377 . S
C527 C528 1.379 . S
C528 H512 0.931 . S
C528 C522 1.383 . S
C528 C527 1.379 . S
H529 C523 0.959 . S
H530 C523 0.961 . S
H531 C523 0.960 . S
H532 C524 0.930 . S
H533 C525 0.930 . S
H534 C542 0.929 . S
H535 C544 0.930 . S
H536 C546 0.930 . S
H537 C549 0.929 . S
H538 C552 0.930 . S
H539 C554 0.960 . S
H540 C554 0.960 . S
H541 C554 0.960 . S
C542 H534 0.929 . S
C542 C543 1.389 . S
C542 C544 1.384 . S
C543 C542 1.389 . S
C543 C549 1.383 1_556 S
C544 H535 0.930 . S
C544 C542 1.384 . S
C544 C545 1.372 1_556 S
C545 C544 1.372 1_554 S
C545 C546 1.400 . S
C545 C550 1.490 . S
C546 H536 0.930 . S
C546 C545 1.400 . S
C546 C549 1.386 . S
H547 C563 0.930 . S
H548 C564 0.931 . S
C549 H537 0.929 . S
C549 C543 1.383 1_554 S
C549 C546 1.386 . S
C550 C545 1.490 . S
C550 C552 1.395 1_554 S
C550 C553 1.403 . S
H551 C557 0.930 . S
C552 H538 0.930 . S
C552 C550 1.395 1_556 S
C552 C555 1.403 . S
C553 C550 1.403 . S
C553 C554 1.524 . S
C553 C557 1.400 . S
C554 H539 0.960 . S
C554 H540 0.960 . S
C554 H541 0.960 . S
C554 C553 1.524 . S
C555 C552 1.403 . S
C555 C556 1.392 1_556 S
C555 C559 1.495 . S
C556 C555 1.392 1_554 S
C556 C557 1.385 . S
C556 C558 1.478 . S
C557 H551 0.930 . S
C557 C553 1.400 . S
C557 C556 1.385 . S
C558 C556 1.478 . S
C558 C560 1.381 . S
C558 C564 1.383 . S
C559 C555 1.495 . S
C559 H565 0.959 . S
C559 H566 0.961 . S
C559 H567 0.960 . S
C560 C558 1.381 . S
C560 C561 1.394 . S
C560 H568 0.939 . S
C561 C560 1.394 . S
C561 C562 1.383 . S
C561 H569 0.929 . S
C562 C561 1.383 . S
C562 C563 1.377 . S
C563 H547 0.930 . S
C563 C562 1.377 . S
C563 C564 1.379 . S
C564 H548 0.931 . S
C564 C558 1.383 . S
C564 C563 1.379 . S
H565 C559 0.959 . S
H566 C559 0.961 . S
H567 C559 0.960 . S
H568 C560 0.939 . S
H569 C561 0.929 . S
C147 N2 1.486 . S
C166 N94 1.498 . S
C183 C16 1.452 . S
C202 C131 1.446 . S
C219 N104 1.450 . S
C238 N12 1.419 . S
C255 C122 1.513 . S
C274 C7 1.511 . S
C291 N117 1.455 . S
C310 C39 1.487 . S
C327 N58 1.459 . S
C346 C99 1.489 . S
C363 N127 1.459 . S
C382 C30 1.489 . S
C399 C108 1.481 . S
C418 N48 1.473 . S
C435 C62 1.450 . S
C454 C85 1.451 . S
C471 N81 1.451 1_556 S
C490 N35 1.429 . S
C507 C53 1.512 . S
C526 C76 1.508 . S
C543 N71 1.489 . S
C562 N25 1.468 . S
