# Generated by pormake.
# Topology unb, (4)-cn, num edge types: 1
# Building blocks:
#     Node 0, Type 0, BuildingBlock: TATPOV_clean_sbu_0, # of connection points: 4
#     Node 1, Type 0, BuildingBlock: TATPOV_clean_sbu_0, # of connection points: 4
#     Node 2, Type 0, BuildingBlock: TATPOV_clean_sbu_0, # of connection points: 4
#     Node 3, Type 0, BuildingBlock: TATPOV_clean_sbu_0, # of connection points: 4
#     Node 4, Type 0, BuildingBlock: TATPOV_clean_sbu_0, # of connection points: 4
#     Node 5, Type 0, BuildingBlock: TATPOV_clean_sbu_0, # of connection points: 4
#     Node 6, Type 0, BuildingBlock: TATPOV_clean_sbu_0, # of connection points: 4
#     Node 7, Type 0, BuildingBlock: TATPOV_clean_sbu_0, # of connection points: 4
#     Node 8, Type 0, BuildingBlock: TATPOV_clean_sbu_0, # of connection points: 4
#     Node 9, Type 0, BuildingBlock: TATPOV_clean_sbu_0, # of connection points: 4
#     Node 10, Type 0, BuildingBlock: TATPOV_clean_sbu_0, # of connection points: 4
#     Node 11, Type 0, BuildingBlock: TATPOV_clean_sbu_0, # of connection points: 4
#     Node 12, Type 0, BuildingBlock: TATPOV_clean_sbu_0, # of connection points: 4
#     Node 13, Type 0, BuildingBlock: TATPOV_clean_sbu_0, # of connection points: 4
#     Node 14, Type 0, BuildingBlock: TATPOV_clean_sbu_0, # of connection points: 4
#     Node 15, Type 0, BuildingBlock: TATPOV_clean_sbu_0, # of connection points: 4
#     Node 16, Type 0, BuildingBlock: TATPOV_clean_sbu_0, # of connection points: 4
#     Node 17, Type 0, BuildingBlock: TATPOV_clean_sbu_0, # of connection points: 4
#     Edge 18, Type (0, 0), BuildingBlock: UVAHIK_clean_linker_0, # of connection points: 2
#     Edge 19, Type (0, 0), BuildingBlock: UVAHIK_clean_linker_0, # of connection points: 2
#     Edge 20, Type (0, 0), BuildingBlock: UVAHIK_clean_linker_0, # of connection points: 2
#     Edge 21, Type (0, 0), BuildingBlock: UVAHIK_clean_linker_0, # of connection points: 2
#     Edge 22, Type (0, 0), BuildingBlock: UVAHIK_clean_linker_0, # of connection points: 2
#     Edge 23, Type (0, 0), BuildingBlock: UVAHIK_clean_linker_0, # of connection points: 2
#     Edge 24, Type (0, 0), BuildingBlock: UVAHIK_clean_linker_0, # of connection points: 2
#     Edge 25, Type (0, 0), BuildingBlock: UVAHIK_clean_linker_0, # of connection points: 2
#     Edge 26, Type (0, 0), BuildingBlock: UVAHIK_clean_linker_0, # of connection points: 2
#     Edge 27, Type (0, 0), BuildingBlock: UVAHIK_clean_linker_0, # of connection points: 2
#     Edge 28, Type (0, 0), BuildingBlock: UVAHIK_clean_linker_0, # of connection points: 2
#     Edge 29, Type (0, 0), BuildingBlock: UVAHIK_clean_linker_0, # of connection points: 2
#     Edge 30, Type (0, 0), BuildingBlock: UVAHIK_clean_linker_0, # of connection points: 2
#     Edge 31, Type (0, 0), BuildingBlock: UVAHIK_clean_linker_0, # of connection points: 2
#     Edge 32, Type (0, 0), BuildingBlock: UVAHIK_clean_linker_0, # of connection points: 2
#     Edge 33, Type (0, 0), BuildingBlock: UVAHIK_clean_linker_0, # of connection points: 2
#     Edge 34, Type (0, 0), BuildingBlock: UVAHIK_clean_linker_0, # of connection points: 2
#     Edge 35, Type (0, 0), BuildingBlock: UVAHIK_clean_linker_0, # of connection points: 2
#     Edge 36, Type (0, 0), BuildingBlock: UVAHIK_clean_linker_0, # of connection points: 2
#     Edge 37, Type (0, 0), BuildingBlock: UVAHIK_clean_linker_0, # of connection points: 2
#     Edge 38, Type (0, 0), BuildingBlock: UVAHIK_clean_linker_0, # of connection points: 2
#     Edge 39, Type (0, 0), BuildingBlock: UVAHIK_clean_linker_0, # of connection points: 2
#     Edge 40, Type (0, 0), BuildingBlock: UVAHIK_clean_linker_0, # of connection points: 2
#     Edge 41, Type (0, 0), BuildingBlock: UVAHIK_clean_linker_0, # of connection points: 2
#     Edge 42, Type (0, 0), BuildingBlock: UVAHIK_clean_linker_0, # of connection points: 2
#     Edge 43, Type (0, 0), BuildingBlock: UVAHIK_clean_linker_0, # of connection points: 2
#     Edge 44, Type (0, 0), BuildingBlock: UVAHIK_clean_linker_0, # of connection points: 2
#     Edge 45, Type (0, 0), BuildingBlock: UVAHIK_clean_linker_0, # of connection points: 2
#     Edge 46, Type (0, 0), BuildingBlock: UVAHIK_clean_linker_0, # of connection points: 2
#     Edge 47, Type (0, 0), BuildingBlock: UVAHIK_clean_linker_0, # of connection points: 2
#     Edge 48, Type (0, 0), BuildingBlock: UVAHIK_clean_linker_0, # of connection points: 2
#     Edge 49, Type (0, 0), BuildingBlock: UVAHIK_clean_linker_0, # of connection points: 2
#     Edge 50, Type (0, 0), BuildingBlock: UVAHIK_clean_linker_0, # of connection points: 2
#     Edge 51, Type (0, 0), BuildingBlock: UVAHIK_clean_linker_0, # of connection points: 2
#     Edge 52, Type (0, 0), BuildingBlock: UVAHIK_clean_linker_0, # of connection points: 2
#     Edge 53, Type (0, 0), BuildingBlock: UVAHIK_clean_linker_0, # of connection points: 2
# Relax obj value: 0.025
# Max RMSD: 0.034
# Mean RMSD: 0.034
data_MOF--net-unb--node1-TATPOV_clean_sbu_0--edge1-UVAHIK_clean_linker_0
_symmetry_space_group_name_H-M    P1
_symmetry_Int_Tables_number       1
_symmetry_cell_setting            triclinic
loop_
_symmetry_equiv_pos_as_xyz
'x, y, z'
_cell_length_a     85.281597
_cell_length_b     85.232487
_cell_length_c     31.972816
_cell_angle_alpha  89.994485
_cell_angle_beta   89.953928
_cell_angle_gamma 119.97973
loop_
_atom_site_label
_atom_site_type_symbol
_atom_site_fract_x
_atom_site_fract_y
_atom_site_fract_z
_atom_type_partial_charge
Zn0 Zn 0.11828 0.24337 1.00108 0.0
Zn1 Zn 0.12802 0.25754 0.06721 0.0
O2 O 0.09988 0.23999 0.07114 0.0
O3 O 0.09647 0.2211 0.02082 0.0
O4 O 0.13546 0.26929 0.12461 0.0
O5 O 0.14048 0.24261 0.98794 0.0
O6 O 0.14461 0.24612 0.05577 0.0
C7 C 0.08989 0.22527 0.05135 0.0
C8 C 0.12608 0.27863 0.99385 0.0
O9 O 0.1341 0.2792 0.02793 0.0
O10 O 0.11553 0.26348 0.97733 0.0
C11 C 0.12889 0.27893 0.13765 0.0
O12 O 0.11716 0.28051 0.11398 0.0
C13 C 0.14898 0.24258 0.02018 0.0
Zn14 Zn 0.766 0.86445 0.05777 0.0
Zn15 Zn 0.73695 0.85662 0.09459 0.0
O16 O 0.74198 0.83492 0.09942 0.0
O17 O 0.77001 0.84498 0.07931 0.0
O18 O 0.71776 0.85101 0.1391 0.0
O19 O 0.78132 0.88962 0.07735 0.0
O20 O 0.75526 0.88426 0.10312 0.0
C21 C 0.75535 0.83235 0.09379 0.0
C22 C 0.73495 0.8571 0.00325 0.0
O23 O 0.72626 0.85509 0.03717 0.0
O24 O 0.75122 0.86042 0.0043 0.0
C25 C 0.70489 0.83501 0.14634 0.0
O26 O 0.70318 0.8217 0.12246 0.0
C27 C 0.77188 0.89535 0.09488 0.0
Zn28 Zn 0.11389 0.87694 1.00241 0.0
Zn29 Zn 0.11996 0.8639 0.0685 0.0
O30 O 0.14006 0.89142 0.06768 0.0
O31 O 0.135 0.90138 0.0085 0.0
O32 O 0.12464 0.855 0.1237 0.0
O33 O 0.08966 0.87214 0.01965 0.0
O34 O 0.09224 0.85583 0.06963 0.0
C35 C 0.1443 0.90412 0.04114 0.0
C36 C 0.12194 0.8488 0.98432 0.0
O37 O 0.12487 0.84963 0.02357 0.0
O38 O 0.11631 0.85858 0.9679 0.0
C39 C 0.1404 0.8574 0.13058 0.0
O40 O 0.15287 0.86527 0.10156 0.0
C41 C 0.08265 0.86087 0.04913 0.0
Zn42 Zn 0.22278 0.10232 0.95843 0.0
Zn43 Zn 0.24918 0.11809 0.90532 0.0
O44 O 0.23851 0.09018 0.89897 0.0
O45 O 0.21393 0.07734 0.93783 0.0
O46 O 0.26636 0.12867 0.85579 0.0
O47 O 0.21014 0.11558 0.94272 0.0
O48 O 0.23405 0.13129 0.90292 0.0
C49 C 0.22464 0.07597 0.91283 0.0
C50 C 0.25904 0.12245 0.9956 0.0
O51 O 0.26456 0.12612 0.9579 0.0
O52 O 0.24226 0.1128 0.00344 0.0
C53 C 0.2798 0.12624 0.85054 0.0
O54 O 0.28301 0.11695 0.87865 0.0
C55 C 0.2192 0.12883 0.9186 0.0
Zn56 Zn 0.87841 0.10604 0.99915 0.0
Zn57 Zn 0.86536 0.11439 0.93513 0.0
O58 O 0.89363 0.1297 0.9283 0.0
O59 O 0.90377 0.12098 0.9817 0.0
O60 O 0.85587 0.12015 0.88233 0.0
O61 O 0.86578 0.07998 0.98675 0.0
O62 O 0.85244 0.08594 0.93512 0.0
C63 C 0.90674 0.13047 0.94925 0.0
C64 C 0.85823 0.1233 0.02266 0.0
O65 O 0.85625 0.12386 0.98325 0.0
O66 O 0.8671 0.11625 0.03712 0.0
C67 C 0.86078 0.13641 0.87218 0.0
O68 O 0.87209 0.14962 0.89665 0.0
C69 C 0.85449 0.07458 0.95717 0.0
Zn70 Zn 0.86982 0.76865 0.96622 0.0
Zn71 Zn 0.86163 0.74031 0.92266 0.0
O72 O 0.84029 0.7457 0.91715 0.0
O73 O 0.84932 0.7718 0.94836 0.0
O74 O 0.85636 0.72146 0.8774 0.0
O75 O 0.89438 0.78456 0.94361 0.0
O76 O 0.88924 0.75909 0.91445 0.0
C77 C 0.83742 0.75845 0.92809 0.0
C78 C 0.86245 0.73616 0.0144 0.0
O79 O 0.8592 0.7283 0.97896 0.0
O80 O 0.86712 0.75281 0.01668 0.0
C81 C 0.84037 0.70893 0.86875 0.0
O82 O 0.82677 0.70757 0.89096 0.0
C83 C 0.90012 0.77567 0.9236 0.0
Zn84 Zn 0.7884 0.58027 0.33871 0.0
Zn85 Zn 0.79107 0.58854 0.41153 0.0
O86 O 0.7634 0.57654 0.39847 0.0
O87 O 0.76511 0.58001 0.33027 0.0
O88 O 0.79372 0.5967 0.47229 0.0
O89 O 0.78787 0.55704 0.34975 0.0
O90 O 0.80134 0.57079 0.40803 0.0
C91 C 0.75586 0.57589 0.36349 0.0
C92 C 0.81553 0.61536 0.34621 0.0
O93 O 0.8069 0.61287 0.38037 0.0
O94 O 0.81183 0.60205 0.32274 0.0
C95 C 0.80949 0.60706 0.48694 0.0
O96 O 0.82359 0.61133 0.46296 0.0
C97 C 0.79689 0.55792 0.38184 0.0
Zn98 Zn 0.43029 0.21006 0.34037 0.0
Zn99 Zn 0.4098 0.20218 0.40361 0.0
O100 O 0.42542 0.18962 0.41237 0.0
O101 O 0.44611 0.20143 0.36298 0.0
O102 O 0.39508 0.19623 0.45741 0.0
O103 O 0.4384 0.23602 0.3411 0.0
O104 O 0.42226 0.23059 0.39846 0.0
C105 C 0.43964 0.19137 0.39463 0.0
C106 C 0.39324 0.18727 0.31871 0.0
O107 O 0.39081 0.18965 0.35702 0.0
O108 O 0.40914 0.19389 0.3044 0.0
C109 C 0.3834 0.1799 0.46608 0.0
O110 O 0.38093 0.16709 0.43956 0.0
C111 C 0.43278 0.24171 0.37072 0.0
Zn112 Zn 0.77621 0.21301 0.38119 0.0
Zn113 Zn 0.7916 0.20163 0.4334 0.0
O114 O 0.80493 0.22991 0.43685 0.0
O115 O 0.78967 0.23886 0.39772 0.0
O116 O 0.80179 0.19463 0.48295 0.0
O117 O 0.75103 0.19683 0.40099 0.0
O118 O 0.76367 0.18427 0.43754 0.0
C119 C 0.80276 0.2426 0.42192 0.0
C120 C 0.79619 0.19661 0.34335 0.0
O121 O 0.7999 0.19463 0.3809 0.0
O122 O 0.78662 0.20388 0.33595 0.0
C123 C 0.7965 0.17826 0.49277 0.0
O124 O 0.78427 0.1652 0.46939 0.0
C125 C 0.74952 0.18411 0.42403 0.0
Zn126 Zn 0.89728 0.45111 0.31928 0.0
Zn127 Zn 0.91664 0.4585 0.25966 0.0
O128 O 0.90912 0.43136 0.27335 0.0
O129 O 0.90027 0.43074 0.33814 0.0
O130 O 0.93085 0.46448 0.20462 0.0
O131 O 0.87481 0.44658 0.2898 0.0
O132 O 0.89652 0.46525 0.24817 0.0
C133 C 0.90445 0.42355 0.309 0.0
C134 C 0.92965 0.48259 0.33506 0.0
O135 O 0.93421 0.47631 0.30405 0.0
O136 O 0.91315 0.47536 0.34525 0.0
C137 C 0.94792 0.475 0.202 0.0
O138 O 0.95722 0.48227 0.23629 0.0
C139 C 0.88024 0.45836 0.26121 0.0
Zn140 Zn 0.53754 0.46038 0.33999 0.0
Zn141 Zn 0.52934 0.46571 0.27008 0.0
O142 O 0.55706 0.47438 0.26705 0.0
O143 O 0.56029 0.46126 0.32281 0.0
O144 O 0.52293 0.47029 0.21172 0.0
O145 O 0.51506 0.43687 0.34858 0.0
O146 O 0.51164 0.438 0.28072 0.0
C147 C 0.56689 0.47041 0.28987 0.0
C148 C 0.53042 0.48872 0.34376 0.0
O149 O 0.52393 0.48233 0.30779 0.0
O150 O 0.53911 0.48268 0.36352 0.0
C151 C 0.52888 0.4865 0.1994 0.0
O152 O 0.5394 0.49987 0.22451 0.0
C153 C 0.50676 0.42932 0.3153 0.0
Zn154 Zn 0.5587 0.09424 0.32246 0.0
Zn155 Zn 0.5422 0.07222 0.26236 0.0
O156 O 0.53119 0.08946 0.26639 0.0
O157 O 0.54724 0.10913 0.31533 0.0
O158 O 0.5308 0.0575 0.20973 0.0
O159 O 0.58341 0.10331 0.30106 0.0
O160 O 0.56998 0.08157 0.25456 0.0
C161 C 0.53471 0.10333 0.28858 0.0
C162 C 0.53657 0.05682 0.34894 0.0
O163 O 0.53255 0.05393 0.31027 0.0
O164 O 0.5475 0.07272 0.36161 0.0
C165 C 0.53363 0.04475 0.19891 0.0
O166 O 0.54396 0.04106 0.22262 0.0
C167 C 0.5844 0.09412 0.27135 0.0
Zn168 Zn 0.42763 0.88718 0.70667 0.0
Zn169 Zn 0.44611 0.9124 0.76076 0.0
O170 O 0.41913 0.90614 0.76599 0.0
O171 O 0.40352 0.88199 0.72692 0.0
O172 O 0.45853 0.9288 0.81055 0.0
O173 O 0.43714 0.87101 0.72201 0.0
O174 O 0.45495 0.89351 0.76348 0.0
C175 C 0.404 0.89373 0.75175 0.0
C176 C 0.45273 0.92289 0.67093 0.0
O177 O 0.45684 0.92783 0.70885 0.0
O178 O 0.44083 0.90668 0.66243 0.0
C179 C 0.45615 0.94196 0.8201 0.0
O180 O 0.4456 0.94536 0.79645 0.0
C181 C 0.4503 0.87811 0.74714 0.0
Zn182 Zn 0.08156 0.54651 0.67233 0.0
Zn183 Zn 0.06692 0.53946 0.7381 0.0
O184 O 0.07445 0.51972 0.72785 0.0
O185 O 0.07655 0.52163 0.65946 0.0
O186 O 0.05518 0.53368 0.79598 0.0
O187 O 0.10584 0.56525 0.69329 0.0
O188 O 0.08788 0.56648 0.74051 0.0
C189 C 0.07588 0.51338 0.69274 0.0
C190 C 0.04954 0.54656 0.66458 0.0
O191 O 0.04678 0.53737 0.69803 0.0
O192 O 0.06523 0.55475 0.64885 0.0
C193 C 0.03902 0.52065 0.80048 0.0
O194 O 0.0303 0.5111 0.76746 0.0
C195 C 0.10314 0.57393 0.72168 0.0
Zn196 Zn 0.43909 0.55927 0.71647 0.0
Zn197 Zn 0.45188 0.54376 0.76385 0.0
O198 O 0.46613 0.57142 0.77724 0.0
O199 O 0.45347 0.58391 0.74045 0.0
O200 O 0.45946 0.53281 0.8107 0.0
O201 O 0.41335 0.54364 0.73231 0.0
O202 O 0.42366 0.52737 0.76223 0.0
C203 C 0.46541 0.58542 0.76606 0.0
C204 C 0.45904 0.54419 0.67299 0.0
O205 O 0.46188 0.54014 0.70948 0.0
O206 O 0.44957 0.55175 0.66811 0.0
C207 C 0.47537 0.53517 0.81403 0.0
O208 O 0.48744 0.54459 0.7852 0.0
C209 C 0.4104 0.52922 0.75021 0.0
Zn210 Zn 0.5859 0.80002 0.6881 0.0
Zn211 Zn 0.59354 0.79976 0.61509 0.0
O212 O 0.58385 0.77283 0.63405 0.0
O213 O 0.58573 0.77728 0.70194 0.0
O214 O 0.60096 0.80091 0.5541 0.0
O215 O 0.56259 0.7991 0.6775 0.0
O216 O 0.57428 0.80831 0.6149 0.0
C217 C 0.58308 0.76693 0.67122 0.0
C218 C 0.62087 0.82708 0.67692 0.0
O219 O 0.61792 0.81789 0.64343 0.0
O220 O 0.60784 0.8236 0.70121 0.0
C221 C 0.61406 0.79834 0.54516 0.0
O222 O 0.62176 0.7942 0.57546 0.0
C223 C 0.56216 0.80544 0.64215 0.0
Zn224 Zn 0.22499 0.78557 0.62575 0.0
Zn225 Zn 0.20621 0.79244 0.57431 0.0
O226 O 0.23293 0.81417 0.57195 0.0
O227 O 0.24901 0.80579 0.6097 0.0
O228 O 0.1941 0.79714 0.5248 0.0
O229 O 0.21747 0.76078 0.60676 0.0
O230 O 0.19839 0.76492 0.5687 0.0
C231 C 0.24816 0.8173 0.58649 0.0
C232 C 0.19808 0.793 0.66436 0.0
O233 O 0.19435 0.79507 0.62689 0.0
O234 O 0.21038 0.78912 0.67149 0.0
C235 C 0.19563 0.81262 0.51903 0.0
O236 O 0.20472 0.82551 0.54645 0.0
C237 C 0.20399 0.75452 0.5826 0.0
Zn238 Zn 0.21569 0.44149 0.62386 0.0
Zn239 Zn 0.19964 0.41574 0.57175 0.0
O240 O 0.18625 0.43077 0.56898 0.0
O241 O 0.20068 0.45273 0.61437 0.0
O242 O 0.18872 0.39798 0.5234 0.0
O243 O 0.24011 0.45234 0.59893 0.0
O244 O 0.22768 0.42669 0.56415 0.0
C245 C 0.18797 0.44465 0.58841 0.0
C246 C 0.19713 0.40592 0.66215 0.0
O247 O 0.19164 0.40059 0.62501 0.0
O248 O 0.20813 0.4225 0.66937 0.0
C249 C 0.19392 0.38678 0.51407 0.0
O250 O 0.2065 0.38638 0.53696 0.0
C251 C 0.24171 0.4414 0.57522 0.0
C252 C 0.19274 0.36298 0.46566 0.0
C253 C 0.18637 0.37476 0.477 0.0
C254 C 0.18606 0.35204 0.43003 0.0
C255 C 0.16284 0.34842 0.32951 0.0
H256 H 0.1544 0.29929 0.32939 0.0
C257 C 0.12773 0.29981 0.19124 0.0
C258 C 0.13482 0.28887 0.17799 0.0
C259 C 0.13367 0.30976 0.22836 0.0
C260 C 0.15687 0.31305 0.32875 0.0
H261 H 0.16772 0.38401 0.45995 0.0
H262 H 0.15595 0.36482 0.39818 0.0
H263 H 0.16518 0.3175 0.39293 0.0
H264 H 0.1536 0.27965 0.19392 0.0
H265 H 0.16407 0.29711 0.25867 0.0
H266 H 0.15457 0.344 0.2654 0.0
C267 C 0.16632 0.36423 0.41646 0.0
C268 C 0.16305 0.3235 0.36522 0.0
C269 C 0.173 0.37517 0.45208 0.0
C270 C 0.14783 0.28792 0.20318 0.0
C271 C 0.15377 0.29787 0.24043 0.0
C272 C 0.15665 0.33797 0.29312 0.0
C273 C 0.17284 0.3526 0.40479 0.0
C274 C 0.16611 0.34134 0.3661 0.0
C275 C 0.14687 0.30904 0.25332 0.0
C276 C 0.15355 0.32013 0.29223 0.0
H277 H 0.20305 0.36232 0.48404 0.0
H278 H 0.19157 0.34343 0.4218 0.0
H279 H 0.16537 0.36219 0.32871 0.0
H280 H 0.11763 0.30083 0.17278 0.0
H281 H 0.12783 0.31797 0.23761 0.0
C282 C 0.63561 0.79776 0.49261 0.0
C283 C 0.62127 0.80089 0.50181 0.0
C284 C 0.64304 0.80083 0.45241 0.0
C285 C 0.64794 0.8263 0.35502 0.0
H286 H 0.6631 0.7939 0.30897 0.0
C287 C 0.69591 0.84498 0.21182 0.0
C288 C 0.69303 0.83114 0.18355 0.0
C289 C 0.68567 0.84101 0.24861 0.0
C290 C 0.65878 0.80301 0.32106 0.0
H291 H 0.60339 0.80955 0.47553 0.0
H292 H 0.61631 0.8148 0.40514 0.0
H293 H 0.6477 0.78699 0.37627 0.0
H294 H 0.67662 0.80234 0.17126 0.0
H295 H 0.65868 0.79549 0.235 0.0
H296 H 0.65895 0.84226 0.29956 0.0
C297 C 0.62192 0.81013 0.42927 0.0
C298 C 0.65013 0.79915 0.35998 0.0
C299 C 0.61443 0.807 0.46957 0.0
C300 C 0.6793 0.81333 0.19239 0.0
C301 C 0.66907 0.80937 0.22914 0.0
C302 C 0.65664 0.83019 0.31606 0.0
C303 C 0.63637 0.80713 0.42021 0.0
C304 C 0.64473 0.81082 0.37769 0.0
C305 C 0.67229 0.82311 0.25808 0.0
C306 C 0.6623 0.81865 0.29869 0.0
H307 H 0.64128 0.79311 0.51663 0.0
H308 H 0.65432 0.79862 0.44682 0.0
H309 H 0.64411 0.83567 0.36781 0.0
H310 H 0.70638 0.85884 0.20607 0.0
H311 H 0.68867 0.85192 0.27029 0.0
C312 C 0.17899 0.80302 0.45034 0.0
C313 C 0.18816 0.81645 0.48085 0.0
C314 C 0.17276 0.807 0.4135 0.0
C315 C 0.18114 0.84568 0.34599 0.0
H316 H 0.13519 0.81154 0.29559 0.0
C317 C 0.16266 0.85544 0.17835 0.0
C318 C 0.14493 0.8519 0.17089 0.0
C319 C 0.16725 0.85075 0.21646 0.0
C320 C 0.148 0.82128 0.30941 0.0
H321 H 0.19753 0.8445 0.49681 0.0
H322 H 0.1866 0.85137 0.43295 0.0
H323 H 0.14406 0.80412 0.36213 0.0
H324 H 0.11806 0.84042 0.19774 0.0
H325 H 0.12611 0.83226 0.26449 0.0
H326 H 0.18505 0.86291 0.29365 0.0
C327 C 0.18444 0.83782 0.43715 0.0
C328 C 0.15318 0.81695 0.34734 0.0
C329 C 0.19062 0.83384 0.47395 0.0
C330 C 0.13184 0.84334 0.20242 0.0
C331 C 0.13643 0.83858 0.24061 0.0
C332 C 0.17601 0.84997 0.30806 0.0
C333 C 0.17559 0.82452 0.40622 0.0
C334 C 0.16984 0.82909 0.36611 0.0
C335 C 0.15425 0.84236 0.24822 0.0
C336 C 0.15941 0.83781 0.28915 0.0
H337 H 0.17685 0.78948 0.45458 0.0
H338 H 0.16614 0.79646 0.39023 0.0
H339 H 0.19415 0.85529 0.35921 0.0
H340 H 0.17309 0.86194 0.15478 0.0
H341 H 0.18102 0.85361 0.22092 0.0
C342 C 0.37605 0.18855 0.53574 0.0
C343 C 0.37289 0.17521 0.50577 0.0
C344 C 0.36631 0.18391 0.57341 0.0
C345 C 0.339 0.14452 0.64295 0.0
H346 H 0.32282 0.17571 0.69133 0.0
C347 C 0.30623 0.13063 0.80697 0.0
C348 C 0.29125 0.13313 0.81238 0.0
C349 C 0.31665 0.13648 0.77041 0.0
C350 C 0.32713 0.16678 0.67814 0.0
H351 H 0.35678 0.14653 0.49184 0.0
H352 H 0.33972 0.13852 0.55693 0.0
H353 H 0.33961 0.18428 0.62556 0.0
H354 H 0.27566 0.14398 0.78355 0.0
H355 H 0.29367 0.15397 0.71961 0.0
H356 H 0.32616 0.1268 0.69483 0.0
C357 C 0.34993 0.15253 0.55179 0.0
C358 C 0.33696 0.1718 0.64062 0.0
C359 C 0.35966 0.15716 0.51424 0.0
C360 C 0.28712 0.14186 0.78051 0.0
C361 C 0.29753 0.14769 0.74389 0.0
C362 C 0.32918 0.1395 0.6804 0.0
C363 C 0.35318 0.16581 0.58204 0.0
C364 C 0.34297 0.1607 0.62241 0.0
C365 C 0.31236 0.14495 0.73819 0.0
C366 C 0.32307 0.15053 0.69851 0.0
H367 H 0.38616 0.20258 0.5303 0.0
H368 H 0.36932 0.19448 0.5961 0.0
H369 H 0.34359 0.13573 0.63024 0.0
H370 H 0.30989 0.12406 0.83091 0.0
H371 H 0.32814 0.13441 0.76751 0.0
C372 C 0.79768 0.15582 0.5418 0.0
C373 C 0.80358 0.17392 0.53089 0.0
C374 C 0.80396 0.15167 0.57825 0.0
C375 C 0.84096 0.17162 0.65677 0.0
H376 H 0.80739 0.13085 0.72471 0.0
C377 C 0.85978 0.15851 0.82181 0.0
C378 C 0.85405 0.14048 0.8331 0.0
C379 C 0.85365 0.16246 0.78486 0.0
C380 C 0.81701 0.14216 0.70588 0.0
H381 H 0.82082 0.20186 0.5499 0.0
H382 H 0.83163 0.19463 0.61357 0.0
H383 H 0.79681 0.138 0.66056 0.0
H384 H 0.83727 0.11246 0.81422 0.0
H385 H 0.82666 0.11935 0.74965 0.0
H386 H 0.86114 0.17581 0.70216 0.0
C387 C 0.82231 0.18362 0.59368 0.0
C388 C 0.81094 0.14626 0.66902 0.0
C389 C 0.81603 0.18777 0.55722 0.0
C390 C 0.84195 0.12649 0.80657 0.0
C391 C 0.83578 0.13044 0.76962 0.0
C392 C 0.84703 0.16752 0.69364 0.0
C393 C 0.81632 0.16551 0.60478 0.0
C394 C 0.82282 0.16106 0.64396 0.0
C395 C 0.84159 0.14849 0.75822 0.0
C396 C 0.83513 0.15275 0.71873 0.0
H397 H 0.78814 0.1448 0.52224 0.0
H398 H 0.79925 0.13759 0.58541 0.0
H399 H 0.85058 0.18293 0.63797 0.0
H400 H 0.86905 0.16964 0.84151 0.0
H401 H 0.8582 0.17649 0.77745 0.0
C402 C 0.81916 0.68351 0.82171 0.0
C403 C 0.83694 0.69668 0.83253 0.0
C404 C 0.81579 0.67255 0.78642 0.0
C405 C 0.83771 0.65621 0.71128 0.0
H406 H 0.79764 0.6477 0.63931 0.0
C407 C 0.82958 0.62726 0.5441 0.0
C408 C 0.81206 0.61531 0.52917 0.0
C409 C 0.83215 0.63593 0.5827 0.0
C410 C 0.80872 0.64969 0.65933 0.0
H411 H 0.86517 0.70838 0.81489 0.0
H412 H 0.85928 0.68935 0.75327 0.0
H413 H 0.80305 0.66512 0.70343 0.0
H414 H 0.78347 0.60286 0.5438 0.0
H415 H 0.78795 0.61785 0.61145 0.0
H416 H 0.84344 0.64088 0.66703 0.0
C417 C 0.84793 0.68738 0.7723 0.0
C418 C 0.81184 0.65971 0.69616 0.0
C419 C 0.8513 0.69837 0.80757 0.0
C420 C 0.79715 0.612 0.55425 0.0
C421 C 0.79973 0.62071 0.59294 0.0
C422 C 0.83456 0.64616 0.67448 0.0
C423 C 0.83011 0.67443 0.76104 0.0
C424 C 0.82645 0.66322 0.7225 0.0
C425 C 0.81727 0.63291 0.60753 0.0
C426 C 0.82011 0.64287 0.64782 0.0
H427 H 0.80776 0.68177 0.84025 0.0
H428 H 0.80192 0.66255 0.77909 0.0
H429 H 0.8489 0.65838 0.73113 0.0
H430 H 0.84139 0.63018 0.52563 0.0
H431 H 0.84584 0.6454 0.59255 0.0
C432 C 0.94776 0.47137 0.1237 0.0
C433 C 0.95728 0.4794 0.16075 0.0
C434 C 0.95666 0.4758 0.08495 0.0
C435 C 0.00262 0.49646 0.03692 0.0
H436 H 0.97822 0.50113 0.93952 0.0
C437 C 0.03941 0.52522 0.87852 0.0
C438 C 0.02996 0.51624 0.84207 0.0
C439 C 0.03071 0.52086 0.91754 0.0
C440 C 0.98518 0.49972 0.96631 0.0
H441 H 0.98371 0.49846 0.18586 0.0
H442 H -0.00091 0.50637 0.11855 0.0
H443 H 0.96272 0.49312 0.00684 0.0
H444 H 0.00388 0.49563 0.81827 0.0
H445 H 0.9888 0.48808 0.88602 0.0
H446 H 0.02513 0.50322 0.99631 0.0
C447 C 0.98481 0.4964 0.11935 0.0
C448 C 0.97626 0.49508 0.00499 0.0
C449 C 0.97593 0.49193 0.15805 0.0
C450 C 0.01161 0.50285 0.84561 0.0
C451 C 0.0029 0.49859 0.8845 0.0
C452 C 0.01156 0.50119 0.99826 0.0
C453 C 0.97531 0.48842 0.0822 0.0
C454 C 0.98483 0.49334 0.04086 0.0
C455 C 0.01232 0.50751 0.921 0.0
C456 C 0.00294 0.50283 0.96241 0.0
H457 H 0.9334 0.46162 0.12458 0.0
H458 H 0.94892 0.46917 0.05716 0.0
H459 H 0.00958 0.49498 0.06361 0.0
H460 H 0.05355 0.5356 0.87697 0.0
H461 H 0.03833 0.52812 0.94495 0.0
C462 C 0.51276 0.47638 0.13015 0.0
C463 C 0.52369 0.49041 0.15797 0.0
C464 C 0.50768 0.48024 0.0915 0.0
C465 C 0.51998 0.51789 0.01583 0.0
H466 H 0.47122 0.48713 0.9745 0.0
C467 C 0.49785 0.53018 0.85407 0.0
C468 C 0.48052 0.52824 0.85115 0.0
C469 C 0.50304 0.52446 0.88989 0.0
C470 C 0.48486 0.49594 0.98567 0.0
H471 H 0.53782 0.51955 0.1668 0.0
H472 H 0.52878 0.52623 0.10011 0.0
H473 H 0.48045 0.47962 0.04017 0.0
H474 H 0.45495 0.51849 0.88357 0.0
H475 H 0.46408 0.50883 0.94621 0.0
H476 H 0.52424 0.53456 0.96222 0.0
C477 C 0.52436 0.51224 0.10764 0.0
C478 C 0.49024 0.49149 0.02314 0.0
C479 C 0.52946 0.50838 0.14614 0.0
C480 C 0.46839 0.52015 0.88466 0.0
C481 C 0.47361 0.5145 0.92056 0.0
C482 C 0.5146 0.52236 0.97847 0.0
C483 C 0.51339 0.49824 0.07975 0.0
C484 C 0.50784 0.50249 0.03892 0.0
C485 C 0.49107 0.51673 0.92385 0.0
C486 C 0.49693 0.51152 0.96296 0.0
H487 H 0.5081 0.46238 0.13821 0.0
H488 H 0.4994 0.46912 0.07067 0.0
H489 H 0.53372 0.52656 0.02661 0.0
H490 H 0.50751 0.53624 0.82878 0.0
H491 H 0.51647 0.52611 0.8909 0.0
C492 C 0.51474 0.03826 0.13387 0.0
C493 C 0.5256 0.0343 0.1599 0.0
C494 C 0.50734 0.02844 0.09698 0.0
C495 C 0.49583 0.98508 0.04489 0.0
H496 H 0.49489 0.01 0.94431 0.0
C497 C 0.47569 0.9492 0.88414 0.0
C498 C 0.46468 0.95297 0.85815 0.0
C499 C 0.48332 0.95929 0.92056 0.0
C500 C 0.49486 0.00279 0.97222 0.0
H501 H 0.5372 0.01687 0.16733 0.0
H502 H 0.52444 -9e-05 0.10303 0.0
H503 H 0.50756 0.02715 0.00856 0.0
H504 H 0.45319 0.97045 0.8501 0.0
H505 H 0.46634 0.9879 0.91367 0.0
H506 H 0.48312 0.96073 0.00862 0.0
C507 C 0.52144 0.01045 0.11134 0.0
C508 C 0.50213 0.01263 0.00911 0.0
C509 C 0.52885 0.02027 0.14815 0.0
C510 C 0.46163 0.96719 0.8693 0.0
C511 C 0.46926 0.97728 0.90569 0.0
C512 C 0.48857 0.97524 0.00802 0.0
C513 C 0.51059 0.0144 0.08523 0.0
C514 C 0.50273 0.00391 0.04594 0.0
C515 C 0.48015 0.97342 0.93193 0.0
C516 C 0.48799 0.98396 0.97116 0.0
H517 H 0.51193 0.04894 0.14198 0.0
H518 H 0.49887 0.03172 0.07793 0.0
H519 H 0.49579 0.97786 0.0728 0.0
H520 H 0.47839 0.93839 0.87648 0.0
H521 H 0.49184 0.9561 0.93966 0.0
C522 C 0.11963 0.29413 0.93631 0.0
C523 C 0.13076 0.29516 0.96983 0.0
C524 C 0.12585 0.30791 0.90668 0.0
C525 C 0.16019 0.35418 0.879 0.0
H526 H 0.15736 0.33318 0.7696 0.0
C527 C 0.19877 0.39796 0.7365 0.0
C528 C 0.18998 0.39315 0.69756 0.0
C529 C 0.19139 0.38654 0.77098 0.0
C530 C 0.15802 0.3393 0.79971 0.0
H531 H 0.15631 0.31223 1.00112 0.0
H532 H 0.16721 0.33653 0.94896 0.0
H533 H 0.1437 0.31348 0.82962 0.0
H534 H 0.16666 0.37258 0.66403 0.0
H535 H 0.15349 0.35284 0.72441 0.0
H536 H 0.1743 0.38004 0.84896 0.0
C537 C 0.15372 0.32495 0.9457 0.0
C538 C 0.15023 0.32801 0.83411 0.0
C539 C 0.14749 0.31107 0.97551 0.0
C540 C 0.17381 0.37657 0.69357 0.0
C541 C 0.1663 0.36524 0.7282 0.0
C542 C 0.16783 0.36554 0.84438 0.0
C543 C 0.14327 0.32301 0.91006 0.0
C544 C 0.15121 0.33533 0.87401 0.0
C545 C 0.17495 0.37015 0.76739 0.0
C546 C 0.16684 0.35821 0.80432 0.0
H547 H 0.10654 0.28215 0.93152 0.0
H548 H 0.11741 0.3063 0.87986 0.0
H549 H 0.1611 0.3601 0.90952 0.0
H550 H 0.21134 0.41062 0.74044 0.0
H551 H 0.19862 0.39056 0.80041 0.0
C552 C 0.65394 0.83722 0.67853 0.0
C553 C 0.63943 0.83937 0.69189 0.0
C554 C 0.66997 0.84476 0.7018 0.0
C555 C 0.69251 0.87294 0.79709 0.0
H556 H 0.70242 0.83413 0.82115 0.0
C557 C 0.71208 0.8599 0.95982 0.0
C558 C 0.72674 0.85679 0.96242 0.0
C559 C 0.70534 0.86107 0.92086 0.0
C560 C 0.70003 0.84522 0.81438 0.0
H561 H 0.63115 0.85307 0.73628 0.0
H562 H 0.65865 0.86582 0.77695 0.0
H563 H 0.68518 0.83239 0.75907 0.0
H564 H 0.74559 0.85209 0.92639 0.0
H565 H 0.73336 0.85358 0.85834 0.0
H566 H 0.70628 0.885 0.85445 0.0
C567 C 0.65794 0.85842 0.74884 0.0
C568 C 0.69029 0.84434 0.77855 0.0
C569 C 0.64202 0.85096 0.72563 0.0
C570 C 0.73428 0.8545 0.92536 0.0
C571 C 0.72733 0.85538 0.88645 0.0
C572 C 0.70201 0.87366 0.83327 0.0
C573 C 0.67169 0.85453 0.73868 0.0
C574 C 0.6858 0.85786 0.77029 0.0
C575 C 0.71294 0.85887 0.88387 0.0
C576 C 0.70531 0.8595 0.84286 0.0
H577 H 0.65237 0.82848 0.65237 0.0
H578 H 0.6805 0.84189 0.69251 0.0
H579 H 0.68966 0.88378 0.79123 0.0
H580 H 0.70608 0.86182 0.98782 0.0
H581 H 0.69403 0.8635 0.91963 0.0
C582 C 0.13637 0.82979 0.97123 0.0
C583 C 0.12602 0.83735 0.9569 0.0
C584 C 0.14196 0.82088 0.94336 0.0
C585 C 0.13441 0.80135 0.83629 0.0
H586 H 0.18582 0.81802 0.84 0.0
C587 C 0.17464 0.79961 0.6933 0.0
C588 C 0.18816 0.79505 0.69992 0.0
C589 C 0.16557 0.80181 0.72722 0.0
C590 C 0.17138 0.81298 0.83889 0.0
H591 H 0.11249 0.84055 0.90279 0.0
H592 H 0.12233 0.82529 0.85451 0.0
H593 H 0.17195 0.82609 0.89631 0.0
H594 H 0.20249 0.78886 0.74735 0.0
H595 H 0.18664 0.79265 0.80628 0.0
H596 H 0.13401 0.78874 0.77807 0.0
C597 C 0.12607 0.82608 0.88713 0.0
C598 C 0.16342 0.81754 0.87125 0.0
C599 C 0.12057 0.835 0.91481 0.0
C600 C 0.19223 0.79249 0.74111 0.0
C601 C 0.18319 0.79471 0.77494 0.0
C602 C 0.14238 0.79681 0.80387 0.0
C603 C 0.13717 0.81929 0.90083 0.0
C604 C 0.14493 0.81212 0.86984 0.0
C605 C 0.16986 0.79951 0.76839 0.0
C606 C 0.16102 0.80289 0.80443 0.0
H607 H 0.14072 0.83134 0.00353 0.0
H608 H 0.15036 0.81561 0.95486 0.0
H609 H 0.12007 0.79675 0.83466 0.0
H610 H 0.17118 0.80167 0.66197 0.0
H611 H 0.15551 0.80575 0.72123 0.0
C612 C 0.38123 0.17623 0.24728 0.0
C613 C 0.37784 0.17812 0.28949 0.0
C614 C 0.36733 0.16966 0.21804 0.0
C615 C 0.31875 0.14327 0.20229 0.0
H616 H 0.32949 0.17268 0.10218 0.0
C617 C 0.26587 0.12714 0.07209 0.0
C618 C 0.27208 0.12922 0.03058 0.0
C619 C 0.2781 0.13327 0.10533 0.0
C620 C 0.32634 0.16421 0.12969 0.0
H621 H 0.35695 0.17365 0.3345 0.0
H622 H 0.33239 0.16185 0.28284 0.0
H623 H 0.35176 0.18233 0.1581 0.0
H624 H 0.29596 0.13929 0.99139 0.0
H625 H 0.31728 0.14966 0.04941 0.0
H626 H 0.29349 0.12487 0.17341 0.0
C627 C 0.34596 0.16566 0.27273 0.0
C628 C 0.33905 0.16978 0.16175 0.0
C629 C 0.35999 0.17241 0.30218 0.0
C630 C 0.29076 0.13759 0.02299 0.0
C631 C 0.30298 0.14362 0.05627 0.0
C632 C 0.30603 0.13759 0.16997 0.0
C633 C 0.34966 0.1647 0.23027 0.0
C634 C 0.33548 0.15925 0.19805 0.0
C635 C 0.29678 0.14153 0.09781 0.0
C636 C 0.30981 0.14789 0.13308 0.0
H637 H 0.39477 0.18031 0.2364 0.0
H638 H 0.37045 0.16871 0.1856 0.0
H639 H 0.31575 0.1349 0.22994 0.0
H640 H 0.25155 0.12083 0.079 0.0
H641 H 0.2729 0.13169 0.1369 0.0
C642 C 0.84108 0.13958 0.03829 0.0
C643 C 0.85025 0.1307 0.05226 0.0
C644 C 0.83376 0.14654 0.06717 0.0
C645 C 0.81911 0.14175 0.17736 0.0
H646 H 0.82808 0.19086 0.16608 0.0
C647 C 0.81133 0.18005 0.31564 0.0
C648 C 0.80238 0.18984 0.30816 0.0
C649 C 0.81626 0.17283 0.28236 0.0
C650 C 0.8253 0.17705 0.16936 0.0
H651 H 0.85895 0.1222 0.10743 0.0
H652 H 0.84641 0.13434 0.15717 0.0
H653 H 0.83757 0.17772 0.11036 0.0
H654 H 0.79195 0.20007 0.25979 0.0
H655 H 0.80059 0.18742 0.20177 0.0
H656 H 0.80715 0.14112 0.23655 0.0
C657 C 0.84461 0.13575 0.12411 0.0
C658 C 0.83067 0.16953 0.13745 0.0
C659 C 0.85193 0.1289 0.09548 0.0
C660 C 0.79882 0.19258 0.26664 0.0
C661 C 0.80382 0.18541 0.23336 0.0
C662 C 0.8138 0.14925 0.20919 0.0
C663 C 0.83541 0.14458 0.11036 0.0
C664 C 0.82795 0.15193 0.14158 0.0
C665 C 0.81241 0.17529 0.24093 0.0
C666 C 0.81714 0.16708 0.20588 0.0
H667 H 0.8396 0.14119 0.00518 0.0
H668 H 0.82668 0.15326 0.05577 0.0
H669 H 0.81652 0.12801 0.181 0.0
H670 H 0.81432 0.17775 0.34722 0.0
H671 H 0.82313 0.16532 0.28905 0.0
C672 C 0.85251 0.70717 0.05319 0.0
C673 C 0.86112 0.72615 0.05316 0.0
C674 C 0.85122 0.69782 0.09006 0.0
C675 C 0.85837 0.6814 0.16572 0.0
H676 H 0.84781 0.69717 0.27047 0.0
C677 C 0.84337 0.63695 0.3083 0.0
C678 C 0.82771 0.6336 0.32997 0.0
C679 C 0.85219 0.65201 0.28219 0.0
C680 C 0.85077 0.69258 0.24151 0.0
H681 H 0.87542 0.75025 0.09159 0.0
H682 H 0.87359 0.73396 0.15555 0.0
H683 H 0.85259 0.715 0.20733 0.0
H684 H 0.80971 0.64386 0.34447 0.0
H685 H 0.82449 0.66972 0.29741 0.0
H686 H 0.8553 0.65837 0.19873 0.0
C687 C 0.86745 0.72625 0.12741 0.0
C688 C 0.8537 0.70291 0.20533 0.0
C689 C 0.86856 0.73559 0.09065 0.0
C690 C 0.82188 0.64632 0.32821 0.0
C691 C 0.83041 0.66115 0.30118 0.0
C692 C 0.85523 0.67099 0.20164 0.0
C693 C 0.85872 0.70725 0.1276 0.0
C694 C 0.85714 0.69722 0.16682 0.0
C695 C 0.84509 0.66361 0.27617 0.0
C696 C 0.85105 0.67624 0.23989 0.0
H697 H 0.84655 0.69952 0.02486 0.0
H698 H 0.84407 0.68316 0.08921 0.0
H699 H 0.86139 0.67681 0.13683 0.0
H700 H 0.84814 0.62732 0.30955 0.0
H701 H 0.86384 0.65384 0.2646 0.0
C702 C 0.96095 0.49955 0.3647 0.0
C703 C 0.94326 0.49664 0.36268 0.0
C704 C 0.9725 0.50996 0.39704 0.0
C705 C 0.96899 0.52167 0.50542 0.0
H706 H 0.02125 0.54991 0.49732 0.0
C707 C 0.03835 0.5601 0.61223 0.0
C708 C 0.03461 0.546 0.64039 0.0
C709 C 0.02586 0.5579 0.58145 0.0
C710 C 0.00664 0.54237 0.5002 0.0
H711 H 0.92437 0.50376 0.39015 0.0
H712 H 0.94462 0.52216 0.44591 0.0
H713 H 0.0032 0.54021 0.43376 0.0
H714 H 0.01433 0.51923 0.66109 0.0
H715 H 0.99254 0.51517 0.60669 0.0
H716 H 0.97247 0.52358 0.5719 0.0
C717 C 0.94941 0.516 0.42342 0.0
C718 C -0.00367 0.53663 0.4637 0.0
C719 C 0.93786 0.50554 0.39135 0.0
C720 C 0.01751 0.53031 0.63977 0.0
C721 C 0.00504 0.52802 0.60859 0.0
C722 C 0.97931 0.52743 0.54194 0.0
C723 C 0.96657 0.51771 0.42763 0.0
C724 C 0.97742 0.52587 0.46592 0.0
C725 C 0.00948 0.54148 0.57794 0.0
C726 C -0.00173 0.5375 0.53973 0.0
H727 H 0.96546 0.49285 0.34304 0.0
H728 H 0.98564 0.51096 0.39953 0.0
H729 H 0.95444 0.51323 0.50824 0.0
H730 H 0.05137 0.57245 0.61248 0.0
H731 H 0.02946 0.56869 0.55899 0.0
C732 C 0.48193 0.53791 0.64028 0.0
C733 C 0.46697 0.54043 0.63603 0.0
C734 C 0.4897 0.53482 0.60511 0.0
C735 C 0.49128 0.53782 0.48869 0.0
H736 H 0.50954 0.50457 0.50089 0.0
C737 C 0.50995 0.50132 0.35802 0.0
C738 C 0.5262 0.50138 0.36563 0.0
C739 C 0.5038 0.50952 0.3866 0.0
C740 C 0.50461 0.51399 0.49716 0.0
H741 H 0.44826 0.54153 0.59182 0.0
H742 H 0.46131 0.53534 0.53063 0.0
H743 H 0.49594 0.5108 0.56063 0.0
H744 H 0.54984 0.51188 0.40573 0.0
H745 H 0.53908 0.52606 0.45529 0.0
H746 H 0.49946 0.54024 0.42424 0.0
C747 C 0.46744 0.53631 0.56087 0.0
C748 C 0.49691 0.51766 0.53143 0.0
C749 C 0.45986 0.53971 0.59599 0.0
C750 C 0.5371 0.51137 0.39951 0.0
C751 C 0.53098 0.51949 0.42786 0.0
C752 C 0.49877 0.53388 0.45405 0.0
C753 C 0.48245 0.53382 0.56498 0.0
C754 C 0.49033 0.52978 0.52786 0.0
C755 C 0.5139 0.51782 0.42277 0.0
C756 C 0.50568 0.52212 0.45831 0.0
H757 H 0.48784 0.53863 0.67071 0.0
H758 H 0.5015 0.53336 0.60944 0.0
H759 H 0.4865 0.54735 0.48488 0.0
H760 H 0.50131 0.49371 0.3321 0.0
H761 H 0.49056 0.50811 0.38218 0.0
C762 C 0.47537 0.9538 0.64482 0.0
C763 C 0.46178 0.93591 0.63649 0.0
C764 C 0.48386 0.96601 0.61205 0.0
C765 C 0.47737 0.97445 0.50246 0.0
H766 H 0.52926 0.00716 0.50488 0.0
C767 C 0.51583 0.02413 0.36724 0.0
C768 C 0.52851 0.04185 0.37958 0.0
C769 C 0.50806 0.01022 0.39688 0.0
C770 C 0.51474 -0.00182 0.5039 0.0
H771 H 0.4465 0.91679 0.58719 0.0
H772 H 0.46139 0.93809 0.53019 0.0
H773 H 0.51488 0.98488 0.56055 0.0
H774 H 0.54308 0.05883 0.43263 0.0
H775 H 0.52943 0.03472 0.48399 0.0
H776 H 0.47719 0.98792 0.44614 0.0
C777 C 0.46534 0.9427 0.56203 0.0
C778 C 0.50652 0.98546 0.53579 0.0
C779 C 0.45689 0.93049 0.59473 0.0
C780 C 0.53338 0.04533 0.42198 0.0
C781 C 0.52565 0.03147 0.45146 0.0
C782 C 0.48559 0.9872 0.47058 0.0
C783 C 0.47891 0.96058 0.57034 0.0
C784 C 0.48772 0.9736 0.53564 0.0
C785 C 0.51288 0.01379 0.4393 0.0
C786 C 0.50433 -0.00066 0.47127 0.0
H787 H 0.47943 0.95841 0.67663 0.0
H788 H 0.49413 0.97979 0.61941 0.0
H789 H 0.46282 0.96559 0.50176 0.0
H790 H 0.51184 0.02101 0.33479 0.0
H791 H 0.49835 0.99667 0.38658 0.0
C792 C 0.1665 0.22818 0.04759 0.0
C793 C 0.1627 0.23694 0.01532 0.0
C794 C 0.17654 0.21958 0.03919 0.0
C795 C 0.20415 0.21331 0.95619 0.0
H796 H 0.18125 0.16448 1.00038 0.0
C797 C 0.22758 0.16139 0.91703 0.0
C798 C 0.21413 0.14301 0.91635 0.0
C799 C 0.22315 0.17464 0.9278 0.0
C800 C 0.1877 0.17802 0.98737 0.0
H801 H 0.1678 0.24506 0.95014 0.0
H802 H 0.18487 0.23005 0.93549 0.0
H803 H 0.17199 0.1854 0.02604 0.0
H804 H 0.18536 0.12423 0.92215 0.0
H805 H 0.1775 0.14732 0.93876 0.0
H806 H 0.21919 0.20553 0.91592 0.0
C807 C 0.18031 0.22973 0.96726 0.0
C808 C 0.18265 0.19017 1.0028 0.0
C809 C 0.17033 0.23823 0.97561 0.0
C810 C 0.19601 0.1383 0.92272 0.0
C811 C 0.19156 0.15152 0.93289 0.0
C812 C 0.20912 0.20108 0.94049 0.0
C813 C 0.18299 0.21972 0.99846 0.0
C814 C 0.19052 0.20787 0.98682 0.0
C815 C 0.20517 0.16972 0.9376 0.0
C816 C 0.20065 0.18315 0.95524 0.0
H817 H 0.16082 0.22702 0.07851 0.0
H818 H 0.17865 0.21225 0.06415 0.0
H819 H 0.2107 0.22692 0.94357 0.0
H820 H 0.24169 0.16538 0.91271 0.0
H821 H 0.23398 0.18853 0.93103 0.0
C822 C 0.8239 0.04699 0.95657 0.0
C823 C 0.84275 0.05491 0.95256 0.0
C824 C 0.81335 0.02862 0.96717 0.0
C825 C 0.81498 0.98595 0.97991 0.0
H826 H 0.78491 0.97839 0.07751 0.0
C827 C 0.7975 0.92693 0.08828 0.0
C828 C 0.77891 0.91512 0.09469 0.0
C829 C 0.80371 0.94435 0.07281 0.0
C830 C 0.79314 0.98029 0.0501 0.0
H831 H 0.8652 0.04985 0.95292 0.0
H832 H 0.84697 0.01796 0.97024 0.0
H833 H 0.79728 0.00686 0.03839 0.0
H834 H 0.75251 0.91309 0.09472 0.0
H835 H 0.7635 0.94377 0.06823 0.0
H836 H 0.8114 0.95972 0.9924 0.0
C837 C 0.84016 0.02566 0.96541 0.0
C838 C 0.80009 0.99648 0.02743 0.0
C839 C 0.85065 0.04395 0.95537 0.0
C840 C 0.76693 0.92186 0.09016 0.0
C841 C 0.77318 0.93939 0.07468 0.0
C842 C 0.80819 0.9699 1.00268 0.0
C843 C 0.82152 0.01796 0.97335 0.0
C844 C 0.81147 -0.00033 0.99268 0.0
C845 C 0.79148 0.95037 0.06364 0.0
C846 C 0.7976 0.9671 0.03863 0.0
H847 H 0.81758 0.05529 0.95524 0.0
H848 H 0.79899 0.02301 0.97261 0.0
H849 H 0.82341 0.98782 0.95289 0.0
H850 H 0.8071 0.92221 0.09189 0.0
H851 H 0.81797 0.95275 0.06564 0.0
C852 C 0.9275 0.77218 0.92555 0.0
C853 C 0.91993 0.78341 0.92065 0.0
C854 C 0.94572 0.7796 0.93679 0.0
C855 C 0.9893 0.82273 0.94757 0.0
H856 H -0.00393 0.79981 0.04542 0.0
C857 C 0.05363 0.86071 0.04327 0.0
C858 C 0.06275 0.85124 0.05236 0.0
C859 C 0.03555 0.85144 0.03076 0.0
C860 C 0.99444 0.80629 0.01793 0.0
H861 H 0.92585 0.81127 0.91952 0.0
H862 H 0.95758 0.8242 0.93812 0.0
H863 H 0.96696 0.78523 0.00908 0.0
H864 H 0.05975 0.8246 0.05919 0.0
H865 H 0.02804 0.80828 0.03716 0.0
H866 H 0.01664 0.84382 0.95637 0.0
C867 C 0.94952 0.80968 0.93379 0.0
C868 C 0.97781 0.79788 0.99691 0.0
C869 C 0.93132 0.80228 0.92303 0.0
C870 C 0.05296 0.83222 0.05287 0.0
C871 C 0.03483 0.82289 0.03988 0.0
C872 C 0.00587 0.8311 0.96848 0.0
C873 C 0.95672 0.79838 0.94268 0.0
C874 C 0.97498 0.80616 0.96185 0.0
C875 C 0.02627 0.83249 0.02653 0.0
C876 C 0.00857 0.82316 0.00436 0.0
H877 H 0.91904 0.75758 0.92425 0.0
H878 H 0.95098 0.77058 0.94274 0.0
H879 H 0.98764 0.82933 0.92035 0.0
H880 H 0.06088 0.87539 0.0427 0.0
H881 H 0.02917 0.8592 0.02201 0.0
C882 C 0.8045 0.74022 0.94289 0.0
C883 C 0.81913 0.75612 0.92656 0.0
C884 C 0.78903 0.74029 0.95738 0.0
C885 C 0.77382 0.75531 0.02367 0.0
H886 H 0.75138 0.78115 0.9763 0.0
C887 C 0.76747 0.81146 0.10253 0.0
C888 C 0.7528 0.81393 0.09299 0.0
C889 C 0.76811 0.79649 0.08698 0.0
C890 C 0.75709 0.77347 0.98992 0.0
H891 H 0.82835 0.7838 0.90806 0.0
H892 H 0.80108 0.7837 0.93141 0.0
H893 H 0.76591 0.76933 0.93019 0.0
H894 H 0.72648 0.80189 0.06329 0.0
H895 H 0.72782 0.77587 0.03513 0.0
H896 H 0.76655 0.76103 0.08368 0.0
C897 C 0.80156 0.77126 0.93365 0.0
C898 C 0.76548 0.7668 0.9635 0.0
C899 C 0.81717 0.77134 0.92019 0.0
C900 C 0.73787 0.80019 0.0715 0.0
C901 C 0.73869 0.78539 0.05505 0.0
C902 C 0.76569 0.76226 0.05014 0.0
C903 C 0.78783 0.75611 0.95465 0.0
C904 C 0.77459 0.75835 0.98028 0.0
C905 C 0.75425 0.78394 0.06088 0.0
C906 C 0.75794 0.77208 0.03361 0.0
H907 H 0.8058 0.72839 0.94868 0.0
H908 H 0.77862 0.72845 0.97342 0.0
H909 H 0.78089 0.749 0.0375 0.0
H910 H 0.77919 0.82194 0.11876 0.0
H911 H 0.78032 0.79579 0.0918 0.0
C912 C 0.17594 0.92376 0.01992 0.0
C913 C 0.16121 0.92147 0.04413 0.0
C914 C 0.18922 0.94105 0.00721 0.0
C915 C 0.19764 0.97381 0.95232 0.0
H916 H 0.22141 0.01908 0.01358 0.0
C917 C 0.2059 0.04268 0.90414 0.0
C918 C 0.22307 0.05806 0.90881 0.0
C919 C 0.20309 0.02557 0.91474 0.0
C920 C 0.21513 0.00651 0.9961 0.0
H921 H 0.14933 0.93522 0.07669 0.0
H922 H 0.17297 0.96564 0.05586 0.0
H923 H 0.20858 0.99027 0.05171 0.0
H924 H 0.251 0.06766 0.92584 0.0
H925 H 0.2459 0.03767 0.94583 0.0
H926 H 0.20277 0.99002 0.89713 0.0
C927 C 0.1743 0.9541 0.04678 0.0
C928 C 0.20776 0.9901 0.01789 0.0
C929 C 0.16084 0.93675 0.05896 0.0
C930 C 0.23771 0.05593 0.92119 0.0
C931 C 0.23478 0.03886 0.93301 0.0
C932 C 0.20463 0.99019 0.93068 0.0
C933 C 0.18801 0.95628 0.01889 0.0
C934 C 0.19863 0.97361 0.99622 0.0
C935 C 0.21731 0.02369 0.93127 0.0
C936 C 0.21311 0.00665 0.95249 0.0
H937 H 0.17622 0.91209 0.00739 0.0
H938 H 0.19967 0.94241 0.98574 0.0
H939 H 0.19043 0.96126 0.93494 0.0
H940 H 0.19438 0.04406 0.89529 0.0
H941 H 0.18948 0.01405 0.91346 0.0
C942 C 0.93243 0.16197 0.94698 0.0
C943 C 0.9257 0.14347 0.93954 0.0
C944 C 0.95093 0.17347 0.95448 0.0
C945 C -0.00416 0.17621 0.95223 0.0
H946 H 0.00362 0.2013 0.05816 0.0
C947 C 0.0603 0.19721 0.04308 0.0
C948 C 0.07003 0.21543 0.05548 0.0
C949 C 0.04219 0.18938 0.03144 0.0
C950 C 0.00169 0.19451 0.02838 0.0
H951 H 0.93283 0.12266 0.93082 0.0
H952 H 0.96505 0.14267 0.94241 0.0
H953 H 0.97394 0.18779 0.02443 0.0
H954 H 0.068 0.23922 0.06955 0.0
H955 H 0.03614 0.22545 0.04932 0.0
H956 H 0.02338 0.18252 0.9565 0.0
C957 C 0.95627 0.14845 0.94258 0.0
C958 C 0.98476 0.18691 0.00885 0.0
C959 C 0.93782 0.13698 0.93568 0.0
C960 C 0.06077 0.22508 0.06047 0.0
C961 C 0.04257 0.21725 0.04851 0.0
C962 C 0.01269 0.18375 0.97172 0.0
C963 C 0.96289 0.16661 0.95418 0.0
C964 C 0.98155 0.17732 0.97102 0.0
C965 C 0.03345 0.19966 0.03167 0.0
C966 C 0.01568 0.19257 0.01053 0.0
H967 H 0.92322 0.16715 0.95099 0.0
H968 H 0.95569 0.18745 0.96291 0.0
H969 H 0.99387 0.16914 0.92284 0.0
H970 H 0.06712 0.18945 0.03914 0.0
H971 H 0.03532 0.1756 0.01983 0.0
C972 C 0.82343 0.55337 0.38658 0.0
C973 C 0.80462 0.54591 0.3833 0.0
C974 C 0.8315 0.5433 0.37402 0.0
C975 C 0.82378 0.49798 0.34969 0.0
H976 H 0.85835 0.52156 0.25981 0.0
C977 C 0.85118 0.45859 0.26165 0.0
C978 C 0.86995 0.46786 0.25482 0.0
C979 C 0.84228 0.46811 0.27161 0.0
C980 C 0.84889 0.51481 0.28513 0.0
H981 H 0.77936 0.52183 0.36775 0.0
H982 H 0.79334 0.50394 0.34781 0.0
H983 H 0.84598 0.53799 0.29687 0.0
H984 H 0.89383 0.4944 0.249 0.0
H985 H 0.87855 0.51098 0.26737 0.0
H986 H 0.82699 0.47503 0.3393 0.0
C987 C 0.80188 0.51759 0.35939 0.0
C988 C 0.84186 0.52427 0.30642 0.0
C989 C 0.79388 0.52777 0.37099 0.0
C990 C 0.87931 0.48687 0.25373 0.0
C991 C 0.87049 0.4964 0.26455 0.0
C992 C 0.83104 0.48862 0.32895 0.0
C993 C 0.82079 0.52554 0.35896 0.0
C994 C 0.82921 0.51592 0.3388 0.0
C995 C 0.85206 0.48709 0.27585 0.0
C996 C 0.84364 0.49686 0.29619 0.0
H997 H 0.832 0.56744 0.39527 0.0
H998 H 0.84612 0.54965 0.37422 0.0
H999 H 0.81404 0.49126 0.37456 0.0
H1000 H 0.84363 0.44391 0.26249 0.0
H1001 H 0.82793 0.46049 0.27844 0.0
C1002 C 0.48252 0.40345 0.35477 0.0
C1003 C 0.49242 0.41014 0.31751 0.0
C1004 C 0.47146 0.38487 0.361 0.0
C1005 C 0.45197 0.33981 0.3088 0.0
H1006 H 0.45884 0.32439 0.4182 0.0
C1007 C 0.44772 0.27189 0.33611 0.0
C1008 C 0.43747 0.26097 0.3699 0.0
C1009 C 0.45104 0.28952 0.33187 0.0
C1010 C 0.45649 0.32847 0.38783 0.0
H1011 H 0.49772 0.4028 0.25651 0.0
H1012 H 0.47878 0.3702 0.26765 0.0
H1013 H 0.47025 0.35644 0.40472 0.0
H1014 H 0.42316 0.26034 0.42651 0.0
H1015 H 0.42953 0.29178 0.41957 0.0
H1016 H 0.43913 0.31183 0.29143 0.0
C1017 C 0.47926 0.3793 0.29189 0.0
C1018 C 0.46299 0.34684 0.37999 0.0
C1019 C 0.49015 0.39798 0.28541 0.0
C1020 C 0.43109 0.2684 0.40019 0.0
C1021 C 0.43467 0.28631 0.39616 0.0
C1022 C 0.44563 0.32148 0.31655 0.0
C1023 C 0.47027 0.37251 0.33037 0.0
C1024 C 0.46121 0.3528 0.34004 0.0
C1025 C 0.4444 0.29686 0.36146 0.0
C1026 C 0.44827 0.31571 0.35579 0.0
H1027 H 0.48387 0.41259 0.37985 0.0
H1028 H 0.46436 0.38019 0.39049 0.0
H1029 H 0.45002 0.34383 0.27799 0.0
H1030 H 0.45297 0.26676 0.31218 0.0
H1031 H 0.45893 0.29748 0.30536 0.0
C1032 C 0.60443 0.08136 0.28082 0.0
C1033 C 0.60202 0.09538 0.26493 0.0
C1034 C 0.6215 0.08505 0.29468 0.0
C1035 C 0.67004 0.11759 0.29957 0.0
H1036 H 0.6645 0.11571 0.42038 0.0
C1037 C 0.71591 0.16834 0.42581 0.0
C1038 C 0.73183 0.16732 0.42464 0.0
C1039 C 0.69961 0.1539 0.41138 0.0
C1040 C 0.66622 0.11588 0.38678 0.0
H1041 H 0.61562 0.12355 0.24651 0.0
H1042 H 0.64565 0.12974 0.26818 0.0
H1043 H 0.63768 0.10002 0.37564 0.0
H1044 H 0.74301 0.15002 0.41025 0.0
H1045 H 0.71453 0.12499 0.38355 0.0
H1046 H 0.69854 0.13409 0.31081 0.0
C1047 C 0.63438 0.11602 0.27059 0.0
C1048 C 0.65096 0.1069 0.36121 0.0
C1049 C 0.61724 0.11247 0.25787 0.0
C1050 C 0.73086 0.15103 0.41218 0.0
C1051 C 0.71465 0.13678 0.39657 0.0
C1052 C 0.68534 0.12618 0.32518 0.0
C1053 C 0.63639 0.10265 0.29158 0.0
C1054 C 0.6527 0.10823 0.31741 0.0
C1055 C 0.69911 0.13844 0.39462 0.0
C1056 C 0.68346 0.12591 0.36889 0.0
H1057 H 0.59281 0.06819 0.28743 0.0
H1058 H 0.62276 0.07457 0.3109 0.0
H1059 H 0.67167 0.11896 0.26593 0.0
H1060 H 0.71638 0.18083 0.43475 0.0
H1061 H 0.68777 0.15548 0.40984 0.0
C1062 C 0.50387 0.1 0.28908 0.0
C1063 C 0.52278 0.11123 0.28908 0.0
C1064 C 0.49276 0.10667 0.30339 0.0
C1065 C 0.49621 0.14166 0.3762 0.0
H1066 H 0.45054 0.13278 0.32978 0.0
C1067 C 0.46599 0.18714 0.40457 0.0
C1068 C 0.44715 0.17966 0.40512 0.0
C1069 C 0.47354 0.17605 0.3994 0.0
C1070 C 0.46308 0.13502 0.34367 0.0
H1071 H 0.5448 0.13852 0.2997 0.0
H1072 H 0.5255 0.15029 0.32304 0.0
H1073 H 0.46691 0.11933 0.29644 0.0
H1074 H 0.42136 0.15474 0.40361 0.0
H1075 H 0.4346 0.13518 0.39433 0.0
H1076 H 0.49272 0.15774 0.42263 0.0
C1077 C 0.51922 0.13623 0.31354 0.0
C1078 C 0.47249 0.12742 0.32439 0.0
C1079 C 0.53026 0.12957 0.29961 0.0
C1080 C 0.43595 0.16076 0.40399 0.0
C1081 C 0.44351 0.14963 0.39805 0.0
C1082 C 0.48685 0.14922 0.39539 0.0
C1083 C 0.50046 0.12465 0.31767 0.0
C1084 C 0.48944 0.13115 0.33972 0.0
C1085 C 0.46237 0.15727 0.39396 0.0
C1086 C 0.47043 0.14642 0.37868 0.0
H1087 H 0.4978 0.08575 0.28158 0.0
H1088 H 0.47832 0.09746 0.30596 0.0
H1089 H 0.50899 0.14433 0.38954 0.0
H1090 H 0.47486 0.2017 0.40482 0.0
H1091 H 0.4881 0.1824 0.39611 0.0
C1092 C 0.8125 0.2754 0.4235 0.0
C1093 C 0.81708 0.26172 0.42561 0.0
C1094 C 0.82582 0.29334 0.41618 0.0
C1095 C 0.85891 0.33151 0.41684 0.0
H1096 H 0.88536 0.338 0.31335 0.0
C1097 C 0.90686 0.40233 0.35759 0.0
C1098 C 0.9026 0.4057 0.31738 0.0
C1099 C 0.90059 0.38467 0.37126 0.0
C1100 C 0.87817 0.33636 0.34242 0.0
H1101 H 0.83922 0.25613 0.42344 0.0
H1102 H 0.86257 0.28763 0.40981 0.0
H1103 H 0.86607 0.30741 0.34167 0.0
H1104 H 0.88986 0.39344 0.25853 0.0
H1105 H 0.87871 0.36223 0.28257 0.0
H1106 H 0.8705 0.36025 0.41734 0.0
C1107 C 0.84867 0.2844 0.41426 0.0
C1108 C 0.86728 0.31893 0.35878 0.0
C1109 C 0.83537 0.26646 0.42257 0.0
C1110 C 0.89342 0.39117 0.28956 0.0
C1111 C 0.88702 0.37334 0.3034 0.0
C1112 C 0.86996 0.34888 0.4009 0.0
C1113 C 0.84391 0.29789 0.40994 0.0
C1114 C 0.8573 0.31636 0.39573 0.0
C1115 C 0.8898 0.36996 0.34509 0.0
C1116 C 0.8795 0.35149 0.36321 0.0
H1117 H 0.79848 0.27206 0.42538 0.0
H1118 H 0.82179 0.30349 0.41284 0.0
H1119 H 0.85132 0.32987 0.44527 0.0
H1120 H 0.91406 0.41335 0.37952 0.0
H1121 H 0.90324 0.38247 0.40323 0.0
C1122 C 0.59615 0.49492 0.25969 0.0
C1123 C 0.58666 0.47897 0.28333 0.0
C1124 C 0.61503 0.50546 0.26279 0.0
C1125 C 0.65583 0.50582 0.3078 0.0
H1126 H 0.67364 0.55729 0.31981 0.0
C1127 C 0.72426 0.55359 0.38548 0.0
C1128 C 0.7361 0.56805 0.35976 0.0
C1129 C 0.70584 0.54346 0.37557 0.0
C1130 C 0.66881 0.54295 0.31646 0.0
H1131 H 0.58963 0.46068 0.32552 0.0
H1132 H 0.62213 0.47899 0.33152 0.0
H1133 H 0.64244 0.53725 0.2976 0.0
H1134 H 0.73789 0.58417 0.30559 0.0
H1135 H 0.70563 0.56687 0.28921 0.0
H1136 H 0.68208 0.51154 0.32822 0.0
C1137 C 0.61527 0.4835 0.31038 0.0
C1138 C 0.65102 0.53147 0.30324 0.0
C1139 C 0.59652 0.47298 0.30711 0.0
C1140 C 0.72902 0.57306 0.32592 0.0
C1141 C 0.71059 0.56318 0.31653 0.0
C1142 C 0.67349 0.51725 0.32166 0.0
C1143 C 0.62473 0.50023 0.28957 0.0
C1144 C 0.64422 0.5127 0.29912 0.0
C1145 C 0.69896 0.54791 0.34034 0.0
C1146 C 0.68009 0.53588 0.32647 0.0
H1147 H 0.58894 0.49988 0.24102 0.0
H1148 H 0.62193 0.51806 0.24549 0.0
H1149 H 0.65124 0.49154 0.3042 0.0
H1150 H 0.7294 0.54936 0.41152 0.0
H1151 H 0.69706 0.53182 0.39462 0.0
C1152 C 0.55571 0.83052 0.63233 0.0
C1153 C 0.54925 0.81192 0.63677 0.0
C1154 C 0.54459 0.83771 0.64255 0.0
C1155 C 0.50475 0.82569 0.71024 0.0
H1156 H 0.50869 0.8697 0.66504 0.0
C1157 C 0.45481 0.85146 0.74333 0.0
C1158 C 0.46215 0.87014 0.7498 0.0
C1159 C 0.46606 0.84441 0.73383 0.0
C1160 C 0.50765 0.85751 0.67825 0.0
H1161 H 0.52587 0.78599 0.65146 0.0
H1162 H 0.50603 0.79822 0.66625 0.0
H1163 H 0.52571 0.85685 0.63268 0.0
H1164 H 0.48705 0.89595 0.75389 0.0
H1165 H 0.50675 0.88359 0.73675 0.0
H1166 H 0.48621 0.82611 0.75491 0.0
C1167 C 0.51986 0.80748 0.65686 0.0
C1168 C 0.51736 0.85011 0.65967 0.0
C1169 C 0.53108 0.80039 0.64756 0.0
C1170 C 0.48104 0.88146 0.74952 0.0
C1171 C 0.49229 0.87445 0.73917 0.0
C1172 C 0.49486 0.83294 0.72835 0.0
C1173 C 0.52676 0.82633 0.65683 0.0
C1174 C 0.516 0.83404 0.67533 0.0
C1175 C 0.48482 0.85596 0.7299 0.0
C1176 C 0.49622 0.84891 0.71257 0.0
H1177 H 0.56982 0.83969 0.62492 0.0
H1178 H 0.55045 0.85228 0.64221 0.0
H1179 H 0.50373 0.81362 0.7241 0.0
H1180 H 0.44028 0.84246 0.74314 0.0
H1181 H 0.45995 0.8301 0.7268 0.0
C1182 C 0.20071 0.72386 0.58485 0.0
C1183 C 0.19264 0.73464 0.57992 0.0
C1184 C 0.19034 0.70575 0.59696 0.0
C1185 C 0.15126 0.67849 0.66212 0.0
H1186 H 0.1565 0.63821 0.62405 0.0
C1187 C 0.10804 0.60524 0.72508 0.0
C1188 C 0.11537 0.59373 0.72283 0.0
C1189 C 0.11802 0.62313 0.71086 0.0
C1190 C 0.15513 0.6494 0.63567 0.0
H1191 H 0.16718 0.73454 0.58034 0.0
H1192 H 0.14902 0.70282 0.60165 0.0
H1193 H 0.17142 0.66675 0.58586 0.0
H1194 H 0.13952 0.5924 0.70883 0.0
H1195 H 0.15732 0.62385 0.68642 0.0
H1196 H 0.13541 0.6614 0.7126 0.0
C1197 C 0.16339 0.70845 0.59632 0.0
C1198 C 0.16352 0.66568 0.61338 0.0
C1199 C 0.17374 0.72652 0.58351 0.0
C1200 C 0.13352 0.60098 0.7107 0.0
C1201 C 0.14359 0.61892 0.69715 0.0
C1202 C 0.14302 0.66227 0.68472 0.0
C1203 C 0.17174 0.69816 0.6049 0.0
C1204 C 0.16168 0.68039 0.62637 0.0
C1205 C 0.13562 0.62989 0.69473 0.0
C1206 C 0.1449 0.64751 0.6719 0.0
H1207 H 0.21526 0.72982 0.58247 0.0
H1208 H 0.19715 0.69815 0.6033 0.0
H1209 H 0.1499 0.68975 0.67334 0.0
H1210 H 0.09401 0.59996 0.73382 0.0
H1211 H 0.1114 0.63114 0.70956 0.0
C1212 C 0.38949 0.49823 0.72438 0.0
C1213 C 0.39204 0.51352 0.74669 0.0
C1214 C 0.37278 0.48663 0.70566 0.0
C1215 C 0.33454 0.49083 0.66525 0.0
H1216 H 0.31475 0.44062 0.63301 0.0
C1217 C 0.27418 0.46048 0.55816 0.0
C1218 C 0.25991 0.44376 0.57154 0.0
C1219 C 0.29182 0.46638 0.57177 0.0
C1220 C 0.32008 0.45464 0.64178 0.0
H1221 H 0.37879 0.5275 0.7715 0.0
H1222 H 0.34926 0.50652 0.74194 0.0
H1223 H 0.34036 0.45454 0.68125 0.0
H1224 H 0.25295 0.41929 0.60599 0.0
H1225 H 0.28347 0.42978 0.63134 0.0
H1226 H 0.31398 0.49094 0.62804 0.0
C1227 C 0.36031 0.50394 0.73674 0.0
C1228 C 0.33484 0.46266 0.66933 0.0
C1229 C 0.37712 0.51578 0.75443 0.0
C1230 C 0.26382 0.43215 0.59474 0.0
C1231 C 0.28138 0.43827 0.60951 0.0
C1232 C 0.31977 0.48283 0.63831 0.0
C1233 C 0.35828 0.49 0.70965 0.0
C1234 C 0.34216 0.48085 0.68171 0.0
C1235 C 0.29535 0.45598 0.60051 0.0
C1236 C 0.31226 0.46462 0.62609 0.0
H1237 H 0.4009 0.49637 0.71747 0.0
H1238 H 0.37177 0.47605 0.6852 0.0
H1239 H 0.34004 0.505 0.67286 0.0
H1240 H 0.27144 0.46969 0.54042 0.0
H1241 H 0.30238 0.47978 0.56263 0.0
C1242 C 0.15611 0.43743 0.57282 0.0
C1243 C 0.17369 0.44969 0.5871 0.0
C1244 C 0.14172 0.44048 0.58152 0.0
C1245 C 0.12593 0.45692 0.66261 0.0
H1246 H 0.10246 0.47374 0.58563 0.0
C1247 C 0.09254 0.49776 0.7155 0.0
C1248 C 0.07952 0.49825 0.6897 0.0
C1249 C 0.10011 0.48707 0.70443 0.0
C1250 C 0.10843 0.46857 0.60758 0.0
H1251 H 0.19015 0.47546 0.61845 0.0
H1252 H 0.16508 0.48053 0.63376 0.0
H1253 H 0.12343 0.46452 0.55887 0.0
H1254 H 0.0627 0.48664 0.63495 0.0
H1255 H 0.07507 0.4672 0.61695 0.0
H1256 H 0.11127 0.46109 0.7115 0.0
C1257 C 0.16246 0.46856 0.61631 0.0
C1258 C 0.12052 0.46339 0.59208 0.0
C1259 C 0.17678 0.46565 0.60732 0.0
C1260 C 0.07284 0.48654 0.6552 0.0
C1261 C 0.08011 0.4756 0.6446 0.0
C1262 C 0.11366 0.46183 0.67811 0.0
C1263 C 0.14478 0.45574 0.60472 0.0
C1264 C 0.12971 0.45804 0.61964 0.0
C1265 C 0.09455 0.47647 0.66771 0.0
C1266 C 0.10517 0.46828 0.65096 0.0
H1267 H 0.15328 0.42498 0.55734 0.0
H1268 H 0.12812 0.43051 0.57213 0.0
H1269 H 0.13293 0.45278 0.68433 0.0
H1270 H 0.09805 0.50684 0.74198 0.0
H1271 H 0.11126 0.48823 0.72297 0.0
C1272 C 0.47735 0.61843 0.77553 0.0
C1273 C 0.4805 0.60376 0.77492 0.0
C1274 C 0.49172 0.63614 0.77137 0.0
C1275 C 0.52661 0.67304 0.77531 0.0
H1276 H 0.55299 0.67893 0.67198 0.0
C1277 C 0.58046 0.74311 0.72025 0.0
C1278 C 0.5773 0.74777 0.68018 0.0
C1279 C 0.57186 0.7251 0.73315 0.0
C1280 C 0.54581 0.67744 0.70099 0.0
H1281 H 0.50118 0.5961 0.77198 0.0
H1282 H 0.52636 0.62717 0.76392 0.0
H1283 H 0.5318 0.64842 0.69807 0.0
H1284 H 0.56387 0.73705 0.62092 0.0
H1285 H 0.54878 0.70528 0.64359 0.0
H1286 H 0.54022 0.70195 0.77795 0.0
C1287 C 0.51277 0.6249 0.76797 0.0
C1288 C 0.53385 0.66005 0.71612 0.0
C1289 C 0.49841 0.60719 0.7731 0.0
C1290 C 0.56656 0.73387 0.65195 0.0
C1291 C 0.55793 0.71571 0.66495 0.0
C1292 C 0.53875 0.69038 0.7606 0.0
C1293 C 0.50945 0.63944 0.76567 0.0
C1294 C 0.52391 0.65772 0.75302 0.0
C1295 C 0.55995 0.71129 0.70627 0.0
C1296 C 0.54825 0.69277 0.72296 0.0
H1297 H 0.46366 0.61613 0.77658 0.0
H1298 H 0.4888 0.64711 0.76958 0.0
H1299 H 0.51906 0.67158 0.8037 0.0
H1300 H 0.58891 0.75349 0.74255 0.0
H1301 H 0.57393 0.72204 0.76487 0.0
C1302 C 0.28119 0.83748 0.57831 0.0
C1303 C 0.26411 0.83557 0.58561 0.0
C1304 C 0.29676 0.85252 0.59373 0.0
C1305 C 0.32829 0.88756 0.62961 0.0
H1306 H 0.32048 0.88031 0.74935 0.0
C1307 C 0.38823 0.91108 0.74004 0.0
C1308 C 0.38759 0.89523 0.75472 0.0
C1309 C 0.37248 0.91049 0.72538 0.0
C1310 C 0.32282 0.88291 0.71611 0.0
H1311 H 0.24987 0.84841 0.61154 0.0
H1312 H 0.27713 0.87453 0.63977 0.0
H1313 H 0.2945 0.86824 0.70204 0.0
H1314 H 0.36997 0.867 0.77019 0.0
H1315 H 0.34235 0.8662 0.74686 0.0
H1316 H 0.35663 0.90122 0.64354 0.0
C1317 C 0.2785 0.86461 0.62136 0.0
C1318 C 0.30799 0.87609 0.68903 0.0
C1319 C 0.26296 0.84977 0.60486 0.0
C1320 C 0.37074 0.87944 0.75952 0.0
C1321 C 0.35496 0.87899 0.746 0.0
C1322 C 0.34312 0.89471 0.65675 0.0
C1323 C 0.29539 0.86562 0.61769 0.0
C1324 C 0.31062 0.87757 0.64545 0.0
C1325 C 0.35587 0.89419 0.72643 0.0
C1326 C 0.34051 0.89166 0.70008 0.0
H1327 H 0.28234 0.82655 0.56414 0.0
H1328 H 0.30959 0.85288 0.59076 0.0
H1329 H 0.33065 0.88879 0.59616 0.0
H1330 H 0.40113 0.92333 0.73535 0.0
H1331 H 0.3735 0.92236 0.71035 0.0
loop_
_geom_bond_atom_site_label_1
_geom_bond_atom_site_label_2
_geom_bond_distance
_geom_bond_site_symmetry_2
_ccdc_geom_bond_type
Zn0 O3 2.031 1_556 S
Zn0 O5 2.049 . S
Zn0 O10 2.067 . S
Zn1 O2 1.962 . S
Zn1 O4 1.986 . S
Zn1 O6 1.996 . S
Zn1 O9 1.943 . S
O2 Zn1 1.962 . S
O2 C7 1.254 . S
O3 Zn0 2.031 1_554 S
O3 C7 1.269 . S
O4 Zn1 1.986 . S
O4 C11 1.262 . S
O5 Zn0 2.049 . S
O5 C13 1.260 1_556 S
O6 Zn1 1.996 . S
O6 C13 1.257 . S
C7 O2 1.254 . S
C7 O3 1.269 . S
C8 O9 1.249 1_556 S
C8 O10 1.270 . S
O9 Zn1 1.943 . S
O9 C8 1.249 1_554 S
O10 Zn0 2.067 . S
O10 C8 1.270 . S
C11 O4 1.262 . S
C11 O12 1.232 . S
O12 C11 1.232 . S
C13 O5 1.260 1_554 S
C13 O6 1.257 . S
Zn14 O17 2.031 1_556 S
Zn14 O19 2.049 . S
Zn14 O24 2.067 . S
Zn15 O16 1.962 . S
Zn15 O18 1.986 . S
Zn15 O20 1.996 . S
Zn15 O23 1.943 . S
O16 Zn15 1.962 . S
O16 C21 1.254 . S
O17 Zn14 2.031 1_554 S
O17 C21 1.269 . S
O18 Zn15 1.986 . S
O18 C25 1.262 . S
O19 Zn14 2.049 . S
O19 C27 1.260 1_556 S
O20 Zn15 1.996 . S
O20 C27 1.257 . S
C21 O16 1.254 . S
C21 O17 1.269 . S
C22 O23 1.249 1_556 S
C22 O24 1.270 . S
O23 Zn15 1.943 . S
O23 C22 1.249 1_554 S
O24 Zn14 2.067 . S
O24 C22 1.270 . S
C25 O18 1.262 . S
C25 O26 1.232 . S
O26 C25 1.232 . S
C27 O19 1.260 1_554 S
C27 O20 1.257 . S
Zn28 O31 2.031 1_556 S
Zn28 O33 2.049 . S
Zn28 O38 2.067 . S
Zn29 O30 1.962 . S
Zn29 O32 1.986 . S
Zn29 O34 1.996 . S
Zn29 O37 1.943 . S
O30 Zn29 1.962 . S
O30 C35 1.254 . S
O31 Zn28 2.031 1_554 S
O31 C35 1.269 . S
O32 Zn29 1.986 . S
O32 C39 1.262 . S
O33 Zn28 2.049 . S
O33 C41 1.260 1_556 S
O34 Zn29 1.996 . S
O34 C41 1.257 . S
C35 O30 1.254 . S
C35 O31 1.269 . S
C36 O37 1.249 1_556 S
C36 O38 1.270 . S
O37 Zn29 1.943 . S
O37 C36 1.249 1_554 S
O38 Zn28 2.067 . S
O38 C36 1.270 . S
C39 O32 1.262 . S
C39 O40 1.232 . S
O40 C39 1.232 . S
C41 O33 1.260 1_554 S
C41 O34 1.257 . S
Zn42 O45 2.031 1_554 S
Zn42 O47 2.049 . S
Zn42 O52 2.067 . S
Zn43 O44 1.962 . S
Zn43 O46 1.986 . S
Zn43 O48 1.996 . S
Zn43 O51 1.943 . S
O44 Zn43 1.962 . S
O44 C49 1.254 . S
O45 Zn42 2.031 1_556 S
O45 C49 1.269 . S
O46 Zn43 1.986 . S
O46 C53 1.262 . S
O47 Zn42 2.049 . S
O47 C55 1.260 1_554 S
O48 Zn43 1.996 . S
O48 C55 1.257 . S
C49 O44 1.254 . S
C49 O45 1.269 . S
C50 O51 1.249 1_554 S
C50 O52 1.270 . S
O51 Zn43 1.943 . S
O51 C50 1.249 1_556 S
O52 Zn42 2.067 . S
O52 C50 1.270 . S
C53 O46 1.262 . S
C53 O54 1.232 . S
O54 C53 1.232 . S
C55 O47 1.260 1_556 S
C55 O48 1.257 . S
Zn56 O59 2.031 1_554 S
Zn56 O61 2.049 . S
Zn56 O66 2.067 . S
Zn57 O58 1.962 . S
Zn57 O60 1.986 . S
Zn57 O62 1.996 . S
Zn57 O65 1.943 . S
O58 Zn57 1.962 . S
O58 C63 1.254 . S
O59 Zn56 2.031 1_556 S
O59 C63 1.269 . S
O60 Zn57 1.986 . S
O60 C67 1.262 . S
O61 Zn56 2.049 . S
O61 C69 1.260 1_554 S
O62 Zn57 1.996 . S
O62 C69 1.257 . S
C63 O58 1.254 . S
C63 O59 1.269 . S
C64 O65 1.249 1_554 S
C64 O66 1.270 . S
O65 Zn57 1.943 . S
O65 C64 1.249 1_556 S
O66 Zn56 2.067 . S
O66 C64 1.270 . S
C67 O60 1.262 . S
C67 O68 1.232 . S
O68 C67 1.232 . S
C69 O61 1.260 1_556 S
C69 O62 1.257 . S
Zn70 O73 2.031 1_554 S
Zn70 O75 2.049 . S
Zn70 O80 2.067 . S
Zn71 O72 1.962 . S
Zn71 O74 1.986 . S
Zn71 O76 1.996 . S
Zn71 O79 1.943 . S
O72 Zn71 1.962 . S
O72 C77 1.254 . S
O73 Zn70 2.031 1_556 S
O73 C77 1.269 . S
O74 Zn71 1.986 . S
O74 C81 1.262 . S
O75 Zn70 2.049 . S
O75 C83 1.260 1_554 S
O76 Zn71 1.996 . S
O76 C83 1.257 . S
C77 O72 1.254 . S
C77 O73 1.269 . S
C78 O79 1.249 1_554 S
C78 O80 1.270 . S
O79 Zn71 1.943 . S
O79 C78 1.249 1_556 S
O80 Zn70 2.067 . S
O80 C78 1.270 . S
C81 O74 1.262 . S
C81 O82 1.232 . S
O82 C81 1.232 . S
C83 O75 1.260 1_556 S
C83 O76 1.257 . S
Zn84 O87 2.031 . S
Zn84 O89 2.049 . S
Zn84 O94 2.067 . S
Zn85 O86 1.962 . S
Zn85 O88 1.986 . S
Zn85 O90 1.996 . S
Zn85 O93 1.943 . S
O86 Zn85 1.962 . S
O86 C91 1.254 . S
O87 Zn84 2.031 . S
O87 C91 1.269 . S
O88 Zn85 1.986 . S
O88 C95 1.262 . S
O89 Zn84 2.049 . S
O89 C97 1.260 . S
O90 Zn85 1.996 . S
O90 C97 1.257 . S
C91 O86 1.254 . S
C91 O87 1.269 . S
C92 O93 1.249 . S
C92 O94 1.270 . S
O93 Zn85 1.943 . S
O93 C92 1.249 . S
O94 Zn84 2.067 . S
O94 C92 1.270 . S
C95 O88 1.262 . S
C95 O96 1.232 . S
O96 C95 1.232 . S
C97 O89 1.260 . S
C97 O90 1.257 . S
Zn98 O101 2.031 . S
Zn98 O103 2.049 . S
Zn98 O108 2.067 . S
Zn99 O100 1.962 . S
Zn99 O102 1.986 . S
Zn99 O104 1.996 . S
Zn99 O107 1.943 . S
O100 Zn99 1.962 . S
O100 C105 1.254 . S
O101 Zn98 2.031 . S
O101 C105 1.269 . S
O102 Zn99 1.986 . S
O102 C109 1.262 . S
O103 Zn98 2.049 . S
O103 C111 1.260 . S
O104 Zn99 1.996 . S
O104 C111 1.257 . S
C105 O100 1.254 . S
C105 O101 1.269 . S
C106 O107 1.249 . S
C106 O108 1.270 . S
O107 Zn99 1.943 . S
O107 C106 1.249 . S
O108 Zn98 2.067 . S
O108 C106 1.270 . S
C109 O102 1.262 . S
C109 O110 1.232 . S
O110 C109 1.232 . S
C111 O103 1.260 . S
C111 O104 1.257 . S
Zn112 O115 2.031 . S
Zn112 O117 2.049 . S
Zn112 O122 2.067 . S
Zn113 O114 1.962 . S
Zn113 O116 1.986 . S
Zn113 O118 1.996 . S
Zn113 O121 1.943 . S
O114 Zn113 1.962 . S
O114 C119 1.254 . S
O115 Zn112 2.031 . S
O115 C119 1.269 . S
O116 Zn113 1.986 . S
O116 C123 1.262 . S
O117 Zn112 2.049 . S
O117 C125 1.260 . S
O118 Zn113 1.996 . S
O118 C125 1.257 . S
C119 O114 1.254 . S
C119 O115 1.269 . S
C120 O121 1.249 . S
C120 O122 1.270 . S
O121 Zn113 1.943 . S
O121 C120 1.249 . S
O122 Zn112 2.067 . S
O122 C120 1.270 . S
C123 O116 1.262 . S
C123 O124 1.232 . S
O124 C123 1.232 . S
C125 O117 1.260 . S
C125 O118 1.257 . S
Zn126 O129 2.031 . S
Zn126 O131 2.049 . S
Zn126 O136 2.067 . S
Zn127 O128 1.962 . S
Zn127 O130 1.986 . S
Zn127 O132 1.996 . S
Zn127 O135 1.943 . S
O128 Zn127 1.962 . S
O128 C133 1.254 . S
O129 Zn126 2.031 . S
O129 C133 1.269 . S
O130 Zn127 1.986 . S
O130 C137 1.262 . S
O131 Zn126 2.049 . S
O131 C139 1.260 . S
O132 Zn127 1.996 . S
O132 C139 1.257 . S
C133 O128 1.254 . S
C133 O129 1.269 . S
C134 O135 1.249 . S
C134 O136 1.270 . S
O135 Zn127 1.943 . S
O135 C134 1.249 . S
O136 Zn126 2.067 . S
O136 C134 1.270 . S
C137 O130 1.262 . S
C137 O138 1.232 . S
O138 C137 1.232 . S
C139 O131 1.260 . S
C139 O132 1.257 . S
Zn140 O143 2.031 . S
Zn140 O145 2.049 . S
Zn140 O150 2.067 . S
Zn141 O142 1.962 . S
Zn141 O144 1.986 . S
Zn141 O146 1.996 . S
Zn141 O149 1.943 . S
O142 Zn141 1.962 . S
O142 C147 1.254 . S
O143 Zn140 2.031 . S
O143 C147 1.269 . S
O144 Zn141 1.986 . S
O144 C151 1.262 . S
O145 Zn140 2.049 . S
O145 C153 1.260 . S
O146 Zn141 1.996 . S
O146 C153 1.257 . S
C147 O142 1.254 . S
C147 O143 1.269 . S
C148 O149 1.249 . S
C148 O150 1.270 . S
O149 Zn141 1.943 . S
O149 C148 1.249 . S
O150 Zn140 2.067 . S
O150 C148 1.270 . S
C151 O144 1.262 . S
C151 O152 1.232 . S
O152 C151 1.232 . S
C153 O145 1.260 . S
C153 O146 1.257 . S
Zn154 O157 2.031 . S
Zn154 O159 2.049 . S
Zn154 O164 2.067 . S
Zn155 O156 1.962 . S
Zn155 O158 1.986 . S
Zn155 O160 1.996 . S
Zn155 O163 1.943 . S
O156 Zn155 1.962 . S
O156 C161 1.254 . S
O157 Zn154 2.031 . S
O157 C161 1.269 . S
O158 Zn155 1.986 . S
O158 C165 1.262 . S
O159 Zn154 2.049 . S
O159 C167 1.260 . S
O160 Zn155 1.996 . S
O160 C167 1.257 . S
C161 O156 1.254 . S
C161 O157 1.269 . S
C162 O163 1.249 . S
C162 O164 1.270 . S
O163 Zn155 1.943 . S
O163 C162 1.249 . S
O164 Zn154 2.067 . S
O164 C162 1.270 . S
C165 O158 1.262 . S
C165 O166 1.232 . S
O166 C165 1.232 . S
C167 O159 1.260 . S
C167 O160 1.257 . S
Zn168 O171 2.031 . S
Zn168 O173 2.049 . S
Zn168 O178 2.067 . S
Zn169 O170 1.962 . S
Zn169 O172 1.986 . S
Zn169 O174 1.996 . S
Zn169 O177 1.943 . S
O170 Zn169 1.962 . S
O170 C175 1.254 . S
O171 Zn168 2.031 . S
O171 C175 1.269 . S
O172 Zn169 1.986 . S
O172 C179 1.262 . S
O173 Zn168 2.049 . S
O173 C181 1.260 . S
O174 Zn169 1.996 . S
O174 C181 1.257 . S
C175 O170 1.254 . S
C175 O171 1.269 . S
C176 O177 1.249 . S
C176 O178 1.270 . S
O177 Zn169 1.943 . S
O177 C176 1.249 . S
O178 Zn168 2.067 . S
O178 C176 1.270 . S
C179 O172 1.262 . S
C179 O180 1.232 . S
O180 C179 1.232 . S
C181 O173 1.260 . S
C181 O174 1.257 . S
Zn182 O185 2.031 . S
Zn182 O187 2.049 . S
Zn182 O192 2.067 . S
Zn183 O184 1.962 . S
Zn183 O186 1.986 . S
Zn183 O188 1.996 . S
Zn183 O191 1.943 . S
O184 Zn183 1.962 . S
O184 C189 1.254 . S
O185 Zn182 2.031 . S
O185 C189 1.269 . S
O186 Zn183 1.986 . S
O186 C193 1.262 . S
O187 Zn182 2.049 . S
O187 C195 1.260 . S
O188 Zn183 1.996 . S
O188 C195 1.257 . S
C189 O184 1.254 . S
C189 O185 1.269 . S
C190 O191 1.249 . S
C190 O192 1.270 . S
O191 Zn183 1.943 . S
O191 C190 1.249 . S
O192 Zn182 2.067 . S
O192 C190 1.270 . S
C193 O186 1.262 . S
C193 O194 1.232 . S
O194 C193 1.232 . S
C195 O187 1.260 . S
C195 O188 1.257 . S
Zn196 O199 2.031 . S
Zn196 O201 2.049 . S
Zn196 O206 2.067 . S
Zn197 O198 1.962 . S
Zn197 O200 1.986 . S
Zn197 O202 1.996 . S
Zn197 O205 1.943 . S
O198 Zn197 1.962 . S
O198 C203 1.254 . S
O199 Zn196 2.031 . S
O199 C203 1.269 . S
O200 Zn197 1.986 . S
O200 C207 1.262 . S
O201 Zn196 2.049 . S
O201 C209 1.260 . S
O202 Zn197 1.996 . S
O202 C209 1.257 . S
C203 O198 1.254 . S
C203 O199 1.269 . S
C204 O205 1.249 . S
C204 O206 1.270 . S
O205 Zn197 1.943 . S
O205 C204 1.249 . S
O206 Zn196 2.067 . S
O206 C204 1.270 . S
C207 O200 1.262 . S
C207 O208 1.232 . S
O208 C207 1.232 . S
C209 O201 1.260 . S
C209 O202 1.257 . S
Zn210 O213 2.031 . S
Zn210 O215 2.049 . S
Zn210 O220 2.067 . S
Zn211 O212 1.962 . S
Zn211 O214 1.986 . S
Zn211 O216 1.996 . S
Zn211 O219 1.943 . S
O212 Zn211 1.962 . S
O212 C217 1.254 . S
O213 Zn210 2.031 . S
O213 C217 1.269 . S
O214 Zn211 1.986 . S
O214 C221 1.262 . S
O215 Zn210 2.049 . S
O215 C223 1.260 . S
O216 Zn211 1.996 . S
O216 C223 1.257 . S
C217 O212 1.254 . S
C217 O213 1.269 . S
C218 O219 1.249 . S
C218 O220 1.270 . S
O219 Zn211 1.943 . S
O219 C218 1.249 . S
O220 Zn210 2.067 . S
O220 C218 1.270 . S
C221 O214 1.262 . S
C221 O222 1.232 . S
O222 C221 1.232 . S
C223 O215 1.260 . S
C223 O216 1.257 . S
Zn224 O227 2.031 . S
Zn224 O229 2.049 . S
Zn224 O234 2.067 . S
Zn225 O226 1.962 . S
Zn225 O228 1.986 . S
Zn225 O230 1.996 . S
Zn225 O233 1.943 . S
O226 Zn225 1.962 . S
O226 C231 1.254 . S
O227 Zn224 2.031 . S
O227 C231 1.269 . S
O228 Zn225 1.986 . S
O228 C235 1.262 . S
O229 Zn224 2.049 . S
O229 C237 1.260 . S
O230 Zn225 1.996 . S
O230 C237 1.257 . S
C231 O226 1.254 . S
C231 O227 1.269 . S
C232 O233 1.249 . S
C232 O234 1.270 . S
O233 Zn225 1.943 . S
O233 C232 1.249 . S
O234 Zn224 2.067 . S
O234 C232 1.270 . S
C235 O228 1.262 . S
C235 O236 1.232 . S
O236 C235 1.232 . S
C237 O229 1.260 . S
C237 O230 1.257 . S
Zn238 O241 2.031 . S
Zn238 O243 2.049 . S
Zn238 O248 2.067 . S
Zn239 O240 1.962 . S
Zn239 O242 1.986 . S
Zn239 O244 1.996 . S
Zn239 O247 1.943 . S
O240 Zn239 1.962 . S
O240 C245 1.254 . S
O241 Zn238 2.031 . S
O241 C245 1.269 . S
O242 Zn239 1.986 . S
O242 C249 1.262 . S
O243 Zn238 2.049 . S
O243 C251 1.260 . S
O244 Zn239 1.996 . S
O244 C251 1.257 . S
C245 O240 1.254 . S
C245 O241 1.269 . S
C246 O247 1.249 . S
C246 O248 1.270 . S
O247 Zn239 1.943 . S
O247 C246 1.249 . S
O248 Zn238 2.067 . S
O248 C246 1.270 . S
C249 O242 1.262 . S
C249 O250 1.232 . S
O250 C249 1.232 . S
C251 O243 1.260 . S
C251 O244 1.257 . S
C252 C253 1.349 . S
C252 C254 1.327 . S
C252 H277 0.950 . S
C253 C252 1.349 . S
C253 C269 1.349 . S
C254 C252 1.327 . S
C254 C273 1.429 . S
C254 H278 0.950 . S
C255 C272 1.574 . S
C255 C274 1.368 . S
C255 H279 0.949 . S
H256 C260 0.949 . S
C257 C258 1.349 . S
C257 C259 1.327 . S
C257 H280 0.950 . S
C258 C257 1.349 . S
C258 C270 1.349 . S
C259 C257 1.327 . S
C259 C275 1.429 . S
C259 H281 0.950 . S
C260 H256 0.949 . S
C260 C268 1.574 . S
C260 C276 1.368 . S
H261 C269 0.950 . S
H262 C267 0.950 . S
H263 C268 0.949 . S
H264 C270 0.950 . S
H265 C271 0.950 . S
H266 C272 0.949 . S
C267 H262 0.950 . S
C267 C269 1.327 . S
C267 C273 1.429 . S
C268 C260 1.574 . S
C268 H263 0.949 . S
C268 C274 1.368 . S
C269 C253 1.349 . S
C269 H261 0.950 . S
C269 C267 1.327 . S
C270 C258 1.349 . S
C270 H264 0.950 . S
C270 C271 1.327 . S
C271 H265 0.950 . S
C271 C270 1.327 . S
C271 C275 1.429 . S
C272 C255 1.574 . S
C272 H266 0.949 . S
C272 C276 1.368 . S
C273 C254 1.429 . S
C273 C267 1.429 . S
C273 C274 1.523 . S
C274 C255 1.368 . S
C274 C268 1.368 . S
C274 C273 1.523 . S
C275 C259 1.429 . S
C275 C271 1.429 . S
C275 C276 1.523 . S
C276 C260 1.368 . S
C276 C272 1.368 . S
C276 C275 1.523 . S
H277 C252 0.950 . S
H278 C254 0.950 . S
H279 C255 0.949 . S
H280 C257 0.950 . S
H281 C259 0.950 . S
C282 C283 1.349 . S
C282 C284 1.327 . S
C282 H307 0.950 . S
C283 C282 1.349 . S
C283 C299 1.349 . S
C284 C282 1.327 . S
C284 C303 1.429 . S
C284 H308 0.950 . S
C285 C302 1.574 . S
C285 C304 1.368 . S
C285 H309 0.949 . S
H286 C290 0.949 . S
C287 C288 1.349 . S
C287 C289 1.327 . S
C287 H310 0.950 . S
C288 C287 1.349 . S
C288 C300 1.349 . S
C289 C287 1.327 . S
C289 C305 1.429 . S
C289 H311 0.950 . S
C290 H286 0.949 . S
C290 C298 1.574 . S
C290 C306 1.368 . S
H291 C299 0.950 . S
H292 C297 0.950 . S
H293 C298 0.949 . S
H294 C300 0.950 . S
H295 C301 0.950 . S
H296 C302 0.949 . S
C297 H292 0.950 . S
C297 C299 1.327 . S
C297 C303 1.429 . S
C298 C290 1.574 . S
C298 H293 0.949 . S
C298 C304 1.368 . S
C299 C283 1.349 . S
C299 H291 0.950 . S
C299 C297 1.327 . S
C300 C288 1.349 . S
C300 H294 0.950 . S
C300 C301 1.327 . S
C301 H295 0.950 . S
C301 C300 1.327 . S
C301 C305 1.429 . S
C302 C285 1.574 . S
C302 H296 0.949 . S
C302 C306 1.368 . S
C303 C284 1.429 . S
C303 C297 1.429 . S
C303 C304 1.523 . S
C304 C285 1.368 . S
C304 C298 1.368 . S
C304 C303 1.523 . S
C305 C289 1.429 . S
C305 C301 1.429 . S
C305 C306 1.523 . S
C306 C290 1.368 . S
C306 C302 1.368 . S
C306 C305 1.523 . S
H307 C282 0.950 . S
H308 C284 0.950 . S
H309 C285 0.949 . S
H310 C287 0.950 . S
H311 C289 0.950 . S
C312 C313 1.349 . S
C312 C314 1.327 . S
C312 H337 0.950 . S
C313 C312 1.349 . S
C313 C329 1.349 . S
C314 C312 1.327 . S
C314 C333 1.429 . S
C314 H338 0.950 . S
C315 C332 1.574 . S
C315 C334 1.368 . S
C315 H339 0.949 . S
H316 C320 0.949 . S
C317 C318 1.349 . S
C317 C319 1.327 . S
C317 H340 0.950 . S
C318 C317 1.349 . S
C318 C330 1.349 . S
C319 C317 1.327 . S
C319 C335 1.429 . S
C319 H341 0.950 . S
C320 H316 0.949 . S
C320 C328 1.574 . S
C320 C336 1.368 . S
H321 C329 0.950 . S
H322 C327 0.950 . S
H323 C328 0.949 . S
H324 C330 0.950 . S
H325 C331 0.950 . S
H326 C332 0.949 . S
C327 H322 0.950 . S
C327 C329 1.327 . S
C327 C333 1.429 . S
C328 C320 1.574 . S
C328 H323 0.949 . S
C328 C334 1.368 . S
C329 C313 1.349 . S
C329 H321 0.950 . S
C329 C327 1.327 . S
C330 C318 1.349 . S
C330 H324 0.950 . S
C330 C331 1.327 . S
C331 H325 0.950 . S
C331 C330 1.327 . S
C331 C335 1.429 . S
C332 C315 1.574 . S
C332 H326 0.949 . S
C332 C336 1.368 . S
C333 C314 1.429 . S
C333 C327 1.429 . S
C333 C334 1.523 . S
C334 C315 1.368 . S
C334 C328 1.368 . S
C334 C333 1.523 . S
C335 C319 1.429 . S
C335 C331 1.429 . S
C335 C336 1.523 . S
C336 C320 1.368 . S
C336 C332 1.368 . S
C336 C335 1.523 . S
H337 C312 0.950 . S
H338 C314 0.950 . S
H339 C315 0.949 . S
H340 C317 0.950 . S
H341 C319 0.950 . S
C342 C343 1.349 . S
C342 C344 1.327 . S
C342 H367 0.950 . S
C343 C342 1.349 . S
C343 C359 1.349 . S
C344 C342 1.327 . S
C344 C363 1.429 . S
C344 H368 0.950 . S
C345 C362 1.574 . S
C345 C364 1.368 . S
C345 H369 0.949 . S
H346 C350 0.949 . S
C347 C348 1.349 . S
C347 C349 1.327 . S
C347 H370 0.950 . S
C348 C347 1.349 . S
C348 C360 1.349 . S
C349 C347 1.327 . S
C349 C365 1.429 . S
C349 H371 0.950 . S
C350 H346 0.949 . S
C350 C358 1.574 . S
C350 C366 1.368 . S
H351 C359 0.950 . S
H352 C357 0.950 . S
H353 C358 0.949 . S
H354 C360 0.950 . S
H355 C361 0.950 . S
H356 C362 0.949 . S
C357 H352 0.950 . S
C357 C359 1.327 . S
C357 C363 1.429 . S
C358 C350 1.574 . S
C358 H353 0.949 . S
C358 C364 1.368 . S
C359 C343 1.349 . S
C359 H351 0.950 . S
C359 C357 1.327 . S
C360 C348 1.349 . S
C360 H354 0.950 . S
C360 C361 1.327 . S
C361 H355 0.950 . S
C361 C360 1.327 . S
C361 C365 1.429 . S
C362 C345 1.574 . S
C362 H356 0.949 . S
C362 C366 1.368 . S
C363 C344 1.429 . S
C363 C357 1.429 . S
C363 C364 1.523 . S
C364 C345 1.368 . S
C364 C358 1.368 . S
C364 C363 1.523 . S
C365 C349 1.429 . S
C365 C361 1.429 . S
C365 C366 1.523 . S
C366 C350 1.368 . S
C366 C362 1.368 . S
C366 C365 1.523 . S
H367 C342 0.950 . S
H368 C344 0.950 . S
H369 C345 0.949 . S
H370 C347 0.950 . S
H371 C349 0.950 . S
C372 C373 1.349 . S
C372 C374 1.327 . S
C372 H397 0.950 . S
C373 C372 1.349 . S
C373 C389 1.349 . S
C374 C372 1.327 . S
C374 C393 1.429 . S
C374 H398 0.950 . S
C375 C392 1.574 . S
C375 C394 1.368 . S
C375 H399 0.949 . S
H376 C380 0.949 . S
C377 C378 1.349 . S
C377 C379 1.327 . S
C377 H400 0.950 . S
C378 C377 1.349 . S
C378 C390 1.349 . S
C379 C377 1.327 . S
C379 C395 1.429 . S
C379 H401 0.950 . S
C380 H376 0.949 . S
C380 C388 1.574 . S
C380 C396 1.368 . S
H381 C389 0.950 . S
H382 C387 0.950 . S
H383 C388 0.949 . S
H384 C390 0.950 . S
H385 C391 0.950 . S
H386 C392 0.949 . S
C387 H382 0.950 . S
C387 C389 1.327 . S
C387 C393 1.429 . S
C388 C380 1.574 . S
C388 H383 0.949 . S
C388 C394 1.368 . S
C389 C373 1.349 . S
C389 H381 0.950 . S
C389 C387 1.327 . S
C390 C378 1.349 . S
C390 H384 0.950 . S
C390 C391 1.327 . S
C391 H385 0.950 . S
C391 C390 1.327 . S
C391 C395 1.429 . S
C392 C375 1.574 . S
C392 H386 0.949 . S
C392 C396 1.368 . S
C393 C374 1.429 . S
C393 C387 1.429 . S
C393 C394 1.523 . S
C394 C375 1.368 . S
C394 C388 1.368 . S
C394 C393 1.523 . S
C395 C379 1.429 . S
C395 C391 1.429 . S
C395 C396 1.523 . S
C396 C380 1.368 . S
C396 C392 1.368 . S
C396 C395 1.523 . S
H397 C372 0.950 . S
H398 C374 0.950 . S
H399 C375 0.949 . S
H400 C377 0.950 . S
H401 C379 0.950 . S
C402 C403 1.349 . S
C402 C404 1.327 . S
C402 H427 0.950 . S
C403 C402 1.349 . S
C403 C419 1.349 . S
C404 C402 1.327 . S
C404 C423 1.429 . S
C404 H428 0.950 . S
C405 C422 1.574 . S
C405 C424 1.368 . S
C405 H429 0.949 . S
H406 C410 0.949 . S
C407 C408 1.349 . S
C407 C409 1.327 . S
C407 H430 0.950 . S
C408 C407 1.349 . S
C408 C420 1.349 . S
C409 C407 1.327 . S
C409 C425 1.429 . S
C409 H431 0.950 . S
C410 H406 0.949 . S
C410 C418 1.574 . S
C410 C426 1.368 . S
H411 C419 0.950 . S
H412 C417 0.950 . S
H413 C418 0.949 . S
H414 C420 0.950 . S
H415 C421 0.950 . S
H416 C422 0.949 . S
C417 H412 0.950 . S
C417 C419 1.327 . S
C417 C423 1.429 . S
C418 C410 1.574 . S
C418 H413 0.949 . S
C418 C424 1.368 . S
C419 C403 1.349 . S
C419 H411 0.950 . S
C419 C417 1.327 . S
C420 C408 1.349 . S
C420 H414 0.950 . S
C420 C421 1.327 . S
C421 H415 0.950 . S
C421 C420 1.327 . S
C421 C425 1.429 . S
C422 C405 1.574 . S
C422 H416 0.949 . S
C422 C426 1.368 . S
C423 C404 1.429 . S
C423 C417 1.429 . S
C423 C424 1.523 . S
C424 C405 1.368 . S
C424 C418 1.368 . S
C424 C423 1.523 . S
C425 C409 1.429 . S
C425 C421 1.429 . S
C425 C426 1.523 . S
C426 C410 1.368 . S
C426 C422 1.368 . S
C426 C425 1.523 . S
H427 C402 0.950 . S
H428 C404 0.950 . S
H429 C405 0.949 . S
H430 C407 0.950 . S
H431 C409 0.950 . S
C432 C433 1.349 . S
C432 C434 1.327 . S
C432 H457 0.950 . S
C433 C432 1.349 . S
C433 C449 1.349 . S
C434 C432 1.327 . S
C434 C453 1.429 . S
C434 H458 0.950 . S
C435 C452 1.567 1_554 S
C435 C454 1.368 1_455 S
C435 H459 0.949 . S
H436 C440 0.949 . S
C437 C438 1.349 . S
C437 C439 1.327 . S
C437 H460 0.950 . S
C438 C437 1.349 . S
C438 C450 1.349 . S
C439 C437 1.327 . S
C439 C455 1.429 . S
C439 H461 0.950 . S
C440 H436 0.949 . S
C440 C448 1.567 1_556 S
C440 C456 1.368 1_655 S
H441 C449 0.950 . S
H442 C447 0.965 . S
H443 C448 0.949 . S
H444 C450 0.950 . S
H445 C451 0.966 . S
H446 C452 0.949 . S
C447 H442 0.965 . S
C447 C449 1.327 . S
C447 C453 1.429 . S
C448 C440 1.567 1_554 S
C448 H443 0.949 . S
C448 C454 1.375 . S
C449 C433 1.349 . S
C449 H441 0.950 . S
C449 C447 1.327 . S
C450 C438 1.349 . S
C450 H444 0.950 . S
C450 C451 1.327 . S
C451 H445 0.966 . S
C451 C450 1.327 . S
C451 C455 1.429 . S
C452 C435 1.567 1_556 S
C452 H446 0.949 . S
C452 C456 1.375 . S
C453 C434 1.429 . S
C453 C447 1.429 . S
C453 C454 1.523 . S
C454 C435 1.368 1_655 S
C454 C448 1.375 . S
C454 C453 1.523 . S
C455 C439 1.429 . S
C455 C451 1.429 . S
C455 C456 1.523 . S
C456 C440 1.368 1_455 S
C456 C452 1.375 . S
C456 C455 1.523 . S
H457 C432 0.950 . S
H458 C434 0.950 . S
H459 C435 0.949 . S
H460 C437 0.950 . S
H461 C439 0.950 . S
C462 C463 1.349 . S
C462 C464 1.327 . S
C462 H487 0.950 . S
C463 C462 1.349 . S
C463 C479 1.349 . S
C464 C462 1.327 . S
C464 C483 1.429 . S
C464 H488 0.950 . S
C465 C482 1.574 1_554 S
C465 C484 1.368 . S
C465 H489 0.949 . S
H466 C470 0.949 . S
C467 C468 1.349 . S
C467 C469 1.327 . S
C467 H490 0.950 . S
C468 C467 1.349 . S
C468 C480 1.349 . S
C469 C467 1.327 . S
C469 C485 1.429 . S
C469 H491 0.950 . S
C470 H466 0.949 . S
C470 C478 1.574 1_556 S
C470 C486 1.368 . S
H471 C479 0.950 . S
H472 C477 0.950 . S
H473 C478 0.949 . S
H474 C480 0.950 . S
H475 C481 0.950 . S
H476 C482 0.949 . S
C477 H472 0.950 . S
C477 C479 1.327 . S
C477 C483 1.429 . S
C478 C470 1.574 1_554 S
C478 H473 0.949 . S
C478 C484 1.368 . S
C479 C463 1.349 . S
C479 H471 0.950 . S
C479 C477 1.327 . S
C480 C468 1.349 . S
C480 H474 0.950 . S
C480 C481 1.327 . S
C481 H475 0.950 . S
C481 C480 1.327 . S
C481 C485 1.429 . S
C482 C465 1.574 1_556 S
C482 H476 0.949 . S
C482 C486 1.368 . S
C483 C464 1.429 . S
C483 C477 1.429 . S
C483 C484 1.523 . S
C484 C465 1.368 . S
C484 C478 1.368 . S
C484 C483 1.523 . S
C485 C469 1.429 . S
C485 C481 1.429 . S
C485 C486 1.523 . S
C486 C470 1.368 . S
C486 C482 1.368 . S
C486 C485 1.523 . S
H487 C462 0.950 . S
H488 C464 0.950 . S
H489 C465 0.949 . S
H490 C467 0.950 . S
H491 C469 0.950 . S
C492 C493 1.349 . S
C492 C494 1.327 . S
C492 H517 0.950 . S
C493 C492 1.349 . S
C493 C509 1.349 . S
C494 C492 1.327 . S
C494 C513 1.429 . S
C494 H518 0.950 . S
C495 C512 1.574 1_554 S
C495 C514 1.368 1_565 S
C495 H519 0.949 . S
H496 C500 0.949 . S
C497 C498 1.349 . S
C497 C499 1.327 . S
C497 H520 0.950 . S
C498 C497 1.349 . S
C498 C510 1.349 . S
C499 C497 1.327 . S
C499 C515 1.429 . S
C499 H521 0.950 . S
C500 H496 0.949 . S
C500 C508 1.574 1_556 S
C500 C516 1.368 1_545 S
H501 C509 0.950 . S
H502 C507 0.950 . S
H503 C508 0.949 . S
H504 C510 0.950 . S
H505 C511 0.950 . S
H506 C512 0.949 . S
C507 H502 0.950 . S
C507 C509 1.327 . S
C507 C513 1.429 . S
C508 C500 1.574 1_554 S
C508 H503 0.949 . S
C508 C514 1.368 . S
C509 C493 1.349 . S
C509 H501 0.950 . S
C509 C507 1.327 . S
C510 C498 1.349 . S
C510 H504 0.950 . S
C510 C511 1.327 . S
C511 H505 0.950 . S
C511 C510 1.327 . S
C511 C515 1.429 . S
C512 C495 1.574 1_556 S
C512 H506 0.949 . S
C512 C516 1.368 . S
C513 C494 1.429 . S
C513 C507 1.429 . S
C513 C514 1.523 . S
C514 C495 1.368 1_545 S
C514 C508 1.368 . S
C514 C513 1.523 . S
C515 C499 1.429 . S
C515 C511 1.429 . S
C515 C516 1.523 . S
C516 C500 1.368 1_565 S
C516 C512 1.368 . S
C516 C515 1.523 . S
H517 C492 0.950 . S
H518 C494 0.950 . S
H519 C495 0.949 . S
H520 C497 0.950 . S
H521 C499 0.950 . S
C522 C523 1.349 . S
C522 C524 1.327 . S
C522 H547 0.950 . S
C523 C522 1.349 . S
C523 C539 1.349 . S
C524 C522 1.327 . S
C524 C543 1.429 . S
C524 H548 0.950 . S
C525 C542 1.574 . S
C525 C544 1.368 . S
C525 H549 0.949 . S
H526 C530 0.949 . S
C527 C528 1.349 . S
C527 C529 1.327 . S
C527 H550 0.950 . S
C528 C527 1.349 . S
C528 C540 1.349 . S
C529 C527 1.327 . S
C529 C545 1.429 . S
C529 H551 0.950 . S
C530 H526 0.949 . S
C530 C538 1.574 . S
C530 C546 1.368 . S
H531 C539 0.950 . S
H532 C537 0.950 . S
H533 C538 0.949 . S
H534 C540 0.950 . S
H535 C541 0.950 . S
H536 C542 0.949 . S
C537 H532 0.950 . S
C537 C539 1.327 . S
C537 C543 1.429 . S
C538 C530 1.574 . S
C538 H533 0.949 . S
C538 C544 1.368 . S
C539 C523 1.349 . S
C539 H531 0.950 . S
C539 C537 1.327 . S
C540 C528 1.349 . S
C540 H534 0.950 . S
C540 C541 1.327 . S
C541 H535 0.950 . S
C541 C540 1.327 . S
C541 C545 1.429 . S
C542 C525 1.574 . S
C542 H536 0.949 . S
C542 C546 1.368 . S
C543 C524 1.429 . S
C543 C537 1.429 . S
C543 C544 1.523 . S
C544 C525 1.368 . S
C544 C538 1.368 . S
C544 C543 1.523 . S
C545 C529 1.429 . S
C545 C541 1.429 . S
C545 C546 1.523 . S
C546 C530 1.368 . S
C546 C542 1.368 . S
C546 C545 1.523 . S
H547 C522 0.950 . S
H548 C524 0.950 . S
H549 C525 0.949 . S
H550 C527 0.950 . S
H551 C529 0.950 . S
C552 C553 1.349 . S
C552 C554 1.327 . S
C552 H577 0.950 . S
C553 C552 1.349 . S
C553 C569 1.349 . S
C554 C552 1.327 . S
C554 C573 1.429 . S
C554 H578 0.950 . S
C555 C572 1.574 . S
C555 C574 1.368 . S
C555 H579 0.949 . S
H556 C560 0.949 . S
C557 C558 1.349 . S
C557 C559 1.327 . S
C557 H580 0.950 . S
C558 C557 1.349 . S
C558 C570 1.349 . S
C559 C557 1.327 . S
C559 C575 1.429 . S
C559 H581 0.950 . S
C560 H556 0.949 . S
C560 C568 1.574 . S
C560 C576 1.368 . S
H561 C569 0.950 . S
H562 C567 0.950 . S
H563 C568 0.949 . S
H564 C570 0.950 . S
H565 C571 0.950 . S
H566 C572 0.949 . S
C567 H562 0.950 . S
C567 C569 1.327 . S
C567 C573 1.429 . S
C568 C560 1.574 . S
C568 H563 0.949 . S
C568 C574 1.368 . S
C569 C553 1.349 . S
C569 H561 0.950 . S
C569 C567 1.327 . S
C570 C558 1.349 . S
C570 H564 0.950 . S
C570 C571 1.327 . S
C571 H565 0.950 . S
C571 C570 1.327 . S
C571 C575 1.429 . S
C572 C555 1.574 . S
C572 H566 0.949 . S
C572 C576 1.368 . S
C573 C554 1.429 . S
C573 C567 1.429 . S
C573 C574 1.523 . S
C574 C555 1.368 . S
C574 C568 1.368 . S
C574 C573 1.523 . S
C575 C559 1.429 . S
C575 C571 1.429 . S
C575 C576 1.523 . S
C576 C560 1.368 . S
C576 C572 1.368 . S
C576 C575 1.523 . S
H577 C552 0.950 . S
H578 C554 0.950 . S
H579 C555 0.949 . S
H580 C557 0.950 . S
H581 C559 0.950 . S
C582 C583 1.349 . S
C582 C584 1.327 . S
C582 H607 0.950 . S
C583 C582 1.349 . S
C583 C599 1.349 . S
C584 C582 1.327 . S
C584 C603 1.429 . S
C584 H608 0.950 . S
C585 C602 1.574 . S
C585 C604 1.368 . S
C585 H609 0.949 . S
H586 C590 0.949 . S
C587 C588 1.349 . S
C587 C589 1.327 . S
C587 H610 0.950 . S
C588 C587 1.349 . S
C588 C600 1.349 . S
C589 C587 1.327 . S
C589 C605 1.429 . S
C589 H611 0.950 . S
C590 H586 0.949 . S
C590 C598 1.574 . S
C590 C606 1.368 . S
H591 C599 0.950 . S
H592 C597 0.950 . S
H593 C598 0.949 . S
H594 C600 0.950 . S
H595 C601 0.950 . S
H596 C602 0.949 . S
C597 H592 0.950 . S
C597 C599 1.327 . S
C597 C603 1.429 . S
C598 C590 1.574 . S
C598 H593 0.949 . S
C598 C604 1.368 . S
C599 C583 1.349 . S
C599 H591 0.950 . S
C599 C597 1.327 . S
C600 C588 1.349 . S
C600 H594 0.950 . S
C600 C601 1.327 . S
C601 H595 0.950 . S
C601 C600 1.327 . S
C601 C605 1.429 . S
C602 C585 1.574 . S
C602 H596 0.949 . S
C602 C606 1.368 . S
C603 C584 1.429 . S
C603 C597 1.429 . S
C603 C604 1.523 . S
C604 C585 1.368 . S
C604 C598 1.368 . S
C604 C603 1.523 . S
C605 C589 1.429 . S
C605 C601 1.429 . S
C605 C606 1.523 . S
C606 C590 1.368 . S
C606 C602 1.368 . S
C606 C605 1.523 . S
H607 C582 0.950 . S
H608 C584 0.950 . S
H609 C585 0.949 . S
H610 C587 0.950 . S
H611 C589 0.950 . S
C612 C613 1.349 . S
C612 C614 1.327 . S
C612 H637 0.950 . S
C613 C612 1.349 . S
C613 C629 1.349 . S
C614 C612 1.327 . S
C614 C633 1.429 . S
C614 H638 0.950 . S
C615 C632 1.574 . S
C615 C634 1.368 . S
C615 H639 0.949 . S
H616 C620 0.949 . S
C617 C618 1.349 . S
C617 C619 1.327 . S
C617 H640 0.950 . S
C618 C617 1.349 . S
C618 C630 1.349 . S
C619 C617 1.327 . S
C619 C635 1.429 . S
C619 H641 0.950 . S
C620 H616 0.949 . S
C620 C628 1.574 . S
C620 C636 1.368 . S
H621 C629 0.950 . S
H622 C627 0.950 . S
H623 C628 0.949 . S
H624 C630 0.950 1_556 S
H625 C631 0.950 . S
H626 C632 0.949 . S
C627 H622 0.950 . S
C627 C629 1.327 . S
C627 C633 1.429 . S
C628 C620 1.574 . S
C628 H623 0.949 . S
C628 C634 1.368 . S
C629 C613 1.349 . S
C629 H621 0.950 . S
C629 C627 1.327 . S
C630 C618 1.349 . S
C630 H624 0.950 1_554 S
C630 C631 1.327 . S
C631 H625 0.950 . S
C631 C630 1.327 . S
C631 C635 1.429 . S
C632 C615 1.574 . S
C632 H626 0.949 . S
C632 C636 1.368 . S
C633 C614 1.429 . S
C633 C627 1.429 . S
C633 C634 1.523 . S
C634 C615 1.368 . S
C634 C628 1.368 . S
C634 C633 1.523 . S
C635 C619 1.429 . S
C635 C631 1.429 . S
C635 C636 1.523 . S
C636 C620 1.368 . S
C636 C632 1.368 . S
C636 C635 1.523 . S
H637 C612 0.950 . S
H638 C614 0.950 . S
H639 C615 0.949 . S
H640 C617 0.950 . S
H641 C619 0.950 . S
C642 C643 1.349 . S
C642 C644 1.327 . S
C642 H667 0.950 1_554 S
C643 C642 1.349 . S
C643 C659 1.349 . S
C644 C642 1.327 . S
C644 C663 1.429 . S
C644 H668 0.950 . S
C645 C662 1.574 . S
C645 C664 1.368 . S
C645 H669 0.949 . S
H646 C650 0.949 . S
C647 C648 1.349 . S
C647 C649 1.327 . S
C647 H670 0.950 . S
C648 C647 1.349 . S
C648 C660 1.349 . S
C649 C647 1.327 . S
C649 C665 1.429 . S
C649 H671 0.950 . S
C650 H646 0.949 . S
C650 C658 1.574 . S
C650 C666 1.368 . S
H651 C659 0.950 . S
H652 C657 0.950 . S
H653 C658 0.949 . S
H654 C660 0.950 . S
H655 C661 0.950 . S
H656 C662 0.949 . S
C657 H652 0.950 . S
C657 C659 1.327 . S
C657 C663 1.429 . S
C658 C650 1.574 . S
C658 H653 0.949 . S
C658 C664 1.368 . S
C659 C643 1.349 . S
C659 H651 0.950 . S
C659 C657 1.327 . S
C660 C648 1.349 . S
C660 H654 0.950 . S
C660 C661 1.327 . S
C661 H655 0.950 . S
C661 C660 1.327 . S
C661 C665 1.429 . S
C662 C645 1.574 . S
C662 H656 0.949 . S
C662 C666 1.368 . S
C663 C644 1.429 . S
C663 C657 1.429 . S
C663 C664 1.523 . S
C664 C645 1.368 . S
C664 C658 1.368 . S
C664 C663 1.523 . S
C665 C649 1.429 . S
C665 C661 1.429 . S
C665 C666 1.523 . S
C666 C650 1.368 . S
C666 C662 1.368 . S
C666 C665 1.523 . S
H667 C642 0.950 1_556 S
H668 C644 0.950 . S
H669 C645 0.949 . S
H670 C647 0.950 . S
H671 C649 0.950 . S
C672 C673 1.349 . S
C672 C674 1.327 . S
C672 H697 0.950 . S
C673 C672 1.349 . S
C673 C689 1.349 . S
C674 C672 1.327 . S
C674 C693 1.429 . S
C674 H698 0.950 . S
C675 C692 1.574 . S
C675 C694 1.368 . S
C675 H699 0.949 . S
H676 C680 0.949 . S
C677 C678 1.349 . S
C677 C679 1.327 . S
C677 H700 0.950 . S
C678 C677 1.349 . S
C678 C690 1.349 . S
C679 C677 1.327 . S
C679 C695 1.429 . S
C679 H701 0.950 . S
C680 H676 0.949 . S
C680 C688 1.574 . S
C680 C696 1.368 . S
H681 C689 0.950 . S
H682 C687 0.950 . S
H683 C688 0.949 . S
H684 C690 0.950 . S
H685 C691 0.950 . S
H686 C692 0.949 . S
C687 H682 0.950 . S
C687 C689 1.327 . S
C687 C693 1.429 . S
C688 C680 1.574 . S
C688 H683 0.949 . S
C688 C694 1.368 . S
C689 C673 1.349 . S
C689 H681 0.950 . S
C689 C687 1.327 . S
C690 C678 1.349 . S
C690 H684 0.950 . S
C690 C691 1.327 . S
C691 H685 0.950 . S
C691 C690 1.327 . S
C691 C695 1.429 . S
C692 C675 1.574 . S
C692 H686 0.949 . S
C692 C696 1.368 . S
C693 C674 1.429 . S
C693 C687 1.429 . S
C693 C694 1.523 . S
C694 C675 1.368 . S
C694 C688 1.368 . S
C694 C693 1.523 . S
C695 C679 1.429 . S
C695 C691 1.429 . S
C695 C696 1.523 . S
C696 C680 1.368 . S
C696 C692 1.368 . S
C696 C695 1.523 . S
H697 C672 0.950 . S
H698 C674 0.950 . S
H699 C675 0.949 . S
H700 C677 0.950 . S
H701 C679 0.950 . S
C702 C703 1.349 . S
C702 C704 1.327 . S
C702 H727 0.950 . S
C703 C702 1.349 . S
C703 C719 1.349 . S
C704 C702 1.327 . S
C704 C723 1.429 . S
C704 H728 0.950 . S
C705 C722 1.606 . S
C705 C724 1.368 . S
C705 H729 0.949 . S
H706 C710 0.949 . S
C707 C708 1.349 . S
C707 C709 1.327 . S
C707 H730 0.950 . S
C708 C707 1.349 . S
C708 C720 1.349 . S
C709 C707 1.327 . S
C709 C725 1.429 . S
C709 H731 0.950 . S
C710 H706 0.949 . S
C710 C718 1.606 . S
C710 C726 1.368 . S
H711 C719 0.950 . S
H712 C717 0.950 . S
H713 C718 0.974 . S
H714 C720 0.950 . S
H715 C721 0.950 . S
H716 C722 0.974 . S
C717 H712 0.950 . S
C717 C719 1.327 . S
C717 C723 1.429 . S
C718 C710 1.606 . S
C718 H713 0.974 . S
C718 C724 1.311 1_455 S
C719 C703 1.349 . S
C719 H711 0.950 . S
C719 C717 1.327 . S
C720 C708 1.349 . S
C720 H714 0.950 . S
C720 C721 1.327 . S
C721 H715 0.950 . S
C721 C720 1.327 . S
C721 C725 1.429 . S
C722 C705 1.606 . S
C722 H716 0.974 . S
C722 C726 1.311 1_655 S
C723 C704 1.429 . S
C723 C717 1.429 . S
C723 C724 1.523 . S
C724 C705 1.368 . S
C724 C718 1.311 1_655 S
C724 C723 1.523 . S
C725 C709 1.429 . S
C725 C721 1.429 . S
C725 C726 1.523 . S
C726 C710 1.368 . S
C726 C722 1.311 1_455 S
C726 C725 1.523 . S
H727 C702 0.950 . S
H728 C704 0.950 . S
H729 C705 0.949 . S
H730 C707 0.950 . S
H731 C709 0.950 . S
C732 C733 1.349 . S
C732 C734 1.327 . S
C732 H757 0.950 . S
C733 C732 1.349 . S
C733 C749 1.349 . S
C734 C732 1.327 . S
C734 C753 1.429 . S
C734 H758 0.950 . S
C735 C752 1.574 . S
C735 C754 1.368 . S
C735 H759 0.949 . S
H736 C740 0.949 . S
C737 C738 1.349 . S
C737 C739 1.327 . S
C737 H760 0.950 . S
C738 C737 1.349 . S
C738 C750 1.349 . S
C739 C737 1.327 . S
C739 C755 1.429 . S
C739 H761 0.950 . S
C740 H736 0.949 . S
C740 C748 1.574 . S
C740 C756 1.368 . S
H741 C749 0.950 . S
H742 C747 0.950 . S
H743 C748 0.949 . S
H744 C750 0.950 . S
H745 C751 0.950 . S
H746 C752 0.949 . S
C747 H742 0.950 . S
C747 C749 1.327 . S
C747 C753 1.429 . S
C748 C740 1.574 . S
C748 H743 0.949 . S
C748 C754 1.368 . S
C749 C733 1.349 . S
C749 H741 0.950 . S
C749 C747 1.327 . S
C750 C738 1.349 . S
C750 H744 0.950 . S
C750 C751 1.327 . S
C751 H745 0.950 . S
C751 C750 1.327 . S
C751 C755 1.429 . S
C752 C735 1.574 . S
C752 H746 0.949 . S
C752 C756 1.368 . S
C753 C734 1.429 . S
C753 C747 1.429 . S
C753 C754 1.523 . S
C754 C735 1.368 . S
C754 C748 1.368 . S
C754 C753 1.523 . S
C755 C739 1.429 . S
C755 C751 1.429 . S
C755 C756 1.523 . S
C756 C740 1.368 . S
C756 C752 1.368 . S
C756 C755 1.523 . S
H757 C732 0.950 . S
H758 C734 0.950 . S
H759 C735 0.949 . S
H760 C737 0.950 . S
H761 C739 0.950 . S
C762 C763 1.349 . S
C762 C764 1.327 . S
C762 H787 0.950 . S
C763 C762 1.349 . S
C763 C779 1.349 . S
C764 C762 1.327 . S
C764 C783 1.429 . S
C764 H788 0.950 . S
C765 C782 1.574 . S
C765 C784 1.368 . S
C765 H789 0.949 . S
H766 C770 0.949 . S
C767 C768 1.349 . S
C767 C769 1.327 . S
C767 H790 0.950 . S
C768 C767 1.349 . S
C768 C780 1.349 . S
C769 C767 1.327 . S
C769 C785 1.429 . S
C769 H791 0.950 . S
C770 H766 0.949 . S
C770 C778 1.574 . S
C770 C786 1.368 . S
H771 C779 0.950 . S
H772 C777 0.950 . S
H773 C778 0.949 . S
H774 C780 0.950 . S
H775 C781 0.950 . S
H776 C782 0.949 . S
C777 H772 0.950 . S
C777 C779 1.327 . S
C777 C783 1.429 . S
C778 C770 1.574 . S
C778 H773 0.949 . S
C778 C784 1.368 1_545 S
C779 C763 1.349 . S
C779 H771 0.950 . S
C779 C777 1.327 . S
C780 C768 1.349 . S
C780 H774 0.950 . S
C780 C781 1.327 . S
C781 H775 0.950 . S
C781 C780 1.327 . S
C781 C785 1.429 . S
C782 C765 1.574 . S
C782 H776 0.949 . S
C782 C786 1.368 1_565 S
C783 C764 1.429 . S
C783 C777 1.429 . S
C783 C784 1.523 . S
C784 C765 1.368 . S
C784 C778 1.368 1_565 S
C784 C783 1.523 . S
C785 C769 1.429 . S
C785 C781 1.429 . S
C785 C786 1.523 . S
C786 C770 1.368 . S
C786 C782 1.368 1_545 S
C786 C785 1.523 . S
H787 C762 0.950 . S
H788 C764 0.950 . S
H789 C765 0.949 . S
H790 C767 0.950 . S
H791 C769 0.950 . S
C792 C793 1.349 . S
C792 C794 1.327 . S
C792 H817 0.950 . S
C793 C792 1.349 . S
C793 C809 1.349 . S
C794 C792 1.327 . S
C794 C813 1.429 . S
C794 H818 0.950 . S
C795 C812 1.574 . S
C795 C814 1.368 . S
C795 H819 0.949 . S
H796 C800 0.949 . S
C797 C798 1.349 . S
C797 C799 1.327 . S
C797 H820 0.950 . S
C798 C797 1.349 . S
C798 C810 1.349 . S
C799 C797 1.327 . S
C799 C815 1.429 . S
C799 H821 0.950 . S
C800 H796 0.949 . S
C800 C808 1.574 . S
C800 C816 1.368 . S
H801 C809 0.950 . S
H802 C807 0.950 . S
H803 C808 0.949 . S
H804 C810 0.950 . S
H805 C811 0.950 . S
H806 C812 0.949 . S
C807 H802 0.950 . S
C807 C809 1.327 . S
C807 C813 1.429 . S
C808 C800 1.574 . S
C808 H803 0.949 . S
C808 C814 1.368 1_556 S
C809 C793 1.349 . S
C809 H801 0.950 . S
C809 C807 1.327 . S
C810 C798 1.349 . S
C810 H804 0.950 . S
C810 C811 1.327 . S
C811 H805 0.950 . S
C811 C810 1.327 . S
C811 C815 1.429 . S
C812 C795 1.574 . S
C812 H806 0.949 . S
C812 C816 1.368 1_554 S
C813 C794 1.429 . S
C813 C807 1.429 . S
C813 C814 1.523 . S
C814 C795 1.368 . S
C814 C808 1.368 1_554 S
C814 C813 1.523 . S
C815 C799 1.429 . S
C815 C811 1.429 . S
C815 C816 1.523 . S
C816 C800 1.368 . S
C816 C812 1.368 1_556 S
C816 C815 1.523 . S
H817 C792 0.950 . S
H818 C794 0.950 . S
H819 C795 0.949 . S
H820 C797 0.950 . S
H821 C799 0.950 . S
C822 C823 1.349 . S
C822 C824 1.327 . S
C822 H847 0.950 1_556 S
C823 C822 1.349 . S
C823 C839 1.349 . S
C824 C822 1.327 . S
C824 C843 1.429 . S
C824 H848 0.950 1_556 S
C825 C842 1.574 1_545 S
C825 C844 1.368 . S
C825 H849 0.949 . S
H826 C830 0.949 . S
C827 C828 1.349 . S
C827 C829 1.327 . S
C827 H850 0.950 1_554 S
C828 C827 1.349 . S
C828 C840 1.349 . S
C829 C827 1.327 . S
C829 C845 1.429 . S
C829 H851 0.950 1_554 S
C830 H826 0.949 . S
C830 C838 1.574 1_565 S
C830 C846 1.368 . S
H831 C839 0.950 . S
H832 C837 0.950 . S
H833 C838 0.949 . S
H834 C840 0.950 . S
H835 C841 0.950 . S
H836 C842 0.949 . S
C837 H832 0.950 . S
C837 C839 1.327 . S
C837 C843 1.429 . S
C838 C830 1.574 1_545 S
C838 H833 0.949 . S
C838 C844 1.368 1_554 S
C839 C823 1.349 . S
C839 H831 0.950 . S
C839 C837 1.327 . S
C840 C828 1.349 . S
C840 H834 0.950 . S
C840 C841 1.327 . S
C841 H835 0.950 . S
C841 C840 1.327 . S
C841 C845 1.429 . S
C842 C825 1.574 1_565 S
C842 H836 0.949 . S
C842 C846 1.368 1_556 S
C843 C824 1.429 . S
C843 C837 1.429 . S
C843 C844 1.523 . S
C844 C825 1.368 . S
C844 C838 1.368 1_556 S
C844 C843 1.523 . S
C845 C829 1.429 . S
C845 C841 1.429 . S
C845 C846 1.523 . S
C846 C830 1.368 . S
C846 C842 1.368 1_554 S
C846 C845 1.523 . S
H847 C822 0.950 1_554 S
H848 C824 0.950 1_554 S
H849 C825 0.949 . S
H850 C827 0.950 1_556 S
H851 C829 0.950 1_556 S
C852 C853 1.349 . S
C852 C854 1.327 . S
C852 H877 0.950 . S
C853 C852 1.349 . S
C853 C869 1.349 . S
C854 C852 1.327 . S
C854 C873 1.429 . S
C854 H878 0.950 1_556 S
C855 C872 1.574 1_655 S
C855 C874 1.368 . S
C855 H879 0.949 . S
H856 C860 0.949 . S
C857 C858 1.349 . S
C857 C859 1.327 . S
C857 H880 0.950 . S
C858 C857 1.349 . S
C858 C870 1.349 . S
C859 C857 1.327 . S
C859 C875 1.429 . S
C859 H881 0.950 1_554 S
C860 H856 0.949 . S
C860 C868 1.574 1_455 S
C860 C876 1.368 . S
H861 C869 0.950 . S
H862 C867 0.950 . S
H863 C868 0.949 . S
H864 C870 0.950 . S
H865 C871 0.950 . S
H866 C872 0.949 . S
C867 H862 0.950 . S
C867 C869 1.327 . S
C867 C873 1.429 . S
C868 C860 1.574 1_655 S
C868 H863 0.949 . S
C868 C874 1.368 1_554 S
C869 C853 1.349 . S
C869 H861 0.950 . S
C869 C867 1.327 . S
C870 C858 1.349 . S
C870 H864 0.950 . S
C870 C871 1.327 . S
C871 H865 0.950 . S
C871 C870 1.327 . S
C871 C875 1.429 . S
C872 C855 1.574 1_455 S
C872 H866 0.949 . S
C872 C876 1.368 1_556 S
C873 C854 1.429 . S
C873 C867 1.429 . S
C873 C874 1.523 . S
C874 C855 1.368 . S
C874 C868 1.368 1_556 S
C874 C873 1.523 . S
C875 C859 1.429 . S
C875 C871 1.429 . S
C875 C876 1.523 . S
C876 C860 1.368 . S
C876 C872 1.368 1_554 S
C876 C875 1.523 . S
H877 C852 0.950 . S
H878 C854 0.950 1_554 S
H879 C855 0.949 . S
H880 C857 0.950 . S
H881 C859 0.950 1_556 S
C882 C883 1.349 . S
C882 C884 1.327 . S
C882 H907 0.950 . S
C883 C882 1.349 . S
C883 C899 1.349 1_556 S
C884 C882 1.327 . S
C884 C903 1.429 . S
C884 H908 0.950 . S
C885 C902 1.574 . S
C885 C904 1.368 1_554 S
C885 H909 0.949 . S
H886 C890 0.949 . S
C887 C888 1.349 . S
C887 C889 1.327 . S
C887 H910 0.950 . S
C888 C887 1.349 . S
C888 C900 1.349 1_554 S
C889 C887 1.327 . S
C889 C905 1.429 . S
C889 H911 0.950 . S
C890 H886 0.949 . S
C890 C898 1.574 . S
C890 C906 1.368 1_556 S
H891 C899 0.950 . S
H892 C897 0.950 . S
H893 C898 0.949 . S
H894 C900 0.950 . S
H895 C901 0.950 . S
H896 C902 0.949 . S
C897 H892 0.950 . S
C897 C899 1.327 . S
C897 C903 1.429 1_554 S
C898 C890 1.574 . S
C898 H893 0.949 . S
C898 C904 1.368 . S
C899 C883 1.349 1_554 S
C899 H891 0.950 . S
C899 C897 1.327 . S
C900 C888 1.349 1_556 S
C900 H894 0.950 . S
C900 C901 1.327 . S
C901 H895 0.950 . S
C901 C900 1.327 . S
C901 C905 1.429 1_556 S
C902 C885 1.574 . S
C902 H896 0.949 . S
C902 C906 1.368 . S
C903 C884 1.429 . S
C903 C897 1.429 1_556 S
C903 C904 1.523 . S
C904 C885 1.368 1_556 S
C904 C898 1.368 . S
C904 C903 1.523 . S
C905 C889 1.429 . S
C905 C901 1.429 1_554 S
C905 C906 1.523 . S
C906 C890 1.368 1_554 S
C906 C902 1.368 . S
C906 C905 1.523 . S
H907 C882 0.950 . S
H908 C884 0.950 . S
H909 C885 0.949 . S
H910 C887 0.950 . S
H911 C889 0.950 . S
C912 C913 1.349 . S
C912 C914 1.327 . S
C912 H937 0.950 . S
C913 C912 1.349 . S
C913 C929 1.349 . S
C914 C912 1.327 . S
C914 C933 1.429 . S
C914 H938 0.950 . S
C915 C932 1.574 1_565 S
C915 C934 1.368 1_556 S
C915 H939 0.949 . S
H916 C920 0.949 . S
C917 C918 1.349 . S
C917 C919 1.327 . S
C917 H940 0.950 . S
C918 C917 1.349 . S
C918 C930 1.349 . S
C919 C917 1.327 . S
C919 C935 1.429 . S
C919 H941 0.950 . S
C920 H916 0.949 . S
C920 C928 1.574 1_545 S
C920 C936 1.368 1_554 S
H921 C929 0.950 1_556 S
H922 C927 0.950 . S
H923 C928 0.949 . S
H924 C930 0.950 1_554 S
H925 C931 0.950 . S
H926 C932 0.949 . S
C927 H922 0.950 . S
C927 C929 1.327 1_556 S
C927 C933 1.429 1_556 S
C928 C920 1.574 1_565 S
C928 H923 0.949 . S
C928 C934 1.368 . S
C929 C913 1.349 . S
C929 H921 0.950 1_554 S
C929 C927 1.327 1_554 S
C930 C918 1.349 . S
C930 H924 0.950 1_556 S
C930 C931 1.327 1_556 S
C931 H925 0.950 . S
C931 C930 1.327 1_554 S
C931 C935 1.429 1_554 S
C932 C915 1.574 1_545 S
C932 H926 0.949 . S
C932 C936 1.368 . S
C933 C914 1.429 . S
C933 C927 1.429 1_554 S
C933 C934 1.523 . S
C934 C915 1.368 1_554 S
C934 C928 1.368 . S
C934 C933 1.523 . S
C935 C919 1.429 . S
C935 C931 1.429 1_556 S
C935 C936 1.523 . S
C936 C920 1.368 1_556 S
C936 C932 1.368 . S
C936 C935 1.523 . S
H937 C912 0.950 . S
H938 C914 0.950 . S
H939 C915 0.949 . S
H940 C917 0.950 . S
H941 C919 0.950 . S
C942 C943 1.349 . S
C942 C944 1.327 . S
C942 H967 0.950 . S
C943 C942 1.349 . S
C943 C959 1.349 . S
C944 C942 1.327 . S
C944 C963 1.429 . S
C944 H968 0.950 . S
C945 C962 1.574 1_655 S
C945 C964 1.368 1_554 S
C945 H969 0.949 . S
H946 C950 0.949 . S
C947 C948 1.349 . S
C947 C949 1.327 . S
C947 H970 0.950 . S
C948 C947 1.349 . S
C948 C960 1.349 . S
C949 C947 1.327 . S
C949 C965 1.429 . S
C949 H971 0.950 . S
C950 H946 0.949 . S
C950 C958 1.574 1_455 S
C950 C966 1.368 1_556 S
H951 C959 0.950 1_554 S
H952 C957 0.950 . S
H953 C958 0.949 . S
H954 C960 0.950 1_556 S
H955 C961 0.950 . S
H956 C962 0.949 . S
C957 H952 0.950 . S
C957 C959 1.327 1_554 S
C957 C963 1.429 1_554 S
C958 C950 1.574 1_655 S
C958 H953 0.949 . S
C958 C964 1.368 . S
C959 C943 1.349 . S
C959 H951 0.950 1_556 S
C959 C957 1.327 1_556 S
C960 C948 1.349 . S
C960 H954 0.950 1_554 S
C960 C961 1.327 1_554 S
C961 H955 0.950 . S
C961 C960 1.327 1_556 S
C961 C965 1.429 1_556 S
C962 C945 1.574 1_455 S
C962 H956 0.949 . S
C962 C966 1.368 . S
C963 C944 1.429 . S
C963 C957 1.429 1_556 S
C963 C964 1.523 . S
C964 C945 1.368 1_556 S
C964 C958 1.368 . S
C964 C963 1.523 . S
C965 C949 1.429 . S
C965 C961 1.429 1_554 S
C965 C966 1.523 . S
C966 C950 1.368 1_554 S
C966 C962 1.368 . S
C966 C965 1.523 . S
H967 C942 0.950 . S
H968 C944 0.950 . S
H969 C945 0.949 . S
H970 C947 0.950 . S
H971 C949 0.950 . S
C972 C973 1.349 . S
C972 C974 1.327 . S
C972 H997 0.950 . S
C973 C972 1.349 . S
C973 C989 1.349 . S
C974 C972 1.327 . S
C974 C993 1.429 . S
C974 H998 0.950 . S
C975 C992 1.574 . S
C975 C994 1.368 . S
C975 H999 0.949 . S
H976 C980 0.949 . S
C977 C978 1.349 . S
C977 C979 1.327 . S
C977 H1000 0.950 . S
C978 C977 1.349 . S
C978 C990 1.349 . S
C979 C977 1.327 . S
C979 C995 1.429 . S
C979 H1001 0.950 . S
C980 H976 0.949 . S
C980 C988 1.574 . S
C980 C996 1.368 . S
H981 C989 0.950 . S
H982 C987 0.950 . S
H983 C988 0.949 . S
H984 C990 0.950 . S
H985 C991 0.950 . S
H986 C992 0.949 . S
C987 H982 0.950 . S
C987 C989 1.327 . S
C987 C993 1.429 . S
C988 C980 1.574 . S
C988 H983 0.949 . S
C988 C994 1.368 . S
C989 C973 1.349 . S
C989 H981 0.950 . S
C989 C987 1.327 . S
C990 C978 1.349 . S
C990 H984 0.950 . S
C990 C991 1.327 . S
C991 H985 0.950 . S
C991 C990 1.327 . S
C991 C995 1.429 . S
C992 C975 1.574 . S
C992 H986 0.949 . S
C992 C996 1.368 . S
C993 C974 1.429 . S
C993 C987 1.429 . S
C993 C994 1.523 . S
C994 C975 1.368 . S
C994 C988 1.368 . S
C994 C993 1.523 . S
C995 C979 1.429 . S
C995 C991 1.429 . S
C995 C996 1.523 . S
C996 C980 1.368 . S
C996 C992 1.368 . S
C996 C995 1.523 . S
H997 C972 0.950 . S
H998 C974 0.950 . S
H999 C975 0.949 . S
H1000 C977 0.950 . S
H1001 C979 0.950 . S
C1002 C1003 1.349 . S
C1002 C1004 1.327 . S
C1002 H1027 0.950 . S
C1003 C1002 1.349 . S
C1003 C1019 1.349 . S
C1004 C1002 1.327 . S
C1004 C1023 1.429 . S
C1004 H1028 0.950 . S
C1005 C1022 1.574 . S
C1005 C1024 1.368 . S
C1005 H1029 0.949 . S
H1006 C1010 0.949 . S
C1007 C1008 1.349 . S
C1007 C1009 1.327 . S
C1007 H1030 0.950 . S
C1008 C1007 1.349 . S
C1008 C1020 1.349 . S
C1009 C1007 1.327 . S
C1009 C1025 1.429 . S
C1009 H1031 0.950 . S
C1010 H1006 0.949 . S
C1010 C1018 1.574 . S
C1010 C1026 1.368 . S
H1011 C1019 0.950 . S
H1012 C1017 0.950 . S
H1013 C1018 0.949 . S
H1014 C1020 0.950 . S
H1015 C1021 0.950 . S
H1016 C1022 0.949 . S
C1017 H1012 0.950 . S
C1017 C1019 1.327 . S
C1017 C1023 1.429 . S
C1018 C1010 1.574 . S
C1018 H1013 0.949 . S
C1018 C1024 1.368 . S
C1019 C1003 1.349 . S
C1019 H1011 0.950 . S
C1019 C1017 1.327 . S
C1020 C1008 1.349 . S
C1020 H1014 0.950 . S
C1020 C1021 1.327 . S
C1021 H1015 0.950 . S
C1021 C1020 1.327 . S
C1021 C1025 1.429 . S
C1022 C1005 1.574 . S
C1022 H1016 0.949 . S
C1022 C1026 1.368 . S
C1023 C1004 1.429 . S
C1023 C1017 1.429 . S
C1023 C1024 1.523 . S
C1024 C1005 1.368 . S
C1024 C1018 1.368 . S
C1024 C1023 1.523 . S
C1025 C1009 1.429 . S
C1025 C1021 1.429 . S
C1025 C1026 1.523 . S
C1026 C1010 1.368 . S
C1026 C1022 1.368 . S
C1026 C1025 1.523 . S
H1027 C1002 0.950 . S
H1028 C1004 0.950 . S
H1029 C1005 0.949 . S
H1030 C1007 0.950 . S
H1031 C1009 0.950 . S
C1032 C1033 1.349 . S
C1032 C1034 1.327 . S
C1032 H1057 0.950 . S
C1033 C1032 1.349 . S
C1033 C1049 1.349 . S
C1034 C1032 1.327 . S
C1034 C1053 1.429 . S
C1034 H1058 0.950 . S
C1035 C1052 1.574 . S
C1035 C1054 1.368 . S
C1035 H1059 0.949 . S
H1036 C1040 0.949 . S
C1037 C1038 1.349 . S
C1037 C1039 1.327 . S
C1037 H1060 0.950 . S
C1038 C1037 1.349 . S
C1038 C1050 1.349 . S
C1039 C1037 1.327 . S
C1039 C1055 1.429 . S
C1039 H1061 0.950 . S
C1040 H1036 0.949 . S
C1040 C1048 1.574 . S
C1040 C1056 1.368 . S
H1041 C1049 0.950 . S
H1042 C1047 0.950 . S
H1043 C1048 0.949 . S
H1044 C1050 0.950 . S
H1045 C1051 0.950 . S
H1046 C1052 0.949 . S
C1047 H1042 0.950 . S
C1047 C1049 1.327 . S
C1047 C1053 1.429 . S
C1048 C1040 1.574 . S
C1048 H1043 0.949 . S
C1048 C1054 1.368 . S
C1049 C1033 1.349 . S
C1049 H1041 0.950 . S
C1049 C1047 1.327 . S
C1050 C1038 1.349 . S
C1050 H1044 0.950 . S
C1050 C1051 1.327 . S
C1051 H1045 0.950 . S
C1051 C1050 1.327 . S
C1051 C1055 1.429 . S
C1052 C1035 1.574 . S
C1052 H1046 0.949 . S
C1052 C1056 1.368 . S
C1053 C1034 1.429 . S
C1053 C1047 1.429 . S
C1053 C1054 1.523 . S
C1054 C1035 1.368 . S
C1054 C1048 1.368 . S
C1054 C1053 1.523 . S
C1055 C1039 1.429 . S
C1055 C1051 1.429 . S
C1055 C1056 1.523 . S
C1056 C1040 1.368 . S
C1056 C1052 1.368 . S
C1056 C1055 1.523 . S
H1057 C1032 0.950 . S
H1058 C1034 0.950 . S
H1059 C1035 0.949 . S
H1060 C1037 0.950 . S
H1061 C1039 0.950 . S
C1062 C1063 1.349 . S
C1062 C1064 1.327 . S
C1062 H1087 0.950 . S
C1063 C1062 1.349 . S
C1063 C1079 1.349 . S
C1064 C1062 1.327 . S
C1064 C1083 1.429 . S
C1064 H1088 0.950 . S
C1065 C1082 1.574 . S
C1065 C1084 1.368 . S
C1065 H1089 0.949 . S
H1066 C1070 0.949 . S
C1067 C1068 1.349 . S
C1067 C1069 1.327 . S
C1067 H1090 0.950 . S
C1068 C1067 1.349 . S
C1068 C1080 1.349 . S
C1069 C1067 1.327 . S
C1069 C1085 1.429 . S
C1069 H1091 0.950 . S
C1070 H1066 0.949 . S
C1070 C1078 1.574 . S
C1070 C1086 1.368 . S
H1071 C1079 0.950 . S
H1072 C1077 0.950 . S
H1073 C1078 0.949 . S
H1074 C1080 0.950 . S
H1075 C1081 0.950 . S
H1076 C1082 0.949 . S
C1077 H1072 0.950 . S
C1077 C1079 1.327 . S
C1077 C1083 1.429 . S
C1078 C1070 1.574 . S
C1078 H1073 0.949 . S
C1078 C1084 1.368 . S
C1079 C1063 1.349 . S
C1079 H1071 0.950 . S
C1079 C1077 1.327 . S
C1080 C1068 1.349 . S
C1080 H1074 0.950 . S
C1080 C1081 1.327 . S
C1081 H1075 0.950 . S
C1081 C1080 1.327 . S
C1081 C1085 1.429 . S
C1082 C1065 1.574 . S
C1082 H1076 0.949 . S
C1082 C1086 1.368 . S
C1083 C1064 1.429 . S
C1083 C1077 1.429 . S
C1083 C1084 1.523 . S
C1084 C1065 1.368 . S
C1084 C1078 1.368 . S
C1084 C1083 1.523 . S
C1085 C1069 1.429 . S
C1085 C1081 1.429 . S
C1085 C1086 1.523 . S
C1086 C1070 1.368 . S
C1086 C1082 1.368 . S
C1086 C1085 1.523 . S
H1087 C1062 0.950 . S
H1088 C1064 0.950 . S
H1089 C1065 0.949 . S
H1090 C1067 0.950 . S
H1091 C1069 0.950 . S
C1092 C1093 1.349 . S
C1092 C1094 1.327 . S
C1092 H1117 0.950 . S
C1093 C1092 1.349 . S
C1093 C1109 1.349 . S
C1094 C1092 1.327 . S
C1094 C1113 1.429 . S
C1094 H1118 0.950 . S
C1095 C1112 1.574 . S
C1095 C1114 1.368 . S
C1095 H1119 0.949 . S
H1096 C1100 0.949 . S
C1097 C1098 1.349 . S
C1097 C1099 1.327 . S
C1097 H1120 0.950 . S
C1098 C1097 1.349 . S
C1098 C1110 1.349 . S
C1099 C1097 1.327 . S
C1099 C1115 1.429 . S
C1099 H1121 0.950 . S
C1100 H1096 0.949 . S
C1100 C1108 1.574 . S
C1100 C1116 1.368 . S
H1101 C1109 0.950 . S
H1102 C1107 0.950 . S
H1103 C1108 0.949 . S
H1104 C1110 0.950 . S
H1105 C1111 0.950 . S
H1106 C1112 0.949 . S
C1107 H1102 0.950 . S
C1107 C1109 1.327 . S
C1107 C1113 1.429 . S
C1108 C1100 1.574 . S
C1108 H1103 0.949 . S
C1108 C1114 1.368 . S
C1109 C1093 1.349 . S
C1109 H1101 0.950 . S
C1109 C1107 1.327 . S
C1110 C1098 1.349 . S
C1110 H1104 0.950 . S
C1110 C1111 1.327 . S
C1111 H1105 0.950 . S
C1111 C1110 1.327 . S
C1111 C1115 1.429 . S
C1112 C1095 1.574 . S
C1112 H1106 0.949 . S
C1112 C1116 1.368 . S
C1113 C1094 1.429 . S
C1113 C1107 1.429 . S
C1113 C1114 1.523 . S
C1114 C1095 1.368 . S
C1114 C1108 1.368 . S
C1114 C1113 1.523 . S
C1115 C1099 1.429 . S
C1115 C1111 1.429 . S
C1115 C1116 1.523 . S
C1116 C1100 1.368 . S
C1116 C1112 1.368 . S
C1116 C1115 1.523 . S
H1117 C1092 0.950 . S
H1118 C1094 0.950 . S
H1119 C1095 0.949 . S
H1120 C1097 0.950 . S
H1121 C1099 0.950 . S
C1122 C1123 1.349 . S
C1122 C1124 1.327 . S
C1122 H1147 0.950 . S
C1123 C1122 1.349 . S
C1123 C1139 1.349 . S
C1124 C1122 1.327 . S
C1124 C1143 1.429 . S
C1124 H1148 0.950 . S
C1125 C1142 1.574 . S
C1125 C1144 1.368 . S
C1125 H1149 0.949 . S
H1126 C1130 0.949 . S
C1127 C1128 1.349 . S
C1127 C1129 1.327 . S
C1127 H1150 0.950 . S
C1128 C1127 1.349 . S
C1128 C1140 1.349 . S
C1129 C1127 1.327 . S
C1129 C1145 1.429 . S
C1129 H1151 0.950 . S
C1130 H1126 0.949 . S
C1130 C1138 1.574 . S
C1130 C1146 1.368 . S
H1131 C1139 0.950 . S
H1132 C1137 0.950 . S
H1133 C1138 0.949 . S
H1134 C1140 0.950 . S
H1135 C1141 0.950 . S
H1136 C1142 0.949 . S
C1137 H1132 0.950 . S
C1137 C1139 1.327 . S
C1137 C1143 1.429 . S
C1138 C1130 1.574 . S
C1138 H1133 0.949 . S
C1138 C1144 1.368 . S
C1139 C1123 1.349 . S
C1139 H1131 0.950 . S
C1139 C1137 1.327 . S
C1140 C1128 1.349 . S
C1140 H1134 0.950 . S
C1140 C1141 1.327 . S
C1141 H1135 0.950 . S
C1141 C1140 1.327 . S
C1141 C1145 1.429 . S
C1142 C1125 1.574 . S
C1142 H1136 0.949 . S
C1142 C1146 1.368 . S
C1143 C1124 1.429 . S
C1143 C1137 1.429 . S
C1143 C1144 1.523 . S
C1144 C1125 1.368 . S
C1144 C1138 1.368 . S
C1144 C1143 1.523 . S
C1145 C1129 1.429 . S
C1145 C1141 1.429 . S
C1145 C1146 1.523 . S
C1146 C1130 1.368 . S
C1146 C1142 1.368 . S
C1146 C1145 1.523 . S
H1147 C1122 0.950 . S
H1148 C1124 0.950 . S
H1149 C1125 0.949 . S
H1150 C1127 0.950 . S
H1151 C1129 0.950 . S
C1152 C1153 1.349 . S
C1152 C1154 1.327 . S
C1152 H1177 0.950 . S
C1153 C1152 1.349 . S
C1153 C1169 1.349 . S
C1154 C1152 1.327 . S
C1154 C1173 1.429 . S
C1154 H1178 0.950 . S
C1155 C1172 1.574 . S
C1155 C1174 1.368 . S
C1155 H1179 0.949 . S
H1156 C1160 0.949 . S
C1157 C1158 1.349 . S
C1157 C1159 1.327 . S
C1157 H1180 0.950 . S
C1158 C1157 1.349 . S
C1158 C1170 1.349 . S
C1159 C1157 1.327 . S
C1159 C1175 1.429 . S
C1159 H1181 0.950 . S
C1160 H1156 0.949 . S
C1160 C1168 1.574 . S
C1160 C1176 1.368 . S
H1161 C1169 0.950 . S
H1162 C1167 0.950 . S
H1163 C1168 0.949 . S
H1164 C1170 0.950 . S
H1165 C1171 0.950 . S
H1166 C1172 0.949 . S
C1167 H1162 0.950 . S
C1167 C1169 1.327 . S
C1167 C1173 1.429 . S
C1168 C1160 1.574 . S
C1168 H1163 0.949 . S
C1168 C1174 1.368 . S
C1169 C1153 1.349 . S
C1169 H1161 0.950 . S
C1169 C1167 1.327 . S
C1170 C1158 1.349 . S
C1170 H1164 0.950 . S
C1170 C1171 1.327 . S
C1171 H1165 0.950 . S
C1171 C1170 1.327 . S
C1171 C1175 1.429 . S
C1172 C1155 1.574 . S
C1172 H1166 0.949 . S
C1172 C1176 1.368 . S
C1173 C1154 1.429 . S
C1173 C1167 1.429 . S
C1173 C1174 1.523 . S
C1174 C1155 1.368 . S
C1174 C1168 1.368 . S
C1174 C1173 1.523 . S
C1175 C1159 1.429 . S
C1175 C1171 1.429 . S
C1175 C1176 1.523 . S
C1176 C1160 1.368 . S
C1176 C1172 1.368 . S
C1176 C1175 1.523 . S
H1177 C1152 0.950 . S
H1178 C1154 0.950 . S
H1179 C1155 0.949 . S
H1180 C1157 0.950 . S
H1181 C1159 0.950 . S
C1182 C1183 1.349 . S
C1182 C1184 1.327 . S
C1182 H1207 0.950 . S
C1183 C1182 1.349 . S
C1183 C1199 1.349 . S
C1184 C1182 1.327 . S
C1184 C1203 1.429 . S
C1184 H1208 0.950 . S
C1185 C1202 1.574 . S
C1185 C1204 1.368 . S
C1185 H1209 0.949 . S
H1186 C1190 0.949 . S
C1187 C1188 1.349 . S
C1187 C1189 1.327 . S
C1187 H1210 0.950 . S
C1188 C1187 1.349 . S
C1188 C1200 1.349 . S
C1189 C1187 1.327 . S
C1189 C1205 1.429 . S
C1189 H1211 0.950 . S
C1190 H1186 0.949 . S
C1190 C1198 1.574 . S
C1190 C1206 1.368 . S
H1191 C1199 0.950 . S
H1192 C1197 0.950 . S
H1193 C1198 0.949 . S
H1194 C1200 0.950 . S
H1195 C1201 0.950 . S
H1196 C1202 0.949 . S
C1197 H1192 0.950 . S
C1197 C1199 1.327 . S
C1197 C1203 1.429 . S
C1198 C1190 1.574 . S
C1198 H1193 0.949 . S
C1198 C1204 1.368 . S
C1199 C1183 1.349 . S
C1199 H1191 0.950 . S
C1199 C1197 1.327 . S
C1200 C1188 1.349 . S
C1200 H1194 0.950 . S
C1200 C1201 1.327 . S
C1201 H1195 0.950 . S
C1201 C1200 1.327 . S
C1201 C1205 1.429 . S
C1202 C1185 1.574 . S
C1202 H1196 0.949 . S
C1202 C1206 1.368 . S
C1203 C1184 1.429 . S
C1203 C1197 1.429 . S
C1203 C1204 1.523 . S
C1204 C1185 1.368 . S
C1204 C1198 1.368 . S
C1204 C1203 1.523 . S
C1205 C1189 1.429 . S
C1205 C1201 1.429 . S
C1205 C1206 1.523 . S
C1206 C1190 1.368 . S
C1206 C1202 1.368 . S
C1206 C1205 1.523 . S
H1207 C1182 0.950 . S
H1208 C1184 0.950 . S
H1209 C1185 0.949 . S
H1210 C1187 0.950 . S
H1211 C1189 0.950 . S
C1212 C1213 1.349 . S
C1212 C1214 1.327 . S
C1212 H1237 0.950 . S
C1213 C1212 1.349 . S
C1213 C1229 1.349 . S
C1214 C1212 1.327 . S
C1214 C1233 1.429 . S
C1214 H1238 0.950 . S
C1215 C1232 1.574 . S
C1215 C1234 1.368 . S
C1215 H1239 0.949 . S
H1216 C1220 0.949 . S
C1217 C1218 1.349 . S
C1217 C1219 1.327 . S
C1217 H1240 0.950 . S
C1218 C1217 1.349 . S
C1218 C1230 1.349 . S
C1219 C1217 1.327 . S
C1219 C1235 1.429 . S
C1219 H1241 0.950 . S
C1220 H1216 0.949 . S
C1220 C1228 1.574 . S
C1220 C1236 1.368 . S
H1221 C1229 0.950 . S
H1222 C1227 0.950 . S
H1223 C1228 0.949 . S
H1224 C1230 0.950 . S
H1225 C1231 0.950 . S
H1226 C1232 0.949 . S
C1227 H1222 0.950 . S
C1227 C1229 1.327 . S
C1227 C1233 1.429 . S
C1228 C1220 1.574 . S
C1228 H1223 0.949 . S
C1228 C1234 1.368 . S
C1229 C1213 1.349 . S
C1229 H1221 0.950 . S
C1229 C1227 1.327 . S
C1230 C1218 1.349 . S
C1230 H1224 0.950 . S
C1230 C1231 1.327 . S
C1231 H1225 0.950 . S
C1231 C1230 1.327 . S
C1231 C1235 1.429 . S
C1232 C1215 1.574 . S
C1232 H1226 0.949 . S
C1232 C1236 1.368 . S
C1233 C1214 1.429 . S
C1233 C1227 1.429 . S
C1233 C1234 1.523 . S
C1234 C1215 1.368 . S
C1234 C1228 1.368 . S
C1234 C1233 1.523 . S
C1235 C1219 1.429 . S
C1235 C1231 1.429 . S
C1235 C1236 1.523 . S
C1236 C1220 1.368 . S
C1236 C1232 1.368 . S
C1236 C1235 1.523 . S
H1237 C1212 0.950 . S
H1238 C1214 0.950 . S
H1239 C1215 0.949 . S
H1240 C1217 0.950 . S
H1241 C1219 0.950 . S
C1242 C1243 1.349 . S
C1242 C1244 1.327 . S
C1242 H1267 0.950 . S
C1243 C1242 1.349 . S
C1243 C1259 1.349 . S
C1244 C1242 1.327 . S
C1244 C1263 1.429 . S
C1244 H1268 0.950 . S
C1245 C1262 1.574 . S
C1245 C1264 1.368 . S
C1245 H1269 0.949 . S
H1246 C1250 0.949 . S
C1247 C1248 1.349 . S
C1247 C1249 1.327 . S
C1247 H1270 0.950 . S
C1248 C1247 1.349 . S
C1248 C1260 1.349 . S
C1249 C1247 1.327 . S
C1249 C1265 1.429 . S
C1249 H1271 0.950 . S
C1250 H1246 0.949 . S
C1250 C1258 1.574 . S
C1250 C1266 1.368 . S
H1251 C1259 0.950 . S
H1252 C1257 0.950 . S
H1253 C1258 0.949 . S
H1254 C1260 0.950 . S
H1255 C1261 0.950 . S
H1256 C1262 0.949 . S
C1257 H1252 0.950 . S
C1257 C1259 1.327 . S
C1257 C1263 1.429 . S
C1258 C1250 1.574 . S
C1258 H1253 0.949 . S
C1258 C1264 1.368 . S
C1259 C1243 1.349 . S
C1259 H1251 0.950 . S
C1259 C1257 1.327 . S
C1260 C1248 1.349 . S
C1260 H1254 0.950 . S
C1260 C1261 1.327 . S
C1261 H1255 0.950 . S
C1261 C1260 1.327 . S
C1261 C1265 1.429 . S
C1262 C1245 1.574 . S
C1262 H1256 0.949 . S
C1262 C1266 1.368 . S
C1263 C1244 1.429 . S
C1263 C1257 1.429 . S
C1263 C1264 1.523 . S
C1264 C1245 1.368 . S
C1264 C1258 1.368 . S
C1264 C1263 1.523 . S
C1265 C1249 1.429 . S
C1265 C1261 1.429 . S
C1265 C1266 1.523 . S
C1266 C1250 1.368 . S
C1266 C1262 1.368 . S
C1266 C1265 1.523 . S
H1267 C1242 0.950 . S
H1268 C1244 0.950 . S
H1269 C1245 0.949 . S
H1270 C1247 0.950 . S
H1271 C1249 0.950 . S
C1272 C1273 1.349 . S
C1272 C1274 1.327 . S
C1272 H1297 0.950 . S
C1273 C1272 1.349 . S
C1273 C1289 1.349 . S
C1274 C1272 1.327 . S
C1274 C1293 1.429 . S
C1274 H1298 0.950 . S
C1275 C1292 1.574 . S
C1275 C1294 1.368 . S
C1275 H1299 0.949 . S
H1276 C1280 0.949 . S
C1277 C1278 1.349 . S
C1277 C1279 1.327 . S
C1277 H1300 0.950 . S
C1278 C1277 1.349 . S
C1278 C1290 1.349 . S
C1279 C1277 1.327 . S
C1279 C1295 1.429 . S
C1279 H1301 0.950 . S
C1280 H1276 0.949 . S
C1280 C1288 1.574 . S
C1280 C1296 1.368 . S
H1281 C1289 0.950 . S
H1282 C1287 0.950 . S
H1283 C1288 0.949 . S
H1284 C1290 0.950 . S
H1285 C1291 0.950 . S
H1286 C1292 0.949 . S
C1287 H1282 0.950 . S
C1287 C1289 1.327 . S
C1287 C1293 1.429 . S
C1288 C1280 1.574 . S
C1288 H1283 0.949 . S
C1288 C1294 1.368 . S
C1289 C1273 1.349 . S
C1289 H1281 0.950 . S
C1289 C1287 1.327 . S
C1290 C1278 1.349 . S
C1290 H1284 0.950 . S
C1290 C1291 1.327 . S
C1291 H1285 0.950 . S
C1291 C1290 1.327 . S
C1291 C1295 1.429 . S
C1292 C1275 1.574 . S
C1292 H1286 0.949 . S
C1292 C1296 1.368 . S
C1293 C1274 1.429 . S
C1293 C1287 1.429 . S
C1293 C1294 1.523 . S
C1294 C1275 1.368 . S
C1294 C1288 1.368 . S
C1294 C1293 1.523 . S
C1295 C1279 1.429 . S
C1295 C1291 1.429 . S
C1295 C1296 1.523 . S
C1296 C1280 1.368 . S
C1296 C1292 1.368 . S
C1296 C1295 1.523 . S
H1297 C1272 0.950 . S
H1298 C1274 0.950 . S
H1299 C1275 0.949 . S
H1300 C1277 0.950 . S
H1301 C1279 0.950 . S
C1302 C1303 1.349 . S
C1302 C1304 1.327 . S
C1302 H1327 0.950 . S
C1303 C1302 1.349 . S
C1303 C1319 1.349 . S
C1304 C1302 1.327 . S
C1304 C1323 1.429 . S
C1304 H1328 0.950 . S
C1305 C1322 1.574 . S
C1305 C1324 1.368 . S
C1305 H1329 0.949 . S
H1306 C1310 0.949 . S
C1307 C1308 1.349 . S
C1307 C1309 1.327 . S
C1307 H1330 0.950 . S
C1308 C1307 1.349 . S
C1308 C1320 1.349 . S
C1309 C1307 1.327 . S
C1309 C1325 1.429 . S
C1309 H1331 0.950 . S
C1310 H1306 0.949 . S
C1310 C1318 1.574 . S
C1310 C1326 1.368 . S
H1311 C1319 0.950 . S
H1312 C1317 0.950 . S
H1313 C1318 0.949 . S
H1314 C1320 0.950 . S
H1315 C1321 0.950 . S
H1316 C1322 0.949 . S
C1317 H1312 0.950 . S
C1317 C1319 1.327 . S
C1317 C1323 1.429 . S
C1318 C1310 1.574 . S
C1318 H1313 0.949 . S
C1318 C1324 1.368 . S
C1319 C1303 1.349 . S
C1319 H1311 0.950 . S
C1319 C1317 1.327 . S
C1320 C1308 1.349 . S
C1320 H1314 0.950 . S
C1320 C1321 1.327 . S
C1321 H1315 0.950 . S
C1321 C1320 1.327 . S
C1321 C1325 1.429 . S
C1322 C1305 1.574 . S
C1322 H1316 0.949 . S
C1322 C1326 1.368 . S
C1323 C1304 1.429 . S
C1323 C1317 1.429 . S
C1323 C1324 1.523 . S
C1324 C1305 1.368 . S
C1324 C1318 1.368 . S
C1324 C1323 1.523 . S
C1325 C1309 1.429 . S
C1325 C1321 1.429 . S
C1325 C1326 1.523 . S
C1326 C1310 1.368 . S
C1326 C1322 1.368 . S
C1326 C1325 1.523 . S
H1327 C1302 0.950 . S
H1328 C1304 0.950 . S
H1329 C1305 0.949 . S
H1330 C1307 0.950 . S
H1331 C1309 0.950 . S
C253 C249 1.738 . S
C258 C11 1.738 . S
C283 C221 1.738 . S
C288 C25 1.738 . S
C313 C235 1.738 . S
C318 C39 1.738 . S
C343 C109 1.738 . S
C348 C53 1.738 . S
C373 C123 1.738 . S
C378 C67 1.738 . S
C403 C81 1.738 . S
C408 C95 1.738 . S
C433 C137 1.738 . S
C438 C193 1.738 . S
C463 C151 1.738 . S
C468 C207 1.738 . S
C493 C165 1.738 . S
C498 C179 1.738 . S
C523 C8 0.960 . S
C528 C246 0.960 . S
C553 C218 0.960 . S
C558 C22 0.960 . S
C583 C36 0.960 . S
C588 C232 0.960 . S
C613 C106 0.960 . S
C618 C50 0.960 . S
C643 C64 0.960 . S
C648 C120 0.960 . S
C673 C78 0.960 . S
C678 C92 0.960 . S
C703 C134 0.959 . S
C708 C190 0.959 . S
C733 C204 0.959 . S
C738 C148 0.959 . S
C763 C176 0.959 . S
C768 C162 0.959 . S
C793 C13 1.406 . S
C798 C55 1.406 . S
C823 C69 1.406 . S
C828 C27 1.406 . S
C853 C83 1.406 . S
C858 C41 1.406 . S
C883 C77 1.464 . S
C888 C21 1.464 . S
C913 C35 1.464 . S
C918 C49 1.464 . S
C943 C63 1.464 . S
C948 C7 1.464 . S
C973 C97 1.406 . S
C978 C139 1.406 . S
C1003 C153 1.406 . S
C1008 C111 1.406 . S
C1033 C167 1.406 . S
C1038 C125 1.406 . S
C1063 C161 1.464 . S
C1068 C105 1.464 . S
C1093 C119 1.464 . S
C1098 C133 1.464 . S
C1123 C147 1.464 . S
C1128 C91 1.464 . S
C1153 C223 1.406 . S
C1158 C181 1.406 . S
C1183 C237 1.406 . S
C1188 C195 1.406 . S
C1213 C209 1.406 . S
C1218 C251 1.406 . S
C1243 C245 1.464 . S
C1248 C189 1.464 . S
C1273 C203 1.464 . S
C1278 C217 1.464 . S
C1303 C231 1.464 . S
C1308 C175 1.464 . S
