# Generated by pormake.
# Topology yfg, (5)-cn, num edge types: 1
# Building blocks:
#     Node 0, Type 0, BuildingBlock: XOMCOT_clean_sbu_1, # of connection points: 5
#     Node 1, Type 0, BuildingBlock: XOMCOT_clean_sbu_1, # of connection points: 5
#     Node 2, Type 0, BuildingBlock: XOMCOT_clean_sbu_1, # of connection points: 5
#     Node 3, Type 0, BuildingBlock: XOMCOT_clean_sbu_1, # of connection points: 5
#     Node 4, Type 0, BuildingBlock: XOMCOT_clean_sbu_1, # of connection points: 5
#     Node 5, Type 0, BuildingBlock: XOMCOT_clean_sbu_1, # of connection points: 5
#     Node 6, Type 0, BuildingBlock: XOMCOT_clean_sbu_1, # of connection points: 5
#     Node 7, Type 0, BuildingBlock: XOMCOT_clean_sbu_1, # of connection points: 5
#     Edge 8, Type (0, 0), BuildingBlock: OJICUG_clean_linker_0, # of connection points: 2
#     Edge 9, Type (0, 0), BuildingBlock: OJICUG_clean_linker_0, # of connection points: 2
#     Edge 10, Type (0, 0), BuildingBlock: OJICUG_clean_linker_0, # of connection points: 2
#     Edge 11, Type (0, 0), BuildingBlock: OJICUG_clean_linker_0, # of connection points: 2
#     Edge 12, Type (0, 0), BuildingBlock: OJICUG_clean_linker_0, # of connection points: 2
#     Edge 13, Type (0, 0), BuildingBlock: OJICUG_clean_linker_0, # of connection points: 2
#     Edge 14, Type (0, 0), BuildingBlock: OJICUG_clean_linker_0, # of connection points: 2
#     Edge 15, Type (0, 0), BuildingBlock: OJICUG_clean_linker_0, # of connection points: 2
#     Edge 16, Type (0, 0), BuildingBlock: OJICUG_clean_linker_0, # of connection points: 2
#     Edge 17, Type (0, 0), BuildingBlock: OJICUG_clean_linker_0, # of connection points: 2
#     Edge 18, Type (0, 0), BuildingBlock: OJICUG_clean_linker_0, # of connection points: 2
#     Edge 19, Type (0, 0), BuildingBlock: OJICUG_clean_linker_0, # of connection points: 2
#     Edge 20, Type (0, 0), BuildingBlock: OJICUG_clean_linker_0, # of connection points: 2
#     Edge 21, Type (0, 0), BuildingBlock: OJICUG_clean_linker_0, # of connection points: 2
#     Edge 22, Type (0, 0), BuildingBlock: OJICUG_clean_linker_0, # of connection points: 2
#     Edge 23, Type (0, 0), BuildingBlock: OJICUG_clean_linker_0, # of connection points: 2
#     Edge 24, Type (0, 0), BuildingBlock: OJICUG_clean_linker_0, # of connection points: 2
#     Edge 25, Type (0, 0), BuildingBlock: OJICUG_clean_linker_0, # of connection points: 2
#     Edge 26, Type (0, 0), BuildingBlock: OJICUG_clean_linker_0, # of connection points: 2
#     Edge 27, Type (0, 0), BuildingBlock: OJICUG_clean_linker_0, # of connection points: 2
# Relax obj value: 0.433
# Max RMSD: 0.206
# Mean RMSD: 0.206
data_MOF--net-yfg--node1-XOMCOT_clean_sbu_1--edge1-OJICUG_clean_linker_0
_symmetry_space_group_name_H-M    P1
_symmetry_Int_Tables_number       1
_symmetry_cell_setting            triclinic
loop_
_symmetry_equiv_pos_as_xyz
'x, y, z'
_cell_length_a     26.803002
_cell_length_b     26.796155
_cell_length_c     30.437601
_cell_angle_alpha  89.874952
_cell_angle_beta   90.006441
_cell_angle_gamma 89.989225
loop_
_atom_site_label
_atom_site_type_symbol
_atom_site_fract_x
_atom_site_fract_y
_atom_site_fract_z
_atom_type_partial_charge
C0 C 0.18186 0.54488 0.09847 0.0
C1 C 0.16798 0.54625 0.14186 0.0
N2 N 0.20539 0.52705 0.16627 0.0
N3 N 0.22768 0.52461 0.09531 0.0
C4 C 0.2413 0.51439 0.13711 0.0
H5 H 0.16035 0.55853 0.07087 0.0
Co6 Co 0.26289 0.51915 0.04292 0.0
C7 C 0.31482 0.41968 0.06851 0.0
O8 O 0.29043 0.38838 0.04324 0.0
N9 N 0.29837 0.5165 0.9898 0.0
C10 C 0.3385 0.49386 0.92927 0.0
C11 C 0.31301 0.47707 0.9657 0.0
C12 C 0.31482 0.55679 0.96704 0.0
N13 N 0.33976 0.54428 0.92994 0.0
O14 O 0.3104 0.56422 0.06541 0.0
H15 H 0.30555 0.43857 0.97372 0.0
H16 H 0.30823 0.59469 0.97763 0.0
O17 O 0.30424 0.46615 0.06793 0.0
C18 C 0.29835 0.60941 0.07205 0.0
O19 O 0.2547 0.62551 0.05837 0.0
N20 N 0.2131 0.47602 0.02134 0.0
C21 C 0.11433 0.44739 1.00704 0.0
C22 C 0.14281 0.42426 0.03992 0.0
C23 C 0.19222 0.43942 0.0468 0.0
C24 C 0.18754 0.49496 0.98637 0.0
C25 C 0.13818 0.48093 0.97847 0.0
H26 H 0.21097 0.42661 0.07614 0.0
H27 H 0.20328 0.52532 0.96747 0.0
H28 H 0.27696 0.49831 0.1459 0.0
H29 H 0.13346 0.56153 0.15442 0.0
H30 H 0.35541 0.47021 0.90468 0.0
H31 H 0.12559 0.39884 0.06311 0.0
H32 H 0.11752 0.4995 0.95258 0.0
C33 C 0.49046 0.18431 0.34263 0.0
C34 C 0.48837 0.16851 0.38555 0.0
N35 N 0.50325 0.20633 0.41166 0.0
N36 N 0.50713 0.2317 0.34147 0.0
C37 C 0.51414 0.24429 0.38393 0.0
H38 H 0.4793 0.16311 0.31407 0.0
Co39 Co 0.51036 0.27133 0.29131 0.0
C40 C 0.60993 0.323 0.31237 0.0
O41 O 0.63496 0.30678 0.27814 0.0
N42 N 0.50952 0.31128 0.24031 0.0
C43 C 0.51623 0.37144 0.19003 0.0
C44 C 0.53959 0.34757 0.22447 0.0
C45 C 0.46821 0.31403 0.21474 0.0
N46 N 0.47114 0.35044 0.18405 0.0
O47 O 0.46571 0.3163 0.31771 0.0
H48 H 0.57478 0.35884 0.23812 0.0
H49 H 0.43522 0.29165 0.22047 0.0
O50 O 0.56439 0.31043 0.31793 0.0
C51 C 0.42073 0.3038 0.32477 0.0
O52 O 0.40444 0.26069 0.31011 0.0
N53 N 0.55328 0.22412 0.2654 0.0
C54 C 0.58006 0.12535 0.249 0.0
C55 C 0.60588 0.15336 0.2805 0.0
C56 C 0.59174 0.20289 0.2884 0.0
C57 C 0.53223 0.19931 0.23104 0.0
C58 C 0.54524 0.1499 0.22216 0.0
H59 H 0.60664 0.22113 0.31715 0.0
H60 H 0.50064 0.21525 0.21403 0.0
H61 H 0.52568 0.28104 0.39416 0.0
H62 H 0.47521 0.13242 0.39653 0.0
H63 H 0.53068 0.40302 0.17181 0.0
H64 H 0.63255 0.13564 0.30226 0.0
H65 H 0.52469 0.12963 0.19728 0.0
C66 C 0.84321 0.4888 0.59916 0.0
C67 C 0.85748 0.48987 0.64239 0.0
N68 N 0.81936 0.50812 0.66641 0.0
N69 N 0.79641 0.5066 0.59559 0.0
C70 C 0.78258 0.51779 0.6371 0.0
H71 H 0.86509 0.47471 0.57203 0.0
Co72 Co 0.76151 0.50695 0.54292 0.0
C73 C 0.67203 0.56496 0.56124 0.0
O74 O 0.64793 0.53076 0.53881 0.0
N75 N 0.72777 0.50442 0.48893 0.0
C76 C 0.69834 0.51919 0.42176 0.0
C77 C 0.71976 0.54037 0.45858 0.0
C78 C 0.71084 0.46207 0.47001 0.0
N79 N 0.69264 0.46996 0.42927 0.0
O80 O 0.71503 0.46216 0.56804 0.0
H81 H 0.73 0.57914 0.46253 0.0
H82 H 0.71345 0.42562 0.48516 0.0
O83 O 0.71973 0.56275 0.56394 0.0
C84 C 0.72826 0.41776 0.57689 0.0
O85 O 0.77269 0.40232 0.56471 0.0
N86 N 0.81022 0.549 0.519 0.0
C87 C 0.90873 0.57865 0.50723 0.0
C88 C 0.87672 0.60645 0.53429 0.0
C89 C 0.82704 0.59095 0.53972 0.0
C90 C 0.83909 0.52544 0.48865 0.0
C91 C 0.88838 0.53996 0.48197 0.0
H92 H 0.80446 0.60857 0.56471 0.0
H93 H 0.82589 0.49146 0.47346 0.0
H94 H 0.74602 0.53185 0.64559 0.0
H95 H 0.89268 0.47641 0.65516 0.0
H96 H 0.68788 0.5384 0.39182 0.0
H97 H 0.89116 0.6364 0.55448 0.0
H98 H 0.91178 0.51792 0.46042 0.0
C99 C 0.53666 0.8377 0.84223 0.0
C100 C 0.53703 0.8531 0.88518 0.0
N101 N 0.5188 0.81592 0.91045 0.0
N102 N 0.51799 0.79112 0.84014 0.0
C103 C 0.50773 0.77858 0.8822 0.0
H104 H 0.55012 0.85868 0.81425 0.0
Co105 Co 0.51488 0.75449 0.78848 0.0
C106 C 0.45722 0.66624 0.81272 0.0
O107 O 0.49119 0.64061 0.79134 0.0
N108 N 0.51448 0.71867 0.73566 0.0
C109 C 0.4938 0.67945 0.67422 0.0
C110 C 0.47578 0.70428 0.71051 0.0
C111 C 0.5555 0.70304 0.71371 0.0
N112 N 0.54422 0.67861 0.67607 0.0
O113 O 0.56026 0.7086 0.81308 0.0
H114 H 0.43698 0.71105 0.71828 0.0
H115 H 0.59298 0.70996 0.72527 0.0
O116 O 0.45953 0.71406 0.81289 0.0
C117 C 0.60506 0.72125 0.82072 0.0
O118 O 0.62106 0.76502 0.80722 0.0
N119 N 0.47211 0.80269 0.76472 0.0
C120 C 0.44343 0.90132 0.75142 0.0
C121 C 0.41685 0.87081 0.7808 0.0
C122 C 0.43179 0.82104 0.78693 0.0
C123 C 0.49406 0.82993 0.73224 0.0
C124 C 0.47993 0.87924 0.72475 0.0
H125 H 0.41544 0.79974 0.81348 0.0
H126 H 0.52677 0.81556 0.71575 0.0
H127 H 0.49304 0.74261 0.89183 0.0
H128 H 0.55115 0.88848 0.89686 0.0
H129 H 0.471 0.66269 0.64895 0.0
H130 H 0.3886 0.88654 0.80212 0.0
H131 H 0.5009 0.90138 0.70134 0.0
C132 C 0.18637 0.49098 0.42191 0.0
C133 C 0.17093 0.49063 0.37889 0.0
N134 N 0.20806 0.50896 0.35366 0.0
N135 N 0.23287 0.50983 0.42401 0.0
C136 C 0.24534 0.52014 0.38195 0.0
H137 H 0.1655 0.47747 0.44993 0.0
Co138 Co 0.27044 0.51262 0.4753 0.0
C139 C 0.32254 0.61165 0.45055 0.0
O140 O 0.29904 0.64166 0.47762 0.0
N141 N 0.30828 0.51169 0.52711 0.0
C142 C 0.36325 0.52245 0.58105 0.0
C143 C 0.33951 0.54489 0.5459 0.0
C144 C 0.31317 0.46985 0.55173 0.0
N145 N 0.3465 0.4752 0.58464 0.0
O146 O 0.31542 0.46686 0.45039 0.0
H147 H 0.3461 0.58238 0.53431 0.0
H148 H 0.29415 0.43525 0.54432 0.0
O149 O 0.31226 0.56512 0.44994 0.0
C150 C 0.30258 0.42199 0.44329 0.0
O151 O 0.25892 0.40624 0.45721 0.0
N152 N 0.22302 0.5568 0.49979 0.0
C153 C 0.12483 0.58494 0.5178 0.0
C154 C 0.15136 0.60774 0.48348 0.0
C155 C 0.20061 0.59313 0.47498 0.0
C156 C 0.19975 0.53892 0.53641 0.0
C157 C 0.1509 0.553 0.54631 0.0
H158 H 0.21774 0.60574 0.44481 0.0
H159 H 0.21642 0.50905 0.5552 0.0
H160 H 0.28124 0.53499 0.37233 0.0
H161 H 0.13559 0.47646 0.36712 0.0
H162 H 0.39121 0.53933 0.60194 0.0
H163 H 0.13267 0.63223 0.4604 0.0
H164 H 0.1321 0.5351 0.57363 0.0
C165 C 0.53486 0.18149 0.66714 0.0
C166 C 0.53457 0.16685 0.62398 0.0
N167 N 0.51616 0.20456 0.59941 0.0
N168 N 0.51642 0.2281 0.67004 0.0
C169 C 0.50556 0.2414 0.6283 0.0
H170 H 0.54869 0.16003 0.69472 0.0
Co171 Co 0.51482 0.26412 0.72208 0.0
C172 C 0.41668 0.31992 0.70094 0.0
O173 O 0.38639 0.29743 0.72851 0.0
N174 N 0.51621 0.30003 0.77494 0.0
C175 C 0.50127 0.33233 0.841 0.0
C176 C 0.48002 0.31051 0.80438 0.0
C177 C 0.55875 0.31608 0.7942 0.0
N178 N 0.55081 0.33591 0.83427 0.0
O179 O 0.56048 0.30974 0.69719 0.0
H180 H 0.44112 0.30097 0.80046 0.0
H181 H 0.59541 0.31129 0.77999 0.0
O182 O 0.46251 0.30725 0.69889 0.0
C183 C 0.60496 0.29626 0.68909 0.0
O184 O 0.62012 0.25196 0.70203 0.0
N185 N 0.4711 0.21609 0.74605 0.0
C186 C 0.44248 0.11766 0.76228 0.0
C187 C 0.41808 0.14603 0.72995 0.0
C188 C 0.43301 0.19546 0.72229 0.0
C189 C 0.49104 0.19082 0.78077 0.0
C190 C 0.47672 0.14185 0.78985 0.0
H191 H 0.41891 0.2143 0.69343 0.0
H192 H 0.52243 0.20628 0.7984 0.0
H193 H 0.49089 0.27764 0.61935 0.0
H194 H 0.54857 0.1317 0.61165 0.0
H195 H 0.48195 0.34414 0.87043 0.0
H196 H 0.39183 0.12871 0.70764 0.0
H197 H 0.49602 0.12152 0.81554 0.0
C198 C 0.83914 0.53272 0.92328 0.0
C199 C 0.85488 0.5354 0.8804 0.0
N200 N 0.81709 0.52075 0.85411 0.0
N201 N 0.79181 0.51591 0.92424 0.0
C202 C 0.7792 0.50939 0.88171 0.0
H203 H 0.86031 0.54365 0.95194 0.0
Co204 Co 0.75221 0.51245 0.97427 0.0
C205 C 0.69951 0.41356 0.9523 0.0
O206 O 0.71519 0.38779 0.98638 0.0
N207 N 0.71231 0.51308 0.02513 0.0
C208 C 0.65224 0.50656 0.07537 0.0
C209 C 0.67574 0.48325 0.04079 0.0
C210 C 0.71012 0.55416 0.05093 0.0
N211 N 0.67381 0.55134 0.08161 0.0
O212 O 0.70761 0.55758 0.94801 0.0
H213 H 0.66406 0.44832 0.02692 0.0
H214 H 0.73285 0.58696 0.04537 0.0
O215 O 0.71274 0.459 0.94726 0.0
C216 C 0.72046 0.60254 0.94123 0.0
O217 O 0.76354 0.61845 0.95632 0.0
N218 N 0.79911 0.46906 1.0001 0.0
C219 C 0.89809 0.44282 0.0161 0.0
C220 C 0.87003 0.41693 0.98466 0.0
C221 C 0.82033 0.43076 0.977 0.0
C222 C 0.82399 0.48999 0.03449 0.0
C223 C 0.8735 0.47724 0.04317 0.0
H224 H 0.80193 0.4159 0.9483 0.0
H225 H 0.80807 0.52144 0.0516 0.0
H226 H 0.74246 0.49792 0.87135 0.0
H227 H 0.89091 0.54883 0.86961 0.0
H228 H 0.62052 0.49233 0.09349 0.0
H229 H 0.88781 0.39053 0.96277 0.0
H230 H 0.89385 0.49784 0.06798 0.0
C231 C 0.48485 0.84374 0.16564 0.0
C232 C 0.48374 0.85761 0.1222 0.0
N233 N 0.50189 0.81967 0.09789 0.0
N234 N 0.50395 0.79741 0.16892 0.0
C235 C 0.51373 0.7835 0.12716 0.0
H236 H 0.47155 0.86551 0.19314 0.0
Co237 Co 0.50742 0.76143 0.22109 0.0
C238 C 0.60645 0.70836 0.19668 0.0
O239 O 0.63764 0.73172 0.22282 0.0
N240 N 0.50754 0.72515 0.27382 0.0
C241 C 0.52123 0.6729 0.32946 0.0
C242 C 0.54247 0.69682 0.29385 0.0
C243 C 0.46586 0.71852 0.29824 0.0
N244 N 0.473 0.6867 0.33213 0.0
O245 O 0.46209 0.71509 0.19732 0.0
H246 H 0.58049 0.69247 0.28296 0.0
H247 H 0.43023 0.73515 0.2901 0.0
O248 O 0.56016 0.71962 0.19673 0.0
C249 C 0.41723 0.72779 0.18993 0.0
O250 O 0.40147 0.77164 0.20333 0.0
N251 N 0.55092 0.81004 0.24416 0.0
C252 C 0.57875 0.90898 0.25861 0.0
C253 C 0.60277 0.88053 0.2263 0.0
C254 C 0.58806 0.83099 0.21938 0.0
C255 C 0.53144 0.83547 0.2789 0.0
C256 C 0.54505 0.88492 0.28684 0.0
H257 H 0.60143 0.81235 0.19025 0.0
H258 H 0.50072 0.81979 0.2973 0.0
H259 H 0.52859 0.7473 0.11848 0.0
H260 H 0.46914 0.89243 0.10956 0.0
H261 H 0.53968 0.64691 0.35137 0.0
H262 H 0.62843 0.89788 0.20342 0.0
H263 H 0.52586 0.90553 0.31234 0.0
C264 C 0.25274 0.51527 0.28236 0.0
C265 C 0.2079 0.51394 0.30639 0.0
H266 H 0.28727 0.52083 0.21912 0.0
C267 C 0.16253 0.51692 0.28337 0.0
H268 H 0.2884 0.51256 0.29884 0.0
C269 C 0.16187 0.52081 0.23767 0.0
C270 C 0.20656 0.52222 0.21354 0.0
H271 H 0.12725 0.51664 0.30062 0.0
H272 H 0.12608 0.52227 0.2213 0.0
C273 C 0.25208 0.51936 0.23647 0.0
C274 C 0.50704 0.16104 0.48252 0.0
C275 C 0.50563 0.20631 0.45912 0.0
H276 H 0.51011 0.12492 0.54489 0.0
C277 C 0.50668 0.25128 0.48296 0.0
H278 H 0.50682 0.12561 0.4656 0.0
C279 C 0.50961 0.25086 0.52888 0.0
C280 C 0.51138 0.20547 0.55214 0.0
H281 H 0.50503 0.28696 0.46636 0.0
H282 H 0.51129 0.28617 0.54597 0.0
C283 C 0.50961 0.16063 0.52829 0.0
C284 C 0.77273 0.51437 0.7367 0.0
C285 C 0.81818 0.51335 0.71362 0.0
H286 H 0.7365 0.51812 0.79912 0.0
C287 C 0.86292 0.51602 0.73761 0.0
H288 H 0.73751 0.51209 0.71947 0.0
C289 C 0.86242 0.51843 0.78335 0.0
C290 C 0.81713 0.51885 0.80663 0.0
H291 H 0.89866 0.51622 0.72113 0.0
H292 H 0.89783 0.5192 0.80033 0.0
C293 C 0.77221 0.51718 0.78264 0.0
C294 C 0.51206 0.77155 0.98199 0.0
C295 C 0.5138 0.81627 0.95771 0.0
H296 H 0.50653 0.73738 0.04543 0.0
C297 C 0.51139 0.86179 0.9805 0.0
H298 H 0.51424 0.73578 0.9657 0.0
C299 C 0.50789 0.86272 0.0262 0.0
C300 C 0.50621 0.81816 0.05059 0.0
H301 H 0.51188 0.89701 0.9631 0.0
H302 H 0.50698 0.89862 0.04233 0.0
C303 C 0.50829 0.77248 0.0279 0.0
C304 C 0.03104 0.48874 0.00757 0.0
C305 C 0.05889 0.44433 0.00782 0.0
H306 H 0.95908 0.52272 0.01028 0.0
C307 C 0.03346 0.39854 0.01159 0.0
H308 H 0.04946 0.52466 1.00554 0.0
C309 C 0.98107 0.39742 0.01431 0.0
C310 C 0.95355 0.44214 0.01461 0.0
H311 H 0.05405 0.36376 0.01212 0.0
H312 H 0.96213 0.36182 0.01667 0.0
C313 C 0.97923 0.48766 0.01102 0.0
C314 C 0.62666 0.04302 0.25131 0.0
C315 C 0.58153 0.06985 0.25014 0.0
H316 H 0.66146 0.97059 0.25448 0.0
C317 C 0.53638 0.04341 0.25289 0.0
H318 H 0.662 0.06252 0.24959 0.0
C319 C 0.53609 0.99158 0.25654 0.0
C320 C 0.58094 0.96445 0.25734 0.0
H321 H 0.50098 0.06296 0.25298 0.0
H322 H 0.50045 0.97257 0.258 0.0
C323 C 0.62635 0.99061 0.25424 0.0
C324 C 0.04317 0.54078 0.52356 0.0
C325 C 0.0692 0.58596 0.51846 0.0
H326 H 0.97283 0.50356 0.52411 0.0
C327 C 0.04171 0.62988 0.51038 0.0
H328 H 0.06292 0.50601 0.52885 0.0
C329 C 0.98931 0.62834 0.5074 0.0
C330 C 0.96385 0.58266 0.51138 0.0
H331 H 0.06071 0.66523 0.50615 0.0
H332 H 0.96887 0.66245 0.50098 0.0
C333 C 0.99142 0.53919 0.52009 0.0
C334 C 0.48545 0.0352 0.76277 0.0
C335 C 0.44045 0.06209 0.76159 0.0
H336 H 0.52123 0.96419 0.76066 0.0
C337 C 0.39539 0.03556 0.75694 0.0
H338 H 0.52094 0.0543 0.76537 0.0
C339 C 0.39561 0.98311 0.75398 0.0
C340 C 0.44098 0.95668 0.75447 0.0
H341 H 0.36016 0.0553 0.75572 0.0
H342 H 0.36059 0.96335 0.75059 0.0
C343 C 0.48569 0.98343 0.7593 0.0
C344 C 0.40364 0.65064 0.14582 0.0
C345 C 0.38606 0.69696 0.16082 0.0
H346 H 0.38997 0.58692 0.10553 0.0
C347 C 0.34 0.71491 0.14547 0.0
H348 H 0.43917 0.63594 0.15684 0.0
C349 C 0.31205 0.68705 0.11562 0.0
C350 C 0.32955 0.64064 0.10079 0.0
H351 H 0.32569 0.75068 0.15615 0.0
H352 H 0.27649 0.70166 0.10463 0.0
C353 C 0.37562 0.62271 0.11616 0.0
C354 C 0.3434 0.3167 0.36919 0.0
C355 C 0.38973 0.33434 0.35422 0.0
H356 H 0.27972 0.33028 0.40981 0.0
C357 C 0.40764 0.38034 0.36963 0.0
H358 H 0.32883 0.28117 0.35814 0.0
C359 C 0.37972 0.40825 0.39931 0.0
C360 C 0.33337 0.39069 0.41429 0.0
H361 H 0.44335 0.39483 0.35887 0.0
H362 H 0.39441 0.44377 0.41028 0.0
C363 C 0.31549 0.34459 0.39908 0.0
C364 C 0.62004 0.37447 0.64652 0.0
C365 C 0.63712 0.32782 0.66136 0.0
H366 H 0.63529 0.43928 0.6078 0.0
C367 C 0.68404 0.31056 0.64759 0.0
H368 H 0.5839 0.38868 0.65638 0.0
C369 C 0.71333 0.3394 0.61942 0.0
C370 C 0.69627 0.38606 0.60464 0.0
H371 H 0.69806 0.27462 0.65827 0.0
H372 H 0.74947 0.32525 0.60953 0.0
C373 C 0.64936 0.40334 0.61847 0.0
C374 C 0.70871 0.68003 0.89662 0.0
C375 C 0.69062 0.63373 0.9113 0.0
H376 H 0.69615 0.74382 0.85569 0.0
C377 C 0.64495 0.61592 0.89503 0.0
H378 H 0.74402 0.6945 0.90831 0.0
C379 C 0.61779 0.64392 0.86479 0.0
C380 C 0.63578 0.69027 0.85011 0.0
H381 H 0.63015 0.58022 0.90553 0.0
H382 H 0.58249 0.62932 0.85317 0.0
C383 C 0.68156 0.70803 0.86617 0.0
C384 C 0.36029 0.35027 0.10785 0.0
C385 C 0.35515 0.40138 0.09805 0.0
H386 H 0.4011 0.29404 0.14328 0.0
C387 C 0.38896 0.43522 0.11701 0.0
H388 H 0.3348 0.32321 0.09395 0.0
C389 C 0.42715 0.41841 0.14471 0.0
C390 C 0.43213 0.36741 0.15479 0.0
H391 H 0.38616 0.47484 0.11028 0.0
H392 H 0.45228 0.44556 0.15891 0.0
C393 C 0.39808 0.33354 0.13624 0.0
C394 C 0.62086 0.35941 0.38759 0.0
C395 C 0.63279 0.3598 0.34263 0.0
H396 H 0.63131 0.3939 0.45052 0.0
C397 C 0.66512 0.39694 0.32662 0.0
H398 H 0.59636 0.33116 0.40095 0.0
C399 C 0.68422 0.43357 0.35488 0.0
C400 C 0.67247 0.43291 0.39989 0.0
H401 H 0.67469 0.39838 0.29207 0.0
H402 H 0.70869 0.46206 0.34174 0.0
C403 C 0.64101 0.39515 0.416 0.0
C404 C 0.56096 0.6369 0.6046 0.0
C405 C 0.5783 0.65484 0.6453 0.0
H406 H 0.5769 0.59537 0.54634 0.0
C407 C 0.62916 0.64735 0.65571 0.0
H408 H 0.52278 0.6426 0.59438 0.0
C409 C 0.66081 0.62087 0.62722 0.0
C410 C 0.64231 0.6007 0.58788 0.0
H411 H 0.64445 0.66032 0.68648 0.0
H412 H 0.69906 0.61417 0.63705 0.0
C413 C 0.59232 0.61001 0.57658 0.0
C414 C 0.38175 0.55851 0.85813 0.0
C415 C 0.36446 0.57713 0.8986 0.0
H416 H 0.42372 0.57201 0.79954 0.0
C417 C 0.37367 0.62788 0.90824 0.0
H418 H 0.37468 0.52039 0.84847 0.0
C419 C 0.40119 0.65815 0.87918 0.0
C420 C 0.42067 0.63826 0.84009 0.0
H421 H 0.36126 0.64405 0.93884 0.0
H422 H 0.40923 0.69633 0.88838 0.0
C423 C 0.40968 0.58843 0.8296 0.0
C424 C 0.39862 0.5995 0.40357 0.0
C425 C 0.36173 0.63142 0.42064 0.0
H426 H 0.46336 0.59234 0.36258 0.0
C427 C 0.36246 0.68206 0.40836 0.0
H428 H 0.39918 0.5603 0.41236 0.0
C429 C 0.39875 0.70014 0.37914 0.0
C430 C 0.43583 0.66827 0.36246 0.0
H431 H 0.33448 0.70757 0.42076 0.0
H432 H 0.39821 0.73918 0.36992 0.0
C433 C 0.43556 0.61784 0.37526 0.0
C434 C 0.33029 0.40173 0.63221 0.0
C435 C 0.36368 0.43701 0.61465 0.0
H436 H 0.32053 0.33769 0.67393 0.0
C437 C 0.41437 0.43375 0.6261 0.0
H438 H 0.29102 0.4035 0.62404 0.0
C439 C 0.43146 0.39562 0.65386 0.0
C440 C 0.39807 0.36047 0.67173 0.0
H441 H 0.44102 0.46007 0.61274 0.0
H442 H 0.47089 0.39387 0.66154 0.0
C443 C 0.34718 0.36424 0.66088 0.0
C444 C 0.66383 0.40324 0.8767 0.0
C445 C 0.66225 0.39188 0.92178 0.0
H446 H 0.62982 0.39355 0.81342 0.0
C447 C 0.62343 0.36151 0.93764 0.0
H448 H 0.69339 0.42624 0.86348 0.0
C449 C 0.58634 0.34379 0.9091 0.0
C450 C 0.58817 0.35494 0.86398 0.0
H451 H 0.62107 0.35247 0.97228 0.0
H452 H 0.55658 0.3208 0.92213 0.0
C453 C 0.62759 0.3844 0.84803 0.0
C454 C 0.59008 0.63451 0.14824 0.0
C455 C 0.62435 0.66775 0.16741 0.0
H456 H 0.57895 0.57147 0.10628 0.0
C457 C 0.67541 0.66179 0.15802 0.0
H458 H 0.55047 0.63794 0.15469 0.0
C459 C 0.69168 0.62379 0.12974 0.0
C460 C 0.65736 0.59037 0.11094 0.0
H461 H 0.70277 0.68682 0.1721 0.0
H462 H 0.73115 0.62015 0.12294 0.0
C463 C 0.60641 0.59612 0.12069 0.0
loop_
_geom_bond_atom_site_label_1
_geom_bond_atom_site_label_2
_geom_bond_distance
_geom_bond_site_symmetry_2
_ccdc_geom_bond_type
C0 C1 1.351 . S
C0 N3 1.368 . S
C0 H5 0.931 . S
C1 C0 1.351 . S
C1 N2 1.373 . S
C1 H29 0.930 . S
N2 C1 1.373 . S
N2 C4 1.340 . S
N3 C0 1.368 . S
N3 C4 1.321 . S
N3 Co6 2.135 . S
C4 N2 1.340 . S
C4 N3 1.321 . S
C4 H28 0.930 . S
H5 C0 0.931 . S
Co6 N3 2.135 . S
Co6 N9 2.121 . S
Co6 O14 2.055 . S
Co6 O17 2.039 . S
Co6 N20 2.140 . S
C7 O8 1.227 . S
C7 O17 1.265 . S
O8 C7 1.227 . S
N9 Co6 2.121 . S
N9 C11 1.375 1_554 S
N9 C12 1.313 1_554 S
C10 C11 1.338 . S
C10 N13 1.377 . S
C10 H30 0.930 . S
C11 N9 1.375 1_556 S
C11 C10 1.338 . S
C11 H15 0.931 . S
C12 N9 1.313 1_556 S
C12 N13 1.344 . S
C12 H16 0.930 . S
N13 C10 1.377 . S
N13 C12 1.344 . S
O14 Co6 2.055 . S
O14 C18 1.253 . S
H15 C11 0.931 . S
H16 C12 0.930 . S
O17 Co6 2.039 . S
O17 C7 1.265 . S
C18 O14 1.253 . S
C18 O19 1.227 . S
O19 C18 1.227 . S
N20 Co6 2.140 . S
N20 C23 1.346 . S
N20 C24 1.345 . S
C21 C22 1.387 . S
C21 C25 1.391 1_554 S
C22 C21 1.387 . S
C22 C23 1.369 . S
C22 H31 0.929 . S
C23 N20 1.346 . S
C23 C22 1.369 . S
C23 H26 0.928 . S
C24 N20 1.345 . S
C24 C25 1.371 1_554 S
C24 H27 0.931 1_554 S
C25 C21 1.391 1_556 S
C25 C24 1.371 1_556 S
C25 H32 0.930 . S
H26 C23 0.928 . S
H27 C24 0.931 1_556 S
H28 C4 0.930 . S
H29 C1 0.930 . S
H30 C10 0.930 . S
H31 C22 0.929 . S
H32 C25 0.930 . S
C33 C34 1.351 . S
C33 N36 1.368 . S
C33 H38 0.931 . S
C34 C33 1.351 . S
C34 N35 1.373 . S
C34 H62 0.930 . S
N35 C34 1.373 . S
N35 C37 1.340 . S
N36 C33 1.368 . S
N36 C37 1.321 . S
N36 Co39 2.135 . S
C37 N35 1.340 . S
C37 N36 1.321 . S
C37 H61 0.930 . S
H38 C33 0.931 . S
Co39 N36 2.135 . S
Co39 N42 2.121 . S
Co39 O47 2.055 . S
Co39 O50 2.039 . S
Co39 N53 2.140 . S
C40 O41 1.227 . S
C40 O50 1.265 . S
O41 C40 1.227 . S
N42 Co39 2.121 . S
N42 C44 1.375 . S
N42 C45 1.313 . S
C43 C44 1.338 . S
C43 N46 1.377 . S
C43 H63 0.930 . S
C44 N42 1.375 . S
C44 C43 1.338 . S
C44 H48 0.931 . S
C45 N42 1.313 . S
C45 N46 1.344 . S
C45 H49 0.930 . S
N46 C43 1.377 . S
N46 C45 1.344 . S
O47 Co39 2.055 . S
O47 C51 1.253 . S
H48 C44 0.931 . S
H49 C45 0.930 . S
O50 Co39 2.039 . S
O50 C40 1.265 . S
C51 O47 1.253 . S
C51 O52 1.227 . S
O52 C51 1.227 . S
N53 Co39 2.140 . S
N53 C56 1.346 . S
N53 C57 1.345 . S
C54 C55 1.387 . S
C54 C58 1.391 . S
C55 C54 1.387 . S
C55 C56 1.369 . S
C55 H64 0.929 . S
C56 N53 1.346 . S
C56 C55 1.369 . S
C56 H59 0.928 . S
C57 N53 1.345 . S
C57 C58 1.371 . S
C57 H60 0.931 . S
C58 C54 1.391 . S
C58 C57 1.371 . S
C58 H65 0.930 . S
H59 C56 0.928 . S
H60 C57 0.931 . S
H61 C37 0.930 . S
H62 C34 0.930 . S
H63 C43 0.930 . S
H64 C55 0.929 . S
H65 C58 0.930 . S
C66 C67 1.351 . S
C66 N69 1.368 . S
C66 H71 0.931 . S
C67 C66 1.351 . S
C67 N68 1.373 . S
C67 H95 0.930 . S
N68 C67 1.373 . S
N68 C70 1.340 . S
N69 C66 1.368 . S
N69 C70 1.321 . S
N69 Co72 2.135 . S
C70 N68 1.340 . S
C70 N69 1.321 . S
C70 H94 0.930 . S
H71 C66 0.931 . S
Co72 N69 2.135 . S
Co72 N75 2.121 . S
Co72 O80 2.055 . S
Co72 O83 2.039 . S
Co72 N86 2.140 . S
C73 O74 1.227 . S
C73 O83 1.265 . S
O74 C73 1.227 . S
N75 Co72 2.121 . S
N75 C77 1.375 . S
N75 C78 1.313 . S
C76 C77 1.338 . S
C76 N79 1.377 . S
C76 H96 0.930 . S
C77 N75 1.375 . S
C77 C76 1.338 . S
C77 H81 0.931 . S
C78 N75 1.313 . S
C78 N79 1.344 . S
C78 H82 0.930 . S
N79 C76 1.377 . S
N79 C78 1.344 . S
O80 Co72 2.055 . S
O80 C84 1.253 . S
H81 C77 0.931 . S
H82 C78 0.930 . S
O83 Co72 2.039 . S
O83 C73 1.265 . S
C84 O80 1.253 . S
C84 O85 1.227 . S
O85 C84 1.227 . S
N86 Co72 2.140 . S
N86 C89 1.346 . S
N86 C90 1.345 . S
C87 C88 1.387 . S
C87 C91 1.391 . S
C88 C87 1.387 . S
C88 C89 1.369 . S
C88 H97 0.929 . S
C89 N86 1.346 . S
C89 C88 1.369 . S
C89 H92 0.928 . S
C90 N86 1.345 . S
C90 C91 1.371 . S
C90 H93 0.931 . S
C91 C87 1.391 . S
C91 C90 1.371 . S
C91 H98 0.930 . S
H92 C89 0.928 . S
H93 C90 0.931 . S
H94 C70 0.930 . S
H95 C67 0.930 . S
H96 C76 0.930 . S
H97 C88 0.929 . S
H98 C91 0.930 . S
C99 C100 1.351 . S
C99 N102 1.368 . S
C99 H104 0.931 . S
C100 C99 1.351 . S
C100 N101 1.373 . S
C100 H128 0.930 . S
N101 C100 1.373 . S
N101 C103 1.340 . S
N102 C99 1.368 . S
N102 C103 1.321 . S
N102 Co105 2.135 . S
C103 N101 1.340 . S
C103 N102 1.321 . S
C103 H127 0.930 . S
H104 C99 0.931 . S
Co105 N102 2.135 . S
Co105 N108 2.121 . S
Co105 O113 2.055 . S
Co105 O116 2.039 . S
Co105 N119 2.140 . S
C106 O107 1.227 . S
C106 O116 1.265 . S
O107 C106 1.227 . S
N108 Co105 2.121 . S
N108 C110 1.375 . S
N108 C111 1.313 . S
C109 C110 1.338 . S
C109 N112 1.377 . S
C109 H129 0.930 . S
C110 N108 1.375 . S
C110 C109 1.338 . S
C110 H114 0.931 . S
C111 N108 1.313 . S
C111 N112 1.344 . S
C111 H115 0.930 . S
N112 C109 1.377 . S
N112 C111 1.344 . S
O113 Co105 2.055 . S
O113 C117 1.253 . S
H114 C110 0.931 . S
H115 C111 0.930 . S
O116 Co105 2.039 . S
O116 C106 1.265 . S
C117 O113 1.253 . S
C117 O118 1.227 . S
O118 C117 1.227 . S
N119 Co105 2.140 . S
N119 C122 1.346 . S
N119 C123 1.345 . S
C120 C121 1.387 . S
C120 C124 1.391 . S
C121 C120 1.387 . S
C121 C122 1.369 . S
C121 H130 0.929 . S
C122 N119 1.346 . S
C122 C121 1.369 . S
C122 H125 0.928 . S
C123 N119 1.345 . S
C123 C124 1.371 . S
C123 H126 0.931 . S
C124 C120 1.391 . S
C124 C123 1.371 . S
C124 H131 0.930 . S
H125 C122 0.928 . S
H126 C123 0.931 . S
H127 C103 0.930 . S
H128 C100 0.930 . S
H129 C109 0.930 . S
H130 C121 0.929 . S
H131 C124 0.930 . S
C132 C133 1.351 . S
C132 N135 1.368 . S
C132 H137 0.931 . S
C133 C132 1.351 . S
C133 N134 1.373 . S
C133 H161 0.930 . S
N134 C133 1.373 . S
N134 C136 1.340 . S
N135 C132 1.368 . S
N135 C136 1.321 . S
N135 Co138 2.135 . S
C136 N134 1.340 . S
C136 N135 1.321 . S
C136 H160 0.930 . S
H137 C132 0.931 . S
Co138 N135 2.135 . S
Co138 N141 2.121 . S
Co138 O146 2.055 . S
Co138 O149 2.039 . S
Co138 N152 2.140 . S
C139 O140 1.227 . S
C139 O149 1.265 . S
O140 C139 1.227 . S
N141 Co138 2.121 . S
N141 C143 1.375 . S
N141 C144 1.313 . S
C142 C143 1.338 . S
C142 N145 1.377 . S
C142 H162 0.930 . S
C143 N141 1.375 . S
C143 C142 1.338 . S
C143 H147 0.931 . S
C144 N141 1.313 . S
C144 N145 1.344 . S
C144 H148 0.930 . S
N145 C142 1.377 . S
N145 C144 1.344 . S
O146 Co138 2.055 . S
O146 C150 1.253 . S
H147 C143 0.931 . S
H148 C144 0.930 . S
O149 Co138 2.039 . S
O149 C139 1.265 . S
C150 O146 1.253 . S
C150 O151 1.227 . S
O151 C150 1.227 . S
N152 Co138 2.140 . S
N152 C155 1.346 . S
N152 C156 1.345 . S
C153 C154 1.387 . S
C153 C157 1.391 . S
C154 C153 1.387 . S
C154 C155 1.369 . S
C154 H163 0.929 . S
C155 N152 1.346 . S
C155 C154 1.369 . S
C155 H158 0.928 . S
C156 N152 1.345 . S
C156 C157 1.371 . S
C156 H159 0.931 . S
C157 C153 1.391 . S
C157 C156 1.371 . S
C157 H164 0.930 . S
H158 C155 0.928 . S
H159 C156 0.931 . S
H160 C136 0.930 . S
H161 C133 0.930 . S
H162 C142 0.930 . S
H163 C154 0.929 . S
H164 C157 0.930 . S
C165 C166 1.351 . S
C165 N168 1.368 . S
C165 H170 0.931 . S
C166 C165 1.351 . S
C166 N167 1.373 . S
C166 H194 0.930 . S
N167 C166 1.373 . S
N167 C169 1.340 . S
N168 C165 1.368 . S
N168 C169 1.321 . S
N168 Co171 2.135 . S
C169 N167 1.340 . S
C169 N168 1.321 . S
C169 H193 0.930 . S
H170 C165 0.931 . S
Co171 N168 2.135 . S
Co171 N174 2.121 . S
Co171 O179 2.055 . S
Co171 O182 2.039 . S
Co171 N185 2.140 . S
C172 O173 1.227 . S
C172 O182 1.265 . S
O173 C172 1.227 . S
N174 Co171 2.121 . S
N174 C176 1.375 . S
N174 C177 1.313 . S
C175 C176 1.338 . S
C175 N178 1.377 . S
C175 H195 0.930 . S
C176 N174 1.375 . S
C176 C175 1.338 . S
C176 H180 0.931 . S
C177 N174 1.313 . S
C177 N178 1.344 . S
C177 H181 0.930 . S
N178 C175 1.377 . S
N178 C177 1.344 . S
O179 Co171 2.055 . S
O179 C183 1.253 . S
H180 C176 0.931 . S
H181 C177 0.930 . S
O182 Co171 2.039 . S
O182 C172 1.265 . S
C183 O179 1.253 . S
C183 O184 1.227 . S
O184 C183 1.227 . S
N185 Co171 2.140 . S
N185 C188 1.346 . S
N185 C189 1.345 . S
C186 C187 1.387 . S
C186 C190 1.391 . S
C187 C186 1.387 . S
C187 C188 1.369 . S
C187 H196 0.929 . S
C188 N185 1.346 . S
C188 C187 1.369 . S
C188 H191 0.928 . S
C189 N185 1.345 . S
C189 C190 1.371 . S
C189 H192 0.931 . S
C190 C186 1.391 . S
C190 C189 1.371 . S
C190 H197 0.930 . S
H191 C188 0.928 . S
H192 C189 0.931 . S
H193 C169 0.930 . S
H194 C166 0.930 . S
H195 C175 0.930 . S
H196 C187 0.929 . S
H197 C190 0.930 . S
C198 C199 1.351 . S
C198 N201 1.368 . S
C198 H203 0.931 . S
C199 C198 1.351 . S
C199 N200 1.373 . S
C199 H227 0.930 . S
N200 C199 1.373 . S
N200 C202 1.340 . S
N201 C198 1.368 . S
N201 C202 1.321 . S
N201 Co204 2.135 . S
C202 N200 1.340 . S
C202 N201 1.321 . S
C202 H226 0.930 . S
H203 C198 0.931 . S
Co204 N201 2.135 . S
Co204 N207 2.121 . S
Co204 O212 2.055 . S
Co204 O215 2.039 . S
Co204 N218 2.140 . S
C205 O206 1.227 . S
C205 O215 1.265 . S
O206 C205 1.227 . S
N207 Co204 2.121 . S
N207 C209 1.375 1_556 S
N207 C210 1.313 1_556 S
C208 C209 1.338 . S
C208 N211 1.377 . S
C208 H228 0.930 . S
C209 N207 1.375 1_554 S
C209 C208 1.338 . S
C209 H213 0.931 . S
C210 N207 1.313 1_554 S
C210 N211 1.344 . S
C210 H214 0.930 . S
N211 C208 1.377 . S
N211 C210 1.344 . S
O212 Co204 2.055 . S
O212 C216 1.253 . S
H213 C209 0.931 . S
H214 C210 0.930 . S
O215 Co204 2.039 . S
O215 C205 1.265 . S
C216 O212 1.253 . S
C216 O217 1.227 . S
O217 C216 1.227 . S
N218 Co204 2.140 . S
N218 C221 1.346 . S
N218 C222 1.345 . S
C219 C220 1.387 . S
C219 C223 1.391 1_556 S
C220 C219 1.387 . S
C220 C221 1.369 . S
C220 H229 0.929 . S
C221 N218 1.346 . S
C221 C220 1.369 . S
C221 H224 0.928 . S
C222 N218 1.345 . S
C222 C223 1.371 1_556 S
C222 H225 0.931 1_556 S
C223 C219 1.391 1_554 S
C223 C222 1.371 1_554 S
C223 H230 0.930 . S
H224 C221 0.928 . S
H225 C222 0.931 1_554 S
H226 C202 0.930 . S
H227 C199 0.930 . S
H228 C208 0.930 . S
H229 C220 0.929 . S
H230 C223 0.930 . S
C231 C232 1.351 . S
C231 N234 1.368 . S
C231 H236 0.931 . S
C232 C231 1.351 . S
C232 N233 1.373 . S
C232 H260 0.930 . S
N233 C232 1.373 . S
N233 C235 1.340 . S
N234 C231 1.368 . S
N234 C235 1.321 . S
N234 Co237 2.135 . S
C235 N233 1.340 . S
C235 N234 1.321 . S
C235 H259 0.930 . S
H236 C231 0.931 . S
Co237 N234 2.135 . S
Co237 N240 2.121 . S
Co237 O245 2.055 . S
Co237 O248 2.039 . S
Co237 N251 2.140 . S
C238 O239 1.227 . S
C238 O248 1.265 . S
O239 C238 1.227 . S
N240 Co237 2.121 . S
N240 C242 1.375 . S
N240 C243 1.313 . S
C241 C242 1.338 . S
C241 N244 1.377 . S
C241 H261 0.930 . S
C242 N240 1.375 . S
C242 C241 1.338 . S
C242 H246 0.931 . S
C243 N240 1.313 . S
C243 N244 1.344 . S
C243 H247 0.930 . S
N244 C241 1.377 . S
N244 C243 1.344 . S
O245 Co237 2.055 . S
O245 C249 1.253 . S
H246 C242 0.931 . S
H247 C243 0.930 . S
O248 Co237 2.039 . S
O248 C238 1.265 . S
C249 O245 1.253 . S
C249 O250 1.227 . S
O250 C249 1.227 . S
N251 Co237 2.140 . S
N251 C254 1.346 . S
N251 C255 1.345 . S
C252 C253 1.387 . S
C252 C256 1.391 . S
C253 C252 1.387 . S
C253 C254 1.369 . S
C253 H262 0.929 . S
C254 N251 1.346 . S
C254 C253 1.369 . S
C254 H257 0.928 . S
C255 N251 1.345 . S
C255 C256 1.371 . S
C255 H258 0.931 . S
C256 C252 1.391 . S
C256 C255 1.371 . S
C256 H263 0.930 . S
H257 C254 0.928 . S
H258 C255 0.931 . S
H259 C235 0.930 . S
H260 C232 0.930 . S
H261 C241 0.930 . S
H262 C253 0.929 . S
H263 C256 0.930 . S
C264 C265 1.387 . S
C264 H268 0.950 . S
C264 C273 1.390 . S
C265 C264 1.387 . S
C265 C267 1.387 . S
H266 C273 0.950 . S
C267 C265 1.387 . S
C267 C269 1.390 . S
C267 H271 0.950 . S
H268 C264 0.950 . S
C269 C267 1.390 . S
C269 C270 1.387 . S
C269 H272 0.950 . S
C270 C269 1.387 . S
C270 C273 1.387 . S
H271 C267 0.950 . S
H272 C269 0.950 . S
C273 C264 1.390 . S
C273 H266 0.950 . S
C273 C270 1.387 . S
C274 C275 1.387 . S
C274 H278 0.950 . S
C274 C283 1.390 . S
C275 C274 1.387 . S
C275 C277 1.387 . S
H276 C283 0.950 . S
C277 C275 1.387 . S
C277 C279 1.390 . S
C277 H281 0.950 . S
H278 C274 0.950 . S
C279 C277 1.390 . S
C279 C280 1.387 . S
C279 H282 0.950 . S
C280 C279 1.387 . S
C280 C283 1.387 . S
H281 C277 0.950 . S
H282 C279 0.950 . S
C283 C274 1.390 . S
C283 H276 0.950 . S
C283 C280 1.387 . S
C284 C285 1.387 . S
C284 H288 0.950 . S
C284 C293 1.390 . S
C285 C284 1.387 . S
C285 C287 1.387 . S
H286 C293 0.950 . S
C287 C285 1.387 . S
C287 C289 1.390 . S
C287 H291 0.950 . S
H288 C284 0.950 . S
C289 C287 1.390 . S
C289 C290 1.387 . S
C289 H292 0.950 . S
C290 C289 1.387 . S
C290 C293 1.387 . S
H291 C287 0.950 . S
H292 C289 0.950 . S
C293 C284 1.390 . S
C293 H286 0.950 . S
C293 C290 1.387 . S
C294 C295 1.387 . S
C294 H298 0.950 . S
C294 C303 1.390 1_556 S
C295 C294 1.387 . S
C295 C297 1.387 . S
H296 C303 0.950 . S
C297 C295 1.387 . S
C297 C299 1.390 1_556 S
C297 H301 0.950 . S
H298 C294 0.950 . S
C299 C297 1.390 1_554 S
C299 C300 1.387 . S
C299 H302 0.950 . S
C300 C299 1.387 . S
C300 C303 1.387 . S
H301 C297 0.950 . S
H302 C299 0.950 . S
C303 C294 1.390 1_554 S
C303 H296 0.950 . S
C303 C300 1.387 . S
C304 C305 1.387 . S
C304 H308 0.950 . S
C304 C313 1.390 1_456 S
C305 C304 1.387 . S
C305 C307 1.387 . S
H306 C313 0.950 . S
C307 C305 1.387 . S
C307 C309 1.390 1_456 S
C307 H311 0.950 . S
H308 C304 0.950 . S
C309 C307 1.390 1_654 S
C309 C310 1.387 . S
C309 H312 0.950 . S
C310 C309 1.387 . S
C310 C313 1.387 . S
H311 C307 0.950 . S
H312 C309 0.950 . S
C313 C304 1.390 1_654 S
C313 H306 0.950 . S
C313 C310 1.387 . S
C314 C315 1.387 . S
C314 H318 0.950 . S
C314 C323 1.390 1_545 S
C315 C314 1.387 . S
C315 C317 1.387 . S
H316 C323 0.950 . S
C317 C315 1.387 . S
C317 C319 1.390 1_545 S
C317 H321 0.950 . S
H318 C314 0.950 . S
C319 C317 1.390 1_565 S
C319 C320 1.387 . S
C319 H322 0.950 . S
C320 C319 1.387 . S
C320 C323 1.387 . S
H321 C317 0.950 . S
H322 C319 0.950 . S
C323 C314 1.390 1_565 S
C323 H316 0.950 . S
C323 C320 1.387 . S
C324 C325 1.387 . S
C324 H328 0.950 . S
C324 C333 1.390 1_455 S
C325 C324 1.387 . S
C325 C327 1.387 . S
H326 C333 0.950 . S
C327 C325 1.387 . S
C327 C329 1.390 1_455 S
C327 H331 0.950 . S
H328 C324 0.950 . S
C329 C327 1.390 1_655 S
C329 C330 1.387 . S
C329 H332 0.950 . S
C330 C329 1.387 . S
C330 C333 1.387 . S
H331 C327 0.950 . S
H332 C329 0.950 . S
C333 C324 1.390 1_655 S
C333 H326 0.950 . S
C333 C330 1.387 . S
C334 C335 1.387 . S
C334 H338 0.950 . S
C334 C343 1.390 1_545 S
C335 C334 1.387 . S
C335 C337 1.387 . S
H336 C343 0.950 . S
C337 C335 1.387 . S
C337 C339 1.390 1_545 S
C337 H341 0.950 . S
H338 C334 0.950 . S
C339 C337 1.390 1_565 S
C339 C340 1.387 . S
C339 H342 0.950 . S
C340 C339 1.387 . S
C340 C343 1.387 . S
H341 C337 0.950 . S
H342 C339 0.950 . S
C343 C334 1.390 1_565 S
C343 H336 0.950 . S
C343 C340 1.387 . S
C344 C345 1.387 . S
C344 H348 0.950 . S
C344 C353 1.390 . S
C345 C344 1.387 . S
C345 C347 1.387 . S
H346 C353 0.950 . S
C347 C345 1.387 . S
C347 C349 1.390 . S
C347 H351 0.950 . S
H348 C344 0.950 . S
C349 C347 1.390 . S
C349 C350 1.387 . S
C349 H352 0.950 . S
C350 C349 1.387 . S
C350 C353 1.387 . S
H351 C347 0.950 . S
H352 C349 0.950 . S
C353 C344 1.390 . S
C353 H346 0.950 . S
C353 C350 1.387 . S
C354 C355 1.387 . S
C354 H358 0.950 . S
C354 C363 1.390 . S
C355 C354 1.387 . S
C355 C357 1.387 . S
H356 C363 0.950 . S
C357 C355 1.387 . S
C357 C359 1.390 . S
C357 H361 0.950 . S
H358 C354 0.950 . S
C359 C357 1.390 . S
C359 C360 1.387 . S
C359 H362 0.950 . S
C360 C359 1.387 . S
C360 C363 1.387 . S
H361 C357 0.950 . S
H362 C359 0.950 . S
C363 C354 1.390 . S
C363 H356 0.950 . S
C363 C360 1.387 . S
C364 C365 1.387 . S
C364 H368 0.950 . S
C364 C373 1.390 . S
C365 C364 1.387 . S
C365 C367 1.387 . S
H366 C373 0.950 . S
C367 C365 1.387 . S
C367 C369 1.390 . S
C367 H371 0.950 . S
H368 C364 0.950 . S
C369 C367 1.390 . S
C369 C370 1.387 . S
C369 H372 0.950 . S
C370 C369 1.387 . S
C370 C373 1.387 . S
H371 C367 0.950 . S
H372 C369 0.950 . S
C373 C364 1.390 . S
C373 H366 0.950 . S
C373 C370 1.387 . S
C374 C375 1.387 . S
C374 H378 0.950 . S
C374 C383 1.390 . S
C375 C374 1.387 . S
C375 C377 1.387 . S
H376 C383 0.950 . S
C377 C375 1.387 . S
C377 C379 1.390 . S
C377 H381 0.950 . S
H378 C374 0.950 . S
C379 C377 1.390 . S
C379 C380 1.387 . S
C379 H382 0.950 . S
C380 C379 1.387 . S
C380 C383 1.387 . S
H381 C377 0.950 . S
H382 C379 0.950 . S
C383 C374 1.390 . S
C383 H376 0.950 . S
C383 C380 1.387 . S
C384 C385 1.387 . S
C384 H388 0.950 . S
C384 C393 1.390 . S
C385 C384 1.387 . S
C385 C387 1.387 . S
H386 C393 0.950 . S
C387 C385 1.387 . S
C387 C389 1.390 . S
C387 H391 0.950 . S
H388 C384 0.950 . S
C389 C387 1.390 . S
C389 C390 1.387 . S
C389 H392 0.950 . S
C390 C389 1.387 . S
C390 C393 1.387 . S
H391 C387 0.950 . S
H392 C389 0.950 . S
C393 C384 1.390 . S
C393 H386 0.950 . S
C393 C390 1.387 . S
C394 C395 1.387 . S
C394 H398 0.950 . S
C394 C403 1.390 . S
C395 C394 1.387 . S
C395 C397 1.387 . S
H396 C403 0.950 . S
C397 C395 1.387 . S
C397 C399 1.390 . S
C397 H401 0.950 . S
H398 C394 0.950 . S
C399 C397 1.390 . S
C399 C400 1.387 . S
C399 H402 0.950 . S
C400 C399 1.387 . S
C400 C403 1.387 . S
H401 C397 0.950 . S
H402 C399 0.950 . S
C403 C394 1.390 . S
C403 H396 0.950 . S
C403 C400 1.387 . S
C404 C405 1.387 . S
C404 H408 0.950 . S
C404 C413 1.390 . S
C405 C404 1.387 . S
C405 C407 1.387 . S
H406 C413 0.950 . S
C407 C405 1.387 . S
C407 C409 1.390 . S
C407 H411 0.950 . S
H408 C404 0.950 . S
C409 C407 1.390 . S
C409 C410 1.387 . S
C409 H412 0.950 . S
C410 C409 1.387 . S
C410 C413 1.387 . S
H411 C407 0.950 . S
H412 C409 0.950 . S
C413 C404 1.390 . S
C413 H406 0.950 . S
C413 C410 1.387 . S
C414 C415 1.387 . S
C414 H418 0.950 . S
C414 C423 1.390 . S
C415 C414 1.387 . S
C415 C417 1.387 . S
H416 C423 0.950 . S
C417 C415 1.387 . S
C417 C419 1.390 . S
C417 H421 0.950 . S
H418 C414 0.950 . S
C419 C417 1.390 . S
C419 C420 1.387 . S
C419 H422 0.950 . S
C420 C419 1.387 . S
C420 C423 1.387 . S
H421 C417 0.950 . S
H422 C419 0.950 . S
C423 C414 1.390 . S
C423 H416 0.950 . S
C423 C420 1.387 . S
C424 C425 1.387 . S
C424 H428 0.950 . S
C424 C433 1.390 . S
C425 C424 1.387 . S
C425 C427 1.387 . S
H426 C433 0.950 . S
C427 C425 1.387 . S
C427 C429 1.390 . S
C427 H431 0.950 . S
H428 C424 0.950 . S
C429 C427 1.390 . S
C429 C430 1.387 . S
C429 H432 0.950 . S
C430 C429 1.387 . S
C430 C433 1.387 . S
H431 C427 0.950 . S
H432 C429 0.950 . S
C433 C424 1.390 . S
C433 H426 0.950 . S
C433 C430 1.387 . S
C434 C435 1.387 . S
C434 H438 0.950 . S
C434 C443 1.390 . S
C435 C434 1.387 . S
C435 C437 1.387 . S
H436 C443 0.950 . S
C437 C435 1.387 . S
C437 C439 1.390 . S
C437 H441 0.950 . S
H438 C434 0.950 . S
C439 C437 1.390 . S
C439 C440 1.387 . S
C439 H442 0.950 . S
C440 C439 1.387 . S
C440 C443 1.387 . S
H441 C437 0.950 . S
H442 C439 0.950 . S
C443 C434 1.390 . S
C443 H436 0.950 . S
C443 C440 1.387 . S
C444 C445 1.387 . S
C444 H448 0.950 . S
C444 C453 1.390 . S
C445 C444 1.387 . S
C445 C447 1.387 . S
H446 C453 0.950 . S
C447 C445 1.387 . S
C447 C449 1.390 . S
C447 H451 0.950 . S
H448 C444 0.950 . S
C449 C447 1.390 . S
C449 C450 1.387 . S
C449 H452 0.950 . S
C450 C449 1.387 . S
C450 C453 1.387 . S
H451 C447 0.950 . S
H452 C449 0.950 . S
C453 C444 1.390 . S
C453 H446 0.950 . S
C453 C450 1.387 . S
C454 C455 1.387 . S
C454 H458 0.950 . S
C454 C463 1.390 . S
C455 C454 1.387 . S
C455 C457 1.387 . S
H456 C463 0.950 . S
C457 C455 1.387 . S
C457 C459 1.390 . S
C457 H461 0.950 . S
H458 C454 0.950 . S
C459 C457 1.390 . S
C459 C460 1.387 . S
C459 H462 0.950 . S
C460 C459 1.387 . S
C460 C463 1.387 . S
H461 C457 0.950 . S
H462 C459 0.950 . S
C463 C454 1.390 . S
C463 H456 0.950 . S
C463 C460 1.387 . S
C265 N134 0.701 . S
C270 N2 0.701 . S
C275 N35 0.696 . S
C280 N167 0.696 . S
C285 N68 0.702 . S
C290 N200 0.702 . S
C295 N101 0.702 . S
C300 N233 0.702 . S
C305 C21 1.200 1_556 S
C310 C219 1.200 1_554 S
C315 C54 1.204 . S
C320 C252 1.204 . S
C325 C153 1.200 . S
C330 C87 1.200 . S
C335 C186 1.200 . S
C340 C120 1.200 . S
C345 C249 0.842 . S
C350 C18 0.845 . S
C355 C51 0.848 . S
C360 C150 0.846 . S
C365 C183 0.841 . S
C370 C84 0.842 . S
C375 C216 0.847 . S
C380 C117 0.849 . S
C385 C7 1.879 . S
C390 N46 1.972 . S
C395 C40 1.880 . S
C400 N79 1.972 . S
C405 N112 1.972 . S
C410 C73 1.880 . S
C415 N13 1.972 . S
C420 C106 1.882 . S
C425 C139 1.881 . S
C430 N244 1.972 . S
C435 N145 1.972 . S
C440 C172 1.880 . S
C445 C205 1.880 . S
C450 N178 1.972 . S
C455 C238 1.882 . S
C460 N211 1.972 . S
