# Generated by pormake.
# Topology ukg, (4)-cn, num edge types: 1
# Building blocks:
#     Node 0, Type 0, BuildingBlock: QUQFOY_clean_sbu_1, # of connection points: 4
#     Node 1, Type 0, BuildingBlock: QUQFOY_clean_sbu_1, # of connection points: 4
#     Node 2, Type 0, BuildingBlock: QUQFOY_clean_sbu_1, # of connection points: 4
#     Node 3, Type 0, BuildingBlock: QUQFOY_clean_sbu_1, # of connection points: 4
#     Node 4, Type 0, BuildingBlock: QUQFOY_clean_sbu_1, # of connection points: 4
#     Node 5, Type 0, BuildingBlock: QUQFOY_clean_sbu_1, # of connection points: 4
#     Node 6, Type 0, BuildingBlock: QUQFOY_clean_sbu_1, # of connection points: 4
#     Node 7, Type 0, BuildingBlock: QUQFOY_clean_sbu_1, # of connection points: 4
#     Edge 8, Type (0, 0), BuildingBlock: XIVTED_clean_linker_0, # of connection points: 2
#     Edge 9, Type (0, 0), BuildingBlock: XIVTED_clean_linker_0, # of connection points: 2
#     Edge 10, Type (0, 0), BuildingBlock: XIVTED_clean_linker_0, # of connection points: 2
#     Edge 11, Type (0, 0), BuildingBlock: XIVTED_clean_linker_0, # of connection points: 2
#     Edge 12, Type (0, 0), BuildingBlock: XIVTED_clean_linker_0, # of connection points: 2
#     Edge 13, Type (0, 0), BuildingBlock: XIVTED_clean_linker_0, # of connection points: 2
#     Edge 14, Type (0, 0), BuildingBlock: XIVTED_clean_linker_0, # of connection points: 2
#     Edge 15, Type (0, 0), BuildingBlock: XIVTED_clean_linker_0, # of connection points: 2
#     Edge 16, Type (0, 0), BuildingBlock: XIVTED_clean_linker_0, # of connection points: 2
#     Edge 17, Type (0, 0), BuildingBlock: XIVTED_clean_linker_0, # of connection points: 2
#     Edge 18, Type (0, 0), BuildingBlock: XIVTED_clean_linker_0, # of connection points: 2
#     Edge 19, Type (0, 0), BuildingBlock: XIVTED_clean_linker_0, # of connection points: 2
#     Edge 20, Type (0, 0), BuildingBlock: XIVTED_clean_linker_0, # of connection points: 2
#     Edge 21, Type (0, 0), BuildingBlock: XIVTED_clean_linker_0, # of connection points: 2
#     Edge 22, Type (0, 0), BuildingBlock: XIVTED_clean_linker_0, # of connection points: 2
#     Edge 23, Type (0, 0), BuildingBlock: XIVTED_clean_linker_0, # of connection points: 2
# Relax obj value: 0.023
# Max RMSD: 0.118
# Mean RMSD: 0.118
data_MOF--net-ukg--node1-QUQFOY_clean_sbu_1--edge1-XIVTED_clean_linker_0
_symmetry_space_group_name_H-M    P1
_symmetry_Int_Tables_number       1
_symmetry_cell_setting            triclinic
loop_
_symmetry_equiv_pos_as_xyz
'x, y, z'
_cell_length_a     32.593665
_cell_length_b     32.757639
_cell_length_c     37.107777
_cell_angle_alpha  89.985193
_cell_angle_beta   90.011176
_cell_angle_gamma 89.921757
loop_
_atom_site_label
_atom_site_type_symbol
_atom_site_fract_x
_atom_site_fract_y
_atom_site_fract_z
_atom_type_partial_charge
O0 O 0.96107 0.63232 0.19512 0.0
Cd1 Cd 0.98364 0.66245 0.15061 0.0
Cd2 Cd 0.04284 0.68322 0.20205 0.0
O3 O 0.01095 0.64293 0.23449 0.0
O4 O 0.95717 0.63475 0.10866 0.0
O5 O 0.02375 0.63115 0.11986 0.0
C6 C 0.99264 0.61968 0.10074 0.0
C7 C 0.11357 0.69285 0.20608 0.0
C8 C 0.97675 0.62694 0.22613 0.0
C9 C 0.9896 0.75028 0.16925 0.0
O10 O 0.01555 0.73813 0.19236 0.0
O11 O 0.9729 0.72517 0.14759 0.0
O12 O 0.08955 0.70114 0.23261 0.0
O13 O 0.09788 0.67545 0.17805 0.0
O14 O 0.38162 0.46249 0.71274 0.0
Cd15 Cd 0.35267 0.47766 0.66526 0.0
Cd16 Cd 0.31813 0.53658 0.71112 0.0
O17 O 0.35554 0.50923 0.74917 0.0
O18 O 0.38579 0.4497 0.62723 0.0
O19 O 0.38104 0.51685 0.63157 0.0
C20 C 0.39675 0.48525 0.61586 0.0
C21 C 0.30382 0.60637 0.7138 0.0
C22 C 0.37866 0.47857 0.7438 0.0
C23 C 0.26194 0.47416 0.67622 0.0
O24 O 0.26698 0.50462 0.69681 0.0
O25 O 0.29228 0.45804 0.65996 0.0
O26 O 0.29256 0.58174 0.7389 0.0
O27 O 0.32578 0.59185 0.68783 0.0
O28 O 0.55217 0.85048 0.20127 0.0
Cd29 Cd 0.52227 0.83225 0.15517 0.0
Cd30 Cd 0.46171 0.8258 0.20224 0.0
O31 O 0.49718 0.86428 0.23371 0.0
O32 O 0.54773 0.86106 0.11336 0.0
O33 O 0.48385 0.87199 0.13147 0.0
C34 C 0.51383 0.88125 0.11013 0.0
C35 C 0.39024 0.82391 0.2043 0.0
C36 C 0.53592 0.86478 0.22973 0.0
C37 C 0.50325 0.74896 0.17352 0.0
O38 O 0.48249 0.76685 0.19779 0.0
O39 O 0.52027 0.7696 0.14867 0.0
O40 O 0.4122 0.81604 0.23226 0.0
O41 O 0.40873 0.83703 0.17578 0.0
O42 O 0.12214 0.03754 0.70866 0.0
Cd43 Cd 0.15661 0.01628 0.66604 0.0
Cd44 Cd 0.17184 0.95568 0.7152 0.0
O45 O 0.12864 0.98549 0.74615 0.0
O46 O 0.13236 0.043 0.62262 0.0
O47 O 0.12879 0.9765 0.63279 0.0
C48 C 0.11855 0.00763 0.61329 0.0
C49 C 0.17817 0.88488 0.71531 0.0
C50 C 0.1136 0.02016 0.73834 0.0
C51 C 0.24277 0.00907 0.69082 0.0
O52 O 0.2283 0.98227 0.71195 0.0
O53 O 0.2197 0.0266 0.66785 0.0
O54 O 0.1848 0.90618 0.74385 0.0
O55 O 0.16485 0.90355 0.68695 0.0
O56 O 0.05127 0.35026 0.83954 0.0
Cd57 Cd 0.02099 0.33226 0.88552 0.0
Cd58 Cd 0.96067 0.32604 0.8381 0.0
O59 O 0.99657 0.3643 0.8068 0.0
O60 O 0.04664 0.36077 0.92739 0.0
O61 O 0.9829 0.37233 0.90918 0.0
C62 C 0.01293 0.38128 0.93058 0.0
C63 C 0.8892 0.32456 0.83559 0.0
C64 C 0.03529 0.36459 0.81097 0.0
C65 C 0.00157 0.24904 0.86716 0.0
O66 O 0.98109 0.267 0.84273 0.0
O67 O 0.01851 0.26964 0.89208 0.0
O68 O 0.91133 0.31667 0.80774 0.0
O69 O 0.90755 0.33743 0.86426 0.0
O70 O 0.62275 0.53745 0.33316 0.0
Cd71 Cd 0.65698 0.51633 0.37599 0.0
Cd72 Cd 0.67334 0.45607 0.32673 0.0
O73 O 0.63035 0.48577 0.29546 0.0
O74 O 0.63191 0.54241 0.41932 0.0
O75 O 0.62945 0.47593 0.40884 0.0
C76 C 0.61856 0.50678 0.4284 0.0
C77 C 0.68029 0.38531 0.32616 0.0
C78 C 0.61482 0.52022 0.30328 0.0
C79 C 0.74347 0.51007 0.35199 0.0
O80 O 0.72952 0.48312 0.33074 0.0
O81 O 0.71996 0.52739 0.37472 0.0
O82 O 0.68717 0.40697 0.29787 0.0
O83 O 0.66641 0.40357 0.3545 0.0
O84 O 0.4597 0.13366 0.84631 0.0
Cd85 Cd 0.48226 0.16337 0.89104 0.0
Cd86 Cd 0.54151 0.18454 0.84 0.0
O87 O 0.50963 0.1447 0.80711 0.0
O88 O 0.45605 0.13518 0.93286 0.0
O89 O 0.5226 0.13194 0.92148 0.0
C90 C 0.49161 0.12019 0.94061 0.0
C91 C 0.61229 0.19403 0.83643 0.0
C92 C 0.4754 0.12863 0.81527 0.0
C93 C 0.48823 0.25135 0.87308 0.0
O94 O 0.5143 0.23941 0.85001 0.0
O95 O 0.4714 0.22603 0.89448 0.0
O96 O 0.58845 0.20277 0.80987 0.0
O97 O 0.59637 0.17624 0.86417 0.0
O98 O 0.88195 0.96204 0.32895 0.0
Cd99 Cd 0.85287 0.97759 0.37626 0.0
Cd100 Cd 0.81913 0.03663 0.3299 0.0
O101 O 0.85671 0.00895 0.2922 0.0
O102 O 0.88526 0.94887 0.41435 0.0
O103 O 0.88179 0.0161 0.41023 0.0
C104 C 0.89683 0.98415 0.42589 0.0
C105 C 0.8055 0.10655 0.32727 0.0
C106 C 0.87946 0.97808 0.29784 0.0
C107 C 0.76215 0.97485 0.36466 0.0
O108 O 0.76761 0.00507 0.34388 0.0
O109 O 0.79221 0.95867 0.38129 0.0
O110 O 0.79427 0.08211 0.30202 0.0
O111 O 0.82708 0.09173 0.35338 0.0
H112 H 0.07209 0.40973 0.97662 0.0
H113 H 0.93324 0.59132 0.05498 0.0
H114 H 0.94716 0.43185 0.94328 0.0
H115 H 0.06049 0.57385 0.08328 0.0
H116 H 0.93794 0.5335 1.01362 0.0
H117 H 0.06814 0.46911 1.01632 0.0
C118 C 0.0437 0.4269 0.97779 0.0
C119 C 0.00986 0.41564 0.95656 0.0
C120 C 0.96494 0.54242 0.02869 0.0
C121 C 0.00526 0.4841 1.00191 0.0
C122 C 0.96233 0.57559 0.05226 0.0
C123 C 0.99654 0.58755 0.07271 0.0
C124 C 0.00197 0.52074 0.02557 0.0
C125 C 0.03336 0.56585 0.06803 0.0
C126 C 0.04155 0.46097 1.00039 0.0
C127 C 0.97399 0.43926 0.95918 0.0
N128 N 0.03502 0.5334 0.04513 0.0
N129 N 0.97265 0.47233 0.98138 0.0
H130 H 0.43249 0.55522 0.58981 0.0
H131 H 0.58181 0.43674 0.45314 0.0
H132 H 0.43353 0.42427 0.5771 0.0
H133 H 0.58649 0.56677 0.4714 0.0
H134 H 0.52757 0.43145 0.4985 0.0
H135 H 0.48793 0.56023 0.54553 0.0
C136 C 0.44414 0.52755 0.57754 0.0
C137 C 0.42825 0.48928 0.58721 0.0
C138 C 0.54062 0.46111 0.49273 0.0
C139 C 0.49204 0.49473 0.53666 0.0
C140 C 0.57176 0.46412 0.46693 0.0
C141 C 0.58881 0.50225 0.4584 0.0
C142 C 0.52623 0.49651 0.51008 0.0
C143 C 0.57434 0.53671 0.47707 0.0
C144 C 0.47596 0.5304 0.55237 0.0
C145 C 0.44477 0.45444 0.5705 0.0
N146 N 0.54382 0.53304 0.50185 0.0
N147 N 0.47571 0.458 0.54612 0.0
H148 H 0.57277 0.91032 0.06417 0.0
H149 H 0.43248 0.09117 0.9863 0.0
H150 H 0.44764 0.93128 0.09745 0.0
H151 H 0.55978 0.07467 0.95779 0.0
H152 H 0.43764 0.03319 0.02746 0.0
H153 H 0.56832 0.96978 0.02457 0.0
C154 C 0.54423 0.92725 0.063 0.0
C155 C 0.51048 0.91564 0.08419 0.0
C156 C 0.46454 0.04235 1.01239 0.0
C157 C 0.50532 0.9842 0.03896 0.0
C158 C 0.46167 0.07562 0.98893 0.0
C159 C 0.49576 0.08791 0.96849 0.0
C160 C 0.50173 0.0209 1.0154 0.0
C161 C 0.53272 0.06641 0.97304 0.0
C162 C 0.54179 0.96137 0.04047 0.0
C163 C 0.4744 0.93897 0.08159 0.0
N164 N 0.53465 0.03387 0.99584 0.0
N165 N 0.4728 0.97209 0.05945 0.0
H166 H 0.93136 0.92237 0.46526 0.0
H167 H 0.08901 0.06815 0.56946 0.0
H168 H 0.9348 0.05316 0.45156 0.0
H169 H 0.07961 0.93859 0.58888 0.0
H170 H 0.03491 0.06271 0.52418 0.0
H171 H 0.9867 0.92745 0.5094 0.0
C172 C 0.94357 0.95224 0.47168 0.0
C173 C 0.9283 0.98742 0.45465 0.0
C174 C 0.04478 0.03542 0.5382 0.0
C175 C 0.99219 0.99339 0.50506 0.0
C176 C 0.07588 0.03844 0.56397 0.0
C177 C 0.08895 0.00376 0.58309 0.0
C178 C 0.02646 0.99742 0.53137 0.0
C179 C 0.07061 0.96614 0.57481 0.0
C180 C 0.9753 0.95508 0.49685 0.0
C181 C 0.94547 0.02524 0.46407 0.0
N182 N 0.04025 0.964 0.54969 0.0
N183 N 0.97655 0.02719 0.48853 0.0
H184 H 0.15766 0.71891 0.26404 0.0
H185 H 0.34064 0.81132 0.14559 0.0
H186 H 0.16579 0.70329 0.14879 0.0
H187 H 0.3412 0.80689 0.26182 0.0
H188 H 0.27343 0.77777 0.14563 0.0
H189 H 0.2233 0.75447 0.26329 0.0
C190 C 0.17357 0.72246 0.2386 0.0
C191 C 0.15626 0.708 0.20643 0.0
C192 C 0.28815 0.78451 0.1711 0.0
C193 C 0.23116 0.74963 0.20526 0.0
C194 C 0.32624 0.80413 0.17112 0.0
C195 C 0.34656 0.81186 0.20376 0.0
C196 C 0.27024 0.77281 0.20397 0.0
C197 C 0.3267 0.80142 0.23602 0.0
C198 C 0.21096 0.74302 0.23816 0.0
C199 C 0.17819 0.71365 0.17425 0.0
N200 N 0.2898 0.78228 0.23529 0.0
N201 N 0.21439 0.73434 0.17443 0.0
H202 H 0.30194 0.66084 0.65749 0.0
H203 H 0.18984 0.83436 0.77257 0.0
H204 H 0.26923 0.64781 0.7696 0.0
H205 H 0.19623 0.83749 0.65646 0.0
H206 H 0.2213 0.76684 0.77197 0.0
H207 H 0.26793 0.72776 0.65677 0.0
C208 C 0.28813 0.67229 0.68204 0.0
C209 C 0.28843 0.64879 0.71366 0.0
C210 C 0.21549 0.78203 0.74655 0.0
C211 C 0.24916 0.72475 0.71291 0.0
C212 C 0.19734 0.82053 0.74688 0.0
C213 C 0.1904 0.84151 0.71451 0.0
C214 C 0.22736 0.7645 0.71364 0.0
C215 C 0.2008 0.82219 0.68201 0.0
C216 C 0.26837 0.71023 0.68151 0.0
C217 C 0.26969 0.66486 0.74461 0.0
N218 N 0.21922 0.78487 0.68239 0.0
N219 N 0.25085 0.70177 0.74343 0.0
H220 H 0.66497 0.2012 0.89383 0.0
H221 H 0.83984 0.31071 0.77764 0.0
H222 H 0.65615 0.22298 0.77938 0.0
H223 H 0.83995 0.30914 0.89391 0.0
H224 H 0.7729 0.27757 0.77789 0.0
H225 H 0.7311 0.23682 0.89437 0.0
C226 C 0.67726 0.21283 0.86873 0.0
C227 C 0.65503 0.20908 0.8365 0.0
C228 C 0.78727 0.28485 0.8034 0.0
C229 C 0.73014 0.25044 0.83704 0.0
C230 C 0.8254 0.30405 0.80327 0.0
C231 C 0.84548 0.31273 0.8358 0.0
C232 C 0.7692 0.27369 0.83631 0.0
C233 C 0.82539 0.30325 0.8682 0.0
C234 C 0.71474 0.23358 0.86914 0.0
C235 C 0.67219 0.22517 0.80486 0.0
N236 N 0.78852 0.28379 0.86765 0.0
N237 N 0.7086 0.24518 0.80595 0.0
H238 H 0.69339 0.33558 0.26861 0.0
H239 H 0.80317 0.16061 0.38383 0.0
H240 H 0.69745 0.33725 0.38483 0.0
H241 H 0.7721 0.14866 0.27127 0.0
H242 H 0.76948 0.22769 0.38455 0.0
H243 H 0.72496 0.26811 0.26907 0.0
C244 C 0.70041 0.32144 0.29428 0.0
C245 C 0.69276 0.34199 0.32673 0.0
C246 C 0.77022 0.21036 0.35971 0.0
C247 C 0.72984 0.26503 0.32746 0.0
C248 C 0.7898 0.17233 0.35919 0.0
C249 C 0.79044 0.14908 0.32743 0.0
C250 C 0.75154 0.22523 0.32818 0.0
C251 C 0.77227 0.16551 0.29636 0.0
C252 C 0.71862 0.28297 0.29453 0.0
C253 C 0.70258 0.32229 0.35921 0.0
N254 N 0.75359 0.20251 0.29753 0.0
N255 N 0.72106 0.285 0.35876 0.0
H256 H 0.77998 0.58352 0.36959 0.0
H257 H 0.93979 0.55398 0.21629 0.0
H258 H 0.80492 0.46597 0.32182 0.0
H259 H 0.95876 0.64806 0.29568 0.0
H260 H 0.89093 0.52089 0.25662 0.0
H261 H 0.84631 0.60811 0.34656 0.0
C262 C 0.79983 0.56261 0.35517 0.0
C263 C 0.78656 0.52296 0.34689 0.0
C264 C 0.9063 0.54833 0.26566 0.0
C265 C 0.86163 0.55087 0.32022 0.0
C266 C 0.93412 0.56717 0.2426 0.0
C267 C 0.9532 0.60356 0.25286 0.0
C268 C 0.8964 0.56679 0.29872 0.0
C269 C 0.94474 0.61974 0.28708 0.0
C270 C 0.83757 0.57666 0.34197 0.0
C271 C 0.81348 0.4971 0.32811 0.0
N272 N 0.91615 0.6017 0.30862 0.0
N273 N 0.84928 0.51171 0.31485 0.0
H274 H 0.34675 0.46104 0.81007 0.0
H275 H 0.53611 0.31564 0.85546 0.0
H276 H 0.45604 0.44804 0.74569 0.0
H277 H 0.412 0.28521 0.88536 0.0
H278 H 0.51245 0.38209 0.83433 0.0
H279 H 0.37614 0.41351 0.85465 0.0
C280 C 0.37745 0.44921 0.80597 0.0
C281 C 0.3991 0.45816 0.77424 0.0
C282 C 0.49052 0.3613 0.84632 0.0
C283 C 0.43268 0.4046 0.82483 0.0
C284 C 0.50397 0.32345 0.85851 0.0
C285 C 0.47577 0.29464 0.87148 0.0
C286 C 0.44852 0.37041 0.84686 0.0
C287 C 0.43463 0.30651 0.87529 0.0
C288 C 0.39398 0.422 0.8312 0.0
C289 C 0.4384 0.44169 0.76977 0.0
N290 N 0.42196 0.34335 0.86223 0.0
N291 N 0.45387 0.41558 0.79471 0.0
H292 H 0.5228 0.92557 0.27975 0.0
H293 H 0.74522 0.89328 0.36638 0.0
H294 H 0.61003 0.83348 0.24738 0.0
H295 H 0.68748 0.01144 0.35806 0.0
H296 H 0.68246 0.86191 0.34287 0.0
H297 H 0.57161 0.9487 0.32628 0.0
C298 C 0.55195 0.91001 0.28273 0.0
C299 C 0.56291 0.87822 0.25932 0.0
C300 C 0.68319 0.89459 0.34725 0.0
C301 C 0.6177 0.9033 0.31278 0.0
C302 C 0.71878 0.91242 0.36105 0.0
C303 C 0.72162 0.95499 0.36357 0.0
C304 C 0.65034 0.91957 0.33635 0.0
C305 C 0.68657 0.97847 0.35598 0.0
C306 C 0.57959 0.92305 0.30924 0.0
C307 C 0.60082 0.85873 0.26439 0.0
N308 N 0.65251 0.96052 0.34211 0.0
N309 N 0.62686 0.87161 0.2905 0.0
H310 H 0.06754 0.20369 0.89089 0.0
H311 H 0.04435 0.06332 0.72499 0.0
H312 H 0.95395 0.19441 0.83176 0.0
H313 H 0.12634 0.02837 0.8108 0.0
H314 H 0.00908 0.1095 0.76628 0.0
H315 H 0.08825 0.13695 0.86668 0.0
C316 C 0.04641 0.18704 0.87384 0.0
C317 C 0.00943 0.20494 0.8626 0.0
C318 C 0.03423 0.09116 0.77642 0.0
C319 C 0.0331 0.12951 0.83446 0.0
C320 C 0.05437 0.06493 0.7528 0.0
C321 C 0.08818 0.04226 0.76463 0.0
C322 C 0.04891 0.09581 0.81179 0.0
C323 C 0.10016 0.04537 0.80086 0.0
C324 C 0.05829 0.14907 0.85991 0.0
C325 C 0.98319 0.18211 0.84042 0.0
N326 N 0.08113 0.07251 0.82308 0.0
N327 N 0.99591 0.14605 0.82645 0.0
H328 H 0.02234 0.42468 0.76023 0.0
H329 H 0.24567 0.39245 0.6755 0.0
H330 H 0.10982 0.33355 0.79426 0.0
H331 H 0.18694 0.51029 0.68165 0.0
H332 H 0.18296 0.36103 0.69906 0.0
H333 H 0.07138 0.4474 0.71376 0.0
C334 C 0.0516 0.40925 0.75764 0.0
C335 C 0.06254 0.37785 0.78149 0.0
C336 C 0.18346 0.39363 0.69419 0.0
C337 C 0.11762 0.40247 0.7281 0.0
C338 C 0.21903 0.41148 0.68035 0.0
C339 C 0.22156 0.45402 0.67721 0.0
C340 C 0.15034 0.41855 0.70451 0.0
C341 C 0.18625 0.47736 0.68421 0.0
C342 C 0.07938 0.42206 0.73116 0.0
C343 C 0.10061 0.35851 0.7769 0.0
N344 N 0.15223 0.4594 0.69813 0.0
N345 N 0.12678 0.37117 0.75082 0.0
H346 H 0.54521 0.56305 0.31604 0.0
H347 H 0.56968 0.70389 0.15038 0.0
H348 H 0.62841 0.52876 0.23097 0.0
H349 H 0.45557 0.69415 0.20864 0.0
H350 H 0.59044 0.63725 0.1748 0.0
H351 H 0.51027 0.60925 0.27452 0.0
C352 C 0.55557 0.56481 0.28833 0.0
C353 C 0.58962 0.54231 0.2768 0.0
C354 C 0.56038 0.64924 0.18133 0.0
C355 C 0.55072 0.59589 0.22937 0.0
C356 C 0.54846 0.68716 0.16729 0.0
C357 C 0.51129 0.7049 0.17821 0.0
C358 C 0.53502 0.62958 0.20659 0.0
C359 C 0.48495 0.68197 0.20022 0.0
C360 C 0.53562 0.59104 0.26458 0.0
C361 C 0.60204 0.54561 0.24069 0.0
N362 N 0.49769 0.64597 0.21432 0.0
N363 N 0.58317 0.57276 0.21835 0.0
H364 H 0.45998 0.14932 0.74507 0.0
H365 H 0.30333 0.96427 0.72162 0.0
H366 H 0.43605 0.05678 0.82492 0.0
H367 H 0.28053 0.08191 0.67312 0.0
H368 H 0.36892 0.98916 0.74394 0.0
H369 H 0.40986 0.11626 0.70468 0.0
C370 C 0.445 0.12145 0.75362 0.0
C371 C 0.45184 0.10563 0.78827 0.0
C372 C 0.34992 0.00932 0.72787 0.0
C373 C 0.39549 0.06786 0.74253 0.0
C374 C 0.31248 0.99518 0.71506 0.0
C375 C 0.28598 0.02141 0.6962 0.0
C376 C 0.36113 0.05001 0.72188 0.0
C377 C 0.29988 0.06086 0.68788 0.0
C378 C 0.41636 0.10288 0.73076 0.0
C379 C 0.43141 0.0699 0.79844 0.0
N380 N 0.33636 0.07432 0.70138 0.0
N381 N 0.40414 0.05224 0.77569 0.0
H382 H 0.03741 0.81432 0.18767 0.0
H383 H 0.84814 0.96051 0.23134 0.0
H384 H 0.91356 0.78441 0.15653 0.0
H385 H 0.95666 0.94707 0.29671 0.0
H386 H 0.87778 0.91273 0.18711 0.0
H387 H 0.01373 0.88076 0.20875 0.0
C388 C 0.00533 0.82224 0.18436 0.0
C389 C 0.9772 0.79358 0.17103 0.0
C390 C 0.8954 0.92117 0.21071 0.0
C391 C 0.94991 0.86935 0.19558 0.0
C392 C 0.87873 0.94852 0.23574 0.0
C393 C 0.90009 0.95744 0.26763 0.0
C394 C 0.93394 0.9036 0.21745 0.0
C395 C 0.93925 0.94076 0.27249 0.0
C396 C 0.99187 0.86008 0.19652 0.0
C397 C 0.93613 0.8056 0.16688 0.0
N398 N 0.95485 0.91453 0.24774 0.0
N399 N 0.92344 0.84243 0.17991 0.0
loop_
_geom_bond_atom_site_label_1
_geom_bond_atom_site_label_2
_geom_bond_distance
_geom_bond_site_symmetry_2
_ccdc_geom_bond_type
O0 Cd1 2.223 . S
O0 C8 1.315 . S
Cd1 O0 2.223 . S
Cd1 O4 2.297 . S
Cd1 O5 2.439 1_655 S
Cd1 O11 2.240 1_655 S
Cd2 O3 2.241 1_455 S
Cd2 O10 2.223 . S
Cd2 O12 2.297 . S
Cd2 O13 2.439 . S
O3 Cd2 2.241 1_655 S
O3 C8 1.278 . S
O4 Cd1 2.297 . S
O4 C6 1.226 1_655 S
O5 Cd1 2.439 1_455 S
O5 C6 1.224 . S
C6 O4 1.226 1_455 S
C6 O5 1.224 . S
C7 O12 1.247 . S
C7 O13 1.208 . S
C8 O0 1.315 . S
C8 O3 1.278 . S
C9 O10 1.315 1_655 S
C9 O11 1.279 1_655 S
O10 Cd2 2.223 . S
O10 C9 1.315 1_455 S
O11 Cd1 2.240 1_455 S
O11 C9 1.279 1_455 S
O12 Cd2 2.297 . S
O12 C7 1.247 . S
O13 Cd2 2.439 . S
O13 C7 1.208 . S
O14 Cd15 2.223 . S
O14 C22 1.315 . S
Cd15 O14 2.223 . S
Cd15 O18 2.297 . S
Cd15 O19 2.439 . S
Cd15 O25 2.240 . S
Cd16 O17 2.240 . S
Cd16 O24 2.223 . S
Cd16 O26 2.297 . S
Cd16 O27 2.439 . S
O17 Cd16 2.240 . S
O17 C22 1.279 . S
O18 Cd15 2.297 . S
O18 C20 1.247 . S
O19 Cd15 2.439 . S
O19 C20 1.208 . S
C20 O18 1.247 . S
C20 O19 1.208 . S
C21 O26 1.247 . S
C21 O27 1.208 . S
C22 O14 1.315 . S
C22 O17 1.279 . S
C23 O24 1.315 . S
C23 O25 1.279 . S
O24 Cd16 2.223 . S
O24 C23 1.315 . S
O25 Cd15 2.240 . S
O25 C23 1.279 . S
O26 Cd16 2.297 . S
O26 C21 1.247 . S
O27 Cd16 2.439 . S
O27 C21 1.208 . S
O28 Cd29 2.223 . S
O28 C36 1.315 . S
Cd29 O28 2.223 . S
Cd29 O32 2.297 . S
Cd29 O33 2.439 . S
Cd29 O39 2.240 . S
Cd30 O31 2.240 . S
Cd30 O38 2.223 . S
Cd30 O40 2.297 . S
Cd30 O41 2.439 . S
O31 Cd30 2.240 . S
O31 C36 1.279 . S
O32 Cd29 2.297 . S
O32 C34 1.247 . S
O33 Cd29 2.439 . S
O33 C34 1.208 . S
C34 O32 1.247 . S
C34 O33 1.208 . S
C35 O40 1.247 . S
C35 O41 1.208 . S
C36 O28 1.315 . S
C36 O31 1.279 . S
C37 O38 1.315 . S
C37 O39 1.279 . S
O38 Cd30 2.223 . S
O38 C37 1.315 . S
O39 Cd29 2.240 . S
O39 C37 1.279 . S
O40 Cd30 2.297 . S
O40 C35 1.247 . S
O41 Cd30 2.439 . S
O41 C35 1.208 . S
O42 Cd43 2.223 . S
O42 C50 1.315 . S
Cd43 O42 2.223 . S
Cd43 O46 2.297 . S
Cd43 O47 2.439 1_545 S
Cd43 O53 2.240 1_545 S
Cd44 O45 2.241 1_565 S
Cd44 O52 2.223 . S
Cd44 O54 2.297 . S
Cd44 O55 2.439 . S
O45 Cd44 2.241 1_545 S
O45 C50 1.278 . S
O46 Cd43 2.297 . S
O46 C48 1.226 1_545 S
O47 Cd43 2.439 1_565 S
O47 C48 1.224 . S
C48 O46 1.226 1_565 S
C48 O47 1.224 . S
C49 O54 1.247 . S
C49 O55 1.208 . S
C50 O42 1.315 . S
C50 O45 1.278 . S
C51 O52 1.315 1_545 S
C51 O53 1.279 1_545 S
O52 Cd44 2.223 . S
O52 C51 1.315 1_565 S
O53 Cd43 2.240 1_565 S
O53 C51 1.279 1_565 S
O54 Cd44 2.297 . S
O54 C49 1.247 . S
O55 Cd44 2.439 . S
O55 C49 1.208 . S
O56 Cd57 2.223 . S
O56 C64 1.315 . S
Cd57 O56 2.223 . S
Cd57 O60 2.297 . S
Cd57 O61 2.439 1_455 S
Cd57 O67 2.240 1_455 S
Cd58 O59 2.241 1_655 S
Cd58 O66 2.223 . S
Cd58 O68 2.297 . S
Cd58 O69 2.439 . S
O59 Cd58 2.241 1_455 S
O59 C64 1.278 . S
O60 Cd57 2.297 . S
O60 C62 1.226 1_455 S
O61 Cd57 2.439 1_655 S
O61 C62 1.224 . S
C62 O60 1.226 1_655 S
C62 O61 1.224 . S
C63 O68 1.247 . S
C63 O69 1.208 . S
C64 O56 1.315 . S
C64 O59 1.278 . S
C65 O66 1.315 1_455 S
C65 O67 1.279 1_455 S
O66 Cd58 2.223 . S
O66 C65 1.315 1_655 S
O67 Cd57 2.240 1_655 S
O67 C65 1.279 1_655 S
O68 Cd58 2.297 . S
O68 C63 1.247 . S
O69 Cd58 2.439 . S
O69 C63 1.208 . S
O70 Cd71 2.223 . S
O70 C78 1.315 . S
Cd71 O70 2.223 . S
Cd71 O74 2.297 . S
Cd71 O75 2.439 . S
Cd71 O81 2.240 . S
Cd72 O73 2.240 . S
Cd72 O80 2.223 . S
Cd72 O82 2.297 . S
Cd72 O83 2.439 . S
O73 Cd72 2.240 . S
O73 C78 1.279 . S
O74 Cd71 2.297 . S
O74 C76 1.247 . S
O75 Cd71 2.439 . S
O75 C76 1.208 . S
C76 O74 1.247 . S
C76 O75 1.208 . S
C77 O82 1.247 . S
C77 O83 1.208 . S
C78 O70 1.315 . S
C78 O73 1.279 . S
C79 O80 1.315 . S
C79 O81 1.279 . S
O80 Cd72 2.223 . S
O80 C79 1.315 . S
O81 Cd71 2.240 . S
O81 C79 1.279 . S
O82 Cd72 2.297 . S
O82 C77 1.247 . S
O83 Cd72 2.439 . S
O83 C77 1.208 . S
O84 Cd85 2.223 . S
O84 C92 1.315 . S
Cd85 O84 2.223 . S
Cd85 O88 2.297 . S
Cd85 O89 2.439 . S
Cd85 O95 2.240 . S
Cd86 O87 2.240 . S
Cd86 O94 2.223 . S
Cd86 O96 2.297 . S
Cd86 O97 2.439 . S
O87 Cd86 2.240 . S
O87 C92 1.279 . S
O88 Cd85 2.297 . S
O88 C90 1.247 . S
O89 Cd85 2.439 . S
O89 C90 1.208 . S
C90 O88 1.247 . S
C90 O89 1.208 . S
C91 O96 1.247 . S
C91 O97 1.208 . S
C92 O84 1.315 . S
C92 O87 1.279 . S
C93 O94 1.315 . S
C93 O95 1.279 . S
O94 Cd86 2.223 . S
O94 C93 1.315 . S
O95 Cd85 2.240 . S
O95 C93 1.279 . S
O96 Cd86 2.297 . S
O96 C91 1.247 . S
O97 Cd86 2.439 . S
O97 C91 1.208 . S
O98 Cd99 2.223 . S
O98 C106 1.315 . S
Cd99 O98 2.223 . S
Cd99 O102 2.297 . S
Cd99 O103 2.439 1_565 S
Cd99 O109 2.240 1_565 S
Cd100 O101 2.241 1_545 S
Cd100 O108 2.223 . S
Cd100 O110 2.297 . S
Cd100 O111 2.439 . S
O101 Cd100 2.241 1_565 S
O101 C106 1.278 . S
O102 Cd99 2.297 . S
O102 C104 1.226 1_565 S
O103 Cd99 2.439 1_545 S
O103 C104 1.224 . S
C104 O102 1.226 1_545 S
C104 O103 1.224 . S
C105 O110 1.247 . S
C105 O111 1.208 . S
C106 O98 1.315 . S
C106 O101 1.278 . S
C107 O108 1.315 1_565 S
C107 O109 1.279 1_565 S
O108 Cd100 2.223 . S
O108 C107 1.315 1_545 S
O109 Cd99 2.240 1_545 S
O109 C107 1.279 1_545 S
O110 Cd100 2.297 . S
O110 C105 1.247 . S
O111 Cd100 2.439 . S
O111 C105 1.208 . S
H112 C118 0.930 . S
H113 C122 0.930 . S
H114 C127 0.929 . S
H115 C125 0.929 . S
H116 C120 0.929 1_556 S
H117 C126 0.929 1_554 S
C118 H112 0.930 . S
C118 C119 1.367 1_455 S
C118 C126 1.378 . S
C119 C118 1.367 1_655 S
C119 C127 1.433 . S
C120 H116 0.929 1_554 S
C120 C122 1.378 . S
C120 C124 1.348 1_655 S
C121 C124 1.461 1_656 S
C121 C126 1.348 1_655 S
C121 N129 1.431 . S
C122 H113 0.930 . S
C122 C120 1.378 . S
C122 C123 1.367 1_655 S
C123 C122 1.367 1_455 S
C123 C125 1.433 . S
C124 C120 1.348 1_455 S
C124 C121 1.461 1_454 S
C124 N128 1.431 . S
C125 H115 0.929 . S
C125 C123 1.433 . S
C125 N128 1.384 . S
C126 H117 0.929 1_556 S
C126 C118 1.378 . S
C126 C121 1.348 1_455 S
C127 H114 0.929 . S
C127 C119 1.433 . S
C127 N129 1.384 . S
N128 C124 1.431 . S
N128 C125 1.384 . S
N129 C121 1.431 . S
N129 C127 1.384 . S
H130 C136 0.930 . S
H131 C140 0.930 . S
H132 C145 0.929 . S
H133 C143 0.929 . S
H134 C138 0.929 . S
H135 C144 0.929 . S
C136 H130 0.930 . S
C136 C137 1.367 . S
C136 C144 1.378 . S
C137 C136 1.367 . S
C137 C145 1.433 . S
C138 H134 0.929 . S
C138 C140 1.378 . S
C138 C142 1.350 . S
C139 C142 1.463 . S
C139 C144 1.350 . S
C139 N147 1.427 . S
C140 H131 0.930 . S
C140 C138 1.378 . S
C140 C141 1.367 . S
C141 C140 1.367 . S
C141 C143 1.433 . S
C142 C138 1.350 . S
C142 C139 1.463 . S
C142 N146 1.427 . S
C143 H133 0.929 . S
C143 C141 1.433 . S
C143 N146 1.384 . S
C144 H135 0.929 . S
C144 C136 1.378 . S
C144 C139 1.350 . S
C145 H132 0.929 . S
C145 C137 1.433 . S
C145 N147 1.384 . S
N146 C142 1.427 . S
N146 C143 1.384 . S
N147 C139 1.427 . S
N147 C145 1.384 . S
H148 C154 0.930 . S
H149 C158 0.930 . S
H150 C163 0.929 . S
H151 C161 0.929 . S
H152 C156 0.929 1_565 S
H153 C162 0.929 1_545 S
C154 H148 0.930 . S
C154 C155 1.367 . S
C154 C162 1.378 . S
C155 C154 1.367 . S
C155 C163 1.433 . S
C156 H152 0.929 1_545 S
C156 C158 1.378 . S
C156 C160 1.350 . S
C157 C160 1.463 1_564 S
C157 C162 1.350 . S
C157 N165 1.427 . S
C158 H149 0.930 . S
C158 C156 1.378 . S
C158 C159 1.367 . S
C159 C158 1.367 . S
C159 C161 1.433 . S
C160 C156 1.350 . S
C160 C157 1.463 1_546 S
C160 N164 1.427 . S
C161 H151 0.929 . S
C161 C159 1.433 . S
C161 N164 1.384 . S
C162 H153 0.929 1_565 S
C162 C154 1.378 . S
C162 C157 1.350 . S
C163 H150 0.929 . S
C163 C155 1.433 . S
C163 N165 1.384 . S
N164 C160 1.427 . S
N164 C161 1.384 . S
N165 C157 1.427 . S
N165 C163 1.384 . S
H166 C172 0.930 . S
H167 C176 0.930 . S
H168 C181 0.929 . S
H169 C179 0.929 . S
H170 C174 0.930 1_655 S
H171 C180 0.930 1_455 S
C172 H166 0.930 . S
C172 C173 1.367 1_565 S
C172 C180 1.377 . S
C173 C172 1.367 1_545 S
C173 C181 1.433 . S
C174 H170 0.930 1_455 S
C174 C176 1.377 . S
C174 C178 1.345 1_545 S
C175 C178 1.462 1_645 S
C175 C180 1.345 1_545 S
C175 N183 1.433 . S
C176 H167 0.930 . S
C176 C174 1.377 . S
C176 C177 1.367 1_545 S
C177 C176 1.367 1_565 S
C177 C179 1.433 . S
C178 C174 1.345 1_565 S
C178 C175 1.462 1_465 S
C178 N182 1.433 . S
C179 H169 0.929 . S
C179 C177 1.433 . S
C179 N182 1.384 . S
C180 H171 0.930 1_655 S
C180 C172 1.377 . S
C180 C175 1.345 1_565 S
C181 H168 0.929 . S
C181 C173 1.433 . S
C181 N183 1.384 . S
N182 C178 1.433 . S
N182 C179 1.384 . S
N183 C175 1.433 . S
N183 C181 1.384 . S
H184 C190 0.930 . S
H185 C194 0.930 . S
H186 C199 0.929 . S
H187 C197 0.929 . S
H188 C192 0.929 . S
H189 C198 0.929 . S
C190 H184 0.930 . S
C190 C191 1.367 . S
C190 C198 1.378 . S
C191 C190 1.367 . S
C191 C199 1.433 . S
C192 H188 0.929 . S
C192 C194 1.378 . S
C192 C196 1.350 . S
C193 C196 1.463 . S
C193 C198 1.350 . S
C193 N201 1.427 . S
C194 H185 0.930 . S
C194 C192 1.378 . S
C194 C195 1.367 . S
C195 C194 1.367 . S
C195 C197 1.433 . S
C196 C192 1.350 . S
C196 C193 1.463 . S
C196 N200 1.427 . S
C197 H187 0.929 . S
C197 C195 1.433 . S
C197 N200 1.384 . S
C198 H189 0.929 . S
C198 C190 1.378 . S
C198 C193 1.350 . S
C199 H186 0.929 . S
C199 C191 1.433 . S
C199 N201 1.384 . S
N200 C196 1.427 . S
N200 C197 1.384 . S
N201 C193 1.427 . S
N201 C199 1.384 . S
H202 C208 0.930 . S
H203 C212 0.930 . S
H204 C217 0.929 . S
H205 C215 0.929 . S
H206 C210 0.929 . S
H207 C216 0.929 . S
C208 H202 0.930 . S
C208 C209 1.367 . S
C208 C216 1.378 . S
C209 C208 1.367 . S
C209 C217 1.433 . S
C210 H206 0.929 . S
C210 C212 1.378 . S
C210 C214 1.350 . S
C211 C214 1.463 . S
C211 C216 1.350 . S
C211 N219 1.427 . S
C212 H203 0.930 . S
C212 C210 1.378 . S
C212 C213 1.367 . S
C213 C212 1.367 . S
C213 C215 1.433 . S
C214 C210 1.350 . S
C214 C211 1.463 . S
C214 N218 1.427 . S
C215 H205 0.929 . S
C215 C213 1.433 . S
C215 N218 1.384 . S
C216 H207 0.929 . S
C216 C208 1.378 . S
C216 C211 1.350 . S
C217 H204 0.929 . S
C217 C209 1.433 . S
C217 N219 1.384 . S
N218 C214 1.427 . S
N218 C215 1.384 . S
N219 C211 1.427 . S
N219 C217 1.384 . S
H220 C226 0.930 . S
H221 C230 0.930 . S
H222 C235 0.929 . S
H223 C233 0.929 . S
H224 C228 0.929 . S
H225 C234 0.929 . S
C226 H220 0.930 . S
C226 C227 1.367 . S
C226 C234 1.378 . S
C227 C226 1.367 . S
C227 C235 1.433 . S
C228 H224 0.929 . S
C228 C230 1.378 . S
C228 C232 1.350 . S
C229 C232 1.463 . S
C229 C234 1.350 . S
C229 N237 1.427 . S
C230 H221 0.930 . S
C230 C228 1.378 . S
C230 C231 1.367 . S
C231 C230 1.367 . S
C231 C233 1.433 . S
C232 C228 1.350 . S
C232 C229 1.463 . S
C232 N236 1.427 . S
C233 H223 0.929 . S
C233 C231 1.433 . S
C233 N236 1.384 . S
C234 H225 0.929 . S
C234 C226 1.378 . S
C234 C229 1.350 . S
C235 H222 0.929 . S
C235 C227 1.433 . S
C235 N237 1.384 . S
N236 C232 1.427 . S
N236 C233 1.384 . S
N237 C229 1.427 . S
N237 C235 1.384 . S
H238 C244 0.930 . S
H239 C248 0.930 . S
H240 C253 0.929 . S
H241 C251 0.929 . S
H242 C246 0.929 . S
H243 C252 0.929 . S
C244 H238 0.930 . S
C244 C245 1.367 . S
C244 C252 1.378 . S
C245 C244 1.367 . S
C245 C253 1.433 . S
C246 H242 0.929 . S
C246 C248 1.378 . S
C246 C250 1.350 . S
C247 C250 1.463 . S
C247 C252 1.350 . S
C247 N255 1.427 . S
C248 H239 0.930 . S
C248 C246 1.378 . S
C248 C249 1.367 . S
C249 C248 1.367 . S
C249 C251 1.433 . S
C250 C246 1.350 . S
C250 C247 1.463 . S
C250 N254 1.427 . S
C251 H241 0.929 . S
C251 C249 1.433 . S
C251 N254 1.384 . S
C252 H243 0.929 . S
C252 C244 1.378 . S
C252 C247 1.350 . S
C253 H240 0.929 . S
C253 C245 1.433 . S
C253 N255 1.384 . S
N254 C250 1.427 . S
N254 C251 1.384 . S
N255 C247 1.427 . S
N255 C253 1.384 . S
H256 C262 0.930 . S
H257 C266 0.930 . S
H258 C271 0.929 . S
H259 C269 0.929 . S
H260 C264 0.929 . S
H261 C270 0.929 . S
C262 H256 0.930 . S
C262 C263 1.367 . S
C262 C270 1.378 . S
C263 C262 1.367 . S
C263 C271 1.433 . S
C264 H260 0.929 . S
C264 C266 1.378 . S
C264 C268 1.350 . S
C265 C268 1.463 . S
C265 C270 1.350 . S
C265 N273 1.427 . S
C266 H257 0.930 . S
C266 C264 1.378 . S
C266 C267 1.367 . S
C267 C266 1.367 . S
C267 C269 1.433 . S
C268 C264 1.350 . S
C268 C265 1.463 . S
C268 N272 1.427 . S
C269 H259 0.929 . S
C269 C267 1.433 . S
C269 N272 1.384 . S
C270 H261 0.929 . S
C270 C262 1.378 . S
C270 C265 1.350 . S
C271 H258 0.929 . S
C271 C263 1.433 . S
C271 N273 1.384 . S
N272 C268 1.427 . S
N272 C269 1.384 . S
N273 C265 1.427 . S
N273 C271 1.384 . S
H274 C280 0.930 . S
H275 C284 0.930 . S
H276 C289 0.929 . S
H277 C287 0.929 . S
H278 C282 0.929 . S
H279 C288 0.929 . S
C280 H274 0.930 . S
C280 C281 1.367 . S
C280 C288 1.378 . S
C281 C280 1.367 . S
C281 C289 1.433 . S
C282 H278 0.929 . S
C282 C284 1.378 . S
C282 C286 1.350 . S
C283 C286 1.463 . S
C283 C288 1.350 . S
C283 N291 1.427 . S
C284 H275 0.930 . S
C284 C282 1.378 . S
C284 C285 1.367 . S
C285 C284 1.367 . S
C285 C287 1.433 . S
C286 C282 1.350 . S
C286 C283 1.463 . S
C286 N290 1.427 . S
C287 H277 0.929 . S
C287 C285 1.433 . S
C287 N290 1.384 . S
C288 H279 0.929 . S
C288 C280 1.378 . S
C288 C283 1.350 . S
C289 H276 0.929 . S
C289 C281 1.433 . S
C289 N291 1.384 . S
N290 C286 1.427 . S
N290 C287 1.384 . S
N291 C283 1.427 . S
N291 C289 1.384 . S
H292 C298 0.930 . S
H293 C302 0.930 . S
H294 C307 0.929 . S
H295 C305 0.929 . S
H296 C300 0.929 . S
H297 C306 0.929 . S
C298 H292 0.930 . S
C298 C299 1.367 . S
C298 C306 1.378 . S
C299 C298 1.367 . S
C299 C307 1.433 . S
C300 H296 0.929 . S
C300 C302 1.378 . S
C300 C304 1.350 . S
C301 C304 1.463 . S
C301 C306 1.350 . S
C301 N309 1.427 . S
C302 H293 0.930 . S
C302 C300 1.378 . S
C302 C303 1.367 . S
C303 C302 1.367 . S
C303 C305 1.433 1_565 S
C304 C300 1.350 . S
C304 C301 1.463 . S
C304 N308 1.427 . S
C305 H295 0.929 . S
C305 C303 1.433 1_545 S
C305 N308 1.384 1_545 S
C306 H297 0.929 . S
C306 C298 1.378 . S
C306 C301 1.350 . S
C307 H294 0.929 . S
C307 C299 1.433 . S
C307 N309 1.384 . S
N308 C304 1.427 . S
N308 C305 1.384 1_565 S
N309 C301 1.427 . S
N309 C307 1.384 . S
H310 C316 0.930 . S
H311 C320 0.930 . S
H312 C325 0.929 . S
H313 C323 0.929 . S
H314 C318 0.929 . S
H315 C324 0.929 . S
C316 H310 0.930 . S
C316 C317 1.367 . S
C316 C324 1.378 . S
C317 C316 1.367 . S
C317 C325 1.433 . S
C318 H314 0.929 . S
C318 C320 1.378 . S
C318 C322 1.350 . S
C319 C322 1.463 . S
C319 C324 1.350 . S
C319 N327 1.427 . S
C320 H311 0.930 . S
C320 C318 1.378 . S
C320 C321 1.367 . S
C321 C320 1.367 . S
C321 C323 1.433 . S
C322 C318 1.350 . S
C322 C319 1.463 . S
C322 N326 1.427 . S
C323 H313 0.929 . S
C323 C321 1.433 . S
C323 N326 1.384 . S
C324 H315 0.929 . S
C324 C316 1.378 . S
C324 C319 1.350 . S
C325 H312 0.929 . S
C325 C317 1.433 . S
C325 N327 1.384 . S
N326 C322 1.427 . S
N326 C323 1.384 . S
N327 C319 1.427 . S
N327 C325 1.384 . S
H328 C334 0.930 . S
H329 C338 0.930 . S
H330 C343 0.929 . S
H331 C341 0.929 . S
H332 C336 0.929 . S
H333 C342 0.929 . S
C334 H328 0.930 . S
C334 C335 1.367 . S
C334 C342 1.378 . S
C335 C334 1.367 . S
C335 C343 1.433 . S
C336 H332 0.929 . S
C336 C338 1.378 . S
C336 C340 1.350 . S
C337 C340 1.463 . S
C337 C342 1.350 . S
C337 N345 1.427 . S
C338 H329 0.930 . S
C338 C336 1.378 . S
C338 C339 1.367 . S
C339 C338 1.367 . S
C339 C341 1.433 . S
C340 C336 1.350 . S
C340 C337 1.463 . S
C340 N344 1.427 . S
C341 H331 0.929 . S
C341 C339 1.433 . S
C341 N344 1.384 . S
C342 H333 0.929 . S
C342 C334 1.378 . S
C342 C337 1.350 . S
C343 H330 0.929 . S
C343 C335 1.433 . S
C343 N345 1.384 . S
N344 C340 1.427 . S
N344 C341 1.384 . S
N345 C337 1.427 . S
N345 C343 1.384 . S
H346 C352 0.930 . S
H347 C356 0.930 . S
H348 C361 0.929 . S
H349 C359 0.929 . S
H350 C354 0.929 . S
H351 C360 0.929 . S
C352 H346 0.930 . S
C352 C353 1.367 . S
C352 C360 1.378 . S
C353 C352 1.367 . S
C353 C361 1.433 . S
C354 H350 0.929 . S
C354 C356 1.378 . S
C354 C358 1.350 . S
C355 C358 1.463 . S
C355 C360 1.350 . S
C355 N363 1.427 . S
C356 H347 0.930 . S
C356 C354 1.378 . S
C356 C357 1.367 . S
C357 C356 1.367 . S
C357 C359 1.433 . S
C358 C354 1.350 . S
C358 C355 1.463 . S
C358 N362 1.427 . S
C359 H349 0.929 . S
C359 C357 1.433 . S
C359 N362 1.384 . S
C360 H351 0.929 . S
C360 C352 1.378 . S
C360 C355 1.350 . S
C361 H348 0.929 . S
C361 C353 1.433 . S
C361 N363 1.384 . S
N362 C358 1.427 . S
N362 C359 1.384 . S
N363 C355 1.427 . S
N363 C361 1.384 . S
H364 C370 0.930 . S
H365 C374 0.930 . S
H366 C379 0.929 . S
H367 C377 0.929 . S
H368 C372 0.929 . S
H369 C378 0.929 . S
C370 H364 0.930 . S
C370 C371 1.367 . S
C370 C378 1.378 . S
C371 C370 1.367 . S
C371 C379 1.433 . S
C372 H368 0.929 . S
C372 C374 1.378 . S
C372 C376 1.350 . S
C373 C376 1.463 . S
C373 C378 1.350 . S
C373 N381 1.427 . S
C374 H365 0.930 . S
C374 C372 1.378 . S
C374 C375 1.367 . S
C375 C374 1.367 . S
C375 C377 1.433 . S
C376 C372 1.350 . S
C376 C373 1.463 . S
C376 N380 1.427 . S
C377 H367 0.929 . S
C377 C375 1.433 . S
C377 N380 1.384 . S
C378 H369 0.929 . S
C378 C370 1.378 . S
C378 C373 1.350 . S
C379 H366 0.929 . S
C379 C371 1.433 . S
C379 N381 1.384 . S
N380 C376 1.427 . S
N380 C377 1.384 . S
N381 C373 1.427 . S
N381 C379 1.384 . S
H382 C388 0.930 . S
H383 C392 0.930 . S
H384 C397 0.929 . S
H385 C395 0.929 . S
H386 C390 0.929 . S
H387 C396 0.929 . S
C388 H382 0.930 . S
C388 C389 1.367 . S
C388 C396 1.378 . S
C389 C388 1.367 . S
C389 C397 1.433 . S
C390 H386 0.929 . S
C390 C392 1.378 . S
C390 C394 1.350 . S
C391 C394 1.463 . S
C391 C396 1.350 . S
C391 N399 1.427 . S
C392 H383 0.930 . S
C392 C390 1.378 . S
C392 C393 1.367 . S
C393 C392 1.367 . S
C393 C395 1.433 . S
C394 C390 1.350 . S
C394 C391 1.463 . S
C394 N398 1.427 . S
C395 H385 0.929 . S
C395 C393 1.433 . S
C395 N398 1.384 . S
C396 H387 0.929 . S
C396 C388 1.378 . S
C396 C391 1.350 . S
C397 H384 0.929 . S
C397 C389 1.433 . S
C397 N399 1.384 . S
N398 C394 1.427 . S
N398 C395 1.384 . S
N399 C391 1.427 . S
N399 C397 1.384 . S
C119 C62 1.498 . S
C123 C6 1.498 . S
C137 C20 1.501 . S
C141 C76 1.501 . S
C155 C34 1.496 . S
C159 C90 1.496 . S
C173 C104 1.500 . S
C177 C48 1.500 . S
C191 C7 1.326 . S
C195 C35 1.334 . S
C209 C21 1.335 . S
C213 C49 1.333 . S
C227 C91 1.336 . S
C231 C63 1.328 . S
C245 C77 1.326 . S
C249 C105 1.333 . S
C263 C79 1.366 . S
C267 C8 1.323 . S
C281 C22 1.333 . S
C285 C93 1.355 . S
C299 C36 1.331 . S
C303 C107 1.364 . S
C317 C65 1.365 . S
C321 C50 1.318 . S
C335 C64 1.330 . S
C339 C23 1.364 . S
C353 C78 1.317 . S
C357 C37 1.364 . S
C371 C92 1.333 . S
C375 C51 1.355 . S
C389 C9 1.355 . S
C393 C106 1.333 . S
