# Generated by pormake.
# Topology irl, (4)-cn, num edge types: 1
# Building blocks:
#     Node 0, Type 0, BuildingBlock: ICAMEG_clean_sbu_1, # of connection points: 4
#     Node 1, Type 0, BuildingBlock: ICAMEG_clean_sbu_1, # of connection points: 4
#     Node 2, Type 0, BuildingBlock: ICAMEG_clean_sbu_1, # of connection points: 4
#     Node 3, Type 0, BuildingBlock: ICAMEG_clean_sbu_1, # of connection points: 4
#     Node 4, Type 0, BuildingBlock: ICAMEG_clean_sbu_1, # of connection points: 4
#     Node 5, Type 0, BuildingBlock: ICAMEG_clean_sbu_1, # of connection points: 4
#     Node 6, Type 0, BuildingBlock: ICAMEG_clean_sbu_1, # of connection points: 4
#     Node 7, Type 0, BuildingBlock: ICAMEG_clean_sbu_1, # of connection points: 4
#     Edge 8, Type (0, 0), BuildingBlock: ZUJKAS_clean_linker_0, # of connection points: 2
#     Edge 9, Type (0, 0), BuildingBlock: ZUJKAS_clean_linker_0, # of connection points: 2
#     Edge 10, Type (0, 0), BuildingBlock: ZUJKAS_clean_linker_0, # of connection points: 2
#     Edge 11, Type (0, 0), BuildingBlock: ZUJKAS_clean_linker_0, # of connection points: 2
#     Edge 12, Type (0, 0), BuildingBlock: ZUJKAS_clean_linker_0, # of connection points: 2
#     Edge 13, Type (0, 0), BuildingBlock: ZUJKAS_clean_linker_0, # of connection points: 2
#     Edge 14, Type (0, 0), BuildingBlock: ZUJKAS_clean_linker_0, # of connection points: 2
#     Edge 15, Type (0, 0), BuildingBlock: ZUJKAS_clean_linker_0, # of connection points: 2
#     Edge 16, Type (0, 0), BuildingBlock: ZUJKAS_clean_linker_0, # of connection points: 2
#     Edge 17, Type (0, 0), BuildingBlock: ZUJKAS_clean_linker_0, # of connection points: 2
#     Edge 18, Type (0, 0), BuildingBlock: ZUJKAS_clean_linker_0, # of connection points: 2
#     Edge 19, Type (0, 0), BuildingBlock: ZUJKAS_clean_linker_0, # of connection points: 2
#     Edge 20, Type (0, 0), BuildingBlock: ZUJKAS_clean_linker_0, # of connection points: 2
#     Edge 21, Type (0, 0), BuildingBlock: ZUJKAS_clean_linker_0, # of connection points: 2
#     Edge 22, Type (0, 0), BuildingBlock: ZUJKAS_clean_linker_0, # of connection points: 2
#     Edge 23, Type (0, 0), BuildingBlock: ZUJKAS_clean_linker_0, # of connection points: 2
# Relax obj value: 0.025
# Max RMSD: 0.078
# Mean RMSD: 0.078
data_MOF--net-irl--node1-ICAMEG_clean_sbu_1--edge1-ZUJKAS_clean_linker_0
_symmetry_space_group_name_H-M    P1
_symmetry_Int_Tables_number       1
_symmetry_cell_setting            triclinic
loop_
_symmetry_equiv_pos_as_xyz
'x, y, z'
_cell_length_a     43.896584
_cell_length_b     63.748
_cell_length_c     39.0523
_cell_angle_alpha  90.000927
_cell_angle_beta   90.001266
_cell_angle_gamma 89.90672
loop_
_atom_site_label
_atom_site_type_symbol
_atom_site_fract_x
_atom_site_fract_y
_atom_site_fract_z
_atom_type_partial_charge
Co0 Co 0.02946 0.15419 0.03526 0.0
Co1 Co 0.09965 0.13517 0.06073 0.0
O2 O 0.07386 0.15278 0.03168 0.0
C3 C 0.04006 0.14234 0.96329 0.0
O4 O 0.06012 0.12873 0.9747 0.0
C5 C 0.12512 0.17762 0.06962 0.0
O6 O 0.09715 0.18449 0.07375 0.0
O7 O 0.07922 0.14563 0.10295 0.0
O8 O 0.03173 0.15397 0.08629 0.0
H9 H 0.12097 0.08431 0.15609 0.0
H10 H 0.06218 0.18526 0.99256 0.0
O11 O 0.02599 0.15427 0.98414 0.0
H12 H 0.00887 0.22675 0.08077 0.0
H13 H 0.92533 0.18017 0.00157 0.0
H14 H 0.98296 0.13316 0.07826 0.0
H15 H 0.00374 0.18824 0.0791 0.0
H16 H 0.98139 0.17829 0.99828 0.0
O17 O 0.13013 0.15825 0.06412 0.0
H18 H 0.08859 0.10632 0.11896 0.0
H19 H 0.16656 0.12722 0.06441 0.0
H20 H 0.92693 0.13468 0.08263 0.0
H21 H 0.06777 0.22376 0.99313 0.0
H22 H 0.89774 0.15831 0.04409 0.0
H23 H 0.04106 0.24476 0.03754 0.0
O24 O 0.02612 0.12303 0.03492 0.0
H25 H 0.15024 0.14279 0.94601 0.0
H26 H 0.11565 0.09268 0.03396 0.0
H27 H 0.13953 0.07939 0.98106 0.0
H28 H 0.15704 0.10453 0.93665 0.0
H29 H 0.12598 0.1554 0.99915 0.0
H30 H 0.19981 0.10556 0.10112 0.0
H31 H 0.17701 0.08384 0.14726 0.0
O32 O 0.07003 0.11166 0.05791 0.0
C33 C 0.05193 0.15131 0.10937 0.0
C34 C 0.13117 0.09365 0.136 0.0
C35 C 0.17542 0.1056 0.10518 0.0
N36 N 0.12565 0.11791 0.08939 0.0
C37 C 0.11294 0.10611 0.11484 0.0
C38 C 0.15648 0.11787 0.08452 0.0
C39 C 0.16261 0.09341 0.13106 0.0
C40 C 0.05026 0.19432 0.01175 0.0
N41 N 0.03255 0.18453 0.03565 0.0
C42 C 0.05361 0.2161 0.01204 0.0
C43 C 0.03865 0.22787 0.03699 0.0
C44 C 0.0206 0.21777 0.06127 0.0
C45 C 0.01784 0.19596 0.06024 0.0
C46 C 0.93779 0.16984 0.01855 0.0
C47 C 0.97041 0.14358 0.06155 0.0
C48 C 0.96953 0.16868 0.01676 0.0
N49 N 0.98542 0.15576 0.03825 0.0
C50 C 0.93869 0.14433 0.06408 0.0
C51 C 0.92233 0.15758 0.04242 0.0
C52 C 0.04332 0.10847 0.04629 0.0
C53 C 0.14278 0.13168 0.96521 0.0
C54 C 0.12314 0.10372 0.01472 0.0
C55 C 0.13671 0.0961 0.98485 0.0
C56 C 0.14655 0.11021 0.95995 0.0
N57 N 0.11954 0.12481 0.0197 0.0
C58 C 0.12915 0.13874 0.99542 0.0
Co59 Co 0.9726 0.84711 0.03397 0.0
Co60 Co 0.90004 0.86276 0.05668 0.0
O61 O 0.92831 0.84627 0.02893 0.0
C62 C 0.96242 0.8579 0.9616 0.0
O63 O 0.94112 0.87079 0.97237 0.0
C64 C 0.8779 0.81937 0.06622 0.0
O65 O 0.9059 0.81379 0.07385 0.0
O66 O 0.92016 0.85331 0.09975 0.0
O67 O 0.96893 0.84755 0.0849 0.0
H68 H 0.87079 0.91271 0.15065 0.0
H69 H 0.94417 0.81416 0.99111 0.0
O70 O 0.97727 0.84679 0.98297 0.0
H71 H 0.99972 0.77611 0.08167 0.0
H72 H 0.07997 0.82617 0.00405 0.0
H73 H 0.01566 0.87064 0.07801 0.0
H74 H 0.00076 0.81476 0.07932 0.0
H75 H 0.02397 0.82523 0.99897 0.0
O76 O 0.87178 0.83834 0.0588 0.0
H77 H 0.9064 0.89218 0.11503 0.0
H78 H 0.83243 0.86755 0.05767 0.0
H79 H 0.07157 0.87195 0.08416 0.0
H80 H 0.9427 0.77547 0.99235 0.0
H81 H 0.10411 0.8496 0.047 0.0
H82 H 0.97057 0.7562 0.03794 0.0
O83 O 0.97273 0.87833 0.03306 0.0
H84 H 0.85414 0.85265 0.93998 0.0
H85 H 0.88067 0.90436 0.02898 0.0
H86 H 0.85732 0.91644 0.97504 0.0
H87 H 0.84387 0.8905 0.93008 0.0
H88 H 0.8778 0.84127 0.99418 0.0
H89 H 0.796 0.8877 0.09283 0.0
H90 H 0.81515 0.91055 0.13962 0.0
O91 O 0.92735 0.88761 0.05487 0.0
C92 C 0.94781 0.84911 0.1072 0.0
C93 C 0.86217 0.90287 0.13026 0.0
C94 C 0.8202 0.88881 0.09784 0.0
N95 N 0.87152 0.87882 0.08414 0.0
C96 C 0.88223 0.89125 0.10996 0.0
C97 C 0.84093 0.8774 0.07806 0.0
C98 C 0.83096 0.90163 0.12408 0.0
C99 C 0.95656 0.80586 0.01084 0.0
N100 N 0.97265 0.81669 0.03499 0.0
C101 C 0.95556 0.78397 0.0115 0.0
C102 C 0.97116 0.77317 0.03711 0.0
C103 C 0.98751 0.78433 0.06167 0.0
C104 C 0.98797 0.80621 0.06024 0.0
C105 C 0.06604 0.83595 0.02044 0.0
C106 C 0.02968 0.86078 0.0619 0.0
C107 C 0.03432 0.83552 0.01763 0.0
N108 N 0.01659 0.84774 0.03838 0.0
C109 C 0.06132 0.86163 0.06543 0.0
C110 C 0.07956 0.84909 0.04455 0.0
C111 C 0.95388 0.89206 0.04386 0.0
C112 C 0.85983 0.8641 0.95941 0.0
C113 C 0.87497 0.89298 0.00952 0.0
C114 C 0.86168 0.89991 0.97905 0.0
C115 C 0.85411 0.88534 0.95385 0.0
N116 N 0.88052 0.87212 0.01478 0.0
C117 C 0.87311 0.85774 0.99021 0.0
Co118 Co 0.0271 0.84348 0.53231 0.0
Co119 Co 0.09636 0.8616 0.50307 0.0
O120 O 0.07158 0.8445 0.53389 0.0
C121 C 0.04027 0.85501 0.60383 0.0
O122 O 0.05987 0.86864 0.59166 0.0
C123 C 0.12198 0.81899 0.49557 0.0
O124 O 0.09397 0.81212 0.49203 0.0
O125 O 0.07489 0.8502 0.4623 0.0
O126 O 0.02742 0.84395 0.48113 0.0
H127 H 0.11475 0.91025 0.40402 0.0
H128 H 0.06078 0.81184 0.57301 0.0
O129 O 0.02553 0.84314 0.58352 0.0
H130 H 0.00352 0.77139 0.48682 0.0
H131 H 0.92386 0.81836 0.57044 0.0
H132 H 0.97942 0.86523 0.49184 0.0
H133 H 0.99919 0.80994 0.4892 0.0
H134 H 0.98003 0.81965 0.57115 0.0
O135 O 0.12698 0.83845 0.50008 0.0
H136 H 0.08355 0.88903 0.44347 0.0
H137 H 0.16305 0.8696 0.4968 0.0
H138 H 0.92326 0.8643 0.49004 0.0
H139 H 0.0656 0.77328 0.57171 0.0
H140 H 0.89511 0.84073 0.52955 0.0
H141 H 0.0369 0.7528 0.52831 0.0
O142 O 0.02448 0.87462 0.53335 0.0
H143 H 0.15023 0.85662 0.61633 0.0
H144 H 0.11245 0.90468 0.52688 0.0
H145 H 0.13758 0.91918 0.57813 0.0
H146 H 0.1567 0.89509 0.62329 0.0
H147 H 0.12468 0.84279 0.56482 0.0
H148 H 0.19515 0.89047 0.45776 0.0
H149 H 0.17098 0.91106 0.41105 0.0
O150 O 0.06654 0.88521 0.50549 0.0
C151 C 0.04703 0.8455 0.45715 0.0
C152 C 0.12554 0.90141 0.42435 0.0
C153 C 0.17066 0.89029 0.45449 0.0
N154 N 0.12144 0.87825 0.47259 0.0
C155 C 0.10798 0.88942 0.44682 0.0
C156 C 0.15238 0.87847 0.47647 0.0
C157 C 0.15709 0.90184 0.42829 0.0
C158 C 0.048 0.80301 0.55427 0.0
N159 N 0.02963 0.81311 0.53132 0.0
C160 C 0.05092 0.78119 0.55356 0.0
C161 C 0.03484 0.76972 0.52917 0.0
C162 C 0.01612 0.78013 0.50587 0.0
C163 C 0.01381 0.80197 0.50729 0.0
C164 C 0.93587 0.82866 0.55305 0.0
C165 C 0.96733 0.85485 0.50896 0.0
C166 C 0.96766 0.82949 0.55338 0.0
N167 N 0.98297 0.84238 0.53136 0.0
C168 C 0.93553 0.85443 0.50789 0.0
C169 C 0.91975 0.84122 0.53009 0.0
C170 C 0.04088 0.88881 0.51963 0.0
C171 C 0.14207 0.86728 0.59679 0.0
C172 C 0.12064 0.89409 0.54645 0.0
C173 C 0.13491 0.90239 0.57538 0.0
C174 C 0.14565 0.88886 0.6007 0.0
N175 N 0.11722 0.87289 0.5428 0.0
C176 C 0.12771 0.85953 0.56749 0.0
Co177 Co 0.97302 0.15161 0.53386 0.0
Co178 Co 0.90255 0.13467 0.50654 0.0
O179 O 0.92854 0.15151 0.53647 0.0
C180 C 0.96055 0.14103 0.60594 0.0
O181 O 0.94032 0.12762 0.59448 0.0
C182 C 0.87819 0.17763 0.49863 0.0
O183 O 0.90633 0.18405 0.49425 0.0
O184 O 0.92362 0.14554 0.46514 0.0
O185 O 0.97176 0.15071 0.48268 0.0
H186 H 0.88052 0.08598 0.40849 0.0
H187 H 0.94141 0.1843 0.57448 0.0
O188 O 0.97548 0.1524 0.58504 0.0
H189 H 0.99892 0.22276 0.48609 0.0
H190 H 0.07795 0.17493 0.56912 0.0
H191 H 0.01902 0.12852 0.49293 0.0
H192 H 0.0016 0.18416 0.48933 0.0
H193 H 0.02177 0.17481 0.57108 0.0
O194 O 0.87269 0.1583 0.50394 0.0
H195 H 0.91322 0.10682 0.44693 0.0
H196 H 0.83549 0.12773 0.50205 0.0
H197 H 0.07516 0.12828 0.4899 0.0
H198 H 0.93826 0.22293 0.57234 0.0
H199 H 0.105 0.15161 0.52819 0.0
H200 H 0.9671 0.2424 0.52783 0.0
O201 O 0.97434 0.12045 0.53561 0.0
H202 H 0.85113 0.14111 0.62102 0.0
H203 H 0.8854 0.09199 0.53133 0.0
H204 H 0.86078 0.07817 0.58339 0.0
H205 H 0.84342 0.10281 0.62867 0.0
H206 H 0.87612 0.15426 0.56869 0.0
H207 H 0.80191 0.10725 0.46405 0.0
H208 H 0.82443 0.08611 0.41694 0.0
O209 O 0.93156 0.11056 0.5085 0.0
C210 C 0.95157 0.14958 0.45924 0.0
C211 C 0.87044 0.09506 0.429 0.0
C212 C 0.82632 0.10702 0.46015 0.0
N213 N 0.8763 0.11831 0.47689 0.0
C214 C 0.88885 0.10684 0.4509 0.0
C215 C 0.84544 0.11861 0.48155 0.0
C216 C 0.83897 0.09516 0.43373 0.0
C217 C 0.95424 0.19269 0.55525 0.0
N218 N 0.97176 0.18201 0.53217 0.0
C219 C 0.95228 0.21455 0.55407 0.0
C220 C 0.96842 0.22546 0.52906 0.0
C221 C 0.98627 0.21445 0.50562 0.0
C222 C 0.98764 0.19259 0.50753 0.0
C223 C 0.0652 0.16473 0.55225 0.0
C224 C 0.03186 0.13882 0.50952 0.0
C225 C 0.0334 0.16457 0.55329 0.0
N226 N 0.01716 0.1518 0.53193 0.0
C227 C 0.06364 0.13856 0.50776 0.0
C228 C 0.08036 0.15164 0.52928 0.0
C229 C 0.95723 0.10653 0.52228 0.0
C230 C 0.85851 0.13023 0.60142 0.0
C231 C 0.87798 0.10282 0.55095 0.0
C232 C 0.86399 0.0949 0.58034 0.0
C233 C 0.85424 0.10873 0.60572 0.0
N234 N 0.88208 0.12393 0.54691 0.0
C235 C 0.87255 0.13758 0.57167 0.0
Co236 Co 0.52753 0.65427 0.03412 0.0
Co237 Co 0.59806 0.63577 0.05921 0.0
O238 O 0.57191 0.65318 0.03031 0.0
C239 C 0.53813 0.64232 0.96228 0.0
O240 O 0.55818 0.62878 0.97388 0.0
C241 C 0.62374 0.67824 0.06852 0.0
O242 O 0.5961 0.68501 0.07518 0.0
O243 O 0.57785 0.64633 0.10154 0.0
O244 O 0.53008 0.65412 0.08513 0.0
H245 H 0.62078 0.58546 0.15492 0.0
H246 H 0.55975 0.68551 0.99128 0.0
O247 O 0.52391 0.65427 0.98301 0.0
H248 H 0.50589 0.72673 0.0794 0.0
H249 H 0.42289 0.67945 0.00084 0.0
H250 H 0.48152 0.63306 0.07757 0.0
H251 H 0.50141 0.68818 0.07793 0.0
H252 H 0.47896 0.67793 0.99722 0.0
O253 O 0.62837 0.65899 0.0617 0.0
H254 H 0.58784 0.60715 0.11792 0.0
H255 H 0.66508 0.62817 0.06221 0.0
H256 H 0.4255 0.63423 0.08227 0.0
H257 H 0.56469 0.72406 0.99165 0.0
H258 H 0.3958 0.65755 0.04371 0.0
H259 H 0.53769 0.74492 0.03601 0.0
O260 O 0.52461 0.62309 0.03393 0.0
H261 H 0.64743 0.643 0.94373 0.0
H262 H 0.61421 0.59322 0.03283 0.0
H263 H 0.63765 0.57976 0.97982 0.0
H264 H 0.65447 0.60472 0.93482 0.0
H265 H 0.62361 0.65579 0.997 0.0
H266 H 0.69889 0.60683 0.09877 0.0
H267 H 0.67674 0.58521 0.14544 0.0
O268 O 0.56864 0.61212 0.0571 0.0
C269 C 0.55045 0.65174 0.1081 0.0
C270 C 0.63069 0.59476 0.13461 0.0
C271 C 0.67453 0.60678 0.10312 0.0
N272 N 0.6245 0.61878 0.08777 0.0
C273 C 0.61215 0.60703 0.11352 0.0
C274 C 0.65529 0.61886 0.08254 0.0
C275 C 0.66209 0.59464 0.12929 0.0
C276 C 0.54773 0.69451 0.01047 0.0
N277 N 0.5302 0.68463 0.03443 0.0
C278 C 0.5507 0.71632 0.01063 0.0
C279 C 0.53558 0.72801 0.03556 0.0
C280 C 0.51775 0.71782 0.05993 0.0
C281 C 0.51534 0.69598 0.059 0.0
C282 C 0.43557 0.66925 0.01783 0.0
C283 C 0.46876 0.64334 0.06085 0.0
C284 C 0.46732 0.6683 0.01585 0.0
N285 N 0.48349 0.65554 0.03735 0.0
C286 C 0.43704 0.64389 0.06356 0.0
C287 C 0.42039 0.65697 0.04189 0.0
C288 C 0.54198 0.6087 0.04553 0.0
C289 C 0.64027 0.63197 0.96319 0.0
C290 C 0.62139 0.60419 0.01334 0.0
C291 C 0.63472 0.59647 0.98341 0.0
C292 C 0.64417 0.61049 0.95818 0.0
N293 N 0.61764 0.62529 0.01807 0.0
C294 C 0.62689 0.63913 0.99347 0.0
Co295 Co 0.47379 0.34681 0.03213 0.0
Co296 Co 0.40156 0.3624 0.05633 0.0
O297 O 0.42941 0.34607 0.02773 0.0
C298 C 0.46284 0.35807 0.96003 0.0
O299 O 0.4416 0.37087 0.9712 0.0
C300 C 0.37935 0.31894 0.06467 0.0
O301 O 0.40764 0.31302 0.06988 0.0
O302 O 0.42217 0.35253 0.09881 0.0
O303 O 0.47075 0.34687 0.08312 0.0
H304 H 0.37398 0.41161 0.15196 0.0
H305 H 0.44485 0.31421 0.98898 0.0
O306 O 0.47789 0.34685 0.98108 0.0
H307 H 0.50127 0.27543 0.07804 0.0
H308 H 0.58076 0.32597 0.00022 0.0
H309 H 0.51743 0.36997 0.07598 0.0
H310 H 0.50236 0.3141 0.07644 0.0
H311 H 0.5247 0.32512 0.99596 0.0
O312 O 0.37315 0.33808 0.05867 0.0
H313 H 0.40893 0.39126 0.11526 0.0
H314 H 0.33402 0.36753 0.05847 0.0
H315 H 0.5734 0.37118 0.08133 0.0
H316 H 0.44333 0.27552 0.98945 0.0
H317 H 0.60545 0.34906 0.04326 0.0
H318 H 0.47162 0.25588 0.03429 0.0
O319 O 0.47401 0.37805 0.03178 0.0
H320 H 0.35403 0.35326 0.94025 0.0
H321 H 0.38207 0.40427 0.02976 0.0
H322 H 0.35809 0.41679 0.97644 0.0
H323 H 0.34387 0.3912 0.93124 0.0
H324 H 0.37833 0.34143 0.99385 0.0
H325 H 0.29823 0.38749 0.09472 0.0
H326 H 0.31818 0.40979 0.14178 0.0
O327 O 0.42895 0.38718 0.05453 0.0
C328 C 0.44989 0.34822 0.10576 0.0
C329 C 0.36501 0.402 0.13148 0.0
C330 C 0.32249 0.38843 0.09938 0.0
N331 N 0.37354 0.37835 0.08461 0.0
C332 C 0.38469 0.39048 0.11056 0.0
C333 C 0.34286 0.37713 0.07898 0.0
C334 C 0.33371 0.40095 0.12577 0.0
C335 C 0.45744 0.30576 0.00837 0.0
N336 N 0.47379 0.31639 0.03254 0.0
C337 C 0.4564 0.28386 0.0086 0.0
C338 C 0.47224 0.27285 0.03379 0.0
C339 C 0.48887 0.28381 0.05836 0.0
C340 C 0.48935 0.30571 0.05737 0.0
C341 C 0.56704 0.33565 0.017 0.0
C342 C 0.53123 0.36021 0.05948 0.0
C343 C 0.53529 0.33526 0.01466 0.0
N344 N 0.51783 0.34736 0.0359 0.0
C345 C 0.56291 0.361 0.06255 0.0
C346 C 0.58088 0.3486 0.04116 0.0
C347 C 0.45533 0.39171 0.04317 0.0
C348 C 0.36005 0.36456 0.9598 0.0
C349 C 0.37604 0.39304 0.01019 0.0
C350 C 0.36239 0.40022 0.98008 0.0
C351 C 0.3544 0.38585 0.95473 0.0
N352 N 0.38151 0.37212 0.01497 0.0
C353 C 0.37369 0.35794 0.99026 0.0
Co354 Co 0.52805 0.34342 0.53064 0.0
Co355 Co 0.59731 0.36197 0.50202 0.0
O356 O 0.5725 0.34477 0.53268 0.0
C357 C 0.5404 0.35541 0.60216 0.0
O358 O 0.5599 0.36911 0.59003 0.0
C359 C 0.62337 0.31947 0.49485 0.0
O360 O 0.59544 0.31248 0.49119 0.0
O361 O 0.57625 0.35045 0.46105 0.0
O362 O 0.52882 0.34365 0.47949 0.0
H363 H 0.61586 0.41066 0.40306 0.0
H364 H 0.56189 0.31224 0.57211 0.0
O365 O 0.52604 0.34332 0.58184 0.0
H366 H 0.506 0.27093 0.48587 0.0
H367 H 0.42488 0.31771 0.56795 0.0
H368 H 0.4804 0.36459 0.48932 0.0
H369 H 0.50102 0.30946 0.4877 0.0
H370 H 0.48101 0.31945 0.56931 0.0
O371 O 0.62819 0.33896 0.49932 0.0
H372 H 0.58462 0.3893 0.44226 0.0
H373 H 0.66395 0.37029 0.49631 0.0
H374 H 0.42427 0.3632 0.48686 0.0
H375 H 0.56735 0.27372 0.57137 0.0
H376 H 0.39615 0.33963 0.52638 0.0
H377 H 0.53934 0.25281 0.52794 0.0
O378 O 0.52492 0.37456 0.53125 0.0
H379 H 0.65039 0.35732 0.61578 0.0
H380 H 0.61278 0.40514 0.5259 0.0
H381 H 0.63737 0.4198 0.57736 0.0
H382 H 0.65641 0.39582 0.62273 0.0
H383 H 0.62538 0.34333 0.56405 0.0
H384 H 0.6961 0.39131 0.45753 0.0
H385 H 0.67203 0.41175 0.41058 0.0
O386 O 0.56722 0.38542 0.50414 0.0
C387 C 0.54855 0.3454 0.45568 0.0
C388 C 0.62661 0.40188 0.42349 0.0
C389 C 0.67164 0.391 0.45404 0.0
N390 N 0.62242 0.37873 0.47172 0.0
C391 C 0.60902 0.38981 0.44583 0.0
C392 C 0.65333 0.3791 0.47588 0.0
C393 C 0.65812 0.40247 0.42771 0.0
C394 C 0.54941 0.30322 0.55336 0.0
N395 N 0.53107 0.31307 0.53009 0.0
C396 C 0.55268 0.28143 0.55297 0.0
C397 C 0.537 0.26971 0.52856 0.0
C398 C 0.5183 0.27987 0.50493 0.0
C399 C 0.51563 0.30169 0.50604 0.0
C400 C 0.43688 0.32801 0.55055 0.0
C401 C 0.46832 0.3542 0.50645 0.0
C402 C 0.46865 0.3291 0.55125 0.0
N403 N 0.48395 0.34199 0.52922 0.0
C404 C 0.43654 0.35352 0.50501 0.0
C405 C 0.42077 0.34031 0.52722 0.0
C406 C 0.54131 0.38885 0.5178 0.0
C407 C 0.64227 0.36793 0.59614 0.0
C408 C 0.62094 0.3946 0.54556 0.0
C409 C 0.6349 0.40299 0.57461 0.0
C410 C 0.6456 0.38953 0.60005 0.0
N411 N 0.61777 0.37338 0.5419 0.0
C412 C 0.62822 0.36009 0.56672 0.0
Co413 Co 0.47181 0.65148 0.53261 0.0
Co414 Co 0.40161 0.63427 0.50486 0.0
O415 O 0.42733 0.6511 0.53512 0.0
C416 C 0.45951 0.64051 0.60463 0.0
O417 O 0.43933 0.62706 0.59314 0.0
C418 C 0.37682 0.67713 0.49746 0.0
O419 O 0.40491 0.6837 0.49325 0.0
O420 O 0.42265 0.64545 0.46365 0.0
O421 O 0.47066 0.65085 0.48144 0.0
H422 H 0.38038 0.58589 0.40617 0.0
H423 H 0.43972 0.68377 0.57358 0.0
O424 O 0.47423 0.65204 0.58378 0.0
H425 H 0.4969 0.72303 0.48586 0.0
H426 H 0.57641 0.67524 0.56834 0.0
H427 H 0.51814 0.62887 0.49145 0.0
H428 H 0.50008 0.68443 0.48859 0.0
H429 H 0.52024 0.67479 0.5702 0.0
O430 O 0.37149 0.65776 0.50247 0.0
H431 H 0.41275 0.60674 0.44496 0.0
H432 H 0.33464 0.62701 0.50004 0.0
H433 H 0.57429 0.62896 0.4885 0.0
H434 H 0.43607 0.72239 0.57194 0.0
H435 H 0.6038 0.65227 0.52715 0.0
H436 H 0.46473 0.74226 0.52777 0.0
O437 O 0.4735 0.62032 0.53397 0.0
H438 H 0.3498 0.63987 0.61924 0.0
H439 H 0.38489 0.59138 0.52903 0.0
H440 H 0.36028 0.57717 0.58081 0.0
H441 H 0.34251 0.60148 0.62635 0.0
H442 H 0.3748 0.6534 0.56718 0.0
H443 H 0.30139 0.60652 0.46169 0.0
H444 H 0.32427 0.5857 0.41443 0.0
O445 O 0.43089 0.61031 0.50662 0.0
C446 C 0.45057 0.6497 0.4579 0.0
C447 C 0.37015 0.59484 0.42674 0.0
C448 C 0.32582 0.60644 0.45787 0.0
N449 N 0.37562 0.61791 0.47492 0.0
C450 C 0.38837 0.60661 0.44885 0.0
C451 C 0.34475 0.61803 0.47947 0.0
C452 C 0.33867 0.59476 0.43137 0.0
C453 C 0.45248 0.69234 0.5545 0.0
N454 N 0.47019 0.68188 0.53132 0.0
C455 C 0.45023 0.71419 0.5536 0.0
C456 C 0.46628 0.72533 0.52878 0.0
C457 C 0.48432 0.71454 0.50524 0.0
C458 C 0.48597 0.69269 0.50687 0.0
C459 C 0.56381 0.66505 0.55132 0.0
C460 C 0.53083 0.63915 0.50819 0.0
C461 C 0.53201 0.66469 0.5523 0.0
N462 N 0.51595 0.65194 0.53075 0.0
C463 C 0.56261 0.63909 0.50647 0.0
C464 C 0.57916 0.65216 0.52819 0.0
C465 C 0.45657 0.60636 0.52044 0.0
C466 C 0.35737 0.62912 0.59953 0.0
C467 C 0.37729 0.60206 0.54877 0.0
C468 C 0.36331 0.59392 0.578 0.0
C469 C 0.35332 0.60758 0.60353 0.0
N470 N 0.38116 0.62322 0.54503 0.0
C471 C 0.37141 0.6367 0.56993 0.0
H472 H 0.92015 0.92564 0.06531 0.0
H473 H 0.9339 0.96258 0.06352 0.0
H474 H 0.0211 0.94661 0.01978 0.0
H475 H 0.00745 0.90938 0.02098 0.0
H476 H 0.98294 0.9818 0.09593 0.0
H477 H 0.98776 0.9922 0.95477 0.0
H478 H 0.96975 0.96988 0.97474 0.0
H479 H 0.01051 0.97097 0.97109 0.0
C480 C 0.94224 0.92987 0.05511 0.0
C481 C 0.96265 0.91447 0.04311 0.0
C482 C 0.95002 0.95104 0.05415 0.0
C483 C 0.97829 0.95731 0.04108 0.0
C484 C 0.9989 0.94207 0.02934 0.0
H485 H 0.07174 0.07381 0.0722 0.0
H486 H 0.05433 0.03761 0.0706 0.0
C487 C 0.99114 0.92081 0.03027 0.0
C488 C 0.98644 0.97979 0.04102 0.0
H489 H 0.00513 0.02072 0.98877 0.0
C490 C 0.9877 0.99034 0.07251 0.0
C491 C 0.99218 0.99089 0.01035 0.0
C492 C 0.98975 0.98051 0.97575 0.0
C493 C 0.99522 0.01166 0.07424 0.0
C494 C 0.00197 0.02259 0.04369 0.0
C495 C 1.00006 0.01219 0.01212 0.0
C496 C 0.0122 0.04463 0.04427 0.0
C497 C 0.99576 0.02238 0.10869 0.0
C498 C 0.99441 0.06051 0.02943 0.0
C499 C 0.00428 0.08136 0.03025 0.0
C500 C 0.03225 0.08656 0.04565 0.0
C501 C 0.05004 0.07046 0.0602 0.0
C502 C 0.04012 0.04972 0.05945 0.0
H503 H 0.98287 0.01337 0.12826 0.0
H504 H 0.0197 0.02374 0.11754 0.0
H505 H 0.98602 0.03843 0.10697 0.0
H506 H 0.97283 0.05677 0.01746 0.0
H507 H 0.99009 0.09334 0.0187 0.0
H508 H 0.05678 0.92078 0.47704 0.0
H509 H 0.04205 0.95758 0.48121 0.0
H510 H 0.98796 0.94374 0.57066 0.0
H511 H 0.00163 0.90659 0.56573 0.0
H512 H 0.95864 0.96984 0.53073 0.0
H513 H 0.07592 -0.00044 0.54641 0.0
H514 H 0.07235 0.98488 0.5075 0.0
H515 H 0.06705 0.97197 0.54814 0.0
C516 C 0.04169 0.92555 0.49757 0.0
C517 C 0.0305 0.91082 0.5212 0.0
C518 C 0.03352 0.94664 0.50012 0.0
C519 C 0.01466 0.95355 0.52687 0.0
C520 C 0.0028 0.93879 0.55 0.0
H521 H 0.99656 0.08811 0.56761 0.0
H522 H 0.00961 0.05082 0.57177 0.0
C523 C 0.01054 0.91758 0.54711 0.0
C524 C 0.00685 0.97611 0.5301 0.0
H525 H 0.03806 0.02511 0.53086 0.0
C526 C 0.97602 0.98192 0.53115 0.0
C527 C 0.02951 0.99188 0.53152 0.0
C528 C 0.06303 0.98674 0.53374 0.0
C529 C 0.9672 0.00307 0.53221 0.0
C530 C 0.98984 0.01886 0.53088 0.0
C531 C 0.02068 0.01304 0.53123 0.0
C532 C 0.98204 0.04146 0.52839 0.0
C533 C 0.93371 0.00819 0.53513 0.0
C534 C 0.96281 0.04867 0.50219 0.0
C535 C 0.95499 0.06984 0.5001 0.0
C536 C 0.9669 0.08436 0.52363 0.0
C537 C 0.9871 0.07729 0.54908 0.0
C538 C 0.99449 0.05599 0.55152 0.0
H539 H 0.92101 0.99525 0.54773 0.0
H540 H 0.92988 0.02283 0.54992 0.0
H541 H 0.92402 0.01025 0.5091 0.0
H542 H 0.95382 0.03792 0.48327 0.0
H543 H 0.93969 0.07485 0.47992 0.0
H544 H 0.48854 0.59313 0.01909 0.0
H545 H 0.47192 0.55643 0.01818 0.0
H546 H 0.55463 0.53793 0.06957 0.0
H547 H 0.57138 0.57427 0.07092 0.0
H548 H 0.50367 0.5209 0.98863 0.0
H549 H 0.48546 0.51268 0.12869 0.0
H550 H 0.48798 0.53787 0.10772 0.0
H551 H 0.52197 0.52319 0.11703 0.0
C552 C 0.50313 0.58127 0.03034 0.0
C553 C 0.53125 0.5867 0.04517 0.0
C554 C 0.49362 0.56034 0.02972 0.0
C555 C 0.51194 0.5446 0.04416 0.0
C556 C 0.54 0.54993 0.05877 0.0
H557 H 0.50824 0.40932 0.01892 0.0
H558 H 0.52165 0.4466 0.01797 0.0
C559 C 0.54955 0.57075 0.05937 0.0
C560 C 0.50213 0.52246 0.04367 0.0
H561 H 0.48545 0.48122 0.09599 0.0
C562 C 0.49947 0.51221 0.01203 0.0
C563 C 0.49651 0.51131 0.07429 0.0
C564 C 0.49783 0.52183 0.10888 0.0
C565 C 0.49191 0.49085 0.01026 0.0
C566 C 0.48732 0.47953 0.04095 0.0
C567 C 0.48936 0.48992 0.07254 0.0
C568 C 0.47939 0.45702 0.04098 0.0
C569 C 0.48858 0.48064 0.97562 0.0
C570 C 0.45154 0.45057 0.0549 0.0
C571 C 0.44391 0.42938 0.05571 0.0
C572 C 0.46405 0.41413 0.04269 0.0
C573 C 0.49215 0.42063 0.02901 0.0
C574 C 0.49977 0.44193 0.02823 0.0
H575 H 0.48589 0.49243 0.95488 0.0
H576 H 0.50927 0.47121 0.97007 0.0
H577 H 0.46864 0.46993 0.97519 0.0
H578 H 0.43561 0.462 0.06504 0.0
H579 H 0.42212 0.42501 0.06658 0.0
H580 H 0.55746 0.42092 0.47554 0.0
H581 H 0.54243 0.45766 0.47962 0.0
H582 H 0.48719 0.4435 0.56803 0.0
H583 H 0.50119 0.4064 0.56319 0.0
H584 H 0.45833 0.4697 0.52767 0.0
H585 H 0.57531 0.49946 0.54585 0.0
H586 H 0.57236 0.48487 0.50679 0.0
H587 H 0.56644 0.47186 0.54724 0.0
C588 C 0.54204 0.4256 0.49581 0.0
C589 C 0.53065 0.4108 0.5192 0.0
C590 C 0.5337 0.44666 0.49831 0.0
C591 C 0.51444 0.45347 0.52477 0.0
C592 C 0.50234 0.43863 0.54761 0.0
H593 H 0.49543 0.58789 0.56622 0.0
H594 H 0.50856 0.55061 0.57027 0.0
C595 C 0.51027 0.41744 0.54477 0.0
C596 C 0.50653 0.47601 0.52803 0.0
H597 H 0.53765 0.52503 0.52976 0.0
C598 C 0.47568 0.48179 0.52851 0.0
C599 C 0.52914 0.49179 0.53001 0.0
C600 C 0.56263 0.48666 0.53285 0.0
C601 C 0.46681 0.50293 0.52955 0.0
C602 C 0.48944 0.51874 0.52878 0.0
C603 C 0.52028 0.51294 0.5297 0.0
C604 C 0.48165 0.54135 0.52631 0.0
C605 C 0.43327 0.50801 0.53185 0.0
C606 C 0.46279 0.54861 0.49981 0.0
C607 C 0.45492 0.56978 0.49778 0.0
C608 C 0.46642 0.58423 0.52167 0.0
C609 C 0.48629 0.57712 0.5474 0.0
C610 C 0.49372 0.55582 0.54979 0.0
H611 H 0.4204 0.49504 0.54411 0.0
H612 H 0.42919 0.52261 0.54667 0.0
H613 H 0.42399 0.51014 0.50565 0.0
H614 H 0.45411 0.53791 0.48064 0.0
H615 H 0.43988 0.57483 0.47738 0.0
H616 H 0.99509 0.16076 0.13377 0.0
H617 H 0.97878 0.16301 0.19335 0.0
H618 H 0.07058 0.15052 0.22686 0.0
H619 H 0.08734 0.14811 0.16718 0.0
H620 H 0.98757 0.12849 0.24283 0.0
H621 H 0.04122 0.20371 0.28249 0.0
H622 H 0.03355 0.19742 0.23819 0.0
H623 H 0.06496 0.18527 0.25992 0.0
C624 C 0.012 0.15868 0.15369 0.0
C625 C 0.04259 0.15421 0.14557 0.0
C626 C 0.00256 0.15998 0.18775 0.0
C627 C 0.02352 0.15708 0.21438 0.0
C628 C 0.05416 0.15305 0.20657 0.0
H629 H 0.00989 0.15301 0.43507 0.0
H630 H 0.02646 0.15521 0.37558 0.0
C631 C 0.06365 0.15162 0.17244 0.0
C632 C 0.01284 0.15701 0.25029 0.0
H633 H 0.01672 0.18396 0.32565 0.0
C634 C 0.9938 0.14064 0.26098 0.0
C635 C 0.02124 0.17283 0.27376 0.0
C636 C 0.04121 0.19093 0.26315 0.0
C637 C 0.98328 0.13943 0.29484 0.0
C638 C 0.99135 0.1554 0.31835 0.0
C639 C 0.01043 0.1718 0.30756 0.0
C640 C 0.98089 0.15503 0.35446 0.0
C641 C 0.9644 0.12072 0.3053 0.0
C642 C 0.94971 0.15467 0.36243 0.0
C643 C 0.94009 0.15318 0.39647 0.0
C644 C 0.96151 0.15236 0.42324 0.0
C645 C 0.99272 0.15353 0.41517 0.0
C646 C 0.00228 0.15482 0.38113 0.0
H647 H 0.9675 0.10734 0.28741 0.0
H648 H 0.97035 0.11541 0.33155 0.0
H649 H 0.93994 0.12513 0.30499 0.0
H650 H 0.93278 0.15538 0.34229 0.0
H651 H 0.91588 0.15254 0.40175 0.0
H652 H 0.98873 0.8385 0.43505 0.0
H653 H 0.97061 0.83621 0.37608 0.0
H654 H 0.06249 0.84372 0.33918 0.0
H655 H 0.08103 0.84614 0.39814 0.0
H656 H 0.98077 0.86919 0.32494 0.0
H657 H 0.02736 0.79149 0.28661 0.0
H658 H 0.02168 0.79884 0.33085 0.0
H659 H 0.05353 0.80906 0.3074 0.0
C660 C 0.00523 0.83946 0.4145 0.0
C661 C 0.0364 0.84254 0.42143 0.0
C662 C 0.99477 0.83816 0.3808 0.0
C663 C 0.01525 0.83963 0.3534 0.0
C664 C 0.0464 0.84227 0.36008 0.0
H665 H 0.00495 0.84399 0.1339 0.0
H666 H 0.01938 0.84118 0.19393 0.0
C667 C 0.05692 0.84372 0.3938 0.0
C668 C 0.00377 0.83968 0.3178 0.0
H669 H 0.0056 0.81235 0.24272 0.0
C670 C 0.98596 0.85671 0.30695 0.0
C671 C 0.01076 0.82341 0.29455 0.0
C672 C 0.0292 0.80455 0.30534 0.0
C673 C 0.97562 0.85823 0.27304 0.0
C674 C 0.98264 0.84195 0.24965 0.0
C675 C 0.00016 0.82477 0.26071 0.0
C676 C 0.97324 0.84292 0.2132 0.0
C677 C 0.95828 0.87761 0.26231 0.0
C678 C 0.94239 0.84447 0.204 0.0
C679 C 0.93398 0.8463 0.16956 0.0
C680 C 0.95629 0.84632 0.14368 0.0
C681 C 0.9871 0.84411 0.15305 0.0
C682 C 0.99545 0.84245 0.18742 0.0
H683 H 0.96172 0.89078 0.28054 0.0
H684 H 0.96531 0.88286 0.23638 0.0
H685 H 0.93357 0.87401 0.26162 0.0
H686 H 0.92481 0.84436 0.22344 0.0
H687 H 0.91004 0.84779 0.16329 0.0
H688 H 0.99372 0.8345 0.63573 0.0
H689 H 0.98089 0.83493 0.69651 0.0
H690 H 0.05923 0.87373 0.71697 0.0
H691 H 0.07179 0.87389 0.65588 0.0
H692 H 0.01108 0.82148 0.75185 0.0
H693 H 0.99214 0.90729 0.76165 0.0
H694 H 0.99641 0.89408 0.72109 0.0
H695 H 0.02941 0.90055 0.74629 0.0
C696 C 0.00828 0.84312 0.65312 0.0
C697 C 0.03365 0.85431 0.64094 0.0
C698 C 0.00089 0.84335 0.68788 0.0
C699 C 0.01874 0.85469 0.71121 0.0
C700 C 0.04465 0.86534 0.69931 0.0
H701 H 0.01178 0.83906 0.93212 0.0
H702 H 0.02514 0.83805 0.87147 0.0
C703 C 0.05192 0.8653 0.66443 0.0
C704 C 0.01019 0.85517 0.74795 0.0
H705 H 0.99227 0.88816 0.81385 0.0
C706 C 0.00689 0.83605 0.7654 0.0
C707 C 0.00421 0.87419 0.76543 0.0
C708 C 0.00541 0.89518 0.7476 0.0
C709 C 0.99811 0.83542 0.79993 0.0
C710 C 0.99329 0.85447 0.81777 0.0
C711 C 0.99624 0.87358 0.80023 0.0
C712 C 0.98504 0.85495 0.85459 0.0
C713 C 0.99342 0.81433 0.81669 0.0
C714 C 0.95848 0.86532 0.86543 0.0
C715 C 0.95099 0.8662 0.9002 0.0
C716 C 0.96993 0.8567 0.92475 0.0
C717 C 0.99653 0.84635 0.91382 0.0
C718 C 0.00413 0.84564 0.87911 0.0
H719 H 0.98898 0.80187 0.79743 0.0
H720 H 0.01434 0.80993 0.83094 0.0
H721 H 0.97409 0.81476 0.83501 0.0
H722 H 0.9435 0.87269 0.84694 0.0
H723 H 0.93034 0.87429 0.9078 0.0
H724 H 0.99229 0.16266 0.93317 0.0
H725 H 0.97799 0.1625 0.87278 0.0
H726 H 0.05641 0.12422 0.84937 0.0
H727 H 0.07042 0.12377 0.91004 0.0
H728 H 0.00656 0.17657 0.81707 0.0
H729 H 0.98915 0.09078 0.80537 0.0
H730 H 0.99405 0.10359 0.84618 0.0
H731 H 0.02663 0.09748 0.82001 0.0
C732 C 0.00653 0.15419 0.91521 0.0
C733 C 0.03238 0.14307 0.92643 0.0
C734 C 0.9983 0.15412 0.88067 0.0
C735 C 0.01577 0.14302 0.85663 0.0
C736 C 0.0421 0.13241 0.8676 0.0
H737 H 0.00842 0.16073 0.63674 0.0
H738 H 0.02086 0.16155 0.6976 0.0
C739 C 0.0502 0.13229 0.90224 0.0
C740 C 0.00652 0.14283 0.82008 0.0
H741 H 0.98892 0.11034 0.75347 0.0
C742 C 0.00258 0.16209 0.80319 0.0
C743 C 0.00077 0.12394 0.80217 0.0
C744 C 0.00254 0.10279 0.81943 0.0
C745 C 0.99355 0.16298 0.76875 0.0
C746 C 0.98915 0.14408 0.75041 0.0
C747 C 0.99258 0.12482 0.76745 0.0
C748 C 0.98123 0.14387 0.71347 0.0
C749 C 0.98826 0.18419 0.75261 0.0
C750 C 0.95524 0.13315 0.70196 0.0
C751 C 0.94829 0.13236 0.66703 0.0
C752 C 0.96721 0.14233 0.643 0.0
C753 C 0.99317 0.15309 0.65462 0.0
C754 C 0.00024 0.15369 0.68946 0.0
H755 H 0.98319 0.19633 0.77224 0.0
H756 H 0.00916 0.18909 0.73881 0.0
H757 H 0.96912 0.18372 0.73404 0.0
H758 H 0.94032 0.12538 0.72003 0.0
H759 H 0.92814 0.12394 0.65888 0.0
H760 H 0.58585 0.64814 0.16592 0.0
H761 H 0.56901 0.65036 0.22565 0.0
H762 H 0.47749 0.66373 0.19214 0.0
H763 H 0.49383 0.66168 0.13256 0.0
H764 H 0.53301 0.68625 0.26051 0.0
H765 H 0.47492 0.60874 0.2548 0.0
H766 H 0.5049 0.61598 0.2254 0.0
H767 H 0.46744 0.62684 0.22042 0.0
C768 C 0.56219 0.65175 0.1712 0.0
C769 C 0.54119 0.6546 0.14433 0.0
C770 C 0.55265 0.65302 0.20533 0.0
C771 C 0.522 0.65701 0.21312 0.0
C772 C 0.5012 0.66046 0.18652 0.0
H773 H 0.41527 0.65094 0.39991 0.0
H774 H 0.43248 0.65453 0.34066 0.0
C775 C 0.51066 0.6593 0.15247 0.0
C776 C 0.51137 0.65684 0.24901 0.0
H777 H 0.46932 0.62825 0.30565 0.0
C778 C 0.51915 0.67359 0.27053 0.0
C779 C 0.49314 0.64034 0.2617 0.0
C780 C 0.48466 0.62184 0.23957 0.0
C781 C 0.50877 0.67441 0.30454 0.0
C782 C 0.49078 0.65775 0.31743 0.0
C783 C 0.48302 0.64103 0.29573 0.0
C784 C 0.4803 0.65701 0.35351 0.0
C785 C 0.51657 0.69332 0.32603 0.0
C786 C 0.50146 0.65717 0.38042 0.0
C787 C 0.49172 0.65529 0.41431 0.0
C788 C 0.46058 0.65288 0.42202 0.0
C789 C 0.4394 0.6528 0.39497 0.0
C790 C 0.44919 0.65483 0.36107 0.0
H791 H 0.52202 0.70715 0.30984 0.0
H792 H 0.49755 0.69753 0.34348 0.0
H793 H 0.53695 0.68974 0.3418 0.0
H794 H 0.52564 0.65828 0.37519 0.0
H795 H 0.50874 0.65527 0.43439 0.0
H796 H 0.58252 0.34769 0.39674 0.0
H797 H 0.56416 0.34523 0.33767 0.0
H798 H 0.47303 0.33398 0.3743 0.0
H799 H 0.49093 0.33631 0.43334 0.0
H800 H 0.52752 0.31022 0.30451 0.0
H801 H 0.4694 0.38785 0.31054 0.0
H802 H 0.49944 0.38055 0.33985 0.0
H803 H 0.462 0.36975 0.3449 0.0
C804 C 0.55861 0.34451 0.39231 0.0
C805 C 0.5382 0.34233 0.41989 0.0
C806 C 0.5482 0.34309 0.35854 0.0
C807 C 0.51724 0.33965 0.35179 0.0
C808 C 0.49697 0.33686 0.37911 0.0
H809 H 0.41277 0.34708 0.16236 0.0
H810 H 0.42811 0.34298 0.22223 0.0
C811 C 0.50733 0.33816 0.41284 0.0
C812 C 0.5059 0.33967 0.31617 0.0
H813 H 0.46418 0.36857 0.25949 0.0
C814 C 0.51365 0.32293 0.29457 0.0
C815 C 0.48764 0.35622 0.30355 0.0
C816 C 0.47918 0.37473 0.32572 0.0
C817 C 0.50347 0.32227 0.2605 0.0
C818 C 0.48574 0.33908 0.24758 0.0
C819 C 0.47772 0.35569 0.26942 0.0
C820 C 0.47627 0.34026 0.21117 0.0
C821 C 0.5114 0.30341 0.23888 0.0
C822 C 0.49825 0.3402 0.18511 0.0
C823 C 0.48958 0.34239 0.15092 0.0
C824 C 0.45872 0.345 0.14203 0.0
C825 C 0.43671 0.34507 0.16823 0.0
C826 C 0.44543 0.34273 0.20247 0.0
H827 H 0.51616 0.28942 0.25499 0.0
H828 H 0.49273 0.29954 0.22077 0.0
H829 H 0.53224 0.30685 0.22383 0.0
H830 H 0.52224 0.33891 0.19125 0.0
H831 H 0.50723 0.34242 0.13153 0.0
H832 H 0.43002 0.3743 0.90665 0.0
H833 H 0.44266 0.37285 0.84562 0.0
H834 H 0.52514 0.33892 0.86919 0.0
H835 H 0.5123 0.33976 0.92996 0.0
H836 H 0.49066 0.38867 0.81178 0.0
H837 H 0.48914 0.30237 0.79572 0.0
H838 H 0.47436 0.31514 0.83347 0.0
H839 H 0.51466 0.31063 0.82892 0.0
C840 C 0.45075 0.36641 0.89878 0.0
C841 C 0.47006 0.35703 0.9231 0.0
C842 C 0.45794 0.3656 0.86392 0.0
C843 C 0.48458 0.35545 0.85278 0.0
C844 C 0.50406 0.34632 0.87707 0.0
H845 H 0.571 0.37492 0.65428 0.0
H846 H 0.55799 0.37486 0.71524 0.0
C847 C 0.49675 0.34693 0.91185 0.0
C848 C 0.49251 0.355 0.81586 0.0
H849 H 0.51097 0.3221 0.75005 0.0
C850 C 0.49494 0.37411 0.79821 0.0
C851 C 0.49771 0.33598 0.79808 0.0
C852 C 0.49353 0.31487 0.81492 0.0
C853 C 0.50284 0.37475 0.7634 0.0
C854 C 0.50929 0.35578 0.74601 0.0
C855 C 0.50643 0.33665 0.76353 0.0
C856 C 0.51802 0.35533 0.70932 0.0
C857 C 0.5035 0.39572 0.74546 0.0
C858 C 0.50061 0.3437 0.68595 0.0
C859 C 0.50827 0.34341 0.65127 0.0
C860 C 0.53347 0.35483 0.6392 0.0
C861 C 0.55127 0.36614 0.66273 0.0
C862 C 0.54374 0.36624 0.69753 0.0
H863 H 0.48984 0.40768 0.7594 0.0
H864 H 0.52735 0.40141 0.74423 0.0
H865 H 0.49463 0.39445 0.71892 0.0
H866 H 0.48077 0.33507 0.69449 0.0
H867 H 0.49406 0.33454 0.63384 0.0
H868 H 0.56951 0.62413 0.90952 0.0
H869 H 0.55669 0.62492 0.84853 0.0
H870 H 0.47712 0.66231 0.87078 0.0
H871 H 0.49022 0.66213 0.93151 0.0
H872 H 0.50741 0.61011 0.81609 0.0
H873 H 0.51504 0.69582 0.7948 0.0
H874 H 0.52911 0.68343 0.83321 0.0
H875 H 0.48916 0.68919 0.82861 0.0
C876 C 0.54942 0.63266 0.90137 0.0
C877 C 0.53098 0.64317 0.92531 0.0
C878 C 0.54211 0.63308 0.86653 0.0
C879 C 0.51622 0.64396 0.855 0.0
C880 C 0.49765 0.6543 0.87892 0.0
H881 H 0.42785 0.62292 0.65778 0.0
H882 H 0.44094 0.62385 0.71872 0.0
C883 C 0.50509 0.65407 0.91368 0.0
C884 C 0.50803 0.64386 0.81813 0.0
H885 H 0.49162 0.67584 0.75046 0.0
C886 C 0.50412 0.62448 0.80167 0.0
C887 C 0.5041 0.66262 0.79924 0.0
C888 C 0.50987 0.68393 0.81476 0.0
C889 C 0.49603 0.62331 0.76694 0.0
C890 C 0.49088 0.64208 0.74843 0.0
C891 C 0.49516 0.66146 0.76479 0.0
C892 C 0.48213 0.642 0.71172 0.0
C893 C 0.4938 0.602 0.7503 0.0
C894 C 0.50025 0.65258 0.68771 0.0
C895 C 0.49255 0.65239 0.65303 0.0
C896 C 0.46661 0.64152 0.64161 0.0
C897 C 0.44815 0.63125 0.66574 0.0
C898 C 0.45572 0.63164 0.70054 0.0
H899 H 0.50666 0.58993 0.76491 0.0
H900 H 0.46957 0.5971 0.74951 0.0
H901 H 0.50263 0.60236 0.72367 0.0
H902 H 0.52065 0.66076 0.69575 0.0
H903 H 0.50729 0.66046 0.63512 0.0
H904 H 0.31863 0.32712 0.0595 0.0
H905 H 0.27662 0.30231 0.06192 0.0
H906 H 0.34028 0.25128 0.07446 0.0
H907 H 0.38281 0.27617 0.07264 0.0
H908 H 0.26492 0.2691 0.01894 0.0
H909 H 0.28021 0.24202 0.15314 0.0
H910 H 0.29886 0.26509 0.13651 0.0
H911 H 0.31335 0.23944 0.12648 0.0
C912 C 0.32384 0.31064 0.06291 0.0
C913 C 0.35412 0.30362 0.06604 0.0
C914 C 0.29973 0.29648 0.06427 0.0
C915 C 0.30531 0.27502 0.06881 0.0
C916 C 0.33548 0.26786 0.07163 0.0
H917 H 0.18547 0.16758 0.07111 0.0
H918 H 0.22885 0.19147 0.07116 0.0
C919 C 0.35974 0.28207 0.0704 0.0
C920 C 0.27933 0.26026 0.06966 0.0
H921 H 0.24234 0.22484 0.12027 0.0
C922 C 0.25993 0.25944 0.04111 0.0
C923 C 0.2729 0.24776 0.09868 0.0
C924 C 0.29223 0.24868 0.1306 0.0
C925 C 0.23436 0.2463 0.04068 0.0
C926 C 0.22792 0.23385 0.06969 0.0
C927 C 0.2474 0.23451 0.09815 0.0
C928 C 0.20139 0.21965 0.07061 0.0
C929 C 0.21467 0.24555 0.00903 0.0
C930 C 0.17159 0.22768 0.07075 0.0
C931 C 0.14663 0.21406 0.07084 0.0
C932 C 0.15119 0.19223 0.0707 0.0
C933 C 0.18114 0.18432 0.07103 0.0
C934 C 0.20599 0.19792 0.07115 0.0
H935 H 0.22599 0.25295 0.98663 0.0
H936 H 0.20885 0.22909 0.00244 0.0
H937 H 0.19308 0.2541 0.01402 0.0
H938 H 0.16768 0.24446 0.07071 0.0
H939 H 0.12386 0.22062 0.07059 0.0
H940 H 0.68199 0.66972 0.04888 0.0
H941 H 0.72575 0.69322 0.04972 0.0
H942 H 0.66921 0.743 0.08928 0.0
H943 H 0.62495 0.71951 0.08856 0.0
H944 H 0.73023 0.7334 0.0148 0.0
H945 H 0.74434 0.73867 0.15617 0.0
H946 H 0.72326 0.71778 0.13581 0.0
H947 H 0.70664 0.7434 0.13976 0.0
C948 C 0.67876 0.68564 0.05789 0.0
C949 C 0.64997 0.69274 0.06882 0.0
C950 C 0.70382 0.69903 0.05829 0.0
C951 C 0.70071 0.7197 0.0699 0.0
C952 C 0.67206 0.72696 0.08066 0.0
H953 H 0.8196 0.8253 0.04448 0.0
H954 H 0.77776 0.80022 0.04524 0.0
C955 C 0.64682 0.71358 0.08008 0.0
C956 C 0.72746 0.73372 0.06984 0.0
H957 H 0.77636 0.76016 0.12227 0.0
C958 C 0.74036 0.73925 0.03826 0.0
C959 C 0.74076 0.74102 0.10055 0.0
C960 C 0.72828 0.73485 0.13509 0.0
C961 C 0.76598 0.75231 0.03656 0.0
C962 C 0.77883 0.76004 0.06722 0.0
C963 C 0.76632 0.75418 0.09885 0.0
C964 C 0.8045 0.77496 0.06679 0.0
C965 C 0.77921 0.75773 0.00202 0.0
C966 C 0.83332 0.76904 0.07903 0.0
C967 C 0.85746 0.78335 0.07856 0.0
C968 C 0.85293 0.80384 0.06623 0.0
C969 C 0.82391 0.80966 0.05417 0.0
C970 C 0.79996 0.79534 0.05446 0.0
H971 H 0.77089 0.74703 0.98162 0.0
H972 H 0.77248 0.77398 0.99512 0.0
H973 H 0.80449 0.75704 0.00273 0.0
H974 H 0.83712 0.75333 0.08875 0.0
H975 H 0.87952 0.77844 0.08809 0.0
H976 H 0.1206 0.77598 0.49405 0.0
H977 H 0.16426 0.75194 0.49447 0.0
H978 H 0.22567 0.80467 0.49547 0.0
H979 H 0.18244 0.82872 0.49563 0.0
H980 H 0.21186 0.74817 0.44782 0.0
H981 H 0.25571 0.77 0.5762 0.0
H982 H 0.21815 0.77732 0.5616 0.0
H983 H 0.25097 0.79195 0.54791 0.0
C984 C 0.14341 0.78244 0.49441 0.0
C985 C 0.14804 0.80426 0.49501 0.0
C986 C 0.1683 0.7687 0.49466 0.0
C987 C 0.19816 0.77654 0.49564 0.0
C988 C 0.20281 0.79829 0.49557 0.0
H989 H 0.37886 0.72005 0.4927 0.0
H990 H 0.33553 0.7444 0.49107 0.0
C991 C 0.17803 0.81201 0.49546 0.0
C992 C 0.22456 0.76204 0.49602 0.0
H993 H 0.2879 0.74855 0.54188 0.0
C994 C 0.2284 0.74816 0.46846 0.0
C995 C 0.24614 0.76212 0.52296 0.0
C996 C 0.24246 0.776 0.55401 0.0
C997 C 0.25354 0.73456 0.46685 0.0
C998 C 0.27514 0.73473 0.49371 0.0
C999 C 0.27135 0.7486 0.52124 0.0
C1000 C 0.30131 0.72009 0.49426 0.0
C1001 C 0.25706 0.72036 0.43619 0.0
C1002 C 0.29632 0.69845 0.49704 0.0
C1003 C 0.32088 0.68456 0.49805 0.0
C1004 C 0.35099 0.69205 0.49638 0.0
C1005 C 0.35596 0.71378 0.49384 0.0
C1006 C 0.33128 0.7277 0.49296 0.0
H1007 H 0.24294 0.7257 0.41424 0.0
H1008 H 0.28124 0.71955 0.4279 0.0
H1009 H 0.24968 0.70428 0.44321 0.0
H1010 H 0.27336 0.69232 0.4987 0.0
H1011 H 0.31621 0.66794 0.50016 0.0
H1012 H 0.62234 0.27646 0.49381 0.0
H1013 H 0.66617 0.25258 0.49445 0.0
H1014 H 0.72718 0.30554 0.49481 0.0
H1015 H 0.68377 0.32944 0.49478 0.0
H1016 H 0.71366 0.24875 0.44785 0.0
H1017 H 0.75765 0.27136 0.57581 0.0
H1018 H 0.72004 0.27853 0.56121 0.0
H1019 H 0.75278 0.29313 0.54719 0.0
C1020 C 0.64509 0.28301 0.49407 0.0
C1021 C 0.64956 0.30484 0.49445 0.0
C1022 C 0.67008 0.26936 0.49446 0.0
C1023 C 0.69989 0.27731 0.49532 0.0
C1024 C 0.70438 0.29908 0.49501 0.0
H1025 H 0.88058 0.22051 0.49312 0.0
H1026 H 0.83744 0.24501 0.49108 0.0
C1027 C 0.67949 0.31271 0.49479 0.0
C1028 C 0.72639 0.2629 0.49582 0.0
H1029 H 0.78976 0.24968 0.54182 0.0
C1030 C 0.73022 0.24887 0.46846 0.0
C1031 C 0.748 0.26315 0.52273 0.0
C1032 C 0.74434 0.2772 0.55357 0.0
C1033 C 0.75535 0.23526 0.46705 0.0
C1034 C 0.77696 0.23557 0.49389 0.0
C1035 C 0.77321 0.24962 0.52119 0.0
C1036 C 0.80303 0.22085 0.49473 0.0
C1037 C 0.75885 0.22087 0.43662 0.0
C1038 C 0.79787 0.19926 0.49792 0.0
C1039 C 0.82232 0.18528 0.49918 0.0
C1040 C 0.85249 0.19265 0.49734 0.0
C1041 C 0.85763 0.21434 0.49441 0.0
C1042 C 0.83305 0.22834 0.49328 0.0
H1043 H 0.74477 0.22611 0.41457 0.0
H1044 H 0.78302 0.21995 0.42837 0.0
H1045 H 0.75138 0.20485 0.44387 0.0
H1046 H 0.77487 0.19322 0.49971 0.0
H1047 H 0.81751 0.16869 0.5016 0.0
loop_
_geom_bond_atom_site_label_1
_geom_bond_atom_site_label_2
_geom_bond_distance
_geom_bond_site_symmetry_2
_ccdc_geom_bond_type
Co0 O2 2.143 . S
Co0 O8 2.074 . S
Co0 O11 2.093 1_554 S
Co0 O24 2.097 . S
Co0 N41 2.151 1_455 S
Co0 N49 2.214 1_455 S
Co1 O2 2.160 . S
Co1 O7 2.058 . S
Co1 O17 2.057 . S
Co1 O32 2.037 . S
Co1 N36 2.145 . S
Co1 N57 2.257 . S
O2 Co0 2.143 . S
O2 Co1 2.160 . S
C3 O4 1.278 . S
C3 O11 1.224 . S
O4 C3 1.278 . S
C5 O6 1.245 . S
C5 O17 1.232 . S
O6 C5 1.245 . S
O7 Co1 2.058 . S
O7 C33 1.269 . S
O8 Co0 2.074 . S
O8 C33 1.257 . S
H9 C34 0.930 . S
H10 C40 0.930 1_556 S
O11 Co0 2.093 1_556 S
O11 C3 1.224 . S
H12 C44 0.929 . S
H13 C46 0.930 . S
H14 C47 0.930 . S
H15 C45 0.929 . S
H16 C48 0.928 . S
O17 Co1 2.057 . S
O17 C5 1.232 . S
H18 C37 0.929 . S
H19 C38 0.929 . S
H20 C50 0.931 . S
H21 C42 0.942 1_556 S
H22 C51 0.930 . S
H23 C43 0.931 . S
O24 Co0 2.097 . S
O24 C52 1.214 . S
H25 C53 0.929 . S
H26 C54 0.929 . S
H27 C55 0.930 . S
H28 C56 0.929 . S
H29 C58 0.930 . S
H30 C35 0.930 . S
H31 C39 0.930 . S
O32 Co1 2.037 . S
O32 C52 1.234 . S
C33 O7 1.269 . S
C33 O8 1.257 . S
C34 H9 0.930 . S
C34 C37 1.388 . S
C34 C39 1.418 . S
C35 H30 0.930 . S
C35 C38 1.404 . S
C35 C39 1.353 . S
N36 Co1 2.145 . S
N36 C37 1.397 . S
N36 C38 1.334 . S
C37 H18 0.929 . S
C37 C34 1.388 . S
C37 N36 1.397 . S
C38 H19 0.929 . S
C38 C35 1.404 . S
C38 N36 1.334 . S
C39 H31 0.930 . S
C39 C34 1.418 . S
C39 C35 1.353 . S
C40 H10 0.930 1_554 S
C40 N41 1.330 1_455 S
C40 C42 1.446 1_455 S
N41 Co0 2.151 1_655 S
N41 C40 1.330 1_655 S
N41 C45 1.418 . S
C42 H21 0.942 1_554 S
C42 C40 1.446 1_655 S
C42 C43 1.332 . S
C43 H23 0.931 . S
C43 C42 1.332 . S
C43 C44 1.267 . S
C44 H12 0.929 . S
C44 C43 1.267 . S
C44 C45 1.251 . S
C45 H15 0.929 . S
C45 N41 1.418 . S
C45 C44 1.251 . S
C46 H13 0.930 . S
C46 C48 1.406 . S
C46 C51 1.261 . S
C47 H14 0.930 . S
C47 N49 1.325 . S
C47 C50 1.357 . S
C48 H16 0.928 . S
C48 C46 1.406 . S
C48 N49 1.261 . S
N49 Co0 2.214 1_655 S
N49 C47 1.325 . S
N49 C48 1.261 . S
C50 H20 0.931 . S
C50 C47 1.357 . S
C50 C51 1.312 . S
C51 H22 0.930 . S
C51 C46 1.261 . S
C51 C50 1.312 . S
C52 O24 1.214 . S
C52 O32 1.234 . S
C53 H25 0.929 . S
C53 C56 1.391 . S
C53 C58 1.391 . S
C54 H26 0.929 . S
C54 C55 1.390 1_554 S
C54 N57 1.391 . S
C55 H27 0.930 . S
C55 C54 1.390 1_556 S
C55 C56 1.392 . S
C56 H28 0.929 . S
C56 C53 1.391 . S
C56 C55 1.392 . S
N57 Co1 2.257 . S
N57 C54 1.391 . S
N57 C58 1.388 1_554 S
C58 H29 0.930 . S
C58 C53 1.391 . S
C58 N57 1.388 1_556 S
Co59 O61 2.143 . S
Co59 O67 2.074 . S
Co59 O70 2.093 1_554 S
Co59 O83 2.097 . S
Co59 N100 2.151 1_655 S
Co59 N108 2.214 1_655 S
Co60 O61 2.160 . S
Co60 O66 2.058 . S
Co60 O76 2.057 . S
Co60 O91 2.037 . S
Co60 N95 2.145 . S
Co60 N116 2.257 . S
O61 Co59 2.143 . S
O61 Co60 2.160 . S
C62 O63 1.278 . S
C62 O70 1.224 . S
O63 C62 1.278 . S
C64 O65 1.245 . S
C64 O76 1.232 . S
O65 C64 1.245 . S
O66 Co60 2.058 . S
O66 C92 1.269 . S
O67 Co59 2.074 . S
O67 C92 1.257 . S
H68 C93 0.930 . S
H69 C99 0.930 1_556 S
O70 Co59 2.093 1_556 S
O70 C62 1.224 . S
H71 C103 0.929 . S
H72 C105 0.930 . S
H73 C106 0.930 . S
H74 C104 0.929 . S
H75 C107 0.928 . S
O76 Co60 2.057 . S
O76 C64 1.232 . S
H77 C96 0.929 . S
H78 C97 0.929 . S
H79 C109 0.931 . S
H80 C101 0.942 1_556 S
H81 C110 0.930 . S
H82 C102 0.931 . S
O83 Co59 2.097 . S
O83 C111 1.214 . S
H84 C112 0.929 . S
H85 C113 0.929 . S
H86 C114 0.930 . S
H87 C115 0.929 . S
H88 C117 0.930 . S
H89 C94 0.930 . S
H90 C98 0.930 . S
O91 Co60 2.037 . S
O91 C111 1.234 . S
C92 O66 1.269 . S
C92 O67 1.257 . S
C93 H68 0.930 . S
C93 C96 1.388 . S
C93 C98 1.418 . S
C94 H89 0.930 . S
C94 C97 1.404 . S
C94 C98 1.353 . S
N95 Co60 2.145 . S
N95 C96 1.397 . S
N95 C97 1.334 . S
C96 H77 0.929 . S
C96 C93 1.388 . S
C96 N95 1.397 . S
C97 H78 0.929 . S
C97 C94 1.404 . S
C97 N95 1.334 . S
C98 H90 0.930 . S
C98 C93 1.418 . S
C98 C94 1.353 . S
C99 H69 0.930 1_554 S
C99 N100 1.330 1_655 S
C99 C101 1.446 1_655 S
N100 Co59 2.151 1_455 S
N100 C99 1.330 1_455 S
N100 C104 1.418 . S
C101 H80 0.942 1_554 S
C101 C99 1.446 1_455 S
C101 C102 1.332 . S
C102 H82 0.931 . S
C102 C101 1.332 . S
C102 C103 1.267 . S
C103 H71 0.929 . S
C103 C102 1.267 . S
C103 C104 1.251 . S
C104 H74 0.929 . S
C104 N100 1.418 . S
C104 C103 1.251 . S
C105 H72 0.930 . S
C105 C107 1.406 . S
C105 C110 1.261 . S
C106 H73 0.930 . S
C106 N108 1.325 . S
C106 C109 1.357 . S
C107 H75 0.928 . S
C107 C105 1.406 . S
C107 N108 1.261 . S
N108 Co59 2.214 1_455 S
N108 C106 1.325 . S
N108 C107 1.261 . S
C109 H79 0.931 . S
C109 C106 1.357 . S
C109 C110 1.312 . S
C110 H81 0.930 . S
C110 C105 1.261 . S
C110 C109 1.312 . S
C111 O83 1.214 . S
C111 O91 1.234 . S
C112 H84 0.929 . S
C112 C115 1.391 . S
C112 C117 1.391 . S
C113 H85 0.929 . S
C113 C114 1.390 1_554 S
C113 N116 1.391 . S
C114 H86 0.930 . S
C114 C113 1.390 1_556 S
C114 C115 1.392 . S
C115 H87 0.929 . S
C115 C112 1.391 . S
C115 C114 1.392 . S
N116 Co60 2.257 . S
N116 C113 1.391 . S
N116 C117 1.388 1_554 S
C117 H88 0.930 . S
C117 C112 1.391 . S
C117 N116 1.388 1_556 S
Co118 O120 2.143 . S
Co118 O126 2.074 . S
Co118 O129 2.093 . S
Co118 O142 2.097 . S
Co118 N159 2.151 1_455 S
Co118 N167 2.214 1_455 S
Co119 O120 2.160 . S
Co119 O125 2.058 . S
Co119 O135 2.057 . S
Co119 O150 2.037 . S
Co119 N154 2.145 . S
Co119 N175 2.257 . S
O120 Co118 2.143 . S
O120 Co119 2.160 . S
C121 O122 1.278 . S
C121 O129 1.224 . S
O122 C121 1.278 . S
C123 O124 1.245 . S
C123 O135 1.232 . S
O124 C123 1.245 . S
O125 Co119 2.058 . S
O125 C151 1.269 . S
O126 Co118 2.074 . S
O126 C151 1.257 . S
H127 C152 0.930 . S
H128 C158 0.930 . S
O129 Co118 2.093 . S
O129 C121 1.224 . S
H130 C162 0.929 . S
H131 C164 0.930 . S
H132 C165 0.930 . S
H133 C163 0.929 . S
H134 C166 0.928 . S
O135 Co119 2.057 . S
O135 C123 1.232 . S
H136 C155 0.929 . S
H137 C156 0.929 . S
H138 C168 0.931 . S
H139 C160 0.942 . S
H140 C169 0.930 . S
H141 C161 0.931 . S
O142 Co118 2.097 . S
O142 C170 1.214 . S
H143 C171 0.929 . S
H144 C172 0.929 . S
H145 C173 0.930 . S
H146 C174 0.929 . S
H147 C176 0.930 . S
H148 C153 0.930 . S
H149 C157 0.930 . S
O150 Co119 2.037 . S
O150 C170 1.234 . S
C151 O125 1.269 . S
C151 O126 1.257 . S
C152 H127 0.930 . S
C152 C155 1.388 . S
C152 C157 1.418 . S
C153 H148 0.930 . S
C153 C156 1.404 . S
C153 C157 1.353 . S
N154 Co119 2.145 . S
N154 C155 1.397 . S
N154 C156 1.334 . S
C155 H136 0.929 . S
C155 C152 1.388 . S
C155 N154 1.397 . S
C156 H137 0.929 . S
C156 C153 1.404 . S
C156 N154 1.334 . S
C157 H149 0.930 . S
C157 C152 1.418 . S
C157 C153 1.353 . S
C158 H128 0.930 . S
C158 N159 1.330 1_455 S
C158 C160 1.446 1_455 S
N159 Co118 2.151 1_655 S
N159 C158 1.330 1_655 S
N159 C163 1.418 . S
C160 H139 0.942 . S
C160 C158 1.446 1_655 S
C160 C161 1.332 . S
C161 H141 0.931 . S
C161 C160 1.332 . S
C161 C162 1.267 . S
C162 H130 0.929 . S
C162 C161 1.267 . S
C162 C163 1.251 . S
C163 H133 0.929 . S
C163 N159 1.418 . S
C163 C162 1.251 . S
C164 H131 0.930 . S
C164 C166 1.406 . S
C164 C169 1.261 . S
C165 H132 0.930 . S
C165 N167 1.325 . S
C165 C168 1.357 . S
C166 H134 0.928 . S
C166 C164 1.406 . S
C166 N167 1.261 . S
N167 Co118 2.214 1_655 S
N167 C165 1.325 . S
N167 C166 1.261 . S
C168 H138 0.931 . S
C168 C165 1.357 . S
C168 C169 1.312 . S
C169 H140 0.930 . S
C169 C164 1.261 . S
C169 C168 1.312 . S
C170 O142 1.214 . S
C170 O150 1.234 . S
C171 H143 0.929 . S
C171 C174 1.391 . S
C171 C176 1.391 . S
C172 H144 0.929 . S
C172 C173 1.390 . S
C172 N175 1.391 . S
C173 H145 0.930 . S
C173 C172 1.390 . S
C173 C174 1.392 . S
C174 H146 0.929 . S
C174 C171 1.391 . S
C174 C173 1.392 . S
N175 Co119 2.257 . S
N175 C172 1.391 . S
N175 C176 1.388 . S
C176 H147 0.930 . S
C176 C171 1.391 . S
C176 N175 1.388 . S
Co177 O179 2.143 . S
Co177 O185 2.074 . S
Co177 O188 2.093 . S
Co177 O201 2.097 . S
Co177 N218 2.151 1_655 S
Co177 N226 2.214 1_655 S
Co178 O179 2.160 . S
Co178 O184 2.058 . S
Co178 O194 2.057 . S
Co178 O209 2.037 . S
Co178 N213 2.145 . S
Co178 N234 2.257 . S
O179 Co177 2.143 . S
O179 Co178 2.160 . S
C180 O181 1.278 . S
C180 O188 1.224 . S
O181 C180 1.278 . S
C182 O183 1.245 . S
C182 O194 1.232 . S
O183 C182 1.245 . S
O184 Co178 2.058 . S
O184 C210 1.269 . S
O185 Co177 2.074 . S
O185 C210 1.257 . S
H186 C211 0.930 . S
H187 C217 0.930 . S
O188 Co177 2.093 . S
O188 C180 1.224 . S
H189 C221 0.929 . S
H190 C223 0.930 . S
H191 C224 0.930 . S
H192 C222 0.929 . S
H193 C225 0.928 . S
O194 Co178 2.057 . S
O194 C182 1.232 . S
H195 C214 0.929 . S
H196 C215 0.929 . S
H197 C227 0.931 . S
H198 C219 0.942 . S
H199 C228 0.930 . S
H200 C220 0.931 . S
O201 Co177 2.097 . S
O201 C229 1.214 . S
H202 C230 0.929 . S
H203 C231 0.929 . S
H204 C232 0.930 . S
H205 C233 0.929 . S
H206 C235 0.930 . S
H207 C212 0.930 . S
H208 C216 0.930 . S
O209 Co178 2.037 . S
O209 C229 1.234 . S
C210 O184 1.269 . S
C210 O185 1.257 . S
C211 H186 0.930 . S
C211 C214 1.388 . S
C211 C216 1.418 . S
C212 H207 0.930 . S
C212 C215 1.404 . S
C212 C216 1.353 . S
N213 Co178 2.145 . S
N213 C214 1.397 . S
N213 C215 1.334 . S
C214 H195 0.929 . S
C214 C211 1.388 . S
C214 N213 1.397 . S
C215 H196 0.929 . S
C215 C212 1.404 . S
C215 N213 1.334 . S
C216 H208 0.930 . S
C216 C211 1.418 . S
C216 C212 1.353 . S
C217 H187 0.930 . S
C217 N218 1.330 1_655 S
C217 C219 1.446 1_655 S
N218 Co177 2.151 1_455 S
N218 C217 1.330 1_455 S
N218 C222 1.418 . S
C219 H198 0.942 . S
C219 C217 1.446 1_455 S
C219 C220 1.332 . S
C220 H200 0.931 . S
C220 C219 1.332 . S
C220 C221 1.267 . S
C221 H189 0.929 . S
C221 C220 1.267 . S
C221 C222 1.251 . S
C222 H192 0.929 . S
C222 N218 1.418 . S
C222 C221 1.251 . S
C223 H190 0.930 . S
C223 C225 1.406 . S
C223 C228 1.261 . S
C224 H191 0.930 . S
C224 N226 1.325 . S
C224 C227 1.357 . S
C225 H193 0.928 . S
C225 C223 1.406 . S
C225 N226 1.261 . S
N226 Co177 2.214 1_455 S
N226 C224 1.325 . S
N226 C225 1.261 . S
C227 H197 0.931 . S
C227 C224 1.357 . S
C227 C228 1.312 . S
C228 H199 0.930 . S
C228 C223 1.261 . S
C228 C227 1.312 . S
C229 O201 1.214 . S
C229 O209 1.234 . S
C230 H202 0.929 . S
C230 C233 1.391 . S
C230 C235 1.391 . S
C231 H203 0.929 . S
C231 C232 1.390 . S
C231 N234 1.391 . S
C232 H204 0.930 . S
C232 C231 1.390 . S
C232 C233 1.392 . S
C233 H205 0.929 . S
C233 C230 1.391 . S
C233 C232 1.392 . S
N234 Co178 2.257 . S
N234 C231 1.391 . S
N234 C235 1.388 . S
C235 H206 0.930 . S
C235 C230 1.391 . S
C235 N234 1.388 . S
Co236 O238 2.143 . S
Co236 O244 2.074 . S
Co236 O247 2.093 1_554 S
Co236 O260 2.097 . S
Co236 N277 2.151 . S
Co236 N285 2.214 . S
Co237 O238 2.160 . S
Co237 O243 2.058 . S
Co237 O253 2.057 . S
Co237 O268 2.037 . S
Co237 N272 2.145 . S
Co237 N293 2.257 . S
O238 Co236 2.143 . S
O238 Co237 2.160 . S
C239 O240 1.278 . S
C239 O247 1.224 . S
O240 C239 1.278 . S
C241 O242 1.245 . S
C241 O253 1.232 . S
O242 C241 1.245 . S
O243 Co237 2.058 . S
O243 C269 1.269 . S
O244 Co236 2.074 . S
O244 C269 1.257 . S
H245 C270 0.930 . S
H246 C276 0.930 1_556 S
O247 Co236 2.093 1_556 S
O247 C239 1.224 . S
H248 C280 0.929 . S
H249 C282 0.930 . S
H250 C283 0.930 . S
H251 C281 0.929 . S
H252 C284 0.928 . S
O253 Co237 2.057 . S
O253 C241 1.232 . S
H254 C273 0.929 . S
H255 C274 0.929 . S
H256 C286 0.931 . S
H257 C278 0.929 1_556 S
H258 C287 0.930 . S
H259 C279 0.931 . S
O260 Co236 2.097 . S
O260 C288 1.214 . S
H261 C289 0.929 . S
H262 C290 0.929 . S
H263 C291 0.930 . S
H264 C292 0.929 . S
H265 C294 0.930 . S
H266 C271 0.930 . S
H267 C275 0.930 . S
O268 Co237 2.037 . S
O268 C288 1.234 . S
C269 O243 1.269 . S
C269 O244 1.257 . S
C270 H245 0.930 . S
C270 C273 1.388 . S
C270 C275 1.418 . S
C271 H266 0.930 . S
C271 C274 1.404 . S
C271 C275 1.353 . S
N272 Co237 2.145 . S
N272 C273 1.397 . S
N272 C274 1.334 . S
C273 H254 0.929 . S
C273 C270 1.388 . S
C273 N272 1.397 . S
C274 H255 0.929 . S
C274 C271 1.404 . S
C274 N272 1.334 . S
C275 H267 0.930 . S
C275 C270 1.418 . S
C275 C271 1.353 . S
C276 H246 0.930 1_554 S
C276 N277 1.330 . S
C276 C278 1.446 . S
N277 Co236 2.151 . S
N277 C276 1.330 . S
N277 C281 1.418 . S
C278 H257 0.929 1_554 S
C278 C276 1.446 . S
C278 C279 1.332 . S
C279 H259 0.931 . S
C279 C278 1.332 . S
C279 C280 1.267 . S
C280 H248 0.929 . S
C280 C279 1.267 . S
C280 C281 1.251 . S
C281 H251 0.929 . S
C281 N277 1.418 . S
C281 C280 1.251 . S
C282 H249 0.930 . S
C282 C284 1.406 . S
C282 C287 1.261 . S
C283 H250 0.930 . S
C283 N285 1.325 . S
C283 C286 1.357 . S
C284 H252 0.928 . S
C284 C282 1.406 . S
C284 N285 1.261 . S
N285 Co236 2.214 . S
N285 C283 1.325 . S
N285 C284 1.261 . S
C286 H256 0.931 . S
C286 C283 1.357 . S
C286 C287 1.312 . S
C287 H258 0.930 . S
C287 C282 1.261 . S
C287 C286 1.312 . S
C288 O260 1.214 . S
C288 O268 1.234 . S
C289 H261 0.929 . S
C289 C292 1.391 . S
C289 C294 1.391 . S
C290 H262 0.929 . S
C290 C291 1.390 1_554 S
C290 N293 1.391 . S
C291 H263 0.930 . S
C291 C290 1.390 1_556 S
C291 C292 1.392 . S
C292 H264 0.929 . S
C292 C289 1.391 . S
C292 C291 1.392 . S
N293 Co237 2.257 . S
N293 C290 1.391 . S
N293 C294 1.388 1_554 S
C294 H265 0.930 . S
C294 C289 1.391 . S
C294 N293 1.388 1_556 S
Co295 O297 2.143 . S
Co295 O303 2.074 . S
Co295 O306 2.093 1_554 S
Co295 O319 2.097 . S
Co295 N336 2.151 . S
Co295 N344 2.214 . S
Co296 O297 2.160 . S
Co296 O302 2.058 . S
Co296 O312 2.057 . S
Co296 O327 2.037 . S
Co296 N331 2.145 . S
Co296 N352 2.257 . S
O297 Co295 2.143 . S
O297 Co296 2.160 . S
C298 O299 1.278 . S
C298 O306 1.224 . S
O299 C298 1.278 . S
C300 O301 1.245 . S
C300 O312 1.232 . S
O301 C300 1.245 . S
O302 Co296 2.058 . S
O302 C328 1.269 . S
O303 Co295 2.074 . S
O303 C328 1.257 . S
H304 C329 0.930 . S
H305 C335 0.930 1_556 S
O306 Co295 2.093 1_556 S
O306 C298 1.224 . S
H307 C339 0.929 . S
H308 C341 0.930 . S
H309 C342 0.930 . S
H310 C340 0.929 . S
H311 C343 0.928 . S
O312 Co296 2.057 . S
O312 C300 1.232 . S
H313 C332 0.929 . S
H314 C333 0.929 . S
H315 C345 0.931 . S
H316 C337 0.929 1_556 S
H317 C346 0.930 . S
H318 C338 0.931 . S
O319 Co295 2.097 . S
O319 C347 1.214 . S
H320 C348 0.929 . S
H321 C349 0.929 . S
H322 C350 0.930 . S
H323 C351 0.929 . S
H324 C353 0.930 . S
H325 C330 0.930 . S
H326 C334 0.930 . S
O327 Co296 2.037 . S
O327 C347 1.234 . S
C328 O302 1.269 . S
C328 O303 1.257 . S
C329 H304 0.930 . S
C329 C332 1.388 . S
C329 C334 1.418 . S
C330 H325 0.930 . S
C330 C333 1.404 . S
C330 C334 1.353 . S
N331 Co296 2.145 . S
N331 C332 1.397 . S
N331 C333 1.334 . S
C332 H313 0.929 . S
C332 C329 1.388 . S
C332 N331 1.397 . S
C333 H314 0.929 . S
C333 C330 1.404 . S
C333 N331 1.334 . S
C334 H326 0.930 . S
C334 C329 1.418 . S
C334 C330 1.353 . S
C335 H305 0.930 1_554 S
C335 N336 1.330 . S
C335 C337 1.446 . S
N336 Co295 2.151 . S
N336 C335 1.330 . S
N336 C340 1.418 . S
C337 H316 0.929 1_554 S
C337 C335 1.446 . S
C337 C338 1.332 . S
C338 H318 0.931 . S
C338 C337 1.332 . S
C338 C339 1.267 . S
C339 H307 0.929 . S
C339 C338 1.267 . S
C339 C340 1.251 . S
C340 H310 0.929 . S
C340 N336 1.418 . S
C340 C339 1.251 . S
C341 H308 0.930 . S
C341 C343 1.406 . S
C341 C346 1.261 . S
C342 H309 0.930 . S
C342 N344 1.325 . S
C342 C345 1.357 . S
C343 H311 0.928 . S
C343 C341 1.406 . S
C343 N344 1.261 . S
N344 Co295 2.214 . S
N344 C342 1.325 . S
N344 C343 1.261 . S
C345 H315 0.931 . S
C345 C342 1.357 . S
C345 C346 1.312 . S
C346 H317 0.930 . S
C346 C341 1.261 . S
C346 C345 1.312 . S
C347 O319 1.214 . S
C347 O327 1.234 . S
C348 H320 0.929 . S
C348 C351 1.391 . S
C348 C353 1.391 . S
C349 H321 0.929 . S
C349 C350 1.390 1_554 S
C349 N352 1.391 . S
C350 H322 0.930 . S
C350 C349 1.390 1_556 S
C350 C351 1.392 . S
C351 H323 0.929 . S
C351 C348 1.391 . S
C351 C350 1.392 . S
N352 Co296 2.257 . S
N352 C349 1.391 . S
N352 C353 1.388 1_554 S
C353 H324 0.930 . S
C353 C348 1.391 . S
C353 N352 1.388 1_556 S
Co354 O356 2.143 . S
Co354 O362 2.074 . S
Co354 O365 2.093 . S
Co354 O378 2.097 . S
Co354 N395 2.151 . S
Co354 N403 2.214 . S
Co355 O356 2.160 . S
Co355 O361 2.058 . S
Co355 O371 2.057 . S
Co355 O386 2.037 . S
Co355 N390 2.145 . S
Co355 N411 2.257 . S
O356 Co354 2.143 . S
O356 Co355 2.160 . S
C357 O358 1.278 . S
C357 O365 1.224 . S
O358 C357 1.278 . S
C359 O360 1.245 . S
C359 O371 1.232 . S
O360 C359 1.245 . S
O361 Co355 2.058 . S
O361 C387 1.269 . S
O362 Co354 2.074 . S
O362 C387 1.257 . S
H363 C388 0.930 . S
H364 C394 0.930 . S
O365 Co354 2.093 . S
O365 C357 1.224 . S
H366 C398 0.929 . S
H367 C400 0.930 . S
H368 C401 0.930 . S
H369 C399 0.929 . S
H370 C402 0.928 . S
O371 Co355 2.057 . S
O371 C359 1.232 . S
H372 C391 0.929 . S
H373 C392 0.929 . S
H374 C404 0.931 . S
H375 C396 0.929 . S
H376 C405 0.930 . S
H377 C397 0.931 . S
O378 Co354 2.097 . S
O378 C406 1.214 . S
H379 C407 0.929 . S
H380 C408 0.929 . S
H381 C409 0.930 . S
H382 C410 0.929 . S
H383 C412 0.930 . S
H384 C389 0.930 . S
H385 C393 0.930 . S
O386 Co355 2.037 . S
O386 C406 1.234 . S
C387 O361 1.269 . S
C387 O362 1.257 . S
C388 H363 0.930 . S
C388 C391 1.388 . S
C388 C393 1.418 . S
C389 H384 0.930 . S
C389 C392 1.404 . S
C389 C393 1.353 . S
N390 Co355 2.145 . S
N390 C391 1.397 . S
N390 C392 1.334 . S
C391 H372 0.929 . S
C391 C388 1.388 . S
C391 N390 1.397 . S
C392 H373 0.929 . S
C392 C389 1.404 . S
C392 N390 1.334 . S
C393 H385 0.930 . S
C393 C388 1.418 . S
C393 C389 1.353 . S
C394 H364 0.930 . S
C394 N395 1.330 . S
C394 C396 1.446 . S
N395 Co354 2.151 . S
N395 C394 1.330 . S
N395 C399 1.418 . S
C396 H375 0.929 . S
C396 C394 1.446 . S
C396 C397 1.332 . S
C397 H377 0.931 . S
C397 C396 1.332 . S
C397 C398 1.267 . S
C398 H366 0.929 . S
C398 C397 1.267 . S
C398 C399 1.251 . S
C399 H369 0.929 . S
C399 N395 1.418 . S
C399 C398 1.251 . S
C400 H367 0.930 . S
C400 C402 1.406 . S
C400 C405 1.261 . S
C401 H368 0.930 . S
C401 N403 1.325 . S
C401 C404 1.357 . S
C402 H370 0.928 . S
C402 C400 1.406 . S
C402 N403 1.261 . S
N403 Co354 2.214 . S
N403 C401 1.325 . S
N403 C402 1.261 . S
C404 H374 0.931 . S
C404 C401 1.357 . S
C404 C405 1.312 . S
C405 H376 0.930 . S
C405 C400 1.261 . S
C405 C404 1.312 . S
C406 O378 1.214 . S
C406 O386 1.234 . S
C407 H379 0.929 . S
C407 C410 1.391 . S
C407 C412 1.391 . S
C408 H380 0.929 . S
C408 C409 1.390 . S
C408 N411 1.391 . S
C409 H381 0.930 . S
C409 C408 1.390 . S
C409 C410 1.392 . S
C410 H382 0.929 . S
C410 C407 1.391 . S
C410 C409 1.392 . S
N411 Co355 2.257 . S
N411 C408 1.391 . S
N411 C412 1.388 . S
C412 H383 0.930 . S
C412 C407 1.391 . S
C412 N411 1.388 . S
Co413 O415 2.143 . S
Co413 O421 2.074 . S
Co413 O424 2.093 . S
Co413 O437 2.097 . S
Co413 N454 2.151 . S
Co413 N462 2.214 . S
Co414 O415 2.160 . S
Co414 O420 2.058 . S
Co414 O430 2.057 . S
Co414 O445 2.037 . S
Co414 N449 2.145 . S
Co414 N470 2.257 . S
O415 Co413 2.143 . S
O415 Co414 2.160 . S
C416 O417 1.278 . S
C416 O424 1.224 . S
O417 C416 1.278 . S
C418 O419 1.245 . S
C418 O430 1.232 . S
O419 C418 1.245 . S
O420 Co414 2.058 . S
O420 C446 1.269 . S
O421 Co413 2.074 . S
O421 C446 1.257 . S
H422 C447 0.930 . S
H423 C453 0.930 . S
O424 Co413 2.093 . S
O424 C416 1.224 . S
H425 C457 0.929 . S
H426 C459 0.930 . S
H427 C460 0.930 . S
H428 C458 0.929 . S
H429 C461 0.928 . S
O430 Co414 2.057 . S
O430 C418 1.232 . S
H431 C450 0.929 . S
H432 C451 0.929 . S
H433 C463 0.931 . S
H434 C455 0.929 . S
H435 C464 0.930 . S
H436 C456 0.931 . S
O437 Co413 2.097 . S
O437 C465 1.214 . S
H438 C466 0.929 . S
H439 C467 0.929 . S
H440 C468 0.930 . S
H441 C469 0.929 . S
H442 C471 0.930 . S
H443 C448 0.930 . S
H444 C452 0.930 . S
O445 Co414 2.037 . S
O445 C465 1.234 . S
C446 O420 1.269 . S
C446 O421 1.257 . S
C447 H422 0.930 . S
C447 C450 1.388 . S
C447 C452 1.418 . S
C448 H443 0.930 . S
C448 C451 1.404 . S
C448 C452 1.353 . S
N449 Co414 2.145 . S
N449 C450 1.397 . S
N449 C451 1.334 . S
C450 H431 0.929 . S
C450 C447 1.388 . S
C450 N449 1.397 . S
C451 H432 0.929 . S
C451 C448 1.404 . S
C451 N449 1.334 . S
C452 H444 0.930 . S
C452 C447 1.418 . S
C452 C448 1.353 . S
C453 H423 0.930 . S
C453 N454 1.330 . S
C453 C455 1.446 . S
N454 Co413 2.151 . S
N454 C453 1.330 . S
N454 C458 1.418 . S
C455 H434 0.929 . S
C455 C453 1.446 . S
C455 C456 1.332 . S
C456 H436 0.931 . S
C456 C455 1.332 . S
C456 C457 1.267 . S
C457 H425 0.929 . S
C457 C456 1.267 . S
C457 C458 1.251 . S
C458 H428 0.929 . S
C458 N454 1.418 . S
C458 C457 1.251 . S
C459 H426 0.930 . S
C459 C461 1.406 . S
C459 C464 1.261 . S
C460 H427 0.930 . S
C460 N462 1.325 . S
C460 C463 1.357 . S
C461 H429 0.928 . S
C461 C459 1.406 . S
C461 N462 1.261 . S
N462 Co413 2.214 . S
N462 C460 1.325 . S
N462 C461 1.261 . S
C463 H433 0.931 . S
C463 C460 1.357 . S
C463 C464 1.312 . S
C464 H435 0.930 . S
C464 C459 1.261 . S
C464 C463 1.312 . S
C465 O437 1.214 . S
C465 O445 1.234 . S
C466 H438 0.929 . S
C466 C469 1.391 . S
C466 C471 1.391 . S
C467 H439 0.929 . S
C467 C468 1.390 . S
C467 N470 1.391 . S
C468 H440 0.930 . S
C468 C467 1.390 . S
C468 C469 1.392 . S
C469 H441 0.929 . S
C469 C466 1.391 . S
C469 C468 1.392 . S
N470 Co414 2.257 . S
N470 C467 1.391 . S
N470 C471 1.388 . S
C471 H442 0.930 . S
C471 C466 1.391 . S
C471 N470 1.388 . S
H472 C480 0.929 . S
H473 C482 0.930 . S
H474 C484 0.930 . S
H475 C487 0.929 1_455 S
H476 C490 0.930 . S
H477 C492 0.960 1_556 S
H478 C492 0.960 1_556 S
H479 C492 0.960 . S
C480 H472 0.929 . S
C480 C481 1.377 . S
C480 C482 1.384 . S
C481 C480 1.377 . S
C481 C487 1.390 . S
C482 H473 0.930 . S
C482 C480 1.384 . S
C482 C483 1.372 . S
C483 C482 1.372 . S
C483 C484 1.400 1_655 S
C483 C488 1.490 . S
C484 H474 0.930 . S
C484 C483 1.400 1_455 S
C484 C487 1.386 1_455 S
H485 C501 0.930 . S
H486 C502 0.931 . S
C487 H475 0.929 1_655 S
C487 C481 1.390 . S
C487 C484 1.386 1_655 S
C488 C483 1.490 . S
C488 C490 1.395 . S
C488 C491 1.403 1_655 S
H489 C495 0.930 . S
C490 H476 0.930 . S
C490 C488 1.395 . S
C490 C493 1.403 1_565 S
C491 C488 1.403 1_455 S
C491 C492 1.524 . S
C491 C495 1.400 1_565 S
C492 H477 0.960 1_554 S
C492 H478 0.960 1_554 S
C492 H479 0.960 . S
C492 C491 1.524 . S
C493 C490 1.403 1_545 S
C493 C494 1.392 1_655 S
C493 C497 1.495 . S
C494 C493 1.392 1_455 S
C494 C495 1.385 . S
C494 C496 1.478 . S
C495 H489 0.930 . S
C495 C491 1.400 1_545 S
C495 C494 1.385 . S
C496 C494 1.478 . S
C496 C498 1.381 1_455 S
C496 C502 1.383 . S
C497 C493 1.495 . S
C497 H503 0.959 . S
C497 H504 0.961 . S
C497 H505 0.960 . S
C498 C496 1.381 1_655 S
C498 C499 1.394 1_655 S
C498 H506 0.930 . S
C499 C498 1.394 1_455 S
C499 C500 1.383 . S
C499 H507 0.929 1_455 S
C500 C499 1.383 . S
C500 C501 1.377 . S
C501 H485 0.930 . S
C501 C500 1.377 . S
C501 C502 1.379 . S
C502 H486 0.931 . S
C502 C496 1.383 . S
C502 C501 1.379 . S
H503 C497 0.959 . S
H504 C497 0.961 . S
H505 C497 0.960 . S
H506 C498 0.930 . S
H507 C499 0.929 1_655 S
H508 C516 0.929 . S
H509 C518 0.930 . S
H510 C520 0.930 . S
H511 C523 0.929 . S
H512 C526 0.930 . S
H513 C528 0.960 1_545 S
H514 C528 0.960 . S
H515 C528 0.960 . S
C516 H508 0.929 . S
C516 C517 1.377 . S
C516 C518 1.384 . S
C517 C516 1.377 . S
C517 C523 1.390 . S
C518 H509 0.930 . S
C518 C516 1.384 . S
C518 C519 1.372 . S
C519 C518 1.372 . S
C519 C520 1.400 . S
C519 C524 1.490 . S
C520 H510 0.930 . S
C520 C519 1.400 . S
C520 C523 1.386 . S
H521 C537 0.930 . S
H522 C538 0.931 . S
C523 H511 0.929 . S
C523 C517 1.390 . S
C523 C520 1.386 . S
C524 C519 1.490 . S
C524 C526 1.395 1_455 S
C524 C527 1.403 . S
H525 C531 0.930 . S
C526 H512 0.930 . S
C526 C524 1.395 1_655 S
C526 C529 1.403 1_565 S
C527 C524 1.403 . S
C527 C528 1.524 . S
C527 C531 1.400 1_565 S
C528 H513 0.960 1_565 S
C528 H514 0.960 . S
C528 H515 0.960 . S
C528 C527 1.524 . S
C529 C526 1.403 1_545 S
C529 C530 1.392 . S
C529 C533 1.495 . S
C530 C529 1.392 . S
C530 C531 1.385 1_655 S
C530 C532 1.478 . S
C531 H525 0.930 . S
C531 C527 1.400 1_545 S
C531 C530 1.385 1_455 S
C532 C530 1.478 . S
C532 C534 1.381 . S
C532 C538 1.383 . S
C533 C529 1.495 . S
C533 H539 0.959 1_545 S
C533 H540 0.961 . S
C533 H541 0.960 . S
C534 C532 1.381 . S
C534 C535 1.394 . S
C534 H542 0.930 . S
C535 C534 1.394 . S
C535 C536 1.383 . S
C535 H543 0.929 . S
C536 C535 1.383 . S
C536 C537 1.377 . S
C537 H521 0.930 . S
C537 C536 1.377 . S
C537 C538 1.379 . S
C538 H522 0.931 . S
C538 C532 1.383 . S
C538 C537 1.379 . S
H539 C533 0.959 1_565 S
H540 C533 0.961 . S
H541 C533 0.960 . S
H542 C534 0.930 . S
H543 C535 0.929 . S
H544 C552 0.929 . S
H545 C554 0.930 . S
H546 C556 0.930 . S
H547 C559 0.929 . S
H548 C562 0.923 1_556 S
H549 C564 0.960 . S
H550 C564 0.960 . S
H551 C564 0.960 . S
C552 H544 0.929 . S
C552 C553 1.377 . S
C552 C554 1.384 . S
C553 C552 1.377 . S
C553 C559 1.390 . S
C554 H545 0.930 . S
C554 C552 1.384 . S
C554 C555 1.372 . S
C555 C554 1.372 . S
C555 C556 1.400 . S
C555 C560 1.490 . S
C556 H546 0.930 . S
C556 C555 1.400 . S
C556 C559 1.386 . S
H557 C573 0.930 . S
H558 C574 0.931 . S
C559 H547 0.929 . S
C559 C553 1.390 . S
C559 C556 1.386 . S
C560 C555 1.490 . S
C560 C562 1.395 . S
C560 C563 1.403 . S
H561 C567 0.930 . S
C562 H548 0.923 1_554 S
C562 C560 1.395 . S
C562 C565 1.403 . S
C563 C560 1.403 . S
C563 C564 1.524 . S
C563 C567 1.400 . S
C564 H549 0.960 . S
C564 H550 0.960 . S
C564 H551 0.960 . S
C564 C563 1.524 . S
C565 C562 1.403 . S
C565 C566 1.392 . S
C565 C569 1.495 1_554 S
C566 C565 1.392 . S
C566 C567 1.385 . S
C566 C568 1.478 . S
C567 H561 0.930 . S
C567 C563 1.400 . S
C567 C566 1.385 . S
C568 C566 1.478 . S
C568 C570 1.381 . S
C568 C574 1.383 . S
C569 C565 1.495 1_556 S
C569 H575 0.959 . S
C569 H576 0.961 . S
C569 H577 0.960 . S
C570 C568 1.381 . S
C570 C571 1.394 . S
C570 H578 0.930 . S
C571 C570 1.394 . S
C571 C572 1.383 . S
C571 H579 0.929 . S
C572 C571 1.383 . S
C572 C573 1.377 . S
C573 H557 0.930 . S
C573 C572 1.377 . S
C573 C574 1.379 . S
C574 H558 0.931 . S
C574 C568 1.383 . S
C574 C573 1.379 . S
H575 C569 0.959 . S
H576 C569 0.961 . S
H577 C569 0.960 . S
H578 C570 0.930 . S
H579 C571 0.929 . S
H580 C588 0.929 . S
H581 C590 0.930 . S
H582 C592 0.930 . S
H583 C595 0.929 . S
H584 C598 0.930 . S
H585 C600 0.960 . S
H586 C600 0.960 . S
H587 C600 0.960 . S
C588 H580 0.929 . S
C588 C589 1.377 . S
C588 C590 1.384 . S
C589 C588 1.377 . S
C589 C595 1.390 . S
C590 H581 0.930 . S
C590 C588 1.384 . S
C590 C591 1.372 . S
C591 C590 1.372 . S
C591 C592 1.400 . S
C591 C596 1.490 . S
C592 H582 0.930 . S
C592 C591 1.400 . S
C592 C595 1.386 . S
H593 C609 0.930 . S
H594 C610 0.931 . S
C595 H583 0.929 . S
C595 C589 1.390 . S
C595 C592 1.386 . S
C596 C591 1.490 . S
C596 C598 1.395 . S
C596 C599 1.403 . S
H597 C603 0.930 . S
C598 H584 0.930 . S
C598 C596 1.395 . S
C598 C601 1.403 . S
C599 C596 1.403 . S
C599 C600 1.524 . S
C599 C603 1.400 . S
C600 H585 0.960 . S
C600 H586 0.960 . S
C600 H587 0.960 . S
C600 C599 1.524 . S
C601 C598 1.403 . S
C601 C602 1.392 . S
C601 C605 1.495 . S
C602 C601 1.392 . S
C602 C603 1.385 . S
C602 C604 1.478 . S
C603 H597 0.930 . S
C603 C599 1.400 . S
C603 C602 1.385 . S
C604 C602 1.478 . S
C604 C606 1.381 . S
C604 C610 1.383 . S
C605 C601 1.495 . S
C605 H611 0.959 . S
C605 H612 0.961 . S
C605 H613 0.960 . S
C606 C604 1.381 . S
C606 C607 1.394 . S
C606 H614 0.930 . S
C607 C606 1.394 . S
C607 C608 1.383 . S
C607 H615 0.929 . S
C608 C607 1.383 . S
C608 C609 1.377 . S
C609 H593 0.930 . S
C609 C608 1.377 . S
C609 C610 1.379 . S
C610 H594 0.931 . S
C610 C604 1.383 . S
C610 C609 1.379 . S
H611 C605 0.959 . S
H612 C605 0.961 . S
H613 C605 0.960 . S
H614 C606 0.930 . S
H615 C607 0.929 . S
H616 C624 0.929 . S
H617 C626 0.930 1_655 S
H618 C628 0.930 . S
H619 C631 0.929 . S
H620 C634 0.930 . S
H621 C636 0.960 . S
H622 C636 0.960 . S
H623 C636 0.960 . S
C624 H616 0.929 . S
C624 C625 1.377 . S
C624 C626 1.384 . S
C625 C624 1.377 . S
C625 C631 1.390 . S
C626 H617 0.930 1_455 S
C626 C624 1.384 . S
C626 C627 1.372 . S
C627 C626 1.372 . S
C627 C628 1.400 . S
C627 C632 1.490 . S
C628 H618 0.930 . S
C628 C627 1.400 . S
C628 C631 1.386 . S
H629 C645 0.930 . S
H630 C646 0.931 . S
C631 H619 0.929 . S
C631 C625 1.390 . S
C631 C628 1.386 . S
C632 C627 1.490 . S
C632 C634 1.395 1_455 S
C632 C635 1.403 . S
H633 C639 0.930 . S
C634 H620 0.930 . S
C634 C632 1.395 1_655 S
C634 C637 1.403 . S
C635 C632 1.403 . S
C635 C636 1.524 . S
C635 C639 1.400 . S
C636 H621 0.960 . S
C636 H622 0.960 . S
C636 H623 0.960 . S
C636 C635 1.524 . S
C637 C634 1.403 . S
C637 C638 1.392 . S
C637 C641 1.495 . S
C638 C637 1.392 . S
C638 C639 1.385 1_655 S
C638 C640 1.478 . S
C639 H633 0.930 . S
C639 C635 1.400 . S
C639 C638 1.385 1_455 S
C640 C638 1.478 . S
C640 C642 1.381 . S
C640 C646 1.383 . S
C641 C637 1.495 . S
C641 H647 0.959 . S
C641 H648 0.961 . S
C641 H649 0.960 . S
C642 C640 1.381 . S
C642 C643 1.394 . S
C642 H650 0.930 . S
C643 C642 1.394 . S
C643 C644 1.383 . S
C643 H651 0.929 . S
C644 C643 1.383 . S
C644 C645 1.377 . S
C645 H629 0.930 . S
C645 C644 1.377 . S
C645 C646 1.379 . S
C646 H630 0.931 . S
C646 C640 1.383 . S
C646 C645 1.379 . S
H647 C641 0.959 . S
H648 C641 0.961 . S
H649 C641 0.960 . S
H650 C642 0.930 . S
H651 C643 0.929 . S
H652 C660 0.929 1_655 S
H653 C662 0.930 . S
H654 C664 0.930 . S
H655 C667 0.929 . S
H656 C670 0.930 . S
H657 C672 0.960 . S
H658 C672 0.960 . S
H659 C672 0.960 . S
C660 H652 0.929 1_455 S
C660 C661 1.377 . S
C660 C662 1.384 1_455 S
C661 C660 1.377 . S
C661 C667 1.390 . S
C662 H653 0.930 . S
C662 C660 1.384 1_655 S
C662 C663 1.372 1_655 S
C663 C662 1.372 1_455 S
C663 C664 1.400 . S
C663 C668 1.490 . S
C664 H654 0.930 . S
C664 C663 1.400 . S
C664 C667 1.386 . S
H665 C681 0.930 1_455 S
H666 C682 0.931 1_455 S
C667 H655 0.929 . S
C667 C661 1.390 . S
C667 C664 1.386 . S
C668 C663 1.490 . S
C668 C670 1.395 1_455 S
C668 C671 1.403 . S
H669 C675 0.930 . S
C670 H656 0.930 . S
C670 C668 1.395 1_655 S
C670 C673 1.403 . S
C671 C668 1.403 . S
C671 C672 1.524 . S
C671 C675 1.400 . S
C672 H657 0.960 . S
C672 H658 0.960 . S
C672 H659 0.960 . S
C672 C671 1.524 . S
C673 C670 1.403 . S
C673 C674 1.392 . S
C673 C677 1.495 . S
C674 C673 1.392 . S
C674 C675 1.385 1_655 S
C674 C676 1.478 . S
C675 H669 0.930 . S
C675 C671 1.400 . S
C675 C674 1.385 1_455 S
C676 C674 1.478 . S
C676 C678 1.381 . S
C676 C682 1.383 . S
C677 C673 1.495 . S
C677 H683 0.959 . S
C677 H684 0.961 . S
C677 H685 0.960 . S
C678 C676 1.381 . S
C678 C679 1.394 . S
C678 H686 0.930 . S
C679 C678 1.394 . S
C679 C680 1.383 . S
C679 H687 0.929 . S
C680 C679 1.383 . S
C680 C681 1.377 . S
C681 H665 0.930 1_655 S
C681 C680 1.377 . S
C681 C682 1.379 . S
C682 H666 0.931 1_655 S
C682 C676 1.383 . S
C682 C681 1.379 . S
H683 C677 0.959 . S
H684 C677 0.961 . S
H685 C677 0.960 . S
H686 C678 0.930 . S
H687 C679 0.929 . S
H688 C696 0.929 . S
H689 C698 0.930 . S
H690 C700 0.930 . S
H691 C703 0.929 . S
H692 C706 0.930 . S
H693 C708 0.960 . S
H694 C708 0.960 . S
H695 C708 0.960 . S
C696 H688 0.929 . S
C696 C697 1.377 1_655 S
C696 C698 1.384 . S
C697 C696 1.377 1_455 S
C697 C703 1.390 . S
C698 H689 0.930 . S
C698 C696 1.384 . S
C698 C699 1.372 1_655 S
C699 C698 1.372 1_455 S
C699 C700 1.400 . S
C699 C704 1.490 . S
C700 H690 0.930 . S
C700 C699 1.400 . S
C700 C703 1.386 . S
H701 C717 0.930 . S
H702 C718 0.931 . S
C703 H691 0.929 . S
C703 C697 1.390 . S
C703 C700 1.386 . S
C704 C699 1.490 . S
C704 C706 1.395 1_455 S
C704 C707 1.403 . S
H705 C711 0.930 . S
C706 H692 0.930 . S
C706 C704 1.395 1_655 S
C706 C709 1.403 . S
C707 C704 1.403 . S
C707 C708 1.524 . S
C707 C711 1.400 . S
C708 H693 0.960 . S
C708 H694 0.960 . S
C708 H695 0.960 . S
C708 C707 1.524 . S
C709 C706 1.403 . S
C709 C710 1.392 . S
C709 C713 1.495 . S
C710 C709 1.392 . S
C710 C711 1.385 1_655 S
C710 C712 1.478 . S
C711 H705 0.930 . S
C711 C707 1.400 . S
C711 C710 1.385 1_455 S
C712 C710 1.478 . S
C712 C714 1.381 . S
C712 C718 1.383 1_655 S
C713 C709 1.495 . S
C713 H719 0.959 . S
C713 H720 0.961 . S
C713 H721 0.960 . S
C714 C712 1.381 . S
C714 C715 1.394 . S
C714 H722 0.930 . S
C715 C714 1.394 . S
C715 C716 1.383 . S
C715 H723 0.929 . S
C716 C715 1.383 . S
C716 C717 1.377 1_655 S
C717 H701 0.930 . S
C717 C716 1.377 1_455 S
C717 C718 1.379 . S
C718 H702 0.931 . S
C718 C712 1.383 1_455 S
C718 C717 1.379 . S
H719 C713 0.959 . S
H720 C713 0.961 . S
H721 C713 0.960 . S
H722 C714 0.930 . S
H723 C715 0.929 . S
H724 C732 0.929 1_655 S
H725 C734 0.930 . S
H726 C736 0.930 . S
H727 C739 0.929 . S
H728 C742 0.930 . S
H729 C744 0.960 . S
H730 C744 0.960 . S
H731 C744 0.960 . S
C732 H724 0.929 1_455 S
C732 C733 1.377 . S
C732 C734 1.384 1_455 S
C733 C732 1.377 . S
C733 C739 1.390 . S
C734 H725 0.930 . S
C734 C732 1.384 1_655 S
C734 C735 1.372 1_655 S
C735 C734 1.372 1_455 S
C735 C736 1.400 . S
C735 C740 1.490 . S
C736 H726 0.930 . S
C736 C735 1.400 . S
C736 C739 1.386 . S
H737 C753 0.933 . S
H738 C754 0.931 . S
C739 H727 0.929 . S
C739 C733 1.390 . S
C739 C736 1.386 . S
C740 C735 1.490 . S
C740 C742 1.395 . S
C740 C743 1.403 1_455 S
H741 C747 0.930 . S
C742 H728 0.930 . S
C742 C740 1.395 . S
C742 C745 1.403 . S
C743 C740 1.403 1_655 S
C743 C744 1.524 . S
C743 C747 1.400 . S
C744 H729 0.960 . S
C744 H730 0.960 . S
C744 H731 0.960 . S
C744 C743 1.524 . S
C745 C742 1.403 . S
C745 C746 1.392 1_455 S
C745 C749 1.495 . S
C746 C745 1.392 1_655 S
C746 C747 1.385 . S
C746 C748 1.478 . S
C747 H741 0.930 . S
C747 C743 1.400 . S
C747 C746 1.385 . S
C748 C746 1.478 . S
C748 C750 1.381 . S
C748 C754 1.383 1_655 S
C749 C745 1.495 . S
C749 H755 0.959 . S
C749 H756 0.961 . S
C749 H757 0.960 . S
C750 C748 1.381 . S
C750 C751 1.394 . S
C750 H758 0.930 . S
C751 C750 1.394 . S
C751 C752 1.383 . S
C751 H759 0.929 . S
C752 C751 1.383 . S
C752 C753 1.372 1_655 S
C753 H737 0.933 . S
C753 C752 1.372 1_455 S
C753 C754 1.381 . S
C754 H738 0.931 . S
C754 C748 1.383 1_455 S
C754 C753 1.381 . S
H755 C749 0.959 . S
H756 C749 0.961 . S
H757 C749 0.960 . S
H758 C750 0.930 . S
H759 C751 0.929 . S
H760 C768 0.929 . S
H761 C770 0.930 . S
H762 C772 0.930 . S
H763 C775 0.929 . S
H764 C778 0.930 . S
H765 C780 0.960 . S
H766 C780 0.960 . S
H767 C780 0.960 . S
C768 H760 0.929 . S
C768 C769 1.377 . S
C768 C770 1.384 . S
C769 C768 1.377 . S
C769 C775 1.390 . S
C770 H761 0.930 . S
C770 C768 1.384 . S
C770 C771 1.372 . S
C771 C770 1.372 . S
C771 C772 1.400 . S
C771 C776 1.490 . S
C772 H762 0.930 . S
C772 C771 1.400 . S
C772 C775 1.386 . S
H773 C789 0.930 . S
H774 C790 0.931 . S
C775 H763 0.929 . S
C775 C769 1.390 . S
C775 C772 1.386 . S
C776 C771 1.490 . S
C776 C778 1.395 . S
C776 C779 1.403 . S
H777 C783 0.930 . S
C778 H764 0.930 . S
C778 C776 1.395 . S
C778 C781 1.403 . S
C779 C776 1.403 . S
C779 C780 1.524 . S
C779 C783 1.400 . S
C780 H765 0.960 . S
C780 H766 0.960 . S
C780 H767 0.960 . S
C780 C779 1.524 . S
C781 C778 1.403 . S
C781 C782 1.392 . S
C781 C785 1.495 . S
C782 C781 1.392 . S
C782 C783 1.385 . S
C782 C784 1.478 . S
C783 H777 0.930 . S
C783 C779 1.400 . S
C783 C782 1.385 . S
C784 C782 1.478 . S
C784 C786 1.381 . S
C784 C790 1.383 . S
C785 C781 1.495 . S
C785 H791 0.959 . S
C785 H792 0.961 . S
C785 H793 0.960 . S
C786 C784 1.381 . S
C786 C787 1.394 . S
C786 H794 0.930 . S
C787 C786 1.394 . S
C787 C788 1.383 . S
C787 H795 0.929 . S
C788 C787 1.383 . S
C788 C789 1.377 . S
C789 H773 0.930 . S
C789 C788 1.377 . S
C789 C790 1.379 . S
C790 H774 0.931 . S
C790 C784 1.383 . S
C790 C789 1.379 . S
H791 C785 0.959 . S
H792 C785 0.961 . S
H793 C785 0.960 . S
H794 C786 0.930 . S
H795 C787 0.929 . S
H796 C804 0.929 . S
H797 C806 0.930 . S
H798 C808 0.930 . S
H799 C811 0.929 . S
H800 C814 0.930 . S
H801 C816 0.960 . S
H802 C816 0.960 . S
H803 C816 0.960 . S
C804 H796 0.929 . S
C804 C805 1.377 . S
C804 C806 1.384 . S
C805 C804 1.377 . S
C805 C811 1.390 . S
C806 H797 0.930 . S
C806 C804 1.384 . S
C806 C807 1.372 . S
C807 C806 1.372 . S
C807 C808 1.400 . S
C807 C812 1.490 . S
C808 H798 0.930 . S
C808 C807 1.400 . S
C808 C811 1.386 . S
H809 C825 0.930 . S
H810 C826 0.931 . S
C811 H799 0.929 . S
C811 C805 1.390 . S
C811 C808 1.386 . S
C812 C807 1.490 . S
C812 C814 1.395 . S
C812 C815 1.403 . S
H813 C819 0.930 . S
C814 H800 0.930 . S
C814 C812 1.395 . S
C814 C817 1.403 . S
C815 C812 1.403 . S
C815 C816 1.524 . S
C815 C819 1.400 . S
C816 H801 0.960 . S
C816 H802 0.960 . S
C816 H803 0.960 . S
C816 C815 1.524 . S
C817 C814 1.403 . S
C817 C818 1.392 . S
C817 C821 1.495 . S
C818 C817 1.392 . S
C818 C819 1.385 . S
C818 C820 1.478 . S
C819 H813 0.930 . S
C819 C815 1.400 . S
C819 C818 1.385 . S
C820 C818 1.478 . S
C820 C822 1.381 . S
C820 C826 1.383 . S
C821 C817 1.495 . S
C821 H827 0.959 . S
C821 H828 0.961 . S
C821 H829 0.960 . S
C822 C820 1.381 . S
C822 C823 1.394 . S
C822 H830 0.930 . S
C823 C822 1.394 . S
C823 C824 1.383 . S
C823 H831 0.929 . S
C824 C823 1.383 . S
C824 C825 1.377 . S
C825 H809 0.930 . S
C825 C824 1.377 . S
C825 C826 1.379 . S
C826 H810 0.931 . S
C826 C820 1.383 . S
C826 C825 1.379 . S
H827 C821 0.959 . S
H828 C821 0.961 . S
H829 C821 0.960 . S
H830 C822 0.930 . S
H831 C823 0.929 . S
H832 C840 0.929 . S
H833 C842 0.930 . S
H834 C844 0.930 . S
H835 C847 0.929 . S
H836 C850 0.930 . S
H837 C852 0.960 . S
H838 C852 0.960 . S
H839 C852 0.960 . S
C840 H832 0.929 . S
C840 C841 1.377 . S
C840 C842 1.384 . S
C841 C840 1.377 . S
C841 C847 1.390 . S
C842 H833 0.930 . S
C842 C840 1.384 . S
C842 C843 1.372 . S
C843 C842 1.372 . S
C843 C844 1.400 . S
C843 C848 1.490 . S
C844 H834 0.930 . S
C844 C843 1.400 . S
C844 C847 1.386 . S
H845 C861 0.930 . S
H846 C862 0.931 . S
C847 H835 0.929 . S
C847 C841 1.390 . S
C847 C844 1.386 . S
C848 C843 1.490 . S
C848 C850 1.395 . S
C848 C851 1.403 . S
H849 C855 0.930 . S
C850 H836 0.930 . S
C850 C848 1.395 . S
C850 C853 1.403 . S
C851 C848 1.403 . S
C851 C852 1.524 . S
C851 C855 1.400 . S
C852 H837 0.960 . S
C852 H838 0.960 . S
C852 H839 0.960 . S
C852 C851 1.524 . S
C853 C850 1.403 . S
C853 C854 1.392 . S
C853 C857 1.495 . S
C854 C853 1.392 . S
C854 C855 1.385 . S
C854 C856 1.478 . S
C855 H849 0.930 . S
C855 C851 1.400 . S
C855 C854 1.385 . S
C856 C854 1.478 . S
C856 C858 1.381 . S
C856 C862 1.383 . S
C857 C853 1.495 . S
C857 H863 0.959 . S
C857 H864 0.961 . S
C857 H865 0.960 . S
C858 C856 1.381 . S
C858 C859 1.394 . S
C858 H866 0.930 . S
C859 C858 1.394 . S
C859 C860 1.383 . S
C859 H867 0.929 . S
C860 C859 1.383 . S
C860 C861 1.377 . S
C861 H845 0.930 . S
C861 C860 1.377 . S
C861 C862 1.379 . S
C862 H846 0.931 . S
C862 C856 1.383 . S
C862 C861 1.379 . S
H863 C857 0.959 . S
H864 C857 0.961 . S
H865 C857 0.960 . S
H866 C858 0.930 . S
H867 C859 0.929 . S
H868 C876 0.929 . S
H869 C878 0.930 . S
H870 C880 0.930 . S
H871 C883 0.929 . S
H872 C886 0.930 . S
H873 C888 0.960 . S
H874 C888 0.960 . S
H875 C888 0.960 . S
C876 H868 0.929 . S
C876 C877 1.377 . S
C876 C878 1.384 . S
C877 C876 1.377 . S
C877 C883 1.390 . S
C878 H869 0.930 . S
C878 C876 1.384 . S
C878 C879 1.372 . S
C879 C878 1.372 . S
C879 C880 1.400 . S
C879 C884 1.490 . S
C880 H870 0.930 . S
C880 C879 1.400 . S
C880 C883 1.386 . S
H881 C897 0.930 . S
H882 C898 0.931 . S
C883 H871 0.929 . S
C883 C877 1.390 . S
C883 C880 1.386 . S
C884 C879 1.490 . S
C884 C886 1.395 . S
C884 C887 1.403 . S
H885 C891 0.930 . S
C886 H872 0.930 . S
C886 C884 1.395 . S
C886 C889 1.403 . S
C887 C884 1.403 . S
C887 C888 1.524 . S
C887 C891 1.400 . S
C888 H873 0.960 . S
C888 H874 0.960 . S
C888 H875 0.960 . S
C888 C887 1.524 . S
C889 C886 1.403 . S
C889 C890 1.392 . S
C889 C893 1.495 . S
C890 C889 1.392 . S
C890 C891 1.385 . S
C890 C892 1.478 . S
C891 H885 0.930 . S
C891 C887 1.400 . S
C891 C890 1.385 . S
C892 C890 1.478 . S
C892 C894 1.381 . S
C892 C898 1.383 . S
C893 C889 1.495 . S
C893 H899 0.959 . S
C893 H900 0.961 . S
C893 H901 0.960 . S
C894 C892 1.381 . S
C894 C895 1.394 . S
C894 H902 0.930 . S
C895 C894 1.394 . S
C895 C896 1.383 . S
C895 H903 0.929 . S
C896 C895 1.383 . S
C896 C897 1.377 . S
C897 H881 0.930 . S
C897 C896 1.377 . S
C897 C898 1.379 . S
C898 H882 0.931 . S
C898 C892 1.383 . S
C898 C897 1.379 . S
H899 C893 0.959 . S
H900 C893 0.961 . S
H901 C893 0.960 . S
H902 C894 0.930 . S
H903 C895 0.929 . S
H904 C912 0.929 . S
H905 C914 0.930 . S
H906 C916 0.930 . S
H907 C919 0.929 . S
H908 C922 0.930 1_556 S
H909 C924 0.960 . S
H910 C924 0.960 . S
H911 C924 0.960 . S
C912 H904 0.929 . S
C912 C913 1.377 . S
C912 C914 1.384 . S
C913 C912 1.377 . S
C913 C919 1.390 . S
C914 H905 0.930 . S
C914 C912 1.384 . S
C914 C915 1.372 . S
C915 C914 1.372 . S
C915 C916 1.400 . S
C915 C920 1.490 . S
C916 H906 0.930 . S
C916 C915 1.400 . S
C916 C919 1.386 . S
H917 C933 0.930 . S
H918 C934 0.931 . S
C919 H907 0.929 . S
C919 C913 1.390 . S
C919 C916 1.386 . S
C920 C915 1.490 . S
C920 C922 1.395 . S
C920 C923 1.403 . S
H921 C927 0.930 . S
C922 H908 0.930 1_554 S
C922 C920 1.395 . S
C922 C925 1.403 . S
C923 C920 1.403 . S
C923 C924 1.524 . S
C923 C927 1.400 . S
C924 H909 0.960 . S
C924 H910 0.960 . S
C924 H911 0.960 . S
C924 C923 1.524 . S
C925 C922 1.403 . S
C925 C926 1.392 . S
C925 C929 1.495 1_554 S
C926 C925 1.392 . S
C926 C927 1.385 . S
C926 C928 1.478 . S
C927 H921 0.930 . S
C927 C923 1.400 . S
C927 C926 1.385 . S
C928 C926 1.478 . S
C928 C930 1.381 . S
C928 C934 1.383 . S
C929 C925 1.495 1_556 S
C929 H935 0.959 . S
C929 H936 0.961 . S
C929 H937 0.960 . S
C930 C928 1.381 . S
C930 C931 1.394 . S
C930 H938 0.930 . S
C931 C930 1.394 . S
C931 C932 1.383 . S
C931 H939 0.929 . S
C932 C931 1.383 . S
C932 C933 1.377 . S
C933 H917 0.930 . S
C933 C932 1.377 . S
C933 C934 1.379 . S
C934 H918 0.931 . S
C934 C928 1.383 . S
C934 C933 1.379 . S
H935 C929 0.959 . S
H936 C929 0.961 . S
H937 C929 0.960 . S
H938 C930 0.930 . S
H939 C931 0.929 . S
H940 C948 0.929 . S
H941 C950 0.930 . S
H942 C952 0.930 . S
H943 C955 0.929 . S
H944 C958 0.930 . S
H945 C960 0.960 . S
H946 C960 0.960 . S
H947 C960 0.960 . S
C948 H940 0.929 . S
C948 C949 1.377 . S
C948 C950 1.384 . S
C949 C948 1.377 . S
C949 C955 1.390 . S
C950 H941 0.930 . S
C950 C948 1.384 . S
C950 C951 1.372 . S
C951 C950 1.372 . S
C951 C952 1.400 . S
C951 C956 1.490 . S
C952 H942 0.930 . S
C952 C951 1.400 . S
C952 C955 1.386 . S
H953 C969 0.930 . S
H954 C970 0.931 . S
C955 H943 0.929 . S
C955 C949 1.390 . S
C955 C952 1.386 . S
C956 C951 1.490 . S
C956 C958 1.395 . S
C956 C959 1.403 . S
H957 C963 0.930 . S
C958 H944 0.930 . S
C958 C956 1.395 . S
C958 C961 1.403 . S
C959 C956 1.403 . S
C959 C960 1.524 . S
C959 C963 1.400 . S
C960 H945 0.960 . S
C960 H946 0.960 . S
C960 H947 0.960 . S
C960 C959 1.524 . S
C961 C958 1.403 . S
C961 C962 1.392 . S
C961 C965 1.495 1_554 S
C962 C961 1.392 . S
C962 C963 1.385 . S
C962 C964 1.478 . S
C963 H957 0.930 . S
C963 C959 1.400 . S
C963 C962 1.385 . S
C964 C962 1.478 . S
C964 C966 1.381 . S
C964 C970 1.383 . S
C965 C961 1.495 1_556 S
C965 H971 0.959 . S
C965 H972 0.961 . S
C965 H973 0.960 . S
C966 C964 1.381 . S
C966 C967 1.394 . S
C966 H974 0.930 . S
C967 C966 1.394 . S
C967 C968 1.383 . S
C967 H975 0.929 . S
C968 C967 1.383 . S
C968 C969 1.377 . S
C969 H953 0.930 . S
C969 C968 1.377 . S
C969 C970 1.379 . S
C970 H954 0.931 . S
C970 C964 1.383 . S
C970 C969 1.379 . S
H971 C965 0.959 . S
H972 C965 0.961 . S
H973 C965 0.960 . S
H974 C966 0.930 . S
H975 C967 0.929 . S
H976 C984 0.929 . S
H977 C986 0.930 . S
H978 C988 0.930 . S
H979 C991 0.929 . S
H980 C994 0.930 . S
H981 C996 0.960 . S
H982 C996 0.960 . S
H983 C996 0.960 . S
C984 H976 0.929 . S
C984 C985 1.377 . S
C984 C986 1.384 . S
C985 C984 1.377 . S
C985 C991 1.390 . S
C986 H977 0.930 . S
C986 C984 1.384 . S
C986 C987 1.372 . S
C987 C986 1.372 . S
C987 C988 1.400 . S
C987 C992 1.490 . S
C988 H978 0.930 . S
C988 C987 1.400 . S
C988 C991 1.386 . S
H989 C1005 0.930 . S
H990 C1006 0.931 . S
C991 H979 0.929 . S
C991 C985 1.390 . S
C991 C988 1.386 . S
C992 C987 1.490 . S
C992 C994 1.395 . S
C992 C995 1.403 . S
H993 C999 0.930 . S
C994 H980 0.930 . S
C994 C992 1.395 . S
C994 C997 1.403 . S
C995 C992 1.403 . S
C995 C996 1.524 . S
C995 C999 1.400 . S
C996 H981 0.960 . S
C996 H982 0.960 . S
C996 H983 0.960 . S
C996 C995 1.524 . S
C997 C994 1.403 . S
C997 C998 1.392 . S
C997 C1001 1.495 . S
C998 C997 1.392 . S
C998 C999 1.385 . S
C998 C1000 1.478 . S
C999 H993 0.930 . S
C999 C995 1.400 . S
C999 C998 1.385 . S
C1000 C998 1.478 . S
C1000 C1002 1.381 . S
C1000 C1006 1.383 . S
C1001 C997 1.495 . S
C1001 H1007 0.959 . S
C1001 H1008 0.961 . S
C1001 H1009 0.960 . S
C1002 C1000 1.381 . S
C1002 C1003 1.394 . S
C1002 H1010 0.930 . S
C1003 C1002 1.394 . S
C1003 C1004 1.383 . S
C1003 H1011 0.929 . S
C1004 C1003 1.383 . S
C1004 C1005 1.377 . S
C1005 H989 0.930 . S
C1005 C1004 1.377 . S
C1005 C1006 1.379 . S
C1006 H990 0.931 . S
C1006 C1000 1.383 . S
C1006 C1005 1.379 . S
H1007 C1001 0.959 . S
H1008 C1001 0.961 . S
H1009 C1001 0.960 . S
H1010 C1002 0.930 . S
H1011 C1003 0.929 . S
H1012 C1020 0.929 . S
H1013 C1022 0.930 . S
H1014 C1024 0.930 . S
H1015 C1027 0.929 . S
H1016 C1030 0.930 . S
H1017 C1032 0.960 . S
H1018 C1032 0.960 . S
H1019 C1032 0.960 . S
C1020 H1012 0.929 . S
C1020 C1021 1.377 . S
C1020 C1022 1.384 . S
C1021 C1020 1.377 . S
C1021 C1027 1.390 . S
C1022 H1013 0.930 . S
C1022 C1020 1.384 . S
C1022 C1023 1.372 . S
C1023 C1022 1.372 . S
C1023 C1024 1.400 . S
C1023 C1028 1.490 . S
C1024 H1014 0.930 . S
C1024 C1023 1.400 . S
C1024 C1027 1.386 . S
H1025 C1041 0.930 . S
H1026 C1042 0.931 . S
C1027 H1015 0.929 . S
C1027 C1021 1.390 . S
C1027 C1024 1.386 . S
C1028 C1023 1.490 . S
C1028 C1030 1.395 . S
C1028 C1031 1.403 . S
H1029 C1035 0.930 . S
C1030 H1016 0.930 . S
C1030 C1028 1.395 . S
C1030 C1033 1.403 . S
C1031 C1028 1.403 . S
C1031 C1032 1.524 . S
C1031 C1035 1.400 . S
C1032 H1017 0.960 . S
C1032 H1018 0.960 . S
C1032 H1019 0.960 . S
C1032 C1031 1.524 . S
C1033 C1030 1.403 . S
C1033 C1034 1.392 . S
C1033 C1037 1.495 . S
C1034 C1033 1.392 . S
C1034 C1035 1.385 . S
C1034 C1036 1.478 . S
C1035 H1029 0.930 . S
C1035 C1031 1.400 . S
C1035 C1034 1.385 . S
C1036 C1034 1.478 . S
C1036 C1038 1.381 . S
C1036 C1042 1.383 . S
C1037 C1033 1.495 . S
C1037 H1043 0.959 . S
C1037 H1044 0.961 . S
C1037 H1045 0.960 . S
C1038 C1036 1.381 . S
C1038 C1039 1.394 . S
C1038 H1046 0.930 . S
C1039 C1038 1.394 . S
C1039 C1040 1.383 . S
C1039 H1047 0.929 . S
C1040 C1039 1.383 . S
C1040 C1041 1.377 . S
C1041 H1025 0.930 . S
C1041 C1040 1.377 . S
C1041 C1042 1.379 . S
C1042 H1026 0.931 . S
C1042 C1036 1.383 . S
C1042 C1041 1.379 . S
H1043 C1037 0.959 . S
H1044 C1037 0.961 . S
H1045 C1037 0.960 . S
H1046 C1038 0.930 . S
H1047 C1039 0.929 . S
C481 C111 1.513 . S
C500 C52 1.516 . S
C517 C170 1.516 . S
C536 C229 1.513 . S
C553 C288 1.515 . S
C572 C347 1.504 . S
C589 C406 1.515 . S
C608 C465 1.516 . S
C625 C33 1.290 . S
C644 C210 1.278 . S
C661 C151 1.291 . S
C680 C92 1.274 . S
C697 C121 1.356 . S
C716 C62 1.372 . S
C733 C3 1.359 . S
C752 C180 1.374 . S
C769 C269 1.287 . S
C788 C446 1.299 . S
C805 C387 1.288 . S
C824 C328 1.296 . S
C841 C298 1.362 . S
C860 C357 1.346 . S
C877 C239 1.360 . S
C896 C416 1.337 . S
C913 C300 1.513 . S
C932 C5 1.511 . S
C949 C241 1.513 . S
C968 C64 1.511 . S
C985 C123 1.514 . S
C1004 C418 1.510 . S
C1021 C359 1.514 . S
C1040 C182 1.510 . S
