# Generated by pormake.
# Topology ske, (6)-cn, num edge types: 1
# Building blocks:
#     Node 0, Type 0, BuildingBlock: LEVNOQ01_clean_sbu_1, # of connection points: 6
#     Node 1, Type 0, BuildingBlock: LEVNOQ01_clean_sbu_1, # of connection points: 6
#     Node 2, Type 0, BuildingBlock: LEVNOQ01_clean_sbu_1, # of connection points: 6
#     Node 3, Type 0, BuildingBlock: LEVNOQ01_clean_sbu_1, # of connection points: 6
#     Node 4, Type 0, BuildingBlock: LEVNOQ01_clean_sbu_1, # of connection points: 6
#     Node 5, Type 0, BuildingBlock: LEVNOQ01_clean_sbu_1, # of connection points: 6
#     Node 6, Type 0, BuildingBlock: LEVNOQ01_clean_sbu_1, # of connection points: 6
#     Node 7, Type 0, BuildingBlock: LEVNOQ01_clean_sbu_1, # of connection points: 6
#     Edge 8, Type (0, 0), BuildingBlock: OJICUG_clean_linker_0, # of connection points: 2
#     Edge 9, Type (0, 0), BuildingBlock: OJICUG_clean_linker_0, # of connection points: 2
#     Edge 10, Type (0, 0), BuildingBlock: OJICUG_clean_linker_0, # of connection points: 2
#     Edge 11, Type (0, 0), BuildingBlock: OJICUG_clean_linker_0, # of connection points: 2
#     Edge 12, Type (0, 0), BuildingBlock: OJICUG_clean_linker_0, # of connection points: 2
#     Edge 13, Type (0, 0), BuildingBlock: OJICUG_clean_linker_0, # of connection points: 2
#     Edge 14, Type (0, 0), BuildingBlock: OJICUG_clean_linker_0, # of connection points: 2
#     Edge 15, Type (0, 0), BuildingBlock: OJICUG_clean_linker_0, # of connection points: 2
#     Edge 16, Type (0, 0), BuildingBlock: OJICUG_clean_linker_0, # of connection points: 2
#     Edge 17, Type (0, 0), BuildingBlock: OJICUG_clean_linker_0, # of connection points: 2
#     Edge 18, Type (0, 0), BuildingBlock: OJICUG_clean_linker_0, # of connection points: 2
#     Edge 19, Type (0, 0), BuildingBlock: OJICUG_clean_linker_0, # of connection points: 2
#     Edge 20, Type (0, 0), BuildingBlock: OJICUG_clean_linker_0, # of connection points: 2
#     Edge 21, Type (0, 0), BuildingBlock: OJICUG_clean_linker_0, # of connection points: 2
#     Edge 22, Type (0, 0), BuildingBlock: OJICUG_clean_linker_0, # of connection points: 2
#     Edge 23, Type (0, 0), BuildingBlock: OJICUG_clean_linker_0, # of connection points: 2
#     Edge 24, Type (0, 0), BuildingBlock: OJICUG_clean_linker_0, # of connection points: 2
#     Edge 25, Type (0, 0), BuildingBlock: OJICUG_clean_linker_0, # of connection points: 2
#     Edge 26, Type (0, 0), BuildingBlock: OJICUG_clean_linker_0, # of connection points: 2
#     Edge 27, Type (0, 0), BuildingBlock: OJICUG_clean_linker_0, # of connection points: 2
#     Edge 28, Type (0, 0), BuildingBlock: OJICUG_clean_linker_0, # of connection points: 2
#     Edge 29, Type (0, 0), BuildingBlock: OJICUG_clean_linker_0, # of connection points: 2
#     Edge 30, Type (0, 0), BuildingBlock: OJICUG_clean_linker_0, # of connection points: 2
#     Edge 31, Type (0, 0), BuildingBlock: OJICUG_clean_linker_0, # of connection points: 2
# Relax obj value: 0.102
# Max RMSD: 0.138
# Mean RMSD: 0.138
data_MOF--net-ske--node1-LEVNOQ01_clean_sbu_1--edge1-OJICUG_clean_linker_0
_symmetry_space_group_name_H-M    P1
_symmetry_Int_Tables_number       1
_symmetry_cell_setting            triclinic
loop_
_symmetry_equiv_pos_as_xyz
'x, y, z'
_cell_length_a     47.527988
_cell_length_b     22.548736
_cell_length_c     11.99252
_cell_angle_alpha  89.956455
_cell_angle_beta   90.04151
_cell_angle_gamma 90.018443
loop_
_atom_site_label
_atom_site_type_symbol
_atom_site_fract_x
_atom_site_fract_y
_atom_site_fract_z
_atom_type_partial_charge
O0 O 0.15681 0.18721 0.80964 0.0
Mg1 Mg 0.11452 0.1619 0.77839 0.0
O2 O 0.15975 0.24388 0.65998 0.0
Mg3 Mg 0.11124 0.25311 0.64327 0.0
O4 O 0.10461 0.14765 0.61745 0.0
O5 O 0.11046 0.07486 0.74373 0.0
O6 O 0.06119 0.2491 0.64262 0.0
O7 O 0.11238 0.25055 0.45081 0.0
Mg8 Mg 0.08398 0.34169 0.60246 0.0
O9 O 0.12538 0.35712 0.63028 0.0
O10 O 0.0523 0.3332 0.72345 0.0
O11 O 0.07766 0.31462 0.4326 0.0
O12 O 0.09306 0.4281 0.59923 0.0
C13 C 0.09291 0.23896 0.91381 0.0
C14 C 0.17138 0.21886 0.74388 0.0
C15 C 0.10452 0.09129 0.64338 0.0
C16 C 0.04411 0.2824 0.6952 0.0
C17 C 0.09496 0.2785 0.38895 0.0
C18 C 0.11895 0.41234 0.60915 0.0
O19 O 0.08303 0.18921 0.88729 0.0
O20 O 0.1082 0.26644 0.84281 0.0
O21 O 0.89443 0.18882 0.42475 0.0
Mg22 Mg 0.88826 0.15893 0.59308 0.0
O23 O 0.85894 0.24923 0.45477 0.0
Mg24 Mg 0.85965 0.24513 0.64279 0.0
O25 O 0.84722 0.1391 0.62556 0.0
O26 O 0.88066 0.07266 0.57922 0.0
O27 O 0.86223 0.23624 0.84077 0.0
O28 O 0.80983 0.24795 0.64452 0.0
Mg29 Mg 0.83843 0.35168 0.74913 0.0
O30 O 0.86747 0.3508 0.62658 0.0
O31 O 0.85033 0.32454 0.90375 0.0
O32 O 0.7971 0.33729 0.7011 0.0
O33 O 0.85333 0.4327 0.71856 0.0
C34 C 0.92744 0.21637 0.69495 0.0
C35 C 0.87605 0.22457 0.38779 0.0
C36 C 0.85463 0.08534 0.5961 0.0
C37 C 0.85866 0.27245 0.92165 0.0
C38 C 0.7908 0.28639 0.66533 0.0
C39 C 0.868 0.40857 0.64029 0.0
O40 O 0.92 0.16388 0.71373 0.0
O41 O 0.90981 0.25124 0.64898 0.0
O42 O 0.0764 0.68695 0.51786 0.0
Mg43 Mg 0.08425 0.65901 0.3494 0.0
O44 O 0.11148 0.75011 0.50272 0.0
Mg45 Mg 0.11043 0.74669 0.30996 0.0
O46 O 0.12574 0.64325 0.32561 0.0
O47 O 0.09331 0.57271 0.35816 0.0
O48 O 0.10802 0.73221 0.11091 0.0
O49 O 0.1587 0.7589 0.29332 0.0
Mg50 Mg 0.11207 0.83756 0.17122 0.0
O51 O 0.10302 0.85186 0.33297 0.0
O52 O 0.08062 0.80564 0.06506 0.0
O53 O 0.15488 0.81469 0.14241 0.0
O54 O 0.10661 0.92447 0.2051 0.0
C55 C 0.04375 0.71412 0.25506 0.0
C56 C 0.09364 0.72258 0.56332 0.0
C57 C 0.11923 0.58832 0.34883 0.0
C58 C 0.09168 0.75682 0.03989 0.0
C59 C 0.16993 0.78464 0.20935 0.0
C60 C 0.10201 0.9081 0.30656 0.0
O61 O 0.05297 0.66427 0.22597 0.0
O62 O 0.06012 0.74855 0.30888 0.0
O63 O 0.89307 0.79493 0.52233 0.0
Mg64 Mg 0.8863 0.82481 0.35404 0.0
O65 O 0.85751 0.73479 0.49256 0.0
Mg66 Mg 0.8584 0.73983 0.3046 0.0
O67 O 0.84541 0.84593 0.32335 0.0
O68 O 0.87936 0.91105 0.37086 0.0
O69 O 0.86107 0.74892 0.10667 0.0
O70 O 0.80846 0.7365 0.30281 0.0
Mg71 Mg 0.83656 0.63342 0.20072 0.0
O72 O 0.86675 0.63433 0.31901 0.0
O73 O 0.84658 0.66213 0.04466 0.0
O74 O 0.79576 0.64555 0.25649 0.0
O75 O 0.85241 0.55267 0.22673 0.0
C76 C 0.92589 0.77007 0.25194 0.0
C77 C 0.87471 0.75923 0.5595 0.0
C78 C 0.85323 0.89922 0.35435 0.0
C79 C 0.85613 0.71324 0.02602 0.0
C80 C 0.78943 0.69722 0.28791 0.0
C81 C 0.86744 0.57666 0.3042 0.0
O82 O 0.91762 0.82182 0.23169 0.0
O83 O 0.90878 0.73446 0.29908 0.0
O84 O 0.65493 0.68424 0.31357 0.0
Mg85 Mg 0.61211 0.66159 0.28469 0.0
O86 O 0.65862 0.74058 0.16334 0.0
Mg87 Mg 0.61031 0.7527 0.1466 0.0
O88 O 0.60297 0.64751 0.123 0.0
O89 O 0.60658 0.57475 0.25057 0.0
O90 O 0.56002 0.75066 0.14734 0.0
O91 O 0.61137 0.74932 0.95397 0.0
Mg92 Mg 0.58408 0.84041 0.10691 0.0
O93 O 0.62556 0.85628 0.13129 0.0
O94 O 0.55273 0.83498 0.22985 0.0
O95 O 0.5764 0.81271 0.93816 0.0
O96 O 0.59309 0.9267 0.09833 0.0
C97 C 0.59165 0.74191 0.41671 0.0
C98 C 0.66993 0.71446 0.2468 0.0
C99 C 0.60194 0.59125 0.14919 0.0
C100 C 0.5436 0.78502 0.20089 0.0
C101 C 0.59362 0.77696 0.89307 0.0
C102 C 0.61901 0.91116 0.10774 0.0
O103 O 0.58074 0.69298 0.39119 0.0
O104 O 0.60784 0.767 0.34577 0.0
O105 O 0.39291 0.70321 0.93213 0.0
Mg106 Mg 0.38621 0.67328 0.10034 0.0
O107 O 0.35739 0.76338 0.96195 0.0
Mg108 Mg 0.35831 0.7583 0.14997 0.0
O109 O 0.34532 0.65223 0.13136 0.0
O110 O 0.37917 0.58707 0.08342 0.0
O111 O 0.36099 0.74932 0.34784 0.0
O112 O 0.30838 0.7616 0.15167 0.0
Mg113 Mg 0.33639 0.86481 0.25328 0.0
O114 O 0.36675 0.86372 0.13582 0.0
O115 O 0.34618 0.83589 0.40958 0.0
O116 O 0.29566 0.85274 0.19631 0.0
O117 O 0.3524 0.94549 0.22754 0.0
C118 C 0.42583 0.72811 0.20269 0.0
C119 C 0.37457 0.73896 0.89499 0.0
C120 C 0.35307 0.59892 0.1003 0.0
C121 C 0.35588 0.78492 0.4284 0.0
C122 C 0.28934 0.80092 0.16566 0.0
C123 C 0.3675 0.92138 0.15052 0.0
O124 O 0.41763 0.67626 0.22252 0.0
O125 O 0.40867 0.7637 0.15573 0.0
O126 O 0.57747 0.18562 0.02259 0.0
Mg127 Mg 0.58387 0.15835 0.85292 0.0
O128 O 0.61238 0.24928 0.0046 0.0
Mg129 Mg 0.61124 0.24659 0.81228 0.0
O130 O 0.62524 0.14248 0.82577 0.0
O131 O 0.59274 0.07184 0.85677 0.0
O132 O 0.60821 0.2333 0.61275 0.0
O133 O 0.65977 0.25533 0.79644 0.0
Mg134 Mg 0.61511 0.33807 0.67673 0.0
O135 O 0.60481 0.35207 0.83738 0.0
O136 O 0.58362 0.31122 0.56736 0.0
O137 O 0.65735 0.31191 0.64653 0.0
O138 O 0.61134 0.42507 0.71204 0.0
C139 C 0.54407 0.21754 0.75987 0.0
C140 C 0.59486 0.22156 0.06636 0.0
C141 C 0.61868 0.08734 0.847 0.0
C142 C 0.59316 0.26112 0.54137 0.0
C143 C 0.67165 0.27999 0.71279 0.0
C144 C 0.605 0.40848 0.81189 0.0
O145 O 0.55228 0.16681 0.73143 0.0
O146 O 0.56116 0.25085 0.81254 0.0
O147 O 0.39403 0.3086 0.03242 0.0
Mg148 Mg 0.3878 0.33857 0.86416 0.0
O149 O 0.35863 0.24807 0.0017 0.0
Mg150 Mg 0.35942 0.25252 0.81362 0.0
O151 O 0.34679 0.3585 0.831 0.0
O152 O 0.38021 0.42472 0.87907 0.0
O153 O 0.36201 0.26135 0.61582 0.0
O154 O 0.30954 0.24942 0.81157 0.0
Mg155 Mg 0.33785 0.14584 0.70891 0.0
O156 O 0.36754 0.14701 0.82913 0.0
O157 O 0.3486 0.17388 0.55334 0.0
O158 O 0.29683 0.15902 0.76132 0.0
O159 O 0.35337 0.06508 0.73724 0.0
C160 C 0.4272 0.28212 0.76224 0.0
C161 C 0.37569 0.2727 0.06902 0.0
C162 C 0.3542 0.41215 0.86127 0.0
C163 C 0.35761 0.22544 0.53507 0.0
C164 C 0.29052 0.21044 0.79422 0.0
C165 C 0.36821 0.08928 0.81506 0.0
O166 O 0.41963 0.33457 0.74404 0.0
O167 O 0.40964 0.24686 0.80761 0.0
C168 C 0.21418 0.18931 0.85032 0.0
C169 C 0.20191 0.22441 0.76615 0.0
H170 H 0.25222 0.15853 0.92625 0.0
C171 C 0.2192 0.26271 0.7039 0.0
H172 H 0.20156 0.15964 0.90078 0.0
C173 C 0.24839 0.26308 0.72137 0.0
C174 C 0.26053 0.22487 0.80048 0.0
H175 H 0.21035 0.29069 0.63936 0.0
H176 H 0.2616 0.28995 0.66777 0.0
C177 C 0.24318 0.18911 0.86635 0.0
C178 C 0.71931 0.23681 0.75759 0.0
C179 C 0.70218 0.27352 0.69139 0.0
H180 H 0.7616 0.21049 0.79772 0.0
C181 C 0.71463 0.30628 0.60436 0.0
H182 H 0.71034 0.21067 0.82452 0.0
C183 C 0.74367 0.3059 0.58918 0.0
C184 C 0.76084 0.27184 0.65888 0.0
H185 H 0.70213 0.33463 0.55081 0.0
H186 H 0.75287 0.33483 0.52685 0.0
C187 C 0.74852 0.2359 0.74116 0.0
C188 C 0.24171 0.825 0.09883 0.0
C189 C 0.25932 0.78651 0.1581 0.0
H190 H 0.19986 0.8542 0.06804 0.0
C191 C 0.24741 0.74363 0.22881 0.0
H192 H 0.25054 0.859 0.04531 0.0
C193 C 0.21817 0.74178 0.24485 0.0
C194 C 0.20062 0.78229 0.18902 0.0
H195 H 0.26076 0.71438 0.2772 0.0
H196 H 0.20944 0.70991 0.30292 0.0
C197 C 0.2127 0.82251 0.11307 0.0
C198 C 0.71818 0.75758 0.21233 0.0
C199 C 0.70065 0.71636 0.26645 0.0
H200 H 0.76076 0.78532 0.18077 0.0
C201 C 0.7128 0.67495 0.33996 0.0
H202 H 0.70938 0.79033 0.15615 0.0
C203 C 0.74183 0.67215 0.35355 0.0
C204 C 0.7594 0.71145 0.29605 0.0
H205 H 0.69998 0.64266 0.38353 0.0
H206 H 0.75068 0.63735 0.40518 0.0
C207 C 0.74743 0.75539 0.22777 0.0
C208 C 0.09741 0.01494 0.36283 0.0
C209 C 0.09846 0.95454 0.39329 0.0
H210 H 0.09826 0.10549 0.41737 0.0
C211 C 0.09868 0.93984 0.50701 0.0
H212 H 0.09703 0.02799 0.2759 0.0
C213 C 0.09942 0.98446 0.58805 0.0
C214 C 0.0999 0.04486 0.5574 0.0
H215 H 0.09942 0.89392 0.53354 0.0
H216 H 0.10055 0.97139 0.67486 0.0
C217 C 0.09809 0.05957 0.44392 0.0
C218 C 0.88253 0.43194 0.44476 0.0
C219 C 0.8804 0.44931 0.55655 0.0
H220 H 0.88114 0.46017 0.27472 0.0
C221 C 0.883 0.51012 0.58279 0.0
H222 H 0.8809 0.38561 0.42171 0.0
C223 C 0.88282 0.55311 0.49857 0.0
C224 C 0.8802 0.53579 0.3869 0.0
H225 H 0.88201 0.5249 0.66865 0.0
H226 H 0.8814 0.59945 0.52178 0.0
C227 C 0.88252 0.47494 0.3605 0.0
C228 C 0.83067 0.93617 0.52315 0.0
C229 C 0.83363 0.94177 0.40668 0.0
H230 H 0.83506 0.98033 0.68069 0.0
C231 C 0.83123 0.99859 0.35984 0.0
H232 H 0.83284 0.89297 0.56197 0.0
C233 C 0.83101 0.04896 0.4287 0.0
C234 C 0.8346 0.0432 0.54487 0.0
H235 H 0.83389 0.0046 0.27083 0.0
H236 H 0.83339 0.09205 0.38962 0.0
C237 C 0.83192 0.9865 0.59195 0.0
C238 C 0.14269 0.55835 0.52025 0.0
C239 C 0.13937 0.5486 0.40503 0.0
H240 H 0.1387 0.51942 0.68266 0.0
C241 C 0.14229 0.49055 0.3647 0.0
H242 H 0.1403 0.6027 0.55386 0.0
C243 C 0.143 0.44264 0.43929 0.0
C244 C 0.13921 0.45235 0.55428 0.0
H245 H 0.13954 0.48156 0.27662 0.0
H246 H 0.14086 0.39829 0.40544 0.0
C247 C 0.14182 0.51044 0.59479 0.0
C248 C 0.59873 0.55973 0.9486 0.0
C249 C 0.59844 0.54491 0.06225 0.0
H250 H 0.60082 0.52836 0.78068 0.0
C251 C 0.59742 0.48447 0.09248 0.0
H252 H 0.59944 0.60567 0.92225 0.0
C253 C 0.59824 0.43993 0.01126 0.0
C254 C 0.60017 0.45478 0.89788 0.0
H255 H 0.59698 0.47133 0.17936 0.0
H256 H 0.59846 0.39398 0.03766 0.0
C257 C 0.59962 0.5152 0.86742 0.0
C258 C 0.38286 0.02295 0.09456 0.0
C259 C 0.38044 0.96213 0.06809 0.0
H260 H 0.38134 0.11228 0.03346 0.0
C261 C 0.3831 0.9448 0.95645 0.0
H262 H 0.38146 0.03769 0.18035 0.0
C263 C 0.38336 0.98781 0.87224 0.0
C264 C 0.3808 0.04862 0.89852 0.0
H265 H 0.38161 0.89848 0.93321 0.0
H266 H 0.38234 0.97304 0.78637 0.0
C267 C 0.38296 0.06596 0.01034 0.0
C268 C 0.33148 0.51088 0.86392 0.0
C269 C 0.33414 0.45436 0.9118 0.0
H270 H 0.33256 0.6045 0.89252 0.0
C271 C 0.33057 0.44907 0.02804 0.0
H272 H 0.33459 0.51665 0.77508 0.0
C273 C 0.3309 0.4997 0.0962 0.0
C274 C 0.33337 0.55632 0.04854 0.0
H275 H 0.33291 0.40612 0.06767 0.0
H276 H 0.3336 0.49402 0.18528 0.0
C277 C 0.33034 0.56148 0.93202 0.0
C278 C 0.64134 0.98906 0.86144 0.0
C279 C 0.63884 0.04715 0.90202 0.0
H280 H 0.6398 0.89682 0.90224 0.0
C281 C 0.64274 0.05683 0.01698 0.0
H282 H 0.63813 0.98014 0.77358 0.0
C283 C 0.6421 0.0089 0.09155 0.0
C284 C 0.63911 0.95085 0.05122 0.0
H285 H 0.64067 0.10119 0.05083 0.0
H286 H 0.63945 0.01789 0.17967 0.0
C287 C 0.64227 0.94113 0.93594 0.0
C288 C 0.08316 0.31278 0.19475 0.0
C289 C 0.09511 0.27001 0.26651 0.0
H290 H 0.07364 0.33729 0.02508 0.0
C291 C 0.10732 0.2191 0.2201 0.0
H292 H 0.07382 0.3528 0.22818 0.0
C293 C 0.10685 0.21021 0.10501 0.0
C294 C 0.09471 0.25252 0.03359 0.0
H295 H 0.11675 0.1855 0.27281 0.0
H296 H 0.1159 0.16986 0.0715 0.0
C297 C 0.08321 0.30434 0.07882 0.0
C298 C 0.8551 0.28152 0.23313 0.0
C299 C 0.87298 0.23572 0.26747 0.0
H300 H 0.83612 0.3273 0.09875 0.0
C301 C 0.88595 0.19964 0.18648 0.0
H302 H 0.84469 0.31004 0.29295 0.0
C303 C 0.88096 0.20967 0.07252 0.0
C304 C 0.86312 0.25606 0.03925 0.0
H305 H 0.89963 0.16353 0.21111 0.0
H306 H 0.89132 0.18213 0.01104 0.0
C307 C 0.85018 0.29136 0.12106 0.0
C308 C 0.07628 0.70076 0.87051 0.0
C309 C 0.09386 0.74284 0.92057 0.0
H310 H 0.06229 0.66149 0.71757 0.0
C311 C 0.11152 0.77778 0.8535 0.0
H312 H 0.06217 0.67417 0.92088 0.0
C313 C 0.11152 0.77118 0.73765 0.0
C314 C 0.09366 0.7297 0.6864 0.0
H315 H 0.12494 0.8112 0.89085 0.0
H316 H 0.12523 0.79916 0.68829 0.0
C317 C 0.0762 0.69415 0.75425 0.0
C318 C 0.8543 0.70141 0.71411 0.0
C319 C 0.87165 0.7481 0.67987 0.0
H320 H 0.83536 0.65537 0.84807 0.0
C321 C 0.8839 0.7853 0.76091 0.0
H322 H 0.8445 0.67195 0.65418 0.0
C323 C 0.8786 0.77569 0.87478 0.0
C324 C 0.86113 0.72866 0.90807 0.0
H325 H 0.89717 0.82211 0.73633 0.0
H326 H 0.88833 0.8043 0.93622 0.0
C327 C 0.84904 0.69199 0.82609 0.0
C328 C 0.5779 0.80086 0.58498 0.0
C329 C 0.59384 0.75562 0.53618 0.0
H330 H 0.56512 0.84283 0.73703 0.0
C331 C 0.60994 0.71802 0.60441 0.0
H332 H 0.56503 0.82969 0.53371 0.0
C333 C 0.61 0.72511 0.72011 0.0
C334 C 0.59368 0.76962 0.77012 0.0
H335 H 0.62213 0.68234 0.56803 0.0
H336 H 0.6225 0.69507 0.77036 0.0
C337 C 0.57778 0.80778 0.7012 0.0
C338 C 0.38366 0.71287 0.69361 0.0
C339 C 0.3715 0.75014 0.77463 0.0
H340 H 0.388 0.6938 0.51834 0.0
C341 C 0.35422 0.79695 0.74036 0.0
H342 H 0.39688 0.67598 0.71821 0.0
C343 C 0.34894 0.80639 0.62835 0.0
C344 C 0.36093 0.76961 0.54641 0.0
H345 H 0.34449 0.82647 0.80029 0.0
H346 H 0.33532 0.84311 0.60635 0.0
C347 C 0.37834 0.7225 0.57974 0.0
C348 C 0.60804 0.28007 0.23543 0.0
C349 C 0.59507 0.23 0.18881 0.0
H350 H 0.61734 0.32861 0.38422 0.0
C351 C 0.5825 0.18796 0.26039 0.0
H352 H 0.61796 0.3131 0.18289 0.0
C353 C 0.58266 0.19634 0.37632 0.0
C354 C 0.59494 0.24733 0.42174 0.0
H355 H 0.57256 0.1486 0.22682 0.0
H356 H 0.57255 0.16404 0.42991 0.0
C357 C 0.60772 0.28888 0.35054 0.0
C358 C 0.3852 0.29797 0.27046 0.0
C359 C 0.37254 0.26147 0.18928 0.0
H360 H 0.39014 0.31601 0.4459 0.0
C361 C 0.35486 0.21528 0.22331 0.0
H362 H 0.39874 0.33437 0.24607 0.0
C363 C 0.34976 0.20555 0.3353 0.0
C364 C 0.36234 0.24139 0.41734 0.0
H365 H 0.34471 0.18641 0.16328 0.0
H366 H 0.33585 0.16932 0.35729 0.0
C367 C 0.38005 0.28805 0.3843 0.0
C368 C 0.00658 0.20554 0.70796 0.0
C369 C 0.01439 0.26548 0.70827 0.0
H370 H 0.9728 0.143 0.70631 0.0
C371 C -0.00661 0.30932 0.71333 0.0
H372 H 0.0224 0.17097 0.7046 0.0
C373 C 0.96498 0.29344 0.71203 0.0
C374 C 0.95717 0.23348 0.70844 0.0
H375 H -0.00112 0.35595 0.71333 0.0
H376 H 0.94916 0.32803 0.71167 0.0
C377 C 0.97822 0.18964 0.70939 0.0
C378 C 0.96489 0.69606 0.2376 0.0
C379 C 0.95592 0.7553 0.23961 0.0
H380 H -1e-05 0.63659 0.23816 0.0
C381 C 0.97613 0.80093 0.23812 0.0
H382 H 0.94974 0.66014 0.2385 0.0
C383 C 0.00478 0.78756 0.24044 0.0
C384 C 0.01373 0.72837 0.24143 0.0
H385 H 0.96982 0.84708 0.24002 0.0
H386 H 0.01991 0.82348 0.2433 0.0
C387 C -0.0064 0.6827 0.23705 0.0
C388 C 0.50474 0.71127 0.21544 0.0
C389 C 0.5136 0.77054 0.21428 0.0
H390 H 0.46988 0.65145 0.21562 0.0
C391 C 0.49339 0.81604 0.21824 0.0
H392 H 0.51993 0.67547 0.21292 0.0
C393 C 0.4647 0.80243 0.21738 0.0
C394 C 0.45583 0.74312 0.21544 0.0
H395 H 0.49971 0.8622 0.21703 0.0
H396 H 0.4495 0.83823 0.21614 0.0
C397 C 0.47611 0.69766 0.21743 0.0
C398 C 0.47791 0.30953 0.74787 0.0
C399 C 0.45697 0.26541 0.74849 0.0
H400 H 0.52205 0.32875 0.75228 0.0
C401 C 0.46493 0.20557 0.74403 0.0
H402 H 0.47237 0.35608 0.7516 0.0
C403 C 0.49338 0.19008 0.74212 0.0
C404 C 0.51428 0.23416 0.7474 0.0
H405 H 0.4492 0.17078 0.74413 0.0
H406 H 0.49899 0.14352 0.74143 0.0
C407 C 0.50632 0.294 0.74867 0.0
loop_
_geom_bond_atom_site_label_1
_geom_bond_atom_site_label_2
_geom_bond_distance
_geom_bond_site_symmetry_2
_ccdc_geom_bond_type
O0 Mg1 1.990 . S
O0 C14 1.253 . S
Mg1 O0 1.990 . S
Mg1 O4 2.180 . S
Mg1 O5 2.117 . S
Mg1 O19 2.030 . S
O2 Mg3 2.072 . S
O2 C14 1.260 . S
Mg3 O2 2.072 . S
Mg3 O4 2.099 . S
Mg3 O6 2.079 . S
Mg3 O7 2.072 . S
Mg3 O9 2.099 . S
Mg3 O20 2.079 . S
O4 Mg1 2.180 . S
O4 Mg3 2.099 . S
O4 C15 1.279 . S
O5 Mg1 2.117 . S
O5 C15 1.250 . S
O6 Mg3 2.079 . S
O6 C16 1.264 . S
O7 Mg3 2.072 . S
O7 C17 1.260 . S
Mg8 O9 2.180 . S
Mg8 O10 2.030 . S
Mg8 O11 1.990 . S
Mg8 O12 2.117 . S
O9 Mg3 2.099 . S
O9 Mg8 2.180 . S
O9 C18 1.279 . S
O10 Mg8 2.030 . S
O10 C16 1.248 . S
O11 Mg8 1.990 . S
O11 C17 1.253 . S
O12 Mg8 2.117 . S
O12 C18 1.250 . S
C13 O19 1.248 . S
C13 O20 1.264 . S
C14 O0 1.253 . S
C14 O2 1.260 . S
C15 O4 1.279 . S
C15 O5 1.250 . S
C16 O6 1.264 . S
C16 O10 1.248 . S
C17 O7 1.260 . S
C17 O11 1.253 . S
C18 O9 1.279 . S
C18 O12 1.250 . S
O19 Mg1 2.030 . S
O19 C13 1.248 . S
O20 Mg3 2.079 . S
O20 C13 1.264 . S
O21 Mg22 1.990 . S
O21 C35 1.253 . S
Mg22 O21 1.990 . S
Mg22 O25 2.180 . S
Mg22 O26 2.117 . S
Mg22 O40 2.030 . S
O23 Mg24 2.072 . S
O23 C35 1.260 . S
Mg24 O23 2.072 . S
Mg24 O25 2.099 . S
Mg24 O27 2.079 . S
Mg24 O28 2.072 . S
Mg24 O30 2.099 . S
Mg24 O41 2.079 . S
O25 Mg22 2.180 . S
O25 Mg24 2.099 . S
O25 C36 1.279 . S
O26 Mg22 2.117 . S
O26 C36 1.250 . S
O27 Mg24 2.079 . S
O27 C37 1.264 . S
O28 Mg24 2.072 . S
O28 C38 1.260 . S
Mg29 O30 2.180 . S
Mg29 O31 2.030 . S
Mg29 O32 1.990 . S
Mg29 O33 2.117 . S
O30 Mg24 2.099 . S
O30 Mg29 2.180 . S
O30 C39 1.279 . S
O31 Mg29 2.030 . S
O31 C37 1.248 . S
O32 Mg29 1.990 . S
O32 C38 1.253 . S
O33 Mg29 2.117 . S
O33 C39 1.250 . S
C34 O40 1.248 . S
C34 O41 1.264 . S
C35 O21 1.253 . S
C35 O23 1.260 . S
C36 O25 1.279 . S
C36 O26 1.250 . S
C37 O27 1.264 . S
C37 O31 1.248 . S
C38 O28 1.260 . S
C38 O32 1.253 . S
C39 O30 1.279 . S
C39 O33 1.250 . S
O40 Mg22 2.030 . S
O40 C34 1.248 . S
O41 Mg24 2.079 . S
O41 C34 1.264 . S
O42 Mg43 1.990 . S
O42 C56 1.253 . S
Mg43 O42 1.990 . S
Mg43 O46 2.180 . S
Mg43 O47 2.117 . S
Mg43 O61 2.030 . S
O44 Mg45 2.072 . S
O44 C56 1.260 . S
Mg45 O44 2.072 . S
Mg45 O46 2.099 . S
Mg45 O48 2.079 . S
Mg45 O49 2.072 . S
Mg45 O51 2.099 . S
Mg45 O62 2.079 . S
O46 Mg43 2.180 . S
O46 Mg45 2.099 . S
O46 C57 1.279 . S
O47 Mg43 2.117 . S
O47 C57 1.250 . S
O48 Mg45 2.079 . S
O48 C58 1.264 . S
O49 Mg45 2.072 . S
O49 C59 1.260 . S
Mg50 O51 2.180 . S
Mg50 O52 2.030 . S
Mg50 O53 1.990 . S
Mg50 O54 2.117 . S
O51 Mg45 2.099 . S
O51 Mg50 2.180 . S
O51 C60 1.279 . S
O52 Mg50 2.030 . S
O52 C58 1.248 . S
O53 Mg50 1.990 . S
O53 C59 1.253 . S
O54 Mg50 2.117 . S
O54 C60 1.250 . S
C55 O61 1.248 . S
C55 O62 1.264 . S
C56 O42 1.253 . S
C56 O44 1.260 . S
C57 O46 1.279 . S
C57 O47 1.250 . S
C58 O48 1.264 . S
C58 O52 1.248 . S
C59 O49 1.260 . S
C59 O53 1.253 . S
C60 O51 1.279 . S
C60 O54 1.250 . S
O61 Mg43 2.030 . S
O61 C55 1.248 . S
O62 Mg45 2.079 . S
O62 C55 1.264 . S
O63 Mg64 1.990 . S
O63 C77 1.253 . S
Mg64 O63 1.990 . S
Mg64 O67 2.180 . S
Mg64 O68 2.117 . S
Mg64 O82 2.030 . S
O65 Mg66 2.072 . S
O65 C77 1.260 . S
Mg66 O65 2.072 . S
Mg66 O67 2.099 . S
Mg66 O69 2.079 . S
Mg66 O70 2.072 . S
Mg66 O72 2.099 . S
Mg66 O83 2.079 . S
O67 Mg64 2.180 . S
O67 Mg66 2.099 . S
O67 C78 1.279 . S
O68 Mg64 2.117 . S
O68 C78 1.250 . S
O69 Mg66 2.079 . S
O69 C79 1.264 . S
O70 Mg66 2.072 . S
O70 C80 1.260 . S
Mg71 O72 2.180 . S
Mg71 O73 2.030 . S
Mg71 O74 1.990 . S
Mg71 O75 2.117 . S
O72 Mg66 2.099 . S
O72 Mg71 2.180 . S
O72 C81 1.279 . S
O73 Mg71 2.030 . S
O73 C79 1.248 . S
O74 Mg71 1.990 . S
O74 C80 1.253 . S
O75 Mg71 2.117 . S
O75 C81 1.250 . S
C76 O82 1.248 . S
C76 O83 1.264 . S
C77 O63 1.253 . S
C77 O65 1.260 . S
C78 O67 1.279 . S
C78 O68 1.250 . S
C79 O69 1.264 . S
C79 O73 1.248 . S
C80 O70 1.260 . S
C80 O74 1.253 . S
C81 O72 1.279 . S
C81 O75 1.250 . S
O82 Mg64 2.030 . S
O82 C76 1.248 . S
O83 Mg66 2.079 . S
O83 C76 1.264 . S
O84 Mg85 1.990 . S
O84 C98 1.253 . S
Mg85 O84 1.990 . S
Mg85 O88 2.180 . S
Mg85 O89 2.117 . S
Mg85 O103 2.030 . S
O86 Mg87 2.072 . S
O86 C98 1.260 . S
Mg87 O86 2.072 . S
Mg87 O88 2.099 . S
Mg87 O90 2.079 . S
Mg87 O91 2.072 1_554 S
Mg87 O93 2.099 . S
Mg87 O104 2.079 . S
O88 Mg85 2.180 . S
O88 Mg87 2.099 . S
O88 C99 1.279 . S
O89 Mg85 2.117 . S
O89 C99 1.250 . S
O90 Mg87 2.079 . S
O90 C100 1.264 1_554 S
O91 Mg87 2.072 1_556 S
O91 C101 1.260 . S
Mg92 O93 2.180 1_556 S
Mg92 O94 2.030 . S
Mg92 O95 1.990 . S
Mg92 O96 2.117 . S
O93 Mg87 2.099 . S
O93 Mg92 2.180 1_554 S
O93 C102 1.279 . S
O94 Mg92 2.030 . S
O94 C100 1.248 . S
O95 Mg92 1.990 . S
O95 C101 1.253 . S
O96 Mg92 2.117 . S
O96 C102 1.250 1_556 S
C97 O103 1.248 . S
C97 O104 1.264 . S
C98 O84 1.253 . S
C98 O86 1.260 . S
C99 O88 1.279 . S
C99 O89 1.250 . S
C100 O90 1.264 1_556 S
C100 O94 1.248 . S
C101 O91 1.260 . S
C101 O95 1.253 . S
C102 O93 1.279 . S
C102 O96 1.250 1_554 S
O103 Mg85 2.030 . S
O103 C97 1.248 . S
O104 Mg87 2.079 . S
O104 C97 1.264 . S
O105 Mg106 1.990 . S
O105 C119 1.253 . S
Mg106 O105 1.990 . S
Mg106 O109 2.180 1_556 S
Mg106 O110 2.117 . S
Mg106 O124 2.030 . S
O107 Mg108 2.072 1_556 S
O107 C119 1.260 . S
Mg108 O107 2.072 1_554 S
Mg108 O109 2.099 . S
Mg108 O111 2.079 . S
Mg108 O112 2.072 . S
Mg108 O114 2.099 . S
Mg108 O125 2.079 . S
O109 Mg106 2.180 1_554 S
O109 Mg108 2.099 . S
O109 C120 1.279 . S
O110 Mg106 2.117 . S
O110 C120 1.250 1_556 S
O111 Mg108 2.079 . S
O111 C121 1.264 . S
O112 Mg108 2.072 . S
O112 C122 1.260 . S
Mg113 O114 2.180 . S
Mg113 O115 2.030 . S
Mg113 O116 1.990 . S
Mg113 O117 2.117 . S
O114 Mg108 2.099 . S
O114 Mg113 2.180 . S
O114 C123 1.279 . S
O115 Mg113 2.030 . S
O115 C121 1.248 . S
O116 Mg113 1.990 . S
O116 C122 1.253 . S
O117 Mg113 2.117 . S
O117 C123 1.250 . S
C118 O124 1.248 . S
C118 O125 1.264 1_556 S
C119 O105 1.253 . S
C119 O107 1.260 . S
C120 O109 1.279 . S
C120 O110 1.250 1_554 S
C121 O111 1.264 . S
C121 O115 1.248 . S
C122 O112 1.260 . S
C122 O116 1.253 . S
C123 O114 1.279 . S
C123 O117 1.250 . S
O124 Mg106 2.030 . S
O124 C118 1.248 . S
O125 Mg108 2.079 . S
O125 C118 1.264 1_554 S
O126 Mg127 1.990 . S
O126 C140 1.253 . S
Mg127 O126 1.990 . S
Mg127 O130 2.180 1_554 S
Mg127 O131 2.117 . S
Mg127 O145 2.030 . S
O128 Mg129 2.072 1_554 S
O128 C140 1.260 . S
Mg129 O128 2.072 1_556 S
Mg129 O130 2.099 . S
Mg129 O132 2.079 . S
Mg129 O133 2.072 . S
Mg129 O135 2.099 . S
Mg129 O146 2.079 . S
O130 Mg127 2.180 1_556 S
O130 Mg129 2.099 . S
O130 C141 1.279 . S
O131 Mg127 2.117 . S
O131 C141 1.250 1_554 S
O132 Mg129 2.079 . S
O132 C142 1.264 . S
O133 Mg129 2.072 . S
O133 C143 1.260 . S
Mg134 O135 2.180 . S
Mg134 O136 2.030 . S
Mg134 O137 1.990 . S
Mg134 O138 2.117 . S
O135 Mg129 2.099 . S
O135 Mg134 2.180 . S
O135 C144 1.279 . S
O136 Mg134 2.030 . S
O136 C142 1.248 . S
O137 Mg134 1.990 . S
O137 C143 1.253 . S
O138 Mg134 2.117 . S
O138 C144 1.250 . S
C139 O145 1.248 . S
C139 O146 1.264 1_554 S
C140 O126 1.253 . S
C140 O128 1.260 . S
C141 O130 1.279 . S
C141 O131 1.250 1_556 S
C142 O132 1.264 . S
C142 O136 1.248 . S
C143 O133 1.260 . S
C143 O137 1.253 . S
C144 O135 1.279 . S
C144 O138 1.250 . S
O145 Mg127 2.030 . S
O145 C139 1.248 . S
O146 Mg129 2.079 . S
O146 C139 1.264 1_556 S
O147 Mg148 1.990 . S
O147 C161 1.253 . S
Mg148 O147 1.990 . S
Mg148 O151 2.180 1_554 S
Mg148 O152 2.117 . S
Mg148 O166 2.030 . S
O149 Mg150 2.072 1_554 S
O149 C161 1.260 . S
Mg150 O149 2.072 1_556 S
Mg150 O151 2.099 . S
Mg150 O153 2.079 . S
Mg150 O154 2.072 . S
Mg150 O156 2.099 . S
Mg150 O167 2.079 . S
O151 Mg148 2.180 1_556 S
O151 Mg150 2.099 . S
O151 C162 1.279 . S
O152 Mg148 2.117 . S
O152 C162 1.250 1_554 S
O153 Mg150 2.079 . S
O153 C163 1.264 . S
O154 Mg150 2.072 . S
O154 C164 1.260 . S
Mg155 O156 2.180 . S
Mg155 O157 2.030 . S
Mg155 O158 1.990 . S
Mg155 O159 2.117 . S
O156 Mg150 2.099 . S
O156 Mg155 2.180 . S
O156 C165 1.279 . S
O157 Mg155 2.030 . S
O157 C163 1.248 . S
O158 Mg155 1.990 . S
O158 C164 1.253 . S
O159 Mg155 2.117 . S
O159 C165 1.250 . S
C160 O166 1.248 . S
C160 O167 1.264 1_554 S
C161 O147 1.253 . S
C161 O149 1.260 . S
C162 O151 1.279 . S
C162 O152 1.250 1_556 S
C163 O153 1.264 . S
C163 O157 1.248 . S
C164 O154 1.260 . S
C164 O158 1.253 . S
C165 O156 1.279 . S
C165 O159 1.250 . S
O166 Mg148 2.030 . S
O166 C160 1.248 . S
O167 Mg150 2.079 . S
O167 C160 1.264 1_556 S
C168 C169 1.387 . S
C168 H172 0.950 . S
C168 C177 1.390 . S
C169 C168 1.387 . S
C169 C171 1.387 . S
H170 C177 0.950 . S
C171 C169 1.387 . S
C171 C173 1.390 . S
C171 H175 0.950 . S
H172 C168 0.950 . S
C173 C171 1.390 . S
C173 C174 1.387 . S
C173 H176 0.950 . S
C174 C173 1.387 . S
C174 C177 1.387 . S
H175 C171 0.950 . S
H176 C173 0.950 . S
C177 C168 1.390 . S
C177 H170 0.950 . S
C177 C174 1.387 . S
C178 C179 1.387 . S
C178 H182 0.950 . S
C178 C187 1.390 . S
C179 C178 1.387 . S
C179 C181 1.387 . S
H180 C187 0.950 . S
C181 C179 1.387 . S
C181 C183 1.390 . S
C181 H185 0.950 . S
H182 C178 0.950 . S
C183 C181 1.390 . S
C183 C184 1.387 . S
C183 H186 0.950 . S
C184 C183 1.387 . S
C184 C187 1.387 . S
H185 C181 0.950 . S
H186 C183 0.950 . S
C187 C178 1.390 . S
C187 H180 0.950 . S
C187 C184 1.387 . S
C188 C189 1.387 . S
C188 H192 0.950 . S
C188 C197 1.390 . S
C189 C188 1.387 . S
C189 C191 1.387 . S
H190 C197 0.950 . S
C191 C189 1.387 . S
C191 C193 1.390 . S
C191 H195 0.950 . S
H192 C188 0.950 . S
C193 C191 1.390 . S
C193 C194 1.387 . S
C193 H196 0.950 . S
C194 C193 1.387 . S
C194 C197 1.387 . S
H195 C191 0.950 . S
H196 C193 0.950 . S
C197 C188 1.390 . S
C197 H190 0.950 . S
C197 C194 1.387 . S
C198 C199 1.387 . S
C198 H202 0.950 . S
C198 C207 1.390 . S
C199 C198 1.387 . S
C199 C201 1.387 . S
H200 C207 0.950 . S
C201 C199 1.387 . S
C201 C203 1.390 . S
C201 H205 0.950 . S
H202 C198 0.950 . S
C203 C201 1.390 . S
C203 C204 1.387 . S
C203 H206 0.950 . S
C204 C203 1.387 . S
C204 C207 1.387 . S
H205 C201 0.950 . S
H206 C203 0.950 . S
C207 C198 1.390 . S
C207 H200 0.950 . S
C207 C204 1.387 . S
C208 C209 1.387 . S
C208 H212 0.950 . S
C208 C217 1.390 1_565 S
C209 C208 1.387 . S
C209 C211 1.387 . S
H210 C217 0.950 . S
C211 C209 1.387 . S
C211 C213 1.390 1_565 S
C211 H215 0.950 . S
H212 C208 0.950 . S
C213 C211 1.390 1_545 S
C213 C214 1.387 . S
C213 H216 0.950 . S
C214 C213 1.387 . S
C214 C217 1.387 . S
H215 C211 0.950 . S
H216 C213 0.950 . S
C217 C208 1.390 1_545 S
C217 H210 0.950 . S
C217 C214 1.387 . S
C218 C219 1.387 . S
C218 H222 0.950 . S
C218 C227 1.390 . S
C219 C218 1.387 . S
C219 C221 1.387 . S
H220 C227 0.950 . S
C221 C219 1.387 . S
C221 C223 1.390 . S
C221 H225 0.950 . S
H222 C218 0.950 . S
C223 C221 1.390 . S
C223 C224 1.387 . S
C223 H226 0.950 . S
C224 C223 1.387 . S
C224 C227 1.387 . S
H225 C221 0.950 . S
H226 C223 0.950 . S
C227 C218 1.390 . S
C227 H220 0.950 . S
C227 C224 1.387 . S
C228 C229 1.387 . S
C228 H232 0.950 . S
C228 C237 1.390 1_565 S
C229 C228 1.387 . S
C229 C231 1.387 . S
H230 C237 0.950 . S
C231 C229 1.387 . S
C231 C233 1.390 1_565 S
C231 H235 0.950 . S
H232 C228 0.950 . S
C233 C231 1.390 1_545 S
C233 C234 1.387 . S
C233 H236 0.950 . S
C234 C233 1.387 . S
C234 C237 1.387 . S
H235 C231 0.950 . S
H236 C233 0.950 . S
C237 C228 1.390 1_545 S
C237 H230 0.950 . S
C237 C234 1.387 . S
C238 C239 1.387 . S
C238 H242 0.950 . S
C238 C247 1.390 . S
C239 C238 1.387 . S
C239 C241 1.387 . S
H240 C247 0.950 . S
C241 C239 1.387 . S
C241 C243 1.390 . S
C241 H245 0.950 . S
H242 C238 0.950 . S
C243 C241 1.390 . S
C243 C244 1.387 . S
C243 H246 0.950 . S
C244 C243 1.387 . S
C244 C247 1.387 . S
H245 C241 0.950 . S
H246 C243 0.950 . S
C247 C238 1.390 . S
C247 H240 0.950 . S
C247 C244 1.387 . S
C248 C249 1.387 . S
C248 H252 0.950 . S
C248 C257 1.390 1_554 S
C249 C248 1.387 . S
C249 C251 1.387 . S
H250 C257 0.950 . S
C251 C249 1.387 . S
C251 C253 1.390 1_554 S
C251 H255 0.950 . S
H252 C248 0.950 . S
C253 C251 1.390 1_556 S
C253 C254 1.387 . S
C253 H256 0.950 . S
C254 C253 1.387 . S
C254 C257 1.387 . S
H255 C251 0.950 . S
H256 C253 0.950 . S
C257 C248 1.390 1_556 S
C257 H250 0.950 . S
C257 C254 1.387 . S
C258 C259 1.387 . S
C258 H262 0.950 . S
C258 C267 1.390 1_564 S
C259 C258 1.387 . S
C259 C261 1.387 . S
H260 C267 0.950 . S
C261 C259 1.387 . S
C261 C263 1.390 1_564 S
C261 H265 0.950 . S
H262 C258 0.950 . S
C263 C261 1.390 1_546 S
C263 C264 1.387 . S
C263 H266 0.950 . S
C264 C263 1.387 . S
C264 C267 1.387 . S
H265 C261 0.950 . S
H266 C263 0.950 . S
C267 C258 1.390 1_546 S
C267 H260 0.950 . S
C267 C264 1.387 . S
C268 C269 1.387 . S
C268 H272 0.950 . S
C268 C277 1.390 1_556 S
C269 C268 1.387 . S
C269 C271 1.387 . S
H270 C277 0.950 . S
C271 C269 1.387 . S
C271 C273 1.390 1_556 S
C271 H275 0.950 . S
H272 C268 0.950 . S
C273 C271 1.390 1_554 S
C273 C274 1.387 . S
C273 H276 0.950 . S
C274 C273 1.387 . S
C274 C277 1.387 . S
H275 C271 0.950 . S
H276 C273 0.950 . S
C277 C268 1.390 1_554 S
C277 H270 0.950 . S
C277 C274 1.387 . S
C278 C279 1.387 . S
C278 H282 0.950 . S
C278 C287 1.390 1_546 S
C279 C278 1.387 . S
C279 C281 1.387 . S
H280 C287 0.950 . S
C281 C279 1.387 . S
C281 C283 1.390 1_546 S
C281 H285 0.950 . S
H282 C278 0.950 . S
C283 C281 1.390 1_564 S
C283 C284 1.387 . S
C283 H286 0.950 . S
C284 C283 1.387 . S
C284 C287 1.387 . S
H285 C281 0.950 . S
H286 C283 0.950 . S
C287 C278 1.390 1_564 S
C287 H280 0.950 . S
C287 C284 1.387 . S
C288 C289 1.387 . S
C288 H292 0.950 . S
C288 C297 1.390 1_554 S
C289 C288 1.387 . S
C289 C291 1.387 . S
H290 C297 0.950 . S
C291 C289 1.387 . S
C291 C293 1.390 . S
C291 H295 0.950 . S
H292 C288 0.950 . S
C293 C291 1.390 . S
C293 C294 1.387 1_554 S
C293 H296 0.950 1_554 S
C294 C293 1.387 1_556 S
C294 C297 1.387 . S
H295 C291 0.950 . S
H296 C293 0.950 1_556 S
C297 C288 1.390 1_556 S
C297 H290 0.950 . S
C297 C294 1.387 . S
C298 C299 1.387 . S
C298 H302 0.950 . S
C298 C307 1.390 . S
C299 C298 1.387 . S
C299 C301 1.387 . S
H300 C307 0.950 1_556 S
C301 C299 1.387 . S
C301 C303 1.390 . S
C301 H305 0.950 . S
H302 C298 0.950 . S
C303 C301 1.390 . S
C303 C304 1.387 1_554 S
C303 H306 0.950 1_554 S
C304 C303 1.387 1_556 S
C304 C307 1.387 1_556 S
H305 C301 0.950 . S
H306 C303 0.950 1_556 S
C307 C298 1.390 . S
C307 H300 0.950 1_554 S
C307 C304 1.387 1_554 S
C308 C309 1.387 1_556 S
C308 H312 0.950 1_556 S
C308 C317 1.390 . S
C309 C308 1.387 1_554 S
C309 C311 1.387 1_554 S
H310 C317 0.950 . S
C311 C309 1.387 1_556 S
C311 C313 1.390 . S
C311 H315 0.950 1_556 S
H312 C308 0.950 1_554 S
C313 C311 1.390 . S
C313 C314 1.387 . S
C313 H316 0.950 . S
C314 C313 1.387 . S
C314 C317 1.387 . S
H315 C311 0.950 1_554 S
H316 C313 0.950 . S
C317 C308 1.390 . S
C317 H310 0.950 . S
C317 C314 1.387 . S
C318 C319 1.387 . S
C318 H322 0.950 . S
C318 C327 1.390 . S
C319 C318 1.387 . S
C319 C321 1.387 . S
H320 C327 0.950 1_554 S
C321 C319 1.387 . S
C321 C323 1.390 . S
C321 H325 0.950 . S
H322 C318 0.950 . S
C323 C321 1.390 . S
C323 C324 1.387 1_556 S
C323 H326 0.950 1_556 S
C324 C323 1.387 1_554 S
C324 C327 1.387 1_554 S
H325 C321 0.950 . S
H326 C323 0.950 1_554 S
C327 C318 1.390 . S
C327 H320 0.950 1_556 S
C327 C324 1.387 1_556 S
C328 C329 1.387 . S
C328 H332 0.950 . S
C328 C337 1.390 . S
C329 C328 1.387 . S
C329 C331 1.387 . S
H330 C337 0.950 . S
C331 C329 1.387 . S
C331 C333 1.390 . S
C331 H335 0.950 . S
H332 C328 0.950 . S
C333 C331 1.390 . S
C333 C334 1.387 . S
C333 H336 0.950 . S
C334 C333 1.387 . S
C334 C337 1.387 . S
H335 C331 0.950 . S
H336 C333 0.950 . S
C337 C328 1.390 . S
C337 H330 0.950 . S
C337 C334 1.387 . S
C338 C339 1.387 . S
C338 H342 0.950 . S
C338 C347 1.390 . S
C339 C338 1.387 . S
C339 C341 1.387 . S
H340 C347 0.950 . S
C341 C339 1.387 . S
C341 C343 1.390 . S
C341 H345 0.950 . S
H342 C338 0.950 . S
C343 C341 1.390 . S
C343 C344 1.387 . S
C343 H346 0.950 . S
C344 C343 1.387 . S
C344 C347 1.387 . S
H345 C341 0.950 . S
H346 C343 0.950 . S
C347 C338 1.390 . S
C347 H340 0.950 . S
C347 C344 1.387 . S
C348 C349 1.387 . S
C348 H352 0.950 . S
C348 C357 1.390 . S
C349 C348 1.387 . S
C349 C351 1.387 . S
H350 C357 0.950 . S
C351 C349 1.387 . S
C351 C353 1.390 . S
C351 H355 0.950 . S
H352 C348 0.950 . S
C353 C351 1.390 . S
C353 C354 1.387 . S
C353 H356 0.950 . S
C354 C353 1.387 . S
C354 C357 1.387 . S
H355 C351 0.950 . S
H356 C353 0.950 . S
C357 C348 1.390 . S
C357 H350 0.950 . S
C357 C354 1.387 . S
C358 C359 1.387 . S
C358 H362 0.950 . S
C358 C367 1.390 . S
C359 C358 1.387 . S
C359 C361 1.387 . S
H360 C367 0.950 . S
C361 C359 1.387 . S
C361 C363 1.390 . S
C361 H365 0.950 . S
H362 C358 0.950 . S
C363 C361 1.390 . S
C363 C364 1.387 . S
C363 H366 0.950 . S
C364 C363 1.387 . S
C364 C367 1.387 . S
H365 C361 0.950 . S
H366 C363 0.950 . S
C367 C358 1.390 . S
C367 H360 0.950 . S
C367 C364 1.387 . S
C368 C369 1.387 . S
C368 H372 0.950 . S
C368 C377 1.390 1_455 S
C369 C368 1.387 . S
C369 C371 1.387 . S
H370 C377 0.950 . S
C371 C369 1.387 . S
C371 C373 1.390 1_455 S
C371 H375 0.950 . S
H372 C368 0.950 . S
C373 C371 1.390 1_655 S
C373 C374 1.387 . S
C373 H376 0.950 . S
C374 C373 1.387 . S
C374 C377 1.387 . S
H375 C371 0.950 . S
H376 C373 0.950 . S
C377 C368 1.390 1_655 S
C377 H370 0.950 . S
C377 C374 1.387 . S
C378 C379 1.387 . S
C378 H382 0.950 . S
C378 C387 1.390 1_655 S
C379 C378 1.387 . S
C379 C381 1.387 . S
H380 C387 0.950 . S
C381 C379 1.387 . S
C381 C383 1.390 1_655 S
C381 H385 0.950 . S
H382 C378 0.950 . S
C383 C381 1.390 1_455 S
C383 C384 1.387 . S
C383 H386 0.950 . S
C384 C383 1.387 . S
C384 C387 1.387 . S
H385 C381 0.950 . S
H386 C383 0.950 . S
C387 C378 1.390 1_455 S
C387 H380 0.950 . S
C387 C384 1.387 . S
C388 C389 1.388 . S
C388 H392 0.950 . S
C388 C397 1.390 . S
C389 C388 1.388 . S
C389 C391 1.387 1_554 S
H390 C397 0.950 . S
C391 C389 1.387 1_556 S
C391 C393 1.390 . S
C391 H395 0.950 . S
H392 C388 0.950 . S
C393 C391 1.390 . S
C393 C394 1.387 1_556 S
C393 H396 0.950 . S
C394 C393 1.387 1_554 S
C394 C397 1.388 . S
H395 C391 0.950 . S
H396 C393 0.950 . S
C397 C388 1.390 . S
C397 H390 0.950 . S
C397 C394 1.388 . S
C398 C399 1.387 1_554 S
C398 H402 0.950 . S
C398 C407 1.390 . S
C399 C398 1.387 1_556 S
C399 C401 1.388 . S
H400 C407 0.950 . S
C401 C399 1.388 . S
C401 C403 1.390 . S
C401 H405 0.950 . S
H402 C398 0.950 . S
C403 C401 1.390 . S
C403 C404 1.388 . S
C403 H406 0.950 . S
C404 C403 1.388 . S
C404 C407 1.387 1_556 S
H405 C401 0.950 . S
H406 C403 0.950 . S
C407 C398 1.390 . S
C407 H400 0.950 . S
C407 C404 1.387 1_554 S
C169 C14 1.593 . S
C174 C164 1.593 . S
C179 C143 1.596 . S
C184 C38 1.596 . S
C189 C122 1.593 . S
C194 C59 1.593 . S
C199 C98 1.596 . S
C204 C80 1.596 . S
C209 C60 1.449 . S
C214 C15 1.449 . S
C219 C39 1.449 . S
C224 C81 1.449 . S
C229 C78 1.121 . S
C234 C36 1.121 . S
C239 C57 1.121 . S
C244 C18 1.121 . S
C249 C99 1.453 . S
C254 C144 1.453 . S
C259 C123 1.449 . S
C264 C165 1.449 . S
C269 C162 1.121 . S
C274 C120 1.121 . S
C279 C141 1.121 . S
C284 C102 1.121 . S
C289 C17 1.287 . S
C294 C13 1.304 . S
C299 C35 1.285 . S
C304 C37 1.300 . S
C309 C58 1.304 . S
C314 C56 1.289 . S
C319 C77 1.285 . S
C324 C79 1.300 . S
C329 C97 1.302 . S
C334 C101 1.287 . S
C339 C119 1.288 . S
C344 C121 1.303 . S
C349 C140 1.285 . S
C354 C142 1.300 . S
C359 C161 1.288 . S
C364 C163 1.303 . S
C369 C16 1.572 . S
C374 C34 1.572 . S
C379 C76 1.574 . S
C384 C55 1.574 . S
C389 C100 1.574 1_554 S
C394 C118 1.574 1_554 S
C399 C160 1.572 1_556 S
C404 C139 1.572 1_556 S
