# Generated by pormake.
# Topology bsn, (6)-cn, num edge types: 1
# Building blocks:
#     Node 0, Type 0, BuildingBlock: VOLQOD_clean_sbu_1, # of connection points: 6
#     Node 1, Type 0, BuildingBlock: VOLQOD_clean_sbu_1, # of connection points: 6
#     Node 2, Type 0, BuildingBlock: VOLQOD_clean_sbu_1, # of connection points: 6
#     Node 3, Type 0, BuildingBlock: VOLQOD_clean_sbu_1, # of connection points: 6
#     Edge 4, Type (0, 0), BuildingBlock: TEMPAE_clean_linker_10, # of connection points: 2
#     Edge 5, Type (0, 0), BuildingBlock: TEMPAE_clean_linker_10, # of connection points: 2
#     Edge 6, Type (0, 0), BuildingBlock: TEMPAE_clean_linker_10, # of connection points: 2
#     Edge 7, Type (0, 0), BuildingBlock: TEMPAE_clean_linker_10, # of connection points: 2
#     Edge 8, Type (0, 0), BuildingBlock: TEMPAE_clean_linker_10, # of connection points: 2
#     Edge 9, Type (0, 0), BuildingBlock: TEMPAE_clean_linker_10, # of connection points: 2
#     Edge 10, Type (0, 0), BuildingBlock: TEMPAE_clean_linker_10, # of connection points: 2
#     Edge 11, Type (0, 0), BuildingBlock: TEMPAE_clean_linker_10, # of connection points: 2
#     Edge 12, Type (0, 0), BuildingBlock: TEMPAE_clean_linker_10, # of connection points: 2
#     Edge 13, Type (0, 0), BuildingBlock: TEMPAE_clean_linker_10, # of connection points: 2
#     Edge 14, Type (0, 0), BuildingBlock: TEMPAE_clean_linker_10, # of connection points: 2
#     Edge 15, Type (0, 0), BuildingBlock: TEMPAE_clean_linker_10, # of connection points: 2
# Relax obj value: 0.019
# Max RMSD: 0.063
# Mean RMSD: 0.062
data_MOF--net-bsn--node1-VOLQOD_clean_sbu_1--edge1-TEMPAE_clean_linker_10
_symmetry_space_group_name_H-M    P1
_symmetry_Int_Tables_number       1
_symmetry_cell_setting            triclinic
loop_
_symmetry_equiv_pos_as_xyz
'x, y, z'
_cell_length_a     33.368492
_cell_length_b     33.524293
_cell_length_c     17.38161
_cell_angle_alpha  90.21475
_cell_angle_beta   90.275533
_cell_angle_gamma 90.048048
loop_
_atom_site_label
_atom_site_type_symbol
_atom_site_fract_x
_atom_site_fract_y
_atom_site_fract_z
_atom_type_partial_charge
O0 O 0.05079 0.25308 0.53462 0.0
Zn1 Zn 0.05603 0.2713 0.42503 0.0
O2 O 0.01697 0.24489 0.36164 0.0
Zn3 Zn 0.04281 0.20343 0.30184 0.0
Zn4 Zn 0.97593 0.2233 0.4272 0.0
Zn5 Zn 0.9932 0.28329 0.29361 0.0
O6 O 0.02868 0.21057 0.18927 0.0
O7 O 0.01414 0.27539 0.18679 0.0
O8 O 0.11155 0.26308 0.38252 0.0
O9 O 0.10289 0.21062 0.30546 0.0
O10 O 0.02819 0.14844 0.34256 0.0
O11 O 0.98161 0.16405 0.42846 0.0
O12 O 0.91983 0.2358 0.38748 0.0
O13 O 0.04466 0.32971 0.42789 0.0
O14 O 0.93448 0.27234 0.28494 0.0
O15 O 0.00072 0.33983 0.3338 0.0
C16 C 0.01878 0.24585 0.572 0.0
C17 C 0.02244 0.24283 0.15215 0.0
C18 C 0.00308 0.13823 0.39412 0.0
C19 C 0.12543 0.23686 0.33656 0.0
C20 C 0.90916 0.2541 0.32651 0.0
C21 C 0.02216 0.35294 0.3894 0.0
O22 O 0.98546 0.23974 0.53748 0.0
O23 O 0.01867 0.73979 0.42877 0.0
Zn24 Zn 0.02812 0.72353 0.53889 0.0
O25 O 0.98714 0.74541 0.60458 0.0
Zn26 Zn 0.01112 0.784 0.67271 0.0
Zn27 Zn 0.948 0.77163 0.54145 0.0
Zn28 Zn 0.96129 0.70413 0.66425 0.0
O29 O 0.99039 0.77633 0.77969 0.0
O30 O 0.97551 0.71155 0.77669 0.0
O31 O 0.08426 0.73602 0.57858 0.0
O32 O 0.06984 0.77305 0.68108 0.0
O33 O 0.00357 0.84045 0.63285 0.0
O34 O 0.95918 0.83008 0.53946 0.0
O35 O 0.89236 0.76312 0.58332 0.0
O36 O 0.02232 0.66427 0.53741 0.0
O37 O 0.90123 0.7112 0.6608 0.0
O38 O 0.9758 0.64902 0.62349 0.0
C39 C 0.98545 0.74618 0.39422 0.0
C40 C 0.98199 0.74383 0.81407 0.0
C41 C 0.98186 0.85343 0.57775 0.0
C42 C 0.09506 0.75456 0.63947 0.0
C43 C 0.87855 0.73708 0.62942 0.0
C44 C 0.00085 0.63859 0.57187 0.0
O45 O 0.95345 0.75358 0.43157 0.0
O46 O 0.47671 0.7127 0.68861 0.0
Zn47 Zn 0.46254 0.70532 0.80081 0.0
O48 O 0.48796 0.74696 0.86132 0.0
Zn49 Zn 0.52931 0.72565 0.92731 0.0
Zn50 Zn 0.51129 0.7857 0.79382 0.0
Zn51 Zn 0.4487 0.77284 0.92425 0.0
O52 O 0.52004 0.74221 0.03749 0.0
O53 O 0.45458 0.75485 0.03389 0.0
O54 O 0.47757 0.65043 0.84163 0.0
O55 O 0.52389 0.66635 0.92875 0.0
O56 O 0.58521 0.73834 0.88769 0.0
O57 O 0.57006 0.77521 0.78563 0.0
O58 O 0.5033 0.8421 0.83413 0.0
O59 O 0.4024 0.71182 0.80348 0.0
O60 O 0.45922 0.83147 0.92698 0.0
O61 O 0.39309 0.7636 0.88173 0.0
C62 C 0.48254 0.74508 0.65173 0.0
C63 C 0.48674 0.74804 0.07164 0.0
C64 C 0.59559 0.75689 0.82698 0.0
C65 C 0.50264 0.64039 0.89381 0.0
C66 C 0.48157 0.85498 0.88908 0.0
C67 C 0.37949 0.73741 0.83506 0.0
O68 O 0.49031 0.77775 0.68666 0.0
O69 O 0.52732 0.21379 0.27761 0.0
Zn70 Zn 0.54148 0.20612 0.16549 0.0
O71 O 0.51604 0.24753 0.10513 0.0
Zn72 Zn 0.47477 0.22573 0.03909 0.0
Zn73 Zn 0.49255 0.28648 0.17265 0.0
Zn74 Zn 0.5554 0.27337 0.04246 0.0
O75 O 0.48399 0.24205 0.92904 0.0
O76 O 0.54933 0.25549 0.93256 0.0
O77 O 0.52653 0.15106 0.12478 0.0
O78 O 0.48026 0.16642 0.03748 0.0
O79 O 0.41882 0.23832 0.07861 0.0
O80 O 0.43373 0.27615 0.18001 0.0
O81 O 0.50081 0.34283 0.13293 0.0
O82 O 0.60158 0.2126 0.16278 0.0
O83 O 0.54511 0.33201 0.04045 0.0
O84 O 0.61106 0.26406 0.08456 0.0
C85 C 0.52106 0.24614 0.31476 0.0
C86 C 0.51719 0.24831 0.89486 0.0
C87 C 0.40829 0.25738 0.13887 0.0
C88 C 0.50152 0.14069 0.07256 0.0
C89 C 0.52274 0.3556 0.07833 0.0
C90 C 0.62459 0.23799 0.13113 0.0
O91 O 0.51305 0.27868 0.28012 0.0
C92 C 0.04225 0.4091 0.47645 0.0
C93 C 0.01938 0.39534 0.41366 0.0
C94 C 0.03863 0.44833 0.50359 0.0
C95 C 0.01156 0.47466 0.46702 0.0
C96 C 0.98857 0.46121 0.40327 0.0
C97 C 0.99273 0.42167 0.37732 0.0
C98 C 0.0638 0.46159 0.57153 0.0
C99 C 0.95956 0.48859 0.36261 0.0
C100 C 0.97878 0.56691 0.57828 0.0
C101 C 0.00405 0.59623 0.54759 0.0
C102 C 0.98064 0.5272 0.55223 0.0
C103 C 0.0084 0.51664 0.4942 0.0
C104 C 0.03408 0.54601 0.46336 0.0
C105 C 0.03164 0.58533 0.49042 0.0
C106 C 0.9529 0.49655 0.58664 0.0
C107 C 0.0642 0.53591 0.40163 0.0
H108 H 0.0629 0.38907 0.50518 0.0
H109 H 0.97484 0.41133 0.32901 0.0
H110 H 0.08335 0.48683 0.55465 0.0
H111 H 0.04417 0.47241 0.61851 0.0
H112 H 0.08299 0.43723 0.59427 0.0
H113 H 0.94358 0.47345 0.31447 0.0
H114 H 0.93706 0.50002 0.40397 0.0
H115 H 0.9758 0.51478 0.33944 0.0
H116 H 0.95729 0.57501 0.62219 0.0
H117 H 0.05133 0.60765 0.4661 0.0
H118 H 0.97066 0.47235 0.61367 0.0
H119 H 0.93428 0.48268 0.54073 0.0
H120 H 0.93275 0.50963 0.63071 0.0
H121 H 0.08547 0.51306 0.42315 0.0
H122 H 0.0816 0.56238 0.38288 0.0
H123 H 0.04866 0.52299 0.35075 0.0
C124 C 0.6697 0.75216 0.85045 0.0
C125 C 0.63728 0.7543 0.79917 0.0
C126 C 0.70922 0.74962 0.82305 0.0
C127 C 0.71617 0.74778 0.74267 0.0
C128 C 0.68338 0.74913 0.69089 0.0
C129 C 0.64443 0.75301 0.71974 0.0
C130 C 0.74354 0.74939 0.87994 0.0
C131 C 0.68935 0.74603 0.60496 0.0
C132 C 0.81746 0.77655 0.66067 0.0
C133 C 0.83621 0.73933 0.65345 0.0
C134 C 0.77869 0.77977 0.69103 0.0
C135 C 0.75771 0.74481 0.71233 0.0
C136 C 0.77611 0.70703 0.70309 0.0
C137 C 0.81544 0.70481 0.67499 0.0
C138 C 0.76051 0.82065 0.70179 0.0
C139 C 0.75421 0.669 0.72268 0.0
H140 H 0.66418 0.75323 0.91184 0.0
H141 H 0.61934 0.75406 0.67991 0.0
H142 H 0.76086 0.72133 0.87422 0.0
H143 H 0.76435 0.77437 0.86748 0.0
H144 H 0.73316 0.75222 0.94034 0.0
H145 H 0.66051 0.74587 0.57273 0.0
H146 H 0.70766 0.77145 0.5845 0.0
H147 H 0.70596 0.7183 0.59089 0.0
H148 H 0.83371 0.80335 0.64525 0.0
H149 H 0.82993 0.67601 0.66943 0.0
H150 H 0.75205 0.82503 0.76291 0.0
H151 H 0.73273 0.8233 0.66692 0.0
H152 H 0.78135 0.84492 0.68495 0.0
H153 H 0.74658 0.66877 0.7847 0.0
H154 H 0.77221 0.64198 0.70951 0.0
H155 H 0.7256 0.66734 0.68998 0.0
C156 C 0.49359 0.42453 0.08891 0.0
C157 C 0.52057 0.39798 0.05424 0.0
C158 C 0.4898 0.46396 0.06264 0.0
C159 C 0.51353 0.47709 0.00028 0.0
C160 C 0.54105 0.45059 0.96559 0.0
C161 C 0.54428 0.41146 -0.007 0.0
C162 C 0.46029 0.49153 0.10133 0.0
C163 C 0.56703 0.46351 0.89921 0.0
C164 C 0.48134 0.56845 0.88637 0.0
C165 C 0.50603 0.59815 0.91833 0.0
C166 C 0.48328 0.52889 0.91273 0.0
C167 C 0.51049 0.51887 0.97241 0.0
C168 C 0.53563 0.54861 0.00449 0.0
C169 C 0.53315 0.58777 0.97705 0.0
C170 C 0.45615 0.49783 0.87693 0.0
C171 C 0.56513 0.5391 0.06803 0.0
H172 H 0.47505 0.41441 0.13602 0.0
H173 H 0.56523 0.39128 0.96561 0.0
H174 H 0.47618 0.518 0.12491 0.0
H175 H 0.43813 0.5025 0.05861 0.0
H176 H 0.44394 0.4767 0.14887 0.0
H177 H 0.58668 0.43911 0.8781 0.0
H178 H 0.54796 0.47384 0.85079 0.0
H179 H 0.58618 0.48902 0.91702 0.0
H180 H 0.46024 0.57615 0.84124 0.0
H181 H 0.55239 0.61038 0.00237 0.0
H182 H 0.43702 0.48422 0.9218 0.0
H183 H 0.47437 0.47354 0.85139 0.0
H184 H 0.43649 0.51048 0.83139 0.0
H185 H 0.5491 0.52651 0.11819 0.0
H186 H 0.58224 0.56578 0.08739 0.0
H187 H 0.58669 0.51616 0.04807 0.0
C188 C 0.8352 0.25021 0.35059 0.0
C189 C 0.86728 0.25161 0.29902 0.0
C190 C 0.79544 0.24812 0.32353 0.0
C191 C 0.7879 0.24598 0.24325 0.0
C192 C 0.82035 0.24648 0.1912 0.0
C193 C 0.85956 0.24992 0.21968 0.0
C194 C 0.76153 0.24879 0.38067 0.0
C195 C 0.81372 0.24302 0.10538 0.0
C196 C 0.68725 0.20471 0.17704 0.0
C197 C 0.6671 0.23954 0.15505 0.0
C198 C 0.72682 0.20627 0.20484 0.0
C199 C 0.7461 0.24371 0.21327 0.0
C200 C 0.72574 0.27899 0.19153 0.0
C201 C 0.6867 0.27641 0.1615 0.0
C202 C 0.74801 0.1679 0.22494 0.0
C203 C 0.7449 0.31953 0.2014 0.0
H204 H 0.84116 0.25161 0.41191 0.0
H205 H 0.88439 0.25041 0.17967 0.0
H206 H 0.74124 0.27419 0.36809 0.0
H207 H 0.74351 0.2211 0.37539 0.0
H208 H 0.7724 0.25156 0.44097 0.0
H209 H 0.84232 0.24203 0.07298 0.0
H210 H 0.79633 0.21561 0.09199 0.0
H211 H 0.7959 0.26874 0.08452 0.0
H212 H 0.67211 0.17619 0.17204 0.0
H213 H 0.67094 0.30346 0.14569 0.0
H214 H 0.75611 0.16782 0.28688 0.0
H215 H 0.77632 0.16549 0.19199 0.0
H216 H 0.72932 0.14119 0.21245 0.0
H217 H 0.75393 0.32402 0.26237 0.0
H218 H 0.72447 0.34415 0.18436 0.0
H219 H 0.77246 0.32146 0.16622 0.0
C220 C 0.33435 0.25009 0.11511 0.0
C221 C 0.3665 0.25497 0.16641 0.0
C222 C 0.29479 0.24737 0.14225 0.0
C223 C 0.28754 0.24825 0.22257 0.0
C224 C 0.32005 0.2525 0.27449 0.0
C225 C 0.35901 0.25639 0.24574 0.0
C226 C 0.26075 0.24398 0.08509 0.0
C227 C 0.31377 0.25245 0.36052 0.0
C228 C 0.18529 0.27685 0.30035 0.0
C229 C 0.16765 0.23943 0.31208 0.0
C230 C 0.22395 0.28013 0.26959 0.0
C231 C 0.24599 0.24512 0.25271 0.0
C232 C 0.22867 0.20722 0.26644 0.0
C233 C 0.18935 0.20483 0.29462 0.0
C234 C 0.24092 0.32106 0.25379 0.0
C235 C 0.25172 0.16924 0.25174 0.0
H236 H 0.34009 0.24904 0.05379 0.0
H237 H 0.38385 0.25956 0.28574 0.0
H238 H 0.24429 0.21563 0.09396 0.0
H239 H 0.23912 0.26866 0.09425 0.0
H240 H 0.27131 0.24495 0.02461 0.0
H241 H 0.34244 0.25441 0.39308 0.0
H242 H 0.29461 0.27798 0.37749 0.0
H243 H 0.29793 0.2248 0.37783 0.0
H244 H 0.16824 0.30363 0.31256 0.0
H245 H 0.17565 0.1759 0.30363 0.0
H246 H 0.24954 0.32335 0.19238 0.0
H247 H 0.26843 0.32595 0.28861 0.0
H248 H 0.21926 0.34524 0.26715 0.0
H249 H 0.25965 0.16701 0.18999 0.0
H250 H 0.23444 0.14222 0.26788 0.0
H251 H 0.28021 0.16962 0.28496 0.0
C252 C 0.31772 0.77606 0.80435 0.0
C253 C 0.33702 0.7391 0.8109 0.0
C254 C 0.27872 0.77877 0.77425 0.0
C255 C 0.25807 0.74353 0.75253 0.0
C256 C 0.27706 0.70601 0.761 0.0
C257 C 0.31661 0.70431 0.78886 0.0
C258 C 0.2599 0.8194 0.76431 0.0
C259 C 0.25555 0.66769 0.74093 0.0
C260 C 0.14467 0.75056 0.74625 0.0
C261 C 0.13694 0.75198 0.66692 0.0
C262 C 0.18385 0.74692 0.77469 0.0
C263 C 0.21628 0.74596 0.72259 0.0
C264 C 0.20873 0.74784 0.64232 0.0
C265 C 0.16899 0.75012 0.61531 0.0
C266 C 0.19049 0.74376 0.86049 0.0
C267 C 0.24263 0.74802 0.58513 0.0
H268 H 0.33368 0.80307 0.82019 0.0
H269 H 0.33152 0.67571 0.79392 0.0
H270 H 0.25086 0.82366 0.70336 0.0
H271 H 0.23238 0.82168 0.79956 0.0
H272 H 0.28055 0.84395 0.78123 0.0
H273 H 0.27404 0.64091 0.75339 0.0
H274 H 0.22724 0.66559 0.77393 0.0
H275 H 0.24742 0.66742 0.679 0.0
H276 H 0.11986 0.75139 0.78629 0.0
H277 H 0.16301 0.7513 0.554 0.0
H278 H 0.20853 0.76944 0.88134 0.0
H279 H 0.20764 0.71628 0.87387 0.0
H280 H 0.16188 0.74309 0.89292 0.0
H281 H 0.26315 0.77332 0.59767 0.0
H282 H 0.23176 0.75062 0.52485 0.0
H283 H 0.2604 0.72022 0.59042 0.0
C284 C 0.46051 0.911 0.9752 0.0
C285 C 0.48385 0.89742 0.91334 0.0
C286 C 0.46374 0.95026 0.00249 0.0
C287 C 0.49089 0.97679 0.96705 0.0
C288 C 0.51429 0.96354 0.90417 0.0
C289 C 0.5105 0.92398 0.87803 0.0
C290 C 0.43814 0.96331 0.06947 0.0
C291 C 0.54341 0.99113 0.86472 0.0
C292 C 0.47079 0.08745 -0.00978 0.0
C293 C 0.4982 0.09831 0.04827 0.0
C294 C 0.46836 0.04812 0.96304 0.0
C295 C 0.49385 0.01873 -0.00532 0.0
C296 C 0.52137 0.02925 0.05369 0.0
C297 C 0.52323 0.06896 0.07983 0.0
C298 C 0.43851 0.03807 0.90024 0.0
C299 C 0.54891 -0.00142 0.08899 0.0
H300 H 0.43983 0.89081 0.0031 0.0
H301 H 0.52875 0.91378 0.83045 0.0
H302 H 0.45747 0.97405 0.11736 0.0
H303 H 0.4187 0.98856 0.05202 0.0
H304 H 0.41881 0.93885 0.09119 0.0
H305 H 0.55959 0.97617 0.81695 0.0
H306 H 0.52721 0.01733 0.84129 0.0
H307 H 0.56573 0.00252 0.90693 0.0
H308 H 0.45127 0.1098 0.96524 0.0
H309 H 0.54457 0.07703 0.12446 0.0
H310 H 0.41721 0.01507 0.92081 0.0
H311 H 0.45428 0.02535 0.84975 0.0
H312 H 0.42112 0.06452 0.88118 0.0
H313 H 0.531 0.97427 0.11505 0.0
H314 H 0.56877 0.0116 0.13402 0.0
H315 H 0.56784 0.98488 0.04374 0.0
C316 C 0.96101 0.90945 0.49192 0.0
C317 C 0.98455 0.89577 0.55364 0.0
C318 C 0.9646 0.94856 0.46465 0.0
C319 C 0.99233 0.97484 0.49997 0.0
C320 C 0.01597 0.9615 0.5627 0.0
C321 C 0.01181 0.92208 0.58883 0.0
C322 C 0.93872 0.96171 0.39785 0.0
C323 C 0.0457 0.98884 0.60203 0.0
C324 C 0.02456 0.06638 0.38703 0.0
C325 C -0.00014 0.09599 0.41867 0.0
C326 C 0.02268 0.0268 0.41329 0.0
C327 C 0.99554 0.01669 0.47256 0.0
C328 C 0.97047 0.04636 0.50442 0.0
C329 C 0.97288 0.08553 0.47707 0.0
C330 C 0.04974 -0.0042 0.37773 0.0
C331 C 0.94104 0.03675 0.56754 0.0
H332 H 0.93986 0.88945 0.46412 0.0
H333 H 0.03022 0.9118 0.63629 0.0
H334 H 0.91962 0.98719 0.41556 0.0
H335 H 0.95786 0.97218 0.34995 0.0
H336 H 0.91902 0.9374 0.37604 0.0
H337 H 0.06206 0.97381 0.64957 0.0
H338 H 0.06783 -0.00012 0.55969 0.0
H339 H 0.02998 0.01528 0.62576 0.0
H340 H 0.04557 0.07414 0.34215 0.0
H341 H 0.95365 0.10808 0.50219 0.0
H342 H 0.03144 0.97163 0.35151 0.0
H343 H 0.06877 0.982 0.42284 0.0
H344 H 0.06947 0.00855 0.33276 0.0
H345 H 0.91931 0.01397 0.54704 0.0
H346 H 0.92412 0.06344 0.58703 0.0
H347 H 0.95709 0.02394 0.61772 0.0
C348 C 0.03163 0.20708 0.02645 0.0
C349 C 0.02395 0.24253 0.06697 0.0
C350 C 0.03193 0.20642 0.94571 0.0
C351 C 0.02439 0.24203 0.90466 0.0
C352 C 0.01712 0.27797 0.94511 0.0
C353 C 0.01698 0.27779 0.02571 0.0
C354 C 0.03987 0.16756 0.90431 0.0
C355 C 0.00903 0.31656 0.90322 0.0
C356 C 0.05667 0.25081 0.69644 0.0
C357 C 0.02039 0.24429 0.65713 0.0
C358 C 0.05854 0.24961 0.77703 0.0
C359 C 0.0233 0.24173 0.81928 0.0
C360 C 0.98668 0.23476 0.7801 0.0
C361 C 0.98565 0.23612 0.6995 0.0
C362 C 0.09814 0.25717 0.81699 0.0
C363 C 0.94847 0.2263 0.82337 0.0
H364 H 0.0371 0.1797 0.05775 0.0
H365 H 0.01109 0.30537 0.05634 0.0
H366 H 0.01356 0.15939 0.86829 0.0
H367 H 0.0658 0.17092 0.86514 0.0
H368 H 0.04615 0.1427 0.94469 0.0
H369 H 0.00473 0.3421 0.94326 0.0
H370 H 0.03429 0.32358 0.86427 0.0
H371 H 0.98174 0.31344 0.86696 0.0
H372 H 0.0837 0.25704 0.6643 0.0
H373 H 0.9575 0.23092 0.66976 0.0
H374 H 0.10579 0.23168 0.85482 0.0
H375 H 0.09583 0.28402 0.8542 0.0
H376 H 0.12301 0.26171 0.77567 0.0
H377 H 0.95259 0.2 0.86114 0.0
H378 H 0.92268 0.22052 0.78422 0.0
H379 H 0.94101 0.25203 0.86098 0.0
C380 C 0.98869 0.77864 0.94099 0.0
C381 C 0.98063 0.74359 0.89924 0.0
C382 C 0.98862 0.77882 0.02159 0.0
C383 C 0.98028 0.7431 0.06151 0.0
C384 C 0.97168 0.70771 0.01996 0.0
C385 C 0.97196 0.70837 0.93925 0.0
C386 C -0.0021 0.81716 0.06405 0.0
C387 C 0.96257 0.66908 0.06079 0.0
C388 C 0.01852 0.73584 0.26673 0.0
C389 C 0.98396 0.74484 0.30906 0.0
C390 C 0.0176 0.7347 0.1861 0.0
C391 C 0.98127 0.74276 0.14687 0.0
C392 C 0.9462 0.75153 0.18908 0.0
C393 C 0.94796 0.75247 0.26969 0.0
C394 C 0.05561 0.72523 0.14287 0.0
C395 C 0.90692 0.76029 0.14905 0.0
H396 H 0.99539 0.80604 0.91074 0.0
H397 H 0.96563 0.68115 0.90757 0.0
H398 H 0.97283 0.82492 0.10303 0.0
H399 H 0.02504 0.81323 0.10036 0.0
H400 H 0.00303 0.84254 0.02439 0.0
H401 H 0.95566 0.64438 0.02005 0.0
H402 H 0.98857 0.66024 0.09689 0.0
H403 H 0.93667 0.67314 0.09982 0.0
H404 H 0.04645 0.72978 0.29653 0.0
H405 H 0.92107 0.75938 0.3018 0.0
H406 H 0.06384 0.75074 0.10565 0.0
H407 H 0.05078 0.69905 0.1047 0.0
H408 H 0.08118 0.71877 0.18204 0.0
H409 H 0.91014 0.78705 0.11224 0.0
H410 H 0.88215 0.76558 0.19032 0.0
H411 H 0.8985 0.73504 0.11083 0.0
C412 C 0.44885 0.75205 0.19542 0.0
C413 C 0.48529 0.7466 0.15675 0.0
C414 C 0.44703 0.75088 0.27596 0.0
C415 C 0.48251 0.74417 0.31886 0.0
C416 C 0.51932 0.73837 0.28034 0.0
C417 C 0.52028 0.73963 0.19974 0.0
C418 C 0.40723 0.75717 0.31519 0.0
C419 C 0.55778 0.7312 0.32433 0.0
C420 C 0.4873 0.78029 0.52551 0.0
C421 C 0.48127 0.7448 0.56651 0.0
C422 C 0.48741 0.78051 0.44491 0.0
C423 C 0.48137 0.74438 0.40421 0.0
C424 C 0.47482 0.70851 0.44498 0.0
C425 C 0.47482 0.70914 0.52572 0.0
C426 C 0.4944 0.81937 0.40332 0.0
C427 C 0.46822 0.66943 0.4033 0.0
H428 H 0.42162 0.75735 0.1628 0.0
H429 H 0.54856 0.7353 0.17049 0.0
H430 H 0.40032 0.73139 0.35272 0.0
H431 H 0.40874 0.78402 0.3526 0.0
H432 H 0.38224 0.76101 0.27342 0.0
H433 H 0.58375 0.72635 0.28566 0.0
H434 H 0.56438 0.75714 0.36216 0.0
H435 H 0.55452 0.70475 0.36196 0.0
H436 H 0.49223 0.80803 0.55636 0.0
H437 H 0.47011 0.68158 0.55681 0.0
H438 H 0.46895 0.82564 0.36388 0.0
H439 H 0.52178 0.81712 0.36759 0.0
H440 H 0.49792 0.84499 0.44352 0.0
H441 H 0.44221 0.67192 0.36362 0.0
H442 H 0.46277 0.64433 0.44346 0.0
H443 H 0.4948 0.66222 0.36777 0.0
C444 C 0.5307 0.21069 0.44023 0.0
C445 C 0.52214 0.2459 0.39996 0.0
C446 C 0.53074 0.21003 0.52094 0.0
C447 C 0.522 0.2454 0.56223 0.0
C448 C 0.51371 0.28109 0.52208 0.0
C449 C 0.51389 0.28092 0.44147 0.0
C450 C 0.5398 0.17144 0.56204 0.0
C451 C 0.50429 0.31941 0.56427 0.0
C452 C 0.48391 0.23804 0.76688 0.0
C453 C 0.51852 0.24707 0.80972 0.0
C454 C 0.48475 0.23695 0.68625 0.0
C455 C 0.52104 0.24511 0.64757 0.0
C456 C 0.55614 0.25397 0.69031 0.0
C457 C 0.55447 0.25484 0.77088 0.0
C458 C 0.44672 0.22738 0.64243 0.0
C459 C 0.59537 0.26286 0.65088 0.0
H460 H 0.53715 0.1835 0.40874 0.0
H461 H 0.50726 0.3083 0.41103 0.0
H462 H 0.56574 0.17554 0.60144 0.0
H463 H 0.51382 0.16263 0.59779 0.0
H464 H 0.54663 0.1467 0.52148 0.0
H465 H 0.49905 0.34474 0.52445 0.0
H466 H 0.47718 0.31537 0.60012 0.0
H467 H 0.52934 0.32734 0.60365 0.0
H468 H 0.45603 0.23188 0.79628 0.0
H469 H 0.58139 0.2618 0.80338 0.0
H470 H 0.45152 0.20118 0.60441 0.0
H471 H 0.43846 0.25285 0.605 0.0
H472 H 0.42117 0.22091 0.68121 0.0
H473 H 0.60384 0.23761 0.61289 0.0
H474 H 0.62015 0.26831 0.69253 0.0
H475 H 0.59206 0.28957 0.61391 0.0
loop_
_geom_bond_atom_site_label_1
_geom_bond_atom_site_label_2
_geom_bond_distance
_geom_bond_site_symmetry_2
_ccdc_geom_bond_type
O0 Zn1 1.953 . S
O0 C16 1.225 . S
Zn1 O0 1.953 . S
Zn1 O2 1.949 . S
Zn1 O8 1.919 . S
Zn1 O13 1.924 . S
O2 Zn1 1.949 . S
O2 Zn3 1.923 . S
O2 Zn4 1.950 1_455 S
O2 Zn5 1.945 1_455 S
Zn3 O2 1.923 . S
Zn3 O6 1.933 . S
Zn3 O9 1.941 . S
Zn3 O10 1.965 . S
Zn4 O2 1.950 1_655 S
Zn4 O11 1.938 . S
Zn4 O12 1.906 . S
Zn4 O22 1.953 . S
Zn5 O2 1.945 1_655 S
Zn5 O7 1.932 . S
Zn5 O14 1.977 . S
Zn5 O15 1.910 . S
O6 Zn3 1.933 . S
O6 C17 1.226 . S
O7 Zn5 1.932 . S
O7 C17 1.307 1_655 S
O8 Zn1 1.919 . S
O8 C19 1.253 . S
O9 Zn3 1.941 . S
O9 C19 1.283 . S
O10 Zn3 1.965 . S
O10 C18 1.303 . S
O11 Zn4 1.938 . S
O11 C18 1.247 1_655 S
O12 Zn4 1.906 . S
O12 C20 1.304 . S
O13 Zn1 1.924 . S
O13 C21 1.311 . S
O14 Zn5 1.977 . S
O14 C20 1.272 . S
O15 Zn5 1.910 . S
O15 C21 1.231 1_655 S
C16 O0 1.225 . S
C16 O22 1.298 1_455 S
C17 O6 1.226 . S
C17 O7 1.307 1_455 S
C18 O10 1.303 . S
C18 O11 1.247 1_455 S
C19 O8 1.253 . S
C19 O9 1.283 . S
C20 O12 1.304 . S
C20 O14 1.272 . S
C21 O13 1.311 . S
C21 O15 1.231 1_455 S
O22 Zn4 1.953 . S
O22 C16 1.298 1_655 S
O23 Zn24 1.953 . S
O23 C39 1.225 . S
Zn24 O23 1.953 . S
Zn24 O25 1.949 . S
Zn24 O31 1.919 . S
Zn24 O36 1.924 . S
O25 Zn24 1.949 . S
O25 Zn26 1.923 . S
O25 Zn27 1.950 1_455 S
O25 Zn28 1.945 1_455 S
Zn26 O25 1.923 . S
Zn26 O29 1.933 . S
Zn26 O32 1.941 . S
Zn26 O33 1.965 . S
Zn27 O25 1.950 1_655 S
Zn27 O34 1.938 . S
Zn27 O35 1.906 . S
Zn27 O45 1.953 . S
Zn28 O25 1.945 1_655 S
Zn28 O30 1.932 . S
Zn28 O37 1.977 . S
Zn28 O38 1.910 . S
O29 Zn26 1.933 . S
O29 C40 1.226 . S
O30 Zn28 1.932 . S
O30 C40 1.307 1_655 S
O31 Zn24 1.919 . S
O31 C42 1.253 . S
O32 Zn26 1.941 . S
O32 C42 1.283 . S
O33 Zn26 1.965 . S
O33 C41 1.303 1_455 S
O34 Zn27 1.938 . S
O34 C41 1.247 . S
O35 Zn27 1.906 . S
O35 C43 1.304 . S
O36 Zn24 1.924 . S
O36 C44 1.311 . S
O37 Zn28 1.977 . S
O37 C43 1.272 . S
O38 Zn28 1.910 . S
O38 C44 1.231 1_655 S
C39 O23 1.225 . S
C39 O45 1.298 1_455 S
C40 O29 1.226 . S
C40 O30 1.307 1_455 S
C41 O33 1.303 1_655 S
C41 O34 1.247 . S
C42 O31 1.253 . S
C42 O32 1.283 . S
C43 O35 1.304 . S
C43 O37 1.272 . S
C44 O36 1.311 . S
C44 O38 1.231 1_455 S
O45 Zn27 1.953 . S
O45 C39 1.298 1_655 S
O46 Zn47 1.953 . S
O46 C62 1.225 . S
Zn47 O46 1.953 . S
Zn47 O48 1.949 . S
Zn47 O54 1.919 . S
Zn47 O59 1.924 . S
O48 Zn47 1.949 . S
O48 Zn49 1.923 . S
O48 Zn50 1.950 . S
O48 Zn51 1.945 . S
Zn49 O48 1.923 . S
Zn49 O52 1.933 1_556 S
Zn49 O55 1.941 . S
Zn49 O56 1.965 . S
Zn50 O48 1.950 . S
Zn50 O57 1.938 . S
Zn50 O58 1.906 . S
Zn50 O68 1.953 . S
Zn51 O48 1.945 . S
Zn51 O53 1.932 1_556 S
Zn51 O60 1.977 . S
Zn51 O61 1.910 . S
O52 Zn49 1.933 1_554 S
O52 C63 1.226 . S
O53 Zn51 1.932 1_554 S
O53 C63 1.307 . S
O54 Zn47 1.919 . S
O54 C65 1.253 . S
O55 Zn49 1.941 . S
O55 C65 1.283 . S
O56 Zn49 1.965 . S
O56 C64 1.303 . S
O57 Zn50 1.938 . S
O57 C64 1.247 . S
O58 Zn50 1.906 . S
O58 C66 1.304 . S
O59 Zn47 1.924 . S
O59 C67 1.311 . S
O60 Zn51 1.977 . S
O60 C66 1.272 . S
O61 Zn51 1.910 . S
O61 C67 1.231 . S
C62 O46 1.225 . S
C62 O68 1.298 . S
C63 O52 1.226 . S
C63 O53 1.307 . S
C64 O56 1.303 . S
C64 O57 1.247 . S
C65 O54 1.253 . S
C65 O55 1.283 . S
C66 O58 1.304 . S
C66 O60 1.272 . S
C67 O59 1.311 . S
C67 O61 1.231 . S
O68 Zn50 1.953 . S
O68 C62 1.298 . S
O69 Zn70 1.953 . S
O69 C85 1.225 . S
Zn70 O69 1.953 . S
Zn70 O71 1.949 . S
Zn70 O77 1.919 . S
Zn70 O82 1.924 . S
O71 Zn70 1.949 . S
O71 Zn72 1.923 . S
O71 Zn73 1.950 . S
O71 Zn74 1.945 . S
Zn72 O71 1.923 . S
Zn72 O75 1.933 1_554 S
Zn72 O78 1.941 . S
Zn72 O79 1.965 . S
Zn73 O71 1.950 . S
Zn73 O80 1.938 . S
Zn73 O81 1.906 . S
Zn73 O91 1.953 . S
Zn74 O71 1.945 . S
Zn74 O76 1.932 1_554 S
Zn74 O83 1.977 . S
Zn74 O84 1.910 . S
O75 Zn72 1.933 1_556 S
O75 C86 1.226 . S
O76 Zn74 1.932 1_556 S
O76 C86 1.307 . S
O77 Zn70 1.919 . S
O77 C88 1.253 . S
O78 Zn72 1.941 . S
O78 C88 1.283 . S
O79 Zn72 1.965 . S
O79 C87 1.303 . S
O80 Zn73 1.938 . S
O80 C87 1.247 . S
O81 Zn73 1.906 . S
O81 C89 1.304 . S
O82 Zn70 1.924 . S
O82 C90 1.311 . S
O83 Zn74 1.977 . S
O83 C89 1.272 . S
O84 Zn74 1.910 . S
O84 C90 1.231 . S
C85 O69 1.225 . S
C85 O91 1.298 . S
C86 O75 1.226 . S
C86 O76 1.307 . S
C87 O79 1.303 . S
C87 O80 1.247 . S
C88 O77 1.253 . S
C88 O78 1.283 . S
C89 O81 1.304 . S
C89 O83 1.272 . S
C90 O82 1.311 . S
C90 O84 1.231 . S
O91 Zn73 1.953 . S
O91 C85 1.298 . S
C92 C93 1.391 . S
C92 C94 1.394 . S
C92 H108 0.931 . S
C93 C92 1.391 . S
C93 C97 1.376 . S
C94 C92 1.394 . S
C94 C95 1.369 . S
C94 C98 1.531 . S
C95 C94 1.369 . S
C95 C96 1.410 . S
C95 C103 1.503 . S
C96 C95 1.410 . S
C96 C97 1.392 . S
C96 C99 1.511 . S
C97 C93 1.376 . S
C97 C96 1.392 . S
C97 H109 0.929 . S
C98 C94 1.531 . S
C98 H110 0.960 . S
C98 H111 0.962 1_455 S
C98 H112 0.960 . S
C99 C96 1.511 . S
C99 H113 0.961 . S
C99 H114 0.961 . S
C99 H115 0.961 . S
C100 C101 1.370 1_655 S
C100 C102 1.363 . S
C100 H116 0.931 . S
C101 C100 1.370 1_455 S
C101 C105 1.408 . S
C102 C100 1.363 . S
C102 C103 1.370 1_655 S
C102 C106 1.524 . S
C103 C95 1.503 . S
C103 C102 1.370 1_455 S
C103 C104 1.403 . S
C104 C103 1.403 . S
C104 C105 1.404 . S
C104 C107 1.539 . S
C105 C101 1.408 . S
C105 C104 1.404 . S
C105 H117 0.930 . S
C106 C102 1.524 . S
C106 H118 0.956 . S
C106 H119 0.961 . S
C106 H120 0.961 . S
C107 C104 1.539 . S
C107 H121 0.958 . S
C107 H122 0.961 . S
C107 H123 0.960 . S
H108 C92 0.931 . S
H109 C97 0.929 . S
H110 C98 0.960 . S
H111 C98 0.962 1_655 S
H112 C98 0.960 . S
H113 C99 0.961 . S
H114 C99 0.961 . S
H115 C99 0.961 . S
H116 C100 0.931 . S
H117 C105 0.930 . S
H118 C106 0.956 . S
H119 C106 0.961 . S
H120 C106 0.961 . S
H121 C107 0.958 . S
H122 C107 0.961 . S
H123 C107 0.960 . S
C124 C125 1.391 . S
C124 C126 1.394 . S
C124 H140 0.931 . S
C125 C124 1.391 . S
C125 C129 1.376 . S
C126 C124 1.394 . S
C126 C127 1.369 . S
C126 C130 1.531 . S
C127 C126 1.369 . S
C127 C128 1.410 . S
C127 C135 1.503 . S
C128 C127 1.410 . S
C128 C129 1.392 . S
C128 C131 1.511 . S
C129 C125 1.376 . S
C129 C128 1.392 . S
C129 H141 0.929 . S
C130 C126 1.531 . S
C130 H142 0.960 . S
C130 H143 0.962 . S
C130 H144 0.960 . S
C131 C128 1.511 . S
C131 H145 0.961 . S
C131 H146 0.961 . S
C131 H147 0.961 . S
C132 C133 1.370 . S
C132 C134 1.363 . S
C132 H148 0.931 . S
C133 C132 1.370 . S
C133 C137 1.408 . S
C134 C132 1.363 . S
C134 C135 1.370 . S
C134 C138 1.524 . S
C135 C127 1.503 . S
C135 C134 1.370 . S
C135 C136 1.403 . S
C136 C135 1.403 . S
C136 C137 1.404 . S
C136 C139 1.539 . S
C137 C133 1.408 . S
C137 C136 1.404 . S
C137 H149 0.930 . S
C138 C134 1.524 . S
C138 H150 0.956 . S
C138 H151 0.961 . S
C138 H152 0.961 . S
C139 C136 1.539 . S
C139 H153 0.958 . S
C139 H154 0.961 . S
C139 H155 0.960 . S
H140 C124 0.931 . S
H141 C129 0.929 . S
H142 C130 0.960 . S
H143 C130 0.962 . S
H144 C130 0.960 . S
H145 C131 0.961 . S
H146 C131 0.961 . S
H147 C131 0.961 . S
H148 C132 0.931 . S
H149 C137 0.930 . S
H150 C138 0.956 . S
H151 C138 0.961 . S
H152 C138 0.961 . S
H153 C139 0.958 . S
H154 C139 0.961 . S
H155 C139 0.960 . S
C156 C157 1.391 . S
C156 C158 1.394 . S
C156 H172 0.931 . S
C157 C156 1.391 . S
C157 C161 1.376 . S
C158 C156 1.394 . S
C158 C159 1.369 . S
C158 C162 1.531 . S
C159 C158 1.369 . S
C159 C160 1.410 . S
C159 C167 1.503 1_554 S
C160 C159 1.410 . S
C160 C161 1.392 . S
C160 C163 1.511 1_554 S
C161 C157 1.376 . S
C161 C160 1.392 . S
C161 H173 0.929 . S
C162 C158 1.531 . S
C162 H174 0.960 . S
C162 H175 0.962 . S
C162 H176 0.960 . S
C163 C160 1.511 1_556 S
C163 H177 0.961 . S
C163 H178 0.961 . S
C163 H179 0.961 . S
C164 C165 1.370 . S
C164 C166 1.363 . S
C164 H180 0.931 . S
C165 C164 1.370 . S
C165 C169 1.408 1_556 S
C166 C164 1.363 . S
C166 C167 1.370 . S
C166 C170 1.524 . S
C167 C159 1.503 1_556 S
C167 C166 1.370 . S
C167 C168 1.403 1_556 S
C168 C167 1.403 1_554 S
C168 C169 1.404 . S
C168 C171 1.539 . S
C169 C165 1.408 1_554 S
C169 C168 1.404 . S
C169 H181 0.930 . S
C170 C166 1.524 . S
C170 H182 0.956 . S
C170 H183 0.961 . S
C170 H184 0.961 . S
C171 C168 1.539 . S
C171 H185 0.958 . S
C171 H186 0.961 . S
C171 H187 0.960 . S
H172 C156 0.931 . S
H173 C161 0.929 . S
H174 C162 0.960 . S
H175 C162 0.962 . S
H176 C162 0.960 . S
H177 C163 0.961 . S
H178 C163 0.961 . S
H179 C163 0.961 . S
H180 C164 0.931 . S
H181 C169 0.930 . S
H182 C170 0.956 . S
H183 C170 0.961 . S
H184 C170 0.961 . S
H185 C171 0.958 . S
H186 C171 0.961 . S
H187 C171 0.960 . S
C188 C189 1.391 . S
C188 C190 1.394 . S
C188 H204 0.931 . S
C189 C188 1.391 . S
C189 C193 1.376 . S
C190 C188 1.394 . S
C190 C191 1.369 . S
C190 C194 1.531 . S
C191 C190 1.369 . S
C191 C192 1.410 . S
C191 C199 1.503 . S
C192 C191 1.410 . S
C192 C193 1.392 . S
C192 C195 1.511 . S
C193 C189 1.376 . S
C193 C192 1.392 . S
C193 H205 0.929 . S
C194 C190 1.531 . S
C194 H206 0.960 . S
C194 H207 0.962 . S
C194 H208 0.960 . S
C195 C192 1.511 . S
C195 H209 0.961 . S
C195 H210 0.961 . S
C195 H211 0.961 . S
C196 C197 1.370 . S
C196 C198 1.363 . S
C196 H212 0.931 . S
C197 C196 1.370 . S
C197 C201 1.408 . S
C198 C196 1.363 . S
C198 C199 1.370 . S
C198 C202 1.524 . S
C199 C191 1.503 . S
C199 C198 1.370 . S
C199 C200 1.403 . S
C200 C199 1.403 . S
C200 C201 1.404 . S
C200 C203 1.539 . S
C201 C197 1.408 . S
C201 C200 1.404 . S
C201 H213 0.930 . S
C202 C198 1.524 . S
C202 H214 0.956 . S
C202 H215 0.961 . S
C202 H216 0.961 . S
C203 C200 1.539 . S
C203 H217 0.958 . S
C203 H218 0.961 . S
C203 H219 0.960 . S
H204 C188 0.931 . S
H205 C193 0.929 . S
H206 C194 0.960 . S
H207 C194 0.962 . S
H208 C194 0.960 . S
H209 C195 0.961 . S
H210 C195 0.961 . S
H211 C195 0.961 . S
H212 C196 0.931 . S
H213 C201 0.930 . S
H214 C202 0.956 . S
H215 C202 0.961 . S
H216 C202 0.961 . S
H217 C203 0.958 . S
H218 C203 0.961 . S
H219 C203 0.960 . S
C220 C221 1.391 . S
C220 C222 1.394 . S
C220 H236 0.931 . S
C221 C220 1.391 . S
C221 C225 1.376 . S
C222 C220 1.394 . S
C222 C223 1.369 . S
C222 C226 1.531 . S
C223 C222 1.369 . S
C223 C224 1.410 . S
C223 C231 1.503 . S
C224 C223 1.410 . S
C224 C225 1.392 . S
C224 C227 1.511 . S
C225 C221 1.376 . S
C225 C224 1.392 . S
C225 H237 0.929 . S
C226 C222 1.531 . S
C226 H238 0.960 . S
C226 H239 0.962 . S
C226 H240 0.960 . S
C227 C224 1.511 . S
C227 H241 0.961 . S
C227 H242 0.961 . S
C227 H243 0.961 . S
C228 C229 1.370 . S
C228 C230 1.363 . S
C228 H244 0.931 . S
C229 C228 1.370 . S
C229 C233 1.408 . S
C230 C228 1.363 . S
C230 C231 1.370 . S
C230 C234 1.524 . S
C231 C223 1.503 . S
C231 C230 1.370 . S
C231 C232 1.403 . S
C232 C231 1.403 . S
C232 C233 1.404 . S
C232 C235 1.539 . S
C233 C229 1.408 . S
C233 C232 1.404 . S
C233 H245 0.930 . S
C234 C230 1.524 . S
C234 H246 0.956 . S
C234 H247 0.961 . S
C234 H248 0.961 . S
C235 C232 1.539 . S
C235 H249 0.958 . S
C235 H250 0.961 . S
C235 H251 0.960 . S
H236 C220 0.931 . S
H237 C225 0.929 . S
H238 C226 0.960 . S
H239 C226 0.962 . S
H240 C226 0.960 . S
H241 C227 0.961 . S
H242 C227 0.961 . S
H243 C227 0.961 . S
H244 C228 0.931 . S
H245 C233 0.930 . S
H246 C234 0.956 . S
H247 C234 0.961 . S
H248 C234 0.961 . S
H249 C235 0.958 . S
H250 C235 0.961 . S
H251 C235 0.960 . S
C252 C253 1.391 . S
C252 C254 1.394 . S
C252 H268 0.931 . S
C253 C252 1.391 . S
C253 C257 1.376 . S
C254 C252 1.394 . S
C254 C255 1.369 . S
C254 C258 1.531 . S
C255 C254 1.369 . S
C255 C256 1.410 . S
C255 C263 1.503 . S
C256 C255 1.410 . S
C256 C257 1.392 . S
C256 C259 1.511 . S
C257 C253 1.376 . S
C257 C256 1.392 . S
C257 H269 0.929 . S
C258 C254 1.531 . S
C258 H270 0.960 . S
C258 H271 0.962 . S
C258 H272 0.960 . S
C259 C256 1.511 . S
C259 H273 0.961 . S
C259 H274 0.961 . S
C259 H275 0.961 . S
C260 C261 1.370 . S
C260 C262 1.363 . S
C260 H276 0.931 . S
C261 C260 1.370 . S
C261 C265 1.408 . S
C262 C260 1.363 . S
C262 C263 1.370 . S
C262 C266 1.524 . S
C263 C255 1.503 . S
C263 C262 1.370 . S
C263 C264 1.403 . S
C264 C263 1.403 . S
C264 C265 1.404 . S
C264 C267 1.539 . S
C265 C261 1.408 . S
C265 C264 1.404 . S
C265 H277 0.930 . S
C266 C262 1.524 . S
C266 H278 0.956 . S
C266 H279 0.961 . S
C266 H280 0.961 . S
C267 C264 1.539 . S
C267 H281 0.958 . S
C267 H282 0.961 . S
C267 H283 0.960 . S
H268 C252 0.931 . S
H269 C257 0.929 . S
H270 C258 0.960 . S
H271 C258 0.962 . S
H272 C258 0.960 . S
H273 C259 0.961 . S
H274 C259 0.961 . S
H275 C259 0.961 . S
H276 C260 0.931 . S
H277 C265 0.930 . S
H278 C266 0.956 . S
H279 C266 0.961 . S
H280 C266 0.961 . S
H281 C267 0.958 . S
H282 C267 0.961 . S
H283 C267 0.960 . S
C284 C285 1.391 . S
C284 C286 1.394 1_556 S
C284 H300 0.931 1_556 S
C285 C284 1.391 . S
C285 C289 1.376 . S
C286 C284 1.394 1_554 S
C286 C287 1.369 . S
C286 C290 1.531 . S
C287 C286 1.369 . S
C287 C288 1.410 1_554 S
C287 C295 1.503 1_565 S
C288 C287 1.410 1_556 S
C288 C289 1.392 . S
C288 C291 1.511 . S
C289 C285 1.376 . S
C289 C288 1.392 . S
C289 H301 0.929 . S
C290 C286 1.531 . S
C290 H302 0.960 . S
C290 H303 0.962 . S
C290 H304 0.960 . S
C291 C288 1.511 . S
C291 H305 0.961 . S
C291 H306 0.961 1_565 S
C291 H307 0.961 . S
C292 C293 1.370 . S
C292 C294 1.363 1_554 S
C292 H308 0.931 1_554 S
C293 C292 1.370 . S
C293 C297 1.408 . S
C294 C292 1.363 1_556 S
C294 C295 1.370 1_556 S
C294 C298 1.524 . S
C295 C287 1.503 1_545 S
C295 C294 1.370 1_554 S
C295 C296 1.403 . S
C296 C295 1.403 . S
C296 C297 1.404 . S
C296 C299 1.539 . S
C297 C293 1.408 . S
C297 C296 1.404 . S
C297 H309 0.930 . S
C298 C294 1.524 . S
C298 H310 0.956 . S
C298 H311 0.961 . S
C298 H312 0.961 . S
C299 C296 1.539 . S
C299 H313 0.958 1_545 S
C299 H314 0.961 . S
C299 H315 0.960 1_545 S
H300 C284 0.931 1_554 S
H301 C289 0.929 . S
H302 C290 0.960 . S
H303 C290 0.962 . S
H304 C290 0.960 . S
H305 C291 0.961 . S
H306 C291 0.961 1_545 S
H307 C291 0.961 . S
H308 C292 0.931 1_556 S
H309 C297 0.930 . S
H310 C298 0.956 . S
H311 C298 0.961 . S
H312 C298 0.961 . S
H313 C299 0.958 1_565 S
H314 C299 0.961 . S
H315 C299 0.960 1_565 S
C316 C317 1.391 1_655 S
C316 C318 1.394 . S
C316 H332 0.931 . S
C317 C316 1.391 1_455 S
C317 C321 1.376 . S
C318 C316 1.394 . S
C318 C319 1.369 1_655 S
C318 C322 1.531 . S
C319 C318 1.369 1_455 S
C319 C320 1.410 . S
C319 C327 1.503 1_565 S
C320 C319 1.410 . S
C320 C321 1.392 . S
C320 C323 1.511 . S
C321 C317 1.376 . S
C321 C320 1.392 . S
C321 H333 0.929 . S
C322 C318 1.531 . S
C322 H334 0.960 1_565 S
C322 H335 0.962 . S
C322 H336 0.960 . S
C323 C320 1.511 . S
C323 H337 0.961 . S
C323 H338 0.944 1_565 S
C323 H339 0.961 . S
C324 C325 1.370 . S
C324 C326 1.363 . S
C324 H340 0.931 . S
C325 C324 1.370 . S
C325 C329 1.408 . S
C326 C324 1.363 . S
C326 C327 1.370 . S
C326 C330 1.524 1_545 S
C327 C319 1.503 1_545 S
C327 C326 1.370 . S
C327 C328 1.403 . S
C328 C327 1.403 . S
C328 C329 1.404 . S
C328 C331 1.539 . S
C329 C325 1.408 . S
C329 C328 1.404 . S
C329 H341 0.930 . S
C330 C326 1.524 1_565 S
C330 H342 0.956 1_455 S
C330 H343 0.961 . S
C330 H344 0.961 1_565 S
C331 C328 1.539 . S
C331 H345 0.958 1_455 S
C331 H346 0.961 . S
C331 H347 0.960 . S
H332 C316 0.931 . S
H333 C321 0.929 . S
H334 C322 0.960 1_545 S
H335 C322 0.962 . S
H336 C322 0.960 . S
H337 C323 0.961 . S
H338 C323 0.944 1_545 S
H339 C323 0.961 . S
H340 C324 0.931 . S
H341 C329 0.930 . S
H342 C330 0.956 1_655 S
H343 C330 0.961 . S
H344 C330 0.961 1_545 S
H345 C331 0.958 1_655 S
H346 C331 0.961 . S
H347 C331 0.960 . S
C348 C349 1.391 . S
C348 C350 1.394 1_554 S
C348 H364 0.931 . S
C349 C348 1.391 . S
C349 C353 1.376 1_455 S
C350 C348 1.394 1_556 S
C350 C351 1.369 . S
C350 C354 1.531 . S
C351 C350 1.369 . S
C351 C352 1.410 1_455 S
C351 C359 1.503 . S
C352 C351 1.410 1_655 S
C352 C353 1.392 1_556 S
C352 C355 1.511 . S
C353 C349 1.376 1_655 S
C353 C352 1.392 1_554 S
C353 H365 0.929 . S
C354 C350 1.531 . S
C354 H366 0.960 . S
C354 H367 0.962 . S
C354 H368 0.960 . S
C355 C352 1.511 . S
C355 H369 0.961 . S
C355 H370 0.961 . S
C355 H371 0.961 . S
C356 C357 1.370 . S
C356 C358 1.363 . S
C356 H372 0.931 . S
C357 C356 1.370 . S
C357 C361 1.408 1_455 S
C358 C356 1.363 . S
C358 C359 1.370 . S
C358 C362 1.524 . S
C359 C351 1.503 . S
C359 C358 1.370 . S
C359 C360 1.403 1_455 S
C360 C359 1.403 1_655 S
C360 C361 1.404 . S
C360 C363 1.539 . S
C361 C357 1.408 1_655 S
C361 C360 1.404 . S
C361 H373 0.930 . S
C362 C358 1.524 . S
C362 H374 0.956 . S
C362 H375 0.961 . S
C362 H376 0.961 . S
C363 C360 1.539 . S
C363 H377 0.958 . S
C363 H378 0.961 . S
C363 H379 0.960 . S
H364 C348 0.931 . S
H365 C353 0.929 . S
H366 C354 0.960 . S
H367 C354 0.962 . S
H368 C354 0.960 . S
H369 C355 0.961 . S
H370 C355 0.961 . S
H371 C355 0.961 . S
H372 C356 0.931 . S
H373 C361 0.930 . S
H374 C362 0.956 . S
H375 C362 0.961 . S
H376 C362 0.961 . S
H377 C363 0.958 . S
H378 C363 0.961 . S
H379 C363 0.960 . S
C380 C381 1.391 . S
C380 C382 1.394 1_556 S
C380 H396 0.931 . S
C381 C380 1.391 . S
C381 C385 1.376 1_455 S
C382 C380 1.394 1_554 S
C382 C383 1.369 . S
C382 C386 1.531 . S
C383 C382 1.369 . S
C383 C384 1.410 1_455 S
C383 C391 1.503 . S
C384 C383 1.410 1_655 S
C384 C385 1.392 1_554 S
C384 C387 1.511 . S
C385 C381 1.376 1_655 S
C385 C384 1.392 1_556 S
C385 H397 0.929 . S
C386 C382 1.531 . S
C386 H398 0.960 . S
C386 H399 0.962 . S
C386 H400 0.960 . S
C387 C384 1.511 . S
C387 H401 0.961 . S
C387 H402 0.961 . S
C387 H403 0.961 . S
C388 C389 1.370 . S
C388 C390 1.363 . S
C388 H404 0.931 . S
C389 C388 1.370 . S
C389 C393 1.408 1_455 S
C390 C388 1.363 . S
C390 C391 1.370 . S
C390 C394 1.524 . S
C391 C383 1.503 . S
C391 C390 1.370 . S
C391 C392 1.403 1_455 S
C392 C391 1.403 1_655 S
C392 C393 1.404 . S
C392 C395 1.539 . S
C393 C389 1.408 1_655 S
C393 C392 1.404 . S
C393 H405 0.930 . S
C394 C390 1.524 . S
C394 H406 0.956 . S
C394 H407 0.961 1_455 S
C394 H408 0.961 . S
C395 C392 1.539 . S
C395 H409 0.958 1_655 S
C395 H410 0.961 . S
C395 H411 0.960 . S
H396 C380 0.931 . S
H397 C385 0.929 . S
H398 C386 0.960 . S
H399 C386 0.962 . S
H400 C386 0.960 . S
H401 C387 0.961 . S
H402 C387 0.961 . S
H403 C387 0.961 . S
H404 C388 0.931 . S
H405 C393 0.930 . S
H406 C394 0.956 . S
H407 C394 0.961 1_655 S
H408 C394 0.961 . S
H409 C395 0.958 1_455 S
H410 C395 0.961 . S
H411 C395 0.960 . S
C412 C413 1.391 . S
C412 C414 1.394 . S
C412 H428 0.931 . S
C413 C412 1.391 . S
C413 C417 1.376 . S
C414 C412 1.394 . S
C414 C415 1.369 . S
C414 C418 1.531 . S
C415 C414 1.369 . S
C415 C416 1.410 . S
C415 C423 1.503 . S
C416 C415 1.410 . S
C416 C417 1.392 . S
C416 C419 1.511 . S
C417 C413 1.376 . S
C417 C416 1.392 . S
C417 H429 0.929 . S
C418 C414 1.531 . S
C418 H430 0.960 . S
C418 H431 0.962 . S
C418 H432 0.960 . S
C419 C416 1.511 . S
C419 H433 0.961 . S
C419 H434 0.961 . S
C419 H435 0.961 . S
C420 C421 1.370 . S
C420 C422 1.363 . S
C420 H436 0.931 . S
C421 C420 1.370 . S
C421 C425 1.408 . S
C422 C420 1.363 . S
C422 C423 1.370 . S
C422 C426 1.524 . S
C423 C415 1.503 . S
C423 C422 1.370 . S
C423 C424 1.403 . S
C424 C423 1.403 . S
C424 C425 1.404 . S
C424 C427 1.539 . S
C425 C421 1.408 . S
C425 C424 1.404 . S
C425 H437 0.930 . S
C426 C422 1.524 . S
C426 H438 0.956 . S
C426 H439 0.961 . S
C426 H440 0.961 . S
C427 C424 1.539 . S
C427 H441 0.958 . S
C427 H442 0.961 . S
C427 H443 0.960 . S
H428 C412 0.931 . S
H429 C417 0.929 . S
H430 C418 0.960 . S
H431 C418 0.962 . S
H432 C418 0.960 . S
H433 C419 0.961 . S
H434 C419 0.961 . S
H435 C419 0.961 . S
H436 C420 0.931 . S
H437 C425 0.930 . S
H438 C426 0.956 . S
H439 C426 0.961 . S
H440 C426 0.961 . S
H441 C427 0.958 . S
H442 C427 0.961 . S
H443 C427 0.960 . S
C444 C445 1.391 . S
C444 C446 1.394 . S
C444 H460 0.931 . S
C445 C444 1.391 . S
C445 C449 1.376 . S
C446 C444 1.394 . S
C446 C447 1.369 . S
C446 C450 1.531 . S
C447 C446 1.369 . S
C447 C448 1.410 . S
C447 C455 1.503 . S
C448 C447 1.410 . S
C448 C449 1.392 . S
C448 C451 1.511 . S
C449 C445 1.376 . S
C449 C448 1.392 . S
C449 H461 0.929 . S
C450 C446 1.531 . S
C450 H462 0.960 . S
C450 H463 0.962 . S
C450 H464 0.960 . S
C451 C448 1.511 . S
C451 H465 0.961 . S
C451 H466 0.961 . S
C451 H467 0.961 . S
C452 C453 1.370 . S
C452 C454 1.363 . S
C452 H468 0.931 . S
C453 C452 1.370 . S
C453 C457 1.408 . S
C454 C452 1.363 . S
C454 C455 1.370 . S
C454 C458 1.524 . S
C455 C447 1.503 . S
C455 C454 1.370 . S
C455 C456 1.403 . S
C456 C455 1.403 . S
C456 C457 1.404 . S
C456 C459 1.539 . S
C457 C453 1.408 . S
C457 C456 1.404 . S
C457 H469 0.930 . S
C458 C454 1.524 . S
C458 H470 0.956 . S
C458 H471 0.961 . S
C458 H472 0.961 . S
C459 C456 1.539 . S
C459 H473 0.958 . S
C459 H474 0.961 . S
C459 H475 0.960 . S
H460 C444 0.931 . S
H461 C449 0.929 . S
H462 C450 0.960 . S
H463 C450 0.962 . S
H464 C450 0.960 . S
H465 C451 0.961 . S
H466 C451 0.961 . S
H467 C451 0.961 . S
H468 C452 0.931 . S
H469 C457 0.930 . S
H470 C458 0.956 . S
H471 C458 0.961 . S
H472 C458 0.961 . S
H473 C459 0.958 . S
H474 C459 0.961 . S
H475 C459 0.960 . S
C93 C21 1.578 . S
C101 C44 1.585 . S
C125 C64 1.624 . S
C133 C43 1.625 . S
C157 C89 1.603 . S
C165 C65 1.614 . S
C189 C20 1.553 . S
C197 C90 1.573 . S
C221 C87 1.630 . S
C229 C19 1.628 . S
C253 C67 1.574 . S
C261 C42 1.570 . S
C285 C66 1.558 . S
C293 C88 1.553 . S
C317 C41 1.626 1_455 S
C325 C18 1.633 . S
C349 C17 1.272 . S
C357 C16 1.284 . S
C381 C40 1.273 . S
C389 C39 1.283 . S
C413 C63 1.280 . S
C421 C62 1.282 . S
C445 C85 1.281 . S
C453 C86 1.281 . S
