# Generated by pormake.
# Topology lta, (4)-cn, num edge types: 1
# Building blocks:
#     Node 0, Type 0, BuildingBlock: GALJAG_clean_sbu_0, # of connection points: 4
#     Node 1, Type 0, BuildingBlock: GALJAG_clean_sbu_0, # of connection points: 4
#     Node 2, Type 0, BuildingBlock: GALJAG_clean_sbu_0, # of connection points: 4
#     Node 3, Type 0, BuildingBlock: GALJAG_clean_sbu_0, # of connection points: 4
#     Node 4, Type 0, BuildingBlock: GALJAG_clean_sbu_0, # of connection points: 4
#     Node 5, Type 0, BuildingBlock: GALJAG_clean_sbu_0, # of connection points: 4
#     Node 6, Type 0, BuildingBlock: GALJAG_clean_sbu_0, # of connection points: 4
#     Node 7, Type 0, BuildingBlock: GALJAG_clean_sbu_0, # of connection points: 4
#     Node 8, Type 0, BuildingBlock: GALJAG_clean_sbu_0, # of connection points: 4
#     Node 9, Type 0, BuildingBlock: GALJAG_clean_sbu_0, # of connection points: 4
#     Node 10, Type 0, BuildingBlock: GALJAG_clean_sbu_0, # of connection points: 4
#     Node 11, Type 0, BuildingBlock: GALJAG_clean_sbu_0, # of connection points: 4
#     Node 12, Type 0, BuildingBlock: GALJAG_clean_sbu_0, # of connection points: 4
#     Node 13, Type 0, BuildingBlock: GALJAG_clean_sbu_0, # of connection points: 4
#     Node 14, Type 0, BuildingBlock: GALJAG_clean_sbu_0, # of connection points: 4
#     Node 15, Type 0, BuildingBlock: GALJAG_clean_sbu_0, # of connection points: 4
#     Node 16, Type 0, BuildingBlock: GALJAG_clean_sbu_0, # of connection points: 4
#     Node 17, Type 0, BuildingBlock: GALJAG_clean_sbu_0, # of connection points: 4
#     Node 18, Type 0, BuildingBlock: GALJAG_clean_sbu_0, # of connection points: 4
#     Node 19, Type 0, BuildingBlock: GALJAG_clean_sbu_0, # of connection points: 4
#     Node 20, Type 0, BuildingBlock: GALJAG_clean_sbu_0, # of connection points: 4
#     Node 21, Type 0, BuildingBlock: GALJAG_clean_sbu_0, # of connection points: 4
#     Node 22, Type 0, BuildingBlock: GALJAG_clean_sbu_0, # of connection points: 4
#     Node 23, Type 0, BuildingBlock: GALJAG_clean_sbu_0, # of connection points: 4
#     Edge 24, Type (0, 0), BuildingBlock: ZUJKAS_clean_linker_0, # of connection points: 2
#     Edge 25, Type (0, 0), BuildingBlock: ZUJKAS_clean_linker_0, # of connection points: 2
#     Edge 26, Type (0, 0), BuildingBlock: ZUJKAS_clean_linker_0, # of connection points: 2
#     Edge 27, Type (0, 0), BuildingBlock: ZUJKAS_clean_linker_0, # of connection points: 2
#     Edge 28, Type (0, 0), BuildingBlock: ZUJKAS_clean_linker_0, # of connection points: 2
#     Edge 29, Type (0, 0), BuildingBlock: ZUJKAS_clean_linker_0, # of connection points: 2
#     Edge 30, Type (0, 0), BuildingBlock: ZUJKAS_clean_linker_0, # of connection points: 2
#     Edge 31, Type (0, 0), BuildingBlock: ZUJKAS_clean_linker_0, # of connection points: 2
#     Edge 32, Type (0, 0), BuildingBlock: ZUJKAS_clean_linker_0, # of connection points: 2
#     Edge 33, Type (0, 0), BuildingBlock: ZUJKAS_clean_linker_0, # of connection points: 2
#     Edge 34, Type (0, 0), BuildingBlock: ZUJKAS_clean_linker_0, # of connection points: 2
#     Edge 35, Type (0, 0), BuildingBlock: ZUJKAS_clean_linker_0, # of connection points: 2
#     Edge 36, Type (0, 0), BuildingBlock: ZUJKAS_clean_linker_0, # of connection points: 2
#     Edge 37, Type (0, 0), BuildingBlock: ZUJKAS_clean_linker_0, # of connection points: 2
#     Edge 38, Type (0, 0), BuildingBlock: ZUJKAS_clean_linker_0, # of connection points: 2
#     Edge 39, Type (0, 0), BuildingBlock: ZUJKAS_clean_linker_0, # of connection points: 2
#     Edge 40, Type (0, 0), BuildingBlock: ZUJKAS_clean_linker_0, # of connection points: 2
#     Edge 41, Type (0, 0), BuildingBlock: ZUJKAS_clean_linker_0, # of connection points: 2
#     Edge 42, Type (0, 0), BuildingBlock: ZUJKAS_clean_linker_0, # of connection points: 2
#     Edge 43, Type (0, 0), BuildingBlock: ZUJKAS_clean_linker_0, # of connection points: 2
#     Edge 44, Type (0, 0), BuildingBlock: ZUJKAS_clean_linker_0, # of connection points: 2
#     Edge 45, Type (0, 0), BuildingBlock: ZUJKAS_clean_linker_0, # of connection points: 2
#     Edge 46, Type (0, 0), BuildingBlock: ZUJKAS_clean_linker_0, # of connection points: 2
#     Edge 47, Type (0, 0), BuildingBlock: ZUJKAS_clean_linker_0, # of connection points: 2
#     Edge 48, Type (0, 0), BuildingBlock: ZUJKAS_clean_linker_0, # of connection points: 2
#     Edge 49, Type (0, 0), BuildingBlock: ZUJKAS_clean_linker_0, # of connection points: 2
#     Edge 50, Type (0, 0), BuildingBlock: ZUJKAS_clean_linker_0, # of connection points: 2
#     Edge 51, Type (0, 0), BuildingBlock: ZUJKAS_clean_linker_0, # of connection points: 2
#     Edge 52, Type (0, 0), BuildingBlock: ZUJKAS_clean_linker_0, # of connection points: 2
#     Edge 53, Type (0, 0), BuildingBlock: ZUJKAS_clean_linker_0, # of connection points: 2
#     Edge 54, Type (0, 0), BuildingBlock: ZUJKAS_clean_linker_0, # of connection points: 2
#     Edge 55, Type (0, 0), BuildingBlock: ZUJKAS_clean_linker_0, # of connection points: 2
#     Edge 56, Type (0, 0), BuildingBlock: ZUJKAS_clean_linker_0, # of connection points: 2
#     Edge 57, Type (0, 0), BuildingBlock: ZUJKAS_clean_linker_0, # of connection points: 2
#     Edge 58, Type (0, 0), BuildingBlock: ZUJKAS_clean_linker_0, # of connection points: 2
#     Edge 59, Type (0, 0), BuildingBlock: ZUJKAS_clean_linker_0, # of connection points: 2
#     Edge 60, Type (0, 0), BuildingBlock: ZUJKAS_clean_linker_0, # of connection points: 2
#     Edge 61, Type (0, 0), BuildingBlock: ZUJKAS_clean_linker_0, # of connection points: 2
#     Edge 62, Type (0, 0), BuildingBlock: ZUJKAS_clean_linker_0, # of connection points: 2
#     Edge 63, Type (0, 0), BuildingBlock: ZUJKAS_clean_linker_0, # of connection points: 2
#     Edge 64, Type (0, 0), BuildingBlock: ZUJKAS_clean_linker_0, # of connection points: 2
#     Edge 65, Type (0, 0), BuildingBlock: ZUJKAS_clean_linker_0, # of connection points: 2
#     Edge 66, Type (0, 0), BuildingBlock: ZUJKAS_clean_linker_0, # of connection points: 2
#     Edge 67, Type (0, 0), BuildingBlock: ZUJKAS_clean_linker_0, # of connection points: 2
#     Edge 68, Type (0, 0), BuildingBlock: ZUJKAS_clean_linker_0, # of connection points: 2
#     Edge 69, Type (0, 0), BuildingBlock: ZUJKAS_clean_linker_0, # of connection points: 2
#     Edge 70, Type (0, 0), BuildingBlock: ZUJKAS_clean_linker_0, # of connection points: 2
#     Edge 71, Type (0, 0), BuildingBlock: ZUJKAS_clean_linker_0, # of connection points: 2
# Relax obj value: 0.417
# Max RMSD: 0.229
# Mean RMSD: 0.229
data_MOF--net-lta--node1-GALJAG_clean_sbu_0--edge1-ZUJKAS_clean_linker_0
_symmetry_space_group_name_H-M    P1
_symmetry_Int_Tables_number       1
_symmetry_cell_setting            triclinic
loop_
_symmetry_equiv_pos_as_xyz
'x, y, z'
_cell_length_a     72.953875
_cell_length_b     73.020709
_cell_length_c     72.973079
_cell_angle_alpha  90.024325
_cell_angle_beta   89.98563
_cell_angle_gamma 89.980563
loop_
_atom_site_label
_atom_site_type_symbol
_atom_site_fract_x
_atom_site_fract_y
_atom_site_fract_z
_atom_type_partial_charge
In0 In 0.13038 0.30992 0.48097 0.0
O1 O 0.14733 0.32809 0.4998 0.0
O2 O 0.13249 0.30609 0.51182 0.0
C3 C 0.13484 0.33405 0.45343 0.0
C4 C 0.15077 0.27953 0.4768 0.0
C5 C 0.09357 0.30879 0.48342 0.0
O6 O 0.13581 0.33847 0.4701 0.0
O7 O 0.13158 0.31732 0.45054 0.0
O8 O 0.1022 0.29984 0.4714 0.0
O9 O 0.10345 0.31833 0.49384 0.0
C10 C 0.14297 0.31962 0.51424 0.0
O11 O 0.13421 0.27898 0.48169 0.0
O12 O 0.15679 0.29533 0.47337 0.0
In13 In 0.6816 0.12438 0.46972 0.0
O14 O 0.65725 0.12887 0.4887 0.0
O15 O 0.68319 0.12395 0.50095 0.0
C16 C 0.66322 0.13267 0.43874 0.0
C17 C 0.70871 0.14929 0.47029 0.0
C18 C 0.68715 0.08798 0.47002 0.0
O19 O 0.65836 0.13813 0.45438 0.0
O20 O 0.67763 0.12311 0.43858 0.0
O21 O 0.70014 0.09933 0.47101 0.0
O22 O 0.67143 0.09501 0.46844 0.0
C23 C 0.66637 0.12717 0.50328 0.0
O24 O 0.71125 0.13307 0.46494 0.0
O25 O 0.69244 0.15301 0.47474 0.0
In26 In 0.86535 0.67611 0.47914 0.0
O27 O 0.85873 0.70622 0.47466 0.0
O28 O 0.83655 0.68778 0.47868 0.0
C29 C 0.90203 0.67941 0.47909 0.0
C30 C 0.85882 0.66582 0.51406 0.0
C31 C 0.86017 0.65482 0.44943 0.0
O32 O 0.89152 0.69307 0.4777 0.0
O33 O 0.89402 0.66415 0.48017 0.0
O34 O 0.85956 0.64876 0.46559 0.0
O35 O 0.86323 0.67178 0.44817 0.0
C36 C 0.84164 0.70408 0.47617 0.0
O37 O 0.85168 0.65783 0.5005 0.0
O38 O 0.86915 0.67903 0.51001 0.0
In39 In 0.3059 0.87221 0.47331 0.0
O40 O 0.30812 0.86169 0.50269 0.0
O41 O 0.3268 0.88229 0.49423 0.0
C42 C 0.33011 0.86613 0.44606 0.0
C43 C 0.28182 0.84477 0.46889 0.0
C44 C 0.29029 0.90563 0.47392 0.0
O45 O 0.33384 0.86374 0.46274 0.0
O46 O 0.31399 0.87162 0.44296 0.0
O47 O 0.28398 0.89223 0.48279 0.0
O48 O 0.30434 0.9021 0.46447 0.0
C49 C 0.3214 0.87188 0.5069 0.0
O50 O 0.27778 0.86122 0.4655 0.0
O51 O 0.29814 0.84216 0.47395 0.0
In52 In 0.13076 0.67711 0.51531 0.0
O53 O 0.14127 0.65643 0.49441 0.0
O54 O 0.12815 0.68035 0.48434 0.0
C55 C 0.13774 0.65729 0.54566 0.0
C56 C 0.15418 0.70552 0.51593 0.0
C57 C 0.094 0.67919 0.51583 0.0
O58 O 0.14164 0.65189 0.52972 0.0
O59 O 0.13042 0.67294 0.54643 0.0
O60 O 0.10408 0.69285 0.51911 0.0
O61 O 0.10249 0.66445 0.51278 0.0
C62 C 0.13601 0.66544 0.48063 0.0
O63 O 0.13704 0.70762 0.51637 0.0
O64 O 0.15948 0.6891 0.51586 0.0
In65 In 0.31112 0.12009 0.5207 0.0
O66 O 0.33381 0.13264 0.50321 0.0
O67 O 0.31718 0.11224 0.49098 0.0
C68 C 0.3331 0.12251 0.55029 0.0
C69 C 0.28615 0.14704 0.52098 0.0
C70 C 0.29421 0.0873 0.5206 0.0
O71 O 0.33594 0.11149 0.53731 0.0
O72 O 0.31891 0.13224 0.54857 0.0
O73 O 0.28769 0.10113 0.51259 0.0
O74 O 0.30909 0.0901 0.52894 0.0
C75 C 0.33026 0.12332 0.48913 0.0
O76 O 0.28414 0.13259 0.53027 0.0
O77 O 0.30095 0.14803 0.5121 0.0
In78 In 0.86198 0.31541 0.51107 0.0
O79 O 0.85308 0.33911 0.49291 0.0
O80 O 0.85604 0.31291 0.48051 0.0
C81 C 0.85681 0.33488 0.54209 0.0
C82 C 0.84163 0.28475 0.51316 0.0
C83 C 0.89864 0.31376 0.50755 0.0
O84 O 0.8475 0.33746 0.52777 0.0
O85 O 0.86854 0.32226 0.54088 0.0
O86 O 0.88978 0.30248 0.51719 0.0
O87 O 0.88905 0.32596 0.49998 0.0
C88 C 0.85217 0.32963 0.47847 0.0
O89 O 0.8583 0.28457 0.50869 0.0
O90 O 0.83533 0.30035 0.51703 0.0
In91 In 0.68178 0.86355 0.52213 0.0
O92 O 0.71225 0.85686 0.5227 0.0
O93 O 0.69335 0.83473 0.52191 0.0
C94 C 0.68614 0.90002 0.5198 0.0
C95 C 0.66627 0.85838 0.48898 0.0
C96 C 0.66421 0.85684 0.55396 0.0
O97 O 0.69937 0.88935 0.52298 0.0
O98 O 0.67074 0.89231 0.5184 0.0
O99 O 0.66006 0.84918 0.53907 0.0
O100 O 0.67755 0.86779 0.55296 0.0
C101 C 0.70987 0.83977 0.52196 0.0
O102 O 0.65707 0.85915 0.5036 0.0
O103 O 0.68333 0.86007 0.49108 0.0
In104 In 0.47627 0.12587 0.31159 0.0
O105 O 0.46887 0.13187 0.28176 0.0
O106 O 0.47709 0.15406 0.29865 0.0
C107 C 0.47845 0.08928 0.30824 0.0
C108 C 0.51054 0.1315 0.3243 0.0
C109 C 0.44646 0.13246 0.33246 0.0
O110 O 0.47774 0.09978 0.29453 0.0
O111 O 0.47777 0.09724 0.32357 0.0
O112 O 0.46146 0.14075 0.33452 0.0
O113 O 0.44624 0.12108 0.31945 0.0
C114 C 0.47224 0.14875 0.28296 0.0
O115 O 0.49645 0.1334 0.33411 0.0
O116 O 0.5074 0.12678 0.30799 0.0
In117 In 0.86541 0.4768 0.30796 0.0
O118 O 0.8616 0.48096 0.27721 0.0
O119 O 0.83821 0.4741 0.29304 0.0
C120 C 0.90212 0.47371 0.30743 0.0
C121 C 0.85924 0.51085 0.32107 0.0
C122 C 0.85657 0.44723 0.32813 0.0
O123 O 0.89238 0.4701 0.29358 0.0
O124 O 0.89327 0.47829 0.32156 0.0
O125 O 0.85515 0.46343 0.3339 0.0
O126 O 0.86254 0.44576 0.31194 0.0
C127 C 0.84457 0.47816 0.27752 0.0
O128 O 0.85021 0.49709 0.32623 0.0
O129 O 0.87126 0.5075 0.30913 0.0
In130 In 0.51992 0.86162 0.31638 0.0
O131 O 0.51968 0.8551 0.28584 0.0
O132 O 0.51973 0.83285 0.30456 0.0
C133 C 0.51869 0.8982 0.31254 0.0
C134 C 0.48677 0.85679 0.33204 0.0
C135 C 0.55169 0.85483 0.33404 0.0
O136 O 0.52205 0.88764 0.29926 0.0
O137 O 0.51644 0.89031 0.32775 0.0
O138 O 0.53679 0.84711 0.33806 0.0
O139 O 0.55074 0.86582 0.32074 0.0
C140 C 0.51924 0.83799 0.28809 0.0
O141 O 0.50156 0.85576 0.34091 0.0
O142 O 0.48868 0.86018 0.31521 0.0
In143 In 0.12958 0.51779 0.31439 0.0
O144 O 0.13447 0.50123 0.34034 0.0
O145 O 0.13221 0.48665 0.31528 0.0
C146 C 0.13717 0.55062 0.32959 0.0
C147 C 0.15297 0.51558 0.286 0.0
C148 C 0.09298 0.51586 0.31058 0.0
O149 O 0.14473 0.53592 0.33451 0.0
O150 O 0.12586 0.54893 0.31663 0.0
O151 O 0.10365 0.5168 0.29701 0.0
O152 O 0.10075 0.51641 0.32601 0.0
C153 C 0.13458 0.48591 0.33237 0.0
O154 O 0.13586 0.51674 0.28381 0.0
O155 O 0.15823 0.5161 0.30244 0.0
In156 In 0.47506 0.86797 0.67737 0.0
O157 O 0.46968 0.85978 0.707 0.0
O158 O 0.47583 0.83873 0.68786 0.0
C159 C 0.47604 0.90438 0.68275 0.0
C160 C 0.50976 0.86195 0.66606 0.0
C161 C 0.44545 0.86389 0.65565 0.0
O162 O 0.47508 0.89314 0.69584 0.0
O163 O 0.47605 0.89724 0.66701 0.0
O164 O 0.46169 0.86265 0.6499 0.0
O165 O 0.44398 0.86703 0.6726 0.0
C166 C 0.47247 0.84296 0.70427 0.0
O167 O 0.49601 0.85545 0.65786 0.0
O168 O 0.50602 0.87142 0.68 0.0
In169 In 0.13037 0.47169 0.67719 0.0
O170 O 0.13836 0.46904 0.70724 0.0
O171 O 0.15932 0.47513 0.68797 0.0
C172 C 0.09374 0.47119 0.68166 0.0
C173 C 0.13388 0.5054 0.66254 0.0
C174 C 0.13909 0.44051 0.65939 0.0
O175 O 0.10473 0.47123 0.69499 0.0
O176 O 0.10124 0.47094 0.66609 0.0
O177 O 0.14288 0.45622 0.65336 0.0
O178 O 0.1308 0.4404 0.67456 0.0
C179 C 0.15506 0.47251 0.70449 0.0
O180 O 0.13638 0.49093 0.65345 0.0
O181 O 0.12952 0.50291 0.67907 0.0
In182 In 0.5221 0.12992 0.67934 0.0
O183 O 0.52002 0.13509 0.71004 0.0
O184 O 0.52558 0.1578 0.69282 0.0
C185 C 0.5227 0.09329 0.6822 0.0
C186 C 0.48787 0.13665 0.66693 0.0
C187 C 0.55162 0.13521 0.65779 0.0
O188 O 0.52711 0.10361 0.69538 0.0
O189 O 0.51866 0.10149 0.66753 0.0
O190 O 0.53539 0.13768 0.65246 0.0
O191 O 0.55315 0.13015 0.67426 0.0
C192 C 0.5226 0.15209 0.70883 0.0
O193 O 0.50158 0.14584 0.66183 0.0
O194 O 0.49139 0.12433 0.67847 0.0
In195 In 0.86727 0.51827 0.68068 0.0
O196 O 0.86068 0.51796 0.71123 0.0
O197 O 0.83856 0.51623 0.69234 0.0
C198 C 0.90389 0.51631 0.68463 0.0
C199 C 0.8627 0.48615 0.66298 0.0
C200 C 0.85936 0.55076 0.66496 0.0
O201 O 0.8932 0.51741 0.69819 0.0
O202 O 0.89611 0.51677 0.66921 0.0
O203 O 0.85218 0.53587 0.66007 0.0
O204 O 0.87045 0.54944 0.67817 0.0
C205 C 0.84363 0.51636 0.70886 0.0
O206 O 0.86359 0.50131 0.65479 0.0
O207 O 0.86399 0.48715 0.68018 0.0
In208 In 0.31572 0.47301 0.1299 0.0
O209 O 0.28631 0.46578 0.13754 0.0
O210 O 0.30437 0.47402 0.15882 0.0
C211 C 0.31097 0.47407 0.09334 0.0
C212 C 0.32661 0.50777 0.13621 0.0
C213 C 0.338 0.44405 0.13525 0.0
O214 O 0.29769 0.47372 0.1044 0.0
O215 O 0.32658 0.47335 0.10073 0.0
O216 O 0.34337 0.46042 0.13599 0.0
O217 O 0.32118 0.4421 0.13171 0.0
C218 C 0.28841 0.46919 0.15435 0.0
O219 O 0.33506 0.49404 0.14239 0.0
O220 O 0.3125 0.50401 0.12699 0.0
In221 In 0.31325 0.51686 0.8663 0.0
O222 O 0.33423 0.49642 0.85563 0.0
O223 O 0.30987 0.48577 0.86744 0.0
C224 C 0.33375 0.54702 0.86077 0.0
C225 C 0.28577 0.51869 0.84183 0.0
C226 C 0.30987 0.51656 0.90298 0.0
O227 O 0.33929 0.53105 0.85731 0.0
O228 O 0.31763 0.54793 0.86701 0.0
O229 O 0.29663 0.52039 0.89254 0.0
O230 O 0.32481 0.51333 0.89491 0.0
C231 C 0.32508 0.48243 0.85995 0.0
O232 O 0.28296 0.51792 0.85885 0.0
O233 O 0.30241 0.51908 0.83724 0.0
In234 In 0.47191 0.31269 0.86573 0.0
O235 O 0.46752 0.28279 0.85776 0.0
O236 O 0.47466 0.30169 0.83683 0.0
C237 C 0.47282 0.3085 0.90232 0.0
C238 C 0.5058 0.32678 0.86144 0.0
C239 C 0.44072 0.33113 0.85853 0.0
O240 O 0.4732 0.29509 0.89143 0.0
O241 O 0.47153 0.32397 0.89475 0.0
O242 O 0.45629 0.33645 0.8533 0.0
O243 O 0.44075 0.31629 0.86739 0.0
C244 C 0.47117 0.28534 0.84106 0.0
O245 O 0.49143 0.33598 0.85872 0.0
O246 O 0.5031 0.31046 0.86635 0.0
In247 In 0.67658 0.47289 0.86244 0.0
O248 O 0.65218 0.49085 0.85531 0.0
O249 O 0.67703 0.50422 0.86239 0.0
C250 C 0.65919 0.44114 0.85491 0.0
C251 C 0.70553 0.47295 0.83955 0.0
C252 C 0.67949 0.47437 0.89914 0.0
O253 O 0.65495 0.45619 0.84764 0.0
O254 O 0.6726 0.44192 0.86579 0.0
O255 O 0.69332 0.47396 0.88875 0.0
O256 O 0.66425 0.47366 0.89101 0.0
C257 C 0.66046 0.5058 0.85774 0.0
O258 O 0.70709 0.46963 0.85643 0.0
O259 O 0.68937 0.47582 0.83421 0.0
In260 In 0.51606 0.68545 0.86585 0.0
O261 O 0.52109 0.71515 0.85757 0.0
O262 O 0.51773 0.69542 0.83647 0.0
C263 C 0.51344 0.69775 0.90055 0.0
C264 C 0.48337 0.6684 0.8634 0.0
C265 C 0.54392 0.66201 0.85982 0.0
O266 O 0.52614 0.6872 0.8954 0.0
O267 O 0.50248 0.70248 0.88807 0.0
O268 O 0.52751 0.65848 0.85573 0.0
O269 O 0.54645 0.67762 0.86683 0.0
C270 C 0.52003 0.712 0.84062 0.0
O271 O 0.49603 0.6629 0.87381 0.0
O272 O 0.48727 0.68238 0.85406 0.0
In273 In 0.67731 0.52054 0.12698 0.0
O274 O 0.70773 0.52548 0.13203 0.0
O275 O 0.6908 0.51955 0.15497 0.0
C276 C 0.67979 0.51686 0.09039 0.0
C277 C 0.66272 0.48726 0.13365 0.0
C278 C 0.65943 0.55222 0.13358 0.0
O279 O 0.69374 0.51805 0.10054 0.0
O280 O 0.66466 0.51797 0.09866 0.0
O281 O 0.65577 0.53748 0.14176 0.0
O282 O 0.67238 0.55112 0.12219 0.0
C283 C 0.70669 0.5229 0.14908 0.0
O284 O 0.65338 0.50179 0.13397 0.0
O285 O 0.6795 0.48951 0.1302 0.0
In286 In 0.47227 0.68042 0.12556 0.0
O287 O 0.46976 0.71024 0.13438 0.0
O288 O 0.47325 0.69022 0.15515 0.0
C289 C 0.47166 0.68683 0.08928 0.0
C290 C 0.50674 0.6678 0.13022 0.0
C291 C 0.44215 0.65964 0.13084 0.0
O292 O 0.46934 0.69932 0.10099 0.0
O293 O 0.47388 0.67101 0.09587 0.0
O294 O 0.45825 0.65361 0.13232 0.0
O295 O 0.44107 0.67635 0.12662 0.0
C296 C 0.47161 0.70693 0.15122 0.0
O297 O 0.49281 0.65949 0.13613 0.0
O298 O 0.50334 0.68255 0.12193 0.0
In299 In 0.52189 0.30972 0.1291 0.0
O300 O 0.50419 0.33409 0.13724 0.0
O301 O 0.49098 0.30842 0.13387 0.0
C302 C 0.55354 0.3277 0.13576 0.0
C303 C 0.522 0.27887 0.1493 0.0
C304 C 0.51868 0.30842 0.09244 0.0
O305 O 0.53938 0.32959 0.14544 0.0
O306 O 0.552 0.31625 0.1229 0.0
O307 O 0.52526 0.29529 0.10158 0.0
O308 O 0.51428 0.3223 0.10175 0.0
C309 C 0.48939 0.32518 0.13767 0.0
O310 O 0.51948 0.27878 0.13222 0.0
O311 O 0.52519 0.29444 0.15604 0.0
H312 H 0.13394 0.45122 0.31833 0.0
H313 H 0.13661 0.42237 0.3353 0.0
H314 H 0.14287 0.45254 0.38574 0.0
H315 H 0.14035 0.48137 0.36892 0.0
H316 H 0.16855 0.42279 0.38027 0.0
H317 H 0.09572 0.40234 0.36965 0.0
H318 H 0.10885 0.40805 0.34959 0.0
H319 H 0.10355 0.42551 0.36606 0.0
C320 C 0.13594 0.45168 0.33303 0.0
C321 C 0.13684 0.46852 0.34234 0.0
C322 C 0.1374 0.43522 0.34268 0.0
C323 C 0.13974 0.43539 0.36175 0.0
C324 C 0.14104 0.45217 0.371 0.0
H325 H 0.14284 0.37019 0.457 0.0
H326 H 0.14574 0.39296 0.43273 0.0
C327 C 0.13955 0.46861 0.36139 0.0
C328 C 0.14051 0.41817 0.37231 0.0
H329 H 0.11385 0.38317 0.38805 0.0
C330 C 0.15667 0.41399 0.38183 0.0
C331 C 0.12501 0.40671 0.37416 0.0
C332 C 0.10722 0.41084 0.36445 0.0
C333 C 0.15758 0.39889 0.39364 0.0
C334 C 0.1418 0.38795 0.39621 0.0
C335 C 0.1259 0.39163 0.38604 0.0
C336 C 0.14093 0.37378 0.41063 0.0
C337 C 0.17534 0.39492 0.40346 0.0
C338 C 0.13688 0.35551 0.40624 0.0
C339 C 0.1351 0.34244 0.42014 0.0
C340 C 0.13718 0.34754 0.4386 0.0
C341 C 0.14124 0.36584 0.4429 0.0
C342 C 0.14304 0.37884 0.42904 0.0
H343 H 0.18727 0.40055 0.39585 0.0
H344 H 0.17504 0.40151 0.41716 0.0
H345 H 0.17736 0.37997 0.40537 0.0
H346 H 0.13502 0.35141 0.39209 0.0
H347 H 0.13191 0.32843 0.41645 0.0
H348 H 0.66886 0.11993 0.40388 0.0
H349 H 0.64807 0.12299 0.37762 0.0
H350 H 0.61129 0.1555 0.41062 0.0
H351 H 0.63202 0.15281 0.4366 0.0
H352 H 0.61349 0.10997 0.37706 0.0
H353 H 0.61124 0.18424 0.36358 0.0
H354 H 0.62916 0.17381 0.37711 0.0
H355 H 0.60749 0.17972 0.38742 0.0
C356 C 0.65653 0.12806 0.40536 0.0
C357 C 0.65203 0.13611 0.42227 0.0
C358 C 0.64469 0.1298 0.39038 0.0
C359 C 0.62829 0.13973 0.39207 0.0
C360 C 0.6241 0.14821 0.40881 0.0
H361 H 0.52005 0.14438 0.35793 0.0
H362 H 0.55085 0.14704 0.37081 0.0
C363 C 0.63589 0.14651 0.42373 0.0
C364 C 0.61437 0.13946 0.37731 0.0
H365 H 0.58384 0.16703 0.35507 0.0
C366 C 0.60733 0.12243 0.37181 0.0
C367 C 0.60639 0.15573 0.37045 0.0
C368 C 0.61412 0.17438 0.37481 0.0
C369 C 0.59162 0.12127 0.3608 0.0
C370 C 0.58287 0.13756 0.35512 0.0
C371 C 0.59057 0.15457 0.35961 0.0
C372 C 0.56461 0.13716 0.34648 0.0
C373 C 0.58374 0.10269 0.35633 0.0
C374 C 0.56227 0.13096 0.32844 0.0
C375 C 0.54466 0.12946 0.32101 0.0
C376 C 0.52921 0.13406 0.33159 0.0
C377 C 0.53169 0.14066 0.34949 0.0
C378 C 0.54926 0.14226 0.35684 0.0
H379 H 0.59142 0.0914 0.36304 0.0
H380 H 0.56918 0.102 0.36071 0.0
H381 H 0.58414 0.1005 0.34129 0.0
H382 H 0.57402 0.12705 0.32025 0.0
H383 H 0.54312 0.12437 0.30716 0.0
H384 H 0.8561 0.61784 0.44944 0.0
H385 H 0.85503 0.5974 0.42295 0.0
H386 H 0.85904 0.64376 0.38662 0.0
H387 H 0.86022 0.66446 0.41317 0.0
H388 H 0.82999 0.61299 0.37904 0.0
H389 H 0.90238 0.59086 0.38801 0.0
H390 H 0.88866 0.59148 0.40851 0.0
H391 H 0.8938 0.61241 0.3967 0.0
C392 C 0.85663 0.62373 0.43583 0.0
C393 C 0.85834 0.64273 0.43335 0.0
C394 C 0.85604 0.61204 0.42074 0.0
C395 C 0.85709 0.61914 0.40294 0.0
C396 C 0.85825 0.63811 0.40032 0.0
H397 H 0.87931 0.54167 0.31444 0.0
H398 H 0.87783 0.57077 0.33108 0.0
C399 C 0.85894 0.64987 0.41546 0.0
C400 C 0.85757 0.60646 0.38724 0.0
H401 H 0.8838 0.57277 0.36835 0.0
C402 C 0.84182 0.60436 0.37645 0.0
C403 C 0.87312 0.59546 0.38384 0.0
C404 C 0.89054 0.59768 0.39475 0.0
C405 C 0.8409 0.59075 0.36288 0.0
C406 C 0.85607 0.57896 0.36028 0.0
C407 C 0.87216 0.58179 0.37042 0.0
C408 C 0.85514 0.56262 0.34834 0.0
C409 C 0.82363 0.58889 0.35168 0.0
C410 C 0.84274 0.54852 0.35244 0.0
C411 C 0.84359 0.5319 0.34302 0.0
C412 C 0.85693 0.52909 0.32942 0.0
C413 C 0.86888 0.54347 0.32485 0.0
C414 C 0.86805 0.56009 0.33432 0.0
H415 H 0.8159 0.602 0.35118 0.0
H416 H 0.82675 0.58446 0.33746 0.0
H417 H 0.81464 0.57844 0.35808 0.0
H418 H 0.83295 0.55005 0.36349 0.0
H419 H 0.83423 0.52105 0.34685 0.0
H420 H 0.36542 0.85521 0.45034 0.0
H421 H 0.38867 0.85129 0.42664 0.0
H422 H 0.34913 0.86583 0.38517 0.0
H423 H 0.32571 0.87009 0.40898 0.0
H424 H 0.38904 0.82804 0.39589 0.0
H425 H 0.39164 0.90174 0.37628 0.0
H426 H 0.38059 0.894 0.397 0.0
H427 H 0.36958 0.89082 0.37522 0.0
C428 C 0.36163 0.85755 0.43618 0.0
C429 C 0.34379 0.86308 0.4315 0.0
C430 C 0.37492 0.85525 0.42266 0.0
C431 C 0.37065 0.85846 0.40421 0.0
C432 C 0.35274 0.86357 0.39939 0.0
H433 H 0.45307 0.86158 0.31644 0.0
H434 H 0.42315 0.86008 0.3317 0.0
C435 C 0.33939 0.86593 0.41296 0.0
C436 C 0.38527 0.85675 0.39028 0.0
H437 H 0.41259 0.88198 0.36194 0.0
C438 C 0.39407 0.83977 0.38828 0.0
C439 C 0.39171 0.87208 0.38034 0.0
C440 C 0.38303 0.89075 0.38233 0.0
C441 C 0.40955 0.83785 0.37707 0.0
C442 C 0.4165 0.85337 0.36784 0.0
C443 C 0.40719 0.87013 0.36909 0.0
C444 C 0.43432 0.85295 0.35822 0.0
C445 C 0.41855 0.81931 0.37546 0.0
C446 C 0.45042 0.84951 0.36813 0.0
C447 C 0.46746 0.85043 0.35951 0.0
C448 C 0.46868 0.85487 0.34083 0.0
C449 C 0.45252 0.85808 0.33085 0.0
C450 C 0.43545 0.85723 0.33952 0.0
H451 H 0.40877 0.8081 0.37865 0.0
H452 H 0.42417 0.81712 0.36149 0.0
H453 H 0.43004 0.81846 0.38539 0.0
H454 H 0.44984 0.84656 0.38267 0.0
H455 H 0.47969 0.84796 0.36756 0.0
H456 H 0.12695 0.53854 0.67861 0.0
H457 H 0.12972 0.56895 0.66452 0.0
H458 H 0.1481 0.54399 0.6142 0.0
H459 H 0.14539 0.51367 0.62809 0.0
H460 H 0.1695 0.57601 0.62825 0.0
H461 H 0.09408 0.58747 0.62274 0.0
H462 H 0.10347 0.58047 0.64446 0.0
H463 H 0.10363 0.56482 0.62553 0.0
C464 C 0.13162 0.53957 0.66456 0.0
C465 C 0.13587 0.52376 0.65439 0.0
C466 C 0.13317 0.55691 0.65656 0.0
C467 C 0.13902 0.55862 0.63834 0.0
C468 C 0.14357 0.54289 0.6283 0.0
H469 H 0.15464 0.62421 0.54678 0.0
H470 H 0.15663 0.60324 0.57264 0.0
C471 C 0.14195 0.5256 0.63623 0.0
C472 C 0.14002 0.57666 0.62931 0.0
H473 H 0.11332 0.60857 0.60809 0.0
C474 C 0.15726 0.58334 0.62409 0.0
C475 C 0.12401 0.58623 0.62413 0.0
C476 C 0.10519 0.57945 0.62938 0.0
C477 C 0.15887 0.59894 0.61302 0.0
C478 C 0.1428 0.60775 0.60671 0.0
C479 C 0.12561 0.60175 0.61292 0.0
C480 C 0.14333 0.62152 0.59186 0.0
C481 C 0.17775 0.60554 0.60778 0.0
C482 C 0.135 0.63872 0.59402 0.0
C483 C 0.13372 0.65075 0.57914 0.0
C484 C 0.14058 0.64561 0.56189 0.0
C485 C 0.14928 0.62857 0.55992 0.0
C486 C 0.15058 0.61662 0.57474 0.0
H487 H 0.18798 0.60195 0.61846 0.0
H488 H 0.18201 0.59876 0.59485 0.0
H489 H 0.17797 0.6206 0.60564 0.0
H490 H 0.12915 0.64265 0.60709 0.0
H491 H 0.12689 0.66379 0.58102 0.0
H492 H 0.36107 0.0997 0.55923 0.0
H493 H 0.3847 0.10454 0.5824 0.0
H494 H 0.35883 0.15523 0.59842 0.0
H495 H 0.33476 0.15018 0.57552 0.0
H496 H 0.40823 0.13305 0.58212 0.0
H497 H 0.36974 0.13178 0.6478 0.0
H498 H 0.36013 0.12345 0.62658 0.0
H499 H 0.36108 0.14763 0.63109 0.0
C500 C 0.36023 0.11172 0.5679 0.0
C501 C 0.34613 0.12459 0.56558 0.0
C502 C 0.37374 0.11448 0.58111 0.0
C503 C 0.37347 0.13018 0.5922 0.0
C504 C 0.35911 0.14284 0.59026 0.0
H505 H 0.47618 0.16384 0.64407 0.0
H506 H 0.44711 0.16507 0.62732 0.0
C507 C 0.34543 0.13999 0.57712 0.0
C508 C 0.3891 0.13387 0.60457 0.0
H509 H 0.40117 0.1399 0.64937 0.0
C510 C 0.40669 0.13459 0.59682 0.0
C511 C 0.38701 0.13583 0.62374 0.0
C512 C 0.3685 0.13448 0.63287 0.0
C513 C 0.42232 0.1368 0.60772 0.0
C514 C 0.42026 0.13893 0.62688 0.0
C515 C 0.40265 0.1385 0.63465 0.0
C516 C 0.4364 0.14007 0.63911 0.0
C517 C 0.44092 0.13605 0.59864 0.0
C518 C 0.43949 0.12622 0.65206 0.0
C519 C 0.45593 0.12564 0.66182 0.0
C520 C 0.46956 0.13887 0.65871 0.0
C521 C 0.46598 0.15335 0.64656 0.0
C522 C 0.44944 0.15403 0.63695 0.0
H523 H 0.4402 0.13003 0.58467 0.0
H524 H 0.44644 0.15015 0.59735 0.0
H525 H 0.4507 0.12785 0.60692 0.0
H526 H 0.42956 0.11536 0.65398 0.0
H527 H 0.45829 0.11436 0.67117 0.0
H528 H 0.85902 0.45188 0.67761 0.0
H529 H 0.85735 0.42272 0.66093 0.0
H530 H 0.86072 0.45179 0.60962 0.0
H531 H 0.86238 0.48089 0.62609 0.0
H532 H 0.83102 0.41183 0.63191 0.0
H533 H 0.90363 0.41336 0.60918 0.0
H534 H 0.89525 0.42688 0.62817 0.0
H535 H 0.89115 0.43418 0.60502 0.0
C536 C 0.85935 0.45203 0.66277 0.0
C537 C 0.86092 0.46862 0.65312 0.0
C538 C 0.85837 0.4354 0.6533 0.0
C539 C 0.85914 0.43518 0.63411 0.0
C540 C 0.86035 0.45173 0.62446 0.0
H541 H 0.83287 0.36303 0.54737 0.0
H542 H 0.83263 0.38497 0.57264 0.0
C543 C 0.86123 0.46832 0.63388 0.0
C544 C 0.85882 0.4177 0.62396 0.0
H545 H 0.88396 0.3922 0.59398 0.0
C546 C 0.84264 0.40735 0.62379 0.0
C547 C 0.87413 0.41181 0.61367 0.0
C548 C 0.8921 0.42202 0.61409 0.0
C549 C 0.84106 0.39168 0.61275 0.0
C550 C 0.85599 0.38645 0.60155 0.0
C551 C 0.87248 0.3963 0.6025 0.0
C552 C 0.8545 0.37174 0.5877 0.0
C553 C 0.82337 0.381 0.61299 0.0
C554 C 0.8669 0.35705 0.58779 0.0
C555 C 0.86714 0.34455 0.57329 0.0
C556 C 0.8551 0.34667 0.55841 0.0
C557 C 0.84228 0.36103 0.55868 0.0
C558 C 0.84203 0.3735 0.57318 0.0
H559 H 0.81575 0.38314 0.62601 0.0
H560 H 0.81451 0.38576 0.60158 0.0
H561 H 0.82591 0.36612 0.61116 0.0
H562 H 0.87672 0.35556 0.59882 0.0
H563 H 0.87718 0.33361 0.57343 0.0
H564 H 0.54124 0.87628 0.68034 0.0
H565 H 0.57231 0.87369 0.6678 0.0
H566 H 0.55193 0.83935 0.62425 0.0
H567 H 0.5209 0.84175 0.63673 0.0
H568 H 0.58638 0.82753 0.64131 0.0
H569 H 0.58596 0.90066 0.61929 0.0
H570 H 0.58092 0.89586 0.64293 0.0
H571 H 0.56521 0.8887 0.62543 0.0
C572 C 0.54343 0.86805 0.66819 0.0
C573 C 0.52866 0.85934 0.6594 0.0
C574 C 0.56115 0.86661 0.66105 0.0
C575 C 0.56431 0.85648 0.64503 0.0
C576 C 0.54971 0.84723 0.63664 0.0
H577 H 0.63551 0.83366 0.55874 0.0
H578 H 0.61443 0.83255 0.58459 0.0
C579 C 0.53201 0.84867 0.64373 0.0
C580 C 0.58252 0.85632 0.63622 0.0
H581 H 0.61088 0.8827 0.61013 0.0
C582 C 0.59192 0.83963 0.63471 0.0
C583 C 0.58973 0.87218 0.62779 0.0
C584 C 0.57996 0.89038 0.62878 0.0
C585 C 0.60805 0.83823 0.62434 0.0
C586 C 0.61465 0.85384 0.61496 0.0
C587 C 0.6058 0.87075 0.61735 0.0
C588 C 0.62911 0.8526 0.6008 0.0
C589 C 0.61765 0.81997 0.62322 0.0
C590 C 0.64438 0.86429 0.60127 0.0
C591 C 0.65641 0.86509 0.58636 0.0
C592 C 0.65321 0.85432 0.57072 0.0
C593 C 0.63835 0.8421 0.57062 0.0
C594 C 0.62637 0.84132 0.58548 0.0
H595 H 0.61525 0.81175 0.6358 0.0
H596 H 0.61208 0.81212 0.61145 0.0
H597 H 0.63265 0.82165 0.62123 0.0
H598 H 0.64662 0.87324 0.6129 0.0
H599 H 0.66775 0.87465 0.58678 0.0
H600 H 0.3584 0.14678 0.48203 0.0
H601 H 0.37557 0.15001 0.45342 0.0
H602 H 0.34257 0.1077 0.42866 0.0
H603 H 0.32517 0.10454 0.45718 0.0
H604 H 0.39575 0.12238 0.43639 0.0
H605 H 0.34124 0.1489 0.39029 0.0
H606 H 0.33914 0.14918 0.41496 0.0
H607 H 0.33548 0.1283 0.40246 0.0
C608 C 0.35472 0.13825 0.47046 0.0
C609 C 0.34046 0.12541 0.47181 0.0
C610 C 0.36451 0.14014 0.45413 0.0
C611 C 0.36014 0.12929 0.43888 0.0
C612 C 0.34588 0.11647 0.44017 0.0
H613 H 0.41515 0.11199 0.33476 0.0
H614 H 0.39283 0.11212 0.35992 0.0
C615 C 0.33607 0.11458 0.4565 0.0
C616 C 0.37133 0.13062 0.42204 0.0
H617 H 0.36961 0.14088 0.3764 0.0
C618 C 0.39006 0.12651 0.4233 0.0
C619 C 0.36378 0.13589 0.40497 0.0
C620 C 0.34384 0.14097 0.40303 0.0
C621 C 0.40148 0.1274 0.40791 0.0
C622 C 0.394 0.13284 0.39088 0.0
C623 C 0.37524 0.13679 0.38952 0.0
C624 C 0.40569 0.13452 0.37445 0.0
C625 C 0.42142 0.12223 0.40992 0.0
C626 C 0.41978 0.14755 0.37402 0.0
C627 C 0.43252 0.14747 0.35977 0.0
C628 C 0.43129 0.13443 0.34567 0.0
C629 C 0.41644 0.12217 0.34549 0.0
C630 C 0.4037 0.12222 0.35981 0.0
H631 H 0.42398 0.11435 0.42269 0.0
H632 H 0.42611 0.11394 0.39805 0.0
H633 H 0.42984 0.13487 0.41045 0.0
H634 H 0.42133 0.15732 0.38509 0.0
H635 H 0.44374 0.15718 0.36019 0.0
H636 H 0.85293 0.3127 0.44507 0.0
H637 H 0.84935 0.32709 0.41491 0.0
H638 H 0.83922 0.37913 0.44096 0.0
H639 H 0.8427 0.36491 0.47108 0.0
H640 H 0.81518 0.36959 0.40977 0.0
H641 H 0.88998 0.36272 0.39539 0.0
H642 H 0.87748 0.3425 0.40192 0.0
H643 H 0.88082 0.36055 0.41826 0.0
C644 C 0.84972 0.32716 0.44435 0.0
C645 C 0.84823 0.33774 0.46039 0.0
C646 C 0.84773 0.33534 0.42714 0.0
C647 C 0.84421 0.35416 0.42579 0.0
C648 C 0.84195 0.36457 0.44178 0.0
H649 H 0.84175 0.44811 0.36218 0.0
H650 H 0.83643 0.4225 0.38282 0.0
C651 C 0.84399 0.35644 0.45896 0.0
C652 C 0.84399 0.36348 0.40784 0.0
H653 H 0.87263 0.38032 0.37498 0.0
C654 C 0.82765 0.37169 0.40194 0.0
C655 C 0.86026 0.36601 0.39763 0.0
C656 C 0.87821 0.35759 0.40356 0.0
C657 C 0.82735 0.38313 0.38652 0.0
C658 C 0.84389 0.38673 0.37708 0.0
C659 C 0.85997 0.37755 0.38228 0.0
C660 C 0.84542 0.40177 0.36359 0.0
C661 C 0.80941 0.39168 0.38081 0.0
C662 C 0.85255 0.39866 0.34598 0.0
C663 C 0.85576 0.41338 0.33412 0.0
C664 C 0.85208 0.4314 0.33984 0.0
C665 C 0.84468 0.43438 0.35736 0.0
C666 C 0.84145 0.41972 0.36913 0.0
H667 H 0.79764 0.38284 0.38468 0.0
H668 H 0.80771 0.40498 0.38796 0.0
H669 H 0.80897 0.39415 0.3658 0.0
H670 H 0.85591 0.3849 0.34156 0.0
H671 H 0.86152 0.41072 0.3207 0.0
H672 H 0.55671 0.83092 0.3621 0.0
H673 H 0.58181 0.83065 0.3842 0.0
H674 H 0.60919 0.87337 0.35396 0.0
H675 H 0.58392 0.87387 0.33176 0.0
H676 H 0.62109 0.82675 0.3819 0.0
H677 H 0.59808 0.89578 0.40512 0.0
H678 H 0.58426 0.88159 0.39034 0.0
H679 H 0.60386 0.89336 0.38128 0.0
C680 C 0.56821 0.84004 0.35995 0.0
C681 C 0.56826 0.8526 0.34537 0.0
C682 C 0.58257 0.83981 0.37255 0.0
C683 C 0.59717 0.85216 0.37081 0.0
C684 C 0.59789 0.86389 0.3556 0.0
H685 H 0.6832 0.85639 0.45561 0.0
H686 H 0.66852 0.85475 0.4254 0.0
C687 C 0.5835 0.86411 0.34293 0.0
C688 C 0.6104 0.85392 0.38603 0.0
H689 H 0.62112 0.88147 0.42225 0.0
C690 C 0.62139 0.83881 0.39058 0.0
C691 C 0.61049 0.86962 0.39739 0.0
C692 C 0.59849 0.88601 0.39345 0.0
C693 C 0.6321 0.8388 0.40657 0.0
C694 C 0.63178 0.85431 0.41813 0.0
C695 C 0.6213 0.86963 0.41325 0.0
C696 C 0.6409 0.8544 0.43618 0.0
C697 C 0.64298 0.82193 0.41147 0.0
C698 C 0.63018 0.85479 0.45212 0.0
C699 C 0.63847 0.85573 0.46931 0.0
C700 C 0.65764 0.85642 0.47082 0.0
C701 C 0.66839 0.85583 0.45483 0.0
C702 C 0.66006 0.85484 0.4376 0.0
H703 H 0.63996 0.81024 0.4022 0.0
H704 H 0.65784 0.82506 0.41056 0.0
H705 H 0.64001 0.81774 0.4258 0.0
H706 H 0.61535 0.85449 0.45124 0.0
H707 H 0.62984 0.85619 0.48138 0.0
H708 H 0.12289 0.68085 0.44915 0.0
H709 H 0.12476 0.66829 0.41802 0.0
H710 H 0.15584 0.62236 0.43837 0.0
H711 H 0.15406 0.63477 0.46945 0.0
H712 H 0.1689 0.64022 0.40348 0.0
H713 H 0.09503 0.62044 0.40454 0.0
H714 H 0.10113 0.6436 0.41041 0.0
H715 H 0.10752 0.6252 0.42536 0.0
C716 C 0.13026 0.66816 0.44694 0.0
C717 C 0.13821 0.65869 0.46172 0.0
C718 C 0.1313 0.66103 0.42919 0.0
C719 C 0.14034 0.64439 0.42601 0.0
C720 C 0.14883 0.63526 0.44061 0.0
H721 H 0.16128 0.55678 0.35722 0.0
H722 H 0.16304 0.58357 0.37696 0.0
C723 C 0.14774 0.64231 0.45835 0.0
C724 C 0.14006 0.63569 0.40776 0.0
H725 H 0.11282 0.60969 0.38016 0.0
C726 C 0.1566 0.6338 0.39815 0.0
C727 C 0.12392 0.62756 0.40081 0.0
C728 C 0.10585 0.62915 0.41077 0.0
C729 C 0.1576 0.62319 0.38216 0.0
C730 C 0.14175 0.6139 0.37596 0.0
C731 C 0.12497 0.6168 0.38493 0.0
C732 C 0.14267 0.59917 0.36205 0.0
C733 C 0.17573 0.62166 0.37234 0.0
C734 C 0.13057 0.59895 0.34707 0.0
C735 C 0.12938 0.58347 0.33582 0.0
C736 C 0.14017 0.56796 0.33952 0.0
C737 C 0.15281 0.56855 0.35401 0.0
C738 C 0.15398 0.58395 0.36521 0.0
H739 H 0.18396 0.63434 0.37409 0.0
H740 H 0.1837 0.61017 0.3783 0.0
H741 H 0.17384 0.61905 0.35746 0.0
H742 H 0.12159 0.61049 0.34451 0.0
H743 H 0.11949 0.58337 0.32476 0.0
H744 H 0.35102 0.8915 0.51826 0.0
H745 H 0.36743 0.88867 0.54731 0.0
H746 H 0.32858 0.84803 0.5655 0.0
H747 H 0.31222 0.85056 0.53627 0.0
H748 H 0.35594 0.89336 0.58382 0.0
H749 H 0.37827 0.82184 0.5695 0.0
H750 H 0.36859 0.8364 0.55204 0.0
H751 H 0.354 0.826 0.56891 0.0
C752 C 0.34591 0.88203 0.52847 0.0
C753 C 0.33046 0.87112 0.52495 0.0
C754 C 0.35525 0.88047 0.54508 0.0
C755 C 0.34934 0.86798 0.55842 0.0
C756 C 0.33352 0.85753 0.55523 0.0
H757 H 0.40896 0.8675 0.66399 0.0
H758 H 0.38308 0.8671 0.64245 0.0
C759 C 0.32417 0.85904 0.53858 0.0
C760 C 0.36032 0.86549 0.57527 0.0
H761 H 0.38908 0.83542 0.59657 0.0
C762 C 0.36301 0.88063 0.58681 0.0
C763 C 0.36956 0.84887 0.57897 0.0
C764 C 0.36763 0.83235 0.56668 0.0
C765 C 0.37528 0.87982 0.60159 0.0
C766 C 0.38485 0.86333 0.60502 0.0
C767 C 0.38159 0.84798 0.59393 0.0
C768 C 0.39996 0.86241 0.6185 0.0
C769 C 0.37866 0.89688 0.61278 0.0
C770 C 0.41786 0.85936 0.6122 0.0
C771 C 0.43254 0.85947 0.6244 0.0
C772 C 0.4296 0.8626 0.64316 0.0
C773 C 0.4116 0.86514 0.64958 0.0
C774 C 0.39685 0.865 0.63731 0.0
H775 H 0.37241 0.90923 0.60643 0.0
H776 H 0.37261 0.89511 0.62661 0.0
H777 H 0.39359 0.89929 0.61446 0.0
H778 H 0.42053 0.85731 0.59774 0.0
H779 H 0.44624 0.85742 0.61905 0.0
H780 H 0.15677 0.43828 0.62673 0.0
H781 H 0.16143 0.41113 0.60784 0.0
H782 H 0.13608 0.37765 0.64942 0.0
H783 H 0.13107 0.40497 0.66841 0.0
H784 H 0.17945 0.3771 0.61397 0.0
H785 H 0.10408 0.3695 0.60367 0.0
H786 H 0.11397 0.38994 0.6134 0.0
H787 H 0.11232 0.36945 0.62688 0.0
C788 C 0.15231 0.42513 0.63195 0.0
C789 C 0.14335 0.42376 0.64893 0.0
C790 C 0.15507 0.40962 0.62118 0.0
C791 C 0.14891 0.39245 0.62716 0.0
C792 C 0.1407 0.39085 0.64449 0.0
H793 H 0.13369 0.30463 0.54721 0.0
H794 H 0.13806 0.31826 0.57755 0.0
C795 C 0.13789 0.40643 0.6553 0.0
C796 C 0.14993 0.37674 0.61444 0.0
H797 H 0.12328 0.35113 0.58589 0.0
C798 C 0.16719 0.37114 0.60804 0.0
C799 C 0.1339 0.36896 0.60682 0.0
C800 C 0.11498 0.37478 0.6129 0.0
C801 C 0.16883 0.35858 0.59358 0.0
C802 C 0.15278 0.35173 0.58518 0.0
C803 C 0.13557 0.35642 0.59237 0.0
C804 C 0.15325 0.34167 0.56758 0.0
C805 C 0.18771 0.35315 0.58712 0.0
C806 C 0.16064 0.35015 0.55198 0.0
C807 C 0.15817 0.34242 0.53467 0.0
C808 C 0.1481 0.32616 0.53265 0.0
C809 C 0.14149 0.3172 0.54836 0.0
C810 C 0.14399 0.32494 0.56569 0.0
H811 H 0.19783 0.35397 0.59847 0.0
H812 H 0.1878 0.33903 0.58145 0.0
H813 H 0.1922 0.36274 0.57622 0.0
H814 H 0.16743 0.3633 0.55304 0.0
H815 H 0.16338 0.34965 0.5228 0.0
H816 H 0.58762 0.12635 0.66406 0.0
H817 H 0.61296 0.12762 0.64188 0.0
H818 H 0.57609 0.14943 0.60115 0.0
H819 H 0.55097 0.14837 0.62308 0.0
H820 H 0.61383 0.10887 0.60865 0.0
H821 H 0.62017 0.18329 0.59664 0.0
H822 H 0.60857 0.17398 0.61643 0.0
H823 H 0.59683 0.17583 0.5948 0.0
C824 C 0.58505 0.1317 0.65045 0.0
C825 C 0.56735 0.13727 0.64527 0.0
C826 C 0.59949 0.1324 0.63784 0.0
C827 C 0.59644 0.13892 0.62 0.0
C828 C 0.57885 0.14479 0.61498 0.0
H829 H 0.63111 0.13628 0.51125 0.0
H830 H 0.61715 0.1394 0.54155 0.0
C831 C 0.56446 0.14403 0.62749 0.0
C832 C 0.61099 0.1381 0.60591 0.0
H833 H 0.63049 0.16357 0.57193 0.0
C834 C 0.6179 0.12087 0.60089 0.0
C835 C 0.61628 0.1538 0.59589 0.0
C836 C 0.61022 0.17279 0.60135 0.0
C837 C 0.62884 0.11876 0.58522 0.0
C838 C 0.63302 0.1343 0.57449 0.0
C839 C 0.62709 0.15167 0.58015 0.0
C840 C 0.64189 0.13259 0.5564 0.0
C841 C 0.63491 0.09983 0.57956 0.0
C842 C 0.66043 0.12782 0.55482 0.0
C843 C 0.66847 0.12604 0.53751 0.0
C844 C 0.65802 0.129 0.52158 0.0
C845 C 0.63947 0.13386 0.52327 0.0
C846 C 0.6315 0.1357 0.54054 0.0
H847 H 0.629 0.08899 0.58845 0.0
H848 H 0.63084 0.09711 0.56515 0.0
H849 H 0.65008 0.09893 0.58031 0.0
H850 H 0.66866 0.1255 0.56696 0.0
H851 H 0.68281 0.12233 0.53659 0.0
H852 H 0.83666 0.55581 0.63595 0.0
H853 H 0.83488 0.58249 0.616 0.0
H854 H 0.87297 0.61131 0.65081 0.0
H855 H 0.87517 0.58433 0.67075 0.0
H856 H 0.82597 0.61941 0.6205 0.0
H857 H 0.89936 0.6097 0.60145 0.0
H858 H 0.88681 0.5928 0.61435 0.0
H859 H 0.89454 0.61342 0.62531 0.0
C860 C 0.84449 0.5679 0.63953 0.0
C861 C 0.85628 0.56791 0.65474 0.0
C862 C 0.84339 0.58317 0.62815 0.0
C863 C 0.85403 0.59874 0.63176 0.0
C864 C 0.86491 0.59928 0.64762 0.0
H865 H 0.87518 0.67905 0.54497 0.0
H866 H 0.87282 0.66674 0.57611 0.0
C867 C 0.86609 0.58391 0.65902 0.0
C868 C 0.85478 0.61348 0.61789 0.0
H869 H 0.88252 0.63102 0.58459 0.0
C870 C 0.8384 0.62222 0.61284 0.0
C871 C 0.87104 0.61712 0.60794 0.0
C872 C 0.88894 0.60772 0.61238 0.0
C873 C 0.83765 0.63386 0.59757 0.0
C874 C 0.85366 0.63662 0.58703 0.0
C875 C 0.87027 0.62883 0.59274 0.0
C876 C 0.85319 0.64572 0.56894 0.0
C877 C 0.81966 0.64269 0.59255 0.0
C878 C 0.84288 0.638 0.55466 0.0
C879 C 0.84428 0.64491 0.53688 0.0
C880 C 0.85608 0.65962 0.53309 0.0
C881 C 0.86597 0.66771 0.54751 0.0
C882 C 0.86461 0.66073 0.56529 0.0
H883 H 0.81062 0.64416 0.60472 0.0
H884 H 0.8218 0.6564 0.58632 0.0
H885 H 0.81245 0.63392 0.58243 0.0
H886 H 0.83432 0.62613 0.5571 0.0
H887 H 0.83652 0.6384 0.52603 0.0
H888 H 0.37432 0.44596 0.14287 0.0
H889 H 0.39583 0.42072 0.14672 0.0
H890 H 0.35208 0.38189 0.13829 0.0
H891 H 0.33033 0.40727 0.13417 0.0
H892 H 0.39515 0.39134 0.17235 0.0
H893 H 0.39123 0.36752 0.09983 0.0
H894 H 0.38266 0.38963 0.10685 0.0
H895 H 0.37011 0.36925 0.11243 0.0
C896 C 0.36923 0.43206 0.14186 0.0
C897 C 0.35067 0.42857 0.13811 0.0
C898 C 0.38153 0.41766 0.14412 0.0
C899 C 0.37556 0.39948 0.14265 0.0
C900 C 0.35697 0.39586 0.13925 0.0
H901 H 0.45543 0.30949 0.13623 0.0
H902 H 0.42574 0.3248 0.14007 0.0
C903 C 0.34459 0.41034 0.13695 0.0
C904 C 0.38917 0.38458 0.14424 0.0
H905 H 0.41353 0.35403 0.11857 0.0
C906 C 0.39899 0.38294 0.1607 0.0
C907 C 0.39403 0.3736 0.12904 0.0
C908 C 0.38408 0.37506 0.11097 0.0
C909 C 0.41414 0.37122 0.16208 0.0
C910 C 0.41971 0.36112 0.14653 0.0
C911 C 0.40921 0.36187 0.13044 0.0
C912 C 0.43746 0.35136 0.14596 0.0
C913 C 0.42433 0.37011 0.18003 0.0
C914 C 0.45381 0.36127 0.14798 0.0
C915 C 0.47071 0.35263 0.14573 0.0
C916 C 0.47155 0.33392 0.14134 0.0
C917 C 0.45517 0.32392 0.13966 0.0
C918 C 0.43823 0.33262 0.14185 0.0
H919 H 0.41528 0.37364 0.19176 0.0
H920 H 0.43009 0.35621 0.18226 0.0
H921 H 0.43582 0.38006 0.17987 0.0
H922 H 0.4535 0.37585 0.15073 0.0
H923 H 0.4831 0.36069 0.14704 0.0
H924 H 0.45357 0.67866 0.84321 0.0
H925 H 0.4237 0.66338 0.84171 0.0
H926 H 0.44294 0.62221 0.87949 0.0
H927 H 0.47262 0.63754 0.8813 0.0
H928 H 0.41603 0.62883 0.83007 0.0
H929 H 0.39431 0.6368 0.90217 0.0
H930 H 0.41291 0.64987 0.89238 0.0
H931 H 0.41677 0.62694 0.90061 0.0
C932 C 0.45136 0.66642 0.85129 0.0
C933 C 0.46537 0.6593 0.86242 0.0
C934 C 0.4343 0.65774 0.85044 0.0
C935 C 0.431 0.6419 0.86078 0.0
C936 C 0.44504 0.63471 0.87179 0.0
H937 H 0.36823 0.54758 0.84685 0.0
H938 H 0.38908 0.57354 0.84503 0.0
C939 C 0.46204 0.64339 0.87269 0.0
C940 C 0.41332 0.63209 0.8593 0.0
H941 H 0.38001 0.61212 0.88526 0.0
C942 C 0.40794 0.62546 0.84208 0.0
C943 C 0.40254 0.62808 0.87489 0.0
C944 C 0.40682 0.63598 0.89351 0.0
C945 C 0.3928 0.61378 0.84026 0.0
C946 C 0.38309 0.60836 0.85613 0.0
C947 C 0.38764 0.61609 0.87313 0.0
C948 C 0.36964 0.59322 0.85575 0.0
C949 C 0.38766 0.60699 0.82142 0.0
C950 C 0.35184 0.5956 0.86268 0.0
C951 C 0.33987 0.58067 0.86389 0.0
C952 C 0.34565 0.56316 0.85835 0.0
C953 C 0.36336 0.56092 0.85116 0.0
C954 C 0.37526 0.57579 0.84995 0.0
H955 H 0.39169 0.617 0.81069 0.0
H956 H 0.39503 0.594 0.81861 0.0
H957 H 0.3727 0.6044 0.82034 0.0
H958 H 0.34733 0.60893 0.86741 0.0
H959 H 0.3263 0.58275 0.86954 0.0
H960 H 0.40614 0.32501 0.8718 0.0
H961 H 0.37948 0.34533 0.86902 0.0
H962 H 0.4114 0.3825 0.83598 0.0
H963 H 0.43784 0.3623 0.8385 0.0
H964 H 0.37895 0.3805 0.88183 0.0
H965 H 0.36361 0.38083 0.80778 0.0
H966 H 0.37738 0.36321 0.8184 0.0
H967 H 0.38753 0.38473 0.81186 0.0
C968 C 0.40731 0.33734 0.86365 0.0
C969 C 0.42405 0.34212 0.8554 0.0
C970 C 0.39209 0.3489 0.86206 0.0
C971 C 0.39338 0.36526 0.85204 0.0
C972 C 0.40994 0.36972 0.84336 0.0
H973 H 0.35696 0.47237 0.84346 0.0
H974 H 0.36978 0.44157 0.84097 0.0
C975 C 0.42511 0.35824 0.84497 0.0
C976 C 0.37837 0.37888 0.85237 0.0
H977 H 0.35485 0.40826 0.82466 0.0
C978 C 0.37324 0.38627 0.86938 0.0
C979 C 0.37094 0.38631 0.8361 0.0
C980 C 0.37502 0.37821 0.81753 0.0
C981 C 0.36208 0.40187 0.87046 0.0
C982 C 0.35575 0.41008 0.8541 0.0
C983 C 0.35985 0.40197 0.83716 0.0
C984 C 0.34686 0.42825 0.85424 0.0
C985 C 0.35821 0.41021 0.889 0.0
C986 C 0.32956 0.43084 0.86221 0.0
C987 C 0.3222 0.44847 0.86369 0.0
C988 C 0.33206 0.46368 0.8572 0.0
C989 C 0.34909 0.46091 0.84866 0.0
C990 C 0.3564 0.44334 0.84716 0.0
H991 H 0.36612 0.40347 0.90012 0.0
H992 H 0.36157 0.42504 0.88894 0.0
H993 H 0.3434 0.40881 0.89217 0.0
H994 H 0.32194 0.4193 0.86757 0.0
H995 H 0.309 0.45021 0.87026 0.0
H996 H 0.66367 0.40758 0.87104 0.0
H997 H 0.64249 0.38154 0.86961 0.0
H998 H 0.60808 0.41162 0.83211 0.0
H999 H 0.62927 0.43733 0.83314 0.0
H1000 H 0.60777 0.38303 0.88121 0.0
H1001 H 0.60737 0.36198 0.80863 0.0
H1002 H 0.6252 0.37628 0.81811 0.0
H1003 H 0.60388 0.3862 0.81052 0.0
C1004 C 0.65182 0.40841 0.86214 0.0
C1005 C 0.64808 0.42448 0.85223 0.0
C1006 C 0.63974 0.39355 0.86135 0.0
C1007 C 0.62384 0.39452 0.85054 0.0
C1008 C 0.6205 0.41033 0.84014 0.0
H1009 H 0.51473 0.3604 0.84805 0.0
H1010 H 0.54535 0.37377 0.84523 0.0
C1011 C 0.63256 0.42511 0.84087 0.0
C1012 C 0.60949 0.38024 0.85186 0.0
H1013 H 0.57935 0.35571 0.82582 0.0
C1014 C 0.60187 0.37664 0.86916 0.0
C1015 C 0.60182 0.37189 0.83613 0.0
C1016 C 0.61015 0.37415 0.81734 0.0
C1017 C 0.58599 0.36599 0.87098 0.0
C1018 C 0.57762 0.35878 0.85511 0.0
C1019 C 0.58579 0.36144 0.83793 0.0
C1020 C 0.55944 0.35002 0.85596 0.0
C1021 C 0.57759 0.36338 0.8897 0.0
C1022 C 0.55738 0.33221 0.86279 0.0
C1023 C 0.53991 0.3245 0.86437 0.0
C1024 C 0.52431 0.33458 0.85923 0.0
C1025 C 0.5265 0.35234 0.85217 0.0
C1026 C 0.54395 0.35996 0.85049 0.0
H1027 H 0.58531 0.37071 0.90058 0.0
H1028 H 0.56321 0.36837 0.88968 0.0
H1029 H 0.5773 0.34857 0.89311 0.0
H1030 H 0.56925 0.32437 0.86704 0.0
H1031 H 0.5386 0.31077 0.86983 0.0
H1032 H 0.62556 0.51207 0.84636 0.0
H1033 H 0.60921 0.54125 0.84577 0.0
H1034 H 0.65763 0.56896 0.86529 0.0
H1035 H 0.67423 0.53974 0.86569 0.0
H1036 H 0.60375 0.56307 0.87709 0.0
H1037 H 0.64029 0.60126 0.82207 0.0
H1038 H 0.64187 0.57668 0.82442 0.0
H1039 H 0.65428 0.59133 0.83977 0.0
C1040 C 0.63281 0.5244 0.85031 0.0
C1041 C 0.65115 0.52365 0.8561 0.0
C1042 C 0.62346 0.54104 0.84996 0.0
C1043 C 0.63226 0.55724 0.85535 0.0
C1044 C 0.6507 0.55664 0.86078 0.0
H1045 H 0.57985 0.66469 0.87048 0.0
H1046 H 0.60313 0.64036 0.86955 0.0
C1047 C 0.66011 0.53995 0.86109 0.0
C1048 C 0.62157 0.5744 0.85648 0.0
H1049 H 0.61634 0.6168 0.83741 0.0
C1050 C 0.60656 0.57485 0.86848 0.0
C1051 C 0.62543 0.58978 0.84536 0.0
C1052 C 0.64126 0.58982 0.83206 0.0
C1053 C 0.59499 0.59011 0.86934 0.0
C1054 C 0.59841 0.6052 0.85774 0.0
C1055 C 0.6138 0.60511 0.84622 0.0
C1056 C 0.58529 0.62054 0.85663 0.0
C1057 C 0.579 0.58989 0.88247 0.0
C1058 C 0.56784 0.61749 0.84922 0.0
C1059 C 0.55461 0.63124 0.84973 0.0
C1060 C 0.55863 0.64832 0.85764 0.0
C1061 C 0.57639 0.65164 0.86435 0.0
C1062 C 0.58967 0.6378 0.86381 0.0
H1063 H 0.58075 0.57938 0.89334 0.0
H1064 H 0.57721 0.60349 0.88906 0.0
H1065 H 0.56627 0.58667 0.8748 0.0
H1066 H 0.56432 0.60427 0.84346 0.0
H1067 H 0.54109 0.62831 0.84435 0.0
H1068 H 0.66302 0.58503 0.11585 0.0
H1069 H 0.64209 0.61126 0.11743 0.0
H1070 H 0.60958 0.58292 0.15786 0.0
H1071 H 0.63052 0.55694 0.15661 0.0
H1072 H 0.60643 0.60936 0.10798 0.0
H1073 H 0.61119 0.63373 0.17942 0.0
H1074 H 0.62828 0.61895 0.1693 0.0
H1075 H 0.60746 0.60948 0.17862 0.0
C1076 C 0.65163 0.5846 0.12537 0.0
C1077 C 0.64835 0.56894 0.13607 0.0
C1078 C 0.63971 0.59958 0.12626 0.0
C1079 C 0.62444 0.59916 0.13796 0.0
C1080 C 0.62154 0.58377 0.1491 0.0
H1081 H 0.51705 0.63736 0.14906 0.0
H1082 H 0.5477 0.62397 0.15102 0.0
C1083 C 0.63343 0.56884 0.14824 0.0
C1084 C 0.61021 0.61359 0.13694 0.0
H1085 H 0.58255 0.64024 0.16365 0.0
C1086 C 0.60149 0.61649 0.12005 0.0
C1087 C 0.60381 0.62288 0.15271 0.0
C1088 C 0.61333 0.62124 0.17098 0.0
C1089 C 0.58574 0.62742 0.11875 0.0
C1090 C 0.57869 0.63577 0.13474 0.0
C1091 C 0.58797 0.63371 0.15144 0.0
C1092 C 0.56069 0.64501 0.1347 0.0
C1093 C 0.57608 0.62904 0.10052 0.0
C1094 C 0.55799 0.66144 0.12512 0.0
C1095 C 0.54047 0.66913 0.12396 0.0
C1096 C 0.52545 0.66045 0.13235 0.0
C1097 C 0.52835 0.6443 0.14238 0.0
C1098 C 0.54584 0.63668 0.14358 0.0
H1099 H 0.58201 0.61977 0.09 0.0
H1100 H 0.56128 0.62584 0.10207 0.0
H1101 H 0.57723 0.64332 0.09547 0.0
H1102 H 0.56936 0.66812 0.11831 0.0
H1103 H 0.53863 0.68164 0.11621 0.0
H1104 H 0.357 0.51864 0.15483 0.0
H1105 H 0.36995 0.54937 0.15645 0.0
H1106 H 0.32462 0.57035 0.12483 0.0
H1107 H 0.31168 0.53942 0.12287 0.0
H1108 H 0.35753 0.58043 0.11089 0.0
H1109 H 0.3569 0.59485 0.18513 0.0
H1110 H 0.36711 0.573 0.18053 0.0
H1111 H 0.34333 0.57679 0.17503 0.0
C1112 C 0.34962 0.52983 0.14847 0.0
C1113 C 0.33336 0.52665 0.1387 0.0
C1114 C 0.35695 0.54743 0.14955 0.0
C1115 C 0.34807 0.56221 0.14106 0.0
C1116 C 0.33158 0.55915 0.13164 0.0
H1117 H 0.40607 0.66751 0.12379 0.0
H1118 H 0.37977 0.64665 0.12685 0.0
C1119 C 0.32423 0.5415 0.13053 0.0
C1120 C 0.35718 0.58031 0.14041 0.0
H1121 H 0.38015 0.61087 0.16731 0.0
C1122 C 0.36205 0.58741 0.12321 0.0
C1123 C 0.36297 0.58943 0.1565 0.0
C1124 C 0.35712 0.58321 0.17532 0.0
C1125 C 0.3738 0.60253 0.1217 0.0
C1126 C 0.3807 0.61074 0.13781 0.0
C1127 C 0.37487 0.60443 0.15499 0.0
C1128 C 0.39593 0.62401 0.13708 0.0
C1129 C 0.37981 0.60885 0.10296 0.0
C1130 C 0.41352 0.61818 0.14209 0.0
C1131 C 0.42845 0.62992 0.14027 0.0
C1132 C 0.42603 0.64777 0.13353 0.0
C1133 C 0.4083 0.6538 0.12899 0.0
C1134 C 0.39331 0.64194 0.1307 0.0
H1135 H 0.37407 0.60021 0.09182 0.0
H1136 H 0.37528 0.62319 0.10075 0.0
H1137 H 0.395 0.6086 0.10199 0.0
H1138 H 0.41576 0.60435 0.147 0.0
H1139 H 0.44193 0.62491 0.14396 0.0
H1140 H 0.62683 0.47936 0.14002 0.0
H1141 H 0.61264 0.4491 0.14188 0.0
H1142 H 0.66546 0.42366 0.13436 0.0
H1143 H 0.67984 0.45396 0.13258 0.0
H1144 H 0.61491 0.42249 0.11297 0.0
H1145 H 0.64231 0.39662 0.17931 0.0
H1146 H 0.64192 0.42069 0.17362 0.0
H1147 H 0.65858 0.40589 0.16325 0.0
C1148 C 0.63547 0.46734 0.13898 0.0
C1149 C 0.65443 0.469 0.13613 0.0
C1150 C 0.62734 0.45008 0.14003 0.0
C1151 C 0.63804 0.4342 0.13838 0.0
C1152 C 0.65704 0.43578 0.13592 0.0
H1153 H 0.58372 0.32999 0.11362 0.0
H1154 H 0.60749 0.35372 0.11445 0.0
C1155 C 0.66519 0.45307 0.13483 0.0
C1156 C 0.62898 0.41612 0.13807 0.0
H1157 H 0.62286 0.37684 0.16269 0.0
C1158 C 0.61676 0.41241 0.12373 0.0
C1159 C 0.63146 0.4031 0.15219 0.0
C1160 C 0.64418 0.40671 0.16807 0.0
C1161 C 0.60653 0.39618 0.12333 0.0
C1162 C 0.60883 0.38322 0.13754 0.0
C1163 C 0.62134 0.38674 0.15172 0.0
C1164 C 0.59687 0.36693 0.13879 0.0
C1165 C 0.59275 0.39342 0.10813 0.0
C1166 C 0.58366 0.36604 0.15271 0.0
C1167 C 0.57015 0.35253 0.1523 0.0
C1168 C 0.56968 0.33967 0.13797 0.0
C1169 C 0.58371 0.33979 0.12477 0.0
C1170 C 0.59723 0.35335 0.12519 0.0
H1171 H 0.59044 0.40613 0.10009 0.0
H1172 H 0.59783 0.38268 0.09864 0.0
H1173 H 0.57941 0.38877 0.11378 0.0
H1174 H 0.58319 0.3764 0.16333 0.0
H1175 H 0.55958 0.35271 0.16272 0.0
H1176 H 0.07373 0.32054 0.51252 0.0
H1177 H 0.04054 0.31972 0.51637 0.0
H1178 H 0.03485 0.29536 0.46276 0.0
H1179 H 0.06827 0.29551 0.45913 0.0
H1180 H 0.01522 0.33682 0.49709 0.0
H1181 H 0.00313 0.26195 0.49302 0.0
H1182 H 0.02576 0.27161 0.49542 0.0
H1183 H 0.01478 0.27097 0.47335 0.0
C1184 C 0.06542 0.31489 0.5016 0.0
C1185 C 0.07352 0.30806 0.48554 0.0
C1186 C 0.04647 0.31442 0.50382 0.0
C1187 C 0.03524 0.30726 0.48996 0.0
C1188 C 0.04329 0.30052 0.47382 0.0
H1189 H 0.91924 0.33234 0.48272 0.0
H1190 H 0.95234 0.33039 0.47811 0.0
C1191 C 0.06234 0.30074 0.4717 0.0
C1192 C 0.01509 0.30771 0.49225 0.0
H1193 H 0.97669 0.28104 0.49269 0.0
C1194 C 0.0068 0.32461 0.49619 0.0
C1195 C 0.00419 0.29172 0.49131 0.0
C1196 C 0.01242 0.27301 0.48823 0.0
C1197 C 0.9879 0.326 0.49917 0.0
C1198 C 0.9769 0.31014 0.49756 0.0
C1199 C 0.98517 0.2932 0.49374 0.0
C1200 C 0.95679 0.31084 0.49996 0.0
C1201 C 0.98 0.34437 0.50447 0.0
C1202 C 0.94824 0.29999 0.51334 0.0
C1203 C 0.92927 0.30086 0.51581 0.0
C1204 C 0.91862 0.31266 0.50497 0.0
C1205 C 0.92717 0.32331 0.49143 0.0
C1206 C 0.94608 0.32227 0.48883 0.0
H1207 H 0.99062 0.35352 0.51042 0.0
H1208 H 0.97444 0.35119 0.49208 0.0
H1209 H 0.96873 0.34285 0.51458 0.0
H1210 H 0.95627 0.29101 0.52201 0.0
H1211 H 0.92299 0.29245 0.5263 0.0
H1212 H 0.7192 0.06995 0.47693 0.0
H1213 H 0.72304 0.03726 0.48357 0.0
H1214 H 0.66514 0.02877 0.47509 0.0
H1215 H 0.66123 0.06126 0.4683 0.0
H1216 H 0.70557 0.01887 0.51229 0.0
H1217 H 0.68844 0.98729 0.44546 0.0
H1218 H 0.69441 0.01118 0.44776 0.0
H1219 H 0.67154 0.00353 0.45291 0.0
C1220 C 0.70736 0.06103 0.47617 0.0
C1221 C 0.68991 0.06811 0.47209 0.0
C1222 C 0.70957 0.04241 0.48 0.0
C1223 C 0.69442 0.03062 0.4796 0.0
C1224 C 0.67708 0.03759 0.4751 0.0
H1225 H 0.65964 0.92493 0.51183 0.0
H1226 H 0.66383 0.95683 0.5027 0.0
C1227 C 0.67484 0.05617 0.47131 0.0
C1228 C 0.69628 0.01131 0.48531 0.0
H1229 H 0.68659 0.96768 0.47182 0.0
C1230 C 0.70175 0.00761 0.50338 0.0
C1231 C 0.69131 -0.00327 0.4736 0.0
C1232 C 0.68627 -0.00016 0.45379 0.0
C1233 C 0.70141 0.98972 0.51036 0.0
C1234 C 0.69562 0.97527 0.49888 0.0
C1235 C 0.69088 0.97888 0.4806 0.0
C1236 C 0.69332 0.95644 0.50577 0.0
C1237 C 0.7064 0.98647 0.53016 0.0
C1238 C 0.70854 0.94581 0.51074 0.0
C1239 C 0.70619 0.92756 0.51601 0.0
C1240 C 0.68859 0.91973 0.51629 0.0
C1241 C 0.67336 0.9306 0.51177 0.0
C1242 C 0.67572 0.94878 0.5065 0.0
H1243 H 0.70785 -0.00052 0.53793 0.0
H1244 H 0.69584 0.97787 0.53695 0.0
H1245 H 0.71963 0.979 0.53084 0.0
H1246 H 0.72224 0.95148 0.51006 0.0
H1247 H 0.71817 0.91945 0.51934 0.0
H1248 H 0.92213 0.71083 0.48193 0.0
H1249 H 0.95526 0.71333 0.48712 0.0
H1250 H 0.96005 0.65449 0.48539 0.0
H1251 H 0.92708 0.65185 0.48017 0.0
H1252 H 0.97433 0.69673 0.51753 0.0
H1253 H 0.0006 0.67304 0.4502 0.0
H1254 H 0.97744 0.6812 0.4534 0.0
H1255 H 0.98356 0.65833 0.46015 0.0
C1256 C 0.93031 0.69845 0.48241 0.0
C1257 C 0.92208 0.68114 0.48063 0.0
C1258 C 0.94917 0.69991 0.48541 0.0
C1259 C 0.96003 0.6841 0.48645 0.0
C1260 C 0.95189 0.66684 0.48433 0.0
H1261 H 0.06982 0.65145 0.51001 0.0
H1262 H 0.037 0.65404 0.50388 0.0
C1263 C 0.93307 0.66537 0.48143 0.0
C1264 C 0.97972 0.68543 0.49081 0.0
H1265 H 0.02206 0.6739 0.47481 0.0
C1266 C 0.98484 0.69197 0.50815 0.0
C1267 C 0.99327 0.67917 0.4785 0.0
C1268 C 0.98851 0.67269 0.45945 0.0
C1269 C 0.00321 0.69169 0.51382 0.0
C1270 C 0.01671 0.68496 0.50166 0.0
C1271 C 0.01162 0.67892 0.48413 0.0
C1272 C 0.03619 0.68351 0.50695 0.0
C1273 C 0.00792 0.6979 0.53297 0.0
C1274 C 0.04651 0.69922 0.51093 0.0
C1275 C 0.06525 0.69777 0.51456 0.0
C1276 C 0.07394 0.6806 0.51407 0.0
C1277 C 0.06348 0.66486 0.51049 0.0
C1278 C 0.04476 0.66632 0.50695 0.0
H1279 H 0.99559 0.69868 0.54189 0.0
H1280 H 0.01801 0.68849 0.53939 0.0
H1281 H 0.01416 0.71174 0.53235 0.0
H1282 H 0.04018 0.71264 0.51069 0.0
H1283 H 0.07303 0.71014 0.51715 0.0
H1284 H 0.26187 0.07806 0.50418 0.0
H1285 H 0.2507 0.04713 0.49753 0.0
H1286 H 0.2977 0.02435 0.52528 0.0
H1287 H 0.30856 0.05505 0.53241 0.0
H1288 H 0.26748 0.02345 0.47636 0.0
H1289 H 0.25859 0.99101 0.54379 0.0
H1290 H 0.26069 0.01552 0.54124 0.0
H1291 H 0.28085 0.00127 0.54272 0.0
C1292 C 0.26955 0.06642 0.50924 0.0
C1293 C 0.2861 0.06892 0.51878 0.0
C1294 C 0.26316 0.04878 0.50544 0.0
C1295 C 0.27321 0.03341 0.51113 0.0
C1296 C 0.28941 0.03595 0.52121 0.0
H1297 H 0.30511 0.9373 0.4611 0.0
H1298 H 0.29555 0.96841 0.46845 0.0
C1299 C 0.29571 0.05354 0.52514 0.0
C1300 C 0.2683 0.01484 0.50464 0.0
H1301 H 0.26753 0.9704 0.51875 0.0
C1302 C 0.26699 0.01188 0.48566 0.0
C1303 C 0.26716 -0.00025 0.51672 0.0
C1304 C 0.26668 0.00212 0.53725 0.0
C1305 C 0.26629 0.99411 0.47842 0.0
C1306 C 0.26747 0.97899 0.49045 0.0
C1307 C 0.26702 0.98199 0.50946 0.0
C1308 C 0.27146 0.96025 0.4838 0.0
C1309 C 0.26489 0.99178 0.45793 0.0
C1310 C 0.2612 0.94525 0.49007 0.0
C1311 C 0.26687 0.9274 0.48616 0.0
C1312 C 0.28288 0.92429 0.4759 0.0
C1313 C 0.29265 0.93929 0.46893 0.0
C1314 C 0.28709 0.95711 0.47299 0.0
H1315 H 0.25688 0.00314 0.45173 0.0
H1316 H 0.27884 0.99219 0.45187 0.0
H1317 H 0.25833 0.97857 0.4542 0.0
H1318 H 0.24917 0.94736 0.49852 0.0
H1319 H 0.25906 0.91605 0.49168 0.0
H1320 H 0.51989 0.91806 0.28082 0.0
H1321 H 0.51281 0.95067 0.27707 0.0
H1322 H 0.50463 0.95568 0.3354 0.0
H1323 H 0.51147 0.92316 0.33925 0.0
H1324 H 0.47555 0.96947 0.31359 0.0
H1325 H 0.5435 -0.00391 0.29128 0.0
H1326 H 0.53469 0.97679 0.27876 0.0
H1327 H 0.54087 0.97416 0.30242 0.0
C1328 C 0.51682 0.92619 0.29286 0.0
C1329 C 0.51622 0.91811 0.31033 0.0
C1330 C 0.51284 0.94479 0.29069 0.0
C1331 C 0.50833 0.95554 0.30598 0.0
C1332 C 0.50811 0.94757 0.32345 0.0
H1333 H 0.47856 0.06418 0.33576 0.0
H1334 H 0.48446 0.03133 0.33333 0.0
C1335 C 0.51206 0.92902 0.32562 0.0
C1336 C 0.50288 0.97489 0.30383 0.0
H1337 H 0.5191 0.01725 0.29263 0.0
C1338 C 0.48504 0.97992 0.30893 0.0
C1339 C 0.51527 0.9884 0.29758 0.0
C1340 C 0.53471 0.9837 0.2923 0.0
C1341 C 0.47932 -0.00178 0.30829 0.0
C1342 C 0.49188 0.01181 0.30266 0.0
C1343 C 0.50954 0.00673 0.29695 0.0
C1344 C 0.48738 0.03148 0.30381 0.0
C1345 C 0.45991 0.00289 0.31374 0.0
C1346 C 0.48726 0.0424 0.28802 0.0
C1347 C 0.48389 0.0612 0.28937 0.0
C1348 C 0.48081 0.06931 0.30657 0.0
C1349 C 0.48082 0.05828 0.32233 0.0
C1350 C 0.4841 0.03952 0.32095 0.0
H1351 H 0.45073 0.99079 0.31271 0.0
H1352 H 0.45979 0.00765 0.32818 0.0
H1353 H 0.45432 0.01403 0.30503 0.0
H1354 H 0.48989 0.0364 0.27469 0.0
H1355 H 0.48404 0.06941 0.27701 0.0
H1356 H 0.92422 0.47047 0.27735 0.0
H1357 H 0.95718 0.47669 0.27578 0.0
H1358 H 0.95835 0.48544 0.33423 0.0
H1359 H 0.92544 0.47954 0.33587 0.0
H1360 H 0.97291 0.5143 0.31374 0.0
H1361 H 0.00241 0.44741 0.2922 0.0
H1362 H 0.98386 0.45582 0.27835 0.0
H1363 H 0.97966 0.44947 0.30175 0.0
C1364 C 0.93159 0.47335 0.2899 0.0
C1365 C 0.92228 0.47459 0.30672 0.0
C1366 C 0.95041 0.47684 0.28899 0.0
C1367 C 0.96017 0.48143 0.30491 0.0
C1368 C 0.95102 0.48191 0.32181 0.0
H1369 H 0.06755 0.51456 0.33783 0.0
H1370 H 0.03499 0.50726 0.33497 0.0
C1371 C 0.93225 0.4785 0.32272 0.0
C1372 C 0.97952 0.48727 0.30389 0.0
H1373 H 0.02278 0.47257 0.29385 0.0
C1374 C 0.98382 0.50518 0.30939 0.0
C1375 C 0.99364 0.47539 0.29801 0.0
C1376 C 0.98977 0.45589 0.29236 0.0
C1377 C 0.00195 0.51149 0.30939 0.0
C1378 C 0.01612 0.49947 0.30397 0.0
C1379 C 0.01181 0.48172 0.298 0.0
C1380 C 0.03558 0.50475 0.30542 0.0
C1381 C 0.0058 0.53096 0.31517 0.0
C1382 C 0.04666 0.50563 0.28974 0.0
C1383 C 0.06528 0.50983 0.29133 0.0
C1384 C 0.07308 0.51299 0.30865 0.0
C1385 C 0.06189 0.51228 0.3243 0.0
C1386 C 0.04329 0.50817 0.32269 0.0
H1387 H 0.99337 0.53969 0.31416 0.0
H1388 H 0.01042 0.53104 0.32966 0.0
H1389 H 0.01682 0.53708 0.30666 0.0
H1390 H 0.04091 0.50295 0.27632 0.0
H1391 H 0.07362 0.51019 0.27905 0.0
H1392 H 0.4766 0.93094 0.65667 0.0
H1393 H 0.484 0.96332 0.66084 0.0
H1394 H 0.4889 0.95496 0.71913 0.0
H1395 H 0.48152 0.92243 0.71509 0.0
H1396 H 0.46622 0.99057 0.68447 0.0
H1397 H 0.53935 0.97688 0.70197 0.0
H1398 H 0.52511 0.96002 0.69078 0.0
H1399 H 0.52202 0.96478 0.7147 0.0
C1400 C 0.47908 0.93602 0.6704 0.0
C1401 C 0.47859 0.92418 0.68555 0.0
C1402 C 0.4833 0.95448 0.67275 0.0
C1403 C 0.48721 0.96137 0.69024 0.0
C1404 C 0.48613 0.94977 0.7055 0.0
H1405 H 0.5259 0.07286 0.71345 0.0
H1406 H 0.51743 0.04057 0.71736 0.0
C1407 C 0.48182 0.93126 0.70318 0.0
C1408 C 0.4929 0.98064 0.69222 0.0
H1409 H 0.53037 0.00771 0.69933 0.0
C1410 C 0.48018 0.99436 0.68791 0.0
C1411 C 0.51111 0.98543 0.6968 0.0
C1412 C 0.52529 0.97107 0.70125 0.0
C1413 C 0.48533 0.01283 0.68759 0.0
C1414 C 0.50376 0.01756 0.69131 0.0
C1415 C 0.5163 0.00393 0.69639 0.0
C1416 C 0.5104 0.03648 0.68885 0.0
C1417 C 0.47108 0.02711 0.68307 0.0
C1418 C 0.5099 0.04452 0.67142 0.0
C1419 C 0.51474 0.06283 0.66914 0.0
C1420 C 0.52025 0.07337 0.68426 0.0
C1421 C 0.52168 0.06503 0.70157 0.0
C1422 C 0.5168 0.04665 0.70384 0.0
H1423 H 0.45697 0.02198 0.68565 0.0
H1424 H 0.47324 0.03977 0.69123 0.0
H1425 H 0.47212 0.03071 0.66834 0.0
H1426 H 0.50535 0.03671 0.65964 0.0
H1427 H 0.51362 0.06886 0.65563 0.0
H1428 H 0.92365 0.51245 0.71624 0.0
H1429 H 0.95605 0.50383 0.71895 0.0
H1430 H 0.96108 0.50398 0.66006 0.0
H1431 H 0.92882 0.51246 0.65722 0.0
H1432 H 0.97329 0.47099 0.67859 0.0
H1433 H 0.00296 0.53485 0.70804 0.0
H1434 H 0.98286 0.52566 0.71899 0.0
H1435 H 0.98124 0.53461 0.69616 0.0
C1436 C 0.93176 0.5109 0.7039 0.0
C1437 C 0.92374 0.51311 0.68652 0.0
C1438 C 0.95022 0.50602 0.70547 0.0
C1439 C 0.96088 0.50336 0.68969 0.0
C1440 C 0.95302 0.50599 0.67238 0.0
H1441 H 0.06772 0.47218 0.65495 0.0
H1442 H 0.03498 0.47812 0.6587 0.0
C1443 C 0.93462 0.51088 0.67079 0.0
C1444 C 0.98 0.49689 0.69103 0.0
H1445 H 0.02316 0.5102 0.703 0.0
C1446 C 0.98421 0.4795 0.68402 0.0
C1447 C 0.99408 0.50798 0.6983 0.0
C1448 C 0.9902 0.52688 0.70572 0.0
C1449 C 0.00228 0.47301 0.68374 0.0
C1450 C 0.01649 0.48439 0.69034 0.0
C1451 C 0.01219 0.50154 0.69794 0.0
C1452 C 0.03599 0.47934 0.68832 0.0
C1453 C 0.00601 0.45408 0.67634 0.0
C1454 C 0.0474 0.4782 0.70374 0.0
C1455 C 0.06615 0.47488 0.70164 0.0
C1456 C 0.07375 0.47282 0.68405 0.0
C1457 C 0.06222 0.47361 0.66867 0.0
C1458 C 0.04351 0.47691 0.67079 0.0
H1459 H 0.99364 0.44524 0.67719 0.0
H1460 H 0.00999 0.45512 0.6617 0.0
H1461 H 0.01738 0.44735 0.6839 0.0
H1462 H 0.04185 0.48015 0.71738 0.0
H1463 H 0.07474 0.47441 0.71373 0.0
H1464 H 0.33679 0.5097 0.92777 0.0
H1465 H 0.33328 0.50385 0.96054 0.0
H1466 H 0.27506 0.51314 0.9562 0.0
H1467 H 0.27843 0.51894 0.92325 0.0
H1468 H 0.31732 0.52708 0.9885 0.0
H1469 H 0.28035 0.46095 0.97911 0.0
H1470 H 0.29319 0.47159 0.96083 0.0
H1471 H 0.27133 0.48071 0.96744 0.0
C1472 C 0.32325 0.51063 0.9338 0.0
C1473 C 0.30786 0.51467 0.92298 0.0
C1474 C 0.32128 0.50729 0.9525 0.0
C1475 C 0.30389 0.50784 0.96065 0.0
C1476 C 0.28854 0.51241 0.95003 0.0
H1477 H 0.27894 0.47937 0.07468 0.0
H1478 H 0.27553 0.48795 0.04237 0.0
C1479 C 0.29051 0.51582 0.93128 0.0
C1480 C 0.30204 0.50326 0.98025 0.0
H1481 H 0.28726 0.46978 0.00934 0.0
C1482 C 0.31061 0.51465 0.9931 0.0
C1483 C 0.29318 0.48707 0.98612 0.0
C1484 C 0.28406 0.47425 0.97271 0.0
C1485 C 0.31095 0.51006 0.01173 0.0
C1486 C 0.3028 0.49346 0.0175 0.0
C1487 C 0.29358 0.48242 0.00477 0.0
C1488 C 0.30459 0.48698 0.03656 0.0
C1489 C 0.32015 0.52291 0.02505 0.0
C1490 C 0.32199 0.483 0.04369 0.0
C1491 C 0.32398 0.4781 0.06204 0.0
C1492 C 0.30857 0.477 0.07352 0.0
C1493 C 0.29105 0.48016 0.06613 0.0
C1494 C 0.28908 0.48508 0.04773 0.0
H1495 H 0.32113 0.53703 0.01945 0.0
H1496 H 0.31261 0.5234 0.03827 0.0
H1497 H 0.33427 0.51798 0.02782 0.0
H1498 H 0.33408 0.48404 0.03512 0.0
H1499 H 0.33763 0.47564 0.06733 0.0
H1500 H 0.47122 0.33522 0.9283 0.0
H1501 H 0.47818 0.33227 0.96097 0.0
H1502 H 0.48696 0.27428 0.95401 0.0
H1503 H 0.48003 0.27709 0.92126 0.0
H1504 H 0.46144 0.30782 0.98858 0.0
H1505 H 0.5358 0.29537 0.97627 0.0
H1506 H 0.52104 0.30533 0.95909 0.0
H1507 H 0.51979 0.28128 0.9639 0.0
C1508 C 0.47446 0.32181 0.93376 0.0
C1509 C 0.4752 0.3064 0.92226 0.0
C1510 C 0.47842 0.32016 0.95238 0.0
C1511 C 0.48329 0.30311 0.95974 0.0
C1512 C 0.48343 0.28757 0.94846 0.0
H1513 H 0.52348 0.27884 0.06998 0.0
H1514 H 0.51459 0.27625 0.03767 0.0
C1515 C 0.4794 0.2892 0.92982 0.0
C1516 C 0.48875 0.30183 0.97915 0.0
H1517 H 0.52592 0.29625 0.00696 0.0
C1518 C 0.4755 0.30519 0.99265 0.0
C1519 C 0.50709 0.2983 0.98429 0.0
C1520 C 0.52185 0.29496 0.97019 0.0
C1521 C 0.48018 0.30531 0.01127 0.0
C1522 C 0.49865 0.30242 0.0164 0.0
C1523 C 0.5118 0.29854 0.00292 0.0
C1524 C 0.5047 0.30412 0.03564 0.0
C1525 C 0.46529 0.30848 0.02528 0.0
C1526 C 0.50258 0.3208 0.04493 0.0
C1527 C 0.50762 0.32231 0.06329 0.0
C1528 C 0.51502 0.3072 0.07262 0.0
C1529 C 0.51779 0.2907 0.06311 0.0
C1530 C 0.51269 0.28918 0.04471 0.0
H1531 H 0.45153 0.3051 0.0197 0.0
H1532 H 0.46766 0.30016 0.0378 0.0
H1533 H 0.46521 0.32315 0.02927 0.0
H1534 H 0.49687 0.33261 0.038 0.0
H1535 H 0.50544 0.33524 0.07025 0.0
H1536 H 0.65158 0.47694 0.92376 0.0
H1537 H 0.6539 0.48332 0.95657 0.0
H1538 H 0.71289 0.48335 0.95254 0.0
H1539 H 0.71069 0.47721 0.9196 0.0
H1540 H 0.67182 0.46361 0.98464 0.0
H1541 H 0.70087 0.53348 0.97554 0.0
H1542 H 0.69033 0.52096 0.957 0.0
H1543 H 0.71314 0.51531 0.96433 0.0
C1544 C 0.66505 0.47821 0.92988 0.0
C1545 C 0.68096 0.47671 0.91914 0.0
C1546 C 0.66634 0.48184 0.9486 0.0
C1547 C 0.68355 0.48409 0.95686 0.0
C1548 C 0.69949 0.482 0.94631 0.0
H1549 H 0.71075 0.51299 0.06969 0.0
H1550 H 0.71256 0.50464 0.0372 0.0
C1551 C 0.69821 0.47839 0.92755 0.0
C1552 C 0.68466 0.48887 0.97648 0.0
H1553 H 0.69721 0.52298 0.00591 0.0
C1554 C 0.67742 0.47656 0.98932 0.0
C1555 C 0.69201 0.50577 0.98247 0.0
C1556 C 0.69941 0.51974 0.96915 0.0
C1557 C 0.67724 0.48074 0.00806 0.0
C1558 C 0.68423 0.49779 0.014 0.0
C1559 C 0.69185 0.50994 0.00123 0.0
C1560 C 0.68318 0.50349 0.03337 0.0
C1561 C 0.66963 0.46687 0.02137 0.0
C1562 C 0.66606 0.50604 0.04173 0.0
C1563 C 0.66498 0.51084 0.0602 0.0
C1564 C 0.68102 0.51323 0.07057 0.0
C1565 C 0.69817 0.5112 0.06202 0.0
C1566 C 0.69923 0.50642 0.04351 0.0
H1567 H 0.66925 0.45291 0.01533 0.0
H1568 H 0.6779 0.46647 0.03414 0.0
H1569 H 0.6554 0.47078 0.02508 0.0
H1570 H 0.65353 0.50418 0.03398 0.0
H1571 H 0.65158 0.51239 0.06641 0.0
H1572 H 0.48583 0.71852 0.91469 0.0
H1573 H 0.47783 0.72223 0.94703 0.0
H1574 H 0.52539 0.69068 0.96244 0.0
H1575 H 0.53358 0.68705 0.93016 0.0
H1576 H 0.46989 0.69242 0.96914 0.0
H1577 H 0.52645 0.73352 -0.00124 0.0
H1578 H 0.52193 0.7326 0.97443 0.0
H1579 H 0.5343 0.71437 0.98546 0.0
C1580 C 0.49482 0.71273 0.92499 0.0
C1581 C 0.51029 0.70243 0.91993 0.0
C1582 C 0.49021 0.71485 0.94343 0.0
C1583 C 0.50109 0.70685 0.95709 0.0
C1584 C 0.517 0.69726 0.95211 0.0
H1585 H 0.47621 0.66217 0.06163 0.0
H1586 H 0.4814 0.66873 0.02919 0.0
C1587 C 0.52162 0.69512 0.93367 0.0
C1588 C 0.49474 0.70668 0.97631 0.0
H1589 H 0.50795 0.71654 0.02003 0.0
C1590 C 0.47807 0.69793 0.98026 0.0
C1591 C 0.50537 0.71402 0.99072 0.0
C1592 C 0.52293 0.72432 0.98715 0.0
C1593 C 0.47213 0.69561 -0.00164 0.0
C1594 C 0.48328 0.70201 0.01282 0.0
C1595 C 0.49953 0.71151 0.00886 0.0
C1596 C 0.47885 0.69812 0.03217 0.0
C1597 C 0.45411 0.68611 0.00188 0.0
C1598 C 0.47579 0.71249 0.04453 0.0
C1599 C 0.47282 0.70878 0.06306 0.0
C1600 C 0.47307 0.69064 0.06951 0.0
C1601 C 0.47586 0.67626 0.05703 0.0
C1602 C 0.47875 0.67998 0.0385 0.0
H1603 H 0.44502 0.68662 0.98968 0.0
H1604 H 0.45673 0.67151 0.00516 0.0
H1605 H 0.44683 0.69239 0.01369 0.0
H1606 H 0.47592 0.72658 0.03986 0.0
H1607 H 0.47078 0.72014 0.0724 0.0
H1608 H 0.18656 0.27756 0.46659 0.0
H1609 H 0.20813 0.25296 0.47367 0.0
H1610 H 0.16421 0.22107 0.49707 0.0
H1611 H 0.14247 0.24551 0.48977 0.0
H1612 H 0.21381 0.24238 0.51009 0.0
H1613 H 0.19294 0.18318 0.46691 0.0
H1614 H 0.18604 0.2064 0.46187 0.0
H1615 H 0.1748 0.19379 0.47977 0.0
C1616 C 0.18142 0.26511 0.4728 0.0
C1617 C 0.16289 0.26346 0.47774 0.0
C1618 C 0.19375 0.25111 0.47687 0.0
C1619 C 0.18772 0.23524 0.48585 0.0
C1620 C 0.16905 0.23311 0.48988 0.0
H1621 H 0.25076 0.14506 0.53298 0.0
H1622 H 0.22596 0.16681 0.52645 0.0
C1623 C 0.15668 0.2471 0.48575 0.0
C1624 C 0.20129 0.22199 0.4928 0.0
H1625 H 0.21567 0.17768 0.48944 0.0
C1626 C 0.21424 0.22823 0.50557 0.0
C1627 C 0.20159 0.20352 0.48702 0.0
C1628 C 0.1882 0.19629 0.47303 0.0
C1629 C 0.2277 0.21653 0.51258 0.0
C1630 C 0.22828 0.19819 0.50649 0.0
C1631 C 0.21507 0.19178 0.49408 0.0
C1632 C 0.24332 0.18583 0.5118 0.0
C1633 C 0.24121 0.22384 0.52643 0.0
C1634 C 0.26119 0.18953 0.50583 0.0
C1635 C 0.27529 0.1772 0.50948 0.0
C1636 C 0.27171 0.16096 0.51915 0.0
C1637 C 0.25389 0.15753 0.5256 0.0
C1638 C 0.23974 0.16986 0.52182 0.0
H1639 H 0.23606 0.23647 0.53318 0.0
H1640 H 0.24422 0.21344 0.53711 0.0
H1641 H 0.25425 0.22724 0.51937 0.0
H1642 H 0.26412 0.2017 0.49786 0.0
H1643 H 0.28889 0.18015 0.5043 0.0
H1644 H 0.7453 0.14369 0.46451 0.0
H1645 H 0.77045 0.16441 0.47278 0.0
H1646 H 0.73125 0.20484 0.49075 0.0
H1647 H 0.70612 0.1843 0.48264 0.0
H1648 H 0.77735 0.20189 0.46122 0.0
H1649 H 0.7648 0.19547 0.53597 0.0
H1650 H 0.75576 0.17941 0.51945 0.0
H1651 H 0.74482 0.20122 0.52279 0.0
C1652 C 0.74207 0.15708 0.47004 0.0
C1653 C 0.72379 0.16237 0.47307 0.0
C1654 C 0.75641 0.16883 0.47479 0.0
C1655 C 0.75261 0.18591 0.48271 0.0
C1656 C 0.73439 0.19152 0.48499 0.0
H1657 H 0.805 0.28248 0.51985 0.0
H1658 H 0.7849 0.25647 0.51348 0.0
C1659 C 0.72007 0.17983 0.48024 0.0
C1660 C 0.76762 0.19796 0.48877 0.0
H1661 H 0.78465 0.21965 0.52649 0.0
C1662 C 0.77918 0.20562 0.4755 0.0
C1663 C 0.76987 0.20265 0.50742 0.0
C1664 C 0.75827 0.19415 0.52228 0.0
C1665 C 0.79244 0.21864 0.48032 0.0
C1666 C 0.7943 0.22378 0.49892 0.0
C1667 C 0.78313 0.21564 0.51226 0.0
C1668 C 0.80681 0.23857 0.50458 0.0
C1669 C 0.80375 0.22743 0.46539 0.0
C1670 C 0.82581 0.2368 0.50229 0.0
C1671 C 0.83731 0.25164 0.50589 0.0
C1672 C 0.82995 0.26838 0.51191 0.0
C1673 C 0.81103 0.26976 0.51516 0.0
C1674 C 0.79955 0.25494 0.51153 0.0
H1675 H 0.79818 0.22451 0.45152 0.0
H1676 H 0.80438 0.2425 0.46731 0.0
H1677 H 0.81795 0.22203 0.46601 0.0
H1678 H 0.83165 0.22412 0.49725 0.0
H1679 H 0.85188 0.25018 0.50337 0.0
H1680 H 0.80453 0.7025 0.47916 0.0
H1681 H 0.78358 0.72797 0.48474 0.0
H1682 H 0.82862 0.76604 0.48086 0.0
H1683 H 0.84977 0.74054 0.4754 0.0
H1684 H 0.80766 0.76917 0.51311 0.0
H1685 H 0.76338 0.76843 0.45139 0.0
H1686 H 0.76583 0.74633 0.46189 0.0
H1687 H 0.78554 0.75739 0.45205 0.0
C1688 C 0.80992 0.71632 0.47914 0.0
C1689 C 0.82876 0.71957 0.4769 0.0
C1690 C 0.79793 0.73085 0.48224 0.0
C1691 C 0.80457 0.74885 0.48303 0.0
C1692 C 0.82327 0.75221 0.48019 0.0
H1693 H 0.74615 0.84766 0.5174 0.0
H1694 H 0.77048 0.82633 0.5085 0.0
C1695 C 0.83529 0.73767 0.47704 0.0
C1696 C 0.79219 0.76384 0.48853 0.0
H1697 H 0.75179 0.78451 0.47754 0.0
C1698 C 0.79557 0.77276 0.50523 0.0
C1699 C 0.77647 0.76837 0.4782 0.0
C1700 C 0.77265 0.75976 0.4598 0.0
C1701 C 0.78314 0.78559 0.5123 0.0
C1702 C 0.76713 0.78968 0.50223 0.0
C1703 C 0.76405 0.78117 0.48526 0.0
C1704 C 0.75305 0.80237 0.50921 0.0
C1705 C 0.78684 0.79412 0.53077 0.0
C1706 C 0.7353 0.79587 0.51265 0.0
C1707 C 0.72141 0.80798 0.51766 0.0
C1708 C 0.72505 0.8268 0.51921 0.0
C1709 C 0.743 0.8332 0.51639 0.0
C1710 C 0.7569 0.82106 0.51135 0.0
H1711 H 0.79776 0.78673 0.53838 0.0
H1712 H 0.79134 0.8085 0.52883 0.0
H1713 H 0.77419 0.79428 0.53925 0.0
H1714 H 0.73213 0.78146 0.51105 0.0
H1715 H 0.7077 0.80267 0.51973 0.0
H1716 H 0.19144 0.70414 0.51481 0.0
H1717 H 0.21233 0.72888 0.50623 0.0
H1718 H 0.16656 0.76604 0.50175 0.0
H1719 H 0.14561 0.74146 0.51065 0.0
H1720 H 0.21065 0.74718 0.47287 0.0
H1721 H 0.20378 0.79564 0.53122 0.0
H1722 H 0.19633 0.7721 0.53255 0.0
H1723 H 0.18244 0.78884 0.52101 0.0
C1724 C 0.18588 0.71768 0.51237 0.0
C1725 C 0.16693 0.72092 0.51339 0.0
C1726 C 0.1978 0.73175 0.50741 0.0
C1727 C 0.19096 0.74926 0.50346 0.0
C1728 C 0.17212 0.75269 0.50506 0.0
H1729 H 0.24484 0.84813 0.46472 0.0
H1730 H 0.22171 0.82454 0.47059 0.0
C1731 C 0.16018 0.73863 0.51009 0.0
C1732 C 0.20342 0.76351 0.4964 0.0
H1733 H 0.22043 0.80606 0.50536 0.0
C1734 C 0.21283 0.76005 0.47998 0.0
C1735 C 0.20606 0.7803 0.50566 0.0
C1736 C 0.19676 0.78444 0.52367 0.0
C1737 C 0.22493 0.77297 0.47257 0.0
C1738 C 0.22773 0.78964 0.48194 0.0
C1739 C 0.21809 0.79325 0.49819 0.0
C1740 C 0.24147 0.80309 0.47584 0.0
C1741 C 0.23457 0.76875 0.45477 0.0
C1742 C 0.26015 0.79863 0.47653 0.0
C1743 C 0.27335 0.81203 0.47325 0.0
C1744 C 0.26803 0.83009 0.46927 0.0
C1745 C 0.24931 0.8343 0.4677 0.0
C1746 C 0.2361 0.8209 0.47109 0.0
H1747 H 0.22753 0.7577 0.44702 0.0
H1748 H 0.23541 0.78113 0.44598 0.0
H1749 H 0.24875 0.76412 0.45774 0.0
H1750 H 0.26452 0.785 0.48044 0.0
H1751 H 0.28769 0.80843 0.47458 0.0
H1752 H 0.47771 0.18551 0.28301 0.0
H1753 H 0.48288 0.20519 0.25655 0.0
H1754 H 0.47311 0.15953 0.22031 0.0
H1755 H 0.46806 0.13958 0.24688 0.0
H1756 H 0.50612 0.17765 0.21385 0.0
H1757 H 0.44894 0.22722 0.21808 0.0
H1758 H 0.4605 0.22465 0.23961 0.0
H1759 H 0.44853 0.20544 0.22981 0.0
C1760 C 0.47628 0.17972 0.26941 0.0
C1761 C 0.47252 0.16103 0.26698 0.0
C1762 C 0.47913 0.19101 0.25431 0.0
C1763 C 0.47816 0.18384 0.2365 0.0
C1764 C 0.47378 0.16531 0.23397 0.0
H1765 H 0.51167 0.24469 0.13816 0.0
H1766 H 0.50125 0.21948 0.15774 0.0
C1767 C 0.47086 0.15398 0.24913 0.0
C1768 C 0.48358 0.19541 0.22084 0.0
H1769 H 0.47588 0.23728 0.20171 0.0
C1770 C 0.49931 0.19051 0.21087 0.0
C1771 C 0.47462 0.21213 0.21704 0.0
C1772 C 0.4571 0.21759 0.22658 0.0
C1773 C 0.50698 0.2025 0.19796 0.0
C1774 C 0.49859 0.21965 0.19499 0.0
C1775 C 0.48236 0.22414 0.20426 0.0
C1776 C 0.50692 0.23367 0.18313 0.0
C1777 C 0.52446 0.19722 0.18825 0.0
C1778 C 0.51385 0.24974 0.19103 0.0
C1779 C 0.51981 0.26409 0.17995 0.0
C1780 C 0.5188 0.26262 0.16079 0.0
C1781 C 0.51265 0.24616 0.1529 0.0
C1782 C 0.5067 0.23177 0.16402 0.0
H1783 H 0.53032 0.18423 0.19359 0.0
H1784 H 0.52166 0.1955 0.1734 0.0
H1785 H 0.53482 0.20826 0.18974 0.0
H1786 H 0.5141 0.25138 0.20579 0.0
H1787 H 0.52447 0.27662 0.18641 0.0
H1788 H 0.80754 0.47457 0.27587 0.0
H1789 H 0.78737 0.48403 0.25088 0.0
H1790 H 0.83436 0.49903 0.21834 0.0
H1791 H 0.85475 0.48956 0.24334 0.0
H1792 H 0.7898 0.52261 0.23591 0.0
H1793 H 0.79906 0.46699 0.1843 0.0
H1794 H 0.8031 0.46316 0.20843 0.0
H1795 H 0.81897 0.47656 0.19536 0.0
C1796 C 0.81361 0.47958 0.26329 0.0
C1797 C 0.83269 0.4814 0.26155 0.0
C1798 C 0.80208 0.48501 0.24907 0.0
C1799 C 0.80945 0.4922 0.23287 0.0
C1800 C 0.8285 0.49337 0.23075 0.0
H1801 H 0.74262 0.5264 0.1391 0.0
H1802 H 0.76959 0.52192 0.15864 0.0
C1803 C 0.84008 0.48797 0.24501 0.0
C1804 C 0.797 0.49963 0.21886 0.0
H1805 H 0.77736 0.48986 0.17765 0.0
C1806 C 0.78719 0.5156 0.22306 0.0
C1807 C 0.79392 0.49053 0.20209 0.0
C1808 C 0.80422 0.47331 0.19716 0.0
C1809 C 0.77379 0.52239 0.21114 0.0
C1810 C 0.76991 0.51269 0.19484 0.0
C1811 C 0.78038 0.49722 0.19021 0.0
C1812 C 0.7539 0.51726 0.18336 0.0
C1813 C 0.76372 0.5397 0.21624 0.0
C1814 C 0.73623 0.5162 0.19087 0.0
C1815 C 0.72088 0.51875 0.17981 0.0
C1816 C 0.72294 0.52226 0.16101 0.0
C1817 C 0.74065 0.52377 0.15357 0.0
C1818 C 0.75604 0.52119 0.16467 0.0
H1819 H 0.7721 0.54847 0.22544 0.0
H1820 H 0.75994 0.54774 0.20389 0.0
H1821 H 0.75096 0.53607 0.22368 0.0
H1822 H 0.7343 0.51277 0.20518 0.0
H1823 H 0.7074 0.51742 0.18589 0.0
H1824 H 0.47124 0.74384 0.14552 0.0
H1825 H 0.47829 0.76783 0.1679 0.0
H1826 H 0.48398 0.72691 0.21014 0.0
H1827 H 0.4768 0.70288 0.18793 0.0
H1828 H 0.46397 0.75912 0.22058 0.0
H1829 H 0.53111 0.77483 0.18788 0.0
H1830 H 0.5114 0.7757 0.17312 0.0
H1831 H 0.51839 0.75422 0.18285 0.0
C1832 C 0.47377 0.73999 0.15963 0.0
C1833 C 0.47362 0.72151 0.16499 0.0
C1834 C 0.4779 0.75367 0.17233 0.0
C1835 C 0.48197 0.74903 0.19052 0.0
C1836 C 0.48099 0.73069 0.1961 0.0
H1837 H 0.51718 0.80085 0.29005 0.0
H1838 H 0.50841 0.77974 0.26556 0.0
C1839 C 0.47687 0.71701 0.18342 0.0
C1840 C 0.48783 0.76316 0.2037 0.0
H1841 H 0.52287 0.79245 0.2137 0.0
C1842 C 0.47681 0.76647 0.21908 0.0
C1843 C 0.50459 0.77266 0.2016 0.0
C1844 C 0.51718 0.76914 0.18556 0.0
C1845 C 0.48214 0.77908 0.23252 0.0
C1846 C 0.49908 0.78829 0.23062 0.0
C1847 C 0.50993 0.78527 0.21507 0.0
C1848 C 0.50589 0.80084 0.2449 0.0
C1849 C 0.46956 0.78253 0.24858 0.0
C1850 C 0.50817 0.81951 0.24108 0.0
C1851 C 0.51331 0.83159 0.255 0.0
C1852 C 0.51629 0.82509 0.27288 0.0
C1853 C 0.51486 0.80624 0.27642 0.0
C1854 C 0.50974 0.7942 0.2625 0.0
H1855 H 0.4553 0.77807 0.24564 0.0
H1856 H 0.47455 0.77467 0.26061 0.0
H1857 H 0.4694 0.79727 0.25231 0.0
H1858 H 0.5054 0.82481 0.22749 0.0
H1859 H 0.51436 0.84606 0.2519 0.0
H1860 H 0.19015 0.51373 0.28762 0.0
H1861 H 0.21107 0.5042 0.26326 0.0
H1862 H 0.16548 0.49888 0.22599 0.0
H1863 H 0.14445 0.50871 0.25024 0.0
H1864 H 0.20922 0.47024 0.24534 0.0
H1865 H 0.20314 0.52832 0.19635 0.0
H1866 H 0.19569 0.52997 0.21989 0.0
H1867 H 0.1819 0.51802 0.20338 0.0
C1868 C 0.18461 0.51083 0.27415 0.0
C1869 C 0.1657 0.51196 0.27078 0.0
C1870 C 0.19656 0.50533 0.26029 0.0
C1871 C 0.18979 0.50092 0.24286 0.0
C1872 C 0.17097 0.5025 0.2393 0.0
H1873 H 0.25199 0.46491 0.14696 0.0
H1874 H 0.22639 0.46976 0.16819 0.0
C1875 C 0.159 0.50807 0.25315 0.0
C1876 C 0.20243 0.49373 0.22881 0.0
H1877 H 0.22159 0.50337 0.18731 0.0
C1878 C 0.21188 0.47742 0.2326 0.0
C1879 C 0.20568 0.50308 0.21218 0.0
C1880 C 0.1962 0.52089 0.20769 0.0
C1881 C 0.22485 0.47038 0.22032 0.0
C1882 C 0.22852 0.48004 0.20398 0.0
C1883 C 0.21863 0.496 0.19987 0.0
C1884 C 0.24371 0.47479 0.19172 0.0
C1885 C 0.23461 0.45277 0.22498 0.0
C1886 C 0.26181 0.47582 0.19806 0.0
C1887 C 0.27639 0.47312 0.18603 0.0
C1888 C 0.27308 0.46942 0.16744 0.0
C1889 C 0.25492 0.46768 0.16125 0.0
C1890 C 0.24032 0.47048 0.17331 0.0
H1891 H 0.22667 0.44447 0.23498 0.0
H1892 H 0.23709 0.44442 0.21251 0.0
H1893 H 0.24807 0.45603 0.23125 0.0
H1894 H 0.26468 0.47945 0.21217 0.0
H1895 H 0.29025 0.47459 0.19115 0.0
H1896 H 0.51749 0.74879 0.84673 0.0
H1897 H 0.50916 0.77227 0.82425 0.0
H1898 H 0.51094 0.73183 0.78119 0.0
H1899 H 0.51897 0.70825 0.80355 0.0
H1900 H 0.52522 0.78473 0.79111 0.0
H1901 H 0.45792 0.75115 0.7797 0.0
H1902 H 0.47268 0.74535 0.79868 0.0
H1903 H 0.47724 0.73632 0.77621 0.0
C1904 C 0.51644 0.74499 0.83242 0.0
C1905 C 0.51864 0.72668 0.82688 0.0
C1906 C 0.51163 0.75838 0.81963 0.0
C1907 C 0.50899 0.75361 0.80121 0.0
C1908 C 0.51249 0.73563 0.79546 0.0
H1909 H 0.47833 0.80627 0.70143 0.0
H1910 H 0.48587 0.78508 0.72624 0.0
C1911 C 0.5172 0.72223 0.80821 0.0
C1912 C 0.50172 0.76718 0.78813 0.0
H1913 H 0.46576 0.77538 0.75938 0.0
C1914 C 0.51217 0.78281 0.78427 0.0
C1915 C 0.48459 0.76462 0.7794 0.0
C1916 C 0.47235 0.74855 0.78381 0.0
C1917 C 0.50623 0.79568 0.77131 0.0
C1918 C 0.48932 0.79286 0.76226 0.0
C1919 C 0.47871 0.77742 0.76639 0.0
C1920 C 0.48292 0.8053 0.74772 0.0
C1921 C 0.51831 0.81187 0.76694 0.0
C1922 C 0.47813 0.82345 0.75176 0.0
C1923 C 0.47374 0.83557 0.73764 0.0
C1924 C 0.47411 0.82965 0.71931 0.0
C1925 C 0.47799 0.8112 0.71543 0.0
C1926 C 0.48232 0.79911 0.72955 0.0
H1927 H 0.53232 0.81029 0.77271 0.0
H1928 H 0.51942 0.8138 0.75188 0.0
H1929 H 0.51214 0.82445 0.77283 0.0
H1930 H 0.47826 0.82833 0.76578 0.0
H1931 H 0.47076 0.84971 0.74101 0.0
H1932 H 0.28888 0.51976 0.8047 0.0
H1933 H 0.26511 0.51256 0.78223 0.0
H1934 H 0.22569 0.50599 0.82581 0.0
H1935 H 0.24935 0.5134 0.84839 0.0
H1936 H 0.24663 0.47869 0.78231 0.0
H1937 H 0.19817 0.53726 0.78775 0.0
H1938 H 0.22146 0.5384 0.79609 0.0
H1939 H 0.20424 0.52656 0.80908 0.0
C1940 C 0.27506 0.51715 0.80947 0.0
C1941 C 0.27094 0.51708 0.82827 0.0
C1942 C 0.26154 0.51301 0.79664 0.0
C1943 C 0.24369 0.50884 0.8024 0.0
C1944 C 0.23934 0.50946 0.82111 0.0
H1945 H 0.14839 0.47113 0.74125 0.0
H1946 H 0.16994 0.47828 0.76601 0.0
C1947 C 0.25287 0.51364 0.83397 0.0
C1948 C 0.23014 0.50227 0.78895 0.0
H1949 H 0.18891 0.5122 0.76934 0.0
C1950 C 0.23402 0.48602 0.77944 0.0
C1951 C 0.21366 0.5118 0.78544 0.0
C1952 C 0.20913 0.52956 0.795 0.0
C1953 C 0.22183 0.47904 0.76637 0.0
C1954 C 0.20552 0.48874 0.76261 0.0
C1955 C 0.20146 0.50481 0.77236 0.0
C1956 C 0.19294 0.483 0.7479 0.0
C1957 C 0.22645 0.46132 0.75678 0.0
C1958 C 0.19887 0.4832 0.72963 0.0
C1959 C 0.18666 0.47913 0.71553 0.0
C1960 C 0.16831 0.4749 0.71949 0.0
C1961 C 0.16249 0.47429 0.73784 0.0
C1962 C 0.17473 0.47841 0.75196 0.0
H1963 H 0.23664 0.45317 0.76462 0.0
H1964 H 0.21398 0.45286 0.75465 0.0
H1965 H 0.23244 0.46442 0.74314 0.0
H1966 H 0.21282 0.48702 0.72626 0.0
H1967 H 0.19149 0.47978 0.7015 0.0
H1968 H 0.52524 0.18926 0.70877 0.0
H1969 H 0.51611 0.21016 0.73333 0.0
H1970 H 0.50422 0.16412 0.76837 0.0
H1971 H 0.51344 0.14309 0.74392 0.0
H1972 H 0.47958 0.20878 0.74853 0.0
H1973 H 0.53403 0.19997 0.80128 0.0
H1974 H 0.53746 0.19391 0.77752 0.0
H1975 H 0.52403 0.17939 0.79212 0.0
C1976 C 0.52106 0.18359 0.72184 0.0
C1977 C 0.51998 0.16457 0.72445 0.0
C1978 C 0.51581 0.19553 0.7358 0.0
C1979 C 0.50956 0.18863 0.7526 0.0
C1980 C 0.50923 0.16967 0.75555 0.0
H1981 H 0.46824 0.24864 0.84765 0.0
H1982 H 0.47518 0.22368 0.82625 0.0
C1983 C 0.51446 0.1577 0.74157 0.0
C1984 C 0.50189 0.20127 0.76635 0.0
H1985 H 0.50911 0.21915 0.80888 0.0
C1986 C 0.48599 0.21104 0.76176 0.0
C1987 C 0.5102 0.20391 0.78361 0.0
C1988 C 0.52745 0.19386 0.78899 0.0
C1989 C 0.47828 0.2237 0.77394 0.0
C1990 C 0.48694 0.22684 0.79097 0.0
C1991 C 0.50253 0.21665 0.79579 0.0
C1992 C 0.48091 0.24161 0.80336 0.0
C1993 C 0.46098 0.23362 0.76846 0.0
C1994 C 0.48168 0.25986 0.79745 0.0
C1995 C 0.47772 0.27407 0.80956 0.0
C1996 C 0.47304 0.27025 0.82783 0.0
C1997 C 0.47175 0.25194 0.83361 0.0
C1998 C 0.47575 0.23771 0.82146 0.0
H1999 H 0.45315 0.22581 0.758 0.0
H2000 H 0.45199 0.23608 0.78049 0.0
H2001 H 0.46465 0.24708 0.76243 0.0
H2002 H 0.48599 0.26315 0.78363 0.0
H2003 H 0.47891 0.28805 0.80476 0.0
H2004 H 0.74182 0.47119 0.84861 0.0
H2005 H 0.76806 0.47701 0.82843 0.0
H2006 H 0.7313 0.48484 0.78282 0.0
H2007 H 0.70506 0.47897 0.8028 0.0
H2008 H 0.76334 0.46204 0.77589 0.0
H2009 H 0.77975 0.52932 0.80806 0.0
H2010 H 0.77773 0.50984 0.82301 0.0
H2011 H 0.75787 0.51819 0.81118 0.0
C2012 C 0.73937 0.47398 0.83424 0.0
C2013 C 0.72143 0.47474 0.82726 0.0
C2014 C 0.75433 0.47739 0.8228 0.0
C2015 C 0.75151 0.48158 0.80427 0.0
C2016 C 0.73368 0.48169 0.79714 0.0
H2017 H 0.8066 0.51306 0.70664 0.0
H2018 H 0.78548 0.50434 0.73109 0.0
C2019 C 0.71873 0.47835 0.80855 0.0
C2020 C 0.76701 0.48631 0.79222 0.0
H2021 H 0.79762 0.52035 0.78276 0.0
C2022 C 0.77097 0.4747 0.77745 0.0
C2023 C 0.77692 0.50281 0.79443 0.0
C2024 C 0.77286 0.51588 0.80994 0.0
C2025 C 0.78439 0.47933 0.76455 0.0
C2026 C 0.79375 0.49619 0.76631 0.0
C2027 C 0.7903 0.50749 0.78146 0.0
C2028 C 0.80644 0.5027 0.752 0.0
C2029 C 0.78833 0.46621 0.74905 0.0
C2030 C 0.82505 0.50546 0.75593 0.0
C2031 C 0.83715 0.51059 0.74201 0.0
C2032 C 0.83073 0.5131 0.72402 0.0
C2033 C 0.81194 0.5111 0.72035 0.0
C2034 C 0.79989 0.50601 0.73425 0.0
H2035 H 0.78399 0.45204 0.75248 0.0
H2036 H 0.78061 0.4706 0.7367 0.0
H2037 H 0.80315 0.46609 0.7456 0.0
H2038 H 0.83027 0.50313 0.76963 0.0
H2039 H 0.85157 0.51207 0.7452 0.0
loop_
_geom_bond_atom_site_label_1
_geom_bond_atom_site_label_2
_geom_bond_distance
_geom_bond_site_symmetry_2
_ccdc_geom_bond_type
In0 O1 2.294 . S
In0 O2 2.326 . S
In0 O6 2.266 . S
In0 O7 2.326 . S
In0 O8 2.266 . S
In0 O9 2.326 . S
In0 O11 2.294 . S
In0 O12 2.326 . S
O1 In0 2.294 . S
O1 C10 1.240 . S
O2 In0 2.326 . S
O2 C10 1.252 . S
C3 O6 1.252 . S
C3 O7 1.260 . S
C4 O11 1.240 . S
C4 O12 1.252 . S
C5 O8 1.252 . S
C5 O9 1.260 . S
O6 In0 2.266 . S
O6 C3 1.252 . S
O7 In0 2.326 . S
O7 C3 1.260 . S
O8 In0 2.266 . S
O8 C5 1.252 . S
O9 In0 2.326 . S
O9 C5 1.260 . S
C10 O1 1.240 . S
C10 O2 1.252 . S
O11 In0 2.294 . S
O11 C4 1.240 . S
O12 In0 2.326 . S
O12 C4 1.252 . S
In13 O14 2.294 . S
In13 O15 2.326 . S
In13 O19 2.266 . S
In13 O20 2.326 . S
In13 O21 2.266 . S
In13 O22 2.326 . S
In13 O24 2.294 . S
In13 O25 2.326 . S
O14 In13 2.294 . S
O14 C23 1.240 . S
O15 In13 2.326 . S
O15 C23 1.252 . S
C16 O19 1.252 . S
C16 O20 1.260 . S
C17 O24 1.240 . S
C17 O25 1.252 . S
C18 O21 1.252 . S
C18 O22 1.260 . S
O19 In13 2.266 . S
O19 C16 1.252 . S
O20 In13 2.326 . S
O20 C16 1.260 . S
O21 In13 2.266 . S
O21 C18 1.252 . S
O22 In13 2.326 . S
O22 C18 1.260 . S
C23 O14 1.240 . S
C23 O15 1.252 . S
O24 In13 2.294 . S
O24 C17 1.240 . S
O25 In13 2.326 . S
O25 C17 1.252 . S
In26 O27 2.294 . S
In26 O28 2.326 . S
In26 O32 2.266 . S
In26 O33 2.326 . S
In26 O34 2.266 . S
In26 O35 2.326 . S
In26 O37 2.294 . S
In26 O38 2.326 . S
O27 In26 2.294 . S
O27 C36 1.240 . S
O28 In26 2.326 . S
O28 C36 1.252 . S
C29 O32 1.252 . S
C29 O33 1.260 . S
C30 O37 1.240 . S
C30 O38 1.252 . S
C31 O34 1.252 . S
C31 O35 1.260 . S
O32 In26 2.266 . S
O32 C29 1.252 . S
O33 In26 2.326 . S
O33 C29 1.260 . S
O34 In26 2.266 . S
O34 C31 1.252 . S
O35 In26 2.326 . S
O35 C31 1.260 . S
C36 O27 1.240 . S
C36 O28 1.252 . S
O37 In26 2.294 . S
O37 C30 1.240 . S
O38 In26 2.326 . S
O38 C30 1.252 . S
In39 O40 2.294 . S
In39 O41 2.326 . S
In39 O45 2.266 . S
In39 O46 2.326 . S
In39 O47 2.266 . S
In39 O48 2.326 . S
In39 O50 2.294 . S
In39 O51 2.326 . S
O40 In39 2.294 . S
O40 C49 1.240 . S
O41 In39 2.326 . S
O41 C49 1.252 . S
C42 O45 1.252 . S
C42 O46 1.260 . S
C43 O50 1.240 . S
C43 O51 1.252 . S
C44 O47 1.252 . S
C44 O48 1.260 . S
O45 In39 2.266 . S
O45 C42 1.252 . S
O46 In39 2.326 . S
O46 C42 1.260 . S
O47 In39 2.266 . S
O47 C44 1.252 . S
O48 In39 2.326 . S
O48 C44 1.260 . S
C49 O40 1.240 . S
C49 O41 1.252 . S
O50 In39 2.294 . S
O50 C43 1.240 . S
O51 In39 2.326 . S
O51 C43 1.252 . S
In52 O53 2.294 . S
In52 O54 2.326 . S
In52 O58 2.266 . S
In52 O59 2.326 . S
In52 O60 2.266 . S
In52 O61 2.326 . S
In52 O63 2.294 . S
In52 O64 2.326 . S
O53 In52 2.294 . S
O53 C62 1.240 . S
O54 In52 2.326 . S
O54 C62 1.252 . S
C55 O58 1.252 . S
C55 O59 1.260 . S
C56 O63 1.240 . S
C56 O64 1.252 . S
C57 O60 1.252 . S
C57 O61 1.260 . S
O58 In52 2.266 . S
O58 C55 1.252 . S
O59 In52 2.326 . S
O59 C55 1.260 . S
O60 In52 2.266 . S
O60 C57 1.252 . S
O61 In52 2.326 . S
O61 C57 1.260 . S
C62 O53 1.240 . S
C62 O54 1.252 . S
O63 In52 2.294 . S
O63 C56 1.240 . S
O64 In52 2.326 . S
O64 C56 1.252 . S
In65 O66 2.294 . S
In65 O67 2.326 . S
In65 O71 2.266 . S
In65 O72 2.326 . S
In65 O73 2.266 . S
In65 O74 2.326 . S
In65 O76 2.294 . S
In65 O77 2.326 . S
O66 In65 2.294 . S
O66 C75 1.240 . S
O67 In65 2.326 . S
O67 C75 1.252 . S
C68 O71 1.252 . S
C68 O72 1.260 . S
C69 O76 1.240 . S
C69 O77 1.252 . S
C70 O73 1.252 . S
C70 O74 1.260 . S
O71 In65 2.266 . S
O71 C68 1.252 . S
O72 In65 2.326 . S
O72 C68 1.260 . S
O73 In65 2.266 . S
O73 C70 1.252 . S
O74 In65 2.326 . S
O74 C70 1.260 . S
C75 O66 1.240 . S
C75 O67 1.252 . S
O76 In65 2.294 . S
O76 C69 1.240 . S
O77 In65 2.326 . S
O77 C69 1.252 . S
In78 O79 2.294 . S
In78 O80 2.326 . S
In78 O84 2.266 . S
In78 O85 2.326 . S
In78 O86 2.266 . S
In78 O87 2.326 . S
In78 O89 2.294 . S
In78 O90 2.326 . S
O79 In78 2.294 . S
O79 C88 1.240 . S
O80 In78 2.326 . S
O80 C88 1.252 . S
C81 O84 1.252 . S
C81 O85 1.260 . S
C82 O89 1.240 . S
C82 O90 1.252 . S
C83 O86 1.252 . S
C83 O87 1.260 . S
O84 In78 2.266 . S
O84 C81 1.252 . S
O85 In78 2.326 . S
O85 C81 1.260 . S
O86 In78 2.266 . S
O86 C83 1.252 . S
O87 In78 2.326 . S
O87 C83 1.260 . S
C88 O79 1.240 . S
C88 O80 1.252 . S
O89 In78 2.294 . S
O89 C82 1.240 . S
O90 In78 2.326 . S
O90 C82 1.252 . S
In91 O92 2.294 . S
In91 O93 2.326 . S
In91 O97 2.266 . S
In91 O98 2.326 . S
In91 O99 2.266 . S
In91 O100 2.326 . S
In91 O102 2.294 . S
In91 O103 2.326 . S
O92 In91 2.294 . S
O92 C101 1.240 . S
O93 In91 2.326 . S
O93 C101 1.252 . S
C94 O97 1.252 . S
C94 O98 1.260 . S
C95 O102 1.240 . S
C95 O103 1.252 . S
C96 O99 1.252 . S
C96 O100 1.260 . S
O97 In91 2.266 . S
O97 C94 1.252 . S
O98 In91 2.326 . S
O98 C94 1.260 . S
O99 In91 2.266 . S
O99 C96 1.252 . S
O100 In91 2.326 . S
O100 C96 1.260 . S
C101 O92 1.240 . S
C101 O93 1.252 . S
O102 In91 2.294 . S
O102 C95 1.240 . S
O103 In91 2.326 . S
O103 C95 1.252 . S
In104 O105 2.294 . S
In104 O106 2.326 . S
In104 O110 2.266 . S
In104 O111 2.326 . S
In104 O112 2.266 . S
In104 O113 2.326 . S
In104 O115 2.294 . S
In104 O116 2.326 . S
O105 In104 2.294 . S
O105 C114 1.240 . S
O106 In104 2.326 . S
O106 C114 1.252 . S
C107 O110 1.252 . S
C107 O111 1.260 . S
C108 O115 1.240 . S
C108 O116 1.252 . S
C109 O112 1.252 . S
C109 O113 1.260 . S
O110 In104 2.266 . S
O110 C107 1.252 . S
O111 In104 2.326 . S
O111 C107 1.260 . S
O112 In104 2.266 . S
O112 C109 1.252 . S
O113 In104 2.326 . S
O113 C109 1.260 . S
C114 O105 1.240 . S
C114 O106 1.252 . S
O115 In104 2.294 . S
O115 C108 1.240 . S
O116 In104 2.326 . S
O116 C108 1.252 . S
In117 O118 2.294 . S
In117 O119 2.326 . S
In117 O123 2.266 . S
In117 O124 2.326 . S
In117 O125 2.266 . S
In117 O126 2.326 . S
In117 O128 2.294 . S
In117 O129 2.326 . S
O118 In117 2.294 . S
O118 C127 1.240 . S
O119 In117 2.326 . S
O119 C127 1.252 . S
C120 O123 1.252 . S
C120 O124 1.260 . S
C121 O128 1.240 . S
C121 O129 1.252 . S
C122 O125 1.252 . S
C122 O126 1.260 . S
O123 In117 2.266 . S
O123 C120 1.252 . S
O124 In117 2.326 . S
O124 C120 1.260 . S
O125 In117 2.266 . S
O125 C122 1.252 . S
O126 In117 2.326 . S
O126 C122 1.260 . S
C127 O118 1.240 . S
C127 O119 1.252 . S
O128 In117 2.294 . S
O128 C121 1.240 . S
O129 In117 2.326 . S
O129 C121 1.252 . S
In130 O131 2.294 . S
In130 O132 2.326 . S
In130 O136 2.266 . S
In130 O137 2.326 . S
In130 O138 2.266 . S
In130 O139 2.326 . S
In130 O141 2.294 . S
In130 O142 2.326 . S
O131 In130 2.294 . S
O131 C140 1.240 . S
O132 In130 2.326 . S
O132 C140 1.252 . S
C133 O136 1.252 . S
C133 O137 1.260 . S
C134 O141 1.240 . S
C134 O142 1.252 . S
C135 O138 1.252 . S
C135 O139 1.260 . S
O136 In130 2.266 . S
O136 C133 1.252 . S
O137 In130 2.326 . S
O137 C133 1.260 . S
O138 In130 2.266 . S
O138 C135 1.252 . S
O139 In130 2.326 . S
O139 C135 1.260 . S
C140 O131 1.240 . S
C140 O132 1.252 . S
O141 In130 2.294 . S
O141 C134 1.240 . S
O142 In130 2.326 . S
O142 C134 1.252 . S
In143 O144 2.294 . S
In143 O145 2.326 . S
In143 O149 2.266 . S
In143 O150 2.326 . S
In143 O151 2.266 . S
In143 O152 2.326 . S
In143 O154 2.294 . S
In143 O155 2.326 . S
O144 In143 2.294 . S
O144 C153 1.240 . S
O145 In143 2.326 . S
O145 C153 1.252 . S
C146 O149 1.252 . S
C146 O150 1.260 . S
C147 O154 1.240 . S
C147 O155 1.252 . S
C148 O151 1.252 . S
C148 O152 1.260 . S
O149 In143 2.266 . S
O149 C146 1.252 . S
O150 In143 2.326 . S
O150 C146 1.260 . S
O151 In143 2.266 . S
O151 C148 1.252 . S
O152 In143 2.326 . S
O152 C148 1.260 . S
C153 O144 1.240 . S
C153 O145 1.252 . S
O154 In143 2.294 . S
O154 C147 1.240 . S
O155 In143 2.326 . S
O155 C147 1.252 . S
In156 O157 2.294 . S
In156 O158 2.326 . S
In156 O162 2.266 . S
In156 O163 2.326 . S
In156 O164 2.266 . S
In156 O165 2.326 . S
In156 O167 2.294 . S
In156 O168 2.326 . S
O157 In156 2.294 . S
O157 C166 1.240 . S
O158 In156 2.326 . S
O158 C166 1.252 . S
C159 O162 1.252 . S
C159 O163 1.260 . S
C160 O167 1.240 . S
C160 O168 1.252 . S
C161 O164 1.252 . S
C161 O165 1.260 . S
O162 In156 2.266 . S
O162 C159 1.252 . S
O163 In156 2.326 . S
O163 C159 1.260 . S
O164 In156 2.266 . S
O164 C161 1.252 . S
O165 In156 2.326 . S
O165 C161 1.260 . S
C166 O157 1.240 . S
C166 O158 1.252 . S
O167 In156 2.294 . S
O167 C160 1.240 . S
O168 In156 2.326 . S
O168 C160 1.252 . S
In169 O170 2.294 . S
In169 O171 2.326 . S
In169 O175 2.266 . S
In169 O176 2.326 . S
In169 O177 2.266 . S
In169 O178 2.326 . S
In169 O180 2.294 . S
In169 O181 2.326 . S
O170 In169 2.294 . S
O170 C179 1.240 . S
O171 In169 2.326 . S
O171 C179 1.252 . S
C172 O175 1.252 . S
C172 O176 1.260 . S
C173 O180 1.240 . S
C173 O181 1.252 . S
C174 O177 1.252 . S
C174 O178 1.260 . S
O175 In169 2.266 . S
O175 C172 1.252 . S
O176 In169 2.326 . S
O176 C172 1.260 . S
O177 In169 2.266 . S
O177 C174 1.252 . S
O178 In169 2.326 . S
O178 C174 1.260 . S
C179 O170 1.240 . S
C179 O171 1.252 . S
O180 In169 2.294 . S
O180 C173 1.240 . S
O181 In169 2.326 . S
O181 C173 1.252 . S
In182 O183 2.294 . S
In182 O184 2.326 . S
In182 O188 2.266 . S
In182 O189 2.326 . S
In182 O190 2.266 . S
In182 O191 2.326 . S
In182 O193 2.294 . S
In182 O194 2.326 . S
O183 In182 2.294 . S
O183 C192 1.240 . S
O184 In182 2.326 . S
O184 C192 1.252 . S
C185 O188 1.252 . S
C185 O189 1.260 . S
C186 O193 1.240 . S
C186 O194 1.252 . S
C187 O190 1.252 . S
C187 O191 1.260 . S
O188 In182 2.266 . S
O188 C185 1.252 . S
O189 In182 2.326 . S
O189 C185 1.260 . S
O190 In182 2.266 . S
O190 C187 1.252 . S
O191 In182 2.326 . S
O191 C187 1.260 . S
C192 O183 1.240 . S
C192 O184 1.252 . S
O193 In182 2.294 . S
O193 C186 1.240 . S
O194 In182 2.326 . S
O194 C186 1.252 . S
In195 O196 2.294 . S
In195 O197 2.326 . S
In195 O201 2.266 . S
In195 O202 2.326 . S
In195 O203 2.266 . S
In195 O204 2.326 . S
In195 O206 2.294 . S
In195 O207 2.326 . S
O196 In195 2.294 . S
O196 C205 1.240 . S
O197 In195 2.326 . S
O197 C205 1.252 . S
C198 O201 1.252 . S
C198 O202 1.260 . S
C199 O206 1.240 . S
C199 O207 1.252 . S
C200 O203 1.252 . S
C200 O204 1.260 . S
O201 In195 2.266 . S
O201 C198 1.252 . S
O202 In195 2.326 . S
O202 C198 1.260 . S
O203 In195 2.266 . S
O203 C200 1.252 . S
O204 In195 2.326 . S
O204 C200 1.260 . S
C205 O196 1.240 . S
C205 O197 1.252 . S
O206 In195 2.294 . S
O206 C199 1.240 . S
O207 In195 2.326 . S
O207 C199 1.252 . S
In208 O209 2.294 . S
In208 O210 2.326 . S
In208 O214 2.266 . S
In208 O215 2.326 . S
In208 O216 2.266 . S
In208 O217 2.326 . S
In208 O219 2.294 . S
In208 O220 2.326 . S
O209 In208 2.294 . S
O209 C218 1.240 . S
O210 In208 2.326 . S
O210 C218 1.252 . S
C211 O214 1.252 . S
C211 O215 1.260 . S
C212 O219 1.240 . S
C212 O220 1.252 . S
C213 O216 1.252 . S
C213 O217 1.260 . S
O214 In208 2.266 . S
O214 C211 1.252 . S
O215 In208 2.326 . S
O215 C211 1.260 . S
O216 In208 2.266 . S
O216 C213 1.252 . S
O217 In208 2.326 . S
O217 C213 1.260 . S
C218 O209 1.240 . S
C218 O210 1.252 . S
O219 In208 2.294 . S
O219 C212 1.240 . S
O220 In208 2.326 . S
O220 C212 1.252 . S
In221 O222 2.294 . S
In221 O223 2.326 . S
In221 O227 2.266 . S
In221 O228 2.326 . S
In221 O229 2.266 . S
In221 O230 2.326 . S
In221 O232 2.294 . S
In221 O233 2.326 . S
O222 In221 2.294 . S
O222 C231 1.240 . S
O223 In221 2.326 . S
O223 C231 1.252 . S
C224 O227 1.252 . S
C224 O228 1.260 . S
C225 O232 1.240 . S
C225 O233 1.252 . S
C226 O229 1.252 . S
C226 O230 1.260 . S
O227 In221 2.266 . S
O227 C224 1.252 . S
O228 In221 2.326 . S
O228 C224 1.260 . S
O229 In221 2.266 . S
O229 C226 1.252 . S
O230 In221 2.326 . S
O230 C226 1.260 . S
C231 O222 1.240 . S
C231 O223 1.252 . S
O232 In221 2.294 . S
O232 C225 1.240 . S
O233 In221 2.326 . S
O233 C225 1.252 . S
In234 O235 2.294 . S
In234 O236 2.326 . S
In234 O240 2.266 . S
In234 O241 2.326 . S
In234 O242 2.266 . S
In234 O243 2.326 . S
In234 O245 2.294 . S
In234 O246 2.326 . S
O235 In234 2.294 . S
O235 C244 1.240 . S
O236 In234 2.326 . S
O236 C244 1.252 . S
C237 O240 1.252 . S
C237 O241 1.260 . S
C238 O245 1.240 . S
C238 O246 1.252 . S
C239 O242 1.252 . S
C239 O243 1.260 . S
O240 In234 2.266 . S
O240 C237 1.252 . S
O241 In234 2.326 . S
O241 C237 1.260 . S
O242 In234 2.266 . S
O242 C239 1.252 . S
O243 In234 2.326 . S
O243 C239 1.260 . S
C244 O235 1.240 . S
C244 O236 1.252 . S
O245 In234 2.294 . S
O245 C238 1.240 . S
O246 In234 2.326 . S
O246 C238 1.252 . S
In247 O248 2.294 . S
In247 O249 2.326 . S
In247 O253 2.266 . S
In247 O254 2.326 . S
In247 O255 2.266 . S
In247 O256 2.326 . S
In247 O258 2.294 . S
In247 O259 2.326 . S
O248 In247 2.294 . S
O248 C257 1.240 . S
O249 In247 2.326 . S
O249 C257 1.252 . S
C250 O253 1.252 . S
C250 O254 1.260 . S
C251 O258 1.240 . S
C251 O259 1.252 . S
C252 O255 1.252 . S
C252 O256 1.260 . S
O253 In247 2.266 . S
O253 C250 1.252 . S
O254 In247 2.326 . S
O254 C250 1.260 . S
O255 In247 2.266 . S
O255 C252 1.252 . S
O256 In247 2.326 . S
O256 C252 1.260 . S
C257 O248 1.240 . S
C257 O249 1.252 . S
O258 In247 2.294 . S
O258 C251 1.240 . S
O259 In247 2.326 . S
O259 C251 1.252 . S
In260 O261 2.294 . S
In260 O262 2.326 . S
In260 O266 2.266 . S
In260 O267 2.326 . S
In260 O268 2.266 . S
In260 O269 2.326 . S
In260 O271 2.294 . S
In260 O272 2.326 . S
O261 In260 2.294 . S
O261 C270 1.240 . S
O262 In260 2.326 . S
O262 C270 1.252 . S
C263 O266 1.252 . S
C263 O267 1.260 . S
C264 O271 1.240 . S
C264 O272 1.252 . S
C265 O268 1.252 . S
C265 O269 1.260 . S
O266 In260 2.266 . S
O266 C263 1.252 . S
O267 In260 2.326 . S
O267 C263 1.260 . S
O268 In260 2.266 . S
O268 C265 1.252 . S
O269 In260 2.326 . S
O269 C265 1.260 . S
C270 O261 1.240 . S
C270 O262 1.252 . S
O271 In260 2.294 . S
O271 C264 1.240 . S
O272 In260 2.326 . S
O272 C264 1.252 . S
In273 O274 2.294 . S
In273 O275 2.326 . S
In273 O279 2.266 . S
In273 O280 2.326 . S
In273 O281 2.266 . S
In273 O282 2.326 . S
In273 O284 2.294 . S
In273 O285 2.326 . S
O274 In273 2.294 . S
O274 C283 1.240 . S
O275 In273 2.326 . S
O275 C283 1.252 . S
C276 O279 1.252 . S
C276 O280 1.260 . S
C277 O284 1.240 . S
C277 O285 1.252 . S
C278 O281 1.252 . S
C278 O282 1.260 . S
O279 In273 2.266 . S
O279 C276 1.252 . S
O280 In273 2.326 . S
O280 C276 1.260 . S
O281 In273 2.266 . S
O281 C278 1.252 . S
O282 In273 2.326 . S
O282 C278 1.260 . S
C283 O274 1.240 . S
C283 O275 1.252 . S
O284 In273 2.294 . S
O284 C277 1.240 . S
O285 In273 2.326 . S
O285 C277 1.252 . S
In286 O287 2.294 . S
In286 O288 2.326 . S
In286 O292 2.266 . S
In286 O293 2.326 . S
In286 O294 2.266 . S
In286 O295 2.326 . S
In286 O297 2.294 . S
In286 O298 2.326 . S
O287 In286 2.294 . S
O287 C296 1.240 . S
O288 In286 2.326 . S
O288 C296 1.252 . S
C289 O292 1.252 . S
C289 O293 1.260 . S
C290 O297 1.240 . S
C290 O298 1.252 . S
C291 O294 1.252 . S
C291 O295 1.260 . S
O292 In286 2.266 . S
O292 C289 1.252 . S
O293 In286 2.326 . S
O293 C289 1.260 . S
O294 In286 2.266 . S
O294 C291 1.252 . S
O295 In286 2.326 . S
O295 C291 1.260 . S
C296 O287 1.240 . S
C296 O288 1.252 . S
O297 In286 2.294 . S
O297 C290 1.240 . S
O298 In286 2.326 . S
O298 C290 1.252 . S
In299 O300 2.294 . S
In299 O301 2.326 . S
In299 O305 2.266 . S
In299 O306 2.326 . S
In299 O307 2.266 . S
In299 O308 2.326 . S
In299 O310 2.294 . S
In299 O311 2.326 . S
O300 In299 2.294 . S
O300 C309 1.240 . S
O301 In299 2.326 . S
O301 C309 1.252 . S
C302 O305 1.252 . S
C302 O306 1.260 . S
C303 O310 1.240 . S
C303 O311 1.252 . S
C304 O307 1.252 . S
C304 O308 1.260 . S
O305 In299 2.266 . S
O305 C302 1.252 . S
O306 In299 2.326 . S
O306 C302 1.260 . S
O307 In299 2.266 . S
O307 C304 1.252 . S
O308 In299 2.326 . S
O308 C304 1.260 . S
C309 O300 1.240 . S
C309 O301 1.252 . S
O310 In299 2.294 . S
O310 C303 1.240 . S
O311 In299 2.326 . S
O311 C303 1.252 . S
H312 C320 0.929 . S
H313 C322 0.930 . S
H314 C324 0.930 . S
H315 C327 0.929 . S
H316 C330 0.930 . S
H317 C332 0.960 . S
H318 C332 0.960 . S
H319 C332 0.960 . S
C320 H312 0.929 . S
C320 C321 1.377 . S
C320 C322 1.384 . S
C321 C320 1.377 . S
C321 C327 1.390 . S
C322 H313 0.930 . S
C322 C320 1.384 . S
C322 C323 1.372 . S
C323 C322 1.372 . S
C323 C324 1.400 . S
C323 C328 1.490 . S
C324 H314 0.930 . S
C324 C323 1.400 . S
C324 C327 1.386 . S
H325 C341 0.930 . S
H326 C342 0.931 . S
C327 H315 0.929 . S
C327 C321 1.390 . S
C327 C324 1.386 . S
C328 C323 1.490 . S
C328 C330 1.395 . S
C328 C331 1.403 . S
H329 C335 0.930 . S
C330 H316 0.930 . S
C330 C328 1.395 . S
C330 C333 1.403 . S
C331 C328 1.403 . S
C331 C332 1.524 . S
C331 C335 1.400 . S
C332 H317 0.960 . S
C332 H318 0.960 . S
C332 H319 0.960 . S
C332 C331 1.524 . S
C333 C330 1.403 . S
C333 C334 1.392 . S
C333 C337 1.495 . S
C334 C333 1.392 . S
C334 C335 1.385 . S
C334 C336 1.478 . S
C335 H329 0.930 . S
C335 C331 1.400 . S
C335 C334 1.385 . S
C336 C334 1.478 . S
C336 C338 1.381 . S
C336 C342 1.383 . S
C337 C333 1.495 . S
C337 H343 0.959 . S
C337 H344 0.961 . S
C337 H345 0.960 . S
C338 C336 1.381 . S
C338 C339 1.394 . S
C338 H346 0.930 . S
C339 C338 1.394 . S
C339 C340 1.383 . S
C339 H347 0.929 . S
C340 C339 1.383 . S
C340 C341 1.377 . S
C341 H325 0.930 . S
C341 C340 1.377 . S
C341 C342 1.379 . S
C342 H326 0.931 . S
C342 C336 1.383 . S
C342 C341 1.379 . S
H343 C337 0.959 . S
H344 C337 0.961 . S
H345 C337 0.960 . S
H346 C338 0.930 . S
H347 C339 0.929 . S
H348 C356 0.929 . S
H349 C358 0.930 . S
H350 C360 0.930 . S
H351 C363 0.929 . S
H352 C366 0.930 . S
H353 C368 0.960 . S
H354 C368 0.960 . S
H355 C368 0.960 . S
C356 H348 0.929 . S
C356 C357 1.377 . S
C356 C358 1.384 . S
C357 C356 1.377 . S
C357 C363 1.390 . S
C358 H349 0.930 . S
C358 C356 1.384 . S
C358 C359 1.372 . S
C359 C358 1.372 . S
C359 C360 1.400 . S
C359 C364 1.490 . S
C360 H350 0.930 . S
C360 C359 1.400 . S
C360 C363 1.386 . S
H361 C377 0.930 . S
H362 C378 0.931 . S
C363 H351 0.929 . S
C363 C357 1.390 . S
C363 C360 1.386 . S
C364 C359 1.490 . S
C364 C366 1.395 . S
C364 C367 1.403 . S
H365 C371 0.930 . S
C366 H352 0.930 . S
C366 C364 1.395 . S
C366 C369 1.403 . S
C367 C364 1.403 . S
C367 C368 1.524 . S
C367 C371 1.400 . S
C368 H353 0.960 . S
C368 H354 0.960 . S
C368 H355 0.960 . S
C368 C367 1.524 . S
C369 C366 1.403 . S
C369 C370 1.392 . S
C369 C373 1.495 . S
C370 C369 1.392 . S
C370 C371 1.385 . S
C370 C372 1.478 . S
C371 H365 0.930 . S
C371 C367 1.400 . S
C371 C370 1.385 . S
C372 C370 1.478 . S
C372 C374 1.381 . S
C372 C378 1.383 . S
C373 C369 1.495 . S
C373 H379 0.959 . S
C373 H380 0.961 . S
C373 H381 0.960 . S
C374 C372 1.381 . S
C374 C375 1.394 . S
C374 H382 0.930 . S
C375 C374 1.394 . S
C375 C376 1.383 . S
C375 H383 0.929 . S
C376 C375 1.383 . S
C376 C377 1.377 . S
C377 H361 0.930 . S
C377 C376 1.377 . S
C377 C378 1.379 . S
C378 H362 0.931 . S
C378 C372 1.383 . S
C378 C377 1.379 . S
H379 C373 0.959 . S
H380 C373 0.961 . S
H381 C373 0.960 . S
H382 C374 0.930 . S
H383 C375 0.929 . S
H384 C392 0.929 . S
H385 C394 0.930 . S
H386 C396 0.930 . S
H387 C399 0.929 . S
H388 C402 0.930 . S
H389 C404 0.960 . S
H390 C404 0.960 . S
H391 C404 0.960 . S
C392 H384 0.929 . S
C392 C393 1.377 . S
C392 C394 1.384 . S
C393 C392 1.377 . S
C393 C399 1.390 . S
C394 H385 0.930 . S
C394 C392 1.384 . S
C394 C395 1.372 . S
C395 C394 1.372 . S
C395 C396 1.400 . S
C395 C400 1.490 . S
C396 H386 0.930 . S
C396 C395 1.400 . S
C396 C399 1.386 . S
H397 C413 0.930 . S
H398 C414 0.931 . S
C399 H387 0.929 . S
C399 C393 1.390 . S
C399 C396 1.386 . S
C400 C395 1.490 . S
C400 C402 1.395 . S
C400 C403 1.403 . S
H401 C407 0.930 . S
C402 H388 0.930 . S
C402 C400 1.395 . S
C402 C405 1.403 . S
C403 C400 1.403 . S
C403 C404 1.524 . S
C403 C407 1.400 . S
C404 H389 0.960 . S
C404 H390 0.960 . S
C404 H391 0.960 . S
C404 C403 1.524 . S
C405 C402 1.403 . S
C405 C406 1.392 . S
C405 C409 1.495 . S
C406 C405 1.392 . S
C406 C407 1.385 . S
C406 C408 1.478 . S
C407 H401 0.930 . S
C407 C403 1.400 . S
C407 C406 1.385 . S
C408 C406 1.478 . S
C408 C410 1.381 . S
C408 C414 1.383 . S
C409 C405 1.495 . S
C409 H415 0.959 . S
C409 H416 0.961 . S
C409 H417 0.960 . S
C410 C408 1.381 . S
C410 C411 1.394 . S
C410 H418 0.930 . S
C411 C410 1.394 . S
C411 C412 1.383 . S
C411 H419 0.929 . S
C412 C411 1.383 . S
C412 C413 1.377 . S
C413 H397 0.930 . S
C413 C412 1.377 . S
C413 C414 1.379 . S
C414 H398 0.931 . S
C414 C408 1.383 . S
C414 C413 1.379 . S
H415 C409 0.959 . S
H416 C409 0.961 . S
H417 C409 0.960 . S
H418 C410 0.930 . S
H419 C411 0.929 . S
H420 C428 0.929 . S
H421 C430 0.930 . S
H422 C432 0.930 . S
H423 C435 0.929 . S
H424 C438 0.930 . S
H425 C440 0.960 . S
H426 C440 0.960 . S
H427 C440 0.960 . S
C428 H420 0.929 . S
C428 C429 1.377 . S
C428 C430 1.384 . S
C429 C428 1.377 . S
C429 C435 1.390 . S
C430 H421 0.930 . S
C430 C428 1.384 . S
C430 C431 1.372 . S
C431 C430 1.372 . S
C431 C432 1.400 . S
C431 C436 1.490 . S
C432 H422 0.930 . S
C432 C431 1.400 . S
C432 C435 1.386 . S
H433 C449 0.930 . S
H434 C450 0.931 . S
C435 H423 0.929 . S
C435 C429 1.390 . S
C435 C432 1.386 . S
C436 C431 1.490 . S
C436 C438 1.395 . S
C436 C439 1.403 . S
H437 C443 0.930 . S
C438 H424 0.930 . S
C438 C436 1.395 . S
C438 C441 1.403 . S
C439 C436 1.403 . S
C439 C440 1.524 . S
C439 C443 1.400 . S
C440 H425 0.960 . S
C440 H426 0.960 . S
C440 H427 0.960 . S
C440 C439 1.524 . S
C441 C438 1.403 . S
C441 C442 1.392 . S
C441 C445 1.495 . S
C442 C441 1.392 . S
C442 C443 1.385 . S
C442 C444 1.478 . S
C443 H437 0.930 . S
C443 C439 1.400 . S
C443 C442 1.385 . S
C444 C442 1.478 . S
C444 C446 1.381 . S
C444 C450 1.383 . S
C445 C441 1.495 . S
C445 H451 0.959 . S
C445 H452 0.961 . S
C445 H453 0.960 . S
C446 C444 1.381 . S
C446 C447 1.394 . S
C446 H454 0.930 . S
C447 C446 1.394 . S
C447 C448 1.383 . S
C447 H455 0.929 . S
C448 C447 1.383 . S
C448 C449 1.377 . S
C449 H433 0.930 . S
C449 C448 1.377 . S
C449 C450 1.379 . S
C450 H434 0.931 . S
C450 C444 1.383 . S
C450 C449 1.379 . S
H451 C445 0.959 . S
H452 C445 0.961 . S
H453 C445 0.960 . S
H454 C446 0.930 . S
H455 C447 0.929 . S
H456 C464 0.929 . S
H457 C466 0.930 . S
H458 C468 0.930 . S
H459 C471 0.929 . S
H460 C474 0.930 . S
H461 C476 0.960 . S
H462 C476 0.960 . S
H463 C476 0.960 . S
C464 H456 0.929 . S
C464 C465 1.377 . S
C464 C466 1.384 . S
C465 C464 1.377 . S
C465 C471 1.390 . S
C466 H457 0.930 . S
C466 C464 1.384 . S
C466 C467 1.372 . S
C467 C466 1.372 . S
C467 C468 1.400 . S
C467 C472 1.490 . S
C468 H458 0.930 . S
C468 C467 1.400 . S
C468 C471 1.386 . S
H469 C485 0.930 . S
H470 C486 0.931 . S
C471 H459 0.929 . S
C471 C465 1.390 . S
C471 C468 1.386 . S
C472 C467 1.490 . S
C472 C474 1.395 . S
C472 C475 1.403 . S
H473 C479 0.930 . S
C474 H460 0.930 . S
C474 C472 1.395 . S
C474 C477 1.403 . S
C475 C472 1.403 . S
C475 C476 1.524 . S
C475 C479 1.400 . S
C476 H461 0.960 . S
C476 H462 0.960 . S
C476 H463 0.960 . S
C476 C475 1.524 . S
C477 C474 1.403 . S
C477 C478 1.392 . S
C477 C481 1.495 . S
C478 C477 1.392 . S
C478 C479 1.385 . S
C478 C480 1.478 . S
C479 H473 0.930 . S
C479 C475 1.400 . S
C479 C478 1.385 . S
C480 C478 1.478 . S
C480 C482 1.381 . S
C480 C486 1.383 . S
C481 C477 1.495 . S
C481 H487 0.959 . S
C481 H488 0.961 . S
C481 H489 0.960 . S
C482 C480 1.381 . S
C482 C483 1.394 . S
C482 H490 0.930 . S
C483 C482 1.394 . S
C483 C484 1.383 . S
C483 H491 0.929 . S
C484 C483 1.383 . S
C484 C485 1.377 . S
C485 H469 0.930 . S
C485 C484 1.377 . S
C485 C486 1.379 . S
C486 H470 0.931 . S
C486 C480 1.383 . S
C486 C485 1.379 . S
H487 C481 0.959 . S
H488 C481 0.961 . S
H489 C481 0.960 . S
H490 C482 0.930 . S
H491 C483 0.929 . S
H492 C500 0.929 . S
H493 C502 0.930 . S
H494 C504 0.930 . S
H495 C507 0.929 . S
H496 C510 0.930 . S
H497 C512 0.960 . S
H498 C512 0.960 . S
H499 C512 0.960 . S
C500 H492 0.929 . S
C500 C501 1.377 . S
C500 C502 1.384 . S
C501 C500 1.377 . S
C501 C507 1.390 . S
C502 H493 0.930 . S
C502 C500 1.384 . S
C502 C503 1.372 . S
C503 C502 1.372 . S
C503 C504 1.400 . S
C503 C508 1.490 . S
C504 H494 0.930 . S
C504 C503 1.400 . S
C504 C507 1.386 . S
H505 C521 0.930 . S
H506 C522 0.931 . S
C507 H495 0.929 . S
C507 C501 1.390 . S
C507 C504 1.386 . S
C508 C503 1.490 . S
C508 C510 1.395 . S
C508 C511 1.403 . S
H509 C515 0.930 . S
C510 H496 0.930 . S
C510 C508 1.395 . S
C510 C513 1.403 . S
C511 C508 1.403 . S
C511 C512 1.524 . S
C511 C515 1.400 . S
C512 H497 0.960 . S
C512 H498 0.960 . S
C512 H499 0.960 . S
C512 C511 1.524 . S
C513 C510 1.403 . S
C513 C514 1.392 . S
C513 C517 1.495 . S
C514 C513 1.392 . S
C514 C515 1.385 . S
C514 C516 1.478 . S
C515 H509 0.930 . S
C515 C511 1.400 . S
C515 C514 1.385 . S
C516 C514 1.478 . S
C516 C518 1.381 . S
C516 C522 1.383 . S
C517 C513 1.495 . S
C517 H523 0.959 . S
C517 H524 0.961 . S
C517 H525 0.960 . S
C518 C516 1.381 . S
C518 C519 1.394 . S
C518 H526 0.930 . S
C519 C518 1.394 . S
C519 C520 1.383 . S
C519 H527 0.929 . S
C520 C519 1.383 . S
C520 C521 1.377 . S
C521 H505 0.930 . S
C521 C520 1.377 . S
C521 C522 1.379 . S
C522 H506 0.931 . S
C522 C516 1.383 . S
C522 C521 1.379 . S
H523 C517 0.959 . S
H524 C517 0.961 . S
H525 C517 0.960 . S
H526 C518 0.930 . S
H527 C519 0.929 . S
H528 C536 0.929 . S
H529 C538 0.930 . S
H530 C540 0.930 . S
H531 C543 0.929 . S
H532 C546 0.930 . S
H533 C548 0.960 . S
H534 C548 0.960 . S
H535 C548 0.960 . S
C536 H528 0.929 . S
C536 C537 1.377 . S
C536 C538 1.384 . S
C537 C536 1.377 . S
C537 C543 1.390 . S
C538 H529 0.930 . S
C538 C536 1.384 . S
C538 C539 1.372 . S
C539 C538 1.372 . S
C539 C540 1.400 . S
C539 C544 1.490 . S
C540 H530 0.930 . S
C540 C539 1.400 . S
C540 C543 1.386 . S
H541 C557 0.930 . S
H542 C558 0.931 . S
C543 H531 0.929 . S
C543 C537 1.390 . S
C543 C540 1.386 . S
C544 C539 1.490 . S
C544 C546 1.395 . S
C544 C547 1.403 . S
H545 C551 0.930 . S
C546 H532 0.930 . S
C546 C544 1.395 . S
C546 C549 1.403 . S
C547 C544 1.403 . S
C547 C548 1.524 . S
C547 C551 1.400 . S
C548 H533 0.960 . S
C548 H534 0.960 . S
C548 H535 0.960 . S
C548 C547 1.524 . S
C549 C546 1.403 . S
C549 C550 1.392 . S
C549 C553 1.495 . S
C550 C549 1.392 . S
C550 C551 1.385 . S
C550 C552 1.478 . S
C551 H545 0.930 . S
C551 C547 1.400 . S
C551 C550 1.385 . S
C552 C550 1.478 . S
C552 C554 1.381 . S
C552 C558 1.383 . S
C553 C549 1.495 . S
C553 H559 0.959 . S
C553 H560 0.961 . S
C553 H561 0.960 . S
C554 C552 1.381 . S
C554 C555 1.394 . S
C554 H562 0.930 . S
C555 C554 1.394 . S
C555 C556 1.383 . S
C555 H563 0.929 . S
C556 C555 1.383 . S
C556 C557 1.377 . S
C557 H541 0.930 . S
C557 C556 1.377 . S
C557 C558 1.379 . S
C558 H542 0.931 . S
C558 C552 1.383 . S
C558 C557 1.379 . S
H559 C553 0.959 . S
H560 C553 0.961 . S
H561 C553 0.960 . S
H562 C554 0.930 . S
H563 C555 0.929 . S
H564 C572 0.929 . S
H565 C574 0.930 . S
H566 C576 0.930 . S
H567 C579 0.929 . S
H568 C582 0.930 . S
H569 C584 0.960 . S
H570 C584 0.960 . S
H571 C584 0.960 . S
C572 H564 0.929 . S
C572 C573 1.377 . S
C572 C574 1.384 . S
C573 C572 1.377 . S
C573 C579 1.390 . S
C574 H565 0.930 . S
C574 C572 1.384 . S
C574 C575 1.372 . S
C575 C574 1.372 . S
C575 C576 1.400 . S
C575 C580 1.490 . S
C576 H566 0.930 . S
C576 C575 1.400 . S
C576 C579 1.386 . S
H577 C593 0.930 . S
H578 C594 0.931 . S
C579 H567 0.929 . S
C579 C573 1.390 . S
C579 C576 1.386 . S
C580 C575 1.490 . S
C580 C582 1.395 . S
C580 C583 1.403 . S
H581 C587 0.930 . S
C582 H568 0.930 . S
C582 C580 1.395 . S
C582 C585 1.403 . S
C583 C580 1.403 . S
C583 C584 1.524 . S
C583 C587 1.400 . S
C584 H569 0.960 . S
C584 H570 0.960 . S
C584 H571 0.960 . S
C584 C583 1.524 . S
C585 C582 1.403 . S
C585 C586 1.392 . S
C585 C589 1.495 . S
C586 C585 1.392 . S
C586 C587 1.385 . S
C586 C588 1.478 . S
C587 H581 0.930 . S
C587 C583 1.400 . S
C587 C586 1.385 . S
C588 C586 1.478 . S
C588 C590 1.381 . S
C588 C594 1.383 . S
C589 C585 1.495 . S
C589 H595 0.959 . S
C589 H596 0.961 . S
C589 H597 0.960 . S
C590 C588 1.381 . S
C590 C591 1.394 . S
C590 H598 0.930 . S
C591 C590 1.394 . S
C591 C592 1.383 . S
C591 H599 0.929 . S
C592 C591 1.383 . S
C592 C593 1.377 . S
C593 H577 0.930 . S
C593 C592 1.377 . S
C593 C594 1.379 . S
C594 H578 0.931 . S
C594 C588 1.383 . S
C594 C593 1.379 . S
H595 C589 0.959 . S
H596 C589 0.961 . S
H597 C589 0.960 . S
H598 C590 0.930 . S
H599 C591 0.929 . S
H600 C608 0.929 . S
H601 C610 0.930 . S
H602 C612 0.930 . S
H603 C615 0.929 . S
H604 C618 0.930 . S
H605 C620 0.960 . S
H606 C620 0.960 . S
H607 C620 0.960 . S
C608 H600 0.929 . S
C608 C609 1.377 . S
C608 C610 1.384 . S
C609 C608 1.377 . S
C609 C615 1.390 . S
C610 H601 0.930 . S
C610 C608 1.384 . S
C610 C611 1.372 . S
C611 C610 1.372 . S
C611 C612 1.400 . S
C611 C616 1.490 . S
C612 H602 0.930 . S
C612 C611 1.400 . S
C612 C615 1.386 . S
H613 C629 0.930 . S
H614 C630 0.931 . S
C615 H603 0.929 . S
C615 C609 1.390 . S
C615 C612 1.386 . S
C616 C611 1.490 . S
C616 C618 1.395 . S
C616 C619 1.403 . S
H617 C623 0.930 . S
C618 H604 0.930 . S
C618 C616 1.395 . S
C618 C621 1.403 . S
C619 C616 1.403 . S
C619 C620 1.524 . S
C619 C623 1.400 . S
C620 H605 0.960 . S
C620 H606 0.960 . S
C620 H607 0.960 . S
C620 C619 1.524 . S
C621 C618 1.403 . S
C621 C622 1.392 . S
C621 C625 1.495 . S
C622 C621 1.392 . S
C622 C623 1.385 . S
C622 C624 1.478 . S
C623 H617 0.930 . S
C623 C619 1.400 . S
C623 C622 1.385 . S
C624 C622 1.478 . S
C624 C626 1.381 . S
C624 C630 1.383 . S
C625 C621 1.495 . S
C625 H631 0.959 . S
C625 H632 0.961 . S
C625 H633 0.960 . S
C626 C624 1.381 . S
C626 C627 1.394 . S
C626 H634 0.930 . S
C627 C626 1.394 . S
C627 C628 1.383 . S
C627 H635 0.929 . S
C628 C627 1.383 . S
C628 C629 1.377 . S
C629 H613 0.930 . S
C629 C628 1.377 . S
C629 C630 1.379 . S
C630 H614 0.931 . S
C630 C624 1.383 . S
C630 C629 1.379 . S
H631 C625 0.959 . S
H632 C625 0.961 . S
H633 C625 0.960 . S
H634 C626 0.930 . S
H635 C627 0.929 . S
H636 C644 0.929 . S
H637 C646 0.930 . S
H638 C648 0.930 . S
H639 C651 0.929 . S
H640 C654 0.930 . S
H641 C656 0.960 . S
H642 C656 0.960 . S
H643 C656 0.960 . S
C644 H636 0.929 . S
C644 C645 1.377 . S
C644 C646 1.384 . S
C645 C644 1.377 . S
C645 C651 1.390 . S
C646 H637 0.930 . S
C646 C644 1.384 . S
C646 C647 1.372 . S
C647 C646 1.372 . S
C647 C648 1.400 . S
C647 C652 1.490 . S
C648 H638 0.930 . S
C648 C647 1.400 . S
C648 C651 1.386 . S
H649 C665 0.930 . S
H650 C666 0.931 . S
C651 H639 0.929 . S
C651 C645 1.390 . S
C651 C648 1.386 . S
C652 C647 1.490 . S
C652 C654 1.395 . S
C652 C655 1.403 . S
H653 C659 0.930 . S
C654 H640 0.930 . S
C654 C652 1.395 . S
C654 C657 1.403 . S
C655 C652 1.403 . S
C655 C656 1.524 . S
C655 C659 1.400 . S
C656 H641 0.960 . S
C656 H642 0.960 . S
C656 H643 0.960 . S
C656 C655 1.524 . S
C657 C654 1.403 . S
C657 C658 1.392 . S
C657 C661 1.495 . S
C658 C657 1.392 . S
C658 C659 1.385 . S
C658 C660 1.478 . S
C659 H653 0.930 . S
C659 C655 1.400 . S
C659 C658 1.385 . S
C660 C658 1.478 . S
C660 C662 1.381 . S
C660 C666 1.383 . S
C661 C657 1.495 . S
C661 H667 0.959 . S
C661 H668 0.961 . S
C661 H669 0.960 . S
C662 C660 1.381 . S
C662 C663 1.394 . S
C662 H670 0.930 . S
C663 C662 1.394 . S
C663 C664 1.383 . S
C663 H671 0.929 . S
C664 C663 1.383 . S
C664 C665 1.377 . S
C665 H649 0.930 . S
C665 C664 1.377 . S
C665 C666 1.379 . S
C666 H650 0.931 . S
C666 C660 1.383 . S
C666 C665 1.379 . S
H667 C661 0.959 . S
H668 C661 0.961 . S
H669 C661 0.960 . S
H670 C662 0.930 . S
H671 C663 0.929 . S
H672 C680 0.929 . S
H673 C682 0.930 . S
H674 C684 0.930 . S
H675 C687 0.929 . S
H676 C690 0.930 . S
H677 C692 0.960 . S
H678 C692 0.960 . S
H679 C692 0.960 . S
C680 H672 0.929 . S
C680 C681 1.377 . S
C680 C682 1.384 . S
C681 C680 1.377 . S
C681 C687 1.390 . S
C682 H673 0.930 . S
C682 C680 1.384 . S
C682 C683 1.372 . S
C683 C682 1.372 . S
C683 C684 1.400 . S
C683 C688 1.490 . S
C684 H674 0.930 . S
C684 C683 1.400 . S
C684 C687 1.386 . S
H685 C701 0.930 . S
H686 C702 0.931 . S
C687 H675 0.929 . S
C687 C681 1.390 . S
C687 C684 1.386 . S
C688 C683 1.490 . S
C688 C690 1.395 . S
C688 C691 1.403 . S
H689 C695 0.930 . S
C690 H676 0.930 . S
C690 C688 1.395 . S
C690 C693 1.403 . S
C691 C688 1.403 . S
C691 C692 1.524 . S
C691 C695 1.400 . S
C692 H677 0.960 . S
C692 H678 0.960 . S
C692 H679 0.960 . S
C692 C691 1.524 . S
C693 C690 1.403 . S
C693 C694 1.392 . S
C693 C697 1.495 . S
C694 C693 1.392 . S
C694 C695 1.385 . S
C694 C696 1.478 . S
C695 H689 0.930 . S
C695 C691 1.400 . S
C695 C694 1.385 . S
C696 C694 1.478 . S
C696 C698 1.381 . S
C696 C702 1.383 . S
C697 C693 1.495 . S
C697 H703 0.959 . S
C697 H704 0.961 . S
C697 H705 0.960 . S
C698 C696 1.381 . S
C698 C699 1.394 . S
C698 H706 0.930 . S
C699 C698 1.394 . S
C699 C700 1.383 . S
C699 H707 0.929 . S
C700 C699 1.383 . S
C700 C701 1.377 . S
C701 H685 0.930 . S
C701 C700 1.377 . S
C701 C702 1.379 . S
C702 H686 0.931 . S
C702 C696 1.383 . S
C702 C701 1.379 . S
H703 C697 0.959 . S
H704 C697 0.961 . S
H705 C697 0.960 . S
H706 C698 0.930 . S
H707 C699 0.929 . S
H708 C716 0.929 . S
H709 C718 0.930 . S
H710 C720 0.930 . S
H711 C723 0.929 . S
H712 C726 0.930 . S
H713 C728 0.960 . S
H714 C728 0.960 . S
H715 C728 0.960 . S
C716 H708 0.929 . S
C716 C717 1.377 . S
C716 C718 1.384 . S
C717 C716 1.377 . S
C717 C723 1.390 . S
C718 H709 0.930 . S
C718 C716 1.384 . S
C718 C719 1.372 . S
C719 C718 1.372 . S
C719 C720 1.400 . S
C719 C724 1.490 . S
C720 H710 0.930 . S
C720 C719 1.400 . S
C720 C723 1.386 . S
H721 C737 0.930 . S
H722 C738 0.931 . S
C723 H711 0.929 . S
C723 C717 1.390 . S
C723 C720 1.386 . S
C724 C719 1.490 . S
C724 C726 1.395 . S
C724 C727 1.403 . S
H725 C731 0.930 . S
C726 H712 0.930 . S
C726 C724 1.395 . S
C726 C729 1.403 . S
C727 C724 1.403 . S
C727 C728 1.524 . S
C727 C731 1.400 . S
C728 H713 0.960 . S
C728 H714 0.960 . S
C728 H715 0.960 . S
C728 C727 1.524 . S
C729 C726 1.403 . S
C729 C730 1.392 . S
C729 C733 1.495 . S
C730 C729 1.392 . S
C730 C731 1.385 . S
C730 C732 1.478 . S
C731 H725 0.930 . S
C731 C727 1.400 . S
C731 C730 1.385 . S
C732 C730 1.478 . S
C732 C734 1.381 . S
C732 C738 1.383 . S
C733 C729 1.495 . S
C733 H739 0.959 . S
C733 H740 0.961 . S
C733 H741 0.960 . S
C734 C732 1.381 . S
C734 C735 1.394 . S
C734 H742 0.930 . S
C735 C734 1.394 . S
C735 C736 1.383 . S
C735 H743 0.929 . S
C736 C735 1.383 . S
C736 C737 1.377 . S
C737 H721 0.930 . S
C737 C736 1.377 . S
C737 C738 1.379 . S
C738 H722 0.931 . S
C738 C732 1.383 . S
C738 C737 1.379 . S
H739 C733 0.959 . S
H740 C733 0.961 . S
H741 C733 0.960 . S
H742 C734 0.930 . S
H743 C735 0.929 . S
H744 C752 0.929 . S
H745 C754 0.930 . S
H746 C756 0.930 . S
H747 C759 0.929 . S
H748 C762 0.930 . S
H749 C764 0.960 . S
H750 C764 0.960 . S
H751 C764 0.960 . S
C752 H744 0.929 . S
C752 C753 1.377 . S
C752 C754 1.384 . S
C753 C752 1.377 . S
C753 C759 1.390 . S
C754 H745 0.930 . S
C754 C752 1.384 . S
C754 C755 1.372 . S
C755 C754 1.372 . S
C755 C756 1.400 . S
C755 C760 1.490 . S
C756 H746 0.930 . S
C756 C755 1.400 . S
C756 C759 1.386 . S
H757 C773 0.930 . S
H758 C774 0.931 . S
C759 H747 0.929 . S
C759 C753 1.390 . S
C759 C756 1.386 . S
C760 C755 1.490 . S
C760 C762 1.395 . S
C760 C763 1.403 . S
H761 C767 0.930 . S
C762 H748 0.930 . S
C762 C760 1.395 . S
C762 C765 1.403 . S
C763 C760 1.403 . S
C763 C764 1.524 . S
C763 C767 1.400 . S
C764 H749 0.960 . S
C764 H750 0.960 . S
C764 H751 0.960 . S
C764 C763 1.524 . S
C765 C762 1.403 . S
C765 C766 1.392 . S
C765 C769 1.495 . S
C766 C765 1.392 . S
C766 C767 1.385 . S
C766 C768 1.478 . S
C767 H761 0.930 . S
C767 C763 1.400 . S
C767 C766 1.385 . S
C768 C766 1.478 . S
C768 C770 1.381 . S
C768 C774 1.383 . S
C769 C765 1.495 . S
C769 H775 0.959 . S
C769 H776 0.961 . S
C769 H777 0.960 . S
C770 C768 1.381 . S
C770 C771 1.394 . S
C770 H778 0.930 . S
C771 C770 1.394 . S
C771 C772 1.383 . S
C771 H779 0.929 . S
C772 C771 1.383 . S
C772 C773 1.377 . S
C773 H757 0.930 . S
C773 C772 1.377 . S
C773 C774 1.379 . S
C774 H758 0.931 . S
C774 C768 1.383 . S
C774 C773 1.379 . S
H775 C769 0.959 . S
H776 C769 0.961 . S
H777 C769 0.960 . S
H778 C770 0.930 . S
H779 C771 0.929 . S
H780 C788 0.929 . S
H781 C790 0.930 . S
H782 C792 0.930 . S
H783 C795 0.929 . S
H784 C798 0.930 . S
H785 C800 0.960 . S
H786 C800 0.960 . S
H787 C800 0.960 . S
C788 H780 0.929 . S
C788 C789 1.377 . S
C788 C790 1.384 . S
C789 C788 1.377 . S
C789 C795 1.390 . S
C790 H781 0.930 . S
C790 C788 1.384 . S
C790 C791 1.372 . S
C791 C790 1.372 . S
C791 C792 1.400 . S
C791 C796 1.490 . S
C792 H782 0.930 . S
C792 C791 1.400 . S
C792 C795 1.386 . S
H793 C809 0.930 . S
H794 C810 0.931 . S
C795 H783 0.929 . S
C795 C789 1.390 . S
C795 C792 1.386 . S
C796 C791 1.490 . S
C796 C798 1.395 . S
C796 C799 1.403 . S
H797 C803 0.930 . S
C798 H784 0.930 . S
C798 C796 1.395 . S
C798 C801 1.403 . S
C799 C796 1.403 . S
C799 C800 1.524 . S
C799 C803 1.400 . S
C800 H785 0.960 . S
C800 H786 0.960 . S
C800 H787 0.960 . S
C800 C799 1.524 . S
C801 C798 1.403 . S
C801 C802 1.392 . S
C801 C805 1.495 . S
C802 C801 1.392 . S
C802 C803 1.385 . S
C802 C804 1.478 . S
C803 H797 0.930 . S
C803 C799 1.400 . S
C803 C802 1.385 . S
C804 C802 1.478 . S
C804 C806 1.381 . S
C804 C810 1.383 . S
C805 C801 1.495 . S
C805 H811 0.959 . S
C805 H812 0.961 . S
C805 H813 0.960 . S
C806 C804 1.381 . S
C806 C807 1.394 . S
C806 H814 0.930 . S
C807 C806 1.394 . S
C807 C808 1.383 . S
C807 H815 0.929 . S
C808 C807 1.383 . S
C808 C809 1.377 . S
C809 H793 0.930 . S
C809 C808 1.377 . S
C809 C810 1.379 . S
C810 H794 0.931 . S
C810 C804 1.383 . S
C810 C809 1.379 . S
H811 C805 0.959 . S
H812 C805 0.961 . S
H813 C805 0.960 . S
H814 C806 0.930 . S
H815 C807 0.929 . S
H816 C824 0.929 . S
H817 C826 0.930 . S
H818 C828 0.930 . S
H819 C831 0.929 . S
H820 C834 0.930 . S
H821 C836 0.960 . S
H822 C836 0.960 . S
H823 C836 0.960 . S
C824 H816 0.929 . S
C824 C825 1.377 . S
C824 C826 1.384 . S
C825 C824 1.377 . S
C825 C831 1.390 . S
C826 H817 0.930 . S
C826 C824 1.384 . S
C826 C827 1.372 . S
C827 C826 1.372 . S
C827 C828 1.400 . S
C827 C832 1.490 . S
C828 H818 0.930 . S
C828 C827 1.400 . S
C828 C831 1.386 . S
H829 C845 0.930 . S
H830 C846 0.931 . S
C831 H819 0.929 . S
C831 C825 1.390 . S
C831 C828 1.386 . S
C832 C827 1.490 . S
C832 C834 1.395 . S
C832 C835 1.403 . S
H833 C839 0.930 . S
C834 H820 0.930 . S
C834 C832 1.395 . S
C834 C837 1.403 . S
C835 C832 1.403 . S
C835 C836 1.524 . S
C835 C839 1.400 . S
C836 H821 0.960 . S
C836 H822 0.960 . S
C836 H823 0.960 . S
C836 C835 1.524 . S
C837 C834 1.403 . S
C837 C838 1.392 . S
C837 C841 1.495 . S
C838 C837 1.392 . S
C838 C839 1.385 . S
C838 C840 1.478 . S
C839 H833 0.930 . S
C839 C835 1.400 . S
C839 C838 1.385 . S
C840 C838 1.478 . S
C840 C842 1.381 . S
C840 C846 1.383 . S
C841 C837 1.495 . S
C841 H847 0.959 . S
C841 H848 0.961 . S
C841 H849 0.960 . S
C842 C840 1.381 . S
C842 C843 1.394 . S
C842 H850 0.930 . S
C843 C842 1.394 . S
C843 C844 1.383 . S
C843 H851 0.929 . S
C844 C843 1.383 . S
C844 C845 1.377 . S
C845 H829 0.930 . S
C845 C844 1.377 . S
C845 C846 1.379 . S
C846 H830 0.931 . S
C846 C840 1.383 . S
C846 C845 1.379 . S
H847 C841 0.959 . S
H848 C841 0.961 . S
H849 C841 0.960 . S
H850 C842 0.930 . S
H851 C843 0.929 . S
H852 C860 0.929 . S
H853 C862 0.930 . S
H854 C864 0.930 . S
H855 C867 0.929 . S
H856 C870 0.930 . S
H857 C872 0.960 . S
H858 C872 0.960 . S
H859 C872 0.960 . S
C860 H852 0.929 . S
C860 C861 1.377 . S
C860 C862 1.384 . S
C861 C860 1.377 . S
C861 C867 1.390 . S
C862 H853 0.930 . S
C862 C860 1.384 . S
C862 C863 1.372 . S
C863 C862 1.372 . S
C863 C864 1.400 . S
C863 C868 1.490 . S
C864 H854 0.930 . S
C864 C863 1.400 . S
C864 C867 1.386 . S
H865 C881 0.930 . S
H866 C882 0.931 . S
C867 H855 0.929 . S
C867 C861 1.390 . S
C867 C864 1.386 . S
C868 C863 1.490 . S
C868 C870 1.395 . S
C868 C871 1.403 . S
H869 C875 0.930 . S
C870 H856 0.930 . S
C870 C868 1.395 . S
C870 C873 1.403 . S
C871 C868 1.403 . S
C871 C872 1.524 . S
C871 C875 1.400 . S
C872 H857 0.960 . S
C872 H858 0.960 . S
C872 H859 0.960 . S
C872 C871 1.524 . S
C873 C870 1.403 . S
C873 C874 1.392 . S
C873 C877 1.495 . S
C874 C873 1.392 . S
C874 C875 1.385 . S
C874 C876 1.478 . S
C875 H869 0.930 . S
C875 C871 1.400 . S
C875 C874 1.385 . S
C876 C874 1.478 . S
C876 C878 1.381 . S
C876 C882 1.383 . S
C877 C873 1.495 . S
C877 H883 0.959 . S
C877 H884 0.961 . S
C877 H885 0.960 . S
C878 C876 1.381 . S
C878 C879 1.394 . S
C878 H886 0.930 . S
C879 C878 1.394 . S
C879 C880 1.383 . S
C879 H887 0.929 . S
C880 C879 1.383 . S
C880 C881 1.377 . S
C881 H865 0.930 . S
C881 C880 1.377 . S
C881 C882 1.379 . S
C882 H866 0.931 . S
C882 C876 1.383 . S
C882 C881 1.379 . S
H883 C877 0.959 . S
H884 C877 0.961 . S
H885 C877 0.960 . S
H886 C878 0.930 . S
H887 C879 0.929 . S
H888 C896 0.929 . S
H889 C898 0.930 . S
H890 C900 0.930 . S
H891 C903 0.929 . S
H892 C906 0.930 . S
H893 C908 0.960 . S
H894 C908 0.960 . S
H895 C908 0.960 . S
C896 H888 0.929 . S
C896 C897 1.377 . S
C896 C898 1.384 . S
C897 C896 1.377 . S
C897 C903 1.390 . S
C898 H889 0.930 . S
C898 C896 1.384 . S
C898 C899 1.372 . S
C899 C898 1.372 . S
C899 C900 1.400 . S
C899 C904 1.490 . S
C900 H890 0.930 . S
C900 C899 1.400 . S
C900 C903 1.386 . S
H901 C917 0.930 . S
H902 C918 0.931 . S
C903 H891 0.929 . S
C903 C897 1.390 . S
C903 C900 1.386 . S
C904 C899 1.490 . S
C904 C906 1.395 . S
C904 C907 1.403 . S
H905 C911 0.930 . S
C906 H892 0.930 . S
C906 C904 1.395 . S
C906 C909 1.403 . S
C907 C904 1.403 . S
C907 C908 1.524 . S
C907 C911 1.400 . S
C908 H893 0.960 . S
C908 H894 0.960 . S
C908 H895 0.960 . S
C908 C907 1.524 . S
C909 C906 1.403 . S
C909 C910 1.392 . S
C909 C913 1.495 . S
C910 C909 1.392 . S
C910 C911 1.385 . S
C910 C912 1.478 . S
C911 H905 0.930 . S
C911 C907 1.400 . S
C911 C910 1.385 . S
C912 C910 1.478 . S
C912 C914 1.381 . S
C912 C918 1.383 . S
C913 C909 1.495 . S
C913 H919 0.959 . S
C913 H920 0.961 . S
C913 H921 0.960 . S
C914 C912 1.381 . S
C914 C915 1.394 . S
C914 H922 0.930 . S
C915 C914 1.394 . S
C915 C916 1.383 . S
C915 H923 0.929 . S
C916 C915 1.383 . S
C916 C917 1.377 . S
C917 H901 0.930 . S
C917 C916 1.377 . S
C917 C918 1.379 . S
C918 H902 0.931 . S
C918 C912 1.383 . S
C918 C917 1.379 . S
H919 C913 0.959 . S
H920 C913 0.961 . S
H921 C913 0.960 . S
H922 C914 0.930 . S
H923 C915 0.929 . S
H924 C932 0.929 . S
H925 C934 0.930 . S
H926 C936 0.930 . S
H927 C939 0.929 . S
H928 C942 0.930 . S
H929 C944 0.960 . S
H930 C944 0.960 . S
H931 C944 0.960 . S
C932 H924 0.929 . S
C932 C933 1.377 . S
C932 C934 1.384 . S
C933 C932 1.377 . S
C933 C939 1.390 . S
C934 H925 0.930 . S
C934 C932 1.384 . S
C934 C935 1.372 . S
C935 C934 1.372 . S
C935 C936 1.400 . S
C935 C940 1.490 . S
C936 H926 0.930 . S
C936 C935 1.400 . S
C936 C939 1.386 . S
H937 C953 0.930 . S
H938 C954 0.931 . S
C939 H927 0.929 . S
C939 C933 1.390 . S
C939 C936 1.386 . S
C940 C935 1.490 . S
C940 C942 1.395 . S
C940 C943 1.403 . S
H941 C947 0.930 . S
C942 H928 0.930 . S
C942 C940 1.395 . S
C942 C945 1.403 . S
C943 C940 1.403 . S
C943 C944 1.524 . S
C943 C947 1.400 . S
C944 H929 0.960 . S
C944 H930 0.960 . S
C944 H931 0.960 . S
C944 C943 1.524 . S
C945 C942 1.403 . S
C945 C946 1.392 . S
C945 C949 1.495 . S
C946 C945 1.392 . S
C946 C947 1.385 . S
C946 C948 1.478 . S
C947 H941 0.930 . S
C947 C943 1.400 . S
C947 C946 1.385 . S
C948 C946 1.478 . S
C948 C950 1.381 . S
C948 C954 1.383 . S
C949 C945 1.495 . S
C949 H955 0.959 . S
C949 H956 0.961 . S
C949 H957 0.960 . S
C950 C948 1.381 . S
C950 C951 1.394 . S
C950 H958 0.930 . S
C951 C950 1.394 . S
C951 C952 1.383 . S
C951 H959 0.929 . S
C952 C951 1.383 . S
C952 C953 1.377 . S
C953 H937 0.930 . S
C953 C952 1.377 . S
C953 C954 1.379 . S
C954 H938 0.931 . S
C954 C948 1.383 . S
C954 C953 1.379 . S
H955 C949 0.959 . S
H956 C949 0.961 . S
H957 C949 0.960 . S
H958 C950 0.930 . S
H959 C951 0.929 . S
H960 C968 0.929 . S
H961 C970 0.930 . S
H962 C972 0.930 . S
H963 C975 0.929 . S
H964 C978 0.930 . S
H965 C980 0.960 . S
H966 C980 0.960 . S
H967 C980 0.960 . S
C968 H960 0.929 . S
C968 C969 1.377 . S
C968 C970 1.384 . S
C969 C968 1.377 . S
C969 C975 1.390 . S
C970 H961 0.930 . S
C970 C968 1.384 . S
C970 C971 1.372 . S
C971 C970 1.372 . S
C971 C972 1.400 . S
C971 C976 1.490 . S
C972 H962 0.930 . S
C972 C971 1.400 . S
C972 C975 1.386 . S
H973 C989 0.930 . S
H974 C990 0.931 . S
C975 H963 0.929 . S
C975 C969 1.390 . S
C975 C972 1.386 . S
C976 C971 1.490 . S
C976 C978 1.395 . S
C976 C979 1.403 . S
H977 C983 0.930 . S
C978 H964 0.930 . S
C978 C976 1.395 . S
C978 C981 1.403 . S
C979 C976 1.403 . S
C979 C980 1.524 . S
C979 C983 1.400 . S
C980 H965 0.960 . S
C980 H966 0.960 . S
C980 H967 0.960 . S
C980 C979 1.524 . S
C981 C978 1.403 . S
C981 C982 1.392 . S
C981 C985 1.495 . S
C982 C981 1.392 . S
C982 C983 1.385 . S
C982 C984 1.478 . S
C983 H977 0.930 . S
C983 C979 1.400 . S
C983 C982 1.385 . S
C984 C982 1.478 . S
C984 C986 1.381 . S
C984 C990 1.383 . S
C985 C981 1.495 . S
C985 H991 0.959 . S
C985 H992 0.961 . S
C985 H993 0.960 . S
C986 C984 1.381 . S
C986 C987 1.394 . S
C986 H994 0.930 . S
C987 C986 1.394 . S
C987 C988 1.383 . S
C987 H995 0.929 . S
C988 C987 1.383 . S
C988 C989 1.377 . S
C989 H973 0.930 . S
C989 C988 1.377 . S
C989 C990 1.379 . S
C990 H974 0.931 . S
C990 C984 1.383 . S
C990 C989 1.379 . S
H991 C985 0.959 . S
H992 C985 0.961 . S
H993 C985 0.960 . S
H994 C986 0.930 . S
H995 C987 0.929 . S
H996 C1004 0.929 . S
H997 C1006 0.930 . S
H998 C1008 0.930 . S
H999 C1011 0.929 . S
H1000 C1014 0.930 . S
H1001 C1016 0.960 . S
H1002 C1016 0.960 . S
H1003 C1016 0.960 . S
C1004 H996 0.929 . S
C1004 C1005 1.377 . S
C1004 C1006 1.384 . S
C1005 C1004 1.377 . S
C1005 C1011 1.390 . S
C1006 H997 0.930 . S
C1006 C1004 1.384 . S
C1006 C1007 1.372 . S
C1007 C1006 1.372 . S
C1007 C1008 1.400 . S
C1007 C1012 1.490 . S
C1008 H998 0.930 . S
C1008 C1007 1.400 . S
C1008 C1011 1.386 . S
H1009 C1025 0.930 . S
H1010 C1026 0.931 . S
C1011 H999 0.929 . S
C1011 C1005 1.390 . S
C1011 C1008 1.386 . S
C1012 C1007 1.490 . S
C1012 C1014 1.395 . S
C1012 C1015 1.403 . S
H1013 C1019 0.930 . S
C1014 H1000 0.930 . S
C1014 C1012 1.395 . S
C1014 C1017 1.403 . S
C1015 C1012 1.403 . S
C1015 C1016 1.524 . S
C1015 C1019 1.400 . S
C1016 H1001 0.960 . S
C1016 H1002 0.960 . S
C1016 H1003 0.960 . S
C1016 C1015 1.524 . S
C1017 C1014 1.403 . S
C1017 C1018 1.392 . S
C1017 C1021 1.495 . S
C1018 C1017 1.392 . S
C1018 C1019 1.385 . S
C1018 C1020 1.478 . S
C1019 H1013 0.930 . S
C1019 C1015 1.400 . S
C1019 C1018 1.385 . S
C1020 C1018 1.478 . S
C1020 C1022 1.381 . S
C1020 C1026 1.383 . S
C1021 C1017 1.495 . S
C1021 H1027 0.959 . S
C1021 H1028 0.961 . S
C1021 H1029 0.960 . S
C1022 C1020 1.381 . S
C1022 C1023 1.394 . S
C1022 H1030 0.930 . S
C1023 C1022 1.394 . S
C1023 C1024 1.383 . S
C1023 H1031 0.929 . S
C1024 C1023 1.383 . S
C1024 C1025 1.377 . S
C1025 H1009 0.930 . S
C1025 C1024 1.377 . S
C1025 C1026 1.379 . S
C1026 H1010 0.931 . S
C1026 C1020 1.383 . S
C1026 C1025 1.379 . S
H1027 C1021 0.959 . S
H1028 C1021 0.961 . S
H1029 C1021 0.960 . S
H1030 C1022 0.930 . S
H1031 C1023 0.929 . S
H1032 C1040 0.929 . S
H1033 C1042 0.930 . S
H1034 C1044 0.930 . S
H1035 C1047 0.929 . S
H1036 C1050 0.930 . S
H1037 C1052 0.960 . S
H1038 C1052 0.960 . S
H1039 C1052 0.960 . S
C1040 H1032 0.929 . S
C1040 C1041 1.377 . S
C1040 C1042 1.384 . S
C1041 C1040 1.377 . S
C1041 C1047 1.390 . S
C1042 H1033 0.930 . S
C1042 C1040 1.384 . S
C1042 C1043 1.372 . S
C1043 C1042 1.372 . S
C1043 C1044 1.400 . S
C1043 C1048 1.490 . S
C1044 H1034 0.930 . S
C1044 C1043 1.400 . S
C1044 C1047 1.386 . S
H1045 C1061 0.930 . S
H1046 C1062 0.931 . S
C1047 H1035 0.929 . S
C1047 C1041 1.390 . S
C1047 C1044 1.386 . S
C1048 C1043 1.490 . S
C1048 C1050 1.395 . S
C1048 C1051 1.403 . S
H1049 C1055 0.930 . S
C1050 H1036 0.930 . S
C1050 C1048 1.395 . S
C1050 C1053 1.403 . S
C1051 C1048 1.403 . S
C1051 C1052 1.524 . S
C1051 C1055 1.400 . S
C1052 H1037 0.960 . S
C1052 H1038 0.960 . S
C1052 H1039 0.960 . S
C1052 C1051 1.524 . S
C1053 C1050 1.403 . S
C1053 C1054 1.392 . S
C1053 C1057 1.495 . S
C1054 C1053 1.392 . S
C1054 C1055 1.385 . S
C1054 C1056 1.478 . S
C1055 H1049 0.930 . S
C1055 C1051 1.400 . S
C1055 C1054 1.385 . S
C1056 C1054 1.478 . S
C1056 C1058 1.381 . S
C1056 C1062 1.383 . S
C1057 C1053 1.495 . S
C1057 H1063 0.959 . S
C1057 H1064 0.961 . S
C1057 H1065 0.960 . S
C1058 C1056 1.381 . S
C1058 C1059 1.394 . S
C1058 H1066 0.930 . S
C1059 C1058 1.394 . S
C1059 C1060 1.383 . S
C1059 H1067 0.929 . S
C1060 C1059 1.383 . S
C1060 C1061 1.377 . S
C1061 H1045 0.930 . S
C1061 C1060 1.377 . S
C1061 C1062 1.379 . S
C1062 H1046 0.931 . S
C1062 C1056 1.383 . S
C1062 C1061 1.379 . S
H1063 C1057 0.959 . S
H1064 C1057 0.961 . S
H1065 C1057 0.960 . S
H1066 C1058 0.930 . S
H1067 C1059 0.929 . S
H1068 C1076 0.929 . S
H1069 C1078 0.930 . S
H1070 C1080 0.930 . S
H1071 C1083 0.929 . S
H1072 C1086 0.930 . S
H1073 C1088 0.960 . S
H1074 C1088 0.960 . S
H1075 C1088 0.960 . S
C1076 H1068 0.929 . S
C1076 C1077 1.377 . S
C1076 C1078 1.384 . S
C1077 C1076 1.377 . S
C1077 C1083 1.390 . S
C1078 H1069 0.930 . S
C1078 C1076 1.384 . S
C1078 C1079 1.372 . S
C1079 C1078 1.372 . S
C1079 C1080 1.400 . S
C1079 C1084 1.490 . S
C1080 H1070 0.930 . S
C1080 C1079 1.400 . S
C1080 C1083 1.386 . S
H1081 C1097 0.930 . S
H1082 C1098 0.931 . S
C1083 H1071 0.929 . S
C1083 C1077 1.390 . S
C1083 C1080 1.386 . S
C1084 C1079 1.490 . S
C1084 C1086 1.395 . S
C1084 C1087 1.403 . S
H1085 C1091 0.930 . S
C1086 H1072 0.930 . S
C1086 C1084 1.395 . S
C1086 C1089 1.403 . S
C1087 C1084 1.403 . S
C1087 C1088 1.524 . S
C1087 C1091 1.400 . S
C1088 H1073 0.960 . S
C1088 H1074 0.960 . S
C1088 H1075 0.960 . S
C1088 C1087 1.524 . S
C1089 C1086 1.403 . S
C1089 C1090 1.392 . S
C1089 C1093 1.495 . S
C1090 C1089 1.392 . S
C1090 C1091 1.385 . S
C1090 C1092 1.478 . S
C1091 H1085 0.930 . S
C1091 C1087 1.400 . S
C1091 C1090 1.385 . S
C1092 C1090 1.478 . S
C1092 C1094 1.381 . S
C1092 C1098 1.383 . S
C1093 C1089 1.495 . S
C1093 H1099 0.959 . S
C1093 H1100 0.961 . S
C1093 H1101 0.960 . S
C1094 C1092 1.381 . S
C1094 C1095 1.394 . S
C1094 H1102 0.930 . S
C1095 C1094 1.394 . S
C1095 C1096 1.383 . S
C1095 H1103 0.929 . S
C1096 C1095 1.383 . S
C1096 C1097 1.377 . S
C1097 H1081 0.930 . S
C1097 C1096 1.377 . S
C1097 C1098 1.379 . S
C1098 H1082 0.931 . S
C1098 C1092 1.383 . S
C1098 C1097 1.379 . S
H1099 C1093 0.959 . S
H1100 C1093 0.961 . S
H1101 C1093 0.960 . S
H1102 C1094 0.930 . S
H1103 C1095 0.929 . S
H1104 C1112 0.929 . S
H1105 C1114 0.930 . S
H1106 C1116 0.930 . S
H1107 C1119 0.929 . S
H1108 C1122 0.930 . S
H1109 C1124 0.960 . S
H1110 C1124 0.960 . S
H1111 C1124 0.960 . S
C1112 H1104 0.929 . S
C1112 C1113 1.377 . S
C1112 C1114 1.384 . S
C1113 C1112 1.377 . S
C1113 C1119 1.390 . S
C1114 H1105 0.930 . S
C1114 C1112 1.384 . S
C1114 C1115 1.372 . S
C1115 C1114 1.372 . S
C1115 C1116 1.400 . S
C1115 C1120 1.490 . S
C1116 H1106 0.930 . S
C1116 C1115 1.400 . S
C1116 C1119 1.386 . S
H1117 C1133 0.930 . S
H1118 C1134 0.931 . S
C1119 H1107 0.929 . S
C1119 C1113 1.390 . S
C1119 C1116 1.386 . S
C1120 C1115 1.490 . S
C1120 C1122 1.395 . S
C1120 C1123 1.403 . S
H1121 C1127 0.930 . S
C1122 H1108 0.930 . S
C1122 C1120 1.395 . S
C1122 C1125 1.403 . S
C1123 C1120 1.403 . S
C1123 C1124 1.524 . S
C1123 C1127 1.400 . S
C1124 H1109 0.960 . S
C1124 H1110 0.960 . S
C1124 H1111 0.960 . S
C1124 C1123 1.524 . S
C1125 C1122 1.403 . S
C1125 C1126 1.392 . S
C1125 C1129 1.495 . S
C1126 C1125 1.392 . S
C1126 C1127 1.385 . S
C1126 C1128 1.478 . S
C1127 H1121 0.930 . S
C1127 C1123 1.400 . S
C1127 C1126 1.385 . S
C1128 C1126 1.478 . S
C1128 C1130 1.381 . S
C1128 C1134 1.383 . S
C1129 C1125 1.495 . S
C1129 H1135 0.959 . S
C1129 H1136 0.961 . S
C1129 H1137 0.960 . S
C1130 C1128 1.381 . S
C1130 C1131 1.394 . S
C1130 H1138 0.930 . S
C1131 C1130 1.394 . S
C1131 C1132 1.383 . S
C1131 H1139 0.929 . S
C1132 C1131 1.383 . S
C1132 C1133 1.377 . S
C1133 H1117 0.930 . S
C1133 C1132 1.377 . S
C1133 C1134 1.379 . S
C1134 H1118 0.931 . S
C1134 C1128 1.383 . S
C1134 C1133 1.379 . S
H1135 C1129 0.959 . S
H1136 C1129 0.961 . S
H1137 C1129 0.960 . S
H1138 C1130 0.930 . S
H1139 C1131 0.929 . S
H1140 C1148 0.929 . S
H1141 C1150 0.930 . S
H1142 C1152 0.930 . S
H1143 C1155 0.929 . S
H1144 C1158 0.930 . S
H1145 C1160 0.960 . S
H1146 C1160 0.960 . S
H1147 C1160 0.960 . S
C1148 H1140 0.929 . S
C1148 C1149 1.377 . S
C1148 C1150 1.384 . S
C1149 C1148 1.377 . S
C1149 C1155 1.390 . S
C1150 H1141 0.930 . S
C1150 C1148 1.384 . S
C1150 C1151 1.372 . S
C1151 C1150 1.372 . S
C1151 C1152 1.400 . S
C1151 C1156 1.490 . S
C1152 H1142 0.930 . S
C1152 C1151 1.400 . S
C1152 C1155 1.386 . S
H1153 C1169 0.930 . S
H1154 C1170 0.931 . S
C1155 H1143 0.929 . S
C1155 C1149 1.390 . S
C1155 C1152 1.386 . S
C1156 C1151 1.490 . S
C1156 C1158 1.395 . S
C1156 C1159 1.403 . S
H1157 C1163 0.930 . S
C1158 H1144 0.930 . S
C1158 C1156 1.395 . S
C1158 C1161 1.403 . S
C1159 C1156 1.403 . S
C1159 C1160 1.524 . S
C1159 C1163 1.400 . S
C1160 H1145 0.960 . S
C1160 H1146 0.960 . S
C1160 H1147 0.960 . S
C1160 C1159 1.524 . S
C1161 C1158 1.403 . S
C1161 C1162 1.392 . S
C1161 C1165 1.495 . S
C1162 C1161 1.392 . S
C1162 C1163 1.385 . S
C1162 C1164 1.478 . S
C1163 H1157 0.930 . S
C1163 C1159 1.400 . S
C1163 C1162 1.385 . S
C1164 C1162 1.478 . S
C1164 C1166 1.381 . S
C1164 C1170 1.383 . S
C1165 C1161 1.495 . S
C1165 H1171 0.959 . S
C1165 H1172 0.961 . S
C1165 H1173 0.960 . S
C1166 C1164 1.381 . S
C1166 C1167 1.394 . S
C1166 H1174 0.930 . S
C1167 C1166 1.394 . S
C1167 C1168 1.383 . S
C1167 H1175 0.929 . S
C1168 C1167 1.383 . S
C1168 C1169 1.377 . S
C1169 H1153 0.930 . S
C1169 C1168 1.377 . S
C1169 C1170 1.379 . S
C1170 H1154 0.931 . S
C1170 C1164 1.383 . S
C1170 C1169 1.379 . S
H1171 C1165 0.959 . S
H1172 C1165 0.961 . S
H1173 C1165 0.960 . S
H1174 C1166 0.930 . S
H1175 C1167 0.929 . S
H1176 C1184 0.929 . S
H1177 C1186 0.930 . S
H1178 C1188 0.930 . S
H1179 C1191 0.929 . S
H1180 C1194 0.930 . S
H1181 C1196 0.960 . S
H1182 C1196 0.960 . S
H1183 C1196 0.960 . S
C1184 H1176 0.929 . S
C1184 C1185 1.377 . S
C1184 C1186 1.384 . S
C1185 C1184 1.377 . S
C1185 C1191 1.390 . S
C1186 H1177 0.930 . S
C1186 C1184 1.384 . S
C1186 C1187 1.372 . S
C1187 C1186 1.372 . S
C1187 C1188 1.400 . S
C1187 C1192 1.490 . S
C1188 H1178 0.930 . S
C1188 C1187 1.400 . S
C1188 C1191 1.386 . S
H1189 C1205 0.930 . S
H1190 C1206 0.931 . S
C1191 H1179 0.929 . S
C1191 C1185 1.390 . S
C1191 C1188 1.386 . S
C1192 C1187 1.490 . S
C1192 C1194 1.395 . S
C1192 C1195 1.403 . S
H1193 C1199 0.930 . S
C1194 H1180 0.930 . S
C1194 C1192 1.395 . S
C1194 C1197 1.403 1_455 S
C1195 C1192 1.403 . S
C1195 C1196 1.524 . S
C1195 C1199 1.400 1_455 S
C1196 H1181 0.960 . S
C1196 H1182 0.960 . S
C1196 H1183 0.960 . S
C1196 C1195 1.524 . S
C1197 C1194 1.403 1_655 S
C1197 C1198 1.392 . S
C1197 C1201 1.495 . S
C1198 C1197 1.392 . S
C1198 C1199 1.385 . S
C1198 C1200 1.478 . S
C1199 H1193 0.930 . S
C1199 C1195 1.400 1_655 S
C1199 C1198 1.385 . S
C1200 C1198 1.478 . S
C1200 C1202 1.381 . S
C1200 C1206 1.383 . S
C1201 C1197 1.495 . S
C1201 H1207 0.959 . S
C1201 H1208 0.961 . S
C1201 H1209 0.960 . S
C1202 C1200 1.381 . S
C1202 C1203 1.394 . S
C1202 H1210 0.930 . S
C1203 C1202 1.394 . S
C1203 C1204 1.383 . S
C1203 H1211 0.929 . S
C1204 C1203 1.383 . S
C1204 C1205 1.377 . S
C1205 H1189 0.930 . S
C1205 C1204 1.377 . S
C1205 C1206 1.379 . S
C1206 H1190 0.931 . S
C1206 C1200 1.383 . S
C1206 C1205 1.379 . S
H1207 C1201 0.959 . S
H1208 C1201 0.961 . S
H1209 C1201 0.960 . S
H1210 C1202 0.930 . S
H1211 C1203 0.929 . S
H1212 C1220 0.929 . S
H1213 C1222 0.930 . S
H1214 C1224 0.930 . S
H1215 C1227 0.929 . S
H1216 C1230 0.930 . S
H1217 C1232 0.960 . S
H1218 C1232 0.960 . S
H1219 C1232 0.960 . S
C1220 H1212 0.929 . S
C1220 C1221 1.377 . S
C1220 C1222 1.384 . S
C1221 C1220 1.377 . S
C1221 C1227 1.390 . S
C1222 H1213 0.930 . S
C1222 C1220 1.384 . S
C1222 C1223 1.372 . S
C1223 C1222 1.372 . S
C1223 C1224 1.400 . S
C1223 C1228 1.490 . S
C1224 H1214 0.930 . S
C1224 C1223 1.400 . S
C1224 C1227 1.386 . S
H1225 C1241 0.930 . S
H1226 C1242 0.931 . S
C1227 H1215 0.929 . S
C1227 C1221 1.390 . S
C1227 C1224 1.386 . S
C1228 C1223 1.490 . S
C1228 C1230 1.395 . S
C1228 C1231 1.403 . S
H1229 C1235 0.930 . S
C1230 H1216 0.930 . S
C1230 C1228 1.395 . S
C1230 C1233 1.403 1_545 S
C1231 C1228 1.403 . S
C1231 C1232 1.524 . S
C1231 C1235 1.400 1_545 S
C1232 H1217 0.960 . S
C1232 H1218 0.960 . S
C1232 H1219 0.960 . S
C1232 C1231 1.524 . S
C1233 C1230 1.403 1_565 S
C1233 C1234 1.392 . S
C1233 C1237 1.495 . S
C1234 C1233 1.392 . S
C1234 C1235 1.385 . S
C1234 C1236 1.478 . S
C1235 H1229 0.930 . S
C1235 C1231 1.400 1_565 S
C1235 C1234 1.385 . S
C1236 C1234 1.478 . S
C1236 C1238 1.381 . S
C1236 C1242 1.383 . S
C1237 C1233 1.495 . S
C1237 H1243 0.959 . S
C1237 H1244 0.961 . S
C1237 H1245 0.960 . S
C1238 C1236 1.381 . S
C1238 C1239 1.394 . S
C1238 H1246 0.930 . S
C1239 C1238 1.394 . S
C1239 C1240 1.383 . S
C1239 H1247 0.929 . S
C1240 C1239 1.383 . S
C1240 C1241 1.377 . S
C1241 H1225 0.930 . S
C1241 C1240 1.377 . S
C1241 C1242 1.379 . S
C1242 H1226 0.931 . S
C1242 C1236 1.383 . S
C1242 C1241 1.379 . S
H1243 C1237 0.959 . S
H1244 C1237 0.961 . S
H1245 C1237 0.960 . S
H1246 C1238 0.930 . S
H1247 C1239 0.929 . S
H1248 C1256 0.929 . S
H1249 C1258 0.930 . S
H1250 C1260 0.930 . S
H1251 C1263 0.929 . S
H1252 C1266 0.930 . S
H1253 C1268 0.960 . S
H1254 C1268 0.960 . S
H1255 C1268 0.960 . S
C1256 H1248 0.929 . S
C1256 C1257 1.377 . S
C1256 C1258 1.384 . S
C1257 C1256 1.377 . S
C1257 C1263 1.390 . S
C1258 H1249 0.930 . S
C1258 C1256 1.384 . S
C1258 C1259 1.372 . S
C1259 C1258 1.372 . S
C1259 C1260 1.400 . S
C1259 C1264 1.490 . S
C1260 H1250 0.930 . S
C1260 C1259 1.400 . S
C1260 C1263 1.386 . S
H1261 C1277 0.930 . S
H1262 C1278 0.931 . S
C1263 H1251 0.929 . S
C1263 C1257 1.390 . S
C1263 C1260 1.386 . S
C1264 C1259 1.490 . S
C1264 C1266 1.395 . S
C1264 C1267 1.403 . S
H1265 C1271 0.930 . S
C1266 H1252 0.930 . S
C1266 C1264 1.395 . S
C1266 C1269 1.403 1_655 S
C1267 C1264 1.403 . S
C1267 C1268 1.524 . S
C1267 C1271 1.400 1_655 S
C1268 H1253 0.960 . S
C1268 H1254 0.960 . S
C1268 H1255 0.960 . S
C1268 C1267 1.524 . S
C1269 C1266 1.403 1_455 S
C1269 C1270 1.392 . S
C1269 C1273 1.495 . S
C1270 C1269 1.392 . S
C1270 C1271 1.385 . S
C1270 C1272 1.478 . S
C1271 H1265 0.930 . S
C1271 C1267 1.400 1_455 S
C1271 C1270 1.385 . S
C1272 C1270 1.478 . S
C1272 C1274 1.381 . S
C1272 C1278 1.383 . S
C1273 C1269 1.495 . S
C1273 H1279 0.959 . S
C1273 H1280 0.961 . S
C1273 H1281 0.960 . S
C1274 C1272 1.381 . S
C1274 C1275 1.394 . S
C1274 H1282 0.930 . S
C1275 C1274 1.394 . S
C1275 C1276 1.383 . S
C1275 H1283 0.929 . S
C1276 C1275 1.383 . S
C1276 C1277 1.377 . S
C1277 H1261 0.930 . S
C1277 C1276 1.377 . S
C1277 C1278 1.379 . S
C1278 H1262 0.931 . S
C1278 C1272 1.383 . S
C1278 C1277 1.379 . S
H1279 C1273 0.959 . S
H1280 C1273 0.961 . S
H1281 C1273 0.960 . S
H1282 C1274 0.930 . S
H1283 C1275 0.929 . S
H1284 C1292 0.929 . S
H1285 C1294 0.930 . S
H1286 C1296 0.930 . S
H1287 C1299 0.929 . S
H1288 C1302 0.930 . S
H1289 C1304 0.960 . S
H1290 C1304 0.960 . S
H1291 C1304 0.960 . S
C1292 H1284 0.929 . S
C1292 C1293 1.377 . S
C1292 C1294 1.384 . S
C1293 C1292 1.377 . S
C1293 C1299 1.390 . S
C1294 H1285 0.930 . S
C1294 C1292 1.384 . S
C1294 C1295 1.372 . S
C1295 C1294 1.372 . S
C1295 C1296 1.400 . S
C1295 C1300 1.490 . S
C1296 H1286 0.930 . S
C1296 C1295 1.400 . S
C1296 C1299 1.386 . S
H1297 C1313 0.930 . S
H1298 C1314 0.931 . S
C1299 H1287 0.929 . S
C1299 C1293 1.390 . S
C1299 C1296 1.386 . S
C1300 C1295 1.490 . S
C1300 C1302 1.395 . S
C1300 C1303 1.403 . S
H1301 C1307 0.930 . S
C1302 H1288 0.930 . S
C1302 C1300 1.395 . S
C1302 C1305 1.403 1_545 S
C1303 C1300 1.403 . S
C1303 C1304 1.524 . S
C1303 C1307 1.400 1_545 S
C1304 H1289 0.960 . S
C1304 H1290 0.960 . S
C1304 H1291 0.960 . S
C1304 C1303 1.524 . S
C1305 C1302 1.403 1_565 S
C1305 C1306 1.392 . S
C1305 C1309 1.495 . S
C1306 C1305 1.392 . S
C1306 C1307 1.385 . S
C1306 C1308 1.478 . S
C1307 H1301 0.930 . S
C1307 C1303 1.400 1_565 S
C1307 C1306 1.385 . S
C1308 C1306 1.478 . S
C1308 C1310 1.381 . S
C1308 C1314 1.383 . S
C1309 C1305 1.495 . S
C1309 H1315 0.959 . S
C1309 H1316 0.961 . S
C1309 H1317 0.960 . S
C1310 C1308 1.381 . S
C1310 C1311 1.394 . S
C1310 H1318 0.930 . S
C1311 C1310 1.394 . S
C1311 C1312 1.383 . S
C1311 H1319 0.929 . S
C1312 C1311 1.383 . S
C1312 C1313 1.377 . S
C1313 H1297 0.930 . S
C1313 C1312 1.377 . S
C1313 C1314 1.379 . S
C1314 H1298 0.931 . S
C1314 C1308 1.383 . S
C1314 C1313 1.379 . S
H1315 C1309 0.959 . S
H1316 C1309 0.961 . S
H1317 C1309 0.960 . S
H1318 C1310 0.930 . S
H1319 C1311 0.929 . S
H1320 C1328 0.929 . S
H1321 C1330 0.930 . S
H1322 C1332 0.930 . S
H1323 C1335 0.929 . S
H1324 C1338 0.930 . S
H1325 C1340 0.960 . S
H1326 C1340 0.960 . S
H1327 C1340 0.960 . S
C1328 H1320 0.929 . S
C1328 C1329 1.377 . S
C1328 C1330 1.384 . S
C1329 C1328 1.377 . S
C1329 C1335 1.390 . S
C1330 H1321 0.930 . S
C1330 C1328 1.384 . S
C1330 C1331 1.372 . S
C1331 C1330 1.372 . S
C1331 C1332 1.400 . S
C1331 C1336 1.490 . S
C1332 H1322 0.930 . S
C1332 C1331 1.400 . S
C1332 C1335 1.386 . S
H1333 C1349 0.930 . S
H1334 C1350 0.931 . S
C1335 H1323 0.929 . S
C1335 C1329 1.390 . S
C1335 C1332 1.386 . S
C1336 C1331 1.490 . S
C1336 C1338 1.395 . S
C1336 C1339 1.403 . S
H1337 C1343 0.930 . S
C1338 H1324 0.930 . S
C1338 C1336 1.395 . S
C1338 C1341 1.403 1_565 S
C1339 C1336 1.403 . S
C1339 C1340 1.524 . S
C1339 C1343 1.400 1_565 S
C1340 H1325 0.960 . S
C1340 H1326 0.960 . S
C1340 H1327 0.960 . S
C1340 C1339 1.524 . S
C1341 C1338 1.403 1_545 S
C1341 C1342 1.392 . S
C1341 C1345 1.495 . S
C1342 C1341 1.392 . S
C1342 C1343 1.385 . S
C1342 C1344 1.478 . S
C1343 H1337 0.930 . S
C1343 C1339 1.400 1_545 S
C1343 C1342 1.385 . S
C1344 C1342 1.478 . S
C1344 C1346 1.381 . S
C1344 C1350 1.383 . S
C1345 C1341 1.495 . S
C1345 H1351 0.959 . S
C1345 H1352 0.961 . S
C1345 H1353 0.960 . S
C1346 C1344 1.381 . S
C1346 C1347 1.394 . S
C1346 H1354 0.930 . S
C1347 C1346 1.394 . S
C1347 C1348 1.383 . S
C1347 H1355 0.929 . S
C1348 C1347 1.383 . S
C1348 C1349 1.377 . S
C1349 H1333 0.930 . S
C1349 C1348 1.377 . S
C1349 C1350 1.379 . S
C1350 H1334 0.931 . S
C1350 C1344 1.383 . S
C1350 C1349 1.379 . S
H1351 C1345 0.959 . S
H1352 C1345 0.961 . S
H1353 C1345 0.960 . S
H1354 C1346 0.930 . S
H1355 C1347 0.929 . S
H1356 C1364 0.929 . S
H1357 C1366 0.930 . S
H1358 C1368 0.930 . S
H1359 C1371 0.929 . S
H1360 C1374 0.930 . S
H1361 C1376 0.960 . S
H1362 C1376 0.960 . S
H1363 C1376 0.960 . S
C1364 H1356 0.929 . S
C1364 C1365 1.377 . S
C1364 C1366 1.384 . S
C1365 C1364 1.377 . S
C1365 C1371 1.390 . S
C1366 H1357 0.930 . S
C1366 C1364 1.384 . S
C1366 C1367 1.372 . S
C1367 C1366 1.372 . S
C1367 C1368 1.400 . S
C1367 C1372 1.490 . S
C1368 H1358 0.930 . S
C1368 C1367 1.400 . S
C1368 C1371 1.386 . S
H1369 C1385 0.930 . S
H1370 C1386 0.931 . S
C1371 H1359 0.929 . S
C1371 C1365 1.390 . S
C1371 C1368 1.386 . S
C1372 C1367 1.490 . S
C1372 C1374 1.395 . S
C1372 C1375 1.403 . S
H1373 C1379 0.930 . S
C1374 H1360 0.930 . S
C1374 C1372 1.395 . S
C1374 C1377 1.403 1_655 S
C1375 C1372 1.403 . S
C1375 C1376 1.524 . S
C1375 C1379 1.400 1_655 S
C1376 H1361 0.960 . S
C1376 H1362 0.960 . S
C1376 H1363 0.960 . S
C1376 C1375 1.524 . S
C1377 C1374 1.403 1_455 S
C1377 C1378 1.392 . S
C1377 C1381 1.495 . S
C1378 C1377 1.392 . S
C1378 C1379 1.385 . S
C1378 C1380 1.478 . S
C1379 H1373 0.930 . S
C1379 C1375 1.400 1_455 S
C1379 C1378 1.385 . S
C1380 C1378 1.478 . S
C1380 C1382 1.381 . S
C1380 C1386 1.383 . S
C1381 C1377 1.495 . S
C1381 H1387 0.959 . S
C1381 H1388 0.961 . S
C1381 H1389 0.960 . S
C1382 C1380 1.381 . S
C1382 C1383 1.394 . S
C1382 H1390 0.930 . S
C1383 C1382 1.394 . S
C1383 C1384 1.383 . S
C1383 H1391 0.929 . S
C1384 C1383 1.383 . S
C1384 C1385 1.377 . S
C1385 H1369 0.930 . S
C1385 C1384 1.377 . S
C1385 C1386 1.379 . S
C1386 H1370 0.931 . S
C1386 C1380 1.383 . S
C1386 C1385 1.379 . S
H1387 C1381 0.959 . S
H1388 C1381 0.961 . S
H1389 C1381 0.960 . S
H1390 C1382 0.930 . S
H1391 C1383 0.929 . S
H1392 C1400 0.929 . S
H1393 C1402 0.930 . S
H1394 C1404 0.930 . S
H1395 C1407 0.929 . S
H1396 C1410 0.930 . S
H1397 C1412 0.960 . S
H1398 C1412 0.960 . S
H1399 C1412 0.960 . S
C1400 H1392 0.929 . S
C1400 C1401 1.377 . S
C1400 C1402 1.384 . S
C1401 C1400 1.377 . S
C1401 C1407 1.390 . S
C1402 H1393 0.930 . S
C1402 C1400 1.384 . S
C1402 C1403 1.372 . S
C1403 C1402 1.372 . S
C1403 C1404 1.400 . S
C1403 C1408 1.490 . S
C1404 H1394 0.930 . S
C1404 C1403 1.400 . S
C1404 C1407 1.386 . S
H1405 C1421 0.930 . S
H1406 C1422 0.931 . S
C1407 H1395 0.929 . S
C1407 C1401 1.390 . S
C1407 C1404 1.386 . S
C1408 C1403 1.490 . S
C1408 C1410 1.395 . S
C1408 C1411 1.403 . S
H1409 C1415 0.930 . S
C1410 H1396 0.930 . S
C1410 C1408 1.395 . S
C1410 C1413 1.403 1_565 S
C1411 C1408 1.403 . S
C1411 C1412 1.524 . S
C1411 C1415 1.400 1_565 S
C1412 H1397 0.960 . S
C1412 H1398 0.960 . S
C1412 H1399 0.960 . S
C1412 C1411 1.524 . S
C1413 C1410 1.403 1_545 S
C1413 C1414 1.392 . S
C1413 C1417 1.495 . S
C1414 C1413 1.392 . S
C1414 C1415 1.385 . S
C1414 C1416 1.478 . S
C1415 H1409 0.930 . S
C1415 C1411 1.400 1_545 S
C1415 C1414 1.385 . S
C1416 C1414 1.478 . S
C1416 C1418 1.381 . S
C1416 C1422 1.383 . S
C1417 C1413 1.495 . S
C1417 H1423 0.959 . S
C1417 H1424 0.961 . S
C1417 H1425 0.960 . S
C1418 C1416 1.381 . S
C1418 C1419 1.394 . S
C1418 H1426 0.930 . S
C1419 C1418 1.394 . S
C1419 C1420 1.383 . S
C1419 H1427 0.929 . S
C1420 C1419 1.383 . S
C1420 C1421 1.377 . S
C1421 H1405 0.930 . S
C1421 C1420 1.377 . S
C1421 C1422 1.379 . S
C1422 H1406 0.931 . S
C1422 C1416 1.383 . S
C1422 C1421 1.379 . S
H1423 C1417 0.959 . S
H1424 C1417 0.961 . S
H1425 C1417 0.960 . S
H1426 C1418 0.930 . S
H1427 C1419 0.929 . S
H1428 C1436 0.929 . S
H1429 C1438 0.930 . S
H1430 C1440 0.930 . S
H1431 C1443 0.929 . S
H1432 C1446 0.930 . S
H1433 C1448 0.960 . S
H1434 C1448 0.960 . S
H1435 C1448 0.960 . S
C1436 H1428 0.929 . S
C1436 C1437 1.377 . S
C1436 C1438 1.384 . S
C1437 C1436 1.377 . S
C1437 C1443 1.390 . S
C1438 H1429 0.930 . S
C1438 C1436 1.384 . S
C1438 C1439 1.372 . S
C1439 C1438 1.372 . S
C1439 C1440 1.400 . S
C1439 C1444 1.490 . S
C1440 H1430 0.930 . S
C1440 C1439 1.400 . S
C1440 C1443 1.386 . S
H1441 C1457 0.930 . S
H1442 C1458 0.931 . S
C1443 H1431 0.929 . S
C1443 C1437 1.390 . S
C1443 C1440 1.386 . S
C1444 C1439 1.490 . S
C1444 C1446 1.395 . S
C1444 C1447 1.403 . S
H1445 C1451 0.930 . S
C1446 H1432 0.930 . S
C1446 C1444 1.395 . S
C1446 C1449 1.403 1_655 S
C1447 C1444 1.403 . S
C1447 C1448 1.524 . S
C1447 C1451 1.400 1_655 S
C1448 H1433 0.960 . S
C1448 H1434 0.960 . S
C1448 H1435 0.960 . S
C1448 C1447 1.524 . S
C1449 C1446 1.403 1_455 S
C1449 C1450 1.392 . S
C1449 C1453 1.495 . S
C1450 C1449 1.392 . S
C1450 C1451 1.385 . S
C1450 C1452 1.478 . S
C1451 H1445 0.930 . S
C1451 C1447 1.400 1_455 S
C1451 C1450 1.385 . S
C1452 C1450 1.478 . S
C1452 C1454 1.381 . S
C1452 C1458 1.383 . S
C1453 C1449 1.495 . S
C1453 H1459 0.959 . S
C1453 H1460 0.961 . S
C1453 H1461 0.960 . S
C1454 C1452 1.381 . S
C1454 C1455 1.394 . S
C1454 H1462 0.930 . S
C1455 C1454 1.394 . S
C1455 C1456 1.383 . S
C1455 H1463 0.929 . S
C1456 C1455 1.383 . S
C1456 C1457 1.377 . S
C1457 H1441 0.930 . S
C1457 C1456 1.377 . S
C1457 C1458 1.379 . S
C1458 H1442 0.931 . S
C1458 C1452 1.383 . S
C1458 C1457 1.379 . S
H1459 C1453 0.959 . S
H1460 C1453 0.961 . S
H1461 C1453 0.960 . S
H1462 C1454 0.930 . S
H1463 C1455 0.929 . S
H1464 C1472 0.929 . S
H1465 C1474 0.930 . S
H1466 C1476 0.930 . S
H1467 C1479 0.929 . S
H1468 C1482 0.930 . S
H1469 C1484 0.960 . S
H1470 C1484 0.960 . S
H1471 C1484 0.960 . S
C1472 H1464 0.929 . S
C1472 C1473 1.377 . S
C1472 C1474 1.384 . S
C1473 C1472 1.377 . S
C1473 C1479 1.390 . S
C1474 H1465 0.930 . S
C1474 C1472 1.384 . S
C1474 C1475 1.372 . S
C1475 C1474 1.372 . S
C1475 C1476 1.400 . S
C1475 C1480 1.490 . S
C1476 H1466 0.930 . S
C1476 C1475 1.400 . S
C1476 C1479 1.386 . S
H1477 C1493 0.930 . S
H1478 C1494 0.931 . S
C1479 H1467 0.929 . S
C1479 C1473 1.390 . S
C1479 C1476 1.386 . S
C1480 C1475 1.490 . S
C1480 C1482 1.395 . S
C1480 C1483 1.403 . S
H1481 C1487 0.930 . S
C1482 H1468 0.930 . S
C1482 C1480 1.395 . S
C1482 C1485 1.403 1_556 S
C1483 C1480 1.403 . S
C1483 C1484 1.524 . S
C1483 C1487 1.400 1_556 S
C1484 H1469 0.960 . S
C1484 H1470 0.960 . S
C1484 H1471 0.960 . S
C1484 C1483 1.524 . S
C1485 C1482 1.403 1_554 S
C1485 C1486 1.392 . S
C1485 C1489 1.495 . S
C1486 C1485 1.392 . S
C1486 C1487 1.385 . S
C1486 C1488 1.478 . S
C1487 H1481 0.930 . S
C1487 C1483 1.400 1_554 S
C1487 C1486 1.385 . S
C1488 C1486 1.478 . S
C1488 C1490 1.381 . S
C1488 C1494 1.383 . S
C1489 C1485 1.495 . S
C1489 H1495 0.959 . S
C1489 H1496 0.961 . S
C1489 H1497 0.960 . S
C1490 C1488 1.381 . S
C1490 C1491 1.394 . S
C1490 H1498 0.930 . S
C1491 C1490 1.394 . S
C1491 C1492 1.383 . S
C1491 H1499 0.929 . S
C1492 C1491 1.383 . S
C1492 C1493 1.377 . S
C1493 H1477 0.930 . S
C1493 C1492 1.377 . S
C1493 C1494 1.379 . S
C1494 H1478 0.931 . S
C1494 C1488 1.383 . S
C1494 C1493 1.379 . S
H1495 C1489 0.959 . S
H1496 C1489 0.961 . S
H1497 C1489 0.960 . S
H1498 C1490 0.930 . S
H1499 C1491 0.929 . S
H1500 C1508 0.929 . S
H1501 C1510 0.930 . S
H1502 C1512 0.930 . S
H1503 C1515 0.929 . S
H1504 C1518 0.930 . S
H1505 C1520 0.960 . S
H1506 C1520 0.960 . S
H1507 C1520 0.960 . S
C1508 H1500 0.929 . S
C1508 C1509 1.377 . S
C1508 C1510 1.384 . S
C1509 C1508 1.377 . S
C1509 C1515 1.390 . S
C1510 H1501 0.930 . S
C1510 C1508 1.384 . S
C1510 C1511 1.372 . S
C1511 C1510 1.372 . S
C1511 C1512 1.400 . S
C1511 C1516 1.490 . S
C1512 H1502 0.930 . S
C1512 C1511 1.400 . S
C1512 C1515 1.386 . S
H1513 C1529 0.930 . S
H1514 C1530 0.931 . S
C1515 H1503 0.929 . S
C1515 C1509 1.390 . S
C1515 C1512 1.386 . S
C1516 C1511 1.490 . S
C1516 C1518 1.395 . S
C1516 C1519 1.403 . S
H1517 C1523 0.930 . S
C1518 H1504 0.930 . S
C1518 C1516 1.395 . S
C1518 C1521 1.403 1_556 S
C1519 C1516 1.403 . S
C1519 C1520 1.524 . S
C1519 C1523 1.400 1_556 S
C1520 H1505 0.960 . S
C1520 H1506 0.960 . S
C1520 H1507 0.960 . S
C1520 C1519 1.524 . S
C1521 C1518 1.403 1_554 S
C1521 C1522 1.392 . S
C1521 C1525 1.495 . S
C1522 C1521 1.392 . S
C1522 C1523 1.385 . S
C1522 C1524 1.478 . S
C1523 H1517 0.930 . S
C1523 C1519 1.400 1_554 S
C1523 C1522 1.385 . S
C1524 C1522 1.478 . S
C1524 C1526 1.381 . S
C1524 C1530 1.383 . S
C1525 C1521 1.495 . S
C1525 H1531 0.959 . S
C1525 H1532 0.961 . S
C1525 H1533 0.960 . S
C1526 C1524 1.381 . S
C1526 C1527 1.394 . S
C1526 H1534 0.930 . S
C1527 C1526 1.394 . S
C1527 C1528 1.383 . S
C1527 H1535 0.929 . S
C1528 C1527 1.383 . S
C1528 C1529 1.377 . S
C1529 H1513 0.930 . S
C1529 C1528 1.377 . S
C1529 C1530 1.379 . S
C1530 H1514 0.931 . S
C1530 C1524 1.383 . S
C1530 C1529 1.379 . S
H1531 C1525 0.959 . S
H1532 C1525 0.961 . S
H1533 C1525 0.960 . S
H1534 C1526 0.930 . S
H1535 C1527 0.929 . S
H1536 C1544 0.929 . S
H1537 C1546 0.930 . S
H1538 C1548 0.930 . S
H1539 C1551 0.929 . S
H1540 C1554 0.930 . S
H1541 C1556 0.960 . S
H1542 C1556 0.960 . S
H1543 C1556 0.960 . S
C1544 H1536 0.929 . S
C1544 C1545 1.377 . S
C1544 C1546 1.384 . S
C1545 C1544 1.377 . S
C1545 C1551 1.390 . S
C1546 H1537 0.930 . S
C1546 C1544 1.384 . S
C1546 C1547 1.372 . S
C1547 C1546 1.372 . S
C1547 C1548 1.400 . S
C1547 C1552 1.490 . S
C1548 H1538 0.930 . S
C1548 C1547 1.400 . S
C1548 C1551 1.386 . S
H1549 C1565 0.930 . S
H1550 C1566 0.931 . S
C1551 H1539 0.929 . S
C1551 C1545 1.390 . S
C1551 C1548 1.386 . S
C1552 C1547 1.490 . S
C1552 C1554 1.395 . S
C1552 C1555 1.403 . S
H1553 C1559 0.930 . S
C1554 H1540 0.930 . S
C1554 C1552 1.395 . S
C1554 C1557 1.403 1_556 S
C1555 C1552 1.403 . S
C1555 C1556 1.524 . S
C1555 C1559 1.400 1_556 S
C1556 H1541 0.960 . S
C1556 H1542 0.960 . S
C1556 H1543 0.960 . S
C1556 C1555 1.524 . S
C1557 C1554 1.403 1_554 S
C1557 C1558 1.392 . S
C1557 C1561 1.495 . S
C1558 C1557 1.392 . S
C1558 C1559 1.385 . S
C1558 C1560 1.478 . S
C1559 H1553 0.930 . S
C1559 C1555 1.400 1_554 S
C1559 C1558 1.385 . S
C1560 C1558 1.478 . S
C1560 C1562 1.381 . S
C1560 C1566 1.383 . S
C1561 C1557 1.495 . S
C1561 H1567 0.959 . S
C1561 H1568 0.961 . S
C1561 H1569 0.960 . S
C1562 C1560 1.381 . S
C1562 C1563 1.394 . S
C1562 H1570 0.930 . S
C1563 C1562 1.394 . S
C1563 C1564 1.383 . S
C1563 H1571 0.929 . S
C1564 C1563 1.383 . S
C1564 C1565 1.377 . S
C1565 H1549 0.930 . S
C1565 C1564 1.377 . S
C1565 C1566 1.379 . S
C1566 H1550 0.931 . S
C1566 C1560 1.383 . S
C1566 C1565 1.379 . S
H1567 C1561 0.959 . S
H1568 C1561 0.961 . S
H1569 C1561 0.960 . S
H1570 C1562 0.930 . S
H1571 C1563 0.929 . S
H1572 C1580 0.929 . S
H1573 C1582 0.930 . S
H1574 C1584 0.930 . S
H1575 C1587 0.929 . S
H1576 C1590 0.930 . S
H1577 C1592 0.960 . S
H1578 C1592 0.960 . S
H1579 C1592 0.960 . S
C1580 H1572 0.929 . S
C1580 C1581 1.377 . S
C1580 C1582 1.384 . S
C1581 C1580 1.377 . S
C1581 C1587 1.390 . S
C1582 H1573 0.930 . S
C1582 C1580 1.384 . S
C1582 C1583 1.372 . S
C1583 C1582 1.372 . S
C1583 C1584 1.400 . S
C1583 C1588 1.490 . S
C1584 H1574 0.930 . S
C1584 C1583 1.400 . S
C1584 C1587 1.386 . S
H1585 C1601 0.930 . S
H1586 C1602 0.931 . S
C1587 H1575 0.929 . S
C1587 C1581 1.390 . S
C1587 C1584 1.386 . S
C1588 C1583 1.490 . S
C1588 C1590 1.395 . S
C1588 C1591 1.403 . S
H1589 C1595 0.930 . S
C1590 H1576 0.930 . S
C1590 C1588 1.395 . S
C1590 C1593 1.403 1_556 S
C1591 C1588 1.403 . S
C1591 C1592 1.524 . S
C1591 C1595 1.400 1_556 S
C1592 H1577 0.960 . S
C1592 H1578 0.960 . S
C1592 H1579 0.960 . S
C1592 C1591 1.524 . S
C1593 C1590 1.403 1_554 S
C1593 C1594 1.392 . S
C1593 C1597 1.495 . S
C1594 C1593 1.392 . S
C1594 C1595 1.385 . S
C1594 C1596 1.478 . S
C1595 H1589 0.930 . S
C1595 C1591 1.400 1_554 S
C1595 C1594 1.385 . S
C1596 C1594 1.478 . S
C1596 C1598 1.381 . S
C1596 C1602 1.383 . S
C1597 C1593 1.495 . S
C1597 H1603 0.959 . S
C1597 H1604 0.961 . S
C1597 H1605 0.960 . S
C1598 C1596 1.381 . S
C1598 C1599 1.394 . S
C1598 H1606 0.930 . S
C1599 C1598 1.394 . S
C1599 C1600 1.383 . S
C1599 H1607 0.929 . S
C1600 C1599 1.383 . S
C1600 C1601 1.377 . S
C1601 H1585 0.930 . S
C1601 C1600 1.377 . S
C1601 C1602 1.379 . S
C1602 H1586 0.931 . S
C1602 C1596 1.383 . S
C1602 C1601 1.379 . S
H1603 C1597 0.959 . S
H1604 C1597 0.961 . S
H1605 C1597 0.960 . S
H1606 C1598 0.930 . S
H1607 C1599 0.929 . S
H1608 C1616 0.929 . S
H1609 C1618 0.930 . S
H1610 C1620 0.930 . S
H1611 C1623 0.929 . S
H1612 C1626 0.930 . S
H1613 C1628 0.960 . S
H1614 C1628 0.960 . S
H1615 C1628 0.960 . S
C1616 H1608 0.929 . S
C1616 C1617 1.377 . S
C1616 C1618 1.384 . S
C1617 C1616 1.377 . S
C1617 C1623 1.390 . S
C1618 H1609 0.930 . S
C1618 C1616 1.384 . S
C1618 C1619 1.372 . S
C1619 C1618 1.372 . S
C1619 C1620 1.400 . S
C1619 C1624 1.490 . S
C1620 H1610 0.930 . S
C1620 C1619 1.400 . S
C1620 C1623 1.386 . S
H1621 C1637 0.930 . S
H1622 C1638 0.931 . S
C1623 H1611 0.929 . S
C1623 C1617 1.390 . S
C1623 C1620 1.386 . S
C1624 C1619 1.490 . S
C1624 C1626 1.395 . S
C1624 C1627 1.403 . S
H1625 C1631 0.930 . S
C1626 H1612 0.930 . S
C1626 C1624 1.395 . S
C1626 C1629 1.403 . S
C1627 C1624 1.403 . S
C1627 C1628 1.524 . S
C1627 C1631 1.400 . S
C1628 H1613 0.960 . S
C1628 H1614 0.960 . S
C1628 H1615 0.960 . S
C1628 C1627 1.524 . S
C1629 C1626 1.403 . S
C1629 C1630 1.392 . S
C1629 C1633 1.495 . S
C1630 C1629 1.392 . S
C1630 C1631 1.385 . S
C1630 C1632 1.478 . S
C1631 H1625 0.930 . S
C1631 C1627 1.400 . S
C1631 C1630 1.385 . S
C1632 C1630 1.478 . S
C1632 C1634 1.381 . S
C1632 C1638 1.383 . S
C1633 C1629 1.495 . S
C1633 H1639 0.959 . S
C1633 H1640 0.961 . S
C1633 H1641 0.960 . S
C1634 C1632 1.381 . S
C1634 C1635 1.394 . S
C1634 H1642 0.930 . S
C1635 C1634 1.394 . S
C1635 C1636 1.383 . S
C1635 H1643 0.929 . S
C1636 C1635 1.383 . S
C1636 C1637 1.377 . S
C1637 H1621 0.930 . S
C1637 C1636 1.377 . S
C1637 C1638 1.379 . S
C1638 H1622 0.931 . S
C1638 C1632 1.383 . S
C1638 C1637 1.379 . S
H1639 C1633 0.959 . S
H1640 C1633 0.961 . S
H1641 C1633 0.960 . S
H1642 C1634 0.930 . S
H1643 C1635 0.929 . S
H1644 C1652 0.929 . S
H1645 C1654 0.930 . S
H1646 C1656 0.930 . S
H1647 C1659 0.929 . S
H1648 C1662 0.930 . S
H1649 C1664 0.960 . S
H1650 C1664 0.960 . S
H1651 C1664 0.960 . S
C1652 H1644 0.929 . S
C1652 C1653 1.377 . S
C1652 C1654 1.384 . S
C1653 C1652 1.377 . S
C1653 C1659 1.390 . S
C1654 H1645 0.930 . S
C1654 C1652 1.384 . S
C1654 C1655 1.372 . S
C1655 C1654 1.372 . S
C1655 C1656 1.400 . S
C1655 C1660 1.490 . S
C1656 H1646 0.930 . S
C1656 C1655 1.400 . S
C1656 C1659 1.386 . S
H1657 C1673 0.930 . S
H1658 C1674 0.931 . S
C1659 H1647 0.929 . S
C1659 C1653 1.390 . S
C1659 C1656 1.386 . S
C1660 C1655 1.490 . S
C1660 C1662 1.395 . S
C1660 C1663 1.403 . S
H1661 C1667 0.930 . S
C1662 H1648 0.930 . S
C1662 C1660 1.395 . S
C1662 C1665 1.403 . S
C1663 C1660 1.403 . S
C1663 C1664 1.524 . S
C1663 C1667 1.400 . S
C1664 H1649 0.960 . S
C1664 H1650 0.960 . S
C1664 H1651 0.960 . S
C1664 C1663 1.524 . S
C1665 C1662 1.403 . S
C1665 C1666 1.392 . S
C1665 C1669 1.495 . S
C1666 C1665 1.392 . S
C1666 C1667 1.385 . S
C1666 C1668 1.478 . S
C1667 H1661 0.930 . S
C1667 C1663 1.400 . S
C1667 C1666 1.385 . S
C1668 C1666 1.478 . S
C1668 C1670 1.381 . S
C1668 C1674 1.383 . S
C1669 C1665 1.495 . S
C1669 H1675 0.959 . S
C1669 H1676 0.961 . S
C1669 H1677 0.960 . S
C1670 C1668 1.381 . S
C1670 C1671 1.394 . S
C1670 H1678 0.930 . S
C1671 C1670 1.394 . S
C1671 C1672 1.383 . S
C1671 H1679 0.929 . S
C1672 C1671 1.383 . S
C1672 C1673 1.377 . S
C1673 H1657 0.930 . S
C1673 C1672 1.377 . S
C1673 C1674 1.379 . S
C1674 H1658 0.931 . S
C1674 C1668 1.383 . S
C1674 C1673 1.379 . S
H1675 C1669 0.959 . S
H1676 C1669 0.961 . S
H1677 C1669 0.960 . S
H1678 C1670 0.930 . S
H1679 C1671 0.929 . S
H1680 C1688 0.929 . S
H1681 C1690 0.930 . S
H1682 C1692 0.930 . S
H1683 C1695 0.929 . S
H1684 C1698 0.930 . S
H1685 C1700 0.960 . S
H1686 C1700 0.960 . S
H1687 C1700 0.960 . S
C1688 H1680 0.929 . S
C1688 C1689 1.377 . S
C1688 C1690 1.384 . S
C1689 C1688 1.377 . S
C1689 C1695 1.390 . S
C1690 H1681 0.930 . S
C1690 C1688 1.384 . S
C1690 C1691 1.372 . S
C1691 C1690 1.372 . S
C1691 C1692 1.400 . S
C1691 C1696 1.490 . S
C1692 H1682 0.930 . S
C1692 C1691 1.400 . S
C1692 C1695 1.386 . S
H1693 C1709 0.930 . S
H1694 C1710 0.931 . S
C1695 H1683 0.929 . S
C1695 C1689 1.390 . S
C1695 C1692 1.386 . S
C1696 C1691 1.490 . S
C1696 C1698 1.395 . S
C1696 C1699 1.403 . S
H1697 C1703 0.930 . S
C1698 H1684 0.930 . S
C1698 C1696 1.395 . S
C1698 C1701 1.403 . S
C1699 C1696 1.403 . S
C1699 C1700 1.524 . S
C1699 C1703 1.400 . S
C1700 H1685 0.960 . S
C1700 H1686 0.960 . S
C1700 H1687 0.960 . S
C1700 C1699 1.524 . S
C1701 C1698 1.403 . S
C1701 C1702 1.392 . S
C1701 C1705 1.495 . S
C1702 C1701 1.392 . S
C1702 C1703 1.385 . S
C1702 C1704 1.478 . S
C1703 H1697 0.930 . S
C1703 C1699 1.400 . S
C1703 C1702 1.385 . S
C1704 C1702 1.478 . S
C1704 C1706 1.381 . S
C1704 C1710 1.383 . S
C1705 C1701 1.495 . S
C1705 H1711 0.959 . S
C1705 H1712 0.961 . S
C1705 H1713 0.960 . S
C1706 C1704 1.381 . S
C1706 C1707 1.394 . S
C1706 H1714 0.930 . S
C1707 C1706 1.394 . S
C1707 C1708 1.383 . S
C1707 H1715 0.929 . S
C1708 C1707 1.383 . S
C1708 C1709 1.377 . S
C1709 H1693 0.930 . S
C1709 C1708 1.377 . S
C1709 C1710 1.379 . S
C1710 H1694 0.931 . S
C1710 C1704 1.383 . S
C1710 C1709 1.379 . S
H1711 C1705 0.959 . S
H1712 C1705 0.961 . S
H1713 C1705 0.960 . S
H1714 C1706 0.930 . S
H1715 C1707 0.929 . S
H1716 C1724 0.929 . S
H1717 C1726 0.930 . S
H1718 C1728 0.930 . S
H1719 C1731 0.929 . S
H1720 C1734 0.930 . S
H1721 C1736 0.960 . S
H1722 C1736 0.960 . S
H1723 C1736 0.960 . S
C1724 H1716 0.929 . S
C1724 C1725 1.377 . S
C1724 C1726 1.384 . S
C1725 C1724 1.377 . S
C1725 C1731 1.390 . S
C1726 H1717 0.930 . S
C1726 C1724 1.384 . S
C1726 C1727 1.372 . S
C1727 C1726 1.372 . S
C1727 C1728 1.400 . S
C1727 C1732 1.490 . S
C1728 H1718 0.930 . S
C1728 C1727 1.400 . S
C1728 C1731 1.386 . S
H1729 C1745 0.930 . S
H1730 C1746 0.931 . S
C1731 H1719 0.929 . S
C1731 C1725 1.390 . S
C1731 C1728 1.386 . S
C1732 C1727 1.490 . S
C1732 C1734 1.395 . S
C1732 C1735 1.403 . S
H1733 C1739 0.930 . S
C1734 H1720 0.930 . S
C1734 C1732 1.395 . S
C1734 C1737 1.403 . S
C1735 C1732 1.403 . S
C1735 C1736 1.524 . S
C1735 C1739 1.400 . S
C1736 H1721 0.960 . S
C1736 H1722 0.960 . S
C1736 H1723 0.960 . S
C1736 C1735 1.524 . S
C1737 C1734 1.403 . S
C1737 C1738 1.392 . S
C1737 C1741 1.495 . S
C1738 C1737 1.392 . S
C1738 C1739 1.385 . S
C1738 C1740 1.478 . S
C1739 H1733 0.930 . S
C1739 C1735 1.400 . S
C1739 C1738 1.385 . S
C1740 C1738 1.478 . S
C1740 C1742 1.381 . S
C1740 C1746 1.383 . S
C1741 C1737 1.495 . S
C1741 H1747 0.959 . S
C1741 H1748 0.961 . S
C1741 H1749 0.960 . S
C1742 C1740 1.381 . S
C1742 C1743 1.394 . S
C1742 H1750 0.930 . S
C1743 C1742 1.394 . S
C1743 C1744 1.383 . S
C1743 H1751 0.929 . S
C1744 C1743 1.383 . S
C1744 C1745 1.377 . S
C1745 H1729 0.930 . S
C1745 C1744 1.377 . S
C1745 C1746 1.379 . S
C1746 H1730 0.931 . S
C1746 C1740 1.383 . S
C1746 C1745 1.379 . S
H1747 C1741 0.959 . S
H1748 C1741 0.961 . S
H1749 C1741 0.960 . S
H1750 C1742 0.930 . S
H1751 C1743 0.929 . S
H1752 C1760 0.929 . S
H1753 C1762 0.930 . S
H1754 C1764 0.930 . S
H1755 C1767 0.929 . S
H1756 C1770 0.930 . S
H1757 C1772 0.960 . S
H1758 C1772 0.960 . S
H1759 C1772 0.960 . S
C1760 H1752 0.929 . S
C1760 C1761 1.377 . S
C1760 C1762 1.384 . S
C1761 C1760 1.377 . S
C1761 C1767 1.390 . S
C1762 H1753 0.930 . S
C1762 C1760 1.384 . S
C1762 C1763 1.372 . S
C1763 C1762 1.372 . S
C1763 C1764 1.400 . S
C1763 C1768 1.490 . S
C1764 H1754 0.930 . S
C1764 C1763 1.400 . S
C1764 C1767 1.386 . S
H1765 C1781 0.930 . S
H1766 C1782 0.931 . S
C1767 H1755 0.929 . S
C1767 C1761 1.390 . S
C1767 C1764 1.386 . S
C1768 C1763 1.490 . S
C1768 C1770 1.395 . S
C1768 C1771 1.403 . S
H1769 C1775 0.930 . S
C1770 H1756 0.930 . S
C1770 C1768 1.395 . S
C1770 C1773 1.403 . S
C1771 C1768 1.403 . S
C1771 C1772 1.524 . S
C1771 C1775 1.400 . S
C1772 H1757 0.960 . S
C1772 H1758 0.960 . S
C1772 H1759 0.960 . S
C1772 C1771 1.524 . S
C1773 C1770 1.403 . S
C1773 C1774 1.392 . S
C1773 C1777 1.495 . S
C1774 C1773 1.392 . S
C1774 C1775 1.385 . S
C1774 C1776 1.478 . S
C1775 H1769 0.930 . S
C1775 C1771 1.400 . S
C1775 C1774 1.385 . S
C1776 C1774 1.478 . S
C1776 C1778 1.381 . S
C1776 C1782 1.383 . S
C1777 C1773 1.495 . S
C1777 H1783 0.959 . S
C1777 H1784 0.961 . S
C1777 H1785 0.960 . S
C1778 C1776 1.381 . S
C1778 C1779 1.394 . S
C1778 H1786 0.930 . S
C1779 C1778 1.394 . S
C1779 C1780 1.383 . S
C1779 H1787 0.929 . S
C1780 C1779 1.383 . S
C1780 C1781 1.377 . S
C1781 H1765 0.930 . S
C1781 C1780 1.377 . S
C1781 C1782 1.379 . S
C1782 H1766 0.931 . S
C1782 C1776 1.383 . S
C1782 C1781 1.379 . S
H1783 C1777 0.959 . S
H1784 C1777 0.961 . S
H1785 C1777 0.960 . S
H1786 C1778 0.930 . S
H1787 C1779 0.929 . S
H1788 C1796 0.929 . S
H1789 C1798 0.930 . S
H1790 C1800 0.930 . S
H1791 C1803 0.929 . S
H1792 C1806 0.930 . S
H1793 C1808 0.960 . S
H1794 C1808 0.960 . S
H1795 C1808 0.960 . S
C1796 H1788 0.929 . S
C1796 C1797 1.377 . S
C1796 C1798 1.384 . S
C1797 C1796 1.377 . S
C1797 C1803 1.390 . S
C1798 H1789 0.930 . S
C1798 C1796 1.384 . S
C1798 C1799 1.372 . S
C1799 C1798 1.372 . S
C1799 C1800 1.400 . S
C1799 C1804 1.490 . S
C1800 H1790 0.930 . S
C1800 C1799 1.400 . S
C1800 C1803 1.386 . S
H1801 C1817 0.930 . S
H1802 C1818 0.931 . S
C1803 H1791 0.929 . S
C1803 C1797 1.390 . S
C1803 C1800 1.386 . S
C1804 C1799 1.490 . S
C1804 C1806 1.395 . S
C1804 C1807 1.403 . S
H1805 C1811 0.930 . S
C1806 H1792 0.930 . S
C1806 C1804 1.395 . S
C1806 C1809 1.403 . S
C1807 C1804 1.403 . S
C1807 C1808 1.524 . S
C1807 C1811 1.400 . S
C1808 H1793 0.960 . S
C1808 H1794 0.960 . S
C1808 H1795 0.960 . S
C1808 C1807 1.524 . S
C1809 C1806 1.403 . S
C1809 C1810 1.392 . S
C1809 C1813 1.495 . S
C1810 C1809 1.392 . S
C1810 C1811 1.385 . S
C1810 C1812 1.478 . S
C1811 H1805 0.930 . S
C1811 C1807 1.400 . S
C1811 C1810 1.385 . S
C1812 C1810 1.478 . S
C1812 C1814 1.381 . S
C1812 C1818 1.383 . S
C1813 C1809 1.495 . S
C1813 H1819 0.959 . S
C1813 H1820 0.961 . S
C1813 H1821 0.960 . S
C1814 C1812 1.381 . S
C1814 C1815 1.394 . S
C1814 H1822 0.930 . S
C1815 C1814 1.394 . S
C1815 C1816 1.383 . S
C1815 H1823 0.929 . S
C1816 C1815 1.383 . S
C1816 C1817 1.377 . S
C1817 H1801 0.930 . S
C1817 C1816 1.377 . S
C1817 C1818 1.379 . S
C1818 H1802 0.931 . S
C1818 C1812 1.383 . S
C1818 C1817 1.379 . S
H1819 C1813 0.959 . S
H1820 C1813 0.961 . S
H1821 C1813 0.960 . S
H1822 C1814 0.930 . S
H1823 C1815 0.929 . S
H1824 C1832 0.929 . S
H1825 C1834 0.930 . S
H1826 C1836 0.930 . S
H1827 C1839 0.929 . S
H1828 C1842 0.930 . S
H1829 C1844 0.960 . S
H1830 C1844 0.960 . S
H1831 C1844 0.960 . S
C1832 H1824 0.929 . S
C1832 C1833 1.377 . S
C1832 C1834 1.384 . S
C1833 C1832 1.377 . S
C1833 C1839 1.390 . S
C1834 H1825 0.930 . S
C1834 C1832 1.384 . S
C1834 C1835 1.372 . S
C1835 C1834 1.372 . S
C1835 C1836 1.400 . S
C1835 C1840 1.490 . S
C1836 H1826 0.930 . S
C1836 C1835 1.400 . S
C1836 C1839 1.386 . S
H1837 C1853 0.930 . S
H1838 C1854 0.931 . S
C1839 H1827 0.929 . S
C1839 C1833 1.390 . S
C1839 C1836 1.386 . S
C1840 C1835 1.490 . S
C1840 C1842 1.395 . S
C1840 C1843 1.403 . S
H1841 C1847 0.930 . S
C1842 H1828 0.930 . S
C1842 C1840 1.395 . S
C1842 C1845 1.403 . S
C1843 C1840 1.403 . S
C1843 C1844 1.524 . S
C1843 C1847 1.400 . S
C1844 H1829 0.960 . S
C1844 H1830 0.960 . S
C1844 H1831 0.960 . S
C1844 C1843 1.524 . S
C1845 C1842 1.403 . S
C1845 C1846 1.392 . S
C1845 C1849 1.495 . S
C1846 C1845 1.392 . S
C1846 C1847 1.385 . S
C1846 C1848 1.478 . S
C1847 H1841 0.930 . S
C1847 C1843 1.400 . S
C1847 C1846 1.385 . S
C1848 C1846 1.478 . S
C1848 C1850 1.381 . S
C1848 C1854 1.383 . S
C1849 C1845 1.495 . S
C1849 H1855 0.959 . S
C1849 H1856 0.961 . S
C1849 H1857 0.960 . S
C1850 C1848 1.381 . S
C1850 C1851 1.394 . S
C1850 H1858 0.930 . S
C1851 C1850 1.394 . S
C1851 C1852 1.383 . S
C1851 H1859 0.929 . S
C1852 C1851 1.383 . S
C1852 C1853 1.377 . S
C1853 H1837 0.930 . S
C1853 C1852 1.377 . S
C1853 C1854 1.379 . S
C1854 H1838 0.931 . S
C1854 C1848 1.383 . S
C1854 C1853 1.379 . S
H1855 C1849 0.959 . S
H1856 C1849 0.961 . S
H1857 C1849 0.960 . S
H1858 C1850 0.930 . S
H1859 C1851 0.929 . S
H1860 C1868 0.929 . S
H1861 C1870 0.930 . S
H1862 C1872 0.930 . S
H1863 C1875 0.929 . S
H1864 C1878 0.930 . S
H1865 C1880 0.960 . S
H1866 C1880 0.960 . S
H1867 C1880 0.960 . S
C1868 H1860 0.929 . S
C1868 C1869 1.377 . S
C1868 C1870 1.384 . S
C1869 C1868 1.377 . S
C1869 C1875 1.390 . S
C1870 H1861 0.930 . S
C1870 C1868 1.384 . S
C1870 C1871 1.372 . S
C1871 C1870 1.372 . S
C1871 C1872 1.400 . S
C1871 C1876 1.490 . S
C1872 H1862 0.930 . S
C1872 C1871 1.400 . S
C1872 C1875 1.386 . S
H1873 C1889 0.930 . S
H1874 C1890 0.931 . S
C1875 H1863 0.929 . S
C1875 C1869 1.390 . S
C1875 C1872 1.386 . S
C1876 C1871 1.490 . S
C1876 C1878 1.395 . S
C1876 C1879 1.403 . S
H1877 C1883 0.930 . S
C1878 H1864 0.930 . S
C1878 C1876 1.395 . S
C1878 C1881 1.403 . S
C1879 C1876 1.403 . S
C1879 C1880 1.524 . S
C1879 C1883 1.400 . S
C1880 H1865 0.960 . S
C1880 H1866 0.960 . S
C1880 H1867 0.960 . S
C1880 C1879 1.524 . S
C1881 C1878 1.403 . S
C1881 C1882 1.392 . S
C1881 C1885 1.495 . S
C1882 C1881 1.392 . S
C1882 C1883 1.385 . S
C1882 C1884 1.478 . S
C1883 H1877 0.930 . S
C1883 C1879 1.400 . S
C1883 C1882 1.385 . S
C1884 C1882 1.478 . S
C1884 C1886 1.381 . S
C1884 C1890 1.383 . S
C1885 C1881 1.495 . S
C1885 H1891 0.959 . S
C1885 H1892 0.961 . S
C1885 H1893 0.960 . S
C1886 C1884 1.381 . S
C1886 C1887 1.394 . S
C1886 H1894 0.930 . S
C1887 C1886 1.394 . S
C1887 C1888 1.383 . S
C1887 H1895 0.929 . S
C1888 C1887 1.383 . S
C1888 C1889 1.377 . S
C1889 H1873 0.930 . S
C1889 C1888 1.377 . S
C1889 C1890 1.379 . S
C1890 H1874 0.931 . S
C1890 C1884 1.383 . S
C1890 C1889 1.379 . S
H1891 C1885 0.959 . S
H1892 C1885 0.961 . S
H1893 C1885 0.960 . S
H1894 C1886 0.930 . S
H1895 C1887 0.929 . S
H1896 C1904 0.929 . S
H1897 C1906 0.930 . S
H1898 C1908 0.930 . S
H1899 C1911 0.929 . S
H1900 C1914 0.930 . S
H1901 C1916 0.960 . S
H1902 C1916 0.960 . S
H1903 C1916 0.960 . S
C1904 H1896 0.929 . S
C1904 C1905 1.377 . S
C1904 C1906 1.384 . S
C1905 C1904 1.377 . S
C1905 C1911 1.390 . S
C1906 H1897 0.930 . S
C1906 C1904 1.384 . S
C1906 C1907 1.372 . S
C1907 C1906 1.372 . S
C1907 C1908 1.400 . S
C1907 C1912 1.490 . S
C1908 H1898 0.930 . S
C1908 C1907 1.400 . S
C1908 C1911 1.386 . S
H1909 C1925 0.930 . S
H1910 C1926 0.931 . S
C1911 H1899 0.929 . S
C1911 C1905 1.390 . S
C1911 C1908 1.386 . S
C1912 C1907 1.490 . S
C1912 C1914 1.395 . S
C1912 C1915 1.403 . S
H1913 C1919 0.930 . S
C1914 H1900 0.930 . S
C1914 C1912 1.395 . S
C1914 C1917 1.403 . S
C1915 C1912 1.403 . S
C1915 C1916 1.524 . S
C1915 C1919 1.400 . S
C1916 H1901 0.960 . S
C1916 H1902 0.960 . S
C1916 H1903 0.960 . S
C1916 C1915 1.524 . S
C1917 C1914 1.403 . S
C1917 C1918 1.392 . S
C1917 C1921 1.495 . S
C1918 C1917 1.392 . S
C1918 C1919 1.385 . S
C1918 C1920 1.478 . S
C1919 H1913 0.930 . S
C1919 C1915 1.400 . S
C1919 C1918 1.385 . S
C1920 C1918 1.478 . S
C1920 C1922 1.381 . S
C1920 C1926 1.383 . S
C1921 C1917 1.495 . S
C1921 H1927 0.959 . S
C1921 H1928 0.961 . S
C1921 H1929 0.960 . S
C1922 C1920 1.381 . S
C1922 C1923 1.394 . S
C1922 H1930 0.930 . S
C1923 C1922 1.394 . S
C1923 C1924 1.383 . S
C1923 H1931 0.929 . S
C1924 C1923 1.383 . S
C1924 C1925 1.377 . S
C1925 H1909 0.930 . S
C1925 C1924 1.377 . S
C1925 C1926 1.379 . S
C1926 H1910 0.931 . S
C1926 C1920 1.383 . S
C1926 C1925 1.379 . S
H1927 C1921 0.959 . S
H1928 C1921 0.961 . S
H1929 C1921 0.960 . S
H1930 C1922 0.930 . S
H1931 C1923 0.929 . S
H1932 C1940 0.929 . S
H1933 C1942 0.930 . S
H1934 C1944 0.930 . S
H1935 C1947 0.929 . S
H1936 C1950 0.930 . S
H1937 C1952 0.960 . S
H1938 C1952 0.960 . S
H1939 C1952 0.960 . S
C1940 H1932 0.929 . S
C1940 C1941 1.377 . S
C1940 C1942 1.384 . S
C1941 C1940 1.377 . S
C1941 C1947 1.390 . S
C1942 H1933 0.930 . S
C1942 C1940 1.384 . S
C1942 C1943 1.372 . S
C1943 C1942 1.372 . S
C1943 C1944 1.400 . S
C1943 C1948 1.490 . S
C1944 H1934 0.930 . S
C1944 C1943 1.400 . S
C1944 C1947 1.386 . S
H1945 C1961 0.930 . S
H1946 C1962 0.931 . S
C1947 H1935 0.929 . S
C1947 C1941 1.390 . S
C1947 C1944 1.386 . S
C1948 C1943 1.490 . S
C1948 C1950 1.395 . S
C1948 C1951 1.403 . S
H1949 C1955 0.930 . S
C1950 H1936 0.930 . S
C1950 C1948 1.395 . S
C1950 C1953 1.403 . S
C1951 C1948 1.403 . S
C1951 C1952 1.524 . S
C1951 C1955 1.400 . S
C1952 H1937 0.960 . S
C1952 H1938 0.960 . S
C1952 H1939 0.960 . S
C1952 C1951 1.524 . S
C1953 C1950 1.403 . S
C1953 C1954 1.392 . S
C1953 C1957 1.495 . S
C1954 C1953 1.392 . S
C1954 C1955 1.385 . S
C1954 C1956 1.478 . S
C1955 H1949 0.930 . S
C1955 C1951 1.400 . S
C1955 C1954 1.385 . S
C1956 C1954 1.478 . S
C1956 C1958 1.381 . S
C1956 C1962 1.383 . S
C1957 C1953 1.495 . S
C1957 H1963 0.959 . S
C1957 H1964 0.961 . S
C1957 H1965 0.960 . S
C1958 C1956 1.381 . S
C1958 C1959 1.394 . S
C1958 H1966 0.930 . S
C1959 C1958 1.394 . S
C1959 C1960 1.383 . S
C1959 H1967 0.929 . S
C1960 C1959 1.383 . S
C1960 C1961 1.377 . S
C1961 H1945 0.930 . S
C1961 C1960 1.377 . S
C1961 C1962 1.379 . S
C1962 H1946 0.931 . S
C1962 C1956 1.383 . S
C1962 C1961 1.379 . S
H1963 C1957 0.959 . S
H1964 C1957 0.961 . S
H1965 C1957 0.960 . S
H1966 C1958 0.930 . S
H1967 C1959 0.929 . S
H1968 C1976 0.929 . S
H1969 C1978 0.930 . S
H1970 C1980 0.930 . S
H1971 C1983 0.929 . S
H1972 C1986 0.930 . S
H1973 C1988 0.960 . S
H1974 C1988 0.960 . S
H1975 C1988 0.960 . S
C1976 H1968 0.929 . S
C1976 C1977 1.377 . S
C1976 C1978 1.384 . S
C1977 C1976 1.377 . S
C1977 C1983 1.390 . S
C1978 H1969 0.930 . S
C1978 C1976 1.384 . S
C1978 C1979 1.372 . S
C1979 C1978 1.372 . S
C1979 C1980 1.400 . S
C1979 C1984 1.490 . S
C1980 H1970 0.930 . S
C1980 C1979 1.400 . S
C1980 C1983 1.386 . S
H1981 C1997 0.930 . S
H1982 C1998 0.931 . S
C1983 H1971 0.929 . S
C1983 C1977 1.390 . S
C1983 C1980 1.386 . S
C1984 C1979 1.490 . S
C1984 C1986 1.395 . S
C1984 C1987 1.403 . S
H1985 C1991 0.930 . S
C1986 H1972 0.930 . S
C1986 C1984 1.395 . S
C1986 C1989 1.403 . S
C1987 C1984 1.403 . S
C1987 C1988 1.524 . S
C1987 C1991 1.400 . S
C1988 H1973 0.960 . S
C1988 H1974 0.960 . S
C1988 H1975 0.960 . S
C1988 C1987 1.524 . S
C1989 C1986 1.403 . S
C1989 C1990 1.392 . S
C1989 C1993 1.495 . S
C1990 C1989 1.392 . S
C1990 C1991 1.385 . S
C1990 C1992 1.478 . S
C1991 H1985 0.930 . S
C1991 C1987 1.400 . S
C1991 C1990 1.385 . S
C1992 C1990 1.478 . S
C1992 C1994 1.381 . S
C1992 C1998 1.383 . S
C1993 C1989 1.495 . S
C1993 H1999 0.959 . S
C1993 H2000 0.961 . S
C1993 H2001 0.960 . S
C1994 C1992 1.381 . S
C1994 C1995 1.394 . S
C1994 H2002 0.930 . S
C1995 C1994 1.394 . S
C1995 C1996 1.383 . S
C1995 H2003 0.929 . S
C1996 C1995 1.383 . S
C1996 C1997 1.377 . S
C1997 H1981 0.930 . S
C1997 C1996 1.377 . S
C1997 C1998 1.379 . S
C1998 H1982 0.931 . S
C1998 C1992 1.383 . S
C1998 C1997 1.379 . S
H1999 C1993 0.959 . S
H2000 C1993 0.961 . S
H2001 C1993 0.960 . S
H2002 C1994 0.930 . S
H2003 C1995 0.929 . S
H2004 C2012 0.929 . S
H2005 C2014 0.930 . S
H2006 C2016 0.930 . S
H2007 C2019 0.929 . S
H2008 C2022 0.930 . S
H2009 C2024 0.960 . S
H2010 C2024 0.960 . S
H2011 C2024 0.960 . S
C2012 H2004 0.929 . S
C2012 C2013 1.377 . S
C2012 C2014 1.384 . S
C2013 C2012 1.377 . S
C2013 C2019 1.390 . S
C2014 H2005 0.930 . S
C2014 C2012 1.384 . S
C2014 C2015 1.372 . S
C2015 C2014 1.372 . S
C2015 C2016 1.400 . S
C2015 C2020 1.490 . S
C2016 H2006 0.930 . S
C2016 C2015 1.400 . S
C2016 C2019 1.386 . S
H2017 C2033 0.930 . S
H2018 C2034 0.931 . S
C2019 H2007 0.929 . S
C2019 C2013 1.390 . S
C2019 C2016 1.386 . S
C2020 C2015 1.490 . S
C2020 C2022 1.395 . S
C2020 C2023 1.403 . S
H2021 C2027 0.930 . S
C2022 H2008 0.930 . S
C2022 C2020 1.395 . S
C2022 C2025 1.403 . S
C2023 C2020 1.403 . S
C2023 C2024 1.524 . S
C2023 C2027 1.400 . S
C2024 H2009 0.960 . S
C2024 H2010 0.960 . S
C2024 H2011 0.960 . S
C2024 C2023 1.524 . S
C2025 C2022 1.403 . S
C2025 C2026 1.392 . S
C2025 C2029 1.495 . S
C2026 C2025 1.392 . S
C2026 C2027 1.385 . S
C2026 C2028 1.478 . S
C2027 H2021 0.930 . S
C2027 C2023 1.400 . S
C2027 C2026 1.385 . S
C2028 C2026 1.478 . S
C2028 C2030 1.381 . S
C2028 C2034 1.383 . S
C2029 C2025 1.495 . S
C2029 H2035 0.959 . S
C2029 H2036 0.961 . S
C2029 H2037 0.960 . S
C2030 C2028 1.381 . S
C2030 C2031 1.394 . S
C2030 H2038 0.930 . S
C2031 C2030 1.394 . S
C2031 C2032 1.383 . S
C2031 H2039 0.929 . S
C2032 C2031 1.383 . S
C2032 C2033 1.377 . S
C2033 H2017 0.930 . S
C2033 C2032 1.377 . S
C2033 C2034 1.379 . S
C2034 H2018 0.931 . S
C2034 C2028 1.383 . S
C2034 C2033 1.379 . S
H2035 C2029 0.959 . S
H2036 C2029 0.961 . S
H2037 C2029 0.960 . S
H2038 C2030 0.930 . S
H2039 C2031 0.929 . S
C321 C153 1.425 . S
C340 C3 1.415 . S
C357 C16 1.429 . S
C376 C108 1.433 . S
C393 C31 1.426 . S
C412 C121 1.440 . S
C429 C42 1.427 . S
C448 C134 1.422 . S
C465 C173 1.426 . S
C484 C55 1.412 . S
C501 C68 1.431 . S
C520 C186 1.399 . S
C537 C199 1.419 . S
C556 C81 1.442 . S
C573 C160 1.425 . S
C592 C96 1.414 . S
C609 C75 1.424 . S
C628 C109 1.407 . S
C645 C88 1.426 . S
C664 C122 1.413 . S
C681 C135 1.426 . S
C700 C95 1.440 . S
C717 C62 1.422 . S
C736 C146 1.434 . S
C753 C49 1.416 . S
C772 C161 1.441 . S
C789 C174 1.425 . S
C808 C10 1.438 . S
C825 C187 1.429 . S
C844 C23 1.431 . S
C861 C200 1.425 . S
C880 C30 1.440 . S
C897 C213 1.431 . S
C916 C309 1.400 . S
C933 C264 1.425 . S
C952 C224 1.415 . S
C969 C239 1.428 . S
C988 C231 1.434 . S
C1005 C250 1.433 . S
C1024 C238 1.400 . S
C1041 C257 1.426 . S
C1060 C265 1.408 . S
C1077 C278 1.432 . S
C1096 C290 1.396 . S
C1113 C212 1.418 . S
C1132 C291 1.430 . S
C1149 C277 1.425 . S
C1168 C302 1.407 . S
C1185 C5 1.644 . S
C1204 C83 1.637 . S
C1221 C18 1.647 . S
C1240 C94 1.651 . S
C1257 C29 1.647 . S
C1276 C57 1.651 . S
C1293 C70 1.647 . S
C1312 C44 1.651 . S
C1329 C133 1.646 . S
C1348 C107 1.647 . S
C1365 C120 1.645 . S
C1384 C148 1.643 . S
C1401 C159 1.643 . S
C1420 C185 1.632 . S
C1437 C198 1.646 . S
C1456 C172 1.648 . S
C1473 C226 1.643 . S
C1492 C211 1.633 . S
C1509 C237 1.643 . S
C1528 C304 1.632 . S
C1545 C252 1.643 . S
C1564 C276 1.633 . S
C1581 C263 1.645 . S
C1600 C289 1.641 . S
C1617 C4 0.848 . S
C1636 C69 0.855 . S
C1653 C17 0.847 . S
C1672 C82 0.846 . S
C1689 C36 0.850 . S
C1708 C101 0.844 . S
C1725 C56 0.850 . S
C1744 C43 0.846 . S
C1761 C114 0.850 . S
C1780 C303 0.842 . S
C1797 C127 0.848 . S
C1816 C283 0.855 . S
C1833 C296 0.847 . S
C1852 C140 0.853 . S
C1869 C147 0.849 . S
C1888 C218 0.854 . S
C1905 C270 0.849 . S
C1924 C166 0.840 . S
C1941 C225 0.850 . S
C1960 C179 0.851 . S
C1977 C192 0.850 . S
C1996 C244 0.849 . S
C2013 C251 0.847 . S
C2032 C205 0.853 . S
