# Generated by pormake.
# Topology lcs, (4)-cn, num edge types: 1
# Building blocks:
#     Node 0, Type 0, BuildingBlock: GALJAG_clean_sbu_0, # of connection points: 4
#     Node 1, Type 0, BuildingBlock: GALJAG_clean_sbu_0, # of connection points: 4
#     Node 2, Type 0, BuildingBlock: GALJAG_clean_sbu_0, # of connection points: 4
#     Node 3, Type 0, BuildingBlock: GALJAG_clean_sbu_0, # of connection points: 4
#     Node 4, Type 0, BuildingBlock: GALJAG_clean_sbu_0, # of connection points: 4
#     Node 5, Type 0, BuildingBlock: GALJAG_clean_sbu_0, # of connection points: 4
#     Node 6, Type 0, BuildingBlock: GALJAG_clean_sbu_0, # of connection points: 4
#     Node 7, Type 0, BuildingBlock: GALJAG_clean_sbu_0, # of connection points: 4
#     Node 8, Type 0, BuildingBlock: GALJAG_clean_sbu_0, # of connection points: 4
#     Node 9, Type 0, BuildingBlock: GALJAG_clean_sbu_0, # of connection points: 4
#     Node 10, Type 0, BuildingBlock: GALJAG_clean_sbu_0, # of connection points: 4
#     Node 11, Type 0, BuildingBlock: GALJAG_clean_sbu_0, # of connection points: 4
#     Node 12, Type 0, BuildingBlock: GALJAG_clean_sbu_0, # of connection points: 4
#     Node 13, Type 0, BuildingBlock: GALJAG_clean_sbu_0, # of connection points: 4
#     Node 14, Type 0, BuildingBlock: GALJAG_clean_sbu_0, # of connection points: 4
#     Node 15, Type 0, BuildingBlock: GALJAG_clean_sbu_0, # of connection points: 4
#     Node 16, Type 0, BuildingBlock: GALJAG_clean_sbu_0, # of connection points: 4
#     Node 17, Type 0, BuildingBlock: GALJAG_clean_sbu_0, # of connection points: 4
#     Node 18, Type 0, BuildingBlock: GALJAG_clean_sbu_0, # of connection points: 4
#     Node 19, Type 0, BuildingBlock: GALJAG_clean_sbu_0, # of connection points: 4
#     Node 20, Type 0, BuildingBlock: GALJAG_clean_sbu_0, # of connection points: 4
#     Node 21, Type 0, BuildingBlock: GALJAG_clean_sbu_0, # of connection points: 4
#     Node 22, Type 0, BuildingBlock: GALJAG_clean_sbu_0, # of connection points: 4
#     Node 23, Type 0, BuildingBlock: GALJAG_clean_sbu_0, # of connection points: 4
#     Edge 24, Type (0, 0), BuildingBlock: XIVTED_clean_linker_0, # of connection points: 2
#     Edge 25, Type (0, 0), BuildingBlock: XIVTED_clean_linker_0, # of connection points: 2
#     Edge 26, Type (0, 0), BuildingBlock: XIVTED_clean_linker_0, # of connection points: 2
#     Edge 27, Type (0, 0), BuildingBlock: XIVTED_clean_linker_0, # of connection points: 2
#     Edge 28, Type (0, 0), BuildingBlock: XIVTED_clean_linker_0, # of connection points: 2
#     Edge 29, Type (0, 0), BuildingBlock: XIVTED_clean_linker_0, # of connection points: 2
#     Edge 30, Type (0, 0), BuildingBlock: XIVTED_clean_linker_0, # of connection points: 2
#     Edge 31, Type (0, 0), BuildingBlock: XIVTED_clean_linker_0, # of connection points: 2
#     Edge 32, Type (0, 0), BuildingBlock: XIVTED_clean_linker_0, # of connection points: 2
#     Edge 33, Type (0, 0), BuildingBlock: XIVTED_clean_linker_0, # of connection points: 2
#     Edge 34, Type (0, 0), BuildingBlock: XIVTED_clean_linker_0, # of connection points: 2
#     Edge 35, Type (0, 0), BuildingBlock: XIVTED_clean_linker_0, # of connection points: 2
#     Edge 36, Type (0, 0), BuildingBlock: XIVTED_clean_linker_0, # of connection points: 2
#     Edge 37, Type (0, 0), BuildingBlock: XIVTED_clean_linker_0, # of connection points: 2
#     Edge 38, Type (0, 0), BuildingBlock: XIVTED_clean_linker_0, # of connection points: 2
#     Edge 39, Type (0, 0), BuildingBlock: XIVTED_clean_linker_0, # of connection points: 2
#     Edge 40, Type (0, 0), BuildingBlock: XIVTED_clean_linker_0, # of connection points: 2
#     Edge 41, Type (0, 0), BuildingBlock: XIVTED_clean_linker_0, # of connection points: 2
#     Edge 42, Type (0, 0), BuildingBlock: XIVTED_clean_linker_0, # of connection points: 2
#     Edge 43, Type (0, 0), BuildingBlock: XIVTED_clean_linker_0, # of connection points: 2
#     Edge 44, Type (0, 0), BuildingBlock: XIVTED_clean_linker_0, # of connection points: 2
#     Edge 45, Type (0, 0), BuildingBlock: XIVTED_clean_linker_0, # of connection points: 2
#     Edge 46, Type (0, 0), BuildingBlock: XIVTED_clean_linker_0, # of connection points: 2
#     Edge 47, Type (0, 0), BuildingBlock: XIVTED_clean_linker_0, # of connection points: 2
#     Edge 48, Type (0, 0), BuildingBlock: XIVTED_clean_linker_0, # of connection points: 2
#     Edge 49, Type (0, 0), BuildingBlock: XIVTED_clean_linker_0, # of connection points: 2
#     Edge 50, Type (0, 0), BuildingBlock: XIVTED_clean_linker_0, # of connection points: 2
#     Edge 51, Type (0, 0), BuildingBlock: XIVTED_clean_linker_0, # of connection points: 2
#     Edge 52, Type (0, 0), BuildingBlock: XIVTED_clean_linker_0, # of connection points: 2
#     Edge 53, Type (0, 0), BuildingBlock: XIVTED_clean_linker_0, # of connection points: 2
#     Edge 54, Type (0, 0), BuildingBlock: XIVTED_clean_linker_0, # of connection points: 2
#     Edge 55, Type (0, 0), BuildingBlock: XIVTED_clean_linker_0, # of connection points: 2
#     Edge 56, Type (0, 0), BuildingBlock: XIVTED_clean_linker_0, # of connection points: 2
#     Edge 57, Type (0, 0), BuildingBlock: XIVTED_clean_linker_0, # of connection points: 2
#     Edge 58, Type (0, 0), BuildingBlock: XIVTED_clean_linker_0, # of connection points: 2
#     Edge 59, Type (0, 0), BuildingBlock: XIVTED_clean_linker_0, # of connection points: 2
#     Edge 60, Type (0, 0), BuildingBlock: XIVTED_clean_linker_0, # of connection points: 2
#     Edge 61, Type (0, 0), BuildingBlock: XIVTED_clean_linker_0, # of connection points: 2
#     Edge 62, Type (0, 0), BuildingBlock: XIVTED_clean_linker_0, # of connection points: 2
#     Edge 63, Type (0, 0), BuildingBlock: XIVTED_clean_linker_0, # of connection points: 2
#     Edge 64, Type (0, 0), BuildingBlock: XIVTED_clean_linker_0, # of connection points: 2
#     Edge 65, Type (0, 0), BuildingBlock: XIVTED_clean_linker_0, # of connection points: 2
#     Edge 66, Type (0, 0), BuildingBlock: XIVTED_clean_linker_0, # of connection points: 2
#     Edge 67, Type (0, 0), BuildingBlock: XIVTED_clean_linker_0, # of connection points: 2
#     Edge 68, Type (0, 0), BuildingBlock: XIVTED_clean_linker_0, # of connection points: 2
#     Edge 69, Type (0, 0), BuildingBlock: XIVTED_clean_linker_0, # of connection points: 2
#     Edge 70, Type (0, 0), BuildingBlock: XIVTED_clean_linker_0, # of connection points: 2
#     Edge 71, Type (0, 0), BuildingBlock: XIVTED_clean_linker_0, # of connection points: 2
# Relax obj value: 0.033
# Max RMSD: 0.061
# Mean RMSD: 0.060
data_MOF--net-lcs--node1-GALJAG_clean_sbu_0--edge1-XIVTED_clean_linker_0
_symmetry_space_group_name_H-M    P1
_symmetry_Int_Tables_number       1
_symmetry_cell_setting            triclinic
loop_
_symmetry_equiv_pos_as_xyz
'x, y, z'
_cell_length_a     50.088741
_cell_length_b     50.023072
_cell_length_c     50.01881
_cell_angle_alpha  90.125676
_cell_angle_beta   90.107573
_cell_angle_gamma 90.11531
loop_
_atom_site_label
_atom_site_type_symbol
_atom_site_fract_x
_atom_site_fract_y
_atom_site_fract_z
_atom_type_partial_charge
In0 In 0.99515 0.24661 0.37799 0.0
O1 O 0.02232 0.24144 0.41451 0.0
O2 O 0.03043 0.21842 0.3796 0.0
C3 C 0.95198 0.26816 0.40203 0.0
C4 C 0.01857 0.28892 0.35421 0.0
C5 C 0.97513 0.20363 0.35222 0.0
O6 O 0.9674 0.25227 0.41406 0.0
O7 O 0.95843 0.2731 0.37823 0.0
O8 O 0.98873 0.22125 0.34031 0.0
O9 O 0.97124 0.20812 0.37672 0.0
C10 C 0.03691 0.22415 0.4033 0.0
O11 O 0.00162 0.27445 0.34227 0.0
O12 O 0.02383 0.28182 0.3778 0.0
In13 In 0.99561 0.74641 0.63353 0.0
O14 O 0.02254 0.74204 0.59676 0.0
O15 O 0.03595 0.72587 0.63369 0.0
C16 C 0.95019 0.76296 0.60977 0.0
C17 C 0.97663 0.7025 0.65831 0.0
C18 C 0.01498 0.79082 0.65735 0.0
O19 O 0.96804 0.75046 0.59709 0.0
O20 O 0.95522 0.76674 0.63419 0.0
O21 O 0.01182 0.76916 0.66988 0.0
O22 O 0.00863 0.7899 0.63297 0.0
C23 C 0.04059 0.72958 0.60921 0.0
O24 O 0.97977 0.72449 0.67037 0.0
O25 O 0.98289 0.70279 0.63391 0.0
In26 In 0.50732 0.75596 0.87778 0.0
O27 O 0.53211 0.74778 0.91549 0.0
O28 O 0.55013 0.74089 0.87776 0.0
C29 C 0.46215 0.77472 0.90002 0.0
C30 C 0.52456 0.80052 0.85301 0.0
C31 C 0.48833 0.71059 0.85512 0.0
O32 O 0.48038 0.76388 0.91369 0.0
O33 O 0.46676 0.77608 0.87525 0.0
O34 O 0.49838 0.72922 0.84145 0.0
O35 O 0.48805 0.71484 0.87994 0.0
C36 C 0.55257 0.74041 0.90282 0.0
O37 O 0.52021 0.77891 0.84061 0.0
O38 O 0.52021 0.79963 0.87784 0.0
In39 In 0.49871 0.24202 0.11287 0.0
O40 O 0.51895 0.22374 0.07601 0.0
O41 O 0.54343 0.24261 0.10516 0.0
C42 C 0.45149 0.25757 0.09198 0.0
C43 C 0.4883 0.19658 0.14014 0.0
C44 C 0.51491 0.2864 0.13866 0.0
O45 O 0.47203 0.25439 0.07774 0.0
O46 O 0.45476 0.2526 0.11646 0.0
O47 O 0.5175 0.26328 0.14845 0.0
O48 O 0.50415 0.28714 0.11581 0.0
C49 C 0.54225 0.23 0.08338 0.0
O50 O 0.48989 0.2191 0.15138 0.0
O51 O 0.49192 0.19699 0.11524 0.0
In52 In -0.00031 0.7496 0.12528 0.0
O53 O 0.01527 0.72843 0.16266 0.0
O54 O 0.00707 0.70467 0.12844 0.0
C55 C 0.98279 0.79595 0.14693 0.0
C56 C 0.04566 0.76442 0.10135 0.0
C57 C 0.95406 0.73491 0.10074 0.0
O58 O 0.98668 0.77521 0.16075 0.0
O59 O 0.98714 0.79318 0.12224 0.0
O60 O 0.97546 0.73904 0.08804 0.0
O61 O 0.95575 0.73819 0.12572 0.0
C62 C 0.01516 0.70545 0.15228 0.0
O63 O 0.02677 0.75371 0.08845 0.0
O64 O 0.04136 0.76725 0.12598 0.0
In65 In 0.49978 0.74618 0.37233 0.0
O66 O 0.4722 0.74125 0.40842 0.0
O67 O 0.45969 0.72499 0.37108 0.0
C68 C 0.54459 0.76415 0.39672 0.0
C69 C 0.51779 0.70251 0.34645 0.0
C70 C 0.48004 0.79011 0.34844 0.0
O71 O 0.52788 0.74953 0.40865 0.0
O72 O 0.53868 0.7694 0.37285 0.0
O73 O 0.4907 0.77136 0.33538 0.0
O74 O 0.47915 0.78655 0.37338 0.0
C75 C 0.45448 0.72867 0.39548 0.0
O76 O 0.51271 0.72412 0.33456 0.0
O77 O 0.51396 0.70297 0.37136 0.0
In78 In 0.4922 0.25351 0.62343 0.0
O79 O 0.52338 0.23588 0.65187 0.0
O80 O 0.48959 0.2121 0.64246 0.0
C81 C 0.47275 0.29474 0.65228 0.0
C82 C 0.53061 0.27318 0.59085 0.0
C83 C 0.4506 0.23379 0.59536 0.0
O84 O 0.4908 0.27965 0.66135 0.0
O85 O 0.46485 0.28898 0.62906 0.0
O86 O 0.47363 0.23589 0.58526 0.0
O87 O 0.44888 0.24123 0.61938 0.0
C88 C 0.51152 0.21382 0.65468 0.0
O89 O 0.52753 0.24847 0.5947 0.0
O90 O 0.51395 0.28775 0.60276 0.0
In91 In 0.00158 0.24763 0.86859 0.0
O92 O 0.96538 0.25307 0.89578 0.0
O93 O 0.98459 0.21533 0.89592 0.0
C94 C 0.04032 0.26714 0.90091 0.0
C95 C 0.01834 0.20976 0.83384 0.0
C96 C 0.9819 0.2848 0.83477 0.0
O97 O 0.03931 0.24291 0.89398 0.0
O98 O 0.02138 0.28124 0.89226 0.0
O99 O 0.00603 0.28434 0.84195 0.0
O100 O 0.96784 0.26603 0.84399 0.0
C101 C 0.96571 0.22949 0.90462 0.0
O102 O 0.99492 0.21034 0.84297 0.0
O103 O 0.03309 0.22869 0.84164 0.0
In104 In 0.37793 0.99787 0.24529 0.0
O105 O 0.34086 0.01839 0.26284 0.0
O106 O 0.37401 0.01067 0.28835 0.0
C107 C 0.34569 0.98017 0.20553 0.0
C108 C 0.413 0.03498 0.22765 0.0
C109 C 0.40245 0.95489 0.26641 0.0
O110 O 0.35177 0.0045 0.20811 0.0
O111 O 0.35515 0.96517 0.22333 0.0
O112 O 0.41352 0.96908 0.24872 0.0
O113 O 0.37941 0.96239 0.27306 0.0
C114 C 0.35071 0.01984 0.2861 0.0
O115 O 0.39901 0.03811 0.2483 0.0
O116 O 0.40988 0.01275 0.21611 0.0
In117 In 0.24856 0.12015 0.49492 0.0
O118 O 0.23388 0.08204 0.51554 0.0
O119 O 0.24525 0.11468 0.54009 0.0
C120 C 0.26601 0.09678 0.44973 0.0
C121 C 0.20195 0.14323 0.48082 0.0
C122 C 0.2918 0.14936 0.50861 0.0
O123 O 0.26782 0.08582 0.47238 0.0
O124 O 0.25541 0.11966 0.44983 0.0
O125 O 0.26826 0.15777 0.51183 0.0
O126 O 0.29347 0.12644 0.49824 0.0
C127 C 0.2365 0.09112 0.5389 0.0
O128 O 0.22235 0.15678 0.48696 0.0
O129 O 0.2051 0.11828 0.48193 0.0
In130 In 0.12711 0.0001 0.7454 0.0
O131 O 0.09001 0.02348 0.75837 0.0
O132 O 0.12523 0.04535 0.7495 0.0
C133 C 0.09664 0.95764 0.7317 0.0
C134 C 0.15838 0.01077 0.70273 0.0
C135 C 0.15253 0.98425 0.79017 0.0
O136 O 0.09202 0.9809 0.72314 0.0
O137 O 0.11629 0.95594 0.74739 0.0
O138 O 0.1607 0.97842 0.76703 0.0
O139 O 0.13172 -0.00159 0.79075 0.0
C140 C 0.10119 0.04605 0.75681 0.0
O141 O 0.16522 0.01654 0.72632 0.0
O142 O 0.13608 -0.00074 0.70074 0.0
In143 In 0.24913 0.87281 0.99642 0.0
O144 O 0.22213 0.83573 -0.00036 0.0
O145 O 0.21124 0.87083 0.02093 0.0
C146 C 0.29454 0.85127 0.97724 0.0
C147 C 0.22783 0.89757 0.95368 0.0
C148 C 0.26918 0.89699 0.04025 0.0
O149 O 0.27821 0.83793 0.99109 0.0
O150 O 0.288 0.87526 0.97331 0.0
O151 O 0.2611 0.91009 0.02024 0.0
O152 O 0.26752 0.87193 0.03782 0.0
C153 C 0.2058 0.84688 0.01528 0.0
O154 O 0.23285 0.90982 0.97522 0.0
O155 O 0.23322 0.87295 0.95393 0.0
In156 In 0.24667 0.3758 0.00234 0.0
O157 O 0.24457 0.41099 0.03178 0.0
O158 O 0.21892 0.37766 0.03803 0.0
C159 C 0.26991 0.40332 0.962 0.0
C160 C 0.28654 0.34624 0.02316 0.0
C161 C 0.2037 0.3515 0.98028 0.0
O162 O 0.25071 0.41273 0.97528 0.0
O163 O 0.27745 0.3805 0.96931 0.0
O164 O 0.22081 0.3389 0.9938 0.0
O165 O 0.20854 0.37607 0.97757 0.0
C166 C 0.22655 0.40039 0.04591 0.0
O167 O 0.27356 0.33894 0.00274 0.0
O168 O 0.27924 0.36822 0.03315 0.0
In169 In 0.75622 0.12577 -0.00035 0.0
O170 O 0.76202 0.08822 0.02527 0.0
O171 O 0.7662 0.12618 0.04393 0.0
C172 C 0.74224 0.104 0.95231 0.0
C173 C 0.71013 0.15029 0.01253 0.0
C174 C 0.80294 0.14938 0.98654 0.0
O175 O 0.74959 0.08984 0.97186 0.0
O176 O 0.74238 0.12884 0.95664 0.0
O177 O 0.78187 0.16247 0.99082 0.0
O178 O 0.80046 0.12441 0.98894 0.0
C179 C 0.76673 0.10114 0.04648 0.0
O180 O 0.73215 0.16258 0.01156 0.0
O181 O 0.71142 0.12567 0.00718 0.0
In182 In 0.12036 0.49922 0.25483 0.0
O183 O 0.15664 0.4949 0.2269 0.0
O184 O 0.12084 0.47457 0.21676 0.0
C185 C 0.14309 0.51912 0.29952 0.0
C186 C 0.095 0.54223 0.23467 0.0
C187 C 0.09705 0.45587 0.27669 0.0
O188 O 0.15615 0.50566 0.2826 0.0
O189 O 0.11875 0.52243 0.29385 0.0
O190 O 0.08373 0.47389 0.26512 0.0
O191 O 0.1219 0.45992 0.27744 0.0
C192 C 0.14465 0.47971 0.21064 0.0
O193 O 0.08291 0.5207 0.23989 0.0
O194 O 0.11972 0.54197 0.23948 0.0
In195 In 0.74921 0.87323 0.50092 0.0
O196 O 0.74549 0.91068 0.5271 0.0
O197 O 0.71895 0.87827 0.53432 0.0
C198 C 0.77097 0.89652 0.45743 0.0
C199 C 0.79003 0.84731 0.5249 0.0
C200 C 0.70679 0.84791 0.47933 0.0
O201 O 0.75666 0.9093 0.47379 0.0
O202 O 0.77482 0.87238 0.46345 0.0
O203 O 0.72092 0.8373 0.49736 0.0
O204 O 0.71407 0.87103 0.47246 0.0
C205 C 0.72645 0.90147 0.54083 0.0
O206 O 0.77544 0.83626 0.5075 0.0
O207 O 0.78396 0.87116 0.53018 0.0
In208 In 0.87149 0.99723 0.2492 0.0
O209 O 0.84044 0.99217 0.21584 0.0
O210 O 0.85053 0.03155 0.2281 0.0
C211 C 0.84 0.97507 0.28705 0.0
C212 C 0.90558 0.96128 0.22775 0.0
C213 C 0.90328 0.0356 0.27037 0.0
O214 O 0.8398 -0.00025 0.28203 0.0
O215 O 0.85514 0.96151 0.27222 0.0
O216 O 0.88986 0.01957 0.28434 0.0
O217 O 0.90146 0.03179 0.2455 0.0
C218 C 0.83719 0.01693 0.21245 0.0
O219 O 0.90386 0.96526 0.25258 0.0
O220 O 0.89083 0.97606 0.21372 0.0
In221 In 0.24796 0.62853 0.50394 0.0
O222 O 0.26401 0.5921 0.52659 0.0
O223 O 0.26516 0.62992 0.546 0.0
C224 C 0.22389 0.60322 0.46274 0.0
C225 C 0.20411 0.65117 0.5251 0.0
C226 C 0.29033 0.65337 0.48133 0.0
O227 O 0.23823 0.59094 0.47949 0.0
O228 O 0.22161 0.62798 0.46696 0.0
O229 O 0.2754 0.66501 0.49796 0.0
O230 O 0.28383 0.62959 0.47626 0.0
C231 C 0.26996 0.60524 0.54735 0.0
O232 O 0.21993 0.66405 0.51021 0.0
O233 O 0.21041 0.62708 0.52907 0.0
In234 In 0.37614 0.50527 0.75524 0.0
O235 O 0.34 0.52338 0.73364 0.0
O236 O 0.37556 0.51722 0.71141 0.0
C237 C 0.35273 0.48467 0.79909 0.0
C238 C 0.39675 0.45904 0.73714 0.0
C239 C 0.40279 0.54843 0.77415 0.0
O240 O 0.33934 0.49555 0.78064 0.0
O241 O 0.37761 0.48416 0.79525 0.0
O242 O 0.41341 0.53215 0.75808 0.0
O243 O 0.37906 0.54297 0.78034 0.0
C244 C 0.35172 0.5252 0.71139 0.0
O245 O 0.41108 0.47675 0.74821 0.0
O246 O 0.37227 0.46476 0.73532 0.0
In247 In 0.62634 0.00791 0.74793 0.0
O248 O 0.6616 0.00272 0.71931 0.0
O249 O 0.62351 0.98816 0.70717 0.0
C250 C 0.65509 0.02607 0.79002 0.0
C251 C 0.59992 0.05069 0.72878 0.0
C252 C 0.60171 0.96511 0.76984 0.0
O253 O 0.66382 0.00805 0.77466 0.0
O254 O 0.63218 0.03453 0.78419 0.0
O255 O 0.59195 0.98832 0.77107 0.0
O256 O 0.6237 0.96363 0.75779 0.0
C257 C 0.6479 0.99098 0.70157 0.0
O258 O 0.58801 0.02948 0.73559 0.0
O259 O 0.62498 0.05003 0.73126 0.0
In260 In 0.75159 0.62154 0.00059 0.0
O261 O 0.72236 0.59065 0.01705 0.0
O262 O 0.756 0.60067 0.04091 0.0
C263 C 0.76638 0.58861 0.96036 0.0
C264 C 0.71304 0.65619 0.98558 0.0
C265 C 0.79157 0.65399 0.0172 0.0
O266 O 0.7788 0.58972 0.9823 0.0
O267 O 0.74625 0.60362 0.95898 0.0
O268 O 0.76987 0.65172 0.02973 0.0
O269 O 0.79289 0.64034 0.99604 0.0
C270 C 0.73477 0.58726 0.03873 0.0
O271 O 0.7345 0.65334 0.97275 0.0
O272 O 0.71131 0.64209 0.00635 0.0
In273 In 0.86766 0.49301 0.7492 0.0
O274 O 0.90343 0.51332 0.72962 0.0
O275 O 0.87414 0.5381 0.74783 0.0
C276 C 0.894 0.44726 0.76057 0.0
C277 C 0.84281 0.50757 0.79479 0.0
C278 C 0.83817 0.4811 0.70541 0.0
O279 O 0.90529 0.46982 0.76108 0.0
O280 O 0.86965 0.44785 0.7543 0.0
O281 O 0.83092 0.47498 0.72873 0.0
O282 O 0.85997 0.49361 0.70421 0.0
C283 C 0.89581 0.53676 0.73506 0.0
O284 O 0.83187 0.50942 0.77212 0.0
O285 O 0.86624 0.49836 0.79445 0.0
In286 In 0.74197 0.37531 0.49598 0.0
O287 O 0.71596 0.33851 0.50354 0.0
O288 O 0.70009 0.37684 0.51304 0.0
C289 C 0.78707 0.35169 0.47809 0.0
C290 C 0.72192 0.39786 0.45149 0.0
C291 C 0.75878 0.40063 0.54067 0.0
O292 O 0.77014 0.33928 0.49203 0.0
O293 O 0.78122 0.37569 0.47339 0.0
O294 O 0.75488 0.41283 0.51897 0.0
O295 O 0.75435 0.37585 0.53973 0.0
C296 C 0.69647 0.35186 0.51241 0.0
O297 O 0.7325 0.41158 0.46994 0.0
O298 O 0.72156 0.37298 0.45554 0.0
In299 In 0.6173 0.49459 0.24159 0.0
O300 O 0.58206 0.51508 0.26229 0.0
O301 O 0.61327 0.53962 0.24761 0.0
C302 C 0.59248 0.45132 0.22137 0.0
C303 C 0.64482 0.50746 0.19722 0.0
C304 C 0.64121 0.47721 0.28666 0.0
O305 O 0.58115 0.47383 0.22284 0.0
O306 O 0.61617 0.45079 0.22997 0.0
O307 O 0.65287 0.49276 0.27058 0.0
O308 O 0.61781 0.47075 0.28 0.0
C309 C 0.59124 0.53839 0.2596 0.0
O310 O 0.65634 0.50191 0.21901 0.0
O311 O 0.61967 0.50654 0.19798 0.0
H312 H 0.04647 0.43656 0.26848 0.0
H313 H 0.0619 0.3167 0.37199 0.0
H314 H 0.11988 0.41987 0.31046 0.0
H315 H 0.00263 0.31582 0.30928 0.0
H316 H 0.08088 0.35747 0.35299 0.0
H317 H 0.02726 0.39528 0.28672 0.0
C318 C 0.05848 0.42427 0.28162 0.0
C319 C 0.08478 0.43158 0.288 0.0
C320 C 0.0638 0.3483 0.34331 0.0
C321 C 0.06299 0.38463 0.30892 0.0
C322 C 0.05294 0.32507 0.35416 0.0
C323 C 0.03072 0.31288 0.34212 0.0
C324 C 0.05212 0.35967 0.32049 0.0
C325 C 0.01987 0.32456 0.31907 0.0
C326 C 0.04757 0.4007 0.29187 0.0
C327 C 0.09954 0.41492 0.305 0.0
N328 N 0.03057 0.34747 0.30907 0.0
N329 N 0.08839 0.39229 0.31498 0.0
H330 H 0.93076 0.75265 0.5594 0.0
H331 H 0.81721 0.86342 0.56924 0.0
H332 H 0.91413 0.79734 0.63134 0.0
H333 H 0.81453 0.80059 0.51005 0.0
H334 H 0.85551 0.84168 0.59012 0.0
H335 H 0.89069 0.772 0.53873 0.0
C336 C 0.91864 0.76645 0.57084 0.0
C337 C 0.92574 0.77345 0.59709 0.0
C338 C 0.84649 0.83255 0.57264 0.0
C339 C 0.88029 0.79575 0.57359 0.0
C340 C 0.82469 0.845 0.56067 0.0
C341 C 0.81271 0.83376 0.53792 0.0
C342 C 0.85668 0.80887 0.56157 0.0
C343 C 0.82317 0.80984 0.52765 0.0
C344 C 0.8958 0.7774 0.55909 0.0
C345 C 0.90937 0.79138 0.61106 0.0
N346 N 0.84473 0.79825 0.53945 0.0
N347 N 0.88754 0.80205 0.59908 0.0
H348 H 0.44893 0.57236 0.75647 0.0
H349 H 0.45676 0.67369 0.8794 0.0
H350 H 0.38844 0.57767 0.81755 0.0
H351 H 0.49421 0.69163 0.8039 0.0
H352 H 0.437 0.63365 0.85951 0.0
H353 H 0.47107 0.61185 0.77597 0.0
C354 C 0.44039 0.58178 0.77399 0.0
C355 C 0.41682 0.57184 0.78542 0.0
C356 C 0.44955 0.64634 0.84729 0.0
C357 C 0.44204 0.61646 0.80783 0.0
C358 C 0.46092 0.66912 0.85864 0.0
C359 C 0.47703 0.68603 0.84322 0.0
C360 C 0.45462 0.64016 0.8204 0.0
C361 C 0.48175 0.67916 0.81641 0.0
C362 C 0.45294 0.60428 0.785 0.0
C363 C 0.40651 0.58476 0.80805 0.0
N364 N 0.47065 0.65663 0.80581 0.0
N365 N 0.41926 0.60629 0.8186 0.0
H366 H 0.59296 0.24851 0.09031 0.0
H367 H 0.65958 0.13016 0.00839 0.0
H368 H 0.54671 0.19183 0.04436 0.0
H369 H 0.70325 0.20048 0.03306 0.0
H370 H 0.61803 0.15175 0.02222 0.0
H371 H 0.6337 0.23092 0.07012 0.0
C372 C 0.59139 0.23252 0.07575 0.0
C373 C 0.56649 0.2215 0.06905 0.0
C374 C 0.63668 0.16254 0.02441 0.0
C375 C 0.613 0.20103 0.04618 0.0
C376 C 0.66039 0.15019 0.01665 0.0
C377 C 0.68486 0.16353 0.01976 0.0
C378 C 0.63751 0.18824 0.03571 0.0
C379 C 0.68479 0.18949 0.03039 0.0
C380 C 0.61463 0.22251 0.06421 0.0
C381 C 0.56554 0.20087 0.05004 0.0
N382 N 0.66149 0.20092 0.03823 0.0
N383 N 0.58853 0.19105 0.03948 0.0
H384 H 0.04678 0.54466 0.20898 0.0
H385 H 0.04611 0.70352 0.19719 0.0
H386 H 0.11244 0.5938 0.23593 0.0
H387 H 0.0063 0.65306 0.13945 0.0
H388 H 0.0643 0.66353 0.21876 0.0
H389 H 0.02545 0.58461 0.1901 0.0
C390 C 0.05659 0.56387 0.21104 0.0
C391 C 0.08143 0.566 0.22386 0.0
C392 C 0.05148 0.66127 0.20144 0.0
C393 C 0.0571 0.61153 0.20282 0.0
C394 C 0.04102 0.68401 0.18922 0.0
C395 C 0.02483 0.68152 0.16645 0.0
C396 C 0.04529 0.6359 0.19109 0.0
C397 C 0.01887 0.6558 0.15688 0.0
C398 C 0.04449 0.58656 0.20023 0.0
C399 C 0.09336 0.59131 0.226 0.0
N400 N 0.02905 0.63392 0.1693 0.0
N401 N 0.08102 0.61314 0.2157 0.0
H402 H 0.56531 0.75246 0.44629 0.0
H403 H 0.67903 0.86392 0.43553 0.0
H404 H 0.5791 0.80059 0.37613 0.0
H405 H 0.68125 0.80205 0.49548 0.0
H406 H 0.63993 0.8427 0.41564 0.0
H407 H 0.60555 0.77194 0.46681 0.0
C408 C 0.57681 0.76707 0.43522 0.0
C409 C 0.56889 0.77497 0.40951 0.0
C410 C 0.64897 0.83366 0.43309 0.0
C411 C 0.61455 0.79733 0.43279 0.0
C412 C 0.67127 0.84582 0.44451 0.0
C413 C 0.68338 0.83469 0.46716 0.0
C414 C 0.63847 0.81031 0.44454 0.0
C415 C 0.6725 0.81119 0.47794 0.0
C416 C 0.59975 0.77809 0.44689 0.0
C417 C 0.58448 0.79391 0.396 0.0
N418 N 0.65052 0.7998 0.4666 0.0
N419 N 0.60645 0.80452 0.40784 0.0
H420 H 0.49303 0.31988 0.6969 0.0
H421 H 0.37084 0.42196 0.70682 0.0
H422 H 0.42712 0.32169 0.64126 0.0
H423 H 0.44722 0.43854 0.74338 0.0
H424 H 0.38902 0.38082 0.68808 0.0
H425 H 0.4744 0.35941 0.71949 0.0
C426 C 0.47459 0.32848 0.68958 0.0
C427 C 0.46162 0.31763 0.66715 0.0
C428 C 0.40183 0.39342 0.70022 0.0
C429 C 0.44025 0.36239 0.69283 0.0
C430 C 0.39144 0.41688 0.71099 0.0
C431 C 0.40761 0.43375 0.72653 0.0
C432 C 0.42854 0.38659 0.7052 0.0
C433 C 0.43415 0.42614 0.73134 0.0
C434 C 0.46407 0.35103 0.70237 0.0
C435 C 0.43784 0.32952 0.6584 0.0
N436 N 0.44384 0.40304 0.7207 0.0
N437 N 0.42791 0.35119 0.67128 0.0
H438 H 0.96059 0.17851 0.92348 0.0
H439 H 0.81283 0.20262 0.97909 0.0
H440 H 0.92172 0.25542 0.92389 0.0
H441 H 0.85056 0.12523 0.97544 0.0
H442 H 0.85418 0.22309 0.96308 0.0
H443 H 0.9223 0.15949 0.94699 0.0
C444 C 0.94413 0.19147 0.92881 0.0
C445 C 0.94423 0.21854 0.92158 0.0
C446 C 0.85348 0.20165 0.96592 0.0
C447 C 0.90024 0.19687 0.94826 0.0
C448 C 0.82988 0.18996 0.97506 0.0
C449 C 0.82823 0.16218 0.9784 0.0
C450 C 0.87558 0.18542 0.96004 0.0
C451 C 0.85094 0.14672 0.97299 0.0
C452 C 0.92223 0.18058 0.94216 0.0
C453 C 0.92239 0.23441 0.92899 0.0
N454 N 0.87363 0.15854 0.96394 0.0
N455 N 0.90118 0.22329 0.94175 0.0
H456 H 0.29671 0.0521 0.44607 0.0
H457 H 0.30534 0.05072 0.28664 0.0
H458 H 0.25906 0.11276 0.39782 0.0
H459 H 0.36337 0.01353 0.3384 0.0
H460 H 0.28273 0.06889 0.32636 0.0
H461 H 0.31567 0.03244 0.40565 0.0
C462 C 0.29232 0.06119 0.42693 0.0
C463 C 0.27646 0.08417 0.42525 0.0
C464 C 0.30041 0.05672 0.32889 0.0
C465 C 0.298 0.06175 0.37895 0.0
C466 C 0.31323 0.04633 0.30632 0.0
C467 C 0.33628 0.03074 0.30932 0.0
C468 C 0.31054 0.05102 0.35446 0.0
C469 C 0.34574 0.02561 0.3352 0.0
C470 C 0.30322 0.05003 0.40389 0.0
C471 C 0.27136 0.09512 0.39993 0.0
N472 N 0.33279 0.03563 0.35675 0.0
N473 N 0.28212 0.08379 0.37769 0.0
H474 H 0.20221 0.04339 0.70116 0.0
H475 H 0.20985 0.04343 0.54129 0.0
H476 H 0.15 0.99659 0.65066 0.0
H477 H 0.24546 0.10441 0.5911 0.0
H478 H 0.1942 0.02048 0.58154 0.0
H479 H 0.2248 0.06023 0.66122 0.0
C480 C 0.19572 0.03642 0.68168 0.0
C481 C 0.17407 0.01877 0.67914 0.0
C482 C 0.20559 0.03879 0.58364 0.0
C483 C 0.19973 0.03794 0.6335 0.0
C484 C 0.21457 0.05184 0.56071 0.0
C485 C 0.22874 0.07595 0.56292 0.0
C486 C 0.21101 0.04985 0.60891 0.0
C487 C 0.23439 0.08597 0.58854 0.0
C488 C 0.20854 0.04611 0.65892 0.0
C489 C 0.16649 0.01035 0.65346 0.0
N490 N 0.22542 0.07292 0.61055 0.0
N491 N 0.17923 0.02011 0.6316 0.0
H492 H 0.14328 -0.00101 0.84205 0.0
H493 H 0.22595 0.87799 0.90292 0.0
H494 H 0.19027 0.94523 0.79375 0.0
H495 H 0.20582 0.94754 0.94988 0.0
H496 H 0.20892 0.9004 0.86307 0.0
H497 H 0.16248 0.97881 0.88236 0.0
C498 C 0.15775 0.98306 0.83995 0.0
C499 C 0.1652 0.97371 0.81458 0.0
C500 C 0.2083 0.9108 0.88207 0.0
C501 C 0.18684 0.9504 0.86042 0.0
C502 C 0.21787 0.89798 0.90484 0.0
C503 C 0.21725 0.91096 0.92969 0.0
C504 C 0.19766 0.93664 0.88423 0.0
C505 C 0.20668 0.93688 0.93104 0.0
C506 C 0.1687 0.97161 0.86292 0.0
C507 C 0.18402 0.95306 0.81294 0.0
N508 N 0.19711 0.94886 0.9086 0.0
N509 N 0.19401 0.94192 0.83556 0.0
H510 H 0.28434 0.87241 0.08628 0.0
H511 H 0.3276 0.00718 0.16136 0.0
H512 H 0.27629 0.95046 0.0506 0.0
H513 H 0.33045 0.92866 0.19681 0.0
H514 H 0.30719 0.98759 0.12121 0.0
H515 H 0.30029 0.89332 0.12732 0.0
C516 C 0.28598 0.894 0.08708 0.0
C517 C 0.2791 0.90973 0.06498 0.0
C518 C 0.3121 0.97471 0.13788 0.0
C519 C 0.29734 0.93391 0.11204 0.0
C520 C 0.32365 0.98589 0.1608 0.0
C521 C 0.33082 0.96947 0.18236 0.0
C522 C 0.3078 0.94697 0.13657 0.0
C523 C 0.32534 0.94203 0.1806 0.0
C524 C 0.29502 0.90596 0.11058 0.0
C525 C 0.28149 0.93761 0.06719 0.0
N526 N 0.31431 0.93164 0.15807 0.0
N527 N 0.2905 0.94884 0.09032 0.0
H528 H 0.30918 0.35082 0.07251 0.0
H529 H 0.43597 0.26214 0.0396 0.0
H530 H 0.3157 0.30729 -0.00174 0.0
H531 H 0.40923 0.27668 0.12028 0.0
H532 H 0.39428 0.28171 0.0228 0.0
H533 H 0.34833 0.32706 0.08943 0.0
C534 C 0.31882 0.33616 0.05982 0.0
C535 C 0.30925 0.33096 0.03398 0.0
C536 C 0.39752 0.28039 0.04416 0.0
C537 C 0.35418 0.30403 0.05303 0.0
C538 C 0.42128 0.26933 0.05374 0.0
C539 C 0.42602 0.26786 0.08134 0.0
C540 C 0.3787 0.29047 0.06235 0.0
C541 C 0.40634 0.2774 0.09884 0.0
C542 C 0.34108 0.32257 0.0695 0.0
C543 C 0.32243 0.31177 0.01835 0.0
N544 N 0.38367 0.28856 0.08905 0.0
N545 N 0.34445 0.29916 0.02802 0.0
H546 H 0.9699 0.84198 0.12069 0.0
H547 H 0.93287 0.92216 0.2543 0.0
H548 H 0.97554 0.80813 0.19978 0.0
H549 H 0.91359 0.94984 0.17494 0.0
H550 H 0.95426 0.88279 0.23473 0.0
H551 H 0.95439 0.88394 0.14035 0.0
C552 C 0.96792 0.84341 0.14221 0.0
C553 C 0.97384 0.82151 0.15864 0.0
C554 C 0.94552 0.89758 0.22159 0.0
C555 C 0.95624 0.86949 0.18127 0.0
C556 C 0.93345 0.92012 0.23274 0.0
C557 C 0.92133 0.9392 0.2162 0.0
C558 C 0.94556 0.89417 0.19371 0.0
C559 C 0.9226 0.93554 0.18842 0.0
C560 C 0.95907 0.86736 0.15342 0.0
C561 C 0.97103 0.82449 0.18639 0.0
N562 N 0.93438 0.91339 0.17804 0.0
N563 N 0.96239 0.84803 0.19684 0.0
H564 H 0.17419 0.63105 0.56567 0.0
H565 H 0.06044 0.74184 0.55959 0.0
H566 H 0.17953 0.69846 0.51225 0.0
H567 H 0.07606 0.6938 0.62942 0.0
H568 H 0.10081 0.72344 0.53864 0.0
H569 H 0.13457 0.65082 0.58597 0.0
C570 C 0.16697 0.65002 0.55819 0.0
C571 C 0.18015 0.66318 0.5373 0.0
C572 C 0.09538 0.71706 0.55858 0.0
C573 C 0.13471 0.68583 0.56032 0.0
C574 C 0.07237 0.72746 0.57048 0.0
C575 C 0.06496 0.7193 0.59625 0.0
C576 C 0.11071 0.69809 0.57242 0.0
C577 C 0.08109 0.70068 0.60954 0.0
C578 C 0.14443 0.66134 0.56985 0.0
C579 C 0.16998 0.68774 0.52841 0.0
N580 N 0.10308 0.69057 0.59741 0.0
N581 N 0.1477 0.69825 0.53988 0.0
H582 H 0.95222 0.69842 0.7071 0.0
H583 H 0.93678 0.53943 0.69923 0.0
H584 H 0.97793 0.65136 0.63953 0.0
H585 H 0.8875 0.5887 0.74993 0.0
H586 H 0.95832 0.57981 0.68196 0.0
H587 H 0.93428 0.65773 0.72776 0.0
C588 C 0.95419 0.67951 0.6967 0.0
C589 C 0.96641 0.67822 0.67152 0.0
C590 C 0.94287 0.58175 0.69695 0.0
C591 C 0.94627 0.63177 0.69505 0.0
C592 C 0.93066 0.55874 0.70688 0.0
C593 C 0.91024 0.56078 0.7259 0.0
C594 C 0.9348 0.60695 0.70633 0.0
C595 C 0.90306 0.58629 0.73514 0.0
C596 C 0.94392 0.65636 0.70844 0.0
C597 C 0.96848 0.65325 0.65888 0.0
N598 N 0.91533 0.60841 0.72526 0.0
N599 N 0.95855 0.63099 0.67081 0.0
H600 H 0.18622 0.19551 0.48528 0.0
H601 H 0.06148 0.17788 0.38933 0.0
H602 H 0.16041 0.11854 0.45577 0.0
H603 H 0.06496 0.2421 0.44695 0.0
H604 H 0.10083 0.15786 0.41006 0.0
H605 H 0.14464 0.21521 0.46824 0.0
C606 C 0.17177 0.18278 0.47531 0.0
C607 C 0.17671 0.1554 0.47184 0.0
C608 C 0.0929 0.17625 0.41827 0.0
C609 C 0.12959 0.17773 0.45215 0.0
C610 C 0.07054 0.18773 0.4064 0.0
C611 C 0.06003 0.21165 0.41649 0.0
C612 C 0.10517 0.18905 0.44006 0.0
C613 C 0.07246 0.22357 0.43869 0.0
C614 C 0.14808 0.19398 0.46572 0.0
C615 C 0.15736 0.13974 0.45887 0.0
N616 N 0.09462 0.21227 0.44962 0.0
N617 N 0.13477 0.15118 0.44925 0.0
H618 H 0.54644 0.4486 0.19187 0.0
H619 H 0.54713 0.28917 0.1826 0.0
H620 H 0.60859 0.39958 0.22584 0.0
H621 H 0.50487 0.33859 0.12604 0.0
H622 H 0.56472 0.32952 0.20407 0.0
H623 H 0.52587 0.4083 0.1727 0.0
C624 C 0.55566 0.42935 0.19538 0.0
C625 C 0.57928 0.42736 0.21032 0.0
C626 C 0.55155 0.33152 0.187 0.0
C627 C 0.55585 0.38141 0.18877 0.0
C628 C 0.54144 0.30853 0.17481 0.0
C629 C 0.52465 0.3106 0.15246 0.0
C630 C 0.54455 0.35674 0.17695 0.0
C631 C 0.5179 0.33616 0.14316 0.0
C632 C 0.54398 0.40644 0.1844 0.0
C633 C 0.59045 0.40199 0.21429 0.0
N634 N 0.52785 0.35829 0.15548 0.0
N635 N 0.5786 0.37998 0.20364 0.0
H636 H 0.32539 0.8718 0.93755 0.0
H637 H 0.44177 0.76461 0.94975 0.0
H638 H 0.31978 0.80481 0.99147 0.0
H639 H 0.4264 0.80887 0.87741 0.0
H640 H 0.40051 0.78278 0.96898 0.0
H641 H 0.3662 0.85275 0.91884 0.0
C642 C 0.33281 0.8531 0.94549 0.0
C643 C 0.31922 0.83981 0.96604 0.0
C644 C 0.4062 0.7884 0.94888 0.0
C645 C 0.36596 0.81807 0.94489 0.0
C646 C 0.42973 0.77817 0.93796 0.0
C647 C 0.43743 0.78528 0.91198 0.0
C648 C 0.39064 0.80623 0.93386 0.0
C649 C 0.42112 0.80283 0.8975 0.0
C650 C 0.35601 0.8422 0.93473 0.0
C651 C 0.32965 0.8156 0.97555 0.0
N652 N 0.39858 0.81286 0.9087 0.0
N653 N 0.35256 0.80555 0.965 0.0
H654 H 0.87261 0.39716 0.76342 0.0
H655 H 0.00726 0.32977 0.81694 0.0
H656 H 0.94659 0.4403 0.77396 0.0
H657 H 0.93048 0.29048 0.8173 0.0
H658 H 0.98681 0.36856 0.79544 0.0
H659 H 0.8949 0.3562 0.77764 0.0
C660 C 0.89361 0.39798 0.76859 0.0
C661 C 0.90775 0.42219 0.7677 0.0
C662 C 0.97448 0.35137 0.80004 0.0
C663 C 0.9334 0.37537 0.78399 0.0
C664 C 0.98615 0.32919 0.81221 0.0
C665 C 0.97049 0.30696 0.81905 0.0
C666 C 0.94695 0.3513 0.79465 0.0
C667 C 0.94326 0.30726 0.81246 0.0
C668 C 0.90632 0.37458 0.77673 0.0
C669 C 0.93493 0.42207 0.77452 0.0
N670 N 0.93232 0.32915 0.80076 0.0
N671 N 0.94686 0.39903 0.78249 0.0
H672 H 0.34421 0.13881 0.49793 0.0
H673 H 0.39837 0.23842 0.60911 0.0
H674 H 0.29325 0.19355 0.54074 0.0
H675 H 0.44972 0.20594 0.54802 0.0
H676 H 0.35969 0.22025 0.58551 0.0
H677 H 0.38334 0.16147 0.51685 0.0
C678 C 0.34128 0.15574 0.51115 0.0
C679 C 0.31549 0.16427 0.51792 0.0
C680 C 0.37938 0.21723 0.57714 0.0
C681 C 0.36003 0.18998 0.53979 0.0
C682 C 0.40148 0.22748 0.59067 0.0
C683 C 0.42726 0.22354 0.58053 0.0
C684 C 0.38308 0.20256 0.5535 0.0
C685 C 0.43015 0.20937 0.55648 0.0
C686 C 0.36359 0.16867 0.52186 0.0
C687 C 0.31279 0.18632 0.53504 0.0
N688 N 0.4083 0.19913 0.54388 0.0
N689 N 0.33479 0.19824 0.54563 0.0
H690 H 0.53872 0.69924 0.29615 0.0
H691 H 0.55145 0.54029 0.29683 0.0
H692 H 0.51831 0.65117 0.36469 0.0
H693 H 0.60126 0.59066 0.24778 0.0
H694 H 0.53202 0.58039 0.31719 0.0
H695 H 0.55505 0.65897 0.27346 0.0
C696 C 0.53759 0.68019 0.30636 0.0
C697 C 0.52731 0.67846 0.33235 0.0
C698 C 0.54713 0.5826 0.30189 0.0
C699 C 0.54555 0.63251 0.30649 0.0
C700 C 0.5581 0.55979 0.29019 0.0
C701 C 0.57804 0.56224 0.27071 0.0
C702 C 0.55589 0.60797 0.29371 0.0
C703 C 0.58602 0.58794 0.26285 0.0
C704 C 0.54695 0.65729 0.29345 0.0
C705 C 0.52628 0.65334 0.34471 0.0
N706 N 0.57487 0.60986 0.27435 0.0
N707 N 0.5352 0.63129 0.33161 0.0
H708 H 0.08403 0.79539 0.12415 0.0
H709 H 0.1819 0.80004 -0.00104 0.0
H710 H 0.06343 0.75614 0.04998 0.0
H711 H 0.17716 0.86239 0.05851 0.0
H712 H 0.1431 0.77803 0.01973 0.0
H713 H 0.12366 0.814 0.10292 0.0
C714 C 0.08795 0.79055 0.10341 0.0
C715 C 0.07036 0.77434 0.08873 0.0
C716 C 0.15064 0.79654 0.02812 0.0
C717 C 0.11576 0.79555 0.06434 0.0
C718 C 0.17273 0.80903 0.01638 0.0
C719 C 0.18262 0.83307 0.02703 0.0
C720 C 0.13891 0.80799 0.0509 0.0
C721 C 0.17007 0.84395 0.04958 0.0
C722 C 0.11051 0.80127 0.09129 0.0
C723 C 0.07645 0.7687 0.06191 0.0
N724 N 0.149 0.83125 0.06085 0.0
N725 N 0.09875 0.77929 0.05051 0.0
H726 H 0.68001 0.88978 0.56642 0.0
H727 H 0.69851 -0.00176 0.68186 0.0
H728 H 0.74503 0.94648 0.56624 0.0
H729 H 0.62363 0.95887 0.66482 0.0
H730 H 0.71748 0.97797 0.64139 0.0
H731 H 0.6605 0.91315 0.60453 0.0
C732 C 0.69014 0.90722 0.57439 0.0
C733 C 0.71416 0.91622 0.5632 0.0
C734 C 0.69686 0.97395 0.64647 0.0
C735 C 0.69207 0.94296 0.60698 0.0
C736 C 0.68606 0.98544 0.66954 0.0
C737 C 0.65949 0.98016 0.67669 0.0
C738 C 0.68105 0.95681 0.63073 0.0
C739 C 0.6442 0.96348 0.66005 0.0
C740 C 0.67896 0.9206 0.59609 0.0
C741 C 0.72643 0.93896 0.57427 0.0
N742 N 0.65525 0.95225 0.63798 0.0
N743 N 0.71534 0.95146 0.59573 0.0
H744 H 0.80962 0.00077 0.3246 0.0
H745 H 0.79975 0.8717 0.41846 0.0
H746 H 0.83991 0.92297 0.30304 0.0
H747 H 0.76457 0.94769 0.43896 0.0
H748 H 0.81439 0.89042 0.37594 0.0
H749 H 0.79184 0.98179 0.36602 0.0
C750 C 0.81223 0.97963 0.32843 0.0
C751 C 0.82631 0.96342 0.31041 0.0
C752 C 0.80348 0.90305 0.3897 0.0
C753 C 0.80638 0.94167 0.35783 0.0
C754 C 0.79521 0.8924 0.41405 0.0
C755 C 0.78099 0.9082 0.43228 0.0
C756 C 0.79755 0.92976 0.38349 0.0
C757 C 0.77557 0.93485 0.42548 0.0
C758 C 0.80219 0.96883 0.35212 0.0
C759 C 0.82922 0.9362 0.31639 0.0
N760 N 0.78388 0.94482 0.40161 0.0
N761 N 0.81949 0.92623 0.33966 0.0
H762 H 0.77618 0.12547 0.09432 0.0
H763 H 0.81378 0.99015 0.17064 0.0
H764 H 0.77159 0.04757 0.05733 0.0
H765 H 0.82519 0.06923 0.20339 0.0
H766 H 0.79281 0.01003 0.13109 0.0
H767 H 0.78892 0.10443 0.13634 0.0
C768 C 0.77776 0.10389 0.09508 0.0
C769 C 0.77305 0.08824 0.07225 0.0
C770 C 0.79967 0.02299 0.14706 0.0
C771 C 0.7877 0.06396 0.12038 0.0
C772 C 0.81152 0.01166 0.16967 0.0
C773 C 0.82139 0.02811 0.1902 0.0
C774 C 0.79766 0.05093 0.14507 0.0
C775 C 0.81801 0.05583 0.18794 0.0
C776 C 0.78502 0.09187 0.11911 0.0
C777 C 0.7752 0.06037 0.07444 0.0
N778 N 0.80659 0.06636 0.16571 0.0
N779 N 0.78254 0.0491 0.09807 0.0
H780 H 0.6983 0.00416 0.81588 0.0
H781 H 0.71777 0.13043 0.91171 0.0
H782 H 0.64636 0.07288 0.81594 0.0
H783 H 0.74429 0.05181 0.93505 0.0
H784 H 0.69866 0.11136 0.87103 0.0
H785 H 0.72207 0.02303 0.85478 0.0
C786 C 0.69203 0.02323 0.82399 0.0
C787 C 0.67032 0.03698 0.81283 0.0
C788 C 0.70875 0.09828 0.885 0.0
C789 C 0.69742 0.05864 0.85669 0.0
C790 C 0.71977 0.10915 0.90816 0.0
C791 C 0.73247 0.09262 0.92685 0.0
C792 C 0.71066 0.0707 0.88027 0.0
C793 C 0.73449 0.06519 0.92119 0.0
C794 C 0.70549 0.03389 0.84615 0.0
C795 C 0.6629 0.06156 0.82405 0.0
N796 N 0.72366 0.05502 0.89833 0.0
N797 N 0.67649 0.07165 0.84526 0.0
H798 H 0.6007 0.73051 0.87962 0.0
H799 H 0.66542 0.66651 0.01024 0.0
H800 H 0.56068 0.72962 0.95593 0.0
H801 H 0.70981 0.68316 0.9383 0.0
H802 H 0.62702 0.6901 0.99132 0.0
H803 H 0.64096 0.71343 0.9011 0.0
C804 C 0.60044 0.7268 0.90095 0.0
C805 C 0.57731 0.73134 0.91602 0.0
C806 C 0.64525 0.68883 0.9798 0.0
C807 C 0.62331 0.71164 0.94075 0.0
C808 C 0.66717 0.67538 0.99058 0.0
C809 C 0.69077 0.67277 0.97573 0.0
C810 C 0.64689 0.69948 0.95389 0.0
C811 C 0.69198 0.68465 0.95039 0.0
C812 C 0.62347 0.71713 0.91323 0.0
C813 C 0.57811 0.72633 0.94359 0.0
N814 N 0.67026 0.69726 0.94017 0.0
N815 N 0.60069 0.71652 0.95506 0.0
H816 H 0.12236 0.09632 0.7569 0.0
H817 H 0.9918 0.16432 0.81882 0.0
H818 H 0.04952 0.05317 0.77318 0.0
H819 H 0.06804 0.20406 0.8122 0.0
H820 H 0.01063 0.12519 0.79635 0.0
H821 H 0.10085 0.13756 0.77155 0.0
C822 C 0.10176 0.09556 0.76341 0.0
C823 C 0.08775 0.07127 0.76404 0.0
C824 C 0.02317 0.14255 0.79962 0.0
C825 C 0.06299 0.11841 0.78086 0.0
C826 C 0.01241 0.16492 0.81235 0.0
C827 C 0.02846 0.18736 0.81754 0.0
C828 C 0.05015 0.14266 0.79202 0.0
C829 C 0.05502 0.1871 0.80871 0.0
C830 C 0.0895 0.11912 0.77179 0.0
C831 C 0.06108 0.07146 0.77255 0.0
N832 N 0.06508 0.16503 0.79654 0.0
N833 N 0.04959 0.09467 0.78076 0.0
H834 H 0.92796 0.25451 0.44941 0.0
H835 H 0.82084 0.37212 0.44088 0.0
H836 H 0.92168 0.30888 0.38284 0.0
H837 H 0.80921 0.30329 0.49143 0.0
H838 H 0.8613 0.35175 0.42314 0.0
H839 H 0.88763 0.27459 0.46883 0.0
C840 C 0.91815 0.2707 0.43895 0.0
C841 C 0.92811 0.28007 0.4145 0.0
C842 C 0.84991 0.34105 0.43809 0.0
C843 C 0.88235 0.3031 0.43655 0.0
C844 C 0.82685 0.35271 0.44829 0.0
C845 C 0.81164 0.33932 0.4676 0.0
C846 C 0.85806 0.31593 0.44745 0.0
C847 C 0.82035 0.3142 0.47646 0.0
C848 C 0.89514 0.28204 0.44996 0.0
C849 C 0.91464 0.30101 0.4017 0.0
N850 N 0.84311 0.3033 0.46638 0.0
N851 N 0.89254 0.31188 0.41293 0.0
H852 H 0.56157 0.96354 0.80695 0.0
H853 H 0.54679 0.8047 0.80338 0.0
H854 H 0.61215 0.91281 0.75906 0.0
H855 H 0.52454 0.85166 0.87225 0.0
H856 H 0.56434 0.84521 0.78222 0.0
H857 H 0.54125 0.92347 0.82672 0.0
C858 C 0.56828 0.94398 0.80053 0.0
C859 C 0.58862 0.94141 0.78147 0.0
C860 C 0.55556 0.84661 0.80194 0.0
C861 C 0.56537 0.89577 0.80364 0.0
C862 C 0.54548 0.82357 0.81397 0.0
C863 C 0.53435 0.82488 0.83963 0.0
C864 C 0.55409 0.87116 0.81551 0.0
C865 C 0.53314 0.8498 0.8525 0.0
C866 C 0.55677 0.9212 0.81185 0.0
C867 C 0.59663 0.91565 0.77383 0.0
N868 N 0.54282 0.87203 0.84026 0.0
N869 N 0.5849 0.89381 0.78486 0.0
H870 H 0.97946 0.1891 0.2994 0.0
H871 H 0.90977 0.04687 0.32323 0.0
H872 H 0.94967 0.16163 0.37546 0.0
H873 H 0.92879 0.07678 0.24466 0.0
H874 H 0.92881 0.08726 0.34285 0.0
H875 H 0.96456 0.14696 0.27896 0.0
C876 C 0.96974 0.17424 0.31176 0.0
C877 C 0.96568 0.17888 0.33913 0.0
C878 C 0.92897 0.085 0.32132 0.0
C879 C 0.9489 0.1307 0.31604 0.0
C880 C 0.9182 0.06186 0.3101 0.0
C881 C 0.91758 0.05855 0.28228 0.0
C882 C 0.93918 0.10509 0.30461 0.0
C883 C 0.92885 0.07859 0.26624 0.0
C884 C 0.9613 0.15021 0.30012 0.0
C885 C 0.9531 0.15895 0.35426 0.0
N886 N 0.93907 0.10114 0.27763 0.0
N887 N 0.9452 0.13577 0.34253 0.0
H888 H 0.54655 0.05651 0.71801 0.0
H889 H 0.5609 0.2109 0.6778 0.0
H890 H 0.62119 0.09973 0.71824 0.0
H891 H 0.48935 0.16469 0.66387 0.0
H892 H 0.58183 0.1715 0.69761 0.0
H893 H 0.52388 0.09699 0.70241 0.0
C894 C 0.55814 0.07451 0.71478 0.0
C895 C 0.58579 0.07476 0.71928 0.0
C896 C 0.5615 0.17 0.69035 0.0
C897 C 0.56005 0.12109 0.70169 0.0
C898 C 0.54951 0.19252 0.67916 0.0
C899 C 0.52341 0.19101 0.66908 0.0
C900 C 0.54726 0.1458 0.69154 0.0
C901 C 0.50956 0.16669 0.67133 0.0
C902 C 0.54522 0.09759 0.70591 0.0
C903 C 0.59986 0.09862 0.71488 0.0
N904 N 0.52169 0.145 0.68223 0.0
N905 N 0.58684 0.12081 0.70635 0.0
H906 H 0.16207 0.37601 0.95527 0.0
H907 H 0.083 0.24088 0.92283 0.0
H908 H 0.18978 0.29846 0.98065 0.0
H909 H 0.04974 0.31967 0.91222 0.0
H910 H 0.1226 0.26109 0.94348 0.0
H911 H 0.12138 0.35527 0.93805 0.0
C912 C 0.1596 0.35457 0.95716 0.0
C913 C 0.17934 0.3389 0.96934 0.0
C914 C 0.10654 0.27392 0.93681 0.0
C915 C 0.13274 0.315 0.94971 0.0
C916 C 0.08393 0.26241 0.92508 0.0
C917 C 0.06311 0.27865 0.91575 0.0
C918 C 0.1084 0.30187 0.93898 0.0
C919 C 0.06534 0.30641 0.91913 0.0
C920 C 0.1363 0.34275 0.94743 0.0
C921 C 0.17505 0.31125 0.97135 0.0
N922 N 0.08766 0.31714 0.93028 0.0
N923 N 0.15223 0.30014 0.96154 0.0
H924 H 0.41822 0.69429 0.37376 0.0
H925 H 0.3157 0.69996 0.49579 0.0
H926 H 0.43422 0.74035 0.44508 0.0
H927 H 0.31808 0.63569 0.43818 0.0
H928 H 0.35552 0.71957 0.47477 0.0
H929 H 0.37751 0.67717 0.39439 0.0
C930 C 0.41311 0.70086 0.39376 0.0
C931 C 0.42965 0.71866 0.40781 0.0
C932 C 0.34724 0.70119 0.46679 0.0
C933 C 0.383 0.69926 0.43146 0.0
C934 C 0.32453 0.69008 0.47867 0.0
C935 C 0.31369 0.66616 0.46872 0.0
C936 C 0.35882 0.68845 0.44461 0.0
C937 C 0.32588 0.6541 0.44656 0.0
C938 C 0.38992 0.69102 0.40554 0.0
C939 C 0.42206 0.72652 0.43365 0.0
N940 N 0.34771 0.66541 0.4352 0.0
N941 N 0.39919 0.71681 0.44467 0.0
H942 H 0.79316 0.52944 0.80044 0.0
H943 H 0.81101 0.55732 0.95721 0.0
H944 H 0.86262 0.50586 0.84571 0.0
H945 H 0.74331 0.58405 0.91105 0.0
H946 H 0.82831 0.53464 0.9175 0.0
H947 H 0.77275 0.54607 0.8416 0.0
C948 C 0.80405 0.52764 0.81908 0.0
C949 C 0.82967 0.51641 0.81967 0.0
C950 C 0.80958 0.5453 0.9161 0.0
C951 C 0.8065 0.53543 0.86682 0.0
C952 C 0.79966 0.55819 0.93878 0.0
C953 C 0.77578 0.5727 0.93735 0.0
C954 C 0.79551 0.54699 0.89182 0.0
C955 C 0.76187 0.57317 0.91299 0.0
C956 C 0.7924 0.53714 0.84257 0.0
C957 C 0.84286 0.5145 0.84436 0.0
N958 N 0.77202 0.56065 0.89114 0.0
N959 N 0.83118 0.52403 0.86694 0.0
H960 H 0.62446 0.5138 0.14714 0.0
H961 H 0.75774 0.57707 0.08732 0.0
H962 H 0.69811 0.51888 0.19177 0.0
H963 H 0.68722 0.56056 0.04037 0.0
H964 H 0.73729 0.55403 0.12526 0.0
H965 H 0.64789 0.5293 0.10738 0.0
C966 C 0.64563 0.51808 0.14853 0.0
C967 C 0.65935 0.51525 0.17281 0.0
C968 C 0.72641 0.5552 0.10658 0.0
C969 C 0.68632 0.53316 0.12736 0.0
C970 C 0.73807 0.56833 0.08492 0.0
C971 C 0.72405 0.57087 0.06075 0.0
C972 C 0.70047 0.54476 0.10408 0.0
C973 C 0.69868 0.55915 0.05869 0.0
C974 C 0.65902 0.52686 0.12578 0.0
C975 C 0.68679 0.52089 0.17343 0.0
N976 N 0.68761 0.54683 0.08015 0.0
N977 N 0.69935 0.52982 0.15107 0.0
H978 H 0.6885 0.37424 0.41563 0.0
H979 H 0.68705 0.49444 0.3116 0.0
H980 H 0.72936 0.44853 0.432 0.0
H981 H 0.62408 0.43571 0.31707 0.0
H982 H 0.70735 0.47562 0.35222 0.0
H983 H 0.66926 0.39408 0.37543 0.0
C984 C 0.69347 0.39473 0.4107 0.0
C985 C 0.71047 0.40982 0.42714 0.0
C986 C 0.68905 0.46698 0.34448 0.0
C987 C 0.6887 0.43255 0.3811 0.0
C988 C 0.67755 0.47761 0.32133 0.0
C989 C 0.65388 0.46659 0.31104 0.0
C990 C 0.67699 0.44495 0.35699 0.0
C991 C 0.6423 0.44486 0.32438 0.0
C992 C 0.68241 0.40606 0.38783 0.0
C993 C 0.71622 0.43629 0.41986 0.0
N994 N 0.65406 0.43464 0.34655 0.0
N995 N 0.70545 0.44684 0.39723 0.0
H996 H 0.8457 0.49759 0.65393 0.0
H997 H 0.75788 0.38109 0.59142 0.0
H998 H 0.79766 0.44465 0.70203 0.0
H999 H 0.78057 0.45063 0.54586 0.0
H1000 H 0.77454 0.40285 0.63196 0.0
H1001 H 0.82399 0.47982 0.61371 0.0
C1002 C 0.83041 0.4824 0.65602 0.0
C1003 C 0.8235 0.47247 0.68129 0.0
C1004 C 0.77571 0.41343 0.61313 0.0
C1005 C 0.79894 0.45187 0.63548 0.0
C1006 C 0.76633 0.40098 0.58999 0.0
C1007 C 0.76797 0.41408 0.56529 0.0
C1008 C 0.78721 0.43899 0.6115 0.0
C1009 C 0.77896 0.43988 0.56455 0.0
C1010 C 0.81802 0.47232 0.63309 0.0
C1011 C 0.80356 0.45284 0.68291 0.0
N1012 N 0.78844 0.45142 0.58732 0.0
N1013 N 0.79218 0.44294 0.66028 0.0
H1014 H 0.43984 0.03585 0.18003 0.0
H1015 H 0.47683 0.19111 0.19326 0.0
H1016 H 0.4235 0.08365 0.25002 0.0
H1017 H 0.48476 0.14583 0.12018 0.0
H1018 H 0.46303 0.15033 0.21633 0.0
H1019 H 0.46243 0.07426 0.15987 0.0
C1020 C 0.44132 0.05432 0.19128 0.0
C1021 C 0.42959 0.05668 0.21661 0.0
C1022 C 0.46795 0.14927 0.19529 0.0
C1023 C 0.45518 0.10067 0.19367 0.0
C1024 C 0.47583 0.17254 0.18212 0.0
C1025 C 0.48169 0.17185 0.15473 0.0
C1026 C 0.46592 0.12516 0.18095 0.0
C1027 C 0.48021 0.14725 0.14128 0.0
C1028 C 0.45412 0.07626 0.17974 0.0
C1029 C 0.43211 0.08104 0.23035 0.0
N1030 N 0.47232 0.1249 0.15449 0.0
N1031 N 0.44445 0.10215 0.21862 0.0
H1032 H 0.03702 0.79668 0.7072 0.0
H1033 H 0.05949 0.95444 0.6917 0.0
H1034 H 0.01597 0.84103 0.63635 0.0
H1035 H 0.09968 0.90681 0.75122 0.0
H1036 H 0.03752 0.914 0.67485 0.0
H1037 H 0.05467 0.83791 0.72717 0.0
C1038 C 0.03603 0.8151 0.69591 0.0
C1039 C 0.02518 0.81546 0.67005 0.0
C1040 C 0.05105 0.91244 0.69169 0.0
C1041 C 0.04507 0.86257 0.69275 0.0
C1042 C 0.06348 0.93551 0.70137 0.0
C1043 C 0.08152 0.9339 0.72277 0.0
C1044 C 0.05655 0.88765 0.70363 0.0
C1045 C 0.08601 0.90888 0.73457 0.0
C1046 C 0.04612 0.83858 0.70727 0.0
C1047 C 0.02434 0.83985 0.65628 0.0
N1048 N 0.07365 0.8867 0.72481 0.0
N1049 N 0.03414 0.86244 0.66781 0.0
H1050 H 0.48731 0.80716 0.29693 0.0
H1051 H 0.38707 0.92946 0.31165 0.0
H1052 H 0.44906 0.82854 0.37118 0.0
H1053 H 0.44606 0.92655 0.24895 0.0
H1054 H 0.40669 0.88962 0.33151 0.0
H1055 H 0.46956 0.84812 0.27665 0.0
C1056 C 0.47515 0.82045 0.30892 0.0
C1057 C 0.46956 0.81449 0.33573 0.0
C1058 C 0.41545 0.89772 0.31347 0.0
C1059 C 0.44921 0.86103 0.31273 0.0
C1060 C 0.40421 0.92041 0.30207 0.0
C1061 C 0.41499 0.93126 0.27864 0.0
C1062 C 0.43742 0.88551 0.30117 0.0
C1063 C 0.43724 0.91879 0.2671 0.0
C1064 C 0.46517 0.84382 0.29739 0.0
C1065 C 0.45384 0.83239 0.35044 0.0
N1066 N 0.44767 0.89638 0.2784 0.0
N1067 N 0.44409 0.85476 0.3387 0.0
H1068 H 0.83968 0.6629 0.99307 0.0
H1069 H 0.90489 0.72877 0.12336 0.0
H1070 H 0.79544 0.68042 0.06493 0.0
H1071 H 0.94649 0.72113 0.04827 0.0
H1072 H 0.86425 0.71222 0.10187 0.0
H1073 H 0.87861 0.68546 0.01229 0.0
C1074 C 0.8381 0.67171 0.01281 0.0
C1075 C 0.81437 0.66968 0.02751 0.0
C1076 C 0.88221 0.7143 0.09002 0.0
C1077 C 0.85886 0.6953 0.04971 0.0
C1078 C 0.90543 0.7237 0.1023 0.0
C1079 C 0.92911 0.72616 0.08759 0.0
C1080 C 0.8827 0.70711 0.06286 0.0
C1081 C 0.92866 0.71944 0.06035 0.0
C1082 C 0.86033 0.68458 0.02377 0.0
C1083 C 0.81339 0.68148 0.05295 0.0
N1084 N 0.90586 0.71004 0.0489 0.0
N1085 N 0.83539 0.6936 0.06333 0.0
H1086 H 0.54033 0.32559 0.57972 0.0
H1087 H 0.68387 0.29852 0.51484 0.0
H1088 H 0.57232 0.24647 0.56758 0.0
H1089 H 0.6518 0.377 0.53052 0.0
H1090 H 0.64214 0.27873 0.53108 0.0
H1091 H 0.57975 0.34446 0.55828 0.0
C1092 C 0.55558 0.31216 0.57231 0.0
C1093 C 0.55313 0.28443 0.57554 0.0
C1094 C 0.64422 0.30028 0.53087 0.0
C1095 C 0.59852 0.30591 0.55116 0.0
C1096 C 0.66802 0.31157 0.52163 0.0
C1097 C 0.67132 0.33943 0.52148 0.0
C1098 C 0.62362 0.317 0.53997 0.0
C1099 C 0.65015 0.35542 0.53041 0.0
C1100 C 0.57814 0.32295 0.56012 0.0
C1101 C 0.57347 0.26798 0.56552 0.0
N1102 N 0.62726 0.34398 0.53934 0.0
N1103 N 0.59543 0.27898 0.55392 0.0
H1104 H 0.24349 0.44599 0.07169 0.0
H1105 H 0.12407 0.44191 0.17741 0.0
H1106 H 0.18384 0.38372 0.07492 0.0
H1107 H 0.19344 0.49204 0.18857 0.0
H1108 H 0.14423 0.4233 0.13725 0.0
H1109 H 0.22408 0.46604 0.11211 0.0
C1110 C 0.22631 0.4366 0.08086 0.0
C1111 C 0.21524 0.41318 0.06998 0.0
C1112 C 0.15513 0.43833 0.14846 0.0
C1113 C 0.19298 0.43595 0.11592 0.0
C1114 C 0.14359 0.44902 0.17138 0.0
C1115 C 0.15714 0.46851 0.18637 0.0
C1116 C 0.18037 0.4473 0.14021 0.0
C1117 C 0.18239 0.47696 0.1776 0.0
C1118 C 0.21532 0.44798 0.10393 0.0
C1119 C 0.19304 0.40176 0.08265 0.0
N1120 N 0.1932 0.46635 0.15499 0.0
N1121 N 0.18262 0.4133 0.10486 0.0
H1122 H 0.37666 0.45351 0.8366 0.0
H1123 H 0.25103 0.44687 0.93459 0.0
H1124 H 0.30127 0.49032 0.81711 0.0
H1125 H 0.31651 0.39101 0.93707 0.0
H1126 H 0.27105 0.4677 0.89492 0.0
H1127 H 0.35672 0.43496 0.877 0.0
C1128 C 0.35588 0.45771 0.84085 0.0
C1129 C 0.34055 0.47339 0.82345 0.0
C1130 C 0.281 0.45091 0.90423 0.0
C1131 C 0.31765 0.45237 0.8698 0.0
C1132 C 0.26969 0.43914 0.9269 0.0
C1133 C 0.28215 0.41719 0.93905 0.0
C1134 C 0.30507 0.44084 0.89398 0.0
C1135 C 0.30621 0.40785 0.92826 0.0
C1136 C 0.34451 0.44707 0.86389 0.0
C1137 C 0.31373 0.4782 0.82996 0.0
N1138 N 0.31691 0.41976 0.90639 0.0
N1139 N 0.30311 0.46779 0.85272 0.0
H1140 H 0.26944 0.6252 0.59803 0.0
H1141 H 0.36648 0.51701 0.65964 0.0
H1142 H 0.29573 0.55722 0.55192 0.0
H1143 H 0.30772 0.55739 0.70795 0.0
H1144 H 0.34554 0.53549 0.61942 0.0
H1145 H 0.28818 0.60467 0.63831 0.0
C1146 C 0.27922 0.60597 0.5964 0.0
C1147 C 0.28111 0.59285 0.57166 0.0
C1148 C 0.33719 0.54018 0.63883 0.0
C1149 C 0.30277 0.56952 0.61748 0.0
C1150 C 0.34916 0.52978 0.66175 0.0
C1151 C 0.33879 0.53575 0.6871 0.0
C1152 C 0.31508 0.55715 0.64133 0.0
C1153 C 0.31626 0.55227 0.68874 0.0
C1154 C 0.28975 0.59424 0.61938 0.0
C1155 C 0.29383 0.56792 0.57065 0.0
N1156 N 0.3053 0.56266 0.66615 0.0
N1157 N 0.30446 0.55715 0.59324 0.0
H1158 H 0.19148 0.50699 0.32211 0.0
H1159 H 0.18396 0.62261 0.43135 0.0
H1160 H 0.12219 0.55704 0.33252 0.0
H1161 H 0.23517 0.55407 0.44122 0.0
H1162 H 0.16405 0.60143 0.39198 0.0
H1163 H 0.21096 0.52656 0.3628 0.0
C1164 C 0.1804 0.52209 0.33295 0.0
C1165 C 0.15521 0.53044 0.32398 0.0
C1166 C 0.17955 0.59096 0.40282 0.0
C1167 C 0.17738 0.55296 0.37018 0.0
C1168 C 0.19097 0.60305 0.42524 0.0
C1169 C 0.2112 0.59002 0.43955 0.0
C1170 C 0.18873 0.56584 0.39436 0.0
C1171 C 0.21952 0.56471 0.43078 0.0
C1172 C 0.19146 0.53314 0.35617 0.0
C1173 C 0.14165 0.54999 0.33878 0.0
N1174 N 0.20839 0.55349 0.40858 0.0
N1175 N 0.15298 0.56072 0.36104 0.0
loop_
_geom_bond_atom_site_label_1
_geom_bond_atom_site_label_2
_geom_bond_distance
_geom_bond_site_symmetry_2
_ccdc_geom_bond_type
In0 O1 2.294 . S
In0 O2 2.326 . S
In0 O6 2.266 1_455 S
In0 O7 2.326 1_455 S
In0 O8 2.266 1_455 S
In0 O9 2.326 1_455 S
In0 O11 2.294 . S
In0 O12 2.326 . S
O1 In0 2.294 . S
O1 C10 1.240 . S
O2 In0 2.326 . S
O2 C10 1.252 . S
C3 O6 1.252 . S
C3 O7 1.260 . S
C4 O11 1.240 . S
C4 O12 1.252 . S
C5 O8 1.252 . S
C5 O9 1.260 . S
O6 In0 2.266 1_655 S
O6 C3 1.252 . S
O7 In0 2.326 1_655 S
O7 C3 1.260 . S
O8 In0 2.266 1_655 S
O8 C5 1.252 . S
O9 In0 2.326 1_655 S
O9 C5 1.260 . S
C10 O1 1.240 . S
C10 O2 1.252 . S
O11 In0 2.294 . S
O11 C4 1.240 . S
O12 In0 2.326 . S
O12 C4 1.252 . S
In13 O14 2.294 . S
In13 O15 2.326 . S
In13 O19 2.266 1_455 S
In13 O20 2.326 1_455 S
In13 O21 2.266 . S
In13 O22 2.326 . S
In13 O24 2.294 1_455 S
In13 O25 2.326 1_455 S
O14 In13 2.294 . S
O14 C23 1.240 . S
O15 In13 2.326 . S
O15 C23 1.252 . S
C16 O19 1.252 . S
C16 O20 1.260 . S
C17 O24 1.240 . S
C17 O25 1.252 . S
C18 O21 1.252 . S
C18 O22 1.260 . S
O19 In13 2.266 1_655 S
O19 C16 1.252 . S
O20 In13 2.326 1_655 S
O20 C16 1.260 . S
O21 In13 2.266 . S
O21 C18 1.252 . S
O22 In13 2.326 . S
O22 C18 1.260 . S
C23 O14 1.240 . S
C23 O15 1.252 . S
O24 In13 2.294 1_655 S
O24 C17 1.240 . S
O25 In13 2.326 1_655 S
O25 C17 1.252 . S
In26 O27 2.294 . S
In26 O28 2.326 . S
In26 O32 2.266 . S
In26 O33 2.326 . S
In26 O34 2.266 . S
In26 O35 2.326 . S
In26 O37 2.294 . S
In26 O38 2.326 . S
O27 In26 2.294 . S
O27 C36 1.240 . S
O28 In26 2.326 . S
O28 C36 1.252 . S
C29 O32 1.252 . S
C29 O33 1.260 . S
C30 O37 1.240 . S
C30 O38 1.252 . S
C31 O34 1.252 . S
C31 O35 1.260 . S
O32 In26 2.266 . S
O32 C29 1.252 . S
O33 In26 2.326 . S
O33 C29 1.260 . S
O34 In26 2.266 . S
O34 C31 1.252 . S
O35 In26 2.326 . S
O35 C31 1.260 . S
C36 O27 1.240 . S
C36 O28 1.252 . S
O37 In26 2.294 . S
O37 C30 1.240 . S
O38 In26 2.326 . S
O38 C30 1.252 . S
In39 O40 2.294 . S
In39 O41 2.326 . S
In39 O45 2.266 . S
In39 O46 2.326 . S
In39 O47 2.266 . S
In39 O48 2.326 . S
In39 O50 2.294 . S
In39 O51 2.326 . S
O40 In39 2.294 . S
O40 C49 1.240 . S
O41 In39 2.326 . S
O41 C49 1.252 . S
C42 O45 1.252 . S
C42 O46 1.260 . S
C43 O50 1.240 . S
C43 O51 1.252 . S
C44 O47 1.252 . S
C44 O48 1.260 . S
O45 In39 2.266 . S
O45 C42 1.252 . S
O46 In39 2.326 . S
O46 C42 1.260 . S
O47 In39 2.266 . S
O47 C44 1.252 . S
O48 In39 2.326 . S
O48 C44 1.260 . S
C49 O40 1.240 . S
C49 O41 1.252 . S
O50 In39 2.294 . S
O50 C43 1.240 . S
O51 In39 2.326 . S
O51 C43 1.252 . S
In52 O53 2.294 . S
In52 O54 2.326 . S
In52 O58 2.266 1_455 S
In52 O59 2.326 1_455 S
In52 O60 2.266 1_455 S
In52 O61 2.326 1_455 S
In52 O63 2.294 . S
In52 O64 2.326 . S
O53 In52 2.294 . S
O53 C62 1.240 . S
O54 In52 2.326 . S
O54 C62 1.252 . S
C55 O58 1.252 . S
C55 O59 1.260 . S
C56 O63 1.240 . S
C56 O64 1.252 . S
C57 O60 1.252 . S
C57 O61 1.260 . S
O58 In52 2.266 1_655 S
O58 C55 1.252 . S
O59 In52 2.326 1_655 S
O59 C55 1.260 . S
O60 In52 2.266 1_655 S
O60 C57 1.252 . S
O61 In52 2.326 1_655 S
O61 C57 1.260 . S
C62 O53 1.240 . S
C62 O54 1.252 . S
O63 In52 2.294 . S
O63 C56 1.240 . S
O64 In52 2.326 . S
O64 C56 1.252 . S
In65 O66 2.294 . S
In65 O67 2.326 . S
In65 O71 2.266 . S
In65 O72 2.326 . S
In65 O73 2.266 . S
In65 O74 2.326 . S
In65 O76 2.294 . S
In65 O77 2.326 . S
O66 In65 2.294 . S
O66 C75 1.240 . S
O67 In65 2.326 . S
O67 C75 1.252 . S
C68 O71 1.252 . S
C68 O72 1.260 . S
C69 O76 1.240 . S
C69 O77 1.252 . S
C70 O73 1.252 . S
C70 O74 1.260 . S
O71 In65 2.266 . S
O71 C68 1.252 . S
O72 In65 2.326 . S
O72 C68 1.260 . S
O73 In65 2.266 . S
O73 C70 1.252 . S
O74 In65 2.326 . S
O74 C70 1.260 . S
C75 O66 1.240 . S
C75 O67 1.252 . S
O76 In65 2.294 . S
O76 C69 1.240 . S
O77 In65 2.326 . S
O77 C69 1.252 . S
In78 O79 2.294 . S
In78 O80 2.326 . S
In78 O84 2.266 . S
In78 O85 2.326 . S
In78 O86 2.266 . S
In78 O87 2.326 . S
In78 O89 2.294 . S
In78 O90 2.326 . S
O79 In78 2.294 . S
O79 C88 1.240 . S
O80 In78 2.326 . S
O80 C88 1.252 . S
C81 O84 1.252 . S
C81 O85 1.260 . S
C82 O89 1.240 . S
C82 O90 1.252 . S
C83 O86 1.252 . S
C83 O87 1.260 . S
O84 In78 2.266 . S
O84 C81 1.252 . S
O85 In78 2.326 . S
O85 C81 1.260 . S
O86 In78 2.266 . S
O86 C83 1.252 . S
O87 In78 2.326 . S
O87 C83 1.260 . S
C88 O79 1.240 . S
C88 O80 1.252 . S
O89 In78 2.294 . S
O89 C82 1.240 . S
O90 In78 2.326 . S
O90 C82 1.252 . S
In91 O92 2.278 1_455 S
In91 O93 2.300 1_455 S
In91 O97 2.282 . S
In91 O98 2.352 . S
In91 O99 2.261 1_455 S
In91 O100 2.314 1_455 S
In91 O102 2.300 . S
In91 O103 2.338 . S
O92 In91 2.278 1_655 S
O92 C101 1.240 . S
O93 In91 2.300 1_655 S
O93 C101 1.252 . S
C94 O97 1.252 . S
C94 O98 1.260 . S
C95 O102 1.240 . S
C95 O103 1.252 . S
C96 O99 1.252 . S
C96 O100 1.260 . S
O97 In91 2.282 . S
O97 C94 1.252 . S
O98 In91 2.352 . S
O98 C94 1.260 . S
O99 In91 2.261 1_655 S
O99 C96 1.252 . S
O100 In91 2.314 1_655 S
O100 C96 1.260 . S
C101 O92 1.240 . S
C101 O93 1.252 . S
O102 In91 2.300 . S
O102 C95 1.240 . S
O103 In91 2.338 . S
O103 C95 1.252 . S
In104 O105 2.294 . S
In104 O106 2.326 . S
In104 O110 2.266 1_545 S
In104 O111 2.326 1_545 S
In104 O112 2.266 1_545 S
In104 O113 2.326 1_545 S
In104 O115 2.294 . S
In104 O116 2.326 . S
O105 In104 2.294 . S
O105 C114 1.240 . S
O106 In104 2.326 . S
O106 C114 1.252 . S
C107 O110 1.252 . S
C107 O111 1.260 . S
C108 O115 1.240 . S
C108 O116 1.252 . S
C109 O112 1.252 . S
C109 O113 1.260 . S
O110 In104 2.266 1_565 S
O110 C107 1.252 . S
O111 In104 2.326 1_565 S
O111 C107 1.260 . S
O112 In104 2.266 1_565 S
O112 C109 1.252 . S
O113 In104 2.326 1_565 S
O113 C109 1.260 . S
C114 O105 1.240 . S
C114 O106 1.252 . S
O115 In104 2.294 . S
O115 C108 1.240 . S
O116 In104 2.326 . S
O116 C108 1.252 . S
In117 O118 2.294 . S
In117 O119 2.326 . S
In117 O123 2.266 . S
In117 O124 2.326 . S
In117 O125 2.266 . S
In117 O126 2.326 . S
In117 O128 2.294 . S
In117 O129 2.326 . S
O118 In117 2.294 . S
O118 C127 1.240 . S
O119 In117 2.326 . S
O119 C127 1.252 . S
C120 O123 1.252 . S
C120 O124 1.260 . S
C121 O128 1.240 . S
C121 O129 1.252 . S
C122 O125 1.252 . S
C122 O126 1.260 . S
O123 In117 2.266 . S
O123 C120 1.252 . S
O124 In117 2.326 . S
O124 C120 1.260 . S
O125 In117 2.266 . S
O125 C122 1.252 . S
O126 In117 2.326 . S
O126 C122 1.260 . S
C127 O118 1.240 . S
C127 O119 1.252 . S
O128 In117 2.294 . S
O128 C121 1.240 . S
O129 In117 2.326 . S
O129 C121 1.252 . S
In130 O131 2.294 . S
In130 O132 2.326 . S
In130 O136 2.266 1_545 S
In130 O137 2.326 1_545 S
In130 O138 2.266 1_545 S
In130 O139 2.326 1_545 S
In130 O141 2.294 . S
In130 O142 2.326 . S
O131 In130 2.294 . S
O131 C140 1.240 . S
O132 In130 2.326 . S
O132 C140 1.252 . S
C133 O136 1.252 . S
C133 O137 1.260 . S
C134 O141 1.240 . S
C134 O142 1.252 . S
C135 O138 1.252 . S
C135 O139 1.260 . S
O136 In130 2.266 1_565 S
O136 C133 1.252 . S
O137 In130 2.326 1_565 S
O137 C133 1.260 . S
O138 In130 2.266 1_565 S
O138 C135 1.252 . S
O139 In130 2.326 1_565 S
O139 C135 1.260 . S
C140 O131 1.240 . S
C140 O132 1.252 . S
O141 In130 2.294 . S
O141 C134 1.240 . S
O142 In130 2.326 . S
O142 C134 1.252 . S
In143 O144 2.300 . S
In143 O145 2.338 . S
In143 O149 2.261 1_554 S
In143 O150 2.314 1_554 S
In143 O151 2.282 . S
In143 O152 2.352 . S
In143 O154 2.278 1_554 S
In143 O155 2.300 1_554 S
O144 In143 2.300 . S
O144 C153 1.240 . S
O145 In143 2.338 . S
O145 C153 1.252 . S
C146 O149 1.252 . S
C146 O150 1.260 . S
C147 O154 1.240 . S
C147 O155 1.252 . S
C148 O151 1.252 . S
C148 O152 1.260 . S
O149 In143 2.261 1_556 S
O149 C146 1.252 . S
O150 In143 2.314 1_556 S
O150 C146 1.260 . S
O151 In143 2.282 . S
O151 C148 1.252 . S
O152 In143 2.352 . S
O152 C148 1.260 . S
C153 O144 1.240 . S
C153 O145 1.252 . S
O154 In143 2.278 1_556 S
O154 C147 1.240 . S
O155 In143 2.300 1_556 S
O155 C147 1.252 . S
In156 O157 2.294 . S
In156 O158 2.326 . S
In156 O162 2.266 1_554 S
In156 O163 2.326 1_554 S
In156 O164 2.266 1_554 S
In156 O165 2.326 1_554 S
In156 O167 2.294 . S
In156 O168 2.326 . S
O157 In156 2.294 . S
O157 C166 1.240 . S
O158 In156 2.326 . S
O158 C166 1.252 . S
C159 O162 1.252 . S
C159 O163 1.260 . S
C160 O167 1.240 . S
C160 O168 1.252 . S
C161 O164 1.252 . S
C161 O165 1.260 . S
O162 In156 2.266 1_556 S
O162 C159 1.252 . S
O163 In156 2.326 1_556 S
O163 C159 1.260 . S
O164 In156 2.266 1_556 S
O164 C161 1.252 . S
O165 In156 2.326 1_556 S
O165 C161 1.260 . S
C166 O157 1.240 . S
C166 O158 1.252 . S
O167 In156 2.294 . S
O167 C160 1.240 . S
O168 In156 2.326 . S
O168 C160 1.252 . S
In169 O170 2.294 . S
In169 O171 2.326 . S
In169 O175 2.266 1_554 S
In169 O176 2.326 1_554 S
In169 O177 2.266 1_554 S
In169 O178 2.326 1_554 S
In169 O180 2.294 . S
In169 O181 2.326 . S
O170 In169 2.294 . S
O170 C179 1.240 . S
O171 In169 2.326 . S
O171 C179 1.252 . S
C172 O175 1.252 . S
C172 O176 1.260 . S
C173 O180 1.240 . S
C173 O181 1.252 . S
C174 O177 1.252 . S
C174 O178 1.260 . S
O175 In169 2.266 1_556 S
O175 C172 1.252 . S
O176 In169 2.326 1_556 S
O176 C172 1.260 . S
O177 In169 2.266 1_556 S
O177 C174 1.252 . S
O178 In169 2.326 1_556 S
O178 C174 1.260 . S
C179 O170 1.240 . S
C179 O171 1.252 . S
O180 In169 2.294 . S
O180 C173 1.240 . S
O181 In169 2.326 . S
O181 C173 1.252 . S
In182 O183 2.294 . S
In182 O184 2.326 . S
In182 O188 2.266 . S
In182 O189 2.326 . S
In182 O190 2.266 . S
In182 O191 2.326 . S
In182 O193 2.294 . S
In182 O194 2.326 . S
O183 In182 2.294 . S
O183 C192 1.240 . S
O184 In182 2.326 . S
O184 C192 1.252 . S
C185 O188 1.252 . S
C185 O189 1.260 . S
C186 O193 1.240 . S
C186 O194 1.252 . S
C187 O190 1.252 . S
C187 O191 1.260 . S
O188 In182 2.266 . S
O188 C185 1.252 . S
O189 In182 2.326 . S
O189 C185 1.260 . S
O190 In182 2.266 . S
O190 C187 1.252 . S
O191 In182 2.326 . S
O191 C187 1.260 . S
C192 O183 1.240 . S
C192 O184 1.252 . S
O193 In182 2.294 . S
O193 C186 1.240 . S
O194 In182 2.326 . S
O194 C186 1.252 . S
In195 O196 2.294 . S
In195 O197 2.326 . S
In195 O201 2.266 . S
In195 O202 2.326 . S
In195 O203 2.266 . S
In195 O204 2.326 . S
In195 O206 2.294 . S
In195 O207 2.326 . S
O196 In195 2.294 . S
O196 C205 1.240 . S
O197 In195 2.326 . S
O197 C205 1.252 . S
C198 O201 1.252 . S
C198 O202 1.260 . S
C199 O206 1.240 . S
C199 O207 1.252 . S
C200 O203 1.252 . S
C200 O204 1.260 . S
O201 In195 2.266 . S
O201 C198 1.252 . S
O202 In195 2.326 . S
O202 C198 1.260 . S
O203 In195 2.266 . S
O203 C200 1.252 . S
O204 In195 2.326 . S
O204 C200 1.260 . S
C205 O196 1.240 . S
C205 O197 1.252 . S
O206 In195 2.294 . S
O206 C199 1.240 . S
O207 In195 2.326 . S
O207 C199 1.252 . S
In208 O209 2.300 . S
In208 O210 2.338 . S
In208 O214 2.261 1_545 S
In208 O215 2.314 1_545 S
In208 O216 2.282 . S
In208 O217 2.352 . S
In208 O219 2.278 1_545 S
In208 O220 2.300 1_545 S
O209 In208 2.300 . S
O209 C218 1.240 . S
O210 In208 2.338 . S
O210 C218 1.252 . S
C211 O214 1.252 . S
C211 O215 1.260 . S
C212 O219 1.240 . S
C212 O220 1.252 . S
C213 O216 1.252 . S
C213 O217 1.260 . S
O214 In208 2.261 1_565 S
O214 C211 1.252 . S
O215 In208 2.314 1_565 S
O215 C211 1.260 . S
O216 In208 2.282 . S
O216 C213 1.252 . S
O217 In208 2.352 . S
O217 C213 1.260 . S
C218 O209 1.240 . S
C218 O210 1.252 . S
O219 In208 2.278 1_565 S
O219 C212 1.240 . S
O220 In208 2.300 1_565 S
O220 C212 1.252 . S
In221 O222 2.294 . S
In221 O223 2.326 . S
In221 O227 2.266 . S
In221 O228 2.326 . S
In221 O229 2.266 . S
In221 O230 2.326 . S
In221 O232 2.294 . S
In221 O233 2.326 . S
O222 In221 2.294 . S
O222 C231 1.240 . S
O223 In221 2.326 . S
O223 C231 1.252 . S
C224 O227 1.252 . S
C224 O228 1.260 . S
C225 O232 1.240 . S
C225 O233 1.252 . S
C226 O229 1.252 . S
C226 O230 1.260 . S
O227 In221 2.266 . S
O227 C224 1.252 . S
O228 In221 2.326 . S
O228 C224 1.260 . S
O229 In221 2.266 . S
O229 C226 1.252 . S
O230 In221 2.326 . S
O230 C226 1.260 . S
C231 O222 1.240 . S
C231 O223 1.252 . S
O232 In221 2.294 . S
O232 C225 1.240 . S
O233 In221 2.326 . S
O233 C225 1.252 . S
In234 O235 2.294 . S
In234 O236 2.326 . S
In234 O240 2.266 . S
In234 O241 2.326 . S
In234 O242 2.266 . S
In234 O243 2.326 . S
In234 O245 2.294 . S
In234 O246 2.326 . S
O235 In234 2.294 . S
O235 C244 1.240 . S
O236 In234 2.326 . S
O236 C244 1.252 . S
C237 O240 1.252 . S
C237 O241 1.260 . S
C238 O245 1.240 . S
C238 O246 1.252 . S
C239 O242 1.252 . S
C239 O243 1.260 . S
O240 In234 2.266 . S
O240 C237 1.252 . S
O241 In234 2.326 . S
O241 C237 1.260 . S
O242 In234 2.266 . S
O242 C239 1.252 . S
O243 In234 2.326 . S
O243 C239 1.260 . S
C244 O235 1.240 . S
C244 O236 1.252 . S
O245 In234 2.294 . S
O245 C238 1.240 . S
O246 In234 2.326 . S
O246 C238 1.252 . S
In247 O248 2.294 1_545 S
In247 O249 2.326 1_545 S
In247 O253 2.266 . S
In247 O254 2.326 . S
In247 O255 2.266 1_545 S
In247 O256 2.326 1_545 S
In247 O258 2.294 . S
In247 O259 2.326 . S
O248 In247 2.294 1_565 S
O248 C257 1.240 . S
O249 In247 2.326 1_565 S
O249 C257 1.252 . S
C250 O253 1.252 . S
C250 O254 1.260 . S
C251 O258 1.240 . S
C251 O259 1.252 . S
C252 O255 1.252 . S
C252 O256 1.260 . S
O253 In247 2.266 . S
O253 C250 1.252 . S
O254 In247 2.326 . S
O254 C250 1.260 . S
O255 In247 2.266 1_565 S
O255 C252 1.252 . S
O256 In247 2.326 1_565 S
O256 C252 1.260 . S
C257 O248 1.240 . S
C257 O249 1.252 . S
O258 In247 2.294 . S
O258 C251 1.240 . S
O259 In247 2.326 . S
O259 C251 1.252 . S
In260 O261 2.294 . S
In260 O262 2.326 . S
In260 O266 2.266 1_554 S
In260 O267 2.326 1_554 S
In260 O268 2.266 . S
In260 O269 2.326 . S
In260 O271 2.294 1_554 S
In260 O272 2.326 1_554 S
O261 In260 2.294 . S
O261 C270 1.240 . S
O262 In260 2.326 . S
O262 C270 1.252 . S
C263 O266 1.252 . S
C263 O267 1.260 . S
C264 O271 1.240 . S
C264 O272 1.252 . S
C265 O268 1.252 . S
C265 O269 1.260 . S
O266 In260 2.266 1_556 S
O266 C263 1.252 . S
O267 In260 2.326 1_556 S
O267 C263 1.260 . S
O268 In260 2.266 . S
O268 C265 1.252 . S
O269 In260 2.326 . S
O269 C265 1.260 . S
C270 O261 1.240 . S
C270 O262 1.252 . S
O271 In260 2.294 1_556 S
O271 C264 1.240 . S
O272 In260 2.326 1_556 S
O272 C264 1.252 . S
In273 O274 2.294 . S
In273 O275 2.326 . S
In273 O279 2.266 . S
In273 O280 2.326 . S
In273 O281 2.266 . S
In273 O282 2.326 . S
In273 O284 2.294 . S
In273 O285 2.326 . S
O274 In273 2.294 . S
O274 C283 1.240 . S
O275 In273 2.326 . S
O275 C283 1.252 . S
C276 O279 1.252 . S
C276 O280 1.260 . S
C277 O284 1.240 . S
C277 O285 1.252 . S
C278 O281 1.252 . S
C278 O282 1.260 . S
O279 In273 2.266 . S
O279 C276 1.252 . S
O280 In273 2.326 . S
O280 C276 1.260 . S
O281 In273 2.266 . S
O281 C278 1.252 . S
O282 In273 2.326 . S
O282 C278 1.260 . S
C283 O274 1.240 . S
C283 O275 1.252 . S
O284 In273 2.294 . S
O284 C277 1.240 . S
O285 In273 2.326 . S
O285 C277 1.252 . S
In286 O287 2.294 . S
In286 O288 2.326 . S
In286 O292 2.266 . S
In286 O293 2.326 . S
In286 O294 2.266 . S
In286 O295 2.326 . S
In286 O297 2.294 . S
In286 O298 2.326 . S
O287 In286 2.294 . S
O287 C296 1.240 . S
O288 In286 2.326 . S
O288 C296 1.252 . S
C289 O292 1.252 . S
C289 O293 1.260 . S
C290 O297 1.240 . S
C290 O298 1.252 . S
C291 O294 1.252 . S
C291 O295 1.260 . S
O292 In286 2.266 . S
O292 C289 1.252 . S
O293 In286 2.326 . S
O293 C289 1.260 . S
O294 In286 2.266 . S
O294 C291 1.252 . S
O295 In286 2.326 . S
O295 C291 1.260 . S
C296 O287 1.240 . S
C296 O288 1.252 . S
O297 In286 2.294 . S
O297 C290 1.240 . S
O298 In286 2.326 . S
O298 C290 1.252 . S
In299 O300 2.294 . S
In299 O301 2.326 . S
In299 O305 2.266 . S
In299 O306 2.326 . S
In299 O307 2.266 . S
In299 O308 2.326 . S
In299 O310 2.294 . S
In299 O311 2.326 . S
O300 In299 2.294 . S
O300 C309 1.240 . S
O301 In299 2.326 . S
O301 C309 1.252 . S
C302 O305 1.252 . S
C302 O306 1.260 . S
C303 O310 1.240 . S
C303 O311 1.252 . S
C304 O307 1.252 . S
C304 O308 1.260 . S
O305 In299 2.266 . S
O305 C302 1.252 . S
O306 In299 2.326 . S
O306 C302 1.260 . S
O307 In299 2.266 . S
O307 C304 1.252 . S
O308 In299 2.326 . S
O308 C304 1.260 . S
C309 O300 1.240 . S
C309 O301 1.252 . S
O310 In299 2.294 . S
O310 C303 1.240 . S
O311 In299 2.326 . S
O311 C303 1.252 . S
H312 C318 0.930 . S
H313 C322 0.930 . S
H314 C327 0.929 . S
H315 C325 0.929 . S
H316 C320 0.929 . S
H317 C326 0.929 . S
C318 H312 0.930 . S
C318 C319 1.367 . S
C318 C326 1.378 . S
C319 C318 1.367 . S
C319 C327 1.433 . S
C320 H316 0.929 . S
C320 C322 1.378 . S
C320 C324 1.350 . S
C321 C324 1.463 . S
C321 C326 1.350 . S
C321 N329 1.427 . S
C322 H313 0.930 . S
C322 C320 1.378 . S
C322 C323 1.367 . S
C323 C322 1.367 . S
C323 C325 1.433 . S
C324 C320 1.350 . S
C324 C321 1.463 . S
C324 N328 1.427 . S
C325 H315 0.929 . S
C325 C323 1.433 . S
C325 N328 1.384 . S
C326 H317 0.929 . S
C326 C318 1.378 . S
C326 C321 1.350 . S
C327 H314 0.929 . S
C327 C319 1.433 . S
C327 N329 1.384 . S
N328 C324 1.427 . S
N328 C325 1.384 . S
N329 C321 1.427 . S
N329 C327 1.384 . S
H330 C336 0.930 . S
H331 C340 0.930 . S
H332 C345 0.929 . S
H333 C343 0.929 . S
H334 C338 0.929 . S
H335 C344 0.929 . S
C336 H330 0.930 . S
C336 C337 1.367 . S
C336 C344 1.378 . S
C337 C336 1.367 . S
C337 C345 1.433 . S
C338 H334 0.929 . S
C338 C340 1.378 . S
C338 C342 1.350 . S
C339 C342 1.463 . S
C339 C344 1.350 . S
C339 N347 1.427 . S
C340 H331 0.930 . S
C340 C338 1.378 . S
C340 C341 1.367 . S
C341 C340 1.367 . S
C341 C343 1.433 . S
C342 C338 1.350 . S
C342 C339 1.463 . S
C342 N346 1.427 . S
C343 H333 0.929 . S
C343 C341 1.433 . S
C343 N346 1.384 . S
C344 H335 0.929 . S
C344 C336 1.378 . S
C344 C339 1.350 . S
C345 H332 0.929 . S
C345 C337 1.433 . S
C345 N347 1.384 . S
N346 C342 1.427 . S
N346 C343 1.384 . S
N347 C339 1.427 . S
N347 C345 1.384 . S
H348 C354 0.930 . S
H349 C358 0.930 . S
H350 C363 0.929 . S
H351 C361 0.929 . S
H352 C356 0.929 . S
H353 C362 0.929 . S
C354 H348 0.930 . S
C354 C355 1.367 . S
C354 C362 1.378 . S
C355 C354 1.367 . S
C355 C363 1.433 . S
C356 H352 0.929 . S
C356 C358 1.378 . S
C356 C360 1.350 . S
C357 C360 1.463 . S
C357 C362 1.350 . S
C357 N365 1.427 . S
C358 H349 0.930 . S
C358 C356 1.378 . S
C358 C359 1.367 . S
C359 C358 1.367 . S
C359 C361 1.433 . S
C360 C356 1.350 . S
C360 C357 1.463 . S
C360 N364 1.427 . S
C361 H351 0.929 . S
C361 C359 1.433 . S
C361 N364 1.384 . S
C362 H353 0.929 . S
C362 C354 1.378 . S
C362 C357 1.350 . S
C363 H350 0.929 . S
C363 C355 1.433 . S
C363 N365 1.384 . S
N364 C360 1.427 . S
N364 C361 1.384 . S
N365 C357 1.427 . S
N365 C363 1.384 . S
H366 C372 0.930 . S
H367 C376 0.930 . S
H368 C381 0.929 . S
H369 C379 0.929 . S
H370 C374 0.929 . S
H371 C380 0.929 . S
C372 H366 0.930 . S
C372 C373 1.367 . S
C372 C380 1.378 . S
C373 C372 1.367 . S
C373 C381 1.433 . S
C374 H370 0.929 . S
C374 C376 1.378 . S
C374 C378 1.350 . S
C375 C378 1.463 . S
C375 C380 1.350 . S
C375 N383 1.427 . S
C376 H367 0.930 . S
C376 C374 1.378 . S
C376 C377 1.367 . S
C377 C376 1.367 . S
C377 C379 1.433 . S
C378 C374 1.350 . S
C378 C375 1.463 . S
C378 N382 1.427 . S
C379 H369 0.929 . S
C379 C377 1.433 . S
C379 N382 1.384 . S
C380 H371 0.929 . S
C380 C372 1.378 . S
C380 C375 1.350 . S
C381 H368 0.929 . S
C381 C373 1.433 . S
C381 N383 1.384 . S
N382 C378 1.427 . S
N382 C379 1.384 . S
N383 C375 1.427 . S
N383 C381 1.384 . S
H384 C390 0.930 . S
H385 C394 0.930 . S
H386 C399 0.929 . S
H387 C397 0.929 . S
H388 C392 0.929 . S
H389 C398 0.929 . S
C390 H384 0.930 . S
C390 C391 1.367 . S
C390 C398 1.378 . S
C391 C390 1.367 . S
C391 C399 1.433 . S
C392 H388 0.929 . S
C392 C394 1.378 . S
C392 C396 1.350 . S
C393 C396 1.463 . S
C393 C398 1.350 . S
C393 N401 1.427 . S
C394 H385 0.930 . S
C394 C392 1.378 . S
C394 C395 1.367 . S
C395 C394 1.367 . S
C395 C397 1.433 . S
C396 C392 1.350 . S
C396 C393 1.463 . S
C396 N400 1.427 . S
C397 H387 0.929 . S
C397 C395 1.433 . S
C397 N400 1.384 . S
C398 H389 0.929 . S
C398 C390 1.378 . S
C398 C393 1.350 . S
C399 H386 0.929 . S
C399 C391 1.433 . S
C399 N401 1.384 . S
N400 C396 1.427 . S
N400 C397 1.384 . S
N401 C393 1.427 . S
N401 C399 1.384 . S
H402 C408 0.930 . S
H403 C412 0.930 . S
H404 C417 0.929 . S
H405 C415 0.929 . S
H406 C410 0.929 . S
H407 C416 0.929 . S
C408 H402 0.930 . S
C408 C409 1.367 . S
C408 C416 1.378 . S
C409 C408 1.367 . S
C409 C417 1.433 . S
C410 H406 0.929 . S
C410 C412 1.378 . S
C410 C414 1.350 . S
C411 C414 1.463 . S
C411 C416 1.350 . S
C411 N419 1.427 . S
C412 H403 0.930 . S
C412 C410 1.378 . S
C412 C413 1.367 . S
C413 C412 1.367 . S
C413 C415 1.433 . S
C414 C410 1.350 . S
C414 C411 1.463 . S
C414 N418 1.427 . S
C415 H405 0.929 . S
C415 C413 1.433 . S
C415 N418 1.384 . S
C416 H407 0.929 . S
C416 C408 1.378 . S
C416 C411 1.350 . S
C417 H404 0.929 . S
C417 C409 1.433 . S
C417 N419 1.384 . S
N418 C414 1.427 . S
N418 C415 1.384 . S
N419 C411 1.427 . S
N419 C417 1.384 . S
H420 C426 0.930 . S
H421 C430 0.930 . S
H422 C435 0.929 . S
H423 C433 0.929 . S
H424 C428 0.929 . S
H425 C434 0.929 . S
C426 H420 0.930 . S
C426 C427 1.367 . S
C426 C434 1.378 . S
C427 C426 1.367 . S
C427 C435 1.433 . S
C428 H424 0.929 . S
C428 C430 1.378 . S
C428 C432 1.350 . S
C429 C432 1.463 . S
C429 C434 1.350 . S
C429 N437 1.427 . S
C430 H421 0.930 . S
C430 C428 1.378 . S
C430 C431 1.367 . S
C431 C430 1.367 . S
C431 C433 1.433 . S
C432 C428 1.350 . S
C432 C429 1.463 . S
C432 N436 1.427 . S
C433 H423 0.929 . S
C433 C431 1.433 . S
C433 N436 1.384 . S
C434 H425 0.929 . S
C434 C426 1.378 . S
C434 C429 1.350 . S
C435 H422 0.929 . S
C435 C427 1.433 . S
C435 N437 1.384 . S
N436 C432 1.427 . S
N436 C433 1.384 . S
N437 C429 1.427 . S
N437 C435 1.384 . S
H438 C444 0.930 . S
H439 C448 0.930 . S
H440 C453 0.929 . S
H441 C451 0.929 . S
H442 C446 0.929 . S
H443 C452 0.929 . S
C444 H438 0.930 . S
C444 C445 1.367 . S
C444 C452 1.378 . S
C445 C444 1.367 . S
C445 C453 1.433 . S
C446 H442 0.929 . S
C446 C448 1.378 . S
C446 C450 1.350 . S
C447 C450 1.463 . S
C447 C452 1.350 . S
C447 N455 1.427 . S
C448 H439 0.930 . S
C448 C446 1.378 . S
C448 C449 1.367 . S
C449 C448 1.367 . S
C449 C451 1.433 . S
C450 C446 1.350 . S
C450 C447 1.463 . S
C450 N454 1.427 . S
C451 H441 0.929 . S
C451 C449 1.433 . S
C451 N454 1.384 . S
C452 H443 0.929 . S
C452 C444 1.378 . S
C452 C447 1.350 . S
C453 H440 0.929 . S
C453 C445 1.433 . S
C453 N455 1.384 . S
N454 C450 1.427 . S
N454 C451 1.384 . S
N455 C447 1.427 . S
N455 C453 1.384 . S
H456 C462 0.930 . S
H457 C466 0.930 . S
H458 C471 0.929 . S
H459 C469 0.929 . S
H460 C464 0.929 . S
H461 C470 0.929 . S
C462 H456 0.930 . S
C462 C463 1.367 . S
C462 C470 1.378 . S
C463 C462 1.367 . S
C463 C471 1.433 . S
C464 H460 0.929 . S
C464 C466 1.378 . S
C464 C468 1.350 . S
C465 C468 1.463 . S
C465 C470 1.350 . S
C465 N473 1.427 . S
C466 H457 0.930 . S
C466 C464 1.378 . S
C466 C467 1.367 . S
C467 C466 1.367 . S
C467 C469 1.433 . S
C468 C464 1.350 . S
C468 C465 1.463 . S
C468 N472 1.427 . S
C469 H459 0.929 . S
C469 C467 1.433 . S
C469 N472 1.384 . S
C470 H461 0.929 . S
C470 C462 1.378 . S
C470 C465 1.350 . S
C471 H458 0.929 . S
C471 C463 1.433 . S
C471 N473 1.384 . S
N472 C468 1.427 . S
N472 C469 1.384 . S
N473 C465 1.427 . S
N473 C471 1.384 . S
H474 C480 0.930 . S
H475 C484 0.930 . S
H476 C489 0.929 . S
H477 C487 0.929 . S
H478 C482 0.929 . S
H479 C488 0.929 . S
C480 H474 0.930 . S
C480 C481 1.367 . S
C480 C488 1.378 . S
C481 C480 1.367 . S
C481 C489 1.433 . S
C482 H478 0.929 . S
C482 C484 1.378 . S
C482 C486 1.350 . S
C483 C486 1.463 . S
C483 C488 1.350 . S
C483 N491 1.427 . S
C484 H475 0.930 . S
C484 C482 1.378 . S
C484 C485 1.367 . S
C485 C484 1.367 . S
C485 C487 1.433 . S
C486 C482 1.350 . S
C486 C483 1.463 . S
C486 N490 1.427 . S
C487 H477 0.929 . S
C487 C485 1.433 . S
C487 N490 1.384 . S
C488 H479 0.929 . S
C488 C480 1.378 . S
C488 C483 1.350 . S
C489 H476 0.929 . S
C489 C481 1.433 . S
C489 N491 1.384 . S
N490 C486 1.427 . S
N490 C487 1.384 . S
N491 C483 1.427 . S
N491 C489 1.384 . S
H492 C498 0.930 . S
H493 C502 0.930 . S
H494 C507 0.929 . S
H495 C505 0.929 . S
H496 C500 0.929 . S
H497 C506 0.929 . S
C498 H492 0.930 . S
C498 C499 1.367 . S
C498 C506 1.378 . S
C499 C498 1.367 . S
C499 C507 1.433 . S
C500 H496 0.929 . S
C500 C502 1.378 . S
C500 C504 1.350 . S
C501 C504 1.463 . S
C501 C506 1.350 . S
C501 N509 1.427 . S
C502 H493 0.930 . S
C502 C500 1.378 . S
C502 C503 1.367 . S
C503 C502 1.367 . S
C503 C505 1.433 . S
C504 C500 1.350 . S
C504 C501 1.463 . S
C504 N508 1.427 . S
C505 H495 0.929 . S
C505 C503 1.433 . S
C505 N508 1.384 . S
C506 H497 0.929 . S
C506 C498 1.378 . S
C506 C501 1.350 . S
C507 H494 0.929 . S
C507 C499 1.433 . S
C507 N509 1.384 . S
N508 C504 1.427 . S
N508 C505 1.384 . S
N509 C501 1.427 . S
N509 C507 1.384 . S
H510 C516 0.930 . S
H511 C520 0.930 . S
H512 C525 0.929 . S
H513 C523 0.929 . S
H514 C518 0.929 . S
H515 C524 0.929 . S
C516 H510 0.930 . S
C516 C517 1.367 . S
C516 C524 1.378 . S
C517 C516 1.367 . S
C517 C525 1.433 . S
C518 H514 0.929 . S
C518 C520 1.378 . S
C518 C522 1.350 . S
C519 C522 1.463 . S
C519 C524 1.350 . S
C519 N527 1.427 . S
C520 H511 0.930 . S
C520 C518 1.378 . S
C520 C521 1.367 . S
C521 C520 1.367 . S
C521 C523 1.433 . S
C522 C518 1.350 . S
C522 C519 1.463 . S
C522 N526 1.427 . S
C523 H513 0.929 . S
C523 C521 1.433 . S
C523 N526 1.384 . S
C524 H515 0.929 . S
C524 C516 1.378 . S
C524 C519 1.350 . S
C525 H512 0.929 . S
C525 C517 1.433 . S
C525 N527 1.384 . S
N526 C522 1.427 . S
N526 C523 1.384 . S
N527 C519 1.427 . S
N527 C525 1.384 . S
H528 C534 0.930 . S
H529 C538 0.930 . S
H530 C543 0.929 . S
H531 C541 0.929 . S
H532 C536 0.929 . S
H533 C542 0.929 . S
C534 H528 0.930 . S
C534 C535 1.367 . S
C534 C542 1.378 . S
C535 C534 1.367 . S
C535 C543 1.433 . S
C536 H532 0.929 . S
C536 C538 1.378 . S
C536 C540 1.350 . S
C537 C540 1.463 . S
C537 C542 1.350 . S
C537 N545 1.427 . S
C538 H529 0.930 . S
C538 C536 1.378 . S
C538 C539 1.367 . S
C539 C538 1.367 . S
C539 C541 1.433 . S
C540 C536 1.350 . S
C540 C537 1.463 . S
C540 N544 1.427 . S
C541 H531 0.929 . S
C541 C539 1.433 . S
C541 N544 1.384 . S
C542 H533 0.929 . S
C542 C534 1.378 . S
C542 C537 1.350 . S
C543 H530 0.929 . S
C543 C535 1.433 . S
C543 N545 1.384 . S
N544 C540 1.427 . S
N544 C541 1.384 . S
N545 C537 1.427 . S
N545 C543 1.384 . S
H546 C552 0.930 . S
H547 C556 0.930 . S
H548 C561 0.929 . S
H549 C559 0.929 . S
H550 C554 0.929 . S
H551 C560 0.929 . S
C552 H546 0.930 . S
C552 C553 1.367 . S
C552 C560 1.378 . S
C553 C552 1.367 . S
C553 C561 1.433 . S
C554 H550 0.929 . S
C554 C556 1.378 . S
C554 C558 1.350 . S
C555 C558 1.463 . S
C555 C560 1.350 . S
C555 N563 1.427 . S
C556 H547 0.930 . S
C556 C554 1.378 . S
C556 C557 1.367 . S
C557 C556 1.367 . S
C557 C559 1.433 . S
C558 C554 1.350 . S
C558 C555 1.463 . S
C558 N562 1.427 . S
C559 H549 0.929 . S
C559 C557 1.433 . S
C559 N562 1.384 . S
C560 H551 0.929 . S
C560 C552 1.378 . S
C560 C555 1.350 . S
C561 H548 0.929 . S
C561 C553 1.433 . S
C561 N563 1.384 . S
N562 C558 1.427 . S
N562 C559 1.384 . S
N563 C555 1.427 . S
N563 C561 1.384 . S
H564 C570 0.930 . S
H565 C574 0.930 . S
H566 C579 0.929 . S
H567 C577 0.929 . S
H568 C572 0.929 . S
H569 C578 0.929 . S
C570 H564 0.930 . S
C570 C571 1.367 . S
C570 C578 1.378 . S
C571 C570 1.367 . S
C571 C579 1.433 . S
C572 H568 0.929 . S
C572 C574 1.378 . S
C572 C576 1.350 . S
C573 C576 1.463 . S
C573 C578 1.350 . S
C573 N581 1.427 . S
C574 H565 0.930 . S
C574 C572 1.378 . S
C574 C575 1.367 . S
C575 C574 1.367 . S
C575 C577 1.433 . S
C576 C572 1.350 . S
C576 C573 1.463 . S
C576 N580 1.427 . S
C577 H567 0.929 . S
C577 C575 1.433 . S
C577 N580 1.384 . S
C578 H569 0.929 . S
C578 C570 1.378 . S
C578 C573 1.350 . S
C579 H566 0.929 . S
C579 C571 1.433 . S
C579 N581 1.384 . S
N580 C576 1.427 . S
N580 C577 1.384 . S
N581 C573 1.427 . S
N581 C579 1.384 . S
H582 C588 0.930 . S
H583 C592 0.930 . S
H584 C597 0.929 1_455 S
H585 C595 0.929 . S
H586 C590 0.929 . S
H587 C596 0.929 . S
C588 H582 0.930 . S
C588 C589 1.367 . S
C588 C596 1.378 . S
C589 C588 1.367 . S
C589 C597 1.433 . S
C590 H586 0.929 . S
C590 C592 1.378 . S
C590 C594 1.350 . S
C591 C594 1.463 . S
C591 C596 1.350 . S
C591 N599 1.427 . S
C592 H583 0.930 . S
C592 C590 1.378 . S
C592 C593 1.367 . S
C593 C592 1.367 . S
C593 C595 1.433 . S
C594 C590 1.350 . S
C594 C591 1.463 . S
C594 N598 1.427 . S
C595 H585 0.929 . S
C595 C593 1.433 . S
C595 N598 1.384 . S
C596 H587 0.929 . S
C596 C588 1.378 . S
C596 C591 1.350 . S
C597 H584 0.929 1_655 S
C597 C589 1.433 . S
C597 N599 1.384 . S
N598 C594 1.427 . S
N598 C595 1.384 . S
N599 C591 1.427 . S
N599 C597 1.384 . S
H600 C606 0.930 . S
H601 C610 0.930 . S
H602 C615 0.929 . S
H603 C613 0.929 . S
H604 C608 0.929 . S
H605 C614 0.929 . S
C606 H600 0.930 . S
C606 C607 1.367 . S
C606 C614 1.378 . S
C607 C606 1.367 . S
C607 C615 1.433 . S
C608 H604 0.929 . S
C608 C610 1.378 . S
C608 C612 1.350 . S
C609 C612 1.463 . S
C609 C614 1.350 . S
C609 N617 1.427 . S
C610 H601 0.930 . S
C610 C608 1.378 . S
C610 C611 1.367 . S
C611 C610 1.367 . S
C611 C613 1.433 . S
C612 C608 1.350 . S
C612 C609 1.463 . S
C612 N616 1.427 . S
C613 H603 0.929 . S
C613 C611 1.433 . S
C613 N616 1.384 . S
C614 H605 0.929 . S
C614 C606 1.378 . S
C614 C609 1.350 . S
C615 H602 0.929 . S
C615 C607 1.433 . S
C615 N617 1.384 . S
N616 C612 1.427 . S
N616 C613 1.384 . S
N617 C609 1.427 . S
N617 C615 1.384 . S
H618 C624 0.930 . S
H619 C628 0.930 . S
H620 C633 0.929 . S
H621 C631 0.929 . S
H622 C626 0.929 . S
H623 C632 0.929 . S
C624 H618 0.930 . S
C624 C625 1.367 . S
C624 C632 1.378 . S
C625 C624 1.367 . S
C625 C633 1.433 . S
C626 H622 0.929 . S
C626 C628 1.378 . S
C626 C630 1.350 . S
C627 C630 1.463 . S
C627 C632 1.350 . S
C627 N635 1.427 . S
C628 H619 0.930 . S
C628 C626 1.378 . S
C628 C629 1.367 . S
C629 C628 1.367 . S
C629 C631 1.433 . S
C630 C626 1.350 . S
C630 C627 1.463 . S
C630 N634 1.427 . S
C631 H621 0.929 . S
C631 C629 1.433 . S
C631 N634 1.384 . S
C632 H623 0.929 . S
C632 C624 1.378 . S
C632 C627 1.350 . S
C633 H620 0.929 . S
C633 C625 1.433 . S
C633 N635 1.384 . S
N634 C630 1.427 . S
N634 C631 1.384 . S
N635 C627 1.427 . S
N635 C633 1.384 . S
H636 C642 0.930 . S
H637 C646 0.930 . S
H638 C651 0.929 1_554 S
H639 C649 0.929 . S
H640 C644 0.929 . S
H641 C650 0.929 . S
C642 H636 0.930 . S
C642 C643 1.367 . S
C642 C650 1.378 . S
C643 C642 1.367 . S
C643 C651 1.433 . S
C644 H640 0.929 . S
C644 C646 1.378 . S
C644 C648 1.350 . S
C645 C648 1.463 . S
C645 C650 1.350 . S
C645 N653 1.427 . S
C646 H637 0.930 . S
C646 C644 1.378 . S
C646 C647 1.367 . S
C647 C646 1.367 . S
C647 C649 1.433 . S
C648 C644 1.350 . S
C648 C645 1.463 . S
C648 N652 1.427 . S
C649 H639 0.929 . S
C649 C647 1.433 . S
C649 N652 1.384 . S
C650 H641 0.929 . S
C650 C642 1.378 . S
C650 C645 1.350 . S
C651 H638 0.929 1_556 S
C651 C643 1.433 . S
C651 N653 1.384 . S
N652 C648 1.427 . S
N652 C649 1.384 . S
N653 C645 1.427 . S
N653 C651 1.384 . S
H654 C660 0.930 . S
H655 C664 0.930 1_455 S
H656 C669 0.929 . S
H657 C667 0.929 . S
H658 C662 0.929 . S
H659 C668 0.929 . S
C660 H654 0.930 . S
C660 C661 1.367 . S
C660 C668 1.378 . S
C661 C660 1.367 . S
C661 C669 1.433 . S
C662 H658 0.929 . S
C662 C664 1.378 . S
C662 C666 1.350 . S
C663 C666 1.463 . S
C663 C668 1.350 . S
C663 N671 1.427 . S
C664 H655 0.930 1_655 S
C664 C662 1.378 . S
C664 C665 1.367 . S
C665 C664 1.367 . S
C665 C667 1.433 . S
C666 C662 1.350 . S
C666 C663 1.463 . S
C666 N670 1.427 . S
C667 H657 0.929 . S
C667 C665 1.433 . S
C667 N670 1.384 . S
C668 H659 0.929 . S
C668 C660 1.378 . S
C668 C663 1.350 . S
C669 H656 0.929 . S
C669 C661 1.433 . S
C669 N671 1.384 . S
N670 C666 1.427 . S
N670 C667 1.384 . S
N671 C663 1.427 . S
N671 C669 1.384 . S
H672 C678 0.930 . S
H673 C682 0.930 . S
H674 C687 0.929 . S
H675 C685 0.929 . S
H676 C680 0.929 . S
H677 C686 0.929 . S
C678 H672 0.930 . S
C678 C679 1.367 . S
C678 C686 1.378 . S
C679 C678 1.367 . S
C679 C687 1.433 . S
C680 H676 0.929 . S
C680 C682 1.378 . S
C680 C684 1.350 . S
C681 C684 1.463 . S
C681 C686 1.350 . S
C681 N689 1.427 . S
C682 H673 0.930 . S
C682 C680 1.378 . S
C682 C683 1.367 . S
C683 C682 1.367 . S
C683 C685 1.433 . S
C684 C680 1.350 . S
C684 C681 1.463 . S
C684 N688 1.427 . S
C685 H675 0.929 . S
C685 C683 1.433 . S
C685 N688 1.384 . S
C686 H677 0.929 . S
C686 C678 1.378 . S
C686 C681 1.350 . S
C687 H674 0.929 . S
C687 C679 1.433 . S
C687 N689 1.384 . S
N688 C684 1.427 . S
N688 C685 1.384 . S
N689 C681 1.427 . S
N689 C687 1.384 . S
H690 C696 0.930 . S
H691 C700 0.930 . S
H692 C705 0.929 . S
H693 C703 0.929 . S
H694 C698 0.929 . S
H695 C704 0.929 . S
C696 H690 0.930 . S
C696 C697 1.367 . S
C696 C704 1.378 . S
C697 C696 1.367 . S
C697 C705 1.433 . S
C698 H694 0.929 . S
C698 C700 1.378 . S
C698 C702 1.350 . S
C699 C702 1.463 . S
C699 C704 1.350 . S
C699 N707 1.427 . S
C700 H691 0.930 . S
C700 C698 1.378 . S
C700 C701 1.367 . S
C701 C700 1.367 . S
C701 C703 1.433 . S
C702 C698 1.350 . S
C702 C699 1.463 . S
C702 N706 1.427 . S
C703 H693 0.929 . S
C703 C701 1.433 . S
C703 N706 1.384 . S
C704 H695 0.929 . S
C704 C696 1.378 . S
C704 C699 1.350 . S
C705 H692 0.929 . S
C705 C697 1.433 . S
C705 N707 1.384 . S
N706 C702 1.427 . S
N706 C703 1.384 . S
N707 C699 1.427 . S
N707 C705 1.384 . S
H708 C714 0.930 . S
H709 C718 0.930 1_556 S
H710 C723 0.929 . S
H711 C721 0.929 . S
H712 C716 0.929 . S
H713 C722 0.929 . S
C714 H708 0.930 . S
C714 C715 1.367 . S
C714 C722 1.378 . S
C715 C714 1.367 . S
C715 C723 1.433 . S
C716 H712 0.929 . S
C716 C718 1.378 . S
C716 C720 1.350 . S
C717 C720 1.463 . S
C717 C722 1.350 . S
C717 N725 1.427 . S
C718 H709 0.930 1_554 S
C718 C716 1.378 . S
C718 C719 1.367 . S
C719 C718 1.367 . S
C719 C721 1.433 . S
C720 C716 1.350 . S
C720 C717 1.463 . S
C720 N724 1.427 . S
C721 H711 0.929 . S
C721 C719 1.433 . S
C721 N724 1.384 . S
C722 H713 0.929 . S
C722 C714 1.378 . S
C722 C717 1.350 . S
C723 H710 0.929 . S
C723 C715 1.433 . S
C723 N725 1.384 . S
N724 C720 1.427 . S
N724 C721 1.384 . S
N725 C717 1.427 . S
N725 C723 1.384 . S
H726 C732 0.930 . S
H727 C736 0.930 . S
H728 C741 0.929 . S
H729 C739 0.929 . S
H730 C734 0.929 . S
H731 C740 0.929 . S
C732 H726 0.930 . S
C732 C733 1.367 . S
C732 C740 1.378 . S
C733 C732 1.367 . S
C733 C741 1.433 . S
C734 H730 0.929 . S
C734 C736 1.378 . S
C734 C738 1.350 . S
C735 C738 1.463 . S
C735 C740 1.350 . S
C735 N743 1.427 . S
C736 H727 0.930 . S
C736 C734 1.378 . S
C736 C737 1.367 . S
C737 C736 1.367 . S
C737 C739 1.433 . S
C738 C734 1.350 . S
C738 C735 1.463 . S
C738 N742 1.427 . S
C739 H729 0.929 . S
C739 C737 1.433 . S
C739 N742 1.384 . S
C740 H731 0.929 . S
C740 C732 1.378 . S
C740 C735 1.350 . S
C741 H728 0.929 . S
C741 C733 1.433 . S
C741 N743 1.384 . S
N742 C738 1.427 . S
N742 C739 1.384 . S
N743 C735 1.427 . S
N743 C741 1.384 . S
H744 C750 0.930 1_545 S
H745 C754 0.930 . S
H746 C759 0.929 . S
H747 C757 0.929 . S
H748 C752 0.929 . S
H749 C758 0.929 . S
C750 H744 0.930 1_565 S
C750 C751 1.367 . S
C750 C758 1.378 . S
C751 C750 1.367 . S
C751 C759 1.433 . S
C752 H748 0.929 . S
C752 C754 1.378 . S
C752 C756 1.350 . S
C753 C756 1.463 . S
C753 C758 1.350 . S
C753 N761 1.427 . S
C754 H745 0.930 . S
C754 C752 1.378 . S
C754 C755 1.367 . S
C755 C754 1.367 . S
C755 C757 1.433 . S
C756 C752 1.350 . S
C756 C753 1.463 . S
C756 N760 1.427 . S
C757 H747 0.929 . S
C757 C755 1.433 . S
C757 N760 1.384 . S
C758 H749 0.929 . S
C758 C750 1.378 . S
C758 C753 1.350 . S
C759 H746 0.929 . S
C759 C751 1.433 . S
C759 N761 1.384 . S
N760 C756 1.427 . S
N760 C757 1.384 . S
N761 C753 1.427 . S
N761 C759 1.384 . S
H762 C768 0.930 . S
H763 C772 0.930 1_565 S
H764 C777 0.929 . S
H765 C775 0.929 . S
H766 C770 0.929 . S
H767 C776 0.929 . S
C768 H762 0.930 . S
C768 C769 1.367 . S
C768 C776 1.378 . S
C769 C768 1.367 . S
C769 C777 1.433 . S
C770 H766 0.929 . S
C770 C772 1.378 . S
C770 C774 1.350 . S
C771 C774 1.463 . S
C771 C776 1.350 . S
C771 N779 1.427 . S
C772 H763 0.930 1_545 S
C772 C770 1.378 . S
C772 C773 1.367 . S
C773 C772 1.367 . S
C773 C775 1.433 . S
C774 C770 1.350 . S
C774 C771 1.463 . S
C774 N778 1.427 . S
C775 H765 0.929 . S
C775 C773 1.433 . S
C775 N778 1.384 . S
C776 H767 0.929 . S
C776 C768 1.378 . S
C776 C771 1.350 . S
C777 H764 0.929 . S
C777 C769 1.433 . S
C777 N779 1.384 . S
N778 C774 1.427 . S
N778 C775 1.384 . S
N779 C771 1.427 . S
N779 C777 1.384 . S
H780 C786 0.930 1_565 S
H781 C790 0.930 . S
H782 C795 0.929 . S
H783 C793 0.929 . S
H784 C788 0.929 . S
H785 C794 0.929 . S
C786 H780 0.930 1_545 S
C786 C787 1.367 . S
C786 C794 1.378 . S
C787 C786 1.367 . S
C787 C795 1.433 . S
C788 H784 0.929 . S
C788 C790 1.378 . S
C788 C792 1.350 . S
C789 C792 1.463 . S
C789 C794 1.350 . S
C789 N797 1.427 . S
C790 H781 0.930 . S
C790 C788 1.378 . S
C790 C791 1.367 . S
C791 C790 1.367 . S
C791 C793 1.433 . S
C792 C788 1.350 . S
C792 C789 1.463 . S
C792 N796 1.427 . S
C793 H783 0.929 . S
C793 C791 1.433 . S
C793 N796 1.384 . S
C794 H785 0.929 . S
C794 C786 1.378 . S
C794 C789 1.350 . S
C795 H782 0.929 . S
C795 C787 1.433 . S
C795 N797 1.384 . S
N796 C792 1.427 . S
N796 C793 1.384 . S
N797 C789 1.427 . S
N797 C795 1.384 . S
H798 C804 0.930 . S
H799 C808 0.930 . S
H800 C813 0.929 . S
H801 C811 0.929 . S
H802 C806 0.929 . S
H803 C812 0.929 . S
C804 H798 0.930 . S
C804 C805 1.367 . S
C804 C812 1.378 . S
C805 C804 1.367 . S
C805 C813 1.433 . S
C806 H802 0.929 . S
C806 C808 1.378 . S
C806 C810 1.350 . S
C807 C810 1.463 . S
C807 C812 1.350 . S
C807 N815 1.427 . S
C808 H799 0.930 . S
C808 C806 1.378 . S
C808 C809 1.367 . S
C809 C808 1.367 . S
C809 C811 1.433 . S
C810 C806 1.350 . S
C810 C807 1.463 . S
C810 N814 1.427 . S
C811 H801 0.929 . S
C811 C809 1.433 . S
C811 N814 1.384 . S
C812 H803 0.929 . S
C812 C804 1.378 . S
C812 C807 1.350 . S
C813 H800 0.929 . S
C813 C805 1.433 . S
C813 N815 1.384 . S
N814 C810 1.427 . S
N814 C811 1.384 . S
N815 C807 1.427 . S
N815 C813 1.384 . S
H816 C822 0.930 . S
H817 C826 0.930 . S
H818 C831 0.929 . S
H819 C829 0.929 . S
H820 C824 0.929 . S
H821 C830 0.929 . S
C822 H816 0.930 . S
C822 C823 1.367 . S
C822 C830 1.378 . S
C823 C822 1.367 . S
C823 C831 1.433 . S
C824 H820 0.929 . S
C824 C826 1.378 . S
C824 C828 1.350 . S
C825 C828 1.463 . S
C825 C830 1.350 . S
C825 N833 1.427 . S
C826 H817 0.930 . S
C826 C824 1.378 . S
C826 C827 1.367 . S
C827 C826 1.367 . S
C827 C829 1.433 . S
C828 C824 1.350 . S
C828 C825 1.463 . S
C828 N832 1.427 . S
C829 H819 0.929 . S
C829 C827 1.433 . S
C829 N832 1.384 . S
C830 H821 0.929 . S
C830 C822 1.378 . S
C830 C825 1.350 . S
C831 H818 0.929 . S
C831 C823 1.433 . S
C831 N833 1.384 . S
N832 C828 1.427 . S
N832 C829 1.384 . S
N833 C825 1.427 . S
N833 C831 1.384 . S
H834 C840 0.930 . S
H835 C844 0.930 . S
H836 C849 0.929 . S
H837 C847 0.929 . S
H838 C842 0.929 . S
H839 C848 0.929 . S
C840 H834 0.930 . S
C840 C841 1.367 . S
C840 C848 1.378 . S
C841 C840 1.367 . S
C841 C849 1.433 . S
C842 H838 0.929 . S
C842 C844 1.378 . S
C842 C846 1.350 . S
C843 C846 1.463 . S
C843 C848 1.350 . S
C843 N851 1.427 . S
C844 H835 0.930 . S
C844 C842 1.378 . S
C844 C845 1.367 . S
C845 C844 1.367 . S
C845 C847 1.433 . S
C846 C842 1.350 . S
C846 C843 1.463 . S
C846 N850 1.427 . S
C847 H837 0.929 . S
C847 C845 1.433 . S
C847 N850 1.384 . S
C848 H839 0.929 . S
C848 C840 1.378 . S
C848 C843 1.350 . S
C849 H836 0.929 . S
C849 C841 1.433 . S
C849 N851 1.384 . S
N850 C846 1.427 . S
N850 C847 1.384 . S
N851 C843 1.427 . S
N851 C849 1.384 . S
H852 C858 0.930 . S
H853 C862 0.930 . S
H854 C867 0.929 . S
H855 C865 0.929 . S
H856 C860 0.929 . S
H857 C866 0.929 . S
C858 H852 0.930 . S
C858 C859 1.367 . S
C858 C866 1.378 . S
C859 C858 1.367 . S
C859 C867 1.433 . S
C860 H856 0.929 . S
C860 C862 1.378 . S
C860 C864 1.350 . S
C861 C864 1.463 . S
C861 C866 1.350 . S
C861 N869 1.427 . S
C862 H853 0.930 . S
C862 C860 1.378 . S
C862 C863 1.367 . S
C863 C862 1.367 . S
C863 C865 1.433 . S
C864 C860 1.350 . S
C864 C861 1.463 . S
C864 N868 1.427 . S
C865 H855 0.929 . S
C865 C863 1.433 . S
C865 N868 1.384 . S
C866 H857 0.929 . S
C866 C858 1.378 . S
C866 C861 1.350 . S
C867 H854 0.929 . S
C867 C859 1.433 . S
C867 N869 1.384 . S
N868 C864 1.427 . S
N868 C865 1.384 . S
N869 C861 1.427 . S
N869 C867 1.384 . S
H870 C876 0.930 . S
H871 C880 0.930 . S
H872 C885 0.929 . S
H873 C883 0.929 . S
H874 C878 0.929 . S
H875 C884 0.929 . S
C876 H870 0.930 . S
C876 C877 1.367 . S
C876 C884 1.378 . S
C877 C876 1.367 . S
C877 C885 1.433 . S
C878 H874 0.929 . S
C878 C880 1.378 . S
C878 C882 1.350 . S
C879 C882 1.463 . S
C879 C884 1.350 . S
C879 N887 1.427 . S
C880 H871 0.930 . S
C880 C878 1.378 . S
C880 C881 1.367 . S
C881 C880 1.367 . S
C881 C883 1.433 . S
C882 C878 1.350 . S
C882 C879 1.463 . S
C882 N886 1.427 . S
C883 H873 0.929 . S
C883 C881 1.433 . S
C883 N886 1.384 . S
C884 H875 0.929 . S
C884 C876 1.378 . S
C884 C879 1.350 . S
C885 H872 0.929 . S
C885 C877 1.433 . S
C885 N887 1.384 . S
N886 C882 1.427 . S
N886 C883 1.384 . S
N887 C879 1.427 . S
N887 C885 1.384 . S
H888 C894 0.930 . S
H889 C898 0.930 . S
H890 C903 0.929 . S
H891 C901 0.929 . S
H892 C896 0.929 . S
H893 C902 0.929 . S
C894 H888 0.930 . S
C894 C895 1.367 . S
C894 C902 1.378 . S
C895 C894 1.367 . S
C895 C903 1.433 . S
C896 H892 0.929 . S
C896 C898 1.378 . S
C896 C900 1.350 . S
C897 C900 1.463 . S
C897 C902 1.350 . S
C897 N905 1.427 . S
C898 H889 0.930 . S
C898 C896 1.378 . S
C898 C899 1.367 . S
C899 C898 1.367 . S
C899 C901 1.433 . S
C900 C896 1.350 . S
C900 C897 1.463 . S
C900 N904 1.427 . S
C901 H891 0.929 . S
C901 C899 1.433 . S
C901 N904 1.384 . S
C902 H893 0.929 . S
C902 C894 1.378 . S
C902 C897 1.350 . S
C903 H890 0.929 . S
C903 C895 1.433 . S
C903 N905 1.384 . S
N904 C900 1.427 . S
N904 C901 1.384 . S
N905 C897 1.427 . S
N905 C903 1.384 . S
H906 C912 0.930 . S
H907 C916 0.930 . S
H908 C921 0.929 . S
H909 C919 0.929 . S
H910 C914 0.929 . S
H911 C920 0.929 . S
C912 H906 0.930 . S
C912 C913 1.367 . S
C912 C920 1.378 . S
C913 C912 1.367 . S
C913 C921 1.433 . S
C914 H910 0.929 . S
C914 C916 1.378 . S
C914 C918 1.350 . S
C915 C918 1.463 . S
C915 C920 1.350 . S
C915 N923 1.427 . S
C916 H907 0.930 . S
C916 C914 1.378 . S
C916 C917 1.367 . S
C917 C916 1.367 . S
C917 C919 1.433 . S
C918 C914 1.350 . S
C918 C915 1.463 . S
C918 N922 1.427 . S
C919 H909 0.929 . S
C919 C917 1.433 . S
C919 N922 1.384 . S
C920 H911 0.929 . S
C920 C912 1.378 . S
C920 C915 1.350 . S
C921 H908 0.929 . S
C921 C913 1.433 . S
C921 N923 1.384 . S
N922 C918 1.427 . S
N922 C919 1.384 . S
N923 C915 1.427 . S
N923 C921 1.384 . S
H924 C930 0.930 . S
H925 C934 0.930 . S
H926 C939 0.929 . S
H927 C937 0.929 . S
H928 C932 0.929 . S
H929 C938 0.929 . S
C930 H924 0.930 . S
C930 C931 1.367 . S
C930 C938 1.378 . S
C931 C930 1.367 . S
C931 C939 1.433 . S
C932 H928 0.929 . S
C932 C934 1.378 . S
C932 C936 1.350 . S
C933 C936 1.463 . S
C933 C938 1.350 . S
C933 N941 1.427 . S
C934 H925 0.930 . S
C934 C932 1.378 . S
C934 C935 1.367 . S
C935 C934 1.367 . S
C935 C937 1.433 . S
C936 C932 1.350 . S
C936 C933 1.463 . S
C936 N940 1.427 . S
C937 H927 0.929 . S
C937 C935 1.433 . S
C937 N940 1.384 . S
C938 H929 0.929 . S
C938 C930 1.378 . S
C938 C933 1.350 . S
C939 H926 0.929 . S
C939 C931 1.433 . S
C939 N941 1.384 . S
N940 C936 1.427 . S
N940 C937 1.384 . S
N941 C933 1.427 . S
N941 C939 1.384 . S
H942 C948 0.930 . S
H943 C952 0.930 . S
H944 C957 0.929 . S
H945 C955 0.929 . S
H946 C950 0.929 . S
H947 C956 0.929 . S
C948 H942 0.930 . S
C948 C949 1.367 . S
C948 C956 1.378 . S
C949 C948 1.367 . S
C949 C957 1.433 . S
C950 H946 0.929 . S
C950 C952 1.378 . S
C950 C954 1.350 . S
C951 C954 1.463 . S
C951 C956 1.350 . S
C951 N959 1.427 . S
C952 H943 0.930 . S
C952 C950 1.378 . S
C952 C953 1.367 . S
C953 C952 1.367 . S
C953 C955 1.433 . S
C954 C950 1.350 . S
C954 C951 1.463 . S
C954 N958 1.427 . S
C955 H945 0.929 . S
C955 C953 1.433 . S
C955 N958 1.384 . S
C956 H947 0.929 . S
C956 C948 1.378 . S
C956 C951 1.350 . S
C957 H944 0.929 . S
C957 C949 1.433 . S
C957 N959 1.384 . S
N958 C954 1.427 . S
N958 C955 1.384 . S
N959 C951 1.427 . S
N959 C957 1.384 . S
H960 C966 0.930 . S
H961 C970 0.930 . S
H962 C975 0.929 . S
H963 C973 0.929 . S
H964 C968 0.929 . S
H965 C974 0.929 . S
C966 H960 0.930 . S
C966 C967 1.367 . S
C966 C974 1.378 . S
C967 C966 1.367 . S
C967 C975 1.433 . S
C968 H964 0.929 . S
C968 C970 1.378 . S
C968 C972 1.350 . S
C969 C972 1.463 . S
C969 C974 1.350 . S
C969 N977 1.427 . S
C970 H961 0.930 . S
C970 C968 1.378 . S
C970 C971 1.367 . S
C971 C970 1.367 . S
C971 C973 1.433 . S
C972 C968 1.350 . S
C972 C969 1.463 . S
C972 N976 1.427 . S
C973 H963 0.929 . S
C973 C971 1.433 . S
C973 N976 1.384 . S
C974 H965 0.929 . S
C974 C966 1.378 . S
C974 C969 1.350 . S
C975 H962 0.929 . S
C975 C967 1.433 . S
C975 N977 1.384 . S
N976 C972 1.427 . S
N976 C973 1.384 . S
N977 C969 1.427 . S
N977 C975 1.384 . S
H978 C984 0.930 . S
H979 C988 0.930 . S
H980 C993 0.929 . S
H981 C991 0.929 . S
H982 C986 0.929 . S
H983 C992 0.929 . S
C984 H978 0.930 . S
C984 C985 1.367 . S
C984 C992 1.378 . S
C985 C984 1.367 . S
C985 C993 1.433 . S
C986 H982 0.929 . S
C986 C988 1.378 . S
C986 C990 1.350 . S
C987 C990 1.463 . S
C987 C992 1.350 . S
C987 N995 1.427 . S
C988 H979 0.930 . S
C988 C986 1.378 . S
C988 C989 1.367 . S
C989 C988 1.367 . S
C989 C991 1.433 . S
C990 C986 1.350 . S
C990 C987 1.463 . S
C990 N994 1.427 . S
C991 H981 0.929 . S
C991 C989 1.433 . S
C991 N994 1.384 . S
C992 H983 0.929 . S
C992 C984 1.378 . S
C992 C987 1.350 . S
C993 H980 0.929 . S
C993 C985 1.433 . S
C993 N995 1.384 . S
N994 C990 1.427 . S
N994 C991 1.384 . S
N995 C987 1.427 . S
N995 C993 1.384 . S
H996 C1002 0.930 . S
H997 C1006 0.930 . S
H998 C1011 0.929 . S
H999 C1009 0.929 . S
H1000 C1004 0.929 . S
H1001 C1010 0.929 . S
C1002 H996 0.930 . S
C1002 C1003 1.367 . S
C1002 C1010 1.378 . S
C1003 C1002 1.367 . S
C1003 C1011 1.433 . S
C1004 H1000 0.929 . S
C1004 C1006 1.378 . S
C1004 C1008 1.350 . S
C1005 C1008 1.463 . S
C1005 C1010 1.350 . S
C1005 N1013 1.427 . S
C1006 H997 0.930 . S
C1006 C1004 1.378 . S
C1006 C1007 1.367 . S
C1007 C1006 1.367 . S
C1007 C1009 1.433 . S
C1008 C1004 1.350 . S
C1008 C1005 1.463 . S
C1008 N1012 1.427 . S
C1009 H999 0.929 . S
C1009 C1007 1.433 . S
C1009 N1012 1.384 . S
C1010 H1001 0.929 . S
C1010 C1002 1.378 . S
C1010 C1005 1.350 . S
C1011 H998 0.929 . S
C1011 C1003 1.433 . S
C1011 N1013 1.384 . S
N1012 C1008 1.427 . S
N1012 C1009 1.384 . S
N1013 C1005 1.427 . S
N1013 C1011 1.384 . S
H1014 C1020 0.930 . S
H1015 C1024 0.930 . S
H1016 C1029 0.929 . S
H1017 C1027 0.929 . S
H1018 C1022 0.929 . S
H1019 C1028 0.929 . S
C1020 H1014 0.930 . S
C1020 C1021 1.367 . S
C1020 C1028 1.378 . S
C1021 C1020 1.367 . S
C1021 C1029 1.433 . S
C1022 H1018 0.929 . S
C1022 C1024 1.378 . S
C1022 C1026 1.350 . S
C1023 C1026 1.463 . S
C1023 C1028 1.350 . S
C1023 N1031 1.427 . S
C1024 H1015 0.930 . S
C1024 C1022 1.378 . S
C1024 C1025 1.367 . S
C1025 C1024 1.367 . S
C1025 C1027 1.433 . S
C1026 C1022 1.350 . S
C1026 C1023 1.463 . S
C1026 N1030 1.427 . S
C1027 H1017 0.929 . S
C1027 C1025 1.433 . S
C1027 N1030 1.384 . S
C1028 H1019 0.929 . S
C1028 C1020 1.378 . S
C1028 C1023 1.350 . S
C1029 H1016 0.929 . S
C1029 C1021 1.433 . S
C1029 N1031 1.384 . S
N1030 C1026 1.427 . S
N1030 C1027 1.384 . S
N1031 C1023 1.427 . S
N1031 C1029 1.384 . S
H1032 C1038 0.930 . S
H1033 C1042 0.930 . S
H1034 C1047 0.929 1_655 S
H1035 C1045 0.929 . S
H1036 C1040 0.929 . S
H1037 C1046 0.929 . S
C1038 H1032 0.930 . S
C1038 C1039 1.367 . S
C1038 C1046 1.378 . S
C1039 C1038 1.367 . S
C1039 C1047 1.433 . S
C1040 H1036 0.929 . S
C1040 C1042 1.378 . S
C1040 C1044 1.350 . S
C1041 C1044 1.463 . S
C1041 C1046 1.350 . S
C1041 N1049 1.427 . S
C1042 H1033 0.930 . S
C1042 C1040 1.378 . S
C1042 C1043 1.367 . S
C1043 C1042 1.367 . S
C1043 C1045 1.433 . S
C1044 C1040 1.350 . S
C1044 C1041 1.463 . S
C1044 N1048 1.427 . S
C1045 H1035 0.929 . S
C1045 C1043 1.433 . S
C1045 N1048 1.384 . S
C1046 H1037 0.929 . S
C1046 C1038 1.378 . S
C1046 C1041 1.350 . S
C1047 H1034 0.929 1_455 S
C1047 C1039 1.433 . S
C1047 N1049 1.384 . S
N1048 C1044 1.427 . S
N1048 C1045 1.384 . S
N1049 C1041 1.427 . S
N1049 C1047 1.384 . S
H1050 C1056 0.930 . S
H1051 C1060 0.930 . S
H1052 C1065 0.929 . S
H1053 C1063 0.929 . S
H1054 C1058 0.929 . S
H1055 C1064 0.929 . S
C1056 H1050 0.930 . S
C1056 C1057 1.367 . S
C1056 C1064 1.378 . S
C1057 C1056 1.367 . S
C1057 C1065 1.433 . S
C1058 H1054 0.929 . S
C1058 C1060 1.378 . S
C1058 C1062 1.350 . S
C1059 C1062 1.463 . S
C1059 C1064 1.350 . S
C1059 N1067 1.427 . S
C1060 H1051 0.930 . S
C1060 C1058 1.378 . S
C1060 C1061 1.367 . S
C1061 C1060 1.367 . S
C1061 C1063 1.433 . S
C1062 C1058 1.350 . S
C1062 C1059 1.463 . S
C1062 N1066 1.427 . S
C1063 H1053 0.929 . S
C1063 C1061 1.433 . S
C1063 N1066 1.384 . S
C1064 H1055 0.929 . S
C1064 C1056 1.378 . S
C1064 C1059 1.350 . S
C1065 H1052 0.929 . S
C1065 C1057 1.433 . S
C1065 N1067 1.384 . S
N1066 C1062 1.427 . S
N1066 C1063 1.384 . S
N1067 C1059 1.427 . S
N1067 C1065 1.384 . S
H1068 C1074 0.930 1_556 S
H1069 C1078 0.930 . S
H1070 C1083 0.929 . S
H1071 C1081 0.929 . S
H1072 C1076 0.929 . S
H1073 C1082 0.929 . S
C1074 H1068 0.930 1_554 S
C1074 C1075 1.367 . S
C1074 C1082 1.378 . S
C1075 C1074 1.367 . S
C1075 C1083 1.433 . S
C1076 H1072 0.929 . S
C1076 C1078 1.378 . S
C1076 C1080 1.350 . S
C1077 C1080 1.463 . S
C1077 C1082 1.350 . S
C1077 N1085 1.427 . S
C1078 H1069 0.930 . S
C1078 C1076 1.378 . S
C1078 C1079 1.367 . S
C1079 C1078 1.367 . S
C1079 C1081 1.433 . S
C1080 C1076 1.350 . S
C1080 C1077 1.463 . S
C1080 N1084 1.427 . S
C1081 H1071 0.929 . S
C1081 C1079 1.433 . S
C1081 N1084 1.384 . S
C1082 H1073 0.929 . S
C1082 C1074 1.378 . S
C1082 C1077 1.350 . S
C1083 H1070 0.929 . S
C1083 C1075 1.433 . S
C1083 N1085 1.384 . S
N1084 C1080 1.427 . S
N1084 C1081 1.384 . S
N1085 C1077 1.427 . S
N1085 C1083 1.384 . S
H1086 C1092 0.930 . S
H1087 C1096 0.930 . S
H1088 C1101 0.929 . S
H1089 C1099 0.929 . S
H1090 C1094 0.929 . S
H1091 C1100 0.929 . S
C1092 H1086 0.930 . S
C1092 C1093 1.367 . S
C1092 C1100 1.378 . S
C1093 C1092 1.367 . S
C1093 C1101 1.433 . S
C1094 H1090 0.929 . S
C1094 C1096 1.378 . S
C1094 C1098 1.350 . S
C1095 C1098 1.463 . S
C1095 C1100 1.350 . S
C1095 N1103 1.427 . S
C1096 H1087 0.930 . S
C1096 C1094 1.378 . S
C1096 C1097 1.367 . S
C1097 C1096 1.367 . S
C1097 C1099 1.433 . S
C1098 C1094 1.350 . S
C1098 C1095 1.463 . S
C1098 N1102 1.427 . S
C1099 H1089 0.929 . S
C1099 C1097 1.433 . S
C1099 N1102 1.384 . S
C1100 H1091 0.929 . S
C1100 C1092 1.378 . S
C1100 C1095 1.350 . S
C1101 H1088 0.929 . S
C1101 C1093 1.433 . S
C1101 N1103 1.384 . S
N1102 C1098 1.427 . S
N1102 C1099 1.384 . S
N1103 C1095 1.427 . S
N1103 C1101 1.384 . S
H1104 C1110 0.930 . S
H1105 C1114 0.930 . S
H1106 C1119 0.929 . S
H1107 C1117 0.929 . S
H1108 C1112 0.929 . S
H1109 C1118 0.929 . S
C1110 H1104 0.930 . S
C1110 C1111 1.367 . S
C1110 C1118 1.378 . S
C1111 C1110 1.367 . S
C1111 C1119 1.433 . S
C1112 H1108 0.929 . S
C1112 C1114 1.378 . S
C1112 C1116 1.350 . S
C1113 C1116 1.463 . S
C1113 C1118 1.350 . S
C1113 N1121 1.427 . S
C1114 H1105 0.930 . S
C1114 C1112 1.378 . S
C1114 C1115 1.367 . S
C1115 C1114 1.367 . S
C1115 C1117 1.433 . S
C1116 C1112 1.350 . S
C1116 C1113 1.463 . S
C1116 N1120 1.427 . S
C1117 H1107 0.929 . S
C1117 C1115 1.433 . S
C1117 N1120 1.384 . S
C1118 H1109 0.929 . S
C1118 C1110 1.378 . S
C1118 C1113 1.350 . S
C1119 H1106 0.929 . S
C1119 C1111 1.433 . S
C1119 N1121 1.384 . S
N1120 C1116 1.427 . S
N1120 C1117 1.384 . S
N1121 C1113 1.427 . S
N1121 C1119 1.384 . S
H1122 C1128 0.930 . S
H1123 C1132 0.930 . S
H1124 C1137 0.929 . S
H1125 C1135 0.929 . S
H1126 C1130 0.929 . S
H1127 C1136 0.929 . S
C1128 H1122 0.930 . S
C1128 C1129 1.367 . S
C1128 C1136 1.378 . S
C1129 C1128 1.367 . S
C1129 C1137 1.433 . S
C1130 H1126 0.929 . S
C1130 C1132 1.378 . S
C1130 C1134 1.350 . S
C1131 C1134 1.463 . S
C1131 C1136 1.350 . S
C1131 N1139 1.427 . S
C1132 H1123 0.930 . S
C1132 C1130 1.378 . S
C1132 C1133 1.367 . S
C1133 C1132 1.367 . S
C1133 C1135 1.433 . S
C1134 C1130 1.350 . S
C1134 C1131 1.463 . S
C1134 N1138 1.427 . S
C1135 H1125 0.929 . S
C1135 C1133 1.433 . S
C1135 N1138 1.384 . S
C1136 H1127 0.929 . S
C1136 C1128 1.378 . S
C1136 C1131 1.350 . S
C1137 H1124 0.929 . S
C1137 C1129 1.433 . S
C1137 N1139 1.384 . S
N1138 C1134 1.427 . S
N1138 C1135 1.384 . S
N1139 C1131 1.427 . S
N1139 C1137 1.384 . S
H1140 C1146 0.930 . S
H1141 C1150 0.930 . S
H1142 C1155 0.929 . S
H1143 C1153 0.929 . S
H1144 C1148 0.929 . S
H1145 C1154 0.929 . S
C1146 H1140 0.930 . S
C1146 C1147 1.367 . S
C1146 C1154 1.378 . S
C1147 C1146 1.367 . S
C1147 C1155 1.433 . S
C1148 H1144 0.929 . S
C1148 C1150 1.378 . S
C1148 C1152 1.350 . S
C1149 C1152 1.463 . S
C1149 C1154 1.350 . S
C1149 N1157 1.427 . S
C1150 H1141 0.930 . S
C1150 C1148 1.378 . S
C1150 C1151 1.367 . S
C1151 C1150 1.367 . S
C1151 C1153 1.433 . S
C1152 C1148 1.350 . S
C1152 C1149 1.463 . S
C1152 N1156 1.427 . S
C1153 H1143 0.929 . S
C1153 C1151 1.433 . S
C1153 N1156 1.384 . S
C1154 H1145 0.929 . S
C1154 C1146 1.378 . S
C1154 C1149 1.350 . S
C1155 H1142 0.929 . S
C1155 C1147 1.433 . S
C1155 N1157 1.384 . S
N1156 C1152 1.427 . S
N1156 C1153 1.384 . S
N1157 C1149 1.427 . S
N1157 C1155 1.384 . S
H1158 C1164 0.930 . S
H1159 C1168 0.930 . S
H1160 C1173 0.929 . S
H1161 C1171 0.929 . S
H1162 C1166 0.929 . S
H1163 C1172 0.929 . S
C1164 H1158 0.930 . S
C1164 C1165 1.367 . S
C1164 C1172 1.378 . S
C1165 C1164 1.367 . S
C1165 C1173 1.433 . S
C1166 H1162 0.929 . S
C1166 C1168 1.378 . S
C1166 C1170 1.350 . S
C1167 C1170 1.463 . S
C1167 C1172 1.350 . S
C1167 N1175 1.427 . S
C1168 H1159 0.930 . S
C1168 C1166 1.378 . S
C1168 C1169 1.367 . S
C1169 C1168 1.367 . S
C1169 C1171 1.433 . S
C1170 C1166 1.350 . S
C1170 C1167 1.463 . S
C1170 N1174 1.427 . S
C1171 H1161 0.929 . S
C1171 C1169 1.433 . S
C1171 N1174 1.384 . S
C1172 H1163 0.929 . S
C1172 C1164 1.378 . S
C1172 C1167 1.350 . S
C1173 H1160 0.929 . S
C1173 C1165 1.433 . S
C1173 N1175 1.384 . S
N1174 C1170 1.427 . S
N1174 C1171 1.384 . S
N1175 C1167 1.427 . S
N1175 C1173 1.384 . S
C319 C187 1.887 . S
C323 C4 1.887 . S
C337 C16 1.887 . S
C341 C199 1.887 . S
C355 C239 1.892 . S
C359 C31 1.893 . S
C373 C49 1.872 . S
C377 C173 1.872 . S
C391 C186 1.871 . S
C395 C62 1.871 . S
C409 C68 1.892 . S
C413 C200 1.893 . S
C427 C81 1.887 . S
C431 C238 1.887 . S
C445 C101 1.887 . S
C449 C174 1.887 . S
C463 C120 1.887 . S
C467 C114 1.887 . S
C481 C134 1.871 . S
C485 C127 1.871 . S
C499 C135 1.887 . S
C503 C147 1.887 . S
C517 C148 1.893 . S
C521 C107 1.892 . S
C535 C160 1.887 . S
C539 C42 1.887 . S
C553 C55 1.888 . S
C557 C212 1.887 . S
C571 C225 1.872 . S
C575 C23 1.871 . S
C589 C17 1.207 . S
C593 C283 1.207 . S
C607 C121 1.207 . S
C611 C10 1.207 . S
C625 C302 1.209 . S
C629 C44 1.210 . S
C643 C146 1.221 . S
C647 C29 1.223 . S
C661 C276 1.222 . S
C665 C96 1.223 . S
C679 C122 1.210 . S
C683 C83 1.211 . S
C697 C69 1.207 . S
C701 C309 1.207 . S
C715 C56 1.207 . S
C719 C153 1.207 . S
C733 C205 1.207 . S
C737 C257 1.207 . S
C751 C211 1.223 . S
C755 C198 1.222 . S
C769 C179 1.207 . S
C773 C218 1.207 . S
C787 C250 1.211 . S
C791 C172 1.209 . S
C805 C36 1.207 . S
C809 C264 1.207 . S
C823 C140 1.207 . S
C827 C95 1.207 . S
C841 C3 1.223 . S
C845 C289 1.221 . S
C859 C252 1.887 . S
C863 C30 1.886 . S
C877 C5 1.892 . S
C881 C213 1.893 . S
C895 C251 1.871 . S
C899 C88 1.871 . S
C913 C161 1.893 . S
C917 C94 1.892 . S
C931 C75 1.887 . S
C935 C226 1.887 . S
C949 C277 1.887 . S
C953 C263 1.887 . S
C967 C303 1.872 . S
C971 C270 1.872 . S
C985 C290 1.887 . S
C989 C304 1.887 . S
C1003 C278 1.892 . S
C1007 C291 1.893 . S
C1021 C108 1.207 . S
C1025 C43 1.207 . S
C1039 C18 1.209 . S
C1043 C133 1.210 . S
C1057 C70 1.223 . S
C1061 C109 1.221 . S
C1075 C265 1.211 . S
C1079 C57 1.210 . S
C1093 C82 1.207 . S
C1097 C296 1.207 . S
C1111 C166 1.207 . S
C1115 C192 1.207 . S
C1129 C237 1.222 . S
C1133 C159 1.223 . S
C1147 C231 1.207 . S
C1151 C244 1.207 . S
C1165 C185 1.211 . S
C1169 C224 1.209 . S
