# Generated by pormake.
# Topology wjz, (5)-cn, num edge types: 1
# Building blocks:
#     Node 0, Type 0, BuildingBlock: XOMCOT_clean_sbu_0, # of connection points: 5
#     Node 1, Type 0, BuildingBlock: XOMCOT_clean_sbu_0, # of connection points: 5
#     Node 2, Type 0, BuildingBlock: XOMCOT_clean_sbu_0, # of connection points: 5
#     Node 3, Type 0, BuildingBlock: XOMCOT_clean_sbu_0, # of connection points: 5
#     Node 4, Type 0, BuildingBlock: XOMCOT_clean_sbu_0, # of connection points: 5
#     Node 5, Type 0, BuildingBlock: XOMCOT_clean_sbu_0, # of connection points: 5
#     Node 6, Type 0, BuildingBlock: XOMCOT_clean_sbu_0, # of connection points: 5
#     Node 7, Type 0, BuildingBlock: XOMCOT_clean_sbu_0, # of connection points: 5
#     Node 8, Type 0, BuildingBlock: XOMCOT_clean_sbu_0, # of connection points: 5
#     Node 9, Type 0, BuildingBlock: XOMCOT_clean_sbu_0, # of connection points: 5
#     Node 10, Type 0, BuildingBlock: XOMCOT_clean_sbu_0, # of connection points: 5
#     Node 11, Type 0, BuildingBlock: XOMCOT_clean_sbu_0, # of connection points: 5
#     Edge 12, Type (0, 0), BuildingBlock: TEMPAE_clean_linker_10, # of connection points: 2
#     Edge 13, Type (0, 0), BuildingBlock: TEMPAE_clean_linker_10, # of connection points: 2
#     Edge 14, Type (0, 0), BuildingBlock: TEMPAE_clean_linker_10, # of connection points: 2
#     Edge 15, Type (0, 0), BuildingBlock: TEMPAE_clean_linker_10, # of connection points: 2
#     Edge 16, Type (0, 0), BuildingBlock: TEMPAE_clean_linker_10, # of connection points: 2
#     Edge 17, Type (0, 0), BuildingBlock: TEMPAE_clean_linker_10, # of connection points: 2
#     Edge 18, Type (0, 0), BuildingBlock: TEMPAE_clean_linker_10, # of connection points: 2
#     Edge 19, Type (0, 0), BuildingBlock: TEMPAE_clean_linker_10, # of connection points: 2
#     Edge 20, Type (0, 0), BuildingBlock: TEMPAE_clean_linker_10, # of connection points: 2
#     Edge 21, Type (0, 0), BuildingBlock: TEMPAE_clean_linker_10, # of connection points: 2
#     Edge 22, Type (0, 0), BuildingBlock: TEMPAE_clean_linker_10, # of connection points: 2
#     Edge 23, Type (0, 0), BuildingBlock: TEMPAE_clean_linker_10, # of connection points: 2
#     Edge 24, Type (0, 0), BuildingBlock: TEMPAE_clean_linker_10, # of connection points: 2
#     Edge 25, Type (0, 0), BuildingBlock: TEMPAE_clean_linker_10, # of connection points: 2
#     Edge 26, Type (0, 0), BuildingBlock: TEMPAE_clean_linker_10, # of connection points: 2
#     Edge 27, Type (0, 0), BuildingBlock: TEMPAE_clean_linker_10, # of connection points: 2
#     Edge 28, Type (0, 0), BuildingBlock: TEMPAE_clean_linker_10, # of connection points: 2
#     Edge 29, Type (0, 0), BuildingBlock: TEMPAE_clean_linker_10, # of connection points: 2
#     Edge 30, Type (0, 0), BuildingBlock: TEMPAE_clean_linker_10, # of connection points: 2
#     Edge 31, Type (0, 0), BuildingBlock: TEMPAE_clean_linker_10, # of connection points: 2
#     Edge 32, Type (0, 0), BuildingBlock: TEMPAE_clean_linker_10, # of connection points: 2
#     Edge 33, Type (0, 0), BuildingBlock: TEMPAE_clean_linker_10, # of connection points: 2
#     Edge 34, Type (0, 0), BuildingBlock: TEMPAE_clean_linker_10, # of connection points: 2
#     Edge 35, Type (0, 0), BuildingBlock: TEMPAE_clean_linker_10, # of connection points: 2
#     Edge 36, Type (0, 0), BuildingBlock: TEMPAE_clean_linker_10, # of connection points: 2
#     Edge 37, Type (0, 0), BuildingBlock: TEMPAE_clean_linker_10, # of connection points: 2
#     Edge 38, Type (0, 0), BuildingBlock: TEMPAE_clean_linker_10, # of connection points: 2
#     Edge 39, Type (0, 0), BuildingBlock: TEMPAE_clean_linker_10, # of connection points: 2
#     Edge 40, Type (0, 0), BuildingBlock: TEMPAE_clean_linker_10, # of connection points: 2
#     Edge 41, Type (0, 0), BuildingBlock: TEMPAE_clean_linker_10, # of connection points: 2
# Relax obj value: 0.149
# Max RMSD: 0.180
# Mean RMSD: 0.180
data_MOF--net-wjz--node1-XOMCOT_clean_sbu_0--edge1-TEMPAE_clean_linker_10
_symmetry_space_group_name_H-M    P1
_symmetry_Int_Tables_number       1
_symmetry_cell_setting            triclinic
loop_
_symmetry_equiv_pos_as_xyz
'x, y, z'
_cell_length_a     74.085976
_cell_length_b     74.108851
_cell_length_c     17.712355
_cell_angle_alpha  90.009963
_cell_angle_beta   89.976355
_cell_angle_gamma 120.00722
loop_
_atom_site_label
_atom_site_type_symbol
_atom_site_fract_x
_atom_site_fract_y
_atom_site_fract_z
_atom_type_partial_charge
Co0 Co 0.3255 0.47719 0.10332 0.0
C1 C 0.3311 0.48111 0.27111 0.0
C2 C 0.3403 0.51024 0.2167 0.0
C3 C 0.34125 0.5133 0.29353 0.0
N4 N 0.33424 0.49011 0.2023 0.0
N5 N 0.33547 0.49495 0.32747 0.0
H6 H 0.32419 0.46463 0.28082 0.0
H7 H 0.34284 0.52173 0.17409 0.0
C8 C 0.36905 0.51172 0.08 0.0
O9 O 0.37417 0.50605 0.14304 0.0
N10 N 0.3165 0.46487 0.00478 0.0
C11 C 0.30497 0.44446 0.98792 0.0
C12 C 0.30294 0.44239 0.91051 0.0
C13 C 0.32131 0.47492 0.93801 0.0
N14 N 0.31335 0.46157 0.87944 0.0
C15 C 0.33348 0.4461 0.16526 0.0
C16 C 0.36673 0.45426 0.07275 0.0
C17 C 0.36098 0.43925 0.12976 0.0
C18 C 0.34376 0.43485 0.17506 0.0
C19 C 0.35589 0.46503 0.06466 0.0
N20 N 0.34043 0.46195 0.11412 0.0
H21 H 0.31955 0.44157 0.19755 0.0
H22 H 0.35988 0.4757 0.01793 0.0
H23 H 0.29886 0.43197 0.02891 0.0
H24 H 0.33048 0.49167 0.93222 0.0
O25 O 0.29922 0.45688 0.14588 0.0
O26 O 0.30628 0.48752 0.09885 0.0
O27 O 0.35029 0.50178 0.05607 0.0
C28 C 0.29314 0.47027 0.13267 0.0
H29 H 0.34523 0.52772 0.3222 0.0
H30 H 0.29501 0.42789 0.87941 0.0
H31 H 0.37957 0.45779 0.03492 0.0
H32 H 0.33799 0.42253 0.21685 0.0
Co33 Co 0.8462 0.32427 0.25986 0.0
C34 C 0.84507 0.32668 0.426 0.0
C35 C 0.83638 0.34739 0.37382 0.0
C36 C 0.83542 0.34899 0.45116 0.0
N37 N 0.8426 0.33351 0.35826 0.0
N38 N 0.84073 0.33584 0.48347 0.0
H39 H 0.84995 0.31526 0.43327 0.0
H40 H 0.83258 0.35562 0.33215 0.0
C41 C 0.86278 0.36305 0.16844 0.0
O42 O 0.87828 0.36026 0.14798 0.0
N43 N 0.84893 0.31443 0.16025 0.0
C44 C 0.85377 0.29956 0.14334 0.0
C45 C 0.85325 0.29701 0.06622 0.0
C46 C 0.84398 0.31947 0.09287 0.0
N47 N 0.84713 0.30959 0.03476 0.0
C48 C 0.88634 0.32726 0.27666 0.0
C49 C 0.90736 0.36846 0.32197 0.0
C50 C 0.91835 0.35779 0.31375 0.0
C51 C 0.90764 0.3369 0.29159 0.0
C52 C 0.88616 0.35832 0.30504 0.0
N53 N 0.87606 0.33822 0.27921 0.0
H54 H 0.87813 0.31083 0.26574 0.0
H55 H 0.87787 0.36673 0.31244 0.0
H56 H 0.8565 0.29027 0.1836 0.0
H57 H 0.83806 0.33006 0.08593 0.0
O58 O 0.8386 0.29767 0.30284 0.0
O59 O 0.81644 0.30638 0.25318 0.0
O60 O 0.84851 0.35005 0.21241 0.0
C61 C 0.81944 0.29268 0.28864 0.0
H62 H 0.83067 0.35864 0.48134 0.0
H63 H 0.8565 0.2863 0.0357 0.0
H64 H 0.91514 0.38455 0.34046 0.0
H65 H 0.91556 0.32798 0.28774 0.0
Co66 Co 0.51562 0.8478 0.43869 0.0
C67 C 0.51137 0.84873 0.60672 0.0
C68 C 0.48265 0.82774 0.55167 0.0
C69 C 0.47945 0.82562 0.62845 0.0
N70 N 0.50262 0.8424 0.53779 0.0
N71 N 0.49753 0.83886 0.66277 0.0
H72 H 0.52767 0.85924 0.61684 0.0
H73 H 0.47136 0.81865 0.50868 0.0
C74 C 0.48148 0.85782 0.42278 0.0
O75 O 0.48683 0.86724 0.48861 0.0
N76 N 0.52801 0.85241 0.33991 0.0
C77 C 0.54843 0.86151 0.32291 0.0
C78 C 0.55048 0.86193 0.24543 0.0
C79 C 0.51792 0.84741 0.27325 0.0
N80 N 0.53127 0.85314 0.21453 0.0
C81 C 0.54834 0.88506 0.50516 0.0
C82 C 0.54055 0.91277 0.42754 0.0
C83 C 0.5564 0.92035 0.48175 0.0
C84 C 0.5606 0.90631 0.51954 0.0
C85 C 0.52885 0.89138 0.41423 0.0
N86 N 0.53185 0.87768 0.4566 0.0
H87 H 0.55241 0.87461 0.53262 0.0
H88 H 0.51772 0.88602 0.36865 0.0
H89 H 0.56092 0.86759 0.3639 0.0
H90 H 0.50114 0.83956 0.26776 0.0
O91 O 0.5351 0.84005 0.47649 0.0
O92 O 0.50423 0.81822 0.42664 0.0
O93 O 0.49162 0.84968 0.39465 0.0
C94 C 0.52124 0.82105 0.45887 0.0
H95 H 0.46508 0.81487 0.65686 0.0
H96 H 0.56498 0.86859 0.21425 0.0
H97 H 0.53757 0.92331 0.39457 0.0
H98 H 0.57317 0.91167 0.56019 0.0
Co99 Co 0.66639 0.51531 0.62011 0.0
C100 C 0.66288 0.51199 0.78799 0.0
C101 C 0.64526 0.48219 0.73522 0.0
C102 C 0.644 0.47934 0.81227 0.0
N103 N 0.65643 0.50279 0.71961 0.0
N104 N 0.65521 0.49811 0.84509 0.0
H105 H 0.67392 0.5283 0.79648 0.0
H106 H 0.63934 0.46985 0.69373 0.0
C107 C 0.62247 0.48271 0.58733 0.0
O108 O 0.61659 0.48966 0.64521 0.0
N109 N 0.67672 0.52746 0.52188 0.0
C110 C 0.68695 0.54794 0.50529 0.0
C111 C 0.68915 0.55021 0.42808 0.0
C112 C 0.67309 0.51752 0.45494 0.0
N113 N 0.6804 0.53109 0.39664 0.0
C114 C 0.65712 0.54558 0.68196 0.0
C115 C 0.62812 0.54086 0.57409 0.0
C116 C 0.63231 0.55471 0.63392 0.0
C117 C 0.64734 0.55741 0.68734 0.0
C118 C 0.63858 0.52964 0.5701 0.0
N119 N 0.65194 0.5311 0.6262 0.0
H120 H 0.66927 0.54855 0.72156 0.0
H121 H 0.63594 0.51979 0.52161 0.0
H122 H 0.69167 0.56032 0.54628 0.0
H123 H 0.66437 0.50075 0.44863 0.0
O124 O 0.69235 0.5354 0.6649 0.0
O125 O 0.68509 0.50435 0.62107 0.0
O126 O 0.64177 0.49106 0.57031 0.0
C127 C 0.69812 0.52163 0.65507 0.0
H128 H 0.63649 0.46456 0.84177 0.0
H129 H 0.69622 0.56478 0.3973 0.0
H130 H 0.61712 0.539 0.53026 0.0
H131 H 0.65138 0.56847 0.73314 0.0
Co132 Co 0.14724 0.66907 0.76027 0.0
C133 C 0.14554 0.66371 0.92823 0.0
C134 C 0.16469 0.65351 0.87383 0.0
C135 C 0.16669 0.65243 0.95062 0.0
N136 N 0.15115 0.66027 0.85946 0.0
N137 N 0.15461 0.65884 0.98454 0.0
H138 H 0.13645 0.67114 0.93796 0.0
H139 H 0.17332 0.65051 0.83121 0.0
C140 C 0.13659 0.62504 0.73957 0.0
O141 O 0.12544 0.62057 0.8017 0.0
N142 N 0.14421 0.67813 0.66155 0.0
C143 C 0.13615 0.6904 0.64477 0.0
C144 C 0.13614 0.69243 0.5674 0.0
C145 C 0.14897 0.67285 0.59479 0.0
N146 N 0.14411 0.68128 0.5363 0.0
C147 C 0.10856 0.66235 0.82244 0.0
C148 C 0.08284 0.62982 0.72835 0.0
C149 C 0.0739 0.6359 0.78542 0.0
C150 C 0.08704 0.65274 0.83166 0.0
C151 C 0.10446 0.63993 0.72109 0.0
N152 N 0.1171 0.65503 0.77122 0.0
H153 H 0.11827 0.67611 0.8551 0.0
H154 H 0.11095 0.63567 0.67448 0.0
H155 H 0.13034 0.69706 0.68581 0.0
H156 H 0.15585 0.66303 0.58897 0.0
O157 O 0.15412 0.69571 0.80182 0.0
O158 O 0.17694 0.68751 0.75513 0.0
O159 O 0.14611 0.64369 0.71436 0.0
C160 C 0.17343 0.70117 0.78814 0.0
H161 H 0.17671 0.6479 0.97928 0.0
H162 H 0.13018 0.70092 0.53636 0.0
H163 H 0.07327 0.61725 0.68994 0.0
H164 H 0.08073 0.6587 0.87368 0.0
Co165 Co 0.47384 0.14763 0.91264 0.0
C166 C 0.47701 0.14667 0.07819 0.0
C167 C 0.50719 0.16347 0.02608 0.0
C168 C 0.50968 0.16544 0.10331 0.0
N169 N 0.48672 0.15175 0.01063 0.0
N170 N 0.49069 0.15492 0.13582 0.0
H171 H 0.46024 0.13817 0.08479 0.0
H172 H 0.51935 0.17088 0.98415 0.0
C173 C 0.49707 0.13249 0.81893 0.0
O174 O 0.47916 0.11801 0.79133 0.0
N175 N 0.46116 0.14442 0.81324 0.0
C176 C 0.44121 0.13868 0.79632 0.0
C177 C 0.43939 0.14015 0.71944 0.0
C178 C 0.47132 0.15045 0.74641 0.0
N179 N 0.45833 0.14733 0.68822 0.0
C180 C 0.43719 0.10798 0.93876 0.0
C181 C 0.45786 0.08659 0.97182 0.0
C182 C 0.43602 0.07591 0.97435 0.0
C183 C 0.42571 0.08699 0.95855 0.0
C184 C 0.46871 0.10765 0.95297 0.0
N185 N 0.45836 0.11787 0.93282 0.0
H186 H 0.429 0.11642 0.93172 0.0
H187 H 0.48551 0.11582 0.95607 0.0
H188 H 0.42881 0.1345 0.8365 0.0
H189 H 0.48801 0.15741 0.74018 0.0
O190 O 0.45452 0.15493 0.95496 0.0
O191 O 0.48521 0.17732 0.90469 0.0
O192 O 0.49777 0.14566 0.86712 0.0
C193 C 0.46837 0.17412 0.9397 0.0
H194 H 0.52428 0.17433 0.13318 0.0
H195 H 0.42522 0.13614 0.68886 0.0
H196 H 0.46659 0.07882 0.98444 0.0
H197 H 0.40893 0.07969 0.96341 0.0
Co198 Co 0.51362 0.66524 0.71998 0.0
C199 C 0.51013 0.66223 0.55203 0.0
C200 C 0.48035 0.64465 0.60517 0.0
C201 C 0.47743 0.6435 0.52816 0.0
N202 N 0.50098 0.65573 0.62046 0.0
N203 N 0.49619 0.65467 0.49513 0.0
H204 H 0.52646 0.67317 0.54336 0.0
H205 H 0.46807 0.63865 0.64692 0.0
C206 C 0.48119 0.62105 0.75027 0.0
O207 O 0.48806 0.6155 0.69129 0.0
N208 N 0.52587 0.67508 0.81833 0.0
C209 C 0.54635 0.68511 0.83495 0.0
C210 C 0.54861 0.68725 0.91217 0.0
C211 C 0.51592 0.67153 0.88522 0.0
N212 N 0.52948 0.67869 0.94355 0.0
C213 C 0.54439 0.65718 0.65539 0.0
C214 C 0.5398 0.62711 0.75806 0.0
C215 C 0.55384 0.63201 0.69797 0.0
C216 C 0.55643 0.64768 0.64744 0.0
C217 C 0.52836 0.63731 0.7646 0.0
N218 N 0.52973 0.65117 0.71082 0.0
H219 H 0.54746 0.66986 0.6183 0.0
H220 H 0.51836 0.634 0.81316 0.0
H221 H 0.55873 0.68982 0.79393 0.0
H222 H 0.49914 0.66304 0.8914 0.0
O223 O 0.53341 0.69154 0.67659 0.0
O224 O 0.50232 0.68364 0.72213 0.0
O225 O 0.4896 0.64023 0.76893 0.0
C226 C 0.5195 0.69702 0.68837 0.0
H227 H 0.46262 0.636 0.49885 0.0
H228 H 0.56318 0.69424 0.94299 0.0
H229 H 0.53748 0.61541 0.79948 0.0
H230 H 0.56793 0.65288 0.60274 0.0
Co231 Co 0.8461 0.51566 0.9134 0.0
C232 C 0.84602 0.51135 0.74498 0.0
C233 C 0.82329 0.48345 0.80035 0.0
C234 C 0.82084 0.48029 0.72364 0.0
N235 N 0.83922 0.50287 0.81395 0.0
N236 N 0.83518 0.49785 0.68915 0.0
H237 H 0.85775 0.52727 0.73464 0.0
H238 H 0.81372 0.47251 0.84354 0.0
C239 C 0.85427 0.48038 0.92005 0.0
O240 O 0.86253 0.48583 0.85238 0.0
N241 N 0.85205 0.52792 0.0124 0.0
C242 C 0.86213 0.54837 0.02941 0.0
C243 C 0.86274 0.55044 0.10682 0.0
C244 C 0.84667 0.51781 0.07895 0.0
N245 N 0.85306 0.5312 0.13764 0.0
C246 C 0.88368 0.54752 0.84485 0.0
C247 C 0.9107 0.53858 0.92165 0.0
C248 C 0.91876 0.55474 0.86861 0.0
C249 C 0.90501 0.5594 0.83079 0.0
C250 C 0.88927 0.52715 0.9341 0.0
N251 N 0.87588 0.53083 0.89262 0.0
H252 H 0.87351 0.5521 0.81821 0.0
H253 H 0.88365 0.51582 0.97903 0.0
H254 H 0.86857 0.56086 0.98842 0.0
H255 H 0.83796 0.50101 0.08429 0.0
O256 O 0.83922 0.53608 0.87906 0.0
O257 O 0.81681 0.50546 0.92921 0.0
O258 O 0.84732 0.4909 0.95388 0.0
C259 C 0.82014 0.52277 0.89799 0.0
H260 H 0.80925 0.4663 0.69543 0.0
H261 H 0.86998 0.56494 0.138 0.0
H262 H 0.92092 0.53518 0.95485 0.0
H263 H 0.91065 0.57214 0.79081 0.0
Co264 Co 0.32608 0.8481 0.0738 0.0
C265 C 0.33101 0.84994 0.90586 0.0
C266 C 0.34675 0.83588 0.95965 0.0
C267 C 0.34775 0.83384 0.88278 0.0
N268 N 0.3367 0.84649 0.97459 0.0
N269 N 0.33788 0.84276 0.84926 0.0
H270 H 0.32029 0.85556 0.89665 0.0
H271 H 0.35185 0.82884 1.00174 0.0
C272 C 0.3703 0.86094 0.10551 0.0
O273 O 0.37558 0.87385 0.04811 0.0
N274 N 0.31517 0.84869 0.17231 0.0
C275 C 0.30152 0.85506 0.18948 0.0
C276 C 0.29885 0.8541 0.26678 0.0
C277 C 0.32059 0.84393 0.23888 0.0
N278 N 0.31098 0.84725 0.29749 0.0
C279 C 0.33496 0.88779 0.01397 0.0
C280 C 0.36216 0.91173 0.12699 0.0
C281 C 0.35905 0.92152 0.0651 0.0
C282 C 0.345 0.90942 0.00883 0.0
C283 C 0.35207 0.89002 0.12908 0.0
N284 N 0.33959 0.87833 0.07069 0.0
H285 H 0.32312 0.87877 0.97327 0.0
H286 H 0.35448 0.88262 0.17752 0.0
H287 H 0.29446 0.86056 0.14892 0.0
H288 H 0.33153 0.83839 0.2447 0.0
O289 O 0.29997 0.84149 0.02823 0.0
O290 O 0.30828 0.81832 0.07058 0.0
O291 O 0.35113 0.84931 0.12296 0.0
C292 C 0.29485 0.82208 0.03712 0.0
H293 H 0.35449 0.82573 0.85389 0.0
H294 H 0.28937 0.85885 0.29816 0.0
H295 H 0.37256 0.92076 0.17243 0.0
H296 H 0.34165 0.91664 0.96185 0.0
Co297 Co 0.47919 0.32855 0.22705 0.0
C298 C 0.48301 0.33438 0.05938 0.0
C299 C 0.51221 0.34366 0.11345 0.0
C300 C 0.5152 0.34456 0.03659 0.0
N301 N 0.49207 0.33757 0.1281 0.0
N302 N 0.49681 0.33872 1.00286 0.0
H303 H 0.46651 0.32738 0.04987 0.0
H304 H 0.52373 0.34617 0.1559 0.0
C305 C 0.51384 0.37198 0.25174 0.0
O306 O 0.50819 0.37736 0.18924 0.0
N307 N 0.46688 0.31927 0.32554 0.0
C308 C 0.44646 0.30775 0.34235 0.0
C309 C 0.44437 0.30565 0.41974 0.0
C310 C 0.47692 0.324 0.39234 0.0
N311 N 0.46354 0.316 0.45088 0.0
C312 C 0.44799 0.33662 0.16701 0.0
C313 C 0.45596 0.36939 0.26179 0.0
C314 C 0.44062 0.36346 0.20611 0.0
C315 C 0.43637 0.34658 0.15934 0.0
C316 C 0.46706 0.35883 0.26791 0.0
N317 N 0.46397 0.34354 0.21763 0.0
H318 H 0.4436 0.32292 0.13356 0.0
H319 H 0.47784 0.36276 0.31426 0.0
H320 H 0.43397 0.30174 0.30136 0.0
H321 H 0.49367 0.33318 0.39819 0.0
O322 O 0.45883 0.30244 0.18377 0.0
O323 O 0.48948 0.30928 0.22997 0.0
O324 O 0.50383 0.35315 0.27486 0.0
C325 C 0.4722 0.29629 0.19595 0.0
H326 H 0.5296 0.34849 0.00776 0.0
H327 H 0.42985 0.29774 0.45078 0.0
H328 H 0.45899 0.38174 0.30134 0.0
H329 H 0.42419 0.34111 0.1171 0.0
Co330 Co 0.1464 0.47625 0.41457 0.0
C331 C 0.14428 0.47975 0.24688 0.0
C332 C 0.16398 0.50908 0.3006 0.0
C333 C 0.16595 0.51203 0.22378 0.0
N334 N 0.15015 0.4889 0.31541 0.0
N335 N 0.15356 0.49356 0.19025 0.0
H336 H 0.13487 0.46323 0.23767 0.0
H337 H 0.17288 0.52068 0.34294 0.0
C338 C 0.13653 0.51016 0.43585 0.0
O339 O 0.12538 0.50367 0.37372 0.0
N340 N 0.14352 0.46416 0.51322 0.0
C341 C 0.13531 0.44381 0.52987 0.0
C342 C 0.13533 0.44172 0.6072 0.0
C343 C 0.14839 0.47418 0.58003 0.0
N344 N 0.14345 0.46083 0.63842 0.0
C345 C 0.10735 0.4442 0.35538 0.0
C346 C 0.08221 0.45207 0.44896 0.0
C347 C 0.07306 0.43643 0.39451 0.0
C348 C 0.08576 0.43211 0.34857 0.0
C349 C 0.10385 0.46346 0.45496 0.0
N350 N 0.11621 0.46046 0.40501 0.0
H351 H 0.11686 0.44 0.3222 0.0
H352 H 0.11056 0.47443 0.5008 0.0
H353 H 0.12935 0.43135 0.48879 0.0
H354 H 0.15536 0.49088 0.58596 0.0
O355 O 0.1528 0.45621 0.3723 0.0
O356 O 0.17607 0.48713 0.41814 0.0
O357 O 0.1458 0.50076 0.46089 0.0
C358 C 0.17222 0.46989 0.38484 0.0
H359 H 0.17621 0.52646 0.19483 0.0
H360 H 0.12924 0.42724 0.63813 0.0
H361 H 0.0727 0.45514 0.48749 0.0
H362 H 0.07904 0.41955 0.30773 0.0
Co363 Co 0.66895 0.14794 0.5959 0.0
C364 C 0.66584 0.14789 0.4278 0.0
C365 C 0.64493 0.15609 0.48021 0.0
C366 C 0.6436 0.15761 0.40321 0.0
N367 N 0.65828 0.14916 0.49605 0.0
N368 N 0.65686 0.15255 0.37062 0.0
H369 H 0.67846 0.14478 0.41956 0.0
H370 H 0.63751 0.161 0.5214 0.0
C371 C 0.62412 0.13209 0.62849 0.0
O372 O 0.61961 0.11839 0.57422 0.0
N373 N 0.67994 0.14748 0.69427 0.0
C374 C 0.69206 0.13922 0.71072 0.0
C375 C 0.69461 0.13962 0.78779 0.0
C376 C 0.6755 0.15308 0.76118 0.0
N377 N 0.68417 0.1483 0.81932 0.0
C378 C 0.66231 0.10949 0.53246 0.0
C379 C 0.63503 0.08364 0.64184 0.0
C380 C 0.63882 0.07474 0.57821 0.0
C381 C 0.65331 0.08801 0.52469 0.0
C382 C 0.64469 0.10528 0.64789 0.0
N383 N 0.65689 0.11785 0.59066 0.0
H384 H 0.67386 0.11932 0.49203 0.0
H385 H 0.64176 0.11191 0.69752 0.0
H386 H 0.69792 0.1326 0.66969 0.0
H387 H 0.66535 0.15956 0.76759 0.0
O388 O 0.69545 0.15577 0.55162 0.0
O389 O 0.68573 0.17792 0.5934 0.0
O390 O 0.64306 0.14529 0.6445 0.0
C391 C 0.69968 0.17491 0.55987 0.0
H392 H 0.63453 0.16316 0.37363 0.0
H393 H 0.70312 0.13362 0.81844 0.0
H394 H 0.62428 0.07406 0.68554 0.0
H395 H 0.65769 0.08188 0.47694 0.0
C396 C 0.33705 0.47593 0.43895 0.0
C397 C 0.33248 0.49048 0.40705 0.0
C398 C 0.33418 0.47136 0.51644 0.0
C399 C 0.32617 0.48131 0.56279 0.0
C400 C 0.32135 0.49589 0.53065 0.0
C401 C 0.32473 0.50042 0.45325 0.0
C402 C 0.3398 0.45596 0.54874 0.0
C403 C 0.31241 0.50652 0.57786 0.0
C404 C 0.30074 0.45477 0.74789 0.0
C405 C 0.31641 0.46669 0.80028 0.0
C406 C 0.3036 0.45951 0.67051 0.0
C407 C 0.32275 0.47638 0.64484 0.0
C408 C 0.33865 0.48844 0.69753 0.0
C409 C 0.33523 0.48353 0.77464 0.0
C410 C 0.28613 0.44652 0.61625 0.0
C411 C 0.35938 0.50638 0.67241 0.0
H412 H 0.34319 0.46837 0.40327 0.0
H413 H 0.32088 0.51143 0.42841 0.0
H414 H 0.35149 0.46344 0.5944 0.0
H415 H 0.32582 0.4426 0.57421 0.0
H416 H 0.34625 0.4499 0.50534 0.0
H417 H 0.30928 0.51729 0.54405 0.0
H418 H 0.29762 0.49468 0.60453 0.0
H419 H 0.32334 0.51549 0.62407 0.0
H420 H 0.28611 0.4419 0.7677 0.0
H421 H 0.34749 0.4926 0.81486 0.0
H422 H 0.29136 0.43889 0.57468 0.0
H423 H 0.28181 0.45664 0.58407 0.0
H424 H 0.27203 0.43428 0.6455 0.0
H425 H 0.36693 0.50072 0.63215 0.0
H426 H 0.37016 0.51412 0.72052 0.0
H427 H 0.357 0.51814 0.6423 0.0
C428 C 0.86042 0.31379 0.90486 0.0
C429 C 0.84531 0.31258 0.95542 0.0
C430 C 0.85944 0.31755 0.82769 0.0
C431 C 0.84261 0.31958 0.80007 0.0
C432 C 0.82705 0.31795 0.85078 0.0
C433 C 0.82877 0.31478 0.9281 0.0
C434 C 0.87664 0.31974 0.776 0.0
C435 C 0.80859 0.3195 0.82332 0.0
C436 C 0.84964 0.34825 0.61448 0.0
C437 C 0.8409 0.33176 0.56275 0.0
C438 C 0.85034 0.34452 0.6919 0.0
C439 C 0.84152 0.32374 0.7183 0.0
C440 C 0.83219 0.30701 0.66623 0.0
C441 C 0.83228 0.31125 0.58889 0.0
C442 C 0.86089 0.36282 0.74519 0.0
C443 C 0.82208 0.28463 0.69214 0.0
H444 H 0.87336 0.31237 0.92627 0.0
H445 H 0.81701 0.31368 0.96723 0.0
H446 H 0.8701 0.30777 0.73089 0.0
H447 H 0.8841 0.33521 0.74801 0.0
H448 H 0.88882 0.31809 0.80664 0.0
H449 H 0.79736 0.31691 0.86937 0.0
H450 H 0.81396 0.33511 0.79849 0.0
H451 H 0.80034 0.30785 0.77815 0.0
H452 H 0.8564 0.36409 0.59387 0.0
H453 H 0.82528 0.29853 0.54872 0.0
H454 H 0.87392 0.36245 0.7747 0.0
H455 H 0.84975 0.36183 0.78905 0.0
H456 H 0.86716 0.37799 0.71552 0.0
H457 H 0.83394 0.2816 0.71802 0.0
H458 H 0.81445 0.27344 0.64503 0.0
H459 H 0.81022 0.28162 0.73611 0.0
C460 C 0.50888 0.85224 0.10992 0.0
C461 C 0.52608 0.85089 0.13544 0.0
C462 C 0.50378 0.85036 0.03292 0.0
C463 C 0.51605 0.84678 0.98028 0.0
C464 C 0.53332 0.8452 0.00582 0.0
C465 C 0.53821 0.84742 0.08306 0.0
C466 C 0.4854 0.8524 0.00787 0.0
C467 C 0.54658 0.84108 0.95159 0.0
C468 C 0.49225 0.82339 0.78978 0.0
C469 C 0.50178 0.84089 0.74255 0.0
C470 C 0.49676 0.82507 0.86729 0.0
C471 C 0.5109 0.84479 0.8984 0.0
C472 C 0.52034 0.86257 0.85107 0.0
C473 C 0.51579 0.86036 0.77356 0.0
C474 C 0.48665 0.8057 0.91565 0.0
C475 C 0.53526 0.8839 0.88229 0.0
H476 H 0.49963 0.85518 0.15014 0.0
H477 H 0.55136 0.84613 0.10276 0.0
H478 H 0.49063 0.86544 0.96708 0.0
H479 H 0.47386 0.838 0.97838 0.0
H480 H 0.47752 0.85527 0.05594 0.0
H481 H 0.55921 0.83987 0.98073 0.0
H482 H 0.53672 0.82637 0.92035 0.0
H483 H 0.55373 0.85377 0.90923 0.0
H484 H 0.48164 0.80829 0.76567 0.0
H485 H 0.52301 0.87391 0.73712 0.0
H486 H 0.47766 0.80759 0.96197 0.0
H487 H 0.49882 0.80324 0.94217 0.0
H488 H 0.476 0.79155 0.88273 0.0
H489 H 0.52757 0.88789 0.92788 0.0
H490 H 0.54081 0.89622 0.83828 0.0
H491 H 0.54897 0.88394 0.90756 0.0
C492 C 0.64329 0.49218 0.97712 0.0
C493 C 0.65939 0.50227 0.92442 0.0
C494 C 0.6469 0.49654 0.0546 0.0
C495 C 0.66726 0.51097 0.08004 0.0
C496 C 0.68371 0.52078 0.02701 0.0
C497 C 0.67951 0.5165 0.94969 0.0
C498 C 0.62885 0.48608 0.10899 0.0
C499 C 0.70572 0.53585 0.05187 0.0
C500 C 0.67314 0.53827 0.26773 0.0
C501 C 0.6775 0.5262 0.31726 0.0
C502 C 0.66973 0.53345 0.19054 0.0
C503 C 0.67113 0.51636 0.16179 0.0
C504 C 0.67583 0.50427 0.21139 0.0
C505 C 0.67871 0.50919 0.28875 0.0
C506 C 0.6643 0.54646 0.13999 0.0
C507 C 0.67786 0.48618 0.18271 0.0
H508 H 0.62773 0.48127 0.95726 0.0
H509 H 0.69202 0.52405 0.90887 0.0
H510 H 0.63215 0.47734 0.15243 0.0
H511 H 0.62671 0.49804 0.13892 0.0
H512 H 0.61402 0.47513 0.08016 0.0
H513 H 0.71693 0.5412 0.00403 0.0
H514 H 0.70635 0.54968 0.0787 0.0
H515 H 0.71081 0.52842 0.09478 0.0
H516 H 0.67188 0.55123 0.28985 0.0
H517 H 0.68223 0.49995 0.32696 0.0
H518 H 0.64896 0.5364 0.11285 0.0
H519 H 0.676 0.55357 0.09418 0.0
H520 H 0.66362 0.55909 0.17132 0.0
H521 H 0.66285 0.47416 0.15807 0.0
H522 H 0.6824 0.47886 0.22803 0.0
H523 H 0.68971 0.49151 0.13711 0.0
C524 C 0.13428 0.65804 0.09573 0.0
C525 C 0.1532 0.66184 0.06411 0.0
C526 C 0.13265 0.66096 0.17319 0.0
C527 C 0.15048 0.6682 0.21978 0.0
C528 C 0.16968 0.67222 0.18796 0.0
C529 C 0.17076 0.66883 0.11055 0.0
C530 C 0.11184 0.65622 0.20521 0.0
C531 C 0.18912 0.6803 0.23551 0.0
C532 C 0.15053 0.69406 0.40505 0.0
C533 C 0.146 0.67812 0.45716 0.0
C534 C 0.15226 0.69113 0.32766 0.0
C535 C 0.14907 0.67166 0.30176 0.0
C536 C 0.14444 0.65548 0.35416 0.0
C537 C 0.14308 0.65896 0.43129 0.0
C538 C 0.15757 0.70886 0.27365 0.0
C539 C 0.14066 0.63442 0.32869 0.0
H540 H 0.12068 0.65248 0.05984 0.0
H541 H 0.18547 0.67208 0.08591 0.0
H542 H 0.10707 0.64439 0.25066 0.0
H543 H 0.11311 0.67046 0.23089 0.0
H544 H 0.0994 0.65032 0.1616 0.0
H545 H 0.20286 0.68283 0.20193 0.0
H546 H 0.1927 0.69526 0.26236 0.0
H547 H 0.18656 0.66913 0.28159 0.0
H548 H 0.153 0.70894 0.42508 0.0
H549 H 0.1393 0.64652 0.47133 0.0
H550 H 0.14485 0.7042 0.23183 0.0
H551 H 0.17192 0.71263 0.24174 0.0
H552 H 0.16002 0.72316 0.30308 0.0
H553 H 0.1273 0.62734 0.28896 0.0
H554 H 0.13732 0.62354 0.3767 0.0
H555 H 0.15449 0.63618 0.29788 0.0
C556 C 0.45316 0.15602 0.55827 0.0
C557 C 0.46338 0.14961 0.60895 0.0
C558 C 0.45749 0.15753 0.48048 0.0
C559 C 0.47206 0.15208 0.45267 0.0
C560 C 0.4824 0.14559 0.50371 0.0
C561 C 0.47807 0.14462 0.58122 0.0
C562 C 0.44645 0.16493 0.42806 0.0
C563 C 0.4978 0.13933 0.47635 0.0
C564 C 0.46906 0.1364 0.24641 0.0
C565 C 0.48585 0.15427 0.21493 0.0
C566 C 0.46432 0.13549 0.32363 0.0
C567 C 0.47647 0.15302 0.3702 0.0
C568 C 0.4932 0.17125 0.33834 0.0
C569 C 0.49778 0.17159 0.26123 0.0
C570 C 0.44654 0.11567 0.35562 0.0
C571 C 0.5063 0.19038 0.38571 0.0
H572 H 0.44192 0.16003 0.5797 0.0
H573 H 0.48575 0.13937 0.62014 0.0
H574 H 0.45805 0.17869 0.39563 0.0
H575 H 0.43699 0.15254 0.38658 0.0
H576 H 0.43606 0.16919 0.45888 0.0
H577 H 0.50418 0.13428 0.52329 0.0
H578 H 0.49018 0.12638 0.43512 0.0
H579 H 0.51094 0.15259 0.44683 0.0
H580 H 0.45991 0.12297 0.21078 0.0
H581 H 0.51053 0.18556 0.23679 0.0
H582 H 0.43496 0.11893 0.38266 0.0
H583 H 0.45246 0.10939 0.40001 0.0
H584 H 0.4385 0.10351 0.31174 0.0
H585 H 0.49619 0.19544 0.41389 0.0
H586 H 0.51822 0.20357 0.35172 0.0
H587 H 0.51434 0.18668 0.43076 0.0
C588 C 0.5147 0.67878 0.39018 0.0
C589 C 0.50033 0.65874 0.41575 0.0
C590 C 0.51905 0.68285 0.31283 0.0
C591 C 0.50916 0.66634 0.2601 0.0
C592 C 0.49456 0.64608 0.28584 0.0
C593 C 0.49014 0.6426 0.36332 0.0
C594 C 0.5343 0.70478 0.28765 0.0
C595 C 0.48401 0.62796 0.23177 0.0
C596 C 0.50765 0.67749 0.05095 0.0
C597 C 0.52455 0.67601 0.02292 0.0
C598 C 0.50268 0.67481 0.12829 0.0
C599 C 0.51463 0.67005 0.17838 0.0
C600 C 0.53164 0.6684 0.15014 0.0
C601 C 0.5365 0.6716 0.07293 0.0
C602 C 0.48471 0.67711 0.15642 0.0
C603 C 0.54449 0.6629 0.20126 0.0
H604 H 0.52234 0.69132 0.4308 0.0
H605 H 0.47913 0.6271 0.38342 0.0
H606 H 0.54817 0.70525 0.26181 0.0
H607 H 0.52707 0.70985 0.24385 0.0
H608 H 0.53955 0.71608 0.33516 0.0
H609 H 0.47292 0.61323 0.26081 0.0
H610 H 0.47541 0.63132 0.18795 0.0
H611 H 0.49591 0.62564 0.2023 0.0
H612 H 0.49851 0.68106 0.01238 0.0
H613 H 0.54938 0.67014 0.05119 0.0
H614 H 0.49012 0.68904 0.20172 0.0
H615 H 0.47256 0.66221 0.1813 0.0
H616 H 0.47751 0.68168 0.11074 0.0
H617 H 0.55165 0.67467 0.24682 0.0
H618 H 0.55708 0.66205 0.1703 0.0
H619 H 0.53431 0.64763 0.22869 0.0
C620 C 0.85744 0.51496 0.57876 0.0
C621 C 0.83761 0.502 0.60937 0.0
C622 C 0.86006 0.51947 0.5013 0.0
C623 C 0.84236 0.511 0.45359 0.0
C624 C 0.82229 0.49789 0.4842 0.0
C625 C 0.82017 0.49344 0.56175 0.0
C626 C 0.88174 0.53333 0.47057 0.0
C627 C 0.80303 0.48878 0.43523 0.0
C628 C 0.84744 0.53881 0.26817 0.0
C629 C 0.8502 0.52603 0.21668 0.0
C630 C 0.84465 0.53398 0.34538 0.0
C631 C 0.84486 0.51605 0.37174 0.0
C632 C 0.84766 0.50309 0.32003 0.0
C633 C 0.8502 0.50818 0.243 0.0
C634 C 0.84143 0.54802 0.39873 0.0
C635 C 0.84821 0.48398 0.34622 0.0
H636 H 0.87094 0.5214 0.61547 0.0
H637 H 0.8048 0.48365 0.58554 0.0
H638 H 0.88515 0.52503 0.42564 0.0
H639 H 0.8828 0.54744 0.44457 0.0
H640 H 0.89389 0.53829 0.51501 0.0
H641 H 0.78857 0.47884 0.46782 0.0
H642 H 0.80162 0.50151 0.40807 0.0
H643 H 0.80432 0.47929 0.38938 0.0
H644 H 0.84716 0.55245 0.24779 0.0
H645 H 0.85259 0.49842 0.20344 0.0
H646 H 0.85402 0.55455 0.44162 0.0
H647 H 0.82646 0.53892 0.42941 0.0
H648 H 0.84126 0.56113 0.36894 0.0
H649 H 0.86136 0.4886 0.38606 0.0
H650 H 0.85003 0.47527 0.29862 0.0
H651 H 0.83368 0.47337 0.37711 0.0
C652 C 0.33442 0.85109 0.40266 0.0
C653 C 0.31446 0.84564 0.37658 0.0
C654 C 0.33827 0.85037 0.47986 0.0
C655 C 0.32167 0.84371 0.53216 0.0
C656 C 0.30139 0.8378 0.50595 0.0
C657 C 0.29808 0.83905 0.42849 0.0
C658 C 0.36019 0.85714 0.50553 0.0
C659 C 0.2832 0.83018 0.55973 0.0
C660 C 0.32894 0.82554 0.72475 0.0
C661 C 0.3337 0.84288 0.76998 0.0
C662 C 0.32467 0.82545 0.64745 0.0
C663 C 0.32563 0.84332 0.61442 0.0
C664 C 0.33054 0.86091 0.65991 0.0
C665 C 0.33429 0.86038 0.73734 0.0
C666 C 0.31903 0.80622 0.60125 0.0
C667 C 0.33209 0.88039 0.62663 0.0
H668 H 0.34716 0.85646 0.36272 0.0
H669 H 0.28262 0.83466 0.40822 0.0
H670 H 0.36571 0.8706 0.54453 0.0
H671 H 0.36045 0.84436 0.53721 0.0
H672 H 0.3713 0.86167 0.45756 0.0
H673 H 0.26827 0.82535 0.52995 0.0
H674 H 0.28163 0.81675 0.59279 0.0
H675 H 0.28598 0.84266 0.60056 0.0
H676 H 0.32819 0.81189 0.75025 0.0
H677 H 0.33811 0.87381 0.77236 0.0
H678 H 0.3306 0.81005 0.55542 0.0
H679 H 0.30362 0.80053 0.57409 0.0
H680 H 0.31841 0.79343 0.63591 0.0
H681 H 0.34397 0.88651 0.58108 0.0
H682 H 0.33635 0.89282 0.66952 0.0
H683 H 0.31699 0.87673 0.60081 0.0
C684 C 0.47778 0.34015 0.89117 0.0
C685 C 0.49227 0.33554 0.92338 0.0
C686 C 0.47318 0.33715 0.81371 0.0
C687 C 0.48304 0.32896 0.76773 0.0
C688 C 0.49752 0.32405 0.80024 0.0
C689 C 0.50209 0.32757 0.87758 0.0
C690 C 0.45788 0.34286 0.781 0.0
C691 C 0.50803 0.3149 0.75349 0.0
C692 C 0.45657 0.30348 0.58259 0.0
C693 C 0.46862 0.31908 0.53009 0.0
C694 C 0.46124 0.30639 0.66003 0.0
C695 C 0.47816 0.32549 0.68565 0.0
C696 C 0.49035 0.34132 0.63286 0.0
C697 C 0.48552 0.33786 0.5557 0.0
C698 C 0.44809 0.28901 0.7144 0.0
C699 C 0.50837 0.362 0.6579 0.0
H700 H 0.4703 0.34643 0.92657 0.0
H701 H 0.51304 0.32369 0.90269 0.0
H702 H 0.46546 0.35451 0.73528 0.0
H703 H 0.4445 0.32891 0.75553 0.0
H704 H 0.45185 0.34939 0.82416 0.0
H705 H 0.51867 0.31165 0.78762 0.0
H706 H 0.49611 0.30016 0.72686 0.0
H707 H 0.51714 0.32576 0.70726 0.0
H708 H 0.44366 0.28888 0.56284 0.0
H709 H 0.49469 0.35006 0.51544 0.0
H710 H 0.44051 0.29436 0.7557 0.0
H711 H 0.4581 0.28459 0.74689 0.0
H712 H 0.4358 0.27494 0.68521 0.0
H713 H 0.5028 0.36959 0.69832 0.0
H714 H 0.51612 0.37277 0.60978 0.0
H715 H 0.52012 0.35954 0.6878 0.0
C716 C 0.16989 0.49933 0.06468 0.0
C717 C 0.15221 0.48902 0.11081 0.0
C718 C 0.16886 0.49486 0.98732 0.0
C719 C 0.14961 0.47992 0.9552 0.0
C720 C 0.13168 0.46954 1.00149 0.0
C721 C 0.13325 0.4741 0.07894 0.0
C722 C 0.18841 0.50598 0.94011 0.0
C723 C 0.11082 0.45371 0.96912 0.0
C724 C 0.14267 0.4822 0.74364 0.0
C725 C 0.14533 0.46581 0.71763 0.0
C726 C 0.14396 0.48694 0.82083 0.0
C727 C 0.14825 0.47513 0.87317 0.0
C728 C 0.1512 0.45872 0.84715 0.0
C729 C 0.14956 0.45417 0.76968 0.0
C730 C 0.14048 0.50441 0.84642 0.0
C731 C 0.15616 0.44601 0.90111 0.0
H732 H 0.18463 0.51063 0.08952 0.0
H733 H 0.11957 0.46625 0.11459 0.0
H734 H 0.19175 0.49445 0.91314 0.0
H735 H 0.18613 0.51481 0.89413 0.0
H736 H 0.20219 0.51697 0.97397 0.0
H737 H 0.09833 0.44725 0.01258 0.0
H738 H 0.10626 0.46097 0.92378 0.0
H739 H 0.11193 0.44067 0.94322 0.0
H740 H 0.13911 0.49105 0.70365 0.0
H741 H 0.15185 0.44165 0.74956 0.0
H742 H 0.15434 0.51629 0.8776 0.0
H743 H 0.12705 0.49825 0.88586 0.0
H744 H 0.1374 0.51215 0.79845 0.0
H745 H 0.17052 0.4564 0.93329 0.0
H746 H 0.15841 0.43406 0.8716 0.0
H747 H 0.14335 0.43807 0.9427 0.0
C748 C 0.68028 0.16723 0.92703 0.0
C749 C 0.68114 0.15002 0.89876 0.0
C750 C 0.67719 0.16894 0.00446 0.0
C751 C 0.67444 0.15281 0.05434 0.0
C752 C 0.67523 0.13536 0.02587 0.0
C753 C 0.67877 0.13429 0.9486 0.0
C754 C 0.67685 0.18797 0.03287 0.0
C755 C 0.67195 0.11762 0.07679 0.0
C756 C 0.68201 0.16149 0.26643 0.0
C757 C 0.66142 0.15329 0.29138 0.0
C758 C 0.68657 0.16206 0.18918 0.0
C759 C 0.67008 0.15376 0.13594 0.0
C760 C 0.64927 0.14554 0.16106 0.0
C761 C 0.64523 0.14564 0.23845 0.0
C762 C 0.70901 0.17142 0.16463 0.0
C763 C 0.63121 0.13617 0.10642 0.0
H764 H 0.68229 0.17947 0.88857 0.0
H765 H 0.67913 0.12083 0.92666 0.0
H766 H 0.66135 0.18335 0.05741 0.0
H767 H 0.68853 0.19554 0.07849 0.0
H768 H 0.68019 0.19956 0.98742 0.0
H769 H 0.67305 0.10518 0.04576 0.0
H770 H 0.6837 0.12349 0.12267 0.0
H771 H 0.65636 0.11067 0.10379 0.0
H772 H 0.69455 0.1677 0.30743 0.0
H773 H 0.62932 0.1392 0.25807 0.0
H774 H 0.71277 0.18362 0.12135 0.0
H775 H 0.71147 0.15923 0.13834 0.0
H776 H 0.72005 0.17842 0.21255 0.0
H777 H 0.63322 0.14778 0.06289 0.0
H778 H 0.61598 0.13066 0.13501 0.0
H779 H 0.63079 0.12278 0.07666 0.0
C780 C 0.45518 0.61103 0.85441 0.0
C781 C 0.46427 0.60508 0.79726 0.0
C782 C 0.43943 0.59611 0.90062 0.0
C783 C 0.43275 0.57477 0.88982 0.0
C784 C 0.44182 0.56864 0.8322 0.0
C785 C 0.45742 0.58388 0.7863 0.0
C786 C 0.42996 0.6032 0.96109 0.0
C787 C 0.43519 0.546 0.81958 0.0
C788 C 0.40635 0.53789 0.05378 0.0
C789 C 0.38531 0.52833 0.0327 0.0
C790 C 0.42197 0.55306 0.00774 0.0
C791 C 0.41638 0.55884 0.93927 0.0
C792 C 0.39517 0.54938 0.91794 0.0
C793 C 0.37989 0.53423 0.96493 0.0
C794 C 0.44447 0.56274 0.03194 0.0
C795 C 0.38863 0.55521 0.84543 0.0
H796 H 0.46036 0.62739 0.86308 0.0
H797 H 0.46444 0.57918 0.74249 0.0
H798 H 0.41286 0.59565 0.9527 0.0
H799 H 0.43256 0.59838 0.01747 0.0
H800 H 0.43665 0.62037 0.96117 0.0
H801 H 0.44385 0.54385 0.77251 0.0
H802 H 0.43778 0.53932 0.87175 0.0
H803 H 0.41828 0.53697 0.80677 0.0
H804 H 0.41067 0.53338 0.10592 0.0
H805 H 0.36367 0.52695 0.94822 0.0
H806 H 0.45148 0.57986 0.03744 0.0
H807 H 0.45352 0.5599 0.9883 0.0
H808 H 0.44621 0.55643 0.08663 0.0
H809 H 0.3938 0.57209 0.84574 0.0
H810 H 0.37148 0.54627 0.83685 0.0
H811 H 0.39623 0.55236 0.79653 0.0
C812 C 0.84175 0.37923 0.12974 0.0
C813 C 0.86123 0.3806 0.13697 0.0
C814 C 0.83995 0.3954 0.0963 0.0
C815 C 0.85813 0.4135 0.07127 0.0
C816 C 0.8779 0.4152 0.08049 0.0
C817 C 0.87919 0.39858 0.11244 0.0
C818 C 0.81858 0.39287 0.08584 0.0
C819 C 0.89766 0.43449 0.056 0.0
C820 C 0.85434 0.44687 0.91716 0.0
C821 C 0.85449 0.46297 0.95909 0.0
C822 C 0.85503 0.4304 0.9532 0.0
C823 C 0.85645 0.43038 0.03289 0.0
C824 C 0.85665 0.44665 0.07552 0.0
C825 C 0.85537 0.46263 0.03805 0.0
C826 C 0.85433 0.41308 0.90599 0.0
C827 C 0.85859 0.44735 0.16047 0.0
H828 H 0.82784 0.36525 0.14825 0.0
H829 H 0.89428 0.39971 0.11867 0.0
H830 H 0.81781 0.4059 0.11349 0.0
H831 H 0.81551 0.39344 0.02481 0.0
H832 H 0.80603 0.37794 0.10945 0.0
H833 H 0.91186 0.43384 0.07135 0.0
H834 H 0.89753 0.43641 0.99394 0.0
H835 H 0.8986 0.44852 0.08237 0.0
H836 H 0.85349 0.44706 0.85608 0.0
H837 H 0.85564 0.47519 0.07046 0.0
H838 H 0.84138 0.39779 0.92517 0.0
H839 H 0.86901 0.4127 0.91316 0.0
H840 H 0.85218 0.41492 0.84496 0.0
H841 H 0.84489 0.43362 0.18558 0.0
H842 H 0.85969 0.46169 0.18468 0.0
H843 H 0.87263 0.44663 0.1774 0.0
C844 C 0.38103 0.84485 0.20694 0.0
C845 C 0.38654 0.86041 0.15216 0.0
C846 C 0.39622 0.84424 0.2522 0.0
C847 C 0.41739 0.85969 0.24291 0.0
C848 C 0.42305 0.87555 0.18821 0.0
C849 C 0.40755 0.87566 0.14313 0.0
C850 C 0.38964 0.82699 0.30957 0.0
C851 C 0.44547 0.89242 0.17743 0.0
C852 C 0.45474 0.86862 0.40382 0.0
C853 C 0.46478 0.85802 0.37782 0.0
C854 C 0.43926 0.86931 0.36042 0.0
C855 C 0.43367 0.85908 0.28966 0.0
C856 C 0.44365 0.84825 0.26332 0.0
C857 C 0.45909 0.84786 0.30769 0.0
C858 C 0.42902 0.88114 0.38993 0.0
C859 C 0.43802 0.83707 0.18824 0.0
H860 H 0.36481 0.833 0.2142 0.0
H861 H 0.41189 0.88782 0.10131 0.0
H862 H 0.39759 0.81797 0.29777 0.0
H863 H 0.3944 0.83369 0.36699 0.0
H864 H 0.37253 0.81612 0.30946 0.0
H865 H 0.4472 0.90393 0.13371 0.0
H866 H 0.4519 0.90079 0.23143 0.0
H867 H 0.45503 0.88539 0.16065 0.0
H868 H 0.45908 0.87654 0.45784 0.0
H869 H 0.46672 0.8396 0.28716 0.0
H870 H 0.41196 0.87052 0.39523 0.0
H871 H 0.43142 0.89357 0.34944 0.0
H872 H 0.43526 0.88838 0.44583 0.0
H873 H 0.42122 0.82511 0.18753 0.0
H874 H 0.44726 0.82934 0.17607 0.0
H875 H 0.44068 0.84824 0.14206 0.0
C876 C 0.54037 0.4091 0.27889 0.0
C877 C 0.53052 0.38801 0.29944 0.0
C878 C 0.55556 0.42451 0.32547 0.0
C879 C 0.56105 0.41866 0.39398 0.0
C880 C 0.55135 0.3974 0.41468 0.0
C881 C 0.5362 0.38233 0.36712 0.0
C882 C 0.56553 0.44708 0.3019 0.0
C883 C 0.55687 0.39057 0.48724 0.0
C884 C 0.6129 0.45697 0.48247 0.0
C885 C 0.60671 0.46592 0.53934 0.0
C886 C 0.59818 0.44143 0.43512 0.0
C887 C 0.57679 0.43482 0.44451 0.0
C888 C 0.57043 0.44374 0.5019 0.0
C889 C 0.58547 0.45913 0.5489 0.0
C890 C 0.6055 0.43212 0.3749 0.0
C891 C 0.54774 0.43716 0.51311 0.0
H892 H 0.53605 0.41362 0.22678 0.0
H893 H 0.52872 0.36607 0.3834 0.0
H894 H 0.56253 0.45606 0.3453 0.0
H895 H 0.58267 0.45399 0.29762 0.0
H896 H 0.55955 0.44902 0.24676 0.0
H897 H 0.54776 0.37341 0.49525 0.0
H898 H 0.57371 0.39559 0.48752 0.0
H899 H 0.55396 0.39811 0.53618 0.0
H900 H 0.62929 0.46211 0.47485 0.0
H901 H 0.58059 0.46604 0.59248 0.0
H902 H 0.60099 0.43494 0.3183 0.0
H903 H 0.59785 0.41499 0.38258 0.0
H904 H 0.62267 0.43873 0.37591 0.0
H905 H 0.54135 0.43995 0.46057 0.0
H906 H 0.5454 0.44571 0.56011 0.0
H907 H 0.53859 0.42022 0.52523 0.0
C908 C 0.12448 0.53569 0.45932 0.0
C909 C 0.13712 0.52737 0.47987 0.0
C910 C 0.12447 0.55164 0.50175 0.0
C911 C 0.13755 0.55958 0.56579 0.0
C912 C 0.15047 0.55139 0.58652 0.0
C913 C 0.15004 0.53531 0.54344 0.0
C914 C 0.1103 0.55987 0.47851 0.0
C915 C 0.16473 0.55958 0.65423 0.0
C916 C 0.15069 0.61322 0.63451 0.0
C917 C 0.13714 0.60831 0.6962 0.0
C918 C 0.15115 0.59751 0.59203 0.0
C919 C 0.1376 0.57639 0.61133 0.0
C920 C 0.1239 0.57132 0.67352 0.0
C921 C 0.12391 0.58736 0.7155 0.0
C922 C 0.16609 0.60349 0.52639 0.0
C923 C 0.10904 0.54894 0.6951 0.0
H924 H 0.11439 0.52957 0.41047 0.0
H925 H 0.15988 0.52898 0.55962 0.0
H926 H 0.09951 0.55784 0.5254 0.0
H927 H 0.11965 0.5768 0.46651 0.0
H928 H 0.10093 0.55187 0.42763 0.0
H929 H 0.1741 0.5518 0.66181 0.0
H930 H 0.1755 0.57659 0.64814 0.0
H931 H 0.15543 0.55722 0.70618 0.0
H932 H 0.161 0.62939 0.61938 0.0
H933 H 0.11333 0.58345 0.76288 0.0
H934 H 0.15728 0.59708 0.47317 0.0
H935 H 0.17633 0.59668 0.53389 0.0
H936 H 0.17602 0.62065 0.52022 0.0
H937 H 0.09856 0.54061 0.64699 0.0
H938 H 0.09935 0.54764 0.74491 0.0
H939 H 0.11786 0.54085 0.70805 0.0
C940 C 0.58964 0.11456 0.69151 0.0
C941 C 0.60708 0.13298 0.6671 0.0
C942 C 0.57246 0.11488 0.72305 0.0
C943 C 0.57245 0.13396 0.72696 0.0
C944 C 0.59024 0.15268 0.70335 0.0
C945 C 0.60757 0.152 0.67494 0.0
C946 C 0.55407 0.09472 0.75008 0.0
C947 C 0.59057 0.17321 0.70447 0.0
C948 C 0.51899 0.12893 0.72052 0.0
C949 C 0.51646 0.13327 0.79537 0.0
C950 C 0.53741 0.12963 0.69718 0.0
C951 C 0.55329 0.13406 0.75075 0.0
C952 C 0.55064 0.13814 0.8268 0.0
C953 C 0.53236 0.13809 0.84794 0.0
C954 C 0.53998 0.12586 0.61507 0.0
C955 C 0.56685 0.14206 0.88604 0.0
H956 H 0.58946 0.0999 0.68568 0.0
H957 H 0.62109 0.16618 0.65526 0.0
H958 H 0.5494 0.0967 0.80764 0.0
H959 H 0.54054 0.09024 0.71231 0.0
H960 H 0.55753 0.08175 0.7511 0.0
H961 H 0.60593 0.18645 0.68718 0.0
H962 H 0.57847 0.17242 0.66549 0.0
H963 H 0.58678 0.17641 0.76171 0.0
H964 H 0.5067 0.12533 0.67995 0.0
H965 H 0.53021 0.14121 0.90609 0.0
H966 H 0.54323 0.11285 0.60949 0.0
H967 H 0.55352 0.13996 0.59092 0.0
H968 H 0.52594 0.12207 0.5811 0.0
H969 H 0.56932 0.12849 0.88925 0.0
H970 H 0.56229 0.14477 0.94284 0.0
H971 H 0.58199 0.1558 0.87041 0.0
C972 C 0.26525 0.47966 0.13958 0.0
C973 C 0.27342 0.46722 0.16391 0.0
C974 C 0.24784 0.47853 0.17532 0.0
C975 C 0.23876 0.46496 0.23764 0.0
C976 C 0.24663 0.45199 0.26115 0.0
C977 C 0.26379 0.45315 0.22345 0.0
C978 C 0.23954 0.49228 0.14786 0.0
C979 C 0.23751 0.43755 0.32802 0.0
C980 C 0.20977 0.48042 0.37531 0.0
C981 C 0.18907 0.4671 0.35374 0.0
C982 C 0.22611 0.47941 0.33951 0.0
C983 C 0.22155 0.46498 0.28005 0.0
C984 C 0.20063 0.45112 0.25944 0.0
C985 C 0.1846 0.45224 0.29705 0.0
C986 C 0.24828 0.49416 0.36383 0.0
C987 C 0.19523 0.43571 0.19572 0.0
H988 H 0.27269 0.49051 0.09342 0.0
H989 H 0.27023 0.44366 0.24288 0.0
H990 H 0.22256 0.4828 0.13669 0.0
H991 H 0.24174 0.50378 0.19222 0.0
H992 H 0.24745 0.50087 0.09554 0.0
H993 H 0.24477 0.42773 0.33659 0.0
H994 H 0.23981 0.44683 0.37997 0.0
H995 H 0.22047 0.4272 0.32057 0.0
H996 H 0.21323 0.49188 0.41925 0.0
H997 H 0.16859 0.44203 0.27978 0.0
H998 H 0.25695 0.50503 0.31702 0.0
H999 H 0.25636 0.48535 0.37699 0.0
H1000 H 0.24906 0.50347 0.41419 0.0
H1001 H 0.20161 0.44422 0.1419 0.0
H1002 H 0.17814 0.42534 0.18923 0.0
H1003 H 0.20246 0.42593 0.20537 0.0
C1004 C 0.80586 0.26446 0.38406 0.0
C1005 C 0.80204 0.27389 0.32228 0.0
C1006 C 0.78941 0.24828 0.42378 0.0
C1007 C 0.7687 0.24112 0.40007 0.0
C1008 C 0.76475 0.25012 0.33619 0.0
C1009 C 0.78153 0.26661 0.29838 0.0
C1010 C 0.79418 0.23924 0.49228 0.0
C1011 C 0.74282 0.24254 0.30866 0.0
C1012 C 0.72775 0.18734 0.46401 0.0
C1013 C 0.71808 0.19198 0.52295 0.0
C1014 C 0.74409 0.20322 0.42294 0.0
C1015 C 0.75119 0.22421 0.44239 0.0
C1016 C 0.74175 0.22901 0.50274 0.0
C1017 C 0.72509 0.21277 0.54196 0.0
C1018 C 0.75359 0.19753 0.35821 0.0
C1019 C 0.74918 0.25128 0.52553 0.0
H1020 H 0.8217 0.27027 0.40339 0.0
H1021 H 0.77859 0.27396 0.25073 0.0
H1022 H 0.78663 0.24138 0.54294 0.0
H1023 H 0.7877 0.22224 0.48475 0.0
H1024 H 0.81118 0.24661 0.50319 0.0
H1025 H 0.74248 0.25071 0.25656 0.0
H1026 H 0.73488 0.22556 0.29704 0.0
H1027 H 0.73372 0.24499 0.35315 0.0
H1028 H 0.72214 0.17125 0.44836 0.0
H1029 H 0.71754 0.21633 0.58734 0.0
H1030 H 0.77035 0.20339 0.36949 0.0
H1031 H 0.75261 0.20506 0.30543 0.0
H1032 H 0.74574 0.18044 0.34877 0.0
H1033 H 0.76598 0.2592 0.54039 0.0
H1034 H 0.74038 0.25234 0.57448 0.0
H1035 H 0.74751 0.25992 0.47742 0.0
C1036 C 0.50939 0.78311 0.45935 0.0
C1037 C 0.52365 0.80338 0.48297 0.0
C1038 C 0.50996 0.76595 0.48974 0.0
C1039 C 0.52494 0.76924 0.54568 0.0
C1040 C 0.53987 0.78972 0.56758 0.0
C1041 C 0.53912 0.80659 0.5355 0.0
C1042 C 0.49405 0.74428 0.46412 0.0
C1043 C 0.55598 0.79378 0.62744 0.0
C1044 C 0.51036 0.72506 0.68366 0.0
C1045 C 0.52202 0.71638 0.65603 0.0
C1046 C 0.51152 0.7426 0.64902 0.0
C1047 C 0.52427 0.75123 0.58439 0.0
C1048 C 0.53614 0.74254 0.55651 0.0
C1049 C 0.53503 0.7253 0.59326 0.0
C1050 C 0.4989 0.75172 0.6809 0.0
C1051 C 0.54954 0.75108 0.4868 0.0
H1052 H 0.49747 0.78061 0.41848 0.0
H1053 H 0.55014 0.82226 0.55411 0.0
H1054 H 0.50187 0.73542 0.44764 0.0
H1055 H 0.48332 0.73572 0.51139 0.0
H1056 H 0.48467 0.7445 0.41558 0.0
H1057 H 0.56722 0.81067 0.63485 0.0
H1058 H 0.5481 0.78734 0.68224 0.0
H1059 H 0.56478 0.78578 0.61284 0.0
H1060 H 0.50029 0.71809 0.73215 0.0
H1061 H 0.5438 0.71835 0.57112 0.0
H1062 H 0.48738 0.75062 0.63845 0.0
H1063 H 0.50924 0.76849 0.69383 0.0
H1064 H 0.49041 0.74364 0.73317 0.0
H1065 H 0.53967 0.74978 0.43767 0.0
H1066 H 0.55808 0.74271 0.47331 0.0
H1067 H 0.56102 0.76786 0.49447 0.0
C1068 C 0.78237 0.51176 0.89709 0.0
C1069 C 0.80282 0.52585 0.87458 0.0
C1070 C 0.76547 0.51257 0.86533 0.0
C1071 C 0.76921 0.52763 0.80914 0.0
C1072 C 0.78987 0.54253 0.789 0.0
C1073 C 0.80647 0.54155 0.82245 0.0
C1074 C 0.7436 0.49671 0.88923 0.0
C1075 C 0.79442 0.55874 0.72898 0.0
C1076 C 0.72632 0.51282 0.6651 0.0
C1077 C 0.71727 0.52437 0.69021 0.0
C1078 C 0.74357 0.51409 0.70258 0.0
C1079 C 0.75152 0.52685 0.76753 0.0
C1080 C 0.74246 0.53863 0.79285 0.0
C1081 C 0.72554 0.53741 0.75329 0.0
C1082 C 0.75311 0.50158 0.67336 0.0
C1083 C 0.75028 0.55204 0.86276 0.0
H1084 H 0.77953 0.49967 0.93767 0.0
H1085 H 0.82227 0.55246 0.80473 0.0
H1086 H 0.73457 0.50451 0.90322 0.0
H1087 H 0.73548 0.48583 0.84187 0.0
H1088 H 0.74346 0.48749 0.93891 0.0
H1089 H 0.81134 0.57017 0.72407 0.0
H1090 H 0.78874 0.55096 0.67354 0.0
H1091 H 0.78605 0.56731 0.74143 0.0
H1092 H 0.71986 0.50272 0.61639 0.0
H1093 H 0.71829 0.54609 0.77349 0.0
H1094 H 0.75165 0.49009 0.71657 0.0
H1095 H 0.76998 0.51199 0.66239 0.0
H1096 H 0.74556 0.49307 0.62048 0.0
H1097 H 0.74857 0.54221 0.91248 0.0
H1098 H 0.74169 0.56049 0.8741 0.0
H1099 H 0.7671 0.5636 0.8569 0.0
C1100 C 0.26615 0.80977 0.94358 0.0
C1101 C 0.27571 0.80527 0.00319 0.0
C1102 C 0.24913 0.79378 0.90528 0.0
C1103 C 0.24133 0.7729 0.92831 0.0
C1104 C 0.25054 0.76834 0.99001 0.0
C1105 C 0.26782 0.78462 0.02631 0.0
C1106 C 0.2399 0.79915 0.83893 0.0
C1107 C 0.24235 0.74624 0.01686 0.0
C1108 C 0.18664 0.73161 0.87421 0.0
C1109 C 0.19058 0.72091 0.81723 0.0
C1110 C 0.20304 0.74888 0.90996 0.0
C1111 C 0.22376 0.75573 0.88712 0.0
C1112 C 0.22776 0.74558 0.82716 0.0
C1113 C 0.21108 0.72811 0.7933 0.0
C1114 C 0.19823 0.7592 0.97429 0.0
C1115 C 0.24969 0.75277 0.80043 0.0
H1116 H 0.27242 0.82575 0.92503 0.0
H1117 H 0.27522 0.78118 0.07248 0.0
H1118 H 0.24163 0.79179 0.78694 0.0
H1119 H 0.22297 0.79288 0.84784 0.0
H1120 H 0.24748 0.81623 0.82949 0.0
H1121 H 0.25067 0.74546 0.06782 0.0
H1122 H 0.22548 0.73887 0.03014 0.0
H1123 H 0.24404 0.73689 0.97141 0.0
H1124 H 0.1708 0.72597 0.89323 0.0
H1125 H 0.21411 0.71986 0.74904 0.0
H1126 H 0.20551 0.77619 0.96401 0.0
H1127 H 0.20496 0.75717 0.02741 0.0
H1128 H 0.18121 0.75263 0.98251 0.0
H1129 H 0.25784 0.76967 0.78726 0.0
H1130 H 0.25 0.74418 0.74948 0.0
H1131 H 0.25862 0.75046 0.84596 0.0
C1132 C 0.4818 0.26861 0.1851 0.0
C1133 C 0.4691 0.2767 0.16328 0.0
C1134 C 0.48045 0.25125 0.1482 0.0
C1135 C 0.46635 0.24213 0.08731 0.0
C1136 C 0.45319 0.24999 0.06612 0.0
C1137 C 0.4546 0.26711 0.10488 0.0
C1138 C 0.49441 0.24295 0.17322 0.0
C1139 C 0.43815 0.24078 1.0009 0.0
C1140 C 0.47969 0.21192 0.94734 0.0
C1141 C 0.46631 0.1914 0.97073 0.0
C1142 C 0.47939 0.22862 0.98334 0.0
C1143 C 0.46567 0.2246 0.04488 0.0
C1144 C 0.45178 0.20387 0.06743 0.0
C1145 C 0.45214 0.18749 0.02955 0.0
C1146 C 0.49413 0.25058 0.95696 0.0
C1147 C 0.43714 0.19903 0.13346 0.0
H1148 H 0.49299 0.27603 0.2303 0.0
H1149 H 0.4449 0.27347 0.08735 0.0
H1150 H 0.48495 0.22606 0.18591 0.0
H1151 H 0.5053 0.24477 0.12696 0.0
H1152 H 0.50369 0.25112 0.22407 0.0
H1153 H 0.42854 0.24831 0.99324 0.0
H1154 H 0.44692 0.2426 0.94796 0.0
H1155 H 0.42759 0.22384 0.00981 0.0
H1156 H 0.49063 0.21494 0.90182 0.0
H1157 H 0.44189 0.17163 0.04831 0.0
H1158 H 0.50555 0.25936 1.00217 0.0
H1159 H 0.4854 0.25882 0.94513 0.0
H1160 H 0.50281 0.25094 0.90528 0.0
H1161 H 0.44629 0.20568 0.18591 0.0
H1162 H 0.42671 0.18201 0.1417 0.0
H1163 H 0.4274 0.20636 0.12518 0.0
C1164 C 0.37969 0.42144 0.07963 0.0
C1165 C 0.37261 0.42802 0.14147 0.0
C1166 C 0.39086 0.41098 0.09032 0.0
C1167 C 0.39487 0.40687 0.16457 0.0
C1168 C 0.38769 0.41335 0.22721 0.0
C1169 C 0.37673 0.42395 0.21489 0.0
C1170 C 0.39836 0.40432 0.02221 0.0
C1171 C 0.39162 0.40913 0.30721 0.0
C1172 C 0.40709 0.36337 0.19058 0.0
C1173 C 0.42884 0.37456 0.19761 0.0
C1174 C 0.39579 0.37371 0.1805 0.0
C1175 C 0.40657 0.39573 0.17673 0.0
C1176 C 0.42853 0.40712 0.18417 0.0
C1177 C 0.43941 0.39637 0.19493 0.0
C1178 C 0.37234 0.36109 0.17373 0.0
C1179 C 0.44053 0.43062 0.17975 0.0
H1180 H 0.37629 0.42425 0.02276 0.0
H1181 H 0.37158 0.42927 0.26292 0.0
H1182 H 0.41554 0.41126 0.02466 0.0
H1183 H 0.39144 0.38715 0.02221 0.0
H1184 H 0.39425 0.40904 0.96828 0.0
H1185 H 0.38468 0.41492 0.34966 0.0
H1186 H 0.385 0.39214 0.31573 0.0
H1187 H 0.40863 0.4167 0.31772 0.0
H1188 H 0.3989 0.34649 0.19356 0.0
H1189 H 0.45626 0.405 0.19965 0.0
H1190 H 0.36737 0.3641 0.11834 0.0
H1191 H 0.36501 0.36588 0.21807 0.0
H1192 H 0.36633 0.34409 0.1791 0.0
H1193 H 0.43779 0.43577 0.12425 0.0
H1194 H 0.45757 0.43712 0.18714 0.0
H1195 H 0.43495 0.43731 0.22382 0.0
C1196 C 0.94883 0.37819 0.39806 0.0
C1197 C 0.94091 0.3684 0.32861 0.0
C1198 C 0.97032 0.38866 0.41217 0.0
C1199 C 0.98409 0.38971 0.35464 0.0
C1200 C 0.9761 0.37978 0.28441 0.0
C1201 C 0.95452 0.36901 0.27254 0.0
C1202 C 0.9783 0.39868 0.48829 0.0
C1203 C 0.99036 0.38095 0.22127 0.0
C1204 C 0.03968 0.43455 0.3613 0.0
C1205 C 0.05031 0.42451 0.38615 0.0
C1206 C 0.01807 0.42335 0.35053 0.0
C1207 C 0.00691 0.40176 0.36694 0.0
C1208 C 0.01761 0.39167 0.39367 0.0
C1209 C 0.03932 0.40317 0.40203 0.0
C1210 C 0.00723 0.43453 0.32037 0.0
C1211 C 0.00613 0.36878 0.41335 0.0
H1212 H 0.93817 0.37749 0.44145 0.0
H1213 H 0.94826 0.3615 0.2187 0.0
H1214 H 0.98821 0.39294 0.51351 0.0
H1215 H 0.98817 0.4158 0.48165 0.0
H1216 H 0.96544 0.39544 0.52818 0.0
H1217 H 0.9816 0.37228 0.17023 0.0
H1218 H 0.00095 0.39747 0.20549 0.0
H1219 H 0.00025 0.37451 0.24029 0.0
H1220 H 0.0484 0.45109 0.34881 0.0
H1221 H 0.04773 0.39558 0.42166 0.0
H1222 H 0.99521 0.43316 0.36098 0.0
H1223 H -0.00088 0.42717 0.26679 0.0
H1224 H 0.01825 0.45132 0.30974 0.0
H1225 H 0.99376 0.36548 0.45549 0.0
H1226 H 0.01667 0.36353 0.43662 0.0
H1227 H -0.00165 0.35939 0.36239 0.0
C1228 C 0.62071 0.04381 0.4933 0.0
C1229 C 0.62736 0.05187 0.56615 0.0
C1230 C 0.60958 0.02231 0.48037 0.0
C1231 C 0.60463 0.0085 0.54198 0.0
C1232 C 0.6112 0.01643 0.61571 0.0
C1233 C 0.62264 0.03806 0.62688 0.0
C1234 C 0.60295 0.01439 0.40081 0.0
C1235 C 0.60601 0.00208 0.68276 0.0
C1236 C 0.55873 0.95419 0.51337 0.0
C1237 C 0.56878 0.94286 0.49782 0.0
C1238 C 0.57024 0.97553 0.52961 0.0
C1239 C 0.59228 0.98573 0.529 0.0
C1240 C 0.60251 0.97435 0.51327 0.0
C1241 C 0.59059 0.95296 0.49833 0.0
C1242 C 0.55883 0.98716 0.54709 0.0
C1243 C 0.62599 0.98483 0.51088 0.0
H1244 H 0.6239 0.05434 0.44625 0.0
H1245 H 0.62794 0.04414 0.68316 0.0
H1246 H 0.6088 0.00373 0.38515 0.0
H1247 H 0.58569 0.00533 0.39731 0.0
H1248 H 0.60878 0.02722 0.35878 0.0
H1249 H 0.61218 0.01076 0.73649 0.0
H1250 H 0.58885 0.99205 0.68792 0.0
H1251 H 0.61253 0.99163 0.6745 0.0
H1252 H 0.54184 0.94626 0.51373 0.0
H1253 H 0.59832 0.94416 0.48567 0.0
H1254 H 0.56268 -0.00056 0.50408 0.0
H1255 H 0.56392 0.99504 0.60264 0.0
H1256 H 0.54165 0.97672 0.54821 0.0
H1257 H 0.63216 0.997 0.4664 0.0
H1258 H 0.6315 0.97364 0.49921 0.0
H1259 H 0.63269 0.9927 0.5654 0.0
C1260 C 0.59929 0.55558 0.64261 0.0
C1261 C 0.62109 0.56634 0.64064 0.0
C1262 C 0.58835 0.5663 0.65222 0.0
C1263 C 0.59955 0.58829 0.65834 0.0
C1264 C 0.6216 0.59925 0.65493 0.0
C1265 C 0.63214 0.58808 0.64692 0.0
C1266 C 0.56485 0.55409 0.65702 0.0
C1267 C 0.63401 0.62274 0.6596 0.0
C1268 C 0.56987 0.61636 0.61542 0.0
C1269 C 0.56584 0.62105 0.68813 0.0
C1270 C 0.58116 0.60604 0.60488 0.0
C1271 C 0.58818 0.59981 0.66861 0.0
C1272 C 0.5841 0.60434 0.74215 0.0
C1273 C 0.57317 0.61511 0.75102 0.0
C1274 C 0.5855 0.60171 0.52556 0.0
C1275 C 0.59115 0.59767 0.81143 0.0
H1276 H 0.59084 0.53872 0.63837 0.0
H1277 H 0.64903 0.59632 0.64484 0.0
H1278 H 0.55966 0.55728 0.71169 0.0
H1279 H 0.55799 0.55909 0.61163 0.0
H1280 H 0.55854 0.53703 0.65193 0.0
H1281 H 0.65103 0.62889 0.65384 0.0
H1282 H 0.62896 0.62964 0.61451 0.0
H1283 H 0.63106 0.62802 0.71445 0.0
H1284 H 0.56396 0.62053 0.56647 0.0
H1285 H 0.57051 0.61898 0.80736 0.0
H1286 H 0.57792 0.58466 0.51622 0.0
H1287 H 0.6025 0.60827 0.51747 0.0
H1288 H 0.57976 0.60843 0.48207 0.0
H1289 H 0.58453 0.58052 0.81086 0.0
H1290 H 0.58637 0.60205 0.86464 0.0
H1291 H 0.60836 0.6049 0.81124 0.0
C1292 C 0.03753 0.61872 0.73433 0.0
C1293 C 0.05103 0.62486 0.79652 0.0
C1294 C 0.01586 0.60766 0.74435 0.0
C1295 C 0.00757 0.60273 0.81831 0.0
C1296 C 0.0211 0.60913 0.88134 0.0
C1297 C 0.04268 0.62009 0.86965 0.0
C1298 C 0.00185 0.60109 0.67588 0.0
C1299 C 0.01277 0.60414 0.96105 0.0
C1300 C 0.95153 0.58887 0.85057 0.0
C1301 C 0.94146 0.56708 0.8547 0.0
C1302 C 0.97307 0.60071 0.83831 0.0
C1303 C 0.98472 0.59045 0.82984 0.0
C1304 C 0.97462 0.56845 0.83348 0.0
C1305 C 0.95308 0.55701 0.84601 0.0
C1306 C 0.98339 0.62417 0.83523 0.0
C1307 C 0.98657 0.557 0.8243 0.0
H1308 H 0.04391 0.62265 0.67774 0.0
H1309 H 0.05306 0.62458 0.91784 0.0
H1310 H 0.99205 0.58386 0.67435 0.0
H1311 H 0.99114 0.60747 0.67925 0.0
H1312 H 0.01079 0.60643 0.62228 0.0
H1313 H 0.0254 0.61085 0.00392 0.0
H1314 H 0.00202 0.61022 0.97146 0.0
H1315 H 0.00369 0.587 0.969 0.0
H1316 H 0.9426 0.59669 0.85825 0.0
H1317 H 0.94526 0.54015 0.84835 0.0
H1318 H 0.99171 0.63 0.78075 0.0
H1319 H 0.99519 0.63117 0.88078 0.0
H1320 H 0.97203 0.62969 0.84158 0.0
H1321 H 0.9947 0.56092 0.76899 0.0
H1322 H 0.97631 0.53982 0.82778 0.0
H1323 H -0.00131 0.562 0.86873 0.0
C1324 C 0.40521 0.04013 0.95784 0.0
C1325 C 0.4241 0.05345 0.99429 0.0
C1326 C 0.39411 0.01879 0.97417 0.0
C1327 C 0.40232 0.01049 0.02704 0.0
C1328 C 0.4212 0.02382 0.06488 0.0
C1329 C 0.43176 0.04518 0.04862 0.0
C1330 C 0.37385 0.00503 0.93346 0.0
C1331 C 0.43052 0.01543 0.121 0.0
C1332 C 0.36643 0.95661 0.10674 0.0
C1333 C 0.37061 0.94429 0.05811 0.0
C1334 C 0.37671 0.97831 0.09756 0.0
C1335 C 0.39173 0.98769 0.03946 0.0
C1336 C 0.39632 0.97521 0.99154 0.0
C1337 C 0.38548 0.95357 1.00096 0.0
C1338 C 0.37115 0.99112 0.14861 0.0
C1339 C 0.41254 0.9847 0.92996 0.0
H1340 H 0.39928 0.04629 0.91514 0.0
H1341 H 0.44608 0.0554 0.07838 0.0
H1342 H 0.37564 0.99403 0.896 0.0
H1343 H 0.36136 0.99558 0.97467 0.0
H1344 H 0.36877 0.01416 0.89865 0.0
H1345 H 0.44502 0.02797 0.14716 0.0
H1346 H 0.41914 0.00673 0.16642 0.0
H1347 H 0.43418 0.00432 0.0924 0.0
H1348 H 0.35478 0.9492 0.1506 0.0
H1349 H 0.38863 0.94383 0.96382 0.0
H1350 H 0.36481 -0.00076 0.11445 0.0
H1351 H 0.38529 0.00329 0.1776 0.0
H1352 H 0.35942 0.98146 0.19194 0.0
H1353 H 0.40773 0.99259 0.88795 0.0
H1354 H 0.41495 0.97288 0.90018 0.0
H1355 H 0.42764 0.99671 0.95414 0.0
loop_
_geom_bond_atom_site_label_1
_geom_bond_atom_site_label_2
_geom_bond_distance
_geom_bond_site_symmetry_2
_ccdc_geom_bond_type
Co0 N4 2.148 . S
Co0 N10 2.128 1_554 S
Co0 N20 2.194 . S
Co0 O25 2.351 . S
Co0 O26 2.155 . S
Co0 O27 2.096 . S
C1 N4 1.301 . S
C1 N5 1.328 . S
C1 H6 0.930 . S
C2 C3 1.333 . S
C2 N4 1.317 . S
C2 H7 0.930 . S
C3 C2 1.333 . S
C3 N5 1.350 . S
C3 H29 0.931 . S
N4 Co0 2.148 . S
N4 C1 1.301 . S
N4 C2 1.317 . S
N5 C1 1.328 . S
N5 C3 1.350 . S
H6 C1 0.930 . S
H7 C2 0.930 . S
C8 O9 1.224 . S
C8 O27 1.247 . S
O9 C8 1.224 . S
N10 Co0 2.128 1_556 S
N10 C11 1.355 . S
N10 C13 1.311 . S
C11 N10 1.355 . S
C11 C12 1.363 . S
C11 H23 0.929 . S
C12 C11 1.363 . S
C12 N14 1.375 . S
C12 H30 0.931 . S
C13 N10 1.311 . S
C13 N14 1.347 . S
C13 H24 0.929 . S
N14 C12 1.375 . S
N14 C13 1.347 . S
C15 C18 1.365 . S
C15 N20 1.328 . S
C15 H21 0.929 . S
C16 C17 1.362 . S
C16 C19 1.378 . S
C16 H31 0.929 . S
C17 C16 1.362 . S
C17 C18 1.366 . S
C18 C15 1.365 . S
C18 C17 1.366 . S
C18 H32 0.930 . S
C19 C16 1.378 . S
C19 N20 1.315 . S
C19 H22 0.930 . S
N20 Co0 2.194 . S
N20 C15 1.328 . S
N20 C19 1.315 . S
H21 C15 0.929 . S
H22 C19 0.930 . S
H23 C11 0.929 . S
H24 C13 0.929 . S
O25 Co0 2.351 . S
O25 C28 1.244 . S
O26 Co0 2.155 . S
O26 C28 1.240 . S
O27 Co0 2.096 . S
O27 C8 1.247 . S
C28 O25 1.244 . S
C28 O26 1.240 . S
H29 C3 0.931 . S
H30 C12 0.931 . S
H31 C16 0.929 . S
H32 C18 0.930 . S
Co33 N37 2.148 . S
Co33 N43 2.128 . S
Co33 N53 2.194 . S
Co33 O58 2.351 . S
Co33 O59 2.155 . S
Co33 O60 2.096 . S
C34 N37 1.301 . S
C34 N38 1.328 . S
C34 H39 0.930 . S
C35 C36 1.333 . S
C35 N37 1.317 . S
C35 H40 0.930 . S
C36 C35 1.333 . S
C36 N38 1.350 . S
C36 H62 0.931 . S
N37 Co33 2.148 . S
N37 C34 1.301 . S
N37 C35 1.317 . S
N38 C34 1.328 . S
N38 C36 1.350 . S
H39 C34 0.930 . S
H40 C35 0.930 . S
C41 O42 1.224 . S
C41 O60 1.247 . S
O42 C41 1.224 . S
N43 Co33 2.128 . S
N43 C44 1.355 . S
N43 C46 1.311 . S
C44 N43 1.355 . S
C44 C45 1.363 . S
C44 H56 0.929 . S
C45 C44 1.363 . S
C45 N47 1.375 . S
C45 H63 0.931 . S
C46 N43 1.311 . S
C46 N47 1.347 . S
C46 H57 0.929 . S
N47 C45 1.375 . S
N47 C46 1.347 . S
C48 C51 1.365 . S
C48 N53 1.328 . S
C48 H54 0.929 . S
C49 C50 1.362 . S
C49 C52 1.378 . S
C49 H64 0.929 . S
C50 C49 1.362 . S
C50 C51 1.366 . S
C51 C48 1.365 . S
C51 C50 1.366 . S
C51 H65 0.930 . S
C52 C49 1.378 . S
C52 N53 1.315 . S
C52 H55 0.930 . S
N53 Co33 2.194 . S
N53 C48 1.328 . S
N53 C52 1.315 . S
H54 C48 0.929 . S
H55 C52 0.930 . S
H56 C44 0.929 . S
H57 C46 0.929 . S
O58 Co33 2.351 . S
O58 C61 1.244 . S
O59 Co33 2.155 . S
O59 C61 1.240 . S
O60 Co33 2.096 . S
O60 C41 1.247 . S
C61 O58 1.244 . S
C61 O59 1.240 . S
H62 C36 0.931 . S
H63 C45 0.931 . S
H64 C49 0.929 . S
H65 C51 0.930 . S
Co66 N70 2.148 . S
Co66 N76 2.128 . S
Co66 N86 2.194 . S
Co66 O91 2.351 . S
Co66 O92 2.155 . S
Co66 O93 2.096 . S
C67 N70 1.301 . S
C67 N71 1.328 . S
C67 H72 0.930 . S
C68 C69 1.333 . S
C68 N70 1.317 . S
C68 H73 0.930 . S
C69 C68 1.333 . S
C69 N71 1.350 . S
C69 H95 0.931 . S
N70 Co66 2.148 . S
N70 C67 1.301 . S
N70 C68 1.317 . S
N71 C67 1.328 . S
N71 C69 1.350 . S
H72 C67 0.930 . S
H73 C68 0.930 . S
C74 O75 1.224 . S
C74 O93 1.247 . S
O75 C74 1.224 . S
N76 Co66 2.128 . S
N76 C77 1.355 . S
N76 C79 1.311 . S
C77 N76 1.355 . S
C77 C78 1.363 . S
C77 H89 0.929 . S
C78 C77 1.363 . S
C78 N80 1.375 . S
C78 H96 0.931 . S
C79 N76 1.311 . S
C79 N80 1.347 . S
C79 H90 0.929 . S
N80 C78 1.375 . S
N80 C79 1.347 . S
C81 C84 1.365 . S
C81 N86 1.328 . S
C81 H87 0.929 . S
C82 C83 1.362 . S
C82 C85 1.378 . S
C82 H97 0.929 . S
C83 C82 1.362 . S
C83 C84 1.366 . S
C84 C81 1.365 . S
C84 C83 1.366 . S
C84 H98 0.930 . S
C85 C82 1.378 . S
C85 N86 1.315 . S
C85 H88 0.930 . S
N86 Co66 2.194 . S
N86 C81 1.328 . S
N86 C85 1.315 . S
H87 C81 0.929 . S
H88 C85 0.930 . S
H89 C77 0.929 . S
H90 C79 0.929 . S
O91 Co66 2.351 . S
O91 C94 1.244 . S
O92 Co66 2.155 . S
O92 C94 1.240 . S
O93 Co66 2.096 . S
O93 C74 1.247 . S
C94 O91 1.244 . S
C94 O92 1.240 . S
H95 C69 0.931 . S
H96 C78 0.931 . S
H97 C82 0.929 . S
H98 C84 0.930 . S
Co99 N103 2.148 . S
Co99 N109 2.128 . S
Co99 N119 2.194 . S
Co99 O124 2.351 . S
Co99 O125 2.155 . S
Co99 O126 2.096 . S
C100 N103 1.301 . S
C100 N104 1.328 . S
C100 H105 0.930 . S
C101 C102 1.333 . S
C101 N103 1.317 . S
C101 H106 0.930 . S
C102 C101 1.333 . S
C102 N104 1.350 . S
C102 H128 0.931 . S
N103 Co99 2.148 . S
N103 C100 1.301 . S
N103 C101 1.317 . S
N104 C100 1.328 . S
N104 C102 1.350 . S
H105 C100 0.930 . S
H106 C101 0.930 . S
C107 O108 1.224 . S
C107 O126 1.247 . S
O108 C107 1.224 . S
N109 Co99 2.128 . S
N109 C110 1.355 . S
N109 C112 1.311 . S
C110 N109 1.355 . S
C110 C111 1.363 . S
C110 H122 0.929 . S
C111 C110 1.363 . S
C111 N113 1.375 . S
C111 H129 0.931 . S
C112 N109 1.311 . S
C112 N113 1.347 . S
C112 H123 0.929 . S
N113 C111 1.375 . S
N113 C112 1.347 . S
C114 C117 1.365 . S
C114 N119 1.328 . S
C114 H120 0.929 . S
C115 C116 1.362 . S
C115 C118 1.378 . S
C115 H130 0.929 . S
C116 C115 1.362 . S
C116 C117 1.366 . S
C117 C114 1.365 . S
C117 C116 1.366 . S
C117 H131 0.930 . S
C118 C115 1.378 . S
C118 N119 1.315 . S
C118 H121 0.930 . S
N119 Co99 2.194 . S
N119 C114 1.328 . S
N119 C118 1.315 . S
H120 C114 0.929 . S
H121 C118 0.930 . S
H122 C110 0.929 . S
H123 C112 0.929 . S
O124 Co99 2.351 . S
O124 C127 1.244 . S
O125 Co99 2.155 . S
O125 C127 1.240 . S
O126 Co99 2.096 . S
O126 C107 1.247 . S
C127 O124 1.244 . S
C127 O125 1.240 . S
H128 C102 0.931 . S
H129 C111 0.931 . S
H130 C115 0.929 . S
H131 C117 0.930 . S
Co132 N136 2.148 . S
Co132 N142 2.128 . S
Co132 N152 2.194 . S
Co132 O157 2.351 . S
Co132 O158 2.155 . S
Co132 O159 2.096 . S
C133 N136 1.301 . S
C133 N137 1.328 . S
C133 H138 0.930 . S
C134 C135 1.333 . S
C134 N136 1.317 . S
C134 H139 0.930 . S
C135 C134 1.333 . S
C135 N137 1.350 . S
C135 H161 0.939 . S
N136 Co132 2.148 . S
N136 C133 1.301 . S
N136 C134 1.317 . S
N137 C133 1.328 . S
N137 C135 1.350 . S
H138 C133 0.930 . S
H139 C134 0.930 . S
C140 O141 1.224 . S
C140 O159 1.247 . S
O141 C140 1.224 . S
N142 Co132 2.128 . S
N142 C143 1.355 . S
N142 C145 1.311 . S
C143 N142 1.355 . S
C143 C144 1.363 . S
C143 H155 0.929 . S
C144 C143 1.363 . S
C144 N146 1.375 . S
C144 H162 0.931 . S
C145 N142 1.311 . S
C145 N146 1.347 . S
C145 H156 0.929 . S
N146 C144 1.375 . S
N146 C145 1.347 . S
C147 C150 1.365 . S
C147 N152 1.328 . S
C147 H153 0.929 . S
C148 C149 1.362 . S
C148 C151 1.378 . S
C148 H163 0.929 . S
C149 C148 1.362 . S
C149 C150 1.366 . S
C150 C147 1.365 . S
C150 C149 1.366 . S
C150 H164 0.930 . S
C151 C148 1.378 . S
C151 N152 1.315 . S
C151 H154 0.930 . S
N152 Co132 2.194 . S
N152 C147 1.328 . S
N152 C151 1.315 . S
H153 C147 0.929 . S
H154 C151 0.930 . S
H155 C143 0.929 . S
H156 C145 0.929 . S
O157 Co132 2.351 . S
O157 C160 1.244 . S
O158 Co132 2.155 . S
O158 C160 1.240 . S
O159 Co132 2.096 . S
O159 C140 1.247 . S
C160 O157 1.244 . S
C160 O158 1.240 . S
H161 C135 0.939 . S
H162 C144 0.931 . S
H163 C148 0.929 . S
H164 C150 0.930 . S
Co165 N169 2.148 1_556 S
Co165 N175 2.128 . S
Co165 N185 2.194 . S
Co165 O190 2.351 . S
Co165 O191 2.155 . S
Co165 O192 2.096 . S
C166 N169 1.301 . S
C166 N170 1.328 . S
C166 H171 0.930 . S
C167 C168 1.333 . S
C167 N169 1.317 . S
C167 H172 0.930 . S
C168 C167 1.333 . S
C168 N170 1.350 . S
C168 H194 0.931 . S
N169 Co165 2.148 1_554 S
N169 C166 1.301 . S
N169 C167 1.317 . S
N170 C166 1.328 . S
N170 C168 1.350 . S
H171 C166 0.930 . S
H172 C167 0.930 . S
C173 O174 1.224 . S
C173 O192 1.247 . S
O174 C173 1.224 . S
N175 Co165 2.128 . S
N175 C176 1.355 . S
N175 C178 1.311 . S
C176 N175 1.355 . S
C176 C177 1.363 . S
C176 H188 0.929 . S
C177 C176 1.363 . S
C177 N179 1.375 . S
C177 H195 0.931 . S
C178 N175 1.311 . S
C178 N179 1.347 . S
C178 H189 0.929 . S
N179 C177 1.375 . S
N179 C178 1.347 . S
C180 C183 1.365 . S
C180 N185 1.328 . S
C180 H186 0.929 . S
C181 C182 1.362 . S
C181 C184 1.378 . S
C181 H196 0.929 . S
C182 C181 1.362 . S
C182 C183 1.366 . S
C183 C180 1.365 . S
C183 C182 1.366 . S
C183 H197 0.932 . S
C184 C181 1.378 . S
C184 N185 1.315 . S
C184 H187 0.930 . S
N185 Co165 2.194 . S
N185 C180 1.328 . S
N185 C184 1.315 . S
H186 C180 0.929 . S
H187 C184 0.930 . S
H188 C176 0.929 . S
H189 C178 0.929 . S
O190 Co165 2.351 . S
O190 C193 1.244 . S
O191 Co165 2.155 . S
O191 C193 1.240 . S
O192 Co165 2.096 . S
O192 C173 1.247 . S
C193 O190 1.244 . S
C193 O191 1.240 . S
H194 C168 0.931 . S
H195 C177 0.931 . S
H196 C181 0.929 . S
H197 C183 0.932 . S
Co198 N202 2.148 . S
Co198 N208 2.128 . S
Co198 N218 2.194 . S
Co198 O223 2.351 . S
Co198 O224 2.155 . S
Co198 O225 2.096 . S
C199 N202 1.301 . S
C199 N203 1.328 . S
C199 H204 0.930 . S
C200 C201 1.333 . S
C200 N202 1.317 . S
C200 H205 0.930 . S
C201 C200 1.333 . S
C201 N203 1.350 . S
C201 H227 0.931 . S
N202 Co198 2.148 . S
N202 C199 1.301 . S
N202 C200 1.317 . S
N203 C199 1.328 . S
N203 C201 1.350 . S
H204 C199 0.930 . S
H205 C200 0.930 . S
C206 O207 1.224 . S
C206 O225 1.247 . S
O207 C206 1.224 . S
N208 Co198 2.128 . S
N208 C209 1.355 . S
N208 C211 1.311 . S
C209 N208 1.355 . S
C209 C210 1.363 . S
C209 H221 0.929 . S
C210 C209 1.363 . S
C210 N212 1.375 . S
C210 H228 0.931 . S
C211 N208 1.311 . S
C211 N212 1.347 . S
C211 H222 0.929 . S
N212 C210 1.375 . S
N212 C211 1.347 . S
C213 C216 1.365 . S
C213 N218 1.328 . S
C213 H219 0.929 . S
C214 C215 1.362 . S
C214 C217 1.378 . S
C214 H229 0.929 . S
C215 C214 1.362 . S
C215 C216 1.366 . S
C216 C213 1.365 . S
C216 C215 1.366 . S
C216 H230 0.930 . S
C217 C214 1.378 . S
C217 N218 1.315 . S
C217 H220 0.930 . S
N218 Co198 2.194 . S
N218 C213 1.328 . S
N218 C217 1.315 . S
H219 C213 0.929 . S
H220 C217 0.930 . S
H221 C209 0.929 . S
H222 C211 0.929 . S
O223 Co198 2.351 . S
O223 C226 1.244 . S
O224 Co198 2.155 . S
O224 C226 1.240 . S
O225 Co198 2.096 . S
O225 C206 1.247 . S
C226 O223 1.244 . S
C226 O224 1.240 . S
H227 C201 0.931 . S
H228 C210 0.931 . S
H229 C214 0.929 . S
H230 C216 0.930 . S
Co231 N235 2.148 . S
Co231 N241 2.128 1_556 S
Co231 N251 2.194 . S
Co231 O256 2.351 . S
Co231 O257 2.155 . S
Co231 O258 2.096 . S
C232 N235 1.301 . S
C232 N236 1.328 . S
C232 H237 0.930 . S
C233 C234 1.333 . S
C233 N235 1.317 . S
C233 H238 0.930 . S
C234 C233 1.333 . S
C234 N236 1.350 . S
C234 H260 0.931 . S
N235 Co231 2.148 . S
N235 C232 1.301 . S
N235 C233 1.317 . S
N236 C232 1.328 . S
N236 C234 1.350 . S
H237 C232 0.930 . S
H238 C233 0.930 . S
C239 O240 1.224 . S
C239 O258 1.247 . S
O240 C239 1.224 . S
N241 Co231 2.128 1_554 S
N241 C242 1.355 . S
N241 C244 1.311 . S
C242 N241 1.355 . S
C242 C243 1.363 . S
C242 H254 0.929 . S
C243 C242 1.363 . S
C243 N245 1.375 . S
C243 H261 0.931 . S
C244 N241 1.311 . S
C244 N245 1.347 . S
C244 H255 0.929 . S
N245 C243 1.375 . S
N245 C244 1.347 . S
C246 C249 1.365 . S
C246 N251 1.328 . S
C246 H252 0.929 . S
C247 C248 1.362 . S
C247 C250 1.378 . S
C247 H262 0.929 . S
C248 C247 1.362 . S
C248 C249 1.366 . S
C249 C246 1.365 . S
C249 C248 1.366 . S
C249 H263 0.930 . S
C250 C247 1.378 . S
C250 N251 1.315 . S
C250 H253 0.930 . S
N251 Co231 2.194 . S
N251 C246 1.328 . S
N251 C250 1.315 . S
H252 C246 0.929 . S
H253 C250 0.930 . S
H254 C242 0.929 . S
H255 C244 0.929 . S
O256 Co231 2.351 . S
O256 C259 1.244 . S
O257 Co231 2.155 . S
O257 C259 1.240 . S
O258 Co231 2.096 . S
O258 C239 1.247 . S
C259 O256 1.244 . S
C259 O257 1.240 . S
H260 C234 0.931 . S
H261 C243 0.931 . S
H262 C247 0.929 . S
H263 C249 0.930 . S
Co264 N268 2.148 1_554 S
Co264 N274 2.128 . S
Co264 N284 2.194 . S
Co264 O289 2.351 . S
Co264 O290 2.155 . S
Co264 O291 2.096 . S
C265 N268 1.301 . S
C265 N269 1.328 . S
C265 H270 0.930 . S
C266 C267 1.333 . S
C266 N268 1.317 . S
C266 H271 0.930 . S
C267 C266 1.333 . S
C267 N269 1.350 . S
C267 H293 0.931 . S
N268 Co264 2.148 1_556 S
N268 C265 1.301 . S
N268 C266 1.317 . S
N269 C265 1.328 . S
N269 C267 1.350 . S
H270 C265 0.930 . S
H271 C266 0.930 . S
C272 O273 1.224 . S
C272 O291 1.247 . S
O273 C272 1.224 . S
N274 Co264 2.128 . S
N274 C275 1.355 . S
N274 C277 1.311 . S
C275 N274 1.355 . S
C275 C276 1.363 . S
C275 H287 0.929 . S
C276 C275 1.363 . S
C276 N278 1.375 . S
C276 H294 0.931 . S
C277 N274 1.311 . S
C277 N278 1.347 . S
C277 H288 0.929 . S
N278 C276 1.375 . S
N278 C277 1.347 . S
C279 C282 1.365 . S
C279 N284 1.328 . S
C279 H285 0.929 . S
C280 C281 1.362 . S
C280 C283 1.378 . S
C280 H295 0.929 . S
C281 C280 1.362 . S
C281 C282 1.366 . S
C282 C279 1.365 . S
C282 C281 1.366 . S
C282 H296 0.932 . S
C283 C280 1.378 . S
C283 N284 1.315 . S
C283 H286 0.930 . S
N284 Co264 2.194 . S
N284 C279 1.328 . S
N284 C283 1.315 . S
H285 C279 0.929 . S
H286 C283 0.930 . S
H287 C275 0.929 . S
H288 C277 0.929 . S
O289 Co264 2.351 . S
O289 C292 1.244 . S
O290 Co264 2.155 . S
O290 C292 1.240 . S
O291 Co264 2.096 . S
O291 C272 1.247 . S
C292 O289 1.244 . S
C292 O290 1.240 . S
H293 C267 0.931 . S
H294 C276 0.931 . S
H295 C280 0.929 . S
H296 C282 0.932 . S
Co297 N301 2.148 . S
Co297 N307 2.128 . S
Co297 N317 2.194 . S
Co297 O322 2.351 . S
Co297 O323 2.155 . S
Co297 O324 2.096 . S
C298 N301 1.301 . S
C298 N302 1.328 . S
C298 H303 0.930 . S
C299 C300 1.333 . S
C299 N301 1.317 . S
C299 H304 0.930 . S
C300 C299 1.333 . S
C300 N302 1.350 . S
C300 H326 0.939 . S
N301 Co297 2.148 . S
N301 C298 1.301 . S
N301 C299 1.317 . S
N302 C298 1.328 . S
N302 C300 1.350 . S
H303 C298 0.930 . S
H304 C299 0.930 . S
C305 O306 1.224 . S
C305 O324 1.247 . S
O306 C305 1.224 . S
N307 Co297 2.128 . S
N307 C308 1.355 . S
N307 C310 1.311 . S
C308 N307 1.355 . S
C308 C309 1.363 . S
C308 H320 0.929 . S
C309 C308 1.363 . S
C309 N311 1.375 . S
C309 H327 0.931 . S
C310 N307 1.311 . S
C310 N311 1.347 . S
C310 H321 0.929 . S
N311 C309 1.375 . S
N311 C310 1.347 . S
C312 C315 1.365 . S
C312 N317 1.328 . S
C312 H318 0.929 . S
C313 C314 1.362 . S
C313 C316 1.378 . S
C313 H328 0.929 . S
C314 C313 1.362 . S
C314 C315 1.366 . S
C315 C312 1.365 . S
C315 C314 1.366 . S
C315 H329 0.930 . S
C316 C313 1.378 . S
C316 N317 1.315 . S
C316 H319 0.930 . S
N317 Co297 2.194 . S
N317 C312 1.328 . S
N317 C316 1.315 . S
H318 C312 0.929 . S
H319 C316 0.930 . S
H320 C308 0.929 . S
H321 C310 0.929 . S
O322 Co297 2.351 . S
O322 C325 1.244 . S
O323 Co297 2.155 . S
O323 C325 1.240 . S
O324 Co297 2.096 . S
O324 C305 1.247 . S
C325 O322 1.244 . S
C325 O323 1.240 . S
H326 C300 0.939 . S
H327 C309 0.931 . S
H328 C313 0.929 . S
H329 C315 0.930 . S
Co330 N334 2.148 . S
Co330 N340 2.128 . S
Co330 N350 2.194 . S
Co330 O355 2.351 . S
Co330 O356 2.155 . S
Co330 O357 2.096 . S
C331 N334 1.301 . S
C331 N335 1.328 . S
C331 H336 0.930 . S
C332 C333 1.333 . S
C332 N334 1.317 . S
C332 H337 0.930 . S
C333 C332 1.333 . S
C333 N335 1.350 . S
C333 H359 0.931 . S
N334 Co330 2.148 . S
N334 C331 1.301 . S
N334 C332 1.317 . S
N335 C331 1.328 . S
N335 C333 1.350 . S
H336 C331 0.930 . S
H337 C332 0.930 . S
C338 O339 1.224 . S
C338 O357 1.247 . S
O339 C338 1.224 . S
N340 Co330 2.128 . S
N340 C341 1.355 . S
N340 C343 1.311 . S
C341 N340 1.355 . S
C341 C342 1.363 . S
C341 H353 0.929 . S
C342 C341 1.363 . S
C342 N344 1.375 . S
C342 H360 0.931 . S
C343 N340 1.311 . S
C343 N344 1.347 . S
C343 H354 0.929 . S
N344 C342 1.375 . S
N344 C343 1.347 . S
C345 C348 1.365 . S
C345 N350 1.328 . S
C345 H351 0.929 . S
C346 C347 1.362 . S
C346 C349 1.378 . S
C346 H361 0.929 . S
C347 C346 1.362 . S
C347 C348 1.366 . S
C348 C345 1.365 . S
C348 C347 1.366 . S
C348 H362 0.930 . S
C349 C346 1.378 . S
C349 N350 1.315 . S
C349 H352 0.930 . S
N350 Co330 2.194 . S
N350 C345 1.328 . S
N350 C349 1.315 . S
H351 C345 0.929 . S
H352 C349 0.930 . S
H353 C341 0.929 . S
H354 C343 0.929 . S
O355 Co330 2.351 . S
O355 C358 1.244 . S
O356 Co330 2.155 . S
O356 C358 1.240 . S
O357 Co330 2.096 . S
O357 C338 1.247 . S
C358 O355 1.244 . S
C358 O356 1.240 . S
H359 C333 0.931 . S
H360 C342 0.931 . S
H361 C346 0.929 . S
H362 C348 0.930 . S
Co363 N367 2.148 . S
Co363 N373 2.128 . S
Co363 N383 2.194 . S
Co363 O388 2.351 . S
Co363 O389 2.155 . S
Co363 O390 2.096 . S
C364 N367 1.301 . S
C364 N368 1.328 . S
C364 H369 0.930 . S
C365 C366 1.333 . S
C365 N367 1.317 . S
C365 H370 0.930 . S
C366 C365 1.333 . S
C366 N368 1.350 . S
C366 H392 0.931 . S
N367 Co363 2.148 . S
N367 C364 1.301 . S
N367 C365 1.317 . S
N368 C364 1.328 . S
N368 C366 1.350 . S
H369 C364 0.930 . S
H370 C365 0.930 . S
C371 O372 1.224 . S
C371 O390 1.247 . S
O372 C371 1.224 . S
N373 Co363 2.128 . S
N373 C374 1.355 . S
N373 C376 1.311 . S
C374 N373 1.355 . S
C374 C375 1.363 . S
C374 H386 0.929 . S
C375 C374 1.363 . S
C375 N377 1.375 . S
C375 H393 0.931 . S
C376 N373 1.311 . S
C376 N377 1.347 . S
C376 H387 0.929 . S
N377 C375 1.375 . S
N377 C376 1.347 . S
C378 C381 1.365 . S
C378 N383 1.328 . S
C378 H384 0.929 . S
C379 C380 1.362 . S
C379 C382 1.378 . S
C379 H394 0.929 . S
C380 C379 1.362 . S
C380 C381 1.366 . S
C381 C378 1.365 . S
C381 C380 1.366 . S
C381 H395 0.930 . S
C382 C379 1.378 . S
C382 N383 1.315 . S
C382 H385 0.930 . S
N383 Co363 2.194 . S
N383 C378 1.328 . S
N383 C382 1.315 . S
H384 C378 0.929 . S
H385 C382 0.930 . S
H386 C374 0.929 . S
H387 C376 0.929 . S
O388 Co363 2.351 . S
O388 C391 1.244 . S
O389 Co363 2.155 . S
O389 C391 1.240 . S
O390 Co363 2.096 . S
O390 C371 1.247 . S
C391 O388 1.244 . S
C391 O389 1.240 . S
H392 C366 0.931 . S
H393 C375 0.931 . S
H394 C379 0.929 . S
H395 C381 0.930 . S
C396 C397 1.391 . S
C396 C398 1.394 . S
C396 H412 0.931 . S
C397 C396 1.391 . S
C397 C401 1.376 . S
C398 C396 1.394 . S
C398 C399 1.369 . S
C398 C402 1.531 . S
C399 C398 1.369 . S
C399 C400 1.410 . S
C399 C407 1.503 . S
C400 C399 1.410 . S
C400 C401 1.392 . S
C400 C403 1.511 . S
C401 C397 1.376 . S
C401 C400 1.392 . S
C401 H413 0.929 . S
C402 C398 1.531 . S
C402 H414 0.960 . S
C402 H415 0.962 . S
C402 H416 0.960 . S
C403 C400 1.511 . S
C403 H417 0.961 . S
C403 H418 0.961 . S
C403 H419 0.961 . S
C404 C405 1.370 . S
C404 C406 1.363 . S
C404 H420 0.931 . S
C405 C404 1.370 . S
C405 C409 1.408 . S
C406 C404 1.363 . S
C406 C407 1.370 . S
C406 C410 1.524 . S
C407 C399 1.503 . S
C407 C406 1.370 . S
C407 C408 1.403 . S
C408 C407 1.403 . S
C408 C409 1.404 . S
C408 C411 1.539 . S
C409 C405 1.408 . S
C409 C408 1.404 . S
C409 H421 0.930 . S
C410 C406 1.524 . S
C410 H422 0.956 . S
C410 H423 0.961 . S
C410 H424 0.961 . S
C411 C408 1.539 . S
C411 H425 0.958 . S
C411 H426 0.961 . S
C411 H427 0.960 . S
H412 C396 0.931 . S
H413 C401 0.929 . S
H414 C402 0.960 . S
H415 C402 0.962 . S
H416 C402 0.960 . S
H417 C403 0.961 . S
H418 C403 0.961 . S
H419 C403 0.961 . S
H420 C404 0.931 . S
H421 C409 0.930 . S
H422 C410 0.956 . S
H423 C410 0.961 . S
H424 C410 0.961 . S
H425 C411 0.958 . S
H426 C411 0.961 . S
H427 C411 0.960 . S
C428 C429 1.391 . S
C428 C430 1.394 . S
C428 H444 0.931 . S
C429 C428 1.391 . S
C429 C433 1.376 . S
C430 C428 1.394 . S
C430 C431 1.369 . S
C430 C434 1.531 . S
C431 C430 1.369 . S
C431 C432 1.410 . S
C431 C439 1.503 . S
C432 C431 1.410 . S
C432 C433 1.392 . S
C432 C435 1.511 . S
C433 C429 1.376 . S
C433 C432 1.392 . S
C433 H445 0.929 . S
C434 C430 1.531 . S
C434 H446 0.960 . S
C434 H447 0.962 . S
C434 H448 0.960 . S
C435 C432 1.511 . S
C435 H449 0.961 . S
C435 H450 0.961 . S
C435 H451 0.961 . S
C436 C437 1.370 . S
C436 C438 1.363 . S
C436 H452 0.931 . S
C437 C436 1.370 . S
C437 C441 1.408 . S
C438 C436 1.363 . S
C438 C439 1.370 . S
C438 C442 1.524 . S
C439 C431 1.503 . S
C439 C438 1.370 . S
C439 C440 1.403 . S
C440 C439 1.403 . S
C440 C441 1.404 . S
C440 C443 1.539 . S
C441 C437 1.408 . S
C441 C440 1.404 . S
C441 H453 0.930 . S
C442 C438 1.524 . S
C442 H454 0.956 . S
C442 H455 0.961 . S
C442 H456 0.961 . S
C443 C440 1.539 . S
C443 H457 0.958 . S
C443 H458 0.961 . S
C443 H459 0.960 . S
H444 C428 0.931 . S
H445 C433 0.929 . S
H446 C434 0.960 . S
H447 C434 0.962 . S
H448 C434 0.960 . S
H449 C435 0.961 . S
H450 C435 0.961 . S
H451 C435 0.961 . S
H452 C436 0.931 . S
H453 C441 0.930 . S
H454 C442 0.956 . S
H455 C442 0.961 . S
H456 C442 0.961 . S
H457 C443 0.958 . S
H458 C443 0.961 . S
H459 C443 0.960 . S
C460 C461 1.391 . S
C460 C462 1.394 . S
C460 H476 0.931 . S
C461 C460 1.391 . S
C461 C465 1.376 . S
C462 C460 1.394 . S
C462 C463 1.369 1_554 S
C462 C466 1.531 1_554 S
C463 C462 1.369 1_556 S
C463 C464 1.410 . S
C463 C471 1.503 . S
C464 C463 1.410 . S
C464 C465 1.392 1_556 S
C464 C467 1.511 . S
C465 C461 1.376 . S
C465 C464 1.392 1_554 S
C465 H477 0.929 . S
C466 C462 1.531 1_556 S
C466 H478 0.960 . S
C466 H479 0.962 . S
C466 H480 0.960 1_556 S
C467 C464 1.511 . S
C467 H481 0.961 . S
C467 H482 0.961 . S
C467 H483 0.961 . S
C468 C469 1.370 . S
C468 C470 1.363 . S
C468 H484 0.931 . S
C469 C468 1.370 . S
C469 C473 1.408 . S
C470 C468 1.363 . S
C470 C471 1.370 . S
C470 C474 1.524 . S
C471 C463 1.503 . S
C471 C470 1.370 . S
C471 C472 1.403 . S
C472 C471 1.403 . S
C472 C473 1.404 . S
C472 C475 1.539 . S
C473 C469 1.408 . S
C473 C472 1.404 . S
C473 H485 0.930 . S
C474 C470 1.524 . S
C474 H486 0.956 . S
C474 H487 0.961 . S
C474 H488 0.961 . S
C475 C472 1.539 . S
C475 H489 0.958 . S
C475 H490 0.961 . S
C475 H491 0.960 . S
H476 C460 0.931 . S
H477 C465 0.929 . S
H478 C466 0.960 . S
H479 C466 0.962 . S
H480 C466 0.960 1_554 S
H481 C467 0.961 . S
H482 C467 0.961 . S
H483 C467 0.961 . S
H484 C468 0.931 . S
H485 C473 0.930 . S
H486 C474 0.956 . S
H487 C474 0.961 . S
H488 C474 0.961 . S
H489 C475 0.958 . S
H490 C475 0.961 . S
H491 C475 0.960 . S
C492 C493 1.391 . S
C492 C494 1.394 1_556 S
C492 H508 0.931 . S
C493 C492 1.391 . S
C493 C497 1.376 . S
C494 C492 1.394 1_554 S
C494 C495 1.369 . S
C494 C498 1.531 . S
C495 C494 1.369 . S
C495 C496 1.410 . S
C495 C503 1.503 . S
C496 C495 1.410 . S
C496 C497 1.392 1_554 S
C496 C499 1.511 . S
C497 C493 1.376 . S
C497 C496 1.392 1_556 S
C497 H509 0.929 . S
C498 C494 1.531 . S
C498 H510 0.960 . S
C498 H511 0.962 . S
C498 H512 0.960 . S
C499 C496 1.511 . S
C499 H513 0.961 . S
C499 H514 0.961 . S
C499 H515 0.961 . S
C500 C501 1.370 . S
C500 C502 1.363 . S
C500 H516 0.931 . S
C501 C500 1.370 . S
C501 C505 1.408 . S
C502 C500 1.363 . S
C502 C503 1.370 . S
C502 C506 1.524 . S
C503 C495 1.503 . S
C503 C502 1.370 . S
C503 C504 1.403 . S
C504 C503 1.403 . S
C504 C505 1.404 . S
C504 C507 1.539 . S
C505 C501 1.408 . S
C505 C504 1.404 . S
C505 H517 0.930 . S
C506 C502 1.524 . S
C506 H518 0.956 . S
C506 H519 0.961 . S
C506 H520 0.961 . S
C507 C504 1.539 . S
C507 H521 0.958 . S
C507 H522 0.961 . S
C507 H523 0.960 . S
H508 C492 0.931 . S
H509 C497 0.929 . S
H510 C498 0.960 . S
H511 C498 0.962 . S
H512 C498 0.960 . S
H513 C499 0.961 . S
H514 C499 0.961 . S
H515 C499 0.961 . S
H516 C500 0.931 . S
H517 C505 0.930 . S
H518 C506 0.956 . S
H519 C506 0.961 . S
H520 C506 0.961 . S
H521 C507 0.958 . S
H522 C507 0.961 . S
H523 C507 0.960 . S
C524 C525 1.391 . S
C524 C526 1.394 . S
C524 H540 0.931 . S
C525 C524 1.391 . S
C525 C529 1.376 . S
C526 C524 1.394 . S
C526 C527 1.369 . S
C526 C530 1.531 . S
C527 C526 1.369 . S
C527 C528 1.410 . S
C527 C535 1.503 . S
C528 C527 1.410 . S
C528 C529 1.392 . S
C528 C531 1.511 . S
C529 C525 1.376 . S
C529 C528 1.392 . S
C529 H541 0.929 . S
C530 C526 1.531 . S
C530 H542 0.960 . S
C530 H543 0.962 . S
C530 H544 0.960 . S
C531 C528 1.511 . S
C531 H545 0.961 . S
C531 H546 0.961 . S
C531 H547 0.961 . S
C532 C533 1.370 . S
C532 C534 1.363 . S
C532 H548 0.931 . S
C533 C532 1.370 . S
C533 C537 1.408 . S
C534 C532 1.363 . S
C534 C535 1.370 . S
C534 C538 1.524 . S
C535 C527 1.503 . S
C535 C534 1.370 . S
C535 C536 1.403 . S
C536 C535 1.403 . S
C536 C537 1.404 . S
C536 C539 1.539 . S
C537 C533 1.408 . S
C537 C536 1.404 . S
C537 H549 0.930 . S
C538 C534 1.524 . S
C538 H550 0.956 . S
C538 H551 0.961 . S
C538 H552 0.961 . S
C539 C536 1.539 . S
C539 H553 0.958 . S
C539 H554 0.961 . S
C539 H555 0.960 . S
H540 C524 0.931 . S
H541 C529 0.929 . S
H542 C530 0.960 . S
H543 C530 0.962 . S
H544 C530 0.960 . S
H545 C531 0.961 . S
H546 C531 0.961 . S
H547 C531 0.961 . S
H548 C532 0.931 . S
H549 C537 0.930 . S
H550 C538 0.956 . S
H551 C538 0.961 . S
H552 C538 0.961 . S
H553 C539 0.958 . S
H554 C539 0.961 . S
H555 C539 0.960 . S
C556 C557 1.391 . S
C556 C558 1.394 . S
C556 H572 0.931 . S
C557 C556 1.391 . S
C557 C561 1.376 . S
C558 C556 1.394 . S
C558 C559 1.369 . S
C558 C562 1.531 . S
C559 C558 1.369 . S
C559 C560 1.410 . S
C559 C567 1.503 . S
C560 C559 1.410 . S
C560 C561 1.392 . S
C560 C563 1.511 . S
C561 C557 1.376 . S
C561 C560 1.392 . S
C561 H573 0.929 . S
C562 C558 1.531 . S
C562 H574 0.960 . S
C562 H575 0.962 . S
C562 H576 0.960 . S
C563 C560 1.511 . S
C563 H577 0.961 . S
C563 H578 0.961 . S
C563 H579 0.961 . S
C564 C565 1.370 . S
C564 C566 1.363 . S
C564 H580 0.931 . S
C565 C564 1.370 . S
C565 C569 1.408 . S
C566 C564 1.363 . S
C566 C567 1.370 . S
C566 C570 1.524 . S
C567 C559 1.503 . S
C567 C566 1.370 . S
C567 C568 1.403 . S
C568 C567 1.403 . S
C568 C569 1.404 . S
C568 C571 1.539 . S
C569 C565 1.408 . S
C569 C568 1.404 . S
C569 H581 0.930 . S
C570 C566 1.524 . S
C570 H582 0.956 . S
C570 H583 0.961 . S
C570 H584 0.961 . S
C571 C568 1.539 . S
C571 H585 0.958 . S
C571 H586 0.961 . S
C571 H587 0.960 . S
H572 C556 0.931 . S
H573 C561 0.929 . S
H574 C562 0.960 . S
H575 C562 0.962 . S
H576 C562 0.960 . S
H577 C563 0.961 . S
H578 C563 0.961 . S
H579 C563 0.961 . S
H580 C564 0.931 . S
H581 C569 0.930 . S
H582 C570 0.956 . S
H583 C570 0.961 . S
H584 C570 0.961 . S
H585 C571 0.958 . S
H586 C571 0.961 . S
H587 C571 0.960 . S
C588 C589 1.391 . S
C588 C590 1.394 . S
C588 H604 0.931 . S
C589 C588 1.391 . S
C589 C593 1.376 . S
C590 C588 1.394 . S
C590 C591 1.369 . S
C590 C594 1.531 . S
C591 C590 1.369 . S
C591 C592 1.410 . S
C591 C599 1.503 . S
C592 C591 1.410 . S
C592 C593 1.392 . S
C592 C595 1.511 . S
C593 C589 1.376 . S
C593 C592 1.392 . S
C593 H605 0.929 . S
C594 C590 1.531 . S
C594 H606 0.960 . S
C594 H607 0.962 . S
C594 H608 0.960 . S
C595 C592 1.511 . S
C595 H609 0.961 . S
C595 H610 0.961 . S
C595 H611 0.961 . S
C596 C597 1.370 . S
C596 C598 1.363 . S
C596 H612 0.931 . S
C597 C596 1.370 . S
C597 C601 1.408 . S
C598 C596 1.363 . S
C598 C599 1.370 . S
C598 C602 1.524 . S
C599 C591 1.503 . S
C599 C598 1.370 . S
C599 C600 1.403 . S
C600 C599 1.403 . S
C600 C601 1.404 . S
C600 C603 1.539 . S
C601 C597 1.408 . S
C601 C600 1.404 . S
C601 H613 0.930 . S
C602 C598 1.524 . S
C602 H614 0.956 . S
C602 H615 0.961 . S
C602 H616 0.961 . S
C603 C600 1.539 . S
C603 H617 0.958 . S
C603 H618 0.961 . S
C603 H619 0.960 . S
H604 C588 0.931 . S
H605 C593 0.929 . S
H606 C594 0.960 . S
H607 C594 0.962 . S
H608 C594 0.960 . S
H609 C595 0.961 . S
H610 C595 0.961 . S
H611 C595 0.961 . S
H612 C596 0.931 . S
H613 C601 0.930 . S
H614 C602 0.956 . S
H615 C602 0.961 . S
H616 C602 0.961 . S
H617 C603 0.958 . S
H618 C603 0.961 . S
H619 C603 0.960 . S
C620 C621 1.391 . S
C620 C622 1.394 . S
C620 H636 0.931 . S
C621 C620 1.391 . S
C621 C625 1.376 . S
C622 C620 1.394 . S
C622 C623 1.369 . S
C622 C626 1.531 . S
C623 C622 1.369 . S
C623 C624 1.410 . S
C623 C631 1.503 . S
C624 C623 1.410 . S
C624 C625 1.392 . S
C624 C627 1.511 . S
C625 C621 1.376 . S
C625 C624 1.392 . S
C625 H637 0.929 . S
C626 C622 1.531 . S
C626 H638 0.960 . S
C626 H639 0.962 . S
C626 H640 0.960 . S
C627 C624 1.511 . S
C627 H641 0.961 . S
C627 H642 0.961 . S
C627 H643 0.961 . S
C628 C629 1.370 . S
C628 C630 1.363 . S
C628 H644 0.931 . S
C629 C628 1.370 . S
C629 C633 1.408 . S
C630 C628 1.363 . S
C630 C631 1.370 . S
C630 C634 1.524 . S
C631 C623 1.503 . S
C631 C630 1.370 . S
C631 C632 1.403 . S
C632 C631 1.403 . S
C632 C633 1.404 . S
C632 C635 1.539 . S
C633 C629 1.408 . S
C633 C632 1.404 . S
C633 H645 0.930 . S
C634 C630 1.524 . S
C634 H646 0.956 . S
C634 H647 0.961 . S
C634 H648 0.961 . S
C635 C632 1.539 . S
C635 H649 0.958 . S
C635 H650 0.961 . S
C635 H651 0.960 . S
H636 C620 0.931 . S
H637 C625 0.929 . S
H638 C626 0.960 . S
H639 C626 0.962 . S
H640 C626 0.960 . S
H641 C627 0.961 . S
H642 C627 0.961 . S
H643 C627 0.961 . S
H644 C628 0.931 . S
H645 C633 0.930 . S
H646 C634 0.956 . S
H647 C634 0.961 . S
H648 C634 0.961 . S
H649 C635 0.958 . S
H650 C635 0.961 . S
H651 C635 0.960 . S
C652 C653 1.391 . S
C652 C654 1.394 . S
C652 H668 0.931 . S
C653 C652 1.391 . S
C653 C657 1.376 . S
C654 C652 1.394 . S
C654 C655 1.369 . S
C654 C658 1.531 . S
C655 C654 1.369 . S
C655 C656 1.410 . S
C655 C663 1.503 . S
C656 C655 1.410 . S
C656 C657 1.392 . S
C656 C659 1.511 . S
C657 C653 1.376 . S
C657 C656 1.392 . S
C657 H669 0.929 . S
C658 C654 1.531 . S
C658 H670 0.960 . S
C658 H671 0.962 . S
C658 H672 0.960 . S
C659 C656 1.511 . S
C659 H673 0.961 . S
C659 H674 0.961 . S
C659 H675 0.961 . S
C660 C661 1.370 . S
C660 C662 1.363 . S
C660 H676 0.931 . S
C661 C660 1.370 . S
C661 C665 1.408 . S
C662 C660 1.363 . S
C662 C663 1.370 . S
C662 C666 1.524 . S
C663 C655 1.503 . S
C663 C662 1.370 . S
C663 C664 1.403 . S
C664 C663 1.403 . S
C664 C665 1.404 . S
C664 C667 1.539 . S
C665 C661 1.408 . S
C665 C664 1.404 . S
C665 H677 0.930 . S
C666 C662 1.524 . S
C666 H678 0.956 . S
C666 H679 0.961 . S
C666 H680 0.961 . S
C667 C664 1.539 . S
C667 H681 0.958 . S
C667 H682 0.961 . S
C667 H683 0.960 . S
H668 C652 0.931 . S
H669 C657 0.929 . S
H670 C658 0.960 . S
H671 C658 0.962 . S
H672 C658 0.960 . S
H673 C659 0.961 . S
H674 C659 0.961 . S
H675 C659 0.961 . S
H676 C660 0.931 . S
H677 C665 0.930 . S
H678 C666 0.956 . S
H679 C666 0.961 . S
H680 C666 0.961 . S
H681 C667 0.958 . S
H682 C667 0.961 . S
H683 C667 0.960 . S
C684 C685 1.391 . S
C684 C686 1.394 . S
C684 H700 0.931 . S
C685 C684 1.391 . S
C685 C689 1.376 . S
C686 C684 1.394 . S
C686 C687 1.369 . S
C686 C690 1.531 . S
C687 C686 1.369 . S
C687 C688 1.410 . S
C687 C695 1.503 . S
C688 C687 1.410 . S
C688 C689 1.392 . S
C688 C691 1.511 . S
C689 C685 1.376 . S
C689 C688 1.392 . S
C689 H701 0.929 . S
C690 C686 1.531 . S
C690 H702 0.960 . S
C690 H703 0.962 . S
C690 H704 0.960 . S
C691 C688 1.511 . S
C691 H705 0.961 . S
C691 H706 0.961 . S
C691 H707 0.961 . S
C692 C693 1.370 . S
C692 C694 1.363 . S
C692 H708 0.931 . S
C693 C692 1.370 . S
C693 C697 1.408 . S
C694 C692 1.363 . S
C694 C695 1.370 . S
C694 C698 1.524 . S
C695 C687 1.503 . S
C695 C694 1.370 . S
C695 C696 1.403 . S
C696 C695 1.403 . S
C696 C697 1.404 . S
C696 C699 1.539 . S
C697 C693 1.408 . S
C697 C696 1.404 . S
C697 H709 0.930 . S
C698 C694 1.524 . S
C698 H710 0.956 . S
C698 H711 0.961 . S
C698 H712 0.961 . S
C699 C696 1.539 . S
C699 H713 0.958 . S
C699 H714 0.961 . S
C699 H715 0.960 . S
H700 C684 0.931 . S
H701 C689 0.929 . S
H702 C690 0.960 . S
H703 C690 0.962 . S
H704 C690 0.960 . S
H705 C691 0.961 . S
H706 C691 0.961 . S
H707 C691 0.961 . S
H708 C692 0.931 . S
H709 C697 0.930 . S
H710 C698 0.956 . S
H711 C698 0.961 . S
H712 C698 0.961 . S
H713 C699 0.958 . S
H714 C699 0.961 . S
H715 C699 0.960 . S
C716 C717 1.391 . S
C716 C718 1.394 1_554 S
C716 H732 0.931 . S
C717 C716 1.391 . S
C717 C721 1.376 . S
C718 C716 1.394 1_556 S
C718 C719 1.369 . S
C718 C722 1.531 . S
C719 C718 1.369 . S
C719 C720 1.410 . S
C719 C727 1.503 . S
C720 C719 1.410 . S
C720 C721 1.392 1_556 S
C720 C723 1.511 . S
C721 C717 1.376 . S
C721 C720 1.392 1_554 S
C721 H733 0.929 . S
C722 C718 1.531 . S
C722 H734 0.960 . S
C722 H735 0.962 . S
C722 H736 0.960 . S
C723 C720 1.511 . S
C723 H737 0.961 . S
C723 H738 0.961 . S
C723 H739 0.961 . S
C724 C725 1.370 . S
C724 C726 1.363 . S
C724 H740 0.931 . S
C725 C724 1.370 . S
C725 C729 1.408 . S
C726 C724 1.363 . S
C726 C727 1.370 . S
C726 C730 1.524 . S
C727 C719 1.503 . S
C727 C726 1.370 . S
C727 C728 1.403 . S
C728 C727 1.403 . S
C728 C729 1.404 . S
C728 C731 1.539 . S
C729 C725 1.408 . S
C729 C728 1.404 . S
C729 H741 0.930 . S
C730 C726 1.524 . S
C730 H742 0.956 . S
C730 H743 0.961 . S
C730 H744 0.961 . S
C731 C728 1.539 . S
C731 H745 0.958 . S
C731 H746 0.961 . S
C731 H747 0.960 . S
H732 C716 0.931 . S
H733 C721 0.929 . S
H734 C722 0.960 . S
H735 C722 0.962 . S
H736 C722 0.960 . S
H737 C723 0.961 . S
H738 C723 0.961 . S
H739 C723 0.961 . S
H740 C724 0.931 . S
H741 C729 0.930 . S
H742 C730 0.956 . S
H743 C730 0.961 . S
H744 C730 0.961 . S
H745 C731 0.958 . S
H746 C731 0.961 . S
H747 C731 0.960 . S
C748 C749 1.391 . S
C748 C750 1.394 . S
C748 H764 0.931 . S
C749 C748 1.391 . S
C749 C753 1.376 . S
C750 C748 1.394 . S
C750 C751 1.369 1_556 S
C750 C754 1.531 1_556 S
C751 C750 1.369 1_554 S
C751 C752 1.412 . S
C751 C759 1.503 . S
C752 C751 1.412 . S
C752 C753 1.385 1_554 S
C752 C755 1.516 . S
C753 C749 1.376 . S
C753 C752 1.385 1_556 S
C753 H765 0.929 . S
C754 C750 1.531 1_554 S
C754 H766 0.960 . S
C754 H767 0.962 . S
C754 H768 0.960 1_554 S
C755 C752 1.516 . S
C755 H769 0.961 . S
C755 H770 0.961 . S
C755 H771 0.961 . S
C756 C757 1.370 . S
C756 C758 1.363 . S
C756 H772 0.931 . S
C757 C756 1.370 . S
C757 C761 1.408 . S
C758 C756 1.363 . S
C758 C759 1.370 . S
C758 C762 1.524 . S
C759 C751 1.503 . S
C759 C758 1.370 . S
C759 C760 1.403 . S
C760 C759 1.403 . S
C760 C761 1.404 . S
C760 C763 1.539 . S
C761 C757 1.408 . S
C761 C760 1.404 . S
C761 H773 0.930 . S
C762 C758 1.524 . S
C762 H774 0.956 . S
C762 H775 0.961 . S
C762 H776 0.961 . S
C763 C760 1.539 . S
C763 H777 0.958 . S
C763 H778 0.961 . S
C763 H779 0.960 . S
H764 C748 0.931 . S
H765 C753 0.929 . S
H766 C754 0.960 . S
H767 C754 0.962 . S
H768 C754 0.960 1_556 S
H769 C755 0.961 . S
H770 C755 0.961 . S
H771 C755 0.961 . S
H772 C756 0.931 . S
H773 C761 0.930 . S
H774 C762 0.956 . S
H775 C762 0.961 . S
H776 C762 0.961 . S
H777 C763 0.958 . S
H778 C763 0.961 . S
H779 C763 0.960 . S
C780 C781 1.391 . S
C780 C782 1.394 . S
C780 H796 0.931 . S
C781 C780 1.391 . S
C781 C785 1.376 . S
C782 C780 1.394 . S
C782 C783 1.369 . S
C782 C786 1.531 . S
C783 C782 1.369 . S
C783 C784 1.410 . S
C783 C791 1.503 . S
C784 C783 1.410 . S
C784 C785 1.392 . S
C784 C787 1.511 . S
C785 C781 1.376 . S
C785 C784 1.392 . S
C785 H797 0.929 . S
C786 C782 1.531 . S
C786 H798 0.960 . S
C786 H799 0.962 . S
C786 H800 0.960 . S
C787 C784 1.511 . S
C787 H801 0.961 . S
C787 H802 0.961 1_556 S
C787 H803 0.961 . S
C788 C789 1.370 . S
C788 C790 1.363 1_554 S
C788 H804 0.931 . S
C789 C788 1.370 . S
C789 C793 1.408 1_554 S
C790 C788 1.363 1_556 S
C790 C791 1.370 . S
C790 C794 1.524 1_556 S
C791 C783 1.503 . S
C791 C790 1.370 . S
C791 C792 1.403 . S
C792 C791 1.403 . S
C792 C793 1.404 . S
C792 C795 1.539 . S
C793 C789 1.408 1_556 S
C793 C792 1.404 . S
C793 H805 0.930 . S
C794 C790 1.524 1_554 S
C794 H806 0.956 1_554 S
C794 H807 0.961 . S
C794 H808 0.961 . S
C795 C792 1.539 . S
C795 H809 0.958 . S
C795 H810 0.961 . S
C795 H811 0.960 . S
H796 C780 0.931 . S
H797 C785 0.929 . S
H798 C786 0.960 . S
H799 C786 0.962 . S
H800 C786 0.960 . S
H801 C787 0.961 . S
H802 C787 0.961 1_554 S
H803 C787 0.961 . S
H804 C788 0.931 . S
H805 C793 0.930 . S
H806 C794 0.956 1_556 S
H807 C794 0.961 . S
H808 C794 0.961 . S
H809 C795 0.958 . S
H810 C795 0.961 . S
H811 C795 0.960 . S
C812 C813 1.391 . S
C812 C814 1.394 . S
C812 H828 0.931 . S
C813 C812 1.391 . S
C813 C817 1.376 . S
C814 C812 1.394 . S
C814 C815 1.369 . S
C814 C818 1.531 . S
C815 C814 1.369 . S
C815 C816 1.410 . S
C815 C823 1.503 . S
C816 C815 1.410 . S
C816 C817 1.392 . S
C816 C819 1.511 . S
C817 C813 1.376 . S
C817 C816 1.392 . S
C817 H829 0.929 . S
C818 C814 1.531 . S
C818 H830 0.960 . S
C818 H831 0.962 1_554 S
C818 H832 0.960 . S
C819 C816 1.511 . S
C819 H833 0.961 . S
C819 H834 0.961 . S
C819 H835 0.961 . S
C820 C821 1.370 . S
C820 C822 1.363 1_556 S
C820 H836 0.931 . S
C821 C820 1.370 . S
C821 C825 1.408 1_556 S
C822 C820 1.363 1_554 S
C822 C823 1.370 . S
C822 C826 1.524 1_554 S
C823 C815 1.503 . S
C823 C822 1.370 . S
C823 C824 1.403 . S
C824 C823 1.403 . S
C824 C825 1.404 . S
C824 C827 1.539 . S
C825 C821 1.408 1_554 S
C825 C824 1.404 . S
C825 H837 0.930 . S
C826 C822 1.524 1_556 S
C826 H838 0.956 . S
C826 H839 0.961 1_556 S
C826 H840 0.961 . S
C827 C824 1.539 . S
C827 H841 0.958 . S
C827 H842 0.961 . S
C827 H843 0.960 . S
H828 C812 0.931 . S
H829 C817 0.929 . S
H830 C818 0.960 . S
H831 C818 0.962 1_556 S
H832 C818 0.960 . S
H833 C819 0.961 . S
H834 C819 0.961 . S
H835 C819 0.961 . S
H836 C820 0.931 . S
H837 C825 0.930 . S
H838 C826 0.956 . S
H839 C826 0.961 1_554 S
H840 C826 0.961 . S
H841 C827 0.958 . S
H842 C827 0.961 . S
H843 C827 0.960 . S
C844 C845 1.391 . S
C844 C846 1.394 . S
C844 H860 0.931 . S
C845 C844 1.391 . S
C845 C849 1.376 . S
C846 C844 1.394 . S
C846 C847 1.369 . S
C846 C850 1.531 . S
C847 C846 1.369 . S
C847 C848 1.410 . S
C847 C855 1.503 . S
C848 C847 1.410 . S
C848 C849 1.392 . S
C848 C851 1.511 . S
C849 C845 1.376 . S
C849 C848 1.392 . S
C849 H861 0.929 . S
C850 C846 1.531 . S
C850 H862 0.960 . S
C850 H863 0.962 . S
C850 H864 0.960 . S
C851 C848 1.511 . S
C851 H865 0.961 . S
C851 H866 0.961 . S
C851 H867 0.961 . S
C852 C853 1.370 . S
C852 C854 1.363 . S
C852 H868 0.931 . S
C853 C852 1.370 . S
C853 C857 1.408 . S
C854 C852 1.363 . S
C854 C855 1.370 . S
C854 C858 1.524 . S
C855 C847 1.503 . S
C855 C854 1.370 . S
C855 C856 1.403 . S
C856 C855 1.403 . S
C856 C857 1.404 . S
C856 C859 1.539 . S
C857 C853 1.408 . S
C857 C856 1.404 . S
C857 H869 0.930 . S
C858 C854 1.524 . S
C858 H870 0.956 . S
C858 H871 0.961 . S
C858 H872 0.961 . S
C859 C856 1.539 . S
C859 H873 0.958 . S
C859 H874 0.961 . S
C859 H875 0.960 . S
H860 C844 0.931 . S
H861 C849 0.929 . S
H862 C850 0.960 . S
H863 C850 0.962 . S
H864 C850 0.960 . S
H865 C851 0.961 . S
H866 C851 0.961 . S
H867 C851 0.961 . S
H868 C852 0.931 . S
H869 C857 0.930 . S
H870 C858 0.956 . S
H871 C858 0.961 . S
H872 C858 0.961 . S
H873 C859 0.958 . S
H874 C859 0.961 . S
H875 C859 0.960 . S
C876 C877 1.391 . S
C876 C878 1.394 . S
C876 H892 0.931 . S
C877 C876 1.391 . S
C877 C881 1.376 . S
C878 C876 1.394 . S
C878 C879 1.369 . S
C878 C882 1.531 . S
C879 C878 1.369 . S
C879 C880 1.410 . S
C879 C887 1.503 . S
C880 C879 1.410 . S
C880 C881 1.392 . S
C880 C883 1.511 . S
C881 C877 1.376 . S
C881 C880 1.392 . S
C881 H893 0.929 . S
C882 C878 1.531 . S
C882 H894 0.960 . S
C882 H895 0.962 . S
C882 H896 0.960 . S
C883 C880 1.511 . S
C883 H897 0.961 . S
C883 H898 0.961 . S
C883 H899 0.961 . S
C884 C885 1.370 . S
C884 C886 1.363 . S
C884 H900 0.931 . S
C885 C884 1.370 . S
C885 C889 1.408 . S
C886 C884 1.363 . S
C886 C887 1.370 . S
C886 C890 1.524 . S
C887 C879 1.503 . S
C887 C886 1.370 . S
C887 C888 1.403 . S
C888 C887 1.403 . S
C888 C889 1.404 . S
C888 C891 1.539 . S
C889 C885 1.408 . S
C889 C888 1.404 . S
C889 H901 0.930 . S
C890 C886 1.524 . S
C890 H902 0.956 . S
C890 H903 0.961 . S
C890 H904 0.961 . S
C891 C888 1.539 . S
C891 H905 0.958 . S
C891 H906 0.961 . S
C891 H907 0.960 . S
H892 C876 0.931 . S
H893 C881 0.929 . S
H894 C882 0.960 . S
H895 C882 0.962 . S
H896 C882 0.960 . S
H897 C883 0.961 . S
H898 C883 0.961 . S
H899 C883 0.961 . S
H900 C884 0.931 . S
H901 C889 0.930 . S
H902 C890 0.956 . S
H903 C890 0.961 . S
H904 C890 0.961 . S
H905 C891 0.958 . S
H906 C891 0.961 . S
H907 C891 0.960 . S
C908 C909 1.391 . S
C908 C910 1.394 . S
C908 H924 0.931 . S
C909 C908 1.391 . S
C909 C913 1.376 . S
C910 C908 1.394 . S
C910 C911 1.369 . S
C910 C914 1.531 . S
C911 C910 1.369 . S
C911 C912 1.410 . S
C911 C919 1.503 . S
C912 C911 1.410 . S
C912 C913 1.392 . S
C912 C915 1.511 . S
C913 C909 1.376 . S
C913 C912 1.392 . S
C913 H925 0.929 . S
C914 C910 1.531 . S
C914 H926 0.960 . S
C914 H927 0.962 . S
C914 H928 0.960 . S
C915 C912 1.511 . S
C915 H929 0.961 . S
C915 H930 0.961 . S
C915 H931 0.961 . S
C916 C917 1.370 . S
C916 C918 1.363 . S
C916 H932 0.931 . S
C917 C916 1.370 . S
C917 C921 1.408 . S
C918 C916 1.363 . S
C918 C919 1.370 . S
C918 C922 1.524 . S
C919 C911 1.503 . S
C919 C918 1.370 . S
C919 C920 1.403 . S
C920 C919 1.403 . S
C920 C921 1.404 . S
C920 C923 1.539 . S
C921 C917 1.408 . S
C921 C920 1.404 . S
C921 H933 0.930 . S
C922 C918 1.524 . S
C922 H934 0.956 . S
C922 H935 0.961 . S
C922 H936 0.961 . S
C923 C920 1.539 . S
C923 H937 0.958 . S
C923 H938 0.961 . S
C923 H939 0.960 . S
H924 C908 0.931 . S
H925 C913 0.929 . S
H926 C914 0.960 . S
H927 C914 0.962 . S
H928 C914 0.960 . S
H929 C915 0.961 . S
H930 C915 0.961 . S
H931 C915 0.961 . S
H932 C916 0.931 . S
H933 C921 0.930 . S
H934 C922 0.956 . S
H935 C922 0.961 . S
H936 C922 0.961 . S
H937 C923 0.958 . S
H938 C923 0.961 . S
H939 C923 0.960 . S
C940 C941 1.391 . S
C940 C942 1.394 . S
C940 H956 0.931 . S
C941 C940 1.391 . S
C941 C945 1.376 . S
C942 C940 1.394 . S
C942 C943 1.369 . S
C942 C946 1.531 . S
C943 C942 1.369 . S
C943 C944 1.410 . S
C943 C951 1.503 . S
C944 C943 1.410 . S
C944 C945 1.392 . S
C944 C947 1.511 . S
C945 C941 1.376 . S
C945 C944 1.392 . S
C945 H957 0.929 . S
C946 C942 1.531 . S
C946 H958 0.960 . S
C946 H959 0.962 . S
C946 H960 0.960 . S
C947 C944 1.511 . S
C947 H961 0.961 . S
C947 H962 0.961 . S
C947 H963 0.961 . S
C948 C949 1.370 . S
C948 C950 1.363 . S
C948 H964 0.931 . S
C949 C948 1.370 . S
C949 C953 1.408 . S
C950 C948 1.363 . S
C950 C951 1.370 . S
C950 C954 1.524 . S
C951 C943 1.503 . S
C951 C950 1.370 . S
C951 C952 1.403 . S
C952 C951 1.403 . S
C952 C953 1.404 . S
C952 C955 1.539 . S
C953 C949 1.408 . S
C953 C952 1.404 . S
C953 H965 0.930 . S
C954 C950 1.524 . S
C954 H966 0.956 . S
C954 H967 0.961 . S
C954 H968 0.961 . S
C955 C952 1.539 . S
C955 H969 0.958 . S
C955 H970 0.961 . S
C955 H971 0.960 . S
H956 C940 0.931 . S
H957 C945 0.929 . S
H958 C946 0.960 . S
H959 C946 0.962 . S
H960 C946 0.960 . S
H961 C947 0.961 . S
H962 C947 0.961 . S
H963 C947 0.961 . S
H964 C948 0.931 . S
H965 C953 0.930 . S
H966 C954 0.956 . S
H967 C954 0.961 . S
H968 C954 0.961 . S
H969 C955 0.958 . S
H970 C955 0.961 . S
H971 C955 0.960 . S
C972 C973 1.391 . S
C972 C974 1.394 . S
C972 H988 0.931 . S
C973 C972 1.391 . S
C973 C977 1.376 . S
C974 C972 1.394 . S
C974 C975 1.369 . S
C974 C978 1.531 . S
C975 C974 1.369 . S
C975 C976 1.410 . S
C975 C983 1.503 . S
C976 C975 1.410 . S
C976 C977 1.392 . S
C976 C979 1.511 . S
C977 C973 1.376 . S
C977 C976 1.392 . S
C977 H989 0.929 . S
C978 C974 1.531 . S
C978 H990 0.960 . S
C978 H991 0.962 . S
C978 H992 0.960 . S
C979 C976 1.511 . S
C979 H993 0.961 . S
C979 H994 0.961 . S
C979 H995 0.961 . S
C980 C981 1.370 . S
C980 C982 1.363 . S
C980 H996 0.931 . S
C981 C980 1.370 . S
C981 C985 1.408 . S
C982 C980 1.363 . S
C982 C983 1.370 . S
C982 C986 1.524 . S
C983 C975 1.503 . S
C983 C982 1.370 . S
C983 C984 1.403 . S
C984 C983 1.403 . S
C984 C985 1.404 . S
C984 C987 1.539 . S
C985 C981 1.408 . S
C985 C984 1.404 . S
C985 H997 0.930 . S
C986 C982 1.524 . S
C986 H998 0.956 . S
C986 H999 0.961 . S
C986 H1000 0.961 . S
C987 C984 1.539 . S
C987 H1001 0.958 . S
C987 H1002 0.961 . S
C987 H1003 0.960 . S
H988 C972 0.931 . S
H989 C977 0.929 . S
H990 C978 0.960 . S
H991 C978 0.962 . S
H992 C978 0.960 . S
H993 C979 0.961 . S
H994 C979 0.961 . S
H995 C979 0.961 . S
H996 C980 0.931 . S
H997 C985 0.930 . S
H998 C986 0.956 . S
H999 C986 0.961 . S
H1000 C986 0.961 . S
H1001 C987 0.958 . S
H1002 C987 0.961 . S
H1003 C987 0.960 . S
C1004 C1005 1.391 . S
C1004 C1006 1.394 . S
C1004 H1020 0.931 . S
C1005 C1004 1.391 . S
C1005 C1009 1.376 . S
C1006 C1004 1.394 . S
C1006 C1007 1.369 . S
C1006 C1010 1.531 . S
C1007 C1006 1.369 . S
C1007 C1008 1.410 . S
C1007 C1015 1.503 . S
C1008 C1007 1.410 . S
C1008 C1009 1.392 . S
C1008 C1011 1.511 . S
C1009 C1005 1.376 . S
C1009 C1008 1.392 . S
C1009 H1021 0.929 . S
C1010 C1006 1.531 . S
C1010 H1022 0.960 . S
C1010 H1023 0.962 . S
C1010 H1024 0.960 . S
C1011 C1008 1.511 . S
C1011 H1025 0.961 . S
C1011 H1026 0.961 . S
C1011 H1027 0.961 . S
C1012 C1013 1.370 . S
C1012 C1014 1.363 . S
C1012 H1028 0.931 . S
C1013 C1012 1.370 . S
C1013 C1017 1.408 . S
C1014 C1012 1.363 . S
C1014 C1015 1.370 . S
C1014 C1018 1.524 . S
C1015 C1007 1.503 . S
C1015 C1014 1.370 . S
C1015 C1016 1.403 . S
C1016 C1015 1.403 . S
C1016 C1017 1.404 . S
C1016 C1019 1.539 . S
C1017 C1013 1.408 . S
C1017 C1016 1.404 . S
C1017 H1029 0.930 . S
C1018 C1014 1.524 . S
C1018 H1030 0.956 . S
C1018 H1031 0.961 . S
C1018 H1032 0.961 . S
C1019 C1016 1.539 . S
C1019 H1033 0.958 . S
C1019 H1034 0.961 . S
C1019 H1035 0.960 . S
H1020 C1004 0.931 . S
H1021 C1009 0.929 . S
H1022 C1010 0.960 . S
H1023 C1010 0.962 . S
H1024 C1010 0.960 . S
H1025 C1011 0.961 . S
H1026 C1011 0.961 . S
H1027 C1011 0.961 . S
H1028 C1012 0.931 . S
H1029 C1017 0.930 . S
H1030 C1018 0.956 . S
H1031 C1018 0.961 . S
H1032 C1018 0.961 . S
H1033 C1019 0.958 . S
H1034 C1019 0.961 . S
H1035 C1019 0.960 . S
C1036 C1037 1.391 . S
C1036 C1038 1.394 . S
C1036 H1052 0.931 . S
C1037 C1036 1.391 . S
C1037 C1041 1.376 . S
C1038 C1036 1.394 . S
C1038 C1039 1.369 . S
C1038 C1042 1.531 . S
C1039 C1038 1.369 . S
C1039 C1040 1.410 . S
C1039 C1047 1.503 . S
C1040 C1039 1.410 . S
C1040 C1041 1.392 . S
C1040 C1043 1.511 . S
C1041 C1037 1.376 . S
C1041 C1040 1.392 . S
C1041 H1053 0.929 . S
C1042 C1038 1.531 . S
C1042 H1054 0.960 . S
C1042 H1055 0.962 . S
C1042 H1056 0.960 . S
C1043 C1040 1.511 . S
C1043 H1057 0.961 . S
C1043 H1058 0.961 . S
C1043 H1059 0.961 . S
C1044 C1045 1.370 . S
C1044 C1046 1.363 . S
C1044 H1060 0.931 . S
C1045 C1044 1.370 . S
C1045 C1049 1.408 . S
C1046 C1044 1.363 . S
C1046 C1047 1.370 . S
C1046 C1050 1.524 . S
C1047 C1039 1.503 . S
C1047 C1046 1.370 . S
C1047 C1048 1.403 . S
C1048 C1047 1.403 . S
C1048 C1049 1.404 . S
C1048 C1051 1.539 . S
C1049 C1045 1.408 . S
C1049 C1048 1.404 . S
C1049 H1061 0.930 . S
C1050 C1046 1.524 . S
C1050 H1062 0.956 . S
C1050 H1063 0.961 . S
C1050 H1064 0.961 . S
C1051 C1048 1.539 . S
C1051 H1065 0.958 . S
C1051 H1066 0.961 . S
C1051 H1067 0.960 . S
H1052 C1036 0.931 . S
H1053 C1041 0.929 . S
H1054 C1042 0.960 . S
H1055 C1042 0.962 . S
H1056 C1042 0.960 . S
H1057 C1043 0.961 . S
H1058 C1043 0.961 . S
H1059 C1043 0.961 . S
H1060 C1044 0.931 . S
H1061 C1049 0.930 . S
H1062 C1050 0.956 . S
H1063 C1050 0.961 . S
H1064 C1050 0.961 . S
H1065 C1051 0.958 . S
H1066 C1051 0.961 . S
H1067 C1051 0.960 . S
C1068 C1069 1.391 . S
C1068 C1070 1.394 . S
C1068 H1084 0.931 . S
C1069 C1068 1.391 . S
C1069 C1073 1.376 . S
C1070 C1068 1.394 . S
C1070 C1071 1.369 . S
C1070 C1074 1.531 . S
C1071 C1070 1.369 . S
C1071 C1072 1.410 . S
C1071 C1079 1.503 . S
C1072 C1071 1.410 . S
C1072 C1073 1.392 . S
C1072 C1075 1.511 . S
C1073 C1069 1.376 . S
C1073 C1072 1.392 . S
C1073 H1085 0.929 . S
C1074 C1070 1.531 . S
C1074 H1086 0.960 . S
C1074 H1087 0.962 . S
C1074 H1088 0.960 . S
C1075 C1072 1.511 . S
C1075 H1089 0.961 . S
C1075 H1090 0.961 . S
C1075 H1091 0.961 . S
C1076 C1077 1.370 . S
C1076 C1078 1.363 . S
C1076 H1092 0.931 . S
C1077 C1076 1.370 . S
C1077 C1081 1.408 . S
C1078 C1076 1.363 . S
C1078 C1079 1.370 . S
C1078 C1082 1.524 . S
C1079 C1071 1.503 . S
C1079 C1078 1.370 . S
C1079 C1080 1.403 . S
C1080 C1079 1.403 . S
C1080 C1081 1.404 . S
C1080 C1083 1.539 . S
C1081 C1077 1.408 . S
C1081 C1080 1.404 . S
C1081 H1093 0.930 . S
C1082 C1078 1.524 . S
C1082 H1094 0.956 . S
C1082 H1095 0.961 . S
C1082 H1096 0.961 . S
C1083 C1080 1.539 . S
C1083 H1097 0.958 . S
C1083 H1098 0.961 . S
C1083 H1099 0.960 . S
H1084 C1068 0.931 . S
H1085 C1073 0.929 . S
H1086 C1074 0.960 . S
H1087 C1074 0.962 . S
H1088 C1074 0.960 . S
H1089 C1075 0.961 . S
H1090 C1075 0.961 . S
H1091 C1075 0.961 . S
H1092 C1076 0.931 . S
H1093 C1081 0.930 . S
H1094 C1082 0.956 . S
H1095 C1082 0.961 . S
H1096 C1082 0.961 . S
H1097 C1083 0.958 . S
H1098 C1083 0.961 . S
H1099 C1083 0.960 . S
C1100 C1101 1.391 1_556 S
C1100 C1102 1.394 . S
C1100 H1116 0.931 . S
C1101 C1100 1.391 1_554 S
C1101 C1105 1.376 . S
C1102 C1100 1.394 . S
C1102 C1103 1.369 . S
C1102 C1106 1.531 . S
C1103 C1102 1.369 . S
C1103 C1104 1.410 . S
C1103 C1111 1.503 . S
C1104 C1103 1.410 . S
C1104 C1105 1.392 1_556 S
C1104 C1107 1.511 1_556 S
C1105 C1101 1.376 . S
C1105 C1104 1.392 1_554 S
C1105 H1117 0.929 . S
C1106 C1102 1.531 . S
C1106 H1118 0.960 . S
C1106 H1119 0.962 . S
C1106 H1120 0.960 . S
C1107 C1104 1.511 1_554 S
C1107 H1121 0.961 . S
C1107 H1122 0.961 . S
C1107 H1123 0.961 1_554 S
C1108 C1109 1.370 . S
C1108 C1110 1.363 . S
C1108 H1124 0.931 . S
C1109 C1108 1.370 . S
C1109 C1113 1.408 . S
C1110 C1108 1.363 . S
C1110 C1111 1.370 . S
C1110 C1114 1.524 . S
C1111 C1103 1.503 . S
C1111 C1110 1.370 . S
C1111 C1112 1.403 . S
C1112 C1111 1.403 . S
C1112 C1113 1.404 . S
C1112 C1115 1.539 . S
C1113 C1109 1.408 . S
C1113 C1112 1.404 . S
C1113 H1125 0.930 . S
C1114 C1110 1.524 . S
C1114 H1126 0.956 . S
C1114 H1127 0.961 1_556 S
C1114 H1128 0.961 . S
C1115 C1112 1.539 . S
C1115 H1129 0.958 . S
C1115 H1130 0.961 . S
C1115 H1131 0.960 . S
H1116 C1100 0.931 . S
H1117 C1105 0.929 . S
H1118 C1106 0.960 . S
H1119 C1106 0.962 . S
H1120 C1106 0.960 . S
H1121 C1107 0.961 . S
H1122 C1107 0.961 . S
H1123 C1107 0.961 1_556 S
H1124 C1108 0.931 . S
H1125 C1113 0.930 . S
H1126 C1114 0.956 . S
H1127 C1114 0.961 1_554 S
H1128 C1114 0.961 . S
H1129 C1115 0.958 . S
H1130 C1115 0.961 . S
H1131 C1115 0.960 . S
C1132 C1133 1.391 . S
C1132 C1134 1.394 . S
C1132 H1148 0.931 . S
C1133 C1132 1.391 . S
C1133 C1137 1.376 . S
C1134 C1132 1.394 . S
C1134 C1135 1.369 . S
C1134 C1138 1.531 . S
C1135 C1134 1.369 . S
C1135 C1136 1.410 . S
C1135 C1143 1.503 . S
C1136 C1135 1.410 . S
C1136 C1137 1.392 . S
C1136 C1139 1.511 . S
C1137 C1133 1.376 . S
C1137 C1136 1.392 . S
C1137 H1149 0.929 . S
C1138 C1134 1.531 . S
C1138 H1150 0.960 . S
C1138 H1151 0.962 . S
C1138 H1152 0.960 . S
C1139 C1136 1.511 . S
C1139 H1153 0.961 . S
C1139 H1154 0.961 . S
C1139 H1155 0.961 . S
C1140 C1141 1.370 . S
C1140 C1142 1.363 1_556 S
C1140 H1156 0.931 . S
C1141 C1140 1.370 . S
C1141 C1145 1.408 1_556 S
C1142 C1140 1.363 1_554 S
C1142 C1143 1.370 . S
C1142 C1146 1.524 1_554 S
C1143 C1135 1.503 . S
C1143 C1142 1.370 . S
C1143 C1144 1.403 . S
C1144 C1143 1.403 . S
C1144 C1145 1.404 . S
C1144 C1147 1.539 . S
C1145 C1141 1.408 1_554 S
C1145 C1144 1.404 . S
C1145 H1157 0.930 . S
C1146 C1142 1.524 1_556 S
C1146 H1158 0.956 . S
C1146 H1159 0.961 . S
C1146 H1160 0.961 . S
C1147 C1144 1.539 . S
C1147 H1161 0.958 . S
C1147 H1162 0.961 . S
C1147 H1163 0.960 . S
H1148 C1132 0.931 . S
H1149 C1137 0.929 . S
H1150 C1138 0.960 . S
H1151 C1138 0.962 . S
H1152 C1138 0.960 . S
H1153 C1139 0.961 . S
H1154 C1139 0.961 . S
H1155 C1139 0.961 . S
H1156 C1140 0.931 . S
H1157 C1145 0.930 . S
H1158 C1146 0.956 . S
H1159 C1146 0.961 . S
H1160 C1146 0.961 . S
H1161 C1147 0.958 . S
H1162 C1147 0.961 . S
H1163 C1147 0.960 . S
C1164 C1165 1.391 . S
C1164 C1166 1.394 . S
C1164 H1180 0.931 . S
C1165 C1164 1.391 . S
C1165 C1169 1.376 . S
C1166 C1164 1.394 . S
C1166 C1167 1.369 . S
C1166 C1170 1.531 . S
C1167 C1166 1.369 . S
C1167 C1168 1.410 . S
C1167 C1175 1.503 . S
C1168 C1167 1.410 . S
C1168 C1169 1.392 . S
C1168 C1171 1.511 . S
C1169 C1165 1.376 . S
C1169 C1168 1.392 . S
C1169 H1181 0.929 . S
C1170 C1166 1.531 . S
C1170 H1182 0.960 . S
C1170 H1183 0.962 . S
C1170 H1184 0.960 1_554 S
C1171 C1168 1.511 . S
C1171 H1185 0.961 . S
C1171 H1186 0.961 . S
C1171 H1187 0.961 . S
C1172 C1173 1.370 . S
C1172 C1174 1.363 . S
C1172 H1188 0.931 . S
C1173 C1172 1.370 . S
C1173 C1177 1.408 . S
C1174 C1172 1.363 . S
C1174 C1175 1.370 . S
C1174 C1178 1.524 . S
C1175 C1167 1.503 . S
C1175 C1174 1.370 . S
C1175 C1176 1.403 . S
C1176 C1175 1.403 . S
C1176 C1177 1.404 . S
C1176 C1179 1.539 . S
C1177 C1173 1.408 . S
C1177 C1176 1.404 . S
C1177 H1189 0.930 . S
C1178 C1174 1.524 . S
C1178 H1190 0.956 . S
C1178 H1191 0.961 . S
C1178 H1192 0.961 . S
C1179 C1176 1.539 . S
C1179 H1193 0.958 . S
C1179 H1194 0.961 . S
C1179 H1195 0.960 . S
H1180 C1164 0.931 . S
H1181 C1169 0.929 . S
H1182 C1170 0.960 . S
H1183 C1170 0.962 . S
H1184 C1170 0.960 1_556 S
H1185 C1171 0.961 . S
H1186 C1171 0.961 . S
H1187 C1171 0.961 . S
H1188 C1172 0.931 . S
H1189 C1177 0.930 . S
H1190 C1178 0.956 . S
H1191 C1178 0.961 . S
H1192 C1178 0.961 . S
H1193 C1179 0.958 . S
H1194 C1179 0.961 . S
H1195 C1179 0.960 . S
C1196 C1197 1.391 . S
C1196 C1198 1.394 . S
C1196 H1212 0.931 . S
C1197 C1196 1.391 . S
C1197 C1201 1.376 . S
C1198 C1196 1.394 . S
C1198 C1199 1.369 . S
C1198 C1202 1.531 . S
C1199 C1198 1.369 . S
C1199 C1200 1.410 . S
C1199 C1207 1.503 1_655 S
C1200 C1199 1.410 . S
C1200 C1201 1.392 . S
C1200 C1203 1.511 . S
C1201 C1197 1.376 . S
C1201 C1200 1.392 . S
C1201 H1213 0.929 . S
C1202 C1198 1.531 . S
C1202 H1214 0.960 . S
C1202 H1215 0.962 . S
C1202 H1216 0.960 . S
C1203 C1200 1.511 . S
C1203 H1217 0.961 . S
C1203 H1218 0.961 1_655 S
C1203 H1219 0.961 . S
C1204 C1205 1.370 . S
C1204 C1206 1.363 . S
C1204 H1220 0.931 . S
C1205 C1204 1.370 . S
C1205 C1209 1.408 . S
C1206 C1204 1.363 . S
C1206 C1207 1.370 . S
C1206 C1210 1.524 . S
C1207 C1199 1.503 1_455 S
C1207 C1206 1.370 . S
C1207 C1208 1.403 . S
C1208 C1207 1.403 . S
C1208 C1209 1.404 . S
C1208 C1211 1.539 . S
C1209 C1205 1.408 . S
C1209 C1208 1.404 . S
C1209 H1221 0.930 . S
C1210 C1206 1.524 . S
C1210 H1222 0.956 . S
C1210 H1223 0.961 . S
C1210 H1224 0.961 . S
C1211 C1208 1.539 . S
C1211 H1225 0.958 . S
C1211 H1226 0.961 . S
C1211 H1227 0.960 1_455 S
H1212 C1196 0.931 . S
H1213 C1201 0.929 . S
H1214 C1202 0.960 . S
H1215 C1202 0.962 . S
H1216 C1202 0.960 . S
H1217 C1203 0.961 . S
H1218 C1203 0.961 1_455 S
H1219 C1203 0.961 . S
H1220 C1204 0.931 . S
H1221 C1209 0.930 . S
H1222 C1210 0.956 . S
H1223 C1210 0.961 . S
H1224 C1210 0.961 . S
H1225 C1211 0.958 . S
H1226 C1211 0.961 . S
H1227 C1211 0.960 1_655 S
C1228 C1229 1.391 . S
C1228 C1230 1.394 . S
C1228 H1244 0.931 . S
C1229 C1228 1.391 . S
C1229 C1233 1.376 . S
C1230 C1228 1.394 . S
C1230 C1231 1.369 . S
C1230 C1234 1.531 . S
C1231 C1230 1.369 . S
C1231 C1232 1.410 . S
C1231 C1239 1.503 1_545 S
C1232 C1231 1.410 . S
C1232 C1233 1.392 . S
C1232 C1235 1.511 . S
C1233 C1229 1.376 . S
C1233 C1232 1.392 . S
C1233 H1245 0.929 . S
C1234 C1230 1.531 . S
C1234 H1246 0.960 . S
C1234 H1247 0.962 . S
C1234 H1248 0.960 . S
C1235 C1232 1.511 . S
C1235 H1249 0.961 . S
C1235 H1250 0.961 1_545 S
C1235 H1251 0.961 . S
C1236 C1237 1.370 . S
C1236 C1238 1.363 . S
C1236 H1252 0.931 . S
C1237 C1236 1.370 . S
C1237 C1241 1.408 . S
C1238 C1236 1.363 . S
C1238 C1239 1.370 . S
C1238 C1242 1.524 . S
C1239 C1231 1.503 1_565 S
C1239 C1238 1.370 . S
C1239 C1240 1.403 . S
C1240 C1239 1.403 . S
C1240 C1241 1.404 . S
C1240 C1243 1.539 . S
C1241 C1237 1.408 . S
C1241 C1240 1.404 . S
C1241 H1253 0.930 . S
C1242 C1238 1.524 . S
C1242 H1254 0.956 . S
C1242 H1255 0.961 . S
C1242 H1256 0.961 . S
C1243 C1240 1.539 . S
C1243 H1257 0.958 . S
C1243 H1258 0.961 . S
C1243 H1259 0.960 1_565 S
H1244 C1228 0.931 . S
H1245 C1233 0.929 . S
H1246 C1234 0.960 . S
H1247 C1234 0.962 . S
H1248 C1234 0.960 . S
H1249 C1235 0.961 . S
H1250 C1235 0.961 1_565 S
H1251 C1235 0.961 . S
H1252 C1236 0.931 . S
H1253 C1241 0.930 . S
H1254 C1242 0.956 . S
H1255 C1242 0.961 . S
H1256 C1242 0.961 . S
H1257 C1243 0.958 . S
H1258 C1243 0.961 . S
H1259 C1243 0.960 1_545 S
C1260 C1261 1.391 . S
C1260 C1262 1.394 . S
C1260 H1276 0.931 . S
C1261 C1260 1.391 . S
C1261 C1265 1.376 . S
C1262 C1260 1.394 . S
C1262 C1263 1.369 . S
C1262 C1266 1.531 . S
C1263 C1262 1.369 . S
C1263 C1264 1.410 . S
C1263 C1271 1.503 . S
C1264 C1263 1.410 . S
C1264 C1265 1.392 . S
C1264 C1267 1.511 . S
C1265 C1261 1.376 . S
C1265 C1264 1.392 . S
C1265 H1277 0.929 . S
C1266 C1262 1.531 . S
C1266 H1278 0.960 . S
C1266 H1279 0.962 . S
C1266 H1280 0.960 . S
C1267 C1264 1.511 . S
C1267 H1281 0.961 . S
C1267 H1282 0.961 . S
C1267 H1283 0.961 . S
C1268 C1269 1.370 . S
C1268 C1270 1.363 . S
C1268 H1284 0.931 . S
C1269 C1268 1.370 . S
C1269 C1273 1.408 . S
C1270 C1268 1.363 . S
C1270 C1271 1.370 . S
C1270 C1274 1.524 . S
C1271 C1263 1.503 . S
C1271 C1270 1.370 . S
C1271 C1272 1.403 . S
C1272 C1271 1.403 . S
C1272 C1273 1.404 . S
C1272 C1275 1.539 . S
C1273 C1269 1.408 . S
C1273 C1272 1.404 . S
C1273 H1285 0.930 . S
C1274 C1270 1.524 . S
C1274 H1286 0.956 . S
C1274 H1287 0.961 . S
C1274 H1288 0.961 . S
C1275 C1272 1.539 . S
C1275 H1289 0.958 . S
C1275 H1290 0.961 . S
C1275 H1291 0.960 . S
H1276 C1260 0.931 . S
H1277 C1265 0.929 . S
H1278 C1266 0.960 . S
H1279 C1266 0.962 . S
H1280 C1266 0.960 . S
H1281 C1267 0.961 . S
H1282 C1267 0.961 . S
H1283 C1267 0.961 . S
H1284 C1268 0.931 . S
H1285 C1273 0.930 . S
H1286 C1274 0.956 . S
H1287 C1274 0.961 . S
H1288 C1274 0.961 . S
H1289 C1275 0.958 . S
H1290 C1275 0.961 . S
H1291 C1275 0.960 . S
C1292 C1293 1.391 . S
C1292 C1294 1.394 . S
C1292 H1308 0.931 . S
C1293 C1292 1.391 . S
C1293 C1297 1.376 . S
C1294 C1292 1.394 . S
C1294 C1295 1.369 . S
C1294 C1298 1.531 . S
C1295 C1294 1.369 . S
C1295 C1296 1.410 . S
C1295 C1303 1.503 1_455 S
C1296 C1295 1.410 . S
C1296 C1297 1.392 . S
C1296 C1299 1.511 . S
C1297 C1293 1.376 . S
C1297 C1296 1.392 . S
C1297 H1309 0.929 . S
C1298 C1294 1.531 . S
C1298 H1310 0.960 1_455 S
C1298 H1311 0.962 1_455 S
C1298 H1312 0.960 . S
C1299 C1296 1.511 . S
C1299 H1313 0.961 . S
C1299 H1314 0.961 . S
C1299 H1315 0.961 . S
C1300 C1301 1.370 . S
C1300 C1302 1.363 . S
C1300 H1316 0.931 . S
C1301 C1300 1.370 . S
C1301 C1305 1.408 . S
C1302 C1300 1.363 . S
C1302 C1303 1.370 . S
C1302 C1306 1.524 . S
C1303 C1295 1.503 1_655 S
C1303 C1302 1.370 . S
C1303 C1304 1.403 . S
C1304 C1303 1.403 . S
C1304 C1305 1.404 . S
C1304 C1307 1.539 . S
C1305 C1301 1.408 . S
C1305 C1304 1.404 . S
C1305 H1317 0.930 . S
C1306 C1302 1.524 . S
C1306 H1318 0.956 . S
C1306 H1319 0.961 1_655 S
C1306 H1320 0.961 . S
C1307 C1304 1.539 . S
C1307 H1321 0.958 . S
C1307 H1322 0.961 . S
C1307 H1323 0.960 1_655 S
H1308 C1292 0.931 . S
H1309 C1297 0.929 . S
H1310 C1298 0.960 1_655 S
H1311 C1298 0.962 1_655 S
H1312 C1298 0.960 . S
H1313 C1299 0.961 . S
H1314 C1299 0.961 . S
H1315 C1299 0.961 . S
H1316 C1300 0.931 . S
H1317 C1305 0.930 . S
H1318 C1306 0.956 . S
H1319 C1306 0.961 1_455 S
H1320 C1306 0.961 . S
H1321 C1307 0.958 . S
H1322 C1307 0.961 . S
H1323 C1307 0.960 1_455 S
C1324 C1325 1.391 . S
C1324 C1326 1.394 . S
C1324 H1340 0.931 . S
C1325 C1324 1.391 . S
C1325 C1329 1.376 . S
C1326 C1324 1.394 . S
C1326 C1327 1.369 . S
C1326 C1330 1.531 . S
C1327 C1326 1.369 . S
C1327 C1328 1.410 1_556 S
C1327 C1335 1.503 1_545 S
C1328 C1327 1.410 1_554 S
C1328 C1329 1.392 1_554 S
C1328 C1331 1.511 . S
C1329 C1325 1.376 . S
C1329 C1328 1.392 1_556 S
C1329 H1341 0.929 1_556 S
C1330 C1326 1.531 . S
C1330 H1342 0.960 1_545 S
C1330 H1343 0.962 . S
C1330 H1344 0.960 . S
C1331 C1328 1.511 . S
C1331 H1345 0.961 . S
C1331 H1346 0.961 . S
C1331 H1347 0.961 . S
C1332 C1333 1.370 . S
C1332 C1334 1.363 . S
C1332 H1348 0.931 . S
C1333 C1332 1.370 . S
C1333 C1337 1.408 1_554 S
C1334 C1332 1.363 . S
C1334 C1335 1.370 1_554 S
C1334 C1338 1.524 . S
C1335 C1327 1.503 1_565 S
C1335 C1334 1.370 1_556 S
C1335 C1336 1.403 . S
C1336 C1335 1.403 . S
C1336 C1337 1.404 . S
C1336 C1339 1.539 . S
C1337 C1333 1.408 1_556 S
C1337 C1336 1.404 . S
C1337 H1349 0.930 . S
C1338 C1334 1.524 . S
C1338 H1350 0.956 1_565 S
C1338 H1351 0.961 1_565 S
C1338 H1352 0.961 . S
C1339 C1336 1.539 . S
C1339 H1353 0.958 . S
C1339 H1354 0.961 . S
C1339 H1355 0.960 . S
H1340 C1324 0.931 . S
H1341 C1329 0.929 1_554 S
H1342 C1330 0.960 1_565 S
H1343 C1330 0.962 . S
H1344 C1330 0.960 . S
H1345 C1331 0.961 . S
H1346 C1331 0.961 . S
H1347 C1331 0.961 . S
H1348 C1332 0.931 . S
H1349 C1337 0.930 . S
H1350 C1338 0.956 1_545 S
H1351 C1338 0.961 1_545 S
H1352 C1338 0.961 . S
H1353 C1339 0.958 . S
H1354 C1339 0.961 . S
H1355 C1339 0.960 . S
C397 N5 1.259 . S
C405 N14 1.268 . S
C429 N47 1.253 1_556 S
C437 N38 1.271 . S
C461 N80 1.257 . S
C469 N71 1.269 . S
C493 N104 1.260 . S
C501 N113 1.269 . S
C525 N137 1.257 1_554 S
C533 N146 1.271 . S
C557 N179 1.271 . S
C565 N170 1.266 . S
C589 N203 1.269 . S
C597 N212 1.263 1_554 S
C621 N236 1.256 . S
C629 N245 1.271 . S
C653 N278 1.255 . S
C661 N269 1.270 . S
C685 N302 1.257 1_556 S
C693 N311 1.271 . S
C717 N335 1.272 . S
C725 N344 1.262 . S
C749 N377 1.265 . S
C757 N368 1.266 . S
C781 C206 1.507 . S
C789 C8 1.506 . S
C813 C41 1.526 . S
C821 C239 1.513 . S
C845 C272 1.506 . S
C853 C74 1.507 . S
C877 C305 1.503 . S
C885 C107 1.506 . S
C909 C338 1.496 . S
C917 C140 1.508 . S
C941 C371 1.500 . S
C949 C173 1.518 . S
C973 C28 1.118 . S
C981 C358 1.127 . S
C1005 C61 1.092 . S
C1013 C391 1.114 . S
C1037 C94 1.138 . S
C1045 C226 1.119 . S
C1069 C259 1.136 . S
C1077 C127 1.115 . S
C1101 C292 1.091 . S
C1109 C160 1.115 . S
C1133 C325 1.137 . S
C1141 C193 1.116 . S
C1165 C17 1.472 . S
C1173 C314 1.489 . S
C1197 C50 1.499 . S
C1205 C347 1.504 . S
C1229 C380 1.498 . S
C1237 C83 1.504 . S
C1261 C116 1.488 . S
C1269 C215 1.503 . S
C1293 C149 1.471 . S
C1301 C248 1.491 . S
C1325 C182 1.493 . S
C1333 C281 1.487 . S
