# Generated by pormake.
# Topology soi, (5)-cn, num edge types: 1
# Building blocks:
#     Node 0, Type 0, BuildingBlock: BEQFEK_clean_sbu_0, # of connection points: 5
#     Node 1, Type 0, BuildingBlock: BEQFEK_clean_sbu_0, # of connection points: 5
#     Node 2, Type 0, BuildingBlock: BEQFEK_clean_sbu_0, # of connection points: 5
#     Node 3, Type 0, BuildingBlock: BEQFEK_clean_sbu_0, # of connection points: 5
#     Node 4, Type 0, BuildingBlock: BEQFEK_clean_sbu_0, # of connection points: 5
#     Node 5, Type 0, BuildingBlock: BEQFEK_clean_sbu_0, # of connection points: 5
#     Node 6, Type 0, BuildingBlock: BEQFEK_clean_sbu_0, # of connection points: 5
#     Node 7, Type 0, BuildingBlock: BEQFEK_clean_sbu_0, # of connection points: 5
#     Node 8, Type 0, BuildingBlock: BEQFEK_clean_sbu_0, # of connection points: 5
#     Node 9, Type 0, BuildingBlock: BEQFEK_clean_sbu_0, # of connection points: 5
#     Node 10, Type 0, BuildingBlock: BEQFEK_clean_sbu_0, # of connection points: 5
#     Node 11, Type 0, BuildingBlock: BEQFEK_clean_sbu_0, # of connection points: 5
#     Node 12, Type 0, BuildingBlock: BEQFEK_clean_sbu_0, # of connection points: 5
#     Node 13, Type 0, BuildingBlock: BEQFEK_clean_sbu_0, # of connection points: 5
#     Node 14, Type 0, BuildingBlock: BEQFEK_clean_sbu_0, # of connection points: 5
#     Node 15, Type 0, BuildingBlock: BEQFEK_clean_sbu_0, # of connection points: 5
#     Edge 16, Type (0, 0), BuildingBlock: XIVTED_clean_linker_0, # of connection points: 2
#     Edge 17, Type (0, 0), BuildingBlock: XIVTED_clean_linker_0, # of connection points: 2
#     Edge 18, Type (0, 0), BuildingBlock: XIVTED_clean_linker_0, # of connection points: 2
#     Edge 19, Type (0, 0), BuildingBlock: XIVTED_clean_linker_0, # of connection points: 2
#     Edge 20, Type (0, 0), BuildingBlock: XIVTED_clean_linker_0, # of connection points: 2
#     Edge 21, Type (0, 0), BuildingBlock: XIVTED_clean_linker_0, # of connection points: 2
#     Edge 22, Type (0, 0), BuildingBlock: XIVTED_clean_linker_0, # of connection points: 2
#     Edge 23, Type (0, 0), BuildingBlock: XIVTED_clean_linker_0, # of connection points: 2
#     Edge 24, Type (0, 0), BuildingBlock: XIVTED_clean_linker_0, # of connection points: 2
#     Edge 25, Type (0, 0), BuildingBlock: XIVTED_clean_linker_0, # of connection points: 2
#     Edge 26, Type (0, 0), BuildingBlock: XIVTED_clean_linker_0, # of connection points: 2
#     Edge 27, Type (0, 0), BuildingBlock: XIVTED_clean_linker_0, # of connection points: 2
#     Edge 28, Type (0, 0), BuildingBlock: XIVTED_clean_linker_0, # of connection points: 2
#     Edge 29, Type (0, 0), BuildingBlock: XIVTED_clean_linker_0, # of connection points: 2
#     Edge 30, Type (0, 0), BuildingBlock: XIVTED_clean_linker_0, # of connection points: 2
#     Edge 31, Type (0, 0), BuildingBlock: XIVTED_clean_linker_0, # of connection points: 2
#     Edge 32, Type (0, 0), BuildingBlock: XIVTED_clean_linker_0, # of connection points: 2
#     Edge 33, Type (0, 0), BuildingBlock: XIVTED_clean_linker_0, # of connection points: 2
#     Edge 34, Type (0, 0), BuildingBlock: XIVTED_clean_linker_0, # of connection points: 2
#     Edge 35, Type (0, 0), BuildingBlock: XIVTED_clean_linker_0, # of connection points: 2
#     Edge 36, Type (0, 0), BuildingBlock: XIVTED_clean_linker_0, # of connection points: 2
#     Edge 37, Type (0, 0), BuildingBlock: XIVTED_clean_linker_0, # of connection points: 2
#     Edge 38, Type (0, 0), BuildingBlock: XIVTED_clean_linker_0, # of connection points: 2
#     Edge 39, Type (0, 0), BuildingBlock: XIVTED_clean_linker_0, # of connection points: 2
#     Edge 40, Type (0, 0), BuildingBlock: XIVTED_clean_linker_0, # of connection points: 2
#     Edge 41, Type (0, 0), BuildingBlock: XIVTED_clean_linker_0, # of connection points: 2
#     Edge 42, Type (0, 0), BuildingBlock: XIVTED_clean_linker_0, # of connection points: 2
#     Edge 43, Type (0, 0), BuildingBlock: XIVTED_clean_linker_0, # of connection points: 2
#     Edge 44, Type (0, 0), BuildingBlock: XIVTED_clean_linker_0, # of connection points: 2
#     Edge 45, Type (0, 0), BuildingBlock: XIVTED_clean_linker_0, # of connection points: 2
#     Edge 46, Type (0, 0), BuildingBlock: XIVTED_clean_linker_0, # of connection points: 2
#     Edge 47, Type (0, 0), BuildingBlock: XIVTED_clean_linker_0, # of connection points: 2
#     Edge 48, Type (0, 0), BuildingBlock: XIVTED_clean_linker_0, # of connection points: 2
#     Edge 49, Type (0, 0), BuildingBlock: XIVTED_clean_linker_0, # of connection points: 2
#     Edge 50, Type (0, 0), BuildingBlock: XIVTED_clean_linker_0, # of connection points: 2
#     Edge 51, Type (0, 0), BuildingBlock: XIVTED_clean_linker_0, # of connection points: 2
#     Edge 52, Type (0, 0), BuildingBlock: XIVTED_clean_linker_0, # of connection points: 2
#     Edge 53, Type (0, 0), BuildingBlock: XIVTED_clean_linker_0, # of connection points: 2
#     Edge 54, Type (0, 0), BuildingBlock: XIVTED_clean_linker_0, # of connection points: 2
#     Edge 55, Type (0, 0), BuildingBlock: XIVTED_clean_linker_0, # of connection points: 2
# Relax obj value: 0.120
# Max RMSD: 0.196
# Mean RMSD: 0.179
data_MOF--net-soi--node1-BEQFEK_clean_sbu_0--edge1-XIVTED_clean_linker_0
_symmetry_space_group_name_H-M    P1
_symmetry_Int_Tables_number       1
_symmetry_cell_setting            triclinic
loop_
_symmetry_equiv_pos_as_xyz
'x, y, z'
_cell_length_a     35.685653
_cell_length_b     27.738863
_cell_length_c     75.12629
_cell_angle_alpha  90.003267
_cell_angle_beta   90.104545
_cell_angle_gamma 90.853548
loop_
_atom_site_label
_atom_site_type_symbol
_atom_site_fract_x
_atom_site_fract_y
_atom_site_fract_z
_atom_type_partial_charge
Co0 Co 0.36054 0.06433 0.14815 0.0
Co1 Co 0.34228 0.06042 0.10673 0.0
C2 C 0.29447 0.11513 0.13211 0.0
O3 O 0.31473 0.10372 0.14542 0.0
O4 O 0.30165 0.1 0.1165 0.0
C5 C 0.3613 0.0851 0.18583 0.0
O6 O 0.34491 0.12504 0.18089 0.0
C7 C 0.30617 0.06459 0.07116 0.0
C8 C 0.33739 0.00952 0.05636 0.0
C9 C 0.30743 0.04059 0.05486 0.0
N10 N 0.33301 0.04698 0.08188 0.0
N11 N 0.35209 0.01489 0.07276 0.0
C12 C 0.28255 0.10669 0.07599 0.0
H13 H 0.29799 0.13087 0.08528 0.0
H14 H 0.25661 0.09338 0.08259 0.0
H15 H 0.27496 0.12781 0.06401 0.0
C16 C 0.355 0.95959 0.14386 0.0
N17 N 0.35497 0.00418 0.13686 0.0
N18 N 0.34483 0.00187 0.12002 0.0
C19 C 0.33613 0.95558 0.11606 0.0
C20 C 0.34291 0.92722 0.13095 0.0
C21 C 0.36612 0.94864 0.16263 0.0
H22 H 0.39193 0.96935 0.16611 0.0
H23 H 0.34346 0.95991 0.17177 0.0
H24 H 0.37141 0.90965 0.16452 0.0
O25 O 0.40199 0.10055 0.13754 0.0
O26 O 0.38986 0.0995 0.10849 0.0
H27 H 0.33605 0.92777 0.08951 0.0
H28 H 0.29615 0.90929 0.10246 0.0
C29 C 0.31557 0.93991 0.09959 0.0
H30 H 0.29908 0.96998 0.09409 0.0
H31 H 0.37473 -0.00411 0.07787 0.0
O32 O 0.37077 0.0548 0.17403 0.0
C33 C 0.41017 0.11273 0.12167 0.0
Co34 Co 0.64816 0.42993 0.14812 0.0
Co35 Co 0.66556 0.43289 0.10679 0.0
C36 C 0.71347 0.37813 0.13237 0.0
O37 O 0.69397 0.39079 0.14572 0.0
O38 O 0.70556 0.39211 0.11668 0.0
C39 C 0.64551 0.4095 0.18571 0.0
O40 O 0.65808 0.3672 0.18087 0.0
C41 C 0.70842 0.44208 0.07332 0.0
C42 C 0.66623 0.4712 0.05485 0.0
C43 C 0.70333 0.45751 0.05595 0.0
N44 N 0.67579 0.44611 0.08213 0.0
N45 N 0.65066 0.46341 0.07096 0.0
C46 C 0.7445 0.42763 0.08178 0.0
H47 H 0.74614 0.44158 0.0956 0.0
H48 H 0.76897 0.44149 0.07415 0.0
H49 H 0.74553 0.38772 0.08214 0.0
C50 C 0.6514 0.53452 0.14326 0.0
N51 N 0.65314 0.48965 0.13664 0.0
N52 N 0.66237 0.49165 0.11972 0.0
C53 C 0.66833 0.53818 0.1152 0.0
C54 C 0.66129 0.56693 0.12998 0.0
C55 C 0.63968 0.54585 0.16191 0.0
H56 H 0.61448 0.524 0.1654 0.0
H57 H 0.66255 0.53624 0.17123 0.0
H58 H 0.63305 0.58455 0.16352 0.0
O59 O 0.60663 0.39337 0.13762 0.0
O60 O 0.61768 0.39432 0.10846 0.0
H61 H 0.66225 0.55426 0.08754 0.0
H62 H 0.69762 0.59053 0.09862 0.0
C63 C 0.6847 0.55402 0.09777 0.0
H64 H 0.70648 0.52845 0.09354 0.0
H65 H 0.62299 0.4706 0.07441 0.0
O66 O 0.63869 0.44079 0.17385 0.0
C67 C 0.59783 0.38124 0.12179 0.0
Co68 Co 0.35689 0.92133 0.40519 0.0
Co69 Co 0.35478 0.92654 0.36307 0.0
C70 C 0.41609 0.87529 0.38337 0.0
O71 O 0.40212 0.88593 0.39849 0.0
O72 O 0.40127 0.8894 0.36876 0.0
C73 C 0.36419 0.93281 0.44597 0.0
O74 O 0.40059 0.94051 0.44642 0.0
C75 C 0.3711 0.96032 0.32585 0.0
C76 C 0.31553 0.94601 0.31375 0.0
C77 C 0.35054 0.96567 0.31025 0.0
N78 N 0.34887 0.93879 0.33808 0.0
N79 N 0.31596 0.92974 0.33057 0.0
C80 C 0.40976 0.97916 0.32956 0.0
H81 H 0.41569 0.97862 0.34407 0.0
H82 H 0.41301 0.01637 0.32428 0.0
H83 H 0.4303 0.95617 0.32261 0.0
C84 C 0.3538 0.02628 0.40102 0.0
N85 N 0.35604 0.98198 0.39395 0.0
N86 N 0.35223 0.98469 0.37655 0.0
C87 C 0.34555 0.03092 0.37209 0.0
C88 C 0.34652 0.05891 0.38749 0.0
C89 C 0.35894 0.03678 0.42041 0.0
H90 H 0.33337 0.02532 0.42775 0.0
H91 H 0.38289 0.01596 0.42556 0.0
H92 H 0.36454 0.07569 0.42283 0.0
O93 O 0.31319 0.88168 0.39814 0.0
O94 O 0.31203 0.88401 0.36877 0.0
H95 H 0.31559 0.01807 0.34772 0.0
H96 H 0.31694 0.08015 0.35444 0.0
C97 C 0.3333 0.04653 0.35393 0.0
H98 H 0.35837 0.05282 0.3455 0.0
H99 H 0.29311 0.91415 0.33716 0.0
O100 O 0.34751 0.92619 0.43119 0.0
C101 C 0.29849 0.86934 0.38342 0.0
Co102 Co 0.66043 0.55668 0.40568 0.0
Co103 Co 0.66496 0.55833 0.36371 0.0
C104 C 0.60572 0.61216 0.38284 0.0
O105 O 0.6179 0.59782 0.39795 0.0
O106 O 0.62074 0.59891 0.36823 0.0
C107 C 0.66359 0.57896 0.44297 0.0
O108 O 0.65764 0.62327 0.43761 0.0
C109 C 0.65207 0.53978 0.32481 0.0
C110 C 0.71035 0.52389 0.31709 0.0
C111 C 0.67401 0.52446 0.31066 0.0
N112 N 0.6746 0.54689 0.33903 0.0
N113 N 0.70941 0.53832 0.33413 0.0
C114 C 0.61027 0.54251 0.32539 0.0
H115 H 0.60021 0.54272 0.33936 0.0
H116 H 0.5974 0.5117 0.31805 0.0
H117 H 0.60141 0.57629 0.3188 0.0
C118 C 0.6617 0.45203 0.39914 0.0
N119 N 0.66059 0.49784 0.39328 0.0
N120 N 0.66001 0.49816 0.37579 0.0
C121 C 0.65897 0.45222 0.36994 0.0
C122 C 0.66045 0.42136 0.38451 0.0
C123 C 0.6686 0.43891 0.41819 0.0
H124 H 0.68995 0.46381 0.42395 0.0
H125 H 0.64224 0.44291 0.42583 0.0
H126 H 0.67876 0.40158 0.41967 0.0
O127 O 0.70651 0.59287 0.40125 0.0
O128 O 0.70987 0.59599 0.37189 0.0
H129 H 0.68199 0.44501 0.34382 0.0
H130 H 0.64706 0.39952 0.34931 0.0
C131 C 0.65509 0.4381 0.35079 0.0
H132 H 0.63309 0.45996 0.34448 0.0
H133 H 0.73241 0.54005 0.34271 0.0
O134 O 0.66213 0.5448 0.43171 0.0
C135 C 0.72293 0.60678 0.38717 0.0
Co136 Co 0.66672 0.91977 0.91956 0.0
Co137 Co 0.65006 0.91761 0.87788 0.0
C138 C 0.59923 0.86731 0.9035 0.0
O139 O 0.61875 0.88036 0.91705 0.0
O140 O 0.6082 0.88014 0.88775 0.0
C141 C 0.67173 0.95348 0.95809 0.0
O142 O 0.64369 0.9831 0.95602 0.0
C143 C 0.61931 0.93039 0.84063 0.0
C144 C 0.67236 0.92462 0.8257 0.0
C145 C 0.63429 0.93083 0.82353 0.0
N146 N 0.64754 0.92424 0.85237 0.0
N147 N 0.67903 0.92083 0.84324 0.0
C148 C 0.57885 0.93333 0.84557 0.0
H149 H 0.5749 0.92629 0.85999 0.0
H150 H 0.56837 0.96977 0.84237 0.0
H151 H 0.56223 0.90691 0.83761 0.0
C152 C 0.673 0.02548 0.91079 0.0
N153 N 0.66466 0.97926 0.90653 0.0
N154 N 0.65467 0.9776 0.88963 0.0
C155 C 0.65433 0.02253 0.88295 0.0
C156 C 0.66624 0.05442 0.89605 0.0
C157 C 0.69288 0.04072 0.92747 0.0
H158 H 0.70849 0.01019 0.9332 0.0
H159 H 0.67209 0.05368 0.93724 0.0
H160 H 0.71292 0.07079 0.92475 0.0
O161 O 0.70774 0.88095 0.91021 0.0
O162 O 0.6957 0.87968 0.88135 0.0
H163 H 0.66447 0.02377 0.8549 0.0
H164 H 0.63671 0.07346 0.86283 0.0
C165 C 0.64232 0.03447 0.8644 0.0
H166 H 0.61634 0.01403 0.86119 0.0
H167 H 0.70532 0.91585 0.84899 0.0
O168 O 0.68226 0.92746 0.94513 0.0
C169 C 0.71584 0.8678 0.89453 0.0
Co170 Co 0.32989 0.56197 0.91776 0.0
Co171 Co 0.34992 0.56038 0.87645 0.0
C172 C 0.40015 0.61007 0.90239 0.0
O173 O 0.37891 0.59947 0.9156 0.0
O174 O 0.39233 0.59615 0.88661 0.0
C175 C 0.32406 0.53045 0.95628 0.0
O176 O 0.3522 0.50098 0.95423 0.0
C177 C 0.38208 0.54307 0.83977 0.0
C178 C 0.33005 0.55044 0.82407 0.0
C179 C 0.36792 0.542 0.82252 0.0
N180 N 0.35357 0.55188 0.85105 0.0
N181 N 0.3227 0.55627 0.84145 0.0
C182 C 0.42204 0.53743 0.84523 0.0
H183 H 0.42489 0.53886 0.85994 0.0
H184 H 0.43264 0.50262 0.84017 0.0
H185 H 0.4393 0.56664 0.83913 0.0
C186 C 0.3217 0.45585 0.9099 0.0
N187 N 0.3315 0.50144 0.90537 0.0
N188 N 0.34276 0.50149 0.88866 0.0
C189 C 0.34243 0.45612 0.88241 0.0
C190 C 0.32871 0.42565 0.89555 0.0
C191 C 0.30055 0.4425 0.92641 0.0
H192 H 0.28527 0.47397 0.9316 0.0
H193 H 0.32048 0.42962 0.93663 0.0
H194 H 0.2801 0.41287 0.92367 0.0
O195 O 0.29014 0.60135 0.90737 0.0
O196 O 0.3053 0.60071 0.87885 0.0
H197 H 0.33459 0.45349 0.85418 0.0
H198 H 0.36016 0.40301 0.86311 0.0
C199 C 0.35558 0.44236 0.86423 0.0
H200 H 0.3824 0.46126 0.86139 0.0
H201 H 0.29635 0.56314 0.84679 0.0
O202 O 0.31332 0.55616 0.94326 0.0
C203 C 0.28405 0.61399 0.8914 0.0
Co204 Co 0.65947 0.06319 0.60737 0.0
Co205 Co 0.64893 0.06658 0.6493 0.0
C206 C 0.59627 0.11593 0.6229 0.0
O207 O 0.61312 0.10183 0.60889 0.0
O208 O 0.6075 0.10394 0.63842 0.0
C209 C 0.66233 0.04756 0.56736 0.0
O210 O 0.62562 0.045 0.56621 0.0
C211 C 0.61691 0.03637 0.68462 0.0
C212 C 0.65229 0.08121 0.70245 0.0
C213 C 0.6235 0.0473 0.70245 0.0
N214 N 0.64105 0.06256 0.6746 0.0
N215 N 0.66184 0.08943 0.68542 0.0
C216 C 0.58626 0.00494 0.67721 0.0
H217 H 0.58758 0.00395 0.66245 0.0
H218 H 0.58831 0.96789 0.6826 0.0
H219 H 0.55876 0.01917 0.68144 0.0
C220 C 0.65858 0.95861 0.61517 0.0
N221 N 0.6551 0.00457 0.62053 0.0
N222 N 0.65447 0.00587 0.63805 0.0
C223 C 0.65997 0.96109 0.6444 0.0
C224 C 0.66216 0.92929 0.63012 0.0
C225 C 0.65819 0.94371 0.59603 0.0
H226 H 0.63811 0.96612 0.58853 0.0
H227 H 0.65 0.90517 0.59454 0.0
H228 H 0.68648 0.94975 0.59026 0.0
O229 O 0.70102 0.10353 0.61702 0.0
O230 O 0.69513 0.10446 0.64632 0.0
H231 H 0.67976 0.98368 0.67027 0.0
H232 H 0.69228 0.92325 0.66407 0.0
C233 C 0.66989 0.95054 0.66338 0.0
H234 H 0.64497 0.93568 0.67037 0.0
H235 H 0.68281 0.11337 0.68118 0.0
O236 O 0.67789 0.05309 0.58249 0.0
C237 C 0.71251 0.11685 0.63229 0.0
Co238 Co 0.34277 0.43093 0.60378 0.0
Co239 Co 0.34917 0.42555 0.64606 0.0
C240 C 0.40432 0.3766 0.62192 0.0
O241 O 0.38894 0.39153 0.60759 0.0
O242 O 0.39163 0.38782 0.63721 0.0
C243 C 0.33952 0.45842 0.56368 0.0
O244 O 0.36931 0.4868 0.56374 0.0
C245 C 0.37864 0.43989 0.68325 0.0
C246 C 0.32668 0.4257 0.69843 0.0
C247 C 0.36425 0.43734 0.7004 0.0
N248 N 0.35062 0.43031 0.67163 0.0
N249 N 0.31976 0.42174 0.6809 0.0
C250 C 0.41856 0.44896 0.67809 0.0
H251 H 0.42155 0.44983 0.66338 0.0
H252 H 0.4286 0.48367 0.68383 0.0
H253 H 0.43624 0.42005 0.68368 0.0
C254 C 0.33728 0.53566 0.61272 0.0
N255 N 0.34361 0.48943 0.61725 0.0
N256 N 0.34785 0.48686 0.63468 0.0
C257 C 0.3457 0.53144 0.64164 0.0
C258 C 0.33861 0.56387 0.62802 0.0
C259 C 0.32478 0.55114 0.59461 0.0
H260 H 0.30755 0.52225 0.58834 0.0
H261 H 0.3498 0.55824 0.58622 0.0
H262 H 0.30802 0.58445 0.59521 0.0
O263 O 0.30024 0.39187 0.61167 0.0
O264 O 0.30244 0.38828 0.64102 0.0
H265 H 0.32668 0.52605 0.66859 0.0
H266 H 0.35164 0.58186 0.66364 0.0
C267 C 0.35026 0.54254 0.66103 0.0
H268 H 0.37669 0.52683 0.66584 0.0
H269 H 0.29378 0.41319 0.67524 0.0
O270 O 0.32906 0.43755 0.57796 0.0
C271 C 0.2866 0.37769 0.62635 0.0
Co272 Co 0.84834 0.56733 0.65096 0.0
Co273 Co 0.83667 0.5637 0.60912 0.0
C274 C 0.78276 0.61428 0.63282 0.0
O275 O 0.80129 0.60399 0.64681 0.0
O276 O 0.79319 0.60003 0.61753 0.0
C277 C 0.82525 0.54301 0.68566 0.0
O278 O 0.79338 0.53705 0.6771 0.0
C279 C 0.80676 0.56914 0.57241 0.0
C280 C 0.83964 0.51411 0.55847 0.0
C281 C 0.81013 0.54551 0.55613 0.0
N282 N 0.83183 0.55098 0.58393 0.0
N283 N 0.85203 0.51896 0.57533 0.0
C284 C 0.78284 0.6114 0.57655 0.0
H285 H 0.79668 0.63469 0.58667 0.0
H286 H 0.7556 0.59807 0.58182 0.0
H287 H 0.77778 0.63334 0.56446 0.0
C288 C 0.85037 0.46207 0.64568 0.0
N289 N 0.84795 0.50709 0.63916 0.0
N290 N 0.83923 0.50492 0.62214 0.0
C291 C 0.833 0.45836 0.61767 0.0
C292 C 0.84047 0.42962 0.63239 0.0
C293 C 0.86315 0.45022 0.66414 0.0
H294 H 0.88422 0.47724 0.66876 0.0
H295 H 0.83885 0.45054 0.6733 0.0
H296 H 0.87565 0.41383 0.66459 0.0
O297 O 0.88993 0.60697 0.64234 0.0
O298 O 0.88243 0.60537 0.61293 0.0
H299 H 0.83526 0.43027 0.59119 0.0
H300 H 0.79453 0.41151 0.60346 0.0
C301 C 0.81392 0.44234 0.60086 0.0
H302 H 0.79765 0.47215 0.59501 0.0
H303 H 0.87378 0.49962 0.5811 0.0
O304 O 0.85391 0.55735 0.67704 0.0
C305 C 0.90006 0.61981 0.6268 0.0
Co306 Co 0.15472 0.93413 0.64616 0.0
Co307 Co 0.15985 0.92634 0.60421 0.0
C308 C 0.21445 0.87785 0.62922 0.0
O309 O 0.19935 0.89399 0.6433 0.0
O310 O 0.20161 0.88787 0.61386 0.0
C311 C 0.12287 0.94285 0.68208 0.0
O312 O 0.09405 0.91762 0.67613 0.0
C313 C 0.19933 0.93963 0.57015 0.0
C314 C 0.15478 0.92165 0.55074 0.0
C315 C 0.19258 0.93386 0.55198 0.0
N316 N 0.16715 0.93092 0.57902 0.0
N317 N 0.14058 0.9207 0.56731 0.0
C318 C 0.23594 0.95057 0.57914 0.0
H319 H 0.23386 0.9455 0.59371 0.0
H320 H 0.24386 0.98882 0.57675 0.0
H321 H 0.25825 0.92742 0.57365 0.0
C322 C 0.16202 0.0373 0.63714 0.0
N323 N 0.15888 0.99074 0.63231 0.0
N324 N 0.1581 0.98782 0.61485 0.0
C325 C 0.15882 0.03259 0.60797 0.0
C326 C 0.16168 0.06564 0.62186 0.0
C327 C 0.16969 0.05325 0.65587 0.0
H328 H 0.18719 0.02631 0.66275 0.0
H329 H 0.18466 0.08852 0.65632 0.0
H330 H 0.14275 0.05614 0.66312 0.0
O331 O 0.11039 0.89477 0.63871 0.0
O332 O 0.11325 0.88998 0.60916 0.0
H333 H 0.13545 0.01711 0.58223 0.0
H334 H 0.14499 0.08031 0.58626 0.0
C335 C 0.15523 0.04323 0.58851 0.0
H336 H 0.18298 0.03956 0.58207 0.0
H337 H 0.113 0.91164 0.57067 0.0
O338 O 0.15022 0.9522 0.67173 0.0
C339 C 0.09731 0.87967 0.62386 0.0
Co340 Co 0.84668 0.42366 0.90958 0.0
Co341 Co 0.84627 0.42532 0.86755 0.0
C342 C 0.90455 0.37223 0.88639 0.0
O343 O 0.89009 0.38421 0.9013 0.0
O344 O 0.89128 0.38692 0.87158 0.0
C345 C 0.86264 0.45433 0.94746 0.0
O346 O 0.88829 0.48586 0.94242 0.0
C347 C 0.8522 0.43976 0.82765 0.0
C348 C 0.79224 0.45343 0.82255 0.0
C349 C 0.82652 0.44961 0.81417 0.0
N350 N 0.83356 0.438 0.84326 0.0
N351 N 0.79784 0.44634 0.83999 0.0
C352 C 0.89311 0.43032 0.8257 0.0
H353 H 0.90352 0.40922 0.83718 0.0
H354 H 0.90865 0.46525 0.8253 0.0
H355 H 0.89855 0.41083 0.81308 0.0
C356 C 0.84048 0.5299 0.90322 0.0
N357 N 0.84531 0.4841 0.89775 0.0
N358 N 0.8493 0.48397 0.88034 0.0
C359 C 0.84968 0.52959 0.87433 0.0
C360 C 0.84361 0.56033 0.88856 0.0
C361 C 0.82669 0.54342 0.92133 0.0
H362 H 0.81384 0.51178 0.92809 0.0
H363 H 0.85044 0.55764 0.92939 0.0
H364 H 0.80552 0.57222 0.92034 0.0
O365 O 0.80097 0.38675 0.90458 0.0
O366 O 0.80315 0.38474 0.87524 0.0
H367 H 0.83011 0.53932 0.84766 0.0
H368 H 0.86681 0.58114 0.85426 0.0
C369 C 0.85656 0.54329 0.85533 0.0
H370 H 0.87765 0.51908 0.84946 0.0
H371 H 0.77711 0.44708 0.84976 0.0
O372 O 0.84555 0.42854 0.93598 0.0
C373 C 0.78762 0.37274 0.8898 0.0
Co374 Co 0.14991 0.05083 0.90576 0.0
Co375 Co 0.14929 0.05708 0.86365 0.0
C376 C 0.09112 0.10579 0.8853 0.0
O377 O 0.10544 0.09093 0.8999 0.0
O378 O 0.10469 0.09435 0.87018 0.0
C379 C 0.15494 0.06856 0.94334 0.0
O380 O 0.1465 0.11283 0.9388 0.0
C381 C 0.13381 0.04687 0.82432 0.0
C382 C 0.19239 0.04557 0.81484 0.0
C383 C 0.15561 0.04311 0.80902 0.0
N384 N 0.15696 0.05094 0.83849 0.0
N385 N 0.19183 0.05022 0.83262 0.0
C386 C 0.09201 0.04843 0.82543 0.0
H387 H 0.08318 0.06606 0.83795 0.0
H388 H 0.08042 0.01111 0.8253 0.0
H389 H 0.08043 0.0679 0.81379 0.0
C390 C 0.15375 0.94721 0.89714 0.0
N391 N 0.15017 0.99352 0.89218 0.0
N392 N 0.14813 -0.00412 0.87472 0.0
C393 C 0.14912 0.95094 0.86802 0.0
C394 C 0.153 0.91851 0.88196 0.0
C395 C 0.16267 0.9322 0.91581 0.0
H396 H 0.18445 0.9568 0.92141 0.0
H397 H 0.13714 0.9353 0.92412 0.0
H398 H 0.17308 0.89484 0.91655 0.0
O399 O 0.19471 0.09008 0.90097 0.0
O400 O 0.19324 0.0957 0.87162 0.0
H401 H 0.17273 0.95021 0.84188 0.0
H402 H 0.14073 0.90042 0.84632 0.0
C403 C 0.14626 0.93939 0.8486 0.0
H404 H 0.12309 0.96003 0.84265 0.0
H405 H 0.21542 0.05267 0.84081 0.0
O406 O 0.15446 0.03576 0.93152 0.0
C407 C 0.20834 0.10598 0.88651 0.0
Co408 Co 0.16298 0.42449 0.41671 0.0
Co409 Co 0.15191 0.41567 0.3748 0.0
C410 C 0.09672 0.37223 0.40084 0.0
O411 O 0.11454 0.38685 0.41466 0.0
O412 O 0.1084 0.38168 0.38516 0.0
C413 C 0.18521 0.40758 0.45272 0.0
O414 O 0.18024 0.36254 0.44771 0.0
C415 C 0.11975 0.43021 0.33833 0.0
C416 C 0.16858 0.41061 0.32197 0.0
C417 C 0.13202 0.42613 0.32085 0.0
N418 N 0.14805 0.41794 0.34928 0.0
N419 N 0.17697 0.40594 0.33932 0.0
C420 C 0.08133 0.44305 0.34447 0.0
H421 H 0.08007 0.44413 0.35923 0.0
H422 H 0.07335 0.47856 0.33899 0.0
H423 H 0.06082 0.41591 0.33937 0.0
C424 C 0.17018 0.52735 0.4066 0.0
N425 N 0.16259 0.48104 0.40239 0.0
N426 N 0.15737 0.47759 0.38507 0.0
C427 C 0.16082 0.5217 0.37776 0.0
C428 C 0.16925 0.55473 0.39111 0.0
C429 C 0.18294 0.5432 0.42471 0.0
H430 H 0.20686 0.52082 0.42896 0.0
H431 H 0.15985 0.5372 0.43437 0.0
H432 H 0.19186 0.58161 0.42502 0.0
O433 O 0.20355 0.3823 0.40893 0.0
O434 O 0.19692 0.37718 0.37967 0.0
H435 H 0.17769 0.51152 0.35068 0.0
H436 H 0.15898 0.57073 0.35516 0.0
C437 C 0.15646 0.53178 0.35829 0.0
H438 H 0.12833 0.51942 0.35397 0.0
H439 H 0.20273 0.39501 0.34439 0.0
O440 O 0.1768 0.44107 0.4419 0.0
C441 C 0.21418 0.36658 0.39392 0.0
Co442 Co 0.8315 0.06254 0.41887 0.0
Co443 Co 0.84297 0.06351 0.37698 0.0
C444 C 0.89405 0.11849 0.40294 0.0
O445 O 0.87704 0.10462 0.41703 0.0
O446 O 0.88342 0.10447 0.38752 0.0
C447 C 0.81969 0.0774 0.45694 0.0
O448 O 0.83879 0.11776 0.45462 0.0
C449 C 0.87589 0.03666 0.34154 0.0
C450 C 0.83771 0.07637 0.32381 0.0
C451 C 0.8685 0.04674 0.32374 0.0
N452 N 0.85032 0.0593 0.35164 0.0
N453 N 0.8278 0.08304 0.34086 0.0
C454 C 0.9084 0.0096 0.34885 0.0
H455 H 0.90728 0.00829 0.36361 0.0
H456 H 0.90848 0.97247 0.3434 0.0
H457 H 0.93487 0.02761 0.34458 0.0
C458 C 0.83733 0.95813 0.41224 0.0
N459 N 0.83831 0.00375 0.40623 0.0
N460 N 0.83969 0.00335 0.38872 0.0
C461 C 0.8373 0.95738 0.38298 0.0
C462 C 0.83627 0.92695 0.39772 0.0
C463 C 0.83784 0.94525 0.43158 0.0
H464 H 0.85602 0.97117 0.43897 0.0
H465 H 0.84832 0.9082 0.43365 0.0
H466 H 0.80903 0.94765 0.43701 0.0
O467 O 0.78835 0.09902 0.40922 0.0
O468 O 0.79589 0.09734 0.37999 0.0
H469 H 0.81847 0.97429 0.35646 0.0
H470 H 0.80912 0.91309 0.3634 0.0
C471 C 0.82969 0.94344 0.36404 0.0
H472 H 0.85601 0.93142 0.35776 0.0
H473 H 0.80555 0.10403 0.34514 0.0
O474 O 0.81561 0.0485 0.44391 0.0
C475 C 0.7774 0.10977 0.39361 0.0
Co476 Co 0.15908 0.56203 0.10455 0.0
Co477 Co 0.14434 0.56279 0.14633 0.0
C478 C 0.09165 0.6104 0.12112 0.0
O479 O 0.11093 0.59895 0.10744 0.0
O480 O 0.10117 0.5973 0.13674 0.0
C481 C 0.16271 0.52999 0.06582 0.0
O482 O 0.13491 0.49902 0.068 0.0
C483 C 0.11375 0.54352 0.18307 0.0
C484 C 0.16465 0.56008 0.19884 0.0
C485 C 0.12762 0.54549 0.20037 0.0
N486 N 0.14162 0.55627 0.17181 0.0
N487 N 0.1718 0.56629 0.18144 0.0
C488 C 0.07441 0.53198 0.17748 0.0
H489 H 0.07165 0.53329 0.16277 0.0
H490 H 0.06608 0.49566 0.18238 0.0
H491 H 0.05519 0.55831 0.18362 0.0
C492 C 0.16915 0.45701 0.11304 0.0
N493 N 0.159 0.50218 0.11748 0.0
N494 N 0.15079 0.50286 0.1346 0.0
C495 C 0.154 0.45813 0.14133 0.0
C496 C 0.16589 0.42761 0.12795 0.0
C497 C 0.18754 0.44385 0.09586 0.0
H498 H 0.2023 0.47559 0.09012 0.0
H499 H 0.16591 0.43053 0.08639 0.0
H500 H 0.20808 0.41468 0.09787 0.0
O501 O 0.19976 0.60323 0.11377 0.0
O502 O 0.18895 0.6046 0.14275 0.0
H503 H 0.16747 0.46231 0.16906 0.0
H504 H 0.14595 0.40553 0.16244 0.0
C505 C 0.14612 0.44507 0.16029 0.0
H506 H 0.11824 0.45862 0.164 0.0
H507 H 0.19756 0.57711 0.17612 0.0
O508 O 0.17375 0.55603 0.0788 0.0
C509 C 0.20825 0.61747 0.12934 0.0
Co510 Co 0.8405 0.93128 0.10516 0.0
Co511 Co 0.85425 0.92782 0.14704 0.0
C512 C 0.90506 0.8769 0.12192 0.0
O513 O 0.8868 0.89085 0.10821 0.0
O514 O 0.89582 0.8898 0.1376 0.0
C515 C 0.83749 0.96422 0.06631 0.0
O516 O 0.86566 -0.00524 0.06829 0.0
C517 C 0.88327 0.94076 0.18462 0.0
C518 C 0.82993 0.9301 0.19909 0.0
C519 C 0.86776 0.93902 0.20159 0.0
N520 N 0.85559 0.93318 0.17262 0.0
N521 N 0.82391 0.92685 0.18148 0.0
C522 C 0.92377 0.94709 0.17999 0.0
H523 H 0.92817 0.94227 0.16548 0.0
H524 H 0.93355 0.98369 0.18396 0.0
H525 H 0.94062 0.92069 0.18755 0.0
C526 C 0.83501 0.03654 0.1142 0.0
N527 N 0.84308 0.99051 0.11841 0.0
N528 N 0.85121 0.98853 0.13554 0.0
C529 C 0.85015 0.03319 0.14249 0.0
C530 C 0.83965 0.06513 0.12927 0.0
C531 C 0.81707 0.05157 0.0971 0.0
H532 H 0.80146 0.02088 0.09106 0.0
H533 H 0.83909 0.06446 0.08778 0.0
H534 H 0.79736 0.08154 0.09931 0.0
O535 O 0.79785 0.89281 0.1138 0.0
O536 O 0.8079 0.88995 0.14281 0.0
H537 H 0.83549 0.03087 0.17008 0.0
H538 H 0.86221 0.08412 0.16371 0.0
C539 C 0.85858 0.04477 0.16155 0.0
H540 H 0.88479 0.02688 0.16551 0.0
H541 H 0.79793 0.92026 0.1755 0.0
O542 O 0.82647 0.93866 0.0794 0.0
C543 C 0.78833 0.87891 0.12924 0.0
H544 H 0.30318 0.88642 0.15817 0.0
H545 H 0.25927 0.6485 0.10452 0.0
H546 H 0.35838 0.85212 0.10885 0.0
H547 H 0.22616 0.66932 0.15923 0.0
H548 H 0.30133 0.7183 0.10697 0.0
H549 H 0.28025 0.80344 0.16015 0.0
C550 C 0.31121 0.86103 0.14796 0.0
C551 C 0.33267 0.87593 0.13332 0.0
C552 C 0.28534 0.70712 0.11853 0.0
C553 C 0.30556 0.78135 0.13518 0.0
C554 C 0.26126 0.6673 0.11713 0.0
C555 C 0.23857 0.65369 0.13158 0.0
C556 C 0.28634 0.73383 0.1344 0.0
C557 C 0.24272 0.67894 0.14767 0.0
C558 C 0.29794 0.81369 0.14904 0.0
C559 C 0.34151 0.84195 0.12025 0.0
N560 N 0.26563 0.71834 0.14854 0.0
N561 N 0.32747 0.79629 0.12134 0.0
H562 H 0.70064 0.6101 0.15668 0.0
H563 H 0.73965 0.84654 0.10345 0.0
H564 H 0.64144 0.64122 0.10802 0.0
H565 H 0.76552 0.8317 0.15937 0.0
H566 H 0.69779 0.77639 0.10556 0.0
H567 H 0.71944 0.69443 0.15891 0.0
C568 C 0.69091 0.63502 0.14665 0.0
C569 C 0.66955 0.61883 0.13212 0.0
C570 C 0.71201 0.78915 0.11744 0.0
C571 C 0.69202 0.71523 0.13424 0.0
C572 C 0.73599 0.82915 0.11625 0.0
C573 C 0.75692 0.84416 0.13115 0.0
C574 C 0.70944 0.76379 0.13357 0.0
C575 C 0.75057 0.82078 0.14744 0.0
C576 C 0.70176 0.6832 0.14789 0.0
C577 C 0.65842 0.65238 0.11929 0.0
N578 N 0.72797 0.78111 0.14813 0.0
N579 N 0.67034 0.69904 0.12047 0.0
H580 H 0.29859 0.0941 0.4122 0.0
H581 H 0.2506 0.33127 0.3646 0.0
H582 H 0.36596 0.13787 0.36721 0.0
H583 H 0.24596 0.31962 0.42191 0.0
H584 H 0.29154 0.26108 0.36387 0.0
H585 H 0.27635 0.1761 0.415 0.0
C586 C 0.30936 0.12123 0.40313 0.0
C587 C 0.33453 0.10935 0.38959 0.0
C588 C 0.28213 0.27472 0.37658 0.0
C589 C 0.30784 0.20289 0.39225 0.0
C590 C 0.2587 0.31455 0.37703 0.0
C591 C 0.24428 0.33073 0.39332 0.0
C592 C 0.29039 0.25062 0.39248 0.0
C593 C 0.25599 0.30806 0.40903 0.0
C594 C 0.29649 0.168 0.40468 0.0
C595 C 0.34633 0.14565 0.37776 0.0
N596 N 0.27772 0.26847 0.40819 0.0
N597 N 0.33238 0.19088 0.37917 0.0
H598 H 0.7492 0.14383 0.36231 0.0
H599 H 0.62853 0.35164 0.4059 0.0
H600 H 0.7341 0.15258 0.41928 0.0
H601 H 0.70708 0.37176 0.36283 0.0
H602 H 0.64587 0.26603 0.40734 0.0
H603 H 0.70926 0.21362 0.35871 0.0
C604 C 0.73684 0.15964 0.37406 0.0
C605 C 0.74598 0.14324 0.39118 0.0
C606 C 0.65852 0.28928 0.39737 0.0
C607 C 0.70008 0.22273 0.38702 0.0
C608 C 0.64893 0.33791 0.3966 0.0
C609 C 0.66658 0.36877 0.38429 0.0
C610 C 0.68502 0.27155 0.38537 0.0
C611 C 0.69232 0.3492 0.37234 0.0
C612 C 0.71407 0.19946 0.37195 0.0
C613 C 0.72842 0.1647 0.40585 0.0
N614 N 0.70078 0.30184 0.37319 0.0
N615 N 0.70673 0.20407 0.40347 0.0
H616 H 0.70427 0.09633 0.86861 0.0
H617 H 0.7463 0.33901 0.91805 0.0
H618 H 0.6513 0.12914 0.91864 0.0
H619 H 0.76026 0.32201 0.86129 0.0
H620 H 0.70766 0.2656 0.91851 0.0
H621 H 0.72255 0.18067 0.86549 0.0
C622 C 0.69582 0.12157 0.87879 0.0
C623 C 0.67592 0.10596 0.89382 0.0
C624 C 0.71854 0.27855 0.90591 0.0
C625 C 0.69788 0.20239 0.89065 0.0
C626 C 0.74062 0.32045 0.90562 0.0
C627 C 0.7573 0.336 0.88967 0.0
C628 C 0.71365 0.25187 0.89019 0.0
C629 C 0.74854 0.31091 0.87395 0.0
C630 C 0.70637 0.16974 0.87703 0.0
C631 C 0.66687 0.13986 0.90691 0.0
N632 N 0.72795 0.26949 0.87468 0.0
N633 N 0.67832 0.18657 0.90513 0.0
H634 H 0.29129 0.38419 0.86784 0.0
H635 H 0.24656 0.13967 0.91581 0.0
H636 H 0.34042 0.35125 0.91882 0.0
H637 H 0.23782 0.15805 0.85885 0.0
H638 H 0.28398 0.21403 0.91745 0.0
H639 H 0.27275 0.30002 0.86447 0.0
C640 C 0.29876 0.35895 0.8782 0.0
C641 C 0.31787 0.37441 0.89351 0.0
C642 C 0.2745 0.20117 0.90457 0.0
C643 C 0.29567 0.27815 0.89002 0.0
C644 C 0.25317 0.15871 0.9036 0.0
C645 C 0.23827 0.14323 0.88721 0.0
C646 C 0.28047 0.22843 0.88908 0.0
C647 C 0.24812 0.16903 0.87182 0.0
C648 C 0.28809 0.31088 0.8763 0.0
C649 C 0.32559 0.34058 0.90684 0.0
N650 N 0.26798 0.21091 0.87318 0.0
N651 N 0.31413 0.29391 0.90487 0.0
H652 H 0.63763 0.86015 0.65378 0.0
H653 H 0.73799 0.64547 0.60576 0.0
H654 H 0.71003 0.88071 0.60834 0.0
H655 H 0.75801 0.66513 0.662 0.0
H656 H 0.70097 0.71842 0.60553 0.0
H657 H 0.65867 0.7762 0.65589 0.0
C658 C 0.65763 0.84706 0.64418 0.0
C659 C 0.67195 0.87755 0.63079 0.0
C660 C 0.71284 0.70597 0.61796 0.0
C661 C 0.69437 0.78177 0.63269 0.0
C662 C 0.73407 0.6644 0.61814 0.0
C663 C 0.75229 0.64988 0.63378 0.0
C664 C 0.70902 0.73268 0.63361 0.0
C665 C 0.74507 0.67544 0.64955 0.0
C666 C 0.66929 0.79926 0.64536 0.0
C667 C 0.69728 0.85841 0.61853 0.0
N668 N 0.72433 0.71623 0.64904 0.0
N669 N 0.70749 0.81165 0.61971 0.0
H670 H 0.26094 0.84536 0.60297 0.0
H671 H 0.28896 0.60063 0.65166 0.0
H672 H 0.23437 0.82608 0.6586 0.0
H673 H 0.36148 0.64189 0.60821 0.0
H674 H 0.26841 0.68366 0.65405 0.0
H675 H 0.2991 0.77285 0.60413 0.0
C676 C 0.26372 0.82645 0.61551 0.0
C677 C 0.2439 0.84126 0.63064 0.0
C678 C 0.2893 0.67484 0.64418 0.0
C679 C 0.28688 0.7582 0.63192 0.0
C680 C 0.30113 0.62747 0.64284 0.0
C681 C 0.32735 0.61466 0.62989 0.0
C682 C 0.30291 0.70946 0.63212 0.0
C683 C 0.34114 0.6505 0.61836 0.0
C684 C 0.28554 0.78516 0.61615 0.0
C685 C 0.24884 0.81573 0.64657 0.0
N686 N 0.32839 0.69635 0.61959 0.0
N687 N 0.26921 0.77483 0.6467 0.0
H688 H 0.8043 0.38468 0.65983 0.0
H689 H 0.75723 0.15182 0.60543 0.0
H690 H 0.85687 0.35647 0.6093 0.0
H691 H 0.73863 0.16312 0.66208 0.0
H692 H 0.79902 0.2222 0.60699 0.0
H693 H 0.78506 0.30058 0.66167 0.0
C694 C 0.81269 0.3605 0.64932 0.0
C695 C 0.8323 0.37754 0.6344 0.0
C696 C 0.78639 0.20865 0.61913 0.0
C697 C 0.80895 0.28131 0.63607 0.0
C698 C 0.76246 0.1685 0.61825 0.0
C699 C 0.74367 0.15228 0.63358 0.0
C700 C 0.79108 0.23295 0.63538 0.0
C701 C 0.75195 0.17487 0.64986 0.0
C702 C 0.80143 0.3124 0.65031 0.0
C703 C 0.84127 0.34477 0.62091 0.0
N704 N 0.77448 0.21465 0.65027 0.0
N705 N 0.82898 0.29825 0.62191 0.0
H706 H 0.25148 0.33184 0.65441 0.0
H707 H 0.2072 0.11263 0.59831 0.0
H708 H 0.24901 0.3447 0.59708 0.0
H709 H 0.13389 0.13779 0.64289 0.0
H710 H 0.22473 0.19759 0.59832 0.0
H711 H 0.20894 0.26177 0.65214 0.0
C712 C 0.24138 0.32072 0.64141 0.0
C713 C 0.25466 0.34329 0.62588 0.0
C714 C 0.20424 0.18468 0.60789 0.0
C715 C 0.20673 0.26353 0.62329 0.0
C716 C 0.19401 0.1362 0.60783 0.0
C717 C 0.16902 0.1181 0.62062 0.0
C718 C 0.19043 0.21493 0.62122 0.0
C719 C 0.15385 0.15026 0.63302 0.0
C720 C 0.21704 0.28095 0.64016 0.0
C721 C 0.24028 0.32772 0.6094 0.0
N722 N 0.16551 0.19714 0.63333 0.0
N723 N 0.21787 0.28799 0.6085 0.0
H724 H 0.8662 0.63223 0.91139 0.0
H725 H 0.73727 0.82559 0.86336 0.0
H726 H 0.80011 0.60581 0.86413 0.0
H727 H 0.76415 0.83142 0.91944 0.0
H728 H 0.77871 0.75709 0.86018 0.0
H729 H 0.84509 0.71617 0.91136 0.0
C730 C 0.84769 0.64425 0.9009 0.0
C731 C 0.83484 0.61213 0.88775 0.0
C732 C 0.77594 0.77391 0.87312 0.0
C733 C 0.81152 0.70755 0.8874 0.0
C734 C 0.75236 0.81307 0.87495 0.0
C735 C 0.74644 0.83342 0.8918 0.0
C736 C 0.79374 0.75507 0.8882 0.0
C737 C 0.7673 0.81615 0.90627 0.0
C738 C 0.83591 0.69203 0.90083 0.0
C739 C 0.81134 0.62951 0.87432 0.0
N740 N 0.78964 0.77736 0.9042 0.0
N741 N 0.80031 0.67599 0.87454 0.0
H742 H 0.12433 0.84298 0.90138 0.0
H743 H 0.26906 0.65809 0.85972 0.0
H744 H 0.20363 0.87756 0.85986 0.0
H745 H 0.2309 0.649 0.91419 0.0
H746 H 0.2274 0.72575 0.85491 0.0
H747 H 0.14727 0.75976 0.9016 0.0
C748 C 0.14611 0.83279 0.89215 0.0
C749 C 0.16238 0.86702 0.88069 0.0
C750 C 0.22777 0.70836 0.86782 0.0
C751 C 0.18779 0.7726 0.88055 0.0
C752 C 0.25148 0.66972 0.8706 0.0
C753 C 0.25416 0.64865 0.88753 0.0
C754 C 0.20646 0.72582 0.88202 0.0
C755 C 0.23026 0.66484 0.90103 0.0
C756 C 0.15899 0.78551 0.89223 0.0
C757 C 0.19007 0.85215 0.86878 0.0
N758 N 0.20768 0.70302 0.89805 0.0
N759 N 0.20205 0.80606 0.86909 0.0
H760 H 0.22182 0.58812 0.36802 0.0
H761 H 0.25538 0.83801 0.41141 0.0
H762 H 0.14643 0.63509 0.40911 0.0
H763 H 0.27418 0.81502 0.35528 0.0
H764 H 0.21606 0.76489 0.4121 0.0
H765 H 0.24395 0.67104 0.36428 0.0
C766 C 0.20955 0.61615 0.37607 0.0
C767 C 0.18201 0.6051 0.38874 0.0
C768 C 0.22818 0.7766 0.39959 0.0
C769 C 0.20801 0.69959 0.38494 0.0
C770 C 0.25066 0.81815 0.39918 0.0
C771 C 0.26862 0.83206 0.38333 0.0
C772 C 0.22444 0.74852 0.38416 0.0
C773 C 0.26124 0.80534 0.36783 0.0
C774 C 0.22217 0.66338 0.37394 0.0
C775 C 0.16783 0.64241 0.39924 0.0
N776 N 0.24037 0.76418 0.36872 0.0
N777 N 0.18139 0.68819 0.39728 0.0
H778 H 0.78907 0.87581 0.41947 0.0
H779 H 0.76162 0.65418 0.36054 0.0
H780 H 0.86594 0.85824 0.37573 0.0
H781 H 0.75402 0.64219 0.41778 0.0
H782 H 0.79983 0.72774 0.36427 0.0
H783 H 0.77397 0.79022 0.41816 0.0
C784 C 0.80353 0.85383 0.40986 0.0
C785 C 0.8291 0.87424 0.3978 0.0
C786 C 0.79053 0.7081 0.37595 0.0
C787 C 0.81045 0.77646 0.39568 0.0
C788 C 0.76873 0.6662 0.37386 0.0
C789 C 0.75375 0.64269 0.38886 0.0
C790 C 0.79664 0.72667 0.3931 0.0
C791 C 0.7642 0.65967 0.40581 0.0
C792 C 0.79467 0.80494 0.40905 0.0
C793 C 0.84564 0.84404 0.38511 0.0
N794 N 0.78418 0.70134 0.40746 0.0
N795 N 0.8355 0.79664 0.38413 0.0
H796 H 0.28321 0.1741 0.1608 0.0
H797 H 0.14869 0.35026 0.10679 0.0
H798 H 0.24062 0.14233 0.1082 0.0
H799 H 0.21256 0.39156 0.15326 0.0
H800 H 0.17229 0.26788 0.1097 0.0
H801 H 0.24549 0.24671 0.16136 0.0
C802 C 0.26541 0.18181 0.14949 0.0
C803 C 0.26575 0.15257 0.13425 0.0
C804 C 0.18074 0.29488 0.11937 0.0
C805 C 0.2229 0.236 0.13474 0.0
C806 C 0.16745 0.34177 0.11766 0.0
C807 C 0.17852 0.37739 0.12988 0.0
C808 C 0.20525 0.28381 0.13341 0.0
C809 C 0.2028 0.36483 0.14376 0.0
C810 C 0.24408 0.22352 0.14977 0.0
C811 C 0.24188 0.16435 0.12006 0.0
N812 N 0.2154 0.31909 0.14513 0.0
N813 N 0.22177 0.20551 0.12055 0.0
H814 H 0.72586 0.32134 0.16156 0.0
H815 H 0.85841 0.14203 0.1082 0.0
H816 H 0.76659 0.34944 0.10844 0.0
H817 H 0.79535 0.10319 0.15509 0.0
H818 H 0.83607 0.22498 0.11099 0.0
H819 H 0.76411 0.24919 0.16268 0.0
C820 C 0.74337 0.31293 0.15024 0.0
C821 C 0.74233 0.34094 0.1347 0.0
C822 C 0.82759 0.1984 0.1208 0.0
C823 C 0.78583 0.25812 0.13585 0.0
C824 C 0.84019 0.15119 0.11917 0.0
C825 C 0.8288 0.11599 0.13147 0.0
C826 C 0.80347 0.21027 0.13485 0.0
C827 C 0.80531 0.12949 0.1455 0.0
C828 C 0.76501 0.27152 0.15086 0.0
C829 C 0.76585 0.32835 0.12052 0.0
N830 N 0.79329 0.17553 0.14676 0.0
N831 N 0.78628 0.2875 0.12134 0.0
H832 H 0.23297 0.06873 0.05314 0.0
H833 H 0.20241 -0.00405 0.95219 0.0
H834 H 0.32322 0.01648 0.0205 0.0
H835 H 0.1482 0.12051 0.97422 0.0
H836 H 0.23802 0.98756 0.97986 0.0
H837 H 0.19369 0.07438 0.02663 0.0
C838 C 0.24507 0.05967 0.04044 0.0
C839 C 0.28233 0.04423 0.03906 0.0
C840 C 0.21804 0.0164 0.97866 0.0
C841 C 0.23619 0.04726 0.00884 0.0
C842 C 0.19744 0.02101 0.96296 0.0
C843 C 0.17233 0.05912 0.96088 0.0
C844 C 0.21293 0.04945 0.99254 0.0
C845 C 0.16736 0.09075 0.97526 0.0
C846 C 0.22224 0.06213 0.02534 0.0
C847 C 0.29498 0.02939 0.02224 0.0
N848 N 0.18745 0.08517 0.99053 0.0
N849 N 0.27197 0.03114 1.00782 0.0
H850 H 0.83765 0.3773 0.96656 0.0
H851 H 0.71781 0.53121 0.0328 0.0
H852 H 0.85189 0.53172 0.96937 0.0
H853 H 0.75097 0.3866 0.04577 0.0
H854 H 0.76285 0.53187 0.00807 0.0
H855 H 0.80278 0.37898 0.99459 0.0
C856 C 0.83399 0.41145 0.9733 0.0
C857 C 0.84781 0.4544 0.96577 0.0
C858 C 0.76053 0.50026 0.01648 0.0
C859 C 0.80696 0.45679 0.99744 0.0
C860 C 0.73474 0.49975 0.03046 0.0
C861 C 0.73103 0.45895 0.04136 0.0
C862 C 0.78192 0.45915 0.01312 0.0
C863 C 0.75343 0.41899 0.0378 0.0
C864 C 0.81408 0.41241 0.98925 0.0
C865 C 0.84206 0.49778 0.97489 0.0
N866 N 0.77765 0.41987 0.02385 0.0
N867 N 0.82143 0.49802 0.99013 0.0
H868 H 0.3828 0.96674 0.4795 0.0
H869 H 0.18641 0.88237 0.52137 0.0
H870 H 0.29324 0.89754 0.44988 0.0
H871 H 0.25919 0.98643 0.54735 0.0
H872 H 0.22927 0.88099 0.49626 0.0
H873 H 0.34208 0.96721 0.50594 0.0
C874 C 0.35476 0.95146 0.47858 0.0
C875 C 0.3414 0.93222 0.46244 0.0
C876 C 0.23603 0.90395 0.50751 0.0
C877 C 0.29497 0.93247 0.49249 0.0
C878 C 0.21146 0.90486 0.52189 0.0
C879 C 0.21933 0.93383 0.5368 0.0
C880 C 0.26894 0.93227 0.50789 0.0
C881 C 0.25238 0.96214 0.53658 0.0
C882 C 0.33152 0.95194 0.49362 0.0
C883 C 0.30476 0.91304 0.46198 0.0
N884 N 0.27603 0.96056 0.52237 0.0
N885 N 0.28298 0.91358 0.47674 0.0
H886 H 0.82994 0.52245 0.52213 0.0
H887 H 0.65579 0.63301 0.47328 0.0
H888 H 0.73614 0.57405 0.55256 0.0
H889 H 0.70998 0.5064 0.45293 0.0
H890 H 0.68988 0.62311 0.5015 0.0
H891 H 0.79155 0.52718 0.49515 0.0
C892 C 0.80154 0.53538 0.52318 0.0
C893 C 0.78696 0.54965 0.53969 0.0
C894 C 0.69388 0.59731 0.49087 0.0
C895 C 0.74305 0.55534 0.50881 0.0
C896 C 0.67448 0.60287 0.47482 0.0
C897 C 0.67992 0.57035 0.46079 0.0
C898 C 0.71967 0.55987 0.49264 0.0
C899 C 0.70466 0.53206 0.46345 0.0
C900 C 0.77967 0.53789 0.50778 0.0
C901 C 0.74962 0.5653 0.54016 0.0
N902 N 0.72407 0.52831 0.47895 0.0
N903 N 0.72913 0.56831 0.52493 0.0
H904 H 0.71061 0.87927 0.97263 0.0
H905 H 0.82549 0.0376 0.04252 0.0
H906 H 0.68565 0.0293 0.98077 0.0
H907 H 0.79814 0.88803 0.0524 0.0
H908 H 0.78384 0.03552 0.01635 0.0
H909 H 0.75186 0.8819 0.99877 0.0
C910 C 0.71367 0.9127 0.97999 0.0
C911 C 0.69444 0.95402 0.97463 0.0
C912 C 0.78717 0.0032 0.02425 0.0
C913 C 0.74239 0.95758 1.0042 0.0
C914 C 0.81115 0.00421 0.03905 0.0
C915 C 0.81532 0.96287 0.0496 0.0
C916 C 0.76802 0.96025 0.01977 0.0
C917 C 0.79568 0.92071 0.04464 0.0
C918 C 0.73719 0.91415 0.99487 0.0
C919 C 0.6996 -0.00353 0.98459 0.0
N920 N 0.77313 0.92037 0.03002 0.0
N921 N 0.72343 -0.00266 0.99879 0.0
H922 H 0.20035 0.6066 0.05121 0.0
H923 H 0.31287 0.456 0.97981 0.0
H924 H 0.17568 0.45574 0.04258 0.0
H925 H 0.28395 0.60426 0.97041 0.0
H926 H 0.27204 0.45544 1.00618 0.0
H927 H 0.24 0.60689 0.02457 0.0
C928 C 0.20314 0.5736 0.04365 0.0
C929 C 0.18447 0.53117 0.04902 0.0
C930 C 0.27481 0.48806 0.99834 0.0
C931 C 0.23061 0.53098 0.01887 0.0
C932 C 0.29831 0.48856 0.98342 0.0
C933 C 0.30187 0.5303 0.97295 0.0
C934 C 0.2555 0.52993 1.00305 0.0
C935 C 0.28197 0.57132 0.9781 0.0
C936 C 0.22573 0.57382 0.02847 0.0
C937 C 0.18922 0.48935 0.03877 0.0
N938 N 0.25992 0.57025 0.99286 0.0
N939 N 0.21219 0.49014 0.02429 0.0
H940 H 0.64307 0.01948 0.53332 0.0
H941 H 0.83127 0.12062 0.48932 0.0
H942 H 0.73576 0.07577 0.56434 0.0
H943 H 0.76088 0.01466 0.463 0.0
H944 H 0.79389 0.11015 0.51639 0.0
H945 H 0.68286 0.02291 0.50667 0.0
C946 C 0.67175 0.03242 0.53455 0.0
C947 C 0.68603 0.04737 0.55111 0.0
C948 C 0.7868 0.08893 0.50472 0.0
C949 C 0.73149 0.05192 0.52068 0.0
C950 C 0.80812 0.09492 0.48926 0.0
C951 C 0.79927 0.06847 0.47386 0.0
C952 C 0.75589 0.05693 0.50472 0.0
C953 C 0.76886 0.03568 0.47458 0.0
C954 C 0.69446 0.03421 0.51935 0.0
C955 C 0.7235 0.06372 0.55189 0.0
N956 N 0.74803 0.03121 0.48968 0.0
N957 N 0.74474 0.06597 0.5369 0.0
H958 H 0.28616 0.38896 0.55734 0.0
H959 H 0.21997 0.49232 0.46313 0.0
H960 H 0.33981 0.51249 0.5328 0.0
H961 H 0.19605 0.34726 0.48097 0.0
H962 H 0.25749 0.50607 0.49016 0.0
H963 H 0.24702 0.37865 0.53094 0.0
C964 C 0.28978 0.41399 0.54639 0.0
C965 C 0.31652 0.45161 0.54731 0.0
C966 C 0.24386 0.47134 0.48816 0.0
C967 C 0.2712 0.44015 0.51695 0.0
C968 C 0.2222 0.46356 0.47281 0.0
C969 C 0.20481 0.4185 0.46975 0.0
C970 C 0.24774 0.43405 0.50066 0.0
C971 C 0.20898 0.3825 0.48271 0.0
C972 C 0.26738 0.40799 0.53128 0.0
C973 C 0.31978 0.48281 0.53263 0.0
N974 N 0.2299 0.39107 0.49756 0.0
N975 N 0.29727 0.47654 0.51809 0.0
H976 H 0.33291 0.13359 0.21437 0.0
H977 H 0.41052 0.95143 0.28808 0.0
H978 H 0.40042 0.01093 0.20101 0.0
H979 H 0.31142 0.03655 0.2945 0.0
H980 H 0.41881 0.98575 0.25802 0.0
H981 H 0.33655 0.11086 0.24573 0.0
C982 C 0.34883 0.10215 0.21802 0.0
C983 C 0.36606 0.07386 0.20499 0.0
C984 C 0.39562 -0.00264 0.26616 0.0
C985 C 0.3705 0.04783 0.24095 0.0
C986 C 0.39111 0.97818 0.2833 0.0
C987 C 0.36027 0.99131 0.29365 0.0
C988 C 0.36938 0.03033 0.2596 0.0
C989 C 0.3355 0.02547 0.28684 0.0
C990 C 0.35083 0.08917 0.23594 0.0
C991 C 0.38641 0.03355 0.21059 0.0
N992 N 0.34055 0.04375 0.27026 0.0
N993 N 0.38796 0.02161 0.22815 0.0
H994 H 0.66687 0.35597 0.21447 0.0
H995 H 0.62283 0.56021 0.28667 0.0
H996 H 0.61807 0.49238 0.20048 0.0
H997 H 0.6998 0.4439 0.29491 0.0
H998 H 0.6098 0.52896 0.25656 0.0
H999 H 0.66773 0.38081 0.24564 0.0
C1000 C 0.656 0.39097 0.21795 0.0
C1001 C 0.64276 0.42232 0.2048 0.0
C1002 C 0.62924 0.51013 0.26507 0.0
C1003 C 0.64371 0.45103 0.24052 0.0
C1004 C 0.63645 0.52773 0.28225 0.0
C1005 C 0.66247 0.50462 0.29321 0.0
C1006 C 0.64789 0.46891 0.25903 0.0
C1007 C 0.6798 0.46304 0.2868 0.0
C1008 C 0.6566 0.40519 0.23576 0.0
C1009 C 0.62885 0.4672 0.21017 0.0
N1010 N 0.67222 0.44656 0.27016 0.0
N1011 N 0.62987 0.48035 0.22761 0.0
H1012 H 0.58847 0.00509 0.81408 0.0
H1013 H 0.61696 0.95123 0.71041 0.0
H1014 H 0.64189 0.87879 0.79325 0.0
H1015 H 0.59845 0.09275 0.73205 0.0
H1016 H 0.6063 0.91657 0.74001 0.0
H1017 H 0.57249 0.02916 0.78357 0.0
C1018 C 0.59556 0.98153 0.80314 0.0
C1019 C 0.61633 0.9398 0.80613 0.0
C1020 C 0.60358 0.95508 0.73818 0.0
C1021 C 0.59889 0.96743 0.7713 0.0
C1022 C 0.60913 0.97479 0.72123 0.0
C1023 C 0.60817 0.02486 0.71878 0.0
C1024 C 0.59705 0.98571 0.75273 0.0
C1025 C 0.59933 0.05392 0.73343 0.0
C1026 C 0.58685 -0.00446 0.78573 0.0
C1027 C 0.62584 0.91126 0.79145 0.0
N1028 N 0.59442 0.034 0.74981 0.0
N1029 N 0.61731 0.92576 0.77466 0.0
H1030 H 0.36773 0.38025 0.72964 0.0
H1031 H 0.37731 0.59954 0.79368 0.0
H1032 H 0.39826 0.52185 0.71057 0.0
H1033 H 0.39638 0.4555 0.81261 0.0
H1034 H 0.39053 0.57282 0.76328 0.0
H1035 H 0.38325 0.40586 0.76 0.0
C1036 C 0.3788 0.41636 0.73184 0.0
C1037 C 0.38212 0.44889 0.71765 0.0
C1038 C 0.39296 0.54728 0.77411 0.0
C1039 C 0.39855 0.47909 0.75236 0.0
C1040 C 0.38558 0.56261 0.79144 0.0
C1041 C 0.38621 0.52971 0.80558 0.0
C1042 C 0.39967 0.49829 0.77084 0.0
C1043 C 0.39619 0.48201 0.80204 0.0
C1044 C 0.3876 0.43101 0.74915 0.0
C1045 C 0.39593 0.49551 0.72116 0.0
N1046 N 0.40174 0.46741 0.78494 0.0
N1047 N 0.4029 0.50959 0.73823 0.0
H1048 H 0.77878 0.41992 0.78838 0.0
H1049 H 0.88599 0.55223 0.70818 0.0
H1050 H 0.88462 0.49441 0.79582 0.0
H1051 H 0.7718 0.49889 0.70605 0.0
H1052 H 0.89013 0.52459 0.73919 0.0
H1053 H 0.78074 0.43982 0.75689 0.0
C1054 C 0.80275 0.44 0.7833 0.0
C1055 C 0.8316 0.45545 0.79474 0.0
C1056 C 0.86423 0.51901 0.73189 0.0
C1057 C 0.83376 0.47926 0.75858 0.0
C1058 C 0.86179 0.53484 0.71422 0.0
C1059 C 0.8284 0.52811 0.70453 0.0
C1060 C 0.83316 0.49595 0.7398 0.0
C1061 C 0.79803 0.50516 0.71299 0.0
C1062 C 0.80379 0.45155 0.76531 0.0
C1063 C 0.86206 0.48118 0.78743 0.0
N1064 N 0.80119 0.48992 0.73007 0.0
N1065 N 0.86221 0.49271 0.76978 0.0
H1066 H 0.19022 0.08053 0.78004 0.0
H1067 H 0.07384 0.92204 0.70936 0.0
H1068 H 0.09761 0.98758 0.79504 0.0
H1069 H 0.17381 0.00505 0.69716 0.0
H1070 H 0.07728 0.95139 0.74014 0.0
H1071 H 0.17915 0.06008 0.74894 0.0
C1072 C 0.16714 0.05629 0.77674 0.0
C1073 C 0.14467 0.03599 0.79017 0.0
C1074 C 0.09833 0.96326 0.73068 0.0
C1075 C 0.13216 0.01156 0.75447 0.0
C1076 C 0.09641 0.94653 0.71311 0.0
C1077 C 0.12373 0.96082 0.70066 0.0
C1078 C 0.12765 -0.00529 0.73579 0.0
C1079 C 0.15228 0.9927 0.70628 0.0
C1080 C 0.1609 0.04448 0.75897 0.0
C1081 C 0.11517 0.0048 0.78513 0.0
N1082 N 0.15349 0.00843 0.72339 0.0
N1083 N 0.10995 0.99316 0.76766 0.0
H1084 H 0.1025 0.5139 0.31297 0.0
H1085 H 0.09713 0.45737 0.20853 0.0
H1086 H 0.12385 0.3742 0.2904 0.0
H1087 H 0.12203 0.59731 0.23083 0.0
H1088 H 0.08454 0.42661 0.23864 0.0
H1089 H 0.08728 0.54402 0.28314 0.0
C1090 C 0.10249 0.48909 0.30184 0.0
C1091 C 0.11401 0.44139 0.3041 0.0
C1092 C 0.09172 0.46438 0.23687 0.0
C1093 C 0.0975 0.47572 0.27002 0.0
C1094 C 0.09845 0.48203 0.2197 0.0
C1095 C 0.1103 0.52997 0.21727 0.0
C1096 C 0.09668 0.49507 0.25161 0.0
C1097 C 0.11278 0.56015 0.23221 0.0
C1098 C 0.09428 0.50642 0.28481 0.0
C1099 C 0.1149 0.41118 0.28915 0.0
N1100 N 0.1063 0.54215 0.24877 0.0
N1101 N 0.10702 0.42889 0.27271 0.0
H1102 H 0.88112 0.95251 0.31505 0.0
H1103 H 0.91017 0.01711 0.21213 0.0
H1104 H 0.8916 0.09735 0.29474 0.0
H1105 H 0.86156 0.88379 0.23123 0.0
H1106 H 0.92393 0.0406 0.24301 0.0
H1107 H 0.89457 0.9214 0.28521 0.0
C1108 C 0.88774 0.97773 0.30448 0.0
C1109 C 0.88559 0.02754 0.30735 0.0
C1110 C 0.91116 0.00564 0.24039 0.0
C1111 C 0.90005 0.99236 0.27317 0.0
C1112 C 0.90373 0.99202 0.22277 0.0
C1113 C 0.8849 0.94837 0.21919 0.0
C1114 C 0.89983 0.97522 0.25443 0.0
C1115 C 0.87614 0.91776 0.2335 0.0
C1116 C 0.89493 0.95999 0.2874 0.0
C1117 C 0.89309 0.05866 0.29303 0.0
N1118 N 0.8834 0.93189 0.25049 0.0
N1119 N 0.8997 0.0406 0.27652 0.0
H1120 H 0.54708 0.35325 0.14678 0.0
H1121 H 0.4319 0.16043 0.09094 0.0
H1122 H 0.57684 0.32977 0.09176 0.0
H1123 H 0.45896 0.14613 0.14678 0.0
H1124 H 0.47675 0.22866 0.08907 0.0
H1125 H 0.50262 0.28651 0.14496 0.0
C1126 C 0.54402 0.33442 0.13422 0.0
C1127 C 0.56626 0.34669 0.11948 0.0
C1128 C 0.47293 0.20998 0.10161 0.0
C1129 C 0.51528 0.26973 0.11741 0.0
C1130 C 0.44757 0.17103 0.1027 0.0
C1131 C 0.44126 0.14788 0.11911 0.0
C1132 C 0.49135 0.22595 0.11709 0.0
C1133 C 0.46237 0.16312 0.1339 0.0
C1134 C 0.51875 0.29607 0.13325 0.0
C1135 C 0.56044 0.32126 0.10348 0.0
N1136 N 0.486 0.20151 0.13257 0.0
N1137 N 0.53555 0.28353 0.10287 0.0
H1138 H 0.45613 0.84056 0.41154 0.0
H1139 H 0.57236 0.65272 0.35354 0.0
H1140 H 0.44737 0.83099 0.35429 0.0
H1141 H 0.57183 0.65631 0.41103 0.0
H1142 H 0.52814 0.71924 0.35322 0.0
H1143 H 0.50171 0.77623 0.41117 0.0
C1144 C 0.46404 0.82531 0.39884 0.0
C1145 C 0.44762 0.84115 0.38292 0.0
C1146 C 0.53761 0.70529 0.36589 0.0
C1147 C 0.49974 0.76671 0.38245 0.0
C1148 C 0.56274 0.66715 0.3661 0.0
C1149 C 0.57595 0.64882 0.38235 0.0
C1150 C 0.5257 0.72542 0.38203 0.0
C1151 C 0.56248 0.6691 0.39818 0.0
C1152 C 0.48999 0.78829 0.39866 0.0
C1153 C 0.45923 0.81997 0.36689 0.0
N1154 N 0.53828 0.70638 0.39761 0.0
N1155 N 0.48442 0.78362 0.36708 0.0
H1156 H 0.57171 0.82365 0.93413 0.0
H1157 H 0.45321 0.63311 0.87775 0.0
H1158 H 0.55476 0.83049 0.87721 0.0
H1159 H 0.42153 0.66319 0.93207 0.0
H1160 H 0.50091 0.69605 0.87956 0.0
H1161 H 0.52415 0.75832 0.9356 0.0
C1162 C 0.55784 0.81191 0.92201 0.0
C1163 C 0.56757 0.83244 0.9055 0.0
C1164 C 0.48364 0.68884 0.89113 0.0
C1165 C 0.51422 0.75751 0.90711 0.0
C1166 C 0.45644 0.65263 0.89016 0.0
C1167 C 0.4328 0.64318 0.90471 0.0
C1168 C 0.48771 0.71597 0.90678 0.0
C1169 C 0.43896 0.66947 0.9205 0.0
C1170 C 0.53086 0.77463 0.92289 0.0
C1171 C 0.54863 0.81574 0.89024 0.0
N1172 N 0.46577 0.70503 0.92111 0.0
N1173 N 0.5233 0.77908 0.89142 0.0
H1174 H 0.44573 0.34272 0.64964 0.0
H1175 H 0.56699 0.15829 0.59274 0.0
H1176 H 0.43343 0.33 0.59261 0.0
H1177 H 0.5558 0.15496 0.64997 0.0
H1178 H 0.52125 0.22353 0.59164 0.0
H1179 H 0.49111 0.27848 0.64916 0.0
C1180 C 0.45274 0.32668 0.63695 0.0
C1181 C 0.4354 0.34171 0.62114 0.0
C1182 C 0.52873 0.20818 0.60439 0.0
C1183 C 0.48756 0.26725 0.62055 0.0
C1184 C 0.55469 0.17081 0.60504 0.0
C1185 C 0.56548 0.15111 0.62148 0.0
C1186 C 0.51375 0.22615 0.6203 0.0
C1187 C 0.54862 0.16896 0.63697 0.0
C1188 C 0.47861 0.28968 0.63671 0.0
C1189 C 0.44604 0.31958 0.60512 0.0
N1190 N 0.52391 0.20553 0.63599 0.0
N1191 N 0.47136 0.28326 0.60524 0.0
H1192 H 0.92698 0.66483 0.59659 0.0
H1193 H 0.05916 0.8441 0.65263 0.0
H1194 H 0.94288 0.65773 0.65357 0.0
H1195 H 0.06269 0.83631 0.59522 0.0
H1196 H 0.01151 0.78055 0.65277 0.0
H1197 H 0.9736 0.73061 0.59534 0.0
C1198 C 0.94046 0.6767 0.60879 0.0
C1199 C 0.93085 0.65579 0.62521 0.0
C1200 C 0.0226 0.7928 0.64012 0.0
C1201 C 0.98355 0.73126 0.62389 0.0
C1202 C 0.04968 0.82939 0.64002 0.0
C1203 C 0.06519 0.84542 0.6239 0.0
C1204 C 0.01076 0.77201 0.62398 0.0
C1205 C 0.05164 0.82493 0.60798 0.0
C1206 C 0.96691 0.71436 0.60807 0.0
C1207 C 0.94917 0.67276 0.6406 0.0
N1208 N 0.02527 0.78908 0.60842 0.0
N1209 N 0.9744 0.70959 0.63955 0.0
H1210 H 0.05822 0.14593 0.9147 0.0
H1211 H 0.93998 0.33385 0.85743 0.0
H1212 H 0.05549 0.14838 0.8572 0.0
H1213 H 0.93736 0.32738 0.91487 0.0
H1214 H 0.98405 0.26756 0.85725 0.0
H1215 H 0.01394 0.21223 0.91514 0.0
C1216 C 0.04802 0.15997 0.90217 0.0
C1217 C 0.06076 0.14155 0.88588 0.0
C1218 C 0.97396 0.28076 0.8699 0.0
C1219 C 0.01046 0.21798 0.88633 0.0
C1220 C 0.94892 0.31887 0.87003 0.0
C1221 C 0.93476 0.33622 0.88619 0.0
C1222 C 0.98499 0.25971 0.88605 0.0
C1223 C 0.94744 0.31522 0.90208 0.0
C1224 C 0.02289 0.19806 0.90244 0.0
C1225 C 0.04659 0.1614 0.87008 0.0
N1226 N 0.9717 0.27795 0.9016 0.0
N1227 N 0.0224 0.19866 0.87071 0.0
H1228 H 0.04764 0.34587 0.37472 0.0
H1229 H 0.92602 0.16029 0.43288 0.0
H1230 H 0.07001 0.32451 0.43067 0.0
H1231 H 0.9322 0.16027 0.37545 0.0
H1232 H 0.97373 0.22521 0.43356 0.0
H1233 H 0.99835 0.28492 0.37618 0.0
C1234 C 0.04203 0.32861 0.3874 0.0
C1235 C 0.0634 0.34005 0.40256 0.0
C1236 C 0.96461 0.21068 0.42087 0.0
C1237 C 0.00674 0.26939 0.40427 0.0
C1238 C 0.9375 0.17359 0.42045 0.0
C1239 C 0.92494 0.15474 0.40408 0.0
C1240 C 0.97882 0.22926 0.4048 0.0
C1241 C 0.94081 0.1735 0.38841 0.0
C1242 C 0.01389 0.29352 0.38819 0.0
C1243 C 0.05432 0.31672 0.41864 0.0
N1244 N 0.96663 0.20974 0.38918 0.0
N1245 N 0.02676 0.28215 0.41906 0.0
H1246 H 0.93242 0.83424 0.09132 0.0
H1247 H 0.04268 0.63674 0.14703 0.0
H1248 H 0.94531 0.8351 0.14851 0.0
H1249 H 0.06906 0.66298 0.09175 0.0
H1250 H 0.99808 0.70188 0.14611 0.0
H1251 H 0.97622 0.76662 0.08975 0.0
C1252 C 0.94467 0.8207 0.1035 0.0
C1253 C 0.93492 0.84043 0.12009 0.0
C1254 C 0.01347 0.69336 0.13413 0.0
C1255 C 0.98415 0.76264 0.11836 0.0
C1256 C 0.03886 0.65583 0.13459 0.0
C1257 C 0.06012 0.64452 0.11949 0.0
C1258 C 0.00886 0.72003 0.11843 0.0
C1259 C 0.05341 0.6705 0.10373 0.0
C1260 C 0.96951 0.78202 0.10257 0.0
C1261 C 0.95167 0.8212 0.13541 0.0
N1262 N 0.02846 0.70732 0.10362 0.0
N1263 N 0.97505 0.78329 0.13417 0.0
loop_
_geom_bond_atom_site_label_1
_geom_bond_atom_site_label_2
_geom_bond_distance
_geom_bond_site_symmetry_2
_ccdc_geom_bond_type
Co0 O3 1.970 . S
Co0 N17 1.989 . S
Co0 O25 1.967 . S
Co0 O32 1.920 . S
Co1 O4 1.966 . S
Co1 N10 2.022 . S
Co1 N18 1.993 . S
Co1 O26 1.941 . S
C2 O3 1.258 . S
C2 O4 1.263 . S
O3 Co0 1.970 . S
O3 C2 1.258 . S
O4 Co1 1.966 . S
O4 C2 1.263 . S
C5 O6 1.235 . S
C5 O32 1.289 . S
O6 C5 1.235 . S
C7 C9 1.400 . S
C7 N10 1.351 . S
C7 C12 1.501 . S
C8 C9 1.387 . S
C8 N11 1.341 . S
C9 C7 1.400 . S
C9 C8 1.387 . S
N10 Co1 2.022 . S
N10 C7 1.351 . S
N10 N11 1.365 . S
N11 C8 1.341 . S
N11 N10 1.365 . S
N11 H31 0.862 . S
C12 C7 1.501 . S
C12 H13 0.961 . S
C12 H14 0.961 . S
C12 H15 0.960 . S
H13 C12 0.961 . S
H14 C12 0.961 . S
H15 C12 0.960 . S
C16 N17 1.342 1_565 S
C16 C20 1.401 . S
C16 C21 1.499 . S
N17 Co0 1.989 . S
N17 C16 1.342 1_545 S
N17 N18 1.388 . S
N18 Co1 1.993 . S
N18 N17 1.388 . S
N18 C19 1.346 . S
C19 N18 1.346 . S
C19 C20 1.396 1_545 S
C19 C29 1.510 1_545 S
C20 C16 1.401 . S
C20 C19 1.396 1_565 S
C21 C16 1.499 . S
C21 H22 0.959 1_565 S
C21 H23 0.960 . S
C21 H24 0.961 . S
H22 C21 0.959 1_545 S
H23 C21 0.960 . S
H24 C21 0.961 . S
O25 Co0 1.967 . S
O25 C33 1.258 . S
O26 Co1 1.941 . S
O26 C33 1.266 . S
H27 C29 0.959 . S
H28 C29 0.961 . S
C29 C19 1.510 1_565 S
C29 H27 0.959 . S
C29 H28 0.961 . S
C29 H30 0.960 1_565 S
H30 C29 0.960 1_545 S
H31 N11 0.862 . S
O32 Co0 1.920 . S
O32 C5 1.289 . S
C33 O25 1.258 . S
C33 O26 1.266 . S
Co34 O37 1.970 . S
Co34 N51 1.989 . S
Co34 O59 1.967 . S
Co34 O66 1.920 . S
Co35 O38 1.966 . S
Co35 N44 2.022 . S
Co35 N52 1.993 . S
Co35 O60 1.941 . S
C36 O37 1.258 . S
C36 O38 1.263 . S
O37 Co34 1.970 . S
O37 C36 1.258 . S
O38 Co35 1.966 . S
O38 C36 1.263 . S
C39 O40 1.235 . S
C39 O66 1.289 . S
O40 C39 1.235 . S
C41 C43 1.400 . S
C41 N44 1.351 . S
C41 C46 1.501 . S
C42 C43 1.387 . S
C42 N45 1.341 . S
C43 C41 1.400 . S
C43 C42 1.387 . S
N44 Co35 2.022 . S
N44 C41 1.351 . S
N44 N45 1.365 . S
N45 C42 1.341 . S
N45 N44 1.365 . S
N45 H65 0.862 . S
C46 C41 1.501 . S
C46 H47 0.961 . S
C46 H48 0.961 . S
C46 H49 0.960 . S
H47 C46 0.961 . S
H48 C46 0.961 . S
H49 C46 0.960 . S
C50 N51 1.342 . S
C50 C54 1.401 . S
C50 C55 1.499 . S
N51 Co34 1.989 . S
N51 C50 1.342 . S
N51 N52 1.388 . S
N52 Co35 1.993 . S
N52 N51 1.388 . S
N52 C53 1.346 . S
C53 N52 1.346 . S
C53 C54 1.396 . S
C53 C63 1.510 . S
C54 C50 1.401 . S
C54 C53 1.396 . S
C55 C50 1.499 . S
C55 H56 0.959 . S
C55 H57 0.960 . S
C55 H58 0.961 . S
H56 C55 0.959 . S
H57 C55 0.960 . S
H58 C55 0.961 . S
O59 Co34 1.967 . S
O59 C67 1.258 . S
O60 Co35 1.941 . S
O60 C67 1.266 . S
H61 C63 0.959 . S
H62 C63 0.961 . S
C63 C53 1.510 . S
C63 H61 0.959 . S
C63 H62 0.961 . S
C63 H64 0.960 . S
H64 C63 0.960 . S
H65 N45 0.862 . S
O66 Co34 1.920 . S
O66 C39 1.289 . S
C67 O59 1.258 . S
C67 O60 1.266 . S
Co68 O71 1.970 . S
Co68 N85 1.989 . S
Co68 O93 1.967 . S
Co68 O100 1.920 . S
Co69 O72 1.966 . S
Co69 N78 2.022 . S
Co69 N86 1.993 . S
Co69 O94 1.941 . S
C70 O71 1.258 . S
C70 O72 1.263 . S
O71 Co68 1.970 . S
O71 C70 1.258 . S
O72 Co69 1.966 . S
O72 C70 1.263 . S
C73 O74 1.235 . S
C73 O100 1.289 . S
O74 C73 1.235 . S
C75 C77 1.400 . S
C75 N78 1.351 . S
C75 C80 1.501 . S
C76 C77 1.387 . S
C76 N79 1.341 . S
C77 C75 1.400 . S
C77 C76 1.387 . S
N78 Co69 2.022 . S
N78 C75 1.351 . S
N78 N79 1.365 . S
N79 C76 1.341 . S
N79 N78 1.365 . S
N79 H99 0.862 . S
C80 C75 1.501 . S
C80 H81 0.961 . S
C80 H82 0.961 . S
C80 H83 0.960 . S
H81 C80 0.961 . S
H82 C80 0.961 . S
H83 C80 0.960 . S
C84 N85 1.342 1_545 S
C84 C88 1.401 . S
C84 C89 1.499 . S
N85 Co68 1.989 . S
N85 C84 1.342 1_565 S
N85 N86 1.388 . S
N86 Co69 1.993 . S
N86 N85 1.388 . S
N86 C87 1.346 1_565 S
C87 N86 1.346 1_545 S
C87 C88 1.396 . S
C87 C97 1.510 . S
C88 C84 1.401 . S
C88 C87 1.396 . S
C89 C84 1.499 . S
C89 H90 0.959 1_545 S
C89 H91 0.960 . S
C89 H92 0.961 . S
H90 C89 0.959 1_565 S
H91 C89 0.960 . S
H92 C89 0.961 . S
O93 Co68 1.967 . S
O93 C101 1.258 . S
O94 Co69 1.941 . S
O94 C101 1.266 . S
H95 C97 0.959 . S
H96 C97 0.961 . S
C97 C87 1.510 . S
C97 H95 0.959 . S
C97 H96 0.961 . S
C97 H98 0.960 . S
H98 C97 0.960 . S
H99 N79 0.862 . S
O100 Co68 1.920 . S
O100 C73 1.289 . S
C101 O93 1.258 . S
C101 O94 1.266 . S
Co102 O105 1.970 . S
Co102 N119 1.989 . S
Co102 O127 1.967 . S
Co102 O134 1.920 . S
Co103 O106 1.966 . S
Co103 N112 2.022 . S
Co103 N120 1.993 . S
Co103 O128 1.941 . S
C104 O105 1.258 . S
C104 O106 1.263 . S
O105 Co102 1.970 . S
O105 C104 1.258 . S
O106 Co103 1.966 . S
O106 C104 1.263 . S
C107 O108 1.235 . S
C107 O134 1.289 . S
O108 C107 1.235 . S
C109 C111 1.400 . S
C109 N112 1.351 . S
C109 C114 1.501 . S
C110 C111 1.387 . S
C110 N113 1.341 . S
C111 C109 1.400 . S
C111 C110 1.387 . S
N112 Co103 2.022 . S
N112 C109 1.351 . S
N112 N113 1.365 . S
N113 C110 1.341 . S
N113 N112 1.365 . S
N113 H133 0.862 . S
C114 C109 1.501 . S
C114 H115 0.961 . S
C114 H116 0.961 . S
C114 H117 0.960 . S
H115 C114 0.961 . S
H116 C114 0.961 . S
H117 C114 0.960 . S
C118 N119 1.342 . S
C118 C122 1.401 . S
C118 C123 1.499 . S
N119 Co102 1.989 . S
N119 C118 1.342 . S
N119 N120 1.388 . S
N120 Co103 1.993 . S
N120 N119 1.388 . S
N120 C121 1.346 . S
C121 N120 1.346 . S
C121 C122 1.396 . S
C121 C131 1.510 . S
C122 C118 1.401 . S
C122 C121 1.396 . S
C123 C118 1.499 . S
C123 H124 0.959 . S
C123 H125 0.960 . S
C123 H126 0.961 . S
H124 C123 0.959 . S
H125 C123 0.960 . S
H126 C123 0.961 . S
O127 Co102 1.967 . S
O127 C135 1.258 . S
O128 Co103 1.941 . S
O128 C135 1.266 . S
H129 C131 0.959 . S
H130 C131 0.961 . S
C131 C121 1.510 . S
C131 H129 0.959 . S
C131 H130 0.961 . S
C131 H132 0.960 . S
H132 C131 0.960 . S
H133 N113 0.862 . S
O134 Co102 1.920 . S
O134 C107 1.289 . S
C135 O127 1.258 . S
C135 O128 1.266 . S
Co136 O139 1.970 . S
Co136 N153 1.989 . S
Co136 O161 1.967 . S
Co136 O168 1.920 . S
Co137 O140 1.966 . S
Co137 N146 2.022 . S
Co137 N154 1.993 . S
Co137 O162 1.941 . S
C138 O139 1.258 . S
C138 O140 1.263 . S
O139 Co136 1.970 . S
O139 C138 1.258 . S
O140 Co137 1.966 . S
O140 C138 1.263 . S
C141 O142 1.235 . S
C141 O168 1.289 . S
O142 C141 1.235 . S
C143 C145 1.400 . S
C143 N146 1.351 . S
C143 C148 1.501 . S
C144 C145 1.387 . S
C144 N147 1.341 . S
C145 C143 1.400 . S
C145 C144 1.387 . S
N146 Co137 2.022 . S
N146 C143 1.351 . S
N146 N147 1.365 . S
N147 C144 1.341 . S
N147 N146 1.365 . S
N147 H167 0.862 . S
C148 C143 1.501 . S
C148 H149 0.961 . S
C148 H150 0.961 . S
C148 H151 0.960 . S
H149 C148 0.961 . S
H150 C148 0.961 . S
H151 C148 0.960 . S
C152 N153 1.342 1_545 S
C152 C156 1.401 . S
C152 C157 1.499 . S
N153 Co136 1.989 . S
N153 C152 1.342 1_565 S
N153 N154 1.388 . S
N154 Co137 1.993 . S
N154 N153 1.388 . S
N154 C155 1.346 1_565 S
C155 N154 1.346 1_545 S
C155 C156 1.396 . S
C155 C165 1.510 . S
C156 C152 1.401 . S
C156 C155 1.396 . S
C157 C152 1.499 . S
C157 H158 0.959 1_545 S
C157 H159 0.960 . S
C157 H160 0.961 . S
H158 C157 0.959 1_565 S
H159 C157 0.960 . S
H160 C157 0.961 . S
O161 Co136 1.967 . S
O161 C169 1.258 . S
O162 Co137 1.941 . S
O162 C169 1.266 . S
H163 C165 0.959 . S
H164 C165 0.961 . S
C165 C155 1.510 . S
C165 H163 0.959 . S
C165 H164 0.961 . S
C165 H166 0.960 . S
H166 C165 0.960 . S
H167 N147 0.862 . S
O168 Co136 1.920 . S
O168 C141 1.289 . S
C169 O161 1.258 . S
C169 O162 1.266 . S
Co170 O173 1.970 . S
Co170 N187 1.989 . S
Co170 O195 1.967 . S
Co170 O202 1.920 . S
Co171 O174 1.966 . S
Co171 N180 2.022 . S
Co171 N188 1.993 . S
Co171 O196 1.941 . S
C172 O173 1.258 . S
C172 O174 1.263 . S
O173 Co170 1.970 . S
O173 C172 1.258 . S
O174 Co171 1.966 . S
O174 C172 1.263 . S
C175 O176 1.235 . S
C175 O202 1.289 . S
O176 C175 1.235 . S
C177 C179 1.400 . S
C177 N180 1.351 . S
C177 C182 1.501 . S
C178 C179 1.387 . S
C178 N181 1.341 . S
C179 C177 1.400 . S
C179 C178 1.387 . S
N180 Co171 2.022 . S
N180 C177 1.351 . S
N180 N181 1.365 . S
N181 C178 1.341 . S
N181 N180 1.365 . S
N181 H201 0.862 . S
C182 C177 1.501 . S
C182 H183 0.961 . S
C182 H184 0.961 . S
C182 H185 0.960 . S
H183 C182 0.961 . S
H184 C182 0.961 . S
H185 C182 0.960 . S
C186 N187 1.342 . S
C186 C190 1.401 . S
C186 C191 1.499 . S
N187 Co170 1.989 . S
N187 C186 1.342 . S
N187 N188 1.388 . S
N188 Co171 1.993 . S
N188 N187 1.388 . S
N188 C189 1.346 . S
C189 N188 1.346 . S
C189 C190 1.396 . S
C189 C199 1.510 . S
C190 C186 1.401 . S
C190 C189 1.396 . S
C191 C186 1.499 . S
C191 H192 0.959 . S
C191 H193 0.960 . S
C191 H194 0.961 . S
H192 C191 0.959 . S
H193 C191 0.960 . S
H194 C191 0.961 . S
O195 Co170 1.967 . S
O195 C203 1.258 . S
O196 Co171 1.941 . S
O196 C203 1.266 . S
H197 C199 0.959 . S
H198 C199 0.961 . S
C199 C189 1.510 . S
C199 H197 0.959 . S
C199 H198 0.961 . S
C199 H200 0.960 . S
H200 C199 0.960 . S
H201 N181 0.862 . S
O202 Co170 1.920 . S
O202 C175 1.289 . S
C203 O195 1.258 . S
C203 O196 1.266 . S
Co204 O207 1.970 . S
Co204 N221 1.989 . S
Co204 O229 1.967 . S
Co204 O236 1.920 . S
Co205 O208 1.966 . S
Co205 N214 2.022 . S
Co205 N222 1.993 . S
Co205 O230 1.941 . S
C206 O207 1.258 . S
C206 O208 1.263 . S
O207 Co204 1.970 . S
O207 C206 1.258 . S
O208 Co205 1.966 . S
O208 C206 1.263 . S
C209 O210 1.235 . S
C209 O236 1.289 . S
O210 C209 1.235 . S
C211 C213 1.400 . S
C211 N214 1.351 . S
C211 C216 1.501 . S
C212 C213 1.387 . S
C212 N215 1.341 . S
C213 C211 1.400 . S
C213 C212 1.387 . S
N214 Co205 2.022 . S
N214 C211 1.351 . S
N214 N215 1.365 . S
N215 C212 1.341 . S
N215 N214 1.365 . S
N215 H235 0.862 . S
C216 C211 1.501 . S
C216 H217 0.961 . S
C216 H218 0.961 . S
C216 H219 0.960 . S
H217 C216 0.961 . S
H218 C216 0.961 . S
H219 C216 0.960 . S
C220 N221 1.342 . S
C220 C224 1.401 1_545 S
C220 C225 1.499 . S
N221 Co204 1.989 . S
N221 C220 1.342 . S
N221 N222 1.388 . S
N222 Co205 1.993 . S
N222 N221 1.388 . S
N222 C223 1.346 . S
C223 N222 1.346 . S
C223 C224 1.396 1_545 S
C223 C233 1.510 1_545 S
C224 C220 1.401 1_565 S
C224 C223 1.396 1_565 S
C225 C220 1.499 . S
C225 H226 0.959 . S
C225 H227 0.960 1_545 S
C225 H228 0.961 . S
H226 C225 0.959 . S
H227 C225 0.960 1_565 S
H228 C225 0.961 . S
O229 Co204 1.967 . S
O229 C237 1.258 . S
O230 Co205 1.941 . S
O230 C237 1.266 . S
H231 C233 0.959 . S
H232 C233 0.961 . S
C233 C223 1.510 1_565 S
C233 H231 0.959 . S
C233 H232 0.961 . S
C233 H234 0.960 1_565 S
H234 C233 0.960 1_545 S
H235 N215 0.862 . S
O236 Co204 1.920 . S
O236 C209 1.289 . S
C237 O229 1.258 . S
C237 O230 1.266 . S
Co238 O241 1.970 . S
Co238 N255 1.989 . S
Co238 O263 1.967 . S
Co238 O270 1.920 . S
Co239 O242 1.966 . S
Co239 N248 2.022 . S
Co239 N256 1.993 . S
Co239 O264 1.941 . S
C240 O241 1.258 . S
C240 O242 1.263 . S
O241 Co238 1.970 . S
O241 C240 1.258 . S
O242 Co239 1.966 . S
O242 C240 1.263 . S
C243 O244 1.235 . S
C243 O270 1.289 . S
O244 C243 1.235 . S
C245 C247 1.400 . S
C245 N248 1.351 . S
C245 C250 1.501 . S
C246 C247 1.387 . S
C246 N249 1.341 . S
C247 C245 1.400 . S
C247 C246 1.387 . S
N248 Co239 2.022 . S
N248 C245 1.351 . S
N248 N249 1.365 . S
N249 C246 1.341 . S
N249 N248 1.365 . S
N249 H269 0.862 . S
C250 C245 1.501 . S
C250 H251 0.961 . S
C250 H252 0.961 . S
C250 H253 0.960 . S
H251 C250 0.961 . S
H252 C250 0.961 . S
H253 C250 0.960 . S
C254 N255 1.342 . S
C254 C258 1.401 . S
C254 C259 1.499 . S
N255 Co238 1.989 . S
N255 C254 1.342 . S
N255 N256 1.388 . S
N256 Co239 1.993 . S
N256 N255 1.388 . S
N256 C257 1.346 . S
C257 N256 1.346 . S
C257 C258 1.396 . S
C257 C267 1.510 . S
C258 C254 1.401 . S
C258 C257 1.396 . S
C259 C254 1.499 . S
C259 H260 0.959 . S
C259 H261 0.960 . S
C259 H262 0.961 . S
H260 C259 0.959 . S
H261 C259 0.960 . S
H262 C259 0.961 . S
O263 Co238 1.967 . S
O263 C271 1.258 . S
O264 Co239 1.941 . S
O264 C271 1.266 . S
H265 C267 0.959 . S
H266 C267 0.961 . S
C267 C257 1.510 . S
C267 H265 0.959 . S
C267 H266 0.961 . S
C267 H268 0.960 . S
H268 C267 0.960 . S
H269 N249 0.862 . S
O270 Co238 1.920 . S
O270 C243 1.289 . S
C271 O263 1.258 . S
C271 O264 1.266 . S
Co272 O275 1.970 . S
Co272 N289 1.989 . S
Co272 O297 1.967 . S
Co272 O304 1.920 . S
Co273 O276 1.966 . S
Co273 N282 2.022 . S
Co273 N290 1.993 . S
Co273 O298 1.941 . S
C274 O275 1.258 . S
C274 O276 1.263 . S
O275 Co272 1.970 . S
O275 C274 1.258 . S
O276 Co273 1.966 . S
O276 C274 1.263 . S
C277 O278 1.235 . S
C277 O304 1.289 . S
O278 C277 1.235 . S
C279 C281 1.400 . S
C279 N282 1.351 . S
C279 C284 1.501 . S
C280 C281 1.387 . S
C280 N283 1.341 . S
C281 C279 1.400 . S
C281 C280 1.387 . S
N282 Co273 2.022 . S
N282 C279 1.351 . S
N282 N283 1.365 . S
N283 C280 1.341 . S
N283 N282 1.365 . S
N283 H303 0.862 . S
C284 C279 1.501 . S
C284 H285 0.961 . S
C284 H286 0.961 . S
C284 H287 0.960 . S
H285 C284 0.961 . S
H286 C284 0.961 . S
H287 C284 0.960 . S
C288 N289 1.342 . S
C288 C292 1.401 . S
C288 C293 1.499 . S
N289 Co272 1.989 . S
N289 C288 1.342 . S
N289 N290 1.388 . S
N290 Co273 1.993 . S
N290 N289 1.388 . S
N290 C291 1.346 . S
C291 N290 1.346 . S
C291 C292 1.396 . S
C291 C301 1.510 . S
C292 C288 1.401 . S
C292 C291 1.396 . S
C293 C288 1.499 . S
C293 H294 0.959 . S
C293 H295 0.960 . S
C293 H296 0.961 . S
H294 C293 0.959 . S
H295 C293 0.960 . S
H296 C293 0.961 . S
O297 Co272 1.967 . S
O297 C305 1.258 . S
O298 Co273 1.941 . S
O298 C305 1.266 . S
H299 C301 0.959 . S
H300 C301 0.961 . S
C301 C291 1.510 . S
C301 H299 0.959 . S
C301 H300 0.961 . S
C301 H302 0.960 . S
H302 C301 0.960 . S
H303 N283 0.862 . S
O304 Co272 1.920 . S
O304 C277 1.289 . S
C305 O297 1.258 . S
C305 O298 1.266 . S
Co306 O309 1.970 . S
Co306 N323 1.989 . S
Co306 O331 1.967 . S
Co306 O338 1.920 . S
Co307 O310 1.966 . S
Co307 N316 2.022 . S
Co307 N324 1.993 . S
Co307 O332 1.941 . S
C308 O309 1.258 . S
C308 O310 1.263 . S
O309 Co306 1.970 . S
O309 C308 1.258 . S
O310 Co307 1.966 . S
O310 C308 1.263 . S
C311 O312 1.235 . S
C311 O338 1.289 . S
O312 C311 1.235 . S
C313 C315 1.400 . S
C313 N316 1.351 . S
C313 C318 1.501 . S
C314 C315 1.387 . S
C314 N317 1.341 . S
C315 C313 1.400 . S
C315 C314 1.387 . S
N316 Co307 2.022 . S
N316 C313 1.351 . S
N316 N317 1.365 . S
N317 C314 1.341 . S
N317 N316 1.365 . S
N317 H337 0.862 . S
C318 C313 1.501 . S
C318 H319 0.961 . S
C318 H320 0.961 . S
C318 H321 0.960 . S
H319 C318 0.961 . S
H320 C318 0.961 . S
H321 C318 0.960 . S
C322 N323 1.342 1_545 S
C322 C326 1.401 . S
C322 C327 1.499 . S
N323 Co306 1.989 . S
N323 C322 1.342 1_565 S
N323 N324 1.388 . S
N324 Co307 1.993 . S
N324 N323 1.388 . S
N324 C325 1.346 . S
C325 N324 1.346 . S
C325 C326 1.396 1_565 S
C325 C335 1.510 1_565 S
C326 C322 1.401 . S
C326 C325 1.396 1_545 S
C327 C322 1.499 . S
C327 H328 0.959 1_545 S
C327 H329 0.960 . S
C327 H330 0.961 . S
H328 C327 0.959 1_565 S
H329 C327 0.960 . S
H330 C327 0.961 . S
O331 Co306 1.967 . S
O331 C339 1.258 . S
O332 Co307 1.941 . S
O332 C339 1.266 . S
H333 C335 0.959 . S
H334 C335 0.961 . S
C335 C325 1.510 1_545 S
C335 H333 0.959 . S
C335 H334 0.961 . S
C335 H336 0.960 1_545 S
H336 C335 0.960 1_565 S
H337 N317 0.862 . S
O338 Co306 1.920 . S
O338 C311 1.289 . S
C339 O331 1.258 . S
C339 O332 1.266 . S
Co340 O343 1.970 . S
Co340 N357 1.989 . S
Co340 O365 1.967 . S
Co340 O372 1.920 . S
Co341 O344 1.966 . S
Co341 N350 2.022 . S
Co341 N358 1.993 . S
Co341 O366 1.941 . S
C342 O343 1.258 . S
C342 O344 1.263 . S
O343 Co340 1.970 . S
O343 C342 1.258 . S
O344 Co341 1.966 . S
O344 C342 1.263 . S
C345 O346 1.235 . S
C345 O372 1.289 . S
O346 C345 1.235 . S
C347 C349 1.400 . S
C347 N350 1.351 . S
C347 C352 1.501 . S
C348 C349 1.387 . S
C348 N351 1.341 . S
C349 C347 1.400 . S
C349 C348 1.387 . S
N350 Co341 2.022 . S
N350 C347 1.351 . S
N350 N351 1.365 . S
N351 C348 1.341 . S
N351 N350 1.365 . S
N351 H371 0.862 . S
C352 C347 1.501 . S
C352 H353 0.961 . S
C352 H354 0.961 . S
C352 H355 0.960 . S
H353 C352 0.961 . S
H354 C352 0.961 . S
H355 C352 0.960 . S
C356 N357 1.342 . S
C356 C360 1.401 . S
C356 C361 1.499 . S
N357 Co340 1.989 . S
N357 C356 1.342 . S
N357 N358 1.388 . S
N358 Co341 1.993 . S
N358 N357 1.388 . S
N358 C359 1.346 . S
C359 N358 1.346 . S
C359 C360 1.396 . S
C359 C369 1.510 . S
C360 C356 1.401 . S
C360 C359 1.396 . S
C361 C356 1.499 . S
C361 H362 0.959 . S
C361 H363 0.960 . S
C361 H364 0.961 . S
H362 C361 0.959 . S
H363 C361 0.960 . S
H364 C361 0.961 . S
O365 Co340 1.967 . S
O365 C373 1.258 . S
O366 Co341 1.941 . S
O366 C373 1.266 . S
H367 C369 0.959 . S
H368 C369 0.961 . S
C369 C359 1.510 . S
C369 H367 0.959 . S
C369 H368 0.961 . S
C369 H370 0.960 . S
H370 C369 0.960 . S
H371 N351 0.862 . S
O372 Co340 1.920 . S
O372 C345 1.289 . S
C373 O365 1.258 . S
C373 O366 1.266 . S
Co374 O377 1.970 . S
Co374 N391 1.989 . S
Co374 O399 1.967 . S
Co374 O406 1.920 . S
Co375 O378 1.966 . S
Co375 N384 2.022 . S
Co375 N392 1.993 . S
Co375 O400 1.941 . S
C376 O377 1.258 . S
C376 O378 1.263 . S
O377 Co374 1.970 . S
O377 C376 1.258 . S
O378 Co375 1.966 . S
O378 C376 1.263 . S
C379 O380 1.235 . S
C379 O406 1.289 . S
O380 C379 1.235 . S
C381 C383 1.400 . S
C381 N384 1.351 . S
C381 C386 1.501 . S
C382 C383 1.387 . S
C382 N385 1.341 . S
C383 C381 1.400 . S
C383 C382 1.387 . S
N384 Co375 2.022 . S
N384 C381 1.351 . S
N384 N385 1.365 . S
N385 C382 1.341 . S
N385 N384 1.365 . S
N385 H405 0.862 . S
C386 C381 1.501 . S
C386 H387 0.961 . S
C386 H388 0.961 . S
C386 H389 0.960 . S
H387 C386 0.961 . S
H388 C386 0.961 . S
H389 C386 0.960 . S
C390 N391 1.342 1_565 S
C390 C394 1.401 . S
C390 C395 1.499 . S
N391 Co374 1.989 . S
N391 C390 1.342 1_545 S
N391 N392 1.388 . S
N392 Co375 1.993 . S
N392 N391 1.388 . S
N392 C393 1.346 1_545 S
C393 N392 1.346 1_565 S
C393 C394 1.396 . S
C393 C403 1.510 . S
C394 C390 1.401 . S
C394 C393 1.396 . S
C395 C390 1.499 . S
C395 H396 0.959 1_565 S
C395 H397 0.960 . S
C395 H398 0.961 . S
H396 C395 0.959 1_545 S
H397 C395 0.960 . S
H398 C395 0.961 . S
O399 Co374 1.967 . S
O399 C407 1.258 . S
O400 Co375 1.941 . S
O400 C407 1.266 . S
H401 C403 0.959 . S
H402 C403 0.961 . S
C403 C393 1.510 . S
C403 H401 0.959 . S
C403 H402 0.961 . S
C403 H404 0.960 . S
H404 C403 0.960 . S
H405 N385 0.862 . S
O406 Co374 1.920 . S
O406 C379 1.289 . S
C407 O399 1.258 . S
C407 O400 1.266 . S
Co408 O411 1.970 . S
Co408 N425 1.989 . S
Co408 O433 1.967 . S
Co408 O440 1.920 . S
Co409 O412 1.966 . S
Co409 N418 2.022 . S
Co409 N426 1.993 . S
Co409 O434 1.941 . S
C410 O411 1.258 . S
C410 O412 1.263 . S
O411 Co408 1.970 . S
O411 C410 1.258 . S
O412 Co409 1.966 . S
O412 C410 1.263 . S
C413 O414 1.235 . S
C413 O440 1.289 . S
O414 C413 1.235 . S
C415 C417 1.400 . S
C415 N418 1.351 . S
C415 C420 1.501 . S
C416 C417 1.387 . S
C416 N419 1.341 . S
C417 C415 1.400 . S
C417 C416 1.387 . S
N418 Co409 2.022 . S
N418 C415 1.351 . S
N418 N419 1.365 . S
N419 C416 1.341 . S
N419 N418 1.365 . S
N419 H439 0.862 . S
C420 C415 1.501 . S
C420 H421 0.961 . S
C420 H422 0.961 . S
C420 H423 0.960 . S
H421 C420 0.961 . S
H422 C420 0.961 . S
H423 C420 0.960 . S
C424 N425 1.342 . S
C424 C428 1.401 . S
C424 C429 1.499 . S
N425 Co408 1.989 . S
N425 C424 1.342 . S
N425 N426 1.388 . S
N426 Co409 1.993 . S
N426 N425 1.388 . S
N426 C427 1.346 . S
C427 N426 1.346 . S
C427 C428 1.396 . S
C427 C437 1.510 . S
C428 C424 1.401 . S
C428 C427 1.396 . S
C429 C424 1.499 . S
C429 H430 0.959 . S
C429 H431 0.960 . S
C429 H432 0.961 . S
H430 C429 0.959 . S
H431 C429 0.960 . S
H432 C429 0.961 . S
O433 Co408 1.967 . S
O433 C441 1.258 . S
O434 Co409 1.941 . S
O434 C441 1.266 . S
H435 C437 0.959 . S
H436 C437 0.961 . S
C437 C427 1.510 . S
C437 H435 0.959 . S
C437 H436 0.961 . S
C437 H438 0.960 . S
H438 C437 0.960 . S
H439 N419 0.862 . S
O440 Co408 1.920 . S
O440 C413 1.289 . S
C441 O433 1.258 . S
C441 O434 1.266 . S
Co442 O445 1.970 . S
Co442 N459 1.989 . S
Co442 O467 1.967 . S
Co442 O474 1.920 . S
Co443 O446 1.966 . S
Co443 N452 2.022 . S
Co443 N460 1.993 . S
Co443 O468 1.941 . S
C444 O445 1.258 . S
C444 O446 1.263 . S
O445 Co442 1.970 . S
O445 C444 1.258 . S
O446 Co443 1.966 . S
O446 C444 1.263 . S
C447 O448 1.235 . S
C447 O474 1.289 . S
O448 C447 1.235 . S
C449 C451 1.400 . S
C449 N452 1.351 . S
C449 C454 1.501 . S
C450 C451 1.387 . S
C450 N453 1.341 . S
C451 C449 1.400 . S
C451 C450 1.387 . S
N452 Co443 2.022 . S
N452 C449 1.351 . S
N452 N453 1.365 . S
N453 C450 1.341 . S
N453 N452 1.365 . S
N453 H473 0.862 . S
C454 C449 1.501 . S
C454 H455 0.961 . S
C454 H456 0.961 . S
C454 H457 0.960 . S
H455 C454 0.961 . S
H456 C454 0.961 . S
H457 C454 0.960 . S
C458 N459 1.342 1_565 S
C458 C462 1.401 . S
C458 C463 1.499 . S
N459 Co442 1.989 . S
N459 C458 1.342 1_545 S
N459 N460 1.388 . S
N460 Co443 1.993 . S
N460 N459 1.388 . S
N460 C461 1.346 1_545 S
C461 N460 1.346 1_565 S
C461 C462 1.396 . S
C461 C471 1.510 . S
C462 C458 1.401 . S
C462 C461 1.396 . S
C463 C458 1.499 . S
C463 H464 0.959 1_565 S
C463 H465 0.960 . S
C463 H466 0.961 . S
H464 C463 0.959 1_545 S
H465 C463 0.960 . S
H466 C463 0.961 . S
O467 Co442 1.967 . S
O467 C475 1.258 . S
O468 Co443 1.941 . S
O468 C475 1.266 . S
H469 C471 0.959 . S
H470 C471 0.961 . S
C471 C461 1.510 . S
C471 H469 0.959 . S
C471 H470 0.961 . S
C471 H472 0.960 . S
H472 C471 0.960 . S
H473 N453 0.862 . S
O474 Co442 1.920 . S
O474 C447 1.289 . S
C475 O467 1.258 . S
C475 O468 1.266 . S
Co476 O479 1.970 . S
Co476 N493 1.989 . S
Co476 O501 1.967 . S
Co476 O508 1.920 . S
Co477 O480 1.966 . S
Co477 N486 2.022 . S
Co477 N494 1.993 . S
Co477 O502 1.941 . S
C478 O479 1.258 . S
C478 O480 1.263 . S
O479 Co476 1.970 . S
O479 C478 1.258 . S
O480 Co477 1.966 . S
O480 C478 1.263 . S
C481 O482 1.235 . S
C481 O508 1.289 . S
O482 C481 1.235 . S
C483 C485 1.400 . S
C483 N486 1.351 . S
C483 C488 1.501 . S
C484 C485 1.387 . S
C484 N487 1.341 . S
C485 C483 1.400 . S
C485 C484 1.387 . S
N486 Co477 2.022 . S
N486 C483 1.351 . S
N486 N487 1.365 . S
N487 C484 1.341 . S
N487 N486 1.365 . S
N487 H507 0.862 . S
C488 C483 1.501 . S
C488 H489 0.961 . S
C488 H490 0.961 . S
C488 H491 0.960 . S
H489 C488 0.961 . S
H490 C488 0.961 . S
H491 C488 0.960 . S
C492 N493 1.342 . S
C492 C496 1.401 . S
C492 C497 1.499 . S
N493 Co476 1.989 . S
N493 C492 1.342 . S
N493 N494 1.388 . S
N494 Co477 1.993 . S
N494 N493 1.388 . S
N494 C495 1.346 . S
C495 N494 1.346 . S
C495 C496 1.396 . S
C495 C505 1.510 . S
C496 C492 1.401 . S
C496 C495 1.396 . S
C497 C492 1.499 . S
C497 H498 0.959 . S
C497 H499 0.960 . S
C497 H500 0.961 . S
H498 C497 0.959 . S
H499 C497 0.960 . S
H500 C497 0.961 . S
O501 Co476 1.967 . S
O501 C509 1.258 . S
O502 Co477 1.941 . S
O502 C509 1.266 . S
H503 C505 0.959 . S
H504 C505 0.961 . S
C505 C495 1.510 . S
C505 H503 0.959 . S
C505 H504 0.961 . S
C505 H506 0.960 . S
H506 C505 0.960 . S
H507 N487 0.862 . S
O508 Co476 1.920 . S
O508 C481 1.289 . S
C509 O501 1.258 . S
C509 O502 1.266 . S
Co510 O513 1.970 . S
Co510 N527 1.989 . S
Co510 O535 1.967 . S
Co510 O542 1.920 . S
Co511 O514 1.966 . S
Co511 N520 2.022 . S
Co511 N528 1.993 . S
Co511 O536 1.941 . S
C512 O513 1.258 . S
C512 O514 1.263 . S
O513 Co510 1.970 . S
O513 C512 1.258 . S
O514 Co511 1.966 . S
O514 C512 1.263 . S
C515 O516 1.235 . S
C515 O542 1.289 . S
O516 C515 1.235 . S
C517 C519 1.400 . S
C517 N520 1.351 . S
C517 C522 1.501 . S
C518 C519 1.387 . S
C518 N521 1.341 . S
C519 C517 1.400 . S
C519 C518 1.387 . S
N520 Co511 2.022 . S
N520 C517 1.351 . S
N520 N521 1.365 . S
N521 C518 1.341 . S
N521 N520 1.365 . S
N521 H541 0.862 . S
C522 C517 1.501 . S
C522 H523 0.961 . S
C522 H524 0.961 . S
C522 H525 0.960 . S
H523 C522 0.961 . S
H524 C522 0.961 . S
H525 C522 0.960 . S
C526 N527 1.342 . S
C526 C530 1.401 1_565 S
C526 C531 1.499 . S
N527 Co510 1.989 . S
N527 C526 1.342 . S
N527 N528 1.388 . S
N528 Co511 1.993 . S
N528 N527 1.388 . S
N528 C529 1.346 . S
C529 N528 1.346 . S
C529 C530 1.396 1_565 S
C529 C539 1.510 1_565 S
C530 C526 1.401 1_545 S
C530 C529 1.396 1_545 S
C531 C526 1.499 . S
C531 H532 0.959 . S
C531 H533 0.960 1_565 S
C531 H534 0.961 . S
H532 C531 0.959 . S
H533 C531 0.960 1_545 S
H534 C531 0.961 . S
O535 Co510 1.967 . S
O535 C543 1.258 . S
O536 Co511 1.941 . S
O536 C543 1.266 . S
H537 C539 0.959 . S
H538 C539 0.961 . S
C539 C529 1.510 1_545 S
C539 H537 0.959 . S
C539 H538 0.961 . S
C539 H540 0.960 1_545 S
H540 C539 0.960 1_565 S
H541 N521 0.862 . S
O542 Co510 1.920 . S
O542 C515 1.289 . S
C543 O535 1.258 . S
C543 O536 1.266 . S
H544 C550 0.930 . S
H545 C554 0.930 . S
H546 C559 0.929 . S
H547 C557 0.929 . S
H548 C552 0.929 . S
H549 C558 0.929 . S
C550 H544 0.930 . S
C550 C551 1.367 . S
C550 C558 1.378 . S
C551 C550 1.367 . S
C551 C559 1.433 . S
C552 H548 0.929 . S
C552 C554 1.378 . S
C552 C556 1.350 . S
C553 C556 1.463 . S
C553 C558 1.350 . S
C553 N561 1.427 . S
C554 H545 0.930 . S
C554 C552 1.378 . S
C554 C555 1.367 . S
C555 C554 1.367 . S
C555 C557 1.433 . S
C556 C552 1.350 . S
C556 C553 1.463 . S
C556 N560 1.427 . S
C557 H547 0.929 . S
C557 C555 1.433 . S
C557 N560 1.384 . S
C558 H549 0.929 . S
C558 C550 1.378 . S
C558 C553 1.350 . S
C559 H546 0.929 . S
C559 C551 1.433 . S
C559 N561 1.384 . S
N560 C556 1.427 . S
N560 C557 1.384 . S
N561 C553 1.427 . S
N561 C559 1.384 . S
H562 C568 0.930 . S
H563 C572 0.930 . S
H564 C577 0.929 . S
H565 C575 0.929 . S
H566 C570 0.929 . S
H567 C576 0.929 . S
C568 H562 0.930 . S
C568 C569 1.367 . S
C568 C576 1.378 . S
C569 C568 1.367 . S
C569 C577 1.433 . S
C570 H566 0.929 . S
C570 C572 1.378 . S
C570 C574 1.350 . S
C571 C574 1.463 . S
C571 C576 1.350 . S
C571 N579 1.427 . S
C572 H563 0.930 . S
C572 C570 1.378 . S
C572 C573 1.367 . S
C573 C572 1.367 . S
C573 C575 1.433 . S
C574 C570 1.350 . S
C574 C571 1.463 . S
C574 N578 1.427 . S
C575 H565 0.929 . S
C575 C573 1.433 . S
C575 N578 1.384 . S
C576 H567 0.929 . S
C576 C568 1.378 . S
C576 C571 1.350 . S
C577 H564 0.929 . S
C577 C569 1.433 . S
C577 N579 1.384 . S
N578 C574 1.427 . S
N578 C575 1.384 . S
N579 C571 1.427 . S
N579 C577 1.384 . S
H580 C586 0.930 . S
H581 C590 0.930 . S
H582 C595 0.929 . S
H583 C593 0.929 . S
H584 C588 0.929 . S
H585 C594 0.929 . S
C586 H580 0.930 . S
C586 C587 1.367 . S
C586 C594 1.378 . S
C587 C586 1.367 . S
C587 C595 1.433 . S
C588 H584 0.929 . S
C588 C590 1.378 . S
C588 C592 1.350 . S
C589 C592 1.463 . S
C589 C594 1.350 . S
C589 N597 1.427 . S
C590 H581 0.930 . S
C590 C588 1.378 . S
C590 C591 1.367 . S
C591 C590 1.367 . S
C591 C593 1.433 . S
C592 C588 1.350 . S
C592 C589 1.463 . S
C592 N596 1.427 . S
C593 H583 0.929 . S
C593 C591 1.433 . S
C593 N596 1.384 . S
C594 H585 0.929 . S
C594 C586 1.378 . S
C594 C589 1.350 . S
C595 H582 0.929 . S
C595 C587 1.433 . S
C595 N597 1.384 . S
N596 C592 1.427 . S
N596 C593 1.384 . S
N597 C589 1.427 . S
N597 C595 1.384 . S
H598 C604 0.930 . S
H599 C608 0.930 . S
H600 C613 0.929 . S
H601 C611 0.929 . S
H602 C606 0.929 . S
H603 C612 0.929 . S
C604 H598 0.930 . S
C604 C605 1.367 . S
C604 C612 1.378 . S
C605 C604 1.367 . S
C605 C613 1.433 . S
C606 H602 0.929 . S
C606 C608 1.378 . S
C606 C610 1.350 . S
C607 C610 1.463 . S
C607 C612 1.350 . S
C607 N615 1.427 . S
C608 H599 0.930 . S
C608 C606 1.378 . S
C608 C609 1.367 . S
C609 C608 1.367 . S
C609 C611 1.433 . S
C610 C606 1.350 . S
C610 C607 1.463 . S
C610 N614 1.427 . S
C611 H601 0.929 . S
C611 C609 1.433 . S
C611 N614 1.384 . S
C612 H603 0.929 . S
C612 C604 1.378 . S
C612 C607 1.350 . S
C613 H600 0.929 . S
C613 C605 1.433 . S
C613 N615 1.384 . S
N614 C610 1.427 . S
N614 C611 1.384 . S
N615 C607 1.427 . S
N615 C613 1.384 . S
H616 C622 0.930 . S
H617 C626 0.930 . S
H618 C631 0.929 . S
H619 C629 0.929 . S
H620 C624 0.929 . S
H621 C630 0.929 . S
C622 H616 0.930 . S
C622 C623 1.367 . S
C622 C630 1.378 . S
C623 C622 1.367 . S
C623 C631 1.433 . S
C624 H620 0.929 . S
C624 C626 1.378 . S
C624 C628 1.350 . S
C625 C628 1.463 . S
C625 C630 1.350 . S
C625 N633 1.427 . S
C626 H617 0.930 . S
C626 C624 1.378 . S
C626 C627 1.367 . S
C627 C626 1.367 . S
C627 C629 1.433 . S
C628 C624 1.350 . S
C628 C625 1.463 . S
C628 N632 1.427 . S
C629 H619 0.929 . S
C629 C627 1.433 . S
C629 N632 1.384 . S
C630 H621 0.929 . S
C630 C622 1.378 . S
C630 C625 1.350 . S
C631 H618 0.929 . S
C631 C623 1.433 . S
C631 N633 1.384 . S
N632 C628 1.427 . S
N632 C629 1.384 . S
N633 C625 1.427 . S
N633 C631 1.384 . S
H634 C640 0.930 . S
H635 C644 0.930 . S
H636 C649 0.929 . S
H637 C647 0.929 . S
H638 C642 0.929 . S
H639 C648 0.929 . S
C640 H634 0.930 . S
C640 C641 1.367 . S
C640 C648 1.378 . S
C641 C640 1.367 . S
C641 C649 1.433 . S
C642 H638 0.929 . S
C642 C644 1.378 . S
C642 C646 1.350 . S
C643 C646 1.463 . S
C643 C648 1.350 . S
C643 N651 1.427 . S
C644 H635 0.930 . S
C644 C642 1.378 . S
C644 C645 1.367 . S
C645 C644 1.367 . S
C645 C647 1.433 . S
C646 C642 1.350 . S
C646 C643 1.463 . S
C646 N650 1.427 . S
C647 H637 0.929 . S
C647 C645 1.433 . S
C647 N650 1.384 . S
C648 H639 0.929 . S
C648 C640 1.378 . S
C648 C643 1.350 . S
C649 H636 0.929 . S
C649 C641 1.433 . S
C649 N651 1.384 . S
N650 C646 1.427 . S
N650 C647 1.384 . S
N651 C643 1.427 . S
N651 C649 1.384 . S
H652 C658 0.930 . S
H653 C662 0.930 . S
H654 C667 0.929 . S
H655 C665 0.929 . S
H656 C660 0.929 . S
H657 C666 0.929 . S
C658 H652 0.930 . S
C658 C659 1.367 . S
C658 C666 1.378 . S
C659 C658 1.367 . S
C659 C667 1.433 . S
C660 H656 0.929 . S
C660 C662 1.378 . S
C660 C664 1.350 . S
C661 C664 1.463 . S
C661 C666 1.350 . S
C661 N669 1.427 . S
C662 H653 0.930 . S
C662 C660 1.378 . S
C662 C663 1.367 . S
C663 C662 1.367 . S
C663 C665 1.433 . S
C664 C660 1.350 . S
C664 C661 1.463 . S
C664 N668 1.427 . S
C665 H655 0.929 . S
C665 C663 1.433 . S
C665 N668 1.384 . S
C666 H657 0.929 . S
C666 C658 1.378 . S
C666 C661 1.350 . S
C667 H654 0.929 . S
C667 C659 1.433 . S
C667 N669 1.384 . S
N668 C664 1.427 . S
N668 C665 1.384 . S
N669 C661 1.427 . S
N669 C667 1.384 . S
H670 C676 0.930 . S
H671 C680 0.930 . S
H672 C685 0.929 . S
H673 C683 0.929 . S
H674 C678 0.929 . S
H675 C684 0.929 . S
C676 H670 0.930 . S
C676 C677 1.367 . S
C676 C684 1.378 . S
C677 C676 1.367 . S
C677 C685 1.433 . S
C678 H674 0.929 . S
C678 C680 1.378 . S
C678 C682 1.350 . S
C679 C682 1.463 . S
C679 C684 1.350 . S
C679 N687 1.427 . S
C680 H671 0.930 . S
C680 C678 1.378 . S
C680 C681 1.367 . S
C681 C680 1.367 . S
C681 C683 1.433 . S
C682 C678 1.350 . S
C682 C679 1.463 . S
C682 N686 1.427 . S
C683 H673 0.929 . S
C683 C681 1.433 . S
C683 N686 1.384 . S
C684 H675 0.929 . S
C684 C676 1.378 . S
C684 C679 1.350 . S
C685 H672 0.929 . S
C685 C677 1.433 . S
C685 N687 1.384 . S
N686 C682 1.427 . S
N686 C683 1.384 . S
N687 C679 1.427 . S
N687 C685 1.384 . S
H688 C694 0.930 . S
H689 C698 0.930 . S
H690 C703 0.929 . S
H691 C701 0.929 . S
H692 C696 0.929 . S
H693 C702 0.929 . S
C694 H688 0.930 . S
C694 C695 1.367 . S
C694 C702 1.378 . S
C695 C694 1.367 . S
C695 C703 1.433 . S
C696 H692 0.929 . S
C696 C698 1.378 . S
C696 C700 1.350 . S
C697 C700 1.463 . S
C697 C702 1.350 . S
C697 N705 1.427 . S
C698 H689 0.930 . S
C698 C696 1.378 . S
C698 C699 1.367 . S
C699 C698 1.367 . S
C699 C701 1.433 . S
C700 C696 1.350 . S
C700 C697 1.463 . S
C700 N704 1.427 . S
C701 H691 0.929 . S
C701 C699 1.433 . S
C701 N704 1.384 . S
C702 H693 0.929 . S
C702 C694 1.378 . S
C702 C697 1.350 . S
C703 H690 0.929 . S
C703 C695 1.433 . S
C703 N705 1.384 . S
N704 C700 1.427 . S
N704 C701 1.384 . S
N705 C697 1.427 . S
N705 C703 1.384 . S
H706 C712 0.930 . S
H707 C716 0.930 . S
H708 C721 0.929 . S
H709 C719 0.929 . S
H710 C714 0.929 . S
H711 C720 0.929 . S
C712 H706 0.930 . S
C712 C713 1.367 . S
C712 C720 1.378 . S
C713 C712 1.367 . S
C713 C721 1.433 . S
C714 H710 0.929 . S
C714 C716 1.378 . S
C714 C718 1.350 . S
C715 C718 1.463 . S
C715 C720 1.350 . S
C715 N723 1.427 . S
C716 H707 0.930 . S
C716 C714 1.378 . S
C716 C717 1.367 . S
C717 C716 1.367 . S
C717 C719 1.433 . S
C718 C714 1.350 . S
C718 C715 1.463 . S
C718 N722 1.427 . S
C719 H709 0.929 . S
C719 C717 1.433 . S
C719 N722 1.384 . S
C720 H711 0.929 . S
C720 C712 1.378 . S
C720 C715 1.350 . S
C721 H708 0.929 . S
C721 C713 1.433 . S
C721 N723 1.384 . S
N722 C718 1.427 . S
N722 C719 1.384 . S
N723 C715 1.427 . S
N723 C721 1.384 . S
H724 C730 0.930 . S
H725 C734 0.930 . S
H726 C739 0.929 . S
H727 C737 0.929 . S
H728 C732 0.929 . S
H729 C738 0.929 . S
C730 H724 0.930 . S
C730 C731 1.367 . S
C730 C738 1.378 . S
C731 C730 1.367 . S
C731 C739 1.433 . S
C732 H728 0.929 . S
C732 C734 1.378 . S
C732 C736 1.350 . S
C733 C736 1.463 . S
C733 C738 1.350 . S
C733 N741 1.427 . S
C734 H725 0.930 . S
C734 C732 1.378 . S
C734 C735 1.367 . S
C735 C734 1.367 . S
C735 C737 1.433 . S
C736 C732 1.350 . S
C736 C733 1.463 . S
C736 N740 1.427 . S
C737 H727 0.929 . S
C737 C735 1.433 . S
C737 N740 1.384 . S
C738 H729 0.929 . S
C738 C730 1.378 . S
C738 C733 1.350 . S
C739 H726 0.929 . S
C739 C731 1.433 . S
C739 N741 1.384 . S
N740 C736 1.427 . S
N740 C737 1.384 . S
N741 C733 1.427 . S
N741 C739 1.384 . S
H742 C748 0.930 . S
H743 C752 0.930 . S
H744 C757 0.929 . S
H745 C755 0.929 . S
H746 C750 0.929 . S
H747 C756 0.929 . S
C748 H742 0.930 . S
C748 C749 1.367 . S
C748 C756 1.378 . S
C749 C748 1.367 . S
C749 C757 1.433 . S
C750 H746 0.929 . S
C750 C752 1.378 . S
C750 C754 1.350 . S
C751 C754 1.463 . S
C751 C756 1.350 . S
C751 N759 1.427 . S
C752 H743 0.930 . S
C752 C750 1.378 . S
C752 C753 1.367 . S
C753 C752 1.367 . S
C753 C755 1.433 . S
C754 C750 1.350 . S
C754 C751 1.463 . S
C754 N758 1.427 . S
C755 H745 0.929 . S
C755 C753 1.433 . S
C755 N758 1.384 . S
C756 H747 0.929 . S
C756 C748 1.378 . S
C756 C751 1.350 . S
C757 H744 0.929 . S
C757 C749 1.433 . S
C757 N759 1.384 . S
N758 C754 1.427 . S
N758 C755 1.384 . S
N759 C751 1.427 . S
N759 C757 1.384 . S
H760 C766 0.930 . S
H761 C770 0.930 . S
H762 C775 0.929 . S
H763 C773 0.929 . S
H764 C768 0.929 . S
H765 C774 0.929 . S
C766 H760 0.930 . S
C766 C767 1.367 . S
C766 C774 1.378 . S
C767 C766 1.367 . S
C767 C775 1.433 . S
C768 H764 0.929 . S
C768 C770 1.378 . S
C768 C772 1.350 . S
C769 C772 1.463 . S
C769 C774 1.350 . S
C769 N777 1.427 . S
C770 H761 0.930 . S
C770 C768 1.378 . S
C770 C771 1.367 . S
C771 C770 1.367 . S
C771 C773 1.433 . S
C772 C768 1.350 . S
C772 C769 1.463 . S
C772 N776 1.427 . S
C773 H763 0.929 . S
C773 C771 1.433 . S
C773 N776 1.384 . S
C774 H765 0.929 . S
C774 C766 1.378 . S
C774 C769 1.350 . S
C775 H762 0.929 . S
C775 C767 1.433 . S
C775 N777 1.384 . S
N776 C772 1.427 . S
N776 C773 1.384 . S
N777 C769 1.427 . S
N777 C775 1.384 . S
H778 C784 0.930 . S
H779 C788 0.930 . S
H780 C793 0.929 . S
H781 C791 0.929 . S
H782 C786 0.929 . S
H783 C792 0.929 . S
C784 H778 0.930 . S
C784 C785 1.367 . S
C784 C792 1.378 . S
C785 C784 1.367 . S
C785 C793 1.433 . S
C786 H782 0.929 . S
C786 C788 1.378 . S
C786 C790 1.350 . S
C787 C790 1.463 . S
C787 C792 1.350 . S
C787 N795 1.427 . S
C788 H779 0.930 . S
C788 C786 1.378 . S
C788 C789 1.367 . S
C789 C788 1.367 . S
C789 C791 1.433 . S
C790 C786 1.350 . S
C790 C787 1.463 . S
C790 N794 1.427 . S
C791 H781 0.929 . S
C791 C789 1.433 . S
C791 N794 1.384 . S
C792 H783 0.929 . S
C792 C784 1.378 . S
C792 C787 1.350 . S
C793 H780 0.929 . S
C793 C785 1.433 . S
C793 N795 1.384 . S
N794 C790 1.427 . S
N794 C791 1.384 . S
N795 C787 1.427 . S
N795 C793 1.384 . S
H796 C802 0.930 . S
H797 C806 0.930 . S
H798 C811 0.929 . S
H799 C809 0.929 . S
H800 C804 0.929 . S
H801 C810 0.929 . S
C802 H796 0.930 . S
C802 C803 1.367 . S
C802 C810 1.378 . S
C803 C802 1.367 . S
C803 C811 1.433 . S
C804 H800 0.929 . S
C804 C806 1.378 . S
C804 C808 1.350 . S
C805 C808 1.463 . S
C805 C810 1.350 . S
C805 N813 1.427 . S
C806 H797 0.930 . S
C806 C804 1.378 . S
C806 C807 1.367 . S
C807 C806 1.367 . S
C807 C809 1.433 . S
C808 C804 1.350 . S
C808 C805 1.463 . S
C808 N812 1.427 . S
C809 H799 0.929 . S
C809 C807 1.433 . S
C809 N812 1.384 . S
C810 H801 0.929 . S
C810 C802 1.378 . S
C810 C805 1.350 . S
C811 H798 0.929 . S
C811 C803 1.433 . S
C811 N813 1.384 . S
N812 C808 1.427 . S
N812 C809 1.384 . S
N813 C805 1.427 . S
N813 C811 1.384 . S
H814 C820 0.930 . S
H815 C824 0.930 . S
H816 C829 0.929 . S
H817 C827 0.929 . S
H818 C822 0.929 . S
H819 C828 0.929 . S
C820 H814 0.930 . S
C820 C821 1.367 . S
C820 C828 1.378 . S
C821 C820 1.367 . S
C821 C829 1.433 . S
C822 H818 0.929 . S
C822 C824 1.378 . S
C822 C826 1.350 . S
C823 C826 1.463 . S
C823 C828 1.350 . S
C823 N831 1.427 . S
C824 H815 0.930 . S
C824 C822 1.378 . S
C824 C825 1.367 . S
C825 C824 1.367 . S
C825 C827 1.433 . S
C826 C822 1.350 . S
C826 C823 1.463 . S
C826 N830 1.427 . S
C827 H817 0.929 . S
C827 C825 1.433 . S
C827 N830 1.384 . S
C828 H819 0.929 . S
C828 C820 1.378 . S
C828 C823 1.350 . S
C829 H816 0.929 . S
C829 C821 1.433 . S
C829 N831 1.384 . S
N830 C826 1.427 . S
N830 C827 1.384 . S
N831 C823 1.427 . S
N831 C829 1.384 . S
H832 C838 0.930 . S
H833 C842 0.930 . S
H834 C847 0.929 . S
H835 C845 0.929 . S
H836 C840 0.929 . S
H837 C846 0.929 . S
C838 H832 0.930 . S
C838 C839 1.367 . S
C838 C846 1.378 . S
C839 C838 1.367 . S
C839 C847 1.433 . S
C840 H836 0.929 . S
C840 C842 1.378 . S
C840 C844 1.350 . S
C841 C844 1.463 1_554 S
C841 C846 1.350 . S
C841 N849 1.427 . S
C842 H833 0.930 . S
C842 C840 1.378 . S
C842 C843 1.367 . S
C843 C842 1.367 . S
C843 C845 1.433 . S
C844 C840 1.350 . S
C844 C841 1.463 1_556 S
C844 N848 1.427 . S
C845 H835 0.929 . S
C845 C843 1.433 . S
C845 N848 1.384 . S
C846 H837 0.929 . S
C846 C838 1.378 . S
C846 C841 1.350 . S
C847 H834 0.929 . S
C847 C839 1.433 . S
C847 N849 1.384 . S
N848 C844 1.427 . S
N848 C845 1.384 . S
N849 C841 1.427 . S
N849 C847 1.384 . S
H850 C856 0.930 . S
H851 C860 0.930 . S
H852 C865 0.929 . S
H853 C863 0.929 . S
H854 C858 0.916 1_556 S
H855 C864 0.929 . S
C856 H850 0.930 . S
C856 C857 1.367 . S
C856 C864 1.378 . S
C857 C856 1.367 . S
C857 C865 1.433 . S
C858 H854 0.916 1_554 S
C858 C860 1.378 . S
C858 C862 1.371 . S
C859 C862 1.408 1_556 S
C859 C864 1.350 . S
C859 N867 1.427 . S
C860 H851 0.930 . S
C860 C858 1.378 . S
C860 C861 1.367 . S
C861 C860 1.367 . S
C861 C863 1.433 . S
C862 C858 1.371 . S
C862 C859 1.408 1_554 S
C862 N866 1.462 . S
C863 H853 0.929 . S
C863 C861 1.433 . S
C863 N866 1.384 . S
C864 H855 0.929 . S
C864 C856 1.378 . S
C864 C859 1.350 . S
C865 H852 0.929 . S
C865 C857 1.433 . S
C865 N867 1.384 . S
N866 C862 1.462 . S
N866 C863 1.384 . S
N867 C859 1.427 . S
N867 C865 1.384 . S
H868 C874 0.934 . S
H869 C878 0.930 . S
H870 C883 0.929 . S
H871 C881 0.929 . S
H872 C876 0.929 . S
H873 C882 0.929 . S
C874 H868 0.934 . S
C874 C875 1.367 . S
C874 C882 1.378 . S
C875 C874 1.367 . S
C875 C883 1.433 . S
C876 H872 0.929 . S
C876 C878 1.378 . S
C876 C880 1.350 . S
C877 C880 1.463 . S
C877 C882 1.350 . S
C877 N885 1.427 . S
C878 H869 0.930 . S
C878 C876 1.378 . S
C878 C879 1.367 . S
C879 C878 1.367 . S
C879 C881 1.433 . S
C880 C876 1.350 . S
C880 C877 1.463 . S
C880 N884 1.427 . S
C881 H871 0.929 . S
C881 C879 1.433 . S
C881 N884 1.384 . S
C882 H873 0.929 . S
C882 C874 1.378 . S
C882 C877 1.350 . S
C883 H870 0.929 . S
C883 C875 1.433 . S
C883 N885 1.384 . S
N884 C880 1.427 . S
N884 C881 1.384 . S
N885 C877 1.427 . S
N885 C883 1.384 . S
H886 C892 0.930 . S
H887 C896 0.930 . S
H888 C901 0.929 . S
H889 C899 0.929 . S
H890 C894 0.929 . S
H891 C900 0.929 . S
C892 H886 0.930 . S
C892 C893 1.367 . S
C892 C900 1.378 . S
C893 C892 1.367 . S
C893 C901 1.433 . S
C894 H890 0.929 . S
C894 C896 1.378 . S
C894 C898 1.350 . S
C895 C898 1.463 . S
C895 C900 1.350 . S
C895 N903 1.427 . S
C896 H887 0.930 . S
C896 C894 1.378 . S
C896 C897 1.367 . S
C897 C896 1.367 . S
C897 C899 1.433 . S
C898 C894 1.350 . S
C898 C895 1.463 . S
C898 N902 1.427 . S
C899 H889 0.929 . S
C899 C897 1.433 . S
C899 N902 1.384 . S
C900 H891 0.929 . S
C900 C892 1.378 . S
C900 C895 1.350 . S
C901 H888 0.929 . S
C901 C893 1.433 . S
C901 N903 1.384 . S
N902 C898 1.427 . S
N902 C899 1.384 . S
N903 C895 1.427 . S
N903 C901 1.384 . S
H904 C910 0.930 . S
H905 C914 0.930 . S
H906 C919 0.929 . S
H907 C917 0.929 . S
H908 C912 0.929 . S
H909 C918 0.929 . S
C910 H904 0.930 . S
C910 C911 1.367 . S
C910 C918 1.378 . S
C911 C910 1.367 . S
C911 C919 1.433 . S
C912 H908 0.929 . S
C912 C914 1.378 . S
C912 C916 1.350 . S
C913 C916 1.463 1_556 S
C913 C918 1.350 . S
C913 N921 1.427 . S
C914 H905 0.930 . S
C914 C912 1.378 . S
C914 C915 1.367 . S
C915 C914 1.367 . S
C915 C917 1.433 . S
C916 C912 1.350 . S
C916 C913 1.463 1_554 S
C916 N920 1.427 . S
C917 H907 0.929 . S
C917 C915 1.433 . S
C917 N920 1.384 . S
C918 H909 0.929 . S
C918 C910 1.378 . S
C918 C913 1.350 . S
C919 H906 0.929 . S
C919 C911 1.433 . S
C919 N921 1.384 . S
N920 C916 1.427 . S
N920 C917 1.384 . S
N921 C913 1.427 . S
N921 C919 1.384 . S
H922 C928 0.930 . S
H923 C932 0.930 . S
H924 C937 0.929 . S
H925 C935 0.929 . S
H926 C930 0.929 . S
H927 C936 0.929 . S
C928 H922 0.930 . S
C928 C929 1.367 . S
C928 C936 1.378 . S
C929 C928 1.367 . S
C929 C937 1.433 . S
C930 H926 0.929 . S
C930 C932 1.378 . S
C930 C934 1.350 . S
C931 C934 1.463 1_554 S
C931 C936 1.350 . S
C931 N939 1.427 . S
C932 H923 0.930 . S
C932 C930 1.378 . S
C932 C933 1.367 . S
C933 C932 1.367 . S
C933 C935 1.433 . S
C934 C930 1.350 . S
C934 C931 1.463 1_556 S
C934 N938 1.427 . S
C935 H925 0.929 . S
C935 C933 1.433 . S
C935 N938 1.384 . S
C936 H927 0.929 . S
C936 C928 1.378 . S
C936 C931 1.350 . S
C937 H924 0.929 . S
C937 C929 1.433 . S
C937 N939 1.384 . S
N938 C934 1.427 . S
N938 C935 1.384 . S
N939 C931 1.427 . S
N939 C937 1.384 . S
H940 C946 0.930 . S
H941 C950 0.930 . S
H942 C955 0.929 . S
H943 C953 0.929 . S
H944 C948 0.929 . S
H945 C954 0.929 . S
C946 H940 0.930 . S
C946 C947 1.367 . S
C946 C954 1.378 . S
C947 C946 1.367 . S
C947 C955 1.433 . S
C948 H944 0.929 . S
C948 C950 1.378 . S
C948 C952 1.350 . S
C949 C952 1.463 . S
C949 C954 1.350 . S
C949 N957 1.427 . S
C950 H941 0.930 . S
C950 C948 1.378 . S
C950 C951 1.367 . S
C951 C950 1.367 . S
C951 C953 1.433 . S
C952 C948 1.350 . S
C952 C949 1.463 . S
C952 N956 1.427 . S
C953 H943 0.929 . S
C953 C951 1.433 . S
C953 N956 1.384 . S
C954 H945 0.929 . S
C954 C946 1.378 . S
C954 C949 1.350 . S
C955 H942 0.929 . S
C955 C947 1.433 . S
C955 N957 1.384 . S
N956 C952 1.427 . S
N956 C953 1.384 . S
N957 C949 1.427 . S
N957 C955 1.384 . S
H958 C964 0.930 . S
H959 C968 0.930 . S
H960 C973 0.929 . S
H961 C971 0.929 . S
H962 C966 0.929 . S
H963 C972 0.929 . S
C964 H958 0.930 . S
C964 C965 1.367 . S
C964 C972 1.378 . S
C965 C964 1.367 . S
C965 C973 1.433 . S
C966 H962 0.929 . S
C966 C968 1.378 . S
C966 C970 1.350 . S
C967 C970 1.463 . S
C967 C972 1.350 . S
C967 N975 1.427 . S
C968 H959 0.930 . S
C968 C966 1.378 . S
C968 C969 1.367 . S
C969 C968 1.367 . S
C969 C971 1.433 . S
C970 C966 1.350 . S
C970 C967 1.463 . S
C970 N974 1.427 . S
C971 H961 0.929 . S
C971 C969 1.433 . S
C971 N974 1.384 . S
C972 H963 0.929 . S
C972 C964 1.378 . S
C972 C967 1.350 . S
C973 H960 0.929 . S
C973 C965 1.433 . S
C973 N975 1.384 . S
N974 C970 1.427 . S
N974 C971 1.384 . S
N975 C967 1.427 . S
N975 C973 1.384 . S
H976 C982 0.930 . S
H977 C986 0.930 . S
H978 C991 0.929 . S
H979 C989 0.929 . S
H980 C984 0.929 . S
H981 C990 0.929 . S
C982 H976 0.930 . S
C982 C983 1.367 . S
C982 C990 1.378 . S
C983 C982 1.367 . S
C983 C991 1.433 . S
C984 H980 0.929 . S
C984 C986 1.378 . S
C984 C988 1.350 . S
C985 C988 1.463 . S
C985 C990 1.350 . S
C985 N993 1.427 . S
C986 H977 0.930 . S
C986 C984 1.378 . S
C986 C987 1.367 1_545 S
C987 C986 1.367 1_565 S
C987 C989 1.433 . S
C988 C984 1.350 . S
C988 C985 1.463 . S
C988 N992 1.427 . S
C989 H979 0.929 . S
C989 C987 1.433 . S
C989 N992 1.384 1_565 S
C990 H981 0.929 . S
C990 C982 1.378 . S
C990 C985 1.350 . S
C991 H978 0.929 . S
C991 C983 1.433 . S
C991 N993 1.384 . S
N992 C988 1.427 . S
N992 C989 1.384 1_545 S
N993 C985 1.427 . S
N993 C991 1.384 . S
H994 C1000 0.930 . S
H995 C1004 0.930 . S
H996 C1009 0.929 . S
H997 C1007 0.929 . S
H998 C1002 0.929 . S
H999 C1008 0.929 . S
C1000 H994 0.930 . S
C1000 C1001 1.367 . S
C1000 C1008 1.378 . S
C1001 C1000 1.367 . S
C1001 C1009 1.433 . S
C1002 H998 0.929 . S
C1002 C1004 1.378 . S
C1002 C1006 1.350 . S
C1003 C1006 1.463 . S
C1003 C1008 1.350 . S
C1003 N1011 1.427 . S
C1004 H995 0.930 . S
C1004 C1002 1.378 . S
C1004 C1005 1.367 . S
C1005 C1004 1.367 . S
C1005 C1007 1.433 . S
C1006 C1002 1.350 . S
C1006 C1003 1.463 . S
C1006 N1010 1.427 . S
C1007 H997 0.929 . S
C1007 C1005 1.433 . S
C1007 N1010 1.384 . S
C1008 H999 0.929 . S
C1008 C1000 1.378 . S
C1008 C1003 1.350 . S
C1009 H996 0.929 . S
C1009 C1001 1.433 . S
C1009 N1011 1.384 . S
N1010 C1006 1.427 . S
N1010 C1007 1.384 . S
N1011 C1003 1.427 . S
N1011 C1009 1.384 . S
H1012 C1018 0.930 . S
H1013 C1022 0.930 . S
H1014 C1027 0.929 . S
H1015 C1025 0.929 . S
H1016 C1020 0.929 . S
H1017 C1026 0.929 . S
C1018 H1012 0.930 . S
C1018 C1019 1.367 1_545 S
C1018 C1026 1.378 . S
C1019 C1018 1.367 1_565 S
C1019 C1027 1.433 . S
C1020 H1016 0.929 . S
C1020 C1022 1.378 . S
C1020 C1024 1.350 1_565 S
C1021 C1024 1.463 . S
C1021 C1026 1.350 . S
C1021 N1029 1.427 1_545 S
C1022 H1013 0.930 . S
C1022 C1020 1.378 . S
C1022 C1023 1.367 1_565 S
C1023 C1022 1.367 1_545 S
C1023 C1025 1.433 . S
C1024 C1020 1.350 1_545 S
C1024 C1021 1.463 . S
C1024 N1028 1.427 . S
C1025 H1015 0.929 . S
C1025 C1023 1.433 . S
C1025 N1028 1.384 . S
C1026 H1017 0.929 . S
C1026 C1018 1.378 . S
C1026 C1021 1.350 . S
C1027 H1014 0.929 . S
C1027 C1019 1.433 . S
C1027 N1029 1.384 . S
N1028 C1024 1.427 . S
N1028 C1025 1.384 . S
N1029 C1021 1.427 1_565 S
N1029 C1027 1.384 . S
H1030 C1036 0.930 . S
H1031 C1040 0.930 . S
H1032 C1045 0.929 . S
H1033 C1043 0.929 . S
H1034 C1038 0.929 . S
H1035 C1044 0.929 . S
C1036 H1030 0.930 . S
C1036 C1037 1.367 . S
C1036 C1044 1.378 . S
C1037 C1036 1.367 . S
C1037 C1045 1.433 . S
C1038 H1034 0.929 . S
C1038 C1040 1.378 . S
C1038 C1042 1.350 . S
C1039 C1042 1.463 . S
C1039 C1044 1.350 . S
C1039 N1047 1.427 . S
C1040 H1031 0.930 . S
C1040 C1038 1.378 . S
C1040 C1041 1.367 . S
C1041 C1040 1.367 . S
C1041 C1043 1.433 . S
C1042 C1038 1.350 . S
C1042 C1039 1.463 . S
C1042 N1046 1.427 . S
C1043 H1033 0.929 . S
C1043 C1041 1.433 . S
C1043 N1046 1.384 . S
C1044 H1035 0.929 . S
C1044 C1036 1.378 . S
C1044 C1039 1.350 . S
C1045 H1032 0.929 . S
C1045 C1037 1.433 . S
C1045 N1047 1.384 . S
N1046 C1042 1.427 . S
N1046 C1043 1.384 . S
N1047 C1039 1.427 . S
N1047 C1045 1.384 . S
H1048 C1054 0.930 . S
H1049 C1058 0.930 . S
H1050 C1063 0.929 . S
H1051 C1061 0.929 . S
H1052 C1056 0.929 . S
H1053 C1062 0.929 . S
C1054 H1048 0.930 . S
C1054 C1055 1.367 . S
C1054 C1062 1.378 . S
C1055 C1054 1.367 . S
C1055 C1063 1.433 . S
C1056 H1052 0.929 . S
C1056 C1058 1.378 . S
C1056 C1060 1.350 . S
C1057 C1060 1.463 . S
C1057 C1062 1.350 . S
C1057 N1065 1.427 . S
C1058 H1049 0.930 . S
C1058 C1056 1.378 . S
C1058 C1059 1.367 . S
C1059 C1058 1.367 . S
C1059 C1061 1.433 . S
C1060 C1056 1.350 . S
C1060 C1057 1.463 . S
C1060 N1064 1.427 . S
C1061 H1051 0.929 . S
C1061 C1059 1.433 . S
C1061 N1064 1.384 . S
C1062 H1053 0.929 . S
C1062 C1054 1.378 . S
C1062 C1057 1.350 . S
C1063 H1050 0.929 . S
C1063 C1055 1.433 . S
C1063 N1065 1.384 . S
N1064 C1060 1.427 . S
N1064 C1061 1.384 . S
N1065 C1057 1.427 . S
N1065 C1063 1.384 . S
H1066 C1072 0.930 . S
H1067 C1076 0.930 . S
H1068 C1081 0.929 . S
H1069 C1079 0.929 . S
H1070 C1074 0.929 . S
H1071 C1080 0.929 . S
C1072 H1066 0.930 . S
C1072 C1073 1.367 . S
C1072 C1080 1.378 . S
C1073 C1072 1.367 . S
C1073 C1081 1.433 1_545 S
C1074 H1070 0.929 . S
C1074 C1076 1.378 . S
C1074 C1078 1.350 . S
C1075 C1078 1.463 . S
C1075 C1080 1.350 1_565 S
C1075 N1083 1.427 . S
C1076 H1067 0.930 . S
C1076 C1074 1.378 . S
C1076 C1077 1.367 . S
C1077 C1076 1.367 . S
C1077 C1079 1.433 . S
C1078 C1074 1.350 . S
C1078 C1075 1.463 . S
C1078 N1082 1.427 . S
C1079 H1069 0.929 . S
C1079 C1077 1.433 . S
C1079 N1082 1.384 . S
C1080 H1071 0.929 . S
C1080 C1072 1.378 . S
C1080 C1075 1.350 1_545 S
C1081 H1068 0.929 . S
C1081 C1073 1.433 1_565 S
C1081 N1083 1.384 . S
N1082 C1078 1.427 . S
N1082 C1079 1.384 . S
N1083 C1075 1.427 . S
N1083 C1081 1.384 . S
H1084 C1090 0.930 . S
H1085 C1094 0.930 . S
H1086 C1099 0.929 . S
H1087 C1097 0.929 . S
H1088 C1092 0.929 . S
H1089 C1098 0.929 . S
C1090 H1084 0.930 . S
C1090 C1091 1.367 . S
C1090 C1098 1.378 . S
C1091 C1090 1.367 . S
C1091 C1099 1.433 . S
C1092 H1088 0.929 . S
C1092 C1094 1.378 . S
C1092 C1096 1.350 . S
C1093 C1096 1.463 . S
C1093 C1098 1.350 . S
C1093 N1101 1.427 . S
C1094 H1085 0.930 . S
C1094 C1092 1.378 . S
C1094 C1095 1.367 . S
C1095 C1094 1.367 . S
C1095 C1097 1.433 . S
C1096 C1092 1.350 . S
C1096 C1093 1.463 . S
C1096 N1100 1.427 . S
C1097 H1087 0.929 . S
C1097 C1095 1.433 . S
C1097 N1100 1.384 . S
C1098 H1089 0.929 . S
C1098 C1090 1.378 . S
C1098 C1093 1.350 . S
C1099 H1086 0.929 . S
C1099 C1091 1.433 . S
C1099 N1101 1.384 . S
N1100 C1096 1.427 . S
N1100 C1097 1.384 . S
N1101 C1093 1.427 . S
N1101 C1099 1.384 . S
H1102 C1108 0.934 . S
H1103 C1112 0.930 . S
H1104 C1117 0.929 . S
H1105 C1115 0.929 . S
H1106 C1110 0.929 1_545 S
H1107 C1116 0.929 . S
C1108 H1102 0.934 . S
C1108 C1109 1.360 1_565 S
C1108 C1116 1.381 . S
C1109 C1108 1.360 1_545 S
C1109 C1117 1.433 . S
C1110 H1106 0.929 1_565 S
C1110 C1112 1.378 . S
C1110 C1114 1.350 . S
C1111 C1114 1.463 . S
C1111 C1116 1.350 . S
C1111 N1119 1.427 1_565 S
C1112 H1103 0.930 . S
C1112 C1110 1.378 . S
C1112 C1113 1.367 . S
C1113 C1112 1.367 . S
C1113 C1115 1.433 . S
C1114 C1110 1.350 . S
C1114 C1111 1.463 . S
C1114 N1118 1.427 . S
C1115 H1105 0.929 . S
C1115 C1113 1.433 . S
C1115 N1118 1.384 . S
C1116 H1107 0.929 . S
C1116 C1108 1.381 . S
C1116 C1111 1.350 . S
C1117 H1104 0.929 . S
C1117 C1109 1.433 . S
C1117 N1119 1.384 . S
N1118 C1114 1.427 . S
N1118 C1115 1.384 . S
N1119 C1111 1.427 1_545 S
N1119 C1117 1.384 . S
H1120 C1126 0.930 . S
H1121 C1130 0.930 . S
H1122 C1135 0.929 . S
H1123 C1133 0.929 . S
H1124 C1128 0.929 . S
H1125 C1134 0.929 . S
C1126 H1120 0.930 . S
C1126 C1127 1.367 . S
C1126 C1134 1.378 . S
C1127 C1126 1.367 . S
C1127 C1135 1.433 . S
C1128 H1124 0.929 . S
C1128 C1130 1.378 . S
C1128 C1132 1.350 . S
C1129 C1132 1.463 . S
C1129 C1134 1.350 . S
C1129 N1137 1.427 . S
C1130 H1121 0.930 . S
C1130 C1128 1.378 . S
C1130 C1131 1.367 . S
C1131 C1130 1.367 . S
C1131 C1133 1.433 . S
C1132 C1128 1.350 . S
C1132 C1129 1.463 . S
C1132 N1136 1.427 . S
C1133 H1123 0.929 . S
C1133 C1131 1.433 . S
C1133 N1136 1.384 . S
C1134 H1125 0.929 . S
C1134 C1126 1.378 . S
C1134 C1129 1.350 . S
C1135 H1122 0.929 . S
C1135 C1127 1.433 . S
C1135 N1137 1.384 . S
N1136 C1132 1.427 . S
N1136 C1133 1.384 . S
N1137 C1129 1.427 . S
N1137 C1135 1.384 . S
H1138 C1144 0.930 . S
H1139 C1148 0.930 . S
H1140 C1153 0.929 . S
H1141 C1151 0.929 . S
H1142 C1146 0.929 . S
H1143 C1152 0.929 . S
C1144 H1138 0.930 . S
C1144 C1145 1.367 . S
C1144 C1152 1.378 . S
C1145 C1144 1.367 . S
C1145 C1153 1.433 . S
C1146 H1142 0.929 . S
C1146 C1148 1.378 . S
C1146 C1150 1.350 . S
C1147 C1150 1.463 . S
C1147 C1152 1.350 . S
C1147 N1155 1.427 . S
C1148 H1139 0.930 . S
C1148 C1146 1.378 . S
C1148 C1149 1.367 . S
C1149 C1148 1.367 . S
C1149 C1151 1.433 . S
C1150 C1146 1.350 . S
C1150 C1147 1.463 . S
C1150 N1154 1.427 . S
C1151 H1141 0.929 . S
C1151 C1149 1.433 . S
C1151 N1154 1.384 . S
C1152 H1143 0.929 . S
C1152 C1144 1.378 . S
C1152 C1147 1.350 . S
C1153 H1140 0.929 . S
C1153 C1145 1.433 . S
C1153 N1155 1.384 . S
N1154 C1150 1.427 . S
N1154 C1151 1.384 . S
N1155 C1147 1.427 . S
N1155 C1153 1.384 . S
H1156 C1162 0.930 . S
H1157 C1166 0.930 . S
H1158 C1171 0.929 . S
H1159 C1169 0.929 . S
H1160 C1164 0.929 . S
H1161 C1170 0.929 . S
C1162 H1156 0.930 . S
C1162 C1163 1.367 . S
C1162 C1170 1.378 . S
C1163 C1162 1.367 . S
C1163 C1171 1.433 . S
C1164 H1160 0.929 . S
C1164 C1166 1.378 . S
C1164 C1168 1.350 . S
C1165 C1168 1.463 . S
C1165 C1170 1.350 . S
C1165 N1173 1.427 . S
C1166 H1157 0.930 . S
C1166 C1164 1.378 . S
C1166 C1167 1.367 . S
C1167 C1166 1.367 . S
C1167 C1169 1.433 . S
C1168 C1164 1.350 . S
C1168 C1165 1.463 . S
C1168 N1172 1.427 . S
C1169 H1159 0.929 . S
C1169 C1167 1.433 . S
C1169 N1172 1.384 . S
C1170 H1161 0.929 . S
C1170 C1162 1.378 . S
C1170 C1165 1.350 . S
C1171 H1158 0.929 . S
C1171 C1163 1.433 . S
C1171 N1173 1.384 . S
N1172 C1168 1.427 . S
N1172 C1169 1.384 . S
N1173 C1165 1.427 . S
N1173 C1171 1.384 . S
H1174 C1180 0.930 . S
H1175 C1184 0.930 . S
H1176 C1189 0.929 . S
H1177 C1187 0.929 . S
H1178 C1182 0.929 . S
H1179 C1188 0.929 . S
C1180 H1174 0.930 . S
C1180 C1181 1.367 . S
C1180 C1188 1.378 . S
C1181 C1180 1.367 . S
C1181 C1189 1.433 . S
C1182 H1178 0.929 . S
C1182 C1184 1.378 . S
C1182 C1186 1.350 . S
C1183 C1186 1.463 . S
C1183 C1188 1.350 . S
C1183 N1191 1.427 . S
C1184 H1175 0.930 . S
C1184 C1182 1.378 . S
C1184 C1185 1.367 . S
C1185 C1184 1.367 . S
C1185 C1187 1.433 . S
C1186 C1182 1.350 . S
C1186 C1183 1.463 . S
C1186 N1190 1.427 . S
C1187 H1177 0.929 . S
C1187 C1185 1.433 . S
C1187 N1190 1.384 . S
C1188 H1179 0.929 . S
C1188 C1180 1.378 . S
C1188 C1183 1.350 . S
C1189 H1176 0.929 . S
C1189 C1181 1.433 . S
C1189 N1191 1.384 . S
N1190 C1186 1.427 . S
N1190 C1187 1.384 . S
N1191 C1183 1.427 . S
N1191 C1189 1.384 . S
H1192 C1198 0.930 . S
H1193 C1202 0.930 . S
H1194 C1207 0.929 . S
H1195 C1205 0.929 . S
H1196 C1200 0.929 . S
H1197 C1206 0.929 . S
C1198 H1192 0.930 . S
C1198 C1199 1.367 . S
C1198 C1206 1.378 . S
C1199 C1198 1.367 . S
C1199 C1207 1.433 . S
C1200 H1196 0.929 . S
C1200 C1202 1.378 . S
C1200 C1204 1.350 . S
C1201 C1204 1.463 1_655 S
C1201 C1206 1.350 . S
C1201 N1209 1.427 . S
C1202 H1193 0.930 . S
C1202 C1200 1.378 . S
C1202 C1203 1.367 . S
C1203 C1202 1.367 . S
C1203 C1205 1.433 . S
C1204 C1200 1.350 . S
C1204 C1201 1.463 1_455 S
C1204 N1208 1.427 . S
C1205 H1195 0.929 . S
C1205 C1203 1.433 . S
C1205 N1208 1.384 . S
C1206 H1197 0.929 . S
C1206 C1198 1.378 . S
C1206 C1201 1.350 . S
C1207 H1194 0.929 . S
C1207 C1199 1.433 . S
C1207 N1209 1.384 . S
N1208 C1204 1.427 . S
N1208 C1205 1.384 . S
N1209 C1201 1.427 . S
N1209 C1207 1.384 . S
H1210 C1216 0.930 . S
H1211 C1220 0.930 . S
H1212 C1225 0.929 . S
H1213 C1223 0.929 . S
H1214 C1218 0.929 . S
H1215 C1224 0.929 . S
C1216 H1210 0.930 . S
C1216 C1217 1.367 . S
C1216 C1224 1.378 . S
C1217 C1216 1.367 . S
C1217 C1225 1.433 . S
C1218 H1214 0.929 . S
C1218 C1220 1.378 . S
C1218 C1222 1.350 . S
C1219 C1222 1.463 1_455 S
C1219 C1224 1.350 . S
C1219 N1227 1.427 . S
C1220 H1211 0.930 . S
C1220 C1218 1.378 . S
C1220 C1221 1.367 . S
C1221 C1220 1.367 . S
C1221 C1223 1.433 . S
C1222 C1218 1.350 . S
C1222 C1219 1.463 1_655 S
C1222 N1226 1.427 . S
C1223 H1213 0.929 . S
C1223 C1221 1.433 . S
C1223 N1226 1.384 . S
C1224 H1215 0.929 . S
C1224 C1216 1.378 . S
C1224 C1219 1.350 . S
C1225 H1212 0.929 . S
C1225 C1217 1.433 . S
C1225 N1227 1.384 . S
N1226 C1222 1.427 . S
N1226 C1223 1.384 . S
N1227 C1219 1.427 . S
N1227 C1225 1.384 . S
H1228 C1234 0.930 . S
H1229 C1238 0.930 . S
H1230 C1243 0.929 . S
H1231 C1241 0.929 . S
H1232 C1236 0.929 . S
H1233 C1242 0.929 . S
C1234 H1228 0.930 . S
C1234 C1235 1.367 . S
C1234 C1242 1.378 . S
C1235 C1234 1.367 . S
C1235 C1243 1.433 . S
C1236 H1232 0.929 . S
C1236 C1238 1.378 . S
C1236 C1240 1.350 . S
C1237 C1240 1.463 1_455 S
C1237 C1242 1.350 . S
C1237 N1245 1.427 . S
C1238 H1229 0.930 . S
C1238 C1236 1.378 . S
C1238 C1239 1.367 . S
C1239 C1238 1.367 . S
C1239 C1241 1.433 . S
C1240 C1236 1.350 . S
C1240 C1237 1.463 1_655 S
C1240 N1244 1.427 . S
C1241 H1231 0.929 . S
C1241 C1239 1.433 . S
C1241 N1244 1.384 . S
C1242 H1233 0.929 . S
C1242 C1234 1.378 . S
C1242 C1237 1.350 . S
C1243 H1230 0.929 . S
C1243 C1235 1.433 . S
C1243 N1245 1.384 . S
N1244 C1240 1.427 . S
N1244 C1241 1.384 . S
N1245 C1237 1.427 . S
N1245 C1243 1.384 . S
H1246 C1252 0.930 . S
H1247 C1256 0.930 . S
H1248 C1261 0.929 . S
H1249 C1259 0.929 . S
H1250 C1254 0.929 . S
H1251 C1260 0.929 . S
C1252 H1246 0.930 . S
C1252 C1253 1.367 . S
C1252 C1260 1.378 . S
C1253 C1252 1.367 . S
C1253 C1261 1.433 . S
C1254 H1250 0.929 . S
C1254 C1256 1.378 . S
C1254 C1258 1.350 . S
C1255 C1258 1.463 1_655 S
C1255 C1260 1.350 . S
C1255 N1263 1.427 . S
C1256 H1247 0.930 . S
C1256 C1254 1.378 . S
C1256 C1257 1.367 . S
C1257 C1256 1.367 . S
C1257 C1259 1.433 . S
C1258 C1254 1.350 . S
C1258 C1255 1.463 1_455 S
C1258 N1262 1.427 . S
C1259 H1249 0.929 . S
C1259 C1257 1.433 . S
C1259 N1262 1.384 . S
C1260 H1251 0.929 . S
C1260 C1252 1.378 . S
C1260 C1255 1.350 . S
C1261 H1248 0.929 . S
C1261 C1253 1.433 . S
C1261 N1263 1.384 . S
N1262 C1258 1.427 . S
N1262 C1259 1.384 . S
N1263 C1255 1.427 . S
N1263 C1261 1.384 . S
C551 C20 0.764 . S
C555 C509 0.773 . S
C569 C54 0.763 . S
C573 C543 0.774 . S
C587 C88 0.868 . S
C591 C441 0.868 . S
C605 C475 0.863 . S
C609 C122 0.864 . S
C623 C156 1.111 . S
C627 C373 1.104 . S
C641 C190 1.114 . S
C645 C407 1.108 . S
C659 C224 0.921 . S
C663 C274 0.925 . S
C677 C308 0.928 . S
C681 C258 0.927 . S
C695 C292 0.762 . S
C699 C237 0.776 . S
C713 C271 0.776 . S
C717 C326 0.767 . S
C731 C360 0.863 . S
C735 C169 0.862 . S
C749 C394 0.862 . S
C753 C203 0.858 . S
C767 C428 1.118 . S
C771 C101 1.113 . S
C785 C462 1.118 . S
C789 C135 1.112 . S
C803 C2 0.926 . S
C807 C496 0.920 . S
C821 C36 0.926 . S
C825 C530 0.920 . S
C839 C9 1.691 . S
C843 C379 1.691 . S
C857 C345 1.695 . S
C861 C43 1.686 . S
C875 C73 1.691 . S
C879 C315 1.693 . S
C893 C281 1.686 . S
C897 C107 1.697 . S
C911 C141 2.065 . S
C915 C515 2.051 . S
C929 C481 2.054 . S
C933 C175 2.062 . S
C947 C209 2.056 . S
C951 C447 2.068 . S
C965 C243 2.054 . S
C969 C413 2.062 . S
C983 C5 1.944 . S
C987 C77 1.791 . S
C1001 C39 1.947 . S
C1005 C111 1.787 . S
C1019 C145 1.415 . S
C1023 C213 1.439 . S
C1037 C247 1.435 . S
C1041 C179 1.406 . S
C1055 C349 1.776 . S
C1059 C277 1.949 . S
C1073 C383 1.777 . S
C1077 C311 1.949 . S
C1091 C417 1.410 . S
C1095 C485 1.442 . S
C1109 C451 1.422 . S
C1113 C519 1.430 . S
C1127 C67 1.272 . S
C1131 C33 1.271 . S
C1145 C70 1.481 . S
C1149 C104 1.482 . S
C1163 C138 1.687 . S
C1167 C172 1.687 . S
C1181 C240 1.705 . S
C1185 C206 1.705 . S
C1199 C305 1.271 . S
C1203 C339 1.271 . S
C1217 C376 1.481 . S
C1221 C342 1.482 . S
C1235 C410 1.683 . S
C1239 C444 1.683 . S
C1253 C512 1.706 . S
C1257 C478 1.707 . S
