# Generated by pormake.
# Topology eta-c, (3)-cn, num edge types: 1
# Building blocks:
#     Node 0, Type 0, BuildingBlock: WUSLED_clean_sbu_0, # of connection points: 3
#     Node 1, Type 0, BuildingBlock: WUSLED_clean_sbu_0, # of connection points: 3
#     Node 2, Type 0, BuildingBlock: WUSLED_clean_sbu_0, # of connection points: 3
#     Node 3, Type 0, BuildingBlock: WUSLED_clean_sbu_0, # of connection points: 3
#     Node 4, Type 0, BuildingBlock: WUSLED_clean_sbu_0, # of connection points: 3
#     Node 5, Type 0, BuildingBlock: WUSLED_clean_sbu_0, # of connection points: 3
#     Edge 6, Type (0, 0), BuildingBlock: ZUJKAS_clean_linker_0, # of connection points: 2
#     Edge 7, Type (0, 0), BuildingBlock: ZUJKAS_clean_linker_0, # of connection points: 2
#     Edge 8, Type (0, 0), BuildingBlock: ZUJKAS_clean_linker_0, # of connection points: 2
#     Edge 9, Type (0, 0), BuildingBlock: ZUJKAS_clean_linker_0, # of connection points: 2
#     Edge 10, Type (0, 0), BuildingBlock: ZUJKAS_clean_linker_0, # of connection points: 2
#     Edge 11, Type (0, 0), BuildingBlock: ZUJKAS_clean_linker_0, # of connection points: 2
#     Edge 12, Type (0, 0), BuildingBlock: ZUJKAS_clean_linker_0, # of connection points: 2
#     Edge 13, Type (0, 0), BuildingBlock: ZUJKAS_clean_linker_0, # of connection points: 2
#     Edge 14, Type (0, 0), BuildingBlock: ZUJKAS_clean_linker_0, # of connection points: 2
# Relax obj value: 0.000
# Max RMSD: 0.005
# Mean RMSD: 0.004
data_MOF--net-eta-c--node1-WUSLED_clean_sbu_0--edge1-ZUJKAS_clean_linker_0
_symmetry_space_group_name_H-M    P1
_symmetry_Int_Tables_number       1
_symmetry_cell_setting            triclinic
loop_
_symmetry_equiv_pos_as_xyz
'x, y, z'
_cell_length_a     79.541513
_cell_length_b     80.076259
_cell_length_c     32.819836
_cell_angle_alpha  90.897043
_cell_angle_beta   89.613391
_cell_angle_gamma 119.04292
loop_
_atom_site_label
_atom_site_type_symbol
_atom_site_fract_x
_atom_site_fract_y
_atom_site_fract_z
_atom_type_partial_charge
C0 C 0.40204 0.81212 0.13971 0.0
C1 C 0.39246 0.79231 0.13248 0.0
C2 C 0.37916 0.78686 0.20135 0.0
C3 C 0.38112 0.77978 0.16305 0.0
C4 C 0.38894 0.80675 0.20832 0.0
C5 C 0.40024 0.81923 0.1778 0.0
U6 U 0.42479 0.82336 0.03326 0.0
O7 O 0.42817 0.84573 0.99065 0.0
O8 O 0.4537 0.84538 1.01451 0.0
C9 C 0.44705 0.85458 0.99286 0.0
C10 C 0.41391 0.8256 0.10803 0.0
C11 C 0.45654 0.87543 0.99951 0.0
C12 C 0.46063 0.90358 0.03723 0.0
C13 C 0.45144 0.88366 0.03205 0.0
C14 C 0.48015 0.90716 0.97762 0.0
C15 C 0.47514 0.91559 1.01007 0.0
C16 C 0.47094 0.88731 0.97244 0.0
C17 C 0.41602 0.78205 0.95965 0.0
C18 C 0.42797 0.78644 0.89002 0.0
C19 C 0.41054 0.7546 0.91766 0.0
C20 C 0.40842 0.76229 0.95464 0.0
C21 C 0.42033 0.76655 0.88481 0.0
C22 C 0.42585 0.79412 0.92716 0.0
C23 C 0.41346 0.78968 0.99892 0.0
O24 O 0.43015 0.82578 0.09937 0.0
O25 O 0.40462 0.82609 0.07549 0.0
O26 O 0.40338 0.79869 0.99782 0.0
O27 O 0.4289 0.79841 0.02189 0.0
H28 H 0.39367 0.78657 0.10317 0.0
H29 H 0.37366 0.76458 0.15645 0.0
H30 H 0.38803 0.81271 0.23757 0.0
H31 H 0.4076 0.83447 0.18399 0.0
H32 H 0.45654 0.90957 0.06276 0.0
H33 H 0.44038 0.87469 0.05338 0.0
H34 H 0.49103 0.91593 0.95577 0.0
H35 H 0.47503 0.88122 0.94707 0.0
H36 H 0.43575 0.79607 0.86555 0.0
H37 H 0.40421 0.73924 0.91461 0.0
H38 H 0.40074 0.75275 0.97936 0.0
H39 H 0.43187 0.80945 0.93055 0.0
C40 C 0.61361 0.39716 0.47447 0.0
C41 C 0.62501 0.38835 0.46848 0.0
C42 C 0.61737 0.3753 0.53709 0.0
C43 C 0.62686 0.3775 0.49951 0.0
C44 C 0.60599 0.38421 0.54272 0.0
C45 C 0.60415 0.39501 0.51174 0.0
U46 U 0.62387 0.41888 0.36765 0.0
O47 O 0.60414 0.42138 0.32439 0.0
O48 O 0.62911 0.44717 0.34827 0.0
C49 C 0.61328 0.44014 0.32641 0.0
C50 C 0.61131 0.40853 0.44231 0.0
C51 C 0.60121 0.44931 0.33241 0.0
C52 C 0.58524 0.46214 0.37616 0.0
C53 C 0.59607 0.45267 0.37146 0.0
C54 C 0.58431 0.46464 0.30286 0.0
C55 C 0.57936 0.4684 0.34188 0.0
C56 C 0.59513 0.45522 0.29824 0.0
C57 C 0.6574 0.41022 0.29527 0.0
C58 C 0.65944 0.41315 0.22143 0.0
C59 C 0.6847 0.41146 0.25882 0.0
C60 C 0.67499 0.41016 0.29532 0.0
C61 C 0.67698 0.41278 0.22129 0.0
C62 C 0.64976 0.41192 0.25808 0.0
C63 C 0.64718 0.408 0.33423 0.0
O64 O 0.62671 0.42473 0.43375 0.0
O65 O 0.60185 0.39892 0.40969 0.0
O66 O 0.62833 0.39761 0.33309 0.0
O67 O 0.65322 0.42351 0.35697 0.0
H68 H 0.63246 0.38989 0.43985 0.0
H69 H 0.63589 0.37102 0.49422 0.0
H70 H 0.59822 0.38259 0.57091 0.0
H71 H 0.59523 0.40164 0.51684 0.0
H72 H 0.58184 0.46491 0.40666 0.0
H73 H 0.60062 0.44819 0.39826 0.0
H74 H 0.57976 0.4689 0.27576 0.0
H75 H 0.59887 0.45267 0.26784 0.0
H76 H 0.65296 0.41398 0.19316 0.0
H77 H 0.69832 0.4115 0.26008 0.0
H78 H 0.68118 0.40897 0.32371 0.0
H79 H 0.63621 0.41205 0.2573 0.0
C80 C 0.23429 0.64386 0.58674 0.0
C81 C 0.25305 0.64647 0.58397 0.0
C82 C 0.25967 0.66734 0.52567 0.0
C83 C 0.2656 0.65805 0.5536 0.0
C84 C 0.24093 0.66481 0.52898 0.0
C85 C 0.22839 0.65317 0.55915 0.0
U86 U 0.22227 0.61968 0.69113 0.0
O87 O 0.19903 0.61501 0.73393 0.0
O88 O 0.2005 0.59045 0.70734 0.0
C89 C 0.19064 0.59632 0.72999 0.0
C90 C 0.22056 0.63135 0.61764 0.0
C91 C 0.1697 0.58647 0.72304 0.0
C92 C 0.14153 0.58118 0.6842 0.0
C93 C 0.16156 0.59053 0.68937 0.0
C94 C 0.13768 0.56353 0.74599 0.0
C95 C 0.12931 0.56766 0.71267 0.0
C96 C 0.15763 0.57285 0.75108 0.0
C97 C 0.26396 0.62919 0.76433 0.0
C98 C 0.26199 0.62375 0.83744 0.0
C99 C 0.29104 0.63037 0.80071 0.0
C100 C 0.28265 0.63168 0.76447 0.0
C101 C 0.28092 0.62659 0.83781 0.0
C102 C 0.25358 0.62503 0.80101 0.0
C103 C 0.25598 0.63155 0.72575 0.0
O104 O 0.22068 0.61529 0.62467 0.0
O105 O 0.2193 0.63994 0.65105 0.0
O106 O 0.24634 0.64101 0.72798 0.0
O107 O 0.24788 0.61643 0.70164 0.0
H108 H 0.25796 0.63952 0.60516 0.0
H109 H 0.28 0.65986 0.55222 0.0
H110 H 0.2358 0.67154 0.50772 0.0
H111 H 0.21397 0.65133 0.56074 0.0
H112 H 0.1356 0.58483 0.65838 0.0
H113 H 0.17068 0.60101 0.66735 0.0
H114 H 0.1288 0.55298 0.76811 0.0
H115 H 0.16366 0.56945 0.77714 0.0
H116 H 0.25382 0.62094 0.86541 0.0
H117 H 0.30546 0.63224 0.79958 0.0
H118 H 0.29086 0.63481 0.73647 0.0
H119 H 0.23909 0.62301 0.80156 0.0
C120 C 0.61233 0.22733 0.9193 0.0
C121 C 0.6244 0.247 0.92551 0.0
C122 C 0.61652 0.25341 0.85773 0.0
C123 C 0.62647 0.25994 0.895 0.0
C124 C 0.6044 0.23364 0.85193 0.0
C125 C 0.60235 0.22076 0.88239 0.0
U126 U 0.62224 0.21432 0.02535 0.0
O127 O 0.60275 0.19197 0.06711 0.0
O128 O 0.62811 0.19116 0.04274 0.0
C129 C 0.61214 0.18228 0.06386 0.0
C130 C 0.61002 0.2134 0.95065 0.0
C131 C 0.6005 0.16149 0.05614 0.0
C132 C 0.57208 0.1337 0.02902 0.0
C133 C 0.58307 0.15355 0.03447 0.0
C134 C 0.59597 0.12952 0.06608 0.0
C135 C 0.57839 0.12143 0.04484 0.0
C136 C 0.60686 0.14931 0.0717 0.0
C137 C 0.65512 0.25471 0.10007 0.0
C138 C 0.65714 0.25346 0.1739 0.0
C139 C 0.68241 0.27963 0.13691 0.0
C140 C 0.67272 0.27171 0.1003 0.0
C141 C 0.67466 0.27076 0.1743 0.0
C142 C 0.64746 0.2455 0.13711 0.0
C143 C 0.64494 0.24733 0.06093 0.0
O144 O 0.62553 0.21221 0.95915 0.0
O145 O 0.60029 0.21328 0.98327 0.0
O146 O 0.62607 0.23917 0.06195 0.0
O147 O 0.65133 0.23823 0.03731 0.0
H148 H 0.63226 0.25233 0.95384 0.0
H149 H 0.63606 0.27502 0.9004 0.0
H150 H 0.59626 0.2281 0.82399 0.0
H151 H 0.59292 0.20563 0.87712 0.0
H152 H 0.55873 0.12797 1.01212 0.0
H153 H 0.5779 0.16266 0.02193 0.0
H154 H 0.60115 0.12052 0.07911 0.0
H155 H 0.62022 0.15512 0.08861 0.0
H156 H 0.65068 0.24629 0.20207 0.0
H157 H 0.69604 0.29271 0.13583 0.0
H158 H 0.67894 0.27899 0.07205 0.0
H159 H 0.6339 0.23231 0.13767 0.0
C160 C 0.40434 0.61039 0.25175 0.0
C161 C 0.38758 0.61141 0.26109 0.0
C162 C 0.38273 0.61502 0.18909 0.0
C163 C 0.37683 0.6136 0.23002 0.0
C164 C 0.39966 0.61424 0.18005 0.0
C165 C 0.4103 0.6119 0.21104 0.0
U166 U 0.4261 0.61897 0.35922 0.0
O167 O 0.42831 0.59885 0.40105 0.0
O168 O 0.45447 0.62368 0.37901 0.0
C169 C 0.4472 0.60774 0.39967 0.0
C170 C 0.41567 0.60748 0.28363 0.0
C171 C 0.45613 0.59554 0.39265 0.0
C172 C 0.46828 0.5794 0.34757 0.0
C173 C 0.45933 0.59066 0.35319 0.0
C174 C 0.47065 0.57761 0.42072 0.0
C175 C 0.47409 0.57276 0.38131 0.0
C176 C 0.46178 0.58888 0.42628 0.0
C177 C 0.41716 0.65179 0.43338 0.0
C178 C 0.43314 0.66417 0.49857 0.0
C179 C 0.40672 0.66926 0.47869 0.0
C180 C 0.40487 0.6593 0.44216 0.0
C181 C 0.42096 0.67196 0.5073 0.0
C182 C 0.43126 0.65417 0.46189 0.0
C183 C 0.41512 0.6419 0.394 0.0
O184 O 0.43215 0.6225 0.2933 0.0
O185 O 0.40607 0.5976 0.31547 0.0
O186 O 0.40468 0.62319 0.39422 0.0
O187 O 0.43085 0.64797 0.37205 0.0
H188 H 0.38274 0.61042 0.29233 0.0
H189 H 0.36398 0.61436 0.23806 0.0
H190 H 0.4045 0.61505 0.14885 0.0
H191 H 0.42316 0.61113 0.20314 0.0
H192 H 0.4705 0.57578 0.31682 0.0
H193 H 0.45498 0.59559 0.3268 0.0
H194 H 0.47516 0.573 0.44739 0.0
H195 H 0.45948 0.59254 0.45697 0.0
H196 H 0.44435 0.66609 0.51973 0.0
H197 H 0.39684 0.6747 0.48464 0.0
H198 H 0.39385 0.65753 0.4206 0.0
H199 H 0.44089 0.64846 0.45562 0.0
C200 C 0.81527 0.39418 0.5872 0.0
C201 C 0.79732 0.37862 0.59708 0.0
C202 C 0.78919 0.37203 0.52487 0.0
C203 C 0.78443 0.36758 0.56616 0.0
C204 C 0.80715 0.3877 0.51532 0.0
C205 C 0.82004 0.39862 0.54614 0.0
U206 U 0.82851 0.41712 0.69427 0.0
O207 O 0.85209 0.42115 0.73502 0.0
O208 O 0.85074 0.44612 0.71236 0.0
C209 C 0.86067 0.43989 0.73287 0.0
C210 C 0.8293 0.40598 0.61887 0.0
C211 C 0.88159 0.44975 0.72532 0.0
C212 C 0.91006 0.45232 0.69133 0.0
C213 C 0.89003 0.44288 0.69663 0.0
C214 C 0.91331 0.47574 0.74271 0.0
C215 C 0.92198 0.4688 0.71463 0.0
C216 C 0.89337 0.4663 0.748 0.0
C217 C 0.78804 0.4087 0.77039 0.0
C218 C 0.79068 0.41325 0.84408 0.0
C219 C 0.76263 0.41026 0.80905 0.0
C220 C 0.77022 0.40827 0.77187 0.0
C221 C 0.7727 0.41267 0.84569 0.0
C222 C 0.79832 0.41135 0.80675 0.0
C223 C 0.79528 0.40597 0.7307 0.0
O224 O 0.82969 0.42218 0.62825 0.0
O225 O 0.83051 0.39694 0.65087 0.0
O226 O 0.80447 0.39605 0.73078 0.0
O227 O 0.80345 0.42108 0.70747 0.0
H228 H 0.79328 0.375 0.62863 0.0
H229 H 0.77064 0.35573 0.57458 0.0
H230 H 0.81141 0.39137 0.48389 0.0
H231 H 0.83381 0.41054 0.53787 0.0
H232 H 0.91622 0.44649 0.66963 0.0
H233 H 0.88117 0.43013 0.67868 0.0
H234 H 0.92193 0.48857 0.76058 0.0
H235 H 0.88713 0.4719 0.77009 0.0
H236 H 0.7989 0.41529 0.87165 0.0
H237 H 0.74866 0.4095 0.80917 0.0
H238 H 0.76204 0.4062 0.74419 0.0
H239 H 0.81217 0.41185 0.80631 0.0
H240 H 0.45929 0.93834 0.03102 0.0
H241 H 0.47554 0.9733 0.03637 0.0
H242 H 0.52953 0.97577 1.00618 0.0
H243 H 0.51348 0.94095 1.00095 0.0
H244 H 0.50593 0.99876 0.08589 0.0
H245 H 0.5262 1.01137 0.92285 0.0
H246 H 0.50876 0.98826 0.94161 0.0
H247 H 0.53407 0.99642 0.94709 0.0
C248 C 0.47465 0.94632 0.02583 0.0
C249 C 0.48503 0.9368 1.01514 0.0
C250 C 0.4839 0.96631 0.02871 0.0
C251 C 0.50369 0.97719 0.02082 0.0
C252 C 0.51416 0.96772 1.0113 0.0
H253 H 0.59097 0.09591 0.0258 0.0
H254 H 0.57198 0.06109 0.02042 0.0
C255 C 0.50495 0.94778 1.00835 0.0
C256 C 0.51348 0.99843 0.0229 0.0
H257 H 0.54089 0.03846 0.96741 0.0
C258 C 0.51343 1.00745 0.05991 0.0
C259 C 0.52322 1.00978 0.98893 0.0
C260 C 0.52295 1.00099 0.94775 0.0
C261 C 0.5234 0.02748 0.06424 0.0
C262 C 0.53346 0.03879 0.03048 0.0
C263 C 0.53324 0.02978 0.99331 0.0
C264 C 0.54476 0.05999 0.03338 0.0
C265 C 0.52361 0.03636 0.10526 0.0
C266 C 0.53574 0.071 0.04179 0.0
C267 C 0.54658 0.09094 0.04497 0.0
C268 C 0.56668 0.10028 0.03977 0.0
C269 C 0.57558 0.08919 0.03061 0.0
C270 C 0.56473 0.06928 0.02729 0.0
H271 H 0.51886 0.02572 0.13004 0.0
H272 H 0.53823 0.04815 0.11262 0.0
H273 H 0.51369 0.04242 0.10453 0.0
H274 H 0.52031 0.06416 0.04594 0.0
H275 H 0.53927 0.09902 0.05228 0.0
H276 H 0.50194 0.57762 0.32555 0.0
H277 H 0.51889 0.5591 0.31817 0.0
H278 H 0.48615 0.52348 0.41784 0.0
H279 H 0.46878 0.54155 0.42471 0.0
H280 H 0.54153 0.55426 0.37674 0.0
H281 H 0.48035 0.48429 0.32983 0.0
H282 H 0.47921 0.50624 0.32838 0.0
H283 H 0.47628 0.49423 0.37584 0.0
C284 C 0.4981 0.56564 0.34546 0.0
C285 C 0.48394 0.56107 0.37568 0.0
C286 C 0.50791 0.55515 0.34138 0.0
C287 C 0.50365 0.53975 0.36713 0.0
C288 C 0.48947 0.53508 0.39716 0.0
H289 H 0.55025 0.46186 0.39588 0.0
H290 H 0.53238 0.4795 0.40309 0.0
C291 C 0.4797 0.54558 0.40133 0.0
C292 C 0.51458 0.52908 0.36366 0.0
H293 H 0.50961 0.48471 0.34594 0.0
C294 C 0.53457 0.53907 0.3698 0.0
C295 C 0.50548 0.50924 0.35485 0.0
C296 C 0.48418 0.49786 0.34647 0.0
C297 C 0.54565 0.52973 0.36795 0.0
C298 C 0.53657 0.5099 0.35892 0.0
C299 C 0.51657 0.49989 0.35292 0.0
C300 C 0.54761 0.49936 0.3549 0.0
C301 C 0.56693 0.54113 0.37657 0.0
C302 C 0.56201 0.50452 0.32519 0.0
C303 C 0.57233 0.49456 0.32119 0.0
C304 C 0.5684 0.47907 0.34659 0.0
C305 C 0.55386 0.47385 0.37617 0.0
C306 C 0.54353 0.48384 0.38015 0.0
H307 H 0.57062 0.5545 0.39392 0.0
H308 H 0.57197 0.53263 0.39409 0.0
H309 H 0.57488 0.54514 0.34728 0.0
H310 H 0.5652 0.51621 0.30485 0.0
H311 H 0.58353 0.49914 0.29835 0.0
H312 H 0.10251 0.55979 0.77266 0.0
H313 H 0.06754 0.54307 0.76631 0.0
H314 H 0.07249 0.53761 0.63649 0.0
H315 H 0.10762 0.55385 0.64273 0.0
H316 H 0.04417 0.55293 0.72169 0.0
H317 H 0.03512 0.48264 0.66943 0.0
H318 H 0.0573 0.50103 0.69132 0.0
H319 H 0.05119 0.50279 0.63957 0.0
C320 C 0.09621 0.55484 0.74277 0.0
C321 C 0.10795 0.55802 0.70827 0.0
C322 C 0.07618 0.54539 0.73916 0.0
C323 C 0.06734 0.53881 0.70103 0.0
C324 C 0.07896 0.54223 0.66635 0.0
H325 H 0.94351 0.47548 0.64455 0.0
H326 H 0.97867 0.49265 0.6382 0.0
C327 C 0.09906 0.55172 0.66992 0.0
C328 C 0.04598 0.52864 0.698 0.0
H329 H 1.00698 0.48542 0.67483 0.0
C330 C 0.03605 0.53819 0.7113 0.0
C331 C 0.03537 0.50943 0.68418 0.0
C332 C 0.04522 0.49826 0.67058 0.0
C333 C 1.01586 0.52903 0.71167 0.0
C334 C 1.00525 0.50966 0.69906 0.0
C335 C 1.01514 0.50025 0.68458 0.0
C336 C 0.98394 0.49874 0.70271 0.0
C337 C 1.00604 0.54021 0.72552 0.0
C338 C 0.97524 0.49606 0.74115 0.0
C339 C 0.95522 0.48618 0.74492 0.0
C340 C 0.94337 0.47867 0.71032 0.0
C341 C 0.95215 0.48096 0.67187 0.0
C342 C 0.97225 0.49085 0.66815 0.0
H343 H 1.01572 0.55585 0.72303 0.0
H344 H 0.99285 0.53617 0.70738 0.0
H345 H 1.00183 0.53705 0.75797 0.0
H346 H 0.98397 0.50159 0.76836 0.0
H347 H 0.94904 0.4843 0.77511 0.0
H348 H 0.35476 0.79152 0.25386 0.0
H349 H 0.33536 0.7704 0.30842 0.0
H350 H 0.35566 0.73084 0.27645 0.0
H351 H 0.37563 0.75219 0.2225 0.0
H352 H 0.30605 0.73256 0.30292 0.0
H353 H 0.36603 0.73872 0.39927 0.0
H354 H 0.3697 0.75499 0.35844 0.0
H355 H 0.36637 0.73154 0.34727 0.0
C356 C 0.35532 0.77845 0.25869 0.0
C357 C 0.36692 0.77367 0.23392 0.0
C358 C 0.3441 0.76632 0.28976 0.0
C359 C 0.34426 0.74917 0.29698 0.0
C360 C 0.35557 0.74417 0.27197 0.0
H361 H 0.28398 0.66024 0.47763 0.0
H362 H 0.30445 0.67961 0.42184 0.0
C363 C 0.36681 0.7563 0.24081 0.0
C364 C 0.33226 0.73644 0.33018 0.0
H365 H 0.33448 0.71689 0.42051 0.0
C366 C 0.31227 0.72914 0.32864 0.0
C367 C 0.34037 0.7319 0.36365 0.0
C368 C 0.36181 0.7398 0.36763 0.0
C369 C 0.30016 0.7174 0.35951 0.0
C370 C 0.30829 0.71314 0.39337 0.0
C371 C 0.32827 0.72019 0.39463 0.0
C372 C 0.29632 0.70168 0.42807 0.0
C373 C 0.27873 0.70942 0.35519 0.0
C374 C 0.28529 0.70785 0.4508 0.0
C375 C 0.2736 0.69683 0.48268 0.0
C376 C 0.27281 0.67946 0.49286 0.0
C377 C 0.28432 0.67359 0.47081 0.0
C378 C 0.29597 0.6846 0.43878 0.0
H379 H 0.27452 0.70937 0.32296 0.0
H380 H 0.27075 0.69461 0.36677 0.0
H381 H 0.27425 0.71845 0.37317 0.0
H382 H 0.28572 0.72123 0.44388 0.0
H383 H 0.26524 0.70199 0.49955 0.0
H384 H 0.61768 0.34118 0.53022 0.0
H385 H 0.61916 0.32157 0.58515 0.0
H386 H 0.62241 0.36331 0.67386 0.0
H387 H 0.62114 0.38308 0.61926 0.0
H388 H 0.6472 0.33024 0.6469 0.0
H389 H 0.57631 0.31345 0.71271 0.0
H390 H 0.58374 0.32336 0.66258 0.0
H391 H 0.59271 0.33849 0.70709 0.0
C392 C 0.61891 0.34631 0.56137 0.0
C393 C 0.61911 0.36367 0.57025 0.0
C394 C 0.61967 0.33503 0.59276 0.0
C395 C 0.62054 0.3408 0.63366 0.0
C396 C 0.62128 0.35834 0.64259 0.0
H397 H 0.61849 0.28852 0.86604 0.0
H398 H 0.62091 0.31034 0.81205 0.0
C399 C 0.62052 0.36962 0.61129 0.0
C400 C 0.62058 0.32845 0.66702 0.0
H401 H 0.59509 0.30336 0.74986 0.0
C402 C 0.63579 0.32431 0.66936 0.0
C403 C 0.6057 0.32075 0.69637 0.0
C404 C 0.58858 0.32406 0.69452 0.0
C405 C 0.63667 0.31293 0.70061 0.0
C406 C 0.62174 0.30516 0.72987 0.0
C407 C 0.60656 0.30936 0.72755 0.0
C408 C 0.62131 0.29232 0.76267 0.0
C409 C 0.6538 0.30965 0.70248 0.0
C410 C 0.62068 0.27489 0.75295 0.0
C411 C 0.61942 0.26244 0.78374 0.0
C412 C 0.61861 0.26706 0.82504 0.0
C413 C 0.61934 0.28459 0.83467 0.0
C414 C 0.6206 0.29704 0.80381 0.0
H415 H 0.6663 0.32076 0.68564 0.0
H416 H 0.65818 0.30957 0.73449 0.0
H417 H 0.64994 0.29558 0.68825 0.0
H418 H 0.62083 0.27074 0.72144 0.0
H419 H 0.61909 0.24917 0.77515 0.0
H420 H 0.39587 0.63855 0.12324 0.0
H421 H 0.37715 0.64069 0.06673 0.0
H422 H 0.3249 0.59796 0.12234 0.0
H423 H 0.34354 0.59586 0.17917 0.0
H424 H 0.35472 0.61265 1.01301 0.0
H425 H 0.31031 0.63843 0.0952 0.0
H426 H 0.33109 0.63883 0.11798 0.0
H427 H 0.30857 0.61696 0.11545 0.0
C428 C 0.38038 0.62964 0.12352 0.0
C429 C 0.37121 0.61703 0.15576 0.0
C430 C 0.36969 0.63093 0.09126 0.0
C431 C 0.34957 0.61968 0.09044 0.0
C432 C 0.34034 0.60715 0.1227 0.0
H433 H 0.26484 0.60191 0.9018 0.0
H434 H 0.28087 0.60008 0.96382 0.0
C435 C 0.35103 0.60593 0.15516 0.0
C436 C 0.3385 0.62035 0.05467 0.0
H437 H 0.30234 0.6292 0.02579 0.0
C438 C 0.34332 0.61634 1.01586 0.0
C439 C 0.32352 0.62505 0.05834 0.0
C440 C 0.31814 0.63023 0.09892 0.0
C441 C 0.33359 0.61684 0.98074 0.0
C442 C 0.31876 0.6217 0.98434 0.0
C443 C 0.31371 0.62546 0.02313 0.0
C444 C 0.30875 0.62343 0.9479 0.0
C445 C 0.33913 0.61193 0.94002 0.0
C446 C 0.31899 0.63746 0.91887 0.0
C447 C 0.30988 0.63863 0.8836 0.0
C448 C 0.29028 0.6258 0.8765 0.0
C449 C 0.27991 0.61209 0.90629 0.0
C450 C 0.28906 0.61096 0.9417 0.0
H451 H 0.34728 0.60404 0.94347 0.0
H452 H 0.32619 0.60316 0.92104 0.0
H453 H 0.3484 0.62532 0.9235 0.0
H454 H 0.3341 0.64748 0.92344 0.0
H455 H 0.31823 0.64967 0.86191 0.0
H456 H 0.76722 0.33295 0.51891 0.0
H457 H 0.74656 0.31404 0.46198 0.0
H458 H 0.75975 0.36587 0.39918 0.0
H459 H 0.78037 0.38481 0.45571 0.0
H460 H 0.71428 0.31304 0.4255 0.0
H461 H 0.77461 0.33698 0.31584 0.0
H462 H 0.77835 0.34075 0.37012 0.0
H463 H 0.77316 0.35641 0.34045 0.0
C464 C 0.76558 0.34032 0.49313 0.0
C465 C 0.77565 0.36041 0.49166 0.0
C466 C 0.75382 0.32948 0.46057 0.0
C467 C 0.75194 0.33852 0.42591 0.0
C468 C 0.76139 0.35856 0.42509 0.0
H469 H 0.6933 0.30876 0.19534 0.0
H470 H 0.71121 0.32378 0.25766 0.0
C471 C 0.77317 0.36938 0.45747 0.0
C472 C 0.74032 0.32713 0.39031 0.0
H473 H 0.74303 0.32069 0.2878 0.0
C474 C 0.72058 0.31456 0.39545 0.0
C475 C 0.74857 0.32901 0.35115 0.0
C476 C 0.76987 0.34137 0.34402 0.0
C477 C 0.70875 0.30442 0.36214 0.0
C478 C 0.71694 0.30678 0.32282 0.0
C479 C 0.73674 0.319 0.31791 0.0
C480 C 0.70522 0.29725 0.28595 0.0
C481 C 0.68749 0.29176 0.36898 0.0
C482 C 0.69589 0.27729 0.28105 0.0
C483 C 0.68574 0.26862 0.24513 0.0
C484 C 0.6848 0.27975 0.21333 0.0
C485 C 0.69398 0.29973 0.21875 0.0
C486 C 0.70414 0.30836 0.25453 0.0
H487 H 0.68285 0.29444 0.39924 0.0
H488 H 0.67902 0.29395 0.34495 0.0
H489 H 0.6841 0.27658 0.36742 0.0
H490 H 0.69682 0.26845 0.30461 0.0
H491 H 0.67905 0.25323 0.24187 0.0
H492 H 0.41808 0.70452 0.51781 0.0
H493 H 0.4198 0.72156 0.58141 0.0
H494 H 0.4302 0.68146 0.64793 0.0
H495 H 0.4283 0.66416 0.58443 0.0
H496 H 0.39627 0.70694 0.64957 0.0
H497 H 0.47281 0.73327 0.68983 0.0
H498 H 0.46336 0.72441 0.63948 0.0
H499 H 0.45927 0.708 0.67996 0.0
C500 C 0.42069 0.69925 0.54594 0.0
C501 C 0.42298 0.68289 0.54592 0.0
C502 C 0.42177 0.7091 0.58227 0.0
C503 C 0.42534 0.70293 0.6194 0.0
C504 C 0.42783 0.68673 0.61954 0.0
H505 H 0.42817 0.73705 0.87264 0.0
H506 H 0.42949 0.72211 0.808 0.0
C507 C 0.42673 0.67684 0.58318 0.0
C508 C 0.4255 0.71294 0.65807 0.0
H509 H 0.45338 0.73728 0.74011 0.0
C510 C 0.40879 0.71368 0.66926 0.0
C511 C 0.44183 0.72167 0.68379 0.0
C512 C 0.46041 0.72199 0.67261 0.0
C513 C 0.40784 0.72257 0.70579 0.0
C514 C 0.42416 0.73131 0.73153 0.0
C515 C 0.44089 0.7306 0.72033 0.0
C516 C 0.42401 0.74094 0.77055 0.0
C517 C 0.38917 0.72207 0.71701 0.0
C518 C 0.42086 0.75675 0.771 0.0
C519 C 0.41997 0.76526 0.80796 0.0
C520 C 0.42228 0.75818 0.84528 0.0
C521 C 0.42597 0.74267 0.84457 0.0
C522 C 0.42687 0.73418 0.80762 0.0
H523 H 0.37683 0.71083 0.69958 0.0
H524 H 0.38615 0.71948 0.75007 0.0
H525 H 0.39022 0.73606 0.70996 0.0
H526 H 0.41896 0.76244 0.74273 0.0
H527 H 0.41701 0.77711 0.80731 0.0
H528 H 0.75378 0.43286 0.86299 0.0
H529 H 0.73856 0.43412 0.92715 0.0
H530 H 0.75682 0.39699 0.98201 0.0
H531 H 0.77213 0.3957 0.91801 0.0
H532 H 0.70939 0.40482 0.96797 0.0
H533 H 0.77409 0.43959 0.0665 0.0
H534 H 0.77557 0.43895 1.01164 0.0
H535 H 0.77135 0.41845 0.04087 0.0
C536 C 0.75459 0.42498 0.88873 0.0
C537 C 0.76423 0.4142 0.88533 0.0
C538 C 0.74594 0.42577 0.92544 0.0
C539 C 0.74676 0.41588 0.95965 0.0
C540 C 0.75639 0.40514 0.95641 0.0
H541 H 0.69594 0.39295 0.20061 0.0
H542 H 0.71272 0.39424 0.13712 0.0
C543 C 0.76513 0.40439 0.91973 0.0
C544 C 0.73681 0.41612 0.99806 0.0
H545 H 0.74377 0.4264 0.10008 0.0
C546 C 0.71694 0.40968 0.99679 0.0
C547 C 0.74665 0.42245 0.03572 0.0
C548 C 0.76812 0.43043 0.03884 0.0
C549 C 0.70658 0.40898 0.03221 0.0
C550 C 0.71639 0.41512 0.06989 0.0
C551 C 0.73627 0.42166 0.07117 0.0
C552 C 0.70623 0.41458 0.10846 0.0
C553 C 0.68513 0.40119 0.0292 0.0
C554 C 0.69715 0.42575 0.11368 0.0
C555 C 0.68764 0.42517 0.15015 0.0
C556 C 0.68707 0.41345 0.18228 0.0
C557 C 0.69629 0.40236 0.17688 0.0
C558 C 0.70582 0.40299 0.14048 0.0
H559 H 0.67918 0.39305 1.00032 0.0
H560 H 0.67762 0.39172 0.0552 0.0
H561 H 0.68196 0.41324 0.03018 0.0
H562 H 0.69759 0.43508 0.08967 0.0
H563 H 0.681 0.43415 0.1534 0.0
loop_
_geom_bond_atom_site_label_1
_geom_bond_atom_site_label_2
_geom_bond_distance
_geom_bond_site_symmetry_2
_ccdc_geom_bond_type
C0 C1 1.264 . S
C0 C5 1.479 . S
C0 C10 1.465 . S
C1 C0 1.264 . S
C1 C3 1.339 . S
C1 H28 0.931 . S
C2 C3 1.395 . S
C2 C4 1.320 . S
C3 C1 1.339 . S
C3 C2 1.395 . S
C3 H29 0.929 . S
C4 C2 1.320 . S
C4 C5 1.405 . S
C4 H30 0.930 . S
C5 C0 1.479 . S
C5 C4 1.405 . S
C5 H31 0.931 . S
U6 O7 2.454 . S
U6 O8 2.458 1_554 S
U6 C9 2.984 . S
U6 C10 2.847 . S
U6 C23 2.882 1_554 S
U6 O24 2.441 . S
U6 O25 2.420 . S
U6 O26 2.455 1_554 S
U6 O27 2.449 1_554 S
O7 U6 2.454 . S
O7 C9 1.353 . S
O8 U6 2.458 1_556 S
O8 C9 1.286 1_556 S
C9 U6 2.984 . S
C9 O7 1.353 . S
C9 O8 1.286 1_554 S
C9 C11 1.363 . S
C10 C0 1.465 . S
C10 U6 2.847 . S
C10 O24 1.249 . S
C10 O25 1.202 . S
C11 C9 1.363 . S
C11 C13 1.408 . S
C11 C16 1.342 1_554 S
C12 C13 1.310 . S
C12 C15 1.461 . S
C12 H32 0.932 . S
C13 C11 1.408 . S
C13 C12 1.310 . S
C13 H33 0.930 . S
C14 C15 1.474 1_556 S
C14 C16 1.285 . S
C14 H34 0.929 . S
C15 C12 1.461 . S
C15 C14 1.474 1_554 S
C16 C11 1.342 1_556 S
C16 C14 1.285 . S
C16 H35 0.930 . S
C17 C20 1.424 . S
C17 C22 1.245 . S
C17 C23 1.428 . S
C18 C21 1.260 . S
C18 C22 1.477 . S
C18 H36 0.932 . S
C19 C20 1.384 . S
C19 C21 1.479 . S
C19 H37 0.929 . S
C20 C17 1.424 . S
C20 C19 1.384 . S
C20 H38 0.928 . S
C21 C18 1.260 . S
C21 C19 1.479 . S
C22 C17 1.245 . S
C22 C18 1.477 . S
C22 H39 0.932 . S
C23 U6 2.882 1_556 S
C23 C17 1.428 . S
C23 O26 1.301 . S
C23 O27 1.282 . S
O24 U6 2.441 . S
O24 C10 1.249 . S
O25 U6 2.420 . S
O25 C10 1.202 . S
O26 U6 2.455 1_556 S
O26 C23 1.301 . S
O27 U6 2.449 1_556 S
O27 C23 1.282 . S
H28 C1 0.931 . S
H29 C3 0.929 . S
H30 C4 0.930 . S
H31 C5 0.931 . S
H32 C12 0.932 . S
H33 C13 0.930 . S
H34 C14 0.929 . S
H35 C16 0.930 . S
H36 C18 0.932 . S
H37 C19 0.929 . S
H38 C20 0.928 . S
H39 C22 0.932 . S
C40 C41 1.264 . S
C40 C45 1.479 . S
C40 C50 1.465 . S
C41 C40 1.264 . S
C41 C43 1.339 . S
C41 H68 0.931 . S
C42 C43 1.395 . S
C42 C44 1.320 . S
C43 C41 1.339 . S
C43 C42 1.395 . S
C43 H69 0.929 . S
C44 C42 1.320 . S
C44 C45 1.405 . S
C44 H70 0.930 . S
C45 C40 1.479 . S
C45 C44 1.405 . S
C45 H71 0.931 . S
U46 O47 2.454 . S
U46 O48 2.458 . S
U46 C49 2.984 . S
U46 C50 2.847 . S
U46 C63 2.882 . S
U46 O64 2.441 . S
U46 O65 2.420 . S
U46 O66 2.455 . S
U46 O67 2.449 . S
O47 U46 2.454 . S
O47 C49 1.353 . S
O48 U46 2.458 . S
O48 C49 1.286 . S
C49 U46 2.984 . S
C49 O47 1.353 . S
C49 O48 1.286 . S
C49 C51 1.363 . S
C50 C40 1.465 . S
C50 U46 2.847 . S
C50 O64 1.249 . S
C50 O65 1.202 . S
C51 C49 1.363 . S
C51 C53 1.408 . S
C51 C56 1.342 . S
C52 C53 1.310 . S
C52 C55 1.461 . S
C52 H72 0.932 . S
C53 C51 1.408 . S
C53 C52 1.310 . S
C53 H73 0.930 . S
C54 C55 1.474 . S
C54 C56 1.285 . S
C54 H74 0.929 . S
C55 C52 1.461 . S
C55 C54 1.474 . S
C56 C51 1.342 . S
C56 C54 1.285 . S
C56 H75 0.930 . S
C57 C60 1.424 . S
C57 C62 1.245 . S
C57 C63 1.428 . S
C58 C61 1.260 . S
C58 C62 1.477 . S
C58 H76 0.932 . S
C59 C60 1.384 . S
C59 C61 1.479 . S
C59 H77 0.929 . S
C60 C57 1.424 . S
C60 C59 1.384 . S
C60 H78 0.928 . S
C61 C58 1.260 . S
C61 C59 1.479 . S
C62 C57 1.245 . S
C62 C58 1.477 . S
C62 H79 0.932 . S
C63 U46 2.882 . S
C63 C57 1.428 . S
C63 O66 1.301 . S
C63 O67 1.282 . S
O64 U46 2.441 . S
O64 C50 1.249 . S
O65 U46 2.420 . S
O65 C50 1.202 . S
O66 U46 2.455 . S
O66 C63 1.301 . S
O67 U46 2.449 . S
O67 C63 1.282 . S
H68 C41 0.931 . S
H69 C43 0.929 . S
H70 C44 0.930 . S
H71 C45 0.931 . S
H72 C52 0.932 . S
H73 C53 0.930 . S
H74 C54 0.929 . S
H75 C56 0.930 . S
H76 C58 0.932 . S
H77 C59 0.929 . S
H78 C60 0.928 . S
H79 C62 0.932 . S
C80 C81 1.264 . S
C80 C85 1.479 . S
C80 C90 1.465 . S
C81 C80 1.264 . S
C81 C83 1.339 . S
C81 H108 0.931 . S
C82 C83 1.395 . S
C82 C84 1.320 . S
C83 C81 1.339 . S
C83 C82 1.395 . S
C83 H109 0.929 . S
C84 C82 1.320 . S
C84 C85 1.405 . S
C84 H110 0.930 . S
C85 C80 1.479 . S
C85 C84 1.405 . S
C85 H111 0.931 . S
U86 O87 2.454 . S
U86 O88 2.458 . S
U86 C89 2.984 . S
U86 C90 2.847 . S
U86 C103 2.882 . S
U86 O104 2.441 . S
U86 O105 2.420 . S
U86 O106 2.455 . S
U86 O107 2.449 . S
O87 U86 2.454 . S
O87 C89 1.353 . S
O88 U86 2.458 . S
O88 C89 1.286 . S
C89 U86 2.984 . S
C89 O87 1.353 . S
C89 O88 1.286 . S
C89 C91 1.363 . S
C90 C80 1.465 . S
C90 U86 2.847 . S
C90 O104 1.249 . S
C90 O105 1.202 . S
C91 C89 1.363 . S
C91 C93 1.408 . S
C91 C96 1.342 . S
C92 C93 1.310 . S
C92 C95 1.461 . S
C92 H112 0.932 . S
C93 C91 1.408 . S
C93 C92 1.310 . S
C93 H113 0.930 . S
C94 C95 1.474 . S
C94 C96 1.285 . S
C94 H114 0.929 . S
C95 C92 1.461 . S
C95 C94 1.474 . S
C96 C91 1.342 . S
C96 C94 1.285 . S
C96 H115 0.930 . S
C97 C100 1.424 . S
C97 C102 1.245 . S
C97 C103 1.428 . S
C98 C101 1.260 . S
C98 C102 1.477 . S
C98 H116 0.932 . S
C99 C100 1.384 . S
C99 C101 1.479 . S
C99 H117 0.929 . S
C100 C97 1.424 . S
C100 C99 1.384 . S
C100 H118 0.928 . S
C101 C98 1.260 . S
C101 C99 1.479 . S
C102 C97 1.245 . S
C102 C98 1.477 . S
C102 H119 0.932 . S
C103 U86 2.882 . S
C103 C97 1.428 . S
C103 O106 1.301 . S
C103 O107 1.282 . S
O104 U86 2.441 . S
O104 C90 1.249 . S
O105 U86 2.420 . S
O105 C90 1.202 . S
O106 U86 2.455 . S
O106 C103 1.301 . S
O107 U86 2.449 . S
O107 C103 1.282 . S
H108 C81 0.931 . S
H109 C83 0.929 . S
H110 C84 0.930 . S
H111 C85 0.931 . S
H112 C92 0.932 . S
H113 C93 0.930 . S
H114 C94 0.929 . S
H115 C96 0.930 . S
H116 C98 0.932 . S
H117 C99 0.929 . S
H118 C100 0.928 . S
H119 C102 0.932 . S
C120 C121 1.264 . S
C120 C125 1.479 . S
C120 C130 1.465 . S
C121 C120 1.264 . S
C121 C123 1.339 . S
C121 H148 0.931 . S
C122 C123 1.395 . S
C122 C124 1.320 . S
C123 C121 1.339 . S
C123 C122 1.395 . S
C123 H149 0.929 . S
C124 C122 1.320 . S
C124 C125 1.405 . S
C124 H150 0.930 . S
C125 C120 1.479 . S
C125 C124 1.405 . S
C125 H151 0.931 . S
U126 O127 2.454 1_554 S
U126 O128 2.458 . S
U126 C129 2.984 . S
U126 C130 2.847 1_554 S
U126 C143 2.882 . S
U126 O144 2.441 1_554 S
U126 O145 2.420 1_554 S
U126 O146 2.455 . S
U126 O147 2.449 . S
O127 U126 2.454 1_556 S
O127 C129 1.353 1_556 S
O128 U126 2.458 . S
O128 C129 1.286 . S
C129 U126 2.984 . S
C129 O127 1.353 1_554 S
C129 O128 1.286 . S
C129 C131 1.363 . S
C130 C120 1.465 . S
C130 U126 2.847 1_556 S
C130 O144 1.249 . S
C130 O145 1.202 . S
C131 C129 1.363 . S
C131 C133 1.408 1_554 S
C131 C136 1.342 . S
C132 C133 1.310 . S
C132 C135 1.461 1_556 S
C132 H152 0.932 . S
C133 C131 1.408 1_556 S
C133 C132 1.310 . S
C133 H153 0.930 . S
C134 C135 1.474 . S
C134 C136 1.285 . S
C134 H154 0.929 . S
C135 C132 1.461 1_554 S
C135 C134 1.474 . S
C136 C131 1.342 . S
C136 C134 1.285 . S
C136 H155 0.930 . S
C137 C140 1.424 . S
C137 C142 1.245 . S
C137 C143 1.428 . S
C138 C141 1.260 . S
C138 C142 1.477 . S
C138 H156 0.932 . S
C139 C140 1.384 . S
C139 C141 1.479 . S
C139 H157 0.929 . S
C140 C137 1.424 . S
C140 C139 1.384 . S
C140 H158 0.928 . S
C141 C138 1.260 . S
C141 C139 1.479 . S
C142 C137 1.245 . S
C142 C138 1.477 . S
C142 H159 0.932 . S
C143 U126 2.882 . S
C143 C137 1.428 . S
C143 O146 1.301 . S
C143 O147 1.282 . S
O144 U126 2.441 1_556 S
O144 C130 1.249 . S
O145 U126 2.420 1_556 S
O145 C130 1.202 . S
O146 U126 2.455 . S
O146 C143 1.301 . S
O147 U126 2.449 . S
O147 C143 1.282 . S
H148 C121 0.931 . S
H149 C123 0.929 . S
H150 C124 0.930 . S
H151 C125 0.931 . S
H152 C132 0.932 . S
H153 C133 0.930 . S
H154 C134 0.929 . S
H155 C136 0.930 . S
H156 C138 0.932 . S
H157 C139 0.929 . S
H158 C140 0.928 . S
H159 C142 0.932 . S
C160 C161 1.264 . S
C160 C165 1.479 . S
C160 C170 1.465 . S
C161 C160 1.264 . S
C161 C163 1.339 . S
C161 H188 0.931 . S
C162 C163 1.395 . S
C162 C164 1.320 . S
C163 C161 1.339 . S
C163 C162 1.395 . S
C163 H189 0.929 . S
C164 C162 1.320 . S
C164 C165 1.405 . S
C164 H190 0.930 . S
C165 C160 1.479 . S
C165 C164 1.405 . S
C165 H191 0.931 . S
U166 O167 2.454 . S
U166 O168 2.458 . S
U166 C169 2.984 . S
U166 C170 2.847 . S
U166 C183 2.882 . S
U166 O184 2.441 . S
U166 O185 2.420 . S
U166 O186 2.455 . S
U166 O187 2.449 . S
O167 U166 2.454 . S
O167 C169 1.353 . S
O168 U166 2.458 . S
O168 C169 1.286 . S
C169 U166 2.984 . S
C169 O167 1.353 . S
C169 O168 1.286 . S
C169 C171 1.363 . S
C170 C160 1.465 . S
C170 U166 2.847 . S
C170 O184 1.249 . S
C170 O185 1.202 . S
C171 C169 1.363 . S
C171 C173 1.408 . S
C171 C176 1.342 . S
C172 C173 1.310 . S
C172 C175 1.461 . S
C172 H192 0.932 . S
C173 C171 1.408 . S
C173 C172 1.310 . S
C173 H193 0.930 . S
C174 C175 1.474 . S
C174 C176 1.285 . S
C174 H194 0.929 . S
C175 C172 1.461 . S
C175 C174 1.474 . S
C176 C171 1.342 . S
C176 C174 1.285 . S
C176 H195 0.930 . S
C177 C180 1.424 . S
C177 C182 1.245 . S
C177 C183 1.428 . S
C178 C181 1.260 . S
C178 C182 1.477 . S
C178 H196 0.932 . S
C179 C180 1.384 . S
C179 C181 1.479 . S
C179 H197 0.929 . S
C180 C177 1.424 . S
C180 C179 1.384 . S
C180 H198 0.928 . S
C181 C178 1.260 . S
C181 C179 1.479 . S
C182 C177 1.245 . S
C182 C178 1.477 . S
C182 H199 0.932 . S
C183 U166 2.882 . S
C183 C177 1.428 . S
C183 O186 1.301 . S
C183 O187 1.282 . S
O184 U166 2.441 . S
O184 C170 1.249 . S
O185 U166 2.420 . S
O185 C170 1.202 . S
O186 U166 2.455 . S
O186 C183 1.301 . S
O187 U166 2.449 . S
O187 C183 1.282 . S
H188 C161 0.931 . S
H189 C163 0.929 . S
H190 C164 0.930 . S
H191 C165 0.931 . S
H192 C172 0.932 . S
H193 C173 0.930 . S
H194 C174 0.929 . S
H195 C176 0.930 . S
H196 C178 0.932 . S
H197 C179 0.929 . S
H198 C180 0.928 . S
H199 C182 0.932 . S
C200 C201 1.264 . S
C200 C205 1.479 . S
C200 C210 1.465 . S
C201 C200 1.264 . S
C201 C203 1.339 . S
C201 H228 0.931 . S
C202 C203 1.395 . S
C202 C204 1.320 . S
C203 C201 1.339 . S
C203 C202 1.395 . S
C203 H229 0.929 . S
C204 C202 1.320 . S
C204 C205 1.405 . S
C204 H230 0.930 . S
C205 C200 1.479 . S
C205 C204 1.405 . S
C205 H231 0.931 . S
U206 O207 2.454 . S
U206 O208 2.458 . S
U206 C209 2.984 . S
U206 C210 2.847 . S
U206 C223 2.882 . S
U206 O224 2.441 . S
U206 O225 2.420 . S
U206 O226 2.455 . S
U206 O227 2.449 . S
O207 U206 2.454 . S
O207 C209 1.353 . S
O208 U206 2.458 . S
O208 C209 1.286 . S
C209 U206 2.984 . S
C209 O207 1.353 . S
C209 O208 1.286 . S
C209 C211 1.363 . S
C210 C200 1.465 . S
C210 U206 2.847 . S
C210 O224 1.249 . S
C210 O225 1.202 . S
C211 C209 1.363 . S
C211 C213 1.408 . S
C211 C216 1.342 . S
C212 C213 1.310 . S
C212 C215 1.461 . S
C212 H232 0.932 . S
C213 C211 1.408 . S
C213 C212 1.310 . S
C213 H233 0.930 . S
C214 C215 1.474 . S
C214 C216 1.285 . S
C214 H234 0.929 . S
C215 C212 1.461 . S
C215 C214 1.474 . S
C216 C211 1.342 . S
C216 C214 1.285 . S
C216 H235 0.930 . S
C217 C220 1.424 . S
C217 C222 1.245 . S
C217 C223 1.428 . S
C218 C221 1.260 . S
C218 C222 1.477 . S
C218 H236 0.932 . S
C219 C220 1.384 . S
C219 C221 1.479 . S
C219 H237 0.929 . S
C220 C217 1.424 . S
C220 C219 1.384 . S
C220 H238 0.928 . S
C221 C218 1.260 . S
C221 C219 1.479 . S
C222 C217 1.245 . S
C222 C218 1.477 . S
C222 H239 0.932 . S
C223 U206 2.882 . S
C223 C217 1.428 . S
C223 O226 1.301 . S
C223 O227 1.282 . S
O224 U206 2.441 . S
O224 C210 1.249 . S
O225 U206 2.420 . S
O225 C210 1.202 . S
O226 U206 2.455 . S
O226 C223 1.301 . S
O227 U206 2.449 . S
O227 C223 1.282 . S
H228 C201 0.931 . S
H229 C203 0.929 . S
H230 C204 0.930 . S
H231 C205 0.931 . S
H232 C212 0.932 . S
H233 C213 0.930 . S
H234 C214 0.929 . S
H235 C216 0.930 . S
H236 C218 0.932 . S
H237 C219 0.929 . S
H238 C220 0.928 . S
H239 C222 0.932 . S
H240 C248 0.929 . S
H241 C250 0.930 . S
H242 C252 0.930 . S
H243 C255 0.929 . S
H244 C258 0.930 . S
H245 C260 0.960 . S
H246 C260 0.960 . S
H247 C260 0.960 . S
C248 H240 0.929 . S
C248 C249 1.377 . S
C248 C250 1.384 . S
C249 C248 1.377 . S
C249 C255 1.390 1_554 S
C250 H241 0.930 . S
C250 C248 1.384 . S
C250 C251 1.372 . S
C251 C250 1.372 . S
C251 C252 1.400 1_554 S
C251 C256 1.490 . S
C252 H242 0.930 . S
C252 C251 1.400 1_556 S
C252 C255 1.386 . S
H253 C269 0.930 1_556 S
H254 C270 0.932 . S
C255 H243 0.929 . S
C255 C249 1.390 1_556 S
C255 C252 1.386 . S
C256 C251 1.490 . S
C256 C258 1.395 . S
C256 C259 1.403 1_554 S
H257 C263 0.930 . S
C258 H244 0.930 . S
C258 C256 1.395 . S
C258 C261 1.403 1_565 S
C259 C256 1.403 1_556 S
C259 C260 1.524 . S
C259 C263 1.400 1_565 S
C260 H245 0.960 . S
C260 H246 0.960 . S
C260 H247 0.960 . S
C260 C259 1.524 . S
C261 C258 1.403 1_545 S
C261 C262 1.392 . S
C261 C265 1.495 . S
C262 C261 1.392 . S
C262 C263 1.385 1_554 S
C262 C264 1.478 . S
C263 H257 0.930 . S
C263 C259 1.400 1_545 S
C263 C262 1.385 1_556 S
C264 C262 1.478 . S
C264 C266 1.381 . S
C264 C270 1.383 . S
C265 C261 1.495 . S
C265 H271 0.959 . S
C265 H272 0.961 . S
C265 H273 0.960 . S
C266 C264 1.381 . S
C266 C267 1.394 . S
C266 H274 0.930 . S
C267 C266 1.394 . S
C267 C268 1.383 . S
C267 H275 0.929 . S
C268 C267 1.383 . S
C268 C269 1.377 . S
C269 H253 0.930 1_554 S
C269 C268 1.377 . S
C269 C270 1.379 . S
C270 H254 0.932 . S
C270 C264 1.383 . S
C270 C269 1.379 . S
H271 C265 0.959 . S
H272 C265 0.961 . S
H273 C265 0.960 . S
H274 C266 0.930 . S
H275 C267 0.929 . S
H276 C284 0.929 . S
H277 C286 0.930 . S
H278 C288 0.930 . S
H279 C291 0.929 . S
H280 C294 0.930 . S
H281 C296 0.960 . S
H282 C296 0.960 . S
H283 C296 0.960 . S
C284 H276 0.929 . S
C284 C285 1.377 . S
C284 C286 1.384 . S
C285 C284 1.377 . S
C285 C291 1.390 . S
C286 H277 0.930 . S
C286 C284 1.384 . S
C286 C287 1.372 . S
C287 C286 1.372 . S
C287 C288 1.400 . S
C287 C292 1.490 . S
C288 H278 0.930 . S
C288 C287 1.400 . S
C288 C291 1.386 . S
H289 C305 0.930 . S
H290 C306 0.931 . S
C291 H279 0.929 . S
C291 C285 1.390 . S
C291 C288 1.386 . S
C292 C287 1.490 . S
C292 C294 1.395 . S
C292 C295 1.403 . S
H293 C299 0.930 . S
C294 H280 0.930 . S
C294 C292 1.395 . S
C294 C297 1.403 . S
C295 C292 1.403 . S
C295 C296 1.524 . S
C295 C299 1.400 . S
C296 H281 0.960 . S
C296 H282 0.960 . S
C296 H283 0.960 . S
C296 C295 1.524 . S
C297 C294 1.403 . S
C297 C298 1.392 . S
C297 C301 1.495 . S
C298 C297 1.392 . S
C298 C299 1.385 . S
C298 C300 1.478 . S
C299 H293 0.930 . S
C299 C295 1.400 . S
C299 C298 1.385 . S
C300 C298 1.478 . S
C300 C302 1.381 . S
C300 C306 1.383 . S
C301 C297 1.495 . S
C301 H307 0.959 . S
C301 H308 0.961 . S
C301 H309 0.960 . S
C302 C300 1.381 . S
C302 C303 1.394 . S
C302 H310 0.930 . S
C303 C302 1.394 . S
C303 C304 1.383 . S
C303 H311 0.929 . S
C304 C303 1.383 . S
C304 C305 1.377 . S
C305 H289 0.930 . S
C305 C304 1.377 . S
C305 C306 1.379 . S
C306 H290 0.931 . S
C306 C300 1.383 . S
C306 C305 1.379 . S
H307 C301 0.959 . S
H308 C301 0.961 . S
H309 C301 0.960 . S
H310 C302 0.930 . S
H311 C303 0.929 . S
H312 C320 0.929 . S
H313 C322 0.930 . S
H314 C324 0.930 . S
H315 C327 0.929 . S
H316 C330 0.930 . S
H317 C332 0.960 . S
H318 C332 0.960 . S
H319 C332 0.960 . S
C320 H312 0.929 . S
C320 C321 1.377 . S
C320 C322 1.384 . S
C321 C320 1.377 . S
C321 C327 1.390 . S
C322 H313 0.930 . S
C322 C320 1.384 . S
C322 C323 1.372 . S
C323 C322 1.372 . S
C323 C324 1.400 . S
C323 C328 1.490 . S
C324 H314 0.930 . S
C324 C323 1.400 . S
C324 C327 1.386 . S
H325 C341 0.930 . S
H326 C342 0.931 . S
C327 H315 0.929 . S
C327 C321 1.390 . S
C327 C324 1.386 . S
C328 C323 1.490 . S
C328 C330 1.395 . S
C328 C331 1.403 . S
H329 C335 0.930 . S
C330 H316 0.930 . S
C330 C328 1.395 . S
C330 C333 1.403 1_455 S
C331 C328 1.403 . S
C331 C332 1.524 . S
C331 C335 1.400 1_455 S
C332 H317 0.960 . S
C332 H318 0.960 . S
C332 H319 0.960 . S
C332 C331 1.524 . S
C333 C330 1.403 1_655 S
C333 C334 1.392 . S
C333 C337 1.495 . S
C334 C333 1.392 . S
C334 C335 1.385 . S
C334 C336 1.478 . S
C335 H329 0.930 . S
C335 C331 1.400 1_655 S
C335 C334 1.385 . S
C336 C334 1.478 . S
C336 C338 1.381 . S
C336 C342 1.383 . S
C337 C333 1.495 . S
C337 H343 0.959 . S
C337 H344 0.961 . S
C337 H345 0.960 . S
C338 C336 1.381 . S
C338 C339 1.394 . S
C338 H346 0.930 . S
C339 C338 1.394 . S
C339 C340 1.383 . S
C339 H347 0.929 . S
C340 C339 1.383 . S
C340 C341 1.377 . S
C341 H325 0.930 . S
C341 C340 1.377 . S
C341 C342 1.379 . S
C342 H326 0.931 . S
C342 C336 1.383 . S
C342 C341 1.379 . S
H343 C337 0.959 . S
H344 C337 0.961 . S
H345 C337 0.960 . S
H346 C338 0.930 . S
H347 C339 0.929 . S
H348 C356 0.929 . S
H349 C358 0.930 . S
H350 C360 0.930 . S
H351 C363 0.929 . S
H352 C366 0.930 . S
H353 C368 0.960 . S
H354 C368 0.960 . S
H355 C368 0.960 . S
C356 H348 0.929 . S
C356 C357 1.377 . S
C356 C358 1.384 . S
C357 C356 1.377 . S
C357 C363 1.390 . S
C358 H349 0.930 . S
C358 C356 1.384 . S
C358 C359 1.372 . S
C359 C358 1.372 . S
C359 C360 1.400 . S
C359 C364 1.490 . S
C360 H350 0.930 . S
C360 C359 1.400 . S
C360 C363 1.386 . S
H361 C377 0.930 . S
H362 C378 0.931 . S
C363 H351 0.929 . S
C363 C357 1.390 . S
C363 C360 1.386 . S
C364 C359 1.490 . S
C364 C366 1.395 . S
C364 C367 1.403 . S
H365 C371 0.930 . S
C366 H352 0.930 . S
C366 C364 1.395 . S
C366 C369 1.403 . S
C367 C364 1.403 . S
C367 C368 1.524 . S
C367 C371 1.400 . S
C368 H353 0.960 . S
C368 H354 0.960 . S
C368 H355 0.960 . S
C368 C367 1.524 . S
C369 C366 1.403 . S
C369 C370 1.392 . S
C369 C373 1.495 . S
C370 C369 1.392 . S
C370 C371 1.385 . S
C370 C372 1.478 . S
C371 H365 0.930 . S
C371 C367 1.400 . S
C371 C370 1.385 . S
C372 C370 1.478 . S
C372 C374 1.381 . S
C372 C378 1.383 . S
C373 C369 1.495 . S
C373 H379 0.959 . S
C373 H380 0.961 . S
C373 H381 0.960 . S
C374 C372 1.381 . S
C374 C375 1.394 . S
C374 H382 0.930 . S
C375 C374 1.394 . S
C375 C376 1.383 . S
C375 H383 0.929 . S
C376 C375 1.383 . S
C376 C377 1.377 . S
C377 H361 0.930 . S
C377 C376 1.377 . S
C377 C378 1.379 . S
C378 H362 0.931 . S
C378 C372 1.383 . S
C378 C377 1.379 . S
H379 C373 0.959 . S
H380 C373 0.961 . S
H381 C373 0.960 . S
H382 C374 0.930 . S
H383 C375 0.929 . S
H384 C392 0.929 . S
H385 C394 0.930 . S
H386 C396 0.930 . S
H387 C399 0.929 . S
H388 C402 0.930 . S
H389 C404 0.960 . S
H390 C404 0.960 . S
H391 C404 0.960 . S
C392 H384 0.929 . S
C392 C393 1.377 . S
C392 C394 1.384 . S
C393 C392 1.377 . S
C393 C399 1.390 . S
C394 H385 0.930 . S
C394 C392 1.384 . S
C394 C395 1.372 . S
C395 C394 1.372 . S
C395 C396 1.400 . S
C395 C400 1.490 . S
C396 H386 0.930 . S
C396 C395 1.400 . S
C396 C399 1.386 . S
H397 C413 0.930 . S
H398 C414 0.931 . S
C399 H387 0.929 . S
C399 C393 1.390 . S
C399 C396 1.386 . S
C400 C395 1.490 . S
C400 C402 1.395 . S
C400 C403 1.403 . S
H401 C407 0.930 . S
C402 H388 0.930 . S
C402 C400 1.395 . S
C402 C405 1.403 . S
C403 C400 1.403 . S
C403 C404 1.524 . S
C403 C407 1.400 . S
C404 H389 0.960 . S
C404 H390 0.960 . S
C404 H391 0.960 . S
C404 C403 1.524 . S
C405 C402 1.403 . S
C405 C406 1.392 . S
C405 C409 1.495 . S
C406 C405 1.392 . S
C406 C407 1.385 . S
C406 C408 1.478 . S
C407 H401 0.930 . S
C407 C403 1.400 . S
C407 C406 1.385 . S
C408 C406 1.478 . S
C408 C410 1.381 . S
C408 C414 1.383 . S
C409 C405 1.495 . S
C409 H415 0.959 . S
C409 H416 0.961 . S
C409 H417 0.960 . S
C410 C408 1.381 . S
C410 C411 1.394 . S
C410 H418 0.930 . S
C411 C410 1.394 . S
C411 C412 1.383 . S
C411 H419 0.929 . S
C412 C411 1.383 . S
C412 C413 1.377 . S
C413 H397 0.930 . S
C413 C412 1.377 . S
C413 C414 1.379 . S
C414 H398 0.931 . S
C414 C408 1.383 . S
C414 C413 1.379 . S
H415 C409 0.959 . S
H416 C409 0.961 . S
H417 C409 0.960 . S
H418 C410 0.930 . S
H419 C411 0.929 . S
H420 C428 0.929 . S
H421 C430 0.930 . S
H422 C432 0.930 . S
H423 C435 0.929 . S
H424 C438 0.930 . S
H425 C440 0.960 . S
H426 C440 0.960 . S
H427 C440 0.960 . S
C428 H420 0.929 . S
C428 C429 1.377 . S
C428 C430 1.384 . S
C429 C428 1.377 . S
C429 C435 1.390 . S
C430 H421 0.930 . S
C430 C428 1.384 . S
C430 C431 1.372 . S
C431 C430 1.372 . S
C431 C432 1.400 . S
C431 C436 1.490 . S
C432 H422 0.930 . S
C432 C431 1.400 . S
C432 C435 1.386 . S
H433 C449 0.930 . S
H434 C450 0.931 . S
C435 H423 0.929 . S
C435 C429 1.390 . S
C435 C432 1.386 . S
C436 C431 1.490 . S
C436 C438 1.395 1_554 S
C436 C439 1.403 . S
H437 C443 0.930 . S
C438 H424 0.930 . S
C438 C436 1.395 1_556 S
C438 C441 1.403 . S
C439 C436 1.403 . S
C439 C440 1.524 . S
C439 C443 1.400 . S
C440 H425 0.960 . S
C440 H426 0.960 . S
C440 H427 0.960 . S
C440 C439 1.524 . S
C441 C438 1.403 . S
C441 C442 1.392 . S
C441 C445 1.495 . S
C442 C441 1.392 . S
C442 C443 1.385 1_556 S
C442 C444 1.478 . S
C443 H437 0.930 . S
C443 C439 1.400 . S
C443 C442 1.385 1_554 S
C444 C442 1.478 . S
C444 C446 1.381 . S
C444 C450 1.383 . S
C445 C441 1.495 . S
C445 H451 0.959 . S
C445 H452 0.961 . S
C445 H453 0.960 . S
C446 C444 1.381 . S
C446 C447 1.394 . S
C446 H454 0.930 . S
C447 C446 1.394 . S
C447 C448 1.383 . S
C447 H455 0.929 . S
C448 C447 1.383 . S
C448 C449 1.377 . S
C449 H433 0.930 . S
C449 C448 1.377 . S
C449 C450 1.379 . S
C450 H434 0.931 . S
C450 C444 1.383 . S
C450 C449 1.379 . S
H451 C445 0.959 . S
H452 C445 0.961 . S
H453 C445 0.960 . S
H454 C446 0.930 . S
H455 C447 0.929 . S
H456 C464 0.929 . S
H457 C466 0.930 . S
H458 C468 0.930 . S
H459 C471 0.929 . S
H460 C474 0.930 . S
H461 C476 0.960 . S
H462 C476 0.960 . S
H463 C476 0.960 . S
C464 H456 0.929 . S
C464 C465 1.377 . S
C464 C466 1.384 . S
C465 C464 1.377 . S
C465 C471 1.390 . S
C466 H457 0.930 . S
C466 C464 1.384 . S
C466 C467 1.372 . S
C467 C466 1.372 . S
C467 C468 1.400 . S
C467 C472 1.490 . S
C468 H458 0.930 . S
C468 C467 1.400 . S
C468 C471 1.386 . S
H469 C485 0.930 . S
H470 C486 0.931 . S
C471 H459 0.929 . S
C471 C465 1.390 . S
C471 C468 1.386 . S
C472 C467 1.490 . S
C472 C474 1.395 . S
C472 C475 1.403 . S
H473 C479 0.930 . S
C474 H460 0.930 . S
C474 C472 1.395 . S
C474 C477 1.403 . S
C475 C472 1.403 . S
C475 C476 1.524 . S
C475 C479 1.400 . S
C476 H461 0.960 . S
C476 H462 0.960 . S
C476 H463 0.960 . S
C476 C475 1.524 . S
C477 C474 1.403 . S
C477 C478 1.392 . S
C477 C481 1.495 . S
C478 C477 1.392 . S
C478 C479 1.385 . S
C478 C480 1.478 . S
C479 H473 0.930 . S
C479 C475 1.400 . S
C479 C478 1.385 . S
C480 C478 1.478 . S
C480 C482 1.381 . S
C480 C486 1.383 . S
C481 C477 1.495 . S
C481 H487 0.959 . S
C481 H488 0.961 . S
C481 H489 0.960 . S
C482 C480 1.381 . S
C482 C483 1.394 . S
C482 H490 0.930 . S
C483 C482 1.394 . S
C483 C484 1.383 . S
C483 H491 0.929 . S
C484 C483 1.383 . S
C484 C485 1.377 . S
C485 H469 0.930 . S
C485 C484 1.377 . S
C485 C486 1.379 . S
C486 H470 0.931 . S
C486 C480 1.383 . S
C486 C485 1.379 . S
H487 C481 0.959 . S
H488 C481 0.961 . S
H489 C481 0.960 . S
H490 C482 0.930 . S
H491 C483 0.929 . S
H492 C500 0.929 . S
H493 C502 0.930 . S
H494 C504 0.930 . S
H495 C507 0.929 . S
H496 C510 0.930 . S
H497 C512 0.960 . S
H498 C512 0.960 . S
H499 C512 0.960 . S
C500 H492 0.929 . S
C500 C501 1.377 . S
C500 C502 1.384 . S
C501 C500 1.377 . S
C501 C507 1.390 . S
C502 H493 0.930 . S
C502 C500 1.384 . S
C502 C503 1.372 . S
C503 C502 1.372 . S
C503 C504 1.400 . S
C503 C508 1.490 . S
C504 H494 0.930 . S
C504 C503 1.400 . S
C504 C507 1.386 . S
H505 C521 0.930 . S
H506 C522 0.931 . S
C507 H495 0.929 . S
C507 C501 1.390 . S
C507 C504 1.386 . S
C508 C503 1.490 . S
C508 C510 1.395 . S
C508 C511 1.403 . S
H509 C515 0.930 . S
C510 H496 0.930 . S
C510 C508 1.395 . S
C510 C513 1.403 . S
C511 C508 1.403 . S
C511 C512 1.524 . S
C511 C515 1.400 . S
C512 H497 0.960 . S
C512 H498 0.960 . S
C512 H499 0.960 . S
C512 C511 1.524 . S
C513 C510 1.403 . S
C513 C514 1.392 . S
C513 C517 1.495 . S
C514 C513 1.392 . S
C514 C515 1.385 . S
C514 C516 1.478 . S
C515 H509 0.930 . S
C515 C511 1.400 . S
C515 C514 1.385 . S
C516 C514 1.478 . S
C516 C518 1.381 . S
C516 C522 1.383 . S
C517 C513 1.495 . S
C517 H523 0.959 . S
C517 H524 0.961 . S
C517 H525 0.960 . S
C518 C516 1.381 . S
C518 C519 1.394 . S
C518 H526 0.930 . S
C519 C518 1.394 . S
C519 C520 1.383 . S
C519 H527 0.929 . S
C520 C519 1.383 . S
C520 C521 1.377 . S
C521 H505 0.930 . S
C521 C520 1.377 . S
C521 C522 1.379 . S
C522 H506 0.931 . S
C522 C516 1.383 . S
C522 C521 1.379 . S
H523 C517 0.959 . S
H524 C517 0.961 . S
H525 C517 0.960 . S
H526 C518 0.930 . S
H527 C519 0.929 . S
H528 C536 0.929 . S
H529 C538 0.930 . S
H530 C540 0.930 . S
H531 C543 0.929 . S
H532 C546 0.930 . S
H533 C548 0.960 . S
H534 C548 0.960 . S
H535 C548 0.960 . S
C536 H528 0.929 . S
C536 C537 1.377 . S
C536 C538 1.384 . S
C537 C536 1.377 . S
C537 C543 1.390 . S
C538 H529 0.930 . S
C538 C536 1.384 . S
C538 C539 1.372 . S
C539 C538 1.372 . S
C539 C540 1.400 . S
C539 C544 1.490 . S
C540 H530 0.930 . S
C540 C539 1.400 . S
C540 C543 1.386 . S
H541 C557 0.930 . S
H542 C558 0.931 . S
C543 H531 0.929 . S
C543 C537 1.390 . S
C543 C540 1.386 . S
C544 C539 1.490 . S
C544 C546 1.395 . S
C544 C547 1.403 1_556 S
H545 C551 0.930 . S
C546 H532 0.930 . S
C546 C544 1.395 . S
C546 C549 1.403 1_556 S
C547 C544 1.403 1_554 S
C547 C548 1.524 . S
C547 C551 1.400 . S
C548 H533 0.960 . S
C548 H534 0.960 . S
C548 H535 0.960 . S
C548 C547 1.524 . S
C549 C546 1.403 1_554 S
C549 C550 1.392 . S
C549 C553 1.494 1_554 S
C550 C549 1.392 . S
C550 C551 1.385 . S
C550 C552 1.478 . S
C551 H545 0.930 . S
C551 C547 1.400 . S
C551 C550 1.385 . S
C552 C550 1.478 . S
C552 C554 1.381 . S
C552 C558 1.383 . S
C553 C549 1.494 1_556 S
C553 H559 0.965 . S
C553 H560 0.957 1_556 S
C553 H561 0.958 1_556 S
C554 C552 1.381 . S
C554 C555 1.394 . S
C554 H562 0.930 . S
C555 C554 1.394 . S
C555 C556 1.383 . S
C555 H563 0.929 . S
C556 C555 1.383 . S
C556 C557 1.377 . S
C557 H541 0.930 . S
C557 C556 1.377 . S
C557 C558 1.379 . S
C558 H542 0.931 . S
C558 C552 1.383 . S
C558 C557 1.379 . S
H559 C553 0.965 . S
H560 C553 0.957 1_554 S
H561 C553 0.958 1_554 S
H562 C554 0.930 . S
H563 C555 0.929 . S
C249 C15 1.499 . S
C268 C135 1.496 . S
C285 C175 1.500 . S
C304 C55 1.498 . S
C321 C95 1.504 . S
C340 C215 1.500 . S
C357 C2 1.487 . S
C376 C82 1.478 . S
C393 C42 1.484 . S
C412 C122 1.497 . S
C429 C162 1.490 . S
C448 C101 1.496 . S
C465 C202 1.490 . S
C484 C141 1.479 . S
C501 C181 1.490 . S
C520 C21 1.474 . S
C537 C221 1.497 . S
C556 C61 1.476 . S
