# Generated by pormake.
# Topology tzs, (4)-cn, num edge types: 1
# Building blocks:
#     Node 0, Type 0, BuildingBlock: GALJAG_clean_sbu_0, # of connection points: 4
#     Node 1, Type 0, BuildingBlock: GALJAG_clean_sbu_0, # of connection points: 4
#     Node 2, Type 0, BuildingBlock: GALJAG_clean_sbu_0, # of connection points: 4
#     Node 3, Type 0, BuildingBlock: GALJAG_clean_sbu_0, # of connection points: 4
#     Node 4, Type 0, BuildingBlock: GALJAG_clean_sbu_0, # of connection points: 4
#     Node 5, Type 0, BuildingBlock: GALJAG_clean_sbu_0, # of connection points: 4
#     Node 6, Type 0, BuildingBlock: GALJAG_clean_sbu_0, # of connection points: 4
#     Node 7, Type 0, BuildingBlock: GALJAG_clean_sbu_0, # of connection points: 4
#     Node 8, Type 0, BuildingBlock: GALJAG_clean_sbu_0, # of connection points: 4
#     Node 9, Type 0, BuildingBlock: GALJAG_clean_sbu_0, # of connection points: 4
#     Node 10, Type 0, BuildingBlock: GALJAG_clean_sbu_0, # of connection points: 4
#     Node 11, Type 0, BuildingBlock: GALJAG_clean_sbu_0, # of connection points: 4
#     Node 12, Type 0, BuildingBlock: GALJAG_clean_sbu_0, # of connection points: 4
#     Node 13, Type 0, BuildingBlock: GALJAG_clean_sbu_0, # of connection points: 4
#     Node 14, Type 0, BuildingBlock: GALJAG_clean_sbu_0, # of connection points: 4
#     Node 15, Type 0, BuildingBlock: GALJAG_clean_sbu_0, # of connection points: 4
#     Edge 16, Type (0, 0), BuildingBlock: UVAHIK_clean_linker_0, # of connection points: 2
#     Edge 17, Type (0, 0), BuildingBlock: UVAHIK_clean_linker_0, # of connection points: 2
#     Edge 18, Type (0, 0), BuildingBlock: UVAHIK_clean_linker_0, # of connection points: 2
#     Edge 19, Type (0, 0), BuildingBlock: UVAHIK_clean_linker_0, # of connection points: 2
#     Edge 20, Type (0, 0), BuildingBlock: UVAHIK_clean_linker_0, # of connection points: 2
#     Edge 21, Type (0, 0), BuildingBlock: UVAHIK_clean_linker_0, # of connection points: 2
#     Edge 22, Type (0, 0), BuildingBlock: UVAHIK_clean_linker_0, # of connection points: 2
#     Edge 23, Type (0, 0), BuildingBlock: UVAHIK_clean_linker_0, # of connection points: 2
#     Edge 24, Type (0, 0), BuildingBlock: UVAHIK_clean_linker_0, # of connection points: 2
#     Edge 25, Type (0, 0), BuildingBlock: UVAHIK_clean_linker_0, # of connection points: 2
#     Edge 26, Type (0, 0), BuildingBlock: UVAHIK_clean_linker_0, # of connection points: 2
#     Edge 27, Type (0, 0), BuildingBlock: UVAHIK_clean_linker_0, # of connection points: 2
#     Edge 28, Type (0, 0), BuildingBlock: UVAHIK_clean_linker_0, # of connection points: 2
#     Edge 29, Type (0, 0), BuildingBlock: UVAHIK_clean_linker_0, # of connection points: 2
#     Edge 30, Type (0, 0), BuildingBlock: UVAHIK_clean_linker_0, # of connection points: 2
#     Edge 31, Type (0, 0), BuildingBlock: UVAHIK_clean_linker_0, # of connection points: 2
#     Edge 32, Type (0, 0), BuildingBlock: UVAHIK_clean_linker_0, # of connection points: 2
#     Edge 33, Type (0, 0), BuildingBlock: UVAHIK_clean_linker_0, # of connection points: 2
#     Edge 34, Type (0, 0), BuildingBlock: UVAHIK_clean_linker_0, # of connection points: 2
#     Edge 35, Type (0, 0), BuildingBlock: UVAHIK_clean_linker_0, # of connection points: 2
#     Edge 36, Type (0, 0), BuildingBlock: UVAHIK_clean_linker_0, # of connection points: 2
#     Edge 37, Type (0, 0), BuildingBlock: UVAHIK_clean_linker_0, # of connection points: 2
#     Edge 38, Type (0, 0), BuildingBlock: UVAHIK_clean_linker_0, # of connection points: 2
#     Edge 39, Type (0, 0), BuildingBlock: UVAHIK_clean_linker_0, # of connection points: 2
#     Edge 40, Type (0, 0), BuildingBlock: UVAHIK_clean_linker_0, # of connection points: 2
#     Edge 41, Type (0, 0), BuildingBlock: UVAHIK_clean_linker_0, # of connection points: 2
#     Edge 42, Type (0, 0), BuildingBlock: UVAHIK_clean_linker_0, # of connection points: 2
#     Edge 43, Type (0, 0), BuildingBlock: UVAHIK_clean_linker_0, # of connection points: 2
#     Edge 44, Type (0, 0), BuildingBlock: UVAHIK_clean_linker_0, # of connection points: 2
#     Edge 45, Type (0, 0), BuildingBlock: UVAHIK_clean_linker_0, # of connection points: 2
#     Edge 46, Type (0, 0), BuildingBlock: UVAHIK_clean_linker_0, # of connection points: 2
#     Edge 47, Type (0, 0), BuildingBlock: UVAHIK_clean_linker_0, # of connection points: 2
# Relax obj value: 0.153
# Max RMSD: 0.154
# Mean RMSD: 0.154
data_MOF--net-tzs--node1-GALJAG_clean_sbu_0--edge1-UVAHIK_clean_linker_0
_symmetry_space_group_name_H-M    P1
_symmetry_Int_Tables_number       1
_symmetry_cell_setting            triclinic
loop_
_symmetry_equiv_pos_as_xyz
'x, y, z'
_cell_length_a     63.369814
_cell_length_b     63.37042
_cell_length_c     52.264952
_cell_angle_alpha  89.932978
_cell_angle_beta   89.981093
_cell_angle_gamma 89.933441
loop_
_atom_site_label
_atom_site_type_symbol
_atom_site_fract_x
_atom_site_fract_y
_atom_site_fract_z
_atom_type_partial_charge
In0 In 0.14373 0.35369 0.18179 0.0
O1 O 0.17669 0.34304 0.19337 0.0
O2 O 0.15249 0.31992 0.19312 0.0
C3 C 0.15155 0.39437 0.19384 0.0
C4 C 0.1441 0.35234 0.1301 0.0
C5 C 0.10716 0.34519 0.20633 0.0
O6 O 0.15888 0.3791 0.20653 0.0
O7 O 0.14033 0.38914 0.17497 0.0
O8 O 0.11162 0.33753 0.18473 0.0
O9 O 0.1213 0.35679 0.21576 0.0
C10 C 0.17167 0.32405 0.19714 0.0
O11 O 0.12743 0.35486 0.1429 0.0
O12 O 0.16063 0.35051 0.14335 0.0
In13 In 0.64235 0.14107 0.1861 0.0
O14 O 0.65445 0.13045 0.14722 0.0
O15 O 0.63602 0.15848 0.1486 0.0
C16 C 0.65203 0.10206 0.20323 0.0
C17 C 0.66994 0.17083 0.2017 0.0
C18 C 0.60197 0.14403 0.20256 0.0
O19 O 0.64277 0.10525 0.18222 0.0
O20 O 0.65626 0.11854 0.21572 0.0
O21 O 0.60677 0.1418 0.17932 0.0
O22 O 0.61752 0.1449 0.21755 0.0
C23 C 0.64617 0.14551 0.13501 0.0
O24 O 0.65024 0.17366 0.20226 0.0
O25 O 0.67562 0.1531 0.19329 0.0
In26 In 0.85145 0.63993 0.18424 0.0
O27 O 0.86948 0.63843 0.14659 0.0
O28 O 0.83701 0.64674 0.1451 0.0
C29 C 0.88818 0.64787 0.20845 0.0
C30 C 0.82313 0.66901 0.19998 0.0
C31 C 0.84248 0.59919 0.19511 0.0
O32 O 0.88338 0.65631 0.18737 0.0
O33 O 0.87438 0.63561 0.21744 0.0
O34 O 0.83841 0.6141 0.21027 0.0
O35 O 0.85086 0.60481 0.17433 0.0
C36 C 0.8539 0.64354 0.1329 0.0
O37 O 0.81777 0.65108 0.19185 0.0
O38 O 0.84274 0.67229 0.20013 0.0
In39 In 0.35164 0.85039 0.18517 0.0
O40 O 0.35286 0.86529 0.14551 0.0
O41 O 0.35237 0.83185 0.14766 0.0
C42 C 0.34013 0.88655 0.20857 0.0
C43 C 0.32183 0.82221 0.19886 0.0
C44 C 0.39225 0.84576 0.19985 0.0
O45 O 0.33589 0.88274 0.18546 0.0
O46 O 0.34985 0.87196 0.22003 0.0
O47 O 0.37728 0.8361 0.21058 0.0
O48 O 0.38676 0.85763 0.18167 0.0
C49 C 0.35299 0.84801 0.13359 0.0
O50 O 0.3412 0.81769 0.19793 0.0
O51 O 0.31743 0.84097 0.19277 0.0
In52 In 0.14203 0.6436 0.30939 0.0
O53 O 0.14083 0.62827 0.34877 0.0
O54 O 0.14753 0.66106 0.34708 0.0
C55 C 0.10079 0.65035 0.29925 0.0
C56 C 0.16998 0.67197 0.29122 0.0
C57 C 0.15126 0.60659 0.28631 0.0
O58 O 0.10703 0.64053 0.31882 0.0
O59 O 0.11535 0.65687 0.28481 0.0
O60 O 0.13845 0.61974 0.277 0.0
O61 O 0.15965 0.61221 0.30708 0.0
C62 C 0.14482 0.64497 0.36092 0.0
O63 O 0.17495 0.65309 0.29602 0.0
O64 O 0.15098 0.67655 0.29575 0.0
In65 In 0.34673 0.14038 0.3082 0.0
O66 O 0.32844 0.13658 0.34548 0.0
O67 O 0.35565 0.15613 0.34586 0.0
C68 C 0.33984 0.09943 0.29669 0.0
C69 C 0.32003 0.16932 0.28834 0.0
C70 C 0.38682 0.14351 0.29099 0.0
O71 O 0.34706 0.1053 0.31799 0.0
O72 O 0.3361 0.11421 0.28115 0.0
O73 O 0.37105 0.14606 0.27659 0.0
O74 O 0.38236 0.13951 0.31399 0.0
C75 C 0.34056 0.14825 0.35835 0.0
O76 O 0.33883 0.17366 0.29423 0.0
O77 O 0.31477 0.15043 0.29237 0.0
In78 In 0.8524 0.34842 0.30815 0.0
O79 O 0.8598 0.33179 0.34597 0.0
O80 O 0.8384 0.35757 0.34667 0.0
C81 C 0.89366 0.34413 0.29648 0.0
C82 C 0.8231 0.32089 0.29104 0.0
C83 C 0.84578 0.3866 0.2866 0.0
O84 O 0.88726 0.35531 0.31488 0.0
O85 O 0.87925 0.33509 0.28398 0.0
O86 O 0.84827 0.37009 0.27349 0.0
O87 O 0.84664 0.38383 0.31047 0.0
C88 C 0.84805 0.34357 0.35921 0.0
O89 O 0.81868 0.33956 0.29733 0.0
O90 O 0.8423 0.31606 0.29339 0.0
In91 In 0.64629 0.85245 0.30676 0.0
O92 O 0.63572 0.8656 0.3453 0.0
O93 O 0.65277 0.8367 0.34518 0.0
C94 C 0.6609 0.8902 0.2909 0.0
C95 C 0.67399 0.82375 0.28853 0.0
C96 C 0.60634 0.84764 0.28943 0.0
O97 O 0.65963 0.88533 0.31427 0.0
O98 O 0.65522 0.87589 0.27563 0.0
O99 O 0.61405 0.836 0.30662 0.0
O100 O 0.61873 0.86153 0.28106 0.0
C101 C 0.64356 0.85069 0.35822 0.0
O102 O 0.65434 0.82205 0.28545 0.0
O103 O 0.67966 0.8399 0.30076 0.0
In104 In 0.84695 0.63917 0.80742 0.0
O105 O 0.85024 0.62493 0.84716 0.0
O106 O 0.8521 0.65826 0.84403 0.0
C107 C 0.83006 0.60309 0.7893 0.0
C108 C 0.81836 0.66765 0.79065 0.0
C109 C 0.88761 0.64156 0.792 0.0
O110 O 0.82805 0.60886 0.81225 0.0
O111 O 0.84009 0.61583 0.77528 0.0
O112 O 0.876 0.65763 0.79412 0.0
O113 O 0.87877 0.62442 0.79778 0.0
C114 C 0.85253 0.64231 0.85848 0.0
O115 O 0.8352 0.66365 0.77874 0.0
O116 O 0.81581 0.65712 0.8109 0.0
In117 In 0.35113 0.84841 0.80721 0.0
O118 O 0.31625 0.84175 0.79954 0.0
O119 O 0.33769 0.81604 0.79778 0.0
C120 C 0.34191 0.88648 0.78679 0.0
C121 C 0.35386 0.84648 0.85867 0.0
C122 C 0.39015 0.83975 0.789 0.0
O123 O 0.34973 0.87163 0.77381 0.0
O124 O 0.33845 0.88202 0.80993 0.0
O125 O 0.38707 0.84844 0.81035 0.0
O126 O 0.37357 0.83533 0.77685 0.0
C127 C 0.31887 0.82227 0.79577 0.0
O128 O 0.35577 0.86348 0.84631 0.0
O129 O 0.35066 0.83037 0.84506 0.0
In130 In 0.14415 0.35477 0.80307 0.0
O131 O 0.12753 0.35479 0.84187 0.0
O132 O 0.16084 0.35169 0.84162 0.0
C133 C 0.15871 0.39263 0.7875 0.0
C134 C 0.16965 0.32408 0.78476 0.0
C135 C 0.1045 0.35165 0.78422 0.0
O136 O 0.15863 0.3871 0.81071 0.0
O137 O 0.15164 0.37898 0.77217 0.0
O138 O 0.11683 0.33604 0.78544 0.0
O139 O 0.11215 0.36865 0.79253 0.0
C140 C 0.1442 0.35274 0.85477 0.0
O141 O 0.15424 0.32024 0.79931 0.0
O142 O 0.17203 0.3433 0.77927 0.0
In143 In 0.64187 0.14223 0.80913 0.0
O144 O 0.67546 0.1542 0.80322 0.0
O145 O 0.65027 0.17404 0.79134 0.0
C146 C 0.6493 0.10253 0.79248 0.0
C147 C 0.64588 0.14694 0.86018 0.0
C148 C 0.60195 0.14729 0.79207 0.0
O149 O 0.65619 0.11855 0.78085 0.0
O150 O 0.63866 0.10658 0.81223 0.0
O151 O 0.6062 0.14217 0.81481 0.0
O152 O 0.61784 0.14999 0.7779 0.0
C153 C 0.66994 0.17151 0.79334 0.0
O154 O 0.63482 0.15929 0.84675 0.0
O155 O 0.65495 0.13247 0.84783 0.0
In156 In 0.84777 0.35346 0.68529 0.0
O157 O 0.8348 0.36106 0.64575 0.0
O158 O 0.85867 0.3377 0.64805 0.0
C159 C 0.83619 0.39166 0.70317 0.0
C160 C 0.81965 0.32575 0.70486 0.0
C161 C 0.88894 0.3508 0.69859 0.0
O162 O 0.84306 0.38875 0.6808 0.0
O163 O 0.83525 0.37523 0.71682 0.0
O164 O 0.87739 0.33472 0.69621 0.0
O165 O 0.87975 0.36808 0.69424 0.0
C166 C 0.84632 0.34814 0.63397 0.0
O167 O 0.838 0.32781 0.71382 0.0
O168 O 0.81551 0.33767 0.68623 0.0
In169 In 0.64233 0.85221 0.68474 0.0
O170 O 0.65429 0.82915 0.71493 0.0
O171 O 0.67455 0.83611 0.68366 0.0
C172 C 0.65433 0.8892 0.7059 0.0
C173 C 0.64054 0.85003 0.63322 0.0
C174 C 0.60138 0.84398 0.69504 0.0
O175 O 0.6609 0.8831 0.68437 0.0
O176 O 0.64211 0.87644 0.71698 0.0
O177 O 0.60779 0.86181 0.68772 0.0
O178 O 0.61561 0.83015 0.69704 0.0
C179 C 0.67179 0.8259 0.70413 0.0
O180 O 0.64341 0.83395 0.64705 0.0
O181 O 0.63859 0.86709 0.64536 0.0
In182 In 0.14301 0.64139 0.68722 0.0
O183 O 0.15984 0.63941 0.64879 0.0
O184 O 0.12766 0.64902 0.64888 0.0
C185 C 0.15932 0.60367 0.70134 0.0
C186 C 0.16633 0.67295 0.7073 0.0
C187 C 0.10238 0.6431 0.70283 0.0
O188 O 0.14976 0.60649 0.68048 0.0
O189 O 0.16095 0.61996 0.71502 0.0
O190 O 0.11289 0.65944 0.69762 0.0
O191 O 0.11232 0.62603 0.70009 0.0
C192 C 0.14399 0.6451 0.63587 0.0
O193 O 0.16619 0.66871 0.68376 0.0
O194 O 0.15469 0.66128 0.72081 0.0
In195 In 0.34808 0.1403 0.68272 0.0
O196 O 0.35923 0.15232 0.64383 0.0
O197 O 0.32927 0.13745 0.64569 0.0
C198 C 0.3883 0.14477 0.69917 0.0
C199 C 0.32031 0.1687 0.70143 0.0
C200 C 0.34037 0.1002 0.69731 0.0
O201 O 0.38306 0.13196 0.68189 0.0
O202 O 0.37325 0.15547 0.7082 0.0
O203 O 0.34126 0.11525 0.71307 0.0
O204 O 0.34318 0.10543 0.67427 0.0
C205 C 0.34296 0.14642 0.63197 0.0
O206 O 0.31792 0.14907 0.70416 0.0
O207 O 0.3368 0.17399 0.68956 0.0
C208 C 0.28437 0.17941 0.27201 0.0
C209 C 0.30523 0.18511 0.27786 0.0
C210 C 0.2702 0.19439 0.26254 0.0
C211 C 0.26092 0.25177 0.25975 0.0
H212 H 0.22179 0.23706 0.2056 0.0
C213 C 0.20812 0.31372 0.21034 0.0
C214 C 0.18706 0.30803 0.20566 0.0
C215 C 0.2227 0.29867 0.21865 0.0
C216 C 0.23248 0.24134 0.2209 0.0
H217 H 0.3277 0.21087 0.27816 0.0
H218 H 0.303 0.23703 0.26138 0.0
H219 H 0.24715 0.2109 0.22079 0.0
H220 H 0.16473 0.28214 0.20589 0.0
H221 H 0.1902 0.25583 0.22058 0.0
H222 H 0.24624 0.28219 0.2599 0.0
C223 C 0.29752 0.22104 0.26442 0.0
C224 C 0.24701 0.22636 0.2296 0.0
C225 C 0.3117 0.20604 0.27389 0.0
C226 C 0.18087 0.28697 0.20931 0.0
C227 C 0.19548 0.27189 0.21758 0.0
C228 C 0.24642 0.26674 0.25104 0.0
C229 C 0.27658 0.2154 0.25873 0.0
C230 C 0.26137 0.2314 0.24916 0.0
C231 C 0.21654 0.2776 0.22242 0.0
C232 C 0.23202 0.26169 0.23155 0.0
H233 H 0.27892 0.16339 0.27493 0.0
H234 H 0.25412 0.18959 0.25865 0.0
H235 H 0.27154 0.25604 0.27513 0.0
H236 H 0.21336 0.32983 0.20761 0.0
H237 H 0.23887 0.30351 0.22189 0.0
C238 C 0.81303 0.28577 0.27313 0.0
C239 C 0.80708 0.30594 0.28159 0.0
C240 C 0.79788 0.27167 0.26403 0.0
C241 C 0.74116 0.25976 0.26671 0.0
H242 H 0.75272 0.22722 0.20548 0.0
C243 C 0.67831 0.20662 0.21918 0.0
C244 C 0.68522 0.18688 0.21031 0.0
C245 C 0.69288 0.22169 0.22744 0.0
C246 C 0.74934 0.23602 0.22276 0.0
H247 H 0.78063 0.32718 0.28727 0.0
H248 H 0.75414 0.30252 0.27136 0.0
H249 H 0.77881 0.25241 0.22092 0.0
H250 H 0.71272 0.16736 0.20315 0.0
H251 H 0.7381 0.19349 0.21784 0.0
H252 H 0.71178 0.24322 0.26871 0.0
C253 C 0.7705 0.29757 0.27191 0.0
C254 C 0.76428 0.25046 0.23158 0.0
C255 C 0.78568 0.31172 0.28089 0.0
C256 C 0.70693 0.18248 0.20981 0.0
C257 C 0.72148 0.19751 0.21807 0.0
C258 C 0.72623 0.24526 0.25793 0.0
C259 C 0.77646 0.27742 0.26333 0.0
C260 C 0.76039 0.2624 0.25371 0.0
C261 C 0.71464 0.21729 0.22698 0.0
C262 C 0.7302 0.23315 0.23592 0.0
H263 H 0.82942 0.28088 0.27349 0.0
H264 H 0.80291 0.25615 0.25783 0.0
H265 H 0.73783 0.26857 0.284 0.0
H266 H 0.66165 0.21045 0.21972 0.0
H267 H 0.68712 0.23687 0.23392 0.0
C268 C 0.8146 0.70401 0.21932 0.0
C269 C 0.8077 0.6849 0.20866 0.0
C270 C 0.80002 0.71901 0.22775 0.0
C271 C 0.745 0.7362 0.21984 0.0
H272 H 0.75389 0.76371 0.28519 0.0
C273 C 0.68202 0.78966 0.26655 0.0
C274 C 0.68916 0.808 0.27885 0.0
C275 C 0.69641 0.77461 0.25774 0.0
C276 C 0.75131 0.75637 0.26675 0.0
H277 H 0.78018 0.66649 0.1983 0.0
H278 H 0.75467 0.69272 0.21304 0.0
H279 H 0.7792 0.73752 0.27018 0.0
H280 H 0.71689 0.82515 0.29134 0.0
H281 H 0.74202 0.79906 0.27561 0.0
H282 H 0.71719 0.75515 0.21629 0.0
C283 C 0.77136 0.69615 0.21474 0.0
C284 C 0.7658 0.74135 0.25819 0.0
C285 C 0.78595 0.6811 0.20644 0.0
C286 C 0.71093 0.8111 0.28202 0.0
C287 C 0.72532 0.7961 0.27315 0.0
C288 C 0.73054 0.75129 0.22836 0.0
C289 C 0.77825 0.71523 0.22556 0.0
C290 C 0.7628 0.73112 0.23464 0.0
C291 C 0.71823 0.77764 0.26099 0.0
C292 C 0.73354 0.76156 0.25191 0.0
H293 H 0.83128 0.70738 0.22123 0.0
H294 H 0.80579 0.73367 0.23574 0.0
H295 H 0.74243 0.72876 0.20145 0.0
H296 H 0.66531 0.78684 0.26391 0.0
H297 H 0.69042 0.76045 0.24874 0.0
C298 C 0.28439 0.81278 0.20873 0.0
C299 C 0.30567 0.80679 0.20679 0.0
C300 C 0.26921 0.79826 0.21684 0.0
C301 C 0.25928 0.74118 0.22356 0.0
H302 H 0.21778 0.7588 0.27375 0.0
C303 C 0.20632 0.68177 0.27697 0.0
C304 C 0.18516 0.68746 0.28098 0.0
C305 C 0.22067 0.69643 0.2672 0.0
C306 C 0.22908 0.75369 0.25949 0.0
H307 H 0.32778 0.78094 0.21158 0.0
H308 H 0.30131 0.75563 0.22585 0.0
H309 H 0.24334 0.78425 0.25756 0.0
H310 H 0.16234 0.71285 0.2778 0.0
H311 H 0.18733 0.73838 0.26045 0.0
H312 H 0.24507 0.71061 0.2255 0.0
C313 C 0.2963 0.77146 0.22089 0.0
C314 C 0.24372 0.76828 0.25022 0.0
C315 C 0.31148 0.78599 0.21286 0.0
C316 C 0.17859 0.70805 0.27501 0.0
C317 C 0.19292 0.7227 0.26519 0.0
C318 C 0.24461 0.7266 0.23278 0.0
C319 C 0.27502 0.77746 0.22308 0.0
C320 C 0.25905 0.76215 0.23227 0.0
C321 C 0.21413 0.71706 0.26119 0.0
C322 C 0.22942 0.73266 0.25096 0.0
H323 H 0.27946 0.82871 0.20411 0.0
H324 H 0.25289 0.80327 0.21807 0.0
H325 H 0.27071 0.73606 0.20945 0.0
H326 H 0.21184 0.66601 0.28147 0.0
H327 H 0.23696 0.69167 0.26468 0.0
C328 C 0.68345 0.7996 0.73689 0.0
C329 C 0.68744 0.81073 0.71415 0.0
C330 C 0.69781 0.78456 0.74581 0.0
C331 C 0.75329 0.76711 0.73994 0.0
H332 H 0.73147 0.71401 0.76569 0.0
C333 C 0.80699 0.69534 0.75947 0.0
C334 C 0.80314 0.68376 0.78191 0.0
C335 C 0.79288 0.71098 0.75151 0.0
C336 C 0.73781 0.72884 0.75883 0.0
H337 H 0.70968 0.81508 0.68307 0.0
H338 H 0.73469 0.78868 0.6985 0.0
H339 H 0.70702 0.74137 0.75157 0.0
H340 H 0.78148 0.67936 0.81358 0.0
H341 H 0.75688 0.70676 0.79978 0.0
H342 H 0.78409 0.75452 0.74709 0.0
C343 C 0.72058 0.79172 0.70961 0.0
C344 C 0.7238 0.74453 0.75075 0.0
C345 C 0.70622 0.80677 0.7007 0.0
C346 C 0.78482 0.68799 0.79615 0.0
C347 C 0.77069 0.70362 0.78819 0.0
C348 C 0.7673 0.75141 0.748 0.0
C349 C 0.71647 0.78033 0.73217 0.0
C350 C 0.73138 0.76382 0.74117 0.0
C351 C 0.77461 0.71534 0.76583 0.0
C352 C 0.75971 0.73208 0.75747 0.0
H353 H 0.66913 0.80237 0.74772 0.0
H354 H 0.69433 0.77628 0.76345 0.0
H355 H 0.75963 0.78191 0.733 0.0
H356 H 0.82096 0.69239 0.74806 0.0
H357 H 0.7962 0.71952 0.73401 0.0
C358 C 0.19145 0.70295 0.70198 0.0
C359 C 0.17948 0.68991 0.71816 0.0
C360 C 0.2045 0.71853 0.71219 0.0
C361 C 0.23383 0.73174 0.77029 0.0
H362 H 0.23924 0.78661 0.73797 0.0
C363 C 0.30514 0.78614 0.7868 0.0
C364 C 0.30139 0.80788 0.78931 0.0
C365 C 0.28877 0.7725 0.78016 0.0
C366 C 0.23774 0.77145 0.74739 0.0
H367 H 0.17146 0.68317 0.75766 0.0
H368 H 0.19435 0.71045 0.77555 0.0
H369 H 0.21268 0.76182 0.72256 0.0
H370 H 0.27757 0.83241 0.78715 0.0
H371 H 0.2489 0.80851 0.77546 0.0
H372 H 0.25899 0.74131 0.79499 0.0
C373 C 0.19372 0.70849 0.75497 0.0
C374 C 0.22269 0.75719 0.73841 0.0
C375 C 0.18056 0.69296 0.74474 0.0
C376 C 0.28091 0.81572 0.78529 0.0
C377 C 0.26454 0.80206 0.7785 0.0
C378 C 0.24895 0.74596 0.77919 0.0
C379 C 0.20592 0.72135 0.7388 0.0
C380 C 0.22076 0.73708 0.74955 0.0
C381 C 0.26832 0.78032 0.77579 0.0
C382 C 0.25125 0.76585 0.76761 0.0
H383 H 0.19093 0.70096 0.68141 0.0
H384 H 0.21392 0.728 0.69925 0.0
H385 H 0.23282 0.71631 0.77914 0.0
H386 H 0.32077 0.77966 0.78979 0.0
H387 H 0.29224 0.75587 0.77788 0.0
C388 C 0.20175 0.313 0.76052 0.0
C389 C 0.18415 0.30754 0.77543 0.0
C390 C 0.21588 0.29751 0.75229 0.0
C391 C 0.23412 0.2435 0.76702 0.0
H392 H 0.25838 0.24674 0.69899 0.0
C393 C 0.28673 0.17765 0.7242 0.0
C394 C 0.30473 0.18425 0.71071 0.0
C395 C 0.27169 0.19236 0.73226 0.0
C396 C 0.25188 0.24574 0.71813 0.0
H397 H 0.16734 0.28159 0.7932 0.0
H398 H 0.19188 0.25444 0.77851 0.0
H399 H 0.23232 0.27283 0.71228 0.0
H400 H 0.32125 0.21139 0.6953 0.0
H401 H 0.29504 0.23707 0.70945 0.0
H402 H 0.2537 0.21635 0.77278 0.0
C403 C 0.19494 0.27074 0.77349 0.0
C404 C 0.23696 0.26069 0.72575 0.0
C405 C 0.18082 0.28626 0.78177 0.0
C406 C 0.30751 0.20583 0.70561 0.0
C407 C 0.29244 0.22052 0.71357 0.0
C408 C 0.24901 0.2285 0.75935 0.0
C409 C 0.21269 0.2762 0.75874 0.0
C410 C 0.228 0.25984 0.75035 0.0
C411 C 0.27431 0.21394 0.72687 0.0
C412 C 0.25816 0.22955 0.73489 0.0
H413 H 0.20477 0.32929 0.75542 0.0
H414 H 0.22954 0.30231 0.74128 0.0
H415 H 0.22775 0.24257 0.78622 0.0
H416 H 0.28417 0.1611 0.72836 0.0
H417 H 0.2578 0.1868 0.74228 0.0
C418 C 0.70681 0.18535 0.79078 0.0
C419 C 0.6853 0.18752 0.7848 0.0
C420 C 0.72135 0.20053 0.78273 0.0
C421 C 0.72972 0.24113 0.734 0.0
H422 H 0.77114 0.26344 0.78137 0.0
C423 C 0.78324 0.31087 0.70663 0.0
C424 C 0.80427 0.31042 0.71503 0.0
C425 C 0.7687 0.29612 0.71573 0.0
C426 C 0.75988 0.25717 0.76779 0.0
H427 H 0.66212 0.20719 0.76572 0.0
H428 H 0.68759 0.23361 0.75141 0.0
H429 H 0.74592 0.23696 0.79599 0.0
H430 H 0.82664 0.29425 0.73954 0.0
H431 H 0.80141 0.26809 0.75496 0.0
H432 H 0.74381 0.26091 0.70563 0.0
C433 C 0.69318 0.22017 0.7623 0.0
C434 C 0.7454 0.24206 0.77621 0.0
C435 C 0.6786 0.20511 0.77058 0.0
C436 C 0.81048 0.29501 0.73282 0.0
C437 C 0.79598 0.28011 0.74175 0.0
C438 C 0.7443 0.25608 0.7255 0.0
C439 C 0.71468 0.21804 0.76832 0.0
C440 C 0.73014 0.23396 0.75941 0.0
C441 C 0.77492 0.28043 0.73324 0.0
C442 C 0.75952 0.26437 0.74231 0.0
H443 H 0.71241 0.17195 0.80174 0.0
H444 H 0.73786 0.19842 0.78745 0.0
H445 H 0.7183 0.23492 0.72055 0.0
H446 H 0.77796 0.32267 0.69304 0.0
H447 H 0.75253 0.29714 0.70913 0.0
C448 C 0.12534 0.35386 0.89677 0.0
C449 C 0.14428 0.35193 0.88299 0.0
C450 C 0.12544 0.35338 0.92349 0.0
C451 C 0.1604 0.36149 0.97907 0.0
H452 H 0.11673 0.33116 0.01581 0.0
C453 C 0.16326 0.34903 0.08845 0.0
C454 C 0.14425 0.35173 0.10187 0.0
C455 C 0.16339 0.34864 0.06172 0.0
C456 C 0.12891 0.33987 0.00582 0.0
H457 H 0.17814 0.34783 0.8863 0.0
H458 H 0.17831 0.34677 0.93297 0.0
H459 H 0.11672 0.33117 0.96915 0.0
H460 H 0.11046 0.35609 0.09792 0.0
H461 H 0.1107 0.35557 0.05125 0.0
H462 H 0.17256 0.37021 0.01574 0.0
C463 C 0.16341 0.34894 0.92315 0.0
C464 C 0.1289 0.33988 0.9791 0.0
C465 C 0.1633 0.34942 0.89643 0.0
C466 C 0.12536 0.35394 0.08808 0.0
C467 C 0.12548 0.35352 0.06136 0.0
C468 C 0.16041 0.36146 0.00579 0.0
C469 C 0.14449 0.35096 0.93699 0.0
C470 C 0.14462 0.35073 0.96541 0.0
C471 C 0.1445 0.3509 0.04788 0.0
C472 C 0.14464 0.35069 0.01947 0.0
H473 H 0.11044 0.35588 0.88691 0.0
H474 H 0.11063 0.35526 0.93358 0.0
H475 H 0.17254 0.37027 0.9691 0.0
H476 H 0.17806 0.34723 0.09859 0.0
H477 H 0.17827 0.34634 0.0519 0.0
C478 C 0.65959 0.13398 0.90207 0.0
C479 C 0.64749 0.14866 0.88827 0.0
C480 C 0.66031 0.13476 0.92873 0.0
C481 C 0.65067 0.16919 0.98437 0.0
H482 H 0.64521 0.116 0.02053 0.0
C483 C 0.63707 0.16355 0.09382 0.0
C484 C 0.64767 0.14734 0.10692 0.0
C485 C 0.63774 0.1646 0.06711 0.0
C486 C 0.64703 0.13097 0.01075 0.0
H487 H 0.62705 0.17599 0.89144 0.0
H488 H 0.62822 0.1773 0.93818 0.0
H489 H 0.64521 0.11635 0.97399 0.0
H490 H 0.66775 0.11985 0.10247 0.0
H491 H 0.66915 0.12182 0.05595 0.0
H492 H 0.65246 0.18379 0.02126 0.0
C493 C 0.63726 0.16527 0.92834 0.0
C494 C 0.64701 0.13116 0.98407 0.0
C495 C 0.6365 0.16446 0.90161 0.0
C496 C 0.65931 0.13246 0.09288 0.0
C497 C 0.66001 0.13352 0.06622 0.0
C498 C 0.65072 0.169 0.01113 0.0
C499 C 0.64897 0.15025 0.94218 0.0
C500 C 0.64891 0.15025 0.97057 0.0
C501 C 0.64904 0.14945 0.05301 0.0
C502 C 0.64898 0.14986 0.0246 0.0
H503 H 0.66832 0.12168 0.89231 0.0
H504 H 0.66975 0.12318 0.93883 0.0
H505 H 0.65235 0.18413 0.97448 0.0
H506 H 0.62795 0.17523 0.10417 0.0
H507 H 0.62897 0.17696 0.05749 0.0
C508 C 0.8572 0.66345 0.89852 0.0
C509 C 0.85497 0.64377 0.88649 0.0
C510 C 0.85883 0.66472 0.92516 0.0
C511 C 0.87088 0.63269 0.98266 0.0
H512 H 0.83849 0.67556 0.01817 0.0
C513 C 0.87461 0.64214 0.09225 0.0
C514 C 0.85528 0.64536 0.10481 0.0
C515 C 0.87585 0.6434 0.06561 0.0
C516 C 0.84756 0.66345 0.00853 0.0
H517 H 0.85291 0.61 0.89277 0.0
H518 H 0.85549 0.61221 0.93914 0.0
H519 H 0.83842 0.67468 0.97153 0.0
H520 H 0.82214 0.65264 0.09945 0.0
H521 H 0.82421 0.65451 0.05291 0.0
H522 H 0.87943 0.62099 0.01961 0.0
C523 C 0.85628 0.62665 0.92808 0.0
C524 C 0.84773 0.6631 0.98181 0.0
C525 C 0.85467 0.62539 0.90151 0.0
C526 C 0.83726 0.65011 0.09028 0.0
C527 C 0.83849 0.65133 0.06363 0.0
C528 C 0.8707 0.63302 0.00936 0.0
C529 C 0.85828 0.64633 0.94023 0.0
C530 C 0.85919 0.64756 0.96857 0.0
C531 C 0.85777 0.64786 0.05098 0.0
C532 C 0.85885 0.64826 0.02261 0.0
H533 H 0.85755 0.67787 0.88739 0.0
H534 H 0.86059 0.68009 0.93394 0.0
H535 H 0.88009 0.62068 0.97303 0.0
H536 H 0.8888 0.63857 0.10299 0.0
H537 H 0.891 0.64093 0.05648 0.0
C538 C 0.3558 0.86543 0.09086 0.0
C539 C 0.35396 0.84688 0.10542 0.0
C540 C 0.35681 0.86445 0.06421 0.0
C541 C 0.34298 0.83082 0.00957 0.0
H542 H 0.38253 0.86645 0.97295 0.0
C543 C 0.35333 0.82628 0.89983 0.0
C544 C 0.3551 0.84561 0.88684 0.0
C545 C 0.35417 0.82559 0.92655 0.0
C546 C 0.37126 0.85654 0.98288 0.0
H547 H 0.35175 0.81278 0.10359 0.0
H548 H 0.35353 0.81107 0.05691 0.0
H549 H 0.38208 0.86681 0.01958 0.0
H550 H 0.35918 0.87936 0.89152 0.0
H551 H 0.36035 0.87821 0.93808 0.0
H552 H 0.33194 0.82077 0.97287 0.0
C553 C 0.35405 0.82636 0.06613 0.0
C554 C 0.37103 0.85674 0.00958 0.0
C555 C 0.35312 0.82733 0.09283 0.0
C556 C 0.35784 0.86421 0.90102 0.0
C557 C 0.35865 0.86354 0.92769 0.0
C558 C 0.34317 0.83067 0.98283 0.0
C559 C 0.35593 0.84492 0.05155 0.0
C560 C 0.35676 0.84402 0.02321 0.0
C561 C 0.35678 0.84423 0.94078 0.0
C562 C 0.3572 0.84367 0.96918 0.0
H563 H 0.35644 0.88073 0.10004 0.0
H564 H 0.35797 0.87904 0.05348 0.0
H565 H 0.33165 0.82102 0.01954 0.0
H566 H 0.35127 0.81168 0.88938 0.0
H567 H 0.35294 0.81045 0.93604 0.0
C568 C 0.16323 0.64297 0.59418 0.0
C569 C 0.14443 0.64669 0.60771 0.0
C570 C 0.16351 0.64389 0.56747 0.0
C571 C 0.16158 0.65817 0.51177 0.0
H572 H 0.11617 0.63058 0.47507 0.0
C573 C 0.15082 0.66441 0.40193 0.0
C574 C 0.14564 0.64565 0.38912 0.0
C575 C 0.15102 0.66508 0.42867 0.0
C576 C 0.12901 0.63827 0.48505 0.0
H577 H 0.11127 0.65458 0.60399 0.0
H578 H 0.11176 0.65619 0.55732 0.0
H579 H 0.1159 0.63094 0.52172 0.0
H580 H 0.13684 0.61284 0.39413 0.0
H581 H 0.13723 0.61401 0.44076 0.0
H582 H 0.17483 0.66523 0.47503 0.0
C583 C 0.12623 0.6524 0.56735 0.0
C584 C 0.12873 0.63867 0.51175 0.0
C585 C 0.12597 0.65158 0.59406 0.0
C586 C 0.14084 0.62754 0.40349 0.0
C587 C 0.14094 0.62824 0.43018 0.0
C588 C 0.16179 0.65787 0.48503 0.0
C589 C 0.14497 0.64845 0.55377 0.0
C590 C 0.14506 0.64855 0.5254 0.0
C591 C 0.14593 0.64704 0.44306 0.0
C592 C 0.14557 0.6478 0.47141 0.0
H593 H 0.1777 0.63916 0.60421 0.0
H594 H 0.17813 0.64056 0.55753 0.0
H595 H 0.17429 0.66605 0.52178 0.0
H596 H 0.15457 0.67861 0.39132 0.0
H597 H 0.15477 0.67983 0.43808 0.0
C598 C 0.32237 0.14152 0.59164 0.0
C599 C 0.34037 0.1493 0.60413 0.0
C600 C 0.32032 0.14344 0.56513 0.0
C601 C 0.34057 0.17243 0.50885 0.0
H602 H 0.32302 0.12252 0.47169 0.0
C603 C 0.35332 0.16235 0.4002 0.0
C604 C 0.33795 0.15142 0.38614 0.0
C605 C 0.35171 0.16393 0.42679 0.0
C606 C 0.32759 0.13673 0.48175 0.0
H607 H 0.37012 0.16558 0.59881 0.0
H608 H 0.36662 0.16881 0.55248 0.0
H609 H 0.32364 0.12194 0.51823 0.0
H610 H 0.30842 0.13432 0.38865 0.0
H611 H 0.30539 0.13738 0.43502 0.0
H612 H 0.34474 0.18714 0.4723 0.0
C613 C 0.35401 0.1614 0.56318 0.0
C614 C 0.32797 0.13638 0.50845 0.0
C615 C 0.35608 0.15942 0.58969 0.0
C616 C 0.32058 0.14271 0.39903 0.0
C617 C 0.31892 0.14436 0.42561 0.0
C618 C 0.34013 0.17281 0.48211 0.0
C619 C 0.33621 0.15323 0.55059 0.0
C620 C 0.33467 0.15414 0.52228 0.0
C621 C 0.33464 0.15469 0.43984 0.0
C622 C 0.33384 0.15488 0.46825 0.0
H623 H 0.30995 0.13372 0.6023 0.0
H624 H 0.30631 0.13721 0.55599 0.0
H625 H 0.34553 0.18646 0.51901 0.0
H626 H 0.36691 0.1692 0.39076 0.0
H627 H 0.36422 0.17178 0.43717 0.0
C628 C 0.83271 0.3552 0.40084 0.0
C629 C 0.84641 0.34184 0.38729 0.0
C630 C 0.83202 0.35457 0.42751 0.0
C631 C 0.84618 0.32217 0.48389 0.0
H632 H 0.84422 0.37607 0.51887 0.0
C633 C 0.85897 0.33154 0.59325 0.0
C634 C 0.84563 0.34585 0.60589 0.0
C635 C 0.85867 0.33003 0.56655 0.0
C636 C 0.84453 0.36088 0.50941 0.0
H637 H 0.86975 0.31698 0.39093 0.0
H638 H 0.86873 0.31604 0.43765 0.0
H639 H 0.8442 0.37513 0.47235 0.0
H640 H 0.82122 0.36949 0.60062 0.0
H641 H 0.82061 0.36678 0.55416 0.0
H642 H 0.84667 0.30797 0.52114 0.0
C643 C 0.85837 0.32685 0.42764 0.0
C644 C 0.8445 0.36033 0.48273 0.0
C645 C 0.85903 0.32745 0.4009 0.0
C646 C 0.83178 0.35839 0.59141 0.0
C647 C 0.8315 0.35691 0.56479 0.0
C648 C 0.84625 0.32272 0.51065 0.0
C649 C 0.84505 0.34062 0.44124 0.0
C650 C 0.8452 0.34098 0.46965 0.0
C651 C 0.84507 0.34287 0.55204 0.0
C652 C 0.84531 0.34209 0.52367 0.0
H653 H 0.82269 0.36635 0.39086 0.0
H654 H 0.8213 0.3651 0.4374 0.0
H655 H 0.84654 0.307 0.47437 0.0
H656 H 0.86981 0.32168 0.60395 0.0
H657 H 0.86942 0.31918 0.55725 0.0
C658 C 0.63439 0.86715 0.59083 0.0
C659 C 0.63971 0.84909 0.60503 0.0
C660 C 0.63386 0.86644 0.56415 0.0
C661 C 0.65554 0.83775 0.50941 0.0
H662 H 0.60948 0.8638 0.47205 0.0
C663 C 0.64896 0.83168 0.39961 0.0
C664 C 0.64221 0.84976 0.38637 0.0
C665 C 0.64788 0.83086 0.42629 0.0
C666 C 0.62259 0.85666 0.48217 0.0
H667 H 0.64857 0.81609 0.60254 0.0
H668 H 0.64777 0.8149 0.55578 0.0
H669 H 0.60902 0.86373 0.51871 0.0
H670 H 0.62909 0.88117 0.39057 0.0
H671 H 0.62768 0.87998 0.43715 0.0
H672 H 0.66938 0.83107 0.47301 0.0
C673 C 0.64407 0.8296 0.56533 0.0
C674 C 0.62228 0.85658 0.50889 0.0
C675 C 0.64443 0.83026 0.59206 0.0
C676 C 0.63432 0.86698 0.40028 0.0
C677 C 0.63339 0.86623 0.42697 0.0
C678 C 0.65594 0.83797 0.48269 0.0
C679 C 0.63879 0.8477 0.55112 0.0
C680 C 0.63879 0.84719 0.52278 0.0
C681 C 0.64018 0.84816 0.44031 0.0
C682 C 0.63951 0.8475 0.46874 0.0
H683 H 0.63068 0.88188 0.60033 0.0
H684 H 0.62996 0.88069 0.55368 0.0
H685 H 0.66861 0.83064 0.51963 0.0
H686 H 0.65501 0.81811 0.38936 0.0
H687 H 0.65293 0.81657 0.4359 0.0
C688 C 0.16869 0.57118 0.2865 0.0
C689 C 0.15525 0.5858 0.27455 0.0
C690 C 0.17121 0.55093 0.27641 0.0
C691 C 0.16296 0.51868 0.21822 0.0
H692 H 0.15894 0.47243 0.26661 0.0
C693 C 0.14513 0.43299 0.18776 0.0
C694 C 0.15511 0.41656 0.20117 0.0
C695 C 0.14754 0.45391 0.19563 0.0
C696 C 0.16045 0.48513 0.25285 0.0
H697 H 0.1344 0.59096 0.24225 0.0
H698 H 0.13867 0.55556 0.22471 0.0
H699 H 0.15919 0.50859 0.28217 0.0
H700 H 0.17597 0.40915 0.23281 0.0
H701 H 0.18042 0.44569 0.24636 0.0
H702 H 0.16393 0.49516 0.18886 0.0
C703 C 0.14742 0.55978 0.24175 0.0
C704 C 0.16059 0.50588 0.26178 0.0
C705 C 0.14487 0.58001 0.25188 0.0
C706 C 0.16798 0.42149 0.22219 0.0
C707 C 0.17043 0.4424 0.23003 0.0
C708 C 0.16286 0.4979 0.20927 0.0
C709 C 0.16036 0.5449 0.25413 0.0
C710 C 0.16163 0.52289 0.24457 0.0
C711 C 0.16002 0.45884 0.21705 0.0
C712 C 0.1614 0.4809 0.22648 0.0
H713 H 0.17697 0.57523 0.30395 0.0
H714 H 0.18152 0.53991 0.28618 0.0
H715 H 0.16405 0.53146 0.2045 0.0
H716 H 0.13508 0.42965 0.17149 0.0
H717 H 0.13909 0.46615 0.18539 0.0
C718 C 0.5752 0.14491 0.23773 0.0
C719 C 0.57988 0.1452 0.21148 0.0
C720 C 0.55426 0.14548 0.24612 0.0
C721 C 0.49963 0.13546 0.22401 0.0
H722 H 0.48448 0.16712 0.28475 0.0
C723 C 0.41307 0.14773 0.25555 0.0
C724 C 0.40879 0.14478 0.28168 0.0
C725 C 0.43389 0.14845 0.24674 0.0
C726 C 0.48851 0.15808 0.26786 0.0
H727 H 0.56641 0.14667 0.1734 0.0
H728 H 0.5299 0.14815 0.18799 0.0
H729 H 0.52093 0.16731 0.26977 0.0
H730 H 0.4229 0.14043 0.31911 0.0
H731 H 0.45924 0.14169 0.30374 0.0
H732 H 0.46715 0.12636 0.22206 0.0
C733 C 0.54233 0.14702 0.20214 0.0
C734 C 0.50941 0.15814 0.2593 0.0
C735 C 0.56326 0.14631 0.19377 0.0
C736 C 0.42572 0.14276 0.29886 0.0
C737 C 0.44652 0.14359 0.29008 0.0
C738 C 0.47873 0.1355 0.23249 0.0
C739 C 0.53755 0.14649 0.22842 0.0
C740 C 0.51525 0.14676 0.23732 0.0
C741 C 0.45084 0.14635 0.26392 0.0
C742 C 0.47296 0.14674 0.25457 0.0
H743 H 0.5877 0.14395 0.25182 0.0
H744 H 0.55117 0.14473 0.26648 0.0
H745 H 0.50362 0.12622 0.20727 0.0
H746 H 0.40033 0.14937 0.24186 0.0
H747 H 0.43674 0.15081 0.2265 0.0
C748 C 0.84288 0.56084 0.18389 0.0
C749 C 0.83889 0.57685 0.20181 0.0
C750 C 0.8409 0.53962 0.19082 0.0
C751 C 0.81907 0.50415 0.24107 0.0
H752 H 0.86339 0.46634 0.21826 0.0
C753 C 0.83776 0.42504 0.29059 0.0
C754 C 0.84242 0.40759 0.27503 0.0
C755 C 0.83514 0.44505 0.27984 0.0
C756 C 0.85073 0.47662 0.22449 0.0
H757 H 0.82924 0.5833 0.24082 0.0
H758 H 0.82621 0.54635 0.2531 0.0
H759 H 0.86257 0.50255 0.20263 0.0
H760 H 0.84773 0.39729 0.23601 0.0
H761 H 0.8433 0.43238 0.2172 0.0
H762 H 0.80768 0.47829 0.26358 0.0
C763 C 0.8305 0.55009 0.23356 0.0
C764 C 0.85022 0.49737 0.2155 0.0
C765 C 0.83237 0.57128 0.22658 0.0
C766 C 0.84418 0.41048 0.24847 0.0
C767 C 0.84173 0.43055 0.23772 0.0
C768 C 0.81968 0.48343 0.25019 0.0
C769 C 0.835 0.53399 0.21586 0.0
C770 C 0.83453 0.51148 0.22393 0.0
C771 C 0.83728 0.44805 0.25332 0.0
C772 C 0.83567 0.46953 0.24223 0.0
H773 H 0.84782 0.56468 0.1646 0.0
H774 H 0.84414 0.52764 0.17659 0.0
H775 H 0.80655 0.51447 0.24759 0.0
H776 H 0.8363 0.42328 0.31114 0.0
H777 H 0.83197 0.45828 0.29238 0.0
C778 C 0.5773 0.85849 0.26002 0.0
C779 C 0.58456 0.84542 0.27987 0.0
C780 C 0.55667 0.85668 0.251 0.0
C781 C 0.5039 0.83867 0.26966 0.0
H782 H 0.49282 0.84174 0.19677 0.0
C783 C 0.4199 0.82975 0.22801 0.0
C784 C 0.41438 0.84377 0.20828 0.0
C785 C 0.4408 0.82832 0.23638 0.0
C786 C 0.49563 0.84104 0.2172 0.0
H787 H 0.57597 0.82014 0.30584 0.0
H788 H 0.53977 0.81696 0.29002 0.0
H789 H 0.52912 0.84219 0.21217 0.0
H790 H 0.42634 0.86723 0.18177 0.0
H791 H 0.4627 0.86501 0.19662 0.0
H792 H 0.4704 0.83791 0.27475 0.0
C793 C 0.55006 0.82869 0.28156 0.0
C794 C 0.51642 0.84127 0.226 0.0
C795 C 0.57078 0.83044 0.29052 0.0
C796 C 0.43015 0.85621 0.19694 0.0
C797 C 0.45101 0.85483 0.20535 0.0
C798 C 0.48308 0.83851 0.26086 0.0
C799 C 0.54281 0.8418 0.2617 0.0
C800 C 0.52077 0.84031 0.25234 0.0
C801 C 0.45658 0.84091 0.22522 0.0
C802 C 0.4787 0.83993 0.23453 0.0
H803 H 0.58755 0.87023 0.25148 0.0
H804 H 0.55145 0.86722 0.23594 0.0
H805 H 0.50675 0.83815 0.29009 0.0
H806 H 0.40807 0.81992 0.23703 0.0
H807 H 0.44462 0.81725 0.2515 0.0
C808 C 0.81506 0.56726 0.79759 0.0
C809 C 0.82325 0.58211 0.78026 0.0
C810 C 0.81134 0.5465 0.78985 0.0
C811 C 0.80638 0.51181 0.73309 0.0
H812 H 0.8315 0.46956 0.7774 0.0
C813 C 0.83226 0.43044 0.69649 0.0
C814 C 0.83024 0.4128 0.71259 0.0
C815 C 0.82744 0.45061 0.70544 0.0
C816 C 0.82402 0.48105 0.765 0.0
H817 H 0.83291 0.58723 0.74095 0.0
H818 H 0.82645 0.55101 0.72743 0.0
H819 H 0.82936 0.50604 0.79168 0.0
H820 H 0.82109 0.40234 0.7505 0.0
H821 H 0.81249 0.43768 0.76616 0.0
H822 H 0.80149 0.48688 0.70616 0.0
C823 C 0.8228 0.55538 0.74696 0.0
C824 C 0.82279 0.50199 0.7732 0.0
C825 C 0.82661 0.57611 0.75473 0.0
C826 C 0.82289 0.41568 0.73771 0.0
C827 C 0.81805 0.43591 0.74668 0.0
C828 C 0.80754 0.49085 0.72492 0.0
C829 C 0.81563 0.54022 0.76459 0.0
C830 C 0.81439 0.51767 0.7571 0.0
C831 C 0.82044 0.45363 0.7307 0.0
C832 C 0.81683 0.47533 0.74054 0.0
H833 H 0.81225 0.57146 0.81739 0.0
H834 H 0.80556 0.53522 0.80377 0.0
H835 H 0.79954 0.5235 0.72042 0.0
H836 H 0.8379 0.42873 0.67704 0.0
H837 H 0.82982 0.46391 0.69274 0.0
C838 C 0.57297 0.82073 0.71276 0.0
C839 C 0.5791 0.83998 0.70167 0.0
C840 C 0.55206 0.81755 0.72039 0.0
C841 C 0.49777 0.8378 0.71176 0.0
H842 H 0.48848 0.81565 0.78004 0.0
C843 C 0.41413 0.8279 0.75379 0.0
C844 C 0.41147 0.83584 0.77867 0.0
C845 C 0.43434 0.82537 0.74351 0.0
C846 C 0.49083 0.82183 0.76092 0.0
H847 H 0.56813 0.87076 0.68926 0.0
H848 H 0.53172 0.86523 0.7026 0.0
H849 H 0.52425 0.8171 0.76277 0.0
H850 H 0.42782 0.84683 0.81256 0.0
H851 H 0.46307 0.84252 0.7946 0.0
H852 H 0.46446 0.84321 0.71023 0.0
C853 C 0.54297 0.85253 0.70525 0.0
C854 C 0.51127 0.82246 0.75093 0.0
C855 C 0.56386 0.85576 0.69776 0.0
C856 C 0.42939 0.84068 0.79332 0.0
C857 C 0.44958 0.83807 0.78309 0.0
C858 C 0.47732 0.83708 0.72169 0.0
C859 C 0.53689 0.83349 0.7169 0.0
C860 C 0.515 0.83082 0.72643 0.0
C861 C 0.45227 0.83063 0.75797 0.0
C862 C 0.47368 0.82945 0.74657 0.0
H863 H 0.58439 0.80828 0.71595 0.0
H864 H 0.54778 0.80264 0.72913 0.0
H865 H 0.50014 0.84412 0.69271 0.0
H866 H 0.40059 0.82397 0.74209 0.0
H867 H 0.43593 0.8194 0.7242 0.0
C868 C 0.16368 0.41967 0.75322 0.0
C869 C 0.16545 0.41382 0.77905 0.0
C870 C 0.16835 0.44024 0.74549 0.0
C871 C 0.16979 0.49411 0.77105 0.0
H872 H 0.19359 0.50724 0.70455 0.0
C873 C 0.17459 0.57969 0.73462 0.0
C874 C 0.1665 0.58264 0.70985 0.0
C875 C 0.1792 0.5594 0.74357 0.0
C876 C 0.18693 0.50381 0.72318 0.0
H877 H 0.1744 0.42458 0.81688 0.0
H878 H 0.1828 0.46049 0.80333 0.0
H879 H 0.19323 0.47074 0.71959 0.0
H880 H 0.15783 0.56686 0.67461 0.0
H881 H 0.16574 0.5315 0.69023 0.0
H882 H 0.16297 0.52703 0.77438 0.0
C883 C 0.17747 0.44928 0.78912 0.0
C884 C 0.18669 0.48292 0.73178 0.0
C885 C 0.17275 0.4287 0.79686 0.0
C886 C 0.16401 0.56506 0.69381 0.0
C887 C 0.16868 0.54481 0.70271 0.0
C888 C 0.17008 0.51498 0.76248 0.0
C889 C 0.17496 0.45539 0.76342 0.0
C890 C 0.17767 0.47777 0.75557 0.0
C891 C 0.17589 0.54171 0.72788 0.0
C892 C 0.1782 0.52 0.73821 0.0
H893 H 0.15809 0.40853 0.73906 0.0
H894 H 0.16597 0.44447 0.72562 0.0
H895 H 0.16247 0.49069 0.78931 0.0
H896 H 0.17675 0.59298 0.74737 0.0
H897 H 0.18496 0.55752 0.76295 0.0
C898 C 0.41599 0.16298 0.72521 0.0
C899 C 0.41027 0.14683 0.70821 0.0
C900 C 0.43681 0.16473 0.73382 0.0
C901 C 0.49149 0.14706 0.71909 0.0
H902 H 0.50185 0.1622 0.78981 0.0
C903 C 0.57605 0.1573 0.75801 0.0
C904 C 0.58008 0.14942 0.78265 0.0
C905 C 0.55536 0.15872 0.74887 0.0
C906 C 0.49925 0.1578 0.77005 0.0
H907 H 0.42176 0.11979 0.68697 0.0
H908 H 0.45786 0.12245 0.70246 0.0
H909 H 0.46579 0.16078 0.77396 0.0
H910 H 0.56569 0.13695 0.81711 0.0
H911 H 0.5297 0.13886 0.801 0.0
H912 H 0.52485 0.14315 0.71547 0.0
C913 C 0.44648 0.13411 0.70872 0.0
C914 C 0.47855 0.15728 0.76085 0.0
C915 C 0.42573 0.13248 0.69997 0.0
C916 C 0.56305 0.14317 0.79807 0.0
C917 C 0.54239 0.14441 0.78887 0.0
C918 C 0.51217 0.14743 0.72834 0.0
C919 C 0.45231 0.15027 0.72575 0.0
C920 C 0.47439 0.15173 0.73529 0.0
C921 C 0.53827 0.15211 0.7641 0.0
C922 C 0.51631 0.15265 0.75399 0.0
H923 H 0.4044 0.17432 0.73178 0.0
H924 H 0.44078 0.17754 0.74663 0.0
H925 H 0.48894 0.14305 0.6992 0.0
H926 H 0.58887 0.16235 0.74576 0.0
H927 H 0.55278 0.16505 0.72988 0.0
C928 C 0.66515 0.0767 0.76166 0.0
C929 C 0.65333 0.08071 0.78387 0.0
C930 C 0.6687 0.05596 0.75357 0.0
C931 C 0.66764 0.00052 0.77626 0.0
H932 H 0.6595 0.98726 0.70455 0.0
C933 C 0.65063 0.91653 0.73999 0.0
C934 C 0.6591 0.91029 0.71635 0.0
C935 C 0.65333 0.93716 0.74876 0.0
C936 C 0.6622 0.99073 0.72456 0.0
H937 H 0.63607 0.06622 0.81511 0.0
H938 H 0.64201 0.03015 0.80088 0.0
H939 H 0.65774 0.02385 0.71865 0.0
H940 H 0.67775 0.92044 0.6838 0.0
H941 H 0.68259 0.9565 0.69923 0.0
H942 H 0.67162 0.96733 0.78225 0.0
C943 C 0.64883 0.04294 0.78988 0.0
C944 C 0.66118 0.01171 0.73265 0.0
C945 C 0.64527 0.06363 0.79793 0.0
C946 C 0.67097 0.92484 0.70207 0.0
C947 C 0.67364 0.94551 0.71082 0.0
C948 C 0.66865 0.97954 0.76818 0.0
C949 C 0.66053 0.03885 0.76758 0.0
C950 C 0.66351 0.01681 0.75866 0.0
C951 C 0.66454 0.95199 0.73407 0.0
C952 C 0.66558 0.97438 0.74231 0.0
H953 H 0.67162 0.08958 0.7505 0.0
H954 H 0.67792 0.05331 0.73642 0.0
H955 H 0.6699 0.00397 0.79636 0.0
H956 H 0.64138 0.90566 0.7514 0.0
H957 H 0.64591 0.94169 0.7666 0.0
C958 C 0.91899 0.66203 0.77675 0.0
C959 C 0.90966 0.64258 0.78296 0.0
C960 C 0.93974 0.66282 0.76769 0.0
C961 C 0.98031 0.62987 0.73665 0.0
H962 H 0.01932 0.67212 0.76185 0.0
C963 C 0.06951 0.62499 0.71727 0.0
C964 C 0.0802 0.64379 0.71144 0.0
C965 C 0.04855 0.62549 0.72546 0.0
C966 C 0.00854 0.66039 0.75438 0.0
H967 H 0.91474 0.60877 0.78481 0.0
H968 H 0.95094 0.61016 0.7692 0.0
H969 H 0.98295 0.67186 0.77728 0.0
H970 H 0.07738 0.67785 0.70954 0.0
H971 H 0.04061 0.67872 0.72364 0.0
H972 H 0.00583 0.61836 0.71381 0.0
C973 C 0.94218 0.62477 0.771 0.0
C974 C 0.98772 0.66024 0.76323 0.0
C975 C 0.92149 0.62398 0.7801 0.0
C976 C 0.06953 0.66311 0.71396 0.0
C977 C 0.04853 0.66362 0.72216 0.0
C978 C 0.00109 0.63004 0.72779 0.0
C979 C 0.95151 0.64418 0.76459 0.0
C980 C 0.97343 0.64486 0.75462 0.0
C981 C 0.03779 0.64479 0.72796 0.0
C982 C 0.0155 0.64518 0.73671 0.0
H983 H 0.91022 0.67661 0.77872 0.0
H984 H 0.94644 0.67799 0.7627 0.0
H985 H 0.96957 0.61806 0.72929 0.0
H986 H 0.07735 0.60986 0.71561 0.0
H987 H 0.04085 0.61073 0.73015 0.0
C988 C 0.33841 0.06174 0.68711 0.0
C989 C 0.33714 0.07806 0.70522 0.0
C990 C 0.33655 0.0407 0.69473 0.0
C991 C 0.31753 0.00623 0.74671 0.0
H992 H 0.35978 0.9673 0.72108 0.0
C993 C 0.33225 0.92446 0.79214 0.0
C994 C 0.33808 0.9077 0.77607 0.0
C995 C 0.33008 0.94487 0.78235 0.0
C996 C 0.34762 0.97783 0.72809 0.0
H997 H 0.33238 0.08522 0.74536 0.0
H998 H 0.32912 0.0484 0.75868 0.0
H999 H 0.35953 0.00365 0.70602 0.0
H1000 H 0.34549 0.89895 0.737 0.0
H1001 H 0.34126 0.93449 0.71976 0.0
H1002 H 0.30563 0.98041 0.76884 0.0
C1003 C 0.33146 0.0519 0.73859 0.0
C1004 C 0.34752 -0.00131 0.71949 0.0
C1005 C 0.33344 0.07296 0.73099 0.0
C1006 C 0.34111 0.91161 0.74988 0.0
C1007 C 0.33881 0.93199 0.74004 0.0
C1008 C 0.31754 0.9853 0.75521 0.0
C1009 C 0.33327 0.03554 0.72058 0.0
C1010 C 0.3326 0.01316 0.72887 0.0
C1011 C 0.33359 0.94894 0.75623 0.0
C1012 C 0.33272 0.97089 0.74618 0.0
H1013 H 0.34118 0.0652 0.66709 0.0
H1014 H 0.33777 0.02843 0.68038 0.0
H1015 H 0.30568 0.01697 0.75403 0.0
H1016 H 0.32987 0.92192 0.81244 0.0
H1017 H 0.32632 0.95756 0.79545 0.0
C1018 C 0.07085 0.36873 0.77052 0.0
C1019 C 0.08285 0.3503 0.77392 0.0
C1020 C 0.05034 0.36764 0.76086 0.0
C1021 C 0.00505 0.33216 0.75429 0.0
H1022 H 0.98675 0.37285 0.70343 0.0
C1023 C 0.92147 0.33007 0.7094 0.0
C1024 C 0.91143 0.34964 0.70594 0.0
C1025 C 0.94276 0.32914 0.71641 0.0
C1026 C 0.99153 0.3615 0.71781 0.0
H1027 H 0.08282 0.31625 0.76995 0.0
H1028 H 0.0468 0.31433 0.75317 0.0
H1029 H 0.02325 0.37306 0.71806 0.0
H1030 H 0.91571 0.38356 0.70723 0.0
H1031 H 0.95262 0.38198 0.71987 0.0
H1032 H 0.97323 0.32088 0.75446 0.0
C1033 C 0.0533 0.32961 0.75803 0.0
C1034 C 0.01246 0.3616 0.72615 0.0
C1035 C 0.07392 0.33072 0.76752 0.0
C1036 C 0.92305 0.36823 0.70963 0.0
C1037 C 0.94426 0.36732 0.71671 0.0
C1038 C 0.98405 0.33213 0.74605 0.0
C1039 C 0.04133 0.34808 0.75455 0.0
C1040 C 0.0194 0.3471 0.74468 0.0
C1041 C 0.95441 0.34777 0.72016 0.0
C1042 C 0.97698 0.34697 0.72793 0.0
H1043 H 0.07729 0.38405 0.7753 0.0
H1044 H 0.04142 0.38213 0.7587 0.0
H1045 H 0.0099 0.32092 0.76877 0.0
H1046 H 0.91291 0.31547 0.70661 0.0
H1047 H 0.95014 0.31383 0.71864 0.0
C1048 C 0.34123 0.06116 0.30817 0.0
C1049 C 0.33643 0.07702 0.29029 0.0
C1050 C 0.33881 0.0399 0.30177 0.0
C1051 C 0.31326 0.00392 0.25545 0.0
H1052 H 0.35971 0.96663 0.27262 0.0
C1053 C 0.32685 0.92364 0.20621 0.0
C1054 C 0.33542 0.90704 0.2207 0.0
C1055 C 0.32433 0.94365 0.21697 0.0
C1056 C 0.3464 0.97669 0.26807 0.0
H1057 H 0.3249 0.08314 0.25194 0.0
H1058 H 0.32088 0.04601 0.24067 0.0
H1059 H 0.36024 0.00303 0.28727 0.0
H1060 H 0.34711 0.89803 0.25813 0.0
H1061 H 0.34239 0.9329 0.27708 0.0
H1062 H 0.2996 0.9776 0.23588 0.0
C1063 C 0.32629 0.04999 0.25971 0.0
C1064 C 0.34673 -0.00241 0.27645 0.0
C1065 C 0.32873 0.07125 0.2661 0.0
C1066 C 0.34061 0.91059 0.24645 0.0
C1067 C 0.33802 0.93058 0.25725 0.0
C1068 C 0.31291 0.98297 0.24711 0.0
C1069 C 0.33152 0.03408 0.27739 0.0
C1070 C 0.33031 0.01151 0.26996 0.0
C1071 C 0.33025 0.94745 0.24248 0.0
C1072 C 0.32962 0.96919 0.25305 0.0
H1073 H 0.34707 0.06515 0.32702 0.0
H1074 H 0.34272 0.02801 0.31591 0.0
H1075 H 0.30023 0.0142 0.25046 0.0
H1076 H 0.32273 0.92137 0.18629 0.0
H1077 H 0.31852 0.95633 0.20497 0.0
C1078 C 0.93165 0.3524 0.30452 0.0
C1079 C 0.91622 0.34212 0.28984 0.0
C1080 C 0.95295 0.35106 0.29777 0.0
C1081 C 0.99095 0.32017 0.25898 0.0
H1082 H 0.02379 0.37174 0.26093 0.0
C1083 C 0.07077 0.32996 0.2068 0.0
C1084 C 0.08652 0.34195 0.21884 0.0
C1085 C 0.05066 0.32836 0.21761 0.0
C1086 C 0.01496 0.35711 0.26065 0.0
H1087 H 0.91096 0.32211 0.25684 0.0
H1088 H 0.94811 0.31998 0.24484 0.0
H1089 H 0.98739 0.37206 0.27576 0.0
H1090 H 0.09384 0.36103 0.25207 0.0
H1091 H 0.05879 0.35808 0.27107 0.0
H1092 H 0.01851 0.30534 0.24345 0.0
C1093 C 0.94381 0.32886 0.26176 0.0
C1094 C 0.99408 0.3573 0.26915 0.0
C1095 C 0.92252 0.33019 0.26853 0.0
C1096 C 0.08198 0.35176 0.24229 0.0
C1097 C 0.06188 0.35017 0.25309 0.0
C1098 C 0.01187 0.31999 0.25045 0.0
C1099 C 0.95926 0.33942 0.27619 0.0
C1100 C 0.98177 0.33888 0.26823 0.0
C1101 C 0.04589 0.33874 0.24066 0.0
C1102 C 0.02405 0.33851 0.25101 0.0
H1103 H 0.92728 0.36162 0.32114 0.0
H1104 H 0.96448 0.35914 0.30949 0.0
H1105 H 0.98199 0.30564 0.25838 0.0
H1106 H 0.07381 0.32223 0.18869 0.0
H1107 H 0.03864 0.3196 0.20742 0.0
C1108 C 0.66451 0.91702 0.25621 0.0
C1109 C 0.66671 0.91155 0.2821 0.0
C1110 C 0.66752 0.93783 0.24822 0.0
C1111 C 0.66492 0.99185 0.27366 0.0
H1112 H 0.68563 0.00656 0.20612 0.0
C1113 C 0.66609 0.07781 0.23697 0.0
C1114 C 0.65744 0.08072 0.21247 0.0
C1115 C 0.67067 0.05754 0.24595 0.0
C1116 C 0.67979 0.00266 0.22503 0.0
H1117 H 0.67496 0.92324 0.31975 0.0
H1118 H 0.68071 0.95955 0.30572 0.0
H1119 H 0.68856 0.9702 0.22122 0.0
H1120 H 0.64724 0.0648 0.17793 0.0
H1121 H 0.65519 0.0294 0.19362 0.0
H1122 H 0.65592 0.02425 0.27731 0.0
C1123 C 0.67616 0.94787 0.29166 0.0
C1124 C 0.68143 0.98185 0.23367 0.0
C1125 C 0.673 0.92706 0.29968 0.0
C1126 C 0.65385 0.06303 0.19692 0.0
C1127 C 0.65856 0.04278 0.20582 0.0
C1128 C 0.66342 0.01267 0.26508 0.0
C1129 C 0.67295 0.9536 0.26594 0.0
C1130 C 0.67361 0.9761 0.25788 0.0
C1131 C 0.66684 0.03981 0.23051 0.0
C1132 C 0.67043 0.0182 0.24048 0.0
H1133 H 0.65964 0.90541 0.24222 0.0
H1134 H 0.66465 0.94168 0.22833 0.0
H1135 H 0.65842 0.98797 0.29224 0.0
H1136 H 0.66911 0.09118 0.24934 0.0
H1137 H 0.67719 0.05572 0.26498 0.0
C1138 C 0.06268 0.64444 0.30912 0.0
C1139 C 0.07823 0.65319 0.29318 0.0
C1140 C 0.04137 0.64599 0.30258 0.0
C1141 C 0.00361 0.67495 0.2616 0.0
H1142 H 0.97094 0.62338 0.26618 0.0
C1143 C 0.92446 0.66328 0.20893 0.0
C1144 C 0.90872 0.65131 0.22105 0.0
C1145 C 0.94441 0.6653 0.22003 0.0
C1146 C 0.97969 0.63803 0.26518 0.0
H1147 H 0.08372 0.67092 0.2583 0.0
H1148 H 0.04648 0.67353 0.24679 0.0
H1149 H 0.00714 0.62381 0.2816 0.0
H1150 H 0.90117 0.63274 0.25468 0.0
H1151 H 0.93588 0.63655 0.27428 0.0
H1152 H 0.97618 0.68909 0.24489 0.0
C1153 C 0.05073 0.66562 0.26444 0.0
C1154 C 0.00047 0.63826 0.274 0.0
C1155 C 0.07206 0.66401 0.27094 0.0
C1156 C 0.91306 0.64195 0.24483 0.0
C1157 C 0.93297 0.64403 0.25598 0.0
C1158 C 0.98278 0.67474 0.25284 0.0
C1159 C 0.03519 0.65637 0.28001 0.0
C1160 C 0.01272 0.65665 0.27207 0.0
C1161 C 0.94898 0.65546 0.24352 0.0
C1162 C 0.97065 0.65621 0.25429 0.0
H1163 H 0.06698 0.63609 0.32645 0.0
H1164 H 0.02973 0.63894 0.31512 0.0
H1165 H 0.0126 0.68943 0.26017 0.0
H1166 H 0.92156 0.67066 0.19056 0.0
H1167 H 0.95644 0.674 0.20977 0.0
loop_
_geom_bond_atom_site_label_1
_geom_bond_atom_site_label_2
_geom_bond_distance
_geom_bond_site_symmetry_2
_ccdc_geom_bond_type
In0 O1 2.294 . S
In0 O2 2.326 . S
In0 O6 2.266 . S
In0 O7 2.326 . S
In0 O8 2.266 . S
In0 O9 2.326 . S
In0 O11 2.294 . S
In0 O12 2.326 . S
O1 In0 2.294 . S
O1 C10 1.240 . S
O2 In0 2.326 . S
O2 C10 1.252 . S
C3 O6 1.252 . S
C3 O7 1.260 . S
C4 O11 1.240 . S
C4 O12 1.252 . S
C5 O8 1.252 . S
C5 O9 1.260 . S
O6 In0 2.266 . S
O6 C3 1.252 . S
O7 In0 2.326 . S
O7 C3 1.260 . S
O8 In0 2.266 . S
O8 C5 1.252 . S
O9 In0 2.326 . S
O9 C5 1.260 . S
C10 O1 1.240 . S
C10 O2 1.252 . S
O11 In0 2.294 . S
O11 C4 1.240 . S
O12 In0 2.326 . S
O12 C4 1.252 . S
In13 O14 2.294 . S
In13 O15 2.326 . S
In13 O19 2.266 . S
In13 O20 2.326 . S
In13 O21 2.266 . S
In13 O22 2.326 . S
In13 O24 2.294 . S
In13 O25 2.326 . S
O14 In13 2.294 . S
O14 C23 1.240 . S
O15 In13 2.326 . S
O15 C23 1.252 . S
C16 O19 1.252 . S
C16 O20 1.260 . S
C17 O24 1.240 . S
C17 O25 1.252 . S
C18 O21 1.252 . S
C18 O22 1.260 . S
O19 In13 2.266 . S
O19 C16 1.252 . S
O20 In13 2.326 . S
O20 C16 1.260 . S
O21 In13 2.266 . S
O21 C18 1.252 . S
O22 In13 2.326 . S
O22 C18 1.260 . S
C23 O14 1.240 . S
C23 O15 1.252 . S
O24 In13 2.294 . S
O24 C17 1.240 . S
O25 In13 2.326 . S
O25 C17 1.252 . S
In26 O27 2.294 . S
In26 O28 2.326 . S
In26 O32 2.266 . S
In26 O33 2.326 . S
In26 O34 2.266 . S
In26 O35 2.326 . S
In26 O37 2.294 . S
In26 O38 2.326 . S
O27 In26 2.294 . S
O27 C36 1.240 . S
O28 In26 2.326 . S
O28 C36 1.252 . S
C29 O32 1.252 . S
C29 O33 1.260 . S
C30 O37 1.240 . S
C30 O38 1.252 . S
C31 O34 1.252 . S
C31 O35 1.260 . S
O32 In26 2.266 . S
O32 C29 1.252 . S
O33 In26 2.326 . S
O33 C29 1.260 . S
O34 In26 2.266 . S
O34 C31 1.252 . S
O35 In26 2.326 . S
O35 C31 1.260 . S
C36 O27 1.240 . S
C36 O28 1.252 . S
O37 In26 2.294 . S
O37 C30 1.240 . S
O38 In26 2.326 . S
O38 C30 1.252 . S
In39 O40 2.294 . S
In39 O41 2.326 . S
In39 O45 2.266 . S
In39 O46 2.326 . S
In39 O47 2.266 . S
In39 O48 2.326 . S
In39 O50 2.294 . S
In39 O51 2.326 . S
O40 In39 2.294 . S
O40 C49 1.240 . S
O41 In39 2.326 . S
O41 C49 1.252 . S
C42 O45 1.252 . S
C42 O46 1.260 . S
C43 O50 1.240 . S
C43 O51 1.252 . S
C44 O47 1.252 . S
C44 O48 1.260 . S
O45 In39 2.266 . S
O45 C42 1.252 . S
O46 In39 2.326 . S
O46 C42 1.260 . S
O47 In39 2.266 . S
O47 C44 1.252 . S
O48 In39 2.326 . S
O48 C44 1.260 . S
C49 O40 1.240 . S
C49 O41 1.252 . S
O50 In39 2.294 . S
O50 C43 1.240 . S
O51 In39 2.326 . S
O51 C43 1.252 . S
In52 O53 2.294 . S
In52 O54 2.326 . S
In52 O58 2.266 . S
In52 O59 2.326 . S
In52 O60 2.266 . S
In52 O61 2.326 . S
In52 O63 2.294 . S
In52 O64 2.326 . S
O53 In52 2.294 . S
O53 C62 1.240 . S
O54 In52 2.326 . S
O54 C62 1.252 . S
C55 O58 1.252 . S
C55 O59 1.260 . S
C56 O63 1.240 . S
C56 O64 1.252 . S
C57 O60 1.252 . S
C57 O61 1.260 . S
O58 In52 2.266 . S
O58 C55 1.252 . S
O59 In52 2.326 . S
O59 C55 1.260 . S
O60 In52 2.266 . S
O60 C57 1.252 . S
O61 In52 2.326 . S
O61 C57 1.260 . S
C62 O53 1.240 . S
C62 O54 1.252 . S
O63 In52 2.294 . S
O63 C56 1.240 . S
O64 In52 2.326 . S
O64 C56 1.252 . S
In65 O66 2.294 . S
In65 O67 2.326 . S
In65 O71 2.266 . S
In65 O72 2.326 . S
In65 O73 2.266 . S
In65 O74 2.326 . S
In65 O76 2.294 . S
In65 O77 2.326 . S
O66 In65 2.294 . S
O66 C75 1.240 . S
O67 In65 2.326 . S
O67 C75 1.252 . S
C68 O71 1.252 . S
C68 O72 1.260 . S
C69 O76 1.240 . S
C69 O77 1.252 . S
C70 O73 1.252 . S
C70 O74 1.260 . S
O71 In65 2.266 . S
O71 C68 1.252 . S
O72 In65 2.326 . S
O72 C68 1.260 . S
O73 In65 2.266 . S
O73 C70 1.252 . S
O74 In65 2.326 . S
O74 C70 1.260 . S
C75 O66 1.240 . S
C75 O67 1.252 . S
O76 In65 2.294 . S
O76 C69 1.240 . S
O77 In65 2.326 . S
O77 C69 1.252 . S
In78 O79 2.294 . S
In78 O80 2.326 . S
In78 O84 2.266 . S
In78 O85 2.326 . S
In78 O86 2.266 . S
In78 O87 2.326 . S
In78 O89 2.294 . S
In78 O90 2.326 . S
O79 In78 2.294 . S
O79 C88 1.240 . S
O80 In78 2.326 . S
O80 C88 1.252 . S
C81 O84 1.252 . S
C81 O85 1.260 . S
C82 O89 1.240 . S
C82 O90 1.252 . S
C83 O86 1.252 . S
C83 O87 1.260 . S
O84 In78 2.266 . S
O84 C81 1.252 . S
O85 In78 2.326 . S
O85 C81 1.260 . S
O86 In78 2.266 . S
O86 C83 1.252 . S
O87 In78 2.326 . S
O87 C83 1.260 . S
C88 O79 1.240 . S
C88 O80 1.252 . S
O89 In78 2.294 . S
O89 C82 1.240 . S
O90 In78 2.326 . S
O90 C82 1.252 . S
In91 O92 2.294 . S
In91 O93 2.326 . S
In91 O97 2.266 . S
In91 O98 2.326 . S
In91 O99 2.266 . S
In91 O100 2.326 . S
In91 O102 2.294 . S
In91 O103 2.326 . S
O92 In91 2.294 . S
O92 C101 1.240 . S
O93 In91 2.326 . S
O93 C101 1.252 . S
C94 O97 1.252 . S
C94 O98 1.260 . S
C95 O102 1.240 . S
C95 O103 1.252 . S
C96 O99 1.252 . S
C96 O100 1.260 . S
O97 In91 2.266 . S
O97 C94 1.252 . S
O98 In91 2.326 . S
O98 C94 1.260 . S
O99 In91 2.266 . S
O99 C96 1.252 . S
O100 In91 2.326 . S
O100 C96 1.260 . S
C101 O92 1.240 . S
C101 O93 1.252 . S
O102 In91 2.294 . S
O102 C95 1.240 . S
O103 In91 2.326 . S
O103 C95 1.252 . S
In104 O105 2.294 . S
In104 O106 2.326 . S
In104 O110 2.266 . S
In104 O111 2.326 . S
In104 O112 2.266 . S
In104 O113 2.326 . S
In104 O115 2.294 . S
In104 O116 2.326 . S
O105 In104 2.294 . S
O105 C114 1.240 . S
O106 In104 2.326 . S
O106 C114 1.252 . S
C107 O110 1.252 . S
C107 O111 1.260 . S
C108 O115 1.240 . S
C108 O116 1.252 . S
C109 O112 1.252 . S
C109 O113 1.260 . S
O110 In104 2.266 . S
O110 C107 1.252 . S
O111 In104 2.326 . S
O111 C107 1.260 . S
O112 In104 2.266 . S
O112 C109 1.252 . S
O113 In104 2.326 . S
O113 C109 1.260 . S
C114 O105 1.240 . S
C114 O106 1.252 . S
O115 In104 2.294 . S
O115 C108 1.240 . S
O116 In104 2.326 . S
O116 C108 1.252 . S
In117 O118 2.294 . S
In117 O119 2.326 . S
In117 O123 2.266 . S
In117 O124 2.326 . S
In117 O125 2.266 . S
In117 O126 2.326 . S
In117 O128 2.294 . S
In117 O129 2.326 . S
O118 In117 2.294 . S
O118 C127 1.240 . S
O119 In117 2.326 . S
O119 C127 1.252 . S
C120 O123 1.252 . S
C120 O124 1.260 . S
C121 O128 1.240 . S
C121 O129 1.252 . S
C122 O125 1.252 . S
C122 O126 1.260 . S
O123 In117 2.266 . S
O123 C120 1.252 . S
O124 In117 2.326 . S
O124 C120 1.260 . S
O125 In117 2.266 . S
O125 C122 1.252 . S
O126 In117 2.326 . S
O126 C122 1.260 . S
C127 O118 1.240 . S
C127 O119 1.252 . S
O128 In117 2.294 . S
O128 C121 1.240 . S
O129 In117 2.326 . S
O129 C121 1.252 . S
In130 O131 2.294 . S
In130 O132 2.326 . S
In130 O136 2.266 . S
In130 O137 2.326 . S
In130 O138 2.266 . S
In130 O139 2.326 . S
In130 O141 2.294 . S
In130 O142 2.326 . S
O131 In130 2.294 . S
O131 C140 1.240 . S
O132 In130 2.326 . S
O132 C140 1.252 . S
C133 O136 1.252 . S
C133 O137 1.260 . S
C134 O141 1.240 . S
C134 O142 1.252 . S
C135 O138 1.252 . S
C135 O139 1.260 . S
O136 In130 2.266 . S
O136 C133 1.252 . S
O137 In130 2.326 . S
O137 C133 1.260 . S
O138 In130 2.266 . S
O138 C135 1.252 . S
O139 In130 2.326 . S
O139 C135 1.260 . S
C140 O131 1.240 . S
C140 O132 1.252 . S
O141 In130 2.294 . S
O141 C134 1.240 . S
O142 In130 2.326 . S
O142 C134 1.252 . S
In143 O144 2.294 . S
In143 O145 2.326 . S
In143 O149 2.266 . S
In143 O150 2.326 . S
In143 O151 2.266 . S
In143 O152 2.326 . S
In143 O154 2.294 . S
In143 O155 2.326 . S
O144 In143 2.294 . S
O144 C153 1.240 . S
O145 In143 2.326 . S
O145 C153 1.252 . S
C146 O149 1.252 . S
C146 O150 1.260 . S
C147 O154 1.240 . S
C147 O155 1.252 . S
C148 O151 1.252 . S
C148 O152 1.260 . S
O149 In143 2.266 . S
O149 C146 1.252 . S
O150 In143 2.326 . S
O150 C146 1.260 . S
O151 In143 2.266 . S
O151 C148 1.252 . S
O152 In143 2.326 . S
O152 C148 1.260 . S
C153 O144 1.240 . S
C153 O145 1.252 . S
O154 In143 2.294 . S
O154 C147 1.240 . S
O155 In143 2.326 . S
O155 C147 1.252 . S
In156 O157 2.294 . S
In156 O158 2.326 . S
In156 O162 2.266 . S
In156 O163 2.326 . S
In156 O164 2.266 . S
In156 O165 2.326 . S
In156 O167 2.294 . S
In156 O168 2.326 . S
O157 In156 2.294 . S
O157 C166 1.240 . S
O158 In156 2.326 . S
O158 C166 1.252 . S
C159 O162 1.252 . S
C159 O163 1.260 . S
C160 O167 1.240 . S
C160 O168 1.252 . S
C161 O164 1.252 . S
C161 O165 1.260 . S
O162 In156 2.266 . S
O162 C159 1.252 . S
O163 In156 2.326 . S
O163 C159 1.260 . S
O164 In156 2.266 . S
O164 C161 1.252 . S
O165 In156 2.326 . S
O165 C161 1.260 . S
C166 O157 1.240 . S
C166 O158 1.252 . S
O167 In156 2.294 . S
O167 C160 1.240 . S
O168 In156 2.326 . S
O168 C160 1.252 . S
In169 O170 2.294 . S
In169 O171 2.326 . S
In169 O175 2.266 . S
In169 O176 2.326 . S
In169 O177 2.266 . S
In169 O178 2.326 . S
In169 O180 2.294 . S
In169 O181 2.326 . S
O170 In169 2.294 . S
O170 C179 1.240 . S
O171 In169 2.326 . S
O171 C179 1.252 . S
C172 O175 1.252 . S
C172 O176 1.260 . S
C173 O180 1.240 . S
C173 O181 1.252 . S
C174 O177 1.252 . S
C174 O178 1.260 . S
O175 In169 2.266 . S
O175 C172 1.252 . S
O176 In169 2.326 . S
O176 C172 1.260 . S
O177 In169 2.266 . S
O177 C174 1.252 . S
O178 In169 2.326 . S
O178 C174 1.260 . S
C179 O170 1.240 . S
C179 O171 1.252 . S
O180 In169 2.294 . S
O180 C173 1.240 . S
O181 In169 2.326 . S
O181 C173 1.252 . S
In182 O183 2.294 . S
In182 O184 2.326 . S
In182 O188 2.266 . S
In182 O189 2.326 . S
In182 O190 2.266 . S
In182 O191 2.326 . S
In182 O193 2.294 . S
In182 O194 2.326 . S
O183 In182 2.294 . S
O183 C192 1.240 . S
O184 In182 2.326 . S
O184 C192 1.252 . S
C185 O188 1.252 . S
C185 O189 1.260 . S
C186 O193 1.240 . S
C186 O194 1.252 . S
C187 O190 1.252 . S
C187 O191 1.260 . S
O188 In182 2.266 . S
O188 C185 1.252 . S
O189 In182 2.326 . S
O189 C185 1.260 . S
O190 In182 2.266 . S
O190 C187 1.252 . S
O191 In182 2.326 . S
O191 C187 1.260 . S
C192 O183 1.240 . S
C192 O184 1.252 . S
O193 In182 2.294 . S
O193 C186 1.240 . S
O194 In182 2.326 . S
O194 C186 1.252 . S
In195 O196 2.294 . S
In195 O197 2.326 . S
In195 O201 2.266 . S
In195 O202 2.326 . S
In195 O203 2.266 . S
In195 O204 2.326 . S
In195 O206 2.294 . S
In195 O207 2.326 . S
O196 In195 2.294 . S
O196 C205 1.240 . S
O197 In195 2.326 . S
O197 C205 1.252 . S
C198 O201 1.252 . S
C198 O202 1.260 . S
C199 O206 1.240 . S
C199 O207 1.252 . S
C200 O203 1.252 . S
C200 O204 1.260 . S
O201 In195 2.266 . S
O201 C198 1.252 . S
O202 In195 2.326 . S
O202 C198 1.260 . S
O203 In195 2.266 . S
O203 C200 1.252 . S
O204 In195 2.326 . S
O204 C200 1.260 . S
C205 O196 1.240 . S
C205 O197 1.252 . S
O206 In195 2.294 . S
O206 C199 1.240 . S
O207 In195 2.326 . S
O207 C199 1.252 . S
C208 C209 1.349 . S
C208 C210 1.327 . S
C208 H233 0.950 . S
C209 C208 1.349 . S
C209 C225 1.349 . S
C210 C208 1.327 . S
C210 C229 1.429 . S
C210 H234 0.950 . S
C211 C228 1.574 . S
C211 C230 1.368 . S
C211 H235 0.949 . S
H212 C216 0.949 . S
C213 C214 1.349 . S
C213 C215 1.327 . S
C213 H236 0.950 . S
C214 C213 1.349 . S
C214 C226 1.349 . S
C215 C213 1.327 . S
C215 C231 1.429 . S
C215 H237 0.950 . S
C216 H212 0.949 . S
C216 C224 1.574 . S
C216 C232 1.368 . S
H217 C225 0.950 . S
H218 C223 0.950 . S
H219 C224 0.949 . S
H220 C226 0.950 . S
H221 C227 0.950 . S
H222 C228 0.949 . S
C223 H218 0.950 . S
C223 C225 1.327 . S
C223 C229 1.429 . S
C224 C216 1.574 . S
C224 H219 0.949 . S
C224 C230 1.368 . S
C225 C209 1.349 . S
C225 H217 0.950 . S
C225 C223 1.327 . S
C226 C214 1.349 . S
C226 H220 0.950 . S
C226 C227 1.327 . S
C227 H221 0.950 . S
C227 C226 1.327 . S
C227 C231 1.429 . S
C228 C211 1.574 . S
C228 H222 0.949 . S
C228 C232 1.368 . S
C229 C210 1.429 . S
C229 C223 1.429 . S
C229 C230 1.523 . S
C230 C211 1.368 . S
C230 C224 1.368 . S
C230 C229 1.523 . S
C231 C215 1.429 . S
C231 C227 1.429 . S
C231 C232 1.523 . S
C232 C216 1.368 . S
C232 C228 1.368 . S
C232 C231 1.523 . S
H233 C208 0.950 . S
H234 C210 0.950 . S
H235 C211 0.949 . S
H236 C213 0.950 . S
H237 C215 0.950 . S
C238 C239 1.349 . S
C238 C240 1.327 . S
C238 H263 0.950 . S
C239 C238 1.349 . S
C239 C255 1.349 . S
C240 C238 1.327 . S
C240 C259 1.429 . S
C240 H264 0.950 . S
C241 C258 1.574 . S
C241 C260 1.368 . S
C241 H265 0.949 . S
H242 C246 0.949 . S
C243 C244 1.349 . S
C243 C245 1.327 . S
C243 H266 0.950 . S
C244 C243 1.349 . S
C244 C256 1.349 . S
C245 C243 1.327 . S
C245 C261 1.429 . S
C245 H267 0.950 . S
C246 H242 0.949 . S
C246 C254 1.574 . S
C246 C262 1.368 . S
H247 C255 0.950 . S
H248 C253 0.950 . S
H249 C254 0.949 . S
H250 C256 0.950 . S
H251 C257 0.950 . S
H252 C258 0.949 . S
C253 H248 0.950 . S
C253 C255 1.327 . S
C253 C259 1.429 . S
C254 C246 1.574 . S
C254 H249 0.949 . S
C254 C260 1.368 . S
C255 C239 1.349 . S
C255 H247 0.950 . S
C255 C253 1.327 . S
C256 C244 1.349 . S
C256 H250 0.950 . S
C256 C257 1.327 . S
C257 H251 0.950 . S
C257 C256 1.327 . S
C257 C261 1.429 . S
C258 C241 1.574 . S
C258 H252 0.949 . S
C258 C262 1.368 . S
C259 C240 1.429 . S
C259 C253 1.429 . S
C259 C260 1.523 . S
C260 C241 1.368 . S
C260 C254 1.368 . S
C260 C259 1.523 . S
C261 C245 1.429 . S
C261 C257 1.429 . S
C261 C262 1.523 . S
C262 C246 1.368 . S
C262 C258 1.368 . S
C262 C261 1.523 . S
H263 C238 0.950 . S
H264 C240 0.950 . S
H265 C241 0.949 . S
H266 C243 0.950 . S
H267 C245 0.950 . S
C268 C269 1.349 . S
C268 C270 1.327 . S
C268 H293 0.950 . S
C269 C268 1.349 . S
C269 C285 1.349 . S
C270 C268 1.327 . S
C270 C289 1.429 . S
C270 H294 0.950 . S
C271 C288 1.574 . S
C271 C290 1.368 . S
C271 H295 0.949 . S
H272 C276 0.949 . S
C273 C274 1.349 . S
C273 C275 1.327 . S
C273 H296 0.950 . S
C274 C273 1.349 . S
C274 C286 1.349 . S
C275 C273 1.327 . S
C275 C291 1.429 . S
C275 H297 0.950 . S
C276 H272 0.949 . S
C276 C284 1.574 . S
C276 C292 1.368 . S
H277 C285 0.950 . S
H278 C283 0.950 . S
H279 C284 0.949 . S
H280 C286 0.950 . S
H281 C287 0.950 . S
H282 C288 0.949 . S
C283 H278 0.950 . S
C283 C285 1.327 . S
C283 C289 1.429 . S
C284 C276 1.574 . S
C284 H279 0.949 . S
C284 C290 1.368 . S
C285 C269 1.349 . S
C285 H277 0.950 . S
C285 C283 1.327 . S
C286 C274 1.349 . S
C286 H280 0.950 . S
C286 C287 1.327 . S
C287 H281 0.950 . S
C287 C286 1.327 . S
C287 C291 1.429 . S
C288 C271 1.574 . S
C288 H282 0.949 . S
C288 C292 1.368 . S
C289 C270 1.429 . S
C289 C283 1.429 . S
C289 C290 1.523 . S
C290 C271 1.368 . S
C290 C284 1.368 . S
C290 C289 1.523 . S
C291 C275 1.429 . S
C291 C287 1.429 . S
C291 C292 1.523 . S
C292 C276 1.368 . S
C292 C288 1.368 . S
C292 C291 1.523 . S
H293 C268 0.950 . S
H294 C270 0.950 . S
H295 C271 0.949 . S
H296 C273 0.950 . S
H297 C275 0.950 . S
C298 C299 1.349 . S
C298 C300 1.327 . S
C298 H323 0.950 . S
C299 C298 1.349 . S
C299 C315 1.349 . S
C300 C298 1.327 . S
C300 C319 1.429 . S
C300 H324 0.950 . S
C301 C318 1.574 . S
C301 C320 1.368 . S
C301 H325 0.949 . S
H302 C306 0.949 . S
C303 C304 1.349 . S
C303 C305 1.327 . S
C303 H326 0.950 . S
C304 C303 1.349 . S
C304 C316 1.349 . S
C305 C303 1.327 . S
C305 C321 1.429 . S
C305 H327 0.950 . S
C306 H302 0.949 . S
C306 C314 1.574 . S
C306 C322 1.368 . S
H307 C315 0.950 . S
H308 C313 0.950 . S
H309 C314 0.949 . S
H310 C316 0.950 . S
H311 C317 0.950 . S
H312 C318 0.949 . S
C313 H308 0.950 . S
C313 C315 1.327 . S
C313 C319 1.429 . S
C314 C306 1.574 . S
C314 H309 0.949 . S
C314 C320 1.368 . S
C315 C299 1.349 . S
C315 H307 0.950 . S
C315 C313 1.327 . S
C316 C304 1.349 . S
C316 H310 0.950 . S
C316 C317 1.327 . S
C317 H311 0.950 . S
C317 C316 1.327 . S
C317 C321 1.429 . S
C318 C301 1.574 . S
C318 H312 0.949 . S
C318 C322 1.368 . S
C319 C300 1.429 . S
C319 C313 1.429 . S
C319 C320 1.523 . S
C320 C301 1.368 . S
C320 C314 1.368 . S
C320 C319 1.523 . S
C321 C305 1.429 . S
C321 C317 1.429 . S
C321 C322 1.523 . S
C322 C306 1.368 . S
C322 C318 1.368 . S
C322 C321 1.523 . S
H323 C298 0.950 . S
H324 C300 0.950 . S
H325 C301 0.949 . S
H326 C303 0.950 . S
H327 C305 0.950 . S
C328 C329 1.349 . S
C328 C330 1.327 . S
C328 H353 0.950 . S
C329 C328 1.349 . S
C329 C345 1.349 . S
C330 C328 1.327 . S
C330 C349 1.429 . S
C330 H354 0.950 . S
C331 C348 1.574 . S
C331 C350 1.368 . S
C331 H355 0.949 . S
H332 C336 0.949 . S
C333 C334 1.349 . S
C333 C335 1.327 . S
C333 H356 0.950 . S
C334 C333 1.349 . S
C334 C346 1.349 . S
C335 C333 1.327 . S
C335 C351 1.429 . S
C335 H357 0.950 . S
C336 H332 0.949 . S
C336 C344 1.574 . S
C336 C352 1.368 . S
H337 C345 0.950 . S
H338 C343 0.950 . S
H339 C344 0.949 . S
H340 C346 0.950 . S
H341 C347 0.950 . S
H342 C348 0.949 . S
C343 H338 0.950 . S
C343 C345 1.327 . S
C343 C349 1.429 . S
C344 C336 1.574 . S
C344 H339 0.949 . S
C344 C350 1.368 . S
C345 C329 1.349 . S
C345 H337 0.950 . S
C345 C343 1.327 . S
C346 C334 1.349 . S
C346 H340 0.950 . S
C346 C347 1.327 . S
C347 H341 0.950 . S
C347 C346 1.327 . S
C347 C351 1.429 . S
C348 C331 1.574 . S
C348 H342 0.949 . S
C348 C352 1.368 . S
C349 C330 1.429 . S
C349 C343 1.429 . S
C349 C350 1.523 . S
C350 C331 1.368 . S
C350 C344 1.368 . S
C350 C349 1.523 . S
C351 C335 1.429 . S
C351 C347 1.429 . S
C351 C352 1.523 . S
C352 C336 1.368 . S
C352 C348 1.368 . S
C352 C351 1.523 . S
H353 C328 0.950 . S
H354 C330 0.950 . S
H355 C331 0.949 . S
H356 C333 0.950 . S
H357 C335 0.950 . S
C358 C359 1.349 . S
C358 C360 1.327 . S
C358 H383 0.950 . S
C359 C358 1.349 . S
C359 C375 1.349 . S
C360 C358 1.327 . S
C360 C379 1.429 . S
C360 H384 0.950 . S
C361 C378 1.574 . S
C361 C380 1.368 . S
C361 H385 0.949 . S
H362 C366 0.949 . S
C363 C364 1.349 . S
C363 C365 1.327 . S
C363 H386 0.950 . S
C364 C363 1.349 . S
C364 C376 1.349 . S
C365 C363 1.327 . S
C365 C381 1.429 . S
C365 H387 0.950 . S
C366 H362 0.949 . S
C366 C374 1.574 . S
C366 C382 1.368 . S
H367 C375 0.950 . S
H368 C373 0.950 . S
H369 C374 0.949 . S
H370 C376 0.950 . S
H371 C377 0.950 . S
H372 C378 0.949 . S
C373 H368 0.950 . S
C373 C375 1.327 . S
C373 C379 1.429 . S
C374 C366 1.574 . S
C374 H369 0.949 . S
C374 C380 1.368 . S
C375 C359 1.349 . S
C375 H367 0.950 . S
C375 C373 1.327 . S
C376 C364 1.349 . S
C376 H370 0.950 . S
C376 C377 1.327 . S
C377 H371 0.950 . S
C377 C376 1.327 . S
C377 C381 1.429 . S
C378 C361 1.574 . S
C378 H372 0.949 . S
C378 C382 1.368 . S
C379 C360 1.429 . S
C379 C373 1.429 . S
C379 C380 1.523 . S
C380 C361 1.368 . S
C380 C374 1.368 . S
C380 C379 1.523 . S
C381 C365 1.429 . S
C381 C377 1.429 . S
C381 C382 1.523 . S
C382 C366 1.368 . S
C382 C378 1.368 . S
C382 C381 1.523 . S
H383 C358 0.950 . S
H384 C360 0.950 . S
H385 C361 0.949 . S
H386 C363 0.950 . S
H387 C365 0.950 . S
C388 C389 1.349 . S
C388 C390 1.327 . S
C388 H413 0.950 . S
C389 C388 1.349 . S
C389 C405 1.349 . S
C390 C388 1.327 . S
C390 C409 1.429 . S
C390 H414 0.950 . S
C391 C408 1.574 . S
C391 C410 1.368 . S
C391 H415 0.949 . S
H392 C396 0.949 . S
C393 C394 1.349 . S
C393 C395 1.327 . S
C393 H416 0.950 . S
C394 C393 1.349 . S
C394 C406 1.349 . S
C395 C393 1.327 . S
C395 C411 1.429 . S
C395 H417 0.950 . S
C396 H392 0.949 . S
C396 C404 1.574 . S
C396 C412 1.368 . S
H397 C405 0.950 . S
H398 C403 0.950 . S
H399 C404 0.949 . S
H400 C406 0.950 . S
H401 C407 0.950 . S
H402 C408 0.949 . S
C403 H398 0.950 . S
C403 C405 1.327 . S
C403 C409 1.429 . S
C404 C396 1.574 . S
C404 H399 0.949 . S
C404 C410 1.368 . S
C405 C389 1.349 . S
C405 H397 0.950 . S
C405 C403 1.327 . S
C406 C394 1.349 . S
C406 H400 0.950 . S
C406 C407 1.327 . S
C407 H401 0.950 . S
C407 C406 1.327 . S
C407 C411 1.429 . S
C408 C391 1.574 . S
C408 H402 0.949 . S
C408 C412 1.368 . S
C409 C390 1.429 . S
C409 C403 1.429 . S
C409 C410 1.523 . S
C410 C391 1.368 . S
C410 C404 1.368 . S
C410 C409 1.523 . S
C411 C395 1.429 . S
C411 C407 1.429 . S
C411 C412 1.523 . S
C412 C396 1.368 . S
C412 C408 1.368 . S
C412 C411 1.523 . S
H413 C388 0.950 . S
H414 C390 0.950 . S
H415 C391 0.949 . S
H416 C393 0.950 . S
H417 C395 0.950 . S
C418 C419 1.349 . S
C418 C420 1.327 . S
C418 H443 0.950 . S
C419 C418 1.349 . S
C419 C435 1.349 . S
C420 C418 1.327 . S
C420 C439 1.429 . S
C420 H444 0.950 . S
C421 C438 1.574 . S
C421 C440 1.368 . S
C421 H445 0.949 . S
H422 C426 0.949 . S
C423 C424 1.349 . S
C423 C425 1.327 . S
C423 H446 0.950 . S
C424 C423 1.349 . S
C424 C436 1.349 . S
C425 C423 1.327 . S
C425 C441 1.429 . S
C425 H447 0.950 . S
C426 H422 0.949 . S
C426 C434 1.574 . S
C426 C442 1.368 . S
H427 C435 0.950 . S
H428 C433 0.950 . S
H429 C434 0.949 . S
H430 C436 0.950 . S
H431 C437 0.950 . S
H432 C438 0.949 . S
C433 H428 0.950 . S
C433 C435 1.327 . S
C433 C439 1.429 . S
C434 C426 1.574 . S
C434 H429 0.949 . S
C434 C440 1.368 . S
C435 C419 1.349 . S
C435 H427 0.950 . S
C435 C433 1.327 . S
C436 C424 1.349 . S
C436 H430 0.950 . S
C436 C437 1.327 . S
C437 H431 0.950 . S
C437 C436 1.327 . S
C437 C441 1.429 . S
C438 C421 1.574 . S
C438 H432 0.949 . S
C438 C442 1.368 . S
C439 C420 1.429 . S
C439 C433 1.429 . S
C439 C440 1.523 . S
C440 C421 1.368 . S
C440 C434 1.368 . S
C440 C439 1.523 . S
C441 C425 1.429 . S
C441 C437 1.429 . S
C441 C442 1.523 . S
C442 C426 1.368 . S
C442 C438 1.368 . S
C442 C441 1.523 . S
H443 C418 0.950 . S
H444 C420 0.950 . S
H445 C421 0.949 . S
H446 C423 0.950 . S
H447 C425 0.950 . S
C448 C449 1.349 . S
C448 C450 1.327 . S
C448 H473 0.950 . S
C449 C448 1.349 . S
C449 C465 1.349 . S
C450 C448 1.327 . S
C450 C469 1.429 . S
C450 H474 0.950 . S
C451 C468 1.574 1_556 S
C451 C470 1.368 . S
C451 H475 0.949 . S
H452 C456 0.949 . S
C453 C454 1.349 . S
C453 C455 1.327 . S
C453 H476 0.950 . S
C454 C453 1.349 . S
C454 C466 1.349 . S
C455 C453 1.327 . S
C455 C471 1.429 . S
C455 H477 0.950 . S
C456 H452 0.949 . S
C456 C464 1.574 1_554 S
C456 C472 1.368 . S
H457 C465 0.950 . S
H458 C463 0.950 . S
H459 C464 0.949 . S
H460 C466 0.950 . S
H461 C467 0.950 . S
H462 C468 0.949 . S
C463 H458 0.950 . S
C463 C465 1.327 . S
C463 C469 1.429 . S
C464 C456 1.574 1_556 S
C464 H459 0.949 . S
C464 C470 1.368 . S
C465 C449 1.349 . S
C465 H457 0.950 . S
C465 C463 1.327 . S
C466 C454 1.349 . S
C466 H460 0.950 . S
C466 C467 1.327 . S
C467 H461 0.950 . S
C467 C466 1.327 . S
C467 C471 1.429 . S
C468 C451 1.574 1_554 S
C468 H462 0.949 . S
C468 C472 1.368 . S
C469 C450 1.429 . S
C469 C463 1.429 . S
C469 C470 1.523 . S
C470 C451 1.368 . S
C470 C464 1.368 . S
C470 C469 1.523 . S
C471 C455 1.429 . S
C471 C467 1.429 . S
C471 C472 1.523 . S
C472 C456 1.368 . S
C472 C468 1.368 . S
C472 C471 1.523 . S
H473 C448 0.950 . S
H474 C450 0.950 . S
H475 C451 0.949 . S
H476 C453 0.950 . S
H477 C455 0.950 . S
C478 C479 1.349 . S
C478 C480 1.327 . S
C478 H503 0.950 . S
C479 C478 1.349 . S
C479 C495 1.349 . S
C480 C478 1.327 . S
C480 C499 1.429 . S
C480 H504 0.950 . S
C481 C498 1.574 1_556 S
C481 C500 1.368 . S
C481 H505 0.949 . S
H482 C486 0.949 . S
C483 C484 1.349 . S
C483 C485 1.327 . S
C483 H506 0.950 . S
C484 C483 1.349 . S
C484 C496 1.349 . S
C485 C483 1.327 . S
C485 C501 1.429 . S
C485 H507 0.950 . S
C486 H482 0.949 . S
C486 C494 1.574 1_554 S
C486 C502 1.368 . S
H487 C495 0.950 . S
H488 C493 0.950 . S
H489 C494 0.949 . S
H490 C496 0.950 . S
H491 C497 0.950 . S
H492 C498 0.949 . S
C493 H488 0.950 . S
C493 C495 1.327 . S
C493 C499 1.429 . S
C494 C486 1.574 1_556 S
C494 H489 0.949 . S
C494 C500 1.368 . S
C495 C479 1.349 . S
C495 H487 0.950 . S
C495 C493 1.327 . S
C496 C484 1.349 . S
C496 H490 0.950 . S
C496 C497 1.327 . S
C497 H491 0.950 . S
C497 C496 1.327 . S
C497 C501 1.429 . S
C498 C481 1.574 1_554 S
C498 H492 0.949 . S
C498 C502 1.368 . S
C499 C480 1.429 . S
C499 C493 1.429 . S
C499 C500 1.523 . S
C500 C481 1.368 . S
C500 C494 1.368 . S
C500 C499 1.523 . S
C501 C485 1.429 . S
C501 C497 1.429 . S
C501 C502 1.523 . S
C502 C486 1.368 . S
C502 C498 1.368 . S
C502 C501 1.523 . S
H503 C478 0.950 . S
H504 C480 0.950 . S
H505 C481 0.949 . S
H506 C483 0.950 . S
H507 C485 0.950 . S
C508 C509 1.349 . S
C508 C510 1.327 . S
C508 H533 0.950 . S
C509 C508 1.349 . S
C509 C525 1.349 . S
C510 C508 1.327 . S
C510 C529 1.429 . S
C510 H534 0.950 . S
C511 C528 1.574 1_556 S
C511 C530 1.368 . S
C511 H535 0.949 . S
H512 C516 0.949 . S
C513 C514 1.349 . S
C513 C515 1.327 . S
C513 H536 0.950 . S
C514 C513 1.349 . S
C514 C526 1.349 . S
C515 C513 1.327 . S
C515 C531 1.429 . S
C515 H537 0.950 . S
C516 H512 0.949 . S
C516 C524 1.574 1_554 S
C516 C532 1.368 . S
H517 C525 0.950 . S
H518 C523 0.950 . S
H519 C524 0.949 . S
H520 C526 0.950 . S
H521 C527 0.950 . S
H522 C528 0.949 . S
C523 H518 0.950 . S
C523 C525 1.327 . S
C523 C529 1.429 . S
C524 C516 1.574 1_556 S
C524 H519 0.949 . S
C524 C530 1.368 . S
C525 C509 1.349 . S
C525 H517 0.950 . S
C525 C523 1.327 . S
C526 C514 1.349 . S
C526 H520 0.950 . S
C526 C527 1.327 . S
C527 H521 0.950 . S
C527 C526 1.327 . S
C527 C531 1.429 . S
C528 C511 1.574 1_554 S
C528 H522 0.949 . S
C528 C532 1.368 . S
C529 C510 1.429 . S
C529 C523 1.429 . S
C529 C530 1.523 . S
C530 C511 1.368 . S
C530 C524 1.368 . S
C530 C529 1.523 . S
C531 C515 1.429 . S
C531 C527 1.429 . S
C531 C532 1.523 . S
C532 C516 1.368 . S
C532 C528 1.368 . S
C532 C531 1.523 . S
H533 C508 0.950 . S
H534 C510 0.950 . S
H535 C511 0.949 . S
H536 C513 0.950 . S
H537 C515 0.950 . S
C538 C539 1.349 . S
C538 C540 1.327 . S
C538 H563 0.950 . S
C539 C538 1.349 . S
C539 C555 1.349 . S
C540 C538 1.327 . S
C540 C559 1.429 . S
C540 H564 0.950 . S
C541 C558 1.574 1_554 S
C541 C560 1.368 . S
C541 H565 0.949 . S
H542 C546 0.949 . S
C543 C544 1.349 . S
C543 C545 1.327 . S
C543 H566 0.950 . S
C544 C543 1.349 . S
C544 C556 1.349 . S
C545 C543 1.327 . S
C545 C561 1.429 . S
C545 H567 0.950 . S
C546 H542 0.949 . S
C546 C554 1.574 1_556 S
C546 C562 1.368 . S
H547 C555 0.950 . S
H548 C553 0.950 . S
H549 C554 0.949 . S
H550 C556 0.950 . S
H551 C557 0.950 . S
H552 C558 0.949 . S
C553 H548 0.950 . S
C553 C555 1.327 . S
C553 C559 1.429 . S
C554 C546 1.574 1_554 S
C554 H549 0.949 . S
C554 C560 1.368 . S
C555 C539 1.349 . S
C555 H547 0.950 . S
C555 C553 1.327 . S
C556 C544 1.349 . S
C556 H550 0.950 . S
C556 C557 1.327 . S
C557 H551 0.950 . S
C557 C556 1.327 . S
C557 C561 1.429 . S
C558 C541 1.574 1_556 S
C558 H552 0.949 . S
C558 C562 1.368 . S
C559 C540 1.429 . S
C559 C553 1.429 . S
C559 C560 1.523 . S
C560 C541 1.368 . S
C560 C554 1.368 . S
C560 C559 1.523 . S
C561 C545 1.429 . S
C561 C557 1.429 . S
C561 C562 1.523 . S
C562 C546 1.368 . S
C562 C558 1.368 . S
C562 C561 1.523 . S
H563 C538 0.950 . S
H564 C540 0.950 . S
H565 C541 0.949 . S
H566 C543 0.950 . S
H567 C545 0.950 . S
C568 C569 1.349 . S
C568 C570 1.327 . S
C568 H593 0.950 . S
C569 C568 1.349 . S
C569 C585 1.349 . S
C570 C568 1.327 . S
C570 C589 1.429 . S
C570 H594 0.950 . S
C571 C588 1.574 . S
C571 C590 1.368 . S
C571 H595 0.949 . S
H572 C576 0.949 . S
C573 C574 1.349 . S
C573 C575 1.327 . S
C573 H596 0.950 . S
C574 C573 1.349 . S
C574 C586 1.349 . S
C575 C573 1.327 . S
C575 C591 1.429 . S
C575 H597 0.950 . S
C576 H572 0.949 . S
C576 C584 1.574 . S
C576 C592 1.368 . S
H577 C585 0.950 . S
H578 C583 0.950 . S
H579 C584 0.949 . S
H580 C586 0.950 . S
H581 C587 0.950 . S
H582 C588 0.949 . S
C583 H578 0.950 . S
C583 C585 1.327 . S
C583 C589 1.429 . S
C584 C576 1.574 . S
C584 H579 0.949 . S
C584 C590 1.368 . S
C585 C569 1.349 . S
C585 H577 0.950 . S
C585 C583 1.327 . S
C586 C574 1.349 . S
C586 H580 0.950 . S
C586 C587 1.327 . S
C587 H581 0.950 . S
C587 C586 1.327 . S
C587 C591 1.429 . S
C588 C571 1.574 . S
C588 H582 0.949 . S
C588 C592 1.368 . S
C589 C570 1.429 . S
C589 C583 1.429 . S
C589 C590 1.523 . S
C590 C571 1.368 . S
C590 C584 1.368 . S
C590 C589 1.523 . S
C591 C575 1.429 . S
C591 C587 1.429 . S
C591 C592 1.523 . S
C592 C576 1.368 . S
C592 C588 1.368 . S
C592 C591 1.523 . S
H593 C568 0.950 . S
H594 C570 0.950 . S
H595 C571 0.949 . S
H596 C573 0.950 . S
H597 C575 0.950 . S
C598 C599 1.349 . S
C598 C600 1.327 . S
C598 H623 0.950 . S
C599 C598 1.349 . S
C599 C615 1.349 . S
C600 C598 1.327 . S
C600 C619 1.429 . S
C600 H624 0.950 . S
C601 C618 1.574 . S
C601 C620 1.368 . S
C601 H625 0.949 . S
H602 C606 0.949 . S
C603 C604 1.349 . S
C603 C605 1.327 . S
C603 H626 0.950 . S
C604 C603 1.349 . S
C604 C616 1.349 . S
C605 C603 1.327 . S
C605 C621 1.429 . S
C605 H627 0.950 . S
C606 H602 0.949 . S
C606 C614 1.574 . S
C606 C622 1.368 . S
H607 C615 0.950 . S
H608 C613 0.950 . S
H609 C614 0.949 . S
H610 C616 0.950 . S
H611 C617 0.950 . S
H612 C618 0.949 . S
C613 H608 0.950 . S
C613 C615 1.327 . S
C613 C619 1.429 . S
C614 C606 1.574 . S
C614 H609 0.949 . S
C614 C620 1.368 . S
C615 C599 1.349 . S
C615 H607 0.950 . S
C615 C613 1.327 . S
C616 C604 1.349 . S
C616 H610 0.950 . S
C616 C617 1.327 . S
C617 H611 0.950 . S
C617 C616 1.327 . S
C617 C621 1.429 . S
C618 C601 1.574 . S
C618 H612 0.949 . S
C618 C622 1.368 . S
C619 C600 1.429 . S
C619 C613 1.429 . S
C619 C620 1.523 . S
C620 C601 1.368 . S
C620 C614 1.368 . S
C620 C619 1.523 . S
C621 C605 1.429 . S
C621 C617 1.429 . S
C621 C622 1.523 . S
C622 C606 1.368 . S
C622 C618 1.368 . S
C622 C621 1.523 . S
H623 C598 0.950 . S
H624 C600 0.950 . S
H625 C601 0.949 . S
H626 C603 0.950 . S
H627 C605 0.950 . S
C628 C629 1.349 . S
C628 C630 1.327 . S
C628 H653 0.950 . S
C629 C628 1.349 . S
C629 C645 1.349 . S
C630 C628 1.327 . S
C630 C649 1.429 . S
C630 H654 0.950 . S
C631 C648 1.574 . S
C631 C650 1.368 . S
C631 H655 0.949 . S
H632 C636 0.949 . S
C633 C634 1.349 . S
C633 C635 1.327 . S
C633 H656 0.950 . S
C634 C633 1.349 . S
C634 C646 1.349 . S
C635 C633 1.327 . S
C635 C651 1.429 . S
C635 H657 0.950 . S
C636 H632 0.949 . S
C636 C644 1.574 . S
C636 C652 1.368 . S
H637 C645 0.950 . S
H638 C643 0.950 . S
H639 C644 0.949 . S
H640 C646 0.950 . S
H641 C647 0.950 . S
H642 C648 0.949 . S
C643 H638 0.950 . S
C643 C645 1.327 . S
C643 C649 1.429 . S
C644 C636 1.574 . S
C644 H639 0.949 . S
C644 C650 1.368 . S
C645 C629 1.349 . S
C645 H637 0.950 . S
C645 C643 1.327 . S
C646 C634 1.349 . S
C646 H640 0.950 . S
C646 C647 1.327 . S
C647 H641 0.950 . S
C647 C646 1.327 . S
C647 C651 1.429 . S
C648 C631 1.574 . S
C648 H642 0.949 . S
C648 C652 1.368 . S
C649 C630 1.429 . S
C649 C643 1.429 . S
C649 C650 1.523 . S
C650 C631 1.368 . S
C650 C644 1.368 . S
C650 C649 1.523 . S
C651 C635 1.429 . S
C651 C647 1.429 . S
C651 C652 1.523 . S
C652 C636 1.368 . S
C652 C648 1.368 . S
C652 C651 1.523 . S
H653 C628 0.950 . S
H654 C630 0.950 . S
H655 C631 0.949 . S
H656 C633 0.950 . S
H657 C635 0.950 . S
C658 C659 1.349 . S
C658 C660 1.327 . S
C658 H683 0.950 . S
C659 C658 1.349 . S
C659 C675 1.349 . S
C660 C658 1.327 . S
C660 C679 1.429 . S
C660 H684 0.950 . S
C661 C678 1.574 . S
C661 C680 1.368 . S
C661 H685 0.949 . S
H662 C666 0.949 . S
C663 C664 1.349 . S
C663 C665 1.327 . S
C663 H686 0.950 . S
C664 C663 1.349 . S
C664 C676 1.349 . S
C665 C663 1.327 . S
C665 C681 1.429 . S
C665 H687 0.950 . S
C666 H662 0.949 . S
C666 C674 1.574 . S
C666 C682 1.368 . S
H667 C675 0.950 . S
H668 C673 0.950 . S
H669 C674 0.949 . S
H670 C676 0.950 . S
H671 C677 0.950 . S
H672 C678 0.949 . S
C673 H668 0.950 . S
C673 C675 1.327 . S
C673 C679 1.429 . S
C674 C666 1.574 . S
C674 H669 0.949 . S
C674 C680 1.368 . S
C675 C659 1.349 . S
C675 H667 0.950 . S
C675 C673 1.327 . S
C676 C664 1.349 . S
C676 H670 0.950 . S
C676 C677 1.327 . S
C677 H671 0.950 . S
C677 C676 1.327 . S
C677 C681 1.429 . S
C678 C661 1.574 . S
C678 H672 0.949 . S
C678 C682 1.368 . S
C679 C660 1.429 . S
C679 C673 1.429 . S
C679 C680 1.523 . S
C680 C661 1.368 . S
C680 C674 1.368 . S
C680 C679 1.523 . S
C681 C665 1.429 . S
C681 C677 1.429 . S
C681 C682 1.523 . S
C682 C666 1.368 . S
C682 C678 1.368 . S
C682 C681 1.523 . S
H683 C658 0.950 . S
H684 C660 0.950 . S
H685 C661 0.949 . S
H686 C663 0.950 . S
H687 C665 0.950 . S
C688 C689 1.349 . S
C688 C690 1.327 . S
C688 H713 0.950 . S
C689 C688 1.349 . S
C689 C705 1.349 . S
C690 C688 1.327 . S
C690 C709 1.429 . S
C690 H714 0.950 . S
C691 C708 1.574 . S
C691 C710 1.368 . S
C691 H715 0.949 . S
H692 C696 0.949 . S
C693 C694 1.349 . S
C693 C695 1.327 . S
C693 H716 0.950 . S
C694 C693 1.349 . S
C694 C706 1.349 . S
C695 C693 1.327 . S
C695 C711 1.429 . S
C695 H717 0.950 . S
C696 H692 0.949 . S
C696 C704 1.574 . S
C696 C712 1.368 . S
H697 C705 0.950 . S
H698 C703 0.950 . S
H699 C704 0.949 . S
H700 C706 0.950 . S
H701 C707 0.950 . S
H702 C708 0.949 . S
C703 H698 0.950 . S
C703 C705 1.327 . S
C703 C709 1.429 . S
C704 C696 1.574 . S
C704 H699 0.949 . S
C704 C710 1.368 . S
C705 C689 1.349 . S
C705 H697 0.950 . S
C705 C703 1.327 . S
C706 C694 1.349 . S
C706 H700 0.950 . S
C706 C707 1.327 . S
C707 H701 0.950 . S
C707 C706 1.327 . S
C707 C711 1.429 . S
C708 C691 1.574 . S
C708 H702 0.949 . S
C708 C712 1.368 . S
C709 C690 1.429 . S
C709 C703 1.429 . S
C709 C710 1.523 . S
C710 C691 1.368 . S
C710 C704 1.368 . S
C710 C709 1.523 . S
C711 C695 1.429 . S
C711 C707 1.429 . S
C711 C712 1.523 . S
C712 C696 1.368 . S
C712 C708 1.368 . S
C712 C711 1.523 . S
H713 C688 0.950 . S
H714 C690 0.950 . S
H715 C691 0.949 . S
H716 C693 0.950 . S
H717 C695 0.950 . S
C718 C719 1.349 . S
C718 C720 1.327 . S
C718 H743 0.950 . S
C719 C718 1.349 . S
C719 C735 1.349 . S
C720 C718 1.327 . S
C720 C739 1.429 . S
C720 H744 0.950 . S
C721 C738 1.574 . S
C721 C740 1.368 . S
C721 H745 0.949 . S
H722 C726 0.949 . S
C723 C724 1.349 . S
C723 C725 1.327 . S
C723 H746 0.950 . S
C724 C723 1.349 . S
C724 C736 1.349 . S
C725 C723 1.327 . S
C725 C741 1.429 . S
C725 H747 0.950 . S
C726 H722 0.949 . S
C726 C734 1.574 . S
C726 C742 1.368 . S
H727 C735 0.950 . S
H728 C733 0.950 . S
H729 C734 0.949 . S
H730 C736 0.950 . S
H731 C737 0.950 . S
H732 C738 0.949 . S
C733 H728 0.950 . S
C733 C735 1.327 . S
C733 C739 1.429 . S
C734 C726 1.574 . S
C734 H729 0.949 . S
C734 C740 1.368 . S
C735 C719 1.349 . S
C735 H727 0.950 . S
C735 C733 1.327 . S
C736 C724 1.349 . S
C736 H730 0.950 . S
C736 C737 1.327 . S
C737 H731 0.950 . S
C737 C736 1.327 . S
C737 C741 1.429 . S
C738 C721 1.574 . S
C738 H732 0.949 . S
C738 C742 1.368 . S
C739 C720 1.429 . S
C739 C733 1.429 . S
C739 C740 1.523 . S
C740 C721 1.368 . S
C740 C734 1.368 . S
C740 C739 1.523 . S
C741 C725 1.429 . S
C741 C737 1.429 . S
C741 C742 1.523 . S
C742 C726 1.368 . S
C742 C738 1.368 . S
C742 C741 1.523 . S
H743 C718 0.950 . S
H744 C720 0.950 . S
H745 C721 0.949 . S
H746 C723 0.950 . S
H747 C725 0.950 . S
C748 C749 1.349 . S
C748 C750 1.327 . S
C748 H773 0.950 . S
C749 C748 1.349 . S
C749 C765 1.349 . S
C750 C748 1.327 . S
C750 C769 1.429 . S
C750 H774 0.950 . S
C751 C768 1.574 . S
C751 C770 1.368 . S
C751 H775 0.949 . S
H752 C756 0.949 . S
C753 C754 1.349 . S
C753 C755 1.327 . S
C753 H776 0.950 . S
C754 C753 1.349 . S
C754 C766 1.349 . S
C755 C753 1.327 . S
C755 C771 1.429 . S
C755 H777 0.950 . S
C756 H752 0.949 . S
C756 C764 1.574 . S
C756 C772 1.368 . S
H757 C765 0.950 . S
H758 C763 0.950 . S
H759 C764 0.949 . S
H760 C766 0.950 . S
H761 C767 0.950 . S
H762 C768 0.949 . S
C763 H758 0.950 . S
C763 C765 1.327 . S
C763 C769 1.429 . S
C764 C756 1.574 . S
C764 H759 0.949 . S
C764 C770 1.368 . S
C765 C749 1.349 . S
C765 H757 0.950 . S
C765 C763 1.327 . S
C766 C754 1.349 . S
C766 H760 0.950 . S
C766 C767 1.327 . S
C767 H761 0.950 . S
C767 C766 1.327 . S
C767 C771 1.429 . S
C768 C751 1.574 . S
C768 H762 0.949 . S
C768 C772 1.368 . S
C769 C750 1.429 . S
C769 C763 1.429 . S
C769 C770 1.523 . S
C770 C751 1.368 . S
C770 C764 1.368 . S
C770 C769 1.523 . S
C771 C755 1.429 . S
C771 C767 1.429 . S
C771 C772 1.523 . S
C772 C756 1.368 . S
C772 C768 1.368 . S
C772 C771 1.523 . S
H773 C748 0.950 . S
H774 C750 0.950 . S
H775 C751 0.949 . S
H776 C753 0.950 . S
H777 C755 0.950 . S
C778 C779 1.349 . S
C778 C780 1.327 . S
C778 H803 0.950 . S
C779 C778 1.349 . S
C779 C795 1.349 . S
C780 C778 1.327 . S
C780 C799 1.429 . S
C780 H804 0.950 . S
C781 C798 1.574 . S
C781 C800 1.368 . S
C781 H805 0.949 . S
H782 C786 0.949 . S
C783 C784 1.349 . S
C783 C785 1.327 . S
C783 H806 0.950 . S
C784 C783 1.349 . S
C784 C796 1.349 . S
C785 C783 1.327 . S
C785 C801 1.429 . S
C785 H807 0.950 . S
C786 H782 0.949 . S
C786 C794 1.574 . S
C786 C802 1.368 . S
H787 C795 0.950 . S
H788 C793 0.950 . S
H789 C794 0.949 . S
H790 C796 0.950 . S
H791 C797 0.950 . S
H792 C798 0.949 . S
C793 H788 0.950 . S
C793 C795 1.327 . S
C793 C799 1.429 . S
C794 C786 1.574 . S
C794 H789 0.949 . S
C794 C800 1.368 . S
C795 C779 1.349 . S
C795 H787 0.950 . S
C795 C793 1.327 . S
C796 C784 1.349 . S
C796 H790 0.950 . S
C796 C797 1.327 . S
C797 H791 0.950 . S
C797 C796 1.327 . S
C797 C801 1.429 . S
C798 C781 1.574 . S
C798 H792 0.949 . S
C798 C802 1.368 . S
C799 C780 1.429 . S
C799 C793 1.429 . S
C799 C800 1.523 . S
C800 C781 1.368 . S
C800 C794 1.368 . S
C800 C799 1.523 . S
C801 C785 1.429 . S
C801 C797 1.429 . S
C801 C802 1.523 . S
C802 C786 1.368 . S
C802 C798 1.368 . S
C802 C801 1.523 . S
H803 C778 0.950 . S
H804 C780 0.950 . S
H805 C781 0.949 . S
H806 C783 0.950 . S
H807 C785 0.950 . S
C808 C809 1.349 . S
C808 C810 1.327 . S
C808 H833 0.950 . S
C809 C808 1.349 . S
C809 C825 1.349 . S
C810 C808 1.327 . S
C810 C829 1.429 . S
C810 H834 0.950 . S
C811 C828 1.574 . S
C811 C830 1.368 . S
C811 H835 0.949 . S
H812 C816 0.949 . S
C813 C814 1.349 . S
C813 C815 1.327 . S
C813 H836 0.950 . S
C814 C813 1.349 . S
C814 C826 1.349 . S
C815 C813 1.327 . S
C815 C831 1.429 . S
C815 H837 0.950 . S
C816 H812 0.949 . S
C816 C824 1.574 . S
C816 C832 1.368 . S
H817 C825 0.950 . S
H818 C823 0.950 . S
H819 C824 0.949 . S
H820 C826 0.950 . S
H821 C827 0.950 . S
H822 C828 0.949 . S
C823 H818 0.950 . S
C823 C825 1.327 . S
C823 C829 1.429 . S
C824 C816 1.574 . S
C824 H819 0.949 . S
C824 C830 1.368 . S
C825 C809 1.349 . S
C825 H817 0.950 . S
C825 C823 1.327 . S
C826 C814 1.349 . S
C826 H820 0.950 . S
C826 C827 1.327 . S
C827 H821 0.950 . S
C827 C826 1.327 . S
C827 C831 1.429 . S
C828 C811 1.574 . S
C828 H822 0.949 . S
C828 C832 1.368 . S
C829 C810 1.429 . S
C829 C823 1.429 . S
C829 C830 1.523 . S
C830 C811 1.368 . S
C830 C824 1.368 . S
C830 C829 1.523 . S
C831 C815 1.429 . S
C831 C827 1.429 . S
C831 C832 1.523 . S
C832 C816 1.368 . S
C832 C828 1.368 . S
C832 C831 1.523 . S
H833 C808 0.950 . S
H834 C810 0.950 . S
H835 C811 0.949 . S
H836 C813 0.950 . S
H837 C815 0.950 . S
C838 C839 1.349 . S
C838 C840 1.327 . S
C838 H863 0.950 . S
C839 C838 1.349 . S
C839 C855 1.349 . S
C840 C838 1.327 . S
C840 C859 1.429 . S
C840 H864 0.950 . S
C841 C858 1.574 . S
C841 C860 1.368 . S
C841 H865 0.949 . S
H842 C846 0.949 . S
C843 C844 1.349 . S
C843 C845 1.327 . S
C843 H866 0.950 . S
C844 C843 1.349 . S
C844 C856 1.349 . S
C845 C843 1.327 . S
C845 C861 1.429 . S
C845 H867 0.950 . S
C846 H842 0.949 . S
C846 C854 1.574 . S
C846 C862 1.368 . S
H847 C855 0.950 . S
H848 C853 0.950 . S
H849 C854 0.949 . S
H850 C856 0.950 . S
H851 C857 0.950 . S
H852 C858 0.949 . S
C853 H848 0.950 . S
C853 C855 1.327 . S
C853 C859 1.429 . S
C854 C846 1.574 . S
C854 H849 0.949 . S
C854 C860 1.368 . S
C855 C839 1.349 . S
C855 H847 0.950 . S
C855 C853 1.327 . S
C856 C844 1.349 . S
C856 H850 0.950 . S
C856 C857 1.327 . S
C857 H851 0.950 . S
C857 C856 1.327 . S
C857 C861 1.429 . S
C858 C841 1.574 . S
C858 H852 0.949 . S
C858 C862 1.368 . S
C859 C840 1.429 . S
C859 C853 1.429 . S
C859 C860 1.523 . S
C860 C841 1.368 . S
C860 C854 1.368 . S
C860 C859 1.523 . S
C861 C845 1.429 . S
C861 C857 1.429 . S
C861 C862 1.523 . S
C862 C846 1.368 . S
C862 C858 1.368 . S
C862 C861 1.523 . S
H863 C838 0.950 . S
H864 C840 0.950 . S
H865 C841 0.949 . S
H866 C843 0.950 . S
H867 C845 0.950 . S
C868 C869 1.349 . S
C868 C870 1.327 . S
C868 H893 0.950 . S
C869 C868 1.349 . S
C869 C885 1.349 . S
C870 C868 1.327 . S
C870 C889 1.429 . S
C870 H894 0.950 . S
C871 C888 1.574 . S
C871 C890 1.368 . S
C871 H895 0.949 . S
H872 C876 0.949 . S
C873 C874 1.349 . S
C873 C875 1.327 . S
C873 H896 0.950 . S
C874 C873 1.349 . S
C874 C886 1.349 . S
C875 C873 1.327 . S
C875 C891 1.429 . S
C875 H897 0.950 . S
C876 H872 0.949 . S
C876 C884 1.574 . S
C876 C892 1.368 . S
H877 C885 0.950 . S
H878 C883 0.950 . S
H879 C884 0.949 . S
H880 C886 0.950 . S
H881 C887 0.950 . S
H882 C888 0.949 . S
C883 H878 0.950 . S
C883 C885 1.327 . S
C883 C889 1.429 . S
C884 C876 1.574 . S
C884 H879 0.949 . S
C884 C890 1.368 . S
C885 C869 1.349 . S
C885 H877 0.950 . S
C885 C883 1.327 . S
C886 C874 1.349 . S
C886 H880 0.950 . S
C886 C887 1.327 . S
C887 H881 0.950 . S
C887 C886 1.327 . S
C887 C891 1.429 . S
C888 C871 1.574 . S
C888 H882 0.949 . S
C888 C892 1.368 . S
C889 C870 1.429 . S
C889 C883 1.429 . S
C889 C890 1.523 . S
C890 C871 1.368 . S
C890 C884 1.368 . S
C890 C889 1.523 . S
C891 C875 1.429 . S
C891 C887 1.429 . S
C891 C892 1.523 . S
C892 C876 1.368 . S
C892 C888 1.368 . S
C892 C891 1.523 . S
H893 C868 0.950 . S
H894 C870 0.950 . S
H895 C871 0.949 . S
H896 C873 0.950 . S
H897 C875 0.950 . S
C898 C899 1.349 . S
C898 C900 1.327 . S
C898 H923 0.950 . S
C899 C898 1.349 . S
C899 C915 1.349 . S
C900 C898 1.327 . S
C900 C919 1.429 . S
C900 H924 0.950 . S
C901 C918 1.574 . S
C901 C920 1.368 . S
C901 H925 0.949 . S
H902 C906 0.949 . S
C903 C904 1.349 . S
C903 C905 1.327 . S
C903 H926 0.950 . S
C904 C903 1.349 . S
C904 C916 1.349 . S
C905 C903 1.327 . S
C905 C921 1.429 . S
C905 H927 0.950 . S
C906 H902 0.949 . S
C906 C914 1.574 . S
C906 C922 1.368 . S
H907 C915 0.950 . S
H908 C913 0.950 . S
H909 C914 0.949 . S
H910 C916 0.950 . S
H911 C917 0.950 . S
H912 C918 0.949 . S
C913 H908 0.950 . S
C913 C915 1.327 . S
C913 C919 1.429 . S
C914 C906 1.574 . S
C914 H909 0.949 . S
C914 C920 1.368 . S
C915 C899 1.349 . S
C915 H907 0.950 . S
C915 C913 1.327 . S
C916 C904 1.349 . S
C916 H910 0.950 . S
C916 C917 1.327 . S
C917 H911 0.950 . S
C917 C916 1.327 . S
C917 C921 1.429 . S
C918 C901 1.574 . S
C918 H912 0.949 . S
C918 C922 1.368 . S
C919 C900 1.429 . S
C919 C913 1.429 . S
C919 C920 1.523 . S
C920 C901 1.368 . S
C920 C914 1.368 . S
C920 C919 1.523 . S
C921 C905 1.429 . S
C921 C917 1.429 . S
C921 C922 1.523 . S
C922 C906 1.368 . S
C922 C918 1.368 . S
C922 C921 1.523 . S
H923 C898 0.950 . S
H924 C900 0.950 . S
H925 C901 0.949 . S
H926 C903 0.950 . S
H927 C905 0.950 . S
C928 C929 1.349 . S
C928 C930 1.327 . S
C928 H953 0.950 . S
C929 C928 1.349 . S
C929 C945 1.349 . S
C930 C928 1.327 . S
C930 C949 1.429 . S
C930 H954 0.950 . S
C931 C948 1.574 1_545 S
C931 C950 1.368 . S
C931 H955 0.949 . S
H932 C936 0.949 . S
C933 C934 1.349 . S
C933 C935 1.327 . S
C933 H956 0.950 . S
C934 C933 1.349 . S
C934 C946 1.349 . S
C935 C933 1.327 . S
C935 C951 1.429 . S
C935 H957 0.950 . S
C936 H932 0.949 . S
C936 C944 1.574 1_565 S
C936 C952 1.368 . S
H937 C945 0.950 . S
H938 C943 0.950 . S
H939 C944 0.949 . S
H940 C946 0.950 . S
H941 C947 0.950 . S
H942 C948 0.949 . S
C943 H938 0.950 . S
C943 C945 1.327 . S
C943 C949 1.429 . S
C944 C936 1.574 1_545 S
C944 H939 0.949 . S
C944 C950 1.368 . S
C945 C929 1.349 . S
C945 H937 0.950 . S
C945 C943 1.327 . S
C946 C934 1.349 . S
C946 H940 0.950 . S
C946 C947 1.327 . S
C947 H941 0.950 . S
C947 C946 1.327 . S
C947 C951 1.429 . S
C948 C931 1.574 1_565 S
C948 H942 0.949 . S
C948 C952 1.368 . S
C949 C930 1.429 . S
C949 C943 1.429 . S
C949 C950 1.523 . S
C950 C931 1.368 . S
C950 C944 1.368 . S
C950 C949 1.523 . S
C951 C935 1.429 . S
C951 C947 1.429 . S
C951 C952 1.523 . S
C952 C936 1.368 . S
C952 C948 1.368 . S
C952 C951 1.523 . S
H953 C928 0.950 . S
H954 C930 0.950 . S
H955 C931 0.949 . S
H956 C933 0.950 . S
H957 C935 0.950 . S
C958 C959 1.349 . S
C958 C960 1.327 . S
C958 H983 0.950 . S
C959 C958 1.349 . S
C959 C975 1.349 . S
C960 C958 1.327 . S
C960 C979 1.429 . S
C960 H984 0.950 . S
C961 C978 1.574 1_655 S
C961 C980 1.368 . S
C961 H985 0.949 . S
H962 C966 0.949 . S
C963 C964 1.349 . S
C963 C965 1.327 . S
C963 H986 0.950 . S
C964 C963 1.349 . S
C964 C976 1.349 . S
C965 C963 1.327 . S
C965 C981 1.429 . S
C965 H987 0.950 . S
C966 H962 0.949 . S
C966 C974 1.574 1_455 S
C966 C982 1.368 . S
H967 C975 0.950 . S
H968 C973 0.950 . S
H969 C974 0.949 . S
H970 C976 0.950 . S
H971 C977 0.950 . S
H972 C978 0.949 . S
C973 H968 0.950 . S
C973 C975 1.327 . S
C973 C979 1.429 . S
C974 C966 1.574 1_655 S
C974 H969 0.949 . S
C974 C980 1.368 . S
C975 C959 1.349 . S
C975 H967 0.950 . S
C975 C973 1.327 . S
C976 C964 1.349 . S
C976 H970 0.950 . S
C976 C977 1.327 . S
C977 H971 0.950 . S
C977 C976 1.327 . S
C977 C981 1.429 . S
C978 C961 1.574 1_455 S
C978 H972 0.949 . S
C978 C982 1.368 . S
C979 C960 1.429 . S
C979 C973 1.429 . S
C979 C980 1.523 . S
C980 C961 1.368 . S
C980 C974 1.368 . S
C980 C979 1.523 . S
C981 C965 1.429 . S
C981 C977 1.429 . S
C981 C982 1.523 . S
C982 C966 1.368 . S
C982 C978 1.368 . S
C982 C981 1.523 . S
H983 C958 0.950 . S
H984 C960 0.950 . S
H985 C961 0.949 . S
H986 C963 0.950 . S
H987 C965 0.950 . S
C988 C989 1.349 . S
C988 C990 1.327 . S
C988 H1013 0.950 . S
C989 C988 1.349 . S
C989 C1005 1.349 . S
C990 C988 1.327 . S
C990 C1009 1.429 . S
C990 H1014 0.950 . S
C991 C1008 1.574 1_545 S
C991 C1010 1.368 . S
C991 H1015 0.949 . S
H992 C996 0.949 . S
C993 C994 1.349 . S
C993 C995 1.327 . S
C993 H1016 0.950 . S
C994 C993 1.349 . S
C994 C1006 1.349 . S
C995 C993 1.327 . S
C995 C1011 1.429 . S
C995 H1017 0.950 . S
C996 H992 0.949 . S
C996 C1004 1.574 1_565 S
C996 C1012 1.368 . S
H997 C1005 0.950 . S
H998 C1003 0.950 . S
H999 C1004 0.949 . S
H1000 C1006 0.950 . S
H1001 C1007 0.950 . S
H1002 C1008 0.949 . S
C1003 H998 0.950 . S
C1003 C1005 1.327 . S
C1003 C1009 1.429 . S
C1004 C996 1.574 1_545 S
C1004 H999 0.949 . S
C1004 C1010 1.368 . S
C1005 C989 1.349 . S
C1005 H997 0.950 . S
C1005 C1003 1.327 . S
C1006 C994 1.349 . S
C1006 H1000 0.950 . S
C1006 C1007 1.327 . S
C1007 H1001 0.950 . S
C1007 C1006 1.327 . S
C1007 C1011 1.429 . S
C1008 C991 1.574 1_565 S
C1008 H1002 0.949 . S
C1008 C1012 1.368 . S
C1009 C990 1.429 . S
C1009 C1003 1.429 . S
C1009 C1010 1.523 . S
C1010 C991 1.368 . S
C1010 C1004 1.368 . S
C1010 C1009 1.523 . S
C1011 C995 1.429 . S
C1011 C1007 1.429 . S
C1011 C1012 1.523 . S
C1012 C996 1.368 . S
C1012 C1008 1.368 . S
C1012 C1011 1.523 . S
H1013 C988 0.950 . S
H1014 C990 0.950 . S
H1015 C991 0.949 . S
H1016 C993 0.950 . S
H1017 C995 0.950 . S
C1018 C1019 1.349 . S
C1018 C1020 1.327 . S
C1018 H1043 0.950 . S
C1019 C1018 1.349 . S
C1019 C1035 1.349 . S
C1020 C1018 1.327 . S
C1020 C1039 1.429 . S
C1020 H1044 0.950 . S
C1021 C1038 1.574 1_455 S
C1021 C1040 1.368 . S
C1021 H1045 0.949 . S
H1022 C1026 0.949 . S
C1023 C1024 1.349 . S
C1023 C1025 1.327 . S
C1023 H1046 0.950 . S
C1024 C1023 1.349 . S
C1024 C1036 1.349 . S
C1025 C1023 1.327 . S
C1025 C1041 1.429 . S
C1025 H1047 0.950 . S
C1026 H1022 0.949 . S
C1026 C1034 1.574 1_655 S
C1026 C1042 1.368 . S
H1027 C1035 0.950 . S
H1028 C1033 0.950 . S
H1029 C1034 0.949 . S
H1030 C1036 0.950 . S
H1031 C1037 0.950 . S
H1032 C1038 0.949 . S
C1033 H1028 0.950 . S
C1033 C1035 1.327 . S
C1033 C1039 1.429 . S
C1034 C1026 1.574 1_455 S
C1034 H1029 0.949 . S
C1034 C1040 1.368 . S
C1035 C1019 1.349 . S
C1035 H1027 0.950 . S
C1035 C1033 1.327 . S
C1036 C1024 1.349 . S
C1036 H1030 0.950 . S
C1036 C1037 1.327 . S
C1037 H1031 0.950 . S
C1037 C1036 1.327 . S
C1037 C1041 1.429 . S
C1038 C1021 1.574 1_655 S
C1038 H1032 0.949 . S
C1038 C1042 1.368 . S
C1039 C1020 1.429 . S
C1039 C1033 1.429 . S
C1039 C1040 1.523 . S
C1040 C1021 1.368 . S
C1040 C1034 1.368 . S
C1040 C1039 1.523 . S
C1041 C1025 1.429 . S
C1041 C1037 1.429 . S
C1041 C1042 1.523 . S
C1042 C1026 1.368 . S
C1042 C1038 1.368 . S
C1042 C1041 1.523 . S
H1043 C1018 0.950 . S
H1044 C1020 0.950 . S
H1045 C1021 0.949 . S
H1046 C1023 0.950 . S
H1047 C1025 0.950 . S
C1048 C1049 1.349 . S
C1048 C1050 1.327 . S
C1048 H1073 0.950 . S
C1049 C1048 1.349 . S
C1049 C1065 1.349 . S
C1050 C1048 1.327 . S
C1050 C1069 1.429 . S
C1050 H1074 0.950 . S
C1051 C1068 1.574 1_545 S
C1051 C1070 1.368 . S
C1051 H1075 0.949 . S
H1052 C1056 0.949 . S
C1053 C1054 1.349 . S
C1053 C1055 1.327 . S
C1053 H1076 0.950 . S
C1054 C1053 1.349 . S
C1054 C1066 1.349 . S
C1055 C1053 1.327 . S
C1055 C1071 1.429 . S
C1055 H1077 0.950 . S
C1056 H1052 0.949 . S
C1056 C1064 1.574 1_565 S
C1056 C1072 1.368 . S
H1057 C1065 0.950 . S
H1058 C1063 0.950 . S
H1059 C1064 0.949 . S
H1060 C1066 0.950 . S
H1061 C1067 0.950 . S
H1062 C1068 0.949 . S
C1063 H1058 0.950 . S
C1063 C1065 1.327 . S
C1063 C1069 1.429 . S
C1064 C1056 1.574 1_545 S
C1064 H1059 0.949 . S
C1064 C1070 1.368 . S
C1065 C1049 1.349 . S
C1065 H1057 0.950 . S
C1065 C1063 1.327 . S
C1066 C1054 1.349 . S
C1066 H1060 0.950 . S
C1066 C1067 1.327 . S
C1067 H1061 0.950 . S
C1067 C1066 1.327 . S
C1067 C1071 1.429 . S
C1068 C1051 1.574 1_565 S
C1068 H1062 0.949 . S
C1068 C1072 1.368 . S
C1069 C1050 1.429 . S
C1069 C1063 1.429 . S
C1069 C1070 1.523 . S
C1070 C1051 1.368 . S
C1070 C1064 1.368 . S
C1070 C1069 1.523 . S
C1071 C1055 1.429 . S
C1071 C1067 1.429 . S
C1071 C1072 1.523 . S
C1072 C1056 1.368 . S
C1072 C1068 1.368 . S
C1072 C1071 1.523 . S
H1073 C1048 0.950 . S
H1074 C1050 0.950 . S
H1075 C1051 0.949 . S
H1076 C1053 0.950 . S
H1077 C1055 0.950 . S
C1078 C1079 1.349 . S
C1078 C1080 1.327 . S
C1078 H1103 0.950 . S
C1079 C1078 1.349 . S
C1079 C1095 1.349 . S
C1080 C1078 1.327 . S
C1080 C1099 1.429 . S
C1080 H1104 0.950 . S
C1081 C1098 1.574 1_655 S
C1081 C1100 1.368 . S
C1081 H1105 0.949 . S
H1082 C1086 0.949 . S
C1083 C1084 1.349 . S
C1083 C1085 1.327 . S
C1083 H1106 0.950 . S
C1084 C1083 1.349 . S
C1084 C1096 1.349 . S
C1085 C1083 1.327 . S
C1085 C1101 1.429 . S
C1085 H1107 0.950 . S
C1086 H1082 0.949 . S
C1086 C1094 1.574 1_455 S
C1086 C1102 1.368 . S
H1087 C1095 0.950 . S
H1088 C1093 0.950 . S
H1089 C1094 0.949 . S
H1090 C1096 0.950 . S
H1091 C1097 0.950 . S
H1092 C1098 0.949 . S
C1093 H1088 0.950 . S
C1093 C1095 1.327 . S
C1093 C1099 1.429 . S
C1094 C1086 1.574 1_655 S
C1094 H1089 0.949 . S
C1094 C1100 1.368 . S
C1095 C1079 1.349 . S
C1095 H1087 0.950 . S
C1095 C1093 1.327 . S
C1096 C1084 1.349 . S
C1096 H1090 0.950 . S
C1096 C1097 1.327 . S
C1097 H1091 0.950 . S
C1097 C1096 1.327 . S
C1097 C1101 1.429 . S
C1098 C1081 1.574 1_455 S
C1098 H1092 0.949 . S
C1098 C1102 1.368 . S
C1099 C1080 1.429 . S
C1099 C1093 1.429 . S
C1099 C1100 1.523 . S
C1100 C1081 1.368 . S
C1100 C1094 1.368 . S
C1100 C1099 1.523 . S
C1101 C1085 1.429 . S
C1101 C1097 1.429 . S
C1101 C1102 1.523 . S
C1102 C1086 1.368 . S
C1102 C1098 1.368 . S
C1102 C1101 1.523 . S
H1103 C1078 0.950 . S
H1104 C1080 0.950 . S
H1105 C1081 0.949 . S
H1106 C1083 0.950 . S
H1107 C1085 0.950 . S
C1108 C1109 1.349 . S
C1108 C1110 1.327 . S
C1108 H1133 0.950 . S
C1109 C1108 1.349 . S
C1109 C1125 1.349 . S
C1110 C1108 1.327 . S
C1110 C1129 1.429 . S
C1110 H1134 0.950 . S
C1111 C1128 1.574 1_565 S
C1111 C1130 1.368 . S
C1111 H1135 0.949 . S
H1112 C1116 0.949 . S
C1113 C1114 1.349 . S
C1113 C1115 1.327 . S
C1113 H1136 0.950 . S
C1114 C1113 1.349 . S
C1114 C1126 1.349 . S
C1115 C1113 1.327 . S
C1115 C1131 1.429 . S
C1115 H1137 0.950 . S
C1116 H1112 0.949 . S
C1116 C1124 1.574 1_545 S
C1116 C1132 1.368 . S
H1117 C1125 0.950 . S
H1118 C1123 0.950 . S
H1119 C1124 0.949 . S
H1120 C1126 0.950 . S
H1121 C1127 0.950 . S
H1122 C1128 0.949 . S
C1123 H1118 0.950 . S
C1123 C1125 1.327 . S
C1123 C1129 1.429 . S
C1124 C1116 1.574 1_565 S
C1124 H1119 0.949 . S
C1124 C1130 1.368 . S
C1125 C1109 1.349 . S
C1125 H1117 0.950 . S
C1125 C1123 1.327 . S
C1126 C1114 1.349 . S
C1126 H1120 0.950 . S
C1126 C1127 1.327 . S
C1127 H1121 0.950 . S
C1127 C1126 1.327 . S
C1127 C1131 1.429 . S
C1128 C1111 1.574 1_545 S
C1128 H1122 0.949 . S
C1128 C1132 1.368 . S
C1129 C1110 1.429 . S
C1129 C1123 1.429 . S
C1129 C1130 1.523 . S
C1130 C1111 1.368 . S
C1130 C1124 1.368 . S
C1130 C1129 1.523 . S
C1131 C1115 1.429 . S
C1131 C1127 1.429 . S
C1131 C1132 1.523 . S
C1132 C1116 1.368 . S
C1132 C1128 1.368 . S
C1132 C1131 1.523 . S
H1133 C1108 0.950 . S
H1134 C1110 0.950 . S
H1135 C1111 0.949 . S
H1136 C1113 0.950 . S
H1137 C1115 0.950 . S
C1138 C1139 1.349 . S
C1138 C1140 1.327 . S
C1138 H1163 0.950 . S
C1139 C1138 1.349 . S
C1139 C1155 1.349 . S
C1140 C1138 1.327 . S
C1140 C1159 1.429 . S
C1140 H1164 0.950 . S
C1141 C1158 1.574 1_455 S
C1141 C1160 1.368 . S
C1141 H1165 0.949 . S
H1142 C1146 0.949 . S
C1143 C1144 1.349 . S
C1143 C1145 1.327 . S
C1143 H1166 0.950 . S
C1144 C1143 1.349 . S
C1144 C1156 1.349 . S
C1145 C1143 1.327 . S
C1145 C1161 1.429 . S
C1145 H1167 0.950 . S
C1146 H1142 0.949 . S
C1146 C1154 1.574 1_655 S
C1146 C1162 1.368 . S
H1147 C1155 0.950 . S
H1148 C1153 0.950 . S
H1149 C1154 0.949 . S
H1150 C1156 0.950 . S
H1151 C1157 0.950 . S
H1152 C1158 0.949 . S
C1153 H1148 0.950 . S
C1153 C1155 1.327 . S
C1153 C1159 1.429 . S
C1154 C1146 1.574 1_455 S
C1154 H1149 0.949 . S
C1154 C1160 1.368 . S
C1155 C1139 1.349 . S
C1155 H1147 0.950 . S
C1155 C1153 1.327 . S
C1156 C1144 1.349 . S
C1156 H1150 0.950 . S
C1156 C1157 1.327 . S
C1157 H1151 0.950 . S
C1157 C1156 1.327 . S
C1157 C1161 1.429 . S
C1158 C1141 1.574 1_655 S
C1158 H1152 0.949 . S
C1158 C1162 1.368 . S
C1159 C1140 1.429 . S
C1159 C1153 1.429 . S
C1159 C1160 1.523 . S
C1160 C1141 1.368 . S
C1160 C1154 1.368 . S
C1160 C1159 1.523 . S
C1161 C1145 1.429 . S
C1161 C1157 1.429 . S
C1161 C1162 1.523 . S
C1162 C1146 1.368 . S
C1162 C1158 1.368 . S
C1162 C1161 1.523 . S
H1163 C1138 0.950 . S
H1164 C1140 0.950 . S
H1165 C1141 0.949 . S
H1166 C1143 0.950 . S
H1167 C1145 0.950 . S
C209 C69 1.593 . S
C214 C10 1.593 . S
C239 C82 1.593 . S
C244 C17 1.593 . S
C269 C30 1.593 . S
C274 C95 1.593 . S
C299 C43 1.593 . S
C304 C56 1.593 . S
C329 C179 1.593 . S
C334 C108 1.593 . S
C359 C186 1.593 . S
C364 C127 1.593 . S
C389 C134 1.593 . S
C394 C199 1.593 . S
C419 C153 1.593 . S
C424 C160 1.593 . S
C449 C140 1.633 . S
C454 C4 1.633 . S
C479 C147 1.633 . S
C484 C23 1.633 . S
C509 C114 1.633 . S
C514 C36 1.633 . S
C539 C49 1.633 . S
C544 C121 1.633 . S
C569 C192 1.633 . S
C574 C62 1.633 . S
C599 C205 1.633 . S
C604 C75 1.633 . S
C629 C88 1.633 . S
C634 C166 1.633 . S
C659 C173 1.633 . S
C664 C101 1.633 . S
C689 C57 2.038 . S
C694 C3 2.038 . S
C719 C18 2.038 . S
C724 C70 2.038 . S
C749 C31 2.038 . S
C754 C83 2.038 . S
C779 C96 2.038 . S
C784 C44 2.038 . S
C809 C107 0.988 . S
C814 C159 0.988 . S
C839 C174 0.988 . S
C844 C122 0.988 . S
C869 C133 0.988 . S
C874 C185 0.988 . S
C899 C198 0.988 . S
C904 C148 0.988 . S
C929 C146 2.038 . S
C934 C172 2.038 . S
C959 C109 2.038 . S
C964 C187 2.038 . S
C989 C200 2.038 . S
C994 C120 2.038 . S
C1019 C135 2.038 . S
C1024 C161 2.038 . S
C1049 C68 0.988 . S
C1054 C42 0.988 . S
C1079 C81 0.988 . S
C1084 C5 0.988 . S
C1109 C94 0.988 . S
C1114 C16 0.988 . S
C1139 C55 0.988 . S
C1144 C29 0.988 . S
