# Generated by pormake.
# Topology crb, (4)-cn, num edge types: 1
# Building blocks:
#     Node 0, Type 0, BuildingBlock: AZAVOO_clean_sbu_0, # of connection points: 4
#     Node 1, Type 0, BuildingBlock: AZAVOO_clean_sbu_0, # of connection points: 4
#     Node 2, Type 0, BuildingBlock: AZAVOO_clean_sbu_0, # of connection points: 4
#     Node 3, Type 0, BuildingBlock: AZAVOO_clean_sbu_0, # of connection points: 4
#     Node 4, Type 0, BuildingBlock: AZAVOO_clean_sbu_0, # of connection points: 4
#     Node 5, Type 0, BuildingBlock: AZAVOO_clean_sbu_0, # of connection points: 4
#     Node 6, Type 0, BuildingBlock: AZAVOO_clean_sbu_0, # of connection points: 4
#     Node 7, Type 0, BuildingBlock: AZAVOO_clean_sbu_0, # of connection points: 4
#     Edge 8, Type (0, 0), BuildingBlock: ZUJKAS_clean_linker_0, # of connection points: 2
#     Edge 9, Type (0, 0), BuildingBlock: ZUJKAS_clean_linker_0, # of connection points: 2
#     Edge 10, Type (0, 0), BuildingBlock: ZUJKAS_clean_linker_0, # of connection points: 2
#     Edge 11, Type (0, 0), BuildingBlock: ZUJKAS_clean_linker_0, # of connection points: 2
#     Edge 12, Type (0, 0), BuildingBlock: ZUJKAS_clean_linker_0, # of connection points: 2
#     Edge 13, Type (0, 0), BuildingBlock: ZUJKAS_clean_linker_0, # of connection points: 2
#     Edge 14, Type (0, 0), BuildingBlock: ZUJKAS_clean_linker_0, # of connection points: 2
#     Edge 15, Type (0, 0), BuildingBlock: ZUJKAS_clean_linker_0, # of connection points: 2
#     Edge 16, Type (0, 0), BuildingBlock: ZUJKAS_clean_linker_0, # of connection points: 2
#     Edge 17, Type (0, 0), BuildingBlock: ZUJKAS_clean_linker_0, # of connection points: 2
#     Edge 18, Type (0, 0), BuildingBlock: ZUJKAS_clean_linker_0, # of connection points: 2
#     Edge 19, Type (0, 0), BuildingBlock: ZUJKAS_clean_linker_0, # of connection points: 2
#     Edge 20, Type (0, 0), BuildingBlock: ZUJKAS_clean_linker_0, # of connection points: 2
#     Edge 21, Type (0, 0), BuildingBlock: ZUJKAS_clean_linker_0, # of connection points: 2
#     Edge 22, Type (0, 0), BuildingBlock: ZUJKAS_clean_linker_0, # of connection points: 2
#     Edge 23, Type (0, 0), BuildingBlock: ZUJKAS_clean_linker_0, # of connection points: 2
# Relax obj value: 0.039
# Max RMSD: 0.067
# Mean RMSD: 0.067
data_MOF--net-crb--node1-AZAVOO_clean_sbu_0--edge1-ZUJKAS_clean_linker_0
_symmetry_space_group_name_H-M    P1
_symmetry_Int_Tables_number       1
_symmetry_cell_setting            triclinic
loop_
_symmetry_equiv_pos_as_xyz
'x, y, z'
_cell_length_a     58.950429
_cell_length_b     49.666008
_cell_length_c     33.154128
_cell_angle_alpha  90.124811
_cell_angle_beta   89.932022
_cell_angle_gamma 89.953234
loop_
_atom_site_label
_atom_site_type_symbol
_atom_site_fract_x
_atom_site_fract_y
_atom_site_fract_z
_atom_type_partial_charge
Mg0 Mg 0.33259 0.29187 -0.00717 0.0
O1 O 0.32472 0.33713 -0.00233 0.0
O2 O 0.28702 0.34189 -0.00341 0.0
Mg3 Mg 0.27075 0.3003 -0.00672 0.0
C4 C 0.30695 0.35188 -0.00167 0.0
C5 C 0.38291 0.28044 -0.00428 0.0
O6 O 0.37391 0.25889 0.97917 0.0
O7 O 0.32328 0.28611 0.05914 0.0
O8 O 0.28558 0.29099 0.05536 0.0
O9 O 0.33054 0.29435 0.9255 0.0
O10 O 0.30163 0.28477 0.9654 0.0
C11 C 0.30365 0.28656 0.07553 0.0
C12 C 0.30913 0.28924 0.92968 0.0
O13 O 0.36982 0.2994 0.00685 0.0
Mg14 Mg 0.6752 0.29642 0.03962 0.0
O15 O 0.68094 0.342 0.03449 0.0
O16 O 0.71825 0.34936 0.03134 0.0
Mg17 Mg 0.73648 0.30891 0.03488 0.0
C18 C 0.69784 0.35794 0.03151 0.0
C19 C 0.62602 0.28317 0.01285 0.0
O20 O 0.63627 0.26032 0.00445 0.0
O21 O 0.68361 0.29102 0.97289 0.0
O22 O 0.72119 0.29762 0.97374 0.0
O23 O 0.67837 0.29815 0.10689 0.0
O24 O 0.70699 0.29122 0.06521 0.0
C25 C 0.70282 0.29206 0.95507 0.0
C26 C 0.6999 0.29426 0.10158 0.0
O27 O 0.63761 0.30254 0.02701 0.0
Mg28 Mg 0.66546 0.70389 -0.00722 0.0
O29 O 0.67282 0.65848 0.98846 0.0
O30 O 0.71042 0.65297 0.98723 0.0
Mg31 Mg 0.72721 0.69414 -0.00824 0.0
C32 C 0.69035 0.64338 0.98671 0.0
C33 C 0.61654 0.713 0.02373 0.0
O34 O 0.62654 0.73531 0.0355 0.0
O35 O 0.67482 0.7036 0.05954 0.0
O36 O 0.71251 0.69857 0.05526 0.0
O37 O 0.66772 0.70818 0.92555 0.0
O38 O 0.69662 0.71287 0.9672 0.0
C39 C 0.69436 0.70152 0.07589 0.0
C40 C 0.68918 0.71253 0.93084 0.0
O41 O 0.62826 0.69514 0.00578 0.0
Mg42 Mg 0.32282 0.70035 0.04078 0.0
O43 O 0.31722 0.65454 0.03907 0.0
O44 O 0.27986 0.64733 0.03631 0.0
Mg45 Mg 0.26153 0.68772 0.03648 0.0
C46 C 0.30022 0.63863 0.0373 0.0
C47 C 0.37349 0.7123 0.04446 0.0
O48 O 0.36424 0.73258 0.06401 0.0
O49 O 0.31477 0.70335 0.97361 0.0
O50 O 0.27718 0.69698 0.97492 0.0
O51 O 0.31937 0.70105 0.10803 0.0
O52 O 0.29087 0.70633 0.06572 0.0
C53 C 0.29558 0.70182 0.95587 0.0
C54 C 0.29784 0.7046 0.1023 0.0
O55 O 0.3606 0.69442 0.02942 0.0
Mg56 Mg 0.82663 0.78831 0.4929 0.0
O57 O 0.82238 0.8342 0.48849 0.0
O58 O 0.7853 0.8434 0.486 0.0
Mg59 Mg 0.76574 0.80396 0.49056 0.0
C60 C 0.80599 0.85095 0.48607 0.0
C61 C 0.87718 0.80439 0.48099 0.0
O62 O 0.86845 0.81304 0.44695 0.0
O63 O 0.81678 0.78984 0.55935 0.0
O64 O 0.77955 0.79828 0.55447 0.0
O65 O 0.82449 0.78378 0.42557 0.0
O66 O 0.79513 0.78218 0.46678 0.0
C67 C 0.79732 0.79369 0.57541 0.0
C68 C 0.80278 0.78147 0.43055 0.0
O69 O 0.86419 0.79364 0.507 0.0
Mg70 Mg 0.16948 0.79952 0.54136 0.0
O71 O 0.17529 0.84522 0.53918 0.0
O72 O 0.21264 0.85239 0.5364 0.0
Mg73 Mg 0.23081 0.81187 0.53754 0.0
C74 C 0.19227 0.8611 0.53715 0.0
C75 C 0.11848 0.78657 0.53553 0.0
O76 O 0.12685 0.76369 0.54869 0.0
O77 O 0.17791 0.79602 0.47438 0.0
O78 O 0.21551 0.8022 0.47585 0.0
O79 O 0.17263 0.79923 0.60872 0.0
O80 O 0.20127 0.79352 0.56669 0.0
C81 C 0.19716 0.79732 0.45673 0.0
C82 C 0.19416 0.79548 0.6032 0.0
O83 O 0.13194 0.80602 0.52876 0.0
Mg84 Mg 0.17042 0.20891 0.4919 0.0
O85 O 0.17515 0.16295 0.49647 0.0
O86 O 0.21237 0.15487 0.50031 0.0
Mg87 Mg 0.23139 0.19464 0.4997 0.0
C88 C 0.19187 0.14666 0.49918 0.0
C89 C 0.12002 0.19203 0.47792 0.0
O90 O 0.12941 0.18121 0.44578 0.0
O91 O 0.17769 0.21394 0.55901 0.0
O92 O 0.21502 0.20541 0.56015 0.0
O93 O 0.17481 0.20732 0.42477 0.0
O94 O 0.20283 0.21319 0.46794 0.0
C95 C 0.19646 0.21158 0.57781 0.0
C96 C 0.19633 0.21031 0.43122 0.0
O97 O 0.13249 0.20432 0.5032 0.0
Mg98 Mg 0.82758 0.19693 0.53844 0.0
O99 O 0.82223 0.15124 0.53447 0.0
O100 O 0.78498 0.14313 0.53349 0.0
Mg101 Mg 0.76642 0.18344 0.53543 0.0
C102 C 0.80551 0.13496 0.53305 0.0
C103 C 0.8782 0.21122 0.52588 0.0
O104 O 0.86959 0.23499 0.53428 0.0
O105 O 0.81872 0.20134 0.47193 0.0
O106 O 0.78125 0.19406 0.47356 0.0
O107 O 0.82476 0.196 0.60586 0.0
O108 O 0.79587 0.20207 0.56465 0.0
C109 C 0.79947 0.19972 0.45445 0.0
C110 C 0.80317 0.19951 0.60092 0.0
O111 O 0.86509 0.19095 0.52464 0.0
H112 H 0.27313 0.38953 -0.00179 0.0
H113 H 0.27681 0.43826 0.00328 0.0
H114 H 0.34954 0.43063 0.01034 0.0
H115 H 0.34611 0.38153 0.00559 0.0
H116 H 0.32991 0.46604 0.06883 0.0
H117 H 0.30002 0.48887 0.91424 0.0
H118 H 0.28121 0.46709 0.94152 0.0
H119 H 0.30936 0.45571 0.92915 0.0
C120 C 0.28997 0.39809 0.0007 0.0
C121 C 0.30935 0.38154 0.00127 0.0
C122 C 0.29202 0.42601 0.00339 0.0
C123 C 0.31345 0.43803 0.0065 0.0
C124 C 0.33286 0.42169 0.00764 0.0
H125 H 0.34089 0.61143 0.0367 0.0
H126 H 0.34678 0.56279 0.02942 0.0
C127 C 0.33085 0.39366 0.00486 0.0
C128 C 0.31529 0.46768 0.00942 0.0
H129 H 0.29992 0.52551 0.96127 0.0
C130 C 0.32372 0.47913 0.04513 0.0
C131 C 0.30728 0.48462 0.9783 0.0
C132 C 0.29916 0.47348 0.93847 0.0
C133 C 0.32317 0.50712 0.0514 0.0
C134 C 0.3142 0.52392 0.02096 0.0
C135 C 0.30665 0.51251 0.98464 0.0
C136 C 0.31102 0.55319 0.02704 0.0
C137 C 0.33117 0.51844 0.09116 0.0
C138 C 0.289 0.56381 0.02785 0.0
C139 C 0.28555 0.59147 0.0319 0.0
C140 C 0.30411 0.60916 0.03498 0.0
C141 C 0.32622 0.5984 0.03452 0.0
C142 C 0.32963 0.57062 0.03052 0.0
H143 H 0.33422 0.50242 0.11386 0.0
H144 H 0.34728 0.52954 0.08645 0.0
H145 H 0.31852 0.53287 0.10347 0.0
H146 H 0.27442 0.55065 0.02514 0.0
H147 H 0.26829 0.59895 0.03213 0.0
H148 H 0.41467 0.24283 0.97566 0.0
H149 H 0.45585 0.24701 0.97893 0.0
H150 H 0.44904 0.3276 0.02608 0.0
H151 H 0.40763 0.32351 0.02338 0.0
H152 H 0.48282 0.28511 0.93914 0.0
H153 H 0.49295 0.29153 0.10568 0.0
H154 H 0.4671 0.27996 0.08224 0.0
H155 H 0.47353 0.31528 0.08384 0.0
C156 C 0.42187 0.26141 0.98702 0.0
C157 C 0.40785 0.28283 -0.00064 0.0
C158 C 0.44543 0.26376 0.98879 0.0
C159 C 0.45548 0.2875 0.00307 0.0
C160 C 0.4416 0.30893 0.01558 0.0
H161 H 0.5992 0.3264 0.03213 0.0
H162 H 0.55783 0.3295 0.02761 0.0
C163 C 0.41796 0.30659 0.01388 0.0
C164 C 0.48053 0.28985 0.0036 0.0
H165 H 0.52614 0.29592 0.06633 0.0
C166 C 0.49231 0.28755 0.96693 0.0
C167 C 0.49281 0.29316 0.03989 0.0
C168 C 0.48104 0.29493 0.08025 0.0
C169 C 0.51608 0.28826 0.96557 0.0
C170 C 0.52839 0.29092 0.00193 0.0
C171 C 0.51662 0.29387 0.03852 0.0
C172 C 0.55348 0.28951 0.00288 0.0
C173 C 0.52783 0.28628 0.9252 0.0
C174 C 0.5647 0.26595 0.99058 0.0
C175 C 0.5883 0.26409 -0.00689 0.0
C176 C 0.60113 0.28572 0.00822 0.0
C177 C 0.58983 0.30939 0.02025 0.0
C178 C 0.5662 0.31121 0.01776 0.0
H179 H 0.51632 0.29196 0.9001 0.0
H180 H 0.54306 0.2994 0.92419 0.0
H181 H 0.53337 0.26518 0.92014 0.0
H182 H 0.55515 0.24878 0.97972 0.0
H183 H 0.59643 0.24554 0.98376 0.0
H184 H 0.72938 0.39762 0.02096 0.0
H185 H 0.72273 0.44554 0.01029 0.0
H186 H 0.65058 0.43283 0.01947 0.0
H187 H 0.65699 0.38466 0.03043 0.0
H188 H 0.69562 0.46868 0.94626 0.0
H189 H 0.66438 0.49548 0.0999 0.0
H190 H 0.68016 0.46497 0.09006 0.0
H191 H 0.65104 0.46747 0.0749 0.0
C192 C 0.71207 0.40492 0.02101 0.0
C193 C 0.69372 0.38722 0.02665 0.0
C194 C 0.70832 0.43234 0.0148 0.0
C195 C 0.6862 0.44269 0.01436 0.0
C196 C 0.6678 0.42523 0.0202 0.0
H197 H 0.65096 0.61422 -0.00574 0.0
H198 H 0.64708 0.56511 -0.00316 0.0
C199 C 0.67152 0.39771 0.02634 0.0
C200 C 0.68264 0.47173 0.00683 0.0
H201 H 0.66763 0.53064 0.05287 0.0
C202 C 0.68931 0.48223 0.96941 0.0
C203 C 0.67419 0.48923 0.03699 0.0
C204 C 0.66712 0.47889 0.07787 0.0
C205 C 0.68835 0.50995 0.9617 0.0
C206 C 0.68094 0.52762 -0.00748 0.0
C207 C 0.67334 0.51701 0.02934 0.0
C208 C 0.68286 0.55721 0.98844 0.0
C209 C 0.69548 0.5201 0.92074 0.0
C210 C 0.70426 0.56897 0.98302 0.0
C211 C 0.70656 0.59689 0.98156 0.0
C212 C 0.6875 0.61372 0.98575 0.0
C213 C 0.66599 0.60187 0.99075 0.0
C214 C 0.66372 0.57383 -0.00769 0.0
H215 H 0.69366 0.50424 0.89728 0.0
H216 H 0.68535 0.53793 0.91166 0.0
H217 H 0.71361 0.52604 0.92182 0.0
H218 H 0.71932 0.55652 0.98084 0.0
H219 H 0.7234 0.60525 0.97779 0.0
H220 H 0.40506 0.74799 0.07192 0.0
H221 H 0.44629 0.74424 0.06816 0.0
H222 H 0.43994 0.66784 0.00719 0.0
H223 H 0.39852 0.67157 0.0103 0.0
H224 H 0.47382 0.70384 0.10048 0.0
H225 H 0.48319 0.71002 0.93382 0.0
H226 H 0.4573 0.7193 0.95948 0.0
H227 H 0.46416 0.68442 0.95167 0.0
C228 C 0.41237 0.73043 0.05748 0.0
C229 C 0.39848 0.71012 0.04126 0.0
C230 C 0.43596 0.72832 0.05544 0.0
C231 C 0.44616 0.70592 0.03704 0.0
C232 C 0.4324 0.68553 0.02089 0.0
H233 H 0.59004 0.671 -0.0018 0.0
H234 H 0.54874 0.66693 0.00346 0.0
C235 C 0.40874 0.68765 0.02284 0.0
C236 C 0.47123 0.70386 0.03569 0.0
H237 H 0.51657 0.70274 0.97151 0.0
C238 C 0.48318 0.70353 0.07229 0.0
C239 C 0.48337 0.70332 -0.00113 0.0
C240 C 0.47143 0.7045 0.95867 0.0
C241 C 0.50697 0.70287 0.07308 0.0
C242 C 0.51912 0.70297 0.03628 0.0
C243 C 0.50718 0.70265 -0.00033 0.0
C244 C 0.5442 0.7047 0.03506 0.0
C245 C 0.5189 0.70198 0.1133 0.0
C246 C 0.55529 0.72732 0.05102 0.0
C247 C 0.57884 0.72972 0.04808 0.0
C248 C 0.59175 0.7096 0.02889 0.0
C249 C 0.5806 0.68682 0.01326 0.0
C250 C 0.55701 0.68446 0.01617 0.0
H251 H 0.50757 0.6943 0.13748 0.0
H252 H 0.53427 0.68906 0.11184 0.0
H253 H 0.52425 0.72264 0.12179 0.0
H254 H 0.54567 0.74342 0.06501 0.0
H255 H 0.58686 0.74757 0.06028 0.0
H256 H 0.77748 0.8917 0.46429 0.0
H257 H 0.78429 0.94008 0.46932 0.0
H258 H 0.85204 0.92502 0.51257 0.0
H259 H 0.8455 0.87637 0.50731 0.0
H260 H 0.82207 0.96067 0.56215 0.0
H261 H 0.82764 0.99023 0.40093 0.0
H262 H 0.80469 0.96785 0.4133 0.0
H263 H 0.83346 0.9564 0.41818 0.0
C264 C 0.79395 0.89861 0.4744 0.0
C265 C 0.81093 0.88017 0.48552 0.0
C266 C 0.79783 0.92627 0.47704 0.0
C267 C 0.8187 0.93602 0.49102 0.0
C268 C 0.83587 0.91778 0.50145 0.0
H269 H 0.84534 0.10983 0.5125 0.0
H270 H 0.85181 0.06137 0.50369 0.0
C271 C 0.83211 0.89004 0.49835 0.0
C272 C 0.82168 0.96523 0.49758 0.0
H273 H 0.82105 0.02558 0.44855 0.0
C274 C 0.82225 0.97489 0.53736 0.0
C275 C 0.82198 0.98362 0.46512 0.0
C276 C 0.8221 0.97409 0.42191 0.0
C277 C 0.82192 0.00262 0.54553 0.0
C278 C 0.82103 0.02096 0.5131 0.0
C279 C 0.82164 0.01135 0.47331 0.0
C280 C 0.81761 0.05006 0.51995 0.0
C281 C 0.82185 0.01221 0.58872 0.0
C282 C 0.79624 0.05953 0.53192 0.0
C283 C 0.7924 0.08709 0.53662 0.0
C284 C 0.80995 0.10569 0.52968 0.0
C285 C 0.8315 0.09604 0.51827 0.0
C286 C 0.83523 0.06842 0.51313 0.0
H287 H 0.8268 0.99597 0.60997 0.0
H288 H 0.83361 0.02948 0.59254 0.0
H289 H 0.80454 0.0192 0.59681 0.0
H290 H 0.78241 0.04557 0.53704 0.0
H291 H 0.77564 0.0938 0.54553 0.0
H292 H 0.09531 0.83183 0.51237 0.0
H293 H 0.0543 0.83682 0.50344 0.0
H294 H 0.0447 0.75367 0.53639 0.0
H295 H 0.08562 0.74839 0.54513 0.0
H296 H 0.0211 0.76972 0.46594 0.0
H297 H 0.00614 0.83962 0.59447 0.0
H298 H 0.02792 0.84972 0.55966 0.0
H299 H 0.03177 0.81993 0.58948 0.0
C300 C 0.08448 0.8146 0.51776 0.0
C301 C 0.09373 0.78972 0.52959 0.0
C302 C 0.06105 0.81755 0.51287 0.0
C303 C 0.04648 0.79571 0.51979 0.0
C304 C 0.05567 0.7708 0.5311 0.0
H305 H 0.90074 0.78866 0.54808 0.0
H306 H 0.94194 0.78765 0.55706 0.0
C307 C 0.07907 0.76784 0.5361 0.0
C308 C 0.02166 0.79856 0.51448 0.0
H309 H 0.97482 0.83062 0.55181 0.0
C310 C 0.01097 0.78305 0.48465 0.0
C311 C 0.00852 0.81578 0.53926 0.0
C312 C 0.01907 0.83208 0.57278 0.0
C313 C 0.98744 0.78443 0.4787 0.0
C314 C 0.97434 0.80201 0.50298 0.0
C315 C 0.98499 0.81736 0.53305 0.0
C316 C 0.94944 0.80411 0.4982 0.0
C317 C 0.9767 0.76669 0.44705 0.0
C318 C 0.94007 0.81426 0.46246 0.0
C319 C 0.91656 0.81491 0.45723 0.0
C320 C 0.902 0.80542 0.48769 0.0
C321 C 0.91147 0.796 0.52395 0.0
C322 C 0.93499 0.79544 0.52918 0.0
H323 H 0.98828 0.75029 0.43714 0.0
H324 H 0.96078 0.75756 0.45858 0.0
H325 H 0.97239 0.77905 0.42028 0.0
H326 H 0.95097 0.82143 0.43845 0.0
H327 H 0.90983 0.82243 0.42903 0.0
H328 H 0.15086 0.12024 0.50256 0.0
H329 H 0.14457 0.07148 0.50692 0.0
H330 H 0.21683 0.05812 0.50529 0.0
H331 H 0.22335 0.10639 0.50074 0.0
H332 H 0.19064 0.02549 0.44996 0.0
H333 H 0.15783 0.02319 0.60772 0.0
H334 H 0.14487 0.04628 0.57285 0.0
H335 H 0.17367 0.05147 0.58835 0.0
C336 C 0.16541 0.10692 0.50314 0.0
C337 C 0.18762 0.11729 0.5014 0.0
C338 C 0.16176 0.0791 0.50581 0.0
C339 C 0.18026 0.06131 0.50678 0.0
C340 C 0.20235 0.07157 0.50467 0.0
H341 H 0.22409 0.90067 0.52893 0.0
H342 H 0.2178 0.94878 0.52004 0.0
C343 C 0.20601 0.09923 0.50212 0.0
C344 C 0.17701 0.03185 0.5095 0.0
H345 H 0.16379 0.98154 0.57552 0.0
C346 C 0.18447 0.01586 0.47719 0.0
C347 C 0.16884 0.01943 0.54499 0.0
C348 C 0.16091 0.03584 0.58067 0.0
C349 C 0.18479 0.98772 0.47997 0.0
C350 C 0.17781 0.97532 0.51626 0.0
C351 C 0.16922 0.9912 0.54783 0.0
C352 C 0.18121 0.94618 0.52303 0.0
C353 C 0.19304 0.97148 0.44434 0.0
C354 C 0.1627 0.92891 0.5289 0.0
C355 C 0.16621 0.90125 0.53409 0.0
C356 C 0.18834 0.89051 0.53385 0.0
C357 C 0.20682 0.90813 0.52907 0.0
C358 C 0.20327 0.93565 0.52378 0.0
H359 H 0.19154 0.98297 0.41575 0.0
H360 H 0.2112 0.96637 0.44875 0.0
H361 H 0.18338 0.95239 0.44135 0.0
H362 H 0.14555 0.93677 0.52874 0.0
H363 H 0.1516 0.88829 0.53784 0.0
H364 H 0.90172 0.16471 0.51046 0.0
H365 H 0.94272 0.15954 0.50148 0.0
H366 H 0.95158 0.24504 0.51782 0.0
H367 H 0.91064 0.25049 0.52645 0.0
H368 H 0.97571 0.22343 0.45169 0.0
H369 H 0.9904 0.16508 0.59215 0.0
H370 H 0.96905 0.15161 0.55915 0.0
H371 H 0.96456 0.18365 0.5831 0.0
C372 C 0.91238 0.18243 0.51212 0.0
C373 C 0.90292 0.20801 0.51937 0.0
C374 C 0.93581 0.1794 0.5072 0.0
C375 C 0.95018 0.20185 0.50958 0.0
C376 C 0.94076 0.22744 0.51607 0.0
H377 H 0.09527 0.21222 0.54099 0.0
H378 H 0.05397 0.21353 0.54783 0.0
C379 C 0.91736 0.2305 0.52104 0.0
C380 C 0.97504 0.19881 0.50502 0.0
H381 H 0.02186 0.17066 0.54853 0.0
C382 C 0.98582 0.21186 0.47278 0.0
C383 C 0.98816 0.18393 0.53289 0.0
C384 C 0.97755 0.17043 0.569 0.0
C385 C 0.00941 0.21032 0.46751 0.0
C386 C 0.02249 0.19506 0.49498 0.0
C387 C 0.01173 0.18213 0.52735 0.0
C388 C 0.04747 0.19309 0.49135 0.0
C389 C 0.02023 0.22554 0.43317 0.0
C390 C 0.05746 0.18065 0.4577 0.0
C391 C 0.08107 0.17984 0.45369 0.0
C392 C 0.09508 0.19142 0.48333 0.0
C393 C 0.08498 0.20322 0.51753 0.0
C394 C 0.06139 0.20397 0.52153 0.0
H395 H 0.0086 0.24092 0.42037 0.0
H396 H 0.03603 0.23569 0.44325 0.0
H397 H 0.02477 0.21119 0.40876 0.0
H398 H 0.04699 0.17173 0.43441 0.0
H399 H 0.08829 0.17047 0.42709 0.0
H400 H 0.24229 0.21631 0.43686 0.0
H401 H 0.26912 0.22404 0.38227 0.0
H402 H 0.21506 0.21641 0.29553 0.0
H403 H 0.18804 0.20772 0.35011 0.0
H404 H 0.25685 0.19266 0.27076 0.0
H405 H 0.26758 0.29771 0.32678 0.0
H406 H 0.27392 0.27138 0.3621 0.0
H407 H 0.24531 0.27595 0.34482 0.0
C408 C 0.2361 0.2156 0.40621 0.0
C409 C 0.21295 0.2115 0.39787 0.0
C410 C 0.2515 0.22024 0.37504 0.0
C411 C 0.24398 0.22127 0.33505 0.0
C412 C 0.22115 0.21575 0.32633 0.0
H413 H 0.26961 0.3027 0.12476 0.0
H414 H 0.26093 0.28611 0.19202 0.0
C415 C 0.20573 0.21087 0.35752 0.0
C416 C 0.25934 0.23034 0.30256 0.0
H417 H 0.28595 0.28634 0.26646 0.0
C418 C 0.26359 0.21297 0.27002 0.0
C419 C 0.26801 0.25691 0.30188 0.0
C420 C 0.2634 0.27671 0.33555 0.0
C421 C 0.2754 0.22189 0.2358 0.0
C422 C 0.28328 0.24877 0.2345 0.0
C423 C 0.28006 0.26567 0.26792 0.0
C424 C 0.29087 0.26106 0.19633 0.0
C425 C 0.27807 0.20314 0.20024 0.0
C426 C 0.31107 0.25318 0.17715 0.0
C427 C 0.31617 0.26279 0.13848 0.0
C428 C 0.30099 0.28014 0.11866 0.0
C429 C 0.28151 0.28912 0.13911 0.0
C430 C 0.27655 0.27973 0.17758 0.0
H431 H 0.26916 0.18368 0.20485 0.0
H432 H 0.27135 0.21274 0.17248 0.0
H433 H 0.29634 0.1989 0.19524 0.0
H434 H 0.32243 0.23898 0.19148 0.0
H435 H 0.33129 0.25555 0.12335 0.0
H436 H 0.69025 0.2971 0.18228 0.0
H437 H 0.71559 0.28556 0.23802 0.0
H438 H 0.77061 0.27371 0.15397 0.0
H439 H 0.74541 0.28456 0.09822 0.0
H440 H 0.7634 0.23012 0.20172 0.0
H441 H 0.76843 0.32233 0.29534 0.0
H442 H 0.73975 0.31317 0.28358 0.0
H443 H 0.75878 0.32275 0.24364 0.0
C444 C 0.70787 0.29265 0.17576 0.0
C445 C 0.71578 0.29175 0.1358 0.0
C446 C 0.72237 0.28623 0.20766 0.0
C447 C 0.74504 0.27906 0.2001 0.0
C448 C 0.75322 0.27935 0.16043 0.0
H449 H 0.82708 0.23291 0.41046 0.0
H450 H 0.81898 0.2517 0.34355 0.0
C451 C 0.73875 0.28566 0.12859 0.0
C452 C 0.7593 0.26801 0.2328 0.0
H453 H 0.77768 0.2805 0.32848 0.0
C454 C 0.76692 0.24132 0.22914 0.0
C455 C 0.76416 0.28274 0.26824 0.0
C456 C 0.75755 0.31193 0.27284 0.0
C457 C 0.77799 0.22841 0.26107 0.0
C458 C 0.78127 0.2425 0.29762 0.0
C459 C 0.77501 0.26971 0.3004 0.0
C460 C 0.78833 0.22851 0.33479 0.0
C461 C 0.78543 0.19954 0.25592 0.0
C462 C 0.77398 0.20897 0.35142 0.0
C463 C 0.77844 0.1984 0.38945 0.0
C464 C 0.79737 0.20716 0.41157 0.0
C465 C 0.81246 0.22565 0.39394 0.0
C466 C 0.80782 0.23648 0.3559 0.0
H467 H 0.78825 0.19449 0.22363 0.0
H468 H 0.80127 0.19545 0.27295 0.0
H469 H 0.77196 0.18604 0.26761 0.0
H470 H 0.75867 0.20286 0.33583 0.0
H471 H 0.76655 0.18414 0.40223 0.0
H472 H 0.8126 0.78143 0.34965 0.0
H473 H 0.78675 0.77013 0.29428 0.0
H474 H 0.73185 0.7608 0.37917 0.0
H475 H 0.75744 0.77151 0.43444 0.0
H476 H 0.73762 0.71685 0.32849 0.0
H477 H 0.73419 0.81216 0.2419 0.0
H478 H 0.76253 0.80105 0.25282 0.0
H479 H 0.74396 0.81062 0.29348 0.0
C480 C 0.79495 0.7774 0.3564 0.0
C481 C 0.78707 0.77753 0.3964 0.0
C482 C 0.78018 0.7711 0.32477 0.0
C483 C 0.75735 0.76496 0.33271 0.0
C484 C 0.74937 0.76569 0.37246 0.0
H485 H 0.66848 0.73276 0.12607 0.0
H486 H 0.67865 0.74706 0.19469 0.0
C487 C 0.76405 0.77196 0.40399 0.0
C488 C 0.7423 0.75545 0.30008 0.0
H489 H 0.72146 0.77236 0.2077 0.0
C490 C 0.73377 0.72911 0.30234 0.0
C491 C 0.737 0.77166 0.26643 0.0
C492 C 0.7447 0.80055 0.26357 0.0
C493 C 0.72117 0.718 0.27062 0.0
C494 C 0.71721 0.73359 0.23577 0.0
C495 C 0.72457 0.76044 0.23452 0.0
C496 C 0.70831 0.72149 0.19831 0.0
C497 C 0.71273 0.68944 0.27414 0.0
C498 C 0.72131 0.70193 0.17835 0.0
C499 C 0.71567 0.69395 0.13936 0.0
C500 C 0.6969 0.70534 0.11969 0.0
C501 C 0.68293 0.72352 0.14073 0.0
C502 C 0.68876 0.73179 0.17974 0.0
H503 H 0.71077 0.68339 0.3062 0.0
H504 H 0.69621 0.68687 0.25854 0.0
H505 H 0.72522 0.67564 0.25991 0.0
H506 H 0.73664 0.69407 0.19193 0.0
H507 H 0.7267 0.67987 0.12382 0.0
H508 H 0.16835 0.76662 0.4107 0.0
H509 H 0.17626 0.74845 0.34312 0.0
H510 H 0.23848 0.79397 0.3387 0.0
H511 H 0.23071 0.81226 0.40549 0.0
H512 H 0.21387 0.79224 0.2646 0.0
H513 H 0.22785 0.69121 0.33339 0.0
H514 H 0.20088 0.70734 0.34161 0.0
H515 H 0.22602 0.72142 0.36357 0.0
C516 C 0.18341 0.77325 0.39482 0.0
C517 C 0.19909 0.79055 0.41352 0.0
C518 C 0.18797 0.7627 0.35644 0.0
C519 C 0.20814 0.76954 0.33642 0.0
C520 C 0.22288 0.78836 0.35382 0.0
H521 H 0.30734 0.7048 0.18305 0.0
H522 H 0.28161 0.71738 0.23798 0.0
C523 C 0.21844 0.79872 0.39204 0.0
C524 C 0.21534 0.75568 0.29911 0.0
H525 H 0.23918 0.69692 0.2662 0.0
C526 C 0.21896 0.77124 0.26449 0.0
C527 C 0.22222 0.72838 0.29957 0.0
C528 C 0.21922 0.71101 0.33649 0.0
C529 C 0.23028 0.7606 0.23085 0.0
C530 C 0.23783 0.73355 0.23181 0.0
C531 C 0.23329 0.71761 0.2657 0.0
C532 C 0.2523 0.72238 0.19944 0.0
C533 C 0.23531 0.77888 0.19562 0.0
C534 C 0.24408 0.72012 0.15998 0.0
C535 C 0.25874 0.71317 0.12859 0.0
C536 C 0.28182 0.70802 0.13622 0.0
C537 C 0.28968 0.70869 0.17619 0.0
C538 C 0.275 0.71582 0.20758 0.0
H539 H 0.23207 0.80039 0.20293 0.0
H540 H 0.25325 0.77672 0.18588 0.0
H541 H 0.22432 0.77323 0.16982 0.0
H542 H 0.22652 0.7247 0.15325 0.0
H543 H 0.25209 0.71291 0.09822 0.0
H544 H 0.23997 0.78757 0.59944 0.0
H545 H 0.26536 0.77557 0.6544 0.0
H546 H 0.20989 0.7819 0.73879 0.0
H547 H 0.18432 0.79474 0.68391 0.0
H548 H 0.25202 0.80233 0.76799 0.0
H549 H 0.26014 0.69953 0.70212 0.0
H550 H 0.2679 0.72695 0.66967 0.0
H551 H 0.23892 0.72318 0.68541 0.0
C552 C 0.23318 0.78706 0.62973 0.0
C553 C 0.21004 0.79201 0.63725 0.0
C554 C 0.24774 0.77997 0.66108 0.0
C555 C 0.23938 0.77736 0.70041 0.0
C556 C 0.21661 0.78373 0.70849 0.0
H557 H 0.26253 0.68589 0.90432 0.0
H558 H 0.25438 0.70435 0.83793 0.0
C559 C 0.20203 0.79102 0.67713 0.0
C560 C 0.2538 0.76604 0.73261 0.0
H561 H 0.27852 0.70749 0.7637 0.0
C562 C 0.25814 0.78174 0.76693 0.0
C563 C 0.26165 0.73912 0.73093 0.0
C564 C 0.25683 0.72106 0.69525 0.0
C565 C 0.26938 0.77087 0.80044 0.0
C566 C 0.27663 0.74371 0.79919 0.0
C567 C 0.27315 0.72839 0.7642 0.0
C568 C 0.2842 0.72969 0.83604 0.0
C569 C 0.27217 0.78796 0.83779 0.0
C570 C 0.30425 0.73693 0.85608 0.0
C571 C 0.30903 0.72628 0.89422 0.0
C572 C 0.29369 0.70846 0.91266 0.0
C573 C 0.27453 0.69982 0.89106 0.0
C574 C 0.26987 0.71029 0.85307 0.0
H575 H 0.26313 0.80753 0.83539 0.0
H576 H 0.2657 0.77711 0.8647 0.0
H577 H 0.29045 0.79213 0.84269 0.0
H578 H 0.31566 0.75162 0.84302 0.0
H579 H 0.32393 0.73328 0.9102 0.0
H580 H 0.31497 0.31137 0.85475 0.0
H581 H 0.2897 0.30666 0.79648 0.0
H582 H 0.2438 0.25883 0.86825 0.0
H583 H 0.26818 0.26474 0.92661 0.0
H584 H 0.28118 0.26347 0.75926 0.0
H585 H 0.19833 0.30183 0.81002 0.0
H586 H 0.224 0.30801 0.83815 0.0
H587 H 0.20819 0.27727 0.84532 0.0
C588 C 0.29923 0.30036 0.85814 0.0
C589 C 0.29351 0.28843 0.89509 0.0
C590 C 0.28477 0.29773 0.82495 0.0
C591 C 0.26457 0.28279 0.82808 0.0
C592 C 0.25877 0.27129 0.86528 0.0
H593 H 0.21606 0.18349 0.63815 0.0
H594 H 0.22921 0.20216 0.70232 0.0
C595 C 0.27292 0.2744 0.89857 0.0
C596 C 0.2512 0.27602 0.79157 0.0
H597 H 0.1971 0.26769 0.75677 0.0
C598 C 0.26283 0.26493 0.75855 0.0
C599 C 0.22724 0.27823 0.79011 0.0
C600 C 0.21381 0.29229 0.82269 0.0
C601 C 0.25118 0.25478 0.72511 0.0
C602 C 0.22717 0.25459 0.72543 0.0
C603 C 0.21549 0.26705 0.75726 0.0
C604 C 0.21424 0.24144 0.69266 0.0
C605 C 0.26483 0.24432 0.68979 0.0
C606 C 0.19962 0.25653 0.66812 0.0
C607 C 0.19142 0.24553 0.6321 0.0
C608 C 0.19805 0.21952 0.62029 0.0
C609 C 0.21082 0.20362 0.64677 0.0
C610 C 0.21851 0.21436 0.6831 0.0
H611 H 0.28198 0.25357 0.68878 0.0
H612 H 0.2671 0.22224 0.69288 0.0
H613 H 0.25617 0.24841 0.66073 0.0
H614 H 0.19595 0.27739 0.67524 0.0
H615 H 0.18175 0.25818 0.61183 0.0
H616 H 0.73479 0.30851 0.90177 0.0
H617 H 0.7426 0.2897 0.83527 0.0
H618 H 0.68373 0.23863 0.84521 0.0
H619 H 0.67568 0.25757 0.91228 0.0
H620 H 0.72577 0.21136 0.82893 0.0
H621 H 0.71189 0.29627 0.72398 0.0
H622 H 0.72819 0.30574 0.76745 0.0
H623 H 0.69924 0.29503 0.77364 0.0
C624 C 0.72318 0.29374 0.88945 0.0
C625 C 0.70468 0.28441 0.91221 0.0
C626 C 0.7276 0.28312 0.85136 0.0
C627 C 0.71365 0.26293 0.83531 0.0
C628 C 0.69457 0.25435 0.8571 0.0
H629 H 0.75748 0.20804 0.59818 0.0
H630 H 0.73217 0.21813 0.6542 0.0
C631 C 0.68995 0.26526 0.89522 0.0
C632 C 0.72082 0.24903 0.79801 0.0
H633 H 0.73796 0.26182 0.70183 0.0
C634 C 0.72797 0.22213 0.80077 0.0
C635 C 0.7235 0.26308 0.76136 0.0
C636 C 0.71508 0.29156 0.75622 0.0
C637 C 0.73914 0.20947 0.76849 0.0
C638 C 0.74344 0.22428 0.73295 0.0
C639 C 0.7349 0.25057 0.72931 0.0
C640 C 0.75795 0.21376 0.70005 0.0
C641 C 0.74668 0.18062 0.77307 0.0
C642 C 0.78081 0.20742 0.70733 0.0
C643 C 0.79539 0.2014 0.67525 0.0
C644 C 0.78736 0.20188 0.63539 0.0
C645 C 0.76425 0.20723 0.62845 0.0
C646 C 0.7497 0.21311 0.66047 0.0
H647 H 0.73614 0.16981 0.79562 0.0
H648 H 0.74582 0.16966 0.74388 0.0
H649 H 0.76451 0.18023 0.78376 0.0
H650 H 0.78764 0.2084 0.73761 0.0
H651 H 0.81312 0.19752 0.68155 0.0
H652 H 0.6799 0.71058 0.84985 0.0
H653 H 0.70546 0.72275 0.79447 0.0
H654 H 0.75918 0.73776 0.87979 0.0
H655 H 0.7338 0.72631 0.93507 0.0
H656 H 0.75224 0.77982 0.82746 0.0
H657 H 0.75986 0.68324 0.74442 0.0
H658 H 0.731 0.69297 0.75401 0.0
H659 H 0.74943 0.68523 0.7956 0.0
C660 C 0.69724 0.7161 0.85672 0.0
C661 C 0.70484 0.71729 0.89682 0.0
C662 C 0.71186 0.72287 0.82508 0.0
C663 C 0.73428 0.73079 0.83311 0.0
C664 C 0.74199 0.73149 0.87301 0.0
H665 H 0.82308 0.76315 0.62657 0.0
H666 H 0.81267 0.74937 0.69518 0.0
C667 C 0.72744 0.72479 0.90455 0.0
C668 C 0.74911 0.74051 0.80029 0.0
H669 H 0.77105 0.72307 0.70875 0.0
C670 C 0.75666 0.7673 0.80177 0.0
C671 C 0.75519 0.724 0.76726 0.0
C672 C 0.74865 0.69467 0.7653 0.0
C673 C 0.76906 0.77848 0.76986 0.0
C674 C 0.77375 0.76251 0.73556 0.0
C675 C 0.76735 0.73529 0.73511 0.0
C676 C 0.7826 0.77433 0.6979 0.0
C677 C 0.77655 0.80745 0.77268 0.0
C678 C 0.76944 0.79339 0.67738 0.0
C679 C 0.77524 0.80115 0.63839 0.0
C680 C 0.79431 0.78995 0.61918 0.0
C681 C 0.80837 0.77222 0.64075 0.0
C682 C 0.80241 0.76425 0.67979 0.0
H683 H 0.77833 0.81398 0.8046 0.0
H684 H 0.79297 0.81062 0.75692 0.0
H685 H 0.76359 0.82048 0.7583 0.0
H686 H 0.7539 0.80107 0.69057 0.0
H687 H 0.76414 0.81491 0.62253 0.0
loop_
_geom_bond_atom_site_label_1
_geom_bond_atom_site_label_2
_geom_bond_distance
_geom_bond_site_symmetry_2
_ccdc_geom_bond_type
Mg0 O1 2.028 . S
Mg0 O7 1.986 . S
Mg0 O9 2.114 1_554 S
Mg0 O10 2.251 1_554 S
Mg0 O13 2.010 . S
O1 Mg0 2.028 . S
O1 C4 1.250 . S
O2 Mg3 2.028 . S
O2 C4 1.248 . S
Mg3 O2 2.028 . S
Mg3 O8 2.032 . S
Mg3 O10 2.079 1_554 S
C4 O1 1.250 . S
C4 O2 1.248 . S
C5 O6 1.264 . S
C5 O13 1.249 . S
O6 C5 1.264 . S
O7 Mg0 1.986 . S
O7 C11 1.246 . S
O8 Mg3 2.032 . S
O8 C11 1.259 . S
O9 Mg0 2.114 1_556 S
O9 C12 1.252 . S
O10 Mg0 2.251 1_556 S
O10 Mg3 2.079 1_556 S
O10 C12 1.273 . S
C11 O7 1.246 . S
C11 O8 1.259 . S
C12 O9 1.252 . S
C12 O10 1.273 . S
O13 Mg0 2.010 . S
O13 C5 1.249 . S
Mg14 O15 2.028 . S
Mg14 O21 1.986 1_554 S
Mg14 O23 2.114 . S
Mg14 O24 2.251 . S
Mg14 O27 2.010 . S
O15 Mg14 2.028 . S
O15 C18 1.250 . S
O16 Mg17 2.028 . S
O16 C18 1.248 . S
Mg17 O16 2.028 . S
Mg17 O22 2.032 1_554 S
Mg17 O24 2.079 . S
C18 O15 1.250 . S
C18 O16 1.248 . S
C19 O20 1.264 . S
C19 O27 1.249 . S
O20 C19 1.264 . S
O21 Mg14 1.986 1_556 S
O21 C25 1.246 . S
O22 Mg17 2.032 1_556 S
O22 C25 1.259 . S
O23 Mg14 2.114 . S
O23 C26 1.252 . S
O24 Mg14 2.251 . S
O24 Mg17 2.079 . S
O24 C26 1.273 . S
C25 O21 1.246 . S
C25 O22 1.259 . S
C26 O23 1.252 . S
C26 O24 1.273 . S
O27 Mg14 2.010 . S
O27 C19 1.249 . S
Mg28 O29 2.028 . S
Mg28 O35 1.986 . S
Mg28 O37 2.114 1_554 S
Mg28 O38 2.251 1_554 S
Mg28 O41 2.010 . S
O29 Mg28 2.028 . S
O29 C32 1.250 . S
O30 Mg31 2.028 . S
O30 C32 1.248 . S
Mg31 O30 2.028 . S
Mg31 O36 2.032 . S
Mg31 O38 2.079 1_554 S
C32 O29 1.250 . S
C32 O30 1.248 . S
C33 O34 1.264 . S
C33 O41 1.249 . S
O34 C33 1.264 . S
O35 Mg28 1.986 . S
O35 C39 1.246 . S
O36 Mg31 2.032 . S
O36 C39 1.259 . S
O37 Mg28 2.114 1_556 S
O37 C40 1.252 . S
O38 Mg28 2.251 1_556 S
O38 Mg31 2.079 1_556 S
O38 C40 1.273 . S
C39 O35 1.246 . S
C39 O36 1.259 . S
C40 O37 1.252 . S
C40 O38 1.273 . S
O41 Mg28 2.010 . S
O41 C33 1.249 . S
Mg42 O43 2.028 . S
Mg42 O49 1.986 1_554 S
Mg42 O51 2.114 . S
Mg42 O52 2.251 . S
Mg42 O55 2.010 . S
O43 Mg42 2.028 . S
O43 C46 1.250 . S
O44 Mg45 2.028 . S
O44 C46 1.248 . S
Mg45 O44 2.028 . S
Mg45 O50 2.032 1_554 S
Mg45 O52 2.079 . S
C46 O43 1.250 . S
C46 O44 1.248 . S
C47 O48 1.264 . S
C47 O55 1.249 . S
O48 C47 1.264 . S
O49 Mg42 1.986 1_556 S
O49 C53 1.246 . S
O50 Mg45 2.032 1_556 S
O50 C53 1.259 . S
O51 Mg42 2.114 . S
O51 C54 1.252 . S
O52 Mg42 2.251 . S
O52 Mg45 2.079 . S
O52 C54 1.273 . S
C53 O49 1.246 . S
C53 O50 1.259 . S
C54 O51 1.252 . S
C54 O52 1.273 . S
O55 Mg42 2.010 . S
O55 C47 1.249 . S
Mg56 O57 2.028 . S
Mg56 O63 1.986 . S
Mg56 O65 2.114 . S
Mg56 O66 2.251 . S
Mg56 O69 2.010 . S
O57 Mg56 2.028 . S
O57 C60 1.250 . S
O58 Mg59 2.028 . S
O58 C60 1.248 . S
Mg59 O58 2.028 . S
Mg59 O64 2.032 . S
Mg59 O66 2.079 . S
C60 O57 1.250 . S
C60 O58 1.248 . S
C61 O62 1.264 . S
C61 O69 1.249 . S
O62 C61 1.264 . S
O63 Mg56 1.986 . S
O63 C67 1.246 . S
O64 Mg59 2.032 . S
O64 C67 1.259 . S
O65 Mg56 2.114 . S
O65 C68 1.252 . S
O66 Mg56 2.251 . S
O66 Mg59 2.079 . S
O66 C68 1.273 . S
C67 O63 1.246 . S
C67 O64 1.259 . S
C68 O65 1.252 . S
C68 O66 1.273 . S
O69 Mg56 2.010 . S
O69 C61 1.249 . S
Mg70 O71 2.028 . S
Mg70 O77 1.986 . S
Mg70 O79 2.114 . S
Mg70 O80 2.251 . S
Mg70 O83 2.010 . S
O71 Mg70 2.028 . S
O71 C74 1.250 . S
O72 Mg73 2.028 . S
O72 C74 1.248 . S
Mg73 O72 2.028 . S
Mg73 O78 2.032 . S
Mg73 O80 2.079 . S
C74 O71 1.250 . S
C74 O72 1.248 . S
C75 O76 1.264 . S
C75 O83 1.249 . S
O76 C75 1.264 . S
O77 Mg70 1.986 . S
O77 C81 1.246 . S
O78 Mg73 2.032 . S
O78 C81 1.259 . S
O79 Mg70 2.114 . S
O79 C82 1.252 . S
O80 Mg70 2.251 . S
O80 Mg73 2.079 . S
O80 C82 1.273 . S
C81 O77 1.246 . S
C81 O78 1.259 . S
C82 O79 1.252 . S
C82 O80 1.273 . S
O83 Mg70 2.010 . S
O83 C75 1.249 . S
Mg84 O85 2.028 . S
Mg84 O91 1.986 . S
Mg84 O93 2.114 . S
Mg84 O94 2.251 . S
Mg84 O97 2.010 . S
O85 Mg84 2.028 . S
O85 C88 1.250 . S
O86 Mg87 2.028 . S
O86 C88 1.248 . S
Mg87 O86 2.028 . S
Mg87 O92 2.032 . S
Mg87 O94 2.079 . S
C88 O85 1.250 . S
C88 O86 1.248 . S
C89 O90 1.264 . S
C89 O97 1.249 . S
O90 C89 1.264 . S
O91 Mg84 1.986 . S
O91 C95 1.246 . S
O92 Mg87 2.032 . S
O92 C95 1.259 . S
O93 Mg84 2.114 . S
O93 C96 1.252 . S
O94 Mg84 2.251 . S
O94 Mg87 2.079 . S
O94 C96 1.273 . S
C95 O91 1.246 . S
C95 O92 1.259 . S
C96 O93 1.252 . S
C96 O94 1.273 . S
O97 Mg84 2.010 . S
O97 C89 1.249 . S
Mg98 O99 2.028 . S
Mg98 O105 1.986 . S
Mg98 O107 2.114 . S
Mg98 O108 2.251 . S
Mg98 O111 2.010 . S
O99 Mg98 2.028 . S
O99 C102 1.250 . S
O100 Mg101 2.028 . S
O100 C102 1.248 . S
Mg101 O100 2.028 . S
Mg101 O106 2.032 . S
Mg101 O108 2.079 . S
C102 O99 1.250 . S
C102 O100 1.248 . S
C103 O104 1.264 . S
C103 O111 1.249 . S
O104 C103 1.264 . S
O105 Mg98 1.986 . S
O105 C109 1.246 . S
O106 Mg101 2.032 . S
O106 C109 1.259 . S
O107 Mg98 2.114 . S
O107 C110 1.252 . S
O108 Mg98 2.251 . S
O108 Mg101 2.079 . S
O108 C110 1.273 . S
C109 O105 1.246 . S
C109 O106 1.259 . S
C110 O107 1.252 . S
C110 O108 1.273 . S
O111 Mg98 2.010 . S
O111 C103 1.249 . S
H112 C120 0.929 . S
H113 C122 0.930 . S
H114 C124 0.930 . S
H115 C127 0.929 . S
H116 C130 0.930 . S
H117 C132 0.960 . S
H118 C132 0.960 . S
H119 C132 0.960 . S
C120 H112 0.929 . S
C120 C121 1.377 . S
C120 C122 1.384 . S
C121 C120 1.377 . S
C121 C127 1.390 1_554 S
C122 H113 0.930 . S
C122 C120 1.384 . S
C122 C123 1.372 . S
C123 C122 1.372 . S
C123 C124 1.400 1_554 S
C123 C128 1.490 . S
C124 H114 0.930 . S
C124 C123 1.400 1_556 S
C124 C127 1.386 . S
H125 C141 0.930 . S
H126 C142 0.931 . S
C127 H115 0.929 . S
C127 C121 1.390 1_556 S
C127 C124 1.386 . S
C128 C123 1.490 . S
C128 C130 1.395 . S
C128 C131 1.403 . S
H129 C135 0.930 1_556 S
C130 H116 0.930 . S
C130 C128 1.395 . S
C130 C133 1.403 . S
C131 C128 1.403 . S
C131 C132 1.524 1_554 S
C131 C135 1.400 . S
C132 H117 0.960 . S
C132 H118 0.960 . S
C132 H119 0.960 . S
C132 C131 1.524 1_556 S
C133 C130 1.403 . S
C133 C134 1.392 . S
C133 C137 1.495 . S
C134 C133 1.392 . S
C134 C135 1.385 . S
C134 C136 1.478 . S
C135 H129 0.930 1_554 S
C135 C131 1.400 . S
C135 C134 1.385 . S
C136 C134 1.478 . S
C136 C138 1.381 . S
C136 C142 1.383 1_554 S
C137 C133 1.495 . S
C137 H143 0.959 . S
C137 H144 0.961 . S
C137 H145 0.960 . S
C138 C136 1.381 . S
C138 C139 1.394 . S
C138 H146 0.930 . S
C139 C138 1.394 . S
C139 C140 1.383 . S
C139 H147 0.929 . S
C140 C139 1.383 . S
C140 C141 1.377 1_554 S
C141 H125 0.930 . S
C141 C140 1.377 1_556 S
C141 C142 1.379 . S
C142 H126 0.931 . S
C142 C136 1.383 1_556 S
C142 C141 1.379 . S
H143 C137 0.959 . S
H144 C137 0.961 . S
H145 C137 0.960 . S
H146 C138 0.930 . S
H147 C139 0.929 . S
H148 C156 0.929 . S
H149 C158 0.930 . S
H150 C160 0.930 . S
H151 C163 0.929 . S
H152 C166 0.930 . S
H153 C168 0.960 . S
H154 C168 0.960 . S
H155 C168 0.960 . S
C156 H148 0.929 . S
C156 C157 1.377 . S
C156 C158 1.384 . S
C157 C156 1.377 . S
C157 C163 1.390 . S
C158 H149 0.930 . S
C158 C156 1.384 . S
C158 C159 1.372 . S
C159 C158 1.372 . S
C159 C160 1.400 . S
C159 C164 1.490 . S
C160 H150 0.930 . S
C160 C159 1.400 . S
C160 C163 1.386 . S
H161 C177 0.930 . S
H162 C178 0.931 . S
C163 H151 0.929 . S
C163 C157 1.390 . S
C163 C160 1.386 . S
C164 C159 1.490 . S
C164 C166 1.395 1_554 S
C164 C167 1.403 . S
H165 C171 0.930 . S
C166 H152 0.930 . S
C166 C164 1.395 1_556 S
C166 C169 1.403 . S
C167 C164 1.403 . S
C167 C168 1.524 . S
C167 C171 1.400 . S
C168 H153 0.960 . S
C168 H154 0.960 . S
C168 H155 0.960 . S
C168 C167 1.524 . S
C169 C166 1.403 . S
C169 C170 1.392 1_556 S
C169 C173 1.495 . S
C170 C169 1.392 1_554 S
C170 C171 1.385 . S
C170 C172 1.478 . S
C171 H165 0.930 . S
C171 C167 1.400 . S
C171 C170 1.385 . S
C172 C170 1.478 . S
C172 C174 1.381 . S
C172 C178 1.383 . S
C173 C169 1.495 . S
C173 H179 0.959 . S
C173 H180 0.961 . S
C173 H181 0.960 . S
C174 C172 1.381 . S
C174 C175 1.394 . S
C174 H182 0.930 1_554 S
C175 C174 1.394 . S
C175 C176 1.383 . S
C175 H183 0.929 1_554 S
C176 C175 1.383 . S
C176 C177 1.377 . S
C177 H161 0.930 . S
C177 C176 1.377 . S
C177 C178 1.379 . S
C178 H162 0.931 . S
C178 C172 1.383 . S
C178 C177 1.379 . S
H179 C173 0.959 . S
H180 C173 0.961 . S
H181 C173 0.960 . S
H182 C174 0.930 1_556 S
H183 C175 0.929 1_556 S
H184 C192 0.929 . S
H185 C194 0.938 . S
H186 C196 0.930 . S
H187 C199 0.929 . S
H188 C202 0.930 . S
H189 C204 0.960 . S
H190 C204 0.960 . S
H191 C204 0.960 . S
C192 H184 0.929 . S
C192 C193 1.377 . S
C192 C194 1.384 . S
C193 C192 1.377 . S
C193 C199 1.390 . S
C194 H185 0.938 . S
C194 C192 1.384 . S
C194 C195 1.372 . S
C195 C194 1.372 . S
C195 C196 1.400 . S
C195 C200 1.490 . S
C196 H186 0.930 . S
C196 C195 1.400 . S
C196 C199 1.386 . S
H197 C213 0.930 . S
H198 C214 0.931 . S
C199 H187 0.929 . S
C199 C193 1.390 . S
C199 C196 1.386 . S
C200 C195 1.490 . S
C200 C202 1.395 1_554 S
C200 C203 1.403 . S
H201 C207 0.930 . S
C202 H188 0.930 . S
C202 C200 1.395 1_556 S
C202 C205 1.403 . S
C203 C200 1.403 . S
C203 C204 1.524 . S
C203 C207 1.400 . S
C204 H189 0.960 . S
C204 H190 0.960 . S
C204 H191 0.960 . S
C204 C203 1.524 . S
C205 C202 1.403 . S
C205 C206 1.392 1_556 S
C205 C209 1.495 . S
C206 C205 1.392 1_554 S
C206 C207 1.385 . S
C206 C208 1.478 . S
C207 H201 0.930 . S
C207 C203 1.400 . S
C207 C206 1.385 . S
C208 C206 1.478 . S
C208 C210 1.381 . S
C208 C214 1.383 . S
C209 C205 1.495 . S
C209 H215 0.959 . S
C209 H216 0.961 . S
C209 H217 0.960 . S
C210 C208 1.381 . S
C210 C211 1.394 . S
C210 H218 0.930 . S
C211 C210 1.394 . S
C211 C212 1.383 . S
C211 H219 0.929 . S
C212 C211 1.383 . S
C212 C213 1.377 . S
C213 H197 0.930 . S
C213 C212 1.377 . S
C213 C214 1.379 . S
C214 H198 0.931 . S
C214 C208 1.383 . S
C214 C213 1.379 . S
H215 C209 0.959 . S
H216 C209 0.961 . S
H217 C209 0.960 . S
H218 C210 0.930 . S
H219 C211 0.929 . S
H220 C228 0.929 . S
H221 C230 0.930 . S
H222 C232 0.930 1_556 S
H223 C235 0.929 1_556 S
H224 C238 0.930 . S
H225 C240 0.960 . S
H226 C240 0.960 . S
H227 C240 0.960 . S
C228 H220 0.929 . S
C228 C229 1.377 . S
C228 C230 1.384 . S
C229 C228 1.377 . S
C229 C235 1.390 . S
C230 H221 0.930 . S
C230 C228 1.384 . S
C230 C231 1.372 . S
C231 C230 1.372 . S
C231 C232 1.400 . S
C231 C236 1.490 . S
C232 H222 0.930 1_554 S
C232 C231 1.400 . S
C232 C235 1.386 . S
H233 C249 0.930 . S
H234 C250 0.931 . S
C235 H223 0.929 1_554 S
C235 C229 1.390 . S
C235 C232 1.386 . S
C236 C231 1.490 . S
C236 C238 1.395 . S
C236 C239 1.403 1_554 S
H237 C243 0.930 . S
C238 H224 0.930 . S
C238 C236 1.395 . S
C238 C241 1.403 . S
C239 C236 1.403 1_556 S
C239 C240 1.524 . S
C239 C243 1.400 . S
C240 H225 0.960 . S
C240 H226 0.960 . S
C240 H227 0.960 . S
C240 C239 1.524 . S
C241 C238 1.403 . S
C241 C242 1.392 . S
C241 C245 1.495 . S
C242 C241 1.392 . S
C242 C243 1.385 1_554 S
C242 C244 1.478 . S
C243 H237 0.930 . S
C243 C239 1.400 . S
C243 C242 1.385 1_556 S
C244 C242 1.478 . S
C244 C246 1.381 . S
C244 C250 1.383 . S
C245 C241 1.495 . S
C245 H251 0.959 . S
C245 H252 0.961 . S
C245 H253 0.960 . S
C246 C244 1.381 . S
C246 C247 1.394 . S
C246 H254 0.930 . S
C247 C246 1.394 . S
C247 C248 1.383 . S
C247 H255 0.929 . S
C248 C247 1.383 . S
C248 C249 1.377 . S
C249 H233 0.930 . S
C249 C248 1.377 . S
C249 C250 1.379 . S
C250 H234 0.931 . S
C250 C244 1.383 . S
C250 C249 1.379 . S
H251 C245 0.959 . S
H252 C245 0.961 . S
H253 C245 0.960 . S
H254 C246 0.930 . S
H255 C247 0.929 . S
H256 C264 0.929 . S
H257 C266 0.930 . S
H258 C268 0.930 . S
H259 C271 0.929 . S
H260 C274 0.930 . S
H261 C276 0.960 . S
H262 C276 0.960 . S
H263 C276 0.960 . S
C264 H256 0.929 . S
C264 C265 1.377 . S
C264 C266 1.384 . S
C265 C264 1.377 . S
C265 C271 1.390 . S
C266 H257 0.930 . S
C266 C264 1.384 . S
C266 C267 1.372 . S
C267 C266 1.372 . S
C267 C268 1.400 . S
C267 C272 1.490 . S
C268 H258 0.930 . S
C268 C267 1.400 . S
C268 C271 1.386 . S
H269 C285 0.930 . S
H270 C286 0.931 . S
C271 H259 0.929 . S
C271 C265 1.390 . S
C271 C268 1.386 . S
C272 C267 1.490 . S
C272 C274 1.395 . S
C272 C275 1.403 . S
H273 C279 0.930 . S
C274 H260 0.930 . S
C274 C272 1.395 . S
C274 C277 1.403 1_565 S
C275 C272 1.403 . S
C275 C276 1.524 . S
C275 C279 1.400 1_565 S
C276 H261 0.960 . S
C276 H262 0.960 . S
C276 H263 0.960 . S
C276 C275 1.524 . S
C277 C274 1.403 1_545 S
C277 C278 1.392 . S
C277 C281 1.495 . S
C278 C277 1.392 . S
C278 C279 1.385 . S
C278 C280 1.478 . S
C279 H273 0.930 . S
C279 C275 1.400 1_545 S
C279 C278 1.385 . S
C280 C278 1.478 . S
C280 C282 1.381 . S
C280 C286 1.383 . S
C281 C277 1.495 . S
C281 H287 0.959 . S
C281 H288 0.961 . S
C281 H289 0.960 . S
C282 C280 1.381 . S
C282 C283 1.394 . S
C282 H290 0.930 . S
C283 C282 1.394 . S
C283 C284 1.383 . S
C283 H291 0.929 . S
C284 C283 1.383 . S
C284 C285 1.377 . S
C285 H269 0.930 . S
C285 C284 1.377 . S
C285 C286 1.379 . S
C286 H270 0.931 . S
C286 C280 1.383 . S
C286 C285 1.379 . S
H287 C281 0.959 . S
H288 C281 0.961 . S
H289 C281 0.960 . S
H290 C282 0.930 . S
H291 C283 0.929 . S
H292 C300 0.929 . S
H293 C302 0.930 . S
H294 C304 0.930 . S
H295 C307 0.929 . S
H296 C310 0.930 . S
H297 C312 0.960 . S
H298 C312 0.960 . S
H299 C312 0.960 . S
C300 H292 0.929 . S
C300 C301 1.377 . S
C300 C302 1.384 . S
C301 C300 1.377 . S
C301 C307 1.390 . S
C302 H293 0.930 . S
C302 C300 1.384 . S
C302 C303 1.372 . S
C303 C302 1.372 . S
C303 C304 1.400 . S
C303 C308 1.490 . S
C304 H294 0.930 . S
C304 C303 1.400 . S
C304 C307 1.386 . S
H305 C321 0.930 . S
H306 C322 0.931 . S
C307 H295 0.929 . S
C307 C301 1.390 . S
C307 C304 1.386 . S
C308 C303 1.490 . S
C308 C310 1.395 . S
C308 C311 1.403 . S
H309 C315 0.930 . S
C310 H296 0.930 . S
C310 C308 1.395 . S
C310 C313 1.403 1_455 S
C311 C308 1.403 . S
C311 C312 1.524 . S
C311 C315 1.400 1_455 S
C312 H297 0.960 . S
C312 H298 0.960 . S
C312 H299 0.960 . S
C312 C311 1.524 . S
C313 C310 1.403 1_655 S
C313 C314 1.392 . S
C313 C317 1.495 . S
C314 C313 1.392 . S
C314 C315 1.385 . S
C314 C316 1.478 . S
C315 H309 0.930 . S
C315 C311 1.400 1_655 S
C315 C314 1.385 . S
C316 C314 1.478 . S
C316 C318 1.381 . S
C316 C322 1.383 . S
C317 C313 1.495 . S
C317 H323 0.959 . S
C317 H324 0.961 . S
C317 H325 0.960 . S
C318 C316 1.381 . S
C318 C319 1.394 . S
C318 H326 0.930 . S
C319 C318 1.394 . S
C319 C320 1.383 . S
C319 H327 0.929 . S
C320 C319 1.383 . S
C320 C321 1.377 . S
C321 H305 0.930 . S
C321 C320 1.377 . S
C321 C322 1.379 . S
C322 H306 0.931 . S
C322 C316 1.383 . S
C322 C321 1.379 . S
H323 C317 0.959 . S
H324 C317 0.961 . S
H325 C317 0.960 . S
H326 C318 0.930 . S
H327 C319 0.929 . S
H328 C336 0.929 . S
H329 C338 0.930 . S
H330 C340 0.930 . S
H331 C343 0.929 . S
H332 C346 0.930 . S
H333 C348 0.960 . S
H334 C348 0.960 . S
H335 C348 0.960 . S
C336 H328 0.929 . S
C336 C337 1.377 . S
C336 C338 1.384 . S
C337 C336 1.377 . S
C337 C343 1.390 . S
C338 H329 0.930 . S
C338 C336 1.384 . S
C338 C339 1.372 . S
C339 C338 1.372 . S
C339 C340 1.400 . S
C339 C344 1.490 . S
C340 H330 0.930 . S
C340 C339 1.400 . S
C340 C343 1.386 . S
H341 C357 0.930 . S
H342 C358 0.931 . S
C343 H331 0.929 . S
C343 C337 1.390 . S
C343 C340 1.386 . S
C344 C339 1.490 . S
C344 C346 1.395 . S
C344 C347 1.403 . S
H345 C351 0.930 . S
C346 H332 0.930 . S
C346 C344 1.395 . S
C346 C349 1.403 1_545 S
C347 C344 1.403 . S
C347 C348 1.524 . S
C347 C351 1.400 1_545 S
C348 H333 0.960 . S
C348 H334 0.960 . S
C348 H335 0.960 . S
C348 C347 1.524 . S
C349 C346 1.403 1_565 S
C349 C350 1.392 . S
C349 C353 1.495 . S
C350 C349 1.392 . S
C350 C351 1.385 . S
C350 C352 1.478 . S
C351 H345 0.930 . S
C351 C347 1.400 1_565 S
C351 C350 1.385 . S
C352 C350 1.478 . S
C352 C354 1.381 . S
C352 C358 1.383 . S
C353 C349 1.495 . S
C353 H359 0.959 . S
C353 H360 0.961 . S
C353 H361 0.960 . S
C354 C352 1.381 . S
C354 C355 1.394 . S
C354 H362 0.930 . S
C355 C354 1.394 . S
C355 C356 1.383 . S
C355 H363 0.929 . S
C356 C355 1.383 . S
C356 C357 1.377 . S
C357 H341 0.930 . S
C357 C356 1.377 . S
C357 C358 1.379 . S
C358 H342 0.931 . S
C358 C352 1.383 . S
C358 C357 1.379 . S
H359 C353 0.959 . S
H360 C353 0.961 . S
H361 C353 0.960 . S
H362 C354 0.930 . S
H363 C355 0.929 . S
H364 C372 0.929 . S
H365 C374 0.930 . S
H366 C376 0.930 . S
H367 C379 0.929 . S
H368 C382 0.930 . S
H369 C384 0.960 . S
H370 C384 0.960 . S
H371 C384 0.960 . S
C372 H364 0.929 . S
C372 C373 1.377 . S
C372 C374 1.384 . S
C373 C372 1.377 . S
C373 C379 1.390 . S
C374 H365 0.930 . S
C374 C372 1.384 . S
C374 C375 1.372 . S
C375 C374 1.372 . S
C375 C376 1.400 . S
C375 C380 1.490 . S
C376 H366 0.930 . S
C376 C375 1.400 . S
C376 C379 1.386 . S
H377 C393 0.930 . S
H378 C394 0.931 . S
C379 H367 0.929 . S
C379 C373 1.390 . S
C379 C376 1.386 . S
C380 C375 1.490 . S
C380 C382 1.395 . S
C380 C383 1.403 . S
H381 C387 0.930 . S
C382 H368 0.930 . S
C382 C380 1.395 . S
C382 C385 1.403 1_655 S
C383 C380 1.403 . S
C383 C384 1.524 . S
C383 C387 1.400 1_655 S
C384 H369 0.960 . S
C384 H370 0.960 . S
C384 H371 0.960 . S
C384 C383 1.524 . S
C385 C382 1.403 1_455 S
C385 C386 1.392 . S
C385 C389 1.495 . S
C386 C385 1.392 . S
C386 C387 1.385 . S
C386 C388 1.478 . S
C387 H381 0.930 . S
C387 C383 1.400 1_455 S
C387 C386 1.385 . S
C388 C386 1.478 . S
C388 C390 1.381 . S
C388 C394 1.383 . S
C389 C385 1.495 . S
C389 H395 0.959 . S
C389 H396 0.961 . S
C389 H397 0.960 . S
C390 C388 1.381 . S
C390 C391 1.394 . S
C390 H398 0.930 . S
C391 C390 1.394 . S
C391 C392 1.383 . S
C391 H399 0.929 . S
C392 C391 1.383 . S
C392 C393 1.377 . S
C393 H377 0.930 . S
C393 C392 1.377 . S
C393 C394 1.379 . S
C394 H378 0.931 . S
C394 C388 1.383 . S
C394 C393 1.379 . S
H395 C389 0.959 . S
H396 C389 0.961 . S
H397 C389 0.960 . S
H398 C390 0.930 . S
H399 C391 0.929 . S
H400 C408 0.929 . S
H401 C410 0.930 . S
H402 C412 0.930 . S
H403 C415 0.929 . S
H404 C418 0.930 . S
H405 C420 0.960 . S
H406 C420 0.960 . S
H407 C420 0.960 . S
C408 H400 0.929 . S
C408 C409 1.377 . S
C408 C410 1.384 . S
C409 C408 1.377 . S
C409 C415 1.390 . S
C410 H401 0.930 . S
C410 C408 1.384 . S
C410 C411 1.372 . S
C411 C410 1.372 . S
C411 C412 1.400 . S
C411 C416 1.490 . S
C412 H402 0.930 . S
C412 C411 1.400 . S
C412 C415 1.386 . S
H413 C429 0.930 . S
H414 C430 0.931 . S
C415 H403 0.929 . S
C415 C409 1.390 . S
C415 C412 1.386 . S
C416 C411 1.490 . S
C416 C418 1.395 . S
C416 C419 1.403 . S
H417 C423 0.930 . S
C418 H404 0.930 . S
C418 C416 1.395 . S
C418 C421 1.403 . S
C419 C416 1.403 . S
C419 C420 1.524 . S
C419 C423 1.400 . S
C420 H405 0.960 . S
C420 H406 0.960 . S
C420 H407 0.960 . S
C420 C419 1.524 . S
C421 C418 1.403 . S
C421 C422 1.392 . S
C421 C425 1.495 . S
C422 C421 1.392 . S
C422 C423 1.385 . S
C422 C424 1.478 . S
C423 H417 0.930 . S
C423 C419 1.400 . S
C423 C422 1.385 . S
C424 C422 1.478 . S
C424 C426 1.381 . S
C424 C430 1.383 . S
C425 C421 1.495 . S
C425 H431 0.959 . S
C425 H432 0.961 . S
C425 H433 0.960 . S
C426 C424 1.381 . S
C426 C427 1.394 . S
C426 H434 0.930 . S
C427 C426 1.394 . S
C427 C428 1.383 . S
C427 H435 0.929 . S
C428 C427 1.383 . S
C428 C429 1.377 . S
C429 H413 0.930 . S
C429 C428 1.377 . S
C429 C430 1.379 . S
C430 H414 0.931 . S
C430 C424 1.383 . S
C430 C429 1.379 . S
H431 C425 0.959 . S
H432 C425 0.961 . S
H433 C425 0.960 . S
H434 C426 0.930 . S
H435 C427 0.929 . S
H436 C444 0.929 . S
H437 C446 0.930 . S
H438 C448 0.930 . S
H439 C451 0.929 . S
H440 C454 0.930 . S
H441 C456 0.960 . S
H442 C456 0.960 . S
H443 C456 0.960 . S
C444 H436 0.929 . S
C444 C445 1.377 . S
C444 C446 1.384 . S
C445 C444 1.377 . S
C445 C451 1.390 . S
C446 H437 0.930 . S
C446 C444 1.384 . S
C446 C447 1.372 . S
C447 C446 1.372 . S
C447 C448 1.400 . S
C447 C452 1.490 . S
C448 H438 0.930 . S
C448 C447 1.400 . S
C448 C451 1.386 . S
H449 C465 0.930 . S
H450 C466 0.931 . S
C451 H439 0.929 . S
C451 C445 1.390 . S
C451 C448 1.386 . S
C452 C447 1.490 . S
C452 C454 1.395 . S
C452 C455 1.403 . S
H453 C459 0.930 . S
C454 H440 0.930 . S
C454 C452 1.395 . S
C454 C457 1.403 . S
C455 C452 1.403 . S
C455 C456 1.524 . S
C455 C459 1.400 . S
C456 H441 0.960 . S
C456 H442 0.960 . S
C456 H443 0.960 . S
C456 C455 1.524 . S
C457 C454 1.403 . S
C457 C458 1.392 . S
C457 C461 1.495 . S
C458 C457 1.392 . S
C458 C459 1.385 . S
C458 C460 1.478 . S
C459 H453 0.930 . S
C459 C455 1.400 . S
C459 C458 1.385 . S
C460 C458 1.478 . S
C460 C462 1.381 . S
C460 C466 1.383 . S
C461 C457 1.495 . S
C461 H467 0.959 . S
C461 H468 0.961 . S
C461 H469 0.960 . S
C462 C460 1.381 . S
C462 C463 1.394 . S
C462 H470 0.930 . S
C463 C462 1.394 . S
C463 C464 1.383 . S
C463 H471 0.929 . S
C464 C463 1.383 . S
C464 C465 1.377 . S
C465 H449 0.930 . S
C465 C464 1.377 . S
C465 C466 1.379 . S
C466 H450 0.931 . S
C466 C460 1.383 . S
C466 C465 1.379 . S
H467 C461 0.959 . S
H468 C461 0.961 . S
H469 C461 0.960 . S
H470 C462 0.930 . S
H471 C463 0.929 . S
H472 C480 0.929 . S
H473 C482 0.930 . S
H474 C484 0.930 . S
H475 C487 0.929 . S
H476 C490 0.930 . S
H477 C492 0.960 . S
H478 C492 0.960 . S
H479 C492 0.960 . S
C480 H472 0.929 . S
C480 C481 1.377 . S
C480 C482 1.384 . S
C481 C480 1.377 . S
C481 C487 1.390 . S
C482 H473 0.930 . S
C482 C480 1.384 . S
C482 C483 1.372 . S
C483 C482 1.372 . S
C483 C484 1.400 . S
C483 C488 1.490 . S
C484 H474 0.930 . S
C484 C483 1.400 . S
C484 C487 1.386 . S
H485 C501 0.930 . S
H486 C502 0.931 . S
C487 H475 0.929 . S
C487 C481 1.390 . S
C487 C484 1.386 . S
C488 C483 1.490 . S
C488 C490 1.395 . S
C488 C491 1.403 . S
H489 C495 0.930 . S
C490 H476 0.930 . S
C490 C488 1.395 . S
C490 C493 1.403 . S
C491 C488 1.403 . S
C491 C492 1.524 . S
C491 C495 1.400 . S
C492 H477 0.960 . S
C492 H478 0.960 . S
C492 H479 0.960 . S
C492 C491 1.524 . S
C493 C490 1.403 . S
C493 C494 1.392 . S
C493 C497 1.495 . S
C494 C493 1.392 . S
C494 C495 1.385 . S
C494 C496 1.478 . S
C495 H489 0.930 . S
C495 C491 1.400 . S
C495 C494 1.385 . S
C496 C494 1.478 . S
C496 C498 1.381 . S
C496 C502 1.383 . S
C497 C493 1.495 . S
C497 H503 0.959 . S
C497 H504 0.961 . S
C497 H505 0.960 . S
C498 C496 1.381 . S
C498 C499 1.394 . S
C498 H506 0.930 . S
C499 C498 1.394 . S
C499 C500 1.383 . S
C499 H507 0.929 . S
C500 C499 1.383 . S
C500 C501 1.377 . S
C501 H485 0.930 . S
C501 C500 1.377 . S
C501 C502 1.379 . S
C502 H486 0.931 . S
C502 C496 1.383 . S
C502 C501 1.379 . S
H503 C497 0.959 . S
H504 C497 0.961 . S
H505 C497 0.960 . S
H506 C498 0.930 . S
H507 C499 0.929 . S
H508 C516 0.929 . S
H509 C518 0.930 . S
H510 C520 0.930 . S
H511 C523 0.929 . S
H512 C526 0.930 . S
H513 C528 0.960 . S
H514 C528 0.960 . S
H515 C528 0.960 . S
C516 H508 0.929 . S
C516 C517 1.377 . S
C516 C518 1.384 . S
C517 C516 1.377 . S
C517 C523 1.390 . S
C518 H509 0.930 . S
C518 C516 1.384 . S
C518 C519 1.372 . S
C519 C518 1.372 . S
C519 C520 1.400 . S
C519 C524 1.490 . S
C520 H510 0.930 . S
C520 C519 1.400 . S
C520 C523 1.386 . S
H521 C537 0.930 . S
H522 C538 0.931 . S
C523 H511 0.929 . S
C523 C517 1.390 . S
C523 C520 1.386 . S
C524 C519 1.490 . S
C524 C526 1.395 . S
C524 C527 1.403 . S
H525 C531 0.930 . S
C526 H512 0.930 . S
C526 C524 1.395 . S
C526 C529 1.403 . S
C527 C524 1.403 . S
C527 C528 1.524 . S
C527 C531 1.400 . S
C528 H513 0.960 . S
C528 H514 0.960 . S
C528 H515 0.960 . S
C528 C527 1.524 . S
C529 C526 1.403 . S
C529 C530 1.392 . S
C529 C533 1.495 . S
C530 C529 1.392 . S
C530 C531 1.385 . S
C530 C532 1.478 . S
C531 H525 0.930 . S
C531 C527 1.400 . S
C531 C530 1.385 . S
C532 C530 1.478 . S
C532 C534 1.381 . S
C532 C538 1.383 . S
C533 C529 1.495 . S
C533 H539 0.959 . S
C533 H540 0.961 . S
C533 H541 0.960 . S
C534 C532 1.381 . S
C534 C535 1.394 . S
C534 H542 0.930 . S
C535 C534 1.394 . S
C535 C536 1.383 . S
C535 H543 0.929 . S
C536 C535 1.383 . S
C536 C537 1.377 . S
C537 H521 0.930 . S
C537 C536 1.377 . S
C537 C538 1.379 . S
C538 H522 0.931 . S
C538 C532 1.383 . S
C538 C537 1.379 . S
H539 C533 0.959 . S
H540 C533 0.961 . S
H541 C533 0.960 . S
H542 C534 0.930 . S
H543 C535 0.929 . S
H544 C552 0.929 . S
H545 C554 0.930 . S
H546 C556 0.930 . S
H547 C559 0.929 . S
H548 C562 0.930 . S
H549 C564 0.960 . S
H550 C564 0.960 . S
H551 C564 0.960 . S
C552 H544 0.929 . S
C552 C553 1.377 . S
C552 C554 1.384 . S
C553 C552 1.377 . S
C553 C559 1.390 . S
C554 H545 0.930 . S
C554 C552 1.384 . S
C554 C555 1.372 . S
C555 C554 1.372 . S
C555 C556 1.400 . S
C555 C560 1.490 . S
C556 H546 0.930 . S
C556 C555 1.400 . S
C556 C559 1.386 . S
H557 C573 0.930 . S
H558 C574 0.931 . S
C559 H547 0.929 . S
C559 C553 1.390 . S
C559 C556 1.386 . S
C560 C555 1.490 . S
C560 C562 1.395 . S
C560 C563 1.403 . S
H561 C567 0.930 . S
C562 H548 0.930 . S
C562 C560 1.395 . S
C562 C565 1.403 . S
C563 C560 1.403 . S
C563 C564 1.524 . S
C563 C567 1.400 . S
C564 H549 0.960 . S
C564 H550 0.960 . S
C564 H551 0.960 . S
C564 C563 1.524 . S
C565 C562 1.403 . S
C565 C566 1.392 . S
C565 C569 1.495 . S
C566 C565 1.392 . S
C566 C567 1.385 . S
C566 C568 1.478 . S
C567 H561 0.930 . S
C567 C563 1.400 . S
C567 C566 1.385 . S
C568 C566 1.478 . S
C568 C570 1.381 . S
C568 C574 1.383 . S
C569 C565 1.495 . S
C569 H575 0.959 . S
C569 H576 0.961 . S
C569 H577 0.960 . S
C570 C568 1.381 . S
C570 C571 1.394 . S
C570 H578 0.930 . S
C571 C570 1.394 . S
C571 C572 1.383 . S
C571 H579 0.929 . S
C572 C571 1.383 . S
C572 C573 1.377 . S
C573 H557 0.930 . S
C573 C572 1.377 . S
C573 C574 1.379 . S
C574 H558 0.931 . S
C574 C568 1.383 . S
C574 C573 1.379 . S
H575 C569 0.959 . S
H576 C569 0.961 . S
H577 C569 0.960 . S
H578 C570 0.930 . S
H579 C571 0.929 . S
H580 C588 0.929 . S
H581 C590 0.930 . S
H582 C592 0.930 . S
H583 C595 0.929 . S
H584 C598 0.930 . S
H585 C600 0.960 . S
H586 C600 0.960 . S
H587 C600 0.960 . S
C588 H580 0.929 . S
C588 C589 1.377 . S
C588 C590 1.384 . S
C589 C588 1.377 . S
C589 C595 1.390 . S
C590 H581 0.930 . S
C590 C588 1.384 . S
C590 C591 1.372 . S
C591 C590 1.372 . S
C591 C592 1.400 . S
C591 C596 1.490 . S
C592 H582 0.930 . S
C592 C591 1.400 . S
C592 C595 1.386 . S
H593 C609 0.930 . S
H594 C610 0.931 . S
C595 H583 0.929 . S
C595 C589 1.390 . S
C595 C592 1.386 . S
C596 C591 1.490 . S
C596 C598 1.395 . S
C596 C599 1.403 . S
H597 C603 0.930 . S
C598 H584 0.930 . S
C598 C596 1.395 . S
C598 C601 1.403 . S
C599 C596 1.403 . S
C599 C600 1.524 . S
C599 C603 1.400 . S
C600 H585 0.960 . S
C600 H586 0.960 . S
C600 H587 0.960 . S
C600 C599 1.524 . S
C601 C598 1.403 . S
C601 C602 1.392 . S
C601 C605 1.495 . S
C602 C601 1.392 . S
C602 C603 1.385 . S
C602 C604 1.478 . S
C603 H597 0.930 . S
C603 C599 1.400 . S
C603 C602 1.385 . S
C604 C602 1.478 . S
C604 C606 1.381 . S
C604 C610 1.383 . S
C605 C601 1.495 . S
C605 H611 0.959 . S
C605 H612 0.961 . S
C605 H613 0.960 . S
C606 C604 1.381 . S
C606 C607 1.394 . S
C606 H614 0.930 . S
C607 C606 1.394 . S
C607 C608 1.383 . S
C607 H615 0.929 . S
C608 C607 1.383 . S
C608 C609 1.377 . S
C609 H593 0.930 . S
C609 C608 1.377 . S
C609 C610 1.379 . S
C610 H594 0.931 . S
C610 C604 1.383 . S
C610 C609 1.379 . S
H611 C605 0.959 . S
H612 C605 0.961 . S
H613 C605 0.960 . S
H614 C606 0.930 . S
H615 C607 0.929 . S
H616 C624 0.929 . S
H617 C626 0.930 . S
H618 C628 0.930 . S
H619 C631 0.929 . S
H620 C634 0.930 . S
H621 C636 0.960 . S
H622 C636 0.960 . S
H623 C636 0.960 . S
C624 H616 0.929 . S
C624 C625 1.377 . S
C624 C626 1.384 . S
C625 C624 1.377 . S
C625 C631 1.390 . S
C626 H617 0.930 . S
C626 C624 1.384 . S
C626 C627 1.372 . S
C627 C626 1.372 . S
C627 C628 1.400 . S
C627 C632 1.490 . S
C628 H618 0.930 . S
C628 C627 1.400 . S
C628 C631 1.386 . S
H629 C645 0.930 . S
H630 C646 0.931 . S
C631 H619 0.929 . S
C631 C625 1.390 . S
C631 C628 1.386 . S
C632 C627 1.490 . S
C632 C634 1.395 . S
C632 C635 1.403 . S
H633 C639 0.930 . S
C634 H620 0.930 . S
C634 C632 1.395 . S
C634 C637 1.403 . S
C635 C632 1.403 . S
C635 C636 1.524 . S
C635 C639 1.400 . S
C636 H621 0.960 . S
C636 H622 0.960 . S
C636 H623 0.960 . S
C636 C635 1.524 . S
C637 C634 1.403 . S
C637 C638 1.392 . S
C637 C641 1.495 . S
C638 C637 1.392 . S
C638 C639 1.385 . S
C638 C640 1.478 . S
C639 H633 0.930 . S
C639 C635 1.400 . S
C639 C638 1.385 . S
C640 C638 1.478 . S
C640 C642 1.381 . S
C640 C646 1.383 . S
C641 C637 1.495 . S
C641 H647 0.959 . S
C641 H648 0.961 . S
C641 H649 0.960 . S
C642 C640 1.381 . S
C642 C643 1.394 . S
C642 H650 0.930 . S
C643 C642 1.394 . S
C643 C644 1.383 . S
C643 H651 0.929 . S
C644 C643 1.383 . S
C644 C645 1.377 . S
C645 H629 0.930 . S
C645 C644 1.377 . S
C645 C646 1.379 . S
C646 H630 0.931 . S
C646 C640 1.383 . S
C646 C645 1.379 . S
H647 C641 0.959 . S
H648 C641 0.961 . S
H649 C641 0.960 . S
H650 C642 0.930 . S
H651 C643 0.929 . S
H652 C660 0.929 . S
H653 C662 0.930 . S
H654 C664 0.930 . S
H655 C667 0.929 . S
H656 C670 0.930 . S
H657 C672 0.960 . S
H658 C672 0.960 . S
H659 C672 0.960 . S
C660 H652 0.929 . S
C660 C661 1.377 . S
C660 C662 1.384 . S
C661 C660 1.377 . S
C661 C667 1.390 . S
C662 H653 0.930 . S
C662 C660 1.384 . S
C662 C663 1.372 . S
C663 C662 1.372 . S
C663 C664 1.400 . S
C663 C668 1.490 . S
C664 H654 0.930 . S
C664 C663 1.400 . S
C664 C667 1.386 . S
H665 C681 0.930 . S
H666 C682 0.931 . S
C667 H655 0.929 . S
C667 C661 1.390 . S
C667 C664 1.386 . S
C668 C663 1.490 . S
C668 C670 1.395 . S
C668 C671 1.403 . S
H669 C675 0.930 . S
C670 H656 0.930 . S
C670 C668 1.395 . S
C670 C673 1.403 . S
C671 C668 1.403 . S
C671 C672 1.524 . S
C671 C675 1.400 . S
C672 H657 0.960 . S
C672 H658 0.960 . S
C672 H659 0.960 . S
C672 C671 1.524 . S
C673 C670 1.403 . S
C673 C674 1.392 . S
C673 C677 1.495 . S
C674 C673 1.392 . S
C674 C675 1.385 . S
C674 C676 1.478 . S
C675 H669 0.930 . S
C675 C671 1.400 . S
C675 C674 1.385 . S
C676 C674 1.478 . S
C676 C678 1.381 . S
C676 C682 1.383 . S
C677 C673 1.495 . S
C677 H683 0.959 . S
C677 H684 0.961 . S
C677 H685 0.960 . S
C678 C676 1.381 . S
C678 C679 1.394 . S
C678 H686 0.930 . S
C679 C678 1.394 . S
C679 C680 1.383 . S
C679 H687 0.929 . S
C680 C679 1.383 . S
C680 C681 1.377 . S
C681 H665 0.930 . S
C681 C680 1.377 . S
C681 C682 1.379 . S
C682 H666 0.931 . S
C682 C676 1.383 . S
C682 C681 1.379 . S
H683 C677 0.959 . S
H684 C677 0.961 . S
H685 C677 0.960 . S
H686 C678 0.930 . S
H687 C679 0.929 . S
C121 C4 1.452 . S
C140 C46 1.466 . S
C157 C5 1.268 . S
C176 C19 1.275 . S
C193 C18 1.452 . S
C212 C32 1.451 . S
C229 C47 1.268 . S
C248 C33 1.279 . S
C265 C60 1.453 . S
C284 C102 1.448 . S
C301 C75 1.286 . S
C320 C61 1.232 . S
C337 C88 1.459 . S
C356 C74 1.443 . S
C373 C103 1.287 . S
C392 C89 1.237 . S
C409 C96 1.398 . S
C428 C11 1.367 . S
C445 C26 1.397 . S
C464 C109 1.380 . S
C481 C68 1.397 . S
C500 C39 1.351 . S
C517 C81 1.377 . S
C536 C54 1.396 . S
C553 C82 1.398 . S
C572 C53 1.363 . S
C589 C12 1.398 . S
C608 C95 1.353 . S
C625 C25 1.372 . S
C644 C110 1.392 . S
C661 C40 1.397 . S
C680 C67 1.366 . S
