# Generated by pormake.
# Topology uma, (4)-cn, num edge types: 1
# Building blocks:
#     Node 0, Type 0, BuildingBlock: NAWXER_clean_sbu_0, # of connection points: 4
#     Node 1, Type 0, BuildingBlock: NAWXER_clean_sbu_0, # of connection points: 4
#     Node 2, Type 0, BuildingBlock: NAWXER_clean_sbu_0, # of connection points: 4
#     Node 3, Type 0, BuildingBlock: NAWXER_clean_sbu_0, # of connection points: 4
#     Node 4, Type 0, BuildingBlock: NAWXER_clean_sbu_0, # of connection points: 4
#     Node 5, Type 0, BuildingBlock: NAWXER_clean_sbu_0, # of connection points: 4
#     Node 6, Type 0, BuildingBlock: NAWXER_clean_sbu_0, # of connection points: 4
#     Node 7, Type 0, BuildingBlock: NAWXER_clean_sbu_0, # of connection points: 4
#     Node 8, Type 0, BuildingBlock: NAWXER_clean_sbu_0, # of connection points: 4
#     Node 9, Type 0, BuildingBlock: NAWXER_clean_sbu_0, # of connection points: 4
#     Node 10, Type 0, BuildingBlock: NAWXER_clean_sbu_0, # of connection points: 4
#     Node 11, Type 0, BuildingBlock: NAWXER_clean_sbu_0, # of connection points: 4
#     Node 12, Type 0, BuildingBlock: NAWXER_clean_sbu_0, # of connection points: 4
#     Node 13, Type 0, BuildingBlock: NAWXER_clean_sbu_0, # of connection points: 4
#     Node 14, Type 0, BuildingBlock: NAWXER_clean_sbu_0, # of connection points: 4
#     Node 15, Type 0, BuildingBlock: NAWXER_clean_sbu_0, # of connection points: 4
#     Node 16, Type 0, BuildingBlock: NAWXER_clean_sbu_0, # of connection points: 4
#     Node 17, Type 0, BuildingBlock: NAWXER_clean_sbu_0, # of connection points: 4
#     Node 18, Type 0, BuildingBlock: NAWXER_clean_sbu_0, # of connection points: 4
#     Node 19, Type 0, BuildingBlock: NAWXER_clean_sbu_0, # of connection points: 4
#     Node 20, Type 0, BuildingBlock: NAWXER_clean_sbu_0, # of connection points: 4
#     Node 21, Type 0, BuildingBlock: NAWXER_clean_sbu_0, # of connection points: 4
#     Node 22, Type 0, BuildingBlock: NAWXER_clean_sbu_0, # of connection points: 4
#     Node 23, Type 0, BuildingBlock: NAWXER_clean_sbu_0, # of connection points: 4
#     Node 24, Type 0, BuildingBlock: NAWXER_clean_sbu_0, # of connection points: 4
#     Node 25, Type 0, BuildingBlock: NAWXER_clean_sbu_0, # of connection points: 4
#     Node 26, Type 0, BuildingBlock: NAWXER_clean_sbu_0, # of connection points: 4
#     Node 27, Type 0, BuildingBlock: NAWXER_clean_sbu_0, # of connection points: 4
#     Node 28, Type 0, BuildingBlock: NAWXER_clean_sbu_0, # of connection points: 4
#     Node 29, Type 0, BuildingBlock: NAWXER_clean_sbu_0, # of connection points: 4
#     Node 30, Type 0, BuildingBlock: NAWXER_clean_sbu_0, # of connection points: 4
#     Node 31, Type 0, BuildingBlock: NAWXER_clean_sbu_0, # of connection points: 4
#     Node 32, Type 0, BuildingBlock: NAWXER_clean_sbu_0, # of connection points: 4
#     Node 33, Type 0, BuildingBlock: NAWXER_clean_sbu_0, # of connection points: 4
#     Node 34, Type 0, BuildingBlock: NAWXER_clean_sbu_0, # of connection points: 4
#     Node 35, Type 0, BuildingBlock: NAWXER_clean_sbu_0, # of connection points: 4
#     Edge 36, Type (0, 0), BuildingBlock: KIFKEQ_clean_linker_1, # of connection points: 2
#     Edge 37, Type (0, 0), BuildingBlock: KIFKEQ_clean_linker_1, # of connection points: 2
#     Edge 38, Type (0, 0), BuildingBlock: KIFKEQ_clean_linker_1, # of connection points: 2
#     Edge 39, Type (0, 0), BuildingBlock: KIFKEQ_clean_linker_1, # of connection points: 2
#     Edge 40, Type (0, 0), BuildingBlock: KIFKEQ_clean_linker_1, # of connection points: 2
#     Edge 41, Type (0, 0), BuildingBlock: KIFKEQ_clean_linker_1, # of connection points: 2
#     Edge 42, Type (0, 0), BuildingBlock: KIFKEQ_clean_linker_1, # of connection points: 2
#     Edge 43, Type (0, 0), BuildingBlock: KIFKEQ_clean_linker_1, # of connection points: 2
#     Edge 44, Type (0, 0), BuildingBlock: KIFKEQ_clean_linker_1, # of connection points: 2
#     Edge 45, Type (0, 0), BuildingBlock: KIFKEQ_clean_linker_1, # of connection points: 2
#     Edge 46, Type (0, 0), BuildingBlock: KIFKEQ_clean_linker_1, # of connection points: 2
#     Edge 47, Type (0, 0), BuildingBlock: KIFKEQ_clean_linker_1, # of connection points: 2
#     Edge 48, Type (0, 0), BuildingBlock: KIFKEQ_clean_linker_1, # of connection points: 2
#     Edge 49, Type (0, 0), BuildingBlock: KIFKEQ_clean_linker_1, # of connection points: 2
#     Edge 50, Type (0, 0), BuildingBlock: KIFKEQ_clean_linker_1, # of connection points: 2
#     Edge 51, Type (0, 0), BuildingBlock: KIFKEQ_clean_linker_1, # of connection points: 2
#     Edge 52, Type (0, 0), BuildingBlock: KIFKEQ_clean_linker_1, # of connection points: 2
#     Edge 53, Type (0, 0), BuildingBlock: KIFKEQ_clean_linker_1, # of connection points: 2
#     Edge 54, Type (0, 0), BuildingBlock: KIFKEQ_clean_linker_1, # of connection points: 2
#     Edge 55, Type (0, 0), BuildingBlock: KIFKEQ_clean_linker_1, # of connection points: 2
#     Edge 56, Type (0, 0), BuildingBlock: KIFKEQ_clean_linker_1, # of connection points: 2
#     Edge 57, Type (0, 0), BuildingBlock: KIFKEQ_clean_linker_1, # of connection points: 2
#     Edge 58, Type (0, 0), BuildingBlock: KIFKEQ_clean_linker_1, # of connection points: 2
#     Edge 59, Type (0, 0), BuildingBlock: KIFKEQ_clean_linker_1, # of connection points: 2
#     Edge 60, Type (0, 0), BuildingBlock: KIFKEQ_clean_linker_1, # of connection points: 2
#     Edge 61, Type (0, 0), BuildingBlock: KIFKEQ_clean_linker_1, # of connection points: 2
#     Edge 62, Type (0, 0), BuildingBlock: KIFKEQ_clean_linker_1, # of connection points: 2
#     Edge 63, Type (0, 0), BuildingBlock: KIFKEQ_clean_linker_1, # of connection points: 2
#     Edge 64, Type (0, 0), BuildingBlock: KIFKEQ_clean_linker_1, # of connection points: 2
#     Edge 65, Type (0, 0), BuildingBlock: KIFKEQ_clean_linker_1, # of connection points: 2
#     Edge 66, Type (0, 0), BuildingBlock: KIFKEQ_clean_linker_1, # of connection points: 2
#     Edge 67, Type (0, 0), BuildingBlock: KIFKEQ_clean_linker_1, # of connection points: 2
#     Edge 68, Type (0, 0), BuildingBlock: KIFKEQ_clean_linker_1, # of connection points: 2
#     Edge 69, Type (0, 0), BuildingBlock: KIFKEQ_clean_linker_1, # of connection points: 2
#     Edge 70, Type (0, 0), BuildingBlock: KIFKEQ_clean_linker_1, # of connection points: 2
#     Edge 71, Type (0, 0), BuildingBlock: KIFKEQ_clean_linker_1, # of connection points: 2
#     Edge 72, Type (0, 0), BuildingBlock: KIFKEQ_clean_linker_1, # of connection points: 2
#     Edge 73, Type (0, 0), BuildingBlock: KIFKEQ_clean_linker_1, # of connection points: 2
#     Edge 74, Type (0, 0), BuildingBlock: KIFKEQ_clean_linker_1, # of connection points: 2
#     Edge 75, Type (0, 0), BuildingBlock: KIFKEQ_clean_linker_1, # of connection points: 2
#     Edge 76, Type (0, 0), BuildingBlock: KIFKEQ_clean_linker_1, # of connection points: 2
#     Edge 77, Type (0, 0), BuildingBlock: KIFKEQ_clean_linker_1, # of connection points: 2
#     Edge 78, Type (0, 0), BuildingBlock: KIFKEQ_clean_linker_1, # of connection points: 2
#     Edge 79, Type (0, 0), BuildingBlock: KIFKEQ_clean_linker_1, # of connection points: 2
#     Edge 80, Type (0, 0), BuildingBlock: KIFKEQ_clean_linker_1, # of connection points: 2
#     Edge 81, Type (0, 0), BuildingBlock: KIFKEQ_clean_linker_1, # of connection points: 2
#     Edge 82, Type (0, 0), BuildingBlock: KIFKEQ_clean_linker_1, # of connection points: 2
#     Edge 83, Type (0, 0), BuildingBlock: KIFKEQ_clean_linker_1, # of connection points: 2
#     Edge 84, Type (0, 0), BuildingBlock: KIFKEQ_clean_linker_1, # of connection points: 2
#     Edge 85, Type (0, 0), BuildingBlock: KIFKEQ_clean_linker_1, # of connection points: 2
#     Edge 86, Type (0, 0), BuildingBlock: KIFKEQ_clean_linker_1, # of connection points: 2
#     Edge 87, Type (0, 0), BuildingBlock: KIFKEQ_clean_linker_1, # of connection points: 2
#     Edge 88, Type (0, 0), BuildingBlock: KIFKEQ_clean_linker_1, # of connection points: 2
#     Edge 89, Type (0, 0), BuildingBlock: KIFKEQ_clean_linker_1, # of connection points: 2
#     Edge 90, Type (0, 0), BuildingBlock: KIFKEQ_clean_linker_1, # of connection points: 2
#     Edge 91, Type (0, 0), BuildingBlock: KIFKEQ_clean_linker_1, # of connection points: 2
#     Edge 92, Type (0, 0), BuildingBlock: KIFKEQ_clean_linker_1, # of connection points: 2
#     Edge 93, Type (0, 0), BuildingBlock: KIFKEQ_clean_linker_1, # of connection points: 2
#     Edge 94, Type (0, 0), BuildingBlock: KIFKEQ_clean_linker_1, # of connection points: 2
#     Edge 95, Type (0, 0), BuildingBlock: KIFKEQ_clean_linker_1, # of connection points: 2
#     Edge 96, Type (0, 0), BuildingBlock: KIFKEQ_clean_linker_1, # of connection points: 2
#     Edge 97, Type (0, 0), BuildingBlock: KIFKEQ_clean_linker_1, # of connection points: 2
#     Edge 98, Type (0, 0), BuildingBlock: KIFKEQ_clean_linker_1, # of connection points: 2
#     Edge 99, Type (0, 0), BuildingBlock: KIFKEQ_clean_linker_1, # of connection points: 2
#     Edge 100, Type (0, 0), BuildingBlock: KIFKEQ_clean_linker_1, # of connection points: 2
#     Edge 101, Type (0, 0), BuildingBlock: KIFKEQ_clean_linker_1, # of connection points: 2
#     Edge 102, Type (0, 0), BuildingBlock: KIFKEQ_clean_linker_1, # of connection points: 2
#     Edge 103, Type (0, 0), BuildingBlock: KIFKEQ_clean_linker_1, # of connection points: 2
#     Edge 104, Type (0, 0), BuildingBlock: KIFKEQ_clean_linker_1, # of connection points: 2
#     Edge 105, Type (0, 0), BuildingBlock: KIFKEQ_clean_linker_1, # of connection points: 2
#     Edge 106, Type (0, 0), BuildingBlock: KIFKEQ_clean_linker_1, # of connection points: 2
#     Edge 107, Type (0, 0), BuildingBlock: KIFKEQ_clean_linker_1, # of connection points: 2
# Relax obj value: 0.097
# Max RMSD: 0.105
# Mean RMSD: 0.098
data_MOF--net-uma--node1-NAWXER_clean_sbu_0--edge1-KIFKEQ_clean_linker_1
_symmetry_space_group_name_H-M    P1
_symmetry_Int_Tables_number       1
_symmetry_cell_setting            triclinic
loop_
_symmetry_equiv_pos_as_xyz
'x, y, z'
_cell_length_a     78.907818
_cell_length_b     78.942242
_cell_length_c     40.647445
_cell_angle_alpha  90.021935
_cell_angle_beta   89.978985
_cell_angle_gamma 119.99066
loop_
_atom_site_label
_atom_site_type_symbol
_atom_site_fract_x
_atom_site_fract_y
_atom_site_fract_z
_atom_type_partial_charge
C0 C 0.09975 0.38895 0.06603 0.0
C1 C 0.10332 0.3701 0.95231 0.0
O2 O 0.10873 0.4033 0.04614 0.0
Zn3 Zn 0.11783 0.40888 0.99627 0.0
O4 O 0.09503 0.37175 0.05665 0.0
Zn5 Zn 0.10324 0.37842 0.01055 0.0
O6 O 0.13445 0.39234 0.01135 0.0
O7 O 0.14684 0.42327 0.99779 0.0
O8 O 0.09633 0.35855 0.9768 0.0
O9 O 0.11149 0.38861 0.95687 0.0
O10 O 0.10175 0.42072 0.98397 0.0
O11 O 0.08436 0.38937 0.99688 0.0
C12 C 0.14946 0.40917 0.00594 0.0
C13 C 0.08516 0.40528 0.98793 0.0
C14 C 0.65965 0.74268 0.95743 0.0
C15 C 0.63759 0.71676 0.06844 0.0
O16 O 0.64106 0.73202 0.96041 0.0
Zn17 Zn 0.61972 0.7169 0.99753 0.0
O18 O 0.67052 0.74673 0.98275 0.0
Zn19 Zn 0.64966 0.73254 0.01468 0.0
O20 O 0.63944 0.70321 0.99855 0.0
O21 O 0.60853 0.68944 0.98283 0.0
O22 O 0.65504 0.72955 0.06076 0.0
O23 O 0.6238 0.71193 0.04752 0.0
O24 O 0.6052 0.73134 0.99835 0.0
O25 O 0.63532 0.74943 0.0166 0.0
C26 C 0.62394 0.68834 0.9877 0.0
C27 C 0.61867 0.74764 0.00949 0.0
C28 C 0.28241 0.87708 0.00518 0.0
C29 C 0.3424 0.94196 0.98899 0.0
O30 O 0.28043 0.89191 0.01141 0.0
Zn31 Zn 0.29723 0.92301 0.01143 0.0
O32 O 0.29917 0.87998 0.99655 0.0
Zn33 Zn 0.31361 0.90904 0.99629 0.0
O34 O 0.31675 0.91745 0.04642 0.0
O35 O 0.29849 0.93064 0.05773 0.0
O36 O 0.34153 0.92554 0.98445 0.0
O37 O 0.32712 0.94243 0.99813 0.0
O38 O 0.28382 0.9297 0.9782 0.0
O39 O 0.30006 0.9161 0.95741 0.0
C40 C 0.31112 0.92602 0.06674 0.0
C41 C 0.28928 0.92383 0.9533 0.0
C42 C 0.41138 0.08121 0.01807 0.0
C43 C 0.41545 0.14567 1.00103 0.0
O44 O 0.39544 0.08051 0.00953 0.0
Zn45 Zn 0.38458 0.09962 0.99623 0.0
O46 O 0.42694 0.09774 0.02174 0.0
Zn47 Zn 0.41512 0.11391 0.01013 0.0
O48 O 0.39501 0.10705 0.04985 0.0
O49 O 0.3649 0.09307 0.03016 0.0
O50 O 0.42952 0.14297 0.00906 0.0
O51 O 0.39861 0.1307 0.99554 0.0
O52 O 0.37761 0.09143 0.95025 0.0
O53 O 0.40922 0.10489 0.96033 0.0
C54 C 0.37654 0.09923 0.05463 0.0
C55 C 0.39474 0.09599 0.94064 0.0
C56 C 0.92823 0.28291 0.0545 0.0
C57 C 0.93026 0.30619 0.94201 0.0
O58 O 0.92062 0.29381 0.05105 0.0
Zn59 Zn 0.91336 0.30762 0.01324 0.0
O60 O 0.93383 0.27752 0.02917 0.0
Zn61 Zn 0.92724 0.29145 0.99649 0.0
O62 O 0.94673 0.32121 0.01052 0.0
O63 O 0.92989 0.33542 0.02572 0.0
O64 O 0.9351 0.2936 0.9502 0.0
O65 O 0.92154 0.31136 0.96286 0.0
O66 O 0.88436 0.29313 0.01375 0.0
O67 O 0.89608 0.27484 0.99524 0.0
C68 C 0.9463 0.33637 0.02044 0.0
C69 C 0.88134 0.27676 1.00268 0.0
C70 C 0.72574 0.6332 0.94193 0.0
C71 C 0.74447 0.65268 0.05706 0.0
O72 O 0.72016 0.6191 0.96242 0.0
Zn73 Zn 0.72154 0.61381 0.01312 0.0
O74 O 0.73694 0.6507 0.95165 0.0
Zn75 Zn 0.73766 0.64431 0.99825 0.0
O76 O 0.75481 0.63024 0.99917 0.0
O77 O 0.73627 0.59955 0.01425 0.0
O78 O 0.75011 0.66417 0.03239 0.0
O79 O 0.73406 0.63419 0.05243 0.0
O80 O 0.69323 0.60199 0.02267 0.0
O81 O 0.7075 0.63325 0.00902 0.0
C82 C 0.753 0.61353 0.00574 0.0
C83 C 0.69217 0.61737 0.01733 0.0
C84 C 0.94718 0.61887 0.0126 0.0
C85 C 0.88104 0.61192 1.00156 0.0
O86 O 0.93134 0.60344 0.02075 0.0
Zn87 Zn 0.91365 0.61387 0.01008 0.0
O88 O 0.94665 0.63407 1.0033 0.0
Zn89 Zn 0.92649 0.64396 0.99329 0.0
O90 O 0.93351 0.6642 0.02701 0.0
O91 O 0.92123 0.63467 0.0482 0.0
O92 O 0.89541 0.62869 0.99367 0.0
O93 O 0.8846 0.59884 0.01228 0.0
O94 O 0.92041 0.61854 0.95889 0.0
O95 O 0.93301 0.64984 0.94659 0.0
C96 C 0.92858 0.65311 0.05215 0.0
C97 C 0.92835 0.6325 0.93795 0.0
C98 C 0.37502 0.2804 0.05244 0.0
C99 C 0.39608 0.30261 0.93907 0.0
O100 O 0.36395 0.27545 0.02727 0.0
Zn101 Zn 0.38439 0.28873 0.99398 0.0
O102 O 0.39354 0.29119 0.04881 0.0
Zn103 Zn 0.41445 0.30547 0.01111 0.0
O104 O 0.42487 0.33344 0.02322 0.0
O105 O 0.39439 0.31858 0.00515 0.0
O106 O 0.40998 0.30828 0.96007 0.0
O107 O 0.37868 0.28997 0.94742 0.0
O108 O 0.39953 0.27269 0.99357 0.0
O109 O 0.42949 0.29148 0.01209 0.0
C110 C 0.40957 0.33409 0.01514 0.0
C111 C 0.41632 0.27497 1.0011 0.0
C112 C 0.74645 0.09918 0.0559 0.0
C113 C 0.72522 0.09917 0.94229 0.0
O114 O 0.75171 0.09327 0.03079 0.0
Zn115 Zn 0.73847 0.10044 0.99772 0.0
O116 O 0.73588 0.10716 0.0521 0.0
Zn117 Zn 0.72247 0.11473 0.01392 0.0
O118 O 0.69442 0.09814 0.02527 0.0
O119 O 0.70864 0.08125 0.01057 0.0
O120 O 0.72 0.10773 0.96335 0.0
O121 O 0.73679 0.09311 0.95104 0.0
O122 O 0.75555 0.13164 0.99841 0.0
O123 O 0.73714 0.14373 0.0147 0.0
C124 C 0.69342 0.08172 0.01998 0.0
C125 C 0.75377 0.14652 0.00541 0.0
C126 C 0.64031 0.92574 0.06968 0.0
C127 C 0.65999 0.92491 0.95508 0.0
O128 O 0.65782 0.93183 0.06021 0.0
Zn129 Zn 0.65155 0.92403 0.01372 0.0
O130 O 0.62625 0.91687 0.04921 0.0
Zn131 Zn 0.62105 0.90938 0.99882 0.0
O132 O 0.60694 0.88039 0.99874 0.0
O133 O 0.63768 0.89281 0.01372 0.0
O134 O 0.64149 0.91681 0.95964 0.0
O135 O 0.67149 0.93111 0.97976 0.0
O136 O 0.64044 0.94289 1.00122 0.0
O137 O 0.60913 0.9256 0.98796 0.0
C138 C 0.62099 0.87779 0.00744 0.0
C139 C 0.62452 0.94215 0.99252 0.0
C140 C 0.10707 0.72118 0.06969 0.0
C141 C 0.10682 0.74211 0.95591 0.0
O142 O 0.10248 0.73397 0.06144 0.0
Zn143 Zn 0.10893 0.73478 0.01465 0.0
O144 O 0.1149 0.71518 0.04848 0.0
Zn145 Zn 0.12153 0.71739 0.99727 0.0
O146 O 0.15058 0.7312 0.99503 0.0
O147 O 0.14 0.75029 0.01437 0.0
O148 O 0.11404 0.73089 0.95956 0.0
O149 O 0.10205 0.74829 0.98124 0.0
O150 O 0.08857 0.70483 1.00435 0.0
O151 O 0.10361 0.68935 0.98637 0.0
C152 C 0.15427 0.74777 0.00627 0.0
C153 C 0.08786 0.68907 0.99477 0.0
C154 C 0.28576 0.36946 0.95724 0.0
C155 C 0.30555 0.38965 0.07175 0.0
O156 O 0.27942 0.35825 0.98223 0.0
Zn157 Zn 0.29241 0.37832 0.01631 0.0
O158 O 0.29678 0.38788 0.96148 0.0
Zn159 Zn 0.30973 0.40852 0.99981 0.0
O160 O 0.33797 0.41896 0.98967 0.0
O161 O 0.3225 0.38826 0.0067 0.0
O162 O 0.31154 0.40365 0.05091 0.0
O163 O 0.29296 0.3723 0.063 0.0
O164 O 0.27659 0.39357 0.01611 0.0
O165 O 0.29561 0.42347 0.99772 0.0
C166 C 0.33831 0.40349 0.99775 0.0
C167 C 0.27898 0.41035 0.0084 0.0
C168 C 0.8195 0.74175 0.34166 0.0
C169 C 0.75389 0.73658 0.33249 0.0
O170 O 0.80481 0.72501 0.34868 0.0
Zn171 Zn 0.77379 0.71063 0.35085 0.0
O172 O 0.81642 0.75555 0.33337 0.0
Zn173 Zn 0.78726 0.741 0.33505 0.0
O174 O 0.78039 0.73601 0.38593 0.0
O175 O 0.76748 0.70465 0.39771 0.0
O176 O 0.76992 0.75195 0.32481 0.0
O177 O 0.75411 0.72115 0.34133 0.0
O178 O 0.76599 0.69051 0.31688 0.0
O179 O 0.7792 0.72032 0.29637 0.0
C180 C 0.77231 0.72197 0.40665 0.0
C181 C 0.77128 0.70184 0.29201 0.0
C182 C 0.30787 0.05288 0.40255 0.0
C183 C 0.32734 0.07486 0.28906 0.0
O184 O 0.29367 0.0476 0.38238 0.0
Zn185 Zn 0.28833 0.05106 0.33255 0.0
O186 O 0.32517 0.06539 0.39355 0.0
Zn187 Zn 0.3188 0.06704 0.34731 0.0
O188 O 0.30499 0.08433 0.34757 0.0
O189 O 0.27415 0.06594 0.33339 0.0
O190 O 0.33881 0.08017 0.31375 0.0
O191 O 0.30883 0.06437 0.29348 0.0
O192 O 0.2765 0.02311 0.32049 0.0
O193 O 0.30786 0.03714 0.33362 0.0
C194 C 0.28826 0.08263 0.34169 0.0
C195 C 0.29197 0.02201 0.3246 0.0
C196 C 0.95444 0.25628 0.28672 0.0
C197 C 0.97738 0.2589 0.39966 0.0
O198 O 0.96515 0.24845 0.29063 0.0
Zn199 Zn 0.9789 0.24143 0.3292 0.0
O200 O 0.94922 0.2623 0.31173 0.0
Zn201 Zn 0.96277 0.25561 0.34478 0.0
O202 O 0.99253 0.27486 0.33067 0.0
O203 O 1.00678 0.25787 0.31674 0.0
O204 O 0.96469 0.26355 0.39114 0.0
O205 O 0.98263 0.25011 0.37914 0.0
O206 O 0.96425 0.21235 0.32998 0.0
O207 O 0.94576 0.2245 0.34517 0.0
C208 C 1.00772 0.27433 0.32121 0.0
C209 C 0.94758 0.20958 0.33895 0.0
C210 C 0.07688 0.41357 0.35194 0.0
C211 C 0.08126 0.47825 0.33525 0.0
O212 O 0.06099 0.41298 0.34347 0.0
Zn213 Zn 0.05026 0.43222 0.33044 0.0
O214 O 0.09247 0.43006 0.3558 0.0
Zn215 Zn 0.08079 0.44641 0.34442 0.0
O216 O 0.06073 0.43968 0.38422 0.0
O217 O 0.03063 0.42575 0.36458 0.0
O218 O 0.0953 0.4755 0.34331 0.0
O219 O 0.0644 0.46332 0.32977 0.0
O220 O 0.04338 0.42417 0.28427 0.0
O221 O 0.07495 0.43757 0.29452 0.0
C222 C 0.04228 0.43194 0.38905 0.0
C223 C 0.06053 0.42878 0.27469 0.0
C224 C 0.59524 0.6145 0.3875 0.0
C225 C 0.59443 0.63405 0.27304 0.0
O226 O 0.58748 0.62523 0.38333 0.0
Zn227 Zn 0.57965 0.63814 0.34483 0.0
O228 O 0.60047 0.60847 0.36251 0.0
Zn229 Zn 0.5929 0.62108 0.32871 0.0
O230 O 0.61278 0.65119 0.33843 0.0
O231 O 0.59719 0.66637 0.35526 0.0
O232 O 0.59917 0.62146 0.28181 0.0
O233 O 0.58646 0.64006 0.29392 0.0
O234 O 0.5505 0.62381 0.34645 0.0
O235 O 0.56187 0.60473 0.33069 0.0
C236 C 0.61314 0.66688 0.34746 0.0
C237 C 0.54727 0.60692 0.33781 0.0
C238 C 0.39186 0.96739 0.27325 0.0
C239 C 0.41573 0.98804 0.38561 0.0
O240 O 0.38669 0.95335 0.29377 0.0
Zn241 Zn 0.39066 0.94864 0.34395 0.0
O242 O 0.40441 0.98476 0.28177 0.0
Zn243 Zn 0.40652 0.97878 0.32785 0.0
O244 O 0.42344 0.96445 0.32628 0.0
O245 O 0.40511 0.93414 0.34348 0.0
O246 O 0.42015 0.99921 0.36064 0.0
O247 O 0.40515 0.96949 0.38193 0.0
O248 O 0.36293 0.93724 0.35729 0.0
O249 O 0.37685 0.96827 0.34232 0.0
C250 C 0.42156 0.94773 0.33305 0.0
C251 C 0.36182 0.95263 0.35238 0.0
C252 C 0.59837 0.98753 0.39001 0.0
C253 C 0.59922 0.96809 0.2752 0.0
O254 O 0.60552 0.99912 0.36561 0.0
Zn255 Zn 0.59783 0.97927 0.33133 0.0
O256 O 0.58972 0.96902 0.38522 0.0
Zn257 Zn 0.58256 0.94872 0.34591 0.0
O258 O 0.59846 0.93639 0.35673 0.0
O259 O 0.61617 0.96759 0.34324 0.0
O260 O 0.59011 0.95401 0.29553 0.0
O261 O 0.6057 0.98563 0.28488 0.0
O262 O 0.56653 0.96583 0.3312 0.0
O263 O 0.55364 0.93491 0.34552 0.0
C264 C 0.61514 0.95155 0.35187 0.0
C265 C 0.55134 0.94918 0.3371 0.0
C266 C 0.07825 0.6679 0.35404 0.0
C267 C 0.08355 0.60838 0.33459 0.0
O268 O 0.09358 0.66679 0.35965 0.0
Zn269 Zn 0.08243 0.63914 0.34593 0.0
O270 O 0.06277 0.65292 0.34338 0.0
Zn271 Zn 0.0525 0.6234 0.32856 0.0
O272 O 0.03165 0.60952 0.36066 0.0
O273 O 0.06106 0.62439 0.3831 0.0
O274 O 0.06693 0.60657 0.32721 0.0
O275 O 0.09696 0.62468 0.34583 0.0
O276 O 0.07844 0.64349 0.29557 0.0
O277 O 0.0472 0.62598 0.28228 0.0
C278 C 0.04247 0.61378 0.38607 0.0
C279 C 0.06471 0.63857 0.27449 0.0
C280 C 0.35814 0.41424 0.35603 0.0
C281 C 0.41685 0.47969 0.33665 0.0
O282 O 0.35868 0.43049 0.36089 0.0
Zn283 Zn 0.38634 0.44741 0.34781 0.0
O284 O 0.37345 0.41413 0.34598 0.0
Zn285 Zn 0.40296 0.43397 0.33113 0.0
O286 O 0.4174 0.42801 0.36376 0.0
O287 O 0.40072 0.44083 0.38558 0.0
O288 O 0.41905 0.4651 0.3294 0.0
O289 O 0.40041 0.47645 0.34782 0.0
O290 O 0.38238 0.43882 0.29764 0.0
O291 O 0.40068 0.42586 0.28495 0.0
C292 C 0.41195 0.43358 0.38905 0.0
C293 C 0.38772 0.43022 0.27686 0.0
C294 C 0.32635 0.25769 0.28736 0.0
C295 C 0.30597 0.25879 0.40143 0.0
O296 O 0.33767 0.26453 0.31214 0.0
Zn297 Zn 0.31749 0.25724 0.34586 0.0
O298 O 0.30781 0.24938 0.29154 0.0
Zn299 Zn 0.28719 0.24241 0.33009 0.0
O300 O 0.27523 0.25854 0.31872 0.0
O301 O 0.30627 0.27594 0.33343 0.0
O302 O 0.292 0.24978 0.38081 0.0
O303 O 0.32358 0.26515 0.39218 0.0
O304 O 0.30342 0.22589 0.34721 0.0
O305 O 0.27308 0.21354 0.32972 0.0
C306 C 0.2904 0.27511 0.32418 0.0
C307 C 0.2868 0.21092 0.3403 0.0
C308 C 0.81964 0.07962 0.34149 0.0
C309 C 0.75441 0.0205 0.32219 0.0
O310 O 0.81652 0.06318 0.33058 0.0
Zn311 Zn 0.78748 0.04889 0.33048 0.0
O312 O 0.80496 0.08171 0.34855 0.0
Zn313 Zn 0.7738 0.06535 0.34678 0.0
O314 O 0.76562 0.06314 0.39295 0.0
O315 O 0.7788 0.04499 0.38057 0.0
O316 O 0.75415 0.03576 0.33206 0.0
O317 O 0.77074 0.02117 0.31756 0.0
O318 O 0.78072 0.06296 0.29242 0.0
O319 O 0.76765 0.07951 0.31382 0.0
C320 C 0.77009 0.05029 0.40121 0.0
C321 C 0.7733 0.07402 0.28867 0.0
C322 C 1.00877 0.73776 0.32242 0.0
C323 C 0.94953 0.74383 0.34059 0.0
O324 O 1.00814 0.75346 0.31801 0.0
Zn325 Zn 0.98024 0.74233 0.3298 0.0
O326 O 0.99336 0.72212 0.33146 0.0
Zn327 Zn 0.96356 0.71204 0.34499 0.0
O328 O 0.9497 0.69223 0.31113 0.0
O329 O 0.9665 0.72205 0.29074 0.0
O330 O 0.94732 0.72696 0.3471 0.0
O331 O 0.96607 0.75722 0.33013 0.0
O332 O 0.98341 0.73691 0.38 0.0
O333 O 0.96512 0.70544 0.3911 0.0
C334 C 0.95539 0.70363 0.28634 0.0
C335 C 0.97781 0.72265 0.40019 0.0
C336 C 0.43342 0.05446 0.73374 0.0
C337 C 0.43741 0.03553 0.62045 0.0
O338 O 0.4425 0.06879 0.71384 0.0
Zn339 Zn 0.45175 0.07434 0.66414 0.0
O340 O 0.42863 0.03722 0.72448 0.0
Zn341 Zn 0.43698 0.04385 0.67848 0.0
O342 O 0.46815 0.05765 0.67953 0.0
O343 O 0.48075 0.08862 0.66598 0.0
O344 O 0.43019 0.02395 0.64486 0.0
O345 O 0.44559 0.05404 0.62499 0.0
O346 O 0.43574 0.0862 0.6514 0.0
O347 O 0.41824 0.05487 0.66437 0.0
C348 C 0.48324 0.07444 0.67419 0.0
C349 C 0.41911 0.07078 0.65524 0.0
C350 C 0.97119 0.38868 0.73727 0.0
C351 C 0.9922 0.40923 0.62337 0.0
O352 O 0.95733 0.38261 0.71613 0.0
Zn353 Zn 0.95282 0.38463 0.66495 0.0
O354 O 0.98855 0.4015 0.72895 0.0
Zn355 Zn 0.98286 0.40218 0.68216 0.0
O356 O 0.96727 0.41765 0.68167 0.0
O357 O 0.93757 0.39844 0.66254 0.0
O358 O 1.0032 0.41556 0.64861 0.0
O359 O 0.97376 0.398 0.62718 0.0
O360 O 0.94277 0.35653 0.65438 0.0
O361 O 0.97333 0.37222 0.67216 0.0
C362 C 0.95046 0.41508 0.67357 0.0
C363 C 0.95829 0.35637 0.6628 0.0
C364 C 0.61526 0.54377 0.67355 0.0
C365 C 0.67549 0.60857 0.65936 0.0
O366 O 0.61337 0.55853 0.68102 0.0
Zn367 Zn 0.63018 0.5898 0.68025 0.0
O368 O 0.63167 0.54674 0.66272 0.0
Zn369 Zn 0.64627 0.57567 0.66415 0.0
O370 O 0.6484 0.58256 0.71501 0.0
O371 O 0.63166 0.59733 0.72673 0.0
O372 O 0.67442 0.59216 0.65366 0.0
O373 O 0.66022 0.60907 0.6684 0.0
O374 O 0.61699 0.5968 0.64659 0.0
O375 O 0.63328 0.58337 0.62562 0.0
C376 C 0.64313 0.59122 0.73583 0.0
C377 C 0.62261 0.59119 0.62156 0.0
C378 C 0.71 0.76628 0.72426 0.0
C379 C 0.73044 0.76214 0.61203 0.0
O380 O 0.72857 0.77428 0.72046 0.0
Zn381 Zn 0.74939 0.78035 0.68219 0.0
O382 O 0.69876 0.75925 0.6994 0.0
Zn383 Zn 0.7191 0.76592 0.66661 0.0
O384 O 0.72957 0.74691 0.6818 0.0
O385 O 0.76077 0.76404 0.69588 0.0
O386 O 0.71312 0.75761 0.62045 0.0
O387 O 0.7445 0.7711 0.63246 0.0
O388 O 0.76394 0.80936 0.68052 0.0
O389 O 0.73321 0.79709 0.66566 0.0
C390 C 0.74525 0.74753 0.69169 0.0
C391 C 0.74999 0.81206 0.67157 0.0
C392 C 0.26267 0.94826 0.72005 0.0
C393 C 0.26544 0.97029 0.60664 0.0
O394 O 0.25468 0.95878 0.71573 0.0
Zn395 Zn 0.24752 0.97209 0.67652 0.0
O396 O 0.26881 0.94297 0.6953 0.0
Zn397 Zn 0.26196 0.95612 0.66186 0.0
O398 O 0.28096 0.98605 0.67553 0.0
O399 O 0.26358 1.00004 0.68853 0.0
O400 O 0.27012 0.95774 0.61577 0.0
O401 O 0.25645 0.97559 0.62666 0.0
O402 O 0.21846 0.95728 0.67557 0.0
O403 O 0.23084 0.93883 0.66138 0.0
C404 C 0.28017 1.00117 0.68449 0.0
C405 C 0.21583 0.94059 0.6672 0.0
C406 C 0.08899 0.28163 0.66799 0.0
C407 C 0.02834 0.286 0.67951 0.0
O408 O 0.09082 0.2983 0.66096 0.0
Zn409 Zn 0.07373 0.31232 0.65912 0.0
O410 O 0.07224 0.26772 0.6766 0.0
Zn411 Zn 0.05758 0.28211 0.67567 0.0
O412 O 0.05484 0.28657 0.6248 0.0
O413 O 0.07276 0.31789 0.61232 0.0
O414 O 0.02944 0.27092 0.68742 0.0
O415 O 0.04367 0.30146 0.66982 0.0
O416 O 0.08609 0.33284 0.69231 0.0
O417 O 0.07123 0.30316 0.71367 0.0
C418 C 0.06036 0.30044 0.60384 0.0
C419 C 0.08144 0.32173 0.71739 0.0
C420 C 0.2641 0.3198 0.72256 0.0
C421 C 0.26472 0.3 0.60795 0.0
O422 O 0.26989 0.33117 0.69774 0.0
Zn423 Zn 0.2632 0.31122 0.66376 0.0
O424 O 0.25638 0.30134 0.71818 0.0
Zn425 Zn 0.24903 0.28089 0.67934 0.0
O426 O 0.2656 0.26933 0.68985 0.0
O427 O 0.28248 0.30051 0.67567 0.0
O428 O 0.25605 0.28595 0.62853 0.0
O429 O 0.27087 0.31753 0.6174 0.0
O430 O 0.23193 0.29666 0.6626 0.0
O431 O 0.22008 0.26647 0.68041 0.0
C432 C 0.28201 0.28475 0.68454 0.0
C433 C 0.21715 0.27996 0.66973 0.0
C434 C 0.70978 0.94764 0.7205 0.0
C435 C 0.73018 0.96819 0.60637 0.0
O436 O 0.69863 0.94139 0.69543 0.0
Zn437 Zn 0.7188 0.95467 0.66161 0.0
O438 O 0.72821 0.95875 0.71643 0.0
Zn439 Zn 0.74895 0.972 0.6783 0.0
O440 O 0.75928 1.0001 0.68917 0.0
O441 O 0.72861 0.98467 0.67191 0.0
O442 O 0.74417 0.97415 0.62724 0.0
O443 O 0.71285 0.95547 0.61499 0.0
O444 O 0.73416 0.93895 0.66153 0.0
O445 O 0.76401 0.95798 0.68018 0.0
C446 C 0.74378 1.00043 0.68124 0.0
C447 C 0.75097 0.94139 0.66928 0.0
C448 C 0.02639 0.7476 0.68605 0.0
C449 C 0.08606 0.8124 0.66752 0.0
O450 O 0.02726 0.76405 0.69028 0.0
Zn451 Zn 0.0552 0.78044 0.67853 0.0
O452 O 0.04167 0.74708 0.67714 0.0
Zn453 Zn 0.07156 0.76648 0.66357 0.0
O454 O 0.08528 0.76041 0.69744 0.0
O455 O 0.06876 0.77376 0.71779 0.0
O456 O 0.08811 0.79762 0.66117 0.0
O457 O 0.06958 0.80945 0.67793 0.0
O458 O 0.0519 0.77164 0.62838 0.0
O459 O 0.06992 0.75811 0.61759 0.0
C460 C 0.07972 0.76628 0.72221 0.0
C461 C 0.05736 0.76278 0.60835 0.0
C462 C 0.97028 0.59327 0.73142 0.0
C463 C 0.99132 0.59044 0.61894 0.0
O464 O 0.98769 0.5981 0.72307 0.0
Zn465 Zn 0.98197 0.59031 0.67665 0.0
O466 O 0.95636 0.5845 0.71069 0.0
Zn467 Zn 0.95174 0.57592 0.6606 0.0
O468 O 0.93722 0.54691 0.66149 0.0
O469 O 0.96787 0.55913 0.6769 0.0
O470 O 0.97274 0.58236 0.62255 0.0
O471 O 1.00246 0.59732 0.64395 0.0
O472 O 0.97145 0.6094 0.66234 0.0
O473 O 0.94038 0.59234 0.64749 0.0
C474 C 0.95113 0.54419 0.67058 0.0
C475 C 0.9558 0.60882 0.6524 0.0
C476 C 0.43647 0.385 0.73412 0.0
C477 C 0.43911 0.40807 0.6213 0.0
O478 O 0.43179 0.39766 0.72564 0.0
Zn479 Zn 0.43975 0.39967 0.67928 0.0
O480 O 0.4453 0.3798 0.71361 0.0
Zn481 Zn 0.45413 0.38372 0.66372 0.0
O482 O 0.48322 0.39855 0.66454 0.0
O483 O 0.47082 0.41686 0.67953 0.0
O484 O 0.44705 0.39747 0.6252 0.0
O485 O 0.43296 0.41317 0.6463 0.0
O486 O 0.4207 0.36996 0.66479 0.0
O487 O 0.4379 0.3559 0.65093 0.0
C488 C 0.48584 0.41518 0.67333 0.0
C489 C 0.42137 0.35487 0.65522 0.0
C490 C 0.61974 0.03464 0.62589 0.0
C491 C 0.63941 0.05585 0.74023 0.0
O492 O 0.61479 0.02348 0.65094 0.0
Zn493 Zn 0.62721 0.04386 0.68464 0.0
O494 O 0.63009 0.05316 0.62978 0.0
Zn495 Zn 0.64353 0.07405 0.66765 0.0
O496 O 0.67182 0.08506 0.65713 0.0
O497 O 0.65728 0.05462 0.67515 0.0
O498 O 0.64498 0.06964 0.71905 0.0
O499 O 0.62805 0.03818 0.73137 0.0
O500 O 0.61059 0.05853 0.68398 0.0
O501 O 0.6291 0.08854 0.66537 0.0
C502 C 0.67276 0.06999 0.6657 0.0
C503 C 0.61259 0.07517 0.67609 0.0
H504 H 0.9753 0.34893 0.06594 0.0
H505 H 0.96035 0.36392 0.97275 0.0
H506 H 1.00987 0.37261 0.05617 0.0
H507 H 0.995 0.3872 0.96232 0.0
H508 H 0.05614 0.3881 0.94278 0.0
H509 H 0.02161 0.37745 0.95226 0.0
H510 H 0.03667 0.40884 0.04435 0.0
H511 H 0.07132 0.42003 0.03411 0.0
C512 C 0.97933 0.35801 0.04412 0.0
C513 C 0.9651 0.35498 0.02052 0.0
C514 C 0.99915 0.37147 0.03835 0.0
C515 C 1.00521 0.38175 0.00838 0.0
C516 C 0.99081 0.37955 0.98564 0.0
C517 C 0.97095 0.36639 0.99178 0.0
C518 C 0.05216 0.39362 0.96409 0.0
C519 C 0.06645 0.40529 0.98729 0.0
C520 C 0.03237 0.3874 0.96971 0.0
C521 C 0.02637 0.39222 0.99917 0.0
C522 C 0.04082 0.40489 0.02144 0.0
C523 C 0.06068 0.4115 0.01539 0.0
H524 H 0.67598 0.62943 0.06426 0.0
H525 H 0.66819 0.60788 0.96487 0.0
H526 H 0.65273 0.64083 0.05412 0.0
H527 H 0.6451 0.61945 0.95437 0.0
H528 H 0.64324 0.67893 0.94282 0.0
H529 H 0.65374 0.65485 0.95027 0.0
H530 H 0.61853 0.63377 0.03817 0.0
H531 H 0.60769 0.65768 0.03003 0.0
C532 C 0.66849 0.62622 0.0408 0.0
C533 C 0.67344 0.61728 0.01567 0.0
C534 C 0.65526 0.63287 0.03484 0.0
C535 C 0.64711 0.63115 1.00333 0.0
C536 C 0.65113 0.62104 0.97886 0.0
C537 C 0.66412 0.61415 0.985 0.0
C538 C 0.63694 0.66844 0.96269 0.0
C539 C 0.62426 0.66983 0.98534 0.0
C540 C 0.64305 0.6547 0.96716 0.0
C541 C 0.63706 0.6424 0.99494 0.0
C542 C 0.62343 0.64303 0.01656 0.0
C543 C 0.61701 0.65653 0.01166 0.0
H544 H 0.42561 0.06688 0.97181 0.0
H545 H 0.39444 0.05255 0.06386 0.0
H546 H 0.41443 0.03215 0.96248 0.0
H547 H 0.38378 0.01796 0.05527 0.0
H548 H 0.35464 0.97051 0.9428 0.0
H549 H 0.37828 1.00517 0.9516 0.0
H550 H 0.39346 0.99132 0.04583 0.0
H551 H 0.3702 0.95656 0.03637 0.0
C552 C 0.41724 0.05641 0.99085 0.0
C553 C 0.41125 0.06244 0.01891 0.0
C554 C 0.41064 0.03651 0.98534 0.0
C555 C 0.39818 0.02228 0.0081 0.0
C556 C 0.39356 0.02855 0.03746 0.0
C557 C 0.39978 0.04838 0.04255 0.0
C558 C 0.36383 0.97478 0.96451 0.0
C559 C 0.36096 0.9608 0.9885 0.0
C560 C 0.37728 0.99465 0.96972 0.0
C561 C 0.38771 1.00103 0.99951 0.0
C562 C 0.38568 0.98688 0.02264 0.0
C563 C 0.37253 0.96695 0.01707 0.0
H564 H 0.06668 0.66019 0.94884 0.0
H565 H 0.06562 0.6776 0.04897 0.0
H566 H 0.03177 0.63546 0.95306 0.0
H567 H 0.0312 0.6535 0.05329 0.0
H568 H 0.96834 0.61132 0.05872 0.0
H569 H 1.00324 0.62143 0.05453 0.0
H570 H 1.00371 0.63945 0.95396 0.0
H571 H 0.96928 0.62917 0.95826 0.0
C572 C 0.05918 0.65825 0.97204 0.0
C573 C 0.06882 0.6708 0.99854 0.0
C574 C 0.03913 0.64424 0.97447 0.0
C575 C 0.02846 0.64254 1.00346 0.0
C576 C 0.03874 0.65406 0.0307 0.0
C577 C 0.05857 0.66803 0.02818 0.0
C578 C 0.97582 0.61672 0.03545 0.0
C579 C 0.96614 0.61947 0.00883 0.0
C580 C 0.99586 0.62273 0.03304 0.0
C581 C 1.0065 0.63154 1.00396 0.0
C582 C 0.99619 0.6326 0.97662 0.0
C583 C 0.97636 0.62676 0.97912 0.0
H584 H 0.41565 0.36155 0.06286 0.0
H585 H 0.40089 0.34726 0.9607 0.0
H586 H 0.40523 0.3861 0.05925 0.0
H587 H 0.39019 0.3711 0.95697 0.0
H588 H 0.36813 0.41238 0.95302 0.0
H589 H 0.39314 0.40258 0.95767 0.0
H590 H 0.37331 0.38181 0.05644 0.0
H591 H 0.34901 0.39182 0.05176 0.0
C592 C 0.41089 0.36418 0.03939 0.0
C593 C 0.40911 0.35256 0.01206 0.0
C594 C 0.40467 0.37806 0.0373 0.0
C595 C 0.39654 0.38049 0.00787 0.0
C596 C 0.39649 0.36996 0.97995 0.0
C597 C 0.40259 0.35616 0.9821 0.0
C598 C 0.36972 0.4064 0.97603 0.0
C599 C 0.35663 0.40282 1.00198 0.0
C600 C 0.38389 0.40057 0.97868 0.0
C601 C 0.3852 0.39112 0.00735 0.0
C602 C 0.37308 0.38917 0.03412 0.0
C603 C 0.35898 0.39485 0.03138 0.0
H604 H 0.6396 0.97027 0.94555 0.0
H605 H 0.61204 0.9569 0.04082 0.0
H606 H 0.6504 1.00488 0.95375 0.0
H607 H 0.62297 0.99162 0.04944 0.0
H608 H 0.68061 0.0537 0.06713 0.0
H609 H 0.65719 0.01897 0.05898 0.0
H610 H 0.6429 0.03179 0.96308 0.0
H611 H 0.66629 0.0666 0.97163 0.0
C612 C 0.635 0.97465 0.96754 0.0
C613 C 0.6245 0.96085 0.99212 0.0
C614 C 0.6413 0.99452 0.97241 0.0
C615 C 0.63765 1.00111 1.00237 0.0
C616 C 0.62608 0.98708 0.02614 0.0
C617 C 0.61954 0.96715 0.02101 0.0
C618 C 0.67168 0.04919 0.04511 0.0
C619 C 0.67484 0.0629 0.02044 0.0
C620 C 0.65833 0.02925 0.04026 0.0
C621 C 0.64819 0.02251 0.01026 0.0
C622 C 0.65049 0.03644 0.98642 0.0
C623 C 0.66365 0.05642 0.9915 0.0
H624 H 0.73319 0.74458 0.2861 0.0
H625 H 0.73143 0.72618 0.38643 0.0
H626 H 0.69831 0.7346 0.2896 0.0
H627 H 0.697 0.71596 0.39001 0.0
H628 H 0.63408 0.69528 0.39413 0.0
H629 H 0.66905 0.71988 0.3907 0.0
H630 H 0.67006 0.70293 0.2899 0.0
H631 H 0.63552 0.67901 0.29342 0.0
C632 C 0.72554 0.73909 0.30921 0.0
C633 C 0.735 0.73618 0.336 0.0
C634 C 0.70549 0.73313 0.31121 0.0
C635 C 0.6946 0.72418 0.34002 0.0
C636 C 0.7047 0.72292 0.36754 0.0
C637 C 0.72454 0.72874 0.36546 0.0
C638 C 0.64169 0.69747 0.37096 0.0
C639 C 0.63211 0.68528 0.34405 0.0
C640 C 0.66178 0.71138 0.369 0.0
C641 C 0.67262 0.71332 0.3401 0.0
C642 C 0.66241 0.70218 0.31246 0.0
C643 C 0.64252 0.68833 0.3145 0.0
H644 H 0.34971 0.96898 0.39879 0.0
H645 H 0.33364 0.93897 0.30567 0.0
H646 H 0.32581 0.97973 0.39038 0.0
H647 H 0.31011 0.95018 0.29659 0.0
H648 H 0.27806 0.99359 0.37102 0.0
H649 H 0.2895 0.97025 0.3802 0.0
H650 H 0.31944 0.98638 0.28677 0.0
H651 H 0.30853 1.01012 0.27832 0.0
C652 C 0.34035 0.96388 0.37729 0.0
C653 C 0.34315 0.95272 0.3533 0.0
C654 C 0.32676 0.97015 0.37229 0.0
C655 C 0.31609 0.96587 0.34272 0.0
C656 C 0.31807 0.9537 0.31961 0.0
C657 C 0.33136 0.94708 0.32498 0.0
C658 C 0.28633 0.99147 0.35182 0.0
C659 C 0.29205 1.00335 0.32361 0.0
C660 C 0.29307 0.97827 0.35724 0.0
C661 C 0.30542 0.97648 0.33426 0.0
C662 C 0.30975 0.9872 0.30476 0.0
C663 C 0.30338 1.0007 0.29974 0.0
H664 H 0.01933 0.30309 0.27555 0.0
H665 H 0.03621 0.28876 0.36753 0.0
H666 H 0.04294 0.33774 0.28454 0.0
H667 H 0.05939 0.32352 0.37726 0.0
H668 H 0.09072 0.3994 0.30476 0.0
H669 H 0.07943 0.36471 0.29473 0.0
H670 H 0.04943 0.35008 0.38813 0.0
H671 H 0.06017 0.38465 0.39743 0.0
C672 C 0.0288 0.30728 0.29691 0.0
C673 C 0.0263 0.29318 0.32042 0.0
C674 C 0.04222 0.32715 0.30225 0.0
C675 C 0.053 0.33341 0.33171 0.0
C676 C 0.05133 0.31917 0.35432 0.0
C677 C 0.03823 0.29924 0.34858 0.0
C678 C 0.08246 0.38884 0.32376 0.0
C679 C 0.07669 0.39475 0.35223 0.0
C680 C 0.07581 0.36897 0.31785 0.0
C681 C 0.06351 0.35462 0.3406 0.0
C682 C 0.05909 0.36076 0.37031 0.0
C683 C 0.06536 0.38057 0.37581 0.0
H684 H 0.64328 0.96391 0.39901 0.0
H685 H 0.62936 0.94081 0.30056 0.0
H686 H 0.67784 0.97477 0.38925 0.0
H687 H 0.66395 0.95188 0.29041 0.0
H688 H 0.73961 0.99043 0.36578 0.0
H689 H 0.70475 0.96698 0.37435 0.0
H690 H 0.69096 0.98728 0.28522 0.0
H691 H 0.72565 1.01094 0.27735 0.0
C692 C 0.64749 0.96023 0.3759 0.0
C693 C 0.63357 0.951 0.3509 0.0
C694 C 0.66733 0.96659 0.37014 0.0
C695 C 0.67372 0.9643 0.33894 0.0
C696 C 0.65955 0.9539 0.31467 0.0
C697 C 0.63969 0.94728 0.32063 0.0
C698 C 0.72918 0.98921 0.34729 0.0
C699 C 0.73536 1.00217 0.32047 0.0
C700 C 0.70919 0.97597 0.35241 0.0
C701 C 0.69503 0.97525 0.33053 0.0
C702 C 0.70145 0.98721 0.30233 0.0
C703 C 0.72135 1.0007 0.29763 0.0
H704 H 0.03715 0.75182 0.36895 0.0
H705 H 0.0202 0.72007 0.27747 0.0
H706 H 0.06035 0.74029 0.37909 0.0
H707 H 0.04381 0.70906 0.28686 0.0
H708 H 0.09159 0.69551 0.30652 0.0
H709 H 0.08014 0.71875 0.29651 0.0
H710 H 0.05105 0.7041 0.39072 0.0
H711 H 0.06206 0.68047 0.4001 0.0
C712 C 0.03914 0.74322 0.35021 0.0
C713 C 0.02721 0.73721 0.32205 0.0
C714 C 0.05225 0.73643 0.35619 0.0
C715 C 0.05393 0.72374 0.33381 0.0
C716 C 0.04308 0.71902 0.30439 0.0
C717 C 0.02966 0.72544 0.29883 0.0
C718 C 0.08355 0.69797 0.32573 0.0
C719 C 0.07813 0.68655 0.35447 0.0
C720 C 0.07678 0.7111 0.31982 0.0
C721 C 0.06465 0.71326 0.34277 0.0
C722 C 0.06058 0.70299 0.37273 0.0
C723 C 0.06701 0.68956 0.37829 0.0
H724 H 0.32847 0.39942 0.31176 0.0
H725 H 0.34838 0.3854 0.4008 0.0
H726 H 0.30541 0.36456 0.30251 0.0
H727 H 0.32509 0.35068 0.39225 0.0
H728 H 0.27907 0.28894 0.37524 0.0
H729 H 0.28979 0.3234 0.38587 0.0
H730 H 0.31394 0.3381 0.28788 0.0
H731 H 0.30344 0.30367 0.27766 0.0
C732 C 0.32717 0.38896 0.33023 0.0
C733 C 0.33987 0.39514 0.35742 0.0
C734 C 0.31417 0.36898 0.32472 0.0
C735 C 0.31342 0.35479 0.34658 0.0
C736 C 0.32506 0.36118 0.37515 0.0
C737 C 0.33833 0.38109 0.38024 0.0
C738 C 0.28577 0.29942 0.35544 0.0
C739 C 0.28994 0.29357 0.32529 0.0
C740 C 0.29217 0.3192 0.36168 0.0
C741 C 0.30279 0.33355 0.33779 0.0
C742 C 0.30557 0.32743 0.30668 0.0
C743 C 0.29944 0.30768 0.30066 0.0
H744 H 0.29433 0.0294 0.63776 0.0
H745 H 0.30887 0.01339 0.73039 0.0
H746 H 0.32903 0.05291 0.62811 0.0
H747 H 0.34345 0.03733 0.72147 0.0
H748 H 0.40486 0.08513 0.70136 0.0
H749 H 0.37012 0.07383 0.71084 0.0
H750 H 0.3559 0.0433 0.61795 0.0
H751 H 0.39052 0.05407 0.60922 0.0
C752 C 0.30483 0.03168 0.65685 0.0
C753 C 0.29887 0.01989 0.68517 0.0
C754 C 0.32472 0.04498 0.65116 0.0
C755 C 0.33901 0.04698 0.67399 0.0
C756 C 0.33281 0.03635 0.70359 0.0
C757 C 0.31299 0.02273 0.70888 0.0
C758 C 0.3944 0.07678 0.68231 0.0
C759 C 0.40043 0.07083 0.6542 0.0
C760 C 0.37448 0.07012 0.68791 0.0
C761 C 0.36024 0.05764 0.66519 0.0
C762 C 0.3665 0.0531 0.63574 0.0
C763 C 0.38635 0.05939 0.63055 0.0
H764 H 0.97064 0.34603 0.7164 0.0
H765 H 0.94912 0.32638 0.61825 0.0
H766 H 0.98064 0.32174 0.72093 0.0
H767 H 0.95896 0.30138 0.62274 0.0
H768 H 1.01456 0.29389 0.62498 0.0
H769 H 0.99048 0.30428 0.62142 0.0
H770 H 0.97619 0.28979 0.72404 0.0
H771 H 1.00097 0.27968 0.72746 0.0
C772 C 0.96743 0.33596 0.69611 0.0
C773 C 0.95918 0.33816 0.66691 0.0
C774 C 0.97308 0.32186 0.69878 0.0
C775 C 0.97085 0.30957 0.67214 0.0
C776 C 0.96117 0.31076 0.64367 0.0
C777 C 0.95533 0.32492 0.6411 0.0
C778 C 1.00573 0.29219 0.64648 0.0
C779 C 1.00962 0.28594 0.67648 0.0
C780 C 0.9918 0.29814 0.64444 0.0
C781 C 0.98144 0.2982 0.67252 0.0
C782 C 0.9841 0.29026 0.70197 0.0
C783 C 0.99811 0.28421 0.70395 0.0
H784 H 0.72633 0.71871 0.73648 0.0
H785 H 0.761 0.73318 0.64818 0.0
H786 H 0.71534 0.68409 0.728 0.0
H787 H 0.74961 0.6984 0.63896 0.0
H788 H 0.6911 0.63729 0.61313 0.0
H789 H 0.71479 0.67177 0.62369 0.0
H790 H 0.72365 0.65702 0.72198 0.0
H791 H 0.70017 0.62252 0.71103 0.0
C792 C 0.73236 0.71454 0.71613 0.0
C793 C 0.7449 0.72868 0.69346 0.0
C794 C 0.72595 0.69467 0.71106 0.0
C795 C 0.73151 0.68842 0.68267 0.0
C796 C 0.74504 0.70271 0.66103 0.0
C797 C 0.75178 0.72266 0.66654 0.0
C798 C 0.69894 0.64132 0.6363 0.0
C799 C 0.69424 0.62719 0.66091 0.0
C800 C 0.71241 0.66109 0.6425 0.0
C801 C 0.72108 0.6672 0.67377 0.0
C802 C 0.71725 0.65283 0.69767 0.0
C803 C 0.70402 0.63304 0.69126 0.0
H804 H 0.40679 0.32505 0.69926 0.0
H805 H 0.39282 0.34459 0.60974 0.0
H806 H 0.37198 0.30145 0.70778 0.0
H807 H 0.35817 0.32078 0.61757 0.0
H808 H 0.29658 0.27419 0.63348 0.0
H809 H 0.33124 0.28548 0.62348 0.0
H810 H 0.34498 0.30916 0.72185 0.0
H811 H 0.31034 0.29806 0.73146 0.0
C812 C 0.39638 0.32357 0.68053 0.0
C813 C 0.40253 0.33633 0.65343 0.0
C814 C 0.37642 0.31025 0.68562 0.0
C815 C 0.36224 0.30924 0.66343 0.0
C816 C 0.36866 0.32094 0.63494 0.0
C817 C 0.38854 0.33451 0.63026 0.0
C818 C 0.30691 0.28093 0.65347 0.0
C819 C 0.30073 0.28477 0.68357 0.0
C820 C 0.3268 0.28764 0.6476 0.0
C821 C 0.34093 0.29829 0.6718 0.0
C822 C 0.33449 0.30078 0.70282 0.0
C823 C 0.31463 0.29431 0.70848 0.0
H824 H 0.75156 0.02917 0.72751 0.0
H825 H 0.73289 0.01205 0.62739 0.0
H826 H 0.74131 0.05386 0.72387 0.0
H827 H 0.72239 0.03602 0.62369 0.0
H828 H 0.70111 0.07754 0.61892 0.0
H829 H 0.72605 0.06765 0.62256 0.0
H830 H 0.70969 0.05048 0.7238 0.0
H831 H 0.68549 0.06076 0.72014 0.0
C832 C 0.74592 0.03116 0.70443 0.0
C833 C 0.74301 0.01871 0.67776 0.0
C834 C 0.73982 0.04513 0.70235 0.0
C835 C 0.73073 0.04688 0.67356 0.0
C836 C 0.72946 0.03544 0.64615 0.0
C837 C 0.73542 0.02154 0.64831 0.0
C838 C 0.70351 0.07242 0.64222 0.0
C839 C 0.69139 0.06988 0.66921 0.0
C840 C 0.71761 0.0665 0.6443 0.0
C841 C 0.71978 0.0579 0.67338 0.0
C842 C 0.70874 0.05712 0.70109 0.0
C843 C 0.69473 0.06295 0.69896 0.0
H844 H 0.99802 0.73401 0.63953 0.0
H845 H 1.01449 0.71817 0.73047 0.0
H846 H 0.9744 0.69946 0.62881 0.0
H847 H 0.99044 0.68375 0.72053 0.0
H848 H 0.97248 0.63776 0.60689 0.0
H849 H 0.98368 0.67237 0.6168 0.0
H850 H 0.95366 0.65757 0.71019 0.0
H851 H 0.94195 0.62288 0.69957 0.0
C852 C 0.99583 0.72324 0.65805 0.0
C853 C 1.00776 0.7288 0.6862 0.0
C854 C 0.98248 0.70344 0.65174 0.0
C855 C 0.98054 0.68885 0.6738 0.0
C856 C 0.99137 0.69463 0.70326 0.0
C857 C 1.00505 0.71436 0.70913 0.0
C858 C 0.96735 0.64182 0.6286 0.0
C859 C 0.95592 0.62758 0.65204 0.0
C860 C 0.9739 0.66166 0.63446 0.0
C861 C 0.96963 0.66774 0.66438 0.0
C862 C 0.95717 0.65336 0.68691 0.0
C863 C 0.95026 0.63347 0.68065 0.0
H864 H 0.24748 0.39121 0.04853 0.0
H865 H 0.27147 0.43641 0.97456 0.0
H866 H 0.21769 0.39297 0.04996 0.0
H867 H 0.24099 0.43769 0.9749 0.0
H868 H 0.18592 0.44266 0.99963 0.0
H869 H 0.21819 0.44515 1.00219 0.0
H870 H 0.19009 0.38271 0.01724 0.0
H871 H 0.15839 0.3804 0.01584 0.0
C872 C 0.2464 0.40159 0.0325 0.0
C873 C 0.26188 0.41353 0.01121 0.0
C874 C 0.22915 0.4025 0.03309 0.0
C875 C 0.22652 0.41514 0.01197 0.0
C876 C 0.24236 0.42777 0.9916 0.0
C877 C 0.25987 0.42703 0.99134 0.0
C878 C 0.18671 0.42953 1.00375 0.0
C879 C 0.16944 0.41137 0.00784 0.0
C880 C 0.20524 0.43092 0.005 0.0
C881 C 0.20697 0.41417 0.01033 0.0
C882 C 0.18961 0.39607 0.01402 0.0
C883 C 0.17126 0.39473 0.01298 0.0
H884 H 0.63957 0.77975 0.04799 0.0
H885 H 0.59217 0.75533 0.97795 0.0
H886 H 0.6383 0.80981 0.04965 0.0
H887 H 0.5914 0.78599 0.97838 0.0
H888 H 0.58742 0.84134 1.00246 0.0
H889 H 0.58494 0.80912 0.00533 0.0
H890 H 0.64764 0.83725 0.01749 0.0
H891 H 0.64992 0.86893 0.01593 0.0
C892 C 0.62882 0.78079 0.03289 0.0
C893 C 0.61606 0.76508 0.01268 0.0
C894 C 0.62819 0.79821 0.03358 0.0
C895 C 0.61504 0.80075 0.01359 0.0
C896 C 0.60171 0.78471 0.99427 0.0
C897 C 0.60216 0.76708 0.99394 0.0
C898 C 0.60062 0.84058 0.00598 0.0
C899 C 0.61884 0.85785 0.00924 0.0
C900 C 0.59924 0.82206 0.00743 0.0
C901 C 0.61605 0.82033 0.01202 0.0
C902 C 0.63422 0.83771 0.01487 0.0
C903 C 0.63557 0.85606 0.01372 0.0
H904 H 0.16703 0.77854 0.04808 0.0
H905 H 0.18756 0.75554 0.97125 0.0
H906 H 0.19866 0.80821 0.04982 0.0
H907 H 0.2194 0.78592 0.97194 0.0
H908 H 0.27966 0.8408 0.99699 0.0
H909 H 0.24996 0.80843 0.99923 0.0
H910 H 0.21549 0.83611 0.01745 0.0
H911 H 0.24475 0.86785 0.01634 0.0
C912 C 0.17836 0.77981 0.03151 0.0
C913 C 0.17462 0.76467 0.0093 0.0
C914 C 0.19656 0.79699 0.03229 0.0
C915 C 0.21164 0.79987 0.01045 0.0
C916 C 0.20824 0.78433 0.98919 0.0
C917 C 0.18996 0.76689 0.98873 0.0
C918 C 0.26573 0.83989 1.00173 0.0
C919 C 0.26475 0.85704 0.00679 0.0
C920 C 0.24864 0.82131 1.00281 0.0
C921 C 0.23016 0.81944 0.00895 0.0
C922 C 0.22935 0.8367 0.01359 0.0
C923 C 0.24628 0.85508 0.01271 0.0
H924 H 0.39695 0.24357 0.96081 0.0
H925 H 0.44256 0.2674 0.03412 0.0
H926 H 0.39881 0.21385 0.95864 0.0
H927 H 0.44393 0.237 0.03307 0.0
H928 H 0.44895 0.18214 0.00734 0.0
H929 H 0.45136 0.21438 0.00528 0.0
H930 H 0.38883 0.18618 0.9909 0.0
H931 H 0.38659 0.15454 0.99176 0.0
C932 C 0.40743 0.24247 0.97653 0.0
C933 C 0.41947 0.25788 0.99785 0.0
C934 C 0.40841 0.22526 0.97552 0.0
C935 C 0.42121 0.22261 0.99626 0.0
C936 C 0.43391 0.23839 0.01665 0.0
C937 C 0.4331 0.25585 0.01732 0.0
C938 C 0.4358 0.1829 1.00348 0.0
C939 C 0.41763 0.16563 0.99941 0.0
C940 C 0.43712 0.2014 1.0025 0.0
C941 C 0.42032 0.2031 0.99751 0.0
C942 C 0.40222 0.18573 0.99384 0.0
C943 C 0.40094 0.16742 0.99459 0.0
H944 H 0.84747 0.26895 0.03553 0.0
H945 H 0.86974 0.24496 0.96334 0.0
H946 H 0.816 0.23827 0.03535 0.0
H947 H 0.83839 0.21491 0.96194 0.0
H948 H 0.79155 0.15562 0.99589 0.0
H949 H 0.82082 0.18738 0.99426 0.0
H950 H 0.78611 0.21518 0.00871 0.0
H951 H 0.75647 0.18285 0.01163 0.0
C952 C 0.84553 0.2573 0.01914 0.0
C953 C 0.86125 0.25939 0.99973 0.0
C954 C 0.82744 0.23966 0.01895 0.0
C955 C 0.82456 0.22375 0.9991 0.0
C956 C 0.84005 0.22642 0.97843 0.0
C957 C 0.85809 0.24383 0.97897 0.0
C958 C 0.79 0.16844 0.9986 0.0
C959 C 0.77148 0.16652 1.0037 0.0
C960 C 0.80693 0.18683 0.9974 0.0
C961 C 0.80606 0.20413 1.00084 0.0
C962 C 0.78752 0.20229 0.00612 0.0
C963 C 0.77045 0.18372 0.00761 0.0
H964 H 0.8685 0.63098 0.96167 0.0
H965 H 0.84768 0.58597 0.03593 0.0
H966 H 0.83699 0.62932 0.96098 0.0
H967 H 0.81597 0.58478 0.03631 0.0
H968 H 0.75582 0.57997 0.01234 0.0
H969 H 0.78554 0.57736 0.00944 0.0
H970 H 0.82006 0.6398 0.99452 0.0
H971 H 0.79075 0.64223 0.99628 0.0
C972 C 0.85713 0.62066 0.9779 0.0
C973 C 0.86076 0.60874 0.99907 0.0
C974 C 0.839 0.61981 0.97774 0.0
C975 C 0.82387 0.60725 0.99918 0.0
C976 C 0.82716 0.59463 0.01939 0.0
C977 C 0.84538 0.59531 0.01923 0.0
C978 C 0.76977 0.59308 0.00825 0.0
C979 C 0.77074 0.61128 1.00423 0.0
C980 C 0.78687 0.59162 0.00677 0.0
C981 C 0.80536 0.60832 1.00129 0.0
C982 C 0.80619 0.62647 0.99782 0.0
C983 C 0.78924 0.62789 0.99908 0.0
H984 H 0.85588 0.77555 0.33566 0.0
H985 H 0.82874 0.71306 0.34856 0.0
H986 H 0.88827 0.77821 0.33748 0.0
H987 H 0.86048 0.71554 0.34916 0.0
H988 H 0.91775 0.72359 0.37986 0.0
H989 H 0.88786 0.72517 0.38192 0.0
H990 H 0.91149 0.77158 0.3098 0.0
H991 H 0.94204 0.77049 0.30892 0.0
C992 C 0.85677 0.7624 0.3388 0.0
C993 C 0.83958 0.74413 0.34232 0.0
C994 C 0.87537 0.76389 0.33968 0.0
C995 C 0.87723 0.74713 0.34397 0.0
C996 C 0.85993 0.72892 0.34684 0.0
C997 C 0.84153 0.72747 0.34624 0.0
C998 C 0.91672 0.73431 0.36464 0.0
C999 C 0.93232 0.74679 0.34401 0.0
C1000 C 0.8994 0.73511 0.36558 0.0
C1001 C 0.89683 0.74818 0.34542 0.0
C1002 C 0.91279 0.76132 0.32576 0.0
C1003 C 0.93036 0.76069 0.32518 0.0
H1004 H 0.30827 0.20013 0.37816 0.0
H1005 H 0.25995 0.17645 0.30992 0.0
H1006 H 0.30678 0.16872 0.38078 0.0
H1007 H 0.25895 0.14491 0.31126 0.0
H1008 H 0.25475 0.08572 0.33732 0.0
H1009 H 0.25258 0.11567 0.33924 0.0
H1010 H 0.31545 0.14993 0.34918 0.0
H1011 H 0.31744 0.12039 0.34862 0.0
C1012 C 0.2973 0.18818 0.3636 0.0
C1013 C 0.28434 0.19095 0.34363 0.0
C1014 C 0.29653 0.17008 0.36486 0.0
C1015 C 0.28302 0.15413 0.34568 0.0
C1016 C 0.26953 0.15669 0.32653 0.0
C1017 C 0.27013 0.17484 0.32566 0.0
C1018 C 0.26806 0.09967 0.34018 0.0
C1019 C 0.28624 0.1005 0.34313 0.0
C1020 C 0.26685 0.11692 0.34107 0.0
C1021 C 0.28381 0.13544 0.34475 0.0
C1022 C 0.30193 0.1361 0.34729 0.0
C1023 C 0.3031 0.119 0.34672 0.0
H1024 H 0.83134 0.11141 0.38087 0.0
H1025 H 0.85358 0.08722 0.30903 0.0
H1026 H 0.86278 0.14135 0.38249 0.0
H1027 H 0.88516 0.11779 0.30943 0.0
H1028 H 0.94478 0.17315 0.33313 0.0
H1029 H 0.91507 0.14087 0.33609 0.0
H1030 H 0.88052 0.16886 0.3503 0.0
H1031 H 0.90984 0.20055 0.34863 0.0
C1032 C 0.843 0.11248 0.36537 0.0
C1033 C 0.8398 0.09688 0.34464 0.0
C1034 C 0.8611 0.12982 0.36604 0.0
C1035 C 0.87662 0.13241 0.34551 0.0
C1036 C 0.8737 0.11647 0.32571 0.0
C1037 C 0.85554 0.09889 0.3254 0.0
C1038 C 0.93083 0.17234 0.33714 0.0
C1039 C 0.92987 0.18958 0.34094 0.0
C1040 C 0.91372 0.15379 0.33864 0.0
C1041 C 0.89519 0.152 0.34384 0.0
C1042 C 0.89439 0.16935 0.34722 0.0
C1043 C 0.91136 0.18771 0.346 0.0
H1044 H 0.05247 0.48729 0.3268 0.0
H1045 H 0.11496 0.51468 0.34037 0.0
H1046 H 0.05485 0.51899 0.32562 0.0
H1047 H 0.11752 0.54697 0.33793 0.0
H1048 H 0.10997 0.60061 0.36634 0.0
H1049 H 0.11088 0.57 0.36545 0.0
H1050 H 0.06437 0.54652 0.29347 0.0
H1051 H 0.06296 0.57649 0.29555 0.0
C1052 C 0.06685 0.50013 0.32911 0.0
C1053 C 0.08354 0.49826 0.33349 0.0
C1054 C 0.06824 0.51849 0.32818 0.0
C1055 C 0.08643 0.53583 0.33119 0.0
C1056 C 0.10322 0.53405 0.33569 0.0
C1057 C 0.10179 0.5155 0.33689 0.0
C1058 C 0.10009 0.58894 0.35011 0.0
C1059 C 0.08624 0.59099 0.3313 0.0
C1060 C 0.10063 0.57135 0.34952 0.0
C1061 C 0.08744 0.55542 0.32985 0.0
C1062 C 0.07436 0.55804 0.30979 0.0
C1063 C 0.07365 0.5754 0.31074 0.0
H1064 H 0.53766 0.56901 0.32914 0.0
H1065 H 0.51108 0.60469 0.34466 0.0
H1066 H 0.50577 0.53998 0.32789 0.0
H1067 H 0.47853 0.57519 0.34224 0.0
H1068 H 0.42462 0.51349 0.3698 0.0
H1069 H 0.45527 0.54505 0.36937 0.0
H1070 H 0.47827 0.52297 0.29483 0.0
H1071 H 0.44829 0.49158 0.29638 0.0
C1072 C 0.52496 0.57075 0.33192 0.0
C1073 C 0.52711 0.58938 0.33676 0.0
C1074 C 0.50648 0.55394 0.33094 0.0
C1075 C 0.4893 0.55503 0.33436 0.0
C1076 C 0.49135 0.57366 0.33958 0.0
C1077 C 0.51003 0.59063 0.3408 0.0
C1078 C 0.43618 0.51553 0.35307 0.0
C1079 C 0.43403 0.49988 0.33341 0.0
C1080 C 0.45379 0.53366 0.35277 0.0
C1081 C 0.46961 0.53662 0.33258 0.0
C1082 C 0.46684 0.52123 0.31158 0.0
C1083 C 0.44947 0.50317 0.31222 0.0
H1084 H 0.42878 0.9208 0.3641 0.0
H1085 H 0.45417 0.9691 0.29588 0.0
H1086 H 0.45939 0.9199 0.36424 0.0
H1087 H 0.48421 0.96773 0.29477 0.0
H1088 H 0.54288 0.97846 0.32954 0.0
H1089 H 0.51131 0.97646 0.32757 0.0
H1090 H 0.48264 0.91362 0.33742 0.0
H1091 H 0.51472 0.91579 0.34072 0.0
C1092 C 0.44075 0.93097 0.34864 0.0
C1093 C 0.43903 0.94515 0.33024 0.0
C1094 C 0.45835 0.93045 0.34863 0.0
C1095 C 0.47463 0.94398 0.32998 0.0
C1096 C 0.47239 0.95745 0.31034 0.0
C1097 C 0.455 0.95813 0.31071 0.0
C1098 C 0.52991 0.96414 0.33117 0.0
C1099 C 0.5315 0.94728 0.33512 0.0
C1100 C 0.51163 0.96296 0.32977 0.0
C1101 C 0.49414 0.94484 0.33185 0.0
C1102 C 0.49567 0.92789 0.33594 0.0
C1103 C 0.51411 0.9291 0.33763 0.0
H1104 H 0.58056 0.05493 0.71484 0.0
H1105 H 0.60518 0.1016 0.64347 0.0
H1106 H 0.55077 0.0567 0.71653 0.0
H1107 H 0.57473 0.10288 0.64399 0.0
H1108 H 0.51985 0.10784 0.66914 0.0
H1109 H 0.55197 0.11 0.67161 0.0
H1110 H 0.52334 0.04732 0.68404 0.0
H1111 H 0.49181 0.04534 0.68283 0.0
C1112 C 0.5796 0.06561 0.69939 0.0
C1113 C 0.59527 0.07799 0.67879 0.0
C1114 C 0.56235 0.06653 0.70014 0.0
C1115 C 0.55994 0.07964 0.67984 0.0
C1116 C 0.57594 0.09262 0.66009 0.0
C1117 C 0.59343 0.09186 0.6597 0.0
C1118 C 0.52049 0.09458 0.67267 0.0
C1119 C 0.50313 0.07645 0.6761 0.0
C1120 C 0.53894 0.09578 0.67387 0.0
C1121 C 0.54048 0.07887 0.67841 0.0
C1122 C 0.52302 0.0608 0.68145 0.0
C1123 C 0.50475 0.05964 0.68051 0.0
H1124 H 0.92488 0.42265 0.63835 0.0
H1125 H 0.96852 0.44608 0.71492 0.0
H1126 H 0.92337 0.453 0.63858 0.0
H1127 H 0.96651 0.47572 0.71623 0.0
H1128 H 0.97969 0.53521 0.68235 0.0
H1129 H 0.9774 0.50355 0.68389 0.0
H1130 H 0.91527 0.47551 0.66528 0.0
H1131 H 0.91776 0.50778 0.66256 0.0
C1132 C 0.93384 0.43408 0.65569 0.0
C1133 C 0.947 0.43199 0.67632 0.0
C1134 C 0.93298 0.45152 0.65588 0.0
C1135 C 0.94513 0.46717 0.67694 0.0
C1136 C 0.95738 0.46442 0.69884 0.0
C1137 C 0.95843 0.44725 0.69831 0.0
C1138 C 0.96544 0.52237 0.67874 0.0
C1139 C 0.94888 0.52421 0.67255 0.0
C1140 C 0.96409 0.50403 0.67986 0.0
C1141 C 0.94608 0.4867 0.67522 0.0
C1142 C 0.92943 0.48845 0.66885 0.0
C1143 C 0.93082 0.50697 0.6675 0.0
H1144 H 0.60775 0.50972 0.64164 0.0
H1145 H 0.58324 0.53227 0.71234 0.0
H1146 H 0.57732 0.47804 0.64257 0.0
H1147 H 0.55345 0.50074 0.71452 0.0
H1148 H 0.49442 0.45283 0.68188 0.0
H1149 H 0.52592 0.48239 0.68277 0.0
H1150 H 0.55458 0.44835 0.67 0.0
H1151 H 0.52246 0.41838 0.66776 0.0
C1152 C 0.59602 0.50783 0.65783 0.0
C1153 C 0.59791 0.52367 0.67661 0.0
C1154 C 0.57853 0.4896 0.65846 0.0
C1155 C 0.56256 0.48671 0.67816 0.0
C1156 C 0.56501 0.50237 0.69816 0.0
C1157 C 0.58226 0.52054 0.69715 0.0
C1158 C 0.50737 0.45148 0.67942 0.0
C1159 C 0.50574 0.43304 0.67496 0.0
C1160 C 0.52562 0.46859 0.68018 0.0
C1161 C 0.54309 0.468 0.67696 0.0
C1162 C 0.54155 0.44954 0.67239 0.0
C1163 C 0.5231 0.43228 0.67132 0.0
H1164 H 0.73228 0.91019 0.62842 0.0
H1165 H 0.7768 0.93377 0.70357 0.0
H1166 H 0.73417 0.88048 0.62678 0.0
H1167 H 0.77818 0.90336 0.70306 0.0
H1168 H 0.78344 0.84848 0.67883 0.0
H1169 H 0.78593 0.88075 0.67618 0.0
H1170 H 0.72366 0.85268 0.65885 0.0
H1171 H 0.72138 0.82103 0.66028 0.0
C1172 C 0.74254 0.90903 0.64466 0.0
C1173 C 0.75426 0.92437 0.66633 0.0
C1174 C 0.74352 0.89182 0.64395 0.0
C1175 C 0.75599 0.8891 0.66536 0.0
C1176 C 0.7684 0.90481 0.68611 0.0
C1177 C 0.76761 0.92228 0.68648 0.0
C1178 C 0.77035 0.84928 0.67416 0.0
C1179 C 0.75225 0.83204 0.66946 0.0
C1180 C 0.77173 0.86781 0.67286 0.0
C1181 C 0.75504 0.86956 0.6669 0.0
C1182 C 0.737 0.85221 0.66256 0.0
C1183 C 0.73566 0.83387 0.66362 0.0
H1184 H 0.11802 0.82359 0.62875 0.0
H1185 H 0.09356 0.84671 0.69848 0.0
H1186 H 0.14792 0.85504 0.62638 0.0
H1187 H 0.1241 0.8783 0.69738 0.0
H1188 H 0.17931 0.93764 0.67212 0.0
H1189 H 0.1471 0.90781 0.66984 0.0
H1190 H 0.17541 0.87337 0.65827 0.0
H1191 H 0.20703 0.90281 0.65923 0.0
C1192 C 0.11903 0.83544 0.64365 0.0
C1193 C 0.10337 0.8325 0.664 0.0
C1194 C 0.13635 0.85355 0.64255 0.0
C1195 C 0.13885 0.86933 0.66227 0.0
C1196 C 0.12285 0.86664 0.68171 0.0
C1197 C 0.10529 0.84847 0.68243 0.0
C1198 C 0.17857 0.92368 0.66882 0.0
C1199 C 0.19588 0.92278 0.66555 0.0
C1200 C 0.16007 0.9065 0.66773 0.0
C1201 C 0.1584 0.88796 0.66348 0.0
C1202 C 0.17581 0.88723 0.66061 0.0
C1203 C 0.19414 0.90427 0.66142 0.0
H1204 H 0.18296 0.25346 0.7014 0.0
H1205 H 0.20584 0.30051 0.63072 0.0
H1206 H 0.15134 0.2524 0.70027 0.0
H1207 H 0.17439 0.29894 0.62837 0.0
H1208 H 0.12682 0.31056 0.66081 0.0
H1209 H 0.15625 0.30834 0.66047 0.0
H1210 H 0.12172 0.24565 0.67235 0.0
H1211 H 0.09186 0.24805 0.67398 0.0
C1212 C 0.18115 0.26332 0.68517 0.0
C1213 C 0.19706 0.27724 0.66646 0.0
C1214 C 0.16297 0.2627 0.68443 0.0
C1215 C 0.16021 0.27585 0.66471 0.0
C1216 C 0.17593 0.28899 0.64475 0.0
C1217 C 0.19405 0.28979 0.64586 0.0
C1218 C 0.12534 0.29621 0.66322 0.0
C1219 C 0.10679 0.27946 0.66718 0.0
C1220 C 0.14237 0.29491 0.66277 0.0
C1221 C 0.14159 0.27677 0.66583 0.0
C1222 C 0.12303 0.25992 0.67006 0.0
C1223 C 0.10585 0.26126 0.6708 0.0
H1224 H 0.08987 0.42143 0.26233 0.0
H1225 H 0.03906 0.41868 0.21684 0.0
H1226 H 0.09627 0.40844 0.2127 0.0
H1227 H 0.04615 0.40627 0.166 0.0
H1228 H 0.09224 0.41823 0.07779 0.0
H1229 H 0.07933 0.42487 0.12735 0.0
H1230 H 0.07741 0.37509 0.17481 0.0
H1231 H 0.08974 0.36778 0.12411 0.0
C1232 C 0.08006 0.41811 0.24165 0.0
C1233 C 0.06404 0.42131 0.24343 0.0
C1234 C 0.08366 0.41045 0.21335 0.0
C1235 C 0.07163 0.4062 0.18573 0.0
C1236 C 0.05556 0.40933 0.18721 0.0
C1237 C 0.05157 0.41652 0.2161 0.0
C1238 C 0.08899 0.40855 0.09864 0.0
C1239 C 0.09225 0.39257 0.09713 0.0
C1240 C 0.08136 0.41228 0.12688 0.0
C1241 C 0.07722 0.40041 0.15469 0.0
C1242 C 0.08038 0.38436 0.15345 0.0
C1243 C 0.08753 0.38026 0.12464 0.0
H1244 H 0.60455 0.62318 0.2146 0.0
H1245 H 0.60108 0.67055 0.26139 0.0
H1246 H 0.61743 0.64333 0.16452 0.0
H1247 H 0.61438 0.69046 0.21251 0.0
H1248 H 0.65685 0.72658 0.12825 0.0
H1249 H 0.6482 0.70571 0.17756 0.0
H1250 H 0.60043 0.65869 0.12475 0.0
H1251 H 0.60846 0.67944 0.07638 0.0
C1252 C 0.60651 0.63777 0.21423 0.0
C1253 C 0.60145 0.64508 0.24176 0.0
C1254 C 0.61398 0.64931 0.18579 0.0
C1255 C 0.6171 0.66851 0.18497 0.0
C1256 C 0.61237 0.67584 0.21265 0.0
C1257 C 0.60446 0.66424 0.24049 0.0
C1258 C 0.64453 0.71181 0.1273 0.0
C1259 C 0.63315 0.7048 0.09867 0.0
C1260 C 0.63966 0.69986 0.15532 0.0
C1261 C 0.62375 0.68056 0.15471 0.0
C1262 C 0.61287 0.6734 0.12574 0.0
C1263 C 0.61737 0.68542 0.09821 0.0
H1264 H 0.34776 0.93307 0.07841 0.0
H1265 H 0.30013 0.93623 0.12483 0.0
H1266 H 0.36753 0.94629 0.12759 0.0
H1267 H 0.32002 0.94887 0.17521 0.0
H1268 H 0.35525 0.93745 0.26248 0.0
H1269 H 0.33518 0.93025 0.21346 0.0
H1270 H 0.38206 0.98028 0.16473 0.0
H1271 H 0.40222 0.98816 0.21485 0.0
C1272 C 0.34143 0.93649 0.09922 0.0
C1273 C 0.32223 0.93338 0.09783 0.0
C1274 C 0.3529 0.94429 0.12722 0.0
C1275 C 0.34536 0.94876 0.15492 0.0
C1276 C 0.32616 0.94565 0.15389 0.0
C1277 C 0.31477 0.93832 0.12529 0.0
C1278 C 0.36136 0.94705 0.24145 0.0
C1279 C 0.38047 0.96328 0.24241 0.0
C1280 C 0.34971 0.94301 0.21355 0.0
C1281 C 0.35702 0.95481 0.18557 0.0
C1282 C 0.3761 0.97108 0.18625 0.0
C1283 C 0.38764 0.97549 0.21471 0.0
H1284 H 0.42383 0.08821 0.92883 0.0
H1285 H 0.37313 0.08554 0.883 0.0
H1286 H 0.42992 0.0746 0.87966 0.0
H1287 H 0.3799 0.07248 0.83263 0.0
H1288 H 0.42603 0.08385 0.74483 0.0
H1289 H 0.41308 0.09074 0.79405 0.0
H1290 H 0.41079 0.041 0.84235 0.0
H1291 H 0.42316 0.03342 0.79196 0.0
C1292 C 0.41398 0.08479 0.90816 0.0
C1293 C 0.3981 0.0882 0.90967 0.0
C1294 C 0.41739 0.07675 0.88016 0.0
C1295 C 0.40529 0.07234 0.8526 0.0
C1296 C 0.38934 0.07566 0.85383 0.0
C1297 C 0.38555 0.08323 0.88243 0.0
C1298 C 0.42267 0.07422 0.76579 0.0
C1299 C 0.42585 0.05819 0.76463 0.0
C1300 C 0.41503 0.07809 0.79382 0.0
C1301 C 0.41079 0.06632 0.82177 0.0
C1302 C 0.41384 0.05019 0.82087 0.0
C1303 C 0.42101 0.04594 0.79225 0.0
H1304 H 0.93543 0.34227 0.93119 0.0
H1305 H 0.94217 0.2969 0.88399 0.0
H1306 H 0.94865 0.36286 0.8829 0.0
H1307 H 0.95484 0.3176 0.83454 0.0
H1308 H 0.9428 0.35128 0.74687 0.0
H1309 H 0.93578 0.33125 0.79575 0.0
H1310 H 0.98291 0.37974 0.84708 0.0
H1311 H 0.99061 0.40002 0.79707 0.0
C1312 C 0.93963 0.3366 0.91041 0.0
C1313 C 0.93751 0.31778 0.91132 0.0
C1314 C 0.94745 0.34857 0.88292 0.0
C1315 C 0.95294 0.3419 0.85526 0.0
C1316 C 0.95082 0.32309 0.85583 0.0
C1317 C 0.94345 0.31122 0.8839 0.0
C1318 C 0.95174 0.35783 0.76851 0.0
C1319 C 0.96711 0.37742 0.76826 0.0
C1320 C 0.94785 0.34618 0.79633 0.0
C1321 C 0.95889 0.35389 0.82496 0.0
C1322 C 0.97427 0.37347 0.82506 0.0
C1323 C 0.97859 0.38508 0.79667 0.0
H1324 H 0.72193 0.65767 0.89749 0.0
H1325 H 0.70702 0.59765 0.91299 0.0
H1326 H 0.70106 0.64762 0.84824 0.0
H1327 H 0.68577 0.58762 0.86572 0.0
H1328 H 0.66478 0.57673 0.76202 0.0
H1329 H 0.68637 0.58859 0.80877 0.0
H1330 H 0.66666 0.62953 0.83074 0.0
H1331 H 0.64543 0.61815 0.78196 0.0
C1332 C 0.71451 0.64245 0.89011 0.0
C1333 C 0.7163 0.62851 0.90905 0.0
C1334 C 0.70226 0.63662 0.86228 0.0
C1335 C 0.69162 0.61677 0.85294 0.0
C1336 C 0.6939 0.60306 0.8716 0.0
C1337 C 0.70614 0.60885 0.89895 0.0
C1338 C 0.66477 0.58812 0.77688 0.0
C1339 C 0.65321 0.59638 0.7682 0.0
C1340 C 0.67722 0.59494 0.80393 0.0
C1341 C 0.67832 0.61003 0.82377 0.0
C1342 C 0.66638 0.61805 0.81577 0.0
C1343 C 0.65394 0.61129 0.78819 0.0
H1344 H 0.93586 0.60316 0.9266 0.0
H1345 H 0.9376 0.65302 0.87919 0.0
H1346 H 0.94898 0.59652 0.87739 0.0
H1347 H 0.95024 0.6457 0.82885 0.0
H1348 H 0.93993 0.59934 0.74205 0.0
H1349 H 0.93235 0.612 0.79092 0.0
H1350 H 0.98267 0.61601 0.84005 0.0
H1351 H 0.99094 0.60395 0.79003 0.0
C1352 C 0.93884 0.61264 0.90552 0.0
C1353 C 0.93538 0.6285 0.90667 0.0
C1354 C 0.94665 0.60894 0.87751 0.0
C1355 C 0.95078 0.62069 0.84957 0.0
C1356 C 0.94727 0.63652 0.85033 0.0
C1357 C 0.93993 0.64061 0.87892 0.0
C1358 C 0.94953 0.60299 0.76312 0.0
C1359 C 0.96597 0.60043 0.76226 0.0
C1360 C 0.94525 0.61046 0.79096 0.0
C1361 C 0.95701 0.61513 0.81902 0.0
C1362 C 0.97347 0.61262 0.81847 0.0
C1363 C 0.97812 0.60562 0.79006 0.0
H1364 H 0.37519 0.29227 0.88069 0.0
H1365 H 0.42624 0.3391 0.92792 0.0
H1366 H 0.38271 0.31262 0.83088 0.0
H1367 H 0.43312 0.35927 0.87921 0.0
H1368 H 0.4272 0.39547 0.79366 0.0
H1369 H 0.41489 0.37495 0.84343 0.0
H1370 H 0.4153 0.3274 0.79181 0.0
H1371 H 0.42812 0.34776 0.74314 0.0
C1372 C 0.38791 0.3068 0.88049 0.0
C1373 C 0.40027 0.31389 0.90803 0.0
C1374 C 0.39212 0.31847 0.8522 0.0
C1375 C 0.40835 0.33758 0.85153 0.0
C1376 C 0.42039 0.34472 0.87926 0.0
C1377 C 0.41654 0.33298 0.90697 0.0
C1378 C 0.42466 0.38066 0.7931 0.0
C1379 C 0.42893 0.37337 0.76469 0.0
C1380 C 0.41754 0.36892 0.82137 0.0
C1381 C 0.41399 0.34955 0.82118 0.0
C1382 C 0.41767 0.34215 0.79247 0.0
C1383 C 0.42524 0.35396 0.76475 0.0
H1384 H 0.70448 0.1146 0.916 0.0
H1385 H 0.72163 0.07143 0.89681 0.0
H1386 H 0.68214 0.10261 0.87024 0.0
H1387 H 0.69967 0.05991 0.84895 0.0
H1388 H 0.64336 0.03182 0.78534 0.0
H1389 H 0.66516 0.04236 0.83338 0.0
H1390 H 0.68121 0.10235 0.81351 0.0
H1391 H 0.659 0.09185 0.7675 0.0
C1392 C 0.70385 0.1028 0.90145 0.0
C1393 C 0.71497 0.09405 0.91011 0.0
C1394 C 0.69098 0.09591 0.87496 0.0
C1395 C 0.68901 0.08025 0.85568 0.0
C1396 C 0.7006 0.07182 0.86354 0.0
C1397 C 0.71346 0.07865 0.89055 0.0
C1398 C 0.65113 0.04716 0.79198 0.0
C1399 C 0.64928 0.06095 0.77272 0.0
C1400 C 0.66392 0.05326 0.81909 0.0
C1401 C 0.67508 0.07325 0.82736 0.0
C1402 C 0.67271 0.08682 0.80845 0.0
C1403 C 0.65991 0.08076 0.78184 0.0
H1404 H 0.60439 0.91078 0.09692 0.0
H1405 H 0.66506 0.95336 0.11492 0.0
H1406 H 0.5947 0.92267 0.14368 0.0
H1407 H 0.65527 0.9648 0.16377 0.0
H1408 H 0.6274 0.99252 0.2304 0.0
H1409 H 0.63849 0.98242 0.18149 0.0
H1410 H 0.59483 0.92223 0.20055 0.0
H1411 H 0.5833 0.93226 0.24736 0.0
C1412 C 0.61579 0.92245 0.11136 0.0
C1413 C 0.63556 0.93102 0.10212 0.0
C1414 C 0.61018 0.92928 0.13845 0.0
C1415 C 0.62416 0.9447 0.15778 0.0
C1416 C 0.64408 0.95304 0.14922 0.0
C1417 C 0.64973 0.94627 0.1216 0.0
C1418 C 0.61989 0.97723 0.22347 0.0
C1419 C 0.60433 0.96325 0.24268 0.0
C1420 C 0.62647 0.97138 0.19583 0.0
C1421 C 0.6176 0.95147 0.18696 0.0
C1422 C 0.60185 0.93771 0.20602 0.0
C1423 C 0.59523 0.94351 0.23313 0.0
H1424 H 0.09572 0.67471 0.26431 0.0
H1425 H 0.04404 0.62945 0.21602 0.0
H1426 H 0.10351 0.69541 0.216 0.0
H1427 H 0.0525 0.65023 0.16662 0.0
H1428 H 0.09892 0.68407 0.07987 0.0
H1429 H 0.08591 0.66407 0.1288 0.0
H1430 H 0.08596 0.71215 0.17929 0.0
H1431 H 0.09851 0.73238 0.12922 0.0
C1432 C 0.08603 0.66909 0.24329 0.0
C1433 C 0.06932 0.65028 0.24389 0.0
C1434 C 0.09043 0.68111 0.21579 0.0
C1435 C 0.07852 0.67448 0.18784 0.0
C1436 C 0.06182 0.65568 0.18812 0.0
C1437 C 0.05706 0.64377 0.21617 0.0
C1438 C 0.09625 0.69054 0.10133 0.0
C1439 C 0.10006 0.70999 0.1008 0.0
C1440 C 0.08851 0.67891 0.12918 0.0
C1441 C 0.08478 0.68651 0.15758 0.0
C1442 C 0.08863 0.70597 0.15745 0.0
C1443 C 0.09591 0.71755 0.12902 0.0
H1444 H 0.39797 0.42048 0.21763 0.0
H1445 H 0.35048 0.42205 0.2678 0.0
H1446 H 0.37735 0.40787 0.16807 0.0
H1447 H 0.33001 0.40896 0.21928 0.0
H1448 H 0.29459 0.36901 0.13048 0.0
H1449 H 0.31475 0.37643 0.18057 0.0
H1450 H 0.36223 0.42594 0.13179 0.0
H1451 H 0.34231 0.41915 0.08287 0.0
C1452 C 0.38319 0.41803 0.21816 0.0
C1453 C 0.376 0.42259 0.24639 0.0
C1454 C 0.37138 0.41072 0.19001 0.0
C1455 C 0.35204 0.40728 0.19013 0.0
C1456 C 0.34473 0.41123 0.21869 0.0
C1457 C 0.35662 0.41897 0.24631 0.0
C1458 C 0.30927 0.38151 0.13066 0.0
C1459 C 0.31666 0.39367 0.10293 0.0
C1460 C 0.32082 0.38567 0.15911 0.0
C1461 C 0.3401 0.40163 0.15973 0.0
C1462 C 0.34754 0.41342 0.1318 0.0
C1463 C 0.33593 0.40964 0.10395 0.0
H1464 H 0.7105 0.75246 0.55275 0.0
H1465 H 0.75934 0.75375 0.60311 0.0
H1466 H 0.71862 0.73996 0.50312 0.0
H1467 H 0.76681 0.74074 0.55453 0.0
H1468 H 0.76222 0.70097 0.46504 0.0
H1469 H 0.7494 0.70824 0.51522 0.0
H1470 H 0.75223 0.75834 0.46732 0.0
H1471 H 0.76548 0.75172 0.41834 0.0
C1472 C 0.72279 0.74995 0.55332 0.0
C1473 C 0.73446 0.75441 0.58162 0.0
C1474 C 0.72736 0.74271 0.52512 0.0
C1475 C 0.74323 0.73924 0.52526 0.0
C1476 C 0.75438 0.74305 0.55391 0.0
C1477 C 0.7502 0.75073 0.58157 0.0
C1478 C 0.7602 0.71357 0.46544 0.0
C1479 C 0.76522 0.72593 0.43793 0.0
C1480 C 0.75276 0.71764 0.49393 0.0
C1481 C 0.74962 0.73372 0.49482 0.0
C1482 C 0.75425 0.74573 0.46712 0.0
C1483 C 0.76214 0.74204 0.43924 0.0
H1484 H 0.27831 0.01611 0.41283 0.0
H1485 H 0.32873 0.06311 0.46105 0.0
H1486 H 0.2713 0.99577 0.46134 0.0
H1487 H 0.32096 0.04264 0.51084 0.0
H1488 H 0.27202 1.00681 0.59551 0.0
H1489 H 0.28601 0.02723 0.54723 0.0
H1490 H 0.29054 0.98086 0.49952 0.0
H1491 H 0.27718 0.96033 0.54907 0.0
C1492 C 0.28791 0.02217 0.43388 0.0
C1493 C 0.304 0.04137 0.43321 0.0
C1494 C 0.28397 1.01036 0.4615 0.0
C1495 C 0.29569 0.01757 0.48955 0.0
C1496 C 0.31183 0.03674 0.48921 0.0
C1497 C 0.31618 0.04847 0.46096 0.0
C1498 C 0.27607 1.00088 0.5749 0.0
C1499 C 0.27326 0.9818 0.57601 0.0
C1500 C 0.28432 0.01274 0.54743 0.0
C1501 C 0.28954 1.0057 0.51996 0.0
C1502 C 0.28677 0.98663 0.52071 0.0
C1503 C 0.279 0.97486 0.54882 0.0
H1504 H 0.02407 0.26995 0.59276 0.0
H1505 H 0.07037 0.32138 0.54546 0.0
H1506 H 1.00371 0.26289 0.54425 0.0
H1507 H 0.04984 0.31361 0.49577 0.0
H1508 H 1.01415 0.2659 0.40952 0.0
H1509 H 0.03472 0.27924 0.45782 0.0
H1510 H 0.98817 0.28232 0.50794 0.0
H1511 H 0.96746 0.26961 0.4584 0.0
C1512 C 0.03004 0.27969 0.57184 0.0
C1513 C 0.04904 0.29613 0.57284 0.0
C1514 C 0.01818 0.27574 0.54426 0.0
C1515 C 0.02512 0.28782 0.51658 0.0
C1516 C 0.04414 0.3042 0.51712 0.0
C1517 C 0.05591 0.30854 0.54532 0.0
C1518 C 1.0082 0.2695 0.43066 0.0
C1519 C 0.98903 0.26648 0.43023 0.0
C1520 C 0.02015 0.27736 0.45817 0.0
C1521 C 1.01309 0.28197 0.48633 0.0
C1522 C 0.99394 0.279 0.48624 0.0
C1523 C 0.98208 0.27163 0.45812 0.0
H1524 H 0.33049 0.28616 0.44709 0.0
H1525 H 0.26987 0.24376 0.42816 0.0
H1526 H 0.32054 0.29729 0.4961 0.0
H1527 H 0.26004 0.25531 0.47526 0.0
H1528 H 0.24886 0.26422 0.57988 0.0
H1529 H 0.26027 0.25446 0.53247 0.0
H1530 H 0.30355 0.31481 0.5137 0.0
H1531 H 0.29253 0.32464 0.56299 0.0
C1532 C 0.31514 0.27904 0.45359 0.0
C1533 C 0.30103 0.26393 0.43382 0.0
C1534 C 0.3094 0.28564 0.4813 0.0
C1535 C 0.28946 0.27724 0.48971 0.0
C1536 C 0.27553 0.26196 0.47009 0.0
C1537 C 0.28122 0.25532 0.44284 0.0
C1538 C 0.26067 0.27555 0.56556 0.0
C1539 C 0.2697 0.29526 0.57527 0.0
C1540 C 0.26722 0.26991 0.53814 0.0
C1541 C 0.28285 0.28381 0.51905 0.0
C1542 C 0.29163 0.30368 0.52808 0.0
C1543 C 0.2851 0.30936 0.55595 0.0
H1544 H 0.75979 1.00491 0.59516 0.0
H1545 H 0.70931 0.95738 0.54791 0.0
H1546 H 0.76643 0.02488 0.54632 0.0
H1547 H 0.71656 0.97758 0.49795 0.0
H1548 H 0.7614 0.01292 0.41001 0.0
H1549 H 0.74855 0.99256 0.45868 0.0
H1550 H 0.74857 0.04026 0.51051 0.0
H1551 H 0.76095 0.0608 0.4608 0.0
C1552 C 0.75017 0.99859 0.57417 0.0
C1553 C 0.73415 0.97935 0.57526 0.0
C1554 C 0.75387 1.01023 0.54638 0.0
C1555 C 0.74192 1.00286 0.51858 0.0
C1556 C 0.72591 0.98361 0.5193 0.0
C1557 C 0.72185 0.97203 0.54767 0.0
C1558 C 0.75862 0.01916 0.43167 0.0
C1559 C 0.76248 0.03862 0.43172 0.0
C1560 C 0.75101 1.00734 0.45939 0.0
C1561 C 0.74747 0.01479 0.48818 0.0
C1562 C 0.75113 0.03419 0.48841 0.0
C1563 C 0.7583 0.04595 0.46017 0.0
H1564 H 0.06832 0.75234 0.55045 0.0
H1565 H 0.02074 0.75577 0.59637 0.0
H1566 H 0.0486 0.73986 0.49988 0.0
H1567 H 1.00111 0.74273 0.54696 0.0
H1568 H 0.96649 0.70184 0.45866 0.0
H1569 H 0.98615 0.70927 0.50934 0.0
H1570 H 0.03428 0.75849 0.46119 0.0
H1571 H 1.01472 0.75176 0.41166 0.0
C1572 C 0.05371 0.75032 0.54986 0.0
C1573 C 0.04624 0.75532 0.57723 0.0
C1574 C 0.04241 0.74309 0.52112 0.0
C1575 C 0.02327 0.74014 0.51982 0.0
C1576 C 1.01568 0.7446 0.54748 0.0
C1577 C 0.02708 0.7523 0.57564 0.0
C1578 C 0.98124 0.71423 0.45904 0.0
C1579 C 0.98892 0.72635 0.43132 0.0
C1580 C 0.9925 0.7184 0.48785 0.0
C1581 C 1.01179 0.73432 0.48889 0.0
C1582 C 0.01958 0.746 0.46089 0.0
C1583 C 1.00823 0.74222 0.43265 0.0
H1584 H 0.12372 0.39058 0.89836 0.0
H1585 H 0.07914 0.33293 0.92917 0.0
H1586 H 0.12008 0.37933 0.84178 0.0
H1587 H 0.0749 0.32177 0.8722 0.0
H1588 H 0.08264 0.30241 0.77183 0.0
H1589 H 0.08929 0.31401 0.82825 0.0
H1590 H 0.09853 0.37028 0.79645 0.0
H1591 H 0.09259 0.35877 0.73952 0.0
C1592 C 0.11308 0.37547 0.89303 0.0
C1593 C 0.10168 0.36264 0.9183 0.0
C1594 C 0.11089 0.36905 0.86045 0.0
C1595 C 0.0971 0.34966 0.85217 0.0
C1596 C 0.08588 0.33674 0.8776 0.0
C1597 C 0.08823 0.34312 0.91031 0.0
C1598 C 0.08623 0.31733 0.77681 0.0
C1599 C 0.08701 0.32966 0.75118 0.0
C1600 C 0.08989 0.32394 0.8093 0.0
C1601 C 0.09423 0.34303 0.81717 0.0
C1602 C 0.09545 0.35554 0.79137 0.0
C1603 C 0.09199 0.34896 0.7587 0.0
H1604 H 0.64082 0.74501 0.90321 0.0
H1605 H 0.69698 0.75457 0.93605 0.0
H1606 H 0.65287 0.75242 0.84704 0.0
H1607 H 0.70893 0.76132 0.87943 0.0
H1608 H 0.72991 0.78697 0.77832 0.0
H1609 H 0.71818 0.78335 0.83458 0.0
H1610 H 0.66091 0.73803 0.80312 0.0
H1611 H 0.67256 0.74222 0.74644 0.0
C1612 C 0.6558 0.74874 0.89841 0.0
C1613 C 0.66794 0.74914 0.92407 0.0
C1614 C 0.66266 0.75283 0.86609 0.0
C1615 C 0.6818 0.75724 0.85847 0.0
C1616 C 0.69416 0.75819 0.88435 0.0
C1617 C 0.68733 0.75429 0.91685 0.0
C1618 C 0.71475 0.77632 0.78334 0.0
C1619 C 0.70216 0.76482 0.75789 0.0
C1620 C 0.70806 0.77414 0.81572 0.0
C1621 C 0.68863 0.76028 0.82362 0.0
C1622 C 0.67591 0.74905 0.79798 0.0
C1623 C 0.68258 0.75138 0.76545 0.0
H1624 H 0.30607 0.92136 0.89652 0.0
H1625 H 0.26078 0.9319 0.93322 0.0
H1626 H 0.29865 0.92615 0.84065 0.0
H1627 H 0.25265 0.93587 0.8768 0.0
H1628 H 0.25945 0.96475 0.77668 0.0
H1629 H 0.2648 0.95793 0.83262 0.0
H1630 H 0.27634 0.91305 0.79698 0.0
H1631 H 0.27182 0.92059 0.74049 0.0
C1632 C 0.29431 0.92445 0.89262 0.0
C1633 C 0.28403 0.92629 0.91937 0.0
C1634 C 0.28994 0.92705 0.86042 0.0
C1635 C 0.27498 0.93133 0.85397 0.0
C1636 C 0.26448 0.93289 0.88077 0.0
C1637 C 0.26905 0.93053 0.91314 0.0
C1638 C 0.26306 0.95335 0.78071 0.0
C1639 C 0.26527 0.94324 0.75407 0.0
C1640 C 0.26598 0.94932 0.81296 0.0
C1641 C 0.27097 0.93489 0.81955 0.0
C1642 C 0.27283 0.9245 0.79288 0.0
C1643 C 0.27015 0.92873 0.76047 0.0
H1644 H 0.39656 0.1023 0.11079 0.0
H1645 H 0.34011 0.09093 0.07591 0.0
H1646 H 0.38489 0.09756 0.16705 0.0
H1647 H 0.32857 0.08702 0.13267 0.0
H1648 H 0.3075 0.05808 0.23275 0.0
H1649 H 0.31931 0.06497 0.17664 0.0
H1650 H 0.37574 0.11032 0.2114 0.0
H1651 H 0.36402 0.10271 0.26812 0.0
C1652 C 0.38168 0.09904 0.11518 0.0
C1653 C 0.36922 0.09692 0.08882 0.0
C1654 C 0.37502 0.09647 0.14759 0.0
C1655 C 0.35577 0.09194 0.15464 0.0
C1656 C 0.34339 0.09017 0.12823 0.0
C1657 C 0.35 0.0925 0.09566 0.0
C1658 C 0.32243 0.0696 0.2285 0.0
C1659 C 0.33485 0.07984 0.25496 0.0
C1660 C 0.32918 0.07366 0.19615 0.0
C1661 C 0.34848 0.08827 0.18924 0.0
C1662 C 0.36086 0.09875 0.21574 0.0
C1663 C 0.35415 0.09448 0.24828 0.0
H1664 H 0.9265 0.26526 0.26707 0.0
H1665 H 0.9705 0.253 0.2296 0.0
H1666 H 0.91848 0.26966 0.21082 0.0
H1667 H 0.9632 0.25822 0.17388 0.0
H1668 H 0.93655 0.2544 0.07374 0.0
H1669 H 0.94092 0.24617 0.12992 0.0
H1670 H 0.93129 0.29199 0.16723 0.0
H1671 H 0.92612 0.2995 0.11171 0.0
C1672 C 0.9345 0.26359 0.24686 0.0
C1673 C 0.94912 0.25879 0.25285 0.0
C1674 C 0.93 0.2662 0.21458 0.0
C1675 C 0.94022 0.26434 0.18761 0.0
C1676 C 0.95473 0.2594 0.19379 0.0
C1677 C 0.95903 0.25656 0.22591 0.0
C1678 C 0.93529 0.26259 0.09403 0.0
C1679 C 0.93096 0.27755 0.08822 0.0
C1680 C 0.93787 0.25797 0.12626 0.0
C1681 C 0.93644 0.26839 0.15333 0.0
C1682 C 0.93209 0.28332 0.14728 0.0
C1683 C 0.92927 0.28775 0.11526 0.0
H1684 H 0.76195 0.66509 0.27034 0.0
H1685 H 0.77311 0.72156 0.23616 0.0
H1686 H 0.75695 0.65343 0.21348 0.0
H1687 H 0.76735 0.70982 0.17998 0.0
H1688 H 0.77214 0.68932 0.07836 0.0
H1689 H 0.77986 0.70083 0.13514 0.0
H1690 H 0.73463 0.64429 0.16963 0.0
H1691 H 0.72759 0.63269 0.11332 0.0
C1692 C 0.76322 0.67496 0.25075 0.0
C1693 C 0.76798 0.69425 0.25783 0.0
C1694 C 0.76027 0.66828 0.21812 0.0
C1695 C 0.76177 0.68068 0.19191 0.0
C1696 C 0.76648 0.69994 0.19923 0.0
C1697 C 0.76964 0.70664 0.23164 0.0
C1698 C 0.76391 0.67939 0.09812 0.0
C1699 C 0.74928 0.66011 0.09127 0.0
C1700 C 0.76826 0.68597 0.13072 0.0
C1701 C 0.75787 0.6735 0.15719 0.0
C1702 C 0.74323 0.65423 0.15013 0.0
C1703 C 0.73908 0.64761 0.11768 0.0
H1704 H 0.97147 0.7235 0.2296 0.0
H1705 H 0.92746 0.66689 0.26563 0.0
H1706 H 0.96419 0.7116 0.17351 0.0
H1707 H 0.91949 0.65509 0.20902 0.0
H1708 H 0.92681 0.63391 0.10864 0.0
H1709 H 0.93221 0.64601 0.16457 0.0
H1710 H 0.94188 0.70187 0.12955 0.0
H1711 H 0.93722 0.68985 0.07291 0.0
C1712 C 0.96002 0.70853 0.22554 0.0
C1713 C 0.95009 0.69612 0.25221 0.0
C1714 C 0.95572 0.70173 0.19319 0.0
C1715 C 0.94121 0.68236 0.18646 0.0
C1716 C 0.931 0.67001 0.21316 0.0
C1717 C 0.93548 0.67678 0.24567 0.0
C1718 C 0.93003 0.64878 0.11275 0.0
C1719 C 0.93161 0.66093 0.08619 0.0
C1720 C 0.93298 0.6557 0.14503 0.0
C1721 C 0.93739 0.67492 0.15187 0.0
C1722 C 0.93877 0.68706 0.12529 0.0
C1723 C 0.93603 0.68017 0.09279 0.0
H1724 H 0.36352 0.28245 0.26442 0.0
H1725 H 0.3063 0.23706 0.23336 0.0
H1726 H 0.37481 0.2869 0.20746 0.0
H1727 H 0.31767 0.2409 0.17687 0.0
H1728 H 0.33774 0.26828 0.07455 0.0
H1729 H 0.32626 0.26223 0.13149 0.0
H1730 H 0.38309 0.27304 0.16338 0.0
H1731 H 0.39464 0.27979 0.10692 0.0
C1732 C 0.35345 0.27323 0.24552 0.0
C1733 C 0.33401 0.2595 0.25343 0.0
C1734 C 0.35991 0.2757 0.21281 0.0
C1735 C 0.34713 0.26432 0.18731 0.0
C1736 C 0.32784 0.25024 0.19555 0.0
C1737 C 0.32135 0.24793 0.22809 0.0
C1738 C 0.34767 0.26917 0.09374 0.0
C1739 C 0.36711 0.27462 0.08622 0.0
C1740 C 0.34112 0.26566 0.12644 0.0
C1741 C 0.35379 0.2673 0.15229 0.0
C1742 C 0.37303 0.2721 0.14441 0.0
C1743 C 0.37961 0.27582 0.11189 0.0
H1744 H 0.7646 0.10217 0.26875 0.0
H1745 H 0.77602 0.05752 0.23176 0.0
H1746 H 0.76004 0.10993 0.21236 0.0
H1747 H 0.77066 0.06457 0.17605 0.0
H1748 H 0.77467 0.09058 0.07561 0.0
H1749 H 0.78293 0.08658 0.13193 0.0
H1750 H 0.7376 0.09715 0.1687 0.0
H1751 H 0.73004 0.10195 0.11293 0.0
C1752 C 0.76607 0.09399 0.24864 0.0
C1753 C 0.7707 0.07928 0.25479 0.0
C1754 C 0.76336 0.09834 0.21628 0.0
C1755 C 0.76497 0.08788 0.18944 0.0
C1756 C 0.7697 0.07325 0.19582 0.0
C1757 C 0.77262 0.06909 0.22796 0.0
C1758 C 0.76656 0.09211 0.09579 0.0
C1759 C 0.75173 0.09659 0.08975 0.0
C1760 C 0.77122 0.08975 0.12812 0.0
C1761 C 0.76094 0.09154 0.15507 0.0
C1762 C 0.74614 0.09606 0.14882 0.0
C1763 C 0.74169 0.09865 0.11667 0.0
H1764 H 0.72907 0.96562 0.77659 0.0
H1765 H 0.67316 0.91952 0.74178 0.0
H1766 H 0.71714 0.95932 0.83261 0.0
H1767 H 0.66131 0.91255 0.79856 0.0
H1768 H 0.63987 0.92086 0.89856 0.0
H1769 H 0.65158 0.9253 0.84233 0.0
H1770 H 0.70845 0.93791 0.87742 0.0
H1771 H 0.69683 0.93426 0.93411 0.0
C1772 C 0.71424 0.95392 0.78093 0.0
C1773 C 0.70206 0.94306 0.75459 0.0
C1774 C 0.70743 0.95019 0.81327 0.0
C1775 C 0.68827 0.93533 0.8204 0.0
C1776 C 0.67608 0.9243 0.79406 0.0
C1777 C 0.68287 0.92821 0.76148 0.0
C1778 C 0.65489 0.92454 0.89435 0.0
C1779 C 0.66745 0.92728 0.92091 0.0
C1780 C 0.66157 0.92693 0.86194 0.0
C1781 C 0.68098 0.93193 0.85506 0.0
C1782 C 0.69349 0.93438 0.88167 0.0
C1783 C 0.68684 0.93221 0.91423 0.0
H1784 H 0.10747 0.75718 0.7427 0.0
H1785 H 0.06391 0.77037 0.7791 0.0
H1786 H 0.11549 0.75327 0.7992 0.0
H1787 H 0.07124 0.76568 0.83515 0.0
H1788 H 0.0984 0.77046 0.93561 0.0
H1789 H 0.09363 0.77796 0.87912 0.0
H1790 H 0.10265 0.73145 0.84347 0.0
H1791 H 0.10816 0.72462 0.89921 0.0
C1792 C 0.09956 0.75917 0.76272 0.0
C1793 C 0.08505 0.76406 0.75632 0.0
C1794 C 0.10406 0.75683 0.79517 0.0
C1795 C 0.09398 0.75909 0.82197 0.0
C1796 C 0.07959 0.76416 0.81539 0.0
C1797 C 0.07527 0.7667 0.78308 0.0
C1798 C 0.09943 0.76194 0.91562 0.0
C1799 C 0.10371 0.747 0.92199 0.0
C1800 C 0.09661 0.76615 0.88321 0.0
C1801 C 0.0978 0.75536 0.85649 0.0
C1802 C 0.10205 0.74041 0.8631 0.0
C1803 C 0.10506 0.73637 0.89529 0.0
H1804 H 0.26056 0.29996 0.77918 0.0
H1805 H 0.27286 0.3565 0.74339 0.0
H1806 H 0.26475 0.31167 0.83535 0.0
H1807 H 0.27628 0.36813 0.80007 0.0
H1808 H 0.2581 0.33273 0.93569 0.0
H1809 H 0.25144 0.32096 0.87886 0.0
H1810 H 0.29763 0.3772 0.84516 0.0
H1811 H 0.30362 0.38904 0.90126 0.0
C1812 C 0.26395 0.31489 0.78332 0.0
C1813 C 0.26643 0.32732 0.7567 0.0
C1814 C 0.2662 0.32157 0.8157 0.0
C1815 C 0.2708 0.34086 0.82252 0.0
C1816 C 0.27304 0.35326 0.79585 0.0
C1817 C 0.27101 0.34661 0.76331 0.0
C1818 C 0.26673 0.34255 0.91606 0.0
C1819 C 0.28134 0.36181 0.92308 0.0
C1820 C 0.263 0.33581 0.88345 0.0
C1821 C 0.27397 0.34813 0.85719 0.0
C1822 C 0.28856 0.36738 0.86444 0.0
C1823 C 0.29212 0.37414 0.89682 0.0
H1824 H 0.06258 0.43641 0.44561 0.0
H1825 H 1.00558 0.42288 0.4101 0.0
H1826 H 0.0509 0.43208 0.50189 0.0
H1827 H 0.994 0.41934 0.46677 0.0
H1828 H 0.97323 0.39124 0.5671 0.0
H1829 H 0.98536 0.3977 0.51124 0.0
H1830 H 0.04093 0.44464 0.54584 0.0
H1831 H 0.02887 0.43752 0.60252 0.0
C1832 C 0.04757 0.43274 0.44983 0.0
C1833 C 0.03497 0.42989 0.42328 0.0
C1834 C 0.0409 0.4304 0.48226 0.0
C1835 C 0.02148 0.42534 0.48912 0.0
C1836 C 1.00897 0.42289 0.46251 0.0
C1837 C 1.0156 0.425 0.42997 0.0
C1838 C 0.98805 0.40301 0.56293 0.0
C1839 C 1.00009 0.41388 0.58939 0.0
C1840 C 0.99497 0.40684 0.53067 0.0
C1841 C 1.01411 0.42181 0.52373 0.0
C1842 C 0.02618 0.43282 0.5502 0.0
C1843 C 0.01927 0.42882 0.58271 0.0
H1844 H 0.63928 0.58842 0.56482 0.0
H1845 H 0.59463 0.60003 0.60114 0.0
H1846 H 0.63198 0.59315 0.50883 0.0
H1847 H 0.58664 0.60399 0.54459 0.0
H1848 H 0.5931 0.63191 0.44381 0.0
H1849 H 0.59884 0.62563 0.49983 0.0
H1850 H 0.60956 0.58002 0.46521 0.0
H1851 H 0.60457 0.58698 0.40855 0.0
C1852 C 0.6277 0.59177 0.56083 0.0
C1853 C 0.61756 0.59388 0.58754 0.0
C1854 C 0.62339 0.59433 0.52854 0.0
C1855 C 0.60864 0.59887 0.52191 0.0
C1856 C 0.59831 0.60079 0.54867 0.0
C1857 C 0.60281 0.59844 0.58113 0.0
C1858 C 0.59663 0.62048 0.44805 0.0
C1859 C 0.59842 0.60996 0.4216 0.0
C1860 C 0.59978 0.61676 0.48038 0.0
C1861 C 0.6046 0.60225 0.48733 0.0
C1862 C 0.60616 0.59153 0.46086 0.0
C1863 C 0.60322 0.59543 0.42834 0.0
H1864 H 0.45845 0.05607 0.5671 0.0
H1865 H 0.41329 0.99845 0.59692 0.0
H1866 H 0.45519 0.04502 0.51046 0.0
H1867 H 0.40946 0.98749 0.53986 0.0
H1868 H 0.41741 0.96853 0.43939 0.0
H1869 H 0.42425 0.97991 0.49595 0.0
H1870 H 0.43352 0.03634 0.46514 0.0
H1871 H 0.42735 0.02506 0.40811 0.0
C1872 C 0.44778 0.041 0.56153 0.0
C1873 C 0.43607 0.02813 0.58652 0.0
C1874 C 0.44582 0.03471 0.52894 0.0
C1875 C 0.43196 0.0154 0.52038 0.0
C1876 C 0.42048 1.0024 0.54553 0.0
C1877 C 0.4226 1.00867 0.57827 0.0
C1878 C 0.42109 0.98345 0.44463 0.0
C1879 C 0.42177 0.9959 0.41928 0.0
C1880 C 0.42485 0.98992 0.47717 0.0
C1881 C 0.42921 1.00897 0.48533 0.0
C1882 C 0.43042 0.02163 0.45979 0.0
C1883 C 0.42685 0.01519 0.42707 0.0
H1884 H 0.62312 0.02446 0.4138 0.0
H1885 H 0.57779 0.96695 0.44373 0.0
H1886 H 0.6274 0.0353 0.47101 0.0
H1887 H 0.58149 0.97788 0.50048 0.0
H1888 H 0.60835 0.99758 0.60331 0.0
H1889 H 0.60277 0.9864 0.54616 0.0
H1890 H 0.61298 0.0431 0.51492 0.0
H1891 H 0.61923 0.05435 0.57153 0.0
C1892 C 0.61389 0.01423 0.43251 0.0
C1893 C 0.6002 0.99485 0.42419 0.0
C1894 C 0.61626 0.02043 0.46535 0.0
C1895 C 0.60484 1.00745 0.49059 0.0
C1896 C 0.59085 0.98819 0.48198 0.0
C1897 C 0.58863 0.98197 0.44929 0.0
C1898 C 0.60923 1.00755 0.58421 0.0
C1899 C 0.61436 0.02686 0.59196 0.0
C1900 C 0.60599 1.00117 0.5514 0.0
C1901 C 0.60759 0.0139 0.5257 0.0
C1902 C 0.61209 0.03301 0.53379 0.0
C1903 C 0.61552 0.03942 0.5664 0.0
H1904 H 0.97168 0.56983 0.56466 0.0
H1905 H 0.0288 0.61475 0.59711 0.0
H1906 H 0.98365 0.57354 0.50855 0.0
H1907 H 0.04069 0.61904 0.54055 0.0
H1908 H 0.06126 0.612 0.44081 0.0
H1909 H 0.04906 0.60482 0.4969 0.0
H1910 H 0.99296 0.59539 0.46357 0.0
H1911 H 1.00507 0.60189 0.40704 0.0
C1912 C 0.98684 0.58055 0.55978 0.0
C1913 C 0.9993 0.59205 0.58536 0.0
C1914 C 0.99366 0.58277 0.52749 0.0
C1915 C 1.0131 0.59671 0.51978 0.0
C1916 C 0.02569 0.60797 0.54553 0.0
C1917 C 0.01889 0.60559 0.578 0.0
C1918 C 0.04625 0.60821 0.44539 0.0
C1919 C 0.03414 0.60758 0.41947 0.0
C1920 C 0.03929 0.60425 0.47767 0.0
C1921 C 0.02008 0.59974 0.485 0.0
C1922 C 1.00778 0.59859 0.45889 0.0
C1923 C 1.0147 0.60236 0.42644 0.0
H1924 H 0.44082 0.42575 0.40828 0.0
H1925 H 0.3955 0.43586 0.44632 0.0
H1926 H 0.44926 0.42166 0.46448 0.0
H1927 H 0.40322 0.43097 0.50184 0.0
H1928 H 0.42997 0.4359 0.60166 0.0
H1929 H 0.42557 0.4439 0.5454 0.0
H1930 H 0.43734 0.39942 0.50846 0.0
H1931 H 0.44257 0.39215 0.56418 0.0
C1932 C 0.43263 0.42702 0.42859 0.0
C1933 C 0.41753 0.43116 0.42279 0.0
C1934 C 0.43737 0.42459 0.46082 0.0
C1935 C 0.42694 0.426 0.48791 0.0
C1936 C 0.4119 0.4302 0.48188 0.0
C1937 C 0.40735 0.43285 0.44984 0.0
C1938 C 0.43172 0.42795 0.58145 0.0
C1939 C 0.43661 0.4134 0.58743 0.0
C1940 C 0.42911 0.43244 0.54916 0.0
C1941 C 0.43105 0.42228 0.52218 0.0
C1942 C 0.43609 0.40785 0.52837 0.0
C1943 C 0.43894 0.40356 0.56049 0.0
loop_
_geom_bond_atom_site_label_1
_geom_bond_atom_site_label_2
_geom_bond_distance
_geom_bond_site_symmetry_2
_ccdc_geom_bond_type
C0 O2 1.247 . S
C0 O4 1.258 . S
C1 O8 1.247 . S
C1 O9 1.258 . S
O2 C0 1.247 . S
O2 Zn3 2.028 1_554 S
Zn3 O2 2.028 1_556 S
Zn3 O7 2.035 . S
Zn3 O9 2.035 . S
Zn3 O10 2.028 . S
O4 C0 1.258 . S
O4 Zn5 2.035 . S
Zn5 O4 2.035 . S
Zn5 O6 2.028 . S
Zn5 O8 2.028 1_554 S
Zn5 O11 2.035 . S
O6 Zn5 2.028 . S
O6 C12 1.232 1_554 S
O7 Zn3 2.035 . S
O7 C12 1.270 . S
O8 C1 1.247 . S
O8 Zn5 2.028 1_556 S
O9 C1 1.258 . S
O9 Zn3 2.035 . S
O10 Zn3 2.028 . S
O10 C13 1.247 1_556 S
O11 Zn5 2.035 . S
O11 C13 1.258 . S
C12 O6 1.232 1_556 S
C12 O7 1.270 . S
C13 O10 1.247 1_554 S
C13 O11 1.258 . S
C14 O16 1.247 . S
C14 O18 1.258 . S
C15 O22 1.247 . S
C15 O23 1.258 . S
O16 C14 1.247 . S
O16 Zn17 2.028 . S
Zn17 O16 2.028 . S
Zn17 O21 2.035 . S
Zn17 O23 2.035 1_556 S
Zn17 O24 2.028 . S
O18 C14 1.258 . S
O18 Zn19 2.035 1_556 S
Zn19 O18 2.035 1_554 S
Zn19 O20 2.028 . S
Zn19 O22 2.028 . S
Zn19 O25 2.035 . S
O20 Zn19 2.028 . S
O20 C26 1.247 . S
O21 Zn17 2.035 . S
O21 C26 1.258 1_556 S
O22 C15 1.247 . S
O22 Zn19 2.028 . S
O23 C15 1.258 . S
O23 Zn17 2.035 1_554 S
O24 Zn17 2.028 . S
O24 C27 1.247 . S
O25 Zn19 2.035 . S
O25 C27 1.258 1_554 S
C26 O20 1.247 . S
C26 O21 1.258 1_554 S
C27 O24 1.247 . S
C27 O25 1.258 1_556 S
C28 O30 1.232 1_556 S
C28 O32 1.270 . S
C29 O36 1.247 1_554 S
C29 O37 1.258 . S
O30 C28 1.232 1_554 S
O30 Zn31 2.028 . S
Zn31 O30 2.028 . S
Zn31 O35 2.035 . S
Zn31 O37 2.035 . S
Zn31 O38 2.028 1_554 S
O32 C28 1.270 . S
O32 Zn33 2.035 . S
Zn33 O32 2.035 . S
Zn33 O34 2.028 1_556 S
Zn33 O36 2.028 . S
Zn33 O39 2.035 . S
O34 Zn33 2.028 1_554 S
O34 C40 1.247 . S
O35 Zn31 2.035 . S
O35 C40 1.258 . S
O36 C29 1.247 1_556 S
O36 Zn33 2.028 . S
O37 C29 1.258 . S
O37 Zn31 2.035 . S
O38 Zn31 2.028 1_556 S
O38 C41 1.247 . S
O39 Zn33 2.035 . S
O39 C41 1.258 . S
C40 O34 1.247 . S
C40 O35 1.258 . S
C41 O38 1.247 . S
C41 O39 1.258 . S
C42 O44 1.247 . S
C42 O46 1.258 1_556 S
C43 O50 1.247 . S
C43 O51 1.258 1_554 S
O44 C42 1.247 . S
O44 Zn45 2.028 . S
Zn45 O44 2.028 . S
Zn45 O49 2.035 1_556 S
Zn45 O51 2.035 . S
Zn45 O52 2.028 . S
O46 C42 1.258 1_554 S
O46 Zn47 2.035 . S
Zn47 O46 2.035 . S
Zn47 O48 2.028 . S
Zn47 O50 2.028 . S
Zn47 O53 2.035 1_554 S
O48 Zn47 2.028 . S
O48 C54 1.247 . S
O49 Zn45 2.035 1_554 S
O49 C54 1.258 . S
O50 C43 1.247 . S
O50 Zn47 2.028 . S
O51 C43 1.258 1_556 S
O51 Zn45 2.035 . S
O52 Zn45 2.028 . S
O52 C55 1.247 . S
O53 Zn47 2.035 1_556 S
O53 C55 1.258 . S
C54 O48 1.247 . S
C54 O49 1.258 . S
C55 O52 1.247 . S
C55 O53 1.258 . S
C56 O58 1.247 . S
C56 O60 1.258 . S
C57 O64 1.247 . S
C57 O65 1.258 . S
O58 C56 1.247 . S
O58 Zn59 2.028 . S
Zn59 O58 2.028 . S
Zn59 O63 2.035 . S
Zn59 O65 2.035 1_554 S
Zn59 O66 2.028 . S
O60 C56 1.258 . S
O60 Zn61 2.035 1_554 S
Zn61 O60 2.035 1_556 S
Zn61 O62 2.028 . S
Zn61 O64 2.028 . S
Zn61 O67 2.035 . S
O62 Zn61 2.028 . S
O62 C68 1.247 . S
O63 Zn59 2.035 . S
O63 C68 1.258 1_554 S
O64 C57 1.247 . S
O64 Zn61 2.028 . S
O65 C57 1.258 . S
O65 Zn59 2.035 1_556 S
O66 Zn59 2.028 . S
O66 C69 1.247 . S
O67 Zn61 2.035 . S
O67 C69 1.258 1_556 S
C68 O62 1.247 . S
C68 O63 1.258 1_556 S
C69 O66 1.247 . S
C69 O67 1.258 1_554 S
C70 O72 1.247 . S
C70 O74 1.258 . S
C71 O78 1.247 . S
C71 O79 1.258 . S
O72 C70 1.247 . S
O72 Zn73 2.028 1_556 S
Zn73 O72 2.028 1_554 S
Zn73 O77 2.035 . S
Zn73 O79 2.035 . S
Zn73 O80 2.028 . S
O74 C70 1.258 . S
O74 Zn75 2.035 . S
Zn75 O74 2.035 . S
Zn75 O76 2.028 . S
Zn75 O78 2.028 1_556 S
Zn75 O81 2.035 . S
O76 Zn75 2.028 . S
O76 C82 1.232 1_556 S
O77 Zn73 2.035 . S
O77 C82 1.270 . S
O78 C71 1.247 . S
O78 Zn75 2.028 1_554 S
O79 C71 1.258 . S
O79 Zn73 2.035 . S
O80 Zn73 2.028 . S
O80 C83 1.247 1_554 S
O81 Zn75 2.035 . S
O81 C83 1.258 . S
C82 O76 1.232 1_554 S
C82 O77 1.270 . S
C83 O80 1.247 1_556 S
C83 O81 1.258 . S
C84 O86 1.247 1_556 S
C84 O88 1.258 . S
C85 O92 1.232 1_554 S
C85 O93 1.270 . S
O86 C84 1.247 1_554 S
O86 Zn87 2.028 . S
Zn87 O86 2.028 . S
Zn87 O91 2.035 . S
Zn87 O93 2.035 . S
Zn87 O94 2.028 1_554 S
O88 C84 1.258 . S
O88 Zn89 2.035 . S
Zn89 O88 2.035 . S
Zn89 O90 2.028 1_556 S
Zn89 O92 2.028 . S
Zn89 O95 2.035 . S
O90 Zn89 2.028 1_554 S
O90 C96 1.247 . S
O91 Zn87 2.035 . S
O91 C96 1.258 . S
O92 C85 1.232 1_556 S
O92 Zn89 2.028 . S
O93 C85 1.270 . S
O93 Zn87 2.035 . S
O94 Zn87 2.028 1_556 S
O94 C97 1.247 . S
O95 Zn89 2.035 . S
O95 C97 1.258 . S
C96 O90 1.247 . S
C96 O91 1.258 . S
C97 O94 1.247 . S
C97 O95 1.258 . S
C98 O100 1.247 . S
C98 O102 1.258 . S
C99 O106 1.247 . S
C99 O107 1.258 . S
O100 C98 1.247 . S
O100 Zn101 2.028 1_554 S
Zn101 O100 2.028 1_556 S
Zn101 O105 2.035 . S
Zn101 O107 2.035 . S
Zn101 O108 2.028 . S
O102 C98 1.258 . S
O102 Zn103 2.035 . S
Zn103 O102 2.035 . S
Zn103 O104 2.028 . S
Zn103 O106 2.028 1_554 S
Zn103 O109 2.035 . S
O104 Zn103 2.028 . S
O104 C110 1.247 1_554 S
O105 Zn101 2.035 . S
O105 C110 1.258 . S
O106 C99 1.247 . S
O106 Zn103 2.028 1_556 S
O107 C99 1.258 . S
O107 Zn101 2.035 . S
O108 Zn101 2.028 . S
O108 C111 1.232 1_556 S
O109 Zn103 2.035 . S
O109 C111 1.270 . S
C110 O104 1.247 1_556 S
C110 O105 1.258 . S
C111 O108 1.232 1_554 S
C111 O109 1.270 . S
C112 O114 1.247 . S
C112 O116 1.258 . S
C113 O120 1.247 . S
C113 O121 1.258 . S
O114 C112 1.247 . S
O114 Zn115 2.028 1_554 S
Zn115 O114 2.028 1_556 S
Zn115 O119 2.035 . S
Zn115 O121 2.035 . S
Zn115 O122 2.028 . S
O116 C112 1.258 . S
O116 Zn117 2.035 . S
Zn117 O116 2.035 . S
Zn117 O118 2.028 . S
Zn117 O120 2.028 1_554 S
Zn117 O123 2.035 . S
O118 Zn117 2.028 . S
O118 C124 1.247 1_554 S
O119 Zn115 2.035 . S
O119 C124 1.258 . S
O120 C113 1.247 . S
O120 Zn117 2.028 1_556 S
O121 C113 1.258 . S
O121 Zn115 2.035 . S
O122 Zn115 2.028 . S
O122 C125 1.232 1_556 S
O123 Zn117 2.035 . S
O123 C125 1.270 . S
C124 O118 1.247 1_556 S
C124 O119 1.258 . S
C125 O122 1.232 1_554 S
C125 O123 1.270 . S
C126 O128 1.247 . S
C126 O130 1.258 . S
C127 O134 1.247 . S
C127 O135 1.258 . S
O128 C126 1.247 . S
O128 Zn129 2.028 . S
Zn129 O128 2.028 . S
Zn129 O133 2.035 . S
Zn129 O135 2.035 1_554 S
Zn129 O136 2.028 . S
O130 C126 1.258 . S
O130 Zn131 2.035 1_554 S
Zn131 O130 2.035 1_556 S
Zn131 O132 2.028 . S
Zn131 O134 2.028 . S
Zn131 O137 2.035 . S
O132 Zn131 2.028 . S
O132 C138 1.247 . S
O133 Zn129 2.035 . S
O133 C138 1.258 1_554 S
O134 C127 1.247 . S
O134 Zn131 2.028 . S
O135 C127 1.258 . S
O135 Zn129 2.035 1_556 S
O136 Zn129 2.028 . S
O136 C139 1.247 . S
O137 Zn131 2.035 . S
O137 C139 1.258 1_556 S
C138 O132 1.247 . S
C138 O133 1.258 1_556 S
C139 O136 1.247 . S
C139 O137 1.258 1_554 S
C140 O142 1.247 . S
C140 O144 1.258 . S
C141 O148 1.247 . S
C141 O149 1.258 . S
O142 C140 1.247 . S
O142 Zn143 2.028 . S
Zn143 O142 2.028 . S
Zn143 O147 2.035 . S
Zn143 O149 2.035 1_554 S
Zn143 O150 2.028 . S
O144 C140 1.258 . S
O144 Zn145 2.035 1_554 S
Zn145 O144 2.035 1_556 S
Zn145 O146 2.028 . S
Zn145 O148 2.028 . S
Zn145 O151 2.035 . S
O146 Zn145 2.028 . S
O146 C152 1.247 . S
O147 Zn143 2.035 . S
O147 C152 1.258 1_554 S
O148 C141 1.247 . S
O148 Zn145 2.028 . S
O149 C141 1.258 . S
O149 Zn143 2.035 1_556 S
O150 Zn143 2.028 . S
O150 C153 1.247 . S
O151 Zn145 2.035 . S
O151 C153 1.258 1_556 S
C152 O146 1.247 . S
C152 O147 1.258 1_556 S
C153 O150 1.247 . S
C153 O151 1.258 1_554 S
C154 O156 1.247 . S
C154 O158 1.258 . S
C155 O162 1.247 . S
C155 O163 1.258 . S
O156 C154 1.247 . S
O156 Zn157 2.028 1_556 S
Zn157 O156 2.028 1_554 S
Zn157 O161 2.035 . S
Zn157 O163 2.035 . S
Zn157 O164 2.028 . S
O158 C154 1.258 . S
O158 Zn159 2.035 . S
Zn159 O158 2.035 . S
Zn159 O160 2.028 . S
Zn159 O162 2.028 1_556 S
Zn159 O165 2.035 . S
O160 Zn159 2.028 . S
O160 C166 1.247 1_556 S
O161 Zn157 2.035 . S
O161 C166 1.258 . S
O162 C155 1.247 . S
O162 Zn159 2.028 1_554 S
O163 C155 1.258 . S
O163 Zn157 2.035 . S
O164 Zn157 2.028 . S
O164 C167 1.232 1_554 S
O165 Zn159 2.035 . S
O165 C167 1.270 . S
C166 O160 1.247 1_554 S
C166 O161 1.258 . S
C167 O164 1.232 1_556 S
C167 O165 1.270 . S
C168 O170 1.247 . S
C168 O172 1.258 . S
C169 O176 1.247 . S
C169 O177 1.258 . S
O170 C168 1.247 . S
O170 Zn171 2.028 . S
Zn171 O170 2.028 . S
Zn171 O175 2.035 . S
Zn171 O177 2.035 . S
Zn171 O178 2.028 . S
O172 C168 1.258 . S
O172 Zn173 2.035 . S
Zn173 O172 2.035 . S
Zn173 O174 2.028 . S
Zn173 O176 2.028 . S
Zn173 O179 2.035 . S
O174 Zn173 2.028 . S
O174 C180 1.247 . S
O175 Zn171 2.035 . S
O175 C180 1.258 . S
O176 C169 1.247 . S
O176 Zn173 2.028 . S
O177 C169 1.258 . S
O177 Zn171 2.035 . S
O178 Zn171 2.028 . S
O178 C181 1.247 . S
O179 Zn173 2.035 . S
O179 C181 1.258 . S
C180 O174 1.247 . S
C180 O175 1.258 . S
C181 O178 1.247 . S
C181 O179 1.258 . S
C182 O184 1.247 . S
C182 O186 1.258 . S
C183 O190 1.247 . S
C183 O191 1.258 . S
O184 C182 1.247 . S
O184 Zn185 2.028 . S
Zn185 O184 2.028 . S
Zn185 O189 2.035 . S
Zn185 O191 2.035 . S
Zn185 O192 2.028 . S
O186 C182 1.258 . S
O186 Zn187 2.035 . S
Zn187 O186 2.035 . S
Zn187 O188 2.028 . S
Zn187 O190 2.028 . S
Zn187 O193 2.035 . S
O188 Zn187 2.028 . S
O188 C194 1.247 . S
O189 Zn185 2.035 . S
O189 C194 1.258 . S
O190 C183 1.247 . S
O190 Zn187 2.028 . S
O191 C183 1.258 . S
O191 Zn185 2.035 . S
O192 Zn185 2.028 . S
O192 C195 1.247 . S
O193 Zn187 2.035 . S
O193 C195 1.258 . S
C194 O188 1.247 . S
C194 O189 1.258 . S
C195 O192 1.247 . S
C195 O193 1.258 . S
C196 O198 1.247 . S
C196 O200 1.258 . S
C197 O204 1.247 . S
C197 O205 1.258 . S
O198 C196 1.247 . S
O198 Zn199 2.028 . S
Zn199 O198 2.028 . S
Zn199 O203 2.035 . S
Zn199 O205 2.035 . S
Zn199 O206 2.028 . S
O200 C196 1.258 . S
O200 Zn201 2.035 . S
Zn201 O200 2.035 . S
Zn201 O202 2.028 . S
Zn201 O204 2.028 . S
Zn201 O207 2.035 . S
O202 Zn201 2.028 . S
O202 C208 1.247 . S
O203 Zn199 2.035 . S
O203 C208 1.258 . S
O204 C197 1.247 . S
O204 Zn201 2.028 . S
O205 C197 1.258 . S
O205 Zn199 2.035 . S
O206 Zn199 2.028 . S
O206 C209 1.247 . S
O207 Zn201 2.035 . S
O207 C209 1.258 . S
C208 O202 1.247 . S
C208 O203 1.258 . S
C209 O206 1.247 . S
C209 O207 1.258 . S
C210 O212 1.247 . S
C210 O214 1.258 . S
C211 O218 1.247 . S
C211 O219 1.258 . S
O212 C210 1.247 . S
O212 Zn213 2.028 . S
Zn213 O212 2.028 . S
Zn213 O217 2.035 . S
Zn213 O219 2.035 . S
Zn213 O220 2.028 . S
O214 C210 1.258 . S
O214 Zn215 2.035 . S
Zn215 O214 2.035 . S
Zn215 O216 2.028 . S
Zn215 O218 2.028 . S
Zn215 O221 2.035 . S
O216 Zn215 2.028 . S
O216 C222 1.247 . S
O217 Zn213 2.035 . S
O217 C222 1.258 . S
O218 C211 1.247 . S
O218 Zn215 2.028 . S
O219 C211 1.258 . S
O219 Zn213 2.035 . S
O220 Zn213 2.028 . S
O220 C223 1.247 . S
O221 Zn215 2.035 . S
O221 C223 1.258 . S
C222 O216 1.247 . S
C222 O217 1.258 . S
C223 O220 1.247 . S
C223 O221 1.258 . S
C224 O226 1.247 . S
C224 O228 1.258 . S
C225 O232 1.247 . S
C225 O233 1.258 . S
O226 C224 1.247 . S
O226 Zn227 2.028 . S
Zn227 O226 2.028 . S
Zn227 O231 2.035 . S
Zn227 O233 2.035 . S
Zn227 O234 2.028 . S
O228 C224 1.258 . S
O228 Zn229 2.035 . S
Zn229 O228 2.035 . S
Zn229 O230 2.028 . S
Zn229 O232 2.028 . S
Zn229 O235 2.035 . S
O230 Zn229 2.028 . S
O230 C236 1.247 . S
O231 Zn227 2.035 . S
O231 C236 1.258 . S
O232 C225 1.247 . S
O232 Zn229 2.028 . S
O233 C225 1.258 . S
O233 Zn227 2.035 . S
O234 Zn227 2.028 . S
O234 C237 1.247 . S
O235 Zn229 2.035 . S
O235 C237 1.258 . S
C236 O230 1.247 . S
C236 O231 1.258 . S
C237 O234 1.247 . S
C237 O235 1.258 . S
C238 O240 1.247 . S
C238 O242 1.258 . S
C239 O246 1.247 . S
C239 O247 1.258 . S
O240 C238 1.247 . S
O240 Zn241 2.028 . S
Zn241 O240 2.028 . S
Zn241 O245 2.035 . S
Zn241 O247 2.035 . S
Zn241 O248 2.028 . S
O242 C238 1.258 . S
O242 Zn243 2.035 . S
Zn243 O242 2.035 . S
Zn243 O244 2.028 . S
Zn243 O246 2.028 . S
Zn243 O249 2.035 . S
O244 Zn243 2.028 . S
O244 C250 1.247 . S
O245 Zn241 2.035 . S
O245 C250 1.258 . S
O246 C239 1.247 . S
O246 Zn243 2.028 . S
O247 C239 1.258 . S
O247 Zn241 2.035 . S
O248 Zn241 2.028 . S
O248 C251 1.247 . S
O249 Zn243 2.035 . S
O249 C251 1.258 . S
C250 O244 1.247 . S
C250 O245 1.258 . S
C251 O248 1.247 . S
C251 O249 1.258 . S
C252 O254 1.247 . S
C252 O256 1.258 . S
C253 O260 1.247 . S
C253 O261 1.258 . S
O254 C252 1.247 . S
O254 Zn255 2.028 . S
Zn255 O254 2.028 . S
Zn255 O259 2.035 . S
Zn255 O261 2.035 . S
Zn255 O262 2.028 . S
O256 C252 1.258 . S
O256 Zn257 2.035 . S
Zn257 O256 2.035 . S
Zn257 O258 2.028 . S
Zn257 O260 2.028 . S
Zn257 O263 2.035 . S
O258 Zn257 2.028 . S
O258 C264 1.247 . S
O259 Zn255 2.035 . S
O259 C264 1.258 . S
O260 C253 1.247 . S
O260 Zn257 2.028 . S
O261 C253 1.258 . S
O261 Zn255 2.035 . S
O262 Zn255 2.028 . S
O262 C265 1.247 . S
O263 Zn257 2.035 . S
O263 C265 1.258 . S
C264 O258 1.247 . S
C264 O259 1.258 . S
C265 O262 1.247 . S
C265 O263 1.258 . S
C266 O268 1.247 . S
C266 O270 1.258 . S
C267 O274 1.247 . S
C267 O275 1.258 . S
O268 C266 1.247 . S
O268 Zn269 2.028 . S
Zn269 O268 2.028 . S
Zn269 O273 2.035 . S
Zn269 O275 2.035 . S
Zn269 O276 2.028 . S
O270 C266 1.258 . S
O270 Zn271 2.035 . S
Zn271 O270 2.035 . S
Zn271 O272 2.028 . S
Zn271 O274 2.028 . S
Zn271 O277 2.035 . S
O272 Zn271 2.028 . S
O272 C278 1.247 . S
O273 Zn269 2.035 . S
O273 C278 1.258 . S
O274 C267 1.247 . S
O274 Zn271 2.028 . S
O275 C267 1.258 . S
O275 Zn269 2.035 . S
O276 Zn269 2.028 . S
O276 C279 1.247 . S
O277 Zn271 2.035 . S
O277 C279 1.258 . S
C278 O272 1.247 . S
C278 O273 1.258 . S
C279 O276 1.247 . S
C279 O277 1.258 . S
C280 O282 1.247 . S
C280 O284 1.258 . S
C281 O288 1.247 . S
C281 O289 1.258 . S
O282 C280 1.247 . S
O282 Zn283 2.028 . S
Zn283 O282 2.028 . S
Zn283 O287 2.035 . S
Zn283 O289 2.035 . S
Zn283 O290 2.028 . S
O284 C280 1.258 . S
O284 Zn285 2.035 . S
Zn285 O284 2.035 . S
Zn285 O286 2.028 . S
Zn285 O288 2.028 . S
Zn285 O291 2.035 . S
O286 Zn285 2.028 . S
O286 C292 1.247 . S
O287 Zn283 2.035 . S
O287 C292 1.258 . S
O288 C281 1.247 . S
O288 Zn285 2.028 . S
O289 C281 1.258 . S
O289 Zn283 2.035 . S
O290 Zn283 2.028 . S
O290 C293 1.247 . S
O291 Zn285 2.035 . S
O291 C293 1.258 . S
C292 O286 1.247 . S
C292 O287 1.258 . S
C293 O290 1.247 . S
C293 O291 1.258 . S
C294 O296 1.247 . S
C294 O298 1.258 . S
C295 O302 1.247 . S
C295 O303 1.258 . S
O296 C294 1.247 . S
O296 Zn297 2.028 . S
Zn297 O296 2.028 . S
Zn297 O301 2.035 . S
Zn297 O303 2.035 . S
Zn297 O304 2.028 . S
O298 C294 1.258 . S
O298 Zn299 2.035 . S
Zn299 O298 2.035 . S
Zn299 O300 2.028 . S
Zn299 O302 2.028 . S
Zn299 O305 2.035 . S
O300 Zn299 2.028 . S
O300 C306 1.247 . S
O301 Zn297 2.035 . S
O301 C306 1.258 . S
O302 C295 1.247 . S
O302 Zn299 2.028 . S
O303 C295 1.258 . S
O303 Zn297 2.035 . S
O304 Zn297 2.028 . S
O304 C307 1.247 . S
O305 Zn299 2.035 . S
O305 C307 1.258 . S
C306 O300 1.247 . S
C306 O301 1.258 . S
C307 O304 1.247 . S
C307 O305 1.258 . S
C308 O310 1.247 . S
C308 O312 1.258 . S
C309 O316 1.247 . S
C309 O317 1.258 . S
O310 C308 1.247 . S
O310 Zn311 2.028 . S
Zn311 O310 2.028 . S
Zn311 O315 2.035 . S
Zn311 O317 2.035 . S
Zn311 O318 2.028 . S
O312 C308 1.258 . S
O312 Zn313 2.035 . S
Zn313 O312 2.035 . S
Zn313 O314 2.028 . S
Zn313 O316 2.028 . S
Zn313 O319 2.035 . S
O314 Zn313 2.028 . S
O314 C320 1.247 . S
O315 Zn311 2.035 . S
O315 C320 1.258 . S
O316 C309 1.247 . S
O316 Zn313 2.028 . S
O317 C309 1.258 . S
O317 Zn311 2.035 . S
O318 Zn311 2.028 . S
O318 C321 1.247 . S
O319 Zn313 2.035 . S
O319 C321 1.258 . S
C320 O314 1.247 . S
C320 O315 1.258 . S
C321 O318 1.247 . S
C321 O319 1.258 . S
C322 O324 1.247 . S
C322 O326 1.258 . S
C323 O330 1.247 . S
C323 O331 1.258 . S
O324 C322 1.247 . S
O324 Zn325 2.028 . S
Zn325 O324 2.028 . S
Zn325 O329 2.035 . S
Zn325 O331 2.035 . S
Zn325 O332 2.028 . S
O326 C322 1.258 . S
O326 Zn327 2.035 . S
Zn327 O326 2.035 . S
Zn327 O328 2.028 . S
Zn327 O330 2.028 . S
Zn327 O333 2.035 . S
O328 Zn327 2.028 . S
O328 C334 1.247 . S
O329 Zn325 2.035 . S
O329 C334 1.258 . S
O330 C323 1.247 . S
O330 Zn327 2.028 . S
O331 C323 1.258 . S
O331 Zn325 2.035 . S
O332 Zn325 2.028 . S
O332 C335 1.247 . S
O333 Zn327 2.035 . S
O333 C335 1.258 . S
C334 O328 1.247 . S
C334 O329 1.258 . S
C335 O332 1.247 . S
C335 O333 1.258 . S
C336 O338 1.247 . S
C336 O340 1.258 . S
C337 O344 1.247 . S
C337 O345 1.258 . S
O338 C336 1.247 . S
O338 Zn339 2.028 . S
Zn339 O338 2.028 . S
Zn339 O343 2.035 . S
Zn339 O345 2.035 . S
Zn339 O346 2.028 . S
O340 C336 1.258 . S
O340 Zn341 2.035 . S
Zn341 O340 2.035 . S
Zn341 O342 2.028 . S
Zn341 O344 2.028 . S
Zn341 O347 2.035 . S
O342 Zn341 2.028 . S
O342 C348 1.247 . S
O343 Zn339 2.035 . S
O343 C348 1.258 . S
O344 C337 1.247 . S
O344 Zn341 2.028 . S
O345 C337 1.258 . S
O345 Zn339 2.035 . S
O346 Zn339 2.028 . S
O346 C349 1.247 . S
O347 Zn341 2.035 . S
O347 C349 1.258 . S
C348 O342 1.247 . S
C348 O343 1.258 . S
C349 O346 1.247 . S
C349 O347 1.258 . S
C350 O352 1.247 . S
C350 O354 1.258 . S
C351 O358 1.247 . S
C351 O359 1.258 . S
O352 C350 1.247 . S
O352 Zn353 2.028 . S
Zn353 O352 2.028 . S
Zn353 O357 2.035 . S
Zn353 O359 2.035 . S
Zn353 O360 2.028 . S
O354 C350 1.258 . S
O354 Zn355 2.035 . S
Zn355 O354 2.035 . S
Zn355 O356 2.028 . S
Zn355 O358 2.028 . S
Zn355 O361 2.035 . S
O356 Zn355 2.028 . S
O356 C362 1.247 . S
O357 Zn353 2.035 . S
O357 C362 1.258 . S
O358 C351 1.247 . S
O358 Zn355 2.028 . S
O359 C351 1.258 . S
O359 Zn353 2.035 . S
O360 Zn353 2.028 . S
O360 C363 1.247 . S
O361 Zn355 2.035 . S
O361 C363 1.258 . S
C362 O356 1.247 . S
C362 O357 1.258 . S
C363 O360 1.247 . S
C363 O361 1.258 . S
C364 O366 1.247 . S
C364 O368 1.258 . S
C365 O372 1.247 . S
C365 O373 1.258 . S
O366 C364 1.247 . S
O366 Zn367 2.028 . S
Zn367 O366 2.028 . S
Zn367 O371 2.035 . S
Zn367 O373 2.035 . S
Zn367 O374 2.028 . S
O368 C364 1.258 . S
O368 Zn369 2.035 . S
Zn369 O368 2.035 . S
Zn369 O370 2.028 . S
Zn369 O372 2.028 . S
Zn369 O375 2.035 . S
O370 Zn369 2.028 . S
O370 C376 1.247 . S
O371 Zn367 2.035 . S
O371 C376 1.258 . S
O372 C365 1.247 . S
O372 Zn369 2.028 . S
O373 C365 1.258 . S
O373 Zn367 2.035 . S
O374 Zn367 2.028 . S
O374 C377 1.247 . S
O375 Zn369 2.035 . S
O375 C377 1.258 . S
C376 O370 1.247 . S
C376 O371 1.258 . S
C377 O374 1.247 . S
C377 O375 1.258 . S
C378 O380 1.247 . S
C378 O382 1.258 . S
C379 O386 1.247 . S
C379 O387 1.258 . S
O380 C378 1.247 . S
O380 Zn381 2.028 . S
Zn381 O380 2.028 . S
Zn381 O385 2.035 . S
Zn381 O387 2.035 . S
Zn381 O388 2.028 . S
O382 C378 1.258 . S
O382 Zn383 2.035 . S
Zn383 O382 2.035 . S
Zn383 O384 2.028 . S
Zn383 O386 2.028 . S
Zn383 O389 2.035 . S
O384 Zn383 2.028 . S
O384 C390 1.247 . S
O385 Zn381 2.035 . S
O385 C390 1.258 . S
O386 C379 1.247 . S
O386 Zn383 2.028 . S
O387 C379 1.258 . S
O387 Zn381 2.035 . S
O388 Zn381 2.028 . S
O388 C391 1.247 . S
O389 Zn383 2.035 . S
O389 C391 1.258 . S
C390 O384 1.247 . S
C390 O385 1.258 . S
C391 O388 1.247 . S
C391 O389 1.258 . S
C392 O394 1.247 . S
C392 O396 1.258 . S
C393 O400 1.247 . S
C393 O401 1.258 . S
O394 C392 1.247 . S
O394 Zn395 2.028 . S
Zn395 O394 2.028 . S
Zn395 O399 2.035 . S
Zn395 O401 2.035 . S
Zn395 O402 2.028 . S
O396 C392 1.258 . S
O396 Zn397 2.035 . S
Zn397 O396 2.035 . S
Zn397 O398 2.028 . S
Zn397 O400 2.028 . S
Zn397 O403 2.035 . S
O398 Zn397 2.028 . S
O398 C404 1.247 . S
O399 Zn395 2.035 . S
O399 C404 1.258 . S
O400 C393 1.247 . S
O400 Zn397 2.028 . S
O401 C393 1.258 . S
O401 Zn395 2.035 . S
O402 Zn395 2.028 . S
O402 C405 1.247 . S
O403 Zn397 2.035 . S
O403 C405 1.258 . S
C404 O398 1.247 . S
C404 O399 1.258 . S
C405 O402 1.247 . S
C405 O403 1.258 . S
C406 O408 1.247 . S
C406 O410 1.258 . S
C407 O414 1.247 . S
C407 O415 1.258 . S
O408 C406 1.247 . S
O408 Zn409 2.028 . S
Zn409 O408 2.028 . S
Zn409 O413 2.035 . S
Zn409 O415 2.035 . S
Zn409 O416 2.028 . S
O410 C406 1.258 . S
O410 Zn411 2.035 . S
Zn411 O410 2.035 . S
Zn411 O412 2.028 . S
Zn411 O414 2.028 . S
Zn411 O417 2.035 . S
O412 Zn411 2.028 . S
O412 C418 1.247 . S
O413 Zn409 2.035 . S
O413 C418 1.258 . S
O414 C407 1.247 . S
O414 Zn411 2.028 . S
O415 C407 1.258 . S
O415 Zn409 2.035 . S
O416 Zn409 2.028 . S
O416 C419 1.247 . S
O417 Zn411 2.035 . S
O417 C419 1.258 . S
C418 O412 1.247 . S
C418 O413 1.258 . S
C419 O416 1.247 . S
C419 O417 1.258 . S
C420 O422 1.247 . S
C420 O424 1.258 . S
C421 O428 1.247 . S
C421 O429 1.258 . S
O422 C420 1.247 . S
O422 Zn423 2.028 . S
Zn423 O422 2.028 . S
Zn423 O427 2.035 . S
Zn423 O429 2.035 . S
Zn423 O430 2.028 . S
O424 C420 1.258 . S
O424 Zn425 2.035 . S
Zn425 O424 2.035 . S
Zn425 O426 2.028 . S
Zn425 O428 2.028 . S
Zn425 O431 2.035 . S
O426 Zn425 2.028 . S
O426 C432 1.247 . S
O427 Zn423 2.035 . S
O427 C432 1.258 . S
O428 C421 1.247 . S
O428 Zn425 2.028 . S
O429 C421 1.258 . S
O429 Zn423 2.035 . S
O430 Zn423 2.028 . S
O430 C433 1.247 . S
O431 Zn425 2.035 . S
O431 C433 1.258 . S
C432 O426 1.247 . S
C432 O427 1.258 . S
C433 O430 1.247 . S
C433 O431 1.258 . S
C434 O436 1.247 . S
C434 O438 1.258 . S
C435 O442 1.247 . S
C435 O443 1.258 . S
O436 C434 1.247 . S
O436 Zn437 2.028 . S
Zn437 O436 2.028 . S
Zn437 O441 2.035 . S
Zn437 O443 2.035 . S
Zn437 O444 2.028 . S
O438 C434 1.258 . S
O438 Zn439 2.035 . S
Zn439 O438 2.035 . S
Zn439 O440 2.028 . S
Zn439 O442 2.028 . S
Zn439 O445 2.035 . S
O440 Zn439 2.028 . S
O440 C446 1.247 . S
O441 Zn437 2.035 . S
O441 C446 1.258 . S
O442 C435 1.247 . S
O442 Zn439 2.028 . S
O443 C435 1.258 . S
O443 Zn437 2.035 . S
O444 Zn437 2.028 . S
O444 C447 1.247 . S
O445 Zn439 2.035 . S
O445 C447 1.258 . S
C446 O440 1.247 . S
C446 O441 1.258 . S
C447 O444 1.247 . S
C447 O445 1.258 . S
C448 O450 1.247 . S
C448 O452 1.258 . S
C449 O456 1.247 . S
C449 O457 1.258 . S
O450 C448 1.247 . S
O450 Zn451 2.028 . S
Zn451 O450 2.028 . S
Zn451 O455 2.035 . S
Zn451 O457 2.035 . S
Zn451 O458 2.028 . S
O452 C448 1.258 . S
O452 Zn453 2.035 . S
Zn453 O452 2.035 . S
Zn453 O454 2.028 . S
Zn453 O456 2.028 . S
Zn453 O459 2.035 . S
O454 Zn453 2.028 . S
O454 C460 1.247 . S
O455 Zn451 2.035 . S
O455 C460 1.258 . S
O456 C449 1.247 . S
O456 Zn453 2.028 . S
O457 C449 1.258 . S
O457 Zn451 2.035 . S
O458 Zn451 2.028 . S
O458 C461 1.247 . S
O459 Zn453 2.035 . S
O459 C461 1.258 . S
C460 O454 1.247 . S
C460 O455 1.258 . S
C461 O458 1.247 . S
C461 O459 1.258 . S
C462 O464 1.247 . S
C462 O466 1.258 . S
C463 O470 1.247 . S
C463 O471 1.258 . S
O464 C462 1.247 . S
O464 Zn465 2.028 . S
Zn465 O464 2.028 . S
Zn465 O469 2.035 . S
Zn465 O471 2.035 . S
Zn465 O472 2.028 . S
O466 C462 1.258 . S
O466 Zn467 2.035 . S
Zn467 O466 2.035 . S
Zn467 O468 2.028 . S
Zn467 O470 2.028 . S
Zn467 O473 2.035 . S
O468 Zn467 2.028 . S
O468 C474 1.247 . S
O469 Zn465 2.035 . S
O469 C474 1.258 . S
O470 C463 1.247 . S
O470 Zn467 2.028 . S
O471 C463 1.258 . S
O471 Zn465 2.035 . S
O472 Zn465 2.028 . S
O472 C475 1.247 . S
O473 Zn467 2.035 . S
O473 C475 1.258 . S
C474 O468 1.247 . S
C474 O469 1.258 . S
C475 O472 1.247 . S
C475 O473 1.258 . S
C476 O478 1.247 . S
C476 O480 1.258 . S
C477 O484 1.247 . S
C477 O485 1.258 . S
O478 C476 1.247 . S
O478 Zn479 2.028 . S
Zn479 O478 2.028 . S
Zn479 O483 2.035 . S
Zn479 O485 2.035 . S
Zn479 O486 2.028 . S
O480 C476 1.258 . S
O480 Zn481 2.035 . S
Zn481 O480 2.035 . S
Zn481 O482 2.028 . S
Zn481 O484 2.028 . S
Zn481 O487 2.035 . S
O482 Zn481 2.028 . S
O482 C488 1.247 . S
O483 Zn479 2.035 . S
O483 C488 1.258 . S
O484 C477 1.247 . S
O484 Zn481 2.028 . S
O485 C477 1.258 . S
O485 Zn479 2.035 . S
O486 Zn479 2.028 . S
O486 C489 1.247 . S
O487 Zn481 2.035 . S
O487 C489 1.258 . S
C488 O482 1.247 . S
C488 O483 1.258 . S
C489 O486 1.247 . S
C489 O487 1.258 . S
C490 O492 1.247 . S
C490 O494 1.258 . S
C491 O498 1.247 . S
C491 O499 1.258 . S
O492 C490 1.247 . S
O492 Zn493 2.028 . S
Zn493 O492 2.028 . S
Zn493 O497 2.035 . S
Zn493 O499 2.035 . S
Zn493 O500 2.028 . S
O494 C490 1.258 . S
O494 Zn495 2.035 . S
Zn495 O494 2.035 . S
Zn495 O496 2.028 . S
Zn495 O498 2.028 . S
Zn495 O501 2.035 . S
O496 Zn495 2.028 . S
O496 C502 1.247 . S
O497 Zn493 2.035 . S
O497 C502 1.258 . S
O498 C491 1.247 . S
O498 Zn495 2.028 . S
O499 C491 1.258 . S
O499 Zn493 2.035 . S
O500 Zn493 2.028 . S
O500 C503 1.247 . S
O501 Zn495 2.035 . S
O501 C503 1.258 . S
C502 O496 1.247 . S
C502 O497 1.258 . S
C503 O500 1.247 . S
C503 O501 1.258 . S
H504 C512 0.950 . S
H505 C517 0.950 . S
H506 C514 0.950 . S
H507 C516 0.950 . S
H508 C518 0.950 . S
H509 C520 0.950 . S
H510 C522 0.950 . S
H511 C523 0.950 . S
C512 H504 0.950 . S
C512 C513 1.386 1_554 S
C512 C514 1.391 . S
C513 C512 1.386 1_556 S
C513 C517 1.393 . S
C514 H506 0.950 . S
C514 C512 1.391 . S
C514 C515 1.394 1_554 S
C515 C514 1.394 1_556 S
C515 C516 1.404 . S
C515 C521 1.490 1_656 S
C516 H507 0.950 . S
C516 C515 1.404 . S
C516 C517 1.391 . S
C517 H505 0.950 . S
C517 C513 1.393 . S
C517 C516 1.391 . S
C518 H508 0.950 . S
C518 C519 1.386 1_556 S
C518 C520 1.391 . S
C519 C518 1.386 1_554 S
C519 C523 1.393 . S
C520 H509 0.950 . S
C520 C518 1.391 . S
C520 C521 1.399 1_556 S
C521 C515 1.490 1_454 S
C521 C520 1.399 1_554 S
C521 C522 1.399 . S
C522 H510 0.950 . S
C522 C521 1.399 . S
C522 C523 1.391 . S
C523 H511 0.950 . S
C523 C519 1.393 . S
C523 C522 1.391 . S
H524 C532 0.950 . S
H525 C537 0.950 . S
H526 C534 0.950 . S
H527 C536 0.950 . S
H528 C538 0.950 . S
H529 C540 0.950 . S
H530 C542 0.950 . S
H531 C543 0.950 . S
C532 H524 0.950 . S
C532 C533 1.386 1_554 S
C532 C534 1.391 . S
C533 C532 1.386 1_556 S
C533 C537 1.393 . S
C534 H526 0.950 . S
C534 C532 1.391 . S
C534 C535 1.395 1_554 S
C535 C534 1.395 1_556 S
C535 C536 1.404 . S
C535 C541 1.490 1_556 S
C536 H527 0.950 . S
C536 C535 1.404 . S
C536 C537 1.391 . S
C537 H525 0.950 . S
C537 C533 1.393 . S
C537 C536 1.391 . S
C538 H528 0.950 . S
C538 C539 1.386 1_556 S
C538 C540 1.391 . S
C539 C538 1.386 1_554 S
C539 C543 1.393 . S
C540 H529 0.950 . S
C540 C538 1.391 . S
C540 C541 1.400 1_556 S
C541 C535 1.490 1_554 S
C541 C540 1.400 1_554 S
C541 C542 1.399 . S
C542 H530 0.950 . S
C542 C541 1.399 . S
C542 C543 1.391 . S
C543 H531 0.950 . S
C543 C539 1.393 . S
C543 C542 1.391 . S
H544 C552 0.950 . S
H545 C557 0.950 . S
H546 C554 0.950 . S
H547 C556 0.950 . S
H548 C558 0.950 . S
H549 C560 0.950 . S
H550 C562 0.950 . S
H551 C563 0.950 . S
C552 H544 0.950 . S
C552 C553 1.386 1_554 S
C552 C554 1.391 . S
C553 C552 1.386 1_556 S
C553 C557 1.393 . S
C554 H546 0.950 . S
C554 C552 1.391 . S
C554 C555 1.400 1_554 S
C555 C554 1.400 1_556 S
C555 C556 1.399 . S
C555 C561 1.491 1_545 S
C556 H547 0.950 . S
C556 C555 1.399 . S
C556 C557 1.391 . S
C557 H545 0.950 . S
C557 C553 1.393 . S
C557 C556 1.391 . S
C558 H548 0.950 . S
C558 C559 1.386 1_556 S
C558 C560 1.391 . S
C559 C558 1.386 1_554 S
C559 C563 1.393 . S
C560 H549 0.950 . S
C560 C558 1.391 . S
C560 C561 1.400 . S
C561 C555 1.491 1_565 S
C561 C560 1.400 . S
C561 C562 1.399 1_556 S
C562 H550 0.950 . S
C562 C561 1.399 1_554 S
C562 C563 1.391 . S
C563 H551 0.950 . S
C563 C559 1.393 . S
C563 C562 1.391 . S
H564 C572 0.950 . S
H565 C577 0.950 . S
H566 C574 0.950 . S
H567 C576 0.950 . S
H568 C578 0.950 . S
H569 C580 0.950 . S
H570 C582 0.950 . S
H571 C583 0.950 . S
C572 H564 0.950 . S
C572 C573 1.386 1_556 S
C572 C574 1.391 . S
C573 C572 1.386 1_554 S
C573 C577 1.393 . S
C574 H566 0.950 . S
C574 C572 1.391 . S
C574 C575 1.372 1_556 S
C575 C574 1.372 1_554 S
C575 C576 1.428 . S
C575 C581 1.489 1_454 S
C576 H567 0.950 . S
C576 C575 1.428 . S
C576 C577 1.391 . S
C577 H565 0.950 . S
C577 C573 1.393 . S
C577 C576 1.391 . S
C578 H568 0.950 . S
C578 C579 1.386 1_554 S
C578 C580 1.391 . S
C579 C578 1.386 1_556 S
C579 C583 1.393 . S
C580 H569 0.950 . S
C580 C578 1.391 . S
C580 C581 1.379 1_554 S
C581 C575 1.489 1_656 S
C581 C580 1.379 1_556 S
C581 C582 1.421 . S
C582 H570 0.950 . S
C582 C581 1.421 . S
C582 C583 1.391 . S
C583 H571 0.950 . S
C583 C579 1.393 . S
C583 C582 1.391 . S
H584 C592 0.950 . S
H585 C597 0.950 . S
H586 C594 0.950 . S
H587 C596 0.950 . S
H588 C598 0.950 . S
H589 C600 0.950 . S
H590 C602 0.950 . S
H591 C603 0.950 . S
C592 H584 0.950 . S
C592 C593 1.386 1_554 S
C592 C594 1.391 . S
C593 C592 1.386 1_556 S
C593 C597 1.393 . S
C594 H586 0.950 . S
C594 C592 1.391 . S
C594 C595 1.391 1_554 S
C595 C594 1.391 1_556 S
C595 C596 1.407 . S
C595 C601 1.490 1_556 S
C596 H587 0.950 . S
C596 C595 1.407 . S
C596 C597 1.391 . S
C597 H585 0.950 . S
C597 C593 1.393 . S
C597 C596 1.391 . S
C598 H588 0.950 . S
C598 C599 1.386 1_556 S
C598 C600 1.391 . S
C599 C598 1.386 1_554 S
C599 C603 1.393 . S
C600 H589 0.950 . S
C600 C598 1.391 . S
C600 C601 1.397 1_556 S
C601 C595 1.490 1_554 S
C601 C600 1.397 1_554 S
C601 C602 1.402 . S
C602 H590 0.950 . S
C602 C601 1.402 . S
C602 C603 1.391 . S
C603 H591 0.950 . S
C603 C599 1.393 . S
C603 C602 1.391 . S
H604 C612 0.950 . S
H605 C617 0.950 . S
H606 C614 0.950 . S
H607 C616 0.950 . S
H608 C618 0.950 . S
H609 C620 0.950 . S
H610 C622 0.950 . S
H611 C623 0.950 . S
C612 H604 0.950 . S
C612 C613 1.386 1_556 S
C612 C614 1.391 . S
C613 C612 1.386 1_554 S
C613 C617 1.393 . S
C614 H606 0.950 . S
C614 C612 1.391 . S
C614 C615 1.400 1_556 S
C615 C614 1.400 1_554 S
C615 C616 1.398 . S
C615 C621 1.491 1_564 S
C616 H607 0.950 . S
C616 C615 1.398 . S
C616 C617 1.391 . S
C617 H605 0.950 . S
C617 C613 1.393 . S
C617 C616 1.391 . S
C618 H608 0.950 . S
C618 C619 1.386 1_554 S
C618 C620 1.391 . S
C619 C618 1.386 1_556 S
C619 C623 1.393 . S
C620 H609 0.950 . S
C620 C618 1.391 . S
C620 C621 1.400 1_554 S
C621 C615 1.491 1_546 S
C621 C620 1.400 1_556 S
C621 C622 1.398 . S
C622 H610 0.950 . S
C622 C621 1.398 . S
C622 C623 1.391 . S
C623 H611 0.950 . S
C623 C619 1.393 . S
C623 C622 1.391 . S
H624 C632 0.950 . S
H625 C637 0.950 . S
H626 C634 0.950 . S
H627 C636 0.950 . S
H628 C638 0.950 . S
H629 C640 0.950 . S
H630 C642 0.950 . S
H631 C643 0.950 . S
C632 H624 0.950 . S
C632 C633 1.386 . S
C632 C634 1.391 . S
C633 C632 1.386 . S
C633 C637 1.393 . S
C634 H626 0.950 . S
C634 C632 1.391 . S
C634 C635 1.400 . S
C635 C634 1.400 . S
C635 C636 1.398 . S
C635 C641 1.491 . S
C636 H627 0.950 . S
C636 C635 1.398 . S
C636 C637 1.391 . S
C637 H625 0.950 . S
C637 C633 1.393 . S
C637 C636 1.391 . S
C638 H628 0.950 . S
C638 C639 1.386 . S
C638 C640 1.391 . S
C639 C638 1.386 . S
C639 C643 1.393 . S
C640 H629 0.950 . S
C640 C638 1.391 . S
C640 C641 1.400 . S
C641 C635 1.491 . S
C641 C640 1.400 . S
C641 C642 1.398 . S
C642 H630 0.950 . S
C642 C641 1.398 . S
C642 C643 1.391 . S
C643 H631 0.950 . S
C643 C639 1.393 . S
C643 C642 1.391 . S
H644 C652 0.950 . S
H645 C657 0.950 . S
H646 C654 0.950 . S
H647 C656 0.950 . S
H648 C658 0.950 . S
H649 C660 0.950 . S
H650 C662 0.950 1_545 S
H651 C663 0.950 . S
C652 H644 0.950 . S
C652 C653 1.386 . S
C652 C654 1.391 . S
C653 C652 1.386 . S
C653 C657 1.393 . S
C654 H646 0.950 . S
C654 C652 1.391 . S
C654 C655 1.400 . S
C655 C654 1.400 . S
C655 C656 1.398 . S
C655 C661 1.491 . S
C656 H647 0.950 . S
C656 C655 1.398 . S
C656 C657 1.391 . S
C657 H645 0.950 . S
C657 C653 1.393 . S
C657 C656 1.391 . S
C658 H648 0.950 . S
C658 C659 1.390 . S
C658 C660 1.391 . S
C659 C658 1.390 . S
C659 C663 1.393 1_565 S
C660 H649 0.950 . S
C660 C658 1.391 . S
C660 C661 1.400 . S
C661 C655 1.491 . S
C661 C660 1.400 . S
C661 C662 1.439 . S
C662 H650 0.950 1_565 S
C662 C661 1.439 . S
C662 C663 1.351 1_565 S
C663 H651 0.950 . S
C663 C659 1.393 1_545 S
C663 C662 1.351 1_545 S
H664 C672 0.950 . S
H665 C677 0.950 . S
H666 C674 0.930 1_655 S
H667 C676 0.950 . S
H668 C678 0.950 . S
H669 C680 0.950 . S
H670 C682 0.950 . S
H671 C683 0.950 . S
C672 H664 0.950 . S
C672 C673 1.378 1_655 S
C672 C674 1.391 1_655 S
C673 C672 1.378 1_455 S
C673 C677 1.401 . S
C674 H666 0.930 1_455 S
C674 C672 1.391 1_455 S
C674 C675 1.419 . S
C675 C674 1.419 . S
C675 C676 1.398 . S
C675 C681 1.491 . S
C676 H667 0.950 . S
C676 C675 1.398 . S
C676 C677 1.391 . S
C677 H665 0.950 . S
C677 C673 1.401 . S
C677 C676 1.391 . S
C678 H668 0.950 . S
C678 C679 1.386 . S
C678 C680 1.391 . S
C679 C678 1.386 . S
C679 C683 1.393 . S
C680 H669 0.950 . S
C680 C678 1.391 . S
C680 C681 1.400 . S
C681 C675 1.491 . S
C681 C680 1.400 . S
C681 C682 1.398 . S
C682 H670 0.950 . S
C682 C681 1.398 . S
C682 C683 1.391 . S
C683 H671 0.950 . S
C683 C679 1.393 . S
C683 C682 1.391 . S
H684 C692 0.950 . S
H685 C697 0.950 . S
H686 C694 0.950 . S
H687 C696 0.950 . S
H688 C698 0.950 . S
H689 C700 0.950 . S
H690 C702 0.950 1_545 S
H691 C703 0.950 . S
C692 H684 0.950 . S
C692 C693 1.386 . S
C692 C694 1.391 . S
C693 C692 1.386 . S
C693 C697 1.393 . S
C694 H686 0.950 . S
C694 C692 1.391 . S
C694 C695 1.400 . S
C695 C694 1.400 . S
C695 C696 1.398 . S
C695 C701 1.491 . S
C696 H687 0.950 . S
C696 C695 1.398 . S
C696 C697 1.391 . S
C697 H685 0.950 . S
C697 C693 1.393 . S
C697 C696 1.391 . S
C698 H688 0.950 . S
C698 C699 1.377 1_565 S
C698 C700 1.391 . S
C699 C698 1.377 1_545 S
C699 C703 1.401 . S
C700 H689 0.950 . S
C700 C698 1.391 . S
C700 C701 1.400 . S
C701 C695 1.491 . S
C701 C700 1.400 . S
C701 C702 1.398 . S
C702 H690 0.950 1_565 S
C702 C701 1.398 . S
C702 C703 1.391 1_565 S
C703 H691 0.950 . S
C703 C699 1.401 . S
C703 C702 1.391 1_545 S
H704 C712 0.950 . S
H705 C717 0.950 . S
H706 C714 0.950 . S
H707 C716 0.950 . S
H708 C718 0.950 . S
H709 C720 0.950 . S
H710 C722 0.950 . S
H711 C723 0.950 . S
C712 H704 0.950 . S
C712 C713 1.370 1_455 S
C712 C714 1.391 . S
C713 C712 1.370 1_655 S
C713 C717 1.386 . S
C714 H706 0.950 . S
C714 C712 1.391 . S
C714 C715 1.400 . S
C715 C714 1.400 . S
C715 C716 1.398 . S
C715 C721 1.491 . S
C716 H707 0.950 . S
C716 C715 1.398 . S
C716 C717 1.391 1_455 S
C717 H705 0.950 . S
C717 C713 1.386 . S
C717 C716 1.391 1_655 S
C718 H708 0.950 . S
C718 C719 1.386 . S
C718 C720 1.391 . S
C719 C718 1.386 . S
C719 C723 1.393 . S
C720 H709 0.950 . S
C720 C718 1.391 . S
C720 C721 1.400 . S
C721 C715 1.491 . S
C721 C720 1.400 . S
C721 C722 1.398 . S
C722 H710 0.950 . S
C722 C721 1.398 . S
C722 C723 1.391 . S
C723 H711 0.950 . S
C723 C719 1.393 . S
C723 C722 1.391 . S
H724 C732 0.950 . S
H725 C737 0.950 . S
H726 C734 0.950 . S
H727 C736 0.950 . S
H728 C738 0.950 . S
H729 C740 0.950 . S
H730 C742 0.950 . S
H731 C743 0.950 . S
C732 H724 0.950 . S
C732 C733 1.386 . S
C732 C734 1.391 . S
C733 C732 1.386 . S
C733 C737 1.393 . S
C734 H726 0.950 . S
C734 C732 1.391 . S
C734 C735 1.400 . S
C735 C734 1.400 . S
C735 C736 1.398 . S
C735 C741 1.491 . S
C736 H727 0.950 . S
C736 C735 1.398 . S
C736 C737 1.391 . S
C737 H725 0.950 . S
C737 C733 1.393 . S
C737 C736 1.391 . S
C738 H728 0.950 . S
C738 C739 1.386 . S
C738 C740 1.391 . S
C739 C738 1.386 . S
C739 C743 1.393 . S
C740 H729 0.950 . S
C740 C738 1.391 . S
C740 C741 1.400 . S
C741 C735 1.491 . S
C741 C740 1.400 . S
C741 C742 1.398 . S
C742 H730 0.950 . S
C742 C741 1.398 . S
C742 C743 1.391 . S
C743 H731 0.950 . S
C743 C739 1.393 . S
C743 C742 1.391 . S
H744 C752 0.950 . S
H745 C757 0.950 . S
H746 C754 0.950 1_565 S
H747 C756 0.950 . S
H748 C758 0.950 . S
H749 C760 0.950 . S
H750 C762 0.950 . S
H751 C763 0.950 . S
C752 H744 0.950 . S
C752 C753 1.366 1_565 S
C752 C754 1.391 1_565 S
C753 C752 1.366 1_545 S
C753 C757 1.413 . S
C754 H746 0.950 1_545 S
C754 C752 1.391 1_545 S
C754 C755 1.400 . S
C755 C754 1.400 . S
C755 C756 1.398 . S
C755 C761 1.491 . S
C756 H747 0.950 . S
C756 C755 1.398 . S
C756 C757 1.391 . S
C757 H745 0.950 . S
C757 C753 1.413 . S
C757 C756 1.391 . S
C758 H748 0.950 . S
C758 C759 1.386 . S
C758 C760 1.391 . S
C759 C758 1.386 . S
C759 C763 1.393 . S
C760 H749 0.950 . S
C760 C758 1.391 . S
C760 C761 1.400 . S
C761 C755 1.491 . S
C761 C760 1.400 . S
C761 C762 1.398 . S
C762 H750 0.950 . S
C762 C761 1.398 . S
C762 C763 1.391 . S
C763 H751 0.950 . S
C763 C759 1.393 . S
C763 C762 1.391 . S
H764 C772 0.950 . S
H765 C777 0.950 . S
H766 C774 0.950 . S
H767 C776 0.950 . S
H768 C778 0.950 1_455 S
H769 C780 0.950 . S
H770 C782 0.950 . S
H771 C783 0.950 . S
C772 H764 0.950 . S
C772 C773 1.386 . S
C772 C774 1.391 . S
C773 C772 1.386 . S
C773 C777 1.393 . S
C774 H766 0.950 . S
C774 C772 1.391 . S
C774 C775 1.400 . S
C775 C774 1.400 . S
C775 C776 1.398 . S
C775 C781 1.491 . S
C776 H767 0.950 . S
C776 C775 1.398 . S
C776 C777 1.391 . S
C777 H765 0.950 . S
C777 C773 1.393 . S
C777 C776 1.391 . S
C778 H768 0.950 1_655 S
C778 C779 1.378 1_655 S
C778 C780 1.391 . S
C779 C778 1.378 1_455 S
C779 C783 1.377 1_455 S
C780 H769 0.950 . S
C780 C778 1.391 . S
C780 C781 1.400 . S
C781 C775 1.491 . S
C781 C780 1.400 . S
C781 C782 1.398 . S
C782 H770 0.950 . S
C782 C781 1.398 . S
C782 C783 1.391 . S
C783 H771 0.950 . S
C783 C779 1.377 1_655 S
C783 C782 1.391 . S
H784 C792 0.950 . S
H785 C797 0.950 . S
H786 C794 0.950 . S
H787 C796 0.950 . S
H788 C798 0.950 . S
H789 C800 0.950 . S
H790 C802 0.950 . S
H791 C803 0.950 . S
C792 H784 0.950 . S
C792 C793 1.386 . S
C792 C794 1.391 . S
C793 C792 1.386 . S
C793 C797 1.393 . S
C794 H786 0.950 . S
C794 C792 1.391 . S
C794 C795 1.400 . S
C795 C794 1.400 . S
C795 C796 1.398 . S
C795 C801 1.491 . S
C796 H787 0.950 . S
C796 C795 1.398 . S
C796 C797 1.391 . S
C797 H785 0.950 . S
C797 C793 1.393 . S
C797 C796 1.391 . S
C798 H788 0.950 . S
C798 C799 1.386 . S
C798 C800 1.391 . S
C799 C798 1.386 . S
C799 C803 1.393 . S
C800 H789 0.950 . S
C800 C798 1.391 . S
C800 C801 1.400 . S
C801 C795 1.491 . S
C801 C800 1.400 . S
C801 C802 1.398 . S
C802 H790 0.950 . S
C802 C801 1.398 . S
C802 C803 1.391 . S
C803 H791 0.950 . S
C803 C799 1.393 . S
C803 C802 1.391 . S
H804 C812 0.950 . S
H805 C817 0.950 . S
H806 C814 0.950 . S
H807 C816 0.950 . S
H808 C818 0.950 . S
H809 C820 0.950 . S
H810 C822 0.950 . S
H811 C823 0.950 . S
C812 H804 0.950 . S
C812 C813 1.386 . S
C812 C814 1.391 . S
C813 C812 1.386 . S
C813 C817 1.393 . S
C814 H806 0.950 . S
C814 C812 1.391 . S
C814 C815 1.400 . S
C815 C814 1.400 . S
C815 C816 1.398 . S
C815 C821 1.491 . S
C816 H807 0.950 . S
C816 C815 1.398 . S
C816 C817 1.391 . S
C817 H805 0.950 . S
C817 C813 1.393 . S
C817 C816 1.391 . S
C818 H808 0.950 . S
C818 C819 1.386 . S
C818 C820 1.391 . S
C819 C818 1.386 . S
C819 C823 1.393 . S
C820 H809 0.950 . S
C820 C818 1.391 . S
C820 C821 1.400 . S
C821 C815 1.491 . S
C821 C820 1.400 . S
C821 C822 1.398 . S
C822 H810 0.950 . S
C822 C821 1.398 . S
C822 C823 1.391 . S
C823 H811 0.950 . S
C823 C819 1.393 . S
C823 C822 1.391 . S
H824 C832 0.950 . S
H825 C837 0.950 . S
H826 C834 0.950 . S
H827 C836 0.950 . S
H828 C838 0.950 . S
H829 C840 0.950 . S
H830 C842 0.950 . S
H831 C843 0.950 . S
C832 H824 0.950 . S
C832 C833 1.413 . S
C832 C834 1.391 . S
C833 C832 1.413 . S
C833 C837 1.412 . S
C834 H826 0.950 . S
C834 C832 1.391 . S
C834 C835 1.400 . S
C835 C834 1.400 . S
C835 C836 1.398 . S
C835 C841 1.491 . S
C836 H827 0.950 . S
C836 C835 1.398 . S
C836 C837 1.391 . S
C837 H825 0.950 . S
C837 C833 1.412 . S
C837 C836 1.391 . S
C838 H828 0.950 . S
C838 C839 1.386 . S
C838 C840 1.391 . S
C839 C838 1.386 . S
C839 C843 1.393 . S
C840 H829 0.950 . S
C840 C838 1.391 . S
C840 C841 1.400 . S
C841 C835 1.491 . S
C841 C840 1.400 . S
C841 C842 1.398 . S
C842 H830 0.950 . S
C842 C841 1.398 . S
C842 C843 1.391 . S
C843 H831 0.950 . S
C843 C839 1.393 . S
C843 C842 1.391 . S
H844 C852 0.950 . S
H845 C857 0.950 . S
H846 C854 0.950 . S
H847 C856 0.935 1_455 S
H848 C858 0.950 . S
H849 C860 0.950 . S
H850 C862 0.950 . S
H851 C863 0.950 . S
C852 H844 0.950 . S
C852 C853 1.380 . S
C852 C854 1.391 . S
C853 C852 1.380 . S
C853 C857 1.399 1_655 S
C854 H846 0.950 . S
C854 C852 1.391 . S
C854 C855 1.400 . S
C855 C854 1.400 . S
C855 C856 1.413 . S
C855 C861 1.491 . S
C856 H847 0.935 1_655 S
C856 C855 1.413 . S
C856 C857 1.391 1_655 S
C857 H845 0.950 . S
C857 C853 1.399 1_455 S
C857 C856 1.391 1_455 S
C858 H848 0.950 . S
C858 C859 1.386 . S
C858 C860 1.391 . S
C859 C858 1.386 . S
C859 C863 1.393 . S
C860 H849 0.950 . S
C860 C858 1.391 . S
C860 C861 1.400 . S
C861 C855 1.491 . S
C861 C860 1.400 . S
C861 C862 1.398 . S
C862 H850 0.950 . S
C862 C861 1.398 . S
C862 C863 1.391 . S
C863 H851 0.950 . S
C863 C859 1.393 . S
C863 C862 1.391 . S
H864 C872 0.950 . S
H865 C877 0.950 . S
H866 C874 0.952 . S
H867 C876 0.950 . S
H868 C878 0.950 . S
H869 C880 0.950 . S
H870 C882 0.952 . S
H871 C883 0.949 1_554 S
C872 H864 0.950 . S
C872 C873 1.386 1_554 S
C872 C874 1.392 . S
C873 C872 1.386 1_556 S
C873 C877 1.393 . S
C874 H866 0.952 . S
C874 C872 1.392 . S
C874 C875 1.398 1_554 S
C875 C874 1.398 1_556 S
C875 C876 1.398 . S
C875 C881 1.491 . S
C876 H867 0.950 . S
C876 C875 1.398 . S
C876 C877 1.391 . S
C877 H865 0.950 . S
C877 C873 1.393 . S
C877 C876 1.391 . S
C878 H868 0.950 . S
C878 C879 1.386 . S
C878 C880 1.391 . S
C879 C878 1.386 . S
C879 C883 1.393 . S
C880 H869 0.950 . S
C880 C878 1.391 . S
C880 C881 1.400 . S
C881 C875 1.491 . S
C881 C880 1.400 . S
C881 C882 1.398 . S
C882 H870 0.952 . S
C882 C881 1.398 . S
C882 C883 1.391 . S
C883 H871 0.949 1_556 S
C883 C879 1.393 . S
C883 C882 1.391 . S
H884 C892 0.950 . S
H885 C897 0.950 . S
H886 C894 0.950 . S
H887 C896 0.950 . S
H888 C898 0.950 . S
H889 C900 0.950 . S
H890 C902 0.950 . S
H891 C903 0.950 . S
C892 H884 0.950 . S
C892 C893 1.386 1_554 S
C892 C894 1.391 . S
C893 C892 1.386 1_556 S
C893 C897 1.393 . S
C894 H886 0.950 . S
C894 C892 1.391 . S
C894 C895 1.400 1_554 S
C895 C894 1.400 1_556 S
C895 C896 1.398 . S
C895 C901 1.491 . S
C896 H887 0.950 . S
C896 C895 1.398 . S
C896 C897 1.391 . S
C897 H885 0.950 . S
C897 C893 1.393 . S
C897 C896 1.391 . S
C898 H888 0.950 . S
C898 C899 1.386 . S
C898 C900 1.391 . S
C899 C898 1.386 . S
C899 C903 1.393 1_556 S
C900 H889 0.950 . S
C900 C898 1.391 . S
C900 C901 1.400 . S
C901 C895 1.491 . S
C901 C900 1.400 . S
C901 C902 1.398 1_556 S
C902 H890 0.950 . S
C902 C901 1.398 1_554 S
C902 C903 1.391 . S
C903 H891 0.950 . S
C903 C899 1.393 1_554 S
C903 C902 1.391 . S
H904 C912 0.950 . S
H905 C917 0.950 . S
H906 C914 0.950 . S
H907 C916 0.950 . S
H908 C918 0.950 . S
H909 C920 0.950 . S
H910 C922 0.950 . S
H911 C923 0.950 . S
C912 H904 0.950 . S
C912 C913 1.386 1_554 S
C912 C914 1.391 . S
C913 C912 1.386 1_556 S
C913 C917 1.393 . S
C914 H906 0.950 . S
C914 C912 1.391 . S
C914 C915 1.400 1_554 S
C915 C914 1.400 1_556 S
C915 C916 1.398 . S
C915 C921 1.491 . S
C916 H907 0.950 . S
C916 C915 1.398 . S
C916 C917 1.391 . S
C917 H905 0.950 . S
C917 C913 1.393 . S
C917 C916 1.391 . S
C918 H908 0.950 . S
C918 C919 1.386 . S
C918 C920 1.391 . S
C919 C918 1.386 . S
C919 C923 1.393 1_556 S
C920 H909 0.950 . S
C920 C918 1.391 . S
C920 C921 1.400 . S
C921 C915 1.491 . S
C921 C920 1.400 . S
C921 C922 1.398 1_556 S
C922 H910 0.950 . S
C922 C921 1.398 1_554 S
C922 C923 1.391 . S
C923 H911 0.950 . S
C923 C919 1.393 1_554 S
C923 C922 1.391 . S
H924 C932 0.950 . S
H925 C937 0.950 . S
H926 C934 0.950 . S
H927 C936 0.950 . S
H928 C938 0.950 . S
H929 C940 0.950 . S
H930 C942 0.950 . S
H931 C943 0.950 . S
C932 H924 0.950 . S
C932 C933 1.386 1_556 S
C932 C934 1.391 . S
C933 C932 1.386 1_554 S
C933 C937 1.393 . S
C934 H926 0.950 . S
C934 C932 1.391 . S
C934 C935 1.400 1_556 S
C935 C934 1.400 1_554 S
C935 C936 1.398 . S
C935 C941 1.491 . S
C936 H927 0.950 . S
C936 C935 1.398 . S
C936 C937 1.391 . S
C937 H925 0.950 . S
C937 C933 1.393 . S
C937 C936 1.391 . S
C938 H928 0.950 . S
C938 C939 1.386 . S
C938 C940 1.391 . S
C939 C938 1.386 . S
C939 C943 1.393 1_554 S
C940 H929 0.950 . S
C940 C938 1.391 . S
C940 C941 1.400 . S
C941 C935 1.491 . S
C941 C940 1.400 . S
C941 C942 1.398 1_554 S
C942 H930 0.950 . S
C942 C941 1.398 1_556 S
C942 C943 1.391 . S
C943 H931 0.950 . S
C943 C939 1.393 1_556 S
C943 C942 1.391 . S
H944 C952 0.950 . S
H945 C957 0.950 . S
H946 C954 0.950 . S
H947 C956 0.950 . S
H948 C958 0.950 . S
H949 C960 0.950 . S
H950 C962 0.950 1_556 S
H951 C963 0.950 . S
C952 H944 0.950 . S
C952 C953 1.386 1_556 S
C952 C954 1.391 . S
C953 C952 1.386 1_554 S
C953 C957 1.393 . S
C954 H946 0.950 . S
C954 C952 1.391 . S
C954 C955 1.400 1_556 S
C955 C954 1.400 1_554 S
C955 C956 1.398 . S
C955 C961 1.491 . S
C956 H947 0.950 . S
C956 C955 1.398 . S
C956 C957 1.391 . S
C957 H945 0.950 . S
C957 C953 1.393 . S
C957 C956 1.391 . S
C958 H948 0.950 . S
C958 C959 1.386 . S
C958 C960 1.391 . S
C959 C958 1.386 . S
C959 C963 1.393 1_554 S
C960 H949 0.950 . S
C960 C958 1.391 . S
C960 C961 1.400 . S
C961 C955 1.491 . S
C961 C960 1.400 . S
C961 C962 1.399 . S
C962 H950 0.950 1_554 S
C962 C961 1.399 . S
C962 C963 1.391 1_554 S
C963 H951 0.950 . S
C963 C959 1.393 1_556 S
C963 C962 1.391 1_556 S
H964 C972 0.950 . S
H965 C977 0.950 . S
H966 C974 0.950 . S
H967 C976 0.950 . S
H968 C978 0.950 . S
H969 C980 0.950 . S
H970 C982 0.950 . S
H971 C983 0.950 . S
C972 H964 0.950 . S
C972 C973 1.386 . S
C972 C974 1.391 . S
C973 C972 1.386 . S
C973 C977 1.393 1_554 S
C974 H966 0.950 . S
C974 C972 1.391 . S
C974 C975 1.400 . S
C975 C974 1.400 . S
C975 C976 1.398 1_554 S
C975 C981 1.491 . S
C976 H967 0.950 . S
C976 C975 1.398 1_556 S
C976 C977 1.391 . S
C977 H965 0.950 . S
C977 C973 1.393 1_556 S
C977 C976 1.391 . S
C978 H968 0.950 . S
C978 C979 1.386 1_556 S
C978 C980 1.391 . S
C979 C978 1.386 1_554 S
C979 C983 1.393 . S
C980 H969 0.950 . S
C980 C978 1.391 . S
C980 C981 1.400 1_556 S
C981 C975 1.491 . S
C981 C980 1.400 1_554 S
C981 C982 1.398 . S
C982 H970 0.950 . S
C982 C981 1.398 . S
C982 C983 1.391 . S
C983 H971 0.950 . S
C983 C979 1.393 . S
C983 C982 1.391 . S
H984 C992 0.950 . S
H985 C997 0.950 . S
H986 C994 0.950 . S
H987 C996 0.950 . S
H988 C998 0.950 . S
H989 C1000 0.950 . S
H990 C1002 0.950 . S
H991 C1003 0.950 . S
C992 H984 0.950 . S
C992 C993 1.386 . S
C992 C994 1.391 . S
C993 C992 1.386 . S
C993 C997 1.393 . S
C994 H986 0.950 . S
C994 C992 1.391 . S
C994 C995 1.400 . S
C995 C994 1.400 . S
C995 C996 1.398 . S
C995 C1001 1.491 . S
C996 H987 0.950 . S
C996 C995 1.398 . S
C996 C997 1.391 . S
C997 H985 0.950 . S
C997 C993 1.393 . S
C997 C996 1.391 . S
C998 H988 0.950 . S
C998 C999 1.386 . S
C998 C1000 1.391 . S
C999 C998 1.386 . S
C999 C1003 1.393 . S
C1000 H989 0.950 . S
C1000 C998 1.391 . S
C1000 C1001 1.400 . S
C1001 C995 1.491 . S
C1001 C1000 1.400 . S
C1001 C1002 1.398 . S
C1002 H990 0.950 . S
C1002 C1001 1.398 . S
C1002 C1003 1.391 . S
C1003 H991 0.950 . S
C1003 C999 1.393 . S
C1003 C1002 1.391 . S
H1004 C1012 0.950 . S
H1005 C1017 0.950 . S
H1006 C1014 0.950 . S
H1007 C1016 0.950 . S
H1008 C1018 0.950 . S
H1009 C1020 0.950 . S
H1010 C1022 0.950 . S
H1011 C1023 0.950 . S
C1012 H1004 0.950 . S
C1012 C1013 1.386 . S
C1012 C1014 1.391 . S
C1013 C1012 1.386 . S
C1013 C1017 1.393 . S
C1014 H1006 0.950 . S
C1014 C1012 1.391 . S
C1014 C1015 1.400 . S
C1015 C1014 1.400 . S
C1015 C1016 1.398 . S
C1015 C1021 1.491 . S
C1016 H1007 0.950 . S
C1016 C1015 1.398 . S
C1016 C1017 1.391 . S
C1017 H1005 0.950 . S
C1017 C1013 1.393 . S
C1017 C1016 1.391 . S
C1018 H1008 0.950 . S
C1018 C1019 1.386 . S
C1018 C1020 1.391 . S
C1019 C1018 1.386 . S
C1019 C1023 1.393 . S
C1020 H1009 0.950 . S
C1020 C1018 1.391 . S
C1020 C1021 1.400 . S
C1021 C1015 1.491 . S
C1021 C1020 1.400 . S
C1021 C1022 1.398 . S
C1022 H1010 0.950 . S
C1022 C1021 1.398 . S
C1022 C1023 1.391 . S
C1023 H1011 0.950 . S
C1023 C1019 1.393 . S
C1023 C1022 1.391 . S
H1024 C1032 0.950 . S
H1025 C1037 0.950 . S
H1026 C1034 0.950 . S
H1027 C1036 0.950 . S
H1028 C1038 0.950 . S
H1029 C1040 0.950 . S
H1030 C1042 0.950 . S
H1031 C1043 0.950 . S
C1032 H1024 0.950 . S
C1032 C1033 1.386 . S
C1032 C1034 1.391 . S
C1033 C1032 1.386 . S
C1033 C1037 1.393 . S
C1034 H1026 0.950 . S
C1034 C1032 1.391 . S
C1034 C1035 1.400 . S
C1035 C1034 1.400 . S
C1035 C1036 1.398 . S
C1035 C1041 1.491 . S
C1036 H1027 0.950 . S
C1036 C1035 1.398 . S
C1036 C1037 1.391 . S
C1037 H1025 0.950 . S
C1037 C1033 1.393 . S
C1037 C1036 1.391 . S
C1038 H1028 0.950 . S
C1038 C1039 1.386 . S
C1038 C1040 1.391 . S
C1039 C1038 1.386 . S
C1039 C1043 1.393 . S
C1040 H1029 0.950 . S
C1040 C1038 1.391 . S
C1040 C1041 1.400 . S
C1041 C1035 1.491 . S
C1041 C1040 1.400 . S
C1041 C1042 1.398 . S
C1042 H1030 0.950 . S
C1042 C1041 1.398 . S
C1042 C1043 1.391 . S
C1043 H1031 0.950 . S
C1043 C1039 1.393 . S
C1043 C1042 1.391 . S
H1044 C1052 0.950 . S
H1045 C1057 0.950 . S
H1046 C1054 0.950 . S
H1047 C1056 0.950 . S
H1048 C1058 0.950 . S
H1049 C1060 0.950 . S
H1050 C1062 0.950 . S
H1051 C1063 0.950 . S
C1052 H1044 0.950 . S
C1052 C1053 1.386 . S
C1052 C1054 1.391 . S
C1053 C1052 1.386 . S
C1053 C1057 1.393 . S
C1054 H1046 0.950 . S
C1054 C1052 1.391 . S
C1054 C1055 1.400 . S
C1055 C1054 1.400 . S
C1055 C1056 1.398 . S
C1055 C1061 1.491 . S
C1056 H1047 0.950 . S
C1056 C1055 1.398 . S
C1056 C1057 1.391 . S
C1057 H1045 0.950 . S
C1057 C1053 1.393 . S
C1057 C1056 1.391 . S
C1058 H1048 0.950 . S
C1058 C1059 1.386 . S
C1058 C1060 1.391 . S
C1059 C1058 1.386 . S
C1059 C1063 1.393 . S
C1060 H1049 0.950 . S
C1060 C1058 1.391 . S
C1060 C1061 1.400 . S
C1061 C1055 1.491 . S
C1061 C1060 1.400 . S
C1061 C1062 1.398 . S
C1062 H1050 0.950 . S
C1062 C1061 1.398 . S
C1062 C1063 1.391 . S
C1063 H1051 0.950 . S
C1063 C1059 1.393 . S
C1063 C1062 1.391 . S
H1064 C1072 0.950 . S
H1065 C1077 0.950 . S
H1066 C1074 0.950 . S
H1067 C1076 0.950 . S
H1068 C1078 0.950 . S
H1069 C1080 0.950 . S
H1070 C1082 0.950 . S
H1071 C1083 0.950 . S
C1072 H1064 0.950 . S
C1072 C1073 1.386 . S
C1072 C1074 1.391 . S
C1073 C1072 1.386 . S
C1073 C1077 1.393 . S
C1074 H1066 0.950 . S
C1074 C1072 1.391 . S
C1074 C1075 1.400 . S
C1075 C1074 1.400 . S
C1075 C1076 1.398 . S
C1075 C1081 1.491 . S
C1076 H1067 0.950 . S
C1076 C1075 1.398 . S
C1076 C1077 1.391 . S
C1077 H1065 0.950 . S
C1077 C1073 1.393 . S
C1077 C1076 1.391 . S
C1078 H1068 0.950 . S
C1078 C1079 1.386 . S
C1078 C1080 1.391 . S
C1079 C1078 1.386 . S
C1079 C1083 1.393 . S
C1080 H1069 0.950 . S
C1080 C1078 1.391 . S
C1080 C1081 1.400 . S
C1081 C1075 1.491 . S
C1081 C1080 1.400 . S
C1081 C1082 1.398 . S
C1082 H1070 0.950 . S
C1082 C1081 1.398 . S
C1082 C1083 1.391 . S
C1083 H1071 0.950 . S
C1083 C1079 1.393 . S
C1083 C1082 1.391 . S
H1084 C1092 0.950 . S
H1085 C1097 0.950 . S
H1086 C1094 0.950 . S
H1087 C1096 0.950 . S
H1088 C1098 0.950 . S
H1089 C1100 0.950 . S
H1090 C1102 0.950 . S
H1091 C1103 0.950 . S
C1092 H1084 0.950 . S
C1092 C1093 1.386 . S
C1092 C1094 1.391 . S
C1093 C1092 1.386 . S
C1093 C1097 1.393 . S
C1094 H1086 0.950 . S
C1094 C1092 1.391 . S
C1094 C1095 1.400 . S
C1095 C1094 1.400 . S
C1095 C1096 1.398 . S
C1095 C1101 1.491 . S
C1096 H1087 0.950 . S
C1096 C1095 1.398 . S
C1096 C1097 1.391 . S
C1097 H1085 0.950 . S
C1097 C1093 1.393 . S
C1097 C1096 1.391 . S
C1098 H1088 0.950 . S
C1098 C1099 1.386 . S
C1098 C1100 1.391 . S
C1099 C1098 1.386 . S
C1099 C1103 1.393 . S
C1100 H1089 0.950 . S
C1100 C1098 1.391 . S
C1100 C1101 1.400 . S
C1101 C1095 1.491 . S
C1101 C1100 1.400 . S
C1101 C1102 1.398 . S
C1102 H1090 0.950 . S
C1102 C1101 1.398 . S
C1102 C1103 1.391 . S
C1103 H1091 0.950 . S
C1103 C1099 1.393 . S
C1103 C1102 1.391 . S
H1104 C1112 0.950 . S
H1105 C1117 0.950 . S
H1106 C1114 0.950 . S
H1107 C1116 0.950 . S
H1108 C1118 0.950 . S
H1109 C1120 0.950 . S
H1110 C1122 0.950 . S
H1111 C1123 0.950 . S
C1112 H1104 0.950 . S
C1112 C1113 1.386 . S
C1112 C1114 1.391 . S
C1113 C1112 1.386 . S
C1113 C1117 1.393 . S
C1114 H1106 0.950 . S
C1114 C1112 1.391 . S
C1114 C1115 1.400 . S
C1115 C1114 1.400 . S
C1115 C1116 1.398 . S
C1115 C1121 1.491 . S
C1116 H1107 0.950 . S
C1116 C1115 1.398 . S
C1116 C1117 1.391 . S
C1117 H1105 0.950 . S
C1117 C1113 1.393 . S
C1117 C1116 1.391 . S
C1118 H1108 0.950 . S
C1118 C1119 1.386 . S
C1118 C1120 1.391 . S
C1119 C1118 1.386 . S
C1119 C1123 1.393 . S
C1120 H1109 0.950 . S
C1120 C1118 1.391 . S
C1120 C1121 1.400 . S
C1121 C1115 1.491 . S
C1121 C1120 1.400 . S
C1121 C1122 1.398 . S
C1122 H1110 0.950 . S
C1122 C1121 1.398 . S
C1122 C1123 1.391 . S
C1123 H1111 0.950 . S
C1123 C1119 1.393 . S
C1123 C1122 1.391 . S
H1124 C1132 0.950 . S
H1125 C1137 0.950 . S
H1126 C1134 0.950 . S
H1127 C1136 0.950 . S
H1128 C1138 0.950 . S
H1129 C1140 0.950 . S
H1130 C1142 0.950 . S
H1131 C1143 0.950 . S
C1132 H1124 0.950 . S
C1132 C1133 1.386 . S
C1132 C1134 1.391 . S
C1133 C1132 1.386 . S
C1133 C1137 1.393 . S
C1134 H1126 0.950 . S
C1134 C1132 1.391 . S
C1134 C1135 1.400 . S
C1135 C1134 1.400 . S
C1135 C1136 1.398 . S
C1135 C1141 1.491 . S
C1136 H1127 0.950 . S
C1136 C1135 1.398 . S
C1136 C1137 1.391 . S
C1137 H1125 0.950 . S
C1137 C1133 1.393 . S
C1137 C1136 1.391 . S
C1138 H1128 0.950 . S
C1138 C1139 1.386 . S
C1138 C1140 1.391 . S
C1139 C1138 1.386 . S
C1139 C1143 1.393 . S
C1140 H1129 0.950 . S
C1140 C1138 1.391 . S
C1140 C1141 1.400 . S
C1141 C1135 1.491 . S
C1141 C1140 1.400 . S
C1141 C1142 1.398 . S
C1142 H1130 0.950 . S
C1142 C1141 1.398 . S
C1142 C1143 1.391 . S
C1143 H1131 0.950 . S
C1143 C1139 1.393 . S
C1143 C1142 1.391 . S
H1144 C1152 0.950 . S
H1145 C1157 0.950 . S
H1146 C1154 0.950 . S
H1147 C1156 0.950 . S
H1148 C1158 0.950 . S
H1149 C1160 0.950 . S
H1150 C1162 0.950 . S
H1151 C1163 0.950 . S
C1152 H1144 0.950 . S
C1152 C1153 1.386 . S
C1152 C1154 1.391 . S
C1153 C1152 1.386 . S
C1153 C1157 1.393 . S
C1154 H1146 0.950 . S
C1154 C1152 1.391 . S
C1154 C1155 1.400 . S
C1155 C1154 1.400 . S
C1155 C1156 1.398 . S
C1155 C1161 1.491 . S
C1156 H1147 0.950 . S
C1156 C1155 1.398 . S
C1156 C1157 1.391 . S
C1157 H1145 0.950 . S
C1157 C1153 1.393 . S
C1157 C1156 1.391 . S
C1158 H1148 0.950 . S
C1158 C1159 1.386 . S
C1158 C1160 1.391 . S
C1159 C1158 1.386 . S
C1159 C1163 1.393 . S
C1160 H1149 0.950 . S
C1160 C1158 1.391 . S
C1160 C1161 1.400 . S
C1161 C1155 1.491 . S
C1161 C1160 1.400 . S
C1161 C1162 1.398 . S
C1162 H1150 0.950 . S
C1162 C1161 1.398 . S
C1162 C1163 1.391 . S
C1163 H1151 0.950 . S
C1163 C1159 1.393 . S
C1163 C1162 1.391 . S
H1164 C1172 0.950 . S
H1165 C1177 0.950 . S
H1166 C1174 0.950 . S
H1167 C1176 0.950 . S
H1168 C1178 0.950 . S
H1169 C1180 0.950 . S
H1170 C1182 0.950 . S
H1171 C1183 0.950 . S
C1172 H1164 0.950 . S
C1172 C1173 1.386 . S
C1172 C1174 1.391 . S
C1173 C1172 1.386 . S
C1173 C1177 1.393 . S
C1174 H1166 0.950 . S
C1174 C1172 1.391 . S
C1174 C1175 1.400 . S
C1175 C1174 1.400 . S
C1175 C1176 1.398 . S
C1175 C1181 1.491 . S
C1176 H1167 0.950 . S
C1176 C1175 1.398 . S
C1176 C1177 1.391 . S
C1177 H1165 0.950 . S
C1177 C1173 1.393 . S
C1177 C1176 1.391 . S
C1178 H1168 0.950 . S
C1178 C1179 1.386 . S
C1178 C1180 1.391 . S
C1179 C1178 1.386 . S
C1179 C1183 1.393 . S
C1180 H1169 0.950 . S
C1180 C1178 1.391 . S
C1180 C1181 1.400 . S
C1181 C1175 1.491 . S
C1181 C1180 1.400 . S
C1181 C1182 1.398 . S
C1182 H1170 0.950 . S
C1182 C1181 1.398 . S
C1182 C1183 1.391 . S
C1183 H1171 0.950 . S
C1183 C1179 1.393 . S
C1183 C1182 1.391 . S
H1184 C1192 0.950 . S
H1185 C1197 0.950 . S
H1186 C1194 0.950 . S
H1187 C1196 0.950 . S
H1188 C1198 0.950 . S
H1189 C1200 0.950 . S
H1190 C1202 0.950 . S
H1191 C1203 0.950 . S
C1192 H1184 0.950 . S
C1192 C1193 1.386 . S
C1192 C1194 1.391 . S
C1193 C1192 1.386 . S
C1193 C1197 1.393 . S
C1194 H1186 0.950 . S
C1194 C1192 1.391 . S
C1194 C1195 1.400 . S
C1195 C1194 1.400 . S
C1195 C1196 1.398 . S
C1195 C1201 1.491 . S
C1196 H1187 0.950 . S
C1196 C1195 1.398 . S
C1196 C1197 1.391 . S
C1197 H1185 0.950 . S
C1197 C1193 1.393 . S
C1197 C1196 1.391 . S
C1198 H1188 0.950 . S
C1198 C1199 1.386 . S
C1198 C1200 1.391 . S
C1199 C1198 1.386 . S
C1199 C1203 1.393 . S
C1200 H1189 0.950 . S
C1200 C1198 1.391 . S
C1200 C1201 1.400 . S
C1201 C1195 1.491 . S
C1201 C1200 1.400 . S
C1201 C1202 1.398 . S
C1202 H1190 0.950 . S
C1202 C1201 1.398 . S
C1202 C1203 1.391 . S
C1203 H1191 0.950 . S
C1203 C1199 1.393 . S
C1203 C1202 1.391 . S
H1204 C1212 0.950 . S
H1205 C1217 0.950 . S
H1206 C1214 0.950 . S
H1207 C1216 0.950 . S
H1208 C1218 0.950 . S
H1209 C1220 0.950 . S
H1210 C1222 0.950 . S
H1211 C1223 0.950 . S
C1212 H1204 0.950 . S
C1212 C1213 1.386 . S
C1212 C1214 1.391 . S
C1213 C1212 1.386 . S
C1213 C1217 1.393 . S
C1214 H1206 0.950 . S
C1214 C1212 1.391 . S
C1214 C1215 1.400 . S
C1215 C1214 1.400 . S
C1215 C1216 1.398 . S
C1215 C1221 1.491 . S
C1216 H1207 0.950 . S
C1216 C1215 1.398 . S
C1216 C1217 1.391 . S
C1217 H1205 0.950 . S
C1217 C1213 1.393 . S
C1217 C1216 1.391 . S
C1218 H1208 0.950 . S
C1218 C1219 1.386 . S
C1218 C1220 1.391 . S
C1219 C1218 1.386 . S
C1219 C1223 1.393 . S
C1220 H1209 0.950 . S
C1220 C1218 1.391 . S
C1220 C1221 1.400 . S
C1221 C1215 1.491 . S
C1221 C1220 1.400 . S
C1221 C1222 1.398 . S
C1222 H1210 0.950 . S
C1222 C1221 1.398 . S
C1222 C1223 1.391 . S
C1223 H1211 0.950 . S
C1223 C1219 1.393 . S
C1223 C1222 1.391 . S
H1224 C1232 0.950 . S
H1225 C1237 0.950 . S
H1226 C1234 0.950 . S
H1227 C1236 0.950 . S
H1228 C1238 0.950 . S
H1229 C1240 0.950 . S
H1230 C1242 0.950 . S
H1231 C1243 0.950 . S
C1232 H1224 0.950 . S
C1232 C1233 1.386 . S
C1232 C1234 1.391 . S
C1233 C1232 1.386 . S
C1233 C1237 1.393 . S
C1234 H1226 0.950 . S
C1234 C1232 1.391 . S
C1234 C1235 1.400 . S
C1235 C1234 1.400 . S
C1235 C1236 1.398 . S
C1235 C1241 1.491 . S
C1236 H1227 0.950 . S
C1236 C1235 1.398 . S
C1236 C1237 1.391 . S
C1237 H1225 0.950 . S
C1237 C1233 1.393 . S
C1237 C1236 1.391 . S
C1238 H1228 0.950 . S
C1238 C1239 1.386 . S
C1238 C1240 1.391 . S
C1239 C1238 1.386 . S
C1239 C1243 1.393 . S
C1240 H1229 0.950 . S
C1240 C1238 1.391 . S
C1240 C1241 1.400 . S
C1241 C1235 1.491 . S
C1241 C1240 1.400 . S
C1241 C1242 1.398 . S
C1242 H1230 0.950 . S
C1242 C1241 1.398 . S
C1242 C1243 1.391 . S
C1243 H1231 0.950 . S
C1243 C1239 1.393 . S
C1243 C1242 1.391 . S
H1244 C1252 0.950 . S
H1245 C1257 0.950 . S
H1246 C1254 0.950 . S
H1247 C1256 0.950 . S
H1248 C1258 0.950 . S
H1249 C1260 0.950 . S
H1250 C1262 0.950 . S
H1251 C1263 0.950 . S
C1252 H1244 0.950 . S
C1252 C1253 1.386 . S
C1252 C1254 1.391 . S
C1253 C1252 1.386 . S
C1253 C1257 1.393 . S
C1254 H1246 0.950 . S
C1254 C1252 1.391 . S
C1254 C1255 1.400 . S
C1255 C1254 1.400 . S
C1255 C1256 1.398 . S
C1255 C1261 1.491 . S
C1256 H1247 0.950 . S
C1256 C1255 1.398 . S
C1256 C1257 1.391 . S
C1257 H1245 0.950 . S
C1257 C1253 1.393 . S
C1257 C1256 1.391 . S
C1258 H1248 0.950 . S
C1258 C1259 1.386 . S
C1258 C1260 1.391 . S
C1259 C1258 1.386 . S
C1259 C1263 1.393 . S
C1260 H1249 0.950 . S
C1260 C1258 1.391 . S
C1260 C1261 1.400 . S
C1261 C1255 1.491 . S
C1261 C1260 1.400 . S
C1261 C1262 1.398 . S
C1262 H1250 0.950 . S
C1262 C1261 1.398 . S
C1262 C1263 1.391 . S
C1263 H1251 0.950 . S
C1263 C1259 1.393 . S
C1263 C1262 1.391 . S
H1264 C1272 0.950 . S
H1265 C1277 0.950 . S
H1266 C1274 0.950 . S
H1267 C1276 0.950 . S
H1268 C1278 0.950 . S
H1269 C1280 0.950 . S
H1270 C1282 0.950 . S
H1271 C1283 0.950 . S
C1272 H1264 0.950 . S
C1272 C1273 1.386 . S
C1272 C1274 1.391 . S
C1273 C1272 1.386 . S
C1273 C1277 1.393 . S
C1274 H1266 0.950 . S
C1274 C1272 1.391 . S
C1274 C1275 1.400 . S
C1275 C1274 1.400 . S
C1275 C1276 1.398 . S
C1275 C1281 1.491 . S
C1276 H1267 0.950 . S
C1276 C1275 1.398 . S
C1276 C1277 1.391 . S
C1277 H1265 0.950 . S
C1277 C1273 1.393 . S
C1277 C1276 1.391 . S
C1278 H1268 0.950 . S
C1278 C1279 1.386 . S
C1278 C1280 1.391 . S
C1279 C1278 1.386 . S
C1279 C1283 1.393 . S
C1280 H1269 0.950 . S
C1280 C1278 1.391 . S
C1280 C1281 1.400 . S
C1281 C1275 1.491 . S
C1281 C1280 1.400 . S
C1281 C1282 1.398 . S
C1282 H1270 0.950 . S
C1282 C1281 1.398 . S
C1282 C1283 1.391 . S
C1283 H1271 0.950 . S
C1283 C1279 1.393 . S
C1283 C1282 1.391 . S
H1284 C1292 0.950 . S
H1285 C1297 0.950 . S
H1286 C1294 0.950 . S
H1287 C1296 0.950 . S
H1288 C1298 0.950 . S
H1289 C1300 0.950 . S
H1290 C1302 0.950 . S
H1291 C1303 0.950 . S
C1292 H1284 0.950 . S
C1292 C1293 1.386 . S
C1292 C1294 1.391 . S
C1293 C1292 1.386 . S
C1293 C1297 1.393 . S
C1294 H1286 0.950 . S
C1294 C1292 1.391 . S
C1294 C1295 1.400 . S
C1295 C1294 1.400 . S
C1295 C1296 1.398 . S
C1295 C1301 1.491 . S
C1296 H1287 0.950 . S
C1296 C1295 1.398 . S
C1296 C1297 1.391 . S
C1297 H1285 0.950 . S
C1297 C1293 1.393 . S
C1297 C1296 1.391 . S
C1298 H1288 0.950 . S
C1298 C1299 1.386 . S
C1298 C1300 1.391 . S
C1299 C1298 1.386 . S
C1299 C1303 1.393 . S
C1300 H1289 0.950 . S
C1300 C1298 1.391 . S
C1300 C1301 1.400 . S
C1301 C1295 1.491 . S
C1301 C1300 1.400 . S
C1301 C1302 1.398 . S
C1302 H1290 0.950 . S
C1302 C1301 1.398 . S
C1302 C1303 1.391 . S
C1303 H1291 0.950 . S
C1303 C1299 1.393 . S
C1303 C1302 1.391 . S
H1304 C1312 0.950 . S
H1305 C1317 0.950 . S
H1306 C1314 0.950 . S
H1307 C1316 0.950 . S
H1308 C1318 0.950 . S
H1309 C1320 0.950 . S
H1310 C1322 0.950 . S
H1311 C1323 0.950 . S
C1312 H1304 0.950 . S
C1312 C1313 1.386 . S
C1312 C1314 1.391 . S
C1313 C1312 1.386 . S
C1313 C1317 1.393 . S
C1314 H1306 0.950 . S
C1314 C1312 1.391 . S
C1314 C1315 1.400 . S
C1315 C1314 1.400 . S
C1315 C1316 1.398 . S
C1315 C1321 1.491 . S
C1316 H1307 0.950 . S
C1316 C1315 1.398 . S
C1316 C1317 1.391 . S
C1317 H1305 0.950 . S
C1317 C1313 1.393 . S
C1317 C1316 1.391 . S
C1318 H1308 0.950 . S
C1318 C1319 1.386 . S
C1318 C1320 1.391 . S
C1319 C1318 1.386 . S
C1319 C1323 1.393 . S
C1320 H1309 0.950 . S
C1320 C1318 1.391 . S
C1320 C1321 1.400 . S
C1321 C1315 1.491 . S
C1321 C1320 1.400 . S
C1321 C1322 1.398 . S
C1322 H1310 0.950 . S
C1322 C1321 1.398 . S
C1322 C1323 1.391 . S
C1323 H1311 0.950 . S
C1323 C1319 1.393 . S
C1323 C1322 1.391 . S
H1324 C1332 0.950 . S
H1325 C1337 0.950 . S
H1326 C1334 0.950 . S
H1327 C1336 0.950 . S
H1328 C1338 0.950 . S
H1329 C1340 0.950 . S
H1330 C1342 0.950 . S
H1331 C1343 0.950 . S
C1332 H1324 0.950 . S
C1332 C1333 1.386 . S
C1332 C1334 1.391 . S
C1333 C1332 1.386 . S
C1333 C1337 1.393 . S
C1334 H1326 0.950 . S
C1334 C1332 1.391 . S
C1334 C1335 1.400 . S
C1335 C1334 1.400 . S
C1335 C1336 1.398 . S
C1335 C1341 1.491 . S
C1336 H1327 0.950 . S
C1336 C1335 1.398 . S
C1336 C1337 1.391 . S
C1337 H1325 0.950 . S
C1337 C1333 1.393 . S
C1337 C1336 1.391 . S
C1338 H1328 0.950 . S
C1338 C1339 1.386 . S
C1338 C1340 1.391 . S
C1339 C1338 1.386 . S
C1339 C1343 1.393 . S
C1340 H1329 0.950 . S
C1340 C1338 1.391 . S
C1340 C1341 1.400 . S
C1341 C1335 1.491 . S
C1341 C1340 1.400 . S
C1341 C1342 1.398 . S
C1342 H1330 0.950 . S
C1342 C1341 1.398 . S
C1342 C1343 1.391 . S
C1343 H1331 0.950 . S
C1343 C1339 1.393 . S
C1343 C1342 1.391 . S
H1344 C1352 0.950 . S
H1345 C1357 0.950 . S
H1346 C1354 0.950 . S
H1347 C1356 0.950 . S
H1348 C1358 0.950 . S
H1349 C1360 0.950 . S
H1350 C1362 0.950 . S
H1351 C1363 0.950 . S
C1352 H1344 0.950 . S
C1352 C1353 1.386 . S
C1352 C1354 1.391 . S
C1353 C1352 1.386 . S
C1353 C1357 1.393 . S
C1354 H1346 0.950 . S
C1354 C1352 1.391 . S
C1354 C1355 1.400 . S
C1355 C1354 1.400 . S
C1355 C1356 1.398 . S
C1355 C1361 1.491 . S
C1356 H1347 0.950 . S
C1356 C1355 1.398 . S
C1356 C1357 1.391 . S
C1357 H1345 0.950 . S
C1357 C1353 1.393 . S
C1357 C1356 1.391 . S
C1358 H1348 0.950 . S
C1358 C1359 1.386 . S
C1358 C1360 1.391 . S
C1359 C1358 1.386 . S
C1359 C1363 1.393 . S
C1360 H1349 0.950 . S
C1360 C1358 1.391 . S
C1360 C1361 1.400 . S
C1361 C1355 1.491 . S
C1361 C1360 1.400 . S
C1361 C1362 1.398 . S
C1362 H1350 0.950 . S
C1362 C1361 1.398 . S
C1362 C1363 1.391 . S
C1363 H1351 0.950 . S
C1363 C1359 1.393 . S
C1363 C1362 1.391 . S
H1364 C1372 0.950 . S
H1365 C1377 0.950 . S
H1366 C1374 0.950 . S
H1367 C1376 0.950 . S
H1368 C1378 0.950 . S
H1369 C1380 0.950 . S
H1370 C1382 0.950 . S
H1371 C1383 0.950 . S
C1372 H1364 0.950 . S
C1372 C1373 1.386 . S
C1372 C1374 1.391 . S
C1373 C1372 1.386 . S
C1373 C1377 1.393 . S
C1374 H1366 0.950 . S
C1374 C1372 1.391 . S
C1374 C1375 1.400 . S
C1375 C1374 1.400 . S
C1375 C1376 1.398 . S
C1375 C1381 1.491 . S
C1376 H1367 0.950 . S
C1376 C1375 1.398 . S
C1376 C1377 1.391 . S
C1377 H1365 0.950 . S
C1377 C1373 1.393 . S
C1377 C1376 1.391 . S
C1378 H1368 0.950 . S
C1378 C1379 1.386 . S
C1378 C1380 1.391 . S
C1379 C1378 1.386 . S
C1379 C1383 1.393 . S
C1380 H1369 0.950 . S
C1380 C1378 1.391 . S
C1380 C1381 1.400 . S
C1381 C1375 1.491 . S
C1381 C1380 1.400 . S
C1381 C1382 1.398 . S
C1382 H1370 0.950 . S
C1382 C1381 1.398 . S
C1382 C1383 1.391 . S
C1383 H1371 0.950 . S
C1383 C1379 1.393 . S
C1383 C1382 1.391 . S
H1384 C1392 0.950 . S
H1385 C1397 0.950 . S
H1386 C1394 0.950 . S
H1387 C1396 0.950 . S
H1388 C1398 0.950 . S
H1389 C1400 0.950 . S
H1390 C1402 0.950 . S
H1391 C1403 0.950 . S
C1392 H1384 0.950 . S
C1392 C1393 1.386 . S
C1392 C1394 1.391 . S
C1393 C1392 1.386 . S
C1393 C1397 1.393 . S
C1394 H1386 0.950 . S
C1394 C1392 1.391 . S
C1394 C1395 1.400 . S
C1395 C1394 1.400 . S
C1395 C1396 1.398 . S
C1395 C1401 1.491 . S
C1396 H1387 0.950 . S
C1396 C1395 1.398 . S
C1396 C1397 1.391 . S
C1397 H1385 0.950 . S
C1397 C1393 1.393 . S
C1397 C1396 1.391 . S
C1398 H1388 0.950 . S
C1398 C1399 1.386 . S
C1398 C1400 1.391 . S
C1399 C1398 1.386 . S
C1399 C1403 1.393 . S
C1400 H1389 0.950 . S
C1400 C1398 1.391 . S
C1400 C1401 1.400 . S
C1401 C1395 1.491 . S
C1401 C1400 1.400 . S
C1401 C1402 1.398 . S
C1402 H1390 0.950 . S
C1402 C1401 1.398 . S
C1402 C1403 1.391 . S
C1403 H1391 0.950 . S
C1403 C1399 1.393 . S
C1403 C1402 1.391 . S
H1404 C1412 0.950 . S
H1405 C1417 0.950 . S
H1406 C1414 0.950 . S
H1407 C1416 0.950 . S
H1408 C1418 0.950 . S
H1409 C1420 0.950 . S
H1410 C1422 0.950 . S
H1411 C1423 0.950 . S
C1412 H1404 0.950 . S
C1412 C1413 1.386 . S
C1412 C1414 1.391 . S
C1413 C1412 1.386 . S
C1413 C1417 1.393 . S
C1414 H1406 0.950 . S
C1414 C1412 1.391 . S
C1414 C1415 1.400 . S
C1415 C1414 1.400 . S
C1415 C1416 1.398 . S
C1415 C1421 1.491 . S
C1416 H1407 0.950 . S
C1416 C1415 1.398 . S
C1416 C1417 1.391 . S
C1417 H1405 0.950 . S
C1417 C1413 1.393 . S
C1417 C1416 1.391 . S
C1418 H1408 0.950 . S
C1418 C1419 1.386 . S
C1418 C1420 1.391 . S
C1419 C1418 1.386 . S
C1419 C1423 1.393 . S
C1420 H1409 0.950 . S
C1420 C1418 1.391 . S
C1420 C1421 1.400 . S
C1421 C1415 1.491 . S
C1421 C1420 1.400 . S
C1421 C1422 1.398 . S
C1422 H1410 0.950 . S
C1422 C1421 1.398 . S
C1422 C1423 1.391 . S
C1423 H1411 0.950 . S
C1423 C1419 1.393 . S
C1423 C1422 1.391 . S
H1424 C1432 0.950 . S
H1425 C1437 0.950 . S
H1426 C1434 0.950 . S
H1427 C1436 0.950 . S
H1428 C1438 0.950 . S
H1429 C1440 0.950 . S
H1430 C1442 0.950 . S
H1431 C1443 0.950 . S
C1432 H1424 0.950 . S
C1432 C1433 1.386 . S
C1432 C1434 1.391 . S
C1433 C1432 1.386 . S
C1433 C1437 1.393 . S
C1434 H1426 0.950 . S
C1434 C1432 1.391 . S
C1434 C1435 1.400 . S
C1435 C1434 1.400 . S
C1435 C1436 1.398 . S
C1435 C1441 1.491 . S
C1436 H1427 0.950 . S
C1436 C1435 1.398 . S
C1436 C1437 1.391 . S
C1437 H1425 0.950 . S
C1437 C1433 1.393 . S
C1437 C1436 1.391 . S
C1438 H1428 0.950 . S
C1438 C1439 1.386 . S
C1438 C1440 1.391 . S
C1439 C1438 1.386 . S
C1439 C1443 1.393 . S
C1440 H1429 0.950 . S
C1440 C1438 1.391 . S
C1440 C1441 1.400 . S
C1441 C1435 1.491 . S
C1441 C1440 1.400 . S
C1441 C1442 1.398 . S
C1442 H1430 0.950 . S
C1442 C1441 1.398 . S
C1442 C1443 1.391 . S
C1443 H1431 0.950 . S
C1443 C1439 1.393 . S
C1443 C1442 1.391 . S
H1444 C1452 0.950 . S
H1445 C1457 0.950 . S
H1446 C1454 0.950 . S
H1447 C1456 0.950 . S
H1448 C1458 0.950 . S
H1449 C1460 0.950 . S
H1450 C1462 0.950 . S
H1451 C1463 0.950 . S
C1452 H1444 0.950 . S
C1452 C1453 1.386 . S
C1452 C1454 1.391 . S
C1453 C1452 1.386 . S
C1453 C1457 1.393 . S
C1454 H1446 0.950 . S
C1454 C1452 1.391 . S
C1454 C1455 1.400 . S
C1455 C1454 1.400 . S
C1455 C1456 1.398 . S
C1455 C1461 1.491 . S
C1456 H1447 0.950 . S
C1456 C1455 1.398 . S
C1456 C1457 1.391 . S
C1457 H1445 0.950 . S
C1457 C1453 1.393 . S
C1457 C1456 1.391 . S
C1458 H1448 0.950 . S
C1458 C1459 1.386 . S
C1458 C1460 1.391 . S
C1459 C1458 1.386 . S
C1459 C1463 1.393 . S
C1460 H1449 0.950 . S
C1460 C1458 1.391 . S
C1460 C1461 1.400 . S
C1461 C1455 1.491 . S
C1461 C1460 1.400 . S
C1461 C1462 1.398 . S
C1462 H1450 0.950 . S
C1462 C1461 1.398 . S
C1462 C1463 1.391 . S
C1463 H1451 0.950 . S
C1463 C1459 1.393 . S
C1463 C1462 1.391 . S
H1464 C1472 0.950 . S
H1465 C1477 0.950 . S
H1466 C1474 0.950 . S
H1467 C1476 0.950 . S
H1468 C1478 0.950 . S
H1469 C1480 0.950 . S
H1470 C1482 0.950 . S
H1471 C1483 0.950 . S
C1472 H1464 0.950 . S
C1472 C1473 1.386 . S
C1472 C1474 1.391 . S
C1473 C1472 1.386 . S
C1473 C1477 1.393 . S
C1474 H1466 0.950 . S
C1474 C1472 1.391 . S
C1474 C1475 1.400 . S
C1475 C1474 1.400 . S
C1475 C1476 1.398 . S
C1475 C1481 1.491 . S
C1476 H1467 0.950 . S
C1476 C1475 1.398 . S
C1476 C1477 1.391 . S
C1477 H1465 0.950 . S
C1477 C1473 1.393 . S
C1477 C1476 1.391 . S
C1478 H1468 0.950 . S
C1478 C1479 1.386 . S
C1478 C1480 1.391 . S
C1479 C1478 1.386 . S
C1479 C1483 1.393 . S
C1480 H1469 0.950 . S
C1480 C1478 1.391 . S
C1480 C1481 1.400 . S
C1481 C1475 1.491 . S
C1481 C1480 1.400 . S
C1481 C1482 1.398 . S
C1482 H1470 0.950 . S
C1482 C1481 1.398 . S
C1482 C1483 1.391 . S
C1483 H1471 0.950 . S
C1483 C1479 1.393 . S
C1483 C1482 1.391 . S
H1484 C1492 0.950 . S
H1485 C1497 0.950 . S
H1486 C1494 0.950 . S
H1487 C1496 0.950 . S
H1488 C1498 0.950 . S
H1489 C1500 0.950 . S
H1490 C1502 0.950 . S
H1491 C1503 0.950 . S
C1492 H1484 0.950 . S
C1492 C1493 1.386 1_565 S
C1492 C1494 1.391 . S
C1493 C1492 1.386 1_545 S
C1493 C1497 1.393 . S
C1494 H1486 0.950 . S
C1494 C1492 1.391 . S
C1494 C1495 1.400 1_565 S
C1495 C1494 1.400 1_545 S
C1495 C1496 1.398 . S
C1495 C1501 1.491 1_545 S
C1496 H1487 0.950 . S
C1496 C1495 1.398 . S
C1496 C1497 1.391 . S
C1497 H1485 0.950 . S
C1497 C1493 1.393 . S
C1497 C1496 1.391 . S
C1498 H1488 0.950 . S
C1498 C1499 1.386 1_545 S
C1498 C1500 1.391 . S
C1499 C1498 1.386 1_565 S
C1499 C1503 1.393 . S
C1500 H1489 0.950 . S
C1500 C1498 1.391 . S
C1500 C1501 1.400 1_545 S
C1501 C1495 1.491 1_565 S
C1501 C1500 1.400 1_565 S
C1501 C1502 1.398 . S
C1502 H1490 0.950 . S
C1502 C1501 1.398 . S
C1502 C1503 1.391 . S
C1503 H1491 0.950 . S
C1503 C1499 1.393 . S
C1503 C1502 1.391 . S
H1504 C1512 0.950 . S
H1505 C1517 0.950 . S
H1506 C1514 0.950 . S
H1507 C1516 0.950 . S
H1508 C1518 0.950 . S
H1509 C1520 0.950 . S
H1510 C1522 0.950 . S
H1511 C1523 0.950 . S
C1512 H1504 0.950 . S
C1512 C1513 1.386 1_655 S
C1512 C1514 1.391 . S
C1513 C1512 1.386 1_455 S
C1513 C1517 1.393 . S
C1514 H1506 0.950 . S
C1514 C1512 1.391 . S
C1514 C1515 1.400 1_655 S
C1515 C1514 1.400 1_455 S
C1515 C1516 1.398 . S
C1515 C1521 1.491 1_455 S
C1516 H1507 0.950 . S
C1516 C1515 1.398 . S
C1516 C1517 1.391 . S
C1517 H1505 0.950 . S
C1517 C1513 1.393 . S
C1517 C1516 1.391 . S
C1518 H1508 0.950 . S
C1518 C1519 1.386 1_455 S
C1518 C1520 1.391 . S
C1519 C1518 1.386 1_655 S
C1519 C1523 1.393 . S
C1520 H1509 0.950 . S
C1520 C1518 1.391 . S
C1520 C1521 1.400 1_455 S
C1521 C1515 1.491 1_655 S
C1521 C1520 1.400 1_655 S
C1521 C1522 1.398 . S
C1522 H1510 0.950 . S
C1522 C1521 1.398 . S
C1522 C1523 1.391 . S
C1523 H1511 0.950 . S
C1523 C1519 1.393 . S
C1523 C1522 1.391 . S
H1524 C1532 0.950 . S
H1525 C1537 0.950 . S
H1526 C1534 0.950 . S
H1527 C1536 0.950 . S
H1528 C1538 0.950 . S
H1529 C1540 0.950 . S
H1530 C1542 0.950 . S
H1531 C1543 0.950 . S
C1532 H1524 0.950 . S
C1532 C1533 1.386 . S
C1532 C1534 1.391 . S
C1533 C1532 1.386 . S
C1533 C1537 1.393 . S
C1534 H1526 0.950 . S
C1534 C1532 1.391 . S
C1534 C1535 1.400 . S
C1535 C1534 1.400 . S
C1535 C1536 1.398 . S
C1535 C1541 1.491 . S
C1536 H1527 0.950 . S
C1536 C1535 1.398 . S
C1536 C1537 1.391 . S
C1537 H1525 0.950 . S
C1537 C1533 1.393 . S
C1537 C1536 1.391 . S
C1538 H1528 0.950 . S
C1538 C1539 1.386 . S
C1538 C1540 1.391 . S
C1539 C1538 1.386 . S
C1539 C1543 1.393 . S
C1540 H1529 0.950 . S
C1540 C1538 1.391 . S
C1540 C1541 1.400 . S
C1541 C1535 1.491 . S
C1541 C1540 1.400 . S
C1541 C1542 1.398 . S
C1542 H1530 0.950 . S
C1542 C1541 1.398 . S
C1542 C1543 1.391 . S
C1543 H1531 0.950 . S
C1543 C1539 1.393 . S
C1543 C1542 1.391 . S
H1544 C1552 0.950 . S
H1545 C1557 0.950 . S
H1546 C1554 0.950 . S
H1547 C1556 0.950 . S
H1548 C1558 0.950 . S
H1549 C1560 0.950 . S
H1550 C1562 0.950 . S
H1551 C1563 0.950 . S
C1552 H1544 0.950 . S
C1552 C1553 1.386 1_545 S
C1552 C1554 1.391 . S
C1553 C1552 1.386 1_565 S
C1553 C1557 1.393 . S
C1554 H1546 0.950 . S
C1554 C1552 1.391 . S
C1554 C1555 1.400 1_545 S
C1555 C1554 1.400 1_565 S
C1555 C1556 1.398 . S
C1555 C1561 1.491 1_565 S
C1556 H1547 0.950 . S
C1556 C1555 1.398 . S
C1556 C1557 1.391 . S
C1557 H1545 0.950 . S
C1557 C1553 1.393 . S
C1557 C1556 1.391 . S
C1558 H1548 0.950 . S
C1558 C1559 1.386 1_565 S
C1558 C1560 1.391 . S
C1559 C1558 1.386 1_545 S
C1559 C1563 1.393 . S
C1560 H1549 0.950 . S
C1560 C1558 1.391 . S
C1560 C1561 1.400 1_565 S
C1561 C1555 1.491 1_545 S
C1561 C1560 1.400 1_545 S
C1561 C1562 1.398 . S
C1562 H1550 0.950 . S
C1562 C1561 1.398 . S
C1562 C1563 1.391 . S
C1563 H1551 0.950 . S
C1563 C1559 1.393 . S
C1563 C1562 1.391 . S
H1564 C1572 0.950 . S
H1565 C1577 0.950 . S
H1566 C1574 0.950 . S
H1567 C1576 0.950 . S
H1568 C1578 0.950 . S
H1569 C1580 0.950 . S
H1570 C1582 0.950 . S
H1571 C1583 0.950 . S
C1572 H1564 0.950 . S
C1572 C1573 1.386 . S
C1572 C1574 1.391 . S
C1573 C1572 1.386 . S
C1573 C1577 1.393 1_455 S
C1574 H1566 0.950 . S
C1574 C1572 1.391 . S
C1574 C1575 1.400 . S
C1575 C1574 1.400 . S
C1575 C1576 1.398 1_455 S
C1575 C1581 1.491 1_455 S
C1576 H1567 0.950 . S
C1576 C1575 1.398 1_655 S
C1576 C1577 1.391 . S
C1577 H1565 0.950 . S
C1577 C1573 1.393 1_655 S
C1577 C1576 1.391 . S
C1578 H1568 0.950 . S
C1578 C1579 1.386 . S
C1578 C1580 1.391 . S
C1579 C1578 1.386 . S
C1579 C1583 1.393 1_655 S
C1580 H1569 0.950 . S
C1580 C1578 1.391 . S
C1580 C1581 1.400 . S
C1581 C1575 1.491 1_655 S
C1581 C1580 1.400 . S
C1581 C1582 1.398 1_655 S
C1582 H1570 0.950 . S
C1582 C1581 1.398 1_455 S
C1582 C1583 1.391 . S
C1583 H1571 0.950 . S
C1583 C1579 1.393 1_455 S
C1583 C1582 1.391 . S
H1584 C1592 0.950 . S
H1585 C1597 0.950 . S
H1586 C1594 0.950 . S
H1587 C1596 0.950 . S
H1588 C1598 0.950 . S
H1589 C1600 0.950 . S
H1590 C1602 0.950 . S
H1591 C1603 0.950 . S
C1592 H1584 0.950 . S
C1592 C1593 1.386 . S
C1592 C1594 1.391 . S
C1593 C1592 1.386 . S
C1593 C1597 1.393 . S
C1594 H1586 0.950 . S
C1594 C1592 1.391 . S
C1594 C1595 1.400 . S
C1595 C1594 1.400 . S
C1595 C1596 1.398 . S
C1595 C1601 1.491 . S
C1596 H1587 0.950 . S
C1596 C1595 1.398 . S
C1596 C1597 1.391 . S
C1597 H1585 0.950 . S
C1597 C1593 1.393 . S
C1597 C1596 1.391 . S
C1598 H1588 0.950 . S
C1598 C1599 1.386 . S
C1598 C1600 1.391 . S
C1599 C1598 1.386 . S
C1599 C1603 1.393 . S
C1600 H1589 0.950 . S
C1600 C1598 1.391 . S
C1600 C1601 1.400 . S
C1601 C1595 1.491 . S
C1601 C1600 1.400 . S
C1601 C1602 1.398 . S
C1602 H1590 0.950 . S
C1602 C1601 1.398 . S
C1602 C1603 1.391 . S
C1603 H1591 0.950 . S
C1603 C1599 1.393 . S
C1603 C1602 1.391 . S
H1604 C1612 0.950 . S
H1605 C1617 0.950 . S
H1606 C1614 0.950 . S
H1607 C1616 0.950 . S
H1608 C1618 0.950 . S
H1609 C1620 0.950 . S
H1610 C1622 0.950 . S
H1611 C1623 0.950 . S
C1612 H1604 0.950 . S
C1612 C1613 1.386 . S
C1612 C1614 1.391 . S
C1613 C1612 1.386 . S
C1613 C1617 1.393 . S
C1614 H1606 0.950 . S
C1614 C1612 1.391 . S
C1614 C1615 1.400 . S
C1615 C1614 1.400 . S
C1615 C1616 1.398 . S
C1615 C1621 1.491 . S
C1616 H1607 0.950 . S
C1616 C1615 1.398 . S
C1616 C1617 1.391 . S
C1617 H1605 0.950 . S
C1617 C1613 1.393 . S
C1617 C1616 1.391 . S
C1618 H1608 0.950 . S
C1618 C1619 1.386 . S
C1618 C1620 1.391 . S
C1619 C1618 1.386 . S
C1619 C1623 1.393 . S
C1620 H1609 0.950 . S
C1620 C1618 1.391 . S
C1620 C1621 1.400 . S
C1621 C1615 1.491 . S
C1621 C1620 1.400 . S
C1621 C1622 1.398 . S
C1622 H1610 0.950 . S
C1622 C1621 1.398 . S
C1622 C1623 1.391 . S
C1623 H1611 0.950 . S
C1623 C1619 1.393 . S
C1623 C1622 1.391 . S
H1624 C1632 0.950 . S
H1625 C1637 0.950 . S
H1626 C1634 0.950 . S
H1627 C1636 0.950 . S
H1628 C1638 0.950 . S
H1629 C1640 0.950 . S
H1630 C1642 0.950 . S
H1631 C1643 0.950 . S
C1632 H1624 0.950 . S
C1632 C1633 1.386 . S
C1632 C1634 1.391 . S
C1633 C1632 1.386 . S
C1633 C1637 1.393 . S
C1634 H1626 0.950 . S
C1634 C1632 1.391 . S
C1634 C1635 1.400 . S
C1635 C1634 1.400 . S
C1635 C1636 1.398 . S
C1635 C1641 1.491 . S
C1636 H1627 0.950 . S
C1636 C1635 1.398 . S
C1636 C1637 1.391 . S
C1637 H1625 0.950 . S
C1637 C1633 1.393 . S
C1637 C1636 1.391 . S
C1638 H1628 0.950 . S
C1638 C1639 1.386 . S
C1638 C1640 1.391 . S
C1639 C1638 1.386 . S
C1639 C1643 1.393 . S
C1640 H1629 0.950 . S
C1640 C1638 1.391 . S
C1640 C1641 1.400 . S
C1641 C1635 1.491 . S
C1641 C1640 1.400 . S
C1641 C1642 1.398 . S
C1642 H1630 0.950 . S
C1642 C1641 1.398 . S
C1642 C1643 1.391 . S
C1643 H1631 0.950 . S
C1643 C1639 1.393 . S
C1643 C1642 1.391 . S
H1644 C1652 0.950 . S
H1645 C1657 0.950 . S
H1646 C1654 0.950 . S
H1647 C1656 0.950 . S
H1648 C1658 0.950 . S
H1649 C1660 0.950 . S
H1650 C1662 0.950 . S
H1651 C1663 0.950 . S
C1652 H1644 0.950 . S
C1652 C1653 1.386 . S
C1652 C1654 1.391 . S
C1653 C1652 1.386 . S
C1653 C1657 1.393 . S
C1654 H1646 0.950 . S
C1654 C1652 1.391 . S
C1654 C1655 1.400 . S
C1655 C1654 1.400 . S
C1655 C1656 1.398 . S
C1655 C1661 1.491 . S
C1656 H1647 0.950 . S
C1656 C1655 1.398 . S
C1656 C1657 1.391 . S
C1657 H1645 0.950 . S
C1657 C1653 1.393 . S
C1657 C1656 1.391 . S
C1658 H1648 0.950 . S
C1658 C1659 1.386 . S
C1658 C1660 1.391 . S
C1659 C1658 1.386 . S
C1659 C1663 1.393 . S
C1660 H1649 0.950 . S
C1660 C1658 1.391 . S
C1660 C1661 1.400 . S
C1661 C1655 1.491 . S
C1661 C1660 1.400 . S
C1661 C1662 1.398 . S
C1662 H1650 0.950 . S
C1662 C1661 1.398 . S
C1662 C1663 1.391 . S
C1663 H1651 0.950 . S
C1663 C1659 1.393 . S
C1663 C1662 1.391 . S
H1664 C1672 0.950 . S
H1665 C1677 0.950 . S
H1666 C1674 0.950 . S
H1667 C1676 0.950 . S
H1668 C1678 0.950 . S
H1669 C1680 0.950 . S
H1670 C1682 0.950 . S
H1671 C1683 0.950 . S
C1672 H1664 0.950 . S
C1672 C1673 1.386 . S
C1672 C1674 1.391 . S
C1673 C1672 1.386 . S
C1673 C1677 1.393 . S
C1674 H1666 0.950 . S
C1674 C1672 1.391 . S
C1674 C1675 1.400 . S
C1675 C1674 1.400 . S
C1675 C1676 1.398 . S
C1675 C1681 1.491 . S
C1676 H1667 0.950 . S
C1676 C1675 1.398 . S
C1676 C1677 1.391 . S
C1677 H1665 0.950 . S
C1677 C1673 1.393 . S
C1677 C1676 1.391 . S
C1678 H1668 0.950 . S
C1678 C1679 1.386 . S
C1678 C1680 1.391 . S
C1679 C1678 1.386 . S
C1679 C1683 1.393 . S
C1680 H1669 0.950 . S
C1680 C1678 1.391 . S
C1680 C1681 1.400 . S
C1681 C1675 1.491 . S
C1681 C1680 1.400 . S
C1681 C1682 1.398 . S
C1682 H1670 0.950 . S
C1682 C1681 1.398 . S
C1682 C1683 1.391 . S
C1683 H1671 0.950 . S
C1683 C1679 1.393 . S
C1683 C1682 1.391 . S
H1684 C1692 0.950 . S
H1685 C1697 0.950 . S
H1686 C1694 0.950 . S
H1687 C1696 0.950 . S
H1688 C1698 0.950 . S
H1689 C1700 0.950 . S
H1690 C1702 0.950 . S
H1691 C1703 0.950 . S
C1692 H1684 0.950 . S
C1692 C1693 1.386 . S
C1692 C1694 1.391 . S
C1693 C1692 1.386 . S
C1693 C1697 1.393 . S
C1694 H1686 0.950 . S
C1694 C1692 1.391 . S
C1694 C1695 1.400 . S
C1695 C1694 1.400 . S
C1695 C1696 1.398 . S
C1695 C1701 1.491 . S
C1696 H1687 0.950 . S
C1696 C1695 1.398 . S
C1696 C1697 1.391 . S
C1697 H1685 0.950 . S
C1697 C1693 1.393 . S
C1697 C1696 1.391 . S
C1698 H1688 0.950 . S
C1698 C1699 1.386 . S
C1698 C1700 1.391 . S
C1699 C1698 1.386 . S
C1699 C1703 1.393 . S
C1700 H1689 0.950 . S
C1700 C1698 1.391 . S
C1700 C1701 1.400 . S
C1701 C1695 1.491 . S
C1701 C1700 1.400 . S
C1701 C1702 1.398 . S
C1702 H1690 0.950 . S
C1702 C1701 1.398 . S
C1702 C1703 1.391 . S
C1703 H1691 0.950 . S
C1703 C1699 1.393 . S
C1703 C1702 1.391 . S
H1704 C1712 0.950 . S
H1705 C1717 0.950 . S
H1706 C1714 0.950 . S
H1707 C1716 0.950 . S
H1708 C1718 0.950 . S
H1709 C1720 0.950 . S
H1710 C1722 0.950 . S
H1711 C1723 0.950 . S
C1712 H1704 0.950 . S
C1712 C1713 1.386 . S
C1712 C1714 1.391 . S
C1713 C1712 1.386 . S
C1713 C1717 1.393 . S
C1714 H1706 0.950 . S
C1714 C1712 1.391 . S
C1714 C1715 1.400 . S
C1715 C1714 1.400 . S
C1715 C1716 1.398 . S
C1715 C1721 1.491 . S
C1716 H1707 0.950 . S
C1716 C1715 1.398 . S
C1716 C1717 1.391 . S
C1717 H1705 0.950 . S
C1717 C1713 1.393 . S
C1717 C1716 1.391 . S
C1718 H1708 0.950 . S
C1718 C1719 1.386 . S
C1718 C1720 1.391 . S
C1719 C1718 1.386 . S
C1719 C1723 1.393 . S
C1720 H1709 0.950 . S
C1720 C1718 1.391 . S
C1720 C1721 1.400 . S
C1721 C1715 1.491 . S
C1721 C1720 1.400 . S
C1721 C1722 1.398 . S
C1722 H1710 0.950 . S
C1722 C1721 1.398 . S
C1722 C1723 1.391 . S
C1723 H1711 0.950 . S
C1723 C1719 1.393 . S
C1723 C1722 1.391 . S
H1724 C1732 0.950 . S
H1725 C1737 0.950 . S
H1726 C1734 0.950 . S
H1727 C1736 0.950 . S
H1728 C1738 0.950 . S
H1729 C1740 0.950 . S
H1730 C1742 0.950 . S
H1731 C1743 0.950 . S
C1732 H1724 0.950 . S
C1732 C1733 1.386 . S
C1732 C1734 1.391 . S
C1733 C1732 1.386 . S
C1733 C1737 1.393 . S
C1734 H1726 0.950 . S
C1734 C1732 1.391 . S
C1734 C1735 1.400 . S
C1735 C1734 1.400 . S
C1735 C1736 1.398 . S
C1735 C1741 1.491 . S
C1736 H1727 0.950 . S
C1736 C1735 1.398 . S
C1736 C1737 1.391 . S
C1737 H1725 0.950 . S
C1737 C1733 1.393 . S
C1737 C1736 1.391 . S
C1738 H1728 0.950 . S
C1738 C1739 1.386 . S
C1738 C1740 1.391 . S
C1739 C1738 1.386 . S
C1739 C1743 1.393 . S
C1740 H1729 0.950 . S
C1740 C1738 1.391 . S
C1740 C1741 1.400 . S
C1741 C1735 1.491 . S
C1741 C1740 1.400 . S
C1741 C1742 1.398 . S
C1742 H1730 0.950 . S
C1742 C1741 1.398 . S
C1742 C1743 1.391 . S
C1743 H1731 0.950 . S
C1743 C1739 1.393 . S
C1743 C1742 1.391 . S
H1744 C1752 0.950 . S
H1745 C1757 0.950 . S
H1746 C1754 0.950 . S
H1747 C1756 0.950 . S
H1748 C1758 0.950 . S
H1749 C1760 0.950 . S
H1750 C1762 0.950 . S
H1751 C1763 0.950 . S
C1752 H1744 0.950 . S
C1752 C1753 1.386 . S
C1752 C1754 1.391 . S
C1753 C1752 1.386 . S
C1753 C1757 1.393 . S
C1754 H1746 0.950 . S
C1754 C1752 1.391 . S
C1754 C1755 1.400 . S
C1755 C1754 1.400 . S
C1755 C1756 1.398 . S
C1755 C1761 1.491 . S
C1756 H1747 0.950 . S
C1756 C1755 1.398 . S
C1756 C1757 1.391 . S
C1757 H1745 0.950 . S
C1757 C1753 1.393 . S
C1757 C1756 1.391 . S
C1758 H1748 0.950 . S
C1758 C1759 1.386 . S
C1758 C1760 1.391 . S
C1759 C1758 1.386 . S
C1759 C1763 1.393 . S
C1760 H1749 0.950 . S
C1760 C1758 1.391 . S
C1760 C1761 1.400 . S
C1761 C1755 1.491 . S
C1761 C1760 1.400 . S
C1761 C1762 1.398 . S
C1762 H1750 0.950 . S
C1762 C1761 1.398 . S
C1762 C1763 1.391 . S
C1763 H1751 0.950 . S
C1763 C1759 1.393 . S
C1763 C1762 1.391 . S
H1764 C1772 0.950 . S
H1765 C1777 0.950 . S
H1766 C1774 0.950 . S
H1767 C1776 0.950 . S
H1768 C1778 0.950 . S
H1769 C1780 0.950 . S
H1770 C1782 0.950 . S
H1771 C1783 0.950 . S
C1772 H1764 0.950 . S
C1772 C1773 1.386 . S
C1772 C1774 1.391 . S
C1773 C1772 1.386 . S
C1773 C1777 1.393 . S
C1774 H1766 0.950 . S
C1774 C1772 1.391 . S
C1774 C1775 1.400 . S
C1775 C1774 1.400 . S
C1775 C1776 1.398 . S
C1775 C1781 1.491 . S
C1776 H1767 0.950 . S
C1776 C1775 1.398 . S
C1776 C1777 1.391 . S
C1777 H1765 0.950 . S
C1777 C1773 1.393 . S
C1777 C1776 1.391 . S
C1778 H1768 0.950 . S
C1778 C1779 1.386 . S
C1778 C1780 1.391 . S
C1779 C1778 1.386 . S
C1779 C1783 1.393 . S
C1780 H1769 0.950 . S
C1780 C1778 1.391 . S
C1780 C1781 1.400 . S
C1781 C1775 1.491 . S
C1781 C1780 1.400 . S
C1781 C1782 1.398 . S
C1782 H1770 0.950 . S
C1782 C1781 1.398 . S
C1782 C1783 1.391 . S
C1783 H1771 0.950 . S
C1783 C1779 1.393 . S
C1783 C1782 1.391 . S
H1784 C1792 0.950 . S
H1785 C1797 0.950 . S
H1786 C1794 0.950 . S
H1787 C1796 0.950 . S
H1788 C1798 0.950 . S
H1789 C1800 0.950 . S
H1790 C1802 0.950 . S
H1791 C1803 0.950 . S
C1792 H1784 0.950 . S
C1792 C1793 1.386 . S
C1792 C1794 1.391 . S
C1793 C1792 1.386 . S
C1793 C1797 1.393 . S
C1794 H1786 0.950 . S
C1794 C1792 1.391 . S
C1794 C1795 1.400 . S
C1795 C1794 1.400 . S
C1795 C1796 1.398 . S
C1795 C1801 1.491 . S
C1796 H1787 0.950 . S
C1796 C1795 1.398 . S
C1796 C1797 1.391 . S
C1797 H1785 0.950 . S
C1797 C1793 1.393 . S
C1797 C1796 1.391 . S
C1798 H1788 0.950 . S
C1798 C1799 1.386 . S
C1798 C1800 1.391 . S
C1799 C1798 1.386 . S
C1799 C1803 1.393 . S
C1800 H1789 0.950 . S
C1800 C1798 1.391 . S
C1800 C1801 1.400 . S
C1801 C1795 1.491 . S
C1801 C1800 1.400 . S
C1801 C1802 1.398 . S
C1802 H1790 0.950 . S
C1802 C1801 1.398 . S
C1802 C1803 1.391 . S
C1803 H1791 0.950 . S
C1803 C1799 1.393 . S
C1803 C1802 1.391 . S
H1804 C1812 0.950 . S
H1805 C1817 0.950 . S
H1806 C1814 0.950 . S
H1807 C1816 0.950 . S
H1808 C1818 0.950 . S
H1809 C1820 0.950 . S
H1810 C1822 0.950 . S
H1811 C1823 0.950 . S
C1812 H1804 0.950 . S
C1812 C1813 1.386 . S
C1812 C1814 1.391 . S
C1813 C1812 1.386 . S
C1813 C1817 1.393 . S
C1814 H1806 0.950 . S
C1814 C1812 1.391 . S
C1814 C1815 1.400 . S
C1815 C1814 1.400 . S
C1815 C1816 1.398 . S
C1815 C1821 1.491 . S
C1816 H1807 0.950 . S
C1816 C1815 1.398 . S
C1816 C1817 1.391 . S
C1817 H1805 0.950 . S
C1817 C1813 1.393 . S
C1817 C1816 1.391 . S
C1818 H1808 0.950 . S
C1818 C1819 1.386 . S
C1818 C1820 1.391 . S
C1819 C1818 1.386 . S
C1819 C1823 1.393 . S
C1820 H1809 0.950 . S
C1820 C1818 1.391 . S
C1820 C1821 1.400 . S
C1821 C1815 1.491 . S
C1821 C1820 1.400 . S
C1821 C1822 1.398 . S
C1822 H1810 0.950 . S
C1822 C1821 1.398 . S
C1822 C1823 1.391 . S
C1823 H1811 0.950 . S
C1823 C1819 1.393 . S
C1823 C1822 1.391 . S
H1824 C1832 0.950 . S
H1825 C1837 0.950 . S
H1826 C1834 0.950 . S
H1827 C1836 0.950 1_655 S
H1828 C1838 0.950 . S
H1829 C1840 0.950 . S
H1830 C1842 0.950 1_455 S
H1831 C1843 0.950 . S
C1832 H1824 0.950 . S
C1832 C1833 1.386 . S
C1832 C1834 1.391 . S
C1833 C1832 1.386 . S
C1833 C1837 1.393 . S
C1834 H1826 0.950 . S
C1834 C1832 1.391 . S
C1834 C1835 1.400 . S
C1835 C1834 1.400 . S
C1835 C1836 1.398 . S
C1835 C1841 1.491 1_455 S
C1836 H1827 0.950 1_455 S
C1836 C1835 1.398 . S
C1836 C1837 1.391 . S
C1837 H1825 0.950 . S
C1837 C1833 1.393 . S
C1837 C1836 1.391 . S
C1838 H1828 0.950 . S
C1838 C1839 1.386 . S
C1838 C1840 1.391 . S
C1839 C1838 1.386 . S
C1839 C1843 1.393 . S
C1840 H1829 0.950 . S
C1840 C1838 1.391 . S
C1840 C1841 1.400 . S
C1841 C1835 1.491 1_655 S
C1841 C1840 1.400 . S
C1841 C1842 1.398 . S
C1842 H1830 0.950 1_655 S
C1842 C1841 1.398 . S
C1842 C1843 1.391 . S
C1843 H1831 0.950 . S
C1843 C1839 1.393 . S
C1843 C1842 1.391 . S
H1844 C1852 0.950 . S
H1845 C1857 0.950 . S
H1846 C1854 0.950 . S
H1847 C1856 0.950 . S
H1848 C1858 0.950 . S
H1849 C1860 0.950 . S
H1850 C1862 0.950 . S
H1851 C1863 0.950 . S
C1852 H1844 0.950 . S
C1852 C1853 1.386 . S
C1852 C1854 1.391 . S
C1853 C1852 1.386 . S
C1853 C1857 1.393 . S
C1854 H1846 0.950 . S
C1854 C1852 1.391 . S
C1854 C1855 1.400 . S
C1855 C1854 1.400 . S
C1855 C1856 1.398 . S
C1855 C1861 1.491 . S
C1856 H1847 0.950 . S
C1856 C1855 1.398 . S
C1856 C1857 1.391 . S
C1857 H1845 0.950 . S
C1857 C1853 1.393 . S
C1857 C1856 1.391 . S
C1858 H1848 0.950 . S
C1858 C1859 1.386 . S
C1858 C1860 1.391 . S
C1859 C1858 1.386 . S
C1859 C1863 1.393 . S
C1860 H1849 0.950 . S
C1860 C1858 1.391 . S
C1860 C1861 1.400 . S
C1861 C1855 1.491 . S
C1861 C1860 1.400 . S
C1861 C1862 1.398 . S
C1862 H1850 0.950 . S
C1862 C1861 1.398 . S
C1862 C1863 1.391 . S
C1863 H1851 0.950 . S
C1863 C1859 1.393 . S
C1863 C1862 1.391 . S
H1864 C1872 0.950 . S
H1865 C1877 0.950 . S
H1866 C1874 0.950 . S
H1867 C1876 0.950 . S
H1868 C1878 0.950 . S
H1869 C1880 0.950 . S
H1870 C1882 0.950 . S
H1871 C1883 0.950 . S
C1872 H1864 0.950 . S
C1872 C1873 1.386 . S
C1872 C1874 1.391 . S
C1873 C1872 1.386 . S
C1873 C1877 1.393 . S
C1874 H1866 0.950 . S
C1874 C1872 1.391 . S
C1874 C1875 1.400 . S
C1875 C1874 1.400 . S
C1875 C1876 1.398 . S
C1875 C1881 1.491 1_545 S
C1876 H1867 0.950 . S
C1876 C1875 1.398 . S
C1876 C1877 1.391 . S
C1877 H1865 0.950 . S
C1877 C1873 1.393 . S
C1877 C1876 1.391 . S
C1878 H1868 0.950 . S
C1878 C1879 1.386 . S
C1878 C1880 1.391 . S
C1879 C1878 1.386 . S
C1879 C1883 1.393 . S
C1880 H1869 0.950 . S
C1880 C1878 1.391 . S
C1880 C1881 1.400 . S
C1881 C1875 1.491 1_565 S
C1881 C1880 1.400 . S
C1881 C1882 1.398 . S
C1882 H1870 0.950 . S
C1882 C1881 1.398 . S
C1882 C1883 1.391 . S
C1883 H1871 0.950 . S
C1883 C1879 1.393 . S
C1883 C1882 1.391 . S
H1884 C1892 0.950 . S
H1885 C1897 0.950 . S
H1886 C1894 0.950 . S
H1887 C1896 0.950 . S
H1888 C1898 0.950 . S
H1889 C1900 0.950 . S
H1890 C1902 0.950 . S
H1891 C1903 0.950 . S
C1892 H1884 0.950 . S
C1892 C1893 1.386 . S
C1892 C1894 1.391 . S
C1893 C1892 1.386 . S
C1893 C1897 1.393 . S
C1894 H1886 0.950 . S
C1894 C1892 1.391 . S
C1894 C1895 1.400 . S
C1895 C1894 1.400 . S
C1895 C1896 1.398 . S
C1895 C1901 1.491 1_565 S
C1896 H1887 0.950 . S
C1896 C1895 1.398 . S
C1896 C1897 1.391 . S
C1897 H1885 0.950 . S
C1897 C1893 1.393 . S
C1897 C1896 1.391 . S
C1898 H1888 0.950 . S
C1898 C1899 1.386 . S
C1898 C1900 1.391 . S
C1899 C1898 1.386 . S
C1899 C1903 1.393 . S
C1900 H1889 0.950 . S
C1900 C1898 1.391 . S
C1900 C1901 1.400 . S
C1901 C1895 1.491 1_545 S
C1901 C1900 1.400 . S
C1901 C1902 1.398 . S
C1902 H1890 0.950 . S
C1902 C1901 1.398 . S
C1902 C1903 1.391 . S
C1903 H1891 0.950 . S
C1903 C1899 1.393 . S
C1903 C1902 1.391 . S
H1904 C1912 0.950 . S
H1905 C1917 0.950 . S
H1906 C1914 0.950 . S
H1907 C1916 0.950 . S
H1908 C1918 0.950 . S
H1909 C1920 0.950 . S
H1910 C1922 0.950 . S
H1911 C1923 0.950 . S
C1912 H1904 0.950 . S
C1912 C1913 1.386 . S
C1912 C1914 1.391 . S
C1913 C1912 1.386 . S
C1913 C1917 1.393 . S
C1914 H1906 0.950 . S
C1914 C1912 1.391 . S
C1914 C1915 1.400 . S
C1915 C1914 1.400 . S
C1915 C1916 1.398 . S
C1915 C1921 1.491 1_655 S
C1916 H1907 0.950 . S
C1916 C1915 1.398 . S
C1916 C1917 1.391 . S
C1917 H1905 0.950 . S
C1917 C1913 1.393 . S
C1917 C1916 1.391 . S
C1918 H1908 0.950 . S
C1918 C1919 1.386 . S
C1918 C1920 1.391 . S
C1919 C1918 1.386 . S
C1919 C1923 1.393 . S
C1920 H1909 0.950 . S
C1920 C1918 1.391 . S
C1920 C1921 1.400 . S
C1921 C1915 1.491 1_455 S
C1921 C1920 1.400 . S
C1921 C1922 1.398 . S
C1922 H1910 0.950 . S
C1922 C1921 1.398 . S
C1922 C1923 1.391 . S
C1923 H1911 0.950 . S
C1923 C1919 1.393 . S
C1923 C1922 1.391 . S
H1924 C1932 0.950 . S
H1925 C1937 0.950 . S
H1926 C1934 0.950 . S
H1927 C1936 0.950 . S
H1928 C1938 0.950 . S
H1929 C1940 0.950 . S
H1930 C1942 0.950 . S
H1931 C1943 0.950 . S
C1932 H1924 0.950 . S
C1932 C1933 1.386 . S
C1932 C1934 1.391 . S
C1933 C1932 1.386 . S
C1933 C1937 1.393 . S
C1934 H1926 0.950 . S
C1934 C1932 1.391 . S
C1934 C1935 1.400 . S
C1935 C1934 1.400 . S
C1935 C1936 1.398 . S
C1935 C1941 1.491 . S
C1936 H1927 0.950 . S
C1936 C1935 1.398 . S
C1936 C1937 1.391 . S
C1937 H1925 0.950 . S
C1937 C1933 1.393 . S
C1937 C1936 1.391 . S
C1938 H1928 0.950 . S
C1938 C1939 1.386 . S
C1938 C1940 1.391 . S
C1939 C1938 1.386 . S
C1939 C1943 1.393 . S
C1940 H1929 0.950 . S
C1940 C1938 1.391 . S
C1940 C1941 1.400 . S
C1941 C1935 1.491 . S
C1941 C1940 1.400 . S
C1941 C1942 1.398 . S
C1942 H1930 0.950 . S
C1942 C1941 1.398 . S
C1942 C1943 1.391 . S
C1943 H1931 0.950 . S
C1943 C1939 1.393 . S
C1943 C1942 1.391 . S
C513 C68 1.198 . S
C519 C13 1.214 . S
C533 C83 1.199 . S
C539 C26 1.213 . S
C553 C42 1.200 . S
C559 C29 1.208 . S
C573 C153 1.219 . S
C579 C84 1.202 . S
C593 C110 1.215 . S
C599 C166 1.198 . S
C613 C139 1.218 . S
C619 C124 1.208 . S
C633 C169 1.231 . S
C639 C236 1.247 . S
C653 C251 1.238 . S
C659 C195 1.237 1_565 S
C673 C208 1.239 1_455 S
C679 C210 1.236 . S
C693 C264 1.244 . S
C699 C309 1.234 . S
C713 C322 1.256 . S
C719 C266 1.247 . S
C733 C280 1.230 . S
C739 C306 1.249 . S
C753 C404 1.239 1_545 S
C759 C349 1.234 . S
C773 C363 1.247 . S
C779 C407 1.257 . S
C793 C390 1.234 . S
C799 C365 1.244 . S
C813 C489 1.231 . S
C819 C432 1.245 . S
C833 C446 1.200 1_545 S
C839 C502 1.229 . S
C853 C448 1.241 1_655 S
C859 C475 1.239 . S
C873 C167 1.706 . S
C879 C12 1.711 . S
C893 C27 1.703 . S
C899 C138 1.712 . S
C913 C152 1.707 . S
C919 C28 1.711 . S
C933 C111 1.708 . S
C939 C43 1.708 . S
C953 C69 1.704 . S
C959 C125 1.714 . S
C973 C85 1.703 . S
C979 C82 1.715 . S
C993 C168 1.770 . S
C999 C323 1.781 . S
C1013 C307 1.776 . S
C1019 C194 1.776 . S
C1033 C308 1.778 . S
C1039 C209 1.778 . S
C1053 C211 1.747 . S
C1059 C267 1.756 . S
C1073 C237 1.756 . S
C1079 C281 1.747 . S
C1093 C250 1.753 . S
C1099 C265 1.748 . S
C1113 C503 1.752 . S
C1119 C348 1.748 . S
C1133 C362 1.747 . S
C1139 C474 1.755 . S
C1153 C364 1.754 . S
C1159 C488 1.750 . S
C1173 C447 1.774 . S
C1179 C391 1.780 . S
C1193 C449 1.775 . S
C1199 C405 1.779 . S
C1213 C433 1.781 . S
C1219 C406 1.771 . S
C1233 C223 1.691 . S
C1239 C0 1.698 . S
C1253 C225 1.697 . S
C1259 C15 1.694 . S
C1273 C40 1.697 . S
C1279 C238 1.695 . S
C1293 C55 1.694 . S
C1299 C336 1.694 . S
C1313 C57 1.697 . S
C1319 C350 1.695 . S
C1333 C70 1.697 . S
C1339 C376 1.688 . S
C1353 C97 1.701 . S
C1359 C462 1.684 . S
C1373 C99 1.699 . S
C1379 C476 1.694 . S
C1393 C113 1.695 . S
C1399 C491 1.692 . S
C1413 C126 1.695 . S
C1419 C253 1.688 . S
C1433 C279 1.696 . S
C1439 C140 1.690 . S
C1453 C293 1.692 . S
C1459 C155 1.699 . S
C1473 C379 2.008 . S
C1479 C180 2.005 . S
C1493 C182 2.005 . S
C1499 C393 2.010 . S
C1513 C418 2.005 . S
C1519 C197 2.010 . S
C1533 C295 2.008 . S
C1539 C421 2.010 . S
C1553 C435 2.012 . S
C1559 C320 2.004 . S
C1573 C461 2.006 . S
C1579 C335 2.012 . S
C1593 C1 1.896 . S
C1599 C419 1.904 . S
C1613 C14 1.899 . S
C1619 C378 1.905 . S
C1633 C41 1.908 . S
C1639 C392 1.909 . S
C1653 C54 1.912 . S
C1659 C183 1.910 . S
C1673 C196 1.912 . S
C1679 C56 1.917 . S
C1693 C181 1.900 . S
C1699 C71 1.905 . S
C1713 C334 1.904 . S
C1719 C96 1.911 . S
C1733 C294 1.916 . S
C1739 C98 1.913 . S
C1753 C321 1.919 . S
C1759 C112 1.908 . S
C1773 C434 1.901 . S
C1779 C127 1.909 . S
C1793 C460 1.914 . S
C1799 C141 1.903 . S
C1813 C420 1.902 . S
C1819 C154 1.897 . S
C1833 C222 1.633 . S
C1839 C351 1.622 . S
C1853 C377 1.621 . S
C1859 C224 1.613 . S
C1873 C337 1.613 . S
C1879 C239 1.610 . S
C1893 C252 1.615 . S
C1899 C490 1.609 . S
C1913 C463 1.630 . S
C1919 C278 1.632 . S
C1933 C292 1.631 . S
C1939 C477 1.625 . S
