# Generated by pormake.
# Topology yfu, (5)-cn, num edge types: 1
# Building blocks:
#     Node 0, Type 0, BuildingBlock: XOMCOT_clean_sbu_1, # of connection points: 5
#     Node 1, Type 0, BuildingBlock: XOMCOT_clean_sbu_1, # of connection points: 5
#     Node 2, Type 0, BuildingBlock: XOMCOT_clean_sbu_1, # of connection points: 5
#     Node 3, Type 0, BuildingBlock: XOMCOT_clean_sbu_1, # of connection points: 5
#     Node 4, Type 0, BuildingBlock: XOMCOT_clean_sbu_1, # of connection points: 5
#     Node 5, Type 0, BuildingBlock: XOMCOT_clean_sbu_1, # of connection points: 5
#     Node 6, Type 0, BuildingBlock: XOMCOT_clean_sbu_1, # of connection points: 5
#     Node 7, Type 0, BuildingBlock: XOMCOT_clean_sbu_1, # of connection points: 5
#     Node 8, Type 0, BuildingBlock: XOMCOT_clean_sbu_1, # of connection points: 5
#     Node 9, Type 0, BuildingBlock: XOMCOT_clean_sbu_1, # of connection points: 5
#     Node 10, Type 0, BuildingBlock: XOMCOT_clean_sbu_1, # of connection points: 5
#     Node 11, Type 0, BuildingBlock: XOMCOT_clean_sbu_1, # of connection points: 5
#     Node 12, Type 0, BuildingBlock: XOMCOT_clean_sbu_1, # of connection points: 5
#     Node 13, Type 0, BuildingBlock: XOMCOT_clean_sbu_1, # of connection points: 5
#     Node 14, Type 0, BuildingBlock: XOMCOT_clean_sbu_1, # of connection points: 5
#     Node 15, Type 0, BuildingBlock: XOMCOT_clean_sbu_1, # of connection points: 5
#     Node 16, Type 0, BuildingBlock: XOMCOT_clean_sbu_1, # of connection points: 5
#     Node 17, Type 0, BuildingBlock: XOMCOT_clean_sbu_1, # of connection points: 5
#     Node 18, Type 0, BuildingBlock: XOMCOT_clean_sbu_1, # of connection points: 5
#     Node 19, Type 0, BuildingBlock: XOMCOT_clean_sbu_1, # of connection points: 5
#     Node 20, Type 0, BuildingBlock: XOMCOT_clean_sbu_1, # of connection points: 5
#     Node 21, Type 0, BuildingBlock: XOMCOT_clean_sbu_1, # of connection points: 5
#     Node 22, Type 0, BuildingBlock: XOMCOT_clean_sbu_1, # of connection points: 5
#     Node 23, Type 0, BuildingBlock: XOMCOT_clean_sbu_1, # of connection points: 5
#     Node 24, Type 0, BuildingBlock: XOMCOT_clean_sbu_1, # of connection points: 5
#     Node 25, Type 0, BuildingBlock: XOMCOT_clean_sbu_1, # of connection points: 5
#     Node 26, Type 0, BuildingBlock: XOMCOT_clean_sbu_1, # of connection points: 5
#     Node 27, Type 0, BuildingBlock: XOMCOT_clean_sbu_1, # of connection points: 5
#     Node 28, Type 0, BuildingBlock: XOMCOT_clean_sbu_1, # of connection points: 5
#     Node 29, Type 0, BuildingBlock: XOMCOT_clean_sbu_1, # of connection points: 5
#     Node 30, Type 0, BuildingBlock: XOMCOT_clean_sbu_1, # of connection points: 5
#     Node 31, Type 0, BuildingBlock: XOMCOT_clean_sbu_1, # of connection points: 5
#     Edge 32, Type (0, 0), BuildingBlock: MIFKUJ_clean_linker_0, # of connection points: 2
#     Edge 33, Type (0, 0), BuildingBlock: MIFKUJ_clean_linker_0, # of connection points: 2
#     Edge 34, Type (0, 0), BuildingBlock: MIFKUJ_clean_linker_0, # of connection points: 2
#     Edge 35, Type (0, 0), BuildingBlock: MIFKUJ_clean_linker_0, # of connection points: 2
#     Edge 36, Type (0, 0), BuildingBlock: MIFKUJ_clean_linker_0, # of connection points: 2
#     Edge 37, Type (0, 0), BuildingBlock: MIFKUJ_clean_linker_0, # of connection points: 2
#     Edge 38, Type (0, 0), BuildingBlock: MIFKUJ_clean_linker_0, # of connection points: 2
#     Edge 39, Type (0, 0), BuildingBlock: MIFKUJ_clean_linker_0, # of connection points: 2
#     Edge 40, Type (0, 0), BuildingBlock: MIFKUJ_clean_linker_0, # of connection points: 2
#     Edge 41, Type (0, 0), BuildingBlock: MIFKUJ_clean_linker_0, # of connection points: 2
#     Edge 42, Type (0, 0), BuildingBlock: MIFKUJ_clean_linker_0, # of connection points: 2
#     Edge 43, Type (0, 0), BuildingBlock: MIFKUJ_clean_linker_0, # of connection points: 2
#     Edge 44, Type (0, 0), BuildingBlock: MIFKUJ_clean_linker_0, # of connection points: 2
#     Edge 45, Type (0, 0), BuildingBlock: MIFKUJ_clean_linker_0, # of connection points: 2
#     Edge 46, Type (0, 0), BuildingBlock: MIFKUJ_clean_linker_0, # of connection points: 2
#     Edge 47, Type (0, 0), BuildingBlock: MIFKUJ_clean_linker_0, # of connection points: 2
#     Edge 48, Type (0, 0), BuildingBlock: MIFKUJ_clean_linker_0, # of connection points: 2
#     Edge 49, Type (0, 0), BuildingBlock: MIFKUJ_clean_linker_0, # of connection points: 2
#     Edge 50, Type (0, 0), BuildingBlock: MIFKUJ_clean_linker_0, # of connection points: 2
#     Edge 51, Type (0, 0), BuildingBlock: MIFKUJ_clean_linker_0, # of connection points: 2
#     Edge 52, Type (0, 0), BuildingBlock: MIFKUJ_clean_linker_0, # of connection points: 2
#     Edge 53, Type (0, 0), BuildingBlock: MIFKUJ_clean_linker_0, # of connection points: 2
#     Edge 54, Type (0, 0), BuildingBlock: MIFKUJ_clean_linker_0, # of connection points: 2
#     Edge 55, Type (0, 0), BuildingBlock: MIFKUJ_clean_linker_0, # of connection points: 2
#     Edge 56, Type (0, 0), BuildingBlock: MIFKUJ_clean_linker_0, # of connection points: 2
#     Edge 57, Type (0, 0), BuildingBlock: MIFKUJ_clean_linker_0, # of connection points: 2
#     Edge 58, Type (0, 0), BuildingBlock: MIFKUJ_clean_linker_0, # of connection points: 2
#     Edge 59, Type (0, 0), BuildingBlock: MIFKUJ_clean_linker_0, # of connection points: 2
#     Edge 60, Type (0, 0), BuildingBlock: MIFKUJ_clean_linker_0, # of connection points: 2
#     Edge 61, Type (0, 0), BuildingBlock: MIFKUJ_clean_linker_0, # of connection points: 2
#     Edge 62, Type (0, 0), BuildingBlock: MIFKUJ_clean_linker_0, # of connection points: 2
#     Edge 63, Type (0, 0), BuildingBlock: MIFKUJ_clean_linker_0, # of connection points: 2
#     Edge 64, Type (0, 0), BuildingBlock: MIFKUJ_clean_linker_0, # of connection points: 2
#     Edge 65, Type (0, 0), BuildingBlock: MIFKUJ_clean_linker_0, # of connection points: 2
#     Edge 66, Type (0, 0), BuildingBlock: MIFKUJ_clean_linker_0, # of connection points: 2
#     Edge 67, Type (0, 0), BuildingBlock: MIFKUJ_clean_linker_0, # of connection points: 2
#     Edge 68, Type (0, 0), BuildingBlock: MIFKUJ_clean_linker_0, # of connection points: 2
#     Edge 69, Type (0, 0), BuildingBlock: MIFKUJ_clean_linker_0, # of connection points: 2
#     Edge 70, Type (0, 0), BuildingBlock: MIFKUJ_clean_linker_0, # of connection points: 2
#     Edge 71, Type (0, 0), BuildingBlock: MIFKUJ_clean_linker_0, # of connection points: 2
#     Edge 72, Type (0, 0), BuildingBlock: MIFKUJ_clean_linker_0, # of connection points: 2
#     Edge 73, Type (0, 0), BuildingBlock: MIFKUJ_clean_linker_0, # of connection points: 2
#     Edge 74, Type (0, 0), BuildingBlock: MIFKUJ_clean_linker_0, # of connection points: 2
#     Edge 75, Type (0, 0), BuildingBlock: MIFKUJ_clean_linker_0, # of connection points: 2
#     Edge 76, Type (0, 0), BuildingBlock: MIFKUJ_clean_linker_0, # of connection points: 2
#     Edge 77, Type (0, 0), BuildingBlock: MIFKUJ_clean_linker_0, # of connection points: 2
#     Edge 78, Type (0, 0), BuildingBlock: MIFKUJ_clean_linker_0, # of connection points: 2
#     Edge 79, Type (0, 0), BuildingBlock: MIFKUJ_clean_linker_0, # of connection points: 2
#     Edge 80, Type (0, 0), BuildingBlock: MIFKUJ_clean_linker_0, # of connection points: 2
#     Edge 81, Type (0, 0), BuildingBlock: MIFKUJ_clean_linker_0, # of connection points: 2
#     Edge 82, Type (0, 0), BuildingBlock: MIFKUJ_clean_linker_0, # of connection points: 2
#     Edge 83, Type (0, 0), BuildingBlock: MIFKUJ_clean_linker_0, # of connection points: 2
#     Edge 84, Type (0, 0), BuildingBlock: MIFKUJ_clean_linker_0, # of connection points: 2
#     Edge 85, Type (0, 0), BuildingBlock: MIFKUJ_clean_linker_0, # of connection points: 2
#     Edge 86, Type (0, 0), BuildingBlock: MIFKUJ_clean_linker_0, # of connection points: 2
#     Edge 87, Type (0, 0), BuildingBlock: MIFKUJ_clean_linker_0, # of connection points: 2
#     Edge 88, Type (0, 0), BuildingBlock: MIFKUJ_clean_linker_0, # of connection points: 2
#     Edge 89, Type (0, 0), BuildingBlock: MIFKUJ_clean_linker_0, # of connection points: 2
#     Edge 90, Type (0, 0), BuildingBlock: MIFKUJ_clean_linker_0, # of connection points: 2
#     Edge 91, Type (0, 0), BuildingBlock: MIFKUJ_clean_linker_0, # of connection points: 2
#     Edge 92, Type (0, 0), BuildingBlock: MIFKUJ_clean_linker_0, # of connection points: 2
#     Edge 93, Type (0, 0), BuildingBlock: MIFKUJ_clean_linker_0, # of connection points: 2
#     Edge 94, Type (0, 0), BuildingBlock: MIFKUJ_clean_linker_0, # of connection points: 2
#     Edge 95, Type (0, 0), BuildingBlock: MIFKUJ_clean_linker_0, # of connection points: 2
#     Edge 96, Type (0, 0), BuildingBlock: MIFKUJ_clean_linker_0, # of connection points: 2
#     Edge 97, Type (0, 0), BuildingBlock: MIFKUJ_clean_linker_0, # of connection points: 2
#     Edge 98, Type (0, 0), BuildingBlock: MIFKUJ_clean_linker_0, # of connection points: 2
#     Edge 99, Type (0, 0), BuildingBlock: MIFKUJ_clean_linker_0, # of connection points: 2
#     Edge 100, Type (0, 0), BuildingBlock: MIFKUJ_clean_linker_0, # of connection points: 2
#     Edge 101, Type (0, 0), BuildingBlock: MIFKUJ_clean_linker_0, # of connection points: 2
#     Edge 102, Type (0, 0), BuildingBlock: MIFKUJ_clean_linker_0, # of connection points: 2
#     Edge 103, Type (0, 0), BuildingBlock: MIFKUJ_clean_linker_0, # of connection points: 2
#     Edge 104, Type (0, 0), BuildingBlock: MIFKUJ_clean_linker_0, # of connection points: 2
#     Edge 105, Type (0, 0), BuildingBlock: MIFKUJ_clean_linker_0, # of connection points: 2
#     Edge 106, Type (0, 0), BuildingBlock: MIFKUJ_clean_linker_0, # of connection points: 2
#     Edge 107, Type (0, 0), BuildingBlock: MIFKUJ_clean_linker_0, # of connection points: 2
#     Edge 108, Type (0, 0), BuildingBlock: MIFKUJ_clean_linker_0, # of connection points: 2
#     Edge 109, Type (0, 0), BuildingBlock: MIFKUJ_clean_linker_0, # of connection points: 2
#     Edge 110, Type (0, 0), BuildingBlock: MIFKUJ_clean_linker_0, # of connection points: 2
#     Edge 111, Type (0, 0), BuildingBlock: MIFKUJ_clean_linker_0, # of connection points: 2
# Relax obj value: 0.460
# Max RMSD: 0.265
# Mean RMSD: 0.265
data_MOF--net-yfu--node1-XOMCOT_clean_sbu_1--edge1-MIFKUJ_clean_linker_0
_symmetry_space_group_name_H-M    P1
_symmetry_Int_Tables_number       1
_symmetry_cell_setting            triclinic
loop_
_symmetry_equiv_pos_as_xyz
'x, y, z'
_cell_length_a     58.130986
_cell_length_b     58.058101
_cell_length_c     102.66787
_cell_angle_alpha  90.027803
_cell_angle_beta   90.01928
_cell_angle_gamma 89.961512
loop_
_atom_site_label
_atom_site_type_symbol
_atom_site_fract_x
_atom_site_fract_y
_atom_site_fract_z
_atom_type_partial_charge
C0 C 0.06532 0.10553 0.29269 0.0
C1 C 0.0501 0.12234 0.28882 0.0
N2 N 0.06075 0.14299 0.28902 0.0
N3 N 0.0859 0.11498 0.29551 0.0
C4 C 0.08286 0.13768 0.29236 0.0
H5 H 0.06101 0.08763 0.29423 0.0
Co6 Co 0.10884 0.09874 0.30595 0.0
C7 C 0.11455 0.14766 0.31671 0.0
O8 O 0.09314 0.15498 0.31683 0.0
N9 N 0.13102 0.08307 0.31703 0.0
C10 C 0.15015 0.07683 0.33565 0.0
C11 C 0.13698 0.09206 0.32875 0.0
C12 C 0.14088 0.06166 0.31729 0.0
N13 N 0.15279 0.05769 0.32853 0.0
O14 O 0.13121 0.10112 0.29253 0.0
H15 H 0.13105 0.10829 0.33261 0.0
H16 H 0.13829 0.04882 0.30981 0.0
O17 O 0.11948 0.12739 0.3129 0.0
C18 C 0.12645 0.08726 0.28334 0.0
O19 O 0.10665 0.07641 0.28363 0.0
N20 N 0.08736 0.09355 0.31866 0.0
C21 C 0.0616 0.07316 0.33807 0.0
C22 C 0.06856 0.09621 0.33918 0.0
C23 C 0.08183 0.10603 0.32944 0.0
C24 C 0.08 0.07143 0.31721 0.0
C25 C 0.06706 0.0608 0.32683 0.0
H26 H 0.08857 0.12289 0.33113 0.0
H27 H 0.0853 0.06164 0.30876 0.0
H28 H 0.09628 0.15042 0.29321 0.0
H29 H 0.03213 0.11942 0.28668 0.0
H30 H 0.15673 0.07933 0.34542 0.0
H31 H 0.06419 0.10648 0.34764 0.0
H32 H 0.06198 0.04297 0.32566 0.0
C33 C 0.14604 0.82615 0.53861 0.0
C34 C 0.12762 0.81314 0.5344 0.0
N35 N 0.10935 0.81731 0.54218 0.0
N36 N 0.13974 0.83879 0.54901 0.0
C37 C 0.11717 0.83325 0.55082 0.0
H38 H 0.16333 0.82536 0.53475 0.0
Co39 Co 0.16046 0.8549 0.56028 0.0
C40 C 0.12813 0.86831 0.58155 0.0
O41 O 0.13934 0.858 0.59097 0.0
N42 N 0.18108 0.8713 0.57236 0.0
C43 C 0.20115 0.8788 0.59055 0.0
C44 C 0.18617 0.86413 0.58464 0.0
C45 C 0.19319 0.89141 0.57143 0.0
N46 N 0.20579 0.89594 0.58229 0.0
O47 O 0.15943 0.88116 0.54918 0.0
H48 H 0.17964 0.84896 0.58938 0.0
H49 H 0.19282 0.90257 0.56306 0.0
O50 O 0.13487 0.86696 0.56978 0.0
C51 C 0.17631 0.87841 0.54147 0.0
O52 O 0.18951 0.86023 0.54291 0.0
N53 N 0.16342 0.82829 0.5699 0.0
C54 C 0.17654 0.7969 0.5885 0.0
C55 C 0.15303 0.80078 0.58592 0.0
C56 C 0.14677 0.81692 0.57659 0.0
C57 C 0.18552 0.82045 0.56995 0.0
C58 C 0.19279 0.80542 0.57964 0.0
H59 H 0.12889 0.82154 0.57559 0.0
H60 H 0.19819 0.82857 0.56374 0.0
H61 H 0.10706 0.83956 0.5589 0.0
H62 H 0.12807 0.80096 0.52643 0.0
H63 H 0.20816 0.87707 0.60028 0.0
H64 H 0.13962 0.79278 0.59165 0.0
H65 H 0.21104 0.80241 0.58079 0.0
C66 C 0.43599 0.89968 0.80007 0.0
C67 C 0.45234 0.88348 0.79701 0.0
N68 N 0.44183 0.8635 0.79393 0.0
N69 N 0.41478 0.89038 0.79929 0.0
C70 C 0.41896 0.86868 0.79471 0.0
H71 H 0.4396 0.91661 0.80394 0.0
Co72 Co 0.38958 0.90467 0.80882 0.0
C73 C 0.37472 0.85349 0.81211 0.0
O74 O 0.39432 0.8423 0.81271 0.0
N75 N 0.3652 0.91855 0.81911 0.0
C76 C 0.34368 0.92087 0.83708 0.0
C77 C 0.35751 0.90708 0.8297 0.0
C78 C 0.35589 0.94007 0.82061 0.0
N79 N 0.34277 0.94187 0.83162 0.0
O80 O 0.3725 0.90894 0.79338 0.0
H81 H 0.36317 0.89014 0.83263 0.0
H82 H 0.36016 0.95451 0.8144 0.0
O83 O 0.37433 0.87535 0.81115 0.0
C84 C 0.38148 0.92549 0.7871 0.0
O85 O 0.40006 0.93539 0.79175 0.0
N86 N 0.40706 0.90334 0.82357 0.0
C87 C 0.44178 0.91286 0.84115 0.0
C88 C 0.43461 0.88999 0.83905 0.0
C89 C 0.41719 0.88554 0.82998 0.0
C90 C 0.41327 0.92552 0.82588 0.0
C91 C 0.43059 0.93067 0.83454 0.0
H92 H 0.41295 0.86808 0.8276 0.0
H93 H 0.40585 0.93925 0.82014 0.0
H94 H 0.40554 0.85662 0.79231 0.0
H95 H 0.47065 0.88601 0.79811 0.0
H96 H 0.33586 0.91606 0.84625 0.0
H97 H 0.44283 0.87572 0.84399 0.0
H98 H 0.43598 0.94846 0.83539 0.0
C99 C 0.35112 0.18986 0.04766 0.0
C100 C 0.36795 0.20554 0.04435 0.0
N101 N 0.38878 0.19546 0.04554 0.0
N102 N 0.36092 0.1697 0.05105 0.0
C103 C 0.38386 0.17345 0.04915 0.0
H104 H 0.33295 0.19354 0.04857 0.0
Co105 Co 0.34471 0.14642 0.06075 0.0
C106 C 0.39286 0.13518 0.07247 0.0
O107 O 0.40428 0.15441 0.07428 0.0
N108 N 0.3294 0.12322 0.07121 0.0
C109 C 0.32432 0.10204 0.08917 0.0
C110 C 0.33772 0.11817 0.08321 0.0
C111 C 0.30991 0.11016 0.07043 0.0
N112 N 0.30676 0.09689 0.08123 0.0
O113 O 0.34717 0.12552 0.0466 0.0
H114 H 0.35225 0.12645 0.08778 0.0
H115 H 0.29811 0.11064 0.06231 0.0
O116 O 0.37265 0.13522 0.06788 0.0
C117 C 0.32897 0.12932 0.04006 0.0
O118 O 0.31473 0.14542 0.04406 0.0
N119 N 0.33962 0.16734 0.07388 0.0
C120 C 0.32402 0.20185 0.09013 0.0
C121 C 0.34771 0.19836 0.08839 0.0
C122 C 0.35521 0.18096 0.08008 0.0
C123 C 0.31659 0.17064 0.0755 0.0
C124 C 0.30837 0.18757 0.08378 0.0
H125 H 0.37323 0.17952 0.07805 0.0
H126 H 0.30445 0.16054 0.06993 0.0
H127 H 0.39691 0.16068 0.05099 0.0
H128 H 0.36494 0.22338 0.04184 0.0
H129 H 0.32679 0.09516 0.09887 0.0
H130 H 0.36022 0.20944 0.09307 0.0
H131 H 0.28999 0.19021 0.08468 0.0
C132 C 0.06915 0.90154 0.18869 0.0
C133 C 0.05377 0.88466 0.19263 0.0
N134 N 0.06189 0.86401 0.18881 0.0
N135 N 0.08705 0.8917 0.18242 0.0
C136 C 0.08218 0.86872 0.18297 0.0
H137 H 0.06669 0.91992 0.18965 0.0
Co138 Co 0.11065 0.9072 0.17248 0.0
C139 C 0.12099 0.86067 0.1602 0.0
O140 O 0.10437 0.86001 0.1516 0.0
N141 N 0.13495 0.9214 0.1621 0.0
C142 C 0.15852 0.9253 0.14502 0.0
C143 C 0.14267 0.91148 0.15098 0.0
C144 C 0.14629 0.94201 0.16236 0.0
N145 N 0.16082 0.94458 0.15207 0.0
O146 O 0.13005 0.90765 0.18735 0.0
H147 H 0.13632 0.89567 0.14684 0.0
H148 H 0.14337 0.9552 0.1696 0.0
O149 O 0.12357 0.87785 0.16774 0.0
C150 C 0.12596 0.92731 0.19233 0.0
O151 O 0.11052 0.94062 0.18676 0.0
N152 N 0.09025 0.91029 0.15841 0.0
C153 C 0.05628 0.92589 0.14159 0.0
C154 C 0.05595 0.90313 0.14609 0.0
C155 C 0.07295 0.89574 0.15472 0.0
C156 C 0.0899 0.93273 0.15435 0.0
C157 C 0.07364 0.94065 0.1456 0.0
H158 H 0.071 0.87898 0.15904 0.0
H159 H 0.10119 0.94534 0.15861 0.0
H160 H 0.09251 0.85541 0.17862 0.0
H161 H 0.03719 0.8875 0.19715 0.0
H162 H 0.16693 0.92196 0.13579 0.0
H163 H 0.04209 0.89155 0.14345 0.0
H164 H 0.07363 0.95864 0.14277 0.0
C165 C 0.34906 0.81634 0.42944 0.0
C166 C 0.36467 0.79941 0.43262 0.0
N167 N 0.38513 0.80921 0.43542 0.0
N168 N 0.35922 0.83717 0.43001 0.0
C169 C 0.38083 0.83225 0.43448 0.0
H170 H 0.33192 0.8134 0.42569 0.0
Co171 Co 0.34596 0.86302 0.42067 0.0
C172 C 0.39737 0.87639 0.41726 0.0
O173 O 0.40803 0.85654 0.41617 0.0
N174 N 0.33319 0.88858 0.41061 0.0
C175 C 0.33214 0.91089 0.39291 0.0
C176 C 0.34469 0.89526 0.39982 0.0
C177 C 0.31285 0.90045 0.4097 0.0
N178 N 0.31194 0.91444 0.39897 0.0
O179 O 0.34183 0.87947 0.43643 0.0
H180 H 0.36087 0.88807 0.3966 0.0
H181 H 0.2987 0.89817 0.41642 0.0
O182 O 0.37562 0.87731 0.41852 0.0
C183 C 0.32149 0.87373 0.43962 0.0
O184 O 0.31056 0.85867 0.43233 0.0
N185 N 0.34681 0.84592 0.40557 0.0
C186 C 0.3358 0.81367 0.38681 0.0
C187 C 0.3589 0.81738 0.39028 0.0
C188 C 0.36412 0.83384 0.39979 0.0
C189 C 0.32448 0.84262 0.40203 0.0
C190 C 0.31862 0.82695 0.39253 0.0
H191 H 0.38157 0.83553 0.40305 0.0
H192 H 0.3108 0.85128 0.4072 0.0
H193 H 0.39356 0.84522 0.43654 0.0
H194 H 0.36131 0.78111 0.43214 0.0
H195 H 0.33712 0.91797 0.38359 0.0
H196 H 0.37255 0.80703 0.3861 0.0
H197 H 0.30059 0.82409 0.39041 0.0
C198 C 0.43622 0.10446 0.68238 0.0
C199 C 0.45193 0.12101 0.68591 0.0
N200 N 0.44132 0.14166 0.68641 0.0
N201 N 0.41541 0.11418 0.68052 0.0
C202 C 0.4189 0.13674 0.68371 0.0
H203 H 0.44022 0.08667 0.68024 0.0
Co204 Co 0.39186 0.09805 0.67087 0.0
C205 C 0.3791 0.14715 0.66144 0.0
O206 O 0.39829 0.15903 0.66151 0.0
N207 N 0.36869 0.08256 0.6606 0.0
C208 C 0.34686 0.07733 0.64293 0.0
C209 C 0.36274 0.09114 0.64881 0.0
C210 C 0.35639 0.06259 0.66137 0.0
N211 N 0.34279 0.05932 0.65074 0.0
O212 O 0.37197 0.09773 0.68557 0.0
H213 H 0.37034 0.10608 0.64433 0.0
H214 H 0.35759 0.05059 0.66939 0.0
O215 O 0.37878 0.12611 0.66469 0.0
C216 C 0.37863 0.07891 0.69075 0.0
O217 O 0.39727 0.06902 0.68614 0.0
N218 N 0.41182 0.09505 0.65714 0.0
C219 C 0.44617 0.08079 0.64045 0.0
C220 C 0.44059 0.10427 0.64143 0.0
C221 C 0.42324 0.11114 0.64999 0.0
C222 C 0.41672 0.07222 0.65595 0.0
C223 C 0.43366 0.06467 0.64756 0.0
H224 H 0.41993 0.12917 0.65127 0.0
H225 H 0.40787 0.05975 0.66193 0.0
H226 H 0.4055 0.14957 0.68357 0.0
H227 H 0.47011 0.118 0.68734 0.0
H228 H 0.33953 0.0798 0.63333 0.0
H229 H 0.45022 0.11718 0.63612 0.0
H230 H 0.43734 0.04641 0.64693 0.0
C231 C 0.14453 0.17766 0.94467 0.0
C232 C 0.12614 0.19088 0.94899 0.0
N233 N 0.10781 0.18684 0.94126 0.0
N234 N 0.13802 0.16502 0.93427 0.0
C235 C 0.11541 0.17086 0.93264 0.0
H236 H 0.16182 0.17805 0.94854 0.0
Co237 Co 0.15704 0.14659 0.92281 0.0
C238 C 0.11421 0.1309 0.90815 0.0
O239 O 0.11343 0.14588 0.89863 0.0
N240 N 0.17464 0.12772 0.91039 0.0
C241 C 0.18189 0.11374 0.89049 0.0
C242 C 0.16731 0.12661 0.89789 0.0
C243 C 0.19455 0.11508 0.91008 0.0
N244 N 0.1993 0.10645 0.898 0.0
O245 O 0.16014 0.12327 0.93583 0.0
H246 H 0.15276 0.13568 0.894 0.0
H247 H 0.20588 0.11314 0.91829 0.0
O248 O 0.12997 0.13118 0.91671 0.0
C249 C 0.17951 0.12707 0.94121 0.0
O250 O 0.19159 0.14491 0.93737 0.0
N251 N 0.15734 0.1706 0.91091 0.0
C252 C 0.16939 0.2024 0.89217 0.0
C253 C 0.14619 0.19902 0.89536 0.0
C254 C 0.14051 0.18344 0.90517 0.0
C255 C 0.17991 0.17606 0.90902 0.0
C256 C 0.18639 0.19155 0.8995 0.0
H257 H 0.12275 0.18171 0.90789 0.0
H258 H 0.19314 0.16737 0.91456 0.0
H259 H 0.10465 0.16414 0.92498 0.0
H260 H 0.12663 0.20339 0.9568 0.0
H261 H 0.17991 0.11029 0.88018 0.0
H262 H 0.13268 0.20831 0.89033 0.0
H263 H 0.20451 0.19435 0.89758 0.0
C264 C 0.9433 0.89968 0.68028 0.0
C265 C 0.95869 0.88214 0.68235 0.0
N266 N 0.94764 0.86174 0.68155 0.0
N267 N 0.92219 0.89097 0.67811 0.0
C268 C 0.92536 0.86768 0.67891 0.0
H269 H 0.94738 0.91784 0.68025 0.0
Co270 Co 0.89648 0.91062 0.67419 0.0
C271 C 0.86643 0.88407 0.65709 0.0
O272 O 0.86228 0.90213 0.64977 0.0
N273 N 0.87041 0.93041 0.67012 0.0
C274 C 0.83355 0.94136 0.66932 0.0
C275 C 0.84914 0.92673 0.67501 0.0
C276 C 0.8669 0.94758 0.6612 0.0
N277 N 0.84459 0.95447 0.66052 0.0
O278 O 0.88278 0.90357 0.69063 0.0
H279 H 0.84465 0.91284 0.68151 0.0
H280 H 0.88002 0.95426 0.65481 0.0
O281 O 0.88071 0.88504 0.66649 0.0
C282 C 0.89263 0.91375 0.70008 0.0
O283 O 0.91205 0.92458 0.69781 0.0
N284 N 0.91089 0.9192 0.65904 0.0
C285 C 0.93819 0.93795 0.63975 0.0
C286 C 0.92814 0.91616 0.63804 0.0
C287 C 0.91478 0.90679 0.648 0.0
C288 C 0.92078 0.94019 0.66088 0.0
C289 C 0.93432 0.95006 0.65129 0.0
H290 H 0.90845 0.8894 0.64702 0.0
H291 H 0.91818 0.9492 0.66999 0.0
H292 H 0.91161 0.85538 0.67753 0.0
H293 H 0.97688 0.88456 0.68403 0.0
H294 H 0.81516 0.94126 0.67095 0.0
H295 H 0.9317 0.90596 0.62943 0.0
H296 H 0.94224 0.96666 0.65302 0.0
C297 C 0.85952 0.17683 0.44268 0.0
C298 C 0.87732 0.19138 0.44624 0.0
N299 N 0.89537 0.18773 0.43825 0.0
N300 N 0.8661 0.16392 0.43242 0.0
C301 C 0.88812 0.17093 0.43002 0.0
H302 H 0.84242 0.17667 0.44684 0.0
Co303 Co 0.8468 0.14577 0.42134 0.0
C304 C 0.87658 0.10939 0.41412 0.0
O305 O 0.85979 0.09511 0.41697 0.0
N306 N 0.82821 0.1279 0.40917 0.0
C307 C 0.82045 0.11163 0.38987 0.0
C308 C 0.83523 0.12552 0.39664 0.0
C309 C 0.80839 0.11526 0.40955 0.0
N310 N 0.80352 0.10514 0.39791 0.0
O311 O 0.84411 0.12281 0.43439 0.0
H312 H 0.85078 0.13281 0.39265 0.0
H313 H 0.79794 0.11312 0.41813 0.0
O314 O 0.87367 0.13111 0.41479 0.0
C315 C 0.82487 0.12539 0.43998 0.0
O316 O 0.8115 0.14251 0.43644 0.0
N317 N 0.84723 0.16914 0.40971 0.0
C318 C 0.83794 0.20784 0.3952 0.0
C319 C 0.85835 0.19534 0.39305 0.0
C320 C 0.86288 0.17585 0.40062 0.0
C321 C 0.82764 0.18123 0.41196 0.0
C322 C 0.82261 0.20068 0.40482 0.0
H323 H 0.87854 0.16614 0.39914 0.0
H324 H 0.81578 0.17552 0.41938 0.0
H325 H 0.89813 0.1651 0.42178 0.0
H326 H 0.87673 0.20417 0.45391 0.0
H327 H 0.82221 0.10626 0.37981 0.0
H328 H 0.87057 0.20063 0.38568 0.0
H329 H 0.8066 0.20971 0.4066 0.0
C330 C 0.56552 0.10689 0.17808 0.0
C331 C 0.54944 0.12309 0.18165 0.0
N332 N 0.56038 0.14212 0.18588 0.0
N333 N 0.58695 0.11532 0.17978 0.0
C334 C 0.58314 0.13654 0.18515 0.0
H335 H 0.56172 0.09052 0.17354 0.0
Co336 Co 0.61339 0.09995 0.17197 0.0
C337 C 0.6277 0.1507 0.1676 0.0
O338 O 0.60761 0.16087 0.16664 0.0
N339 N 0.63936 0.08519 0.16353 0.0
C340 C 0.66491 0.08129 0.1474 0.0
C341 C 0.64893 0.0954 0.153 0.0
C342 C 0.64951 0.06393 0.1637 0.0
N343 N 0.66536 0.06139 0.154 0.0
O344 O 0.62784 0.09712 0.18845 0.0
H345 H 0.64335 0.11161 0.14889 0.0
H346 H 0.64464 0.05033 0.17036 0.0
O347 O 0.6291 0.12899 0.16918 0.0
C348 C 0.61727 0.08154 0.1948 0.0
O349 O 0.59908 0.07188 0.18953 0.0
N350 N 0.59832 0.09955 0.1562 0.0
C351 C 0.56637 0.08769 0.13754 0.0
C352 C 0.57106 0.111 0.14007 0.0
C353 C 0.58747 0.11665 0.1495 0.0
C354 C 0.59443 0.07696 0.15335 0.0
C355 C 0.57899 0.07064 0.14381 0.0
H356 H 0.58973 0.13439 0.15213 0.0
H357 H 0.60193 0.06359 0.15931 0.0
H358 H 0.59676 0.14807 0.18809 0.0
H359 H 0.53105 0.12151 0.18027 0.0
H360 H 0.67446 0.08478 0.13857 0.0
H361 H 0.56114 0.12451 0.13544 0.0
H362 H 0.57526 0.05254 0.14232 0.0
C363 C 0.65091 0.82074 0.9335 0.0
C364 C 0.6343 0.80426 0.93585 0.0
N365 N 0.61336 0.81354 0.93372 0.0
N366 N 0.64086 0.84075 0.92999 0.0
C367 C 0.61786 0.83568 0.93028 0.0
H368 H 0.66924 0.81767 0.93347 0.0
Co369 Co 0.65682 0.86651 0.92192 0.0
C370 C 0.62322 0.9036 0.92365 0.0
O371 O 0.62528 0.8825 0.91972 0.0
N372 N 0.67211 0.89192 0.91292 0.0
C373 C 0.67544 0.91766 0.89686 0.0
C374 C 0.66123 0.90234 0.90286 0.0
C375 C 0.69385 0.90098 0.91235 0.0
N376 N 0.69611 0.91702 0.90268 0.0
O377 O 0.66114 0.88087 0.9383 0.0
H378 H 0.64422 0.89811 0.89937 0.0
H379 H 0.70785 0.8954 0.91855 0.0
O380 O 0.6265 0.88268 0.91997 0.0
C381 C 0.67859 0.87159 0.94357 0.0
O382 O 0.68992 0.85576 0.93705 0.0
N383 N 0.65505 0.8515 0.90651 0.0
C384 C 0.66182 0.81841 0.88775 0.0
C385 C 0.6397 0.82761 0.88982 0.0
C386 C 0.63659 0.84431 0.89945 0.0
C387 C 0.67665 0.84383 0.90405 0.0
C388 C 0.68049 0.82735 0.89468 0.0
H389 H 0.61945 0.85024 0.90179 0.0
H390 H 0.69079 0.84939 0.91013 0.0
H391 H 0.60456 0.84736 0.92706 0.0
H392 H 0.63758 0.78651 0.93846 0.0
H393 H 0.67122 0.92759 0.88826 0.0
H394 H 0.6249 0.8211 0.88457 0.0
H395 H 0.6977 0.82042 0.89372 0.0
C396 C 0.94038 0.10527 0.80001 0.0
C397 C 0.95591 0.12215 0.79671 0.0
N398 N 0.94435 0.14113 0.79295 0.0
N399 N 0.91868 0.11318 0.79861 0.0
C400 C 0.92178 0.13481 0.79362 0.0
H401 H 0.94477 0.08873 0.80415 0.0
Co402 Co 0.89284 0.09678 0.80642 0.0
C403 C 0.87925 0.14686 0.81236 0.0
O404 O 0.89963 0.15629 0.81362 0.0
N405 N 0.8676 0.08098 0.81496 0.0
C406 C 0.84314 0.07569 0.83151 0.0
C407 C 0.85823 0.09054 0.82576 0.0
C408 C 0.85829 0.05935 0.81478 0.0
N409 N 0.84312 0.05595 0.82475 0.0
O410 O 0.87716 0.09559 0.79023 0.0
H411 H 0.86359 0.10666 0.83003 0.0
H412 H 0.86334 0.04613 0.80794 0.0
O413 O 0.87714 0.12538 0.81022 0.0
C414 C 0.88723 0.08188 0.78242 0.0
O415 O 0.90687 0.0726 0.78597 0.0
N416 N 0.90872 0.0949 0.82183 0.0
C417 C 0.93665 0.08063 0.84206 0.0
C418 C 0.93079 0.10401 0.84075 0.0
C419 C 0.91663 0.11088 0.83043 0.0
C420 C 0.91395 0.07218 0.82321 0.0
C421 C 0.92742 0.0646 0.8334 0.0
H422 H 0.91297 0.1288 0.8291 0.0
H423 H 0.90808 0.05989 0.81603 0.0
H424 H 0.90776 0.1462 0.79109 0.0
H425 H 0.97435 0.12102 0.79801 0.0
H426 H 0.83401 0.07857 0.84056 0.0
H427 H 0.938 0.11691 0.84719 0.0
H428 H 0.93141 0.04641 0.83414 0.0
C429 C 0.64689 0.18152 0.54761 0.0
C430 C 0.63042 0.19752 0.54398 0.0
N431 N 0.60948 0.18843 0.54612 0.0
N432 N 0.6366 0.16214 0.55197 0.0
C433 C 0.61372 0.16693 0.55064 0.0
H434 H 0.66523 0.18455 0.5479 0.0
Co435 Co 0.6521 0.13767 0.56138 0.0
C436 C 0.60358 0.1192 0.56708 0.0
O437 O 0.59497 0.13575 0.57426 0.0
N438 N 0.6667 0.1128 0.57129 0.0
C439 C 0.66928 0.08897 0.58828 0.0
C440 C 0.65522 0.1033 0.58139 0.0
C441 C 0.68842 0.10383 0.57254 0.0
N442 N 0.69045 0.08949 0.58302 0.0
O443 O 0.65834 0.12217 0.54563 0.0
H444 H 0.63794 0.10774 0.5843 0.0
H445 H 0.70282 0.10915 0.56658 0.0
O446 O 0.624 0.12034 0.56276 0.0
C447 C 0.67833 0.12979 0.543 0.0
O448 O 0.68756 0.14508 0.55086 0.0
N449 N 0.64964 0.15488 0.57658 0.0
C450 C 0.66155 0.19214 0.5922 0.0
C451 C 0.63839 0.18796 0.58903 0.0
C452 C 0.63282 0.16948 0.58087 0.0
C453 C 0.6719 0.15832 0.58027 0.0
C454 C 0.67816 0.17646 0.58807 0.0
H455 H 0.61579 0.16908 0.57689 0.0
H456 H 0.68574 0.14891 0.57581 0.0
H457 H 0.60008 0.15551 0.55338 0.0
H458 H 0.63362 0.21507 0.54092 0.0
H459 H 0.66437 0.07963 0.59696 0.0
H460 H 0.62494 0.1998 0.59194 0.0
H461 H 0.69637 0.17928 0.58957 0.0
C462 C 0.56716 0.89812 0.29562 0.0
C463 C 0.55212 0.88057 0.29257 0.0
N464 N 0.562 0.86023 0.29554 0.0
N465 N 0.58677 0.88925 0.30055 0.0
C466 C 0.58318 0.86597 0.30016 0.0
H467 H 0.56327 0.91632 0.29521 0.0
Co468 Co 0.60954 0.90727 0.30982 0.0
C469 C 0.62263 0.86598 0.32613 0.0
O470 O 0.6093 0.86968 0.33623 0.0
N471 N 0.63266 0.92427 0.31973 0.0
C472 C 0.65282 0.93335 0.33759 0.0
C473 C 0.63694 0.91881 0.33233 0.0
C474 C 0.64621 0.94321 0.31775 0.0
N475 N 0.65874 0.94881 0.32854 0.0
O476 O 0.62986 0.90553 0.29537 0.0
H477 H 0.62801 0.90601 0.33787 0.0
H478 H 0.64653 0.95291 0.30876 0.0
O479 O 0.62272 0.8795 0.31642 0.0
C480 C 0.62254 0.92066 0.28742 0.0
O481 O 0.6046 0.93313 0.2907 0.0
N482 N 0.58835 0.91195 0.3231 0.0
C483 C 0.55058 0.92861 0.33647 0.0
C484 C 0.55302 0.9049 0.33434 0.0
C485 C 0.57216 0.89683 0.32752 0.0
C486 C 0.58576 0.93508 0.32509 0.0
C487 C 0.56739 0.94371 0.3321 0.0
H488 H 0.57297 0.8788 0.32501 0.0
H489 H 0.59712 0.94725 0.32043 0.0
H490 H 0.59499 0.85348 0.3042 0.0
H491 H 0.53477 0.88276 0.28895 0.0
H492 H 0.65882 0.9333 0.34758 0.0
H493 H 0.53987 0.89292 0.33747 0.0
H494 H 0.56553 0.96216 0.33334 0.0
C495 C 0.8693 0.84174 0.03633 0.0
C496 C 0.88875 0.82939 0.03336 0.0
N497 N 0.90044 0.82508 0.04442 0.0
N498 N 0.86833 0.84575 0.04927 0.0
C499 C 0.88759 0.83513 0.05397 0.0
H500 H 0.85621 0.84647 0.02939 0.0
Co501 Co 0.84234 0.85936 0.05794 0.0
C502 C 0.86119 0.88453 0.08057 0.0
O503 O 0.8435 0.88038 0.08818 0.0
N504 N 0.81566 0.8727 0.0665 0.0
C505 C 0.78136 0.87447 0.07618 0.0
C506 C 0.79701 0.86044 0.07013 0.0
C507 C 0.81025 0.89472 0.0702 0.0
N508 N 0.78949 0.89617 0.07632 0.0
O509 O 0.84316 0.8849 0.04655 0.0
H510 H 0.79462 0.84224 0.06861 0.0
H511 H 0.82152 0.9093 0.06866 0.0
O512 O 0.86258 0.8756 0.06926 0.0
C513 C 0.82877 0.88028 0.03766 0.0
O514 O 0.81728 0.86082 0.03824 0.0
N515 N 0.84047 0.83336 0.06815 0.0
C516 C 0.82573 0.79413 0.08058 0.0
C517 C 0.8398 0.80987 0.08715 0.0
C518 C 0.8475 0.82939 0.08061 0.0
C519 C 0.8289 0.81694 0.06129 0.0
C520 C 0.82115 0.79708 0.06738 0.0
H521 H 0.85861 0.84114 0.08567 0.0
H522 H 0.82423 0.82016 0.05126 0.0
H523 H 0.89179 0.83431 0.06423 0.0
H524 H 0.89331 0.82314 0.02377 0.0
H525 H 0.76529 0.86886 0.08045 0.0
H526 H 0.84438 0.80727 0.09728 0.0
H527 H 0.81072 0.78483 0.06204 0.0
C528 C 0.56184 0.60289 0.80084 0.0
C529 C 0.54653 0.62056 0.79904 0.0
N530 N 0.55773 0.6409 0.79983 0.0
N531 N 0.58313 0.61136 0.80269 0.0
C532 C 0.58011 0.6347 0.80206 0.0
H533 H 0.55762 0.58475 0.80086 0.0
Co534 Co 0.60846 0.59076 0.80605 0.0
C535 C 0.63998 0.61529 0.82303 0.0
O536 O 0.64247 0.59681 0.83023 0.0
N537 N 0.63419 0.56975 0.80956 0.0
C538 C 0.67052 0.55685 0.80928 0.0
C539 C 0.65488 0.57156 0.80363 0.0
C540 C 0.63818 0.55354 0.81902 0.0
N541 N 0.66017 0.54561 0.8191 0.0
O542 O 0.62109 0.59745 0.78931 0.0
H543 H 0.65917 0.58424 0.79638 0.0
H544 H 0.62589 0.54871 0.82639 0.0
O545 O 0.62583 0.61561 0.81353 0.0
C546 C 0.61 0.58785 0.78011 0.0
O547 O 0.59071 0.57723 0.78294 0.0
N548 N 0.59476 0.58291 0.8215 0.0
C549 C 0.56835 0.56644 0.84186 0.0
C550 C 0.57755 0.58882 0.8423 0.0
C551 C 0.59054 0.5969 0.83188 0.0
C552 C 0.58518 0.56159 0.82067 0.0
C553 C 0.57244 0.55271 0.8309 0.0
H554 H 0.59629 0.61459 0.83191 0.0
H555 H 0.58769 0.55139 0.81196 0.0
H556 H 0.59402 0.64684 0.80337 0.0
H557 H 0.52837 0.61815 0.79733 0.0
H558 H 0.68864 0.55581 0.80692 0.0
H559 H 0.57376 0.60038 0.8503 0.0
H560 H 0.56541 0.5355 0.83009 0.0
C561 C 0.64853 0.31823 0.04679 0.0
C562 C 0.63102 0.3028 0.04458 0.0
N563 N 0.61081 0.31229 0.04828 0.0
N564 N 0.63988 0.3379 0.05172 0.0
C565 C 0.61679 0.33374 0.05257 0.0
H566 H 0.66661 0.31524 0.04497 0.0
Co567 Co 0.65918 0.36274 0.05749 0.0
C568 C 0.63169 0.3877 0.07657 0.0
O569 O 0.64941 0.39112 0.08427 0.0
N570 N 0.67841 0.38795 0.06364 0.0
C571 C 0.68885 0.42463 0.06695 0.0
C572 C 0.67344 0.41025 0.06092 0.0
C573 C 0.69689 0.38961 0.07185 0.0
N574 N 0.70357 0.41176 0.07389 0.0
O575 O 0.652 0.38095 0.04231 0.0
H576 H 0.65889 0.41598 0.05522 0.0
H577 H 0.70508 0.37509 0.07652 0.0
O578 O 0.63351 0.37589 0.06621 0.0
C579 C 0.65324 0.37485 0.03041 0.0
O580 O 0.64989 0.35321 0.02728 0.0
N581 N 0.66786 0.34469 0.07129 0.0
C582 C 0.68489 0.31014 0.08704 0.0
C583 C 0.66359 0.3204 0.08986 0.0
C584 C 0.65505 0.33749 0.08163 0.0
C585 C 0.68861 0.33499 0.06854 0.0
C586 C 0.69756 0.31768 0.07634 0.0
H587 H 0.63783 0.34386 0.08318 0.0
H588 H 0.69787 0.34031 0.05991 0.0
H589 H 0.60471 0.34597 0.05661 0.0
H590 H 0.63334 0.28575 0.04056 0.0
H591 H 0.68867 0.44328 0.06669 0.0
H592 H 0.6531 0.31429 0.09787 0.0
H593 H 0.71387 0.30982 0.07383 0.0
C594 C 0.93642 0.3996 0.30365 0.0
C595 C 0.95306 0.38376 0.30031 0.0
N596 N 0.94291 0.36504 0.29507 0.0
N597 N 0.91534 0.39122 0.30086 0.0
C598 C 0.92007 0.37058 0.29498 0.0
H599 H 0.93945 0.41539 0.30897 0.0
Co600 Co 0.88794 0.40486 0.30882 0.0
C601 C 0.87302 0.35373 0.30917 0.0
O602 O 0.89271 0.34304 0.31079 0.0
N603 N 0.86068 0.41787 0.31736 0.0
C604 C 0.83399 0.41843 0.33303 0.0
C605 C 0.85015 0.40543 0.32675 0.0
C606 C 0.85065 0.43916 0.31855 0.0
N607 N 0.83413 0.43983 0.32805 0.0
O608 O 0.87546 0.41158 0.29225 0.0
H609 H 0.85517 0.38829 0.3297 0.0
H610 H 0.8562 0.4541 0.3131 0.0
O611 O 0.87218 0.37563 0.30888 0.0
C612 C 0.88454 0.43111 0.28992 0.0
O613 O 0.89974 0.4391 0.29826 0.0
N614 N 0.90138 0.40176 0.32502 0.0
C615 C 0.93335 0.41129 0.34412 0.0
C616 C 0.93029 0.38854 0.33977 0.0
C617 C 0.91374 0.384 0.33019 0.0
C618 C 0.90377 0.42362 0.32969 0.0
C619 C 0.91904 0.42861 0.3395 0.0
H620 H 0.91291 0.36706 0.32601 0.0
H621 H 0.89569 0.43795 0.32483 0.0
H622 H 0.90698 0.35939 0.29104 0.0
H623 H 0.97115 0.38534 0.30261 0.0
H624 H 0.82402 0.41288 0.34136 0.0
H625 H 0.94156 0.37488 0.34308 0.0
H626 H 0.92146 0.44644 0.34234 0.0
C627 C 0.85405 0.68846 0.54813 0.0
C628 C 0.87062 0.7044 0.54481 0.0
N629 N 0.89149 0.69437 0.54562 0.0
N630 N 0.86417 0.66824 0.55116 0.0
C631 C 0.88706 0.67231 0.54921 0.0
H632 H 0.83588 0.69195 0.54926 0.0
Co633 Co 0.84884 0.64325 0.56 0.0
C634 C 0.89455 0.63282 0.57318 0.0
O635 O 0.89225 0.64671 0.58314 0.0
N636 N 0.83436 0.61763 0.56915 0.0
C637 C 0.82963 0.59106 0.5847 0.0
C638 C 0.84437 0.60678 0.57937 0.0
C639 C 0.81288 0.60802 0.56871 0.0
N640 N 0.80972 0.59183 0.57814 0.0
O641 O 0.8495 0.62534 0.54449 0.0
H642 H 0.8609 0.61076 0.58347 0.0
H643 H 0.79957 0.61351 0.56201 0.0
O644 O 0.87867 0.63066 0.56471 0.0
C645 C 0.83368 0.63292 0.53706 0.0
O646 O 0.82108 0.65031 0.54108 0.0
N647 N 0.8452 0.66207 0.57482 0.0
C648 C 0.832 0.69136 0.59496 0.0
C649 C 0.85387 0.69331 0.58929 0.0
C650 C 0.85992 0.67885 0.57901 0.0
C651 C 0.82323 0.66158 0.57953 0.0
C652 C 0.81654 0.67537 0.58987 0.0
H653 H 0.87627 0.6816 0.57431 0.0
H654 H 0.81024 0.65115 0.57497 0.0
H655 H 0.90047 0.66002 0.55141 0.0
H656 H 0.86759 0.72238 0.5426 0.0
H657 H 0.83283 0.5807 0.59329 0.0
H658 H 0.8659 0.70641 0.59245 0.0
H659 H 0.79921 0.67378 0.59362 0.0
C660 C 0.57443 0.39615 0.69088 0.0
C661 C 0.55915 0.3788 0.69391 0.0
N662 N 0.56495 0.35964 0.68724 0.0
N663 N 0.59028 0.38828 0.68239 0.0
C664 C 0.58404 0.36585 0.68042 0.0
H665 H 0.57307 0.41376 0.69418 0.0
Co666 Co 0.61176 0.40673 0.67268 0.0
C667 C 0.64849 0.37495 0.66843 0.0
O668 O 0.66167 0.38843 0.67548 0.0
N669 N 0.63321 0.42421 0.66189 0.0
C670 C 0.65286 0.42966 0.6434 0.0
C671 C 0.63753 0.41598 0.64978 0.0
C672 C 0.64623 0.44385 0.66239 0.0
N673 N 0.65851 0.4473 0.65119 0.0
O674 O 0.63094 0.40937 0.68746 0.0
H675 H 0.62997 0.40063 0.64565 0.0
H676 H 0.64693 0.45516 0.67077 0.0
O677 O 0.62712 0.37942 0.66705 0.0
C678 C 0.62385 0.42642 0.69404 0.0
O679 O 0.60678 0.43886 0.68951 0.0
N680 N 0.59152 0.40681 0.65927 0.0
C681 C 0.55378 0.41626 0.64395 0.0
C682 C 0.56427 0.39439 0.64343 0.0
C683 C 0.58334 0.38988 0.65135 0.0
C684 C 0.58198 0.42812 0.65955 0.0
C685 C 0.56308 0.43322 0.65204 0.0
H686 H 0.59094 0.3729 0.65148 0.0
H687 H 0.58865 0.44098 0.66616 0.0
H688 H 0.59243 0.35467 0.67346 0.0
H689 H 0.54447 0.3805 0.70031 0.0
H690 H 0.65925 0.42698 0.63361 0.0
H691 H 0.55755 0.38089 0.63722 0.0
H692 H 0.55528 0.45007 0.65305 0.0
C693 C 0.85615 0.31711 0.93013 0.0
C694 C 0.87275 0.30161 0.93409 0.0
N695 N 0.89148 0.31336 0.93791 0.0
N696 N 0.86432 0.33885 0.93104 0.0
C697 C 0.88561 0.33588 0.93642 0.0
H698 H 0.83999 0.31263 0.92557 0.0
Co699 Co 0.84958 0.36406 0.9217 0.0
C700 C 0.90006 0.38062 0.91911 0.0
O701 O 0.91155 0.3612 0.91844 0.0
N702 N 0.83523 0.38899 0.91189 0.0
C703 C 0.83183 0.4114 0.89432 0.0
C704 C 0.84615 0.39738 0.90129 0.0
C705 C 0.81363 0.39832 0.91094 0.0
N706 N 0.81118 0.41193 0.90018 0.0
O707 O 0.84378 0.37952 0.93753 0.0
H708 H 0.86305 0.39206 0.89808 0.0
H709 H 0.79953 0.39366 0.91728 0.0
O710 O 0.87822 0.38071 0.91994 0.0
C711 C 0.82404 0.37158 0.94042 0.0
O712 O 0.81489 0.35593 0.93274 0.0
N713 N 0.85228 0.34749 0.90636 0.0
C714 C 0.84428 0.31095 0.8898 0.0
C715 C 0.86674 0.31583 0.89396 0.0
C716 C 0.87044 0.33451 0.90227 0.0
C717 C 0.83068 0.3435 0.90169 0.0
C718 C 0.82641 0.32574 0.89313 0.0
H719 H 0.88711 0.33653 0.90658 0.0
H720 H 0.81603 0.35241 0.90571 0.0
H721 H 0.89707 0.34984 0.93885 0.0
H722 H 0.87183 0.28306 0.93315 0.0
H723 H 0.83595 0.41958 0.88514 0.0
H724 H 0.88085 0.30436 0.89162 0.0
H725 H 0.80879 0.32209 0.89035 0.0
C726 C 0.93994 0.60736 0.18293 0.0
C727 C 0.95372 0.62586 0.18606 0.0
N728 N 0.94176 0.64534 0.18407 0.0
N729 N 0.91903 0.61474 0.17889 0.0
C730 C 0.9207 0.63818 0.18 0.0
H731 H 0.94506 0.58958 0.18381 0.0
Co732 Co 0.89339 0.59507 0.17348 0.0
C733 C 0.8868 0.63553 0.15641 0.0
O734 O 0.90846 0.63644 0.15274 0.0
N735 N 0.86771 0.57658 0.16803 0.0
C736 C 0.83081 0.56785 0.16448 0.0
C737 C 0.84573 0.58314 0.17019 0.0
C738 C 0.8655 0.55724 0.16054 0.0
N739 N 0.84314 0.55158 0.15831 0.0
O740 O 0.87676 0.60343 0.18879 0.0
H741 H 0.8407 0.59861 0.17533 0.0
H742 H 0.87988 0.54769 0.15659 0.0
O743 O 0.87988 0.62012 0.16427 0.0
C744 C 0.88455 0.59413 0.19911 0.0
O745 O 0.90485 0.58425 0.1987 0.0
N746 N 0.90984 0.58435 0.15927 0.0
C747 C 0.93778 0.56201 0.14138 0.0
C748 C 0.92087 0.57762 0.13715 0.0
C749 C 0.90646 0.58807 0.14628 0.0
C750 C 0.92426 0.56736 0.16332 0.0
C751 C 0.9385 0.55603 0.15458 0.0
H752 H 0.89262 0.59881 0.14283 0.0
H753 H 0.92446 0.5624 0.17346 0.0
H754 H 0.90669 0.64995 0.17807 0.0
H755 H 0.97141 0.62504 0.18932 0.0
H756 H 0.81223 0.56909 0.16441 0.0
H757 H 0.91917 0.58226 0.12698 0.0
H758 H 0.95034 0.54312 0.15819 0.0
C759 C 0.63473 0.66942 0.44597 0.0
C760 C 0.61519 0.68196 0.44856 0.0
N761 N 0.60217 0.68288 0.43774 0.0
N762 N 0.63455 0.66209 0.43348 0.0
C763 C 0.61421 0.67052 0.42873 0.0
H764 H 0.64866 0.66694 0.45276 0.0
Co765 Co 0.66066 0.64839 0.42466 0.0
C766 C 0.63962 0.61602 0.40546 0.0
O767 O 0.65611 0.61763 0.39677 0.0
N768 N 0.68742 0.63523 0.41584 0.0
C769 C 0.72084 0.63576 0.40516 0.0
C770 C 0.70498 0.64862 0.41183 0.0
C771 C 0.6941 0.61361 0.41198 0.0
N772 N 0.71415 0.61352 0.40499 0.0
O773 O 0.66407 0.62611 0.43798 0.0
H774 H 0.70634 0.66689 0.41348 0.0
H775 H 0.68399 0.59833 0.41387 0.0
O776 O 0.64006 0.62806 0.41583 0.0
C777 C 0.67863 0.63395 0.44607 0.0
O778 O 0.6876 0.6544 0.44399 0.0
N779 N 0.65869 0.67148 0.41232 0.0
C780 C 0.67129 0.70589 0.39537 0.0
C781 C 0.65775 0.68753 0.391 0.0
C782 C 0.65115 0.67054 0.39977 0.0
C783 C 0.6691 0.69079 0.41703 0.0
C784 C 0.67576 0.70834 0.40865 0.0
H785 H 0.64082 0.6566 0.39624 0.0
H786 H 0.67426 0.69147 0.42715 0.0
H787 H 0.60901 0.66886 0.41864 0.0
H788 H 0.61115 0.69036 0.4577 0.0
H789 H 0.73592 0.6428 0.40049 0.0
H790 H 0.65309 0.68592 0.38081 0.0
H791 H 0.68574 0.7227 0.41232 0.0
C792 C 0.43428 0.39917 0.19261 0.0
C793 C 0.44827 0.38101 0.19615 0.0
N794 N 0.43985 0.36144 0.19094 0.0
N795 N 0.41687 0.39142 0.18512 0.0
C796 C 0.42052 0.36817 0.18452 0.0
H797 H 0.43771 0.41716 0.19452 0.0
Co798 Co 0.39759 0.41097 0.17454 0.0
C799 C 0.3906 0.37276 0.1547 0.0
O800 O 0.40733 0.37773 0.14661 0.0
N801 N 0.37788 0.42945 0.16313 0.0
C802 C 0.36474 0.44172 0.14382 0.0
C803 C 0.37938 0.42701 0.15002 0.0
C804 C 0.36152 0.44622 0.16453 0.0
N805 N 0.35337 0.45386 0.15283 0.0
O806 O 0.37258 0.40714 0.18635 0.0
H807 H 0.3914 0.4161 0.14501 0.0
H808 H 0.35619 0.45314 0.17383 0.0
O809 O 0.38722 0.38457 0.16498 0.0
C810 C 0.37659 0.42145 0.19545 0.0
O811 O 0.39525 0.43414 0.19476 0.0
N812 N 0.42285 0.41735 0.16394 0.0
C813 C 0.4528 0.43141 0.14474 0.0
C814 C 0.45406 0.40889 0.14972 0.0
C815 C 0.439 0.40224 0.15954 0.0
C816 C 0.4252 0.44028 0.16138 0.0
C817 C 0.43935 0.44764 0.15134 0.0
H818 H 0.43911 0.38454 0.16274 0.0
H819 H 0.41432 0.45271 0.16625 0.0
H820 H 0.41052 0.35663 0.1785 0.0
H821 H 0.46414 0.38235 0.20162 0.0
H822 H 0.36287 0.44374 0.13338 0.0
H823 H 0.46565 0.3962 0.14562 0.0
H824 H 0.43844 0.46547 0.14832 0.0
C825 C 0.35543 0.68737 0.9346 0.0
C826 C 0.37287 0.70277 0.93719 0.0
N827 N 0.39306 0.69378 0.93311 0.0
N828 N 0.36415 0.66831 0.92898 0.0
C829 C 0.3872 0.67273 0.92825 0.0
H830 H 0.33735 0.69027 0.93643 0.0
Co831 Co 0.34572 0.64326 0.92244 0.0
C832 C 0.37709 0.61492 0.90781 0.0
O833 O 0.36183 0.6136 0.8984 0.0
N834 N 0.32724 0.61725 0.91589 0.0
C835 C 0.31563 0.5805 0.91492 0.0
C836 C 0.33023 0.59585 0.92084 0.0
C837 C 0.31058 0.61395 0.90661 0.0
N838 N 0.30308 0.59177 0.90596 0.0
O839 O 0.34543 0.62957 0.93921 0.0
H840 H 0.34274 0.59139 0.92821 0.0
H841 H 0.3039 0.6273 0.90036 0.0
O842 O 0.37322 0.62706 0.91787 0.0
C843 C 0.32608 0.63655 0.94346 0.0
O844 O 0.31479 0.65204 0.93667 0.0
N845 N 0.34346 0.65845 0.9069 0.0
C846 C 0.33417 0.69698 0.8922 0.0
C847 C 0.35657 0.68794 0.89251 0.0
C848 C 0.3609 0.6682 0.89993 0.0
C849 C 0.32165 0.66688 0.90626 0.0
C850 C 0.31645 0.68565 0.89862 0.0
H851 H 0.37843 0.66239 0.90118 0.0
H852 H 0.30852 0.66035 0.91269 0.0
H853 H 0.39935 0.66113 0.92374 0.0
H854 H 0.37058 0.71947 0.94166 0.0
H855 H 0.31473 0.56221 0.91689 0.0
H856 H 0.37065 0.69679 0.88775 0.0
H857 H 0.29915 0.69263 0.89881 0.0
C858 C 0.07677 0.60661 0.69491 0.0
C859 C 0.06315 0.62486 0.69886 0.0
N860 N 0.06977 0.64396 0.6924 0.0
N861 N 0.09167 0.61394 0.68573 0.0
C862 C 0.08746 0.63698 0.68479 0.0
H863 H 0.07441 0.58876 0.69761 0.0
Co864 Co 0.10798 0.59497 0.67358 0.0
C865 C 0.10035 0.63284 0.65211 0.0
O866 O 0.08058 0.63355 0.64592 0.0
N867 N 0.12449 0.57699 0.66078 0.0
C868 C 0.13277 0.56389 0.64086 0.0
C869 C 0.11792 0.57689 0.64812 0.0
C870 C 0.14367 0.56337 0.66087 0.0
N871 N 0.14903 0.55531 0.64877 0.0
O872 O 0.13595 0.60922 0.67878 0.0
H873 H 0.10295 0.58563 0.64431 0.0
H874 H 0.15378 0.55993 0.66951 0.0
O875 O 0.10379 0.61778 0.66079 0.0
C876 C 0.14897 0.60484 0.68846 0.0
O877 O 0.16728 0.61778 0.69015 0.0
N878 N 0.08025 0.5809 0.66852 0.0
C879 C 0.04678 0.56338 0.65231 0.0
C880 C 0.04474 0.58575 0.65723 0.0
C881 C 0.06189 0.59433 0.66522 0.0
C882 C 0.07981 0.55775 0.66613 0.0
C883 C 0.06336 0.54861 0.65763 0.0
H884 H 0.06153 0.61245 0.66752 0.0
H885 H 0.09388 0.54697 0.66935 0.0
H886 H 0.09561 0.64809 0.67772 0.0
H887 H 0.04852 0.62384 0.70536 0.0
H888 H 0.1317 0.5609 0.63047 0.0
H889 H 0.03157 0.59738 0.65367 0.0
H890 H 0.06509 0.53103 0.65423 0.0
C891 C 0.15086 0.31745 0.43629 0.0
C892 C 0.13387 0.30233 0.44012 0.0
N893 N 0.11311 0.31208 0.43802 0.0
N894 N 0.14129 0.33689 0.43157 0.0
C895 C 0.11825 0.33341 0.43337 0.0
H896 H 0.1691 0.31381 0.43625 0.0
Co897 Co 0.15772 0.35948 0.42129 0.0
C898 C 0.11063 0.36505 0.40839 0.0
O899 O 0.1031 0.34402 0.40638 0.0
N900 N 0.17338 0.38168 0.41025 0.0
C901 C 0.17937 0.40026 0.39148 0.0
C902 C 0.16444 0.38711 0.39844 0.0
C903 C 0.19454 0.392 0.40999 0.0
N904 N 0.19845 0.40336 0.39856 0.0
O905 O 0.15321 0.38191 0.4345 0.0
H906 H 0.14862 0.38062 0.39444 0.0
H907 H 0.2073 0.39006 0.41759 0.0
O908 O 0.1299 0.36897 0.41363 0.0
C909 C 0.17162 0.38104 0.44112 0.0
O910 O 0.18767 0.36638 0.43769 0.0
N911 N 0.16462 0.33737 0.40908 0.0
C912 C 0.18552 0.30461 0.3935 0.0
C913 C 0.16404 0.31386 0.39003 0.0
C914 C 0.15396 0.33063 0.3979 0.0
C915 C 0.18578 0.32908 0.41229 0.0
C916 C 0.19657 0.31266 0.40466 0.0
H917 H 0.1382 0.33838 0.39471 0.0
H918 H 0.19444 0.33539 0.42087 0.0
H919 H 0.10526 0.34588 0.43085 0.0
H920 H 0.13676 0.28507 0.44372 0.0
H921 H 0.17681 0.40627 0.38159 0.0
H922 H 0.155 0.30803 0.38141 0.0
H923 H 0.21335 0.30628 0.40751 0.0
C924 C 0.44036 0.60114 0.29592 0.0
C925 C 0.45568 0.61819 0.29235 0.0
N926 N 0.44471 0.6387 0.29227 0.0
N927 N 0.41956 0.61054 0.29827 0.0
C928 C 0.42262 0.6333 0.29539 0.0
H929 H 0.44465 0.58332 0.2978 0.0
Co930 Co 0.39467 0.59544 0.3075 0.0
C931 C 0.38704 0.64397 0.31824 0.0
O932 O 0.40801 0.64931 0.32175 0.0
N933 N 0.36885 0.58167 0.31726 0.0
C934 C 0.34419 0.57982 0.33396 0.0
C935 C 0.35909 0.59338 0.32727 0.0
C936 C 0.3591 0.56023 0.31838 0.0
N937 N 0.34446 0.55865 0.32876 0.0
O938 O 0.3767 0.59543 0.292 0.0
H939 H 0.36376 0.61026 0.33063 0.0
H940 H 0.36431 0.54561 0.31254 0.0
O941 O 0.38248 0.62499 0.3126 0.0
C942 C 0.38418 0.57678 0.28694 0.0
O943 O 0.39956 0.56479 0.29346 0.0
N944 N 0.41365 0.59164 0.32218 0.0
C945 C 0.44322 0.57677 0.34161 0.0
C946 C 0.44558 0.59883 0.33635 0.0
C947 C 0.43085 0.6058 0.32642 0.0
C948 C 0.41283 0.56942 0.32661 0.0
C949 C 0.42677 0.56189 0.33667 0.0
H950 H 0.43511 0.62137 0.32138 0.0
H951 H 0.40246 0.55672 0.32176 0.0
H952 H 0.4091 0.64597 0.29607 0.0
H953 H 0.47394 0.61568 0.2909 0.0
H954 H 0.33503 0.58485 0.34269 0.0
H955 H 0.45942 0.61007 0.33943 0.0
H956 H 0.4257 0.5442 0.33998 0.0
C957 C 0.13718 0.66409 0.0375 0.0
C958 C 0.1183 0.67684 0.03374 0.0
N959 N 0.10507 0.68115 0.04428 0.0
N960 N 0.13612 0.65997 0.0504 0.0
C961 C 0.11632 0.67055 0.05425 0.0
H962 H 0.15114 0.65877 0.03124 0.0
Co963 Co 0.15965 0.64595 0.06064 0.0
C964 C 0.13475 0.62252 0.08198 0.0
O965 O 0.15167 0.62437 0.0904 0.0
N966 N 0.18388 0.63189 0.07116 0.0
C967 C 0.21559 0.62881 0.08336 0.0
C968 C 0.20093 0.64365 0.0772 0.0
C969 C 0.18908 0.60938 0.07387 0.0
N970 N 0.20836 0.60719 0.0813 0.0
O971 O 0.16037 0.62008 0.04939 0.0
H972 H 0.20324 0.66198 0.07718 0.0
H973 H 0.17913 0.59492 0.07033 0.0
O974 O 0.13639 0.63125 0.07066 0.0
C975 C 0.17834 0.62311 0.04259 0.0
O976 O 0.19046 0.64197 0.04429 0.0
N977 N 0.16054 0.67222 0.07065 0.0
C978 C 0.17909 0.70752 0.0852 0.0
C979 C 0.16087 0.69422 0.09018 0.0
C980 C 0.15171 0.67648 0.08268 0.0
C981 C 0.17512 0.68743 0.06486 0.0
C982 C 0.18509 0.70503 0.07207 0.0
H983 H 0.13845 0.66585 0.0868 0.0
H984 H 0.18124 0.68407 0.0551 0.0
H985 H 0.11082 0.67124 0.0643 0.0
H986 H 0.11488 0.68265 0.02392 0.0
H987 H 0.23059 0.63361 0.089 0.0
H988 H 0.15446 0.69678 0.09998 0.0
H989 H 0.19866 0.71513 0.06768 0.0
C990 C 0.06267 0.40212 0.79712 0.0
C991 C 0.04753 0.38413 0.7957 0.0
N992 N 0.05903 0.36409 0.79695 0.0
N993 N 0.0841 0.394 0.79915 0.0
C994 C 0.08132 0.37059 0.79898 0.0
H995 H 0.05807 0.42016 0.79718 0.0
Co996 Co 0.1092 0.41439 0.80357 0.0
C997 C 0.14228 0.38638 0.81749 0.0
O998 O 0.14476 0.4028 0.82617 0.0
N999 N 0.13463 0.43502 0.80823 0.0
C1000 C 0.17001 0.45028 0.8077 0.0
C1001 C 0.15492 0.43533 0.80178 0.0
C1002 C 0.13842 0.44989 0.8184 0.0
N1003 N 0.15976 0.45942 0.81823 0.0
O1004 O 0.12061 0.41277 0.78619 0.0
H1005 H 0.15915 0.42438 0.79362 0.0
H1006 H 0.12627 0.45319 0.82613 0.0
O1007 O 0.12757 0.38836 0.80838 0.0
C1008 C 0.10919 0.42644 0.77897 0.0
O1009 O 0.0915 0.43733 0.78398 0.0
N1010 N 0.09634 0.41788 0.81965 0.0
C1011 C 0.06343 0.42767 0.83822 0.0
C1012 C 0.07476 0.40624 0.83828 0.0
C1013 C 0.09121 0.40152 0.82871 0.0
C1014 C 0.08586 0.43881 0.81972 0.0
C1015 C 0.06987 0.44434 0.82914 0.0
H1016 H 0.09828 0.38435 0.82795 0.0
H1017 H 0.08927 0.45092 0.81195 0.0
H1018 H 0.0951 0.35857 0.80089 0.0
H1019 H 0.02923 0.38584 0.79402 0.0
H1020 H 0.18765 0.45337 0.8048 0.0
H1021 H 0.06979 0.39276 0.84501 0.0
H1022 H 0.06165 0.46109 0.82884 0.0
C1023 C 0.35598 0.31792 0.55931 0.0
C1024 C 0.37282 0.30151 0.55741 0.0
N1025 N 0.39174 0.31182 0.5526 0.0
N1026 N 0.36408 0.33883 0.55591 0.0
C1027 C 0.38587 0.33441 0.55154 0.0
H1028 H 0.33955 0.31506 0.56397 0.0
Co1029 Co 0.34887 0.36702 0.56097 0.0
C1030 C 0.39375 0.39524 0.55382 0.0
O1031 O 0.39862 0.39984 0.54161 0.0
N1032 N 0.33388 0.39536 0.56597 0.0
C1033 C 0.3299 0.42947 0.57576 0.0
C1034 C 0.3452 0.41359 0.57105 0.0
C1035 C 0.31126 0.4007 0.56796 0.0
N1036 N 0.30851 0.42136 0.57402 0.0
O1037 O 0.33843 0.37118 0.54386 0.0
H1038 H 0.36341 0.41437 0.57261 0.0
H1039 H 0.2973 0.38885 0.56605 0.0
O1040 O 0.37576 0.38393 0.55666 0.0
C1041 C 0.31971 0.36044 0.54196 0.0
O1042 O 0.31161 0.3474 0.55135 0.0
N1043 N 0.35751 0.36195 0.57846 0.0
C1044 C 0.35554 0.3318 0.59912 0.0
C1045 C 0.3761 0.3343 0.59212 0.0
C1046 C 0.37687 0.35005 0.58186 0.0
C1047 C 0.33927 0.36261 0.58685 0.0
C1048 C 0.33826 0.34815 0.5975 0.0
H1049 H 0.39132 0.34923 0.57539 0.0
H1050 H 0.32349 0.37106 0.58438 0.0
H1051 H 0.39805 0.34768 0.54892 0.0
H1052 H 0.37165 0.2835 0.56006 0.0
H1053 H 0.33425 0.44485 0.5812 0.0
H1054 H 0.39008 0.32214 0.59335 0.0
H1055 H 0.32215 0.34698 0.60276 0.0
H1056 H 0.20541 0.26572 0.40305 0.0
H1057 H 0.21426 0.23078 0.39086 0.0
H1058 H 0.19651 0.2655 0.35506 0.0
H1059 H 0.18826 0.3006 0.36713 0.0
H1060 H 0.17642 0.21409 0.37974 0.0
H1061 H 0.2166 0.24 0.32949 0.0
H1062 H 0.25016 0.26173 0.3216 0.0
H1063 H 0.2853 0.24918 0.3577 0.0
H1064 H 0.25211 0.22699 0.36575 0.0
H1065 H 0.11072 0.19048 0.32727 0.0
H1066 H 0.13895 0.20968 0.34108 0.0
H1067 H 0.18707 0.15421 0.33475 0.0
H1068 H 0.15934 0.13518 0.32052 0.0
H1069 H 0.20641 0.2003 0.33518 0.0
H1070 H 0.15967 0.15005 0.36149 0.0
H1071 H 0.1224 0.13315 0.36784 0.0
H1072 H 0.0974 0.20007 0.37868 0.0
H1073 H 0.13437 0.21742 0.37223 0.0
C1074 C 0.20442 0.26619 0.39252 0.0
C1075 C 0.19568 0.28561 0.38599 0.0
C1076 C 0.20962 0.24627 0.38559 0.0
C1077 C 0.20611 0.24561 0.3721 0.0
C1078 C 0.19974 0.26576 0.36545 0.0
C1079 C 0.19455 0.28567 0.37237 0.0
C1080 C 0.2022 0.22346 0.36558 0.0
C1081 C 0.18353 0.21053 0.37018 0.0
C1082 C 0.21158 0.21883 0.35316 0.0
C1083 C 0.23184 0.23169 0.34821 0.0
C1084 C 0.23157 0.24159 0.3357 0.0
C1085 C 0.25052 0.25408 0.33121 0.0
C1086 C 0.26986 0.25682 0.33914 0.0
C1087 C 0.27031 0.24705 0.35157 0.0
C1088 C 0.25142 0.23452 0.3561 0.0
C1089 C 0.12742 0.18255 0.32862 0.0
C1090 C 0.1326 0.16108 0.32314 0.0
C1091 C 0.14345 0.19347 0.33651 0.0
C1092 C 0.16465 0.18288 0.33912 0.0
C1093 C 0.17061 0.16234 0.33291 0.0
C1094 C 0.15468 0.15153 0.32487 0.0
C1095 C 0.17971 0.19283 0.34903 0.0
C1096 C 0.20028 0.2031 0.34503 0.0
C1097 C 0.17178 0.19554 0.36193 0.0
C1098 C 0.14988 0.185 0.36643 0.0
C1099 C 0.14624 0.16115 0.36525 0.0
C1100 C 0.12514 0.1515 0.36885 0.0
C1101 C 0.10756 0.16553 0.37369 0.0
C1102 C 0.11106 0.18922 0.37498 0.0
C1103 C 0.13212 0.19896 0.37139 0.0
H1104 H 0.09121 0.15804 0.37642 0.0
H1105 H 0.2845 0.26653 0.33566 0.0
H1106 H 0.98146 0.95159 0.64529 0.0
H1107 H 0.01298 0.95503 0.62997 0.0
H1108 H 0.96551 0.94687 0.59791 0.0
H1109 H 0.93384 0.94232 0.61343 0.0
H1110 H 0.99394 0.91319 0.59875 0.0
H1111 H 0.00455 0.99463 0.60045 0.0
H1112 H 0.00815 0.03291 0.61065 0.0
H1113 H 0.06805 0.01033 0.63154 0.0
H1114 H 0.06462 0.97182 0.62166 0.0
H1115 H 0.0957 0.88449 0.5648 0.0
H1116 H 0.06318 0.90957 0.57004 0.0
H1117 H 0.0845 0.91123 0.61029 0.0
H1118 H 0.11692 0.88599 0.60521 0.0
H1119 H 0.06808 0.95543 0.5992 0.0
H1120 H 0.04789 0.87523 0.60614 0.0
H1121 H 0.0464 0.83454 0.59926 0.0
H1122 H 0.0061 0.85335 0.56585 0.0
H1123 H 0.0076 0.89427 0.5725 0.0
C1124 C 0.97762 0.95148 0.63496 0.0
C1125 C 0.95543 0.94631 0.63045 0.0
C1126 C 0.99564 0.95374 0.62617 0.0
C1127 C 0.99161 0.95126 0.61276 0.0
C1128 C 0.96894 0.94884 0.60822 0.0
C1129 C 0.95094 0.94608 0.61705 0.0
C1130 C 0.01101 0.94485 0.60426 0.0
C1131 C 0.00981 0.92301 0.59839 0.0
C1132 C 0.0321 0.95707 0.60432 0.0
C1133 C 0.0343 0.98029 0.61028 0.0
C1134 C 0.01842 0.99777 0.60727 0.0
C1135 C 0.02044 0.01953 0.613 0.0
C1136 C 0.03832 0.02405 0.62173 0.0
C1137 C 0.05423 0.00682 0.62476 0.0
C1138 C 0.05228 0.98504 0.61907 0.0
C1139 C 0.09354 0.89036 0.57474 0.0
C1140 C 0.1086 0.88318 0.58465 0.0
C1141 C 0.07518 0.90481 0.57766 0.0
C1142 C 0.07186 0.91233 0.59047 0.0
C1143 C 0.08721 0.90578 0.60031 0.0
C1144 C 0.1054 0.89111 0.59743 0.0
C1145 C 0.05058 0.92412 0.59406 0.0
C1146 C 0.05168 0.94652 0.59905 0.0
C1147 C 0.02948 0.91228 0.59362 0.0
C1148 C 0.02809 0.88775 0.58971 0.0
C1149 C 0.03884 0.87068 0.59728 0.0
C1150 C 0.03798 0.8476 0.59344 0.0
C1151 C 0.02623 0.84138 0.58209 0.0
C1152 C 0.01523 0.85822 0.57461 0.0
C1153 C 0.01607 0.88135 0.57841 0.0
H1154 H 0.02559 0.8235 0.57913 0.0
H1155 H 0.03985 0.0409 0.62616 0.0
H1156 H 0.3526 0.73744 0.89994 0.0
H1157 H 0.34357 0.77583 0.89139 0.0
H1158 H 0.29464 0.74546 0.86474 0.0
H1159 H 0.30314 0.70745 0.87358 0.0
H1160 H 0.35653 0.78165 0.86829 0.0
H1161 H 0.25812 0.78245 0.85213 0.0
H1162 H 0.22046 0.77986 0.86302 0.0
H1163 H 0.25173 0.79719 0.89962 0.0
H1164 H 0.28953 0.80027 0.88896 0.0
H1165 H 0.36595 0.80764 0.80929 0.0
H1166 H 0.34016 0.78643 0.8236 0.0
H1167 H 0.31112 0.8503 0.83732 0.0
H1168 H 0.33386 0.87121 0.82129 0.0
H1169 H 0.28658 0.81203 0.84648 0.0
H1170 H 0.36857 0.83955 0.8524 0.0
H1171 H 0.40898 0.84402 0.84551 0.0
H1172 H 0.41083 0.77337 0.8332 0.0
H1173 H 0.37091 0.76809 0.84091 0.0
C1174 C 0.33986 0.7392 0.89229 0.0
C1175 C 0.32925 0.71975 0.88689 0.0
C1176 C 0.33425 0.76105 0.8877 0.0
C1177 C 0.31838 0.76351 0.87747 0.0
C1178 C 0.30659 0.7441 0.8728 0.0
C1179 C 0.31194 0.72234 0.87753 0.0
C1180 C 0.31948 0.78385 0.869 0.0
C1181 C 0.34113 0.78872 0.86382 0.0
C1182 C 0.29957 0.79358 0.86328 0.0
C1183 C 0.27676 0.79157 0.86971 0.0
C1184 C 0.25699 0.78589 0.86248 0.0
C1185 C 0.23559 0.78428 0.86863 0.0
C1186 C 0.2337 0.78835 0.882 0.0
C1187 C 0.25321 0.79399 0.88927 0.0
C1188 C 0.27465 0.79561 0.88318 0.0
C1189 C 0.35304 0.81705 0.81474 0.0
C1190 C 0.35341 0.84116 0.8153 0.0
C1191 C 0.33824 0.80495 0.82288 0.0
C1192 C 0.32537 0.81709 0.8322 0.0
C1193 C 0.32184 0.84073 0.83058 0.0
C1194 C 0.33544 0.85272 0.82172 0.0
C1195 C 0.32324 0.80721 0.84531 0.0
C1196 C 0.30168 0.80514 0.8513 0.0
C1197 C 0.34326 0.80023 0.85208 0.0
C1198 C 0.36678 0.80358 0.84698 0.0
C1199 C 0.3776 0.82505 0.84815 0.0
C1200 C 0.40043 0.82769 0.84415 0.0
C1201 C 0.41232 0.80917 0.83863 0.0
C1202 C 0.40157 0.78776 0.83738 0.0
C1203 C 0.37897 0.78485 0.84171 0.0
H1204 H 0.42993 0.81135 0.83544 0.0
H1205 H 0.21711 0.78713 0.88673 0.0
H1206 H 0.40679 0.09565 0.06088 0.0
H1207 H 0.42764 0.06418 0.07166 0.0
H1208 H 0.41536 0.09635 0.10891 0.0
H1209 H 0.3953 0.12785 0.09817 0.0
H1210 H 0.46101 0.0999 0.08744 0.0
H1211 H 0.40719 0.05879 0.11733 0.0
H1212 H 0.37615 0.03081 0.12135 0.0
H1213 H 0.41538 0.97806 0.10217 0.0
H1214 H 0.44648 0.00596 0.0978 0.0
H1215 H 0.52282 0.09944 0.14328 0.0
H1216 H 0.48782 0.08654 0.13224 0.0
H1217 H 0.52861 0.04606 0.10561 0.0
H1218 H 0.5638 0.05862 0.11684 0.0
H1219 H 0.47088 0.0344 0.118 0.0
H1220 H 0.52536 0.08354 0.08832 0.0
H1221 H 0.5541 0.11489 0.08875 0.0
H1222 H 0.50875 0.15605 0.11221 0.0
H1223 H 0.47984 0.1249 0.1119 0.0
C1224 C 0.40794 0.09536 0.07141 0.0
C1225 C 0.40066 0.11428 0.07879 0.0
C1226 C 0.41919 0.07714 0.07757 0.0
C1227 C 0.42287 0.0779 0.09107 0.0
C1228 C 0.41223 0.09514 0.09853 0.0
C1229 C 0.40151 0.11352 0.09238 0.0
C1230 C 0.44505 0.06991 0.09597 0.0
C1231 C 0.46338 0.08503 0.09372 0.0
C1232 C 0.44772 0.05106 0.10449 0.0
C1233 C 0.42889 0.03457 0.10697 0.0
C1234 C 0.40901 0.04137 0.11374 0.0
C1235 C 0.39145 0.02549 0.11615 0.0
C1236 C 0.39372 0.0027 0.11194 0.0
C1237 C 0.41358 0.99574 0.10536 0.0
C1238 C 0.43116 0.01159 0.1029 0.0
C1239 C 0.52422 0.08773 0.1351 0.0
C1240 C 0.54576 0.08066 0.13048 0.0
C1241 C 0.50432 0.07981 0.12911 0.0
C1242 C 0.50584 0.06508 0.11834 0.0
C1243 C 0.52728 0.05699 0.11414 0.0
C1244 C 0.54723 0.06465 0.12027 0.0
C1245 C 0.48637 0.06452 0.1094 0.0
C1246 C 0.46877 0.04827 0.11102 0.0
C1247 C 0.48375 0.0829 0.10059 0.0
C1248 C 0.50052 0.10204 0.10002 0.0
C1249 C 0.52153 0.09937 0.09347 0.0
C1250 C 0.53784 0.11705 0.09373 0.0
C1251 C 0.53325 0.13746 0.10049 0.0
C1252 C 0.51227 0.14028 0.10694 0.0
C1253 C 0.4959 0.12266 0.10669 0.0
H1254 H 0.54595 0.15108 0.10073 0.0
H1255 H 0.38014 0.99041 0.11384 0.0
H1256 H 0.19898 0.74918 0.07912 0.0
H1257 H 0.21381 0.77744 0.09443 0.0
H1258 H 0.20283 0.72971 0.12605 0.0
H1259 H 0.19006 0.70075 0.11074 0.0
H1260 H 0.17928 0.7896 0.108 0.0
H1261 H 0.21965 0.74539 0.15357 0.0
H1262 H 0.25341 0.72145 0.1589 0.0
H1263 H 0.28948 0.74875 0.12584 0.0
H1264 H 0.25594 0.77288 0.12032 0.0
H1265 H 0.11491 0.81479 0.15754 0.0
H1266 H 0.14409 0.78785 0.14974 0.0
H1267 H 0.19589 0.84069 0.15316 0.0
H1268 H 0.16697 0.86736 0.16165 0.0
H1269 H 0.21136 0.78863 0.15281 0.0
H1270 H 0.16882 0.84929 0.12799 0.0
H1271 H 0.13236 0.86956 0.12339 0.0
H1272 H 0.09979 0.80513 0.11434 0.0
H1273 H 0.13598 0.7845 0.11905 0.0
C1274 C 0.20075 0.74426 0.08924 0.0
C1275 C 0.19218 0.72314 0.09383 0.0
C1276 C 0.20951 0.7604 0.09797 0.0
C1277 C 0.20899 0.75591 0.11141 0.0
C1278 C 0.2035 0.73369 0.11575 0.0
C1279 C 0.19536 0.71735 0.107 0.0
C1280 C 0.20546 0.77518 0.12056 0.0
C1281 C 0.18704 0.78987 0.11762 0.0
C1282 C 0.21509 0.77537 0.13322 0.0
C1283 C 0.2353 0.76096 0.13655 0.0
C1284 C 0.23484 0.74641 0.14749 0.0
C1285 C 0.2539 0.73273 0.15051 0.0
C1286 C 0.27358 0.73358 0.14272 0.0
C1287 C 0.27421 0.74806 0.13185 0.0
C1288 C 0.25515 0.76167 0.12874 0.0
C1289 C 0.13275 0.8202 0.15726 0.0
C1290 C 0.13882 0.84309 0.15976 0.0
C1291 C 0.14942 0.80479 0.15299 0.0
C1292 C 0.17187 0.81263 0.15064 0.0
C1293 C 0.1786 0.83447 0.15495 0.0
C1294 C 0.16203 0.84972 0.15963 0.0
C1295 C 0.18492 0.80166 0.14014 0.0
C1296 C 0.2047 0.78887 0.14294 0.0
C1297 C 0.17646 0.80283 0.12726 0.0
C1298 C 0.15504 0.81541 0.1239 0.0
C1299 C 0.15387 0.83949 0.12502 0.0
C1300 C 0.13326 0.85103 0.1224 0.0
C1301 C 0.11377 0.83864 0.11858 0.0
C1302 C 0.11489 0.81471 0.11729 0.0
C1303 C 0.13545 0.8031 0.11991 0.0
H1304 H 0.09781 0.8476 0.1166 0.0
H1305 H 0.28834 0.72301 0.14509 0.0
H1306 H 0.54802 0.95188 0.35915 0.0
H1307 H 0.5129 0.96146 0.37108 0.0
H1308 H 0.47196 0.93733 0.33877 0.0
H1309 H 0.50719 0.92686 0.32702 0.0
H1310 H 0.4637 0.98081 0.36867 0.0
H1311 H 0.45283 0.89819 0.34765 0.0
H1312 H 0.47259 0.86585 0.33666 0.0
H1313 H 0.52747 0.86938 0.3646 0.0
H1314 H 0.5081 0.90189 0.37563 0.0
H1315 H 0.38033 0.91811 0.40908 0.0
H1316 H 0.40188 0.94413 0.39512 0.0
H1317 H 0.4651 0.91173 0.40742 0.0
H1318 H 0.4433 0.88363 0.41991 0.0
H1319 H 0.45302 0.90004 0.38319 0.0
H1320 H 0.45344 0.97228 0.40845 0.0
H1321 H 0.43352 0.00421 0.41962 0.0
H1322 H 0.39771 0.02101 0.38428 0.0
H1323 H 0.41721 0.98902 0.37295 0.0
C1324 C 0.53148 0.94924 0.35452 0.0
C1325 C 0.5299 0.93791 0.34252 0.0
C1326 C 0.51151 0.95518 0.36116 0.0
C1327 C 0.48998 0.94987 0.35579 0.0
C1328 C 0.48851 0.94147 0.34302 0.0
C1329 C 0.50849 0.93508 0.33647 0.0
C1330 C 0.47132 0.94509 0.36495 0.0
C1331 C 0.46082 0.96319 0.37177 0.0
C1332 C 0.46771 0.9221 0.36887 0.0
C1333 C 0.47913 0.9024 0.36239 0.0
C1334 C 0.46909 0.89198 0.35143 0.0
C1335 C 0.48024 0.8737 0.34519 0.0
C1336 C 0.50127 0.86557 0.34993 0.0
C1337 C 0.51119 0.8757 0.36094 0.0
C1338 C 0.50017 0.89407 0.36716 0.0
C1339 C 0.39882 0.91662 0.40886 0.0
C1340 C 0.4101 0.89765 0.4145 0.0
C1341 C 0.41118 0.93199 0.40116 0.0
C1342 C 0.43497 0.92914 0.39984 0.0
C1343 C 0.44659 0.91366 0.40805 0.0
C1344 C 0.43415 0.89751 0.41511 0.0
C1345 C 0.4463 0.93585 0.38762 0.0
C1346 C 0.4552 0.91778 0.38007 0.0
C1347 C 0.44792 0.95875 0.38307 0.0
C1348 C 0.43667 0.97819 0.38989 0.0
C1349 C 0.44122 0.9827 0.40309 0.0
C1350 C 0.43003 1.00083 0.40944 0.0
C1351 C 0.41434 0.01461 0.40267 0.0
C1352 C 0.40987 0.01034 0.38952 0.0
C1353 C 0.42101 0.99225 0.38313 0.0
H1354 H 0.40567 0.02861 0.40761 0.0
H1355 H 0.50991 0.85147 0.34506 0.0
H1356 H 0.33957 0.16791 0.66924 0.0
H1357 H 0.31386 0.19006 0.65501 0.0
H1358 H 0.35106 0.1656 0.6214 0.0
H1359 H 0.37689 0.14415 0.6355 0.0
H1360 H 0.36021 0.21251 0.63983 0.0
H1361 H 0.31369 0.16556 0.61079 0.0
H1362 H 0.28219 0.13859 0.60582 0.0
H1363 H 0.23305 0.18686 0.62102 0.0
H1364 H 0.26439 0.21396 0.62633 0.0
H1365 H 0.36219 0.28992 0.58809 0.0
H1366 H 0.34742 0.25294 0.59565 0.0
H1367 H 0.31621 0.28634 0.62873 0.0
H1368 H 0.33163 0.32343 0.62152 0.0
H1369 H 0.29691 0.23479 0.60987 0.0
H1370 H 0.35144 0.27348 0.64508 0.0
H1371 H 0.38434 0.30017 0.64718 0.0
H1372 H 0.41977 0.26434 0.61654 0.0
H1373 H 0.38691 0.23767 0.61421 0.0
C1374 C 0.34145 0.16658 0.65876 0.0
C1375 C 0.36033 0.15519 0.65332 0.0
C1376 C 0.32642 0.17863 0.65065 0.0
C1377 C 0.33066 0.17946 0.63719 0.0
C1378 C 0.34724 0.16483 0.63172 0.0
C1379 C 0.36239 0.15312 0.6398 0.0
C1380 C 0.32825 0.20187 0.6309 0.0
C1381 C 0.34614 0.21738 0.63343 0.0
C1382 C 0.31022 0.20785 0.62234 0.0
C1383 C 0.29143 0.19158 0.61921 0.0
C1384 C 0.29623 0.17027 0.6133 0.0
C1385 C 0.27839 0.155 0.61035 0.0
C1386 C 0.25564 0.16095 0.61317 0.0
C1387 C 0.25069 0.18223 0.61889 0.0
C1388 C 0.26849 0.19755 0.62187 0.0
C1389 C 0.35243 0.28937 0.59707 0.0
C1390 C 0.34881 0.30936 0.60454 0.0
C1391 C 0.34323 0.26843 0.60105 0.0
C1392 C 0.33027 0.26723 0.6125 0.0
C1393 C 0.32564 0.28725 0.61964 0.0
C1394 C 0.33502 0.30819 0.61575 0.0
C1395 C 0.32864 0.24507 0.61909 0.0
C1396 C 0.31045 0.22982 0.61657 0.0
C1397 C 0.34664 0.23872 0.6275 0.0
C1398 C 0.36691 0.25366 0.62952 0.0
C1399 C 0.36635 0.27128 0.63887 0.0
C1400 C 0.38488 0.28647 0.64004 0.0
C1401 C 0.40412 0.28398 0.63199 0.0
C1402 C 0.40488 0.26625 0.62278 0.0
C1403 C 0.38633 0.25111 0.62153 0.0
H1404 H 0.41846 0.29574 0.63291 0.0
H1405 H 0.24184 0.14911 0.61087 0.0
H1406 H 0.12418 0.08845 0.89955 0.0
H1407 H 0.09575 0.0599 0.89247 0.0
H1408 H 0.04144 0.10193 0.90855 0.0
H1409 H 0.0698 0.13064 0.91534 0.0
H1410 H 0.03183 0.05096 0.90624 0.0
H1411 H 0.05399 0.12178 0.88165 0.0
H1412 H 0.08395 0.14764 0.87293 0.0
H1413 H 0.11527 0.09066 0.85297 0.0
H1414 H 0.08553 0.06445 0.86171 0.0
H1415 H 0.94125 0.0923 0.86775 0.0
H1416 H 0.97332 0.0821 0.88215 0.0
H1417 H 0.00387 0.04167 0.8514 0.0
H1418 H 0.97238 0.05212 0.83694 0.0
H1419 H 0.03072 0.07676 0.86013 0.0
H1420 H 0.99025 0.01396 0.87801 0.0
H1421 H 0.95726 0.99306 0.88733 0.0
H1422 H 0.95758 0.03803 0.92055 0.0
H1423 H 0.99032 0.05948 0.91133 0.0
C1424 C 0.10624 0.09088 0.90209 0.0
C1425 C 0.09874 0.11149 0.90775 0.0
C1426 C 0.09015 0.07455 0.8982 0.0
C1427 C 0.06667 0.079 0.89999 0.0
C1428 C 0.05957 0.09821 0.90725 0.0
C1429 C 0.07562 0.11467 0.91096 0.0
C1430 C 0.04997 0.06884 0.89105 0.0
C1431 C 0.03161 0.05608 0.89608 0.0
C1432 C 0.05006 0.07559 0.87783 0.0
C1433 C 0.0678 0.09118 0.87244 0.0
C1434 C 0.06736 0.11479 0.87545 0.0
C1435 C 0.08426 0.1295 0.87051 0.0
C1436 C 0.10156 0.12078 0.86244 0.0
C1437 C 0.10191 0.09736 0.85926 0.0
C1438 C 0.08504 0.08258 0.8642 0.0
C1439 C 0.95465 0.08096 0.86418 0.0
C1440 C 0.95441 0.073 0.85129 0.0
C1441 C 0.97269 0.07484 0.87243 0.0
C1442 C 0.99062 0.0608 0.86783 0.0
C1443 C 0.98991 0.05214 0.85514 0.0
C1444 C 0.97195 0.05819 0.84692 0.0
C1445 C 0.01203 0.05919 0.87532 0.0
C1446 C 0.03129 0.07019 0.87003 0.0
C1447 C 0.01242 0.05116 0.8883 0.0
C1448 C 0.99273 0.03837 0.89395 0.0
C1449 C 0.98319 0.01951 0.88726 0.0
C1450 C 0.96454 0.00755 0.89253 0.0
C1451 C 0.95532 0.01422 0.90452 0.0
C1452 C 0.96475 0.03287 0.91127 0.0
C1453 C 0.98339 0.04492 0.90603 0.0
H1454 H 0.94088 0.00493 0.90859 0.0
H1455 H 0.11465 0.13218 0.85863 0.0
H1456 H 0.85771 0.7056 0.61556 0.0
H1457 H 0.84764 0.73472 0.63155 0.0
H1458 H 0.77969 0.74046 0.61485 0.0
H1459 H 0.79022 0.71239 0.5982 0.0
H1460 H 0.7997 0.78015 0.61581 0.0
H1461 H 0.78675 0.72249 0.6475 0.0
H1462 H 0.79473 0.6859 0.65881 0.0
H1463 H 0.85935 0.71254 0.67233 0.0
H1464 H 0.85196 0.74916 0.66097 0.0
H1465 H 0.82128 0.88081 0.65119 0.0
H1466 H 0.79938 0.84549 0.64717 0.0
H1467 H 0.8607 0.80517 0.65407 0.0
H1468 H 0.88212 0.84033 0.65893 0.0
H1469 H 0.82442 0.78209 0.66204 0.0
H1470 H 0.84578 0.82421 0.62155 0.0
H1471 H 0.84503 0.85914 0.60783 0.0
H1472 H 0.77121 0.86019 0.60964 0.0
H1473 H 0.77162 0.82521 0.62335 0.0
C1474 C 0.84057 0.71292 0.61535 0.0
C1475 C 0.82486 0.70687 0.60558 0.0
C1476 C 0.83462 0.72918 0.62468 0.0
C1477 C 0.81268 0.73931 0.62459 0.0
C1478 C 0.79655 0.73251 0.61521 0.0
C1479 C 0.80261 0.71645 0.60573 0.0
C1480 C 0.80856 0.75984 0.63267 0.0
C1481 C 0.80413 0.7805 0.62608 0.0
C1482 C 0.8146 0.76026 0.64601 0.0
C1483 C 0.81869 0.73867 0.65343 0.0
C1484 C 0.80264 0.72057 0.65291 0.0
C1485 C 0.80709 0.6998 0.65931 0.0
C1486 C 0.82751 0.69691 0.6663 0.0
C1487 C 0.84349 0.71483 0.66695 0.0
C1488 C 0.83913 0.73565 0.66058 0.0
C1489 C 0.82989 0.8643 0.65195 0.0
C1490 C 0.85335 0.86302 0.65505 0.0
C1491 C 0.8174 0.84423 0.64975 0.0
C1492 C 0.82852 0.82281 0.65011 0.0
C1493 C 0.85175 0.82154 0.65382 0.0
C1494 C 0.86405 0.84156 0.65642 0.0
C1495 C 0.81735 0.80206 0.64483 0.0
C1496 C 0.81865 0.78155 0.652 0.0
C1497 C 0.80907 0.80161 0.63189 0.0
C1498 C 0.80873 0.82234 0.62352 0.0
C1499 C 0.82942 0.83195 0.61901 0.0
C1500 C 0.82906 0.85171 0.61124 0.0
C1501 C 0.80808 0.86192 0.6079 0.0
C1502 C 0.78743 0.85228 0.61225 0.0
C1503 C 0.78771 0.83247 0.61999 0.0
H1504 H 0.80783 0.87726 0.60192 0.0
H1505 H 0.83097 0.68077 0.67119 0.0
H1506 H 0.06883 0.07657 0.36413 0.0
H1507 H 0.03954 0.07144 0.38073 0.0
H1508 H 0.99471 0.03987 0.35232 0.0
H1509 H 0.02347 0.04634 0.33546 0.0
H1510 H 0.97966 0.08082 0.36039 0.0
H1511 H 0.00915 0.01255 0.38193 0.0
H1512 H 0.04014 0.98965 0.39202 0.0
H1513 H 0.05043 0.04247 0.42073 0.0
H1514 H 0.01966 0.06577 0.41073 0.0
H1515 H 0.88252 0.07096 0.39981 0.0
H1516 H 0.9185 0.05722 0.39026 0.0
H1517 H 0.95528 0.11303 0.40861 0.0
H1518 H 0.91909 0.12738 0.41792 0.0
H1519 H 0.97468 0.05891 0.40702 0.0
H1520 H 0.95391 0.12941 0.38493 0.0
H1521 H 0.92664 0.15694 0.37515 0.0
H1522 H 0.90505 0.10548 0.3477 0.0
H1523 H 0.93183 0.07743 0.35758 0.0
C1524 C 0.05297 0.06792 0.36153 0.0
C1525 C 0.0479 0.0627 0.34849 0.0
C1526 C 0.03642 0.06459 0.37107 0.0
C1527 C 0.01493 0.05551 0.36767 0.0
C1528 C 0.01125 0.04699 0.35505 0.0
C1529 C 0.02767 0.05071 0.34544 0.0
C1530 C 0.99506 0.0609 0.37591 0.0
C1531 C 0.97833 0.07546 0.37049 0.0
C1532 C 0.99423 0.05526 0.38929 0.0
C1533 C 0.01215 0.0409 0.39556 0.0
C1534 C 0.01806 0.01929 0.39038 0.0
C1535 C 0.03558 0.00624 0.39608 0.0
C1536 C 0.04726 0.01461 0.407 0.0
C1537 C 0.04135 0.03599 0.41228 0.0
C1538 C 0.02383 0.04909 0.40663 0.0
C1539 C 0.89834 0.08006 0.40196 0.0
C1540 C 0.89827 0.10027 0.4094 0.0
C1541 C 0.91876 0.07217 0.39659 0.0
C1542 C 0.9392 0.08419 0.39886 0.0
C1543 C 0.93946 0.10363 0.40691 0.0
C1544 C 0.91891 0.11188 0.41204 0.0
C1545 C 0.95941 0.07806 0.39129 0.0
C1546 C 0.97608 0.06374 0.39685 0.0
C1547 C 0.96076 0.0845 0.3781 0.0
C1548 C 0.94448 0.10118 0.37219 0.0
C1549 C 0.94304 0.12383 0.37697 0.0
C1550 C 0.92775 0.13956 0.37138 0.0
C1551 C 0.91401 0.13292 0.36086 0.0
C1552 C 0.91561 0.11055 0.3559 0.0
C1553 C 0.93081 0.09472 0.36151 0.0
H1554 H 0.90222 0.14514 0.35652 0.0
H1555 H 0.06088 0.00451 0.41137 0.0
H1556 H 0.63346 0.19706 0.16908 0.0
H1557 H 0.66108 0.21898 0.15631 0.0
H1558 H 0.69575 0.15618 0.14546 0.0
H1559 H 0.67001 0.13448 0.15963 0.0
H1560 H 0.72275 0.19914 0.14105 0.0
H1561 H 0.65136 0.16292 0.12761 0.0
H1562 H 0.61126 0.15125 0.13188 0.0
H1563 H 0.59222 0.22213 0.13723 0.0
H1564 H 0.63205 0.23414 0.13282 0.0
H1565 H 0.69518 0.2679 0.07744 0.0
H1566 H 0.70115 0.23249 0.09008 0.0
H1567 H 0.69775 0.27186 0.12566 0.0
H1568 H 0.69121 0.30711 0.11313 0.0
H1569 H 0.66092 0.22815 0.11186 0.0
H1570 H 0.74037 0.25622 0.13236 0.0
H1571 H 0.78042 0.26533 0.12608 0.0
H1572 H 0.78315 0.20412 0.1026 0.0
H1573 H 0.74313 0.19484 0.10871 0.0
C1574 C 0.64767 0.18802 0.16454 0.0
C1575 C 0.64854 0.16391 0.16442 0.0
C1576 C 0.66358 0.20056 0.15734 0.0
C1577 C 0.67953 0.18894 0.14945 0.0
C1578 C 0.68311 0.16533 0.15123 0.0
C1579 C 0.66791 0.15289 0.15904 0.0
C1580 C 0.68626 0.19981 0.13711 0.0
C1581 C 0.70932 0.20523 0.13458 0.0
C1582 C 0.66892 0.20646 0.12817 0.0
C1583 C 0.6446 0.1994 0.12985 0.0
C1584 C 0.63852 0.17599 0.12959 0.0
C1585 C 0.61583 0.16931 0.13204 0.0
C1586 C 0.59911 0.18592 0.13482 0.0
C1587 C 0.60504 0.20925 0.13499 0.0
C1588 C 0.62764 0.21602 0.13244 0.0
C1589 C 0.69647 0.26899 0.08795 0.0
C1590 C 0.69263 0.28998 0.09442 0.0
C1591 C 0.70002 0.24888 0.0951 0.0
C1592 C 0.70027 0.24983 0.1087 0.0
C1593 C 0.69809 0.27105 0.11512 0.0
C1594 C 0.69412 0.29104 0.10801 0.0
C1595 C 0.69707 0.22893 0.11641 0.0
C1596 C 0.67448 0.22134 0.11804 0.0
C1597 C 0.71484 0.2197 0.1241 0.0
C1598 C 0.73904 0.22478 0.12107 0.0
C1599 C 0.74965 0.24468 0.12594 0.0
C1600 C 0.77227 0.2499 0.12238 0.0
C1601 C 0.78434 0.23528 0.11397 0.0
C1602 C 0.77383 0.21539 0.10913 0.0
C1603 C 0.75121 0.21015 0.11265 0.0
H1604 H 0.80183 0.23937 0.1112 0.0
H1605 H 0.5816 0.18072 0.13685 0.0
H1606 H 0.62153 0.94641 0.91393 0.0
H1607 H 0.59036 0.96157 0.9002 0.0
H1608 H 0.54859 0.90261 0.91004 0.0
H1609 H 0.57944 0.88762 0.92363 0.0
H1610 H 0.5763 0.93451 0.87877 0.0
H1611 H 0.49462 0.91484 0.90858 0.0
H1612 H 0.4812 0.91732 0.9313 0.0
H1613 H 0.5276 0.97345 0.93839 0.0
H1614 H 0.54111 0.97153 0.91564 0.0
H1615 H 0.48178 0.88835 0.84436 0.0
H1616 H 0.51463 0.89874 0.85796 0.0
H1617 H 0.48066 0.96205 0.86886 0.0
H1618 H 0.44696 0.95065 0.85664 0.0
H1619 H 0.49322 0.94133 0.88893 0.0
H1620 H 0.53141 0.95967 0.84867 0.0
H1621 H 0.54502 0.95246 0.82628 0.0
H1622 H 0.5853 0.89523 0.83973 0.0
H1623 H 0.57176 0.90188 0.86217 0.0
C1624 C 0.60521 0.93741 0.91362 0.0
C1625 C 0.60265 0.91598 0.91969 0.0
C1626 C 0.58764 0.94588 0.9057 0.0
C1627 C 0.56736 0.93313 0.90415 0.0
C1628 C 0.56405 0.91281 0.91127 0.0
C1629 C 0.58159 0.90428 0.91903 0.0
C1630 C 0.55084 0.9388 0.89385 0.0
C1631 C 0.55812 0.93661 0.88087 0.0
C1632 C 0.52729 0.9413 0.89676 0.0
C1633 C 0.51882 0.94309 0.91038 0.0
C1634 C 0.50179 0.92789 0.91494 0.0
C1635 C 0.49422 0.92914 0.92784 0.0
C1636 C 0.50353 0.94554 0.93628 0.0
C1637 C 0.52042 0.96075 0.93184 0.0
C1638 C 0.52805 0.95958 0.91894 0.0
C1639 C 0.48118 0.90428 0.84983 0.0
C1640 C 0.46167 0.91857 0.84948 0.0
C1641 C 0.50023 0.91052 0.8573 0.0
C1642 C 0.50024 0.93142 0.86419 0.0
C1643 C 0.48107 0.94596 0.86351 0.0
C1644 C 0.46182 0.9394 0.85647 0.0
C1645 C 0.51843 0.93651 0.87372 0.0
C1646 C 0.51141 0.94037 0.88662 0.0
C1647 C 0.54212 0.93518 0.87067 0.0
C1648 C 0.55051 0.9313 0.85715 0.0
C1649 C 0.5431 0.94549 0.84686 0.0
C1650 C 0.55082 0.9415 0.83415 0.0
C1651 C 0.56601 0.92341 0.83159 0.0
C1652 C 0.57356 0.90927 0.84173 0.0
C1653 C 0.56591 0.91319 0.85446 0.0
H1654 H 0.57195 0.92034 0.82174 0.0
H1655 H 0.49767 0.94646 0.94627 0.0
H1656 H 0.87383 0.19304 0.80964 0.0
H1657 H 0.84817 0.21627 0.82302 0.0
H1658 H 0.81415 0.15481 0.8365 0.0
H1659 H 0.8376 0.13181 0.82177 0.0
H1660 H 0.79034 0.19998 0.84266 0.0
H1661 H 0.86306 0.15859 0.8546 0.0
H1662 H 0.90229 0.14481 0.84995 0.0
H1663 H 0.92134 0.21218 0.83645 0.0
H1664 H 0.88243 0.2266 0.84173 0.0
H1665 H 0.85496 0.2687 0.89912 0.0
H1666 H 0.84335 0.23146 0.89003 0.0
H1667 H 0.80725 0.26656 0.85905 0.0
H1668 H 0.81856 0.3036 0.8682 0.0
H1669 H 0.86015 0.22069 0.86801 0.0
H1670 H 0.76716 0.23585 0.84567 0.0
H1671 H 0.72876 0.2463 0.85398 0.0
H1672 H 0.74883 0.22599 0.89256 0.0
H1673 H 0.78725 0.21524 0.88449 0.0
C1674 C 0.85998 0.18461 0.81485 0.0
C1675 C 0.85884 0.16056 0.81561 0.0
C1676 C 0.84514 0.19789 0.82237 0.0
C1677 C 0.83033 0.18697 0.83122 0.0
C1678 C 0.826 0.16341 0.82997 0.0
C1679 C 0.83995 0.15022 0.82184 0.0
C1680 C 0.82723 0.1978 0.84399 0.0
C1681 C 0.80542 0.20461 0.8483 0.0
C1682 C 0.84677 0.20207 0.85181 0.0
C1683 C 0.86994 0.19352 0.84841 0.0
C1684 C 0.87565 0.1704 0.85062 0.0
C1685 C 0.89784 0.16252 0.84792 0.0
C1686 C 0.91427 0.17751 0.84272 0.0
C1687 C 0.90861 0.20056 0.84044 0.0
C1688 C 0.88658 0.20866 0.84342 0.0
C1689 C 0.84457 0.2683 0.89035 0.0
C1690 C 0.8383 0.28874 0.884 0.0
C1691 C 0.83745 0.24716 0.88541 0.0
C1692 C 0.82419 0.24629 0.87399 0.0
C1693 C 0.81697 0.26682 0.86806 0.0
C1694 C 0.82393 0.28792 0.87305 0.0
C1695 C 0.82339 0.22504 0.86626 0.0
C1696 C 0.84467 0.21572 0.86281 0.0
C1697 C 0.80324 0.21805 0.85962 0.0
C1698 C 0.78014 0.22476 0.86445 0.0
C1699 C 0.76336 0.23348 0.85591 0.0
C1700 C 0.74159 0.23952 0.86059 0.0
C1701 C 0.73636 0.23682 0.87379 0.0
C1702 C 0.75291 0.22814 0.88235 0.0
C1703 C 0.77471 0.22215 0.87773 0.0
H1704 H 0.71948 0.24146 0.87738 0.0
H1705 H 0.93138 0.17128 0.84053 0.0
H1706 H 0.62129 0.07625 0.57078 0.0
H1707 H 0.59935 0.04623 0.58179 0.0
H1708 H 0.53639 0.0816 0.57218 0.0
H1709 H 0.55831 0.11279 0.56244 0.0
H1710 H 0.5686 0.08714 0.59927 0.0
H1711 H 0.52616 0.03742 0.56679 0.0
H1712 H 0.52731 0.00549 0.55091 0.0
H1713 H 0.5578 0.96136 0.57972 0.0
H1714 H 0.55696 0.99313 0.59571 0.0
H1715 H 0.45666 0.09302 0.61565 0.0
H1716 H 0.49019 0.08072 0.60302 0.0
H1717 H 0.51306 0.03847 0.63506 0.0
H1718 H 0.47973 0.05096 0.64787 0.0
H1719 H 0.51358 0.02221 0.60299 0.0
H1720 H 0.54466 0.07278 0.63715 0.0
H1721 H 0.54048 0.1063 0.65176 0.0
H1722 H 0.5311 0.15062 0.61871 0.0
H1723 H 0.53496 0.11733 0.60393 0.0
C1724 C 0.60272 0.0771 0.57053 0.0
C1725 C 0.59135 0.09728 0.56656 0.0
C1726 C 0.59021 0.05966 0.57659 0.0
C1727 C 0.56643 0.06219 0.57808 0.0
C1728 C 0.55484 0.07955 0.57117 0.0
C1729 C 0.56734 0.09752 0.56574 0.0
C1730 C 0.55608 0.05573 0.59053 0.0
C1731 C 0.55711 0.07252 0.60035 0.0
C1732 C 0.54158 0.03655 0.59192 0.0
C1733 C 0.54167 0.0176 0.58236 0.0
C1734 C 0.53323 0.02094 0.56968 0.0
C1735 C 0.53378 0.00287 0.56068 0.0
C1736 C 0.54266 0.98142 0.56429 0.0
C1737 C 0.55093 0.97797 0.57693 0.0
C1738 C 0.55039 0.99598 0.58596 0.0
C1739 C 0.46878 0.08105 0.61995 0.0
C1740 C 0.46578 0.07295 0.63266 0.0
C1741 C 0.48763 0.07381 0.61272 0.0
C1742 C 0.50365 0.05852 0.61817 0.0
C1743 C 0.5005 0.04993 0.63073 0.0
C1744 C 0.48162 0.05718 0.63798 0.0
C1745 C 0.52506 0.05449 0.61113 0.0
C1746 C 0.52618 0.03594 0.6024 0.0
C1747 C 0.54146 0.07233 0.6106 0.0
C1748 C 0.54018 0.09256 0.61945 0.0
C1749 C 0.54171 0.08967 0.63301 0.0
C1750 C 0.53937 0.10863 0.64132 0.0
C1751 C 0.53555 0.13058 0.63617 0.0
C1752 C 0.53413 0.13363 0.62269 0.0
C1753 C 0.53646 0.11473 0.61434 0.0
H1754 H 0.53367 0.14522 0.64261 0.0
H1755 H 0.5431 0.96746 0.55731 0.0
H1756 H 0.66616 0.75225 0.39384 0.0
H1757 H 0.67739 0.77652 0.37537 0.0
H1758 H 0.71142 0.71858 0.35745 0.0
H1759 H 0.7 0.69419 0.37583 0.0
H1760 H 0.72745 0.77635 0.35463 0.0
H1761 H 0.66999 0.7132 0.34575 0.0
H1762 H 0.63785 0.69003 0.35441 0.0
H1763 H 0.60024 0.75183 0.36313 0.0
H1764 H 0.63238 0.77532 0.35479 0.0
H1765 H 0.63714 0.83619 0.30748 0.0
H1766 H 0.66623 0.80576 0.31012 0.0
H1767 H 0.68007 0.83006 0.3491 0.0
H1768 H 0.65059 0.85956 0.34667 0.0
H1769 H 0.65318 0.77684 0.33078 0.0
H1770 H 0.73337 0.81757 0.35719 0.0
H1771 H 0.76271 0.84692 0.35241 0.0
H1772 H 0.7504 0.83901 0.31142 0.0
H1773 H 0.72119 0.80933 0.31591 0.0
C1774 C 0.67669 0.745 0.38616 0.0
C1775 C 0.68181 0.72146 0.38593 0.0
C1776 C 0.68332 0.75883 0.37575 0.0
C1777 C 0.69515 0.74913 0.36516 0.0
C1778 C 0.70245 0.72622 0.36563 0.0
C1779 C 0.69563 0.71234 0.37597 0.0
C1780 C 0.69401 0.76098 0.35262 0.0
C1781 C 0.7115 0.77633 0.34915 0.0
C1782 C 0.67337 0.76018 0.34539 0.0
C1783 C 0.65357 0.74595 0.34967 0.0
C1784 C 0.65487 0.7218 0.34953 0.0
C1785 C 0.63667 0.70863 0.3544 0.0
C1786 C 0.61702 0.71945 0.35932 0.0
C1787 C 0.61546 0.74347 0.35932 0.0
C1788 C 0.63365 0.7567 0.35451 0.0
C1789 C 0.64677 0.83509 0.3165 0.0
C1790 C 0.64126 0.84933 0.3271 0.0
C1791 C 0.66362 0.81814 0.31787 0.0
C1792 C 0.67547 0.81593 0.32971 0.0
C1793 C 0.67143 0.83177 0.33979 0.0
C1794 C 0.6542 0.84818 0.33856 0.0
C1795 C 0.6858 0.79384 0.33341 0.0
C1796 C 0.66993 0.77608 0.33545 0.0
C1797 C 0.70752 0.79313 0.33958 0.0
C1798 C 0.72514 0.81103 0.3369 0.0
C1799 C 0.73705 0.82185 0.34715 0.0
C1800 C 0.75363 0.83864 0.34449 0.0
C1801 C 0.75845 0.84479 0.33162 0.0
C1802 C 0.74665 0.83423 0.32138 0.0
C1803 C 0.73005 0.81745 0.32398 0.0
H1804 H 0.77131 0.85777 0.32959 0.0
H1805 H 0.60299 0.70922 0.36313 0.0
H1806 H 0.01168 0.92608 0.14859 0.0
H1807 H 0.97893 0.93656 0.13493 0.0
H1808 H 0.02511 0.95724 0.10421 0.0
H1809 H 0.05816 0.94715 0.11803 0.0
H1810 H 0.96951 0.97919 0.10993 0.0
H1811 H 0.01934 0.91319 0.09553 0.0
H1812 H 0.04606 0.88199 0.10177 0.0
H1813 H 0.9955 0.85459 0.12801 0.0
H1814 H 0.96866 0.88585 0.12205 0.0
H1815 H 0.89283 0.90585 0.06536 0.0
H1816 H 0.92574 0.9286 0.07263 0.0
H1817 H 0.90397 0.92057 0.11251 0.0
H1818 H 0.87071 0.89812 0.10537 0.0
H1819 H 0.95135 0.89884 0.09679 0.0
H1820 H 0.90237 0.96398 0.11182 0.0
H1821 H 0.87525 0.99559 0.10719 0.0
H1822 H 0.92329 0.0249 0.0801 0.0
H1823 H 0.95048 0.99309 0.08438 0.0
C1824 C 0.01477 0.93341 0.13904 0.0
C1825 C 0.0371 0.93511 0.13405 0.0
C1826 C 0.99619 0.93988 0.13141 0.0
C1827 C 0.99983 0.9476 0.11865 0.0
C1828 C 0.02219 0.95157 0.11412 0.0
C1829 C 0.04089 0.94539 0.12187 0.0
C1830 C 0.9812 0.94397 0.10937 0.0
C1831 C 0.96572 0.96182 0.10668 0.0
C1832 C 0.97646 0.92124 0.10529 0.0
C1833 C 0.9921 0.90183 0.10838 0.0
C1834 C 0.01397 0.90049 0.10263 0.0
C1835 C 0.02913 0.88284 0.10613 0.0
C1836 C 0.02249 0.86633 0.11529 0.0
C1837 C 1.00062 0.86738 0.12092 0.0
C1838 C 0.98543 0.88503 0.11747 0.0
C1839 C 0.89478 0.90936 0.07567 0.0
C1840 C 0.87951 0.89998 0.08487 0.0
C1841 C 0.91331 0.92266 0.07973 0.0
C1842 C 0.91672 0.92664 0.09301 0.0
C1843 C 0.90098 0.9182 0.10217 0.0
C1844 C 0.88227 0.90513 0.09811 0.0
C1845 C 0.93932 0.93394 0.09752 0.0
C1846 C 0.95551 0.91649 0.0994 0.0
C1847 C 0.94456 0.95696 0.10074 0.0
C1848 C 0.92823 0.97596 0.09823 0.0
C1849 C 0.90698 0.97694 0.10472 0.0
C1850 C 0.89164 0.99494 0.1022 0.0
C1851 C 0.89749 0.01218 0.09331 0.0
C1852 C 0.91874 0.01149 0.08695 0.0
C1853 C 0.9341 0.99347 0.08941 0.0
H1854 H 0.88561 0.02613 0.09138 0.0
H1855 H 0.03427 0.85272 0.11802 0.0
H1856 H 0.63398 0.78078 0.8863 0.0
H1857 H 0.6424 0.74438 0.87557 0.0
H1858 H 0.70785 0.7712 0.86267 0.0
H1859 H 0.69845 0.80841 0.87213 0.0
H1860 H 0.68846 0.75216 0.84395 0.0
H1861 H 0.70292 0.72717 0.8877 0.0
H1862 H 0.69543 0.72183 0.91116 0.0
H1863 H 0.63416 0.68365 0.90234 0.0
H1864 H 0.64115 0.68886 0.87885 0.0
H1865 H 0.68151 0.61792 0.83476 0.0
H1866 H 0.69909 0.65241 0.84423 0.0
H1867 H 0.64267 0.69342 0.82974 0.0
H1868 H 0.62546 0.65929 0.81995 0.0
H1869 H 0.67241 0.67551 0.86318 0.0
H1870 H 0.65493 0.73187 0.82193 0.0
H1871 H 0.66279 0.73852 0.7986 0.0
H1872 H 0.73255 0.71596 0.80393 0.0
H1873 H 0.72479 0.70855 0.82723 0.0
C1874 C 0.64987 0.77913 0.88087 0.0
C1875 C 0.66548 0.79748 0.87997 0.0
C1876 C 0.65501 0.75809 0.87512 0.0
C1877 C 0.6761 0.75492 0.86873 0.0
C1878 C 0.69163 0.77325 0.86774 0.0
C1879 C 0.68619 0.79447 0.87312 0.0
C1880 C 0.68058 0.73347 0.86162 0.0
C1881 C 0.68556 0.73537 0.8483 0.0
C1882 C 0.67692 0.71156 0.86728 0.0
C1883 C 0.67261 0.70843 0.88147 0.0
C1884 C 0.6878 0.71772 0.89075 0.0
C1885 C 0.68364 0.71469 0.90407 0.0
C1886 C 0.66434 0.70241 0.90823 0.0
C1887 C 0.64914 0.69311 0.8991 0.0
C1888 C 0.65324 0.69604 0.88578 0.0
C1889 C 0.67328 0.63447 0.83331 0.0
C1890 C 0.65215 0.63616 0.82676 0.0
C1891 C 0.6834 0.65405 0.8386 0.0
C1892 C 0.67237 0.67535 0.8374 0.0
C1893 C 0.65185 0.67721 0.83029 0.0
C1894 C 0.6419 0.65772 0.82485 0.0
C1895 C 0.6794 0.69463 0.84563 0.0
C1896 C 0.67643 0.69229 0.85912 0.0
C1897 C 0.68493 0.71615 0.84024 0.0
C1898 C 0.68919 0.71928 0.82618 0.0
C1899 C 0.67182 0.72803 0.81805 0.0
C1900 C 0.67625 0.73192 0.80486 0.0
C1901 C 0.69813 0.72756 0.79977 0.0
C1902 C 0.71556 0.71913 0.80786 0.0
C1903 C 0.71111 0.71489 0.82103 0.0
H1904 H 0.7016 0.73082 0.78958 0.0
H1905 H 0.66115 0.70009 0.91854 0.0
H1906 H 0.62759 0.43335 0.08039 0.0
H1907 H 0.59185 0.45503 0.08355 0.0
H1908 H 0.553 0.39179 0.08052 0.0
H1909 H 0.58862 0.37049 0.07641 0.0
H1910 H 0.52791 0.42583 0.07179 0.0
H1911 H 0.5739 0.41083 0.11032 0.0
H1912 H 0.6091 0.41234 0.12374 0.0
H1913 H 0.60838 0.48625 0.12198 0.0
H1914 H 0.57324 0.48511 0.10844 0.0
H1915 H 0.45875 0.40361 0.12366 0.0
H1916 H 0.48199 0.411 0.10469 0.0
H1917 H 0.49273 0.48111 0.11743 0.0
H1918 H 0.47165 0.47297 0.13735 0.0
H1919 H 0.53044 0.46072 0.11584 0.0
H1920 H 0.4689 0.46584 0.08532 0.0
H1921 H 0.43162 0.45469 0.07574 0.0
H1922 H 0.4587 0.38797 0.06619 0.0
H1923 H 0.49599 0.39853 0.07585 0.0
C1924 C 0.61131 0.42427 0.08034 0.0
C1925 C 0.61052 0.40036 0.07865 0.0
C1926 C 0.591 0.43661 0.08196 0.0
C1927 C 0.5699 0.42494 0.0825 0.0
C1928 C 0.56911 0.40113 0.08009 0.0
C1929 C 0.58937 0.38893 0.07801 0.0
C1930 C 0.54938 0.43643 0.08779 0.0
C1931 C 0.52825 0.43372 0.08137 0.0
C1932 C 0.55011 0.44711 0.10015 0.0
C1933 C 0.57126 0.44789 0.10821 0.0
C1934 C 0.58138 0.42738 0.11272 0.0
C1935 C 0.60128 0.42817 0.12036 0.0
C1936 C 0.61104 0.44938 0.12365 0.0
C1937 C 0.60085 0.46984 0.11937 0.0
C1938 C 0.58096 0.46914 0.11172 0.0
C1939 C 0.46613 0.42061 0.12251 0.0
C1940 C 0.46416 0.43736 0.13232 0.0
C1941 C 0.47873 0.42512 0.11134 0.0
C1942 C 0.48891 0.44677 0.10949 0.0
C1943 C 0.48489 0.46432 0.11862 0.0
C1944 C 0.47291 0.45957 0.13006 0.0
C1945 C 0.50837 0.44865 0.10035 0.0
C1946 C 0.52968 0.45408 0.10597 0.0
C1947 C 0.50753 0.43921 0.08763 0.0
C1948 C 0.48536 0.4331 0.08127 0.0
C1949 C 0.46693 0.4488 0.08116 0.0
C1950 C 0.44577 0.44256 0.07573 0.0
C1951 C 0.44281 0.42065 0.07034 0.0
C1952 C 0.46104 0.40497 0.07032 0.0
C1953 C 0.48223 0.41112 0.07572 0.0
H1954 H 0.42638 0.41582 0.0662 0.0
H1955 H 0.62646 0.44997 0.12956 0.0
H1956 H 0.83913 0.21026 0.36893 0.0
H1957 H 0.82783 0.24288 0.35534 0.0
H1958 H 0.81032 0.28215 0.38962 0.0
H1959 H 0.82188 0.24953 0.40337 0.0
H1960 H 0.77985 0.27987 0.3594 0.0
H1961 H 0.84668 0.30731 0.38466 0.0
H1962 H 0.88276 0.29917 0.3965 0.0
H1963 H 0.91144 0.26834 0.36212 0.0
H1964 H 0.87542 0.27601 0.35015 0.0
H1965 H 0.82956 0.37046 0.31429 0.0
H1966 H 0.80387 0.35024 0.32919 0.0
H1967 H 0.83942 0.28671 0.32099 0.0
H1968 H 0.86692 0.30729 0.30753 0.0
H1969 H 0.85265 0.31568 0.3445 0.0
H1970 H 0.78527 0.28536 0.32007 0.0
H1971 H 0.74915 0.29193 0.30799 0.0
H1972 H 0.72156 0.32936 0.34053 0.0
H1973 H 0.75762 0.3232 0.35273 0.0
C1974 C 0.83291 0.22584 0.37355 0.0
C1975 C 0.83168 0.22766 0.38712 0.0
C1976 C 0.826 0.24418 0.36583 0.0
C1977 C 0.81793 0.26454 0.37158 0.0
C1978 C 0.81608 0.26629 0.38511 0.0
C1979 C 0.82296 0.24786 0.39288 0.0
C1980 C 0.81598 0.28482 0.36328 0.0
C1981 C 0.79552 0.28842 0.35632 0.0
C1982 C 0.83638 0.29603 0.35951 0.0
C1983 C 0.85839 0.29224 0.36653 0.0
C1984 C 0.86069 0.29877 0.37964 0.0
C1985 C 0.88111 0.29422 0.38638 0.0
C1986 C 0.89938 0.28325 0.38006 0.0
C1987 C 0.89729 0.27687 0.36699 0.0
C1988 C 0.8769 0.28136 0.36022 0.0
C1989 C 0.83168 0.35211 0.31553 0.0
C1990 C 0.85155 0.34075 0.31102 0.0
C1991 C 0.81652 0.34049 0.32373 0.0
C1992 C 0.82062 0.31732 0.3266 0.0
C1993 C 0.8365 0.30485 0.31908 0.0
C1994 C 0.85239 0.31666 0.3115 0.0
C1995 C 0.81695 0.30921 0.33995 0.0
C1996 C 0.83658 0.30825 0.34788 0.0
C1997 C 0.7958 0.30076 0.34457 0.0
C1998 C 0.77416 0.30401 0.33725 0.0
C1999 C 0.77156 0.29514 0.3246 0.0
C2000 C 0.75109 0.29875 0.31774 0.0
C2001 C 0.73309 0.31111 0.32348 0.0
C2002 C 0.7355 0.3198 0.3361 0.0
C2003 C 0.75593 0.31623 0.34299 0.0
H2004 H 0.71727 0.3139 0.31815 0.0
H2005 H 0.91515 0.2797 0.3853 0.0
H2006 H 0.89211 0.58671 0.56904 0.0
H2007 H 0.92132 0.55843 0.57557 0.0
H2008 H 0.9683 0.61377 0.5845 0.0
H2009 H 0.93897 0.64193 0.57845 0.0
H2010 H 0.9897 0.57195 0.57464 0.0
H2011 H 0.93469 0.60134 0.60723 0.0
H2012 H 0.89517 0.6076 0.61525 0.0
H2013 H 0.88227 0.53483 0.61338 0.0
H2014 H 0.92164 0.52826 0.60514 0.0
H2015 H 0.04727 0.58938 0.63076 0.0
H2016 H 0.02498 0.58449 0.61114 0.0
H2017 H 0.99906 0.51956 0.6255 0.0
H2018 H 0.02096 0.52516 0.64585 0.0
H2019 H 0.96547 0.54672 0.61872 0.0
H2020 H 0.03275 0.52316 0.59599 0.0
H2021 H 0.07382 0.52406 0.59001 0.0
H2022 H 0.06593 0.59262 0.57501 0.0
H2023 H 0.02497 0.59234 0.58106 0.0
C2024 C 0.909 0.5927 0.57193 0.0
C2025 C 0.91346 0.61632 0.57343 0.0
C2026 C 0.9256 0.57659 0.57561 0.0
C2027 C 0.9468 0.58412 0.58053 0.0
C2028 C 0.95204 0.6077 0.58064 0.0
C2029 C 0.93531 0.62375 0.57728 0.0
C2030 C 0.96162 0.56857 0.58807 0.0
C2031 C 0.98452 0.56588 0.58419 0.0
C2032 C 0.95447 0.56042 0.60039 0.0
C2033 C 0.93088 0.56434 0.60535 0.0
C2034 C 0.92332 0.58672 0.6084 0.0
C2035 C 0.90098 0.59032 0.61301 0.0
C2036 C 0.88616 0.57163 0.61477 0.0
C2037 C 0.89371 0.54931 0.61197 0.0
C2038 C 0.91602 0.54563 0.60731 0.0
C2039 C 0.03696 0.57393 0.62973 0.0
C2040 C 0.03525 0.55792 0.63992 0.0
C2041 C 0.02462 0.57086 0.61833 0.0
C2042 C 0.01073 0.55136 0.61665 0.0
C2043 C 0.00994 0.53459 0.62654 0.0
C2044 C 0.0223 0.53779 0.63813 0.0
C2045 C 0.99422 0.55124 0.60568 0.0
C2046 C 0.97077 0.55114 0.6089 0.0
C2047 C 1.0011 0.55755 0.59291 0.0
C2048 C 0.02567 0.55761 0.58892 0.0
C2049 C 0.03977 0.53843 0.59142 0.0
C2050 C 0.06305 0.53886 0.58803 0.0
C2051 C 0.07247 0.55836 0.58211 0.0
C2052 C 0.0586 0.57748 0.57954 0.0
C2053 C 0.03532 0.57716 0.58291 0.0
H2054 H 0.09051 0.55867 0.57953 0.0
H2055 H 0.86887 0.57444 0.61834 0.0
H2056 H 0.69904 0.19914 0.60791 0.0
H2057 H 0.7142 0.23542 0.61552 0.0
H2058 H 0.65596 0.27101 0.59889 0.0
H2059 H 0.64254 0.23513 0.58926 0.0
H2060 H 0.69064 0.29935 0.59991 0.0
H2061 H 0.65264 0.24838 0.62956 0.0
H2062 H 0.6456 0.21104 0.64028 0.0
H2063 H 0.71392 0.21205 0.65621 0.0
H2064 H 0.72142 0.24934 0.64542 0.0
H2065 H 0.62905 0.35466 0.64728 0.0
H2066 H 0.64819 0.33105 0.63106 0.0
H2067 H 0.71186 0.33581 0.6525 0.0
H2068 H 0.69286 0.35993 0.66886 0.0
H2069 H 0.69313 0.29137 0.64803 0.0
H2070 H 0.71333 0.35778 0.62359 0.0
H2071 H 0.70592 0.3961 0.61415 0.0
H2072 H 0.65329 0.36754 0.58966 0.0
H2073 H 0.65997 0.32916 0.59912 0.0
C2074 C 0.68979 0.21468 0.60538 0.0
C2075 C 0.66931 0.21404 0.59806 0.0
C2076 C 0.69854 0.23544 0.60978 0.0
C2077 C 0.68596 0.25571 0.60799 0.0
C2078 C 0.66592 0.25545 0.60038 0.0
C2079 C 0.65782 0.23478 0.59528 0.0
C2080 C 0.69096 0.27584 0.61614 0.0
C2081 C 0.69144 0.29776 0.61043 0.0
C2082 C 0.69216 0.27353 0.62984 0.0
C2083 C 0.6877 0.2514 0.63656 0.0
C2084 C 0.66618 0.24056 0.63531 0.0
C2085 C 0.66211 0.21943 0.64138 0.0
C2086 C 0.67934 0.20913 0.64888 0.0
C2087 C 0.70063 0.22002 0.65036 0.0
C2088 C 0.70481 0.24115 0.64427 0.0
C2089 C 0.64713 0.35081 0.64856 0.0
C2090 C 0.65946 0.35897 0.65936 0.0
C2091 C 0.65814 0.33777 0.63914 0.0
C2092 C 0.68155 0.33253 0.64044 0.0
C2093 C 0.69393 0.3404 0.65124 0.0
C2094 C 0.68297 0.35376 0.66062 0.0
C2095 C 0.6912 0.31494 0.63189 0.0
C2096 C 0.6937 0.29317 0.6375 0.0
C2097 C 0.69077 0.31755 0.61821 0.0
C2098 C 0.68728 0.34049 0.61206 0.0
C2099 C 0.70016 0.35965 0.6162 0.0
C2100 C 0.69605 0.38141 0.61085 0.0
C2101 C 0.67918 0.38425 0.6013 0.0
C2102 C 0.66641 0.36531 0.59704 0.0
C2103 C 0.6704 0.34352 0.60237 0.0
H2104 H 0.67598 0.40112 0.5972 0.0
H2105 H 0.67618 0.19275 0.65357 0.0
H2106 H 0.02285 0.44726 0.83094 0.0
H2107 H 0.98858 0.45308 0.84433 0.0
H2108 H 0.02361 0.42277 0.87716 0.0
H2109 H 0.05825 0.41737 0.86395 0.0
H2110 H 0.97833 0.40246 0.86673 0.0
H2111 H 0.01747 0.47743 0.87765 0.0
H2112 H 0.03064 0.51535 0.86977 0.0
H2113 H 0.96253 0.53054 0.85599 0.0
H2114 H 0.94906 0.49261 0.86369 0.0
H2115 H 0.94522 0.38969 0.92324 0.0
H2116 H 0.96749 0.41637 0.91011 0.0
H2117 H 0.90497 0.44601 0.89497 0.0
H2118 H 0.88259 0.42122 0.90935 0.0
H2119 H 0.9524 0.4724 0.89052 0.0
H2120 H 0.91031 0.40357 0.87906 0.0
H2121 H 0.89344 0.36521 0.88291 0.0
H2122 H 0.96019 0.33835 0.8925 0.0
H2123 H 0.97742 0.37661 0.88872 0.0
C2124 C 0.02345 0.44236 0.84111 0.0
C2125 C 0.04323 0.43197 0.84649 0.0
C2126 C 0.00388 0.44569 0.84867 0.0
C2127 C 0.0039 0.43855 0.86164 0.0
C2128 C 0.02362 0.42851 0.86711 0.0
C2129 C 0.04322 0.42526 0.85958 0.0
C2130 C 0.98277 0.43895 0.86931 0.0
C2131 C 0.97243 0.41776 0.87181 0.0
C2132 C 0.97427 0.45919 0.87522 0.0
C2133 C 0.98231 0.48223 0.87119 0.0
C2134 C 0.00535 0.48886 0.87292 0.0
C2135 C 0.01286 0.51034 0.86849 0.0
C2136 C 0.99744 0.52534 0.86237 0.0
C2137 C 0.97445 0.51893 0.86074 0.0
C2138 C 0.96687 0.49748 0.86516 0.0
C2139 C 0.93622 0.40283 0.91774 0.0
C2140 C 0.91226 0.40221 0.91638 0.0
C2141 C 0.94895 0.41827 0.91035 0.0
C2142 C 0.93771 0.43215 0.90114 0.0
C2143 C 0.91385 0.43494 0.90182 0.0
C2144 C 0.90109 0.42025 0.90977 0.0
C2145 C 0.94946 0.43552 0.88867 0.0
C2146 C 0.95775 0.45726 0.88512 0.0
C2147 C 0.95539 0.41589 0.88122 0.0
C2148 C 0.9451 0.39293 0.88366 0.0
C2149 C 0.92135 0.3895 0.88206 0.0
C2150 C 0.91174 0.36776 0.88419 0.0
C2151 C 0.92575 0.34933 0.88792 0.0
C2152 C 0.94938 0.35262 0.88957 0.0
C2153 C 0.95908 0.3743 0.8874 0.0
H2154 H 0.91835 0.33248 0.88952 0.0
H2155 H 0.0033 0.54193 0.85891 0.0
H2156 H 0.8358 0.74902 0.07805 0.0
H2157 H 0.82382 0.71823 0.09265 0.0
H2158 H 0.77968 0.7658 0.1133 0.0
H2159 H 0.7926 0.79691 0.09889 0.0
H2160 H 0.81044 0.74934 0.12864 0.0
H2161 H 0.75669 0.71342 0.10139 0.0
H2162 H 0.73953 0.69957 0.08088 0.0
H2163 H 0.7955 0.65215 0.0758 0.0
H2164 H 0.81322 0.66588 0.09615 0.0
H2165 H 0.84619 0.64902 0.16692 0.0
H2166 H 0.8164 0.67268 0.15651 0.0
H2167 H 0.85865 0.67843 0.12213 0.0
H2168 H 0.8887 0.65538 0.13254 0.0
H2169 H 0.80633 0.66558 0.11951 0.0
H2170 H 0.86477 0.72224 0.13649 0.0
H2171 H 0.88747 0.73754 0.1549 0.0
H2172 H 0.8257 0.74556 0.17739 0.0
H2173 H 0.8027 0.73008 0.15911 0.0
C2174 C 0.82304 0.7526 0.08548 0.0
C2175 C 0.81532 0.77505 0.08765 0.0
C2176 C 0.81585 0.735 0.09369 0.0
C2177 C 0.80058 0.73967 0.10399 0.0
C2178 C 0.79131 0.76185 0.10536 0.0
C2179 C 0.79882 0.77954 0.09727 0.0
C2180 C 0.79951 0.72327 0.11491 0.0
C2181 C 0.80834 0.73103 0.12688 0.0
C2182 C 0.79692 0.69939 0.11262 0.0
C2183 C 0.7862 0.6906 0.10042 0.0
C2184 C 0.76537 0.70004 0.09591 0.0
C2185 C 0.75555 0.69222 0.08429 0.0
C2186 C 0.76638 0.67495 0.07707 0.0
C2187 C 0.78706 0.66545 0.08145 0.0
C2188 C 0.79696 0.67319 0.09306 0.0
C2189 C 0.84906 0.65541 0.15714 0.0
C2190 C 0.86966 0.65062 0.15049 0.0
C2191 C 0.83203 0.66865 0.15123 0.0
C2192 C 0.83535 0.6767 0.13855 0.0
C2193 C 0.85584 0.67187 0.13188 0.0
C2194 C 0.87304 0.65907 0.13787 0.0
C2195 C 0.81865 0.69201 0.13241 0.0
C2196 C 0.80657 0.68391 0.12154 0.0
C2197 C 0.81848 0.7156 0.13554 0.0
C2198 C 0.83211 0.72488 0.14653 0.0
C2199 C 0.85609 0.72717 0.1454 0.0
C2200 C 0.86899 0.73587 0.15579 0.0
C2201 C 0.85803 0.74247 0.16732 0.0
C2202 C 0.83415 0.7404 0.16846 0.0
C2203 C 0.82118 0.73165 0.1581 0.0
H2204 H 0.86804 0.74923 0.17535 0.0
H2205 H 0.75876 0.66895 0.06806 0.0
H2206 H 0.60371 0.60686 0.4217 0.0
H2207 H 0.56654 0.59031 0.41559 0.0
H2208 H 0.59118 0.57981 0.37642 0.0
H2209 H 0.62839 0.59608 0.38235 0.0
H2210 H 0.55001 0.61275 0.38299 0.0
H2211 H 0.58434 0.53592 0.38873 0.0
H2212 H 0.60278 0.50628 0.4024 0.0
H2213 H 0.54476 0.50701 0.42829 0.0
H2214 H 0.52616 0.53698 0.41486 0.0
H2215 H 0.48745 0.56671 0.33689 0.0
H2216 H 0.51748 0.56142 0.35326 0.0
H2217 H 0.46636 0.56342 0.38372 0.0
H2218 H 0.43605 0.56822 0.36721 0.0
H2219 H 0.51465 0.53522 0.38731 0.0
H2220 H 0.47843 0.61005 0.38022 0.0
H2221 H 0.46036 0.63911 0.36599 0.0
H2222 H 0.52221 0.64333 0.34327 0.0
H2223 H 0.54045 0.61387 0.35719 0.0
C2224 C 0.60137 0.60056 0.41185 0.0
C2225 C 0.61876 0.60302 0.40242 0.0
C2226 C 0.58025 0.59101 0.40846 0.0
C2227 C 0.57648 0.5839 0.39564 0.0
C2228 C 0.59415 0.58513 0.3864 0.0
C2229 C 0.61528 0.59448 0.38979 0.0
C2230 C 0.55328 0.57875 0.39117 0.0
C2231 C 0.54209 0.59593 0.38406 0.0
C2232 C 0.54296 0.55703 0.39299 0.0
C2233 C 0.55402 0.53887 0.40091 0.0
C2234 C 0.57564 0.52994 0.39742 0.0
C2235 C 0.58609 0.51304 0.4051 0.0
C2236 C 0.57498 0.50482 0.41624 0.0
C2237 C 0.55337 0.51343 0.41968 0.0
C2238 C 0.54286 0.53036 0.41204 0.0
C2239 C 0.48265 0.5651 0.34705 0.0
C2240 C 0.45989 0.56838 0.35102 0.0
C2241 C 0.49964 0.56177 0.35633 0.0
C2242 C 0.49392 0.5623 0.36959 0.0
C2243 C 0.47085 0.56286 0.37348 0.0
C2244 C 0.45373 0.5659 0.36414 0.0
C2245 C 0.51193 0.56898 0.37872 0.0
C2246 C 0.52212 0.5523 0.38669 0.0
C2247 C 0.52136 0.59136 0.37784 0.0
C2248 C 0.51072 0.60963 0.3697 0.0
C2249 C 0.48811 0.61706 0.37214 0.0
C2250 C 0.47785 0.63362 0.36414 0.0
C2251 C 0.49013 0.64307 0.35374 0.0
C2252 C 0.51272 0.636 0.35133 0.0
C2253 C 0.52303 0.61938 0.35928 0.0
H2254 H 0.48213 0.65584 0.34753 0.0
H2255 H 0.5831 0.49174 0.42218 0.0
H2256 H 0.35617 0.35485 0.16959 0.0
H2257 H 0.32471 0.33 0.16221 0.0
H2258 H 0.35292 0.33041 0.12332 0.0
H2259 H 0.38422 0.35506 0.13052 0.0
H2260 H 0.30463 0.33526 0.12396 0.0
H2261 H 0.36782 0.28799 0.14138 0.0
H2262 H 0.3944 0.27685 0.15904 0.0
H2263 H 0.33699 0.26226 0.18401 0.0
H2264 H 0.31007 0.27364 0.16651 0.0
H2265 H 0.33738 0.24609 0.08771 0.0
H2266 H 0.32623 0.27838 0.10138 0.0
H2267 H 0.27988 0.23442 0.12287 0.0
H2268 H 0.2914 0.20168 0.10917 0.0
H2269 H 0.31333 0.25383 0.13764 0.0
H2270 H 0.25675 0.28303 0.10886 0.0
H2271 H 0.2398 0.29207 0.08744 0.0
H2272 H 0.29499 0.3391 0.07952 0.0
H2273 H 0.31247 0.33017 0.10076 0.0
C2274 C 0.35558 0.34965 0.15946 0.0
C2275 C 0.37266 0.35668 0.15062 0.0
C2276 C 0.33752 0.33574 0.15528 0.0
C2277 C 0.3364 0.3289 0.14223 0.0
C2278 C 0.35334 0.33603 0.13339 0.0
C2279 C 0.37142 0.34973 0.13757 0.0
C2280 C 0.31957 0.31188 0.13783 0.0
C2281 C 0.30588 0.31744 0.12705 0.0
C2282 C 0.32098 0.28891 0.14222 0.0
C2283 C 0.33698 0.28193 0.15274 0.0
C2284 C 0.3609 0.28255 0.15068 0.0
C2285 C 0.37601 0.27618 0.16064 0.0
C2286 C 0.36739 0.26892 0.17266 0.0
C2287 C 0.34363 0.26796 0.17471 0.0
C2288 C 0.32843 0.27438 0.16478 0.0
C2289 C 0.32461 0.24342 0.09525 0.0
C2290 C 0.31558 0.2215 0.09767 0.0
C2291 C 0.31782 0.26194 0.10285 0.0
C2292 C 0.30184 0.25882 0.11295 0.0
C2293 C 0.29189 0.23714 0.11495 0.0
C2294 C 0.29862 0.21853 0.10726 0.0
C2295 C 0.30017 0.27686 0.12292 0.0
C2296 C 0.31028 0.27167 0.13498 0.0
C2297 C 0.29653 0.30004 0.11925 0.0
C2298 C 0.28577 0.30609 0.10654 0.0
C2299 C 0.26526 0.29534 0.10257 0.0
C2300 C 0.25558 0.30042 0.09043 0.0
C2301 C 0.26626 0.31622 0.08215 0.0
C2302 C 0.28665 0.32698 0.08598 0.0
C2303 C 0.2964 0.32198 0.0981 0.0
H2304 H 0.25876 0.32008 0.07275 0.0
H2305 H 0.37912 0.26399 0.18036 0.0
H2306 H 0.52825 0.54286 0.83837 0.0
H2307 H 0.49747 0.5385 0.85417 0.0
H2308 H 0.5401 0.56969 0.88373 0.0
H2309 H 0.57163 0.57285 0.86814 0.0
H2310 H 0.5095 0.54139 0.89466 0.0
H2311 H 0.51008 0.60282 0.86349 0.0
H2312 H 0.51081 0.62142 0.84191 0.0
H2313 H 0.44765 0.58768 0.83165 0.0
H2314 H 0.44678 0.56849 0.8531 0.0
H2315 H 0.42041 0.62833 0.91431 0.0
H2316 H 0.45608 0.60779 0.90898 0.0
H2317 H 0.41647 0.55054 0.89438 0.0
H2318 H 0.38085 0.57112 0.89947 0.0
H2319 H 0.44506 0.58811 0.87712 0.0
H2320 H 0.44586 0.52912 0.91139 0.0
H2321 H 0.44771 0.5155 0.93413 0.0
H2322 H 0.51043 0.55315 0.93997 0.0
H2323 H 0.50888 0.56705 0.91727 0.0
C2324 C 0.53154 0.5478 0.84837 0.0
C2325 C 0.55215 0.55874 0.85198 0.0
C2326 C 0.51386 0.54538 0.85737 0.0
C2327 C 0.51641 0.55442 0.86994 0.0
C2328 C 0.53782 0.56285 0.874 0.0
C2329 C 0.55566 0.56494 0.86505 0.0
C2330 C 0.49598 0.55921 0.87789 0.0
C2331 C 0.49533 0.55152 0.89085 0.0
C2332 C 0.47779 0.57283 0.8729 0.0
C2333 C 0.47857 0.5839 0.85984 0.0
C2334 C 0.4965 0.59912 0.85658 0.0
C2335 C 0.49691 0.60982 0.84438 0.0
C2336 C 0.47933 0.60567 0.8354 0.0
C2337 C 0.4613 0.5908 0.8386 0.0
C2338 C 0.46086 0.57998 0.85077 0.0
C2339 C 0.41941 0.61104 0.9104 0.0
C2340 C 0.39816 0.60136 0.90697 0.0
C2341 C 0.4397 0.59923 0.90755 0.0
C2342 C 0.4387 0.5776 0.90149 0.0
C2343 C 0.41741 0.56707 0.89926 0.0
C2344 C 0.3972 0.57897 0.90192 0.0
C2345 C 0.45836 0.5699 0.89377 0.0
C2346 C 0.45897 0.57748 0.88084 0.0
C2347 C 0.4767 0.55695 0.89894 0.0
C2348 C 0.4771 0.54931 0.9127 0.0
C2349 C 0.45987 0.53473 0.91758 0.0
C2350 C 0.46093 0.52686 0.93044 0.0
C2351 C 0.47914 0.5335 0.9385 0.0
C2352 C 0.49633 0.54803 0.93372 0.0
C2353 C 0.49538 0.55587 0.92086 0.0
H2354 H 0.47996 0.52735 0.94844 0.0
H2355 H 0.47963 0.61405 0.82598 0.0
H2356 H 0.21656 0.77239 0.59404 0.0
H2357 H 0.22447 0.75031 0.61364 0.0
H2358 H 0.16 0.77329 0.63008 0.0
H2359 H 0.15405 0.7982 0.6118 0.0
H2360 H 0.18087 0.75791 0.64831 0.0
H2361 H 0.16604 0.72586 0.60426 0.0
H2362 H 0.17676 0.71951 0.58126 0.0
H2363 H 0.24085 0.68945 0.59332 0.0
H2364 H 0.23053 0.69586 0.61641 0.0
H2365 H 0.09416 0.67643 0.64326 0.0
H2366 H 0.12383 0.70586 0.6404 0.0
H2367 H 0.17577 0.65782 0.65323 0.0
H2368 H 0.14622 0.62823 0.65602 0.0
H2369 H 0.18139 0.6805 0.62788 0.0
H2370 H 0.16682 0.6993 0.67306 0.0
H2371 H 0.13938 0.70585 0.69101 0.0
H2372 H 0.11047 0.76341 0.67049 0.0
H2373 H 0.13745 0.75704 0.65234 0.0
C2374 C 0.20449 0.77353 0.60202 0.0
C2375 C 0.18368 0.7858 0.60086 0.0
C2376 C 0.20906 0.76077 0.61326 0.0
C2377 C 0.19215 0.75884 0.62296 0.0
C2378 C 0.17315 0.77374 0.62261 0.0
C2379 C 0.16925 0.78743 0.61181 0.0
C2380 C 0.19053 0.73816 0.63134 0.0
C2381 C 0.18142 0.74089 0.64396 0.0
C2382 C 0.1915 0.71577 0.62578 0.0
C2383 C 0.19769 0.71158 0.61198 0.0
C2384 C 0.18241 0.71789 0.60197 0.0
C2385 C 0.18843 0.71434 0.58895 0.0
C2386 C 0.20951 0.70415 0.58584 0.0
C2387 C 0.22457 0.69742 0.59575 0.0
C2388 C 0.21867 0.70103 0.60881 0.0
C2389 C 0.11188 0.67221 0.64548 0.0
C2390 C 0.118 0.65025 0.64991 0.0
C2391 C 0.1287 0.68903 0.64404 0.0
C2392 C 0.15174 0.68398 0.64697 0.0
C2393 C 0.15795 0.662 0.65125 0.0
C2394 C 0.14111 0.64522 0.65279 0.0
C2395 C 0.16941 0.70105 0.64392 0.0
C2396 C 0.18207 0.69727 0.63256 0.0
C2397 C 0.16948 0.72286 0.64998 0.0
C2398 C 0.15442 0.72781 0.66137 0.0
C2399 C 0.15473 0.71345 0.6724 0.0
C2400 C 0.13918 0.71708 0.6826 0.0
C2401 C 0.12325 0.73508 0.68191 0.0
C2402 C 0.12291 0.74956 0.67105 0.0
C2403 C 0.1384 0.74599 0.66083 0.0
H2404 H 0.11115 0.73777 0.68978 0.0
H2405 H 0.21416 0.70142 0.57574 0.0
H2406 H 0.08717 0.39709 0.42182 0.0
H2407 H 0.06357 0.428 0.4125 0.0
H2408 H 0.08658 0.40911 0.37396 0.0
H2409 H 0.1096 0.37789 0.38327 0.0
H2410 H 0.06697 0.45623 0.37633 0.0
H2411 H 0.05047 0.37487 0.38045 0.0
H2412 H 0.05267 0.33781 0.39213 0.0
H2413 H 0.01546 0.36705 0.42427 0.0
H2414 H 0.01359 0.40452 0.41284 0.0
H2415 H 0.9778 0.40361 0.33776 0.0
H2416 H 0.01186 0.41834 0.34912 0.0
H2417 H 0.96824 0.45158 0.37745 0.0
H2418 H 0.93414 0.43696 0.36612 0.0
H2419 H 0.99663 0.40957 0.38367 0.0
H2420 H 1.00056 0.4853 0.36549 0.0
H2421 H 0.0026 0.51463 0.34819 0.0
H2422 H 0.0668 0.48646 0.33501 0.0
H2423 H 0.06495 0.45662 0.35202 0.0
C2424 C 0.08739 0.39999 0.4114 0.0
C2425 C 0.09867 0.38467 0.40305 0.0
C2426 C 0.07463 0.418 0.40615 0.0
C2427 C 0.07321 0.42044 0.39258 0.0
C2428 C 0.08752 0.40735 0.38446 0.0
C2429 C 0.09996 0.38914 0.38969 0.0
C2430 C 0.05154 0.42837 0.387 0.0
C2431 C 0.05134 0.44648 0.37799 0.0
C2432 C 0.03162 0.41492 0.38901 0.0
C2433 C 0.0323 0.39253 0.39595 0.0
C2434 C 0.04296 0.37342 0.39007 0.0
C2435 C 0.04415 0.35237 0.39663 0.0
C2436 C 0.03433 0.35011 0.40897 0.0
C2437 C 0.0232 0.36889 0.41474 0.0
C2438 C 0.02213 0.39006 0.40825 0.0
C2439 C 0.9756 0.41402 0.34644 0.0
C2440 C 0.95363 0.41845 0.35148 0.0
C2441 C 0.9949 0.42308 0.3526 0.0
C2442 C 0.99233 0.43648 0.36387 0.0
C2443 C 0.97035 0.44179 0.36854 0.0
C2444 C 0.95106 0.43289 0.36234 0.0
C2445 C 0.01167 0.43762 0.37288 0.0
C2446 C 0.01163 0.42053 0.38246 0.0
C2447 C 0.03159 0.45093 0.37052 0.0
C2448 C 0.03251 0.46857 0.36004 0.0
C2449 C 0.01497 0.48513 0.35881 0.0
C2450 C 0.01613 0.50191 0.34906 0.0
C2451 C 0.0348 0.5024 0.3405 0.0
C2452 C 0.05234 0.48607 0.34165 0.0
C2453 C 0.05124 0.46922 0.35136 0.0
H2454 H 0.0357 0.51544 0.33299 0.0
H2455 H 0.03523 0.33378 0.41404 0.0
H2456 H 0.34643 0.65552 0.30681 0.0
H2457 H 0.31505 0.67786 0.31685 0.0
H2458 H 0.35305 0.68007 0.35297 0.0
H2459 H 0.38442 0.65873 0.34292 0.0
H2460 H 0.3033 0.67894 0.35607 0.0
H2461 H 0.36817 0.72096 0.33578 0.0
H2462 H 0.39429 0.72691 0.31714 0.0
H2463 H 0.33624 0.73809 0.29203 0.0
H2464 H 0.30977 0.7318 0.31055 0.0
H2465 H 0.34973 0.76928 0.38883 0.0
H2466 H 0.33573 0.73644 0.37629 0.0
H2467 H 0.29052 0.7813 0.35459 0.0
H2468 H 0.30502 0.81438 0.36689 0.0
H2469 H 0.31984 0.75758 0.33972 0.0
H2470 H 0.26594 0.73814 0.37246 0.0
H2471 H 0.25178 0.73252 0.39486 0.0
H2472 H 0.30145 0.67884 0.40089 0.0
H2473 H 0.31619 0.68431 0.37863 0.0
C2474 C 0.3478 0.66074 0.31691 0.0
C2475 C 0.36797 0.65652 0.32401 0.0
C2476 C 0.32979 0.67292 0.32267 0.0
C2477 C 0.33178 0.68029 0.33563 0.0
C2478 C 0.35114 0.6742 0.34301 0.0
C2479 C 0.36927 0.66265 0.33717 0.0
C2480 C 0.31768 0.69924 0.34056 0.0
C2481 C 0.3061 0.69624 0.35242 0.0
C2482 C 0.32148 0.7216 0.33562 0.0
C2483 C 0.33706 0.72574 0.32445 0.0
C2484 C 0.36102 0.72461 0.32625 0.0
C2485 C 0.37587 0.72801 0.31573 0.0
C2486 C 0.36692 0.73284 0.3034 0.0
C2487 C 0.34312 0.73429 0.30158 0.0
C2488 C 0.32818 0.73077 0.31208 0.0
C2489 C 0.33697 0.7721 0.38131 0.0
C2490 C 0.32877 0.79427 0.37858 0.0
C2491 C 0.32846 0.75332 0.37444 0.0
C2492 C 0.31157 0.75646 0.36481 0.0
C2493 C 0.30314 0.77857 0.3622 0.0
C2494 C 0.31168 0.79738 0.36905 0.0
C2495 C 0.3068 0.7375 0.35577 0.0
C2496 C 0.31494 0.74052 0.34304 0.0
C2497 C 0.30105 0.71526 0.36034 0.0
C2498 C 0.29206 0.71156 0.37376 0.0
C2499 C 0.27389 0.72515 0.37855 0.0
C2500 C 0.26576 0.722 0.39125 0.0
C2501 C 0.27566 0.70529 0.39928 0.0
C2502 C 0.29372 0.6917 0.39464 0.0
C2503 C 0.30191 0.69477 0.38195 0.0
H2504 H 0.26936 0.7029 0.40911 0.0
H2505 H 0.37844 0.73549 0.29526 0.0
H2506 H 0.09894 0.61191 0.06599 0.0
H2507 H 0.06398 0.59102 0.07162 0.0
H2508 H 0.08724 0.58546 0.11143 0.0
H2509 H 0.1226 0.60585 0.10583 0.0
H2510 H 0.0698 0.54553 0.10289 0.0
H2511 H 0.04828 0.62611 0.10244 0.0
H2512 H 0.04381 0.66467 0.09267 0.0
H2513 H 1.0009 0.63631 0.06264 0.0
H2514 H 0.00536 0.5975 0.07216 0.0
H2515 H 0.983 0.55688 0.14725 0.0
H2516 H 0.01455 0.55315 0.13222 0.0
H2517 H 0.96689 0.547 0.10016 0.0
H2518 H 0.93463 0.55039 0.1154 0.0
H2519 H 0.99398 0.58376 0.09803 0.0
H2520 H 0.00796 0.50418 0.10558 0.0
H2521 H 0.01229 0.46868 0.11853 0.0
H2522 H 0.0696 0.49834 0.13889 0.0
H2523 H 0.06543 0.53412 0.12624 0.0
C2524 C 0.09664 0.60621 0.07595 0.0
C2525 C 0.11348 0.61047 0.0855 0.0
C2526 C 0.07668 0.59429 0.07912 0.0
C2527 C 0.07313 0.58677 0.09191 0.0
C2528 C 0.08987 0.59099 0.10146 0.0
C2529 C 0.10995 0.60274 0.09828 0.0
C2530 C 0.05164 0.57512 0.09556 0.0
C2531 C 0.05314 0.55375 0.10183 0.0
C2532 C 0.02997 0.58562 0.09368 0.0
C2533 C 0.02744 0.60888 0.08788 0.0
C2534 C 0.03809 0.62807 0.09368 0.0
C2535 C 0.03552 0.64997 0.08821 0.0
C2536 C 0.02215 0.65292 0.07701 0.0
C2537 C 0.0113 0.63398 0.07129 0.0
C2538 C 0.01385 0.61203 0.07671 0.0
C2539 C 0.979 0.55363 0.13711 0.0
C2540 C 0.95624 0.55423 0.13251 0.0
C2541 C 0.99721 0.55138 0.12848 0.0
C2542 C 0.99307 0.54963 0.11508 0.0
C2543 C 0.97036 0.54824 0.11051 0.0
C2544 C 0.95201 0.55043 0.11919 0.0
C2545 C 0.01216 0.55465 0.10609 0.0
C2546 C 0.01037 0.57487 0.09867 0.0
C2547 C 0.03367 0.54346 0.10731 0.0
C2548 C 0.03639 0.52184 0.1149 0.0
C2549 C 0.02143 0.50317 0.11285 0.0
C2550 C 0.02386 0.48299 0.12015 0.0
C2551 C 0.04122 0.48124 0.12951 0.0
C2552 C 0.0562 0.49968 0.13161 0.0
C2553 C 0.05384 0.5199 0.12435 0.0
H2554 H 0.04306 0.4656 0.13515 0.0
H2555 H 0.02012 0.66988 0.07281 0.0
H2556 H 0.15258 0.20094 0.86758 0.0
H2557 H 0.1611 0.22778 0.84984 0.0
H2558 H 0.20979 0.26321 0.87445 0.0
H2559 H 0.20132 0.23648 0.89222 0.0
H2560 H 0.16881 0.28735 0.86642 0.0
H2561 H 0.23091 0.24273 0.84835 0.0
H2562 H 0.2484 0.20693 0.84004 0.0
H2563 H 0.19802 0.20399 0.80949 0.0
H2564 H 0.18006 0.23966 0.81771 0.0
H2565 H 0.1826 0.38094 0.83026 0.0
H2566 H 0.19959 0.34453 0.83706 0.0
H2567 H 0.1486 0.30739 0.81494 0.0
H2568 H 0.13175 0.34385 0.80779 0.0
H2569 H 0.19502 0.28295 0.82043 0.0
H2570 H 0.12762 0.31721 0.84028 0.0
H2571 H 0.10439 0.34987 0.84825 0.0
H2572 H 0.15792 0.36777 0.87526 0.0
H2573 H 0.18163 0.33541 0.86723 0.0
C2574 C 0.16534 0.21428 0.86908 0.0
C2575 C 0.17598 0.21712 0.88123 0.0
C2576 C 0.17051 0.22921 0.85892 0.0
C2577 C 0.18624 0.24713 0.86089 0.0
C2578 C 0.1979 0.24914 0.87277 0.0
C2579 C 0.19288 0.23411 0.8829 0.0
C2580 C 0.18602 0.26668 0.85195 0.0
C2581 C 0.17513 0.28659 0.85647 0.0
C2582 C 0.19306 0.26495 0.83882 0.0
C2583 C 0.20408 0.24378 0.8337 0.0
C2584 C 0.22348 0.23437 0.83991 0.0
C2585 C 0.2335 0.21412 0.8352 0.0
C2586 C 0.2243 0.20317 0.82425 0.0
C2587 C 0.20513 0.2125 0.81796 0.0
C2588 C 0.19506 0.23276 0.82262 0.0
C2589 C 0.17548 0.36504 0.82648 0.0
C2590 C 0.1554 0.36504 0.81893 0.0
C2591 C 0.18545 0.34432 0.83018 0.0
C2592 C 0.17508 0.3235 0.82659 0.0
C2593 C 0.15683 0.32341 0.81769 0.0
C2594 C 0.14701 0.34422 0.81382 0.0
C2595 C 0.17841 0.30361 0.8351 0.0
C2596 C 0.18934 0.28373 0.83048 0.0
C2597 C 0.17065 0.30479 0.84812 0.0
C2598 C 0.15651 0.32421 0.85301 0.0
C2599 C 0.13452 0.3283 0.84781 0.0
C2600 C 0.12125 0.3467 0.85235 0.0
C2601 C 0.12972 0.36096 0.86222 0.0
C2602 C 0.15143 0.35677 0.86759 0.0
C2603 C 0.16479 0.33842 0.86304 0.0
H2604 H 0.11941 0.37519 0.86574 0.0
H2605 H 0.23205 0.18746 0.82064 0.0
H2606 H 0.41779 0.37487 0.57294 0.0
H2607 H 0.43122 0.39266 0.59301 0.0
H2608 H 0.41305 0.45962 0.57793 0.0
H2609 H 0.39745 0.44124 0.55814 0.0
H2610 H 0.46046 0.4493 0.58376 0.0
H2611 H 0.38862 0.449 0.60506 0.0
H2612 H 0.35096 0.43376 0.61191 0.0
H2613 H 0.3844 0.37958 0.63315 0.0
H2614 H 0.42223 0.39411 0.62624 0.0
H2615 H 0.54269 0.45662 0.63198 0.0
H2616 H 0.50653 0.46671 0.62163 0.0
H2617 H 0.48108 0.39793 0.62853 0.0
H2618 H 0.51659 0.3883 0.64008 0.0
H2619 H 0.44661 0.42775 0.62984 0.0
H2620 H 0.50749 0.41002 0.60049 0.0
H2621 H 0.54613 0.41243 0.5907 0.0
H2622 H 0.53453 0.48357 0.58128 0.0
H2623 H 0.49585 0.4816 0.5912 0.0
C2624 C 0.41564 0.39318 0.5742 0.0
C2625 C 0.40603 0.40663 0.56434 0.0
C2626 C 0.42323 0.40337 0.58563 0.0
C2627 C 0.42204 0.42732 0.58714 0.0
C2628 C 0.41322 0.44102 0.57706 0.0
C2629 C 0.40507 0.43066 0.56568 0.0
C2630 C 0.43552 0.4375 0.5977 0.0
C2631 C 0.45714 0.44567 0.59396 0.0
C2632 C 0.43118 0.43166 0.61085 0.0
C2633 C 0.40838 0.42277 0.61512 0.0
C2634 C 0.38798 0.43376 0.61113 0.0
C2635 C 0.36657 0.42523 0.61503 0.0
C2636 C 0.36529 0.40573 0.62297 0.0
C2637 C 0.38541 0.39472 0.62703 0.0
C2638 C 0.40686 0.40314 0.62314 0.0
C2639 C 0.52922 0.44376 0.63159 0.0
C2640 C 0.53252 0.42157 0.63676 0.0
C2641 C 0.50858 0.4496 0.62568 0.0
C2642 C 0.49129 0.43304 0.62427 0.0
C2643 C 0.49424 0.411 0.62963 0.0
C2644 C 0.51473 0.40532 0.6359 0.0
C2645 C 0.47181 0.43751 0.61552 0.0
C2646 C 0.44944 0.43252 0.61976 0.0
C2647 C 0.47567 0.44429 0.60248 0.0
C2648 C 0.49904 0.44582 0.5968 0.0
C2649 C 0.51332 0.42625 0.59647 0.0
C2650 C 0.53518 0.42751 0.59088 0.0
C2651 C 0.54283 0.44818 0.58544 0.0
C2652 C 0.52861 0.46761 0.58556 0.0
C2653 C 0.50673 0.46645 0.59118 0.0
H2654 H 0.55975 0.44912 0.58107 0.0
H2655 H 0.3487 0.39916 0.62597 0.0
H2656 H 0.19457 0.04222 0.32099 0.0
H2657 H 0.2193 0.01547 0.33313 0.0
H2658 H 0.16362 1.00205 0.35985 0.0
H2659 H 0.13949 0.02962 0.34796 0.0
H2660 H 0.1984 0.00697 0.37379 0.0
H2661 H 0.18682 0.96049 0.33627 0.0
H2662 H 0.18535 0.95044 0.31295 0.0
H2663 H 0.25767 0.96394 0.30939 0.0
H2664 H 0.25955 0.97432 0.33269 0.0
H2665 H 0.26506 0.91068 0.40263 0.0
H2666 H 0.23481 0.93242 0.39097 0.0
H2667 H 0.28682 0.97159 0.371 0.0
H2668 H 0.31662 0.95129 0.38295 0.0
H2669 H 0.25156 0.95007 0.35403 0.0
H2670 H 0.26056 0.99815 0.3924 0.0
H2671 H 0.26036 0.00533 0.41608 0.0
H2672 H 0.1896 0.9845 0.41811 0.0
H2673 H 0.18948 0.97687 0.39445 0.0
C2674 C 0.18742 0.03284 0.32915 0.0
C2675 C 0.16483 0.03747 0.33325 0.0
C2676 C 0.20162 0.01757 0.33621 0.0
C2677 C 0.19353 0.00622 0.34749 0.0
C2678 C 0.17059 0.01035 0.35127 0.0
C2679 C 0.15657 0.02584 0.34433 0.0
C2680 C 0.20918 0.99121 0.35573 0.0
C2681 C 0.20964 0.99425 0.36939 0.0
C2682 C 0.22427 0.97453 0.35025 0.0
C2683 C 0.22328 0.96836 0.33622 0.0
C2684 C 0.20239 0.96147 0.3305 0.0
C2685 C 0.20149 0.95568 0.31729 0.0
C2686 C 0.2214 0.95658 0.30969 0.0
C2687 C 0.24226 0.96326 0.3153 0.0
C2688 C 0.24327 0.96906 0.32851 0.0
C2689 C 0.27003 0.9242 0.39595 0.0
C2690 C 0.29351 0.92873 0.39363 0.0
C2691 C 0.2527 0.93652 0.38918 0.0
C2692 C 0.25848 0.95342 0.37984 0.0
C2693 C 0.28179 0.95842 0.37791 0.0
C2694 C 0.29892 0.94659 0.38479 0.0
C2695 C 0.24066 0.966 0.37191 0.0
C2696 C 0.23998 0.96259 0.35833 0.0
C2697 C 0.22507 0.98194 0.37748 0.0
C2698 C 0.22509 0.98668 0.39168 0.0
C2699 C 0.24502 0.99489 0.39791 0.0
C2700 C 0.24495 0.99909 0.41133 0.0
C2701 C 0.225 0.9953 0.4186 0.0
C2702 C 0.20505 0.98738 0.41246 0.0
C2703 C 0.20504 0.98313 0.39905 0.0
H2704 H 0.22497 0.99857 0.42898 0.0
H2705 H 0.22066 0.95205 0.29948 0.0
H2706 H 0.35396 0.01409 0.64835 0.0
H2707 H 0.33134 0.98491 0.63648 0.0
H2708 H 0.27613 0.03394 0.63189 0.0
H2709 H 0.29861 0.06268 0.64376 0.0
H2710 H 0.25856 0.99262 0.63587 0.0
H2711 H 0.31685 0.02444 0.60773 0.0
H2712 H 0.35646 0.03393 0.60103 0.0
H2713 H 0.37424 0.96213 0.60135 0.0
H2714 H 0.33478 0.95224 0.60823 0.0
H2715 H 0.19726 0.94181 0.58374 0.0
H2716 H 0.22174 0.97026 0.59497 0.0
H2717 H 0.27441 0.91861 0.59985 0.0
H2718 H 0.25007 0.89056 0.5886 0.0
H2719 H 0.29384 0.96026 0.59584 0.0
H2720 H 0.2356 0.92838 0.62366 0.0
H2721 H 0.1958 0.91869 0.62988 0.0
H2722 H 0.17802 0.9905 0.63009 0.0
H2723 H 0.21765 1.00058 0.62365 0.0
C2724 C 0.33666 0.01822 0.64522 0.0
C2725 C 0.32787 0.04052 0.64712 0.0
C2726 C 0.32386 1.00171 0.63824 0.0
C2727 C 0.30209 0.00727 0.63302 0.0
C2728 C 0.29281 0.0291 0.63572 0.0
C2729 C 0.30559 0.04551 0.6426 0.0
C2730 C 0.2893 0.99114 0.6242 0.0
C2731 C 0.26628 0.98576 0.62706 0.0
C2732 C 0.29927 0.98174 0.61275 0.0
C2733 C 0.32297 0.98764 0.60865 0.0
C2734 C 0.32927 0.0107 0.60648 0.0
C2735 C 0.35167 0.01615 0.60263 0.0
C2736 C 0.36788 0.99865 0.60081 0.0
C2737 C 0.36169 0.97566 0.60279 0.0
C2738 C 0.33931 0.97013 0.60666 0.0
C2739 C 0.21443 0.93693 0.58675 0.0
C2740 C 0.22191 0.9141 0.5852 0.0
C2741 C 0.22831 0.95303 0.59334 0.0
C2742 C 0.24984 0.94651 0.59851 0.0
C2743 C 0.25795 0.92416 0.59602 0.0
C2744 C 0.24409 0.90815 0.58952 0.0
C2745 C 0.26307 0.96203 0.60746 0.0
C2746 C 0.28616 0.96717 0.60465 0.0
C2747 C 0.25319 0.9712 0.61897 0.0
C2748 C 0.22949 0.96521 0.62304 0.0
C2749 C 0.22315 0.94209 0.62495 0.0
C2750 C 0.20064 0.93652 0.62852 0.0
C2751 C 0.18437 0.95396 0.63035 0.0
C2752 C 0.19062 0.97701 0.62865 0.0
C2753 C 0.21311 0.98266 0.62504 0.0
H2754 H 0.16694 0.94962 0.6331 0.0
H2755 H 0.38522 0.0029 0.59782 0.0
H2756 H 0.21928 0.11017 0.87436 0.0
H2757 H 0.24586 0.0833 0.86411 0.0
H2758 H 0.25061 0.04495 0.89992 0.0
H2759 H 0.22303 0.0718 0.91027 0.0
H2760 H 0.295 0.05224 0.88468 0.0
H2761 H 0.2185 0.02266 0.87941 0.0
H2762 H 0.17733 0.02588 0.87394 0.0
H2763 H 0.19468 0.04491 0.83474 0.0
H2764 H 0.236 0.0422 0.84006 0.0
H2765 H 0.34254 0.95114 0.8574 0.0
H2766 H 0.32053 0.98028 0.86887 0.0
H2767 H 0.29724 0.00798 0.83219 0.0
H2768 H 0.31882 0.97759 0.82053 0.0
H2769 H 0.26217 0.0065 0.84829 0.0
H2770 H 0.33811 0.03602 0.85294 0.0
H2771 H 0.3795 0.03531 0.85816 0.0
H2772 H 0.36399 0.01876 0.89796 0.0
H2773 H 0.3225 0.01901 0.89293 0.0
C2774 C 0.22599 0.09611 0.88015 0.0
C2775 C 0.21859 0.09299 0.89312 0.0
C2776 C 0.24131 0.08074 0.87424 0.0
C2777 C 0.25005 0.0618 0.88111 0.0
C2778 C 0.24404 0.05937 0.89436 0.0
C2779 C 0.22837 0.07479 0.90031 0.0
C2780 C 0.26427 0.04418 0.87401 0.0
C2781 C 0.28775 0.0419 0.87689 0.0
C2782 C 0.25512 0.03127 0.86348 0.0
C2783 C 0.23033 0.03243 0.86017 0.0
C2784 C 0.21353 0.0277 0.86965 0.0
C2785 C 0.19018 0.02941 0.86658 0.0
C2786 C 0.18339 0.03566 0.85401 0.0
C2787 C 0.19997 0.04011 0.84448 0.0
C2788 C 0.22336 0.03847 0.84751 0.0
C2789 C 0.33284 0.96344 0.85169 0.0
C2790 C 0.33245 0.96181 0.83797 0.0
C2791 C 0.32035 0.98039 0.85832 0.0
C2792 C 0.30726 0.9968 0.85153 0.0
C2793 C 0.30719 0.99566 0.83776 0.0
C2794 C 0.31975 0.97844 0.83106 0.0
C2795 C 0.29313 0.01432 0.85894 0.0
C2796 C 0.26957 0.01668 0.8561 0.0
C2797 C 0.30229 0.02745 0.86945 0.0
C2798 C 0.32721 0.02732 0.87253 0.0
C2799 C 0.34354 0.03205 0.86279 0.0
C2800 C 0.36701 0.03176 0.86571 0.0
C2801 C 0.37438 0.02693 0.87838 0.0
C2802 C 0.35827 0.02246 0.88815 0.0
C2803 C 0.33476 0.02269 0.88527 0.0
H2804 H 0.39257 0.02671 0.88063 0.0
H2805 H 0.1653 0.037 0.85164 0.0
H2806 H 0.26072 0.10515 0.08246 0.0
H2807 H 0.23216 0.08101 0.09386 0.0
H2808 H 0.28429 0.02942 0.10051 0.0
H2809 H 0.31239 0.05334 0.08911 0.0
H2810 H 0.2447 0.0089 0.09543 0.0
H2811 H 0.26964 0.07039 0.12391 0.0
H2812 H 0.27526 0.11112 0.12998 0.0
H2813 H 0.20247 0.12289 0.12723 0.0
H2814 H 0.19647 0.08227 0.12098 0.0
H2815 H 0.2063 0.94437 0.14811 0.0
H2816 H 0.22851 0.97269 0.13573 0.0
H2817 H 0.16838 0.01593 0.13282 0.0
H2818 H 0.14629 0.98755 0.14562 0.0
H2819 H 0.2076 0.04222 0.13469 0.0
H2820 H 0.18254 0.97941 0.10808 0.0
H2821 H 0.17734 0.93851 0.10232 0.0
H2822 H 0.25061 0.92915 0.10135 0.0
H2823 H 0.25624 0.96993 0.10732 0.0
C2824 C 0.26574 0.0883 0.08597 0.0
C2825 C 0.28869 0.08097 0.08476 0.0
C2826 C 0.24955 0.07464 0.09267 0.0
C2827 C 0.25606 0.05343 0.0983 0.0
C2828 C 0.27867 0.04561 0.09634 0.0
C2829 C 0.29474 0.05924 0.08974 0.0
C2830 C 0.24005 0.0397 0.10679 0.0
C2831 C 0.23671 0.01624 0.10403 0.0
C2832 C 0.22908 0.04914 0.11794 0.0
C2833 C 0.23264 0.07342 0.12184 0.0
C2834 C 0.25486 0.08172 0.12453 0.0
C2835 C 0.25811 0.10477 0.12801 0.0
C2836 C 0.23925 0.1196 0.12895 0.0
C2837 C 0.21708 0.11139 0.12647 0.0
C2838 C 0.21373 0.08837 0.12297 0.0
C2839 C 0.19809 0.96032 0.14522 0.0
C2840 C 0.17469 0.9639 0.14798 0.0
C2841 C 0.21068 0.9764 0.13798 0.0
C2842 C 0.20007 0.9963 0.13299 0.0
C2843 C 0.17702 1.00071 0.13647 0.0
C2844 C 0.16443 0.98462 0.14388 0.0
C2845 C 0.21267 0.01134 0.12343 0.0
C2846 C 0.21537 0.03497 0.12599 0.0
C2847 C 0.22311 1.00207 0.11208 0.0
C2848 C 0.2198 0.97767 0.10824 0.0
C2849 C 0.19754 0.9686 0.10671 0.0
C2850 C 0.19452 0.94544 0.1034 0.0
C2851 C 0.21363 0.93123 0.1015 0.0
C2852 C 0.23582 0.94018 0.10285 0.0
C2853 C 0.23894 0.96331 0.10618 0.0
H2854 H 0.21125 0.9133 0.09896 0.0
H2855 H 0.2418 0.13745 0.13163 0.0
H2856 H 0.80681 0.98038 0.66512 0.0
H2857 H 0.78542 0.004 0.64968 0.0
H2858 H 0.83559 0.98915 0.61993 0.0
H2859 H 0.85729 0.96527 0.63553 0.0
H2860 H 0.81995 0.0346 0.61818 0.0
H2861 H 0.78569 0.96036 0.61953 0.0
H2862 H 0.76995 0.92546 0.62988 0.0
H2863 H 0.71697 0.96584 0.64804 0.0
H2864 H 0.73261 1.00106 0.63793 0.0
H2865 H 0.72954 0.0727 0.57122 0.0
H2866 H 0.76084 0.05071 0.5819 0.0
H2867 H 0.72788 0.0604 0.61907 0.0
H2868 H 0.69767 0.08265 0.60877 0.0
H2869 H 0.7376 0.01388 0.61344 0.0
H2870 H 0.77464 0.0886 0.6129 0.0
H2871 H 0.79113 0.123 0.6024 0.0
H2872 H 0.83918 0.08048 0.58161 0.0
H2873 H 0.82271 0.04576 0.59186 0.0
C2874 C 0.8134 0.98212 0.65532 0.0
C2875 C 0.83366 0.97056 0.65159 0.0
C2876 C 0.80112 0.99573 0.64645 0.0
C2877 C 0.80851 0.99812 0.63348 0.0
C2878 C 0.82938 0.98758 0.62984 0.0
C2879 C 0.84183 0.97393 0.63879 0.0
C2880 C 0.79354 0.01058 0.62379 0.0
C2881 C 0.80206 0.02978 0.61695 0.0
C2882 C 0.77011 0.0045 0.62208 0.0
C2883 C 0.7604 0.98336 0.62804 0.0
C2884 C 0.77075 0.96181 0.62579 0.0
C2885 C 0.76185 0.94197 0.63161 0.0
C2886 C 0.74249 0.94344 0.63963 0.0
C2887 C 0.73197 0.96474 0.64182 0.0
C2888 C 0.74082 0.98464 0.63603 0.0
C2889 C 0.72926 0.07044 0.58168 0.0
C2890 C 0.71064 0.07905 0.58903 0.0
C2891 C 0.7471 0.05779 0.58779 0.0
C2892 C 0.7466 0.05351 0.60133 0.0
C2893 C 0.7286 0.06303 0.60863 0.0
C2894 C 0.71113 0.07572 0.60264 0.0
C2895 C 0.76377 0.03831 0.60812 0.0
C2896 C 0.75559 0.01849 0.61446 0.0
C2897 C 0.78747 0.04376 0.60921 0.0
C2898 C 0.79722 0.06457 0.60299 0.0
C2899 C 0.78853 0.08656 0.60597 0.0
C2900 C 0.79792 0.10612 0.60009 0.0
C2901 C 0.81613 0.10392 0.5913 0.0
C2902 C 0.82503 0.08215 0.58839 0.0
C2903 C 0.81567 0.06253 0.59423 0.0
H2904 H 0.8234 0.1191 0.58678 0.0
H2905 H 0.73563 0.92806 0.64413 0.0
H2906 H 0.80898 0.05984 0.3939 0.0
H2907 H 0.78255 0.03424 0.38218 0.0
H2908 H 0.73229 0.08881 0.38051 0.0
H2909 H 0.75884 0.11428 0.3925 0.0
H2910 H 0.71135 0.04599 0.38336 0.0
H2911 H 0.76843 0.07937 0.35506 0.0
H2912 H 0.80818 0.08877 0.34858 0.0
H2913 H 0.82463 0.01673 0.34661 0.0
H2914 H 0.78506 0.00691 0.35329 0.0
H2915 H 0.64723 0.99355 0.33208 0.0
H2916 H 0.67053 0.02228 0.34383 0.0
H2917 H 0.7272 0.97434 0.34499 0.0
H2918 H 0.70394 0.94603 0.33318 0.0
H2919 H 0.74391 0.01581 0.34206 0.0
H2920 H 0.68921 0.98152 0.37094 0.0
H2921 H 0.6507 0.97025 0.3787 0.0
H2922 H 0.6307 0.04139 0.38064 0.0
H2923 H 0.66903 0.05306 0.37269 0.0
C2924 C 0.79194 0.06603 0.39145 0.0
C2925 C 0.78579 0.08888 0.39433 0.0
C2926 C 0.77692 0.05151 0.38458 0.0
C2927 C 0.75547 0.05961 0.38015 0.0
C2928 C 0.74869 0.08205 0.38375 0.0
C2929 C 0.76376 0.09658 0.3907 0.0
C2930 C 0.74116 0.04534 0.37096 0.0
C2931 C 0.71836 0.03972 0.37423 0.0
C2932 C 0.75028 0.03657 0.35913 0.0
C2933 C 0.77386 0.04242 0.35476 0.0
C2934 C 0.78056 0.06554 0.35329 0.0
C2935 C 0.80305 0.07095 0.34959 0.0
C2936 C 0.81893 0.05336 0.34721 0.0
C2937 C 0.81232 0.03033 0.34847 0.0
C2938 C 0.78986 0.02484 0.3522 0.0
C2939 C 0.66501 0.98966 0.33433 0.0
C2940 C 0.67401 0.9678 0.33135 0.0
C2941 C 0.67821 0.00588 0.34131 0.0
C2942 C 0.70066 1.00049 0.34558 0.0
C2943 C 0.71005 0.97914 0.34187 0.0
C2944 C 0.69685 0.963 0.33496 0.0
C2945 C 0.71403 0.01633 0.35443 0.0
C2946 C 0.73673 0.02223 0.35111 0.0
C2947 C 0.70489 0.02509 0.36628 0.0
C2948 C 0.68186 0.01814 0.37106 0.0
C2949 C 0.67653 0.99475 0.37291 0.0
C2950 C 0.65475 0.98829 0.37736 0.0
C2951 C 0.63823 0.00509 0.38012 0.0
C2952 C 0.64349 0.02839 0.37847 0.0
C2953 C 0.66524 0.03494 0.37399 0.0
H2954 H 0.62138 1.00006 0.38356 0.0
H2955 H 0.83635 0.05758 0.34436 0.0
H2956 H 0.64879 0.0211 0.14444 0.0
H2957 H 0.67053 0.9931 0.1313 0.0
H2958 H 0.73318 0.03028 0.13935 0.0
H2959 H 0.71121 0.05844 0.15207 0.0
H2960 H 0.73201 0.02202 0.11471 0.0
H2961 H 0.71895 0.97371 0.15233 0.0
H2962 H 0.69573 0.95368 0.16894 0.0
H2963 H 0.659 0.91767 0.1389 0.0
H2964 H 0.68179 0.9377 0.12211 0.0
H2965 H 0.80893 0.93417 0.08791 0.0
H2966 H 0.78885 0.96344 0.10115 0.0
H2967 H 0.72395 0.93117 0.09231 0.0
H2968 H 0.7436 0.90252 0.07915 0.0
H2969 H 0.72714 0.93702 0.11762 0.0
H2970 H 0.73859 0.98387 0.08013 0.0
H2971 H 0.75911 0.00452 0.06268 0.0
H2972 H 0.79636 0.04363 0.09123 0.0
H2973 H 0.77633 0.02294 0.10888 0.0
C2974 C 0.66732 0.02267 0.14381 0.0
C2975 C 0.6784 0.0416 0.14961 0.0
C2976 C 0.67981 0.00677 0.13618 0.0
C2977 C 0.70376 0.00928 0.13426 0.0
C2978 C 0.71484 0.02775 0.14054 0.0
C2979 C 0.70234 0.04368 0.14802 0.0
C2980 C 0.71714 0.99361 0.12525 0.0
C2981 C 0.73123 0.00342 0.11553 0.0
C2982 C 0.71573 0.96925 0.12586 0.0
C2983 C 0.70195 0.95735 0.13597 0.0
C2984 C 0.7058 0.96165 0.14927 0.0
C2985 C 0.69273 0.95028 0.15872 0.0
C2986 C 0.67587 0.93445 0.15498 0.0
C2987 C 0.67205 0.92995 0.14178 0.0
C2988 C 0.68504 0.94129 0.1323 0.0
C2989 C 0.79035 0.93363 0.08858 0.0
C2990 C 0.77802 0.91563 0.08254 0.0
C2991 C 0.77883 0.95037 0.09621 0.0
C2992 C 0.75473 0.9495 0.09795 0.0
C2993 C 0.74248 0.9322 0.09138 0.0
C2994 C 0.75386 0.91569 0.0838 0.0
C2995 C 0.74213 0.9654 0.10714 0.0
C2996 C 0.72812 0.95563 0.11687 0.0
C2997 C 0.74345 0.98976 0.10643 0.0
C2998 C 0.7562 1.00157 0.09584 0.0
C2999 C 0.75141 0.99661 0.0827 0.0
C3000 C 0.76289 0.0084 0.07277 0.0
C3001 C 0.77909 0.02532 0.07585 0.0
C3002 C 0.78386 0.03047 0.08886 0.0
C3003 C 0.77246 0.01871 0.09883 0.0
H3004 H 0.78789 0.03449 0.06814 0.0
H3005 H 0.6658 0.92564 0.16231 0.0
H3006 H 0.74083 0.90248 0.89966 0.0
H3007 H 0.77068 0.92201 0.88646 0.0
H3008 H 0.72489 0.97939 0.88051 0.0
H3009 H 0.6958 0.96061 0.89391 0.0
H3010 H 0.744 0.95591 0.85648 0.0
H3011 H 0.7649 0.99088 0.89787 0.0
H3012 H 0.77772 0.98942 0.92075 0.0
H3013 H 0.83966 0.95472 0.90914 0.0
H3014 H 0.82702 0.95566 0.88619 0.0
H3015 H 0.7975 0.05068 0.82612 0.0
H3016 H 0.77663 0.02266 0.83938 0.0
H3017 H 0.84052 0.98849 0.84849 0.0
H3018 H 0.86142 0.01703 0.83516 0.0
H3019 H 0.8163 0.99397 0.8704 0.0
H3020 H 0.79875 0.9626 0.82904 0.0
H3021 H 0.78657 0.96217 0.80604 0.0
H3022 H 0.71958 0.98652 0.81703 0.0
H3023 H 0.73146 0.98747 0.84009 0.0
C3024 C 0.73749 0.91957 0.8959 0.0
C3025 C 0.71579 0.92987 0.8978 0.0
C3026 C 0.75446 0.93064 0.88822 0.0
C3027 C 0.74993 0.95208 0.88225 0.0
C3028 C 0.7288 0.9628 0.88481 0.0
C3029 C 0.71217 0.95203 0.89255 0.0
C3030 C 0.76622 0.9631 0.87273 0.0
C3031 C 0.7598 0.96427 0.85953 0.0
C3032 C 0.78721 0.97348 0.87656 0.0
C3033 C 0.79488 0.97307 0.89033 0.0
C3034 C 0.78114 0.98272 0.90021 0.0
C3035 C 0.7884 0.98204 0.91319 0.0
C3036 C 0.80945 0.97191 0.9164 0.0
C3037 C 0.82333 0.96252 0.90664 0.0
C3038 C 0.81613 0.96313 0.89364 0.0
C3039 C 0.80695 0.0366 0.8305 0.0
C3040 C 0.831 0.03564 0.8292 0.0
C3041 C 0.79504 0.02062 0.83823 0.0
C3042 C 0.80679 0.0031 0.84499 0.0
C3043 C 0.83087 1.00167 0.8434 0.0
C3044 C 0.84282 0.01771 0.83557 0.0
C3045 C 0.79384 0.98727 0.8541 0.0
C3046 C 0.80077 0.98528 0.86723 0.0
C3047 C 0.77338 0.97582 0.85018 0.0
C3048 C 0.76606 0.97523 0.83632 0.0
C3049 C 0.78147 0.96802 0.82656 0.0
C3050 C 0.77461 0.96766 0.8135 0.0
C3051 C 0.75232 0.97434 0.81008 0.0
C3052 C 0.73684 0.98136 0.8197 0.0
C3053 C 0.74362 0.98178 0.83277 0.0
H3054 H 0.74704 0.97404 0.79997 0.0
H3055 H 0.81505 0.97141 0.92646 0.0
H3056 H 0.79865 0.40933 0.87498 0.0
H3057 H 0.76955 0.43214 0.86377 0.0
H3058 H 0.7481 0.46137 0.9004 0.0
H3059 H 0.77782 0.43832 0.91178 0.0
H3060 H 0.71012 0.45173 0.88182 0.0
H3061 H 0.78139 0.49266 0.88321 0.0
H3062 H 0.82337 0.497 0.88093 0.0
H3063 H 0.81852 0.48076 0.84021 0.0
H3064 H 0.77653 0.47591 0.8423 0.0
H3065 H 0.65144 0.54146 0.84521 0.0
H3066 H 0.6736 0.51911 0.8612 0.0
H3067 H 0.71719 0.4937 0.83037 0.0
H3068 H 0.69554 0.51641 0.81457 0.0
H3069 H 0.74331 0.50478 0.84898 0.0
H3070 H 0.67281 0.46081 0.84773 0.0
H3071 H 0.63095 0.45508 0.84987 0.0
H3072 H 0.63406 0.4762 0.88992 0.0
H3073 H 0.67591 0.48238 0.88796 0.0
C3074 C 0.78757 0.42035 0.88073 0.0
C3075 C 0.7908 0.42212 0.8943 0.0
C3076 C 0.77086 0.43344 0.87428 0.0
C3077 C 0.75674 0.44887 0.88113 0.0
C3078 C 0.75878 0.44967 0.89483 0.0
C3079 C 0.7757 0.43643 0.90136 0.0
C3080 C 0.74142 0.4651 0.87364 0.0
C3081 C 0.71736 0.46364 0.8748 0.0
C3082 C 0.75065 0.48048 0.86428 0.0
C3083 C 0.77584 0.48376 0.86293 0.0
C3084 C 0.78929 0.48987 0.87378 0.0
C3085 C 0.81309 0.49242 0.87253 0.0
C3086 C 0.82362 0.48912 0.86044 0.0
C3087 C 0.81035 0.4833 0.84957 0.0
C3088 C 0.78654 0.48066 0.85078 0.0
C3089 C 0.66553 0.53083 0.84183 0.0
C3090 C 0.67162 0.53078 0.82853 0.0
C3091 C 0.67828 0.51797 0.85101 0.0
C3092 C 0.69721 0.50435 0.84713 0.0
C3093 C 0.70289 0.50403 0.8338 0.0
C3094 C 0.6904 0.51704 0.82469 0.0
C3095 C 0.71178 0.49103 0.85677 0.0
C3096 C 0.73587 0.49306 0.85604 0.0
C3097 C 0.70249 0.47618 0.86645 0.0
C3098 C 0.67741 0.47232 0.86765 0.0
C3099 C 0.66453 0.46439 0.85696 0.0
C3100 C 0.64081 0.46104 0.85815 0.0
C3101 C 0.62984 0.46534 0.87001 0.0
C3102 C 0.64257 0.47293 0.88073 0.0
C3103 C 0.66629 0.47635 0.87959 0.0
H3104 H 0.61147 0.46274 0.8709 0.0
H3105 H 0.84205 0.49109 0.85948 0.0
H3106 H 0.70966 0.40372 0.09974 0.0
H3107 H 0.73579 0.42474 0.11452 0.0
H3108 H 0.76326 0.46223 0.08182 0.0
H3109 H 0.73674 0.44178 0.06721 0.0
H3110 H 0.79781 0.44631 0.1007 0.0
H3111 H 0.72593 0.48807 0.09851 0.0
H3112 H 0.68383 0.49199 0.10045 0.0
H3113 H 0.68754 0.47304 0.14082 0.0
H3114 H 0.72965 0.4686 0.13905 0.0
H3115 H 0.85414 0.54018 0.13337 0.0
H3116 H 0.83279 0.51393 0.119 0.0
H3117 H 0.78844 0.49554 0.15107 0.0
H3118 H 0.80895 0.52277 0.16505 0.0
H3119 H 0.76253 0.50023 0.13239 0.0
H3120 H 0.83312 0.45843 0.13574 0.0
H3121 H 0.87498 0.45191 0.13455 0.0
H3122 H 0.87412 0.46739 0.09366 0.0
H3123 H 0.83228 0.47434 0.09465 0.0
C3124 C 0.72166 0.41607 0.09572 0.0
C3125 C 0.72136 0.42094 0.08231 0.0
C3126 C 0.73647 0.42822 0.10416 0.0
C3127 C 0.75157 0.44518 0.09933 0.0
C3128 C 0.75193 0.44924 0.08583 0.0
C3129 C 0.73681 0.43752 0.07748 0.0
C3130 C 0.76603 0.45963 0.1083 0.0
C3131 C 0.79013 0.45824 0.10759 0.0
C3132 C 0.75615 0.47487 0.11751 0.0
C3133 C 0.73088 0.47769 0.1186 0.0
C3134 C 0.71774 0.4845 0.10776 0.0
C3135 C 0.69388 0.48686 0.10884 0.0
C3136 C 0.683 0.48268 0.12074 0.0
C3137 C 0.69598 0.47621 0.1316 0.0
C3138 C 0.71984 0.47377 0.13056 0.0
C3139 C 0.84013 0.53013 0.13736 0.0
C3140 C 0.83337 0.53337 0.15038 0.0
C3141 C 0.82785 0.51502 0.12914 0.0
C3142 C 0.80888 0.50224 0.13383 0.0
C3143 C 0.80276 0.50507 0.14701 0.0
C3144 C 0.81465 0.52052 0.15509 0.0
C3145 C 0.79466 0.48687 0.12504 0.0
C3146 C 0.77046 0.48819 0.12567 0.0
C3147 C 0.8045 0.47124 0.11593 0.0
C3148 C 0.82963 0.46715 0.11531 0.0
C3149 C 0.84189 0.46063 0.12652 0.0
C3150 C 0.86561 0.45683 0.12588 0.0
C3151 C 0.87722 0.4593 0.11405 0.0
C3152 C 0.86511 0.46553 0.10282 0.0
C3153 C 0.8414 0.46939 0.10342 0.0
H3154 H 0.89558 0.45634 0.11357 0.0
H3155 H 0.66452 0.48451 0.12155 0.0
H3156 H 0.84636 0.4854 0.33053 0.0
H3157 H 0.8255 0.51529 0.34285 0.0
H3158 H 0.77138 0.46668 0.35111 0.0
H3159 H 0.79148 0.43753 0.33844 0.0
H3160 H 0.7518 0.50506 0.34782 0.0
H3161 H 0.81732 0.48286 0.37381 0.0
H3162 H 0.85859 0.47718 0.37842 0.0
H3163 H 0.87106 0.54918 0.37196 0.0
H3164 H 0.82989 0.55521 0.36717 0.0
H3165 H 0.69855 0.56943 0.39986 0.0
H3166 H 0.71772 0.53957 0.38688 0.0
H3167 H 0.77459 0.58557 0.37997 0.0
H3168 H 0.75676 0.61431 0.39349 0.0
H3169 H 0.7925 0.54772 0.38267 0.0
H3170 H 0.72665 0.56981 0.35637 0.0
H3171 H 0.68534 0.57507 0.35166 0.0
H3172 H 0.6734 0.50314 0.35866 0.0
H3173 H 0.71459 0.49753 0.36354 0.0
C3174 C 0.82979 0.48129 0.33473 0.0
C3175 C 0.82081 0.45885 0.33352 0.0
C3176 C 0.81794 0.49832 0.342 0.0
C3177 C 0.79688 0.49336 0.34833 0.0
C3178 C 0.78752 0.47126 0.34652 0.0
C3179 C 0.79919 0.45443 0.33926 0.0
C3180 C 0.78461 0.51061 0.35703 0.0
C3181 C 0.76078 0.51421 0.3555 0.0
C3182 C 0.79593 0.52303 0.36708 0.0
C3183 C 0.82061 0.51943 0.37 0.0
C3184 C 0.8289 0.49744 0.3733 0.0
C3185 C 0.85226 0.49416 0.37595 0.0
C3186 C 0.86745 0.51279 0.37544 0.0
C3187 C 0.85929 0.53475 0.37232 0.0
C3188 C 0.83595 0.53811 0.36965 0.0
C3189 C 0.71523 0.57318 0.39572 0.0
C3190 C 0.72562 0.59487 0.3978 0.0
C3191 C 0.72616 0.55604 0.38805 0.0
C3192 C 0.74765 0.56014 0.38199 0.0
C3193 C 0.75811 0.58156 0.38433 0.0
C3194 C 0.74751 0.59839 0.39211 0.0
C3195 C 0.75967 0.54254 0.37335 0.0
C3196 C 0.78348 0.53872 0.37494 0.0
C3197 C 0.74831 0.52994 0.36336 0.0
C3198 C 0.72361 0.53333 0.36045 0.0
C3199 C 0.71517 0.55517 0.35698 0.0
C3200 C 0.69179 0.5582 0.35427 0.0
C3201 C 0.67674 0.53946 0.35491 0.0
C3202 C 0.68506 0.51764 0.35821 0.0
C3203 C 0.70841 0.51453 0.36093 0.0
H3204 H 0.65865 0.54185 0.35281 0.0
H3205 H 0.88553 0.51022 0.3775 0.0
H3206 H 0.65233 0.49397 0.6515 0.0
H3207 H 0.67604 0.52249 0.63977 0.0
H3208 H 0.7236 0.46867 0.62903 0.0
H3209 H 0.7004 0.44074 0.64093 0.0
H3210 H 0.74734 0.50502 0.63353 0.0
H3211 H 0.67855 0.49055 0.60807 0.0
H3212 H 0.63664 0.4898 0.60426 0.0
H3213 H 0.63288 0.56256 0.61154 0.0
H3214 H 0.67475 0.56367 0.61551 0.0
H3215 H 0.80481 0.54602 0.57893 0.0
H3216 H 0.77647 0.52451 0.59169 0.0
H3217 H 0.74167 0.58797 0.60109 0.0
H3218 H 0.77006 0.60945 0.58798 0.0
H3219 H 0.71052 0.55138 0.59869 0.0
H3220 H 0.78004 0.56624 0.6221 0.0
H3221 H 0.82212 0.56693 0.62513 0.0
H3222 H 0.82452 0.49326 0.62164 0.0
H3223 H 0.78248 0.49217 0.61836 0.0
C3224 C 0.66827 0.4885 0.64701 0.0
C3225 C 0.67459 0.46512 0.64728 0.0
C3226 C 0.68165 0.50472 0.64006 0.0
C3227 C 0.70158 0.49785 0.63317 0.0
C3228 C 0.70844 0.47469 0.63414 0.0
C3229 C 0.69518 0.45865 0.64103 0.0
C3230 C 0.71508 0.51411 0.62458 0.0
C3231 C 0.73916 0.51499 0.62589 0.0
C3232 C 0.70474 0.52779 0.61469 0.0
C3233 C 0.67967 0.52714 0.61223 0.0
C3234 C 0.66874 0.50635 0.60893 0.0
C3235 C 0.64501 0.50586 0.60673 0.0
C3236 C 0.6321 0.5261 0.6077 0.0
C3237 C 0.6429 0.54689 0.61082 0.0
C3238 C 0.66662 0.54746 0.61303 0.0
C3239 C 0.79055 0.55524 0.58328 0.0
C3240 C 0.78944 0.57935 0.58224 0.0
C3241 C 0.77449 0.54299 0.59074 0.0
C3242 C 0.75706 0.55454 0.59766 0.0
C3243 C 0.7549 0.57854 0.59591 0.0
C3244 C 0.77099 0.59084 0.58831 0.0
C3245 C 0.74268 0.54171 0.6075 0.0
C3246 C 0.71857 0.54154 0.60643 0.0
C3247 C 0.75296 0.52862 0.61762 0.0
C3248 C 0.77814 0.52914 0.61991 0.0
C3249 C 0.78956 0.5502 0.62192 0.0
C3250 C 0.8134 0.55066 0.62367 0.0
C3251 C 0.82598 0.53015 0.62357 0.0
C3252 C 0.81474 0.50913 0.62172 0.0
C3253 C 0.79091 0.50857 0.61992 0.0
H3254 H 0.84442 0.53054 0.62496 0.0
H3255 H 0.61372 0.52569 0.606 0.0
H3256 H 0.1901 0.57017 0.09407 0.0
H3257 H 0.21196 0.54095 0.10642 0.0
H3258 H 0.27547 0.57068 0.09269 0.0
H3259 H 0.25375 0.59912 0.08026 0.0
H3260 H 0.28144 0.52699 0.09405 0.0
H3261 H 0.25027 0.58365 0.12326 0.0
H3262 H 0.21936 0.60608 0.13375 0.0
H3263 H 0.18958 0.54376 0.14866 0.0
H3264 H 0.22013 0.52092 0.13806 0.0
H3265 H 0.36291 0.49358 0.14074 0.0
H3266 H 0.33559 0.51776 0.12877 0.0
H3267 H 0.27945 0.47708 0.14368 0.0
H3268 H 0.30708 0.45303 0.15583 0.0
H3269 H 0.26704 0.52259 0.1416 0.0
H3270 H 0.30245 0.46671 0.11344 0.0
H3271 H 0.33486 0.44626 0.10311 0.0
H3272 H 0.35858 0.5097 0.08636 0.0
H3273 H 0.32654 0.5306 0.09678 0.0
C3274 C 0.20869 0.56993 0.09342 0.0
C3275 C 0.22021 0.587 0.08622 0.0
C3276 C 0.22125 0.55345 0.10063 0.0
C3277 C 0.24557 0.55378 0.10082 0.0
C3278 C 0.25686 0.56991 0.09288 0.0
C3279 C 0.24439 0.58624 0.08574 0.0
C3280 C 0.25955 0.53845 0.10967 0.0
C3281 C 0.27828 0.52619 0.10445 0.0
C3282 C 0.25551 0.5369 0.12328 0.0
C3283 C 0.23727 0.55057 0.12972 0.0
C3284 C 0.23701 0.57472 0.12869 0.0
C3285 C 0.21958 0.58751 0.13466 0.0
C3286 C 0.20247 0.57635 0.14182 0.0
C3287 C 0.2028 0.55238 0.14307 0.0
C3288 C 0.22016 0.5395 0.13708 0.0
C3289 C 0.34466 0.49044 0.14189 0.0
C3290 C 0.33711 0.47175 0.14948 0.0
C3291 C 0.32902 0.504 0.13484 0.0
C3292 C 0.30534 0.49903 0.135 0.0
C3293 C 0.29757 0.48131 0.14329 0.0
C3294 C 0.31332 0.46772 0.1504 0.0
C3295 C 0.2891 0.5115 0.126 0.0
C3296 C 0.27001 0.5232 0.13118 0.0
C3297 C 0.29301 0.51283 0.11235 0.0
C3298 C 0.3122 0.50025 0.106 0.0
C3299 C 0.31467 0.47633 0.10764 0.0
C3300 C 0.33297 0.46465 0.10176 0.0
C3301 C 0.3488 0.47668 0.09411 0.0
C3302 C 0.34633 0.50041 0.0923 0.0
C3303 C 0.3281 0.51217 0.09819 0.0
H3304 H 0.36296 0.46762 0.08957 0.0
H3305 H 0.18898 0.58627 0.14644 0.0
H3306 H 0.15685 0.45855 0.84478 0.0
H3307 H 0.1787 0.48231 0.86026 0.0
H3308 H 0.20868 0.51966 0.82814 0.0
H3309 H 0.18787 0.49512 0.81283 0.0
H3310 H 0.24061 0.51307 0.84335 0.0
H3311 H 0.16402 0.54079 0.85169 0.0
H3312 H 0.12302 0.53806 0.85766 0.0
H3313 H 0.14144 0.51011 0.89495 0.0
H3314 H 0.18254 0.51234 0.88913 0.0
H3315 H 0.2915 0.60366 0.88099 0.0
H3316 H 0.26439 0.58346 0.86651 0.0
H3317 H 0.24794 0.53614 0.89745 0.0
H3318 H 0.27478 0.55618 0.91186 0.0
H3319 H 0.20884 0.54847 0.88344 0.0
H3320 H 0.28497 0.52022 0.87461 0.0
H3321 H 0.32597 0.52434 0.86894 0.0
H3322 H 0.30743 0.55499 0.83234 0.0
H3323 H 0.26629 0.55139 0.83791 0.0
C3324 C 0.16788 0.47205 0.84107 0.0
C3325 C 0.17054 0.47494 0.82754 0.0
C3326 C 0.1804 0.48579 0.84995 0.0
C3327 C 0.19543 0.50328 0.84555 0.0
C3328 C 0.19751 0.50639 0.83199 0.0
C3329 C 0.18546 0.49237 0.82317 0.0
C3330 C 0.20984 0.51767 0.85481 0.0
C3331 C 0.23332 0.52109 0.85196 0.0
C3332 C 0.20103 0.52787 0.8664 0.0
C3333 C 0.17634 0.52647 0.8699 0.0
C3334 C 0.15931 0.53388 0.86112 0.0
C3335 C 0.13606 0.53245 0.86448 0.0
C3336 C 0.12962 0.52384 0.87666 0.0
C3337 C 0.14644 0.51671 0.88551 0.0
C3338 C 0.16972 0.51806 0.88218 0.0
C3339 C 0.28189 0.58916 0.88476 0.0
C3340 C 0.28561 0.58147 0.8976 0.0
C3341 C 0.26643 0.57749 0.87644 0.0
C3342 C 0.25412 0.558 0.88079 0.0
C3343 C 0.25712 0.55101 0.89377 0.0
C3344 C 0.27269 0.56244 0.902 0.0
C3345 C 0.23915 0.54409 0.87171 0.0
C3346 C 0.2158 0.54061 0.8747 0.0
C3347 C 0.24794 0.53395 0.86019 0.0
C3348 C 0.2726 0.53577 0.85673 0.0
C3349 C 0.28966 0.52799 0.86539 0.0
C3350 C 0.31291 0.53021 0.8622 0.0
C3351 C 0.31931 0.53999 0.8503 0.0
C3352 C 0.30245 0.54747 0.84156 0.0
C3353 C 0.27916 0.54534 0.84473 0.0
H3354 H 0.33732 0.54171 0.84785 0.0
H3355 H 0.11161 0.52275 0.87924 0.0
H3356 H 0.28036 0.40123 0.59178 0.0
H3357 H 0.25306 0.4213 0.60618 0.0
H3358 H 0.26533 0.48455 0.58526 0.0
H3359 H 0.29308 0.46459 0.57132 0.0
H3360 H 0.26852 0.49335 0.60955 0.0
H3361 H 0.21226 0.4511 0.58431 0.0
H3362 H 0.19448 0.41601 0.57523 0.0
H3363 H 0.18402 0.38966 0.61385 0.0
H3364 H 0.20193 0.42451 0.62316 0.0
H3365 H 0.17775 0.56584 0.62927 0.0
H3366 H 0.20485 0.54022 0.61827 0.0
H3367 H 0.18988 0.48679 0.64616 0.0
H3368 H 0.16239 0.51281 0.65722 0.0
H3369 H 0.18912 0.46986 0.62108 0.0
H3370 H 0.24232 0.51336 0.64628 0.0
H3371 H 0.26035 0.54817 0.6555 0.0
H3372 H 0.27714 0.57173 0.61703 0.0
H3373 H 0.25891 0.53722 0.60756 0.0
C3374 C 0.27656 0.41922 0.59003 0.0
C3375 C 0.28852 0.43128 0.58027 0.0
C3376 C 0.26103 0.4308 0.59832 0.0
C3377 C 0.25687 0.45463 0.5969 0.0
C3378 C 0.26814 0.46629 0.58672 0.0
C3379 C 0.28381 0.45483 0.57861 0.0
C3380 C 0.2421 0.46796 0.60637 0.0
C3381 C 0.25105 0.48825 0.61189 0.0
C3382 C 0.21957 0.46109 0.61002 0.0
C3383 C 0.20862 0.44029 0.60442 0.0
C3384 C 0.20629 0.43775 0.59086 0.0
C3385 C 0.19618 0.41792 0.58568 0.0
C3386 C 0.18821 0.40058 0.59396 0.0
C3387 C 0.19024 0.40309 0.60745 0.0
C3388 C 0.20033 0.42288 0.61268 0.0
C3389 C 0.18068 0.54882 0.63325 0.0
C3390 C 0.1682 0.5415 0.64423 0.0
C3391 C 0.19616 0.5341 0.62693 0.0
C3392 C 0.19968 0.51145 0.63134 0.0
C3393 C 0.1876 0.50415 0.64253 0.0
C3394 C 0.17213 0.5191 0.64897 0.0
C3395 C 0.21535 0.49556 0.62386 0.0
C3396 C 0.20663 0.47481 0.61876 0.0
C3397 C 0.23814 0.50197 0.62056 0.0
C3398 C 0.24911 0.52277 0.62621 0.0
C3399 C 0.24971 0.52605 0.63978 0.0
C3400 C 0.25999 0.54571 0.64505 0.0
C3401 C 0.26986 0.56217 0.63685 0.0
C3402 C 0.26949 0.55898 0.62337 0.0
C3403 C 0.25921 0.53935 0.61804 0.0
H3404 H 0.27782 0.57738 0.64095 0.0
H3405 H 0.18041 0.38524 0.58993 0.0
H3406 H 0.34267 0.55132 0.35466 0.0
H3407 H 0.32022 0.52298 0.36624 0.0
H3408 H 0.30152 0.49099 0.3298 0.0
H3409 H 0.32298 0.52115 0.31792 0.0
H3410 H 0.26548 0.4918 0.34417 0.0
H3411 H 0.34163 0.46676 0.3539 0.0
H3412 H 0.382 0.47023 0.361 0.0
H3413 H 0.35977 0.49234 0.39888 0.0
H3414 H 0.31926 0.48934 0.39195 0.0
H3415 H 0.21843 0.39445 0.37557 0.0
H3416 H 0.24584 0.41879 0.36394 0.0
H3417 H 0.25147 0.46274 0.39764 0.0
H3418 H 0.22346 0.43824 0.40932 0.0
H3419 H 0.29441 0.45425 0.38439 0.0
H3420 H 0.21782 0.47923 0.37388 0.0
H3421 H 0.1778 0.47421 0.36646 0.0
H3422 H 0.20186 0.44975 0.32941 0.0
H3423 H 0.24206 0.45424 0.33669 0.0
C3424 C 0.33385 0.53829 0.34901 0.0
C3425 C 0.33451 0.53878 0.33527 0.0
C3426 C 0.32118 0.52171 0.35573 0.0
C3427 C 0.30934 0.50426 0.34906 0.0
C3428 C 0.31053 0.50412 0.33529 0.0
C3429 C 0.32303 0.52118 0.32846 0.0
C3430 C 0.29501 0.48718 0.35658 0.0
C3431 C 0.27208 0.48328 0.3528 0.0
C3432 C 0.30308 0.47629 0.36814 0.0
C3433 C 0.32742 0.47798 0.37237 0.0
C3434 C 0.34536 0.4725 0.36372 0.0
C3435 C 0.36826 0.47437 0.36772 0.0
C3436 C 0.37345 0.48155 0.38038 0.0
C3437 C 0.35573 0.4868 0.38908 0.0
C3438 C 0.33279 0.485 0.38512 0.0
C3439 C 0.22592 0.40901 0.38062 0.0
C3440 C 0.21884 0.41436 0.3934 0.0
C3441 C 0.24144 0.42305 0.37391 0.0
C3442 C 0.25045 0.44292 0.37977 0.0
C3443 C 0.24467 0.44757 0.39286 0.0
C3444 C 0.22888 0.43346 0.3996 0.0
C3445 C 0.26513 0.45904 0.37195 0.0
C3446 C 0.28801 0.46273 0.3757 0.0
C3447 C 0.25711 0.46947 0.36029 0.0
C3448 C 0.23295 0.46683 0.35589 0.0
C3449 C 0.21459 0.47257 0.36419 0.0
C3450 C 0.19187 0.46986 0.36 0.0
C3451 C 0.18729 0.4616 0.34748 0.0
C3452 C 0.20543 0.4561 0.33911 0.0
C3453 C 0.22818 0.45873 0.34327 0.0
H3454 H 0.16969 0.45952 0.34425 0.0
H3455 H 0.3912 0.48299 0.38345 0.0
H3456 H 0.15885 0.05687 0.2908 0.0
H3457 H 0.17051 0.02503 0.2769 0.0
H3458 H 0.14662 0.06267 0.24322 0.0
H3459 H 0.13254 0.09329 0.25744 0.0
H3460 H 0.12258 0.02657 0.24597 0.0
H3461 H 0.2061 0.03903 0.24899 0.0
H3462 H 0.24244 0.04366 0.26114 0.0
H3463 H 0.23154 0.97859 0.28001 0.0
H3464 H 0.19506 0.97366 0.26805 0.0
H3465 H 0.14947 0.96678 0.1919 0.0
H3466 H 0.16098 0.98953 0.2107 0.0
H3467 H 0.14231 0.93362 0.2362 0.0
H3468 H 0.13067 0.91046 0.21714 0.0
H3469 H 0.18741 0.97162 0.24135 0.0
H3470 H 0.1048 0.9588 0.2392 0.0
H3471 H 0.06773 0.95352 0.2279 0.0
H3472 H 0.07576 0.01918 0.20921 0.0
H3473 H 0.11314 0.02457 0.22018 0.0
C3474 C 0.15707 0.05876 0.28037 0.0
C3475 C 0.14444 0.07721 0.27517 0.0
C3476 C 0.16385 0.0405 0.27238 0.0
C3477 C 0.159 0.04113 0.25899 0.0
C3478 C 0.15015 0.06158 0.25357 0.0
C3479 C 0.14241 0.0793 0.26165 0.0
C3480 C 0.15785 0.0195 0.25126 0.0
C3481 C 0.13698 0.01482 0.24489 0.0
C3482 C 0.17587 0.00306 0.25058 0.0
C3483 C 0.19782 0.00606 0.25768 0.0
C3484 C 0.21141 0.02578 0.25578 0.0
C3485 C 0.23204 0.02844 0.26262 0.0
C3486 C 0.23927 0.01145 0.27136 0.0
C3487 C 0.22591 0.99174 0.27325 0.0
C3488 C 0.2053 0.98898 0.26642 0.0
C3489 C 0.14879 0.95891 0.20145 0.0
C3490 C 0.13934 0.93691 0.20313 0.0
C3491 C 0.15538 0.97191 0.21218 0.0
C3492 C 0.15241 0.96323 0.22478 0.0
C3493 C 0.14491 0.94044 0.2265 0.0
C3494 C 0.13835 0.92724 0.21565 0.0
C3495 C 0.15276 0.97985 0.23563 0.0
C3496 C 0.17316 0.98347 0.24262 0.0
C3497 C 0.13419 0.99527 0.23716 0.0
C3498 C 0.11193 0.99189 0.23034 0.0
C3499 C 0.09883 0.97192 0.23252 0.0
C3500 C 0.07773 0.96895 0.2262 0.0
C3501 C 0.06944 0.98596 0.21779 0.0
C3502 C 0.08223 0.00598 0.21568 0.0
C3503 C 0.10339 0.00898 0.22194 0.0
H3504 H 0.05306 0.98366 0.21295 0.0
H3505 H 0.25523 0.01355 0.27665 0.0
H3506 H 0.20922 0.91073 0.54397 0.0
H3507 H 0.23439 0.9213 0.52632 0.0
H3508 H 0.18571 0.89351 0.49871 0.0
H3509 H 0.16085 0.88172 0.51671 0.0
H3510 H 0.22309 0.86998 0.49829 0.0
H3511 H 0.20984 0.95329 0.49794 0.0
H3512 H 0.20677 0.99127 0.50862 0.0
H3513 H 0.27552 0.9842 0.52344 0.0
H3514 H 0.27895 0.94619 0.51287 0.0
H3515 H 0.27652 0.88321 0.44013 0.0
H3516 H 0.25329 0.89376 0.45886 0.0
H3517 H 0.31433 0.89816 0.48263 0.0
H3518 H 0.3381 0.88751 0.46358 0.0
H3519 H 0.27581 0.93404 0.48691 0.0
H3520 H 0.29096 0.85358 0.48735 0.0
H3521 H 0.29586 0.81463 0.47818 0.0
H3522 H 0.22542 0.81461 0.46559 0.0
H3523 H 0.2202 0.85374 0.47448 0.0
C3524 C 0.20309 0.9082 0.53415 0.0
C3525 C 0.18308 0.89542 0.53171 0.0
C3526 C 0.21766 0.91427 0.52395 0.0
C3527 C 0.21219 0.90796 0.51114 0.0
C3528 C 0.1904 0.8984 0.50855 0.0
C3529 C 0.17599 0.89195 0.51881 0.0
C3530 C 0.23078 0.90597 0.5013 0.0
C3531 C 0.2342 0.88423 0.49562 0.0
C3532 C 0.24656 0.92392 0.49855 0.0
C3533 C 0.24461 0.94693 0.50465 0.0
C3534 C 0.22426 0.95985 0.5035 0.0
C3535 C 0.22248 0.98138 0.50952 0.0
C3536 C 0.24093 0.99014 0.51671 0.0
C3537 C 0.26126 0.97743 0.51785 0.0
C3538 C 0.26316 0.95594 0.5118 0.0
C3539 C 0.28511 0.88681 0.44928 0.0
C3540 C 0.30901 0.88429 0.45051 0.0
C3541 C 0.27182 0.89291 0.45994 0.0
C3542 C 0.28212 0.89643 0.47209 0.0
C3543 C 0.30619 0.8955 0.47326 0.0
C3544 C 0.31968 0.88946 0.46244 0.0
C3545 C 0.26696 0.89858 0.48352 0.0
C3546 C 0.26444 0.92002 0.4896 0.0
C3547 C 0.2522 0.88023 0.48691 0.0
C3548 C 0.25526 0.85671 0.48147 0.0
C3549 C 0.27658 0.84538 0.4825 0.0
C3550 C 0.27941 0.82324 0.47738 0.0
C3551 C 0.26098 0.81218 0.47128 0.0
C3552 C 0.23969 0.82322 0.4703 0.0
C3553 C 0.23678 0.84537 0.47539 0.0
H3554 H 0.2632 0.79503 0.46733 0.0
H3555 H 0.23949 0.00678 0.52139 0.0
H3556 H 0.35193 0.0936 0.71154 0.0
H3557 H 0.33555 0.06833 0.72851 0.0
H3558 H 0.35831 0.0087 0.70682 0.0
H3559 H 0.37352 0.03334 0.69009 0.0
H3560 H 0.32363 0.99626 0.71858 0.0
H3561 H 0.39258 0.0366 0.72979 0.0
H3562 H 0.41755 0.07003 0.7342 0.0
H3563 H 0.37306 0.09093 0.76544 0.0
H3564 H 0.34761 0.05775 0.76105 0.0
H3565 H 0.40243 0.94001 0.7653 0.0
H3566 H 0.38644 0.9661 0.74896 0.0
H3567 H 0.32017 0.96251 0.76772 0.0
H3568 H 0.33603 0.93557 0.78393 0.0
H3569 H 0.36245 0.00989 0.76087 0.0
H3570 H 0.30036 0.95299 0.74656 0.0
H3571 H 0.29219 0.91299 0.73977 0.0
H3572 H 0.34538 0.91704 0.71084 0.0
H3573 H 0.35396 0.95694 0.71757 0.0
C3574 C 0.35262 0.07509 0.71031 0.0
C3575 C 0.36434 0.06536 0.69971 0.0
C3576 C 0.3434 0.06067 0.71998 0.0
C3577 C 0.34603 0.03656 0.71907 0.0
C3578 C 0.3559 0.02713 0.70783 0.0
C3579 C 0.3649 0.04133 0.69829 0.0
C3580 C 0.34215 0.02096 0.73031 0.0
C3581 C 0.33156 0.99956 0.72797 0.0
C3582 C 0.3531 0.0248 0.74245 0.0
C3583 C 0.36793 0.04507 0.74491 0.0
C3584 C 0.38797 0.04852 0.73749 0.0
C3585 C 0.40224 0.06737 0.74 0.0
C3586 C 0.39681 0.08269 0.75004 0.0
C3587 C 0.37715 0.07914 0.75761 0.0
C3588 C 0.36276 0.06035 0.7551 0.0
C3589 C 0.38424 0.9441 0.76562 0.0
C3590 C 0.37035 0.93581 0.77573 0.0
C3591 C 0.37518 0.95903 0.75636 0.0
C3592 C 0.3522 0.96615 0.75721 0.0
C3593 C 0.33787 0.9569 0.76687 0.0
C3594 C 0.34688 0.9415 0.77604 0.0
C3595 C 0.34457 0.98534 0.7489 0.0
C3596 C 0.35316 0.00728 0.75181 0.0
C3597 C 0.33362 0.9814 0.73687 0.0
C3598 C 0.32777 0.95783 0.73257 0.0
C3599 C 0.31031 0.94528 0.73878 0.0
C3600 C 0.30561 0.92266 0.73494 0.0
C3601 C 0.31826 0.91248 0.72488 0.0
C3602 C 0.33557 0.92494 0.71861 0.0
C3603 C 0.34031 0.94756 0.72241 0.0
H3604 H 0.31464 0.89495 0.72195 0.0
H3605 H 0.40791 0.09724 0.752 0.0
H3606 H 0.21736 0.10122 0.9375 0.0
H3607 H 0.24392 0.08972 0.95427 0.0
H3608 H 0.19358 0.10694 0.98363 0.0
H3609 H 0.16706 0.11985 0.96649 0.0
H3610 H 0.22967 0.13046 0.98751 0.0
H3611 H 0.22013 0.04905 0.97911 0.0
H3612 H 0.21778 0.01434 0.9653 0.0
H3613 H 0.2861 0.02686 0.95108 0.0
H3614 H 0.28881 0.0617 0.96474 0.0
H3615 H 0.29552 0.09765 0.04075 0.0
H3616 H 0.27222 0.08606 0.02214 0.0
H3617 H 0.32076 0.11815 -0.00386 0.0
H3618 H 0.34397 0.13046 0.01496 0.0
H3619 H 0.28719 0.06748 -0.0094 0.0
H3620 H 0.29314 0.15232 -0.00493 0.0
H3621 H 0.29611 0.18752 0.00843 0.0
H3622 H 0.23449 0.16882 0.02891 0.0
H3623 H 0.23153 0.13319 0.01585 0.0
C3624 C 0.21142 0.10158 0.94745 0.0
C3625 C 0.19011 0.11138 0.95068 0.0
C3626 C 0.22673 0.09481 0.95713 0.0
C3627 C 0.22091 0.09739 0.9703 0.0
C3628 C 0.19852 0.10482 0.97352 0.0
C3629 C 0.18323 0.11191 0.96375 0.0
C3630 C 0.23938 0.09686 0.98032 0.0
C3631 C 0.24189 0.11639 0.98827 0.0
C3632 C 0.25615 0.0791 0.98101 0.0
C3633 C 0.25463 0.058 0.97292 0.0
C3634 C 0.23461 0.04443 0.973 0.0
C3635 C 0.23324 0.02472 0.96521 0.0
C3636 C 0.25178 0.0184 0.95731 0.0
C3637 C 0.27177 0.03174 0.95722 0.0
C3638 C 0.27326 0.05142 0.96502 0.0
C3639 C 0.30185 0.10123 0.03105 0.0
C3640 C 0.32158 0.11473 0.02922 0.0
C3641 C 0.28849 0.09465 0.02043 0.0
C3642 C 0.29473 0.10143 0.00785 0.0
C3643 C 0.31579 0.11272 0.00583 0.0
C3644 C 0.32911 0.11955 0.01654 0.0
C3645 C 0.27702 0.10087 -0.00243 0.0
C3646 C 0.27472 0.0813 0.98972 0.0
C3647 C 0.26055 0.11868 -0.00324 0.0
C3648 C 0.26239 0.13992 0.00469 0.0
C3649 C 0.28045 0.15554 0.00257 0.0
C3650 C 0.28209 0.17559 0.01005 0.0
C3651 C 0.26557 0.18034 0.01956 0.0
C3652 C 0.24734 0.16506 0.02159 0.0
C3653 C 0.24571 0.14492 0.01417 0.0
H3654 H 0.26682 0.19591 0.02532 0.0
H3655 H 0.25066 0.00316 0.95128 0.0
H3656 H 0.84598 0.91939 0.70332 0.0
H3657 H 0.82913 0.94622 0.71897 0.0
H3658 H 0.89394 0.94948 0.73938 0.0
H3659 H 0.91083 0.9231 0.72368 0.0
H3660 H 0.85995 0.95903 0.75562 0.0
H3661 H 0.88563 0.9809 0.7127 0.0
H3662 H 0.88578 0.98084 0.68868 0.0
H3663 H 0.81592 0.00485 0.68832 0.0
H3664 H 0.81516 0.00448 0.71238 0.0
H3665 H 0.90649 0.06891 0.7597 0.0
H3666 H 0.89097 0.03998 0.74488 0.0
H3667 H 0.82632 0.04161 0.76542 0.0
H3668 H 0.84178 0.07087 0.78029 0.0
H3669 H 0.84679 0.02956 0.72931 0.0
H3670 H 0.82875 1.0003 0.77763 0.0
H3671 H 0.84179 0.0045 0.80045 0.0
H3672 H 0.91216 0.99927 0.78805 0.0
H3673 H 0.89946 0.99513 0.76521 0.0
C3674 C 0.85634 0.92502 0.71144 0.0
C3675 C 0.87997 0.91992 0.71201 0.0
C3676 C 0.84667 0.94039 0.72039 0.0
C3677 C 0.86052 0.95042 0.73005 0.0
C3678 C 0.88298 0.94219 0.7319 0.0
C3679 C 0.89267 0.92708 0.7229 0.0
C3680 C 0.85397 0.97242 0.73634 0.0
C3681 C 0.8561 0.97427 0.74991 0.0
C3682 C 0.84999 0.99256 0.72881 0.0
C3683 C 0.85021 0.9923 0.71434 0.0
C3684 C 0.8702 0.98587 0.70751 0.0
C3685 C 0.87041 0.98595 0.69389 0.0
C3686 C 0.85088 0.99287 0.68699 0.0
C3687 C 0.83102 0.99948 0.69369 0.0
C3688 C 0.83066 0.99926 0.70732 0.0
C3689 C 0.88859 0.06396 0.76064 0.0
C3690 C 0.87534 0.07192 0.77113 0.0
C3691 C 0.87972 0.04749 0.75215 0.0
C3692 C 0.85761 0.0386 0.75416 0.0
C3693 C 0.8434 0.04842 0.76372 0.0
C3694 C 0.85222 0.06516 0.77216 0.0
C3695 C 0.85219 0.01588 0.74852 0.0
C3696 C 0.84857 0.01401 0.73508 0.0
C3697 C 0.85578 0.9958 0.75603 0.0
C3698 C 0.86317 0.99728 0.7698 0.0
C3699 C 0.84697 0.99989 0.77982 0.0
C3700 C 0.8543 0.00232 0.79274 0.0
C3701 C 0.87778 1.00207 0.7957 0.0
C3702 C 0.89398 0.99939 0.78576 0.0
C3703 C 0.88673 0.99697 0.77284 0.0
H3704 H 0.88342 0.00404 0.80569 0.0
H3705 H 0.8512 0.9933 0.67646 0.0
H3706 H 0.66325 0.1121 0.51958 0.0
H3707 H 0.68756 0.1033 0.5005 0.0
H3708 H 0.74808 0.12067 0.5228 0.0
H3709 H 0.72431 0.12955 0.54152 0.0
H3710 H 0.74537 0.14349 0.4992 0.0
H3711 H 0.73341 0.0647 0.51655 0.0
H3712 H 0.70688 0.03306 0.52216 0.0
H3713 H 0.68181 0.03179 0.48281 0.0
H3714 H 0.70802 0.0636 0.47702 0.0
H3715 H 0.84012 0.12135 0.46476 0.0
H3716 H 0.81494 0.11058 0.48287 0.0
H3717 H 0.76435 0.08557 0.45555 0.0
H3718 H 0.78971 0.09555 0.43761 0.0
H3719 H 0.75734 0.06651 0.47921 0.0
H3720 H 0.76638 0.14101 0.4605 0.0
H3721 H 0.78786 0.17495 0.45275 0.0
H3722 H 0.8118 0.18799 0.49163 0.0
H3723 H 0.79074 0.15387 0.49958 0.0
C3724 C 0.68177 0.11366 0.52037 0.0
C3725 C 0.69196 0.12167 0.53191 0.0
C3726 C 0.69556 0.10873 0.50952 0.0
C3727 C 0.71954 0.11153 0.51029 0.0
C3728 C 0.7296 0.11866 0.52199 0.0
C3729 C 0.71597 0.12369 0.53268 0.0
C3730 C 0.73472 0.10796 0.499 0.0
C3731 C 0.74813 0.12662 0.4949 0.0
C3732 C 0.73745 0.08625 0.493 0.0
C3733 C 0.72256 0.06651 0.49638 0.0
C3734 C 0.72222 0.05765 0.50911 0.0
C3735 C 0.70723 0.03972 0.51232 0.0
C3736 C 0.69265 0.03044 0.50285 0.0
C3737 C 0.69311 0.03899 0.49013 0.0
C3738 C 0.70805 0.05693 0.48688 0.0
C3739 C 0.82433 0.11212 0.46272 0.0
C3740 C 0.81654 0.10956 0.4499 0.0
C3741 C 0.80987 0.10614 0.47303 0.0
C3742 C 0.78749 0.09812 0.47044 0.0
C3743 C 0.78142 0.092 0.45772 0.0
C3744 C 0.79592 0.09779 0.44746 0.0
C3745 C 0.76906 0.1017 0.4801 0.0
C3746 C 0.75473 0.0833 0.48361 0.0
C3747 C 0.76488 0.12392 0.4853 0.0
C3748 C 0.77722 0.14472 0.48061 0.0
C3749 C 0.77635 0.15102 0.46738 0.0
C3750 C 0.78845 0.17028 0.46295 0.0
C3751 C 0.80128 0.18354 0.47168 0.0
C3752 C 0.80192 0.17765 0.48487 0.0
C3753 C 0.7899 0.15835 0.48935 0.0
H3754 H 0.81067 0.19843 0.46823 0.0
H3755 H 0.681 0.0166 0.50537 0.0
H3756 H 0.59314 0.06767 0.21575 0.0
H3757 H 0.60601 0.04036 0.23231 0.0
H3758 H 0.67476 0.0428 0.21657 0.0
H3759 H 0.66191 0.07056 0.20001 0.0
H3760 H 0.65227 0.99821 0.21665 0.0
H3761 H 0.66662 0.06188 0.2469 0.0
H3762 H 0.65474 0.09694 0.25872 0.0
H3763 H 0.59848 0.06012 0.27603 0.0
H3764 H 0.60984 0.02495 0.2642 0.0
H3765 H 0.66609 0.93686 0.28528 0.0
H3766 H 0.67869 0.96299 0.26791 0.0
H3767 H 0.6176 0.94671 0.2459 0.0
H3768 H 0.60499 0.92098 0.26324 0.0
H3769 H 0.64668 0.99921 0.26483 0.0
H3770 H 0.6224 0.96089 0.21662 0.0
H3771 H 0.62494 0.92446 0.20431 0.0
H3772 H 0.68975 0.90937 0.22252 0.0
H3773 H 0.68743 0.94566 0.23503 0.0
C3774 C 0.61121 0.0631 0.21618 0.0
C3775 C 0.62662 0.07123 0.20672 0.0
C3776 C 0.61853 0.0475 0.22562 0.0
C3777 C 0.64132 0.03962 0.22565 0.0
C3778 C 0.65713 0.04887 0.21673 0.0
C3779 C 0.64986 0.06483 0.20738 0.0
C3780 C 0.64746 0.01942 0.23367 0.0
C3781 C 0.65165 0.99852 0.22722 0.0
C3782 C 0.64567 0.01969 0.24739 0.0
C3783 C 0.6391 0.0408 0.25465 0.0
C3784 C 0.65167 0.0613 0.25319 0.0
C3785 C 0.64502 0.08119 0.2599 0.0
C3786 C 0.62587 0.08076 0.26812 0.0
C3787 C 0.61333 0.06043 0.26967 0.0
C3788 C 0.6199 0.04051 0.26299 0.0
C3789 C 0.65617 0.9378 0.27636 0.0
C3790 C 0.63471 0.92692 0.27547 0.0
C3791 C 0.66326 0.95284 0.26649 0.0
C3792 C 0.64909 0.95677 0.25562 0.0
C3793 C 0.62901 0.94367 0.25407 0.0
C3794 C 0.62181 0.92893 0.26398 0.0
C3795 C 0.65179 0.97802 0.24784 0.0
C3796 C 0.64855 0.99908 0.25431 0.0
C3797 C 0.6532 0.97773 0.23411 0.0
C3798 C 0.65477 0.95591 0.22673 0.0
C3799 C 0.63722 0.94981 0.21795 0.0
C3800 C 0.63857 0.92917 0.21098 0.0
C3801 C 0.6575 0.91461 0.21263 0.0
C3802 C 0.67507 0.92063 0.22129 0.0
C3803 C 0.6737 0.94117 0.22837 0.0
H3804 H 0.65857 0.89867 0.20719 0.0
H3805 H 0.62074 0.09618 0.27328 0.0
H3806 H 0.81055 0.92326 0.03837 0.0
H3807 H 0.78556 0.93786 0.02101 0.0
H3808 H 0.81026 0.88421 -0.00458 0.0
H3809 H 0.83549 0.87033 0.0125 0.0
H3810 H 0.79176 0.91479 0.98118 0.0
H3811 H 0.77039 0.87066 0.01839 0.0
H3812 H 0.76802 0.86214 0.0419 0.0
H3813 H 0.72749 0.92308 0.04785 0.0
H3814 H 0.7298 0.93207 0.02434 0.0
H3815 H 0.70236 0.8459 0.96076 0.0
H3816 H 0.72622 0.86015 0.97854 0.0
H3817 H 0.70013 0.92881 0.97237 0.0
H3818 H 0.67589 0.91456 0.95445 0.0
H3819 H 0.71632 0.90059 0.00243 0.0
H3820 H 0.73916 0.93258 0.95748 0.0
H3821 H 0.74173 0.92216 0.93418 0.0
H3822 H 0.7816 0.86232 0.94393 0.0
H3823 H 0.77899 0.87225 0.96727 0.0
C3824 C 0.81178 0.91576 0.02873 0.0
C3825 C 0.82446 0.89556 0.02669 0.0
C3826 C 0.79736 0.92392 0.01885 0.0
C3827 C 0.79537 0.9115 0.00714 0.0
C3828 C 0.81123 0.89392 0.00442 0.0
C3829 C 0.8257 0.88594 0.01421 0.0
C3830 C 0.77379 0.9121 -0.0005 0.0
C3831 C 0.77517 0.91257 0.98585 0.0
C3832 C 0.75229 0.9076 0.00556 0.0
C3833 C 0.75045 0.90217 0.01965 0.0
C3834 C 0.76103 0.88228 0.02472 0.0
C3835 C 0.75972 0.87738 0.03803 0.0
C3836 C 0.74766 0.89209 0.04635 0.0
C3837 C 0.73686 0.91173 0.04138 0.0
C3838 C 0.73814 0.91674 0.02806 0.0
C3839 C 0.70112 0.8639 0.96346 0.0
C3840 C 0.6877 0.87928 0.95615 0.0
C3841 C 0.71459 0.87195 0.97368 0.0
C3842 C 0.71492 0.89548 0.97662 0.0
C3843 C 0.69985 0.91055 0.97021 0.0
C3844 C 0.68613 0.90243 0.95999 0.0
C3845 C 0.73431 0.9044 0.98427 0.0
C3846 C 0.73261 0.90479 -0.00215 0.0
C3847 C 0.75583 0.90795 0.97818 0.0
C3848 C 0.759 0.90325 0.96408 0.0
C3849 C 0.74858 0.91729 0.95463 0.0
C3850 C 0.74998 0.91143 0.94143 0.0
C3851 C 0.76185 0.89162 0.93758 0.0
C3852 C 0.77248 0.8777 0.94692 0.0
C3853 C 0.7711 0.88348 0.96012 0.0
H3854 H 0.76279 0.88705 0.92737 0.0
H3855 H 0.74656 0.8882 0.05662 0.0
H3856 H 0.65622 0.58617 0.77447 0.0
H3857 H 0.67275 0.56028 0.75821 0.0
H3858 H 0.60565 0.55086 0.74112 0.0
H3859 H 0.58893 0.57595 0.75759 0.0
H3860 H 0.65112 0.51469 0.76058 0.0
H3861 H 0.61143 0.5315 0.71168 0.0
H3862 H 0.60017 0.56392 0.69753 0.0
H3863 H 0.65737 0.6035 0.71166 0.0
H3864 H 0.66894 0.57127 0.72593 0.0
H3865 H 0.60424 0.43184 0.71745 0.0
H3866 H 0.61714 0.45937 0.73382 0.0
H3867 H 0.681 0.46807 0.71297 0.0
H3868 H 0.66808 0.44012 0.69661 0.0
H3869 H 0.64986 0.50581 0.71259 0.0
H3870 H 0.68257 0.45378 0.74523 0.0
H3871 H 0.68023 0.41964 0.75947 0.0
H3872 H 0.62021 0.44753 0.77806 0.0
H3873 H 0.62201 0.48167 0.76386 0.0
C3874 C 0.64512 0.57926 0.767 0.0
C3875 C 0.62115 0.58218 0.76763 0.0
C3876 C 0.65463 0.56455 0.75767 0.0
C3877 C 0.64034 0.55345 0.74864 0.0
C3878 C 0.61698 0.55931 0.74801 0.0
C3879 C 0.60743 0.57363 0.75745 0.0
C3880 C 0.64811 0.53219 0.74215 0.0
C3881 C 0.65157 0.51277 0.75007 0.0
C3882 C 0.64751 0.52967 0.72851 0.0
C3883 C 0.64109 0.549 0.71983 0.0
C3884 C 0.6217 0.54707 0.7117 0.0
C3885 C 0.6152 0.56543 0.7037 0.0
C3886 C 0.62806 0.58575 0.70369 0.0
C3887 C 0.64741 0.58776 0.7117 0.0
C3888 C 0.65391 0.56948 0.71977 0.0
C3889 C 0.62159 0.43859 0.71684 0.0
C3890 C 0.63526 0.43408 0.7059 0.0
C3891 C 0.62898 0.45427 0.72619 0.0
C3892 C 0.64999 0.46576 0.72455 0.0
C3893 C 0.66483 0.45916 0.71442 0.0
C3894 C 0.65752 0.44318 0.70513 0.0
C3895 C 0.6531 0.48822 0.731 0.0
C3896 C 0.65092 0.50782 0.72309 0.0
C3897 C 0.65314 0.49063 0.74468 0.0
C3898 C 0.65251 0.47034 0.75348 0.0
C3899 C 0.66887 0.45262 0.75234 0.0
C3900 C 0.66762 0.43326 0.76041 0.0
C3901 C 0.6501 0.43143 0.76967 0.0
C3902 C 0.63381 0.44899 0.77092 0.0
C3903 C 0.63499 0.46838 0.76288 0.0
H3904 H 0.64913 0.4164 0.77588 0.0
H3905 H 0.62301 0.59995 0.69749 0.0
H3906 H 0.65434 0.37289 0.00391 0.0
H3907 H 0.68745 0.38345 0.99057 0.0
H3908 H 0.71862 0.41712 0.02356 0.0
H3909 H 0.68543 0.40751 0.0367 0.0
H3910 H 0.73578 0.43428 -0.00017 0.0
H3911 H 0.72775 0.36357 0.02219 0.0
H3912 H 0.70671 0.32931 0.02987 0.0
H3913 H 0.69991 0.30543 0.99046 0.0
H3914 H 0.72044 0.33985 0.98252 0.0
H3915 H 0.83918 0.39061 0.96359 0.0
H3916 H 0.81493 0.39963 0.98273 0.0
H3917 H 0.75452 0.38029 0.96089 0.0
H3918 H 0.77812 0.37139 0.94213 0.0
H3919 H 0.7619 0.35664 0.98583 0.0
H3920 H 0.76459 0.43634 0.96548 0.0
H3921 H 0.78891 0.46978 0.9599 0.0
H3922 H 0.81274 0.47349 -0.00054 0.0
H3923 H 0.7886 0.44002 0.00521 0.0
C3924 C 0.66767 0.38358 0.00814 0.0
C3925 C 0.66747 0.38882 0.02148 0.0
C3926 C 0.6866 0.38959 0.00052 0.0
C3927 C 0.70576 0.40033 0.00626 0.0
C3928 C 0.7041 0.40865 0.019 0.0
C3929 C 0.68496 0.40303 0.02654 0.0
C3930 C 0.72857 0.39781 0.00011 0.0
C3931 C 0.74163 0.41732 -0.00312 0.0
C3932 C 0.73702 0.3756 -0.00298 0.0
C3933 C 0.72555 0.35434 0.00176 0.0
C3934 C 0.72171 0.35104 0.01516 0.0
C3935 C 0.70984 0.33161 0.01956 0.0
C3936 C 0.70197 0.31521 0.01065 0.0
C3937 C 0.70603 0.31816 -0.00266 0.0
C3938 C 0.71779 0.33762 -0.00712 0.0
C3939 C 0.82069 0.38866 0.96292 0.0
C3940 C 0.81048 0.37998 0.95151 0.0
C3941 C 0.80696 0.39372 0.9738 0.0
C3942 C 0.78307 0.39024 0.97319 0.0
C3943 C 0.77297 0.38273 0.96157 0.0
C3944 C 0.78651 0.37764 0.95087 0.0
C3945 C 0.76786 0.39316 0.98452 0.0
C3946 C 0.75632 0.37357 0.98902 0.0
C3947 C 0.76142 0.41512 0.98913 0.0
C3948 C 0.77484 0.43582 0.98576 0.0
C3949 C 0.77497 0.44439 0.97297 0.0
C3950 C 0.78873 0.4633 0.96978 0.0
C3951 C 0.80235 0.47376 0.97932 0.0
C3952 C 0.80215 0.46541 -0.00792 0.0
C3953 C 0.7884 0.44652 -0.00468 0.0
H3954 H 0.81307 0.48834 0.97682 0.0
H3955 H 0.69275 0.30019 0.01407 0.0
H3956 H 0.85476 0.42141 0.2696 0.0
H3957 H 0.84125 0.44879 0.25284 0.0
H3958 H 0.88327 0.50203 0.26993 0.0
H3959 H 0.89695 0.47533 0.28623 0.0
H3960 H 0.837 0.51509 0.26564 0.0
H3961 H 0.90284 0.4799 0.24483 0.0
H3962 H 0.92568 0.44797 0.23568 0.0
H3963 H 0.87116 0.43246 0.20885 0.0
H3964 H 0.84784 0.46416 0.218 0.0
H3965 H 0.89211 0.5951 0.22506 0.0
H3966 H 0.87567 0.56767 0.24049 0.0
H3967 H 0.82734 0.54515 0.21128 0.0
H3968 H 0.84316 0.57318 0.19602 0.0
H3969 H 0.8621 0.51219 0.21953 0.0
H3970 H 0.80389 0.56005 0.23813 0.0
H3971 H 0.78812 0.59574 0.24763 0.0
H3972 H 0.83606 0.59107 0.27935 0.0
H3973 H 0.85231 0.55552 0.26997 0.0
C3974 C 0.86114 0.43893 0.26967 0.0
C3975 C 0.87685 0.44622 0.27924 0.0
C3976 C 0.8534 0.45449 0.26016 0.0
C3977 C 0.86109 0.47742 0.26033 0.0
C3978 C 0.87693 0.48448 0.26977 0.0
C3979 C 0.88483 0.46906 0.27904 0.0
C3980 C 0.85322 0.49462 0.25076 0.0
C3981 C 0.84212 0.51439 0.25549 0.0
C3982 C 0.85976 0.49347 0.23754 0.0
C3983 C 0.8734 0.47401 0.23229 0.0
C3984 C 0.89557 0.46943 0.23713 0.0
C3985 C 0.90865 0.45145 0.2319 0.0
C3986 C 0.89982 0.4381 0.22174 0.0
C3987 C 0.87791 0.44274 0.21677 0.0
C3988 C 0.86475 0.46069 0.22198 0.0
C3989 C 0.87704 0.58534 0.22222 0.0
C3990 C 0.86886 0.5863 0.20939 0.0
C3991 C 0.86772 0.56958 0.231 0.0
C3992 C 0.85041 0.55432 0.22696 0.0
C3993 C 0.8406 0.5569 0.21458 0.0
C3994 C 0.84955 0.5731 0.2059 0.0
C3995 C 0.84662 0.53306 0.23454 0.0
C3996 C 0.85575 0.51252 0.22947 0.0
C3997 C 0.83909 0.53383 0.24759 0.0
C3998 C 0.82932 0.55513 0.25333 0.0
C3999 C 0.81114 0.5667 0.2471 0.0
C4000 C 0.80211 0.5869 0.25247 0.0
C4001 C 0.81108 0.59567 0.26408 0.0
C4002 C 0.82909 0.58424 0.27036 0.0
C4003 C 0.83819 0.56403 0.26504 0.0
H4004 H 0.80407 0.61132 0.26821 0.0
H4005 H 0.90999 0.42422 0.21769 0.0
H4006 H 0.82554 0.5872 0.53324 0.0
H4007 H 0.80108 0.57139 0.51588 0.0
H4008 H 0.80061 0.63767 0.49689 0.0
H4009 H 0.8247 0.65336 0.51416 0.0
H4010 H 0.75805 0.59244 0.51424 0.0
H4011 H 0.785 0.63394 0.46655 0.0
H4012 H 0.81995 0.64382 0.4542 0.0
H4013 H 0.85526 0.58605 0.47102 0.0
H4014 H 0.8204 0.57573 0.48345 0.0
H4015 H 0.6847 0.64923 0.47051 0.0
H4016 H 0.71018 0.63227 0.48671 0.0
H4017 H 0.71858 0.57216 0.46243 0.0
H4018 H 0.69269 0.58921 0.44614 0.0
H4019 H 0.75811 0.59842 0.4661 0.0
H4020 H 0.6991 0.56578 0.4941 0.0
H4021 H 0.66273 0.56799 0.50644 0.0
H4022 H 0.68964 0.6239 0.52918 0.0
H4023 H 0.72601 0.62222 0.51692 0.0
C4024 C 0.82119 0.59795 0.52498 0.0
C4025 C 0.82694 0.62141 0.52494 0.0
C4026 C 0.80714 0.58898 0.51512 0.0
C4027 C 0.79912 0.60332 0.50506 0.0
C4028 C 0.80691 0.62615 0.50439 0.0
C4029 C 0.82063 0.63514 0.51428 0.0
C4030 C 0.77902 0.59652 0.4971 0.0
C4031 C 0.75811 0.5931 0.50368 0.0
C4032 C 0.77903 0.5982 0.48336 0.0
C4033 C 0.80009 0.60403 0.47592 0.0
C4034 C 0.80017 0.62324 0.46755 0.0
C4035 C 0.81998 0.62897 0.46057 0.0
C4036 C 0.83982 0.61557 0.46183 0.0
C4037 C 0.83988 0.59643 0.47009 0.0
C4038 C 0.82012 0.59066 0.47713 0.0
C4039 C 0.69113 0.63193 0.46894 0.0
C4040 C 0.68698 0.62049 0.45714 0.0
C4041 C 0.70557 0.62217 0.47823 0.0
C4042 C 0.71623 0.60092 0.47579 0.0
C4043 C 0.71031 0.58846 0.46453 0.0
C4044 C 0.69552 0.59814 0.45527 0.0
C4045 C 0.73712 0.59496 0.48326 0.0
C4046 C 0.75815 0.59642 0.47661 0.0
C4047 C 0.73705 0.5932 0.49699 0.0
C4048 C 0.71534 0.59377 0.5046 0.0
C4049 C 0.69725 0.57855 0.50172 0.0
C4050 C 0.67662 0.57972 0.50871 0.0
C4051 C 0.67389 0.59605 0.5186 0.0
C4052 C 0.69179 0.61121 0.52155 0.0
C4053 C 0.71244 0.61009 0.51462 0.0
H4054 H 0.65789 0.59697 0.52396 0.0
H4055 H 0.85514 0.62002 0.4564 0.0
H4056 H 0.40916 0.5507 0.27079 0.0
H4057 H 0.39555 0.52723 0.253 0.0
H4058 H 0.32811 0.5579 0.25631 0.0
H4059 H 0.34173 0.58109 0.27495 0.0
H4060 H 0.32511 0.51249 0.25631 0.0
H4061 H 0.36428 0.56528 0.22766 0.0
H4062 H 0.3966 0.58954 0.22029 0.0
H4063 H 0.44036 0.53004 0.21832 0.0
H4064 H 0.40846 0.50549 0.22579 0.0
H4065 H 0.3344 0.44091 0.19244 0.0
H4066 H 0.32008 0.46984 0.2078 0.0
H4067 H 0.36847 0.44587 0.23656 0.0
H4068 H 0.38305 0.41749 0.22121 0.0
H4069 H 0.36975 0.49429 0.21648 0.0
H4070 H 0.33703 0.4468 0.25259 0.0
H4071 H 0.30737 0.42091 0.26155 0.0
H4072 H 0.25462 0.46871 0.25022 0.0
H4073 H 0.28404 0.4947 0.24101 0.0
C4074 C 0.39152 0.55292 0.26758 0.0
C4075 C 0.37643 0.56758 0.27431 0.0
C4076 C 0.3838 0.53962 0.25724 0.0
C4077 C 0.36087 0.54101 0.25309 0.0
C4078 C 0.34595 0.5567 0.25928 0.0
C4079 C 0.35373 0.57005 0.26983 0.0
C4080 C 0.35238 0.52375 0.24354 0.0
C4081 C 0.33447 0.50896 0.24739 0.0
C4082 C 0.36475 0.51877 0.23197 0.0
C4083 C 0.3839 0.53355 0.22727 0.0
C4084 C 0.38081 0.55739 0.22568 0.0
C4085 C 0.39907 0.57119 0.22148 0.0
C4086 C 0.42051 0.56134 0.21883 0.0
C4087 C 0.42373 0.53765 0.22034 0.0
C4088 C 0.40554 0.52378 0.22451 0.0
C4089 C 0.34082 0.44078 0.20234 0.0
C4090 C 0.35994 0.42721 0.20566 0.0
C4091 C 0.33263 0.45735 0.21111 0.0
C4092 C 0.34317 0.45995 0.22333 0.0
C4093 C 0.35974 0.44385 0.2273 0.0
C4094 C 0.36808 0.42756 0.21851 0.0
C4095 C 0.34344 0.48277 0.22966 0.0
C4096 C 0.35983 0.49851 0.22512 0.0
C4097 C 0.3302 0.48827 0.24071 0.0
C4098 C 0.31262 0.47237 0.24586 0.0
C4099 C 0.31908 0.45156 0.25179 0.0
C4100 C 0.30233 0.43694 0.25698 0.0
C4101 C 0.27911 0.44309 0.25638 0.0
C4102 C 0.2726 0.4639 0.25061 0.0
C4103 C 0.28929 0.47856 0.2454 0.0
H4104 H 0.26617 0.43178 0.26043 0.0
H4105 H 0.43462 0.57207 0.21561 0.0
H4106 H 0.28243 0.6229 0.94171 0.0
H4107 H 0.25767 0.60974 0.95925 0.0
H4108 H 0.31557 0.60943 0.98557 0.0
H4109 H 0.34082 0.62277 0.96773 0.0
H4110 H 0.28135 0.57179 0.98897 0.0
H4111 H 0.28693 0.65343 0.98716 0.0
H4112 H 0.28744 0.69199 0.97715 0.0
H4113 H 0.21772 0.68298 0.96432 0.0
H4114 H 0.21694 0.64412 0.97402 0.0
H4115 H 0.216 0.59747 0.04595 0.0
H4116 H 0.2413 0.58669 0.02812 0.0
H4117 H 0.18693 0.60121 0.00065 0.0
H4118 H 0.16184 0.61285 0.01863 0.0
H4119 H 0.22137 0.63034 -0.00168 0.0
H4120 H 0.21691 0.54733 0.00143 0.0
H4121 H 0.21784 0.51029 0.01318 0.0
H4122 H 0.28682 0.5242 0.02594 0.0
H4123 H 0.28622 0.5614 0.01435 0.0
C4124 C 0.29001 0.61962 0.95118 0.0
C4125 C 0.31334 0.62417 0.95353 0.0
C4126 C 0.27587 0.61204 0.96115 0.0
C4127 C 0.28478 0.60904 0.97369 0.0
C4128 C 0.3085 0.61176 0.9759 0.0
C4129 C 0.32284 0.61932 0.96579 0.0
C4130 C 0.26852 0.60563 0.9845 0.0
C4131 C 0.26834 0.58461 -0.00883 0.0
C4132 C 0.25153 0.6224 0.98719 0.0
C4133 C 0.25199 0.6457 0.98118 0.0
C4134 C 0.2718 0.65952 0.98206 0.0
C4135 C 0.27212 0.68147 0.97647 0.0
C4136 C 0.25265 0.6899 0.97006 0.0
C4137 C 0.23281 0.6764 0.96925 0.0
C4138 C 0.23243 0.6544 0.97479 0.0
C4139 C 0.20904 0.59692 0.03616 0.0
C4140 C 0.18716 0.60594 0.03355 0.0
C4141 C 0.22353 0.59077 0.02593 0.0
C4142 C 0.21611 0.5934 0.01302 0.0
C4143 C 0.19299 0.59915 0.01056 0.0
C4144 C 0.17856 0.60553 0.02082 0.0
C4145 C 0.23345 0.596 0.00257 0.0
C4146 C 0.23407 0.61723 -0.00395 0.0
C4147 C 0.251 0.57961 0.00026 0.0
C4148 C 0.25148 0.55714 0.00706 0.0
C4149 C 0.23223 0.54252 0.00679 0.0
C4150 C 0.23271 0.52149 0.01341 0.0
C4151 C 0.25237 0.51491 0.02031 0.0
C4152 C 0.27161 0.52931 0.02058 0.0
C4153 C 0.27124 0.55032 0.01395 0.0
H4154 H 0.25269 0.49864 0.02545 0.0
H4155 H 0.25291 0.70692 0.96577 0.0
H4156 H 0.11608 0.57024 0.68698 0.0
H4157 H 0.11028 0.53843 0.70182 0.0
H4158 H 0.1661 0.56281 0.72576 0.0
H4159 H 0.17176 0.59533 0.71103 0.0
H4160 H 0.16937 0.51604 0.71891 0.0
H4161 H 0.11425 0.56847 0.73696 0.0
H4162 H 0.08119 0.59509 0.73684 0.0
H4163 H 0.03717 0.54071 0.72337 0.0
H4164 H 0.07006 0.51384 0.72319 0.0
H4165 H 0.15128 0.4449 0.77443 0.0
H4166 H 0.15989 0.47248 0.75732 0.0
H4167 H 0.09546 0.45618 0.7385 0.0
H4168 H 0.08624 0.4296 0.75621 0.0
H4169 H 0.09689 0.49918 0.74247 0.0
H4170 H 0.15177 0.44644 0.7242 0.0
H4171 H 0.18479 0.41974 0.72427 0.0
H4172 H 0.22893 0.47398 0.73783 0.0
H4173 H 0.19611 0.50092 0.73799 0.0
C4174 C 0.12688 0.56939 0.69544 0.0
C4175 C 0.14432 0.5857 0.69771 0.0
C4176 C 0.12356 0.55098 0.70396 0.0
C4177 C 0.13772 0.54833 0.71489 0.0
C4178 C 0.155 0.56457 0.71733 0.0
C4179 C 0.15818 0.58315 0.70888 0.0
C4180 C 0.13521 0.52793 0.72338 0.0
C4181 C 0.15363 0.5124 0.7242 0.0
C4182 C 0.11445 0.52301 0.72995 0.0
C4183 C 0.0947 0.53922 0.7299 0.0
C4184 C 0.09759 0.56226 0.73382 0.0
C4185 C 0.07886 0.57738 0.73384 0.0
C4186 C 0.05712 0.56962 0.73005 0.0
C4187 C 0.05404 0.54671 0.72626 0.0
C4188 C 0.07272 0.53153 0.7262 0.0
C4189 C 0.13948 0.44637 0.76634 0.0
C4190 C 0.1182 0.43502 0.76656 0.0
C4191 C 0.14438 0.46227 0.75652 0.0
C4192 C 0.12831 0.46653 0.74657 0.0
C4193 C 0.10806 0.45335 0.74611 0.0
C4194 C 0.10292 0.43794 0.75612 0.0
C4195 C 0.13096 0.48681 0.73787 0.0
C4196 C 0.11259 0.50252 0.73708 0.0
C4197 C 0.15173 0.49181 0.73127 0.0
C4198 C 0.17146 0.47563 0.7312 0.0
C4199 C 0.16849 0.45262 0.72729 0.0
C4200 C 0.18717 0.43746 0.72727 0.0
C4201 C 0.20893 0.44515 0.73108 0.0
C4202 C 0.21206 0.46804 0.73489 0.0
C4203 C 0.19344 0.48327 0.73493 0.0
H4204 H 0.22338 0.43338 0.73105 0.0
H4205 H 0.04264 0.58135 0.73008 0.0
H4206 H 0.19819 0.41863 0.44314 0.0
H4207 H 0.22178 0.42604 0.46236 0.0
H4208 H 0.18022 0.37867 0.48452 0.0
H4209 H 0.1564 0.37158 0.46532 0.0
H4210 H 0.20361 0.41139 0.50051 0.0
H4211 H 0.21991 0.35321 0.46764 0.0
H4212 H 0.225 0.33899 0.44517 0.0
H4213 H 0.27725 0.38986 0.43848 0.0
H4214 H 0.27269 0.40413 0.46102 0.0
H4215 H 0.27827 0.34156 0.53609 0.0
H4216 H 0.25174 0.3536 0.51903 0.0
H4217 H 0.30177 0.40224 0.50477 0.0
H4218 H 0.32862 0.39038 0.52195 0.0
H4219 H 0.27607 0.37493 0.4851 0.0
H4220 H 0.26409 0.42404 0.52241 0.0
H4221 H 0.25941 0.42947 0.54609 0.0
H4222 H 0.19733 0.38948 0.54527 0.0
H4223 H 0.20187 0.38343 0.52161 0.0
C4224 C 0.19306 0.41119 0.45237 0.0
C4225 C 0.17554 0.39463 0.45285 0.0
C4226 C 0.20669 0.41522 0.46332 0.0
C4227 C 0.20305 0.40243 0.47473 0.0
C4228 C 0.18331 0.38867 0.47579 0.0
C4229 C 0.16957 0.38476 0.46484 0.0
C4230 C 0.22232 0.39867 0.48387 0.0
C4231 C 0.21953 0.40366 0.49715 0.0
C4232 C 0.24299 0.38825 0.47948 0.0
C4233 C 0.24579 0.37988 0.46593 0.0
C4234 C 0.23242 0.3614 0.46135 0.0
C4235 C 0.23527 0.35328 0.44863 0.0
C4236 C 0.25131 0.36363 0.44037 0.0
C4237 C 0.26476 0.38193 0.44488 0.0
C4238 C 0.26214 0.38996 0.45764 0.0
C4239 C 0.28382 0.35461 0.52924 0.0
C4240 C 0.3054 0.36526 0.53045 0.0
C4241 C 0.26861 0.36147 0.51953 0.0
C4242 C 0.27475 0.37905 0.51087 0.0
C4243 C 0.29679 0.38875 0.51148 0.0
C4244 C 0.31205 0.38195 0.52128 0.0
C4245 C 0.2575 0.38796 0.50166 0.0
C4246 C 0.26054 0.38354 0.48839 0.0
C4247 C 0.23697 0.39842 0.50614 0.0
C4248 C 0.23333 0.40328 0.52022 0.0
C4249 C 0.24942 0.41641 0.52727 0.0
C4250 C 0.24683 0.41956 0.5407 0.0
C4251 C 0.22808 0.40984 0.54718 0.0
C4252 C 0.21182 0.39704 0.54023 0.0
C4253 C 0.21438 0.39378 0.5268 0.0
H4254 H 0.22617 0.41221 0.55758 0.0
H4255 H 0.25338 0.35741 0.4305 0.0
H4256 H 0.0145 0.15262 0.28979 0.0
H4257 H 0.9957 0.18973 0.28995 0.0
H4258 H 0.06143 0.22359 0.28741 0.0
H4259 H 0.0808 0.18601 0.28741 0.0
H4260 H 0.03525 0.24625 0.30422 0.0
H4261 H 0.0216 0.21968 0.2606 0.0
H4262 H 0.0091 0.1919 0.24385 0.0
H4263 H 0.94075 0.19231 0.2597 0.0
H4264 H 0.9529 0.2199 0.27663 0.0
H4265 H 0.98862 0.35692 0.29068 0.0
H4266 H 0.00832 0.32 0.28913 0.0
H4267 H 0.94343 0.28467 0.29225 0.0
H4268 H 0.92344 0.3218 0.29391 0.0
H4269 H 0.96956 0.26293 0.27485 0.0
H4270 H 0.98257 0.28863 0.31841 0.0
H4271 H 0.9946 0.31511 0.33592 0.0
H4272 H 0.06354 0.31535 0.3209 0.0
H4273 H 0.05184 0.28911 0.30319 0.0
C4274 C 0.02529 0.16769 0.28903 0.0
C4275 C 0.04954 0.16567 0.28839 0.0
C4276 C 0.01426 0.18925 0.28913 0.0
C4277 C 0.02685 0.20989 0.28842 0.0
C4278 C 0.05106 0.20812 0.28789 0.0
C4279 C 0.06222 0.18642 0.28786 0.0
C4280 C 0.01463 0.23304 0.28851 0.0
C4281 C 0.02118 0.24997 0.2976 0.0
C4282 C 0.99563 0.23806 0.28023 0.0
C4283 C 0.9882 0.22174 0.26994 0.0
C4284 C 0.00393 0.21377 0.26055 0.0
C4285 C 0.9969 0.19806 0.25102 0.0
C4286 C 0.97416 0.19031 0.25073 0.0
C4287 C 0.95836 0.19832 0.25994 0.0
C4288 C 0.9653 0.21402 0.26949 0.0
C4289 C 0.97834 0.34143 0.2911 0.0
C4290 C 0.9542 0.34281 0.29262 0.0
C4291 C 0.98979 0.32009 0.29023 0.0
C4292 C 0.97765 0.29914 0.29086 0.0
C4293 C 0.95345 0.30037 0.29182 0.0
C4294 C 0.94192 0.32181 0.29273 0.0
C4295 C 0.99026 0.2762 0.29052 0.0
C4296 C 0.98373 0.25928 0.28141 0.0
C4297 C 0.00922 0.27115 0.29883 0.0
C4298 C 0.01626 0.28712 0.30938 0.0
C4299 C 1.00025 0.29451 0.31877 0.0
C4300 C 0.00702 0.30944 0.32874 0.0
C4301 C 0.0298 0.31697 0.3295 0.0
C4302 C 0.04588 0.30954 0.32029 0.0
C4303 C 0.03919 0.29464 0.31028 0.0
H4304 H 0.03502 0.32851 0.33724 0.0
H4305 H 0.96876 0.17814 0.24335 0.0
H4306 H 0.90133 0.73723 0.55443 0.0
H4307 H 0.93806 0.75738 0.55372 0.0
H4308 H 0.96901 0.69884 0.53464 0.0
H4309 H 0.93217 0.67809 0.53603 0.0
H4310 H 0.99902 0.71435 0.54985 0.0
H4311 H 0.95307 0.75397 0.5185 0.0
H4312 H 0.91921 0.77472 0.51 0.0
H4313 H 0.92885 0.8279 0.53858 0.0
H4314 H 0.96263 0.80733 0.54734 0.0
H4315 H 0.09863 0.77656 0.53013 0.0
H4316 H 0.06217 0.75612 0.53031 0.0
H4317 H 0.03271 0.80888 0.55468 0.0
H4318 H 0.06914 0.83002 0.55424 0.0
H4319 H 0.00249 0.79616 0.53613 0.0
H4320 H 0.05006 0.75473 0.56681 0.0
H4321 H 0.0848 0.73354 0.57367 0.0
H4322 H 0.07284 0.68297 0.54389 0.0
H4323 H 0.03819 0.70403 0.53675 0.0
C4324 C 0.91589 0.72867 0.54999 0.0
C4325 C 0.9136 0.7061 0.54511 0.0
C4326 C 0.93703 0.74033 0.5495 0.0
C4327 C 0.95655 0.73016 0.54375 0.0
C4328 C 0.9544 0.70737 0.53906 0.0
C4329 C 0.93327 0.69545 0.53982 0.0
C4330 C 0.97911 0.74314 0.5429 0.0
C4331 C 0.99966 0.73212 0.54664 0.0
C4332 C 0.98046 0.76657 0.53891 0.0
C4333 C 0.96023 0.77901 0.53364 0.0
C4334 C 0.94787 0.77002 0.52302 0.0
C4335 C 0.92872 0.78176 0.51815 0.0
C4336 C 0.92185 0.80258 0.52377 0.0
C4337 C 0.93417 0.81175 0.53424 0.0
C4338 C 0.95334 0.80008 0.53915 0.0
C4339 C 0.0845 0.78415 0.53546 0.0
C4340 C 0.08727 0.80521 0.54218 0.0
C4341 C 0.06352 0.77214 0.53567 0.0
C4342 C 0.04453 0.78058 0.54269 0.0
C4343 C 0.04702 0.80177 0.54924 0.0
C4344 C 0.06806 0.81385 0.54904 0.0
C4345 C 0.02218 0.76738 0.54314 0.0
C4346 C 0.00172 0.77836 0.53931 0.0
C4347 C 0.02099 0.74382 0.5468 0.0
C4348 C 0.04165 0.73104 0.55119 0.0
C4349 C 0.05492 0.73916 0.56169 0.0
C4350 C 0.07459 0.72716 0.56563 0.0
C4351 C 0.08105 0.70694 0.5592 0.0
C4352 C 0.06783 0.69864 0.54885 0.0
C4353 C 0.04817 0.71058 0.54486 0.0
H4354 H 0.09629 0.69769 0.56226 0.0
H4355 H 0.907 0.81164 0.51999 0.0
H4356 H 0.48789 0.85444 0.79114 0.0
H4357 H 0.50724 0.81767 0.7922 0.0
H4358 H 0.44185 0.78302 0.79465 0.0
H4359 H 0.42212 0.82027 0.79453 0.0
H4360 H 0.46876 0.76208 0.81013 0.0
H4361 H 0.47952 0.78415 0.76575 0.0
H4362 H 0.4904 0.80974 0.74761 0.0
H4363 H 0.56005 0.81148 0.76151 0.0
H4364 H 0.54953 0.78611 0.77984 0.0
H4365 H 0.51183 0.65131 0.79689 0.0
H4366 H 0.49386 0.68848 0.79516 0.0
H4367 H 0.55982 0.72156 0.79874 0.0
H4368 H 0.57861 0.68368 0.80019 0.0
H4369 H 0.53315 0.7431 0.78029 0.0
H4370 H 0.52071 0.71911 0.82468 0.0
H4371 H 0.50849 0.69168 0.84166 0.0
H4372 H 0.43985 0.69184 0.82619 0.0
H4373 H 0.45173 0.71904 0.80901 0.0
C4374 C 0.47731 0.83922 0.79196 0.0
C4375 C 0.45309 0.84094 0.79285 0.0
C4376 C 0.48862 0.81784 0.79237 0.0
C4377 C 0.47627 0.79707 0.79325 0.0
C4378 C 0.45205 0.79857 0.79393 0.0
C4379 C 0.44065 0.82009 0.79374 0.0
C4380 C 0.4887 0.77409 0.79381 0.0
C4381 C 0.48259 0.75794 0.80344 0.0
C4382 C 0.50724 0.76836 0.78533 0.0
C4383 C 0.51369 0.78338 0.77423 0.0
C4384 C 0.49713 0.79008 0.76498 0.0
C4385 C 0.50324 0.80454 0.75466 0.0
C4386 C 0.52589 0.81227 0.75342 0.0
C4387 C 0.54251 0.80549 0.76248 0.0
C4388 C 0.53649 0.79105 0.77283 0.0
C4389 C 0.52298 0.66613 0.7973 0.0
C4390 C 0.5471 0.66379 0.79878 0.0
C4391 C 0.51236 0.68776 0.79638 0.0
C4392 C 0.52521 0.70817 0.79707 0.0
C4393 C 0.54932 0.70618 0.79827 0.0
C4394 C 0.56011 0.68434 0.79916 0.0
C4395 C 0.51319 0.73128 0.79658 0.0
C4396 C 0.51935 0.74738 0.78697 0.0
C4397 C 0.49448 0.73682 0.80494 0.0
C4398 C 0.48715 0.721 0.8155 0.0
C4399 C 0.50303 0.71324 0.82487 0.0
C4400 C 0.49616 0.69772 0.83453 0.0
C4401 C 0.47342 0.68998 0.83499 0.0
C4402 C 0.45747 0.69784 0.82582 0.0
C4403 C 0.46424 0.71333 0.81614 0.0
H4404 H 0.46816 0.67793 0.84245 0.0
H4405 H 0.53057 0.82348 0.74544 0.0
H4406 H 0.39772 0.2414 0.04847 0.0
H4407 H 0.43474 0.26072 0.04854 0.0
H4408 H 0.46888 0.19577 0.04221 0.0
H4409 H 0.43153 0.17607 0.04227 0.0
H4410 H 0.49271 0.21878 0.05912 0.0
H4411 H 0.46272 0.2394 0.01752 0.0
H4412 H 0.43438 0.25431 0.00176 0.0
H4413 H 0.43588 0.32039 0.02053 0.0
H4414 H 0.46404 0.3058 0.03651 0.0
H4415 H 0.60119 0.26669 0.0437 0.0
H4416 H 0.56412 0.24796 0.0428 0.0
H4417 H 0.53057 0.31222 0.05171 0.0
H4418 H 0.56803 0.33168 0.05218 0.0
H4419 H 0.50662 0.28957 0.03329 0.0
H4420 H 0.53792 0.26745 0.07488 0.0
H4421 H 0.56717 0.25144 0.08976 0.0
H4422 H 0.56413 0.18658 0.06972 0.0
H4423 H 0.53509 0.2023 0.05461 0.0
C4424 C 0.41292 0.23106 0.04685 0.0
C4425 C 0.41119 0.20697 0.04517 0.0
C4426 C 0.43434 0.24229 0.0469 0.0
C4427 C 0.45497 0.23 0.04511 0.0
C4428 C 0.45341 0.20589 0.04356 0.0
C4429 C 0.4319 0.19456 0.04359 0.0
C4430 C 0.47799 0.24227 0.04522 0.0
C4431 C 0.49575 0.23405 0.0533 0.0
C4432 C 0.48226 0.2626 0.03787 0.0
C4433 C 0.46532 0.27144 0.02829 0.0
C4434 C 0.45688 0.25707 0.01835 0.0
C4435 C 0.44087 0.26547 0.00936 0.0
C4436 C 0.43328 0.28826 0.01016 0.0
C4437 C 0.44174 0.30273 0.01993 0.0
C4438 C 0.45775 0.29441 0.02895 0.0
C4439 C 0.58618 0.27722 0.0454 0.0
C4440 C 0.5882 0.30107 0.04801 0.0
C4441 C 0.56469 0.2662 0.04501 0.0
C4442 C 0.54422 0.27837 0.04741 0.0
C4443 C 0.54596 0.30222 0.04988 0.0
C4444 C 0.56758 0.31338 0.05023 0.0
C4445 C 0.52123 0.26611 0.04723 0.0
C4446 C 0.50351 0.27432 0.03912 0.0
C4447 C 0.51709 0.24561 0.05443 0.0
C4448 C 0.53446 0.23612 0.06356 0.0
C4449 C 0.5436 0.24982 0.0736 0.0
C4450 C 0.56013 0.24079 0.08208 0.0
C4451 C 0.56754 0.21802 0.08067 0.0
C4452 C 0.55839 0.20422 0.07079 0.0
C4453 C 0.54188 0.21317 0.06228 0.0
H4454 H 0.58033 0.21106 0.08724 0.0
H4455 H 0.42089 0.29474 0.0032 0.0
H4456 H 0.96746 0.6627 0.20375 0.0
H4457 H 0.98634 0.70058 0.20472 0.0
H4458 H 0.95723 0.71806 0.16744 0.0
H4459 H 0.93758 0.68042 0.16668 0.0
H4460 H 0.01389 0.7217 0.17488 0.0
H4461 H 0.93487 0.74655 0.18416 0.0
H4462 H 0.8987 0.74466 0.19665 0.0
H4463 H 0.93568 0.75846 0.23202 0.0
H4464 H 0.97215 0.75997 0.21975 0.0
H4465 H 0.05571 0.83579 0.16814 0.0
H4466 H 0.03386 0.79987 0.16732 0.0
H4467 H 0.01929 0.80603 0.20841 0.0
H4468 H 0.03962 0.84313 0.20884 0.0
H4469 H 0.98443 0.78918 0.19937 0.0
H4470 H 0.06209 0.76573 0.1924 0.0
H4471 H 0.1004 0.76607 0.18209 0.0
H4472 H 0.07026 0.74686 0.14548 0.0
H4473 H 0.03171 0.74673 0.15553 0.0
C4474 C 0.96479 0.67478 0.19586 0.0
C4475 C 0.95082 0.6686 0.1852 0.0
C4476 C 0.97565 0.69642 0.1964 0.0
C4477 C 0.9733 0.71229 0.18616 0.0
C4478 C 0.95928 0.70622 0.1755 0.0
C4479 C 0.9479 0.68477 0.17511 0.0
C4480 C 0.98605 0.73482 0.18646 0.0
C4481 C 0.00733 0.7366 0.18006 0.0
C4482 C 0.97812 0.75398 0.1937 0.0
C4483 C 0.95625 0.75302 0.20106 0.0
C4484 C 0.93533 0.74885 0.19462 0.0
C4485 C 0.91476 0.74793 0.20165 0.0
C4486 C 0.9149 0.75134 0.21513 0.0
C4487 C 0.9356 0.75575 0.22159 0.0
C4488 C 0.95622 0.75664 0.2146 0.0
C4489 C 0.0479 0.82939 0.177 0.0
C4490 C 0.0496 0.84222 0.18859 0.0
C4491 C 0.0355 0.8086 0.17658 0.0
C4492 C 0.02524 0.79935 0.18789 0.0
C4493 C 0.02692 0.81236 0.19949 0.0
C4494 C 0.03868 0.8336 0.19979 0.0
C4495 C 0.01247 0.77654 0.18757 0.0
C4496 C 0.99121 0.77449 0.19409 0.0
C4497 C 0.02079 0.75688 0.18071 0.0
C4498 C 0.04399 0.75643 0.1747 0.0
C4499 C 0.06362 0.76167 0.18214 0.0
C4500 C 0.08538 0.76184 0.17634 0.0
C4501 C 0.08776 0.75657 0.16313 0.0
C4502 C 0.06839 0.75098 0.15571 0.0
C4503 C 0.04658 0.75084 0.16145 0.0
H4504 H 0.10461 0.75677 0.15865 0.0
H4505 H 0.89896 0.75065 0.22056 0.0
H4506 H 0.5625 0.67103 0.42513 0.0
H4507 H 0.52603 0.69249 0.42495 0.0
H4508 H 0.55794 0.74733 0.44683 0.0
H4509 H 0.59371 0.72531 0.44759 0.0
H4510 H 0.51905 0.74426 0.4561 0.0
H4511 H 0.54233 0.74865 0.41141 0.0
H4512 H 0.55491 0.73349 0.39012 0.0
H4513 H 0.49246 0.69444 0.38691 0.0
H4514 H 0.4796 0.70921 0.40826 0.0
H4515 H 0.42652 0.82581 0.44463 0.0
H4516 H 0.46379 0.80582 0.44497 0.0
H4517 H 0.43207 0.74543 0.42851 0.0
H4518 H 0.39536 0.76512 0.42784 0.0
H4519 H 0.47121 0.75264 0.41644 0.0
H4520 H 0.44864 0.7504 0.46186 0.0
H4521 H 0.43752 0.76716 0.48302 0.0
H4522 H 0.50072 0.80534 0.48427 0.0
H4523 H 0.5121 0.789 0.46304 0.0
C4524 C 0.56174 0.68777 0.42976 0.0
C4525 C 0.58116 0.6964 0.43633 0.0
C4526 C 0.54081 0.70021 0.42963 0.0
C4527 C 0.53885 0.72203 0.43571 0.0
C4528 C 0.55849 0.73067 0.44209 0.0
C4529 C 0.57915 0.71804 0.44246 0.0
C4530 C 0.51651 0.73574 0.43569 0.0
C4531 C 0.50888 0.7463 0.44731 0.0
C4532 C 0.50261 0.73851 0.4244 0.0
C4533 C 0.5101 0.72989 0.41148 0.0
C4534 C 0.53132 0.73676 0.40618 0.0
C4535 C 0.5385 0.72825 0.39411 0.0
C4536 C 0.52452 0.71297 0.38718 0.0
C4537 C 0.50328 0.70626 0.3923 0.0
C4538 C 0.49602 0.71473 0.40437 0.0
C4539 C 0.42737 0.80826 0.44112 0.0
C4540 C 0.40736 0.79728 0.43636 0.0
C4541 C 0.44883 0.7967 0.44138 0.0
C4542 C 0.45105 0.77381 0.43687 0.0
C4543 C 0.43115 0.76296 0.43209 0.0
C4544 C 0.40982 0.77437 0.43187 0.0
C4545 C 0.47385 0.76106 0.43681 0.0
C4546 C 0.48151 0.75066 0.42518 0.0
C4547 C 0.48798 0.75882 0.44803 0.0
C4548 C 0.4811 0.76867 0.46078 0.0
C4549 C 0.46008 0.76251 0.46659 0.0
C4550 C 0.45375 0.77191 0.47862 0.0
C4551 C 0.46837 0.78736 0.48497 0.0
C4552 C 0.48939 0.7934 0.47933 0.0
C4553 C 0.49579 0.78406 0.46731 0.0
H4554 H 0.46344 0.79461 0.49427 0.0
H4555 H 0.53012 0.70637 0.37785 0.0
H4556 H 0.42225 0.18387 0.69217 0.0
H4557 H 0.44178 0.22136 0.69266 0.0
H4558 H 0.50568 0.18844 0.68232 0.0
H4559 H 0.48663 0.15139 0.68188 0.0
H4560 H 0.51467 0.21871 0.7 0.0
H4561 H 0.47133 0.22087 0.66003 0.0
H4562 H 0.4355 0.21746 0.64729 0.0
H4563 H 0.40585 0.27352 0.66881 0.0
H4564 H 0.44143 0.27708 0.6818 0.0
H4565 H 0.58073 0.31668 0.68074 0.0
H4566 H 0.55895 0.28047 0.68057 0.0
H4567 H 0.49796 0.31696 0.69256 0.0
H4568 H 0.51935 0.35307 0.69246 0.0
H4569 H 0.48634 0.28575 0.67476 0.0
H4570 H 0.53027 0.28405 0.71433 0.0
H4571 H 0.56531 0.28587 0.72784 0.0
H4572 H 0.5937 0.22824 0.7071 0.0
H4573 H 0.55892 0.22626 0.69336 0.0
C4574 C 0.44045 0.18455 0.69001 0.0
C4575 C 0.45266 0.16415 0.68713 0.0
C4576 C 0.45167 0.20615 0.69024 0.0
C4577 C 0.47539 0.20807 0.68743 0.0
C4578 C 0.48751 0.18772 0.68464 0.0
C4579 C 0.47642 0.16627 0.68445 0.0
C4580 C 0.48783 0.23096 0.68731 0.0
C4581 C 0.50853 0.23322 0.69433 0.0
C4582 C 0.47985 0.25036 0.68019 0.0
C4583 C 0.45891 0.24904 0.67199 0.0
C4584 C 0.45714 0.23244 0.66206 0.0
C4585 C 0.43689 0.23046 0.65481 0.0
C4586 C 0.41836 0.24512 0.65733 0.0
C4587 C 0.42018 0.26208 0.66693 0.0
C4588 C 0.4404 0.26411 0.67424 0.0
C4589 C 0.56266 0.31708 0.68326 0.0
C4590 C 0.55207 0.33804 0.68677 0.0
C4591 C 0.55018 0.29623 0.68326 0.0
C4592 C 0.52669 0.29566 0.68674 0.0
C4593 C 0.51598 0.31665 0.6899 0.0
C4594 C 0.52843 0.33742 0.68996 0.0
C4595 C 0.51336 0.27332 0.6873 0.0
C4596 C 0.49248 0.27122 0.6804 0.0
C4597 C 0.52119 0.25399 0.6945 0.0
C4598 C 0.5421 0.25516 0.70273 0.0
C4599 C 0.54406 0.27188 0.71259 0.0
C4600 C 0.56386 0.27292 0.72029 0.0
C4601 C 0.58175 0.25722 0.7183 0.0
C4602 C 0.57985 0.24041 0.70862 0.0
C4603 C 0.56009 0.23931 0.70087 0.0
H4604 H 0.59706 0.25805 0.72428 0.0
H4605 H 0.4026 0.24328 0.65183 0.0
H4606 H 0.08101 0.19781 0.92032 0.0
H4607 H 0.04483 0.21968 0.92021 0.0
H4608 H 0.04775 0.22543 0.96199 0.0
H4609 H 0.08426 0.20395 0.96213 0.0
H4610 H 0.0017 0.21209 0.95043 0.0
H4611 H 0.06134 0.27026 0.94679 0.0
H4612 H 0.09575 0.28725 0.93656 0.0
H4613 H 0.05983 0.29246 0.90012 0.0
H4614 H 0.0253 0.27518 0.9101 0.0
H4615 H 0.90965 0.29136 0.9588 0.0
H4616 H 0.94659 0.27089 0.96 0.0
H4617 H 0.96092 0.29004 0.9202 0.0
H4618 H 0.92458 0.31164 0.91944 0.0
H4619 H 0.99893 0.29001 0.93073 0.0
H4620 H 0.94111 0.23252 0.93166 0.0
H4621 H 0.90623 0.21218 0.93902 0.0
H4622 H 0.93687 0.2013 0.97658 0.0
H4623 H 0.97184 0.22186 0.96949 0.0
C4624 C 0.07392 0.20353 0.92951 0.0
C4625 C 0.08574 0.19896 0.94125 0.0
C4626 C 0.05318 0.21618 0.92943 0.0
C4627 C 0.04334 0.22435 0.94108 0.0
C4628 C 0.05481 0.21939 0.95284 0.0
C4629 C 0.07582 0.20715 0.95291 0.0
C4630 C 0.02145 0.23846 0.94096 0.0
C4631 C 1.00117 0.22928 0.9463 0.0
C4632 C 0.02024 0.26054 0.9351 0.0
C4633 C 0.04083 0.27125 0.92916 0.0
C4634 C 0.06085 0.27487 0.93657 0.0
C4635 C 0.08036 0.28458 0.93082 0.0
C4636 C 0.08 0.29087 0.91769 0.0
C4637 C 0.06009 0.28755 0.91029 0.0
C4638 C 0.04054 0.27782 0.91599 0.0
C4639 C 0.92097 0.29153 0.95044 0.0
C4640 C 0.91437 0.30345 0.93912 0.0
C4641 C 0.94203 0.27945 0.951 0.0
C4642 C 0.95681 0.27812 0.94008 0.0
C4643 C 0.95024 0.29052 0.92884 0.0
C4644 C 0.92941 0.303 0.92838 0.0
C4645 C 0.97881 0.26382 0.94031 0.0
C4646 C 0.99922 0.27289 0.93493 0.0
C4647 C 0.97993 0.24127 0.94576 0.0
C4648 C 0.95897 0.22895 0.95009 0.0
C4649 C 0.94033 0.22594 0.94152 0.0
C4650 C 0.92057 0.21435 0.94564 0.0
C4651 C 0.91931 0.20551 0.95827 0.0
C4652 C 0.93785 0.20819 0.96681 0.0
C4653 C 0.95765 0.2198 0.96274 0.0
H4654 H 0.90399 0.19654 0.96144 0.0
H4655 H 0.09513 0.29837 0.91326 0.0
H4656 H 0.99048 0.85167 0.69118 0.0
H4657 H 0.00948 0.81469 0.69234 0.0
H4658 H 0.94894 0.78154 0.67713 0.0
H4659 H 0.92956 0.81911 0.67553 0.0
H4660 H 0.96879 0.75727 0.69813 0.0
H4661 H 0.9953 0.79 0.65774 0.0
H4662 H 0.01266 0.81972 0.64369 0.0
H4663 H 0.07497 0.81692 0.66612 0.0
H4664 H 0.05787 0.78745 0.68042 0.0
H4665 H 0.0239 0.64922 0.6893 0.0
H4666 H 0.00237 0.68509 0.68682 0.0
H4667 H 0.06531 0.72375 0.69129 0.0
H4668 H 0.08702 0.68748 0.69268 0.0
H4669 H 0.0429 0.74528 0.67519 0.0
H4670 H 0.01782 0.71608 0.71653 0.0
H4671 H 0.002 0.68724 0.73173 0.0
H4672 H 0.9393 0.68481 0.70965 0.0
H4673 H 0.95483 0.71345 0.69424 0.0
C4674 C 0.98098 0.83683 0.68785 0.0
C4675 C 0.95831 0.83899 0.68296 0.0
C4676 C 0.99207 0.81541 0.6886 0.0
C4677 C 0.98097 0.79514 0.68462 0.0
C4678 C 0.95806 0.79688 0.68019 0.0
C4679 C 0.94692 0.8185 0.67929 0.0
C4680 C 0.99352 0.7724 0.68515 0.0
C4681 C 0.98482 0.75453 0.69295 0.0
C4682 C 0.01495 0.76887 0.67881 0.0
C4683 C 0.0252 0.78668 0.67024 0.0
C4684 C 0.01263 0.79588 0.65975 0.0
C4685 C 0.02244 0.81266 0.65173 0.0
C4686 C 0.04488 0.82025 0.65403 0.0
C4687 C 0.05758 0.81106 0.66435 0.0
C4688 C 0.04783 0.79431 0.67242 0.0
C4689 C 0.03309 0.6654 0.68984 0.0
C4690 C 0.05713 0.66548 0.69142 0.0
C4691 C 0.02071 0.68607 0.68854 0.0
C4692 C 0.03181 0.70763 0.68931 0.0
C4693 C 0.056 0.70763 0.69074 0.0
C4694 C 0.0685 0.68686 0.69161 0.0
C4695 C 0.01838 0.72997 0.68832 0.0
C4696 C 0.0269 0.74786 0.68042 0.0
C4697 C 0.99705 0.7337 0.69482 0.0
C4698 C 0.98756 0.71676 0.70418 0.0
C4699 C 1.00069 0.70932 0.71489 0.0
C4700 C 0.99178 0.69302 0.72354 0.0
C4701 C 0.96968 0.68416 0.72163 0.0
C4702 C 0.95642 0.69167 0.71111 0.0
C4703 C 0.96525 0.70796 0.70243 0.0
H4704 H 0.96283 0.67152 0.72833 0.0
H4705 H 0.05245 0.83323 0.6478 0.0
H4706 H 0.10434 0.26579 0.43807 0.0
H4707 H 0.06727 0.24646 0.43808 0.0
H4708 H 0.03272 0.31209 0.4387 0.0
H4709 H 0.07008 0.33184 0.43888 0.0
H4710 H 0.01196 0.28026 0.45552 0.0
H4711 H 0.03523 0.28173 0.41074 0.0
H4712 H 0.06243 0.27572 0.39264 0.0
H4713 H 0.06446 0.20327 0.40096 0.0
H4714 H 0.03747 0.20889 0.41925 0.0
H4715 H 0.90128 0.23347 0.44276 0.0
H4716 H 0.93703 0.25551 0.44213 0.0
H4717 H 0.97455 0.19364 0.43256 0.0
H4718 H 0.93832 0.17187 0.43238 0.0
H4719 H 0.99384 0.22507 0.42009 0.0
H4720 H 0.97245 0.22309 0.46539 0.0
H4721 H 0.94681 0.22871 0.48427 0.0
H4722 H 0.94263 0.30104 0.4759 0.0
H4723 H 0.96806 0.29582 0.45689 0.0
C4724 C 0.08904 0.27636 0.4384 0.0
C4725 C 0.09066 0.30065 0.43855 0.0
C4726 C 0.06763 0.26512 0.43827 0.0
C4727 C 0.04692 0.27764 0.43826 0.0
C4728 C 0.04832 0.30187 0.43868 0.0
C4729 C 0.06983 0.31321 0.43872 0.0
C4730 C 0.02404 0.26528 0.43765 0.0
C4731 C 0.00787 0.26846 0.44767 0.0
C4732 C 0.01869 0.24931 0.42762 0.0
C4733 C 0.03445 0.24576 0.41642 0.0
C4734 C 0.04155 0.26453 0.40875 0.0
C4735 C 0.05692 0.26119 0.39845 0.0
C4736 C 0.0652 0.23913 0.39567 0.0
C4737 C 0.05804 0.22034 0.40314 0.0
C4738 C 0.04267 0.22359 0.41346 0.0
C4739 C 0.91715 0.22451 0.44057 0.0
C4740 C 0.91682 0.20075 0.43779 0.0
C4741 C 0.9378 0.23717 0.44031 0.0
C4742 C 0.95909 0.22639 0.43772 0.0
C4743 C 0.95868 0.20265 0.43468 0.0
C4744 C 0.93787 0.19009 0.43461 0.0
C4745 C 0.98157 0.2398 0.43808 0.0
C4746 C 0.99777 0.23684 0.42799 0.0
C4747 C 0.98705 0.25582 0.44814 0.0
C4748 C 0.97199 0.25902 0.45965 0.0
C4749 C 0.96598 0.24017 0.46755 0.0
C4750 C 0.95149 0.24329 0.47827 0.0
C4751 C 0.94305 0.26521 0.48126 0.0
C4752 C 0.94916 0.28407 0.47356 0.0
C4753 C 0.96363 0.28105 0.46282 0.0
H4754 H 0.93181 0.26758 0.48956 0.0
H4755 H 0.07714 0.2366 0.38771 0.0
H4756 H 0.42052 0.31851 0.19086 0.0
H4757 H 0.44076 0.28114 0.19068 0.0
H4758 H 0.50585 0.31647 0.1894 0.0
H4759 H 0.48587 0.35356 0.18982 0.0
H4760 H 0.50163 0.27885 0.17094 0.0
H4761 H 0.49087 0.29432 0.21693 0.0
H4762 H 0.46781 0.30274 0.23652 0.0
H4763 H 0.42928 0.24049 0.23077 0.0
H4764 H 0.45193 0.23185 0.21104 0.0
H4765 H 0.57872 0.18521 0.18222 0.0
H4766 H 0.55847 0.22223 0.18339 0.0
H4767 H 0.49657 0.18722 0.19524 0.0
H4768 H 0.51681 0.15041 0.19438 0.0
H4769 H 0.49823 0.22477 0.20825 0.0
H4770 H 0.50537 0.20788 0.16342 0.0
H4771 H 0.52295 0.19858 0.14221 0.0
H4772 H 0.56245 0.26098 0.14373 0.0
H4773 H 0.54536 0.27051 0.16507 0.0
C4774 C 0.43913 0.31828 0.19054 0.0
C4775 C 0.45148 0.33917 0.1905 0.0
C4776 C 0.45073 0.29688 0.19048 0.0
C4777 C 0.47497 0.29581 0.19009 0.0
C4778 C 0.48723 0.31666 0.18974 0.0
C4779 C 0.47571 0.33795 0.19007 0.0
C4780 C 0.4877 0.27316 0.19005 0.0
C4781 C 0.50116 0.26718 0.17918 0.0
C4782 C 0.48653 0.25738 0.20057 0.0
C4783 C 0.47293 0.26257 0.21243 0.0
C4784 C 0.47734 0.28254 0.21977 0.0
C4785 C 0.46438 0.28733 0.23092 0.0
C4786 C 0.44705 0.2722 0.23487 0.0
C4787 C 0.44268 0.25221 0.22769 0.0
C4788 C 0.45559 0.24735 0.21653 0.0
C4789 C 0.56092 0.18535 0.18527 0.0
C4790 C 0.54951 0.16451 0.1881 0.0
C4791 C 0.54917 0.20665 0.18579 0.0
C4792 C 0.52565 0.20782 0.18917 0.0
C4793 C 0.51457 0.18711 0.19252 0.0
C4794 C 0.52623 0.16589 0.19196 0.0
C4795 C 0.51249 0.23037 0.18913 0.0
C4796 C 0.49889 0.23639 0.19999 0.0
C4797 C 0.51305 0.24593 0.17844 0.0
C4798 C 0.52427 0.23978 0.16593 0.0
C4799 C 0.51805 0.21947 0.15933 0.0
C4800 C 0.52785 0.2142 0.14726 0.0
C4801 C 0.54375 0.2292 0.14162 0.0
C4802 C 0.55009 0.2494 0.1481 0.0
C4803 C 0.54037 0.25474 0.16019 0.0
H4804 H 0.55108 0.2252 0.1322 0.0
H4805 H 0.43703 0.27593 0.2435 0.0
H4806 H 0.57034 0.83188 0.93703 0.0
H4807 H 0.53343 0.81139 0.9371 0.0
H4808 H 0.56885 0.7472 0.93055 0.0
H4809 H 0.60557 0.76754 0.93019 0.0
H4810 H 0.53171 0.74792 0.91589 0.0
H4811 H 0.54622 0.76249 0.961 0.0
H4812 H 0.55498 0.78587 0.98044 0.0
H4813 H 0.49329 0.82521 0.9745 0.0
H4814 H 0.4843 0.80224 0.95492 0.0
H4815 H 0.43583 0.67426 0.93009 0.0
H4816 H 0.47322 0.69368 0.93059 0.0
H4817 H 0.43943 0.75869 0.93726 0.0
H4818 H 0.40227 0.73964 0.93676 0.0
H4819 H 0.47615 0.75687 0.95218 0.0
H4820 H 0.4623 0.74227 0.90665 0.0
H4821 H 0.45341 0.71779 0.88766 0.0
H4822 H 0.51413 0.67759 0.89485 0.0
H4823 H 0.52323 0.70167 0.91398 0.0
C4824 C 0.57033 0.81342 0.93555 0.0
C4825 C 0.59125 0.80151 0.93373 0.0
C4826 C 0.5491 0.80161 0.9357 0.0
C4827 C 0.54807 0.77751 0.934 0.0
C4828 C 0.5689 0.7657 0.93195 0.0
C4829 C 0.59008 0.77743 0.93187 0.0
C4830 C 0.52546 0.76458 0.93431 0.0
C4831 C 0.51975 0.74973 0.92394 0.0
C4832 C 0.50938 0.76694 0.94464 0.0
C4833 C 0.51472 0.7808 0.95641 0.0
C4834 C 0.53462 0.77625 0.96378 0.0
C4835 C 0.5396 0.7894 0.97483 0.0
C4836 C 0.52474 0.80706 0.97868 0.0
C4837 C 0.50481 0.81155 0.97149 0.0
C4838 C 0.49975 0.79846 0.96042 0.0
C4839 C 0.43622 0.69269 0.93159 0.0
C4840 C 0.41557 0.70511 0.93338 0.0
C4841 C 0.45779 0.70388 0.93188 0.0
C4842 C 0.45946 0.7279 0.93384 0.0
C4843 C 0.43893 0.74022 0.93577 0.0
C4844 C 0.41744 0.72911 0.9355 0.0
C4845 C 0.48236 0.74033 0.93373 0.0
C4846 C 0.48812 0.75508 0.94414 0.0
C4847 C 0.49852 0.73784 0.92345 0.0
C4848 C 0.49334 0.72364 0.91181 0.0
C4849 C 0.4737 0.72814 0.90421 0.0
C4850 C 0.46863 0.71435 0.89343 0.0
C4851 C 0.48317 0.69611 0.89007 0.0
C4852 C 0.50287 0.6917 0.89746 0.0
C4853 C 0.50801 0.70544 0.90827 0.0
H4854 H 0.4792 0.68543 0.88172 0.0
H4855 H 0.52863 0.81722 0.98724 0.0
H4856 H 0.92481 0.18331 0.79799 0.0
H4857 H 0.94411 0.22082 0.79829 0.0
H4858 H 0.0067 0.18889 0.78481 0.0
H4859 H 0.98761 0.15146 0.78471 0.0
H4860 H 0.01778 0.21701 0.80327 0.0
H4861 H 0.9704 0.2255 0.76511 0.0
H4862 H 0.93414 0.22556 0.75262 0.0
H4863 H 0.9067 0.27785 0.77782 0.0
H4864 H 0.9427 0.2779 0.79055 0.0
H4865 H 0.07892 0.32278 0.79031 0.0
H4866 H 0.05995 0.28498 0.78879 0.0
H4867 H 0.99637 0.31536 0.80192 0.0
H4868 H 0.015 0.35274 0.80333 0.0
H4869 H 0.98612 0.28789 0.78322 0.0
H4870 H 0.03257 0.27919 0.8216 0.0
H4871 H 0.06859 0.27959 0.83431 0.0
H4872 H 0.09732 0.22799 0.80913 0.0
H4873 H 0.06156 0.22751 0.79616 0.0
C4874 C 0.94255 0.18425 0.79489 0.0
C4875 C 0.95452 0.16402 0.79138 0.0
C4876 C 0.9537 0.20588 0.79506 0.0
C4877 C 0.97709 0.2081 0.79153 0.0
C4878 C 0.9888 0.18798 0.7877 0.0
C4879 C 0.97775 0.16642 0.7876 0.0
C4880 C 0.98963 0.231 0.79214 0.0
C4881 C 0.01091 0.23238 0.7987 0.0
C4882 C 0.98077 0.25153 0.78651 0.0
C4883 C 0.95916 0.25155 0.77885 0.0
C4884 C 0.95657 0.2369 0.76804 0.0
C4885 C 0.93608 0.23693 0.76091 0.0
C4886 C 0.91811 0.25166 0.76444 0.0
C4887 C 0.92062 0.26643 0.7751 0.0
C4888 C 0.94107 0.26646 0.78226 0.0
C4889 C 0.06097 0.32137 0.79298 0.0
C4890 C 0.04861 0.34115 0.79682 0.0
C4891 C 0.05003 0.29963 0.79212 0.0
C4892 C 0.02649 0.29693 0.79527 0.0
C4893 C 0.01436 0.31665 0.79928 0.0
C4894 C 0.02517 0.33825 0.80007 0.0
C4895 C 0.01426 0.27389 0.79435 0.0
C4896 C 0.99302 0.27249 0.78776 0.0
C4897 C 0.0231 0.25338 0.79999 0.0
C4898 C 0.04449 0.25348 0.80784 0.0
C4899 C 0.04663 0.26803 0.81873 0.0
C4900 C 0.06699 0.26827 0.82598 0.0
C4901 C 0.08526 0.25387 0.82251 0.0
C4902 C 0.08317 0.23915 0.8118 0.0
C4903 C 0.06286 0.23888 0.8045 0.0
H4904 H 0.10101 0.25409 0.82813 0.0
H4905 H 0.90226 0.25166 0.75891 0.0
H4906 H 0.5765 0.18772 0.56477 0.0
H4907 H 0.54065 0.20974 0.56537 0.0
H4908 H 0.55633 0.23847 0.52764 0.0
H4909 H 0.59314 0.21762 0.5276 0.0
H4910 H 0.53755 0.27014 0.53983 0.0
H4911 H 0.51303 0.19176 0.53489 0.0
H4912 H 0.51137 0.15048 0.54051 0.0
H4913 H 0.48368 0.16727 0.57811 0.0
H4914 H 0.48546 0.20866 0.57277 0.0
H4915 H 0.42243 0.31586 0.53262 0.0
H4916 H 0.45918 0.2953 0.53011 0.0
H4917 H 0.44957 0.26417 0.5679 0.0
H4918 H 0.41242 0.28352 0.5699 0.0
H4919 H 0.46497 0.23316 0.55397 0.0
H4920 H 0.49101 0.31262 0.5584 0.0
H4921 H 0.49319 0.35353 0.55199 0.0
H4922 H 0.51756 0.334 0.51407 0.0
H4923 H 0.51526 0.29299 0.52021 0.0
C4924 C 0.57218 0.19858 0.55656 0.0
C4925 C 0.58758 0.2006 0.54604 0.0
C4926 C 0.55148 0.21116 0.55684 0.0
C4927 C 0.54495 0.2255 0.54636 0.0
C4928 C 0.56052 0.22759 0.53587 0.0
C4929 C 0.5816 0.21553 0.53579 0.0
C4930 C 0.52223 0.23846 0.54643 0.0
C4931 C 0.52168 0.26185 0.54277 0.0
C4932 C 0.50117 0.22816 0.55037 0.0
C4933 C 0.49954 0.20329 0.55346 0.0
C4934 C 0.50665 0.18663 0.54436 0.0
C4935 C 0.5057 0.16323 0.5475 0.0
C4936 C 0.49747 0.15626 0.55967 0.0
C4937 C 0.49007 0.17269 0.5687 0.0
C4938 C 0.49102 0.19612 0.56561 0.0
C4939 C 0.42832 0.30473 0.54039 0.0
C4940 C 0.4144 0.30131 0.55143 0.0
C4941 C 0.44952 0.29301 0.53902 0.0
C4942 C 0.45781 0.27815 0.54889 0.0
C4943 C 0.44392 0.27523 0.56003 0.0
C4944 C 0.42258 0.28642 0.56122 0.0
C4945 C 0.48034 0.26502 0.54768 0.0
C4946 C 0.48084 0.24149 0.55105 0.0
C4947 C 0.50126 0.27515 0.54335 0.0
C4948 C 0.50275 0.29978 0.53973 0.0
C4949 C 0.49671 0.31707 0.54868 0.0
C4950 C 0.49798 0.34027 0.54509 0.0
C4951 C 0.50545 0.34635 0.53262 0.0
C4952 C 0.51174 0.32926 0.52372 0.0
C4953 C 0.51047 0.30605 0.52725 0.0
H4954 H 0.50641 0.36432 0.52987 0.0
H4955 H 0.49681 0.13813 0.56209 0.0
H4956 H 0.5167 0.85106 0.29969 0.0
H4957 H 0.49723 0.8138 0.29889 0.0
H4958 H 0.56171 0.78041 0.29038 0.0
H4959 H 0.58144 0.81798 0.29123 0.0
H4960 H 0.5252 0.76498 0.27418 0.0
H4961 H 0.53859 0.77539 0.32016 0.0
H4962 H 0.53681 0.7963 0.34105 0.0
H4963 H 0.46307 0.79775 0.33884 0.0
H4964 H 0.46441 0.77709 0.31784 0.0
H4965 H 0.48713 0.64959 0.28246 0.0
H4966 H 0.50658 0.68664 0.28293 0.0
H4967 H 0.44645 0.71789 0.30001 0.0
H4968 H 0.42723 0.68048 0.30022 0.0
H4969 H 0.48084 0.735 0.31176 0.0
H4970 H 0.46539 0.72664 0.26653 0.0
H4971 H 0.46464 0.70832 0.24486 0.0
H4972 H 0.53846 0.7058 0.24448 0.0
H4973 H 0.53965 0.72388 0.26623 0.0
C4974 C 0.52683 0.83588 0.29759 0.0
C4975 C 0.55074 0.83774 0.29543 0.0
C4976 C 0.51562 0.81442 0.29722 0.0
C4977 C 0.52785 0.79403 0.29461 0.0
C4978 C 0.55175 0.79577 0.29242 0.0
C4979 C 0.56309 0.81728 0.29297 0.0
C4980 C 0.51558 0.7711 0.29409 0.0
C4981 C 0.51583 0.75824 0.28247 0.0
C4982 C 0.50245 0.76254 0.3047 0.0
C4983 C 0.50161 0.77486 0.31736 0.0
C4984 C 0.522 0.78032 0.32408 0.0
C4985 C 0.52106 0.79209 0.33595 0.0
C4986 C 0.49984 0.79838 0.34126 0.0
C4987 C 0.4795 0.79287 0.33471 0.0
C4988 C 0.48033 0.78111 0.32283 0.0
C4989 C 0.47788 0.6642 0.28636 0.0
C4990 C 0.45539 0.66153 0.29133 0.0
C4991 C 0.48907 0.68571 0.28647 0.0
C4992 C 0.47812 0.70558 0.29135 0.0
C4993 C 0.45553 0.70308 0.29616 0.0
C4994 C 0.44435 0.68149 0.29615 0.0
C4995 C 0.49047 0.7286 0.29181 0.0
C4996 C 0.49021 0.74158 0.30343 0.0
C4997 C 0.50321 0.73751 0.2811 0.0
C4998 C 0.50259 0.72639 0.26808 0.0
C4999 C 0.48146 0.72199 0.26188 0.0
C5000 C 0.48096 0.71169 0.24957 0.0
C5001 C 0.50149 0.70583 0.24332 0.0
C5002 C 0.52257 0.71031 0.24935 0.0
C5003 C 0.52317 0.7206 0.26166 0.0
H5004 H 0.50106 0.69788 0.23378 0.0
H5005 H 0.49915 0.80748 0.35045 0.0
H5006 H 0.91561 0.79908 0.06498 0.0
H5007 H 0.94955 0.77388 0.06553 0.0
H5008 H 0.96685 0.79455 0.0264 0.0
H5009 H 0.93309 0.81931 0.02578 0.0
H5010 H 0.97372 0.75155 0.02757 0.0
H5011 H 0.9967 0.81369 0.05502 0.0
H5012 H 0.9939 0.84116 0.07328 0.0
H5013 H 0.99464 0.78512 0.10055 0.0
H5014 H 0.99715 0.75727 0.08243 0.0
H5015 H 0.08954 0.71172 0.02594 0.0
H5016 H 0.05471 0.7348 0.02644 0.0
H5017 H 0.03754 0.70678 0.06404 0.0
H5018 H 0.07249 0.6832 0.0636 0.0
H5019 H 0.02985 0.75199 0.06393 0.0
H5020 H 0.00967 0.69013 0.03468 0.0
H5021 H 0.01411 0.66501 0.01546 0.0
H5022 H 0.01038 0.72391 0.99028 0.0
H5023 H 0.00624 0.74943 0.00935 0.0
C5024 C 0.92679 0.79847 0.05656 0.0
C5025 C 0.92139 0.81134 0.04534 0.0
C5026 C 0.9463 0.78398 0.05686 0.0
C5027 C 0.96117 0.78222 0.04602 0.0
C5028 C 0.95582 0.79526 0.03489 0.0
C5029 C 0.93635 0.80954 0.03456 0.0
C5030 C 0.98215 0.7668 0.04611 0.0
C5031 C 0.98607 0.75191 0.03549 0.0
C5032 C 0.99838 0.76674 0.05645 0.0
C5033 C 0.99685 0.78339 0.06737 0.0
C5034 C 0.99608 0.80721 0.06491 0.0
C5035 C 0.99458 0.82286 0.07523 0.0
C5036 C 0.99403 0.81489 0.08807 0.0
C5037 C 0.99503 0.79126 0.09061 0.0
C5038 C 0.9965 0.77554 0.08031 0.0
C5039 C 0.07838 0.71002 0.03429 0.0
C5040 C 0.08414 0.69514 0.04469 0.0
C5041 C 0.05824 0.72341 0.03455 0.0
C5042 C 0.043 0.7224 0.04516 0.0
C5043 C 0.0488 0.70788 0.05566 0.0
C5044 C 0.06897 0.69438 0.05541 0.0
C5045 C 0.02139 0.73682 0.04541 0.0
C5046 C 0.01739 0.75155 0.05607 0.0
C5047 C 0.00534 0.73708 0.03497 0.0
C5048 C 0.00786 0.72172 0.02348 0.0
C5049 C 0.00998 0.69775 0.02505 0.0
C5050 C 0.01241 0.68344 0.01418 0.0
C5051 C 0.01258 0.69286 0.00166 0.0
C5052 C 0.01028 0.71663 -2e-05 0.0
C5053 C 0.00787 0.73103 0.01082 0.0
H5054 H 0.01446 0.68175 -0.00674 0.0
H5055 H 0.99289 0.82703 0.09605 0.0
loop_
_geom_bond_atom_site_label_1
_geom_bond_atom_site_label_2
_geom_bond_distance
_geom_bond_site_symmetry_2
_ccdc_geom_bond_type
C0 C1 1.351 . S
C0 N3 1.368 . S
C0 H5 0.931 . S
C1 C0 1.351 . S
C1 N2 1.373 . S
C1 H29 0.930 . S
N2 C1 1.373 . S
N2 C4 1.340 . S
N3 C0 1.368 . S
N3 C4 1.321 . S
N3 Co6 2.135 . S
C4 N2 1.340 . S
C4 N3 1.321 . S
C4 H28 0.930 . S
H5 C0 0.931 . S
Co6 N3 2.135 . S
Co6 N9 2.121 . S
Co6 O14 2.055 . S
Co6 O17 2.039 . S
Co6 N20 2.140 . S
C7 O8 1.227 . S
C7 O17 1.265 . S
O8 C7 1.227 . S
N9 Co6 2.121 . S
N9 C11 1.375 . S
N9 C12 1.313 . S
C10 C11 1.338 . S
C10 N13 1.377 . S
C10 H30 0.930 . S
C11 N9 1.375 . S
C11 C10 1.338 . S
C11 H15 0.931 . S
C12 N9 1.313 . S
C12 N13 1.344 . S
C12 H16 0.930 . S
N13 C10 1.377 . S
N13 C12 1.344 . S
O14 Co6 2.055 . S
O14 C18 1.253 . S
H15 C11 0.931 . S
H16 C12 0.930 . S
O17 Co6 2.039 . S
O17 C7 1.265 . S
C18 O14 1.253 . S
C18 O19 1.227 . S
O19 C18 1.227 . S
N20 Co6 2.140 . S
N20 C23 1.346 . S
N20 C24 1.345 . S
C21 C22 1.387 . S
C21 C25 1.391 . S
C22 C21 1.387 . S
C22 C23 1.369 . S
C22 H31 0.929 . S
C23 N20 1.346 . S
C23 C22 1.369 . S
C23 H26 0.928 . S
C24 N20 1.345 . S
C24 C25 1.371 . S
C24 H27 0.931 . S
C25 C21 1.391 . S
C25 C24 1.371 . S
C25 H32 0.930 . S
H26 C23 0.928 . S
H27 C24 0.931 . S
H28 C4 0.930 . S
H29 C1 0.930 . S
H30 C10 0.930 . S
H31 C22 0.929 . S
H32 C25 0.930 . S
C33 C34 1.351 . S
C33 N36 1.368 . S
C33 H38 0.931 . S
C34 C33 1.351 . S
C34 N35 1.373 . S
C34 H62 0.930 . S
N35 C34 1.373 . S
N35 C37 1.340 . S
N36 C33 1.368 . S
N36 C37 1.321 . S
N36 Co39 2.135 . S
C37 N35 1.340 . S
C37 N36 1.321 . S
C37 H61 0.930 . S
H38 C33 0.931 . S
Co39 N36 2.135 . S
Co39 N42 2.121 . S
Co39 O47 2.055 . S
Co39 O50 2.039 . S
Co39 N53 2.140 . S
C40 O41 1.227 . S
C40 O50 1.265 . S
O41 C40 1.227 . S
N42 Co39 2.121 . S
N42 C44 1.375 . S
N42 C45 1.313 . S
C43 C44 1.338 . S
C43 N46 1.377 . S
C43 H63 0.930 . S
C44 N42 1.375 . S
C44 C43 1.338 . S
C44 H48 0.931 . S
C45 N42 1.313 . S
C45 N46 1.344 . S
C45 H49 0.930 . S
N46 C43 1.377 . S
N46 C45 1.344 . S
O47 Co39 2.055 . S
O47 C51 1.253 . S
H48 C44 0.931 . S
H49 C45 0.930 . S
O50 Co39 2.039 . S
O50 C40 1.265 . S
C51 O47 1.253 . S
C51 O52 1.227 . S
O52 C51 1.227 . S
N53 Co39 2.140 . S
N53 C56 1.346 . S
N53 C57 1.345 . S
C54 C55 1.387 . S
C54 C58 1.391 . S
C55 C54 1.387 . S
C55 C56 1.369 . S
C55 H64 0.929 . S
C56 N53 1.346 . S
C56 C55 1.369 . S
C56 H59 0.928 . S
C57 N53 1.345 . S
C57 C58 1.371 . S
C57 H60 0.931 . S
C58 C54 1.391 . S
C58 C57 1.371 . S
C58 H65 0.930 . S
H59 C56 0.928 . S
H60 C57 0.931 . S
H61 C37 0.930 . S
H62 C34 0.930 . S
H63 C43 0.930 . S
H64 C55 0.929 . S
H65 C58 0.930 . S
C66 C67 1.351 . S
C66 N69 1.368 . S
C66 H71 0.931 . S
C67 C66 1.351 . S
C67 N68 1.373 . S
C67 H95 0.930 . S
N68 C67 1.373 . S
N68 C70 1.340 . S
N69 C66 1.368 . S
N69 C70 1.321 . S
N69 Co72 2.135 . S
C70 N68 1.340 . S
C70 N69 1.321 . S
C70 H94 0.930 . S
H71 C66 0.931 . S
Co72 N69 2.135 . S
Co72 N75 2.121 . S
Co72 O80 2.055 . S
Co72 O83 2.039 . S
Co72 N86 2.140 . S
C73 O74 1.227 . S
C73 O83 1.265 . S
O74 C73 1.227 . S
N75 Co72 2.121 . S
N75 C77 1.375 . S
N75 C78 1.313 . S
C76 C77 1.338 . S
C76 N79 1.377 . S
C76 H96 0.930 . S
C77 N75 1.375 . S
C77 C76 1.338 . S
C77 H81 0.931 . S
C78 N75 1.313 . S
C78 N79 1.344 . S
C78 H82 0.930 . S
N79 C76 1.377 . S
N79 C78 1.344 . S
O80 Co72 2.055 . S
O80 C84 1.253 . S
H81 C77 0.931 . S
H82 C78 0.930 . S
O83 Co72 2.039 . S
O83 C73 1.265 . S
C84 O80 1.253 . S
C84 O85 1.227 . S
O85 C84 1.227 . S
N86 Co72 2.140 . S
N86 C89 1.346 . S
N86 C90 1.345 . S
C87 C88 1.387 . S
C87 C91 1.391 . S
C88 C87 1.387 . S
C88 C89 1.369 . S
C88 H97 0.929 . S
C89 N86 1.346 . S
C89 C88 1.369 . S
C89 H92 0.928 . S
C90 N86 1.345 . S
C90 C91 1.371 . S
C90 H93 0.931 . S
C91 C87 1.391 . S
C91 C90 1.371 . S
C91 H98 0.930 . S
H92 C89 0.928 . S
H93 C90 0.931 . S
H94 C70 0.930 . S
H95 C67 0.930 . S
H96 C76 0.930 . S
H97 C88 0.929 . S
H98 C91 0.930 . S
C99 C100 1.351 . S
C99 N102 1.368 . S
C99 H104 0.931 . S
C100 C99 1.351 . S
C100 N101 1.373 . S
C100 H128 0.930 . S
N101 C100 1.373 . S
N101 C103 1.340 . S
N102 C99 1.368 . S
N102 C103 1.321 . S
N102 Co105 2.135 . S
C103 N101 1.340 . S
C103 N102 1.321 . S
C103 H127 0.930 . S
H104 C99 0.931 . S
Co105 N102 2.135 . S
Co105 N108 2.121 . S
Co105 O113 2.055 . S
Co105 O116 2.039 . S
Co105 N119 2.140 . S
C106 O107 1.227 . S
C106 O116 1.265 . S
O107 C106 1.227 . S
N108 Co105 2.121 . S
N108 C110 1.375 . S
N108 C111 1.313 . S
C109 C110 1.338 . S
C109 N112 1.377 . S
C109 H129 0.930 . S
C110 N108 1.375 . S
C110 C109 1.338 . S
C110 H114 0.931 . S
C111 N108 1.313 . S
C111 N112 1.344 . S
C111 H115 0.930 . S
N112 C109 1.377 . S
N112 C111 1.344 . S
O113 Co105 2.055 . S
O113 C117 1.253 . S
H114 C110 0.931 . S
H115 C111 0.930 . S
O116 Co105 2.039 . S
O116 C106 1.265 . S
C117 O113 1.253 . S
C117 O118 1.227 . S
O118 C117 1.227 . S
N119 Co105 2.140 . S
N119 C122 1.346 . S
N119 C123 1.345 . S
C120 C121 1.387 . S
C120 C124 1.391 . S
C121 C120 1.387 . S
C121 C122 1.369 . S
C121 H130 0.929 . S
C122 N119 1.346 . S
C122 C121 1.369 . S
C122 H125 0.928 . S
C123 N119 1.345 . S
C123 C124 1.371 . S
C123 H126 0.931 . S
C124 C120 1.391 . S
C124 C123 1.371 . S
C124 H131 0.930 . S
H125 C122 0.928 . S
H126 C123 0.931 . S
H127 C103 0.930 . S
H128 C100 0.930 . S
H129 C109 0.930 . S
H130 C121 0.929 . S
H131 C124 0.930 . S
C132 C133 1.351 . S
C132 N135 1.368 . S
C132 H137 0.931 . S
C133 C132 1.351 . S
C133 N134 1.373 . S
C133 H161 0.930 . S
N134 C133 1.373 . S
N134 C136 1.340 . S
N135 C132 1.368 . S
N135 C136 1.321 . S
N135 Co138 2.135 . S
C136 N134 1.340 . S
C136 N135 1.321 . S
C136 H160 0.930 . S
H137 C132 0.931 . S
Co138 N135 2.135 . S
Co138 N141 2.121 . S
Co138 O146 2.055 . S
Co138 O149 2.039 . S
Co138 N152 2.140 . S
C139 O140 1.227 . S
C139 O149 1.265 . S
O140 C139 1.227 . S
N141 Co138 2.121 . S
N141 C143 1.375 . S
N141 C144 1.313 . S
C142 C143 1.338 . S
C142 N145 1.377 . S
C142 H162 0.930 . S
C143 N141 1.375 . S
C143 C142 1.338 . S
C143 H147 0.931 . S
C144 N141 1.313 . S
C144 N145 1.344 . S
C144 H148 0.930 . S
N145 C142 1.377 . S
N145 C144 1.344 . S
O146 Co138 2.055 . S
O146 C150 1.253 . S
H147 C143 0.931 . S
H148 C144 0.930 . S
O149 Co138 2.039 . S
O149 C139 1.265 . S
C150 O146 1.253 . S
C150 O151 1.227 . S
O151 C150 1.227 . S
N152 Co138 2.140 . S
N152 C155 1.346 . S
N152 C156 1.345 . S
C153 C154 1.387 . S
C153 C157 1.391 . S
C154 C153 1.387 . S
C154 C155 1.369 . S
C154 H163 0.929 . S
C155 N152 1.346 . S
C155 C154 1.369 . S
C155 H158 0.928 . S
C156 N152 1.345 . S
C156 C157 1.371 . S
C156 H159 0.931 . S
C157 C153 1.391 . S
C157 C156 1.371 . S
C157 H164 0.930 . S
H158 C155 0.928 . S
H159 C156 0.931 . S
H160 C136 0.930 . S
H161 C133 0.930 . S
H162 C142 0.930 . S
H163 C154 0.929 . S
H164 C157 0.930 . S
C165 C166 1.351 . S
C165 N168 1.368 . S
C165 H170 0.931 . S
C166 C165 1.351 . S
C166 N167 1.373 . S
C166 H194 0.930 . S
N167 C166 1.373 . S
N167 C169 1.340 . S
N168 C165 1.368 . S
N168 C169 1.321 . S
N168 Co171 2.135 . S
C169 N167 1.340 . S
C169 N168 1.321 . S
C169 H193 0.930 . S
H170 C165 0.931 . S
Co171 N168 2.135 . S
Co171 N174 2.121 . S
Co171 O179 2.055 . S
Co171 O182 2.039 . S
Co171 N185 2.140 . S
C172 O173 1.227 . S
C172 O182 1.265 . S
O173 C172 1.227 . S
N174 Co171 2.121 . S
N174 C176 1.375 . S
N174 C177 1.313 . S
C175 C176 1.338 . S
C175 N178 1.377 . S
C175 H195 0.930 . S
C176 N174 1.375 . S
C176 C175 1.338 . S
C176 H180 0.931 . S
C177 N174 1.313 . S
C177 N178 1.344 . S
C177 H181 0.930 . S
N178 C175 1.377 . S
N178 C177 1.344 . S
O179 Co171 2.055 . S
O179 C183 1.253 . S
H180 C176 0.931 . S
H181 C177 0.930 . S
O182 Co171 2.039 . S
O182 C172 1.265 . S
C183 O179 1.253 . S
C183 O184 1.227 . S
O184 C183 1.227 . S
N185 Co171 2.140 . S
N185 C188 1.346 . S
N185 C189 1.345 . S
C186 C187 1.387 . S
C186 C190 1.391 . S
C187 C186 1.387 . S
C187 C188 1.369 . S
C187 H196 0.929 . S
C188 N185 1.346 . S
C188 C187 1.369 . S
C188 H191 0.928 . S
C189 N185 1.345 . S
C189 C190 1.371 . S
C189 H192 0.931 . S
C190 C186 1.391 . S
C190 C189 1.371 . S
C190 H197 0.930 . S
H191 C188 0.928 . S
H192 C189 0.931 . S
H193 C169 0.930 . S
H194 C166 0.930 . S
H195 C175 0.930 . S
H196 C187 0.929 . S
H197 C190 0.930 . S
C198 C199 1.351 . S
C198 N201 1.368 . S
C198 H203 0.931 . S
C199 C198 1.351 . S
C199 N200 1.373 . S
C199 H227 0.930 . S
N200 C199 1.373 . S
N200 C202 1.340 . S
N201 C198 1.368 . S
N201 C202 1.321 . S
N201 Co204 2.135 . S
C202 N200 1.340 . S
C202 N201 1.321 . S
C202 H226 0.930 . S
H203 C198 0.931 . S
Co204 N201 2.135 . S
Co204 N207 2.121 . S
Co204 O212 2.055 . S
Co204 O215 2.039 . S
Co204 N218 2.140 . S
C205 O206 1.227 . S
C205 O215 1.265 . S
O206 C205 1.227 . S
N207 Co204 2.121 . S
N207 C209 1.375 . S
N207 C210 1.313 . S
C208 C209 1.338 . S
C208 N211 1.377 . S
C208 H228 0.930 . S
C209 N207 1.375 . S
C209 C208 1.338 . S
C209 H213 0.931 . S
C210 N207 1.313 . S
C210 N211 1.344 . S
C210 H214 0.930 . S
N211 C208 1.377 . S
N211 C210 1.344 . S
O212 Co204 2.055 . S
O212 C216 1.253 . S
H213 C209 0.931 . S
H214 C210 0.930 . S
O215 Co204 2.039 . S
O215 C205 1.265 . S
C216 O212 1.253 . S
C216 O217 1.227 . S
O217 C216 1.227 . S
N218 Co204 2.140 . S
N218 C221 1.346 . S
N218 C222 1.345 . S
C219 C220 1.387 . S
C219 C223 1.391 . S
C220 C219 1.387 . S
C220 C221 1.369 . S
C220 H229 0.929 . S
C221 N218 1.346 . S
C221 C220 1.369 . S
C221 H224 0.928 . S
C222 N218 1.345 . S
C222 C223 1.371 . S
C222 H225 0.931 . S
C223 C219 1.391 . S
C223 C222 1.371 . S
C223 H230 0.930 . S
H224 C221 0.928 . S
H225 C222 0.931 . S
H226 C202 0.930 . S
H227 C199 0.930 . S
H228 C208 0.930 . S
H229 C220 0.929 . S
H230 C223 0.930 . S
C231 C232 1.351 . S
C231 N234 1.368 . S
C231 H236 0.931 . S
C232 C231 1.351 . S
C232 N233 1.373 . S
C232 H260 0.930 . S
N233 C232 1.373 . S
N233 C235 1.340 . S
N234 C231 1.368 . S
N234 C235 1.321 . S
N234 Co237 2.135 . S
C235 N233 1.340 . S
C235 N234 1.321 . S
C235 H259 0.930 . S
H236 C231 0.931 . S
Co237 N234 2.135 . S
Co237 N240 2.121 . S
Co237 O245 2.055 . S
Co237 O248 2.039 . S
Co237 N251 2.140 . S
C238 O239 1.227 . S
C238 O248 1.265 . S
O239 C238 1.227 . S
N240 Co237 2.121 . S
N240 C242 1.375 . S
N240 C243 1.313 . S
C241 C242 1.338 . S
C241 N244 1.377 . S
C241 H261 0.930 . S
C242 N240 1.375 . S
C242 C241 1.338 . S
C242 H246 0.931 . S
C243 N240 1.313 . S
C243 N244 1.344 . S
C243 H247 0.930 . S
N244 C241 1.377 . S
N244 C243 1.344 . S
O245 Co237 2.055 . S
O245 C249 1.253 . S
H246 C242 0.931 . S
H247 C243 0.930 . S
O248 Co237 2.039 . S
O248 C238 1.265 . S
C249 O245 1.253 . S
C249 O250 1.227 . S
O250 C249 1.227 . S
N251 Co237 2.140 . S
N251 C254 1.346 . S
N251 C255 1.345 . S
C252 C253 1.387 . S
C252 C256 1.391 . S
C253 C252 1.387 . S
C253 C254 1.369 . S
C253 H262 0.929 . S
C254 N251 1.346 . S
C254 C253 1.369 . S
C254 H257 0.928 . S
C255 N251 1.345 . S
C255 C256 1.371 . S
C255 H258 0.931 . S
C256 C252 1.391 . S
C256 C255 1.371 . S
C256 H263 0.930 . S
H257 C254 0.928 . S
H258 C255 0.931 . S
H259 C235 0.930 . S
H260 C232 0.930 . S
H261 C241 0.930 . S
H262 C253 0.929 . S
H263 C256 0.930 . S
C264 C265 1.351 . S
C264 N267 1.368 . S
C264 H269 0.931 . S
C265 C264 1.351 . S
C265 N266 1.373 . S
C265 H293 0.930 . S
N266 C265 1.373 . S
N266 C268 1.340 . S
N267 C264 1.368 . S
N267 C268 1.321 . S
N267 Co270 2.135 . S
C268 N266 1.340 . S
C268 N267 1.321 . S
C268 H292 0.930 . S
H269 C264 0.931 . S
Co270 N267 2.135 . S
Co270 N273 2.121 . S
Co270 O278 2.055 . S
Co270 O281 2.039 . S
Co270 N284 2.140 . S
C271 O272 1.227 . S
C271 O281 1.265 . S
O272 C271 1.227 . S
N273 Co270 2.121 . S
N273 C275 1.375 . S
N273 C276 1.313 . S
C274 C275 1.338 . S
C274 N277 1.377 . S
C274 H294 0.930 . S
C275 N273 1.375 . S
C275 C274 1.338 . S
C275 H279 0.931 . S
C276 N273 1.313 . S
C276 N277 1.344 . S
C276 H280 0.930 . S
N277 C274 1.377 . S
N277 C276 1.344 . S
O278 Co270 2.055 . S
O278 C282 1.253 . S
H279 C275 0.931 . S
H280 C276 0.930 . S
O281 Co270 2.039 . S
O281 C271 1.265 . S
C282 O278 1.253 . S
C282 O283 1.227 . S
O283 C282 1.227 . S
N284 Co270 2.140 . S
N284 C287 1.346 . S
N284 C288 1.345 . S
C285 C286 1.387 . S
C285 C289 1.391 . S
C286 C285 1.387 . S
C286 C287 1.369 . S
C286 H295 0.929 . S
C287 N284 1.346 . S
C287 C286 1.369 . S
C287 H290 0.928 . S
C288 N284 1.345 . S
C288 C289 1.371 . S
C288 H291 0.931 . S
C289 C285 1.391 . S
C289 C288 1.371 . S
C289 H296 0.930 . S
H290 C287 0.928 . S
H291 C288 0.931 . S
H292 C268 0.930 . S
H293 C265 0.930 . S
H294 C274 0.930 . S
H295 C286 0.929 . S
H296 C289 0.930 . S
C297 C298 1.351 . S
C297 N300 1.368 . S
C297 H302 0.931 . S
C298 C297 1.351 . S
C298 N299 1.373 . S
C298 H326 0.930 . S
N299 C298 1.373 . S
N299 C301 1.340 . S
N300 C297 1.368 . S
N300 C301 1.321 . S
N300 Co303 2.135 . S
C301 N299 1.340 . S
C301 N300 1.321 . S
C301 H325 0.930 . S
H302 C297 0.931 . S
Co303 N300 2.135 . S
Co303 N306 2.121 . S
Co303 O311 2.055 . S
Co303 O314 2.039 . S
Co303 N317 2.140 . S
C304 O305 1.227 . S
C304 O314 1.265 . S
O305 C304 1.227 . S
N306 Co303 2.121 . S
N306 C308 1.375 . S
N306 C309 1.313 . S
C307 C308 1.338 . S
C307 N310 1.377 . S
C307 H327 0.930 . S
C308 N306 1.375 . S
C308 C307 1.338 . S
C308 H312 0.931 . S
C309 N306 1.313 . S
C309 N310 1.344 . S
C309 H313 0.930 . S
N310 C307 1.377 . S
N310 C309 1.344 . S
O311 Co303 2.055 . S
O311 C315 1.253 . S
H312 C308 0.931 . S
H313 C309 0.930 . S
O314 Co303 2.039 . S
O314 C304 1.265 . S
C315 O311 1.253 . S
C315 O316 1.227 . S
O316 C315 1.227 . S
N317 Co303 2.140 . S
N317 C320 1.346 . S
N317 C321 1.345 . S
C318 C319 1.387 . S
C318 C322 1.391 . S
C319 C318 1.387 . S
C319 C320 1.369 . S
C319 H328 0.929 . S
C320 N317 1.346 . S
C320 C319 1.369 . S
C320 H323 0.928 . S
C321 N317 1.345 . S
C321 C322 1.371 . S
C321 H324 0.931 . S
C322 C318 1.391 . S
C322 C321 1.371 . S
C322 H329 0.930 . S
H323 C320 0.928 . S
H324 C321 0.931 . S
H325 C301 0.930 . S
H326 C298 0.930 . S
H327 C307 0.930 . S
H328 C319 0.929 . S
H329 C322 0.930 . S
C330 C331 1.351 . S
C330 N333 1.368 . S
C330 H335 0.931 . S
C331 C330 1.351 . S
C331 N332 1.373 . S
C331 H359 0.930 . S
N332 C331 1.373 . S
N332 C334 1.340 . S
N333 C330 1.368 . S
N333 C334 1.321 . S
N333 Co336 2.135 . S
C334 N332 1.340 . S
C334 N333 1.321 . S
C334 H358 0.930 . S
H335 C330 0.931 . S
Co336 N333 2.135 . S
Co336 N339 2.121 . S
Co336 O344 2.055 . S
Co336 O347 2.039 . S
Co336 N350 2.140 . S
C337 O338 1.227 . S
C337 O347 1.265 . S
O338 C337 1.227 . S
N339 Co336 2.121 . S
N339 C341 1.375 . S
N339 C342 1.313 . S
C340 C341 1.338 . S
C340 N343 1.377 . S
C340 H360 0.930 . S
C341 N339 1.375 . S
C341 C340 1.338 . S
C341 H345 0.931 . S
C342 N339 1.313 . S
C342 N343 1.344 . S
C342 H346 0.930 . S
N343 C340 1.377 . S
N343 C342 1.344 . S
O344 Co336 2.055 . S
O344 C348 1.253 . S
H345 C341 0.931 . S
H346 C342 0.930 . S
O347 Co336 2.039 . S
O347 C337 1.265 . S
C348 O344 1.253 . S
C348 O349 1.227 . S
O349 C348 1.227 . S
N350 Co336 2.140 . S
N350 C353 1.346 . S
N350 C354 1.345 . S
C351 C352 1.387 . S
C351 C355 1.391 . S
C352 C351 1.387 . S
C352 C353 1.369 . S
C352 H361 0.929 . S
C353 N350 1.346 . S
C353 C352 1.369 . S
C353 H356 0.928 . S
C354 N350 1.345 . S
C354 C355 1.371 . S
C354 H357 0.931 . S
C355 C351 1.391 . S
C355 C354 1.371 . S
C355 H362 0.930 . S
H356 C353 0.928 . S
H357 C354 0.931 . S
H358 C334 0.930 . S
H359 C331 0.930 . S
H360 C340 0.930 . S
H361 C352 0.929 . S
H362 C355 0.930 . S
C363 C364 1.351 . S
C363 N366 1.368 . S
C363 H368 0.931 . S
C364 C363 1.351 . S
C364 N365 1.373 . S
C364 H392 0.930 . S
N365 C364 1.373 . S
N365 C367 1.340 . S
N366 C363 1.368 . S
N366 C367 1.321 . S
N366 Co369 2.135 . S
C367 N365 1.340 . S
C367 N366 1.321 . S
C367 H391 0.930 . S
H368 C363 0.931 . S
Co369 N366 2.135 . S
Co369 N372 2.121 . S
Co369 O377 2.055 . S
Co369 O380 2.039 . S
Co369 N383 2.140 . S
C370 O371 1.227 . S
C370 O380 1.265 . S
O371 C370 1.227 . S
N372 Co369 2.121 . S
N372 C374 1.375 . S
N372 C375 1.313 . S
C373 C374 1.338 . S
C373 N376 1.377 . S
C373 H393 0.930 . S
C374 N372 1.375 . S
C374 C373 1.338 . S
C374 H378 0.931 . S
C375 N372 1.313 . S
C375 N376 1.344 . S
C375 H379 0.930 . S
N376 C373 1.377 . S
N376 C375 1.344 . S
O377 Co369 2.055 . S
O377 C381 1.253 . S
H378 C374 0.931 . S
H379 C375 0.930 . S
O380 Co369 2.039 . S
O380 C370 1.265 . S
C381 O377 1.253 . S
C381 O382 1.227 . S
O382 C381 1.227 . S
N383 Co369 2.140 . S
N383 C386 1.346 . S
N383 C387 1.345 . S
C384 C385 1.387 . S
C384 C388 1.391 . S
C385 C384 1.387 . S
C385 C386 1.369 . S
C385 H394 0.929 . S
C386 N383 1.346 . S
C386 C385 1.369 . S
C386 H389 0.928 . S
C387 N383 1.345 . S
C387 C388 1.371 . S
C387 H390 0.931 . S
C388 C384 1.391 . S
C388 C387 1.371 . S
C388 H395 0.930 . S
H389 C386 0.928 . S
H390 C387 0.931 . S
H391 C367 0.930 . S
H392 C364 0.930 . S
H393 C373 0.930 . S
H394 C385 0.929 . S
H395 C388 0.930 . S
C396 C397 1.351 . S
C396 N399 1.368 . S
C396 H401 0.931 . S
C397 C396 1.351 . S
C397 N398 1.373 . S
C397 H425 0.930 . S
N398 C397 1.373 . S
N398 C400 1.340 . S
N399 C396 1.368 . S
N399 C400 1.321 . S
N399 Co402 2.135 . S
C400 N398 1.340 . S
C400 N399 1.321 . S
C400 H424 0.930 . S
H401 C396 0.931 . S
Co402 N399 2.135 . S
Co402 N405 2.121 . S
Co402 O410 2.055 . S
Co402 O413 2.039 . S
Co402 N416 2.140 . S
C403 O404 1.227 . S
C403 O413 1.265 . S
O404 C403 1.227 . S
N405 Co402 2.121 . S
N405 C407 1.375 . S
N405 C408 1.313 . S
C406 C407 1.338 . S
C406 N409 1.377 . S
C406 H426 0.930 . S
C407 N405 1.375 . S
C407 C406 1.338 . S
C407 H411 0.931 . S
C408 N405 1.313 . S
C408 N409 1.344 . S
C408 H412 0.930 . S
N409 C406 1.377 . S
N409 C408 1.344 . S
O410 Co402 2.055 . S
O410 C414 1.253 . S
H411 C407 0.931 . S
H412 C408 0.930 . S
O413 Co402 2.039 . S
O413 C403 1.265 . S
C414 O410 1.253 . S
C414 O415 1.227 . S
O415 C414 1.227 . S
N416 Co402 2.140 . S
N416 C419 1.346 . S
N416 C420 1.345 . S
C417 C418 1.387 . S
C417 C421 1.391 . S
C418 C417 1.387 . S
C418 C419 1.369 . S
C418 H427 0.929 . S
C419 N416 1.346 . S
C419 C418 1.369 . S
C419 H422 0.928 . S
C420 N416 1.345 . S
C420 C421 1.371 . S
C420 H423 0.931 . S
C421 C417 1.391 . S
C421 C420 1.371 . S
C421 H428 0.930 . S
H422 C419 0.928 . S
H423 C420 0.931 . S
H424 C400 0.930 . S
H425 C397 0.930 . S
H426 C406 0.930 . S
H427 C418 0.929 . S
H428 C421 0.930 . S
C429 C430 1.351 . S
C429 N432 1.368 . S
C429 H434 0.931 . S
C430 C429 1.351 . S
C430 N431 1.373 . S
C430 H458 0.930 . S
N431 C430 1.373 . S
N431 C433 1.340 . S
N432 C429 1.368 . S
N432 C433 1.321 . S
N432 Co435 2.135 . S
C433 N431 1.340 . S
C433 N432 1.321 . S
C433 H457 0.930 . S
H434 C429 0.931 . S
Co435 N432 2.135 . S
Co435 N438 2.121 . S
Co435 O443 2.055 . S
Co435 O446 2.039 . S
Co435 N449 2.140 . S
C436 O437 1.227 . S
C436 O446 1.265 . S
O437 C436 1.227 . S
N438 Co435 2.121 . S
N438 C440 1.375 . S
N438 C441 1.313 . S
C439 C440 1.338 . S
C439 N442 1.377 . S
C439 H459 0.930 . S
C440 N438 1.375 . S
C440 C439 1.338 . S
C440 H444 0.931 . S
C441 N438 1.313 . S
C441 N442 1.344 . S
C441 H445 0.930 . S
N442 C439 1.377 . S
N442 C441 1.344 . S
O443 Co435 2.055 . S
O443 C447 1.253 . S
H444 C440 0.931 . S
H445 C441 0.930 . S
O446 Co435 2.039 . S
O446 C436 1.265 . S
C447 O443 1.253 . S
C447 O448 1.227 . S
O448 C447 1.227 . S
N449 Co435 2.140 . S
N449 C452 1.346 . S
N449 C453 1.345 . S
C450 C451 1.387 . S
C450 C454 1.391 . S
C451 C450 1.387 . S
C451 C452 1.369 . S
C451 H460 0.929 . S
C452 N449 1.346 . S
C452 C451 1.369 . S
C452 H455 0.928 . S
C453 N449 1.345 . S
C453 C454 1.371 . S
C453 H456 0.931 . S
C454 C450 1.391 . S
C454 C453 1.371 . S
C454 H461 0.930 . S
H455 C452 0.928 . S
H456 C453 0.931 . S
H457 C433 0.930 . S
H458 C430 0.930 . S
H459 C439 0.930 . S
H460 C451 0.929 . S
H461 C454 0.930 . S
C462 C463 1.351 . S
C462 N465 1.368 . S
C462 H467 0.931 . S
C463 C462 1.351 . S
C463 N464 1.373 . S
C463 H491 0.930 . S
N464 C463 1.373 . S
N464 C466 1.340 . S
N465 C462 1.368 . S
N465 C466 1.321 . S
N465 Co468 2.135 . S
C466 N464 1.340 . S
C466 N465 1.321 . S
C466 H490 0.930 . S
H467 C462 0.931 . S
Co468 N465 2.135 . S
Co468 N471 2.121 . S
Co468 O476 2.055 . S
Co468 O479 2.039 . S
Co468 N482 2.140 . S
C469 O470 1.227 . S
C469 O479 1.265 . S
O470 C469 1.227 . S
N471 Co468 2.121 . S
N471 C473 1.375 . S
N471 C474 1.313 . S
C472 C473 1.338 . S
C472 N475 1.377 . S
C472 H492 0.930 . S
C473 N471 1.375 . S
C473 C472 1.338 . S
C473 H477 0.931 . S
C474 N471 1.313 . S
C474 N475 1.344 . S
C474 H478 0.930 . S
N475 C472 1.377 . S
N475 C474 1.344 . S
O476 Co468 2.055 . S
O476 C480 1.253 . S
H477 C473 0.931 . S
H478 C474 0.930 . S
O479 Co468 2.039 . S
O479 C469 1.265 . S
C480 O476 1.253 . S
C480 O481 1.227 . S
O481 C480 1.227 . S
N482 Co468 2.140 . S
N482 C485 1.346 . S
N482 C486 1.345 . S
C483 C484 1.387 . S
C483 C487 1.391 . S
C484 C483 1.387 . S
C484 C485 1.369 . S
C484 H493 0.929 . S
C485 N482 1.346 . S
C485 C484 1.369 . S
C485 H488 0.928 . S
C486 N482 1.345 . S
C486 C487 1.371 . S
C486 H489 0.931 . S
C487 C483 1.391 . S
C487 C486 1.371 . S
C487 H494 0.930 . S
H488 C485 0.928 . S
H489 C486 0.931 . S
H490 C466 0.930 . S
H491 C463 0.930 . S
H492 C472 0.930 . S
H493 C484 0.929 . S
H494 C487 0.930 . S
C495 C496 1.351 . S
C495 N498 1.368 . S
C495 H500 0.931 . S
C496 C495 1.351 . S
C496 N497 1.373 . S
C496 H524 0.930 . S
N497 C496 1.373 . S
N497 C499 1.340 . S
N498 C495 1.368 . S
N498 C499 1.321 . S
N498 Co501 2.135 . S
C499 N497 1.340 . S
C499 N498 1.321 . S
C499 H523 0.930 . S
H500 C495 0.931 . S
Co501 N498 2.135 . S
Co501 N504 2.121 . S
Co501 O509 2.055 . S
Co501 O512 2.039 . S
Co501 N515 2.140 . S
C502 O503 1.227 . S
C502 O512 1.265 . S
O503 C502 1.227 . S
N504 Co501 2.121 . S
N504 C506 1.375 . S
N504 C507 1.313 . S
C505 C506 1.338 . S
C505 N508 1.377 . S
C505 H525 0.930 . S
C506 N504 1.375 . S
C506 C505 1.338 . S
C506 H510 0.931 . S
C507 N504 1.313 . S
C507 N508 1.344 . S
C507 H511 0.930 . S
N508 C505 1.377 . S
N508 C507 1.344 . S
O509 Co501 2.055 . S
O509 C513 1.253 . S
H510 C506 0.931 . S
H511 C507 0.930 . S
O512 Co501 2.039 . S
O512 C502 1.265 . S
C513 O509 1.253 . S
C513 O514 1.227 . S
O514 C513 1.227 . S
N515 Co501 2.140 . S
N515 C518 1.346 . S
N515 C519 1.345 . S
C516 C517 1.387 . S
C516 C520 1.391 . S
C517 C516 1.387 . S
C517 C518 1.369 . S
C517 H526 0.929 . S
C518 N515 1.346 . S
C518 C517 1.369 . S
C518 H521 0.928 . S
C519 N515 1.345 . S
C519 C520 1.371 . S
C519 H522 0.931 . S
C520 C516 1.391 . S
C520 C519 1.371 . S
C520 H527 0.930 . S
H521 C518 0.928 . S
H522 C519 0.931 . S
H523 C499 0.930 . S
H524 C496 0.930 . S
H525 C505 0.930 . S
H526 C517 0.929 . S
H527 C520 0.930 . S
C528 C529 1.351 . S
C528 N531 1.368 . S
C528 H533 0.931 . S
C529 C528 1.351 . S
C529 N530 1.373 . S
C529 H557 0.930 . S
N530 C529 1.373 . S
N530 C532 1.340 . S
N531 C528 1.368 . S
N531 C532 1.321 . S
N531 Co534 2.135 . S
C532 N530 1.340 . S
C532 N531 1.321 . S
C532 H556 0.930 . S
H533 C528 0.931 . S
Co534 N531 2.135 . S
Co534 N537 2.121 . S
Co534 O542 2.055 . S
Co534 O545 2.039 . S
Co534 N548 2.140 . S
C535 O536 1.227 . S
C535 O545 1.265 . S
O536 C535 1.227 . S
N537 Co534 2.121 . S
N537 C539 1.375 . S
N537 C540 1.313 . S
C538 C539 1.338 . S
C538 N541 1.377 . S
C538 H558 0.930 . S
C539 N537 1.375 . S
C539 C538 1.338 . S
C539 H543 0.931 . S
C540 N537 1.313 . S
C540 N541 1.344 . S
C540 H544 0.930 . S
N541 C538 1.377 . S
N541 C540 1.344 . S
O542 Co534 2.055 . S
O542 C546 1.253 . S
H543 C539 0.931 . S
H544 C540 0.930 . S
O545 Co534 2.039 . S
O545 C535 1.265 . S
C546 O542 1.253 . S
C546 O547 1.227 . S
O547 C546 1.227 . S
N548 Co534 2.140 . S
N548 C551 1.346 . S
N548 C552 1.345 . S
C549 C550 1.387 . S
C549 C553 1.391 . S
C550 C549 1.387 . S
C550 C551 1.369 . S
C550 H559 0.929 . S
C551 N548 1.346 . S
C551 C550 1.369 . S
C551 H554 0.928 . S
C552 N548 1.345 . S
C552 C553 1.371 . S
C552 H555 0.931 . S
C553 C549 1.391 . S
C553 C552 1.371 . S
C553 H560 0.930 . S
H554 C551 0.928 . S
H555 C552 0.931 . S
H556 C532 0.930 . S
H557 C529 0.930 . S
H558 C538 0.930 . S
H559 C550 0.929 . S
H560 C553 0.930 . S
C561 C562 1.351 . S
C561 N564 1.368 . S
C561 H566 0.931 . S
C562 C561 1.351 . S
C562 N563 1.373 . S
C562 H590 0.930 . S
N563 C562 1.373 . S
N563 C565 1.340 . S
N564 C561 1.368 . S
N564 C565 1.321 . S
N564 Co567 2.135 . S
C565 N563 1.340 . S
C565 N564 1.321 . S
C565 H589 0.930 . S
H566 C561 0.931 . S
Co567 N564 2.135 . S
Co567 N570 2.121 . S
Co567 O575 2.055 . S
Co567 O578 2.039 . S
Co567 N581 2.140 . S
C568 O569 1.227 . S
C568 O578 1.265 . S
O569 C568 1.227 . S
N570 Co567 2.121 . S
N570 C572 1.375 . S
N570 C573 1.313 . S
C571 C572 1.338 . S
C571 N574 1.377 . S
C571 H591 0.930 . S
C572 N570 1.375 . S
C572 C571 1.338 . S
C572 H576 0.931 . S
C573 N570 1.313 . S
C573 N574 1.344 . S
C573 H577 0.930 . S
N574 C571 1.377 . S
N574 C573 1.344 . S
O575 Co567 2.055 . S
O575 C579 1.253 . S
H576 C572 0.931 . S
H577 C573 0.930 . S
O578 Co567 2.039 . S
O578 C568 1.265 . S
C579 O575 1.253 . S
C579 O580 1.227 . S
O580 C579 1.227 . S
N581 Co567 2.140 . S
N581 C584 1.346 . S
N581 C585 1.345 . S
C582 C583 1.387 . S
C582 C586 1.391 . S
C583 C582 1.387 . S
C583 C584 1.369 . S
C583 H592 0.929 . S
C584 N581 1.346 . S
C584 C583 1.369 . S
C584 H587 0.928 . S
C585 N581 1.345 . S
C585 C586 1.371 . S
C585 H588 0.931 . S
C586 C582 1.391 . S
C586 C585 1.371 . S
C586 H593 0.930 . S
H587 C584 0.928 . S
H588 C585 0.931 . S
H589 C565 0.930 . S
H590 C562 0.930 . S
H591 C571 0.930 . S
H592 C583 0.929 . S
H593 C586 0.930 . S
C594 C595 1.351 . S
C594 N597 1.368 . S
C594 H599 0.931 . S
C595 C594 1.351 . S
C595 N596 1.373 . S
C595 H623 0.930 . S
N596 C595 1.373 . S
N596 C598 1.340 . S
N597 C594 1.368 . S
N597 C598 1.321 . S
N597 Co600 2.135 . S
C598 N596 1.340 . S
C598 N597 1.321 . S
C598 H622 0.930 . S
H599 C594 0.931 . S
Co600 N597 2.135 . S
Co600 N603 2.121 . S
Co600 O608 2.055 . S
Co600 O611 2.039 . S
Co600 N614 2.140 . S
C601 O602 1.227 . S
C601 O611 1.265 . S
O602 C601 1.227 . S
N603 Co600 2.121 . S
N603 C605 1.375 . S
N603 C606 1.313 . S
C604 C605 1.338 . S
C604 N607 1.377 . S
C604 H624 0.930 . S
C605 N603 1.375 . S
C605 C604 1.338 . S
C605 H609 0.931 . S
C606 N603 1.313 . S
C606 N607 1.344 . S
C606 H610 0.930 . S
N607 C604 1.377 . S
N607 C606 1.344 . S
O608 Co600 2.055 . S
O608 C612 1.253 . S
H609 C605 0.931 . S
H610 C606 0.930 . S
O611 Co600 2.039 . S
O611 C601 1.265 . S
C612 O608 1.253 . S
C612 O613 1.227 . S
O613 C612 1.227 . S
N614 Co600 2.140 . S
N614 C617 1.346 . S
N614 C618 1.345 . S
C615 C616 1.387 . S
C615 C619 1.391 . S
C616 C615 1.387 . S
C616 C617 1.369 . S
C616 H625 0.929 . S
C617 N614 1.346 . S
C617 C616 1.369 . S
C617 H620 0.928 . S
C618 N614 1.345 . S
C618 C619 1.371 . S
C618 H621 0.931 . S
C619 C615 1.391 . S
C619 C618 1.371 . S
C619 H626 0.930 . S
H620 C617 0.928 . S
H621 C618 0.931 . S
H622 C598 0.930 . S
H623 C595 0.930 . S
H624 C604 0.930 . S
H625 C616 0.929 . S
H626 C619 0.930 . S
C627 C628 1.351 . S
C627 N630 1.368 . S
C627 H632 0.931 . S
C628 C627 1.351 . S
C628 N629 1.373 . S
C628 H656 0.930 . S
N629 C628 1.373 . S
N629 C631 1.340 . S
N630 C627 1.368 . S
N630 C631 1.321 . S
N630 Co633 2.135 . S
C631 N629 1.340 . S
C631 N630 1.321 . S
C631 H655 0.930 . S
H632 C627 0.931 . S
Co633 N630 2.135 . S
Co633 N636 2.121 . S
Co633 O641 2.055 . S
Co633 O644 2.039 . S
Co633 N647 2.140 . S
C634 O635 1.227 . S
C634 O644 1.265 . S
O635 C634 1.227 . S
N636 Co633 2.121 . S
N636 C638 1.375 . S
N636 C639 1.313 . S
C637 C638 1.338 . S
C637 N640 1.377 . S
C637 H657 0.930 . S
C638 N636 1.375 . S
C638 C637 1.338 . S
C638 H642 0.931 . S
C639 N636 1.313 . S
C639 N640 1.344 . S
C639 H643 0.930 . S
N640 C637 1.377 . S
N640 C639 1.344 . S
O641 Co633 2.055 . S
O641 C645 1.253 . S
H642 C638 0.931 . S
H643 C639 0.930 . S
O644 Co633 2.039 . S
O644 C634 1.265 . S
C645 O641 1.253 . S
C645 O646 1.227 . S
O646 C645 1.227 . S
N647 Co633 2.140 . S
N647 C650 1.346 . S
N647 C651 1.345 . S
C648 C649 1.387 . S
C648 C652 1.391 . S
C649 C648 1.387 . S
C649 C650 1.369 . S
C649 H658 0.929 . S
C650 N647 1.346 . S
C650 C649 1.369 . S
C650 H653 0.928 . S
C651 N647 1.345 . S
C651 C652 1.371 . S
C651 H654 0.931 . S
C652 C648 1.391 . S
C652 C651 1.371 . S
C652 H659 0.930 . S
H653 C650 0.928 . S
H654 C651 0.931 . S
H655 C631 0.930 . S
H656 C628 0.930 . S
H657 C637 0.930 . S
H658 C649 0.929 . S
H659 C652 0.930 . S
C660 C661 1.351 . S
C660 N663 1.368 . S
C660 H665 0.931 . S
C661 C660 1.351 . S
C661 N662 1.373 . S
C661 H689 0.930 . S
N662 C661 1.373 . S
N662 C664 1.340 . S
N663 C660 1.368 . S
N663 C664 1.321 . S
N663 Co666 2.135 . S
C664 N662 1.340 . S
C664 N663 1.321 . S
C664 H688 0.930 . S
H665 C660 0.931 . S
Co666 N663 2.135 . S
Co666 N669 2.121 . S
Co666 O674 2.055 . S
Co666 O677 2.039 . S
Co666 N680 2.140 . S
C667 O668 1.227 . S
C667 O677 1.265 . S
O668 C667 1.227 . S
N669 Co666 2.121 . S
N669 C671 1.375 . S
N669 C672 1.313 . S
C670 C671 1.338 . S
C670 N673 1.377 . S
C670 H690 0.930 . S
C671 N669 1.375 . S
C671 C670 1.338 . S
C671 H675 0.931 . S
C672 N669 1.313 . S
C672 N673 1.344 . S
C672 H676 0.930 . S
N673 C670 1.377 . S
N673 C672 1.344 . S
O674 Co666 2.055 . S
O674 C678 1.253 . S
H675 C671 0.931 . S
H676 C672 0.930 . S
O677 Co666 2.039 . S
O677 C667 1.265 . S
C678 O674 1.253 . S
C678 O679 1.227 . S
O679 C678 1.227 . S
N680 Co666 2.140 . S
N680 C683 1.346 . S
N680 C684 1.345 . S
C681 C682 1.387 . S
C681 C685 1.391 . S
C682 C681 1.387 . S
C682 C683 1.369 . S
C682 H691 0.929 . S
C683 N680 1.346 . S
C683 C682 1.369 . S
C683 H686 0.928 . S
C684 N680 1.345 . S
C684 C685 1.371 . S
C684 H687 0.931 . S
C685 C681 1.391 . S
C685 C684 1.371 . S
C685 H692 0.930 . S
H686 C683 0.928 . S
H687 C684 0.931 . S
H688 C664 0.930 . S
H689 C661 0.930 . S
H690 C670 0.930 . S
H691 C682 0.929 . S
H692 C685 0.930 . S
C693 C694 1.351 . S
C693 N696 1.368 . S
C693 H698 0.931 . S
C694 C693 1.351 . S
C694 N695 1.373 . S
C694 H722 0.930 . S
N695 C694 1.373 . S
N695 C697 1.340 . S
N696 C693 1.368 . S
N696 C697 1.321 . S
N696 Co699 2.135 . S
C697 N695 1.340 . S
C697 N696 1.321 . S
C697 H721 0.930 . S
H698 C693 0.931 . S
Co699 N696 2.135 . S
Co699 N702 2.121 . S
Co699 O707 2.055 . S
Co699 O710 2.039 . S
Co699 N713 2.140 . S
C700 O701 1.227 . S
C700 O710 1.265 . S
O701 C700 1.227 . S
N702 Co699 2.121 . S
N702 C704 1.375 . S
N702 C705 1.313 . S
C703 C704 1.338 . S
C703 N706 1.377 . S
C703 H723 0.930 . S
C704 N702 1.375 . S
C704 C703 1.338 . S
C704 H708 0.931 . S
C705 N702 1.313 . S
C705 N706 1.344 . S
C705 H709 0.930 . S
N706 C703 1.377 . S
N706 C705 1.344 . S
O707 Co699 2.055 . S
O707 C711 1.253 . S
H708 C704 0.931 . S
H709 C705 0.930 . S
O710 Co699 2.039 . S
O710 C700 1.265 . S
C711 O707 1.253 . S
C711 O712 1.227 . S
O712 C711 1.227 . S
N713 Co699 2.140 . S
N713 C716 1.346 . S
N713 C717 1.345 . S
C714 C715 1.387 . S
C714 C718 1.391 . S
C715 C714 1.387 . S
C715 C716 1.369 . S
C715 H724 0.929 . S
C716 N713 1.346 . S
C716 C715 1.369 . S
C716 H719 0.928 . S
C717 N713 1.345 . S
C717 C718 1.371 . S
C717 H720 0.931 . S
C718 C714 1.391 . S
C718 C717 1.371 . S
C718 H725 0.930 . S
H719 C716 0.928 . S
H720 C717 0.931 . S
H721 C697 0.930 . S
H722 C694 0.930 . S
H723 C703 0.930 . S
H724 C715 0.929 . S
H725 C718 0.930 . S
C726 C727 1.351 . S
C726 N729 1.368 . S
C726 H731 0.931 . S
C727 C726 1.351 . S
C727 N728 1.373 . S
C727 H755 0.930 . S
N728 C727 1.373 . S
N728 C730 1.340 . S
N729 C726 1.368 . S
N729 C730 1.321 . S
N729 Co732 2.135 . S
C730 N728 1.340 . S
C730 N729 1.321 . S
C730 H754 0.930 . S
H731 C726 0.931 . S
Co732 N729 2.135 . S
Co732 N735 2.121 . S
Co732 O740 2.055 . S
Co732 O743 2.039 . S
Co732 N746 2.140 . S
C733 O734 1.227 . S
C733 O743 1.265 . S
O734 C733 1.227 . S
N735 Co732 2.121 . S
N735 C737 1.375 . S
N735 C738 1.313 . S
C736 C737 1.338 . S
C736 N739 1.377 . S
C736 H756 0.930 . S
C737 N735 1.375 . S
C737 C736 1.338 . S
C737 H741 0.931 . S
C738 N735 1.313 . S
C738 N739 1.344 . S
C738 H742 0.930 . S
N739 C736 1.377 . S
N739 C738 1.344 . S
O740 Co732 2.055 . S
O740 C744 1.253 . S
H741 C737 0.931 . S
H742 C738 0.930 . S
O743 Co732 2.039 . S
O743 C733 1.265 . S
C744 O740 1.253 . S
C744 O745 1.227 . S
O745 C744 1.227 . S
N746 Co732 2.140 . S
N746 C749 1.346 . S
N746 C750 1.345 . S
C747 C748 1.387 . S
C747 C751 1.391 . S
C748 C747 1.387 . S
C748 C749 1.369 . S
C748 H757 0.929 . S
C749 N746 1.346 . S
C749 C748 1.369 . S
C749 H752 0.928 . S
C750 N746 1.345 . S
C750 C751 1.371 . S
C750 H753 0.931 . S
C751 C747 1.391 . S
C751 C750 1.371 . S
C751 H758 0.930 . S
H752 C749 0.928 . S
H753 C750 0.931 . S
H754 C730 0.930 . S
H755 C727 0.930 . S
H756 C736 0.930 . S
H757 C748 0.929 . S
H758 C751 0.930 . S
C759 C760 1.351 . S
C759 N762 1.368 . S
C759 H764 0.931 . S
C760 C759 1.351 . S
C760 N761 1.373 . S
C760 H788 0.930 . S
N761 C760 1.373 . S
N761 C763 1.340 . S
N762 C759 1.368 . S
N762 C763 1.321 . S
N762 Co765 2.135 . S
C763 N761 1.340 . S
C763 N762 1.321 . S
C763 H787 0.930 . S
H764 C759 0.931 . S
Co765 N762 2.135 . S
Co765 N768 2.121 . S
Co765 O773 2.055 . S
Co765 O776 2.039 . S
Co765 N779 2.140 . S
C766 O767 1.227 . S
C766 O776 1.265 . S
O767 C766 1.227 . S
N768 Co765 2.121 . S
N768 C770 1.375 . S
N768 C771 1.313 . S
C769 C770 1.338 . S
C769 N772 1.377 . S
C769 H789 0.930 . S
C770 N768 1.375 . S
C770 C769 1.338 . S
C770 H774 0.931 . S
C771 N768 1.313 . S
C771 N772 1.344 . S
C771 H775 0.930 . S
N772 C769 1.377 . S
N772 C771 1.344 . S
O773 Co765 2.055 . S
O773 C777 1.253 . S
H774 C770 0.931 . S
H775 C771 0.930 . S
O776 Co765 2.039 . S
O776 C766 1.265 . S
C777 O773 1.253 . S
C777 O778 1.227 . S
O778 C777 1.227 . S
N779 Co765 2.140 . S
N779 C782 1.346 . S
N779 C783 1.345 . S
C780 C781 1.387 . S
C780 C784 1.391 . S
C781 C780 1.387 . S
C781 C782 1.369 . S
C781 H790 0.929 . S
C782 N779 1.346 . S
C782 C781 1.369 . S
C782 H785 0.928 . S
C783 N779 1.345 . S
C783 C784 1.371 . S
C783 H786 0.931 . S
C784 C780 1.391 . S
C784 C783 1.371 . S
C784 H791 0.930 . S
H785 C782 0.928 . S
H786 C783 0.931 . S
H787 C763 0.930 . S
H788 C760 0.930 . S
H789 C769 0.930 . S
H790 C781 0.929 . S
H791 C784 0.930 . S
C792 C793 1.351 . S
C792 N795 1.368 . S
C792 H797 0.931 . S
C793 C792 1.351 . S
C793 N794 1.373 . S
C793 H821 0.930 . S
N794 C793 1.373 . S
N794 C796 1.340 . S
N795 C792 1.368 . S
N795 C796 1.321 . S
N795 Co798 2.135 . S
C796 N794 1.340 . S
C796 N795 1.321 . S
C796 H820 0.930 . S
H797 C792 0.931 . S
Co798 N795 2.135 . S
Co798 N801 2.121 . S
Co798 O806 2.055 . S
Co798 O809 2.039 . S
Co798 N812 2.140 . S
C799 O800 1.227 . S
C799 O809 1.265 . S
O800 C799 1.227 . S
N801 Co798 2.121 . S
N801 C803 1.375 . S
N801 C804 1.313 . S
C802 C803 1.338 . S
C802 N805 1.377 . S
C802 H822 0.930 . S
C803 N801 1.375 . S
C803 C802 1.338 . S
C803 H807 0.931 . S
C804 N801 1.313 . S
C804 N805 1.344 . S
C804 H808 0.930 . S
N805 C802 1.377 . S
N805 C804 1.344 . S
O806 Co798 2.055 . S
O806 C810 1.253 . S
H807 C803 0.931 . S
H808 C804 0.930 . S
O809 Co798 2.039 . S
O809 C799 1.265 . S
C810 O806 1.253 . S
C810 O811 1.227 . S
O811 C810 1.227 . S
N812 Co798 2.140 . S
N812 C815 1.346 . S
N812 C816 1.345 . S
C813 C814 1.387 . S
C813 C817 1.391 . S
C814 C813 1.387 . S
C814 C815 1.369 . S
C814 H823 0.929 . S
C815 N812 1.346 . S
C815 C814 1.369 . S
C815 H818 0.928 . S
C816 N812 1.345 . S
C816 C817 1.371 . S
C816 H819 0.931 . S
C817 C813 1.391 . S
C817 C816 1.371 . S
C817 H824 0.930 . S
H818 C815 0.928 . S
H819 C816 0.931 . S
H820 C796 0.930 . S
H821 C793 0.930 . S
H822 C802 0.930 . S
H823 C814 0.929 . S
H824 C817 0.930 . S
C825 C826 1.351 . S
C825 N828 1.368 . S
C825 H830 0.931 . S
C826 C825 1.351 . S
C826 N827 1.373 . S
C826 H854 0.930 . S
N827 C826 1.373 . S
N827 C829 1.340 . S
N828 C825 1.368 . S
N828 C829 1.321 . S
N828 Co831 2.135 . S
C829 N827 1.340 . S
C829 N828 1.321 . S
C829 H853 0.930 . S
H830 C825 0.931 . S
Co831 N828 2.135 . S
Co831 N834 2.121 . S
Co831 O839 2.055 . S
Co831 O842 2.039 . S
Co831 N845 2.140 . S
C832 O833 1.227 . S
C832 O842 1.265 . S
O833 C832 1.227 . S
N834 Co831 2.121 . S
N834 C836 1.375 . S
N834 C837 1.313 . S
C835 C836 1.338 . S
C835 N838 1.377 . S
C835 H855 0.930 . S
C836 N834 1.375 . S
C836 C835 1.338 . S
C836 H840 0.931 . S
C837 N834 1.313 . S
C837 N838 1.344 . S
C837 H841 0.930 . S
N838 C835 1.377 . S
N838 C837 1.344 . S
O839 Co831 2.055 . S
O839 C843 1.253 . S
H840 C836 0.931 . S
H841 C837 0.930 . S
O842 Co831 2.039 . S
O842 C832 1.265 . S
C843 O839 1.253 . S
C843 O844 1.227 . S
O844 C843 1.227 . S
N845 Co831 2.140 . S
N845 C848 1.346 . S
N845 C849 1.345 . S
C846 C847 1.387 . S
C846 C850 1.391 . S
C847 C846 1.387 . S
C847 C848 1.369 . S
C847 H856 0.929 . S
C848 N845 1.346 . S
C848 C847 1.369 . S
C848 H851 0.928 . S
C849 N845 1.345 . S
C849 C850 1.371 . S
C849 H852 0.931 . S
C850 C846 1.391 . S
C850 C849 1.371 . S
C850 H857 0.930 . S
H851 C848 0.928 . S
H852 C849 0.931 . S
H853 C829 0.930 . S
H854 C826 0.930 . S
H855 C835 0.930 . S
H856 C847 0.929 . S
H857 C850 0.930 . S
C858 C859 1.351 . S
C858 N861 1.368 . S
C858 H863 0.931 . S
C859 C858 1.351 . S
C859 N860 1.373 . S
C859 H887 0.930 . S
N860 C859 1.373 . S
N860 C862 1.340 . S
N861 C858 1.368 . S
N861 C862 1.321 . S
N861 Co864 2.135 . S
C862 N860 1.340 . S
C862 N861 1.321 . S
C862 H886 0.930 . S
H863 C858 0.931 . S
Co864 N861 2.135 . S
Co864 N867 2.121 . S
Co864 O872 2.055 . S
Co864 O875 2.039 . S
Co864 N878 2.140 . S
C865 O866 1.227 . S
C865 O875 1.265 . S
O866 C865 1.227 . S
N867 Co864 2.121 . S
N867 C869 1.375 . S
N867 C870 1.313 . S
C868 C869 1.338 . S
C868 N871 1.377 . S
C868 H888 0.930 . S
C869 N867 1.375 . S
C869 C868 1.338 . S
C869 H873 0.931 . S
C870 N867 1.313 . S
C870 N871 1.344 . S
C870 H874 0.930 . S
N871 C868 1.377 . S
N871 C870 1.344 . S
O872 Co864 2.055 . S
O872 C876 1.253 . S
H873 C869 0.931 . S
H874 C870 0.930 . S
O875 Co864 2.039 . S
O875 C865 1.265 . S
C876 O872 1.253 . S
C876 O877 1.227 . S
O877 C876 1.227 . S
N878 Co864 2.140 . S
N878 C881 1.346 . S
N878 C882 1.345 . S
C879 C880 1.387 . S
C879 C883 1.391 . S
C880 C879 1.387 . S
C880 C881 1.369 . S
C880 H889 0.929 . S
C881 N878 1.346 . S
C881 C880 1.369 . S
C881 H884 0.928 . S
C882 N878 1.345 . S
C882 C883 1.371 . S
C882 H885 0.931 . S
C883 C879 1.391 . S
C883 C882 1.371 . S
C883 H890 0.930 . S
H884 C881 0.928 . S
H885 C882 0.931 . S
H886 C862 0.930 . S
H887 C859 0.930 . S
H888 C868 0.930 . S
H889 C880 0.929 . S
H890 C883 0.930 . S
C891 C892 1.351 . S
C891 N894 1.368 . S
C891 H896 0.931 . S
C892 C891 1.351 . S
C892 N893 1.373 . S
C892 H920 0.930 . S
N893 C892 1.373 . S
N893 C895 1.340 . S
N894 C891 1.368 . S
N894 C895 1.321 . S
N894 Co897 2.135 . S
C895 N893 1.340 . S
C895 N894 1.321 . S
C895 H919 0.930 . S
H896 C891 0.931 . S
Co897 N894 2.135 . S
Co897 N900 2.121 . S
Co897 O905 2.055 . S
Co897 O908 2.039 . S
Co897 N911 2.140 . S
C898 O899 1.227 . S
C898 O908 1.265 . S
O899 C898 1.227 . S
N900 Co897 2.121 . S
N900 C902 1.375 . S
N900 C903 1.313 . S
C901 C902 1.338 . S
C901 N904 1.377 . S
C901 H921 0.930 . S
C902 N900 1.375 . S
C902 C901 1.338 . S
C902 H906 0.931 . S
C903 N900 1.313 . S
C903 N904 1.344 . S
C903 H907 0.930 . S
N904 C901 1.377 . S
N904 C903 1.344 . S
O905 Co897 2.055 . S
O905 C909 1.253 . S
H906 C902 0.931 . S
H907 C903 0.930 . S
O908 Co897 2.039 . S
O908 C898 1.265 . S
C909 O905 1.253 . S
C909 O910 1.227 . S
O910 C909 1.227 . S
N911 Co897 2.140 . S
N911 C914 1.346 . S
N911 C915 1.345 . S
C912 C913 1.387 . S
C912 C916 1.391 . S
C913 C912 1.387 . S
C913 C914 1.369 . S
C913 H922 0.929 . S
C914 N911 1.346 . S
C914 C913 1.369 . S
C914 H917 0.928 . S
C915 N911 1.345 . S
C915 C916 1.371 . S
C915 H918 0.931 . S
C916 C912 1.391 . S
C916 C915 1.371 . S
C916 H923 0.930 . S
H917 C914 0.928 . S
H918 C915 0.931 . S
H919 C895 0.930 . S
H920 C892 0.930 . S
H921 C901 0.930 . S
H922 C913 0.929 . S
H923 C916 0.930 . S
C924 C925 1.351 . S
C924 N927 1.368 . S
C924 H929 0.931 . S
C925 C924 1.351 . S
C925 N926 1.373 . S
C925 H953 0.930 . S
N926 C925 1.373 . S
N926 C928 1.340 . S
N927 C924 1.368 . S
N927 C928 1.321 . S
N927 Co930 2.135 . S
C928 N926 1.340 . S
C928 N927 1.321 . S
C928 H952 0.930 . S
H929 C924 0.931 . S
Co930 N927 2.135 . S
Co930 N933 2.121 . S
Co930 O938 2.055 . S
Co930 O941 2.039 . S
Co930 N944 2.140 . S
C931 O932 1.227 . S
C931 O941 1.265 . S
O932 C931 1.227 . S
N933 Co930 2.121 . S
N933 C935 1.375 . S
N933 C936 1.313 . S
C934 C935 1.338 . S
C934 N937 1.377 . S
C934 H954 0.930 . S
C935 N933 1.375 . S
C935 C934 1.338 . S
C935 H939 0.931 . S
C936 N933 1.313 . S
C936 N937 1.344 . S
C936 H940 0.930 . S
N937 C934 1.377 . S
N937 C936 1.344 . S
O938 Co930 2.055 . S
O938 C942 1.253 . S
H939 C935 0.931 . S
H940 C936 0.930 . S
O941 Co930 2.039 . S
O941 C931 1.265 . S
C942 O938 1.253 . S
C942 O943 1.227 . S
O943 C942 1.227 . S
N944 Co930 2.140 . S
N944 C947 1.346 . S
N944 C948 1.345 . S
C945 C946 1.387 . S
C945 C949 1.391 . S
C946 C945 1.387 . S
C946 C947 1.369 . S
C946 H955 0.929 . S
C947 N944 1.346 . S
C947 C946 1.369 . S
C947 H950 0.928 . S
C948 N944 1.345 . S
C948 C949 1.371 . S
C948 H951 0.931 . S
C949 C945 1.391 . S
C949 C948 1.371 . S
C949 H956 0.930 . S
H950 C947 0.928 . S
H951 C948 0.931 . S
H952 C928 0.930 . S
H953 C925 0.930 . S
H954 C934 0.930 . S
H955 C946 0.929 . S
H956 C949 0.930 . S
C957 C958 1.351 . S
C957 N960 1.368 . S
C957 H962 0.931 . S
C958 C957 1.351 . S
C958 N959 1.373 . S
C958 H986 0.930 . S
N959 C958 1.373 . S
N959 C961 1.340 . S
N960 C957 1.368 . S
N960 C961 1.321 . S
N960 Co963 2.135 . S
C961 N959 1.340 . S
C961 N960 1.321 . S
C961 H985 0.930 . S
H962 C957 0.931 . S
Co963 N960 2.135 . S
Co963 N966 2.121 . S
Co963 O971 2.055 . S
Co963 O974 2.039 . S
Co963 N977 2.140 . S
C964 O965 1.227 . S
C964 O974 1.265 . S
O965 C964 1.227 . S
N966 Co963 2.121 . S
N966 C968 1.375 . S
N966 C969 1.313 . S
C967 C968 1.338 . S
C967 N970 1.377 . S
C967 H987 0.930 . S
C968 N966 1.375 . S
C968 C967 1.338 . S
C968 H972 0.931 . S
C969 N966 1.313 . S
C969 N970 1.344 . S
C969 H973 0.930 . S
N970 C967 1.377 . S
N970 C969 1.344 . S
O971 Co963 2.055 . S
O971 C975 1.253 . S
H972 C968 0.931 . S
H973 C969 0.930 . S
O974 Co963 2.039 . S
O974 C964 1.265 . S
C975 O971 1.253 . S
C975 O976 1.227 . S
O976 C975 1.227 . S
N977 Co963 2.140 . S
N977 C980 1.346 . S
N977 C981 1.345 . S
C978 C979 1.387 . S
C978 C982 1.391 . S
C979 C978 1.387 . S
C979 C980 1.369 . S
C979 H988 0.929 . S
C980 N977 1.346 . S
C980 C979 1.369 . S
C980 H983 0.928 . S
C981 N977 1.345 . S
C981 C982 1.371 . S
C981 H984 0.931 . S
C982 C978 1.391 . S
C982 C981 1.371 . S
C982 H989 0.930 . S
H983 C980 0.928 . S
H984 C981 0.931 . S
H985 C961 0.930 . S
H986 C958 0.930 . S
H987 C967 0.930 . S
H988 C979 0.929 . S
H989 C982 0.930 . S
C990 C991 1.351 . S
C990 N993 1.368 . S
C990 H995 0.931 . S
C991 C990 1.351 . S
C991 N992 1.373 . S
C991 H1019 0.930 . S
N992 C991 1.373 . S
N992 C994 1.340 . S
N993 C990 1.368 . S
N993 C994 1.321 . S
N993 Co996 2.135 . S
C994 N992 1.340 . S
C994 N993 1.321 . S
C994 H1018 0.930 . S
H995 C990 0.931 . S
Co996 N993 2.135 . S
Co996 N999 2.121 . S
Co996 O1004 2.055 . S
Co996 O1007 2.039 . S
Co996 N1010 2.140 . S
C997 O998 1.227 . S
C997 O1007 1.265 . S
O998 C997 1.227 . S
N999 Co996 2.121 . S
N999 C1001 1.375 . S
N999 C1002 1.313 . S
C1000 C1001 1.338 . S
C1000 N1003 1.377 . S
C1000 H1020 0.930 . S
C1001 N999 1.375 . S
C1001 C1000 1.338 . S
C1001 H1005 0.931 . S
C1002 N999 1.313 . S
C1002 N1003 1.344 . S
C1002 H1006 0.930 . S
N1003 C1000 1.377 . S
N1003 C1002 1.344 . S
O1004 Co996 2.055 . S
O1004 C1008 1.253 . S
H1005 C1001 0.931 . S
H1006 C1002 0.930 . S
O1007 Co996 2.039 . S
O1007 C997 1.265 . S
C1008 O1004 1.253 . S
C1008 O1009 1.227 . S
O1009 C1008 1.227 . S
N1010 Co996 2.140 . S
N1010 C1013 1.346 . S
N1010 C1014 1.345 . S
C1011 C1012 1.387 . S
C1011 C1015 1.391 . S
C1012 C1011 1.387 . S
C1012 C1013 1.369 . S
C1012 H1021 0.929 . S
C1013 N1010 1.346 . S
C1013 C1012 1.369 . S
C1013 H1016 0.928 . S
C1014 N1010 1.345 . S
C1014 C1015 1.371 . S
C1014 H1017 0.931 . S
C1015 C1011 1.391 . S
C1015 C1014 1.371 . S
C1015 H1022 0.930 . S
H1016 C1013 0.928 . S
H1017 C1014 0.931 . S
H1018 C994 0.930 . S
H1019 C991 0.930 . S
H1020 C1000 0.930 . S
H1021 C1012 0.929 . S
H1022 C1015 0.930 . S
C1023 C1024 1.351 . S
C1023 N1026 1.368 . S
C1023 H1028 0.931 . S
C1024 C1023 1.351 . S
C1024 N1025 1.373 . S
C1024 H1052 0.930 . S
N1025 C1024 1.373 . S
N1025 C1027 1.340 . S
N1026 C1023 1.368 . S
N1026 C1027 1.321 . S
N1026 Co1029 2.135 . S
C1027 N1025 1.340 . S
C1027 N1026 1.321 . S
C1027 H1051 0.930 . S
H1028 C1023 0.931 . S
Co1029 N1026 2.135 . S
Co1029 N1032 2.121 . S
Co1029 O1037 2.055 . S
Co1029 O1040 2.039 . S
Co1029 N1043 2.140 . S
C1030 O1031 1.227 . S
C1030 O1040 1.265 . S
O1031 C1030 1.227 . S
N1032 Co1029 2.121 . S
N1032 C1034 1.375 . S
N1032 C1035 1.313 . S
C1033 C1034 1.338 . S
C1033 N1036 1.377 . S
C1033 H1053 0.930 . S
C1034 N1032 1.375 . S
C1034 C1033 1.338 . S
C1034 H1038 0.931 . S
C1035 N1032 1.313 . S
C1035 N1036 1.344 . S
C1035 H1039 0.930 . S
N1036 C1033 1.377 . S
N1036 C1035 1.344 . S
O1037 Co1029 2.055 . S
O1037 C1041 1.253 . S
H1038 C1034 0.931 . S
H1039 C1035 0.930 . S
O1040 Co1029 2.039 . S
O1040 C1030 1.265 . S
C1041 O1037 1.253 . S
C1041 O1042 1.227 . S
O1042 C1041 1.227 . S
N1043 Co1029 2.140 . S
N1043 C1046 1.346 . S
N1043 C1047 1.345 . S
C1044 C1045 1.387 . S
C1044 C1048 1.391 . S
C1045 C1044 1.387 . S
C1045 C1046 1.369 . S
C1045 H1054 0.929 . S
C1046 N1043 1.346 . S
C1046 C1045 1.369 . S
C1046 H1049 0.928 . S
C1047 N1043 1.345 . S
C1047 C1048 1.371 . S
C1047 H1050 0.931 . S
C1048 C1044 1.391 . S
C1048 C1047 1.371 . S
C1048 H1055 0.930 . S
H1049 C1046 0.928 . S
H1050 C1047 0.931 . S
H1051 C1027 0.930 . S
H1052 C1024 0.930 . S
H1053 C1033 0.930 . S
H1054 C1045 0.929 . S
H1055 C1048 0.930 . S
H1056 C1074 0.951 . S
H1057 C1076 0.951 . S
H1058 C1078 0.950 . S
H1059 C1079 0.950 . S
H1060 C1081 0.950 . S
H1061 C1084 0.950 . S
H1062 C1085 0.950 . S
H1063 C1087 0.950 . S
H1064 C1088 0.950 . S
H1065 C1089 0.951 . S
H1066 C1091 0.951 . S
H1067 C1093 0.950 . S
H1068 C1094 0.950 . S
H1069 C1096 0.950 . S
H1070 C1099 0.950 . S
H1071 C1100 0.950 . S
H1072 C1102 0.950 . S
H1073 C1103 0.950 . S
C1074 H1056 0.951 . S
C1074 C1075 1.366 . S
C1074 C1076 1.388 . S
C1075 C1074 1.366 . S
C1075 C1079 1.385 . S
C1076 H1057 0.951 . S
C1076 C1074 1.388 . S
C1076 C1077 1.366 . S
C1077 C1076 1.366 . S
C1077 C1078 1.414 . S
C1077 C1080 1.499 . S
C1078 H1058 0.950 . S
C1078 C1077 1.414 . S
C1078 C1079 1.374 . S
C1079 H1059 0.950 . S
C1079 C1075 1.385 . S
C1079 C1078 1.374 . S
C1080 C1077 1.499 . S
C1080 C1081 1.373 . S
C1080 C1082 1.389 . S
C1081 H1060 0.950 . S
C1081 C1080 1.373 . S
C1081 C1097 1.377 . S
C1082 C1080 1.389 . S
C1082 C1083 1.524 . S
C1082 C1096 1.377 . S
C1083 C1082 1.524 . S
C1083 C1084 1.397 . S
C1083 C1088 1.363 . S
C1084 H1061 0.950 . S
C1084 C1083 1.397 . S
C1084 C1085 1.334 . S
C1085 H1062 0.950 . S
C1085 C1084 1.334 . S
C1085 C1086 1.287 . S
C1086 C1085 1.287 . S
C1086 C1087 1.524 . S
C1086 H1105 0.913 . S
C1087 H1063 0.950 . S
C1087 C1086 1.524 . S
C1087 C1088 1.415 . S
C1088 H1064 0.950 . S
C1088 C1083 1.363 . S
C1088 C1087 1.415 . S
C1089 H1065 0.951 . S
C1089 C1090 1.366 . S
C1089 C1091 1.388 . S
C1090 C1089 1.366 . S
C1090 C1094 1.385 . S
C1091 H1066 0.951 . S
C1091 C1089 1.388 . S
C1091 C1092 1.366 . S
C1092 C1091 1.366 . S
C1092 C1093 1.414 . S
C1092 C1095 1.499 . S
C1093 H1067 0.950 . S
C1093 C1092 1.414 . S
C1093 C1094 1.374 . S
C1094 H1068 0.950 . S
C1094 C1090 1.385 . S
C1094 C1093 1.374 . S
C1095 C1092 1.499 . S
C1095 C1096 1.373 . S
C1095 C1097 1.389 . S
C1096 H1069 0.950 . S
C1096 C1082 1.377 . S
C1096 C1095 1.373 . S
C1097 C1081 1.377 . S
C1097 C1095 1.389 . S
C1097 C1098 1.524 . S
C1098 C1097 1.524 . S
C1098 C1099 1.397 . S
C1098 C1103 1.363 . S
C1099 H1070 0.950 . S
C1099 C1098 1.397 . S
C1099 C1100 1.334 . S
C1100 H1071 0.950 . S
C1100 C1099 1.334 . S
C1100 C1101 1.287 . S
C1101 C1100 1.287 . S
C1101 C1102 1.524 . S
C1101 H1104 0.999 . S
C1102 H1072 0.950 . S
C1102 C1101 1.524 . S
C1102 C1103 1.415 . S
C1103 H1073 0.950 . S
C1103 C1098 1.363 . S
C1103 C1102 1.415 . S
H1104 C1101 0.999 . S
H1105 C1086 0.913 . S
H1106 C1124 0.951 . S
H1107 C1126 0.951 1_455 S
H1108 C1128 0.950 . S
H1109 C1129 0.950 . S
H1110 C1131 0.950 . S
H1111 C1134 0.950 . S
H1112 C1135 0.950 1_655 S
H1113 C1137 0.950 . S
H1114 C1138 0.950 . S
H1115 C1139 0.951 . S
H1116 C1141 0.951 . S
H1117 C1143 0.950 . S
H1118 C1144 0.950 . S
H1119 C1146 0.950 . S
H1120 C1149 0.950 . S
H1121 C1150 0.950 . S
H1122 C1152 0.950 . S
H1123 C1153 0.950 . S
C1124 H1106 0.951 . S
C1124 C1125 1.366 . S
C1124 C1126 1.388 . S
C1125 C1124 1.366 . S
C1125 C1129 1.385 . S
C1126 H1107 0.951 1_655 S
C1126 C1124 1.388 . S
C1126 C1127 1.366 . S
C1127 C1126 1.366 . S
C1127 C1128 1.414 . S
C1127 C1130 1.499 1_655 S
C1128 H1108 0.950 . S
C1128 C1127 1.414 . S
C1128 C1129 1.374 . S
C1129 H1109 0.950 . S
C1129 C1125 1.385 . S
C1129 C1128 1.374 . S
C1130 C1127 1.499 1_455 S
C1130 C1131 1.373 . S
C1130 C1132 1.389 . S
C1131 H1110 0.950 . S
C1131 C1130 1.373 . S
C1131 C1147 1.377 . S
C1132 C1130 1.389 . S
C1132 C1133 1.524 . S
C1132 C1146 1.377 . S
C1133 C1132 1.524 . S
C1133 C1134 1.397 . S
C1133 C1138 1.363 . S
C1134 H1111 0.950 . S
C1134 C1133 1.397 . S
C1134 C1135 1.334 . S
C1135 H1112 0.950 1_455 S
C1135 C1134 1.334 . S
C1135 C1136 1.287 . S
C1136 C1135 1.287 . S
C1136 C1137 1.524 . S
C1136 H1155 0.913 1_565 S
C1137 H1113 0.950 . S
C1137 C1136 1.524 . S
C1137 C1138 1.415 . S
C1138 H1114 0.950 . S
C1138 C1133 1.363 . S
C1138 C1137 1.415 . S
C1139 H1115 0.951 . S
C1139 C1140 1.366 . S
C1139 C1141 1.388 . S
C1140 C1139 1.366 . S
C1140 C1144 1.385 . S
C1141 H1116 0.951 . S
C1141 C1139 1.388 . S
C1141 C1142 1.366 . S
C1142 C1141 1.366 . S
C1142 C1143 1.414 . S
C1142 C1145 1.499 . S
C1143 H1117 0.950 . S
C1143 C1142 1.414 . S
C1143 C1144 1.374 . S
C1144 H1118 0.950 . S
C1144 C1140 1.385 . S
C1144 C1143 1.374 . S
C1145 C1142 1.499 . S
C1145 C1146 1.373 . S
C1145 C1147 1.389 . S
C1146 H1119 0.950 . S
C1146 C1132 1.377 . S
C1146 C1145 1.373 . S
C1147 C1131 1.377 . S
C1147 C1145 1.389 . S
C1147 C1148 1.524 . S
C1148 C1147 1.524 . S
C1148 C1149 1.397 . S
C1148 C1153 1.363 . S
C1149 H1120 0.950 . S
C1149 C1148 1.397 . S
C1149 C1150 1.334 . S
C1150 H1121 0.950 . S
C1150 C1149 1.334 . S
C1150 C1151 1.287 . S
C1151 C1150 1.287 . S
C1151 C1152 1.524 . S
C1151 H1154 0.999 . S
C1152 H1122 0.950 . S
C1152 C1151 1.524 . S
C1152 C1153 1.415 . S
C1153 H1123 0.950 . S
C1153 C1148 1.363 . S
C1153 C1152 1.415 . S
H1154 C1151 0.999 . S
H1155 C1136 0.913 1_545 S
H1156 C1174 0.951 . S
H1157 C1176 0.951 . S
H1158 C1178 0.950 . S
H1159 C1179 0.950 . S
H1160 C1181 0.950 . S
H1161 C1184 0.950 . S
H1162 C1185 0.950 . S
H1163 C1187 0.950 . S
H1164 C1188 0.950 . S
H1165 C1189 0.951 . S
H1166 C1191 0.951 . S
H1167 C1193 0.950 . S
H1168 C1194 0.950 . S
H1169 C1196 0.950 . S
H1170 C1199 0.950 . S
H1171 C1200 0.950 . S
H1172 C1202 0.950 . S
H1173 C1203 0.950 . S
C1174 H1156 0.951 . S
C1174 C1175 1.366 . S
C1174 C1176 1.388 . S
C1175 C1174 1.366 . S
C1175 C1179 1.385 . S
C1176 H1157 0.951 . S
C1176 C1174 1.388 . S
C1176 C1177 1.366 . S
C1177 C1176 1.366 . S
C1177 C1178 1.414 . S
C1177 C1180 1.499 . S
C1178 H1158 0.950 . S
C1178 C1177 1.414 . S
C1178 C1179 1.374 . S
C1179 H1159 0.950 . S
C1179 C1175 1.385 . S
C1179 C1178 1.374 . S
C1180 C1177 1.499 . S
C1180 C1181 1.373 . S
C1180 C1182 1.389 . S
C1181 H1160 0.950 . S
C1181 C1180 1.373 . S
C1181 C1197 1.377 . S
C1182 C1180 1.389 . S
C1182 C1183 1.524 . S
C1182 C1196 1.377 . S
C1183 C1182 1.524 . S
C1183 C1184 1.397 . S
C1183 C1188 1.363 . S
C1184 H1161 0.950 . S
C1184 C1183 1.397 . S
C1184 C1185 1.334 . S
C1185 H1162 0.950 . S
C1185 C1184 1.334 . S
C1185 C1186 1.287 . S
C1186 C1185 1.287 . S
C1186 C1187 1.524 . S
C1186 H1205 0.913 . S
C1187 H1163 0.950 . S
C1187 C1186 1.524 . S
C1187 C1188 1.415 . S
C1188 H1164 0.950 . S
C1188 C1183 1.363 . S
C1188 C1187 1.415 . S
C1189 H1165 0.951 . S
C1189 C1190 1.366 . S
C1189 C1191 1.388 . S
C1190 C1189 1.366 . S
C1190 C1194 1.385 . S
C1191 H1166 0.951 . S
C1191 C1189 1.388 . S
C1191 C1192 1.366 . S
C1192 C1191 1.366 . S
C1192 C1193 1.414 . S
C1192 C1195 1.499 . S
C1193 H1167 0.950 . S
C1193 C1192 1.414 . S
C1193 C1194 1.374 . S
C1194 H1168 0.950 . S
C1194 C1190 1.385 . S
C1194 C1193 1.374 . S
C1195 C1192 1.499 . S
C1195 C1196 1.373 . S
C1195 C1197 1.389 . S
C1196 H1169 0.950 . S
C1196 C1182 1.377 . S
C1196 C1195 1.373 . S
C1197 C1181 1.377 . S
C1197 C1195 1.389 . S
C1197 C1198 1.524 . S
C1198 C1197 1.524 . S
C1198 C1199 1.397 . S
C1198 C1203 1.363 . S
C1199 H1170 0.950 . S
C1199 C1198 1.397 . S
C1199 C1200 1.334 . S
C1200 H1171 0.950 . S
C1200 C1199 1.334 . S
C1200 C1201 1.287 . S
C1201 C1200 1.287 . S
C1201 C1202 1.524 . S
C1201 H1204 0.999 . S
C1202 H1172 0.950 . S
C1202 C1201 1.524 . S
C1202 C1203 1.415 . S
C1203 H1173 0.950 . S
C1203 C1198 1.363 . S
C1203 C1202 1.415 . S
H1204 C1201 0.999 . S
H1205 C1186 0.913 . S
H1206 C1224 0.951 . S
H1207 C1226 0.951 . S
H1208 C1228 0.950 . S
H1209 C1229 0.950 . S
H1210 C1231 0.950 . S
H1211 C1234 0.950 . S
H1212 C1235 0.950 . S
H1213 C1237 0.950 . S
H1214 C1238 0.950 . S
H1215 C1239 0.951 . S
H1216 C1241 0.951 . S
H1217 C1243 0.950 . S
H1218 C1244 0.950 . S
H1219 C1246 0.950 . S
H1220 C1249 0.950 . S
H1221 C1250 0.950 . S
H1222 C1252 0.950 . S
H1223 C1253 0.950 . S
C1224 H1206 0.951 . S
C1224 C1225 1.366 . S
C1224 C1226 1.388 . S
C1225 C1224 1.366 . S
C1225 C1229 1.385 . S
C1226 H1207 0.951 . S
C1226 C1224 1.388 . S
C1226 C1227 1.366 . S
C1227 C1226 1.366 . S
C1227 C1228 1.414 . S
C1227 C1230 1.499 . S
C1228 H1208 0.950 . S
C1228 C1227 1.414 . S
C1228 C1229 1.374 . S
C1229 H1209 0.950 . S
C1229 C1225 1.385 . S
C1229 C1228 1.374 . S
C1230 C1227 1.499 . S
C1230 C1231 1.373 . S
C1230 C1232 1.389 . S
C1231 H1210 0.950 . S
C1231 C1230 1.373 . S
C1231 C1247 1.377 . S
C1232 C1230 1.389 . S
C1232 C1233 1.524 . S
C1232 C1246 1.377 . S
C1233 C1232 1.524 . S
C1233 C1234 1.397 . S
C1233 C1238 1.363 . S
C1234 H1211 0.950 . S
C1234 C1233 1.397 . S
C1234 C1235 1.334 . S
C1235 H1212 0.950 . S
C1235 C1234 1.334 . S
C1235 C1236 1.287 . S
C1236 C1235 1.287 . S
C1236 C1237 1.524 . S
C1236 H1255 0.913 . S
C1237 H1213 0.950 . S
C1237 C1236 1.524 . S
C1237 C1238 1.415 . S
C1238 H1214 0.950 . S
C1238 C1233 1.363 . S
C1238 C1237 1.415 . S
C1239 H1215 0.951 . S
C1239 C1240 1.366 . S
C1239 C1241 1.388 . S
C1240 C1239 1.366 . S
C1240 C1244 1.385 . S
C1241 H1216 0.951 . S
C1241 C1239 1.388 . S
C1241 C1242 1.366 . S
C1242 C1241 1.366 . S
C1242 C1243 1.414 . S
C1242 C1245 1.499 . S
C1243 H1217 0.950 . S
C1243 C1242 1.414 . S
C1243 C1244 1.374 . S
C1244 H1218 0.950 . S
C1244 C1240 1.385 . S
C1244 C1243 1.374 . S
C1245 C1242 1.499 . S
C1245 C1246 1.373 . S
C1245 C1247 1.389 . S
C1246 H1219 0.950 . S
C1246 C1232 1.377 . S
C1246 C1245 1.373 . S
C1247 C1231 1.377 . S
C1247 C1245 1.389 . S
C1247 C1248 1.524 . S
C1248 C1247 1.524 . S
C1248 C1249 1.397 . S
C1248 C1253 1.363 . S
C1249 H1220 0.950 . S
C1249 C1248 1.397 . S
C1249 C1250 1.334 . S
C1250 H1221 0.950 . S
C1250 C1249 1.334 . S
C1250 C1251 1.287 . S
C1251 C1250 1.287 . S
C1251 C1252 1.524 . S
C1251 H1254 0.999 . S
C1252 H1222 0.950 . S
C1252 C1251 1.524 . S
C1252 C1253 1.415 . S
C1253 H1223 0.950 . S
C1253 C1248 1.363 . S
C1253 C1252 1.415 . S
H1254 C1251 0.999 . S
H1255 C1236 0.913 . S
H1256 C1274 0.951 . S
H1257 C1276 0.951 . S
H1258 C1278 0.950 . S
H1259 C1279 0.950 . S
H1260 C1281 0.950 . S
H1261 C1284 0.950 . S
H1262 C1285 0.950 . S
H1263 C1287 0.950 . S
H1264 C1288 0.950 . S
H1265 C1289 0.951 . S
H1266 C1291 0.951 . S
H1267 C1293 0.950 . S
H1268 C1294 0.950 . S
H1269 C1296 0.950 . S
H1270 C1299 0.950 . S
H1271 C1300 0.950 . S
H1272 C1302 0.950 . S
H1273 C1303 0.950 . S
C1274 H1256 0.951 . S
C1274 C1275 1.366 . S
C1274 C1276 1.388 . S
C1275 C1274 1.366 . S
C1275 C1279 1.385 . S
C1276 H1257 0.951 . S
C1276 C1274 1.388 . S
C1276 C1277 1.366 . S
C1277 C1276 1.366 . S
C1277 C1278 1.414 . S
C1277 C1280 1.499 . S
C1278 H1258 0.950 . S
C1278 C1277 1.414 . S
C1278 C1279 1.374 . S
C1279 H1259 0.950 . S
C1279 C1275 1.385 . S
C1279 C1278 1.374 . S
C1280 C1277 1.499 . S
C1280 C1281 1.373 . S
C1280 C1282 1.389 . S
C1281 H1260 0.950 . S
C1281 C1280 1.373 . S
C1281 C1297 1.377 . S
C1282 C1280 1.389 . S
C1282 C1283 1.524 . S
C1282 C1296 1.377 . S
C1283 C1282 1.524 . S
C1283 C1284 1.397 . S
C1283 C1288 1.363 . S
C1284 H1261 0.950 . S
C1284 C1283 1.397 . S
C1284 C1285 1.334 . S
C1285 H1262 0.950 . S
C1285 C1284 1.334 . S
C1285 C1286 1.287 . S
C1286 C1285 1.287 . S
C1286 C1287 1.524 . S
C1286 H1305 0.913 . S
C1287 H1263 0.950 . S
C1287 C1286 1.524 . S
C1287 C1288 1.415 . S
C1288 H1264 0.950 . S
C1288 C1283 1.363 . S
C1288 C1287 1.415 . S
C1289 H1265 0.951 . S
C1289 C1290 1.366 . S
C1289 C1291 1.388 . S
C1290 C1289 1.366 . S
C1290 C1294 1.385 . S
C1291 H1266 0.951 . S
C1291 C1289 1.388 . S
C1291 C1292 1.366 . S
C1292 C1291 1.366 . S
C1292 C1293 1.414 . S
C1292 C1295 1.499 . S
C1293 H1267 0.950 . S
C1293 C1292 1.414 . S
C1293 C1294 1.374 . S
C1294 H1268 0.950 . S
C1294 C1290 1.385 . S
C1294 C1293 1.374 . S
C1295 C1292 1.499 . S
C1295 C1296 1.373 . S
C1295 C1297 1.389 . S
C1296 H1269 0.950 . S
C1296 C1282 1.377 . S
C1296 C1295 1.373 . S
C1297 C1281 1.377 . S
C1297 C1295 1.389 . S
C1297 C1298 1.524 . S
C1298 C1297 1.524 . S
C1298 C1299 1.397 . S
C1298 C1303 1.363 . S
C1299 H1270 0.950 . S
C1299 C1298 1.397 . S
C1299 C1300 1.334 . S
C1300 H1271 0.950 . S
C1300 C1299 1.334 . S
C1300 C1301 1.287 . S
C1301 C1300 1.287 . S
C1301 C1302 1.524 . S
C1301 H1304 0.999 . S
C1302 H1272 0.950 . S
C1302 C1301 1.524 . S
C1302 C1303 1.415 . S
C1303 H1273 0.950 . S
C1303 C1298 1.363 . S
C1303 C1302 1.415 . S
H1304 C1301 0.999 . S
H1305 C1286 0.913 . S
H1306 C1324 0.951 . S
H1307 C1326 0.951 . S
H1308 C1328 0.950 . S
H1309 C1329 0.950 . S
H1310 C1331 0.950 . S
H1311 C1334 0.950 . S
H1312 C1335 0.950 . S
H1313 C1337 0.950 . S
H1314 C1338 0.950 . S
H1315 C1339 0.951 . S
H1316 C1341 0.951 . S
H1317 C1343 0.950 . S
H1318 C1344 0.950 . S
H1319 C1346 0.950 . S
H1320 C1349 0.950 . S
H1321 C1350 0.950 . S
H1322 C1352 0.950 . S
H1323 C1353 0.950 . S
C1324 H1306 0.951 . S
C1324 C1325 1.366 . S
C1324 C1326 1.388 . S
C1325 C1324 1.366 . S
C1325 C1329 1.385 . S
C1326 H1307 0.951 . S
C1326 C1324 1.388 . S
C1326 C1327 1.366 . S
C1327 C1326 1.366 . S
C1327 C1328 1.414 . S
C1327 C1330 1.499 . S
C1328 H1308 0.950 . S
C1328 C1327 1.414 . S
C1328 C1329 1.374 . S
C1329 H1309 0.950 . S
C1329 C1325 1.385 . S
C1329 C1328 1.374 . S
C1330 C1327 1.499 . S
C1330 C1331 1.373 . S
C1330 C1332 1.389 . S
C1331 H1310 0.950 . S
C1331 C1330 1.373 . S
C1331 C1347 1.377 . S
C1332 C1330 1.389 . S
C1332 C1333 1.524 . S
C1332 C1346 1.377 . S
C1333 C1332 1.524 . S
C1333 C1334 1.397 . S
C1333 C1338 1.363 . S
C1334 H1311 0.950 . S
C1334 C1333 1.397 . S
C1334 C1335 1.334 . S
C1335 H1312 0.950 . S
C1335 C1334 1.334 . S
C1335 C1336 1.287 . S
C1336 C1335 1.287 . S
C1336 C1337 1.524 . S
C1336 H1355 0.913 . S
C1337 H1313 0.950 . S
C1337 C1336 1.524 . S
C1337 C1338 1.415 . S
C1338 H1314 0.950 . S
C1338 C1333 1.363 . S
C1338 C1337 1.415 . S
C1339 H1315 0.951 . S
C1339 C1340 1.366 . S
C1339 C1341 1.388 . S
C1340 C1339 1.366 . S
C1340 C1344 1.385 . S
C1341 H1316 0.951 . S
C1341 C1339 1.388 . S
C1341 C1342 1.366 . S
C1342 C1341 1.366 . S
C1342 C1343 1.414 . S
C1342 C1345 1.499 . S
C1343 H1317 0.950 . S
C1343 C1342 1.414 . S
C1343 C1344 1.374 . S
C1344 H1318 0.950 . S
C1344 C1340 1.385 . S
C1344 C1343 1.374 . S
C1345 C1342 1.499 . S
C1345 C1346 1.373 . S
C1345 C1347 1.389 . S
C1346 H1319 0.950 . S
C1346 C1332 1.377 . S
C1346 C1345 1.373 . S
C1347 C1331 1.377 . S
C1347 C1345 1.389 . S
C1347 C1348 1.524 . S
C1348 C1347 1.524 . S
C1348 C1349 1.397 . S
C1348 C1353 1.363 . S
C1349 H1320 0.950 . S
C1349 C1348 1.397 . S
C1349 C1350 1.334 . S
C1350 H1321 0.950 . S
C1350 C1349 1.334 . S
C1350 C1351 1.287 . S
C1351 C1350 1.287 . S
C1351 C1352 1.524 . S
C1351 H1354 0.999 . S
C1352 H1322 0.950 . S
C1352 C1351 1.524 . S
C1352 C1353 1.415 . S
C1353 H1323 0.950 . S
C1353 C1348 1.363 . S
C1353 C1352 1.415 . S
H1354 C1351 0.999 . S
H1355 C1336 0.913 . S
H1356 C1374 0.951 . S
H1357 C1376 0.951 . S
H1358 C1378 0.950 . S
H1359 C1379 0.950 . S
H1360 C1381 0.950 . S
H1361 C1384 0.950 . S
H1362 C1385 0.950 . S
H1363 C1387 0.950 . S
H1364 C1388 0.950 . S
H1365 C1389 0.951 . S
H1366 C1391 0.951 . S
H1367 C1393 0.950 . S
H1368 C1394 0.950 . S
H1369 C1396 0.950 . S
H1370 C1399 0.950 . S
H1371 C1400 0.950 . S
H1372 C1402 0.950 . S
H1373 C1403 0.950 . S
C1374 H1356 0.951 . S
C1374 C1375 1.366 . S
C1374 C1376 1.388 . S
C1375 C1374 1.366 . S
C1375 C1379 1.385 . S
C1376 H1357 0.951 . S
C1376 C1374 1.388 . S
C1376 C1377 1.366 . S
C1377 C1376 1.366 . S
C1377 C1378 1.414 . S
C1377 C1380 1.499 . S
C1378 H1358 0.950 . S
C1378 C1377 1.414 . S
C1378 C1379 1.374 . S
C1379 H1359 0.950 . S
C1379 C1375 1.385 . S
C1379 C1378 1.374 . S
C1380 C1377 1.499 . S
C1380 C1381 1.373 . S
C1380 C1382 1.389 . S
C1381 H1360 0.950 . S
C1381 C1380 1.373 . S
C1381 C1397 1.377 . S
C1382 C1380 1.389 . S
C1382 C1383 1.524 . S
C1382 C1396 1.377 . S
C1383 C1382 1.524 . S
C1383 C1384 1.397 . S
C1383 C1388 1.363 . S
C1384 H1361 0.950 . S
C1384 C1383 1.397 . S
C1384 C1385 1.334 . S
C1385 H1362 0.950 . S
C1385 C1384 1.334 . S
C1385 C1386 1.287 . S
C1386 C1385 1.287 . S
C1386 C1387 1.524 . S
C1386 H1405 0.913 . S
C1387 H1363 0.950 . S
C1387 C1386 1.524 . S
C1387 C1388 1.415 . S
C1388 H1364 0.950 . S
C1388 C1383 1.363 . S
C1388 C1387 1.415 . S
C1389 H1365 0.951 . S
C1389 C1390 1.366 . S
C1389 C1391 1.388 . S
C1390 C1389 1.366 . S
C1390 C1394 1.385 . S
C1391 H1366 0.951 . S
C1391 C1389 1.388 . S
C1391 C1392 1.366 . S
C1392 C1391 1.366 . S
C1392 C1393 1.414 . S
C1392 C1395 1.499 . S
C1393 H1367 0.950 . S
C1393 C1392 1.414 . S
C1393 C1394 1.374 . S
C1394 H1368 0.950 . S
C1394 C1390 1.385 . S
C1394 C1393 1.374 . S
C1395 C1392 1.499 . S
C1395 C1396 1.373 . S
C1395 C1397 1.389 . S
C1396 H1369 0.950 . S
C1396 C1382 1.377 . S
C1396 C1395 1.373 . S
C1397 C1381 1.377 . S
C1397 C1395 1.389 . S
C1397 C1398 1.524 . S
C1398 C1397 1.524 . S
C1398 C1399 1.397 . S
C1398 C1403 1.363 . S
C1399 H1370 0.950 . S
C1399 C1398 1.397 . S
C1399 C1400 1.334 . S
C1400 H1371 0.950 . S
C1400 C1399 1.334 . S
C1400 C1401 1.287 . S
C1401 C1400 1.287 . S
C1401 C1402 1.524 . S
C1401 H1404 0.999 . S
C1402 H1372 0.950 . S
C1402 C1401 1.524 . S
C1402 C1403 1.415 . S
C1403 H1373 0.950 . S
C1403 C1398 1.363 . S
C1403 C1402 1.415 . S
H1404 C1401 0.999 . S
H1405 C1386 0.913 . S
H1406 C1424 0.951 . S
H1407 C1426 0.951 . S
H1408 C1428 0.950 . S
H1409 C1429 0.950 . S
H1410 C1431 0.950 . S
H1411 C1434 0.950 . S
H1412 C1435 0.950 . S
H1413 C1437 0.950 . S
H1414 C1438 0.950 . S
H1415 C1439 0.951 . S
H1416 C1441 0.951 . S
H1417 C1443 0.950 1_455 S
H1418 C1444 0.950 . S
H1419 C1446 0.950 . S
H1420 C1449 0.951 1_455 S
H1421 C1450 0.950 . S
H1422 C1452 0.950 . S
H1423 C1453 0.950 . S
C1424 H1406 0.951 . S
C1424 C1425 1.366 . S
C1424 C1426 1.388 . S
C1425 C1424 1.366 . S
C1425 C1429 1.385 . S
C1426 H1407 0.951 . S
C1426 C1424 1.388 . S
C1426 C1427 1.366 . S
C1427 C1426 1.366 . S
C1427 C1428 1.414 . S
C1427 C1430 1.499 . S
C1428 H1408 0.950 . S
C1428 C1427 1.414 . S
C1428 C1429 1.374 . S
C1429 H1409 0.950 . S
C1429 C1425 1.385 . S
C1429 C1428 1.374 . S
C1430 C1427 1.499 . S
C1430 C1431 1.373 . S
C1430 C1432 1.389 . S
C1431 H1410 0.950 . S
C1431 C1430 1.373 . S
C1431 C1447 1.377 . S
C1432 C1430 1.389 . S
C1432 C1433 1.524 . S
C1432 C1446 1.377 . S
C1433 C1432 1.524 . S
C1433 C1434 1.397 . S
C1433 C1438 1.363 . S
C1434 H1411 0.950 . S
C1434 C1433 1.397 . S
C1434 C1435 1.334 . S
C1435 H1412 0.950 . S
C1435 C1434 1.334 . S
C1435 C1436 1.287 . S
C1436 C1435 1.287 . S
C1436 C1437 1.524 . S
C1436 H1455 0.913 . S
C1437 H1413 0.950 . S
C1437 C1436 1.524 . S
C1437 C1438 1.415 . S
C1438 H1414 0.950 . S
C1438 C1433 1.363 . S
C1438 C1437 1.415 . S
C1439 H1415 0.951 . S
C1439 C1440 1.366 . S
C1439 C1441 1.388 . S
C1440 C1439 1.366 . S
C1440 C1444 1.385 . S
C1441 H1416 0.951 . S
C1441 C1439 1.388 . S
C1441 C1442 1.366 . S
C1442 C1441 1.366 . S
C1442 C1443 1.414 . S
C1442 C1445 1.499 1_655 S
C1443 H1417 0.950 1_655 S
C1443 C1442 1.414 . S
C1443 C1444 1.374 . S
C1444 H1418 0.950 . S
C1444 C1440 1.385 . S
C1444 C1443 1.374 . S
C1445 C1442 1.499 1_455 S
C1445 C1446 1.373 . S
C1445 C1447 1.389 . S
C1446 H1419 0.950 . S
C1446 C1432 1.377 . S
C1446 C1445 1.373 . S
C1447 C1431 1.377 . S
C1447 C1445 1.389 . S
C1447 C1448 1.524 1_455 S
C1448 C1447 1.524 1_655 S
C1448 C1449 1.397 . S
C1448 C1453 1.363 . S
C1449 H1420 0.951 1_655 S
C1449 C1448 1.397 . S
C1449 C1450 1.334 . S
C1450 H1421 0.950 . S
C1450 C1449 1.334 . S
C1450 C1451 1.287 . S
C1451 C1450 1.287 . S
C1451 C1452 1.524 . S
C1451 H1454 0.999 . S
C1452 H1422 0.950 . S
C1452 C1451 1.524 . S
C1452 C1453 1.415 . S
C1453 H1423 0.950 . S
C1453 C1448 1.363 . S
C1453 C1452 1.415 . S
H1454 C1451 0.999 . S
H1455 C1436 0.913 . S
H1456 C1474 0.951 . S
H1457 C1476 0.951 . S
H1458 C1478 0.950 . S
H1459 C1479 0.950 . S
H1460 C1481 0.950 . S
H1461 C1484 0.950 . S
H1462 C1485 0.950 . S
H1463 C1487 0.950 . S
H1464 C1488 0.950 . S
H1465 C1489 0.951 . S
H1466 C1491 0.951 . S
H1467 C1493 0.950 . S
H1468 C1494 0.950 . S
H1469 C1496 0.950 . S
H1470 C1499 0.950 . S
H1471 C1500 0.950 . S
H1472 C1502 0.950 . S
H1473 C1503 0.950 . S
C1474 H1456 0.951 . S
C1474 C1475 1.366 . S
C1474 C1476 1.388 . S
C1475 C1474 1.366 . S
C1475 C1479 1.385 . S
C1476 H1457 0.951 . S
C1476 C1474 1.388 . S
C1476 C1477 1.366 . S
C1477 C1476 1.366 . S
C1477 C1478 1.414 . S
C1477 C1480 1.499 . S
C1478 H1458 0.950 . S
C1478 C1477 1.414 . S
C1478 C1479 1.374 . S
C1479 H1459 0.950 . S
C1479 C1475 1.385 . S
C1479 C1478 1.374 . S
C1480 C1477 1.499 . S
C1480 C1481 1.373 . S
C1480 C1482 1.389 . S
C1481 H1460 0.950 . S
C1481 C1480 1.373 . S
C1481 C1497 1.377 . S
C1482 C1480 1.389 . S
C1482 C1483 1.524 . S
C1482 C1496 1.377 . S
C1483 C1482 1.524 . S
C1483 C1484 1.397 . S
C1483 C1488 1.363 . S
C1484 H1461 0.950 . S
C1484 C1483 1.397 . S
C1484 C1485 1.334 . S
C1485 H1462 0.950 . S
C1485 C1484 1.334 . S
C1485 C1486 1.287 . S
C1486 C1485 1.287 . S
C1486 C1487 1.524 . S
C1486 H1505 0.913 . S
C1487 H1463 0.950 . S
C1487 C1486 1.524 . S
C1487 C1488 1.415 . S
C1488 H1464 0.950 . S
C1488 C1483 1.363 . S
C1488 C1487 1.415 . S
C1489 H1465 0.951 . S
C1489 C1490 1.366 . S
C1489 C1491 1.388 . S
C1490 C1489 1.366 . S
C1490 C1494 1.385 . S
C1491 H1466 0.951 . S
C1491 C1489 1.388 . S
C1491 C1492 1.366 . S
C1492 C1491 1.366 . S
C1492 C1493 1.414 . S
C1492 C1495 1.499 . S
C1493 H1467 0.950 . S
C1493 C1492 1.414 . S
C1493 C1494 1.374 . S
C1494 H1468 0.950 . S
C1494 C1490 1.385 . S
C1494 C1493 1.374 . S
C1495 C1492 1.499 . S
C1495 C1496 1.373 . S
C1495 C1497 1.389 . S
C1496 H1469 0.950 . S
C1496 C1482 1.377 . S
C1496 C1495 1.373 . S
C1497 C1481 1.377 . S
C1497 C1495 1.389 . S
C1497 C1498 1.524 . S
C1498 C1497 1.524 . S
C1498 C1499 1.397 . S
C1498 C1503 1.363 . S
C1499 H1470 0.950 . S
C1499 C1498 1.397 . S
C1499 C1500 1.334 . S
C1500 H1471 0.950 . S
C1500 C1499 1.334 . S
C1500 C1501 1.287 . S
C1501 C1500 1.287 . S
C1501 C1502 1.524 . S
C1501 H1504 0.999 . S
C1502 H1472 0.950 . S
C1502 C1501 1.524 . S
C1502 C1503 1.415 . S
C1503 H1473 0.950 . S
C1503 C1498 1.363 . S
C1503 C1502 1.415 . S
H1504 C1501 0.999 . S
H1505 C1486 0.913 . S
H1506 C1524 0.951 . S
H1507 C1526 0.951 . S
H1508 C1528 0.950 1_655 S
H1509 C1529 0.950 . S
H1510 C1531 0.950 . S
H1511 C1534 0.975 . S
H1512 C1535 0.950 . S
H1513 C1537 0.950 . S
H1514 C1538 0.950 . S
H1515 C1539 0.951 . S
H1516 C1541 0.951 . S
H1517 C1543 0.950 . S
H1518 C1544 0.950 . S
H1519 C1546 0.950 . S
H1520 C1549 0.950 . S
H1521 C1550 0.950 . S
H1522 C1552 0.950 . S
H1523 C1553 0.950 . S
C1524 H1506 0.951 . S
C1524 C1525 1.366 . S
C1524 C1526 1.388 . S
C1525 C1524 1.366 . S
C1525 C1529 1.385 . S
C1526 H1507 0.951 . S
C1526 C1524 1.388 . S
C1526 C1527 1.366 . S
C1527 C1526 1.366 . S
C1527 C1528 1.414 . S
C1527 C1530 1.499 1_455 S
C1528 H1508 0.950 1_455 S
C1528 C1527 1.414 . S
C1528 C1529 1.374 . S
C1529 H1509 0.950 . S
C1529 C1525 1.385 . S
C1529 C1528 1.374 . S
C1530 C1527 1.499 1_655 S
C1530 C1531 1.373 . S
C1530 C1532 1.389 . S
C1531 H1510 0.950 . S
C1531 C1530 1.373 . S
C1531 C1547 1.377 . S
C1532 C1530 1.389 . S
C1532 C1533 1.524 1_655 S
C1532 C1546 1.377 . S
C1533 C1532 1.524 1_455 S
C1533 C1534 1.397 . S
C1533 C1538 1.363 . S
C1534 H1511 0.975 . S
C1534 C1533 1.397 . S
C1534 C1535 1.334 . S
C1535 H1512 0.950 . S
C1535 C1534 1.334 . S
C1535 C1536 1.287 . S
C1536 C1535 1.287 . S
C1536 C1537 1.524 . S
C1536 H1555 0.913 . S
C1537 H1513 0.950 . S
C1537 C1536 1.524 . S
C1537 C1538 1.415 . S
C1538 H1514 0.950 . S
C1538 C1533 1.363 . S
C1538 C1537 1.415 . S
C1539 H1515 0.951 . S
C1539 C1540 1.366 . S
C1539 C1541 1.388 . S
C1540 C1539 1.366 . S
C1540 C1544 1.385 . S
C1541 H1516 0.951 . S
C1541 C1539 1.388 . S
C1541 C1542 1.366 . S
C1542 C1541 1.366 . S
C1542 C1543 1.414 . S
C1542 C1545 1.499 . S
C1543 H1517 0.950 . S
C1543 C1542 1.414 . S
C1543 C1544 1.374 . S
C1544 H1518 0.950 . S
C1544 C1540 1.385 . S
C1544 C1543 1.374 . S
C1545 C1542 1.499 . S
C1545 C1546 1.373 . S
C1545 C1547 1.389 . S
C1546 H1519 0.950 . S
C1546 C1532 1.377 . S
C1546 C1545 1.373 . S
C1547 C1531 1.377 . S
C1547 C1545 1.389 . S
C1547 C1548 1.524 . S
C1548 C1547 1.524 . S
C1548 C1549 1.397 . S
C1548 C1553 1.363 . S
C1549 H1520 0.950 . S
C1549 C1548 1.397 . S
C1549 C1550 1.334 . S
C1550 H1521 0.950 . S
C1550 C1549 1.334 . S
C1550 C1551 1.287 . S
C1551 C1550 1.287 . S
C1551 C1552 1.524 . S
C1551 H1554 0.999 . S
C1552 H1522 0.950 . S
C1552 C1551 1.524 . S
C1552 C1553 1.415 . S
C1553 H1523 0.950 . S
C1553 C1548 1.363 . S
C1553 C1552 1.415 . S
H1554 C1551 0.999 . S
H1555 C1536 0.913 . S
H1556 C1574 0.951 . S
H1557 C1576 0.951 . S
H1558 C1578 0.950 . S
H1559 C1579 0.950 . S
H1560 C1581 0.950 . S
H1561 C1584 0.950 . S
H1562 C1585 0.950 . S
H1563 C1587 0.950 . S
H1564 C1588 0.950 . S
H1565 C1589 0.951 . S
H1566 C1591 0.951 . S
H1567 C1593 0.950 . S
H1568 C1594 0.950 . S
H1569 C1596 0.950 . S
H1570 C1599 0.950 . S
H1571 C1600 0.950 . S
H1572 C1602 0.950 . S
H1573 C1603 0.950 . S
C1574 H1556 0.951 . S
C1574 C1575 1.366 . S
C1574 C1576 1.388 . S
C1575 C1574 1.366 . S
C1575 C1579 1.385 . S
C1576 H1557 0.951 . S
C1576 C1574 1.388 . S
C1576 C1577 1.366 . S
C1577 C1576 1.366 . S
C1577 C1578 1.414 . S
C1577 C1580 1.499 . S
C1578 H1558 0.950 . S
C1578 C1577 1.414 . S
C1578 C1579 1.374 . S
C1579 H1559 0.950 . S
C1579 C1575 1.385 . S
C1579 C1578 1.374 . S
C1580 C1577 1.499 . S
C1580 C1581 1.373 . S
C1580 C1582 1.389 . S
C1581 H1560 0.950 . S
C1581 C1580 1.373 . S
C1581 C1597 1.377 . S
C1582 C1580 1.389 . S
C1582 C1583 1.524 . S
C1582 C1596 1.377 . S
C1583 C1582 1.524 . S
C1583 C1584 1.397 . S
C1583 C1588 1.363 . S
C1584 H1561 0.950 . S
C1584 C1583 1.397 . S
C1584 C1585 1.334 . S
C1585 H1562 0.950 . S
C1585 C1584 1.334 . S
C1585 C1586 1.287 . S
C1586 C1585 1.287 . S
C1586 C1587 1.524 . S
C1586 H1605 0.913 . S
C1587 H1563 0.950 . S
C1587 C1586 1.524 . S
C1587 C1588 1.415 . S
C1588 H1564 0.950 . S
C1588 C1583 1.363 . S
C1588 C1587 1.415 . S
C1589 H1565 0.951 . S
C1589 C1590 1.366 . S
C1589 C1591 1.388 . S
C1590 C1589 1.366 . S
C1590 C1594 1.385 . S
C1591 H1566 0.951 . S
C1591 C1589 1.388 . S
C1591 C1592 1.366 . S
C1592 C1591 1.366 . S
C1592 C1593 1.414 . S
C1592 C1595 1.499 . S
C1593 H1567 0.950 . S
C1593 C1592 1.414 . S
C1593 C1594 1.374 . S
C1594 H1568 0.950 . S
C1594 C1590 1.385 . S
C1594 C1593 1.374 . S
C1595 C1592 1.499 . S
C1595 C1596 1.373 . S
C1595 C1597 1.389 . S
C1596 H1569 0.950 . S
C1596 C1582 1.377 . S
C1596 C1595 1.373 . S
C1597 C1581 1.377 . S
C1597 C1595 1.389 . S
C1597 C1598 1.524 . S
C1598 C1597 1.524 . S
C1598 C1599 1.397 . S
C1598 C1603 1.363 . S
C1599 H1570 0.950 . S
C1599 C1598 1.397 . S
C1599 C1600 1.334 . S
C1600 H1571 0.950 . S
C1600 C1599 1.334 . S
C1600 C1601 1.287 . S
C1601 C1600 1.287 . S
C1601 C1602 1.524 . S
C1601 H1604 0.999 . S
C1602 H1572 0.950 . S
C1602 C1601 1.524 . S
C1602 C1603 1.415 . S
C1603 H1573 0.950 . S
C1603 C1598 1.363 . S
C1603 C1602 1.415 . S
H1604 C1601 0.999 . S
H1605 C1586 0.913 . S
H1606 C1624 0.951 . S
H1607 C1626 0.951 . S
H1608 C1628 0.950 . S
H1609 C1629 0.950 . S
H1610 C1631 0.950 . S
H1611 C1634 0.950 . S
H1612 C1635 0.950 . S
H1613 C1637 0.950 . S
H1614 C1638 0.950 . S
H1615 C1639 0.951 . S
H1616 C1641 0.951 . S
H1617 C1643 0.950 . S
H1618 C1644 0.950 . S
H1619 C1646 0.950 . S
H1620 C1649 0.950 . S
H1621 C1650 0.950 . S
H1622 C1652 0.950 . S
H1623 C1653 0.950 . S
C1624 H1606 0.951 . S
C1624 C1625 1.366 . S
C1624 C1626 1.388 . S
C1625 C1624 1.366 . S
C1625 C1629 1.385 . S
C1626 H1607 0.951 . S
C1626 C1624 1.388 . S
C1626 C1627 1.366 . S
C1627 C1626 1.366 . S
C1627 C1628 1.414 . S
C1627 C1630 1.499 . S
C1628 H1608 0.950 . S
C1628 C1627 1.414 . S
C1628 C1629 1.374 . S
C1629 H1609 0.950 . S
C1629 C1625 1.385 . S
C1629 C1628 1.374 . S
C1630 C1627 1.499 . S
C1630 C1631 1.373 . S
C1630 C1632 1.389 . S
C1631 H1610 0.950 . S
C1631 C1630 1.373 . S
C1631 C1647 1.377 . S
C1632 C1630 1.389 . S
C1632 C1633 1.524 . S
C1632 C1646 1.377 . S
C1633 C1632 1.524 . S
C1633 C1634 1.397 . S
C1633 C1638 1.363 . S
C1634 H1611 0.950 . S
C1634 C1633 1.397 . S
C1634 C1635 1.334 . S
C1635 H1612 0.950 . S
C1635 C1634 1.334 . S
C1635 C1636 1.287 . S
C1636 C1635 1.287 . S
C1636 C1637 1.524 . S
C1636 H1655 0.913 . S
C1637 H1613 0.950 . S
C1637 C1636 1.524 . S
C1637 C1638 1.415 . S
C1638 H1614 0.950 . S
C1638 C1633 1.363 . S
C1638 C1637 1.415 . S
C1639 H1615 0.951 . S
C1639 C1640 1.366 . S
C1639 C1641 1.388 . S
C1640 C1639 1.366 . S
C1640 C1644 1.385 . S
C1641 H1616 0.951 . S
C1641 C1639 1.388 . S
C1641 C1642 1.366 . S
C1642 C1641 1.366 . S
C1642 C1643 1.414 . S
C1642 C1645 1.499 . S
C1643 H1617 0.950 . S
C1643 C1642 1.414 . S
C1643 C1644 1.374 . S
C1644 H1618 0.950 . S
C1644 C1640 1.385 . S
C1644 C1643 1.374 . S
C1645 C1642 1.499 . S
C1645 C1646 1.373 . S
C1645 C1647 1.389 . S
C1646 H1619 0.950 . S
C1646 C1632 1.377 . S
C1646 C1645 1.373 . S
C1647 C1631 1.377 . S
C1647 C1645 1.389 . S
C1647 C1648 1.524 . S
C1648 C1647 1.524 . S
C1648 C1649 1.397 . S
C1648 C1653 1.363 . S
C1649 H1620 0.950 . S
C1649 C1648 1.397 . S
C1649 C1650 1.334 . S
C1650 H1621 0.950 . S
C1650 C1649 1.334 . S
C1650 C1651 1.287 . S
C1651 C1650 1.287 . S
C1651 C1652 1.524 . S
C1651 H1654 0.999 . S
C1652 H1622 0.950 . S
C1652 C1651 1.524 . S
C1652 C1653 1.415 . S
C1653 H1623 0.950 . S
C1653 C1648 1.363 . S
C1653 C1652 1.415 . S
H1654 C1651 0.999 . S
H1655 C1636 0.913 . S
H1656 C1674 0.951 . S
H1657 C1676 0.951 . S
H1658 C1678 0.950 . S
H1659 C1679 0.950 . S
H1660 C1681 0.950 . S
H1661 C1684 0.950 . S
H1662 C1685 0.950 . S
H1663 C1687 0.950 . S
H1664 C1688 0.950 . S
H1665 C1689 0.951 . S
H1666 C1691 0.951 . S
H1667 C1693 0.950 . S
H1668 C1694 0.950 . S
H1669 C1696 0.950 . S
H1670 C1699 0.950 . S
H1671 C1700 0.950 . S
H1672 C1702 0.950 . S
H1673 C1703 0.950 . S
C1674 H1656 0.951 . S
C1674 C1675 1.366 . S
C1674 C1676 1.388 . S
C1675 C1674 1.366 . S
C1675 C1679 1.385 . S
C1676 H1657 0.951 . S
C1676 C1674 1.388 . S
C1676 C1677 1.366 . S
C1677 C1676 1.366 . S
C1677 C1678 1.414 . S
C1677 C1680 1.499 . S
C1678 H1658 0.950 . S
C1678 C1677 1.414 . S
C1678 C1679 1.374 . S
C1679 H1659 0.950 . S
C1679 C1675 1.385 . S
C1679 C1678 1.374 . S
C1680 C1677 1.499 . S
C1680 C1681 1.373 . S
C1680 C1682 1.389 . S
C1681 H1660 0.950 . S
C1681 C1680 1.373 . S
C1681 C1697 1.377 . S
C1682 C1680 1.389 . S
C1682 C1683 1.524 . S
C1682 C1696 1.377 . S
C1683 C1682 1.524 . S
C1683 C1684 1.397 . S
C1683 C1688 1.363 . S
C1684 H1661 0.950 . S
C1684 C1683 1.397 . S
C1684 C1685 1.334 . S
C1685 H1662 0.950 . S
C1685 C1684 1.334 . S
C1685 C1686 1.287 . S
C1686 C1685 1.287 . S
C1686 C1687 1.524 . S
C1686 H1705 0.913 . S
C1687 H1663 0.950 . S
C1687 C1686 1.524 . S
C1687 C1688 1.415 . S
C1688 H1664 0.950 . S
C1688 C1683 1.363 . S
C1688 C1687 1.415 . S
C1689 H1665 0.951 . S
C1689 C1690 1.366 . S
C1689 C1691 1.388 . S
C1690 C1689 1.366 . S
C1690 C1694 1.385 . S
C1691 H1666 0.951 . S
C1691 C1689 1.388 . S
C1691 C1692 1.366 . S
C1692 C1691 1.366 . S
C1692 C1693 1.414 . S
C1692 C1695 1.499 . S
C1693 H1667 0.950 . S
C1693 C1692 1.414 . S
C1693 C1694 1.374 . S
C1694 H1668 0.950 . S
C1694 C1690 1.385 . S
C1694 C1693 1.374 . S
C1695 C1692 1.499 . S
C1695 C1696 1.373 . S
C1695 C1697 1.389 . S
C1696 H1669 0.950 . S
C1696 C1682 1.377 . S
C1696 C1695 1.373 . S
C1697 C1681 1.377 . S
C1697 C1695 1.389 . S
C1697 C1698 1.524 . S
C1698 C1697 1.524 . S
C1698 C1699 1.397 . S
C1698 C1703 1.363 . S
C1699 H1670 0.950 . S
C1699 C1698 1.397 . S
C1699 C1700 1.334 . S
C1700 H1671 0.950 . S
C1700 C1699 1.334 . S
C1700 C1701 1.287 . S
C1701 C1700 1.287 . S
C1701 C1702 1.524 . S
C1701 H1704 0.999 . S
C1702 H1672 0.950 . S
C1702 C1701 1.524 . S
C1702 C1703 1.415 . S
C1703 H1673 0.950 . S
C1703 C1698 1.363 . S
C1703 C1702 1.415 . S
H1704 C1701 0.999 . S
H1705 C1686 0.913 . S
H1706 C1724 0.951 . S
H1707 C1726 0.951 . S
H1708 C1728 0.950 . S
H1709 C1729 0.950 . S
H1710 C1731 0.950 . S
H1711 C1734 0.950 . S
H1712 C1735 0.950 . S
H1713 C1737 0.950 . S
H1714 C1738 0.950 . S
H1715 C1739 0.951 . S
H1716 C1741 0.951 . S
H1717 C1743 0.950 . S
H1718 C1744 0.950 . S
H1719 C1746 0.950 . S
H1720 C1749 0.950 . S
H1721 C1750 0.950 . S
H1722 C1752 0.950 . S
H1723 C1753 0.950 . S
C1724 H1706 0.951 . S
C1724 C1725 1.366 . S
C1724 C1726 1.388 . S
C1725 C1724 1.366 . S
C1725 C1729 1.385 . S
C1726 H1707 0.951 . S
C1726 C1724 1.388 . S
C1726 C1727 1.366 . S
C1727 C1726 1.366 . S
C1727 C1728 1.414 . S
C1727 C1730 1.499 . S
C1728 H1708 0.950 . S
C1728 C1727 1.414 . S
C1728 C1729 1.374 . S
C1729 H1709 0.950 . S
C1729 C1725 1.385 . S
C1729 C1728 1.374 . S
C1730 C1727 1.499 . S
C1730 C1731 1.373 . S
C1730 C1732 1.389 . S
C1731 H1710 0.950 . S
C1731 C1730 1.373 . S
C1731 C1747 1.377 . S
C1732 C1730 1.389 . S
C1732 C1733 1.524 . S
C1732 C1746 1.377 . S
C1733 C1732 1.524 . S
C1733 C1734 1.397 . S
C1733 C1738 1.363 . S
C1734 H1711 0.950 . S
C1734 C1733 1.397 . S
C1734 C1735 1.334 . S
C1735 H1712 0.950 . S
C1735 C1734 1.334 . S
C1735 C1736 1.287 . S
C1736 C1735 1.287 . S
C1736 C1737 1.524 . S
C1736 H1755 0.913 . S
C1737 H1713 0.950 . S
C1737 C1736 1.524 . S
C1737 C1738 1.415 . S
C1738 H1714 0.950 . S
C1738 C1733 1.363 . S
C1738 C1737 1.415 . S
C1739 H1715 0.951 . S
C1739 C1740 1.366 . S
C1739 C1741 1.388 . S
C1740 C1739 1.366 . S
C1740 C1744 1.385 . S
C1741 H1716 0.951 . S
C1741 C1739 1.388 . S
C1741 C1742 1.366 . S
C1742 C1741 1.366 . S
C1742 C1743 1.414 . S
C1742 C1745 1.499 . S
C1743 H1717 0.950 . S
C1743 C1742 1.414 . S
C1743 C1744 1.374 . S
C1744 H1718 0.950 . S
C1744 C1740 1.385 . S
C1744 C1743 1.374 . S
C1745 C1742 1.499 . S
C1745 C1746 1.373 . S
C1745 C1747 1.389 . S
C1746 H1719 0.950 . S
C1746 C1732 1.377 . S
C1746 C1745 1.373 . S
C1747 C1731 1.377 . S
C1747 C1745 1.389 . S
C1747 C1748 1.524 . S
C1748 C1747 1.524 . S
C1748 C1749 1.397 . S
C1748 C1753 1.363 . S
C1749 H1720 0.950 . S
C1749 C1748 1.397 . S
C1749 C1750 1.334 . S
C1750 H1721 0.950 . S
C1750 C1749 1.334 . S
C1750 C1751 1.287 . S
C1751 C1750 1.287 . S
C1751 C1752 1.524 . S
C1751 H1754 0.999 . S
C1752 H1722 0.950 . S
C1752 C1751 1.524 . S
C1752 C1753 1.415 . S
C1753 H1723 0.950 . S
C1753 C1748 1.363 . S
C1753 C1752 1.415 . S
H1754 C1751 0.999 . S
H1755 C1736 0.913 . S
H1756 C1774 0.951 . S
H1757 C1776 0.951 . S
H1758 C1778 0.950 . S
H1759 C1779 0.950 . S
H1760 C1781 0.950 . S
H1761 C1784 0.950 . S
H1762 C1785 0.950 . S
H1763 C1787 0.950 . S
H1764 C1788 0.950 . S
H1765 C1789 0.951 . S
H1766 C1791 0.951 . S
H1767 C1793 0.950 . S
H1768 C1794 0.950 . S
H1769 C1796 0.950 . S
H1770 C1799 0.950 . S
H1771 C1800 0.950 . S
H1772 C1802 0.950 . S
H1773 C1803 0.950 . S
C1774 H1756 0.951 . S
C1774 C1775 1.366 . S
C1774 C1776 1.388 . S
C1775 C1774 1.366 . S
C1775 C1779 1.385 . S
C1776 H1757 0.951 . S
C1776 C1774 1.388 . S
C1776 C1777 1.366 . S
C1777 C1776 1.366 . S
C1777 C1778 1.414 . S
C1777 C1780 1.499 . S
C1778 H1758 0.950 . S
C1778 C1777 1.414 . S
C1778 C1779 1.374 . S
C1779 H1759 0.950 . S
C1779 C1775 1.385 . S
C1779 C1778 1.374 . S
C1780 C1777 1.499 . S
C1780 C1781 1.373 . S
C1780 C1782 1.389 . S
C1781 H1760 0.950 . S
C1781 C1780 1.373 . S
C1781 C1797 1.377 . S
C1782 C1780 1.389 . S
C1782 C1783 1.524 . S
C1782 C1796 1.377 . S
C1783 C1782 1.524 . S
C1783 C1784 1.397 . S
C1783 C1788 1.363 . S
C1784 H1761 0.950 . S
C1784 C1783 1.397 . S
C1784 C1785 1.334 . S
C1785 H1762 0.950 . S
C1785 C1784 1.334 . S
C1785 C1786 1.287 . S
C1786 C1785 1.287 . S
C1786 C1787 1.524 . S
C1786 H1805 0.913 . S
C1787 H1763 0.950 . S
C1787 C1786 1.524 . S
C1787 C1788 1.415 . S
C1788 H1764 0.950 . S
C1788 C1783 1.363 . S
C1788 C1787 1.415 . S
C1789 H1765 0.951 . S
C1789 C1790 1.366 . S
C1789 C1791 1.388 . S
C1790 C1789 1.366 . S
C1790 C1794 1.385 . S
C1791 H1766 0.951 . S
C1791 C1789 1.388 . S
C1791 C1792 1.366 . S
C1792 C1791 1.366 . S
C1792 C1793 1.414 . S
C1792 C1795 1.499 . S
C1793 H1767 0.950 . S
C1793 C1792 1.414 . S
C1793 C1794 1.374 . S
C1794 H1768 0.950 . S
C1794 C1790 1.385 . S
C1794 C1793 1.374 . S
C1795 C1792 1.499 . S
C1795 C1796 1.373 . S
C1795 C1797 1.389 . S
C1796 H1769 0.950 . S
C1796 C1782 1.377 . S
C1796 C1795 1.373 . S
C1797 C1781 1.377 . S
C1797 C1795 1.389 . S
C1797 C1798 1.524 . S
C1798 C1797 1.524 . S
C1798 C1799 1.397 . S
C1798 C1803 1.363 . S
C1799 H1770 0.950 . S
C1799 C1798 1.397 . S
C1799 C1800 1.334 . S
C1800 H1771 0.950 . S
C1800 C1799 1.334 . S
C1800 C1801 1.287 . S
C1801 C1800 1.287 . S
C1801 C1802 1.524 . S
C1801 H1804 0.999 . S
C1802 H1772 0.950 . S
C1802 C1801 1.524 . S
C1802 C1803 1.415 . S
C1803 H1773 0.950 . S
C1803 C1798 1.363 . S
C1803 C1802 1.415 . S
H1804 C1801 0.999 . S
H1805 C1786 0.913 . S
H1806 C1824 0.951 . S
H1807 C1826 0.951 1_655 S
H1808 C1828 0.950 . S
H1809 C1829 0.950 . S
H1810 C1831 0.950 . S
H1811 C1834 0.950 . S
H1812 C1835 0.950 . S
H1813 C1837 0.950 . S
H1814 C1838 0.950 . S
H1815 C1839 0.951 . S
H1816 C1841 0.951 . S
H1817 C1843 0.950 . S
H1818 C1844 0.950 . S
H1819 C1846 0.950 . S
H1820 C1849 0.950 . S
H1821 C1850 0.950 . S
H1822 C1852 0.950 . S
H1823 C1853 0.950 . S
C1824 H1806 0.951 . S
C1824 C1825 1.366 . S
C1824 C1826 1.388 . S
C1825 C1824 1.366 . S
C1825 C1829 1.385 . S
C1826 H1807 0.951 1_455 S
C1826 C1824 1.388 . S
C1826 C1827 1.366 . S
C1827 C1826 1.366 . S
C1827 C1828 1.414 . S
C1827 C1830 1.499 1_455 S
C1828 H1808 0.950 . S
C1828 C1827 1.414 . S
C1828 C1829 1.374 . S
C1829 H1809 0.950 . S
C1829 C1825 1.385 . S
C1829 C1828 1.374 . S
C1830 C1827 1.499 1_655 S
C1830 C1831 1.373 . S
C1830 C1832 1.389 . S
C1831 H1810 0.950 . S
C1831 C1830 1.373 . S
C1831 C1847 1.377 . S
C1832 C1830 1.389 . S
C1832 C1833 1.524 . S
C1832 C1846 1.377 . S
C1833 C1832 1.524 . S
C1833 C1834 1.397 1_655 S
C1833 C1838 1.363 . S
C1834 H1811 0.950 . S
C1834 C1833 1.397 1_455 S
C1834 C1835 1.334 . S
C1835 H1812 0.950 . S
C1835 C1834 1.334 . S
C1835 C1836 1.287 . S
C1836 C1835 1.287 . S
C1836 C1837 1.524 1_455 S
C1836 H1855 0.913 . S
C1837 H1813 0.950 . S
C1837 C1836 1.524 1_655 S
C1837 C1838 1.415 . S
C1838 H1814 0.950 . S
C1838 C1833 1.363 . S
C1838 C1837 1.415 . S
C1839 H1815 0.951 . S
C1839 C1840 1.366 . S
C1839 C1841 1.388 . S
C1840 C1839 1.366 . S
C1840 C1844 1.385 . S
C1841 H1816 0.951 . S
C1841 C1839 1.388 . S
C1841 C1842 1.366 . S
C1842 C1841 1.366 . S
C1842 C1843 1.414 . S
C1842 C1845 1.499 . S
C1843 H1817 0.950 . S
C1843 C1842 1.414 . S
C1843 C1844 1.374 . S
C1844 H1818 0.950 . S
C1844 C1840 1.385 . S
C1844 C1843 1.374 . S
C1845 C1842 1.499 . S
C1845 C1846 1.373 . S
C1845 C1847 1.389 . S
C1846 H1819 0.950 . S
C1846 C1832 1.377 . S
C1846 C1845 1.373 . S
C1847 C1831 1.377 . S
C1847 C1845 1.389 . S
C1847 C1848 1.524 . S
C1848 C1847 1.524 . S
C1848 C1849 1.397 . S
C1848 C1853 1.363 . S
C1849 H1820 0.950 . S
C1849 C1848 1.397 . S
C1849 C1850 1.334 . S
C1850 H1821 0.950 . S
C1850 C1849 1.334 . S
C1850 C1851 1.287 . S
C1851 C1850 1.287 . S
C1851 C1852 1.524 . S
C1851 H1854 0.999 . S
C1852 H1822 0.950 . S
C1852 C1851 1.524 . S
C1852 C1853 1.415 . S
C1853 H1823 0.950 . S
C1853 C1848 1.363 . S
C1853 C1852 1.415 . S
H1854 C1851 0.999 . S
H1855 C1836 0.913 . S
H1856 C1874 0.951 . S
H1857 C1876 0.951 . S
H1858 C1878 0.950 . S
H1859 C1879 0.950 . S
H1860 C1881 0.950 . S
H1861 C1884 0.950 . S
H1862 C1885 0.950 . S
H1863 C1887 0.950 . S
H1864 C1888 0.950 . S
H1865 C1889 0.951 . S
H1866 C1891 0.951 . S
H1867 C1893 0.950 . S
H1868 C1894 0.950 . S
H1869 C1896 0.950 . S
H1870 C1899 0.950 . S
H1871 C1900 0.950 . S
H1872 C1902 0.950 . S
H1873 C1903 0.950 . S
C1874 H1856 0.951 . S
C1874 C1875 1.366 . S
C1874 C1876 1.388 . S
C1875 C1874 1.366 . S
C1875 C1879 1.385 . S
C1876 H1857 0.951 . S
C1876 C1874 1.388 . S
C1876 C1877 1.366 . S
C1877 C1876 1.366 . S
C1877 C1878 1.414 . S
C1877 C1880 1.499 . S
C1878 H1858 0.950 . S
C1878 C1877 1.414 . S
C1878 C1879 1.374 . S
C1879 H1859 0.950 . S
C1879 C1875 1.385 . S
C1879 C1878 1.374 . S
C1880 C1877 1.499 . S
C1880 C1881 1.373 . S
C1880 C1882 1.389 . S
C1881 H1860 0.950 . S
C1881 C1880 1.373 . S
C1881 C1897 1.377 . S
C1882 C1880 1.389 . S
C1882 C1883 1.524 . S
C1882 C1896 1.377 . S
C1883 C1882 1.524 . S
C1883 C1884 1.397 . S
C1883 C1888 1.363 . S
C1884 H1861 0.950 . S
C1884 C1883 1.397 . S
C1884 C1885 1.334 . S
C1885 H1862 0.950 . S
C1885 C1884 1.334 . S
C1885 C1886 1.287 . S
C1886 C1885 1.287 . S
C1886 C1887 1.524 . S
C1886 H1905 0.913 . S
C1887 H1863 0.950 . S
C1887 C1886 1.524 . S
C1887 C1888 1.415 . S
C1888 H1864 0.950 . S
C1888 C1883 1.363 . S
C1888 C1887 1.415 . S
C1889 H1865 0.951 . S
C1889 C1890 1.366 . S
C1889 C1891 1.388 . S
C1890 C1889 1.366 . S
C1890 C1894 1.385 . S
C1891 H1866 0.951 . S
C1891 C1889 1.388 . S
C1891 C1892 1.366 . S
C1892 C1891 1.366 . S
C1892 C1893 1.414 . S
C1892 C1895 1.499 . S
C1893 H1867 0.950 . S
C1893 C1892 1.414 . S
C1893 C1894 1.374 . S
C1894 H1868 0.950 . S
C1894 C1890 1.385 . S
C1894 C1893 1.374 . S
C1895 C1892 1.499 . S
C1895 C1896 1.373 . S
C1895 C1897 1.389 . S
C1896 H1869 0.950 . S
C1896 C1882 1.377 . S
C1896 C1895 1.373 . S
C1897 C1881 1.377 . S
C1897 C1895 1.389 . S
C1897 C1898 1.524 . S
C1898 C1897 1.524 . S
C1898 C1899 1.397 . S
C1898 C1903 1.363 . S
C1899 H1870 0.950 . S
C1899 C1898 1.397 . S
C1899 C1900 1.334 . S
C1900 H1871 0.950 . S
C1900 C1899 1.334 . S
C1900 C1901 1.287 . S
C1901 C1900 1.287 . S
C1901 C1902 1.524 . S
C1901 H1904 0.999 . S
C1902 H1872 0.950 . S
C1902 C1901 1.524 . S
C1902 C1903 1.415 . S
C1903 H1873 0.950 . S
C1903 C1898 1.363 . S
C1903 C1902 1.415 . S
H1904 C1901 0.999 . S
H1905 C1886 0.913 . S
H1906 C1924 0.951 . S
H1907 C1926 0.951 . S
H1908 C1928 0.950 . S
H1909 C1929 0.950 . S
H1910 C1931 0.950 . S
H1911 C1934 0.950 . S
H1912 C1935 0.950 . S
H1913 C1937 0.950 . S
H1914 C1938 0.950 . S
H1915 C1939 0.951 . S
H1916 C1941 0.951 . S
H1917 C1943 0.950 . S
H1918 C1944 0.950 . S
H1919 C1946 0.950 . S
H1920 C1949 0.950 . S
H1921 C1950 0.950 . S
H1922 C1952 0.950 . S
H1923 C1953 0.950 . S
C1924 H1906 0.951 . S
C1924 C1925 1.366 . S
C1924 C1926 1.388 . S
C1925 C1924 1.366 . S
C1925 C1929 1.385 . S
C1926 H1907 0.951 . S
C1926 C1924 1.388 . S
C1926 C1927 1.366 . S
C1927 C1926 1.366 . S
C1927 C1928 1.414 . S
C1927 C1930 1.499 . S
C1928 H1908 0.950 . S
C1928 C1927 1.414 . S
C1928 C1929 1.374 . S
C1929 H1909 0.950 . S
C1929 C1925 1.385 . S
C1929 C1928 1.374 . S
C1930 C1927 1.499 . S
C1930 C1931 1.373 . S
C1930 C1932 1.389 . S
C1931 H1910 0.950 . S
C1931 C1930 1.373 . S
C1931 C1947 1.377 . S
C1932 C1930 1.389 . S
C1932 C1933 1.524 . S
C1932 C1946 1.377 . S
C1933 C1932 1.524 . S
C1933 C1934 1.397 . S
C1933 C1938 1.363 . S
C1934 H1911 0.950 . S
C1934 C1933 1.397 . S
C1934 C1935 1.334 . S
C1935 H1912 0.950 . S
C1935 C1934 1.334 . S
C1935 C1936 1.287 . S
C1936 C1935 1.287 . S
C1936 C1937 1.524 . S
C1936 H1955 0.913 . S
C1937 H1913 0.950 . S
C1937 C1936 1.524 . S
C1937 C1938 1.415 . S
C1938 H1914 0.950 . S
C1938 C1933 1.363 . S
C1938 C1937 1.415 . S
C1939 H1915 0.951 . S
C1939 C1940 1.366 . S
C1939 C1941 1.388 . S
C1940 C1939 1.366 . S
C1940 C1944 1.385 . S
C1941 H1916 0.951 . S
C1941 C1939 1.388 . S
C1941 C1942 1.366 . S
C1942 C1941 1.366 . S
C1942 C1943 1.414 . S
C1942 C1945 1.499 . S
C1943 H1917 0.950 . S
C1943 C1942 1.414 . S
C1943 C1944 1.374 . S
C1944 H1918 0.950 . S
C1944 C1940 1.385 . S
C1944 C1943 1.374 . S
C1945 C1942 1.499 . S
C1945 C1946 1.373 . S
C1945 C1947 1.389 . S
C1946 H1919 0.950 . S
C1946 C1932 1.377 . S
C1946 C1945 1.373 . S
C1947 C1931 1.377 . S
C1947 C1945 1.389 . S
C1947 C1948 1.524 . S
C1948 C1947 1.524 . S
C1948 C1949 1.397 . S
C1948 C1953 1.363 . S
C1949 H1920 0.950 . S
C1949 C1948 1.397 . S
C1949 C1950 1.334 . S
C1950 H1921 0.950 . S
C1950 C1949 1.334 . S
C1950 C1951 1.287 . S
C1951 C1950 1.287 . S
C1951 C1952 1.524 . S
C1951 H1954 0.999 . S
C1952 H1922 0.950 . S
C1952 C1951 1.524 . S
C1952 C1953 1.415 . S
C1953 H1923 0.950 . S
C1953 C1948 1.363 . S
C1953 C1952 1.415 . S
H1954 C1951 0.999 . S
H1955 C1936 0.913 . S
H1956 C1974 0.951 . S
H1957 C1976 0.951 . S
H1958 C1978 0.950 . S
H1959 C1979 0.950 . S
H1960 C1981 0.950 . S
H1961 C1984 0.950 . S
H1962 C1985 0.950 . S
H1963 C1987 0.950 . S
H1964 C1988 0.950 . S
H1965 C1989 0.951 . S
H1966 C1991 0.951 . S
H1967 C1993 0.950 . S
H1968 C1994 0.950 . S
H1969 C1996 0.950 . S
H1970 C1999 0.950 . S
H1971 C2000 0.950 . S
H1972 C2002 0.950 . S
H1973 C2003 0.950 . S
C1974 H1956 0.951 . S
C1974 C1975 1.366 . S
C1974 C1976 1.388 . S
C1975 C1974 1.366 . S
C1975 C1979 1.385 . S
C1976 H1957 0.951 . S
C1976 C1974 1.388 . S
C1976 C1977 1.366 . S
C1977 C1976 1.366 . S
C1977 C1978 1.414 . S
C1977 C1980 1.499 . S
C1978 H1958 0.950 . S
C1978 C1977 1.414 . S
C1978 C1979 1.374 . S
C1979 H1959 0.950 . S
C1979 C1975 1.385 . S
C1979 C1978 1.374 . S
C1980 C1977 1.499 . S
C1980 C1981 1.373 . S
C1980 C1982 1.389 . S
C1981 H1960 0.950 . S
C1981 C1980 1.373 . S
C1981 C1997 1.377 . S
C1982 C1980 1.389 . S
C1982 C1983 1.524 . S
C1982 C1996 1.377 . S
C1983 C1982 1.524 . S
C1983 C1984 1.397 . S
C1983 C1988 1.363 . S
C1984 H1961 0.950 . S
C1984 C1983 1.397 . S
C1984 C1985 1.334 . S
C1985 H1962 0.950 . S
C1985 C1984 1.334 . S
C1985 C1986 1.287 . S
C1986 C1985 1.287 . S
C1986 C1987 1.524 . S
C1986 H2005 0.913 . S
C1987 H1963 0.950 . S
C1987 C1986 1.524 . S
C1987 C1988 1.415 . S
C1988 H1964 0.950 . S
C1988 C1983 1.363 . S
C1988 C1987 1.415 . S
C1989 H1965 0.951 . S
C1989 C1990 1.366 . S
C1989 C1991 1.388 . S
C1990 C1989 1.366 . S
C1990 C1994 1.385 . S
C1991 H1966 0.951 . S
C1991 C1989 1.388 . S
C1991 C1992 1.366 . S
C1992 C1991 1.366 . S
C1992 C1993 1.414 . S
C1992 C1995 1.499 . S
C1993 H1967 0.950 . S
C1993 C1992 1.414 . S
C1993 C1994 1.374 . S
C1994 H1968 0.950 . S
C1994 C1990 1.385 . S
C1994 C1993 1.374 . S
C1995 C1992 1.499 . S
C1995 C1996 1.373 . S
C1995 C1997 1.389 . S
C1996 H1969 0.950 . S
C1996 C1982 1.377 . S
C1996 C1995 1.373 . S
C1997 C1981 1.377 . S
C1997 C1995 1.389 . S
C1997 C1998 1.524 . S
C1998 C1997 1.524 . S
C1998 C1999 1.397 . S
C1998 C2003 1.363 . S
C1999 H1970 0.950 . S
C1999 C1998 1.397 . S
C1999 C2000 1.334 . S
C2000 H1971 0.950 . S
C2000 C1999 1.334 . S
C2000 C2001 1.287 . S
C2001 C2000 1.287 . S
C2001 C2002 1.524 . S
C2001 H2004 0.999 . S
C2002 H1972 0.950 . S
C2002 C2001 1.524 . S
C2002 C2003 1.415 . S
C2003 H1973 0.950 . S
C2003 C1998 1.363 . S
C2003 C2002 1.415 . S
H2004 C2001 0.999 . S
H2005 C1986 0.913 . S
H2006 C2024 0.951 . S
H2007 C2026 0.951 . S
H2008 C2028 0.950 . S
H2009 C2029 0.950 . S
H2010 C2031 0.950 . S
H2011 C2034 0.950 . S
H2012 C2035 0.950 . S
H2013 C2037 0.950 . S
H2014 C2038 0.950 . S
H2015 C2039 0.951 . S
H2016 C2041 0.951 . S
H2017 C2043 0.950 1_655 S
H2018 C2044 0.950 . S
H2019 C2046 0.950 . S
H2020 C2049 0.950 . S
H2021 C2050 0.950 . S
H2022 C2052 0.950 . S
H2023 C2053 0.950 . S
C2024 H2006 0.951 . S
C2024 C2025 1.366 . S
C2024 C2026 1.388 . S
C2025 C2024 1.366 . S
C2025 C2029 1.385 . S
C2026 H2007 0.951 . S
C2026 C2024 1.388 . S
C2026 C2027 1.366 . S
C2027 C2026 1.366 . S
C2027 C2028 1.414 . S
C2027 C2030 1.499 . S
C2028 H2008 0.950 . S
C2028 C2027 1.414 . S
C2028 C2029 1.374 . S
C2029 H2009 0.950 . S
C2029 C2025 1.385 . S
C2029 C2028 1.374 . S
C2030 C2027 1.499 . S
C2030 C2031 1.373 . S
C2030 C2032 1.389 . S
C2031 H2010 0.950 . S
C2031 C2030 1.373 . S
C2031 C2047 1.377 . S
C2032 C2030 1.389 . S
C2032 C2033 1.524 . S
C2032 C2046 1.377 . S
C2033 C2032 1.524 . S
C2033 C2034 1.397 . S
C2033 C2038 1.363 . S
C2034 H2011 0.950 . S
C2034 C2033 1.397 . S
C2034 C2035 1.334 . S
C2035 H2012 0.950 . S
C2035 C2034 1.334 . S
C2035 C2036 1.287 . S
C2036 C2035 1.287 . S
C2036 C2037 1.524 . S
C2036 H2055 0.913 . S
C2037 H2013 0.950 . S
C2037 C2036 1.524 . S
C2037 C2038 1.415 . S
C2038 H2014 0.950 . S
C2038 C2033 1.363 . S
C2038 C2037 1.415 . S
C2039 H2015 0.951 . S
C2039 C2040 1.366 . S
C2039 C2041 1.388 . S
C2040 C2039 1.366 . S
C2040 C2044 1.385 . S
C2041 H2016 0.951 . S
C2041 C2039 1.388 . S
C2041 C2042 1.366 . S
C2042 C2041 1.366 . S
C2042 C2043 1.414 . S
C2042 C2045 1.499 1_455 S
C2043 H2017 0.950 1_455 S
C2043 C2042 1.414 . S
C2043 C2044 1.374 . S
C2044 H2018 0.950 . S
C2044 C2040 1.385 . S
C2044 C2043 1.374 . S
C2045 C2042 1.499 1_655 S
C2045 C2046 1.373 . S
C2045 C2047 1.389 . S
C2046 H2019 0.950 . S
C2046 C2032 1.377 . S
C2046 C2045 1.373 . S
C2047 C2031 1.377 . S
C2047 C2045 1.389 . S
C2047 C2048 1.524 1_655 S
C2048 C2047 1.524 1_455 S
C2048 C2049 1.397 . S
C2048 C2053 1.363 . S
C2049 H2020 0.950 . S
C2049 C2048 1.397 . S
C2049 C2050 1.334 . S
C2050 H2021 0.950 . S
C2050 C2049 1.334 . S
C2050 C2051 1.287 . S
C2051 C2050 1.287 . S
C2051 C2052 1.524 . S
C2051 H2054 0.999 . S
C2052 H2022 0.950 . S
C2052 C2051 1.524 . S
C2052 C2053 1.415 . S
C2053 H2023 0.950 . S
C2053 C2048 1.363 . S
C2053 C2052 1.415 . S
H2054 C2051 0.999 . S
H2055 C2036 0.913 . S
H2056 C2074 0.951 . S
H2057 C2076 0.951 . S
H2058 C2078 0.950 . S
H2059 C2079 0.950 . S
H2060 C2081 0.950 . S
H2061 C2084 0.950 . S
H2062 C2085 0.950 . S
H2063 C2087 0.950 . S
H2064 C2088 0.950 . S
H2065 C2089 0.951 . S
H2066 C2091 0.951 . S
H2067 C2093 0.950 . S
H2068 C2094 0.950 . S
H2069 C2096 0.950 . S
H2070 C2099 0.950 . S
H2071 C2100 0.950 . S
H2072 C2102 0.950 . S
H2073 C2103 0.950 . S
C2074 H2056 0.951 . S
C2074 C2075 1.366 . S
C2074 C2076 1.388 . S
C2075 C2074 1.366 . S
C2075 C2079 1.385 . S
C2076 H2057 0.951 . S
C2076 C2074 1.388 . S
C2076 C2077 1.366 . S
C2077 C2076 1.366 . S
C2077 C2078 1.414 . S
C2077 C2080 1.499 . S
C2078 H2058 0.950 . S
C2078 C2077 1.414 . S
C2078 C2079 1.374 . S
C2079 H2059 0.950 . S
C2079 C2075 1.385 . S
C2079 C2078 1.374 . S
C2080 C2077 1.499 . S
C2080 C2081 1.373 . S
C2080 C2082 1.389 . S
C2081 H2060 0.950 . S
C2081 C2080 1.373 . S
C2081 C2097 1.377 . S
C2082 C2080 1.389 . S
C2082 C2083 1.524 . S
C2082 C2096 1.377 . S
C2083 C2082 1.524 . S
C2083 C2084 1.397 . S
C2083 C2088 1.363 . S
C2084 H2061 0.950 . S
C2084 C2083 1.397 . S
C2084 C2085 1.334 . S
C2085 H2062 0.950 . S
C2085 C2084 1.334 . S
C2085 C2086 1.287 . S
C2086 C2085 1.287 . S
C2086 C2087 1.524 . S
C2086 H2105 0.913 . S
C2087 H2063 0.950 . S
C2087 C2086 1.524 . S
C2087 C2088 1.415 . S
C2088 H2064 0.950 . S
C2088 C2083 1.363 . S
C2088 C2087 1.415 . S
C2089 H2065 0.951 . S
C2089 C2090 1.366 . S
C2089 C2091 1.388 . S
C2090 C2089 1.366 . S
C2090 C2094 1.385 . S
C2091 H2066 0.951 . S
C2091 C2089 1.388 . S
C2091 C2092 1.366 . S
C2092 C2091 1.366 . S
C2092 C2093 1.414 . S
C2092 C2095 1.499 . S
C2093 H2067 0.950 . S
C2093 C2092 1.414 . S
C2093 C2094 1.374 . S
C2094 H2068 0.950 . S
C2094 C2090 1.385 . S
C2094 C2093 1.374 . S
C2095 C2092 1.499 . S
C2095 C2096 1.373 . S
C2095 C2097 1.389 . S
C2096 H2069 0.950 . S
C2096 C2082 1.377 . S
C2096 C2095 1.373 . S
C2097 C2081 1.377 . S
C2097 C2095 1.389 . S
C2097 C2098 1.524 . S
C2098 C2097 1.524 . S
C2098 C2099 1.397 . S
C2098 C2103 1.363 . S
C2099 H2070 0.950 . S
C2099 C2098 1.397 . S
C2099 C2100 1.334 . S
C2100 H2071 0.950 . S
C2100 C2099 1.334 . S
C2100 C2101 1.287 . S
C2101 C2100 1.287 . S
C2101 C2102 1.524 . S
C2101 H2104 0.999 . S
C2102 H2072 0.950 . S
C2102 C2101 1.524 . S
C2102 C2103 1.415 . S
C2103 H2073 0.950 . S
C2103 C2098 1.363 . S
C2103 C2102 1.415 . S
H2104 C2101 0.999 . S
H2105 C2086 0.913 . S
H2106 C2124 0.951 . S
H2107 C2126 0.951 1_655 S
H2108 C2128 0.950 . S
H2109 C2129 0.950 . S
H2110 C2131 0.950 . S
H2111 C2134 0.950 1_455 S
H2112 C2135 0.917 1_455 S
H2113 C2137 0.950 . S
H2114 C2138 0.950 . S
H2115 C2139 0.951 . S
H2116 C2141 0.951 . S
H2117 C2143 0.950 . S
H2118 C2144 0.950 . S
H2119 C2146 0.950 . S
H2120 C2149 0.950 . S
H2121 C2150 0.950 . S
H2122 C2152 0.950 . S
H2123 C2153 0.950 . S
C2124 H2106 0.951 . S
C2124 C2125 1.366 . S
C2124 C2126 1.388 . S
C2125 C2124 1.366 . S
C2125 C2129 1.385 . S
C2126 H2107 0.951 1_455 S
C2126 C2124 1.388 . S
C2126 C2127 1.366 . S
C2127 C2126 1.366 . S
C2127 C2128 1.414 . S
C2127 C2130 1.499 1_455 S
C2128 H2108 0.950 . S
C2128 C2127 1.414 . S
C2128 C2129 1.374 . S
C2129 H2109 0.950 . S
C2129 C2125 1.385 . S
C2129 C2128 1.374 . S
C2130 C2127 1.499 1_655 S
C2130 C2131 1.373 . S
C2130 C2132 1.389 . S
C2131 H2110 0.950 . S
C2131 C2130 1.373 . S
C2131 C2147 1.377 . S
C2132 C2130 1.389 . S
C2132 C2133 1.524 . S
C2132 C2146 1.377 . S
C2133 C2132 1.524 . S
C2133 C2134 1.397 . S
C2133 C2138 1.363 . S
C2134 H2111 0.950 1_655 S
C2134 C2133 1.397 . S
C2134 C2135 1.342 . S
C2135 H2112 0.917 1_655 S
C2135 C2134 1.342 . S
C2135 C2136 1.314 . S
C2136 C2135 1.314 . S
C2136 C2137 1.524 . S
C2136 H2155 0.913 . S
C2137 H2113 0.950 . S
C2137 C2136 1.524 . S
C2137 C2138 1.415 . S
C2138 H2114 0.950 . S
C2138 C2133 1.363 . S
C2138 C2137 1.415 . S
C2139 H2115 0.951 . S
C2139 C2140 1.366 . S
C2139 C2141 1.388 . S
C2140 C2139 1.366 . S
C2140 C2144 1.385 . S
C2141 H2116 0.951 . S
C2141 C2139 1.388 . S
C2141 C2142 1.366 . S
C2142 C2141 1.366 . S
C2142 C2143 1.414 . S
C2142 C2145 1.499 . S
C2143 H2117 0.950 . S
C2143 C2142 1.414 . S
C2143 C2144 1.374 . S
C2144 H2118 0.950 . S
C2144 C2140 1.385 . S
C2144 C2143 1.374 . S
C2145 C2142 1.499 . S
C2145 C2146 1.373 . S
C2145 C2147 1.389 . S
C2146 H2119 0.950 . S
C2146 C2132 1.377 . S
C2146 C2145 1.373 . S
C2147 C2131 1.377 . S
C2147 C2145 1.389 . S
C2147 C2148 1.524 . S
C2148 C2147 1.524 . S
C2148 C2149 1.397 . S
C2148 C2153 1.363 . S
C2149 H2120 0.950 . S
C2149 C2148 1.397 . S
C2149 C2150 1.334 . S
C2150 H2121 0.950 . S
C2150 C2149 1.334 . S
C2150 C2151 1.287 . S
C2151 C2150 1.287 . S
C2151 C2152 1.524 . S
C2151 H2154 0.999 . S
C2152 H2122 0.950 . S
C2152 C2151 1.524 . S
C2152 C2153 1.415 . S
C2153 H2123 0.950 . S
C2153 C2148 1.363 . S
C2153 C2152 1.415 . S
H2154 C2151 0.999 . S
H2155 C2136 0.913 . S
H2156 C2174 0.951 . S
H2157 C2176 0.951 . S
H2158 C2178 0.950 . S
H2159 C2179 0.950 . S
H2160 C2181 0.950 . S
H2161 C2184 0.950 . S
H2162 C2185 0.950 . S
H2163 C2187 0.950 . S
H2164 C2188 0.950 . S
H2165 C2189 0.951 . S
H2166 C2191 0.951 . S
H2167 C2193 0.950 . S
H2168 C2194 0.950 . S
H2169 C2196 0.950 . S
H2170 C2199 0.950 . S
H2171 C2200 0.950 . S
H2172 C2202 0.950 . S
H2173 C2203 0.950 . S
C2174 H2156 0.951 . S
C2174 C2175 1.366 . S
C2174 C2176 1.388 . S
C2175 C2174 1.366 . S
C2175 C2179 1.385 . S
C2176 H2157 0.951 . S
C2176 C2174 1.388 . S
C2176 C2177 1.366 . S
C2177 C2176 1.366 . S
C2177 C2178 1.414 . S
C2177 C2180 1.499 . S
C2178 H2158 0.950 . S
C2178 C2177 1.414 . S
C2178 C2179 1.374 . S
C2179 H2159 0.950 . S
C2179 C2175 1.385 . S
C2179 C2178 1.374 . S
C2180 C2177 1.499 . S
C2180 C2181 1.373 . S
C2180 C2182 1.389 . S
C2181 H2160 0.950 . S
C2181 C2180 1.373 . S
C2181 C2197 1.377 . S
C2182 C2180 1.389 . S
C2182 C2183 1.524 . S
C2182 C2196 1.377 . S
C2183 C2182 1.524 . S
C2183 C2184 1.397 . S
C2183 C2188 1.363 . S
C2184 H2161 0.950 . S
C2184 C2183 1.397 . S
C2184 C2185 1.334 . S
C2185 H2162 0.950 . S
C2185 C2184 1.334 . S
C2185 C2186 1.287 . S
C2186 C2185 1.287 . S
C2186 C2187 1.524 . S
C2186 H2205 0.913 . S
C2187 H2163 0.950 . S
C2187 C2186 1.524 . S
C2187 C2188 1.415 . S
C2188 H2164 0.950 . S
C2188 C2183 1.363 . S
C2188 C2187 1.415 . S
C2189 H2165 0.951 . S
C2189 C2190 1.366 . S
C2189 C2191 1.388 . S
C2190 C2189 1.366 . S
C2190 C2194 1.385 . S
C2191 H2166 0.951 . S
C2191 C2189 1.388 . S
C2191 C2192 1.366 . S
C2192 C2191 1.366 . S
C2192 C2193 1.414 . S
C2192 C2195 1.499 . S
C2193 H2167 0.950 . S
C2193 C2192 1.414 . S
C2193 C2194 1.374 . S
C2194 H2168 0.950 . S
C2194 C2190 1.385 . S
C2194 C2193 1.374 . S
C2195 C2192 1.499 . S
C2195 C2196 1.373 . S
C2195 C2197 1.389 . S
C2196 H2169 0.950 . S
C2196 C2182 1.377 . S
C2196 C2195 1.373 . S
C2197 C2181 1.377 . S
C2197 C2195 1.389 . S
C2197 C2198 1.524 . S
C2198 C2197 1.524 . S
C2198 C2199 1.397 . S
C2198 C2203 1.363 . S
C2199 H2170 0.950 . S
C2199 C2198 1.397 . S
C2199 C2200 1.334 . S
C2200 H2171 0.950 . S
C2200 C2199 1.334 . S
C2200 C2201 1.287 . S
C2201 C2200 1.287 . S
C2201 C2202 1.524 . S
C2201 H2204 0.999 . S
C2202 H2172 0.950 . S
C2202 C2201 1.524 . S
C2202 C2203 1.415 . S
C2203 H2173 0.950 . S
C2203 C2198 1.363 . S
C2203 C2202 1.415 . S
H2204 C2201 0.999 . S
H2205 C2186 0.913 . S
H2206 C2224 0.951 . S
H2207 C2226 0.951 . S
H2208 C2228 0.950 . S
H2209 C2229 0.950 . S
H2210 C2231 0.950 . S
H2211 C2234 0.950 . S
H2212 C2235 0.950 . S
H2213 C2237 0.950 . S
H2214 C2238 0.950 . S
H2215 C2239 0.951 . S
H2216 C2241 0.951 . S
H2217 C2243 0.950 . S
H2218 C2244 0.950 . S
H2219 C2246 0.950 . S
H2220 C2249 0.950 . S
H2221 C2250 0.950 . S
H2222 C2252 0.950 . S
H2223 C2253 0.950 . S
C2224 H2206 0.951 . S
C2224 C2225 1.366 . S
C2224 C2226 1.388 . S
C2225 C2224 1.366 . S
C2225 C2229 1.385 . S
C2226 H2207 0.951 . S
C2226 C2224 1.388 . S
C2226 C2227 1.366 . S
C2227 C2226 1.366 . S
C2227 C2228 1.414 . S
C2227 C2230 1.499 . S
C2228 H2208 0.950 . S
C2228 C2227 1.414 . S
C2228 C2229 1.374 . S
C2229 H2209 0.950 . S
C2229 C2225 1.385 . S
C2229 C2228 1.374 . S
C2230 C2227 1.499 . S
C2230 C2231 1.373 . S
C2230 C2232 1.389 . S
C2231 H2210 0.950 . S
C2231 C2230 1.373 . S
C2231 C2247 1.377 . S
C2232 C2230 1.389 . S
C2232 C2233 1.524 . S
C2232 C2246 1.377 . S
C2233 C2232 1.524 . S
C2233 C2234 1.397 . S
C2233 C2238 1.363 . S
C2234 H2211 0.950 . S
C2234 C2233 1.397 . S
C2234 C2235 1.334 . S
C2235 H2212 0.950 . S
C2235 C2234 1.334 . S
C2235 C2236 1.287 . S
C2236 C2235 1.287 . S
C2236 C2237 1.524 . S
C2236 H2255 0.913 . S
C2237 H2213 0.950 . S
C2237 C2236 1.524 . S
C2237 C2238 1.415 . S
C2238 H2214 0.950 . S
C2238 C2233 1.363 . S
C2238 C2237 1.415 . S
C2239 H2215 0.951 . S
C2239 C2240 1.366 . S
C2239 C2241 1.388 . S
C2240 C2239 1.366 . S
C2240 C2244 1.385 . S
C2241 H2216 0.951 . S
C2241 C2239 1.388 . S
C2241 C2242 1.366 . S
C2242 C2241 1.366 . S
C2242 C2243 1.414 . S
C2242 C2245 1.499 . S
C2243 H2217 0.950 . S
C2243 C2242 1.414 . S
C2243 C2244 1.374 . S
C2244 H2218 0.950 . S
C2244 C2240 1.385 . S
C2244 C2243 1.374 . S
C2245 C2242 1.499 . S
C2245 C2246 1.373 . S
C2245 C2247 1.389 . S
C2246 H2219 0.950 . S
C2246 C2232 1.377 . S
C2246 C2245 1.373 . S
C2247 C2231 1.377 . S
C2247 C2245 1.389 . S
C2247 C2248 1.524 . S
C2248 C2247 1.524 . S
C2248 C2249 1.397 . S
C2248 C2253 1.363 . S
C2249 H2220 0.950 . S
C2249 C2248 1.397 . S
C2249 C2250 1.334 . S
C2250 H2221 0.950 . S
C2250 C2249 1.334 . S
C2250 C2251 1.287 . S
C2251 C2250 1.287 . S
C2251 C2252 1.524 . S
C2251 H2254 0.999 . S
C2252 H2222 0.950 . S
C2252 C2251 1.524 . S
C2252 C2253 1.415 . S
C2253 H2223 0.950 . S
C2253 C2248 1.363 . S
C2253 C2252 1.415 . S
H2254 C2251 0.999 . S
H2255 C2236 0.913 . S
H2256 C2274 0.951 . S
H2257 C2276 0.951 . S
H2258 C2278 0.950 . S
H2259 C2279 0.950 . S
H2260 C2281 0.950 . S
H2261 C2284 0.950 . S
H2262 C2285 0.950 . S
H2263 C2287 0.950 . S
H2264 C2288 0.950 . S
H2265 C2289 0.951 . S
H2266 C2291 0.951 . S
H2267 C2293 0.950 . S
H2268 C2294 0.950 . S
H2269 C2296 0.950 . S
H2270 C2299 0.950 . S
H2271 C2300 0.950 . S
H2272 C2302 0.950 . S
H2273 C2303 0.950 . S
C2274 H2256 0.951 . S
C2274 C2275 1.366 . S
C2274 C2276 1.388 . S
C2275 C2274 1.366 . S
C2275 C2279 1.385 . S
C2276 H2257 0.951 . S
C2276 C2274 1.388 . S
C2276 C2277 1.366 . S
C2277 C2276 1.366 . S
C2277 C2278 1.414 . S
C2277 C2280 1.499 . S
C2278 H2258 0.950 . S
C2278 C2277 1.414 . S
C2278 C2279 1.374 . S
C2279 H2259 0.950 . S
C2279 C2275 1.385 . S
C2279 C2278 1.374 . S
C2280 C2277 1.499 . S
C2280 C2281 1.373 . S
C2280 C2282 1.389 . S
C2281 H2260 0.950 . S
C2281 C2280 1.373 . S
C2281 C2297 1.377 . S
C2282 C2280 1.389 . S
C2282 C2283 1.524 . S
C2282 C2296 1.377 . S
C2283 C2282 1.524 . S
C2283 C2284 1.397 . S
C2283 C2288 1.363 . S
C2284 H2261 0.950 . S
C2284 C2283 1.397 . S
C2284 C2285 1.334 . S
C2285 H2262 0.950 . S
C2285 C2284 1.334 . S
C2285 C2286 1.287 . S
C2286 C2285 1.287 . S
C2286 C2287 1.524 . S
C2286 H2305 0.913 . S
C2287 H2263 0.950 . S
C2287 C2286 1.524 . S
C2287 C2288 1.415 . S
C2288 H2264 0.950 . S
C2288 C2283 1.363 . S
C2288 C2287 1.415 . S
C2289 H2265 0.951 . S
C2289 C2290 1.366 . S
C2289 C2291 1.388 . S
C2290 C2289 1.366 . S
C2290 C2294 1.385 . S
C2291 H2266 0.951 . S
C2291 C2289 1.388 . S
C2291 C2292 1.366 . S
C2292 C2291 1.366 . S
C2292 C2293 1.414 . S
C2292 C2295 1.499 . S
C2293 H2267 0.950 . S
C2293 C2292 1.414 . S
C2293 C2294 1.374 . S
C2294 H2268 0.950 . S
C2294 C2290 1.385 . S
C2294 C2293 1.374 . S
C2295 C2292 1.499 . S
C2295 C2296 1.373 . S
C2295 C2297 1.389 . S
C2296 H2269 0.950 . S
C2296 C2282 1.377 . S
C2296 C2295 1.373 . S
C2297 C2281 1.377 . S
C2297 C2295 1.389 . S
C2297 C2298 1.524 . S
C2298 C2297 1.524 . S
C2298 C2299 1.397 . S
C2298 C2303 1.363 . S
C2299 H2270 0.950 . S
C2299 C2298 1.397 . S
C2299 C2300 1.334 . S
C2300 H2271 0.950 . S
C2300 C2299 1.334 . S
C2300 C2301 1.287 . S
C2301 C2300 1.287 . S
C2301 C2302 1.524 . S
C2301 H2304 0.999 . S
C2302 H2272 0.950 . S
C2302 C2301 1.524 . S
C2302 C2303 1.415 . S
C2303 H2273 0.950 . S
C2303 C2298 1.363 . S
C2303 C2302 1.415 . S
H2304 C2301 0.999 . S
H2305 C2286 0.913 . S
H2306 C2324 0.951 . S
H2307 C2326 0.951 . S
H2308 C2328 0.950 . S
H2309 C2329 0.950 . S
H2310 C2331 0.950 . S
H2311 C2334 0.950 . S
H2312 C2335 0.950 . S
H2313 C2337 0.950 . S
H2314 C2338 0.950 . S
H2315 C2339 0.951 . S
H2316 C2341 0.951 . S
H2317 C2343 0.950 . S
H2318 C2344 0.950 . S
H2319 C2346 0.950 . S
H2320 C2349 0.950 . S
H2321 C2350 0.950 . S
H2322 C2352 0.950 . S
H2323 C2353 0.950 . S
C2324 H2306 0.951 . S
C2324 C2325 1.366 . S
C2324 C2326 1.388 . S
C2325 C2324 1.366 . S
C2325 C2329 1.385 . S
C2326 H2307 0.951 . S
C2326 C2324 1.388 . S
C2326 C2327 1.366 . S
C2327 C2326 1.366 . S
C2327 C2328 1.414 . S
C2327 C2330 1.499 . S
C2328 H2308 0.950 . S
C2328 C2327 1.414 . S
C2328 C2329 1.374 . S
C2329 H2309 0.950 . S
C2329 C2325 1.385 . S
C2329 C2328 1.374 . S
C2330 C2327 1.499 . S
C2330 C2331 1.373 . S
C2330 C2332 1.389 . S
C2331 H2310 0.950 . S
C2331 C2330 1.373 . S
C2331 C2347 1.377 . S
C2332 C2330 1.389 . S
C2332 C2333 1.524 . S
C2332 C2346 1.377 . S
C2333 C2332 1.524 . S
C2333 C2334 1.397 . S
C2333 C2338 1.363 . S
C2334 H2311 0.950 . S
C2334 C2333 1.397 . S
C2334 C2335 1.334 . S
C2335 H2312 0.950 . S
C2335 C2334 1.334 . S
C2335 C2336 1.287 . S
C2336 C2335 1.287 . S
C2336 C2337 1.524 . S
C2336 H2355 0.913 . S
C2337 H2313 0.950 . S
C2337 C2336 1.524 . S
C2337 C2338 1.415 . S
C2338 H2314 0.950 . S
C2338 C2333 1.363 . S
C2338 C2337 1.415 . S
C2339 H2315 0.951 . S
C2339 C2340 1.366 . S
C2339 C2341 1.388 . S
C2340 C2339 1.366 . S
C2340 C2344 1.385 . S
C2341 H2316 0.951 . S
C2341 C2339 1.388 . S
C2341 C2342 1.366 . S
C2342 C2341 1.366 . S
C2342 C2343 1.414 . S
C2342 C2345 1.499 . S
C2343 H2317 0.950 . S
C2343 C2342 1.414 . S
C2343 C2344 1.374 . S
C2344 H2318 0.950 . S
C2344 C2340 1.385 . S
C2344 C2343 1.374 . S
C2345 C2342 1.499 . S
C2345 C2346 1.373 . S
C2345 C2347 1.389 . S
C2346 H2319 0.950 . S
C2346 C2332 1.377 . S
C2346 C2345 1.373 . S
C2347 C2331 1.377 . S
C2347 C2345 1.389 . S
C2347 C2348 1.524 . S
C2348 C2347 1.524 . S
C2348 C2349 1.397 . S
C2348 C2353 1.363 . S
C2349 H2320 0.950 . S
C2349 C2348 1.397 . S
C2349 C2350 1.334 . S
C2350 H2321 0.950 . S
C2350 C2349 1.334 . S
C2350 C2351 1.287 . S
C2351 C2350 1.287 . S
C2351 C2352 1.524 . S
C2351 H2354 0.999 . S
C2352 H2322 0.950 . S
C2352 C2351 1.524 . S
C2352 C2353 1.415 . S
C2353 H2323 0.950 . S
C2353 C2348 1.363 . S
C2353 C2352 1.415 . S
H2354 C2351 0.999 . S
H2355 C2336 0.913 . S
H2356 C2374 0.951 . S
H2357 C2376 0.951 . S
H2358 C2378 0.950 . S
H2359 C2379 0.950 . S
H2360 C2381 0.950 . S
H2361 C2384 0.950 . S
H2362 C2385 0.950 . S
H2363 C2387 0.950 . S
H2364 C2388 0.950 . S
H2365 C2389 0.951 . S
H2366 C2391 0.951 . S
H2367 C2393 0.950 . S
H2368 C2394 0.950 . S
H2369 C2396 0.950 . S
H2370 C2399 0.950 . S
H2371 C2400 0.950 . S
H2372 C2402 0.950 . S
H2373 C2403 0.950 . S
C2374 H2356 0.951 . S
C2374 C2375 1.366 . S
C2374 C2376 1.388 . S
C2375 C2374 1.366 . S
C2375 C2379 1.385 . S
C2376 H2357 0.951 . S
C2376 C2374 1.388 . S
C2376 C2377 1.366 . S
C2377 C2376 1.366 . S
C2377 C2378 1.414 . S
C2377 C2380 1.499 . S
C2378 H2358 0.950 . S
C2378 C2377 1.414 . S
C2378 C2379 1.374 . S
C2379 H2359 0.950 . S
C2379 C2375 1.385 . S
C2379 C2378 1.374 . S
C2380 C2377 1.499 . S
C2380 C2381 1.373 . S
C2380 C2382 1.389 . S
C2381 H2360 0.950 . S
C2381 C2380 1.373 . S
C2381 C2397 1.377 . S
C2382 C2380 1.389 . S
C2382 C2383 1.524 . S
C2382 C2396 1.377 . S
C2383 C2382 1.524 . S
C2383 C2384 1.397 . S
C2383 C2388 1.363 . S
C2384 H2361 0.950 . S
C2384 C2383 1.397 . S
C2384 C2385 1.334 . S
C2385 H2362 0.950 . S
C2385 C2384 1.334 . S
C2385 C2386 1.287 . S
C2386 C2385 1.287 . S
C2386 C2387 1.524 . S
C2386 H2405 0.913 . S
C2387 H2363 0.950 . S
C2387 C2386 1.524 . S
C2387 C2388 1.415 . S
C2388 H2364 0.950 . S
C2388 C2383 1.363 . S
C2388 C2387 1.415 . S
C2389 H2365 0.951 . S
C2389 C2390 1.366 . S
C2389 C2391 1.388 . S
C2390 C2389 1.366 . S
C2390 C2394 1.385 . S
C2391 H2366 0.951 . S
C2391 C2389 1.388 . S
C2391 C2392 1.366 . S
C2392 C2391 1.366 . S
C2392 C2393 1.414 . S
C2392 C2395 1.499 . S
C2393 H2367 0.950 . S
C2393 C2392 1.414 . S
C2393 C2394 1.374 . S
C2394 H2368 0.950 . S
C2394 C2390 1.385 . S
C2394 C2393 1.374 . S
C2395 C2392 1.499 . S
C2395 C2396 1.373 . S
C2395 C2397 1.389 . S
C2396 H2369 0.950 . S
C2396 C2382 1.377 . S
C2396 C2395 1.373 . S
C2397 C2381 1.377 . S
C2397 C2395 1.389 . S
C2397 C2398 1.524 . S
C2398 C2397 1.524 . S
C2398 C2399 1.397 . S
C2398 C2403 1.363 . S
C2399 H2370 0.950 . S
C2399 C2398 1.397 . S
C2399 C2400 1.334 . S
C2400 H2371 0.950 . S
C2400 C2399 1.334 . S
C2400 C2401 1.287 . S
C2401 C2400 1.287 . S
C2401 C2402 1.524 . S
C2401 H2404 0.999 . S
C2402 H2372 0.950 . S
C2402 C2401 1.524 . S
C2402 C2403 1.415 . S
C2403 H2373 0.950 . S
C2403 C2398 1.363 . S
C2403 C2402 1.415 . S
H2404 C2401 0.999 . S
H2405 C2386 0.913 . S
H2406 C2424 0.951 . S
H2407 C2426 0.951 . S
H2408 C2428 0.950 . S
H2409 C2429 0.950 . S
H2410 C2431 0.950 . S
H2411 C2434 0.950 . S
H2412 C2435 0.950 . S
H2413 C2437 0.950 1_655 S
H2414 C2438 0.942 1_655 S
H2415 C2439 0.951 . S
H2416 C2441 0.951 1_455 S
H2417 C2443 0.950 . S
H2418 C2444 0.950 . S
H2419 C2446 0.950 1_655 S
H2420 C2449 0.950 . S
H2421 C2450 0.950 . S
H2422 C2452 0.950 . S
H2423 C2453 0.950 . S
C2424 H2406 0.951 . S
C2424 C2425 1.366 . S
C2424 C2426 1.388 . S
C2425 C2424 1.366 . S
C2425 C2429 1.385 . S
C2426 H2407 0.951 . S
C2426 C2424 1.388 . S
C2426 C2427 1.366 . S
C2427 C2426 1.366 . S
C2427 C2428 1.414 . S
C2427 C2430 1.499 . S
C2428 H2408 0.950 . S
C2428 C2427 1.414 . S
C2428 C2429 1.374 . S
C2429 H2409 0.950 . S
C2429 C2425 1.385 . S
C2429 C2428 1.374 . S
C2430 C2427 1.499 . S
C2430 C2431 1.373 . S
C2430 C2432 1.389 . S
C2431 H2410 0.950 . S
C2431 C2430 1.373 . S
C2431 C2447 1.377 . S
C2432 C2430 1.389 . S
C2432 C2433 1.524 . S
C2432 C2446 1.377 . S
C2433 C2432 1.524 . S
C2433 C2434 1.397 . S
C2433 C2438 1.363 . S
C2434 H2411 0.950 . S
C2434 C2433 1.397 . S
C2434 C2435 1.334 . S
C2435 H2412 0.950 . S
C2435 C2434 1.334 . S
C2435 C2436 1.287 . S
C2436 C2435 1.287 . S
C2436 C2437 1.524 . S
C2436 H2455 0.913 . S
C2437 H2413 0.950 1_455 S
C2437 C2436 1.524 . S
C2437 C2438 1.415 . S
C2438 H2414 0.942 1_455 S
C2438 C2433 1.363 . S
C2438 C2437 1.415 . S
C2439 H2415 0.951 . S
C2439 C2440 1.366 . S
C2439 C2441 1.388 . S
C2440 C2439 1.366 . S
C2440 C2444 1.385 . S
C2441 H2416 0.951 1_655 S
C2441 C2439 1.388 . S
C2441 C2442 1.366 . S
C2442 C2441 1.366 . S
C2442 C2443 1.414 . S
C2442 C2445 1.499 1_655 S
C2443 H2417 0.950 . S
C2443 C2442 1.414 . S
C2443 C2444 1.374 . S
C2444 H2418 0.950 . S
C2444 C2440 1.385 . S
C2444 C2443 1.374 . S
C2445 C2442 1.499 1_455 S
C2445 C2446 1.373 . S
C2445 C2447 1.389 . S
C2446 H2419 0.950 1_455 S
C2446 C2432 1.377 . S
C2446 C2445 1.373 . S
C2447 C2431 1.377 . S
C2447 C2445 1.389 . S
C2447 C2448 1.524 . S
C2448 C2447 1.524 . S
C2448 C2449 1.397 . S
C2448 C2453 1.363 . S
C2449 H2420 0.950 . S
C2449 C2448 1.397 . S
C2449 C2450 1.334 . S
C2450 H2421 0.950 . S
C2450 C2449 1.334 . S
C2450 C2451 1.287 . S
C2451 C2450 1.287 . S
C2451 C2452 1.524 . S
C2451 H2454 0.999 . S
C2452 H2422 0.950 . S
C2452 C2451 1.524 . S
C2452 C2453 1.415 . S
C2453 H2423 0.950 . S
C2453 C2448 1.363 . S
C2453 C2452 1.415 . S
H2454 C2451 0.999 . S
H2455 C2436 0.913 . S
H2456 C2474 0.951 . S
H2457 C2476 0.951 . S
H2458 C2478 0.950 . S
H2459 C2479 0.950 . S
H2460 C2481 0.950 . S
H2461 C2484 0.950 . S
H2462 C2485 0.950 . S
H2463 C2487 0.950 . S
H2464 C2488 0.950 . S
H2465 C2489 0.951 . S
H2466 C2491 0.951 . S
H2467 C2493 0.950 . S
H2468 C2494 0.950 . S
H2469 C2496 0.950 . S
H2470 C2499 0.950 . S
H2471 C2500 0.950 . S
H2472 C2502 0.950 . S
H2473 C2503 0.950 . S
C2474 H2456 0.951 . S
C2474 C2475 1.366 . S
C2474 C2476 1.388 . S
C2475 C2474 1.366 . S
C2475 C2479 1.385 . S
C2476 H2457 0.951 . S
C2476 C2474 1.388 . S
C2476 C2477 1.366 . S
C2477 C2476 1.366 . S
C2477 C2478 1.414 . S
C2477 C2480 1.499 . S
C2478 H2458 0.950 . S
C2478 C2477 1.414 . S
C2478 C2479 1.374 . S
C2479 H2459 0.950 . S
C2479 C2475 1.385 . S
C2479 C2478 1.374 . S
C2480 C2477 1.499 . S
C2480 C2481 1.373 . S
C2480 C2482 1.389 . S
C2481 H2460 0.950 . S
C2481 C2480 1.373 . S
C2481 C2497 1.377 . S
C2482 C2480 1.389 . S
C2482 C2483 1.524 . S
C2482 C2496 1.377 . S
C2483 C2482 1.524 . S
C2483 C2484 1.397 . S
C2483 C2488 1.363 . S
C2484 H2461 0.950 . S
C2484 C2483 1.397 . S
C2484 C2485 1.334 . S
C2485 H2462 0.950 . S
C2485 C2484 1.334 . S
C2485 C2486 1.287 . S
C2486 C2485 1.287 . S
C2486 C2487 1.524 . S
C2486 H2505 0.913 . S
C2487 H2463 0.950 . S
C2487 C2486 1.524 . S
C2487 C2488 1.415 . S
C2488 H2464 0.950 . S
C2488 C2483 1.363 . S
C2488 C2487 1.415 . S
C2489 H2465 0.951 . S
C2489 C2490 1.366 . S
C2489 C2491 1.388 . S
C2490 C2489 1.366 . S
C2490 C2494 1.385 . S
C2491 H2466 0.951 . S
C2491 C2489 1.388 . S
C2491 C2492 1.366 . S
C2492 C2491 1.366 . S
C2492 C2493 1.414 . S
C2492 C2495 1.499 . S
C2493 H2467 0.950 . S
C2493 C2492 1.414 . S
C2493 C2494 1.374 . S
C2494 H2468 0.950 . S
C2494 C2490 1.385 . S
C2494 C2493 1.374 . S
C2495 C2492 1.499 . S
C2495 C2496 1.373 . S
C2495 C2497 1.389 . S
C2496 H2469 0.950 . S
C2496 C2482 1.377 . S
C2496 C2495 1.373 . S
C2497 C2481 1.377 . S
C2497 C2495 1.389 . S
C2497 C2498 1.524 . S
C2498 C2497 1.524 . S
C2498 C2499 1.397 . S
C2498 C2503 1.363 . S
C2499 H2470 0.950 . S
C2499 C2498 1.397 . S
C2499 C2500 1.334 . S
C2500 H2471 0.950 . S
C2500 C2499 1.334 . S
C2500 C2501 1.287 . S
C2501 C2500 1.287 . S
C2501 C2502 1.524 . S
C2501 H2504 0.999 . S
C2502 H2472 0.950 . S
C2502 C2501 1.524 . S
C2502 C2503 1.415 . S
C2503 H2473 0.950 . S
C2503 C2498 1.363 . S
C2503 C2502 1.415 . S
H2504 C2501 0.999 . S
H2505 C2486 0.913 . S
H2506 C2524 0.951 . S
H2507 C2526 0.951 . S
H2508 C2528 0.950 . S
H2509 C2529 0.950 . S
H2510 C2531 0.950 . S
H2511 C2534 0.950 . S
H2512 C2535 0.950 . S
H2513 C2537 0.950 1_655 S
H2514 C2538 0.972 . S
H2515 C2539 0.951 . S
H2516 C2541 0.951 1_455 S
H2517 C2543 0.950 . S
H2518 C2544 0.950 . S
H2519 C2546 0.944 1_655 S
H2520 C2549 0.950 . S
H2521 C2550 0.950 . S
H2522 C2552 0.950 . S
H2523 C2553 0.950 . S
C2524 H2506 0.951 . S
C2524 C2525 1.366 . S
C2524 C2526 1.388 . S
C2525 C2524 1.366 . S
C2525 C2529 1.385 . S
C2526 H2507 0.951 . S
C2526 C2524 1.388 . S
C2526 C2527 1.366 . S
C2527 C2526 1.366 . S
C2527 C2528 1.414 . S
C2527 C2530 1.499 . S
C2528 H2508 0.950 . S
C2528 C2527 1.414 . S
C2528 C2529 1.374 . S
C2529 H2509 0.950 . S
C2529 C2525 1.385 . S
C2529 C2528 1.374 . S
C2530 C2527 1.499 . S
C2530 C2531 1.373 . S
C2530 C2532 1.389 . S
C2531 H2510 0.950 . S
C2531 C2530 1.373 . S
C2531 C2547 1.377 . S
C2532 C2530 1.389 . S
C2532 C2533 1.524 . S
C2532 C2546 1.377 . S
C2533 C2532 1.524 . S
C2533 C2534 1.397 . S
C2533 C2538 1.363 . S
C2534 H2511 0.950 . S
C2534 C2533 1.397 . S
C2534 C2535 1.334 . S
C2535 H2512 0.950 . S
C2535 C2534 1.334 . S
C2535 C2536 1.287 . S
C2536 C2535 1.287 . S
C2536 C2537 1.524 . S
C2536 H2555 0.913 . S
C2537 H2513 0.950 1_455 S
C2537 C2536 1.524 . S
C2537 C2538 1.415 . S
C2538 H2514 0.972 . S
C2538 C2533 1.363 . S
C2538 C2537 1.415 . S
C2539 H2515 0.951 . S
C2539 C2540 1.366 . S
C2539 C2541 1.388 . S
C2540 C2539 1.366 . S
C2540 C2544 1.385 . S
C2541 H2516 0.951 1_655 S
C2541 C2539 1.388 . S
C2541 C2542 1.366 . S
C2542 C2541 1.366 . S
C2542 C2543 1.414 . S
C2542 C2545 1.499 1_655 S
C2543 H2517 0.950 . S
C2543 C2542 1.414 . S
C2543 C2544 1.374 . S
C2544 H2518 0.950 . S
C2544 C2540 1.385 . S
C2544 C2543 1.374 . S
C2545 C2542 1.499 1_455 S
C2545 C2546 1.373 . S
C2545 C2547 1.389 . S
C2546 H2519 0.944 1_455 S
C2546 C2532 1.377 . S
C2546 C2545 1.373 . S
C2547 C2531 1.377 . S
C2547 C2545 1.389 . S
C2547 C2548 1.524 . S
C2548 C2547 1.524 . S
C2548 C2549 1.397 . S
C2548 C2553 1.363 . S
C2549 H2520 0.950 . S
C2549 C2548 1.397 . S
C2549 C2550 1.334 . S
C2550 H2521 0.950 . S
C2550 C2549 1.334 . S
C2550 C2551 1.287 . S
C2551 C2550 1.287 . S
C2551 C2552 1.524 . S
C2551 H2554 0.999 . S
C2552 H2522 0.950 . S
C2552 C2551 1.524 . S
C2552 C2553 1.415 . S
C2553 H2523 0.950 . S
C2553 C2548 1.363 . S
C2553 C2552 1.415 . S
H2554 C2551 0.999 . S
H2555 C2536 0.913 . S
H2556 C2574 0.951 . S
H2557 C2576 0.951 . S
H2558 C2578 0.950 . S
H2559 C2579 0.950 . S
H2560 C2581 0.950 . S
H2561 C2584 0.950 . S
H2562 C2585 0.950 . S
H2563 C2587 0.950 . S
H2564 C2588 0.950 . S
H2565 C2589 0.951 . S
H2566 C2591 0.951 . S
H2567 C2593 0.950 . S
H2568 C2594 0.950 . S
H2569 C2596 0.950 . S
H2570 C2599 0.950 . S
H2571 C2600 0.950 . S
H2572 C2602 0.950 . S
H2573 C2603 0.950 . S
C2574 H2556 0.951 . S
C2574 C2575 1.366 . S
C2574 C2576 1.388 . S
C2575 C2574 1.366 . S
C2575 C2579 1.385 . S
C2576 H2557 0.951 . S
C2576 C2574 1.388 . S
C2576 C2577 1.366 . S
C2577 C2576 1.366 . S
C2577 C2578 1.414 . S
C2577 C2580 1.499 . S
C2578 H2558 0.950 . S
C2578 C2577 1.414 . S
C2578 C2579 1.374 . S
C2579 H2559 0.950 . S
C2579 C2575 1.385 . S
C2579 C2578 1.374 . S
C2580 C2577 1.499 . S
C2580 C2581 1.373 . S
C2580 C2582 1.389 . S
C2581 H2560 0.950 . S
C2581 C2580 1.373 . S
C2581 C2597 1.377 . S
C2582 C2580 1.389 . S
C2582 C2583 1.524 . S
C2582 C2596 1.377 . S
C2583 C2582 1.524 . S
C2583 C2584 1.397 . S
C2583 C2588 1.363 . S
C2584 H2561 0.950 . S
C2584 C2583 1.397 . S
C2584 C2585 1.334 . S
C2585 H2562 0.950 . S
C2585 C2584 1.334 . S
C2585 C2586 1.287 . S
C2586 C2585 1.287 . S
C2586 C2587 1.524 . S
C2586 H2605 0.913 . S
C2587 H2563 0.950 . S
C2587 C2586 1.524 . S
C2587 C2588 1.415 . S
C2588 H2564 0.950 . S
C2588 C2583 1.363 . S
C2588 C2587 1.415 . S
C2589 H2565 0.951 . S
C2589 C2590 1.366 . S
C2589 C2591 1.388 . S
C2590 C2589 1.366 . S
C2590 C2594 1.385 . S
C2591 H2566 0.951 . S
C2591 C2589 1.388 . S
C2591 C2592 1.366 . S
C2592 C2591 1.366 . S
C2592 C2593 1.414 . S
C2592 C2595 1.499 . S
C2593 H2567 0.950 . S
C2593 C2592 1.414 . S
C2593 C2594 1.374 . S
C2594 H2568 0.950 . S
C2594 C2590 1.385 . S
C2594 C2593 1.374 . S
C2595 C2592 1.499 . S
C2595 C2596 1.373 . S
C2595 C2597 1.389 . S
C2596 H2569 0.950 . S
C2596 C2582 1.377 . S
C2596 C2595 1.373 . S
C2597 C2581 1.377 . S
C2597 C2595 1.389 . S
C2597 C2598 1.524 . S
C2598 C2597 1.524 . S
C2598 C2599 1.397 . S
C2598 C2603 1.363 . S
C2599 H2570 0.950 . S
C2599 C2598 1.397 . S
C2599 C2600 1.334 . S
C2600 H2571 0.950 . S
C2600 C2599 1.334 . S
C2600 C2601 1.287 . S
C2601 C2600 1.287 . S
C2601 C2602 1.524 . S
C2601 H2604 0.999 . S
C2602 H2572 0.950 . S
C2602 C2601 1.524 . S
C2602 C2603 1.415 . S
C2603 H2573 0.950 . S
C2603 C2598 1.363 . S
C2603 C2602 1.415 . S
H2604 C2601 0.999 . S
H2605 C2586 0.913 . S
H2606 C2624 0.951 . S
H2607 C2626 0.951 . S
H2608 C2628 0.950 . S
H2609 C2629 0.950 . S
H2610 C2631 0.950 . S
H2611 C2634 0.950 . S
H2612 C2635 0.950 . S
H2613 C2637 0.950 . S
H2614 C2638 0.950 . S
H2615 C2639 0.951 . S
H2616 C2641 0.951 . S
H2617 C2643 0.950 . S
H2618 C2644 0.950 . S
H2619 C2646 0.950 . S
H2620 C2649 0.950 . S
H2621 C2650 0.950 . S
H2622 C2652 0.950 . S
H2623 C2653 0.950 . S
C2624 H2606 0.951 . S
C2624 C2625 1.366 . S
C2624 C2626 1.388 . S
C2625 C2624 1.366 . S
C2625 C2629 1.385 . S
C2626 H2607 0.951 . S
C2626 C2624 1.388 . S
C2626 C2627 1.366 . S
C2627 C2626 1.366 . S
C2627 C2628 1.414 . S
C2627 C2630 1.499 . S
C2628 H2608 0.950 . S
C2628 C2627 1.414 . S
C2628 C2629 1.374 . S
C2629 H2609 0.950 . S
C2629 C2625 1.385 . S
C2629 C2628 1.374 . S
C2630 C2627 1.499 . S
C2630 C2631 1.373 . S
C2630 C2632 1.389 . S
C2631 H2610 0.950 . S
C2631 C2630 1.373 . S
C2631 C2647 1.377 . S
C2632 C2630 1.389 . S
C2632 C2633 1.524 . S
C2632 C2646 1.377 . S
C2633 C2632 1.524 . S
C2633 C2634 1.397 . S
C2633 C2638 1.363 . S
C2634 H2611 0.950 . S
C2634 C2633 1.397 . S
C2634 C2635 1.334 . S
C2635 H2612 0.950 . S
C2635 C2634 1.334 . S
C2635 C2636 1.287 . S
C2636 C2635 1.287 . S
C2636 C2637 1.524 . S
C2636 H2655 0.913 . S
C2637 H2613 0.950 . S
C2637 C2636 1.524 . S
C2637 C2638 1.415 . S
C2638 H2614 0.950 . S
C2638 C2633 1.363 . S
C2638 C2637 1.415 . S
C2639 H2615 0.951 . S
C2639 C2640 1.366 . S
C2639 C2641 1.388 . S
C2640 C2639 1.366 . S
C2640 C2644 1.385 . S
C2641 H2616 0.951 . S
C2641 C2639 1.388 . S
C2641 C2642 1.366 . S
C2642 C2641 1.366 . S
C2642 C2643 1.414 . S
C2642 C2645 1.499 . S
C2643 H2617 0.950 . S
C2643 C2642 1.414 . S
C2643 C2644 1.374 . S
C2644 H2618 0.950 . S
C2644 C2640 1.385 . S
C2644 C2643 1.374 . S
C2645 C2642 1.499 . S
C2645 C2646 1.373 . S
C2645 C2647 1.389 . S
C2646 H2619 0.950 . S
C2646 C2632 1.377 . S
C2646 C2645 1.373 . S
C2647 C2631 1.377 . S
C2647 C2645 1.389 . S
C2647 C2648 1.524 . S
C2648 C2647 1.524 . S
C2648 C2649 1.397 . S
C2648 C2653 1.363 . S
C2649 H2620 0.950 . S
C2649 C2648 1.397 . S
C2649 C2650 1.334 . S
C2650 H2621 0.950 . S
C2650 C2649 1.334 . S
C2650 C2651 1.287 . S
C2651 C2650 1.287 . S
C2651 C2652 1.524 . S
C2651 H2654 0.999 . S
C2652 H2622 0.950 . S
C2652 C2651 1.524 . S
C2652 C2653 1.415 . S
C2653 H2623 0.950 . S
C2653 C2648 1.363 . S
C2653 C2652 1.415 . S
H2654 C2651 0.999 . S
H2655 C2636 0.913 . S
H2656 C2674 0.951 . S
H2657 C2676 0.951 . S
H2658 C2678 0.950 1_565 S
H2659 C2679 0.950 . S
H2660 C2681 0.950 . S
H2661 C2684 0.950 . S
H2662 C2685 0.950 . S
H2663 C2687 0.950 . S
H2664 C2688 0.950 . S
H2665 C2689 0.951 . S
H2666 C2691 0.951 . S
H2667 C2693 0.950 . S
H2668 C2694 0.950 . S
H2669 C2696 0.950 . S
H2670 C2699 0.950 . S
H2671 C2700 0.950 . S
H2672 C2702 0.950 . S
H2673 C2703 0.950 . S
C2674 H2656 0.951 . S
C2674 C2675 1.366 . S
C2674 C2676 1.388 . S
C2675 C2674 1.366 . S
C2675 C2679 1.385 . S
C2676 H2657 0.951 . S
C2676 C2674 1.388 . S
C2676 C2677 1.393 . S
C2677 C2676 1.393 . S
C2677 C2678 1.422 . S
C2677 C2680 1.468 1_545 S
C2678 H2658 0.950 1_545 S
C2678 C2677 1.422 . S
C2678 C2679 1.374 . S
C2679 H2659 0.950 . S
C2679 C2675 1.385 . S
C2679 C2678 1.374 . S
C2680 C2677 1.468 1_565 S
C2680 C2681 1.373 . S
C2680 C2682 1.389 . S
C2681 H2660 0.950 . S
C2681 C2680 1.373 . S
C2681 C2697 1.377 . S
C2682 C2680 1.389 . S
C2682 C2683 1.524 . S
C2682 C2696 1.377 . S
C2683 C2682 1.524 . S
C2683 C2684 1.397 . S
C2683 C2688 1.363 . S
C2684 H2661 0.950 . S
C2684 C2683 1.397 . S
C2684 C2685 1.334 . S
C2685 H2662 0.950 . S
C2685 C2684 1.334 . S
C2685 C2686 1.287 . S
C2686 C2685 1.287 . S
C2686 C2687 1.524 . S
C2686 H2705 0.913 . S
C2687 H2663 0.950 . S
C2687 C2686 1.524 . S
C2687 C2688 1.415 . S
C2688 H2664 0.950 . S
C2688 C2683 1.363 . S
C2688 C2687 1.415 . S
C2689 H2665 0.951 . S
C2689 C2690 1.366 . S
C2689 C2691 1.388 . S
C2690 C2689 1.366 . S
C2690 C2694 1.385 . S
C2691 H2666 0.951 . S
C2691 C2689 1.388 . S
C2691 C2692 1.366 . S
C2692 C2691 1.366 . S
C2692 C2693 1.414 . S
C2692 C2695 1.499 . S
C2693 H2667 0.950 . S
C2693 C2692 1.414 . S
C2693 C2694 1.374 . S
C2694 H2668 0.950 . S
C2694 C2690 1.385 . S
C2694 C2693 1.374 . S
C2695 C2692 1.499 . S
C2695 C2696 1.373 . S
C2695 C2697 1.389 . S
C2696 H2669 0.950 . S
C2696 C2682 1.377 . S
C2696 C2695 1.373 . S
C2697 C2681 1.377 . S
C2697 C2695 1.389 . S
C2697 C2698 1.524 . S
C2698 C2697 1.524 . S
C2698 C2699 1.397 . S
C2698 C2703 1.363 . S
C2699 H2670 0.950 . S
C2699 C2698 1.397 . S
C2699 C2700 1.334 . S
C2700 H2671 0.950 . S
C2700 C2699 1.334 . S
C2700 C2701 1.287 . S
C2701 C2700 1.287 . S
C2701 C2702 1.524 . S
C2701 H2704 0.999 . S
C2702 H2672 0.950 . S
C2702 C2701 1.524 . S
C2702 C2703 1.415 . S
C2703 H2673 0.950 . S
C2703 C2698 1.363 . S
C2703 C2702 1.415 . S
H2704 C2701 0.999 . S
H2705 C2686 0.913 . S
H2706 C2724 0.951 . S
H2707 C2726 0.951 . S
H2708 C2728 0.950 . S
H2709 C2729 0.950 . S
H2710 C2731 0.950 . S
H2711 C2734 0.981 . S
H2712 C2735 0.950 . S
H2713 C2737 0.950 . S
H2714 C2738 0.950 . S
H2715 C2739 0.951 . S
H2716 C2741 0.951 . S
H2717 C2743 0.950 . S
H2718 C2744 0.950 . S
H2719 C2746 0.950 . S
H2720 C2749 0.950 . S
H2721 C2750 0.950 . S
H2722 C2752 0.950 . S
H2723 C2753 0.959 . S
C2724 H2706 0.951 . S
C2724 C2725 1.366 . S
C2724 C2726 1.388 1_545 S
C2725 C2724 1.366 . S
C2725 C2729 1.385 . S
C2726 H2707 0.951 . S
C2726 C2724 1.388 1_565 S
C2726 C2727 1.366 1_565 S
C2727 C2726 1.366 1_545 S
C2727 C2728 1.414 . S
C2727 C2730 1.499 1_545 S
C2728 H2708 0.950 . S
C2728 C2727 1.414 . S
C2728 C2729 1.374 . S
C2729 H2709 0.950 . S
C2729 C2725 1.385 . S
C2729 C2728 1.374 . S
C2730 C2727 1.499 1_565 S
C2730 C2731 1.373 . S
C2730 C2732 1.389 . S
C2731 H2710 0.950 . S
C2731 C2730 1.373 . S
C2731 C2747 1.377 . S
C2732 C2730 1.389 . S
C2732 C2733 1.524 . S
C2732 C2746 1.377 . S
C2733 C2732 1.524 . S
C2733 C2734 1.358 1_565 S
C2733 C2738 1.363 . S
C2734 H2711 0.981 . S
C2734 C2733 1.358 1_545 S
C2734 C2735 1.343 . S
C2735 H2712 0.950 . S
C2735 C2734 1.343 . S
C2735 C2736 1.287 1_545 S
C2736 C2735 1.287 1_565 S
C2736 C2737 1.524 . S
C2736 H2755 0.913 . S
C2737 H2713 0.950 . S
C2737 C2736 1.524 . S
C2737 C2738 1.415 . S
C2738 H2714 0.950 . S
C2738 C2733 1.363 . S
C2738 C2737 1.415 . S
C2739 H2715 0.951 . S
C2739 C2740 1.366 . S
C2739 C2741 1.388 . S
C2740 C2739 1.366 . S
C2740 C2744 1.385 . S
C2741 H2716 0.951 . S
C2741 C2739 1.388 . S
C2741 C2742 1.366 . S
C2742 C2741 1.366 . S
C2742 C2743 1.414 . S
C2742 C2745 1.499 . S
C2743 H2717 0.950 . S
C2743 C2742 1.414 . S
C2743 C2744 1.374 . S
C2744 H2718 0.950 . S
C2744 C2740 1.385 . S
C2744 C2743 1.374 . S
C2745 C2742 1.499 . S
C2745 C2746 1.373 . S
C2745 C2747 1.389 . S
C2746 H2719 0.950 . S
C2746 C2732 1.377 . S
C2746 C2745 1.373 . S
C2747 C2731 1.377 . S
C2747 C2745 1.389 . S
C2747 C2748 1.524 . S
C2748 C2747 1.524 . S
C2748 C2749 1.397 . S
C2748 C2753 1.363 . S
C2749 H2720 0.950 . S
C2749 C2748 1.397 . S
C2749 C2750 1.334 . S
C2750 H2721 0.950 . S
C2750 C2749 1.334 . S
C2750 C2751 1.287 . S
C2751 C2750 1.287 . S
C2751 C2752 1.524 . S
C2751 H2754 0.999 . S
C2752 H2722 0.950 . S
C2752 C2751 1.524 . S
C2752 C2753 1.415 . S
C2753 H2723 0.959 . S
C2753 C2748 1.363 . S
C2753 C2752 1.415 . S
H2754 C2751 0.999 . S
H2755 C2736 0.913 . S
H2756 C2774 0.951 . S
H2757 C2776 0.951 . S
H2758 C2778 0.950 . S
H2759 C2779 0.950 . S
H2760 C2781 0.950 . S
H2761 C2784 0.950 . S
H2762 C2785 0.950 . S
H2763 C2787 0.950 . S
H2764 C2788 0.950 . S
H2765 C2789 0.951 . S
H2766 C2791 0.951 . S
H2767 C2793 0.958 . S
H2768 C2794 0.950 . S
H2769 C2796 0.950 . S
H2770 C2799 0.950 . S
H2771 C2800 0.950 . S
H2772 C2802 0.950 . S
H2773 C2803 0.950 . S
C2774 H2756 0.951 . S
C2774 C2775 1.366 . S
C2774 C2776 1.388 . S
C2775 C2774 1.366 . S
C2775 C2779 1.385 . S
C2776 H2757 0.951 . S
C2776 C2774 1.388 . S
C2776 C2777 1.366 . S
C2777 C2776 1.366 . S
C2777 C2778 1.414 . S
C2777 C2780 1.499 . S
C2778 H2758 0.950 . S
C2778 C2777 1.414 . S
C2778 C2779 1.374 . S
C2779 H2759 0.950 . S
C2779 C2775 1.385 . S
C2779 C2778 1.374 . S
C2780 C2777 1.499 . S
C2780 C2781 1.373 . S
C2780 C2782 1.389 . S
C2781 H2760 0.950 . S
C2781 C2780 1.373 . S
C2781 C2797 1.377 . S
C2782 C2780 1.389 . S
C2782 C2783 1.524 . S
C2782 C2796 1.377 . S
C2783 C2782 1.524 . S
C2783 C2784 1.397 . S
C2783 C2788 1.363 . S
C2784 H2761 0.950 . S
C2784 C2783 1.397 . S
C2784 C2785 1.334 . S
C2785 H2762 0.950 . S
C2785 C2784 1.334 . S
C2785 C2786 1.287 . S
C2786 C2785 1.287 . S
C2786 C2787 1.524 . S
C2786 H2805 0.913 . S
C2787 H2763 0.950 . S
C2787 C2786 1.524 . S
C2787 C2788 1.415 . S
C2788 H2764 0.950 . S
C2788 C2783 1.363 . S
C2788 C2787 1.415 . S
C2789 H2765 0.951 . S
C2789 C2790 1.366 . S
C2789 C2791 1.388 . S
C2790 C2789 1.366 . S
C2790 C2794 1.385 . S
C2791 H2766 0.951 . S
C2791 C2789 1.388 . S
C2791 C2792 1.366 . S
C2792 C2791 1.366 . S
C2792 C2793 1.413 1_565 S
C2792 C2795 1.499 1_565 S
C2793 H2767 0.958 . S
C2793 C2792 1.413 1_545 S
C2793 C2794 1.367 1_545 S
C2794 H2768 0.950 . S
C2794 C2790 1.385 . S
C2794 C2793 1.367 1_565 S
C2795 C2792 1.499 1_545 S
C2795 C2796 1.373 . S
C2795 C2797 1.389 . S
C2796 H2769 0.950 . S
C2796 C2782 1.377 . S
C2796 C2795 1.373 . S
C2797 C2781 1.377 . S
C2797 C2795 1.389 . S
C2797 C2798 1.524 . S
C2798 C2797 1.524 . S
C2798 C2799 1.397 . S
C2798 C2803 1.363 . S
C2799 H2770 0.950 . S
C2799 C2798 1.397 . S
C2799 C2800 1.334 . S
C2800 H2771 0.950 . S
C2800 C2799 1.334 . S
C2800 C2801 1.287 . S
C2801 C2800 1.287 . S
C2801 C2802 1.524 . S
C2801 H2804 0.999 . S
C2802 H2772 0.950 . S
C2802 C2801 1.524 . S
C2802 C2803 1.415 . S
C2803 H2773 0.950 . S
C2803 C2798 1.363 . S
C2803 C2802 1.415 . S
H2804 C2801 0.999 . S
H2805 C2786 0.913 . S
H2806 C2824 0.951 . S
H2807 C2826 0.951 . S
H2808 C2828 0.950 . S
H2809 C2829 0.950 . S
H2810 C2831 0.950 . S
H2811 C2834 0.950 . S
H2812 C2835 0.950 . S
H2813 C2837 0.950 . S
H2814 C2838 0.950 . S
H2815 C2839 0.951 . S
H2816 C2841 0.951 . S
H2817 C2843 0.950 . S
H2818 C2844 0.950 . S
H2819 C2846 0.950 . S
H2820 C2849 0.950 . S
H2821 C2850 0.950 . S
H2822 C2852 0.950 . S
H2823 C2853 0.950 . S
C2824 H2806 0.951 . S
C2824 C2825 1.366 . S
C2824 C2826 1.388 . S
C2825 C2824 1.366 . S
C2825 C2829 1.385 . S
C2826 H2807 0.951 . S
C2826 C2824 1.388 . S
C2826 C2827 1.366 . S
C2827 C2826 1.366 . S
C2827 C2828 1.414 . S
C2827 C2830 1.499 . S
C2828 H2808 0.950 . S
C2828 C2827 1.414 . S
C2828 C2829 1.374 . S
C2829 H2809 0.950 . S
C2829 C2825 1.385 . S
C2829 C2828 1.374 . S
C2830 C2827 1.499 . S
C2830 C2831 1.373 . S
C2830 C2832 1.389 . S
C2831 H2810 0.950 . S
C2831 C2830 1.373 . S
C2831 C2847 1.377 . S
C2832 C2830 1.389 . S
C2832 C2833 1.524 . S
C2832 C2846 1.377 . S
C2833 C2832 1.524 . S
C2833 C2834 1.397 . S
C2833 C2838 1.363 . S
C2834 H2811 0.950 . S
C2834 C2833 1.397 . S
C2834 C2835 1.334 . S
C2835 H2812 0.950 . S
C2835 C2834 1.334 . S
C2835 C2836 1.287 . S
C2836 C2835 1.287 . S
C2836 C2837 1.524 . S
C2836 H2855 0.913 . S
C2837 H2813 0.950 . S
C2837 C2836 1.524 . S
C2837 C2838 1.415 . S
C2838 H2814 0.950 . S
C2838 C2833 1.363 . S
C2838 C2837 1.415 . S
C2839 H2815 0.951 . S
C2839 C2840 1.366 . S
C2839 C2841 1.388 . S
C2840 C2839 1.366 . S
C2840 C2844 1.385 . S
C2841 H2816 0.951 . S
C2841 C2839 1.388 . S
C2841 C2842 1.366 . S
C2842 C2841 1.366 . S
C2842 C2843 1.414 1_565 S
C2842 C2845 1.499 1_565 S
C2843 H2817 0.950 . S
C2843 C2842 1.414 1_545 S
C2843 C2844 1.374 1_545 S
C2844 H2818 0.950 . S
C2844 C2840 1.385 . S
C2844 C2843 1.374 1_565 S
C2845 C2842 1.499 1_545 S
C2845 C2846 1.373 . S
C2845 C2847 1.389 . S
C2846 H2819 0.950 . S
C2846 C2832 1.377 . S
C2846 C2845 1.373 . S
C2847 C2831 1.377 . S
C2847 C2845 1.389 . S
C2847 C2848 1.524 1_545 S
C2848 C2847 1.524 1_565 S
C2848 C2849 1.397 . S
C2848 C2853 1.363 . S
C2849 H2820 0.950 . S
C2849 C2848 1.397 . S
C2849 C2850 1.334 . S
C2850 H2821 0.950 . S
C2850 C2849 1.334 . S
C2850 C2851 1.287 . S
C2851 C2850 1.287 . S
C2851 C2852 1.524 . S
C2851 H2854 0.999 . S
C2852 H2822 0.950 . S
C2852 C2851 1.524 . S
C2852 C2853 1.415 . S
C2853 H2823 0.950 . S
C2853 C2848 1.363 . S
C2853 C2852 1.415 . S
H2854 C2851 0.999 . S
H2855 C2836 0.913 . S
H2856 C2874 0.951 . S
H2857 C2876 0.951 . S
H2858 C2878 0.950 . S
H2859 C2879 0.950 . S
H2860 C2881 0.950 . S
H2861 C2884 0.950 . S
H2862 C2885 0.950 . S
H2863 C2887 0.950 . S
H2864 C2888 0.950 1_545 S
H2865 C2889 0.951 . S
H2866 C2891 0.951 . S
H2867 C2893 0.950 . S
H2868 C2894 0.950 . S
H2869 C2896 0.950 . S
H2870 C2899 0.950 . S
H2871 C2900 0.950 . S
H2872 C2902 0.950 . S
H2873 C2903 0.950 . S
C2874 H2856 0.951 . S
C2874 C2875 1.366 . S
C2874 C2876 1.388 . S
C2875 C2874 1.366 . S
C2875 C2879 1.385 . S
C2876 H2857 0.951 . S
C2876 C2874 1.388 . S
C2876 C2877 1.366 . S
C2877 C2876 1.366 . S
C2877 C2878 1.414 . S
C2877 C2880 1.499 1_565 S
C2878 H2858 0.950 . S
C2878 C2877 1.414 . S
C2878 C2879 1.374 . S
C2879 H2859 0.950 . S
C2879 C2875 1.385 . S
C2879 C2878 1.374 . S
C2880 C2877 1.499 1_545 S
C2880 C2881 1.373 . S
C2880 C2882 1.389 . S
C2881 H2860 0.950 . S
C2881 C2880 1.373 . S
C2881 C2897 1.377 . S
C2882 C2880 1.389 . S
C2882 C2883 1.524 1_545 S
C2882 C2896 1.377 . S
C2883 C2882 1.524 1_565 S
C2883 C2884 1.397 . S
C2883 C2888 1.363 . S
C2884 H2861 0.950 . S
C2884 C2883 1.397 . S
C2884 C2885 1.334 . S
C2885 H2862 0.950 . S
C2885 C2884 1.334 . S
C2885 C2886 1.287 . S
C2886 C2885 1.287 . S
C2886 C2887 1.524 . S
C2886 H2905 0.913 . S
C2887 H2863 0.950 . S
C2887 C2886 1.524 . S
C2887 C2888 1.415 . S
C2888 H2864 0.950 1_565 S
C2888 C2883 1.363 . S
C2888 C2887 1.415 . S
C2889 H2865 0.951 . S
C2889 C2890 1.366 . S
C2889 C2891 1.388 . S
C2890 C2889 1.366 . S
C2890 C2894 1.385 . S
C2891 H2866 0.951 . S
C2891 C2889 1.388 . S
C2891 C2892 1.366 . S
C2892 C2891 1.366 . S
C2892 C2893 1.414 . S
C2892 C2895 1.499 . S
C2893 H2867 0.950 . S
C2893 C2892 1.414 . S
C2893 C2894 1.374 . S
C2894 H2868 0.950 . S
C2894 C2890 1.385 . S
C2894 C2893 1.374 . S
C2895 C2892 1.499 . S
C2895 C2896 1.373 . S
C2895 C2897 1.389 . S
C2896 H2869 0.950 . S
C2896 C2882 1.377 . S
C2896 C2895 1.373 . S
C2897 C2881 1.377 . S
C2897 C2895 1.389 . S
C2897 C2898 1.524 . S
C2898 C2897 1.524 . S
C2898 C2899 1.397 . S
C2898 C2903 1.363 . S
C2899 H2870 0.950 . S
C2899 C2898 1.397 . S
C2899 C2900 1.334 . S
C2900 H2871 0.950 . S
C2900 C2899 1.334 . S
C2900 C2901 1.287 . S
C2901 C2900 1.287 . S
C2901 C2902 1.524 . S
C2901 H2904 0.999 . S
C2902 H2872 0.950 . S
C2902 C2901 1.524 . S
C2902 C2903 1.415 . S
C2903 H2873 0.950 . S
C2903 C2898 1.363 . S
C2903 C2902 1.415 . S
H2904 C2901 0.999 . S
H2905 C2886 0.913 . S
H2906 C2924 0.951 . S
H2907 C2926 0.951 . S
H2908 C2928 0.950 . S
H2909 C2929 0.950 . S
H2910 C2931 0.950 . S
H2911 C2934 0.950 . S
H2912 C2935 0.950 . S
H2913 C2937 0.950 . S
H2914 C2938 0.950 . S
H2915 C2939 0.951 . S
H2916 C2941 0.951 . S
H2917 C2943 0.950 . S
H2918 C2944 0.950 . S
H2919 C2946 0.950 . S
H2920 C2949 0.950 . S
H2921 C2950 0.950 . S
H2922 C2952 0.950 . S
H2923 C2953 0.950 . S
C2924 H2906 0.951 . S
C2924 C2925 1.366 . S
C2924 C2926 1.388 . S
C2925 C2924 1.366 . S
C2925 C2929 1.385 . S
C2926 H2907 0.951 . S
C2926 C2924 1.388 . S
C2926 C2927 1.366 . S
C2927 C2926 1.366 . S
C2927 C2928 1.414 . S
C2927 C2930 1.499 . S
C2928 H2908 0.950 . S
C2928 C2927 1.414 . S
C2928 C2929 1.374 . S
C2929 H2909 0.950 . S
C2929 C2925 1.385 . S
C2929 C2928 1.374 . S
C2930 C2927 1.499 . S
C2930 C2931 1.373 . S
C2930 C2932 1.389 . S
C2931 H2910 0.950 . S
C2931 C2930 1.373 . S
C2931 C2947 1.377 . S
C2932 C2930 1.389 . S
C2932 C2933 1.524 . S
C2932 C2946 1.377 . S
C2933 C2932 1.524 . S
C2933 C2934 1.397 . S
C2933 C2938 1.363 . S
C2934 H2911 0.950 . S
C2934 C2933 1.397 . S
C2934 C2935 1.334 . S
C2935 H2912 0.950 . S
C2935 C2934 1.334 . S
C2935 C2936 1.287 . S
C2936 C2935 1.287 . S
C2936 C2937 1.524 . S
C2936 H2955 0.913 . S
C2937 H2913 0.950 . S
C2937 C2936 1.524 . S
C2937 C2938 1.415 . S
C2938 H2914 0.950 . S
C2938 C2933 1.363 . S
C2938 C2937 1.415 . S
C2939 H2915 0.951 . S
C2939 C2940 1.366 . S
C2939 C2941 1.388 1_565 S
C2940 C2939 1.366 . S
C2940 C2944 1.385 . S
C2941 H2916 0.951 . S
C2941 C2939 1.388 1_545 S
C2941 C2942 1.366 1_545 S
C2942 C2941 1.366 1_565 S
C2942 C2943 1.414 . S
C2942 C2945 1.499 1_565 S
C2943 H2917 0.950 . S
C2943 C2942 1.414 . S
C2943 C2944 1.374 . S
C2944 H2918 0.950 . S
C2944 C2940 1.385 . S
C2944 C2943 1.374 . S
C2945 C2942 1.499 1_545 S
C2945 C2946 1.373 . S
C2945 C2947 1.389 . S
C2946 H2919 0.950 . S
C2946 C2932 1.377 . S
C2946 C2945 1.373 . S
C2947 C2931 1.377 . S
C2947 C2945 1.389 . S
C2947 C2948 1.524 . S
C2948 C2947 1.524 . S
C2948 C2949 1.397 1_545 S
C2948 C2953 1.363 . S
C2949 H2920 0.950 . S
C2949 C2948 1.397 1_565 S
C2949 C2950 1.334 . S
C2950 H2921 0.950 . S
C2950 C2949 1.334 . S
C2950 C2951 1.287 1_565 S
C2951 C2950 1.287 1_545 S
C2951 C2952 1.524 . S
C2951 H2954 0.999 . S
C2952 H2922 0.950 . S
C2952 C2951 1.524 . S
C2952 C2953 1.415 . S
C2953 H2923 0.950 . S
C2953 C2948 1.363 . S
C2953 C2952 1.415 . S
H2954 C2951 0.999 . S
H2955 C2936 0.913 . S
H2956 C2974 0.951 . S
H2957 C2976 0.951 . S
H2958 C2978 0.950 . S
H2959 C2979 0.950 . S
H2960 C2981 0.950 1_545 S
H2961 C2984 0.950 . S
H2962 C2985 0.950 . S
H2963 C2987 0.950 . S
H2964 C2988 0.950 . S
H2965 C2989 0.951 . S
H2966 C2991 0.951 . S
H2967 C2993 0.950 . S
H2968 C2994 0.950 . S
H2969 C2996 0.950 . S
H2970 C2999 0.950 . S
H2971 C3000 0.963 . S
H2972 C3002 0.950 . S
H2973 C3003 0.950 . S
C2974 H2956 0.951 . S
C2974 C2975 1.366 . S
C2974 C2976 1.388 1_545 S
C2975 C2974 1.366 . S
C2975 C2979 1.385 . S
C2976 H2957 0.951 . S
C2976 C2974 1.388 1_565 S
C2976 C2977 1.366 1_565 S
C2977 C2976 1.366 1_545 S
C2977 C2978 1.414 . S
C2977 C2980 1.499 1_545 S
C2978 H2958 0.950 . S
C2978 C2977 1.414 . S
C2978 C2979 1.374 . S
C2979 H2959 0.950 . S
C2979 C2975 1.385 . S
C2979 C2978 1.374 . S
C2980 C2977 1.499 1_565 S
C2980 C2981 1.373 . S
C2980 C2982 1.389 . S
C2981 H2960 0.950 1_565 S
C2981 C2980 1.373 . S
C2981 C2997 1.377 . S
C2982 C2980 1.389 . S
C2982 C2983 1.524 . S
C2982 C2996 1.377 . S
C2983 C2982 1.524 . S
C2983 C2984 1.397 . S
C2983 C2988 1.363 . S
C2984 H2961 0.950 . S
C2984 C2983 1.397 . S
C2984 C2985 1.334 . S
C2985 H2962 0.950 . S
C2985 C2984 1.334 . S
C2985 C2986 1.287 . S
C2986 C2985 1.287 . S
C2986 C2987 1.524 . S
C2986 H3005 0.913 . S
C2987 H2963 0.950 . S
C2987 C2986 1.524 . S
C2987 C2988 1.415 . S
C2988 H2964 0.950 . S
C2988 C2983 1.363 . S
C2988 C2987 1.415 . S
C2989 H2965 0.951 . S
C2989 C2990 1.366 . S
C2989 C2991 1.388 . S
C2990 C2989 1.366 . S
C2990 C2994 1.385 . S
C2991 H2966 0.951 . S
C2991 C2989 1.388 . S
C2991 C2992 1.366 . S
C2992 C2991 1.366 . S
C2992 C2993 1.414 . S
C2992 C2995 1.499 . S
C2993 H2967 0.950 . S
C2993 C2992 1.414 . S
C2993 C2994 1.374 . S
C2994 H2968 0.950 . S
C2994 C2990 1.385 . S
C2994 C2993 1.374 . S
C2995 C2992 1.499 . S
C2995 C2996 1.373 . S
C2995 C2997 1.389 . S
C2996 H2969 0.950 . S
C2996 C2982 1.377 . S
C2996 C2995 1.373 . S
C2997 C2981 1.377 . S
C2997 C2995 1.389 . S
C2997 C2998 1.524 . S
C2998 C2997 1.524 . S
C2998 C2999 1.397 . S
C2998 C3003 1.363 1_565 S
C2999 H2970 0.950 . S
C2999 C2998 1.397 . S
C2999 C3000 1.352 . S
C3000 H2971 0.963 . S
C3000 C2999 1.352 . S
C3000 C3001 1.257 1_565 S
C3001 C3000 1.257 1_545 S
C3001 C3002 1.524 . S
C3001 H3004 0.999 . S
C3002 H2972 0.950 . S
C3002 C3001 1.524 . S
C3002 C3003 1.415 . S
C3003 H2973 0.950 . S
C3003 C2998 1.363 1_545 S
C3003 C3002 1.415 . S
H3004 C3001 0.999 . S
H3005 C2986 0.913 . S
H3006 C3024 0.951 . S
H3007 C3026 0.951 . S
H3008 C3028 0.950 . S
H3009 C3029 0.950 . S
H3010 C3031 0.950 . S
H3011 C3034 0.950 . S
H3012 C3035 0.950 . S
H3013 C3037 0.950 . S
H3014 C3038 0.950 . S
H3015 C3039 0.951 . S
H3016 C3041 0.951 . S
H3017 C3043 0.950 . S
H3018 C3044 0.950 . S
H3019 C3046 0.950 . S
H3020 C3049 0.950 . S
H3021 C3050 0.950 . S
H3022 C3052 0.950 . S
H3023 C3053 0.950 . S
C3024 H3006 0.951 . S
C3024 C3025 1.366 . S
C3024 C3026 1.388 . S
C3025 C3024 1.366 . S
C3025 C3029 1.385 . S
C3026 H3007 0.951 . S
C3026 C3024 1.388 . S
C3026 C3027 1.366 . S
C3027 C3026 1.366 . S
C3027 C3028 1.414 . S
C3027 C3030 1.499 . S
C3028 H3008 0.950 . S
C3028 C3027 1.414 . S
C3028 C3029 1.374 . S
C3029 H3009 0.950 . S
C3029 C3025 1.385 . S
C3029 C3028 1.374 . S
C3030 C3027 1.499 . S
C3030 C3031 1.373 . S
C3030 C3032 1.389 . S
C3031 H3010 0.950 . S
C3031 C3030 1.373 . S
C3031 C3047 1.377 . S
C3032 C3030 1.389 . S
C3032 C3033 1.524 . S
C3032 C3046 1.377 . S
C3033 C3032 1.524 . S
C3033 C3034 1.397 . S
C3033 C3038 1.363 . S
C3034 H3011 0.950 . S
C3034 C3033 1.397 . S
C3034 C3035 1.334 . S
C3035 H3012 0.950 . S
C3035 C3034 1.334 . S
C3035 C3036 1.287 . S
C3036 C3035 1.287 . S
C3036 C3037 1.524 . S
C3036 H3055 0.913 . S
C3037 H3013 0.950 . S
C3037 C3036 1.524 . S
C3037 C3038 1.415 . S
C3038 H3014 0.950 . S
C3038 C3033 1.363 . S
C3038 C3037 1.415 . S
C3039 H3015 0.951 . S
C3039 C3040 1.366 . S
C3039 C3041 1.388 . S
C3040 C3039 1.366 . S
C3040 C3044 1.385 . S
C3041 H3016 0.951 . S
C3041 C3039 1.388 . S
C3041 C3042 1.366 . S
C3042 C3041 1.366 . S
C3042 C3043 1.414 1_545 S
C3042 C3045 1.499 1_545 S
C3043 H3017 0.950 . S
C3043 C3042 1.414 1_565 S
C3043 C3044 1.374 1_565 S
C3044 H3018 0.950 . S
C3044 C3040 1.385 . S
C3044 C3043 1.374 1_545 S
C3045 C3042 1.499 1_565 S
C3045 C3046 1.373 . S
C3045 C3047 1.389 . S
C3046 H3019 0.950 . S
C3046 C3032 1.377 . S
C3046 C3045 1.373 . S
C3047 C3031 1.377 . S
C3047 C3045 1.389 . S
C3047 C3048 1.524 . S
C3048 C3047 1.524 . S
C3048 C3049 1.397 . S
C3048 C3053 1.363 . S
C3049 H3020 0.950 . S
C3049 C3048 1.397 . S
C3049 C3050 1.334 . S
C3050 H3021 0.950 . S
C3050 C3049 1.334 . S
C3050 C3051 1.287 . S
C3051 C3050 1.287 . S
C3051 C3052 1.524 . S
C3051 H3054 0.999 . S
C3052 H3022 0.950 . S
C3052 C3051 1.524 . S
C3052 C3053 1.415 . S
C3053 H3023 0.950 . S
C3053 C3048 1.363 . S
C3053 C3052 1.415 . S
H3054 C3051 0.999 . S
H3055 C3036 0.913 . S
H3056 C3074 0.951 . S
H3057 C3076 0.951 . S
H3058 C3078 0.950 . S
H3059 C3079 0.950 . S
H3060 C3081 0.950 . S
H3061 C3084 0.950 . S
H3062 C3085 0.950 . S
H3063 C3087 0.950 . S
H3064 C3088 0.950 . S
H3065 C3089 0.951 . S
H3066 C3091 0.951 . S
H3067 C3093 0.950 . S
H3068 C3094 0.950 . S
H3069 C3096 0.950 . S
H3070 C3099 0.950 . S
H3071 C3100 0.950 . S
H3072 C3102 0.950 . S
H3073 C3103 0.950 . S
C3074 H3056 0.951 . S
C3074 C3075 1.366 . S
C3074 C3076 1.388 . S
C3075 C3074 1.366 . S
C3075 C3079 1.385 . S
C3076 H3057 0.951 . S
C3076 C3074 1.388 . S
C3076 C3077 1.366 . S
C3077 C3076 1.366 . S
C3077 C3078 1.414 . S
C3077 C3080 1.499 . S
C3078 H3058 0.950 . S
C3078 C3077 1.414 . S
C3078 C3079 1.374 . S
C3079 H3059 0.950 . S
C3079 C3075 1.385 . S
C3079 C3078 1.374 . S
C3080 C3077 1.499 . S
C3080 C3081 1.373 . S
C3080 C3082 1.389 . S
C3081 H3060 0.950 . S
C3081 C3080 1.373 . S
C3081 C3097 1.377 . S
C3082 C3080 1.389 . S
C3082 C3083 1.524 . S
C3082 C3096 1.377 . S
C3083 C3082 1.524 . S
C3083 C3084 1.397 . S
C3083 C3088 1.363 . S
C3084 H3061 0.950 . S
C3084 C3083 1.397 . S
C3084 C3085 1.334 . S
C3085 H3062 0.950 . S
C3085 C3084 1.334 . S
C3085 C3086 1.287 . S
C3086 C3085 1.287 . S
C3086 C3087 1.524 . S
C3086 H3105 0.913 . S
C3087 H3063 0.950 . S
C3087 C3086 1.524 . S
C3087 C3088 1.415 . S
C3088 H3064 0.950 . S
C3088 C3083 1.363 . S
C3088 C3087 1.415 . S
C3089 H3065 0.951 . S
C3089 C3090 1.366 . S
C3089 C3091 1.388 . S
C3090 C3089 1.366 . S
C3090 C3094 1.385 . S
C3091 H3066 0.951 . S
C3091 C3089 1.388 . S
C3091 C3092 1.366 . S
C3092 C3091 1.366 . S
C3092 C3093 1.414 . S
C3092 C3095 1.499 . S
C3093 H3067 0.950 . S
C3093 C3092 1.414 . S
C3093 C3094 1.374 . S
C3094 H3068 0.950 . S
C3094 C3090 1.385 . S
C3094 C3093 1.374 . S
C3095 C3092 1.499 . S
C3095 C3096 1.373 . S
C3095 C3097 1.389 . S
C3096 H3069 0.950 . S
C3096 C3082 1.377 . S
C3096 C3095 1.373 . S
C3097 C3081 1.377 . S
C3097 C3095 1.389 . S
C3097 C3098 1.524 . S
C3098 C3097 1.524 . S
C3098 C3099 1.397 . S
C3098 C3103 1.363 . S
C3099 H3070 0.950 . S
C3099 C3098 1.397 . S
C3099 C3100 1.334 . S
C3100 H3071 0.950 . S
C3100 C3099 1.334 . S
C3100 C3101 1.287 . S
C3101 C3100 1.287 . S
C3101 C3102 1.524 . S
C3101 H3104 0.999 . S
C3102 H3072 0.950 . S
C3102 C3101 1.524 . S
C3102 C3103 1.415 . S
C3103 H3073 0.950 . S
C3103 C3098 1.363 . S
C3103 C3102 1.415 . S
H3104 C3101 0.999 . S
H3105 C3086 0.913 . S
H3106 C3124 0.951 . S
H3107 C3126 0.951 . S
H3108 C3128 0.950 . S
H3109 C3129 0.950 . S
H3110 C3131 0.950 . S
H3111 C3134 0.950 . S
H3112 C3135 0.950 . S
H3113 C3137 0.950 . S
H3114 C3138 0.950 . S
H3115 C3139 0.951 . S
H3116 C3141 0.951 . S
H3117 C3143 0.950 . S
H3118 C3144 0.950 . S
H3119 C3146 0.950 . S
H3120 C3149 0.950 . S
H3121 C3150 0.950 . S
H3122 C3152 0.950 . S
H3123 C3153 0.950 . S
C3124 H3106 0.951 . S
C3124 C3125 1.366 . S
C3124 C3126 1.388 . S
C3125 C3124 1.366 . S
C3125 C3129 1.385 . S
C3126 H3107 0.951 . S
C3126 C3124 1.388 . S
C3126 C3127 1.366 . S
C3127 C3126 1.366 . S
C3127 C3128 1.414 . S
C3127 C3130 1.499 . S
C3128 H3108 0.950 . S
C3128 C3127 1.414 . S
C3128 C3129 1.374 . S
C3129 H3109 0.950 . S
C3129 C3125 1.385 . S
C3129 C3128 1.374 . S
C3130 C3127 1.499 . S
C3130 C3131 1.373 . S
C3130 C3132 1.389 . S
C3131 H3110 0.950 . S
C3131 C3130 1.373 . S
C3131 C3147 1.377 . S
C3132 C3130 1.389 . S
C3132 C3133 1.524 . S
C3132 C3146 1.377 . S
C3133 C3132 1.524 . S
C3133 C3134 1.397 . S
C3133 C3138 1.363 . S
C3134 H3111 0.950 . S
C3134 C3133 1.397 . S
C3134 C3135 1.334 . S
C3135 H3112 0.950 . S
C3135 C3134 1.334 . S
C3135 C3136 1.287 . S
C3136 C3135 1.287 . S
C3136 C3137 1.524 . S
C3136 H3155 0.913 . S
C3137 H3113 0.950 . S
C3137 C3136 1.524 . S
C3137 C3138 1.415 . S
C3138 H3114 0.950 . S
C3138 C3133 1.363 . S
C3138 C3137 1.415 . S
C3139 H3115 0.951 . S
C3139 C3140 1.366 . S
C3139 C3141 1.388 . S
C3140 C3139 1.366 . S
C3140 C3144 1.385 . S
C3141 H3116 0.951 . S
C3141 C3139 1.388 . S
C3141 C3142 1.366 . S
C3142 C3141 1.366 . S
C3142 C3143 1.414 . S
C3142 C3145 1.499 . S
C3143 H3117 0.950 . S
C3143 C3142 1.414 . S
C3143 C3144 1.374 . S
C3144 H3118 0.950 . S
C3144 C3140 1.385 . S
C3144 C3143 1.374 . S
C3145 C3142 1.499 . S
C3145 C3146 1.373 . S
C3145 C3147 1.389 . S
C3146 H3119 0.950 . S
C3146 C3132 1.377 . S
C3146 C3145 1.373 . S
C3147 C3131 1.377 . S
C3147 C3145 1.389 . S
C3147 C3148 1.524 . S
C3148 C3147 1.524 . S
C3148 C3149 1.397 . S
C3148 C3153 1.363 . S
C3149 H3120 0.950 . S
C3149 C3148 1.397 . S
C3149 C3150 1.334 . S
C3150 H3121 0.950 . S
C3150 C3149 1.334 . S
C3150 C3151 1.287 . S
C3151 C3150 1.287 . S
C3151 C3152 1.524 . S
C3151 H3154 0.999 . S
C3152 H3122 0.950 . S
C3152 C3151 1.524 . S
C3152 C3153 1.415 . S
C3153 H3123 0.950 . S
C3153 C3148 1.363 . S
C3153 C3152 1.415 . S
H3154 C3151 0.999 . S
H3155 C3136 0.913 . S
H3156 C3174 0.951 . S
H3157 C3176 0.951 . S
H3158 C3178 0.950 . S
H3159 C3179 0.950 . S
H3160 C3181 0.950 . S
H3161 C3184 0.950 . S
H3162 C3185 0.950 . S
H3163 C3187 0.950 . S
H3164 C3188 0.950 . S
H3165 C3189 0.951 . S
H3166 C3191 0.951 . S
H3167 C3193 0.950 . S
H3168 C3194 0.950 . S
H3169 C3196 0.950 . S
H3170 C3199 0.950 . S
H3171 C3200 0.950 . S
H3172 C3202 0.950 . S
H3173 C3203 0.950 . S
C3174 H3156 0.951 . S
C3174 C3175 1.366 . S
C3174 C3176 1.388 . S
C3175 C3174 1.366 . S
C3175 C3179 1.385 . S
C3176 H3157 0.951 . S
C3176 C3174 1.388 . S
C3176 C3177 1.366 . S
C3177 C3176 1.366 . S
C3177 C3178 1.414 . S
C3177 C3180 1.499 . S
C3178 H3158 0.950 . S
C3178 C3177 1.414 . S
C3178 C3179 1.374 . S
C3179 H3159 0.950 . S
C3179 C3175 1.385 . S
C3179 C3178 1.374 . S
C3180 C3177 1.499 . S
C3180 C3181 1.373 . S
C3180 C3182 1.389 . S
C3181 H3160 0.950 . S
C3181 C3180 1.373 . S
C3181 C3197 1.377 . S
C3182 C3180 1.389 . S
C3182 C3183 1.524 . S
C3182 C3196 1.377 . S
C3183 C3182 1.524 . S
C3183 C3184 1.397 . S
C3183 C3188 1.363 . S
C3184 H3161 0.950 . S
C3184 C3183 1.397 . S
C3184 C3185 1.334 . S
C3185 H3162 0.950 . S
C3185 C3184 1.334 . S
C3185 C3186 1.287 . S
C3186 C3185 1.287 . S
C3186 C3187 1.524 . S
C3186 H3205 0.913 . S
C3187 H3163 0.950 . S
C3187 C3186 1.524 . S
C3187 C3188 1.415 . S
C3188 H3164 0.950 . S
C3188 C3183 1.363 . S
C3188 C3187 1.415 . S
C3189 H3165 0.951 . S
C3189 C3190 1.366 . S
C3189 C3191 1.388 . S
C3190 C3189 1.366 . S
C3190 C3194 1.385 . S
C3191 H3166 0.951 . S
C3191 C3189 1.388 . S
C3191 C3192 1.366 . S
C3192 C3191 1.366 . S
C3192 C3193 1.414 . S
C3192 C3195 1.499 . S
C3193 H3167 0.950 . S
C3193 C3192 1.414 . S
C3193 C3194 1.374 . S
C3194 H3168 0.950 . S
C3194 C3190 1.385 . S
C3194 C3193 1.374 . S
C3195 C3192 1.499 . S
C3195 C3196 1.373 . S
C3195 C3197 1.389 . S
C3196 H3169 0.950 . S
C3196 C3182 1.377 . S
C3196 C3195 1.373 . S
C3197 C3181 1.377 . S
C3197 C3195 1.389 . S
C3197 C3198 1.524 . S
C3198 C3197 1.524 . S
C3198 C3199 1.397 . S
C3198 C3203 1.363 . S
C3199 H3170 0.950 . S
C3199 C3198 1.397 . S
C3199 C3200 1.334 . S
C3200 H3171 0.950 . S
C3200 C3199 1.334 . S
C3200 C3201 1.287 . S
C3201 C3200 1.287 . S
C3201 C3202 1.524 . S
C3201 H3204 0.999 . S
C3202 H3172 0.950 . S
C3202 C3201 1.524 . S
C3202 C3203 1.415 . S
C3203 H3173 0.950 . S
C3203 C3198 1.363 . S
C3203 C3202 1.415 . S
H3204 C3201 0.999 . S
H3205 C3186 0.913 . S
H3206 C3224 0.951 . S
H3207 C3226 0.951 . S
H3208 C3228 0.950 . S
H3209 C3229 0.950 . S
H3210 C3231 0.950 . S
H3211 C3234 0.950 . S
H3212 C3235 0.950 . S
H3213 C3237 0.950 . S
H3214 C3238 0.950 . S
H3215 C3239 0.951 . S
H3216 C3241 0.951 . S
H3217 C3243 0.950 . S
H3218 C3244 0.950 . S
H3219 C3246 0.950 . S
H3220 C3249 0.950 . S
H3221 C3250 0.950 . S
H3222 C3252 0.950 . S
H3223 C3253 0.950 . S
C3224 H3206 0.951 . S
C3224 C3225 1.366 . S
C3224 C3226 1.388 . S
C3225 C3224 1.366 . S
C3225 C3229 1.385 . S
C3226 H3207 0.951 . S
C3226 C3224 1.388 . S
C3226 C3227 1.366 . S
C3227 C3226 1.366 . S
C3227 C3228 1.414 . S
C3227 C3230 1.499 . S
C3228 H3208 0.950 . S
C3228 C3227 1.414 . S
C3228 C3229 1.374 . S
C3229 H3209 0.950 . S
C3229 C3225 1.385 . S
C3229 C3228 1.374 . S
C3230 C3227 1.499 . S
C3230 C3231 1.373 . S
C3230 C3232 1.389 . S
C3231 H3210 0.950 . S
C3231 C3230 1.373 . S
C3231 C3247 1.377 . S
C3232 C3230 1.389 . S
C3232 C3233 1.524 . S
C3232 C3246 1.377 . S
C3233 C3232 1.524 . S
C3233 C3234 1.397 . S
C3233 C3238 1.363 . S
C3234 H3211 0.950 . S
C3234 C3233 1.397 . S
C3234 C3235 1.334 . S
C3235 H3212 0.950 . S
C3235 C3234 1.334 . S
C3235 C3236 1.287 . S
C3236 C3235 1.287 . S
C3236 C3237 1.524 . S
C3236 H3255 0.913 . S
C3237 H3213 0.950 . S
C3237 C3236 1.524 . S
C3237 C3238 1.415 . S
C3238 H3214 0.950 . S
C3238 C3233 1.363 . S
C3238 C3237 1.415 . S
C3239 H3215 0.951 . S
C3239 C3240 1.366 . S
C3239 C3241 1.388 . S
C3240 C3239 1.366 . S
C3240 C3244 1.385 . S
C3241 H3216 0.951 . S
C3241 C3239 1.388 . S
C3241 C3242 1.366 . S
C3242 C3241 1.366 . S
C3242 C3243 1.414 . S
C3242 C3245 1.499 . S
C3243 H3217 0.950 . S
C3243 C3242 1.414 . S
C3243 C3244 1.374 . S
C3244 H3218 0.950 . S
C3244 C3240 1.385 . S
C3244 C3243 1.374 . S
C3245 C3242 1.499 . S
C3245 C3246 1.373 . S
C3245 C3247 1.389 . S
C3246 H3219 0.950 . S
C3246 C3232 1.377 . S
C3246 C3245 1.373 . S
C3247 C3231 1.377 . S
C3247 C3245 1.389 . S
C3247 C3248 1.524 . S
C3248 C3247 1.524 . S
C3248 C3249 1.397 . S
C3248 C3253 1.363 . S
C3249 H3220 0.950 . S
C3249 C3248 1.397 . S
C3249 C3250 1.334 . S
C3250 H3221 0.950 . S
C3250 C3249 1.334 . S
C3250 C3251 1.287 . S
C3251 C3250 1.287 . S
C3251 C3252 1.524 . S
C3251 H3254 0.999 . S
C3252 H3222 0.950 . S
C3252 C3251 1.524 . S
C3252 C3253 1.415 . S
C3253 H3223 0.950 . S
C3253 C3248 1.363 . S
C3253 C3252 1.415 . S
H3254 C3251 0.999 . S
H3255 C3236 0.913 . S
H3256 C3274 0.951 . S
H3257 C3276 0.951 . S
H3258 C3278 0.950 . S
H3259 C3279 0.950 . S
H3260 C3281 0.950 . S
H3261 C3284 0.950 . S
H3262 C3285 0.950 . S
H3263 C3287 0.950 . S
H3264 C3288 0.950 . S
H3265 C3289 0.951 . S
H3266 C3291 0.951 . S
H3267 C3293 0.950 . S
H3268 C3294 0.950 . S
H3269 C3296 0.950 . S
H3270 C3299 0.950 . S
H3271 C3300 0.950 . S
H3272 C3302 0.950 . S
H3273 C3303 0.950 . S
C3274 H3256 0.951 . S
C3274 C3275 1.366 . S
C3274 C3276 1.388 . S
C3275 C3274 1.366 . S
C3275 C3279 1.385 . S
C3276 H3257 0.951 . S
C3276 C3274 1.388 . S
C3276 C3277 1.366 . S
C3277 C3276 1.366 . S
C3277 C3278 1.414 . S
C3277 C3280 1.499 . S
C3278 H3258 0.950 . S
C3278 C3277 1.414 . S
C3278 C3279 1.374 . S
C3279 H3259 0.950 . S
C3279 C3275 1.385 . S
C3279 C3278 1.374 . S
C3280 C3277 1.499 . S
C3280 C3281 1.373 . S
C3280 C3282 1.389 . S
C3281 H3260 0.950 . S
C3281 C3280 1.373 . S
C3281 C3297 1.377 . S
C3282 C3280 1.389 . S
C3282 C3283 1.524 . S
C3282 C3296 1.377 . S
C3283 C3282 1.524 . S
C3283 C3284 1.397 . S
C3283 C3288 1.363 . S
C3284 H3261 0.950 . S
C3284 C3283 1.397 . S
C3284 C3285 1.334 . S
C3285 H3262 0.950 . S
C3285 C3284 1.334 . S
C3285 C3286 1.287 . S
C3286 C3285 1.287 . S
C3286 C3287 1.524 . S
C3286 H3305 0.913 . S
C3287 H3263 0.950 . S
C3287 C3286 1.524 . S
C3287 C3288 1.415 . S
C3288 H3264 0.950 . S
C3288 C3283 1.363 . S
C3288 C3287 1.415 . S
C3289 H3265 0.951 . S
C3289 C3290 1.366 . S
C3289 C3291 1.388 . S
C3290 C3289 1.366 . S
C3290 C3294 1.385 . S
C3291 H3266 0.951 . S
C3291 C3289 1.388 . S
C3291 C3292 1.366 . S
C3292 C3291 1.366 . S
C3292 C3293 1.414 . S
C3292 C3295 1.499 . S
C3293 H3267 0.950 . S
C3293 C3292 1.414 . S
C3293 C3294 1.374 . S
C3294 H3268 0.950 . S
C3294 C3290 1.385 . S
C3294 C3293 1.374 . S
C3295 C3292 1.499 . S
C3295 C3296 1.373 . S
C3295 C3297 1.389 . S
C3296 H3269 0.950 . S
C3296 C3282 1.377 . S
C3296 C3295 1.373 . S
C3297 C3281 1.377 . S
C3297 C3295 1.389 . S
C3297 C3298 1.524 . S
C3298 C3297 1.524 . S
C3298 C3299 1.397 . S
C3298 C3303 1.363 . S
C3299 H3270 0.950 . S
C3299 C3298 1.397 . S
C3299 C3300 1.334 . S
C3300 H3271 0.950 . S
C3300 C3299 1.334 . S
C3300 C3301 1.287 . S
C3301 C3300 1.287 . S
C3301 C3302 1.524 . S
C3301 H3304 0.999 . S
C3302 H3272 0.950 . S
C3302 C3301 1.524 . S
C3302 C3303 1.415 . S
C3303 H3273 0.950 . S
C3303 C3298 1.363 . S
C3303 C3302 1.415 . S
H3304 C3301 0.999 . S
H3305 C3286 0.913 . S
H3306 C3324 0.951 . S
H3307 C3326 0.951 . S
H3308 C3328 0.950 . S
H3309 C3329 0.950 . S
H3310 C3331 0.950 . S
H3311 C3334 0.950 . S
H3312 C3335 0.950 . S
H3313 C3337 0.950 . S
H3314 C3338 0.950 . S
H3315 C3339 0.951 . S
H3316 C3341 0.951 . S
H3317 C3343 0.950 . S
H3318 C3344 0.950 . S
H3319 C3346 0.950 . S
H3320 C3349 0.950 . S
H3321 C3350 0.950 . S
H3322 C3352 0.950 . S
H3323 C3353 0.950 . S
C3324 H3306 0.951 . S
C3324 C3325 1.366 . S
C3324 C3326 1.388 . S
C3325 C3324 1.366 . S
C3325 C3329 1.385 . S
C3326 H3307 0.951 . S
C3326 C3324 1.388 . S
C3326 C3327 1.366 . S
C3327 C3326 1.366 . S
C3327 C3328 1.414 . S
C3327 C3330 1.499 . S
C3328 H3308 0.950 . S
C3328 C3327 1.414 . S
C3328 C3329 1.374 . S
C3329 H3309 0.950 . S
C3329 C3325 1.385 . S
C3329 C3328 1.374 . S
C3330 C3327 1.499 . S
C3330 C3331 1.373 . S
C3330 C3332 1.389 . S
C3331 H3310 0.950 . S
C3331 C3330 1.373 . S
C3331 C3347 1.377 . S
C3332 C3330 1.389 . S
C3332 C3333 1.524 . S
C3332 C3346 1.377 . S
C3333 C3332 1.524 . S
C3333 C3334 1.397 . S
C3333 C3338 1.363 . S
C3334 H3311 0.950 . S
C3334 C3333 1.397 . S
C3334 C3335 1.334 . S
C3335 H3312 0.950 . S
C3335 C3334 1.334 . S
C3335 C3336 1.287 . S
C3336 C3335 1.287 . S
C3336 C3337 1.524 . S
C3336 H3355 0.913 . S
C3337 H3313 0.950 . S
C3337 C3336 1.524 . S
C3337 C3338 1.415 . S
C3338 H3314 0.950 . S
C3338 C3333 1.363 . S
C3338 C3337 1.415 . S
C3339 H3315 0.951 . S
C3339 C3340 1.366 . S
C3339 C3341 1.388 . S
C3340 C3339 1.366 . S
C3340 C3344 1.385 . S
C3341 H3316 0.951 . S
C3341 C3339 1.388 . S
C3341 C3342 1.366 . S
C3342 C3341 1.366 . S
C3342 C3343 1.414 . S
C3342 C3345 1.499 . S
C3343 H3317 0.950 . S
C3343 C3342 1.414 . S
C3343 C3344 1.374 . S
C3344 H3318 0.950 . S
C3344 C3340 1.385 . S
C3344 C3343 1.374 . S
C3345 C3342 1.499 . S
C3345 C3346 1.373 . S
C3345 C3347 1.389 . S
C3346 H3319 0.950 . S
C3346 C3332 1.377 . S
C3346 C3345 1.373 . S
C3347 C3331 1.377 . S
C3347 C3345 1.389 . S
C3347 C3348 1.524 . S
C3348 C3347 1.524 . S
C3348 C3349 1.397 . S
C3348 C3353 1.363 . S
C3349 H3320 0.950 . S
C3349 C3348 1.397 . S
C3349 C3350 1.334 . S
C3350 H3321 0.950 . S
C3350 C3349 1.334 . S
C3350 C3351 1.287 . S
C3351 C3350 1.287 . S
C3351 C3352 1.524 . S
C3351 H3354 0.999 . S
C3352 H3322 0.950 . S
C3352 C3351 1.524 . S
C3352 C3353 1.415 . S
C3353 H3323 0.950 . S
C3353 C3348 1.363 . S
C3353 C3352 1.415 . S
H3354 C3351 0.999 . S
H3355 C3336 0.913 . S
H3356 C3374 0.951 . S
H3357 C3376 0.951 . S
H3358 C3378 0.950 . S
H3359 C3379 0.950 . S
H3360 C3381 0.950 . S
H3361 C3384 0.950 . S
H3362 C3385 0.950 . S
H3363 C3387 0.950 . S
H3364 C3388 0.950 . S
H3365 C3389 0.951 . S
H3366 C3391 0.951 . S
H3367 C3393 0.950 . S
H3368 C3394 0.950 . S
H3369 C3396 0.950 . S
H3370 C3399 0.950 . S
H3371 C3400 0.950 . S
H3372 C3402 0.950 . S
H3373 C3403 0.950 . S
C3374 H3356 0.951 . S
C3374 C3375 1.366 . S
C3374 C3376 1.388 . S
C3375 C3374 1.366 . S
C3375 C3379 1.385 . S
C3376 H3357 0.951 . S
C3376 C3374 1.388 . S
C3376 C3377 1.366 . S
C3377 C3376 1.366 . S
C3377 C3378 1.414 . S
C3377 C3380 1.499 . S
C3378 H3358 0.950 . S
C3378 C3377 1.414 . S
C3378 C3379 1.374 . S
C3379 H3359 0.950 . S
C3379 C3375 1.385 . S
C3379 C3378 1.374 . S
C3380 C3377 1.499 . S
C3380 C3381 1.373 . S
C3380 C3382 1.389 . S
C3381 H3360 0.950 . S
C3381 C3380 1.373 . S
C3381 C3397 1.377 . S
C3382 C3380 1.389 . S
C3382 C3383 1.524 . S
C3382 C3396 1.377 . S
C3383 C3382 1.524 . S
C3383 C3384 1.397 . S
C3383 C3388 1.363 . S
C3384 H3361 0.950 . S
C3384 C3383 1.397 . S
C3384 C3385 1.334 . S
C3385 H3362 0.950 . S
C3385 C3384 1.334 . S
C3385 C3386 1.287 . S
C3386 C3385 1.287 . S
C3386 C3387 1.524 . S
C3386 H3405 0.913 . S
C3387 H3363 0.950 . S
C3387 C3386 1.524 . S
C3387 C3388 1.415 . S
C3388 H3364 0.950 . S
C3388 C3383 1.363 . S
C3388 C3387 1.415 . S
C3389 H3365 0.951 . S
C3389 C3390 1.366 . S
C3389 C3391 1.388 . S
C3390 C3389 1.366 . S
C3390 C3394 1.385 . S
C3391 H3366 0.951 . S
C3391 C3389 1.388 . S
C3391 C3392 1.366 . S
C3392 C3391 1.366 . S
C3392 C3393 1.414 . S
C3392 C3395 1.499 . S
C3393 H3367 0.950 . S
C3393 C3392 1.414 . S
C3393 C3394 1.374 . S
C3394 H3368 0.950 . S
C3394 C3390 1.385 . S
C3394 C3393 1.374 . S
C3395 C3392 1.499 . S
C3395 C3396 1.373 . S
C3395 C3397 1.389 . S
C3396 H3369 0.950 . S
C3396 C3382 1.377 . S
C3396 C3395 1.373 . S
C3397 C3381 1.377 . S
C3397 C3395 1.389 . S
C3397 C3398 1.524 . S
C3398 C3397 1.524 . S
C3398 C3399 1.397 . S
C3398 C3403 1.363 . S
C3399 H3370 0.950 . S
C3399 C3398 1.397 . S
C3399 C3400 1.334 . S
C3400 H3371 0.950 . S
C3400 C3399 1.334 . S
C3400 C3401 1.287 . S
C3401 C3400 1.287 . S
C3401 C3402 1.524 . S
C3401 H3404 0.999 . S
C3402 H3372 0.950 . S
C3402 C3401 1.524 . S
C3402 C3403 1.415 . S
C3403 H3373 0.950 . S
C3403 C3398 1.363 . S
C3403 C3402 1.415 . S
H3404 C3401 0.999 . S
H3405 C3386 0.913 . S
H3406 C3424 0.951 . S
H3407 C3426 0.951 . S
H3408 C3428 0.950 . S
H3409 C3429 0.950 . S
H3410 C3431 0.950 . S
H3411 C3434 0.950 . S
H3412 C3435 0.950 . S
H3413 C3437 0.950 . S
H3414 C3438 0.950 . S
H3415 C3439 0.951 . S
H3416 C3441 0.951 . S
H3417 C3443 0.950 . S
H3418 C3444 0.950 . S
H3419 C3446 0.950 . S
H3420 C3449 0.950 . S
H3421 C3450 0.950 . S
H3422 C3452 0.950 . S
H3423 C3453 0.950 . S
C3424 H3406 0.951 . S
C3424 C3425 1.366 . S
C3424 C3426 1.388 . S
C3425 C3424 1.366 . S
C3425 C3429 1.385 . S
C3426 H3407 0.951 . S
C3426 C3424 1.388 . S
C3426 C3427 1.366 . S
C3427 C3426 1.366 . S
C3427 C3428 1.414 . S
C3427 C3430 1.499 . S
C3428 H3408 0.950 . S
C3428 C3427 1.414 . S
C3428 C3429 1.374 . S
C3429 H3409 0.950 . S
C3429 C3425 1.385 . S
C3429 C3428 1.374 . S
C3430 C3427 1.499 . S
C3430 C3431 1.373 . S
C3430 C3432 1.389 . S
C3431 H3410 0.950 . S
C3431 C3430 1.373 . S
C3431 C3447 1.377 . S
C3432 C3430 1.389 . S
C3432 C3433 1.524 . S
C3432 C3446 1.377 . S
C3433 C3432 1.524 . S
C3433 C3434 1.397 . S
C3433 C3438 1.363 . S
C3434 H3411 0.950 . S
C3434 C3433 1.397 . S
C3434 C3435 1.334 . S
C3435 H3412 0.950 . S
C3435 C3434 1.334 . S
C3435 C3436 1.287 . S
C3436 C3435 1.287 . S
C3436 C3437 1.524 . S
C3436 H3455 0.913 . S
C3437 H3413 0.950 . S
C3437 C3436 1.524 . S
C3437 C3438 1.415 . S
C3438 H3414 0.950 . S
C3438 C3433 1.363 . S
C3438 C3437 1.415 . S
C3439 H3415 0.951 . S
C3439 C3440 1.366 . S
C3439 C3441 1.388 . S
C3440 C3439 1.366 . S
C3440 C3444 1.385 . S
C3441 H3416 0.951 . S
C3441 C3439 1.388 . S
C3441 C3442 1.366 . S
C3442 C3441 1.366 . S
C3442 C3443 1.414 . S
C3442 C3445 1.499 . S
C3443 H3417 0.950 . S
C3443 C3442 1.414 . S
C3443 C3444 1.374 . S
C3444 H3418 0.950 . S
C3444 C3440 1.385 . S
C3444 C3443 1.374 . S
C3445 C3442 1.499 . S
C3445 C3446 1.373 . S
C3445 C3447 1.389 . S
C3446 H3419 0.950 . S
C3446 C3432 1.377 . S
C3446 C3445 1.373 . S
C3447 C3431 1.377 . S
C3447 C3445 1.389 . S
C3447 C3448 1.524 . S
C3448 C3447 1.524 . S
C3448 C3449 1.397 . S
C3448 C3453 1.363 . S
C3449 H3420 0.950 . S
C3449 C3448 1.397 . S
C3449 C3450 1.334 . S
C3450 H3421 0.950 . S
C3450 C3449 1.334 . S
C3450 C3451 1.287 . S
C3451 C3450 1.287 . S
C3451 C3452 1.524 . S
C3451 H3454 0.999 . S
C3452 H3422 0.950 . S
C3452 C3451 1.524 . S
C3452 C3453 1.415 . S
C3453 H3423 0.950 . S
C3453 C3448 1.363 . S
C3453 C3452 1.415 . S
H3454 C3451 0.999 . S
H3455 C3436 0.913 . S
H3456 C3474 0.951 . S
H3457 C3476 0.951 . S
H3458 C3478 0.950 . S
H3459 C3479 0.950 . S
H3460 C3481 0.950 . S
H3461 C3484 0.950 . S
H3462 C3485 0.950 . S
H3463 C3487 0.950 . S
H3464 C3488 0.950 . S
H3465 C3489 0.951 . S
H3466 C3491 0.951 . S
H3467 C3493 0.950 . S
H3468 C3494 0.950 . S
H3469 C3496 0.950 . S
H3470 C3499 0.950 . S
H3471 C3500 0.950 . S
H3472 C3502 0.950 . S
H3473 C3503 0.950 . S
C3474 H3456 0.951 . S
C3474 C3475 1.366 . S
C3474 C3476 1.388 . S
C3475 C3474 1.366 . S
C3475 C3479 1.385 . S
C3476 H3457 0.951 . S
C3476 C3474 1.388 . S
C3476 C3477 1.366 . S
C3477 C3476 1.366 . S
C3477 C3478 1.414 . S
C3477 C3480 1.499 . S
C3478 H3458 0.950 . S
C3478 C3477 1.414 . S
C3478 C3479 1.374 . S
C3479 H3459 0.950 . S
C3479 C3475 1.385 . S
C3479 C3478 1.374 . S
C3480 C3477 1.499 . S
C3480 C3481 1.373 . S
C3480 C3482 1.393 . S
C3481 H3460 0.950 . S
C3481 C3480 1.373 . S
C3481 C3497 1.373 1_545 S
C3482 C3480 1.393 . S
C3482 C3483 1.524 . S
C3482 C3496 1.373 1_545 S
C3483 C3482 1.524 . S
C3483 C3484 1.395 . S
C3483 C3488 1.364 1_545 S
C3484 H3461 0.950 . S
C3484 C3483 1.395 . S
C3484 C3485 1.334 . S
C3485 H3462 0.950 . S
C3485 C3484 1.334 . S
C3485 C3486 1.287 . S
C3486 C3485 1.287 . S
C3486 C3487 1.524 1_545 S
C3486 H3505 0.913 . S
C3487 H3463 0.950 . S
C3487 C3486 1.524 1_565 S
C3487 C3488 1.415 . S
C3488 H3464 0.950 . S
C3488 C3483 1.364 1_565 S
C3488 C3487 1.415 . S
C3489 H3465 0.951 . S
C3489 C3490 1.366 . S
C3489 C3491 1.388 . S
C3490 C3489 1.366 . S
C3490 C3494 1.385 . S
C3491 H3466 0.951 . S
C3491 C3489 1.388 . S
C3491 C3492 1.366 . S
C3492 C3491 1.366 . S
C3492 C3493 1.414 . S
C3492 C3495 1.499 . S
C3493 H3467 0.950 . S
C3493 C3492 1.414 . S
C3493 C3494 1.374 . S
C3494 H3468 0.950 . S
C3494 C3490 1.385 . S
C3494 C3493 1.374 . S
C3495 C3492 1.499 . S
C3495 C3496 1.373 . S
C3495 C3497 1.393 . S
C3496 H3469 0.950 . S
C3496 C3482 1.373 1_565 S
C3496 C3495 1.373 . S
C3497 C3481 1.373 1_565 S
C3497 C3495 1.393 . S
C3497 C3498 1.524 . S
C3498 C3497 1.524 . S
C3498 C3499 1.396 . S
C3498 C3503 1.364 1_565 S
C3499 H3470 0.950 . S
C3499 C3498 1.396 . S
C3499 C3500 1.334 . S
C3500 H3471 0.950 . S
C3500 C3499 1.334 . S
C3500 C3501 1.287 . S
C3501 C3500 1.287 . S
C3501 C3502 1.524 1_565 S
C3501 H3504 0.999 . S
C3502 H3472 0.950 . S
C3502 C3501 1.524 1_545 S
C3502 C3503 1.415 . S
C3503 H3473 0.950 . S
C3503 C3498 1.364 1_545 S
C3503 C3502 1.415 . S
H3504 C3501 0.999 . S
H3505 C3486 0.913 . S
H3506 C3524 0.951 . S
H3507 C3526 0.951 . S
H3508 C3528 0.950 . S
H3509 C3529 0.950 . S
H3510 C3531 0.950 . S
H3511 C3534 0.950 . S
H3512 C3535 0.950 . S
H3513 C3537 0.950 . S
H3514 C3538 0.950 . S
H3515 C3539 0.951 . S
H3516 C3541 0.951 . S
H3517 C3543 0.950 . S
H3518 C3544 0.950 . S
H3519 C3546 0.950 . S
H3520 C3549 0.950 . S
H3521 C3550 0.950 . S
H3522 C3552 0.950 . S
H3523 C3553 0.950 . S
C3524 H3506 0.951 . S
C3524 C3525 1.366 . S
C3524 C3526 1.388 . S
C3525 C3524 1.366 . S
C3525 C3529 1.385 . S
C3526 H3507 0.951 . S
C3526 C3524 1.388 . S
C3526 C3527 1.366 . S
C3527 C3526 1.366 . S
C3527 C3528 1.414 . S
C3527 C3530 1.499 . S
C3528 H3508 0.950 . S
C3528 C3527 1.414 . S
C3528 C3529 1.374 . S
C3529 H3509 0.950 . S
C3529 C3525 1.385 . S
C3529 C3528 1.374 . S
C3530 C3527 1.499 . S
C3530 C3531 1.373 . S
C3530 C3532 1.389 . S
C3531 H3510 0.950 . S
C3531 C3530 1.373 . S
C3531 C3547 1.377 . S
C3532 C3530 1.389 . S
C3532 C3533 1.524 . S
C3532 C3546 1.377 . S
C3533 C3532 1.524 . S
C3533 C3534 1.397 . S
C3533 C3538 1.363 . S
C3534 H3511 0.950 . S
C3534 C3533 1.397 . S
C3534 C3535 1.334 . S
C3535 H3512 0.950 . S
C3535 C3534 1.334 . S
C3535 C3536 1.287 . S
C3536 C3535 1.287 . S
C3536 C3537 1.524 . S
C3536 H3555 0.913 . S
C3537 H3513 0.950 . S
C3537 C3536 1.524 . S
C3537 C3538 1.415 . S
C3538 H3514 0.950 . S
C3538 C3533 1.363 . S
C3538 C3537 1.415 . S
C3539 H3515 0.951 . S
C3539 C3540 1.366 . S
C3539 C3541 1.388 . S
C3540 C3539 1.366 . S
C3540 C3544 1.385 . S
C3541 H3516 0.951 . S
C3541 C3539 1.388 . S
C3541 C3542 1.366 . S
C3542 C3541 1.366 . S
C3542 C3543 1.414 . S
C3542 C3545 1.499 . S
C3543 H3517 0.950 . S
C3543 C3542 1.414 . S
C3543 C3544 1.374 . S
C3544 H3518 0.950 . S
C3544 C3540 1.385 . S
C3544 C3543 1.374 . S
C3545 C3542 1.499 . S
C3545 C3546 1.373 . S
C3545 C3547 1.389 . S
C3546 H3519 0.950 . S
C3546 C3532 1.377 . S
C3546 C3545 1.373 . S
C3547 C3531 1.377 . S
C3547 C3545 1.389 . S
C3547 C3548 1.524 . S
C3548 C3547 1.524 . S
C3548 C3549 1.397 . S
C3548 C3553 1.363 . S
C3549 H3520 0.950 . S
C3549 C3548 1.397 . S
C3549 C3550 1.334 . S
C3550 H3521 0.950 . S
C3550 C3549 1.334 . S
C3550 C3551 1.287 . S
C3551 C3550 1.287 . S
C3551 C3552 1.524 . S
C3551 H3554 0.999 . S
C3552 H3522 0.950 . S
C3552 C3551 1.524 . S
C3552 C3553 1.415 . S
C3553 H3523 0.950 . S
C3553 C3548 1.363 . S
C3553 C3552 1.415 . S
H3554 C3551 0.999 . S
H3555 C3536 0.913 . S
H3556 C3574 0.951 . S
H3557 C3576 0.951 . S
H3558 C3578 0.950 . S
H3559 C3579 0.950 . S
H3560 C3581 0.950 . S
H3561 C3584 0.950 . S
H3562 C3585 0.950 . S
H3563 C3587 0.950 . S
H3564 C3588 0.950 . S
H3565 C3589 0.951 . S
H3566 C3591 0.951 . S
H3567 C3593 0.950 . S
H3568 C3594 0.950 . S
H3569 C3596 0.950 . S
H3570 C3599 0.950 . S
H3571 C3600 0.950 . S
H3572 C3602 0.950 . S
H3573 C3603 0.950 . S
C3574 H3556 0.951 . S
C3574 C3575 1.366 . S
C3574 C3576 1.388 . S
C3575 C3574 1.366 . S
C3575 C3579 1.385 . S
C3576 H3557 0.951 . S
C3576 C3574 1.388 . S
C3576 C3577 1.366 . S
C3577 C3576 1.366 . S
C3577 C3578 1.414 . S
C3577 C3580 1.499 . S
C3578 H3558 0.950 . S
C3578 C3577 1.414 . S
C3578 C3579 1.374 . S
C3579 H3559 0.950 . S
C3579 C3575 1.385 . S
C3579 C3578 1.374 . S
C3580 C3577 1.499 . S
C3580 C3581 1.373 1_545 S
C3580 C3582 1.389 . S
C3581 H3560 0.950 . S
C3581 C3580 1.373 1_565 S
C3581 C3597 1.377 . S
C3582 C3580 1.389 . S
C3582 C3583 1.524 . S
C3582 C3596 1.377 . S
C3583 C3582 1.524 . S
C3583 C3584 1.397 . S
C3583 C3588 1.363 . S
C3584 H3561 0.950 . S
C3584 C3583 1.397 . S
C3584 C3585 1.334 . S
C3585 H3562 0.950 . S
C3585 C3584 1.334 . S
C3585 C3586 1.287 . S
C3586 C3585 1.287 . S
C3586 C3587 1.524 . S
C3586 H3605 0.913 . S
C3587 H3563 0.950 . S
C3587 C3586 1.524 . S
C3587 C3588 1.415 . S
C3588 H3564 0.950 . S
C3588 C3583 1.363 . S
C3588 C3587 1.415 . S
C3589 H3565 0.951 . S
C3589 C3590 1.366 . S
C3589 C3591 1.388 . S
C3590 C3589 1.366 . S
C3590 C3594 1.385 . S
C3591 H3566 0.951 . S
C3591 C3589 1.388 . S
C3591 C3592 1.366 . S
C3592 C3591 1.366 . S
C3592 C3593 1.414 . S
C3592 C3595 1.499 . S
C3593 H3567 0.950 . S
C3593 C3592 1.414 . S
C3593 C3594 1.374 . S
C3594 H3568 0.950 . S
C3594 C3590 1.385 . S
C3594 C3593 1.374 . S
C3595 C3592 1.499 . S
C3595 C3596 1.373 1_565 S
C3595 C3597 1.389 . S
C3596 H3569 0.950 . S
C3596 C3582 1.377 . S
C3596 C3595 1.373 1_545 S
C3597 C3581 1.377 . S
C3597 C3595 1.389 . S
C3597 C3598 1.524 . S
C3598 C3597 1.524 . S
C3598 C3599 1.397 . S
C3598 C3603 1.363 . S
C3599 H3570 0.950 . S
C3599 C3598 1.397 . S
C3599 C3600 1.334 . S
C3600 H3571 0.950 . S
C3600 C3599 1.334 . S
C3600 C3601 1.287 . S
C3601 C3600 1.287 . S
C3601 C3602 1.524 . S
C3601 H3604 0.999 . S
C3602 H3572 0.950 . S
C3602 C3601 1.524 . S
C3602 C3603 1.415 . S
C3603 H3573 0.950 . S
C3603 C3598 1.363 . S
C3603 C3602 1.415 . S
H3604 C3601 0.999 . S
H3605 C3586 0.913 . S
H3606 C3624 0.951 . S
H3607 C3626 0.951 . S
H3608 C3628 0.950 . S
H3609 C3629 0.950 . S
H3610 C3631 0.950 . S
H3611 C3634 0.950 . S
H3612 C3635 0.950 . S
H3613 C3637 0.950 . S
H3614 C3638 0.950 . S
H3615 C3639 0.951 . S
H3616 C3641 0.951 . S
H3617 C3643 0.950 . S
H3618 C3644 0.950 . S
H3619 C3646 0.950 . S
H3620 C3649 0.950 . S
H3621 C3650 0.950 . S
H3622 C3652 0.950 . S
H3623 C3653 0.950 . S
C3624 H3606 0.951 . S
C3624 C3625 1.366 . S
C3624 C3626 1.388 . S
C3625 C3624 1.366 . S
C3625 C3629 1.385 . S
C3626 H3607 0.951 . S
C3626 C3624 1.388 . S
C3626 C3627 1.366 . S
C3627 C3626 1.366 . S
C3627 C3628 1.414 . S
C3627 C3630 1.499 . S
C3628 H3608 0.950 . S
C3628 C3627 1.414 . S
C3628 C3629 1.374 . S
C3629 H3609 0.950 . S
C3629 C3625 1.385 . S
C3629 C3628 1.374 . S
C3630 C3627 1.499 . S
C3630 C3631 1.375 . S
C3630 C3632 1.389 . S
C3631 H3610 0.950 . S
C3631 C3630 1.375 . S
C3631 C3647 1.374 1_556 S
C3632 C3630 1.389 . S
C3632 C3633 1.524 . S
C3632 C3646 1.374 1_556 S
C3633 C3632 1.524 . S
C3633 C3634 1.397 . S
C3633 C3638 1.363 . S
C3634 H3611 0.950 . S
C3634 C3633 1.397 . S
C3634 C3635 1.334 . S
C3635 H3612 0.950 . S
C3635 C3634 1.334 . S
C3635 C3636 1.287 . S
C3636 C3635 1.287 . S
C3636 C3637 1.524 . S
C3636 H3655 0.913 . S
C3637 H3613 0.950 . S
C3637 C3636 1.524 . S
C3637 C3638 1.415 . S
C3638 H3614 0.950 . S
C3638 C3633 1.363 . S
C3638 C3637 1.415 . S
C3639 H3615 0.951 . S
C3639 C3640 1.366 . S
C3639 C3641 1.388 . S
C3640 C3639 1.366 . S
C3640 C3644 1.385 . S
C3641 H3616 0.951 . S
C3641 C3639 1.388 . S
C3641 C3642 1.366 . S
C3642 C3641 1.366 . S
C3642 C3643 1.414 . S
C3642 C3645 1.499 . S
C3643 H3617 0.950 . S
C3643 C3642 1.414 . S
C3643 C3644 1.374 . S
C3644 H3618 0.950 . S
C3644 C3640 1.385 . S
C3644 C3643 1.374 . S
C3645 C3642 1.499 . S
C3645 C3646 1.375 . S
C3645 C3647 1.389 . S
C3646 H3619 0.950 . S
C3646 C3632 1.374 1_554 S
C3646 C3645 1.375 . S
C3647 C3631 1.374 1_554 S
C3647 C3645 1.389 . S
C3647 C3648 1.524 . S
C3648 C3647 1.524 . S
C3648 C3649 1.397 . S
C3648 C3653 1.363 . S
C3649 H3620 0.950 . S
C3649 C3648 1.397 . S
C3649 C3650 1.334 . S
C3650 H3621 0.950 . S
C3650 C3649 1.334 . S
C3650 C3651 1.287 . S
C3651 C3650 1.287 . S
C3651 C3652 1.524 . S
C3651 H3654 0.999 . S
C3652 H3622 0.950 . S
C3652 C3651 1.524 . S
C3652 C3653 1.415 . S
C3653 H3623 0.950 . S
C3653 C3648 1.363 . S
C3653 C3652 1.415 . S
H3654 C3651 0.999 . S
H3655 C3636 0.913 . S
H3656 C3674 0.951 . S
H3657 C3676 0.951 . S
H3658 C3678 0.950 . S
H3659 C3679 0.950 . S
H3660 C3681 0.950 . S
H3661 C3684 0.950 . S
H3662 C3685 0.950 . S
H3663 C3687 0.950 . S
H3664 C3688 0.950 . S
H3665 C3689 0.951 . S
H3666 C3691 0.951 . S
H3667 C3693 0.950 . S
H3668 C3694 0.950 . S
H3669 C3696 0.950 . S
H3670 C3699 0.950 . S
H3671 C3700 0.950 . S
H3672 C3702 0.950 . S
H3673 C3703 0.950 . S
C3674 H3656 0.951 . S
C3674 C3675 1.366 . S
C3674 C3676 1.388 . S
C3675 C3674 1.366 . S
C3675 C3679 1.385 . S
C3676 H3657 0.951 . S
C3676 C3674 1.388 . S
C3676 C3677 1.366 . S
C3677 C3676 1.366 . S
C3677 C3678 1.414 . S
C3677 C3680 1.499 . S
C3678 H3658 0.950 . S
C3678 C3677 1.414 . S
C3678 C3679 1.374 . S
C3679 H3659 0.950 . S
C3679 C3675 1.385 . S
C3679 C3678 1.374 . S
C3680 C3677 1.499 . S
C3680 C3681 1.373 . S
C3680 C3682 1.389 1_565 S
C3681 H3660 0.950 . S
C3681 C3680 1.373 . S
C3681 C3697 1.377 . S
C3682 C3680 1.389 1_545 S
C3682 C3683 1.524 . S
C3682 C3696 1.377 . S
C3683 C3682 1.524 . S
C3683 C3684 1.397 . S
C3683 C3688 1.363 . S
C3684 H3661 0.950 . S
C3684 C3683 1.397 . S
C3684 C3685 1.334 . S
C3685 H3662 0.950 . S
C3685 C3684 1.334 . S
C3685 C3686 1.287 . S
C3686 C3685 1.287 . S
C3686 C3687 1.524 . S
C3686 H3705 0.913 . S
C3687 H3663 0.950 . S
C3687 C3686 1.524 . S
C3687 C3688 1.415 . S
C3688 H3664 0.950 . S
C3688 C3683 1.363 . S
C3688 C3687 1.415 . S
C3689 H3665 0.951 . S
C3689 C3690 1.366 . S
C3689 C3691 1.388 . S
C3690 C3689 1.366 . S
C3690 C3694 1.385 . S
C3691 H3666 0.951 . S
C3691 C3689 1.388 . S
C3691 C3692 1.366 . S
C3692 C3691 1.366 . S
C3692 C3693 1.414 . S
C3692 C3695 1.499 . S
C3693 H3667 0.950 . S
C3693 C3692 1.414 . S
C3693 C3694 1.374 . S
C3694 H3668 0.950 . S
C3694 C3690 1.385 . S
C3694 C3693 1.374 . S
C3695 C3692 1.499 . S
C3695 C3696 1.373 . S
C3695 C3697 1.389 1_545 S
C3696 H3669 0.950 . S
C3696 C3682 1.377 . S
C3696 C3695 1.373 . S
C3697 C3681 1.377 . S
C3697 C3695 1.389 1_565 S
C3697 C3698 1.524 . S
C3698 C3697 1.524 . S
C3698 C3699 1.397 . S
C3698 C3703 1.363 . S
C3699 H3670 0.950 . S
C3699 C3698 1.397 . S
C3699 C3700 1.334 . S
C3700 H3671 0.950 . S
C3700 C3699 1.334 . S
C3700 C3701 1.287 . S
C3701 C3700 1.287 . S
C3701 C3702 1.524 . S
C3701 H3704 0.999 . S
C3702 H3672 0.950 . S
C3702 C3701 1.524 . S
C3702 C3703 1.415 . S
C3703 H3673 0.950 . S
C3703 C3698 1.363 . S
C3703 C3702 1.415 . S
H3704 C3701 0.999 . S
H3705 C3686 0.913 . S
H3706 C3724 0.951 . S
H3707 C3726 0.951 . S
H3708 C3728 0.950 . S
H3709 C3729 0.950 . S
H3710 C3731 0.950 . S
H3711 C3734 0.950 . S
H3712 C3735 0.950 . S
H3713 C3737 0.950 . S
H3714 C3738 0.950 . S
H3715 C3739 0.951 . S
H3716 C3741 0.951 . S
H3717 C3743 0.950 . S
H3718 C3744 0.950 . S
H3719 C3746 0.950 . S
H3720 C3749 0.950 . S
H3721 C3750 0.950 . S
H3722 C3752 0.950 . S
H3723 C3753 0.950 . S
C3724 H3706 0.951 . S
C3724 C3725 1.366 . S
C3724 C3726 1.388 . S
C3725 C3724 1.366 . S
C3725 C3729 1.385 . S
C3726 H3707 0.951 . S
C3726 C3724 1.388 . S
C3726 C3727 1.366 . S
C3727 C3726 1.366 . S
C3727 C3728 1.414 . S
C3727 C3730 1.499 . S
C3728 H3708 0.950 . S
C3728 C3727 1.414 . S
C3728 C3729 1.374 . S
C3729 H3709 0.950 . S
C3729 C3725 1.385 . S
C3729 C3728 1.374 . S
C3730 C3727 1.499 . S
C3730 C3731 1.373 . S
C3730 C3732 1.389 . S
C3731 H3710 0.950 . S
C3731 C3730 1.373 . S
C3731 C3747 1.377 . S
C3732 C3730 1.389 . S
C3732 C3733 1.524 . S
C3732 C3746 1.377 . S
C3733 C3732 1.524 . S
C3733 C3734 1.397 . S
C3733 C3738 1.363 . S
C3734 H3711 0.950 . S
C3734 C3733 1.397 . S
C3734 C3735 1.334 . S
C3735 H3712 0.950 . S
C3735 C3734 1.334 . S
C3735 C3736 1.287 . S
C3736 C3735 1.287 . S
C3736 C3737 1.524 . S
C3736 H3755 0.913 . S
C3737 H3713 0.950 . S
C3737 C3736 1.524 . S
C3737 C3738 1.415 . S
C3738 H3714 0.950 . S
C3738 C3733 1.363 . S
C3738 C3737 1.415 . S
C3739 H3715 0.951 . S
C3739 C3740 1.366 . S
C3739 C3741 1.388 . S
C3740 C3739 1.366 . S
C3740 C3744 1.385 . S
C3741 H3716 0.951 . S
C3741 C3739 1.388 . S
C3741 C3742 1.366 . S
C3742 C3741 1.366 . S
C3742 C3743 1.414 . S
C3742 C3745 1.499 . S
C3743 H3717 0.950 . S
C3743 C3742 1.414 . S
C3743 C3744 1.374 . S
C3744 H3718 0.950 . S
C3744 C3740 1.385 . S
C3744 C3743 1.374 . S
C3745 C3742 1.499 . S
C3745 C3746 1.373 . S
C3745 C3747 1.389 . S
C3746 H3719 0.950 . S
C3746 C3732 1.377 . S
C3746 C3745 1.373 . S
C3747 C3731 1.377 . S
C3747 C3745 1.389 . S
C3747 C3748 1.524 . S
C3748 C3747 1.524 . S
C3748 C3749 1.397 . S
C3748 C3753 1.363 . S
C3749 H3720 0.950 . S
C3749 C3748 1.397 . S
C3749 C3750 1.334 . S
C3750 H3721 0.950 . S
C3750 C3749 1.334 . S
C3750 C3751 1.287 . S
C3751 C3750 1.287 . S
C3751 C3752 1.524 . S
C3751 H3754 0.999 . S
C3752 H3722 0.950 . S
C3752 C3751 1.524 . S
C3752 C3753 1.415 . S
C3753 H3723 0.950 . S
C3753 C3748 1.363 . S
C3753 C3752 1.415 . S
H3754 C3751 0.999 . S
H3755 C3736 0.913 . S
H3756 C3774 0.951 . S
H3757 C3776 0.951 . S
H3758 C3778 0.950 . S
H3759 C3779 0.950 . S
H3760 C3781 0.950 . S
H3761 C3784 0.950 . S
H3762 C3785 0.950 . S
H3763 C3787 0.950 . S
H3764 C3788 0.950 . S
H3765 C3789 0.951 . S
H3766 C3791 0.951 . S
H3767 C3793 0.950 . S
H3768 C3794 0.950 . S
H3769 C3796 0.950 . S
H3770 C3799 0.950 . S
H3771 C3800 0.950 . S
H3772 C3802 0.950 . S
H3773 C3803 0.950 . S
C3774 H3756 0.951 . S
C3774 C3775 1.366 . S
C3774 C3776 1.388 . S
C3775 C3774 1.366 . S
C3775 C3779 1.385 . S
C3776 H3757 0.951 . S
C3776 C3774 1.388 . S
C3776 C3777 1.366 . S
C3777 C3776 1.366 . S
C3777 C3778 1.414 . S
C3777 C3780 1.499 . S
C3778 H3758 0.950 . S
C3778 C3777 1.414 . S
C3778 C3779 1.374 . S
C3779 H3759 0.950 . S
C3779 C3775 1.385 . S
C3779 C3778 1.374 . S
C3780 C3777 1.499 . S
C3780 C3781 1.373 1_545 S
C3780 C3782 1.389 . S
C3781 H3760 0.950 . S
C3781 C3780 1.373 1_565 S
C3781 C3797 1.377 . S
C3782 C3780 1.389 . S
C3782 C3783 1.524 . S
C3782 C3796 1.377 . S
C3783 C3782 1.524 . S
C3783 C3784 1.397 . S
C3783 C3788 1.363 . S
C3784 H3761 0.950 . S
C3784 C3783 1.397 . S
C3784 C3785 1.334 . S
C3785 H3762 0.950 . S
C3785 C3784 1.334 . S
C3785 C3786 1.287 . S
C3786 C3785 1.287 . S
C3786 C3787 1.524 . S
C3786 H3805 0.913 . S
C3787 H3763 0.950 . S
C3787 C3786 1.524 . S
C3787 C3788 1.415 . S
C3788 H3764 0.950 . S
C3788 C3783 1.363 . S
C3788 C3787 1.415 . S
C3789 H3765 0.951 . S
C3789 C3790 1.366 . S
C3789 C3791 1.388 . S
C3790 C3789 1.366 . S
C3790 C3794 1.385 . S
C3791 H3766 0.951 . S
C3791 C3789 1.388 . S
C3791 C3792 1.366 . S
C3792 C3791 1.366 . S
C3792 C3793 1.414 . S
C3792 C3795 1.499 . S
C3793 H3767 0.950 . S
C3793 C3792 1.414 . S
C3793 C3794 1.374 . S
C3794 H3768 0.950 . S
C3794 C3790 1.385 . S
C3794 C3793 1.374 . S
C3795 C3792 1.499 . S
C3795 C3796 1.373 1_565 S
C3795 C3797 1.389 . S
C3796 H3769 0.950 . S
C3796 C3782 1.377 . S
C3796 C3795 1.373 1_545 S
C3797 C3781 1.377 . S
C3797 C3795 1.389 . S
C3797 C3798 1.524 . S
C3798 C3797 1.524 . S
C3798 C3799 1.397 . S
C3798 C3803 1.363 . S
C3799 H3770 0.950 . S
C3799 C3798 1.397 . S
C3799 C3800 1.334 . S
C3800 H3771 0.950 . S
C3800 C3799 1.334 . S
C3800 C3801 1.287 . S
C3801 C3800 1.287 . S
C3801 C3802 1.524 . S
C3801 H3804 0.999 . S
C3802 H3772 0.950 . S
C3802 C3801 1.524 . S
C3802 C3803 1.415 . S
C3803 H3773 0.950 . S
C3803 C3798 1.363 . S
C3803 C3802 1.415 . S
H3804 C3801 0.999 . S
H3805 C3786 0.913 . S
H3806 C3824 0.951 . S
H3807 C3826 0.951 . S
H3808 C3828 0.950 . S
H3809 C3829 0.950 . S
H3810 C3831 0.950 . S
H3811 C3834 0.950 . S
H3812 C3835 0.950 . S
H3813 C3837 0.950 . S
H3814 C3838 0.950 . S
H3815 C3839 0.951 . S
H3816 C3841 0.951 . S
H3817 C3843 0.950 . S
H3818 C3844 0.950 . S
H3819 C3846 0.950 . S
H3820 C3849 0.950 . S
H3821 C3850 0.950 . S
H3822 C3852 0.950 . S
H3823 C3853 0.950 . S
C3824 H3806 0.951 . S
C3824 C3825 1.366 . S
C3824 C3826 1.388 . S
C3825 C3824 1.366 . S
C3825 C3829 1.385 . S
C3826 H3807 0.951 . S
C3826 C3824 1.388 . S
C3826 C3827 1.366 . S
C3827 C3826 1.366 . S
C3827 C3828 1.414 . S
C3827 C3830 1.499 . S
C3828 H3808 0.950 . S
C3828 C3827 1.414 . S
C3828 C3829 1.374 . S
C3829 H3809 0.950 . S
C3829 C3825 1.385 . S
C3829 C3828 1.374 . S
C3830 C3827 1.499 . S
C3830 C3831 1.373 1_554 S
C3830 C3832 1.389 . S
C3831 H3810 0.950 . S
C3831 C3830 1.373 1_556 S
C3831 C3847 1.377 . S
C3832 C3830 1.389 . S
C3832 C3833 1.524 . S
C3832 C3846 1.377 . S
C3833 C3832 1.524 . S
C3833 C3834 1.397 . S
C3833 C3838 1.363 . S
C3834 H3811 0.950 . S
C3834 C3833 1.397 . S
C3834 C3835 1.334 . S
C3835 H3812 0.950 . S
C3835 C3834 1.334 . S
C3835 C3836 1.287 . S
C3836 C3835 1.287 . S
C3836 C3837 1.524 . S
C3836 H3855 0.913 . S
C3837 H3813 0.950 . S
C3837 C3836 1.524 . S
C3837 C3838 1.415 . S
C3838 H3814 0.950 . S
C3838 C3833 1.363 . S
C3838 C3837 1.415 . S
C3839 H3815 0.951 . S
C3839 C3840 1.366 . S
C3839 C3841 1.388 . S
C3840 C3839 1.366 . S
C3840 C3844 1.385 . S
C3841 H3816 0.951 . S
C3841 C3839 1.388 . S
C3841 C3842 1.366 . S
C3842 C3841 1.366 . S
C3842 C3843 1.414 . S
C3842 C3845 1.499 . S
C3843 H3817 0.950 . S
C3843 C3842 1.414 . S
C3843 C3844 1.374 . S
C3844 H3818 0.950 . S
C3844 C3840 1.385 . S
C3844 C3843 1.374 . S
C3845 C3842 1.499 . S
C3845 C3846 1.373 1_556 S
C3845 C3847 1.389 . S
C3846 H3819 0.950 . S
C3846 C3832 1.377 . S
C3846 C3845 1.373 1_554 S
C3847 C3831 1.377 . S
C3847 C3845 1.389 . S
C3847 C3848 1.524 . S
C3848 C3847 1.524 . S
C3848 C3849 1.397 . S
C3848 C3853 1.363 . S
C3849 H3820 0.950 . S
C3849 C3848 1.397 . S
C3849 C3850 1.334 . S
C3850 H3821 0.950 . S
C3850 C3849 1.334 . S
C3850 C3851 1.287 . S
C3851 C3850 1.287 . S
C3851 C3852 1.524 . S
C3851 H3854 0.999 . S
C3852 H3822 0.950 . S
C3852 C3851 1.524 . S
C3852 C3853 1.415 . S
C3853 H3823 0.950 . S
C3853 C3848 1.363 . S
C3853 C3852 1.415 . S
H3854 C3851 0.999 . S
H3855 C3836 0.913 . S
H3856 C3874 0.951 . S
H3857 C3876 0.951 . S
H3858 C3878 0.950 . S
H3859 C3879 0.950 . S
H3860 C3881 0.950 . S
H3861 C3884 0.950 . S
H3862 C3885 0.950 . S
H3863 C3887 0.950 . S
H3864 C3888 0.950 . S
H3865 C3889 0.951 . S
H3866 C3891 0.951 . S
H3867 C3893 0.950 . S
H3868 C3894 0.950 . S
H3869 C3896 0.950 . S
H3870 C3899 0.950 . S
H3871 C3900 0.950 . S
H3872 C3902 0.950 . S
H3873 C3903 0.950 . S
C3874 H3856 0.951 . S
C3874 C3875 1.366 . S
C3874 C3876 1.388 . S
C3875 C3874 1.366 . S
C3875 C3879 1.385 . S
C3876 H3857 0.951 . S
C3876 C3874 1.388 . S
C3876 C3877 1.366 . S
C3877 C3876 1.366 . S
C3877 C3878 1.414 . S
C3877 C3880 1.499 . S
C3878 H3858 0.950 . S
C3878 C3877 1.414 . S
C3878 C3879 1.374 . S
C3879 H3859 0.950 . S
C3879 C3875 1.385 . S
C3879 C3878 1.374 . S
C3880 C3877 1.499 . S
C3880 C3881 1.373 . S
C3880 C3882 1.389 . S
C3881 H3860 0.950 . S
C3881 C3880 1.373 . S
C3881 C3897 1.377 . S
C3882 C3880 1.389 . S
C3882 C3883 1.524 . S
C3882 C3896 1.377 . S
C3883 C3882 1.524 . S
C3883 C3884 1.397 . S
C3883 C3888 1.363 . S
C3884 H3861 0.950 . S
C3884 C3883 1.397 . S
C3884 C3885 1.334 . S
C3885 H3862 0.950 . S
C3885 C3884 1.334 . S
C3885 C3886 1.287 . S
C3886 C3885 1.287 . S
C3886 C3887 1.524 . S
C3886 H3905 0.913 . S
C3887 H3863 0.950 . S
C3887 C3886 1.524 . S
C3887 C3888 1.415 . S
C3888 H3864 0.950 . S
C3888 C3883 1.363 . S
C3888 C3887 1.415 . S
C3889 H3865 0.951 . S
C3889 C3890 1.366 . S
C3889 C3891 1.388 . S
C3890 C3889 1.366 . S
C3890 C3894 1.385 . S
C3891 H3866 0.951 . S
C3891 C3889 1.388 . S
C3891 C3892 1.366 . S
C3892 C3891 1.366 . S
C3892 C3893 1.414 . S
C3892 C3895 1.499 . S
C3893 H3867 0.950 . S
C3893 C3892 1.414 . S
C3893 C3894 1.374 . S
C3894 H3868 0.950 . S
C3894 C3890 1.385 . S
C3894 C3893 1.374 . S
C3895 C3892 1.499 . S
C3895 C3896 1.373 . S
C3895 C3897 1.389 . S
C3896 H3869 0.950 . S
C3896 C3882 1.377 . S
C3896 C3895 1.373 . S
C3897 C3881 1.377 . S
C3897 C3895 1.389 . S
C3897 C3898 1.524 . S
C3898 C3897 1.524 . S
C3898 C3899 1.397 . S
C3898 C3903 1.363 . S
C3899 H3870 0.950 . S
C3899 C3898 1.397 . S
C3899 C3900 1.334 . S
C3900 H3871 0.950 . S
C3900 C3899 1.334 . S
C3900 C3901 1.287 . S
C3901 C3900 1.287 . S
C3901 C3902 1.524 . S
C3901 H3904 0.999 . S
C3902 H3872 0.950 . S
C3902 C3901 1.524 . S
C3902 C3903 1.415 . S
C3903 H3873 0.950 . S
C3903 C3898 1.363 . S
C3903 C3902 1.415 . S
H3904 C3901 0.999 . S
H3905 C3886 0.913 . S
H3906 C3924 0.951 . S
H3907 C3926 0.951 . S
H3908 C3928 0.950 . S
H3909 C3929 0.950 . S
H3910 C3931 0.950 . S
H3911 C3934 0.950 . S
H3912 C3935 0.950 . S
H3913 C3937 0.950 . S
H3914 C3938 0.950 . S
H3915 C3939 0.951 . S
H3916 C3941 0.951 . S
H3917 C3943 0.950 . S
H3918 C3944 0.950 . S
H3919 C3946 0.950 . S
H3920 C3949 0.950 . S
H3921 C3950 0.950 . S
H3922 C3952 0.950 . S
H3923 C3953 0.950 . S
C3924 H3906 0.951 . S
C3924 C3925 1.366 . S
C3924 C3926 1.388 . S
C3925 C3924 1.366 . S
C3925 C3929 1.385 . S
C3926 H3907 0.951 . S
C3926 C3924 1.388 . S
C3926 C3927 1.366 . S
C3927 C3926 1.366 . S
C3927 C3928 1.414 . S
C3927 C3930 1.499 . S
C3928 H3908 0.950 . S
C3928 C3927 1.414 . S
C3928 C3929 1.374 . S
C3929 H3909 0.950 . S
C3929 C3925 1.385 . S
C3929 C3928 1.374 . S
C3930 C3927 1.499 . S
C3930 C3931 1.373 . S
C3930 C3932 1.389 . S
C3931 H3910 0.950 . S
C3931 C3930 1.373 . S
C3931 C3947 1.377 1_554 S
C3932 C3930 1.389 . S
C3932 C3933 1.524 . S
C3932 C3946 1.377 1_554 S
C3933 C3932 1.524 . S
C3933 C3934 1.397 . S
C3933 C3938 1.363 1_554 S
C3934 H3911 0.950 . S
C3934 C3933 1.397 . S
C3934 C3935 1.334 . S
C3935 H3912 0.950 . S
C3935 C3934 1.334 . S
C3935 C3936 1.287 . S
C3936 C3935 1.287 . S
C3936 C3937 1.524 1_554 S
C3936 H3955 0.913 . S
C3937 H3913 0.950 . S
C3937 C3936 1.524 1_556 S
C3937 C3938 1.415 . S
C3938 H3914 0.950 . S
C3938 C3933 1.363 1_556 S
C3938 C3937 1.415 . S
C3939 H3915 0.951 . S
C3939 C3940 1.366 . S
C3939 C3941 1.388 . S
C3940 C3939 1.366 . S
C3940 C3944 1.385 . S
C3941 H3916 0.951 . S
C3941 C3939 1.388 . S
C3941 C3942 1.366 . S
C3942 C3941 1.366 . S
C3942 C3943 1.414 . S
C3942 C3945 1.499 . S
C3943 H3917 0.950 . S
C3943 C3942 1.414 . S
C3943 C3944 1.374 . S
C3944 H3918 0.950 . S
C3944 C3940 1.385 . S
C3944 C3943 1.374 . S
C3945 C3942 1.499 . S
C3945 C3946 1.373 . S
C3945 C3947 1.389 . S
C3946 H3919 0.950 . S
C3946 C3932 1.377 1_556 S
C3946 C3945 1.373 . S
C3947 C3931 1.377 1_556 S
C3947 C3945 1.389 . S
C3947 C3948 1.524 . S
C3948 C3947 1.524 . S
C3948 C3949 1.397 . S
C3948 C3953 1.363 1_556 S
C3949 H3920 0.950 . S
C3949 C3948 1.397 . S
C3949 C3950 1.334 . S
C3950 H3921 0.950 . S
C3950 C3949 1.334 . S
C3950 C3951 1.287 . S
C3951 C3950 1.287 . S
C3951 C3952 1.524 1_556 S
C3951 H3954 0.999 . S
C3952 H3922 0.950 . S
C3952 C3951 1.524 1_554 S
C3952 C3953 1.415 . S
C3953 H3923 0.950 . S
C3953 C3948 1.363 1_554 S
C3953 C3952 1.415 . S
H3954 C3951 0.999 . S
H3955 C3936 0.913 . S
H3956 C3974 0.951 . S
H3957 C3976 0.951 . S
H3958 C3978 0.950 . S
H3959 C3979 0.950 . S
H3960 C3981 0.950 . S
H3961 C3984 0.950 . S
H3962 C3985 0.950 . S
H3963 C3987 0.950 . S
H3964 C3988 0.950 . S
H3965 C3989 0.951 . S
H3966 C3991 0.951 . S
H3967 C3993 0.950 . S
H3968 C3994 0.950 . S
H3969 C3996 0.950 . S
H3970 C3999 0.950 . S
H3971 C4000 0.950 . S
H3972 C4002 0.950 . S
H3973 C4003 0.950 . S
C3974 H3956 0.951 . S
C3974 C3975 1.366 . S
C3974 C3976 1.388 . S
C3975 C3974 1.366 . S
C3975 C3979 1.385 . S
C3976 H3957 0.951 . S
C3976 C3974 1.388 . S
C3976 C3977 1.366 . S
C3977 C3976 1.366 . S
C3977 C3978 1.414 . S
C3977 C3980 1.499 . S
C3978 H3958 0.950 . S
C3978 C3977 1.414 . S
C3978 C3979 1.374 . S
C3979 H3959 0.950 . S
C3979 C3975 1.385 . S
C3979 C3978 1.374 . S
C3980 C3977 1.499 . S
C3980 C3981 1.373 . S
C3980 C3982 1.389 . S
C3981 H3960 0.950 . S
C3981 C3980 1.373 . S
C3981 C3997 1.377 . S
C3982 C3980 1.389 . S
C3982 C3983 1.524 . S
C3982 C3996 1.377 . S
C3983 C3982 1.524 . S
C3983 C3984 1.397 . S
C3983 C3988 1.363 . S
C3984 H3961 0.950 . S
C3984 C3983 1.397 . S
C3984 C3985 1.334 . S
C3985 H3962 0.950 . S
C3985 C3984 1.334 . S
C3985 C3986 1.287 . S
C3986 C3985 1.287 . S
C3986 C3987 1.524 . S
C3986 H4005 0.913 . S
C3987 H3963 0.950 . S
C3987 C3986 1.524 . S
C3987 C3988 1.415 . S
C3988 H3964 0.950 . S
C3988 C3983 1.363 . S
C3988 C3987 1.415 . S
C3989 H3965 0.951 . S
C3989 C3990 1.366 . S
C3989 C3991 1.388 . S
C3990 C3989 1.366 . S
C3990 C3994 1.385 . S
C3991 H3966 0.951 . S
C3991 C3989 1.388 . S
C3991 C3992 1.366 . S
C3992 C3991 1.366 . S
C3992 C3993 1.414 . S
C3992 C3995 1.499 . S
C3993 H3967 0.950 . S
C3993 C3992 1.414 . S
C3993 C3994 1.374 . S
C3994 H3968 0.950 . S
C3994 C3990 1.385 . S
C3994 C3993 1.374 . S
C3995 C3992 1.499 . S
C3995 C3996 1.373 . S
C3995 C3997 1.389 . S
C3996 H3969 0.950 . S
C3996 C3982 1.377 . S
C3996 C3995 1.373 . S
C3997 C3981 1.377 . S
C3997 C3995 1.389 . S
C3997 C3998 1.524 . S
C3998 C3997 1.524 . S
C3998 C3999 1.397 . S
C3998 C4003 1.363 . S
C3999 H3970 0.950 . S
C3999 C3998 1.397 . S
C3999 C4000 1.334 . S
C4000 H3971 0.950 . S
C4000 C3999 1.334 . S
C4000 C4001 1.287 . S
C4001 C4000 1.287 . S
C4001 C4002 1.524 . S
C4001 H4004 0.999 . S
C4002 H3972 0.950 . S
C4002 C4001 1.524 . S
C4002 C4003 1.415 . S
C4003 H3973 0.950 . S
C4003 C3998 1.363 . S
C4003 C4002 1.415 . S
H4004 C4001 0.999 . S
H4005 C3986 0.913 . S
H4006 C4024 0.951 . S
H4007 C4026 0.951 . S
H4008 C4028 0.950 . S
H4009 C4029 0.950 . S
H4010 C4031 0.950 . S
H4011 C4034 0.950 . S
H4012 C4035 0.950 . S
H4013 C4037 0.950 . S
H4014 C4038 0.950 . S
H4015 C4039 0.951 . S
H4016 C4041 0.951 . S
H4017 C4043 0.950 . S
H4018 C4044 0.950 . S
H4019 C4046 0.950 . S
H4020 C4049 0.950 . S
H4021 C4050 0.950 . S
H4022 C4052 0.950 . S
H4023 C4053 0.950 . S
C4024 H4006 0.951 . S
C4024 C4025 1.366 . S
C4024 C4026 1.388 . S
C4025 C4024 1.366 . S
C4025 C4029 1.385 . S
C4026 H4007 0.951 . S
C4026 C4024 1.388 . S
C4026 C4027 1.366 . S
C4027 C4026 1.366 . S
C4027 C4028 1.414 . S
C4027 C4030 1.499 . S
C4028 H4008 0.950 . S
C4028 C4027 1.414 . S
C4028 C4029 1.374 . S
C4029 H4009 0.950 . S
C4029 C4025 1.385 . S
C4029 C4028 1.374 . S
C4030 C4027 1.499 . S
C4030 C4031 1.373 . S
C4030 C4032 1.389 . S
C4031 H4010 0.950 . S
C4031 C4030 1.373 . S
C4031 C4047 1.377 . S
C4032 C4030 1.389 . S
C4032 C4033 1.524 . S
C4032 C4046 1.377 . S
C4033 C4032 1.524 . S
C4033 C4034 1.397 . S
C4033 C4038 1.363 . S
C4034 H4011 0.950 . S
C4034 C4033 1.397 . S
C4034 C4035 1.334 . S
C4035 H4012 0.950 . S
C4035 C4034 1.334 . S
C4035 C4036 1.287 . S
C4036 C4035 1.287 . S
C4036 C4037 1.524 . S
C4036 H4055 0.913 . S
C4037 H4013 0.950 . S
C4037 C4036 1.524 . S
C4037 C4038 1.415 . S
C4038 H4014 0.950 . S
C4038 C4033 1.363 . S
C4038 C4037 1.415 . S
C4039 H4015 0.951 . S
C4039 C4040 1.366 . S
C4039 C4041 1.388 . S
C4040 C4039 1.366 . S
C4040 C4044 1.385 . S
C4041 H4016 0.951 . S
C4041 C4039 1.388 . S
C4041 C4042 1.366 . S
C4042 C4041 1.366 . S
C4042 C4043 1.414 . S
C4042 C4045 1.499 . S
C4043 H4017 0.950 . S
C4043 C4042 1.414 . S
C4043 C4044 1.374 . S
C4044 H4018 0.950 . S
C4044 C4040 1.385 . S
C4044 C4043 1.374 . S
C4045 C4042 1.499 . S
C4045 C4046 1.373 . S
C4045 C4047 1.389 . S
C4046 H4019 0.950 . S
C4046 C4032 1.377 . S
C4046 C4045 1.373 . S
C4047 C4031 1.377 . S
C4047 C4045 1.389 . S
C4047 C4048 1.524 . S
C4048 C4047 1.524 . S
C4048 C4049 1.397 . S
C4048 C4053 1.363 . S
C4049 H4020 0.950 . S
C4049 C4048 1.397 . S
C4049 C4050 1.334 . S
C4050 H4021 0.950 . S
C4050 C4049 1.334 . S
C4050 C4051 1.287 . S
C4051 C4050 1.287 . S
C4051 C4052 1.524 . S
C4051 H4054 0.999 . S
C4052 H4022 0.950 . S
C4052 C4051 1.524 . S
C4052 C4053 1.415 . S
C4053 H4023 0.950 . S
C4053 C4048 1.363 . S
C4053 C4052 1.415 . S
H4054 C4051 0.999 . S
H4055 C4036 0.913 . S
H4056 C4074 0.951 . S
H4057 C4076 0.951 . S
H4058 C4078 0.950 . S
H4059 C4079 0.950 . S
H4060 C4081 0.950 . S
H4061 C4084 0.950 . S
H4062 C4085 0.950 . S
H4063 C4087 0.950 . S
H4064 C4088 0.950 . S
H4065 C4089 0.951 . S
H4066 C4091 0.951 . S
H4067 C4093 0.950 . S
H4068 C4094 0.950 . S
H4069 C4096 0.950 . S
H4070 C4099 0.950 . S
H4071 C4100 0.950 . S
H4072 C4102 0.950 . S
H4073 C4103 0.950 . S
C4074 H4056 0.951 . S
C4074 C4075 1.366 . S
C4074 C4076 1.388 . S
C4075 C4074 1.366 . S
C4075 C4079 1.385 . S
C4076 H4057 0.951 . S
C4076 C4074 1.388 . S
C4076 C4077 1.366 . S
C4077 C4076 1.366 . S
C4077 C4078 1.414 . S
C4077 C4080 1.499 . S
C4078 H4058 0.950 . S
C4078 C4077 1.414 . S
C4078 C4079 1.374 . S
C4079 H4059 0.950 . S
C4079 C4075 1.385 . S
C4079 C4078 1.374 . S
C4080 C4077 1.499 . S
C4080 C4081 1.373 . S
C4080 C4082 1.389 . S
C4081 H4060 0.950 . S
C4081 C4080 1.373 . S
C4081 C4097 1.377 . S
C4082 C4080 1.389 . S
C4082 C4083 1.524 . S
C4082 C4096 1.377 . S
C4083 C4082 1.524 . S
C4083 C4084 1.397 . S
C4083 C4088 1.363 . S
C4084 H4061 0.950 . S
C4084 C4083 1.397 . S
C4084 C4085 1.334 . S
C4085 H4062 0.950 . S
C4085 C4084 1.334 . S
C4085 C4086 1.287 . S
C4086 C4085 1.287 . S
C4086 C4087 1.524 . S
C4086 H4105 0.913 . S
C4087 H4063 0.950 . S
C4087 C4086 1.524 . S
C4087 C4088 1.415 . S
C4088 H4064 0.950 . S
C4088 C4083 1.363 . S
C4088 C4087 1.415 . S
C4089 H4065 0.951 . S
C4089 C4090 1.366 . S
C4089 C4091 1.388 . S
C4090 C4089 1.366 . S
C4090 C4094 1.385 . S
C4091 H4066 0.951 . S
C4091 C4089 1.388 . S
C4091 C4092 1.366 . S
C4092 C4091 1.366 . S
C4092 C4093 1.414 . S
C4092 C4095 1.499 . S
C4093 H4067 0.950 . S
C4093 C4092 1.414 . S
C4093 C4094 1.374 . S
C4094 H4068 0.950 . S
C4094 C4090 1.385 . S
C4094 C4093 1.374 . S
C4095 C4092 1.499 . S
C4095 C4096 1.373 . S
C4095 C4097 1.389 . S
C4096 H4069 0.950 . S
C4096 C4082 1.377 . S
C4096 C4095 1.373 . S
C4097 C4081 1.377 . S
C4097 C4095 1.389 . S
C4097 C4098 1.524 . S
C4098 C4097 1.524 . S
C4098 C4099 1.397 . S
C4098 C4103 1.363 . S
C4099 H4070 0.950 . S
C4099 C4098 1.397 . S
C4099 C4100 1.334 . S
C4100 H4071 0.950 . S
C4100 C4099 1.334 . S
C4100 C4101 1.287 . S
C4101 C4100 1.287 . S
C4101 C4102 1.524 . S
C4101 H4104 0.999 . S
C4102 H4072 0.950 . S
C4102 C4101 1.524 . S
C4102 C4103 1.415 . S
C4103 H4073 0.950 . S
C4103 C4098 1.363 . S
C4103 C4102 1.415 . S
H4104 C4101 0.999 . S
H4105 C4086 0.913 . S
H4106 C4124 0.951 . S
H4107 C4126 0.951 . S
H4108 C4128 0.950 . S
H4109 C4129 0.950 . S
H4110 C4131 0.950 . S
H4111 C4134 0.950 . S
H4112 C4135 0.950 . S
H4113 C4137 0.950 . S
H4114 C4138 0.950 . S
H4115 C4139 0.951 . S
H4116 C4141 0.951 . S
H4117 C4143 0.950 . S
H4118 C4144 0.950 . S
H4119 C4146 0.950 . S
H4120 C4149 0.950 . S
H4121 C4150 0.950 . S
H4122 C4152 0.950 . S
H4123 C4153 0.950 . S
C4124 H4106 0.951 . S
C4124 C4125 1.366 . S
C4124 C4126 1.388 . S
C4125 C4124 1.366 . S
C4125 C4129 1.385 . S
C4126 H4107 0.951 . S
C4126 C4124 1.388 . S
C4126 C4127 1.366 . S
C4127 C4126 1.366 . S
C4127 C4128 1.414 . S
C4127 C4130 1.499 . S
C4128 H4108 0.950 . S
C4128 C4127 1.414 . S
C4128 C4129 1.374 . S
C4129 H4109 0.950 . S
C4129 C4125 1.385 . S
C4129 C4128 1.374 . S
C4130 C4127 1.499 . S
C4130 C4131 1.395 . S
C4130 C4132 1.389 . S
C4131 H4110 0.950 . S
C4131 C4130 1.395 . S
C4131 C4147 1.355 1_556 S
C4132 C4130 1.389 . S
C4132 C4133 1.524 . S
C4132 C4146 1.355 1_556 S
C4133 C4132 1.524 . S
C4133 C4134 1.397 . S
C4133 C4138 1.363 . S
C4134 H4111 0.950 . S
C4134 C4133 1.397 . S
C4134 C4135 1.334 . S
C4135 H4112 0.950 . S
C4135 C4134 1.334 . S
C4135 C4136 1.287 . S
C4136 C4135 1.287 . S
C4136 C4137 1.524 . S
C4136 H4155 0.913 . S
C4137 H4113 0.950 . S
C4137 C4136 1.524 . S
C4137 C4138 1.415 . S
C4138 H4114 0.950 . S
C4138 C4133 1.363 . S
C4138 C4137 1.415 . S
C4139 H4115 0.951 . S
C4139 C4140 1.366 . S
C4139 C4141 1.388 . S
C4140 C4139 1.366 . S
C4140 C4144 1.385 . S
C4141 H4116 0.951 . S
C4141 C4139 1.388 . S
C4141 C4142 1.366 . S
C4142 C4141 1.366 . S
C4142 C4143 1.414 . S
C4142 C4145 1.499 . S
C4143 H4117 0.950 . S
C4143 C4142 1.414 . S
C4143 C4144 1.374 . S
C4144 H4118 0.950 . S
C4144 C4140 1.385 . S
C4144 C4143 1.374 . S
C4145 C4142 1.499 . S
C4145 C4146 1.395 . S
C4145 C4147 1.389 . S
C4146 H4119 0.950 . S
C4146 C4132 1.355 1_554 S
C4146 C4145 1.395 . S
C4147 C4131 1.355 1_554 S
C4147 C4145 1.389 . S
C4147 C4148 1.524 . S
C4148 C4147 1.524 . S
C4148 C4149 1.397 . S
C4148 C4153 1.363 . S
C4149 H4120 0.950 . S
C4149 C4148 1.397 . S
C4149 C4150 1.334 . S
C4150 H4121 0.950 . S
C4150 C4149 1.334 . S
C4150 C4151 1.287 . S
C4151 C4150 1.287 . S
C4151 C4152 1.524 . S
C4151 H4154 0.999 . S
C4152 H4122 0.950 . S
C4152 C4151 1.524 . S
C4152 C4153 1.415 . S
C4153 H4123 0.950 . S
C4153 C4148 1.363 . S
C4153 C4152 1.415 . S
H4154 C4151 0.999 . S
H4155 C4136 0.913 . S
H4156 C4174 0.951 . S
H4157 C4176 0.951 . S
H4158 C4178 0.950 . S
H4159 C4179 0.950 . S
H4160 C4181 0.950 . S
H4161 C4184 0.950 . S
H4162 C4185 0.950 . S
H4163 C4187 0.950 . S
H4164 C4188 0.950 . S
H4165 C4189 0.951 . S
H4166 C4191 0.951 . S
H4167 C4193 0.950 . S
H4168 C4194 0.950 . S
H4169 C4196 0.950 . S
H4170 C4199 0.950 . S
H4171 C4200 0.950 . S
H4172 C4202 0.950 . S
H4173 C4203 0.950 . S
C4174 H4156 0.951 . S
C4174 C4175 1.366 . S
C4174 C4176 1.388 . S
C4175 C4174 1.366 . S
C4175 C4179 1.385 . S
C4176 H4157 0.951 . S
C4176 C4174 1.388 . S
C4176 C4177 1.366 . S
C4177 C4176 1.366 . S
C4177 C4178 1.414 . S
C4177 C4180 1.499 . S
C4178 H4158 0.950 . S
C4178 C4177 1.414 . S
C4178 C4179 1.374 . S
C4179 H4159 0.950 . S
C4179 C4175 1.385 . S
C4179 C4178 1.374 . S
C4180 C4177 1.499 . S
C4180 C4181 1.373 . S
C4180 C4182 1.389 . S
C4181 H4160 0.950 . S
C4181 C4180 1.373 . S
C4181 C4197 1.377 . S
C4182 C4180 1.389 . S
C4182 C4183 1.524 . S
C4182 C4196 1.377 . S
C4183 C4182 1.524 . S
C4183 C4184 1.397 . S
C4183 C4188 1.363 . S
C4184 H4161 0.950 . S
C4184 C4183 1.397 . S
C4184 C4185 1.334 . S
C4185 H4162 0.950 . S
C4185 C4184 1.334 . S
C4185 C4186 1.287 . S
C4186 C4185 1.287 . S
C4186 C4187 1.524 . S
C4186 H4205 0.913 . S
C4187 H4163 0.950 . S
C4187 C4186 1.524 . S
C4187 C4188 1.415 . S
C4188 H4164 0.950 . S
C4188 C4183 1.363 . S
C4188 C4187 1.415 . S
C4189 H4165 0.951 . S
C4189 C4190 1.366 . S
C4189 C4191 1.388 . S
C4190 C4189 1.366 . S
C4190 C4194 1.385 . S
C4191 H4166 0.951 . S
C4191 C4189 1.388 . S
C4191 C4192 1.366 . S
C4192 C4191 1.366 . S
C4192 C4193 1.414 . S
C4192 C4195 1.499 . S
C4193 H4167 0.950 . S
C4193 C4192 1.414 . S
C4193 C4194 1.374 . S
C4194 H4168 0.950 . S
C4194 C4190 1.385 . S
C4194 C4193 1.374 . S
C4195 C4192 1.499 . S
C4195 C4196 1.373 . S
C4195 C4197 1.389 . S
C4196 H4169 0.950 . S
C4196 C4182 1.377 . S
C4196 C4195 1.373 . S
C4197 C4181 1.377 . S
C4197 C4195 1.389 . S
C4197 C4198 1.524 . S
C4198 C4197 1.524 . S
C4198 C4199 1.397 . S
C4198 C4203 1.363 . S
C4199 H4170 0.950 . S
C4199 C4198 1.397 . S
C4199 C4200 1.334 . S
C4200 H4171 0.950 . S
C4200 C4199 1.334 . S
C4200 C4201 1.287 . S
C4201 C4200 1.287 . S
C4201 C4202 1.524 . S
C4201 H4204 0.999 . S
C4202 H4172 0.950 . S
C4202 C4201 1.524 . S
C4202 C4203 1.415 . S
C4203 H4173 0.950 . S
C4203 C4198 1.363 . S
C4203 C4202 1.415 . S
H4204 C4201 0.999 . S
H4205 C4186 0.913 . S
H4206 C4224 0.951 . S
H4207 C4226 0.951 . S
H4208 C4228 0.950 . S
H4209 C4229 0.950 . S
H4210 C4231 0.950 . S
H4211 C4234 0.950 . S
H4212 C4235 0.950 . S
H4213 C4237 0.950 . S
H4214 C4238 0.950 . S
H4215 C4239 0.951 . S
H4216 C4241 0.951 . S
H4217 C4243 0.950 . S
H4218 C4244 0.950 . S
H4219 C4246 0.950 . S
H4220 C4249 0.950 . S
H4221 C4250 0.950 . S
H4222 C4252 0.950 . S
H4223 C4253 0.950 . S
C4224 H4206 0.951 . S
C4224 C4225 1.366 . S
C4224 C4226 1.388 . S
C4225 C4224 1.366 . S
C4225 C4229 1.385 . S
C4226 H4207 0.951 . S
C4226 C4224 1.388 . S
C4226 C4227 1.366 . S
C4227 C4226 1.366 . S
C4227 C4228 1.414 . S
C4227 C4230 1.499 . S
C4228 H4208 0.950 . S
C4228 C4227 1.414 . S
C4228 C4229 1.374 . S
C4229 H4209 0.950 . S
C4229 C4225 1.385 . S
C4229 C4228 1.374 . S
C4230 C4227 1.499 . S
C4230 C4231 1.373 . S
C4230 C4232 1.389 . S
C4231 H4210 0.950 . S
C4231 C4230 1.373 . S
C4231 C4247 1.377 . S
C4232 C4230 1.389 . S
C4232 C4233 1.524 . S
C4232 C4246 1.377 . S
C4233 C4232 1.524 . S
C4233 C4234 1.397 . S
C4233 C4238 1.363 . S
C4234 H4211 0.950 . S
C4234 C4233 1.397 . S
C4234 C4235 1.334 . S
C4235 H4212 0.950 . S
C4235 C4234 1.334 . S
C4235 C4236 1.287 . S
C4236 C4235 1.287 . S
C4236 C4237 1.524 . S
C4236 H4255 0.913 . S
C4237 H4213 0.950 . S
C4237 C4236 1.524 . S
C4237 C4238 1.415 . S
C4238 H4214 0.950 . S
C4238 C4233 1.363 . S
C4238 C4237 1.415 . S
C4239 H4215 0.951 . S
C4239 C4240 1.366 . S
C4239 C4241 1.388 . S
C4240 C4239 1.366 . S
C4240 C4244 1.385 . S
C4241 H4216 0.951 . S
C4241 C4239 1.388 . S
C4241 C4242 1.366 . S
C4242 C4241 1.366 . S
C4242 C4243 1.414 . S
C4242 C4245 1.499 . S
C4243 H4217 0.950 . S
C4243 C4242 1.414 . S
C4243 C4244 1.374 . S
C4244 H4218 0.950 . S
C4244 C4240 1.385 . S
C4244 C4243 1.374 . S
C4245 C4242 1.499 . S
C4245 C4246 1.373 . S
C4245 C4247 1.389 . S
C4246 H4219 0.950 . S
C4246 C4232 1.377 . S
C4246 C4245 1.373 . S
C4247 C4231 1.377 . S
C4247 C4245 1.389 . S
C4247 C4248 1.524 . S
C4248 C4247 1.524 . S
C4248 C4249 1.397 . S
C4248 C4253 1.363 . S
C4249 H4220 0.950 . S
C4249 C4248 1.397 . S
C4249 C4250 1.334 . S
C4250 H4221 0.950 . S
C4250 C4249 1.334 . S
C4250 C4251 1.287 . S
C4251 C4250 1.287 . S
C4251 C4252 1.524 . S
C4251 H4254 0.999 . S
C4252 H4222 0.950 . S
C4252 C4251 1.524 . S
C4252 C4253 1.415 . S
C4253 H4223 0.950 . S
C4253 C4248 1.363 . S
C4253 C4252 1.415 . S
H4254 C4251 0.999 . S
H4255 C4236 0.913 . S
H4256 C4274 0.951 . S
H4257 C4276 0.951 . S
H4258 C4278 0.950 . S
H4259 C4279 0.950 . S
H4260 C4281 0.950 . S
H4261 C4284 0.950 . S
H4262 C4285 0.958 . S
H4263 C4287 0.950 . S
H4264 C4288 0.950 . S
H4265 C4289 0.951 . S
H4266 C4291 0.951 . S
H4267 C4293 0.950 . S
H4268 C4294 0.950 . S
H4269 C4296 0.950 . S
H4270 C4299 0.950 . S
H4271 C4300 0.958 . S
H4272 C4302 0.950 . S
H4273 C4303 0.950 . S
C4274 H4256 0.951 . S
C4274 C4275 1.366 . S
C4274 C4276 1.388 . S
C4275 C4274 1.366 . S
C4275 C4279 1.385 . S
C4276 H4257 0.951 . S
C4276 C4274 1.388 . S
C4276 C4277 1.366 . S
C4277 C4276 1.366 . S
C4277 C4278 1.414 . S
C4277 C4280 1.499 . S
C4278 H4258 0.950 . S
C4278 C4277 1.414 . S
C4278 C4279 1.374 . S
C4279 H4259 0.950 . S
C4279 C4275 1.385 . S
C4279 C4278 1.374 . S
C4280 C4277 1.499 . S
C4280 C4281 1.373 . S
C4280 C4282 1.389 1_455 S
C4281 H4260 0.950 . S
C4281 C4280 1.373 . S
C4281 C4297 1.377 . S
C4282 C4280 1.389 1_655 S
C4282 C4283 1.524 . S
C4282 C4296 1.377 . S
C4283 C4282 1.524 . S
C4283 C4284 1.397 1_655 S
C4283 C4288 1.363 . S
C4284 H4261 0.950 . S
C4284 C4283 1.397 1_455 S
C4284 C4285 1.336 . S
C4285 H4262 0.958 . S
C4285 C4284 1.336 . S
C4285 C4286 1.276 1_455 S
C4286 C4285 1.276 1_655 S
C4286 C4287 1.524 . S
C4286 H4305 0.913 . S
C4287 H4263 0.950 . S
C4287 C4286 1.524 . S
C4287 C4288 1.415 . S
C4288 H4264 0.950 . S
C4288 C4283 1.363 . S
C4288 C4287 1.415 . S
C4289 H4265 0.951 . S
C4289 C4290 1.366 . S
C4289 C4291 1.388 . S
C4290 C4289 1.366 . S
C4290 C4294 1.385 . S
C4291 H4266 0.951 . S
C4291 C4289 1.388 . S
C4291 C4292 1.366 . S
C4292 C4291 1.366 . S
C4292 C4293 1.414 . S
C4292 C4295 1.499 . S
C4293 H4267 0.950 . S
C4293 C4292 1.414 . S
C4293 C4294 1.374 . S
C4294 H4268 0.950 . S
C4294 C4290 1.385 . S
C4294 C4293 1.374 . S
C4295 C4292 1.499 . S
C4295 C4296 1.373 . S
C4295 C4297 1.389 1_655 S
C4296 H4269 0.950 . S
C4296 C4282 1.377 . S
C4296 C4295 1.373 . S
C4297 C4281 1.377 . S
C4297 C4295 1.389 1_455 S
C4297 C4298 1.524 . S
C4298 C4297 1.524 . S
C4298 C4299 1.397 1_455 S
C4298 C4303 1.363 . S
C4299 H4270 0.950 . S
C4299 C4298 1.397 1_655 S
C4299 C4300 1.336 . S
C4300 H4271 0.958 . S
C4300 C4299 1.336 . S
C4300 C4301 1.276 1_655 S
C4301 C4300 1.276 1_455 S
C4301 C4302 1.524 . S
C4301 H4304 0.999 . S
C4302 H4272 0.950 . S
C4302 C4301 1.524 . S
C4302 C4303 1.415 . S
C4303 H4273 0.950 . S
C4303 C4298 1.363 . S
C4303 C4302 1.415 . S
H4304 C4301 0.999 . S
H4305 C4286 0.913 . S
H4306 C4324 0.951 . S
H4307 C4326 0.951 . S
H4308 C4328 0.950 . S
H4309 C4329 0.950 . S
H4310 C4331 0.950 . S
H4311 C4334 0.950 . S
H4312 C4335 0.950 . S
H4313 C4337 0.950 . S
H4314 C4338 0.950 . S
H4315 C4339 0.951 . S
H4316 C4341 0.951 . S
H4317 C4343 0.950 . S
H4318 C4344 0.950 . S
H4319 C4346 0.950 . S
H4320 C4349 0.950 . S
H4321 C4350 0.950 . S
H4322 C4352 0.950 . S
H4323 C4353 0.950 . S
C4324 H4306 0.951 . S
C4324 C4325 1.366 . S
C4324 C4326 1.388 . S
C4325 C4324 1.366 . S
C4325 C4329 1.385 . S
C4326 H4307 0.951 . S
C4326 C4324 1.388 . S
C4326 C4327 1.366 . S
C4327 C4326 1.366 . S
C4327 C4328 1.414 . S
C4327 C4330 1.499 . S
C4328 H4308 0.950 . S
C4328 C4327 1.414 . S
C4328 C4329 1.374 . S
C4329 H4309 0.950 . S
C4329 C4325 1.385 . S
C4329 C4328 1.374 . S
C4330 C4327 1.499 . S
C4330 C4331 1.373 1_655 S
C4330 C4332 1.389 . S
C4331 H4310 0.950 . S
C4331 C4330 1.373 1_455 S
C4331 C4347 1.377 . S
C4332 C4330 1.389 . S
C4332 C4333 1.524 . S
C4332 C4346 1.377 . S
C4333 C4332 1.524 . S
C4333 C4334 1.397 . S
C4333 C4338 1.363 . S
C4334 H4311 0.950 . S
C4334 C4333 1.397 . S
C4334 C4335 1.334 . S
C4335 H4312 0.950 . S
C4335 C4334 1.334 . S
C4335 C4336 1.287 . S
C4336 C4335 1.287 . S
C4336 C4337 1.524 . S
C4336 H4355 0.913 . S
C4337 H4313 0.950 . S
C4337 C4336 1.524 . S
C4337 C4338 1.415 . S
C4338 H4314 0.950 . S
C4338 C4333 1.363 . S
C4338 C4337 1.415 . S
C4339 H4315 0.951 . S
C4339 C4340 1.366 . S
C4339 C4341 1.388 . S
C4340 C4339 1.366 . S
C4340 C4344 1.385 . S
C4341 H4316 0.951 . S
C4341 C4339 1.388 . S
C4341 C4342 1.366 . S
C4342 C4341 1.366 . S
C4342 C4343 1.414 . S
C4342 C4345 1.499 . S
C4343 H4317 0.950 . S
C4343 C4342 1.414 . S
C4343 C4344 1.374 . S
C4344 H4318 0.950 . S
C4344 C4340 1.385 . S
C4344 C4343 1.374 . S
C4345 C4342 1.499 . S
C4345 C4346 1.373 1_455 S
C4345 C4347 1.389 . S
C4346 H4319 0.950 . S
C4346 C4332 1.377 . S
C4346 C4345 1.373 1_655 S
C4347 C4331 1.377 . S
C4347 C4345 1.389 . S
C4347 C4348 1.524 . S
C4348 C4347 1.524 . S
C4348 C4349 1.397 . S
C4348 C4353 1.363 . S
C4349 H4320 0.950 . S
C4349 C4348 1.397 . S
C4349 C4350 1.334 . S
C4350 H4321 0.950 . S
C4350 C4349 1.334 . S
C4350 C4351 1.287 . S
C4351 C4350 1.287 . S
C4351 C4352 1.524 . S
C4351 H4354 0.999 . S
C4352 H4322 0.950 . S
C4352 C4351 1.524 . S
C4352 C4353 1.415 . S
C4353 H4323 0.950 . S
C4353 C4348 1.363 . S
C4353 C4352 1.415 . S
H4354 C4351 0.999 . S
H4355 C4336 0.913 . S
H4356 C4374 0.951 . S
H4357 C4376 0.951 . S
H4358 C4378 0.950 . S
H4359 C4379 0.950 . S
H4360 C4381 0.950 . S
H4361 C4384 0.950 . S
H4362 C4385 0.950 . S
H4363 C4387 0.950 . S
H4364 C4388 0.950 . S
H4365 C4389 0.951 . S
H4366 C4391 0.951 . S
H4367 C4393 0.950 . S
H4368 C4394 0.950 . S
H4369 C4396 0.950 . S
H4370 C4399 0.950 . S
H4371 C4400 0.950 . S
H4372 C4402 0.950 . S
H4373 C4403 0.950 . S
C4374 H4356 0.951 . S
C4374 C4375 1.366 . S
C4374 C4376 1.388 . S
C4375 C4374 1.366 . S
C4375 C4379 1.385 . S
C4376 H4357 0.951 . S
C4376 C4374 1.388 . S
C4376 C4377 1.366 . S
C4377 C4376 1.366 . S
C4377 C4378 1.414 . S
C4377 C4380 1.499 . S
C4378 H4358 0.950 . S
C4378 C4377 1.414 . S
C4378 C4379 1.374 . S
C4379 H4359 0.950 . S
C4379 C4375 1.385 . S
C4379 C4378 1.374 . S
C4380 C4377 1.499 . S
C4380 C4381 1.373 . S
C4380 C4382 1.389 . S
C4381 H4360 0.950 . S
C4381 C4380 1.373 . S
C4381 C4397 1.377 . S
C4382 C4380 1.389 . S
C4382 C4383 1.524 . S
C4382 C4396 1.377 . S
C4383 C4382 1.524 . S
C4383 C4384 1.397 . S
C4383 C4388 1.363 . S
C4384 H4361 0.950 . S
C4384 C4383 1.397 . S
C4384 C4385 1.334 . S
C4385 H4362 0.950 . S
C4385 C4384 1.334 . S
C4385 C4386 1.287 . S
C4386 C4385 1.287 . S
C4386 C4387 1.524 . S
C4386 H4405 0.913 . S
C4387 H4363 0.950 . S
C4387 C4386 1.524 . S
C4387 C4388 1.415 . S
C4388 H4364 0.950 . S
C4388 C4383 1.363 . S
C4388 C4387 1.415 . S
C4389 H4365 0.951 . S
C4389 C4390 1.366 . S
C4389 C4391 1.388 . S
C4390 C4389 1.366 . S
C4390 C4394 1.385 . S
C4391 H4366 0.951 . S
C4391 C4389 1.388 . S
C4391 C4392 1.366 . S
C4392 C4391 1.366 . S
C4392 C4393 1.414 . S
C4392 C4395 1.499 . S
C4393 H4367 0.950 . S
C4393 C4392 1.414 . S
C4393 C4394 1.374 . S
C4394 H4368 0.950 . S
C4394 C4390 1.385 . S
C4394 C4393 1.374 . S
C4395 C4392 1.499 . S
C4395 C4396 1.373 . S
C4395 C4397 1.389 . S
C4396 H4369 0.950 . S
C4396 C4382 1.377 . S
C4396 C4395 1.373 . S
C4397 C4381 1.377 . S
C4397 C4395 1.389 . S
C4397 C4398 1.524 . S
C4398 C4397 1.524 . S
C4398 C4399 1.397 . S
C4398 C4403 1.363 . S
C4399 H4370 0.950 . S
C4399 C4398 1.397 . S
C4399 C4400 1.334 . S
C4400 H4371 0.950 . S
C4400 C4399 1.334 . S
C4400 C4401 1.287 . S
C4401 C4400 1.287 . S
C4401 C4402 1.524 . S
C4401 H4404 0.999 . S
C4402 H4372 0.950 . S
C4402 C4401 1.524 . S
C4402 C4403 1.415 . S
C4403 H4373 0.950 . S
C4403 C4398 1.363 . S
C4403 C4402 1.415 . S
H4404 C4401 0.999 . S
H4405 C4386 0.913 . S
H4406 C4424 0.951 . S
H4407 C4426 0.951 . S
H4408 C4428 0.950 . S
H4409 C4429 0.950 . S
H4410 C4431 0.950 . S
H4411 C4434 0.950 . S
H4412 C4435 0.950 . S
H4413 C4437 0.950 . S
H4414 C4438 0.950 . S
H4415 C4439 0.951 . S
H4416 C4441 0.951 . S
H4417 C4443 0.950 . S
H4418 C4444 0.950 . S
H4419 C4446 0.950 . S
H4420 C4449 0.950 . S
H4421 C4450 0.950 . S
H4422 C4452 0.950 . S
H4423 C4453 0.950 . S
C4424 H4406 0.951 . S
C4424 C4425 1.366 . S
C4424 C4426 1.388 . S
C4425 C4424 1.366 . S
C4425 C4429 1.385 . S
C4426 H4407 0.951 . S
C4426 C4424 1.388 . S
C4426 C4427 1.366 . S
C4427 C4426 1.366 . S
C4427 C4428 1.414 . S
C4427 C4430 1.499 . S
C4428 H4408 0.950 . S
C4428 C4427 1.414 . S
C4428 C4429 1.374 . S
C4429 H4409 0.950 . S
C4429 C4425 1.385 . S
C4429 C4428 1.374 . S
C4430 C4427 1.499 . S
C4430 C4431 1.373 . S
C4430 C4432 1.389 . S
C4431 H4410 0.950 . S
C4431 C4430 1.373 . S
C4431 C4447 1.377 . S
C4432 C4430 1.389 . S
C4432 C4433 1.524 . S
C4432 C4446 1.377 . S
C4433 C4432 1.524 . S
C4433 C4434 1.397 . S
C4433 C4438 1.363 . S
C4434 H4411 0.950 . S
C4434 C4433 1.397 . S
C4434 C4435 1.334 . S
C4435 H4412 0.950 . S
C4435 C4434 1.334 . S
C4435 C4436 1.287 . S
C4436 C4435 1.287 . S
C4436 C4437 1.524 . S
C4436 H4455 0.913 . S
C4437 H4413 0.950 . S
C4437 C4436 1.524 . S
C4437 C4438 1.415 . S
C4438 H4414 0.950 . S
C4438 C4433 1.363 . S
C4438 C4437 1.415 . S
C4439 H4415 0.951 . S
C4439 C4440 1.366 . S
C4439 C4441 1.388 . S
C4440 C4439 1.366 . S
C4440 C4444 1.385 . S
C4441 H4416 0.951 . S
C4441 C4439 1.388 . S
C4441 C4442 1.366 . S
C4442 C4441 1.366 . S
C4442 C4443 1.414 . S
C4442 C4445 1.499 . S
C4443 H4417 0.950 . S
C4443 C4442 1.414 . S
C4443 C4444 1.374 . S
C4444 H4418 0.950 . S
C4444 C4440 1.385 . S
C4444 C4443 1.374 . S
C4445 C4442 1.499 . S
C4445 C4446 1.373 . S
C4445 C4447 1.389 . S
C4446 H4419 0.950 . S
C4446 C4432 1.377 . S
C4446 C4445 1.373 . S
C4447 C4431 1.377 . S
C4447 C4445 1.389 . S
C4447 C4448 1.524 . S
C4448 C4447 1.524 . S
C4448 C4449 1.397 . S
C4448 C4453 1.363 . S
C4449 H4420 0.950 . S
C4449 C4448 1.397 . S
C4449 C4450 1.334 . S
C4450 H4421 0.950 . S
C4450 C4449 1.334 . S
C4450 C4451 1.287 . S
C4451 C4450 1.287 . S
C4451 C4452 1.524 . S
C4451 H4454 0.999 . S
C4452 H4422 0.950 . S
C4452 C4451 1.524 . S
C4452 C4453 1.415 . S
C4453 H4423 0.950 . S
C4453 C4448 1.363 . S
C4453 C4452 1.415 . S
H4454 C4451 0.999 . S
H4455 C4436 0.913 . S
H4456 C4474 0.951 . S
H4457 C4476 0.951 . S
H4458 C4478 0.950 . S
H4459 C4479 0.950 . S
H4460 C4481 0.950 . S
H4461 C4484 0.950 . S
H4462 C4485 0.950 . S
H4463 C4487 0.950 . S
H4464 C4488 0.950 . S
H4465 C4489 0.951 . S
H4466 C4491 0.951 . S
H4467 C4493 0.950 . S
H4468 C4494 0.950 . S
H4469 C4496 0.950 . S
H4470 C4499 0.950 . S
H4471 C4500 0.950 . S
H4472 C4502 0.950 . S
H4473 C4503 0.950 . S
C4474 H4456 0.951 . S
C4474 C4475 1.366 . S
C4474 C4476 1.388 . S
C4475 C4474 1.366 . S
C4475 C4479 1.385 . S
C4476 H4457 0.951 . S
C4476 C4474 1.388 . S
C4476 C4477 1.366 . S
C4477 C4476 1.366 . S
C4477 C4478 1.414 . S
C4477 C4480 1.499 . S
C4478 H4458 0.950 . S
C4478 C4477 1.414 . S
C4478 C4479 1.374 . S
C4479 H4459 0.950 . S
C4479 C4475 1.385 . S
C4479 C4478 1.374 . S
C4480 C4477 1.499 . S
C4480 C4481 1.373 1_655 S
C4480 C4482 1.389 . S
C4481 H4460 0.950 . S
C4481 C4480 1.373 1_455 S
C4481 C4497 1.377 . S
C4482 C4480 1.389 . S
C4482 C4483 1.524 . S
C4482 C4496 1.377 . S
C4483 C4482 1.524 . S
C4483 C4484 1.397 . S
C4483 C4488 1.363 . S
C4484 H4461 0.950 . S
C4484 C4483 1.397 . S
C4484 C4485 1.334 . S
C4485 H4462 0.950 . S
C4485 C4484 1.334 . S
C4485 C4486 1.287 . S
C4486 C4485 1.287 . S
C4486 C4487 1.524 . S
C4486 H4505 0.913 . S
C4487 H4463 0.950 . S
C4487 C4486 1.524 . S
C4487 C4488 1.415 . S
C4488 H4464 0.950 . S
C4488 C4483 1.363 . S
C4488 C4487 1.415 . S
C4489 H4465 0.951 . S
C4489 C4490 1.366 . S
C4489 C4491 1.388 . S
C4490 C4489 1.366 . S
C4490 C4494 1.385 . S
C4491 H4466 0.951 . S
C4491 C4489 1.388 . S
C4491 C4492 1.366 . S
C4492 C4491 1.366 . S
C4492 C4493 1.414 . S
C4492 C4495 1.499 . S
C4493 H4467 0.950 . S
C4493 C4492 1.414 . S
C4493 C4494 1.374 . S
C4494 H4468 0.950 . S
C4494 C4490 1.385 . S
C4494 C4493 1.374 . S
C4495 C4492 1.499 . S
C4495 C4496 1.373 1_455 S
C4495 C4497 1.389 . S
C4496 H4469 0.950 . S
C4496 C4482 1.377 . S
C4496 C4495 1.373 1_655 S
C4497 C4481 1.377 . S
C4497 C4495 1.389 . S
C4497 C4498 1.524 . S
C4498 C4497 1.524 . S
C4498 C4499 1.397 . S
C4498 C4503 1.363 . S
C4499 H4470 0.950 . S
C4499 C4498 1.397 . S
C4499 C4500 1.334 . S
C4500 H4471 0.950 . S
C4500 C4499 1.334 . S
C4500 C4501 1.287 . S
C4501 C4500 1.287 . S
C4501 C4502 1.524 . S
C4501 H4504 0.999 . S
C4502 H4472 0.950 . S
C4502 C4501 1.524 . S
C4502 C4503 1.415 . S
C4503 H4473 0.950 . S
C4503 C4498 1.363 . S
C4503 C4502 1.415 . S
H4504 C4501 0.999 . S
H4505 C4486 0.913 . S
H4506 C4524 0.951 . S
H4507 C4526 0.951 . S
H4508 C4528 0.950 . S
H4509 C4529 0.950 . S
H4510 C4531 0.950 . S
H4511 C4534 0.950 . S
H4512 C4535 0.950 . S
H4513 C4537 0.950 . S
H4514 C4538 0.950 . S
H4515 C4539 0.951 . S
H4516 C4541 0.951 . S
H4517 C4543 0.950 . S
H4518 C4544 0.950 . S
H4519 C4546 0.950 . S
H4520 C4549 0.950 . S
H4521 C4550 0.950 . S
H4522 C4552 0.950 . S
H4523 C4553 0.950 . S
C4524 H4506 0.951 . S
C4524 C4525 1.366 . S
C4524 C4526 1.388 . S
C4525 C4524 1.366 . S
C4525 C4529 1.385 . S
C4526 H4507 0.951 . S
C4526 C4524 1.388 . S
C4526 C4527 1.366 . S
C4527 C4526 1.366 . S
C4527 C4528 1.414 . S
C4527 C4530 1.499 . S
C4528 H4508 0.950 . S
C4528 C4527 1.414 . S
C4528 C4529 1.374 . S
C4529 H4509 0.950 . S
C4529 C4525 1.385 . S
C4529 C4528 1.374 . S
C4530 C4527 1.499 . S
C4530 C4531 1.373 . S
C4530 C4532 1.389 . S
C4531 H4510 0.950 . S
C4531 C4530 1.373 . S
C4531 C4547 1.377 . S
C4532 C4530 1.389 . S
C4532 C4533 1.524 . S
C4532 C4546 1.377 . S
C4533 C4532 1.524 . S
C4533 C4534 1.397 . S
C4533 C4538 1.363 . S
C4534 H4511 0.950 . S
C4534 C4533 1.397 . S
C4534 C4535 1.334 . S
C4535 H4512 0.950 . S
C4535 C4534 1.334 . S
C4535 C4536 1.287 . S
C4536 C4535 1.287 . S
C4536 C4537 1.524 . S
C4536 H4555 0.913 . S
C4537 H4513 0.950 . S
C4537 C4536 1.524 . S
C4537 C4538 1.415 . S
C4538 H4514 0.950 . S
C4538 C4533 1.363 . S
C4538 C4537 1.415 . S
C4539 H4515 0.951 . S
C4539 C4540 1.366 . S
C4539 C4541 1.388 . S
C4540 C4539 1.366 . S
C4540 C4544 1.385 . S
C4541 H4516 0.951 . S
C4541 C4539 1.388 . S
C4541 C4542 1.366 . S
C4542 C4541 1.366 . S
C4542 C4543 1.414 . S
C4542 C4545 1.499 . S
C4543 H4517 0.950 . S
C4543 C4542 1.414 . S
C4543 C4544 1.374 . S
C4544 H4518 0.950 . S
C4544 C4540 1.385 . S
C4544 C4543 1.374 . S
C4545 C4542 1.499 . S
C4545 C4546 1.373 . S
C4545 C4547 1.389 . S
C4546 H4519 0.950 . S
C4546 C4532 1.377 . S
C4546 C4545 1.373 . S
C4547 C4531 1.377 . S
C4547 C4545 1.389 . S
C4547 C4548 1.524 . S
C4548 C4547 1.524 . S
C4548 C4549 1.397 . S
C4548 C4553 1.363 . S
C4549 H4520 0.950 . S
C4549 C4548 1.397 . S
C4549 C4550 1.334 . S
C4550 H4521 0.950 . S
C4550 C4549 1.334 . S
C4550 C4551 1.287 . S
C4551 C4550 1.287 . S
C4551 C4552 1.524 . S
C4551 H4554 0.999 . S
C4552 H4522 0.950 . S
C4552 C4551 1.524 . S
C4552 C4553 1.415 . S
C4553 H4523 0.950 . S
C4553 C4548 1.363 . S
C4553 C4552 1.415 . S
H4554 C4551 0.999 . S
H4555 C4536 0.913 . S
H4556 C4574 0.951 . S
H4557 C4576 0.951 . S
H4558 C4578 0.950 . S
H4559 C4579 0.950 . S
H4560 C4581 0.950 . S
H4561 C4584 0.950 . S
H4562 C4585 0.950 . S
H4563 C4587 0.950 . S
H4564 C4588 0.950 . S
H4565 C4589 0.951 . S
H4566 C4591 0.951 . S
H4567 C4593 0.950 . S
H4568 C4594 0.950 . S
H4569 C4596 0.950 . S
H4570 C4599 0.950 . S
H4571 C4600 0.950 . S
H4572 C4602 0.950 . S
H4573 C4603 0.950 . S
C4574 H4556 0.951 . S
C4574 C4575 1.366 . S
C4574 C4576 1.388 . S
C4575 C4574 1.366 . S
C4575 C4579 1.385 . S
C4576 H4557 0.951 . S
C4576 C4574 1.388 . S
C4576 C4577 1.366 . S
C4577 C4576 1.366 . S
C4577 C4578 1.414 . S
C4577 C4580 1.499 . S
C4578 H4558 0.950 . S
C4578 C4577 1.414 . S
C4578 C4579 1.374 . S
C4579 H4559 0.950 . S
C4579 C4575 1.385 . S
C4579 C4578 1.374 . S
C4580 C4577 1.499 . S
C4580 C4581 1.373 . S
C4580 C4582 1.389 . S
C4581 H4560 0.950 . S
C4581 C4580 1.373 . S
C4581 C4597 1.377 . S
C4582 C4580 1.389 . S
C4582 C4583 1.524 . S
C4582 C4596 1.377 . S
C4583 C4582 1.524 . S
C4583 C4584 1.397 . S
C4583 C4588 1.363 . S
C4584 H4561 0.950 . S
C4584 C4583 1.397 . S
C4584 C4585 1.334 . S
C4585 H4562 0.950 . S
C4585 C4584 1.334 . S
C4585 C4586 1.287 . S
C4586 C4585 1.287 . S
C4586 C4587 1.524 . S
C4586 H4605 0.913 . S
C4587 H4563 0.950 . S
C4587 C4586 1.524 . S
C4587 C4588 1.415 . S
C4588 H4564 0.950 . S
C4588 C4583 1.363 . S
C4588 C4587 1.415 . S
C4589 H4565 0.951 . S
C4589 C4590 1.366 . S
C4589 C4591 1.388 . S
C4590 C4589 1.366 . S
C4590 C4594 1.385 . S
C4591 H4566 0.951 . S
C4591 C4589 1.388 . S
C4591 C4592 1.366 . S
C4592 C4591 1.366 . S
C4592 C4593 1.414 . S
C4592 C4595 1.499 . S
C4593 H4567 0.950 . S
C4593 C4592 1.414 . S
C4593 C4594 1.374 . S
C4594 H4568 0.950 . S
C4594 C4590 1.385 . S
C4594 C4593 1.374 . S
C4595 C4592 1.499 . S
C4595 C4596 1.373 . S
C4595 C4597 1.389 . S
C4596 H4569 0.950 . S
C4596 C4582 1.377 . S
C4596 C4595 1.373 . S
C4597 C4581 1.377 . S
C4597 C4595 1.389 . S
C4597 C4598 1.524 . S
C4598 C4597 1.524 . S
C4598 C4599 1.397 . S
C4598 C4603 1.363 . S
C4599 H4570 0.950 . S
C4599 C4598 1.397 . S
C4599 C4600 1.334 . S
C4600 H4571 0.950 . S
C4600 C4599 1.334 . S
C4600 C4601 1.287 . S
C4601 C4600 1.287 . S
C4601 C4602 1.524 . S
C4601 H4604 0.999 . S
C4602 H4572 0.950 . S
C4602 C4601 1.524 . S
C4602 C4603 1.415 . S
C4603 H4573 0.950 . S
C4603 C4598 1.363 . S
C4603 C4602 1.415 . S
H4604 C4601 0.999 . S
H4605 C4586 0.913 . S
H4606 C4624 0.951 . S
H4607 C4626 0.951 . S
H4608 C4628 0.950 . S
H4609 C4629 0.950 . S
H4610 C4631 0.951 . S
H4611 C4634 0.950 . S
H4612 C4635 0.950 . S
H4613 C4637 0.950 . S
H4614 C4638 0.950 . S
H4615 C4639 0.951 . S
H4616 C4641 0.951 . S
H4617 C4643 0.950 . S
H4618 C4644 0.950 . S
H4619 C4646 0.951 . S
H4620 C4649 0.950 . S
H4621 C4650 0.950 . S
H4622 C4652 0.950 . S
H4623 C4653 0.950 . S
C4624 H4606 0.951 . S
C4624 C4625 1.366 . S
C4624 C4626 1.388 . S
C4625 C4624 1.366 . S
C4625 C4629 1.385 . S
C4626 H4607 0.951 . S
C4626 C4624 1.388 . S
C4626 C4627 1.366 . S
C4627 C4626 1.366 . S
C4627 C4628 1.414 . S
C4627 C4630 1.499 . S
C4628 H4608 0.950 . S
C4628 C4627 1.414 . S
C4628 C4629 1.374 . S
C4629 H4609 0.950 . S
C4629 C4625 1.385 . S
C4629 C4628 1.374 . S
C4630 C4627 1.499 . S
C4630 C4631 1.354 1_455 S
C4630 C4632 1.389 . S
C4631 H4610 0.951 . S
C4631 C4630 1.354 1_655 S
C4631 C4647 1.395 . S
C4632 C4630 1.389 . S
C4632 C4633 1.524 . S
C4632 C4646 1.395 . S
C4633 C4632 1.524 . S
C4633 C4634 1.397 . S
C4633 C4638 1.363 . S
C4634 H4611 0.950 . S
C4634 C4633 1.397 . S
C4634 C4635 1.334 . S
C4635 H4612 0.950 . S
C4635 C4634 1.334 . S
C4635 C4636 1.287 . S
C4636 C4635 1.287 . S
C4636 C4637 1.524 . S
C4636 H4655 0.913 . S
C4637 H4613 0.950 . S
C4637 C4636 1.524 . S
C4637 C4638 1.415 . S
C4638 H4614 0.950 . S
C4638 C4633 1.363 . S
C4638 C4637 1.415 . S
C4639 H4615 0.951 . S
C4639 C4640 1.366 . S
C4639 C4641 1.388 . S
C4640 C4639 1.366 . S
C4640 C4644 1.385 . S
C4641 H4616 0.951 . S
C4641 C4639 1.388 . S
C4641 C4642 1.366 . S
C4642 C4641 1.366 . S
C4642 C4643 1.414 . S
C4642 C4645 1.499 . S
C4643 H4617 0.950 . S
C4643 C4642 1.414 . S
C4643 C4644 1.374 . S
C4644 H4618 0.950 . S
C4644 C4640 1.385 . S
C4644 C4643 1.374 . S
C4645 C4642 1.499 . S
C4645 C4646 1.354 1_655 S
C4645 C4647 1.389 . S
C4646 H4619 0.951 . S
C4646 C4632 1.395 . S
C4646 C4645 1.354 1_455 S
C4647 C4631 1.395 . S
C4647 C4645 1.389 . S
C4647 C4648 1.524 . S
C4648 C4647 1.524 . S
C4648 C4649 1.397 . S
C4648 C4653 1.363 . S
C4649 H4620 0.950 . S
C4649 C4648 1.397 . S
C4649 C4650 1.334 . S
C4650 H4621 0.950 . S
C4650 C4649 1.334 . S
C4650 C4651 1.287 . S
C4651 C4650 1.287 . S
C4651 C4652 1.524 . S
C4651 H4654 0.999 . S
C4652 H4622 0.950 . S
C4652 C4651 1.524 . S
C4652 C4653 1.415 . S
C4653 H4623 0.950 . S
C4653 C4648 1.363 . S
C4653 C4652 1.415 . S
H4654 C4651 0.999 . S
H4655 C4636 0.913 . S
H4656 C4674 0.951 . S
H4657 C4676 0.951 . S
H4658 C4678 0.950 . S
H4659 C4679 0.950 . S
H4660 C4681 0.950 . S
H4661 C4684 0.950 1_655 S
H4662 C4685 0.950 . S
H4663 C4687 0.950 . S
H4664 C4688 0.950 . S
H4665 C4689 0.951 . S
H4666 C4691 0.951 . S
H4667 C4693 0.950 . S
H4668 C4694 0.950 . S
H4669 C4696 0.950 . S
H4670 C4699 0.950 1_455 S
H4671 C4700 0.950 . S
H4672 C4702 0.950 . S
H4673 C4703 0.950 . S
C4674 H4656 0.951 . S
C4674 C4675 1.366 . S
C4674 C4676 1.388 . S
C4675 C4674 1.366 . S
C4675 C4679 1.385 . S
C4676 H4657 0.951 . S
C4676 C4674 1.388 . S
C4676 C4677 1.366 . S
C4677 C4676 1.366 . S
C4677 C4678 1.414 . S
C4677 C4680 1.499 . S
C4678 H4658 0.950 . S
C4678 C4677 1.414 . S
C4678 C4679 1.374 . S
C4679 H4659 0.950 . S
C4679 C4675 1.385 . S
C4679 C4678 1.374 . S
C4680 C4677 1.499 . S
C4680 C4681 1.373 . S
C4680 C4682 1.389 1_655 S
C4681 H4660 0.950 . S
C4681 C4680 1.373 . S
C4681 C4697 1.377 . S
C4682 C4680 1.389 1_455 S
C4682 C4683 1.524 . S
C4682 C4696 1.377 . S
C4683 C4682 1.524 . S
C4683 C4684 1.397 . S
C4683 C4688 1.363 . S
C4684 H4661 0.950 1_455 S
C4684 C4683 1.397 . S
C4684 C4685 1.334 . S
C4685 H4662 0.950 . S
C4685 C4684 1.334 . S
C4685 C4686 1.287 . S
C4686 C4685 1.287 . S
C4686 C4687 1.524 . S
C4686 H4705 0.913 . S
C4687 H4663 0.950 . S
C4687 C4686 1.524 . S
C4687 C4688 1.415 . S
C4688 H4664 0.950 . S
C4688 C4683 1.363 . S
C4688 C4687 1.415 . S
C4689 H4665 0.951 . S
C4689 C4690 1.366 . S
C4689 C4691 1.388 . S
C4690 C4689 1.366 . S
C4690 C4694 1.385 . S
C4691 H4666 0.951 . S
C4691 C4689 1.388 . S
C4691 C4692 1.366 . S
C4692 C4691 1.366 . S
C4692 C4693 1.414 . S
C4692 C4695 1.499 . S
C4693 H4667 0.950 . S
C4693 C4692 1.414 . S
C4693 C4694 1.374 . S
C4694 H4668 0.950 . S
C4694 C4690 1.385 . S
C4694 C4693 1.374 . S
C4695 C4692 1.499 . S
C4695 C4696 1.373 . S
C4695 C4697 1.389 1_455 S
C4696 H4669 0.950 . S
C4696 C4682 1.377 . S
C4696 C4695 1.373 . S
C4697 C4681 1.377 . S
C4697 C4695 1.389 1_655 S
C4697 C4698 1.524 . S
C4698 C4697 1.524 . S
C4698 C4699 1.397 . S
C4698 C4703 1.363 . S
C4699 H4670 0.950 1_655 S
C4699 C4698 1.397 . S
C4699 C4700 1.334 . S
C4700 H4671 0.950 . S
C4700 C4699 1.334 . S
C4700 C4701 1.287 . S
C4701 C4700 1.287 . S
C4701 C4702 1.524 . S
C4701 H4704 0.999 . S
C4702 H4672 0.950 . S
C4702 C4701 1.524 . S
C4702 C4703 1.415 . S
C4703 H4673 0.950 . S
C4703 C4698 1.363 . S
C4703 C4702 1.415 . S
H4704 C4701 0.999 . S
H4705 C4686 0.913 . S
H4706 C4724 0.951 . S
H4707 C4726 0.951 . S
H4708 C4728 0.950 . S
H4709 C4729 0.950 . S
H4710 C4731 0.950 . S
H4711 C4734 0.950 . S
H4712 C4735 0.950 . S
H4713 C4737 0.950 . S
H4714 C4738 0.950 . S
H4715 C4739 0.951 . S
H4716 C4741 0.951 . S
H4717 C4743 0.950 . S
H4718 C4744 0.950 . S
H4719 C4746 0.950 . S
H4720 C4749 0.950 . S
H4721 C4750 0.950 . S
H4722 C4752 0.950 . S
H4723 C4753 0.950 . S
C4724 H4706 0.951 . S
C4724 C4725 1.366 . S
C4724 C4726 1.388 . S
C4725 C4724 1.366 . S
C4725 C4729 1.385 . S
C4726 H4707 0.951 . S
C4726 C4724 1.388 . S
C4726 C4727 1.366 . S
C4727 C4726 1.366 . S
C4727 C4728 1.414 . S
C4727 C4730 1.499 . S
C4728 H4708 0.950 . S
C4728 C4727 1.414 . S
C4728 C4729 1.374 . S
C4729 H4709 0.950 . S
C4729 C4725 1.385 . S
C4729 C4728 1.374 . S
C4730 C4727 1.499 . S
C4730 C4731 1.373 . S
C4730 C4732 1.389 . S
C4731 H4710 0.950 . S
C4731 C4730 1.373 . S
C4731 C4747 1.377 1_455 S
C4732 C4730 1.389 . S
C4732 C4733 1.524 . S
C4732 C4746 1.377 1_455 S
C4733 C4732 1.524 . S
C4733 C4734 1.397 . S
C4733 C4738 1.363 . S
C4734 H4711 0.950 . S
C4734 C4733 1.397 . S
C4734 C4735 1.334 . S
C4735 H4712 0.950 . S
C4735 C4734 1.334 . S
C4735 C4736 1.287 . S
C4736 C4735 1.287 . S
C4736 C4737 1.524 . S
C4736 H4755 0.913 . S
C4737 H4713 0.950 . S
C4737 C4736 1.524 . S
C4737 C4738 1.415 . S
C4738 H4714 0.950 . S
C4738 C4733 1.363 . S
C4738 C4737 1.415 . S
C4739 H4715 0.951 . S
C4739 C4740 1.366 . S
C4739 C4741 1.388 . S
C4740 C4739 1.366 . S
C4740 C4744 1.385 . S
C4741 H4716 0.951 . S
C4741 C4739 1.388 . S
C4741 C4742 1.366 . S
C4742 C4741 1.366 . S
C4742 C4743 1.414 . S
C4742 C4745 1.499 . S
C4743 H4717 0.950 . S
C4743 C4742 1.414 . S
C4743 C4744 1.374 . S
C4744 H4718 0.950 . S
C4744 C4740 1.385 . S
C4744 C4743 1.374 . S
C4745 C4742 1.499 . S
C4745 C4746 1.373 . S
C4745 C4747 1.389 . S
C4746 H4719 0.950 . S
C4746 C4732 1.377 1_655 S
C4746 C4745 1.373 . S
C4747 C4731 1.377 1_655 S
C4747 C4745 1.389 . S
C4747 C4748 1.524 . S
C4748 C4747 1.524 . S
C4748 C4749 1.397 . S
C4748 C4753 1.363 . S
C4749 H4720 0.950 . S
C4749 C4748 1.397 . S
C4749 C4750 1.334 . S
C4750 H4721 0.950 . S
C4750 C4749 1.334 . S
C4750 C4751 1.287 . S
C4751 C4750 1.287 . S
C4751 C4752 1.524 . S
C4751 H4754 0.999 . S
C4752 H4722 0.950 . S
C4752 C4751 1.524 . S
C4752 C4753 1.415 . S
C4753 H4723 0.950 . S
C4753 C4748 1.363 . S
C4753 C4752 1.415 . S
H4754 C4751 0.999 . S
H4755 C4736 0.913 . S
H4756 C4774 0.951 . S
H4757 C4776 0.951 . S
H4758 C4778 0.950 . S
H4759 C4779 0.950 . S
H4760 C4781 0.950 . S
H4761 C4784 0.950 . S
H4762 C4785 0.950 . S
H4763 C4787 0.950 . S
H4764 C4788 0.950 . S
H4765 C4789 0.951 . S
H4766 C4791 0.951 . S
H4767 C4793 0.950 . S
H4768 C4794 0.950 . S
H4769 C4796 0.950 . S
H4770 C4799 0.950 . S
H4771 C4800 0.950 . S
H4772 C4802 0.950 . S
H4773 C4803 0.950 . S
C4774 H4756 0.951 . S
C4774 C4775 1.366 . S
C4774 C4776 1.388 . S
C4775 C4774 1.366 . S
C4775 C4779 1.385 . S
C4776 H4757 0.951 . S
C4776 C4774 1.388 . S
C4776 C4777 1.366 . S
C4777 C4776 1.366 . S
C4777 C4778 1.414 . S
C4777 C4780 1.499 . S
C4778 H4758 0.950 . S
C4778 C4777 1.414 . S
C4778 C4779 1.374 . S
C4779 H4759 0.950 . S
C4779 C4775 1.385 . S
C4779 C4778 1.374 . S
C4780 C4777 1.499 . S
C4780 C4781 1.373 . S
C4780 C4782 1.389 . S
C4781 H4760 0.950 . S
C4781 C4780 1.373 . S
C4781 C4797 1.377 . S
C4782 C4780 1.389 . S
C4782 C4783 1.524 . S
C4782 C4796 1.377 . S
C4783 C4782 1.524 . S
C4783 C4784 1.397 . S
C4783 C4788 1.363 . S
C4784 H4761 0.950 . S
C4784 C4783 1.397 . S
C4784 C4785 1.334 . S
C4785 H4762 0.950 . S
C4785 C4784 1.334 . S
C4785 C4786 1.287 . S
C4786 C4785 1.287 . S
C4786 C4787 1.524 . S
C4786 H4805 0.913 . S
C4787 H4763 0.950 . S
C4787 C4786 1.524 . S
C4787 C4788 1.415 . S
C4788 H4764 0.950 . S
C4788 C4783 1.363 . S
C4788 C4787 1.415 . S
C4789 H4765 0.951 . S
C4789 C4790 1.366 . S
C4789 C4791 1.388 . S
C4790 C4789 1.366 . S
C4790 C4794 1.385 . S
C4791 H4766 0.951 . S
C4791 C4789 1.388 . S
C4791 C4792 1.366 . S
C4792 C4791 1.366 . S
C4792 C4793 1.414 . S
C4792 C4795 1.499 . S
C4793 H4767 0.950 . S
C4793 C4792 1.414 . S
C4793 C4794 1.374 . S
C4794 H4768 0.950 . S
C4794 C4790 1.385 . S
C4794 C4793 1.374 . S
C4795 C4792 1.499 . S
C4795 C4796 1.373 . S
C4795 C4797 1.389 . S
C4796 H4769 0.950 . S
C4796 C4782 1.377 . S
C4796 C4795 1.373 . S
C4797 C4781 1.377 . S
C4797 C4795 1.389 . S
C4797 C4798 1.524 . S
C4798 C4797 1.524 . S
C4798 C4799 1.397 . S
C4798 C4803 1.363 . S
C4799 H4770 0.950 . S
C4799 C4798 1.397 . S
C4799 C4800 1.334 . S
C4800 H4771 0.950 . S
C4800 C4799 1.334 . S
C4800 C4801 1.287 . S
C4801 C4800 1.287 . S
C4801 C4802 1.524 . S
C4801 H4804 0.999 . S
C4802 H4772 0.950 . S
C4802 C4801 1.524 . S
C4802 C4803 1.415 . S
C4803 H4773 0.950 . S
C4803 C4798 1.363 . S
C4803 C4802 1.415 . S
H4804 C4801 0.999 . S
H4805 C4786 0.913 . S
H4806 C4824 0.951 . S
H4807 C4826 0.951 . S
H4808 C4828 0.950 . S
H4809 C4829 0.950 . S
H4810 C4831 0.950 . S
H4811 C4834 0.950 . S
H4812 C4835 0.950 . S
H4813 C4837 0.950 . S
H4814 C4838 0.950 . S
H4815 C4839 0.951 . S
H4816 C4841 0.951 . S
H4817 C4843 0.950 . S
H4818 C4844 0.950 . S
H4819 C4846 0.950 . S
H4820 C4849 0.950 . S
H4821 C4850 0.950 . S
H4822 C4852 0.950 . S
H4823 C4853 0.950 . S
C4824 H4806 0.951 . S
C4824 C4825 1.366 . S
C4824 C4826 1.388 . S
C4825 C4824 1.366 . S
C4825 C4829 1.385 . S
C4826 H4807 0.951 . S
C4826 C4824 1.388 . S
C4826 C4827 1.366 . S
C4827 C4826 1.366 . S
C4827 C4828 1.414 . S
C4827 C4830 1.499 . S
C4828 H4808 0.950 . S
C4828 C4827 1.414 . S
C4828 C4829 1.374 . S
C4829 H4809 0.950 . S
C4829 C4825 1.385 . S
C4829 C4828 1.374 . S
C4830 C4827 1.499 . S
C4830 C4831 1.373 . S
C4830 C4832 1.389 . S
C4831 H4810 0.950 . S
C4831 C4830 1.373 . S
C4831 C4847 1.377 . S
C4832 C4830 1.389 . S
C4832 C4833 1.524 . S
C4832 C4846 1.377 . S
C4833 C4832 1.524 . S
C4833 C4834 1.397 . S
C4833 C4838 1.363 . S
C4834 H4811 0.950 . S
C4834 C4833 1.397 . S
C4834 C4835 1.334 . S
C4835 H4812 0.950 . S
C4835 C4834 1.334 . S
C4835 C4836 1.287 . S
C4836 C4835 1.287 . S
C4836 C4837 1.524 . S
C4836 H4855 0.891 1_556 S
C4837 H4813 0.950 . S
C4837 C4836 1.524 . S
C4837 C4838 1.415 . S
C4838 H4814 0.950 . S
C4838 C4833 1.363 . S
C4838 C4837 1.415 . S
C4839 H4815 0.951 . S
C4839 C4840 1.366 . S
C4839 C4841 1.388 . S
C4840 C4839 1.366 . S
C4840 C4844 1.385 . S
C4841 H4816 0.951 . S
C4841 C4839 1.388 . S
C4841 C4842 1.366 . S
C4842 C4841 1.366 . S
C4842 C4843 1.414 . S
C4842 C4845 1.499 . S
C4843 H4817 0.950 . S
C4843 C4842 1.414 . S
C4843 C4844 1.374 . S
C4844 H4818 0.950 . S
C4844 C4840 1.385 . S
C4844 C4843 1.374 . S
C4845 C4842 1.499 . S
C4845 C4846 1.373 . S
C4845 C4847 1.389 . S
C4846 H4819 0.950 . S
C4846 C4832 1.377 . S
C4846 C4845 1.373 . S
C4847 C4831 1.377 . S
C4847 C4845 1.389 . S
C4847 C4848 1.524 . S
C4848 C4847 1.524 . S
C4848 C4849 1.397 . S
C4848 C4853 1.363 . S
C4849 H4820 0.950 . S
C4849 C4848 1.397 . S
C4849 C4850 1.334 . S
C4850 H4821 0.950 . S
C4850 C4849 1.334 . S
C4850 C4851 1.287 . S
C4851 C4850 1.287 . S
C4851 C4852 1.524 . S
C4851 H4854 0.999 . S
C4852 H4822 0.950 . S
C4852 C4851 1.524 . S
C4852 C4853 1.415 . S
C4853 H4823 0.950 . S
C4853 C4848 1.363 . S
C4853 C4852 1.415 . S
H4854 C4851 0.999 . S
H4855 C4836 0.891 1_554 S
H4856 C4874 0.951 . S
H4857 C4876 0.951 . S
H4858 C4878 0.950 . S
H4859 C4879 0.950 . S
H4860 C4881 0.950 . S
H4861 C4884 0.950 . S
H4862 C4885 0.950 . S
H4863 C4887 0.950 . S
H4864 C4888 0.950 . S
H4865 C4889 0.951 . S
H4866 C4891 0.951 . S
H4867 C4893 0.950 . S
H4868 C4894 0.950 . S
H4869 C4896 0.950 . S
H4870 C4899 0.950 . S
H4871 C4900 0.950 . S
H4872 C4902 0.950 . S
H4873 C4903 0.950 . S
C4874 H4856 0.951 . S
C4874 C4875 1.366 . S
C4874 C4876 1.388 . S
C4875 C4874 1.366 . S
C4875 C4879 1.385 . S
C4876 H4857 0.951 . S
C4876 C4874 1.388 . S
C4876 C4877 1.366 . S
C4877 C4876 1.366 . S
C4877 C4878 1.414 . S
C4877 C4880 1.499 . S
C4878 H4858 0.950 . S
C4878 C4877 1.414 . S
C4878 C4879 1.374 . S
C4879 H4859 0.950 . S
C4879 C4875 1.385 . S
C4879 C4878 1.374 . S
C4880 C4877 1.499 . S
C4880 C4881 1.373 1_655 S
C4880 C4882 1.389 . S
C4881 H4860 0.950 . S
C4881 C4880 1.373 1_455 S
C4881 C4897 1.377 . S
C4882 C4880 1.389 . S
C4882 C4883 1.524 . S
C4882 C4896 1.377 . S
C4883 C4882 1.524 . S
C4883 C4884 1.397 . S
C4883 C4888 1.363 . S
C4884 H4861 0.950 . S
C4884 C4883 1.397 . S
C4884 C4885 1.334 . S
C4885 H4862 0.950 . S
C4885 C4884 1.334 . S
C4885 C4886 1.287 . S
C4886 C4885 1.287 . S
C4886 C4887 1.524 . S
C4886 H4905 0.913 . S
C4887 H4863 0.950 . S
C4887 C4886 1.524 . S
C4887 C4888 1.415 . S
C4888 H4864 0.950 . S
C4888 C4883 1.363 . S
C4888 C4887 1.415 . S
C4889 H4865 0.951 . S
C4889 C4890 1.366 . S
C4889 C4891 1.388 . S
C4890 C4889 1.366 . S
C4890 C4894 1.385 . S
C4891 H4866 0.951 . S
C4891 C4889 1.388 . S
C4891 C4892 1.366 . S
C4892 C4891 1.366 . S
C4892 C4893 1.414 . S
C4892 C4895 1.499 . S
C4893 H4867 0.950 . S
C4893 C4892 1.414 . S
C4893 C4894 1.374 . S
C4894 H4868 0.950 . S
C4894 C4890 1.385 . S
C4894 C4893 1.374 . S
C4895 C4892 1.499 . S
C4895 C4896 1.373 1_455 S
C4895 C4897 1.389 . S
C4896 H4869 0.950 . S
C4896 C4882 1.377 . S
C4896 C4895 1.373 1_655 S
C4897 C4881 1.377 . S
C4897 C4895 1.389 . S
C4897 C4898 1.524 . S
C4898 C4897 1.524 . S
C4898 C4899 1.397 . S
C4898 C4903 1.363 . S
C4899 H4870 0.950 . S
C4899 C4898 1.397 . S
C4899 C4900 1.334 . S
C4900 H4871 0.950 . S
C4900 C4899 1.334 . S
C4900 C4901 1.287 . S
C4901 C4900 1.287 . S
C4901 C4902 1.524 . S
C4901 H4904 0.999 . S
C4902 H4872 0.950 . S
C4902 C4901 1.524 . S
C4902 C4903 1.415 . S
C4903 H4873 0.950 . S
C4903 C4898 1.363 . S
C4903 C4902 1.415 . S
H4904 C4901 0.999 . S
H4905 C4886 0.913 . S
H4906 C4924 0.951 . S
H4907 C4926 0.951 . S
H4908 C4928 0.950 . S
H4909 C4929 0.950 . S
H4910 C4931 0.950 . S
H4911 C4934 0.950 . S
H4912 C4935 0.950 . S
H4913 C4937 0.950 . S
H4914 C4938 0.950 . S
H4915 C4939 0.951 . S
H4916 C4941 0.951 . S
H4917 C4943 0.950 . S
H4918 C4944 0.950 . S
H4919 C4946 0.950 . S
H4920 C4949 0.950 . S
H4921 C4950 0.950 . S
H4922 C4952 0.950 . S
H4923 C4953 0.950 . S
C4924 H4906 0.951 . S
C4924 C4925 1.366 . S
C4924 C4926 1.388 . S
C4925 C4924 1.366 . S
C4925 C4929 1.385 . S
C4926 H4907 0.951 . S
C4926 C4924 1.388 . S
C4926 C4927 1.366 . S
C4927 C4926 1.366 . S
C4927 C4928 1.414 . S
C4927 C4930 1.499 . S
C4928 H4908 0.950 . S
C4928 C4927 1.414 . S
C4928 C4929 1.374 . S
C4929 H4909 0.950 . S
C4929 C4925 1.385 . S
C4929 C4928 1.374 . S
C4930 C4927 1.499 . S
C4930 C4931 1.373 . S
C4930 C4932 1.389 . S
C4931 H4910 0.950 . S
C4931 C4930 1.373 . S
C4931 C4947 1.377 . S
C4932 C4930 1.389 . S
C4932 C4933 1.524 . S
C4932 C4946 1.377 . S
C4933 C4932 1.524 . S
C4933 C4934 1.397 . S
C4933 C4938 1.363 . S
C4934 H4911 0.950 . S
C4934 C4933 1.397 . S
C4934 C4935 1.334 . S
C4935 H4912 0.950 . S
C4935 C4934 1.334 . S
C4935 C4936 1.287 . S
C4936 C4935 1.287 . S
C4936 C4937 1.524 . S
C4936 H4955 0.913 . S
C4937 H4913 0.950 . S
C4937 C4936 1.524 . S
C4937 C4938 1.415 . S
C4938 H4914 0.950 . S
C4938 C4933 1.363 . S
C4938 C4937 1.415 . S
C4939 H4915 0.951 . S
C4939 C4940 1.366 . S
C4939 C4941 1.388 . S
C4940 C4939 1.366 . S
C4940 C4944 1.385 . S
C4941 H4916 0.951 . S
C4941 C4939 1.388 . S
C4941 C4942 1.366 . S
C4942 C4941 1.366 . S
C4942 C4943 1.414 . S
C4942 C4945 1.499 . S
C4943 H4917 0.950 . S
C4943 C4942 1.414 . S
C4943 C4944 1.374 . S
C4944 H4918 0.950 . S
C4944 C4940 1.385 . S
C4944 C4943 1.374 . S
C4945 C4942 1.499 . S
C4945 C4946 1.373 . S
C4945 C4947 1.389 . S
C4946 H4919 0.950 . S
C4946 C4932 1.377 . S
C4946 C4945 1.373 . S
C4947 C4931 1.377 . S
C4947 C4945 1.389 . S
C4947 C4948 1.524 . S
C4948 C4947 1.524 . S
C4948 C4949 1.397 . S
C4948 C4953 1.363 . S
C4949 H4920 0.950 . S
C4949 C4948 1.397 . S
C4949 C4950 1.334 . S
C4950 H4921 0.950 . S
C4950 C4949 1.334 . S
C4950 C4951 1.287 . S
C4951 C4950 1.287 . S
C4951 C4952 1.524 . S
C4951 H4954 0.999 . S
C4952 H4922 0.950 . S
C4952 C4951 1.524 . S
C4952 C4953 1.415 . S
C4953 H4923 0.950 . S
C4953 C4948 1.363 . S
C4953 C4952 1.415 . S
H4954 C4951 0.999 . S
H4955 C4936 0.913 . S
H4956 C4974 0.951 . S
H4957 C4976 0.951 . S
H4958 C4978 0.950 . S
H4959 C4979 0.950 . S
H4960 C4981 0.950 . S
H4961 C4984 0.950 . S
H4962 C4985 0.950 . S
H4963 C4987 0.950 . S
H4964 C4988 0.950 . S
H4965 C4989 0.951 . S
H4966 C4991 0.951 . S
H4967 C4993 0.950 . S
H4968 C4994 0.950 . S
H4969 C4996 0.950 . S
H4970 C4999 0.950 . S
H4971 C5000 0.950 . S
H4972 C5002 0.950 . S
H4973 C5003 0.950 . S
C4974 H4956 0.951 . S
C4974 C4975 1.366 . S
C4974 C4976 1.388 . S
C4975 C4974 1.366 . S
C4975 C4979 1.385 . S
C4976 H4957 0.951 . S
C4976 C4974 1.388 . S
C4976 C4977 1.366 . S
C4977 C4976 1.366 . S
C4977 C4978 1.414 . S
C4977 C4980 1.499 . S
C4978 H4958 0.950 . S
C4978 C4977 1.414 . S
C4978 C4979 1.374 . S
C4979 H4959 0.950 . S
C4979 C4975 1.385 . S
C4979 C4978 1.374 . S
C4980 C4977 1.499 . S
C4980 C4981 1.373 . S
C4980 C4982 1.389 . S
C4981 H4960 0.950 . S
C4981 C4980 1.373 . S
C4981 C4997 1.377 . S
C4982 C4980 1.389 . S
C4982 C4983 1.524 . S
C4982 C4996 1.377 . S
C4983 C4982 1.524 . S
C4983 C4984 1.397 . S
C4983 C4988 1.363 . S
C4984 H4961 0.950 . S
C4984 C4983 1.397 . S
C4984 C4985 1.334 . S
C4985 H4962 0.950 . S
C4985 C4984 1.334 . S
C4985 C4986 1.287 . S
C4986 C4985 1.287 . S
C4986 C4987 1.524 . S
C4986 H5005 0.913 . S
C4987 H4963 0.950 . S
C4987 C4986 1.524 . S
C4987 C4988 1.415 . S
C4988 H4964 0.950 . S
C4988 C4983 1.363 . S
C4988 C4987 1.415 . S
C4989 H4965 0.951 . S
C4989 C4990 1.366 . S
C4989 C4991 1.388 . S
C4990 C4989 1.366 . S
C4990 C4994 1.385 . S
C4991 H4966 0.951 . S
C4991 C4989 1.388 . S
C4991 C4992 1.366 . S
C4992 C4991 1.366 . S
C4992 C4993 1.414 . S
C4992 C4995 1.499 . S
C4993 H4967 0.950 . S
C4993 C4992 1.414 . S
C4993 C4994 1.374 . S
C4994 H4968 0.950 . S
C4994 C4990 1.385 . S
C4994 C4993 1.374 . S
C4995 C4992 1.499 . S
C4995 C4996 1.373 . S
C4995 C4997 1.389 . S
C4996 H4969 0.950 . S
C4996 C4982 1.377 . S
C4996 C4995 1.373 . S
C4997 C4981 1.377 . S
C4997 C4995 1.389 . S
C4997 C4998 1.524 . S
C4998 C4997 1.524 . S
C4998 C4999 1.397 . S
C4998 C5003 1.363 . S
C4999 H4970 0.950 . S
C4999 C4998 1.397 . S
C4999 C5000 1.334 . S
C5000 H4971 0.950 . S
C5000 C4999 1.334 . S
C5000 C5001 1.287 . S
C5001 C5000 1.287 . S
C5001 C5002 1.524 . S
C5001 H5004 0.999 . S
C5002 H4972 0.950 . S
C5002 C5001 1.524 . S
C5002 C5003 1.415 . S
C5003 H4973 0.950 . S
C5003 C4998 1.363 . S
C5003 C5002 1.415 . S
H5004 C5001 0.999 . S
H5005 C4986 0.913 . S
H5006 C5024 0.951 . S
H5007 C5026 0.951 . S
H5008 C5028 0.950 . S
H5009 C5029 0.950 . S
H5010 C5031 0.950 . S
H5011 C5034 0.950 . S
H5012 C5035 0.950 . S
H5013 C5037 0.950 . S
H5014 C5038 0.950 . S
H5015 C5039 0.951 . S
H5016 C5041 0.951 . S
H5017 C5043 0.950 . S
H5018 C5044 0.950 . S
H5019 C5046 0.950 . S
H5020 C5049 0.950 . S
H5021 C5050 0.950 . S
H5022 C5052 0.950 1_556 S
H5023 C5053 0.950 . S
C5024 H5006 0.951 . S
C5024 C5025 1.366 . S
C5024 C5026 1.388 . S
C5025 C5024 1.366 . S
C5025 C5029 1.385 . S
C5026 H5007 0.951 . S
C5026 C5024 1.388 . S
C5026 C5027 1.366 . S
C5027 C5026 1.366 . S
C5027 C5028 1.414 . S
C5027 C5030 1.499 . S
C5028 H5008 0.950 . S
C5028 C5027 1.414 . S
C5028 C5029 1.374 . S
C5029 H5009 0.950 . S
C5029 C5025 1.385 . S
C5029 C5028 1.374 . S
C5030 C5027 1.499 . S
C5030 C5031 1.373 . S
C5030 C5032 1.389 . S
C5031 H5010 0.950 . S
C5031 C5030 1.373 . S
C5031 C5047 1.377 1_655 S
C5032 C5030 1.389 . S
C5032 C5033 1.524 . S
C5032 C5046 1.377 1_655 S
C5033 C5032 1.524 . S
C5033 C5034 1.397 . S
C5033 C5038 1.363 . S
C5034 H5011 0.950 . S
C5034 C5033 1.397 . S
C5034 C5035 1.334 . S
C5035 H5012 0.950 . S
C5035 C5034 1.334 . S
C5035 C5036 1.287 . S
C5036 C5035 1.287 . S
C5036 C5037 1.524 . S
C5036 H5055 0.913 . S
C5037 H5013 0.950 . S
C5037 C5036 1.524 . S
C5037 C5038 1.415 . S
C5038 H5014 0.950 . S
C5038 C5033 1.363 . S
C5038 C5037 1.415 . S
C5039 H5015 0.951 . S
C5039 C5040 1.366 . S
C5039 C5041 1.388 . S
C5040 C5039 1.366 . S
C5040 C5044 1.385 . S
C5041 H5016 0.951 . S
C5041 C5039 1.388 . S
C5041 C5042 1.366 . S
C5042 C5041 1.366 . S
C5042 C5043 1.414 . S
C5042 C5045 1.499 . S
C5043 H5017 0.950 . S
C5043 C5042 1.414 . S
C5043 C5044 1.374 . S
C5044 H5018 0.950 . S
C5044 C5040 1.385 . S
C5044 C5043 1.374 . S
C5045 C5042 1.499 . S
C5045 C5046 1.373 . S
C5045 C5047 1.389 . S
C5046 H5019 0.950 . S
C5046 C5032 1.377 1_455 S
C5046 C5045 1.373 . S
C5047 C5031 1.377 1_455 S
C5047 C5045 1.389 . S
C5047 C5048 1.524 . S
C5048 C5047 1.524 . S
C5048 C5049 1.397 . S
C5048 C5053 1.363 . S
C5049 H5020 0.950 . S
C5049 C5048 1.397 . S
C5049 C5050 1.334 . S
C5050 H5021 0.950 . S
C5050 C5049 1.334 . S
C5050 C5051 1.287 . S
C5051 C5050 1.287 . S
C5051 C5052 1.524 . S
C5051 H5054 0.999 . S
C5052 H5022 0.950 1_554 S
C5052 C5051 1.524 . S
C5052 C5053 1.415 . S
C5053 H5023 0.950 . S
C5053 C5048 1.363 . S
C5053 C5052 1.415 . S
H5054 C5051 0.999 . S
H5055 C5036 0.913 . S
C1075 C912 0.326 . S
C1090 C7 0.430 . S
C1125 C285 0.326 . S
C1140 C40 0.430 . S
C1175 C846 0.326 . S
C1190 C73 0.430 . S
C1225 C106 0.427 . S
C1240 C351 0.330 . S
C1275 C978 0.327 . S
C1290 C139 0.430 . S
C1325 C483 0.330 . S
C1340 C172 0.426 . S
C1375 C205 0.427 . S
C1390 C1044 0.330 . S
C1425 C238 0.430 . S
C1440 C417 0.326 . S
C1475 C648 0.328 . S
C1490 C271 0.428 . S
C1525 C21 0.326 . S
C1540 C304 0.430 . S
C1575 C337 0.430 . S
C1590 C582 0.326 . S
C1625 C370 0.428 . S
C1640 C87 0.328 . S
C1675 C403 0.430 . S
C1690 C714 0.326 . S
C1725 C436 0.426 . S
C1740 C219 0.330 . S
C1775 C780 0.330 . S
C1790 C469 0.426 . S
C1825 C153 0.330 . S
C1840 C502 0.426 . S
C1875 C384 0.328 . S
C1890 C535 0.427 . S
C1925 C568 0.428 . S
C1940 C813 0.328 . S
C1975 C318 0.330 . S
C1990 C601 0.426 . S
C2025 C634 0.429 . S
C2040 C879 0.328 . S
C2075 C450 0.329 . S
C2090 C667 0.428 . S
C2125 C1011 0.326 . S
C2140 C700 0.430 . S
C2175 C516 0.327 . S
C2190 C733 0.429 . S
C2225 C766 0.426 . S
C2240 C945 0.330 . S
C2275 C799 0.429 . S
C2290 C120 0.327 . S
C2325 C549 0.330 . S
C2340 C832 0.426 . S
C2375 C54 0.328 . S
C2390 C865 0.428 . S
C2425 C898 0.430 . S
C2440 C615 0.326 . S
C2475 C931 0.429 . S
C2490 C186 0.326 . S
C2525 C964 0.430 . S
C2540 C747 0.326 . S
C2575 C252 0.327 . S
C2590 C997 0.430 . S
C2625 C1030 0.428 . S
C2640 C681 0.329 . S
C2675 N13 1.573 . S
C2690 N178 1.573 . S
C2725 N211 1.574 . S
C2740 N46 1.574 . S
C2775 N244 1.574 . S
C2790 N79 1.573 . S
C2825 N112 1.574 . S
C2840 N145 1.574 . S
C2875 N277 1.574 . S
C2890 N442 1.573 . S
C2925 N310 1.574 . S
C2940 N475 1.574 . S
C2975 N343 1.573 . S
C2990 N508 1.573 . S
C3025 N376 1.573 . S
C3040 N409 1.573 . S
C3075 N706 1.574 . S
C3090 N541 1.573 . S
C3125 N574 1.574 . S
C3140 N739 1.573 . S
C3175 N607 1.573 . S
C3190 N772 1.574 . S
C3225 N673 1.573 . S
C3240 N640 1.574 . S
C3275 N970 1.574 . S
C3290 N805 1.574 . S
C3325 N1003 1.573 . S
C3340 N838 1.574 . S
C3375 N1036 1.573 . S
C3390 N871 1.573 . S
C3425 N937 1.573 . S
C3440 N904 1.574 . S
C3475 C18 1.102 . S
C3490 C150 1.102 . S
C3525 C51 1.102 . S
C3540 C183 1.102 . S
C3575 C216 1.102 . S
C3590 C84 1.101 . S
C3625 C249 1.102 . S
C3640 C117 1.102 . S
C3675 C282 1.102 . S
C3690 C414 1.102 . S
C3725 C447 1.102 . S
C3740 C315 1.102 . S
C3775 C348 1.102 . S
C3790 C480 1.102 . S
C3825 C513 1.102 . S
C3840 C381 1.102 . S
C3875 C546 1.102 . S
C3890 C678 1.101 . S
C3925 C579 1.102 . S
C3940 C711 1.102 . S
C3975 C612 1.102 . S
C3990 C744 1.101 . S
C4025 C645 1.102 . S
C4040 C777 1.102 . S
C4075 C942 1.102 . S
C4090 C810 1.101 . S
C4125 C843 1.102 . S
C4140 C975 1.102 . S
C4175 C876 1.102 . S
C4190 C1008 1.101 . S
C4225 C909 1.102 . S
C4240 C1041 1.102 . S
C4275 N2 1.051 . S
C4290 N596 1.051 . S
C4325 N629 1.051 . S
C4340 N35 1.051 . S
C4375 N68 1.051 . S
C4390 N530 1.051 . S
C4425 N101 1.051 . S
C4440 N563 1.051 . S
C4475 N728 1.050 . S
C4490 N134 1.050 . S
C4525 N761 1.051 . S
C4540 N167 1.051 . S
C4575 N200 1.051 . S
C4590 N662 1.051 . S
C4625 N233 1.051 . S
C4640 N695 1.051 . S
C4675 N266 1.051 . S
C4690 N860 1.051 . S
C4725 N893 1.051 . S
C4740 N299 1.051 . S
C4775 N794 1.051 . S
C4790 N332 1.051 . S
C4825 N365 1.051 . S
C4840 N827 1.051 . S
C4875 N398 1.051 . S
C4890 N992 1.051 . S
C4925 N431 1.050 . S
C4940 N1025 1.050 . S
C4975 N464 1.051 . S
C4990 N926 1.051 . S
C5025 N497 1.051 . S
C5040 N959 1.051 . S
