# Generated by pormake.
# Topology ung, (4)-cn, num edge types: 1
# Building blocks:
#     Node 0, Type 0, BuildingBlock: MUDLON_clean_sbu_0, # of connection points: 4
#     Node 1, Type 0, BuildingBlock: MUDLON_clean_sbu_0, # of connection points: 4
#     Node 2, Type 0, BuildingBlock: MUDLON_clean_sbu_0, # of connection points: 4
#     Node 3, Type 0, BuildingBlock: MUDLON_clean_sbu_0, # of connection points: 4
#     Node 4, Type 0, BuildingBlock: MUDLON_clean_sbu_0, # of connection points: 4
#     Node 5, Type 0, BuildingBlock: MUDLON_clean_sbu_0, # of connection points: 4
#     Node 6, Type 0, BuildingBlock: MUDLON_clean_sbu_0, # of connection points: 4
#     Node 7, Type 0, BuildingBlock: MUDLON_clean_sbu_0, # of connection points: 4
#     Node 8, Type 0, BuildingBlock: MUDLON_clean_sbu_0, # of connection points: 4
#     Node 9, Type 0, BuildingBlock: MUDLON_clean_sbu_0, # of connection points: 4
#     Node 10, Type 0, BuildingBlock: MUDLON_clean_sbu_0, # of connection points: 4
#     Node 11, Type 0, BuildingBlock: MUDLON_clean_sbu_0, # of connection points: 4
#     Node 12, Type 0, BuildingBlock: MUDLON_clean_sbu_0, # of connection points: 4
#     Node 13, Type 0, BuildingBlock: MUDLON_clean_sbu_0, # of connection points: 4
#     Node 14, Type 0, BuildingBlock: MUDLON_clean_sbu_0, # of connection points: 4
#     Node 15, Type 0, BuildingBlock: MUDLON_clean_sbu_0, # of connection points: 4
#     Node 16, Type 0, BuildingBlock: MUDLON_clean_sbu_0, # of connection points: 4
#     Node 17, Type 0, BuildingBlock: MUDLON_clean_sbu_0, # of connection points: 4
#     Edge 18, Type (0, 0), BuildingBlock: XIVTED_clean_linker_0, # of connection points: 2
#     Edge 19, Type (0, 0), BuildingBlock: XIVTED_clean_linker_0, # of connection points: 2
#     Edge 20, Type (0, 0), BuildingBlock: XIVTED_clean_linker_0, # of connection points: 2
#     Edge 21, Type (0, 0), BuildingBlock: XIVTED_clean_linker_0, # of connection points: 2
#     Edge 22, Type (0, 0), BuildingBlock: XIVTED_clean_linker_0, # of connection points: 2
#     Edge 23, Type (0, 0), BuildingBlock: XIVTED_clean_linker_0, # of connection points: 2
#     Edge 24, Type (0, 0), BuildingBlock: XIVTED_clean_linker_0, # of connection points: 2
#     Edge 25, Type (0, 0), BuildingBlock: XIVTED_clean_linker_0, # of connection points: 2
#     Edge 26, Type (0, 0), BuildingBlock: XIVTED_clean_linker_0, # of connection points: 2
#     Edge 27, Type (0, 0), BuildingBlock: XIVTED_clean_linker_0, # of connection points: 2
#     Edge 28, Type (0, 0), BuildingBlock: XIVTED_clean_linker_0, # of connection points: 2
#     Edge 29, Type (0, 0), BuildingBlock: XIVTED_clean_linker_0, # of connection points: 2
#     Edge 30, Type (0, 0), BuildingBlock: XIVTED_clean_linker_0, # of connection points: 2
#     Edge 31, Type (0, 0), BuildingBlock: XIVTED_clean_linker_0, # of connection points: 2
#     Edge 32, Type (0, 0), BuildingBlock: XIVTED_clean_linker_0, # of connection points: 2
#     Edge 33, Type (0, 0), BuildingBlock: XIVTED_clean_linker_0, # of connection points: 2
#     Edge 34, Type (0, 0), BuildingBlock: XIVTED_clean_linker_0, # of connection points: 2
#     Edge 35, Type (0, 0), BuildingBlock: XIVTED_clean_linker_0, # of connection points: 2
#     Edge 36, Type (0, 0), BuildingBlock: XIVTED_clean_linker_0, # of connection points: 2
#     Edge 37, Type (0, 0), BuildingBlock: XIVTED_clean_linker_0, # of connection points: 2
#     Edge 38, Type (0, 0), BuildingBlock: XIVTED_clean_linker_0, # of connection points: 2
#     Edge 39, Type (0, 0), BuildingBlock: XIVTED_clean_linker_0, # of connection points: 2
#     Edge 40, Type (0, 0), BuildingBlock: XIVTED_clean_linker_0, # of connection points: 2
#     Edge 41, Type (0, 0), BuildingBlock: XIVTED_clean_linker_0, # of connection points: 2
#     Edge 42, Type (0, 0), BuildingBlock: XIVTED_clean_linker_0, # of connection points: 2
#     Edge 43, Type (0, 0), BuildingBlock: XIVTED_clean_linker_0, # of connection points: 2
#     Edge 44, Type (0, 0), BuildingBlock: XIVTED_clean_linker_0, # of connection points: 2
#     Edge 45, Type (0, 0), BuildingBlock: XIVTED_clean_linker_0, # of connection points: 2
#     Edge 46, Type (0, 0), BuildingBlock: XIVTED_clean_linker_0, # of connection points: 2
#     Edge 47, Type (0, 0), BuildingBlock: XIVTED_clean_linker_0, # of connection points: 2
#     Edge 48, Type (0, 0), BuildingBlock: XIVTED_clean_linker_0, # of connection points: 2
#     Edge 49, Type (0, 0), BuildingBlock: XIVTED_clean_linker_0, # of connection points: 2
#     Edge 50, Type (0, 0), BuildingBlock: XIVTED_clean_linker_0, # of connection points: 2
#     Edge 51, Type (0, 0), BuildingBlock: XIVTED_clean_linker_0, # of connection points: 2
#     Edge 52, Type (0, 0), BuildingBlock: XIVTED_clean_linker_0, # of connection points: 2
#     Edge 53, Type (0, 0), BuildingBlock: XIVTED_clean_linker_0, # of connection points: 2
# Relax obj value: 0.034
# Max RMSD: 0.246
# Mean RMSD: 0.245
data_MOF--net-ung--node1-MUDLON_clean_sbu_0--edge1-XIVTED_clean_linker_0
_symmetry_space_group_name_H-M    P1
_symmetry_Int_Tables_number       1
_symmetry_cell_setting            triclinic
loop_
_symmetry_equiv_pos_as_xyz
'x, y, z'
_cell_length_a     77.405813
_cell_length_b     78.198616
_cell_length_c     23.638853
_cell_angle_alpha  89.578212
_cell_angle_beta   90.704913
_cell_angle_gamma 121.27709
loop_
_atom_site_label
_atom_site_type_symbol
_atom_site_fract_x
_atom_site_fract_y
_atom_site_fract_z
_atom_type_partial_charge
Mg0 Mg 0.04735 0.64714 0.24852 0.0
C1 C 0.03576 0.6277 0.36705 0.0
O2 O 0.03188 0.64183 0.37786 0.0
C3 C 0.01573 0.65894 0.22674 0.0
O4 O 0.02403 0.67012 0.27183 0.0
C5 C 0.04366 0.61852 0.1653 0.0
O6 O 0.02643 0.60978 0.19249 0.0
O7 O 0.05735 0.63609 0.18016 0.0
O8 O 0.04118 0.6263 0.31764 0.0
O9 O 0.069 0.67749 0.27674 0.0
C10 C 0.07947 0.68104 0.32187 0.0
O11 O 0.07859 0.66604 0.34983 0.0
O12 O 0.02151 0.64718 0.2113 0.0
Mg13 Mg 0.4729 0.50724 0.25995 0.0
C14 C 0.44298 0.49443 0.3491 0.0
O15 O 0.45704 0.49132 0.36905 0.0
C16 C 0.5024 0.5322 0.1762 0.0
O17 O 0.50963 0.52216 0.20145 0.0
C18 C 0.46 0.47703 0.17126 0.0
O19 O 0.45685 0.4908 0.15021 0.0
O20 O 0.46724 0.47945 0.22124 0.0
O21 O 0.445 0.50154 0.29933 0.0
O22 O 0.49547 0.52023 0.32741 0.0
C23 C 0.49857 0.5372 0.34256 0.0
O24 O 0.48883 0.54449 0.31563 0.0
O25 O 0.48552 0.52943 0.19263 0.0
Mg26 Mg 0.60686 0.07448 0.27259 0.0
C27 C 0.56933 0.06745 0.21055 0.0
O28 O 0.5637 0.06732 0.26283 0.0
C29 C 0.62213 0.04576 0.2773 0.0
O30 O 0.63264 0.05669 0.23398 0.0
C31 C 0.59628 0.07613 0.39423 0.0
O32 O 0.60619 0.0668 0.40131 0.0
O33 O 0.59536 0.08239 0.34513 0.0
O34 O 0.58618 0.0688 0.20195 0.0
O35 O 0.63698 0.09793 0.24621 0.0
C36 C 0.6395 0.10615 0.19785 0.0
O37 O 0.62357 0.10153 0.16633 0.0
O38 O 0.60915 0.04896 0.2991 0.0
Mg39 Mg 0.05033 0.51672 0.74842 0.0
C40 C 0.04385 0.5441 0.67899 0.0
O41 O 0.02988 0.53766 0.71801 0.0
C42 C 0.071 0.50462 0.82709 0.0
O43 O 0.05349 0.49931 0.8498 0.0
C44 C 0.05734 0.54556 0.83743 0.0
O45 O 0.07452 0.55391 0.81003 0.0
O46 O 0.04293 0.52858 0.82093 0.0
O47 O 0.05621 0.53797 0.68015 0.0
O48 O 0.02613 0.48721 0.72087 0.0
C49 C 0.02178 0.48411 0.66837 0.0
O50 O 0.03111 0.49912 0.63286 0.0
O51 O 0.07509 0.51323 0.77899 0.0
Mg52 Mg 0.60988 0.64331 0.76163 0.0
C53 C 0.58422 0.61319 0.67902 0.0
O54 O 0.59295 0.60534 0.70837 0.0
C55 C 0.63146 0.67758 0.83367 0.0
O56 O 0.63805 0.66545 0.84507 0.0
C57 C 0.58009 0.62083 0.84924 0.0
O58 O 0.57321 0.63111 0.82353 0.0
O59 O 0.59646 0.62262 0.83193 0.0
O60 O 0.58804 0.63057 0.69245 0.0
O61 O 0.63799 0.64709 0.72952 0.0
C62 C 0.6414 0.65165 0.67734 0.0
O63 O 0.62769 0.65278 0.64703 0.0
O64 O 0.61783 0.67236 0.7957 0.0
Mg65 Mg 0.48005 0.08163 0.76755 0.0
C66 C 0.4927 0.08373 0.88972 0.0
O67 O 0.47323 0.07622 0.89619 0.0
C68 C 0.477 0.10983 0.68586 0.0
O69 O 0.48287 0.10074 0.65149 0.0
C70 C 0.50742 0.07055 0.70877 0.0
O71 O 0.51218 0.06928 0.76153 0.0
O72 O 0.49349 0.07424 0.69875 0.0
O73 O 0.50015 0.08899 0.84051 0.0
O74 O 0.45079 0.05713 0.79531 0.0
C75 C 0.43452 0.0551 0.7753 0.0
O76 O 0.43552 0.06645 0.73267 0.0
O77 O 0.47547 0.10561 0.73842 0.0
Mg78 Mg 0.70552 0.97513 0.59289 0.0
C79 C 0.71338 0.9545 0.68277 0.0
O80 O 0.73071 0.96558 0.657 0.0
C81 C 0.68539 0.98347 0.50049 0.0
O82 O 0.70274 0.98737 0.47973 0.0
C83 C 0.70283 0.94535 0.51431 0.0
O84 O 0.68551 0.93641 0.54109 0.0
O85 O 0.71612 0.96317 0.52835 0.0
O86 O 0.69809 0.95507 0.6649 0.0
O87 O 0.72734 1.00502 0.62441 0.0
C88 C 0.71941 0.01493 0.64001 0.0
O89 O 0.69979 1.00684 0.63379 0.0
O90 O 0.68113 0.97699 0.55109 0.0
Mg91 Mg 0.1445 0.8454 0.59537 0.0
C92 C 0.11194 0.83195 0.67719 0.0
O93 O 0.12532 0.82878 0.70195 0.0
C94 C 0.1746 0.87004 0.51093 0.0
O95 O 0.18252 0.86103 0.53844 0.0
C96 C 0.13267 0.81327 0.5131 0.0
O97 O 0.12895 0.826 0.48744 0.0
O98 O 0.14 0.8173 0.56309 0.0
O99 O 0.11562 0.83945 0.62766 0.0
O100 O 0.16575 0.85914 0.6654 0.0
C101 C 0.1677 0.87563 0.68081 0.0
O102 O 0.15749 0.88225 0.65311 0.0
O103 O 0.15735 0.86664 0.52595 0.0
Mg104 Mg 0.27328 0.40711 0.59237 0.0
C105 C 0.24291 0.39825 0.67946 0.0
O106 O 0.23885 0.38047 0.66338 0.0
C107 C 0.31884 0.43579 0.58499 0.0
O108 O 0.31869 0.42572 0.6299 0.0
C109 C 0.25155 0.41355 0.50236 0.0
O110 O 0.2606 0.43022 0.53183 0.0
O111 O 0.25381 0.39922 0.51811 0.0
O112 O 0.25772 0.41367 0.65701 0.0
O113 O 0.27854 0.38394 0.62538 0.0
C114 C 0.28263 0.38466 0.67801 0.0
O115 O 0.28292 0.3987 0.70894 0.0
O116 O 0.3021 0.43212 0.56362 0.0
Mg117 Mg 0.7141 0.84655 0.09716 0.0
C118 C 0.71735 0.8758 0.17883 0.0
O119 O 0.73425 0.88513 0.15013 0.0
C120 C 0.70111 0.80859 0.04117 0.0
O121 O 0.72095 0.81852 0.03967 0.0
C122 C 0.70504 0.86744 1.00947 0.0
O123 O 0.68782 0.85633 0.03575 0.0
O124 O 0.72038 0.86677 0.02617 0.0
O125 O 0.70417 0.8579 0.1652 0.0
O126 O 0.73974 0.84519 0.13167 0.0
C127 C 0.73922 0.84129 0.18428 0.0
O128 O 0.72429 0.83963 0.21448 0.0
O129 O 0.69249 0.81665 0.06531 0.0
Mg130 Mg 0.27923 0.9835 0.09653 0.0
C131 C 0.25003 0.95848 0.18132 0.0
O132 O 0.24181 0.96719 0.15373 0.0
C133 C 0.30955 0.997 1.00859 0.0
O134 O 0.29534 0.99986 0.98842 0.0
C135 C 0.25455 0.95252 0.01449 0.0
O136 O 0.26505 0.94606 0.04136 0.0
O137 O 0.25681 0.96918 0.02933 0.0
O138 O 0.2674 0.96225 0.16625 0.0
O139 O 0.28362 0.01155 0.12931 0.0
C140 C 0.28939 0.01518 0.18082 0.0
O141 O 0.29182 1.00203 0.20904 0.0
O142 O 0.30747 0.98977 0.05821 0.0
Mg143 Mg 0.14305 0.41301 0.08347 0.0
C144 C 0.16815 0.40647 0.1641 0.0
O145 O 0.15842 0.38966 0.13542 0.0
C146 C 0.14827 0.45118 0.02463 0.0
O147 O 0.16523 0.4536 1.00516 0.0
C148 C 0.15253 0.408 0.96086 0.0
O149 O 0.14195 0.41631 0.94827 0.0
O150 O 0.15416 0.40403 1.01222 0.0
O151 O 0.1652 0.42058 0.151 0.0
O152 O 0.11438 0.38902 0.11682 0.0
C153 C 0.11169 0.38931 0.16977 0.0
O154 O 0.12634 0.40335 0.20073 0.0
O155 O 0.1377 0.43683 0.05857 0.0
Mg156 Mg 0.37081 0.30646 0.939 0.0
C157 C 0.37007 0.29462 0.06122 0.0
O158 O 0.37858 0.31405 0.06737 0.0
C159 C 0.34511 0.31299 0.85653 0.0
O160 O 0.35637 0.30967 0.82265 0.0
C161 C 0.36142 0.27338 0.86238 0.0
O162 O 0.34543 0.26633 0.89467 0.0
O163 O 0.37612 0.29112 0.87112 0.0
O164 O 0.36367 0.287 1.01246 0.0
O165 O 0.39659 0.33529 0.96483 0.0
C166 C 0.39945 0.3515 0.9434 0.0
O167 O 0.38821 0.35062 0.90009 0.0
O168 O 0.34713 0.31191 0.9098 0.0
Mg169 Mg 0.80618 0.17717 0.93166 0.0
C170 C 0.77515 0.16706 0.01798 0.0
O171 O 0.7887 0.16452 0.04429 0.0
C172 C 0.83628 0.20113 0.84677 0.0
O173 O 0.84348 0.19123 0.87302 0.0
C174 C 0.78597 0.14449 0.85364 0.0
O175 O 0.78023 0.15725 0.84162 0.0
O176 O 0.79837 0.14859 0.89451 0.0
O177 O 0.77834 0.1731 0.96686 0.0
O178 O 0.82836 0.18924 1.0001 0.0
C179 C 0.8327 0.20676 0.01378 0.0
O180 O 0.82425 0.215 0.98498 0.0
O181 O 0.81946 0.19859 0.86281 0.0
Mg182 Mg 0.94445 0.74551 0.93853 0.0
C183 C 0.9248 0.7338 0.8197 0.0
O184 O 0.93948 0.73058 0.80882 0.0
C185 C 0.95697 0.7147 0.96063 0.0
O186 O 0.96801 0.72278 0.91535 0.0
C187 C 0.91534 0.74227 0.01989 0.0
O188 O 0.9062 0.72546 0.99107 0.0
O189 O 0.93335 0.75551 1.00673 0.0
O190 O 0.92314 0.73886 0.86934 0.0
O191 O 0.97487 0.7671 0.90987 0.0
C192 C 0.97807 0.7777 0.86567 0.0
O193 O 0.96269 0.77697 0.83919 0.0
O194 O 0.94501 0.7203 0.9761 0.0
Mg195 Mg 0.37965 0.18124 0.43951 0.0
C196 C 0.38936 0.21876 0.37563 0.0
O197 O 0.39143 0.22531 0.42775 0.0
C198 C 0.40404 0.17316 0.52061 0.0
O199 O 0.39007 0.1728 0.55245 0.0
C200 C 0.3584 0.18802 0.54182 0.0
O201 O 0.34328 0.16961 0.53384 0.0
O202 O 0.37364 0.19522 0.50966 0.0
O203 O 0.38609 0.20124 0.36744 0.0
O204 O 0.35488 0.15163 0.41446 0.0
C205 C 0.34754 0.14888 0.36452 0.0
O206 O 0.3536 0.16441 0.33105 0.0
O207 O 0.40421 0.17706 0.46812 0.0
Mg208 Mg 0.94443 0.31251 0.43304 0.0
C209 C 0.91821 0.28108 0.352 0.0
O210 O 0.92606 0.27275 0.38306 0.0
C211 C 0.954 0.34525 0.51392 0.0
O212 O 0.95407 0.33163 0.54658 0.0
C213 C 0.91378 0.2886 0.51769 0.0
O214 O 0.90601 0.29749 0.48888 0.0
O215 O 0.93105 0.29184 0.50362 0.0
O216 O 0.92287 0.29886 0.3636 0.0
O217 O 0.97335 0.31757 0.4033 0.0
C218 C 0.97618 0.31937 0.35007 0.0
O219 O 0.96148 0.31721 0.31675 0.0
O220 O 0.94982 0.34139 0.46156 0.0
Mg221 Mg 0.81246 0.74794 0.43669 0.0
C222 C 0.83991 0.74107 0.50658 0.0
O223 O 0.83333 0.72721 0.46731 0.0
C224 C 0.80675 0.77469 0.35816 0.0
O225 O 0.80757 0.76214 0.32329 0.0
C226 C 0.8427 0.75447 0.35171 0.0
O227 O 0.85192 0.77068 0.38306 0.0
O228 O 0.8247 0.74096 0.36408 0.0
O229 O 0.83383 0.7534 0.50541 0.0
O230 O 0.78271 0.7237 0.46323 0.0
C231 C 0.77991 0.71872 0.51525 0.0
O232 O 0.79531 0.72746 0.5506 0.0
O233 O 0.80895 0.77298 0.41104 0.0
H234 H 0.02435 0.53271 0.90563 0.0
H235 H 0.0769 0.63175 0.09736 0.0
H236 H 0.08528 0.58214 0.8806 0.0
H237 H 0.01669 0.58132 0.12462 0.0
H238 H 0.0804 0.61391 0.01774 0.0
H239 H 0.02128 0.55043 0.98606 0.0
C240 C 0.03708 0.54728 0.91702 0.0
C241 C 0.05509 0.55595 0.88629 0.0
C242 C 0.06644 0.60675 0.04125 0.0
C243 C 0.05171 0.57633 0.97832 0.0
C244 C 0.06445 0.61694 0.08671 0.0
C245 C 0.04648 0.60804 0.1177 0.0
C246 C 0.05033 0.58756 0.02669 0.0
C247 C 0.03082 0.5888 0.10197 0.0
C248 C 0.03533 0.5574 0.96298 0.0
C249 C 0.0711 0.57487 0.90304 0.0
N250 N 0.03311 0.57924 0.05761 0.0
N251 N 0.06903 0.58442 0.94784 0.0
H252 H 0.59 0.59791 0.91469 0.0
H253 H 0.49204 0.55492 0.1109 0.0
H254 H 0.54463 0.61388 0.8941 0.0
H255 H 0.53842 0.54039 0.13304 0.0
H256 H 0.51098 0.57664 0.03128 0.0
H257 H 0.57113 0.5766 0.99477 0.0
C258 C 0.57608 0.59693 0.92695 0.0
C259 C 0.56891 0.6077 0.8976 0.0
C260 C 0.51701 0.56871 0.05368 0.0
C261 C 0.54721 0.58335 0.98927 0.0
C262 C 0.5062 0.55632 0.09915 0.0
C263 C 0.51362 0.5458 0.1287 0.0
C264 C 0.53535 0.57055 0.03766 0.0
C265 C 0.53207 0.54818 0.11155 0.0
C266 C 0.56531 0.58478 0.97272 0.0
C267 C 0.55076 0.60586 0.91545 0.0
N268 N 0.54225 0.56025 0.06722 0.0
N269 N 0.54055 0.59393 0.96005 0.0
H270 H 0.53207 0.06338 0.21406 0.0
H271 H 0.53168 0.09165 0.88768 0.0
H272 H 0.5796 0.0747 0.09831 0.0
H273 H 0.48168 0.07415 1.00028 0.0
H274 H 0.55031 0.0873 0.96522 0.0
H275 H 0.5139 0.06826 0.13667 0.0
C276 C 0.53864 0.06676 0.17227 0.0
C277 C 0.5574 0.06862 0.16275 0.0
C278 C 0.53529 0.08449 0.97299 0.0
C279 C 0.53672 0.07447 0.07382 0.0
C280 C 0.52469 0.0871 0.92882 0.0
C281 C 0.50505 0.08324 0.93741 0.0
C282 C 0.52623 0.07803 0.02622 0.0
C283 C 0.49675 0.07727 0.9916 0.0
C284 C 0.52826 0.0696 0.12807 0.0
C285 C 0.56515 0.07304 0.10762 0.0
N286 N 0.50735 0.07481 0.03381 0.0
N287 N 0.55482 0.07591 0.06531 0.0
H288 H 0.5691 0.08869 0.39043 0.0
H289 H 0.53736 0.06182 0.71503 0.0
H290 H 0.5955 0.06494 0.50458 0.0
H291 H 0.50602 0.07876 0.59625 0.0
H292 H 0.5595 0.06391 0.63915 0.0
H293 H 0.54709 0.08691 0.46651 0.0
C294 C 0.57042 0.08328 0.43161 0.0
C295 C 0.58418 0.07694 0.44108 0.0
C296 C 0.54773 0.06709 0.62959 0.0
C297 C 0.55887 0.07469 0.52824 0.0
C298 C 0.53503 0.06585 0.67291 0.0
C299 C 0.51979 0.07012 0.66206 0.0
C300 C 0.54529 0.07276 0.57495 0.0
C301 C 0.51753 0.07528 0.60658 0.0
C302 C 0.55775 0.08215 0.47495 0.0
C303 C 0.58512 0.06997 0.49527 0.0
N304 N 0.5302 0.07655 0.56519 0.0
N305 N 0.57262 0.069 0.53671 0.0
H306 H 0.02303 0.6246 0.47652 0.0
H307 H 0.06376 0.55357 0.57725 0.0
H308 H 0.04992 0.6021 0.36302 0.0
H309 H 0.02423 0.56464 0.67699 0.0
H310 H 0.06177 0.57394 0.50086 0.0
H311 H 0.02579 0.60488 0.55308 0.0
C312 C 0.02942 0.61545 0.4676 0.0
C313 C 0.03619 0.61498 0.41319 0.0
C314 C 0.05358 0.57191 0.53957 0.0
C315 C 0.03964 0.59256 0.50081 0.0
C316 C 0.05481 0.56039 0.58325 0.0
C317 C 0.0441 0.55734 0.63348 0.0
C318 C 0.04173 0.58059 0.54649 0.0
C319 C 0.03265 0.56648 0.63889 0.0
C320 C 0.03102 0.60421 0.51134 0.0
C321 C 0.04441 0.60287 0.40421 0.0
N322 N 0.03178 0.57768 0.59603 0.0
N323 N 0.04599 0.59223 0.44758 0.0
H324 H 0.56477 0.62506 0.60472 0.0
H325 H 0.51901 0.52581 0.41479 0.0
H326 H 0.57416 0.57626 0.64079 0.0
H327 H 0.50841 0.57398 0.38131 0.0
H328 H 0.53982 0.54433 0.49693 0.0
H329 H 0.54425 0.60668 0.52206 0.0
C330 C 0.56247 0.61048 0.5954 0.0
C331 C 0.5712 0.60221 0.62978 0.0
C332 C 0.53296 0.55085 0.4715 0.0
C333 C 0.54784 0.58112 0.53514 0.0
C334 C 0.52112 0.54029 0.42453 0.0
C335 C 0.51192 0.54832 0.39112 0.0
C336 C 0.53563 0.56957 0.48512 0.0
C337 C 0.51516 0.56716 0.40586 0.0
C338 C 0.55079 0.6 0.54814 0.0
C339 C 0.56774 0.58325 0.61555 0.0
N340 N 0.5267 0.5771 0.4517 0.0
N341 N 0.55638 0.57338 0.56937 0.0
H342 H 0.68541 0.8607 0.25231 0.0
H343 H 0.73526 0.96005 0.44271 0.0
H344 H 0.7432 0.91366 0.21759 0.0
H345 H 0.67715 0.90735 0.47628 0.0
H346 H 0.73876 0.94308 0.36091 0.0
H347 H 0.68216 0.87746 0.33503 0.0
C348 C 0.69737 0.87586 0.26193 0.0
C349 C 0.71459 0.88577 0.22792 0.0
C350 C 0.72527 0.93522 0.38629 0.0
C351 C 0.71105 0.90503 0.32265 0.0
C352 C 0.7233 0.94489 0.43309 0.0
C353 C 0.70589 0.93514 0.46639 0.0
C354 C 0.70971 0.91565 0.3727 0.0
C355 C 0.69084 0.9155 0.45181 0.0
C356 C 0.69554 0.88542 0.30923 0.0
C357 C 0.72965 0.90541 0.24254 0.0
N358 N 0.69308 0.90644 0.40607 0.0
N359 N 0.72753 0.91436 0.28875 0.0
H360 H 0.1626 0.89041 0.44139 0.0
H361 H 0.26242 0.93845 0.25122 0.0
H362 H 0.21158 0.88001 0.47037 0.0
H363 H 0.213 0.94817 0.22184 0.0
H364 H 0.24412 0.91699 0.33186 0.0
H365 H 0.181 0.91184 0.36099 0.0
C366 C 0.17722 0.89265 0.43094 0.0
C367 C 0.18554 0.88338 0.4627 0.0
C368 C 0.23729 0.92382 0.30768 0.0
C369 C 0.20669 0.90786 0.37065 0.0
C370 C 0.24773 0.93606 0.26162 0.0
C371 C 0.23925 0.94513 0.22969 0.0
C372 C 0.21824 0.92066 0.3219 0.0
C373 C 0.22016 0.94151 0.24518 0.0
C374 C 0.18773 0.90488 0.38499 0.0
C375 C 0.20456 0.88683 0.44713 0.0
N376 N 0.21034 0.92959 0.2901 0.0
N377 N 0.21447 0.89876 0.40227 0.0
H378 H 0.23103 0.3819 0.42874 0.0
H379 H 0.18944 0.43822 0.23654 0.0
H380 H 0.24426 0.44185 0.46062 0.0
H381 H 0.17669 0.37857 0.20238 0.0
H382 H 0.20997 0.43994 0.31831 0.0
H383 H 0.21119 0.38035 0.3452 0.0
C384 C 0.22977 0.39471 0.41824 0.0
C385 C 0.23932 0.41201 0.45179 0.0
C386 C 0.20272 0.42649 0.29283 0.0
C387 C 0.2167 0.41038 0.35631 0.0
C388 C 0.19101 0.42552 0.24607 0.0
C389 C 0.1813 0.40823 0.21254 0.0
C390 C 0.20472 0.41004 0.30625 0.0
C391 C 0.18387 0.39222 0.22702 0.0
C392 C 0.21846 0.39384 0.37052 0.0
C393 C 0.23717 0.42818 0.43609 0.0
N394 N 0.19528 0.39349 0.27278 0.0
N395 N 0.22611 0.42696 0.38961 0.0
H396 H 0.16423 0.42692 0.85837 0.0
H397 H 0.21928 0.37046 0.75791 0.0
H398 H 0.16875 0.38415 0.96409 0.0
H399 H 0.23703 0.42953 0.69765 0.0
H400 H 0.19674 0.37239 0.82564 0.0
H401 H 0.18666 0.42494 0.7899 0.0
C402 C 0.16974 0.41694 0.86688 0.0
C403 C 0.1646 0.40565 0.91698 0.0
C404 C 0.20562 0.38495 0.79774 0.0
C405 C 0.1902 0.40335 0.83892 0.0
C406 C 0.21845 0.38386 0.759 0.0
C407 C 0.23007 0.39989 0.72219 0.0
C408 C 0.20405 0.40202 0.79897 0.0
C409 C 0.22843 0.41691 0.72555 0.0
C410 C 0.18267 0.41597 0.82804 0.0
C411 C 0.17236 0.39313 0.92606 0.0
N412 N 0.2155 0.41747 0.76298 0.0
N413 N 0.18469 0.39224 0.88729 0.0
H414 H 0.67462 0.87154 0.9651 0.0
H415 H 0.74371 0.95063 0.72842 0.0
H416 H 0.73794 0.89266 0.9444 0.0
H417 H 0.68027 0.92926 0.74749 0.0
H418 H 0.74182 0.92964 0.8076 0.0
H419 H 0.67641 0.89263 0.88612 0.0
C420 C 0.68894 0.88062 0.94397 0.0
C421 C 0.70618 0.8803 0.96151 0.0
C422 C 0.7283 0.92951 0.79458 0.0
C423 C 0.70829 0.90456 0.8707 0.0
C424 C 0.72934 0.94152 0.74926 0.0
C425 C 0.7121 0.94173 0.73115 0.0
C426 C 0.70987 0.91755 0.82231 0.0
C427 C 0.69393 0.92958 0.75995 0.0
C428 C 0.68992 0.89267 0.89878 0.0
C429 C 0.72428 0.89241 0.93239 0.0
N430 N 0.6933 0.91798 0.8041 0.0
N431 N 0.72485 0.90404 0.88844 0.0
H432 H 0.24689 0.91652 0.97485 0.0
H433 H 0.17463 0.91121 0.72194 0.0
H434 H 0.2319 0.96184 0.94453 0.0
H435 H 0.19005 0.86615 0.75146 0.0
H436 H 0.19532 0.92978 0.80349 0.0
H437 H 0.22584 0.89773 0.89408 0.0
C438 C 0.23913 0.92252 0.9513 0.0
C439 C 0.2412 0.94083 0.96655 0.0
C440 C 0.19421 0.91585 0.7922 0.0
C441 C 0.21703 0.91931 0.87357 0.0
C442 C 0.1824 0.9052 0.74552 0.0
C443 C 0.18059 0.88706 0.72974 0.0
C444 C 0.20435 0.90834 0.82357 0.0
C445 C 0.19102 0.88007 0.76202 0.0
C446 C 0.22711 0.91176 0.90506 0.0
C447 C 0.23074 0.94781 0.93436 0.0
N448 N 0.20244 0.89072 0.80742 0.0
N449 N 0.21914 0.93705 0.88933 0.0
H450 H 0.39116 0.28318 0.78399 0.0
H451 H 0.3289 0.1781 0.62104 0.0
H452 H 0.332 0.23531 0.83378 0.0
H453 H 0.38788 0.22614 0.57045 0.0
H454 H 0.32976 0.19882 0.69944 0.0
H455 H 0.39039 0.26241 0.70583 0.0
C456 C 0.37804 0.26831 0.7786 0.0
C457 C 0.36163 0.261 0.81553 0.0
C458 C 0.34251 0.20482 0.67114 0.0
C459 C 0.36059 0.23715 0.72608 0.0
C460 C 0.34201 0.19299 0.62632 0.0
C461 C 0.35833 0.20035 0.58905 0.0
C462 C 0.35946 0.22416 0.67881 0.0
C463 C 0.37493 0.2198 0.59806 0.0
C464 C 0.37759 0.25645 0.73392 0.0
C465 C 0.34501 0.24159 0.80642 0.0
N466 N 0.37506 0.23098 0.64196 0.0
N467 N 0.34492 0.23038 0.76267 0.0
H468 H 0.82555 0.22291 0.77873 0.0
H469 H 0.92506 0.26787 0.58821 0.0
H470 H 0.87274 0.20975 0.80551 0.0
H471 H 0.87713 0.27974 0.55817 0.0
H472 H 0.90629 0.24682 0.66887 0.0
H473 H 0.84447 0.2443 0.69867 0.0
C474 C 0.83989 0.22455 0.76789 0.0
C475 C 0.84754 0.2145 0.79888 0.0
C476 C 0.89988 0.25403 0.64458 0.0
C477 C 0.86927 0.23891 0.7073 0.0
C478 C 0.9106 0.26604 0.5985 0.0
C479 C 0.90267 0.27558 0.56631 0.0
C480 C 0.8811 0.25156 0.65865 0.0
C481 C 0.88385 0.27268 0.5817 0.0
C482 C 0.85068 0.23673 0.72214 0.0
C483 C 0.86621 0.21717 0.78285 0.0
N484 N 0.87373 0.26096 0.6267 0.0
N485 N 0.8764 0.22908 0.73824 0.0
H486 H 0.92183 0.72127 0.70995 0.0
H487 H 0.8495 0.76085 0.60864 0.0
H488 H 0.89842 0.74719 0.82377 0.0
H489 H 0.86053 0.72152 0.50891 0.0
H490 H 0.8701 0.75895 0.68537 0.0
H491 H 0.9017 0.72371 0.63317 0.0
C492 C 0.91239 0.72738 0.71889 0.0
C493 C 0.91179 0.73398 0.77345 0.0
C494 C 0.86801 0.75077 0.6466 0.0
C495 C 0.88892 0.73707 0.6856 0.0
C496 C 0.85636 0.75195 0.60272 0.0
C497 C 0.85325 0.74129 0.55238 0.0
C498 C 0.87676 0.73903 0.63977 0.0
C499 C 0.86243 0.72991 0.5471 0.0
C500 C 0.90092 0.72879 0.67503 0.0
C501 C 0.8993 0.74182 0.78246 0.0
N502 N 0.87377 0.7291 0.59014 0.0
N503 N 0.88846 0.74324 0.73897 0.0
H504 H 0.82817 0.72348 0.27583 0.0
H505 H 0.92981 0.77406 0.0934 0.0
H506 H 0.88092 0.78095 0.31505 0.0
H507 H 0.87691 0.71655 0.05561 0.0
H508 H 0.91206 0.77724 0.174 0.0
H509 H 0.84577 0.72089 0.19418 0.0
C510 C 0.84345 0.73554 0.26732 0.0
C511 C 0.85308 0.75244 0.30237 0.0
C512 C 0.90435 0.76395 0.14795 0.0
C513 C 0.87333 0.74961 0.20892 0.0
C514 C 0.91447 0.76215 0.1019 0.0
C515 C 0.90486 0.74501 0.06774 0.0
C516 C 0.88449 0.74849 0.15987 0.0
C517 C 0.88496 0.73002 0.08079 0.0
C518 C 0.8535 0.73407 0.22066 0.0
C519 C 0.87289 0.76763 0.28923 0.0
N520 N 0.87547 0.7321 0.12578 0.0
N521 N 0.88235 0.76585 0.24361 0.0
H522 H 0.39619 0.25672 0.37895 0.0
H523 H 0.36005 0.25536 0.05896 0.0
H524 H 0.37858 0.20738 0.26473 0.0
H525 H 0.38241 0.30616 0.17053 0.0
H526 H 0.36514 0.23686 0.13473 0.0
H527 H 0.39048 0.27467 0.30336 0.0
C528 C 0.39128 0.2497 0.33781 0.0
C529 C 0.38789 0.23049 0.32826 0.0
C530 C 0.36885 0.25202 0.14267 0.0
C531 C 0.38106 0.25095 0.24138 0.0
C532 C 0.36582 0.26256 0.09954 0.0
C533 C 0.37085 0.28239 0.10829 0.0
C534 C 0.37692 0.26135 0.19503 0.0
C535 C 0.37836 0.29094 0.16172 0.0
C536 C 0.38795 0.25995 0.29465 0.0
C537 C 0.38148 0.22218 0.27401 0.0
N538 N 0.38121 0.28041 0.2029 0.0
N539 N 0.37819 0.23242 0.2327 0.0
H540 H 0.90064 0.29409 0.27495 0.0
H541 H 0.85074 0.19365 0.08931 0.0
H542 H 0.90633 0.24334 0.3162 0.0
H543 H 0.84485 0.24441 0.0501 0.0
H544 H 0.87153 0.21167 0.17206 0.0
H545 H 0.8802 0.27605 0.19204 0.0
C546 C 0.89754 0.27914 0.26671 0.0
C547 C 0.90522 0.27023 0.30262 0.0
C548 C 0.8657 0.21886 0.14523 0.0
C549 C 0.88189 0.24949 0.20761 0.0
C550 C 0.85388 0.20859 0.09792 0.0
C551 C 0.84602 0.2175 0.06273 0.0
C552 C 0.86968 0.23817 0.15736 0.0
C553 C 0.85055 0.2369 0.07603 0.0
C554 C 0.8859 0.26884 0.21928 0.0
C555 C 0.90074 0.25082 0.28973 0.0
N556 N 0.86202 0.24654 0.12222 0.0
N557 N 0.8894 0.24112 0.2433 0.0
H558 H 0.08435 0.7155 0.27573 0.0
H559 H 0.13448 0.78122 0.55525 0.0
H560 H 0.09937 0.69313 0.42411 0.0
H561 H 0.11915 0.80234 0.40477 0.0
H562 H 0.12398 0.74961 0.50656 0.0
H563 H 0.09951 0.74825 0.32057 0.0
C564 C 0.091 0.71751 0.31756 0.0
C565 C 0.09047 0.70147 0.34625 0.0
C566 C 0.12303 0.76123 0.4842 0.0
C567 C 0.10775 0.73902 0.39831 0.0
C568 C 0.12904 0.77928 0.51196 0.0
C569 C 0.12757 0.79442 0.48424 0.0
C570 C 0.11553 0.75835 0.42836 0.0
C571 C 0.12043 0.79108 0.42809 0.0
C572 C 0.09964 0.73624 0.34327 0.0
C573 C 0.09939 0.70503 0.40041 0.0
N574 N 0.11462 0.77343 0.40221 0.0
N575 N 0.10752 0.72337 0.42485 0.0
H576 H 0.4074 0.49255 0.31882 0.0
H577 H 0.35724 0.44767 0.62007 0.0
H578 H 0.43808 0.48431 0.4605 0.0
H579 H 0.32411 0.45298 0.47972 0.0
H580 H 0.38801 0.46485 0.56447 0.0
H581 H 0.37766 0.48149 0.37875 0.0
C582 C 0.40795 0.48857 0.36251 0.0
C583 C 0.42519 0.48917 0.38446 0.0
C584 C 0.37407 0.46243 0.54585 0.0
C585 C 0.39136 0.47659 0.45312 0.0
C586 C 0.35646 0.45264 0.57775 0.0
C587 C 0.33799 0.44869 0.55444 0.0
C588 C 0.37328 0.46824 0.48991 0.0
C589 C 0.33799 0.45563 0.49937 0.0
C590 C 0.39099 0.48226 0.39668 0.0
C591 C 0.42508 0.4839 0.44143 0.0
N592 N 0.35532 0.46488 0.46874 0.0
N593 N 0.40846 0.47777 0.47354 0.0
H594 H 0.6528 0.98609 0.53447 0.0
H595 H 0.64722 0.03364 0.23865 0.0
H596 H 0.68831 0.99205 0.3881 0.0
H597 H 0.60991 0.02729 0.38095 0.0
H598 H 0.65965 0.01505 0.29057 0.0
H599 H 0.63424 0.99786 0.47726 0.0
C600 C 0.65651 0.98961 0.49023 0.0
C601 C 0.67227 0.98828 0.46623 0.0
C602 C 0.6486 0.01754 0.3104 0.0
C603 C 0.65123 1.0018 0.40072 0.0
C604 C 0.64146 0.02815 0.28063 0.0
C605 C 0.62761 0.03219 0.30557 0.0
C606 C 0.64203 0.01102 0.3659 0.0
C607 C 0.62063 0.02457 0.36007 0.0
C608 C 0.64597 0.99638 0.45764 0.0
C609 C 0.67646 0.99306 0.40869 0.0
N610 N 0.62808 0.01455 0.38867 0.0
N611 N 0.66613 0.99971 0.37817 0.0
H612 H 0.64998 0.1244 0.09404 0.0
H613 H 0.76608 0.15719 0.129 0.0
H614 H 0.67591 0.11639 0.24729 0.0
H615 H 0.74065 0.16419 0.97328 0.0
H616 H 0.73385 0.1453 0.17525 0.0
H617 H 0.68356 0.14201 0.05187 0.0
C618 C 0.66275 0.12651 0.1191 0.0
C619 C 0.66006 0.11875 0.17425 0.0
C620 C 0.73529 0.14954 0.13106 0.0
C621 C 0.69859 0.13885 0.12592 0.0
C622 C 0.75373 0.15635 0.10451 0.0
C623 C 0.75605 0.16154 0.04693 0.0
C624 C 0.71889 0.14778 0.09992 0.0
C625 C 0.73953 0.16027 0.01766 0.0
C626 C 0.68193 0.13655 0.09487 0.0
C627 C 0.67721 0.12202 0.20461 0.0
N628 N 0.72159 0.15336 0.04437 0.0
N629 N 0.69569 0.13168 0.17991 0.0
H630 H 0.94603 0.70508 0.07143 0.0
H631 H 1.00551 0.64749 0.11617 0.0
H632 H 0.97746 0.69564 0.93713 0.0
H633 H 0.99622 0.67897 0.25027 0.0
H634 H 0.98776 0.65766 0.05055 0.0
H635 H 0.95691 0.68809 0.13714 0.0
C636 C 0.95493 0.69915 0.05546 0.0
C637 C 0.96098 0.70195 0.99866 0.0
C638 C 0.98942 0.66213 0.09449 0.0
C639 C 0.9734 0.68243 0.07381 0.0
C640 C 0.99945 0.65625 0.13212 0.0
C641 C 1.00251 0.66254 0.18883 0.0
C642 C 0.98214 0.67413 0.11378 0.0
C643 C 0.99435 0.67392 0.20688 0.0
C644 C 0.96121 0.68955 0.09314 0.0
C645 C 0.97257 0.69396 0.98058 0.0
N646 N 0.98459 0.67941 0.16944 0.0
N647 N 0.97845 0.68462 0.01807 0.0
H648 H 0.41054 0.38898 0.90632 0.0
H649 H 0.45833 0.44216 0.20384 0.0
H650 H 0.41807 0.3581 0.04766 0.0
H651 H 0.44911 0.47097 0.06007 0.0
H652 H 0.4468 0.41207 0.14583 0.0
H653 H 0.42816 0.42008 0.9599 0.0
C654 C 0.4161 0.38877 0.94843 0.0
C655 C 0.41265 0.37084 0.97259 0.0
C656 C 0.44746 0.42506 0.12701 0.0
C657 C 0.4327 0.4065 0.03487 0.0
C658 C 0.45405 0.44223 0.16008 0.0
C659 C 0.4545 0.45906 0.137 0.0
C660 C 0.44137 0.4248 0.07051 0.0
C661 C 0.44882 0.45832 0.07999 0.0
C662 C 0.42614 0.40656 0.97917 0.0
C663 C 0.42034 0.37156 0.02734 0.0
N664 N 0.44243 0.44151 0.04898 0.0
N665 N 0.42981 0.38905 0.05688 0.0
H666 H 0.95995 0.3563 0.62499 0.0
H667 H 1.00897 0.47274 0.55917 0.0
H668 H 0.96266 0.37968 0.45723 0.0
H669 H 1.00375 0.44862 0.7272 0.0
H670 H 0.98957 0.43872 0.52189 0.0
H671 H 0.97342 0.38972 0.66367 0.0
C672 C 0.96325 0.36845 0.59623 0.0
C673 C 0.96033 0.36518 0.53764 0.0
C674 C 0.9925 0.44085 0.56697 0.0
C675 C 0.97593 0.40368 0.58186 0.0
C676 C 1.00359 0.46029 0.58837 0.0
C677 C 1.00817 0.46358 0.64643 0.0
C678 C 0.98599 0.4245 0.60379 0.0
C679 C 1.00068 0.44684 0.68215 0.0
C680 C 0.97095 0.38757 0.61844 0.0
C681 C 0.96473 0.38151 0.50262 0.0
N682 N 0.99012 0.42805 0.66019 0.0
N683 N 0.97249 0.40009 0.52523 0.0
H684 H 0.65132 0.65813 0.56567 0.0
H685 H 0.76928 0.70448 0.62317 0.0
H686 H 0.67644 0.65879 0.73024 0.0
H687 H 0.74357 0.7019 0.45808 0.0
H688 H 0.73524 0.68501 0.66159 0.0
H689 H 0.68459 0.67127 0.52436 0.0
C690 C 0.66381 0.66088 0.59314 0.0
C691 C 0.6611 0.65752 0.65167 0.0
C692 C 0.73702 0.68853 0.61686 0.0
C693 C 0.6994 0.67275 0.60445 0.0
C694 C 0.75647 0.69967 0.59481 0.0
C695 C 0.75933 0.70502 0.53732 0.0
C696 C 0.72021 0.68275 0.58131 0.0
C697 C 0.74213 0.69822 0.50267 0.0
C698 C 0.68284 0.6684 0.56943 0.0
C699 C 0.67784 0.66122 0.68497 0.0
N700 N 0.72333 0.68761 0.52531 0.0
N701 N 0.69632 0.66883 0.66096 0.0
H702 H 0.40961 0.1683 0.63229 0.0
H703 H 0.47861 0.12189 0.57599 0.0
H704 H 0.4302 0.16484 0.4663 0.0
H705 H 0.45893 0.12711 0.7416 0.0
H706 H 0.46356 0.14012 0.53587 0.0
H707 H 0.43001 0.15586 0.67342 0.0
C708 C 0.41855 0.16505 0.60441 0.0
C709 C 0.41804 0.16748 0.5456 0.0
C710 C 0.46268 0.13744 0.58104 0.0
C711 C 0.44147 0.15303 0.59272 0.0
C712 C 0.4713 0.12703 0.60408 0.0
C713 C 0.46992 0.12281 0.66231 0.0
C714 C 0.45251 0.14364 0.61637 0.0
C715 C 0.46032 0.12995 0.6965 0.0
C716 C 0.43023 0.15794 0.62804 0.0
C717 C 0.43009 0.16315 0.51181 0.0
N718 N 0.45185 0.13986 0.67296 0.0
N719 N 0.44117 0.15597 0.53581 0.0
H720 H 0.34467 0.99787 0.03831 0.0
H721 H 0.3968 0.04596 0.7413 0.0
H722 H 0.31527 1.00881 0.89847 0.0
H723 H 0.4281 0.03613 0.87815 0.0
H724 H 0.36584 0.02925 0.79622 0.0
H725 H 0.37455 1.00906 0.97891 0.0
C726 C 0.34444 1.0025 0.99515 0.0
C727 C 0.32749 1.00257 0.97357 0.0
C728 C 0.37941 0.03057 0.81421 0.0
C729 C 0.3615 0.01531 0.90549 0.0
C730 C 0.39712 0.04009 0.7827 0.0
C731 C 0.41514 0.0426 0.80522 0.0
C732 C 0.37966 0.0236 0.86903 0.0
C733 C 0.41457 0.03457 0.85911 0.0
C734 C 0.36148 1.00887 0.96127 0.0
C735 C 0.32801 1.00866 0.91725 0.0
N736 N 0.39717 0.02561 0.88942 0.0
N737 N 0.34471 0.01484 0.88544 0.0
H738 H 0.1068 0.50874 0.79021 0.0
H739 H 0.11676 0.45369 0.06482 0.0
H740 H 0.06695 0.48977 0.93359 0.0
H741 H 0.15993 0.47484 0.92924 0.0
H742 H 0.09998 0.46926 0.01907 0.0
H743 H 0.12796 0.49862 0.8414 0.0
C744 C 0.10257 0.5026 0.83245 0.0
C745 C 0.08496 0.49994 0.85737 0.0
C746 C 0.11322 0.47068 0.99937 0.0
C747 C 0.10902 0.48837 0.91602 0.0
C748 C 0.12284 0.4618 0.02564 0.0
C749 C 0.13972 0.46284 1.00073 0.0
C750 C 0.12032 0.48057 0.9473 0.0
C751 C 0.14697 0.47366 0.94999 0.0
C752 C 0.11464 0.49683 0.86164 0.0
C753 C 0.08025 0.49195 0.91229 0.0
N754 N 0.1371 0.48192 0.92459 0.0
N755 N 0.09211 0.48639 0.93947 0.0
H756 H 0.61852 0.70464 0.83625 0.0
H757 H 0.71488 0.78409 0.0153 0.0
H758 H 0.66468 0.69437 0.90179 0.0
H759 H 0.66131 0.78793 1.00404 0.0
H760 H 0.69714 0.75234 0.96554 0.0
H761 H 0.63431 0.73637 0.88939 0.0
C762 C 0.63193 0.70903 0.86164 0.0
C763 C 0.64031 0.69684 0.86445 0.0
C764 C 0.68914 0.76 0.97409 0.0
C765 C 0.65836 0.73292 0.92475 0.0
C766 C 0.6993 0.7782 1.00247 0.0
C767 C 0.68956 0.78869 0.01391 0.0
C768 C 0.66907 0.75217 0.95609 0.0
C769 C 0.66932 0.78024 0.99633 0.0
C770 C 0.64085 0.72705 0.89209 0.0
C771 C 0.65764 0.7032 0.89822 0.0
N772 N 0.65974 0.76249 0.9678 0.0
N773 N 0.66608 0.72077 0.92664 0.0
H774 H 0.757 0.03216 0.69167 0.0
H775 H 0.75679 0.13123 0.77229 0.0
H776 H 0.70887 0.04282 0.65103 0.0
H777 H 0.79607 0.11529 0.85788 0.0
H778 H 0.74238 0.10067 0.71743 0.0
H779 H 0.77472 0.06429 0.7428 0.0
C780 C 0.75028 0.04132 0.69299 0.0
C781 C 0.73141 0.0348 0.66721 0.0
C782 C 0.75414 0.10377 0.74816 0.0
C783 C 0.75149 0.07133 0.72519 0.0
C784 C 0.76245 0.1213 0.7796 0.0
C785 C 0.77762 0.12583 0.82014 0.0
C786 C 0.76103 0.09052 0.75678 0.0
C787 C 0.78431 0.11232 0.82732 0.0
C788 C 0.76031 0.05954 0.72243 0.0
C789 C 0.72331 0.04717 0.67051 0.0
N790 N 0.77596 0.09522 0.79589 0.0
N791 N 0.73338 0.06477 0.69883 0.0
H792 H 0.1018 0.81818 0.78512 0.0
H793 H 0.98954 0.79832 0.76517 0.0
H794 H 0.07871 0.83278 0.63719 0.0
H795 H 1.0132 0.78203 0.90834 0.0
H796 H 0.02266 0.81355 0.72037 0.0
H797 H 0.07014 0.80737 0.83306 0.0
C798 C 0.09007 0.81917 0.76264 0.0
C799 C 0.09291 0.82629 0.70678 0.0
C800 C 0.02063 0.80677 0.76175 0.0
C801 C 0.05636 0.81381 0.76183 0.0
C802 C 1.00173 0.79811 0.7875 0.0
C803 C 0.99852 0.78876 0.84056 0.0
C804 C 0.03645 0.8061 0.78926 0.0
C805 C 0.01491 0.78897 0.86736 0.0
C806 C 0.07195 0.81298 0.79019 0.0
C807 C 0.07716 0.82733 0.68017 0.0
N808 N 0.03309 0.79739 0.84131 0.0
N809 N 0.0595 0.82105 0.70784 0.0
H810 H 0.29029 0.35802 0.62534 0.0
H811 H 0.32579 0.32907 0.91224 0.0
H812 H 0.28837 0.38031 0.79019 0.0
H813 H 0.3352 0.31344 0.74548 0.0
H814 H 0.30774 0.34406 0.86933 0.0
H815 H 0.30258 0.33784 0.6697 0.0
C816 C 0.29227 0.35854 0.67086 0.0
C817 C 0.28845 0.37102 0.70399 0.0
C818 C 0.31362 0.3372 0.84218 0.0
C819 C 0.30253 0.34799 0.75508 0.0
C820 C 0.32386 0.32857 0.8667 0.0
C821 C 0.33217 0.32012 0.83242 0.0
C822 C 0.31163 0.33734 0.78296 0.0
C823 C 0.3292 0.31993 0.77359 0.0
C824 C 0.29933 0.34706 0.69618 0.0
C825 C 0.29128 0.37106 0.76285 0.0
N826 N 0.31929 0.3285 0.75076 0.0
N827 N 0.29822 0.35982 0.78642 0.0
H828 H 1.01261 0.33348 0.40533 0.0
H829 H 0.07562 0.36285 0.11734 0.0
H830 H 0.98537 0.32012 0.23866 0.0
H831 H 0.10269 0.3841 0.28228 0.0
H832 H 0.04261 0.34262 0.16213 0.0
H833 H 0.0459 0.34755 0.36192 0.0
C834 C 0.01359 0.33327 0.3597 0.0
C835 C 0.99619 0.3258 0.32559 0.0
C836 C 0.05581 0.35159 0.18853 0.0
C837 C 0.0342 0.34192 0.27562 0.0
C838 C 0.07467 0.3631 0.16297 0.0
C839 C 0.09193 0.37536 0.19601 0.0
C840 C 0.0542 0.35228 0.24757 0.0
C841 C 0.08977 0.37504 0.25502 0.0
C842 C 0.0326 0.34137 0.33491 0.0
C843 C 0.99838 0.32591 0.26664 0.0
N844 N 0.07127 0.36381 0.27884 0.0
N845 N 0.01701 0.33395 0.24357 0.0
H846 H 0.79353 0.79614 0.41618 0.0
H847 H 0.76657 0.83443 0.1317 0.0
H848 H 0.8073 0.78569 0.24822 0.0
H849 H 0.7443 0.8364 0.29655 0.0
H850 H 0.78672 0.82193 0.17569 0.0
H851 H 0.78056 0.81625 0.37496 0.0
C852 C 0.7941 0.79831 0.37078 0.0
C853 C 0.80129 0.78903 0.33558 0.0
C854 C 0.77757 0.82529 0.20229 0.0
C855 C 0.78645 0.81193 0.28812 0.0
C856 C 0.76613 0.83251 0.17719 0.0
C857 C 0.75355 0.83627 0.21037 0.0
C858 C 0.77649 0.82186 0.26101 0.0
C859 C 0.75361 0.8335 0.26918 0.0
C860 C 0.78662 0.80971 0.34723 0.0
C861 C 0.80167 0.79235 0.27698 0.0
N862 N 0.76475 0.82633 0.29253 0.0
N863 N 0.79423 0.80339 0.25513 0.0
H864 H 0.29173 0.0486 0.1331 0.0
H865 H 0.33503 0.11301 0.41781 0.0
H866 H 0.29862 0.02514 0.29204 0.0
H867 H 0.33138 0.13797 0.25777 0.0
H868 H 0.3179 0.07981 0.37464 0.0
H869 H 0.30268 0.0806 0.17992 0.0
C870 C 0.29538 0.05011 0.17786 0.0
C871 C 0.29443 0.03421 0.20852 0.0
C872 C 0.32069 0.09252 0.34905 0.0
C873 C 0.30697 0.07074 0.26235 0.0
C874 C 0.33042 0.1115 0.37379 0.0
C875 C 0.33484 0.12837 0.3413 0.0
C876 C 0.31536 0.09035 0.29132 0.0
C877 C 0.32843 0.12543 0.28441 0.0
C878 C 0.30165 0.06838 0.20457 0.0
C879 C 0.2993 0.03702 0.2665 0.0
N880 N 0.31918 0.10684 0.26114 0.0
N881 N 0.30544 0.05491 0.29136 0.0
loop_
_geom_bond_atom_site_label_1
_geom_bond_atom_site_label_2
_geom_bond_distance
_geom_bond_site_symmetry_2
_ccdc_geom_bond_type
Mg0 O7 2.141 . S
Mg0 O8 2.048 . S
Mg0 O9 2.048 . S
Mg0 O12 2.141 . S
C1 O2 1.313 . S
C1 O8 1.195 . S
O2 C1 1.313 . S
C3 O4 1.245 1_455 S
C3 O12 1.289 . S
O4 C3 1.245 1_655 S
C5 O6 1.245 1_455 S
C5 O7 1.289 . S
O6 C5 1.245 1_655 S
O7 Mg0 2.141 . S
O7 C5 1.289 . S
O8 Mg0 2.048 . S
O8 C1 1.195 . S
O9 Mg0 2.048 . S
O9 C10 1.195 . S
C10 O9 1.195 . S
C10 O11 1.313 . S
O11 C10 1.313 . S
O12 Mg0 2.141 . S
O12 C3 1.289 . S
Mg13 O20 2.141 . S
Mg13 O21 2.048 . S
Mg13 O22 2.048 . S
Mg13 O25 2.141 . S
C14 O15 1.313 . S
C14 O21 1.195 . S
O15 C14 1.313 . S
C16 O17 1.245 . S
C16 O25 1.289 . S
O17 C16 1.245 . S
C18 O19 1.245 . S
C18 O20 1.289 . S
O19 C18 1.245 . S
O20 Mg13 2.141 . S
O20 C18 1.289 . S
O21 Mg13 2.048 . S
O21 C14 1.195 . S
O22 Mg13 2.048 . S
O22 C23 1.195 . S
C23 O22 1.195 . S
C23 O24 1.313 . S
O24 C23 1.313 . S
O25 Mg13 2.141 . S
O25 C16 1.289 . S
Mg26 O33 2.141 . S
Mg26 O34 2.048 . S
Mg26 O35 2.048 . S
Mg26 O38 2.141 . S
C27 O28 1.313 . S
C27 O34 1.195 . S
O28 C27 1.313 . S
C29 O30 1.245 . S
C29 O38 1.289 . S
O30 C29 1.245 . S
C31 O32 1.245 . S
C31 O33 1.289 . S
O32 C31 1.245 . S
O33 Mg26 2.141 . S
O33 C31 1.289 . S
O34 Mg26 2.048 . S
O34 C27 1.195 . S
O35 Mg26 2.048 . S
O35 C36 1.195 . S
C36 O35 1.195 . S
C36 O37 1.313 . S
O37 C36 1.313 . S
O38 Mg26 2.141 . S
O38 C29 1.289 . S
Mg39 O46 2.141 . S
Mg39 O47 2.048 . S
Mg39 O48 2.048 . S
Mg39 O51 2.141 . S
C40 O41 1.313 . S
C40 O47 1.195 . S
O41 C40 1.313 . S
C42 O43 1.245 . S
C42 O51 1.289 . S
O43 C42 1.245 . S
C44 O45 1.245 . S
C44 O46 1.289 . S
O45 C44 1.245 . S
O46 Mg39 2.141 . S
O46 C44 1.289 . S
O47 Mg39 2.048 . S
O47 C40 1.195 . S
O48 Mg39 2.048 . S
O48 C49 1.195 . S
C49 O48 1.195 . S
C49 O50 1.313 . S
O50 C49 1.313 . S
O51 Mg39 2.141 . S
O51 C42 1.289 . S
Mg52 O59 2.141 . S
Mg52 O60 2.048 . S
Mg52 O61 2.048 . S
Mg52 O64 2.141 . S
C53 O54 1.313 . S
C53 O60 1.195 . S
O54 C53 1.313 . S
C55 O56 1.245 . S
C55 O64 1.289 . S
O56 C55 1.245 . S
C57 O58 1.245 . S
C57 O59 1.289 . S
O58 C57 1.245 . S
O59 Mg52 2.141 . S
O59 C57 1.289 . S
O60 Mg52 2.048 . S
O60 C53 1.195 . S
O61 Mg52 2.048 . S
O61 C62 1.195 . S
C62 O61 1.195 . S
C62 O63 1.313 . S
O63 C62 1.313 . S
O64 Mg52 2.141 . S
O64 C55 1.289 . S
Mg65 O72 2.141 . S
Mg65 O73 2.048 . S
Mg65 O74 2.048 . S
Mg65 O77 2.141 . S
C66 O67 1.313 . S
C66 O73 1.195 . S
O67 C66 1.313 . S
C68 O69 1.245 . S
C68 O77 1.289 . S
O69 C68 1.245 . S
C70 O71 1.245 . S
C70 O72 1.289 . S
O71 C70 1.245 . S
O72 Mg65 2.141 . S
O72 C70 1.289 . S
O73 Mg65 2.048 . S
O73 C66 1.195 . S
O74 Mg65 2.048 . S
O74 C75 1.195 . S
C75 O74 1.195 . S
C75 O76 1.313 . S
O76 C75 1.313 . S
O77 Mg65 2.141 . S
O77 C68 1.289 . S
Mg78 O85 2.141 . S
Mg78 O86 2.048 . S
Mg78 O87 2.048 . S
Mg78 O90 2.141 . S
C79 O80 1.313 . S
C79 O86 1.195 . S
O80 C79 1.313 . S
C81 O82 1.245 . S
C81 O90 1.289 . S
O82 C81 1.245 . S
C83 O84 1.245 . S
C83 O85 1.289 . S
O84 C83 1.245 . S
O85 Mg78 2.141 . S
O85 C83 1.289 . S
O86 Mg78 2.048 . S
O86 C79 1.195 . S
O87 Mg78 2.048 . S
O87 C88 1.195 . S
C88 O87 1.195 . S
C88 O89 1.313 . S
O89 C88 1.313 . S
O90 Mg78 2.141 . S
O90 C81 1.289 . S
Mg91 O98 2.141 . S
Mg91 O99 2.048 . S
Mg91 O100 2.048 . S
Mg91 O103 2.141 . S
C92 O93 1.313 . S
C92 O99 1.195 . S
O93 C92 1.313 . S
C94 O95 1.245 . S
C94 O103 1.289 . S
O95 C94 1.245 . S
C96 O97 1.245 . S
C96 O98 1.289 . S
O97 C96 1.245 . S
O98 Mg91 2.141 . S
O98 C96 1.289 . S
O99 Mg91 2.048 . S
O99 C92 1.195 . S
O100 Mg91 2.048 . S
O100 C101 1.195 . S
C101 O100 1.195 . S
C101 O102 1.313 . S
O102 C101 1.313 . S
O103 Mg91 2.141 . S
O103 C94 1.289 . S
Mg104 O111 2.141 . S
Mg104 O112 2.048 . S
Mg104 O113 2.048 . S
Mg104 O116 2.141 . S
C105 O106 1.313 . S
C105 O112 1.195 . S
O106 C105 1.313 . S
C107 O108 1.245 . S
C107 O116 1.289 . S
O108 C107 1.245 . S
C109 O110 1.245 . S
C109 O111 1.289 . S
O110 C109 1.245 . S
O111 Mg104 2.141 . S
O111 C109 1.289 . S
O112 Mg104 2.048 . S
O112 C105 1.195 . S
O113 Mg104 2.048 . S
O113 C114 1.195 . S
C114 O113 1.195 . S
C114 O115 1.313 . S
O115 C114 1.313 . S
O116 Mg104 2.141 . S
O116 C107 1.289 . S
Mg117 O124 2.141 . S
Mg117 O125 2.048 . S
Mg117 O126 2.048 . S
Mg117 O129 2.141 . S
C118 O119 1.313 . S
C118 O125 1.195 . S
O119 C118 1.313 . S
C120 O121 1.246 . S
C120 O129 1.281 1_556 S
O121 C120 1.246 . S
C122 O123 1.245 . S
C122 O124 1.289 1_556 S
O123 C122 1.245 . S
O124 Mg117 2.141 . S
O124 C122 1.289 1_554 S
O125 Mg117 2.048 . S
O125 C118 1.195 . S
O126 Mg117 2.048 . S
O126 C127 1.195 . S
C127 O126 1.195 . S
C127 O128 1.313 . S
O128 C127 1.313 . S
O129 Mg117 2.141 . S
O129 C120 1.281 1_554 S
Mg130 O137 2.141 . S
Mg130 O138 2.048 . S
Mg130 O139 2.048 . S
Mg130 O142 2.141 . S
C131 O132 1.313 . S
C131 O138 1.195 . S
O132 C131 1.313 . S
C133 O134 1.245 1_565 S
C133 O142 1.291 1_556 S
O134 C133 1.245 1_545 S
C135 O136 1.245 . S
C135 O137 1.289 1_556 S
O136 C135 1.245 . S
O137 Mg130 2.141 . S
O137 C135 1.289 1_554 S
O138 Mg130 2.048 . S
O138 C131 1.195 . S
O139 Mg130 2.048 . S
O139 C140 1.195 1_565 S
C140 O139 1.195 1_545 S
C140 O141 1.313 . S
O141 C140 1.313 . S
O142 Mg130 2.141 . S
O142 C133 1.291 1_554 S
Mg143 O150 2.141 . S
Mg143 O151 2.048 . S
Mg143 O152 2.048 . S
Mg143 O155 2.141 . S
C144 O145 1.313 . S
C144 O151 1.195 . S
O145 C144 1.313 . S
C146 O147 1.245 . S
C146 O155 1.289 1_556 S
O147 C146 1.245 . S
C148 O149 1.245 . S
C148 O150 1.289 1_556 S
O149 C148 1.245 . S
O150 Mg143 2.141 . S
O150 C148 1.289 1_554 S
O151 Mg143 2.048 . S
O151 C144 1.195 . S
O152 Mg143 2.048 . S
O152 C153 1.195 . S
C153 O152 1.195 . S
C153 O154 1.313 . S
O154 C153 1.313 . S
O155 Mg143 2.141 . S
O155 C146 1.289 1_554 S
Mg156 O163 2.141 . S
Mg156 O164 2.048 . S
Mg156 O165 2.048 . S
Mg156 O168 2.141 . S
C157 O158 1.313 . S
C157 O164 1.195 1_554 S
O158 C157 1.313 . S
C159 O160 1.245 . S
C159 O168 1.289 . S
O160 C159 1.245 . S
C161 O162 1.245 . S
C161 O163 1.289 . S
O162 C161 1.245 . S
O163 Mg156 2.141 . S
O163 C161 1.289 . S
O164 Mg156 2.048 . S
O164 C157 1.195 1_556 S
O165 Mg156 2.048 . S
O165 C166 1.195 1_556 S
C166 O165 1.195 1_554 S
C166 O167 1.313 . S
O167 C166 1.313 . S
O168 Mg156 2.141 . S
O168 C159 1.289 . S
Mg169 O176 2.141 . S
Mg169 O177 2.048 . S
Mg169 O178 2.048 . S
Mg169 O181 2.141 . S
C170 O171 1.313 . S
C170 O177 1.195 . S
O171 C170 1.313 . S
C172 O173 1.245 . S
C172 O181 1.289 . S
O173 C172 1.245 . S
C174 O175 1.245 . S
C174 O176 1.289 . S
O175 C174 1.245 . S
O176 Mg169 2.141 . S
O176 C174 1.289 . S
O177 Mg169 2.048 . S
O177 C170 1.195 . S
O178 Mg169 2.048 . S
O178 C179 1.195 . S
C179 O178 1.195 . S
C179 O180 1.313 . S
O180 C179 1.313 . S
O181 Mg169 2.141 . S
O181 C172 1.289 . S
Mg182 O189 2.141 . S
Mg182 O190 2.048 . S
Mg182 O191 2.048 . S
Mg182 O194 2.141 . S
C183 O184 1.313 . S
C183 O190 1.195 . S
O184 C183 1.313 . S
C185 O186 1.245 . S
C185 O194 1.289 . S
O186 C185 1.245 . S
C187 O188 1.245 . S
C187 O189 1.289 . S
O188 C187 1.245 . S
O189 Mg182 2.141 . S
O189 C187 1.289 . S
O190 Mg182 2.048 . S
O190 C183 1.195 . S
O191 Mg182 2.048 . S
O191 C192 1.195 . S
C192 O191 1.195 . S
C192 O193 1.313 . S
O193 C192 1.313 . S
O194 Mg182 2.141 . S
O194 C185 1.289 . S
Mg195 O202 2.141 . S
Mg195 O203 2.048 . S
Mg195 O204 2.048 . S
Mg195 O207 2.141 . S
C196 O197 1.313 . S
C196 O203 1.195 . S
O197 C196 1.313 . S
C198 O199 1.245 . S
C198 O207 1.289 . S
O199 C198 1.245 . S
C200 O201 1.245 . S
C200 O202 1.289 . S
O201 C200 1.245 . S
O202 Mg195 2.141 . S
O202 C200 1.289 . S
O203 Mg195 2.048 . S
O203 C196 1.195 . S
O204 Mg195 2.048 . S
O204 C205 1.195 . S
C205 O204 1.195 . S
C205 O206 1.313 . S
O206 C205 1.313 . S
O207 Mg195 2.141 . S
O207 C198 1.289 . S
Mg208 O215 2.141 . S
Mg208 O216 2.048 . S
Mg208 O217 2.048 . S
Mg208 O220 2.141 . S
C209 O210 1.313 . S
C209 O216 1.195 . S
O210 C209 1.313 . S
C211 O212 1.245 . S
C211 O220 1.289 . S
O212 C211 1.245 . S
C213 O214 1.245 . S
C213 O215 1.289 . S
O214 C213 1.245 . S
O215 Mg208 2.141 . S
O215 C213 1.289 . S
O216 Mg208 2.048 . S
O216 C209 1.195 . S
O217 Mg208 2.048 . S
O217 C218 1.195 . S
C218 O217 1.195 . S
C218 O219 1.313 . S
O219 C218 1.313 . S
O220 Mg208 2.141 . S
O220 C211 1.289 . S
Mg221 O228 2.141 . S
Mg221 O229 2.048 . S
Mg221 O230 2.048 . S
Mg221 O233 2.141 . S
C222 O223 1.313 . S
C222 O229 1.195 . S
O223 C222 1.313 . S
C224 O225 1.245 . S
C224 O233 1.289 . S
O225 C224 1.245 . S
C226 O227 1.245 . S
C226 O228 1.289 . S
O227 C226 1.245 . S
O228 Mg221 2.141 . S
O228 C226 1.289 . S
O229 Mg221 2.048 . S
O229 C222 1.195 . S
O230 Mg221 2.048 . S
O230 C231 1.195 . S
C231 O230 1.195 . S
C231 O232 1.313 . S
O232 C231 1.313 . S
O233 Mg221 2.141 . S
O233 C224 1.289 . S
H234 C240 0.930 . S
H235 C244 0.930 . S
H236 C249 0.929 . S
H237 C247 0.929 . S
H238 C242 0.929 1_556 S
H239 C248 0.929 1_554 S
C240 H234 0.930 . S
C240 C241 1.367 . S
C240 C248 1.378 . S
C241 C240 1.367 . S
C241 C249 1.433 . S
C242 H238 0.929 1_554 S
C242 C244 1.378 . S
C242 C246 1.350 . S
C243 C246 1.463 1_556 S
C243 C248 1.350 . S
C243 N251 1.427 . S
C244 H235 0.930 . S
C244 C242 1.378 . S
C244 C245 1.367 . S
C245 C244 1.367 . S
C245 C247 1.433 . S
C246 C242 1.350 . S
C246 C243 1.463 1_554 S
C246 N250 1.427 . S
C247 H237 0.929 . S
C247 C245 1.433 . S
C247 N250 1.384 . S
C248 H239 0.929 1_556 S
C248 C240 1.378 . S
C248 C243 1.350 . S
C249 H236 0.929 . S
C249 C241 1.433 . S
C249 N251 1.384 . S
N250 C246 1.427 . S
N250 C247 1.384 . S
N251 C243 1.427 . S
N251 C249 1.384 . S
H252 C258 0.930 . S
H253 C262 0.930 . S
H254 C267 0.929 . S
H255 C265 0.929 . S
H256 C260 0.929 . S
H257 C266 0.929 1_554 S
C258 H252 0.930 . S
C258 C259 1.367 . S
C258 C266 1.378 . S
C259 C258 1.367 . S
C259 C267 1.433 . S
C260 H256 0.929 . S
C260 C262 1.378 . S
C260 C264 1.350 . S
C261 C264 1.463 1_556 S
C261 C266 1.350 . S
C261 N269 1.427 . S
C262 H253 0.930 . S
C262 C260 1.378 . S
C262 C263 1.367 . S
C263 C262 1.367 . S
C263 C265 1.433 . S
C264 C260 1.350 . S
C264 C261 1.463 1_554 S
C264 N268 1.427 . S
C265 H255 0.929 . S
C265 C263 1.433 . S
C265 N268 1.384 . S
C266 H257 0.929 1_556 S
C266 C258 1.378 . S
C266 C261 1.350 . S
C267 H254 0.929 . S
C267 C259 1.433 . S
C267 N269 1.384 . S
N268 C264 1.427 . S
N268 C265 1.384 . S
N269 C261 1.427 . S
N269 C267 1.384 . S
H270 C276 0.930 . S
H271 C280 0.930 . S
H272 C285 0.929 . S
H273 C283 0.929 . S
H274 C278 0.929 . S
H275 C284 0.929 . S
C276 H270 0.930 . S
C276 C277 1.367 . S
C276 C284 1.378 . S
C277 C276 1.367 . S
C277 C285 1.433 . S
C278 H274 0.929 . S
C278 C280 1.378 . S
C278 C282 1.350 . S
C279 C282 1.463 1_554 S
C279 C284 1.350 . S
C279 N287 1.427 . S
C280 H271 0.930 . S
C280 C278 1.378 . S
C280 C281 1.367 . S
C281 C280 1.367 . S
C281 C283 1.433 . S
C282 C278 1.350 . S
C282 C279 1.463 1_556 S
C282 N286 1.427 . S
C283 H273 0.929 . S
C283 C281 1.433 . S
C283 N286 1.384 . S
C284 H275 0.929 . S
C284 C276 1.378 . S
C284 C279 1.350 . S
C285 H272 0.929 . S
C285 C277 1.433 . S
C285 N287 1.384 . S
N286 C282 1.427 . S
N286 C283 1.384 . S
N287 C279 1.427 . S
N287 C285 1.384 . S
H288 C294 0.930 . S
H289 C298 0.930 . S
H290 C303 0.929 . S
H291 C301 0.929 . S
H292 C296 0.929 . S
H293 C302 0.929 . S
C294 H288 0.930 . S
C294 C295 1.367 . S
C294 C302 1.378 . S
C295 C294 1.367 . S
C295 C303 1.433 . S
C296 H292 0.929 . S
C296 C298 1.378 . S
C296 C300 1.350 . S
C297 C300 1.463 . S
C297 C302 1.350 . S
C297 N305 1.427 . S
C298 H289 0.930 . S
C298 C296 1.378 . S
C298 C299 1.367 . S
C299 C298 1.367 . S
C299 C301 1.433 . S
C300 C296 1.350 . S
C300 C297 1.463 . S
C300 N304 1.427 . S
C301 H291 0.929 . S
C301 C299 1.433 . S
C301 N304 1.384 . S
C302 H293 0.929 . S
C302 C294 1.378 . S
C302 C297 1.350 . S
C303 H290 0.929 . S
C303 C295 1.433 . S
C303 N305 1.384 . S
N304 C300 1.427 . S
N304 C301 1.384 . S
N305 C297 1.427 . S
N305 C303 1.384 . S
H306 C312 0.930 . S
H307 C316 0.930 . S
H308 C321 0.929 . S
H309 C319 0.929 . S
H310 C314 0.929 . S
H311 C320 0.929 . S
C312 H306 0.930 . S
C312 C313 1.367 . S
C312 C320 1.378 . S
C313 C312 1.367 . S
C313 C321 1.433 . S
C314 H310 0.929 . S
C314 C316 1.378 . S
C314 C318 1.350 . S
C315 C318 1.463 . S
C315 C320 1.350 . S
C315 N323 1.427 . S
C316 H307 0.930 . S
C316 C314 1.378 . S
C316 C317 1.367 . S
C317 C316 1.367 . S
C317 C319 1.433 . S
C318 C314 1.350 . S
C318 C315 1.463 . S
C318 N322 1.427 . S
C319 H309 0.929 . S
C319 C317 1.433 . S
C319 N322 1.384 . S
C320 H311 0.929 . S
C320 C312 1.378 . S
C320 C315 1.350 . S
C321 H308 0.929 . S
C321 C313 1.433 . S
C321 N323 1.384 . S
N322 C318 1.427 . S
N322 C319 1.384 . S
N323 C315 1.427 . S
N323 C321 1.384 . S
H324 C330 0.930 . S
H325 C334 0.930 . S
H326 C339 0.929 . S
H327 C337 0.929 . S
H328 C332 0.929 . S
H329 C338 0.929 . S
C330 H324 0.930 . S
C330 C331 1.367 . S
C330 C338 1.378 . S
C331 C330 1.367 . S
C331 C339 1.433 . S
C332 H328 0.929 . S
C332 C334 1.378 . S
C332 C336 1.350 . S
C333 C336 1.463 . S
C333 C338 1.350 . S
C333 N341 1.427 . S
C334 H325 0.930 . S
C334 C332 1.378 . S
C334 C335 1.367 . S
C335 C334 1.367 . S
C335 C337 1.433 . S
C336 C332 1.350 . S
C336 C333 1.463 . S
C336 N340 1.427 . S
C337 H327 0.929 . S
C337 C335 1.433 . S
C337 N340 1.384 . S
C338 H329 0.929 . S
C338 C330 1.378 . S
C338 C333 1.350 . S
C339 H326 0.929 . S
C339 C331 1.433 . S
C339 N341 1.384 . S
N340 C336 1.427 . S
N340 C337 1.384 . S
N341 C333 1.427 . S
N341 C339 1.384 . S
H342 C348 0.930 . S
H343 C352 0.930 . S
H344 C357 0.929 . S
H345 C355 0.929 . S
H346 C350 0.929 . S
H347 C356 0.929 . S
C348 H342 0.930 . S
C348 C349 1.367 . S
C348 C356 1.378 . S
C349 C348 1.367 . S
C349 C357 1.433 . S
C350 H346 0.929 . S
C350 C352 1.378 . S
C350 C354 1.350 . S
C351 C354 1.463 . S
C351 C356 1.350 . S
C351 N359 1.427 . S
C352 H343 0.930 . S
C352 C350 1.378 . S
C352 C353 1.367 . S
C353 C352 1.367 . S
C353 C355 1.433 . S
C354 C350 1.350 . S
C354 C351 1.463 . S
C354 N358 1.427 . S
C355 H345 0.929 . S
C355 C353 1.433 . S
C355 N358 1.384 . S
C356 H347 0.929 . S
C356 C348 1.378 . S
C356 C351 1.350 . S
C357 H344 0.929 . S
C357 C349 1.433 . S
C357 N359 1.384 . S
N358 C354 1.427 . S
N358 C355 1.384 . S
N359 C351 1.427 . S
N359 C357 1.384 . S
H360 C366 0.930 . S
H361 C370 0.930 . S
H362 C375 0.929 . S
H363 C373 0.929 . S
H364 C368 0.929 . S
H365 C374 0.929 . S
C366 H360 0.930 . S
C366 C367 1.367 . S
C366 C374 1.378 . S
C367 C366 1.367 . S
C367 C375 1.433 . S
C368 H364 0.929 . S
C368 C370 1.378 . S
C368 C372 1.350 . S
C369 C372 1.463 . S
C369 C374 1.350 . S
C369 N377 1.427 . S
C370 H361 0.930 . S
C370 C368 1.378 . S
C370 C371 1.367 . S
C371 C370 1.367 . S
C371 C373 1.433 . S
C372 C368 1.350 . S
C372 C369 1.463 . S
C372 N376 1.427 . S
C373 H363 0.929 . S
C373 C371 1.433 . S
C373 N376 1.384 . S
C374 H365 0.929 . S
C374 C366 1.378 . S
C374 C369 1.350 . S
C375 H362 0.929 . S
C375 C367 1.433 . S
C375 N377 1.384 . S
N376 C372 1.427 . S
N376 C373 1.384 . S
N377 C369 1.427 . S
N377 C375 1.384 . S
H378 C384 0.930 . S
H379 C388 0.930 . S
H380 C393 0.929 . S
H381 C391 0.929 . S
H382 C386 0.929 . S
H383 C392 0.929 . S
C384 H378 0.930 . S
C384 C385 1.367 . S
C384 C392 1.378 . S
C385 C384 1.367 . S
C385 C393 1.433 . S
C386 H382 0.929 . S
C386 C388 1.378 . S
C386 C390 1.350 . S
C387 C390 1.463 . S
C387 C392 1.350 . S
C387 N395 1.427 . S
C388 H379 0.930 . S
C388 C386 1.378 . S
C388 C389 1.367 . S
C389 C388 1.367 . S
C389 C391 1.433 . S
C390 C386 1.350 . S
C390 C387 1.463 . S
C390 N394 1.427 . S
C391 H381 0.929 . S
C391 C389 1.433 . S
C391 N394 1.384 . S
C392 H383 0.929 . S
C392 C384 1.378 . S
C392 C387 1.350 . S
C393 H380 0.929 . S
C393 C385 1.433 . S
C393 N395 1.384 . S
N394 C390 1.427 . S
N394 C391 1.384 . S
N395 C387 1.427 . S
N395 C393 1.384 . S
H396 C402 0.930 . S
H397 C406 0.930 . S
H398 C411 0.929 . S
H399 C409 0.929 . S
H400 C404 0.929 . S
H401 C410 0.929 . S
C402 H396 0.930 . S
C402 C403 1.367 . S
C402 C410 1.378 . S
C403 C402 1.367 . S
C403 C411 1.433 . S
C404 H400 0.929 . S
C404 C406 1.378 . S
C404 C408 1.350 . S
C405 C408 1.463 . S
C405 C410 1.350 . S
C405 N413 1.427 . S
C406 H397 0.930 . S
C406 C404 1.378 . S
C406 C407 1.367 . S
C407 C406 1.367 . S
C407 C409 1.433 . S
C408 C404 1.350 . S
C408 C405 1.463 . S
C408 N412 1.427 . S
C409 H399 0.929 . S
C409 C407 1.433 . S
C409 N412 1.384 . S
C410 H401 0.929 . S
C410 C402 1.378 . S
C410 C405 1.350 . S
C411 H398 0.929 . S
C411 C403 1.433 . S
C411 N413 1.384 . S
N412 C408 1.427 . S
N412 C409 1.384 . S
N413 C405 1.427 . S
N413 C411 1.384 . S
H414 C420 0.930 . S
H415 C424 0.930 . S
H416 C429 0.929 . S
H417 C427 0.929 . S
H418 C422 0.929 . S
H419 C428 0.929 . S
C420 H414 0.930 . S
C420 C421 1.367 . S
C420 C428 1.378 . S
C421 C420 1.367 . S
C421 C429 1.433 . S
C422 H418 0.929 . S
C422 C424 1.378 . S
C422 C426 1.350 . S
C423 C426 1.463 . S
C423 C428 1.350 . S
C423 N431 1.427 . S
C424 H415 0.930 . S
C424 C422 1.378 . S
C424 C425 1.367 . S
C425 C424 1.367 . S
C425 C427 1.433 . S
C426 C422 1.350 . S
C426 C423 1.463 . S
C426 N430 1.427 . S
C427 H417 0.929 . S
C427 C425 1.433 . S
C427 N430 1.384 . S
C428 H419 0.929 . S
C428 C420 1.378 . S
C428 C423 1.350 . S
C429 H416 0.929 . S
C429 C421 1.433 . S
C429 N431 1.384 . S
N430 C426 1.427 . S
N430 C427 1.384 . S
N431 C423 1.427 . S
N431 C429 1.384 . S
H432 C438 0.930 . S
H433 C442 0.930 . S
H434 C447 0.929 . S
H435 C445 0.929 . S
H436 C440 0.929 . S
H437 C446 0.929 . S
C438 H432 0.930 . S
C438 C439 1.367 . S
C438 C446 1.378 . S
C439 C438 1.367 . S
C439 C447 1.433 . S
C440 H436 0.929 . S
C440 C442 1.378 . S
C440 C444 1.350 . S
C441 C444 1.463 . S
C441 C446 1.350 . S
C441 N449 1.427 . S
C442 H433 0.930 . S
C442 C440 1.378 . S
C442 C443 1.367 . S
C443 C442 1.367 . S
C443 C445 1.433 . S
C444 C440 1.350 . S
C444 C441 1.463 . S
C444 N448 1.427 . S
C445 H435 0.929 . S
C445 C443 1.433 . S
C445 N448 1.384 . S
C446 H437 0.929 . S
C446 C438 1.378 . S
C446 C441 1.350 . S
C447 H434 0.929 . S
C447 C439 1.433 . S
C447 N449 1.384 . S
N448 C444 1.427 . S
N448 C445 1.384 . S
N449 C441 1.427 . S
N449 C447 1.384 . S
H450 C456 0.930 . S
H451 C460 0.930 . S
H452 C465 0.929 . S
H453 C463 0.929 . S
H454 C458 0.929 . S
H455 C464 0.929 . S
C456 H450 0.930 . S
C456 C457 1.367 . S
C456 C464 1.378 . S
C457 C456 1.367 . S
C457 C465 1.433 . S
C458 H454 0.929 . S
C458 C460 1.378 . S
C458 C462 1.350 . S
C459 C462 1.463 . S
C459 C464 1.350 . S
C459 N467 1.427 . S
C460 H451 0.930 . S
C460 C458 1.378 . S
C460 C461 1.367 . S
C461 C460 1.367 . S
C461 C463 1.433 . S
C462 C458 1.350 . S
C462 C459 1.463 . S
C462 N466 1.427 . S
C463 H453 0.929 . S
C463 C461 1.433 . S
C463 N466 1.384 . S
C464 H455 0.929 . S
C464 C456 1.378 . S
C464 C459 1.350 . S
C465 H452 0.929 . S
C465 C457 1.433 . S
C465 N467 1.384 . S
N466 C462 1.427 . S
N466 C463 1.384 . S
N467 C459 1.427 . S
N467 C465 1.384 . S
H468 C474 0.930 . S
H469 C478 0.930 . S
H470 C483 0.929 . S
H471 C481 0.929 . S
H472 C476 0.929 . S
H473 C482 0.929 . S
C474 H468 0.930 . S
C474 C475 1.367 . S
C474 C482 1.378 . S
C475 C474 1.367 . S
C475 C483 1.433 . S
C476 H472 0.929 . S
C476 C478 1.378 . S
C476 C480 1.350 . S
C477 C480 1.463 . S
C477 C482 1.350 . S
C477 N485 1.427 . S
C478 H469 0.930 . S
C478 C476 1.378 . S
C478 C479 1.367 . S
C479 C478 1.367 . S
C479 C481 1.433 . S
C480 C476 1.350 . S
C480 C477 1.463 . S
C480 N484 1.427 . S
C481 H471 0.929 . S
C481 C479 1.433 . S
C481 N484 1.384 . S
C482 H473 0.929 . S
C482 C474 1.378 . S
C482 C477 1.350 . S
C483 H470 0.929 . S
C483 C475 1.433 . S
C483 N485 1.384 . S
N484 C480 1.427 . S
N484 C481 1.384 . S
N485 C477 1.427 . S
N485 C483 1.384 . S
H486 C492 0.930 . S
H487 C496 0.930 . S
H488 C501 0.929 . S
H489 C499 0.929 . S
H490 C494 0.929 . S
H491 C500 0.929 . S
C492 H486 0.930 . S
C492 C493 1.367 . S
C492 C500 1.378 . S
C493 C492 1.367 . S
C493 C501 1.433 . S
C494 H490 0.929 . S
C494 C496 1.378 . S
C494 C498 1.350 . S
C495 C498 1.463 . S
C495 C500 1.350 . S
C495 N503 1.427 . S
C496 H487 0.930 . S
C496 C494 1.378 . S
C496 C497 1.367 . S
C497 C496 1.367 . S
C497 C499 1.433 . S
C498 C494 1.350 . S
C498 C495 1.463 . S
C498 N502 1.427 . S
C499 H489 0.929 . S
C499 C497 1.433 . S
C499 N502 1.384 . S
C500 H491 0.929 . S
C500 C492 1.378 . S
C500 C495 1.350 . S
C501 H488 0.929 . S
C501 C493 1.433 . S
C501 N503 1.384 . S
N502 C498 1.427 . S
N502 C499 1.384 . S
N503 C495 1.427 . S
N503 C501 1.384 . S
H504 C510 0.930 . S
H505 C514 0.930 . S
H506 C519 0.929 . S
H507 C517 0.929 . S
H508 C512 0.929 . S
H509 C518 0.929 . S
C510 H504 0.930 . S
C510 C511 1.367 . S
C510 C518 1.378 . S
C511 C510 1.367 . S
C511 C519 1.433 . S
C512 H508 0.929 . S
C512 C514 1.378 . S
C512 C516 1.350 . S
C513 C516 1.463 . S
C513 C518 1.350 . S
C513 N521 1.427 . S
C514 H505 0.930 . S
C514 C512 1.378 . S
C514 C515 1.367 . S
C515 C514 1.367 . S
C515 C517 1.433 . S
C516 C512 1.350 . S
C516 C513 1.463 . S
C516 N520 1.427 . S
C517 H507 0.929 . S
C517 C515 1.433 . S
C517 N520 1.384 . S
C518 H509 0.929 . S
C518 C510 1.378 . S
C518 C513 1.350 . S
C519 H506 0.929 . S
C519 C511 1.433 . S
C519 N521 1.384 . S
N520 C516 1.427 . S
N520 C517 1.384 . S
N521 C513 1.427 . S
N521 C519 1.384 . S
H522 C528 0.930 . S
H523 C532 0.930 . S
H524 C537 0.929 . S
H525 C535 0.929 . S
H526 C530 0.929 . S
H527 C536 0.929 . S
C528 H522 0.930 . S
C528 C529 1.367 . S
C528 C536 1.378 . S
C529 C528 1.367 . S
C529 C537 1.433 . S
C530 H526 0.929 . S
C530 C532 1.378 . S
C530 C534 1.350 . S
C531 C534 1.463 . S
C531 C536 1.350 . S
C531 N539 1.427 . S
C532 H523 0.930 . S
C532 C530 1.378 . S
C532 C533 1.367 . S
C533 C532 1.367 . S
C533 C535 1.433 . S
C534 C530 1.350 . S
C534 C531 1.463 . S
C534 N538 1.427 . S
C535 H525 0.929 . S
C535 C533 1.433 . S
C535 N538 1.384 . S
C536 H527 0.929 . S
C536 C528 1.378 . S
C536 C531 1.350 . S
C537 H524 0.929 . S
C537 C529 1.433 . S
C537 N539 1.384 . S
N538 C534 1.427 . S
N538 C535 1.384 . S
N539 C531 1.427 . S
N539 C537 1.384 . S
H540 C546 0.930 . S
H541 C550 0.930 . S
H542 C555 0.929 . S
H543 C553 0.929 . S
H544 C548 0.929 . S
H545 C554 0.929 . S
C546 H540 0.930 . S
C546 C547 1.367 . S
C546 C554 1.378 . S
C547 C546 1.367 . S
C547 C555 1.433 . S
C548 H544 0.929 . S
C548 C550 1.378 . S
C548 C552 1.350 . S
C549 C552 1.463 . S
C549 C554 1.350 . S
C549 N557 1.427 . S
C550 H541 0.930 . S
C550 C548 1.378 . S
C550 C551 1.367 . S
C551 C550 1.367 . S
C551 C553 1.433 . S
C552 C548 1.350 . S
C552 C549 1.463 . S
C552 N556 1.427 . S
C553 H543 0.929 . S
C553 C551 1.433 . S
C553 N556 1.384 . S
C554 H545 0.929 . S
C554 C546 1.378 . S
C554 C549 1.350 . S
C555 H542 0.929 . S
C555 C547 1.433 . S
C555 N557 1.384 . S
N556 C552 1.427 . S
N556 C553 1.384 . S
N557 C549 1.427 . S
N557 C555 1.384 . S
H558 C564 0.930 . S
H559 C568 0.930 . S
H560 C573 0.929 . S
H561 C571 0.929 . S
H562 C566 0.929 . S
H563 C572 0.929 . S
C564 H558 0.930 . S
C564 C565 1.367 . S
C564 C572 1.378 . S
C565 C564 1.367 . S
C565 C573 1.433 . S
C566 H562 0.929 . S
C566 C568 1.378 . S
C566 C570 1.350 . S
C567 C570 1.463 . S
C567 C572 1.350 . S
C567 N575 1.427 . S
C568 H559 0.930 . S
C568 C566 1.378 . S
C568 C569 1.367 . S
C569 C568 1.367 . S
C569 C571 1.433 . S
C570 C566 1.350 . S
C570 C567 1.463 . S
C570 N574 1.427 . S
C571 H561 0.929 . S
C571 C569 1.433 . S
C571 N574 1.384 . S
C572 H563 0.929 . S
C572 C564 1.378 . S
C572 C567 1.350 . S
C573 H560 0.929 . S
C573 C565 1.433 . S
C573 N575 1.384 . S
N574 C570 1.427 . S
N574 C571 1.384 . S
N575 C567 1.427 . S
N575 C573 1.384 . S
H576 C582 0.930 . S
H577 C586 0.930 . S
H578 C591 0.929 . S
H579 C589 0.929 . S
H580 C584 0.929 . S
H581 C590 0.929 . S
C582 H576 0.930 . S
C582 C583 1.367 . S
C582 C590 1.378 . S
C583 C582 1.367 . S
C583 C591 1.433 . S
C584 H580 0.929 . S
C584 C586 1.378 . S
C584 C588 1.350 . S
C585 C588 1.463 . S
C585 C590 1.350 . S
C585 N593 1.427 . S
C586 H577 0.930 . S
C586 C584 1.378 . S
C586 C587 1.367 . S
C587 C586 1.367 . S
C587 C589 1.433 . S
C588 C584 1.350 . S
C588 C585 1.463 . S
C588 N592 1.427 . S
C589 H579 0.929 . S
C589 C587 1.433 . S
C589 N592 1.384 . S
C590 H581 0.929 . S
C590 C582 1.378 . S
C590 C585 1.350 . S
C591 H578 0.929 . S
C591 C583 1.433 . S
C591 N593 1.384 . S
N592 C588 1.427 . S
N592 C589 1.384 . S
N593 C585 1.427 . S
N593 C591 1.384 . S
H594 C600 0.930 . S
H595 C604 0.930 . S
H596 C609 0.929 . S
H597 C607 0.929 . S
H598 C602 0.929 . S
H599 C608 0.929 . S
C600 H594 0.930 . S
C600 C601 1.367 . S
C600 C608 1.378 . S
C601 C600 1.367 . S
C601 C609 1.433 1_545 S
C602 H598 0.929 . S
C602 C604 1.378 . S
C602 C606 1.350 . S
C603 C606 1.463 . S
C603 C608 1.350 . S
C603 N611 1.427 . S
C604 H595 0.930 . S
C604 C602 1.378 . S
C604 C605 1.367 . S
C605 C604 1.367 . S
C605 C607 1.433 . S
C606 C602 1.350 . S
C606 C603 1.463 . S
C606 N610 1.427 . S
C607 H597 0.929 . S
C607 C605 1.433 . S
C607 N610 1.384 . S
C608 H599 0.929 . S
C608 C600 1.378 . S
C608 C603 1.350 . S
C609 H596 0.929 . S
C609 C601 1.433 1_565 S
C609 N611 1.384 1_565 S
N610 C606 1.427 . S
N610 C607 1.384 . S
N611 C603 1.427 . S
N611 C609 1.384 1_545 S
H612 C618 0.930 . S
H613 C622 0.930 . S
H614 C627 0.929 . S
H615 C625 0.929 . S
H616 C620 0.929 . S
H617 C626 0.929 . S
C618 H612 0.930 . S
C618 C619 1.367 . S
C618 C626 1.378 . S
C619 C618 1.367 . S
C619 C627 1.433 . S
C620 H616 0.929 . S
C620 C622 1.378 . S
C620 C624 1.350 . S
C621 C624 1.463 . S
C621 C626 1.350 . S
C621 N629 1.427 . S
C622 H613 0.930 . S
C622 C620 1.378 . S
C622 C623 1.367 . S
C623 C622 1.367 . S
C623 C625 1.433 1_554 S
C624 C620 1.350 . S
C624 C621 1.463 . S
C624 N628 1.427 . S
C625 H615 0.929 . S
C625 C623 1.433 1_556 S
C625 N628 1.384 1_556 S
C626 H617 0.929 . S
C626 C618 1.378 . S
C626 C621 1.350 . S
C627 H614 0.929 . S
C627 C619 1.433 . S
C627 N629 1.384 . S
N628 C624 1.427 . S
N628 C625 1.384 1_554 S
N629 C621 1.427 . S
N629 C627 1.384 . S
H630 C636 0.930 . S
H631 C640 0.930 . S
H632 C645 0.929 1_556 S
H633 C643 0.929 . S
H634 C638 0.929 . S
H635 C644 0.929 . S
C636 H630 0.930 . S
C636 C637 1.367 . S
C636 C644 1.378 . S
C637 C636 1.367 . S
C637 C645 1.433 . S
C638 H634 0.929 . S
C638 C640 1.378 . S
C638 C642 1.350 . S
C639 C642 1.463 . S
C639 C644 1.350 . S
C639 N647 1.427 . S
C640 H631 0.930 . S
C640 C638 1.378 . S
C640 C641 1.367 1_655 S
C641 C640 1.367 1_455 S
C641 C643 1.433 . S
C642 C638 1.350 . S
C642 C639 1.463 . S
C642 N646 1.427 1_655 S
C643 H633 0.929 . S
C643 C641 1.433 . S
C643 N646 1.384 . S
C644 H635 0.929 . S
C644 C636 1.378 . S
C644 C639 1.350 . S
C645 H632 0.929 1_554 S
C645 C637 1.433 . S
C645 N647 1.384 . S
N646 C642 1.427 1_455 S
N646 C643 1.384 . S
N647 C639 1.427 . S
N647 C645 1.384 . S
H648 C654 0.930 1_556 S
H649 C658 0.930 . S
H650 C663 0.929 . S
H651 C661 0.929 . S
H652 C656 0.929 . S
H653 C662 0.929 . S
C654 H648 0.930 1_554 S
C654 C655 1.367 . S
C654 C662 1.378 . S
C655 C654 1.367 . S
C655 C663 1.433 . S
C656 H652 0.929 . S
C656 C658 1.378 . S
C656 C660 1.350 . S
C657 C660 1.463 . S
C657 C662 1.350 . S
C657 N665 1.427 . S
C658 H649 0.930 . S
C658 C656 1.378 . S
C658 C659 1.367 . S
C659 C658 1.367 . S
C659 C661 1.433 . S
C660 C656 1.350 . S
C660 C657 1.463 . S
C660 N664 1.427 . S
C661 H651 0.929 . S
C661 C659 1.433 . S
C661 N664 1.384 . S
C662 H653 0.929 . S
C662 C654 1.378 . S
C662 C657 1.350 . S
C663 H650 0.929 . S
C663 C655 1.433 . S
C663 N665 1.384 . S
N664 C660 1.427 . S
N664 C661 1.384 . S
N665 C657 1.427 . S
N665 C663 1.384 . S
H666 C672 0.930 . S
H667 C676 0.914 1_655 S
H668 C681 0.929 . S
H669 C679 0.929 . S
H670 C674 0.929 . S
H671 C680 0.933 . S
C672 H666 0.930 . S
C672 C673 1.367 . S
C672 C680 1.378 . S
C673 C672 1.367 . S
C673 C681 1.433 . S
C674 H670 0.929 . S
C674 C676 1.378 1_655 S
C674 C678 1.350 . S
C675 C678 1.463 . S
C675 C680 1.350 . S
C675 N683 1.427 . S
C676 H667 0.914 1_455 S
C676 C674 1.378 1_455 S
C676 C677 1.367 . S
C677 C676 1.367 . S
C677 C679 1.433 . S
C678 C674 1.350 . S
C678 C675 1.463 . S
C678 N682 1.427 1_655 S
C679 H669 0.929 . S
C679 C677 1.433 . S
C679 N682 1.384 . S
C680 H671 0.933 . S
C680 C672 1.378 . S
C680 C675 1.350 . S
C681 H668 0.929 . S
C681 C673 1.433 . S
C681 N683 1.384 . S
N682 C678 1.427 1_455 S
N682 C679 1.384 . S
N683 C675 1.427 . S
N683 C681 1.384 . S
H684 C690 0.930 . S
H685 C694 0.930 . S
H686 C699 0.929 . S
H687 C697 0.929 . S
H688 C692 0.929 . S
H689 C698 0.929 . S
C690 H684 0.930 . S
C690 C691 1.367 . S
C690 C698 1.378 . S
C691 C690 1.367 . S
C691 C699 1.433 . S
C692 H688 0.929 . S
C692 C694 1.378 . S
C692 C696 1.350 . S
C693 C696 1.463 . S
C693 C698 1.350 . S
C693 N701 1.427 . S
C694 H685 0.930 . S
C694 C692 1.378 . S
C694 C695 1.367 . S
C695 C694 1.367 . S
C695 C697 1.433 . S
C696 C692 1.350 . S
C696 C693 1.463 . S
C696 N700 1.427 . S
C697 H687 0.929 . S
C697 C695 1.433 . S
C697 N700 1.384 . S
C698 H689 0.929 . S
C698 C690 1.378 . S
C698 C693 1.350 . S
C699 H686 0.929 . S
C699 C691 1.433 . S
C699 N701 1.384 . S
N700 C696 1.427 . S
N700 C697 1.384 . S
N701 C693 1.427 . S
N701 C699 1.384 . S
H702 C708 0.930 . S
H703 C712 0.930 . S
H704 C717 0.929 . S
H705 C715 0.929 . S
H706 C710 0.929 . S
H707 C716 0.929 . S
C708 H702 0.930 . S
C708 C709 1.367 . S
C708 C716 1.378 . S
C709 C708 1.367 . S
C709 C717 1.433 . S
C710 H706 0.929 . S
C710 C712 1.378 . S
C710 C714 1.350 . S
C711 C714 1.463 . S
C711 C716 1.350 . S
C711 N719 1.427 . S
C712 H703 0.930 . S
C712 C710 1.378 . S
C712 C713 1.367 . S
C713 C712 1.367 . S
C713 C715 1.433 . S
C714 C710 1.350 . S
C714 C711 1.463 . S
C714 N718 1.427 . S
C715 H705 0.929 . S
C715 C713 1.433 . S
C715 N718 1.384 . S
C716 H707 0.929 . S
C716 C708 1.378 . S
C716 C711 1.350 . S
C717 H704 0.929 . S
C717 C709 1.433 . S
C717 N719 1.384 . S
N718 C714 1.427 . S
N718 C715 1.384 . S
N719 C711 1.427 . S
N719 C717 1.384 . S
H720 C726 0.930 . S
H721 C730 0.930 . S
H722 C735 0.929 1_565 S
H723 C733 0.929 . S
H724 C728 0.929 . S
H725 C734 0.929 1_554 S
C726 H720 0.930 . S
C726 C727 1.367 1_554 S
C726 C734 1.378 1_554 S
C727 C726 1.367 1_556 S
C727 C735 1.433 . S
C728 H724 0.929 . S
C728 C730 1.378 . S
C728 C732 1.350 . S
C729 C732 1.463 . S
C729 C734 1.350 . S
C729 N737 1.427 . S
C730 H721 0.930 . S
C730 C728 1.378 . S
C730 C731 1.367 . S
C731 C730 1.367 . S
C731 C733 1.433 . S
C732 C728 1.350 . S
C732 C729 1.463 . S
C732 N736 1.427 . S
C733 H723 0.929 . S
C733 C731 1.433 . S
C733 N736 1.384 . S
C734 H725 0.929 1_556 S
C734 C726 1.378 1_556 S
C734 C729 1.350 . S
C735 H722 0.929 1_545 S
C735 C727 1.433 . S
C735 N737 1.384 . S
N736 C732 1.427 . S
N736 C733 1.384 . S
N737 C729 1.427 . S
N737 C735 1.384 . S
H738 C744 0.930 . S
H739 C748 0.949 . S
H740 C753 0.929 . S
H741 C751 0.929 . S
H742 C746 0.929 1_554 S
H743 C752 0.929 . S
C744 H738 0.930 . S
C744 C745 1.367 . S
C744 C752 1.378 . S
C745 C744 1.367 . S
C745 C753 1.433 . S
C746 H742 0.929 1_556 S
C746 C748 1.371 1_556 S
C746 C750 1.350 . S
C747 C750 1.463 . S
C747 C752 1.350 . S
C747 N755 1.427 . S
C748 H739 0.949 . S
C748 C746 1.371 1_554 S
C748 C749 1.355 1_554 S
C749 C748 1.355 1_556 S
C749 C751 1.433 . S
C750 C746 1.350 . S
C750 C747 1.463 . S
C750 N754 1.427 . S
C751 H741 0.929 . S
C751 C749 1.433 . S
C751 N754 1.384 . S
C752 H743 0.929 . S
C752 C744 1.378 . S
C752 C747 1.350 . S
C753 H740 0.929 . S
C753 C745 1.433 . S
C753 N755 1.384 . S
N754 C750 1.427 . S
N754 C751 1.384 . S
N755 C747 1.427 . S
N755 C753 1.384 . S
H756 C762 0.930 . S
H757 C766 0.930 1_554 S
H758 C771 0.929 . S
H759 C769 0.929 . S
H760 C764 0.929 . S
H761 C770 0.929 . S
C762 H756 0.930 . S
C762 C763 1.367 . S
C762 C770 1.378 . S
C763 C762 1.367 . S
C763 C771 1.433 . S
C764 H760 0.929 . S
C764 C766 1.378 . S
C764 C768 1.350 . S
C765 C768 1.463 . S
C765 C770 1.350 . S
C765 N773 1.427 . S
C766 H757 0.930 1_556 S
C766 C764 1.378 . S
C766 C767 1.367 . S
C767 C766 1.367 . S
C767 C769 1.433 . S
C768 C764 1.350 . S
C768 C765 1.463 . S
C768 N772 1.427 . S
C769 H759 0.929 . S
C769 C767 1.433 . S
C769 N772 1.384 . S
C770 H761 0.929 . S
C770 C762 1.378 . S
C770 C765 1.350 . S
C771 H758 0.929 . S
C771 C763 1.433 . S
C771 N773 1.384 . S
N772 C768 1.427 . S
N772 C769 1.384 . S
N773 C765 1.427 . S
N773 C771 1.384 . S
H774 C780 0.930 . S
H775 C784 0.930 . S
H776 C789 0.929 . S
H777 C787 0.929 . S
H778 C782 0.929 . S
H779 C788 0.929 . S
C780 H774 0.930 . S
C780 C781 1.367 . S
C780 C788 1.378 . S
C781 C780 1.367 . S
C781 C789 1.433 . S
C782 H778 0.929 . S
C782 C784 1.378 . S
C782 C786 1.350 . S
C783 C786 1.463 . S
C783 C788 1.350 . S
C783 N791 1.427 . S
C784 H775 0.930 . S
C784 C782 1.378 . S
C784 C785 1.367 . S
C785 C784 1.367 . S
C785 C787 1.433 . S
C786 C782 1.350 . S
C786 C783 1.463 . S
C786 N790 1.427 . S
C787 H777 0.929 . S
C787 C785 1.433 . S
C787 N790 1.384 . S
C788 H779 0.929 . S
C788 C780 1.378 . S
C788 C783 1.350 . S
C789 H776 0.929 . S
C789 C781 1.433 . S
C789 N791 1.384 . S
N790 C786 1.427 . S
N790 C787 1.384 . S
N791 C783 1.427 . S
N791 C789 1.384 . S
H792 C798 0.930 . S
H793 C802 0.930 . S
H794 C807 0.929 . S
H795 C805 0.929 . S
H796 C800 0.929 . S
H797 C806 0.929 . S
C798 H792 0.930 . S
C798 C799 1.367 . S
C798 C806 1.378 . S
C799 C798 1.367 . S
C799 C807 1.433 . S
C800 H796 0.929 . S
C800 C802 1.378 1_455 S
C800 C804 1.350 . S
C801 C804 1.463 . S
C801 C806 1.350 . S
C801 N809 1.427 . S
C802 H793 0.930 . S
C802 C800 1.378 1_655 S
C802 C803 1.367 . S
C803 C802 1.367 . S
C803 C805 1.433 . S
C804 C800 1.350 . S
C804 C801 1.463 . S
C804 N808 1.427 . S
C805 H795 0.929 . S
C805 C803 1.433 . S
C805 N808 1.384 1_655 S
C806 H797 0.929 . S
C806 C798 1.378 . S
C806 C801 1.350 . S
C807 H794 0.929 . S
C807 C799 1.433 . S
C807 N809 1.384 . S
N808 C804 1.427 . S
N808 C805 1.384 1_455 S
N809 C801 1.427 . S
N809 C807 1.384 . S
H810 C816 0.930 . S
H811 C820 0.930 . S
H812 C825 0.929 . S
H813 C823 0.929 . S
H814 C818 0.929 . S
H815 C824 0.929 . S
C816 H810 0.930 . S
C816 C817 1.367 . S
C816 C824 1.378 . S
C817 C816 1.367 . S
C817 C825 1.433 . S
C818 H814 0.929 . S
C818 C820 1.378 . S
C818 C822 1.350 . S
C819 C822 1.463 . S
C819 C824 1.350 . S
C819 N827 1.427 . S
C820 H811 0.930 . S
C820 C818 1.378 . S
C820 C821 1.367 . S
C821 C820 1.367 . S
C821 C823 1.433 . S
C822 C818 1.350 . S
C822 C819 1.463 . S
C822 N826 1.427 . S
C823 H813 0.929 . S
C823 C821 1.433 . S
C823 N826 1.384 . S
C824 H815 0.929 . S
C824 C816 1.378 . S
C824 C819 1.350 . S
C825 H812 0.929 . S
C825 C817 1.433 . S
C825 N827 1.384 . S
N826 C822 1.427 . S
N826 C823 1.384 . S
N827 C819 1.427 . S
N827 C825 1.384 . S
H828 C834 0.930 1_655 S
H829 C838 0.930 . S
H830 C843 0.929 . S
H831 C841 0.929 . S
H832 C836 0.929 . S
H833 C842 0.929 . S
C834 H828 0.930 1_455 S
C834 C835 1.366 1_455 S
C834 C842 1.379 . S
C835 C834 1.366 1_655 S
C835 C843 1.433 . S
C836 H832 0.929 . S
C836 C838 1.378 . S
C836 C840 1.350 . S
C837 C840 1.463 . S
C837 C842 1.350 . S
C837 N845 1.427 . S
C838 H829 0.930 . S
C838 C836 1.378 . S
C838 C839 1.367 . S
C839 C838 1.367 . S
C839 C841 1.433 . S
C840 C836 1.350 . S
C840 C837 1.463 . S
C840 N844 1.427 . S
C841 H831 0.929 . S
C841 C839 1.433 . S
C841 N844 1.384 . S
C842 H833 0.929 . S
C842 C834 1.379 . S
C842 C837 1.350 . S
C843 H830 0.929 . S
C843 C835 1.433 . S
C843 N845 1.384 1_655 S
N844 C840 1.427 . S
N844 C841 1.384 . S
N845 C837 1.427 . S
N845 C843 1.384 1_455 S
H846 C852 0.930 . S
H847 C856 0.930 . S
H848 C861 0.929 . S
H849 C859 0.929 . S
H850 C854 0.929 . S
H851 C860 0.929 . S
C852 H846 0.930 . S
C852 C853 1.367 . S
C852 C860 1.378 . S
C853 C852 1.367 . S
C853 C861 1.433 . S
C854 H850 0.929 . S
C854 C856 1.378 . S
C854 C858 1.350 . S
C855 C858 1.463 . S
C855 C860 1.350 . S
C855 N863 1.427 . S
C856 H847 0.930 . S
C856 C854 1.378 . S
C856 C857 1.367 . S
C857 C856 1.367 . S
C857 C859 1.433 . S
C858 C854 1.350 . S
C858 C855 1.463 . S
C858 N862 1.427 . S
C859 H849 0.929 . S
C859 C857 1.433 . S
C859 N862 1.384 . S
C860 H851 0.929 . S
C860 C852 1.378 . S
C860 C855 1.350 . S
C861 H848 0.929 . S
C861 C853 1.433 . S
C861 N863 1.384 . S
N862 C858 1.427 . S
N862 C859 1.384 . S
N863 C855 1.427 . S
N863 C861 1.384 . S
H864 C870 0.930 . S
H865 C874 0.930 . S
H866 C879 0.929 . S
H867 C877 0.929 . S
H868 C872 0.929 . S
H869 C878 0.929 . S
C870 H864 0.930 . S
C870 C871 1.367 . S
C870 C878 1.378 . S
C871 C870 1.367 . S
C871 C879 1.433 . S
C872 H868 0.929 . S
C872 C874 1.378 . S
C872 C876 1.350 . S
C873 C876 1.463 . S
C873 C878 1.350 . S
C873 N881 1.427 . S
C874 H865 0.930 . S
C874 C872 1.378 . S
C874 C875 1.367 . S
C875 C874 1.367 . S
C875 C877 1.433 . S
C876 C872 1.350 . S
C876 C873 1.463 . S
C876 N880 1.427 . S
C877 H867 0.929 . S
C877 C875 1.433 . S
C877 N880 1.384 . S
C878 H869 0.929 . S
C878 C870 1.378 . S
C878 C873 1.350 . S
C879 H866 0.929 . S
C879 C871 1.433 . S
C879 N881 1.384 . S
N880 C876 1.427 . S
N880 C877 1.384 . S
N881 C873 1.427 . S
N881 C879 1.384 . S
C241 C44 1.881 . S
C245 C5 1.986 . S
C259 C57 1.897 . S
C263 C16 1.888 . S
C277 C27 1.868 . S
C281 C66 1.939 . S
C295 C31 1.995 . S
C299 C70 1.886 . S
C313 C1 1.869 . S
C317 C40 1.938 . S
C331 C53 1.944 . S
C335 C23 1.947 . S
C349 C118 1.972 . S
C353 C83 1.980 . S
C367 C94 1.897 . S
C371 C131 1.988 . S
C385 C109 1.972 . S
C389 C144 1.964 . S
C403 C148 1.871 . S
C407 C105 1.888 . S
C421 C122 1.848 . S
C425 C79 1.865 . S
C439 C135 1.875 . S
C443 C101 1.962 . S
C457 C161 1.992 . S
C461 C200 1.891 . S
C475 C172 1.891 . S
C479 C213 1.891 . S
C493 C183 1.878 . S
C497 C222 1.951 . S
C511 C226 1.892 . S
C515 C187 2.000 1_554 S
C529 C196 1.954 . S
C533 C157 1.895 . S
C547 C209 1.957 . S
C551 C179 1.957 1_554 S
C565 C10 1.608 . S
C569 C96 1.612 . S
C583 C14 1.563 . S
C587 C107 1.553 . S
C601 C81 1.488 1_545 S
C605 C29 1.480 . S
C619 C36 1.661 . S
C623 C170 1.608 1_554 S
C637 C185 1.486 1_554 S
C641 C3 1.484 . S
C655 C166 1.597 . S
C659 C18 1.601 . S
C673 C211 1.600 . S
C677 C49 1.547 . S
C691 C62 1.617 . S
C695 C231 1.603 . S
C709 C198 1.537 . S
C713 C68 1.536 . S
C727 C133 1.623 1_545 S
C731 C75 1.566 . S
C745 C42 1.546 . S
C749 C146 1.546 . S
C763 C55 1.554 . S
C767 C120 1.558 . S
C781 C88 1.581 1_545 S
C785 C174 1.585 . S
C799 C92 1.598 . S
C803 C192 1.648 . S
C817 C114 1.573 . S
C821 C159 1.531 . S
C835 C218 1.584 . S
C839 C153 1.588 . S
C853 C224 1.570 . S
C857 C127 1.522 . S
C871 C140 1.578 . S
C875 C205 1.583 . S
