# Generated by pormake.
# Topology wiq, (6)-cn, num edge types: 1
# Building blocks:
#     Node 0, Type 0, BuildingBlock: MAKGUD_clean_sbu_1, # of connection points: 6
#     Node 1, Type 0, BuildingBlock: MAKGUD_clean_sbu_1, # of connection points: 6
#     Node 2, Type 0, BuildingBlock: MAKGUD_clean_sbu_1, # of connection points: 6
#     Node 3, Type 0, BuildingBlock: MAKGUD_clean_sbu_1, # of connection points: 6
#     Node 4, Type 0, BuildingBlock: MAKGUD_clean_sbu_1, # of connection points: 6
#     Node 5, Type 0, BuildingBlock: MAKGUD_clean_sbu_1, # of connection points: 6
#     Node 6, Type 0, BuildingBlock: MAKGUD_clean_sbu_1, # of connection points: 6
#     Node 7, Type 0, BuildingBlock: MAKGUD_clean_sbu_1, # of connection points: 6
#     Node 8, Type 0, BuildingBlock: MAKGUD_clean_sbu_1, # of connection points: 6
#     Node 9, Type 0, BuildingBlock: MAKGUD_clean_sbu_1, # of connection points: 6
#     Node 10, Type 0, BuildingBlock: MAKGUD_clean_sbu_1, # of connection points: 6
#     Node 11, Type 0, BuildingBlock: MAKGUD_clean_sbu_1, # of connection points: 6
#     Node 12, Type 0, BuildingBlock: MAKGUD_clean_sbu_1, # of connection points: 6
#     Node 13, Type 0, BuildingBlock: MAKGUD_clean_sbu_1, # of connection points: 6
#     Node 14, Type 0, BuildingBlock: MAKGUD_clean_sbu_1, # of connection points: 6
#     Node 15, Type 0, BuildingBlock: MAKGUD_clean_sbu_1, # of connection points: 6
#     Node 16, Type 0, BuildingBlock: MAKGUD_clean_sbu_1, # of connection points: 6
#     Node 17, Type 0, BuildingBlock: MAKGUD_clean_sbu_1, # of connection points: 6
#     Node 18, Type 0, BuildingBlock: MAKGUD_clean_sbu_1, # of connection points: 6
#     Node 19, Type 0, BuildingBlock: MAKGUD_clean_sbu_1, # of connection points: 6
#     Node 20, Type 0, BuildingBlock: MAKGUD_clean_sbu_1, # of connection points: 6
#     Node 21, Type 0, BuildingBlock: MAKGUD_clean_sbu_1, # of connection points: 6
#     Node 22, Type 0, BuildingBlock: MAKGUD_clean_sbu_1, # of connection points: 6
#     Node 23, Type 0, BuildingBlock: MAKGUD_clean_sbu_1, # of connection points: 6
#     Node 24, Type 0, BuildingBlock: MAKGUD_clean_sbu_1, # of connection points: 6
#     Node 25, Type 0, BuildingBlock: MAKGUD_clean_sbu_1, # of connection points: 6
#     Node 26, Type 0, BuildingBlock: MAKGUD_clean_sbu_1, # of connection points: 6
#     Node 27, Type 0, BuildingBlock: MAKGUD_clean_sbu_1, # of connection points: 6
#     Node 28, Type 0, BuildingBlock: MAKGUD_clean_sbu_1, # of connection points: 6
#     Node 29, Type 0, BuildingBlock: MAKGUD_clean_sbu_1, # of connection points: 6
#     Node 30, Type 0, BuildingBlock: MAKGUD_clean_sbu_1, # of connection points: 6
#     Node 31, Type 0, BuildingBlock: MAKGUD_clean_sbu_1, # of connection points: 6
#     Edge 32, Type (0, 0), None
#     Edge 33, Type (0, 0), None
#     Edge 34, Type (0, 0), None
#     Edge 35, Type (0, 0), None
#     Edge 36, Type (0, 0), None
#     Edge 37, Type (0, 0), None
#     Edge 38, Type (0, 0), None
#     Edge 39, Type (0, 0), None
#     Edge 40, Type (0, 0), None
#     Edge 41, Type (0, 0), None
#     Edge 42, Type (0, 0), None
#     Edge 43, Type (0, 0), None
#     Edge 44, Type (0, 0), None
#     Edge 45, Type (0, 0), None
#     Edge 46, Type (0, 0), None
#     Edge 47, Type (0, 0), None
#     Edge 48, Type (0, 0), None
#     Edge 49, Type (0, 0), None
#     Edge 50, Type (0, 0), None
#     Edge 51, Type (0, 0), None
#     Edge 52, Type (0, 0), None
#     Edge 53, Type (0, 0), None
#     Edge 54, Type (0, 0), None
#     Edge 55, Type (0, 0), None
#     Edge 56, Type (0, 0), None
#     Edge 57, Type (0, 0), None
#     Edge 58, Type (0, 0), None
#     Edge 59, Type (0, 0), None
#     Edge 60, Type (0, 0), None
#     Edge 61, Type (0, 0), None
#     Edge 62, Type (0, 0), None
#     Edge 63, Type (0, 0), None
#     Edge 64, Type (0, 0), None
#     Edge 65, Type (0, 0), None
#     Edge 66, Type (0, 0), None
#     Edge 67, Type (0, 0), None
#     Edge 68, Type (0, 0), None
#     Edge 69, Type (0, 0), None
#     Edge 70, Type (0, 0), None
#     Edge 71, Type (0, 0), None
#     Edge 72, Type (0, 0), None
#     Edge 73, Type (0, 0), None
#     Edge 74, Type (0, 0), None
#     Edge 75, Type (0, 0), None
#     Edge 76, Type (0, 0), None
#     Edge 77, Type (0, 0), None
#     Edge 78, Type (0, 0), None
#     Edge 79, Type (0, 0), None
#     Edge 80, Type (0, 0), None
#     Edge 81, Type (0, 0), None
#     Edge 82, Type (0, 0), None
#     Edge 83, Type (0, 0), None
#     Edge 84, Type (0, 0), None
#     Edge 85, Type (0, 0), None
#     Edge 86, Type (0, 0), None
#     Edge 87, Type (0, 0), None
#     Edge 88, Type (0, 0), None
#     Edge 89, Type (0, 0), None
#     Edge 90, Type (0, 0), None
#     Edge 91, Type (0, 0), None
#     Edge 92, Type (0, 0), None
#     Edge 93, Type (0, 0), None
#     Edge 94, Type (0, 0), None
#     Edge 95, Type (0, 0), None
#     Edge 96, Type (0, 0), None
#     Edge 97, Type (0, 0), None
#     Edge 98, Type (0, 0), None
#     Edge 99, Type (0, 0), None
#     Edge 100, Type (0, 0), None
#     Edge 101, Type (0, 0), None
#     Edge 102, Type (0, 0), None
#     Edge 103, Type (0, 0), None
#     Edge 104, Type (0, 0), None
#     Edge 105, Type (0, 0), None
#     Edge 106, Type (0, 0), None
#     Edge 107, Type (0, 0), None
#     Edge 108, Type (0, 0), None
#     Edge 109, Type (0, 0), None
#     Edge 110, Type (0, 0), None
#     Edge 111, Type (0, 0), None
#     Edge 112, Type (0, 0), None
#     Edge 113, Type (0, 0), None
#     Edge 114, Type (0, 0), None
#     Edge 115, Type (0, 0), None
#     Edge 116, Type (0, 0), None
#     Edge 117, Type (0, 0), None
#     Edge 118, Type (0, 0), None
#     Edge 119, Type (0, 0), None
#     Edge 120, Type (0, 0), None
#     Edge 121, Type (0, 0), None
#     Edge 122, Type (0, 0), None
#     Edge 123, Type (0, 0), None
#     Edge 124, Type (0, 0), None
#     Edge 125, Type (0, 0), None
#     Edge 126, Type (0, 0), None
#     Edge 127, Type (0, 0), None
# Relax obj value: 0.314
# Max RMSD: 0.260
# Mean RMSD: 0.260
data_MOF--net-wiq--node1-MAKGUD_clean_sbu_1--edge1-none
_symmetry_space_group_name_H-M    P1
_symmetry_Int_Tables_number       1
_symmetry_cell_setting            triclinic
loop_
_symmetry_equiv_pos_as_xyz
'x, y, z'
_cell_length_a     25.467767
_cell_length_b     25.667255
_cell_length_c     29.75118
_cell_angle_alpha  89.762748
_cell_angle_beta   89.9535
_cell_angle_gamma 90.083897
loop_
_atom_site_label
_atom_site_type_symbol
_atom_site_fract_x
_atom_site_fract_y
_atom_site_fract_z
_atom_type_partial_charge
O0 O 0.20277 0.41736 0.39597 0.0
Tb1 Tb 0.2154 0.33828 0.37315 0.0
C2 C 0.18823 0.22907 0.39339 0.0
O3 O 0.3089 0.26805 0.31089 0.0
Tb4 Tb 0.24513 0.20996 0.30431 0.0
C5 C 0.28107 0.11175 0.30876 0.0
O6 O 0.26567 0.3475 0.31594 0.0
O7 O 0.19864 0.21121 0.2423 0.0
C8 C 0.21758 0.22732 0.20338 0.0
O9 O 0.26247 0.25254 0.20244 0.0
O10 O 0.22641 0.26176 0.4003 0.0
O11 O 0.18122 0.21012 0.35297 0.0
O12 O 0.13296 0.33679 0.35874 0.0
C13 C 0.30853 0.31992 0.31202 0.0
C14 C 0.22146 0.41039 0.43612 0.0
O15 O 0.26951 0.14097 0.34294 0.0
O16 O 0.27425 0.1387 0.27217 0.0
C17 C 0.1106 0.31745 0.32291 0.0
O18 O 0.13804 0.29345 0.29194 0.0
O19 O 0.23966 0.36333 0.44028 0.0
O20 O 0.28474 1.01558 0.5225 0.0
Tb21 Tb 0.21221 0.98877 0.55554 0.0
C22 C 0.10241 1.06007 0.56778 0.0
O23 O 0.17519 0.97202 0.65641 0.0
Tb24 Tb 0.09931 0.96008 0.62732 0.0
C25 C 1.02879 0.94483 0.69158 0.0
O26 O 0.21732 0.9255 0.60466 0.0
O27 O 0.10187 0.91282 0.56648 0.0
C28 C 0.09375 0.86236 0.56109 0.0
O29 O 0.09163 0.84468 0.51976 0.0
O30 O 0.15121 1.05106 0.55275 0.0
O31 O 1.07504 1.0292 0.594 0.0
O32 O 0.213 0.94046 0.49514 0.0
C33 C 0.20991 0.937 0.64702 0.0
C34 C 0.31061 1.02731 0.55873 0.0
O35 O 1.05804 0.98586 0.68742 0.0
O36 O 1.03908 0.91181 0.65962 0.0
C37 C 0.19439 0.9569 0.45632 0.0
O38 O 0.16587 0.99946 0.45508 0.0
O39 O 0.27981 1.01971 0.59307 0.0
O40 O 0.40363 1.02814 0.77331 0.0
Tb41 Tb 0.4324 0.95706 0.80638 0.0
C42 C 0.36967 0.84742 0.81313 0.0
O43 O 0.45297 0.90437 0.90258 0.0
Tb44 Tb 0.46353 0.82942 0.87265 0.0
C45 C 0.45828 0.75597 0.93477 0.0
O46 O 0.49664 0.95688 0.85443 0.0
O47 O 0.54601 0.83268 0.85846 0.0
C48 C 0.56809 0.8508 0.82189 0.0
O49 O 0.54029 0.87268 0.7899 0.0
O50 O 0.36861 0.89921 0.81356 0.0
O51 O 0.41308 0.82053 0.81575 0.0
O52 O 0.47959 0.95411 0.74501 0.0
C53 C 0.49009 0.93816 0.89509 0.0
C54 C 0.39718 1.05545 0.80959 0.0
O55 O 0.43673 0.80163 0.93831 0.0
O56 O 0.47996 0.75089 0.89554 0.0
C57 C 0.46145 0.93616 0.70665 0.0
O58 O 0.41659 0.91089 0.70613 0.0
O59 O 0.40869 1.0265 0.84415 0.0
O60 O 0.39794 0.15394 1.01952 0.0
Tb61 Tb 0.4696 0.18188 1.05256 0.0
C62 C 0.57886 0.11036 0.06449 0.0
O63 O 0.50527 0.19733 0.15356 0.0
Tb64 Tb 0.58101 0.20938 0.12405 0.0
C65 C 0.6514 0.22492 0.18802 0.0
O66 O 0.46342 0.24447 0.1018 0.0
O67 O 0.57809 0.2569 0.06311 0.0
C68 C 0.58605 0.30744 1.05799 0.0
O69 O 0.5883 0.32591 1.01679 0.0
O70 O 0.53044 0.11987 1.04908 0.0
O71 O 0.60589 0.14058 0.09121 0.0
O72 O 0.46743 0.23041 0.992 0.0
C73 C 0.47047 0.23234 0.14414 0.0
C74 C 0.37255 0.14073 1.05571 0.0
O75 O 0.62219 0.18385 0.18435 0.0
O76 O 0.64113 0.25783 0.15578 0.0
C77 C 0.48575 0.21413 0.95312 0.0
O78 O 0.51504 0.17209 0.95202 0.0
O79 O 0.40294 0.14867 0.09014 0.0
O80 O 0.27386 1.02735 0.34688 0.0
Tb81 Tb 0.24617 0.95585 0.31413 0.0
C82 C 0.30843 0.84587 0.30884 0.0
O83 O 0.2269 0.90198 0.21847 0.0
Tb84 Tb 0.21487 0.82736 0.24922 0.0
C85 C 0.22022 0.75357 0.18788 0.0
O86 O 0.18298 0.95565 0.26502 0.0
O87 O 0.1323 0.83113 0.26282 0.0
C88 C 0.11005 0.84998 0.29889 0.0
O89 O 0.13775 0.87245 0.33053 0.0
O90 O 0.30969 0.8977 0.30807 0.0
O91 O 0.26492 0.819 0.30648 0.0
O92 O 0.19849 0.95334 0.3753 0.0
C93 C 0.19015 0.93629 0.22479 0.0
C94 C 0.28131 1.05441 0.31041 0.0
O95 O 0.19834 0.74866 0.22709 0.0
O96 O 0.2419 0.79922 0.18397 0.0
C97 C 0.2167 0.93628 0.41406 0.0
O98 O 0.26165 0.91131 0.4151 0.0
O99 O 0.27111 1.02506 0.27599 0.0
O100 O 0.39415 1.01447 0.59769 0.0
Tb101 Tb 0.4664 0.98752 0.56469 0.0
C102 C 0.57695 1.05806 0.55184 0.0
O103 O 0.50135 0.97154 0.46364 0.0
Tb104 Tb 0.57765 0.95934 0.49172 0.0
C105 C 0.64764 0.94296 0.42747 0.0
O106 O 0.4605 0.92433 0.51599 0.0
O107 O 0.57566 0.91303 0.55342 0.0
C108 C 0.58429 0.86275 0.55953 0.0
O109 O 0.58694 0.8455 0.60109 0.0
O110 O 0.52879 1.04853 0.56823 0.0
O111 O 0.6028 1.02854 0.52373 0.0
O112 O 0.46493 0.93941 0.6255 0.0
C113 C 0.46705 0.93611 0.4735 0.0
C114 C 0.36854 1.02698 0.56146 0.0
O115 O 0.61862 0.98412 0.43094 0.0
O116 O 0.63729 0.91041 0.46 0.0
C117 C 0.48385 0.95606 0.66403 0.0
O118 O 0.51291 0.99836 0.66456 0.0
O119 O 0.39937 1.01984 0.52712 0.0
O120 O 0.40541 0.1402 0.84636 0.0
Tb121 Tb 0.43133 0.21157 0.81189 0.0
C122 C 0.36663 0.32026 0.80687 0.0
O123 O 0.45164 0.26004 0.71399 0.0
Tb124 Tb 0.46192 0.33315 0.74714 0.0
C125 C 0.46579 0.4062 0.68461 0.0
O126 O 0.49542 0.21018 0.76352 0.0
O127 O 0.54033 0.3184 0.77004 0.0
C128 C 0.5642 0.34867 0.79895 0.0
O129 O 0.53809 0.38483 0.82056 0.0
O130 O 0.36638 0.26844 0.80617 0.0
O131 O 0.40894 0.34824 0.80108 0.0
O132 O 0.48004 0.21667 0.87221 0.0
C133 C 0.48819 0.22596 0.72208 0.0
C134 C 0.397 0.11277 0.81043 0.0
O135 O 0.49195 0.40695 0.72207 0.0
O136 O 0.43593 0.3652 0.68279 0.0
C137 C 0.46214 0.23379 0.91095 0.0
O138 O 0.41649 0.25746 0.9123 0.0
O139 O 0.40589 0.14183 0.77533 0.0
O140 O 1.05976 0.18328 0.93051 0.0
Tb141 Tb 0.0949 0.2038 0.99532 0.0
C142 C 0.20422 0.22444 0.96898 0.0
O143 O 0.15705 0.10981 1.05994 0.0
Tb144 Tb 0.21551 0.17381 0.06169 0.0
C145 C 0.31481 0.13876 1.05818 0.0
O146 O 1.075 0.14705 1.04495 0.0
O147 O 0.21419 0.22241 0.12211 0.0
C148 C 0.19616 0.20553 0.1611 0.0
O149 O 0.16907 0.16198 0.16259 0.0
O150 O 0.16824 0.18924 0.96203 0.0
O151 O 0.21775 0.23471 1.01055 0.0
O152 O 0.11795 0.27715 1.02472 0.0
C153 C 0.10479 0.10803 1.0571 0.0
C154 C 1.01882 0.213 0.93467 0.0
O155 O 0.28444 0.14718 1.02384 0.0
O156 O 0.28819 0.14768 0.09463 0.0
C157 C 1.08413 0.30657 1.04592 0.0
O158 O 1.03605 0.28972 1.05254 0.0
O159 O 1.02084 0.23768 0.97264 0.0
O160 O 0.89845 1.02879 0.84641 0.0
Tb161 Tb 0.93054 0.95889 0.81421 0.0
C162 C 0.86916 0.84817 0.80715 0.0
O163 O 0.95122 0.90442 0.71961 0.0
Tb164 Tb 0.96365 0.82891 0.74844 0.0
C165 C 0.95741 0.75575 0.68648 0.0
O166 O 0.99429 0.95946 0.76558 0.0
O167 O 1.04612 0.83103 0.76276 0.0
C168 C 1.06838 0.85156 0.79812 0.0
O169 O 1.04083 0.87666 0.82835 0.0
O170 O 0.86786 0.89997 0.80702 0.0
O171 O 0.9127 0.82136 0.80537 0.0
O172 O 0.97857 0.95827 0.87521 0.0
C173 C 0.98843 0.93837 0.72588 0.0
C174 C 0.89236 1.05616 0.80992 0.0
O175 O 0.97575 0.74926 0.72681 0.0
O176 O 0.93966 0.80287 0.68165 0.0
C177 C 0.96203 0.93967 0.91405 0.0
O178 O 0.91856 0.91214 0.91551 0.0
O179 O 0.90614 1.0279 0.77575 0.0
O180 O 0.89298 0.15214 0.59825 0.0
Tb181 Tb 0.96607 0.18009 0.56683 0.0
C182 C 1.07593 0.10846 0.55405 0.0
O183 O 1.00157 0.19621 0.46578 0.0
Tb184 Tb 1.07843 0.20734 0.49307 0.0
C185 C 0.14787 0.22282 0.42784 0.0
O186 O 0.96134 0.24376 0.5179 0.0
O187 O 1.0764 0.25425 0.5541 0.0
C188 C 1.08464 0.30464 0.55971 0.0
O189 O 1.08683 0.32206 0.60112 0.0
O190 O 1.02788 0.11849 0.5704 0.0
O191 O 0.10241 0.13794 0.52599 0.0
O192 O 0.96247 0.22783 0.62769 0.0
C193 C 0.96802 0.23224 0.47543 0.0
C194 C 0.86832 0.14025 0.56145 0.0
O195 O 0.11705 0.18282 0.43119 0.0
O196 O 0.13965 0.25468 0.46109 0.0
C197 C 0.98078 0.21217 0.66691 0.0
O198 O 1.01088 0.17074 0.66879 0.0
O199 O 0.9 0.1484 0.5278 0.0
O200 O 0.77578 0.13946 0.34468 0.0
Tb201 Tb 0.74838 0.21073 0.31104 0.0
C202 C 0.81093 0.32074 0.30554 0.0
O203 O 0.72794 0.26636 0.2163 0.0
Tb204 Tb 0.71592 0.34044 0.24741 0.0
C205 C 0.7217 0.41485 0.1861 0.0
O206 O 0.6848 0.21109 0.26244 0.0
O207 O 0.63323 0.33743 0.26136 0.0
C208 C 0.61065 0.31637 0.29652 0.0
O209 O 0.63802 0.29144 0.32708 0.0
O210 O 0.812 0.26892 0.30447 0.0
O211 O 0.76748 0.34772 0.30381 0.0
O212 O 0.70045 0.21391 0.37187 0.0
C213 C 0.69121 0.23186 0.22254 0.0
C214 C 0.78292 0.11203 0.30857 0.0
O215 O 0.74145 0.36855 0.18153 0.0
O216 O 0.70155 0.41997 0.22592 0.0
C217 C 0.71877 0.23098 0.41044 0.0
O218 O 0.76419 0.25523 0.41132 0.0
O219 O 0.77268 0.14109 0.27377 0.0
O220 O 0.78535 1.01574 0.09719 0.0
Tb221 Tb 0.71333 0.98927 0.06372 0.0
C222 C 0.60486 1.06187 1.05114 0.0
O223 O 0.67723 0.97383 0.96269 0.0
Tb224 Tb 0.60155 0.9622 0.9924 0.0
C225 C 0.53046 0.94562 0.9291 0.0
O226 O 0.71885 0.92662 1.0145 0.0
O227 O 0.60523 0.91563 1.05386 0.0
C228 C 0.59647 0.86533 1.05979 0.0
O229 O 0.59485 0.84765 0.10126 0.0
O230 O 0.65323 1.05214 0.06661 0.0
O231 O 0.57753 1.0316 1.02466 0.0
O232 O 0.71375 0.94048 0.12414 0.0
C233 C 0.7118 0.93861 0.97214 0.0
C234 C 0.81139 1.02816 0.06113 0.0
O235 O 0.56051 0.98623 0.93151 0.0
O236 O 0.54038 0.91373 0.96218 0.0
C237 C 0.69496 0.95681 0.16284 0.0
O238 O 0.66642 0.99935 0.16377 0.0
O239 O 0.78106 1.02088 1.02654 0.0
O240 O 0.90067 0.14117 0.7733 0.0
Tb241 Tb 0.92597 0.21199 0.80837 0.0
C242 C 0.86238 0.32151 0.81407 0.0
O243 O 0.94373 0.25749 0.90777 0.0
Tb244 Tb 0.9586 0.33006 0.87385 0.0
C245 C 0.96686 0.40563 0.93421 0.0
O246 O 0.98795 0.20779 0.85868 0.0
O247 O 1.0328 0.30662 0.84561 0.0
C248 C 1.06158 0.33931 0.82241 0.0
O249 O 1.04397 0.38644 0.81424 0.0
O250 O 0.86157 0.26964 0.81348 0.0
O251 O 0.90471 0.3489 0.82144 0.0
O252 O 0.97523 0.21707 0.74807 0.0
C253 C 0.9787 0.22152 0.90034 0.0
C254 C 0.89085 0.11343 0.80898 0.0
O255 O 0.93498 0.36621 0.93729 0.0
O256 O 0.99398 0.40257 0.8973 0.0
C257 C 0.95669 0.23221 0.70878 0.0
O258 O 0.91029 0.25434 0.70688 0.0
O259 O 0.8984 0.1422 0.84423 0.0
O260 O 0.78583 0.15227 0.5207 0.0
Tb261 Tb 0.71241 0.17859 0.55212 0.0
C262 C 0.60447 0.10552 0.56606 0.0
O263 O 0.68037 0.19777 0.65614 0.0
Tb264 Tb 0.6034 0.20385 0.6272 0.0
C265 C 0.52981 0.21905 0.68891 0.0
O266 O 0.71624 0.24304 0.59958 0.0
O267 O 0.60316 0.24877 0.56478 0.0
C268 C 0.59494 0.2991 0.5586 0.0
O269 O 0.59092 0.31608 0.51704 0.0
O270 O 0.65072 0.11728 0.54711 0.0
O271 O 0.58059 0.1327 0.597 0.0
O272 O 0.7153 0.22666 0.49139 0.0
C273 C 0.71496 0.23145 0.64247 0.0
C274 C 0.81047 0.14001 0.55749 0.0
O275 O 0.56118 0.1794 0.6876 0.0
O276 O 0.54045 0.25112 0.6561 0.0
C277 C 0.69584 0.21102 0.45278 0.0
O278 O 0.66559 0.16956 0.45184 0.0
O279 O 0.77858 0.14688 0.59117 0.0
O280 O 0.77529 1.0273 0.27161 0.0
Tb281 Tb 0.74634 0.95635 0.30502 0.0
C282 C 0.80867 0.84643 0.31234 0.0
O283 O 0.72525 0.90232 0.40052 0.0
Tb284 Tb 0.71445 0.82694 0.37143 0.0
C285 C 0.72016 0.75359 0.43371 0.0
O286 O 0.68216 0.95622 0.3532 0.0
O287 O 0.63189 0.82903 0.35747 0.0
C288 C 0.6093 0.849 0.32192 0.0
O289 O 0.63658 0.87336 0.29085 0.0
O290 O 0.80969 0.89826 0.31243 0.0
O291 O 0.76525 0.81931 0.3145 0.0
O292 O 0.69895 0.95352 0.24381 0.0
C293 C 0.688 0.93594 0.39336 0.0
C294 C 0.78214 1.05468 0.30779 0.0
O295 O 0.69956 0.74792 0.39414 0.0
O296 O 0.74047 0.79985 0.43751 0.0
C297 C 0.7172 0.93625 0.20524 0.0
O298 O 0.76215 0.91128 0.20444 0.0
O299 O 0.77076 1.02584 0.34249 0.0
O300 O 0.89557 1.01763 1.02266 0.0
Tb301 Tb 0.96738 0.99013 1.05609 0.0
C302 C 1.07778 1.05934 0.06856 0.0
O303 O 1.00468 0.97263 0.15618 0.0
Tb304 Tb 1.07983 0.95869 0.12625 0.0
C305 C 0.15051 0.94352 0.19009 0.0
O306 O 0.96095 0.92684 0.10502 0.0
O307 O 1.07698 0.91296 0.06478 0.0
C308 C 1.08585 0.86278 1.05954 0.0
O309 O 1.08875 0.84477 1.01835 0.0
O310 O 1.02741 1.05343 1.05669 0.0
O311 O 0.10613 1.0253 0.09054 0.0
O312 O 0.96789 0.94256 0.9952 0.0
C313 C 0.96906 0.93823 0.14728 0.0
C314 C 0.86921 1.02834 1.05888 0.0
O315 O 0.12465 0.98635 0.18375 0.0
O316 O 0.13698 0.90881 0.16038 0.0
C317 C 0.98421 0.96087 0.95618 0.0
O318 O 1.01003 1.00517 0.95494 0.0
O319 O 0.89931 1.01991 0.09343 0.0
O320 O 0.75018 0.85945 0.93964 0.0
Tb321 Tb 0.72678 0.83013 0.87348 0.0
C322 C 0.69713 0.72394 0.8951 0.0
O323 O 0.81901 0.76779 0.81037 0.0
Tb324 Tb 0.75199 0.71301 0.80494 0.0
C325 C 0.78575 0.61445 0.80931 0.0
O326 O 0.77769 0.84726 0.81854 0.0
O327 O 0.70381 0.71605 0.74407 0.0
C328 C 0.72204 0.73101 0.70464 0.0
O329 O 0.76796 0.75422 0.70233 0.0
O330 O 0.73643 0.75471 0.90353 0.0
O331 O 0.68707 0.71369 0.85287 0.0
O332 O 0.64765 0.81888 0.85067 0.0
C333 C 0.81961 0.81952 0.81141 0.0
C334 C 0.72314 0.90217 0.93627 0.0
O335 O 0.77558 0.644 0.84358 0.0
O336 O 0.7785 0.64108 0.7726 0.0
C337 C 0.6251 0.84923 0.82082 0.0
O338 O 0.65235 0.88457 0.79887 0.0
O339 O 0.70002 0.9048 0.89747 0.0
O340 O 0.7829 0.52064 1.02009 0.0
Tb341 Tb 0.71202 0.49371 1.0551 0.0
C342 C 0.60264 0.56196 0.06713 0.0
O343 O 0.67106 0.48249 0.15585 0.0
Tb344 Tb 0.59632 0.46037 0.12775 0.0
C345 C 0.52267 0.45003 0.19064 0.0
O346 O 0.71829 0.43525 0.10766 0.0
O347 O 0.60822 0.39186 0.08589 0.0
C348 C 0.58995 0.34486 0.09524 0.0
O349 O 0.56652 0.33561 0.13377 0.0
O350 O 0.65241 0.55601 1.05428 0.0
O351 O 0.57444 0.52809 0.08996 0.0
O352 O 0.71135 0.44337 0.99603 0.0
C353 C 0.70911 0.44968 0.14905 0.0
C354 C 0.80919 0.53401 1.05563 0.0
O355 O 0.5717 0.46057 0.19844 0.0
O356 O 0.51559 0.44322 0.14787 0.0
C357 C 0.69432 0.46024 0.95682 0.0
O358 O 0.66769 0.50397 0.95502 0.0
O359 O 0.77967 0.52668 0.09072 0.0
O360 O 0.90064 0.52921 0.27185 0.0
Tb361 Tb 0.92778 0.45682 0.30365 0.0
C362 C 0.86041 0.34922 0.31127 0.0
O363 O 0.94308 0.41638 0.40281 0.0
Tb364 Tb 0.95256 0.34007 0.3751 0.0
C365 C 0.95735 0.26917 0.43945 0.0
O366 O 0.99293 0.45615 0.35138 0.0
O367 O 1.0314 0.35075 0.35114 0.0
C368 C 1.05359 0.31942 0.32204 0.0
O369 O 1.02604 0.28343 0.30148 0.0
O370 O 0.8613 0.401 0.30876 0.0
O371 O 0.90156 0.32118 0.32081 0.0
O372 O 0.97515 0.45568 0.24206 0.0
C373 C 0.98281 0.4465 0.39382 0.0
C374 C 0.89325 0.55521 0.3087 0.0
O375 O 0.98027 0.2662 0.40058 0.0
O376 O 0.92987 0.31168 0.44211 0.0
C377 C 0.95678 0.4408 0.20273 0.0
O378 O 0.91136 0.41664 0.20082 0.0
O379 O 0.90359 0.52508 0.34275 0.0
O380 O 0.89491 0.64711 0.52316 0.0
Tb381 Tb 0.96623 0.67579 0.5562 0.0
C382 C 1.07646 0.60745 0.56776 0.0
O383 O 1.00717 0.68719 0.65718 0.0
Tb384 Tb 1.08277 0.7078 0.62968 0.0
C385 C 0.15628 0.71746 0.69265 0.0
O386 O 0.96131 0.73497 0.60805 0.0
O387 O 1.07191 0.77712 0.58803 0.0
C388 C 0.08951 0.82414 0.59801 0.0
O389 O 0.11185 0.83291 0.637 0.0
O390 O 1.02706 0.61439 0.55403 0.0
O391 O 0.10419 0.63995 0.59219 0.0
O392 O 0.9634 0.72587 0.49649 0.0
C393 C 0.96987 0.72072 0.64971 0.0
C394 C 0.86925 0.63476 0.55943 0.0
O395 O 0.10743 0.70584 0.70037 0.0
O396 O 0.1632 0.72557 0.64997 0.0
C397 C 0.98035 0.70995 0.45702 0.0
O398 O 1.00892 0.66748 0.45486 0.0
O399 O 0.89941 0.64336 0.59383 0.0
O400 O 0.7775 0.53078 0.84803 0.0
Tb401 Tb 0.74954 0.45936 0.8156 0.0
C402 C 0.81362 0.3507 0.80711 0.0
O403 O 0.73865 0.41525 0.71928 0.0
Tb404 Tb 0.72348 0.3372 0.74138 0.0
C405 C 0.7328 0.2676 0.67656 0.0
O406 O 0.6867 0.45879 0.76622 0.0
O407 O 0.64145 0.33529 0.75754 0.0
C408 C 0.62103 0.35081 0.79559 0.0
O409 O 0.6502 0.37211 0.82686 0.0
O410 O 0.81423 0.40235 0.81032 0.0
O411 O 0.77102 0.32386 0.7996 0.0
O412 O 0.70064 0.45735 0.87606 0.0
C413 C 0.6983 0.44548 0.72501 0.0
C414 C 0.78522 0.55734 0.81133 0.0
O415 O 0.72706 0.25725 0.719 0.0
O416 O 0.73614 0.31762 0.67065 0.0
C417 C 0.71707 0.43904 0.91497 0.0
O418 O 0.76109 0.41255 0.91675 0.0
O419 O 0.7747 0.52796 0.77704 0.0
O420 O 0.8932 0.52522 0.09391 0.0
Tb421 Tb 0.96442 0.49591 0.06121 0.0
C422 C 1.07506 0.56086 1.05724 0.0
O423 O 1.01134 0.48001 0.96172 0.0
Tb424 Tb 1.08439 0.46545 0.99551 0.0
C425 C 0.16031 0.45619 0.93466 0.0
O426 O 0.96118 0.43504 1.01046 0.0
O427 O 1.06099 0.39192 1.02494 0.0
C428 C 0.09471 0.36218 1.04607 0.0
O429 O 0.14281 0.37885 1.05275 0.0
O430 O 1.02287 0.55968 1.05945 0.0
O431 O 0.10444 0.52145 1.04545 0.0
O432 O 0.96314 0.44659 0.12157 0.0
C433 C 0.97517 0.44498 0.96886 0.0
C434 C 0.86676 0.53427 1.05738 0.0
O435 O 0.11982 0.48659 0.93077 0.0
O436 O 0.15802 0.431 0.97255 0.0
C437 C 0.9799 0.46284 0.16102 0.0
O438 O 1.00743 0.50605 0.16324 0.0
O439 O 0.89631 0.52371 1.02301 0.0
O440 O 0.9002 0.63868 0.34769 0.0
Tb441 Tb 0.9259 0.71138 0.31528 0.0
C442 C 0.85832 0.81809 0.30802 0.0
O443 O 0.94215 0.75427 0.21646 0.0
Tb444 Tb 0.95188 0.82945 0.24644 0.0
C445 C 0.95709 0.90177 0.18333 0.0
O446 O 0.99082 0.71235 0.26739 0.0
O447 O 1.03049 0.81776 0.27039 0.0
C448 C 1.05302 0.84866 0.29966 0.0
O449 O 1.0259 0.88475 0.32043 0.0
O450 O 0.85906 0.76631 0.30948 0.0
O451 O 0.9001 0.84622 0.30072 0.0
O452 O 0.97404 0.71494 0.37616 0.0
C453 C 0.98109 0.72315 0.22513 0.0
C454 C 0.89295 0.61238 0.31096 0.0
O455 O 0.98013 0.90386 0.22217 0.0
O456 O 0.92925 0.85949 0.18013 0.0
C457 C 0.9562 0.73071 0.41539 0.0
O458 O 0.91046 0.75412 0.41752 0.0
O459 O 0.90239 0.64254 0.2767 0.0
O460 O 0.5147 0.72376 0.47325 0.0
Tb461 Tb 0.59562 0.70772 0.4934 0.0
C462 C 0.70835 0.71884 0.47111 0.0
O463 O 0.65434 0.61147 0.56495 0.0
Tb464 Tb 0.71416 0.67408 0.56472 0.0
C465 C 0.81161 0.63456 0.56188 0.0
O466 O 0.57471 0.6409 0.53315 0.0
O467 O 0.71567 0.72478 0.62369 0.0
C468 C 0.69832 0.70936 0.66329 0.0
O469 O 0.66999 0.66668 0.66607 0.0
O470 O 0.6703 0.6857 0.46507 0.0
O471 O 0.71887 0.73299 0.51233 0.0
O472 O 0.60732 0.77781 0.53339 0.0
C473 C 0.60384 0.60606 0.55389 0.0
C474 C 0.52166 0.71614 0.43055 0.0
O475 O 0.78166 0.64342 0.52737 0.0
O476 O 0.78555 0.64576 0.59814 0.0
C477 C 0.58841 0.82427 0.5231 0.0
O478 O 0.56446 0.83193 0.4846 0.0
O479 O 0.57069 0.70567 0.4228 0.0
O480 O 0.39962 0.52693 0.34748 0.0
Tb481 Tb 0.42611 0.45522 0.31456 0.0
C482 C 0.35829 0.34805 0.30643 0.0
O483 O 0.44211 0.41453 0.2157 0.0
Tb484 Tb 0.45229 0.33854 0.24441 0.0
C485 C 0.45798 0.26802 0.18033 0.0
O486 O 0.49116 0.45515 0.26684 0.0
O487 O 0.53094 0.34966 0.26873 0.0
C488 C 0.55355 0.31745 0.29709 0.0
O489 O 0.52642 0.28029 0.31678 0.0
O490 O 0.35947 0.39981 0.30884 0.0
O491 O 0.39947 0.31973 0.29766 0.0
O492 O 0.47428 0.45152 0.37543 0.0
C493 C 0.48132 0.44524 0.22453 0.0
C494 C 0.39255 0.55408 0.31101 0.0
O495 O 0.47958 0.26434 0.2197 0.0
O496 O 0.43133 0.31099 0.17704 0.0
C497 C 0.456 0.43625 0.41477 0.0
O498 O 0.40997 0.41327 0.41693 0.0
O499 O 0.40264 0.52484 0.27651 0.0
O500 O 0.39414 0.6473 0.09928 0.0
Tb501 Tb 0.46493 0.67718 0.06596 0.0
C502 C 0.57577 0.61044 1.0546 0.0
O503 O 0.50749 0.68797 0.96619 0.0
Tb504 Tb 0.58264 0.71125 0.99271 0.0
C505 C 0.656 0.71953 0.92928 0.0
O506 O 0.45936 0.7357 1.01337 0.0
O507 O 0.57198 0.78092 1.03336 0.0
C508 C 0.59115 0.82732 1.02313 0.0
O509 O 0.61449 0.8352 0.98434 0.0
O510 O 0.52584 0.61609 0.0672 0.0
O511 O 0.60403 0.64425 1.03172 0.0
O512 O 0.46209 0.72713 0.12537 0.0
C513 C 0.46964 0.72124 0.97218 0.0
C514 C 0.3686 0.63488 0.0631 0.0
O515 O 0.60654 0.71074 0.92178 0.0
O516 O 0.66371 0.72569 0.97205 0.0
C517 C 0.47969 0.71137 0.16476 0.0
O518 O 0.50892 0.66932 0.16688 0.0
O519 O 0.39848 0.64427 1.0286 0.0
O520 O 0.28203 0.63933 0.84819 0.0
Tb521 Tb 0.25354 0.71107 0.81616 0.0
C522 C 0.3202 0.81876 0.8084 0.0
O523 O 0.23661 0.7533 0.71757 0.0
Tb524 Tb 0.22661 0.82885 0.74669 0.0
C525 C 0.22162 0.9005 0.68303 0.0
O526 O 0.18812 0.71154 0.76883 0.0
O527 O 0.14792 0.81767 0.77088 0.0
C528 C 0.12541 0.84979 0.79917 0.0
O529 O 0.15271 0.8866 0.81889 0.0
O530 O 0.31972 0.76698 0.81008 0.0
O531 O 0.27842 0.84661 0.80066 0.0
O532 O 0.20553 0.71286 0.87727 0.0
C533 C 0.1976 0.72227 0.72651 0.0
C534 C 0.28842 0.61277 0.81148 0.0
O535 O 0.19913 0.90324 0.72209 0.0
O536 O 0.24879 0.85787 0.67984 0.0
C537 C 0.22286 0.72912 0.91651 0.0
O538 O 0.26782 0.75408 0.91862 0.0
O539 O 0.27677 0.6423 0.77734 0.0
O540 O 0.28525 0.51744 0.59963 0.0
Tb541 Tb 0.2132 0.49012 0.56677 0.0
C542 C 0.10339 0.55916 0.55455 0.0
O543 O 0.17314 0.47974 0.46576 0.0
Tb544 Tb 0.09678 0.45944 0.49173 0.0
C545 C 1.0239 0.45087 0.428 0.0
O546 O 0.21793 0.43088 0.51483 0.0
O547 O 0.10665 0.38994 0.53325 0.0
C548 C 1.08912 0.34301 0.52296 0.0
O549 O 1.0673 0.33439 0.48374 0.0
O550 O 0.15264 0.55189 0.56865 0.0
O551 O 1.07572 0.52706 0.52966 0.0
O552 O 0.215 0.44096 0.6272 0.0
C553 C 0.20968 0.44538 0.47315 0.0
C554 C 0.31062 0.53035 0.56336 0.0
O555 O 1.07306 0.4616 0.42073 0.0
O556 O 1.01633 0.44306 0.47065 0.0
C557 C 0.19776 0.45743 0.66647 0.0
O558 O 0.16947 0.50011 0.66812 0.0
O559 O 0.27994 0.52279 0.52911 0.0
O560 O 0.39982 0.63861 0.27313 0.0
Tb561 Tb 0.42531 0.71051 0.30642 0.0
C562 C 0.35787 0.81719 0.31356 0.0
O563 O 0.44145 0.75199 0.40526 0.0
Tb564 Tb 0.45133 0.82733 0.37505 0.0
C565 C 0.45584 0.89928 0.4379 0.0
O566 O 0.49021 0.7107 0.3543 0.0
O567 O 0.53001 0.8162 0.351 0.0
C568 C 0.55225 0.84741 0.32154 0.0
O569 O 0.52482 0.88348 0.30082 0.0
O570 O 0.35842 0.76541 0.31234 0.0
O571 O 0.39974 0.84504 0.32086 0.0
O572 O 0.47359 0.71559 0.24562 0.0
C573 C 0.4804 0.72097 0.39658 0.0
C574 C 0.39249 0.61133 0.30952 0.0
O575 O 0.47876 0.90184 0.39899 0.0
O576 O 0.4286 0.85663 0.44142 0.0
C577 C 0.45547 0.73152 0.20646 0.0
O578 O 0.40938 0.75428 0.20448 0.0
O579 O 0.40179 0.64061 0.34416 0.0
O580 O 0.28501 0.6451 1.02438 0.0
Tb581 Tb 0.21399 0.67443 1.05754 0.0
C582 C 0.10253 0.60927 0.06848 0.0
O583 O 0.17037 0.68602 0.15651 0.0
Tb584 Tb 0.0962 0.70974 0.12825 0.0
C585 C 1.02232 0.71843 0.19115 0.0
O586 O 0.21972 0.73318 0.10946 0.0
O587 O 0.11031 0.77942 0.08818 0.0
C588 C 0.08965 0.82535 0.09686 0.0
O589 O 1.06313 0.83276 0.13413 0.0
O590 O 0.1538 0.61234 1.05969 0.0
O591 O 1.07358 0.64596 0.08643 0.0
O592 O 0.21534 0.72428 0.99763 0.0
C593 C 0.20875 0.71889 0.15066 0.0
C594 C 0.31105 0.63422 0.06077 0.0
O595 O 1.07076 0.70542 0.19867 0.0
O596 O 1.01593 0.7283 0.14868 0.0
C597 C 0.19928 0.70753 0.95815 0.0
O598 O 0.17229 0.66398 0.95602 0.0
O599 O 0.28124 0.64372 0.09518 0.0
O600 O 0.27883 0.52881 0.77383 0.0
Tb601 Tb 0.25269 0.45738 0.80808 0.0
C602 C 0.31734 0.34845 0.81386 0.0
O603 O 0.23498 0.41133 0.90747 0.0
Tb604 Tb 0.22075 0.33919 0.87316 0.0
C605 C 0.21247 0.26372 0.93404 0.0
O606 O 0.1906 0.4612 0.85835 0.0
O607 O 0.14669 0.36259 0.84453 0.0
C608 C 0.11763 0.32964 0.82214 0.0
O609 O 0.13503 0.28235 0.81467 0.0
O610 O 0.31748 0.40028 0.81339 0.0
O611 O 0.27544 0.32042 0.82141 0.0
O612 O 0.20371 0.45331 0.7476 0.0
C613 C 0.20003 0.44736 0.90004 0.0
C614 C 0.28855 0.55556 0.80989 0.0
O615 O 0.24417 0.30325 0.9369 0.0
O616 O 0.18557 0.26654 0.89702 0.0
C617 C 0.22143 0.43691 0.70847 0.0
O618 O 0.26693 0.41302 0.70666 0.0
O619 O 0.28026 0.52612 0.8448 0.0
O620 O 0.39382 0.52015 0.5236 0.0
Tb621 Tb 0.46556 0.49041 0.55559 0.0
C622 C 0.57732 0.5569 0.56581 0.0
O623 O 0.51223 0.47649 0.65303 0.0
Tb624 Tb 0.58674 0.45447 0.62507 0.0
C625 C 0.65809 0.44674 0.68999 0.0
O626 O 0.46152 0.43016 0.60683 0.0
O627 O 0.57451 0.38467 0.5848 0.0
C628 C 0.59235 0.33779 0.59498 0.0
O629 O 0.61574 0.32931 0.63361 0.0
O630 O 0.52637 0.55221 0.55591 0.0
O631 O 0.60698 0.5213 0.58507 0.0
O632 O 0.46281 0.44109 0.49577 0.0
C633 C 0.47492 0.44252 0.64785 0.0
C634 C 0.36829 0.53026 0.56037 0.0
O635 O 0.60909 0.45849 0.69607 0.0
O636 O 0.66665 0.43763 0.6477 0.0
C637 C 0.48003 0.45709 0.45629 0.0
O638 O 0.50877 0.49953 0.45394 0.0
O639 O 0.3987 0.52021 0.59435 0.0
loop_
_geom_bond_atom_site_label_1
_geom_bond_atom_site_label_2
_geom_bond_distance
_geom_bond_site_symmetry_2
_ccdc_geom_bond_type
O0 Tb1 2.506 . S
O0 C14 1.265 . S
Tb1 O0 2.506 . S
Tb1 O6 2.312 . S
Tb1 O10 2.271 . S
Tb1 O12 2.338 . S
Tb1 O19 2.441 . S
C2 O10 1.252 . S
C2 O11 1.253 . S
O3 Tb4 2.271 . S
O3 C13 1.252 . S
Tb4 O3 2.271 . S
Tb4 O7 2.338 . S
Tb4 O11 2.312 . S
Tb4 O15 2.441 . S
Tb4 O16 2.506 . S
C5 O15 1.244 . S
C5 O16 1.265 . S
O6 Tb1 2.312 . S
O6 C13 1.253 . S
O7 Tb4 2.338 . S
O7 C8 1.258 . S
C8 O7 1.258 . S
C8 O9 1.251 . S
O9 C8 1.251 . S
O10 Tb1 2.271 . S
O10 C2 1.252 . S
O11 C2 1.253 . S
O11 Tb4 2.312 . S
O12 Tb1 2.338 . S
O12 C17 1.258 . S
C13 O3 1.252 . S
C13 O6 1.253 . S
C14 O0 1.265 . S
C14 O19 1.244 . S
O15 Tb4 2.441 . S
O15 C5 1.244 . S
O16 Tb4 2.506 . S
O16 C5 1.265 . S
C17 O12 1.258 . S
C17 O18 1.251 . S
O18 C17 1.251 . S
O19 Tb1 2.441 . S
O19 C14 1.244 . S
O20 Tb21 2.506 . S
O20 C34 1.265 . S
Tb21 O20 2.506 . S
Tb21 O26 2.312 . S
Tb21 O30 2.271 . S
Tb21 O32 2.338 . S
Tb21 O39 2.441 . S
C22 O30 1.252 . S
C22 O31 1.253 . S
O23 Tb24 2.271 1_455 S
O23 C33 1.252 . S
Tb24 O23 2.271 1_655 S
Tb24 O27 2.338 . S
Tb24 O31 2.312 1_655 S
Tb24 O35 2.441 . S
Tb24 O36 2.506 . S
C25 O35 1.244 . S
C25 O36 1.265 . S
O26 Tb21 2.312 . S
O26 C33 1.253 . S
O27 Tb24 2.338 . S
O27 C28 1.258 . S
C28 O27 1.258 . S
C28 O29 1.251 1_655 S
O29 C28 1.251 1_455 S
O30 Tb21 2.271 . S
O30 C22 1.252 . S
O31 C22 1.253 . S
O31 Tb24 2.312 1_455 S
O32 Tb21 2.338 . S
O32 C37 1.258 . S
C33 O23 1.252 . S
C33 O26 1.253 . S
C34 O20 1.265 . S
C34 O39 1.244 . S
O35 Tb24 2.441 . S
O35 C25 1.244 . S
O36 Tb24 2.506 . S
O36 C25 1.265 . S
C37 O32 1.258 . S
C37 O38 1.251 . S
O38 C37 1.251 . S
O39 Tb21 2.441 . S
O39 C34 1.244 . S
O40 Tb41 2.506 . S
O40 C54 1.265 . S
Tb41 O40 2.506 . S
Tb41 O46 2.312 . S
Tb41 O50 2.271 . S
Tb41 O52 2.338 . S
Tb41 O59 2.441 . S
C42 O50 1.252 . S
C42 O51 1.253 . S
O43 Tb44 2.271 . S
O43 C53 1.252 . S
Tb44 O43 2.271 . S
Tb44 O47 2.338 . S
Tb44 O51 2.312 . S
Tb44 O55 2.441 . S
Tb44 O56 2.506 . S
C45 O55 1.244 . S
C45 O56 1.265 . S
O46 Tb41 2.312 . S
O46 C53 1.253 . S
O47 Tb44 2.338 . S
O47 C48 1.258 . S
C48 O47 1.258 . S
C48 O49 1.251 . S
O49 C48 1.251 . S
O50 Tb41 2.271 . S
O50 C42 1.252 . S
O51 C42 1.253 . S
O51 Tb44 2.312 . S
O52 Tb41 2.338 . S
O52 C57 1.258 . S
C53 O43 1.252 . S
C53 O46 1.253 . S
C54 O40 1.265 . S
C54 O59 1.244 . S
O55 Tb44 2.441 . S
O55 C45 1.244 . S
O56 Tb44 2.506 . S
O56 C45 1.265 . S
C57 O52 1.258 . S
C57 O58 1.251 . S
O58 C57 1.251 . S
O59 Tb41 2.441 . S
O59 C54 1.244 . S
O60 Tb61 2.506 . S
O60 C74 1.265 1_554 S
Tb61 O60 2.506 . S
Tb61 O66 2.312 . S
Tb61 O70 2.271 . S
Tb61 O72 2.338 1_554 S
Tb61 O79 2.437 1_554 S
C62 O70 1.252 . S
C62 O71 1.253 . S
O63 Tb64 2.271 . S
O63 C73 1.252 . S
Tb64 O63 2.271 . S
Tb64 O67 2.338 . S
Tb64 O71 2.312 . S
Tb64 O75 2.441 . S
Tb64 O76 2.506 . S
C65 O75 1.244 . S
C65 O76 1.265 . S
O66 Tb61 2.312 . S
O66 C73 1.253 . S
O67 Tb64 2.338 . S
O67 C68 1.258 . S
C68 O67 1.258 . S
C68 O69 1.251 . S
O69 C68 1.251 . S
O70 Tb61 2.271 . S
O70 C62 1.252 . S
O71 C62 1.253 . S
O71 Tb64 2.312 . S
O72 Tb61 2.338 1_556 S
O72 C77 1.258 . S
C73 O63 1.252 . S
C73 O66 1.253 . S
C74 O60 1.265 1_556 S
C74 O79 1.247 . S
O75 Tb64 2.441 . S
O75 C65 1.244 . S
O76 Tb64 2.506 . S
O76 C65 1.265 . S
C77 O72 1.258 . S
C77 O78 1.251 . S
O78 C77 1.251 . S
O79 Tb61 2.437 1_556 S
O79 C74 1.247 . S
O80 Tb81 2.506 . S
O80 C94 1.265 . S
Tb81 O80 2.506 . S
Tb81 O86 2.312 . S
Tb81 O90 2.271 . S
Tb81 O92 2.338 . S
Tb81 O99 2.441 . S
C82 O90 1.252 . S
C82 O91 1.253 . S
O83 Tb84 2.271 . S
O83 C93 1.252 . S
Tb84 O83 2.271 . S
Tb84 O87 2.338 . S
Tb84 O91 2.312 . S
Tb84 O95 2.441 . S
Tb84 O96 2.506 . S
C85 O95 1.244 . S
C85 O96 1.265 . S
O86 Tb81 2.312 . S
O86 C93 1.253 . S
O87 Tb84 2.338 . S
O87 C88 1.258 . S
C88 O87 1.258 . S
C88 O89 1.251 . S
O89 C88 1.251 . S
O90 Tb81 2.271 . S
O90 C82 1.252 . S
O91 C82 1.253 . S
O91 Tb84 2.312 . S
O92 Tb81 2.338 . S
O92 C97 1.258 . S
C93 O83 1.252 . S
C93 O86 1.253 . S
C94 O80 1.265 . S
C94 O99 1.244 . S
O95 Tb84 2.441 . S
O95 C85 1.244 . S
O96 Tb84 2.506 . S
O96 C85 1.265 . S
C97 O92 1.258 . S
C97 O98 1.251 . S
O98 C97 1.251 . S
O99 Tb81 2.441 . S
O99 C94 1.244 . S
O100 Tb101 2.506 . S
O100 C114 1.265 . S
Tb101 O100 2.506 . S
Tb101 O106 2.312 . S
Tb101 O110 2.271 . S
Tb101 O112 2.338 . S
Tb101 O119 2.441 . S
C102 O110 1.252 . S
C102 O111 1.253 . S
O103 Tb104 2.271 . S
O103 C113 1.252 . S
Tb104 O103 2.271 . S
Tb104 O107 2.338 . S
Tb104 O111 2.312 . S
Tb104 O115 2.441 . S
Tb104 O116 2.506 . S
C105 O115 1.244 . S
C105 O116 1.265 . S
O106 Tb101 2.312 . S
O106 C113 1.253 . S
O107 Tb104 2.338 . S
O107 C108 1.258 . S
C108 O107 1.258 . S
C108 O109 1.251 . S
O109 C108 1.251 . S
O110 Tb101 2.271 . S
O110 C102 1.252 . S
O111 C102 1.253 . S
O111 Tb104 2.312 . S
O112 Tb101 2.338 . S
O112 C117 1.258 . S
C113 O103 1.252 . S
C113 O106 1.253 . S
C114 O100 1.265 . S
C114 O119 1.244 . S
O115 Tb104 2.441 . S
O115 C105 1.244 . S
O116 Tb104 2.506 . S
O116 C105 1.265 . S
C117 O112 1.258 . S
C117 O118 1.251 . S
O118 C117 1.251 . S
O119 Tb101 2.441 . S
O119 C114 1.244 . S
O120 Tb121 2.506 . S
O120 C134 1.265 . S
Tb121 O120 2.506 . S
Tb121 O126 2.312 . S
Tb121 O130 2.271 . S
Tb121 O132 2.338 . S
Tb121 O139 2.441 . S
C122 O130 1.252 . S
C122 O131 1.253 . S
O123 Tb124 2.271 . S
O123 C133 1.252 . S
Tb124 O123 2.271 . S
Tb124 O127 2.338 . S
Tb124 O131 2.312 . S
Tb124 O135 2.441 . S
Tb124 O136 2.506 . S
C125 O135 1.244 . S
C125 O136 1.265 . S
O126 Tb121 2.312 . S
O126 C133 1.253 . S
O127 Tb124 2.338 . S
O127 C128 1.258 . S
C128 O127 1.258 . S
C128 O129 1.251 . S
O129 C128 1.251 . S
O130 Tb121 2.271 . S
O130 C122 1.252 . S
O131 C122 1.253 . S
O131 Tb124 2.312 . S
O132 Tb121 2.338 . S
O132 C137 1.258 . S
C133 O123 1.252 . S
C133 O126 1.253 . S
C134 O120 1.265 . S
C134 O139 1.244 . S
O135 Tb124 2.441 . S
O135 C125 1.244 . S
O136 Tb124 2.506 . S
O136 C125 1.265 . S
C137 O132 1.258 . S
C137 O138 1.251 . S
O138 C137 1.251 . S
O139 Tb121 2.441 . S
O139 C134 1.244 . S
O140 Tb141 2.506 . S
O140 C154 1.265 . S
Tb141 O140 2.506 . S
Tb141 O146 2.312 1_655 S
Tb141 O150 2.271 1_655 S
Tb141 O152 2.338 . S
Tb141 O159 2.441 . S
C142 O150 1.252 . S
C142 O151 1.253 . S
O143 Tb144 2.271 . S
O143 C153 1.252 . S
Tb144 O143 2.271 . S
Tb144 O147 2.338 1_556 S
Tb144 O151 2.312 . S
Tb144 O155 2.437 1_556 S
Tb144 O156 2.506 . S
C145 O155 1.247 . S
C145 O156 1.265 1_554 S
O146 Tb141 2.312 1_455 S
O146 C153 1.253 . S
O147 Tb144 2.338 1_554 S
O147 C148 1.258 . S
C148 O147 1.258 . S
C148 O149 1.251 . S
O149 C148 1.251 . S
O150 Tb141 2.271 1_455 S
O150 C142 1.252 . S
O151 C142 1.253 . S
O151 Tb144 2.312 . S
O152 Tb141 2.338 . S
O152 C157 1.258 . S
C153 O143 1.252 . S
C153 O146 1.253 . S
C154 O140 1.265 . S
C154 O159 1.244 . S
O155 Tb144 2.437 1_554 S
O155 C145 1.247 . S
O156 Tb144 2.506 . S
O156 C145 1.265 1_556 S
C157 O152 1.258 . S
C157 O158 1.251 1_655 S
O158 C157 1.251 1_455 S
O159 Tb141 2.441 . S
O159 C154 1.244 . S
O160 Tb161 2.506 . S
O160 C174 1.265 . S
Tb161 O160 2.506 . S
Tb161 O166 2.312 . S
Tb161 O170 2.271 . S
Tb161 O172 2.338 . S
Tb161 O179 2.441 . S
C162 O170 1.252 . S
C162 O171 1.253 . S
O163 Tb164 2.271 . S
O163 C173 1.252 . S
Tb164 O163 2.271 . S
Tb164 O167 2.338 . S
Tb164 O171 2.312 . S
Tb164 O175 2.441 . S
Tb164 O176 2.506 . S
C165 O175 1.244 . S
C165 O176 1.265 . S
O166 Tb161 2.312 . S
O166 C173 1.253 . S
O167 Tb164 2.338 . S
O167 C168 1.258 . S
C168 O167 1.258 . S
C168 O169 1.251 . S
O169 C168 1.251 . S
O170 Tb161 2.271 . S
O170 C162 1.252 . S
O171 C162 1.253 . S
O171 Tb164 2.312 . S
O172 Tb161 2.338 . S
O172 C177 1.258 . S
C173 O163 1.252 . S
C173 O166 1.253 . S
C174 O160 1.265 . S
C174 O179 1.244 . S
O175 Tb164 2.441 . S
O175 C165 1.244 . S
O176 Tb164 2.506 . S
O176 C165 1.265 . S
C177 O172 1.258 . S
C177 O178 1.251 . S
O178 C177 1.251 . S
O179 Tb161 2.441 . S
O179 C174 1.244 . S
O180 Tb181 2.506 . S
O180 C194 1.265 . S
Tb181 O180 2.506 . S
Tb181 O186 2.312 . S
Tb181 O190 2.271 . S
Tb181 O192 2.338 . S
Tb181 O199 2.441 . S
C182 O190 1.252 . S
C182 O191 1.253 . S
O183 Tb184 2.271 1_655 S
O183 C193 1.252 . S
Tb184 O183 2.271 1_455 S
Tb184 O187 2.338 . S
Tb184 O191 2.312 1_455 S
Tb184 O195 2.441 . S
Tb184 O196 2.506 . S
C185 O195 1.244 . S
C185 O196 1.265 . S
O186 Tb181 2.312 . S
O186 C193 1.253 . S
O187 Tb184 2.338 . S
O187 C188 1.258 . S
C188 O187 1.258 . S
C188 O189 1.251 1_455 S
O189 C188 1.251 1_655 S
O190 Tb181 2.271 . S
O190 C182 1.252 . S
O191 C182 1.253 . S
O191 Tb184 2.312 1_655 S
O192 Tb181 2.338 . S
O192 C197 1.258 . S
C193 O183 1.252 . S
C193 O186 1.253 . S
C194 O180 1.265 . S
C194 O199 1.244 . S
O195 Tb184 2.441 . S
O195 C185 1.244 . S
O196 Tb184 2.506 . S
O196 C185 1.265 . S
C197 O192 1.258 . S
C197 O198 1.251 . S
O198 C197 1.251 . S
O199 Tb181 2.441 . S
O199 C194 1.244 . S
O200 Tb201 2.506 . S
O200 C214 1.265 . S
Tb201 O200 2.506 . S
Tb201 O206 2.312 . S
Tb201 O210 2.271 . S
Tb201 O212 2.338 . S
Tb201 O219 2.441 . S
C202 O210 1.252 . S
C202 O211 1.253 . S
O203 Tb204 2.271 . S
O203 C213 1.252 . S
Tb204 O203 2.271 . S
Tb204 O207 2.338 . S
Tb204 O211 2.312 . S
Tb204 O215 2.441 . S
Tb204 O216 2.506 . S
C205 O215 1.244 . S
C205 O216 1.265 . S
O206 Tb201 2.312 . S
O206 C213 1.253 . S
O207 Tb204 2.338 . S
O207 C208 1.258 . S
C208 O207 1.258 . S
C208 O209 1.251 . S
O209 C208 1.251 . S
O210 Tb201 2.271 . S
O210 C202 1.252 . S
O211 C202 1.253 . S
O211 Tb204 2.312 . S
O212 Tb201 2.338 . S
O212 C217 1.258 . S
C213 O203 1.252 . S
C213 O206 1.253 . S
C214 O200 1.265 . S
C214 O219 1.244 . S
O215 Tb204 2.441 . S
O215 C205 1.244 . S
O216 Tb204 2.506 . S
O216 C205 1.265 . S
C217 O212 1.258 . S
C217 O218 1.251 . S
O218 C217 1.251 . S
O219 Tb201 2.441 . S
O219 C214 1.244 . S
O220 Tb221 2.506 . S
O220 C234 1.265 1_556 S
Tb221 O220 2.506 . S
Tb221 O226 2.312 . S
Tb221 O230 2.271 . S
Tb221 O232 2.338 1_556 S
Tb221 O239 2.437 1_556 S
C222 O230 1.252 . S
C222 O231 1.253 . S
O223 Tb224 2.271 . S
O223 C233 1.252 . S
Tb224 O223 2.271 . S
Tb224 O227 2.338 . S
Tb224 O231 2.312 . S
Tb224 O235 2.441 . S
Tb224 O236 2.506 . S
C225 O235 1.244 . S
C225 O236 1.265 . S
O226 Tb221 2.312 . S
O226 C233 1.253 . S
O227 Tb224 2.338 . S
O227 C228 1.258 . S
C228 O227 1.258 . S
C228 O229 1.251 . S
O229 C228 1.251 . S
O230 Tb221 2.271 . S
O230 C222 1.252 . S
O231 C222 1.253 . S
O231 Tb224 2.312 . S
O232 Tb221 2.338 1_554 S
O232 C237 1.258 . S
C233 O223 1.252 . S
C233 O226 1.253 . S
C234 O220 1.265 1_554 S
C234 O239 1.247 . S
O235 Tb224 2.441 . S
O235 C225 1.244 . S
O236 Tb224 2.506 . S
O236 C225 1.265 . S
C237 O232 1.258 . S
C237 O238 1.251 . S
O238 C237 1.251 . S
O239 Tb221 2.437 1_554 S
O239 C234 1.247 . S
O240 Tb241 2.506 . S
O240 C254 1.265 . S
Tb241 O240 2.506 . S
Tb241 O246 2.312 . S
Tb241 O250 2.271 . S
Tb241 O252 2.338 . S
Tb241 O259 2.441 . S
C242 O250 1.252 . S
C242 O251 1.253 . S
O243 Tb244 2.271 . S
O243 C253 1.252 . S
Tb244 O243 2.271 . S
Tb244 O247 2.338 . S
Tb244 O251 2.312 . S
Tb244 O255 2.441 . S
Tb244 O256 2.506 . S
C245 O255 1.244 . S
C245 O256 1.265 . S
O246 Tb241 2.312 . S
O246 C253 1.253 . S
O247 Tb244 2.338 . S
O247 C248 1.258 . S
C248 O247 1.258 . S
C248 O249 1.251 . S
O249 C248 1.251 . S
O250 Tb241 2.271 . S
O250 C242 1.252 . S
O251 C242 1.253 . S
O251 Tb244 2.312 . S
O252 Tb241 2.338 . S
O252 C257 1.258 . S
C253 O243 1.252 . S
C253 O246 1.253 . S
C254 O240 1.265 . S
C254 O259 1.244 . S
O255 Tb244 2.441 . S
O255 C245 1.244 . S
O256 Tb244 2.506 . S
O256 C245 1.265 . S
C257 O252 1.258 . S
C257 O258 1.251 . S
O258 C257 1.251 . S
O259 Tb241 2.441 . S
O259 C254 1.244 . S
O260 Tb261 2.506 . S
O260 C274 1.265 . S
Tb261 O260 2.506 . S
Tb261 O266 2.312 . S
Tb261 O270 2.271 . S
Tb261 O272 2.338 . S
Tb261 O279 2.441 . S
C262 O270 1.252 . S
C262 O271 1.253 . S
O263 Tb264 2.271 . S
O263 C273 1.252 . S
Tb264 O263 2.271 . S
Tb264 O267 2.338 . S
Tb264 O271 2.312 . S
Tb264 O275 2.441 . S
Tb264 O276 2.506 . S
C265 O275 1.244 . S
C265 O276 1.265 . S
O266 Tb261 2.312 . S
O266 C273 1.253 . S
O267 Tb264 2.338 . S
O267 C268 1.258 . S
C268 O267 1.258 . S
C268 O269 1.251 . S
O269 C268 1.251 . S
O270 Tb261 2.271 . S
O270 C262 1.252 . S
O271 C262 1.253 . S
O271 Tb264 2.312 . S
O272 Tb261 2.338 . S
O272 C277 1.258 . S
C273 O263 1.252 . S
C273 O266 1.253 . S
C274 O260 1.265 . S
C274 O279 1.244 . S
O275 Tb264 2.441 . S
O275 C265 1.244 . S
O276 Tb264 2.506 . S
O276 C265 1.265 . S
C277 O272 1.258 . S
C277 O278 1.251 . S
O278 C277 1.251 . S
O279 Tb261 2.441 . S
O279 C274 1.244 . S
O280 Tb281 2.506 . S
O280 C294 1.265 . S
Tb281 O280 2.506 . S
Tb281 O286 2.312 . S
Tb281 O290 2.271 . S
Tb281 O292 2.338 . S
Tb281 O299 2.441 . S
C282 O290 1.252 . S
C282 O291 1.253 . S
O283 Tb284 2.271 . S
O283 C293 1.252 . S
Tb284 O283 2.271 . S
Tb284 O287 2.338 . S
Tb284 O291 2.312 . S
Tb284 O295 2.441 . S
Tb284 O296 2.506 . S
C285 O295 1.244 . S
C285 O296 1.265 . S
O286 Tb281 2.312 . S
O286 C293 1.253 . S
O287 Tb284 2.338 . S
O287 C288 1.258 . S
C288 O287 1.258 . S
C288 O289 1.251 . S
O289 C288 1.251 . S
O290 Tb281 2.271 . S
O290 C282 1.252 . S
O291 C282 1.253 . S
O291 Tb284 2.312 . S
O292 Tb281 2.338 . S
O292 C297 1.258 . S
C293 O283 1.252 . S
C293 O286 1.253 . S
C294 O280 1.265 . S
C294 O299 1.244 . S
O295 Tb284 2.441 . S
O295 C285 1.244 . S
O296 Tb284 2.506 . S
O296 C285 1.265 . S
C297 O292 1.258 . S
C297 O298 1.251 . S
O298 C297 1.251 . S
O299 Tb281 2.441 . S
O299 C294 1.244 . S
O300 Tb301 2.506 . S
O300 C314 1.265 1_554 S
Tb301 O300 2.506 . S
Tb301 O306 2.312 . S
Tb301 O310 2.271 . S
Tb301 O312 2.338 1_554 S
Tb301 O319 2.437 1_554 S
C302 O310 1.252 . S
C302 O311 1.253 . S
O303 Tb304 2.271 1_655 S
O303 C313 1.252 . S
Tb304 O303 2.271 1_455 S
Tb304 O307 2.338 . S
Tb304 O311 2.312 1_455 S
Tb304 O315 2.441 . S
Tb304 O316 2.506 . S
C305 O315 1.244 . S
C305 O316 1.265 . S
O306 Tb301 2.312 . S
O306 C313 1.253 . S
O307 Tb304 2.338 . S
O307 C308 1.258 . S
C308 O307 1.258 . S
C308 O309 1.251 1_455 S
O309 C308 1.251 1_655 S
O310 Tb301 2.271 . S
O310 C302 1.252 . S
O311 C302 1.253 . S
O311 Tb304 2.312 1_655 S
O312 Tb301 2.338 1_556 S
O312 C317 1.258 . S
C313 O303 1.252 . S
C313 O306 1.253 . S
C314 O300 1.265 1_556 S
C314 O319 1.247 . S
O315 Tb304 2.441 . S
O315 C305 1.244 . S
O316 Tb304 2.506 . S
O316 C305 1.265 . S
C317 O312 1.258 . S
C317 O318 1.251 . S
O318 C317 1.251 . S
O319 Tb301 2.437 1_556 S
O319 C314 1.247 . S
O320 Tb321 2.506 . S
O320 C334 1.265 . S
Tb321 O320 2.506 . S
Tb321 O326 2.312 . S
Tb321 O330 2.271 . S
Tb321 O332 2.338 . S
Tb321 O339 2.441 . S
C322 O330 1.252 . S
C322 O331 1.253 . S
O323 Tb324 2.271 . S
O323 C333 1.252 . S
Tb324 O323 2.271 . S
Tb324 O327 2.338 . S
Tb324 O331 2.312 . S
Tb324 O335 2.441 . S
Tb324 O336 2.506 . S
C325 O335 1.244 . S
C325 O336 1.265 . S
O326 Tb321 2.312 . S
O326 C333 1.253 . S
O327 Tb324 2.338 . S
O327 C328 1.258 . S
C328 O327 1.258 . S
C328 O329 1.251 . S
O329 C328 1.251 . S
O330 Tb321 2.271 . S
O330 C322 1.252 . S
O331 C322 1.253 . S
O331 Tb324 2.312 . S
O332 Tb321 2.338 . S
O332 C337 1.258 . S
C333 O323 1.252 . S
C333 O326 1.253 . S
C334 O320 1.265 . S
C334 O339 1.244 . S
O335 Tb324 2.441 . S
O335 C325 1.244 . S
O336 Tb324 2.506 . S
O336 C325 1.265 . S
C337 O332 1.258 . S
C337 O338 1.251 . S
O338 C337 1.251 . S
O339 Tb321 2.441 . S
O339 C334 1.244 . S
O340 Tb341 2.506 . S
O340 C354 1.265 1_554 S
Tb341 O340 2.506 . S
Tb341 O346 2.312 . S
Tb341 O350 2.271 . S
Tb341 O352 2.338 1_554 S
Tb341 O359 2.437 1_554 S
C342 O350 1.252 . S
C342 O351 1.253 . S
O343 Tb344 2.271 . S
O343 C353 1.252 . S
Tb344 O343 2.271 . S
Tb344 O347 2.338 . S
Tb344 O351 2.312 . S
Tb344 O355 2.441 . S
Tb344 O356 2.506 . S
C345 O355 1.244 . S
C345 O356 1.265 . S
O346 Tb341 2.312 . S
O346 C353 1.253 . S
O347 Tb344 2.338 . S
O347 C348 1.258 . S
C348 O347 1.258 . S
C348 O349 1.251 . S
O349 C348 1.251 . S
O350 Tb341 2.271 . S
O350 C342 1.252 . S
O351 C342 1.253 . S
O351 Tb344 2.312 . S
O352 Tb341 2.338 1_556 S
O352 C357 1.258 . S
C353 O343 1.252 . S
C353 O346 1.253 . S
C354 O340 1.265 1_556 S
C354 O359 1.247 . S
O355 Tb344 2.441 . S
O355 C345 1.244 . S
O356 Tb344 2.506 . S
O356 C345 1.265 . S
C357 O352 1.258 . S
C357 O358 1.251 . S
O358 C357 1.251 . S
O359 Tb341 2.437 1_556 S
O359 C354 1.247 . S
O360 Tb361 2.506 . S
O360 C374 1.265 . S
Tb361 O360 2.506 . S
Tb361 O366 2.312 . S
Tb361 O370 2.271 . S
Tb361 O372 2.338 . S
Tb361 O379 2.441 . S
C362 O370 1.252 . S
C362 O371 1.253 . S
O363 Tb364 2.271 . S
O363 C373 1.252 . S
Tb364 O363 2.271 . S
Tb364 O367 2.338 . S
Tb364 O371 2.312 . S
Tb364 O375 2.441 . S
Tb364 O376 2.506 . S
C365 O375 1.244 . S
C365 O376 1.265 . S
O366 Tb361 2.312 . S
O366 C373 1.253 . S
O367 Tb364 2.338 . S
O367 C368 1.258 . S
C368 O367 1.258 . S
C368 O369 1.251 . S
O369 C368 1.251 . S
O370 Tb361 2.271 . S
O370 C362 1.252 . S
O371 C362 1.253 . S
O371 Tb364 2.312 . S
O372 Tb361 2.338 . S
O372 C377 1.258 . S
C373 O363 1.252 . S
C373 O366 1.253 . S
C374 O360 1.265 . S
C374 O379 1.244 . S
O375 Tb364 2.441 . S
O375 C365 1.244 . S
O376 Tb364 2.506 . S
O376 C365 1.265 . S
C377 O372 1.258 . S
C377 O378 1.251 . S
O378 C377 1.251 . S
O379 Tb361 2.441 . S
O379 C374 1.244 . S
O380 Tb381 2.506 . S
O380 C394 1.265 . S
Tb381 O380 2.506 . S
Tb381 O386 2.312 . S
Tb381 O390 2.271 . S
Tb381 O392 2.338 . S
Tb381 O399 2.441 . S
C382 O390 1.252 . S
C382 O391 1.253 . S
O383 Tb384 2.271 1_655 S
O383 C393 1.252 . S
Tb384 O383 2.271 1_455 S
Tb384 O387 2.338 . S
Tb384 O391 2.312 1_455 S
Tb384 O395 2.441 . S
Tb384 O396 2.506 . S
C385 O395 1.244 . S
C385 O396 1.265 . S
O386 Tb381 2.312 . S
O386 C393 1.253 . S
O387 Tb384 2.338 . S
O387 C388 1.258 . S
C388 O387 1.258 . S
C388 O389 1.251 1_455 S
O389 C388 1.251 1_655 S
O390 Tb381 2.271 . S
O390 C382 1.252 . S
O391 C382 1.253 . S
O391 Tb384 2.312 1_655 S
O392 Tb381 2.338 . S
O392 C397 1.258 . S
C393 O383 1.252 . S
C393 O386 1.253 . S
C394 O380 1.265 . S
C394 O399 1.244 . S
O395 Tb384 2.441 . S
O395 C385 1.244 . S
O396 Tb384 2.506 . S
O396 C385 1.265 . S
C397 O392 1.258 . S
C397 O398 1.251 . S
O398 C397 1.251 . S
O399 Tb381 2.441 . S
O399 C394 1.244 . S
O400 Tb401 2.506 . S
O400 C414 1.265 . S
Tb401 O400 2.506 . S
Tb401 O406 2.312 . S
Tb401 O410 2.271 . S
Tb401 O412 2.338 . S
Tb401 O419 2.441 . S
C402 O410 1.252 . S
C402 O411 1.253 . S
O403 Tb404 2.271 . S
O403 C413 1.252 . S
Tb404 O403 2.271 . S
Tb404 O407 2.338 . S
Tb404 O411 2.312 . S
Tb404 O415 2.441 . S
Tb404 O416 2.506 . S
C405 O415 1.244 . S
C405 O416 1.265 . S
O406 Tb401 2.312 . S
O406 C413 1.253 . S
O407 Tb404 2.338 . S
O407 C408 1.258 . S
C408 O407 1.258 . S
C408 O409 1.251 . S
O409 C408 1.251 . S
O410 Tb401 2.271 . S
O410 C402 1.252 . S
O411 C402 1.253 . S
O411 Tb404 2.312 . S
O412 Tb401 2.338 . S
O412 C417 1.258 . S
C413 O403 1.252 . S
C413 O406 1.253 . S
C414 O400 1.265 . S
C414 O419 1.244 . S
O415 Tb404 2.441 . S
O415 C405 1.244 . S
O416 Tb404 2.506 . S
O416 C405 1.265 . S
C417 O412 1.258 . S
C417 O418 1.251 . S
O418 C417 1.251 . S
O419 Tb401 2.441 . S
O419 C414 1.244 . S
O420 Tb421 2.506 . S
O420 C434 1.265 1_556 S
Tb421 O420 2.506 . S
Tb421 O426 2.312 . S
Tb421 O430 2.271 . S
Tb421 O432 2.338 1_556 S
Tb421 O439 2.437 1_556 S
C422 O430 1.252 . S
C422 O431 1.253 . S
O423 Tb424 2.271 1_655 S
O423 C433 1.252 . S
Tb424 O423 2.271 1_455 S
Tb424 O427 2.338 . S
Tb424 O431 2.312 1_455 S
Tb424 O435 2.441 . S
Tb424 O436 2.506 . S
C425 O435 1.244 . S
C425 O436 1.265 . S
O426 Tb421 2.312 . S
O426 C433 1.253 . S
O427 Tb424 2.338 . S
O427 C428 1.258 . S
C428 O427 1.258 . S
C428 O429 1.251 1_455 S
O429 C428 1.251 1_655 S
O430 Tb421 2.271 . S
O430 C422 1.252 . S
O431 C422 1.253 . S
O431 Tb424 2.312 1_655 S
O432 Tb421 2.338 1_554 S
O432 C437 1.258 . S
C433 O423 1.252 . S
C433 O426 1.253 . S
C434 O420 1.265 1_554 S
C434 O439 1.247 . S
O435 Tb424 2.441 . S
O435 C425 1.244 . S
O436 Tb424 2.506 . S
O436 C425 1.265 . S
C437 O432 1.258 . S
C437 O438 1.251 . S
O438 C437 1.251 . S
O439 Tb421 2.437 1_554 S
O439 C434 1.247 . S
O440 Tb441 2.506 . S
O440 C454 1.265 . S
Tb441 O440 2.506 . S
Tb441 O446 2.312 . S
Tb441 O450 2.271 . S
Tb441 O452 2.338 . S
Tb441 O459 2.441 . S
C442 O450 1.252 . S
C442 O451 1.253 . S
O443 Tb444 2.271 . S
O443 C453 1.252 . S
Tb444 O443 2.271 . S
Tb444 O447 2.338 . S
Tb444 O451 2.312 . S
Tb444 O455 2.441 . S
Tb444 O456 2.506 . S
C445 O455 1.244 . S
C445 O456 1.265 . S
O446 Tb441 2.312 . S
O446 C453 1.253 . S
O447 Tb444 2.338 . S
O447 C448 1.258 . S
C448 O447 1.258 . S
C448 O449 1.251 . S
O449 C448 1.251 . S
O450 Tb441 2.271 . S
O450 C442 1.252 . S
O451 C442 1.253 . S
O451 Tb444 2.312 . S
O452 Tb441 2.338 . S
O452 C457 1.258 . S
C453 O443 1.252 . S
C453 O446 1.253 . S
C454 O440 1.265 . S
C454 O459 1.244 . S
O455 Tb444 2.441 . S
O455 C445 1.244 . S
O456 Tb444 2.506 . S
O456 C445 1.265 . S
C457 O452 1.258 . S
C457 O458 1.251 . S
O458 C457 1.251 . S
O459 Tb441 2.441 . S
O459 C454 1.244 . S
O460 Tb461 2.506 . S
O460 C474 1.265 . S
Tb461 O460 2.506 . S
Tb461 O466 2.312 . S
Tb461 O470 2.271 . S
Tb461 O472 2.338 . S
Tb461 O479 2.441 . S
C462 O470 1.252 . S
C462 O471 1.253 . S
O463 Tb464 2.271 . S
O463 C473 1.252 . S
Tb464 O463 2.271 . S
Tb464 O467 2.338 . S
Tb464 O471 2.312 . S
Tb464 O475 2.441 . S
Tb464 O476 2.506 . S
C465 O475 1.244 . S
C465 O476 1.265 . S
O466 Tb461 2.312 . S
O466 C473 1.253 . S
O467 Tb464 2.338 . S
O467 C468 1.258 . S
C468 O467 1.258 . S
C468 O469 1.251 . S
O469 C468 1.251 . S
O470 Tb461 2.271 . S
O470 C462 1.252 . S
O471 C462 1.253 . S
O471 Tb464 2.312 . S
O472 Tb461 2.338 . S
O472 C477 1.258 . S
C473 O463 1.252 . S
C473 O466 1.253 . S
C474 O460 1.265 . S
C474 O479 1.244 . S
O475 Tb464 2.441 . S
O475 C465 1.244 . S
O476 Tb464 2.506 . S
O476 C465 1.265 . S
C477 O472 1.258 . S
C477 O478 1.251 . S
O478 C477 1.251 . S
O479 Tb461 2.441 . S
O479 C474 1.244 . S
O480 Tb481 2.506 . S
O480 C494 1.265 . S
Tb481 O480 2.506 . S
Tb481 O486 2.312 . S
Tb481 O490 2.271 . S
Tb481 O492 2.338 . S
Tb481 O499 2.441 . S
C482 O490 1.252 . S
C482 O491 1.253 . S
O483 Tb484 2.271 . S
O483 C493 1.252 . S
Tb484 O483 2.271 . S
Tb484 O487 2.338 . S
Tb484 O491 2.312 . S
Tb484 O495 2.441 . S
Tb484 O496 2.506 . S
C485 O495 1.244 . S
C485 O496 1.265 . S
O486 Tb481 2.312 . S
O486 C493 1.253 . S
O487 Tb484 2.338 . S
O487 C488 1.258 . S
C488 O487 1.258 . S
C488 O489 1.251 . S
O489 C488 1.251 . S
O490 Tb481 2.271 . S
O490 C482 1.252 . S
O491 C482 1.253 . S
O491 Tb484 2.312 . S
O492 Tb481 2.338 . S
O492 C497 1.258 . S
C493 O483 1.252 . S
C493 O486 1.253 . S
C494 O480 1.265 . S
C494 O499 1.244 . S
O495 Tb484 2.441 . S
O495 C485 1.244 . S
O496 Tb484 2.506 . S
O496 C485 1.265 . S
C497 O492 1.258 . S
C497 O498 1.251 . S
O498 C497 1.251 . S
O499 Tb481 2.441 . S
O499 C494 1.244 . S
O500 Tb501 2.506 . S
O500 C514 1.265 1_556 S
Tb501 O500 2.506 . S
Tb501 O506 2.312 . S
Tb501 O510 2.271 . S
Tb501 O512 2.338 1_556 S
Tb501 O519 2.437 1_556 S
C502 O510 1.252 . S
C502 O511 1.253 . S
O503 Tb504 2.271 . S
O503 C513 1.252 . S
Tb504 O503 2.271 . S
Tb504 O507 2.338 . S
Tb504 O511 2.312 . S
Tb504 O515 2.441 . S
Tb504 O516 2.506 . S
C505 O515 1.244 . S
C505 O516 1.265 . S
O506 Tb501 2.312 . S
O506 C513 1.253 . S
O507 Tb504 2.338 . S
O507 C508 1.258 . S
C508 O507 1.258 . S
C508 O509 1.251 . S
O509 C508 1.251 . S
O510 Tb501 2.271 . S
O510 C502 1.252 . S
O511 C502 1.253 . S
O511 Tb504 2.312 . S
O512 Tb501 2.338 1_554 S
O512 C517 1.258 . S
C513 O503 1.252 . S
C513 O506 1.253 . S
C514 O500 1.265 1_554 S
C514 O519 1.247 . S
O515 Tb504 2.441 . S
O515 C505 1.244 . S
O516 Tb504 2.506 . S
O516 C505 1.265 . S
C517 O512 1.258 . S
C517 O518 1.251 . S
O518 C517 1.251 . S
O519 Tb501 2.437 1_554 S
O519 C514 1.247 . S
O520 Tb521 2.506 . S
O520 C534 1.265 . S
Tb521 O520 2.506 . S
Tb521 O526 2.312 . S
Tb521 O530 2.271 . S
Tb521 O532 2.338 . S
Tb521 O539 2.441 . S
C522 O530 1.252 . S
C522 O531 1.253 . S
O523 Tb524 2.271 . S
O523 C533 1.252 . S
Tb524 O523 2.271 . S
Tb524 O527 2.338 . S
Tb524 O531 2.312 . S
Tb524 O535 2.441 . S
Tb524 O536 2.506 . S
C525 O535 1.244 . S
C525 O536 1.265 . S
O526 Tb521 2.312 . S
O526 C533 1.253 . S
O527 Tb524 2.338 . S
O527 C528 1.258 . S
C528 O527 1.258 . S
C528 O529 1.251 . S
O529 C528 1.251 . S
O530 Tb521 2.271 . S
O530 C522 1.252 . S
O531 C522 1.253 . S
O531 Tb524 2.312 . S
O532 Tb521 2.338 . S
O532 C537 1.258 . S
C533 O523 1.252 . S
C533 O526 1.253 . S
C534 O520 1.265 . S
C534 O539 1.244 . S
O535 Tb524 2.441 . S
O535 C525 1.244 . S
O536 Tb524 2.506 . S
O536 C525 1.265 . S
C537 O532 1.258 . S
C537 O538 1.251 . S
O538 C537 1.251 . S
O539 Tb521 2.441 . S
O539 C534 1.244 . S
O540 Tb541 2.506 . S
O540 C554 1.265 . S
Tb541 O540 2.506 . S
Tb541 O546 2.312 . S
Tb541 O550 2.271 . S
Tb541 O552 2.338 . S
Tb541 O559 2.441 . S
C542 O550 1.252 . S
C542 O551 1.253 . S
O543 Tb544 2.271 1_455 S
O543 C553 1.252 . S
Tb544 O543 2.271 1_655 S
Tb544 O547 2.338 . S
Tb544 O551 2.312 1_655 S
Tb544 O555 2.441 . S
Tb544 O556 2.506 . S
C545 O555 1.244 . S
C545 O556 1.265 . S
O546 Tb541 2.312 . S
O546 C553 1.253 . S
O547 Tb544 2.338 . S
O547 C548 1.258 . S
C548 O547 1.258 . S
C548 O549 1.251 1_655 S
O549 C548 1.251 1_455 S
O550 Tb541 2.271 . S
O550 C542 1.252 . S
O551 C542 1.253 . S
O551 Tb544 2.312 1_455 S
O552 Tb541 2.338 . S
O552 C557 1.258 . S
C553 O543 1.252 . S
C553 O546 1.253 . S
C554 O540 1.265 . S
C554 O559 1.244 . S
O555 Tb544 2.441 . S
O555 C545 1.244 . S
O556 Tb544 2.506 . S
O556 C545 1.265 . S
C557 O552 1.258 . S
C557 O558 1.251 . S
O558 C557 1.251 . S
O559 Tb541 2.441 . S
O559 C554 1.244 . S
O560 Tb561 2.506 . S
O560 C574 1.265 . S
Tb561 O560 2.506 . S
Tb561 O566 2.312 . S
Tb561 O570 2.271 . S
Tb561 O572 2.338 . S
Tb561 O579 2.441 . S
C562 O570 1.252 . S
C562 O571 1.253 . S
O563 Tb564 2.271 . S
O563 C573 1.252 . S
Tb564 O563 2.271 . S
Tb564 O567 2.338 . S
Tb564 O571 2.312 . S
Tb564 O575 2.441 . S
Tb564 O576 2.506 . S
C565 O575 1.244 . S
C565 O576 1.265 . S
O566 Tb561 2.312 . S
O566 C573 1.253 . S
O567 Tb564 2.338 . S
O567 C568 1.258 . S
C568 O567 1.258 . S
C568 O569 1.251 . S
O569 C568 1.251 . S
O570 Tb561 2.271 . S
O570 C562 1.252 . S
O571 C562 1.253 . S
O571 Tb564 2.312 . S
O572 Tb561 2.338 . S
O572 C577 1.258 . S
C573 O563 1.252 . S
C573 O566 1.253 . S
C574 O560 1.265 . S
C574 O579 1.244 . S
O575 Tb564 2.441 . S
O575 C565 1.244 . S
O576 Tb564 2.506 . S
O576 C565 1.265 . S
C577 O572 1.258 . S
C577 O578 1.251 . S
O578 C577 1.251 . S
O579 Tb561 2.441 . S
O579 C574 1.244 . S
O580 Tb581 2.506 . S
O580 C594 1.265 1_554 S
Tb581 O580 2.506 . S
Tb581 O586 2.312 . S
Tb581 O590 2.271 . S
Tb581 O592 2.338 1_554 S
Tb581 O599 2.437 1_554 S
C582 O590 1.252 . S
C582 O591 1.253 . S
O583 Tb584 2.271 1_455 S
O583 C593 1.252 . S
Tb584 O583 2.271 1_655 S
Tb584 O587 2.338 . S
Tb584 O591 2.312 1_655 S
Tb584 O595 2.441 . S
Tb584 O596 2.506 . S
C585 O595 1.244 . S
C585 O596 1.265 . S
O586 Tb581 2.312 . S
O586 C593 1.253 . S
O587 Tb584 2.338 . S
O587 C588 1.258 . S
C588 O587 1.258 . S
C588 O589 1.251 1_655 S
O589 C588 1.251 1_455 S
O590 Tb581 2.271 . S
O590 C582 1.252 . S
O591 C582 1.253 . S
O591 Tb584 2.312 1_455 S
O592 Tb581 2.338 1_556 S
O592 C597 1.258 . S
C593 O583 1.252 . S
C593 O586 1.253 . S
C594 O580 1.265 1_556 S
C594 O599 1.247 . S
O595 Tb584 2.441 . S
O595 C585 1.244 . S
O596 Tb584 2.506 . S
O596 C585 1.265 . S
C597 O592 1.258 . S
C597 O598 1.251 . S
O598 C597 1.251 . S
O599 Tb581 2.437 1_556 S
O599 C594 1.247 . S
O600 Tb601 2.506 . S
O600 C614 1.265 . S
Tb601 O600 2.506 . S
Tb601 O606 2.312 . S
Tb601 O610 2.271 . S
Tb601 O612 2.338 . S
Tb601 O619 2.441 . S
C602 O610 1.252 . S
C602 O611 1.253 . S
O603 Tb604 2.271 . S
O603 C613 1.252 . S
Tb604 O603 2.271 . S
Tb604 O607 2.338 . S
Tb604 O611 2.312 . S
Tb604 O615 2.441 . S
Tb604 O616 2.506 . S
C605 O615 1.244 . S
C605 O616 1.265 . S
O606 Tb601 2.312 . S
O606 C613 1.253 . S
O607 Tb604 2.338 . S
O607 C608 1.258 . S
C608 O607 1.258 . S
C608 O609 1.251 . S
O609 C608 1.251 . S
O610 Tb601 2.271 . S
O610 C602 1.252 . S
O611 C602 1.253 . S
O611 Tb604 2.312 . S
O612 Tb601 2.338 . S
O612 C617 1.258 . S
C613 O603 1.252 . S
C613 O606 1.253 . S
C614 O600 1.265 . S
C614 O619 1.244 . S
O615 Tb604 2.441 . S
O615 C605 1.244 . S
O616 Tb604 2.506 . S
O616 C605 1.265 . S
C617 O612 1.258 . S
C617 O618 1.251 . S
O618 C617 1.251 . S
O619 Tb601 2.441 . S
O619 C614 1.244 . S
O620 Tb621 2.506 . S
O620 C634 1.265 . S
Tb621 O620 2.506 . S
Tb621 O626 2.312 . S
Tb621 O630 2.271 . S
Tb621 O632 2.338 . S
Tb621 O639 2.441 . S
C622 O630 1.252 . S
C622 O631 1.253 . S
O623 Tb624 2.271 . S
O623 C633 1.252 . S
Tb624 O623 2.271 . S
Tb624 O627 2.338 . S
Tb624 O631 2.312 . S
Tb624 O635 2.441 . S
Tb624 O636 2.506 . S
C625 O635 1.244 . S
C625 O636 1.265 . S
O626 Tb621 2.312 . S
O626 C633 1.253 . S
O627 Tb624 2.338 . S
O627 C628 1.258 . S
C628 O627 1.258 . S
C628 O629 1.251 . S
O629 C628 1.251 . S
O630 Tb621 2.271 . S
O630 C622 1.252 . S
O631 C622 1.253 . S
O631 Tb624 2.312 . S
O632 Tb621 2.338 . S
O632 C637 1.258 . S
C633 O623 1.252 . S
C633 O626 1.253 . S
C634 O620 1.265 . S
C634 O639 1.244 . S
O635 Tb624 2.441 . S
O635 C625 1.244 . S
O636 Tb624 2.506 . S
O636 C625 1.265 . S
C637 O632 1.258 . S
C637 O638 1.251 . S
O638 C637 1.251 . S
O639 Tb621 2.441 . S
O639 C634 1.244 . S
C5 C94 1.647 1_545 S
C114 C34 1.647 . S
C134 C54 1.647 1_545 S
C74 C145 1.647 1_556 S
C174 C254 1.647 1_565 S
C194 C274 1.647 . S
C214 C294 1.647 1_545 S
C314 C234 1.647 1_556 S
C325 C414 1.647 . S
C434 C354 1.647 1_554 S
C374 C454 1.647 . S
C465 C394 1.647 . S
C494 C574 1.647 . S
C514 C594 1.647 1_554 S
C534 C614 1.647 . S
C554 C634 1.647 . S
C482 C13 4.171 . S
C182 C22 4.171 1_645 S
C42 C522 4.171 . S
C62 C222 4.171 1_544 S
C82 C562 4.171 . S
C102 C262 4.171 1_565 S
C602 C122 4.171 . S
C302 C153 4.171 1_664 S
C333 C162 4.171 . S
C202 C362 4.171 . S
C242 C402 4.171 . S
C442 C282 4.171 . S
C342 C502 4.171 1_554 S
C542 C382 4.171 1_455 S
C582 C422 4.171 1_454 S
C473 C622 4.171 . S
C14 C553 1.896 . S
C25 C173 1.896 . S
C45 C513 1.896 . S
C213 C65 1.896 . S
C593 C85 1.896 . S
C105 C293 1.896 . S
C633 C125 1.896 . S
C253 C154 1.896 . S
C393 C165 1.896 . S
C185 C2 1.896 . S
C353 C205 1.896 . S
C53 C225 1.896 . S
C433 C245 1.896 . S
C265 C133 1.896 . S
C285 C462 1.896 . S
C93 C305 1.896 . S
C334 C233 1.896 . S
C345 C493 1.896 . S
C193 C365 1.896 . S
C385 C533 1.896 . S
C273 C405 1.896 . S
C425 C613 1.896 . S
C313 C445 1.896 . S
C474 C573 1.896 . S
C73 C485 1.896 . S
C505 C322 1.896 . S
C525 C33 1.896 . S
C373 C545 1.896 . S
C113 C565 1.896 . S
C453 C585 1.896 . S
C605 C142 1.896 . S
C413 C625 1.896 . S
C17 C368 3.042 1_455 S
C28 C388 3.042 1_655 S
C48 C337 3.042 . S
C68 C348 3.042 . S
C448 C88 3.042 1_655 S
C477 C108 3.042 . S
C128 C408 3.042 . S
C428 C157 3.042 1_455 S
C528 C168 3.042 1_455 S
C548 C188 3.042 1_655 S
C488 C208 3.042 . S
C228 C508 3.042 . S
C248 C608 3.042 1_655 S
C628 C268 3.042 . S
C568 C288 3.042 . S
C308 C588 3.042 1_455 S
C148 C8 3.646 . S
C37 C97 3.645 . S
C57 C117 3.645 . S
C137 C77 3.645 . S
C317 C177 3.646 . S
C197 C257 3.645 . S
C277 C217 3.645 . S
C297 C237 3.645 . S
C468 C328 3.646 . S
C417 C357 3.645 . S
C437 C377 3.645 . S
C397 C457 3.645 . S
C637 C497 3.646 . S
C577 C517 3.645 . S
C597 C537 3.645 . S
C557 C617 3.645 . S
