# Generated by pormake.
# Topology wjh, (4)-cn, num edge types: 1
# Building blocks:
#     Node 0, Type 0, BuildingBlock: NAHDIM_clean_sbu_0, # of connection points: 4
#     Node 1, Type 0, BuildingBlock: NAHDIM_clean_sbu_0, # of connection points: 4
#     Node 2, Type 0, BuildingBlock: NAHDIM_clean_sbu_0, # of connection points: 4
#     Node 3, Type 0, BuildingBlock: NAHDIM_clean_sbu_0, # of connection points: 4
#     Node 4, Type 0, BuildingBlock: NAHDIM_clean_sbu_0, # of connection points: 4
#     Node 5, Type 0, BuildingBlock: NAHDIM_clean_sbu_0, # of connection points: 4
#     Node 6, Type 0, BuildingBlock: NAHDIM_clean_sbu_0, # of connection points: 4
#     Node 7, Type 0, BuildingBlock: NAHDIM_clean_sbu_0, # of connection points: 4
#     Node 8, Type 0, BuildingBlock: NAHDIM_clean_sbu_0, # of connection points: 4
#     Node 9, Type 0, BuildingBlock: NAHDIM_clean_sbu_0, # of connection points: 4
#     Node 10, Type 0, BuildingBlock: NAHDIM_clean_sbu_0, # of connection points: 4
#     Node 11, Type 0, BuildingBlock: NAHDIM_clean_sbu_0, # of connection points: 4
#     Edge 12, Type (0, 0), BuildingBlock: EZIPEK_clean_linker_0, # of connection points: 2
#     Edge 13, Type (0, 0), BuildingBlock: EZIPEK_clean_linker_0, # of connection points: 2
#     Edge 14, Type (0, 0), BuildingBlock: EZIPEK_clean_linker_0, # of connection points: 2
#     Edge 15, Type (0, 0), BuildingBlock: EZIPEK_clean_linker_0, # of connection points: 2
#     Edge 16, Type (0, 0), BuildingBlock: EZIPEK_clean_linker_0, # of connection points: 2
#     Edge 17, Type (0, 0), BuildingBlock: EZIPEK_clean_linker_0, # of connection points: 2
#     Edge 18, Type (0, 0), BuildingBlock: EZIPEK_clean_linker_0, # of connection points: 2
#     Edge 19, Type (0, 0), BuildingBlock: EZIPEK_clean_linker_0, # of connection points: 2
#     Edge 20, Type (0, 0), BuildingBlock: EZIPEK_clean_linker_0, # of connection points: 2
#     Edge 21, Type (0, 0), BuildingBlock: EZIPEK_clean_linker_0, # of connection points: 2
#     Edge 22, Type (0, 0), BuildingBlock: EZIPEK_clean_linker_0, # of connection points: 2
#     Edge 23, Type (0, 0), BuildingBlock: EZIPEK_clean_linker_0, # of connection points: 2
#     Edge 24, Type (0, 0), BuildingBlock: EZIPEK_clean_linker_0, # of connection points: 2
#     Edge 25, Type (0, 0), BuildingBlock: EZIPEK_clean_linker_0, # of connection points: 2
#     Edge 26, Type (0, 0), BuildingBlock: EZIPEK_clean_linker_0, # of connection points: 2
#     Edge 27, Type (0, 0), BuildingBlock: EZIPEK_clean_linker_0, # of connection points: 2
#     Edge 28, Type (0, 0), BuildingBlock: EZIPEK_clean_linker_0, # of connection points: 2
#     Edge 29, Type (0, 0), BuildingBlock: EZIPEK_clean_linker_0, # of connection points: 2
#     Edge 30, Type (0, 0), BuildingBlock: EZIPEK_clean_linker_0, # of connection points: 2
#     Edge 31, Type (0, 0), BuildingBlock: EZIPEK_clean_linker_0, # of connection points: 2
#     Edge 32, Type (0, 0), BuildingBlock: EZIPEK_clean_linker_0, # of connection points: 2
#     Edge 33, Type (0, 0), BuildingBlock: EZIPEK_clean_linker_0, # of connection points: 2
#     Edge 34, Type (0, 0), BuildingBlock: EZIPEK_clean_linker_0, # of connection points: 2
#     Edge 35, Type (0, 0), BuildingBlock: EZIPEK_clean_linker_0, # of connection points: 2
# Relax obj value: 0.144
# Max RMSD: 0.135
# Mean RMSD: 0.135
data_MOF--net-wjh--node1-NAHDIM_clean_sbu_0--edge1-EZIPEK_clean_linker_0
_symmetry_space_group_name_H-M    P1
_symmetry_Int_Tables_number       1
_symmetry_cell_setting            triclinic
loop_
_symmetry_equiv_pos_as_xyz
'x, y, z'
_cell_length_a     47.05027
_cell_length_b     47.027341
_cell_length_c     17.520891
_cell_angle_alpha  89.973176
_cell_angle_beta   89.971756
_cell_angle_gamma 119.94992
loop_
_atom_site_label
_atom_site_type_symbol
_atom_site_fract_x
_atom_site_fract_y
_atom_site_fract_z
_atom_type_partial_charge
C0 C 0.50422 0.19112 0.15576 0.0
O1 O 0.53455 0.19809 0.14325 0.0
O2 O 0.51395 0.13824 0.01123 0.0
Zn3 Zn 0.49265 0.12822 0.11621 0.0
O4 O 0.52495 0.13118 0.19634 0.0
C5 C 0.45079 0.05931 0.08638 0.0
O6 O 0.47495 0.06434 0.04063 0.0
O7 O 0.48077 0.16211 0.14515 0.0
C8 C 0.52821 0.10713 0.21764 0.0
O9 O 0.51023 0.07817 0.18637 0.0
C10 C 0.53528 0.13012 0.99474 0.0
O11 O 0.54349 0.11509 0.04573 0.0
O12 O 0.45186 0.08345 0.12132 0.0
C13 C 0.30789 0.50361 0.25879 0.0
O14 O 0.33534 0.53139 0.24791 0.0
O15 O 0.36856 0.50122 0.12757 0.0
Zn16 Zn 0.35071 0.47942 0.22987 0.0
O17 O 0.38036 0.50798 0.31455 0.0
C18 C 0.36899 0.43071 0.26001 0.0
O19 O 0.39753 0.45681 0.27311 0.0
O20 O 0.30757 0.47662 0.25084 0.0
C21 C 0.41134 0.52587 0.31042 0.0
O22 O 0.42682 0.52671 0.24742 0.0
C23 C 0.39085 0.49865 0.09262 0.0
O24 O 0.40111 0.47936 0.11988 0.0
O25 O 0.34499 0.4339 0.2382 0.0
C26 C 0.79725 0.31272 0.44154 0.0
O27 O 0.79409 0.33892 0.44228 0.0
O28 O 0.85473 0.37916 0.30112 0.0
Zn29 Zn 0.86082 0.36099 0.40122 0.0
O30 O 0.86041 0.38678 0.49181 0.0
C31 C 0.92886 0.38922 0.38104 0.0
O32 O 0.92388 0.41126 0.34742 0.0
O33 O 0.82429 0.31524 0.42082 0.0
C34 C 0.87496 0.41774 0.4985 0.0
O35 O 0.89128 0.43666 0.44067 0.0
C36 C 0.83816 0.39368 0.29412 0.0
O37 O 0.82369 0.39761 0.35395 0.0
O38 O 0.90449 0.36285 0.40511 0.0
C39 C 0.48951 0.79752 0.66706 0.0
O40 O 0.46161 0.79633 0.68218 0.0
O41 O 0.48599 0.85768 0.51084 0.0
Zn42 Zn 0.50567 0.86098 0.61491 0.0
O43 O 0.47423 0.86019 0.69413 0.0
C44 C 0.55057 0.92838 0.58959 0.0
O45 O 0.52742 0.92403 0.54123 0.0
O46 O 0.51268 0.82288 0.6356 0.0
C47 C 0.46845 0.88345 0.70622 0.0
O48 O 0.48322 0.91042 0.66538 0.0
C49 C 0.45622 0.83695 0.49641 0.0
O50 O 0.43789 0.81566 0.5487 0.0
O51 O 0.54817 0.9038 0.62534 0.0
C52 C 0.6734 0.49485 0.77592 0.0
O53 O 0.66401 0.49053 0.70425 0.0
O54 O 0.59055 0.45853 0.71325 0.0
Zn55 Zn 0.60977 0.48769 0.80572 0.0
O56 O 0.58318 0.46583 0.8987 0.0
C57 C 0.63192 0.55722 0.76928 0.0
O58 O 0.66154 0.5621 0.7566 0.0
O59 O 0.6549 0.49583 0.82725 0.0
C60 C 0.55208 0.44938 0.90082 0.0
O61 O 0.53501 0.44549 0.83855 0.0
C62 C 0.56945 0.46082 0.67239 0.0
O63 O 0.56019 0.48204 0.69088 0.0
O64 O 0.60898 0.5293 0.79035 0.0
C65 C 0.18624 0.69748 0.95116 0.0
O66 O 0.19115 0.67312 0.96864 0.0
O67 O 0.13228 0.62505 0.81158 0.0
Zn68 Zn 0.12563 0.64423 0.90847 0.0
O69 O 0.12914 0.62088 0.0013 0.0
C70 C 0.05736 0.61477 0.87703 0.0
O71 O 0.06376 0.59558 0.83483 0.0
O72 O 0.15943 0.69156 0.92038 0.0
C73 C 0.10882 0.59114 0.01689 0.0
O74 O 0.08477 0.57344 0.96955 0.0
C75 C 0.14752 0.6091 0.81017 0.0
O76 O 0.16067 0.60553 0.87288 0.0
O77 O 0.08063 0.63916 0.91074 0.0
C78 C 0.78925 0.48954 0.85867 0.0
O79 O 0.78841 0.46186 0.84265 0.0
O80 O 0.84919 0.48016 0.9961 0.0
Zn81 Zn 0.85319 0.50562 0.89923 0.0
O82 O 0.85436 0.48189 0.80493 0.0
C83 C 0.92024 0.54666 0.9238 0.0
O84 O 0.91523 0.5196 0.95722 0.0
O85 O 0.81501 0.51311 0.88758 0.0
C86 C 0.87106 0.46765 0.79693 0.0
O87 O 0.88789 0.46584 0.85453 0.0
C88 C 0.83279 0.44908 0.00274 0.0
O89 O 0.81643 0.43092 0.94407 0.0
O90 O 0.89593 0.54842 0.89831 0.0
C91 C 0.28978 0.8213 0.05688 0.0
O92 O 0.29249 0.85046 0.05509 0.0
O93 O 0.37399 0.84691 0.20557 0.0
Zn94 Zn 0.35773 0.85553 0.10627 0.0
O95 O 0.38786 0.86032 0.02034 0.0
C96 C 0.38573 0.92285 0.12241 0.0
O97 O 0.41074 0.91848 0.13562 0.0
O98 O 0.31355 0.81797 0.07973 0.0
C99 C 0.37957 0.86363 0.95344 0.0
O100 O 0.3517 0.86308 0.94262 0.0
C101 C 0.40286 0.8513 0.21156 0.0
O102 O 0.42251 0.86111 0.15216 0.0
O103 O 0.35758 0.89813 0.11104 0.0
C104 C 0.48798 0.29587 0.27761 0.0
O105 O 0.51498 0.32446 0.28246 0.0
O106 O 0.48442 0.36192 0.39569 0.0
Zn107 Zn 0.46232 0.33746 0.29817 0.0
O108 O 0.48683 0.36259 0.20567 0.0
C109 C 0.40308 0.33881 0.33907 0.0
O110 O 0.41598 0.34465 0.40775 0.0
O111 O 0.46043 0.29411 0.28812 0.0
C112 C 0.4926 0.39139 0.19088 0.0
O113 O 0.48399 0.40678 0.24016 0.0
C114 C 0.51469 0.38348 0.39876 0.0
O115 O 0.53317 0.38972 0.33796 0.0
O116 O 0.41815 0.33346 0.28598 0.0
C117 C 0.19777 0.51193 0.37611 0.0
O118 O 0.20274 0.54163 0.38813 0.0
O119 O 0.14302 0.52061 0.51189 0.0
Zn120 Zn 0.13394 0.49789 0.40883 0.0
O121 O 0.13546 0.52694 0.3217 0.0
C122 C 0.06538 0.45677 0.4374 0.0
O123 O 0.07047 0.48215 0.47875 0.0
O124 O 0.16922 0.48736 0.38469 0.0
C125 C 0.11153 0.53045 0.3008 0.0
O126 O 0.08415 0.51688 0.34014 0.0
C127 C 0.13685 0.54359 0.52474 0.0
O128 O 0.1255 0.55397 0.46955 0.0
O129 O 0.0896 0.45653 0.40612 0.0
C130 C 0.68659 0.19473 0.55628 0.0
O131 O 0.65871 0.19424 0.54611 0.0
O132 O 0.62366 0.13667 0.70916 0.0
Zn133 Zn 0.6426 0.13135 0.61025 0.0
O134 O 0.61205 0.12623 0.52514 0.0
C135 C 0.61625 0.06463 0.62724 0.0
O136 O 0.59161 0.069 0.64529 0.0
O137 O 0.68669 0.17029 0.58684 0.0
C138 C 0.61888 0.12241 0.45722 0.0
O139 O 0.64594 0.12179 0.44291 0.0
C140 C 0.60198 0.14529 0.70886 0.0
O141 O 0.59325 0.15283 0.64419 0.0
O142 O 0.64399 0.08938 0.61213 0.0
C143 C 0.5 0.68495 0.75542 0.0
O144 O 0.49639 0.67552 0.82705 0.0
O145 O 0.47191 0.60225 0.81581 0.0
Zn146 Zn 0.50003 0.62448 0.72405 0.0
O147 O 0.47637 0.59589 0.63446 0.0
C148 C 0.55152 0.60912 0.71235 0.0
O149 O 0.52952 0.58535 0.67013 0.0
O150 O 0.50286 0.66761 0.7039 0.0
C151 C 0.48818 0.60261 0.5675 0.0
O152 O 0.51739 0.62824 0.55619 0.0
C153 C 0.46784 0.57437 0.8349 0.0
O154 O 0.48262 0.56165 0.79587 0.0
O155 O 0.5453 0.63039 0.73978 0.0
C156 C 0.54035 0.09091 0.34428 0.0
C157 C 0.55166 0.11151 0.27898 0.0
C158 C 0.60683 0.14128 0.33408 0.0
C159 C 0.59615 0.11831 0.39487 0.0
N160 N 0.55456 0.06725 0.44981 0.0
N161 N 0.59701 0.15277 0.20526 0.0
C162 C 0.56342 0.09192 0.39768 0.0
C163 C 0.5853 0.13579 0.27201 0.0
N164 N 0.50748 0.0716 0.3575 0.0
N165 N 0.637 0.16901 0.33697 0.0
H166 H 0.5822 0.1494 0.15812 0.0
H167 H 0.6219 0.16805 0.1942 0.0
H168 H 0.65338 0.17417 0.38192 0.0
H169 H 0.6446 0.18833 0.29838 0.0
H170 H 0.4979 0.05852 0.40795 0.0
H171 H 0.48976 0.07155 0.3219 0.0
H172 H 0.53188 0.04571 0.44902 0.0
H173 H 0.57095 0.06675 0.48909 0.0
C174 C 0.4454 0.5801 0.37477 0.0
C175 C 0.43006 0.54538 0.37718 0.0
C176 C 0.45435 0.54818 0.50245 0.0
C177 C 0.46809 0.58282 0.50222 0.0
N178 N 0.46989 0.63074 0.44683 0.0
N179 N 0.41462 0.49583 0.44881 0.0
C180 C 0.46191 0.59859 0.44057 0.0
C181 C 0.43279 0.52925 0.44285 0.0
N182 N 0.44392 0.59546 0.30991 0.0
N183 N 0.46304 0.53339 0.55762 0.0
H184 H 0.3994 0.48083 0.40555 0.0
H185 H 0.4125 0.48309 0.49907 0.0
H186 H 0.47858 0.54608 0.60267 0.0
H187 H 0.45713 0.50892 0.55532 0.0
H188 H 0.45815 0.62068 0.30125 0.0
H189 H 0.42981 0.58282 0.26273 0.0
H190 H 0.46287 0.64258 0.40721 0.0
H191 H 0.48059 0.64484 0.49548 0.0
C192 C 0.84288 0.43133 0.6852 0.0
C193 C 0.87245 0.45449 0.72133 0.0
C194 C 0.90409 0.45237 0.61255 0.0
C195 C 0.87434 0.43198 0.57322 0.0
N196 N 0.81545 0.40712 0.56616 0.0
N197 N 0.93091 0.49186 0.71376 0.0
C198 C 0.84371 0.42288 0.60788 0.0
C199 C 0.90303 0.46636 0.68354 0.0
N200 N 0.81419 0.41642 0.72564 0.0
N201 N 0.93325 0.45721 0.58411 0.0
H202 H 0.93134 0.503 0.76547 0.0
H203 H 0.95308 0.50391 0.68424 0.0
H204 H 0.93523 0.44716 0.53275 0.0
H205 H 0.95511 0.4687 0.61485 0.0
H206 H 0.79255 0.39687 0.70451 0.0
H207 H 0.81276 0.42128 0.78314 0.0
H208 H 0.79279 0.40279 0.58626 0.0
H209 H 0.81514 0.40131 0.50864 0.0
C210 C 0.45626 0.90126 0.83095 0.0
C211 C 0.44515 0.87996 0.76696 0.0
C212 C 0.39128 0.84709 0.82675 0.0
C213 C 0.4018 0.86955 0.88851 0.0
N214 N 0.44149 0.92194 0.94146 0.0
N215 N 0.4003 0.8374 0.69554 0.0
C216 C 0.4335 0.89781 0.88836 0.0
C217 C 0.41209 0.85423 0.76237 0.0
N218 N 0.4888 0.92385 0.83868 0.0
N219 N 0.36201 0.81834 0.83084 0.0
H220 H 0.41466 0.84274 0.64652 0.0
H221 H 0.37561 0.82056 0.68631 0.0
H222 H 0.34613 0.81205 0.87734 0.0
H223 H 0.35475 0.79945 0.79124 0.0
H224 H 0.49888 0.93737 0.88829 0.0
H225 H 0.50627 0.92716 0.79789 0.0
H226 H 0.46289 0.9447 0.939 0.0
H227 H 0.42535 0.92052 0.98399 0.0
C228 C 0.53535 0.40493 0.08984 0.0
C229 C 0.50776 0.40666 0.11677 0.0
C230 C 0.51046 0.43856 0.00362 0.0
C231 C 0.53557 0.43354 0.9732 0.0
N232 N 0.56557 0.40427 0.9791 0.0
N233 N 0.46381 0.41772 0.08851 0.0
C234 C 0.54616 0.41444 0.01385 0.0
C235 C 0.49377 0.42142 0.07074 0.0
N236 N 0.55218 0.39553 0.13742 0.0
N237 N 0.50331 0.46056 0.97051 0.0
H238 H 0.44969 0.40376 0.13453 0.0
H239 H 0.45132 0.42543 0.05254 0.0
H240 H 0.51554 0.47437 0.92248 0.0
H241 H 0.48751 0.46746 0.99528 0.0
H242 H 0.57429 0.39699 0.12223 0.0
H243 H 0.54617 0.38975 0.19467 0.0
H244 H 0.57125 0.3876 0.00409 0.0
H245 H 0.57289 0.40943 0.92218 0.0
C246 C 0.11183 0.5767 0.22969 0.0
C247 C 0.11332 0.54734 0.22841 0.0
C248 C 0.11679 0.54966 0.08879 0.0
C249 C 0.11155 0.57685 0.08976 0.0
N250 N 0.10028 0.61429 0.16027 0.0
N251 N 0.11305 0.5032 0.15734 0.0
C252 C 0.10824 0.59001 0.16 0.0
C253 C 0.11484 0.53314 0.15814 0.0
N254 N 0.11482 0.59237 0.29744 0.0
N255 N 0.12478 0.54035 0.02194 0.0
H256 H 0.112 0.49036 0.20675 0.0
H257 H 0.11001 0.48982 0.10767 0.0
H258 H 0.1268 0.55212 0.97014 0.0
H259 H 0.1324 0.52305 0.01888 0.0
H260 H 0.11763 0.61572 0.30144 0.0
H261 H 0.11745 0.58328 0.34961 0.0
H262 H 0.09357 0.622 0.2093 0.0
H263 H 0.09788 0.62517 0.11075 0.0
C264 C 0.49898 0.26887 0.16772 0.0
C265 C 0.4895 0.26767 0.24526 0.0
C266 C 0.48896 0.21577 0.26364 0.0
C267 C 0.49769 0.21661 0.18573 0.0
N268 N 0.50569 0.24019 0.06013 0.0
N269 N 0.47041 0.23828 0.36404 0.0
C270 C 0.50126 0.24216 0.13675 0.0
C271 C 0.48275 0.24046 0.29222 0.0
N272 N 0.506 0.29569 0.12385 0.0
N273 N 0.48817 0.19224 0.31102 0.0
H274 H 0.46686 0.25659 0.3879 0.0
H275 H 0.46157 0.21745 0.39823 0.0
H276 H 0.49232 0.1736 0.29207 0.0
H277 H 0.48568 0.19235 0.37002 0.0
H278 H 0.51719 0.3002 0.07052 0.0
H279 H 0.50197 0.3145 0.14199 0.0
H280 H 0.50502 0.25607 0.01974 0.0
H281 H 0.50757 0.22097 0.03567 0.0
C282 C 0.25066 0.49356 0.24368 0.0
C283 C 0.27887 0.50392 0.28992 0.0
C284 C 0.25173 0.51493 0.39618 0.0
C285 C 0.22486 0.50756 0.34758 0.0
N286 N 0.19976 0.49371 0.22295 0.0
N287 N 0.30763 0.52585 0.40864 0.0
C288 C 0.22441 0.4976 0.27088 0.0
C289 C 0.27981 0.51505 0.36578 0.0
N290 N 0.249 0.4799 0.17374 0.0
N291 N 0.24978 0.52058 0.47209 0.0
H292 H 0.3278 0.52396 0.39098 0.0
H293 H 0.31154 0.53817 0.4603 0.0
H294 H 0.2295 0.52058 0.4962 0.0
H295 H 0.26691 0.52271 0.51257 0.0
H296 H 0.22771 0.46835 0.14107 0.0
H297 H 0.26839 0.47808 0.1502 0.0
H298 H 0.19991 0.49022 0.16434 0.0
H299 H 0.18008 0.49644 0.24059 0.0
C300 C 0.73043 0.25306 0.57457 0.0
C301 C 0.71743 0.2237 0.53158 0.0
C302 C 0.75686 0.25254 0.42896 0.0
C303 C 0.77085 0.28159 0.47343 0.0
N304 N 0.77658 0.3075 0.59592 0.0
N305 N 0.72248 0.19339 0.42649 0.0
C306 C 0.75924 0.28132 0.54845 0.0
C307 C 0.73211 0.22274 0.46161 0.0
N308 N 0.71505 0.25402 0.63997 0.0
N309 N 0.76585 0.25373 0.35427 0.0
H310 H 0.70437 0.17111 0.44873 0.0
H311 H 0.73449 0.19079 0.37937 0.0
H312 H 0.7835 0.2752 0.32773 0.0
H313 H 0.75383 0.23414 0.31663 0.0
H314 H 0.72096 0.27569 0.66856 0.0
H315 H 0.69498 0.23331 0.66334 0.0
H316 H 0.77106 0.30742 0.65351 0.0
H317 H 0.79856 0.32818 0.58004 0.0
C318 C 0.47261 0.73838 0.65357 0.0
C319 C 0.49362 0.76932 0.68721 0.0
C320 C 0.52094 0.74553 0.76088 0.0
C321 C 0.49767 0.71402 0.73318 0.0
N322 N 0.44749 0.67942 0.66448 0.0
N323 N 0.53437 0.80181 0.78167 0.0
C324 C 0.47245 0.71013 0.68243 0.0
C325 C 0.51697 0.77284 0.74316 0.0
N326 N 0.45352 0.73614 0.59246 0.0
N327 N 0.54743 0.74957 0.80184 0.0
H328 H 0.53213 0.8224 0.77061 0.0
H329 H 0.54898 0.80464 0.82892 0.0
H330 H 0.55123 0.73015 0.81574 0.0
H331 H 0.56706 0.77246 0.81637 0.0
H332 H 0.44036 0.71481 0.56045 0.0
H333 H 0.45329 0.75643 0.56904 0.0
H334 H 0.42668 0.67521 0.63426 0.0
H335 H 0.44587 0.65798 0.68605 0.0
C336 C 0.70087 0.46929 0.84781 0.0
C337 C 0.70343 0.49443 0.79846 0.0
C338 C 0.76267 0.51643 0.78727 0.0
C339 C 0.76038 0.49295 0.84162 0.0
N340 N 0.72871 0.45166 0.93571 0.0
N341 N 0.73709 0.54538 0.73193 0.0
C342 C 0.72986 0.47075 0.87554 0.0
C343 C 0.73445 0.51904 0.77122 0.0
N344 N 0.67078 0.44312 0.86526 0.0
N345 N 0.79129 0.53511 0.74825 0.0
H346 H 0.71693 0.54811 0.71916 0.0
H347 H 0.75948 0.56585 0.71784 0.0
H348 H 0.81248 0.5338 0.75768 0.0
H349 H 0.79327 0.54992 0.70201 0.0
H350 H 0.66769 0.42243 0.89425 0.0
H351 H 0.64883 0.44047 0.8444 0.0
H352 H 0.7076 0.4375 0.96783 0.0
H353 H 0.74959 0.45247 0.95845 0.0
C354 C 0.21371 0.73701 0.05733 0.0
C355 C 0.20969 0.73085 0.97773 0.0
C356 C 0.25245 0.7874 0.95126 0.0
C357 C 0.25959 0.792 0.03055 0.0
N358 N 0.24796 0.77181 0.15988 0.0
N359 N 0.22561 0.74867 0.84797 0.0
C360 C 0.24034 0.76701 0.08391 0.0
C361 C 0.22882 0.75578 0.92427 0.0
N362 N 0.19142 0.71453 0.10722 0.0
N363 N 0.26844 0.81312 0.9018 0.0
H364 H 0.20826 0.72588 0.82617 0.0
H365 H 0.24146 0.76447 0.80644 0.0
H366 H 0.28657 0.83638 0.91897 0.0
H367 H 0.26203 0.81226 0.84466 0.0
H368 H 0.19103 0.71884 0.16536 0.0
H369 H 0.17133 0.69242 0.08957 0.0
H370 H 0.23777 0.75319 0.20053 0.0
H371 H 0.26575 0.79431 0.18211 0.0
C372 C 0.5504 0.11999 0.78673 0.0
C373 C 0.58426 0.14358 0.78004 0.0
C374 C 0.58531 0.16036 0.91294 0.0
C375 C 0.55123 0.13743 0.91886 0.0
N376 N 0.49984 0.10013 0.85821 0.0
N377 N 0.63266 0.19032 0.83038 0.0
C378 C 0.53326 0.11891 0.85451 0.0
C379 C 0.60139 0.16496 0.84142 0.0
N380 N 0.53508 0.09729 0.73023 0.0
N381 N 0.60233 0.17748 0.97605 0.0
H382 H 0.64506 0.19443 0.77857 0.0
H383 H 0.64542 0.20883 0.87014 0.0
H384 H 0.59095 0.17673 0.02773 0.0
H385 H 0.62781 0.19133 0.97842 0.0
H386 H 0.51158 0.07711 0.73556 0.0
H387 H 0.54677 0.09684 0.68006 0.0
H388 H 0.48508 0.08895 0.81083 0.0
H389 H 0.48643 0.09788 0.90741 0.0
C390 C 0.45066 0.57075 0.97209 0.0
C391 C 0.44601 0.5558 0.89938 0.0
C392 C 0.40364 0.50334 0.95273 0.0
C393 C 0.407 0.51883 0.0242 0.0
N394 N 0.42777 0.56904 0.09667 0.0
N395 N 0.41245 0.51027 0.81616 0.0
C396 C 0.42845 0.55315 0.03206 0.0
C397 C 0.42088 0.52272 0.88838 0.0
N398 N 0.47746 0.6009 0.98556 0.0
N399 N 0.38404 0.47008 0.94631 0.0
H400 H 0.42352 0.52411 0.76732 0.0
H401 H 0.39226 0.48738 0.80419 0.0
H402 H 0.36927 0.45533 0.99076 0.0
H403 H 0.38384 0.45693 0.8983 0.0
H404 H 0.48396 0.61128 0.03975 0.0
H405 H 0.49517 0.6142 0.94431 0.0
H406 H 0.44057 0.5945 0.10207 0.0
H407 H 0.41189 0.55717 0.14193 0.0
C408 C 0.86421 0.44008 0.1062 0.0
C409 C 0.8336 0.43349 0.07574 0.0
C410 C 0.80551 0.39739 0.18462 0.0
C411 C 0.83638 0.40742 0.21922 0.0
N412 N 0.89489 0.44451 0.22028 0.0
N413 N 0.77512 0.40984 0.09166 0.0
C414 C 0.86571 0.43048 0.18205 0.0
C415 C 0.80416 0.41314 0.11639 0.0
N416 N 0.89171 0.45428 0.06168 0.0
N417 N 0.7776 0.3721 0.21533 0.0
H418 H 0.77314 0.42121 0.04245 0.0
H419 H 0.75354 0.39821 0.12345 0.0
H420 H 0.77763 0.35964 0.26457 0.0
H421 H 0.75489 0.3615 0.1882 0.0
H422 H 0.91408 0.45688 0.07896 0.0
H423 H 0.89117 0.45986 0.00438 0.0
H424 H 0.91651 0.46376 0.19802 0.0
H425 H 0.89671 0.43955 0.27745 0.0
C426 C 0.43299 0.81587 0.36655 0.0
C427 C 0.4412 0.83968 0.4247 0.0
C428 C 0.42091 0.86908 0.34617 0.0
C429 C 0.41489 0.84659 0.28587 0.0
N430 N 0.41645 0.79974 0.23506 0.0
N431 N 0.44443 0.88945 0.47138 0.0
C432 C 0.42125 0.82026 0.29511 0.0
C433 C 0.43548 0.8664 0.41497 0.0
N434 N 0.43607 0.78888 0.38021 0.0
N435 N 0.41249 0.89288 0.33768 0.0
H436 H 0.45287 0.8871 0.52468 0.0
H437 H 0.44492 0.91167 0.46497 0.0
H438 H 0.40361 0.89694 0.2868 0.0
H439 H 0.4126 0.90772 0.38179 0.0
H440 H 0.42729 0.76875 0.3439 0.0
H441 H 0.44582 0.78556 0.43067 0.0
H442 H 0.42416 0.78251 0.23438 0.0
H443 H 0.40594 0.80087 0.18357 0.0
C444 C 0.56027 0.45665 0.5312 0.0
C445 C 0.55626 0.44075 0.60245 0.0
C446 C 0.52789 0.38716 0.53876 0.0
C447 C 0.52877 0.40303 0.46914 0.0
N448 N 0.54022 0.4526 0.40234 0.0
N449 N 0.53173 0.3908 0.67669 0.0
C450 C 0.54347 0.43773 0.46616 0.0
C451 C 0.5389 0.40595 0.60704 0.0
N452 N 0.58112 0.48974 0.5249 0.0
N453 N 0.51772 0.35438 0.53923 0.0
H454 H 0.53914 0.40361 0.72809 0.0
H455 H 0.51603 0.36569 0.68385 0.0
H456 H 0.50984 0.33984 0.49029 0.0
H457 H 0.5199 0.34222 0.58661 0.0
H458 H 0.58764 0.50206 0.47279 0.0
H459 H 0.59454 0.50444 0.57079 0.0
H460 H 0.54732 0.47741 0.40015 0.0
H461 H 0.5275 0.43967 0.35391 0.0
C462 C 0.12392 0.54082 0.66482 0.0
C463 C 0.14269 0.55926 0.60091 0.0
C464 C 0.16746 0.60984 0.67725 0.0
C465 C 0.14733 0.59172 0.73969 0.0
N466 N 0.1041 0.54122 0.79256 0.0
N467 N 0.18696 0.60923 0.54899 0.0
C468 C 0.1253 0.55743 0.73382 0.0
C469 C 0.16573 0.59327 0.60786 0.0
N470 N 0.10489 0.50743 0.65971 0.0
N471 N 0.18753 0.64306 0.68404 0.0
H472 H 0.18694 0.59753 0.49839 0.0
H473 H 0.20626 0.63328 0.55158 0.0
H474 H 0.19054 0.65563 0.73515 0.0
H475 H 0.20023 0.65862 0.63888 0.0
H476 H 0.09368 0.49209 0.70622 0.0
H477 H 0.1019 0.49438 0.60959 0.0
H478 H 0.08468 0.51723 0.78926 0.0
H479 H 0.1043 0.55249 0.84389 0.0
C480 C 0.40867 0.00515 0.03582 0.0
C481 C 0.42418 0.02515 0.10019 0.0
C482 C 0.40046 0.97628 0.18193 0.0
C483 C 0.39157 0.9566 0.11567 0.0
N484 N 0.38463 0.95101 0.97922 0.0
N485 N 0.43295 0.0303 0.23689 0.0
C486 C 0.39419 0.97057 0.0425 0.0
C487 C 0.41881 0.01099 0.17438 0.0
N488 N 0.40788 0.01947 0.96856 0.0
N489 N 0.39131 0.96152 0.25187 0.0
H490 H 0.44499 0.05578 0.23542 0.0
H491 H 0.43381 0.02112 0.29037 0.0
H492 H 0.37773 0.93605 0.25811 0.0
H493 H 0.39431 0.9742 0.30264 0.0
H494 H 0.39473 0.00633 0.92083 0.0
H495 H 0.41793 0.04482 0.96313 0.0
H496 H 0.38984 0.95998 0.92361 0.0
H497 H 0.37257 0.92549 0.98244 0.0
C498 C 0.37275 0.35273 0.24103 0.0
C499 C 0.37847 0.34889 0.31875 0.0
C500 C 0.36168 0.38838 0.35578 0.0
C501 C 0.36459 0.39817 0.27821 0.0
N502 N 0.36933 0.38816 0.14525 0.0
N503 N 0.36055 0.34877 0.44697 0.0
C504 C 0.36821 0.37935 0.21997 0.0
C505 C 0.36713 0.36217 0.37556 0.0
N506 N 0.37051 0.33024 0.18863 0.0
N507 N 0.35537 0.40524 0.41037 0.0
H508 H 0.36186 0.32773 0.45941 0.0
H509 H 0.35043 0.3559 0.49058 0.0
H510 H 0.34952 0.42332 0.39674 0.0
H511 H 0.35682 0.40207 0.46874 0.0
H512 H 0.36437 0.33045 0.13162 0.0
H513 H 0.37072 0.309 0.20498 0.0
H514 H 0.37606 0.37799 0.10088 0.0
H515 H 0.36487 0.40684 0.12815 0.0
C516 C 0.00943 0.41688 0.48402 0.0
C517 C 0.03114 0.43093 0.42142 0.0
C518 C 0.98449 0.40482 0.3336 0.0
C519 C 0.96292 0.39715 0.39628 0.0
N520 N 0.95451 0.39676 0.53253 0.0
N521 N 0.03923 0.43936 0.28471 0.0
C522 C 0.97515 0.40272 0.47211 0.0
C523 C 0.0188 0.4246 0.34542 0.0
N524 N 0.02176 0.41724 0.55485 0.0
N525 N 0.97199 0.39325 0.26269 0.0
H526 H 0.06455 0.45382 0.28939 0.0
H527 H 0.03081 0.43908 0.2296 0.0
H528 H 0.94685 0.37855 0.25289 0.0
H529 H 0.98649 0.39532 0.21572 0.0
H530 H 0.0071 0.40485 0.60164 0.0
H531 H 0.04683 0.42715 0.56471 0.0
H532 H 0.96273 0.40433 0.58802 0.0
H533 H 0.92921 0.3863 0.52685 0.0
C534 C 0.59339 0.98239 0.54014 0.0
C535 C 0.57763 0.96226 0.60422 0.0
C536 C 0.6016 0.01101 0.68613 0.0
C537 C 0.61032 0.03083 0.61998 0.0
N538 N 0.6162 0.03629 0.48315 0.0
N539 N 0.5686 0.95697 0.74093 0.0
C540 C 0.60748 0.01689 0.54671 0.0
C541 C 0.58298 0.97631 0.67847 0.0
N542 N 0.59471 0.96825 0.47311 0.0
N543 N 0.61106 0.02562 0.75608 0.0
H544 H 0.55587 0.93148 0.73934 0.0
H545 H 0.56804 0.96621 0.79454 0.0
H546 H 0.62478 0.05107 0.76241 0.0
H547 H 0.60822 0.01279 0.80658 0.0
H548 H 0.60816 0.98159 0.42579 0.0
H549 H 0.58498 0.94294 0.46783 0.0
H550 H 0.61066 0.02709 0.42779 0.0
H551 H 0.62761 0.06176 0.48591 0.0
C552 C 0.61954 0.59148 0.6813 0.0
C553 C 0.62366 0.58323 0.75664 0.0
C554 C 0.58831 0.6031 0.807 0.0
C555 C 0.582 0.60885 0.73093 0.0
N556 N 0.59945 0.61947 0.59998 0.0
N557 N 0.62211 0.59132 0.89139 0.0
C558 C 0.60057 0.60694 0.66954 0.0
C559 C 0.61165 0.59287 0.81961 0.0
N560 N 0.63156 0.58233 0.62093 0.0
N561 N 0.57021 0.60462 0.86626 0.0
H562 H 0.63925 0.58377 0.90108 0.0
H563 H 0.61646 0.60048 0.93961 0.0
H564 H 0.55311 0.61235 0.86018 0.0
H565 H 0.57085 0.5965 0.9212 0.0
H566 H 0.62572 0.58382 0.5643 0.0
H567 H 0.6463 0.57177 0.62771 0.0
H568 H 0.61433 0.62119 0.55414 0.0
H569 H 0.58577 0.6311 0.5908 0.0
C570 C 0.00218 0.60049 0.82734 0.0
C571 C 0.0228 0.60561 0.89087 0.0
C572 C 0.97525 0.58475 0.97583 0.0
C573 C 0.95439 0.57315 0.91154 0.0
N574 N 0.94762 0.56921 0.77435 0.0
N575 N 0.02874 0.60054 0.02678 0.0
C576 C 0.96762 0.58141 0.83663 0.0
C577 C 0.00946 0.5979 0.96582 0.0
N578 N 0.01573 0.61396 0.75827 0.0
N579 N 0.96213 0.58276 0.04656 0.0
H580 H 0.05381 0.60934 0.02255 0.0
H581 H 0.01941 0.59146 0.08085 0.0
H582 H 0.93702 0.57335 0.05491 0.0
H583 H 0.9763 0.59347 0.09505 0.0
H584 H 0.002 0.61367 0.71138 0.0
H585 H 0.04103 0.62833 0.75026 0.0
H586 H 0.95639 0.5709 0.71898 0.0
H587 H 0.92216 0.55541 0.77796 0.0
loop_
_geom_bond_atom_site_label_1
_geom_bond_atom_site_label_2
_geom_bond_distance
_geom_bond_site_symmetry_2
_ccdc_geom_bond_type
C0 O1 1.160 . S
C0 O7 1.185 . S
O1 C0 1.160 . S
O2 Zn3 1.899 1_556 S
O2 C10 1.284 . S
Zn3 O2 1.899 1_554 S
Zn3 O4 2.032 . S
Zn3 O7 2.086 . S
Zn3 O12 1.977 . S
O4 Zn3 2.032 . S
O4 C8 1.278 . S
C5 O6 1.203 . S
C5 O12 1.267 . S
O6 C5 1.203 . S
O7 C0 1.185 . S
O7 Zn3 2.086 . S
C8 O4 1.278 . S
C8 O9 1.211 . S
O9 C8 1.211 . S
C10 O2 1.284 . S
C10 O11 1.273 1_556 S
O11 C10 1.273 1_554 S
O12 Zn3 1.977 . S
O12 C5 1.267 . S
C13 O14 1.160 . S
C13 O20 1.185 . S
O14 C13 1.160 . S
O15 Zn16 1.899 . S
O15 C23 1.284 . S
Zn16 O15 1.899 . S
Zn16 O17 2.032 . S
Zn16 O20 2.086 . S
Zn16 O25 1.977 . S
O17 Zn16 2.032 . S
O17 C21 1.278 . S
C18 O19 1.203 . S
C18 O25 1.267 . S
O19 C18 1.203 . S
O20 C13 1.185 . S
O20 Zn16 2.086 . S
C21 O17 1.278 . S
C21 O22 1.211 . S
O22 C21 1.211 . S
C23 O15 1.284 . S
C23 O24 1.273 . S
O24 C23 1.273 . S
O25 Zn16 1.977 . S
O25 C18 1.267 . S
C26 O27 1.160 . S
C26 O33 1.185 . S
O27 C26 1.160 . S
O28 Zn29 1.899 . S
O28 C36 1.284 . S
Zn29 O28 1.899 . S
Zn29 O30 2.032 . S
Zn29 O33 2.086 . S
Zn29 O38 1.977 . S
O30 Zn29 2.032 . S
O30 C34 1.278 . S
C31 O32 1.203 . S
C31 O38 1.267 . S
O32 C31 1.203 . S
O33 C26 1.185 . S
O33 Zn29 2.086 . S
C34 O30 1.278 . S
C34 O35 1.211 . S
O35 C34 1.211 . S
C36 O28 1.284 . S
C36 O37 1.273 . S
O37 C36 1.273 . S
O38 Zn29 1.977 . S
O38 C31 1.267 . S
C39 O40 1.160 . S
C39 O46 1.185 . S
O40 C39 1.160 . S
O41 Zn42 1.899 . S
O41 C49 1.284 . S
Zn42 O41 1.899 . S
Zn42 O43 2.032 . S
Zn42 O46 2.086 . S
Zn42 O51 1.977 . S
O43 Zn42 2.032 . S
O43 C47 1.278 . S
C44 O45 1.203 . S
C44 O51 1.267 . S
O45 C44 1.203 . S
O46 C39 1.185 . S
O46 Zn42 2.086 . S
C47 O43 1.278 . S
C47 O48 1.211 . S
O48 C47 1.211 . S
C49 O41 1.284 . S
C49 O50 1.273 . S
O50 C49 1.273 . S
O51 Zn42 1.977 . S
O51 C44 1.267 . S
C52 O53 1.160 . S
C52 O59 1.185 . S
O53 C52 1.160 . S
O54 Zn55 1.899 . S
O54 C62 1.284 . S
Zn55 O54 1.899 . S
Zn55 O56 2.032 . S
Zn55 O59 2.086 . S
Zn55 O64 1.977 . S
O56 Zn55 2.032 . S
O56 C60 1.278 . S
C57 O58 1.203 . S
C57 O64 1.267 . S
O58 C57 1.203 . S
O59 C52 1.185 . S
O59 Zn55 2.086 . S
C60 O56 1.278 . S
C60 O61 1.211 . S
O61 C60 1.211 . S
C62 O54 1.284 . S
C62 O63 1.273 . S
O63 C62 1.273 . S
O64 Zn55 1.977 . S
O64 C57 1.267 . S
C65 O66 1.160 . S
C65 O72 1.185 . S
O66 C65 1.160 . S
O67 Zn68 1.899 . S
O67 C75 1.284 . S
Zn68 O67 1.899 . S
Zn68 O69 2.032 1_556 S
Zn68 O72 2.086 . S
Zn68 O77 1.977 . S
O69 Zn68 2.032 1_554 S
O69 C73 1.278 . S
C70 O71 1.203 . S
C70 O77 1.267 . S
O71 C70 1.203 . S
O72 C65 1.185 . S
O72 Zn68 2.086 . S
C73 O69 1.278 . S
C73 O74 1.211 . S
O74 C73 1.211 . S
C75 O67 1.284 . S
C75 O76 1.273 . S
O76 C75 1.273 . S
O77 Zn68 1.977 . S
O77 C70 1.267 . S
C78 O79 1.160 . S
C78 O85 1.185 . S
O79 C78 1.160 . S
O80 Zn81 1.899 1_554 S
O80 C88 1.284 . S
Zn81 O80 1.899 1_556 S
Zn81 O82 2.032 . S
Zn81 O85 2.086 . S
Zn81 O90 1.977 . S
O82 Zn81 2.032 . S
O82 C86 1.278 . S
C83 O84 1.203 . S
C83 O90 1.267 . S
O84 C83 1.203 . S
O85 C78 1.185 . S
O85 Zn81 2.086 . S
C86 O82 1.278 . S
C86 O87 1.211 . S
O87 C86 1.211 . S
C88 O80 1.284 . S
C88 O89 1.273 1_554 S
O89 C88 1.273 1_556 S
O90 Zn81 1.977 . S
O90 C83 1.267 . S
C91 O92 1.160 . S
C91 O98 1.185 . S
O92 C91 1.160 . S
O93 Zn94 1.899 . S
O93 C101 1.284 . S
Zn94 O93 1.899 . S
Zn94 O95 2.032 1_554 S
Zn94 O98 2.086 . S
Zn94 O103 1.977 . S
O95 Zn94 2.032 1_556 S
O95 C99 1.278 . S
C96 O97 1.203 . S
C96 O103 1.267 . S
O97 C96 1.203 . S
O98 C91 1.185 . S
O98 Zn94 2.086 . S
C99 O95 1.278 . S
C99 O100 1.211 . S
O100 C99 1.211 . S
C101 O93 1.284 . S
C101 O102 1.273 . S
O102 C101 1.273 . S
O103 Zn94 1.977 . S
O103 C96 1.267 . S
C104 O105 1.160 . S
C104 O111 1.185 . S
O105 C104 1.160 . S
O106 Zn107 1.899 . S
O106 C114 1.284 . S
Zn107 O106 1.899 . S
Zn107 O108 2.032 . S
Zn107 O111 2.086 . S
Zn107 O116 1.977 . S
O108 Zn107 2.032 . S
O108 C112 1.278 . S
C109 O110 1.203 . S
C109 O116 1.267 . S
O110 C109 1.203 . S
O111 C104 1.185 . S
O111 Zn107 2.086 . S
C112 O108 1.278 . S
C112 O113 1.211 . S
O113 C112 1.211 . S
C114 O106 1.284 . S
C114 O115 1.273 . S
O115 C114 1.273 . S
O116 Zn107 1.977 . S
O116 C109 1.267 . S
C117 O118 1.160 . S
C117 O124 1.185 . S
O118 C117 1.160 . S
O119 Zn120 1.899 . S
O119 C127 1.284 . S
Zn120 O119 1.899 . S
Zn120 O121 2.032 . S
Zn120 O124 2.086 . S
Zn120 O129 1.977 . S
O121 Zn120 2.032 . S
O121 C125 1.278 . S
C122 O123 1.203 . S
C122 O129 1.267 . S
O123 C122 1.203 . S
O124 C117 1.185 . S
O124 Zn120 2.086 . S
C125 O121 1.278 . S
C125 O126 1.211 . S
O126 C125 1.211 . S
C127 O119 1.284 . S
C127 O128 1.273 . S
O128 C127 1.273 . S
O129 Zn120 1.977 . S
O129 C122 1.267 . S
C130 O131 1.160 . S
C130 O137 1.185 . S
O131 C130 1.160 . S
O132 Zn133 1.899 . S
O132 C140 1.284 . S
Zn133 O132 1.899 . S
Zn133 O134 2.032 . S
Zn133 O137 2.086 . S
Zn133 O142 1.977 . S
O134 Zn133 2.032 . S
O134 C138 1.278 . S
C135 O136 1.203 . S
C135 O142 1.267 . S
O136 C135 1.203 . S
O137 C130 1.185 . S
O137 Zn133 2.086 . S
C138 O134 1.278 . S
C138 O139 1.211 . S
O139 C138 1.211 . S
C140 O132 1.284 . S
C140 O141 1.273 . S
O141 C140 1.273 . S
O142 Zn133 1.977 . S
O142 C135 1.267 . S
C143 O144 1.160 . S
C143 O150 1.185 . S
O144 C143 1.160 . S
O145 Zn146 1.899 . S
O145 C153 1.284 . S
Zn146 O145 1.899 . S
Zn146 O147 2.032 . S
Zn146 O150 2.086 . S
Zn146 O155 1.977 . S
O147 Zn146 2.032 . S
O147 C151 1.278 . S
C148 O149 1.203 . S
C148 O155 1.267 . S
O149 C148 1.203 . S
O150 C143 1.185 . S
O150 Zn146 2.086 . S
C151 O147 1.278 . S
C151 O152 1.211 . S
O152 C151 1.211 . S
C153 O145 1.284 . S
C153 O154 1.273 . S
O154 C153 1.273 . S
O155 Zn146 1.977 . S
O155 C148 1.267 . S
C156 C157 1.363 . S
C156 C162 1.379 . S
C156 N164 1.356 . S
C157 C156 1.363 . S
C157 C163 1.363 . S
C158 C159 1.363 . S
C158 C163 1.379 . S
C158 N165 1.356 . S
C159 C158 1.363 . S
C159 C162 1.363 . S
N160 C162 1.356 . S
N160 H172 0.984 . S
N160 H173 0.985 . S
N161 C163 1.356 . S
N161 H166 0.984 . S
N161 H167 0.985 . S
C162 C156 1.379 . S
C162 C159 1.363 . S
C162 N160 1.356 . S
C163 C157 1.363 . S
C163 C158 1.379 . S
C163 N161 1.356 . S
N164 C156 1.356 . S
N164 H170 0.984 . S
N164 H171 0.984 . S
N165 C158 1.356 . S
N165 H168 0.984 . S
N165 H169 0.985 . S
H166 N161 0.984 . S
H167 N161 0.985 . S
H168 N165 0.984 . S
H169 N165 0.985 . S
H170 N164 0.984 . S
H171 N164 0.984 . S
H172 N160 0.984 . S
H173 N160 0.985 . S
C174 C175 1.363 . S
C174 C180 1.379 . S
C174 N182 1.356 . S
C175 C174 1.363 . S
C175 C181 1.363 . S
C176 C177 1.363 . S
C176 C181 1.379 . S
C176 N183 1.356 . S
C177 C176 1.363 . S
C177 C180 1.363 . S
N178 C180 1.356 . S
N178 H190 0.984 . S
N178 H191 0.985 . S
N179 C181 1.356 . S
N179 H184 0.984 . S
N179 H185 0.985 . S
C180 C174 1.379 . S
C180 C177 1.363 . S
C180 N178 1.356 . S
C181 C175 1.363 . S
C181 C176 1.379 . S
C181 N179 1.356 . S
N182 C174 1.356 . S
N182 H188 0.984 . S
N182 H189 0.984 . S
N183 C176 1.356 . S
N183 H186 0.984 . S
N183 H187 0.985 . S
H184 N179 0.984 . S
H185 N179 0.985 . S
H186 N183 0.984 . S
H187 N183 0.985 . S
H188 N182 0.984 . S
H189 N182 0.984 . S
H190 N178 0.984 . S
H191 N178 0.985 . S
C192 C193 1.363 . S
C192 C198 1.379 . S
C192 N200 1.356 . S
C193 C192 1.363 . S
C193 C199 1.363 . S
C194 C195 1.363 . S
C194 C199 1.379 . S
C194 N201 1.356 . S
C195 C194 1.363 . S
C195 C198 1.363 . S
N196 C198 1.356 . S
N196 H208 0.984 . S
N196 H209 0.985 . S
N197 C199 1.356 . S
N197 H202 0.984 . S
N197 H203 0.985 . S
C198 C192 1.379 . S
C198 C195 1.363 . S
C198 N196 1.356 . S
C199 C193 1.363 . S
C199 C194 1.379 . S
C199 N197 1.356 . S
N200 C192 1.356 . S
N200 H206 0.984 . S
N200 H207 0.984 . S
N201 C194 1.356 . S
N201 H204 0.984 . S
N201 H205 0.985 . S
H202 N197 0.984 . S
H203 N197 0.985 . S
H204 N201 0.984 . S
H205 N201 0.985 . S
H206 N200 0.984 . S
H207 N200 0.984 . S
H208 N196 0.984 . S
H209 N196 0.985 . S
C210 C211 1.363 . S
C210 C216 1.379 . S
C210 N218 1.356 . S
C211 C210 1.363 . S
C211 C217 1.363 . S
C212 C213 1.363 . S
C212 C217 1.379 . S
C212 N219 1.356 . S
C213 C212 1.363 . S
C213 C216 1.363 . S
N214 C216 1.356 . S
N214 H226 0.984 . S
N214 H227 0.985 . S
N215 C217 1.356 . S
N215 H220 0.984 . S
N215 H221 0.985 . S
C216 C210 1.379 . S
C216 C213 1.363 . S
C216 N214 1.356 . S
C217 C211 1.363 . S
C217 C212 1.379 . S
C217 N215 1.356 . S
N218 C210 1.356 . S
N218 H224 0.984 . S
N218 H225 0.984 . S
N219 C212 1.356 . S
N219 H222 0.984 . S
N219 H223 0.985 . S
H220 N215 0.984 . S
H221 N215 0.985 . S
H222 N219 0.984 . S
H223 N219 0.985 . S
H224 N218 0.984 . S
H225 N218 0.984 . S
H226 N214 0.984 . S
H227 N214 0.985 . S
C228 C229 1.363 . S
C228 C234 1.379 1_554 S
C228 N236 1.356 . S
C229 C228 1.363 . S
C229 C235 1.363 . S
C230 C231 1.363 . S
C230 C235 1.379 1_556 S
C230 N237 1.356 . S
C231 C230 1.363 . S
C231 C234 1.363 . S
N232 C234 1.356 . S
N232 H244 0.984 . S
N232 H245 0.985 . S
N233 C235 1.356 . S
N233 H238 0.984 . S
N233 H239 0.985 . S
C234 C228 1.379 1_556 S
C234 C231 1.363 . S
C234 N232 1.356 . S
C235 C229 1.363 . S
C235 C230 1.379 1_554 S
C235 N233 1.356 . S
N236 C228 1.356 . S
N236 H242 0.984 . S
N236 H243 0.984 . S
N237 C230 1.356 . S
N237 H240 0.984 . S
N237 H241 0.985 . S
H238 N233 0.984 . S
H239 N233 0.985 . S
H240 N237 0.984 . S
H241 N237 0.985 . S
H242 N236 0.984 . S
H243 N236 0.984 . S
H244 N232 0.984 . S
H245 N232 0.985 . S
C246 C247 1.363 . S
C246 C252 1.379 . S
C246 N254 1.356 . S
C247 C246 1.363 . S
C247 C253 1.363 . S
C248 C249 1.363 . S
C248 C253 1.379 . S
C248 N255 1.356 . S
C249 C248 1.363 . S
C249 C252 1.363 . S
N250 C252 1.356 . S
N250 H262 0.984 . S
N250 H263 0.985 . S
N251 C253 1.356 . S
N251 H256 0.984 . S
N251 H257 0.985 . S
C252 C246 1.379 . S
C252 C249 1.363 . S
C252 N250 1.356 . S
C253 C247 1.363 . S
C253 C248 1.379 . S
C253 N251 1.356 . S
N254 C246 1.356 . S
N254 H260 0.984 . S
N254 H261 0.984 . S
N255 C248 1.356 . S
N255 H258 0.984 1_554 S
N255 H259 0.985 . S
H256 N251 0.984 . S
H257 N251 0.985 . S
H258 N255 0.984 1_556 S
H259 N255 0.985 . S
H260 N254 0.984 . S
H261 N254 0.984 . S
H262 N250 0.984 . S
H263 N250 0.985 . S
C264 C265 1.363 . S
C264 C270 1.379 . S
C264 N272 1.356 . S
C265 C264 1.363 . S
C265 C271 1.363 . S
C266 C267 1.363 . S
C266 C271 1.379 . S
C266 N273 1.356 . S
C267 C266 1.363 . S
C267 C270 1.363 . S
N268 C270 1.356 . S
N268 H280 0.984 1_554 S
N268 H281 0.985 . S
N269 C271 1.356 . S
N269 H274 0.984 . S
N269 H275 0.985 . S
C270 C264 1.379 . S
C270 C267 1.363 . S
C270 N268 1.356 . S
C271 C265 1.363 . S
C271 C266 1.379 . S
C271 N269 1.356 . S
N272 C264 1.356 . S
N272 H278 0.984 . S
N272 H279 0.984 . S
N273 C266 1.356 . S
N273 H276 0.984 . S
N273 H277 0.985 . S
H274 N269 0.984 . S
H275 N269 0.985 . S
H276 N273 0.984 . S
H277 N273 0.985 . S
H278 N272 0.984 . S
H279 N272 0.984 . S
H280 N268 0.984 1_556 S
H281 N268 0.985 . S
C282 C283 1.363 . S
C282 C288 1.379 . S
C282 N290 1.356 . S
C283 C282 1.363 . S
C283 C289 1.363 . S
C284 C285 1.363 . S
C284 C289 1.379 . S
C284 N291 1.356 . S
C285 C284 1.363 . S
C285 C288 1.363 . S
N286 C288 1.356 . S
N286 H298 0.984 . S
N286 H299 0.985 . S
N287 C289 1.356 . S
N287 H292 0.984 . S
N287 H293 0.985 . S
C288 C282 1.379 . S
C288 C285 1.363 . S
C288 N286 1.356 . S
C289 C283 1.363 . S
C289 C284 1.379 . S
C289 N287 1.356 . S
N290 C282 1.356 . S
N290 H296 0.984 . S
N290 H297 0.984 . S
N291 C284 1.356 . S
N291 H294 0.984 . S
N291 H295 0.985 . S
H292 N287 0.984 . S
H293 N287 0.985 . S
H294 N291 0.984 . S
H295 N291 0.985 . S
H296 N290 0.984 . S
H297 N290 0.984 . S
H298 N286 0.984 . S
H299 N286 0.985 . S
C300 C301 1.363 . S
C300 C306 1.379 . S
C300 N308 1.356 . S
C301 C300 1.363 . S
C301 C307 1.363 . S
C302 C303 1.363 . S
C302 C307 1.379 . S
C302 N309 1.356 . S
C303 C302 1.363 . S
C303 C306 1.363 . S
N304 C306 1.356 . S
N304 H316 0.984 . S
N304 H317 0.985 . S
N305 C307 1.356 . S
N305 H310 0.984 . S
N305 H311 0.985 . S
C306 C300 1.379 . S
C306 C303 1.363 . S
C306 N304 1.356 . S
C307 C301 1.363 . S
C307 C302 1.379 . S
C307 N305 1.356 . S
N308 C300 1.356 . S
N308 H314 0.984 . S
N308 H315 0.984 . S
N309 C302 1.356 . S
N309 H312 0.984 . S
N309 H313 0.985 . S
H310 N305 0.984 . S
H311 N305 0.985 . S
H312 N309 0.984 . S
H313 N309 0.985 . S
H314 N308 0.984 . S
H315 N308 0.984 . S
H316 N304 0.984 . S
H317 N304 0.985 . S
C318 C319 1.363 . S
C318 C324 1.379 . S
C318 N326 1.356 . S
C319 C318 1.363 . S
C319 C325 1.363 . S
C320 C321 1.363 . S
C320 C325 1.379 . S
C320 N327 1.356 . S
C321 C320 1.363 . S
C321 C324 1.363 . S
N322 C324 1.356 . S
N322 H334 0.984 . S
N322 H335 0.985 . S
N323 C325 1.356 . S
N323 H328 0.984 . S
N323 H329 0.985 . S
C324 C318 1.379 . S
C324 C321 1.363 . S
C324 N322 1.356 . S
C325 C319 1.363 . S
C325 C320 1.379 . S
C325 N323 1.356 . S
N326 C318 1.356 . S
N326 H332 0.984 . S
N326 H333 0.984 . S
N327 C320 1.356 . S
N327 H330 0.984 . S
N327 H331 0.985 . S
H328 N323 0.984 . S
H329 N323 0.985 . S
H330 N327 0.984 . S
H331 N327 0.985 . S
H332 N326 0.984 . S
H333 N326 0.984 . S
H334 N322 0.984 . S
H335 N322 0.985 . S
C336 C337 1.363 . S
C336 C342 1.379 . S
C336 N344 1.356 . S
C337 C336 1.363 . S
C337 C343 1.363 . S
C338 C339 1.363 . S
C338 C343 1.379 . S
C338 N345 1.356 . S
C339 C338 1.363 . S
C339 C342 1.363 . S
N340 C342 1.356 . S
N340 H352 0.984 . S
N340 H353 0.985 . S
N341 C343 1.356 . S
N341 H346 0.984 . S
N341 H347 0.985 . S
C342 C336 1.379 . S
C342 C339 1.363 . S
C342 N340 1.356 . S
C343 C337 1.363 . S
C343 C338 1.379 . S
C343 N341 1.356 . S
N344 C336 1.356 . S
N344 H350 0.984 . S
N344 H351 0.984 . S
N345 C338 1.356 . S
N345 H348 0.984 . S
N345 H349 0.985 . S
H346 N341 0.984 . S
H347 N341 0.985 . S
H348 N345 0.984 . S
H349 N345 0.985 . S
H350 N344 0.984 . S
H351 N344 0.984 . S
H352 N340 0.984 . S
H353 N340 0.985 . S
C354 C355 1.364 . S
C354 C360 1.377 1_556 S
C354 N362 1.357 . S
C355 C354 1.364 . S
C355 C361 1.363 . S
C356 C357 1.363 . S
C356 C361 1.379 1_554 S
C356 N363 1.356 . S
C357 C356 1.363 . S
C357 C360 1.363 . S
N358 C360 1.356 . S
N358 H370 0.984 . S
N358 H371 0.985 . S
N359 C361 1.356 . S
N359 H364 0.984 . S
N359 H365 0.985 . S
C360 C354 1.377 1_554 S
C360 C357 1.363 . S
C360 N358 1.356 . S
C361 C355 1.363 . S
C361 C356 1.379 1_556 S
C361 N359 1.356 . S
N362 C354 1.357 . S
N362 H368 0.984 . S
N362 H369 0.984 . S
N363 C356 1.356 . S
N363 H366 0.984 . S
N363 H367 0.985 . S
H364 N359 0.984 . S
H365 N359 0.985 . S
H366 N363 0.984 . S
H367 N363 0.985 . S
H368 N362 0.984 . S
H369 N362 0.984 . S
H370 N358 0.984 . S
H371 N358 0.985 . S
C372 C373 1.363 . S
C372 C378 1.379 . S
C372 N380 1.356 . S
C373 C372 1.363 . S
C373 C379 1.363 . S
C374 C375 1.363 . S
C374 C379 1.379 . S
C374 N381 1.356 . S
C375 C374 1.363 . S
C375 C378 1.363 . S
N376 C378 1.356 . S
N376 H388 0.984 . S
N376 H389 0.985 . S
N377 C379 1.356 . S
N377 H382 0.984 . S
N377 H383 0.985 . S
C378 C372 1.379 . S
C378 C375 1.363 . S
C378 N376 1.356 . S
C379 C373 1.363 . S
C379 C374 1.379 . S
C379 N377 1.356 . S
N380 C372 1.356 . S
N380 H386 0.984 . S
N380 H387 0.984 . S
N381 C374 1.356 . S
N381 H384 0.984 . S
N381 H385 0.985 . S
H382 N377 0.984 . S
H383 N377 0.985 . S
H384 N381 0.984 . S
H385 N381 0.985 . S
H386 N380 0.984 . S
H387 N380 0.984 . S
H388 N376 0.984 . S
H389 N376 0.985 . S
C390 C391 1.363 1_554 S
C390 C396 1.379 . S
C390 N398 1.356 . S
C391 C390 1.363 1_556 S
C391 C397 1.363 . S
C392 C393 1.363 1_556 S
C392 C397 1.379 . S
C392 N399 1.356 1_556 S
C393 C392 1.363 1_554 S
C393 C396 1.363 . S
N394 C396 1.356 . S
N394 H406 0.984 . S
N394 H407 0.985 . S
N395 C397 1.356 . S
N395 H400 0.984 . S
N395 H401 0.985 . S
C396 C390 1.379 . S
C396 C393 1.363 . S
C396 N394 1.356 . S
C397 C391 1.363 . S
C397 C392 1.379 . S
C397 N395 1.356 . S
N398 C390 1.356 . S
N398 H404 0.984 . S
N398 H405 0.984 1_554 S
N399 C392 1.356 1_554 S
N399 H402 0.984 . S
N399 H403 0.985 1_554 S
H400 N395 0.984 . S
H401 N395 0.985 . S
H402 N399 0.984 . S
H403 N399 0.985 1_556 S
H404 N398 0.984 . S
H405 N398 0.984 1_556 S
H406 N394 0.984 . S
H407 N394 0.985 . S
C408 C409 1.363 . S
C408 C414 1.379 . S
C408 N416 1.356 . S
C409 C408 1.363 . S
C409 C415 1.363 . S
C410 C411 1.363 . S
C410 C415 1.379 . S
C410 N417 1.356 . S
C411 C410 1.363 . S
C411 C414 1.363 . S
N412 C414 1.356 . S
N412 H424 0.984 . S
N412 H425 0.985 . S
N413 C415 1.356 . S
N413 H418 0.984 . S
N413 H419 0.985 . S
C414 C408 1.379 . S
C414 C411 1.363 . S
C414 N412 1.356 . S
C415 C409 1.363 . S
C415 C410 1.379 . S
C415 N413 1.356 . S
N416 C408 1.356 . S
N416 H422 0.984 . S
N416 H423 0.984 . S
N417 C410 1.356 . S
N417 H420 0.984 . S
N417 H421 0.985 . S
H418 N413 0.984 . S
H419 N413 0.985 . S
H420 N417 0.984 . S
H421 N417 0.985 . S
H422 N416 0.984 . S
H423 N416 0.984 . S
H424 N412 0.984 . S
H425 N412 0.985 . S
C426 C427 1.363 . S
C426 C432 1.379 . S
C426 N434 1.356 . S
C427 C426 1.363 . S
C427 C433 1.363 . S
C428 C429 1.363 . S
C428 C433 1.379 . S
C428 N435 1.356 . S
C429 C428 1.363 . S
C429 C432 1.363 . S
N430 C432 1.356 . S
N430 H442 0.984 . S
N430 H443 0.985 . S
N431 C433 1.356 . S
N431 H436 0.984 . S
N431 H437 0.985 . S
C432 C426 1.379 . S
C432 C429 1.363 . S
C432 N430 1.356 . S
C433 C427 1.363 . S
C433 C428 1.379 . S
C433 N431 1.356 . S
N434 C426 1.356 . S
N434 H440 0.984 . S
N434 H441 0.984 . S
N435 C428 1.356 . S
N435 H438 0.984 . S
N435 H439 0.985 . S
H436 N431 0.984 . S
H437 N431 0.985 . S
H438 N435 0.984 . S
H439 N435 0.985 . S
H440 N434 0.984 . S
H441 N434 0.984 . S
H442 N430 0.984 . S
H443 N430 0.985 . S
C444 C445 1.363 . S
C444 C450 1.379 . S
C444 N452 1.356 . S
C445 C444 1.363 . S
C445 C451 1.363 . S
C446 C447 1.363 . S
C446 C451 1.379 . S
C446 N453 1.356 . S
C447 C446 1.363 . S
C447 C450 1.363 . S
N448 C450 1.356 . S
N448 H460 0.984 . S
N448 H461 0.985 . S
N449 C451 1.356 . S
N449 H454 0.984 . S
N449 H455 0.985 . S
C450 C444 1.379 . S
C450 C447 1.363 . S
C450 N448 1.356 . S
C451 C445 1.363 . S
C451 C446 1.379 . S
C451 N449 1.356 . S
N452 C444 1.356 . S
N452 H458 0.984 . S
N452 H459 0.984 . S
N453 C446 1.356 . S
N453 H456 0.984 . S
N453 H457 0.985 . S
H454 N449 0.984 . S
H455 N449 0.985 . S
H456 N453 0.984 . S
H457 N453 0.985 . S
H458 N452 0.984 . S
H459 N452 0.984 . S
H460 N448 0.984 . S
H461 N448 0.985 . S
C462 C463 1.363 . S
C462 C468 1.379 . S
C462 N470 1.356 . S
C463 C462 1.363 . S
C463 C469 1.363 . S
C464 C465 1.363 . S
C464 C469 1.379 . S
C464 N471 1.356 . S
C465 C464 1.363 . S
C465 C468 1.363 . S
N466 C468 1.356 . S
N466 H478 0.984 . S
N466 H479 0.985 . S
N467 C469 1.356 . S
N467 H472 0.984 . S
N467 H473 0.985 . S
C468 C462 1.379 . S
C468 C465 1.363 . S
C468 N466 1.356 . S
C469 C463 1.363 . S
C469 C464 1.379 . S
C469 N467 1.356 . S
N470 C462 1.356 . S
N470 H476 0.984 . S
N470 H477 0.984 . S
N471 C464 1.356 . S
N471 H474 0.984 . S
N471 H475 0.985 . S
H472 N467 0.984 . S
H473 N467 0.985 . S
H474 N471 0.984 . S
H475 N471 0.985 . S
H476 N470 0.984 . S
H477 N470 0.984 . S
H478 N466 0.984 . S
H479 N466 0.985 . S
C480 C481 1.363 . S
C480 C486 1.379 1_545 S
C480 N488 1.356 1_554 S
C481 C480 1.363 . S
C481 C487 1.363 . S
C482 C483 1.363 . S
C482 C487 1.379 1_565 S
C482 N489 1.356 . S
C483 C482 1.363 . S
C483 C486 1.363 . S
N484 C486 1.356 1_556 S
N484 H496 0.984 . S
N484 H497 0.985 1_556 S
N485 C487 1.356 . S
N485 H490 0.984 . S
N485 H491 0.985 . S
C486 C480 1.379 1_565 S
C486 C483 1.363 . S
C486 N484 1.356 1_554 S
C487 C481 1.363 . S
C487 C482 1.379 1_545 S
C487 N485 1.356 . S
N488 C480 1.356 1_556 S
N488 H494 0.984 . S
N488 H495 0.984 1_556 S
N489 C482 1.356 . S
N489 H492 0.984 . S
N489 H493 0.985 . S
H490 N485 0.984 . S
H491 N485 0.985 . S
H492 N489 0.984 . S
H493 N489 0.985 . S
H494 N488 0.984 . S
H495 N488 0.984 1_554 S
H496 N484 0.984 . S
H497 N484 0.985 1_554 S
C498 C499 1.363 . S
C498 C504 1.379 . S
C498 N506 1.356 . S
C499 C498 1.363 . S
C499 C505 1.363 . S
C500 C501 1.363 . S
C500 C505 1.379 . S
C500 N507 1.356 . S
C501 C500 1.363 . S
C501 C504 1.363 . S
N502 C504 1.356 . S
N502 H514 0.984 . S
N502 H515 0.985 . S
N503 C505 1.356 . S
N503 H508 0.984 . S
N503 H509 0.985 . S
C504 C498 1.379 . S
C504 C501 1.363 . S
C504 N502 1.356 . S
C505 C499 1.363 . S
C505 C500 1.379 . S
C505 N503 1.356 . S
N506 C498 1.356 . S
N506 H512 0.984 . S
N506 H513 0.984 . S
N507 C500 1.356 . S
N507 H510 0.984 . S
N507 H511 0.985 . S
H508 N503 0.984 . S
H509 N503 0.985 . S
H510 N507 0.984 . S
H511 N507 0.985 . S
H512 N506 0.984 . S
H513 N506 0.984 . S
H514 N502 0.984 . S
H515 N502 0.985 . S
C516 C517 1.363 . S
C516 C522 1.379 1_455 S
C516 N524 1.356 . S
C517 C516 1.363 . S
C517 C523 1.363 . S
C518 C519 1.363 . S
C518 C523 1.379 1_655 S
C518 N525 1.356 . S
C519 C518 1.363 . S
C519 C522 1.363 . S
N520 C522 1.356 . S
N520 H532 0.984 . S
N520 H533 0.985 . S
N521 C523 1.356 . S
N521 H526 0.984 . S
N521 H527 0.985 . S
C522 C516 1.379 1_655 S
C522 C519 1.363 . S
C522 N520 1.356 . S
C523 C517 1.363 . S
C523 C518 1.379 1_455 S
C523 N521 1.356 . S
N524 C516 1.356 . S
N524 H530 0.984 . S
N524 H531 0.984 . S
N525 C518 1.356 . S
N525 H528 0.984 . S
N525 H529 0.985 . S
H526 N521 0.984 . S
H527 N521 0.985 . S
H528 N525 0.984 . S
H529 N525 0.985 . S
H530 N524 0.984 . S
H531 N524 0.984 . S
H532 N520 0.984 . S
H533 N520 0.985 . S
C534 C535 1.363 . S
C534 C540 1.379 1_565 S
C534 N542 1.356 . S
C535 C534 1.363 . S
C535 C541 1.363 . S
C536 C537 1.363 . S
C536 C541 1.379 1_545 S
C536 N543 1.356 . S
C537 C536 1.363 . S
C537 C540 1.363 . S
N538 C540 1.356 . S
N538 H550 0.984 . S
N538 H551 0.985 . S
N539 C541 1.356 . S
N539 H544 0.984 . S
N539 H545 0.985 . S
C540 C534 1.379 1_545 S
C540 C537 1.363 . S
C540 N538 1.356 . S
C541 C535 1.363 . S
C541 C536 1.379 1_565 S
C541 N539 1.356 . S
N542 C534 1.356 . S
N542 H548 0.984 . S
N542 H549 0.984 . S
N543 C536 1.356 . S
N543 H546 0.984 . S
N543 H547 0.985 . S
H544 N539 0.984 . S
H545 N539 0.985 . S
H546 N543 0.984 . S
H547 N543 0.985 . S
H548 N542 0.984 . S
H549 N542 0.984 . S
H550 N538 0.984 . S
H551 N538 0.985 . S
C552 C553 1.363 . S
C552 C558 1.379 . S
C552 N560 1.356 . S
C553 C552 1.363 . S
C553 C559 1.363 . S
C554 C555 1.363 . S
C554 C559 1.379 . S
C554 N561 1.356 . S
C555 C554 1.363 . S
C555 C558 1.363 . S
N556 C558 1.356 . S
N556 H568 0.984 . S
N556 H569 0.985 . S
N557 C559 1.356 . S
N557 H562 0.984 . S
N557 H563 0.985 . S
C558 C552 1.379 . S
C558 C555 1.363 . S
C558 N556 1.356 . S
C559 C553 1.363 . S
C559 C554 1.379 . S
C559 N557 1.356 . S
N560 C552 1.356 . S
N560 H566 0.984 . S
N560 H567 0.984 . S
N561 C554 1.356 . S
N561 H564 0.984 . S
N561 H565 0.985 . S
H562 N557 0.984 . S
H563 N557 0.985 . S
H564 N561 0.984 . S
H565 N561 0.985 . S
H566 N560 0.984 . S
H567 N560 0.984 . S
H568 N556 0.984 . S
H569 N556 0.985 . S
C570 C571 1.363 . S
C570 C576 1.379 1_455 S
C570 N578 1.356 . S
C571 C570 1.363 . S
C571 C577 1.363 . S
C572 C573 1.363 . S
C572 C577 1.379 1_655 S
C572 N579 1.356 1_556 S
C573 C572 1.363 . S
C573 C576 1.363 . S
N574 C576 1.356 . S
N574 H586 0.984 . S
N574 H587 0.985 . S
N575 C577 1.356 1_554 S
N575 H580 0.984 1_554 S
N575 H581 0.985 . S
C576 C570 1.379 1_655 S
C576 C573 1.363 . S
C576 N574 1.356 . S
C577 C571 1.363 . S
C577 C572 1.379 1_455 S
C577 N575 1.356 1_556 S
N578 C570 1.356 . S
N578 H584 0.984 . S
N578 H585 0.984 . S
N579 C572 1.356 1_554 S
N579 H582 0.984 . S
N579 H583 0.985 . S
H580 N575 0.984 1_556 S
H581 N575 0.985 . S
H582 N579 0.984 . S
H583 N579 0.985 . S
H584 N578 0.984 . S
H585 N578 0.984 . S
H586 N574 0.984 . S
H587 N574 0.985 . S
C157 C8 1.344 . S
C159 C138 1.344 . S
C175 C21 1.344 . S
C177 C151 1.344 . S
C193 C86 1.345 . S
C195 C34 1.345 . S
C211 C47 1.344 . S
C213 C99 1.344 . S
C229 C112 1.344 . S
C231 C60 1.344 . S
C247 C125 1.344 . S
C249 C73 1.345 . S
C265 C104 1.323 . S
C267 C0 1.323 . S
C283 C13 1.323 . S
C285 C117 1.323 . S
C301 C130 1.323 . S
C303 C26 1.323 . S
C319 C39 1.323 . S
C321 C143 1.323 . S
C337 C52 1.324 . S
C339 C78 1.324 . S
C355 C65 1.323 . S
C357 C91 1.323 . S
C373 C140 1.567 . S
C375 C10 1.567 . S
C391 C153 1.567 . S
C393 C23 1.567 . S
C409 C88 1.567 . S
C411 C36 1.567 . S
C427 C49 1.567 . S
C429 C101 1.567 . S
C445 C62 1.567 . S
C447 C114 1.567 . S
C463 C127 1.567 . S
C465 C75 1.567 . S
C481 C5 1.258 . S
C483 C96 1.258 . S
C499 C109 1.258 . S
C501 C18 1.258 . S
C517 C122 1.258 . S
C519 C31 1.258 . S
C535 C44 1.258 . S
C537 C135 1.258 . S
C553 C57 1.258 . S
C555 C148 1.258 . S
C571 C70 1.258 . S
C573 C83 1.258 . S
