# Generated by pormake.
# Topology umy, (4)-cn, num edge types: 1
# Building blocks:
#     Node 0, Type 0, BuildingBlock: AZAVOO_clean_sbu_0, # of connection points: 4
#     Node 1, Type 0, BuildingBlock: AZAVOO_clean_sbu_0, # of connection points: 4
#     Node 2, Type 0, BuildingBlock: AZAVOO_clean_sbu_0, # of connection points: 4
#     Node 3, Type 0, BuildingBlock: AZAVOO_clean_sbu_0, # of connection points: 4
#     Node 4, Type 0, BuildingBlock: AZAVOO_clean_sbu_0, # of connection points: 4
#     Node 5, Type 0, BuildingBlock: AZAVOO_clean_sbu_0, # of connection points: 4
#     Node 6, Type 0, BuildingBlock: AZAVOO_clean_sbu_0, # of connection points: 4
#     Node 7, Type 0, BuildingBlock: AZAVOO_clean_sbu_0, # of connection points: 4
#     Node 8, Type 0, BuildingBlock: AZAVOO_clean_sbu_0, # of connection points: 4
#     Node 9, Type 0, BuildingBlock: AZAVOO_clean_sbu_0, # of connection points: 4
#     Node 10, Type 0, BuildingBlock: AZAVOO_clean_sbu_0, # of connection points: 4
#     Node 11, Type 0, BuildingBlock: AZAVOO_clean_sbu_0, # of connection points: 4
#     Edge 12, Type (0, 0), BuildingBlock: CIFDUS_clean_linker_0, # of connection points: 2
#     Edge 13, Type (0, 0), BuildingBlock: CIFDUS_clean_linker_0, # of connection points: 2
#     Edge 14, Type (0, 0), BuildingBlock: CIFDUS_clean_linker_0, # of connection points: 2
#     Edge 15, Type (0, 0), BuildingBlock: CIFDUS_clean_linker_0, # of connection points: 2
#     Edge 16, Type (0, 0), BuildingBlock: CIFDUS_clean_linker_0, # of connection points: 2
#     Edge 17, Type (0, 0), BuildingBlock: CIFDUS_clean_linker_0, # of connection points: 2
#     Edge 18, Type (0, 0), BuildingBlock: CIFDUS_clean_linker_0, # of connection points: 2
#     Edge 19, Type (0, 0), BuildingBlock: CIFDUS_clean_linker_0, # of connection points: 2
#     Edge 20, Type (0, 0), BuildingBlock: CIFDUS_clean_linker_0, # of connection points: 2
#     Edge 21, Type (0, 0), BuildingBlock: CIFDUS_clean_linker_0, # of connection points: 2
#     Edge 22, Type (0, 0), BuildingBlock: CIFDUS_clean_linker_0, # of connection points: 2
#     Edge 23, Type (0, 0), BuildingBlock: CIFDUS_clean_linker_0, # of connection points: 2
#     Edge 24, Type (0, 0), BuildingBlock: CIFDUS_clean_linker_0, # of connection points: 2
#     Edge 25, Type (0, 0), BuildingBlock: CIFDUS_clean_linker_0, # of connection points: 2
#     Edge 26, Type (0, 0), BuildingBlock: CIFDUS_clean_linker_0, # of connection points: 2
#     Edge 27, Type (0, 0), BuildingBlock: CIFDUS_clean_linker_0, # of connection points: 2
#     Edge 28, Type (0, 0), BuildingBlock: CIFDUS_clean_linker_0, # of connection points: 2
#     Edge 29, Type (0, 0), BuildingBlock: CIFDUS_clean_linker_0, # of connection points: 2
#     Edge 30, Type (0, 0), BuildingBlock: CIFDUS_clean_linker_0, # of connection points: 2
#     Edge 31, Type (0, 0), BuildingBlock: CIFDUS_clean_linker_0, # of connection points: 2
#     Edge 32, Type (0, 0), BuildingBlock: CIFDUS_clean_linker_0, # of connection points: 2
#     Edge 33, Type (0, 0), BuildingBlock: CIFDUS_clean_linker_0, # of connection points: 2
#     Edge 34, Type (0, 0), BuildingBlock: CIFDUS_clean_linker_0, # of connection points: 2
#     Edge 35, Type (0, 0), BuildingBlock: CIFDUS_clean_linker_0, # of connection points: 2
# Relax obj value: 0.134
# Max RMSD: 0.152
# Mean RMSD: 0.152
data_MOF--net-umy--node1-AZAVOO_clean_sbu_0--edge1-CIFDUS_clean_linker_0
_symmetry_space_group_name_H-M    P1
_symmetry_Int_Tables_number       1
_symmetry_cell_setting            triclinic
loop_
_symmetry_equiv_pos_as_xyz
'x, y, z'
_cell_length_a     35.865558
_cell_length_b     35.57039
_cell_length_c     39.73341
_cell_angle_alpha  90.224148
_cell_angle_beta   89.467714
_cell_angle_gamma 120.1997
loop_
_atom_site_label
_atom_site_type_symbol
_atom_site_fract_x
_atom_site_fract_y
_atom_site_fract_z
_atom_type_partial_charge
Mg0 Mg 0.12775 0.38041 0.09386 0.0
O1 O 0.15781 0.38595 0.14529 0.0
O2 O 0.22968 0.42563 0.14154 0.0
Mg3 Mg 0.24566 0.45113 0.08743 0.0
C4 C 0.19506 0.40282 0.15848 0.0
C5 C 0.03934 0.3044 0.11549 0.0
O6 O 0.05443 0.28646 0.09463 0.0
O7 O 0.13739 0.44877 0.10144 0.0
O8 O 0.20939 0.48816 0.09681 0.0
O9 O 0.13938 0.32617 0.07974 0.0
O10 O 0.18592 0.39513 0.0694 0.0
C11 C 0.17273 0.48535 0.1014 0.0
C12 C 0.17674 0.35528 0.06838 0.0
O13 O 0.06115 0.34539 0.12 0.0
Mg14 Mg 0.74708 0.13382 0.25017 0.0
O15 O 0.77357 0.1614 0.30219 0.0
O16 O 0.80763 0.23398 0.30156 0.0
Mg17 Mg 0.79896 0.25315 0.2485 0.0
C18 C 0.79492 0.19802 0.31687 0.0
C19 C 0.73497 0.05518 0.29126 0.0
O20 O 0.77636 0.08336 0.29409 0.0
O21 O 0.69087 0.14573 0.26062 0.0
O22 O 0.72585 0.21842 0.25809 0.0
O23 O 0.81043 0.14214 0.23258 0.0
O24 O 0.79282 0.19295 0.22763 0.0
C25 C 0.69119 0.18182 0.26208 0.0
C26 C 0.82114 0.18124 0.22353 0.0
O27 O 0.71187 0.06561 0.27388 0.0
Mg28 Mg 0.64799 0.75551 0.40404 0.0
O29 O 0.63251 0.77701 0.45383 0.0
O30 O 0.58734 0.80206 0.44504 0.0
Mg31 Mg 0.57806 0.80098 0.38781 0.0
C32 C 0.60939 0.79246 0.46456 0.0
C33 C 0.70119 0.73843 0.45691 0.0
O34 O 0.71316 0.77924 0.4632 0.0
O35 O 0.58004 0.69596 0.40362 0.0
O36 O 0.54052 0.72626 0.39055 0.0
O37 O 0.70462 0.82196 0.39615 0.0
O38 O 0.63913 0.80172 0.37826 0.0
C39 C 0.54384 0.69283 0.39678 0.0
C40 C 0.67866 0.83213 0.38172 0.0
O41 O 0.67428 0.71874 0.43349 0.0
Mg42 Mg 0.88708 0.63317 0.58176 0.0
O43 O 0.85332 0.616 0.63264 0.0
O44 O 0.78185 0.57653 0.6282 0.0
Mg45 Mg 0.77053 0.56462 0.57113 0.0
C46 C 0.8159 0.59591 0.64593 0.0
C47 C 0.95637 0.68922 0.63218 0.0
O48 O 0.92728 0.70106 0.63579 0.0
O49 O 0.87753 0.5649 0.5794 0.0
O50 O 0.80623 0.52554 0.57166 0.0
O51 O 0.87817 0.69034 0.57651 0.0
O52 O 0.83126 0.62477 0.55795 0.0
C53 C 0.84308 0.52841 0.57486 0.0
C54 C 0.84174 0.66484 0.56216 0.0
O55 O 0.95019 0.66035 0.6104 0.0
Mg56 Mg 0.23447 0.87046 0.77354 0.0
O57 O 0.20745 0.83586 0.82386 0.0
O58 O 0.16782 0.76411 0.81632 0.0
Mg59 Mg 0.17368 0.75237 0.76022 0.0
C60 C 0.18363 0.79752 0.83533 0.0
C61 C 0.25373 0.94405 0.82293 0.0
O62 O 0.21178 0.91839 0.82589 0.0
O63 O 0.28665 0.85186 0.77538 0.0
O64 O 0.24649 0.78011 0.76633 0.0
O65 O 0.17288 0.86943 0.76191 0.0
O66 O 0.18679 0.81785 0.74715 0.0
C67 C 0.28289 0.81442 0.77147 0.0
C68 C 0.16038 0.83226 0.74757 0.0
O69 O 0.2745 0.93349 0.80258 0.0
Mg70 Mg 0.36649 0.24166 0.94541 0.0
O71 O 0.37522 0.21705 0.99598 0.0
O72 O 0.4082 0.17852 0.98874 0.0
Mg73 Mg 0.42471 0.18271 0.93245 0.0
C74 C 0.39046 0.19427 0.00764 0.0
C75 C 0.35296 0.32011 0.97254 0.0
O76 O 0.38404 0.346 0.9518 0.0
O77 O 0.43693 0.29565 0.94621 0.0
O78 O 0.46962 0.25697 0.93703 0.0
O79 O 0.30604 0.17908 0.93657 0.0
O80 O 0.37044 0.19228 0.9198 0.0
C81 C 0.47104 0.29326 0.94185 0.0
C82 C 0.32964 0.16534 0.92247 0.0
O83 O 0.34213 0.28026 0.97441 0.0
Mg84 Mg 0.60228 0.84337 0.72839 0.0
O85 O 0.58858 0.81362 0.6759 0.0
O86 O 0.53538 0.74444 0.67838 0.0
Mg87 Mg 0.51938 0.72781 0.73443 0.0
C88 C 0.56269 0.77774 0.66168 0.0
C89 C 0.6717 0.91556 0.68499 0.0
O90 O 0.6793 0.88327 0.6815 0.0
O91 O 0.53895 0.84429 0.72852 0.0
O92 O 0.49211 0.77366 0.7373 0.0
O93 O 0.65159 0.82402 0.7378 0.0
O94 O 0.58224 0.78243 0.74953 0.0
C95 C 0.50071 0.81302 0.73445 0.0
C96 C 0.6203 0.78744 0.74891 0.0
O97 O 0.64049 0.91024 0.70379 0.0
Mg98 Mg 0.74663 0.63018 0.91141 0.0
O99 O 0.75985 0.61454 0.85856 0.0
O100 O 0.78898 0.57211 0.86075 0.0
Mg101 Mg 0.79116 0.55816 0.91703 0.0
C102 C 0.77528 0.59329 0.84411 0.0
C103 C 0.68662 0.64769 0.86285 0.0
O104 O 0.67158 0.60751 0.85256 0.0
O105 O 0.68655 0.56318 0.91452 0.0
O106 O 0.7166 0.5216 0.91987 0.0
O107 O 0.81334 0.68558 0.91499 0.0
O108 O 0.79374 0.61913 0.93234 0.0
C109 C 0.68336 0.52604 0.91851 0.0
C110 C 0.82385 0.65896 0.92802 0.0
O111 O 0.71286 0.66226 0.8872 0.0
Mg112 Mg 0.09866 0.75335 0.09562 0.0
O113 O 0.13737 0.77574 0.04669 0.0
O114 O 0.20802 0.80854 0.05642 0.0
Mg115 Mg 0.21373 0.80273 0.11358 0.0
C116 C 0.17633 0.79547 0.03629 0.0
C117 C 0.03185 0.73423 0.03962 0.0
O118 O 0.06052 0.77509 0.03337 0.0
O119 O 0.10933 0.69566 0.09679 0.0
O120 O 0.17948 0.72769 0.10891 0.0
O121 O 0.10584 0.81885 0.10318 0.0
O122 O 0.15164 0.80016 0.12281 0.0
C123 C 0.14315 0.69362 0.10284 0.0
C124 C 0.14129 0.82969 0.11894 0.0
O125 O 0.03767 0.71534 0.06444 0.0
Mg126 Mg 0.35419 0.12051 0.27071 0.0
O127 O 0.36746 0.15552 0.22019 0.0
O128 O 0.41159 0.22692 0.227 0.0
Mg129 Mg 0.42964 0.23716 0.2829 0.0
C130 C 0.38865 0.19402 0.20839 0.0
C131 C 0.29263 0.0478 0.22095 0.0
O132 O 0.28178 0.07745 0.21554 0.0
O133 O 0.42047 0.1259 0.26706 0.0
O134 O 0.4634 0.19706 0.2765 0.0
O135 O 0.30116 0.13488 0.28303 0.0
O136 O 0.36923 0.17786 0.29652 0.0
C137 C 0.45798 0.15919 0.27092 0.0
C138 C 0.33044 0.17091 0.29635 0.0
O139 O 0.32164 0.05546 0.24252 0.0
Mg140 Mg 0.24038 0.38673 0.42143 0.0
O141 O 0.21188 0.3908 0.37151 0.0
O142 O 0.18484 0.43515 0.37461 0.0
Mg143 Mg 0.20201 0.46504 0.42732 0.0
C144 C 0.19268 0.40891 0.35828 0.0
C145 C 0.23654 0.31232 0.37886 0.0
O146 O 0.19625 0.30335 0.37971 0.0
O147 O 0.30103 0.45175 0.40847 0.0
O148 O 0.27355 0.4959 0.41274 0.0
O149 O 0.17508 0.33742 0.44158 0.0
O150 O 0.20329 0.40821 0.44736 0.0
C151 C 0.30503 0.48953 0.40673 0.0
C152 C 0.17113 0.36971 0.45214 0.0
O153 O 0.26484 0.34594 0.39436 0.0
Mg154 Mg 0.85287 0.22812 0.58062 0.0
O155 O 0.82145 0.20201 0.5299 0.0
O156 O 0.7498 0.17031 0.53353 0.0
Mg157 Mg 0.73562 0.18075 0.58812 0.0
C158 C 0.78427 0.18179 0.51657 0.0
C159 C 0.94589 0.2954 0.54528 0.0
O160 O 0.94096 0.32806 0.55481 0.0
O161 O 0.84422 0.28708 0.57264 0.0
O162 O 0.77243 0.25457 0.57844 0.0
O163 O 0.84194 0.16302 0.59546 0.0
O164 O 0.79552 0.18515 0.60604 0.0
C165 C 0.80927 0.28851 0.57328 0.0
C166 C 0.80486 0.15469 0.60738 0.0
O167 O 0.91728 0.25674 0.55281 0.0
H168 H 0.20725 0.67649 0.11637 0.0
H169 H 0.07277 0.61361 0.08932 0.0
H170 H 0.0691 0.54314 0.08835 0.0
H171 H 0.10495 0.49953 0.09331 0.0
H172 H 0.23984 0.56398 0.11945 0.0
H173 H 0.24215 0.63336 0.12285 0.0
C174 C 0.17703 0.64745 0.1103 0.0
C175 C 0.14044 0.65057 0.1028 0.0
C176 C 0.17514 0.6071 0.10965 0.0
C177 C 0.10156 0.61235 0.09513 0.0
C178 C 0.09939 0.57194 0.09458 0.0
C179 C 0.1347 0.52869 0.10006 0.0
C180 C 0.17218 0.52645 0.10591 0.0
C181 C 0.13607 0.56894 0.10159 0.0
C182 C 0.21055 0.56467 0.1145 0.0
C183 C 0.21197 0.60448 0.11648 0.0
H184 H 0.60784 0.11487 0.25449 0.0
H185 H 0.68324 0.25035 0.28242 0.0
H186 H 0.61799 0.25456 0.28809 0.0
H187 H 0.54045 0.22141 0.28329 0.0
H188 H 0.46313 0.08644 0.25484 0.0
H189 H 0.52823 0.08052 0.25126 0.0
C190 C 0.60989 0.14515 0.2621 0.0
C191 C 0.65052 0.18227 0.2678 0.0
C192 C 0.57198 0.14763 0.26502 0.0
C193 C 0.65256 0.22133 0.27755 0.0
C194 C 0.61521 0.22385 0.28084 0.0
C195 C 0.53756 0.19056 0.27629 0.0
C196 C 0.49684 0.15452 0.26916 0.0
C197 C 0.5749 0.18743 0.27422 0.0
C198 C 0.49404 0.11481 0.26039 0.0
C199 C 0.53127 0.11139 0.25835 0.0
H200 H 0.46432 0.67408 0.37697 0.0
H201 H 0.53326 0.6141 0.41725 0.0
H202 H 0.46572 0.54435 0.42122 0.0
H203 H 0.38593 0.50169 0.41683 0.0
H204 H 0.31869 0.56426 0.37799 0.0
H205 H 0.3868 0.6315 0.36968 0.0
C206 C 0.46483 0.64581 0.38652 0.0
C207 C 0.50386 0.64957 0.3971 0.0
C208 C 0.42603 0.60614 0.38904 0.0
C209 C 0.50369 0.61228 0.40903 0.0
C210 C 0.46504 0.57236 0.41136 0.0
C211 C 0.38636 0.5299 0.40611 0.0
C212 C 0.34725 0.52805 0.39832 0.0
C213 C 0.42585 0.56905 0.40192 0.0
C214 C 0.34826 0.56492 0.38458 0.0
C215 C 0.38721 0.60345 0.37979 0.0
H216 H 0.77779 0.44672 0.56178 0.0
H217 H 0.9136 0.51875 0.58488 0.0
H218 H 0.91604 0.45125 0.58438 0.0
H219 H 0.87859 0.37102 0.57971 0.0
H220 H 0.7424 0.30042 0.55753 0.0
H221 H 0.74144 0.36817 0.55513 0.0
C222 C 0.80806 0.44788 0.56666 0.0
C223 C 0.84536 0.48787 0.57356 0.0
C224 C 0.80921 0.40907 0.56649 0.0
C225 C 0.88428 0.48847 0.57958 0.0
C226 C 0.88573 0.44985 0.5793 0.0
C227 C 0.84884 0.37055 0.57402 0.0
C228 C 0.81059 0.33056 0.56905 0.0
C229 C 0.84827 0.40985 0.57307 0.0
C230 C 0.77227 0.33059 0.56179 0.0
C231 C 0.77162 0.36937 0.5604 0.0
H232 H 0.42122 0.75705 0.75875 0.0
H233 H 0.50035 0.88951 0.72438 0.0
H234 H 0.44077 0.90305 0.73556 0.0
H235 H 0.36495 0.87585 0.75324 0.0
H236 H 0.28737 0.74272 0.78662 0.0
H237 H 0.34813 0.73115 0.77814 0.0
C238 C 0.42566 0.78896 0.75351 0.0
C239 C 0.46513 0.82207 0.74038 0.0
C240 C 0.39162 0.79648 0.76012 0.0
C241 C 0.47021 0.86332 0.73428 0.0
C242 C 0.43621 0.8711 0.74076 0.0
C243 C 0.36167 0.84457 0.75913 0.0
C244 C 0.32171 0.81014 0.77043 0.0
C245 C 0.39665 0.83781 0.75355 0.0
C246 C 0.31771 0.76964 0.77769 0.0
C247 C 0.35238 0.76294 0.77277 0.0
H248 H 0.48825 0.37678 0.93357 0.0
H249 H 0.54998 0.30035 0.94689 0.0
H250 H 0.62059 0.36541 0.94086 0.0
H251 H 0.66485 0.44325 0.93039 0.0
H252 H 0.60423 0.52053 0.91612 0.0
H253 H 0.53322 0.45577 0.92379 0.0
C254 C 0.51716 0.37443 0.93546 0.0
C255 C 0.51371 0.33364 0.94063 0.0
C256 C 0.55789 0.41202 0.93152 0.0
C257 C 0.55157 0.33121 0.94277 0.0
C258 C 0.59204 0.36842 0.93929 0.0
C259 C 0.6362 0.44612 0.92889 0.0
C260 C 0.64004 0.48683 0.92259 0.0
C261 C 0.59556 0.40887 0.93332 0.0
C262 C 0.60236 0.48966 0.92088 0.0
C263 C 0.56168 0.45263 0.92532 0.0
H264 H 0.25189 0.40707 0.03473 0.0
H265 H 0.17194 0.27652 0.07271 0.0
H266 H 0.22129 0.25527 0.0483 0.0
H267 H 0.28454 0.2725 0.01381 0.0
H268 H 0.36369 0.40216 0.9739 0.0
H269 H 0.31739 0.42518 1.00187 0.0
C270 C 0.24551 0.3741 0.03798 0.0
C271 C 0.20823 0.34339 0.05547 0.0
C272 C 0.27375 0.36192 0.02348 0.0
C273 C 0.20028 0.30073 0.05925 0.0
C274 C 0.22849 0.28854 0.04531 0.0
C275 C 0.29198 0.30594 0.01133 0.0
C276 C 0.32744 0.33549 0.99155 0.0
C277 C 0.26493 0.3187 0.02698 0.0
C278 C 0.33654 0.37869 0.98884 0.0
C279 C 0.31002 0.39184 0.00477 0.0
H280 H 0.87144 0.15849 0.18812 0.0
H281 H 0.86607 0.27049 0.2232 0.0
H282 H 0.93333 0.31868 0.19356 0.0
H283 H -0.00708 0.32903 0.15586 0.0
H284 H -0.00445 0.21612 0.11871 0.0
H285 H 0.93043 0.16863 0.15067 0.0
C286 C 0.88524 0.19347 0.18957 0.0
C287 C 0.86368 0.21079 0.20789 0.0
C288 C 0.92343 0.22097 0.17174 0.0
C289 C 0.88169 0.25617 0.20913 0.0
C290 C 0.92029 0.28384 0.19216 0.0
C291 C 0.97922 0.29405 0.15478 0.0
C292 C -0.00084 0.27631 0.1348 0.0
C293 C 0.94121 0.2666 0.17301 0.0
C294 C 0.98088 0.23083 0.13368 0.0
C295 C 0.94362 0.2035 0.15207 0.0
H296 H 0.63424 0.86143 0.34514 0.0
H297 H 0.75793 0.90372 0.39076 0.0
H298 H 0.78546 0.97652 0.36773 0.0
H299 H 0.77564 0.0273 0.33284 0.0
H300 H 0.65251 0.98572 0.28656 0.0
H301 H 0.62351 0.91358 0.31184 0.0
C302 C 0.66708 0.88666 0.35033 0.0
C303 C 0.69398 0.877 0.36962 0.0
C304 C 0.68291 0.92853 0.33674 0.0
C305 C 0.73653 0.91012 0.37594 0.0
C306 C 0.75235 0.95181 0.36273 0.0
C307 C 0.74239 0.00256 0.32828 0.0
C308 C 0.7164 0.0119 0.30759 0.0
C309 C 0.72602 0.96122 0.34277 0.0
C310 C 0.6733 0.97944 0.30226 0.0
C311 C 0.6567 0.93814 0.3167 0.0
H312 H 0.75925 0.77224 0.50758 0.0
H313 H 0.68544 0.65505 0.44955 0.0
H314 H 0.71966 0.62045 0.47928 0.0
H315 H 0.77396 0.62517 0.51923 0.0
H316 H 0.84915 0.74343 0.57571 0.0
H317 H 0.81056 0.77564 0.5494 0.0
C318 C 0.75043 0.73904 0.5015 0.0
C319 C 0.72007 0.71645 0.47613 0.0
C320 C 0.77048 0.71948 0.51846 0.0
C321 C 0.70889 0.67334 0.4688 0.0
C322 C 0.72844 0.65349 0.48581 0.0
C323 C 0.78147 0.65776 0.52613 0.0
C324 C 0.81452 0.68191 0.54932 0.0
C325 C 0.75973 0.67647 0.51036 0.0
C326 C 0.824 0.72419 0.55785 0.0
C327 C 0.80202 0.7427 0.54274 0.0
H328 H 0.97959 0.75444 0.67746 0.0
H329 H 0.02112 0.66989 0.63407 0.0
H330 H 0.08658 0.70511 0.66784 0.0
H331 H 0.13311 0.76162 0.70765 0.0
H332 H 0.09296 0.84778 0.74987 0.0
H333 H 0.02539 0.80981 0.7186 0.0
C334 C 0.00286 0.74356 0.67542 0.0
C335 C -0.00443 0.7097 0.65312 0.0
C336 C 0.04053 0.76416 0.69469 0.0
C337 C 0.02604 0.69601 0.65088 0.0
C338 C 0.06344 0.71609 0.67022 0.0
C339 C 0.1094 0.77183 0.71039 0.0
C340 C 0.11798 0.80742 0.73113 0.0
C341 C 0.07113 0.7504 0.69195 0.0
C342 C 0.0871 0.82048 0.73408 0.0
C343 C 0.04854 0.79885 0.71615 0.0
H344 H 0.21745 0.97462 0.86731 0.0
H345 H 0.33929 0.00662 0.82097 0.0
H346 H 0.37416 0.07695 0.84961 0.0
H347 H 0.36903 0.13088 0.88514 0.0
H348 H 0.24666 0.09914 0.93029 0.0
H349 H 0.21306 0.02696 0.90484 0.0
C350 C 0.2517 0.99682 0.86356 0.0
C351 C 0.27564 0.98549 0.8418 0.0
C352 C 0.27142 0.03728 0.87983 0.0
C353 C 0.32004 0.0146 0.83745 0.0
C354 C 0.34001 0.05484 0.8538 0.0
C355 C 0.33513 0.10801 0.88975 0.0
C356 C 0.31037 0.12043 0.90951 0.0
C357 C 0.31587 0.06674 0.87468 0.0
C358 C 0.26643 0.09047 0.91508 0.0
C359 C 0.24716 0.0492 0.9005 0.0
H360 H 0.6219 0.6292 0.8184 0.0
H361 H 0.73625 0.73561 0.86232 0.0
H362 H 0.72815 0.78738 0.82798 0.0
H363 H 0.68789 0.80316 0.78678 0.0
H364 H 0.56998 0.69881 0.74617 0.0
H365 H 0.58037 0.64547 0.77737 0.0
C366 C 0.64489 0.66373 0.82046 0.0
C367 C 0.67944 0.67847 0.84301 0.0
C368 C 0.63964 0.69367 0.801 0.0
C369 C 0.70902 0.72333 0.84548 0.0
C370 C 0.70465 0.75305 0.82567 0.0
C371 C 0.66488 0.76866 0.78438 0.0
C372 C 0.62852 0.75472 0.76409 0.0
C373 C 0.6701 0.73863 0.80344 0.0
C374 C 0.59827 0.71013 0.7617 0.0
C375 C 0.60415 0.67972 0.77959 0.0
H376 H 0.84996 0.61924 0.97252 0.0
H377 H 0.89637 0.7354 0.91245 0.0
H378 H 0.96625 0.76765 0.94016 0.0
H379 H 0.01148 0.76572 0.98506 0.0
H380 H 0.96426 0.65101 0.04708 0.0
H381 H 0.89742 0.61533 0.01495 0.0
C382 C 0.87564 0.65128 0.96507 0.0
C383 C 0.86794 0.67501 0.94062 0.0
C384 C 0.91536 0.67015 0.9818 0.0
C385 C 0.90143 0.71658 0.93134 0.0
C386 C 0.94134 0.73512 0.94726 0.0
C387 C 0.98672 0.73281 0.99147 0.0
C388 C -0.00733 0.71131 0.01873 0.0
C389 C 0.94821 0.7127 0.97318 0.0
C390 C 0.96038 0.66848 0.02641 0.0
C391 C 0.92214 0.64802 0.00803 0.0
H392 H 0.22905 0.02176 0.17449 0.0
H393 H 0.30662 0.97914 0.22625 0.0
H394 H 0.26838 0.90892 0.1977 0.0
H395 H 0.2108 0.85844 0.15996 0.0
H396 H 0.13236 0.90068 0.10915 0.0
H397 H 0.1733 0.97228 0.13526 0.0
C398 C 0.23775 0.99721 0.17949 0.0
C399 C 0.27053 0.00572 0.20269 0.0
C400 C 0.21546 0.95677 0.16314 0.0
C401 C 0.28142 0.97349 0.20866 0.0
C402 C 0.25956 0.93328 0.19233 0.0
C403 C 0.20293 0.88343 0.1543 0.0
C404 C 0.16848 0.87413 0.13263 0.0
C405 C 0.22625 0.9244 0.16976 0.0
C406 C 0.15861 0.90688 0.12577 0.0
C407 C 0.18197 0.94784 0.14075 0.0
H408 H 0.25257 0.16727 0.29831 0.0
H409 H 0.38537 0.24684 0.32827 0.0
H410 H 0.36864 0.29817 0.35533 0.0
H411 H 0.31581 0.31943 0.37255 0.0
H412 H 0.18271 0.23923 0.34349 0.0
H413 H 0.20008 0.18953 0.3143 0.0
C414 C 0.27791 0.19598 0.31056 0.0
C415 C 0.32021 0.20315 0.31101 0.0
C416 C 0.26798 0.2253 0.32654 0.0
C417 C 0.35259 0.24054 0.32715 0.0
C418 C 0.34302 0.26992 0.34285 0.0
C419 C 0.29063 0.29116 0.35976 0.0
C420 C 0.248 0.28309 0.36044 0.0
C421 C 0.30076 0.26246 0.34301 0.0
C422 C 0.21581 0.24629 0.34358 0.0
C423 C 0.22568 0.21775 0.3268 0.0
H424 H 0.0967 0.29315 0.4635 0.0
H425 H 0.15569 0.4317 0.47847 0.0
H426 H 0.09098 0.42134 0.50729 0.0
H427 H 0.0182 0.37278 0.53008 0.0
H428 H 0.96019 0.23404 0.51649 0.0
H429 H 0.02372 0.24474 0.48559 0.0
C430 C 0.09532 0.3211 0.4729 0.0
C431 C 0.13096 0.36313 0.4685 0.0
C432 C 0.05815 0.31491 0.48998 0.0
C433 C 0.12864 0.39896 0.48105 0.0
C434 C 0.09164 0.39309 0.49776 0.0
C435 C 0.01939 0.34491 0.52026 0.0
C436 C 0.98446 0.30272 0.52579 0.0
C437 C 0.05628 0.35119 0.5026 0.0
C438 C 0.98664 0.26695 0.51284 0.0
C439 C 0.023 0.27298 0.49508 0.0
H440 H 0.8118 0.0821 0.60729 0.0
H441 H 0.72872 0.13063 0.63995 0.0
H442 H 0.6797 0.06078 0.66636 0.0
H443 H 0.6616 0.98655 0.68183 0.0
H444 H 0.74482 0.93829 0.64874 0.0
H445 H 0.79247 0.00732 0.62097 0.0
C446 C 0.78287 0.07735 0.62004 0.0
C447 C 0.774 0.11155 0.62164 0.0
C448 C 0.75489 0.03717 0.6353 0.0
C449 C 0.73627 0.10479 0.63819 0.0
C450 C 0.70827 0.06489 0.65344 0.0
C451 C 0.69013 0.99113 0.66851 0.0
C452 C 0.69971 0.95735 0.66759 0.0
C453 C 0.71745 0.03096 0.65242 0.0
C454 C 0.73666 0.96374 0.64998 0.0
C455 C 0.76401 0.00325 0.63406 0.0
H456 H 0.23903 0.3961 0.31055 0.0
H457 H 0.12683 0.40942 0.32459 0.0
H458 H 0.11547 0.40456 0.26363 0.0
H459 H 0.14021 0.40103 0.20635 0.0
H460 H 0.25698 0.3959 0.19245 0.0
H461 H 0.26386 0.39287 0.25349 0.0
C462 C 0.21175 0.39735 0.30027 0.0
C463 C 0.18357 0.40278 0.32192 0.0
C464 C 0.20651 0.39628 0.26529 0.0
C465 C 0.14887 0.40522 0.30832 0.0
C466 C 0.14243 0.40248 0.27354 0.0
C467 C 0.16686 0.39872 0.21675 0.0
C468 C 0.19794 0.3984 0.19509 0.0
C469 C 0.17143 0.39866 0.25178 0.0
C470 C 0.23276 0.39623 0.20874 0.0
C471 C 0.23666 0.39449 0.24356 0.0
H472 H 0.8433 0.23328 0.4702 0.0
H473 H 0.71905 0.1167 0.48044 0.0
H474 H 0.71349 0.10931 0.41907 0.0
H475 H 0.74216 0.13855 0.36272 0.0
H476 H 0.86286 0.25925 0.35293 0.0
H477 H 0.87188 0.26245 0.41406 0.0
C478 C 0.81523 0.20594 0.459 0.0
C479 C 0.78172 0.17538 0.47974 0.0
C480 C 0.81162 0.20285 0.42385 0.0
C481 C 0.7452 0.1406 0.46493 0.0
C482 C 0.74204 0.1364 0.4299 0.0
C483 C 0.77068 0.16526 0.37399 0.0
C484 C 0.80196 0.19854 0.35345 0.0
C485 C 0.7748 0.16768 0.40914 0.0
C486 C 0.83839 0.23335 0.36831 0.0
C487 C 0.84351 0.23517 0.4032 0.0
H488 H 0.6315 0.82469 0.62067 0.0
H489 H 0.49691 0.72558 0.61954 0.0
H490 H 0.49867 0.72396 0.55797 0.0
H491 H 0.53896 0.75021 0.50434 0.0
H492 H 0.6749 0.84401 0.50603 0.0
H493 H 0.67225 0.84881 0.56751 0.0
C494 C 0.60254 0.80277 0.60693 0.0
C495 C 0.56409 0.77539 0.62457 0.0
C496 C 0.60405 0.80138 0.57166 0.0
C497 C 0.52696 0.74678 0.6065 0.0
C498 C 0.52789 0.746 0.57132 0.0
C499 C 0.56774 0.772 0.51832 0.0
C500 C 0.60689 0.79739 0.50105 0.0
C501 C 0.56624 0.77317 0.55364 0.0
C502 C 0.6444 0.82469 0.51909 0.0
C503 C 0.64289 0.82725 0.55412 0.0
H504 H 0.75335 0.59449 0.68643 0.0
H505 H 0.87246 0.59233 0.68857 0.0
H506 H 0.8695 0.58906 0.74992 0.0
H507 H 0.83386 0.58824 0.8033 0.0
H508 H 0.71836 0.59715 0.80154 0.0
H509 H 0.71903 0.59637 0.74007 0.0
C510 C 0.77844 0.59308 0.70041 0.0
C511 C 0.81291 0.59344 0.68305 0.0
C512 C 0.77727 0.59253 0.73584 0.0
C513 C 0.84563 0.59223 0.70142 0.0
C514 C 0.84396 0.59028 0.73651 0.0
C515 C 0.80877 0.58979 0.78939 0.0
C516 C 0.77604 0.59252 0.8069 0.0
C517 C 0.81005 0.59061 0.75402 0.0
C518 C 0.74403 0.59517 0.78861 0.0
C519 C 0.74432 0.59463 0.75345 0.0
H520 H 0.23602 0.8484 0.88522 0.0
H521 H 0.11274 0.73338 0.8676 0.0
H522 H 0.09913 0.72361 0.92828 0.0
H523 H 0.12267 0.74721 0.9862 0.0
H524 H 0.24826 0.85894 0.00412 0.0
H525 H 0.26071 0.87053 0.94338 0.0
C526 C 0.2061 0.82131 0.89471 0.0
C527 C 0.17528 0.79177 0.872 0.0
C528 C 0.19905 0.81524 0.9296 0.0
C529 C 0.13696 0.75646 0.88459 0.0
C530 C 0.12916 0.75091 0.91925 0.0
C531 C 0.15275 0.77419 0.97682 0.0
C532 C 0.18443 0.80234 0.99962 0.0
C533 C 0.16004 0.78001 0.94196 0.0
C534 C 0.22344 0.83677 0.98708 0.0
C535 C 0.23051 0.84346 0.95238 0.0
H536 H 0.38048 0.1375 0.15928 0.0
H537 H 0.39626 0.2647 0.17535 0.0
H538 H 0.39628 0.27512 0.11447 0.0
H539 H 0.3931 0.24849 0.05676 0.0
H540 H 0.38363 0.12397 0.04072 0.0
H541 H 0.37989 0.11198 0.10159 0.0
C542 C 0.38366 0.16739 0.14942 0.0
C543 C 0.38804 0.20019 0.1717 0.0
C544 C 0.38494 0.17363 0.11447 0.0
C545 C 0.39288 0.23905 0.15865 0.0
C546 C 0.39285 0.24497 0.12389 0.0
C547 C 0.39002 0.21864 0.06663 0.0
C548 C 0.38835 0.18699 0.04436 0.0
C549 C 0.38908 0.21255 0.10158 0.0
C550 C 0.38507 0.14881 0.05742 0.0
C551 C 0.38283 0.14192 0.09217 0.0
loop_
_geom_bond_atom_site_label_1
_geom_bond_atom_site_label_2
_geom_bond_distance
_geom_bond_site_symmetry_2
_ccdc_geom_bond_type
Mg0 O1 2.028 . S
Mg0 O7 1.986 . S
Mg0 O9 2.114 . S
Mg0 O10 2.251 . S
Mg0 O13 2.010 . S
O1 Mg0 2.028 . S
O1 C4 1.250 . S
O2 Mg3 2.028 . S
O2 C4 1.248 . S
Mg3 O2 2.028 . S
Mg3 O8 2.032 . S
Mg3 O10 2.079 . S
C4 O1 1.250 . S
C4 O2 1.248 . S
C5 O6 1.264 . S
C5 O13 1.249 1_655 S
O6 C5 1.264 . S
O7 Mg0 1.986 . S
O7 C11 1.246 . S
O8 Mg3 2.032 . S
O8 C11 1.259 . S
O9 Mg0 2.114 . S
O9 C12 1.252 . S
O10 Mg0 2.251 . S
O10 Mg3 2.079 . S
O10 C12 1.273 . S
C11 O7 1.246 . S
C11 O8 1.259 . S
C12 O9 1.252 . S
C12 O10 1.273 . S
O13 Mg0 2.010 . S
O13 C5 1.249 1_455 S
Mg14 O15 2.028 . S
Mg14 O21 1.986 . S
Mg14 O23 2.114 . S
Mg14 O24 2.251 . S
Mg14 O27 2.010 . S
O15 Mg14 2.028 . S
O15 C18 1.250 . S
O16 Mg17 2.028 . S
O16 C18 1.248 . S
Mg17 O16 2.028 . S
Mg17 O22 2.032 . S
Mg17 O24 2.079 . S
C18 O15 1.250 . S
C18 O16 1.248 . S
C19 O20 1.264 . S
C19 O27 1.249 1_565 S
O20 C19 1.264 . S
O21 Mg14 1.986 . S
O21 C25 1.246 . S
O22 Mg17 2.032 . S
O22 C25 1.259 . S
O23 Mg14 2.114 . S
O23 C26 1.252 . S
O24 Mg14 2.251 . S
O24 Mg17 2.079 . S
O24 C26 1.273 . S
C25 O21 1.246 . S
C25 O22 1.259 . S
C26 O23 1.252 . S
C26 O24 1.273 . S
O27 Mg14 2.010 . S
O27 C19 1.249 1_545 S
Mg28 O29 2.028 . S
Mg28 O35 1.986 . S
Mg28 O37 2.114 . S
Mg28 O38 2.251 . S
Mg28 O41 2.010 . S
O29 Mg28 2.028 . S
O29 C32 1.250 . S
O30 Mg31 2.028 . S
O30 C32 1.248 . S
Mg31 O30 2.028 . S
Mg31 O36 2.032 . S
Mg31 O38 2.079 . S
C32 O29 1.250 . S
C32 O30 1.248 . S
C33 O34 1.264 . S
C33 O41 1.249 . S
O34 C33 1.264 . S
O35 Mg28 1.986 . S
O35 C39 1.246 . S
O36 Mg31 2.032 . S
O36 C39 1.259 . S
O37 Mg28 2.114 . S
O37 C40 1.252 . S
O38 Mg28 2.251 . S
O38 Mg31 2.079 . S
O38 C40 1.273 . S
C39 O35 1.246 . S
C39 O36 1.259 . S
C40 O37 1.252 . S
C40 O38 1.273 . S
O41 Mg28 2.010 . S
O41 C33 1.249 . S
Mg42 O43 2.028 . S
Mg42 O49 1.986 . S
Mg42 O51 2.114 . S
Mg42 O52 2.251 . S
Mg42 O55 2.010 . S
O43 Mg42 2.028 . S
O43 C46 1.250 . S
O44 Mg45 2.028 . S
O44 C46 1.248 . S
Mg45 O44 2.028 . S
Mg45 O50 2.032 . S
Mg45 O52 2.079 . S
C46 O43 1.250 . S
C46 O44 1.248 . S
C47 O48 1.264 . S
C47 O55 1.249 1_455 S
O48 C47 1.264 . S
O49 Mg42 1.986 . S
O49 C53 1.246 . S
O50 Mg45 2.032 . S
O50 C53 1.259 . S
O51 Mg42 2.114 . S
O51 C54 1.252 . S
O52 Mg42 2.251 . S
O52 Mg45 2.079 . S
O52 C54 1.273 . S
C53 O49 1.246 . S
C53 O50 1.259 . S
C54 O51 1.252 . S
C54 O52 1.273 . S
O55 Mg42 2.010 . S
O55 C47 1.249 1_655 S
Mg56 O57 2.028 . S
Mg56 O63 1.986 . S
Mg56 O65 2.114 . S
Mg56 O66 2.251 . S
Mg56 O69 2.010 . S
O57 Mg56 2.028 . S
O57 C60 1.250 . S
O58 Mg59 2.028 . S
O58 C60 1.248 . S
Mg59 O58 2.028 . S
Mg59 O64 2.032 . S
Mg59 O66 2.079 . S
C60 O57 1.250 . S
C60 O58 1.248 . S
C61 O62 1.264 . S
C61 O69 1.249 1_545 S
O62 C61 1.264 . S
O63 Mg56 1.986 . S
O63 C67 1.246 . S
O64 Mg59 2.032 . S
O64 C67 1.259 . S
O65 Mg56 2.114 . S
O65 C68 1.252 . S
O66 Mg56 2.251 . S
O66 Mg59 2.079 . S
O66 C68 1.273 . S
C67 O63 1.246 . S
C67 O64 1.259 . S
C68 O65 1.252 . S
C68 O66 1.273 . S
O69 Mg56 2.010 . S
O69 C61 1.249 1_565 S
Mg70 O71 2.028 . S
Mg70 O77 1.986 . S
Mg70 O79 2.114 . S
Mg70 O80 2.251 . S
Mg70 O83 2.010 . S
O71 Mg70 2.028 . S
O71 C74 1.250 1_556 S
O72 Mg73 2.028 . S
O72 C74 1.248 1_556 S
Mg73 O72 2.028 . S
Mg73 O78 2.032 . S
Mg73 O80 2.079 . S
C74 O71 1.250 1_554 S
C74 O72 1.248 1_554 S
C75 O76 1.264 . S
C75 O83 1.249 . S
O76 C75 1.264 . S
O77 Mg70 1.986 . S
O77 C81 1.246 . S
O78 Mg73 2.032 . S
O78 C81 1.259 . S
O79 Mg70 2.114 . S
O79 C82 1.252 . S
O80 Mg70 2.251 . S
O80 Mg73 2.079 . S
O80 C82 1.273 . S
C81 O77 1.246 . S
C81 O78 1.259 . S
C82 O79 1.252 . S
C82 O80 1.273 . S
O83 Mg70 2.010 . S
O83 C75 1.249 . S
Mg84 O85 2.028 . S
Mg84 O91 1.986 . S
Mg84 O93 2.114 . S
Mg84 O94 2.251 . S
Mg84 O97 2.010 . S
O85 Mg84 2.028 . S
O85 C88 1.250 . S
O86 Mg87 2.028 . S
O86 C88 1.248 . S
Mg87 O86 2.028 . S
Mg87 O92 2.032 . S
Mg87 O94 2.079 . S
C88 O85 1.250 . S
C88 O86 1.248 . S
C89 O90 1.264 . S
C89 O97 1.249 1_545 S
O90 C89 1.264 . S
O91 Mg84 1.986 . S
O91 C95 1.246 . S
O92 Mg87 2.032 . S
O92 C95 1.259 . S
O93 Mg84 2.114 . S
O93 C96 1.252 . S
O94 Mg84 2.251 . S
O94 Mg87 2.079 . S
O94 C96 1.273 . S
C95 O91 1.246 . S
C95 O92 1.259 . S
C96 O93 1.252 . S
C96 O94 1.273 . S
O97 Mg84 2.010 . S
O97 C89 1.249 1_565 S
Mg98 O99 2.028 . S
Mg98 O105 1.986 . S
Mg98 O107 2.114 . S
Mg98 O108 2.251 . S
Mg98 O111 2.010 . S
O99 Mg98 2.028 . S
O99 C102 1.250 . S
O100 Mg101 2.028 . S
O100 C102 1.248 . S
Mg101 O100 2.028 . S
Mg101 O106 2.032 . S
Mg101 O108 2.079 . S
C102 O99 1.250 . S
C102 O100 1.248 . S
C103 O104 1.264 . S
C103 O111 1.249 . S
O104 C103 1.264 . S
O105 Mg98 1.986 . S
O105 C109 1.246 . S
O106 Mg101 2.032 . S
O106 C109 1.259 . S
O107 Mg98 2.114 . S
O107 C110 1.252 . S
O108 Mg98 2.251 . S
O108 Mg101 2.079 . S
O108 C110 1.273 . S
C109 O105 1.246 . S
C109 O106 1.259 . S
C110 O107 1.252 . S
C110 O108 1.273 . S
O111 Mg98 2.010 . S
O111 C103 1.249 . S
Mg112 O113 2.028 . S
Mg112 O119 1.986 . S
Mg112 O121 2.114 . S
Mg112 O122 2.251 . S
Mg112 O125 2.010 . S
O113 Mg112 2.028 . S
O113 C116 1.248 1_554 S
O114 Mg115 2.028 . S
O114 C116 1.245 1_554 S
Mg115 O114 2.028 . S
Mg115 O120 2.032 . S
Mg115 O122 2.079 . S
C116 O113 1.248 1_556 S
C116 O114 1.245 1_556 S
C117 O118 1.264 . S
C117 O125 1.249 1_655 S
O118 C117 1.264 . S
O119 Mg112 1.986 . S
O119 C123 1.246 . S
O120 Mg115 2.032 . S
O120 C123 1.259 . S
O121 Mg112 2.114 . S
O121 C124 1.252 . S
O122 Mg112 2.251 . S
O122 Mg115 2.079 . S
O122 C124 1.273 . S
C123 O119 1.246 . S
C123 O120 1.259 . S
C124 O121 1.252 . S
C124 O122 1.273 . S
O125 Mg112 2.010 . S
O125 C117 1.249 1_455 S
Mg126 O127 2.028 . S
Mg126 O133 1.986 . S
Mg126 O135 2.114 . S
Mg126 O136 2.251 . S
Mg126 O139 2.010 . S
O127 Mg126 2.028 . S
O127 C130 1.250 . S
O128 Mg129 2.028 . S
O128 C130 1.248 . S
Mg129 O128 2.028 . S
Mg129 O134 2.032 . S
Mg129 O136 2.079 . S
C130 O127 1.250 . S
C130 O128 1.248 . S
C131 O132 1.264 . S
C131 O139 1.249 1_565 S
O132 C131 1.264 . S
O133 Mg126 1.986 . S
O133 C137 1.246 . S
O134 Mg129 2.032 . S
O134 C137 1.259 . S
O135 Mg126 2.114 . S
O135 C138 1.252 . S
O136 Mg126 2.251 . S
O136 Mg129 2.079 . S
O136 C138 1.273 . S
C137 O133 1.246 . S
C137 O134 1.259 . S
C138 O135 1.252 . S
C138 O136 1.273 . S
O139 Mg126 2.010 . S
O139 C131 1.249 1_545 S
Mg140 O141 2.028 . S
Mg140 O147 1.986 . S
Mg140 O149 2.114 . S
Mg140 O150 2.251 . S
Mg140 O153 2.010 . S
O141 Mg140 2.028 . S
O141 C144 1.250 . S
O142 Mg143 2.028 . S
O142 C144 1.248 . S
Mg143 O142 2.028 . S
Mg143 O148 2.032 . S
Mg143 O150 2.079 . S
C144 O141 1.250 . S
C144 O142 1.248 . S
C145 O146 1.264 . S
C145 O153 1.249 . S
O146 C145 1.264 . S
O147 Mg140 1.986 . S
O147 C151 1.246 . S
O148 Mg143 2.032 . S
O148 C151 1.259 . S
O149 Mg140 2.114 . S
O149 C152 1.252 . S
O150 Mg140 2.251 . S
O150 Mg143 2.079 . S
O150 C152 1.273 . S
C151 O147 1.246 . S
C151 O148 1.259 . S
C152 O149 1.252 . S
C152 O150 1.273 . S
O153 Mg140 2.010 . S
O153 C145 1.249 . S
Mg154 O155 2.028 . S
Mg154 O161 1.986 . S
Mg154 O163 2.114 . S
Mg154 O164 2.251 . S
Mg154 O167 2.010 . S
O155 Mg154 2.028 . S
O155 C158 1.250 . S
O156 Mg157 2.028 . S
O156 C158 1.248 . S
Mg157 O156 2.028 . S
Mg157 O162 2.032 . S
Mg157 O164 2.079 . S
C158 O155 1.250 . S
C158 O156 1.248 . S
C159 O160 1.264 . S
C159 O167 1.249 1_455 S
O160 C159 1.264 . S
O161 Mg154 1.986 . S
O161 C165 1.246 . S
O162 Mg157 2.032 . S
O162 C165 1.259 . S
O163 Mg154 2.114 . S
O163 C166 1.252 . S
O164 Mg154 2.251 . S
O164 Mg157 2.079 . S
O164 C166 1.273 . S
C165 O161 1.246 . S
C165 O162 1.259 . S
C166 O163 1.252 . S
C166 O164 1.273 . S
O167 Mg154 2.010 . S
O167 C159 1.249 1_655 S
H168 C174 0.930 . S
H169 C177 0.930 . S
H170 C178 0.930 . S
H171 C179 0.930 . S
H172 C182 0.930 . S
H173 C183 0.930 . S
C174 H168 0.930 . S
C174 C175 1.355 . S
C174 C176 1.415 . S
C175 C174 1.355 . S
C175 C177 1.419 . S
C176 C174 1.415 . S
C176 C181 1.425 . S
C176 C183 1.409 . S
C177 H169 0.930 . S
C177 C175 1.419 . S
C177 C178 1.362 . S
C178 H170 0.930 . S
C178 C177 1.362 . S
C178 C181 1.409 . S
C179 H171 0.930 . S
C179 C180 1.355 . S
C179 C181 1.415 . S
C180 C179 1.355 . S
C180 C182 1.419 . S
C181 C176 1.425 . S
C181 C178 1.409 . S
C181 C179 1.415 . S
C182 H172 0.930 . S
C182 C180 1.419 . S
C182 C183 1.362 . S
C183 H173 0.930 . S
C183 C176 1.409 . S
C183 C182 1.362 . S
H184 C190 0.930 . S
H185 C193 0.930 . S
H186 C194 0.930 . S
H187 C195 0.930 . S
H188 C198 0.930 . S
H189 C199 0.930 . S
C190 H184 0.930 . S
C190 C191 1.355 . S
C190 C192 1.415 . S
C191 C190 1.355 . S
C191 C193 1.419 . S
C192 C190 1.415 . S
C192 C197 1.425 . S
C192 C199 1.409 . S
C193 H185 0.930 . S
C193 C191 1.419 . S
C193 C194 1.362 . S
C194 H186 0.930 . S
C194 C193 1.362 . S
C194 C197 1.409 . S
C195 H187 0.930 . S
C195 C196 1.355 . S
C195 C197 1.415 . S
C196 C195 1.355 . S
C196 C198 1.419 . S
C197 C192 1.425 . S
C197 C194 1.409 . S
C197 C195 1.415 . S
C198 H188 0.930 . S
C198 C196 1.419 . S
C198 C199 1.362 . S
C199 H189 0.930 . S
C199 C192 1.409 . S
C199 C198 1.362 . S
H200 C206 0.930 . S
H201 C209 0.930 . S
H202 C210 0.930 . S
H203 C211 0.930 . S
H204 C214 0.930 . S
H205 C215 0.930 . S
C206 H200 0.930 . S
C206 C207 1.355 . S
C206 C208 1.415 . S
C207 C206 1.355 . S
C207 C209 1.419 . S
C208 C206 1.415 . S
C208 C213 1.425 . S
C208 C215 1.409 . S
C209 H201 0.930 . S
C209 C207 1.419 . S
C209 C210 1.362 . S
C210 H202 0.930 . S
C210 C209 1.362 . S
C210 C213 1.409 . S
C211 H203 0.930 . S
C211 C212 1.355 . S
C211 C213 1.415 . S
C212 C211 1.355 . S
C212 C214 1.419 . S
C213 C208 1.425 . S
C213 C210 1.409 . S
C213 C211 1.415 . S
C214 H204 0.930 . S
C214 C212 1.419 . S
C214 C215 1.362 . S
C215 H205 0.930 . S
C215 C208 1.409 . S
C215 C214 1.362 . S
H216 C222 0.930 . S
H217 C225 0.930 . S
H218 C226 0.930 . S
H219 C227 0.930 . S
H220 C230 0.930 . S
H221 C231 0.930 . S
C222 H216 0.930 . S
C222 C223 1.355 . S
C222 C224 1.415 . S
C223 C222 1.355 . S
C223 C225 1.419 . S
C224 C222 1.415 . S
C224 C229 1.425 . S
C224 C231 1.409 . S
C225 H217 0.930 . S
C225 C223 1.419 . S
C225 C226 1.362 . S
C226 H218 0.930 . S
C226 C225 1.362 . S
C226 C229 1.409 . S
C227 H219 0.930 . S
C227 C228 1.355 . S
C227 C229 1.415 . S
C228 C227 1.355 . S
C228 C230 1.419 . S
C229 C224 1.425 . S
C229 C226 1.409 . S
C229 C227 1.415 . S
C230 H220 0.930 . S
C230 C228 1.419 . S
C230 C231 1.362 . S
C231 H221 0.930 . S
C231 C224 1.409 . S
C231 C230 1.362 . S
H232 C238 0.930 . S
H233 C241 0.930 . S
H234 C242 0.930 . S
H235 C243 0.930 . S
H236 C246 0.930 . S
H237 C247 0.930 . S
C238 H232 0.930 . S
C238 C239 1.355 . S
C238 C240 1.415 . S
C239 C238 1.355 . S
C239 C241 1.419 . S
C240 C238 1.415 . S
C240 C245 1.425 . S
C240 C247 1.409 . S
C241 H233 0.930 . S
C241 C239 1.419 . S
C241 C242 1.362 . S
C242 H234 0.930 . S
C242 C241 1.362 . S
C242 C245 1.409 . S
C243 H235 0.930 . S
C243 C244 1.355 . S
C243 C245 1.415 . S
C244 C243 1.355 . S
C244 C246 1.419 . S
C245 C240 1.425 . S
C245 C242 1.409 . S
C245 C243 1.415 . S
C246 H236 0.930 . S
C246 C244 1.419 . S
C246 C247 1.362 . S
C247 H237 0.930 . S
C247 C240 1.409 . S
C247 C246 1.362 . S
H248 C254 0.930 . S
H249 C257 0.930 . S
H250 C258 0.930 . S
H251 C259 0.930 . S
H252 C262 0.930 . S
H253 C263 0.930 . S
C254 H248 0.930 . S
C254 C255 1.355 . S
C254 C256 1.415 . S
C255 C254 1.355 . S
C255 C257 1.419 . S
C256 C254 1.415 . S
C256 C261 1.425 . S
C256 C263 1.409 . S
C257 H249 0.930 . S
C257 C255 1.419 . S
C257 C258 1.362 . S
C258 H250 0.930 . S
C258 C257 1.362 . S
C258 C261 1.409 . S
C259 H251 0.930 . S
C259 C260 1.355 . S
C259 C261 1.415 . S
C260 C259 1.355 . S
C260 C262 1.419 . S
C261 C256 1.425 . S
C261 C258 1.409 . S
C261 C259 1.415 . S
C262 H252 0.930 . S
C262 C260 1.419 . S
C262 C263 1.362 . S
C263 H253 0.930 . S
C263 C256 1.409 . S
C263 C262 1.362 . S
H264 C270 0.930 . S
H265 C273 0.930 . S
H266 C274 0.930 . S
H267 C275 0.930 . S
H268 C278 0.930 . S
H269 C279 0.930 . S
C270 H264 0.930 . S
C270 C271 1.355 . S
C270 C272 1.415 . S
C271 C270 1.355 . S
C271 C273 1.419 . S
C272 C270 1.415 . S
C272 C277 1.425 . S
C272 C279 1.409 1_554 S
C273 H265 0.930 . S
C273 C271 1.419 . S
C273 C274 1.362 . S
C274 H266 0.930 . S
C274 C273 1.362 . S
C274 C277 1.409 . S
C275 H267 0.930 . S
C275 C276 1.355 1_554 S
C275 C277 1.415 . S
C276 C275 1.355 1_556 S
C276 C278 1.419 . S
C277 C272 1.425 . S
C277 C274 1.409 . S
C277 C275 1.415 . S
C278 H268 0.930 . S
C278 C276 1.419 . S
C278 C279 1.362 . S
C279 H269 0.930 . S
C279 C272 1.409 1_556 S
C279 C278 1.362 . S
H280 C286 0.930 . S
H281 C289 0.930 . S
H282 C290 0.930 . S
H283 C291 0.930 . S
H284 C294 0.930 . S
H285 C295 0.930 . S
C286 H280 0.930 . S
C286 C287 1.355 . S
C286 C288 1.415 . S
C287 C286 1.355 . S
C287 C289 1.419 . S
C288 C286 1.415 . S
C288 C293 1.425 . S
C288 C295 1.409 . S
C289 H281 0.930 . S
C289 C287 1.419 . S
C289 C290 1.362 . S
C290 H282 0.930 . S
C290 C289 1.362 . S
C290 C293 1.409 . S
C291 H283 0.930 . S
C291 C292 1.355 . S
C291 C293 1.415 . S
C292 C291 1.355 . S
C292 C294 1.419 . S
C293 C288 1.425 . S
C293 C290 1.409 . S
C293 C291 1.415 . S
C294 H284 0.930 . S
C294 C292 1.419 . S
C294 C295 1.362 . S
C295 H285 0.930 . S
C295 C288 1.409 . S
C295 C294 1.362 . S
H296 C302 0.930 . S
H297 C305 0.930 . S
H298 C306 0.930 . S
H299 C307 0.930 . S
H300 C310 0.930 . S
H301 C311 0.930 . S
C302 H296 0.930 . S
C302 C303 1.355 . S
C302 C304 1.415 . S
C303 C302 1.355 . S
C303 C305 1.419 . S
C304 C302 1.415 . S
C304 C309 1.425 . S
C304 C311 1.409 . S
C305 H297 0.930 . S
C305 C303 1.419 . S
C305 C306 1.362 . S
C306 H298 0.930 . S
C306 C305 1.362 . S
C306 C309 1.409 . S
C307 H299 0.930 . S
C307 C308 1.355 . S
C307 C309 1.415 . S
C308 C307 1.355 . S
C308 C310 1.419 . S
C309 C304 1.425 . S
C309 C306 1.409 . S
C309 C307 1.415 . S
C310 H300 0.930 . S
C310 C308 1.419 . S
C310 C311 1.362 . S
C311 H301 0.930 . S
C311 C304 1.409 . S
C311 C310 1.362 . S
H312 C318 0.930 . S
H313 C321 0.930 . S
H314 C322 0.930 . S
H315 C323 0.930 . S
H316 C326 0.930 . S
H317 C327 0.930 . S
C318 H312 0.930 . S
C318 C319 1.355 . S
C318 C320 1.415 . S
C319 C318 1.355 . S
C319 C321 1.419 . S
C320 C318 1.415 . S
C320 C325 1.425 . S
C320 C327 1.409 . S
C321 H313 0.930 . S
C321 C319 1.419 . S
C321 C322 1.362 . S
C322 H314 0.930 . S
C322 C321 1.362 . S
C322 C325 1.409 . S
C323 H315 0.930 . S
C323 C324 1.355 . S
C323 C325 1.415 . S
C324 C323 1.355 . S
C324 C326 1.419 . S
C325 C320 1.425 . S
C325 C322 1.409 . S
C325 C323 1.415 . S
C326 H316 0.930 . S
C326 C324 1.419 . S
C326 C327 1.362 . S
C327 H317 0.930 . S
C327 C320 1.409 . S
C327 C326 1.362 . S
H328 C334 0.930 . S
H329 C337 0.930 . S
H330 C338 0.930 . S
H331 C339 0.930 . S
H332 C342 0.930 . S
H333 C343 0.930 . S
C334 H328 0.930 . S
C334 C335 1.355 . S
C334 C336 1.415 . S
C335 C334 1.355 . S
C335 C337 1.419 . S
C336 C334 1.415 . S
C336 C341 1.425 . S
C336 C343 1.409 . S
C337 H329 0.930 . S
C337 C335 1.419 . S
C337 C338 1.362 . S
C338 H330 0.930 . S
C338 C337 1.362 . S
C338 C341 1.409 . S
C339 H331 0.930 . S
C339 C340 1.355 . S
C339 C341 1.415 . S
C340 C339 1.355 . S
C340 C342 1.419 . S
C341 C336 1.425 . S
C341 C338 1.409 . S
C341 C339 1.415 . S
C342 H332 0.930 . S
C342 C340 1.419 . S
C342 C343 1.362 . S
C343 H333 0.930 . S
C343 C336 1.409 . S
C343 C342 1.362 . S
H344 C350 0.930 . S
H345 C353 0.930 . S
H346 C354 0.930 . S
H347 C355 0.930 . S
H348 C358 0.930 . S
H349 C359 0.930 . S
C350 H344 0.930 . S
C350 C351 1.355 . S
C350 C352 1.415 . S
C351 C350 1.355 . S
C351 C353 1.419 . S
C352 C350 1.415 . S
C352 C357 1.425 . S
C352 C359 1.409 . S
C353 H345 0.930 . S
C353 C351 1.419 . S
C353 C354 1.362 . S
C354 H346 0.930 . S
C354 C353 1.362 . S
C354 C357 1.409 . S
C355 H347 0.930 . S
C355 C356 1.355 . S
C355 C357 1.415 . S
C356 C355 1.355 . S
C356 C358 1.419 . S
C357 C352 1.425 . S
C357 C354 1.409 . S
C357 C355 1.415 . S
C358 H348 0.930 . S
C358 C356 1.419 . S
C358 C359 1.362 . S
C359 H349 0.930 . S
C359 C352 1.409 . S
C359 C358 1.362 . S
H360 C366 0.930 . S
H361 C369 0.930 . S
H362 C370 0.930 . S
H363 C371 0.930 . S
H364 C374 0.930 . S
H365 C375 0.930 . S
C366 H360 0.930 . S
C366 C367 1.355 . S
C366 C368 1.415 . S
C367 C366 1.355 . S
C367 C369 1.419 . S
C368 C366 1.415 . S
C368 C373 1.425 . S
C368 C375 1.409 . S
C369 H361 0.930 . S
C369 C367 1.419 . S
C369 C370 1.362 . S
C370 H362 0.930 . S
C370 C369 1.362 . S
C370 C373 1.409 . S
C371 H363 0.930 . S
C371 C372 1.355 . S
C371 C373 1.415 . S
C372 C371 1.355 . S
C372 C374 1.419 . S
C373 C368 1.425 . S
C373 C370 1.409 . S
C373 C371 1.415 . S
C374 H364 0.930 . S
C374 C372 1.419 . S
C374 C375 1.362 . S
C375 H365 0.930 . S
C375 C368 1.409 . S
C375 C374 1.362 . S
H376 C382 0.930 . S
H377 C385 0.930 . S
H378 C386 0.930 . S
H379 C387 0.930 . S
H380 C390 0.915 1_455 S
H381 C391 0.930 . S
C382 H376 0.930 . S
C382 C383 1.355 . S
C382 C384 1.415 . S
C383 C382 1.355 . S
C383 C385 1.419 . S
C384 C382 1.415 . S
C384 C389 1.425 . S
C384 C391 1.409 . S
C385 H377 0.930 . S
C385 C383 1.419 . S
C385 C386 1.362 1_556 S
C386 H378 0.930 . S
C386 C385 1.362 1_554 S
C386 C389 1.409 1_554 S
C387 H379 0.930 . S
C387 C388 1.355 . S
C387 C389 1.415 1_554 S
C388 C387 1.355 . S
C388 C390 1.419 1_554 S
C389 C384 1.425 . S
C389 C386 1.409 1_556 S
C389 C387 1.415 1_556 S
C390 H380 0.915 1_655 S
C390 C388 1.419 1_556 S
C390 C391 1.362 . S
C391 H381 0.930 . S
C391 C384 1.409 . S
C391 C390 1.362 . S
H392 C398 0.930 . S
H393 C401 0.930 . S
H394 C402 0.930 . S
H395 C403 0.930 . S
H396 C406 0.930 . S
H397 C407 0.930 . S
C398 H392 0.930 . S
C398 C399 1.355 . S
C398 C400 1.415 . S
C399 C398 1.355 . S
C399 C401 1.419 . S
C400 C398 1.415 . S
C400 C405 1.425 . S
C400 C407 1.409 . S
C401 H393 0.930 . S
C401 C399 1.419 . S
C401 C402 1.362 . S
C402 H394 0.930 . S
C402 C401 1.362 . S
C402 C405 1.409 . S
C403 H395 0.930 . S
C403 C404 1.355 . S
C403 C405 1.415 . S
C404 C403 1.355 . S
C404 C406 1.419 . S
C405 C400 1.425 . S
C405 C402 1.409 . S
C405 C403 1.415 . S
C406 H396 0.930 . S
C406 C404 1.419 . S
C406 C407 1.362 . S
C407 H397 0.930 . S
C407 C400 1.409 . S
C407 C406 1.362 . S
H408 C414 0.930 . S
H409 C417 0.930 . S
H410 C418 0.930 . S
H411 C419 0.930 . S
H412 C422 0.930 . S
H413 C423 0.930 . S
C414 H408 0.930 . S
C414 C415 1.355 . S
C414 C416 1.415 . S
C415 C414 1.355 . S
C415 C417 1.419 . S
C416 C414 1.415 . S
C416 C421 1.425 . S
C416 C423 1.409 . S
C417 H409 0.930 . S
C417 C415 1.419 . S
C417 C418 1.362 . S
C418 H410 0.930 . S
C418 C417 1.362 . S
C418 C421 1.409 . S
C419 H411 0.930 . S
C419 C420 1.355 . S
C419 C421 1.415 . S
C420 C419 1.355 . S
C420 C422 1.419 . S
C421 C416 1.425 . S
C421 C418 1.409 . S
C421 C419 1.415 . S
C422 H412 0.930 . S
C422 C420 1.419 . S
C422 C423 1.362 . S
C423 H413 0.930 . S
C423 C416 1.409 . S
C423 C422 1.362 . S
H424 C430 0.930 . S
H425 C433 0.930 . S
H426 C434 0.930 . S
H427 C435 0.930 . S
H428 C438 0.930 1_655 S
H429 C439 0.930 . S
C430 H424 0.930 . S
C430 C431 1.355 . S
C430 C432 1.415 . S
C431 C430 1.355 . S
C431 C433 1.419 . S
C432 C430 1.415 . S
C432 C437 1.425 . S
C432 C439 1.409 . S
C433 H425 0.930 . S
C433 C431 1.419 . S
C433 C434 1.362 . S
C434 H426 0.930 . S
C434 C433 1.362 . S
C434 C437 1.409 . S
C435 H427 0.930 . S
C435 C436 1.355 . S
C435 C437 1.415 . S
C436 C435 1.355 . S
C436 C438 1.419 . S
C437 C432 1.425 . S
C437 C434 1.409 . S
C437 C435 1.415 . S
C438 H428 0.930 1_455 S
C438 C436 1.419 . S
C438 C439 1.362 . S
C439 H429 0.930 . S
C439 C432 1.409 . S
C439 C438 1.362 . S
H440 C446 0.930 . S
H441 C449 0.930 . S
H442 C450 0.930 . S
H443 C451 0.930 . S
H444 C454 0.930 . S
H445 C455 0.930 . S
C446 H440 0.930 . S
C446 C447 1.355 . S
C446 C448 1.415 . S
C447 C446 1.355 . S
C447 C449 1.419 . S
C448 C446 1.415 . S
C448 C453 1.425 . S
C448 C455 1.409 . S
C449 H441 0.930 . S
C449 C447 1.419 . S
C449 C450 1.362 . S
C450 H442 0.930 . S
C450 C449 1.362 . S
C450 C453 1.409 . S
C451 H443 0.930 . S
C451 C452 1.355 . S
C451 C453 1.415 . S
C452 C451 1.355 . S
C452 C454 1.419 . S
C453 C448 1.425 . S
C453 C450 1.409 . S
C453 C451 1.415 . S
C454 H444 0.930 . S
C454 C452 1.419 . S
C454 C455 1.362 . S
C455 H445 0.930 . S
C455 C448 1.409 . S
C455 C454 1.362 . S
H456 C462 0.930 . S
H457 C465 0.930 . S
H458 C466 0.930 . S
H459 C467 0.930 . S
H460 C470 0.930 . S
H461 C471 0.930 . S
C462 H456 0.930 . S
C462 C463 1.355 . S
C462 C464 1.415 . S
C463 C462 1.355 . S
C463 C465 1.419 . S
C464 C462 1.415 . S
C464 C469 1.425 . S
C464 C471 1.409 . S
C465 H457 0.930 . S
C465 C463 1.419 . S
C465 C466 1.362 . S
C466 H458 0.930 . S
C466 C465 1.362 . S
C466 C469 1.409 . S
C467 H459 0.930 . S
C467 C468 1.355 . S
C467 C469 1.415 . S
C468 C467 1.355 . S
C468 C470 1.419 . S
C469 C464 1.425 . S
C469 C466 1.409 . S
C469 C467 1.415 . S
C470 H460 0.930 . S
C470 C468 1.419 . S
C470 C471 1.362 . S
C471 H461 0.930 . S
C471 C464 1.409 . S
C471 C470 1.362 . S
H472 C478 0.930 . S
H473 C481 0.930 . S
H474 C482 0.930 . S
H475 C483 0.930 . S
H476 C486 0.930 . S
H477 C487 0.930 . S
C478 H472 0.930 . S
C478 C479 1.355 . S
C478 C480 1.415 . S
C479 C478 1.355 . S
C479 C481 1.419 . S
C480 C478 1.415 . S
C480 C485 1.425 . S
C480 C487 1.409 . S
C481 H473 0.930 . S
C481 C479 1.419 . S
C481 C482 1.362 . S
C482 H474 0.930 . S
C482 C481 1.362 . S
C482 C485 1.409 . S
C483 H475 0.930 . S
C483 C484 1.355 . S
C483 C485 1.415 . S
C484 C483 1.355 . S
C484 C486 1.419 . S
C485 C480 1.425 . S
C485 C482 1.409 . S
C485 C483 1.415 . S
C486 H476 0.930 . S
C486 C484 1.419 . S
C486 C487 1.362 . S
C487 H477 0.930 . S
C487 C480 1.409 . S
C487 C486 1.362 . S
H488 C494 0.930 . S
H489 C497 0.930 . S
H490 C498 0.930 . S
H491 C499 0.930 . S
H492 C502 0.930 . S
H493 C503 0.930 . S
C494 H488 0.930 . S
C494 C495 1.355 . S
C494 C496 1.415 . S
C495 C494 1.355 . S
C495 C497 1.419 . S
C496 C494 1.415 . S
C496 C501 1.425 . S
C496 C503 1.409 . S
C497 H489 0.930 . S
C497 C495 1.419 . S
C497 C498 1.362 . S
C498 H490 0.930 . S
C498 C497 1.362 . S
C498 C501 1.409 . S
C499 H491 0.930 . S
C499 C500 1.355 . S
C499 C501 1.415 . S
C500 C499 1.355 . S
C500 C502 1.419 . S
C501 C496 1.425 . S
C501 C498 1.409 . S
C501 C499 1.415 . S
C502 H492 0.930 . S
C502 C500 1.419 . S
C502 C503 1.362 . S
C503 H493 0.930 . S
C503 C496 1.409 . S
C503 C502 1.362 . S
H504 C510 0.930 . S
H505 C513 0.930 . S
H506 C514 0.930 . S
H507 C515 0.930 . S
H508 C518 0.930 . S
H509 C519 0.930 . S
C510 H504 0.930 . S
C510 C511 1.355 . S
C510 C512 1.415 . S
C511 C510 1.355 . S
C511 C513 1.419 . S
C512 C510 1.415 . S
C512 C517 1.425 . S
C512 C519 1.409 . S
C513 H505 0.930 . S
C513 C511 1.419 . S
C513 C514 1.362 . S
C514 H506 0.930 . S
C514 C513 1.362 . S
C514 C517 1.409 . S
C515 H507 0.930 . S
C515 C516 1.355 . S
C515 C517 1.415 . S
C516 C515 1.355 . S
C516 C518 1.419 . S
C517 C512 1.425 . S
C517 C514 1.409 . S
C517 C515 1.415 . S
C518 H508 0.930 . S
C518 C516 1.419 . S
C518 C519 1.362 . S
C519 H509 0.930 . S
C519 C512 1.409 . S
C519 C518 1.362 . S
H520 C526 0.930 . S
H521 C529 0.930 . S
H522 C530 0.930 . S
H523 C531 0.930 . S
H524 C534 0.930 . S
H525 C535 0.930 . S
C526 H520 0.930 . S
C526 C527 1.355 . S
C526 C528 1.415 . S
C527 C526 1.355 . S
C527 C529 1.419 . S
C528 C526 1.415 . S
C528 C533 1.425 . S
C528 C535 1.409 . S
C529 H521 0.930 . S
C529 C527 1.419 . S
C529 C530 1.362 . S
C530 H522 0.930 . S
C530 C529 1.362 . S
C530 C533 1.409 . S
C531 H523 0.930 . S
C531 C532 1.355 . S
C531 C533 1.415 . S
C532 C531 1.355 . S
C532 C534 1.419 . S
C533 C528 1.425 . S
C533 C530 1.409 . S
C533 C531 1.415 . S
C534 H524 0.930 . S
C534 C532 1.419 . S
C534 C535 1.362 . S
C535 H525 0.930 . S
C535 C528 1.409 . S
C535 C534 1.362 . S
H536 C542 0.930 . S
H537 C545 0.930 . S
H538 C546 0.930 . S
H539 C547 0.930 . S
H540 C550 0.930 . S
H541 C551 0.930 . S
C542 H536 0.930 . S
C542 C543 1.355 . S
C542 C544 1.415 . S
C543 C542 1.355 . S
C543 C545 1.419 . S
C544 C542 1.415 . S
C544 C549 1.425 . S
C544 C551 1.409 . S
C545 H537 0.930 . S
C545 C543 1.419 . S
C545 C546 1.362 . S
C546 H538 0.930 . S
C546 C545 1.362 . S
C546 C549 1.409 . S
C547 H539 0.930 . S
C547 C548 1.355 . S
C547 C549 1.415 . S
C548 C547 1.355 . S
C548 C550 1.419 . S
C549 C544 1.425 . S
C549 C546 1.409 . S
C549 C547 1.415 . S
C550 H540 0.930 . S
C550 C548 1.419 . S
C550 C551 1.362 . S
C551 H541 0.930 . S
C551 C544 1.409 . S
C551 C550 1.362 . S
C175 C123 1.376 . S
C180 C11 1.337 . S
C191 C25 1.364 . S
C196 C137 1.364 . S
C207 C39 1.376 . S
C212 C151 1.337 . S
C223 C53 1.381 . S
C228 C165 1.339 . S
C239 C95 1.376 . S
C244 C67 1.350 . S
C255 C81 1.354 . S
C260 C109 1.372 . S
C271 C12 1.390 . S
C276 C75 1.226 . S
C287 C26 1.383 . S
C292 C5 1.273 . S
C303 C40 1.411 . S
C308 C19 1.315 . S
C319 C33 1.300 . S
C324 C54 1.410 . S
C335 C47 1.295 . S
C340 C68 1.410 . S
C351 C61 1.240 . S
C356 C82 1.397 . S
C367 C103 1.341 . S
C372 C96 1.406 . S
C383 C110 1.405 . S
C388 C117 1.341 . S
C399 C131 1.310 . S
C404 C124 1.411 . S
C415 C138 1.389 . S
C420 C145 1.304 . S
C431 C152 1.397 . S
C436 C159 1.327 . S
C447 C166 1.383 . S
C452 C89 1.225 . S
C463 C144 1.286 . S
C468 C4 1.266 . S
C479 C158 1.266 . S
C484 C18 1.251 . S
C495 C88 1.294 . S
C500 C32 1.303 . S
C511 C46 1.304 . S
C516 C102 1.298 . S
C527 C60 1.282 . S
C532 C116 1.267 . S
C543 C130 1.293 . S
C548 C74 1.303 . S
