# Generated by pormake.
# Topology wlr, (5)-cn, num edge types: 1
# Building blocks:
#     Node 0, Type 0, BuildingBlock: XOMCOT_clean_sbu_0, # of connection points: 5
#     Node 1, Type 0, BuildingBlock: XOMCOT_clean_sbu_0, # of connection points: 5
#     Node 2, Type 0, BuildingBlock: XOMCOT_clean_sbu_0, # of connection points: 5
#     Node 3, Type 0, BuildingBlock: XOMCOT_clean_sbu_0, # of connection points: 5
#     Node 4, Type 0, BuildingBlock: XOMCOT_clean_sbu_0, # of connection points: 5
#     Node 5, Type 0, BuildingBlock: XOMCOT_clean_sbu_0, # of connection points: 5
#     Node 6, Type 0, BuildingBlock: XOMCOT_clean_sbu_0, # of connection points: 5
#     Node 7, Type 0, BuildingBlock: XOMCOT_clean_sbu_0, # of connection points: 5
#     Node 8, Type 0, BuildingBlock: XOMCOT_clean_sbu_0, # of connection points: 5
#     Node 9, Type 0, BuildingBlock: XOMCOT_clean_sbu_0, # of connection points: 5
#     Node 10, Type 0, BuildingBlock: XOMCOT_clean_sbu_0, # of connection points: 5
#     Node 11, Type 0, BuildingBlock: XOMCOT_clean_sbu_0, # of connection points: 5
#     Node 12, Type 0, BuildingBlock: XOMCOT_clean_sbu_0, # of connection points: 5
#     Node 13, Type 0, BuildingBlock: XOMCOT_clean_sbu_0, # of connection points: 5
#     Node 14, Type 0, BuildingBlock: XOMCOT_clean_sbu_0, # of connection points: 5
#     Node 15, Type 0, BuildingBlock: XOMCOT_clean_sbu_0, # of connection points: 5
#     Node 16, Type 0, BuildingBlock: XOMCOT_clean_sbu_0, # of connection points: 5
#     Node 17, Type 0, BuildingBlock: XOMCOT_clean_sbu_0, # of connection points: 5
#     Node 18, Type 0, BuildingBlock: XOMCOT_clean_sbu_0, # of connection points: 5
#     Node 19, Type 0, BuildingBlock: XOMCOT_clean_sbu_0, # of connection points: 5
#     Node 20, Type 0, BuildingBlock: XOMCOT_clean_sbu_0, # of connection points: 5
#     Node 21, Type 0, BuildingBlock: XOMCOT_clean_sbu_0, # of connection points: 5
#     Node 22, Type 0, BuildingBlock: XOMCOT_clean_sbu_0, # of connection points: 5
#     Node 23, Type 0, BuildingBlock: XOMCOT_clean_sbu_0, # of connection points: 5
#     Node 24, Type 0, BuildingBlock: XOMCOT_clean_sbu_0, # of connection points: 5
#     Node 25, Type 0, BuildingBlock: XOMCOT_clean_sbu_0, # of connection points: 5
#     Node 26, Type 0, BuildingBlock: XOMCOT_clean_sbu_0, # of connection points: 5
#     Node 27, Type 0, BuildingBlock: XOMCOT_clean_sbu_0, # of connection points: 5
#     Node 28, Type 0, BuildingBlock: XOMCOT_clean_sbu_0, # of connection points: 5
#     Node 29, Type 0, BuildingBlock: XOMCOT_clean_sbu_0, # of connection points: 5
#     Node 30, Type 0, BuildingBlock: XOMCOT_clean_sbu_0, # of connection points: 5
#     Node 31, Type 0, BuildingBlock: XOMCOT_clean_sbu_0, # of connection points: 5
#     Node 32, Type 0, BuildingBlock: XOMCOT_clean_sbu_0, # of connection points: 5
#     Node 33, Type 0, BuildingBlock: XOMCOT_clean_sbu_0, # of connection points: 5
#     Node 34, Type 0, BuildingBlock: XOMCOT_clean_sbu_0, # of connection points: 5
#     Node 35, Type 0, BuildingBlock: XOMCOT_clean_sbu_0, # of connection points: 5
#     Edge 36, Type (0, 0), BuildingBlock: ZUJKAS_clean_linker_0, # of connection points: 2
#     Edge 37, Type (0, 0), BuildingBlock: ZUJKAS_clean_linker_0, # of connection points: 2
#     Edge 38, Type (0, 0), BuildingBlock: ZUJKAS_clean_linker_0, # of connection points: 2
#     Edge 39, Type (0, 0), BuildingBlock: ZUJKAS_clean_linker_0, # of connection points: 2
#     Edge 40, Type (0, 0), BuildingBlock: ZUJKAS_clean_linker_0, # of connection points: 2
#     Edge 41, Type (0, 0), BuildingBlock: ZUJKAS_clean_linker_0, # of connection points: 2
#     Edge 42, Type (0, 0), BuildingBlock: ZUJKAS_clean_linker_0, # of connection points: 2
#     Edge 43, Type (0, 0), BuildingBlock: ZUJKAS_clean_linker_0, # of connection points: 2
#     Edge 44, Type (0, 0), BuildingBlock: ZUJKAS_clean_linker_0, # of connection points: 2
#     Edge 45, Type (0, 0), BuildingBlock: ZUJKAS_clean_linker_0, # of connection points: 2
#     Edge 46, Type (0, 0), BuildingBlock: ZUJKAS_clean_linker_0, # of connection points: 2
#     Edge 47, Type (0, 0), BuildingBlock: ZUJKAS_clean_linker_0, # of connection points: 2
#     Edge 48, Type (0, 0), BuildingBlock: ZUJKAS_clean_linker_0, # of connection points: 2
#     Edge 49, Type (0, 0), BuildingBlock: ZUJKAS_clean_linker_0, # of connection points: 2
#     Edge 50, Type (0, 0), BuildingBlock: ZUJKAS_clean_linker_0, # of connection points: 2
#     Edge 51, Type (0, 0), BuildingBlock: ZUJKAS_clean_linker_0, # of connection points: 2
#     Edge 52, Type (0, 0), BuildingBlock: ZUJKAS_clean_linker_0, # of connection points: 2
#     Edge 53, Type (0, 0), BuildingBlock: ZUJKAS_clean_linker_0, # of connection points: 2
#     Edge 54, Type (0, 0), BuildingBlock: ZUJKAS_clean_linker_0, # of connection points: 2
#     Edge 55, Type (0, 0), BuildingBlock: ZUJKAS_clean_linker_0, # of connection points: 2
#     Edge 56, Type (0, 0), BuildingBlock: ZUJKAS_clean_linker_0, # of connection points: 2
#     Edge 57, Type (0, 0), BuildingBlock: ZUJKAS_clean_linker_0, # of connection points: 2
#     Edge 58, Type (0, 0), BuildingBlock: ZUJKAS_clean_linker_0, # of connection points: 2
#     Edge 59, Type (0, 0), BuildingBlock: ZUJKAS_clean_linker_0, # of connection points: 2
#     Edge 60, Type (0, 0), BuildingBlock: ZUJKAS_clean_linker_0, # of connection points: 2
#     Edge 61, Type (0, 0), BuildingBlock: ZUJKAS_clean_linker_0, # of connection points: 2
#     Edge 62, Type (0, 0), BuildingBlock: ZUJKAS_clean_linker_0, # of connection points: 2
#     Edge 63, Type (0, 0), BuildingBlock: ZUJKAS_clean_linker_0, # of connection points: 2
#     Edge 64, Type (0, 0), BuildingBlock: ZUJKAS_clean_linker_0, # of connection points: 2
#     Edge 65, Type (0, 0), BuildingBlock: ZUJKAS_clean_linker_0, # of connection points: 2
#     Edge 66, Type (0, 0), BuildingBlock: ZUJKAS_clean_linker_0, # of connection points: 2
#     Edge 67, Type (0, 0), BuildingBlock: ZUJKAS_clean_linker_0, # of connection points: 2
#     Edge 68, Type (0, 0), BuildingBlock: ZUJKAS_clean_linker_0, # of connection points: 2
#     Edge 69, Type (0, 0), BuildingBlock: ZUJKAS_clean_linker_0, # of connection points: 2
#     Edge 70, Type (0, 0), BuildingBlock: ZUJKAS_clean_linker_0, # of connection points: 2
#     Edge 71, Type (0, 0), BuildingBlock: ZUJKAS_clean_linker_0, # of connection points: 2
#     Edge 72, Type (0, 0), BuildingBlock: ZUJKAS_clean_linker_0, # of connection points: 2
#     Edge 73, Type (0, 0), BuildingBlock: ZUJKAS_clean_linker_0, # of connection points: 2
#     Edge 74, Type (0, 0), BuildingBlock: ZUJKAS_clean_linker_0, # of connection points: 2
#     Edge 75, Type (0, 0), BuildingBlock: ZUJKAS_clean_linker_0, # of connection points: 2
#     Edge 76, Type (0, 0), BuildingBlock: ZUJKAS_clean_linker_0, # of connection points: 2
#     Edge 77, Type (0, 0), BuildingBlock: ZUJKAS_clean_linker_0, # of connection points: 2
#     Edge 78, Type (0, 0), BuildingBlock: ZUJKAS_clean_linker_0, # of connection points: 2
#     Edge 79, Type (0, 0), BuildingBlock: ZUJKAS_clean_linker_0, # of connection points: 2
#     Edge 80, Type (0, 0), BuildingBlock: ZUJKAS_clean_linker_0, # of connection points: 2
#     Edge 81, Type (0, 0), BuildingBlock: ZUJKAS_clean_linker_0, # of connection points: 2
#     Edge 82, Type (0, 0), BuildingBlock: ZUJKAS_clean_linker_0, # of connection points: 2
#     Edge 83, Type (0, 0), BuildingBlock: ZUJKAS_clean_linker_0, # of connection points: 2
#     Edge 84, Type (0, 0), BuildingBlock: ZUJKAS_clean_linker_0, # of connection points: 2
#     Edge 85, Type (0, 0), BuildingBlock: ZUJKAS_clean_linker_0, # of connection points: 2
#     Edge 86, Type (0, 0), BuildingBlock: ZUJKAS_clean_linker_0, # of connection points: 2
#     Edge 87, Type (0, 0), BuildingBlock: ZUJKAS_clean_linker_0, # of connection points: 2
#     Edge 88, Type (0, 0), BuildingBlock: ZUJKAS_clean_linker_0, # of connection points: 2
#     Edge 89, Type (0, 0), BuildingBlock: ZUJKAS_clean_linker_0, # of connection points: 2
#     Edge 90, Type (0, 0), BuildingBlock: ZUJKAS_clean_linker_0, # of connection points: 2
#     Edge 91, Type (0, 0), BuildingBlock: ZUJKAS_clean_linker_0, # of connection points: 2
#     Edge 92, Type (0, 0), BuildingBlock: ZUJKAS_clean_linker_0, # of connection points: 2
#     Edge 93, Type (0, 0), BuildingBlock: ZUJKAS_clean_linker_0, # of connection points: 2
#     Edge 94, Type (0, 0), BuildingBlock: ZUJKAS_clean_linker_0, # of connection points: 2
#     Edge 95, Type (0, 0), BuildingBlock: ZUJKAS_clean_linker_0, # of connection points: 2
#     Edge 96, Type (0, 0), BuildingBlock: ZUJKAS_clean_linker_0, # of connection points: 2
#     Edge 97, Type (0, 0), BuildingBlock: ZUJKAS_clean_linker_0, # of connection points: 2
#     Edge 98, Type (0, 0), BuildingBlock: ZUJKAS_clean_linker_0, # of connection points: 2
#     Edge 99, Type (0, 0), BuildingBlock: ZUJKAS_clean_linker_0, # of connection points: 2
#     Edge 100, Type (0, 0), BuildingBlock: ZUJKAS_clean_linker_0, # of connection points: 2
#     Edge 101, Type (0, 0), BuildingBlock: ZUJKAS_clean_linker_0, # of connection points: 2
#     Edge 102, Type (0, 0), BuildingBlock: ZUJKAS_clean_linker_0, # of connection points: 2
#     Edge 103, Type (0, 0), BuildingBlock: ZUJKAS_clean_linker_0, # of connection points: 2
#     Edge 104, Type (0, 0), BuildingBlock: ZUJKAS_clean_linker_0, # of connection points: 2
#     Edge 105, Type (0, 0), BuildingBlock: ZUJKAS_clean_linker_0, # of connection points: 2
#     Edge 106, Type (0, 0), BuildingBlock: ZUJKAS_clean_linker_0, # of connection points: 2
#     Edge 107, Type (0, 0), BuildingBlock: ZUJKAS_clean_linker_0, # of connection points: 2
#     Edge 108, Type (0, 0), BuildingBlock: ZUJKAS_clean_linker_0, # of connection points: 2
#     Edge 109, Type (0, 0), BuildingBlock: ZUJKAS_clean_linker_0, # of connection points: 2
#     Edge 110, Type (0, 0), BuildingBlock: ZUJKAS_clean_linker_0, # of connection points: 2
#     Edge 111, Type (0, 0), BuildingBlock: ZUJKAS_clean_linker_0, # of connection points: 2
#     Edge 112, Type (0, 0), BuildingBlock: ZUJKAS_clean_linker_0, # of connection points: 2
#     Edge 113, Type (0, 0), BuildingBlock: ZUJKAS_clean_linker_0, # of connection points: 2
#     Edge 114, Type (0, 0), BuildingBlock: ZUJKAS_clean_linker_0, # of connection points: 2
#     Edge 115, Type (0, 0), BuildingBlock: ZUJKAS_clean_linker_0, # of connection points: 2
#     Edge 116, Type (0, 0), BuildingBlock: ZUJKAS_clean_linker_0, # of connection points: 2
#     Edge 117, Type (0, 0), BuildingBlock: ZUJKAS_clean_linker_0, # of connection points: 2
#     Edge 118, Type (0, 0), BuildingBlock: ZUJKAS_clean_linker_0, # of connection points: 2
#     Edge 119, Type (0, 0), BuildingBlock: ZUJKAS_clean_linker_0, # of connection points: 2
#     Edge 120, Type (0, 0), BuildingBlock: ZUJKAS_clean_linker_0, # of connection points: 2
#     Edge 121, Type (0, 0), BuildingBlock: ZUJKAS_clean_linker_0, # of connection points: 2
#     Edge 122, Type (0, 0), BuildingBlock: ZUJKAS_clean_linker_0, # of connection points: 2
#     Edge 123, Type (0, 0), BuildingBlock: ZUJKAS_clean_linker_0, # of connection points: 2
#     Edge 124, Type (0, 0), BuildingBlock: ZUJKAS_clean_linker_0, # of connection points: 2
#     Edge 125, Type (0, 0), BuildingBlock: ZUJKAS_clean_linker_0, # of connection points: 2
# Relax obj value: 0.188
# Max RMSD: 0.171
# Mean RMSD: 0.170
data_MOF--net-wlr--node1-XOMCOT_clean_sbu_0--edge1-ZUJKAS_clean_linker_0
_symmetry_space_group_name_H-M    P1
_symmetry_Int_Tables_number       1
_symmetry_cell_setting            triclinic
loop_
_symmetry_equiv_pos_as_xyz
'x, y, z'
_cell_length_a     100.4418
_cell_length_b     100.45572
_cell_length_c     42.148773
_cell_angle_alpha  90.004578
_cell_angle_beta   89.981818
_cell_angle_gamma 120.00878
loop_
_atom_site_label
_atom_site_type_symbol
_atom_site_fract_x
_atom_site_fract_y
_atom_site_fract_z
_atom_type_partial_charge
Co0 Co 0.24155 0.18212 0.06544 0.0
C1 C 0.21763 0.18592 0.0344 0.0
C2 C 0.24012 0.20427 0.022 0.0
C3 C 0.22931 0.20739 0.00937 0.0
N4 N 0.23273 0.19083 0.03765 0.0
N5 N 0.21515 0.19588 0.0174 0.0
H6 H 0.20873 0.17554 0.0454 0.0
H7 H 0.25247 0.21168 0.02129 0.0
C8 C 0.26784 0.18387 0.02725 0.0
O9 O 0.26348 0.16971 0.03599 0.0
N10 N 0.25032 0.1735 0.09446 0.0
C11 C 0.24264 0.162 0.1155 0.0
C12 C 0.253 0.16022 0.13354 0.0
C13 C 0.26533 0.17904 0.10128 0.0
N14 N 0.26727 0.17088 0.12445 0.0
C15 C 0.21906 0.15025 0.05708 0.0
C16 C 0.22798 0.14703 0.99697 0.0
C17 C 0.21796 0.13379 0.01418 0.0
C18 C 0.21282 0.13562 0.04387 0.0
C19 C 0.23374 0.16151 0.01106 0.0
N20 N 0.23056 0.16277 0.04209 0.0
H21 H 0.21486 0.1514 0.0798 0.0
H22 H 0.24126 0.17161 0.99738 0.0
H23 H 0.23038 0.15563 0.11884 0.0
H24 H 0.27467 0.18902 0.09 0.0
O25 O 0.2261 0.17854 0.09689 0.0
O26 O 0.2488 0.19976 0.09332 0.0
O27 O 0.26029 0.19032 0.03663 0.0
C28 C 0.2357 0.19207 0.10809 0.0
H29 H 0.23178 0.21779 0.99691 0.0
H30 H 0.25022 0.15165 0.1518 0.0
H31 H 0.23164 0.14618 0.97325 0.0
H32 H 0.20467 0.12578 0.05762 0.0
Co33 Co 0.81627 0.05862 0.06471 0.0
C34 C 0.81256 0.03035 0.03444 0.0
C35 C 0.7956 0.03567 0.01806 0.0
C36 C 0.79222 0.02161 0.00588 0.0
N37 N 0.8086 0.04138 0.03543 0.0
N38 N 0.80288 0.01824 0.01636 0.0
H39 H 0.82134 0.03035 0.04917 0.0
H40 H 0.78838 0.04078 0.0161 0.0
C41 C 0.80909 0.07108 0.00683 0.0
O42 O 0.8175 0.0668 0.99062 0.0
N43 N 0.82383 0.07536 0.09467 0.0
C44 C 0.83578 0.07922 0.11437 0.0
C45 C 0.83901 0.09244 0.1301 0.0
C46 C 0.81988 0.08625 0.09867 0.0
N47 N 0.82911 0.09692 0.1201 0.0
C48 C 0.84595 0.06374 0.04388 0.0
C49 C 0.85687 0.09374 0.02455 0.0
C50 C 0.86689 0.08787 0.02435 0.0
C51 C 0.86128 0.07264 0.03409 0.0
C52 C 0.8418 0.0846 0.03498 0.0
N53 N 0.83628 0.06962 0.04376 0.0
H54 H 0.84225 0.0525 0.05345 0.0
H55 H 0.83482 0.08992 0.0375 0.0
H56 H 0.84207 0.07312 0.11641 0.0
H57 H 0.81095 0.08675 0.08528 0.0
O58 O 0.8206 0.047 0.09549 0.0
O59 O 0.79847 0.04671 0.09131 0.0
O60 O 0.80741 0.06882 0.03684 0.0
C61 C 0.80673 0.042 0.10611 0.0
H62 H 0.78226 0.01416 0.9917 0.0
H63 H 0.8481 0.0984 0.14731 0.0
H64 H 0.86088 0.10564 0.01851 0.0
H65 H 0.86879 0.0678 0.03507 0.0
Co66 Co 0.94145 0.75855 0.06305 0.0
C67 C 0.9708 0.7822 0.03402 0.0
C68 C 0.96701 0.75942 0.02763 0.0
C69 C 0.98157 0.76971 0.01706 0.0
N70 N 0.96011 0.76722 0.03779 0.0
N71 N 0.98394 0.78404 0.02122 0.0
H72 H 0.96969 0.79162 0.04308 0.0
H73 H 0.96212 0.74711 0.0295 0.0
C74 C 0.9325 0.73929 0.00446 0.0
O75 O 0.93975 0.75222 0.98844 0.0
N76 N 0.92325 0.7502 0.08907 0.0
C77 C 0.91891 0.75874 0.10607 0.0
C78 C 0.90507 0.74916 0.12027 0.0
C79 C 0.91202 0.73549 0.09313 0.0
N80 N 0.90068 0.73455 0.11205 0.0
C81 C 0.93841 0.78418 0.04174 0.0
C82 C 0.91043 0.76661 0.01191 0.0
C83 C 0.91608 0.78237 0.01561 0.0
C84 C 0.93036 0.79125 0.03039 0.0
C85 C 0.91868 0.75999 0.02401 0.0
N86 N 0.93268 0.76873 0.03822 0.0
H87 H 0.94855 0.791 0.05572 0.0
H88 H 0.91304 0.74762 0.02416 0.0
H89 H 0.92528 0.77115 0.10764 0.0
H90 H 0.91194 0.72577 0.08188 0.0
O91 O 0.95231 0.77416 0.09491 0.0
O92 O 0.95106 0.75152 0.09337 0.0
O93 O 0.93169 0.73964 0.03476 0.0
C94 C 0.95603 0.76467 0.10762 0.0
H95 H 0.98997 0.76687 0.00826 0.0
H96 H 0.89877 0.75271 0.13559 0.0
H97 H 0.89912 0.75919 1.00198 0.0
H98 H 0.93494 0.80341 0.0345 0.0
Co99 Co 0.18387 0.24247 0.44176 0.0
C100 C 0.18885 0.21874 0.47257 0.0
C101 C 0.2071 0.24154 0.48245 0.0
C102 C 0.21108 0.23128 0.49446 0.0
N103 N 0.19299 0.2337 0.4693 0.0
N104 N 0.1996 0.21694 0.4881 0.0
H105 H 0.17901 0.20939 0.46123 0.0
H106 H 0.21444 0.25389 0.48171 0.0
C107 C 0.19255 0.26196 0.49997 0.0
O108 O 0.18584 0.24906 0.51621 0.0
N109 N 0.17496 0.25096 0.41352 0.0
C110 C 0.16248 0.24256 0.39532 0.0
C111 C 0.15874 0.25231 0.3801 0.0
C112 C 0.17872 0.26572 0.40915 0.0
N113 N 0.16889 0.26684 0.3889 0.0
C114 C 0.15474 0.21721 0.46282 0.0
C115 C 0.1437 0.23545 0.48676 0.0
C116 C 0.1337 0.21956 0.48487 0.0
C117 C 0.13945 0.21037 0.47308 0.0
C118 C 0.15879 0.24179 0.47607 0.0
N119 N 0.16435 0.23274 0.46476 0.0
H120 H 0.15836 0.21006 0.45103 0.0
H121 H 0.16557 0.25415 0.47472 0.0
H122 H 0.15631 0.23015 0.39379 0.0
H123 H 0.18809 0.27534 0.42128 0.0
O124 O 0.17952 0.22662 0.4107 0.0
O125 O 0.20114 0.24905 0.41322 0.0
O126 O 0.19263 0.26153 0.46959 0.0
C127 C 0.19303 0.2359 0.39889 0.0
H128 H 0.22187 0.23418 0.50576 0.0
H129 H 0.14923 0.24892 0.36387 0.0
H130 H 0.13964 0.2431 0.49431 0.0
H131 H 0.13204 0.19807 0.47051 0.0
Co132 Co 0.76011 0.94134 0.44093 0.0
C133 C 0.78409 0.96925 0.47155 0.0
C134 C 0.76172 0.96363 0.48854 0.0
C135 C 0.77249 0.97742 0.50182 0.0
N136 N 0.76906 0.95858 0.46961 0.0
N137 N 0.78653 0.98098 0.49087 0.0
H138 H 0.79299 0.96864 0.45827 0.0
H139 H 0.74938 0.95808 0.49139 0.0
C140 C 0.73392 0.91649 0.47889 0.0
O141 O 0.73829 0.90675 0.46969 0.0
N142 N 0.75124 0.92426 0.41107 0.0
C143 C 0.75888 0.92094 0.38893 0.0
C144 C 0.74851 0.90892 0.37063 0.0
C145 C 0.73621 0.91461 0.40467 0.0
N146 N 0.73426 0.90489 0.38067 0.0
C147 C 0.78227 0.93142 0.44767 0.0
C148 C 0.77372 0.91922 0.50783 0.0
C149 C 0.78345 0.91583 0.48999 0.0
C150 C 0.7884 0.92281 0.46024 0.0
C151 C 0.76805 0.92814 0.49436 0.0
N152 N 0.77104 0.93264 0.46333 0.0
H153 H 0.78635 0.93681 0.42494 0.0
H154 H 0.76072 0.93081 0.50847 0.0
H155 H 0.77111 0.92713 0.38498 0.0
H156 H 0.72686 0.91489 0.41676 0.0
O157 O 0.77554 0.95348 0.40968 0.0
O158 O 0.75291 0.95209 0.41399 0.0
O159 O 0.74138 0.93052 0.46973 0.0
C160 C 0.76596 0.95756 0.39904 0.0
H161 H 0.77006 0.98465 0.51694 0.0
H162 H 0.75128 0.90352 0.35152 0.0
H163 H 0.77022 0.91469 0.53158 0.0
H164 H 0.79633 0.92099 0.44598 0.0
Co165 Co 0.05903 0.81723 0.44031 0.0
C166 C 0.03015 0.81227 0.47032 0.0
C167 C 0.03427 0.79368 0.47942 0.0
C168 C 0.01987 0.78966 0.49057 0.0
N169 N 0.0409 0.80802 0.46724 0.0
N170 N 0.01727 0.80135 0.48468 0.0
H171 H 0.03095 0.82237 0.45955 0.0
H172 H 0.03916 0.78624 0.47844 0.0
C173 C 0.06913 0.80788 0.4986 0.0
O174 O 0.06265 0.81431 0.51481 0.0
N175 N 0.07669 0.8263 0.4126 0.0
C176 C 0.08075 0.83877 0.39439 0.0
C177 C 0.09446 0.8428 0.37982 0.0
C178 C 0.08797 0.82285 0.40891 0.0
N179 N 0.09905 0.83288 0.38906 0.0
C180 C 0.06304 0.84637 0.46139 0.0
C181 C 0.09197 0.85694 0.48684 0.0
C182 C 0.08637 0.86714 0.48418 0.0
C183 C 0.0716 0.86164 0.47167 0.0
C184 C 0.08317 0.8419 0.47597 0.0
N185 N 0.06874 0.83658 0.46385 0.0
H186 H 0.05243 0.84292 0.44907 0.0
H187 H 0.08863 0.83501 0.47504 0.0
H188 H 0.07436 0.84477 0.39244 0.0
H189 H 0.08833 0.8136 0.42126 0.0
O190 O 0.0478 0.82187 0.40916 0.0
O191 O 0.04847 0.80017 0.41125 0.0
O192 O 0.06904 0.80819 0.4682 0.0
C193 C 0.04351 0.80839 0.39713 0.0
H194 H 0.01169 0.77869 0.50087 0.0
H195 H 0.10059 0.85237 0.36373 0.0
H196 H 0.10357 0.86083 0.495 0.0
H197 H 0.06697 0.86925 0.46849 0.0
Co198 Co 0.75881 0.81693 0.94334 0.0
C199 C 0.78368 0.81324 0.97217 0.0
C200 C 0.7614 0.79423 0.98286 0.0
C201 C 0.77231 0.79089 0.99378 0.0
N202 N 0.76851 0.80843 0.96995 0.0
N203 N 0.78632 0.80282 0.98679 0.0
H204 H 0.79259 0.82358 0.96135 0.0
H205 H 0.74913 0.78638 0.98244 0.0
C206 C 0.73953 0.80696 1.00201 0.0
O207 O 0.75246 0.81375 0.01817 0.0
N208 N 0.74952 0.82537 0.91595 0.0
C209 C 0.75751 0.83804 0.89801 0.0
C210 C 0.74742 0.84156 0.88371 0.0
C211 C 0.73461 0.82126 0.91233 0.0
N212 N 0.73305 0.83108 0.89282 0.0
C213 C 0.78325 0.84674 0.96341 0.0
C214 C 0.76396 0.85611 0.98902 0.0
C215 C 0.77948 0.86704 0.98476 0.0
C216 C 0.7893 0.86211 0.97263 0.0
C217 C 0.75838 0.84104 0.97912 0.0
N218 N 0.76794 0.83634 0.96667 0.0
H219 H 0.7907 0.84369 0.95098 0.0
H220 H 0.74609 0.83361 0.97904 0.0
H221 H 0.76991 0.84453 0.89609 0.0
H222 H 0.72521 0.81169 0.92448 0.0
O223 O 0.77459 0.82205 0.9116 0.0
O224 O 0.75268 0.7999 0.91444 0.0
O225 O 0.7399 0.80731 0.97163 0.0
C226 C 0.76562 0.80847 0.89974 0.0
H227 H 0.77008 0.78004 0.00382 0.0
H228 H 0.75044 0.85114 0.86789 0.0
H229 H 0.75591 0.85936 0.99823 0.0
H230 H 0.8013 0.87025 0.96811 0.0
Co231 Co 0.18438 0.94171 0.94055 0.0
C232 C 0.18849 0.97062 0.9685 0.0
C233 C 0.20675 0.96655 0.9813 0.0
C234 C 0.21055 0.98108 0.99117 0.0
N235 N 0.19272 0.95979 0.96767 0.0
N236 N 0.1991 0.9837 0.98287 0.0
H237 H 0.17851 0.96951 0.95658 0.0
H238 H 0.21431 0.9618 0.98174 0.0
C239 C 0.19355 0.93172 0.9992 0.0
O240 O 0.1864 0.93754 0.01511 0.0
N241 N 0.17628 0.92423 0.91252 0.0
C242 C 0.16377 0.91957 0.89409 0.0
C243 C 0.16118 0.9067 0.87773 0.0
C244 C 0.18115 0.91411 0.90732 0.0
N245 N 0.17208 0.90327 0.88603 0.0
C246 C 0.15473 0.93649 0.96191 0.0
C247 C 0.14465 0.90692 0.98307 0.0
C248 C 0.13407 0.91204 0.98074 0.0
C249 C 0.13933 0.9272 0.97095 0.0
C250 C 0.15984 0.91651 0.9739 0.0
N251 N 0.16485 0.93116 0.96342 0.0
H252 H 0.15804 0.9474 0.95111 0.0
H253 H 0.16717 0.91153 0.97271 0.0
H254 H 0.15682 0.92502 0.89308 0.0
H255 H 0.19104 0.91464 0.91881 0.0
O256 O 0.1793 0.95246 0.90903 0.0
O257 O 0.20155 0.9529 0.91211 0.0
O258 O 0.1938 0.93223 0.96882 0.0
C259 C 0.19296 0.95723 0.89739 0.0
H260 H 0.22147 0.98948 1.00127 0.0
H261 H 0.1517 0.90009 0.8617 0.0
H262 H 0.14104 0.89524 0.99026 0.0
H263 H 0.13139 0.93144 0.96802 0.0
Co264 Co 0.05905 0.24238 0.94098 0.0
C265 C 0.03082 0.21799 0.97201 0.0
C266 C 0.03539 0.24047 0.98507 0.0
C267 C 0.02141 0.22985 0.99769 0.0
N268 N 0.04156 0.23304 0.9697 0.0
N269 N 0.01853 0.21572 0.98924 0.0
H270 H 0.03135 0.20891 0.95953 0.0
H271 H 0.04019 0.25279 0.98536 0.0
C272 C 0.07041 0.26202 0.99891 0.0
O273 O 0.06504 0.24915 0.01505 0.0
N274 N 0.07601 0.25132 0.91147 0.0
C275 C 0.07998 0.24308 0.8925 0.0
C276 C 0.09333 0.25292 0.87701 0.0
C277 C 0.08698 0.26613 0.90726 0.0
N278 N 0.09779 0.26739 0.88641 0.0
C279 C 0.06436 0.21795 0.96181 0.0
C280 C 0.09438 0.23736 0.9806 0.0
C281 C 0.089 0.22158 0.97887 0.0
C282 C 0.07365 0.21174 0.97025 0.0
C283 C 0.08478 0.24304 0.97211 0.0
N284 N 0.0699 0.23344 0.96286 0.0
H285 H 0.05324 0.21034 0.95186 0.0
H286 H 0.08986 0.25535 0.97057 0.0
H287 H 0.07385 0.23067 0.89081 0.0
H288 H 0.0874 0.27567 0.92008 0.0
O289 O 0.04754 0.22626 0.91043 0.0
O290 O 0.04739 0.24821 0.91346 0.0
O291 O 0.06922 0.26156 0.96859 0.0
C292 C 0.04264 0.2351 0.89915 0.0
H293 H 0.01349 0.23237 0.01007 0.0
H294 H 0.09939 0.24965 0.86033 0.0
H295 H 0.10622 0.24537 0.98685 0.0
H296 H 0.06919 0.1995 0.96778 0.0
Co297 Co 0.81599 0.7579 0.5651 0.0
C298 C 0.81213 0.78234 0.53443 0.0
C299 C 0.79564 0.75998 0.51755 0.0
C300 C 0.79177 0.7704 0.50599 0.0
N301 N 0.80863 0.76746 0.53493 0.0
N302 N 0.80211 0.78446 0.51682 0.0
H303 H 0.82074 0.7912 0.54936 0.0
H304 H 0.7886 0.74764 0.51554 0.0
C305 C 0.80904 0.73779 0.50822 0.0
O306 O 0.81786 0.75036 0.492 0.0
N307 N 0.82303 0.74864 0.59607 0.0
C308 C 0.83474 0.75655 0.61641 0.0
C309 C 0.83705 0.74633 0.63376 0.0
C310 C 0.81836 0.73368 0.60119 0.0
N311 N 0.8268 0.73198 0.62416 0.0
C312 C 0.84563 0.7818 0.54212 0.0
C313 C 0.85682 0.76213 0.52999 0.0
C314 C 0.86691 0.77798 0.52823 0.0
C315 C 0.8611 0.78789 0.53357 0.0
C316 C 0.84154 0.75655 0.53843 0.0
N317 N 0.83601 0.76628 0.54445 0.0
H318 H 0.84178 0.78963 0.54887 0.0
H319 H 0.83437 0.74431 0.54186 0.0
H320 H 0.84149 0.76894 0.61782 0.0
H321 H 0.80921 0.72429 0.58812 0.0
O322 O 0.82071 0.77427 0.59494 0.0
O323 O 0.79825 0.75271 0.5914 0.0
O324 O 0.80693 0.73858 0.53798 0.0
C325 C 0.80679 0.76579 0.60567 0.0
H326 H 0.78162 0.76768 0.49225 0.0
H327 H 0.84604 0.74928 0.65113 0.0
H328 H 0.86083 0.75405 0.52605 0.0
H329 H 0.86863 0.80024 0.53308 0.0
Co330 Co 0.24241 0.05802 0.56346 0.0
C331 C 0.21764 0.03056 0.53146 0.0
C332 C 0.23979 0.03587 0.51428 0.0
C333 C 0.22895 0.02207 0.50131 0.0
N334 N 0.23268 0.04145 0.53262 0.0
N335 N 0.21503 0.0187 0.51238 0.0
H336 H 0.20888 0.03063 0.54612 0.0
H337 H 0.2521 0.04078 0.51232 0.0
C338 C 0.26254 0.0714 0.5066 0.0
O339 O 0.25002 0.06787 0.49042 0.0
N340 N 0.25173 0.07405 0.59504 0.0
C341 C 0.24369 0.07748 0.61584 0.0
C342 C 0.25367 0.0905 0.63213 0.0
C343 C 0.26657 0.08504 0.59898 0.0
N344 N 0.26802 0.09533 0.62137 0.0
C345 C 0.21863 0.06442 0.543 0.0
C346 C 0.23858 0.09504 0.52945 0.0
C347 C 0.22276 0.08959 0.52892 0.0
C348 C 0.21269 0.07398 0.53507 0.0
C349 C 0.244 0.08516 0.53738 0.0
N350 N 0.23412 0.06997 0.54385 0.0
H351 H 0.21072 0.0529 0.55061 0.0
H352 H 0.25625 0.09006 0.54004 0.0
H353 H 0.23131 0.07131 0.61813 0.0
H354 H 0.27595 0.08598 0.5847 0.0
O355 O 0.22606 0.04609 0.59318 0.0
O356 O 0.24758 0.04517 0.58871 0.0
O357 O 0.26171 0.06837 0.5363 0.0
C358 C 0.23452 0.0405 0.60319 0.0
H359 H 0.23129 0.01454 0.48694 0.0
H360 H 0.25055 0.09616 0.65006 0.0
H361 H 0.24678 0.10704 0.52497 0.0
H362 H 0.20038 0.06942 0.5357 0.0
Co363 Co 0.94201 0.18358 0.56319 0.0
C364 C 0.97082 0.18837 0.53307 0.0
C365 C 0.96619 0.20643 0.52178 0.0
C366 C 0.98046 0.21032 0.51003 0.0
N367 N 0.95993 0.19247 0.53561 0.0
N368 N 0.9834 0.19897 0.51732 0.0
H369 H 0.97031 0.17866 0.54508 0.0
H370 H 0.96117 0.21377 0.52189 0.0
C371 C 0.93122 0.19238 0.50498 0.0
O372 O 0.93722 0.18551 0.48867 0.0
N373 N 0.9246 0.17488 0.5915 0.0
C374 C 0.92049 0.16247 0.60995 0.0
C375 C 0.90699 0.15879 0.62507 0.0
C376 C 0.91358 0.17865 0.59561 0.0
N377 N 0.9026 0.16889 0.61594 0.0
C378 C 0.93774 0.15431 0.54215 0.0
C379 C 0.90839 0.14351 0.51884 0.0
C380 C 0.91406 0.13335 0.52094 0.0
C381 C 0.92904 0.13896 0.53239 0.0
C382 C 0.91734 0.15863 0.52917 0.0
N383 N 0.93197 0.16406 0.54026 0.0
H384 H 0.94859 0.1579 0.55354 0.0
H385 H 0.91192 0.16554 0.53048 0.0
H386 H 0.9267 0.15628 0.6117 0.0
H387 H 0.91332 0.18794 0.58321 0.0
O388 O 0.95336 0.17902 0.59425 0.0
O389 O 0.9529 0.20082 0.59175 0.0
O390 O 0.93187 0.19255 0.53536 0.0
C391 C 0.95776 0.19256 0.60609 0.0
H392 H 0.9883 0.22099 0.49828 0.0
H393 H 0.90086 0.14935 0.64144 0.0
H394 H 0.89666 0.13955 0.51145 0.0
H395 H 0.93375 0.1314 0.53507 0.0
Co396 Co 0.90961 0.51673 0.39604 0.0
C397 C 0.88539 0.52142 0.36661 0.0
C398 C 0.90802 0.54024 0.35775 0.0
C399 C 0.89754 0.54415 0.3468 0.0
N400 N 0.90044 0.52585 0.36965 0.0
N401 N 0.8833 0.53231 0.35253 0.0
H402 H 0.87615 0.51119 0.37716 0.0
H403 H 0.92034 0.54779 0.35876 0.0
C404 C 0.92874 0.52636 0.33732 0.0
O405 O 0.91572 0.51978 0.32148 0.0
N406 N 0.91848 0.50778 0.42322 0.0
C407 C 0.91026 0.49506 0.4409 0.0
C408 C 0.92014 0.49125 0.4552 0.0
C409 C 0.93331 0.51162 0.42701 0.0
N410 N 0.93461 0.50159 0.44637 0.0
C411 C 0.88464 0.48739 0.37514 0.0
C412 C 0.90345 0.47708 0.35097 0.0
C413 C 0.8878 0.46658 0.35477 0.0
C414 C 0.87822 0.47196 0.36602 0.0
C415 C 0.90937 0.49228 0.36038 0.0
N416 N 0.90008 0.49741 0.37235 0.0
H417 H 0.87735 0.49075 0.38722 0.0
H418 H 0.92171 0.49944 0.36072 0.0
H419 H 0.89785 0.48876 0.44265 0.0
H420 H 0.94284 0.52117 0.41509 0.0
O421 O 0.89387 0.51186 0.42768 0.0
O422 O 0.91611 0.53369 0.42532 0.0
O423 O 0.92853 0.52601 0.36771 0.0
C424 C 0.90308 0.5253 0.43985 0.0
H425 H 0.9002 0.55512 0.33673 0.0
H426 H 0.9169 0.48156 0.47085 0.0
H427 H 0.91129 0.47337 0.34264 0.0
H428 H 0.86611 0.46408 0.37014 0.0
Co429 Co 0.48325 0.39277 0.39907 0.0
C430 C 0.47915 0.36421 0.36918 0.0
C431 C 0.461 0.36854 0.35674 0.0
C432 C 0.45751 0.35441 0.34481 0.0
N433 N 0.47481 0.37493 0.37131 0.0
N434 N 0.4689 0.35167 0.35287 0.0
H435 H 0.48897 0.36496 0.38116 0.0
H436 H 0.45347 0.37333 0.35657 0.0
C437 C 0.47463 0.40342 0.34049 0.0
O438 O 0.4817 0.39752 0.32454 0.0
N439 N 0.49148 0.41007 0.42759 0.0
C440 C 0.50385 0.41439 0.44628 0.0
C441 C 0.50662 0.42726 0.46286 0.0
C442 C 0.48687 0.42038 0.43285 0.0
N443 N 0.49597 0.43103 0.45443 0.0
C444 C 0.51278 0.3975 0.37841 0.0
C445 C 0.52316 0.42666 0.35436 0.0
C446 C 0.53337 0.42103 0.35582 0.0
C447 C 0.528 0.40619 0.36786 0.0
C448 C 0.50818 0.41772 0.3655 0.0
N449 N 0.50292 0.40313 0.37665 0.0
H450 H 0.50938 0.38675 0.39008 0.0
H451 H 0.50119 0.42306 0.36705 0.0
H452 H 0.51058 0.40871 0.44731 0.0
H453 H 0.47716 0.42014 0.42117 0.0
O454 O 0.48785 0.38153 0.43032 0.0
O455 O 0.46585 0.38157 0.4271 0.0
O456 O 0.47427 0.40277 0.37088 0.0
C457 C 0.47417 0.37686 0.44171 0.0
H458 H 0.44688 0.34629 0.33323 0.0
H459 H 0.51605 0.43365 0.47912 0.0
H460 H 0.52698 0.4383 0.34662 0.0
H461 H 0.53564 0.40156 0.37019 0.0
Co462 Co 0.60849 0.09155 0.39537 0.0
C463 C 0.63683 0.11595 0.36465 0.0
C464 C 0.63328 0.09344 0.35546 0.0
C465 C 0.64755 0.10408 0.34414 0.0
N466 N 0.6264 0.10086 0.36787 0.0
N467 N 0.64978 0.11823 0.35009 0.0
H468 H 0.63579 0.12509 0.3755 0.0
H469 H 0.62869 0.08115 0.3565 0.0
C470 C 0.59838 0.07232 0.33676 0.0
O471 O 0.60455 0.08532 0.32087 0.0
N472 N 0.59107 0.08261 0.42368 0.0
C473 C 0.58711 0.09083 0.44275 0.0
C474 C 0.57352 0.08101 0.45752 0.0
C475 C 0.57983 0.06784 0.42704 0.0
N476 N 0.56889 0.06659 0.44753 0.0
C477 C 0.60347 0.11629 0.37618 0.0
C478 C 0.57431 0.09737 0.35237 0.0
C479 C 0.57924 0.11295 0.35683 0.0
C480 C 0.59423 0.12258 0.36796 0.0
C481 C 0.58376 0.09156 0.36116 0.0
N482 N 0.59824 0.10092 0.37283 0.0
H483 H 0.61418 0.12361 0.38802 0.0
H484 H 0.57871 0.07924 0.36115 0.0
H485 H 0.59347 0.1032 0.44513 0.0
H486 H 0.57938 0.05835 0.414 0.0
O487 O 0.61975 0.10738 0.42664 0.0
O488 O 0.61952 0.08525 0.42365 0.0
O489 O 0.59861 0.07258 0.36717 0.0
C490 C 0.62429 0.0983 0.43819 0.0
H491 H 0.65592 0.10158 0.33379 0.0
H492 H 0.56748 0.08429 0.47421 0.0
H493 H 0.5628 0.08947 0.34396 0.0
H494 H 0.59837 0.13463 0.37261 0.0
Co495 Co 0.85193 0.57675 0.77248 0.0
C496 C 0.85463 0.55168 0.80341 0.0
C497 C 0.87197 0.57381 0.81966 0.0
C498 C 0.87499 0.56292 0.83204 0.0
N499 N 0.85892 0.56676 0.80236 0.0
N500 N 0.86412 0.549 0.82158 0.0
H501 H 0.84553 0.54294 0.78922 0.0
H502 H 0.87952 0.5861 0.82123 0.0
C503 C 0.85931 0.59633 0.83035 0.0
O504 O 0.85099 0.58351 0.84623 0.0
N505 N 0.8452 0.58642 0.74181 0.0
C506 C 0.83364 0.57877 0.72103 0.0
C507 C 0.83149 0.58921 0.70413 0.0
C508 C 0.84993 0.60144 0.73745 0.0
N509 N 0.84169 0.60343 0.71449 0.0
C510 C 0.82174 0.5529 0.79273 0.0
C511 C 0.81135 0.57286 0.80848 0.0
C512 C 0.80087 0.55706 0.80823 0.0
C513 C 0.80628 0.54698 0.80098 0.0
C514 C 0.82663 0.57826 0.80024 0.0
N515 N 0.8318 0.56838 0.79262 0.0
H516 H 0.82524 0.54503 0.78423 0.0
H517 H 0.83405 0.59052 0.79805 0.0
H518 H 0.82688 0.5664 0.719 0.0
H519 H 0.85899 0.61065 0.75104 0.0
O520 O 0.84733 0.56063 0.74204 0.0
O521 O 0.86983 0.58205 0.74662 0.0
O522 O 0.86091 0.59583 0.80029 0.0
C523 C 0.86135 0.5691 0.73187 0.0
H524 H 0.88509 0.56519 0.8455 0.0
H525 H 0.82264 0.58648 0.68655 0.0
H526 H 0.80765 0.58106 0.81376 0.0
H527 H 0.79844 0.5347 0.79969 0.0
Co528 Co 0.42369 0.27438 0.77571 0.0
C529 C 0.44778 0.30333 0.80496 0.0
C530 C 0.42518 0.29941 0.81458 0.0
C531 C 0.43572 0.31376 0.82581 0.0
N532 N 0.43273 0.29267 0.80217 0.0
N533 N 0.44993 0.31624 0.81949 0.0
H534 H 0.45699 0.30221 0.79473 0.0
H535 H 0.41285 0.29464 0.81377 0.0
C536 C 0.40454 0.26469 0.83454 0.0
O537 O 0.41755 0.27157 0.85037 0.0
N538 N 0.41506 0.25659 0.74844 0.0
C539 C 0.42346 0.25256 0.73012 0.0
C540 C 0.41382 0.23877 0.71584 0.0
C541 C 0.40036 0.2452 0.74512 0.0
N542 N 0.39931 0.23409 0.72539 0.0
C543 C 0.449 0.27049 0.79596 0.0
C544 C 0.43094 0.24192 0.82318 0.0
C545 C 0.44671 0.24748 0.81987 0.0
C546 C 0.45583 0.26206 0.80641 0.0
C547 C 0.42458 0.2506 0.81216 0.0
N548 N 0.43356 0.26488 0.79923 0.0
H549 H 0.45602 0.2809 0.7829 0.0
H550 H 0.41222 0.24513 0.8118 0.0
H551 H 0.43584 0.25904 0.72787 0.0
H552 H 0.39075 0.24479 0.75762 0.0
O553 O 0.43936 0.28551 0.74407 0.0
O554 O 0.41695 0.28471 0.74652 0.0
O555 O 0.40476 0.26439 0.80414 0.0
C556 C 0.43005 0.28964 0.73205 0.0
H557 H 0.4331 0.32214 0.83571 0.0
H558 H 0.41726 0.23265 0.69973 0.0
H559 H 0.42332 0.23044 0.83207 0.0
H560 H 0.46803 0.26664 0.80268 0.0
Co561 Co 0.72591 0.15002 0.77272 0.0
C562 C 0.69728 0.14541 0.80332 0.0
C563 C 0.70237 0.12782 0.81619 0.0
C564 C 0.68816 0.12396 0.82822 0.0
N565 N 0.70831 0.14147 0.80112 0.0
N566 N 0.68495 0.13501 0.81996 0.0
H567 H 0.69748 0.15477 0.79044 0.0
H568 H 0.70751 0.12059 0.81665 0.0
C569 C 0.73763 0.14195 0.83044 0.0
O570 O 0.73266 0.1497 0.84694 0.0
N571 N 0.74303 0.15838 0.74365 0.0
C572 C 0.74704 0.17066 0.72486 0.0
C573 C 0.76042 0.17421 0.7094 0.0
C574 C 0.754 0.15455 0.73939 0.0
N575 N 0.76485 0.16416 0.71866 0.0
C576 C 0.73039 0.17927 0.79475 0.0
C577 C 0.76005 0.19011 0.81632 0.0
C578 C 0.75409 0.20006 0.81621 0.0
C579 C 0.73904 0.19449 0.80534 0.0
C580 C 0.75117 0.17516 0.80504 0.0
N581 N 0.73635 0.16966 0.79517 0.0
H582 H 0.71936 0.17566 0.7842 0.0
H583 H 0.75665 0.16833 0.80259 0.0
H584 H 0.74087 0.17689 0.72319 0.0
H585 H 0.75436 0.14537 0.75204 0.0
O586 O 0.71443 0.15461 0.74211 0.0
O587 O 0.71459 0.13267 0.74469 0.0
O588 O 0.73606 0.14097 0.80022 0.0
C589 C 0.70978 0.14099 0.73047 0.0
H590 H 0.6805 0.11348 0.84079 0.0
H591 H 0.76647 0.18356 0.6928 0.0
H592 H 0.77185 0.19412 0.8232 0.0
H593 H 0.73417 0.20197 0.80405 0.0
Co594 Co 0.42495 0.15034 0.274 0.0
C595 C 0.44975 0.14679 0.30388 0.0
C596 C 0.42753 0.12981 0.32053 0.0
C597 C 0.43829 0.12665 0.33307 0.0
N598 N 0.43473 0.14272 0.30288 0.0
N599 N 0.45229 0.13731 0.32244 0.0
H600 H 0.45848 0.15558 0.28911 0.0
H601 H 0.41522 0.12256 0.32272 0.0
C602 C 0.40541 0.14294 0.33214 0.0
O603 O 0.41812 0.15136 0.34827 0.0
N604 N 0.41548 0.15776 0.24447 0.0
C605 C 0.42324 0.16979 0.22478 0.0
C606 C 0.41288 0.17222 0.2083 0.0
C607 C 0.40048 0.15302 0.23988 0.0
N608 N 0.39859 0.16172 0.21782 0.0
C609 C 0.44942 0.17997 0.29518 0.0
C610 C 0.43026 0.19066 0.31531 0.0
C611 C 0.44615 0.20067 0.31583 0.0
C612 C 0.45582 0.1952 0.30559 0.0
C613 C 0.42438 0.17571 0.30422 0.0
N614 N 0.43387 0.17028 0.29517 0.0
H615 H 0.45699 0.17637 0.28536 0.0
H616 H 0.41207 0.16871 0.30157 0.0
H617 H 0.43563 0.17661 0.22315 0.0
H618 H 0.3912 0.14357 0.25256 0.0
O619 O 0.44085 0.15494 0.24295 0.0
O620 O 0.41913 0.13267 0.24714 0.0
O621 O 0.40597 0.14131 0.30211 0.0
C622 C 0.43204 0.14109 0.23219 0.0
H623 H 0.43583 0.11688 0.34785 0.0
H624 H 0.41568 0.18141 0.19151 0.0
H625 H 0.42236 0.19461 0.32174 0.0
H626 H 0.46816 0.20273 0.30482 0.0
Co627 Co 0.85032 0.27485 0.27496 0.0
C628 C 0.85468 0.30338 0.30552 0.0
C629 C 0.87341 0.29951 0.31497 0.0
C630 C 0.87717 0.31379 0.32644 0.0
N631 N 0.85916 0.2928 0.30237 0.0
N632 N 0.86538 0.31622 0.32034 0.0
H633 H 0.84462 0.30252 0.29445 0.0
H634 H 0.88101 0.29479 0.31405 0.0
C635 C 0.85971 0.26459 0.33303 0.0
O636 O 0.85295 0.27069 0.34938 0.0
N637 N 0.8416 0.25739 0.24677 0.0
C638 C 0.82925 0.25337 0.22817 0.0
C639 C 0.82527 0.23967 0.21369 0.0
C640 C 0.84502 0.24609 0.24337 0.0
N641 N 0.8351 0.23504 0.22337 0.0
C642 C 0.82086 0.27011 0.296 0.0
C643 C 0.81045 0.24067 0.31835 0.0
C644 C 0.79999 0.24592 0.31533 0.0
C645 C 0.80542 0.26102 0.30496 0.0
C646 C 0.82569 0.25007 0.30925 0.0
N647 N 0.83087 0.26466 0.29819 0.0
H648 H 0.82425 0.28091 0.28456 0.0
H649 H 0.83288 0.24493 0.30848 0.0
H650 H 0.82324 0.25974 0.22604 0.0
H651 H 0.85412 0.24564 0.25616 0.0
O652 O 0.84552 0.28607 0.24402 0.0
O653 O 0.86742 0.2858 0.24613 0.0
O654 O 0.85957 0.26495 0.30264 0.0
C655 C 0.85903 0.29054 0.23194 0.0
H656 H 0.88802 0.32201 0.33708 0.0
H657 H 0.81576 0.23353 0.19747 0.0
H658 H 0.80669 0.22901 0.32593 0.0
H659 H 0.79758 0.26534 0.30142 0.0
Co660 Co 0.72554 0.57583 0.27379 0.0
C661 C 0.69752 0.55105 0.30446 0.0
C662 C 0.70301 0.57319 0.32204 0.0
C663 C 0.689 0.56243 0.33433 0.0
N664 N 0.70861 0.56604 0.30389 0.0
N665 N 0.68551 0.54851 0.32304 0.0
H666 H 0.69758 0.54232 0.28972 0.0
H667 H 0.70806 0.5855 0.32426 0.0
C668 C 0.73848 0.59565 0.33121 0.0
O669 O 0.73469 0.58301 0.34719 0.0
N670 N 0.74193 0.58523 0.24295 0.0
C671 C 0.74572 0.57726 0.22276 0.0
C672 C 0.7588 0.58734 0.20672 0.0
C673 C 0.75273 0.60013 0.23888 0.0
N674 N 0.76328 0.60169 0.217 0.0
C675 C 0.73144 0.5518 0.29495 0.0
C676 C 0.76206 0.57145 0.30908 0.0
C677 C 0.75643 0.5556 0.30963 0.0
C678 C 0.74081 0.54568 0.30321 0.0
C679 C 0.75235 0.57705 0.30086 0.0
N680 N 0.73717 0.56732 0.294 0.0
H681 H 0.71992 0.544 0.28717 0.0
H682 H 0.75738 0.58932 0.29824 0.0
H683 H 0.73972 0.56488 0.22068 0.0
H684 H 0.75331 0.6095 0.25264 0.0
O685 O 0.71387 0.55964 0.24356 0.0
O686 O 0.71302 0.58119 0.24789 0.0
O687 O 0.73574 0.59499 0.30138 0.0
C688 C 0.7084 0.56817 0.23331 0.0
H689 H 0.68143 0.56485 0.34837 0.0
H690 H 0.7647 0.5843 0.18919 0.0
H691 H 0.77407 0.57954 0.31378 0.0
H692 H 0.73611 0.53335 0.30261 0.0
Co693 Co 0.48272 0.09172 0.89688 0.0
C694 C 0.48034 0.11693 0.86601 0.0
C695 C 0.46379 0.09502 0.84728 0.0
C696 C 0.46087 0.10599 0.83495 0.0
N697 N 0.47629 0.1019 0.86622 0.0
N698 N 0.47123 0.11977 0.84697 0.0
H699 H 0.48898 0.12547 0.88135 0.0
H700 H 0.45644 0.08275 0.84458 0.0
C701 C 0.47612 0.07183 0.83967 0.0
O702 O 0.48533 0.0844 0.82383 0.0
N703 N 0.4889 0.0819 0.92832 0.0
C704 C 0.50036 0.08948 0.94937 0.0
C705 C 0.50214 0.07897 0.96686 0.0
C706 C 0.48386 0.06684 0.93315 0.0
N707 N 0.49182 0.06476 0.95664 0.0
C708 C 0.51298 0.11522 0.87581 0.0
C709 C 0.52346 0.09499 0.86353 0.0
C710 C 0.53387 0.11078 0.86204 0.0
C711 C 0.52843 0.12098 0.86759 0.0
C712 C 0.50821 0.08974 0.87166 0.0
N713 N 0.50299 0.09975 0.87755 0.0
H714 H 0.50942 0.12325 0.88273 0.0
H715 H 0.50076 0.07753 0.87478 0.0
H716 H 0.50731 0.10185 0.95116 0.0
H717 H 0.47482 0.05766 0.91947 0.0
O718 O 0.48737 0.10795 0.92706 0.0
O719 O 0.46469 0.08677 0.92198 0.0
O720 O 0.47365 0.07257 0.86927 0.0
C721 C 0.47326 0.09965 0.93691 0.0
H722 H 0.45109 0.10379 0.82041 0.0
H723 H 0.51086 0.08163 0.98473 0.0
H724 H 0.52718 0.0867 0.85949 0.0
H725 H 0.53621 0.13329 0.86741 0.0
Co726 Co 0.90913 0.39219 0.8973 0.0
C727 C 0.88472 0.36381 0.8669 0.0
C728 C 0.90718 0.36824 0.85405 0.0
C729 C 0.89653 0.35413 0.84201 0.0
N730 N 0.89978 0.37456 0.86896 0.0
N731 N 0.88241 0.35133 0.85035 0.0
H732 H 0.87567 0.36449 0.87917 0.0
H733 H 0.91951 0.37302 0.85379 0.0
C734 C 0.9289 0.40329 0.83935 0.0
O735 O 0.91609 0.39768 0.82292 0.0
N736 N 0.91811 0.40926 0.92639 0.0
C737 C 0.90999 0.41343 0.94526 0.0
C738 C 0.92003 0.42621 0.96217 0.0
C739 C 0.93301 0.41958 0.93187 0.0
N740 N 0.93448 0.43008 0.95375 0.0
C741 C 0.88459 0.39722 0.87623 0.0
C742 C 0.90367 0.42658 0.85342 0.0
C743 C 0.88782 0.42098 0.85434 0.0
C744 C 0.8782 0.40605 0.86576 0.0
C745 C 0.90956 0.4175 0.86447 0.0
N746 N 0.90009 0.40282 0.87501 0.0
H747 H 0.8771 0.38636 0.88738 0.0
H748 H 0.92188 0.42277 0.86641 0.0
H749 H 0.89758 0.40774 0.94615 0.0
H750 H 0.94252 0.41947 0.92008 0.0
O751 O 0.89308 0.38081 0.92807 0.0
O752 O 0.91505 0.38071 0.92511 0.0
O753 O 0.92831 0.40229 0.86969 0.0
C754 C 0.90196 0.37599 0.93947 0.0
H755 H 0.89904 0.34606 0.83022 0.0
H756 H 0.91692 0.4325 0.97858 0.0
H757 H 0.91159 0.43828 0.84615 0.0
H758 H 0.86591 0.40143 0.86764 0.0
Co759 Co 0.60759 0.5159 0.89784 0.0
C760 C 0.63635 0.52054 0.86757 0.0
C761 C 0.63302 0.5398 0.86083 0.0
C762 C 0.64727 0.54355 0.84919 0.0
N763 N 0.62601 0.52524 0.87181 0.0
N764 N 0.6494 0.53145 0.85363 0.0
H765 H 0.63484 0.50978 0.87611 0.0
H766 H 0.62846 0.5475 0.86284 0.0
C767 C 0.59847 0.5259 0.83905 0.0
O768 O 0.60522 0.51966 0.82312 0.0
N769 N 0.58963 0.5067 0.9246 0.0
C770 C 0.58531 0.49411 0.94261 0.0
C771 C 0.57149 0.49009 0.95663 0.0
C772 C 0.57839 0.51022 0.92785 0.0
N773 N 0.56709 0.50015 0.94724 0.0
C774 C 0.60348 0.4866 0.8778 0.0
C775 C 0.57538 0.47663 0.84881 0.0
C776 C 0.58064 0.46621 0.85274 0.0
C777 C 0.59497 0.47138 0.86717 0.0
C778 C 0.58408 0.49158 0.86022 0.0
N779 N 0.59816 0.49664 0.87394 0.0
H780 H 0.6137 0.48982 0.89148 0.0
H781 H 0.57873 0.49858 0.86024 0.0
H782 H 0.59164 0.48806 0.94487 0.0
H783 H 0.57824 0.5196 0.91558 0.0
O784 O 0.6185 0.51117 0.92967 0.0
O785 O 0.61777 0.53282 0.92734 0.0
O786 O 0.59797 0.52514 0.86941 0.0
C787 C 0.62256 0.52456 0.94187 0.0
H788 H 0.65579 0.55469 0.84016 0.0
H789 H 0.56517 0.48047 0.97249 0.0
H790 H 0.56406 0.47294 0.83918 0.0
H791 H 0.59925 0.46356 0.87146 0.0
Co792 Co 0.57709 0.85032 0.7279 0.0
C793 C 0.5536 0.85597 0.6981 0.0
C794 C 0.57645 0.87462 0.69042 0.0
C795 C 0.56622 0.87887 0.6793 0.0
N796 N 0.56855 0.86012 0.70168 0.0
N797 N 0.55185 0.86711 0.68427 0.0
H798 H 0.54416 0.84574 0.7081 0.0
H799 H 0.58878 0.88197 0.69188 0.0
C800 C 0.59652 0.85986 0.66949 0.0
O801 O 0.5836 0.85414 0.65341 0.0
N802 N 0.58529 0.84069 0.7549 0.0
C803 C 0.57669 0.8278 0.77185 0.0
C804 C 0.58626 0.82374 0.78678 0.0
C805 C 0.60001 0.84439 0.75976 0.0
N806 N 0.6009 0.83412 0.7791 0.0
C807 C 0.55146 0.82159 0.70662 0.0
C808 C 0.56911 0.81047 0.68001 0.0
C809 C 0.55326 0.80052 0.68312 0.0
C810 C 0.54436 0.80635 0.69607 0.0
C811 C 0.57573 0.82555 0.69093 0.0
N812 N 0.56697 0.83113 0.70375 0.0
H813 H 0.54456 0.82516 0.71959 0.0
H814 H 0.58811 0.83222 0.6915 0.0
H815 H 0.56427 0.82163 0.77285 0.0
H816 H 0.60977 0.85409 0.74877 0.0
O817 O 0.56136 0.84584 0.75934 0.0
O818 O 0.58401 0.86721 0.75764 0.0
O819 O 0.59613 0.8591 0.69986 0.0
C820 C 0.5708 0.85914 0.77178 0.0
H821 H 0.56915 0.88997 0.66958 0.0
H822 H 0.5827 0.81391 0.80219 0.0
H823 H 0.57658 0.80635 0.67149 0.0
H824 H 0.5321 0.799 0.69952 0.0
Co825 Co 0.15058 0.72601 0.72811 0.0
C826 C 0.14658 0.69765 0.69737 0.0
C827 C 0.12909 0.70267 0.68332 0.0
C828 C 0.12544 0.6885 0.67137 0.0
N829 N 0.1426 0.70866 0.699 0.0
N830 N 0.13641 0.68532 0.6804 0.0
H831 H 0.15574 0.69782 0.71102 0.0
H832 H 0.12177 0.70769 0.68247 0.0
C833 C 0.14261 0.73785 0.67054 0.0
O834 O 0.15031 0.73274 0.65426 0.0
N835 N 0.15828 0.74276 0.75803 0.0
C836 C 0.17053 0.74694 0.77704 0.0
C837 C 0.17295 0.75945 0.79455 0.0
C838 C 0.15339 0.75279 0.76408 0.0
N839 N 0.1622 0.76314 0.78641 0.0
C840 C 0.18018 0.73132 0.70597 0.0
C841 C 0.19105 0.76171 0.68978 0.0
C842 C 0.20128 0.7561 0.68992 0.0
C843 C 0.19563 0.74059 0.69724 0.0
C844 C 0.17578 0.75211 0.6984 0.0
N845 N 0.17039 0.73707 0.70644 0.0
H846 H 0.17653 0.71996 0.7147 0.0
H847 H 0.16861 0.75723 0.70089 0.0
H848 H 0.17744 0.74145 0.77759 0.0
H849 H 0.14371 0.75259 0.75235 0.0
O850 O 0.15522 0.71449 0.75848 0.0
O851 O 0.13302 0.71415 0.75526 0.0
O852 O 0.14161 0.73627 0.70076 0.0
C853 C 0.14144 0.70948 0.76962 0.0
H854 H 0.11509 0.68084 0.65843 0.0
H855 H 0.18224 0.7657 0.81119 0.0
H856 H 0.19499 0.77368 0.68454 0.0
H857 H 0.2033 0.73594 0.69838 0.0
Co858 Co 0.27531 0.42485 0.73089 0.0
C859 C 0.30378 0.44916 0.70029 0.0
C860 C 0.30058 0.42666 0.69284 0.0
C861 C 0.31479 0.43728 0.68125 0.0
N862 N 0.2935 0.43407 0.70422 0.0
N863 N 0.31684 0.45145 0.68615 0.0
H864 H 0.30225 0.45831 0.70939 0.0
H865 H 0.29614 0.41441 0.69473 0.0
C866 C 0.26596 0.40532 0.67262 0.0
O867 O 0.27242 0.41821 0.65633 0.0
N868 N 0.25758 0.41601 0.75834 0.0
C869 C 0.25327 0.42429 0.77633 0.0
C870 C 0.23955 0.41449 0.79067 0.0
C871 C 0.24644 0.40122 0.76194 0.0
N872 N 0.2352 0.40001 0.78152 0.0
C873 C 0.27029 0.44948 0.71093 0.0
C874 C 0.24172 0.43051 0.68463 0.0
C875 C 0.24631 0.44599 0.68966 0.0
C876 C 0.26104 0.45565 0.70204 0.0
C877 C 0.25112 0.42479 0.69432 0.0
N878 N 0.26533 0.43418 0.70718 0.0
H879 H 0.28075 0.45679 0.72365 0.0
H880 H 0.24617 0.4125 0.69405 0.0
H881 H 0.25949 0.43668 0.77827 0.0
H882 H 0.24627 0.39167 0.74974 0.0
O883 O 0.28625 0.44077 0.76219 0.0
O884 O 0.286 0.41862 0.7602 0.0
O885 O 0.26573 0.40578 0.703 0.0
C886 C 0.29065 0.43171 0.77444 0.0
H887 H 0.32337 0.43477 0.67213 0.0
H888 H 0.23323 0.41779 0.80654 0.0
H889 H 0.23045 0.42258 0.67517 0.0
H890 H 0.26492 0.46761 0.70716 0.0
Co891 Co 0.51794 0.91006 0.10375 0.0
C892 C 0.52206 0.88583 0.13497 0.0
C893 C 0.53985 0.90844 0.14764 0.0
C894 C 0.54331 0.89797 0.16056 0.0
N895 N 0.52627 0.90084 0.13233 0.0
N896 N 0.53215 0.88371 0.1524 0.0
H897 H 0.51265 0.87675 0.12206 0.0
H898 H 0.54722 0.92078 0.148 0.0
C899 C 0.52603 0.92956 0.16191 0.0
O900 O 0.51868 0.91664 0.17796 0.0
N901 N 0.50983 0.91895 0.07443 0.0
C902 C 0.49781 0.91079 0.05495 0.0
C903 C 0.4948 0.92076 0.0385 0.0
C904 C 0.51397 0.93381 0.06976 0.0
N905 N 0.50492 0.9352 0.04782 0.0
C906 C 0.48839 0.8853 0.12457 0.0
C907 C 0.47774 0.90418 0.14671 0.0
C908 C 0.46762 0.88831 0.14589 0.0
C909 C 0.47311 0.87879 0.13477 0.0
C910 C 0.49276 0.91019 0.13587 0.0
N911 N 0.49815 0.90083 0.12566 0.0
H912 H 0.49194 0.87788 0.11377 0.0
H913 H 0.49971 0.92252 0.13387 0.0
H914 H 0.4914 0.89838 0.05345 0.0
H915 H 0.52325 0.94333 0.08229 0.0
O916 O 0.51355 0.89407 0.07302 0.0
O917 O 0.5355 0.91615 0.07622 0.0
O918 O 0.52674 0.92917 0.13157 0.0
C919 C 0.52727 0.90304 0.06182 0.0
H920 H 0.55359 0.90079 0.17386 0.0
H921 H 0.48548 0.91757 0.02185 0.0
H922 H 0.47382 0.91202 0.15376 0.0
H923 H 0.46552 0.86648 0.13295 0.0
Co924 Co 0.09118 0.60895 0.10507 0.0
C925 C 0.11619 0.63654 0.13668 0.0
C926 C 0.09396 0.6332 0.14806 0.0
C927 C 0.10491 0.64713 0.16025 0.0
N928 N 0.10101 0.62634 0.13387 0.0
N929 N 0.11891 0.64928 0.15288 0.0
H930 H 0.12505 0.6353 0.12513 0.0
H931 H 0.08172 0.62893 0.14761 0.0
C932 C 0.07165 0.59823 0.16311 0.0
O933 O 0.08454 0.60342 0.1791 0.0
N934 N 0.0817 0.5921 0.07545 0.0
C935 C 0.08952 0.58787 0.05584 0.0
C936 C 0.07922 0.57514 0.03915 0.0
C937 C 0.06671 0.58186 0.07062 0.0
N938 N 0.0649 0.57135 0.04843 0.0
C939 C 0.11491 0.60243 0.12519 0.0
C940 C 0.09468 0.5728 0.14502 0.0
C941 C 0.11032 0.57757 0.14309 0.0
C942 C 0.12058 0.59273 0.13386 0.0
C943 C 0.08952 0.58279 0.13623 0.0
N944 N 0.09953 0.59751 0.12667 0.0
H945 H 0.12278 0.61335 0.11474 0.0
H946 H 0.07726 0.57812 0.13478 0.0
H947 H 0.10191 0.59341 0.05442 0.0
H948 H 0.05738 0.58198 0.08322 0.0
O949 O 0.10739 0.62011 0.07452 0.0
O950 O 0.08586 0.62107 0.07781 0.0
O951 O 0.07204 0.5993 0.13278 0.0
C952 C 0.09886 0.6254 0.06338 0.0
H953 H 0.10268 0.65551 0.17147 0.0
H954 H 0.08207 0.56879 0.02237 0.0
H955 H 0.08634 0.56112 0.1517 0.0
H956 H 0.13273 0.59669 0.13115 0.0
Co957 Co 0.39201 0.48349 0.10896 0.0
C958 C 0.36376 0.4798 0.13949 0.0
C959 C 0.36855 0.46222 0.15403 0.0
C960 C 0.35447 0.45883 0.16615 0.0
N961 N 0.37464 0.47564 0.13799 0.0
N962 N 0.35144 0.46986 0.15676 0.0
H963 H 0.36421 0.48919 0.12626 0.0
H964 H 0.37341 0.45476 0.15496 0.0
C965 C 0.4037 0.47562 0.16694 0.0
O966 O 0.39857 0.48338 0.18293 0.0
N967 N 0.40883 0.49117 0.07914 0.0
C968 C 0.41284 0.50325 0.05976 0.0
C969 C 0.42601 0.50641 0.0439 0.0
C970 C 0.41959 0.48706 0.07481 0.0
N971 N 0.43032 0.49632 0.05348 0.0
C972 C 0.39744 0.51329 0.12975 0.0
C973 C 0.42764 0.52405 0.14732 0.0
C974 C 0.42215 0.53436 0.1462 0.0
C975 C 0.40672 0.52877 0.13814 0.0
C976 C 0.41803 0.50874 0.13896 0.0
N977 N 0.40306 0.50339 0.13032 0.0
H978 H 0.38621 0.5097 0.12034 0.0
H979 H 0.42311 0.50152 0.13715 0.0
H980 H 0.40683 0.50965 0.05798 0.0
H981 H 0.41994 0.47795 0.08784 0.0
O982 O 0.38049 0.48804 0.07838 0.0
O983 O 0.38013 0.46586 0.08194 0.0
O984 O 0.4022 0.47456 0.13669 0.0
C985 C 0.37544 0.47422 0.06746 0.0
H986 H 0.34656 0.44844 0.17872 0.0
H987 H 0.43203 0.51556 0.02684 0.0
H988 H 0.43954 0.52793 0.15314 0.0
H989 H 0.40217 0.5365 0.13616 0.0
Co990 Co 0.09219 0.4842 0.60944 0.0
C991 C 0.11635 0.47953 0.639 0.0
C992 C 0.0938 0.46188 0.65235 0.0
C993 C 0.1043 0.45828 0.66458 0.0
N994 N 0.10136 0.47547 0.63705 0.0
N995 N 0.11853 0.46937 0.65603 0.0
H996 H 0.12537 0.48888 0.62585 0.0
H997 H 0.08144 0.45461 0.6532 0.0
C998 C 0.07278 0.47584 0.66794 0.0
O999 O 0.08568 0.48288 0.6841 0.0
N1000 N 0.08337 0.49278 0.58112 0.0
C1001 C 0.09162 0.50529 0.5629 0.0
C1002 C 0.08173 0.5089 0.54786 0.0
C1003 C 0.06855 0.48885 0.57691 0.0
N1004 N 0.06726 0.49863 0.55678 0.0
C1005 C 0.11734 0.51339 0.63064 0.0
C1006 C 0.09894 0.52449 0.6534 0.0
C1007 C 0.11485 0.53446 0.65199 0.0
C1008 C 0.12412 0.52868 0.64081 0.0
C1009 C 0.09266 0.50939 0.64285 0.0
N1010 N 0.10178 0.50382 0.63206 0.0
H1011 H 0.12457 0.50972 0.61941 0.0
H1012 H 0.08031 0.50258 0.64126 0.0
H1013 H 0.10403 0.51161 0.56131 0.0
H1014 H 0.059 0.47944 0.58911 0.0
O1015 O 0.10796 0.48863 0.57811 0.0
O1016 O 0.08572 0.46684 0.58123 0.0
O1017 O 0.0732 0.4754 0.63758 0.0
C1018 C 0.09877 0.47502 0.56661 0.0
H1019 H 0.10153 0.44797 0.67775 0.0
H1020 H 0.08498 0.51842 0.53172 0.0
H1021 H 0.09125 0.52857 0.66052 0.0
H1022 H 0.13645 0.53607 0.63869 0.0
Co1023 Co 0.51897 0.60958 0.60922 0.0
C1024 C 0.52253 0.6378 0.63986 0.0
C1025 C 0.54043 0.63328 0.65337 0.0
C1026 C 0.54387 0.64739 0.66527 0.0
N1027 N 0.52681 0.62701 0.63806 0.0
N1028 N 0.53265 0.65028 0.65656 0.0
H1029 H 0.51315 0.63734 0.62655 0.0
H1030 H 0.54793 0.62847 0.65404 0.0
C1031 C 0.52733 0.59823 0.66697 0.0
O1032 O 0.51968 0.60341 0.68317 0.0
N1033 N 0.51136 0.59274 0.57954 0.0
C1034 C 0.49914 0.58847 0.56041 0.0
C1035 C 0.49671 0.57584 0.5433 0.0
C1036 C 0.51622 0.58263 0.57399 0.0
N1037 N 0.50741 0.57216 0.55184 0.0
C1038 C 0.48912 0.60376 0.63087 0.0
C1039 C 0.47895 0.57366 0.64836 0.0
C1040 C 0.46837 0.57884 0.64739 0.0
C1041 C 0.47367 0.59424 0.63944 0.0
C1042 C 0.49415 0.58347 0.63967 0.0
N1043 N 0.49921 0.59838 0.63104 0.0
H1044 H 0.49253 0.61501 0.6217 0.0
H1045 H 0.50152 0.57856 0.63753 0.0
H1046 H 0.49223 0.59395 0.55954 0.0
H1047 H 0.52584 0.58285 0.58599 0.0
O1048 O 0.51406 0.62087 0.57875 0.0
O1049 O 0.53641 0.62152 0.58183 0.0
O1050 O 0.52821 0.59962 0.6367 0.0
C1051 C 0.52784 0.62599 0.56747 0.0
H1052 H 0.55423 0.65521 0.67801 0.0
H1053 H 0.48742 0.5695 0.52671 0.0
H1054 H 0.47533 0.56183 0.65422 0.0
H1055 H 0.46575 0.59856 0.63769 0.0
Co1056 Co 0.39291 0.90907 0.60709 0.0
C1057 C 0.36499 0.88474 0.63887 0.0
C1058 C 0.37021 0.90721 0.65372 0.0
C1059 C 0.35611 0.89667 0.66596 0.0
N1060 N 0.376 0.89973 0.63721 0.0
N1061 N 0.35282 0.88255 0.65645 0.0
H1062 H 0.36497 0.87577 0.62476 0.0
H1063 H 0.37526 0.91955 0.65481 0.0
C1064 C 0.40577 0.92922 0.66399 0.0
O1065 O 0.40164 0.91663 0.68043 0.0
N1066 N 0.40929 0.91803 0.57618 0.0
C1067 C 0.41284 0.90979 0.55621 0.0
C1068 C 0.42592 0.91961 0.53989 0.0
C1069 C 0.42027 0.93283 0.57175 0.0
N1070 N 0.43067 0.93407 0.54981 0.0
C1071 C 0.39869 0.88502 0.62884 0.0
C1072 C 0.42929 0.90475 0.64309 0.0
C1073 C 0.42373 0.88892 0.64344 0.0
C1074 C 0.40812 0.87895 0.63707 0.0
C1075 C 0.41955 0.9103 0.63491 0.0
N1076 N 0.40439 0.90055 0.62791 0.0
H1077 H 0.38719 0.87721 0.62096 0.0
H1078 H 0.42458 0.92256 0.63218 0.0
H1079 H 0.40664 0.89739 0.55441 0.0
H1080 H 0.42105 0.94235 0.58527 0.0
O1081 O 0.38107 0.89271 0.57729 0.0
O1082 O 0.3806 0.91449 0.5807 0.0
O1083 O 0.40328 0.92843 0.63404 0.0
C1084 C 0.37586 0.90137 0.56647 0.0
H1085 H 0.34851 0.89931 0.67932 0.0
H1086 H 0.43162 0.91631 0.52239 0.0
H1087 H 0.4413 0.91286 0.64771 0.0
H1088 H 0.40348 0.86663 0.63637 0.0
Co1089 Co 0.14997 0.42445 0.23176 0.0
C1090 C 0.14537 0.44839 0.20069 0.0
C1091 C 0.12651 0.4257 0.19263 0.0
C1092 C 0.12273 0.43609 0.18053 0.0
N1093 N 0.14086 0.43338 0.20469 0.0
N1094 N 0.13458 0.45038 0.18579 0.0
H1095 H 0.15582 0.4577 0.21022 0.0
H1096 H 0.11891 0.41341 0.1943 0.0
C1097 C 0.14058 0.40497 0.17346 0.0
O1098 O 0.14711 0.41789 0.15729 0.0
N1099 N 0.1589 0.41581 0.25954 0.0
C1100 C 0.17144 0.42411 0.27766 0.0
C1101 C 0.1752 0.41429 0.29247 0.0
C1102 C 0.15514 0.40102 0.26353 0.0
N1103 N 0.16502 0.3998 0.28348 0.0
C1104 C 0.17929 0.44946 0.2111 0.0
C1105 C 0.18959 0.43103 0.1849 0.0
C1106 C 0.19987 0.44681 0.1876 0.0
C1107 C 0.19453 0.45611 0.20061 0.0
C1108 C 0.17459 0.42485 0.19601 0.0
N1109 N 0.16937 0.43401 0.20833 0.0
H1110 H 0.17596 0.45663 0.22377 0.0
H1111 H 0.16764 0.4125 0.19688 0.0
H1112 H 0.17764 0.43651 0.27942 0.0
H1113 H 0.14574 0.39146 0.25136 0.0
O1114 O 0.15466 0.44036 0.26288 0.0
O1115 O 0.1329 0.41806 0.26084 0.0
O1116 O 0.14087 0.40537 0.20386 0.0
C1117 C 0.1412 0.43121 0.27503 0.0
H1118 H 0.11169 0.43333 0.17072 0.0
H1119 H 0.18475 0.4176 0.30856 0.0
H1120 H 0.1934 0.4233 0.1764 0.0
H1121 H 0.20222 0.46832 0.20392 0.0
Co1122 Co 0.57651 0.72624 0.23154 0.0
C1123 C 0.55134 0.69853 0.20038 0.0
C1124 C 0.57352 0.70146 0.19011 0.0
C1125 C 0.56252 0.68752 0.1781 0.0
N1126 N 0.56655 0.70856 0.20353 0.0
N1127 N 0.54855 0.68563 0.18476 0.0
H1128 H 0.54249 0.70007 0.21112 0.0
H1129 H 0.58574 0.70563 0.1909 0.0
C1130 C 0.5957 0.73628 0.17281 0.0
O1131 O 0.58277 0.73074 0.15681 0.0
N1132 N 0.58618 0.74342 0.26028 0.0
C1133 C 0.57856 0.74784 0.28004 0.0
C1134 C 0.58905 0.76071 0.29616 0.0
C1135 C 0.60122 0.75369 0.26442 0.0
N1136 N 0.60326 0.76439 0.28633 0.0
C1137 C 0.5524 0.73242 0.21335 0.0
C1138 C 0.57187 0.76134 0.18909 0.0
C1139 C 0.55633 0.75674 0.19319 0.0
C1140 C 0.54645 0.7419 0.20479 0.0
C1141 C 0.57735 0.75165 0.1983 0.0
N1142 N 0.56768 0.73723 0.20988 0.0
H1143 H 0.54488 0.72181 0.22536 0.0
H1144 H 0.58963 0.75639 0.19833 0.0
H1145 H 0.56619 0.74228 0.28208 0.0
H1146 H 0.61042 0.75341 0.25167 0.0
O1147 O 0.56066 0.71524 0.26292 0.0
O1148 O 0.58231 0.71455 0.25895 0.0
O1149 O 0.59538 0.73573 0.20318 0.0
C1150 C 0.56942 0.71017 0.27385 0.0
H1151 H 0.56467 0.67898 0.16743 0.0
H1152 H 0.58639 0.76717 0.31303 0.0
H1153 H 0.57999 0.77272 0.18036 0.0
H1154 H 0.53445 0.73802 0.20934 0.0
Co1155 Co 0.27546 0.85102 0.23094 0.0
C1156 C 0.3038 0.85486 0.20031 0.0
C1157 C 0.29914 0.87263 0.18663 0.0
C1158 C 0.31313 0.87597 0.17412 0.0
N1159 N 0.29301 0.85911 0.20231 0.0
N1160 N 0.31608 0.86482 0.18294 0.0
H1161 H 0.30331 0.84533 0.21307 0.0
H1162 H 0.2943 0.88012 0.18603 0.0
C1163 C 0.2641 0.85928 0.173 0.0
O1164 O 0.26937 0.8517 0.15683 0.0
N1165 N 0.25845 0.84309 0.26037 0.0
C1166 C 0.25443 0.83092 0.27952 0.0
C1167 C 0.24116 0.8276 0.29518 0.0
C1168 C 0.24759 0.84708 0.26463 0.0
N1169 N 0.2368 0.83767 0.2857 0.0
C1170 C 0.27018 0.82134 0.20974 0.0
C1171 C 0.24012 0.81071 0.19126 0.0
C1172 C 0.24557 0.80037 0.19256 0.0
C1173 C 0.26094 0.80589 0.20105 0.0
C1174 C 0.24969 0.82597 0.19994 0.0
N1175 N 0.26459 0.83126 0.20903 0.0
H1176 H 0.28133 0.82486 0.21954 0.0
H1177 H 0.2446 0.83319 0.20169 0.0
H1178 H 0.26049 0.82459 0.2813 0.0
H1179 H 0.24725 0.85623 0.25176 0.0
O1180 O 0.28685 0.84633 0.26156 0.0
O1181 O 0.28711 0.86849 0.25845 0.0
O1182 O 0.26539 0.86008 0.20329 0.0
C1183 C 0.29175 0.86007 0.27286 0.0
H1184 H 0.32101 0.88636 0.16152 0.0
H1185 H 0.23514 0.81838 0.31207 0.0
H1186 H 0.22826 0.80686 0.18514 0.0
H1187 H 0.26543 0.79812 0.20319 0.0
H1188 H 0.37276 0.1524 0.25286 0.0
H1189 H 0.34983 0.15354 0.23725 0.0
H1190 H 0.37006 0.17129 0.1456 0.0
H1191 H 0.39274 0.1698 0.16069 0.0
H1192 H 0.3498 0.18064 0.21879 0.0
H1193 H 0.3267 0.1366 0.12357 0.0
H1194 H 0.34054 0.13773 0.15237 0.0
H1195 H 0.34669 0.15064 0.11906 0.0
C1196 C 0.37216 0.15621 0.22917 0.0
C1197 C 0.38455 0.16103 0.20799 0.0
C1198 C 0.35913 0.15697 0.22038 0.0
C1199 C 0.35823 0.16237 0.1902 0.0
C1200 C 0.37044 0.16687 0.16883 0.0
H1201 H 0.29361 0.1808 0.09112 0.0
H1202 H 0.3166 0.18021 0.10835 0.0
C1203 C 0.38344 0.16615 0.1776 0.0
C1204 C 0.34497 0.16417 0.18152 0.0
H1205 H 0.31613 0.15309 0.12728 0.0
C1206 C 0.34234 0.17454 0.19895 0.0
C1207 C 0.33538 0.15627 0.15548 0.0
C1208 C 0.33735 0.14458 0.13668 0.0
C1209 C 0.33051 0.17745 0.19062 0.0
C1210 C 0.32097 0.1696 0.16449 0.0
C1211 C 0.32357 0.15918 0.14715 0.0
C1212 C 0.30785 0.17155 0.15532 0.0
C1213 C 0.32852 0.18913 0.2094 0.0
C1214 C 0.29546 0.16706 0.17619 0.0
C1215 C 0.28239 0.16746 0.16648 0.0
C1216 C 0.28144 0.17226 0.13564 0.0
C1217 C 0.29408 0.17723 0.11512 0.0
C1218 C 0.30716 0.17679 0.12484 0.0
H1219 H 0.3391 0.19701 0.22283 0.0
H1220 H 0.32551 0.19608 0.19362 0.0
H1221 H 0.31904 0.18305 0.22672 0.0
H1222 H 0.29568 0.16277 0.19964 0.0
H1223 H 0.27289 0.16372 0.1829 0.0
H1224 H 0.80483 0.10168 0.12253 0.0
H1225 H 0.80522 0.12515 0.14026 0.0
H1226 H 0.85414 0.14694 0.15577 0.0
H1227 H 0.85384 0.1237 0.13809 0.0
H1228 H 0.83796 0.14961 0.20705 0.0
H1229 H 0.82243 0.16641 0.09327 0.0
H1230 H 0.80945 0.14709 0.10614 0.0
H1231 H 0.82881 0.15251 0.09531 0.0
C1232 C 0.81567 0.11155 0.12936 0.0
C1233 C 0.82927 0.11081 0.12914 0.0
C1234 C 0.81589 0.12493 0.13946 0.0
C1235 C 0.82974 0.13778 0.14911 0.0
C1236 C 0.84333 0.13711 0.14851 0.0
H1237 H 0.85886 0.22946 0.22058 0.0
H1238 H 0.85761 0.20548 0.20387 0.0
C1239 C 0.84312 0.12379 0.13856 0.0
C1240 C 0.83014 0.15183 0.16081 0.0
H1241 H 0.82433 0.18117 0.13856 0.0
C1242 C 0.835 0.15655 0.19211 0.0
C1243 C 0.82629 0.16081 0.14117 0.0
C1244 C 0.82157 0.15657 0.10701 0.0
C1245 C 0.83596 0.16996 0.20444 0.0
C1246 C 0.83218 0.17896 0.18476 0.0
C1247 C 0.82724 0.17422 0.15352 0.0
C1248 C 0.83301 0.19326 0.19619 0.0
C1249 C 0.84075 0.17425 0.23855 0.0
C1250 C 0.81962 0.1943 0.19718 0.0
C1251 C 0.82031 0.20792 0.20663 0.0
C1252 C 0.83443 0.22082 0.21507 0.0
C1253 C 0.84782 0.21968 0.21451 0.0
C1254 C 0.84712 0.20601 0.20498 0.0
H1255 H 0.83978 0.16439 0.25239 0.0
H1256 H 0.85293 0.18363 0.23931 0.0
H1257 H 0.83364 0.17847 0.2502 0.0
H1258 H 0.80863 0.18455 0.19057 0.0
H1259 H 0.80974 0.2083 0.2074 0.0
H1260 H 0.76802 0.63074 0.21509 0.0
H1261 H 0.79138 0.65385 0.19677 0.0
H1262 H 0.81318 0.6268 0.18057 0.0
H1263 H 0.79008 0.60386 0.19878 0.0
H1264 H 0.82198 0.66739 0.21935 0.0
H1265 H 0.8175 0.64776 0.09472 0.0
H1266 H 0.80167 0.63884 0.12232 0.0
H1267 H 0.81681 0.63424 0.12344 0.0
C1268 C 0.77784 0.62979 0.20777 0.0
C1269 C 0.77712 0.61545 0.20784 0.0
C1270 C 0.79112 0.64294 0.19722 0.0
C1271 C 0.80383 0.64192 0.18661 0.0
C1272 C 0.80332 0.62774 0.18777 0.0
H1273 H 0.89554 0.70539 0.11718 0.0
H1274 H 0.87183 0.68274 0.13538 0.0
C1275 C 0.7901 0.61464 0.19816 0.0
C1276 C 0.81777 0.65564 0.17458 0.0
H1277 H 0.8411 0.66978 0.10968 0.0
C1278 C 0.82612 0.66799 0.19531 0.0
C1279 C 0.82312 0.65631 0.14323 0.0
C1280 C 0.81425 0.64365 0.11952 0.0
C1281 C 0.83991 0.68091 0.18571 0.0
C1282 C 0.84532 0.68151 0.15445 0.0
C1283 C 0.83694 0.6692 0.13368 0.0
C1284 C 0.85949 0.69502 0.14266 0.0
C1285 C 0.84876 0.69366 0.20925 0.0
C1286 C 0.86019 0.70925 0.14001 0.0
C1287 C 0.87362 0.72212 0.12948 0.0
C1288 C 0.88662 0.72102 0.12133 0.0
C1289 C 0.88573 0.70661 0.12316 0.0
C1290 C 0.87224 0.6937 0.13369 0.0
H1291 H 0.84507 0.68984 0.23405 0.0
H1292 H 0.8613 0.69801 0.2073 0.0
H1293 H 0.84675 0.70335 0.20415 0.0
H1294 H 0.85033 0.7104 0.14607 0.0
H1295 H 0.87376 0.73293 0.12758 0.0
H1296 H 0.18991 0.3977 0.30006 0.0
H1297 H 0.19028 0.37475 0.31757 0.0
H1298 H 0.14117 0.34779 0.30472 0.0
H1299 H 0.14068 0.37083 0.28734 0.0
H1300 H 0.17433 0.35606 0.36983 0.0
H1301 H 0.15781 0.32344 0.2564 0.0
H1302 H 0.16448 0.34378 0.25834 0.0
H1303 H 0.1451 0.33007 0.26955 0.0
C1304 C 0.17916 0.38692 0.30109 0.0
C1305 C 0.16523 0.3861 0.29249 0.0
C1306 C 0.17942 0.37381 0.31093 0.0
C1307 C 0.16578 0.3596 0.31218 0.0
C1308 C 0.15185 0.35864 0.30338 0.0
H1309 H 0.14401 0.26884 0.37172 0.0
H1310 H 0.14363 0.29173 0.35387 0.0
C1311 C 0.15158 0.37179 0.29347 0.0
C1312 C 0.16618 0.34594 0.32377 0.0
H1313 H 0.15954 0.31047 0.30175 0.0
C1314 C 0.17114 0.34609 0.35496 0.0
C1315 C 0.16203 0.33302 0.30422 0.0
C1316 C 0.15717 0.33254 0.27017 0.0
C1317 C 0.17184 0.3335 0.36736 0.0
C1318 C 0.16769 0.32058 0.3478 0.0
C1319 C 0.16273 0.32043 0.31662 0.0
C1320 C 0.16811 0.30693 0.35941 0.0
C1321 C 0.17668 0.33399 0.40143 0.0
C1322 C 0.18204 0.30793 0.36837 0.0
C1323 C 0.18231 0.29482 0.37849 0.0
C1324 C 0.16867 0.2805 0.37952 0.0
C1325 C 0.15475 0.27963 0.37068 0.0
C1326 C 0.15449 0.2927 0.36064 0.0
H1327 H 0.17598 0.34305 0.4152 0.0
H1328 H 0.1694 0.32273 0.41324 0.0
H1329 H 0.18877 0.33651 0.40207 0.0
H1330 H 0.19271 0.31879 0.36704 0.0
H1331 H 0.19322 0.29581 0.3848 0.0
H1332 H 0.6288 0.78103 0.25063 0.0
H1333 H 0.65185 0.80508 0.26608 0.0
H1334 H 0.63239 0.80206 0.35884 0.0
H1335 H 0.60957 0.77798 0.34381 0.0
H1336 H 0.65157 0.83212 0.28667 0.0
H1337 H 0.67627 0.81082 0.37784 0.0
H1338 H 0.66237 0.79832 0.34889 0.0
H1339 H 0.65622 0.80442 0.38325 0.0
C1340 C 0.62961 0.78535 0.2745 0.0
C1341 C 0.61739 0.77767 0.29601 0.0
C1342 C 0.6427 0.79911 0.28321 0.0
C1343 C 0.64383 0.80524 0.31366 0.0
C1344 C 0.63182 0.7974 0.33538 0.0
H1345 H 0.70835 0.88754 0.4147 0.0
H1346 H 0.68553 0.86388 0.39718 0.0
C1347 C 0.61874 0.78372 0.32667 0.0
C1348 C 0.6571 0.8203 0.32232 0.0
H1349 H 0.68645 0.83786 0.37551 0.0
C1350 C 0.6593 0.8334 0.3059 0.0
C1351 C 0.66703 0.82187 0.34758 0.0
C1352 C 0.66548 0.80811 0.36527 0.0
C1353 C 0.67103 0.84814 0.31455 0.0
C1354 C 0.68091 0.84972 0.33994 0.0
C1355 C 0.67876 0.8366 0.35621 0.0
C1356 C 0.69391 0.86482 0.34945 0.0
C1357 C 0.67253 0.86191 0.29697 0.0
C1358 C 0.70603 0.87324 0.32827 0.0
C1359 C 0.719 0.88676 0.33816 0.0
C1360 C 0.72013 0.89205 0.36947 0.0
C1361 C 0.70774 0.88386 0.39035 0.0
C1362 C 0.69476 0.87029 0.38045 0.0
H1363 H 0.66176 0.85915 0.28426 0.0
H1364 H 0.67551 0.87163 0.31344 0.0
H1365 H 0.68186 0.86571 0.27912 0.0
H1366 H 0.70569 0.86909 0.3044 0.0
H1367 H 0.72829 0.89291 0.32146 0.0
H1368 H 0.12578 0.85815 0.37251 0.0
H1369 H 0.14935 0.85913 0.3548 0.0
H1370 H 0.1284 0.81018 0.36846 0.0
H1371 H 0.10455 0.80905 0.386 0.0
H1372 H 0.15902 0.82825 0.39331 0.0
H1373 H 0.15474 0.84312 0.26819 0.0
H1374 H 0.15316 0.85532 0.29731 0.0
H1375 H 0.13859 0.83538 0.29513 0.0
C1376 C 0.12608 0.84754 0.37144 0.0
C1377 C 0.11319 0.83347 0.38021 0.0
C1378 C 0.13958 0.84814 0.36136 0.0
C1379 C 0.14048 0.83469 0.35973 0.0
C1380 C 0.12785 0.82067 0.36936 0.0
H1381 H 0.21 0.81304 0.30415 0.0
H1382 H 0.18696 0.8129 0.32264 0.0
C1383 C 0.11428 0.82005 0.37949 0.0
C1384 C 0.1547 0.83537 0.34817 0.0
H1385 H 0.17802 0.84427 0.28333 0.0
C1386 C 0.16316 0.83167 0.36924 0.0
C1387 C 0.16007 0.83996 0.31681 0.0
C1388 C 0.15112 0.84356 0.29291 0.0
C1389 C 0.17701 0.83263 0.35987 0.0
C1390 C 0.18233 0.83713 0.32845 0.0
C1391 C 0.17391 0.8409 0.30743 0.0
C1392 C 0.1963 0.83736 0.31662 0.0
C1393 C 0.18594 0.82904 0.3838 0.0
C1394 C 0.20902 0.85111 0.30607 0.0
C1395 C 0.22229 0.85124 0.29545 0.0
C1396 C 0.22299 0.83761 0.29516 0.0
C1397 C 0.21001 0.82381 0.30488 0.0
C1398 C 0.19681 0.82369 0.31543 0.0
H1399 H 0.18259 0.82987 0.40853 0.0
H1400 H 0.18357 0.81712 0.37999 0.0
H1401 H 0.1985 0.83695 0.38109 0.0
H1402 H 0.20875 0.86176 0.30657 0.0
H1403 H 0.23209 0.86203 0.28816 0.0
H1404 H 0.73019 0.85578 0.87894 0.0
H1405 H 0.70717 0.85572 0.86044 0.0
H1406 H 0.68133 0.8063 0.86839 0.0
H1407 H 0.70448 0.80628 0.88689 0.0
H1408 H 0.69036 0.84072 0.80582 0.0
H1409 H 0.65437 0.82042 0.91473 0.0
H1410 H 0.67485 0.82773 0.91528 0.0
H1411 H 0.662 0.80856 0.90148 0.0
C1412 C 0.71963 0.84488 0.87672 0.0
C1413 C 0.71917 0.83101 0.88409 0.0
C1414 C 0.70648 0.84489 0.86631 0.0
C1415 C 0.69257 0.83103 0.86322 0.0
C1416 C 0.69193 0.81714 0.87111 0.0
H1417 H 0.60292 0.80903 0.79422 0.0
H1418 H 0.62551 0.80852 0.81376 0.0
C1419 C 0.70513 0.81714 0.88165 0.0
C1420 C 0.67899 0.8312 0.8503 0.0
H1421 H 0.64259 0.82309 0.86839 0.0
C1422 C 0.67991 0.8369 0.81949 0.0
C1423 C 0.66543 0.8262 0.86826 0.0
C1424 C 0.66407 0.82049 0.90188 0.0
C1425 C 0.66752 0.83758 0.80594 0.0
C1426 C 0.65398 0.83265 0.82395 0.0
C1427 C 0.65303 0.82689 0.85472 0.0
C1428 C 0.64055 0.83314 0.81117 0.0
C1429 C 0.6689 0.84328 0.77231 0.0
C1430 C 0.64156 0.84719 0.80324 0.0
C1431 C 0.62862 0.84754 0.79212 0.0
C1432 C 0.61445 0.83384 0.78909 0.0
C1433 C 0.61358 0.8198 0.79681 0.0
C1434 C 0.62649 0.81947 0.80782 0.0
H1435 H 0.67843 0.84309 0.75933 0.0
H1436 H 0.65804 0.83623 0.75903 0.0
H1437 H 0.67128 0.85532 0.77269 0.0
H1438 H 0.65227 0.8579 0.80619 0.0
H1439 H 0.6296 0.85852 0.78672 0.0
H1440 H 0.17051 0.77615 0.84438 0.0
H1441 H 0.17179 0.79992 0.86202 0.0
H1442 H 0.15354 0.80369 0.77199 0.0
H1443 H 0.15227 0.77987 0.75412 0.0
H1444 H 0.18919 0.82854 0.83265 0.0
H1445 H 0.12723 0.81083 0.83689 0.0
H1446 H 0.13386 0.79712 0.83556 0.0
H1447 H 0.13348 0.8068 0.80002 0.0
C1448 C 0.16669 0.78199 0.8284 0.0
C1449 C 0.16136 0.77619 0.7978 0.0
C1450 C 0.16739 0.79553 0.83855 0.0
C1451 C 0.16269 0.80349 0.81838 0.0
C1452 C 0.15697 0.79755 0.78811 0.0
H1453 H 0.1636 0.88956 0.82879 0.0
H1454 H 0.16234 0.86562 0.81254 0.0
C1455 C 0.15624 0.78395 0.77794 0.0
C1456 C 0.16464 0.81846 0.82847 0.0
H1457 H 0.14506 0.83743 0.84309 0.0
C1458 C 0.17955 0.83049 0.83511 0.0
C1459 C 0.15203 0.82091 0.83159 0.0
C1460 C 0.13572 0.80821 0.82593 0.0
C1461 C 0.18223 0.84505 0.84423 0.0
C1462 C 0.16962 0.84753 0.84721 0.0
C1463 C 0.1547 0.83547 0.84071 0.0
C1464 C 0.1716 0.8626 0.85652 0.0
C1465 C 0.19854 0.85776 0.84982 0.0
C1466 C 0.17742 0.86891 0.88652 0.0
C1467 C 0.17817 0.88263 0.89587 0.0
C1468 C 0.17294 0.89011 0.87546 0.0
C1469 C 0.1675 0.88393 0.84516 0.0
C1470 C 0.16681 0.87029 0.83582 0.0
H1471 H 0.20704 0.85506 0.83921 0.0
H1472 H 0.20044 0.8688 0.83978 0.0
H1473 H 0.20073 0.85934 0.87573 0.0
H1474 H 0.18093 0.86299 0.90305 0.0
H1475 H 0.18223 0.88704 0.91948 0.0
H1476 H 0.10254 0.29639 0.88235 0.0
H1477 H 0.12601 0.31928 0.8638 0.0
H1478 H 0.14793 0.29208 0.85146 0.0
H1479 H 0.1247 0.26934 0.86997 0.0
H1480 H 0.15646 0.33292 0.88778 0.0
H1481 H 0.15283 0.31223 0.7642 0.0
H1482 H 0.13678 0.30361 0.79134 0.0
H1483 H 0.15188 0.299 0.79398 0.0
C1484 C 0.1124 0.29536 0.87585 0.0
C1485 C 0.1117 0.28104 0.87712 0.0
C1486 C 0.12575 0.30838 0.86516 0.0
C1487 C 0.13853 0.30724 0.85558 0.0
C1488 C 0.13803 0.29309 0.85788 0.0
H1489 H 0.23035 0.37098 0.78628 0.0
H1490 H 0.20669 0.34815 0.80426 0.0
C1491 C 0.12473 0.28011 0.86844 0.0
C1492 C 0.15254 0.32084 0.84351 0.0
H1493 H 0.17612 0.33461 0.77891 0.0
C1494 C 0.16073 0.33336 0.86393 0.0
C1495 C 0.15806 0.32128 0.81241 0.0
C1496 C 0.14937 0.30838 0.78907 0.0
C1497 C 0.1745 0.34625 0.85425 0.0
C1498 C 0.18004 0.34668 0.82318 0.0
C1499 C 0.17185 0.33417 0.80274 0.0
C1500 C 0.19412 0.36022 0.81122 0.0
C1501 C 0.18318 0.35919 0.87752 0.0
C1502 C 0.19465 0.37437 0.80839 0.0
C1503 C 0.20805 0.38732 0.7981 0.0
C1504 C 0.22116 0.38637 0.79029 0.0
C1505 C 0.22043 0.37204 0.79207 0.0
C1506 C 0.20697 0.35905 0.80245 0.0
H1507 H 0.17956 0.35545 0.90238 0.0
H1508 H 0.19576 0.36379 0.87558 0.0
H1509 H 0.18087 0.36867 0.87219 0.0
H1510 H 0.1847 0.3754 0.81425 0.0
H1511 H 0.2081 0.39809 0.79617 0.0
H1512 H 0.83493 0.60987 0.65658 0.0
H1513 H 0.83285 0.63226 0.64169 0.0
H1514 H 0.84736 0.65105 0.73558 0.0
H1515 H 0.84944 0.6286 0.75068 0.0
H1516 H 0.81323 0.64075 0.67126 0.0
H1517 H 0.87421 0.68757 0.67716 0.0
H1518 H 0.86874 0.66751 0.67532 0.0
H1519 H 0.86725 0.67576 0.71204 0.0
C1520 C 0.83779 0.61882 0.67398 0.0
C1521 C 0.84228 0.61745 0.70484 0.0
C1522 C 0.83663 0.63161 0.66542 0.0
C1523 C 0.84001 0.64332 0.68748 0.0
C1524 C 0.84495 0.64225 0.71805 0.0
H1525 H 0.83399 0.72621 0.68228 0.0
H1526 H 0.83617 0.70397 0.69814 0.0
C1527 C 0.84615 0.62944 0.72664 0.0
C1528 C 0.83743 0.65612 0.67893 0.0
H1529 H 0.85547 0.69503 0.66966 0.0
C1530 C 0.82246 0.65263 0.67079 0.0
C1531 C 0.8495 0.67156 0.67847 0.0
C1532 C 0.86586 0.67588 0.68594 0.0
C1533 C 0.8192 0.66422 0.66254 0.0
C1534 C 0.83128 0.67966 0.66195 0.0
C1535 C 0.84624 0.68316 0.67018 0.0
C1536 C 0.82872 0.69243 0.65287 0.0
C1537 C 0.80282 0.65989 0.65514 0.0
C1538 C 0.82363 0.69319 0.62226 0.0
C1539 C 0.82236 0.7059 0.61314 0.0
C1540 C 0.82634 0.7181 0.6344 0.0
C1541 C 0.83104 0.71707 0.66528 0.0
C1542 C 0.83225 0.70437 0.6744 0.0
H1543 H 0.79449 0.64831 0.6645 0.0
H1544 H 0.80002 0.6684 0.66525 0.0
H1545 H 0.80133 0.65968 0.62903 0.0
H1546 H 0.82112 0.68421 0.6051 0.0
H1547 H 0.81893 0.70648 0.58907 0.0
H1548 H 0.26955 0.12172 0.64049 0.0
H1549 H 0.29232 0.14519 0.65793 0.0
H1550 H 0.32024 0.12448 0.63982 0.0
H1551 H 0.29732 0.10079 0.62223 0.0
H1552 H 0.31153 0.14818 0.70815 0.0
H1553 H 0.34345 0.16599 0.59397 0.0
H1554 H 0.32331 0.15168 0.59621 0.0
H1555 H 0.33767 0.14673 0.60637 0.0
C1556 C 0.28051 0.1221 0.64033 0.0
C1557 C 0.28164 0.10936 0.63025 0.0
C1558 C 0.29351 0.13555 0.65015 0.0
C1559 C 0.30794 0.13659 0.64997 0.0
C1560 C 0.30921 0.12398 0.63962 0.0
H1561 H 0.39808 0.20746 0.70904 0.0
H1562 H 0.37555 0.18374 0.69172 0.0
C1563 C 0.29615 0.11047 0.62963 0.0
C1564 C 0.32149 0.15076 0.6617 0.0
H1565 H 0.35639 0.18058 0.63946 0.0
C1566 C 0.32134 0.1553 0.69314 0.0
C1567 C 0.33421 0.15999 0.64199 0.0
C1568 C 0.33469 0.15597 0.60767 0.0
C1569 C 0.33368 0.16878 0.70556 0.0
C1570 C 0.34638 0.17801 0.68584 0.0
C1571 C 0.34658 0.17345 0.65444 0.0
C1572 C 0.35978 0.19231 0.69746 0.0
C1573 C 0.33318 0.1729 0.7398 0.0
C1574 C 0.35833 0.20498 0.7065 0.0
C1575 C 0.37125 0.21865 0.71628 0.0
C1576 C 0.38581 0.21986 0.71691 0.0
C1577 C 0.38711 0.20703 0.70824 0.0
C1578 C 0.37423 0.19342 0.6985 0.0
H1579 H 0.3243 0.16297 0.75351 0.0
H1580 H 0.34452 0.17708 0.75137 0.0
H1581 H 0.33038 0.18227 0.74087 0.0
H1582 H 0.34727 0.20438 0.70539 0.0
H1583 H 0.36991 0.22836 0.72251 0.0
H1584 H 0.79164 0.18898 0.70075 0.0
H1585 H 0.81489 0.18936 0.68281 0.0
H1586 H 0.79337 0.14052 0.69892 0.0
H1587 H 0.76976 0.13996 0.71609 0.0
H1588 H 0.83342 0.1804 0.71574 0.0
H1589 H 0.80845 0.14588 0.60626 0.0
H1590 H 0.79908 0.15436 0.62807 0.0
H1591 H 0.79824 0.13711 0.6423 0.0
C1592 C 0.79174 0.17827 0.70012 0.0
C1593 C 0.77876 0.16439 0.70942 0.0
C1594 C 0.80509 0.17854 0.69011 0.0
C1595 C 0.80574 0.16494 0.68909 0.0
C1596 C 0.79297 0.1511 0.69903 0.0
H1597 H 0.87576 0.14403 0.63355 0.0
H1598 H 0.85252 0.14365 0.65153 0.0
C1599 C 0.77956 0.15081 0.70911 0.0
C1600 C 0.81988 0.16541 0.67774 0.0
H1601 H 0.83401 0.15263 0.61889 0.0
C1602 C 0.83359 0.17436 0.69454 0.0
C1603 C 0.82 0.15755 0.65001 0.0
C1604 C 0.8057 0.14828 0.63039 0.0
C1605 C 0.84744 0.17547 0.68462 0.0
C1606 C 0.84756 0.16762 0.65689 0.0
C1607 C 0.83385 0.15866 0.64009 0.0
C1608 C 0.8617 0.16809 0.64551 0.0
C1609 C 0.86173 0.18474 0.70427 0.0
C1610 C 0.87449 0.18195 0.63569 0.0
C1611 C 0.88789 0.18224 0.6256 0.0
C1612 C 0.88868 0.16865 0.62514 0.0
C1613 C 0.87568 0.15476 0.63429 0.0
C1614 C 0.86233 0.15448 0.64433 0.0
H1615 H 0.85898 0.18709 0.72843 0.0
H1616 H 0.86838 0.17867 0.70651 0.0
H1617 H 0.86917 0.19593 0.69243 0.0
H1618 H 0.8741 0.19253 0.63592 0.0
H1619 H 0.89771 0.19311 0.61874 0.0
H1620 H 0.96339 0.52607 0.45212 0.0
H1621 H 0.98643 0.52559 0.46979 0.0
H1622 H 0.95978 0.47626 0.47902 0.0
H1623 H 0.93695 0.47661 0.46067 0.0
H1624 H 0.98972 0.51392 0.52885 0.0
H1625 H 0.9973 0.48307 0.42742 0.0
H1626 H 0.98552 0.49195 0.425 0.0
H1627 H 0.97828 0.47358 0.444 0.0
C1628 C 0.96253 0.51513 0.45743 0.0
C1629 C 0.94835 0.5014 0.45516 0.0
C1630 C 0.97564 0.51487 0.46766 0.0
C1631 C 0.97479 0.50087 0.47538 0.0
C1632 C 0.96071 0.48716 0.47273 0.0
H1633 H 0.03849 0.47409 0.55145 0.0
H1634 H 0.01541 0.47444 0.53349 0.0
C1635 C 0.94764 0.48741 0.4626 0.0
C1636 C 0.98839 0.50057 0.48777 0.0
H1637 H 0.01207 0.48598 0.47368 0.0
C1638 C 0.99469 0.50791 0.51672 0.0
C1639 C 0.99472 0.49259 0.47195 0.0
C1640 C 0.98871 0.48496 0.44023 0.0
C1641 C 0.00707 0.50731 0.53057 0.0
C1642 C 0.0134 0.49934 0.51474 0.0
C1643 C 0.00709 0.49198 0.48581 0.0
C1644 C 0.02704 0.49911 0.52708 0.0
C1645 C 0.0131 0.51496 0.56226 0.0
C1646 C 0.04113 0.51284 0.52931 0.0
C1647 C 0.05423 0.51267 0.53955 0.0
C1648 C 0.05352 0.49874 0.54758 0.0
C1649 C 0.03934 0.48499 0.54568 0.0
C1650 C 0.0262 0.48517 0.53529 0.0
H1651 H 0.00456 0.51694 0.57502 0.0
H1652 H 0.01621 0.50793 0.57754 0.0
H1653 H 0.02359 0.52629 0.55847 0.0
H1654 H 0.04204 0.52368 0.52265 0.0
H1655 H 0.06492 0.52347 0.54119 0.0
H1656 H 0.50463 0.44467 0.51174 0.0
H1657 H 0.50624 0.46874 0.52818 0.0
H1658 H 0.48785 0.4718 0.43775 0.0
H1659 H 0.48623 0.44765 0.42111 0.0
H1660 H 0.52374 0.49699 0.49793 0.0
H1661 H 0.46192 0.47991 0.50171 0.0
H1662 H 0.46834 0.46603 0.50099 0.0
H1663 H 0.46812 0.47558 0.46511 0.0
C1664 C 0.50086 0.45043 0.49541 0.0
C1665 C 0.49538 0.44433 0.46508 0.0
C1666 C 0.50174 0.46414 0.50487 0.0
C1667 C 0.49709 0.47199 0.48426 0.0
C1668 C 0.49125 0.46576 0.45422 0.0
H1669 H 0.49918 0.55884 0.49416 0.0
H1670 H 0.49768 0.53484 0.47749 0.0
C1671 C 0.49031 0.45198 0.44475 0.0
C1672 C 0.49921 0.4871 0.49369 0.0
H1673 H 0.47995 0.50644 0.50776 0.0
C1674 C 0.51417 0.49906 0.50021 0.0
C1675 C 0.48669 0.48972 0.49657 0.0
C1676 C 0.47034 0.47712 0.49101 0.0
C1677 C 0.51699 0.5137 0.50914 0.0
C1678 C 0.50448 0.51632 0.51202 0.0
C1679 C 0.48952 0.50436 0.50547 0.0
C1680 C 0.50659 0.53142 0.52155 0.0
C1681 C 0.53334 0.52631 0.51477 0.0
C1682 C 0.51229 0.53752 0.55174 0.0
C1683 C 0.51315 0.55126 0.56135 0.0
C1684 C 0.50818 0.55898 0.54101 0.0
C1685 C 0.50288 0.55302 0.5105 0.0
C1686 C 0.50206 0.53935 0.5009 0.0
H1687 H 0.54178 0.5235 0.5042 0.0
H1688 H 0.53535 0.53738 0.50471 0.0
H1689 H 0.53552 0.52787 0.54068 0.0
H1690 H 0.5156 0.53142 0.56821 0.0
H1691 H 0.51709 0.55547 0.58511 0.0
H1692 H 0.43608 0.96338 0.54858 0.0
H1693 H 0.45968 0.98625 0.53041 0.0
H1694 H 0.48032 0.95832 0.51193 0.0
H1695 H 0.45702 0.93561 0.53015 0.0
H1696 H 0.49037 0.99855 0.55321 0.0
H1697 H 0.485 0.98055 0.4271 0.0
H1698 H 0.46914 0.97179 0.45468 0.0
H1699 H 0.48375 0.96644 0.45496 0.0
C1700 C 0.44569 0.96216 0.54079 0.0
C1701 C 0.4446 0.94766 0.54032 0.0
C1702 C 0.4591 0.97518 0.53031 0.0
C1703 C 0.47156 0.97385 0.51919 0.0
C1704 C 0.47066 0.95949 0.5196 0.0
H1705 H 0.5634 0.03725 0.44921 0.0
H1706 H 0.53962 0.01441 0.46668 0.0
C1707 C 0.45731 0.94652 0.52998 0.0
C1708 C 0.48568 0.98748 0.50759 0.0
H1709 H 0.50877 0.00216 0.4425 0.0
C1710 C 0.49436 0.99942 0.52897 0.0
C1711 C 0.49085 0.98846 0.47598 0.0
C1712 C 0.48165 0.9762 0.45173 0.0
C1713 C 0.50827 0.01225 0.5197 0.0
C1714 C 0.51345 0.01322 0.48812 0.0
C1715 C 0.50477 0.0013 0.46673 0.0
C1716 C 0.52762 0.0268 0.47661 0.0
C1717 C 0.51746 0.02455 0.5439 0.0
C1718 C 0.5285 0.04115 0.47567 0.0
C1719 C 0.54195 0.05411 0.46563 0.0
C1720 C 0.55479 0.05298 0.45624 0.0
C1721 C 0.55371 0.03847 0.45624 0.0
C1722 C 0.54019 0.02546 0.46632 0.0
H1723 H 0.51396 0.0203 0.56855 0.0
H1724 H 0.52995 0.02878 0.54124 0.0
H1725 H 0.51556 0.03441 0.54026 0.0
H1726 H 0.51877 0.04233 0.48275 0.0
H1727 H 0.54225 0.06503 0.4651 0.0
H1728 H 0.5133 0.96092 0.08263 0.0
H1729 H 0.51069 0.98303 0.0671 0.0
H1730 H 0.49388 0.96254 0.97526 0.0
H1731 H 0.49649 0.94051 0.99055 0.0
H1732 H 0.52338 0.00367 0.01536 0.0
H1733 H 0.45964 0.96982 0.00906 0.0
H1734 H 0.47093 0.96269 0.02817 0.0
H1735 H 0.46924 0.96219 0.98567 0.0
C1736 C 0.50925 0.96124 0.05901 0.0
C1737 C 0.50492 0.94891 0.03793 0.0
C1738 C 0.50768 0.97381 0.05024 0.0
C1739 C 0.50174 0.9742 0.02033 0.0
C1740 C 0.49808 0.96224 0.99876 0.0
H1741 H 0.48369 0.03926 0.92122 0.0
H1742 H 0.48549 0.01673 0.93716 0.0
C1743 C 0.4996 0.94969 0.00751 0.0
C1744 C 0.49928 0.98705 0.0116 0.0
H1745 H 0.47155 0.99546 0.98984 0.0
C1746 C 0.51205 0.00192 0.00995 0.0
C1747 C 0.48446 0.98466 0.0045 0.0
C1748 C 0.47025 0.969 0.00718 0.0
C1749 C 0.51045 0.01446 1.00081 0.0
C1750 C 0.49565 0.01206 0.99364 0.0
C1751 C 0.48286 0.99721 0.99529 0.0
C1752 C 0.49325 0.02493 0.98483 0.0
C1753 C 0.52463 0.03015 0.9983 0.0
C1754 C 0.49645 0.03664 0.00676 0.0
C1755 C 0.49536 0.04941 0.99781 0.0
C1756 C 0.49098 0.05069 0.96678 0.0
C1757 C 0.487 0.03856 0.94531 0.0
C1758 C 0.48812 0.02575 0.95432 0.0
H1759 H 0.53531 0.02943 0.99723 0.0
H1760 H 0.52411 0.03633 0.97693 0.0
H1761 H 0.52536 0.03705 0.01947 0.0
H1762 H 0.50009 0.03602 0.03065 0.0
H1763 H 0.49819 0.05843 0.01503 0.0
H1764 H 0.93937 0.44347 0.01133 0.0
H1765 H 0.96168 0.46765 0.02792 0.0
H1766 H 0.98326 0.47117 0.93743 0.0
H1767 H 0.96087 0.44691 0.92059 0.0
H1768 H 0.00306 0.47835 0.99095 0.0
H1769 H 0.97053 0.50967 0.99339 0.0
H1770 H 0.96214 0.49232 0.01647 0.0
H1771 H 0.96332 0.49129 0.97407 0.0
C1772 C 0.94886 0.4494 0.99495 0.0
C1773 C 0.9483 0.44342 0.96451 0.0
C1774 C 0.96157 0.4632 0.00444 0.0
C1775 C 0.97391 0.47133 0.9836 0.0
C1776 C 0.97375 0.46509 0.95372 0.0
H1777 H 0.05925 0.55779 0.99095 0.0
H1778 H 0.0368 0.53349 0.97547 0.0
C1779 C 0.96102 0.45121 0.94421 0.0
C1780 C 0.98689 0.48646 0.99296 0.0
H1781 H 0.99595 0.5229 0.0137 0.0
C1782 C 0.00154 0.48812 0.9958 0.0
C1783 C 0.9848 0.49913 0.99933 0.0
C1784 C 0.96938 0.49812 0.99542 0.0
C1785 C 0.01419 0.50211 0.00535 0.0
C1786 C 0.01211 0.51479 0.01166 0.0
C1787 C 0.99745 0.51312 0.00891 0.0
C1788 C 0.02514 0.52997 0.02046 0.0
C1789 C 0.02963 0.50316 0.00913 0.0
C1790 C 0.02566 0.53632 0.0504 0.0
C1791 C 0.03848 0.55026 0.05932 0.0
C1792 C 0.05093 0.558 0.03833 0.0
C1793 C 0.04998 0.55191 0.00784 0.0
C1794 C 0.03719 0.53804 0.99897 0.0
H1795 H 0.02851 0.49162 0.01113 0.0
H1796 H 0.03683 0.50897 0.98804 0.0
H1797 H 0.03572 0.51001 0.03044 0.0
H1798 H 0.01636 0.53027 0.06719 0.0
H1799 H 0.03893 0.55463 0.08299 0.0
H1800 H 0.43466 0.47177 0.05052 0.0
H1801 H 0.45787 0.47181 0.03217 0.0
H1802 H 0.48018 0.52076 0.01674 0.0
H1803 H 0.4572 0.52082 0.03507 0.0
H1804 H 0.48245 0.50448 0.96522 0.0
H1805 H 0.49922 0.48845 0.07841 0.0
H1806 H 0.47981 0.47567 0.0658 0.0
H1807 H 0.48552 0.49509 0.07675 0.0
C1808 C 0.44458 0.48254 0.04357 0.0
C1809 C 0.44406 0.49626 0.04403 0.0
C1810 C 0.45781 0.48256 0.03312 0.0
C1811 C 0.47074 0.49632 0.02331 0.0
C1812 C 0.47029 0.51002 0.02411 0.0
H1813 H 0.56198 0.52421 0.95062 0.0
H1814 H 0.53822 0.52333 0.96769 0.0
C1815 C 0.45711 0.51001 0.03444 0.0
C1816 C 0.48466 0.49651 0.01129 0.0
H1817 H 0.51371 0.4901 0.03279 0.0
C1818 C 0.48932 0.50136 0.97997 0.0
C1819 C 0.49356 0.49245 0.03068 0.0
C1820 C 0.4894 0.48774 0.06487 0.0
C1821 C 0.50259 0.50211 0.96734 0.0
C1822 C 0.51151 0.4981 0.98676 0.0
C1823 C 0.50682 0.49318 0.01803 0.0
C1824 C 0.52566 0.4987 0.97502 0.0
C1825 C 0.50683 0.50691 0.93322 0.0
C1826 C 0.52644 0.48518 0.97368 0.0
C1827 C 0.53993 0.48566 0.96399 0.0
C1828 C 0.55298 0.49969 0.95566 0.0
C1829 C 0.55209 0.51322 0.95657 0.0
C1830 C 0.53854 0.51273 0.96631 0.0
H1831 H 0.49701 0.50616 0.91959 0.0
H1832 H 0.51637 0.51901 0.93244 0.0
H1833 H 0.51081 0.49965 0.92135 0.0
H1834 H 0.51659 0.47425 0.98022 0.0
H1835 H 0.54012 0.47499 0.96297 0.0
H1836 H 0.18983 0.10735 0.01531 0.0
H1837 H 0.18457 0.08111 0.00558 0.0
H1838 H 0.23201 0.09877 0.97947 0.0
H1839 H 0.23728 0.12499 0.98868 0.0
H1840 H 0.21249 0.07464 0.942 0.0
H1841 H 0.19837 0.06018 0.06928 0.0
H1842 H 0.18653 0.06637 0.0497 0.0
H1843 H 0.20677 0.07957 0.05449 0.0
C1844 C 0.19908 0.10563 0.00709 0.0
C1845 C 0.214 0.11822 0.00301 0.0
C1846 C 0.19608 0.09064 1.00171 0.0
C1847 C 0.20799 0.08796 0.99261 0.0
C1848 C 0.22267 0.10056 0.98666 0.0
H1849 H 0.21544 0.00711 0.02391 0.0
H1850 H 0.21715 0.03222 0.02485 0.0
C1851 C 0.22564 0.11555 0.99177 0.0
C1852 C 0.20547 0.0721 0.99091 0.0
H1853 H 0.19551 0.04011 0.03569 0.0
C1854 C 0.20872 0.06705 0.96243 0.0
C1855 C 0.20082 0.06232 0.01779 0.0
C1856 C 0.19806 0.0674 0.04964 0.0
C1857 C 0.20746 0.05251 0.96006 0.0
C1858 C 0.20248 0.04261 0.98675 0.0
C1859 C 0.19919 0.04765 0.01519 0.0
C1860 C 0.20119 0.02723 0.98612 0.0
C1861 C 0.21197 0.04811 0.92933 0.0
C1862 C 0.19146 0.01596 0.96441 0.0
C1863 C 0.19061 0.00164 0.96353 0.0
C1864 C 0.19935 0.9982 0.98464 0.0
C1865 C 0.20876 0.0094 0.00696 0.0
C1866 C 0.20967 0.02375 0.00767 0.0
H1867 H 0.21933 0.05835 0.91449 0.0
H1868 H 0.21824 0.0418 0.93381 0.0
H1869 H 0.20145 0.0405 0.91555 0.0
H1870 H 0.18454 0.01826 0.94803 0.0
H1871 H 0.18333 0.99345 0.9458 0.0
H1872 H 0.89173 0.09173 0.05839 0.0
H1873 H 0.91856 0.11207 0.0517 0.0
H1874 H 0.90609 0.12794 0.96785 0.0
H1875 H 0.87924 0.10777 0.97466 0.0
H1876 H 0.94051 0.1212 0.00356 0.0
H1877 H 0.92395 0.16541 0.02612 0.0
H1878 H 0.91102 0.1452 0.033 0.0
H1879 H 0.91385 0.15293 0.99349 0.0
C1880 C 0.89478 0.09935 0.03814 0.0
C1881 C 0.88339 0.09828 0.01719 0.0
C1882 C 0.91009 0.111 0.03443 0.0
C1883 C 0.91423 0.12172 0.00971 0.0
C1884 C 0.90306 0.12001 0.98754 0.0
H1885 H 0.00534 0.19143 0.94893 0.0
H1886 H 0.98052 0.16798 0.95538 0.0
C1887 C 0.88776 0.10846 0.99136 0.0
C1888 C 0.92997 0.13522 0.0082 0.0
H1889 H 0.94961 0.17445 0.00945 0.0
C1890 C 0.94254 0.13286 0.00493 0.0
C1891 C 0.93259 0.1504 0.01068 0.0
C1892 C 0.91966 0.15368 0.01634 0.0
C1893 C 0.95767 0.14531 0.00332 0.0
C1894 C 0.96022 0.1605 0.00443 0.0
C1895 C 0.94765 0.16281 0.00835 0.0
C1896 C 0.97577 0.17423 1.00144 0.0
C1897 C 0.97077 0.14206 1.00098 0.0
C1898 C 0.98127 0.18569 0.02489 0.0
C1899 C 0.9954 0.19919 0.02109 0.0
C1900 C 0.00434 0.20147 0.99381 0.0
C1901 C 0.9989 0.18989 0.97053 0.0
C1902 C 0.98471 0.17645 0.97422 0.0
H1903 H 0.96739 0.13039 0.00993 0.0
H1904 H 0.97415 0.14264 0.97573 0.0
H1905 H 0.98094 0.15063 0.01455 0.0
H1906 H 0.97454 0.18426 0.04603 0.0
H1907 H 0.99935 0.20787 0.03947 0.0
H1908 H 0.89914 0.7779 0.96188 0.0
H1909 H 0.87913 0.78469 0.95356 0.0
H1910 H 0.88965 0.80732 0.04461 0.0
H1911 H 0.90977 0.80076 0.05281 0.0
H1912 H 0.8541 0.77412 0.99034 0.0
H1913 H 0.88464 0.83777 0.99061 0.0
H1914 H 0.89453 0.82703 0.98572 0.0
H1915 H 0.88909 0.82998 0.02464 0.0
C1916 C 0.8974 0.78464 0.97976 0.0
C1917 C 0.90603 0.78883 0.00794 0.0
C1918 C 0.88598 0.7885 0.975 0.0
C1919 C 0.88296 0.79662 0.99834 0.0
C1920 C 0.892 0.80138 0.02593 0.0
H1921 H 0.79434 0.78907 0.03205 0.0
H1922 H 0.81822 0.78817 0.03497 0.0
C1923 C 0.90351 0.79762 0.0306 0.0
C1924 C 0.86928 0.79853 0.99544 0.0
H1925 H 0.85733 0.82493 0.99805 0.0
C1926 C 0.85484 0.78526 0.99175 0.0
C1927 C 0.87025 0.81306 0.99709 0.0
C1928 C 0.88548 0.82778 0.99941 0.0
C1929 C 0.84132 0.78606 0.99024 0.0
C1930 C 0.84221 0.80051 0.99326 0.0
C1931 C 0.85667 0.81384 0.99622 0.0
C1932 C 0.82823 0.80196 0.99287 0.0
C1933 C 0.82621 0.77144 0.98505 0.0
C1934 C 0.82619 0.81047 0.96895 0.0
C1935 C 0.81259 0.81106 0.96733 0.0
C1936 C 0.80079 0.80317 0.9897 0.0
C1937 C 0.8031 0.79505 0.01422 0.0
C1938 C 0.81673 0.79453 0.01589 0.0
H1939 H 0.82791 0.7622 0.97483 0.0
H1940 H 0.82024 0.76729 0.00816 0.0
H1941 H 0.81862 0.77342 0.96896 0.0
H1942 H 0.83494 0.81631 0.95098 0.0
H1943 H 0.81115 0.81727 0.94791 0.0
H1944 H 0.98744 0.17423 0.51404 0.0
H1945 H 0.01184 0.17446 0.50893 0.0
H1946 H 0.03619 0.224 0.50592 0.0
H1947 H 0.01198 0.2239 0.5113 0.0
H1948 H 0.04531 0.21046 0.4589 0.0
H1949 H 0.04482 0.18693 0.57859 0.0
H1950 H 0.02801 0.17566 0.55474 0.0
H1951 H 0.03236 0.19438 0.56812 0.0
C1952 C 0.99799 0.18518 0.51254 0.0
C1953 C 0.99771 0.19905 0.51318 0.0
C1954 C 0.01193 0.18528 0.50964 0.0
C1955 C 0.02583 0.19925 0.50747 0.0
C1956 C 0.02558 0.21309 0.50759 0.0
H1957 H 0.12056 0.2268 0.53384 0.0
H1958 H 0.09358 0.21982 0.53917 0.0
C1959 C 0.01168 0.213 0.51049 0.0
C1960 C 0.04072 0.1996 0.50471 0.0
H1961 H 0.06556 0.19178 0.54488 0.0
C1962 C 0.04971 0.20628 0.47757 0.0
C1963 C 0.04645 0.19426 0.52929 0.0
C1964 C 0.03751 0.18751 0.55949 0.0
C1965 C 0.06438 0.20796 0.47447 0.0
C1966 C 0.07011 0.20257 0.49898 0.0
C1967 C 0.06106 0.19574 0.52601 0.0
C1968 C 0.08594 0.20503 0.49791 0.0
C1969 C 0.07386 0.21603 0.44552 0.0
C1970 C 0.09046 0.19855 0.47368 0.0
C1971 C 0.1059 0.2026 0.47045 0.0
C1972 C 0.11706 0.21315 0.49152 0.0
C1973 C 0.11228 0.21882 0.51697 0.0
C1974 C 0.09686 0.21479 0.52014 0.0
H1975 H 0.06911 0.22231 0.43233 0.0
H1976 H 0.08592 0.22433 0.45224 0.0
H1977 H 0.07398 0.2074 0.42926 0.0
H1978 H 0.08215 0.1908 0.45658 0.0
H1979 H 0.10919 0.19809 0.45046 0.0
H1980 H 0.76406 0.88781 0.51587 0.0
H1981 H 0.76901 0.86657 0.52437 0.0
H1982 H 0.81609 0.89549 0.49522 0.0
H1983 H 0.81128 0.91689 0.48674 0.0
H1984 H 0.78361 0.85786 0.46626 0.0
H1985 H 0.81395 0.87019 0.58253 0.0
H1986 H 0.80002 0.87613 0.57426 0.0
H1987 H 0.81844 0.88573 0.55527 0.0
C1988 C 0.77559 0.88981 0.51217 0.0
C1989 C 0.78728 0.90403 0.50058 0.0
C1990 C 0.77836 0.87763 0.51684 0.0
C1991 C 0.7929 0.87952 0.51043 0.0
C1992 C 0.80482 0.89388 0.50043 0.0
H1993 H 0.82578 0.81381 0.51804 0.0
H1994 H 0.82412 0.83734 0.51562 0.0
C1995 C 0.80203 0.90605 0.49551 0.0
C1996 C 0.79513 0.86605 0.51103 0.0
H1997 H 0.80988 0.84797 0.55517 0.0
C1998 C 0.78935 0.85566 0.48566 0.0
C1999 C 0.80281 0.86342 0.53616 0.0
C2000 C 0.80918 0.87438 0.56377 0.0
C2001 C 0.791 0.84259 0.48477 0.0
C2002 C 0.79824 0.83963 0.51044 0.0
C2003 C 0.80427 0.85021 0.53559 0.0
C2004 C 0.79931 0.82542 0.51191 0.0
C2005 C 0.78517 0.83224 0.45607 0.0
C2006 C 0.78593 0.81093 0.51103 0.0
C2007 C 0.78686 0.79753 0.51219 0.0
C2008 C 0.8012 0.79831 0.51472 0.0
C2009 C 0.81458 0.81284 0.51614 0.0
C2010 C 0.81364 0.82627 0.51475 0.0
H2011 H 0.78444 0.83846 0.43495 0.0
H2012 H 0.7927 0.82742 0.45025 0.0
H2013 H 0.77344 0.82256 0.46103 0.0
H2014 H 0.77471 0.80998 0.50978 0.0
H2015 H 0.7763 0.78655 0.51184 0.0
H2016 H 0.09085 0.89156 0.44771 0.0
H2017 H 0.1113 0.91836 0.45323 0.0
H2018 H 0.12628 0.90704 0.53979 0.0
H2019 H 0.10584 0.88021 0.5345 0.0
H2020 H 0.12034 0.94107 0.50204 0.0
H2021 H 0.16389 0.92347 0.48003 0.0
H2022 H 0.14364 0.91088 0.4727 0.0
H2023 H 0.15106 0.91364 0.51243 0.0
C2024 C 0.09823 0.89485 0.46837 0.0
C2025 C 0.09681 0.88374 0.49056 0.0
C2026 C 0.10996 0.91015 0.47138 0.0
C2027 C 0.12047 0.91458 0.49655 0.0
C2028 C 0.11847 0.90376 0.51984 0.0
H2029 H 0.19157 0.00509 0.55476 0.0
H2030 H 0.16804 0.98036 0.54912 0.0
C2031 C 0.10678 0.88846 0.51683 0.0
C2032 C 0.13408 0.93024 0.49735 0.0
H2033 H 0.1733 0.94946 0.49441 0.0
C2034 C 0.13193 0.94294 0.50032 0.0
C2035 C 0.14916 0.93263 0.49445 0.0
C2036 C 0.15214 0.91946 0.48942 0.0
C2037 C 0.14451 0.958 0.50127 0.0
C2038 C 0.15961 0.96034 0.49959 0.0
C2039 C 0.16172 0.94764 0.49591 0.0
C2040 C 0.17345 0.97582 0.50208 0.0
C2041 C 0.14153 0.97127 0.50366 0.0
C2042 C 0.18445 0.9814 0.47772 0.0
C2043 C 0.19798 0.99557 0.48089 0.0
C2044 C 0.20078 0.0044 0.50854 0.0
C2045 C 0.18966 0.9988 0.53283 0.0
C2046 C 0.17617 0.98463 0.52966 0.0
H2047 H 0.12972 0.96795 0.49574 0.0
H2048 H 0.14274 0.97503 0.52876 0.0
H2049 H 0.14992 0.98119 0.48921 0.0
H2050 H 0.18261 0.97473 0.4563 0.0
H2051 H 0.20627 0.99961 0.46172 0.0
H2052 H 0.76444 0.88225 0.96824 0.0
H2053 H 0.77233 0.90915 0.97718 0.0
H2054 H 0.81466 0.91675 0.01934 0.0
H2055 H 0.80664 0.88947 0.01118 0.0
H2056 H 0.78284 0.9247 0.04461 0.0
H2057 H 0.82389 0.95065 0.94374 0.0
H2058 H 0.80815 0.93107 0.94171 0.0
H2059 H 0.82396 0.93583 0.96787 0.0
C2060 C 0.77535 0.88953 0.97983 0.0
C2061 C 0.78479 0.88362 0.98956 0.0
C2062 C 0.77989 0.90493 0.98463 0.0
C2063 C 0.79403 0.91485 0.99892 0.0
C2064 C 0.8037 0.9092 0.00817 0.0
H2065 H 0.82721 0.0136 0.02101 0.0
H2066 H 0.82657 0.98891 0.01944 0.0
C2067 C 0.79913 0.89367 0.00345 0.0
C2068 C 0.79817 0.93097 0.00468 0.0
H2069 H 0.81701 0.96671 0.97137 0.0
C2070 C 0.7905 0.93397 0.02896 0.0
C2071 C 0.8082 0.94296 0.98425 0.0
C2072 C 0.81658 0.94011 0.95782 0.0
C2073 C 0.7922 0.94861 0.03272 0.0
C2074 C 0.80151 0.96041 0.0111 0.0
C2075 C 0.80978 0.9576 0.98774 0.0
C2076 C 0.80207 0.97543 0.0113 0.0
C2077 C 0.78383 0.95123 0.05957 0.0
C2078 C 0.78857 0.97606 0.00648 0.0
C2079 C 0.78886 0.99009 0.00756 0.0
C2080 C 0.80271 0.00385 0.01328 0.0
C2081 C 0.81631 0.00321 0.01711 0.0
C2082 C 0.81599 0.98914 0.01605 0.0
H2083 H 0.78124 0.94287 0.07915 0.0
H2084 H 0.79066 0.96306 0.06925 0.0
H2085 H 0.77274 0.94967 0.05067 0.0
H2086 H 0.77775 0.96564 1.00209 0.0
H2087 H 0.77815 0.99007 0.00469 0.0
H2088 H 0.11784 0.88348 0.95534 0.0
H2089 H 0.09073 0.86457 0.96298 0.0
H2090 H 0.08537 0.89648 0.02257 0.0
H2091 H 0.11277 0.91562 0.01506 0.0
H2092 H 0.0737 0.86536 0.04805 0.0
H2093 H 0.0525 0.86526 0.92655 0.0
H2094 H 0.06966 0.86389 0.92763 0.0
H2095 H 0.07019 0.88102 0.94189 0.0
C2096 C 0.11091 0.88649 0.97013 0.0
C2097 C 0.11743 0.90096 0.98489 0.0
C2098 C 0.0954 0.87573 0.97419 0.0
C2099 C 0.08604 0.8792 0.99304 0.0
C2100 C 0.09243 0.89366 0.00774 0.0
H2101 H 0.98728 0.81186 0.00727 0.0
H2102 H 0.01149 0.83634 0.00226 0.0
C2103 C 0.10801 0.90455 0.00342 0.0
C2104 C 0.06982 0.86725 0.99844 0.0
H2105 H 0.03661 0.84332 0.95898 0.0
C2106 C 0.06548 0.8607 0.02875 0.0
C2107 C 0.05912 0.86128 0.97324 0.0
C2108 C 0.06302 0.8683 0.94053 0.0
C2109 C 0.05096 0.84777 0.0341 0.0
C2110 C 0.04061 0.84121 0.00842 0.0
C2111 C 0.04463 0.84828 0.97854 0.0
C2112 C 0.02596 0.82652 0.01171 0.0
C2113 C 0.04688 0.84103 0.06703 0.0
C2114 C 0.02612 0.8129 0.01814 0.0
C2115 C 0.01236 0.79894 0.02085 0.0
C2116 C 0.99815 0.79834 0.01723 0.0
C2117 C 0.99804 0.812 0.01049 0.0
C2118 C 0.01183 0.82596 0.00754 0.0
H2119 H 0.05419 0.8495 0.08535 0.0
H2120 H 0.03462 0.83697 0.0725 0.0
H2121 H 0.04869 0.83101 0.06851 0.0
H2122 H 0.03693 0.81307 0.02096 0.0
H2123 H 0.01287 0.78869 0.02637 0.0
H2124 H 0.20857 0.21123 0.97267 0.0
H2125 H 0.1848 0.21204 0.96727 0.0
H2126 H 0.16465 0.17974 0.04425 0.0
H2127 H 0.18855 0.1794 0.05093 0.0
H2128 H 0.15514 0.18961 0.95459 0.0
H2129 H 0.15872 0.21476 0.07394 0.0
H2130 H 0.17458 0.21372 0.05654 0.0
H2131 H 0.15882 0.19694 0.07419 0.0
C2132 C 0.19917 0.20439 0.98868 0.0
C2133 C 0.20066 0.1954 0.01249 0.0
C2134 C 0.18551 0.20477 0.98537 0.0
C2135 C 0.17305 0.19618 0.00575 0.0
C2136 C 0.17424 0.18673 0.02872 0.0
H2137 H 0.08565 0.19712 0.01432 0.0
H2138 H 0.10459 0.18856 0.02098 0.0
C2139 C 0.18792 0.18641 0.0322 0.0
C2140 C 0.15893 0.19735 0.00313 0.0
H2141 H 0.13691 0.209 0.04308 0.0
C2142 C 0.15111 0.19375 0.97401 0.0
C2143 C 0.15364 0.20273 0.02854 0.0
C2144 C 0.16193 0.20739 0.05999 0.0
C2145 C 0.13832 0.19567 0.96943 0.0
C2146 C 0.13331 0.2014 0.99454 0.0
C2147 C 0.14076 0.2045 0.02399 0.0
C2148 C 0.12146 0.20584 0.98968 0.0
C2149 C 0.1304 0.19178 0.9376 0.0
C2150 C 0.12476 0.21839 0.97009 0.0
C2151 C 0.11413 0.22334 0.96652 0.0
C2152 C 0.09994 0.21583 0.98249 0.0
C2153 C 0.0965 0.20308 1.00174 0.0
C2154 C 0.10728 0.19821 0.00558 0.0
H2155 H 0.13302 0.18397 0.92373 0.0
H2156 H 0.11774 0.1863 0.94049 0.0
H2157 H 0.13442 0.20252 0.92375 0.0
H2158 H 0.13571 0.22453 0.95791 0.0
H2159 H 0.117 0.23307 0.95118 0.0
H2160 H 0.88463 0.76856 0.55845 0.0
H2161 H 0.91172 0.77704 0.54949 0.0
H2162 H 0.91419 0.80935 0.47909 0.0
H2163 H 0.88682 0.80076 0.48783 0.0
H2164 H 0.92608 0.78975 0.45964 0.0
H2165 H 0.95026 0.81795 0.57501 0.0
H2166 H 0.93361 0.79919 0.57893 0.0
H2167 H 0.93181 0.81438 0.56062 0.0
C2168 C 0.89093 0.77749 0.54107 0.0
C2169 C 0.88359 0.78392 0.52362 0.0
C2170 C 0.90645 0.78243 0.53624 0.0
C2171 C 0.91499 0.79394 0.51393 0.0
C2172 C 0.90779 0.80053 0.49661 0.0
H2173 H 0.01373 0.82608 0.49406 0.0
H2174 H 0.98942 0.82616 0.49878 0.0
C2175 C 0.89221 0.79566 0.50165 0.0
C2176 C 0.93115 0.79821 0.50761 0.0
H2177 H 0.96556 0.81028 0.54463 0.0
C2178 C 0.93481 0.79449 0.478 0.0
C2179 C 0.94254 0.80452 0.53151 0.0
C2180 C 0.93943 0.80939 0.56322 0.0
C2181 C 0.94932 0.79612 0.47229 0.0
C2182 C 0.96036 0.80146 0.49693 0.0
C2183 C 0.957 0.80601 0.5259 0.0
C2184 C 0.97508 0.80153 0.49371 0.0
C2185 C 0.95264 0.79185 0.44013 0.0
C2186 C 0.97504 0.78764 0.48986 0.0
C2187 C 0.98886 0.78756 0.48726 0.0
C2188 C 0.00302 0.80138 0.48848 0.0
C2189 C 0.00301 0.81528 0.49269 0.0
C2190 C 0.98916 0.81534 0.49548 0.0
H2191 H 0.94488 0.79208 0.42162 0.0
H2192 H 0.96475 0.79975 0.43298 0.0
H2193 H 0.95082 0.78001 0.44116 0.0
H2194 H 0.96429 0.77683 0.48897 0.0
H2195 H 0.98842 0.77668 0.48371 0.0
H2196 H 0.19913 0.0866 0.49112 0.0
H2197 H 0.1909 0.10568 0.48302 0.0
H2198 H 0.22534 0.13615 0.54948 0.0
H2199 H 0.23344 0.11722 0.55792 0.0
H2200 H 0.19492 0.13278 0.55679 0.0
H2201 H 0.2184 0.14708 0.43385 0.0
H2202 H 0.20553 0.12717 0.44327 0.0
H2203 H 0.22414 0.13715 0.46149 0.0
C2204 C 0.20483 0.09733 0.50414 0.0
C2205 C 0.21707 0.10054 0.52477 0.0
C2206 C 0.20018 0.10821 0.4994 0.0
C2207 C 0.20764 0.12235 0.51544 0.0
C2208 C 0.21949 0.12533 0.53681 0.0
H2209 H 0.22444 0.21307 0.49043 0.0
H2210 H 0.2244 0.18889 0.49674 0.0
C2211 C 0.22418 0.11456 0.54139 0.0
C2212 C 0.20368 0.13447 0.50948 0.0
H2213 H 0.20868 0.16201 0.45573 0.0
C2214 C 0.19767 0.13904 0.53455 0.0
C2215 C 0.20748 0.14266 0.48052 0.0
C2216 C 0.21433 0.1384 0.45319 0.0
C2217 C 0.19575 0.1519 0.53172 0.0
C2218 C 0.1999 0.16031 0.50302 0.0
C2219 C 0.20549 0.15547 0.47764 0.0
C2220 C 0.19965 0.17483 0.49969 0.0
C2221 C 0.18999 0.15686 0.55985 0.0
C2222 C 0.18572 0.1749 0.49928 0.0
C2223 C 0.18571 0.18874 0.49582 0.0
C2224 C 0.19963 0.20273 0.49273 0.0
C2225 C 0.21354 0.20257 0.49326 0.0
C2226 C 0.21353 0.18874 0.49658 0.0
H2227 H 0.18947 0.15046 0.58176 0.0
H2228 H 0.19752 0.16935 0.56429 0.0
H2229 H 0.17826 0.15476 0.55473 0.0
H2230 H 0.17488 0.16425 0.5014 0.0
H2231 H 0.17482 0.18851 0.4957 0.0
H2232 H 0.89392 0.1201 0.47168 0.0
H2233 H 0.8737 0.09317 0.46669 0.0
H2234 H 0.88993 0.08207 0.55179 0.0
H2235 H 0.9102 0.10899 0.55696 0.0
H2236 H 0.88087 0.05954 0.50337 0.0
H2237 H 0.83645 0.07575 0.52696 0.0
H2238 H 0.8489 0.0858 0.4942 0.0
H2239 H 0.85667 0.08875 0.53365 0.0
C2240 C 0.89329 0.11189 0.48912 0.0
C2241 C 0.90358 0.1167 0.51485 0.0
C2242 C 0.88172 0.09653 0.48629 0.0
C2243 C 0.88013 0.08571 0.50925 0.0
C2244 C 0.89093 0.09027 0.5339 0.0
H2245 H 0.79479 0.99978 0.54208 0.0
H2246 H 0.81827 0.02471 0.54839 0.0
C2247 C 0.90255 0.10564 0.53671 0.0
C2248 C 0.86672 0.0699 0.50852 0.0
H2249 H 0.82749 0.04995 0.5115 0.0
C2250 C 0.86919 0.0574 0.50523 0.0
C2251 C 0.85151 0.06715 0.51162 0.0
C2252 C 0.84817 0.08004 0.51712 0.0
C2253 C 0.85682 0.04222 0.5041 0.0
C2254 C 0.84159 0.03953 0.50586 0.0
C2255 C 0.83916 0.05202 0.50992 0.0
C2256 C 0.82793 0.02391 0.50301 0.0
C2257 C 0.86018 0.02921 0.50144 0.0
C2258 C 0.82554 0.01518 0.47542 0.0
C2259 C 0.81215 0.00094 0.47178 0.0
C2260 C 0.80078 0.9952 0.49554 0.0
C2261 C 0.80326 0.00392 0.52327 0.0
C2262 C 0.8167 0.01814 0.52695 0.0
H2263 H 0.87198 0.03272 0.50977 0.0
H2264 H 0.85181 0.01907 0.51539 0.0
H2265 H 0.85931 0.02572 0.47621 0.0
H2266 H 0.83383 0.01957 0.45625 0.0
H2267 H 0.8105 0.99472 0.44984 0.0
H2268 H 0.88977 0.34521 0.31945 0.0
H2269 H 0.8892 0.36915 0.32458 0.0
H2270 H 0.83988 0.34341 0.33429 0.0
H2271 H 0.84036 0.3193 0.32953 0.0
H2272 H 0.87056 0.37838 0.28372 0.0
H2273 H 0.85745 0.37393 0.41312 0.0
H2274 H 0.86596 0.36366 0.39494 0.0
H2275 H 0.84606 0.35743 0.38836 0.0
C2276 C 0.87882 0.3446 0.32309 0.0
C2277 C 0.86511 0.33034 0.32427 0.0
C2278 C 0.8785 0.35829 0.32573 0.0
C2279 C 0.86451 0.358 0.32989 0.0
C2280 C 0.85079 0.34383 0.33122 0.0
H2281 H 0.86187 0.44491 0.32354 0.0
H2282 H 0.8534 0.41744 0.31655 0.0
C2283 C 0.85109 0.3301 0.32836 0.0
C2284 C 0.86445 0.37264 0.33277 0.0
H2285 H 0.862 0.39652 0.38711 0.0
C2286 C 0.86845 0.38229 0.30616 0.0
C2287 C 0.86172 0.37763 0.36214 0.0
C2288 C 0.85761 0.36772 0.39144 0.0
C2289 C 0.87029 0.39706 0.30841 0.0
C2290 C 0.86805 0.40225 0.33803 0.0
C2291 C 0.86356 0.39241 0.3644 0.0
C2292 C 0.87236 0.41849 0.34304 0.0
C2293 C 0.8754 0.40735 0.2796 0.0
C2294 C 0.88561 0.42799 0.3606 0.0
C2295 C 0.89045 0.44353 0.36445 0.0
C2296 C 0.8821 0.44991 0.35091 0.0
C2297 C 0.86854 0.44029 0.33406 0.0
C2298 C 0.86374 0.42467 0.32999 0.0
H2299 H 0.87791 0.40203 0.25905 0.0
H2300 H 0.86623 0.40987 0.27263 0.0
H2301 H 0.88586 0.41847 0.28522 0.0
H2302 H 0.89237 0.42341 0.37094 0.0
H2303 H 0.90077 0.45057 0.37814 0.0
H2304 H 0.54544 0.44017 0.30477 0.0
H2305 H 0.57225 0.4601 0.29654 0.0
H2306 H 0.58523 0.44572 0.38184 0.0
H2307 H 0.55847 0.4257 0.39009 0.0
H2308 H 0.58822 0.48374 0.33753 0.0
H2309 H 0.6189 0.45122 0.32053 0.0
H2310 H 0.59827 0.44234 0.31734 0.0
H2311 H 0.60725 0.44586 0.35568 0.0
C2312 C 0.55407 0.44109 0.32146 0.0
C2313 C 0.54985 0.43137 0.34807 0.0
C2314 C 0.56937 0.45246 0.31672 0.0
C2315 C 0.58077 0.45434 0.33844 0.0
C2316 C 0.5767 0.44428 0.36439 0.0
H2317 H 0.66586 0.53985 0.37276 0.0
H2318 H 0.64057 0.51663 0.37685 0.0
C2319 C 0.56139 0.43283 0.36908 0.0
C2320 C 0.59655 0.46773 0.33559 0.0
H2321 H 0.63449 0.47817 0.33018 0.0
C2322 C 0.59833 0.48251 0.33574 0.0
C2323 C 0.60972 0.46611 0.33306 0.0
C2324 C 0.60848 0.45053 0.33133 0.0
C2325 C 0.6129 0.49571 0.33386 0.0
C2326 C 0.6261 0.49412 0.33241 0.0
C2327 C 0.62435 0.47935 0.3317 0.0
C2328 C 0.64179 0.5077 0.33089 0.0
C2329 C 0.61401 0.51126 0.33294 0.0
C2330 C 0.65104 0.51014 0.30415 0.0
C2331 C 0.66549 0.52337 0.30177 0.0
C2332 C 0.671 0.53441 0.3262 0.0
C2333 C 0.66185 0.5317 0.35335 0.0
C2334 C 0.64741 0.51844 0.35572 0.0
H2335 H 0.60289 0.51036 0.32625 0.0
H2336 H 0.61723 0.51659 0.35682 0.0
H2337 H 0.62296 0.51902 0.31585 0.0
H2338 H 0.64691 0.50198 0.28471 0.0
H2339 H 0.67209 0.52514 0.28033 0.0
H2340 H 0.58382 0.14005 0.33049 0.0
H2341 H 0.56497 0.14881 0.32608 0.0
H2342 H 0.5308 0.10706 0.37127 0.0
H2343 H 0.54947 0.09853 0.37663 0.0
H2344 H 0.53652 0.13443 0.29465 0.0
H2345 H 0.52836 0.14002 0.42267 0.0
H2346 H 0.54449 0.1387 0.40751 0.0
H2347 H 0.52613 0.1216 0.41334 0.0
C2348 C 0.57232 0.13284 0.33971 0.0
C2349 C 0.56811 0.11854 0.35364 0.0
C2350 C 0.56158 0.13782 0.3371 0.0
C2351 C 0.54657 0.12868 0.34881 0.0
C2352 C 0.54239 0.11444 0.36264 0.0
H2353 H 0.45634 0.11349 0.34012 0.0
H2354 H 0.48063 0.11388 0.34658 0.0
C2355 C 0.55304 0.10947 0.36522 0.0
C2356 C 0.53488 0.13349 0.34563 0.0
H2357 H 0.50779 0.13691 0.38816 0.0
C2358 C 0.53045 0.13533 0.31509 0.0
C2359 C 0.52701 0.13471 0.37236 0.0
C2360 C 0.53185 0.13381 0.40582 0.0
C2361 C 0.51772 0.13737 0.31055 0.0
C2362 C 0.50933 0.13764 0.33722 0.0
C2363 C 0.51421 0.13657 0.36778 0.0
C2364 C 0.49477 0.1378 0.33378 0.0
C2365 C 0.5128 0.13845 0.27729 0.0
C2366 C 0.49474 0.15122 0.32482 0.0
C2367 C 0.48083 0.15112 0.32146 0.0
C2368 C 0.46669 0.13756 0.32686 0.0
C2369 C 0.46689 0.12419 0.33612 0.0
C2370 C 0.48079 0.12435 0.33965 0.0
H2371 H 0.5199 0.13692 0.259 0.0
H2372 H 0.50056 0.12958 0.27366 0.0
H2373 H 0.5138 0.14986 0.27382 0.0
H2374 H 0.50547 0.16175 0.32052 0.0
H2375 H 0.48118 0.16169 0.31484 0.0
H2376 H 0.7801 0.53301 0.84499 0.0
H2377 H 0.75269 0.52451 0.85271 0.0
H2378 H 0.75694 0.55997 0.78887 0.0
H2379 H 0.78408 0.56838 0.78089 0.0
H2380 H 0.74073 0.54394 0.87556 0.0
H2381 H 0.7189 0.52015 0.75586 0.0
H2382 H 0.73691 0.52289 0.77113 0.0
H2383 H 0.73573 0.53893 0.75551 0.0
C2384 C 0.7751 0.53886 0.83243 0.0
C2385 C 0.78423 0.55142 0.81255 0.0
C2386 C 0.7595 0.53403 0.83689 0.0
C2387 C 0.75279 0.54152 0.82106 0.0
C2388 C 0.76185 0.55391 0.80095 0.0
H2389 H 0.67168 0.54811 0.81067 0.0
H2390 H 0.69621 0.54886 0.80403 0.0
C2391 C 0.77739 0.5588 0.7967 0.0
C2392 C 0.73653 0.53708 0.82657 0.0
H2393 H 0.70272 0.52589 0.78782 0.0
C2394 C 0.7323 0.53973 0.8566 0.0
C2395 C 0.72564 0.53166 0.80168 0.0
C2396 C 0.72945 0.5281 0.76928 0.0
C2397 C 0.71767 0.53788 0.86199 0.0
C2398 C 0.70691 0.53292 0.83679 0.0
C2399 C 0.71099 0.52973 0.80707 0.0
C2400 C 0.69172 0.53185 0.84024 0.0
C2401 C 0.71413 0.54199 0.89413 0.0
C2402 C 0.68092 0.52183 0.86238 0.0
C2403 C 0.66694 0.52149 0.86647 0.0
C2404 C 0.66342 0.5311 0.84828 0.0
C2405 C 0.6741 0.54077 0.82543 0.0
C2406 C 0.68808 0.54112 0.82144 0.0
H2407 H 0.7247 0.54886 0.90843 0.0
H2408 H 0.70805 0.54862 0.89169 0.0
H2409 H 0.70653 0.53129 0.90742 0.0
H2410 H 0.68338 0.51437 0.87674 0.0
H2411 H 0.65911 0.51399 0.88446 0.0
H2412 H 0.44065 0.2286 0.87115 0.0
H2413 H 0.44756 0.20862 0.87802 0.0
H2414 H 0.47334 0.22263 0.79066 0.0
H2415 H 0.46647 0.2426 0.78361 0.0
H2416 H 0.43906 0.18482 0.83571 0.0
H2417 H 0.50245 0.21724 0.85022 0.0
H2418 H 0.4907 0.22604 0.85519 0.0
H2419 H 0.49567 0.2228 0.8161 0.0
C2420 C 0.44801 0.22759 0.85369 0.0
C2421 C 0.45301 0.23718 0.82684 0.0
C2422 C 0.45196 0.21619 0.85766 0.0
C2423 C 0.46105 0.2142 0.83497 0.0
C2424 C 0.46658 0.22415 0.8088 0.0
H2425 H 0.46061 0.1289 0.79735 0.0
H2426 H 0.45864 0.15219 0.79392 0.0
C2427 C 0.46266 0.23559 0.80483 0.0
C2428 C 0.46342 0.20079 0.83711 0.0
H2429 H 0.49092 0.1903 0.84076 0.0
C2430 C 0.4504 0.18602 0.83697 0.0
C2431 C 0.47822 0.20239 0.8389 0.0
C2432 C 0.49257 0.21797 0.84042 0.0
C2433 C 0.45176 0.1728 0.8382 0.0
C2434 C 0.46656 0.17438 0.83906 0.0
C2435 C 0.47959 0.18914 0.8397 0.0
C2436 C 0.46864 0.16078 0.84013 0.0
C2437 C 0.43733 0.15724 0.83904 0.0
C2438 C 0.47531 0.15813 0.86682 0.0
C2439 C 0.47644 0.14484 0.86886 0.0
C2440 C 0.47097 0.13396 0.84412 0.0
C2441 C 0.4647 0.13691 0.81699 0.0
C2442 C 0.46358 0.15021 0.81499 0.0
H2443 H 0.42709 0.1581 0.84579 0.0
H2444 H 0.43523 0.15194 0.81513 0.0
H2445 H 0.43853 0.14947 0.85605 0.0
H2446 H 0.47927 0.16615 0.88649 0.0
H2447 H 0.48114 0.14291 0.8903 0.0
H2448 H 0.85808 0.33892 0.89076 0.0
H2449 H 0.83469 0.31391 0.88595 0.0
H2450 H 0.85096 0.30617 0.79699 0.0
H2451 H 0.87447 0.33121 0.80175 0.0
H2452 H 0.81178 0.30119 0.84046 0.0
H2453 H 0.84305 0.26883 0.84925 0.0
H2454 H 0.85201 0.28907 0.85812 0.0
H2455 H 0.84972 0.28264 0.81762 0.0
C2456 C 0.85661 0.33201 0.86994 0.0
C2457 C 0.86818 0.33702 0.84666 0.0
C2458 C 0.84325 0.31768 0.8673 0.0
C2459 C 0.8412 0.30807 0.8414 0.0
C2460 C 0.85247 0.31326 0.81755 0.0
H2461 H 0.75865 0.22513 0.78217 0.0
H2462 H 0.77877 0.25187 0.79034 0.0
C2463 C 0.86588 0.32755 0.82027 0.0
C2464 C 0.82748 0.29247 0.8398 0.0
H2465 H 0.81659 0.25444 0.83611 0.0
C2466 C 0.8128 0.29095 0.83961 0.0
C2467 C 0.82884 0.27912 0.83927 0.0
C2468 C 0.84424 0.27993 0.84139 0.0
C2469 C 0.79943 0.27641 0.83829 0.0
C2470 C 0.80083 0.2631 0.83659 0.0
C2471 C 0.81552 0.26465 0.83727 0.0
C2472 C 0.78732 0.24738 0.83383 0.0
C2473 C 0.78396 0.27546 0.83927 0.0
C2474 C 0.78537 0.23596 0.85559 0.0
C2475 C 0.77399 0.22067 0.85079 0.0
C2476 C 0.76431 0.2165 0.82416 0.0
C2477 C 0.76578 0.22805 0.80318 0.0
C2478 C 0.77727 0.24334 0.80785 0.0
H2479 H 0.78475 0.28594 0.84998 0.0
H2480 H 0.77958 0.27441 0.8147 0.0
H2481 H 0.7755 0.26527 0.85297 0.0
H2482 H 0.79299 0.2388 0.87579 0.0
H2483 H 0.77306 0.21201 0.86738 0.0
H2484 H 0.45661 0.33157 0.3043 0.0
H2485 H 0.45513 0.30658 0.29929 0.0
H2486 H 0.47944 0.31434 0.38784 0.0
H2487 H 0.48104 0.33934 0.39287 0.0
H2488 H 0.48948 0.30162 0.34215 0.0
H2489 H 0.42588 0.26924 0.35169 0.0
H2490 H 0.43287 0.28304 0.32004 0.0
H2491 H 0.43718 0.28949 0.36052 0.0
C2492 C 0.46163 0.32793 0.32267 0.0
C2493 C 0.46886 0.3374 0.34902 0.0
C2494 C 0.46077 0.31366 0.31982 0.0
C2495 C 0.46694 0.30849 0.34348 0.0
C2496 C 0.47458 0.31811 0.36933 0.0
H2497 H 0.43879 0.21223 0.3671 0.0
H2498 H 0.44566 0.23897 0.37632 0.0
C2499 C 0.47554 0.33242 0.3721 0.0
C2500 C 0.46505 0.2929 0.34175 0.0
H2501 H 0.43788 0.25489 0.33766 0.0
C2502 C 0.47821 0.29138 0.34129 0.0
C2503 C 0.45033 0.27955 0.34123 0.0
C2504 C 0.43575 0.28035 0.34372 0.0
C2505 C 0.47704 0.27685 0.33966 0.0
C2506 C 0.46231 0.26354 0.33787 0.0
C2507 C 0.44918 0.26509 0.33887 0.0
C2508 C 0.46009 0.24784 0.33464 0.0
C2509 C 0.49156 0.2759 0.34039 0.0
C2510 C 0.46619 0.24398 0.30855 0.0
C2511 C 0.46241 0.22872 0.30346 0.0
C2512 C 0.45226 0.21704 0.32409 0.0
C2513 C 0.44661 0.22101 0.35079 0.0
C2514 C 0.45051 0.23627 0.35604 0.0
H2515 H 0.50121 0.2863 0.35142 0.0
H2516 H 0.48982 0.26561 0.35367 0.0
H2517 H 0.49495 0.27509 0.31573 0.0
H2518 H 0.47329 0.25262 0.29128 0.0
H2519 H 0.46672 0.22594 0.28241 0.0
H2520 H 0.78371 0.21731 0.29021 0.0
H2521 H 0.75644 0.19872 0.29689 0.0
H2522 H 0.75108 0.23106 0.35501 0.0
H2523 H 0.77864 0.2499 0.34843 0.0
H2524 H 0.73884 0.19958 0.38065 0.0
H2525 H 0.71886 0.20036 0.25836 0.0
H2526 H 0.73597 0.19892 0.26024 0.0
H2527 H 0.73641 0.21599 0.27453 0.0
C2528 C 0.77675 0.22048 0.3045 0.0
C2529 C 0.78331 0.23499 0.3191 0.0
C2530 C 0.76115 0.20991 0.30799 0.0
C2531 C 0.75175 0.21359 0.32614 0.0
C2532 C 0.75818 0.22808 0.34072 0.0
H2533 H 0.65273 0.14615 0.3394 0.0
H2534 H 0.67682 0.17087 0.33529 0.0
C2535 C 0.77385 0.2388 0.33694 0.0
C2536 C 0.73543 0.20182 0.33095 0.0
H2537 H 0.70251 0.17831 0.29014 0.0
C2538 C 0.73078 0.19511 0.36105 0.0
C2539 C 0.72494 0.19609 0.30534 0.0
C2540 C 0.72921 0.20329 0.27283 0.0
C2541 C 0.71617 0.18219 0.36576 0.0
C2542 C 0.70607 0.17586 0.33967 0.0
C2543 C 0.71037 0.18313 0.31002 0.0
C2544 C 0.69149 0.16107 0.34223 0.0
C2545 C 0.71179 0.17513 0.39838 0.0
C2546 C 0.69183 0.14743 0.34693 0.0
C2547 C 0.67817 0.13336 0.34904 0.0
C2548 C 0.66388 0.13267 0.34658 0.0
C2549 C 0.66357 0.14637 0.34162 0.0
C2550 C 0.67728 0.16045 0.33921 0.0
H2551 H 0.71913 0.1833 0.41709 0.0
H2552 H 0.69956 0.17133 0.4036 0.0
H2553 H 0.71323 0.16489 0.39939 0.0
H2554 H 0.70271 0.14768 0.34895 0.0
H2555 H 0.67881 0.12307 0.35325 0.0
H2556 H 0.87877 0.55672 0.35498 0.0
H2557 H 0.85437 0.55632 0.34961 0.0
H2558 H 0.83073 0.50716 0.33686 0.0
H2559 H 0.85525 0.50749 0.34183 0.0
H2560 H 0.82325 0.52408 0.29138 0.0
H2561 H 0.81884 0.53922 0.41598 0.0
H2562 H 0.83715 0.55165 0.39781 0.0
H2563 H 0.83113 0.53173 0.40412 0.0
C2564 C 0.86843 0.54583 0.35078 0.0
C2565 C 0.86895 0.53212 0.34878 0.0
C2566 C 0.85447 0.5456 0.34809 0.0
C2567 C 0.84075 0.53168 0.34334 0.0
C2568 C 0.8412 0.51799 0.34084 0.0
H2569 H 0.75303 0.53195 0.34784 0.0
H2570 H 0.77172 0.5232 0.35607 0.0
C2571 C 0.85518 0.51819 0.34377 0.0
C2572 C 0.82607 0.53165 0.33995 0.0
H2573 H 0.80284 0.54229 0.37802 0.0
C2574 C 0.81863 0.52782 0.31044 0.0
C2575 C 0.81995 0.53632 0.36501 0.0
C2576 C 0.82708 0.53983 0.39763 0.0
C2577 C 0.80573 0.52942 0.30477 0.0
C2578 C 0.80025 0.53509 0.3292 0.0
C2579 C 0.80713 0.53804 0.35927 0.0
C2580 C 0.78846 0.5395 0.32312 0.0
C2581 C 0.79828 0.52538 0.27247 0.0
C2582 C 0.79177 0.55157 0.30207 0.0
C2583 C 0.78125 0.5566 0.29753 0.0
C2584 C 0.7672 0.5497 0.31404 0.0
C2585 C 0.76376 0.53742 0.33477 0.0
C2586 C 0.7744 0.53246 0.33951 0.0
H2587 H 0.80076 0.51714 0.25986 0.0
H2588 H 0.78563 0.52032 0.27432 0.0
H2589 H 0.80291 0.53598 0.2579 0.0
H2590 H 0.80265 0.55732 0.28957 0.0
H2591 H 0.78414 0.56595 0.28109 0.0
H2592 H 0.55413 0.13373 0.8224 0.0
H2593 H 0.58136 0.1418 0.81342 0.0
H2594 H 0.57809 0.10852 0.88221 0.0
H2595 H 0.55111 0.10053 0.89143 0.0
H2596 H 0.60527 0.13972 0.8869 0.0
H2597 H 0.59494 0.11307 0.7668 0.0
H2598 H 0.5875 0.12573 0.77511 0.0
H2599 H 0.5796 0.10761 0.79522 0.0
C2600 C 0.55929 0.12825 0.83573 0.0
C2601 C 0.55047 0.11637 0.85728 0.0
C2602 C 0.57478 0.13281 0.8305 0.0
C2603 C 0.58163 0.12564 0.84698 0.0
C2604 C 0.57297 0.11414 0.86919 0.0
H2605 H 0.65652 0.10991 0.82494 0.0
H2606 H 0.63215 0.10955 0.8308 0.0
C2607 C 0.55754 0.10952 0.87423 0.0
C2608 C 0.59769 0.1296 0.8407 0.0
H2609 H 0.61987 0.1236 0.78771 0.0
C2610 C 0.60858 0.13644 0.86504 0.0
C2611 C 0.60183 0.12512 0.81228 0.0
C2612 C 0.5904 0.1174 0.78579 0.0
C2613 C 0.62345 0.13858 0.862 0.0
C2614 C 0.62747 0.13378 0.83385 0.0
C2615 C 0.61671 0.1273 0.8092 0.0
C2616 C 0.64239 0.13429 0.83051 0.0
C2617 C 0.63453 0.14531 0.88938 0.0
C2618 C 0.6562 0.14834 0.82836 0.0
C2619 C 0.67019 0.14859 0.82513 0.0
C2620 C 0.67059 0.13479 0.82405 0.0
C2621 C 0.65668 0.12075 0.82623 0.0
C2622 C 0.64272 0.12051 0.82929 0.0
H2623 H 0.62888 0.14634 0.91117 0.0
H2624 H 0.63977 0.13811 0.89477 0.0
H2625 H 0.64395 0.15695 0.88281 0.0
H2626 H 0.65615 0.15909 0.829 0.0
H2627 H 0.68071 0.15957 0.82369 0.0
H2628 H 0.87489 0.54021 0.87137 0.0
H2629 H 0.87665 0.51683 0.87563 0.0
H2630 H 0.85545 0.50216 0.78368 0.0
H2631 H 0.85365 0.52546 0.77925 0.0
H2632 H 0.84414 0.47835 0.82849 0.0
H2633 H 0.90794 0.51049 0.82543 0.0
H2634 H 0.89984 0.51661 0.85623 0.0
H2635 H 0.89661 0.51925 0.81533 0.0
C2636 C 0.87061 0.532 0.85208 0.0
C2637 C 0.8642 0.53475 0.82495 0.0
C2638 C 0.87163 0.51866 0.85452 0.0
C2639 C 0.8664 0.50789 0.82974 0.0
C2640 C 0.85956 0.51034 0.80306 0.0
H2641 H 0.89535 0.44047 0.8038 0.0
H2642 H 0.88856 0.46046 0.79562 0.0
C2643 C 0.85848 0.52365 0.80065 0.0
C2644 C 0.86848 0.49429 0.8312 0.0
H2645 H 0.89593 0.48385 0.83675 0.0
C2646 C 0.85545 0.47952 0.83021 0.0
C2647 C 0.88327 0.49586 0.83289 0.0
C2648 C 0.89773 0.51139 0.83223 0.0
C2649 C 0.85682 0.46627 0.8315 0.0
C2650 C 0.87159 0.46786 0.8343 0.0
C2651 C 0.8846 0.48264 0.83476 0.0
C2652 C 0.87395 0.45446 0.83708 0.0
C2653 C 0.84247 0.4507 0.82939 0.0
C2654 C 0.86776 0.44425 0.86276 0.0
C2655 C 0.87157 0.43277 0.86739 0.0
C2656 C 0.8818 0.43142 0.84662 0.0
C2657 C 0.88752 0.4413 0.82029 0.0
C2658 C 0.88365 0.45271 0.81559 0.0
H2659 H 0.83282 0.45145 0.81834 0.0
H2660 H 0.84457 0.44255 0.81544 0.0
H2661 H 0.83886 0.44596 0.85365 0.0
H2662 H 0.86054 0.44559 0.88005 0.0
H2663 H 0.86719 0.42551 0.88819 0.0
H2664 H 0.45704 0.33764 0.86525 0.0
H2665 H 0.48081 0.36245 0.86999 0.0
H2666 H 0.4989 0.35206 0.78674 0.0
H2667 H 0.47525 0.32729 0.78193 0.0
H2668 H 0.52048 0.36506 0.83474 0.0
H2669 H 0.49171 0.39908 0.81237 0.0
H2670 H 0.48367 0.38593 0.84501 0.0
H2671 H 0.48233 0.37863 0.80547 0.0
C2672 C 0.46608 0.34067 0.84795 0.0
C2673 C 0.46422 0.3305 0.82319 0.0
C2674 C 0.47964 0.35484 0.85065 0.0
C2675 C 0.49152 0.3592 0.82841 0.0
C2676 C 0.48987 0.34893 0.80415 0.0
H2677 H 0.56337 0.4538 0.79939 0.0
H2678 H 0.54291 0.42717 0.79151 0.0
C2679 C 0.47635 0.33473 0.80152 0.0
C2680 C 0.50555 0.37459 0.83001 0.0
H2681 H 0.5178 0.41297 0.82853 0.0
C2682 C 0.51993 0.37556 0.83328 0.0
C2683 C 0.50482 0.38825 0.82753 0.0
C2684 C 0.48983 0.38798 0.82209 0.0
C2685 C 0.53358 0.38985 0.83478 0.0
C2686 C 0.53278 0.4035 0.83347 0.0
C2687 C 0.51841 0.4025 0.82967 0.0
C2688 C 0.54658 0.41902 0.83639 0.0
C2689 C 0.54872 0.39018 0.83726 0.0
C2690 C 0.55567 0.42322 0.8639 0.0
C2691 C 0.56745 0.43841 0.86832 0.0
C2692 C 0.5702 0.44971 0.84548 0.0
C2693 C 0.56147 0.44534 0.81741 0.0
C2694 C 0.54978 0.43015 0.81292 0.0
H2695 H 0.54779 0.37931 0.82853 0.0
H2696 H 0.55785 0.39992 0.82358 0.0
H2697 H 0.5523 0.39159 0.86252 0.0
H2698 H 0.5532 0.41494 0.88266 0.0
H2699 H 0.57379 0.44149 0.89043 0.0
H2700 H 0.5573 0.67888 0.66474 0.0
H2701 H 0.55712 0.70295 0.66968 0.0
H2702 H 0.50775 0.67849 0.66074 0.0
H2703 H 0.50778 0.65419 0.65611 0.0
H2704 H 0.52272 0.70493 0.62208 0.0
H2705 H 0.543 0.7178 0.74655 0.0
H2706 H 0.55509 0.71381 0.72163 0.0
H2707 H 0.53561 0.69896 0.72921 0.0
C2708 C 0.54636 0.6785 0.66435 0.0
C2709 C 0.53253 0.66452 0.66025 0.0
C2710 C 0.54629 0.69232 0.6671 0.0
C2711 C 0.53241 0.69248 0.66602 0.0
C2712 C 0.51859 0.6786 0.66174 0.0
H2713 H 0.53222 0.77635 0.71884 0.0
H2714 H 0.52437 0.74921 0.71299 0.0
C2715 C 0.51863 0.66474 0.65899 0.0
C2716 C 0.53248 0.70723 0.66864 0.0
H2717 H 0.54429 0.73855 0.71645 0.0
C2718 C 0.52727 0.71223 0.64284 0.0
C2719 C 0.5382 0.71661 0.69591 0.0
C2720 C 0.54315 0.71148 0.72504 0.0
C2721 C 0.52824 0.72667 0.64309 0.0
C2722 C 0.53477 0.73642 0.66967 0.0
C2723 C 0.53939 0.73113 0.69596 0.0
C2724 C 0.53765 0.75242 0.67035 0.0
C2725 C 0.52228 0.73137 0.6149 0.0
C2726 C 0.54748 0.76322 0.64795 0.0
C2727 C 0.55186 0.77874 0.65103 0.0
C2728 C 0.54662 0.7838 0.67677 0.0
C2729 C 0.53628 0.77285 0.69845 0.0
C2730 C 0.53188 0.75733 0.6953 0.0
H2731 H 0.51349 0.72118 0.60166 0.0
H2732 H 0.51718 0.73846 0.62227 0.0
H2733 H 0.53195 0.73826 0.59843 0.0
H2734 H 0.55232 0.75977 0.62884 0.0
H2735 H 0.55977 0.78686 0.63384 0.0
H2736 H 0.34844 0.85369 0.6583 0.0
H2737 H 0.32375 0.82956 0.66125 0.0
H2738 H 0.2999 0.85523 0.66466 0.0
H2739 H 0.32441 0.87929 0.66139 0.0
H2740 H 0.30002 0.82055 0.71062 0.0
H2741 H 0.27957 0.82373 0.58999 0.0
H2742 H 0.29959 0.83451 0.60131 0.0
H2743 H 0.28659 0.84099 0.61313 0.0
C2744 C 0.33792 0.85416 0.65957 0.0
C2745 C 0.33838 0.8684 0.6596 0.0
C2746 C 0.32386 0.8404 0.66133 0.0
C2747 C 0.31004 0.84065 0.66273 0.0
C2748 C 0.31046 0.85481 0.66317 0.0
H2749 H 0.21847 0.78326 0.72023 0.0
H2750 H 0.24571 0.8019 0.71272 0.0
C2751 C 0.32449 0.86856 0.66166 0.0
C2752 C 0.2951 0.82616 0.6644 0.0
H2753 H 0.2608 0.80566 0.62584 0.0
C2754 C 0.29152 0.81715 0.69191 0.0
C2755 C 0.28412 0.82168 0.63978 0.0
C2756 C 0.28766 0.83064 0.60922 0.0
C2757 C 0.27688 0.80421 0.69616 0.0
C2758 C 0.26563 0.80025 0.67231 0.0
C2759 C 0.26947 0.80877 0.64409 0.0
C2760 C 0.2494 0.78837 0.67765 0.0
C2761 C 0.27338 0.79508 0.72647 0.0
C2762 C 0.24247 0.7746 0.66026 0.0
C2763 C 0.22686 0.76384 0.66462 0.0
C2764 C 0.21796 0.76692 0.6859 0.0
C2765 C 0.22502 0.78068 0.70338 0.0
C2766 C 0.24058 0.79128 0.69932 0.0
H2767 H 0.28404 0.7973 0.73894 0.0
H2768 H 0.26676 0.79837 0.74256 0.0
H2769 H 0.26626 0.78257 0.7216 0.0
H2770 H 0.24913 0.77223 0.64328 0.0
H2771 H 0.22165 0.75332 0.65087 0.0
H2772 H 0.21601 0.43058 0.70588 0.0
H2773 H 0.19712 0.43875 0.69969 0.0
H2774 H 0.23199 0.48209 0.66119 0.0
H2775 H 0.25105 0.47366 0.66605 0.0
H2776 H 0.19679 0.46333 0.72686 0.0
H2777 H 0.19772 0.46755 0.59502 0.0
H2778 H 0.20632 0.45806 0.61595 0.0
H2779 H 0.21585 0.47868 0.61487 0.0
C2780 C 0.21967 0.44173 0.69542 0.0
C2781 C 0.23501 0.45133 0.6858 0.0
C2782 C 0.20886 0.44646 0.69227 0.0
C2783 C 0.21308 0.46093 0.67961 0.0
C2784 C 0.22842 0.47074 0.67047 0.0
H2785 H 0.14752 0.49397 0.65132 0.0
H2786 H 0.17172 0.49397 0.6575 0.0
C2787 C 0.23932 0.46597 0.67352 0.0
C2788 C 0.2012 0.46551 0.67655 0.0
H2789 H 0.17995 0.47217 0.62221 0.0
C2790 C 0.19323 0.46544 0.70401 0.0
C2791 C 0.19659 0.46828 0.64671 0.0
C2792 C 0.20445 0.46806 0.61636 0.0
C2793 C 0.18044 0.46751 0.7023 0.0
C2794 C 0.17548 0.46966 0.67239 0.0
C2795 C 0.18384 0.47049 0.64508 0.0
C2796 C 0.16091 0.4698 0.66884 0.0
C2797 C 0.17205 0.467 0.73236 0.0
C2798 C 0.14687 0.45617 0.67299 0.0
C2799 C 0.133 0.45603 0.66903 0.0
C2800 C 0.13288 0.46957 0.66092 0.0
C2801 C 0.14708 0.48327 0.65706 0.0
C2802 C 0.16096 0.48334 0.66075 0.0
H2803 H 0.17908 0.46849 0.75383 0.0
H2804 H 0.16881 0.47608 0.73212 0.0
H2805 H 0.16131 0.4557 0.73404 0.0
H2806 H 0.14665 0.44556 0.67892 0.0
H2807 H 0.12242 0.44522 0.67178 0.0
H2808 H 0.33532 0.87622 0.13278 0.0
H2809 H 0.36012 0.87741 0.12622 0.0
H2810 H 0.35405 0.85496 0.21663 0.0
H2811 H 0.32925 0.85362 0.22315 0.0
H2812 H 0.38509 0.89243 0.16318 0.0
H2813 H 0.36707 0.83051 0.16139 0.0
H2814 H 0.3536 0.83731 0.15685 0.0
H2815 H 0.3603 0.83596 0.19565 0.0
C2816 C 0.33924 0.87145 0.15113 0.0
C2817 C 0.33028 0.86476 0.17838 0.0
C2818 C 0.35337 0.87208 0.14732 0.0
C2819 C 0.35885 0.86605 0.17069 0.0
C2820 C 0.34989 0.85929 0.19786 0.0
H2821 H 0.45536 0.89543 0.1965 0.0
H2822 H 0.42857 0.88883 0.20381 0.0
C2823 C 0.3357 0.85856 0.20158 0.0
C2824 C 0.37439 0.86783 0.16762 0.0
H2825 H 0.39396 0.84811 0.16739 0.0
C2826 C 0.387 0.88272 0.16395 0.0
C2827 C 0.37688 0.85515 0.1683 0.0
C2828 C 0.36373 0.83882 0.17044 0.0
C2829 C 0.40203 0.88531 0.1614 0.0
C2830 C 0.4046 0.8727 0.16334 0.0
C2831 C 0.39198 0.85777 0.16642 0.0
C2832 C 0.42031 0.87488 0.16141 0.0
C2833 C 0.41501 0.90153 0.15606 0.0
C2834 C 0.42438 0.8685 0.13617 0.0
C2835 C 0.43966 0.87213 0.13213 0.0
C2836 C 0.45111 0.8822 0.15328 0.0
C2837 C 0.44681 0.8878 0.17961 0.0
C2838 C 0.43153 0.88409 0.18374 0.0
H2839 H 0.41077 0.9091 0.14685 0.0
H2840 H 0.42093 0.90639 0.17893 0.0
H2841 H 0.42357 0.90175 0.13906 0.0
H2842 H 0.41587 0.8613 0.11877 0.0
H2843 H 0.44265 0.86774 0.11148 0.0
H2844 H 0.15089 0.47727 0.21834 0.0
H2845 H 0.14948 0.50069 0.2117 0.0
H2846 H 0.11685 0.47936 0.13573 0.0
H2847 H 0.11842 0.45597 0.14161 0.0
H2848 H 0.15368 0.51961 0.15233 0.0
H2849 H 0.0955 0.49225 0.20692 0.0
H2850 H 0.10849 0.48491 0.21253 0.0
H2851 H 0.09809 0.48142 0.17597 0.0
C2852 C 0.14363 0.4776 0.19978 0.0
C2853 C 0.13467 0.46463 0.18061 0.0
C2854 C 0.14281 0.491 0.19615 0.0
C2855 C 0.13296 0.49165 0.17348 0.0
C2856 C 0.12439 0.47898 0.15362 0.0
H2857 H 0.09758 0.54915 0.11697 0.0
H2858 H 0.10473 0.52953 0.12545 0.0
C2859 C 0.12524 0.4656 0.15713 0.0
C2860 C 0.131 0.50526 0.17144 0.0
H2861 H 0.10452 0.51656 0.18291 0.0
C2862 C 0.143 0.51906 0.15922 0.0
C2863 C 0.11709 0.50443 0.18069 0.0
C2864 C 0.10406 0.49001 0.19502 0.0
C2865 C 0.14117 0.53192 0.15466 0.0
C2866 C 0.12708 0.53095 0.16315 0.0
C2867 C 0.11529 0.51726 0.17632 0.0
C2868 C 0.12377 0.54351 0.15673 0.0
C2869 C 0.15406 0.5462 0.13966 0.0
C2870 C 0.13222 0.55798 0.17128 0.0
C2871 C 0.12815 0.5693 0.16638 0.0
C2872 C 0.11544 0.56617 0.14728 0.0
C2873 C 0.10725 0.55178 0.13231 0.0
C2874 C 0.11136 0.54059 0.13701 0.0
H2875 H 0.16277 0.54397 0.12847 0.0
H2876 H 0.14953 0.55088 0.12141 0.0
H2877 H 0.15989 0.55513 0.15818 0.0
H2878 H 0.14168 0.56039 0.18702 0.0
H2879 H 0.13462 0.58029 0.17823 0.0
H2880 H 0.41879 0.55515 0.18273 0.0
H2881 H 0.43758 0.58267 0.18973 0.0
H2882 H 0.46851 0.57848 0.12493 0.0
H2883 H 0.44995 0.55122 0.11788 0.0
H2884 H 0.46996 0.59469 0.2109 0.0
H2885 H 0.46532 0.61634 0.0927 0.0
H2886 H 0.45023 0.59855 0.10926 0.0
H2887 H 0.46691 0.59929 0.09177 0.0
C2888 C 0.42956 0.56019 0.16985 0.0
C2889 C 0.43299 0.55106 0.15001 0.0
C2890 C 0.44025 0.57584 0.17387 0.0
C2891 C 0.45433 0.58258 0.15758 0.0
C2892 C 0.45763 0.57352 0.13741 0.0
H2893 H 0.54144 0.66363 0.14021 0.0
H2894 H 0.51737 0.63927 0.13507 0.0
C2895 C 0.44708 0.55793 0.13366 0.0
C2896 C 0.46611 0.59888 0.16267 0.0
H2897 H 0.48769 0.63269 0.12315 0.0
C2898 C 0.4737 0.60313 0.19199 0.0
C2899 C 0.47095 0.60975 0.1378 0.0
C2900 C 0.46286 0.60584 0.10615 0.0
C2901 C 0.48658 0.61777 0.19659 0.0
C2902 C 0.49174 0.62853 0.17136 0.0
C2903 C 0.48375 0.62443 0.14243 0.0
C2904 C 0.50599 0.64371 0.17381 0.0
C2905 C 0.49504 0.62129 0.22782 0.0
C2906 C 0.50748 0.65444 0.19687 0.0
C2907 C 0.52131 0.66832 0.20014 0.0
C2908 C 0.5339 0.6718 0.18018 0.0
C2909 C 0.53212 0.66123 0.15635 0.0
C2910 C 0.51832 0.64734 0.15321 0.0
H2911 H 0.49174 0.6107 0.24177 0.0
H2912 H 0.50767 0.62742 0.224 0.0
H2913 H 0.49222 0.62881 0.24218 0.0
H2914 H 0.498 0.652 0.21261 0.0
H2915 H 0.52221 0.67606 0.2189 0.0
H2916 H 0.1114 0.65693 0.6729 0.0
H2917 H 0.11105 0.63255 0.66869 0.0
H2918 H 0.16048 0.65636 0.67611 0.0
H2919 H 0.16095 0.68092 0.68019 0.0
H2920 H 0.12495 0.62315 0.62392 0.0
H2921 H 0.14662 0.62326 0.74534 0.0
H2922 H 0.13974 0.63606 0.73369 0.0
H2923 H 0.15854 0.64 0.72181 0.0
C2924 C 0.12223 0.65706 0.67332 0.0
C2925 C 0.13622 0.67092 0.67693 0.0
C2926 C 0.122 0.64308 0.6711 0.0
C2927 C 0.13572 0.64262 0.67254 0.0
C2928 C 0.14973 0.65642 0.67563 0.0
H2929 H 0.13676 0.55896 0.61819 0.0
H2930 H 0.14415 0.58602 0.62405 0.0
C2931 C 0.14998 0.67044 0.67791 0.0
C2932 C 0.13521 0.62764 0.67034 0.0
H2933 H 0.14222 0.60257 0.71189 0.0
C2934 C 0.12882 0.61868 0.64305 0.0
C2935 C 0.14013 0.62181 0.6955 0.0
C2936 C 0.14653 0.63069 0.72589 0.0
C2937 C 0.12702 0.60395 0.64034 0.0
C2938 C 0.13203 0.59814 0.6654 0.0
C2939 C 0.13856 0.60715 0.69259 0.0
C2940 C 0.12948 0.58227 0.66463 0.0
C2941 C 0.11923 0.59451 0.61119 0.0
C2942 C 0.11945 0.57136 0.68657 0.0
C2943 C 0.11536 0.55592 0.68356 0.0
C2944 C 0.12126 0.55112 0.65857 0.0
C2945 C 0.13207 0.56226 0.63783 0.0
C2946 C 0.13618 0.57771 0.6409 0.0
H2947 H 0.11314 0.59931 0.59751 0.0
H2948 H 0.12801 0.59437 0.59543 0.0
H2949 H 0.11082 0.58245 0.61772 0.0
H2950 H 0.11425 0.57467 0.70521 0.0
H2951 H 0.10718 0.54766 0.70019 0.0
H2952 H 0.45218 0.55088 0.61954 0.0
H2953 H 0.42536 0.53142 0.62802 0.0
H2954 H 0.42001 0.56181 0.69239 0.0
H2955 H 0.44708 0.58156 0.68372 0.0
H2956 H 0.41296 0.5181 0.68632 0.0
H2957 H 0.38212 0.54603 0.63415 0.0
H2958 H 0.40214 0.55269 0.626 0.0
H2959 H 0.39656 0.55694 0.6634 0.0
C2960 C 0.4453 0.55345 0.63549 0.0
C2961 C 0.45176 0.56765 0.65133 0.0
C2962 C 0.42996 0.54235 0.64019 0.0
C2963 C 0.42068 0.54517 0.66074 0.0
C2964 C 0.42693 0.55948 0.67606 0.0
H2965 H 0.32667 0.47814 0.71902 0.0
H2966 H 0.35148 0.50177 0.71371 0.0
C2967 C 0.44236 0.57071 0.67121 0.0
C2968 C 0.4048 0.53261 0.66722 0.0
H2969 H 0.36688 0.5213 0.6563 0.0
C2970 C 0.40289 0.51884 0.67991 0.0
C2971 C 0.39169 0.53364 0.659 0.0
C2972 C 0.39313 0.54806 0.64466 0.0
C2973 C 0.38825 0.50596 0.68394 0.0
C2974 C 0.37517 0.50681 0.67473 0.0
C2975 C 0.37698 0.52071 0.66312 0.0
C2976 C 0.35962 0.49309 0.67596 0.0
C2977 C 0.38687 0.49146 0.69778 0.0
C2978 C 0.35587 0.48057 0.6559 0.0
C2979 C 0.34167 0.46709 0.65867 0.0
C2980 C 0.33093 0.46585 0.68158 0.0
C2981 C 0.33454 0.47868 0.70089 0.0
C2982 C 0.34876 0.4922 0.69802 0.0
H2983 H 0.39755 0.49372 0.71024 0.0
H2984 H 0.3771 0.48602 0.71469 0.0
H2985 H 0.38468 0.48315 0.67836 0.0
H2986 H 0.36406 0.48114 0.63843 0.0
H2987 H 0.33917 0.45756 0.64305 0.0
H2988 H 0.45098 0.89916 0.61323 0.0
H2989 H 0.46991 0.89102 0.62117 0.0
H2990 H 0.4402 0.85749 0.68996 0.0
H2991 H 0.42108 0.86572 0.6822 0.0
H2992 H 0.47163 0.87746 0.71003 0.0
H2993 H 0.4684 0.85076 0.59314 0.0
H2994 H 0.47007 0.86937 0.59032 0.0
H2995 H 0.45322 0.85373 0.60811 0.0
C2996 C 0.44844 0.89002 0.63002 0.0
C2997 C 0.43463 0.88315 0.64733 0.0
C2998 C 0.4592 0.88528 0.63427 0.0
C2999 C 0.45637 0.87354 0.65586 0.0
C3000 C 0.44252 0.86649 0.673 0.0
H3001 H 0.52375 0.84246 0.67303 0.0
H3002 H 0.49934 0.84228 0.66823 0.0
C3003 C 0.43162 0.87116 0.66852 0.0
C3004 C 0.46847 0.86952 0.66168 0.0
H3005 H 0.49136 0.85847 0.62352 0.0
C3006 C 0.47579 0.87306 0.69132 0.0
C3007 C 0.47378 0.86366 0.63731 0.0
C3008 C 0.46587 0.85901 0.60551 0.0
C3009 C 0.48884 0.87167 0.69667 0.0
C3010 C 0.49475 0.86678 0.67162 0.0
C3011 C 0.48691 0.86242 0.64256 0.0
C3012 C 0.50946 0.86682 0.67464 0.0
C3013 C 0.49636 0.87571 0.72892 0.0
C3014 C 0.52324 0.88071 0.67924 0.0
C3015 C 0.53717 0.88086 0.68192 0.0
C3016 C 0.53759 0.86709 0.68004 0.0
C3017 C 0.52377 0.85322 0.67496 0.0
C3018 C 0.50984 0.85309 0.67211 0.0
H3019 H 0.48828 0.87517 0.74755 0.0
H3020 H 0.50069 0.86785 0.73559 0.0
H3021 H 0.50628 0.88761 0.72833 0.0
H3022 H 0.52321 0.89146 0.68071 0.0
H3023 H 0.54756 0.89171 0.6861 0.0
H3024 H 0.22465 0.46638 0.22364 0.0
H3025 H 0.2514 0.47294 0.21629 0.0
H3026 H 0.23919 0.44723 0.12881 0.0
H3027 H 0.21238 0.44056 0.13612 0.0
H3028 H 0.25437 0.43846 0.16975 0.0
H3029 H 0.28598 0.50193 0.15742 0.0
H3030 H 0.27386 0.49513 0.19186 0.0
H3031 H 0.26538 0.49046 0.15298 0.0
C3032 C 0.22774 0.46252 0.20235 0.0
C3033 C 0.21641 0.45296 0.18043 0.0
C3034 C 0.24305 0.46627 0.19819 0.0
C3035 C 0.24732 0.46067 0.17188 0.0
C3036 C 0.23614 0.45168 0.14927 0.0
H3037 H 0.33875 0.48119 0.11557 0.0
H3038 H 0.3137 0.47947 0.12019 0.0
C3039 C 0.22084 0.44788 0.15348 0.0
C3040 C 0.26304 0.46288 0.16947 0.0
H3041 H 0.30114 0.49006 0.16625 0.0
C3042 C 0.26459 0.44974 0.16881 0.0
C3043 C 0.27635 0.4776 0.16809 0.0
C3044 C 0.27536 0.49209 0.16732 0.0
C3045 C 0.27908 0.45091 0.16713 0.0
C3046 C 0.29242 0.46564 0.16674 0.0
C3047 C 0.29089 0.47879 0.16695 0.0
C3048 C 0.30803 0.46754 0.16522 0.0
C3049 C 0.27995 0.43636 0.16521 0.0
C3050 C 0.31331 0.46171 0.18936 0.0
C3051 C 0.32765 0.46269 0.18681 0.0
C3052 C 0.33705 0.46966 0.16022 0.0
C3053 C 0.33192 0.47593 0.13656 0.0
C3054 C 0.31755 0.47489 0.13908 0.0
H3055 H 0.26883 0.42637 0.15766 0.0
H3056 H 0.28903 0.4377 0.14834 0.0
H3057 H 0.28281 0.43374 0.18898 0.0
H3058 H 0.30626 0.45628 0.21006 0.0
H3059 H 0.33138 0.45797 0.20561 0.0
H3060 H 0.50763 0.85463 0.14766 0.0
H3061 H 0.50768 0.8305 0.15502 0.0
H3062 H 0.55593 0.85583 0.17781 0.0
H3063 H 0.55624 0.87994 0.16951 0.0
H3064 H 0.5302 0.82242 0.12126 0.0
H3065 H 0.53232 0.8236 0.25305 0.0
H3066 H 0.52471 0.83356 0.23033 0.0
H3067 H 0.54511 0.84139 0.23331 0.0
C3068 C 0.51831 0.85515 0.15397 0.0
C3069 C 0.53195 0.86938 0.15789 0.0
C3070 C 0.51827 0.84131 0.15833 0.0
C3071 C 0.53178 0.84145 0.16715 0.0
C3072 C 0.54535 0.85554 0.17133 0.0
H3073 H 0.57139 0.78706 0.20962 0.0
H3074 H 0.56314 0.80583 0.20218 0.0
C3075 C 0.54546 0.86935 0.1667 0.0
C3076 C 0.532 0.82696 0.1714 0.0
H3077 H 0.53812 0.80606 0.22729 0.0
C3078 C 0.53166 0.81862 0.14442 0.0
C3079 C 0.53391 0.82214 0.20167 0.0
C3080 C 0.53393 0.83054 0.23137 0.0
C3081 C 0.5341 0.80604 0.1468 0.0
C3082 C 0.53661 0.80157 0.17704 0.0
C3083 C 0.53621 0.80951 0.20412 0.0
C3084 C 0.54127 0.78979 0.18098 0.0
C3085 C 0.53485 0.79823 0.11682 0.0
C3086 C 0.53167 0.77444 0.17167 0.0
C3087 C 0.53649 0.76363 0.17544 0.0
C3088 C 0.55097 0.76801 0.18869 0.0
C3089 C 0.56037 0.78334 0.19849 0.0
C3090 C 0.55559 0.79408 0.1946 0.0
H3091 H 0.53564 0.80495 0.09526 0.0
H3092 H 0.5449 0.79644 0.11733 0.0
H3093 H 0.5243 0.7868 0.11489 0.0
H3094 H 0.52044 0.77081 0.16164 0.0
H3095 H 0.52897 0.75191 0.16776 0.0
H3096 H 0.12606 0.67107 0.19796 0.0
H3097 H 0.15008 0.69548 0.2032 0.0
H3098 H 0.16925 0.68332 0.12436 0.0
H3099 H 0.1451 0.65926 0.11795 0.0
H3100 H 0.17977 0.70204 0.21436 0.0
H3101 H 0.17541 0.72475 0.09685 0.0
H3102 H 0.15955 0.70789 0.11438 0.0
H3103 H 0.17496 0.70666 0.09555 0.0
C3104 C 0.13532 0.67362 0.18154 0.0
C3105 C 0.1335 0.66319 0.15735 0.0
C3106 C 0.14909 0.68753 0.18473 0.0
C3107 C 0.16136 0.69133 0.16383 0.0
C3108 C 0.15982 0.68076 0.14036 0.0
H3109 H 0.24887 0.77961 0.15581 0.0
H3110 H 0.22996 0.75213 0.14849 0.0
C3111 C 0.14602 0.66687 0.13702 0.0
C3112 C 0.17561 0.70649 0.16645 0.0
H3113 H 0.1974 0.74049 0.12746 0.0
C3114 C 0.18369 0.7104 0.19527 0.0
C3115 C 0.18073 0.71737 0.14146 0.0
C3116 C 0.17217 0.71407 0.11039 0.0
C3117 C 0.19655 0.72502 0.20002 0.0
C3118 C 0.20138 0.73601 0.17539 0.0
C3119 C 0.19369 0.73195 0.14618 0.0
C3120 C 0.21324 0.75224 0.18069 0.0
C3121 C 0.20474 0.72875 0.23155 0.0
C3122 C 0.20999 0.76129 0.20102 0.0
C3123 C 0.2206 0.77685 0.20495 0.0
C3124 C 0.2347 0.7837 0.18863 0.0
C3125 C 0.23809 0.77458 0.16867 0.0
C3126 C 0.22733 0.75896 0.16446 0.0
H3127 H 0.20218 0.71818 0.24483 0.0
H3128 H 0.21737 0.73591 0.22827 0.0
H3129 H 0.20089 0.73538 0.24619 0.0
H3130 H 0.1991 0.75634 0.21347 0.0
H3131 H 0.21777 0.78357 0.22081 0.0
H3132 H 0.2538 0.21941 0.13875 0.0
H3133 H 0.24784 0.22849 0.18785 0.0
H3134 H 0.20357 0.1871 0.19199 0.0
H3135 H 0.20932 0.17807 0.14288 0.0
H3136 H 0.20217 0.21365 0.20347 0.0
H3137 H 0.24731 0.21225 0.27732 0.0
H3138 H 0.25408 0.22344 0.2416 0.0
H3139 H 0.24166 0.20298 0.23908 0.0
C3140 C 0.24278 0.21227 0.1501 0.0
C3141 C 0.23205 0.198 0.137 0.0
C3142 C 0.23944 0.21743 0.17826 0.0
C3143 C 0.22536 0.20835 0.19386 0.0
C3144 C 0.21454 0.19425 0.18045 0.0
H3145 H 0.178 0.20971 0.36359 0.0
H3146 H 0.18642 0.20373 0.31386 0.0
C3147 C 0.21785 0.18911 0.15236 0.0
C3148 C 0.22171 0.2135 0.22402 0.0
H3149 H 0.23246 0.22166 0.30174 0.0
C3150 C 0.20881 0.21543 0.22494 0.0
C3151 C 0.23041 0.21584 0.25199 0.0
C3152 C 0.24407 0.21342 0.2527 0.0
C3153 C 0.20434 0.21961 0.25306 0.0
C3154 C 0.21286 0.22167 0.28117 0.0
C3155 C 0.22594 0.22004 0.28016 0.0
C3156 C 0.20809 0.22511 0.312 0.0
C3157 C 0.1906 0.2219 0.25239 0.0
C3158 C 0.21771 0.2389 0.32802 0.0
C3159 C 0.21295 0.24234 0.35658 0.0
C3160 C 0.19853 0.23197 0.36971 0.0
C3161 C 0.18913 0.21798 0.35403 0.0
C3162 C 0.19388 0.21458 0.3255 0.0
H3163 H 0.18792 0.22394 0.2279 0.0
H3164 H 0.1804 0.21142 0.26166 0.0
H3165 H 0.19254 0.23176 0.26755 0.0
H3166 H 0.22877 0.24714 0.3181 0.0
H3167 H 0.22047 0.25319 0.36813 0.0
H3168 H 0.82197 0.03133 0.14216 0.0
H3169 H 0.81347 0.01692 0.19187 0.0
H3170 H 0.77049 0.01665 0.18554 0.0
H3171 H 0.77886 0.03098 0.13556 0.0
H3172 H 0.80538 0.02673 0.24755 0.0
H3173 H 0.75696 0.97138 0.20385 0.0
H3174 H 0.77143 0.98538 0.17768 0.0
H3175 H 0.75632 0.98831 0.19254 0.0
C3176 C 0.81063 0.02806 0.15111 0.0
C3177 C 0.80107 0.03227 0.13488 0.0
C3178 C 0.8058 0.01985 0.17957 0.0
C3179 C 0.7913 0.0156 0.19228 0.0
C3180 C 0.78162 0.01959 0.17591 0.0
H3181 H 0.74745 0.96616 0.36796 0.0
H3182 H 0.75324 0.98113 0.31875 0.0
C3183 C 0.78645 0.02782 0.1474 0.0
C3184 C 0.78669 0.00765 0.22341 0.0
H3185 H 0.76077 0.97405 0.25935 0.0
C3186 C 0.79562 0.01521 0.25014 0.0
C3187 C 0.77387 0.99268 0.22677 0.0
C3188 C 0.76413 0.98387 0.1987 0.0
C3189 C 0.79214 0.0082 0.28014 0.0
C3190 C 0.77955 0.99309 0.28339 0.0
C3191 C 0.77041 0.98564 0.2568 0.0
C3192 C 0.77618 0.98453 0.3138 0.0
C3193 C 0.80191 0.01708 0.30814 0.0
C3194 C 0.78712 0.98143 0.32724 0.0
C3195 C 0.78387 0.97293 0.35526 0.0
C3196 C 0.76956 0.96728 0.37037 0.0
C3197 C 0.75861 0.97044 0.35698 0.0
C3198 C 0.76188 0.97894 0.32884 0.0
H3199 H 0.80793 0.02968 0.30381 0.0
H3200 H 0.79488 0.01452 0.33001 0.0
H3201 H 0.81079 0.01377 0.31227 0.0
H3202 H 0.79811 0.98534 0.31572 0.0
H3203 H 0.79252 0.97062 0.36483 0.0
H3204 H 0.032 0.82344 0.36303 0.0
H3205 H 0.01659 0.8148 0.31461 0.0
H3206 H 0.01754 0.77238 0.31766 0.0
H3207 H 0.03317 0.78103 0.36602 0.0
H3208 H 0.02451 0.78633 0.25797 0.0
H3209 H 0.97122 0.78236 0.30586 0.0
H3210 H 0.98811 0.80066 0.31265 0.0
H3211 H 0.98637 0.78372 0.33111 0.0
C3212 C 0.02885 0.81222 0.35354 0.0
C3213 C 0.03376 0.80289 0.36841 0.0
C3214 C 0.01997 0.80727 0.32595 0.0
C3215 C 0.01571 0.79284 0.3128 0.0
C3216 C 0.02062 0.78351 0.32753 0.0
H3217 H 0.96529 0.74705 0.13985 0.0
H3218 H 0.97985 0.75336 0.18954 0.0
C3219 C 0.02952 0.78846 0.35517 0.0
C3220 C 0.00661 0.78779 0.28305 0.0
H3221 H 0.97284 0.78109 0.24964 0.0
C3222 C 0.01315 0.78504 0.25618 0.0
C3223 C 0.9918 0.78613 0.28081 0.0
C3224 C 0.98388 0.78822 0.30921 0.0
C3225 C 0.00547 0.78113 0.22686 0.0
C3226 C 0.99077 0.77971 0.22451 0.0
C3227 C 0.98414 0.78225 0.25148 0.0
C3228 C 0.98216 0.77588 0.19416 0.0
C3229 C 0.01335 0.77902 0.19841 0.0
C3230 C 0.9784 0.78633 0.18055 0.0
C3231 C 0.97004 0.78273 0.15227 0.0
C3232 C 0.96519 0.76856 0.13714 0.0
C3233 C 0.96893 0.75809 0.15084 0.0
C3234 C 0.97731 0.76171 0.17915 0.0
H3235 H 0.02589 0.78398 0.2024 0.0
H3236 H 0.00832 0.76655 0.19359 0.0
H3237 H 0.01165 0.78444 0.177 0.0
H3238 H 0.98198 0.79731 0.19181 0.0
H3239 H 0.96732 0.79104 0.14237 0.0
H3240 H 0.79178 0.82405 0.86444 0.0
H3241 H 0.79782 0.81615 0.81405 0.0
H3242 H 0.7547 0.77346 0.81781 0.0
H3243 H 0.74849 0.78134 0.86808 0.0
H3244 H 0.80022 0.78999 0.80016 0.0
H3245 H 0.75383 0.7908 0.7299 0.0
H3246 H 0.75968 0.79978 0.76838 0.0
H3247 H 0.74753 0.7793 0.76528 0.0
C3248 C 0.78359 0.81297 0.85458 0.0
C3249 C 0.76962 0.80335 0.87015 0.0
C3250 C 0.78706 0.80848 0.82579 0.0
C3251 C 0.7766 0.79434 0.81193 0.0
C3252 C 0.76279 0.78456 0.82776 0.0
H3253 H 0.77939 0.74934 0.63705 0.0
H3254 H 0.77179 0.75611 0.6871 0.0
C3255 C 0.75931 0.78903 0.85659 0.0
C3256 C 0.78026 0.78981 0.78109 0.0
H3257 H 0.76848 0.78151 0.70396 0.0
C3258 C 0.79331 0.78816 0.77911 0.0
C3259 C 0.77118 0.78738 0.7537 0.0
C3260 C 0.75734 0.78952 0.75419 0.0
C3261 C 0.79745 0.78402 0.75052 0.0
C3262 C 0.78848 0.78177 0.72303 0.0
C3263 C 0.77534 0.78327 0.72506 0.0
C3264 C 0.7927 0.77805 0.69188 0.0
C3265 C 0.81128 0.78185 0.75014 0.0
C3266 C 0.80676 0.78835 0.67754 0.0
C3267 C 0.81113 0.78452 0.64904 0.0
C3268 C 0.80146 0.77036 0.63419 0.0
C3269 C 0.7871 0.76032 0.64795 0.0
C3270 C 0.78275 0.76415 0.67654 0.0
H3271 H 0.81435 0.77994 0.77438 0.0
H3272 H 0.80919 0.77196 0.73494 0.0
H3273 H 0.82129 0.79234 0.74037 0.0
H3274 H 0.81446 0.79929 0.68861 0.0
H3275 H 0.82222 0.79256 0.63894 0.0
H3276 H 0.25113 0.02945 0.63337 0.0
H3277 H 0.24432 0.01428 0.68236 0.0
H3278 H 0.20113 0.01372 0.68565 0.0
H3279 H 0.20775 0.02871 0.63667 0.0
H3280 H 0.23801 0.02314 0.74127 0.0
H3281 H 0.1883 0.96848 0.69945 0.0
H3282 H 0.20189 0.98285 0.67256 0.0
H3283 H 0.18692 0.9852 0.69031 0.0
C3284 C 0.24008 0.02589 0.64428 0.0
C3285 C 0.22996 0.03024 0.63112 0.0
C3286 C 0.23624 0.01728 0.6723 0.0
C3287 C 0.22216 0.01274 0.68745 0.0
C3288 C 0.21193 0.01685 0.67405 0.0
H3289 H 0.17732 0.96773 0.86215 0.0
H3290 H 0.18516 0.98164 0.81174 0.0
C3291 C 0.21577 0.02548 0.64612 0.0
C3292 C 0.21848 0.00446 0.71818 0.0
H3293 H 0.19193 0.97161 0.75537 0.0
C3294 C 0.22802 0.01181 0.74434 0.0
C3295 C 0.20541 0.98972 0.72209 0.0
C3296 C 0.1951 0.98101 0.69457 0.0
C3297 C 0.22459 0.00499 0.77455 0.0
C3298 C 0.21142 0.99031 0.77853 0.0
C3299 C 0.20199 0.98289 0.75227 0.0
C3300 C 0.20709 0.98248 0.80977 0.0
C3301 C 0.23483 0.01374 0.80211 0.0
C3302 C 0.21684 0.97835 0.82541 0.0
C3303 C 0.21241 0.97045 0.8543 0.0
C3304 C 0.1981 0.96643 0.86792 0.0
C3305 C 0.18842 0.97069 0.85231 0.0
C3306 C 0.19287 0.9786 0.82347 0.0
H3307 H 0.24206 0.0262 0.79678 0.0
H3308 H 0.22792 0.01239 0.82371 0.0
H3309 H 0.2426 0.00916 0.8074 0.0
H3310 H 0.22774 0.98098 0.81498 0.0
H3311 H 0.22007 0.96724 0.86564 0.0
H3312 H 0.03205 0.25192 0.86807 0.0
H3313 H 0.01699 0.24514 0.81893 0.0
H3314 H 0.0165 0.20199 0.81575 0.0
H3315 H 0.03135 0.20858 0.86492 0.0
H3316 H 0.0251 0.23878 0.7597 0.0
H3317 H 0.97122 0.18876 0.80354 0.0
H3318 H 0.98585 0.2024 0.82992 0.0
H3319 H 0.9881 0.18748 0.81155 0.0
C3320 C 0.02858 0.24091 0.85709 0.0
C3321 C 0.03283 0.23075 0.87047 0.0
C3322 C 0.02002 0.23708 0.82897 0.0
C3323 C 0.01545 0.22297 0.81388 0.0
C3324 C 0.01963 0.21279 0.8273 0.0
H3325 H 0.96901 0.17741 0.64073 0.0
H3326 H 0.98341 0.18559 0.6905 0.0
C3327 C 0.02818 0.21662 0.85536 0.0
C3328 C 0.00687 0.21913 0.78344 0.0
H3329 H 0.97376 0.19223 0.74753 0.0
C3330 C 0.01382 0.22868 0.75706 0.0
C3331 C 0.99216 0.20594 0.78005 0.0
C3332 C 0.98381 0.19562 0.80782 0.0
C3333 C 0.00664 0.22514 0.72717 0.0
C3334 C 0.99202 0.21183 0.72371 0.0
C3335 C 0.985 0.20239 0.75019 0.0
C3336 C 0.98386 0.20732 0.69278 0.0
C3337 C 0.01498 0.23542 0.69936 0.0
C3338 C 0.97931 0.21683 0.67748 0.0
C3339 C 0.9711 0.2122 0.64894 0.0
C3340 C 0.9672 0.19793 0.63529 0.0
C3341 C 0.97186 0.18849 0.65057 0.0
C3342 C 0.98007 0.19313 0.67906 0.0
H3343 H 0.02746 0.24286 0.70416 0.0
H3344 H 0.01354 0.22853 0.6777 0.0
H3345 H 0.01011 0.24298 0.69448 0.0
H3346 H 0.98186 0.2277 0.68792 0.0
H3347 H 0.96759 0.21968 0.63786 0.0
H3348 H 0.92063 0.55216 0.47218 0.0
H3349 H 0.91466 0.55994 0.52288 0.0
H3350 H 0.87079 0.51802 0.52514 0.0
H3351 H 0.87674 0.51007 0.47476 0.0
H3352 H 0.89022 0.56441 0.53953 0.0
H3353 H 0.88948 0.51772 0.61117 0.0
H3354 H 0.89743 0.52236 0.57163 0.0
H3355 H 0.87698 0.511 0.57731 0.0
C3356 C 0.9097 0.54461 0.48346 0.0
C3357 C 0.8992 0.53045 0.46957 0.0
C3358 C 0.90632 0.54907 0.51242 0.0
C3359 C 0.89241 0.53943 0.52807 0.0
C3360 C 0.88174 0.52547 0.51384 0.0
H3361 H 0.84598 0.54273 0.69726 0.0
H3362 H 0.85441 0.53608 0.64836 0.0
C3363 C 0.88512 0.521 0.48493 0.0
C3364 C 0.88896 0.54402 0.5591 0.0
H3365 H 0.88009 0.53262 0.63631 0.0
C3366 C 0.88813 0.55754 0.56077 0.0
C3367 C 0.88626 0.53504 0.58678 0.0
C3368 C 0.88771 0.5208 0.58683 0.0
C3369 C 0.8842 0.56207 0.58916 0.0
C3370 C 0.88128 0.55297 0.61672 0.0
C3371 C 0.88231 0.53956 0.61514 0.0
C3372 C 0.87661 0.55688 0.64714 0.0
C3373 C 0.88271 0.5763 0.58916 0.0
C3374 C 0.88644 0.57063 0.6631 0.0
C3375 C 0.88166 0.57448 0.69111 0.0
C3376 C 0.86697 0.56459 0.70369 0.0
C3377 C 0.85735 0.55062 0.68814 0.0
C3378 C 0.86214 0.54679 0.66019 0.0
H3379 H 0.88187 0.57996 0.56472 0.0
H3380 H 0.87243 0.57434 0.60281 0.0
H3381 H 0.89301 0.58586 0.60061 0.0
H3382 H 0.89778 0.57844 0.65377 0.0
H3383 H 0.88936 0.58529 0.70261 0.0
H3384 H 0.44665 0.36631 0.47242 0.0
H3385 H 0.43842 0.35173 0.52217 0.0
H3386 H 0.48101 0.35113 0.52612 0.0
H3387 H 0.48938 0.3658 0.4767 0.0
H3388 H 0.4348 0.32275 0.5379 0.0
H3389 H 0.47939 0.36905 0.61261 0.0
H3390 H 0.47491 0.37249 0.57304 0.0
H3391 H 0.48694 0.36415 0.57877 0.0
C3392 C 0.45424 0.36304 0.48385 0.0
C3393 C 0.46871 0.3673 0.47073 0.0
C3394 C 0.44953 0.35471 0.51227 0.0
C3395 C 0.45922 0.3506 0.52815 0.0
C3396 C 0.47349 0.35448 0.51464 0.0
H3397 H 0.45658 0.30132 0.69773 0.0
H3398 H 0.46292 0.31609 0.64845 0.0
C3399 C 0.47821 0.36278 0.48627 0.0
C3400 C 0.45445 0.34219 0.55879 0.0
H3401 H 0.46497 0.34442 0.63655 0.0
C3402 C 0.44131 0.32751 0.55955 0.0
C3403 C 0.46296 0.34846 0.58701 0.0
C3404 C 0.47675 0.36446 0.58802 0.0
C3405 C 0.43672 0.31873 0.58755 0.0
C3406 C 0.44537 0.32491 0.61565 0.0
C3407 C 0.45838 0.33968 0.61498 0.0
C3408 C 0.4414 0.31608 0.64581 0.0
C3409 C 0.42296 0.30271 0.58657 0.0
C3410 C 0.42729 0.31138 0.66102 0.0
C3411 C 0.42362 0.30291 0.68925 0.0
C3412 C 0.43405 0.29907 0.70284 0.0
C3413 C 0.44828 0.30404 0.68785 0.0
C3414 C 0.45193 0.3125 0.65967 0.0
H3415 H 0.41984 0.29837 0.56188 0.0
H3416 H 0.42516 0.29458 0.60031 0.0
H3417 H 0.41294 0.30284 0.59736 0.0
H3418 H 0.41913 0.31429 0.6511 0.0
H3419 H 0.4126 0.29931 0.70031 0.0
H3420 H 0.69968 0.11381 0.69876 0.0
H3421 H 0.68545 0.10595 0.64858 0.0
H3422 H 0.68408 0.14816 0.64647 0.0
H3423 H 0.69842 0.15618 0.69631 0.0
H3424 H 0.65648 0.10195 0.63225 0.0
H3425 H 0.70291 0.14802 0.56025 0.0
H3426 H 0.70614 0.14322 0.5997 0.0
H3427 H 0.69745 0.15495 0.59427 0.0
C3428 C 0.6963 0.12139 0.68766 0.0
C3429 C 0.70026 0.13566 0.70139 0.0
C3430 C 0.68818 0.11689 0.65899 0.0
C3431 C 0.68397 0.1266 0.64349 0.0
C3432 C 0.68752 0.14064 0.65766 0.0
H3433 H 0.63534 0.12455 0.47326 0.0
H3434 H 0.64992 0.13078 0.5228 0.0
C3435 C 0.69563 0.14516 0.68627 0.0
C3436 C 0.67585 0.12209 0.61253 0.0
H3437 H 0.67855 0.13348 0.53529 0.0
C3438 C 0.66134 0.10876 0.61097 0.0
C3439 C 0.68224 0.13099 0.5848 0.0
C3440 C 0.6981 0.14502 0.58464 0.0
C3441 C 0.65282 0.10435 0.58263 0.0
C3442 C 0.65912 0.11339 0.55501 0.0
C3443 C 0.67373 0.1266 0.5565 0.0
C3444 C 0.65057 0.10959 0.52455 0.0
C3445 C 0.63695 0.09035 0.58275 0.0
C3446 C 0.64635 0.09573 0.50874 0.0
C3447 C 0.638 0.09213 0.48038 0.0
C3448 C 0.6338 0.10237 0.46725 0.0
C3449 C 0.63836 0.1164 0.48278 0.0
C3450 C 0.6467 0.11998 0.5111 0.0
H3451 H 0.6324 0.08686 0.60721 0.0
H3452 H 0.62878 0.09247 0.56894 0.0
H3453 H 0.63745 0.08061 0.57155 0.0
H3454 H 0.6495 0.08768 0.51836 0.0
H3455 H 0.63473 0.08127 0.46891 0.0
H3456 H 0.45833 0.15621 0.19721 0.0
H3457 H 0.46422 0.14814 0.1469 0.0
H3458 H 0.42087 0.1057 0.15087 0.0
H3459 H 0.41481 0.11375 0.20116 0.0
H3460 H 0.46615 0.12162 0.13248 0.0
H3461 H 0.42008 0.12369 0.06333 0.0
H3462 H 0.42621 0.13257 0.10183 0.0
H3463 H 0.41383 0.11213 0.09866 0.0
C3464 C 0.45007 0.14513 0.18747 0.0
C3465 C 0.43607 0.13565 0.20308 0.0
C3466 C 0.45345 0.14054 0.15872 0.0
C3467 C 0.44287 0.12644 0.1449 0.0
C3468 C 0.42906 0.11675 0.16083 0.0
H3469 H 0.44555 0.08317 0.96714 0.0
H3470 H 0.43779 0.08942 0.0176 0.0
C3471 C 0.42567 0.12132 0.18967 0.0
C3472 C 0.44638 0.12196 0.11384 0.0
H3473 H 0.43474 0.11471 0.03646 0.0
C3474 C 0.45929 0.12011 0.11148 0.0
C3475 C 0.43737 0.11995 0.08651 0.0
C3476 C 0.42366 0.12229 0.08746 0.0
C3477 C 0.46342 0.11624 0.08255 0.0
C3478 C 0.45457 0.11448 0.0551 0.0
C3479 C 0.44152 0.11611 0.05753 0.0
C3480 C 0.45884 0.11115 0.0236 0.0
C3481 C 0.47711 0.11385 0.08175 0.0
C3482 C 0.47303 0.12151 0.00979 0.0
C3483 C 0.47748 0.11798 0.98104 0.0
C3484 C 0.46778 0.10406 0.96543 0.0
C3485 C 0.45329 0.09398 0.97862 0.0
C3486 C 0.44885 0.09752 0.00745 0.0
H3487 H 0.48001 0.11151 0.10577 0.0
H3488 H 0.47496 0.10416 0.06586 0.0
H3489 H 0.48724 0.12442 0.07259 0.0
H3490 H 0.48076 0.13226 0.02148 0.0
H3491 H 0.48867 0.12604 0.9714 0.0
H3492 H 0.84361 0.30157 0.19755 0.0
H3493 H 0.85147 0.31577 0.14751 0.0
H3494 H 0.89381 0.31462 0.14948 0.0
H3495 H 0.88609 0.30053 0.19983 0.0
H3496 H 0.89769 0.3435 0.13324 0.0
H3497 H 0.85166 0.29708 0.06119 0.0
H3498 H 0.84472 0.30253 0.09525 0.0
H3499 H 0.85646 0.29384 0.10062 0.0
C3500 C 0.85462 0.30437 0.18741 0.0
C3501 C 0.8642 0.29986 0.20257 0.0
C3502 C 0.85905 0.3124 0.15869 0.0
C3503 C 0.87309 0.31598 0.14445 0.0
C3504 C 0.88287 0.31186 0.15994 0.0
H3505 H 0.91874 0.36528 0.97025 0.0
H3506 H 0.91209 0.35039 0.01956 0.0
C3507 C 0.87845 0.30382 0.18871 0.0
C3508 C 0.87757 0.32412 0.11349 0.0
H3509 H 0.86624 0.32143 0.03621 0.0
C3510 C 0.89089 0.33864 0.11195 0.0
C3511 C 0.86869 0.31774 0.08575 0.0
C3512 C 0.85466 0.30188 0.08558 0.0
C3513 C 0.89532 0.34716 0.08361 0.0
C3514 C 0.88632 0.34085 0.05596 0.0
C3515 C 0.87311 0.32625 0.05743 0.0
C3516 C 0.8902 0.34938 0.02546 0.0
C3517 C 0.90932 0.36303 0.08375 0.0
C3518 C 0.87989 0.35332 0.01184 0.0
C3519 C 0.8836 0.36173 0.98359 0.0
C3520 C 0.89768 0.36629 0.9683 0.0
C3521 C 0.90783 0.362 0.98154 0.0
C3522 C 0.9041 0.35358 0.00983 0.0
H3523 H 0.91276 0.36759 0.10822 0.0
H3524 H 0.9191 0.36254 0.0727 0.0
H3525 H 0.90722 0.37119 0.06983 0.0
H3526 H 0.86905 0.35011 0.0234 0.0
H3527 H 0.87551 0.36482 0.97398 0.0
H3528 H 0.63189 0.55152 0.97382 0.0
H3529 H 0.64601 0.55963 0.02403 0.0
H3530 H 0.64792 0.51771 0.02703 0.0
H3531 H 0.63367 0.50944 0.97707 0.0
H3532 H 0.63825 0.52446 0.08409 0.0
H3533 H 0.69172 0.57507 0.03971 0.0
H3534 H 0.67428 0.57503 0.03006 0.0
H3535 H 0.67778 0.56057 0.01354 0.0
C3536 C 0.63542 0.54408 0.98505 0.0
C3537 C 0.6317 0.52985 0.97144 0.0
C3538 C 0.64355 0.54877 0.01367 0.0
C3539 C 0.64817 0.53935 0.02908 0.0
C3540 C 0.6445 0.52517 0.01548 0.0
H3541 H 0.69678 0.54148 0.19964 0.0
H3542 H 0.68139 0.53463 0.15119 0.0
C3543 C 0.63639 0.52048 0.98689 0.0
C3544 C 0.6564 0.54401 0.05991 0.0
H3545 H 0.68955 0.57118 0.09528 0.0
C3546 C 0.64947 0.53467 0.08655 0.0
C3547 C 0.671 0.55737 0.06308 0.0
C3548 C 0.67923 0.56755 0.03506 0.0
C3549 C 0.65673 0.53835 0.11631 0.0
C3550 C 0.67143 0.55159 0.11939 0.0
C3551 C 0.67826 0.56105 0.09286 0.0
C3552 C 0.68016 0.55552 0.14961 0.0
C3553 C 0.64852 0.52812 0.14427 0.0
C3554 C 0.68476 0.56964 0.16465 0.0
C3555 C 0.69362 0.57362 0.19236 0.0
C3556 C 0.69815 0.5636 0.20533 0.0
C3557 C 0.69341 0.54942 0.19035 0.0
C3558 C 0.68455 0.54545 0.16272 0.0
H3559 H 0.63592 0.5212 0.1402 0.0
H3560 H 0.65288 0.52004 0.14803 0.0
H3561 H 0.65063 0.53498 0.16627 0.0
H3562 H 0.68157 0.57761 0.15481 0.0
H3563 H 0.69714 0.58466 0.20326 0.0
H3564 H 0.51213 0.87673 0.0269 0.0
H3565 H 0.52072 0.87026 0.97798 0.0
H3566 H 0.56339 0.91337 0.98235 0.0
H3567 H 0.55494 0.91988 0.03156 0.0
H3568 H 0.52858 0.88685 0.92096 0.0
H3569 H 0.57762 0.88197 0.96812 0.0
H3570 H 0.56308 0.88185 0.9935 0.0
H3571 H 0.57805 0.89964 0.97741 0.0
C3572 C 0.52341 0.88478 0.01765 0.0
C3573 C 0.53288 0.89881 0.03317 0.0
C3574 C 0.52828 0.88107 0.98964 0.0
C3575 C 0.54275 0.89125 0.97667 0.0
C3576 C 0.5523 0.90522 0.99223 0.0
H3577 H 0.5884 0.88606 0.80408 0.0
H3578 H 0.58173 0.8946 0.85304 0.0
C3579 C 0.54742 0.90895 0.02028 0.0
C3580 C 0.54751 0.88745 0.94617 0.0
H3581 H 0.57418 0.88021 0.91242 0.0
C3582 C 0.53854 0.88538 0.91909 0.0
C3583 C 0.56056 0.88564 0.94374 0.0
C3584 C 0.57034 0.88725 0.97225 0.0
C3585 C 0.54228 0.88157 0.88962 0.0
C3586 C 0.55518 0.8795 0.88729 0.0
C3587 C 0.56429 0.8818 0.91426 0.0
C3588 C 0.55912 0.87448 0.8573 0.0
C3589 C 0.53248 0.88001 0.86116 0.0
C3590 C 0.54869 0.86029 0.84361 0.0
C3591 C 0.55245 0.8554 0.81567 0.0
C3592 C 0.56677 0.86457 0.80096 0.0
C3593 C 0.57725 0.87876 0.81477 0.0
C3594 C 0.57347 0.88364 0.84277 0.0
H3595 H 0.52597 0.88615 0.86473 0.0
H3596 H 0.5396 0.88454 0.83941 0.0
H3597 H 0.52403 0.86767 0.85729 0.0
H3598 H 0.53769 0.85288 0.85475 0.0
H3599 H 0.54416 0.84437 0.80577 0.0
H3600 H 0.08222 0.63594 0.03151 0.0
H3601 H 0.0888 0.64998 0.9811 0.0
H3602 H 0.13206 0.65065 0.97957 0.0
H3603 H 0.1255 0.63646 0.02962 0.0
H3604 H 0.11381 0.67854 0.96398 0.0
H3605 H 0.11301 0.63138 0.89391 0.0
H3606 H 0.10509 0.62852 0.93342 0.0
H3607 H 0.1255 0.63709 0.92779 0.0
C3608 C 0.09317 0.63915 0.02051 0.0
C3609 C 0.1033 0.63499 0.03441 0.0
C3610 C 0.0969 0.64715 0.99171 0.0
C3611 C 0.11077 0.65107 0.97628 0.0
C3612 C 0.12113 0.64741 0.99069 0.0
H3613 H 0.15685 0.69859 0.80447 0.0
H3614 H 0.14873 0.68423 0.85432 0.0
C3615 C 0.11741 0.63939 0.01941 0.0
C3616 C 0.11442 0.65895 0.94507 0.0
H3617 H 0.12278 0.6555 0.86798 0.0
C3618 C 0.11567 0.67348 0.94292 0.0
C3619 C 0.11681 0.65229 0.91763 0.0
C3620 C 0.1149 0.6364 0.91811 0.0
C3621 C 0.11967 0.68171 0.91424 0.0
C3622 C 0.12224 0.67512 0.8869 0.0
C3623 C 0.12083 0.66053 0.88899 0.0
C3624 C 0.12677 0.68334 0.85608 0.0
C3625 C 0.12156 0.69759 0.91366 0.0
C3626 C 0.11696 0.68728 0.84016 0.0
C3627 C 0.12156 0.69548 0.81162 0.0
C3628 C 0.13603 0.69981 0.79846 0.0
C3629 C 0.14564 0.69545 0.81401 0.0
C3630 C 0.14103 0.68726 0.84251 0.0
H3631 H 0.12273 0.70238 0.93792 0.0
H3632 H 0.13181 0.70561 0.89952 0.0
H3633 H 0.11129 0.697 0.90245 0.0
H3634 H 0.10577 0.68409 0.8499 0.0
H3635 H 0.11387 0.69862 0.80014 0.0
H3636 H 0.30153 0.45812 0.80895 0.0
H3637 H 0.31597 0.46461 0.85866 0.0
H3638 H 0.31526 0.42134 0.85627 0.0
H3639 H 0.30062 0.41466 0.80661 0.0
H3640 H 0.30702 0.42794 0.91532 0.0
H3641 H 0.36122 0.47751 0.87122 0.0
H3642 H 0.34442 0.47888 0.86285 0.0
H3643 H 0.34658 0.46382 0.84491 0.0
C3644 C 0.30454 0.45002 0.81885 0.0
C3645 C 0.29999 0.4359 0.80377 0.0
C3646 C 0.31286 0.45378 0.8472 0.0
C3647 C 0.31688 0.44355 0.86095 0.0
C3648 C 0.31234 0.42943 0.84598 0.0
H3649 H 0.36479 0.44674 0.03661 0.0
H3650 H 0.35011 0.43861 0.98704 0.0
C3651 C 0.30402 0.42566 0.81758 0.0
C3652 C 0.3254 0.44742 0.89145 0.0
H3653 H 0.35866 0.47412 0.92718 0.0
C3654 C 0.31836 0.43796 0.9179 0.0
C3655 C 0.34019 0.46051 0.89473 0.0
C3656 C 0.34863 0.4707 0.86687 0.0
C3657 C 0.32554 0.4415 0.94778 0.0
C3658 C 0.34025 0.4547 0.95113 0.0
C3659 C 0.34735 0.46404 0.92459 0.0
C3660 C 0.34846 0.45918 0.982 0.0
C3661 C 0.31713 0.43132 0.97568 0.0
C3662 C 0.35253 0.47349 0.99548 0.0
C3663 C 0.36097 0.47819 0.02368 0.0
C3664 C 0.36558 0.4687 0.03888 0.0
C3665 C 0.36132 0.45428 0.02558 0.0
C3666 C 0.35288 0.44958 0.99732 0.0
H3667 H 0.30463 0.42402 0.97094 0.0
H3668 H 0.32185 0.42363 0.9806 0.0
H3669 H 0.3187 0.43829 0.99728 0.0
H3670 H 0.34927 0.4811 0.98401 0.0
H3671 H 0.36408 0.48938 0.03328 0.0
H3672 H 0.12508 0.48995 0.53155 0.0
H3673 H 0.13122 0.48138 0.48218 0.0
H3674 H 0.08783 0.439 0.48665 0.0
H3675 H 0.0815 0.44758 0.53592 0.0
H3676 H 0.13363 0.45529 0.47022 0.0
H3677 H 0.08739 0.45505 0.39743 0.0
H3678 H 0.09298 0.46438 0.43562 0.0
H3679 H 0.08096 0.44386 0.43319 0.0
C3680 C 0.11683 0.47879 0.52207 0.0
C3681 C 0.10276 0.46947 0.53757 0.0
C3682 C 0.12037 0.47391 0.49384 0.0
C3683 C 0.10988 0.45966 0.48044 0.0
C3684 C 0.09595 0.45018 0.49621 0.0
H3685 H 0.1141 0.41407 0.30708 0.0
H3686 H 0.10623 0.42053 0.35719 0.0
C3687 C 0.0924 0.45505 0.52448 0.0
C3688 C 0.11366 0.45475 0.45014 0.0
H3689 H 0.10233 0.44575 0.37289 0.0
C3690 C 0.12679 0.45321 0.44893 0.0
C3691 C 0.1047 0.452 0.42242 0.0
C3692 C 0.09079 0.45401 0.42199 0.0
C3693 C 0.13118 0.44893 0.42081 0.0
C3694 C 0.12234 0.44639 0.39297 0.0
C3695 C 0.10909 0.44772 0.39426 0.0
C3696 C 0.12689 0.44267 0.36215 0.0
C3697 C 0.14513 0.44698 0.42125 0.0
C3698 C 0.14095 0.45312 0.34797 0.0
C3699 C 0.14546 0.44948 0.31941 0.0
C3700 C 0.13595 0.43534 0.30434 0.0
C3701 C 0.12169 0.42504 0.31815 0.0
C3702 C 0.11718 0.42871 0.34676 0.0
H3703 H 0.14808 0.44525 0.44573 0.0
H3704 H 0.14327 0.43705 0.40641 0.0
H3705 H 0.15512 0.45749 0.41149 0.0
H3706 H 0.14847 0.4641 0.35908 0.0
H3707 H 0.15647 0.45771 0.30931 0.0
H3708 H 0.54321 0.69934 0.30904 0.0
H3709 H 0.53702 0.68492 0.35881 0.0
H3710 H 0.57988 0.68487 0.35398 0.0
H3711 H 0.58624 0.69944 0.30428 0.0
H3712 H 0.53441 0.65606 0.37186 0.0
H3713 H 0.58104 0.70298 0.44236 0.0
H3714 H 0.57511 0.70627 0.40412 0.0
H3715 H 0.58715 0.69781 0.40667 0.0
C3716 C 0.55131 0.69622 0.3185 0.0
C3717 C 0.56526 0.7006 0.30283 0.0
C3718 C 0.54775 0.68798 0.34694 0.0
C3719 C 0.5581 0.68405 0.36034 0.0
C3720 C 0.57187 0.68806 0.34435 0.0
H3721 H 0.5551 0.63655 0.53584 0.0
H3722 H 0.56265 0.65056 0.48539 0.0
C3723 C 0.57543 0.69629 0.31585 0.0
C3724 C 0.55443 0.67575 0.39105 0.0
H3725 H 0.56611 0.67911 0.46822 0.0
C3726 C 0.54132 0.66109 0.39295 0.0
C3727 C 0.56351 0.68234 0.41848 0.0
C3728 C 0.57742 0.69827 0.41805 0.0
C3729 C 0.53709 0.65279 0.42151 0.0
C3730 C 0.54604 0.65946 0.44906 0.0
C3731 C 0.55926 0.67404 0.44708 0.0
C3732 C 0.54173 0.65155 0.48023 0.0
C3733 C 0.5232 0.63684 0.42181 0.0
C3734 C 0.52765 0.64783 0.49445 0.0
C3735 C 0.52331 0.63985 0.52321 0.0
C3736 C 0.53303 0.63552 0.53842 0.0
C3737 C 0.54735 0.6397 0.52468 0.0
C3738 C 0.55168 0.64769 0.49585 0.0
H3739 H 0.52019 0.63185 0.39757 0.0
H3740 H 0.52517 0.629 0.43715 0.0
H3741 H 0.5132 0.6374 0.43136 0.0
H3742 H 0.51996 0.65101 0.48317 0.0
H3743 H 0.51224 0.63688 0.53327 0.0
H3744 H 0.3029 0.84475 0.3072 0.0
H3745 H 0.31717 0.85272 0.35715 0.0
H3746 H 0.31662 0.89535 0.35403 0.0
H3747 H 0.30218 0.88739 0.30415 0.0
H3748 H 0.3457 0.8788 0.37117 0.0
H3749 H 0.29844 0.87775 0.44183 0.0
H3750 H 0.29533 0.86891 0.4032 0.0
H3751 H 0.30372 0.88938 0.40664 0.0
C3752 C 0.30586 0.85585 0.31706 0.0
C3753 C 0.30133 0.8654 0.30182 0.0
C3754 C 0.31401 0.86038 0.34561 0.0
C3755 C 0.31772 0.8745 0.35957 0.0
C3756 C 0.31359 0.88426 0.34399 0.0
H3757 H 0.3651 0.9181 0.53571 0.0
H3758 H 0.35094 0.91178 0.48548 0.0
C3759 C 0.30544 0.87974 0.31538 0.0
C3760 C 0.32592 0.87894 0.39042 0.0
H3761 H 0.32227 0.88664 0.46789 0.0
C3762 C 0.34058 0.88051 0.39233 0.0
C3763 C 0.31921 0.88118 0.41796 0.0
C3764 C 0.30326 0.87911 0.41754 0.0
C3765 C 0.34879 0.88437 0.42101 0.0
C3766 C 0.342 0.88642 0.44865 0.0
C3767 C 0.32741 0.88503 0.44667 0.0
C3768 C 0.34985 0.88985 0.47988 0.0
C3769 C 0.36475 0.88646 0.42134 0.0
C3770 C 0.35353 0.87941 0.49382 0.0
C3771 C 0.3616 0.88298 0.52247 0.0
C3772 C 0.36606 0.89701 0.53782 0.0
C3773 C 0.36185 0.9072 0.52443 0.0
C3774 C 0.35378 0.90363 0.49572 0.0
H3775 H 0.36979 0.88855 0.39714 0.0
H3776 H 0.37254 0.8962 0.43686 0.0
H3777 H 0.36417 0.87586 0.4307 0.0
H3778 H 0.35029 0.86856 0.48235 0.0
H3779 H 0.36458 0.87484 0.53226 0.0
H3780 H 0.28395 0.17238 0.99664 0.0
H3781 H 0.30632 0.18604 0.96215 0.0
H3782 H 0.30501 0.22793 0.97537 0.0
H3783 H 0.28229 0.21422 0.0093 0.0
H3784 H 0.31052 0.22431 0.9139 0.0
H3785 H 0.34958 0.21485 0.99133 0.0
H3786 H 0.33288 0.19726 0.97965 0.0
H3787 H 0.33078 0.21077 0.00417 0.0
C3788 C 0.2884 0.18451 0.99229 0.0
C3789 C 0.28136 0.19222 0.006 0.0
C3790 C 0.30128 0.19234 0.97265 0.0
C3791 C 0.30759 0.20811 0.96663 0.0
C3792 C 0.30042 0.21579 0.97978 0.0
H3793 H 0.39998 0.26789 0.89712 0.0
H3794 H 0.37616 0.25456 0.92742 0.0
C3795 C 0.28744 0.20793 0.99925 0.0
C3796 C 0.32167 0.21658 0.94668 0.0
H3797 H 0.359 0.22501 0.94007 0.0
C3798 C 0.32114 0.22451 0.91966 0.0
C3799 C 0.33562 0.21704 0.95439 0.0
C3800 C 0.33734 0.20966 0.98413 0.0
C3801 C 0.3341 0.23272 0.90002 0.0
C3802 C 0.34789 0.23273 0.90716 0.0
C3803 C 0.34841 0.2249 0.93432 0.0
C3804 C 0.36214 0.24129 0.88772 0.0
C3805 C 0.33297 0.24162 0.87233 0.0
C3806 C 0.3623 0.23834 0.85512 0.0
C3807 C 0.37597 0.24613 0.83753 0.0
C3808 C 0.3898 0.25681 0.85234 0.0
C3809 C 0.38957 0.2597 0.88493 0.0
C3810 C 0.37593 0.25207 0.90235 0.0
H3811 H 0.32336 0.24399 0.87537 0.0
H3812 H 0.34381 0.25273 0.86918 0.0
H3813 H 0.33078 0.23476 0.85034 0.0
H3814 H 0.35193 0.22982 0.84336 0.0
H3815 H 0.37577 0.24353 0.81253 0.0
H3816 H 0.78042 0.06704 0.01663 0.0
H3817 H 0.7675 0.07792 0.98554 0.0
H3818 H 0.80871 0.10379 0.92977 0.0
H3819 H 0.8211 0.09197 0.95916 0.0
H3820 H 0.77071 0.10394 0.97705 0.0
H3821 H 0.77998 0.0863 0.85907 0.0
H3822 H 0.7846 0.07981 0.89503 0.0
H3823 H 0.79811 0.09819 0.87796 0.0
C3824 C 0.78664 0.075 0.9976 0.0
C3825 C 0.80166 0.07854 0.98998 0.0
C3826 C 0.77927 0.08123 0.9798 0.0
C3827 C 0.78691 0.09138 0.95447 0.0
C3828 C 0.80224 0.09548 0.94807 0.0
H3829 H 0.75671 0.15305 0.88123 0.0
H3830 H 0.76866 0.14074 0.91042 0.0
C3831 C 0.80941 0.08887 0.96515 0.0
C3832 C 0.77901 0.09795 0.93536 0.0
H3833 H 0.77308 0.10597 0.85956 0.0
C3834 C 0.77111 0.1042 0.95133 0.0
C3835 C 0.77909 0.09803 0.90169 0.0
C3836 C 0.78575 0.09005 0.8825 0.0
C3837 C 0.76364 0.11076 0.93481 0.0
C3838 C 0.76479 0.11196 0.90126 0.0
C3839 C 0.77239 0.10539 0.88525 0.0
C3840 C 0.75819 0.11987 0.88232 0.0
C3841 C 0.75422 0.11589 0.9537 0.0
C3842 C 0.74912 0.11281 0.85528 0.0
C3843 C 0.74283 0.12018 0.83769 0.0
C3844 C 0.74521 0.1346 0.84718 0.0
C3845 C 0.75449 0.1418 0.87374 0.0
C3846 C 0.76117 0.13467 0.89068 0.0
H3847 H 0.74991 0.10921 0.97604 0.0
H3848 H 0.76157 0.12815 0.96036 0.0
H3849 H 0.74421 0.11458 0.93996 0.0
H3850 H 0.7467 0.10147 0.84803 0.0
H3851 H 0.73569 0.11438 0.8173 0.0
H3852 H 0.85826 0.60105 0.8939 0.0
H3853 H 0.87047 0.62541 0.92262 0.0
H3854 H 0.88963 0.64978 0.8351 0.0
H3855 H 0.87724 0.6254 0.80595 0.0
H3856 H 0.90139 0.64695 0.92757 0.0
H3857 H 0.86936 0.67279 0.87253 0.0
H3858 H 0.86329 0.65265 0.86872 0.0
H3859 H 0.87876 0.66666 0.84472 0.0
C3860 C 0.865 0.61158 0.88063 0.0
C3861 C 0.86672 0.61124 0.84754 0.0
C3862 C 0.872 0.62551 0.89716 0.0
C3863 C 0.88081 0.63945 0.88102 0.0
C3864 C 0.88264 0.63919 0.848 0.0
H3865 H 0.93313 0.73474 0.94071 0.0
H3866 H 0.92074 0.71045 0.91172 0.0
C3867 C 0.87562 0.62523 0.83139 0.0
C3868 C 0.88835 0.65416 0.89904 0.0
H3869 H 0.89 0.68883 0.90661 0.0
C3870 C 0.89886 0.6561 0.92307 0.0
C3871 C 0.88505 0.66608 0.89316 0.0
C3872 C 0.8734 0.66445 0.86859 0.0
C3873 C 0.90636 0.66971 0.94099 0.0
C3874 C 0.90304 0.68162 0.93515 0.0
C3875 C 0.89253 0.67969 0.91111 0.0
C3876 C 0.91055 0.69631 0.95326 0.0
C3877 C 0.91804 0.67134 0.96548 0.0
C3878 C 0.90884 0.6965 0.98634 0.0
C3879 C 0.91598 0.71042 0.0031 0.0
C3880 C 0.92487 0.72443 0.98706 0.0
C3881 C 0.9264 0.72419 0.9539 0.0
C3882 C 0.9193 0.71029 0.93722 0.0
H3883 H 0.92215 0.66307 0.96134 0.0
H3884 H 0.92811 0.68317 0.96547 0.0
H3885 H 0.91268 0.66901 0.98935 0.0
H3886 H 0.90188 0.68588 0.99918 0.0
H3887 H 0.91446 0.71019 0.02858 0.0
H3888 H 0.19351 0.26658 0.56399 0.0
H3889 H 0.20562 0.29095 0.59264 0.0
H3890 H 0.22052 0.31556 0.50404 0.0
H3891 H 0.20817 0.29115 0.47501 0.0
H3892 H 0.23601 0.31354 0.59385 0.0
H3893 H 0.20011 0.33693 0.54759 0.0
H3894 H 0.19487 0.31704 0.54269 0.0
H3895 H 0.20914 0.33158 0.51735 0.0
C3896 C 0.19928 0.27715 0.55048 0.0
C3897 C 0.19981 0.27688 0.51713 0.0
C3898 C 0.20622 0.2911 0.56696 0.0
C3899 C 0.21381 0.30511 0.55054 0.0
C3900 C 0.21445 0.30491 0.51723 0.0
H3901 H 0.26499 0.40065 0.60863 0.0
H3902 H 0.25249 0.37627 0.58 0.0
C3903 C 0.20747 0.29093 0.50066 0.0
C3904 C 0.22138 0.31985 0.56849 0.0
H3905 H 0.2217 0.35375 0.57882 0.0
C3906 C 0.23284 0.32231 0.59066 0.0
C3907 C 0.21724 0.33129 0.56434 0.0
C3908 C 0.20458 0.32907 0.54193 0.0
C3909 C 0.24044 0.33598 0.60836 0.0
C3910 C 0.23631 0.34742 0.6042 0.0
C3911 C 0.22485 0.34497 0.58203 0.0
C3912 C 0.24393 0.36216 0.6221 0.0
C3913 C 0.2531 0.3382 0.6308 0.0
C3914 C 0.24318 0.36239 0.65539 0.0
C3915 C 0.25037 0.37637 0.67194 0.0
C3916 C 0.25837 0.3904 0.65548 0.0
C3917 C 0.25896 0.3901 0.62213 0.0
C3918 C 0.2518 0.37615 0.60566 0.0
H3919 H 0.25746 0.33024 0.62539 0.0
H3920 H 0.26286 0.35019 0.62979 0.0
H3921 H 0.24856 0.33587 0.65542 0.0
H3922 H 0.23691 0.35176 0.66857 0.0
H3923 H 0.24958 0.37618 0.69758 0.0
H3924 H 0.60142 0.8669 0.60654 0.0
H3925 H 0.62537 0.87689 0.57687 0.0
H3926 H 0.64921 0.87757 0.66245 0.0
H3927 H 0.62521 0.86785 0.69266 0.0
H3928 H 0.66602 0.90347 0.62693 0.0
H3929 H 0.64508 0.85218 0.55009 0.0
H3930 H 0.63292 0.86049 0.5483 0.0
H3931 H 0.6348 0.85241 0.585 0.0
C3932 C 0.61173 0.86914 0.61915 0.0
C3933 C 0.61133 0.86642 0.65199 0.0
C3934 C 0.62543 0.87479 0.60205 0.0
C3935 C 0.63906 0.87765 0.61721 0.0
C3936 C 0.63882 0.87533 0.65016 0.0
H3937 H 0.71847 0.88904 0.51027 0.0
H3938 H 0.69632 0.88016 0.54552 0.0
C3939 C 0.62509 0.86977 0.6674 0.0
C3940 C 0.65347 0.88308 0.59852 0.0
H3941 H 0.66827 0.87446 0.53382 0.0
C3942 C 0.66656 0.89708 0.6067 0.0
C3943 C 0.6543 0.87464 0.5724 0.0
C3944 C 0.64108 0.85902 0.56361 0.0
C3945 C 0.68027 0.90303 0.58903 0.0
C3946 C 0.68082 0.89496 0.56194 0.0
C3947 C 0.66785 0.88078 0.55428 0.0
C3948 C 0.69475 0.9008 0.54137 0.0
C3949 C 0.69408 0.91778 0.59996 0.0
C3950 C 0.70128 0.91537 0.52698 0.0
C3951 C 0.71408 0.92056 0.50697 0.0
C3952 C 0.72049 0.91118 0.50047 0.0
C3953 C 0.71384 0.89657 0.51467 0.0
C3954 C 0.70115 0.89146 0.53489 0.0
H3955 H 0.69332 0.91986 0.62562 0.0
H3956 H 0.70491 0.91763 0.59571 0.0
H3957 H 0.69462 0.92756 0.58662 0.0
H3958 H 0.69633 0.92265 0.5308 0.0
H3959 H 0.71882 0.93182 0.49624 0.0
H3960 H 0.07093 0.8051 0.56269 0.0
H3961 H 0.0837 0.79352 0.5914 0.0
H3962 H 0.09743 0.78259 0.50272 0.0
H3963 H 0.08481 0.79437 0.47365 0.0
H3964 H 0.07809 0.7635 0.58897 0.0
H3965 H 0.13794 0.80478 0.55191 0.0
H3966 H 0.12233 0.8086 0.54658 0.0
H3967 H 0.12464 0.796 0.51972 0.0
C3968 C 0.07671 0.8003 0.54919 0.0
C3969 C 0.07689 0.80074 0.5158 0.0
C3970 C 0.08399 0.79365 0.5657 0.0
C3971 C 0.0917 0.78736 0.54928 0.0
C3972 C 0.09181 0.78764 0.51593 0.0
H3973 H 0.14136 0.7414 0.60658 0.0
H3974 H 0.12878 0.75326 0.57821 0.0
C3975 C 0.08451 0.7943 0.49934 0.0
C3976 C 0.09933 0.78026 0.5672 0.0
H3977 H 0.13412 0.78294 0.58095 0.0
C3978 C 0.09035 0.76778 0.58732 0.0
C3979 C 0.11533 0.78587 0.56505 0.0
C3980 C 0.12568 0.79963 0.54489 0.0
C3981 C 0.09688 0.76056 0.60486 0.0
C3982 C 0.11288 0.76616 0.60271 0.0
C3983 C 0.12186 0.77866 0.58262 0.0
C3984 C 0.1205 0.759 0.62048 0.0
C3985 C 0.0865 0.74675 0.6249 0.0
C3986 C 0.1202 0.75842 0.65381 0.0
C3987 C 0.12738 0.75158 0.67022 0.0
C3988 C 0.13509 0.74528 0.65357 0.0
C3989 C 0.13552 0.74609 0.62022 0.0
C3990 C 0.12834 0.75289 0.6039 0.0
H3991 H 0.07426 0.74158 0.61771 0.0
H3992 H 0.08989 0.73781 0.62325 0.0
H3993 H 0.08745 0.75035 0.65007 0.0
H3994 H 0.11451 0.76335 0.66717 0.0
H3995 H 0.12692 0.75126 0.6959 0.0
H3996 H 0.71037 0.79349 0.97706 0.0
H3997 H 0.68595 0.78173 0.00612 0.0
H3998 H 0.71055 0.79172 0.09474 0.0
H3999 H 0.73493 0.80362 0.06608 0.0
H4000 H 0.67377 0.75688 0.04841 0.0
H4001 H 0.68254 0.80982 0.10846 0.0
H4002 H 0.69413 0.81028 0.07528 0.0
H4003 H 0.69794 0.80589 0.11444 0.0
C4004 C 0.71059 0.79322 0.00274 0.0
C4005 C 0.72464 0.79959 0.01922 0.0
C4006 C 0.69662 0.78649 0.01931 0.0
C4007 C 0.69642 0.78608 0.05263 0.0
C4008 C 0.71041 0.79222 0.06908 0.0
H4009 H 0.6249 0.74973 0.19755 0.0
H4010 H 0.64928 0.76146 0.16834 0.0
C4011 C 0.72436 0.79895 0.05259 0.0
C4012 C 0.68162 0.77894 0.07026 0.0
H4013 H 0.66136 0.78623 0.12601 0.0
C4014 C 0.67101 0.76331 0.06523 0.0
C4015 C 0.67805 0.78733 0.09233 0.0
C4016 C 0.68869 0.80429 0.0978 0.0
C4017 C 0.65707 0.75578 0.08209 0.0
C4018 C 0.65352 0.76417 0.10417 0.0
C4019 C 0.66412 0.7798 0.10918 0.0
C4020 C 0.63873 0.75701 0.12189 0.0
C4021 C 0.64644 0.73882 0.07661 0.0
C4022 C 0.62472 0.75083 0.10553 0.0
C4023 C 0.6108 0.74412 0.12211 0.0
C4024 C 0.61057 0.74352 0.15548 0.0
C4025 C 0.62464 0.74992 0.17187 0.0
C4026 C 0.63859 0.75665 0.15521 0.0
H4027 H 0.65259 0.7333 0.06593 0.0
H4028 H 0.64101 0.73283 0.09914 0.0
H4029 H 0.63719 0.73723 0.06 0.0
H4030 H 0.62454 0.7513 0.07987 0.0
H4031 H 0.60021 0.73941 0.10868 0.0
H4032 H 0.26072 0.86054 0.10899 0.0
H4033 H 0.24884 0.87302 0.08035 0.0
H4034 H 0.23847 0.88726 0.16905 0.0
H4035 H 0.25058 0.87494 0.19804 0.0
H4036 H 0.21908 0.86751 0.08283 0.0
H4037 H 0.26015 0.92747 0.11939 0.0
H4038 H 0.26402 0.91192 0.12512 0.0
H4039 H 0.25139 0.9143 0.1518 0.0
C4040 C 0.25597 0.86635 0.12251 0.0
C4041 C 0.25669 0.86679 0.15587 0.0
C4042 C 0.24915 0.87348 0.10603 0.0
C4043 C 0.24296 0.88128 0.12247 0.0
C4044 C 0.24347 0.88159 0.15581 0.0
H4045 H 0.19613 0.92998 0.06338 0.0
H4046 H 0.2079 0.91749 0.09249 0.0
C4047 C 0.25032 0.87447 0.17236 0.0
C4048 C 0.23575 0.88881 0.10454 0.0
H4049 H 0.23822 0.92348 0.09044 0.0
C4050 C 0.2233 0.87976 0.08441 0.0
C4051 C 0.24127 0.9048 0.10657 0.0
C4052 C 0.25503 0.91525 0.12664 0.0
C4053 C 0.21606 0.8862 0.06668 0.0
C4054 C 0.22158 0.90218 0.06872 0.0
C4055 C 0.23401 0.91123 0.08888 0.0
C4056 C 0.21445 0.90971 0.05058 0.0
C4057 C 0.20235 0.87579 0.04644 0.0
C4058 C 0.21435 0.90966 0.01723 0.0
C4059 C 0.20761 0.91681 1.00042 0.0
C4060 C 0.20088 0.92422 0.01666 0.0
C4061 C 0.20115 0.92436 0.05005 0.0
C4062 C 0.2079 0.91724 0.06679 0.0
H4063 H 0.19729 0.86353 0.05343 0.0
H4064 H 0.19331 0.87904 0.0481 0.0
H4065 H 0.20602 0.87689 0.02129 0.0
H4066 H 0.21959 0.90417 0.0042 0.0
H4067 H 0.20765 0.91652 0.97473 0.0
H4068 H 0.07291 0.26652 0.06301 0.0
H4069 H 0.08476 0.29081 0.0919 0.0
H4070 H 0.0969 0.31567 0.00339 0.0
H4071 H 0.08479 0.2913 0.97413 0.0
H4072 H 0.11459 0.31456 0.09155 0.0
H4073 H 0.07536 0.33496 0.05045 0.0
H4074 H 0.07115 0.31543 0.04477 0.0
H4075 H 0.08451 0.33045 0.01899 0.0
C4076 C 0.07805 0.27713 0.04957 0.0
C4077 C 0.07781 0.27692 0.01617 0.0
C4078 C 0.08485 0.29103 0.0662 0.0
C4079 C 0.09154 0.30509 0.0499 0.0
C4080 C 0.09152 0.30497 0.01653 0.0
H4081 H 0.13864 0.40051 0.10933 0.0
H4082 H 0.12703 0.37623 0.08041 0.0
C4083 C 0.08466 0.29102 0.99982 0.0
C4084 C 0.09873 0.31979 0.06802 0.0
H4085 H 0.09696 0.35248 0.08074 0.0
C4086 C 0.11071 0.32283 0.08926 0.0
C4087 C 0.09364 0.33057 0.0651 0.0
C4088 C 0.08037 0.32767 0.04383 0.0
C4089 C 0.11791 0.33646 0.1072 0.0
C4090 C 0.11283 0.34725 0.10425 0.0
C4091 C 0.10085 0.34421 0.08302 0.0
C4092 C 0.11999 0.36194 0.12239 0.0
C4093 C 0.13113 0.33935 0.12859 0.0
C4094 C 0.11981 0.36204 0.15575 0.0
C4095 C 0.12652 0.37597 0.17248 0.0
C4096 C 0.13344 0.39008 0.15615 0.0
C4097 C 0.13346 0.3899 0.12275 0.0
C4098 C 0.12679 0.376 0.10611 0.0
H4099 H 0.1361 0.332 0.12215 0.0
H4100 H 0.14038 0.35158 0.12758 0.0
H4101 H 0.12696 0.33664 0.15343 0.0
H4102 H 0.11436 0.35133 0.16886 0.0
H4103 H 0.12622 0.37568 0.19817 0.0
H4104 H 0.75801 0.60406 0.38135 0.0
H4105 H 0.7695 0.62819 0.4109 0.0
H4106 H 0.74612 0.64461 0.3503 0.0
H4107 H 0.73547 0.6208 0.31927 0.0
H4108 H 0.77252 0.66694 0.36112 0.0
H4109 H 0.75046 0.64012 0.47781 0.0
H4110 H 0.76231 0.63322 0.46136 0.0
H4111 H 0.74471 0.62912 0.44162 0.0
C4112 C 0.75536 0.61285 0.37433 0.0
C4113 C 0.74577 0.61053 0.34818 0.0
C4114 C 0.76179 0.6266 0.39148 0.0
C4115 C 0.75829 0.63812 0.38371 0.0
C4116 C 0.74893 0.6359 0.35709 0.0
H4117 H 0.78043 0.71306 0.51864 0.0
H4118 H 0.76744 0.6892 0.4877 0.0
C4119 C 0.74284 0.6223 0.33932 0.0
C4120 C 0.76473 0.65259 0.40276 0.0
H4121 H 0.77091 0.66639 0.47869 0.0
C4122 C 0.77199 0.66678 0.38683 0.0
C4123 C 0.76378 0.65255 0.43636 0.0
C4124 C 0.75473 0.63792 0.45519 0.0
C4125 C 0.77862 0.6808 0.40339 0.0
C4126 C 0.77877 0.68075 0.43705 0.0
C4127 C 0.77114 0.66656 0.45297 0.0
C4128 C 0.78671 0.6952 0.45619 0.0
C4129 C 0.785 0.69547 0.38436 0.0
C4130 C 0.80199 0.70645 0.44951 0.0
C4131 C 0.80921 0.72024 0.46655 0.0
C4132 C 0.80156 0.72284 0.49157 0.0
C4133 C 0.78658 0.71132 0.49947 0.0
C4134 C 0.77917 0.69769 0.48175 0.0
H4135 H 0.77907 0.69343 0.36111 0.0
H4136 H 0.7838 0.70446 0.39721 0.0
H4137 H 0.79735 0.69985 0.37944 0.0
H4138 H 0.80838 0.70463 0.43101 0.0
H4139 H 0.82087 0.72884 0.46033 0.0
H4140 H 0.39722 0.15384 0.38302 0.0
H4141 H 0.37294 0.1413 0.41214 0.0
H4142 H 0.35609 0.10203 0.34987 0.0
H4143 H 0.38004 0.11513 0.31927 0.0
H4144 H 0.33409 0.10651 0.36081 0.0
H4145 H 0.36008 0.10966 0.47775 0.0
H4146 H 0.36737 0.12861 0.46207 0.0
H4147 H 0.37129 0.1151 0.44182 0.0
C4148 C 0.38831 0.14253 0.37557 0.0
C4149 C 0.39053 0.13539 0.34907 0.0
C4150 C 0.37447 0.13527 0.39246 0.0
C4151 C 0.36278 0.12043 0.38406 0.0
C4152 C 0.36492 0.11341 0.35714 0.0
H4153 H 0.28698 0.06705 0.5166 0.0
H4154 H 0.31096 0.07801 0.48605 0.0
C4155 C 0.37861 0.12088 0.33962 0.0
C4156 C 0.34819 0.11244 0.40275 0.0
H4157 H 0.33394 0.10423 0.47831 0.0
C4158 C 0.3341 0.10587 0.38649 0.0
C4159 C 0.34803 0.11119 0.4363 0.0
C4160 C 0.36251 0.11636 0.45541 0.0
C4161 C 0.31997 0.09847 0.4027 0.0
C4162 C 0.31984 0.09832 0.43636 0.0
C4163 C 0.33392 0.10455 0.45259 0.0
C4164 C 0.3053 0.09174 0.45519 0.0
C4165 C 0.30541 0.09054 0.38329 0.0
C4166 C 0.29419 0.09598 0.44871 0.0
C4167 C 0.28033 0.08936 0.4655 0.0
C4168 C 0.27752 0.07885 0.49008 0.0
C4169 C 0.28889 0.07515 0.49776 0.0
C4170 C 0.30258 0.08142 0.48027 0.0
H4171 H 0.30751 0.08686 0.35985 0.0
H4172 H 0.29626 0.08026 0.39565 0.0
H4173 H 0.3012 0.09869 0.37875 0.0
H4174 H 0.29619 0.10441 0.43058 0.0
H4175 H 0.27184 0.0926 0.45947 0.0
H4176 H 0.86298 0.26312 0.39706 0.0
H4177 H 0.87517 0.25088 0.42554 0.0
H4178 H 0.88512 0.23637 0.33672 0.0
H4179 H 0.87311 0.24882 0.30786 0.0
H4180 H 0.86776 0.22053 0.42652 0.0
H4181 H 0.92694 0.25725 0.38027 0.0
H4182 H 0.91209 0.26222 0.37562 0.0
H4183 H 0.91256 0.24813 0.35006 0.0
C4184 C 0.8678 0.25738 0.38347 0.0
C4185 C 0.86712 0.25704 0.35009 0.0
C4186 C 0.87476 0.25036 0.39985 0.0
C4187 C 0.88127 0.24289 0.38333 0.0
C4188 C 0.88047 0.24236 0.35 0.0
H4189 H 0.92762 0.1935 0.44097 0.0
H4190 H 0.91515 0.20545 0.41248 0.0
C4191 C 0.87352 0.24941 0.33353 0.0
C4192 C 0.88861 0.23544 0.40116 0.0
H4193 H 0.92254 0.23579 0.41145 0.0
C4194 C 0.87975 0.2239 0.4233 0.0
C4195 C 0.90427 0.23985 0.39702 0.0
C4196 C 0.91459 0.25263 0.37468 0.0
C4197 C 0.88603 0.21647 0.44095 0.0
C4198 C 0.90168 0.22087 0.43679 0.0
C4199 C 0.91055 0.23242 0.41466 0.0
C4200 C 0.90905 0.21347 0.45466 0.0
C4201 C 0.87572 0.20371 0.46333 0.0
C4202 C 0.90991 0.21407 0.48797 0.0
C4203 C 0.91702 0.20718 0.50446 0.0
C4204 C 0.92353 0.19964 0.48791 0.0
C4205 C 0.92273 0.19917 0.45455 0.0
C4206 C 0.91561 0.20603 0.43815 0.0
H4207 H 0.86337 0.19908 0.45776 0.0
H4208 H 0.87823 0.19413 0.46244 0.0
H4209 H 0.87776 0.20823 0.48794 0.0
H4210 H 0.90522 0.22002 0.50123 0.0
H4211 H 0.9175 0.20784 0.53011 0.0
H4212 H 0.04238 0.58511 0.1386 0.0
H4213 H 0.01804 0.57312 0.16809 0.0
H4214 H 0.04298 0.58237 0.25614 0.0
H4215 H 0.06723 0.59449 0.22712 0.0
H4216 H 0.00606 0.54788 0.20969 0.0
H4217 H 0.01502 0.60033 0.27223 0.0
H4218 H 0.02645 0.60106 0.23849 0.0
H4219 H 0.0305 0.59644 0.2772 0.0
C4220 C 0.04268 0.58466 0.16425 0.0
C4221 C 0.05678 0.59087 0.18047 0.0
C4222 C 0.02876 0.57779 0.18106 0.0
C4223 C 0.0287 0.57709 0.21437 0.0
C4224 C 0.04274 0.58308 0.23053 0.0
H4225 H 0.9581 0.53966 0.36132 0.0
H4226 H 0.98231 0.55156 0.33145 0.0
C4227 C 0.05662 0.58994 0.21381 0.0
C4228 C 0.01397 0.56978 0.23233 0.0
H4229 H 0.99407 0.57657 0.28979 0.0
C4230 C 0.00339 0.55417 0.22705 0.0
C4231 C 0.01053 0.57798 0.25512 0.0
C4232 C 0.02115 0.59491 0.26096 0.0
C4233 C 0.98959 0.54647 0.24436 0.0
C4234 C 0.98616 0.55467 0.26717 0.0
C4235 C 0.99674 0.57028 0.27242 0.0
C4236 C 0.97148 0.54734 0.28531 0.0
C4237 C 0.97899 0.52953 0.23856 0.0
C4238 C 0.95737 0.54122 0.26937 0.0
C4239 C 0.94355 0.53442 0.28632 0.0
C4240 C 0.94352 0.53368 0.31967 0.0
C4241 C 0.95769 0.54 0.33567 0.0
C4242 C 0.97154 0.54681 0.31863 0.0
H4243 H 0.98512 0.52412 0.22728 0.0
H4244 H 0.97371 0.52338 0.26105 0.0
H4245 H 0.96962 0.52798 0.22235 0.0
H4246 H 0.95703 0.54182 0.24375 0.0
H4247 H 0.93289 0.52979 0.27318 0.0
H4248 H 0.41645 0.45912 0.14241 0.0
H4249 H 0.42837 0.4467 0.17184 0.0
H4250 H 0.42 0.46317 0.25983 0.0
H4251 H 0.40799 0.47542 0.23086 0.0
H4252 H 0.45393 0.45998 0.21328 0.0
H4253 H 0.40132 0.41707 0.27636 0.0
H4254 H 0.40069 0.42769 0.24238 0.0
H4255 H 0.40549 0.43656 0.28089 0.0
C4256 C 0.41709 0.46005 0.16803 0.0
C4257 C 0.41115 0.46819 0.18425 0.0
C4258 C 0.42393 0.45296 0.18482 0.0
C4259 C 0.42484 0.45378 0.2181 0.0
C4260 C 0.41913 0.46209 0.23424 0.0
H4261 H 0.46125 0.41937 0.36479 0.0
H4262 H 0.44961 0.43198 0.33511 0.0
C4263 C 0.41233 0.46917 0.21755 0.0
C4264 C 0.43202 0.44623 0.23604 0.0
H4265 H 0.42493 0.41945 0.29348 0.0
C4266 C 0.44758 0.45105 0.23068 0.0
C4267 C 0.42374 0.43464 0.25888 0.0
C4268 C 0.40685 0.42856 0.26485 0.0
C4269 C 0.45515 0.44482 0.24794 0.0
C4270 C 0.44687 0.43321 0.27077 0.0
C4271 C 0.4313 0.42838 0.2761 0.0
C4272 C 0.45404 0.42567 0.28883 0.0
C4273 C 0.47207 0.451 0.24208 0.0
C4274 C 0.46019 0.41773 0.27277 0.0
C4275 C 0.46687 0.41058 0.28961 0.0
C4276 C 0.46742 0.41104 0.32299 0.0
C4277 C 0.46104 0.4188 0.33912 0.0
C4278 C 0.45438 0.42602 0.32218 0.0
H4279 H 0.4776 0.46261 0.23112 0.0
H4280 H 0.47819 0.45165 0.26448 0.0
H4281 H 0.47349 0.44321 0.22553 0.0
H4282 H 0.45972 0.41696 0.24713 0.0
H4283 H 0.47153 0.40459 0.27637 0.0
H4284 H 0.54092 0.95891 0.13741 0.0
H4285 H 0.55336 0.98322 0.167 0.0
H4286 H 0.54012 0.95811 0.25517 0.0
H4287 H 0.52785 0.9339 0.22604 0.0
H4288 H 0.54032 0.99449 0.21203 0.0
H4289 H 0.58652 0.98703 0.26623 0.0
H4290 H 0.57524 0.97569 0.23293 0.0
H4291 H 0.56748 0.9711 0.27243 0.0
C4292 C 0.54071 0.95857 0.1631 0.0
C4293 C 0.53346 0.94442 0.17931 0.0
C4294 C 0.54781 0.97247 0.17997 0.0
C4295 C 0.5479 0.97248 0.21332 0.0
C4296 C 0.54048 0.9584 0.22948 0.0
H4297 H 0.58354 0.04292 0.36088 0.0
H4298 H 0.57089 0.0187 0.33105 0.0
C4299 C 0.53338 0.94454 0.21271 0.0
C4300 C 0.55545 0.98718 0.23137 0.0
H4301 H 0.58359 0.00756 0.28599 0.0
C4302 C 0.54985 0.9974 0.22805 0.0
C4303 C 0.56782 0.99093 0.25243 0.0
C4304 C 0.57474 0.98069 0.25609 0.0
C4305 C 0.55608 0.01113 0.24562 0.0
C4306 C 0.56846 0.01488 0.26667 0.0
C4307 C 0.57407 0.00466 0.26998 0.0
C4308 C 0.576 0.02955 0.28485 0.0
C4309 C 0.54912 0.02133 0.24202 0.0
C4310 C 0.58326 0.04368 0.26883 0.0
C4311 C 0.59048 0.0575 0.28576 0.0
C4312 C 0.5907 0.05752 0.31915 0.0
C4313 C 0.58356 0.04333 0.3352 0.0
C4314 C 0.57633 0.02948 0.31819 0.0
H4315 H 0.5373 0.01494 0.23211 0.0
H4316 H 0.54871 0.0264 0.26515 0.0
H4317 H 0.55629 0.03086 0.22549 0.0
H4318 H 0.58346 0.04404 0.24315 0.0
H4319 H 0.59593 0.06817 0.27255 0.0
H4320 H 0.40319 0.95457 0.65169 0.0
H4321 H 0.41464 0.97869 0.68169 0.0
H4322 H 0.43779 0.962 0.74229 0.0
H4323 H 0.42546 0.93755 0.7138 0.0
H4324 H 0.42754 0.97496 0.77725 0.0
H4325 H 0.45577 0.01493 0.67726 0.0
H4326 H 0.43543 0.00374 0.67123 0.0
H4327 H 0.4468 0.99441 0.67257 0.0
C4328 C 0.41082 0.95615 0.67129 0.0
C4329 C 0.41349 0.94424 0.68039 0.0
C4330 C 0.41748 0.97 0.68831 0.0
C4331 C 0.42742 0.97243 0.71399 0.0
C4332 C 0.4302 0.96052 0.72268 0.0
H4333 H 0.48842 0.06316 0.7922 0.0
H4334 H 0.47659 0.03874 0.7636 0.0
C4335 C 0.42319 0.94654 0.70631 0.0
C4336 C 0.43449 0.98705 0.73265 0.0
H4337 H 0.45439 0.0262 0.72599 0.0
C4338 C 0.43353 0.98616 0.76596 0.0
C4339 C 0.44254 0.00175 0.71821 0.0
C4340 C 0.44535 0.00377 0.6829 0.0
C4341 C 0.44037 0.9994 0.78511 0.0
C4342 C 0.44773 0.01411 0.77061 0.0
C4343 C 0.44864 0.015 0.7373 0.0
C4344 C 0.45502 0.02872 0.7893 0.0
C4345 C 0.44008 0.99734 0.82064 0.0
C4346 C 0.44697 0.03138 0.81354 0.0
C4347 C 0.45396 0.0452 0.83067 0.0
C4348 C 0.46891 0.05687 0.82305 0.0
C4349 C 0.47686 0.05436 0.7985 0.0
C4350 C 0.47006 0.0404 0.78207 0.0
H4351 H 0.43889 0.98607 0.82703 0.0
H4352 H 0.45069 0.00655 0.83195 0.0
H4353 H 0.43002 0.99764 0.83067 0.0
H4354 H 0.43519 0.02289 0.81896 0.0
H4355 H 0.44751 0.04695 0.84918 0.0
H4356 H 0.04356 0.46092 0.64298 0.0
H4357 H 0.01914 0.44876 0.67202 0.0
H4358 H 0.04378 0.46217 0.76072 0.0
H4359 H 0.06817 0.47415 0.73205 0.0
H4360 H 0.02029 0.43164 0.76007 0.0
H4361 H 0.99912 0.47014 0.71819 0.0
H4362 H 0.00426 0.46134 0.68707 0.0
H4363 H 0.01885 0.47481 0.71344 0.0
C4364 C 0.04379 0.46132 0.66866 0.0
C4365 C 0.05786 0.46856 0.68514 0.0
C4366 C 0.0298 0.45444 0.68524 0.0
C4367 C 0.02961 0.45473 0.71858 0.0
C4368 C 0.04363 0.46185 0.73503 0.0
H4369 H 0.958 0.41807 0.86492 0.0
H4370 H 0.98256 0.43061 0.83636 0.0
C4371 C 0.05758 0.46873 0.71853 0.0
C4372 C 0.01485 0.44734 0.73649 0.0
H4373 H 0.98173 0.44839 0.74832 0.0
C4374 C 0.01188 0.43534 0.7576 0.0
C4375 C 0.00388 0.45217 0.73328 0.0
C4376 C 0.00669 0.46541 0.712 0.0
C4377 C 0.99812 0.42785 0.77511 0.0
C4378 C 0.98714 0.43268 0.7719 0.0
C4379 C 0.99014 0.4447 0.75081 0.0
C4380 C 0.97231 0.42518 0.78956 0.0
C4381 C 0.9953 0.41456 0.79624 0.0
C4382 C 0.95836 0.41829 0.77285 0.0
C4383 C 0.94434 0.41122 0.78908 0.0
C4384 C 0.94391 0.41092 0.82247 0.0
C4385 C 0.9579 0.41797 0.83922 0.0
C4386 C 0.97196 0.42508 0.82292 0.0
H4387 H 0.00284 0.40981 0.78988 0.0
H4388 H 0.99779 0.41859 0.82119 0.0
H4389 H 0.98313 0.40519 0.79484 0.0
H4390 H 0.95832 0.41827 0.74715 0.0
H4391 H 0.93382 0.40594 0.77535 0.0
H4392 H 0.54283 0.58455 0.64182 0.0
H4393 H 0.55458 0.57183 0.67073 0.0
H4394 H 0.54027 0.58209 0.75943 0.0
H4395 H 0.52841 0.59462 0.73094 0.0
H4396 H 0.57783 0.584 0.71682 0.0
H4397 H 0.52412 0.53601 0.76678 0.0
H4398 H 0.52411 0.54792 0.73474 0.0
H4399 H 0.52666 0.55467 0.77502 0.0
C4400 C 0.54215 0.58406 0.66747 0.0
C4401 C 0.5346 0.59055 0.68402 0.0
C4402 C 0.54887 0.57678 0.68396 0.0
C4403 C 0.54808 0.57577 0.71723 0.0
C4404 C 0.54072 0.58241 0.73375 0.0
H4405 H 0.58267 0.53943 0.86331 0.0
H4406 H 0.57077 0.5518 0.83371 0.0
C4407 C 0.53401 0.58966 0.71736 0.0
C4408 C 0.55529 0.56817 0.73486 0.0
H4409 H 0.5476 0.5393 0.78753 0.0
C4410 C 0.57121 0.57416 0.7321 0.0
C4411 C 0.54665 0.55537 0.75495 0.0
C4412 C 0.52942 0.548 0.75789 0.0
C4413 C 0.57878 0.56791 0.74936 0.0
C4414 C 0.57014 0.55514 0.7695 0.0
C4415 C 0.55421 0.54913 0.7722 0.0
C4416 C 0.57739 0.54767 0.78749 0.0
C4417 C 0.59601 0.57529 0.74643 0.0
C4418 C 0.58485 0.54104 0.77136 0.0
C4419 C 0.59166 0.534 0.78816 0.0
C4420 C 0.59108 0.53332 0.82152 0.0
C4421 C 0.5834 0.53979 0.83766 0.0
C4422 C 0.57658 0.54685 0.82078 0.0
H4423 H 0.6013 0.58724 0.73727 0.0
H4424 H 0.60132 0.5755 0.76966 0.0
H4425 H 0.59877 0.56854 0.72955 0.0
H4426 H 0.58532 0.54121 0.74568 0.0
H4427 H 0.59737 0.52906 0.77489 0.0
loop_
_geom_bond_atom_site_label_1
_geom_bond_atom_site_label_2
_geom_bond_distance
_geom_bond_site_symmetry_2
_ccdc_geom_bond_type
Co0 N4 2.148 . S
Co0 N10 2.128 . S
Co0 N20 2.194 . S
Co0 O25 2.351 . S
Co0 O26 2.155 . S
Co0 O27 2.096 . S
C1 N4 1.301 . S
C1 N5 1.328 . S
C1 H6 0.930 . S
C2 C3 1.333 1_554 S
C2 N4 1.317 . S
C2 H7 0.930 . S
C3 C2 1.333 1_556 S
C3 N5 1.350 1_556 S
C3 H29 0.931 . S
N4 Co0 2.148 . S
N4 C1 1.301 . S
N4 C2 1.317 . S
N5 C1 1.328 . S
N5 C3 1.350 1_554 S
H6 C1 0.930 . S
H7 C2 0.930 . S
C8 O9 1.224 . S
C8 O27 1.247 . S
O9 C8 1.224 . S
N10 Co0 2.128 . S
N10 C11 1.355 . S
N10 C13 1.311 . S
C11 N10 1.355 . S
C11 C12 1.363 . S
C11 H23 0.929 . S
C12 C11 1.363 . S
C12 N14 1.375 . S
C12 H30 0.931 . S
C13 N10 1.311 . S
C13 N14 1.347 . S
C13 H24 0.929 . S
N14 C12 1.375 . S
N14 C13 1.347 . S
C15 C18 1.365 . S
C15 N20 1.328 . S
C15 H21 0.929 . S
C16 C17 1.362 . S
C16 C19 1.378 . S
C16 H31 0.929 . S
C17 C16 1.362 . S
C17 C18 1.366 . S
C18 C15 1.365 . S
C18 C17 1.366 . S
C18 H32 0.930 . S
C19 C16 1.378 . S
C19 N20 1.315 . S
C19 H22 0.930 . S
N20 Co0 2.194 . S
N20 C15 1.328 . S
N20 C19 1.315 . S
H21 C15 0.929 . S
H22 C19 0.930 . S
H23 C11 0.929 . S
H24 C13 0.929 . S
O25 Co0 2.351 . S
O25 C28 1.244 . S
O26 Co0 2.155 . S
O26 C28 1.240 . S
O27 Co0 2.096 . S
O27 C8 1.247 . S
C28 O25 1.244 . S
C28 O26 1.240 . S
H29 C3 0.931 . S
H30 C12 0.931 . S
H31 C16 0.929 . S
H32 C18 0.930 . S
Co33 N37 2.148 . S
Co33 N43 2.128 . S
Co33 N53 2.194 . S
Co33 O58 2.351 . S
Co33 O59 2.155 . S
Co33 O60 2.096 . S
C34 N37 1.301 . S
C34 N38 1.328 . S
C34 H39 0.930 . S
C35 C36 1.333 1_554 S
C35 N37 1.317 . S
C35 H40 0.930 . S
C36 C35 1.333 1_556 S
C36 N38 1.350 1_556 S
C36 H62 0.931 . S
N37 Co33 2.148 . S
N37 C34 1.301 . S
N37 C35 1.317 . S
N38 C34 1.328 . S
N38 C36 1.350 1_554 S
H39 C34 0.930 . S
H40 C35 0.930 . S
C41 O42 1.224 . S
C41 O60 1.247 . S
O42 C41 1.224 . S
N43 Co33 2.128 . S
N43 C44 1.355 . S
N43 C46 1.311 . S
C44 N43 1.355 . S
C44 C45 1.363 . S
C44 H56 0.929 . S
C45 C44 1.363 . S
C45 N47 1.375 . S
C45 H63 0.931 . S
C46 N43 1.311 . S
C46 N47 1.347 . S
C46 H57 0.929 . S
N47 C45 1.375 . S
N47 C46 1.347 . S
C48 C51 1.365 . S
C48 N53 1.328 . S
C48 H54 0.929 . S
C49 C50 1.362 . S
C49 C52 1.378 . S
C49 H64 0.929 . S
C50 C49 1.362 . S
C50 C51 1.366 . S
C51 C48 1.365 . S
C51 C50 1.366 . S
C51 H65 0.930 . S
C52 C49 1.378 . S
C52 N53 1.315 . S
C52 H55 0.930 . S
N53 Co33 2.194 . S
N53 C48 1.328 . S
N53 C52 1.315 . S
H54 C48 0.929 . S
H55 C52 0.930 . S
H56 C44 0.929 . S
H57 C46 0.929 . S
O58 Co33 2.351 . S
O58 C61 1.244 . S
O59 Co33 2.155 . S
O59 C61 1.240 . S
O60 Co33 2.096 . S
O60 C41 1.247 . S
C61 O58 1.244 . S
C61 O59 1.240 . S
H62 C36 0.931 . S
H63 C45 0.931 . S
H64 C49 0.929 . S
H65 C51 0.930 . S
Co66 N70 2.148 . S
Co66 N76 2.128 . S
Co66 N86 2.194 . S
Co66 O91 2.351 . S
Co66 O92 2.155 . S
Co66 O93 2.096 . S
C67 N70 1.301 . S
C67 N71 1.328 . S
C67 H72 0.930 . S
C68 C69 1.333 1_554 S
C68 N70 1.317 . S
C68 H73 0.930 . S
C69 C68 1.333 1_556 S
C69 N71 1.350 1_556 S
C69 H95 0.931 . S
N70 Co66 2.148 . S
N70 C67 1.301 . S
N70 C68 1.317 . S
N71 C67 1.328 . S
N71 C69 1.350 1_554 S
H72 C67 0.930 . S
H73 C68 0.930 . S
C74 O75 1.224 . S
C74 O93 1.247 . S
O75 C74 1.224 . S
N76 Co66 2.128 . S
N76 C77 1.355 . S
N76 C79 1.311 . S
C77 N76 1.355 . S
C77 C78 1.363 . S
C77 H89 0.929 . S
C78 C77 1.363 . S
C78 N80 1.375 . S
C78 H96 0.931 . S
C79 N76 1.311 . S
C79 N80 1.347 . S
C79 H90 0.929 . S
N80 C78 1.375 . S
N80 C79 1.347 . S
C81 C84 1.365 . S
C81 N86 1.328 . S
C81 H87 0.929 . S
C82 C83 1.362 . S
C82 C85 1.378 . S
C82 H97 0.929 . S
C83 C82 1.362 . S
C83 C84 1.366 . S
C84 C81 1.365 . S
C84 C83 1.366 . S
C84 H98 0.930 . S
C85 C82 1.378 . S
C85 N86 1.315 . S
C85 H88 0.930 . S
N86 Co66 2.194 . S
N86 C81 1.328 . S
N86 C85 1.315 . S
H87 C81 0.929 . S
H88 C85 0.930 . S
H89 C77 0.929 . S
H90 C79 0.929 . S
O91 Co66 2.351 . S
O91 C94 1.244 . S
O92 Co66 2.155 . S
O92 C94 1.240 . S
O93 Co66 2.096 . S
O93 C74 1.247 . S
C94 O91 1.244 . S
C94 O92 1.240 . S
H95 C69 0.931 . S
H96 C78 0.931 . S
H97 C82 0.929 . S
H98 C84 0.930 . S
Co99 N103 2.148 . S
Co99 N109 2.128 . S
Co99 N119 2.194 . S
Co99 O124 2.351 . S
Co99 O125 2.155 . S
Co99 O126 2.096 . S
C100 N103 1.301 . S
C100 N104 1.328 . S
C100 H105 0.930 . S
C101 C102 1.333 . S
C101 N103 1.317 . S
C101 H106 0.930 . S
C102 C101 1.333 . S
C102 N104 1.350 . S
C102 H128 0.931 . S
N103 Co99 2.148 . S
N103 C100 1.301 . S
N103 C101 1.317 . S
N104 C100 1.328 . S
N104 C102 1.350 . S
H105 C100 0.930 . S
H106 C101 0.930 . S
C107 O108 1.224 . S
C107 O126 1.247 . S
O108 C107 1.224 . S
N109 Co99 2.128 . S
N109 C110 1.355 . S
N109 C112 1.311 . S
C110 N109 1.355 . S
C110 C111 1.363 . S
C110 H122 0.929 . S
C111 C110 1.363 . S
C111 N113 1.375 . S
C111 H129 0.931 . S
C112 N109 1.311 . S
C112 N113 1.347 . S
C112 H123 0.929 . S
N113 C111 1.375 . S
N113 C112 1.347 . S
C114 C117 1.365 . S
C114 N119 1.328 . S
C114 H120 0.929 . S
C115 C116 1.362 . S
C115 C118 1.378 . S
C115 H130 0.929 . S
C116 C115 1.362 . S
C116 C117 1.366 . S
C117 C114 1.365 . S
C117 C116 1.366 . S
C117 H131 0.930 . S
C118 C115 1.378 . S
C118 N119 1.315 . S
C118 H121 0.930 . S
N119 Co99 2.194 . S
N119 C114 1.328 . S
N119 C118 1.315 . S
H120 C114 0.929 . S
H121 C118 0.930 . S
H122 C110 0.929 . S
H123 C112 0.929 . S
O124 Co99 2.351 . S
O124 C127 1.244 . S
O125 Co99 2.155 . S
O125 C127 1.240 . S
O126 Co99 2.096 . S
O126 C107 1.247 . S
C127 O124 1.244 . S
C127 O125 1.240 . S
H128 C102 0.931 . S
H129 C111 0.931 . S
H130 C115 0.929 . S
H131 C117 0.930 . S
Co132 N136 2.148 . S
Co132 N142 2.128 . S
Co132 N152 2.194 . S
Co132 O157 2.351 . S
Co132 O158 2.155 . S
Co132 O159 2.096 . S
C133 N136 1.301 . S
C133 N137 1.328 . S
C133 H138 0.930 . S
C134 C135 1.333 . S
C134 N136 1.317 . S
C134 H139 0.930 . S
C135 C134 1.333 . S
C135 N137 1.350 . S
C135 H161 0.931 . S
N136 Co132 2.148 . S
N136 C133 1.301 . S
N136 C134 1.317 . S
N137 C133 1.328 . S
N137 C135 1.350 . S
H138 C133 0.930 . S
H139 C134 0.930 . S
C140 O141 1.224 . S
C140 O159 1.247 . S
O141 C140 1.224 . S
N142 Co132 2.128 . S
N142 C143 1.355 . S
N142 C145 1.311 . S
C143 N142 1.355 . S
C143 C144 1.363 . S
C143 H155 0.929 . S
C144 C143 1.363 . S
C144 N146 1.375 . S
C144 H162 0.931 . S
C145 N142 1.311 . S
C145 N146 1.347 . S
C145 H156 0.929 . S
N146 C144 1.375 . S
N146 C145 1.347 . S
C147 C150 1.365 . S
C147 N152 1.328 . S
C147 H153 0.929 . S
C148 C149 1.362 . S
C148 C151 1.378 . S
C148 H163 0.929 . S
C149 C148 1.362 . S
C149 C150 1.366 . S
C150 C147 1.365 . S
C150 C149 1.366 . S
C150 H164 0.930 . S
C151 C148 1.378 . S
C151 N152 1.315 . S
C151 H154 0.930 . S
N152 Co132 2.194 . S
N152 C147 1.328 . S
N152 C151 1.315 . S
H153 C147 0.929 . S
H154 C151 0.930 . S
H155 C143 0.929 . S
H156 C145 0.929 . S
O157 Co132 2.351 . S
O157 C160 1.244 . S
O158 Co132 2.155 . S
O158 C160 1.240 . S
O159 Co132 2.096 . S
O159 C140 1.247 . S
C160 O157 1.244 . S
C160 O158 1.240 . S
H161 C135 0.931 . S
H162 C144 0.931 . S
H163 C148 0.929 . S
H164 C150 0.930 . S
Co165 N169 2.148 . S
Co165 N175 2.128 . S
Co165 N185 2.194 . S
Co165 O190 2.351 . S
Co165 O191 2.155 . S
Co165 O192 2.096 . S
C166 N169 1.301 . S
C166 N170 1.328 . S
C166 H171 0.930 . S
C167 C168 1.333 . S
C167 N169 1.317 . S
C167 H172 0.930 . S
C168 C167 1.333 . S
C168 N170 1.350 . S
C168 H194 0.931 . S
N169 Co165 2.148 . S
N169 C166 1.301 . S
N169 C167 1.317 . S
N170 C166 1.328 . S
N170 C168 1.350 . S
H171 C166 0.930 . S
H172 C167 0.930 . S
C173 O174 1.224 . S
C173 O192 1.247 . S
O174 C173 1.224 . S
N175 Co165 2.128 . S
N175 C176 1.355 . S
N175 C178 1.311 . S
C176 N175 1.355 . S
C176 C177 1.363 . S
C176 H188 0.929 . S
C177 C176 1.363 . S
C177 N179 1.375 . S
C177 H195 0.931 . S
C178 N175 1.311 . S
C178 N179 1.347 . S
C178 H189 0.929 . S
N179 C177 1.375 . S
N179 C178 1.347 . S
C180 C183 1.365 . S
C180 N185 1.328 . S
C180 H186 0.929 . S
C181 C182 1.362 . S
C181 C184 1.378 . S
C181 H196 0.929 . S
C182 C181 1.362 . S
C182 C183 1.366 . S
C183 C180 1.365 . S
C183 C182 1.366 . S
C183 H197 0.930 . S
C184 C181 1.378 . S
C184 N185 1.315 . S
C184 H187 0.930 . S
N185 Co165 2.194 . S
N185 C180 1.328 . S
N185 C184 1.315 . S
H186 C180 0.929 . S
H187 C184 0.930 . S
H188 C176 0.929 . S
H189 C178 0.929 . S
O190 Co165 2.351 . S
O190 C193 1.244 . S
O191 Co165 2.155 . S
O191 C193 1.240 . S
O192 Co165 2.096 . S
O192 C173 1.247 . S
C193 O190 1.244 . S
C193 O191 1.240 . S
H194 C168 0.931 . S
H195 C177 0.931 . S
H196 C181 0.929 . S
H197 C183 0.930 . S
Co198 N202 2.148 . S
Co198 N208 2.128 . S
Co198 N218 2.194 . S
Co198 O223 2.351 . S
Co198 O224 2.155 . S
Co198 O225 2.096 . S
C199 N202 1.301 . S
C199 N203 1.328 . S
C199 H204 0.930 . S
C200 C201 1.333 1_556 S
C200 N202 1.317 . S
C200 H205 0.930 . S
C201 C200 1.333 1_554 S
C201 N203 1.350 1_554 S
C201 H227 0.931 . S
N202 Co198 2.148 . S
N202 C199 1.301 . S
N202 C200 1.317 . S
N203 C199 1.328 . S
N203 C201 1.350 1_556 S
H204 C199 0.930 . S
H205 C200 0.930 . S
C206 O207 1.224 . S
C206 O225 1.247 . S
O207 C206 1.224 . S
N208 Co198 2.128 . S
N208 C209 1.355 . S
N208 C211 1.311 . S
C209 N208 1.355 . S
C209 C210 1.363 . S
C209 H221 0.929 . S
C210 C209 1.363 . S
C210 N212 1.375 . S
C210 H228 0.931 . S
C211 N208 1.311 . S
C211 N212 1.347 . S
C211 H222 0.929 . S
N212 C210 1.375 . S
N212 C211 1.347 . S
C213 C216 1.365 . S
C213 N218 1.328 . S
C213 H219 0.929 . S
C214 C215 1.362 . S
C214 C217 1.378 . S
C214 H229 0.929 . S
C215 C214 1.362 . S
C215 C216 1.366 . S
C216 C213 1.365 . S
C216 C215 1.366 . S
C216 H230 0.930 . S
C217 C214 1.378 . S
C217 N218 1.315 . S
C217 H220 0.930 . S
N218 Co198 2.194 . S
N218 C213 1.328 . S
N218 C217 1.315 . S
H219 C213 0.929 . S
H220 C217 0.930 . S
H221 C209 0.929 . S
H222 C211 0.929 . S
O223 Co198 2.351 . S
O223 C226 1.244 . S
O224 Co198 2.155 . S
O224 C226 1.240 . S
O225 Co198 2.096 . S
O225 C206 1.247 . S
C226 O223 1.244 . S
C226 O224 1.240 . S
H227 C201 0.931 . S
H228 C210 0.931 . S
H229 C214 0.929 . S
H230 C216 0.930 . S
Co231 N235 2.148 . S
Co231 N241 2.128 . S
Co231 N251 2.194 . S
Co231 O256 2.351 . S
Co231 O257 2.155 . S
Co231 O258 2.096 . S
C232 N235 1.301 . S
C232 N236 1.328 . S
C232 H237 0.930 . S
C233 C234 1.333 1_556 S
C233 N235 1.317 . S
C233 H238 0.930 . S
C234 C233 1.333 1_554 S
C234 N236 1.350 1_554 S
C234 H260 0.931 . S
N235 Co231 2.148 . S
N235 C232 1.301 . S
N235 C233 1.317 . S
N236 C232 1.328 . S
N236 C234 1.350 1_556 S
H237 C232 0.930 . S
H238 C233 0.930 . S
C239 O240 1.224 . S
C239 O258 1.247 . S
O240 C239 1.224 . S
N241 Co231 2.128 . S
N241 C242 1.355 . S
N241 C244 1.311 . S
C242 N241 1.355 . S
C242 C243 1.363 . S
C242 H254 0.929 . S
C243 C242 1.363 . S
C243 N245 1.375 . S
C243 H261 0.931 . S
C244 N241 1.311 . S
C244 N245 1.347 . S
C244 H255 0.929 . S
N245 C243 1.375 . S
N245 C244 1.347 . S
C246 C249 1.365 . S
C246 N251 1.328 . S
C246 H252 0.929 . S
C247 C248 1.362 . S
C247 C250 1.378 . S
C247 H262 0.929 . S
C248 C247 1.362 . S
C248 C249 1.366 . S
C249 C246 1.365 . S
C249 C248 1.366 . S
C249 H263 0.930 . S
C250 C247 1.378 . S
C250 N251 1.315 . S
C250 H253 0.930 . S
N251 Co231 2.194 . S
N251 C246 1.328 . S
N251 C250 1.315 . S
H252 C246 0.929 . S
H253 C250 0.930 . S
H254 C242 0.929 . S
H255 C244 0.929 . S
O256 Co231 2.351 . S
O256 C259 1.244 . S
O257 Co231 2.155 . S
O257 C259 1.240 . S
O258 Co231 2.096 . S
O258 C239 1.247 . S
C259 O256 1.244 . S
C259 O257 1.240 . S
H260 C234 0.931 . S
H261 C243 0.931 . S
H262 C247 0.929 . S
H263 C249 0.930 . S
Co264 N268 2.148 . S
Co264 N274 2.128 . S
Co264 N284 2.194 . S
Co264 O289 2.351 . S
Co264 O290 2.155 . S
Co264 O291 2.096 . S
C265 N268 1.301 . S
C265 N269 1.328 . S
C265 H270 0.930 . S
C266 C267 1.333 1_556 S
C266 N268 1.317 . S
C266 H271 0.930 . S
C267 C266 1.333 1_554 S
C267 N269 1.350 1_554 S
C267 H293 0.931 . S
N268 Co264 2.148 . S
N268 C265 1.301 . S
N268 C266 1.317 . S
N269 C265 1.328 . S
N269 C267 1.350 1_556 S
H270 C265 0.930 . S
H271 C266 0.930 . S
C272 O273 1.224 . S
C272 O291 1.247 . S
O273 C272 1.224 . S
N274 Co264 2.128 . S
N274 C275 1.355 . S
N274 C277 1.311 . S
C275 N274 1.355 . S
C275 C276 1.363 . S
C275 H287 0.929 . S
C276 C275 1.363 . S
C276 N278 1.375 . S
C276 H294 0.931 . S
C277 N274 1.311 . S
C277 N278 1.347 . S
C277 H288 0.929 . S
N278 C276 1.375 . S
N278 C277 1.347 . S
C279 C282 1.365 . S
C279 N284 1.328 . S
C279 H285 0.929 . S
C280 C281 1.362 . S
C280 C283 1.378 . S
C280 H295 0.929 . S
C281 C280 1.362 . S
C281 C282 1.366 . S
C282 C279 1.365 . S
C282 C281 1.366 . S
C282 H296 0.930 . S
C283 C280 1.378 . S
C283 N284 1.315 . S
C283 H286 0.930 . S
N284 Co264 2.194 . S
N284 C279 1.328 . S
N284 C283 1.315 . S
H285 C279 0.929 . S
H286 C283 0.930 . S
H287 C275 0.929 . S
H288 C277 0.929 . S
O289 Co264 2.351 . S
O289 C292 1.244 . S
O290 Co264 2.155 . S
O290 C292 1.240 . S
O291 Co264 2.096 . S
O291 C272 1.247 . S
C292 O289 1.244 . S
C292 O290 1.240 . S
H293 C267 0.931 . S
H294 C276 0.931 . S
H295 C280 0.929 . S
H296 C282 0.930 . S
Co297 N301 2.148 . S
Co297 N307 2.128 . S
Co297 N317 2.194 . S
Co297 O322 2.351 . S
Co297 O323 2.155 . S
Co297 O324 2.096 . S
C298 N301 1.301 . S
C298 N302 1.328 . S
C298 H303 0.930 . S
C299 C300 1.333 . S
C299 N301 1.317 . S
C299 H304 0.930 . S
C300 C299 1.333 . S
C300 N302 1.350 . S
C300 H326 0.931 . S
N301 Co297 2.148 . S
N301 C298 1.301 . S
N301 C299 1.317 . S
N302 C298 1.328 . S
N302 C300 1.350 . S
H303 C298 0.930 . S
H304 C299 0.930 . S
C305 O306 1.224 . S
C305 O324 1.247 . S
O306 C305 1.224 . S
N307 Co297 2.128 . S
N307 C308 1.355 . S
N307 C310 1.311 . S
C308 N307 1.355 . S
C308 C309 1.363 . S
C308 H320 0.929 . S
C309 C308 1.363 . S
C309 N311 1.375 . S
C309 H327 0.931 . S
C310 N307 1.311 . S
C310 N311 1.347 . S
C310 H321 0.929 . S
N311 C309 1.375 . S
N311 C310 1.347 . S
C312 C315 1.365 . S
C312 N317 1.328 . S
C312 H318 0.929 . S
C313 C314 1.362 . S
C313 C316 1.378 . S
C313 H328 0.929 . S
C314 C313 1.362 . S
C314 C315 1.366 . S
C315 C312 1.365 . S
C315 C314 1.366 . S
C315 H329 0.930 . S
C316 C313 1.378 . S
C316 N317 1.315 . S
C316 H319 0.930 . S
N317 Co297 2.194 . S
N317 C312 1.328 . S
N317 C316 1.315 . S
H318 C312 0.929 . S
H319 C316 0.930 . S
H320 C308 0.929 . S
H321 C310 0.929 . S
O322 Co297 2.351 . S
O322 C325 1.244 . S
O323 Co297 2.155 . S
O323 C325 1.240 . S
O324 Co297 2.096 . S
O324 C305 1.247 . S
C325 O322 1.244 . S
C325 O323 1.240 . S
H326 C300 0.931 . S
H327 C309 0.931 . S
H328 C313 0.929 . S
H329 C315 0.930 . S
Co330 N334 2.148 . S
Co330 N340 2.128 . S
Co330 N350 2.194 . S
Co330 O355 2.351 . S
Co330 O356 2.155 . S
Co330 O357 2.096 . S
C331 N334 1.301 . S
C331 N335 1.328 . S
C331 H336 0.930 . S
C332 C333 1.333 . S
C332 N334 1.317 . S
C332 H337 0.930 . S
C333 C332 1.333 . S
C333 N335 1.350 . S
C333 H359 0.931 . S
N334 Co330 2.148 . S
N334 C331 1.301 . S
N334 C332 1.317 . S
N335 C331 1.328 . S
N335 C333 1.350 . S
H336 C331 0.930 . S
H337 C332 0.930 . S
C338 O339 1.224 . S
C338 O357 1.247 . S
O339 C338 1.224 . S
N340 Co330 2.128 . S
N340 C341 1.355 . S
N340 C343 1.311 . S
C341 N340 1.355 . S
C341 C342 1.363 . S
C341 H353 0.929 . S
C342 C341 1.363 . S
C342 N344 1.375 . S
C342 H360 0.931 . S
C343 N340 1.311 . S
C343 N344 1.347 . S
C343 H354 0.929 . S
N344 C342 1.375 . S
N344 C343 1.347 . S
C345 C348 1.365 . S
C345 N350 1.328 . S
C345 H351 0.929 . S
C346 C347 1.362 . S
C346 C349 1.378 . S
C346 H361 0.929 . S
C347 C346 1.362 . S
C347 C348 1.366 . S
C348 C345 1.365 . S
C348 C347 1.366 . S
C348 H362 0.930 . S
C349 C346 1.378 . S
C349 N350 1.315 . S
C349 H352 0.930 . S
N350 Co330 2.194 . S
N350 C345 1.328 . S
N350 C349 1.315 . S
H351 C345 0.929 . S
H352 C349 0.930 . S
H353 C341 0.929 . S
H354 C343 0.929 . S
O355 Co330 2.351 . S
O355 C358 1.244 . S
O356 Co330 2.155 . S
O356 C358 1.240 . S
O357 Co330 2.096 . S
O357 C338 1.247 . S
C358 O355 1.244 . S
C358 O356 1.240 . S
H359 C333 0.931 . S
H360 C342 0.931 . S
H361 C346 0.929 . S
H362 C348 0.930 . S
Co363 N367 2.148 . S
Co363 N373 2.128 . S
Co363 N383 2.194 . S
Co363 O388 2.351 . S
Co363 O389 2.155 . S
Co363 O390 2.096 . S
C364 N367 1.301 . S
C364 N368 1.328 . S
C364 H369 0.930 . S
C365 C366 1.333 . S
C365 N367 1.317 . S
C365 H370 0.930 . S
C366 C365 1.333 . S
C366 N368 1.350 . S
C366 H392 0.931 . S
N367 Co363 2.148 . S
N367 C364 1.301 . S
N367 C365 1.317 . S
N368 C364 1.328 . S
N368 C366 1.350 . S
H369 C364 0.930 . S
H370 C365 0.930 . S
C371 O372 1.224 . S
C371 O390 1.247 . S
O372 C371 1.224 . S
N373 Co363 2.128 . S
N373 C374 1.355 . S
N373 C376 1.311 . S
C374 N373 1.355 . S
C374 C375 1.363 . S
C374 H386 0.929 . S
C375 C374 1.363 . S
C375 N377 1.375 . S
C375 H393 0.931 . S
C376 N373 1.311 . S
C376 N377 1.347 . S
C376 H387 0.929 . S
N377 C375 1.375 . S
N377 C376 1.347 . S
C378 C381 1.365 . S
C378 N383 1.328 . S
C378 H384 0.929 . S
C379 C380 1.362 . S
C379 C382 1.378 . S
C379 H394 0.929 . S
C380 C379 1.362 . S
C380 C381 1.366 . S
C381 C378 1.365 . S
C381 C380 1.366 . S
C381 H395 0.930 . S
C382 C379 1.378 . S
C382 N383 1.315 . S
C382 H385 0.930 . S
N383 Co363 2.194 . S
N383 C378 1.328 . S
N383 C382 1.315 . S
H384 C378 0.929 . S
H385 C382 0.930 . S
H386 C374 0.929 . S
H387 C376 0.929 . S
O388 Co363 2.351 . S
O388 C391 1.244 . S
O389 Co363 2.155 . S
O389 C391 1.240 . S
O390 Co363 2.096 . S
O390 C371 1.247 . S
C391 O388 1.244 . S
C391 O389 1.240 . S
H392 C366 0.931 . S
H393 C375 0.931 . S
H394 C379 0.929 . S
H395 C381 0.930 . S
Co396 N400 2.148 . S
Co396 N406 2.128 . S
Co396 N416 2.194 . S
Co396 O421 2.351 . S
Co396 O422 2.155 . S
Co396 O423 2.096 . S
C397 N400 1.301 . S
C397 N401 1.328 . S
C397 H402 0.930 . S
C398 C399 1.333 . S
C398 N400 1.317 . S
C398 H403 0.930 . S
C399 C398 1.333 . S
C399 N401 1.350 . S
C399 H425 0.931 . S
N400 Co396 2.148 . S
N400 C397 1.301 . S
N400 C398 1.317 . S
N401 C397 1.328 . S
N401 C399 1.350 . S
H402 C397 0.930 . S
H403 C398 0.930 . S
C404 O405 1.224 . S
C404 O423 1.247 . S
O405 C404 1.224 . S
N406 Co396 2.128 . S
N406 C407 1.355 . S
N406 C409 1.311 . S
C407 N406 1.355 . S
C407 C408 1.363 . S
C407 H419 0.929 . S
C408 C407 1.363 . S
C408 N410 1.375 . S
C408 H426 0.931 . S
C409 N406 1.311 . S
C409 N410 1.347 . S
C409 H420 0.929 . S
N410 C408 1.375 . S
N410 C409 1.347 . S
C411 C414 1.365 . S
C411 N416 1.328 . S
C411 H417 0.929 . S
C412 C413 1.362 . S
C412 C415 1.378 . S
C412 H427 0.929 . S
C413 C412 1.362 . S
C413 C414 1.366 . S
C414 C411 1.365 . S
C414 C413 1.366 . S
C414 H428 0.930 . S
C415 C412 1.378 . S
C415 N416 1.315 . S
C415 H418 0.930 . S
N416 Co396 2.194 . S
N416 C411 1.328 . S
N416 C415 1.315 . S
H417 C411 0.929 . S
H418 C415 0.930 . S
H419 C407 0.929 . S
H420 C409 0.929 . S
O421 Co396 2.351 . S
O421 C424 1.244 . S
O422 Co396 2.155 . S
O422 C424 1.240 . S
O423 Co396 2.096 . S
O423 C404 1.247 . S
C424 O421 1.244 . S
C424 O422 1.240 . S
H425 C399 0.931 . S
H426 C408 0.931 . S
H427 C412 0.929 . S
H428 C414 0.930 . S
Co429 N433 2.148 . S
Co429 N439 2.128 . S
Co429 N449 2.194 . S
Co429 O454 2.351 . S
Co429 O455 2.155 . S
Co429 O456 2.096 . S
C430 N433 1.301 . S
C430 N434 1.328 . S
C430 H435 0.930 . S
C431 C432 1.333 . S
C431 N433 1.317 . S
C431 H436 0.930 . S
C432 C431 1.333 . S
C432 N434 1.350 . S
C432 H458 0.931 . S
N433 Co429 2.148 . S
N433 C430 1.301 . S
N433 C431 1.317 . S
N434 C430 1.328 . S
N434 C432 1.350 . S
H435 C430 0.930 . S
H436 C431 0.930 . S
C437 O438 1.224 . S
C437 O456 1.247 . S
O438 C437 1.224 . S
N439 Co429 2.128 . S
N439 C440 1.355 . S
N439 C442 1.311 . S
C440 N439 1.355 . S
C440 C441 1.363 . S
C440 H452 0.929 . S
C441 C440 1.363 . S
C441 N443 1.375 . S
C441 H459 0.931 . S
C442 N439 1.311 . S
C442 N443 1.347 . S
C442 H453 0.929 . S
N443 C441 1.375 . S
N443 C442 1.347 . S
C444 C447 1.365 . S
C444 N449 1.328 . S
C444 H450 0.929 . S
C445 C446 1.362 . S
C445 C448 1.378 . S
C445 H460 0.929 . S
C446 C445 1.362 . S
C446 C447 1.366 . S
C447 C444 1.365 . S
C447 C446 1.366 . S
C447 H461 0.930 . S
C448 C445 1.378 . S
C448 N449 1.315 . S
C448 H451 0.930 . S
N449 Co429 2.194 . S
N449 C444 1.328 . S
N449 C448 1.315 . S
H450 C444 0.929 . S
H451 C448 0.930 . S
H452 C440 0.929 . S
H453 C442 0.929 . S
O454 Co429 2.351 . S
O454 C457 1.244 . S
O455 Co429 2.155 . S
O455 C457 1.240 . S
O456 Co429 2.096 . S
O456 C437 1.247 . S
C457 O454 1.244 . S
C457 O455 1.240 . S
H458 C432 0.931 . S
H459 C441 0.931 . S
H460 C445 0.929 . S
H461 C447 0.930 . S
Co462 N466 2.148 . S
Co462 N472 2.128 . S
Co462 N482 2.194 . S
Co462 O487 2.351 . S
Co462 O488 2.155 . S
Co462 O489 2.096 . S
C463 N466 1.301 . S
C463 N467 1.328 . S
C463 H468 0.930 . S
C464 C465 1.333 . S
C464 N466 1.317 . S
C464 H469 0.930 . S
C465 C464 1.333 . S
C465 N467 1.350 . S
C465 H491 0.931 . S
N466 Co462 2.148 . S
N466 C463 1.301 . S
N466 C464 1.317 . S
N467 C463 1.328 . S
N467 C465 1.350 . S
H468 C463 0.930 . S
H469 C464 0.930 . S
C470 O471 1.224 . S
C470 O489 1.247 . S
O471 C470 1.224 . S
N472 Co462 2.128 . S
N472 C473 1.355 . S
N472 C475 1.311 . S
C473 N472 1.355 . S
C473 C474 1.363 . S
C473 H485 0.929 . S
C474 C473 1.363 . S
C474 N476 1.375 . S
C474 H492 0.931 . S
C475 N472 1.311 . S
C475 N476 1.347 . S
C475 H486 0.929 . S
N476 C474 1.375 . S
N476 C475 1.347 . S
C477 C480 1.365 . S
C477 N482 1.328 . S
C477 H483 0.929 . S
C478 C479 1.362 . S
C478 C481 1.378 . S
C478 H493 0.929 . S
C479 C478 1.362 . S
C479 C480 1.366 . S
C480 C477 1.365 . S
C480 C479 1.366 . S
C480 H494 0.930 . S
C481 C478 1.378 . S
C481 N482 1.315 . S
C481 H484 0.930 . S
N482 Co462 2.194 . S
N482 C477 1.328 . S
N482 C481 1.315 . S
H483 C477 0.929 . S
H484 C481 0.930 . S
H485 C473 0.929 . S
H486 C475 0.929 . S
O487 Co462 2.351 . S
O487 C490 1.244 . S
O488 Co462 2.155 . S
O488 C490 1.240 . S
O489 Co462 2.096 . S
O489 C470 1.247 . S
C490 O487 1.244 . S
C490 O488 1.240 . S
H491 C465 0.931 . S
H492 C474 0.931 . S
H493 C478 0.929 . S
H494 C480 0.930 . S
Co495 N499 2.148 . S
Co495 N505 2.128 . S
Co495 N515 2.194 . S
Co495 O520 2.351 . S
Co495 O521 2.155 . S
Co495 O522 2.096 . S
C496 N499 1.301 . S
C496 N500 1.328 . S
C496 H501 0.930 . S
C497 C498 1.333 . S
C497 N499 1.317 . S
C497 H502 0.930 . S
C498 C497 1.333 . S
C498 N500 1.350 . S
C498 H524 0.931 . S
N499 Co495 2.148 . S
N499 C496 1.301 . S
N499 C497 1.317 . S
N500 C496 1.328 . S
N500 C498 1.350 . S
H501 C496 0.930 . S
H502 C497 0.930 . S
C503 O504 1.224 . S
C503 O522 1.247 . S
O504 C503 1.224 . S
N505 Co495 2.128 . S
N505 C506 1.355 . S
N505 C508 1.311 . S
C506 N505 1.355 . S
C506 C507 1.363 . S
C506 H518 0.929 . S
C507 C506 1.363 . S
C507 N509 1.375 . S
C507 H525 0.931 . S
C508 N505 1.311 . S
C508 N509 1.347 . S
C508 H519 0.929 . S
N509 C507 1.375 . S
N509 C508 1.347 . S
C510 C513 1.365 . S
C510 N515 1.328 . S
C510 H516 0.929 . S
C511 C512 1.362 . S
C511 C514 1.378 . S
C511 H526 0.929 . S
C512 C511 1.362 . S
C512 C513 1.366 . S
C513 C510 1.365 . S
C513 C512 1.366 . S
C513 H527 0.930 . S
C514 C511 1.378 . S
C514 N515 1.315 . S
C514 H517 0.930 . S
N515 Co495 2.194 . S
N515 C510 1.328 . S
N515 C514 1.315 . S
H516 C510 0.929 . S
H517 C514 0.930 . S
H518 C506 0.929 . S
H519 C508 0.929 . S
O520 Co495 2.351 . S
O520 C523 1.244 . S
O521 Co495 2.155 . S
O521 C523 1.240 . S
O522 Co495 2.096 . S
O522 C503 1.247 . S
C523 O520 1.244 . S
C523 O521 1.240 . S
H524 C498 0.931 . S
H525 C507 0.931 . S
H526 C511 0.929 . S
H527 C513 0.930 . S
Co528 N532 2.148 . S
Co528 N538 2.128 . S
Co528 N548 2.194 . S
Co528 O553 2.351 . S
Co528 O554 2.155 . S
Co528 O555 2.096 . S
C529 N532 1.301 . S
C529 N533 1.328 . S
C529 H534 0.930 . S
C530 C531 1.333 . S
C530 N532 1.317 . S
C530 H535 0.930 . S
C531 C530 1.333 . S
C531 N533 1.350 . S
C531 H557 0.931 . S
N532 Co528 2.148 . S
N532 C529 1.301 . S
N532 C530 1.317 . S
N533 C529 1.328 . S
N533 C531 1.350 . S
H534 C529 0.930 . S
H535 C530 0.930 . S
C536 O537 1.224 . S
C536 O555 1.247 . S
O537 C536 1.224 . S
N538 Co528 2.128 . S
N538 C539 1.355 . S
N538 C541 1.311 . S
C539 N538 1.355 . S
C539 C540 1.363 . S
C539 H551 0.929 . S
C540 C539 1.363 . S
C540 N542 1.375 . S
C540 H558 0.931 . S
C541 N538 1.311 . S
C541 N542 1.347 . S
C541 H552 0.929 . S
N542 C540 1.375 . S
N542 C541 1.347 . S
C543 C546 1.365 . S
C543 N548 1.328 . S
C543 H549 0.929 . S
C544 C545 1.362 . S
C544 C547 1.378 . S
C544 H559 0.929 . S
C545 C544 1.362 . S
C545 C546 1.366 . S
C546 C543 1.365 . S
C546 C545 1.366 . S
C546 H560 0.930 . S
C547 C544 1.378 . S
C547 N548 1.315 . S
C547 H550 0.930 . S
N548 Co528 2.194 . S
N548 C543 1.328 . S
N548 C547 1.315 . S
H549 C543 0.929 . S
H550 C547 0.930 . S
H551 C539 0.929 . S
H552 C541 0.929 . S
O553 Co528 2.351 . S
O553 C556 1.244 . S
O554 Co528 2.155 . S
O554 C556 1.240 . S
O555 Co528 2.096 . S
O555 C536 1.247 . S
C556 O553 1.244 . S
C556 O554 1.240 . S
H557 C531 0.931 . S
H558 C540 0.931 . S
H559 C544 0.929 . S
H560 C546 0.930 . S
Co561 N565 2.148 . S
Co561 N571 2.128 . S
Co561 N581 2.194 . S
Co561 O586 2.351 . S
Co561 O587 2.155 . S
Co561 O588 2.096 . S
C562 N565 1.301 . S
C562 N566 1.328 . S
C562 H567 0.930 . S
C563 C564 1.333 . S
C563 N565 1.317 . S
C563 H568 0.930 . S
C564 C563 1.333 . S
C564 N566 1.350 . S
C564 H590 0.931 . S
N565 Co561 2.148 . S
N565 C562 1.301 . S
N565 C563 1.317 . S
N566 C562 1.328 . S
N566 C564 1.350 . S
H567 C562 0.930 . S
H568 C563 0.930 . S
C569 O570 1.224 . S
C569 O588 1.247 . S
O570 C569 1.224 . S
N571 Co561 2.128 . S
N571 C572 1.355 . S
N571 C574 1.311 . S
C572 N571 1.355 . S
C572 C573 1.363 . S
C572 H584 0.929 . S
C573 C572 1.363 . S
C573 N575 1.375 . S
C573 H591 0.931 . S
C574 N571 1.311 . S
C574 N575 1.347 . S
C574 H585 0.929 . S
N575 C573 1.375 . S
N575 C574 1.347 . S
C576 C579 1.365 . S
C576 N581 1.328 . S
C576 H582 0.929 . S
C577 C578 1.362 . S
C577 C580 1.378 . S
C577 H592 0.929 . S
C578 C577 1.362 . S
C578 C579 1.366 . S
C579 C576 1.365 . S
C579 C578 1.366 . S
C579 H593 0.930 . S
C580 C577 1.378 . S
C580 N581 1.315 . S
C580 H583 0.930 . S
N581 Co561 2.194 . S
N581 C576 1.328 . S
N581 C580 1.315 . S
H582 C576 0.929 . S
H583 C580 0.930 . S
H584 C572 0.929 . S
H585 C574 0.929 . S
O586 Co561 2.351 . S
O586 C589 1.244 . S
O587 Co561 2.155 . S
O587 C589 1.240 . S
O588 Co561 2.096 . S
O588 C569 1.247 . S
C589 O586 1.244 . S
C589 O587 1.240 . S
H590 C564 0.931 . S
H591 C573 0.931 . S
H592 C577 0.929 . S
H593 C579 0.930 . S
Co594 N598 2.148 . S
Co594 N604 2.128 . S
Co594 N614 2.194 . S
Co594 O619 2.351 . S
Co594 O620 2.155 . S
Co594 O621 2.096 . S
C595 N598 1.301 . S
C595 N599 1.328 . S
C595 H600 0.930 . S
C596 C597 1.333 . S
C596 N598 1.317 . S
C596 H601 0.930 . S
C597 C596 1.333 . S
C597 N599 1.350 . S
C597 H623 0.931 . S
N598 Co594 2.148 . S
N598 C595 1.301 . S
N598 C596 1.317 . S
N599 C595 1.328 . S
N599 C597 1.350 . S
H600 C595 0.930 . S
H601 C596 0.930 . S
C602 O603 1.224 . S
C602 O621 1.247 . S
O603 C602 1.224 . S
N604 Co594 2.128 . S
N604 C605 1.355 . S
N604 C607 1.311 . S
C605 N604 1.355 . S
C605 C606 1.363 . S
C605 H617 0.929 . S
C606 C605 1.363 . S
C606 N608 1.375 . S
C606 H624 0.931 . S
C607 N604 1.311 . S
C607 N608 1.347 . S
C607 H618 0.929 . S
N608 C606 1.375 . S
N608 C607 1.347 . S
C609 C612 1.365 . S
C609 N614 1.328 . S
C609 H615 0.929 . S
C610 C611 1.362 . S
C610 C613 1.378 . S
C610 H625 0.929 . S
C611 C610 1.362 . S
C611 C612 1.366 . S
C612 C609 1.365 . S
C612 C611 1.366 . S
C612 H626 0.930 . S
C613 C610 1.378 . S
C613 N614 1.315 . S
C613 H616 0.930 . S
N614 Co594 2.194 . S
N614 C609 1.328 . S
N614 C613 1.315 . S
H615 C609 0.929 . S
H616 C613 0.930 . S
H617 C605 0.929 . S
H618 C607 0.929 . S
O619 Co594 2.351 . S
O619 C622 1.244 . S
O620 Co594 2.155 . S
O620 C622 1.240 . S
O621 Co594 2.096 . S
O621 C602 1.247 . S
C622 O619 1.244 . S
C622 O620 1.240 . S
H623 C597 0.931 . S
H624 C606 0.931 . S
H625 C610 0.929 . S
H626 C612 0.930 . S
Co627 N631 2.148 . S
Co627 N637 2.128 . S
Co627 N647 2.194 . S
Co627 O652 2.351 . S
Co627 O653 2.155 . S
Co627 O654 2.096 . S
C628 N631 1.301 . S
C628 N632 1.328 . S
C628 H633 0.930 . S
C629 C630 1.333 . S
C629 N631 1.317 . S
C629 H634 0.930 . S
C630 C629 1.333 . S
C630 N632 1.350 . S
C630 H656 0.931 . S
N631 Co627 2.148 . S
N631 C628 1.301 . S
N631 C629 1.317 . S
N632 C628 1.328 . S
N632 C630 1.350 . S
H633 C628 0.930 . S
H634 C629 0.930 . S
C635 O636 1.224 . S
C635 O654 1.247 . S
O636 C635 1.224 . S
N637 Co627 2.128 . S
N637 C638 1.355 . S
N637 C640 1.311 . S
C638 N637 1.355 . S
C638 C639 1.363 . S
C638 H650 0.929 . S
C639 C638 1.363 . S
C639 N641 1.375 . S
C639 H657 0.931 . S
C640 N637 1.311 . S
C640 N641 1.347 . S
C640 H651 0.929 . S
N641 C639 1.375 . S
N641 C640 1.347 . S
C642 C645 1.365 . S
C642 N647 1.328 . S
C642 H648 0.929 . S
C643 C644 1.362 . S
C643 C646 1.378 . S
C643 H658 0.929 . S
C644 C643 1.362 . S
C644 C645 1.366 . S
C645 C642 1.365 . S
C645 C644 1.366 . S
C645 H659 0.930 . S
C646 C643 1.378 . S
C646 N647 1.315 . S
C646 H649 0.930 . S
N647 Co627 2.194 . S
N647 C642 1.328 . S
N647 C646 1.315 . S
H648 C642 0.929 . S
H649 C646 0.930 . S
H650 C638 0.929 . S
H651 C640 0.929 . S
O652 Co627 2.351 . S
O652 C655 1.244 . S
O653 Co627 2.155 . S
O653 C655 1.240 . S
O654 Co627 2.096 . S
O654 C635 1.247 . S
C655 O652 1.244 . S
C655 O653 1.240 . S
H656 C630 0.931 . S
H657 C639 0.931 . S
H658 C643 0.929 . S
H659 C645 0.930 . S
Co660 N664 2.148 . S
Co660 N670 2.128 . S
Co660 N680 2.194 . S
Co660 O685 2.351 . S
Co660 O686 2.155 . S
Co660 O687 2.096 . S
C661 N664 1.301 . S
C661 N665 1.328 . S
C661 H666 0.930 . S
C662 C663 1.333 . S
C662 N664 1.317 . S
C662 H667 0.930 . S
C663 C662 1.333 . S
C663 N665 1.350 . S
C663 H689 0.931 . S
N664 Co660 2.148 . S
N664 C661 1.301 . S
N664 C662 1.317 . S
N665 C661 1.328 . S
N665 C663 1.350 . S
H666 C661 0.930 . S
H667 C662 0.930 . S
C668 O669 1.224 . S
C668 O687 1.247 . S
O669 C668 1.224 . S
N670 Co660 2.128 . S
N670 C671 1.355 . S
N670 C673 1.311 . S
C671 N670 1.355 . S
C671 C672 1.363 . S
C671 H683 0.929 . S
C672 C671 1.363 . S
C672 N674 1.375 . S
C672 H690 0.931 . S
C673 N670 1.311 . S
C673 N674 1.347 . S
C673 H684 0.929 . S
N674 C672 1.375 . S
N674 C673 1.347 . S
C675 C678 1.365 . S
C675 N680 1.328 . S
C675 H681 0.929 . S
C676 C677 1.362 . S
C676 C679 1.378 . S
C676 H691 0.929 . S
C677 C676 1.362 . S
C677 C678 1.366 . S
C678 C675 1.365 . S
C678 C677 1.366 . S
C678 H692 0.930 . S
C679 C676 1.378 . S
C679 N680 1.315 . S
C679 H682 0.930 . S
N680 Co660 2.194 . S
N680 C675 1.328 . S
N680 C679 1.315 . S
H681 C675 0.929 . S
H682 C679 0.930 . S
H683 C671 0.929 . S
H684 C673 0.929 . S
O685 Co660 2.351 . S
O685 C688 1.244 . S
O686 Co660 2.155 . S
O686 C688 1.240 . S
O687 Co660 2.096 . S
O687 C668 1.247 . S
C688 O685 1.244 . S
C688 O686 1.240 . S
H689 C663 0.931 . S
H690 C672 0.931 . S
H691 C676 0.929 . S
H692 C678 0.930 . S
Co693 N697 2.148 . S
Co693 N703 2.128 . S
Co693 N713 2.194 . S
Co693 O718 2.351 . S
Co693 O719 2.155 . S
Co693 O720 2.096 . S
C694 N697 1.301 . S
C694 N698 1.328 . S
C694 H699 0.930 . S
C695 C696 1.333 . S
C695 N697 1.317 . S
C695 H700 0.930 . S
C696 C695 1.333 . S
C696 N698 1.350 . S
C696 H722 0.931 . S
N697 Co693 2.148 . S
N697 C694 1.301 . S
N697 C695 1.317 . S
N698 C694 1.328 . S
N698 C696 1.350 . S
H699 C694 0.930 . S
H700 C695 0.930 . S
C701 O702 1.224 . S
C701 O720 1.247 . S
O702 C701 1.224 . S
N703 Co693 2.128 . S
N703 C704 1.355 . S
N703 C706 1.311 . S
C704 N703 1.355 . S
C704 C705 1.363 . S
C704 H716 0.929 . S
C705 C704 1.363 . S
C705 N707 1.375 . S
C705 H723 0.931 . S
C706 N703 1.311 . S
C706 N707 1.347 . S
C706 H717 0.929 . S
N707 C705 1.375 . S
N707 C706 1.347 . S
C708 C711 1.365 . S
C708 N713 1.328 . S
C708 H714 0.929 . S
C709 C710 1.362 . S
C709 C712 1.378 . S
C709 H724 0.929 . S
C710 C709 1.362 . S
C710 C711 1.366 . S
C711 C708 1.365 . S
C711 C710 1.366 . S
C711 H725 0.930 . S
C712 C709 1.378 . S
C712 N713 1.315 . S
C712 H715 0.930 . S
N713 Co693 2.194 . S
N713 C708 1.328 . S
N713 C712 1.315 . S
H714 C708 0.929 . S
H715 C712 0.930 . S
H716 C704 0.929 . S
H717 C706 0.929 . S
O718 Co693 2.351 . S
O718 C721 1.244 . S
O719 Co693 2.155 . S
O719 C721 1.240 . S
O720 Co693 2.096 . S
O720 C701 1.247 . S
C721 O718 1.244 . S
C721 O719 1.240 . S
H722 C696 0.931 . S
H723 C705 0.931 . S
H724 C709 0.929 . S
H725 C711 0.930 . S
Co726 N730 2.148 . S
Co726 N736 2.128 . S
Co726 N746 2.194 . S
Co726 O751 2.351 . S
Co726 O752 2.155 . S
Co726 O753 2.096 . S
C727 N730 1.301 . S
C727 N731 1.328 . S
C727 H732 0.930 . S
C728 C729 1.333 . S
C728 N730 1.317 . S
C728 H733 0.930 . S
C729 C728 1.333 . S
C729 N731 1.350 . S
C729 H755 0.931 . S
N730 Co726 2.148 . S
N730 C727 1.301 . S
N730 C728 1.317 . S
N731 C727 1.328 . S
N731 C729 1.350 . S
H732 C727 0.930 . S
H733 C728 0.930 . S
C734 O735 1.224 . S
C734 O753 1.247 . S
O735 C734 1.224 . S
N736 Co726 2.128 . S
N736 C737 1.355 . S
N736 C739 1.311 . S
C737 N736 1.355 . S
C737 C738 1.363 . S
C737 H749 0.929 . S
C738 C737 1.363 . S
C738 N740 1.375 . S
C738 H756 0.931 . S
C739 N736 1.311 . S
C739 N740 1.347 . S
C739 H750 0.929 . S
N740 C738 1.375 . S
N740 C739 1.347 . S
C741 C744 1.365 . S
C741 N746 1.328 . S
C741 H747 0.929 . S
C742 C743 1.362 . S
C742 C745 1.378 . S
C742 H757 0.929 . S
C743 C742 1.362 . S
C743 C744 1.366 . S
C744 C741 1.365 . S
C744 C743 1.366 . S
C744 H758 0.930 . S
C745 C742 1.378 . S
C745 N746 1.315 . S
C745 H748 0.930 . S
N746 Co726 2.194 . S
N746 C741 1.328 . S
N746 C745 1.315 . S
H747 C741 0.929 . S
H748 C745 0.930 . S
H749 C737 0.929 . S
H750 C739 0.929 . S
O751 Co726 2.351 . S
O751 C754 1.244 . S
O752 Co726 2.155 . S
O752 C754 1.240 . S
O753 Co726 2.096 . S
O753 C734 1.247 . S
C754 O751 1.244 . S
C754 O752 1.240 . S
H755 C729 0.931 . S
H756 C738 0.931 . S
H757 C742 0.929 . S
H758 C744 0.930 . S
Co759 N763 2.148 . S
Co759 N769 2.128 . S
Co759 N779 2.194 . S
Co759 O784 2.351 . S
Co759 O785 2.155 . S
Co759 O786 2.096 . S
C760 N763 1.301 . S
C760 N764 1.328 . S
C760 H765 0.930 . S
C761 C762 1.333 . S
C761 N763 1.317 . S
C761 H766 0.930 . S
C762 C761 1.333 . S
C762 N764 1.350 . S
C762 H788 0.931 . S
N763 Co759 2.148 . S
N763 C760 1.301 . S
N763 C761 1.317 . S
N764 C760 1.328 . S
N764 C762 1.350 . S
H765 C760 0.930 . S
H766 C761 0.930 . S
C767 O768 1.224 . S
C767 O786 1.247 . S
O768 C767 1.224 . S
N769 Co759 2.128 . S
N769 C770 1.355 . S
N769 C772 1.311 . S
C770 N769 1.355 . S
C770 C771 1.363 . S
C770 H782 0.929 . S
C771 C770 1.363 . S
C771 N773 1.375 . S
C771 H789 0.931 . S
C772 N769 1.311 . S
C772 N773 1.347 . S
C772 H783 0.929 . S
N773 C771 1.375 . S
N773 C772 1.347 . S
C774 C777 1.365 . S
C774 N779 1.328 . S
C774 H780 0.929 . S
C775 C776 1.362 . S
C775 C778 1.378 . S
C775 H790 0.929 . S
C776 C775 1.362 . S
C776 C777 1.366 . S
C777 C774 1.365 . S
C777 C776 1.366 . S
C777 H791 0.930 . S
C778 C775 1.378 . S
C778 N779 1.315 . S
C778 H781 0.930 . S
N779 Co759 2.194 . S
N779 C774 1.328 . S
N779 C778 1.315 . S
H780 C774 0.929 . S
H781 C778 0.930 . S
H782 C770 0.929 . S
H783 C772 0.929 . S
O784 Co759 2.351 . S
O784 C787 1.244 . S
O785 Co759 2.155 . S
O785 C787 1.240 . S
O786 Co759 2.096 . S
O786 C767 1.247 . S
C787 O784 1.244 . S
C787 O785 1.240 . S
H788 C762 0.931 . S
H789 C771 0.931 . S
H790 C775 0.929 . S
H791 C777 0.930 . S
Co792 N796 2.148 . S
Co792 N802 2.128 . S
Co792 N812 2.194 . S
Co792 O817 2.351 . S
Co792 O818 2.155 . S
Co792 O819 2.096 . S
C793 N796 1.301 . S
C793 N797 1.328 . S
C793 H798 0.930 . S
C794 C795 1.333 . S
C794 N796 1.317 . S
C794 H799 0.930 . S
C795 C794 1.333 . S
C795 N797 1.350 . S
C795 H821 0.931 . S
N796 Co792 2.148 . S
N796 C793 1.301 . S
N796 C794 1.317 . S
N797 C793 1.328 . S
N797 C795 1.350 . S
H798 C793 0.930 . S
H799 C794 0.930 . S
C800 O801 1.224 . S
C800 O819 1.247 . S
O801 C800 1.224 . S
N802 Co792 2.128 . S
N802 C803 1.355 . S
N802 C805 1.311 . S
C803 N802 1.355 . S
C803 C804 1.363 . S
C803 H815 0.929 . S
C804 C803 1.363 . S
C804 N806 1.375 . S
C804 H822 0.931 . S
C805 N802 1.311 . S
C805 N806 1.347 . S
C805 H816 0.929 . S
N806 C804 1.375 . S
N806 C805 1.347 . S
C807 C810 1.365 . S
C807 N812 1.328 . S
C807 H813 0.929 . S
C808 C809 1.362 . S
C808 C811 1.378 . S
C808 H823 0.929 . S
C809 C808 1.362 . S
C809 C810 1.366 . S
C810 C807 1.365 . S
C810 C809 1.366 . S
C810 H824 0.930 . S
C811 C808 1.378 . S
C811 N812 1.315 . S
C811 H814 0.930 . S
N812 Co792 2.194 . S
N812 C807 1.328 . S
N812 C811 1.315 . S
H813 C807 0.929 . S
H814 C811 0.930 . S
H815 C803 0.929 . S
H816 C805 0.929 . S
O817 Co792 2.351 . S
O817 C820 1.244 . S
O818 Co792 2.155 . S
O818 C820 1.240 . S
O819 Co792 2.096 . S
O819 C800 1.247 . S
C820 O817 1.244 . S
C820 O818 1.240 . S
H821 C795 0.931 . S
H822 C804 0.931 . S
H823 C808 0.929 . S
H824 C810 0.930 . S
Co825 N829 2.148 . S
Co825 N835 2.128 . S
Co825 N845 2.194 . S
Co825 O850 2.351 . S
Co825 O851 2.155 . S
Co825 O852 2.096 . S
C826 N829 1.301 . S
C826 N830 1.328 . S
C826 H831 0.930 . S
C827 C828 1.333 . S
C827 N829 1.317 . S
C827 H832 0.930 . S
C828 C827 1.333 . S
C828 N830 1.350 . S
C828 H854 0.931 . S
N829 Co825 2.148 . S
N829 C826 1.301 . S
N829 C827 1.317 . S
N830 C826 1.328 . S
N830 C828 1.350 . S
H831 C826 0.930 . S
H832 C827 0.930 . S
C833 O834 1.224 . S
C833 O852 1.247 . S
O834 C833 1.224 . S
N835 Co825 2.128 . S
N835 C836 1.355 . S
N835 C838 1.311 . S
C836 N835 1.355 . S
C836 C837 1.363 . S
C836 H848 0.929 . S
C837 C836 1.363 . S
C837 N839 1.375 . S
C837 H855 0.931 . S
C838 N835 1.311 . S
C838 N839 1.347 . S
C838 H849 0.929 . S
N839 C837 1.375 . S
N839 C838 1.347 . S
C840 C843 1.365 . S
C840 N845 1.328 . S
C840 H846 0.929 . S
C841 C842 1.362 . S
C841 C844 1.378 . S
C841 H856 0.929 . S
C842 C841 1.362 . S
C842 C843 1.366 . S
C843 C840 1.365 . S
C843 C842 1.366 . S
C843 H857 0.930 . S
C844 C841 1.378 . S
C844 N845 1.315 . S
C844 H847 0.930 . S
N845 Co825 2.194 . S
N845 C840 1.328 . S
N845 C844 1.315 . S
H846 C840 0.929 . S
H847 C844 0.930 . S
H848 C836 0.929 . S
H849 C838 0.929 . S
O850 Co825 2.351 . S
O850 C853 1.244 . S
O851 Co825 2.155 . S
O851 C853 1.240 . S
O852 Co825 2.096 . S
O852 C833 1.247 . S
C853 O850 1.244 . S
C853 O851 1.240 . S
H854 C828 0.931 . S
H855 C837 0.931 . S
H856 C841 0.929 . S
H857 C843 0.930 . S
Co858 N862 2.148 . S
Co858 N868 2.128 . S
Co858 N878 2.194 . S
Co858 O883 2.351 . S
Co858 O884 2.155 . S
Co858 O885 2.096 . S
C859 N862 1.301 . S
C859 N863 1.328 . S
C859 H864 0.930 . S
C860 C861 1.333 . S
C860 N862 1.317 . S
C860 H865 0.930 . S
C861 C860 1.333 . S
C861 N863 1.350 . S
C861 H887 0.931 . S
N862 Co858 2.148 . S
N862 C859 1.301 . S
N862 C860 1.317 . S
N863 C859 1.328 . S
N863 C861 1.350 . S
H864 C859 0.930 . S
H865 C860 0.930 . S
C866 O867 1.224 . S
C866 O885 1.247 . S
O867 C866 1.224 . S
N868 Co858 2.128 . S
N868 C869 1.355 . S
N868 C871 1.311 . S
C869 N868 1.355 . S
C869 C870 1.363 . S
C869 H881 0.929 . S
C870 C869 1.363 . S
C870 N872 1.375 . S
C870 H888 0.931 . S
C871 N868 1.311 . S
C871 N872 1.347 . S
C871 H882 0.929 . S
N872 C870 1.375 . S
N872 C871 1.347 . S
C873 C876 1.365 . S
C873 N878 1.328 . S
C873 H879 0.929 . S
C874 C875 1.362 . S
C874 C877 1.378 . S
C874 H889 0.929 . S
C875 C874 1.362 . S
C875 C876 1.366 . S
C876 C873 1.365 . S
C876 C875 1.366 . S
C876 H890 0.930 . S
C877 C874 1.378 . S
C877 N878 1.315 . S
C877 H880 0.930 . S
N878 Co858 2.194 . S
N878 C873 1.328 . S
N878 C877 1.315 . S
H879 C873 0.929 . S
H880 C877 0.930 . S
H881 C869 0.929 . S
H882 C871 0.929 . S
O883 Co858 2.351 . S
O883 C886 1.244 . S
O884 Co858 2.155 . S
O884 C886 1.240 . S
O885 Co858 2.096 . S
O885 C866 1.247 . S
C886 O883 1.244 . S
C886 O884 1.240 . S
H887 C861 0.931 . S
H888 C870 0.931 . S
H889 C874 0.929 . S
H890 C876 0.930 . S
Co891 N895 2.148 . S
Co891 N901 2.128 . S
Co891 N911 2.194 . S
Co891 O916 2.351 . S
Co891 O917 2.155 . S
Co891 O918 2.096 . S
C892 N895 1.301 . S
C892 N896 1.328 . S
C892 H897 0.930 . S
C893 C894 1.333 . S
C893 N895 1.317 . S
C893 H898 0.930 . S
C894 C893 1.333 . S
C894 N896 1.350 . S
C894 H920 0.931 . S
N895 Co891 2.148 . S
N895 C892 1.301 . S
N895 C893 1.317 . S
N896 C892 1.328 . S
N896 C894 1.350 . S
H897 C892 0.930 . S
H898 C893 0.930 . S
C899 O900 1.224 . S
C899 O918 1.247 . S
O900 C899 1.224 . S
N901 Co891 2.128 . S
N901 C902 1.355 . S
N901 C904 1.311 . S
C902 N901 1.355 . S
C902 C903 1.363 . S
C902 H914 0.929 . S
C903 C902 1.363 . S
C903 N905 1.375 . S
C903 H921 0.931 . S
C904 N901 1.311 . S
C904 N905 1.347 . S
C904 H915 0.929 . S
N905 C903 1.375 . S
N905 C904 1.347 . S
C906 C909 1.365 . S
C906 N911 1.328 . S
C906 H912 0.929 . S
C907 C908 1.362 . S
C907 C910 1.378 . S
C907 H922 0.929 . S
C908 C907 1.362 . S
C908 C909 1.366 . S
C909 C906 1.365 . S
C909 C908 1.366 . S
C909 H923 0.930 . S
C910 C907 1.378 . S
C910 N911 1.315 . S
C910 H913 0.930 . S
N911 Co891 2.194 . S
N911 C906 1.328 . S
N911 C910 1.315 . S
H912 C906 0.929 . S
H913 C910 0.930 . S
H914 C902 0.929 . S
H915 C904 0.929 . S
O916 Co891 2.351 . S
O916 C919 1.244 . S
O917 Co891 2.155 . S
O917 C919 1.240 . S
O918 Co891 2.096 . S
O918 C899 1.247 . S
C919 O916 1.244 . S
C919 O917 1.240 . S
H920 C894 0.931 . S
H921 C903 0.931 . S
H922 C907 0.929 . S
H923 C909 0.930 . S
Co924 N928 2.148 . S
Co924 N934 2.128 . S
Co924 N944 2.194 . S
Co924 O949 2.351 . S
Co924 O950 2.155 . S
Co924 O951 2.096 . S
C925 N928 1.301 . S
C925 N929 1.328 . S
C925 H930 0.930 . S
C926 C927 1.333 . S
C926 N928 1.317 . S
C926 H931 0.930 . S
C927 C926 1.333 . S
C927 N929 1.350 . S
C927 H953 0.931 . S
N928 Co924 2.148 . S
N928 C925 1.301 . S
N928 C926 1.317 . S
N929 C925 1.328 . S
N929 C927 1.350 . S
H930 C925 0.930 . S
H931 C926 0.930 . S
C932 O933 1.224 . S
C932 O951 1.247 . S
O933 C932 1.224 . S
N934 Co924 2.128 . S
N934 C935 1.355 . S
N934 C937 1.311 . S
C935 N934 1.355 . S
C935 C936 1.363 . S
C935 H947 0.929 . S
C936 C935 1.363 . S
C936 N938 1.375 . S
C936 H954 0.931 . S
C937 N934 1.311 . S
C937 N938 1.347 . S
C937 H948 0.929 . S
N938 C936 1.375 . S
N938 C937 1.347 . S
C939 C942 1.365 . S
C939 N944 1.328 . S
C939 H945 0.929 . S
C940 C941 1.362 . S
C940 C943 1.378 . S
C940 H955 0.929 . S
C941 C940 1.362 . S
C941 C942 1.366 . S
C942 C939 1.365 . S
C942 C941 1.366 . S
C942 H956 0.930 . S
C943 C940 1.378 . S
C943 N944 1.315 . S
C943 H946 0.930 . S
N944 Co924 2.194 . S
N944 C939 1.328 . S
N944 C943 1.315 . S
H945 C939 0.929 . S
H946 C943 0.930 . S
H947 C935 0.929 . S
H948 C937 0.929 . S
O949 Co924 2.351 . S
O949 C952 1.244 . S
O950 Co924 2.155 . S
O950 C952 1.240 . S
O951 Co924 2.096 . S
O951 C932 1.247 . S
C952 O949 1.244 . S
C952 O950 1.240 . S
H953 C927 0.931 . S
H954 C936 0.931 . S
H955 C940 0.929 . S
H956 C942 0.930 . S
Co957 N961 2.148 . S
Co957 N967 2.128 . S
Co957 N977 2.194 . S
Co957 O982 2.351 . S
Co957 O983 2.155 . S
Co957 O984 2.096 . S
C958 N961 1.301 . S
C958 N962 1.328 . S
C958 H963 0.930 . S
C959 C960 1.333 . S
C959 N961 1.317 . S
C959 H964 0.930 . S
C960 C959 1.333 . S
C960 N962 1.350 . S
C960 H986 0.931 . S
N961 Co957 2.148 . S
N961 C958 1.301 . S
N961 C959 1.317 . S
N962 C958 1.328 . S
N962 C960 1.350 . S
H963 C958 0.930 . S
H964 C959 0.930 . S
C965 O966 1.224 . S
C965 O984 1.247 . S
O966 C965 1.224 . S
N967 Co957 2.128 . S
N967 C968 1.355 . S
N967 C970 1.311 . S
C968 N967 1.355 . S
C968 C969 1.363 . S
C968 H980 0.929 . S
C969 C968 1.363 . S
C969 N971 1.375 . S
C969 H987 0.931 . S
C970 N967 1.311 . S
C970 N971 1.347 . S
C970 H981 0.929 . S
N971 C969 1.375 . S
N971 C970 1.347 . S
C972 C975 1.365 . S
C972 N977 1.328 . S
C972 H978 0.929 . S
C973 C974 1.362 . S
C973 C976 1.378 . S
C973 H988 0.929 . S
C974 C973 1.362 . S
C974 C975 1.366 . S
C975 C972 1.365 . S
C975 C974 1.366 . S
C975 H989 0.930 . S
C976 C973 1.378 . S
C976 N977 1.315 . S
C976 H979 0.930 . S
N977 Co957 2.194 . S
N977 C972 1.328 . S
N977 C976 1.315 . S
H978 C972 0.929 . S
H979 C976 0.930 . S
H980 C968 0.929 . S
H981 C970 0.929 . S
O982 Co957 2.351 . S
O982 C985 1.244 . S
O983 Co957 2.155 . S
O983 C985 1.240 . S
O984 Co957 2.096 . S
O984 C965 1.247 . S
C985 O982 1.244 . S
C985 O983 1.240 . S
H986 C960 0.931 . S
H987 C969 0.931 . S
H988 C973 0.929 . S
H989 C975 0.930 . S
Co990 N994 2.148 . S
Co990 N1000 2.128 . S
Co990 N1010 2.194 . S
Co990 O1015 2.351 . S
Co990 O1016 2.155 . S
Co990 O1017 2.096 . S
C991 N994 1.301 . S
C991 N995 1.328 . S
C991 H996 0.930 . S
C992 C993 1.333 . S
C992 N994 1.317 . S
C992 H997 0.930 . S
C993 C992 1.333 . S
C993 N995 1.350 . S
C993 H1019 0.931 . S
N994 Co990 2.148 . S
N994 C991 1.301 . S
N994 C992 1.317 . S
N995 C991 1.328 . S
N995 C993 1.350 . S
H996 C991 0.930 . S
H997 C992 0.930 . S
C998 O999 1.224 . S
C998 O1017 1.247 . S
O999 C998 1.224 . S
N1000 Co990 2.128 . S
N1000 C1001 1.355 . S
N1000 C1003 1.311 . S
C1001 N1000 1.355 . S
C1001 C1002 1.363 . S
C1001 H1013 0.929 . S
C1002 C1001 1.363 . S
C1002 N1004 1.375 . S
C1002 H1020 0.931 . S
C1003 N1000 1.311 . S
C1003 N1004 1.347 . S
C1003 H1014 0.929 . S
N1004 C1002 1.375 . S
N1004 C1003 1.347 . S
C1005 C1008 1.365 . S
C1005 N1010 1.328 . S
C1005 H1011 0.929 . S
C1006 C1007 1.362 . S
C1006 C1009 1.378 . S
C1006 H1021 0.929 . S
C1007 C1006 1.362 . S
C1007 C1008 1.366 . S
C1008 C1005 1.365 . S
C1008 C1007 1.366 . S
C1008 H1022 0.930 . S
C1009 C1006 1.378 . S
C1009 N1010 1.315 . S
C1009 H1012 0.930 . S
N1010 Co990 2.194 . S
N1010 C1005 1.328 . S
N1010 C1009 1.315 . S
H1011 C1005 0.929 . S
H1012 C1009 0.930 . S
H1013 C1001 0.929 . S
H1014 C1003 0.929 . S
O1015 Co990 2.351 . S
O1015 C1018 1.244 . S
O1016 Co990 2.155 . S
O1016 C1018 1.240 . S
O1017 Co990 2.096 . S
O1017 C998 1.247 . S
C1018 O1015 1.244 . S
C1018 O1016 1.240 . S
H1019 C993 0.931 . S
H1020 C1002 0.931 . S
H1021 C1006 0.929 . S
H1022 C1008 0.930 . S
Co1023 N1027 2.148 . S
Co1023 N1033 2.128 . S
Co1023 N1043 2.194 . S
Co1023 O1048 2.351 . S
Co1023 O1049 2.155 . S
Co1023 O1050 2.096 . S
C1024 N1027 1.301 . S
C1024 N1028 1.328 . S
C1024 H1029 0.930 . S
C1025 C1026 1.333 . S
C1025 N1027 1.317 . S
C1025 H1030 0.930 . S
C1026 C1025 1.333 . S
C1026 N1028 1.350 . S
C1026 H1052 0.931 . S
N1027 Co1023 2.148 . S
N1027 C1024 1.301 . S
N1027 C1025 1.317 . S
N1028 C1024 1.328 . S
N1028 C1026 1.350 . S
H1029 C1024 0.930 . S
H1030 C1025 0.930 . S
C1031 O1032 1.224 . S
C1031 O1050 1.247 . S
O1032 C1031 1.224 . S
N1033 Co1023 2.128 . S
N1033 C1034 1.355 . S
N1033 C1036 1.311 . S
C1034 N1033 1.355 . S
C1034 C1035 1.363 . S
C1034 H1046 0.929 . S
C1035 C1034 1.363 . S
C1035 N1037 1.375 . S
C1035 H1053 0.931 . S
C1036 N1033 1.311 . S
C1036 N1037 1.347 . S
C1036 H1047 0.929 . S
N1037 C1035 1.375 . S
N1037 C1036 1.347 . S
C1038 C1041 1.365 . S
C1038 N1043 1.328 . S
C1038 H1044 0.929 . S
C1039 C1040 1.362 . S
C1039 C1042 1.378 . S
C1039 H1054 0.929 . S
C1040 C1039 1.362 . S
C1040 C1041 1.366 . S
C1041 C1038 1.365 . S
C1041 C1040 1.366 . S
C1041 H1055 0.930 . S
C1042 C1039 1.378 . S
C1042 N1043 1.315 . S
C1042 H1045 0.930 . S
N1043 Co1023 2.194 . S
N1043 C1038 1.328 . S
N1043 C1042 1.315 . S
H1044 C1038 0.929 . S
H1045 C1042 0.930 . S
H1046 C1034 0.929 . S
H1047 C1036 0.929 . S
O1048 Co1023 2.351 . S
O1048 C1051 1.244 . S
O1049 Co1023 2.155 . S
O1049 C1051 1.240 . S
O1050 Co1023 2.096 . S
O1050 C1031 1.247 . S
C1051 O1048 1.244 . S
C1051 O1049 1.240 . S
H1052 C1026 0.931 . S
H1053 C1035 0.931 . S
H1054 C1039 0.929 . S
H1055 C1041 0.930 . S
Co1056 N1060 2.148 . S
Co1056 N1066 2.128 . S
Co1056 N1076 2.194 . S
Co1056 O1081 2.351 . S
Co1056 O1082 2.155 . S
Co1056 O1083 2.096 . S
C1057 N1060 1.301 . S
C1057 N1061 1.328 . S
C1057 H1062 0.930 . S
C1058 C1059 1.333 . S
C1058 N1060 1.317 . S
C1058 H1063 0.930 . S
C1059 C1058 1.333 . S
C1059 N1061 1.350 . S
C1059 H1085 0.931 . S
N1060 Co1056 2.148 . S
N1060 C1057 1.301 . S
N1060 C1058 1.317 . S
N1061 C1057 1.328 . S
N1061 C1059 1.350 . S
H1062 C1057 0.930 . S
H1063 C1058 0.930 . S
C1064 O1065 1.224 . S
C1064 O1083 1.247 . S
O1065 C1064 1.224 . S
N1066 Co1056 2.128 . S
N1066 C1067 1.355 . S
N1066 C1069 1.311 . S
C1067 N1066 1.355 . S
C1067 C1068 1.363 . S
C1067 H1079 0.929 . S
C1068 C1067 1.363 . S
C1068 N1070 1.375 . S
C1068 H1086 0.931 . S
C1069 N1066 1.311 . S
C1069 N1070 1.347 . S
C1069 H1080 0.929 . S
N1070 C1068 1.375 . S
N1070 C1069 1.347 . S
C1071 C1074 1.365 . S
C1071 N1076 1.328 . S
C1071 H1077 0.929 . S
C1072 C1073 1.362 . S
C1072 C1075 1.378 . S
C1072 H1087 0.929 . S
C1073 C1072 1.362 . S
C1073 C1074 1.366 . S
C1074 C1071 1.365 . S
C1074 C1073 1.366 . S
C1074 H1088 0.930 . S
C1075 C1072 1.378 . S
C1075 N1076 1.315 . S
C1075 H1078 0.930 . S
N1076 Co1056 2.194 . S
N1076 C1071 1.328 . S
N1076 C1075 1.315 . S
H1077 C1071 0.929 . S
H1078 C1075 0.930 . S
H1079 C1067 0.929 . S
H1080 C1069 0.929 . S
O1081 Co1056 2.351 . S
O1081 C1084 1.244 . S
O1082 Co1056 2.155 . S
O1082 C1084 1.240 . S
O1083 Co1056 2.096 . S
O1083 C1064 1.247 . S
C1084 O1081 1.244 . S
C1084 O1082 1.240 . S
H1085 C1059 0.931 . S
H1086 C1068 0.931 . S
H1087 C1072 0.929 . S
H1088 C1074 0.930 . S
Co1089 N1093 2.148 . S
Co1089 N1099 2.128 . S
Co1089 N1109 2.194 . S
Co1089 O1114 2.351 . S
Co1089 O1115 2.155 . S
Co1089 O1116 2.096 . S
C1090 N1093 1.301 . S
C1090 N1094 1.328 . S
C1090 H1095 0.930 . S
C1091 C1092 1.333 . S
C1091 N1093 1.317 . S
C1091 H1096 0.930 . S
C1092 C1091 1.333 . S
C1092 N1094 1.350 . S
C1092 H1118 0.931 . S
N1093 Co1089 2.148 . S
N1093 C1090 1.301 . S
N1093 C1091 1.317 . S
N1094 C1090 1.328 . S
N1094 C1092 1.350 . S
H1095 C1090 0.930 . S
H1096 C1091 0.930 . S
C1097 O1098 1.224 . S
C1097 O1116 1.247 . S
O1098 C1097 1.224 . S
N1099 Co1089 2.128 . S
N1099 C1100 1.355 . S
N1099 C1102 1.311 . S
C1100 N1099 1.355 . S
C1100 C1101 1.363 . S
C1100 H1112 0.929 . S
C1101 C1100 1.363 . S
C1101 N1103 1.375 . S
C1101 H1119 0.931 . S
C1102 N1099 1.311 . S
C1102 N1103 1.347 . S
C1102 H1113 0.929 . S
N1103 C1101 1.375 . S
N1103 C1102 1.347 . S
C1104 C1107 1.365 . S
C1104 N1109 1.328 . S
C1104 H1110 0.929 . S
C1105 C1106 1.362 . S
C1105 C1108 1.378 . S
C1105 H1120 0.929 . S
C1106 C1105 1.362 . S
C1106 C1107 1.366 . S
C1107 C1104 1.365 . S
C1107 C1106 1.366 . S
C1107 H1121 0.930 . S
C1108 C1105 1.378 . S
C1108 N1109 1.315 . S
C1108 H1111 0.930 . S
N1109 Co1089 2.194 . S
N1109 C1104 1.328 . S
N1109 C1108 1.315 . S
H1110 C1104 0.929 . S
H1111 C1108 0.930 . S
H1112 C1100 0.929 . S
H1113 C1102 0.929 . S
O1114 Co1089 2.351 . S
O1114 C1117 1.244 . S
O1115 Co1089 2.155 . S
O1115 C1117 1.240 . S
O1116 Co1089 2.096 . S
O1116 C1097 1.247 . S
C1117 O1114 1.244 . S
C1117 O1115 1.240 . S
H1118 C1092 0.931 . S
H1119 C1101 0.931 . S
H1120 C1105 0.929 . S
H1121 C1107 0.930 . S
Co1122 N1126 2.148 . S
Co1122 N1132 2.128 . S
Co1122 N1142 2.194 . S
Co1122 O1147 2.351 . S
Co1122 O1148 2.155 . S
Co1122 O1149 2.096 . S
C1123 N1126 1.301 . S
C1123 N1127 1.328 . S
C1123 H1128 0.930 . S
C1124 C1125 1.333 . S
C1124 N1126 1.317 . S
C1124 H1129 0.930 . S
C1125 C1124 1.333 . S
C1125 N1127 1.350 . S
C1125 H1151 0.931 . S
N1126 Co1122 2.148 . S
N1126 C1123 1.301 . S
N1126 C1124 1.317 . S
N1127 C1123 1.328 . S
N1127 C1125 1.350 . S
H1128 C1123 0.930 . S
H1129 C1124 0.930 . S
C1130 O1131 1.224 . S
C1130 O1149 1.247 . S
O1131 C1130 1.224 . S
N1132 Co1122 2.128 . S
N1132 C1133 1.355 . S
N1132 C1135 1.311 . S
C1133 N1132 1.355 . S
C1133 C1134 1.363 . S
C1133 H1145 0.929 . S
C1134 C1133 1.363 . S
C1134 N1136 1.375 . S
C1134 H1152 0.931 . S
C1135 N1132 1.311 . S
C1135 N1136 1.347 . S
C1135 H1146 0.929 . S
N1136 C1134 1.375 . S
N1136 C1135 1.347 . S
C1137 C1140 1.365 . S
C1137 N1142 1.328 . S
C1137 H1143 0.929 . S
C1138 C1139 1.362 . S
C1138 C1141 1.378 . S
C1138 H1153 0.929 . S
C1139 C1138 1.362 . S
C1139 C1140 1.366 . S
C1140 C1137 1.365 . S
C1140 C1139 1.366 . S
C1140 H1154 0.930 . S
C1141 C1138 1.378 . S
C1141 N1142 1.315 . S
C1141 H1144 0.930 . S
N1142 Co1122 2.194 . S
N1142 C1137 1.328 . S
N1142 C1141 1.315 . S
H1143 C1137 0.929 . S
H1144 C1141 0.930 . S
H1145 C1133 0.929 . S
H1146 C1135 0.929 . S
O1147 Co1122 2.351 . S
O1147 C1150 1.244 . S
O1148 Co1122 2.155 . S
O1148 C1150 1.240 . S
O1149 Co1122 2.096 . S
O1149 C1130 1.247 . S
C1150 O1147 1.244 . S
C1150 O1148 1.240 . S
H1151 C1125 0.931 . S
H1152 C1134 0.931 . S
H1153 C1138 0.929 . S
H1154 C1140 0.930 . S
Co1155 N1159 2.148 . S
Co1155 N1165 2.128 . S
Co1155 N1175 2.194 . S
Co1155 O1180 2.351 . S
Co1155 O1181 2.155 . S
Co1155 O1182 2.096 . S
C1156 N1159 1.301 . S
C1156 N1160 1.328 . S
C1156 H1161 0.930 . S
C1157 C1158 1.333 . S
C1157 N1159 1.317 . S
C1157 H1162 0.930 . S
C1158 C1157 1.333 . S
C1158 N1160 1.350 . S
C1158 H1184 0.931 . S
N1159 Co1155 2.148 . S
N1159 C1156 1.301 . S
N1159 C1157 1.317 . S
N1160 C1156 1.328 . S
N1160 C1158 1.350 . S
H1161 C1156 0.930 . S
H1162 C1157 0.930 . S
C1163 O1164 1.224 . S
C1163 O1182 1.247 . S
O1164 C1163 1.224 . S
N1165 Co1155 2.128 . S
N1165 C1166 1.355 . S
N1165 C1168 1.311 . S
C1166 N1165 1.355 . S
C1166 C1167 1.363 . S
C1166 H1178 0.929 . S
C1167 C1166 1.363 . S
C1167 N1169 1.375 . S
C1167 H1185 0.931 . S
C1168 N1165 1.311 . S
C1168 N1169 1.347 . S
C1168 H1179 0.929 . S
N1169 C1167 1.375 . S
N1169 C1168 1.347 . S
C1170 C1173 1.365 . S
C1170 N1175 1.328 . S
C1170 H1176 0.929 . S
C1171 C1172 1.362 . S
C1171 C1174 1.378 . S
C1171 H1186 0.929 . S
C1172 C1171 1.362 . S
C1172 C1173 1.366 . S
C1173 C1170 1.365 . S
C1173 C1172 1.366 . S
C1173 H1187 0.930 . S
C1174 C1171 1.378 . S
C1174 N1175 1.315 . S
C1174 H1177 0.930 . S
N1175 Co1155 2.194 . S
N1175 C1170 1.328 . S
N1175 C1174 1.315 . S
H1176 C1170 0.929 . S
H1177 C1174 0.930 . S
H1178 C1166 0.929 . S
H1179 C1168 0.929 . S
O1180 Co1155 2.351 . S
O1180 C1183 1.244 . S
O1181 Co1155 2.155 . S
O1181 C1183 1.240 . S
O1182 Co1155 2.096 . S
O1182 C1163 1.247 . S
C1183 O1180 1.244 . S
C1183 O1181 1.240 . S
H1184 C1158 0.931 . S
H1185 C1167 0.931 . S
H1186 C1171 0.929 . S
H1187 C1173 0.930 . S
H1188 C1196 0.929 . S
H1189 C1198 0.930 . S
H1190 C1200 0.930 . S
H1191 C1203 0.929 . S
H1192 C1206 0.930 . S
H1193 C1208 0.960 . S
H1194 C1208 0.960 . S
H1195 C1208 0.960 . S
C1196 H1188 0.929 . S
C1196 C1197 1.377 . S
C1196 C1198 1.384 . S
C1197 C1196 1.377 . S
C1197 C1203 1.390 . S
C1198 H1189 0.930 . S
C1198 C1196 1.384 . S
C1198 C1199 1.372 . S
C1199 C1198 1.372 . S
C1199 C1200 1.400 . S
C1199 C1204 1.490 . S
C1200 H1190 0.930 . S
C1200 C1199 1.400 . S
C1200 C1203 1.386 . S
H1201 C1217 0.930 . S
H1202 C1218 0.931 . S
C1203 H1191 0.929 . S
C1203 C1197 1.390 . S
C1203 C1200 1.386 . S
C1204 C1199 1.490 . S
C1204 C1206 1.395 . S
C1204 C1207 1.403 . S
H1205 C1211 0.930 . S
C1206 H1192 0.930 . S
C1206 C1204 1.395 . S
C1206 C1209 1.403 . S
C1207 C1204 1.403 . S
C1207 C1208 1.524 . S
C1207 C1211 1.400 . S
C1208 H1193 0.960 . S
C1208 H1194 0.960 . S
C1208 H1195 0.960 . S
C1208 C1207 1.524 . S
C1209 C1206 1.403 . S
C1209 C1210 1.392 . S
C1209 C1213 1.495 . S
C1210 C1209 1.392 . S
C1210 C1211 1.385 . S
C1210 C1212 1.478 . S
C1211 H1205 0.930 . S
C1211 C1207 1.400 . S
C1211 C1210 1.385 . S
C1212 C1210 1.478 . S
C1212 C1214 1.381 . S
C1212 C1218 1.383 . S
C1213 C1209 1.495 . S
C1213 H1219 0.959 . S
C1213 H1220 0.961 . S
C1213 H1221 0.960 . S
C1214 C1212 1.381 . S
C1214 C1215 1.394 . S
C1214 H1222 0.930 . S
C1215 C1214 1.394 . S
C1215 C1216 1.383 . S
C1215 H1223 0.929 . S
C1216 C1215 1.383 . S
C1216 C1217 1.377 . S
C1217 H1201 0.930 . S
C1217 C1216 1.377 . S
C1217 C1218 1.379 . S
C1218 H1202 0.931 . S
C1218 C1212 1.383 . S
C1218 C1217 1.379 . S
H1219 C1213 0.959 . S
H1220 C1213 0.961 . S
H1221 C1213 0.960 . S
H1222 C1214 0.930 . S
H1223 C1215 0.929 . S
H1224 C1232 0.929 . S
H1225 C1234 0.930 . S
H1226 C1236 0.930 . S
H1227 C1239 0.929 . S
H1228 C1242 0.930 . S
H1229 C1244 0.960 . S
H1230 C1244 0.960 . S
H1231 C1244 0.960 . S
C1232 H1224 0.929 . S
C1232 C1233 1.377 . S
C1232 C1234 1.384 . S
C1233 C1232 1.377 . S
C1233 C1239 1.390 . S
C1234 H1225 0.930 . S
C1234 C1232 1.384 . S
C1234 C1235 1.372 . S
C1235 C1234 1.372 . S
C1235 C1236 1.400 . S
C1235 C1240 1.490 . S
C1236 H1226 0.930 . S
C1236 C1235 1.400 . S
C1236 C1239 1.386 . S
H1237 C1253 0.930 . S
H1238 C1254 0.931 . S
C1239 H1227 0.929 . S
C1239 C1233 1.390 . S
C1239 C1236 1.386 . S
C1240 C1235 1.490 . S
C1240 C1242 1.395 . S
C1240 C1243 1.403 . S
H1241 C1247 0.930 . S
C1242 H1228 0.930 . S
C1242 C1240 1.395 . S
C1242 C1245 1.403 . S
C1243 C1240 1.403 . S
C1243 C1244 1.524 . S
C1243 C1247 1.400 . S
C1244 H1229 0.960 . S
C1244 H1230 0.960 . S
C1244 H1231 0.960 . S
C1244 C1243 1.524 . S
C1245 C1242 1.403 . S
C1245 C1246 1.392 . S
C1245 C1249 1.495 . S
C1246 C1245 1.392 . S
C1246 C1247 1.385 . S
C1246 C1248 1.478 . S
C1247 H1241 0.930 . S
C1247 C1243 1.400 . S
C1247 C1246 1.385 . S
C1248 C1246 1.478 . S
C1248 C1250 1.381 . S
C1248 C1254 1.383 . S
C1249 C1245 1.495 . S
C1249 H1255 0.959 . S
C1249 H1256 0.961 . S
C1249 H1257 0.960 . S
C1250 C1248 1.381 . S
C1250 C1251 1.394 . S
C1250 H1258 0.930 . S
C1251 C1250 1.394 . S
C1251 C1252 1.383 . S
C1251 H1259 0.929 . S
C1252 C1251 1.383 . S
C1252 C1253 1.377 . S
C1253 H1237 0.930 . S
C1253 C1252 1.377 . S
C1253 C1254 1.379 . S
C1254 H1238 0.931 . S
C1254 C1248 1.383 . S
C1254 C1253 1.379 . S
H1255 C1249 0.959 . S
H1256 C1249 0.961 . S
H1257 C1249 0.960 . S
H1258 C1250 0.930 . S
H1259 C1251 0.929 . S
H1260 C1268 0.929 . S
H1261 C1270 0.930 . S
H1262 C1272 0.930 . S
H1263 C1275 0.929 . S
H1264 C1278 0.930 . S
H1265 C1280 0.960 . S
H1266 C1280 0.960 . S
H1267 C1280 0.960 . S
C1268 H1260 0.929 . S
C1268 C1269 1.377 . S
C1268 C1270 1.384 . S
C1269 C1268 1.377 . S
C1269 C1275 1.390 . S
C1270 H1261 0.930 . S
C1270 C1268 1.384 . S
C1270 C1271 1.372 . S
C1271 C1270 1.372 . S
C1271 C1272 1.400 . S
C1271 C1276 1.490 . S
C1272 H1262 0.930 . S
C1272 C1271 1.400 . S
C1272 C1275 1.386 . S
H1273 C1289 0.930 . S
H1274 C1290 0.931 . S
C1275 H1263 0.929 . S
C1275 C1269 1.390 . S
C1275 C1272 1.386 . S
C1276 C1271 1.490 . S
C1276 C1278 1.395 . S
C1276 C1279 1.403 . S
H1277 C1283 0.930 . S
C1278 H1264 0.930 . S
C1278 C1276 1.395 . S
C1278 C1281 1.403 . S
C1279 C1276 1.403 . S
C1279 C1280 1.524 . S
C1279 C1283 1.400 . S
C1280 H1265 0.960 . S
C1280 H1266 0.960 . S
C1280 H1267 0.960 . S
C1280 C1279 1.524 . S
C1281 C1278 1.403 . S
C1281 C1282 1.392 . S
C1281 C1285 1.495 . S
C1282 C1281 1.392 . S
C1282 C1283 1.385 . S
C1282 C1284 1.478 . S
C1283 H1277 0.930 . S
C1283 C1279 1.400 . S
C1283 C1282 1.385 . S
C1284 C1282 1.478 . S
C1284 C1286 1.381 . S
C1284 C1290 1.383 . S
C1285 C1281 1.495 . S
C1285 H1291 0.959 . S
C1285 H1292 0.961 . S
C1285 H1293 0.960 . S
C1286 C1284 1.381 . S
C1286 C1287 1.394 . S
C1286 H1294 0.930 . S
C1287 C1286 1.394 . S
C1287 C1288 1.383 . S
C1287 H1295 0.929 . S
C1288 C1287 1.383 . S
C1288 C1289 1.377 . S
C1289 H1273 0.930 . S
C1289 C1288 1.377 . S
C1289 C1290 1.379 . S
C1290 H1274 0.931 . S
C1290 C1284 1.383 . S
C1290 C1289 1.379 . S
H1291 C1285 0.959 . S
H1292 C1285 0.961 . S
H1293 C1285 0.960 . S
H1294 C1286 0.930 . S
H1295 C1287 0.929 . S
H1296 C1304 0.929 . S
H1297 C1306 0.930 . S
H1298 C1308 0.930 . S
H1299 C1311 0.929 . S
H1300 C1314 0.930 . S
H1301 C1316 0.960 . S
H1302 C1316 0.960 . S
H1303 C1316 0.960 . S
C1304 H1296 0.929 . S
C1304 C1305 1.377 . S
C1304 C1306 1.384 . S
C1305 C1304 1.377 . S
C1305 C1311 1.390 . S
C1306 H1297 0.930 . S
C1306 C1304 1.384 . S
C1306 C1307 1.372 . S
C1307 C1306 1.372 . S
C1307 C1308 1.400 . S
C1307 C1312 1.490 . S
C1308 H1298 0.930 . S
C1308 C1307 1.400 . S
C1308 C1311 1.386 . S
H1309 C1325 0.930 . S
H1310 C1326 0.931 . S
C1311 H1299 0.929 . S
C1311 C1305 1.390 . S
C1311 C1308 1.386 . S
C1312 C1307 1.490 . S
C1312 C1314 1.395 . S
C1312 C1315 1.403 . S
H1313 C1319 0.930 . S
C1314 H1300 0.930 . S
C1314 C1312 1.395 . S
C1314 C1317 1.403 . S
C1315 C1312 1.403 . S
C1315 C1316 1.524 . S
C1315 C1319 1.400 . S
C1316 H1301 0.960 . S
C1316 H1302 0.960 . S
C1316 H1303 0.960 . S
C1316 C1315 1.524 . S
C1317 C1314 1.403 . S
C1317 C1318 1.392 . S
C1317 C1321 1.495 . S
C1318 C1317 1.392 . S
C1318 C1319 1.385 . S
C1318 C1320 1.478 . S
C1319 H1313 0.930 . S
C1319 C1315 1.400 . S
C1319 C1318 1.385 . S
C1320 C1318 1.478 . S
C1320 C1322 1.381 . S
C1320 C1326 1.383 . S
C1321 C1317 1.495 . S
C1321 H1327 0.959 . S
C1321 H1328 0.961 . S
C1321 H1329 0.960 . S
C1322 C1320 1.381 . S
C1322 C1323 1.394 . S
C1322 H1330 0.930 . S
C1323 C1322 1.394 . S
C1323 C1324 1.383 . S
C1323 H1331 0.929 . S
C1324 C1323 1.383 . S
C1324 C1325 1.377 . S
C1325 H1309 0.930 . S
C1325 C1324 1.377 . S
C1325 C1326 1.379 . S
C1326 H1310 0.931 . S
C1326 C1320 1.383 . S
C1326 C1325 1.379 . S
H1327 C1321 0.959 . S
H1328 C1321 0.961 . S
H1329 C1321 0.960 . S
H1330 C1322 0.930 . S
H1331 C1323 0.929 . S
H1332 C1340 0.929 . S
H1333 C1342 0.930 . S
H1334 C1344 0.930 . S
H1335 C1347 0.929 . S
H1336 C1350 0.930 . S
H1337 C1352 0.960 . S
H1338 C1352 0.960 . S
H1339 C1352 0.960 . S
C1340 H1332 0.929 . S
C1340 C1341 1.377 . S
C1340 C1342 1.384 . S
C1341 C1340 1.377 . S
C1341 C1347 1.390 . S
C1342 H1333 0.930 . S
C1342 C1340 1.384 . S
C1342 C1343 1.372 . S
C1343 C1342 1.372 . S
C1343 C1344 1.400 . S
C1343 C1348 1.490 . S
C1344 H1334 0.930 . S
C1344 C1343 1.400 . S
C1344 C1347 1.386 . S
H1345 C1361 0.930 . S
H1346 C1362 0.931 . S
C1347 H1335 0.929 . S
C1347 C1341 1.390 . S
C1347 C1344 1.386 . S
C1348 C1343 1.490 . S
C1348 C1350 1.395 . S
C1348 C1351 1.403 . S
H1349 C1355 0.930 . S
C1350 H1336 0.930 . S
C1350 C1348 1.395 . S
C1350 C1353 1.403 . S
C1351 C1348 1.403 . S
C1351 C1352 1.524 . S
C1351 C1355 1.400 . S
C1352 H1337 0.960 . S
C1352 H1338 0.960 . S
C1352 H1339 0.960 . S
C1352 C1351 1.524 . S
C1353 C1350 1.403 . S
C1353 C1354 1.392 . S
C1353 C1357 1.495 . S
C1354 C1353 1.392 . S
C1354 C1355 1.385 . S
C1354 C1356 1.478 . S
C1355 H1349 0.930 . S
C1355 C1351 1.400 . S
C1355 C1354 1.385 . S
C1356 C1354 1.478 . S
C1356 C1358 1.381 . S
C1356 C1362 1.383 . S
C1357 C1353 1.495 . S
C1357 H1363 0.959 . S
C1357 H1364 0.961 . S
C1357 H1365 0.960 . S
C1358 C1356 1.381 . S
C1358 C1359 1.394 . S
C1358 H1366 0.930 . S
C1359 C1358 1.394 . S
C1359 C1360 1.383 . S
C1359 H1367 0.929 . S
C1360 C1359 1.383 . S
C1360 C1361 1.377 . S
C1361 H1345 0.930 . S
C1361 C1360 1.377 . S
C1361 C1362 1.379 . S
C1362 H1346 0.931 . S
C1362 C1356 1.383 . S
C1362 C1361 1.379 . S
H1363 C1357 0.959 . S
H1364 C1357 0.961 . S
H1365 C1357 0.960 . S
H1366 C1358 0.930 . S
H1367 C1359 0.929 . S
H1368 C1376 0.929 . S
H1369 C1378 0.930 . S
H1370 C1380 0.930 . S
H1371 C1383 0.929 . S
H1372 C1386 0.930 . S
H1373 C1388 0.960 . S
H1374 C1388 0.960 . S
H1375 C1388 0.960 . S
C1376 H1368 0.929 . S
C1376 C1377 1.377 . S
C1376 C1378 1.384 . S
C1377 C1376 1.377 . S
C1377 C1383 1.390 . S
C1378 H1369 0.930 . S
C1378 C1376 1.384 . S
C1378 C1379 1.372 . S
C1379 C1378 1.372 . S
C1379 C1380 1.400 . S
C1379 C1384 1.490 . S
C1380 H1370 0.930 . S
C1380 C1379 1.400 . S
C1380 C1383 1.386 . S
H1381 C1397 0.930 . S
H1382 C1398 0.931 . S
C1383 H1371 0.929 . S
C1383 C1377 1.390 . S
C1383 C1380 1.386 . S
C1384 C1379 1.490 . S
C1384 C1386 1.395 . S
C1384 C1387 1.403 . S
H1385 C1391 0.930 . S
C1386 H1372 0.930 . S
C1386 C1384 1.395 . S
C1386 C1389 1.403 . S
C1387 C1384 1.403 . S
C1387 C1388 1.524 . S
C1387 C1391 1.400 . S
C1388 H1373 0.960 . S
C1388 H1374 0.960 . S
C1388 H1375 0.960 . S
C1388 C1387 1.524 . S
C1389 C1386 1.403 . S
C1389 C1390 1.392 . S
C1389 C1393 1.495 . S
C1390 C1389 1.392 . S
C1390 C1391 1.385 . S
C1390 C1392 1.478 . S
C1391 H1385 0.930 . S
C1391 C1387 1.400 . S
C1391 C1390 1.385 . S
C1392 C1390 1.478 . S
C1392 C1394 1.381 . S
C1392 C1398 1.383 . S
C1393 C1389 1.495 . S
C1393 H1399 0.959 . S
C1393 H1400 0.961 . S
C1393 H1401 0.960 . S
C1394 C1392 1.381 . S
C1394 C1395 1.394 . S
C1394 H1402 0.930 . S
C1395 C1394 1.394 . S
C1395 C1396 1.383 . S
C1395 H1403 0.929 . S
C1396 C1395 1.383 . S
C1396 C1397 1.377 . S
C1397 H1381 0.930 . S
C1397 C1396 1.377 . S
C1397 C1398 1.379 . S
C1398 H1382 0.931 . S
C1398 C1392 1.383 . S
C1398 C1397 1.379 . S
H1399 C1393 0.959 . S
H1400 C1393 0.961 . S
H1401 C1393 0.960 . S
H1402 C1394 0.930 . S
H1403 C1395 0.929 . S
H1404 C1412 0.929 . S
H1405 C1414 0.930 . S
H1406 C1416 0.930 . S
H1407 C1419 0.929 . S
H1408 C1422 0.930 . S
H1409 C1424 0.960 . S
H1410 C1424 0.960 . S
H1411 C1424 0.960 . S
C1412 H1404 0.929 . S
C1412 C1413 1.377 . S
C1412 C1414 1.384 . S
C1413 C1412 1.377 . S
C1413 C1419 1.390 . S
C1414 H1405 0.930 . S
C1414 C1412 1.384 . S
C1414 C1415 1.372 . S
C1415 C1414 1.372 . S
C1415 C1416 1.400 . S
C1415 C1420 1.490 . S
C1416 H1406 0.930 . S
C1416 C1415 1.400 . S
C1416 C1419 1.386 . S
H1417 C1433 0.930 . S
H1418 C1434 0.931 . S
C1419 H1407 0.929 . S
C1419 C1413 1.390 . S
C1419 C1416 1.386 . S
C1420 C1415 1.490 . S
C1420 C1422 1.395 . S
C1420 C1423 1.403 . S
H1421 C1427 0.930 . S
C1422 H1408 0.930 . S
C1422 C1420 1.395 . S
C1422 C1425 1.403 . S
C1423 C1420 1.403 . S
C1423 C1424 1.524 . S
C1423 C1427 1.400 . S
C1424 H1409 0.960 . S
C1424 H1410 0.960 . S
C1424 H1411 0.960 . S
C1424 C1423 1.524 . S
C1425 C1422 1.403 . S
C1425 C1426 1.392 . S
C1425 C1429 1.495 . S
C1426 C1425 1.392 . S
C1426 C1427 1.385 . S
C1426 C1428 1.478 . S
C1427 H1421 0.930 . S
C1427 C1423 1.400 . S
C1427 C1426 1.385 . S
C1428 C1426 1.478 . S
C1428 C1430 1.381 . S
C1428 C1434 1.383 . S
C1429 C1425 1.495 . S
C1429 H1435 0.959 . S
C1429 H1436 0.961 . S
C1429 H1437 0.960 . S
C1430 C1428 1.381 . S
C1430 C1431 1.394 . S
C1430 H1438 0.930 . S
C1431 C1430 1.394 . S
C1431 C1432 1.383 . S
C1431 H1439 0.929 . S
C1432 C1431 1.383 . S
C1432 C1433 1.377 . S
C1433 H1417 0.930 . S
C1433 C1432 1.377 . S
C1433 C1434 1.379 . S
C1434 H1418 0.931 . S
C1434 C1428 1.383 . S
C1434 C1433 1.379 . S
H1435 C1429 0.959 . S
H1436 C1429 0.961 . S
H1437 C1429 0.960 . S
H1438 C1430 0.930 . S
H1439 C1431 0.929 . S
H1440 C1448 0.929 . S
H1441 C1450 0.930 . S
H1442 C1452 0.930 . S
H1443 C1455 0.929 . S
H1444 C1458 0.930 . S
H1445 C1460 0.960 . S
H1446 C1460 0.960 . S
H1447 C1460 0.960 . S
C1448 H1440 0.929 . S
C1448 C1449 1.377 . S
C1448 C1450 1.384 . S
C1449 C1448 1.377 . S
C1449 C1455 1.390 . S
C1450 H1441 0.930 . S
C1450 C1448 1.384 . S
C1450 C1451 1.372 . S
C1451 C1450 1.372 . S
C1451 C1452 1.400 . S
C1451 C1456 1.490 . S
C1452 H1442 0.930 . S
C1452 C1451 1.400 . S
C1452 C1455 1.386 . S
H1453 C1469 0.930 . S
H1454 C1470 0.931 . S
C1455 H1443 0.929 . S
C1455 C1449 1.390 . S
C1455 C1452 1.386 . S
C1456 C1451 1.490 . S
C1456 C1458 1.395 . S
C1456 C1459 1.403 . S
H1457 C1463 0.930 . S
C1458 H1444 0.930 . S
C1458 C1456 1.395 . S
C1458 C1461 1.403 . S
C1459 C1456 1.403 . S
C1459 C1460 1.524 . S
C1459 C1463 1.400 . S
C1460 H1445 0.960 . S
C1460 H1446 0.960 . S
C1460 H1447 0.960 . S
C1460 C1459 1.524 . S
C1461 C1458 1.403 . S
C1461 C1462 1.392 . S
C1461 C1465 1.495 . S
C1462 C1461 1.392 . S
C1462 C1463 1.385 . S
C1462 C1464 1.478 . S
C1463 H1457 0.930 . S
C1463 C1459 1.400 . S
C1463 C1462 1.385 . S
C1464 C1462 1.478 . S
C1464 C1466 1.381 . S
C1464 C1470 1.383 . S
C1465 C1461 1.495 . S
C1465 H1471 0.959 . S
C1465 H1472 0.961 . S
C1465 H1473 0.960 . S
C1466 C1464 1.381 . S
C1466 C1467 1.394 . S
C1466 H1474 0.930 . S
C1467 C1466 1.394 . S
C1467 C1468 1.383 . S
C1467 H1475 0.929 . S
C1468 C1467 1.383 . S
C1468 C1469 1.377 . S
C1469 H1453 0.930 . S
C1469 C1468 1.377 . S
C1469 C1470 1.379 . S
C1470 H1454 0.931 . S
C1470 C1464 1.383 . S
C1470 C1469 1.379 . S
H1471 C1465 0.959 . S
H1472 C1465 0.961 . S
H1473 C1465 0.960 . S
H1474 C1466 0.930 . S
H1475 C1467 0.929 . S
H1476 C1484 0.929 . S
H1477 C1486 0.930 . S
H1478 C1488 0.930 . S
H1479 C1491 0.929 . S
H1480 C1494 0.930 . S
H1481 C1496 0.960 . S
H1482 C1496 0.960 . S
H1483 C1496 0.960 . S
C1484 H1476 0.929 . S
C1484 C1485 1.377 . S
C1484 C1486 1.384 . S
C1485 C1484 1.377 . S
C1485 C1491 1.390 . S
C1486 H1477 0.930 . S
C1486 C1484 1.384 . S
C1486 C1487 1.372 . S
C1487 C1486 1.372 . S
C1487 C1488 1.400 . S
C1487 C1492 1.490 . S
C1488 H1478 0.930 . S
C1488 C1487 1.400 . S
C1488 C1491 1.386 . S
H1489 C1505 0.930 . S
H1490 C1506 0.931 . S
C1491 H1479 0.929 . S
C1491 C1485 1.390 . S
C1491 C1488 1.386 . S
C1492 C1487 1.490 . S
C1492 C1494 1.395 . S
C1492 C1495 1.403 . S
H1493 C1499 0.930 . S
C1494 H1480 0.930 . S
C1494 C1492 1.395 . S
C1494 C1497 1.403 . S
C1495 C1492 1.403 . S
C1495 C1496 1.524 . S
C1495 C1499 1.400 . S
C1496 H1481 0.960 . S
C1496 H1482 0.960 . S
C1496 H1483 0.960 . S
C1496 C1495 1.524 . S
C1497 C1494 1.403 . S
C1497 C1498 1.392 . S
C1497 C1501 1.495 . S
C1498 C1497 1.392 . S
C1498 C1499 1.385 . S
C1498 C1500 1.478 . S
C1499 H1493 0.930 . S
C1499 C1495 1.400 . S
C1499 C1498 1.385 . S
C1500 C1498 1.478 . S
C1500 C1502 1.381 . S
C1500 C1506 1.383 . S
C1501 C1497 1.495 . S
C1501 H1507 0.959 . S
C1501 H1508 0.961 . S
C1501 H1509 0.960 . S
C1502 C1500 1.381 . S
C1502 C1503 1.394 . S
C1502 H1510 0.930 . S
C1503 C1502 1.394 . S
C1503 C1504 1.383 . S
C1503 H1511 0.929 . S
C1504 C1503 1.383 . S
C1504 C1505 1.377 . S
C1505 H1489 0.930 . S
C1505 C1504 1.377 . S
C1505 C1506 1.379 . S
C1506 H1490 0.931 . S
C1506 C1500 1.383 . S
C1506 C1505 1.379 . S
H1507 C1501 0.959 . S
H1508 C1501 0.961 . S
H1509 C1501 0.960 . S
H1510 C1502 0.930 . S
H1511 C1503 0.929 . S
H1512 C1520 0.929 . S
H1513 C1522 0.930 . S
H1514 C1524 0.930 . S
H1515 C1527 0.929 . S
H1516 C1530 0.930 . S
H1517 C1532 0.960 . S
H1518 C1532 0.960 . S
H1519 C1532 0.960 . S
C1520 H1512 0.929 . S
C1520 C1521 1.377 . S
C1520 C1522 1.384 . S
C1521 C1520 1.377 . S
C1521 C1527 1.390 . S
C1522 H1513 0.930 . S
C1522 C1520 1.384 . S
C1522 C1523 1.372 . S
C1523 C1522 1.372 . S
C1523 C1524 1.400 . S
C1523 C1528 1.490 . S
C1524 H1514 0.930 . S
C1524 C1523 1.400 . S
C1524 C1527 1.386 . S
H1525 C1541 0.930 . S
H1526 C1542 0.931 . S
C1527 H1515 0.929 . S
C1527 C1521 1.390 . S
C1527 C1524 1.386 . S
C1528 C1523 1.490 . S
C1528 C1530 1.395 . S
C1528 C1531 1.403 . S
H1529 C1535 0.930 . S
C1530 H1516 0.930 . S
C1530 C1528 1.395 . S
C1530 C1533 1.403 . S
C1531 C1528 1.403 . S
C1531 C1532 1.524 . S
C1531 C1535 1.400 . S
C1532 H1517 0.960 . S
C1532 H1518 0.960 . S
C1532 H1519 0.960 . S
C1532 C1531 1.524 . S
C1533 C1530 1.403 . S
C1533 C1534 1.392 . S
C1533 C1537 1.495 . S
C1534 C1533 1.392 . S
C1534 C1535 1.385 . S
C1534 C1536 1.478 . S
C1535 H1529 0.930 . S
C1535 C1531 1.400 . S
C1535 C1534 1.385 . S
C1536 C1534 1.478 . S
C1536 C1538 1.381 . S
C1536 C1542 1.383 . S
C1537 C1533 1.495 . S
C1537 H1543 0.959 . S
C1537 H1544 0.961 . S
C1537 H1545 0.960 . S
C1538 C1536 1.381 . S
C1538 C1539 1.394 . S
C1538 H1546 0.930 . S
C1539 C1538 1.394 . S
C1539 C1540 1.383 . S
C1539 H1547 0.929 . S
C1540 C1539 1.383 . S
C1540 C1541 1.377 . S
C1541 H1525 0.930 . S
C1541 C1540 1.377 . S
C1541 C1542 1.379 . S
C1542 H1526 0.931 . S
C1542 C1536 1.383 . S
C1542 C1541 1.379 . S
H1543 C1537 0.959 . S
H1544 C1537 0.961 . S
H1545 C1537 0.960 . S
H1546 C1538 0.930 . S
H1547 C1539 0.929 . S
H1548 C1556 0.929 . S
H1549 C1558 0.930 . S
H1550 C1560 0.930 . S
H1551 C1563 0.929 . S
H1552 C1566 0.930 . S
H1553 C1568 0.960 . S
H1554 C1568 0.960 . S
H1555 C1568 0.960 . S
C1556 H1548 0.929 . S
C1556 C1557 1.377 . S
C1556 C1558 1.384 . S
C1557 C1556 1.377 . S
C1557 C1563 1.390 . S
C1558 H1549 0.930 . S
C1558 C1556 1.384 . S
C1558 C1559 1.372 . S
C1559 C1558 1.372 . S
C1559 C1560 1.400 . S
C1559 C1564 1.490 . S
C1560 H1550 0.930 . S
C1560 C1559 1.400 . S
C1560 C1563 1.386 . S
H1561 C1577 0.930 . S
H1562 C1578 0.931 . S
C1563 H1551 0.929 . S
C1563 C1557 1.390 . S
C1563 C1560 1.386 . S
C1564 C1559 1.490 . S
C1564 C1566 1.395 . S
C1564 C1567 1.403 . S
H1565 C1571 0.930 . S
C1566 H1552 0.930 . S
C1566 C1564 1.395 . S
C1566 C1569 1.403 . S
C1567 C1564 1.403 . S
C1567 C1568 1.524 . S
C1567 C1571 1.400 . S
C1568 H1553 0.960 . S
C1568 H1554 0.960 . S
C1568 H1555 0.960 . S
C1568 C1567 1.524 . S
C1569 C1566 1.403 . S
C1569 C1570 1.392 . S
C1569 C1573 1.495 . S
C1570 C1569 1.392 . S
C1570 C1571 1.385 . S
C1570 C1572 1.478 . S
C1571 H1565 0.930 . S
C1571 C1567 1.400 . S
C1571 C1570 1.385 . S
C1572 C1570 1.478 . S
C1572 C1574 1.381 . S
C1572 C1578 1.383 . S
C1573 C1569 1.495 . S
C1573 H1579 0.959 . S
C1573 H1580 0.961 . S
C1573 H1581 0.960 . S
C1574 C1572 1.381 . S
C1574 C1575 1.394 . S
C1574 H1582 0.930 . S
C1575 C1574 1.394 . S
C1575 C1576 1.383 . S
C1575 H1583 0.929 . S
C1576 C1575 1.383 . S
C1576 C1577 1.377 . S
C1577 H1561 0.930 . S
C1577 C1576 1.377 . S
C1577 C1578 1.379 . S
C1578 H1562 0.931 . S
C1578 C1572 1.383 . S
C1578 C1577 1.379 . S
H1579 C1573 0.959 . S
H1580 C1573 0.961 . S
H1581 C1573 0.960 . S
H1582 C1574 0.930 . S
H1583 C1575 0.929 . S
H1584 C1592 0.929 . S
H1585 C1594 0.930 . S
H1586 C1596 0.930 . S
H1587 C1599 0.929 . S
H1588 C1602 0.930 . S
H1589 C1604 0.960 . S
H1590 C1604 0.960 . S
H1591 C1604 0.960 . S
C1592 H1584 0.929 . S
C1592 C1593 1.377 . S
C1592 C1594 1.384 . S
C1593 C1592 1.377 . S
C1593 C1599 1.390 . S
C1594 H1585 0.930 . S
C1594 C1592 1.384 . S
C1594 C1595 1.372 . S
C1595 C1594 1.372 . S
C1595 C1596 1.400 . S
C1595 C1600 1.490 . S
C1596 H1586 0.930 . S
C1596 C1595 1.400 . S
C1596 C1599 1.386 . S
H1597 C1613 0.930 . S
H1598 C1614 0.931 . S
C1599 H1587 0.929 . S
C1599 C1593 1.390 . S
C1599 C1596 1.386 . S
C1600 C1595 1.490 . S
C1600 C1602 1.395 . S
C1600 C1603 1.403 . S
H1601 C1607 0.930 . S
C1602 H1588 0.930 . S
C1602 C1600 1.395 . S
C1602 C1605 1.403 . S
C1603 C1600 1.403 . S
C1603 C1604 1.524 . S
C1603 C1607 1.400 . S
C1604 H1589 0.960 . S
C1604 H1590 0.960 . S
C1604 H1591 0.960 . S
C1604 C1603 1.524 . S
C1605 C1602 1.403 . S
C1605 C1606 1.392 . S
C1605 C1609 1.495 . S
C1606 C1605 1.392 . S
C1606 C1607 1.385 . S
C1606 C1608 1.478 . S
C1607 H1601 0.930 . S
C1607 C1603 1.400 . S
C1607 C1606 1.385 . S
C1608 C1606 1.478 . S
C1608 C1610 1.381 . S
C1608 C1614 1.383 . S
C1609 C1605 1.495 . S
C1609 H1615 0.959 . S
C1609 H1616 0.961 . S
C1609 H1617 0.960 . S
C1610 C1608 1.381 . S
C1610 C1611 1.394 . S
C1610 H1618 0.930 . S
C1611 C1610 1.394 . S
C1611 C1612 1.383 . S
C1611 H1619 0.929 . S
C1612 C1611 1.383 . S
C1612 C1613 1.377 . S
C1613 H1597 0.930 . S
C1613 C1612 1.377 . S
C1613 C1614 1.379 . S
C1614 H1598 0.931 . S
C1614 C1608 1.383 . S
C1614 C1613 1.379 . S
H1615 C1609 0.959 . S
H1616 C1609 0.961 . S
H1617 C1609 0.960 . S
H1618 C1610 0.930 . S
H1619 C1611 0.929 . S
H1620 C1628 0.929 . S
H1621 C1630 0.930 . S
H1622 C1632 0.930 . S
H1623 C1635 0.929 . S
H1624 C1638 0.930 . S
H1625 C1640 0.960 1_455 S
H1626 C1640 0.960 . S
H1627 C1640 0.960 . S
C1628 H1620 0.929 . S
C1628 C1629 1.377 . S
C1628 C1630 1.384 . S
C1629 C1628 1.377 . S
C1629 C1635 1.390 . S
C1630 H1621 0.930 . S
C1630 C1628 1.384 . S
C1630 C1631 1.372 . S
C1631 C1630 1.372 . S
C1631 C1632 1.400 . S
C1631 C1636 1.490 . S
C1632 H1622 0.930 . S
C1632 C1631 1.400 . S
C1632 C1635 1.386 . S
H1633 C1649 0.930 . S
H1634 C1650 0.931 . S
C1635 H1623 0.929 . S
C1635 C1629 1.390 . S
C1635 C1632 1.386 . S
C1636 C1631 1.490 . S
C1636 C1638 1.395 . S
C1636 C1639 1.403 . S
H1637 C1643 0.930 . S
C1638 H1624 0.930 . S
C1638 C1636 1.395 . S
C1638 C1641 1.403 1_655 S
C1639 C1636 1.403 . S
C1639 C1640 1.524 . S
C1639 C1643 1.400 1_655 S
C1640 H1625 0.960 1_655 S
C1640 H1626 0.960 . S
C1640 H1627 0.960 . S
C1640 C1639 1.524 . S
C1641 C1638 1.403 1_455 S
C1641 C1642 1.392 . S
C1641 C1645 1.495 . S
C1642 C1641 1.392 . S
C1642 C1643 1.385 . S
C1642 C1644 1.478 . S
C1643 H1637 0.930 . S
C1643 C1639 1.400 1_455 S
C1643 C1642 1.385 . S
C1644 C1642 1.478 . S
C1644 C1646 1.381 . S
C1644 C1650 1.383 . S
C1645 C1641 1.495 . S
C1645 H1651 0.959 1_455 S
C1645 H1652 0.961 . S
C1645 H1653 0.960 . S
C1646 C1644 1.381 . S
C1646 C1647 1.394 . S
C1646 H1654 0.930 . S
C1647 C1646 1.394 . S
C1647 C1648 1.383 . S
C1647 H1655 0.929 . S
C1648 C1647 1.383 . S
C1648 C1649 1.377 . S
C1649 H1633 0.930 . S
C1649 C1648 1.377 . S
C1649 C1650 1.379 . S
C1650 H1634 0.931 . S
C1650 C1644 1.383 . S
C1650 C1649 1.379 . S
H1651 C1645 0.959 1_655 S
H1652 C1645 0.961 . S
H1653 C1645 0.960 . S
H1654 C1646 0.930 . S
H1655 C1647 0.929 . S
H1656 C1664 0.929 . S
H1657 C1666 0.930 . S
H1658 C1668 0.930 . S
H1659 C1671 0.929 . S
H1660 C1674 0.930 . S
H1661 C1676 0.960 . S
H1662 C1676 0.960 . S
H1663 C1676 0.960 . S
C1664 H1656 0.929 . S
C1664 C1665 1.377 . S
C1664 C1666 1.384 . S
C1665 C1664 1.377 . S
C1665 C1671 1.390 . S
C1666 H1657 0.930 . S
C1666 C1664 1.384 . S
C1666 C1667 1.372 . S
C1667 C1666 1.372 . S
C1667 C1668 1.400 . S
C1667 C1672 1.490 . S
C1668 H1658 0.930 . S
C1668 C1667 1.400 . S
C1668 C1671 1.386 . S
H1669 C1685 0.930 . S
H1670 C1686 0.931 . S
C1671 H1659 0.929 . S
C1671 C1665 1.390 . S
C1671 C1668 1.386 . S
C1672 C1667 1.490 . S
C1672 C1674 1.395 . S
C1672 C1675 1.403 . S
H1673 C1679 0.930 . S
C1674 H1660 0.930 . S
C1674 C1672 1.395 . S
C1674 C1677 1.403 . S
C1675 C1672 1.403 . S
C1675 C1676 1.524 . S
C1675 C1679 1.400 . S
C1676 H1661 0.960 . S
C1676 H1662 0.960 . S
C1676 H1663 0.960 . S
C1676 C1675 1.524 . S
C1677 C1674 1.403 . S
C1677 C1678 1.392 . S
C1677 C1681 1.495 . S
C1678 C1677 1.392 . S
C1678 C1679 1.385 . S
C1678 C1680 1.478 . S
C1679 H1673 0.930 . S
C1679 C1675 1.400 . S
C1679 C1678 1.385 . S
C1680 C1678 1.478 . S
C1680 C1682 1.381 . S
C1680 C1686 1.383 . S
C1681 C1677 1.495 . S
C1681 H1687 0.959 . S
C1681 H1688 0.961 . S
C1681 H1689 0.960 . S
C1682 C1680 1.381 . S
C1682 C1683 1.394 . S
C1682 H1690 0.930 . S
C1683 C1682 1.394 . S
C1683 C1684 1.383 . S
C1683 H1691 0.929 . S
C1684 C1683 1.383 . S
C1684 C1685 1.377 . S
C1685 H1669 0.930 . S
C1685 C1684 1.377 . S
C1685 C1686 1.379 . S
C1686 H1670 0.931 . S
C1686 C1680 1.383 . S
C1686 C1685 1.379 . S
H1687 C1681 0.959 . S
H1688 C1681 0.961 . S
H1689 C1681 0.960 . S
H1690 C1682 0.930 . S
H1691 C1683 0.929 . S
H1692 C1700 0.929 . S
H1693 C1702 0.930 . S
H1694 C1704 0.930 . S
H1695 C1707 0.929 . S
H1696 C1710 0.936 . S
H1697 C1712 0.960 . S
H1698 C1712 0.960 . S
H1699 C1712 0.960 . S
C1700 H1692 0.929 . S
C1700 C1701 1.377 . S
C1700 C1702 1.384 . S
C1701 C1700 1.377 . S
C1701 C1707 1.390 . S
C1702 H1693 0.930 . S
C1702 C1700 1.384 . S
C1702 C1703 1.372 . S
C1703 C1702 1.372 . S
C1703 C1704 1.400 . S
C1703 C1708 1.490 . S
C1704 H1694 0.930 . S
C1704 C1703 1.400 . S
C1704 C1707 1.386 . S
H1705 C1721 0.930 . S
H1706 C1722 0.931 . S
C1707 H1695 0.929 . S
C1707 C1701 1.390 . S
C1707 C1704 1.386 . S
C1708 C1703 1.490 . S
C1708 C1710 1.357 1_565 S
C1708 C1711 1.403 . S
H1709 C1715 0.930 . S
C1710 H1696 0.936 . S
C1710 C1708 1.357 1_545 S
C1710 C1713 1.436 . S
C1711 C1708 1.403 . S
C1711 C1712 1.524 . S
C1711 C1715 1.400 1_565 S
C1712 H1697 0.960 . S
C1712 H1698 0.960 . S
C1712 H1699 0.960 . S
C1712 C1711 1.524 . S
C1713 C1710 1.436 . S
C1713 C1714 1.392 . S
C1713 C1717 1.495 . S
C1714 C1713 1.392 . S
C1714 C1715 1.385 . S
C1714 C1716 1.478 . S
C1715 H1709 0.930 . S
C1715 C1711 1.400 1_545 S
C1715 C1714 1.385 . S
C1716 C1714 1.478 . S
C1716 C1718 1.381 . S
C1716 C1722 1.383 . S
C1717 C1713 1.495 . S
C1717 H1723 0.959 . S
C1717 H1724 0.961 . S
C1717 H1725 0.960 . S
C1718 C1716 1.381 . S
C1718 C1719 1.394 . S
C1718 H1726 0.930 . S
C1719 C1718 1.394 . S
C1719 C1720 1.383 . S
C1719 H1727 0.929 . S
C1720 C1719 1.383 . S
C1720 C1721 1.377 . S
C1721 H1705 0.930 . S
C1721 C1720 1.377 . S
C1721 C1722 1.379 . S
C1722 H1706 0.931 . S
C1722 C1716 1.383 . S
C1722 C1721 1.379 . S
H1723 C1717 0.959 . S
H1724 C1717 0.961 . S
H1725 C1717 0.960 . S
H1726 C1718 0.930 . S
H1727 C1719 0.929 . S
H1728 C1736 0.929 . S
H1729 C1738 0.930 . S
H1730 C1740 0.930 1_556 S
H1731 C1743 0.929 . S
H1732 C1746 0.963 . S
H1733 C1748 0.960 . S
H1734 C1748 0.960 . S
H1735 C1748 0.957 1_556 S
C1736 H1728 0.929 . S
C1736 C1737 1.377 . S
C1736 C1738 1.384 . S
C1737 C1736 1.377 . S
C1737 C1743 1.390 . S
C1738 H1729 0.930 . S
C1738 C1736 1.384 . S
C1738 C1739 1.372 . S
C1739 C1738 1.372 . S
C1739 C1740 1.400 . S
C1739 C1744 1.490 . S
C1740 H1730 0.930 1_554 S
C1740 C1739 1.400 . S
C1740 C1743 1.386 . S
H1741 C1757 0.930 . S
H1742 C1758 0.931 . S
C1743 H1731 0.929 . S
C1743 C1737 1.390 . S
C1743 C1740 1.386 . S
C1744 C1739 1.490 . S
C1744 C1746 1.395 1_565 S
C1744 C1747 1.403 . S
H1745 C1751 0.930 . S
C1746 H1732 0.963 . S
C1746 C1744 1.395 1_545 S
C1746 C1749 1.403 1_554 S
C1747 C1744 1.403 . S
C1747 C1748 1.524 . S
C1747 C1751 1.400 1_564 S
C1748 H1733 0.960 . S
C1748 H1734 0.960 . S
C1748 H1735 0.957 1_554 S
C1748 C1747 1.524 . S
C1749 C1746 1.403 1_556 S
C1749 C1750 1.392 . S
C1749 C1753 1.495 . S
C1750 C1749 1.392 . S
C1750 C1751 1.385 . S
C1750 C1752 1.478 . S
C1751 H1745 0.930 . S
C1751 C1747 1.400 1_546 S
C1751 C1750 1.385 . S
C1752 C1750 1.478 . S
C1752 C1754 1.381 . S
C1752 C1758 1.383 . S
C1753 C1749 1.495 . S
C1753 H1759 0.959 1_556 S
C1753 H1760 0.961 . S
C1753 H1761 0.960 1_556 S
C1754 C1752 1.381 . S
C1754 C1755 1.394 . S
C1754 H1762 0.930 1_556 S
C1755 C1754 1.394 . S
C1755 C1756 1.383 . S
C1755 H1763 0.929 . S
C1756 C1755 1.383 . S
C1756 C1757 1.377 . S
C1757 H1741 0.930 . S
C1757 C1756 1.377 . S
C1757 C1758 1.379 . S
C1758 H1742 0.931 . S
C1758 C1752 1.383 . S
C1758 C1757 1.379 . S
H1759 C1753 0.959 1_554 S
H1760 C1753 0.961 . S
H1761 C1753 0.960 1_554 S
H1762 C1754 0.930 1_554 S
H1763 C1755 0.929 . S
H1764 C1772 0.929 . S
H1765 C1774 0.930 1_554 S
H1766 C1776 0.930 . S
H1767 C1779 0.929 . S
H1768 C1782 0.930 . S
H1769 C1784 0.960 . S
H1770 C1784 0.960 . S
H1771 C1784 0.960 . S
C1772 H1764 0.929 . S
C1772 C1773 1.377 . S
C1772 C1774 1.384 . S
C1773 C1772 1.377 . S
C1773 C1779 1.390 . S
C1774 H1765 0.930 1_556 S
C1774 C1772 1.384 . S
C1774 C1775 1.372 . S
C1775 C1774 1.372 . S
C1775 C1776 1.400 . S
C1775 C1780 1.490 . S
C1776 H1766 0.930 . S
C1776 C1775 1.400 . S
C1776 C1779 1.386 . S
H1777 C1793 0.930 . S
H1778 C1794 0.931 1_556 S
C1779 H1767 0.929 . S
C1779 C1773 1.390 . S
C1779 C1776 1.386 . S
C1780 C1775 1.490 . S
C1780 C1782 1.395 . S
C1780 C1783 1.403 . S
H1781 C1787 0.930 . S
C1782 H1768 0.930 . S
C1782 C1780 1.395 . S
C1782 C1785 1.403 1_656 S
C1783 C1780 1.403 . S
C1783 C1784 1.524 . S
C1783 C1787 1.400 1_656 S
C1784 H1769 0.960 . S
C1784 H1770 0.960 . S
C1784 H1771 0.960 . S
C1784 C1783 1.524 . S
C1785 C1782 1.403 1_454 S
C1785 C1786 1.392 . S
C1785 C1789 1.495 . S
C1786 C1785 1.392 . S
C1786 C1787 1.385 . S
C1786 C1788 1.478 . S
C1787 H1781 0.930 . S
C1787 C1783 1.400 1_454 S
C1787 C1786 1.385 . S
C1788 C1786 1.478 . S
C1788 C1790 1.381 . S
C1788 C1794 1.383 . S
C1789 C1785 1.495 . S
C1789 H1795 0.959 . S
C1789 H1796 0.961 . S
C1789 H1797 0.960 . S
C1790 C1788 1.381 . S
C1790 C1791 1.394 . S
C1790 H1798 0.930 . S
C1791 C1790 1.394 . S
C1791 C1792 1.383 . S
C1791 H1799 0.929 . S
C1792 C1791 1.383 . S
C1792 C1793 1.377 . S
C1793 H1777 0.930 . S
C1793 C1792 1.377 . S
C1793 C1794 1.379 . S
C1794 H1778 0.931 1_554 S
C1794 C1788 1.383 . S
C1794 C1793 1.379 . S
H1795 C1789 0.959 . S
H1796 C1789 0.961 . S
H1797 C1789 0.960 . S
H1798 C1790 0.930 . S
H1799 C1791 0.929 . S
H1800 C1808 0.929 . S
H1801 C1810 0.930 . S
H1802 C1812 0.930 . S
H1803 C1815 0.929 . S
H1804 C1818 0.930 . S
H1805 C1820 0.960 . S
H1806 C1820 0.960 . S
H1807 C1820 0.960 . S
C1808 H1800 0.929 . S
C1808 C1809 1.377 . S
C1808 C1810 1.384 . S
C1809 C1808 1.377 . S
C1809 C1815 1.390 . S
C1810 H1801 0.930 . S
C1810 C1808 1.384 . S
C1810 C1811 1.372 . S
C1811 C1810 1.372 . S
C1811 C1812 1.400 . S
C1811 C1816 1.490 . S
C1812 H1802 0.930 . S
C1812 C1811 1.400 . S
C1812 C1815 1.386 . S
H1813 C1829 0.930 . S
H1814 C1830 0.931 . S
C1815 H1803 0.929 . S
C1815 C1809 1.390 . S
C1815 C1812 1.386 . S
C1816 C1811 1.490 . S
C1816 C1818 1.395 1_554 S
C1816 C1819 1.403 . S
H1817 C1823 0.930 . S
C1818 H1804 0.930 . S
C1818 C1816 1.395 1_556 S
C1818 C1821 1.403 . S
C1819 C1816 1.403 . S
C1819 C1820 1.524 . S
C1819 C1823 1.400 . S
C1820 H1805 0.960 . S
C1820 H1806 0.960 . S
C1820 H1807 0.960 . S
C1820 C1819 1.524 . S
C1821 C1818 1.403 . S
C1821 C1822 1.392 . S
C1821 C1825 1.495 . S
C1822 C1821 1.392 . S
C1822 C1823 1.385 1_556 S
C1822 C1824 1.478 . S
C1823 H1817 0.930 . S
C1823 C1819 1.400 . S
C1823 C1822 1.385 1_554 S
C1824 C1822 1.478 . S
C1824 C1826 1.381 . S
C1824 C1830 1.383 . S
C1825 C1821 1.495 . S
C1825 H1831 0.959 . S
C1825 H1832 0.961 . S
C1825 H1833 0.960 . S
C1826 C1824 1.381 . S
C1826 C1827 1.394 . S
C1826 H1834 0.930 . S
C1827 C1826 1.394 . S
C1827 C1828 1.383 . S
C1827 H1835 0.929 . S
C1828 C1827 1.383 . S
C1828 C1829 1.377 . S
C1829 H1813 0.930 . S
C1829 C1828 1.377 . S
C1829 C1830 1.379 . S
C1830 H1814 0.931 . S
C1830 C1824 1.383 . S
C1830 C1829 1.379 . S
H1831 C1825 0.959 . S
H1832 C1825 0.961 . S
H1833 C1825 0.960 . S
H1834 C1826 0.930 . S
H1835 C1827 0.929 . S
H1836 C1844 0.946 . S
H1837 C1846 0.930 1_556 S
H1838 C1848 0.930 . S
H1839 C1851 0.929 . S
H1840 C1854 0.930 . S
H1841 C1856 0.960 . S
H1842 C1856 0.960 . S
H1843 C1856 0.960 . S
C1844 H1836 0.946 . S
C1844 C1845 1.377 . S
C1844 C1846 1.384 . S
C1845 C1844 1.377 . S
C1845 C1851 1.390 . S
C1846 H1837 0.930 1_554 S
C1846 C1844 1.384 . S
C1846 C1847 1.372 . S
C1847 C1846 1.372 . S
C1847 C1848 1.400 . S
C1847 C1852 1.490 . S
C1848 H1838 0.930 . S
C1848 C1847 1.400 . S
C1848 C1851 1.386 . S
H1849 C1865 0.930 . S
H1850 C1866 0.931 . S
C1851 H1839 0.929 . S
C1851 C1845 1.390 . S
C1851 C1848 1.386 . S
C1852 C1847 1.490 . S
C1852 C1854 1.395 1_554 S
C1852 C1855 1.403 . S
H1853 C1859 0.930 . S
C1854 H1840 0.930 . S
C1854 C1852 1.395 1_556 S
C1854 C1857 1.403 . S
C1855 C1852 1.403 . S
C1855 C1856 1.524 . S
C1855 C1859 1.400 . S
C1856 H1841 0.960 . S
C1856 H1842 0.960 . S
C1856 H1843 0.960 . S
C1856 C1855 1.524 . S
C1857 C1854 1.403 . S
C1857 C1858 1.392 . S
C1857 C1861 1.495 . S
C1858 C1857 1.392 . S
C1858 C1859 1.385 1_556 S
C1858 C1860 1.478 . S
C1859 H1853 0.930 . S
C1859 C1855 1.400 . S
C1859 C1858 1.385 1_554 S
C1860 C1858 1.478 . S
C1860 C1862 1.381 . S
C1860 C1866 1.383 1_556 S
C1861 C1857 1.495 . S
C1861 H1867 0.959 . S
C1861 H1868 0.961 . S
C1861 H1869 0.960 . S
C1862 C1860 1.381 . S
C1862 C1863 1.394 1_545 S
C1862 H1870 0.930 . S
C1863 C1862 1.394 1_565 S
C1863 C1864 1.383 . S
C1863 H1871 0.929 . S
C1864 C1863 1.383 . S
C1864 C1865 1.377 1_556 S
C1865 H1849 0.930 . S
C1865 C1864 1.377 1_554 S
C1865 C1866 1.379 1_565 S
C1866 H1850 0.931 . S
C1866 C1860 1.383 1_554 S
C1866 C1865 1.379 1_545 S
H1867 C1861 0.959 . S
H1868 C1861 0.961 . S
H1869 C1861 0.960 . S
H1870 C1862 0.930 . S
H1871 C1863 0.929 . S
H1872 C1880 0.929 . S
H1873 C1882 0.930 . S
H1874 C1884 0.930 1_556 S
H1875 C1887 0.929 1_556 S
H1876 C1890 0.930 . S
H1877 C1892 0.960 . S
H1878 C1892 0.960 . S
H1879 C1892 0.960 . S
C1880 H1872 0.929 . S
C1880 C1881 1.377 . S
C1880 C1882 1.384 . S
C1881 C1880 1.377 . S
C1881 C1887 1.390 . S
C1882 H1873 0.930 . S
C1882 C1880 1.384 . S
C1882 C1883 1.372 . S
C1883 C1882 1.372 . S
C1883 C1884 1.400 . S
C1883 C1888 1.490 . S
C1884 H1874 0.930 1_554 S
C1884 C1883 1.400 . S
C1884 C1887 1.386 . S
H1885 C1901 0.930 . S
H1886 C1902 0.931 . S
C1887 H1875 0.929 1_554 S
C1887 C1881 1.390 . S
C1887 C1884 1.386 . S
C1888 C1883 1.490 . S
C1888 C1890 1.395 . S
C1888 C1891 1.403 . S
H1889 C1895 0.930 . S
C1890 H1876 0.930 . S
C1890 C1888 1.395 . S
C1890 C1893 1.403 . S
C1891 C1888 1.403 . S
C1891 C1892 1.524 . S
C1891 C1895 1.400 . S
C1892 H1877 0.960 . S
C1892 H1878 0.960 . S
C1892 H1879 0.960 . S
C1892 C1891 1.524 . S
C1893 C1890 1.403 . S
C1893 C1894 1.392 . S
C1893 C1897 1.500 . S
C1894 C1893 1.392 . S
C1894 C1895 1.385 . S
C1894 C1896 1.478 1_554 S
C1895 H1889 0.930 . S
C1895 C1891 1.400 . S
C1895 C1894 1.385 . S
C1896 C1894 1.478 1_556 S
C1896 C1898 1.381 1_656 S
C1896 C1902 1.383 . S
C1897 C1893 1.500 . S
C1897 H1903 0.962 . S
C1897 H1904 0.935 1_554 S
C1897 H1905 0.979 . S
C1898 C1896 1.381 1_454 S
C1898 C1899 1.394 . S
C1898 H1906 0.937 1_455 S
C1899 C1898 1.394 . S
C1899 C1900 1.383 1_554 S
C1899 H1907 0.929 . S
C1900 C1899 1.383 1_556 S
C1900 C1901 1.377 . S
C1901 H1885 0.930 . S
C1901 C1900 1.377 . S
C1901 C1902 1.379 1_455 S
C1902 H1886 0.931 . S
C1902 C1896 1.383 . S
C1902 C1901 1.379 1_655 S
H1903 C1897 0.962 . S
H1904 C1897 0.935 1_556 S
H1905 C1897 0.979 . S
H1906 C1898 0.937 1_655 S
H1907 C1899 0.929 . S
H1908 C1916 0.929 1_556 S
H1909 C1918 0.930 . S
H1910 C1920 0.930 . S
H1911 C1923 0.929 . S
H1912 C1926 0.930 . S
H1913 C1928 0.960 . S
H1914 C1928 0.960 . S
H1915 C1928 0.960 . S
C1916 H1908 0.929 1_554 S
C1916 C1917 1.377 . S
C1916 C1918 1.384 1_554 S
C1917 C1916 1.377 . S
C1917 C1923 1.390 . S
C1918 H1909 0.930 . S
C1918 C1916 1.384 1_556 S
C1918 C1919 1.372 1_556 S
C1919 C1918 1.372 1_554 S
C1919 C1920 1.400 . S
C1919 C1924 1.490 . S
C1920 H1910 0.930 . S
C1920 C1919 1.400 . S
C1920 C1923 1.386 . S
H1921 C1937 0.930 . S
H1922 C1938 0.931 . S
C1923 H1911 0.929 . S
C1923 C1917 1.390 . S
C1923 C1920 1.386 . S
C1924 C1919 1.490 . S
C1924 C1926 1.395 1_554 S
C1924 C1927 1.403 . S
H1925 C1931 0.930 . S
C1926 H1912 0.930 . S
C1926 C1924 1.395 1_556 S
C1926 C1929 1.403 . S
C1927 C1924 1.403 . S
C1927 C1928 1.524 . S
C1927 C1931 1.400 . S
C1928 H1913 0.960 . S
C1928 H1914 0.960 . S
C1928 H1915 0.960 . S
C1928 C1927 1.524 . S
C1929 C1926 1.403 . S
C1929 C1930 1.384 1_556 S
C1929 C1933 1.495 . S
C1930 C1929 1.384 1_554 S
C1930 C1931 1.399 . S
C1930 C1932 1.474 1_554 S
C1931 H1925 0.930 . S
C1931 C1927 1.400 . S
C1931 C1930 1.399 . S
C1932 C1930 1.474 1_556 S
C1932 C1934 1.381 . S
C1932 C1938 1.383 1_556 S
C1933 C1929 1.495 . S
C1933 H1939 0.959 . S
C1933 H1940 0.961 . S
C1933 H1941 0.960 . S
C1934 C1932 1.381 . S
C1934 C1935 1.394 . S
C1934 H1942 0.930 . S
C1935 C1934 1.394 . S
C1935 C1936 1.383 . S
C1935 H1943 0.929 . S
C1936 C1935 1.383 . S
C1936 C1937 1.377 1_556 S
C1937 H1921 0.930 . S
C1937 C1936 1.377 1_554 S
C1937 C1938 1.379 . S
C1938 H1922 0.931 . S
C1938 C1932 1.383 1_554 S
C1938 C1937 1.379 . S
H1939 C1933 0.959 . S
H1940 C1933 0.961 . S
H1941 C1933 0.960 . S
H1942 C1934 0.930 . S
H1943 C1935 0.929 . S
H1944 C1952 0.929 . S
H1945 C1954 0.897 1_455 S
H1946 C1956 0.930 . S
H1947 C1959 0.929 . S
H1948 C1962 0.930 . S
H1949 C1964 0.960 . S
H1950 C1964 0.960 . S
H1951 C1964 0.960 . S
C1952 H1944 0.929 . S
C1952 C1953 1.377 . S
C1952 C1954 1.384 . S
C1953 C1952 1.377 . S
C1953 C1959 1.390 . S
C1954 H1945 0.897 1_655 S
C1954 C1952 1.384 . S
C1954 C1955 1.372 1_655 S
C1955 C1954 1.372 1_455 S
C1955 C1956 1.400 . S
C1955 C1960 1.490 . S
C1956 H1946 0.930 . S
C1956 C1955 1.400 . S
C1956 C1959 1.386 1_455 S
H1957 C1973 0.930 . S
H1958 C1974 0.931 . S
C1959 H1947 0.929 . S
C1959 C1953 1.390 . S
C1959 C1956 1.386 1_655 S
C1960 C1955 1.490 . S
C1960 C1962 1.395 . S
C1960 C1963 1.403 . S
H1961 C1967 0.930 . S
C1962 H1948 0.930 . S
C1962 C1960 1.395 . S
C1962 C1965 1.403 . S
C1963 C1960 1.403 . S
C1963 C1964 1.524 . S
C1963 C1967 1.400 . S
C1964 H1949 0.960 . S
C1964 H1950 0.960 . S
C1964 H1951 0.960 . S
C1964 C1963 1.524 . S
C1965 C1962 1.403 . S
C1965 C1966 1.392 . S
C1965 C1969 1.495 . S
C1966 C1965 1.392 . S
C1966 C1967 1.385 . S
C1966 C1968 1.478 . S
C1967 H1961 0.930 . S
C1967 C1963 1.400 . S
C1967 C1966 1.385 . S
C1968 C1966 1.478 . S
C1968 C1970 1.381 . S
C1968 C1974 1.383 . S
C1969 C1965 1.495 . S
C1969 H1975 0.959 . S
C1969 H1976 0.961 . S
C1969 H1977 0.960 . S
C1970 C1968 1.381 . S
C1970 C1971 1.394 . S
C1970 H1978 0.930 . S
C1971 C1970 1.394 . S
C1971 C1972 1.383 . S
C1971 H1979 0.929 . S
C1972 C1971 1.383 . S
C1972 C1973 1.377 . S
C1973 H1957 0.930 . S
C1973 C1972 1.377 . S
C1973 C1974 1.379 . S
C1974 H1958 0.931 . S
C1974 C1968 1.383 . S
C1974 C1973 1.379 . S
H1975 C1969 0.959 . S
H1976 C1969 0.961 . S
H1977 C1969 0.960 . S
H1978 C1970 0.930 . S
H1979 C1971 0.929 . S
H1980 C1988 0.929 . S
H1981 C1990 0.930 . S
H1982 C1992 0.930 . S
H1983 C1995 0.929 . S
H1984 C1998 0.930 . S
H1985 C2000 0.960 . S
H1986 C2000 0.960 . S
H1987 C2000 0.960 . S
C1988 H1980 0.929 . S
C1988 C1989 1.377 . S
C1988 C1990 1.384 . S
C1989 C1988 1.377 . S
C1989 C1995 1.390 . S
C1990 H1981 0.930 . S
C1990 C1988 1.384 . S
C1990 C1991 1.372 . S
C1991 C1990 1.372 . S
C1991 C1992 1.400 . S
C1991 C1996 1.490 . S
C1992 H1982 0.930 . S
C1992 C1991 1.400 . S
C1992 C1995 1.386 . S
H1993 C2009 0.930 . S
H1994 C2010 0.931 . S
C1995 H1983 0.929 . S
C1995 C1989 1.390 . S
C1995 C1992 1.386 . S
C1996 C1991 1.490 . S
C1996 C1998 1.395 . S
C1996 C1999 1.403 . S
H1997 C2003 0.930 . S
C1998 H1984 0.930 . S
C1998 C1996 1.395 . S
C1998 C2001 1.403 . S
C1999 C1996 1.403 . S
C1999 C2000 1.524 . S
C1999 C2003 1.400 . S
C2000 H1985 0.960 . S
C2000 H1986 0.960 . S
C2000 H1987 0.960 . S
C2000 C1999 1.524 . S
C2001 C1998 1.403 . S
C2001 C2002 1.392 . S
C2001 C2005 1.495 . S
C2002 C2001 1.392 . S
C2002 C2003 1.385 . S
C2002 C2004 1.478 . S
C2003 H1997 0.930 . S
C2003 C1999 1.400 . S
C2003 C2002 1.385 . S
C2004 C2002 1.478 . S
C2004 C2006 1.381 . S
C2004 C2010 1.383 . S
C2005 C2001 1.495 . S
C2005 H2011 0.959 . S
C2005 H2012 0.961 . S
C2005 H2013 0.960 . S
C2006 C2004 1.381 . S
C2006 C2007 1.394 . S
C2006 H2014 0.930 . S
C2007 C2006 1.394 . S
C2007 C2008 1.383 . S
C2007 H2015 0.929 . S
C2008 C2007 1.383 . S
C2008 C2009 1.377 . S
C2009 H1993 0.930 . S
C2009 C2008 1.377 . S
C2009 C2010 1.379 . S
C2010 H1994 0.931 . S
C2010 C2004 1.383 . S
C2010 C2009 1.379 . S
H2011 C2005 0.959 . S
H2012 C2005 0.961 . S
H2013 C2005 0.960 . S
H2014 C2006 0.930 . S
H2015 C2007 0.929 . S
H2016 C2024 0.929 . S
H2017 C2026 0.930 . S
H2018 C2028 0.930 . S
H2019 C2031 0.929 . S
H2020 C2034 0.930 . S
H2021 C2036 0.960 . S
H2022 C2036 0.960 . S
H2023 C2036 0.960 . S
C2024 H2016 0.929 . S
C2024 C2025 1.377 . S
C2024 C2026 1.384 . S
C2025 C2024 1.377 . S
C2025 C2031 1.390 . S
C2026 H2017 0.930 . S
C2026 C2024 1.384 . S
C2026 C2027 1.372 . S
C2027 C2026 1.372 . S
C2027 C2028 1.400 . S
C2027 C2032 1.490 . S
C2028 H2018 0.930 . S
C2028 C2027 1.400 . S
C2028 C2031 1.386 . S
H2029 C2045 0.930 . S
H2030 C2046 0.931 . S
C2031 H2019 0.929 . S
C2031 C2025 1.390 . S
C2031 C2028 1.386 . S
C2032 C2027 1.490 . S
C2032 C2034 1.395 . S
C2032 C2035 1.403 . S
H2033 C2039 0.930 . S
C2034 H2020 0.930 . S
C2034 C2032 1.395 . S
C2034 C2037 1.403 . S
C2035 C2032 1.403 . S
C2035 C2036 1.524 . S
C2035 C2039 1.400 . S
C2036 H2021 0.960 . S
C2036 H2022 0.960 . S
C2036 H2023 0.960 . S
C2036 C2035 1.524 . S
C2037 C2034 1.403 . S
C2037 C2038 1.392 . S
C2037 C2041 1.495 . S
C2038 C2037 1.392 . S
C2038 C2039 1.385 . S
C2038 C2040 1.478 . S
C2039 H2033 0.930 . S
C2039 C2035 1.400 . S
C2039 C2038 1.385 . S
C2040 C2038 1.478 . S
C2040 C2042 1.385 . S
C2040 C2046 1.383 . S
C2041 C2037 1.495 . S
C2041 H2047 0.959 . S
C2041 H2048 0.961 . S
C2041 H2049 0.960 . S
C2042 C2040 1.385 . S
C2042 C2043 1.388 1_565 S
C2042 H2050 0.932 . S
C2043 C2042 1.388 1_545 S
C2043 C2044 1.383 . S
C2043 H2051 0.929 . S
C2044 C2043 1.383 . S
C2044 C2045 1.377 . S
C2045 H2029 0.930 . S
C2045 C2044 1.377 . S
C2045 C2046 1.379 1_545 S
C2046 H2030 0.931 . S
C2046 C2040 1.383 . S
C2046 C2045 1.379 1_565 S
H2047 C2041 0.959 . S
H2048 C2041 0.961 . S
H2049 C2041 0.960 . S
H2050 C2042 0.932 . S
H2051 C2043 0.929 . S
H2052 C2060 0.929 . S
H2053 C2062 0.930 . S
H2054 C2064 0.930 . S
H2055 C2067 0.929 . S
H2056 C2070 0.930 . S
H2057 C2072 0.960 . S
H2058 C2072 0.960 . S
H2059 C2072 0.960 . S
C2060 H2052 0.929 . S
C2060 C2061 1.377 . S
C2060 C2062 1.384 . S
C2061 C2060 1.377 . S
C2061 C2067 1.390 . S
C2062 H2053 0.930 . S
C2062 C2060 1.384 . S
C2062 C2063 1.372 . S
C2063 C2062 1.372 . S
C2063 C2064 1.400 . S
C2063 C2068 1.490 . S
C2064 H2054 0.930 . S
C2064 C2063 1.400 . S
C2064 C2067 1.386 . S
H2065 C2081 0.930 . S
H2066 C2082 0.931 . S
C2067 H2055 0.929 . S
C2067 C2061 1.390 . S
C2067 C2064 1.386 . S
C2068 C2063 1.490 . S
C2068 C2070 1.395 1_556 S
C2068 C2071 1.403 . S
H2069 C2075 0.930 . S
C2070 H2056 0.930 . S
C2070 C2068 1.395 1_554 S
C2070 C2073 1.403 . S
C2071 C2068 1.403 . S
C2071 C2072 1.524 . S
C2071 C2075 1.400 . S
C2072 H2057 0.960 . S
C2072 H2058 0.960 . S
C2072 H2059 0.960 . S
C2072 C2071 1.524 . S
C2073 C2070 1.403 . S
C2073 C2074 1.392 1_554 S
C2073 C2077 1.495 . S
C2074 C2073 1.392 1_556 S
C2074 C2075 1.385 . S
C2074 C2076 1.478 1_556 S
C2075 H2069 0.930 . S
C2075 C2071 1.400 . S
C2075 C2074 1.385 . S
C2076 C2074 1.478 1_554 S
C2076 C2078 1.381 1_554 S
C2076 C2082 1.383 . S
C2077 C2073 1.495 . S
C2077 H2083 0.959 . S
C2077 H2084 0.961 . S
C2077 H2085 0.960 . S
C2078 C2076 1.381 1_556 S
C2078 C2079 1.394 1_565 S
C2078 H2086 0.930 . S
C2079 C2078 1.394 1_545 S
C2079 C2080 1.383 1_556 S
C2079 H2087 0.929 . S
C2080 C2079 1.383 1_554 S
C2080 C2081 1.377 . S
C2081 H2065 0.930 . S
C2081 C2080 1.377 . S
C2081 C2082 1.379 1_545 S
C2082 H2066 0.931 . S
C2082 C2076 1.383 . S
C2082 C2081 1.379 1_565 S
H2083 C2077 0.959 . S
H2084 C2077 0.961 . S
H2085 C2077 0.960 . S
H2086 C2078 0.930 . S
H2087 C2079 0.929 . S
H2088 C2096 0.929 . S
H2089 C2098 0.942 . S
H2090 C2100 0.930 . S
H2091 C2103 0.929 . S
H2092 C2106 0.930 . S
H2093 C2108 0.960 . S
H2094 C2108 0.960 . S
H2095 C2108 0.960 . S
C2096 H2088 0.929 . S
C2096 C2097 1.377 . S
C2096 C2098 1.384 . S
C2097 C2096 1.377 . S
C2097 C2103 1.390 . S
C2098 H2089 0.942 . S
C2098 C2096 1.384 . S
C2098 C2099 1.372 . S
C2099 C2098 1.372 . S
C2099 C2100 1.400 . S
C2099 C2104 1.490 . S
C2100 H2090 0.930 . S
C2100 C2099 1.400 . S
C2100 C2103 1.386 . S
H2101 C2117 0.930 1_556 S
H2102 C2118 0.938 1_455 S
C2103 H2091 0.929 . S
C2103 C2097 1.390 . S
C2103 C2100 1.386 . S
C2104 C2099 1.490 . S
C2104 C2106 1.395 1_556 S
C2104 C2107 1.403 . S
H2105 C2111 0.930 . S
C2106 H2092 0.930 . S
C2106 C2104 1.395 1_554 S
C2106 C2109 1.403 . S
C2107 C2104 1.403 . S
C2107 C2108 1.524 . S
C2107 C2111 1.400 . S
C2108 H2093 0.960 . S
C2108 H2094 0.960 . S
C2108 H2095 0.960 . S
C2108 C2107 1.524 . S
C2109 C2106 1.403 . S
C2109 C2110 1.392 . S
C2109 C2113 1.495 . S
C2110 C2109 1.392 . S
C2110 C2111 1.385 1_554 S
C2110 C2112 1.478 . S
C2111 H2105 0.930 . S
C2111 C2107 1.400 . S
C2111 C2110 1.385 1_556 S
C2112 C2110 1.478 . S
C2112 C2114 1.381 . S
C2112 C2118 1.371 1_454 S
C2113 C2109 1.495 . S
C2113 H2119 0.959 . S
C2113 H2120 0.961 . S
C2113 H2121 0.960 . S
C2114 C2112 1.381 . S
C2114 C2115 1.394 1_455 S
C2114 H2122 0.930 . S
C2115 C2114 1.394 1_655 S
C2115 C2116 1.383 . S
C2115 H2123 0.929 . S
C2116 C2115 1.383 . S
C2116 C2117 1.377 . S
C2117 H2101 0.930 1_554 S
C2117 C2116 1.377 . S
C2117 C2118 1.384 1_554 S
C2118 H2102 0.938 1_655 S
C2118 C2112 1.371 1_656 S
C2118 C2117 1.384 1_556 S
H2119 C2113 0.959 . S
H2120 C2113 0.961 . S
H2121 C2113 0.960 . S
H2122 C2114 0.930 . S
H2123 C2115 0.929 . S
H2124 C2132 0.929 . S
H2125 C2134 0.930 . S
H2126 C2136 0.930 . S
H2127 C2139 0.929 . S
H2128 C2142 0.930 . S
H2129 C2144 0.960 . S
H2130 C2144 0.960 . S
H2131 C2144 0.960 . S
C2132 H2124 0.929 . S
C2132 C2133 1.377 1_556 S
C2132 C2134 1.384 . S
C2133 C2132 1.377 1_554 S
C2133 C2139 1.390 . S
C2134 H2125 0.930 . S
C2134 C2132 1.384 . S
C2134 C2135 1.372 1_556 S
C2135 C2134 1.372 1_554 S
C2135 C2136 1.400 . S
C2135 C2140 1.490 1_554 S
C2136 H2126 0.930 . S
C2136 C2135 1.400 . S
C2136 C2139 1.386 . S
H2137 C2153 0.930 1_554 S
H2138 C2154 0.931 1_554 S
C2139 H2127 0.929 . S
C2139 C2133 1.390 . S
C2139 C2136 1.386 . S
C2140 C2135 1.490 1_556 S
C2140 C2142 1.395 . S
C2140 C2143 1.403 1_556 S
H2141 C2147 0.930 . S
C2142 H2128 0.930 . S
C2142 C2140 1.395 . S
C2142 C2145 1.403 . S
C2143 C2140 1.403 1_554 S
C2143 C2144 1.524 . S
C2143 C2147 1.400 . S
C2144 H2129 0.960 . S
C2144 H2130 0.960 . S
C2144 H2131 0.960 . S
C2144 C2143 1.524 . S
C2145 C2142 1.403 . S
C2145 C2146 1.392 . S
C2145 C2149 1.495 . S
C2146 C2145 1.392 . S
C2146 C2147 1.385 1_556 S
C2146 C2148 1.478 . S
C2147 H2141 0.930 . S
C2147 C2143 1.400 . S
C2147 C2146 1.385 1_554 S
C2148 C2146 1.478 . S
C2148 C2150 1.381 . S
C2148 C2154 1.383 . S
C2149 C2145 1.495 . S
C2149 H2155 0.959 . S
C2149 H2156 0.961 . S
C2149 H2157 0.960 . S
C2150 C2148 1.381 . S
C2150 C2151 1.394 . S
C2150 H2158 0.930 . S
C2151 C2150 1.394 . S
C2151 C2152 1.383 . S
C2151 H2159 0.929 . S
C2152 C2151 1.383 . S
C2152 C2153 1.377 . S
C2153 H2137 0.930 1_556 S
C2153 C2152 1.377 . S
C2153 C2154 1.379 . S
C2154 H2138 0.931 1_556 S
C2154 C2148 1.383 . S
C2154 C2153 1.379 . S
H2155 C2149 0.959 . S
H2156 C2149 0.961 . S
H2157 C2149 0.960 . S
H2158 C2150 0.930 . S
H2159 C2151 0.929 . S
H2160 C2168 0.929 . S
H2161 C2170 0.930 . S
H2162 C2172 0.930 . S
H2163 C2175 0.929 . S
H2164 C2178 0.930 . S
H2165 C2180 0.960 . S
H2166 C2180 0.960 . S
H2167 C2180 0.960 . S
C2168 H2160 0.929 . S
C2168 C2169 1.377 . S
C2168 C2170 1.384 . S
C2169 C2168 1.377 . S
C2169 C2175 1.390 . S
C2170 H2161 0.930 . S
C2170 C2168 1.384 . S
C2170 C2171 1.372 . S
C2171 C2170 1.372 . S
C2171 C2172 1.400 . S
C2171 C2176 1.490 . S
C2172 H2162 0.930 . S
C2172 C2171 1.400 . S
C2172 C2175 1.386 . S
H2173 C2189 0.930 . S
H2174 C2190 0.979 . S
C2175 H2163 0.929 . S
C2175 C2169 1.390 . S
C2175 C2172 1.386 . S
C2176 C2171 1.490 . S
C2176 C2178 1.395 . S
C2176 C2179 1.403 . S
H2177 C2183 0.930 . S
C2178 H2164 0.930 . S
C2178 C2176 1.395 . S
C2178 C2181 1.403 . S
C2179 C2176 1.403 . S
C2179 C2180 1.524 . S
C2179 C2183 1.400 . S
C2180 H2165 0.960 . S
C2180 H2166 0.960 . S
C2180 H2167 0.960 . S
C2180 C2179 1.524 . S
C2181 C2178 1.403 . S
C2181 C2182 1.392 . S
C2181 C2185 1.495 . S
C2182 C2181 1.392 . S
C2182 C2183 1.385 . S
C2182 C2184 1.478 . S
C2183 H2177 0.930 . S
C2183 C2179 1.400 . S
C2183 C2182 1.385 . S
C2184 C2182 1.478 . S
C2184 C2186 1.381 . S
C2184 C2190 1.401 . S
C2185 C2181 1.495 . S
C2185 H2191 0.959 . S
C2185 H2192 0.961 . S
C2185 H2193 0.960 . S
C2186 C2184 1.381 . S
C2186 C2187 1.394 1_655 S
C2186 H2194 0.930 . S
C2187 C2186 1.394 1_455 S
C2187 C2188 1.383 . S
C2187 H2195 0.929 . S
C2188 C2187 1.383 . S
C2188 C2189 1.377 . S
C2189 H2173 0.930 . S
C2189 C2188 1.377 . S
C2189 C2190 1.316 1_455 S
C2190 H2174 0.979 . S
C2190 C2184 1.401 . S
C2190 C2189 1.316 1_655 S
H2191 C2185 0.959 . S
H2192 C2185 0.961 . S
H2193 C2185 0.960 . S
H2194 C2186 0.930 . S
H2195 C2187 0.929 . S
H2196 C2204 0.929 . S
H2197 C2206 0.930 . S
H2198 C2208 0.930 . S
H2199 C2211 0.929 . S
H2200 C2214 0.930 . S
H2201 C2216 0.960 . S
H2202 C2216 0.960 . S
H2203 C2216 0.960 . S
C2204 H2196 0.929 . S
C2204 C2205 1.377 . S
C2204 C2206 1.384 . S
C2205 C2204 1.377 . S
C2205 C2211 1.390 . S
C2206 H2197 0.930 . S
C2206 C2204 1.384 . S
C2206 C2207 1.372 . S
C2207 C2206 1.372 . S
C2207 C2208 1.400 . S
C2207 C2212 1.490 . S
C2208 H2198 0.930 . S
C2208 C2207 1.400 . S
C2208 C2211 1.386 . S
H2209 C2225 0.930 . S
H2210 C2226 0.931 . S
C2211 H2199 0.929 . S
C2211 C2205 1.390 . S
C2211 C2208 1.386 . S
C2212 C2207 1.490 . S
C2212 C2214 1.395 . S
C2212 C2215 1.403 . S
H2213 C2219 0.930 . S
C2214 H2200 0.930 . S
C2214 C2212 1.395 . S
C2214 C2217 1.403 . S
C2215 C2212 1.403 . S
C2215 C2216 1.524 . S
C2215 C2219 1.400 . S
C2216 H2201 0.960 . S
C2216 H2202 0.960 . S
C2216 H2203 0.960 . S
C2216 C2215 1.524 . S
C2217 C2214 1.403 . S
C2217 C2218 1.392 . S
C2217 C2221 1.495 . S
C2218 C2217 1.392 . S
C2218 C2219 1.385 . S
C2218 C2220 1.478 . S
C2219 H2213 0.930 . S
C2219 C2215 1.400 . S
C2219 C2218 1.385 . S
C2220 C2218 1.478 . S
C2220 C2222 1.381 . S
C2220 C2226 1.383 . S
C2221 C2217 1.495 . S
C2221 H2227 0.959 . S
C2221 H2228 0.961 . S
C2221 H2229 0.960 . S
C2222 C2220 1.381 . S
C2222 C2223 1.394 . S
C2222 H2230 0.930 . S
C2223 C2222 1.394 . S
C2223 C2224 1.383 . S
C2223 H2231 0.929 . S
C2224 C2223 1.383 . S
C2224 C2225 1.377 . S
C2225 H2209 0.930 . S
C2225 C2224 1.377 . S
C2225 C2226 1.379 . S
C2226 H2210 0.931 . S
C2226 C2220 1.383 . S
C2226 C2225 1.379 . S
H2227 C2221 0.959 . S
H2228 C2221 0.961 . S
H2229 C2221 0.960 . S
H2230 C2222 0.930 . S
H2231 C2223 0.929 . S
H2232 C2240 0.929 . S
H2233 C2242 0.930 . S
H2234 C2244 0.930 . S
H2235 C2247 0.929 . S
H2236 C2250 0.930 . S
H2237 C2252 0.960 . S
H2238 C2252 0.960 . S
H2239 C2252 0.960 . S
C2240 H2232 0.929 . S
C2240 C2241 1.377 . S
C2240 C2242 1.384 . S
C2241 C2240 1.377 . S
C2241 C2247 1.390 . S
C2242 H2233 0.930 . S
C2242 C2240 1.384 . S
C2242 C2243 1.372 . S
C2243 C2242 1.372 . S
C2243 C2244 1.400 . S
C2243 C2248 1.490 . S
C2244 H2234 0.930 . S
C2244 C2243 1.400 . S
C2244 C2247 1.386 . S
H2245 C2261 0.930 . S
H2246 C2262 0.931 . S
C2247 H2235 0.929 . S
C2247 C2241 1.390 . S
C2247 C2244 1.386 . S
C2248 C2243 1.490 . S
C2248 C2250 1.395 . S
C2248 C2251 1.403 . S
H2249 C2255 0.930 . S
C2250 H2236 0.930 . S
C2250 C2248 1.395 . S
C2250 C2253 1.403 . S
C2251 C2248 1.403 . S
C2251 C2252 1.524 . S
C2251 C2255 1.400 . S
C2252 H2237 0.960 . S
C2252 H2238 0.960 . S
C2252 H2239 0.960 . S
C2252 C2251 1.524 . S
C2253 C2250 1.403 . S
C2253 C2254 1.392 . S
C2253 C2257 1.495 . S
C2254 C2253 1.392 . S
C2254 C2255 1.385 . S
C2254 C2256 1.478 . S
C2255 H2249 0.930 . S
C2255 C2251 1.400 . S
C2255 C2254 1.385 . S
C2256 C2254 1.478 . S
C2256 C2258 1.381 . S
C2256 C2262 1.383 . S
C2257 C2253 1.495 . S
C2257 H2263 0.959 . S
C2257 H2264 0.961 . S
C2257 H2265 0.960 . S
C2258 C2256 1.381 . S
C2258 C2259 1.394 1_545 S
C2258 H2266 0.930 . S
C2259 C2258 1.394 1_565 S
C2259 C2260 1.383 . S
C2259 H2267 0.929 . S
C2260 C2259 1.383 . S
C2260 C2261 1.377 . S
C2261 H2245 0.930 . S
C2261 C2260 1.377 . S
C2261 C2262 1.379 1_565 S
C2262 H2246 0.931 . S
C2262 C2256 1.383 . S
C2262 C2261 1.379 1_545 S
H2263 C2257 0.959 . S
H2264 C2257 0.961 . S
H2265 C2257 0.960 . S
H2266 C2258 0.930 . S
H2267 C2259 0.929 . S
H2268 C2276 0.929 . S
H2269 C2278 0.930 . S
H2270 C2280 0.930 . S
H2271 C2283 0.929 . S
H2272 C2286 0.930 . S
H2273 C2288 0.960 . S
H2274 C2288 0.960 . S
H2275 C2288 0.960 . S
C2276 H2268 0.929 . S
C2276 C2277 1.377 . S
C2276 C2278 1.384 . S
C2277 C2276 1.377 . S
C2277 C2283 1.390 . S
C2278 H2269 0.930 . S
C2278 C2276 1.384 . S
C2278 C2279 1.372 . S
C2279 C2278 1.372 . S
C2279 C2280 1.400 . S
C2279 C2284 1.490 . S
C2280 H2270 0.930 . S
C2280 C2279 1.400 . S
C2280 C2283 1.386 . S
H2281 C2297 0.930 . S
H2282 C2298 0.931 . S
C2283 H2271 0.929 . S
C2283 C2277 1.390 . S
C2283 C2280 1.386 . S
C2284 C2279 1.490 . S
C2284 C2286 1.395 . S
C2284 C2287 1.403 . S
H2285 C2291 0.930 . S
C2286 H2272 0.930 . S
C2286 C2284 1.395 . S
C2286 C2289 1.403 . S
C2287 C2284 1.403 . S
C2287 C2288 1.524 . S
C2287 C2291 1.400 . S
C2288 H2273 0.960 . S
C2288 H2274 0.960 . S
C2288 H2275 0.960 . S
C2288 C2287 1.524 . S
C2289 C2286 1.403 . S
C2289 C2290 1.392 . S
C2289 C2293 1.495 . S
C2290 C2289 1.392 . S
C2290 C2291 1.385 . S
C2290 C2292 1.478 . S
C2291 H2285 0.930 . S
C2291 C2287 1.400 . S
C2291 C2290 1.385 . S
C2292 C2290 1.478 . S
C2292 C2294 1.381 . S
C2292 C2298 1.383 . S
C2293 C2289 1.495 . S
C2293 H2299 0.959 . S
C2293 H2300 0.961 . S
C2293 H2301 0.960 . S
C2294 C2292 1.381 . S
C2294 C2295 1.394 . S
C2294 H2302 0.930 . S
C2295 C2294 1.394 . S
C2295 C2296 1.383 . S
C2295 H2303 0.929 . S
C2296 C2295 1.383 . S
C2296 C2297 1.377 . S
C2297 H2281 0.930 . S
C2297 C2296 1.377 . S
C2297 C2298 1.379 . S
C2298 H2282 0.931 . S
C2298 C2292 1.383 . S
C2298 C2297 1.379 . S
H2299 C2293 0.959 . S
H2300 C2293 0.961 . S
H2301 C2293 0.960 . S
H2302 C2294 0.930 . S
H2303 C2295 0.929 . S
H2304 C2312 0.929 . S
H2305 C2314 0.930 . S
H2306 C2316 0.930 . S
H2307 C2319 0.929 . S
H2308 C2322 0.930 . S
H2309 C2324 0.960 . S
H2310 C2324 0.960 . S
H2311 C2324 0.960 . S
C2312 H2304 0.929 . S
C2312 C2313 1.377 . S
C2312 C2314 1.384 . S
C2313 C2312 1.377 . S
C2313 C2319 1.390 . S
C2314 H2305 0.930 . S
C2314 C2312 1.384 . S
C2314 C2315 1.372 . S
C2315 C2314 1.372 . S
C2315 C2316 1.400 . S
C2315 C2320 1.490 . S
C2316 H2306 0.930 . S
C2316 C2315 1.400 . S
C2316 C2319 1.386 . S
H2317 C2333 0.930 . S
H2318 C2334 0.931 . S
C2319 H2307 0.929 . S
C2319 C2313 1.390 . S
C2319 C2316 1.386 . S
C2320 C2315 1.490 . S
C2320 C2322 1.395 . S
C2320 C2323 1.403 . S
H2321 C2327 0.930 . S
C2322 H2308 0.930 . S
C2322 C2320 1.395 . S
C2322 C2325 1.403 . S
C2323 C2320 1.403 . S
C2323 C2324 1.524 . S
C2323 C2327 1.400 . S
C2324 H2309 0.960 . S
C2324 H2310 0.960 . S
C2324 H2311 0.960 . S
C2324 C2323 1.524 . S
C2325 C2322 1.403 . S
C2325 C2326 1.392 . S
C2325 C2329 1.495 . S
C2326 C2325 1.392 . S
C2326 C2327 1.385 . S
C2326 C2328 1.478 . S
C2327 H2321 0.930 . S
C2327 C2323 1.400 . S
C2327 C2326 1.385 . S
C2328 C2326 1.478 . S
C2328 C2330 1.381 . S
C2328 C2334 1.383 . S
C2329 C2325 1.495 . S
C2329 H2335 0.959 . S
C2329 H2336 0.961 . S
C2329 H2337 0.960 . S
C2330 C2328 1.381 . S
C2330 C2331 1.394 . S
C2330 H2338 0.930 . S
C2331 C2330 1.394 . S
C2331 C2332 1.383 . S
C2331 H2339 0.929 . S
C2332 C2331 1.383 . S
C2332 C2333 1.377 . S
C2333 H2317 0.930 . S
C2333 C2332 1.377 . S
C2333 C2334 1.379 . S
C2334 H2318 0.931 . S
C2334 C2328 1.383 . S
C2334 C2333 1.379 . S
H2335 C2329 0.959 . S
H2336 C2329 0.961 . S
H2337 C2329 0.960 . S
H2338 C2330 0.930 . S
H2339 C2331 0.929 . S
H2340 C2348 0.929 . S
H2341 C2350 0.930 . S
H2342 C2352 0.930 . S
H2343 C2355 0.929 . S
H2344 C2358 0.930 . S
H2345 C2360 0.960 . S
H2346 C2360 0.960 . S
H2347 C2360 0.960 . S
C2348 H2340 0.929 . S
C2348 C2349 1.377 . S
C2348 C2350 1.384 . S
C2349 C2348 1.377 . S
C2349 C2355 1.390 . S
C2350 H2341 0.930 . S
C2350 C2348 1.384 . S
C2350 C2351 1.372 . S
C2351 C2350 1.372 . S
C2351 C2352 1.400 . S
C2351 C2356 1.490 . S
C2352 H2342 0.930 . S
C2352 C2351 1.400 . S
C2352 C2355 1.386 . S
H2353 C2369 0.930 . S
H2354 C2370 0.931 . S
C2355 H2343 0.929 . S
C2355 C2349 1.390 . S
C2355 C2352 1.386 . S
C2356 C2351 1.490 . S
C2356 C2358 1.395 . S
C2356 C2359 1.403 . S
H2357 C2363 0.930 . S
C2358 H2344 0.930 . S
C2358 C2356 1.395 . S
C2358 C2361 1.403 . S
C2359 C2356 1.403 . S
C2359 C2360 1.524 . S
C2359 C2363 1.400 . S
C2360 H2345 0.960 . S
C2360 H2346 0.960 . S
C2360 H2347 0.960 . S
C2360 C2359 1.524 . S
C2361 C2358 1.403 . S
C2361 C2362 1.392 . S
C2361 C2365 1.495 . S
C2362 C2361 1.392 . S
C2362 C2363 1.385 . S
C2362 C2364 1.478 . S
C2363 H2357 0.930 . S
C2363 C2359 1.400 . S
C2363 C2362 1.385 . S
C2364 C2362 1.478 . S
C2364 C2366 1.381 . S
C2364 C2370 1.383 . S
C2365 C2361 1.495 . S
C2365 H2371 0.959 . S
C2365 H2372 0.961 . S
C2365 H2373 0.960 . S
C2366 C2364 1.381 . S
C2366 C2367 1.394 . S
C2366 H2374 0.930 . S
C2367 C2366 1.394 . S
C2367 C2368 1.383 . S
C2367 H2375 0.929 . S
C2368 C2367 1.383 . S
C2368 C2369 1.377 . S
C2369 H2353 0.930 . S
C2369 C2368 1.377 . S
C2369 C2370 1.379 . S
C2370 H2354 0.931 . S
C2370 C2364 1.383 . S
C2370 C2369 1.379 . S
H2371 C2365 0.959 . S
H2372 C2365 0.961 . S
H2373 C2365 0.960 . S
H2374 C2366 0.930 . S
H2375 C2367 0.929 . S
H2376 C2384 0.929 . S
H2377 C2386 0.930 . S
H2378 C2388 0.930 . S
H2379 C2391 0.929 . S
H2380 C2394 0.930 . S
H2381 C2396 0.960 . S
H2382 C2396 0.960 . S
H2383 C2396 0.960 . S
C2384 H2376 0.929 . S
C2384 C2385 1.377 . S
C2384 C2386 1.384 . S
C2385 C2384 1.377 . S
C2385 C2391 1.390 . S
C2386 H2377 0.930 . S
C2386 C2384 1.384 . S
C2386 C2387 1.372 . S
C2387 C2386 1.372 . S
C2387 C2388 1.400 . S
C2387 C2392 1.490 . S
C2388 H2378 0.930 . S
C2388 C2387 1.400 . S
C2388 C2391 1.386 . S
H2389 C2405 0.930 . S
H2390 C2406 0.931 . S
C2391 H2379 0.929 . S
C2391 C2385 1.390 . S
C2391 C2388 1.386 . S
C2392 C2387 1.490 . S
C2392 C2394 1.395 . S
C2392 C2395 1.403 . S
H2393 C2399 0.930 . S
C2394 H2380 0.930 . S
C2394 C2392 1.395 . S
C2394 C2397 1.403 . S
C2395 C2392 1.403 . S
C2395 C2396 1.524 . S
C2395 C2399 1.400 . S
C2396 H2381 0.960 . S
C2396 H2382 0.960 . S
C2396 H2383 0.960 . S
C2396 C2395 1.524 . S
C2397 C2394 1.403 . S
C2397 C2398 1.392 . S
C2397 C2401 1.495 . S
C2398 C2397 1.392 . S
C2398 C2399 1.385 . S
C2398 C2400 1.478 . S
C2399 H2393 0.930 . S
C2399 C2395 1.400 . S
C2399 C2398 1.385 . S
C2400 C2398 1.478 . S
C2400 C2402 1.381 . S
C2400 C2406 1.383 . S
C2401 C2397 1.495 . S
C2401 H2407 0.959 . S
C2401 H2408 0.961 . S
C2401 H2409 0.960 . S
C2402 C2400 1.381 . S
C2402 C2403 1.394 . S
C2402 H2410 0.930 . S
C2403 C2402 1.394 . S
C2403 C2404 1.383 . S
C2403 H2411 0.929 . S
C2404 C2403 1.383 . S
C2404 C2405 1.377 . S
C2405 H2389 0.930 . S
C2405 C2404 1.377 . S
C2405 C2406 1.379 . S
C2406 H2390 0.931 . S
C2406 C2400 1.383 . S
C2406 C2405 1.379 . S
H2407 C2401 0.959 . S
H2408 C2401 0.961 . S
H2409 C2401 0.960 . S
H2410 C2402 0.930 . S
H2411 C2403 0.929 . S
H2412 C2420 0.929 . S
H2413 C2422 0.930 . S
H2414 C2424 0.930 . S
H2415 C2427 0.929 . S
H2416 C2430 0.930 . S
H2417 C2432 0.960 . S
H2418 C2432 0.960 . S
H2419 C2432 0.960 . S
C2420 H2412 0.929 . S
C2420 C2421 1.377 . S
C2420 C2422 1.384 . S
C2421 C2420 1.377 . S
C2421 C2427 1.390 . S
C2422 H2413 0.930 . S
C2422 C2420 1.384 . S
C2422 C2423 1.372 . S
C2423 C2422 1.372 . S
C2423 C2424 1.400 . S
C2423 C2428 1.490 . S
C2424 H2414 0.930 . S
C2424 C2423 1.400 . S
C2424 C2427 1.386 . S
H2425 C2441 0.930 . S
H2426 C2442 0.931 . S
C2427 H2415 0.929 . S
C2427 C2421 1.390 . S
C2427 C2424 1.386 . S
C2428 C2423 1.490 . S
C2428 C2430 1.395 . S
C2428 C2431 1.403 . S
H2429 C2435 0.930 . S
C2430 H2416 0.930 . S
C2430 C2428 1.395 . S
C2430 C2433 1.403 . S
C2431 C2428 1.403 . S
C2431 C2432 1.524 . S
C2431 C2435 1.400 . S
C2432 H2417 0.960 . S
C2432 H2418 0.960 . S
C2432 H2419 0.960 . S
C2432 C2431 1.524 . S
C2433 C2430 1.403 . S
C2433 C2434 1.392 . S
C2433 C2437 1.495 . S
C2434 C2433 1.392 . S
C2434 C2435 1.385 . S
C2434 C2436 1.478 . S
C2435 H2429 0.930 . S
C2435 C2431 1.400 . S
C2435 C2434 1.385 . S
C2436 C2434 1.478 . S
C2436 C2438 1.381 . S
C2436 C2442 1.383 . S
C2437 C2433 1.495 . S
C2437 H2443 0.959 . S
C2437 H2444 0.961 . S
C2437 H2445 0.960 . S
C2438 C2436 1.381 . S
C2438 C2439 1.394 . S
C2438 H2446 0.930 . S
C2439 C2438 1.394 . S
C2439 C2440 1.383 . S
C2439 H2447 0.929 . S
C2440 C2439 1.383 . S
C2440 C2441 1.377 . S
C2441 H2425 0.930 . S
C2441 C2440 1.377 . S
C2441 C2442 1.379 . S
C2442 H2426 0.931 . S
C2442 C2436 1.383 . S
C2442 C2441 1.379 . S
H2443 C2437 0.959 . S
H2444 C2437 0.961 . S
H2445 C2437 0.960 . S
H2446 C2438 0.930 . S
H2447 C2439 0.929 . S
H2448 C2456 0.929 . S
H2449 C2458 0.930 . S
H2450 C2460 0.930 . S
H2451 C2463 0.929 . S
H2452 C2466 0.930 . S
H2453 C2468 0.960 . S
H2454 C2468 0.960 . S
H2455 C2468 0.960 . S
C2456 H2448 0.929 . S
C2456 C2457 1.377 . S
C2456 C2458 1.384 . S
C2457 C2456 1.377 . S
C2457 C2463 1.390 . S
C2458 H2449 0.930 . S
C2458 C2456 1.384 . S
C2458 C2459 1.372 . S
C2459 C2458 1.372 . S
C2459 C2460 1.400 . S
C2459 C2464 1.490 . S
C2460 H2450 0.930 . S
C2460 C2459 1.400 . S
C2460 C2463 1.386 . S
H2461 C2477 0.930 . S
H2462 C2478 0.931 . S
C2463 H2451 0.929 . S
C2463 C2457 1.390 . S
C2463 C2460 1.386 . S
C2464 C2459 1.490 . S
C2464 C2466 1.395 . S
C2464 C2467 1.403 . S
H2465 C2471 0.930 . S
C2466 H2452 0.930 . S
C2466 C2464 1.395 . S
C2466 C2469 1.403 . S
C2467 C2464 1.403 . S
C2467 C2468 1.524 . S
C2467 C2471 1.400 . S
C2468 H2453 0.960 . S
C2468 H2454 0.960 . S
C2468 H2455 0.960 . S
C2468 C2467 1.524 . S
C2469 C2466 1.403 . S
C2469 C2470 1.392 . S
C2469 C2473 1.495 . S
C2470 C2469 1.392 . S
C2470 C2471 1.385 . S
C2470 C2472 1.478 . S
C2471 H2465 0.930 . S
C2471 C2467 1.400 . S
C2471 C2470 1.385 . S
C2472 C2470 1.478 . S
C2472 C2474 1.381 . S
C2472 C2478 1.383 . S
C2473 C2469 1.495 . S
C2473 H2479 0.959 . S
C2473 H2480 0.961 . S
C2473 H2481 0.960 . S
C2474 C2472 1.381 . S
C2474 C2475 1.394 . S
C2474 H2482 0.930 . S
C2475 C2474 1.394 . S
C2475 C2476 1.383 . S
C2475 H2483 0.929 . S
C2476 C2475 1.383 . S
C2476 C2477 1.377 . S
C2477 H2461 0.930 . S
C2477 C2476 1.377 . S
C2477 C2478 1.379 . S
C2478 H2462 0.931 . S
C2478 C2472 1.383 . S
C2478 C2477 1.379 . S
H2479 C2473 0.959 . S
H2480 C2473 0.961 . S
H2481 C2473 0.960 . S
H2482 C2474 0.930 . S
H2483 C2475 0.929 . S
H2484 C2492 0.929 . S
H2485 C2494 0.930 . S
H2486 C2496 0.930 . S
H2487 C2499 0.929 . S
H2488 C2502 0.930 . S
H2489 C2504 0.960 . S
H2490 C2504 0.960 . S
H2491 C2504 0.960 . S
C2492 H2484 0.929 . S
C2492 C2493 1.377 . S
C2492 C2494 1.384 . S
C2493 C2492 1.377 . S
C2493 C2499 1.390 . S
C2494 H2485 0.930 . S
C2494 C2492 1.384 . S
C2494 C2495 1.372 . S
C2495 C2494 1.372 . S
C2495 C2496 1.400 . S
C2495 C2500 1.490 . S
C2496 H2486 0.930 . S
C2496 C2495 1.400 . S
C2496 C2499 1.386 . S
H2497 C2513 0.930 . S
H2498 C2514 0.931 . S
C2499 H2487 0.929 . S
C2499 C2493 1.390 . S
C2499 C2496 1.386 . S
C2500 C2495 1.490 . S
C2500 C2502 1.395 . S
C2500 C2503 1.403 . S
H2501 C2507 0.930 . S
C2502 H2488 0.930 . S
C2502 C2500 1.395 . S
C2502 C2505 1.403 . S
C2503 C2500 1.403 . S
C2503 C2504 1.524 . S
C2503 C2507 1.400 . S
C2504 H2489 0.960 . S
C2504 H2490 0.960 . S
C2504 H2491 0.960 . S
C2504 C2503 1.524 . S
C2505 C2502 1.403 . S
C2505 C2506 1.392 . S
C2505 C2509 1.495 . S
C2506 C2505 1.392 . S
C2506 C2507 1.385 . S
C2506 C2508 1.478 . S
C2507 H2501 0.930 . S
C2507 C2503 1.400 . S
C2507 C2506 1.385 . S
C2508 C2506 1.478 . S
C2508 C2510 1.381 . S
C2508 C2514 1.383 . S
C2509 C2505 1.495 . S
C2509 H2515 0.959 . S
C2509 H2516 0.961 . S
C2509 H2517 0.960 . S
C2510 C2508 1.381 . S
C2510 C2511 1.394 . S
C2510 H2518 0.930 . S
C2511 C2510 1.394 . S
C2511 C2512 1.383 . S
C2511 H2519 0.929 . S
C2512 C2511 1.383 . S
C2512 C2513 1.377 . S
C2513 H2497 0.930 . S
C2513 C2512 1.377 . S
C2513 C2514 1.379 . S
C2514 H2498 0.931 . S
C2514 C2508 1.383 . S
C2514 C2513 1.379 . S
H2515 C2509 0.959 . S
H2516 C2509 0.961 . S
H2517 C2509 0.960 . S
H2518 C2510 0.930 . S
H2519 C2511 0.929 . S
H2520 C2528 0.929 . S
H2521 C2530 0.930 . S
H2522 C2532 0.930 . S
H2523 C2535 0.929 . S
H2524 C2538 0.930 . S
H2525 C2540 0.960 . S
H2526 C2540 0.960 . S
H2527 C2540 0.960 . S
C2528 H2520 0.929 . S
C2528 C2529 1.377 . S
C2528 C2530 1.384 . S
C2529 C2528 1.377 . S
C2529 C2535 1.390 . S
C2530 H2521 0.930 . S
C2530 C2528 1.384 . S
C2530 C2531 1.372 . S
C2531 C2530 1.372 . S
C2531 C2532 1.400 . S
C2531 C2536 1.490 . S
C2532 H2522 0.930 . S
C2532 C2531 1.400 . S
C2532 C2535 1.386 . S
H2533 C2549 0.930 . S
H2534 C2550 0.931 . S
C2535 H2523 0.929 . S
C2535 C2529 1.390 . S
C2535 C2532 1.386 . S
C2536 C2531 1.490 . S
C2536 C2538 1.395 . S
C2536 C2539 1.403 . S
H2537 C2543 0.930 . S
C2538 H2524 0.930 . S
C2538 C2536 1.395 . S
C2538 C2541 1.403 . S
C2539 C2536 1.403 . S
C2539 C2540 1.524 . S
C2539 C2543 1.400 . S
C2540 H2525 0.960 . S
C2540 H2526 0.960 . S
C2540 H2527 0.960 . S
C2540 C2539 1.524 . S
C2541 C2538 1.403 . S
C2541 C2542 1.392 . S
C2541 C2545 1.495 . S
C2542 C2541 1.392 . S
C2542 C2543 1.385 . S
C2542 C2544 1.478 . S
C2543 H2537 0.930 . S
C2543 C2539 1.400 . S
C2543 C2542 1.385 . S
C2544 C2542 1.478 . S
C2544 C2546 1.381 . S
C2544 C2550 1.383 . S
C2545 C2541 1.495 . S
C2545 H2551 0.959 . S
C2545 H2552 0.961 . S
C2545 H2553 0.960 . S
C2546 C2544 1.381 . S
C2546 C2547 1.394 . S
C2546 H2554 0.930 . S
C2547 C2546 1.394 . S
C2547 C2548 1.383 . S
C2547 H2555 0.929 . S
C2548 C2547 1.383 . S
C2548 C2549 1.377 . S
C2549 H2533 0.930 . S
C2549 C2548 1.377 . S
C2549 C2550 1.379 . S
C2550 H2534 0.931 . S
C2550 C2544 1.383 . S
C2550 C2549 1.379 . S
H2551 C2545 0.959 . S
H2552 C2545 0.961 . S
H2553 C2545 0.960 . S
H2554 C2546 0.930 . S
H2555 C2547 0.929 . S
H2556 C2564 0.929 . S
H2557 C2566 0.930 . S
H2558 C2568 0.930 . S
H2559 C2571 0.929 . S
H2560 C2574 0.930 . S
H2561 C2576 0.960 . S
H2562 C2576 0.960 . S
H2563 C2576 0.960 . S
C2564 H2556 0.929 . S
C2564 C2565 1.377 . S
C2564 C2566 1.384 . S
C2565 C2564 1.377 . S
C2565 C2571 1.390 . S
C2566 H2557 0.930 . S
C2566 C2564 1.384 . S
C2566 C2567 1.372 . S
C2567 C2566 1.372 . S
C2567 C2568 1.400 . S
C2567 C2572 1.490 . S
C2568 H2558 0.930 . S
C2568 C2567 1.400 . S
C2568 C2571 1.386 . S
H2569 C2585 0.930 . S
H2570 C2586 0.931 . S
C2571 H2559 0.929 . S
C2571 C2565 1.390 . S
C2571 C2568 1.386 . S
C2572 C2567 1.490 . S
C2572 C2574 1.395 . S
C2572 C2575 1.403 . S
H2573 C2579 0.930 . S
C2574 H2560 0.930 . S
C2574 C2572 1.395 . S
C2574 C2577 1.403 . S
C2575 C2572 1.403 . S
C2575 C2576 1.524 . S
C2575 C2579 1.400 . S
C2576 H2561 0.960 . S
C2576 H2562 0.960 . S
C2576 H2563 0.960 . S
C2576 C2575 1.524 . S
C2577 C2574 1.403 . S
C2577 C2578 1.392 . S
C2577 C2581 1.495 . S
C2578 C2577 1.392 . S
C2578 C2579 1.385 . S
C2578 C2580 1.478 . S
C2579 H2573 0.930 . S
C2579 C2575 1.400 . S
C2579 C2578 1.385 . S
C2580 C2578 1.478 . S
C2580 C2582 1.381 . S
C2580 C2586 1.383 . S
C2581 C2577 1.495 . S
C2581 H2587 0.959 . S
C2581 H2588 0.961 . S
C2581 H2589 0.960 . S
C2582 C2580 1.381 . S
C2582 C2583 1.394 . S
C2582 H2590 0.930 . S
C2583 C2582 1.394 . S
C2583 C2584 1.383 . S
C2583 H2591 0.929 . S
C2584 C2583 1.383 . S
C2584 C2585 1.377 . S
C2585 H2569 0.930 . S
C2585 C2584 1.377 . S
C2585 C2586 1.379 . S
C2586 H2570 0.931 . S
C2586 C2580 1.383 . S
C2586 C2585 1.379 . S
H2587 C2581 0.959 . S
H2588 C2581 0.961 . S
H2589 C2581 0.960 . S
H2590 C2582 0.930 . S
H2591 C2583 0.929 . S
H2592 C2600 0.929 . S
H2593 C2602 0.930 . S
H2594 C2604 0.930 . S
H2595 C2607 0.929 . S
H2596 C2610 0.930 . S
H2597 C2612 0.960 . S
H2598 C2612 0.960 . S
H2599 C2612 0.960 . S
C2600 H2592 0.929 . S
C2600 C2601 1.377 . S
C2600 C2602 1.384 . S
C2601 C2600 1.377 . S
C2601 C2607 1.390 . S
C2602 H2593 0.930 . S
C2602 C2600 1.384 . S
C2602 C2603 1.372 . S
C2603 C2602 1.372 . S
C2603 C2604 1.400 . S
C2603 C2608 1.490 . S
C2604 H2594 0.930 . S
C2604 C2603 1.400 . S
C2604 C2607 1.386 . S
H2605 C2621 0.930 . S
H2606 C2622 0.931 . S
C2607 H2595 0.929 . S
C2607 C2601 1.390 . S
C2607 C2604 1.386 . S
C2608 C2603 1.490 . S
C2608 C2610 1.395 . S
C2608 C2611 1.403 . S
H2609 C2615 0.930 . S
C2610 H2596 0.930 . S
C2610 C2608 1.395 . S
C2610 C2613 1.403 . S
C2611 C2608 1.403 . S
C2611 C2612 1.524 . S
C2611 C2615 1.400 . S
C2612 H2597 0.960 . S
C2612 H2598 0.960 . S
C2612 H2599 0.960 . S
C2612 C2611 1.524 . S
C2613 C2610 1.403 . S
C2613 C2614 1.392 . S
C2613 C2617 1.495 . S
C2614 C2613 1.392 . S
C2614 C2615 1.385 . S
C2614 C2616 1.478 . S
C2615 H2609 0.930 . S
C2615 C2611 1.400 . S
C2615 C2614 1.385 . S
C2616 C2614 1.478 . S
C2616 C2618 1.381 . S
C2616 C2622 1.383 . S
C2617 C2613 1.495 . S
C2617 H2623 0.959 . S
C2617 H2624 0.961 . S
C2617 H2625 0.960 . S
C2618 C2616 1.381 . S
C2618 C2619 1.394 . S
C2618 H2626 0.930 . S
C2619 C2618 1.394 . S
C2619 C2620 1.383 . S
C2619 H2627 0.929 . S
C2620 C2619 1.383 . S
C2620 C2621 1.377 . S
C2621 H2605 0.930 . S
C2621 C2620 1.377 . S
C2621 C2622 1.379 . S
C2622 H2606 0.931 . S
C2622 C2616 1.383 . S
C2622 C2621 1.379 . S
H2623 C2617 0.959 . S
H2624 C2617 0.961 . S
H2625 C2617 0.960 . S
H2626 C2618 0.930 . S
H2627 C2619 0.929 . S
H2628 C2636 0.929 . S
H2629 C2638 0.930 . S
H2630 C2640 0.930 . S
H2631 C2643 0.929 . S
H2632 C2646 0.930 . S
H2633 C2648 0.960 . S
H2634 C2648 0.960 . S
H2635 C2648 0.960 . S
C2636 H2628 0.929 . S
C2636 C2637 1.377 . S
C2636 C2638 1.384 . S
C2637 C2636 1.377 . S
C2637 C2643 1.390 . S
C2638 H2629 0.930 . S
C2638 C2636 1.384 . S
C2638 C2639 1.372 . S
C2639 C2638 1.372 . S
C2639 C2640 1.400 . S
C2639 C2644 1.490 . S
C2640 H2630 0.930 . S
C2640 C2639 1.400 . S
C2640 C2643 1.386 . S
H2641 C2657 0.930 . S
H2642 C2658 0.931 . S
C2643 H2631 0.929 . S
C2643 C2637 1.390 . S
C2643 C2640 1.386 . S
C2644 C2639 1.490 . S
C2644 C2646 1.395 . S
C2644 C2647 1.403 . S
H2645 C2651 0.930 . S
C2646 H2632 0.930 . S
C2646 C2644 1.395 . S
C2646 C2649 1.403 . S
C2647 C2644 1.403 . S
C2647 C2648 1.524 . S
C2647 C2651 1.400 . S
C2648 H2633 0.960 . S
C2648 H2634 0.960 . S
C2648 H2635 0.960 . S
C2648 C2647 1.524 . S
C2649 C2646 1.403 . S
C2649 C2650 1.392 . S
C2649 C2653 1.495 . S
C2650 C2649 1.392 . S
C2650 C2651 1.385 . S
C2650 C2652 1.478 . S
C2651 H2645 0.930 . S
C2651 C2647 1.400 . S
C2651 C2650 1.385 . S
C2652 C2650 1.478 . S
C2652 C2654 1.381 . S
C2652 C2658 1.383 . S
C2653 C2649 1.495 . S
C2653 H2659 0.959 . S
C2653 H2660 0.961 . S
C2653 H2661 0.960 . S
C2654 C2652 1.381 . S
C2654 C2655 1.394 . S
C2654 H2662 0.930 . S
C2655 C2654 1.394 . S
C2655 C2656 1.383 . S
C2655 H2663 0.929 . S
C2656 C2655 1.383 . S
C2656 C2657 1.377 . S
C2657 H2641 0.930 . S
C2657 C2656 1.377 . S
C2657 C2658 1.379 . S
C2658 H2642 0.931 . S
C2658 C2652 1.383 . S
C2658 C2657 1.379 . S
H2659 C2653 0.959 . S
H2660 C2653 0.961 . S
H2661 C2653 0.960 . S
H2662 C2654 0.930 . S
H2663 C2655 0.929 . S
H2664 C2672 0.929 . S
H2665 C2674 0.930 . S
H2666 C2676 0.930 . S
H2667 C2679 0.929 . S
H2668 C2682 0.930 . S
H2669 C2684 0.960 . S
H2670 C2684 0.960 . S
H2671 C2684 0.960 . S
C2672 H2664 0.929 . S
C2672 C2673 1.377 . S
C2672 C2674 1.384 . S
C2673 C2672 1.377 . S
C2673 C2679 1.390 . S
C2674 H2665 0.930 . S
C2674 C2672 1.384 . S
C2674 C2675 1.372 . S
C2675 C2674 1.372 . S
C2675 C2676 1.400 . S
C2675 C2680 1.490 . S
C2676 H2666 0.930 . S
C2676 C2675 1.400 . S
C2676 C2679 1.386 . S
H2677 C2693 0.930 . S
H2678 C2694 0.931 . S
C2679 H2667 0.929 . S
C2679 C2673 1.390 . S
C2679 C2676 1.386 . S
C2680 C2675 1.490 . S
C2680 C2682 1.395 . S
C2680 C2683 1.403 . S
H2681 C2687 0.930 . S
C2682 H2668 0.930 . S
C2682 C2680 1.395 . S
C2682 C2685 1.403 . S
C2683 C2680 1.403 . S
C2683 C2684 1.524 . S
C2683 C2687 1.400 . S
C2684 H2669 0.960 . S
C2684 H2670 0.960 . S
C2684 H2671 0.960 . S
C2684 C2683 1.524 . S
C2685 C2682 1.403 . S
C2685 C2686 1.392 . S
C2685 C2689 1.495 . S
C2686 C2685 1.392 . S
C2686 C2687 1.385 . S
C2686 C2688 1.478 . S
C2687 H2681 0.930 . S
C2687 C2683 1.400 . S
C2687 C2686 1.385 . S
C2688 C2686 1.478 . S
C2688 C2690 1.381 . S
C2688 C2694 1.383 . S
C2689 C2685 1.495 . S
C2689 H2695 0.959 . S
C2689 H2696 0.961 . S
C2689 H2697 0.960 . S
C2690 C2688 1.381 . S
C2690 C2691 1.394 . S
C2690 H2698 0.930 . S
C2691 C2690 1.394 . S
C2691 C2692 1.383 . S
C2691 H2699 0.929 . S
C2692 C2691 1.383 . S
C2692 C2693 1.377 . S
C2693 H2677 0.930 . S
C2693 C2692 1.377 . S
C2693 C2694 1.379 . S
C2694 H2678 0.931 . S
C2694 C2688 1.383 . S
C2694 C2693 1.379 . S
H2695 C2689 0.959 . S
H2696 C2689 0.961 . S
H2697 C2689 0.960 . S
H2698 C2690 0.930 . S
H2699 C2691 0.929 . S
H2700 C2708 0.929 . S
H2701 C2710 0.930 . S
H2702 C2712 0.930 . S
H2703 C2715 0.929 . S
H2704 C2718 0.930 . S
H2705 C2720 0.960 . S
H2706 C2720 0.960 . S
H2707 C2720 0.960 . S
C2708 H2700 0.929 . S
C2708 C2709 1.377 . S
C2708 C2710 1.384 . S
C2709 C2708 1.377 . S
C2709 C2715 1.390 . S
C2710 H2701 0.930 . S
C2710 C2708 1.384 . S
C2710 C2711 1.372 . S
C2711 C2710 1.372 . S
C2711 C2712 1.400 . S
C2711 C2716 1.490 . S
C2712 H2702 0.930 . S
C2712 C2711 1.400 . S
C2712 C2715 1.386 . S
H2713 C2729 0.930 . S
H2714 C2730 0.931 . S
C2715 H2703 0.929 . S
C2715 C2709 1.390 . S
C2715 C2712 1.386 . S
C2716 C2711 1.490 . S
C2716 C2718 1.395 . S
C2716 C2719 1.403 . S
H2717 C2723 0.930 . S
C2718 H2704 0.930 . S
C2718 C2716 1.395 . S
C2718 C2721 1.403 . S
C2719 C2716 1.403 . S
C2719 C2720 1.524 . S
C2719 C2723 1.400 . S
C2720 H2705 0.960 . S
C2720 H2706 0.960 . S
C2720 H2707 0.960 . S
C2720 C2719 1.524 . S
C2721 C2718 1.403 . S
C2721 C2722 1.392 . S
C2721 C2725 1.495 . S
C2722 C2721 1.392 . S
C2722 C2723 1.385 . S
C2722 C2724 1.478 . S
C2723 H2717 0.930 . S
C2723 C2719 1.400 . S
C2723 C2722 1.385 . S
C2724 C2722 1.478 . S
C2724 C2726 1.381 . S
C2724 C2730 1.383 . S
C2725 C2721 1.495 . S
C2725 H2731 0.959 . S
C2725 H2732 0.961 . S
C2725 H2733 0.960 . S
C2726 C2724 1.381 . S
C2726 C2727 1.394 . S
C2726 H2734 0.930 . S
C2727 C2726 1.394 . S
C2727 C2728 1.383 . S
C2727 H2735 0.929 . S
C2728 C2727 1.383 . S
C2728 C2729 1.377 . S
C2729 H2713 0.930 . S
C2729 C2728 1.377 . S
C2729 C2730 1.379 . S
C2730 H2714 0.931 . S
C2730 C2724 1.383 . S
C2730 C2729 1.379 . S
H2731 C2725 0.959 . S
H2732 C2725 0.961 . S
H2733 C2725 0.960 . S
H2734 C2726 0.930 . S
H2735 C2727 0.929 . S
H2736 C2744 0.929 . S
H2737 C2746 0.930 . S
H2738 C2748 0.930 . S
H2739 C2751 0.929 . S
H2740 C2754 0.930 . S
H2741 C2756 0.960 . S
H2742 C2756 0.960 . S
H2743 C2756 0.960 . S
C2744 H2736 0.929 . S
C2744 C2745 1.377 . S
C2744 C2746 1.384 . S
C2745 C2744 1.377 . S
C2745 C2751 1.390 . S
C2746 H2737 0.930 . S
C2746 C2744 1.384 . S
C2746 C2747 1.372 . S
C2747 C2746 1.372 . S
C2747 C2748 1.400 . S
C2747 C2752 1.490 . S
C2748 H2738 0.930 . S
C2748 C2747 1.400 . S
C2748 C2751 1.386 . S
H2749 C2765 0.930 . S
H2750 C2766 0.931 . S
C2751 H2739 0.929 . S
C2751 C2745 1.390 . S
C2751 C2748 1.386 . S
C2752 C2747 1.490 . S
C2752 C2754 1.395 . S
C2752 C2755 1.403 . S
H2753 C2759 0.930 . S
C2754 H2740 0.930 . S
C2754 C2752 1.395 . S
C2754 C2757 1.403 . S
C2755 C2752 1.403 . S
C2755 C2756 1.524 . S
C2755 C2759 1.400 . S
C2756 H2741 0.960 . S
C2756 H2742 0.960 . S
C2756 H2743 0.960 . S
C2756 C2755 1.524 . S
C2757 C2754 1.403 . S
C2757 C2758 1.392 . S
C2757 C2761 1.495 . S
C2758 C2757 1.392 . S
C2758 C2759 1.385 . S
C2758 C2760 1.478 . S
C2759 H2753 0.930 . S
C2759 C2755 1.400 . S
C2759 C2758 1.385 . S
C2760 C2758 1.478 . S
C2760 C2762 1.381 . S
C2760 C2766 1.383 . S
C2761 C2757 1.495 . S
C2761 H2767 0.959 . S
C2761 H2768 0.961 . S
C2761 H2769 0.960 . S
C2762 C2760 1.381 . S
C2762 C2763 1.394 . S
C2762 H2770 0.930 . S
C2763 C2762 1.394 . S
C2763 C2764 1.383 . S
C2763 H2771 0.929 . S
C2764 C2763 1.383 . S
C2764 C2765 1.377 . S
C2765 H2749 0.930 . S
C2765 C2764 1.377 . S
C2765 C2766 1.379 . S
C2766 H2750 0.931 . S
C2766 C2760 1.383 . S
C2766 C2765 1.379 . S
H2767 C2761 0.959 . S
H2768 C2761 0.961 . S
H2769 C2761 0.960 . S
H2770 C2762 0.930 . S
H2771 C2763 0.929 . S
H2772 C2780 0.929 . S
H2773 C2782 0.930 . S
H2774 C2784 0.930 . S
H2775 C2787 0.929 . S
H2776 C2790 0.930 . S
H2777 C2792 0.960 . S
H2778 C2792 0.960 . S
H2779 C2792 0.960 . S
C2780 H2772 0.929 . S
C2780 C2781 1.377 . S
C2780 C2782 1.384 . S
C2781 C2780 1.377 . S
C2781 C2787 1.390 . S
C2782 H2773 0.930 . S
C2782 C2780 1.384 . S
C2782 C2783 1.372 . S
C2783 C2782 1.372 . S
C2783 C2784 1.400 . S
C2783 C2788 1.490 . S
C2784 H2774 0.930 . S
C2784 C2783 1.400 . S
C2784 C2787 1.386 . S
H2785 C2801 0.930 . S
H2786 C2802 0.931 . S
C2787 H2775 0.929 . S
C2787 C2781 1.390 . S
C2787 C2784 1.386 . S
C2788 C2783 1.490 . S
C2788 C2790 1.395 . S
C2788 C2791 1.403 . S
H2789 C2795 0.930 . S
C2790 H2776 0.930 . S
C2790 C2788 1.395 . S
C2790 C2793 1.403 . S
C2791 C2788 1.403 . S
C2791 C2792 1.524 . S
C2791 C2795 1.400 . S
C2792 H2777 0.960 . S
C2792 H2778 0.960 . S
C2792 H2779 0.960 . S
C2792 C2791 1.524 . S
C2793 C2790 1.403 . S
C2793 C2794 1.392 . S
C2793 C2797 1.495 . S
C2794 C2793 1.392 . S
C2794 C2795 1.385 . S
C2794 C2796 1.478 . S
C2795 H2789 0.930 . S
C2795 C2791 1.400 . S
C2795 C2794 1.385 . S
C2796 C2794 1.478 . S
C2796 C2798 1.381 . S
C2796 C2802 1.383 . S
C2797 C2793 1.495 . S
C2797 H2803 0.959 . S
C2797 H2804 0.961 . S
C2797 H2805 0.960 . S
C2798 C2796 1.381 . S
C2798 C2799 1.394 . S
C2798 H2806 0.930 . S
C2799 C2798 1.394 . S
C2799 C2800 1.383 . S
C2799 H2807 0.929 . S
C2800 C2799 1.383 . S
C2800 C2801 1.377 . S
C2801 H2785 0.930 . S
C2801 C2800 1.377 . S
C2801 C2802 1.379 . S
C2802 H2786 0.931 . S
C2802 C2796 1.383 . S
C2802 C2801 1.379 . S
H2803 C2797 0.959 . S
H2804 C2797 0.961 . S
H2805 C2797 0.960 . S
H2806 C2798 0.930 . S
H2807 C2799 0.929 . S
H2808 C2816 0.929 . S
H2809 C2818 0.930 . S
H2810 C2820 0.930 . S
H2811 C2823 0.929 . S
H2812 C2826 0.930 . S
H2813 C2828 0.960 . S
H2814 C2828 0.960 . S
H2815 C2828 0.960 . S
C2816 H2808 0.929 . S
C2816 C2817 1.377 . S
C2816 C2818 1.384 . S
C2817 C2816 1.377 . S
C2817 C2823 1.390 . S
C2818 H2809 0.930 . S
C2818 C2816 1.384 . S
C2818 C2819 1.372 . S
C2819 C2818 1.372 . S
C2819 C2820 1.400 . S
C2819 C2824 1.490 . S
C2820 H2810 0.930 . S
C2820 C2819 1.400 . S
C2820 C2823 1.386 . S
H2821 C2837 0.930 . S
H2822 C2838 0.931 . S
C2823 H2811 0.929 . S
C2823 C2817 1.390 . S
C2823 C2820 1.386 . S
C2824 C2819 1.490 . S
C2824 C2826 1.395 . S
C2824 C2827 1.403 . S
H2825 C2831 0.930 . S
C2826 H2812 0.930 . S
C2826 C2824 1.395 . S
C2826 C2829 1.403 . S
C2827 C2824 1.403 . S
C2827 C2828 1.524 . S
C2827 C2831 1.400 . S
C2828 H2813 0.960 . S
C2828 H2814 0.960 . S
C2828 H2815 0.960 . S
C2828 C2827 1.524 . S
C2829 C2826 1.403 . S
C2829 C2830 1.392 . S
C2829 C2833 1.495 . S
C2830 C2829 1.392 . S
C2830 C2831 1.385 . S
C2830 C2832 1.478 . S
C2831 H2825 0.930 . S
C2831 C2827 1.400 . S
C2831 C2830 1.385 . S
C2832 C2830 1.478 . S
C2832 C2834 1.381 . S
C2832 C2838 1.383 . S
C2833 C2829 1.495 . S
C2833 H2839 0.959 . S
C2833 H2840 0.961 . S
C2833 H2841 0.960 . S
C2834 C2832 1.381 . S
C2834 C2835 1.394 . S
C2834 H2842 0.930 . S
C2835 C2834 1.394 . S
C2835 C2836 1.383 . S
C2835 H2843 0.929 . S
C2836 C2835 1.383 . S
C2836 C2837 1.377 . S
C2837 H2821 0.930 . S
C2837 C2836 1.377 . S
C2837 C2838 1.379 . S
C2838 H2822 0.931 . S
C2838 C2832 1.383 . S
C2838 C2837 1.379 . S
H2839 C2833 0.959 . S
H2840 C2833 0.961 . S
H2841 C2833 0.960 . S
H2842 C2834 0.930 . S
H2843 C2835 0.929 . S
H2844 C2852 0.929 . S
H2845 C2854 0.930 . S
H2846 C2856 0.930 . S
H2847 C2859 0.929 . S
H2848 C2862 0.930 . S
H2849 C2864 0.960 . S
H2850 C2864 0.960 . S
H2851 C2864 0.960 . S
C2852 H2844 0.929 . S
C2852 C2853 1.377 . S
C2852 C2854 1.384 . S
C2853 C2852 1.377 . S
C2853 C2859 1.390 . S
C2854 H2845 0.930 . S
C2854 C2852 1.384 . S
C2854 C2855 1.372 . S
C2855 C2854 1.372 . S
C2855 C2856 1.400 . S
C2855 C2860 1.490 . S
C2856 H2846 0.930 . S
C2856 C2855 1.400 . S
C2856 C2859 1.386 . S
H2857 C2873 0.930 . S
H2858 C2874 0.931 . S
C2859 H2847 0.929 . S
C2859 C2853 1.390 . S
C2859 C2856 1.386 . S
C2860 C2855 1.490 . S
C2860 C2862 1.395 . S
C2860 C2863 1.403 . S
H2861 C2867 0.930 . S
C2862 H2848 0.930 . S
C2862 C2860 1.395 . S
C2862 C2865 1.403 . S
C2863 C2860 1.403 . S
C2863 C2864 1.524 . S
C2863 C2867 1.400 . S
C2864 H2849 0.960 . S
C2864 H2850 0.960 . S
C2864 H2851 0.960 . S
C2864 C2863 1.524 . S
C2865 C2862 1.403 . S
C2865 C2866 1.392 . S
C2865 C2869 1.495 . S
C2866 C2865 1.392 . S
C2866 C2867 1.385 . S
C2866 C2868 1.478 . S
C2867 H2861 0.930 . S
C2867 C2863 1.400 . S
C2867 C2866 1.385 . S
C2868 C2866 1.478 . S
C2868 C2870 1.381 . S
C2868 C2874 1.383 . S
C2869 C2865 1.495 . S
C2869 H2875 0.959 . S
C2869 H2876 0.961 . S
C2869 H2877 0.960 . S
C2870 C2868 1.381 . S
C2870 C2871 1.394 . S
C2870 H2878 0.930 . S
C2871 C2870 1.394 . S
C2871 C2872 1.383 . S
C2871 H2879 0.929 . S
C2872 C2871 1.383 . S
C2872 C2873 1.377 . S
C2873 H2857 0.930 . S
C2873 C2872 1.377 . S
C2873 C2874 1.379 . S
C2874 H2858 0.931 . S
C2874 C2868 1.383 . S
C2874 C2873 1.379 . S
H2875 C2869 0.959 . S
H2876 C2869 0.961 . S
H2877 C2869 0.960 . S
H2878 C2870 0.930 . S
H2879 C2871 0.929 . S
H2880 C2888 0.929 . S
H2881 C2890 0.930 . S
H2882 C2892 0.930 . S
H2883 C2895 0.929 . S
H2884 C2898 0.930 . S
H2885 C2900 0.960 . S
H2886 C2900 0.960 . S
H2887 C2900 0.960 . S
C2888 H2880 0.929 . S
C2888 C2889 1.377 . S
C2888 C2890 1.384 . S
C2889 C2888 1.377 . S
C2889 C2895 1.390 . S
C2890 H2881 0.930 . S
C2890 C2888 1.384 . S
C2890 C2891 1.372 . S
C2891 C2890 1.372 . S
C2891 C2892 1.400 . S
C2891 C2896 1.490 . S
C2892 H2882 0.930 . S
C2892 C2891 1.400 . S
C2892 C2895 1.386 . S
H2893 C2909 0.930 . S
H2894 C2910 0.931 . S
C2895 H2883 0.929 . S
C2895 C2889 1.390 . S
C2895 C2892 1.386 . S
C2896 C2891 1.490 . S
C2896 C2898 1.395 . S
C2896 C2899 1.403 . S
H2897 C2903 0.930 . S
C2898 H2884 0.930 . S
C2898 C2896 1.395 . S
C2898 C2901 1.403 . S
C2899 C2896 1.403 . S
C2899 C2900 1.524 . S
C2899 C2903 1.400 . S
C2900 H2885 0.960 . S
C2900 H2886 0.960 . S
C2900 H2887 0.960 . S
C2900 C2899 1.524 . S
C2901 C2898 1.403 . S
C2901 C2902 1.392 . S
C2901 C2905 1.495 . S
C2902 C2901 1.392 . S
C2902 C2903 1.385 . S
C2902 C2904 1.478 . S
C2903 H2897 0.930 . S
C2903 C2899 1.400 . S
C2903 C2902 1.385 . S
C2904 C2902 1.478 . S
C2904 C2906 1.381 . S
C2904 C2910 1.383 . S
C2905 C2901 1.495 . S
C2905 H2911 0.959 . S
C2905 H2912 0.961 . S
C2905 H2913 0.960 . S
C2906 C2904 1.381 . S
C2906 C2907 1.394 . S
C2906 H2914 0.930 . S
C2907 C2906 1.394 . S
C2907 C2908 1.383 . S
C2907 H2915 0.929 . S
C2908 C2907 1.383 . S
C2908 C2909 1.377 . S
C2909 H2893 0.930 . S
C2909 C2908 1.377 . S
C2909 C2910 1.379 . S
C2910 H2894 0.931 . S
C2910 C2904 1.383 . S
C2910 C2909 1.379 . S
H2911 C2905 0.959 . S
H2912 C2905 0.961 . S
H2913 C2905 0.960 . S
H2914 C2906 0.930 . S
H2915 C2907 0.929 . S
H2916 C2924 0.929 . S
H2917 C2926 0.930 . S
H2918 C2928 0.930 . S
H2919 C2931 0.929 . S
H2920 C2934 0.930 . S
H2921 C2936 0.960 . S
H2922 C2936 0.960 . S
H2923 C2936 0.960 . S
C2924 H2916 0.929 . S
C2924 C2925 1.377 . S
C2924 C2926 1.384 . S
C2925 C2924 1.377 . S
C2925 C2931 1.390 . S
C2926 H2917 0.930 . S
C2926 C2924 1.384 . S
C2926 C2927 1.372 . S
C2927 C2926 1.372 . S
C2927 C2928 1.400 . S
C2927 C2932 1.490 . S
C2928 H2918 0.930 . S
C2928 C2927 1.400 . S
C2928 C2931 1.386 . S
H2929 C2945 0.930 . S
H2930 C2946 0.931 . S
C2931 H2919 0.929 . S
C2931 C2925 1.390 . S
C2931 C2928 1.386 . S
C2932 C2927 1.490 . S
C2932 C2934 1.395 . S
C2932 C2935 1.403 . S
H2933 C2939 0.930 . S
C2934 H2920 0.930 . S
C2934 C2932 1.395 . S
C2934 C2937 1.403 . S
C2935 C2932 1.403 . S
C2935 C2936 1.524 . S
C2935 C2939 1.400 . S
C2936 H2921 0.960 . S
C2936 H2922 0.960 . S
C2936 H2923 0.960 . S
C2936 C2935 1.524 . S
C2937 C2934 1.403 . S
C2937 C2938 1.392 . S
C2937 C2941 1.495 . S
C2938 C2937 1.392 . S
C2938 C2939 1.385 . S
C2938 C2940 1.478 . S
C2939 H2933 0.930 . S
C2939 C2935 1.400 . S
C2939 C2938 1.385 . S
C2940 C2938 1.478 . S
C2940 C2942 1.381 . S
C2940 C2946 1.383 . S
C2941 C2937 1.495 . S
C2941 H2947 0.959 . S
C2941 H2948 0.961 . S
C2941 H2949 0.960 . S
C2942 C2940 1.381 . S
C2942 C2943 1.394 . S
C2942 H2950 0.930 . S
C2943 C2942 1.394 . S
C2943 C2944 1.383 . S
C2943 H2951 0.929 . S
C2944 C2943 1.383 . S
C2944 C2945 1.377 . S
C2945 H2929 0.930 . S
C2945 C2944 1.377 . S
C2945 C2946 1.379 . S
C2946 H2930 0.931 . S
C2946 C2940 1.383 . S
C2946 C2945 1.379 . S
H2947 C2941 0.959 . S
H2948 C2941 0.961 . S
H2949 C2941 0.960 . S
H2950 C2942 0.930 . S
H2951 C2943 0.929 . S
H2952 C2960 0.929 . S
H2953 C2962 0.930 . S
H2954 C2964 0.930 . S
H2955 C2967 0.929 . S
H2956 C2970 0.930 . S
H2957 C2972 0.960 . S
H2958 C2972 0.960 . S
H2959 C2972 0.960 . S
C2960 H2952 0.929 . S
C2960 C2961 1.377 . S
C2960 C2962 1.384 . S
C2961 C2960 1.377 . S
C2961 C2967 1.390 . S
C2962 H2953 0.930 . S
C2962 C2960 1.384 . S
C2962 C2963 1.372 . S
C2963 C2962 1.372 . S
C2963 C2964 1.400 . S
C2963 C2968 1.490 . S
C2964 H2954 0.930 . S
C2964 C2963 1.400 . S
C2964 C2967 1.386 . S
H2965 C2981 0.930 . S
H2966 C2982 0.931 . S
C2967 H2955 0.929 . S
C2967 C2961 1.390 . S
C2967 C2964 1.386 . S
C2968 C2963 1.490 . S
C2968 C2970 1.395 . S
C2968 C2971 1.403 . S
H2969 C2975 0.930 . S
C2970 H2956 0.930 . S
C2970 C2968 1.395 . S
C2970 C2973 1.403 . S
C2971 C2968 1.403 . S
C2971 C2972 1.524 . S
C2971 C2975 1.400 . S
C2972 H2957 0.960 . S
C2972 H2958 0.960 . S
C2972 H2959 0.960 . S
C2972 C2971 1.524 . S
C2973 C2970 1.403 . S
C2973 C2974 1.392 . S
C2973 C2977 1.495 . S
C2974 C2973 1.392 . S
C2974 C2975 1.385 . S
C2974 C2976 1.478 . S
C2975 H2969 0.930 . S
C2975 C2971 1.400 . S
C2975 C2974 1.385 . S
C2976 C2974 1.478 . S
C2976 C2978 1.381 . S
C2976 C2982 1.383 . S
C2977 C2973 1.495 . S
C2977 H2983 0.959 . S
C2977 H2984 0.961 . S
C2977 H2985 0.960 . S
C2978 C2976 1.381 . S
C2978 C2979 1.394 . S
C2978 H2986 0.930 . S
C2979 C2978 1.394 . S
C2979 C2980 1.383 . S
C2979 H2987 0.929 . S
C2980 C2979 1.383 . S
C2980 C2981 1.377 . S
C2981 H2965 0.930 . S
C2981 C2980 1.377 . S
C2981 C2982 1.379 . S
C2982 H2966 0.931 . S
C2982 C2976 1.383 . S
C2982 C2981 1.379 . S
H2983 C2977 0.959 . S
H2984 C2977 0.961 . S
H2985 C2977 0.960 . S
H2986 C2978 0.930 . S
H2987 C2979 0.929 . S
H2988 C2996 0.929 . S
H2989 C2998 0.930 . S
H2990 C3000 0.930 . S
H2991 C3003 0.929 . S
H2992 C3006 0.930 . S
H2993 C3008 0.960 . S
H2994 C3008 0.960 . S
H2995 C3008 0.960 . S
C2996 H2988 0.929 . S
C2996 C2997 1.377 . S
C2996 C2998 1.384 . S
C2997 C2996 1.377 . S
C2997 C3003 1.390 . S
C2998 H2989 0.930 . S
C2998 C2996 1.384 . S
C2998 C2999 1.372 . S
C2999 C2998 1.372 . S
C2999 C3000 1.400 . S
C2999 C3004 1.490 . S
C3000 H2990 0.930 . S
C3000 C2999 1.400 . S
C3000 C3003 1.386 . S
H3001 C3017 0.930 . S
H3002 C3018 0.931 . S
C3003 H2991 0.929 . S
C3003 C2997 1.390 . S
C3003 C3000 1.386 . S
C3004 C2999 1.490 . S
C3004 C3006 1.395 . S
C3004 C3007 1.403 . S
H3005 C3011 0.930 . S
C3006 H2992 0.930 . S
C3006 C3004 1.395 . S
C3006 C3009 1.403 . S
C3007 C3004 1.403 . S
C3007 C3008 1.524 . S
C3007 C3011 1.400 . S
C3008 H2993 0.960 . S
C3008 H2994 0.960 . S
C3008 H2995 0.960 . S
C3008 C3007 1.524 . S
C3009 C3006 1.403 . S
C3009 C3010 1.392 . S
C3009 C3013 1.495 . S
C3010 C3009 1.392 . S
C3010 C3011 1.385 . S
C3010 C3012 1.478 . S
C3011 H3005 0.930 . S
C3011 C3007 1.400 . S
C3011 C3010 1.385 . S
C3012 C3010 1.478 . S
C3012 C3014 1.381 . S
C3012 C3018 1.383 . S
C3013 C3009 1.495 . S
C3013 H3019 0.959 . S
C3013 H3020 0.961 . S
C3013 H3021 0.960 . S
C3014 C3012 1.381 . S
C3014 C3015 1.394 . S
C3014 H3022 0.930 . S
C3015 C3014 1.394 . S
C3015 C3016 1.383 . S
C3015 H3023 0.929 . S
C3016 C3015 1.383 . S
C3016 C3017 1.377 . S
C3017 H3001 0.930 . S
C3017 C3016 1.377 . S
C3017 C3018 1.379 . S
C3018 H3002 0.931 . S
C3018 C3012 1.383 . S
C3018 C3017 1.379 . S
H3019 C3013 0.959 . S
H3020 C3013 0.961 . S
H3021 C3013 0.960 . S
H3022 C3014 0.930 . S
H3023 C3015 0.929 . S
H3024 C3032 0.929 . S
H3025 C3034 0.930 . S
H3026 C3036 0.930 . S
H3027 C3039 0.929 . S
H3028 C3042 0.930 . S
H3029 C3044 0.960 . S
H3030 C3044 0.960 . S
H3031 C3044 0.960 . S
C3032 H3024 0.929 . S
C3032 C3033 1.377 . S
C3032 C3034 1.384 . S
C3033 C3032 1.377 . S
C3033 C3039 1.390 . S
C3034 H3025 0.930 . S
C3034 C3032 1.384 . S
C3034 C3035 1.372 . S
C3035 C3034 1.372 . S
C3035 C3036 1.400 . S
C3035 C3040 1.490 . S
C3036 H3026 0.930 . S
C3036 C3035 1.400 . S
C3036 C3039 1.386 . S
H3037 C3053 0.930 . S
H3038 C3054 0.931 . S
C3039 H3027 0.929 . S
C3039 C3033 1.390 . S
C3039 C3036 1.386 . S
C3040 C3035 1.490 . S
C3040 C3042 1.395 . S
C3040 C3043 1.403 . S
H3041 C3047 0.930 . S
C3042 H3028 0.930 . S
C3042 C3040 1.395 . S
C3042 C3045 1.403 . S
C3043 C3040 1.403 . S
C3043 C3044 1.524 . S
C3043 C3047 1.400 . S
C3044 H3029 0.960 . S
C3044 H3030 0.960 . S
C3044 H3031 0.960 . S
C3044 C3043 1.524 . S
C3045 C3042 1.403 . S
C3045 C3046 1.392 . S
C3045 C3049 1.495 . S
C3046 C3045 1.392 . S
C3046 C3047 1.385 . S
C3046 C3048 1.478 . S
C3047 H3041 0.930 . S
C3047 C3043 1.400 . S
C3047 C3046 1.385 . S
C3048 C3046 1.478 . S
C3048 C3050 1.381 . S
C3048 C3054 1.383 . S
C3049 C3045 1.495 . S
C3049 H3055 0.959 . S
C3049 H3056 0.961 . S
C3049 H3057 0.960 . S
C3050 C3048 1.381 . S
C3050 C3051 1.394 . S
C3050 H3058 0.930 . S
C3051 C3050 1.394 . S
C3051 C3052 1.383 . S
C3051 H3059 0.929 . S
C3052 C3051 1.383 . S
C3052 C3053 1.377 . S
C3053 H3037 0.930 . S
C3053 C3052 1.377 . S
C3053 C3054 1.379 . S
C3054 H3038 0.931 . S
C3054 C3048 1.383 . S
C3054 C3053 1.379 . S
H3055 C3049 0.959 . S
H3056 C3049 0.961 . S
H3057 C3049 0.960 . S
H3058 C3050 0.930 . S
H3059 C3051 0.929 . S
H3060 C3068 0.929 . S
H3061 C3070 0.930 . S
H3062 C3072 0.930 . S
H3063 C3075 0.929 . S
H3064 C3078 0.930 . S
H3065 C3080 0.960 . S
H3066 C3080 0.960 . S
H3067 C3080 0.960 . S
C3068 H3060 0.929 . S
C3068 C3069 1.377 . S
C3068 C3070 1.384 . S
C3069 C3068 1.377 . S
C3069 C3075 1.390 . S
C3070 H3061 0.930 . S
C3070 C3068 1.384 . S
C3070 C3071 1.372 . S
C3071 C3070 1.372 . S
C3071 C3072 1.400 . S
C3071 C3076 1.490 . S
C3072 H3062 0.930 . S
C3072 C3071 1.400 . S
C3072 C3075 1.386 . S
H3073 C3089 0.930 . S
H3074 C3090 0.931 . S
C3075 H3063 0.929 . S
C3075 C3069 1.390 . S
C3075 C3072 1.386 . S
C3076 C3071 1.490 . S
C3076 C3078 1.395 . S
C3076 C3079 1.403 . S
H3077 C3083 0.930 . S
C3078 H3064 0.930 . S
C3078 C3076 1.395 . S
C3078 C3081 1.403 . S
C3079 C3076 1.403 . S
C3079 C3080 1.524 . S
C3079 C3083 1.400 . S
C3080 H3065 0.960 . S
C3080 H3066 0.960 . S
C3080 H3067 0.960 . S
C3080 C3079 1.524 . S
C3081 C3078 1.403 . S
C3081 C3082 1.392 . S
C3081 C3085 1.495 . S
C3082 C3081 1.392 . S
C3082 C3083 1.385 . S
C3082 C3084 1.478 . S
C3083 H3077 0.930 . S
C3083 C3079 1.400 . S
C3083 C3082 1.385 . S
C3084 C3082 1.478 . S
C3084 C3086 1.381 . S
C3084 C3090 1.383 . S
C3085 C3081 1.495 . S
C3085 H3091 0.959 . S
C3085 H3092 0.961 . S
C3085 H3093 0.960 . S
C3086 C3084 1.381 . S
C3086 C3087 1.394 . S
C3086 H3094 0.930 . S
C3087 C3086 1.394 . S
C3087 C3088 1.383 . S
C3087 H3095 0.929 . S
C3088 C3087 1.383 . S
C3088 C3089 1.377 . S
C3089 H3073 0.930 . S
C3089 C3088 1.377 . S
C3089 C3090 1.379 . S
C3090 H3074 0.931 . S
C3090 C3084 1.383 . S
C3090 C3089 1.379 . S
H3091 C3085 0.959 . S
H3092 C3085 0.961 . S
H3093 C3085 0.960 . S
H3094 C3086 0.930 . S
H3095 C3087 0.929 . S
H3096 C3104 0.929 . S
H3097 C3106 0.930 . S
H3098 C3108 0.930 . S
H3099 C3111 0.929 . S
H3100 C3114 0.930 . S
H3101 C3116 0.960 . S
H3102 C3116 0.960 . S
H3103 C3116 0.960 . S
C3104 H3096 0.929 . S
C3104 C3105 1.377 . S
C3104 C3106 1.384 . S
C3105 C3104 1.377 . S
C3105 C3111 1.390 . S
C3106 H3097 0.930 . S
C3106 C3104 1.384 . S
C3106 C3107 1.372 . S
C3107 C3106 1.372 . S
C3107 C3108 1.400 . S
C3107 C3112 1.490 . S
C3108 H3098 0.930 . S
C3108 C3107 1.400 . S
C3108 C3111 1.386 . S
H3109 C3125 0.930 . S
H3110 C3126 0.931 . S
C3111 H3099 0.929 . S
C3111 C3105 1.390 . S
C3111 C3108 1.386 . S
C3112 C3107 1.490 . S
C3112 C3114 1.395 . S
C3112 C3115 1.403 . S
H3113 C3119 0.930 . S
C3114 H3100 0.930 . S
C3114 C3112 1.395 . S
C3114 C3117 1.403 . S
C3115 C3112 1.403 . S
C3115 C3116 1.524 . S
C3115 C3119 1.400 . S
C3116 H3101 0.960 . S
C3116 H3102 0.960 . S
C3116 H3103 0.960 . S
C3116 C3115 1.524 . S
C3117 C3114 1.403 . S
C3117 C3118 1.392 . S
C3117 C3121 1.495 . S
C3118 C3117 1.392 . S
C3118 C3119 1.385 . S
C3118 C3120 1.478 . S
C3119 H3113 0.930 . S
C3119 C3115 1.400 . S
C3119 C3118 1.385 . S
C3120 C3118 1.478 . S
C3120 C3122 1.381 . S
C3120 C3126 1.383 . S
C3121 C3117 1.495 . S
C3121 H3127 0.959 . S
C3121 H3128 0.961 . S
C3121 H3129 0.960 . S
C3122 C3120 1.381 . S
C3122 C3123 1.394 . S
C3122 H3130 0.930 . S
C3123 C3122 1.394 . S
C3123 C3124 1.383 . S
C3123 H3131 0.929 . S
C3124 C3123 1.383 . S
C3124 C3125 1.377 . S
C3125 H3109 0.930 . S
C3125 C3124 1.377 . S
C3125 C3126 1.379 . S
C3126 H3110 0.931 . S
C3126 C3120 1.383 . S
C3126 C3125 1.379 . S
H3127 C3121 0.959 . S
H3128 C3121 0.961 . S
H3129 C3121 0.960 . S
H3130 C3122 0.930 . S
H3131 C3123 0.929 . S
H3132 C3140 0.929 . S
H3133 C3142 0.930 . S
H3134 C3144 0.930 . S
H3135 C3147 0.929 . S
H3136 C3150 0.930 . S
H3137 C3152 0.960 . S
H3138 C3152 0.960 . S
H3139 C3152 0.960 . S
C3140 H3132 0.929 . S
C3140 C3141 1.377 . S
C3140 C3142 1.384 . S
C3141 C3140 1.377 . S
C3141 C3147 1.390 . S
C3142 H3133 0.930 . S
C3142 C3140 1.384 . S
C3142 C3143 1.372 . S
C3143 C3142 1.372 . S
C3143 C3144 1.400 . S
C3143 C3148 1.490 . S
C3144 H3134 0.930 . S
C3144 C3143 1.400 . S
C3144 C3147 1.386 . S
H3145 C3161 0.930 . S
H3146 C3162 0.931 . S
C3147 H3135 0.929 . S
C3147 C3141 1.390 . S
C3147 C3144 1.386 . S
C3148 C3143 1.490 . S
C3148 C3150 1.395 . S
C3148 C3151 1.403 . S
H3149 C3155 0.930 . S
C3150 H3136 0.930 . S
C3150 C3148 1.395 . S
C3150 C3153 1.403 . S
C3151 C3148 1.403 . S
C3151 C3152 1.524 . S
C3151 C3155 1.400 . S
C3152 H3137 0.960 . S
C3152 H3138 0.960 . S
C3152 H3139 0.960 . S
C3152 C3151 1.524 . S
C3153 C3150 1.403 . S
C3153 C3154 1.392 . S
C3153 C3157 1.495 . S
C3154 C3153 1.392 . S
C3154 C3155 1.385 . S
C3154 C3156 1.478 . S
C3155 H3149 0.930 . S
C3155 C3151 1.400 . S
C3155 C3154 1.385 . S
C3156 C3154 1.478 . S
C3156 C3158 1.381 . S
C3156 C3162 1.383 . S
C3157 C3153 1.495 . S
C3157 H3163 0.959 . S
C3157 H3164 0.961 . S
C3157 H3165 0.960 . S
C3158 C3156 1.381 . S
C3158 C3159 1.394 . S
C3158 H3166 0.930 . S
C3159 C3158 1.394 . S
C3159 C3160 1.383 . S
C3159 H3167 0.929 . S
C3160 C3159 1.383 . S
C3160 C3161 1.377 . S
C3161 H3145 0.930 . S
C3161 C3160 1.377 . S
C3161 C3162 1.379 . S
C3162 H3146 0.931 . S
C3162 C3156 1.383 . S
C3162 C3161 1.379 . S
H3163 C3157 0.959 . S
H3164 C3157 0.961 . S
H3165 C3157 0.960 . S
H3166 C3158 0.930 . S
H3167 C3159 0.929 . S
H3168 C3176 0.929 . S
H3169 C3178 0.930 . S
H3170 C3180 0.930 . S
H3171 C3183 0.929 . S
H3172 C3186 0.930 . S
H3173 C3188 0.960 . S
H3174 C3188 0.960 . S
H3175 C3188 0.960 . S
C3176 H3168 0.929 . S
C3176 C3177 1.377 . S
C3176 C3178 1.384 . S
C3177 C3176 1.377 . S
C3177 C3183 1.390 . S
C3178 H3169 0.930 . S
C3178 C3176 1.384 . S
C3178 C3179 1.372 . S
C3179 C3178 1.372 . S
C3179 C3180 1.400 . S
C3179 C3184 1.490 . S
C3180 H3170 0.930 . S
C3180 C3179 1.400 . S
C3180 C3183 1.386 . S
H3181 C3197 0.930 . S
H3182 C3198 0.931 . S
C3183 H3171 0.929 . S
C3183 C3177 1.390 . S
C3183 C3180 1.386 . S
C3184 C3179 1.490 . S
C3184 C3186 1.395 . S
C3184 C3187 1.403 1_545 S
H3185 C3191 0.930 . S
C3186 H3172 0.930 . S
C3186 C3184 1.395 . S
C3186 C3189 1.403 . S
C3187 C3184 1.403 1_565 S
C3187 C3188 1.524 . S
C3187 C3191 1.400 . S
C3188 H3173 0.960 . S
C3188 H3174 0.960 . S
C3188 H3175 0.960 . S
C3188 C3187 1.524 . S
C3189 C3186 1.403 . S
C3189 C3190 1.392 1_545 S
C3189 C3193 1.495 . S
C3190 C3189 1.392 1_565 S
C3190 C3191 1.385 . S
C3190 C3192 1.478 . S
C3191 H3185 0.930 . S
C3191 C3187 1.400 . S
C3191 C3190 1.385 . S
C3192 C3190 1.478 . S
C3192 C3194 1.381 . S
C3192 C3198 1.383 . S
C3193 C3189 1.495 . S
C3193 H3199 0.959 . S
C3193 H3200 0.961 . S
C3193 H3201 0.960 . S
C3194 C3192 1.381 . S
C3194 C3195 1.394 . S
C3194 H3202 0.930 . S
C3195 C3194 1.394 . S
C3195 C3196 1.383 . S
C3195 H3203 0.929 . S
C3196 C3195 1.383 . S
C3196 C3197 1.377 . S
C3197 H3181 0.930 . S
C3197 C3196 1.377 . S
C3197 C3198 1.379 . S
C3198 H3182 0.931 . S
C3198 C3192 1.383 . S
C3198 C3197 1.379 . S
H3199 C3193 0.959 . S
H3200 C3193 0.961 . S
H3201 C3193 0.960 . S
H3202 C3194 0.930 . S
H3203 C3195 0.929 . S
H3204 C3212 0.929 . S
H3205 C3214 0.930 . S
H3206 C3216 0.930 . S
H3207 C3219 0.929 . S
H3208 C3222 0.930 . S
H3209 C3224 0.960 . S
H3210 C3224 0.960 1_455 S
H3211 C3224 0.960 . S
C3212 H3204 0.929 . S
C3212 C3213 1.377 . S
C3212 C3214 1.384 . S
C3213 C3212 1.377 . S
C3213 C3219 1.390 . S
C3214 H3205 0.930 . S
C3214 C3212 1.384 . S
C3214 C3215 1.372 . S
C3215 C3214 1.372 . S
C3215 C3216 1.400 . S
C3215 C3220 1.490 . S
C3216 H3206 0.930 . S
C3216 C3215 1.400 . S
C3216 C3219 1.386 . S
H3217 C3233 0.930 . S
H3218 C3234 0.931 . S
C3219 H3207 0.929 . S
C3219 C3213 1.390 . S
C3219 C3216 1.386 . S
C3220 C3215 1.490 . S
C3220 C3222 1.395 . S
C3220 C3223 1.403 1_455 S
H3221 C3227 0.930 . S
C3222 H3208 0.930 . S
C3222 C3220 1.395 . S
C3222 C3225 1.403 . S
C3223 C3220 1.403 1_655 S
C3223 C3224 1.524 . S
C3223 C3227 1.400 . S
C3224 H3209 0.960 . S
C3224 H3210 0.960 1_655 S
C3224 H3211 0.960 . S
C3224 C3223 1.524 . S
C3225 C3222 1.403 . S
C3225 C3226 1.392 1_455 S
C3225 C3229 1.495 . S
C3226 C3225 1.392 1_655 S
C3226 C3227 1.385 . S
C3226 C3228 1.478 . S
C3227 H3221 0.930 . S
C3227 C3223 1.400 . S
C3227 C3226 1.385 . S
C3228 C3226 1.478 . S
C3228 C3230 1.381 . S
C3228 C3234 1.383 . S
C3229 C3225 1.495 . S
C3229 H3235 0.959 . S
C3229 H3236 0.951 1_455 S
C3229 H3237 0.960 . S
C3230 C3228 1.381 . S
C3230 C3231 1.394 . S
C3230 H3238 0.930 . S
C3231 C3230 1.394 . S
C3231 C3232 1.383 . S
C3231 H3239 0.929 . S
C3232 C3231 1.383 . S
C3232 C3233 1.377 . S
C3233 H3217 0.930 . S
C3233 C3232 1.377 . S
C3233 C3234 1.379 . S
C3234 H3218 0.931 . S
C3234 C3228 1.383 . S
C3234 C3233 1.379 . S
H3235 C3229 0.959 . S
H3236 C3229 0.951 1_655 S
H3237 C3229 0.960 . S
H3238 C3230 0.930 . S
H3239 C3231 0.929 . S
H3240 C3248 0.929 . S
H3241 C3250 0.930 . S
H3242 C3252 0.930 . S
H3243 C3255 0.929 . S
H3244 C3258 0.930 . S
H3245 C3260 0.960 . S
H3246 C3260 0.960 . S
H3247 C3260 0.960 . S
C3248 H3240 0.929 . S
C3248 C3249 1.377 . S
C3248 C3250 1.384 . S
C3249 C3248 1.377 . S
C3249 C3255 1.390 . S
C3250 H3241 0.930 . S
C3250 C3248 1.384 . S
C3250 C3251 1.372 . S
C3251 C3250 1.372 . S
C3251 C3252 1.400 . S
C3251 C3256 1.490 . S
C3252 H3242 0.930 . S
C3252 C3251 1.400 . S
C3252 C3255 1.386 . S
H3253 C3269 0.930 . S
H3254 C3270 0.931 . S
C3255 H3243 0.929 . S
C3255 C3249 1.390 . S
C3255 C3252 1.386 . S
C3256 C3251 1.490 . S
C3256 C3258 1.395 . S
C3256 C3259 1.403 . S
H3257 C3263 0.930 . S
C3258 H3244 0.930 . S
C3258 C3256 1.395 . S
C3258 C3261 1.403 . S
C3259 C3256 1.403 . S
C3259 C3260 1.524 . S
C3259 C3263 1.400 . S
C3260 H3245 0.960 . S
C3260 H3246 0.960 . S
C3260 H3247 0.960 . S
C3260 C3259 1.524 . S
C3261 C3258 1.403 . S
C3261 C3262 1.392 . S
C3261 C3265 1.495 . S
C3262 C3261 1.392 . S
C3262 C3263 1.385 . S
C3262 C3264 1.478 . S
C3263 H3257 0.930 . S
C3263 C3259 1.400 . S
C3263 C3262 1.385 . S
C3264 C3262 1.478 . S
C3264 C3266 1.381 . S
C3264 C3270 1.383 . S
C3265 C3261 1.495 . S
C3265 H3271 0.959 . S
C3265 H3272 0.961 . S
C3265 H3273 0.960 . S
C3266 C3264 1.381 . S
C3266 C3267 1.394 . S
C3266 H3274 0.930 . S
C3267 C3266 1.394 . S
C3267 C3268 1.383 . S
C3267 H3275 0.929 . S
C3268 C3267 1.383 . S
C3268 C3269 1.377 . S
C3269 H3253 0.930 . S
C3269 C3268 1.377 . S
C3269 C3270 1.379 . S
C3270 H3254 0.931 . S
C3270 C3264 1.383 . S
C3270 C3269 1.379 . S
H3271 C3265 0.959 . S
H3272 C3265 0.961 . S
H3273 C3265 0.960 . S
H3274 C3266 0.930 . S
H3275 C3267 0.929 . S
H3276 C3284 0.929 . S
H3277 C3286 0.930 . S
H3278 C3288 0.930 . S
H3279 C3291 0.929 . S
H3280 C3294 0.930 . S
H3281 C3296 0.960 . S
H3282 C3296 0.960 . S
H3283 C3296 0.960 . S
C3284 H3276 0.929 . S
C3284 C3285 1.377 . S
C3284 C3286 1.384 . S
C3285 C3284 1.377 . S
C3285 C3291 1.390 . S
C3286 H3277 0.930 . S
C3286 C3284 1.384 . S
C3286 C3287 1.372 . S
C3287 C3286 1.372 . S
C3287 C3288 1.400 . S
C3287 C3292 1.490 . S
C3288 H3278 0.930 . S
C3288 C3287 1.400 . S
C3288 C3291 1.386 . S
H3289 C3305 0.930 . S
H3290 C3306 0.931 . S
C3291 H3279 0.929 . S
C3291 C3285 1.390 . S
C3291 C3288 1.386 . S
C3292 C3287 1.490 . S
C3292 C3294 1.395 . S
C3292 C3295 1.403 1_545 S
H3293 C3299 0.930 . S
C3294 H3280 0.930 . S
C3294 C3292 1.395 . S
C3294 C3297 1.403 . S
C3295 C3292 1.403 1_565 S
C3295 C3296 1.524 . S
C3295 C3299 1.400 . S
C3296 H3281 0.960 . S
C3296 H3282 0.960 . S
C3296 H3283 0.960 . S
C3296 C3295 1.524 . S
C3297 C3294 1.403 . S
C3297 C3298 1.392 1_545 S
C3297 C3301 1.495 . S
C3298 C3297 1.392 1_565 S
C3298 C3299 1.385 . S
C3298 C3300 1.478 . S
C3299 H3293 0.930 . S
C3299 C3295 1.400 . S
C3299 C3298 1.385 . S
C3300 C3298 1.478 . S
C3300 C3302 1.381 . S
C3300 C3306 1.383 . S
C3301 C3297 1.495 . S
C3301 H3307 0.959 . S
C3301 H3308 0.961 . S
C3301 H3309 0.960 . S
C3302 C3300 1.381 . S
C3302 C3303 1.394 . S
C3302 H3310 0.930 . S
C3303 C3302 1.394 . S
C3303 C3304 1.383 . S
C3303 H3311 0.929 . S
C3304 C3303 1.383 . S
C3304 C3305 1.377 . S
C3305 H3289 0.930 . S
C3305 C3304 1.377 . S
C3305 C3306 1.379 . S
C3306 H3290 0.931 . S
C3306 C3300 1.383 . S
C3306 C3305 1.379 . S
H3307 C3301 0.959 . S
H3308 C3301 0.961 . S
H3309 C3301 0.960 . S
H3310 C3302 0.930 . S
H3311 C3303 0.929 . S
H3312 C3320 0.929 . S
H3313 C3322 0.930 . S
H3314 C3324 0.930 . S
H3315 C3327 0.929 . S
H3316 C3330 0.930 . S
H3317 C3332 0.960 . S
H3318 C3332 0.960 . S
H3319 C3332 0.960 1_455 S
C3320 H3312 0.929 . S
C3320 C3321 1.377 . S
C3320 C3322 1.384 . S
C3321 C3320 1.377 . S
C3321 C3327 1.390 . S
C3322 H3313 0.930 . S
C3322 C3320 1.384 . S
C3322 C3323 1.372 . S
C3323 C3322 1.372 . S
C3323 C3324 1.400 . S
C3323 C3328 1.490 . S
C3324 H3314 0.930 . S
C3324 C3323 1.400 . S
C3324 C3327 1.386 . S
H3325 C3341 0.930 . S
H3326 C3342 0.931 . S
C3327 H3315 0.929 . S
C3327 C3321 1.390 . S
C3327 C3324 1.386 . S
C3328 C3323 1.490 . S
C3328 C3330 1.395 . S
C3328 C3331 1.403 1_455 S
H3329 C3335 0.930 . S
C3330 H3316 0.930 . S
C3330 C3328 1.395 . S
C3330 C3333 1.403 . S
C3331 C3328 1.403 1_655 S
C3331 C3332 1.524 . S
C3331 C3335 1.400 . S
C3332 H3317 0.960 . S
C3332 H3318 0.960 . S
C3332 H3319 0.960 1_655 S
C3332 C3331 1.524 . S
C3333 C3330 1.403 . S
C3333 C3334 1.392 1_455 S
C3333 C3337 1.495 . S
C3334 C3333 1.392 1_655 S
C3334 C3335 1.385 . S
C3334 C3336 1.478 . S
C3335 H3329 0.930 . S
C3335 C3331 1.400 . S
C3335 C3334 1.385 . S
C3336 C3334 1.478 . S
C3336 C3338 1.381 . S
C3336 C3342 1.383 . S
C3337 C3333 1.495 . S
C3337 H3343 0.959 . S
C3337 H3344 0.961 . S
C3337 H3345 0.960 1_455 S
C3338 C3336 1.381 . S
C3338 C3339 1.394 . S
C3338 H3346 0.930 . S
C3339 C3338 1.394 . S
C3339 C3340 1.383 . S
C3339 H3347 0.929 . S
C3340 C3339 1.383 . S
C3340 C3341 1.377 . S
C3341 H3325 0.930 . S
C3341 C3340 1.377 . S
C3341 C3342 1.379 . S
C3342 H3326 0.931 . S
C3342 C3336 1.383 . S
C3342 C3341 1.379 . S
H3343 C3337 0.959 . S
H3344 C3337 0.961 . S
H3345 C3337 0.960 1_655 S
H3346 C3338 0.930 . S
H3347 C3339 0.929 . S
H3348 C3356 0.929 . S
H3349 C3358 0.930 . S
H3350 C3360 0.930 . S
H3351 C3363 0.929 . S
H3352 C3366 0.930 . S
H3353 C3368 0.960 . S
H3354 C3368 0.960 . S
H3355 C3368 0.960 . S
C3356 H3348 0.929 . S
C3356 C3357 1.377 . S
C3356 C3358 1.384 . S
C3357 C3356 1.377 . S
C3357 C3363 1.390 . S
C3358 H3349 0.930 . S
C3358 C3356 1.384 . S
C3358 C3359 1.372 . S
C3359 C3358 1.372 . S
C3359 C3360 1.400 . S
C3359 C3364 1.490 . S
C3360 H3350 0.930 . S
C3360 C3359 1.400 . S
C3360 C3363 1.386 . S
H3361 C3377 0.930 . S
H3362 C3378 0.931 . S
C3363 H3351 0.929 . S
C3363 C3357 1.390 . S
C3363 C3360 1.386 . S
C3364 C3359 1.490 . S
C3364 C3366 1.395 . S
C3364 C3367 1.403 . S
H3365 C3371 0.930 . S
C3366 H3352 0.930 . S
C3366 C3364 1.395 . S
C3366 C3369 1.403 . S
C3367 C3364 1.403 . S
C3367 C3368 1.524 . S
C3367 C3371 1.400 . S
C3368 H3353 0.960 . S
C3368 H3354 0.960 . S
C3368 H3355 0.960 . S
C3368 C3367 1.524 . S
C3369 C3366 1.403 . S
C3369 C3370 1.392 . S
C3369 C3373 1.495 . S
C3370 C3369 1.392 . S
C3370 C3371 1.385 . S
C3370 C3372 1.478 . S
C3371 H3365 0.930 . S
C3371 C3367 1.400 . S
C3371 C3370 1.385 . S
C3372 C3370 1.478 . S
C3372 C3374 1.381 . S
C3372 C3378 1.383 . S
C3373 C3369 1.495 . S
C3373 H3379 0.959 . S
C3373 H3380 0.961 . S
C3373 H3381 0.960 . S
C3374 C3372 1.381 . S
C3374 C3375 1.394 . S
C3374 H3382 0.930 . S
C3375 C3374 1.394 . S
C3375 C3376 1.383 . S
C3375 H3383 0.929 . S
C3376 C3375 1.383 . S
C3376 C3377 1.377 . S
C3377 H3361 0.930 . S
C3377 C3376 1.377 . S
C3377 C3378 1.379 . S
C3378 H3362 0.931 . S
C3378 C3372 1.383 . S
C3378 C3377 1.379 . S
H3379 C3373 0.959 . S
H3380 C3373 0.961 . S
H3381 C3373 0.960 . S
H3382 C3374 0.930 . S
H3383 C3375 0.929 . S
H3384 C3392 0.929 . S
H3385 C3394 0.930 . S
H3386 C3396 0.930 . S
H3387 C3399 0.929 . S
H3388 C3402 0.930 . S
H3389 C3404 0.960 . S
H3390 C3404 0.960 . S
H3391 C3404 0.960 . S
C3392 H3384 0.929 . S
C3392 C3393 1.377 . S
C3392 C3394 1.384 . S
C3393 C3392 1.377 . S
C3393 C3399 1.390 . S
C3394 H3385 0.930 . S
C3394 C3392 1.384 . S
C3394 C3395 1.372 . S
C3395 C3394 1.372 . S
C3395 C3396 1.400 . S
C3395 C3400 1.490 . S
C3396 H3386 0.930 . S
C3396 C3395 1.400 . S
C3396 C3399 1.386 . S
H3397 C3413 0.930 . S
H3398 C3414 0.931 . S
C3399 H3387 0.929 . S
C3399 C3393 1.390 . S
C3399 C3396 1.386 . S
C3400 C3395 1.490 . S
C3400 C3402 1.395 . S
C3400 C3403 1.403 . S
H3401 C3407 0.930 . S
C3402 H3388 0.930 . S
C3402 C3400 1.395 . S
C3402 C3405 1.403 . S
C3403 C3400 1.403 . S
C3403 C3404 1.524 . S
C3403 C3407 1.400 . S
C3404 H3389 0.960 . S
C3404 H3390 0.960 . S
C3404 H3391 0.960 . S
C3404 C3403 1.524 . S
C3405 C3402 1.403 . S
C3405 C3406 1.392 . S
C3405 C3409 1.495 . S
C3406 C3405 1.392 . S
C3406 C3407 1.385 . S
C3406 C3408 1.478 . S
C3407 H3401 0.930 . S
C3407 C3403 1.400 . S
C3407 C3406 1.385 . S
C3408 C3406 1.478 . S
C3408 C3410 1.381 . S
C3408 C3414 1.383 . S
C3409 C3405 1.495 . S
C3409 H3415 0.959 . S
C3409 H3416 0.961 . S
C3409 H3417 0.960 . S
C3410 C3408 1.381 . S
C3410 C3411 1.394 . S
C3410 H3418 0.930 . S
C3411 C3410 1.394 . S
C3411 C3412 1.383 . S
C3411 H3419 0.929 . S
C3412 C3411 1.383 . S
C3412 C3413 1.377 . S
C3413 H3397 0.930 . S
C3413 C3412 1.377 . S
C3413 C3414 1.379 . S
C3414 H3398 0.931 . S
C3414 C3408 1.383 . S
C3414 C3413 1.379 . S
H3415 C3409 0.959 . S
H3416 C3409 0.961 . S
H3417 C3409 0.960 . S
H3418 C3410 0.930 . S
H3419 C3411 0.929 . S
H3420 C3428 0.929 . S
H3421 C3430 0.930 . S
H3422 C3432 0.930 . S
H3423 C3435 0.929 . S
H3424 C3438 0.930 . S
H3425 C3440 0.960 . S
H3426 C3440 0.960 . S
H3427 C3440 0.960 . S
C3428 H3420 0.929 . S
C3428 C3429 1.377 . S
C3428 C3430 1.384 . S
C3429 C3428 1.377 . S
C3429 C3435 1.390 . S
C3430 H3421 0.930 . S
C3430 C3428 1.384 . S
C3430 C3431 1.372 . S
C3431 C3430 1.372 . S
C3431 C3432 1.400 . S
C3431 C3436 1.490 . S
C3432 H3422 0.930 . S
C3432 C3431 1.400 . S
C3432 C3435 1.386 . S
H3433 C3449 0.930 . S
H3434 C3450 0.931 . S
C3435 H3423 0.929 . S
C3435 C3429 1.390 . S
C3435 C3432 1.386 . S
C3436 C3431 1.490 . S
C3436 C3438 1.395 . S
C3436 C3439 1.403 . S
H3437 C3443 0.930 . S
C3438 H3424 0.930 . S
C3438 C3436 1.395 . S
C3438 C3441 1.403 . S
C3439 C3436 1.403 . S
C3439 C3440 1.524 . S
C3439 C3443 1.400 . S
C3440 H3425 0.960 . S
C3440 H3426 0.960 . S
C3440 H3427 0.960 . S
C3440 C3439 1.524 . S
C3441 C3438 1.403 . S
C3441 C3442 1.392 . S
C3441 C3445 1.495 . S
C3442 C3441 1.392 . S
C3442 C3443 1.385 . S
C3442 C3444 1.478 . S
C3443 H3437 0.930 . S
C3443 C3439 1.400 . S
C3443 C3442 1.385 . S
C3444 C3442 1.478 . S
C3444 C3446 1.381 . S
C3444 C3450 1.383 . S
C3445 C3441 1.495 . S
C3445 H3451 0.959 . S
C3445 H3452 0.961 . S
C3445 H3453 0.960 . S
C3446 C3444 1.381 . S
C3446 C3447 1.394 . S
C3446 H3454 0.930 . S
C3447 C3446 1.394 . S
C3447 C3448 1.383 . S
C3447 H3455 0.929 . S
C3448 C3447 1.383 . S
C3448 C3449 1.377 . S
C3449 H3433 0.930 . S
C3449 C3448 1.377 . S
C3449 C3450 1.379 . S
C3450 H3434 0.931 . S
C3450 C3444 1.383 . S
C3450 C3449 1.379 . S
H3451 C3445 0.959 . S
H3452 C3445 0.961 . S
H3453 C3445 0.960 . S
H3454 C3446 0.930 . S
H3455 C3447 0.929 . S
H3456 C3464 0.929 . S
H3457 C3466 0.930 . S
H3458 C3468 0.930 . S
H3459 C3471 0.929 . S
H3460 C3474 0.930 . S
H3461 C3476 0.960 . S
H3462 C3476 0.960 . S
H3463 C3476 0.960 . S
C3464 H3456 0.929 . S
C3464 C3465 1.377 . S
C3464 C3466 1.384 . S
C3465 C3464 1.377 . S
C3465 C3471 1.390 . S
C3466 H3457 0.930 . S
C3466 C3464 1.384 . S
C3466 C3467 1.372 . S
C3467 C3466 1.372 . S
C3467 C3468 1.400 . S
C3467 C3472 1.490 . S
C3468 H3458 0.930 . S
C3468 C3467 1.400 . S
C3468 C3471 1.386 . S
H3469 C3485 0.930 . S
H3470 C3486 0.931 . S
C3471 H3459 0.929 . S
C3471 C3465 1.390 . S
C3471 C3468 1.386 . S
C3472 C3467 1.490 . S
C3472 C3474 1.395 . S
C3472 C3475 1.403 . S
H3473 C3479 0.930 . S
C3474 H3460 0.930 . S
C3474 C3472 1.395 . S
C3474 C3477 1.403 . S
C3475 C3472 1.403 . S
C3475 C3476 1.524 . S
C3475 C3479 1.400 . S
C3476 H3461 0.960 . S
C3476 H3462 0.960 . S
C3476 H3463 0.960 . S
C3476 C3475 1.524 . S
C3477 C3474 1.403 . S
C3477 C3478 1.392 . S
C3477 C3481 1.495 . S
C3478 C3477 1.392 . S
C3478 C3479 1.385 . S
C3478 C3480 1.478 . S
C3479 H3473 0.930 . S
C3479 C3475 1.400 . S
C3479 C3478 1.385 . S
C3480 C3478 1.478 . S
C3480 C3482 1.381 . S
C3480 C3486 1.383 . S
C3481 C3477 1.495 . S
C3481 H3487 0.959 . S
C3481 H3488 0.961 . S
C3481 H3489 0.960 . S
C3482 C3480 1.381 . S
C3482 C3483 1.394 1_554 S
C3482 H3490 0.930 . S
C3483 C3482 1.394 1_556 S
C3483 C3484 1.383 . S
C3483 H3491 0.929 . S
C3484 C3483 1.383 . S
C3484 C3485 1.377 . S
C3485 H3469 0.930 . S
C3485 C3484 1.377 . S
C3485 C3486 1.379 1_556 S
C3486 H3470 0.931 . S
C3486 C3480 1.383 . S
C3486 C3485 1.379 1_554 S
H3487 C3481 0.959 . S
H3488 C3481 0.961 . S
H3489 C3481 0.960 . S
H3490 C3482 0.930 . S
H3491 C3483 0.929 . S
H3492 C3500 0.929 . S
H3493 C3502 0.930 . S
H3494 C3504 0.930 . S
H3495 C3507 0.929 . S
H3496 C3510 0.930 . S
H3497 C3512 0.960 . S
H3498 C3512 0.960 . S
H3499 C3512 0.960 . S
C3500 H3492 0.929 . S
C3500 C3501 1.377 . S
C3500 C3502 1.384 . S
C3501 C3500 1.377 . S
C3501 C3507 1.390 . S
C3502 H3493 0.930 . S
C3502 C3500 1.384 . S
C3502 C3503 1.372 . S
C3503 C3502 1.372 . S
C3503 C3504 1.400 . S
C3503 C3508 1.490 . S
C3504 H3494 0.930 . S
C3504 C3503 1.400 . S
C3504 C3507 1.386 . S
H3505 C3521 0.930 . S
H3506 C3522 0.931 . S
C3507 H3495 0.929 . S
C3507 C3501 1.390 . S
C3507 C3504 1.386 . S
C3508 C3503 1.490 . S
C3508 C3510 1.395 . S
C3508 C3511 1.403 . S
H3509 C3515 0.930 . S
C3510 H3496 0.930 . S
C3510 C3508 1.395 . S
C3510 C3513 1.403 . S
C3511 C3508 1.403 . S
C3511 C3512 1.524 . S
C3511 C3515 1.400 . S
C3512 H3497 0.960 . S
C3512 H3498 0.960 . S
C3512 H3499 0.960 . S
C3512 C3511 1.524 . S
C3513 C3510 1.403 . S
C3513 C3514 1.392 . S
C3513 C3517 1.495 . S
C3514 C3513 1.392 . S
C3514 C3515 1.385 . S
C3514 C3516 1.478 . S
C3515 H3509 0.930 . S
C3515 C3511 1.400 . S
C3515 C3514 1.385 . S
C3516 C3514 1.478 . S
C3516 C3518 1.381 . S
C3516 C3522 1.383 . S
C3517 C3513 1.495 . S
C3517 H3523 0.959 . S
C3517 H3524 0.961 . S
C3517 H3525 0.960 . S
C3518 C3516 1.381 . S
C3518 C3519 1.394 . S
C3518 H3526 0.930 . S
C3519 C3518 1.394 . S
C3519 C3520 1.383 1_554 S
C3519 H3527 0.929 . S
C3520 C3519 1.383 1_556 S
C3520 C3521 1.377 . S
C3521 H3505 0.930 . S
C3521 C3520 1.377 . S
C3521 C3522 1.379 1_556 S
C3522 H3506 0.931 . S
C3522 C3516 1.383 . S
C3522 C3521 1.379 1_554 S
H3523 C3517 0.959 . S
H3524 C3517 0.961 . S
H3525 C3517 0.960 . S
H3526 C3518 0.930 . S
H3527 C3519 0.929 . S
H3528 C3536 0.929 . S
H3529 C3538 0.930 . S
H3530 C3540 0.930 . S
H3531 C3543 0.929 . S
H3532 C3546 0.930 . S
H3533 C3548 0.960 . S
H3534 C3548 0.960 . S
H3535 C3548 0.960 . S
C3536 H3528 0.929 . S
C3536 C3537 1.377 1_554 S
C3536 C3538 1.384 . S
C3537 C3536 1.377 1_556 S
C3537 C3543 1.390 . S
C3538 H3529 0.930 . S
C3538 C3536 1.384 . S
C3538 C3539 1.372 . S
C3539 C3538 1.372 . S
C3539 C3540 1.400 . S
C3539 C3544 1.490 . S
C3540 H3530 0.930 . S
C3540 C3539 1.400 . S
C3540 C3543 1.386 1_554 S
H3541 C3557 0.930 . S
H3542 C3558 0.931 . S
C3543 H3531 0.929 . S
C3543 C3537 1.390 . S
C3543 C3540 1.386 1_556 S
C3544 C3539 1.490 . S
C3544 C3546 1.395 . S
C3544 C3547 1.403 . S
H3545 C3551 0.930 . S
C3546 H3532 0.930 . S
C3546 C3544 1.395 . S
C3546 C3549 1.403 . S
C3547 C3544 1.403 . S
C3547 C3548 1.524 . S
C3547 C3551 1.400 . S
C3548 H3533 0.960 . S
C3548 H3534 0.960 . S
C3548 H3535 0.960 . S
C3548 C3547 1.524 . S
C3549 C3546 1.403 . S
C3549 C3550 1.392 . S
C3549 C3553 1.495 . S
C3550 C3549 1.392 . S
C3550 C3551 1.385 . S
C3550 C3552 1.478 . S
C3551 H3545 0.930 . S
C3551 C3547 1.400 . S
C3551 C3550 1.385 . S
C3552 C3550 1.478 . S
C3552 C3554 1.381 . S
C3552 C3558 1.383 . S
C3553 C3549 1.495 . S
C3553 H3559 0.959 . S
C3553 H3560 0.961 . S
C3553 H3561 0.960 . S
C3554 C3552 1.381 . S
C3554 C3555 1.394 . S
C3554 H3562 0.930 . S
C3555 C3554 1.394 . S
C3555 C3556 1.383 . S
C3555 H3563 0.929 . S
C3556 C3555 1.383 . S
C3556 C3557 1.377 . S
C3557 H3541 0.930 . S
C3557 C3556 1.377 . S
C3557 C3558 1.379 . S
C3558 H3542 0.931 . S
C3558 C3552 1.383 . S
C3558 C3557 1.379 . S
H3559 C3553 0.959 . S
H3560 C3553 0.961 . S
H3561 C3553 0.960 . S
H3562 C3554 0.930 . S
H3563 C3555 0.929 . S
H3564 C3572 0.929 . S
H3565 C3574 0.930 . S
H3566 C3576 0.930 . S
H3567 C3579 0.929 . S
H3568 C3582 0.930 . S
H3569 C3584 0.960 . S
H3570 C3584 0.960 . S
H3571 C3584 0.960 . S
C3572 H3564 0.929 . S
C3572 C3573 1.377 . S
C3572 C3574 1.384 1_554 S
C3573 C3572 1.377 . S
C3573 C3579 1.390 . S
C3574 H3565 0.930 . S
C3574 C3572 1.384 1_556 S
C3574 C3575 1.372 . S
C3575 C3574 1.372 . S
C3575 C3576 1.400 . S
C3575 C3580 1.490 . S
C3576 H3566 0.930 . S
C3576 C3575 1.400 . S
C3576 C3579 1.386 1_556 S
H3577 C3593 0.930 . S
H3578 C3594 0.931 . S
C3579 H3567 0.929 . S
C3579 C3573 1.390 . S
C3579 C3576 1.386 1_554 S
C3580 C3575 1.490 . S
C3580 C3582 1.395 . S
C3580 C3583 1.403 . S
H3581 C3587 0.930 . S
C3582 H3568 0.930 . S
C3582 C3580 1.395 . S
C3582 C3585 1.403 . S
C3583 C3580 1.403 . S
C3583 C3584 1.524 . S
C3583 C3587 1.400 . S
C3584 H3569 0.960 . S
C3584 H3570 0.960 . S
C3584 H3571 0.960 . S
C3584 C3583 1.524 . S
C3585 C3582 1.403 . S
C3585 C3586 1.392 . S
C3585 C3589 1.495 . S
C3586 C3585 1.392 . S
C3586 C3587 1.385 . S
C3586 C3588 1.478 . S
C3587 H3581 0.930 . S
C3587 C3583 1.400 . S
C3587 C3586 1.385 . S
C3588 C3586 1.478 . S
C3588 C3590 1.381 . S
C3588 C3594 1.383 . S
C3589 C3585 1.495 . S
C3589 H3595 0.959 . S
C3589 H3596 0.961 . S
C3589 H3597 0.960 . S
C3590 C3588 1.381 . S
C3590 C3591 1.394 . S
C3590 H3598 0.930 . S
C3591 C3590 1.394 . S
C3591 C3592 1.383 . S
C3591 H3599 0.929 . S
C3592 C3591 1.383 . S
C3592 C3593 1.377 . S
C3593 H3577 0.930 . S
C3593 C3592 1.377 . S
C3593 C3594 1.379 . S
C3594 H3578 0.931 . S
C3594 C3588 1.383 . S
C3594 C3593 1.379 . S
H3595 C3589 0.959 . S
H3596 C3589 0.961 . S
H3597 C3589 0.960 . S
H3598 C3590 0.930 . S
H3599 C3591 0.929 . S
H3600 C3608 0.929 . S
H3601 C3610 0.930 . S
H3602 C3612 0.930 1_554 S
H3603 C3615 0.929 . S
H3604 C3618 0.930 . S
H3605 C3620 0.960 . S
H3606 C3620 0.960 . S
H3607 C3620 0.960 . S
C3608 H3600 0.929 . S
C3608 C3609 1.377 1_556 S
C3608 C3610 1.384 . S
C3609 C3608 1.377 1_554 S
C3609 C3615 1.390 . S
C3610 H3601 0.930 . S
C3610 C3608 1.384 . S
C3610 C3611 1.372 . S
C3611 C3610 1.372 . S
C3611 C3612 1.400 . S
C3611 C3616 1.490 . S
C3612 H3602 0.930 1_556 S
C3612 C3611 1.400 . S
C3612 C3615 1.385 1_556 S
H3613 C3629 0.930 . S
H3614 C3630 0.931 . S
C3615 H3603 0.929 . S
C3615 C3609 1.390 . S
C3615 C3612 1.385 1_554 S
C3616 C3611 1.490 . S
C3616 C3618 1.395 . S
C3616 C3619 1.403 . S
H3617 C3623 0.930 . S
C3618 H3604 0.930 . S
C3618 C3616 1.395 . S
C3618 C3621 1.403 . S
C3619 C3616 1.403 . S
C3619 C3620 1.524 . S
C3619 C3623 1.400 . S
C3620 H3605 0.960 . S
C3620 H3606 0.960 . S
C3620 H3607 0.960 . S
C3620 C3619 1.524 . S
C3621 C3618 1.403 . S
C3621 C3622 1.392 . S
C3621 C3625 1.495 . S
C3622 C3621 1.392 . S
C3622 C3623 1.385 . S
C3622 C3624 1.478 . S
C3623 H3617 0.930 . S
C3623 C3619 1.400 . S
C3623 C3622 1.385 . S
C3624 C3622 1.478 . S
C3624 C3626 1.381 . S
C3624 C3630 1.383 . S
C3625 C3621 1.495 . S
C3625 H3631 0.959 . S
C3625 H3632 0.961 . S
C3625 H3633 0.960 . S
C3626 C3624 1.381 . S
C3626 C3627 1.394 . S
C3626 H3634 0.930 . S
C3627 C3626 1.394 . S
C3627 C3628 1.383 . S
C3627 H3635 0.929 . S
C3628 C3627 1.383 . S
C3628 C3629 1.377 . S
C3629 H3613 0.930 . S
C3629 C3628 1.377 . S
C3629 C3630 1.379 . S
C3630 H3614 0.931 . S
C3630 C3624 1.383 . S
C3630 C3629 1.379 . S
H3631 C3625 0.959 . S
H3632 C3625 0.961 . S
H3633 C3625 0.960 . S
H3634 C3626 0.930 . S
H3635 C3627 0.929 . S
H3636 C3644 0.929 . S
H3637 C3646 0.930 . S
H3638 C3648 0.930 . S
H3639 C3651 0.929 . S
H3640 C3654 0.930 . S
H3641 C3656 0.960 . S
H3642 C3656 0.960 . S
H3643 C3656 0.960 . S
C3644 H3636 0.929 . S
C3644 C3645 1.377 . S
C3644 C3646 1.384 . S
C3645 C3644 1.377 . S
C3645 C3651 1.390 . S
C3646 H3637 0.930 . S
C3646 C3644 1.384 . S
C3646 C3647 1.372 . S
C3647 C3646 1.372 . S
C3647 C3648 1.400 . S
C3647 C3652 1.490 . S
C3648 H3638 0.930 . S
C3648 C3647 1.400 . S
C3648 C3651 1.386 . S
H3649 C3665 0.930 . S
H3650 C3666 0.931 . S
C3651 H3639 0.929 . S
C3651 C3645 1.390 . S
C3651 C3648 1.386 . S
C3652 C3647 1.490 . S
C3652 C3654 1.395 . S
C3652 C3655 1.403 . S
H3653 C3659 0.930 . S
C3654 H3640 0.930 . S
C3654 C3652 1.395 . S
C3654 C3657 1.403 . S
C3655 C3652 1.403 . S
C3655 C3656 1.524 . S
C3655 C3659 1.400 . S
C3656 H3641 0.960 . S
C3656 H3642 0.960 . S
C3656 H3643 0.960 . S
C3656 C3655 1.524 . S
C3657 C3654 1.403 . S
C3657 C3658 1.392 . S
C3657 C3661 1.495 . S
C3658 C3657 1.392 . S
C3658 C3659 1.385 . S
C3658 C3660 1.478 . S
C3659 H3653 0.930 . S
C3659 C3655 1.400 . S
C3659 C3658 1.385 . S
C3660 C3658 1.478 . S
C3660 C3662 1.381 1_556 S
C3660 C3666 1.383 . S
C3661 C3657 1.495 . S
C3661 H3667 0.959 . S
C3661 H3668 0.961 . S
C3661 H3669 0.960 . S
C3662 C3660 1.381 1_554 S
C3662 C3663 1.394 . S
C3662 H3670 0.930 . S
C3663 C3662 1.394 . S
C3663 C3664 1.383 . S
C3663 H3671 0.929 . S
C3664 C3663 1.383 . S
C3664 C3665 1.377 1_554 S
C3665 H3649 0.930 . S
C3665 C3664 1.377 1_556 S
C3665 C3666 1.379 . S
C3666 H3650 0.931 . S
C3666 C3660 1.383 . S
C3666 C3665 1.379 . S
H3667 C3661 0.959 . S
H3668 C3661 0.961 . S
H3669 C3661 0.960 . S
H3670 C3662 0.930 . S
H3671 C3663 0.929 . S
H3672 C3680 0.929 . S
H3673 C3682 0.930 . S
H3674 C3684 0.930 . S
H3675 C3687 0.929 . S
H3676 C3690 0.930 . S
H3677 C3692 0.960 . S
H3678 C3692 0.960 . S
H3679 C3692 0.960 . S
C3680 H3672 0.929 . S
C3680 C3681 1.377 . S
C3680 C3682 1.384 . S
C3681 C3680 1.377 . S
C3681 C3687 1.390 . S
C3682 H3673 0.930 . S
C3682 C3680 1.384 . S
C3682 C3683 1.372 . S
C3683 C3682 1.372 . S
C3683 C3684 1.400 . S
C3683 C3688 1.490 . S
C3684 H3674 0.930 . S
C3684 C3683 1.400 . S
C3684 C3687 1.386 . S
H3685 C3701 0.930 . S
H3686 C3702 0.931 . S
C3687 H3675 0.929 . S
C3687 C3681 1.390 . S
C3687 C3684 1.386 . S
C3688 C3683 1.490 . S
C3688 C3690 1.395 . S
C3688 C3691 1.403 . S
H3689 C3695 0.930 . S
C3690 H3676 0.930 . S
C3690 C3688 1.395 . S
C3690 C3693 1.403 . S
C3691 C3688 1.403 . S
C3691 C3692 1.524 . S
C3691 C3695 1.400 . S
C3692 H3677 0.960 . S
C3692 H3678 0.960 . S
C3692 H3679 0.960 . S
C3692 C3691 1.524 . S
C3693 C3690 1.403 . S
C3693 C3694 1.392 . S
C3693 C3697 1.495 . S
C3694 C3693 1.392 . S
C3694 C3695 1.385 . S
C3694 C3696 1.478 . S
C3695 H3689 0.930 . S
C3695 C3691 1.400 . S
C3695 C3694 1.385 . S
C3696 C3694 1.478 . S
C3696 C3698 1.381 . S
C3696 C3702 1.383 . S
C3697 C3693 1.495 . S
C3697 H3703 0.959 . S
C3697 H3704 0.961 . S
C3697 H3705 0.960 . S
C3698 C3696 1.381 . S
C3698 C3699 1.394 . S
C3698 H3706 0.930 . S
C3699 C3698 1.394 . S
C3699 C3700 1.383 . S
C3699 H3707 0.929 . S
C3700 C3699 1.383 . S
C3700 C3701 1.377 . S
C3701 H3685 0.930 . S
C3701 C3700 1.377 . S
C3701 C3702 1.379 . S
C3702 H3686 0.931 . S
C3702 C3696 1.383 . S
C3702 C3701 1.379 . S
H3703 C3697 0.959 . S
H3704 C3697 0.961 . S
H3705 C3697 0.960 . S
H3706 C3698 0.930 . S
H3707 C3699 0.929 . S
H3708 C3716 0.929 . S
H3709 C3718 0.930 . S
H3710 C3720 0.930 . S
H3711 C3723 0.929 . S
H3712 C3726 0.930 . S
H3713 C3728 0.960 . S
H3714 C3728 0.960 . S
H3715 C3728 0.960 . S
C3716 H3708 0.929 . S
C3716 C3717 1.377 . S
C3716 C3718 1.384 . S
C3717 C3716 1.377 . S
C3717 C3723 1.390 . S
C3718 H3709 0.930 . S
C3718 C3716 1.384 . S
C3718 C3719 1.372 . S
C3719 C3718 1.372 . S
C3719 C3720 1.400 . S
C3719 C3724 1.490 . S
C3720 H3710 0.930 . S
C3720 C3719 1.400 . S
C3720 C3723 1.386 . S
H3721 C3737 0.930 . S
H3722 C3738 0.931 . S
C3723 H3711 0.929 . S
C3723 C3717 1.390 . S
C3723 C3720 1.386 . S
C3724 C3719 1.490 . S
C3724 C3726 1.395 . S
C3724 C3727 1.403 . S
H3725 C3731 0.930 . S
C3726 H3712 0.930 . S
C3726 C3724 1.395 . S
C3726 C3729 1.403 . S
C3727 C3724 1.403 . S
C3727 C3728 1.524 . S
C3727 C3731 1.400 . S
C3728 H3713 0.960 . S
C3728 H3714 0.960 . S
C3728 H3715 0.960 . S
C3728 C3727 1.524 . S
C3729 C3726 1.403 . S
C3729 C3730 1.392 . S
C3729 C3733 1.495 . S
C3730 C3729 1.392 . S
C3730 C3731 1.385 . S
C3730 C3732 1.478 . S
C3731 H3725 0.930 . S
C3731 C3727 1.400 . S
C3731 C3730 1.385 . S
C3732 C3730 1.478 . S
C3732 C3734 1.381 . S
C3732 C3738 1.383 . S
C3733 C3729 1.495 . S
C3733 H3739 0.959 . S
C3733 H3740 0.961 . S
C3733 H3741 0.960 . S
C3734 C3732 1.381 . S
C3734 C3735 1.394 . S
C3734 H3742 0.930 . S
C3735 C3734 1.394 . S
C3735 C3736 1.383 . S
C3735 H3743 0.929 . S
C3736 C3735 1.383 . S
C3736 C3737 1.377 . S
C3737 H3721 0.930 . S
C3737 C3736 1.377 . S
C3737 C3738 1.379 . S
C3738 H3722 0.931 . S
C3738 C3732 1.383 . S
C3738 C3737 1.379 . S
H3739 C3733 0.959 . S
H3740 C3733 0.961 . S
H3741 C3733 0.960 . S
H3742 C3734 0.930 . S
H3743 C3735 0.929 . S
H3744 C3752 0.929 . S
H3745 C3754 0.930 . S
H3746 C3756 0.930 . S
H3747 C3759 0.929 . S
H3748 C3762 0.930 . S
H3749 C3764 0.960 . S
H3750 C3764 0.960 . S
H3751 C3764 0.960 . S
C3752 H3744 0.929 . S
C3752 C3753 1.377 . S
C3752 C3754 1.384 . S
C3753 C3752 1.377 . S
C3753 C3759 1.390 . S
C3754 H3745 0.930 . S
C3754 C3752 1.384 . S
C3754 C3755 1.372 . S
C3755 C3754 1.372 . S
C3755 C3756 1.400 . S
C3755 C3760 1.490 . S
C3756 H3746 0.930 . S
C3756 C3755 1.400 . S
C3756 C3759 1.386 . S
H3757 C3773 0.930 . S
H3758 C3774 0.931 . S
C3759 H3747 0.929 . S
C3759 C3753 1.390 . S
C3759 C3756 1.386 . S
C3760 C3755 1.490 . S
C3760 C3762 1.395 . S
C3760 C3763 1.403 . S
H3761 C3767 0.930 . S
C3762 H3748 0.930 . S
C3762 C3760 1.395 . S
C3762 C3765 1.403 . S
C3763 C3760 1.403 . S
C3763 C3764 1.524 . S
C3763 C3767 1.400 . S
C3764 H3749 0.960 . S
C3764 H3750 0.960 . S
C3764 H3751 0.960 . S
C3764 C3763 1.524 . S
C3765 C3762 1.403 . S
C3765 C3766 1.392 . S
C3765 C3769 1.495 . S
C3766 C3765 1.392 . S
C3766 C3767 1.385 . S
C3766 C3768 1.478 . S
C3767 H3761 0.930 . S
C3767 C3763 1.400 . S
C3767 C3766 1.385 . S
C3768 C3766 1.478 . S
C3768 C3770 1.381 . S
C3768 C3774 1.383 . S
C3769 C3765 1.495 . S
C3769 H3775 0.959 . S
C3769 H3776 0.961 . S
C3769 H3777 0.960 . S
C3770 C3768 1.381 . S
C3770 C3771 1.394 . S
C3770 H3778 0.930 . S
C3771 C3770 1.394 . S
C3771 C3772 1.383 . S
C3771 H3779 0.929 . S
C3772 C3771 1.383 . S
C3772 C3773 1.377 . S
C3773 H3757 0.930 . S
C3773 C3772 1.377 . S
C3773 C3774 1.379 . S
C3774 H3758 0.931 . S
C3774 C3768 1.383 . S
C3774 C3773 1.379 . S
H3775 C3769 0.959 . S
H3776 C3769 0.961 . S
H3777 C3769 0.960 . S
H3778 C3770 0.930 . S
H3779 C3771 0.929 . S
H3780 C3788 0.929 . S
H3781 C3790 0.930 . S
H3782 C3792 0.930 . S
H3783 C3795 0.929 . S
H3784 C3798 0.930 . S
H3785 C3800 0.960 . S
H3786 C3800 0.960 . S
H3787 C3800 0.960 . S
C3788 H3780 0.929 . S
C3788 C3789 1.377 . S
C3788 C3790 1.384 . S
C3789 C3788 1.377 . S
C3789 C3795 1.390 1_556 S
C3790 H3781 0.930 . S
C3790 C3788 1.384 . S
C3790 C3791 1.372 . S
C3791 C3790 1.372 . S
C3791 C3792 1.400 . S
C3791 C3796 1.490 . S
C3792 H3782 0.930 . S
C3792 C3791 1.400 . S
C3792 C3795 1.386 1_556 S
H3793 C3809 0.930 . S
H3794 C3810 0.931 . S
C3795 H3783 0.929 . S
C3795 C3789 1.390 1_554 S
C3795 C3792 1.386 1_554 S
C3796 C3791 1.490 . S
C3796 C3798 1.395 . S
C3796 C3799 1.403 . S
H3797 C3803 0.930 . S
C3798 H3784 0.930 . S
C3798 C3796 1.395 . S
C3798 C3801 1.403 . S
C3799 C3796 1.403 . S
C3799 C3800 1.524 . S
C3799 C3803 1.400 . S
C3800 H3785 0.960 . S
C3800 H3786 0.960 . S
C3800 H3787 0.960 . S
C3800 C3799 1.524 . S
C3801 C3798 1.403 . S
C3801 C3802 1.392 . S
C3801 C3805 1.495 . S
C3802 C3801 1.392 . S
C3802 C3803 1.385 . S
C3802 C3804 1.478 . S
C3803 H3797 0.930 . S
C3803 C3799 1.400 . S
C3803 C3802 1.385 . S
C3804 C3802 1.478 . S
C3804 C3806 1.381 . S
C3804 C3810 1.383 . S
C3805 C3801 1.495 . S
C3805 H3811 0.959 . S
C3805 H3812 0.961 . S
C3805 H3813 0.960 . S
C3806 C3804 1.381 . S
C3806 C3807 1.394 . S
C3806 H3814 0.930 . S
C3807 C3806 1.394 . S
C3807 C3808 1.383 . S
C3807 H3815 0.929 . S
C3808 C3807 1.383 . S
C3808 C3809 1.377 . S
C3809 H3793 0.930 . S
C3809 C3808 1.377 . S
C3809 C3810 1.379 . S
C3810 H3794 0.931 . S
C3810 C3804 1.383 . S
C3810 C3809 1.379 . S
H3811 C3805 0.959 . S
H3812 C3805 0.961 . S
H3813 C3805 0.960 . S
H3814 C3806 0.930 . S
H3815 C3807 0.929 . S
H3816 C3824 0.929 . S
H3817 C3826 0.930 . S
H3818 C3828 0.930 . S
H3819 C3831 0.929 . S
H3820 C3834 0.930 . S
H3821 C3836 0.960 . S
H3822 C3836 0.960 . S
H3823 C3836 0.960 . S
C3824 H3816 0.929 . S
C3824 C3825 1.377 . S
C3824 C3826 1.384 . S
C3825 C3824 1.377 . S
C3825 C3831 1.390 . S
C3826 H3817 0.930 . S
C3826 C3824 1.384 . S
C3826 C3827 1.372 . S
C3827 C3826 1.372 . S
C3827 C3828 1.400 . S
C3827 C3832 1.490 . S
C3828 H3818 0.930 . S
C3828 C3827 1.400 . S
C3828 C3831 1.386 . S
H3829 C3845 0.930 . S
H3830 C3846 0.931 . S
C3831 H3819 0.929 . S
C3831 C3825 1.390 . S
C3831 C3828 1.386 . S
C3832 C3827 1.490 . S
C3832 C3834 1.395 . S
C3832 C3835 1.403 . S
H3833 C3839 0.930 . S
C3834 H3820 0.930 . S
C3834 C3832 1.395 . S
C3834 C3837 1.403 . S
C3835 C3832 1.403 . S
C3835 C3836 1.524 . S
C3835 C3839 1.400 . S
C3836 H3821 0.960 . S
C3836 H3822 0.960 . S
C3836 H3823 0.960 . S
C3836 C3835 1.524 . S
C3837 C3834 1.403 . S
C3837 C3838 1.392 . S
C3837 C3841 1.495 . S
C3838 C3837 1.392 . S
C3838 C3839 1.385 . S
C3838 C3840 1.478 . S
C3839 H3833 0.930 . S
C3839 C3835 1.400 . S
C3839 C3838 1.385 . S
C3840 C3838 1.478 . S
C3840 C3842 1.381 . S
C3840 C3846 1.383 . S
C3841 C3837 1.495 . S
C3841 H3847 0.959 . S
C3841 H3848 0.961 . S
C3841 H3849 0.960 . S
C3842 C3840 1.381 . S
C3842 C3843 1.394 . S
C3842 H3850 0.930 . S
C3843 C3842 1.394 . S
C3843 C3844 1.383 . S
C3843 H3851 0.929 . S
C3844 C3843 1.383 . S
C3844 C3845 1.377 . S
C3845 H3829 0.930 . S
C3845 C3844 1.377 . S
C3845 C3846 1.379 . S
C3846 H3830 0.931 . S
C3846 C3840 1.383 . S
C3846 C3845 1.379 . S
H3847 C3841 0.959 . S
H3848 C3841 0.961 . S
H3849 C3841 0.960 . S
H3850 C3842 0.930 . S
H3851 C3843 0.929 . S
H3852 C3860 0.929 . S
H3853 C3862 0.930 . S
H3854 C3864 0.930 . S
H3855 C3867 0.929 . S
H3856 C3870 0.930 . S
H3857 C3872 0.960 . S
H3858 C3872 0.960 . S
H3859 C3872 0.960 . S
C3860 H3852 0.929 . S
C3860 C3861 1.377 . S
C3860 C3862 1.384 . S
C3861 C3860 1.377 . S
C3861 C3867 1.390 . S
C3862 H3853 0.930 . S
C3862 C3860 1.384 . S
C3862 C3863 1.372 . S
C3863 C3862 1.372 . S
C3863 C3864 1.400 . S
C3863 C3868 1.490 . S
C3864 H3854 0.930 . S
C3864 C3863 1.400 . S
C3864 C3867 1.386 . S
H3865 C3881 0.930 . S
H3866 C3882 0.931 . S
C3867 H3855 0.929 . S
C3867 C3861 1.390 . S
C3867 C3864 1.386 . S
C3868 C3863 1.490 . S
C3868 C3870 1.395 . S
C3868 C3871 1.403 . S
H3869 C3875 0.930 . S
C3870 H3856 0.930 . S
C3870 C3868 1.395 . S
C3870 C3873 1.403 . S
C3871 C3868 1.403 . S
C3871 C3872 1.524 . S
C3871 C3875 1.400 . S
C3872 H3857 0.960 . S
C3872 H3858 0.960 . S
C3872 H3859 0.960 . S
C3872 C3871 1.524 . S
C3873 C3870 1.403 . S
C3873 C3874 1.392 . S
C3873 C3877 1.495 . S
C3874 C3873 1.392 . S
C3874 C3875 1.385 . S
C3874 C3876 1.478 . S
C3875 H3869 0.930 . S
C3875 C3871 1.400 . S
C3875 C3874 1.385 . S
C3876 C3874 1.478 . S
C3876 C3878 1.381 . S
C3876 C3882 1.383 . S
C3877 C3873 1.495 . S
C3877 H3883 0.959 . S
C3877 H3884 0.961 . S
C3877 H3885 0.960 . S
C3878 C3876 1.381 . S
C3878 C3879 1.394 . S
C3878 H3886 0.930 . S
C3879 C3878 1.394 . S
C3879 C3880 1.383 . S
C3879 H3887 0.929 1_556 S
C3880 C3879 1.383 . S
C3880 C3881 1.377 . S
C3881 H3865 0.930 . S
C3881 C3880 1.377 . S
C3881 C3882 1.379 . S
C3882 H3866 0.931 . S
C3882 C3876 1.383 . S
C3882 C3881 1.379 . S
H3883 C3877 0.959 . S
H3884 C3877 0.961 . S
H3885 C3877 0.960 . S
H3886 C3878 0.930 . S
H3887 C3879 0.929 1_554 S
H3888 C3896 0.929 . S
H3889 C3898 0.930 . S
H3890 C3900 0.930 . S
H3891 C3903 0.929 . S
H3892 C3906 0.930 . S
H3893 C3908 0.960 . S
H3894 C3908 0.960 . S
H3895 C3908 0.960 . S
C3896 H3888 0.929 . S
C3896 C3897 1.377 . S
C3896 C3898 1.384 . S
C3897 C3896 1.377 . S
C3897 C3903 1.390 . S
C3898 H3889 0.930 . S
C3898 C3896 1.384 . S
C3898 C3899 1.372 . S
C3899 C3898 1.372 . S
C3899 C3900 1.400 . S
C3899 C3904 1.490 . S
C3900 H3890 0.930 . S
C3900 C3899 1.400 . S
C3900 C3903 1.386 . S
H3901 C3917 0.930 . S
H3902 C3918 0.931 . S
C3903 H3891 0.929 . S
C3903 C3897 1.390 . S
C3903 C3900 1.386 . S
C3904 C3899 1.490 . S
C3904 C3906 1.395 . S
C3904 C3907 1.403 . S
H3905 C3911 0.930 . S
C3906 H3892 0.930 . S
C3906 C3904 1.395 . S
C3906 C3909 1.403 . S
C3907 C3904 1.403 . S
C3907 C3908 1.524 . S
C3907 C3911 1.400 . S
C3908 H3893 0.960 . S
C3908 H3894 0.960 . S
C3908 H3895 0.960 . S
C3908 C3907 1.524 . S
C3909 C3906 1.403 . S
C3909 C3910 1.392 . S
C3909 C3913 1.495 . S
C3910 C3909 1.392 . S
C3910 C3911 1.385 . S
C3910 C3912 1.478 . S
C3911 H3905 0.930 . S
C3911 C3907 1.400 . S
C3911 C3910 1.385 . S
C3912 C3910 1.478 . S
C3912 C3914 1.381 . S
C3912 C3918 1.383 . S
C3913 C3909 1.495 . S
C3913 H3919 0.959 . S
C3913 H3920 0.961 . S
C3913 H3921 0.960 . S
C3914 C3912 1.381 . S
C3914 C3915 1.394 . S
C3914 H3922 0.930 . S
C3915 C3914 1.394 . S
C3915 C3916 1.383 . S
C3915 H3923 0.929 . S
C3916 C3915 1.383 . S
C3916 C3917 1.377 . S
C3917 H3901 0.930 . S
C3917 C3916 1.377 . S
C3917 C3918 1.379 . S
C3918 H3902 0.931 . S
C3918 C3912 1.383 . S
C3918 C3917 1.379 . S
H3919 C3913 0.959 . S
H3920 C3913 0.961 . S
H3921 C3913 0.960 . S
H3922 C3914 0.930 . S
H3923 C3915 0.929 . S
H3924 C3932 0.929 . S
H3925 C3934 0.930 . S
H3926 C3936 0.930 . S
H3927 C3939 0.929 . S
H3928 C3942 0.930 . S
H3929 C3944 0.960 . S
H3930 C3944 0.960 . S
H3931 C3944 0.960 . S
C3932 H3924 0.929 . S
C3932 C3933 1.377 . S
C3932 C3934 1.384 . S
C3933 C3932 1.377 . S
C3933 C3939 1.390 . S
C3934 H3925 0.930 . S
C3934 C3932 1.384 . S
C3934 C3935 1.372 . S
C3935 C3934 1.372 . S
C3935 C3936 1.400 . S
C3935 C3940 1.490 . S
C3936 H3926 0.930 . S
C3936 C3935 1.400 . S
C3936 C3939 1.386 . S
H3937 C3953 0.930 . S
H3938 C3954 0.931 . S
C3939 H3927 0.929 . S
C3939 C3933 1.390 . S
C3939 C3936 1.386 . S
C3940 C3935 1.490 . S
C3940 C3942 1.395 . S
C3940 C3943 1.403 . S
H3941 C3947 0.930 . S
C3942 H3928 0.930 . S
C3942 C3940 1.395 . S
C3942 C3945 1.403 . S
C3943 C3940 1.403 . S
C3943 C3944 1.524 . S
C3943 C3947 1.400 . S
C3944 H3929 0.960 . S
C3944 H3930 0.960 . S
C3944 H3931 0.960 . S
C3944 C3943 1.524 . S
C3945 C3942 1.403 . S
C3945 C3946 1.392 . S
C3945 C3949 1.495 . S
C3946 C3945 1.392 . S
C3946 C3947 1.385 . S
C3946 C3948 1.478 . S
C3947 H3941 0.930 . S
C3947 C3943 1.400 . S
C3947 C3946 1.385 . S
C3948 C3946 1.478 . S
C3948 C3950 1.381 . S
C3948 C3954 1.383 . S
C3949 C3945 1.495 . S
C3949 H3955 0.959 . S
C3949 H3956 0.961 . S
C3949 H3957 0.960 . S
C3950 C3948 1.381 . S
C3950 C3951 1.394 . S
C3950 H3958 0.930 . S
C3951 C3950 1.394 . S
C3951 C3952 1.383 . S
C3951 H3959 0.929 . S
C3952 C3951 1.383 . S
C3952 C3953 1.377 . S
C3953 H3937 0.930 . S
C3953 C3952 1.377 . S
C3953 C3954 1.379 . S
C3954 H3938 0.931 . S
C3954 C3948 1.383 . S
C3954 C3953 1.379 . S
H3955 C3949 0.959 . S
H3956 C3949 0.961 . S
H3957 C3949 0.960 . S
H3958 C3950 0.930 . S
H3959 C3951 0.929 . S
H3960 C3968 0.929 . S
H3961 C3970 0.930 . S
H3962 C3972 0.930 . S
H3963 C3975 0.929 . S
H3964 C3978 0.930 . S
H3965 C3980 0.960 . S
H3966 C3980 0.960 . S
H3967 C3980 0.960 . S
C3968 H3960 0.929 . S
C3968 C3969 1.377 . S
C3968 C3970 1.384 . S
C3969 C3968 1.377 . S
C3969 C3975 1.390 . S
C3970 H3961 0.930 . S
C3970 C3968 1.384 . S
C3970 C3971 1.372 . S
C3971 C3970 1.372 . S
C3971 C3972 1.400 . S
C3971 C3976 1.490 . S
C3972 H3962 0.930 . S
C3972 C3971 1.400 . S
C3972 C3975 1.386 . S
H3973 C3989 0.930 . S
H3974 C3990 0.931 . S
C3975 H3963 0.929 . S
C3975 C3969 1.390 . S
C3975 C3972 1.386 . S
C3976 C3971 1.490 . S
C3976 C3978 1.395 . S
C3976 C3979 1.403 . S
H3977 C3983 0.930 . S
C3978 H3964 0.930 . S
C3978 C3976 1.395 . S
C3978 C3981 1.403 . S
C3979 C3976 1.403 . S
C3979 C3980 1.524 . S
C3979 C3983 1.400 . S
C3980 H3965 0.960 . S
C3980 H3966 0.960 . S
C3980 H3967 0.960 . S
C3980 C3979 1.524 . S
C3981 C3978 1.403 . S
C3981 C3982 1.392 . S
C3981 C3985 1.495 . S
C3982 C3981 1.392 . S
C3982 C3983 1.385 . S
C3982 C3984 1.478 . S
C3983 H3977 0.930 . S
C3983 C3979 1.400 . S
C3983 C3982 1.385 . S
C3984 C3982 1.478 . S
C3984 C3986 1.381 . S
C3984 C3990 1.383 . S
C3985 C3981 1.495 . S
C3985 H3991 0.959 . S
C3985 H3992 0.961 . S
C3985 H3993 0.960 . S
C3986 C3984 1.381 . S
C3986 C3987 1.394 . S
C3986 H3994 0.930 . S
C3987 C3986 1.394 . S
C3987 C3988 1.383 . S
C3987 H3995 0.929 . S
C3988 C3987 1.383 . S
C3988 C3989 1.377 . S
C3989 H3973 0.930 . S
C3989 C3988 1.377 . S
C3989 C3990 1.379 . S
C3990 H3974 0.931 . S
C3990 C3984 1.383 . S
C3990 C3989 1.379 . S
H3991 C3985 0.959 . S
H3992 C3985 0.961 . S
H3993 C3985 0.960 . S
H3994 C3986 0.930 . S
H3995 C3987 0.929 . S
H3996 C4004 0.929 1_556 S
H3997 C4006 0.930 . S
H3998 C4008 0.930 . S
H3999 C4011 0.929 . S
H4000 C4014 0.930 . S
H4001 C4016 0.960 . S
H4002 C4016 0.960 . S
H4003 C4016 0.960 . S
C4004 H3996 0.929 1_554 S
C4004 C4005 1.377 . S
C4004 C4006 1.384 . S
C4005 C4004 1.377 . S
C4005 C4011 1.390 . S
C4006 H3997 0.930 . S
C4006 C4004 1.384 . S
C4006 C4007 1.372 . S
C4007 C4006 1.372 . S
C4007 C4008 1.400 . S
C4007 C4012 1.490 . S
C4008 H3998 0.930 . S
C4008 C4007 1.400 . S
C4008 C4011 1.386 . S
H4009 C4025 0.930 . S
H4010 C4026 0.931 . S
C4011 H3999 0.929 . S
C4011 C4005 1.390 . S
C4011 C4008 1.386 . S
C4012 C4007 1.490 . S
C4012 C4014 1.395 . S
C4012 C4015 1.403 . S
H4013 C4019 0.930 . S
C4014 H4000 0.930 . S
C4014 C4012 1.395 . S
C4014 C4017 1.403 . S
C4015 C4012 1.403 . S
C4015 C4016 1.524 . S
C4015 C4019 1.400 . S
C4016 H4001 0.960 . S
C4016 H4002 0.960 . S
C4016 H4003 0.960 . S
C4016 C4015 1.524 . S
C4017 C4014 1.403 . S
C4017 C4018 1.392 . S
C4017 C4021 1.495 . S
C4018 C4017 1.392 . S
C4018 C4019 1.385 . S
C4018 C4020 1.478 . S
C4019 H4013 0.930 . S
C4019 C4015 1.400 . S
C4019 C4018 1.385 . S
C4020 C4018 1.478 . S
C4020 C4022 1.381 . S
C4020 C4026 1.383 . S
C4021 C4017 1.495 . S
C4021 H4027 0.959 . S
C4021 H4028 0.961 . S
C4021 H4029 0.960 . S
C4022 C4020 1.381 . S
C4022 C4023 1.394 . S
C4022 H4030 0.930 . S
C4023 C4022 1.394 . S
C4023 C4024 1.383 . S
C4023 H4031 0.929 . S
C4024 C4023 1.383 . S
C4024 C4025 1.377 . S
C4025 H4009 0.930 . S
C4025 C4024 1.377 . S
C4025 C4026 1.379 . S
C4026 H4010 0.931 . S
C4026 C4020 1.383 . S
C4026 C4025 1.379 . S
H4027 C4021 0.959 . S
H4028 C4021 0.961 . S
H4029 C4021 0.960 . S
H4030 C4022 0.930 . S
H4031 C4023 0.929 . S
H4032 C4040 0.929 . S
H4033 C4042 0.930 . S
H4034 C4044 0.930 . S
H4035 C4047 0.929 . S
H4036 C4050 0.930 . S
H4037 C4052 0.960 . S
H4038 C4052 0.960 . S
H4039 C4052 0.960 . S
C4040 H4032 0.929 . S
C4040 C4041 1.377 . S
C4040 C4042 1.384 . S
C4041 C4040 1.377 . S
C4041 C4047 1.390 . S
C4042 H4033 0.930 . S
C4042 C4040 1.384 . S
C4042 C4043 1.372 . S
C4043 C4042 1.372 . S
C4043 C4044 1.400 . S
C4043 C4048 1.490 . S
C4044 H4034 0.930 . S
C4044 C4043 1.400 . S
C4044 C4047 1.386 . S
H4045 C4061 0.930 . S
H4046 C4062 0.931 . S
C4047 H4035 0.929 . S
C4047 C4041 1.390 . S
C4047 C4044 1.386 . S
C4048 C4043 1.490 . S
C4048 C4050 1.395 . S
C4048 C4051 1.403 . S
H4049 C4055 0.930 . S
C4050 H4036 0.930 . S
C4050 C4048 1.395 . S
C4050 C4053 1.403 . S
C4051 C4048 1.403 . S
C4051 C4052 1.524 . S
C4051 C4055 1.400 . S
C4052 H4037 0.960 . S
C4052 H4038 0.960 . S
C4052 H4039 0.960 . S
C4052 C4051 1.524 . S
C4053 C4050 1.403 . S
C4053 C4054 1.392 . S
C4053 C4057 1.495 . S
C4054 C4053 1.392 . S
C4054 C4055 1.385 . S
C4054 C4056 1.478 . S
C4055 H4049 0.930 . S
C4055 C4051 1.400 . S
C4055 C4054 1.385 . S
C4056 C4054 1.478 . S
C4056 C4058 1.381 . S
C4056 C4062 1.383 . S
C4057 C4053 1.495 . S
C4057 H4063 0.959 . S
C4057 H4064 0.961 . S
C4057 H4065 0.960 . S
C4058 C4056 1.381 . S
C4058 C4059 1.394 1_554 S
C4058 H4066 0.930 . S
C4059 C4058 1.394 1_556 S
C4059 C4060 1.383 1_556 S
C4059 H4067 0.929 . S
C4060 C4059 1.383 1_554 S
C4060 C4061 1.377 . S
C4061 H4045 0.930 . S
C4061 C4060 1.377 . S
C4061 C4062 1.379 . S
C4062 H4046 0.931 . S
C4062 C4056 1.383 . S
C4062 C4061 1.379 . S
H4063 C4057 0.959 . S
H4064 C4057 0.961 . S
H4065 C4057 0.960 . S
H4066 C4058 0.930 . S
H4067 C4059 0.929 . S
H4068 C4076 0.929 . S
H4069 C4078 0.930 . S
H4070 C4080 0.930 . S
H4071 C4083 0.929 1_556 S
H4072 C4086 0.930 . S
H4073 C4088 0.960 . S
H4074 C4088 0.960 . S
H4075 C4088 0.960 . S
C4076 H4068 0.929 . S
C4076 C4077 1.377 . S
C4076 C4078 1.384 . S
C4077 C4076 1.377 . S
C4077 C4083 1.390 . S
C4078 H4069 0.930 . S
C4078 C4076 1.384 . S
C4078 C4079 1.372 . S
C4079 C4078 1.372 . S
C4079 C4080 1.400 . S
C4079 C4084 1.490 . S
C4080 H4070 0.930 . S
C4080 C4079 1.400 . S
C4080 C4083 1.386 . S
H4081 C4097 0.930 . S
H4082 C4098 0.931 . S
C4083 H4071 0.929 1_554 S
C4083 C4077 1.390 . S
C4083 C4080 1.386 . S
C4084 C4079 1.490 . S
C4084 C4086 1.395 . S
C4084 C4087 1.403 . S
H4085 C4091 0.930 . S
C4086 H4072 0.930 . S
C4086 C4084 1.395 . S
C4086 C4089 1.403 . S
C4087 C4084 1.403 . S
C4087 C4088 1.524 . S
C4087 C4091 1.400 . S
C4088 H4073 0.960 . S
C4088 H4074 0.960 . S
C4088 H4075 0.960 . S
C4088 C4087 1.524 . S
C4089 C4086 1.403 . S
C4089 C4090 1.392 . S
C4089 C4093 1.495 . S
C4090 C4089 1.392 . S
C4090 C4091 1.385 . S
C4090 C4092 1.478 . S
C4091 H4085 0.930 . S
C4091 C4087 1.400 . S
C4091 C4090 1.385 . S
C4092 C4090 1.478 . S
C4092 C4094 1.381 . S
C4092 C4098 1.383 . S
C4093 C4089 1.495 . S
C4093 H4099 0.959 . S
C4093 H4100 0.961 . S
C4093 H4101 0.960 . S
C4094 C4092 1.381 . S
C4094 C4095 1.394 . S
C4094 H4102 0.930 . S
C4095 C4094 1.394 . S
C4095 C4096 1.383 . S
C4095 H4103 0.929 . S
C4096 C4095 1.383 . S
C4096 C4097 1.377 . S
C4097 H4081 0.930 . S
C4097 C4096 1.377 . S
C4097 C4098 1.379 . S
C4098 H4082 0.931 . S
C4098 C4092 1.383 . S
C4098 C4097 1.379 . S
H4099 C4093 0.959 . S
H4100 C4093 0.961 . S
H4101 C4093 0.960 . S
H4102 C4094 0.930 . S
H4103 C4095 0.929 . S
H4104 C4112 0.929 . S
H4105 C4114 0.930 . S
H4106 C4116 0.930 . S
H4107 C4119 0.929 . S
H4108 C4122 0.930 . S
H4109 C4124 0.960 . S
H4110 C4124 0.960 . S
H4111 C4124 0.960 . S
C4112 H4104 0.929 . S
C4112 C4113 1.377 . S
C4112 C4114 1.384 . S
C4113 C4112 1.377 . S
C4113 C4119 1.390 . S
C4114 H4105 0.930 . S
C4114 C4112 1.384 . S
C4114 C4115 1.372 . S
C4115 C4114 1.372 . S
C4115 C4116 1.400 . S
C4115 C4120 1.490 . S
C4116 H4106 0.930 . S
C4116 C4115 1.400 . S
C4116 C4119 1.386 . S
H4117 C4133 0.930 . S
H4118 C4134 0.931 . S
C4119 H4107 0.929 . S
C4119 C4113 1.390 . S
C4119 C4116 1.386 . S
C4120 C4115 1.490 . S
C4120 C4122 1.395 . S
C4120 C4123 1.403 . S
H4121 C4127 0.930 . S
C4122 H4108 0.930 . S
C4122 C4120 1.395 . S
C4122 C4125 1.403 . S
C4123 C4120 1.403 . S
C4123 C4124 1.524 . S
C4123 C4127 1.400 . S
C4124 H4109 0.960 . S
C4124 H4110 0.960 . S
C4124 H4111 0.960 . S
C4124 C4123 1.524 . S
C4125 C4122 1.403 . S
C4125 C4126 1.392 . S
C4125 C4129 1.495 . S
C4126 C4125 1.392 . S
C4126 C4127 1.385 . S
C4126 C4128 1.478 . S
C4127 H4121 0.930 . S
C4127 C4123 1.400 . S
C4127 C4126 1.385 . S
C4128 C4126 1.478 . S
C4128 C4130 1.381 . S
C4128 C4134 1.383 . S
C4129 C4125 1.495 . S
C4129 H4135 0.959 . S
C4129 H4136 0.961 . S
C4129 H4137 0.960 . S
C4130 C4128 1.381 . S
C4130 C4131 1.394 . S
C4130 H4138 0.930 . S
C4131 C4130 1.394 . S
C4131 C4132 1.383 . S
C4131 H4139 0.929 . S
C4132 C4131 1.383 . S
C4132 C4133 1.377 . S
C4133 H4117 0.930 . S
C4133 C4132 1.377 . S
C4133 C4134 1.379 . S
C4134 H4118 0.931 . S
C4134 C4128 1.383 . S
C4134 C4133 1.379 . S
H4135 C4129 0.959 . S
H4136 C4129 0.961 . S
H4137 C4129 0.960 . S
H4138 C4130 0.930 . S
H4139 C4131 0.929 . S
H4140 C4148 0.929 . S
H4141 C4150 0.930 . S
H4142 C4152 0.930 . S
H4143 C4155 0.929 . S
H4144 C4158 0.930 . S
H4145 C4160 0.960 . S
H4146 C4160 0.960 . S
H4147 C4160 0.960 . S
C4148 H4140 0.929 . S
C4148 C4149 1.377 . S
C4148 C4150 1.384 . S
C4149 C4148 1.377 . S
C4149 C4155 1.390 . S
C4150 H4141 0.930 . S
C4150 C4148 1.384 . S
C4150 C4151 1.372 . S
C4151 C4150 1.372 . S
C4151 C4152 1.400 . S
C4151 C4156 1.490 . S
C4152 H4142 0.930 . S
C4152 C4151 1.400 . S
C4152 C4155 1.386 . S
H4153 C4169 0.930 . S
H4154 C4170 0.931 . S
C4155 H4143 0.929 . S
C4155 C4149 1.390 . S
C4155 C4152 1.386 . S
C4156 C4151 1.490 . S
C4156 C4158 1.395 . S
C4156 C4159 1.403 . S
H4157 C4163 0.930 . S
C4158 H4144 0.930 . S
C4158 C4156 1.395 . S
C4158 C4161 1.403 . S
C4159 C4156 1.403 . S
C4159 C4160 1.524 . S
C4159 C4163 1.400 . S
C4160 H4145 0.960 . S
C4160 H4146 0.960 . S
C4160 H4147 0.960 . S
C4160 C4159 1.524 . S
C4161 C4158 1.403 . S
C4161 C4162 1.392 . S
C4161 C4165 1.495 . S
C4162 C4161 1.392 . S
C4162 C4163 1.385 . S
C4162 C4164 1.478 . S
C4163 H4157 0.930 . S
C4163 C4159 1.400 . S
C4163 C4162 1.385 . S
C4164 C4162 1.478 . S
C4164 C4166 1.381 . S
C4164 C4170 1.383 . S
C4165 C4161 1.495 . S
C4165 H4171 0.959 . S
C4165 H4172 0.961 . S
C4165 H4173 0.960 . S
C4166 C4164 1.381 . S
C4166 C4167 1.394 . S
C4166 H4174 0.930 . S
C4167 C4166 1.394 . S
C4167 C4168 1.383 . S
C4167 H4175 0.929 . S
C4168 C4167 1.383 . S
C4168 C4169 1.377 . S
C4169 H4153 0.930 . S
C4169 C4168 1.377 . S
C4169 C4170 1.379 . S
C4170 H4154 0.931 . S
C4170 C4164 1.383 . S
C4170 C4169 1.379 . S
H4171 C4165 0.959 . S
H4172 C4165 0.961 . S
H4173 C4165 0.960 . S
H4174 C4166 0.930 . S
H4175 C4167 0.929 . S
H4176 C4184 0.929 . S
H4177 C4186 0.930 . S
H4178 C4188 0.930 . S
H4179 C4191 0.929 . S
H4180 C4194 0.930 . S
H4181 C4196 0.960 . S
H4182 C4196 0.960 . S
H4183 C4196 0.960 . S
C4184 H4176 0.929 . S
C4184 C4185 1.377 . S
C4184 C4186 1.384 . S
C4185 C4184 1.377 . S
C4185 C4191 1.390 . S
C4186 H4177 0.930 . S
C4186 C4184 1.384 . S
C4186 C4187 1.372 . S
C4187 C4186 1.372 . S
C4187 C4188 1.400 . S
C4187 C4192 1.490 . S
C4188 H4178 0.930 . S
C4188 C4187 1.400 . S
C4188 C4191 1.386 . S
H4189 C4205 0.930 . S
H4190 C4206 0.931 . S
C4191 H4179 0.929 . S
C4191 C4185 1.390 . S
C4191 C4188 1.386 . S
C4192 C4187 1.490 . S
C4192 C4194 1.395 . S
C4192 C4195 1.403 . S
H4193 C4199 0.930 . S
C4194 H4180 0.930 . S
C4194 C4192 1.395 . S
C4194 C4197 1.403 . S
C4195 C4192 1.403 . S
C4195 C4196 1.524 . S
C4195 C4199 1.400 . S
C4196 H4181 0.960 . S
C4196 H4182 0.960 . S
C4196 H4183 0.960 . S
C4196 C4195 1.524 . S
C4197 C4194 1.403 . S
C4197 C4198 1.392 . S
C4197 C4201 1.495 . S
C4198 C4197 1.392 . S
C4198 C4199 1.385 . S
C4198 C4200 1.478 . S
C4199 H4193 0.930 . S
C4199 C4195 1.400 . S
C4199 C4198 1.385 . S
C4200 C4198 1.478 . S
C4200 C4202 1.381 . S
C4200 C4206 1.383 . S
C4201 C4197 1.495 . S
C4201 H4207 0.959 . S
C4201 H4208 0.961 . S
C4201 H4209 0.960 . S
C4202 C4200 1.381 . S
C4202 C4203 1.394 . S
C4202 H4210 0.930 . S
C4203 C4202 1.394 . S
C4203 C4204 1.383 . S
C4203 H4211 0.929 . S
C4204 C4203 1.383 . S
C4204 C4205 1.377 . S
C4205 H4189 0.930 . S
C4205 C4204 1.377 . S
C4205 C4206 1.379 . S
C4206 H4190 0.931 . S
C4206 C4200 1.383 . S
C4206 C4205 1.379 . S
H4207 C4201 0.959 . S
H4208 C4201 0.961 . S
H4209 C4201 0.960 . S
H4210 C4202 0.930 . S
H4211 C4203 0.929 . S
H4212 C4220 0.929 . S
H4213 C4222 0.930 . S
H4214 C4224 0.930 . S
H4215 C4227 0.929 . S
H4216 C4230 0.930 . S
H4217 C4232 0.960 . S
H4218 C4232 0.960 . S
H4219 C4232 0.960 . S
C4220 H4212 0.929 . S
C4220 C4221 1.377 . S
C4220 C4222 1.384 . S
C4221 C4220 1.377 . S
C4221 C4227 1.390 . S
C4222 H4213 0.930 . S
C4222 C4220 1.384 . S
C4222 C4223 1.372 . S
C4223 C4222 1.372 . S
C4223 C4224 1.400 . S
C4223 C4228 1.490 . S
C4224 H4214 0.930 . S
C4224 C4223 1.400 . S
C4224 C4227 1.386 . S
H4225 C4241 0.930 . S
H4226 C4242 0.931 . S
C4227 H4215 0.929 . S
C4227 C4221 1.390 . S
C4227 C4224 1.386 . S
C4228 C4223 1.490 . S
C4228 C4230 1.395 1_455 S
C4228 C4231 1.403 . S
H4229 C4235 0.929 . S
C4230 H4216 0.930 . S
C4230 C4228 1.395 1_655 S
C4230 C4233 1.403 . S
C4231 C4228 1.403 . S
C4231 C4232 1.524 . S
C4231 C4235 1.347 1_455 S
C4232 H4217 0.960 . S
C4232 H4218 0.960 . S
C4232 H4219 0.960 . S
C4232 C4231 1.524 . S
C4233 C4230 1.403 . S
C4233 C4234 1.392 . S
C4233 C4237 1.495 . S
C4234 C4233 1.392 . S
C4234 C4235 1.445 . S
C4234 C4236 1.478 . S
C4235 H4229 0.929 . S
C4235 C4231 1.347 1_655 S
C4235 C4234 1.445 . S
C4236 C4234 1.478 . S
C4236 C4238 1.381 . S
C4236 C4242 1.383 . S
C4237 C4233 1.495 . S
C4237 H4243 0.959 . S
C4237 H4244 0.961 . S
C4237 H4245 0.960 . S
C4238 C4236 1.381 . S
C4238 C4239 1.394 . S
C4238 H4246 0.930 . S
C4239 C4238 1.394 . S
C4239 C4240 1.383 . S
C4239 H4247 0.929 . S
C4240 C4239 1.383 . S
C4240 C4241 1.377 . S
C4241 H4225 0.930 . S
C4241 C4240 1.377 . S
C4241 C4242 1.379 . S
C4242 H4226 0.931 . S
C4242 C4236 1.383 . S
C4242 C4241 1.379 . S
H4243 C4237 0.959 . S
H4244 C4237 0.961 . S
H4245 C4237 0.960 . S
H4246 C4238 0.930 . S
H4247 C4239 0.929 . S
H4248 C4256 0.929 . S
H4249 C4258 0.930 . S
H4250 C4260 0.930 . S
H4251 C4263 0.929 . S
H4252 C4266 0.930 . S
H4253 C4268 0.960 . S
H4254 C4268 0.960 . S
H4255 C4268 0.960 . S
C4256 H4248 0.929 . S
C4256 C4257 1.377 . S
C4256 C4258 1.384 . S
C4257 C4256 1.377 . S
C4257 C4263 1.390 . S
C4258 H4249 0.930 . S
C4258 C4256 1.384 . S
C4258 C4259 1.372 . S
C4259 C4258 1.372 . S
C4259 C4260 1.400 . S
C4259 C4264 1.490 . S
C4260 H4250 0.930 . S
C4260 C4259 1.400 . S
C4260 C4263 1.386 . S
H4261 C4277 0.930 . S
H4262 C4278 0.931 . S
C4263 H4251 0.929 . S
C4263 C4257 1.390 . S
C4263 C4260 1.386 . S
C4264 C4259 1.490 . S
C4264 C4266 1.395 . S
C4264 C4267 1.403 . S
H4265 C4271 0.930 . S
C4266 H4252 0.930 . S
C4266 C4264 1.395 . S
C4266 C4269 1.403 . S
C4267 C4264 1.403 . S
C4267 C4268 1.524 . S
C4267 C4271 1.400 . S
C4268 H4253 0.960 . S
C4268 H4254 0.960 . S
C4268 H4255 0.960 . S
C4268 C4267 1.524 . S
C4269 C4266 1.403 . S
C4269 C4270 1.392 . S
C4269 C4273 1.495 . S
C4270 C4269 1.392 . S
C4270 C4271 1.385 . S
C4270 C4272 1.478 . S
C4271 H4265 0.930 . S
C4271 C4267 1.400 . S
C4271 C4270 1.385 . S
C4272 C4270 1.478 . S
C4272 C4274 1.381 . S
C4272 C4278 1.383 . S
C4273 C4269 1.495 . S
C4273 H4279 0.959 . S
C4273 H4280 0.961 . S
C4273 H4281 0.960 . S
C4274 C4272 1.381 . S
C4274 C4275 1.394 . S
C4274 H4282 0.930 . S
C4275 C4274 1.394 . S
C4275 C4276 1.383 . S
C4275 H4283 0.929 . S
C4276 C4275 1.383 . S
C4276 C4277 1.377 . S
C4277 H4261 0.930 . S
C4277 C4276 1.377 . S
C4277 C4278 1.379 . S
C4278 H4262 0.931 . S
C4278 C4272 1.383 . S
C4278 C4277 1.379 . S
H4279 C4273 0.959 . S
H4280 C4273 0.961 . S
H4281 C4273 0.960 . S
H4282 C4274 0.930 . S
H4283 C4275 0.929 . S
H4284 C4292 0.929 . S
H4285 C4294 0.930 . S
H4286 C4296 0.930 . S
H4287 C4299 0.929 . S
H4288 C4302 0.930 . S
H4289 C4304 0.960 1_545 S
H4290 C4304 0.960 . S
H4291 C4304 0.960 . S
C4292 H4284 0.929 . S
C4292 C4293 1.377 . S
C4292 C4294 1.384 . S
C4293 C4292 1.377 . S
C4293 C4299 1.390 . S
C4294 H4285 0.930 . S
C4294 C4292 1.384 . S
C4294 C4295 1.372 . S
C4295 C4294 1.372 . S
C4295 C4296 1.400 . S
C4295 C4300 1.490 . S
C4296 H4286 0.930 . S
C4296 C4295 1.400 . S
C4296 C4299 1.386 . S
H4297 C4313 0.930 . S
H4298 C4314 0.931 . S
C4299 H4287 0.929 . S
C4299 C4293 1.390 . S
C4299 C4296 1.386 . S
C4300 C4295 1.490 . S
C4300 C4302 1.395 . S
C4300 C4303 1.403 . S
H4301 C4307 0.930 . S
C4302 H4288 0.930 . S
C4302 C4300 1.395 . S
C4302 C4305 1.403 1_565 S
C4303 C4300 1.403 . S
C4303 C4304 1.524 . S
C4303 C4307 1.400 1_565 S
C4304 H4289 0.960 1_565 S
C4304 H4290 0.960 . S
C4304 H4291 0.960 . S
C4304 C4303 1.524 . S
C4305 C4302 1.403 1_545 S
C4305 C4306 1.392 . S
C4305 C4309 1.495 . S
C4306 C4305 1.392 . S
C4306 C4307 1.385 . S
C4306 C4308 1.478 . S
C4307 H4301 0.930 . S
C4307 C4303 1.400 1_545 S
C4307 C4306 1.385 . S
C4308 C4306 1.478 . S
C4308 C4310 1.381 . S
C4308 C4314 1.383 . S
C4309 C4305 1.495 . S
C4309 H4315 0.959 1_545 S
C4309 H4316 0.961 . S
C4309 H4317 0.960 . S
C4310 C4308 1.381 . S
C4310 C4311 1.394 . S
C4310 H4318 0.930 . S
C4311 C4310 1.394 . S
C4311 C4312 1.383 . S
C4311 H4319 0.929 . S
C4312 C4311 1.383 . S
C4312 C4313 1.377 . S
C4313 H4297 0.930 . S
C4313 C4312 1.377 . S
C4313 C4314 1.379 . S
C4314 H4298 0.931 . S
C4314 C4308 1.383 . S
C4314 C4313 1.379 . S
H4315 C4309 0.959 1_565 S
H4316 C4309 0.961 . S
H4317 C4309 0.960 . S
H4318 C4310 0.930 . S
H4319 C4311 0.929 . S
H4320 C4328 0.929 . S
H4321 C4330 0.930 . S
H4322 C4332 0.930 . S
H4323 C4335 0.929 . S
H4324 C4338 0.930 . S
H4325 C4340 0.960 . S
H4326 C4340 0.960 . S
H4327 C4340 0.960 1_565 S
C4328 H4320 0.929 . S
C4328 C4329 1.377 . S
C4328 C4330 1.384 . S
C4329 C4328 1.377 . S
C4329 C4335 1.390 . S
C4330 H4321 0.930 . S
C4330 C4328 1.384 . S
C4330 C4331 1.372 . S
C4331 C4330 1.372 . S
C4331 C4332 1.400 . S
C4331 C4336 1.490 . S
C4332 H4322 0.930 . S
C4332 C4331 1.400 . S
C4332 C4335 1.386 . S
H4333 C4349 0.930 . S
H4334 C4350 0.931 . S
C4335 H4323 0.929 . S
C4335 C4329 1.390 . S
C4335 C4332 1.386 . S
C4336 C4331 1.490 . S
C4336 C4338 1.395 . S
C4336 C4339 1.357 1_565 S
H4337 C4343 0.930 . S
C4338 H4324 0.930 . S
C4338 C4336 1.395 . S
C4338 C4341 1.403 . S
C4339 C4336 1.357 1_545 S
C4339 C4340 1.520 . S
C4339 C4343 1.459 . S
C4340 H4325 0.960 . S
C4340 H4326 0.960 . S
C4340 H4327 0.960 1_545 S
C4340 C4339 1.520 . S
C4341 C4338 1.403 . S
C4341 C4342 1.392 1_565 S
C4341 C4345 1.495 . S
C4342 C4341 1.392 1_545 S
C4342 C4343 1.385 . S
C4342 C4344 1.478 . S
C4343 H4337 0.930 . S
C4343 C4339 1.459 . S
C4343 C4342 1.385 . S
C4344 C4342 1.478 . S
C4344 C4346 1.381 . S
C4344 C4350 1.383 . S
C4345 C4341 1.495 . S
C4345 H4351 0.959 . S
C4345 H4352 0.961 . S
C4345 H4353 0.960 1_565 S
C4346 C4344 1.381 . S
C4346 C4347 1.394 . S
C4346 H4354 0.930 . S
C4347 C4346 1.394 . S
C4347 C4348 1.383 . S
C4347 H4355 0.929 . S
C4348 C4347 1.383 . S
C4348 C4349 1.377 . S
C4349 H4333 0.930 . S
C4349 C4348 1.377 . S
C4349 C4350 1.379 . S
C4350 H4334 0.931 . S
C4350 C4344 1.383 . S
C4350 C4349 1.379 . S
H4351 C4345 0.959 . S
H4352 C4345 0.961 . S
H4353 C4345 0.960 1_545 S
H4354 C4346 0.930 . S
H4355 C4347 0.929 . S
H4356 C4364 0.929 . S
H4357 C4366 0.930 . S
H4358 C4368 0.930 . S
H4359 C4371 0.929 . S
H4360 C4374 0.930 . S
H4361 C4376 0.964 1_655 S
H4362 C4376 0.958 . S
H4363 C4376 0.959 . S
C4364 H4356 0.929 . S
C4364 C4365 1.377 . S
C4364 C4366 1.384 . S
C4365 C4364 1.377 . S
C4365 C4371 1.390 . S
C4366 H4357 0.930 . S
C4366 C4364 1.384 . S
C4366 C4367 1.372 . S
C4367 C4366 1.372 . S
C4367 C4368 1.400 . S
C4367 C4372 1.490 . S
C4368 H4358 0.930 . S
C4368 C4367 1.400 . S
C4368 C4371 1.386 . S
H4369 C4385 0.930 . S
H4370 C4386 0.931 . S
C4371 H4359 0.929 . S
C4371 C4365 1.390 . S
C4371 C4368 1.386 . S
C4372 C4367 1.490 . S
C4372 C4374 1.395 . S
C4372 C4375 1.458 . S
H4373 C4379 0.930 . S
C4374 H4360 0.930 . S
C4374 C4372 1.395 . S
C4374 C4377 1.391 1_455 S
C4375 C4372 1.458 . S
C4375 C4376 1.503 . S
C4375 C4379 1.365 1_455 S
C4376 H4361 0.964 1_455 S
C4376 H4362 0.958 . S
C4376 H4363 0.959 . S
C4376 C4375 1.503 . S
C4377 C4374 1.391 1_655 S
C4377 C4378 1.411 . S
C4377 C4381 1.492 . S
C4378 C4377 1.411 . S
C4378 C4379 1.385 . S
C4378 C4380 1.478 . S
C4379 H4373 0.930 . S
C4379 C4375 1.365 1_655 S
C4379 C4378 1.385 . S
C4380 C4378 1.478 . S
C4380 C4382 1.381 . S
C4380 C4386 1.383 . S
C4381 C4377 1.492 . S
C4381 H4387 0.948 1_655 S
C4381 H4388 0.955 . S
C4381 H4389 0.964 . S
C4382 C4380 1.381 . S
C4382 C4383 1.394 . S
C4382 H4390 0.930 . S
C4383 C4382 1.394 . S
C4383 C4384 1.383 . S
C4383 H4391 0.929 . S
C4384 C4383 1.383 . S
C4384 C4385 1.377 . S
C4385 H4369 0.930 . S
C4385 C4384 1.377 . S
C4385 C4386 1.379 . S
C4386 H4370 0.931 . S
C4386 C4380 1.383 . S
C4386 C4385 1.379 . S
H4387 C4381 0.948 1_455 S
H4388 C4381 0.955 . S
H4389 C4381 0.964 . S
H4390 C4382 0.930 . S
H4391 C4383 0.929 . S
H4392 C4400 0.929 . S
H4393 C4402 0.930 . S
H4394 C4404 0.930 . S
H4395 C4407 0.929 . S
H4396 C4410 0.930 . S
H4397 C4412 0.960 . S
H4398 C4412 0.960 . S
H4399 C4412 0.960 . S
C4400 H4392 0.929 . S
C4400 C4401 1.377 . S
C4400 C4402 1.384 . S
C4401 C4400 1.377 . S
C4401 C4407 1.390 . S
C4402 H4393 0.930 . S
C4402 C4400 1.384 . S
C4402 C4403 1.372 . S
C4403 C4402 1.372 . S
C4403 C4404 1.400 . S
C4403 C4408 1.490 . S
C4404 H4394 0.930 . S
C4404 C4403 1.400 . S
C4404 C4407 1.386 . S
H4405 C4421 0.930 . S
H4406 C4422 0.931 . S
C4407 H4395 0.929 . S
C4407 C4401 1.390 . S
C4407 C4404 1.386 . S
C4408 C4403 1.490 . S
C4408 C4410 1.395 . S
C4408 C4411 1.403 . S
H4409 C4415 0.930 . S
C4410 H4396 0.930 . S
C4410 C4408 1.395 . S
C4410 C4413 1.403 . S
C4411 C4408 1.403 . S
C4411 C4412 1.524 . S
C4411 C4415 1.400 . S
C4412 H4397 0.960 . S
C4412 H4398 0.960 . S
C4412 H4399 0.960 . S
C4412 C4411 1.524 . S
C4413 C4410 1.403 . S
C4413 C4414 1.392 . S
C4413 C4417 1.495 . S
C4414 C4413 1.392 . S
C4414 C4415 1.385 . S
C4414 C4416 1.478 . S
C4415 H4409 0.930 . S
C4415 C4411 1.400 . S
C4415 C4414 1.385 . S
C4416 C4414 1.478 . S
C4416 C4418 1.381 . S
C4416 C4422 1.383 . S
C4417 C4413 1.495 . S
C4417 H4423 0.959 . S
C4417 H4424 0.961 . S
C4417 H4425 0.960 . S
C4418 C4416 1.381 . S
C4418 C4419 1.394 . S
C4418 H4426 0.930 . S
C4419 C4418 1.394 . S
C4419 C4420 1.383 . S
C4419 H4427 0.929 . S
C4420 C4419 1.383 . S
C4420 C4421 1.377 . S
C4421 H4405 0.930 . S
C4421 C4420 1.377 . S
C4421 C4422 1.379 . S
C4422 H4406 0.931 . S
C4422 C4416 1.383 . S
C4422 C4421 1.379 . S
H4423 C4417 0.959 . S
H4424 C4417 0.961 . S
H4425 C4417 0.960 . S
H4426 C4418 0.930 . S
H4427 C4419 0.929 . S
C1197 N608 0.788 . S
C1216 N14 0.764 . S
C1233 N47 0.791 . S
C1252 N641 0.817 . S
C1269 N674 0.782 . S
C1288 N80 0.751 . S
C1305 N1103 0.790 . S
C1324 N113 0.819 . S
C1341 N1136 0.792 . S
C1360 N146 0.788 . S
C1377 N179 0.780 . S
C1396 N1169 0.755 . S
C1413 N212 0.788 . S
C1432 N806 0.819 . S
C1449 N839 0.785 . S
C1468 N245 0.812 . S
C1485 N278 0.779 . S
C1504 N872 0.762 . S
C1521 N509 0.781 . S
C1540 N311 0.798 . S
C1557 N344 0.784 . S
C1576 N542 0.812 . S
C1593 N575 0.778 . S
C1612 N377 0.768 . S
C1629 N410 0.792 . S
C1648 N1004 0.811 . S
C1665 N443 0.785 . S
C1684 N1037 0.814 . S
C1701 N1070 0.784 . S
C1720 N476 0.753 . S
C1737 N905 0.790 . S
C1756 N707 0.770 . S
C1773 N740 0.778 . S
C1792 N938 0.772 . S
C1809 N971 0.790 . S
C1828 N773 0.818 . S
C1845 C17 0.983 . S
C1864 N236 0.963 . S
C1881 C50 0.978 . S
C1900 N269 0.997 . S
C1917 C83 0.982 . S
C1936 N203 0.944 . S
C1953 N368 0.976 . S
C1972 C116 0.971 . S
C1989 C149 0.978 . S
C2008 N302 0.946 . S
C2025 C182 0.977 . S
C2044 N335 0.994 . S
C2061 C215 0.979 . S
C2080 N38 0.950 . S
C2097 C248 0.976 . S
C2116 N71 0.975 . S
C2133 N5 0.964 . S
C2152 C281 0.987 . S
C2169 C314 0.977 . S
C2188 N170 0.963 . S
C2205 C347 0.982 . S
C2224 N104 0.974 . S
C2241 C380 0.977 . S
C2260 N137 0.997 . S
C2277 N632 0.964 . S
C2296 C413 0.982 . S
C2313 C446 0.981 . S
C2332 N665 0.941 . S
C2349 C479 0.982 . S
C2368 N599 0.977 . S
C2385 C512 0.983 . S
C2404 N764 0.955 . S
C2421 C545 0.981 . S
C2440 N698 0.940 . S
C2457 N731 0.966 . S
C2476 C578 0.993 . S
C2493 N434 0.965 . S
C2512 C611 0.992 . S
C2529 C644 0.976 . S
C2548 N467 0.968 . S
C2565 N401 0.966 . S
C2584 C677 0.975 . S
C2601 C710 0.980 . S
C2620 N566 0.988 . S
C2637 N500 0.968 . S
C2656 C743 0.993 . S
C2673 N533 0.965 . S
C2692 C776 0.992 . S
C2709 N1028 0.965 . S
C2728 C809 0.987 . S
C2745 N1061 0.972 . S
C2764 C842 0.989 . S
C2781 C875 0.976 . S
C2800 N995 0.972 . S
C2817 N1160 0.973 . S
C2836 C908 0.962 . S
C2853 N1094 0.969 . S
C2872 C941 0.993 . S
C2889 C974 0.982 . S
C2908 N1127 0.946 . S
C2925 N830 0.971 . S
C2944 C1007 0.964 . S
C2961 C1040 0.981 . S
C2980 N863 0.940 . S
C2997 C1073 0.977 . S
C3016 N797 0.960 . S
C3033 C1106 0.983 . S
C3052 N962 0.946 . S
C3069 N896 0.972 . S
C3088 C1139 0.987 . S
C3105 N929 0.964 . S
C3124 C1172 0.990 . S
C3141 C28 1.545 . S
C3160 C127 1.540 . S
C3177 C61 1.545 . S
C3196 C160 1.544 . S
C3213 C193 1.545 . S
C3232 C94 1.542 . S
C3249 C226 1.544 . S
C3268 C325 1.540 . S
C3285 C358 1.545 . S
C3304 C259 1.544 . S
C3321 C292 1.545 . S
C3340 C391 1.542 . S
C3357 C424 1.545 . S
C3376 C523 1.541 . S
C3393 C457 1.544 . S
C3412 C556 1.539 . S
C3429 C589 1.544 . S
C3448 C490 1.540 . S
C3465 C622 1.545 . S
C3484 C721 1.539 . S
C3501 C655 1.545 . S
C3520 C754 1.539 . S
C3537 C787 1.545 . S
C3556 C688 1.544 . S
C3573 C919 1.545 . S
C3592 C820 1.544 . S
C3609 C952 1.544 . S
C3628 C853 1.541 . S
C3645 C886 1.545 . S
C3664 C985 1.542 . S
C3681 C1018 1.545 . S
C3700 C1117 1.539 . S
C3717 C1150 1.545 . S
C3736 C1051 1.539 . S
C3753 C1183 1.544 . S
C3772 C1084 1.540 . S
C3789 C8 1.954 1_556 S
C3808 C536 1.959 . S
C3825 C41 1.958 1_556 S
C3844 C569 1.959 . S
C3861 C503 1.954 . S
C3880 C74 1.952 1_556 S
C3897 C107 1.954 . S
C3916 C866 1.952 . S
C3933 C800 1.955 . S
C3952 C140 1.964 . S
C3969 C173 1.955 . S
C3988 C833 1.964 . S
C4005 C206 1.954 1_554 S
C4024 C1130 1.951 . S
C4041 C1163 1.957 . S
C4060 C239 1.941 1_554 S
C4077 C272 1.958 1_554 S
C4096 C1097 1.954 . S
C4113 C668 1.955 . S
C4132 C305 1.948 . S
C4149 C602 1.955 . S
C4168 C338 1.948 . S
C4185 C635 1.958 . S
C4204 C371 1.954 . S
C4221 C932 1.958 . S
C4240 C404 1.953 . S
C4257 C965 1.958 . S
C4276 C437 1.954 . S
C4293 C899 1.956 . S
C4312 C470 1.942 . S
C4329 C1064 1.958 . S
C4348 C701 1.957 . S
C4365 C998 1.957 . S
C4384 C734 1.960 . S
C4401 C1031 1.954 . S
C4420 C767 1.954 . S
