# Generated by pormake.
# Topology cbo, (4)-cn, num edge types: 1
# Building blocks:
#     Node 0, Type 0, BuildingBlock: ESEHIV_clean_sbu_0, # of connection points: 4
#     Node 1, Type 0, BuildingBlock: ESEHIV_clean_sbu_0, # of connection points: 4
#     Node 2, Type 0, BuildingBlock: ESEHIV_clean_sbu_0, # of connection points: 4
#     Node 3, Type 0, BuildingBlock: ESEHIV_clean_sbu_0, # of connection points: 4
#     Node 4, Type 0, BuildingBlock: ESEHIV_clean_sbu_0, # of connection points: 4
#     Node 5, Type 0, BuildingBlock: ESEHIV_clean_sbu_0, # of connection points: 4
#     Node 6, Type 0, BuildingBlock: ESEHIV_clean_sbu_0, # of connection points: 4
#     Node 7, Type 0, BuildingBlock: ESEHIV_clean_sbu_0, # of connection points: 4
#     Node 8, Type 0, BuildingBlock: ESEHIV_clean_sbu_0, # of connection points: 4
#     Node 9, Type 0, BuildingBlock: ESEHIV_clean_sbu_0, # of connection points: 4
#     Node 10, Type 0, BuildingBlock: ESEHIV_clean_sbu_0, # of connection points: 4
#     Node 11, Type 0, BuildingBlock: ESEHIV_clean_sbu_0, # of connection points: 4
#     Node 12, Type 0, BuildingBlock: ESEHIV_clean_sbu_0, # of connection points: 4
#     Node 13, Type 0, BuildingBlock: ESEHIV_clean_sbu_0, # of connection points: 4
#     Node 14, Type 0, BuildingBlock: ESEHIV_clean_sbu_0, # of connection points: 4
#     Node 15, Type 0, BuildingBlock: ESEHIV_clean_sbu_0, # of connection points: 4
#     Node 16, Type 0, BuildingBlock: ESEHIV_clean_sbu_0, # of connection points: 4
#     Node 17, Type 0, BuildingBlock: ESEHIV_clean_sbu_0, # of connection points: 4
#     Node 18, Type 0, BuildingBlock: ESEHIV_clean_sbu_0, # of connection points: 4
#     Node 19, Type 0, BuildingBlock: ESEHIV_clean_sbu_0, # of connection points: 4
#     Node 20, Type 0, BuildingBlock: ESEHIV_clean_sbu_0, # of connection points: 4
#     Node 21, Type 0, BuildingBlock: ESEHIV_clean_sbu_0, # of connection points: 4
#     Node 22, Type 0, BuildingBlock: ESEHIV_clean_sbu_0, # of connection points: 4
#     Node 23, Type 0, BuildingBlock: ESEHIV_clean_sbu_0, # of connection points: 4
#     Edge 24, Type (0, 0), BuildingBlock: KIFKEQ_clean_linker_1, # of connection points: 2
#     Edge 25, Type (0, 0), BuildingBlock: KIFKEQ_clean_linker_1, # of connection points: 2
#     Edge 26, Type (0, 0), BuildingBlock: KIFKEQ_clean_linker_1, # of connection points: 2
#     Edge 27, Type (0, 0), BuildingBlock: KIFKEQ_clean_linker_1, # of connection points: 2
#     Edge 28, Type (0, 0), BuildingBlock: KIFKEQ_clean_linker_1, # of connection points: 2
#     Edge 29, Type (0, 0), BuildingBlock: KIFKEQ_clean_linker_1, # of connection points: 2
#     Edge 30, Type (0, 0), BuildingBlock: KIFKEQ_clean_linker_1, # of connection points: 2
#     Edge 31, Type (0, 0), BuildingBlock: KIFKEQ_clean_linker_1, # of connection points: 2
#     Edge 32, Type (0, 0), BuildingBlock: KIFKEQ_clean_linker_1, # of connection points: 2
#     Edge 33, Type (0, 0), BuildingBlock: KIFKEQ_clean_linker_1, # of connection points: 2
#     Edge 34, Type (0, 0), BuildingBlock: KIFKEQ_clean_linker_1, # of connection points: 2
#     Edge 35, Type (0, 0), BuildingBlock: KIFKEQ_clean_linker_1, # of connection points: 2
#     Edge 36, Type (0, 0), BuildingBlock: KIFKEQ_clean_linker_1, # of connection points: 2
#     Edge 37, Type (0, 0), BuildingBlock: KIFKEQ_clean_linker_1, # of connection points: 2
#     Edge 38, Type (0, 0), BuildingBlock: KIFKEQ_clean_linker_1, # of connection points: 2
#     Edge 39, Type (0, 0), BuildingBlock: KIFKEQ_clean_linker_1, # of connection points: 2
#     Edge 40, Type (0, 0), BuildingBlock: KIFKEQ_clean_linker_1, # of connection points: 2
#     Edge 41, Type (0, 0), BuildingBlock: KIFKEQ_clean_linker_1, # of connection points: 2
#     Edge 42, Type (0, 0), BuildingBlock: KIFKEQ_clean_linker_1, # of connection points: 2
#     Edge 43, Type (0, 0), BuildingBlock: KIFKEQ_clean_linker_1, # of connection points: 2
#     Edge 44, Type (0, 0), BuildingBlock: KIFKEQ_clean_linker_1, # of connection points: 2
#     Edge 45, Type (0, 0), BuildingBlock: KIFKEQ_clean_linker_1, # of connection points: 2
#     Edge 46, Type (0, 0), BuildingBlock: KIFKEQ_clean_linker_1, # of connection points: 2
#     Edge 47, Type (0, 0), BuildingBlock: KIFKEQ_clean_linker_1, # of connection points: 2
#     Edge 48, Type (0, 0), BuildingBlock: KIFKEQ_clean_linker_1, # of connection points: 2
#     Edge 49, Type (0, 0), BuildingBlock: KIFKEQ_clean_linker_1, # of connection points: 2
#     Edge 50, Type (0, 0), BuildingBlock: KIFKEQ_clean_linker_1, # of connection points: 2
#     Edge 51, Type (0, 0), BuildingBlock: KIFKEQ_clean_linker_1, # of connection points: 2
#     Edge 52, Type (0, 0), BuildingBlock: KIFKEQ_clean_linker_1, # of connection points: 2
#     Edge 53, Type (0, 0), BuildingBlock: KIFKEQ_clean_linker_1, # of connection points: 2
#     Edge 54, Type (0, 0), BuildingBlock: KIFKEQ_clean_linker_1, # of connection points: 2
#     Edge 55, Type (0, 0), BuildingBlock: KIFKEQ_clean_linker_1, # of connection points: 2
#     Edge 56, Type (0, 0), BuildingBlock: KIFKEQ_clean_linker_1, # of connection points: 2
#     Edge 57, Type (0, 0), BuildingBlock: KIFKEQ_clean_linker_1, # of connection points: 2
#     Edge 58, Type (0, 0), BuildingBlock: KIFKEQ_clean_linker_1, # of connection points: 2
#     Edge 59, Type (0, 0), BuildingBlock: KIFKEQ_clean_linker_1, # of connection points: 2
#     Edge 60, Type (0, 0), BuildingBlock: KIFKEQ_clean_linker_1, # of connection points: 2
#     Edge 61, Type (0, 0), BuildingBlock: KIFKEQ_clean_linker_1, # of connection points: 2
#     Edge 62, Type (0, 0), BuildingBlock: KIFKEQ_clean_linker_1, # of connection points: 2
#     Edge 63, Type (0, 0), BuildingBlock: KIFKEQ_clean_linker_1, # of connection points: 2
#     Edge 64, Type (0, 0), BuildingBlock: KIFKEQ_clean_linker_1, # of connection points: 2
#     Edge 65, Type (0, 0), BuildingBlock: KIFKEQ_clean_linker_1, # of connection points: 2
#     Edge 66, Type (0, 0), BuildingBlock: KIFKEQ_clean_linker_1, # of connection points: 2
#     Edge 67, Type (0, 0), BuildingBlock: KIFKEQ_clean_linker_1, # of connection points: 2
#     Edge 68, Type (0, 0), BuildingBlock: KIFKEQ_clean_linker_1, # of connection points: 2
#     Edge 69, Type (0, 0), BuildingBlock: KIFKEQ_clean_linker_1, # of connection points: 2
#     Edge 70, Type (0, 0), BuildingBlock: KIFKEQ_clean_linker_1, # of connection points: 2
#     Edge 71, Type (0, 0), BuildingBlock: KIFKEQ_clean_linker_1, # of connection points: 2
# Relax obj value: 0.118
# Max RMSD: 0.287
# Mean RMSD: 0.269
data_MOF--net-cbo--node1-ESEHIV_clean_sbu_0--edge1-KIFKEQ_clean_linker_1
_symmetry_space_group_name_H-M    P1
_symmetry_Int_Tables_number       1
_symmetry_cell_setting            triclinic
loop_
_symmetry_equiv_pos_as_xyz
'x, y, z'
_cell_length_a     55.479152
_cell_length_b     60.286535
_cell_length_c     56.996523
_cell_angle_alpha  89.940985
_cell_angle_beta   90.127369
_cell_angle_gamma 90.108656
loop_
_atom_site_label
_atom_site_type_symbol
_atom_site_fract_x
_atom_site_fract_y
_atom_site_fract_z
_atom_type_partial_charge
Cu0 Cu 0.12245 0.17865 0.32983 0.0
N1 N 0.13509 0.19186 0.35682 0.0
N2 N 0.14585 0.19796 0.39414 0.0
C3 C 0.13306 0.18498 0.37926 0.0
C4 C 0.15617 0.21361 0.38046 0.0
C5 C 0.14949 0.20981 0.35751 0.0
O6 O 0.09495 0.16046 0.3387 0.0
C7 C 0.14962 0.15869 0.29274 0.0
O8 O 0.13225 0.16587 0.27902 0.0
H9 H 0.12299 0.17039 0.38446 0.0
H10 H 0.155 0.21928 0.3423 0.0
N11 N 0.11055 0.20065 0.30972 0.0
N12 N 0.10661 0.22598 0.28115 0.0
C13 C 0.1221 0.21312 0.29357 0.0
C14 C 0.08713 0.20591 0.30762 0.0
C15 C 0.08462 0.22142 0.2901 0.0
C16 C 0.08488 0.14681 0.32474 0.0
O17 O 0.09495 0.14278 0.30436 0.0
H18 H 0.14137 0.21243 0.29078 0.0
H19 H 0.07275 0.19846 0.31773 0.0
O20 O 0.14817 0.16184 0.31479 0.0
H21 H 0.1677 0.2269 0.38658 0.0
H22 H 0.06769 0.22815 0.28392 0.0
Cu23 Cu 0.42212 0.83842 0.82028 0.0
N24 N 0.4147 0.82485 0.84893 0.0
N25 N 0.40255 0.81849 0.88578 0.0
C26 C 0.40457 0.83364 0.8683 0.0
C27 C 0.41184 0.79958 0.87691 0.0
C28 C 0.41923 0.80355 0.85429 0.0
O29 O 0.44867 0.85934 0.82358 0.0
C30 C 0.37385 0.84226 0.80576 0.0
O31 O 0.37258 0.82212 0.81453 0.0
H32 H 0.39873 0.85071 0.86943 0.0
H33 H 0.4276 0.79174 0.84261 0.0
N34 N 0.4331 0.81677 0.79956 0.0
N35 N 0.43617 0.79339 0.76926 0.0
C36 C 0.42199 0.80814 0.7806 0.0
C37 C 0.45499 0.80729 0.80024 0.0
C38 C 0.45695 0.79286 0.78166 0.0
C39 C 0.465 0.85717 0.83916 0.0
O40 O 0.46271 0.84168 0.85523 0.0
H41 H 0.40391 0.8126 0.77529 0.0
H42 H 0.46869 0.81087 0.81323 0.0
O43 O 0.39379 0.85269 0.80688 0.0
H44 H 0.41368 0.78402 0.88619 0.0
H45 H 0.47271 0.78315 0.77738 0.0
Cu46 Cu 0.63052 0.33831 0.71218 0.0
N47 N 0.6457 0.33626 0.683 0.0
N48 N 0.65549 0.33714 0.64498 0.0
C49 C 0.63748 0.33906 0.66085 0.0
C50 C 0.6755 0.33273 0.65762 0.0
C51 C 0.6694 0.33215 0.68093 0.0
O52 O 0.59775 0.34971 0.71078 0.0
C53 C 0.663 0.37255 0.72582 0.0
O54 O 0.65944 0.37999 0.70442 0.0
H55 H 0.61895 0.34288 0.6565 0.0
H56 H 0.68147 0.3292 0.69553 0.0
N57 N 0.62842 0.30992 0.72501 0.0
N58 N 0.63237 0.28142 0.74982 0.0
C59 C 0.63934 0.30233 0.74455 0.0
C60 C 0.61415 0.29329 0.71758 0.0
C61 C 0.61653 0.27567 0.73286 0.0
C62 C 0.58969 0.36633 0.69945 0.0
O63 O 0.60442 0.3783 0.68659 0.0
H64 H 0.65154 0.31223 0.7551 0.0
H65 H 0.60252 0.2941 0.70235 0.0
O66 O 0.65118 0.35569 0.73285 0.0
H67 H 0.69332 0.32998 0.65048 0.0
H68 H 0.60729 0.25989 0.73159 0.0
Cu69 Cu 0.89079 0.6885 0.2064 0.0
N70 N 0.87626 0.68768 0.17671 0.0
N71 N 0.86866 0.68887 0.13813 0.0
C72 C 0.88554 0.69137 0.15515 0.0
C73 C 0.84808 0.68376 0.14951 0.0
C74 C 0.85279 0.68313 0.17316 0.0
O75 O 0.9225 0.67477 0.20747 0.0
C76 C 0.85952 0.6557 0.22692 0.0
O77 O 0.86581 0.64285 0.20937 0.0
H78 H 0.90425 0.69551 0.15202 0.0
H79 H 0.8399 0.67973 0.1869 0.0
N80 N 0.89447 0.7178 0.21617 0.0
N81 N 0.89253 0.74757 0.23943 0.0
C82 C 0.88427 0.72685 0.2353 0.0
C83 C 0.90967 0.7333 0.2078 0.0
C84 C 0.90853 0.75171 0.22215 0.0
C85 C 0.93108 0.66071 0.19309 0.0
O86 O 0.91765 0.65353 0.17567 0.0
H87 H 0.87186 0.718 0.24657 0.0
H88 H 0.9213 0.73107 0.19278 0.0
O89 O 0.86899 0.67485 0.22884 0.0
H90 H 0.83068 0.68107 0.14136 0.0
H91 H 0.91887 0.76684 0.22018 0.0
Cu92 Cu 0.33323 0.10183 0.17575 0.0
N93 N 0.33132 0.07674 0.15662 0.0
N94 N 0.33138 0.04196 0.14301 0.0
C95 C 0.33394 0.0551 0.16212 0.0
C96 C 0.32685 0.0559 0.12501 0.0
C97 C 0.32679 0.07723 0.13344 0.0
O98 O 0.36429 0.10283 0.19189 0.0
C99 C 0.30539 0.11082 0.21712 0.0
O100 O 0.32584 0.11731 0.2265 0.0
H101 H 0.33779 0.04917 0.17966 0.0
H102 H 0.32343 0.0921 0.12335 0.0
N103 N 0.3322 0.1265 0.15603 0.0
N104 N 0.32228 0.15923 0.14046 0.0
C105 C 0.31633 0.14337 0.1562 0.0
C106 C 0.34865 0.13179 0.13966 0.0
C107 C 0.34259 0.15196 0.13 0.0
C108 C 0.37275 0.12165 0.19794 0.0
O109 O 0.35911 0.13931 0.19555 0.0
H110 H 0.30127 0.14432 0.16819 0.0
H111 H 0.3642 0.1218 0.13537 0.0
O112 O 0.30527 0.103 0.19638 0.0
H113 H 0.32324 0.05103 0.10707 0.0
H114 H 0.3524 0.16059 0.11636 0.0
Cu115 Cu 0.21088 0.90957 0.66621 0.0
N116 N 0.21653 0.93597 0.64978 0.0
N117 N 0.21609 0.97149 0.63825 0.0
C118 C 0.20902 0.95671 0.65479 0.0
C119 C 0.22855 0.95953 0.62238 0.0
C120 C 0.22881 0.93772 0.62955 0.0
O121 O 0.1781 0.90966 0.67884 0.0
C122 C 0.2321 0.89623 0.70981 0.0
O123 O 0.21023 0.88969 0.7153 0.0
H124 H 0.19826 0.96078 0.67 0.0
H125 H 0.23731 0.92401 0.62058 0.0
N126 N 0.2134 0.88601 0.64505 0.0
N127 N 0.22135 0.85249 0.63022 0.0
C128 C 0.22552 0.86685 0.648 0.0
C129 C 0.20132 0.88379 0.6247 0.0
C130 C 0.20617 0.86315 0.61551 0.0
C131 C 0.16653 0.89147 0.68091 0.0
O132 O 0.1776 0.87274 0.67635 0.0
H133 H 0.23629 0.86317 0.66336 0.0
H134 H 0.18932 0.89614 0.6174 0.0
O135 O 0.23568 0.90568 0.69014 0.0
H136 H 0.23715 0.9661 0.60682 0.0
H137 H 0.19895 0.85645 0.59934 0.0
Cu138 Cu 0.83911 0.42213 0.85974 0.0
N139 N 0.8369 0.44763 0.87813 0.0
N140 N 0.83648 0.483 0.88988 0.0
C141 C 0.83751 0.46904 0.87132 0.0
C142 C 0.83508 0.4698 0.90897 0.0
C143 C 0.83532 0.44805 0.90167 0.0
O144 O 0.86983 0.42203 0.84328 0.0
C145 C 0.81105 0.41894 0.81725 0.0
O146 O 0.83157 0.42133 0.80606 0.0
H147 H 0.83921 0.47424 0.85322 0.0
H148 H 0.83457 0.43351 0.91277 0.0
N149 N 0.8395 0.39766 0.87971 0.0
N150 N 0.82925 0.36588 0.89708 0.0
C151 C 0.82172 0.38285 0.88347 0.0
C152 C 0.85877 0.38991 0.8915 0.0
C153 C 0.85254 0.37022 0.90216 0.0
C154 C 0.87794 0.4038 0.83531 0.0
O155 O 0.86387 0.38624 0.83552 0.0
H156 H 0.80399 0.384 0.87559 0.0
H157 H 0.87634 0.39772 0.89166 0.0
O158 O 0.81089 0.41941 0.83957 0.0
H159 H 0.83377 0.47544 0.92694 0.0
H160 H 0.86424 0.35979 0.91262 0.0
Cu161 Cu 0.68547 0.60554 0.36271 0.0
N162 N 0.69362 0.58166 0.38199 0.0
N163 N 0.69838 0.54704 0.3954 0.0
C164 C 0.6914 0.55988 0.37713 0.0
C165 C 0.70526 0.56139 0.41233 0.0
C166 C 0.70231 0.58269 0.40401 0.0
O167 O 0.65202 0.60208 0.35295 0.0
C168 C 0.71252 0.62604 0.3266 0.0
O169 O 0.69913 0.64329 0.3318 0.0
H170 H 0.68441 0.55365 0.36066 0.0
H171 H 0.70617 0.5979 0.41336 0.0
N172 N 0.68662 0.63166 0.38024 0.0
N173 N 0.69906 0.66386 0.39534 0.0
C174 C 0.7058 0.64461 0.38519 0.0
C175 C 0.66725 0.64293 0.38782 0.0
C176 C 0.67484 0.66282 0.39709 0.0
C177 C 0.64266 0.60992 0.33432 0.0
O178 O 0.65661 0.619 0.31839 0.0
H179 H 0.7241 0.64061 0.38019 0.0
H180 H 0.64878 0.63743 0.38584 0.0
O181 O 0.70863 0.6077 0.33707 0.0
H182 H 0.71223 0.55687 0.42942 0.0
H183 H 0.66342 0.67575 0.40409 0.0
Cu184 Cu 0.17635 0.33944 0.10794 0.0
N185 N 0.17947 0.36674 0.1232 0.0
N186 N 0.17896 0.40234 0.13403 0.0
C187 C 0.17512 0.38781 0.11631 0.0
C188 C 0.18629 0.39001 0.15245 0.0
C189 C 0.18671 0.36818 0.14568 0.0
O190 O 0.16411 0.34071 0.07593 0.0
C191 C 0.14282 0.32561 0.14305 0.0
O192 O 0.13635 0.34655 0.14357 0.0
H193 H 0.16884 0.39238 0.09899 0.0
H194 H 0.19162 0.35414 0.1565 0.0
N195 N 0.20694 0.32717 0.10592 0.0
N196 N 0.23681 0.30257 0.10875 0.0
C197 C 0.2136 0.30709 0.11389 0.0
C198 C 0.22654 0.33575 0.09542 0.0
C199 C 0.24504 0.32056 0.09709 0.0
C200 C 0.14693 0.35201 0.0672 0.0
O201 O 0.13435 0.36531 0.08067 0.0
H202 H 0.20142 0.29579 0.12269 0.0
H203 H 0.2272 0.35179 0.08691 0.0
O204 O 0.15807 0.31924 0.12784 0.0
H205 H 0.1911 0.39636 0.16959 0.0
H206 H 0.2631 0.32262 0.09029 0.0
Cu207 Cu 0.6883 0.18279 0.93855 0.0
N208 N 0.70139 0.15458 0.93412 0.0
N209 N 0.70639 0.11937 0.92296 0.0
C210 C 0.69251 0.13771 0.92121 0.0
C211 C 0.72469 0.12501 0.93742 0.0
C212 C 0.7216 0.14673 0.94419 0.0
O213 O 0.66538 0.18309 0.96441 0.0
C214 C 0.68578 0.19316 0.89067 0.0
O215 O 0.70722 0.18394 0.89076 0.0
H216 H 0.67596 0.13874 0.91117 0.0
H217 H 0.73311 0.15611 0.95589 0.0
N218 N 0.71273 0.20233 0.94737 0.0
N219 N 0.73803 0.23112 0.94744 0.0
C220 C 0.72331 0.21825 0.93436 0.0
C221 C 0.72112 0.20519 0.96933 0.0
C222 C 0.73671 0.223 0.96945 0.0
C223 C 0.66353 0.16754 0.97945 0.0
O224 O 0.67563 0.14908 0.97636 0.0
H225 H 0.71941 0.22111 0.91601 0.0
H226 H 0.71559 0.19545 0.98434 0.0
O227 O 0.67381 0.19375 0.90969 0.0
H228 H 0.73938 0.11425 0.94258 0.0
H229 H 0.74605 0.2297 0.98457 0.0
Cu230 Cu 0.84564 0.84591 0.43 0.0
N231 N 0.83177 0.87374 0.42482 0.0
N232 N 0.82653 0.90934 0.41508 0.0
C233 C 0.8425 0.89254 0.41735 0.0
C234 C 0.80504 0.9007 0.4214 0.0
C235 C 0.80834 0.87879 0.4274 0.0
O236 O 0.86877 0.84683 0.45575 0.0
C237 C 0.84726 0.83588 0.38232 0.0
O238 O 0.82584 0.84511 0.38316 0.0
H239 H 0.86151 0.89374 0.4133 0.0
H240 H 0.79459 0.86728 0.43317 0.0
N241 N 0.8218 0.82592 0.43929 0.0
N242 N 0.79708 0.79666 0.44002 0.0
C243 C 0.81197 0.80922 0.42679 0.0
C244 C 0.81276 0.82388 0.46107 0.0
C245 C 0.79752 0.80582 0.4616 0.0
C246 C 0.86685 0.86081 0.47239 0.0
O247 O 0.85041 0.87639 0.471 0.0
H248 H 0.81636 0.80578 0.40868 0.0
H249 H 0.81743 0.83449 0.47569 0.0
O250 O 0.8598 0.83495 0.40104 0.0
H251 H 0.78813 0.90961 0.42187 0.0
H252 H 0.78764 0.79981 0.47668 0.0
Cu253 Cu 0.35879 0.67491 0.60279 0.0
N254 N 0.36745 0.64588 0.61064 0.0
N255 N 0.36795 0.60955 0.61864 0.0
C256 C 0.35402 0.62779 0.61572 0.0
C257 C 0.39082 0.61655 0.61545 0.0
C258 C 0.39042 0.63883 0.61052 0.0
O259 O 0.37031 0.68127 0.5713 0.0
C260 C 0.39426 0.70116 0.62778 0.0
O261 O 0.41049 0.69375 0.61301 0.0
H262 H 0.33453 0.62786 0.61658 0.0
H263 H 0.40584 0.64919 0.60668 0.0
N264 N 0.32574 0.68027 0.60371 0.0
N265 N 0.29317 0.70168 0.60791 0.0
C266 C 0.31635 0.69834 0.61404 0.0
C267 C 0.30779 0.67164 0.59065 0.0
C268 C 0.28762 0.68488 0.59318 0.0
C269 C 0.36654 0.66701 0.55523 0.0
O270 O 0.35524 0.64852 0.56059 0.0
H271 H 0.32701 0.70998 0.62416 0.0
H272 H 0.3097 0.6577 0.57887 0.0
O273 O 0.37245 0.695 0.62576 0.0
H274 H 0.40677 0.6063 0.61667 0.0
H275 H 0.27065 0.68294 0.584 0.0
Cu276 Cu 0.94861 0.84643 0.70112 0.0
N277 N 0.94098 0.83388 0.67211 0.0
N278 N 0.93149 0.8306 0.63414 0.0
C279 C 0.9325 0.84431 0.65287 0.0
C280 C 0.93955 0.81082 0.64195 0.0
C281 C 0.94535 0.81289 0.66536 0.0
O282 O 0.97673 0.86509 0.69665 0.0
C283 C 0.91254 0.88035 0.70752 0.0
O284 O 0.92371 0.89172 0.69113 0.0
H285 H 0.92806 0.86177 0.65238 0.0
H286 H 0.95282 0.80012 0.67654 0.0
N287 N 0.95647 0.82397 0.72227 0.0
N288 N 0.95419 0.80118 0.75317 0.0
C289 C 0.94341 0.81769 0.741 0.0
C290 C 0.97625 0.81114 0.72251 0.0
C291 C 0.9749 0.79703 0.74153 0.0
C292 C 0.99006 0.87196 0.71333 0.0
O293 O 0.98329 0.86852 0.73511 0.0
H294 H 0.92653 0.8254 0.74575 0.0
H295 H 0.99061 0.81201 0.70974 0.0
O296 O 0.92078 0.86162 0.71384 0.0
H297 H 0.94123 0.79595 0.63146 0.0
H298 H 0.98803 0.78452 0.74619 0.0
Cu299 Cu 0.58764 0.18297 0.2092 0.0
N300 N 0.59344 0.19578 0.17991 0.0
N301 N 0.60193 0.1992 0.14176 0.0
C302 C 0.60121 0.18539 0.16044 0.0
C303 C 0.59439 0.21903 0.14986 0.0
C304 C 0.5892 0.21687 0.17339 0.0
O305 O 0.55885 0.16504 0.20592 0.0
C306 C 0.6363 0.17491 0.21684 0.0
O307 O 0.63781 0.19488 0.20768 0.0
H308 H 0.6056 0.16791 0.15987 0.0
H309 H 0.58249 0.22971 0.18487 0.0
N310 N 0.58154 0.20512 0.23123 0.0
N311 N 0.58481 0.22739 0.26247 0.0
C312 C 0.59491 0.21066 0.25011 0.0
C313 C 0.56233 0.21864 0.23165 0.0
C314 C 0.5643 0.23242 0.25081 0.0
C315 C 0.54836 0.15494 0.22264 0.0
O316 O 0.55829 0.15483 0.24359 0.0
H317 H 0.6115 0.20235 0.25479 0.0
H318 H 0.54794 0.2185 0.21881 0.0
O319 O 0.61561 0.166 0.21909 0.0
H320 H 0.59282 0.23405 0.13956 0.0
H321 H 0.55173 0.24536 0.25552 0.0
Cu322 Cu 0.42569 0.67612 0.3194 0.0
N323 N 0.41938 0.68949 0.34836 0.0
N324 N 0.41075 0.69481 0.38627 0.0
C325 C 0.41384 0.67973 0.36894 0.0
C326 C 0.4145 0.71474 0.37605 0.0
C327 C 0.4198 0.7114 0.35274 0.0
O328 O 0.45478 0.658 0.32111 0.0
C329 C 0.37681 0.66718 0.31153 0.0
O330 O 0.37461 0.68674 0.32143 0.0
H331 H 0.41197 0.66198 0.37105 0.0
H332 H 0.42385 0.72406 0.33988 0.0
N333 N 0.43094 0.69836 0.29723 0.0
N334 N 0.42471 0.72252 0.26806 0.0
C335 C 0.41523 0.70592 0.28108 0.0
C336 C 0.45108 0.71049 0.29436 0.0
C337 C 0.44731 0.72541 0.27637 0.0
C338 C 0.47168 0.66287 0.33539 0.0
O339 O 0.46893 0.67976 0.34966 0.0
H340 H 0.39728 0.69923 0.27882 0.0
H341 H 0.46726 0.70876 0.30482 0.0
O342 O 0.39779 0.65887 0.30936 0.0
H343 H 0.41392 0.73063 0.38482 0.0
H344 H 0.46007 0.73772 0.27027 0.0
Cu345 Cu 0.09675 0.34925 0.82703 0.0
N346 N 0.11064 0.33935 0.85504 0.0
N347 N 0.12255 0.33658 0.89245 0.0
C348 C 0.10783 0.34707 0.87709 0.0
C349 C 0.13487 0.32167 0.87954 0.0
C350 C 0.1275 0.32342 0.85655 0.0
O351 O 0.06652 0.36432 0.83307 0.0
C352 C 0.13336 0.38176 0.82019 0.0
O353 O 0.12956 0.38674 0.84231 0.0
H354 H 0.09587 0.36057 0.88161 0.0
H355 H 0.13424 0.31402 0.84181 0.0
N356 N 0.08993 0.32486 0.80807 0.0
N357 N 0.09148 0.30069 0.77838 0.0
C358 C 0.10211 0.31827 0.78889 0.0
C359 C 0.07101 0.31101 0.80985 0.0
C360 C 0.0719 0.29607 0.79157 0.0
C361 C 0.05614 0.37631 0.8177 0.0
O362 O 0.06721 0.38038 0.79779 0.0
H363 H 0.11808 0.32662 0.78245 0.0
H364 H 0.05737 0.31192 0.82335 0.0
O365 O 0.12021 0.36717 0.81035 0.0
H366 H 0.14831 0.3103 0.88622 0.0
H367 H 0.05916 0.2828 0.78833 0.0
Cu368 Cu 0.70185 0.9299 0.82538 0.0
N369 N 0.67091 0.92442 0.8135 0.0
N370 N 0.63149 0.91695 0.81137 0.0
C371 C 0.65124 0.91747 0.8253 0.0
C372 C 0.63906 0.92367 0.79005 0.0
C373 C 0.66336 0.92817 0.79139 0.0
O374 O 0.70166 0.95646 0.84476 0.0
C375 C 0.71002 0.88495 0.83619 0.0
O376 O 0.69847 0.88177 0.81632 0.0
H377 H 0.65128 0.91346 0.84382 0.0
H378 H 0.67464 0.93411 0.77728 0.0
N379 N 0.72334 0.93482 0.80074 0.0
N380 N 0.75554 0.93226 0.77735 0.0
C381 C 0.74366 0.92352 0.79589 0.0
C382 C 0.72239 0.95133 0.78488 0.0
C383 C 0.74213 0.94974 0.77036 0.0
C384 C 0.6876 0.97264 0.84043 0.0
O385 O 0.67225 0.97111 0.82293 0.0
H386 H 0.7496 0.90922 0.80582 0.0
H387 H 0.70847 0.96386 0.78419 0.0
O388 O 0.71311 0.90467 0.84356 0.0
H389 H 0.62784 0.92513 0.77457 0.0
H390 H 0.74658 0.96097 0.75618 0.0
Cu391 Cu 0.83841 0.10409 0.33263 0.0
N392 N 0.86828 0.11653 0.32523 0.0
N393 N 0.90729 0.12571 0.32454 0.0
C394 C 0.89078 0.11067 0.33182 0.0
C395 C 0.89473 0.14135 0.31284 0.0
C396 C 0.87076 0.13562 0.31326 0.0
O397 O 0.8409 0.07384 0.34399 0.0
C398 C 0.8328 0.13641 0.36853 0.0
O399 O 0.85636 0.13513 0.37033 0.0
H400 H 0.89485 0.09629 0.34248 0.0
H401 H 0.85596 0.14502 0.30591 0.0
N402 N 0.81994 0.10347 0.30533 0.0
N403 N 0.78969 0.10922 0.28012 0.0
C404 C 0.79762 0.11176 0.30239 0.0
C405 C 0.82638 0.09534 0.28431 0.0
C406 C 0.80778 0.0989 0.26868 0.0
C407 C 0.84934 0.06786 0.36377 0.0
O408 O 0.8579 0.08292 0.37822 0.0
H409 H 0.7877 0.12001 0.31617 0.0
H410 H 0.84352 0.08759 0.28059 0.0
O411 O 0.82178 0.12349 0.35447 0.0
H412 H 0.90235 0.15601 0.30471 0.0
H413 H 0.80758 0.0942 0.25036 0.0
Cu414 Cu 0.17306 0.60205 0.19022 0.0
N415 N 0.14455 0.61031 0.20525 0.0
N416 N 0.10594 0.61877 0.21217 0.0
C417 C 0.12237 0.6127 0.19587 0.0
C418 C 0.11843 0.62027 0.23248 0.0
C419 C 0.14214 0.61503 0.22817 0.0
O420 O 0.16724 0.57486 0.17295 0.0
C421 C 0.18465 0.64561 0.17806 0.0
O422 O 0.17635 0.64925 0.19928 0.0
H423 H 0.1184 0.6098 0.17753 0.0
H424 H 0.1567 0.61481 0.24082 0.0
N425 N 0.19677 0.59644 0.21278 0.0
N426 N 0.2295 0.60003 0.2355 0.0
C427 C 0.21594 0.60918 0.2183 0.0
C428 C 0.19822 0.57861 0.22689 0.0
C429 C 0.21837 0.58075 0.24091 0.0
C430 C 0.1836 0.56544 0.16097 0.0
O431 O 0.20475 0.57512 0.15899 0.0
H432 H 0.21999 0.62472 0.20965 0.0
H433 H 0.18542 0.56505 0.227 0.0
O434 O 0.18433 0.6259 0.17006 0.0
H435 H 0.11111 0.62517 0.24927 0.0
H436 H 0.22407 0.56918 0.25433 0.0
Cu437 Cu 0.344 0.41534 0.69805 0.0
N438 N 0.37305 0.4049 0.71057 0.0
N439 N 0.412 0.39696 0.71659 0.0
C440 C 0.3958 0.4073 0.70255 0.0
C441 C 0.39882 0.38775 0.73397 0.0
C442 C 0.37493 0.39265 0.7302 0.0
O443 O 0.3495 0.44215 0.6799 0.0
C444 C 0.33984 0.37649 0.66983 0.0
O445 O 0.36351 0.37673 0.67019 0.0
H446 H 0.40032 0.41644 0.68681 0.0
H447 H 0.35984 0.38748 0.7409 0.0
N448 N 0.32374 0.42241 0.72301 0.0
N449 N 0.2918 0.4235 0.74681 0.0
C450 C 0.30081 0.41575 0.72639 0.0
C451 C 0.32942 0.43484 0.7418 0.0
C452 C 0.30978 0.43551 0.75655 0.0
C453 C 0.33194 0.45443 0.67371 0.0
O454 O 0.30984 0.44795 0.67837 0.0
H455 H 0.29116 0.40503 0.71437 0.0
H456 H 0.34673 0.4427 0.74463 0.0
O457 O 0.32834 0.39209 0.67983 0.0
H458 H 0.40583 0.37769 0.74815 0.0
H459 H 0.3088 0.44426 0.7731 0.0
Cu460 Cu 0.84322 0.71068 0.91943 0.0
N461 N 0.83695 0.68496 0.90231 0.0
N462 N 0.83439 0.64959 0.89084 0.0
C463 C 0.83973 0.66357 0.90868 0.0
C464 C 0.82795 0.66274 0.87271 0.0
C465 C 0.82953 0.68449 0.87985 0.0
O466 O 0.85462 0.70355 0.95079 0.0
C467 C 0.88392 0.72002 0.89112 0.0
O468 O 0.88846 0.69876 0.8936 0.0
H469 H 0.84609 0.65843 0.9258 0.0
H470 H 0.82578 0.69905 0.86935 0.0
N471 N 0.81481 0.72698 0.92139 0.0
N472 N 0.78722 0.75312 0.91433 0.0
C473 C 0.80996 0.74616 0.91024 0.0
C474 C 0.79455 0.72159 0.93298 0.0
C475 C 0.77745 0.73767 0.92863 0.0
C476 C 0.86 0.71884 0.96527 0.0
O477 O 0.8587 0.73961 0.95837 0.0
H478 H 0.82264 0.75447 0.89879 0.0
H479 H 0.7923 0.70682 0.94356 0.0
O480 O 0.86614 0.72845 0.90194 0.0
H481 H 0.82234 0.65705 0.85553 0.0
H482 H 0.75927 0.73795 0.93546 0.0
Cu483 Cu 0.32414 0.81731 0.0946 0.0
N484 N 0.31185 0.84473 0.10397 0.0
N485 N 0.30906 0.87979 0.11643 0.0
C486 C 0.32405 0.86332 0.10966 0.0
C487 C 0.28665 0.87112 0.11483 0.0
C488 C 0.28845 0.84955 0.10719 0.0
O489 O 0.34155 0.8199 0.06513 0.0
C490 C 0.33835 0.80658 0.1404 0.0
O491 O 0.31792 0.81643 0.1455 0.0
H492 H 0.3435 0.86458 0.10915 0.0
H493 H 0.27371 0.83811 0.10422 0.0
N494 N 0.2986 0.79756 0.09024 0.0
N495 N 0.27216 0.77012 0.09643 0.0
C496 C 0.29151 0.78125 0.10485 0.0
C497 C 0.2833 0.79676 0.07192 0.0
C498 C 0.26698 0.77985 0.07567 0.0
C499 C 0.33479 0.83304 0.0489 0.0
O500 O 0.31614 0.84599 0.0525 0.0
H501 H 0.30055 0.77751 0.1212 0.0
H502 H 0.28387 0.80783 0.05699 0.0
O503 O 0.34492 0.80549 0.11904 0.0
H504 H 0.27005 0.87982 0.11855 0.0
H505 H 0.25218 0.7754 0.0642 0.0
Cu506 Cu 0.1923 0.20055 0.61236 0.0
N507 N 0.1926 0.17298 0.62764 0.0
N508 N 0.19359 0.13688 0.63688 0.0
C509 C 0.19501 0.15209 0.6194 0.0
C510 C 0.19052 0.14871 0.65672 0.0
C511 C 0.19004 0.17083 0.65099 0.0
O512 O 0.18277 0.19943 0.57945 0.0
C513 C 0.15167 0.21489 0.63901 0.0
O514 O 0.14274 0.19517 0.63438 0.0
H515 H 0.1974 0.14811 0.60104 0.0
H516 H 0.18791 0.18453 0.66305 0.0
N517 N 0.22308 0.21292 0.61358 0.0
N518 N 0.25243 0.23788 0.61898 0.0
C519 C 0.22877 0.23324 0.6217 0.0
C520 C 0.24379 0.20432 0.60548 0.0
C521 C 0.26196 0.2197 0.60876 0.0
C522 C 0.16792 0.18617 0.56974 0.0
O523 O 0.15693 0.17106 0.58245 0.0
H524 H 0.21564 0.24461 0.62886 0.0
H525 H 0.24547 0.18813 0.59748 0.0
O526 O 0.17179 0.2205 0.6301 0.0
H527 H 0.18906 0.14187 0.67423 0.0
H528 H 0.2807 0.2176 0.60406 0.0
Cu529 Cu 0.69638 0.31884 0.429 0.0
N530 N 0.70294 0.34506 0.41275 0.0
N531 N 0.7064 0.38064 0.402 0.0
C532 C 0.69935 0.36636 0.41905 0.0
C533 C 0.71459 0.36768 0.38443 0.0
C534 C 0.71244 0.34586 0.39111 0.0
O535 O 0.68715 0.32443 0.4613 0.0
C536 C 0.65658 0.31019 0.39886 0.0
O537 O 0.65343 0.33177 0.39951 0.0
H538 H 0.69191 0.37123 0.43581 0.0
H539 H 0.71727 0.33146 0.38085 0.0
N540 N 0.72464 0.30226 0.43026 0.0
N541 N 0.75086 0.27443 0.4263 0.0
C542 C 0.72865 0.2821 0.4209 0.0
C543 C 0.74495 0.3076 0.44188 0.0
C544 C 0.76116 0.29047 0.43948 0.0
C545 C 0.66654 0.32979 0.46921 0.0
O546 O 0.64844 0.33262 0.45464 0.0
H547 H 0.71531 0.27305 0.41083 0.0
H548 H 0.74763 0.32281 0.4516 0.0
O549 O 0.67301 0.30149 0.41144 0.0
H550 H 0.72125 0.37348 0.36768 0.0
H551 H 0.77919 0.28994 0.44676 0.0
H552 H 0.15164 0.28101 0.14698 0.0
H553 H 0.11786 0.33579 0.18288 0.0
H554 H 0.14255 0.25681 0.18012 0.0
H555 H 0.10959 0.31191 0.21629 0.0
H556 H 0.07865 0.25935 0.26416 0.0
H557 H 0.08597 0.2822 0.22995 0.0
H558 H 0.15445 0.24967 0.21958 0.0
H559 H 0.14643 0.22576 0.25311 0.0
C560 C 0.14217 0.28787 0.16189 0.0
C561 C 0.1354 0.31035 0.1622 0.0
C562 C 0.13719 0.27404 0.18104 0.0
C563 C 0.12545 0.28236 0.20106 0.0
C564 C 0.11833 0.30476 0.20112 0.0
C565 C 0.12314 0.31853 0.18192 0.0
C566 C 0.09517 0.25679 0.25452 0.0
C567 C 0.11183 0.24046 0.2615 0.0
C568 C 0.09953 0.27019 0.23496 0.0
C569 C 0.12082 0.26787 0.22186 0.0
C570 C 0.13767 0.25174 0.22897 0.0
C571 C 0.13322 0.2382 0.24849 0.0
H572 H 0.40263 0.80333 0.73597 0.0
H573 H 0.45708 0.75516 0.75448 0.0
H574 H 0.39318 0.78218 0.70073 0.0
H575 H 0.44779 0.73426 0.71912 0.0
H576 H 0.43965 0.71322 0.6423 0.0
H577 H 0.45036 0.73666 0.67577 0.0
H578 H 0.37484 0.74611 0.69098 0.0
H579 H 0.36414 0.723 0.65759 0.0
C580 C 0.41252 0.78822 0.73267 0.0
C581 C 0.43062 0.78101 0.74822 0.0
C582 C 0.40713 0.77612 0.71239 0.0
C583 C 0.41977 0.75657 0.7071 0.0
C584 C 0.43799 0.74945 0.72249 0.0
C585 C 0.4433 0.76147 0.74281 0.0
C586 C 0.42536 0.72042 0.6527 0.0
C587 C 0.40106 0.71615 0.64732 0.0
C588 C 0.43148 0.73375 0.67194 0.0
C589 C 0.41344 0.74321 0.68605 0.0
C590 C 0.38917 0.73928 0.68034 0.0
C591 C 0.38306 0.72588 0.66126 0.0
H592 H 0.67523 0.28294 0.77259 0.0
H593 H 0.60601 0.25012 0.77243 0.0
H594 H 0.68751 0.26089 0.80652 0.0
H595 H 0.61842 0.2278 0.80616 0.0
H596 H 0.64149 0.21215 0.88317 0.0
H597 H 0.62821 0.23316 0.84877 0.0
H598 H 0.69689 0.22137 0.81561 0.0
H599 H 0.7102 0.20048 0.84986 0.0
C600 C 0.66262 0.27106 0.77983 0.0
C601 C 0.63966 0.26828 0.76978 0.0
C602 C 0.66973 0.25828 0.79913 0.0
C603 C 0.65395 0.24255 0.80898 0.0
C604 C 0.63092 0.23987 0.79905 0.0
C605 C 0.62391 0.2525 0.77959 0.0
C606 C 0.65369 0.21392 0.86848 0.0
C607 C 0.67693 0.20466 0.86931 0.0
C608 C 0.64605 0.22589 0.84875 0.0
C609 C 0.66157 0.22904 0.82954 0.0
C610 C 0.68464 0.21949 0.83025 0.0
C611 C 0.69219 0.20738 0.84984 0.0
H612 H 0.85008 0.74898 0.26254 0.0
H613 H 0.92137 0.77774 0.26106 0.0
H614 H 0.84017 0.77146 0.29672 0.0
H615 H 0.91133 0.80056 0.29517 0.0
H616 H 0.89057 0.81541 0.37354 0.0
H617 H 0.90216 0.79506 0.33816 0.0
H618 H 0.83367 0.81113 0.30637 0.0
H619 H 0.82205 0.8313 0.34151 0.0
C620 C 0.86363 0.76012 0.26952 0.0
C621 C 0.8865 0.76156 0.25909 0.0
C622 C 0.85789 0.77315 0.28897 0.0
C623 C 0.87496 0.78782 0.29862 0.0
C624 C 0.89786 0.78931 0.28821 0.0
C625 C 0.90352 0.77641 0.26855 0.0
C626 C 0.87808 0.81474 0.35892 0.0
C627 C 0.85533 0.8249 0.36043 0.0
C628 C 0.88476 0.80317 0.33863 0.0
C629 C 0.86874 0.80136 0.31955 0.0
C630 C 0.84627 0.81195 0.3209 0.0
C631 C 0.83968 0.82363 0.34103 0.0
H632 H 0.29863 0.13174 0.25918 0.0
H633 H 0.25986 0.0987 0.2034 0.0
H634 H 0.26063 0.1411 0.27793 0.0
H635 H 0.22181 0.10752 0.22253 0.0
H636 H 0.16014 0.15321 0.24629 0.0
H637 H 0.19732 0.13953 0.22911 0.0
H638 H 0.22601 0.1273 0.29846 0.0
H639 H 0.18895 0.1416 0.3157 0.0
C640 C 0.28201 0.12616 0.25108 0.0
C641 C 0.28233 0.11458 0.22969 0.0
C642 C 0.26017 0.13143 0.26193 0.0
C643 C 0.23806 0.12518 0.25172 0.0
C644 C 0.23844 0.11296 0.2307 0.0
C645 C 0.26029 0.10776 0.2198 0.0
C646 C 0.17428 0.14745 0.25792 0.0
C647 C 0.17156 0.14861 0.2824 0.0
C648 C 0.19561 0.13945 0.24803 0.0
C649 C 0.21478 0.13231 0.26236 0.0
C650 C 0.2118 0.13295 0.28688 0.0
C651 C 0.19047 0.14103 0.29677 0.0
H652 H 0.32956 0.82341 0.79924 0.0
H653 H 0.37022 0.88292 0.78423 0.0
H654 H 0.2955 0.83807 0.77731 0.0
H655 H 0.33579 0.89787 0.76263 0.0
H656 H 0.28025 0.9033 0.70191 0.0
H657 H 0.31413 0.89169 0.72628 0.0
H658 H 0.26452 0.86583 0.77788 0.0
H659 H 0.23067 0.87697 0.75328 0.0
C660 C 0.33117 0.83975 0.79147 0.0
C661 C 0.3527 0.85195 0.79347 0.0
C662 C 0.31152 0.84824 0.77898 0.0
C663 C 0.31282 0.8692 0.76818 0.0
C664 C 0.33424 0.88157 0.77047 0.0
C665 C 0.35394 0.87305 0.78298 0.0
C666 C 0.27655 0.8953 0.71854 0.0
C667 C 0.2527 0.89094 0.72554 0.0
C668 C 0.29601 0.88873 0.7326 0.0
C669 C 0.29211 0.87767 0.75402 0.0
C670 C 0.26823 0.87394 0.76131 0.0
C671 C 0.24879 0.88046 0.74725 0.0
H672 H 0.76585 0.41209 0.83512 0.0
H673 H 0.80487 0.41537 0.76968 0.0
H674 H 0.72902 0.40297 0.81379 0.0
H675 H 0.76811 0.40584 0.7484 0.0
H676 H 0.69381 0.40656 0.71493 0.0
H677 H 0.72854 0.41954 0.73736 0.0
H678 H 0.71227 0.37209 0.79193 0.0
H679 H 0.67731 0.35936 0.76972 0.0
C680 C 0.76659 0.41093 0.81617 0.0
C681 C 0.78839 0.41443 0.80413 0.0
C682 C 0.74546 0.40557 0.80395 0.0
C683 C 0.74556 0.40359 0.77936 0.0
C684 C 0.76727 0.40749 0.76729 0.0
C685 C 0.78841 0.41284 0.77952 0.0
C686 C 0.69746 0.39905 0.73184 0.0
C687 C 0.68275 0.38187 0.74048 0.0
C688 C 0.71751 0.40639 0.74462 0.0
C689 C 0.72335 0.39678 0.7664 0.0
C690 C 0.70821 0.38004 0.77535 0.0
C691 C 0.68818 0.37268 0.76255 0.0
H692 H 0.832 0.61774 0.22591 0.0
H693 H 0.84109 0.67944 0.26346 0.0
H694 H 0.79629 0.60938 0.24945 0.0
H695 H 0.80576 0.67097 0.287 0.0
H696 H 0.72643 0.66351 0.30346 0.0
H697 H 0.7623 0.66922 0.27979 0.0
H698 H 0.78234 0.6007 0.29 0.0
H699 H 0.74609 0.59484 0.31365 0.0
C700 C 0.82659 0.62939 0.23934 0.0
C701 C 0.83935 0.64934 0.24266 0.0
C702 C 0.80614 0.62456 0.25286 0.0
C703 C 0.79798 0.63964 0.26989 0.0
C704 C 0.81125 0.65921 0.2737 0.0
C705 C 0.83166 0.66398 0.26029 0.0
C706 C 0.73833 0.64957 0.30057 0.0
C707 C 0.73339 0.62873 0.31058 0.0
C708 C 0.75904 0.6529 0.28713 0.0
C709 C 0.77538 0.6355 0.28326 0.0
C710 C 0.77009 0.61444 0.2926 0.0
C711 C 0.74934 0.6111 0.30619 0.0
H712 H 0.3423 0.19774 0.1256 0.0
H713 H 0.27474 0.16785 0.146 0.0
H714 H 0.32187 0.23279 0.11841 0.0
H715 H 0.25414 0.20286 0.13853 0.0
H716 H 0.27327 0.28453 0.0837 0.0
H717 H 0.29403 0.24973 0.09158 0.0
H718 H 0.25028 0.24001 0.15341 0.0
H719 H 0.22935 0.27468 0.14528 0.0
C720 C 0.32303 0.19859 0.12832 0.0
C721 C 0.31013 0.17998 0.1363 0.0
C722 C 0.31129 0.2187 0.12418 0.0
C723 C 0.28634 0.22067 0.12782 0.0
C724 C 0.27344 0.20205 0.13588 0.0
C725 C 0.28522 0.18196 0.14013 0.0
C726 C 0.26825 0.27507 0.09908 0.0
C727 C 0.24963 0.28235 0.11383 0.0
C728 C 0.28016 0.25511 0.10363 0.0
C729 C 0.27381 0.24202 0.12312 0.0
C730 C 0.25534 0.24945 0.138 0.0
C731 C 0.24336 0.26935 0.13338 0.0
H732 H 0.78245 0.36421 0.90977 0.0
H733 H 0.8456 0.32383 0.89919 0.0
H734 H 0.75966 0.33116 0.92182 0.0
H735 H 0.82276 0.29077 0.91079 0.0
H736 H 0.76135 0.2366 0.90636 0.0
H737 H 0.78349 0.26971 0.8934 0.0
H738 H 0.76532 0.30266 0.95816 0.0
H739 H 0.74361 0.26945 0.97125 0.0
C740 C 0.79134 0.34824 0.90988 0.0
C741 C 0.81574 0.3465 0.90369 0.0
C742 C 0.7784 0.32943 0.91685 0.0
C743 C 0.78953 0.30852 0.91718 0.0
C744 C 0.8138 0.30672 0.91057 0.0
C745 C 0.82686 0.32559 0.90411 0.0
C746 C 0.76213 0.25096 0.91774 0.0
C747 C 0.75093 0.25051 0.93981 0.0
C748 C 0.77481 0.26978 0.91041 0.0
C749 C 0.77601 0.28864 0.92481 0.0
C750 C 0.76453 0.28832 0.94673 0.0
C751 C 0.75231 0.26933 0.95427 0.0
H752 H 0.77671 0.78886 0.39772 0.0
H753 H 0.78837 0.76008 0.46614 0.0
H754 H 0.75378 0.7559 0.38592 0.0
H755 H 0.76561 0.72708 0.45433 0.0
H756 H 0.74425 0.66295 0.41318 0.0
H757 H 0.76946 0.69505 0.42348 0.0
H758 H 0.71306 0.73907 0.40001 0.0
H759 H 0.68793 0.70711 0.38996 0.0
C760 C 0.77452 0.77541 0.41013 0.0
C761 C 0.78418 0.77705 0.43287 0.0
C762 C 0.76133 0.75664 0.40345 0.0
C763 C 0.75796 0.73899 0.41924 0.0
C764 C 0.76808 0.74041 0.44179 0.0
C765 C 0.78088 0.75934 0.44861 0.0
C766 C 0.73738 0.6795 0.41017 0.0
C767 C 0.71413 0.68258 0.40095 0.0
C768 C 0.75169 0.69781 0.41615 0.0
C769 C 0.74317 0.7195 0.41251 0.0
C770 C 0.72011 0.72254 0.40286 0.0
C771 C 0.70567 0.70428 0.39732 0.0
H772 H 0.19908 0.81776 0.6091 0.0
H773 H 0.26382 0.83643 0.64629 0.0
H774 H 0.2142 0.78004 0.60508 0.0
H775 H 0.27932 0.7989 0.64184 0.0
H776 H 0.29382 0.72584 0.64771 0.0
H777 H 0.27476 0.7617 0.65429 0.0
H778 H 0.24345 0.75883 0.58482 0.0
H779 H 0.26204 0.72268 0.57868 0.0
C780 C 0.21666 0.81385 0.61623 0.0
C781 C 0.23028 0.83013 0.62796 0.0
C782 C 0.22537 0.7922 0.61391 0.0
C783 C 0.24802 0.78629 0.62312 0.0
C784 C 0.26159 0.80262 0.63492 0.0
C785 C 0.25277 0.82422 0.63741 0.0
C786 C 0.28264 0.73282 0.63398 0.0
C787 C 0.27948 0.72148 0.61267 0.0
C788 C 0.27184 0.75345 0.63765 0.0
C789 C 0.25778 0.76341 0.61998 0.0
C790 C 0.25392 0.75164 0.59896 0.0
C791 C 0.26455 0.73087 0.5954 0.0
H792 H 0.87583 0.76314 0.87842 0.0
H793 H 0.92155 0.70697 0.86337 0.0
H794 H 0.89426 0.78362 0.84623 0.0
H795 H 0.93976 0.72744 0.83096 0.0
H796 H 0.98029 0.77845 0.78575 0.0
H797 H 0.96512 0.75981 0.82073 0.0
H798 H 0.89284 0.78059 0.80326 0.0
H799 H 0.90783 0.79895 0.76826 0.0
C800 C 0.88999 0.75522 0.86842 0.0
C801 C 0.8971 0.73334 0.8734 0.0
C802 C 0.90042 0.76693 0.84985 0.0
C803 C 0.91829 0.75708 0.83587 0.0
C804 C 0.92614 0.73555 0.84147 0.0
C805 C 0.91563 0.72379 0.86001 0.0
C806 C 0.96115 0.77893 0.78923 0.0
C807 C 0.94534 0.79029 0.77407 0.0
C808 C 0.95246 0.76828 0.80935 0.0
C809 C 0.92779 0.76881 0.81486 0.0
C810 C 0.91202 0.78021 0.79978 0.0
C811 C 0.92065 0.79077 0.77965 0.0
H812 H 0.55954 0.25094 0.29481 0.0
H813 H 0.63121 0.22791 0.27808 0.0
H814 H 0.57536 0.26982 0.32931 0.0
H815 H 0.64688 0.24657 0.31275 0.0
H816 H 0.66401 0.26654 0.38782 0.0
H817 H 0.64553 0.24536 0.35605 0.0
H818 H 0.60161 0.30192 0.33787 0.0
H819 H 0.61988 0.32307 0.36976 0.0
C820 C 0.57867 0.24993 0.29835 0.0
C821 C 0.59406 0.23792 0.28345 0.0
C822 C 0.58772 0.26074 0.31822 0.0
C823 C 0.61237 0.25972 0.32379 0.0
C824 C 0.62772 0.24742 0.30915 0.0
C825 C 0.6187 0.2367 0.28922 0.0
C826 C 0.65018 0.27439 0.37726 0.0
C827 C 0.64349 0.29656 0.3813 0.0
C828 C 0.63973 0.26229 0.35893 0.0
C829 C 0.62224 0.272 0.34431 0.0
C830 C 0.61491 0.29389 0.34891 0.0
C831 C 0.62546 0.30604 0.36715 0.0
H832 H 0.44592 0.74473 0.23206 0.0
H833 H 0.37662 0.72856 0.26206 0.0
H834 H 0.42594 0.76614 0.20136 0.0
H835 H 0.35669 0.74915 0.23092 0.0
H836 H 0.32931 0.80668 0.18742 0.0
H837 H 0.35094 0.787 0.2182 0.0
H838 H 0.40057 0.7612 0.16675 0.0
H839 H 0.37917 0.78131 0.13589 0.0
C840 C 0.42645 0.74573 0.23215 0.0
C841 C 0.41292 0.7349 0.24961 0.0
C842 C 0.41498 0.75782 0.21439 0.0
C843 C 0.38971 0.75942 0.21369 0.0
C844 C 0.3762 0.74852 0.23109 0.0
C845 C 0.38764 0.73644 0.24881 0.0
C846 C 0.34492 0.79692 0.18264 0.0
C847 C 0.35245 0.79552 0.15916 0.0
C848 C 0.35723 0.78551 0.2003 0.0
C849 C 0.37737 0.77235 0.19494 0.0
C850 C 0.38525 0.77132 0.17152 0.0
C851 C 0.37292 0.78278 0.15381 0.0
H852 H 0.16501 0.2568 0.65219 0.0
H853 H 0.11318 0.20515 0.66722 0.0
H854 H 0.14933 0.27865 0.68466 0.0
H855 H 0.09795 0.22671 0.7001 0.0
H856 H 0.06337 0.27857 0.74714 0.0
H857 H 0.07639 0.25922 0.71186 0.0
H858 H 0.15016 0.27772 0.72664 0.0
H859 H 0.13705 0.29726 0.76171 0.0
C860 C 0.15016 0.25015 0.66232 0.0
C861 C 0.14042 0.22917 0.65712 0.0
C862 C 0.14129 0.26262 0.68109 0.0
C863 C 0.12253 0.25438 0.69522 0.0
C864 C 0.11226 0.23371 0.6895 0.0
C865 C 0.12106 0.22128 0.67065 0.0
C866 C 0.08238 0.27841 0.74292 0.0
C867 C 0.09916 0.28944 0.75733 0.0
C868 C 0.08986 0.26731 0.72266 0.0
C869 C 0.11434 0.26688 0.71632 0.0
C870 C 0.1311 0.27803 0.73068 0.0
C871 C 0.1236 0.28921 0.75088 0.0
H872 H 0.79175 0.91066 0.7998 0.0
H873 H 0.77089 0.93757 0.73255 0.0
H874 H 0.83012 0.89892 0.78332 0.0
H875 H 0.80915 0.92564 0.71595 0.0
H876 H 0.88951 0.91991 0.69929 0.0
H877 H 0.85189 0.93298 0.71659 0.0
H878 H 0.84648 0.8723 0.75667 0.0
H879 H 0.88422 0.85956 0.73994 0.0
C880 C 0.79523 0.91387 0.78144 0.0
C881 C 0.77818 0.92504 0.76751 0.0
C882 C 0.81727 0.90715 0.77196 0.0
C883 C 0.8228 0.91131 0.74827 0.0
C884 C 0.80573 0.92248 0.73435 0.0
C885 C 0.78372 0.92929 0.74386 0.0
C886 C 0.88033 0.90942 0.71187 0.0
C887 C 0.88993 0.8887 0.71821 0.0
C888 C 0.85867 0.91684 0.72169 0.0
C889 C 0.84609 0.9037 0.73805 0.0
C890 C 0.85581 0.88303 0.74443 0.0
C891 C 0.87744 0.87566 0.73469 0.0
H892 H 0.68282 0.18727 0.20901 0.0
H893 H 0.63989 0.13708 0.24351 0.0
H894 H 0.7194 0.16994 0.22381 0.0
H895 H 0.67674 0.11961 0.25828 0.0
H896 H 0.74724 0.11425 0.30298 0.0
H897 H 0.70959 0.12881 0.28691 0.0
H898 H 0.74319 0.13559 0.21901 0.0
H899 H 0.78091 0.12152 0.23517 0.0
C900 C 0.68118 0.17245 0.21966 0.0
C901 C 0.65842 0.16358 0.22511 0.0
C902 C 0.70218 0.16244 0.22802 0.0
C903 C 0.70097 0.14339 0.24219 0.0
C904 C 0.67823 0.13438 0.24754 0.0
C905 C 0.65715 0.14431 0.23898 0.0
C906 C 0.7466 0.11891 0.28465 0.0
C907 C 0.76714 0.11683 0.2704 0.0
C908 C 0.72496 0.12701 0.27538 0.0
C909 C 0.72344 0.1334 0.2517 0.0
C910 C 0.74386 0.131 0.23737 0.0
C911 C 0.76542 0.12275 0.24659 0.0
H912 H 0.33014 0.68112 0.31342 0.0
H913 H 0.37465 0.62819 0.28662 0.0
H914 H 0.29489 0.66433 0.29524 0.0
H915 H 0.33923 0.61152 0.26801 0.0
H916 H 0.26538 0.5774 0.2575 0.0
H917 H 0.301 0.59289 0.27662 0.0
H918 H 0.27862 0.65874 0.25623 0.0
H919 H 0.24265 0.64337 0.23791 0.0
C920 C 0.33243 0.66587 0.30366 0.0
C921 C 0.35528 0.65605 0.30143 0.0
C922 C 0.31219 0.65632 0.29308 0.0
C923 C 0.31422 0.63668 0.27996 0.0
C924 C 0.33699 0.62657 0.27812 0.0
C925 C 0.35731 0.63616 0.28872 0.0
C926 C 0.26794 0.59519 0.25725 0.0
C927 C 0.25101 0.60911 0.2462 0.0
C928 C 0.28853 0.60405 0.268 0.0
C929 C 0.29266 0.62707 0.26805 0.0
C930 C 0.27586 0.64096 0.25682 0.0
C931 C 0.25533 0.6321 0.24604 0.0
H932 H 0.25019 0.41607 0.72304 0.0
H933 H 0.28001 0.42128 0.79281 0.0
H934 H 0.21052 0.40842 0.73964 0.0
H935 H 0.24065 0.41316 0.80947 0.0
H936 H 0.16393 0.41482 0.83452 0.0
H937 H 0.2012 0.42691 0.81582 0.0
H938 H 0.18901 0.38014 0.75958 0.0
H939 H 0.15142 0.36869 0.77781 0.0
C940 C 0.24829 0.41543 0.74193 0.0
C941 C 0.26826 0.41927 0.75659 0.0
C942 C 0.22555 0.41103 0.75148 0.0
C943 C 0.22226 0.41017 0.77595 0.0
C944 C 0.24228 0.41414 0.79058 0.0
C945 C 0.26494 0.41872 0.78102 0.0
C946 C 0.16907 0.40733 0.81801 0.0
C947 C 0.15472 0.39073 0.80773 0.0
C948 C 0.19056 0.41413 0.80736 0.0
C949 C 0.19835 0.40436 0.78626 0.0
C950 C 0.18354 0.38826 0.77564 0.0
C951 C 0.16197 0.3816 0.78618 0.0
H952 H 0.80832 0.79192 0.90181 0.0
H953 H 0.73968 0.75818 0.90462 0.0
H954 H 0.78889 0.8241 0.88392 0.0
H955 H 0.72017 0.7905 0.88712 0.0
H956 H 0.70204 0.84088 0.82818 0.0
H957 H 0.72023 0.80931 0.84824 0.0
H958 H 0.75947 0.854 0.89357 0.0
H959 H 0.74135 0.88568 0.87344 0.0
C960 C 0.78909 0.79138 0.89863 0.0
C961 C 0.77557 0.77244 0.90458 0.0
C962 C 0.77792 0.8099 0.8886 0.0
C963 C 0.75299 0.80984 0.88409 0.0
C964 C 0.73944 0.79098 0.89021 0.0
C965 C 0.75058 0.77254 0.90043 0.0
C966 C 0.71446 0.84401 0.84249 0.0
C967 C 0.72027 0.86582 0.84916 0.0
C968 C 0.72478 0.82589 0.85407 0.0
C969 C 0.74131 0.82915 0.87248 0.0
C970 C 0.74697 0.85096 0.87931 0.0
C971 C 0.73647 0.8691 0.86786 0.0
H972 H 0.20794 0.64356 0.13564 0.0
H973 H 0.18725 0.68921 0.19039 0.0
H974 H 0.22903 0.6736 0.11538 0.0
H975 H 0.20785 0.71916 0.17 0.0
H976 H 0.27031 0.76066 0.14296 0.0
H977 H 0.24888 0.73026 0.16171 0.0
H978 H 0.2227 0.70839 0.09415 0.0
H979 H 0.24496 0.73838 0.07522 0.0
C980 C 0.20767 0.66003 0.14323 0.0
C981 C 0.196 0.66395 0.1647 0.0
C982 C 0.21969 0.67726 0.13158 0.0
C983 C 0.2203 0.69876 0.14116 0.0
C984 C 0.20813 0.70272 0.16234 0.0
C985 C 0.19616 0.68555 0.17397 0.0
C986 C 0.26024 0.74927 0.13202 0.0
C987 C 0.25942 0.75203 0.10753 0.0
C988 C 0.24767 0.73196 0.14283 0.0
C989 C 0.23392 0.71695 0.12946 0.0
C990 C 0.23324 0.71957 0.10495 0.0
C991 C 0.2458 0.73692 0.09413 0.0
H992 H 0.29101 0.37067 0.66557 0.0
H993 H 0.35899 0.33833 0.65198 0.0
H994 H 0.26959 0.33777 0.65186 0.0
H995 H 0.33764 0.30526 0.63896 0.0
H996 H 0.29219 0.25543 0.59839 0.0
H997 H 0.31286 0.28975 0.60885 0.0
H998 H 0.26136 0.30066 0.66442 0.0
H999 H 0.24057 0.26653 0.65368 0.0
C1000 C 0.3014 0.35658 0.65959 0.0
C1001 C 0.32673 0.35715 0.65993 0.0
C1002 C 0.28911 0.33762 0.65189 0.0
C1003 C 0.30184 0.31873 0.64444 0.0
C1004 C 0.32719 0.31954 0.64429 0.0
C1005 C 0.33947 0.33852 0.65188 0.0
C1006 C 0.28537 0.26509 0.61292 0.0
C1007 C 0.26473 0.25819 0.62521 0.0
C1008 C 0.29723 0.2848 0.61894 0.0
C1009 C 0.28882 0.29806 0.6375 0.0
C1010 C 0.26813 0.29114 0.64975 0.0
C1011 C 0.25621 0.2715 0.64364 0.0
H1012 H 0.74107 0.25035 0.38727 0.0
H1013 H 0.78444 0.25087 0.45023 0.0
H1014 H 0.75985 0.21566 0.37532 0.0
H1015 H 0.803 0.21603 0.43854 0.0
H1016 H 0.85161 0.16998 0.39508 0.0
H1017 H 0.83086 0.20243 0.41017 0.0
H1018 H 0.76327 0.1768 0.38372 0.0
H1019 H 0.78421 0.14458 0.36797 0.0
C1020 C 0.75438 0.24291 0.39872 0.0
C1021 C 0.76135 0.25348 0.41963 0.0
C1022 C 0.76513 0.22295 0.39191 0.0
C1023 C 0.78302 0.213 0.40593 0.0
C1024 C 0.78962 0.22339 0.42708 0.0
C1025 C 0.77898 0.24339 0.43381 0.0
C1026 C 0.83228 0.17111 0.39269 0.0
C1027 C 0.81962 0.1547 0.38019 0.0
C1028 C 0.82032 0.18972 0.40146 0.0
C1029 C 0.79536 0.19236 0.39806 0.0
C1030 C 0.78256 0.17553 0.3863 0.0
C1031 C 0.79454 0.15694 0.37744 0.0
H1032 H 0.14376 0.15679 0.54125 0.0
H1033 H 0.18221 0.21914 0.53996 0.0
H1034 H 0.13825 0.15892 0.49877 0.0
H1035 H 0.17602 0.22169 0.49785 0.0
H1036 H 0.18472 0.20927 0.42028 0.0
H1037 H 0.1895 0.20584 0.46251 0.0
H1038 H 0.11798 0.17769 0.4675 0.0
H1039 H 0.11353 0.18071 0.42493 0.0
C1040 C 0.15085 0.17105 0.53195 0.0
C1041 C 0.16356 0.18771 0.54404 0.0
C1042 C 0.14758 0.17234 0.50757 0.0
C1043 C 0.15683 0.19041 0.4947 0.0
C1044 C 0.16911 0.20726 0.50697 0.0
C1045 C 0.17253 0.20587 0.53123 0.0
C1046 C 0.16995 0.20247 0.43038 0.0
C1047 C 0.14868 0.19541 0.41921 0.0
C1048 C 0.17265 0.20054 0.45468 0.0
C1049 C 0.15404 0.19169 0.46862 0.0
C1050 C 0.13283 0.18436 0.45739 0.0
C1051 C 0.13022 0.18613 0.43297 0.0
H1052 H 0.36939 0.8043 0.03331 0.0
H1053 H 0.32671 0.86058 1.01149 0.0
H1054 H 0.3865 0.80185 0.99402 0.0
H1055 H 0.34375 0.85798 0.97213 0.0
H1056 H 0.39739 0.85734 0.90976 0.0
H1057 H 0.38212 0.86202 0.94962 0.0
H1058 H 0.37082 0.79134 0.9549 0.0
H1059 H 0.38557 0.78663 0.91519 0.0
C1060 C 0.36377 0.81625 0.0202 0.0
C1061 C 0.34656 0.83256 0.02554 0.0
C1062 C 0.37347 0.81476 0.99763 0.0
C1063 C 0.36634 0.82961 0.97989 0.0
C1064 C 0.34972 0.84637 0.98543 0.0
C1065 C 0.33987 0.84777 1.00797 0.0
C1066 C 0.39145 0.84281 0.91929 0.0
C1067 C 0.39295 0.82157 0.90915 0.0
C1068 C 0.38275 0.84551 0.94219 0.0
C1069 C 0.37549 0.82703 0.95552 0.0
C1070 C 0.37675 0.80587 0.94531 0.0
C1071 C 0.38526 0.80319 0.92245 0.0
H1072 H 0.6257 0.34212 0.49338 0.0
H1073 H 0.70001 0.32289 0.50346 0.0
H1074 H 0.62111 0.34609 0.53595 0.0
H1075 H 0.69529 0.32635 0.54553 0.0
H1076 H 0.68964 0.35474 0.6171 0.0
H1077 H 0.69061 0.35478 0.57448 0.0
H1078 H 0.62006 0.32435 0.57276 0.0
H1079 H 0.61903 0.32473 0.61584 0.0
C1080 C 0.64102 0.33872 0.50462 0.0
C1081 C 0.66327 0.33231 0.49494 0.0
C1082 C 0.63835 0.34088 0.52901 0.0
C1083 C 0.65789 0.33676 0.54419 0.0
C1084 C 0.67999 0.33016 0.53441 0.0
C1085 C 0.68266 0.32804 0.51019 0.0
C1086 C 0.67429 0.34813 0.60764 0.0
C1087 C 0.65444 0.33939 0.6198 0.0
C1088 C 0.67485 0.3481 0.58318 0.0
C1089 C 0.65564 0.33913 0.57014 0.0
C1090 C 0.63516 0.33141 0.58225 0.0
C1091 C 0.63454 0.3316 0.60689 0.0
H1092 H 0.89978 0.71592 0.11483 0.0
H1093 H 0.84344 0.66743 0.10448 0.0
H1094 H 0.90155 0.72208 0.07235 0.0
H1095 H 0.84463 0.67397 0.06245 0.0
H1096 H 0.86243 0.67783 0.98592 0.0
H1097 H 0.86839 0.6693 0.02737 0.0
H1098 H 0.87587 0.73919 0.04244 0.0
H1099 H 0.8704 0.74769 1.00096 0.0
C1100 C 0.88797 0.70643 0.10349 0.0
C1101 C 0.87131 0.69135 0.11307 0.0
C1102 C 0.88881 0.71009 0.07919 0.0
C1103 C 0.87316 0.69859 0.06395 0.0
C1104 C 0.85713 0.68297 0.07355 0.0
C1105 C 0.85622 0.67942 0.09774 0.0
C1106 C 0.86561 0.69137 0.99802 0.0
C1107 C 0.86572 0.71346 0.9901 0.0
C1108 C 0.86892 0.68649 0.02182 0.0
C1109 C 0.87241 0.70357 0.03831 0.0
C1110 C 0.87346 0.7256 0.03024 0.0
C1111 C 0.87014 0.73048 1.00643 0.0
H1112 H 0.39758 0.16034 0.20168 0.0
H1113 H 0.40628 0.08937 0.20848 0.0
H1114 H 0.44057 0.16546 0.20801 0.0
H1115 H 0.44971 0.09478 0.21536 0.0
H1116 H 0.52115 0.12943 0.25268 0.0
H1117 H 0.47861 0.11886 0.24799 0.0
H1118 H 0.47715 0.15065 0.18019 0.0
H1119 H 0.51941 0.16086 0.18447 0.0
C1120 C 0.40857 0.14581 0.20486 0.0
C1121 C 0.39847 0.12441 0.20444 0.0
C1122 C 0.43323 0.1488 0.20839 0.0
C1123 C 0.44837 0.13051 0.21197 0.0
C1124 C 0.43831 0.10912 0.21263 0.0
C1125 C 0.41353 0.10606 0.20867 0.0
C1126 C 0.51184 0.13384 0.23662 0.0
C1127 C 0.52364 0.14613 0.21903 0.0
C1128 C 0.48758 0.12773 0.23395 0.0
C1129 C 0.4747 0.13413 0.21383 0.0
C1130 C 0.48671 0.14566 0.19593 0.0
C1131 C 0.51094 0.15145 0.19841 0.0
H1132 H 1.01294 0.87237 0.67098 0.0
H1133 H 0.02333 0.88949 0.74394 0.0
H1134 H 0.0554 0.8798 0.66343 0.0
H1135 H 0.06598 0.89723 0.7361 0.0
H1136 H 0.13889 0.92434 0.70096 0.0
H1137 H 0.09529 0.92312 0.70889 0.0
H1138 H 0.09196 0.85686 0.68054 0.0
H1139 H 0.13509 0.85778 0.67309 0.0
C1140 C 0.02412 0.87815 0.68533 0.0
C1141 C 1.01475 0.88009 0.70815 0.0
C1142 C 0.04847 0.88233 0.68098 0.0
C1143 C 0.06395 0.88888 0.69923 0.0
C1144 C 0.05437 0.89225 0.72173 0.0
C1145 C 0.03 0.88774 0.7262 0.0
C1146 C 0.1288 0.90952 0.69652 0.0
C1147 C 0.14044 0.89115 0.68643 0.0
C1148 C 0.10394 0.90883 0.70109 0.0
C1149 C 0.09031 0.88997 0.6951 0.0
C1150 C 0.102 0.87169 0.68507 0.0
C1151 C 0.12676 0.8722 0.68096 0.0
H1152 H 0.02437 0.36118 0.85057 0.0
H1153 H 0.03006 0.40635 0.7919 0.0
H1154 H 0.98139 0.36911 0.85338 0.0
H1155 H 0.9869 0.41447 0.79502 0.0
H1156 H 0.91221 0.43647 0.82988 0.0
H1157 H 0.95586 0.43149 0.82541 0.0
H1158 H 0.94603 0.36048 0.82492 0.0
H1159 H 0.90269 0.3653 0.82901 0.0
C1160 C 0.01655 0.37303 0.83847 0.0
C1161 C 0.03066 0.38306 0.82093 0.0
C1162 C 0.99189 0.37745 0.84 0.0
C1163 C 0.9808 0.39224 0.82427 0.0
C1164 C 0.99502 0.40301 0.80736 0.0
C1165 C 0.01969 0.39832 0.80557 0.0
C1166 C 0.91935 0.41982 0.82849 0.0
C1167 C 0.90394 0.40129 0.82987 0.0
C1168 C 0.94431 0.41699 0.82593 0.0
C1169 C 0.9543 0.3956 0.82512 0.0
C1170 C 0.93883 0.37715 0.82582 0.0
C1171 C 0.91396 0.37996 0.82799 0.0
H1172 H 0.49019 0.63648 0.30053 0.0
H1173 H 0.50596 0.66234 0.36954 0.0
H1174 H 0.53039 0.61965 0.29914 0.0
H1175 H 0.54579 0.64555 0.36817 0.0
H1176 H 0.60901 0.59952 0.36759 0.0
H1177 H 0.56622 0.6086 0.36727 0.0
H1178 H 0.57312 0.63499 0.29717 0.0
H1179 H 0.61602 0.62588 0.29739 0.0
C1180 C 0.50208 0.6383 0.31551 0.0
C1181 C 0.49493 0.6508 0.33512 0.0
C1182 C 0.52511 0.62878 0.31465 0.0
C1183 C 0.54124 0.63125 0.33355 0.0
C1184 C 0.53371 0.64312 0.35343 0.0
C1185 C 0.51092 0.65287 0.35415 0.0
C1186 C 0.60138 0.60689 0.35191 0.0
C1187 C 0.61606 0.61217 0.33259 0.0
C1188 C 0.57686 0.6122 0.3518 0.0
C1189 C 0.56635 0.62272 0.3323 0.0
C1190 C 0.58066 0.62679 0.31242 0.0
C1191 C 0.60528 0.62165 0.31259 0.0
H1192 H 0.18928 0.43144 0.09909 0.0
H1193 H 0.16145 0.42677 0.1695 0.0
H1194 H 0.1877 0.47216 0.10155 0.0
H1195 H 0.15997 0.46703 0.17211 0.0
H1196 H 0.14376 0.53911 0.16616 0.0
H1197 H 0.1395 0.50008 0.1558 0.0
H1198 H 0.2106 0.50084 0.12517 0.0
H1199 H 0.21487 0.53999 0.13537 0.0
C1200 C 0.18248 0.43913 0.1149 0.0
C1201 C 0.17566 0.42603 0.13417 0.0
C1202 C 0.18173 0.46236 0.11639 0.0
C1203 C 0.17372 0.47281 0.13704 0.0
C1204 C 0.16598 0.45956 0.15587 0.0
C1205 C 0.16704 0.43649 0.15448 0.0
C1206 C 0.15836 0.53109 0.1569 0.0
C1207 C 0.17979 0.54264 0.15187 0.0
C1208 C 0.15594 0.50869 0.15103 0.0
C1209 C 0.17481 0.49732 0.13988 0.0
C1210 C 0.19568 0.50916 0.13362 0.0
C1211 C 0.19817 0.53158 0.13961 0.0
H1212 H 0.72352 0.98565 0.87045 0.0
H1213 H 0.65559 1.00695 0.84102 0.0
H1214 H 0.72749 0.02104 0.89068 0.0
H1215 H 0.65901 0.04198 0.86197 0.0
H1216 H 0.68575 0.11151 0.8807 0.0
H1217 H 0.68067 0.0757 0.86145 0.0
H1218 H 0.71269 0.04318 0.92153 0.0
H1219 H 0.71833 0.07909 0.94032 0.0
C1220 C 0.70927 0.99778 0.86856 0.0
C1221 C 0.6893 0.99351 0.85404 0.0
C1222 C 0.71147 0.01807 0.88027 0.0
C1223 C 0.69361 0.03452 0.87795 0.0
C1224 C 0.67337 0.02997 0.86383 0.0
C1225 C 0.67131 1.00978 0.85193 0.0
C1226 C 0.69152 0.09667 0.88981 0.0
C1227 C 0.70254 0.09813 0.91196 0.0
C1228 C 0.68856 0.0761 0.87883 0.0
C1229 C 0.6963 0.05643 0.88987 0.0
C1230 C 0.70695 0.05794 0.91224 0.0
C1231 C 0.71014 0.07853 0.92308 0.0
H1232 H 0.86561 0.04858 0.40453 0.0
H1233 H 0.83046 0.03334 0.33873 0.0
H1234 H 0.86139 1.0098 0.41657 0.0
H1235 H 0.8265 0.99476 0.35067 0.0
H1236 H 0.79552 0.93642 0.39227 0.0
H1237 H 0.80252 0.97451 0.37986 0.0
H1238 H 0.87514 0.97131 0.40708 0.0
H1239 H 0.86788 0.93312 0.42002 0.0
C1240 C 0.85716 0.03697 0.39257 0.0
C1241 C 0.84823 0.04414 0.37073 0.0
C1242 C 0.85486 0.01472 0.39943 0.0
C1243 C 0.84344 0.99923 0.38465 0.0
C1244 C 0.83504 1.00634 0.36262 0.0
C1245 C 0.83743 0.02848 0.35573 0.0
C1246 C 0.81293 0.94384 0.39576 0.0
C1247 C 0.83111 0.93172 0.40721 0.0
C1248 C 0.81704 0.96562 0.38841 0.0
C1249 C 0.83942 0.97594 0.3924 0.0
C1250 C 0.85765 0.96387 0.40387 0.0
C1251 C 0.85358 0.94194 0.41108 0.0
H1252 H 0.29855 0.48476 0.65874 0.0
H1253 H 0.37533 0.47453 0.66525 0.0
H1254 H 0.30579 0.52201 0.64349 0.0
H1255 H 0.38254 0.51186 0.65057 0.0
H1256 H 0.3898 0.57192 0.60443 0.0
H1257 H 0.38005 0.5341 0.61585 0.0
H1258 H 0.31979 0.55817 0.65636 0.0
H1259 H 0.32951 0.59621 0.64453 0.0
C1260 C 0.31698 0.49041 0.65686 0.0
C1261 C 0.33636 0.47661 0.6632 0.0
C1262 C 0.32112 0.51185 0.64827 0.0
C1263 C 0.34474 0.52001 0.6458 0.0
C1264 C 0.36411 0.50606 0.65188 0.0
C1265 C 0.35998 0.48463 0.66042 0.0
C1266 C 0.37447 0.56916 0.61578 0.0
C1267 C 0.36062 0.5871 0.62384 0.0
C1268 C 0.36889 0.54745 0.62238 0.0
C1269 C 0.34935 0.54305 0.63732 0.0
C1270 C 0.33489 0.56092 0.6447 0.0
C1271 C 0.34044 0.58272 0.63796 0.0
H1272 H 0.87441 0.8912 0.50706 0.0
H1273 H 0.88909 0.82321 0.48828 0.0
H1274 H 0.89235 0.88505 0.54555 0.0
H1275 H 0.90596 0.81664 0.52711 0.0
H1276 H 0.94979 0.81404 0.59388 0.0
H1277 H 0.93716 0.82268 0.55394 0.0
H1278 H 0.88338 0.86763 0.58113 0.0
H1279 H 0.89684 0.85952 0.62096 0.0
C1280 C 0.88158 0.87494 0.51114 0.0
C1281 C 0.8803 0.85769 0.49463 0.0
C1282 C 0.89167 0.87133 0.53333 0.0
C1283 C 0.90038 0.85025 0.53973 0.0
C1284 C 0.89977 0.83318 0.52285 0.0
C1285 C 0.89001 0.83691 0.50053 0.0
C1286 C 0.93527 0.82575 0.59125 0.0
C1287 C 0.92423 0.83605 0.61053 0.0
C1288 C 0.92795 0.83069 0.56833 0.0
C1289 C 0.90913 0.84583 0.56412 0.0
C1290 C 0.89823 0.85622 0.58352 0.0
C1291 C 0.90582 0.85152 0.60641 0.0
H1292 H 0.64614 0.20674 0.99664 0.0
H1293 H 0.65241 0.13708 1.01331 0.0
H1294 H 0.62994 0.21379 0.03556 0.0
H1295 H 0.63541 0.14396 0.05198 0.0
H1296 H 0.63458 0.16856 0.12803 0.0
H1297 H 0.64722 0.16029 0.08808 0.0
H1298 H 0.5971 0.20917 0.06164 0.0
H1299 H 0.58498 0.21772 0.10169 0.0
C1300 C 0.6436 0.19284 1.00844 0.0
C1301 C 0.6507 0.17136 1.00189 0.0
C1302 C 0.63422 0.19687 0.0308 0.0
C1303 C 0.63152 0.17948 0.0471 0.0
C1304 C 0.63771 0.15784 0.04013 0.0
C1305 C 0.64728 0.15385 0.01785 0.0
C1306 C 0.62614 0.17739 0.11366 0.0
C1307 C 0.60887 0.19386 0.11805 0.0
C1308 C 0.6333 0.1726 0.0907 0.0
C1309 C 0.62319 0.18404 0.07151 0.0
C1310 C 0.60561 0.20029 0.07594 0.0
C1311 C 0.59863 0.2052 0.09892 0.0
H1312 H 0.38934 0.72317 0.41674 0.0
H1313 H 0.41889 0.65713 0.41131 0.0
H1314 H 0.37987 0.71652 0.4578 0.0
H1315 H 0.40926 0.65045 0.45243 0.0
H1316 H 0.36268 0.63882 0.51801 0.0
H1317 H 0.37394 0.64555 0.47739 0.0
H1318 H 0.39929 0.711 0.49605 0.0
H1319 H 0.38766 0.70438 0.53681 0.0
C1320 C 0.39404 0.7073 0.42431 0.0
C1321 C 0.40493 0.6907 0.4106 0.0
C1322 C 0.38862 0.7035 0.44791 0.0
C1323 C 0.39385 0.68298 0.45845 0.0
C1324 C 0.40471 0.66636 0.44478 0.0
C1325 C 0.41019 0.67017 0.42116 0.0
C1326 C 0.37071 0.65465 0.51352 0.0
C1327 C 0.37421 0.67109 0.53069 0.0
C1328 C 0.37731 0.65844 0.49021 0.0
C1329 C 0.38752 0.6788 0.48344 0.0
C1330 C 0.39121 0.69522 0.50064 0.0
C1331 C 0.38467 0.69139 0.52402 0.0
H1332 H 0.11742 0.37824 0.03987 0.0
H1333 H 0.16474 0.32151 0.03661 0.0
H1334 H 0.11101 0.37586 0.99742 0.0
H1335 H 0.15781 0.31871 0.99471 0.0
H1336 H 0.16351 0.3326 0.91775 0.0
H1337 H 0.16848 0.33737 0.95978 0.0
H1338 H 0.09313 0.35443 0.96592 0.0
H1339 H 0.08839 0.35008 0.92341 0.0
C1340 C 0.12628 0.36516 0.03017 0.0
C1341 C 0.14176 0.3502 0.04166 0.0
C1342 C 0.12253 0.36373 1.00583 0.0
C1343 C 0.13412 0.34725 0.99248 0.0
C1344 C 0.14906 0.33199 1.0042 0.0
C1345 C 0.15292 0.3335 0.02836 0.0
C1346 C 0.14797 0.33729 0.92805 0.0
C1347 C 0.12548 0.34067 0.91726 0.0
C1348 C 0.15078 0.33999 0.95223 0.0
C1349 C 0.13112 0.34592 0.96645 0.0
C1350 C 0.10872 0.34996 0.95557 0.0
C1351 C 0.10596 0.34743 0.93122 0.0
H1352 H 0.61792 0.88456 0.84144 0.0
H1353 H 0.59028 0.93541 0.79553 0.0
H1354 H 0.57688 0.87218 0.84965 0.0
H1355 H 0.54919 0.92389 0.80439 0.0
H1356 H 0.48217 0.87973 0.8011 0.0
H1357 H 0.52207 0.89558 0.79592 0.0
H1358 H 0.53982 0.87896 0.86774 0.0
H1359 H 0.50015 0.86209 0.87245 0.0
C1360 C 0.60298 0.89333 0.83346 0.0
C1361 C 0.60726 0.91078 0.81769 0.0
C1362 C 0.5794 0.88634 0.83822 0.0
C1363 C 0.55951 0.8969 0.82759 0.0
C1364 C 0.56393 0.91494 0.81248 0.0
C1365 C 0.58749 0.92164 0.80744 0.0
C1366 C 0.49447 0.87971 0.81588 0.0
C1367 C 0.48801 0.86955 0.83715 0.0
C1368 C 0.51743 0.88891 0.81296 0.0
C1369 C 0.53443 0.88851 0.83136 0.0
C1370 C 0.52751 0.87917 0.85298 0.0
C1371 C 0.50465 0.86967 0.85578 0.0
H1372 H 0.93441 0.16158 0.33429 0.0
H1373 H 0.9379 0.09071 0.32478 0.0
H1374 H 0.97811 0.1632 0.33823 0.0
H1375 H 0.98204 0.09224 0.32873 0.0
H1376 H 0.0583 0.11688 0.29942 0.0
H1377 H 0.01531 0.10891 0.30327 0.0
H1378 H 1.01206 0.15105 0.36436 0.0
H1379 H 0.05498 0.15908 0.36057 0.0
C1380 C 0.9446 0.14631 0.33322 0.0
C1381 C 0.93284 0.12605 0.32904 0.0
C1382 C 0.9696 0.14719 0.33571 0.0
C1383 C 0.98353 0.12784 0.33382 0.0
C1384 C 0.97175 0.10743 0.3302 0.0
C1385 C 0.94657 0.10651 0.32807 0.0
C1386 C 0.04854 0.1241 0.31396 0.0
C1387 C 0.06005 0.13884 0.32951 0.0
C1388 C 0.02392 0.11943 0.31623 0.0
C1389 C 1.01027 0.12955 0.33397 0.0
C1390 C 0.02207 0.14322 0.35034 0.0
C1391 C 0.0467 0.14774 0.34821 0.0
H1392 H 0.08311 0.63052 0.17166 0.0
H1393 H 0.07066 0.61671 0.24504 0.0
H1394 H 0.04048 0.63938 0.16669 0.0
H1395 H 0.02828 0.62572 0.24008 0.0
H1396 H 0.96238 0.67018 0.22878 0.0
H1397 H 1.0043 0.659 0.23275 0.0
H1398 H 0.99943 0.623 0.16744 0.0
H1399 H 0.95734 0.63441 0.16328 0.0
C1400 C 0.07131 0.62913 0.18668 0.0
C1401 C 0.08051 0.62308 0.20882 0.0
C1402 C 0.04684 0.63422 0.18382 0.0
C1403 C 0.03098 0.63344 0.20303 0.0
C1404 C 0.04007 0.62692 0.22501 0.0
C1405 C 0.06445 0.62178 0.22785 0.0
C1406 C 0.97016 0.65982 0.21527 0.0
C1407 C 0.95643 0.65319 0.19571 0.0
C1408 C 0.9942 0.6533 0.21762 0.0
C1409 C 1.00524 0.64004 0.20045 0.0
C1410 C 0.99153 0.63337 0.18088 0.0
C1411 C 0.96737 0.6398 0.17858 0.0
H1412 H 0.44534 0.39084 0.75073 0.0
H1413 H 0.43754 0.39919 0.67585 0.0
H1414 H 0.48831 0.38471 0.74592 0.0
H1415 H 0.48088 0.39313 0.67102 0.0
H1416 H 0.56474 0.39927 0.6763 0.0
H1417 H 0.52188 0.40842 0.67992 0.0
H1418 H 0.51303 0.35503 0.72974 0.0
H1419 H 0.55553 0.34607 0.72638 0.0
C1420 C 0.45275 0.39129 0.7332 0.0
C1421 C 0.43782 0.39519 0.71366 0.0
C1422 C 0.47746 0.3878 0.73044 0.0
C1423 C 0.48802 0.38811 0.70805 0.0
C1424 C 0.47333 0.39287 0.68853 0.0
C1425 C 0.44848 0.39635 0.6913 0.0
C1426 C 0.55363 0.38952 0.68804 0.0
C1427 C 0.56367 0.372 0.70114 0.0
C1428 C 0.52905 0.3947 0.69001 0.0
C1429 C 0.51405 0.38258 0.70526 0.0
C1430 C 0.52412 0.36497 0.71815 0.0
C1431 C 0.54853 0.35975 0.7161 0.0
H1432 H 0.82758 0.62195 0.92779 0.0
H1433 H 0.84387 0.62294 0.85379 0.0
H1434 H 0.82829 0.58149 0.92738 0.0
H1435 H 0.84505 0.58259 0.85337 0.0
H1436 H 0.81992 0.51028 0.85563 0.0
H1437 H 0.81965 0.55075 0.85593 0.0
H1438 H 0.85448 0.55041 0.92384 0.0
H1439 H 0.85429 0.51004 0.92363 0.0
C1440 C 0.83158 0.61353 0.9115 0.0
C1441 C 0.83555 0.62568 0.89082 0.0
C1442 C 0.83203 0.59031 0.91124 0.0
C1443 C 0.83667 0.57868 0.89031 0.0
C1444 C 0.84094 0.59091 0.8697 0.0
C1445 C 0.84031 0.61408 0.86995 0.0
C1446 C 0.82767 0.51888 0.87051 0.0
C1447 C 0.83701 0.50693 0.88964 0.0
C1448 C 0.82756 0.5421 0.8707 0.0
C1449 C 0.83697 0.55394 0.88996 0.0
C1450 C 0.84661 0.54192 0.90893 0.0
C1451 C 0.84656 0.51873 0.9088 0.0
H1452 H 0.28339 0.90726 0.1445 0.0
H1453 H 0.34895 0.90321 0.10402 0.0
H1454 H 0.29183 0.94602 0.15306 0.0
H1455 H 0.35791 0.94182 0.11338 0.0
H1456 H 0.34452 0.01721 0.10566 0.0
H1457 H 0.34156 0.97719 0.1016 0.0
H1458 H 0.31787 0.97204 0.17357 0.0
H1459 H 0.32005 0.01241 0.17733 0.0
C1460 C 0.2997 0.91458 0.13753 0.0
C1461 C 0.3153 0.90214 0.12327 0.0
C1462 C 0.30472 0.93676 0.14274 0.0
C1463 C 0.3255 0.94711 0.13383 0.0
C1464 C 0.34158 0.93445 0.12029 0.0
C1465 C 0.33655 0.91223 0.11509 0.0
C1466 C 0.33869 1.00757 0.12064 0.0
C1467 C 0.33219 0.01806 0.14171 0.0
C1468 C 0.33729 0.98455 0.11841 0.0
C1469 C 0.32938 0.97135 0.13722 0.0
C1470 C 0.32376 0.98174 0.15864 0.0
C1471 C 0.32522 1.00485 0.16088 0.0
H1472 H 0.21236 0.99749 0.59955 0.0
H1473 H 0.20964 0.99917 0.67519 0.0
H1474 H 0.2058 0.03741 0.59816 0.0
H1475 H 0.20351 0.03917 0.67392 0.0
H1476 H 0.1707 0.10705 0.66436 0.0
H1477 H 0.17508 0.06693 0.66402 0.0
H1478 H 0.22472 0.07223 0.60594 0.0
H1479 H 0.2198 0.11255 0.60607 0.0
C1480 C 0.21055 1.00641 0.61592 0.0
C1481 C 0.21157 0.99509 0.6375 0.0
C1482 C 0.20683 0.02936 0.61512 0.0
C1483 C 0.20414 0.04166 0.63591 0.0
C1484 C 0.20507 0.03028 0.6575 0.0
C1485 C 0.20863 1.00729 0.65828 0.0
C1486 C 0.18257 0.09965 0.65153 0.0
C1487 C 0.19508 0.11301 0.63537 0.0
C1488 C 0.18517 0.07661 0.65138 0.0
C1489 C 0.2005 0.06622 0.63516 0.0
C1490 C 0.21257 0.07957 0.61856 0.0
C1491 C 0.20979 0.10269 0.61861 0.0
H1492 H 0.73394 0.40901 0.37656 0.0
H1493 H 0.67652 0.40696 0.42759 0.0
H1494 H 0.73119 0.44918 0.37516 0.0
H1495 H 0.67391 0.4474 0.42629 0.0
H1496 H 0.69494 0.52139 0.43446 0.0
H1497 H 0.69684 0.48102 0.43665 0.0
H1498 H 0.70355 0.47781 0.36125 0.0
H1499 H 0.70238 0.51816 0.35913 0.0
C1500 C 0.72057 0.41706 0.38736 0.0
C1501 C 0.70531 0.4046 0.40204 0.0
C1502 C 0.719 0.44017 0.38655 0.0
C1503 C 0.70219 0.45153 0.40045 0.0
C1504 C 0.68719 0.43917 0.41548 0.0
C1505 C 0.68872 0.41598 0.41625 0.0
C1506 C 0.69698 0.5121 0.41836 0.0
C1507 C 0.69864 0.5231 0.39662 0.0
C1508 C 0.6978 0.48893 0.4196 0.0
C1509 C 0.70042 0.47616 0.39914 0.0
C1510 C 0.70181 0.48714 0.37739 0.0
C1511 C 0.70088 0.5103 0.37614 0.0
loop_
_geom_bond_atom_site_label_1
_geom_bond_atom_site_label_2
_geom_bond_distance
_geom_bond_site_symmetry_2
_ccdc_geom_bond_type
Cu0 N1 1.999 . S
Cu0 O6 1.974 . S
Cu0 N11 1.985 . S
Cu0 O20 1.959 . S
N1 Cu0 1.999 . S
N1 C3 1.263 . S
N1 C5 1.389 . S
N2 C3 1.358 . S
N2 C4 1.400 . S
C3 N1 1.263 . S
C3 N2 1.358 . S
C3 H9 0.930 . S
C4 N2 1.400 . S
C4 C5 1.351 . S
C4 H21 0.930 . S
C5 N1 1.389 . S
C5 C4 1.351 . S
C5 H10 0.930 . S
O6 Cu0 1.974 . S
O6 C16 1.282 . S
C7 O8 1.261 . S
C7 O20 1.251 . S
O8 C7 1.261 . S
H9 C3 0.930 . S
H10 C5 0.930 . S
N11 Cu0 1.985 . S
N11 C13 1.335 . S
N11 C14 1.390 . S
N12 C13 1.345 . S
N12 C15 1.336 . S
C13 N11 1.335 . S
C13 N12 1.345 . S
C13 H18 0.930 . S
C14 N11 1.390 . S
C14 C15 1.346 . S
C14 H19 0.930 . S
C15 N12 1.336 . S
C15 C14 1.346 . S
C15 H22 0.929 . S
C16 O6 1.282 . S
C16 O17 1.216 . S
O17 C16 1.216 . S
H18 C13 0.930 . S
H19 C14 0.930 . S
O20 Cu0 1.959 . S
O20 C7 1.251 . S
H21 C4 0.930 . S
H22 C15 0.929 . S
Cu23 N24 1.999 . S
Cu23 O29 1.974 . S
Cu23 N34 1.985 . S
Cu23 O43 1.959 . S
N24 Cu23 1.999 . S
N24 C26 1.263 . S
N24 C28 1.389 . S
N25 C26 1.358 . S
N25 C27 1.400 . S
C26 N24 1.263 . S
C26 N25 1.358 . S
C26 H32 0.930 . S
C27 N25 1.400 . S
C27 C28 1.351 . S
C27 H44 0.930 . S
C28 N24 1.389 . S
C28 C27 1.351 . S
C28 H33 0.930 . S
O29 Cu23 1.974 . S
O29 C39 1.282 . S
C30 O31 1.261 . S
C30 O43 1.251 . S
O31 C30 1.261 . S
H32 C26 0.930 . S
H33 C28 0.930 . S
N34 Cu23 1.985 . S
N34 C36 1.335 . S
N34 C37 1.390 . S
N35 C36 1.345 . S
N35 C38 1.336 . S
C36 N34 1.335 . S
C36 N35 1.345 . S
C36 H41 0.930 . S
C37 N34 1.390 . S
C37 C38 1.346 . S
C37 H42 0.930 . S
C38 N35 1.336 . S
C38 C37 1.346 . S
C38 H45 0.929 . S
C39 O29 1.282 . S
C39 O40 1.216 . S
O40 C39 1.216 . S
H41 C36 0.930 . S
H42 C37 0.930 . S
O43 Cu23 1.959 . S
O43 C30 1.251 . S
H44 C27 0.930 . S
H45 C38 0.929 . S
Cu46 N47 1.999 . S
Cu46 O52 1.974 . S
Cu46 N57 1.985 . S
Cu46 O66 1.959 . S
N47 Cu46 1.999 . S
N47 C49 1.263 . S
N47 C51 1.389 . S
N48 C49 1.358 . S
N48 C50 1.400 . S
C49 N47 1.263 . S
C49 N48 1.358 . S
C49 H55 0.930 . S
C50 N48 1.400 . S
C50 C51 1.351 . S
C50 H67 0.930 . S
C51 N47 1.389 . S
C51 C50 1.351 . S
C51 H56 0.930 . S
O52 Cu46 1.974 . S
O52 C62 1.282 . S
C53 O54 1.261 . S
C53 O66 1.251 . S
O54 C53 1.261 . S
H55 C49 0.930 . S
H56 C51 0.930 . S
N57 Cu46 1.985 . S
N57 C59 1.335 . S
N57 C60 1.390 . S
N58 C59 1.345 . S
N58 C61 1.336 . S
C59 N57 1.335 . S
C59 N58 1.345 . S
C59 H64 0.930 . S
C60 N57 1.390 . S
C60 C61 1.346 . S
C60 H65 0.930 . S
C61 N58 1.336 . S
C61 C60 1.346 . S
C61 H68 0.929 . S
C62 O52 1.282 . S
C62 O63 1.216 . S
O63 C62 1.216 . S
H64 C59 0.930 . S
H65 C60 0.930 . S
O66 Cu46 1.959 . S
O66 C53 1.251 . S
H67 C50 0.930 . S
H68 C61 0.929 . S
Cu69 N70 1.999 . S
Cu69 O75 1.974 . S
Cu69 N80 1.985 . S
Cu69 O89 1.959 . S
N70 Cu69 1.999 . S
N70 C72 1.263 . S
N70 C74 1.389 . S
N71 C72 1.358 . S
N71 C73 1.400 . S
C72 N70 1.263 . S
C72 N71 1.358 . S
C72 H78 0.930 . S
C73 N71 1.400 . S
C73 C74 1.351 . S
C73 H90 0.930 . S
C74 N70 1.389 . S
C74 C73 1.351 . S
C74 H79 0.930 . S
O75 Cu69 1.974 . S
O75 C85 1.282 . S
C76 O77 1.261 . S
C76 O89 1.251 . S
O77 C76 1.261 . S
H78 C72 0.930 . S
H79 C74 0.930 . S
N80 Cu69 1.985 . S
N80 C82 1.335 . S
N80 C83 1.390 . S
N81 C82 1.345 . S
N81 C84 1.336 . S
C82 N80 1.335 . S
C82 N81 1.345 . S
C82 H87 0.930 . S
C83 N80 1.390 . S
C83 C84 1.346 . S
C83 H88 0.930 . S
C84 N81 1.336 . S
C84 C83 1.346 . S
C84 H91 0.929 . S
C85 O75 1.282 . S
C85 O86 1.216 . S
O86 C85 1.216 . S
H87 C82 0.930 . S
H88 C83 0.930 . S
O89 Cu69 1.959 . S
O89 C76 1.251 . S
H90 C73 0.930 . S
H91 C84 0.929 . S
Cu92 N93 1.999 . S
Cu92 O98 1.974 . S
Cu92 N103 1.985 . S
Cu92 O112 1.959 . S
N93 Cu92 1.999 . S
N93 C95 1.263 . S
N93 C97 1.389 . S
N94 C95 1.358 . S
N94 C96 1.400 . S
C95 N93 1.263 . S
C95 N94 1.358 . S
C95 H101 0.930 . S
C96 N94 1.400 . S
C96 C97 1.351 . S
C96 H113 0.930 . S
C97 N93 1.389 . S
C97 C96 1.351 . S
C97 H102 0.930 . S
O98 Cu92 1.974 . S
O98 C108 1.282 . S
C99 O100 1.261 . S
C99 O112 1.251 . S
O100 C99 1.261 . S
H101 C95 0.930 . S
H102 C97 0.930 . S
N103 Cu92 1.985 . S
N103 C105 1.335 . S
N103 C106 1.390 . S
N104 C105 1.345 . S
N104 C107 1.336 . S
C105 N103 1.335 . S
C105 N104 1.345 . S
C105 H110 0.930 . S
C106 N103 1.390 . S
C106 C107 1.346 . S
C106 H111 0.930 . S
C107 N104 1.336 . S
C107 C106 1.346 . S
C107 H114 0.929 . S
C108 O98 1.282 . S
C108 O109 1.216 . S
O109 C108 1.216 . S
H110 C105 0.930 . S
H111 C106 0.930 . S
O112 Cu92 1.959 . S
O112 C99 1.251 . S
H113 C96 0.930 . S
H114 C107 0.929 . S
Cu115 N116 1.999 . S
Cu115 O121 1.974 . S
Cu115 N126 1.985 . S
Cu115 O135 1.959 . S
N116 Cu115 1.999 . S
N116 C118 1.263 . S
N116 C120 1.389 . S
N117 C118 1.358 . S
N117 C119 1.400 . S
C118 N116 1.263 . S
C118 N117 1.358 . S
C118 H124 0.930 . S
C119 N117 1.400 . S
C119 C120 1.351 . S
C119 H136 0.930 . S
C120 N116 1.389 . S
C120 C119 1.351 . S
C120 H125 0.930 . S
O121 Cu115 1.974 . S
O121 C131 1.282 . S
C122 O123 1.261 . S
C122 O135 1.251 . S
O123 C122 1.261 . S
H124 C118 0.930 . S
H125 C120 0.930 . S
N126 Cu115 1.985 . S
N126 C128 1.335 . S
N126 C129 1.390 . S
N127 C128 1.345 . S
N127 C130 1.336 . S
C128 N126 1.335 . S
C128 N127 1.345 . S
C128 H133 0.930 . S
C129 N126 1.390 . S
C129 C130 1.346 . S
C129 H134 0.930 . S
C130 N127 1.336 . S
C130 C129 1.346 . S
C130 H137 0.929 . S
C131 O121 1.282 . S
C131 O132 1.216 . S
O132 C131 1.216 . S
H133 C128 0.930 . S
H134 C129 0.930 . S
O135 Cu115 1.959 . S
O135 C122 1.251 . S
H136 C119 0.930 . S
H137 C130 0.929 . S
Cu138 N139 1.999 . S
Cu138 O144 1.974 . S
Cu138 N149 1.985 . S
Cu138 O158 1.959 . S
N139 Cu138 1.999 . S
N139 C141 1.263 . S
N139 C143 1.389 . S
N140 C141 1.358 . S
N140 C142 1.400 . S
C141 N139 1.263 . S
C141 N140 1.358 . S
C141 H147 0.930 . S
C142 N140 1.400 . S
C142 C143 1.351 . S
C142 H159 0.930 . S
C143 N139 1.389 . S
C143 C142 1.351 . S
C143 H148 0.930 . S
O144 Cu138 1.974 . S
O144 C154 1.282 . S
C145 O146 1.261 . S
C145 O158 1.251 . S
O146 C145 1.261 . S
H147 C141 0.930 . S
H148 C143 0.930 . S
N149 Cu138 1.985 . S
N149 C151 1.335 . S
N149 C152 1.390 . S
N150 C151 1.345 . S
N150 C153 1.336 . S
C151 N149 1.335 . S
C151 N150 1.345 . S
C151 H156 0.930 . S
C152 N149 1.390 . S
C152 C153 1.346 . S
C152 H157 0.930 . S
C153 N150 1.336 . S
C153 C152 1.346 . S
C153 H160 0.929 . S
C154 O144 1.282 . S
C154 O155 1.216 . S
O155 C154 1.216 . S
H156 C151 0.930 . S
H157 C152 0.930 . S
O158 Cu138 1.959 . S
O158 C145 1.251 . S
H159 C142 0.930 . S
H160 C153 0.929 . S
Cu161 N162 1.999 . S
Cu161 O167 1.974 . S
Cu161 N172 1.985 . S
Cu161 O181 1.959 . S
N162 Cu161 1.999 . S
N162 C164 1.263 . S
N162 C166 1.389 . S
N163 C164 1.358 . S
N163 C165 1.400 . S
C164 N162 1.263 . S
C164 N163 1.358 . S
C164 H170 0.930 . S
C165 N163 1.400 . S
C165 C166 1.351 . S
C165 H182 0.930 . S
C166 N162 1.389 . S
C166 C165 1.351 . S
C166 H171 0.930 . S
O167 Cu161 1.974 . S
O167 C177 1.282 . S
C168 O169 1.261 . S
C168 O181 1.251 . S
O169 C168 1.261 . S
H170 C164 0.930 . S
H171 C166 0.930 . S
N172 Cu161 1.985 . S
N172 C174 1.335 . S
N172 C175 1.390 . S
N173 C174 1.345 . S
N173 C176 1.336 . S
C174 N172 1.335 . S
C174 N173 1.345 . S
C174 H179 0.930 . S
C175 N172 1.390 . S
C175 C176 1.346 . S
C175 H180 0.930 . S
C176 N173 1.336 . S
C176 C175 1.346 . S
C176 H183 0.929 . S
C177 O167 1.282 . S
C177 O178 1.216 . S
O178 C177 1.216 . S
H179 C174 0.930 . S
H180 C175 0.930 . S
O181 Cu161 1.959 . S
O181 C168 1.251 . S
H182 C165 0.930 . S
H183 C176 0.929 . S
Cu184 N185 1.999 . S
Cu184 O190 1.974 . S
Cu184 N195 1.985 . S
Cu184 O204 1.959 . S
N185 Cu184 1.999 . S
N185 C187 1.263 . S
N185 C189 1.389 . S
N186 C187 1.358 . S
N186 C188 1.400 . S
C187 N185 1.263 . S
C187 N186 1.358 . S
C187 H193 0.930 . S
C188 N186 1.400 . S
C188 C189 1.351 . S
C188 H205 0.930 . S
C189 N185 1.389 . S
C189 C188 1.351 . S
C189 H194 0.930 . S
O190 Cu184 1.974 . S
O190 C200 1.282 . S
C191 O192 1.261 . S
C191 O204 1.251 . S
O192 C191 1.261 . S
H193 C187 0.930 . S
H194 C189 0.930 . S
N195 Cu184 1.985 . S
N195 C197 1.335 . S
N195 C198 1.390 . S
N196 C197 1.345 . S
N196 C199 1.336 . S
C197 N195 1.335 . S
C197 N196 1.345 . S
C197 H202 0.930 . S
C198 N195 1.390 . S
C198 C199 1.346 . S
C198 H203 0.930 . S
C199 N196 1.336 . S
C199 C198 1.346 . S
C199 H206 0.929 . S
C200 O190 1.282 . S
C200 O201 1.216 . S
O201 C200 1.216 . S
H202 C197 0.930 . S
H203 C198 0.930 . S
O204 Cu184 1.959 . S
O204 C191 1.251 . S
H205 C188 0.930 . S
H206 C199 0.929 . S
Cu207 N208 1.999 . S
Cu207 O213 1.974 . S
Cu207 N218 1.985 . S
Cu207 O227 1.959 . S
N208 Cu207 1.999 . S
N208 C210 1.263 . S
N208 C212 1.389 . S
N209 C210 1.358 . S
N209 C211 1.400 . S
C210 N208 1.263 . S
C210 N209 1.358 . S
C210 H216 0.930 . S
C211 N209 1.400 . S
C211 C212 1.351 . S
C211 H228 0.930 . S
C212 N208 1.389 . S
C212 C211 1.351 . S
C212 H217 0.930 . S
O213 Cu207 1.974 . S
O213 C223 1.282 . S
C214 O215 1.261 . S
C214 O227 1.251 . S
O215 C214 1.261 . S
H216 C210 0.930 . S
H217 C212 0.930 . S
N218 Cu207 1.985 . S
N218 C220 1.335 . S
N218 C221 1.390 . S
N219 C220 1.345 . S
N219 C222 1.336 . S
C220 N218 1.335 . S
C220 N219 1.345 . S
C220 H225 0.930 . S
C221 N218 1.390 . S
C221 C222 1.346 . S
C221 H226 0.930 . S
C222 N219 1.336 . S
C222 C221 1.346 . S
C222 H229 0.929 . S
C223 O213 1.282 . S
C223 O224 1.216 . S
O224 C223 1.216 . S
H225 C220 0.930 . S
H226 C221 0.930 . S
O227 Cu207 1.959 . S
O227 C214 1.251 . S
H228 C211 0.930 . S
H229 C222 0.929 . S
Cu230 N231 1.999 . S
Cu230 O236 1.974 . S
Cu230 N241 1.985 . S
Cu230 O250 1.959 . S
N231 Cu230 1.999 . S
N231 C233 1.263 . S
N231 C235 1.389 . S
N232 C233 1.358 . S
N232 C234 1.400 . S
C233 N231 1.263 . S
C233 N232 1.358 . S
C233 H239 0.930 . S
C234 N232 1.400 . S
C234 C235 1.351 . S
C234 H251 0.930 . S
C235 N231 1.389 . S
C235 C234 1.351 . S
C235 H240 0.930 . S
O236 Cu230 1.974 . S
O236 C246 1.282 . S
C237 O238 1.261 . S
C237 O250 1.251 . S
O238 C237 1.261 . S
H239 C233 0.930 . S
H240 C235 0.930 . S
N241 Cu230 1.985 . S
N241 C243 1.335 . S
N241 C244 1.390 . S
N242 C243 1.345 . S
N242 C245 1.336 . S
C243 N241 1.335 . S
C243 N242 1.345 . S
C243 H248 0.930 . S
C244 N241 1.390 . S
C244 C245 1.346 . S
C244 H249 0.930 . S
C245 N242 1.336 . S
C245 C244 1.346 . S
C245 H252 0.929 . S
C246 O236 1.282 . S
C246 O247 1.216 . S
O247 C246 1.216 . S
H248 C243 0.930 . S
H249 C244 0.930 . S
O250 Cu230 1.959 . S
O250 C237 1.251 . S
H251 C234 0.930 . S
H252 C245 0.929 . S
Cu253 N254 1.999 . S
Cu253 O259 1.974 . S
Cu253 N264 1.985 . S
Cu253 O273 1.959 . S
N254 Cu253 1.999 . S
N254 C256 1.263 . S
N254 C258 1.389 . S
N255 C256 1.358 . S
N255 C257 1.400 . S
C256 N254 1.263 . S
C256 N255 1.358 . S
C256 H262 0.930 . S
C257 N255 1.400 . S
C257 C258 1.351 . S
C257 H274 0.930 . S
C258 N254 1.389 . S
C258 C257 1.351 . S
C258 H263 0.930 . S
O259 Cu253 1.974 . S
O259 C269 1.282 . S
C260 O261 1.261 . S
C260 O273 1.251 . S
O261 C260 1.261 . S
H262 C256 0.930 . S
H263 C258 0.930 . S
N264 Cu253 1.985 . S
N264 C266 1.335 . S
N264 C267 1.390 . S
N265 C266 1.345 . S
N265 C268 1.336 . S
C266 N264 1.335 . S
C266 N265 1.345 . S
C266 H271 0.930 . S
C267 N264 1.390 . S
C267 C268 1.346 . S
C267 H272 0.930 . S
C268 N265 1.336 . S
C268 C267 1.346 . S
C268 H275 0.929 . S
C269 O259 1.282 . S
C269 O270 1.216 . S
O270 C269 1.216 . S
H271 C266 0.930 . S
H272 C267 0.930 . S
O273 Cu253 1.959 . S
O273 C260 1.251 . S
H274 C257 0.930 . S
H275 C268 0.929 . S
Cu276 N277 1.999 . S
Cu276 O282 1.974 . S
Cu276 N287 1.985 . S
Cu276 O296 1.959 . S
N277 Cu276 1.999 . S
N277 C279 1.263 . S
N277 C281 1.389 . S
N278 C279 1.358 . S
N278 C280 1.400 . S
C279 N277 1.263 . S
C279 N278 1.358 . S
C279 H285 0.930 . S
C280 N278 1.400 . S
C280 C281 1.351 . S
C280 H297 0.930 . S
C281 N277 1.389 . S
C281 C280 1.351 . S
C281 H286 0.930 . S
O282 Cu276 1.974 . S
O282 C292 1.282 . S
C283 O284 1.261 . S
C283 O296 1.251 . S
O284 C283 1.261 . S
H285 C279 0.930 . S
H286 C281 0.930 . S
N287 Cu276 1.985 . S
N287 C289 1.335 . S
N287 C290 1.390 . S
N288 C289 1.345 . S
N288 C291 1.336 . S
C289 N287 1.335 . S
C289 N288 1.345 . S
C289 H294 0.930 . S
C290 N287 1.390 . S
C290 C291 1.346 . S
C290 H295 0.930 . S
C291 N288 1.336 . S
C291 C290 1.346 . S
C291 H298 0.929 . S
C292 O282 1.282 . S
C292 O293 1.216 . S
O293 C292 1.216 . S
H294 C289 0.930 . S
H295 C290 0.930 . S
O296 Cu276 1.959 . S
O296 C283 1.251 . S
H297 C280 0.930 . S
H298 C291 0.929 . S
Cu299 N300 1.999 . S
Cu299 O305 1.974 . S
Cu299 N310 1.985 . S
Cu299 O319 1.959 . S
N300 Cu299 1.999 . S
N300 C302 1.263 . S
N300 C304 1.389 . S
N301 C302 1.358 . S
N301 C303 1.400 . S
C302 N300 1.263 . S
C302 N301 1.358 . S
C302 H308 0.930 . S
C303 N301 1.400 . S
C303 C304 1.351 . S
C303 H320 0.930 . S
C304 N300 1.389 . S
C304 C303 1.351 . S
C304 H309 0.930 . S
O305 Cu299 1.974 . S
O305 C315 1.282 . S
C306 O307 1.261 . S
C306 O319 1.251 . S
O307 C306 1.261 . S
H308 C302 0.930 . S
H309 C304 0.930 . S
N310 Cu299 1.985 . S
N310 C312 1.335 . S
N310 C313 1.390 . S
N311 C312 1.345 . S
N311 C314 1.336 . S
C312 N310 1.335 . S
C312 N311 1.345 . S
C312 H317 0.930 . S
C313 N310 1.390 . S
C313 C314 1.346 . S
C313 H318 0.930 . S
C314 N311 1.336 . S
C314 C313 1.346 . S
C314 H321 0.929 . S
C315 O305 1.282 . S
C315 O316 1.216 . S
O316 C315 1.216 . S
H317 C312 0.930 . S
H318 C313 0.930 . S
O319 Cu299 1.959 . S
O319 C306 1.251 . S
H320 C303 0.930 . S
H321 C314 0.929 . S
Cu322 N323 1.999 . S
Cu322 O328 1.974 . S
Cu322 N333 1.985 . S
Cu322 O342 1.959 . S
N323 Cu322 1.999 . S
N323 C325 1.263 . S
N323 C327 1.389 . S
N324 C325 1.358 . S
N324 C326 1.400 . S
C325 N323 1.263 . S
C325 N324 1.358 . S
C325 H331 0.930 . S
C326 N324 1.400 . S
C326 C327 1.351 . S
C326 H343 0.930 . S
C327 N323 1.389 . S
C327 C326 1.351 . S
C327 H332 0.930 . S
O328 Cu322 1.974 . S
O328 C338 1.282 . S
C329 O330 1.261 . S
C329 O342 1.251 . S
O330 C329 1.261 . S
H331 C325 0.930 . S
H332 C327 0.930 . S
N333 Cu322 1.985 . S
N333 C335 1.335 . S
N333 C336 1.390 . S
N334 C335 1.345 . S
N334 C337 1.336 . S
C335 N333 1.335 . S
C335 N334 1.345 . S
C335 H340 0.930 . S
C336 N333 1.390 . S
C336 C337 1.346 . S
C336 H341 0.930 . S
C337 N334 1.336 . S
C337 C336 1.346 . S
C337 H344 0.929 . S
C338 O328 1.282 . S
C338 O339 1.216 . S
O339 C338 1.216 . S
H340 C335 0.930 . S
H341 C336 0.930 . S
O342 Cu322 1.959 . S
O342 C329 1.251 . S
H343 C326 0.930 . S
H344 C337 0.929 . S
Cu345 N346 1.999 . S
Cu345 O351 1.974 . S
Cu345 N356 1.985 . S
Cu345 O365 1.959 . S
N346 Cu345 1.999 . S
N346 C348 1.263 . S
N346 C350 1.389 . S
N347 C348 1.358 . S
N347 C349 1.400 . S
C348 N346 1.263 . S
C348 N347 1.358 . S
C348 H354 0.930 . S
C349 N347 1.400 . S
C349 C350 1.351 . S
C349 H366 0.930 . S
C350 N346 1.389 . S
C350 C349 1.351 . S
C350 H355 0.930 . S
O351 Cu345 1.974 . S
O351 C361 1.282 . S
C352 O353 1.261 . S
C352 O365 1.251 . S
O353 C352 1.261 . S
H354 C348 0.930 . S
H355 C350 0.930 . S
N356 Cu345 1.985 . S
N356 C358 1.335 . S
N356 C359 1.390 . S
N357 C358 1.345 . S
N357 C360 1.336 . S
C358 N356 1.335 . S
C358 N357 1.345 . S
C358 H363 0.930 . S
C359 N356 1.390 . S
C359 C360 1.346 . S
C359 H364 0.930 . S
C360 N357 1.336 . S
C360 C359 1.346 . S
C360 H367 0.929 . S
C361 O351 1.282 . S
C361 O362 1.216 . S
O362 C361 1.216 . S
H363 C358 0.930 . S
H364 C359 0.930 . S
O365 Cu345 1.959 . S
O365 C352 1.251 . S
H366 C349 0.930 . S
H367 C360 0.929 . S
Cu368 N369 1.999 . S
Cu368 O374 1.974 . S
Cu368 N379 1.985 . S
Cu368 O388 1.959 . S
N369 Cu368 1.999 . S
N369 C371 1.263 . S
N369 C373 1.389 . S
N370 C371 1.358 . S
N370 C372 1.400 . S
C371 N369 1.263 . S
C371 N370 1.358 . S
C371 H377 0.930 . S
C372 N370 1.400 . S
C372 C373 1.351 . S
C372 H389 0.930 . S
C373 N369 1.389 . S
C373 C372 1.351 . S
C373 H378 0.930 . S
O374 Cu368 1.974 . S
O374 C384 1.282 . S
C375 O376 1.261 . S
C375 O388 1.251 . S
O376 C375 1.261 . S
H377 C371 0.930 . S
H378 C373 0.930 . S
N379 Cu368 1.985 . S
N379 C381 1.335 . S
N379 C382 1.390 . S
N380 C381 1.345 . S
N380 C383 1.336 . S
C381 N379 1.335 . S
C381 N380 1.345 . S
C381 H386 0.930 . S
C382 N379 1.390 . S
C382 C383 1.346 . S
C382 H387 0.930 . S
C383 N380 1.336 . S
C383 C382 1.346 . S
C383 H390 0.929 . S
C384 O374 1.282 . S
C384 O385 1.216 . S
O385 C384 1.216 . S
H386 C381 0.930 . S
H387 C382 0.930 . S
O388 Cu368 1.959 . S
O388 C375 1.251 . S
H389 C372 0.930 . S
H390 C383 0.929 . S
Cu391 N392 1.999 . S
Cu391 O397 1.974 . S
Cu391 N402 1.985 . S
Cu391 O411 1.959 . S
N392 Cu391 1.999 . S
N392 C394 1.263 . S
N392 C396 1.389 . S
N393 C394 1.358 . S
N393 C395 1.400 . S
C394 N392 1.263 . S
C394 N393 1.358 . S
C394 H400 0.930 . S
C395 N393 1.400 . S
C395 C396 1.351 . S
C395 H412 0.930 . S
C396 N392 1.389 . S
C396 C395 1.351 . S
C396 H401 0.930 . S
O397 Cu391 1.974 . S
O397 C407 1.282 . S
C398 O399 1.261 . S
C398 O411 1.251 . S
O399 C398 1.261 . S
H400 C394 0.930 . S
H401 C396 0.930 . S
N402 Cu391 1.985 . S
N402 C404 1.335 . S
N402 C405 1.390 . S
N403 C404 1.345 . S
N403 C406 1.336 . S
C404 N402 1.335 . S
C404 N403 1.345 . S
C404 H409 0.930 . S
C405 N402 1.390 . S
C405 C406 1.346 . S
C405 H410 0.930 . S
C406 N403 1.336 . S
C406 C405 1.346 . S
C406 H413 0.929 . S
C407 O397 1.282 . S
C407 O408 1.216 . S
O408 C407 1.216 . S
H409 C404 0.930 . S
H410 C405 0.930 . S
O411 Cu391 1.959 . S
O411 C398 1.251 . S
H412 C395 0.930 . S
H413 C406 0.929 . S
Cu414 N415 1.999 . S
Cu414 O420 1.974 . S
Cu414 N425 1.985 . S
Cu414 O434 1.959 . S
N415 Cu414 1.999 . S
N415 C417 1.263 . S
N415 C419 1.389 . S
N416 C417 1.358 . S
N416 C418 1.400 . S
C417 N415 1.263 . S
C417 N416 1.358 . S
C417 H423 0.930 . S
C418 N416 1.400 . S
C418 C419 1.351 . S
C418 H435 0.930 . S
C419 N415 1.389 . S
C419 C418 1.351 . S
C419 H424 0.930 . S
O420 Cu414 1.974 . S
O420 C430 1.282 . S
C421 O422 1.261 . S
C421 O434 1.251 . S
O422 C421 1.261 . S
H423 C417 0.930 . S
H424 C419 0.930 . S
N425 Cu414 1.985 . S
N425 C427 1.335 . S
N425 C428 1.390 . S
N426 C427 1.345 . S
N426 C429 1.336 . S
C427 N425 1.335 . S
C427 N426 1.345 . S
C427 H432 0.930 . S
C428 N425 1.390 . S
C428 C429 1.346 . S
C428 H433 0.930 . S
C429 N426 1.336 . S
C429 C428 1.346 . S
C429 H436 0.929 . S
C430 O420 1.282 . S
C430 O431 1.216 . S
O431 C430 1.216 . S
H432 C427 0.930 . S
H433 C428 0.930 . S
O434 Cu414 1.959 . S
O434 C421 1.251 . S
H435 C418 0.930 . S
H436 C429 0.929 . S
Cu437 N438 1.999 . S
Cu437 O443 1.974 . S
Cu437 N448 1.985 . S
Cu437 O457 1.959 . S
N438 Cu437 1.999 . S
N438 C440 1.263 . S
N438 C442 1.389 . S
N439 C440 1.358 . S
N439 C441 1.400 . S
C440 N438 1.263 . S
C440 N439 1.358 . S
C440 H446 0.930 . S
C441 N439 1.400 . S
C441 C442 1.351 . S
C441 H458 0.930 . S
C442 N438 1.389 . S
C442 C441 1.351 . S
C442 H447 0.930 . S
O443 Cu437 1.974 . S
O443 C453 1.282 . S
C444 O445 1.261 . S
C444 O457 1.251 . S
O445 C444 1.261 . S
H446 C440 0.930 . S
H447 C442 0.930 . S
N448 Cu437 1.985 . S
N448 C450 1.335 . S
N448 C451 1.390 . S
N449 C450 1.345 . S
N449 C452 1.336 . S
C450 N448 1.335 . S
C450 N449 1.345 . S
C450 H455 0.930 . S
C451 N448 1.390 . S
C451 C452 1.346 . S
C451 H456 0.930 . S
C452 N449 1.336 . S
C452 C451 1.346 . S
C452 H459 0.929 . S
C453 O443 1.282 . S
C453 O454 1.216 . S
O454 C453 1.216 . S
H455 C450 0.930 . S
H456 C451 0.930 . S
O457 Cu437 1.959 . S
O457 C444 1.251 . S
H458 C441 0.930 . S
H459 C452 0.929 . S
Cu460 N461 1.999 . S
Cu460 O466 1.974 . S
Cu460 N471 1.985 . S
Cu460 O480 1.959 . S
N461 Cu460 1.999 . S
N461 C463 1.263 . S
N461 C465 1.389 . S
N462 C463 1.358 . S
N462 C464 1.400 . S
C463 N461 1.263 . S
C463 N462 1.358 . S
C463 H469 0.930 . S
C464 N462 1.400 . S
C464 C465 1.351 . S
C464 H481 0.930 . S
C465 N461 1.389 . S
C465 C464 1.351 . S
C465 H470 0.930 . S
O466 Cu460 1.974 . S
O466 C476 1.282 . S
C467 O468 1.261 . S
C467 O480 1.251 . S
O468 C467 1.261 . S
H469 C463 0.930 . S
H470 C465 0.930 . S
N471 Cu460 1.985 . S
N471 C473 1.335 . S
N471 C474 1.390 . S
N472 C473 1.345 . S
N472 C475 1.336 . S
C473 N471 1.335 . S
C473 N472 1.345 . S
C473 H478 0.930 . S
C474 N471 1.390 . S
C474 C475 1.346 . S
C474 H479 0.930 . S
C475 N472 1.336 . S
C475 C474 1.346 . S
C475 H482 0.929 . S
C476 O466 1.282 . S
C476 O477 1.216 . S
O477 C476 1.216 . S
H478 C473 0.930 . S
H479 C474 0.930 . S
O480 Cu460 1.959 . S
O480 C467 1.251 . S
H481 C464 0.930 . S
H482 C475 0.929 . S
Cu483 N484 1.999 . S
Cu483 O489 1.974 . S
Cu483 N494 1.985 . S
Cu483 O503 1.959 . S
N484 Cu483 1.999 . S
N484 C486 1.263 . S
N484 C488 1.389 . S
N485 C486 1.358 . S
N485 C487 1.400 . S
C486 N484 1.263 . S
C486 N485 1.358 . S
C486 H492 0.930 . S
C487 N485 1.400 . S
C487 C488 1.351 . S
C487 H504 0.930 . S
C488 N484 1.389 . S
C488 C487 1.351 . S
C488 H493 0.930 . S
O489 Cu483 1.974 . S
O489 C499 1.282 . S
C490 O491 1.261 . S
C490 O503 1.251 . S
O491 C490 1.261 . S
H492 C486 0.930 . S
H493 C488 0.930 . S
N494 Cu483 1.985 . S
N494 C496 1.335 . S
N494 C497 1.390 . S
N495 C496 1.345 . S
N495 C498 1.336 . S
C496 N494 1.335 . S
C496 N495 1.345 . S
C496 H501 0.930 . S
C497 N494 1.390 . S
C497 C498 1.346 . S
C497 H502 0.930 . S
C498 N495 1.336 . S
C498 C497 1.346 . S
C498 H505 0.929 . S
C499 O489 1.282 . S
C499 O500 1.216 . S
O500 C499 1.216 . S
H501 C496 0.930 . S
H502 C497 0.930 . S
O503 Cu483 1.959 . S
O503 C490 1.251 . S
H504 C487 0.930 . S
H505 C498 0.929 . S
Cu506 N507 1.999 . S
Cu506 O512 1.974 . S
Cu506 N517 1.985 . S
Cu506 O526 1.959 . S
N507 Cu506 1.999 . S
N507 C509 1.263 . S
N507 C511 1.389 . S
N508 C509 1.358 . S
N508 C510 1.400 . S
C509 N507 1.263 . S
C509 N508 1.358 . S
C509 H515 0.930 . S
C510 N508 1.400 . S
C510 C511 1.351 . S
C510 H527 0.930 . S
C511 N507 1.389 . S
C511 C510 1.351 . S
C511 H516 0.930 . S
O512 Cu506 1.974 . S
O512 C522 1.282 . S
C513 O514 1.261 . S
C513 O526 1.251 . S
O514 C513 1.261 . S
H515 C509 0.930 . S
H516 C511 0.930 . S
N517 Cu506 1.985 . S
N517 C519 1.335 . S
N517 C520 1.390 . S
N518 C519 1.345 . S
N518 C521 1.336 . S
C519 N517 1.335 . S
C519 N518 1.345 . S
C519 H524 0.930 . S
C520 N517 1.390 . S
C520 C521 1.346 . S
C520 H525 0.930 . S
C521 N518 1.336 . S
C521 C520 1.346 . S
C521 H528 0.929 . S
C522 O512 1.282 . S
C522 O523 1.216 . S
O523 C522 1.216 . S
H524 C519 0.930 . S
H525 C520 0.930 . S
O526 Cu506 1.959 . S
O526 C513 1.251 . S
H527 C510 0.930 . S
H528 C521 0.929 . S
Cu529 N530 1.999 . S
Cu529 O535 1.974 . S
Cu529 N540 1.985 . S
Cu529 O549 1.959 . S
N530 Cu529 1.999 . S
N530 C532 1.263 . S
N530 C534 1.389 . S
N531 C532 1.358 . S
N531 C533 1.400 . S
C532 N530 1.263 . S
C532 N531 1.358 . S
C532 H538 0.930 . S
C533 N531 1.400 . S
C533 C534 1.351 . S
C533 H550 0.930 . S
C534 N530 1.389 . S
C534 C533 1.351 . S
C534 H539 0.930 . S
O535 Cu529 1.974 . S
O535 C545 1.282 . S
C536 O537 1.261 . S
C536 O549 1.251 . S
O537 C536 1.261 . S
H538 C532 0.930 . S
H539 C534 0.930 . S
N540 Cu529 1.985 . S
N540 C542 1.335 . S
N540 C543 1.390 . S
N541 C542 1.345 . S
N541 C544 1.336 . S
C542 N540 1.335 . S
C542 N541 1.345 . S
C542 H547 0.930 . S
C543 N540 1.390 . S
C543 C544 1.346 . S
C543 H548 0.930 . S
C544 N541 1.336 . S
C544 C543 1.346 . S
C544 H551 0.929 . S
C545 O535 1.282 . S
C545 O546 1.216 . S
O546 C545 1.216 . S
H547 C542 0.930 . S
H548 C543 0.930 . S
O549 Cu529 1.959 . S
O549 C536 1.251 . S
H550 C533 0.930 . S
H551 C544 0.929 . S
H552 C560 0.950 . S
H553 C565 0.950 . S
H554 C562 0.950 . S
H555 C564 0.950 . S
H556 C566 0.950 . S
H557 C568 0.950 . S
H558 C570 0.950 . S
H559 C571 0.950 . S
C560 H552 0.950 . S
C560 C561 1.386 . S
C560 C562 1.391 . S
C561 C560 1.386 . S
C561 C565 1.393 . S
C562 H554 0.950 . S
C562 C560 1.391 . S
C562 C563 1.400 . S
C563 C562 1.400 . S
C563 C564 1.398 . S
C563 C569 1.491 . S
C564 H555 0.950 . S
C564 C563 1.398 . S
C564 C565 1.391 . S
C565 H553 0.950 . S
C565 C561 1.393 . S
C565 C564 1.391 . S
C566 H556 0.950 . S
C566 C567 1.386 . S
C566 C568 1.391 . S
C567 C566 1.386 . S
C567 C571 1.393 . S
C568 H557 0.950 . S
C568 C566 1.391 . S
C568 C569 1.400 . S
C569 C563 1.491 . S
C569 C568 1.400 . S
C569 C570 1.398 . S
C570 H558 0.950 . S
C570 C569 1.398 . S
C570 C571 1.391 . S
C571 H559 0.950 . S
C571 C567 1.393 . S
C571 C570 1.391 . S
H572 C580 0.950 . S
H573 C585 0.950 . S
H574 C582 0.950 . S
H575 C584 0.950 . S
H576 C586 0.950 . S
H577 C588 0.950 . S
H578 C590 0.950 . S
H579 C591 0.950 . S
C580 H572 0.950 . S
C580 C581 1.386 . S
C580 C582 1.391 . S
C581 C580 1.386 . S
C581 C585 1.393 . S
C582 H574 0.950 . S
C582 C580 1.391 . S
C582 C583 1.400 . S
C583 C582 1.400 . S
C583 C584 1.398 . S
C583 C589 1.491 . S
C584 H575 0.950 . S
C584 C583 1.398 . S
C584 C585 1.391 . S
C585 H573 0.950 . S
C585 C581 1.393 . S
C585 C584 1.391 . S
C586 H576 0.950 . S
C586 C587 1.386 . S
C586 C588 1.391 . S
C587 C586 1.386 . S
C587 C591 1.393 . S
C588 H577 0.950 . S
C588 C586 1.391 . S
C588 C589 1.400 . S
C589 C583 1.491 . S
C589 C588 1.400 . S
C589 C590 1.398 . S
C590 H578 0.950 . S
C590 C589 1.398 . S
C590 C591 1.391 . S
C591 H579 0.950 . S
C591 C587 1.393 . S
C591 C590 1.391 . S
H592 C600 0.950 . S
H593 C605 0.950 . S
H594 C602 0.950 . S
H595 C604 0.950 . S
H596 C606 0.950 . S
H597 C608 0.950 . S
H598 C610 0.950 . S
H599 C611 0.950 . S
C600 H592 0.950 . S
C600 C601 1.386 . S
C600 C602 1.391 . S
C601 C600 1.386 . S
C601 C605 1.393 . S
C602 H594 0.950 . S
C602 C600 1.391 . S
C602 C603 1.400 . S
C603 C602 1.400 . S
C603 C604 1.398 . S
C603 C609 1.491 . S
C604 H595 0.950 . S
C604 C603 1.398 . S
C604 C605 1.391 . S
C605 H593 0.950 . S
C605 C601 1.393 . S
C605 C604 1.391 . S
C606 H596 0.950 . S
C606 C607 1.386 . S
C606 C608 1.391 . S
C607 C606 1.386 . S
C607 C611 1.393 . S
C608 H597 0.950 . S
C608 C606 1.391 . S
C608 C609 1.400 . S
C609 C603 1.491 . S
C609 C608 1.400 . S
C609 C610 1.398 . S
C610 H598 0.950 . S
C610 C609 1.398 . S
C610 C611 1.391 . S
C611 H599 0.950 . S
C611 C607 1.393 . S
C611 C610 1.391 . S
H612 C620 0.950 . S
H613 C625 0.950 . S
H614 C622 0.950 . S
H615 C624 0.950 . S
H616 C626 0.950 . S
H617 C628 0.950 . S
H618 C630 0.950 . S
H619 C631 0.950 . S
C620 H612 0.950 . S
C620 C621 1.386 . S
C620 C622 1.391 . S
C621 C620 1.386 . S
C621 C625 1.393 . S
C622 H614 0.950 . S
C622 C620 1.391 . S
C622 C623 1.400 . S
C623 C622 1.400 . S
C623 C624 1.398 . S
C623 C629 1.491 . S
C624 H615 0.950 . S
C624 C623 1.398 . S
C624 C625 1.391 . S
C625 H613 0.950 . S
C625 C621 1.393 . S
C625 C624 1.391 . S
C626 H616 0.950 . S
C626 C627 1.386 . S
C626 C628 1.391 . S
C627 C626 1.386 . S
C627 C631 1.393 . S
C628 H617 0.950 . S
C628 C626 1.391 . S
C628 C629 1.400 . S
C629 C623 1.491 . S
C629 C628 1.400 . S
C629 C630 1.398 . S
C630 H618 0.950 . S
C630 C629 1.398 . S
C630 C631 1.391 . S
C631 H619 0.950 . S
C631 C627 1.393 . S
C631 C630 1.391 . S
H632 C640 0.950 . S
H633 C645 0.950 . S
H634 C642 0.950 . S
H635 C644 0.950 . S
H636 C646 0.950 . S
H637 C648 0.950 . S
H638 C650 0.950 . S
H639 C651 0.950 . S
C640 H632 0.950 . S
C640 C641 1.386 . S
C640 C642 1.391 . S
C641 C640 1.386 . S
C641 C645 1.393 . S
C642 H634 0.950 . S
C642 C640 1.391 . S
C642 C643 1.400 . S
C643 C642 1.400 . S
C643 C644 1.398 . S
C643 C649 1.491 . S
C644 H635 0.950 . S
C644 C643 1.398 . S
C644 C645 1.391 . S
C645 H633 0.950 . S
C645 C641 1.393 . S
C645 C644 1.391 . S
C646 H636 0.950 . S
C646 C647 1.386 . S
C646 C648 1.391 . S
C647 C646 1.386 . S
C647 C651 1.393 . S
C648 H637 0.950 . S
C648 C646 1.391 . S
C648 C649 1.400 . S
C649 C643 1.491 . S
C649 C648 1.400 . S
C649 C650 1.398 . S
C650 H638 0.950 . S
C650 C649 1.398 . S
C650 C651 1.391 . S
C651 H639 0.950 . S
C651 C647 1.393 . S
C651 C650 1.391 . S
H652 C660 0.950 . S
H653 C665 0.950 . S
H654 C662 0.950 . S
H655 C664 0.950 . S
H656 C666 0.950 . S
H657 C668 0.950 . S
H658 C670 0.950 . S
H659 C671 0.950 . S
C660 H652 0.950 . S
C660 C661 1.386 . S
C660 C662 1.391 . S
C661 C660 1.386 . S
C661 C665 1.393 . S
C662 H654 0.950 . S
C662 C660 1.391 . S
C662 C663 1.400 . S
C663 C662 1.400 . S
C663 C664 1.398 . S
C663 C669 1.491 . S
C664 H655 0.950 . S
C664 C663 1.398 . S
C664 C665 1.391 . S
C665 H653 0.950 . S
C665 C661 1.393 . S
C665 C664 1.391 . S
C666 H656 0.950 . S
C666 C667 1.386 . S
C666 C668 1.391 . S
C667 C666 1.386 . S
C667 C671 1.393 . S
C668 H657 0.950 . S
C668 C666 1.391 . S
C668 C669 1.400 . S
C669 C663 1.491 . S
C669 C668 1.400 . S
C669 C670 1.398 . S
C670 H658 0.950 . S
C670 C669 1.398 . S
C670 C671 1.391 . S
C671 H659 0.950 . S
C671 C667 1.393 . S
C671 C670 1.391 . S
H672 C680 0.950 . S
H673 C685 0.950 . S
H674 C682 0.950 . S
H675 C684 0.950 . S
H676 C686 0.950 . S
H677 C688 0.950 . S
H678 C690 0.950 . S
H679 C691 0.950 . S
C680 H672 0.950 . S
C680 C681 1.386 . S
C680 C682 1.391 . S
C681 C680 1.386 . S
C681 C685 1.393 . S
C682 H674 0.950 . S
C682 C680 1.391 . S
C682 C683 1.400 . S
C683 C682 1.400 . S
C683 C684 1.398 . S
C683 C689 1.491 . S
C684 H675 0.950 . S
C684 C683 1.398 . S
C684 C685 1.391 . S
C685 H673 0.950 . S
C685 C681 1.393 . S
C685 C684 1.391 . S
C686 H676 0.950 . S
C686 C687 1.386 . S
C686 C688 1.391 . S
C687 C686 1.386 . S
C687 C691 1.393 . S
C688 H677 0.950 . S
C688 C686 1.391 . S
C688 C689 1.400 . S
C689 C683 1.491 . S
C689 C688 1.400 . S
C689 C690 1.398 . S
C690 H678 0.950 . S
C690 C689 1.398 . S
C690 C691 1.391 . S
C691 H679 0.950 . S
C691 C687 1.393 . S
C691 C690 1.391 . S
H692 C700 0.950 . S
H693 C705 0.950 . S
H694 C702 0.950 . S
H695 C704 0.950 . S
H696 C706 0.950 . S
H697 C708 0.950 . S
H698 C710 0.950 . S
H699 C711 0.950 . S
C700 H692 0.950 . S
C700 C701 1.386 . S
C700 C702 1.391 . S
C701 C700 1.386 . S
C701 C705 1.393 . S
C702 H694 0.950 . S
C702 C700 1.391 . S
C702 C703 1.400 . S
C703 C702 1.400 . S
C703 C704 1.398 . S
C703 C709 1.491 . S
C704 H695 0.950 . S
C704 C703 1.398 . S
C704 C705 1.391 . S
C705 H693 0.950 . S
C705 C701 1.393 . S
C705 C704 1.391 . S
C706 H696 0.950 . S
C706 C707 1.386 . S
C706 C708 1.391 . S
C707 C706 1.386 . S
C707 C711 1.393 . S
C708 H697 0.950 . S
C708 C706 1.391 . S
C708 C709 1.400 . S
C709 C703 1.491 . S
C709 C708 1.400 . S
C709 C710 1.398 . S
C710 H698 0.950 . S
C710 C709 1.398 . S
C710 C711 1.391 . S
C711 H699 0.950 . S
C711 C707 1.393 . S
C711 C710 1.391 . S
H712 C720 0.950 . S
H713 C725 0.950 . S
H714 C722 0.950 . S
H715 C724 0.950 . S
H716 C726 0.950 . S
H717 C728 0.950 . S
H718 C730 0.950 . S
H719 C731 0.950 . S
C720 H712 0.950 . S
C720 C721 1.386 . S
C720 C722 1.391 . S
C721 C720 1.386 . S
C721 C725 1.393 . S
C722 H714 0.950 . S
C722 C720 1.391 . S
C722 C723 1.400 . S
C723 C722 1.400 . S
C723 C724 1.398 . S
C723 C729 1.491 . S
C724 H715 0.950 . S
C724 C723 1.398 . S
C724 C725 1.391 . S
C725 H713 0.950 . S
C725 C721 1.393 . S
C725 C724 1.391 . S
C726 H716 0.950 . S
C726 C727 1.386 . S
C726 C728 1.391 . S
C727 C726 1.386 . S
C727 C731 1.393 . S
C728 H717 0.950 . S
C728 C726 1.391 . S
C728 C729 1.400 . S
C729 C723 1.491 . S
C729 C728 1.400 . S
C729 C730 1.398 . S
C730 H718 0.950 . S
C730 C729 1.398 . S
C730 C731 1.391 . S
C731 H719 0.950 . S
C731 C727 1.393 . S
C731 C730 1.391 . S
H732 C740 0.950 . S
H733 C745 0.950 . S
H734 C742 0.950 . S
H735 C744 0.950 . S
H736 C746 0.950 . S
H737 C748 0.950 . S
H738 C750 0.950 . S
H739 C751 0.950 . S
C740 H732 0.950 . S
C740 C741 1.386 . S
C740 C742 1.391 . S
C741 C740 1.386 . S
C741 C745 1.393 . S
C742 H734 0.950 . S
C742 C740 1.391 . S
C742 C743 1.400 . S
C743 C742 1.400 . S
C743 C744 1.398 . S
C743 C749 1.491 . S
C744 H735 0.950 . S
C744 C743 1.398 . S
C744 C745 1.391 . S
C745 H733 0.950 . S
C745 C741 1.393 . S
C745 C744 1.391 . S
C746 H736 0.950 . S
C746 C747 1.386 . S
C746 C748 1.391 . S
C747 C746 1.386 . S
C747 C751 1.393 . S
C748 H737 0.950 . S
C748 C746 1.391 . S
C748 C749 1.400 . S
C749 C743 1.491 . S
C749 C748 1.400 . S
C749 C750 1.398 . S
C750 H738 0.950 . S
C750 C749 1.398 . S
C750 C751 1.391 . S
C751 H739 0.950 . S
C751 C747 1.393 . S
C751 C750 1.391 . S
H752 C760 0.950 . S
H753 C765 0.950 . S
H754 C762 0.950 . S
H755 C764 0.950 . S
H756 C766 0.950 . S
H757 C768 0.950 . S
H758 C770 0.950 . S
H759 C771 0.950 . S
C760 H752 0.950 . S
C760 C761 1.386 . S
C760 C762 1.391 . S
C761 C760 1.386 . S
C761 C765 1.393 . S
C762 H754 0.950 . S
C762 C760 1.391 . S
C762 C763 1.400 . S
C763 C762 1.400 . S
C763 C764 1.398 . S
C763 C769 1.491 . S
C764 H755 0.950 . S
C764 C763 1.398 . S
C764 C765 1.391 . S
C765 H753 0.950 . S
C765 C761 1.393 . S
C765 C764 1.391 . S
C766 H756 0.950 . S
C766 C767 1.386 . S
C766 C768 1.391 . S
C767 C766 1.386 . S
C767 C771 1.393 . S
C768 H757 0.950 . S
C768 C766 1.391 . S
C768 C769 1.400 . S
C769 C763 1.491 . S
C769 C768 1.400 . S
C769 C770 1.398 . S
C770 H758 0.950 . S
C770 C769 1.398 . S
C770 C771 1.391 . S
C771 H759 0.950 . S
C771 C767 1.393 . S
C771 C770 1.391 . S
H772 C780 0.950 . S
H773 C785 0.950 . S
H774 C782 0.950 . S
H775 C784 0.950 . S
H776 C786 0.950 . S
H777 C788 0.950 . S
H778 C790 0.950 . S
H779 C791 0.950 . S
C780 H772 0.950 . S
C780 C781 1.386 . S
C780 C782 1.391 . S
C781 C780 1.386 . S
C781 C785 1.393 . S
C782 H774 0.950 . S
C782 C780 1.391 . S
C782 C783 1.400 . S
C783 C782 1.400 . S
C783 C784 1.398 . S
C783 C789 1.491 . S
C784 H775 0.950 . S
C784 C783 1.398 . S
C784 C785 1.391 . S
C785 H773 0.950 . S
C785 C781 1.393 . S
C785 C784 1.391 . S
C786 H776 0.950 . S
C786 C787 1.386 . S
C786 C788 1.391 . S
C787 C786 1.386 . S
C787 C791 1.393 . S
C788 H777 0.950 . S
C788 C786 1.391 . S
C788 C789 1.400 . S
C789 C783 1.491 . S
C789 C788 1.400 . S
C789 C790 1.398 . S
C790 H778 0.950 . S
C790 C789 1.398 . S
C790 C791 1.391 . S
C791 H779 0.950 . S
C791 C787 1.393 . S
C791 C790 1.391 . S
H792 C800 0.950 . S
H793 C805 0.950 . S
H794 C802 0.950 . S
H795 C804 0.950 . S
H796 C806 0.950 . S
H797 C808 0.950 . S
H798 C810 0.950 . S
H799 C811 0.950 . S
C800 H792 0.950 . S
C800 C801 1.386 . S
C800 C802 1.391 . S
C801 C800 1.386 . S
C801 C805 1.393 . S
C802 H794 0.950 . S
C802 C800 1.391 . S
C802 C803 1.400 . S
C803 C802 1.400 . S
C803 C804 1.398 . S
C803 C809 1.491 . S
C804 H795 0.950 . S
C804 C803 1.398 . S
C804 C805 1.391 . S
C805 H793 0.950 . S
C805 C801 1.393 . S
C805 C804 1.391 . S
C806 H796 0.950 . S
C806 C807 1.386 . S
C806 C808 1.391 . S
C807 C806 1.386 . S
C807 C811 1.393 . S
C808 H797 0.950 . S
C808 C806 1.391 . S
C808 C809 1.400 . S
C809 C803 1.491 . S
C809 C808 1.400 . S
C809 C810 1.398 . S
C810 H798 0.950 . S
C810 C809 1.398 . S
C810 C811 1.391 . S
C811 H799 0.950 . S
C811 C807 1.393 . S
C811 C810 1.391 . S
H812 C820 0.950 . S
H813 C825 0.950 . S
H814 C822 0.950 . S
H815 C824 0.950 . S
H816 C826 0.950 . S
H817 C828 0.950 . S
H818 C830 0.950 . S
H819 C831 0.950 . S
C820 H812 0.950 . S
C820 C821 1.386 . S
C820 C822 1.391 . S
C821 C820 1.386 . S
C821 C825 1.393 . S
C822 H814 0.950 . S
C822 C820 1.391 . S
C822 C823 1.400 . S
C823 C822 1.400 . S
C823 C824 1.398 . S
C823 C829 1.491 . S
C824 H815 0.950 . S
C824 C823 1.398 . S
C824 C825 1.391 . S
C825 H813 0.950 . S
C825 C821 1.393 . S
C825 C824 1.391 . S
C826 H816 0.950 . S
C826 C827 1.386 . S
C826 C828 1.391 . S
C827 C826 1.386 . S
C827 C831 1.393 . S
C828 H817 0.950 . S
C828 C826 1.391 . S
C828 C829 1.400 . S
C829 C823 1.491 . S
C829 C828 1.400 . S
C829 C830 1.398 . S
C830 H818 0.950 . S
C830 C829 1.398 . S
C830 C831 1.391 . S
C831 H819 0.950 . S
C831 C827 1.393 . S
C831 C830 1.391 . S
H832 C840 0.950 . S
H833 C845 0.950 . S
H834 C842 0.950 . S
H835 C844 0.950 . S
H836 C846 0.950 . S
H837 C848 0.950 . S
H838 C850 0.950 . S
H839 C851 0.950 . S
C840 H832 0.950 . S
C840 C841 1.386 . S
C840 C842 1.391 . S
C841 C840 1.386 . S
C841 C845 1.393 . S
C842 H834 0.950 . S
C842 C840 1.391 . S
C842 C843 1.400 . S
C843 C842 1.400 . S
C843 C844 1.398 . S
C843 C849 1.491 . S
C844 H835 0.950 . S
C844 C843 1.398 . S
C844 C845 1.391 . S
C845 H833 0.950 . S
C845 C841 1.393 . S
C845 C844 1.391 . S
C846 H836 0.950 . S
C846 C847 1.386 . S
C846 C848 1.391 . S
C847 C846 1.386 . S
C847 C851 1.393 . S
C848 H837 0.950 . S
C848 C846 1.391 . S
C848 C849 1.400 . S
C849 C843 1.491 . S
C849 C848 1.400 . S
C849 C850 1.398 . S
C850 H838 0.950 . S
C850 C849 1.398 . S
C850 C851 1.391 . S
C851 H839 0.950 . S
C851 C847 1.393 . S
C851 C850 1.391 . S
H852 C860 0.950 . S
H853 C865 0.950 . S
H854 C862 0.950 . S
H855 C864 0.950 . S
H856 C866 0.950 . S
H857 C868 0.950 . S
H858 C870 0.950 . S
H859 C871 0.950 . S
C860 H852 0.950 . S
C860 C861 1.386 . S
C860 C862 1.391 . S
C861 C860 1.386 . S
C861 C865 1.393 . S
C862 H854 0.950 . S
C862 C860 1.391 . S
C862 C863 1.400 . S
C863 C862 1.400 . S
C863 C864 1.398 . S
C863 C869 1.491 . S
C864 H855 0.950 . S
C864 C863 1.398 . S
C864 C865 1.391 . S
C865 H853 0.950 . S
C865 C861 1.393 . S
C865 C864 1.391 . S
C866 H856 0.950 . S
C866 C867 1.386 . S
C866 C868 1.391 . S
C867 C866 1.386 . S
C867 C871 1.393 . S
C868 H857 0.950 . S
C868 C866 1.391 . S
C868 C869 1.400 . S
C869 C863 1.491 . S
C869 C868 1.400 . S
C869 C870 1.398 . S
C870 H858 0.950 . S
C870 C869 1.398 . S
C870 C871 1.391 . S
C871 H859 0.950 . S
C871 C867 1.393 . S
C871 C870 1.391 . S
H872 C880 0.950 . S
H873 C885 0.950 . S
H874 C882 0.950 . S
H875 C884 0.950 . S
H876 C886 0.950 . S
H877 C888 0.950 . S
H878 C890 0.950 . S
H879 C891 0.950 . S
C880 H872 0.950 . S
C880 C881 1.386 . S
C880 C882 1.391 . S
C881 C880 1.386 . S
C881 C885 1.393 . S
C882 H874 0.950 . S
C882 C880 1.391 . S
C882 C883 1.400 . S
C883 C882 1.400 . S
C883 C884 1.398 . S
C883 C889 1.491 . S
C884 H875 0.950 . S
C884 C883 1.398 . S
C884 C885 1.391 . S
C885 H873 0.950 . S
C885 C881 1.393 . S
C885 C884 1.391 . S
C886 H876 0.950 . S
C886 C887 1.386 . S
C886 C888 1.391 . S
C887 C886 1.386 . S
C887 C891 1.393 . S
C888 H877 0.950 . S
C888 C886 1.391 . S
C888 C889 1.400 . S
C889 C883 1.491 . S
C889 C888 1.400 . S
C889 C890 1.398 . S
C890 H878 0.950 . S
C890 C889 1.398 . S
C890 C891 1.391 . S
C891 H879 0.950 . S
C891 C887 1.393 . S
C891 C890 1.391 . S
H892 C900 0.950 . S
H893 C905 0.950 . S
H894 C902 0.950 . S
H895 C904 0.950 . S
H896 C906 0.950 . S
H897 C908 0.950 . S
H898 C910 0.950 . S
H899 C911 0.950 . S
C900 H892 0.950 . S
C900 C901 1.386 . S
C900 C902 1.391 . S
C901 C900 1.386 . S
C901 C905 1.393 . S
C902 H894 0.950 . S
C902 C900 1.391 . S
C902 C903 1.400 . S
C903 C902 1.400 . S
C903 C904 1.398 . S
C903 C909 1.491 . S
C904 H895 0.950 . S
C904 C903 1.398 . S
C904 C905 1.391 . S
C905 H893 0.950 . S
C905 C901 1.393 . S
C905 C904 1.391 . S
C906 H896 0.950 . S
C906 C907 1.386 . S
C906 C908 1.391 . S
C907 C906 1.386 . S
C907 C911 1.393 . S
C908 H897 0.950 . S
C908 C906 1.391 . S
C908 C909 1.400 . S
C909 C903 1.491 . S
C909 C908 1.400 . S
C909 C910 1.398 . S
C910 H898 0.950 . S
C910 C909 1.398 . S
C910 C911 1.391 . S
C911 H899 0.950 . S
C911 C907 1.393 . S
C911 C910 1.391 . S
H912 C920 0.950 . S
H913 C925 0.950 . S
H914 C922 0.950 . S
H915 C924 0.950 . S
H916 C926 0.950 . S
H917 C928 0.950 . S
H918 C930 0.950 . S
H919 C931 0.950 . S
C920 H912 0.950 . S
C920 C921 1.386 . S
C920 C922 1.391 . S
C921 C920 1.386 . S
C921 C925 1.393 . S
C922 H914 0.950 . S
C922 C920 1.391 . S
C922 C923 1.400 . S
C923 C922 1.400 . S
C923 C924 1.398 . S
C923 C929 1.491 . S
C924 H915 0.950 . S
C924 C923 1.398 . S
C924 C925 1.391 . S
C925 H913 0.950 . S
C925 C921 1.393 . S
C925 C924 1.391 . S
C926 H916 0.950 . S
C926 C927 1.386 . S
C926 C928 1.391 . S
C927 C926 1.386 . S
C927 C931 1.393 . S
C928 H917 0.950 . S
C928 C926 1.391 . S
C928 C929 1.400 . S
C929 C923 1.491 . S
C929 C928 1.400 . S
C929 C930 1.398 . S
C930 H918 0.950 . S
C930 C929 1.398 . S
C930 C931 1.391 . S
C931 H919 0.950 . S
C931 C927 1.393 . S
C931 C930 1.391 . S
H932 C940 0.950 . S
H933 C945 0.950 . S
H934 C942 0.950 . S
H935 C944 0.950 . S
H936 C946 0.950 . S
H937 C948 0.950 . S
H938 C950 0.950 . S
H939 C951 0.950 . S
C940 H932 0.950 . S
C940 C941 1.386 . S
C940 C942 1.391 . S
C941 C940 1.386 . S
C941 C945 1.393 . S
C942 H934 0.950 . S
C942 C940 1.391 . S
C942 C943 1.400 . S
C943 C942 1.400 . S
C943 C944 1.398 . S
C943 C949 1.491 . S
C944 H935 0.950 . S
C944 C943 1.398 . S
C944 C945 1.391 . S
C945 H933 0.950 . S
C945 C941 1.393 . S
C945 C944 1.391 . S
C946 H936 0.950 . S
C946 C947 1.386 . S
C946 C948 1.391 . S
C947 C946 1.386 . S
C947 C951 1.393 . S
C948 H937 0.950 . S
C948 C946 1.391 . S
C948 C949 1.400 . S
C949 C943 1.491 . S
C949 C948 1.400 . S
C949 C950 1.398 . S
C950 H938 0.950 . S
C950 C949 1.398 . S
C950 C951 1.391 . S
C951 H939 0.950 . S
C951 C947 1.393 . S
C951 C950 1.391 . S
H952 C960 0.950 . S
H953 C965 0.950 . S
H954 C962 0.950 . S
H955 C964 0.950 . S
H956 C966 0.950 . S
H957 C968 0.950 . S
H958 C970 0.950 . S
H959 C971 0.950 . S
C960 H952 0.950 . S
C960 C961 1.386 . S
C960 C962 1.391 . S
C961 C960 1.386 . S
C961 C965 1.393 . S
C962 H954 0.950 . S
C962 C960 1.391 . S
C962 C963 1.400 . S
C963 C962 1.400 . S
C963 C964 1.398 . S
C963 C969 1.491 . S
C964 H955 0.950 . S
C964 C963 1.398 . S
C964 C965 1.391 . S
C965 H953 0.950 . S
C965 C961 1.393 . S
C965 C964 1.391 . S
C966 H956 0.950 . S
C966 C967 1.386 . S
C966 C968 1.391 . S
C967 C966 1.386 . S
C967 C971 1.393 . S
C968 H957 0.950 . S
C968 C966 1.391 . S
C968 C969 1.400 . S
C969 C963 1.491 . S
C969 C968 1.400 . S
C969 C970 1.398 . S
C970 H958 0.950 . S
C970 C969 1.398 . S
C970 C971 1.391 . S
C971 H959 0.950 . S
C971 C967 1.393 . S
C971 C970 1.391 . S
H972 C980 0.950 . S
H973 C985 0.950 . S
H974 C982 0.950 . S
H975 C984 0.950 . S
H976 C986 0.950 . S
H977 C988 0.950 . S
H978 C990 0.950 . S
H979 C991 0.950 . S
C980 H972 0.950 . S
C980 C981 1.386 . S
C980 C982 1.391 . S
C981 C980 1.386 . S
C981 C985 1.393 . S
C982 H974 0.950 . S
C982 C980 1.391 . S
C982 C983 1.400 . S
C983 C982 1.400 . S
C983 C984 1.398 . S
C983 C989 1.491 . S
C984 H975 0.950 . S
C984 C983 1.398 . S
C984 C985 1.391 . S
C985 H973 0.950 . S
C985 C981 1.393 . S
C985 C984 1.391 . S
C986 H976 0.950 . S
C986 C987 1.386 . S
C986 C988 1.391 . S
C987 C986 1.386 . S
C987 C991 1.393 . S
C988 H977 0.950 . S
C988 C986 1.391 . S
C988 C989 1.400 . S
C989 C983 1.491 . S
C989 C988 1.400 . S
C989 C990 1.398 . S
C990 H978 0.950 . S
C990 C989 1.398 . S
C990 C991 1.391 . S
C991 H979 0.950 . S
C991 C987 1.393 . S
C991 C990 1.391 . S
H992 C1000 0.950 . S
H993 C1005 0.950 . S
H994 C1002 0.950 . S
H995 C1004 0.950 . S
H996 C1006 0.950 . S
H997 C1008 0.950 . S
H998 C1010 0.950 . S
H999 C1011 0.950 . S
C1000 H992 0.950 . S
C1000 C1001 1.386 . S
C1000 C1002 1.391 . S
C1001 C1000 1.386 . S
C1001 C1005 1.393 . S
C1002 H994 0.950 . S
C1002 C1000 1.391 . S
C1002 C1003 1.400 . S
C1003 C1002 1.400 . S
C1003 C1004 1.398 . S
C1003 C1009 1.491 . S
C1004 H995 0.950 . S
C1004 C1003 1.398 . S
C1004 C1005 1.391 . S
C1005 H993 0.950 . S
C1005 C1001 1.393 . S
C1005 C1004 1.391 . S
C1006 H996 0.950 . S
C1006 C1007 1.386 . S
C1006 C1008 1.391 . S
C1007 C1006 1.386 . S
C1007 C1011 1.393 . S
C1008 H997 0.950 . S
C1008 C1006 1.391 . S
C1008 C1009 1.400 . S
C1009 C1003 1.491 . S
C1009 C1008 1.400 . S
C1009 C1010 1.398 . S
C1010 H998 0.950 . S
C1010 C1009 1.398 . S
C1010 C1011 1.391 . S
C1011 H999 0.950 . S
C1011 C1007 1.393 . S
C1011 C1010 1.391 . S
H1012 C1020 0.950 . S
H1013 C1025 0.950 . S
H1014 C1022 0.950 . S
H1015 C1024 0.950 . S
H1016 C1026 0.950 . S
H1017 C1028 0.950 . S
H1018 C1030 0.950 . S
H1019 C1031 0.950 . S
C1020 H1012 0.950 . S
C1020 C1021 1.386 . S
C1020 C1022 1.391 . S
C1021 C1020 1.386 . S
C1021 C1025 1.393 . S
C1022 H1014 0.950 . S
C1022 C1020 1.391 . S
C1022 C1023 1.400 . S
C1023 C1022 1.400 . S
C1023 C1024 1.398 . S
C1023 C1029 1.491 . S
C1024 H1015 0.950 . S
C1024 C1023 1.398 . S
C1024 C1025 1.391 . S
C1025 H1013 0.950 . S
C1025 C1021 1.393 . S
C1025 C1024 1.391 . S
C1026 H1016 0.950 . S
C1026 C1027 1.386 . S
C1026 C1028 1.391 . S
C1027 C1026 1.386 . S
C1027 C1031 1.393 . S
C1028 H1017 0.950 . S
C1028 C1026 1.391 . S
C1028 C1029 1.400 . S
C1029 C1023 1.491 . S
C1029 C1028 1.400 . S
C1029 C1030 1.398 . S
C1030 H1018 0.950 . S
C1030 C1029 1.398 . S
C1030 C1031 1.391 . S
C1031 H1019 0.950 . S
C1031 C1027 1.393 . S
C1031 C1030 1.391 . S
H1032 C1040 0.950 . S
H1033 C1045 0.950 . S
H1034 C1042 0.950 . S
H1035 C1044 0.950 . S
H1036 C1046 0.950 . S
H1037 C1048 0.950 . S
H1038 C1050 0.950 . S
H1039 C1051 0.950 . S
C1040 H1032 0.950 . S
C1040 C1041 1.386 . S
C1040 C1042 1.391 . S
C1041 C1040 1.386 . S
C1041 C1045 1.393 . S
C1042 H1034 0.950 . S
C1042 C1040 1.391 . S
C1042 C1043 1.400 . S
C1043 C1042 1.400 . S
C1043 C1044 1.398 . S
C1043 C1049 1.491 . S
C1044 H1035 0.950 . S
C1044 C1043 1.398 . S
C1044 C1045 1.391 . S
C1045 H1033 0.950 . S
C1045 C1041 1.393 . S
C1045 C1044 1.391 . S
C1046 H1036 0.950 . S
C1046 C1047 1.386 . S
C1046 C1048 1.391 . S
C1047 C1046 1.386 . S
C1047 C1051 1.393 . S
C1048 H1037 0.950 . S
C1048 C1046 1.391 . S
C1048 C1049 1.400 . S
C1049 C1043 1.491 . S
C1049 C1048 1.400 . S
C1049 C1050 1.398 . S
C1050 H1038 0.950 . S
C1050 C1049 1.398 . S
C1050 C1051 1.391 . S
C1051 H1039 0.950 . S
C1051 C1047 1.393 . S
C1051 C1050 1.391 . S
H1052 C1060 0.950 . S
H1053 C1065 0.950 . S
H1054 C1062 0.950 . S
H1055 C1064 0.950 . S
H1056 C1066 0.950 . S
H1057 C1068 0.950 . S
H1058 C1070 0.950 . S
H1059 C1071 0.950 . S
C1060 H1052 0.950 . S
C1060 C1061 1.386 . S
C1060 C1062 1.391 1_554 S
C1061 C1060 1.386 . S
C1061 C1065 1.393 . S
C1062 H1054 0.950 . S
C1062 C1060 1.391 1_556 S
C1062 C1063 1.400 . S
C1063 C1062 1.400 . S
C1063 C1064 1.398 . S
C1063 C1069 1.491 . S
C1064 H1055 0.950 . S
C1064 C1063 1.398 . S
C1064 C1065 1.391 1_556 S
C1065 H1053 0.950 . S
C1065 C1061 1.393 . S
C1065 C1064 1.391 1_554 S
C1066 H1056 0.950 . S
C1066 C1067 1.386 . S
C1066 C1068 1.391 . S
C1067 C1066 1.386 . S
C1067 C1071 1.393 . S
C1068 H1057 0.950 . S
C1068 C1066 1.391 . S
C1068 C1069 1.400 . S
C1069 C1063 1.491 . S
C1069 C1068 1.400 . S
C1069 C1070 1.398 . S
C1070 H1058 0.950 . S
C1070 C1069 1.398 . S
C1070 C1071 1.391 . S
C1071 H1059 0.950 . S
C1071 C1067 1.393 . S
C1071 C1070 1.391 . S
H1072 C1080 0.950 . S
H1073 C1085 0.950 . S
H1074 C1082 0.950 . S
H1075 C1084 0.950 . S
H1076 C1086 0.950 . S
H1077 C1088 0.950 . S
H1078 C1090 0.950 . S
H1079 C1091 0.950 . S
C1080 H1072 0.950 . S
C1080 C1081 1.386 . S
C1080 C1082 1.391 . S
C1081 C1080 1.386 . S
C1081 C1085 1.393 . S
C1082 H1074 0.950 . S
C1082 C1080 1.391 . S
C1082 C1083 1.400 . S
C1083 C1082 1.400 . S
C1083 C1084 1.398 . S
C1083 C1089 1.491 . S
C1084 H1075 0.950 . S
C1084 C1083 1.398 . S
C1084 C1085 1.391 . S
C1085 H1073 0.950 . S
C1085 C1081 1.393 . S
C1085 C1084 1.391 . S
C1086 H1076 0.950 . S
C1086 C1087 1.386 . S
C1086 C1088 1.391 . S
C1087 C1086 1.386 . S
C1087 C1091 1.393 . S
C1088 H1077 0.950 . S
C1088 C1086 1.391 . S
C1088 C1089 1.400 . S
C1089 C1083 1.491 . S
C1089 C1088 1.400 . S
C1089 C1090 1.398 . S
C1090 H1078 0.950 . S
C1090 C1089 1.398 . S
C1090 C1091 1.391 . S
C1091 H1079 0.950 . S
C1091 C1087 1.393 . S
C1091 C1090 1.391 . S
H1092 C1100 0.950 . S
H1093 C1105 0.950 . S
H1094 C1102 0.950 . S
H1095 C1104 0.950 . S
H1096 C1106 0.950 . S
H1097 C1108 0.950 . S
H1098 C1110 0.950 . S
H1099 C1111 0.950 . S
C1100 H1092 0.950 . S
C1100 C1101 1.386 . S
C1100 C1102 1.391 . S
C1101 C1100 1.386 . S
C1101 C1105 1.393 . S
C1102 H1094 0.950 . S
C1102 C1100 1.391 . S
C1102 C1103 1.400 . S
C1103 C1102 1.400 . S
C1103 C1104 1.398 . S
C1103 C1109 1.491 . S
C1104 H1095 0.950 . S
C1104 C1103 1.398 . S
C1104 C1105 1.391 . S
C1105 H1093 0.950 . S
C1105 C1101 1.393 . S
C1105 C1104 1.391 . S
C1106 H1096 0.950 . S
C1106 C1107 1.386 . S
C1106 C1108 1.391 1_556 S
C1107 C1106 1.386 . S
C1107 C1111 1.393 . S
C1108 H1097 0.950 . S
C1108 C1106 1.391 1_554 S
C1108 C1109 1.400 . S
C1109 C1103 1.491 . S
C1109 C1108 1.400 . S
C1109 C1110 1.398 . S
C1110 H1098 0.950 . S
C1110 C1109 1.398 . S
C1110 C1111 1.391 1_554 S
C1111 H1099 0.950 . S
C1111 C1107 1.393 . S
C1111 C1110 1.391 1_556 S
H1112 C1120 0.950 . S
H1113 C1125 0.950 . S
H1114 C1122 0.950 . S
H1115 C1124 0.950 . S
H1116 C1126 0.950 . S
H1117 C1128 0.950 . S
H1118 C1130 0.950 . S
H1119 C1131 0.950 . S
C1120 H1112 0.950 . S
C1120 C1121 1.386 . S
C1120 C1122 1.391 . S
C1121 C1120 1.386 . S
C1121 C1125 1.393 . S
C1122 H1114 0.950 . S
C1122 C1120 1.391 . S
C1122 C1123 1.400 . S
C1123 C1122 1.400 . S
C1123 C1124 1.398 . S
C1123 C1129 1.491 . S
C1124 H1115 0.950 . S
C1124 C1123 1.398 . S
C1124 C1125 1.391 . S
C1125 H1113 0.950 . S
C1125 C1121 1.393 . S
C1125 C1124 1.391 . S
C1126 H1116 0.950 . S
C1126 C1127 1.386 . S
C1126 C1128 1.391 . S
C1127 C1126 1.386 . S
C1127 C1131 1.393 . S
C1128 H1117 0.950 . S
C1128 C1126 1.391 . S
C1128 C1129 1.400 . S
C1129 C1123 1.491 . S
C1129 C1128 1.400 . S
C1129 C1130 1.398 . S
C1130 H1118 0.950 . S
C1130 C1129 1.398 . S
C1130 C1131 1.391 . S
C1131 H1119 0.950 . S
C1131 C1127 1.393 . S
C1131 C1130 1.391 . S
H1132 C1140 0.950 . S
H1133 C1145 0.950 . S
H1134 C1142 0.950 . S
H1135 C1144 0.950 . S
H1136 C1146 0.950 . S
H1137 C1148 0.950 . S
H1138 C1150 0.950 . S
H1139 C1151 0.950 . S
C1140 H1132 0.950 . S
C1140 C1141 1.386 . S
C1140 C1142 1.391 1_655 S
C1141 C1140 1.386 . S
C1141 C1145 1.393 . S
C1142 H1134 0.950 . S
C1142 C1140 1.391 1_455 S
C1142 C1143 1.400 . S
C1143 C1142 1.400 . S
C1143 C1144 1.398 . S
C1143 C1149 1.491 . S
C1144 H1135 0.950 . S
C1144 C1143 1.398 . S
C1144 C1145 1.391 1_455 S
C1145 H1133 0.950 . S
C1145 C1141 1.393 . S
C1145 C1144 1.391 1_655 S
C1146 H1136 0.950 . S
C1146 C1147 1.386 . S
C1146 C1148 1.391 . S
C1147 C1146 1.386 . S
C1147 C1151 1.393 . S
C1148 H1137 0.950 . S
C1148 C1146 1.391 . S
C1148 C1149 1.400 . S
C1149 C1143 1.491 . S
C1149 C1148 1.400 . S
C1149 C1150 1.398 . S
C1150 H1138 0.950 . S
C1150 C1149 1.398 . S
C1150 C1151 1.391 . S
C1151 H1139 0.950 . S
C1151 C1147 1.393 . S
C1151 C1150 1.391 . S
H1152 C1160 0.950 . S
H1153 C1165 0.950 . S
H1154 C1162 0.950 . S
H1155 C1164 0.950 . S
H1156 C1166 0.950 . S
H1157 C1168 0.950 . S
H1158 C1170 0.950 . S
H1159 C1171 0.950 . S
C1160 H1152 0.950 . S
C1160 C1161 1.386 . S
C1160 C1162 1.391 1_455 S
C1161 C1160 1.386 . S
C1161 C1165 1.393 . S
C1162 H1154 0.950 . S
C1162 C1160 1.391 1_655 S
C1162 C1163 1.400 . S
C1163 C1162 1.400 . S
C1163 C1164 1.398 . S
C1163 C1169 1.491 . S
C1164 H1155 0.950 . S
C1164 C1163 1.398 . S
C1164 C1165 1.391 1_655 S
C1165 H1153 0.950 . S
C1165 C1161 1.393 . S
C1165 C1164 1.391 1_455 S
C1166 H1156 0.950 . S
C1166 C1167 1.386 . S
C1166 C1168 1.391 . S
C1167 C1166 1.386 . S
C1167 C1171 1.393 . S
C1168 H1157 0.950 . S
C1168 C1166 1.391 . S
C1168 C1169 1.400 . S
C1169 C1163 1.491 . S
C1169 C1168 1.400 . S
C1169 C1170 1.398 . S
C1170 H1158 0.950 . S
C1170 C1169 1.398 . S
C1170 C1171 1.391 . S
C1171 H1159 0.950 . S
C1171 C1167 1.393 . S
C1171 C1170 1.391 . S
H1172 C1180 0.950 . S
H1173 C1185 0.950 . S
H1174 C1182 0.950 . S
H1175 C1184 0.950 . S
H1176 C1186 0.950 . S
H1177 C1188 0.950 . S
H1178 C1190 0.950 . S
H1179 C1191 0.950 . S
C1180 H1172 0.950 . S
C1180 C1181 1.386 . S
C1180 C1182 1.391 . S
C1181 C1180 1.386 . S
C1181 C1185 1.393 . S
C1182 H1174 0.950 . S
C1182 C1180 1.391 . S
C1182 C1183 1.400 . S
C1183 C1182 1.400 . S
C1183 C1184 1.398 . S
C1183 C1189 1.491 . S
C1184 H1175 0.950 . S
C1184 C1183 1.398 . S
C1184 C1185 1.391 . S
C1185 H1173 0.950 . S
C1185 C1181 1.393 . S
C1185 C1184 1.391 . S
C1186 H1176 0.950 . S
C1186 C1187 1.386 . S
C1186 C1188 1.391 . S
C1187 C1186 1.386 . S
C1187 C1191 1.393 . S
C1188 H1177 0.950 . S
C1188 C1186 1.391 . S
C1188 C1189 1.400 . S
C1189 C1183 1.491 . S
C1189 C1188 1.400 . S
C1189 C1190 1.398 . S
C1190 H1178 0.950 . S
C1190 C1189 1.398 . S
C1190 C1191 1.391 . S
C1191 H1179 0.950 . S
C1191 C1187 1.393 . S
C1191 C1190 1.391 . S
H1192 C1200 0.950 . S
H1193 C1205 0.950 . S
H1194 C1202 0.950 . S
H1195 C1204 0.950 . S
H1196 C1206 0.950 . S
H1197 C1208 0.950 . S
H1198 C1210 0.950 . S
H1199 C1211 0.950 . S
C1200 H1192 0.950 . S
C1200 C1201 1.386 . S
C1200 C1202 1.391 . S
C1201 C1200 1.386 . S
C1201 C1205 1.393 . S
C1202 H1194 0.950 . S
C1202 C1200 1.391 . S
C1202 C1203 1.400 . S
C1203 C1202 1.400 . S
C1203 C1204 1.398 . S
C1203 C1209 1.491 . S
C1204 H1195 0.950 . S
C1204 C1203 1.398 . S
C1204 C1205 1.391 . S
C1205 H1193 0.950 . S
C1205 C1201 1.393 . S
C1205 C1204 1.391 . S
C1206 H1196 0.950 . S
C1206 C1207 1.386 . S
C1206 C1208 1.391 . S
C1207 C1206 1.386 . S
C1207 C1211 1.393 . S
C1208 H1197 0.950 . S
C1208 C1206 1.391 . S
C1208 C1209 1.400 . S
C1209 C1203 1.491 . S
C1209 C1208 1.400 . S
C1209 C1210 1.398 . S
C1210 H1198 0.950 . S
C1210 C1209 1.398 . S
C1210 C1211 1.391 . S
C1211 H1199 0.950 . S
C1211 C1207 1.393 . S
C1211 C1210 1.391 . S
H1212 C1220 0.950 . S
H1213 C1225 0.950 . S
H1214 C1222 0.950 . S
H1215 C1224 0.958 . S
H1216 C1226 0.950 . S
H1217 C1228 0.950 . S
H1218 C1230 0.950 . S
H1219 C1231 0.950 . S
C1220 H1212 0.950 . S
C1220 C1221 1.386 . S
C1220 C1222 1.391 1_565 S
C1221 C1220 1.386 . S
C1221 C1225 1.393 . S
C1222 H1214 0.950 . S
C1222 C1220 1.391 1_545 S
C1222 C1223 1.400 . S
C1223 C1222 1.400 . S
C1223 C1224 1.398 1_545 S
C1223 C1229 1.491 . S
C1224 H1215 0.958 . S
C1224 C1223 1.398 1_565 S
C1224 C1225 1.391 . S
C1225 H1213 0.950 . S
C1225 C1221 1.393 . S
C1225 C1224 1.391 . S
C1226 H1216 0.950 . S
C1226 C1227 1.386 . S
C1226 C1228 1.391 . S
C1227 C1226 1.386 . S
C1227 C1231 1.393 . S
C1228 H1217 0.950 . S
C1228 C1226 1.391 . S
C1228 C1229 1.400 . S
C1229 C1223 1.491 . S
C1229 C1228 1.400 . S
C1229 C1230 1.398 . S
C1230 H1218 0.950 . S
C1230 C1229 1.398 . S
C1230 C1231 1.391 . S
C1231 H1219 0.950 . S
C1231 C1227 1.393 . S
C1231 C1230 1.391 . S
H1232 C1240 0.950 . S
H1233 C1245 0.950 . S
H1234 C1242 0.958 . S
H1235 C1244 0.950 . S
H1236 C1246 0.950 . S
H1237 C1248 0.950 . S
H1238 C1250 0.950 . S
H1239 C1251 0.950 . S
C1240 H1232 0.950 . S
C1240 C1241 1.386 . S
C1240 C1242 1.391 . S
C1241 C1240 1.386 . S
C1241 C1245 1.393 . S
C1242 H1234 0.958 . S
C1242 C1240 1.391 . S
C1242 C1243 1.400 1_545 S
C1243 C1242 1.400 1_565 S
C1243 C1244 1.398 . S
C1243 C1249 1.491 . S
C1244 H1235 0.950 . S
C1244 C1243 1.398 . S
C1244 C1245 1.391 1_565 S
C1245 H1233 0.950 . S
C1245 C1241 1.393 . S
C1245 C1244 1.391 1_545 S
C1246 H1236 0.950 . S
C1246 C1247 1.386 . S
C1246 C1248 1.391 . S
C1247 C1246 1.386 . S
C1247 C1251 1.393 . S
C1248 H1237 0.950 . S
C1248 C1246 1.391 . S
C1248 C1249 1.400 . S
C1249 C1243 1.491 . S
C1249 C1248 1.400 . S
C1249 C1250 1.398 . S
C1250 H1238 0.950 . S
C1250 C1249 1.398 . S
C1250 C1251 1.391 . S
C1251 H1239 0.950 . S
C1251 C1247 1.393 . S
C1251 C1250 1.391 . S
H1252 C1260 0.950 . S
H1253 C1265 0.950 . S
H1254 C1262 0.950 . S
H1255 C1264 0.950 . S
H1256 C1266 0.950 . S
H1257 C1268 0.950 . S
H1258 C1270 0.950 . S
H1259 C1271 0.950 . S
C1260 H1252 0.950 . S
C1260 C1261 1.386 . S
C1260 C1262 1.391 . S
C1261 C1260 1.386 . S
C1261 C1265 1.393 . S
C1262 H1254 0.950 . S
C1262 C1260 1.391 . S
C1262 C1263 1.400 . S
C1263 C1262 1.400 . S
C1263 C1264 1.398 . S
C1263 C1269 1.491 . S
C1264 H1255 0.950 . S
C1264 C1263 1.398 . S
C1264 C1265 1.391 . S
C1265 H1253 0.950 . S
C1265 C1261 1.393 . S
C1265 C1264 1.391 . S
C1266 H1256 0.950 . S
C1266 C1267 1.386 . S
C1266 C1268 1.391 . S
C1267 C1266 1.386 . S
C1267 C1271 1.393 . S
C1268 H1257 0.950 . S
C1268 C1266 1.391 . S
C1268 C1269 1.400 . S
C1269 C1263 1.491 . S
C1269 C1268 1.400 . S
C1269 C1270 1.398 . S
C1270 H1258 0.950 . S
C1270 C1269 1.398 . S
C1270 C1271 1.391 . S
C1271 H1259 0.950 . S
C1271 C1267 1.393 . S
C1271 C1270 1.391 . S
H1272 C1280 0.950 . S
H1273 C1285 0.950 . S
H1274 C1282 0.950 . S
H1275 C1284 0.950 . S
H1276 C1286 0.950 . S
H1277 C1288 0.950 . S
H1278 C1290 0.950 . S
H1279 C1291 0.950 . S
C1280 H1272 0.950 . S
C1280 C1281 1.386 . S
C1280 C1282 1.391 . S
C1281 C1280 1.386 . S
C1281 C1285 1.393 . S
C1282 H1274 0.950 . S
C1282 C1280 1.391 . S
C1282 C1283 1.400 . S
C1283 C1282 1.400 . S
C1283 C1284 1.398 . S
C1283 C1289 1.491 . S
C1284 H1275 0.950 . S
C1284 C1283 1.398 . S
C1284 C1285 1.391 . S
C1285 H1273 0.950 . S
C1285 C1281 1.393 . S
C1285 C1284 1.391 . S
C1286 H1276 0.950 . S
C1286 C1287 1.386 . S
C1286 C1288 1.391 . S
C1287 C1286 1.386 . S
C1287 C1291 1.393 . S
C1288 H1277 0.950 . S
C1288 C1286 1.391 . S
C1288 C1289 1.400 . S
C1289 C1283 1.491 . S
C1289 C1288 1.400 . S
C1289 C1290 1.398 . S
C1290 H1278 0.950 . S
C1290 C1289 1.398 . S
C1290 C1291 1.391 . S
C1291 H1279 0.950 . S
C1291 C1287 1.393 . S
C1291 C1290 1.391 . S
H1292 C1300 0.950 . S
H1293 C1305 0.950 . S
H1294 C1302 0.950 . S
H1295 C1304 0.944 1_554 S
H1296 C1306 0.950 . S
H1297 C1308 0.950 . S
H1298 C1310 0.950 . S
H1299 C1311 0.950 . S
C1300 H1292 0.950 . S
C1300 C1301 1.386 . S
C1300 C1302 1.391 1_556 S
C1301 C1300 1.386 . S
C1301 C1305 1.393 . S
C1302 H1294 0.950 . S
C1302 C1300 1.391 1_554 S
C1302 C1303 1.400 . S
C1303 C1302 1.400 . S
C1303 C1304 1.374 1_554 S
C1303 C1309 1.491 . S
C1304 H1295 0.944 1_556 S
C1304 C1303 1.374 1_556 S
C1304 C1305 1.422 . S
C1305 H1293 0.950 . S
C1305 C1301 1.393 . S
C1305 C1304 1.422 . S
C1306 H1296 0.950 . S
C1306 C1307 1.386 . S
C1306 C1308 1.391 . S
C1307 C1306 1.386 . S
C1307 C1311 1.393 . S
C1308 H1297 0.950 . S
C1308 C1306 1.391 . S
C1308 C1309 1.400 . S
C1309 C1303 1.491 . S
C1309 C1308 1.400 . S
C1309 C1310 1.398 . S
C1310 H1298 0.950 . S
C1310 C1309 1.398 . S
C1310 C1311 1.391 . S
C1311 H1299 0.950 . S
C1311 C1307 1.393 . S
C1311 C1310 1.391 . S
H1312 C1320 0.950 . S
H1313 C1325 0.950 . S
H1314 C1322 0.950 . S
H1315 C1324 0.950 . S
H1316 C1326 0.950 . S
H1317 C1328 0.950 . S
H1318 C1330 0.950 . S
H1319 C1331 0.950 . S
C1320 H1312 0.950 . S
C1320 C1321 1.386 . S
C1320 C1322 1.391 . S
C1321 C1320 1.386 . S
C1321 C1325 1.393 . S
C1322 H1314 0.950 . S
C1322 C1320 1.391 . S
C1322 C1323 1.400 . S
C1323 C1322 1.400 . S
C1323 C1324 1.398 . S
C1323 C1329 1.491 . S
C1324 H1315 0.950 . S
C1324 C1323 1.398 . S
C1324 C1325 1.391 . S
C1325 H1313 0.950 . S
C1325 C1321 1.393 . S
C1325 C1324 1.391 . S
C1326 H1316 0.950 . S
C1326 C1327 1.386 . S
C1326 C1328 1.391 . S
C1327 C1326 1.386 . S
C1327 C1331 1.393 . S
C1328 H1317 0.950 . S
C1328 C1326 1.391 . S
C1328 C1329 1.400 . S
C1329 C1323 1.491 . S
C1329 C1328 1.400 . S
C1329 C1330 1.398 . S
C1330 H1318 0.950 . S
C1330 C1329 1.398 . S
C1330 C1331 1.391 . S
C1331 H1319 0.950 . S
C1331 C1327 1.393 . S
C1331 C1330 1.391 . S
H1332 C1340 0.950 . S
H1333 C1345 0.950 . S
H1334 C1342 0.950 . S
H1335 C1344 0.950 . S
H1336 C1346 0.950 . S
H1337 C1348 0.950 . S
H1338 C1350 0.950 . S
H1339 C1351 0.950 . S
C1340 H1332 0.950 . S
C1340 C1341 1.386 . S
C1340 C1342 1.391 1_554 S
C1341 C1340 1.386 . S
C1341 C1345 1.393 . S
C1342 H1334 0.950 . S
C1342 C1340 1.391 1_556 S
C1342 C1343 1.400 . S
C1343 C1342 1.400 . S
C1343 C1344 1.398 . S
C1343 C1349 1.491 . S
C1344 H1335 0.950 . S
C1344 C1343 1.398 . S
C1344 C1345 1.391 1_556 S
C1345 H1333 0.950 . S
C1345 C1341 1.393 . S
C1345 C1344 1.391 1_554 S
C1346 H1336 0.950 . S
C1346 C1347 1.386 . S
C1346 C1348 1.391 . S
C1347 C1346 1.386 . S
C1347 C1351 1.393 . S
C1348 H1337 0.950 . S
C1348 C1346 1.391 . S
C1348 C1349 1.400 . S
C1349 C1343 1.491 . S
C1349 C1348 1.400 . S
C1349 C1350 1.398 . S
C1350 H1338 0.950 . S
C1350 C1349 1.398 . S
C1350 C1351 1.391 . S
C1351 H1339 0.950 . S
C1351 C1347 1.393 . S
C1351 C1350 1.391 . S
H1352 C1360 0.950 . S
H1353 C1365 0.950 . S
H1354 C1362 0.950 . S
H1355 C1364 0.950 . S
H1356 C1366 0.950 . S
H1357 C1368 0.950 . S
H1358 C1370 0.950 . S
H1359 C1371 0.950 . S
C1360 H1352 0.950 . S
C1360 C1361 1.386 . S
C1360 C1362 1.391 . S
C1361 C1360 1.386 . S
C1361 C1365 1.393 . S
C1362 H1354 0.950 . S
C1362 C1360 1.391 . S
C1362 C1363 1.400 . S
C1363 C1362 1.400 . S
C1363 C1364 1.398 . S
C1363 C1369 1.491 . S
C1364 H1355 0.950 . S
C1364 C1363 1.398 . S
C1364 C1365 1.391 . S
C1365 H1353 0.950 . S
C1365 C1361 1.393 . S
C1365 C1364 1.391 . S
C1366 H1356 0.950 . S
C1366 C1367 1.386 . S
C1366 C1368 1.391 . S
C1367 C1366 1.386 . S
C1367 C1371 1.393 . S
C1368 H1357 0.950 . S
C1368 C1366 1.391 . S
C1368 C1369 1.400 . S
C1369 C1363 1.491 . S
C1369 C1368 1.400 . S
C1369 C1370 1.398 . S
C1370 H1358 0.950 . S
C1370 C1369 1.398 . S
C1370 C1371 1.391 . S
C1371 H1359 0.950 . S
C1371 C1367 1.393 . S
C1371 C1370 1.391 . S
H1372 C1380 0.950 . S
H1373 C1385 0.950 . S
H1374 C1382 0.950 . S
H1375 C1384 0.950 . S
H1376 C1386 0.950 . S
H1377 C1388 0.954 . S
H1378 C1390 0.955 . S
H1379 C1391 0.950 . S
C1380 H1372 0.950 . S
C1380 C1381 1.386 . S
C1380 C1382 1.391 . S
C1381 C1380 1.386 . S
C1381 C1385 1.393 . S
C1382 H1374 0.950 . S
C1382 C1380 1.391 . S
C1382 C1383 1.400 . S
C1383 C1382 1.400 . S
C1383 C1384 1.398 . S
C1383 C1389 1.491 . S
C1384 H1375 0.950 . S
C1384 C1383 1.398 . S
C1384 C1385 1.391 . S
C1385 H1373 0.950 . S
C1385 C1381 1.393 . S
C1385 C1384 1.391 . S
C1386 H1376 0.950 . S
C1386 C1387 1.386 . S
C1386 C1388 1.384 1_455 S
C1387 C1386 1.386 . S
C1387 C1391 1.393 . S
C1388 H1377 0.954 . S
C1388 C1386 1.384 1_655 S
C1388 C1389 1.403 . S
C1389 C1383 1.491 . S
C1389 C1388 1.403 . S
C1389 C1390 1.398 1_655 S
C1390 H1378 0.955 . S
C1390 C1389 1.398 1_455 S
C1390 C1391 1.391 . S
C1391 H1379 0.950 . S
C1391 C1387 1.393 . S
C1391 C1390 1.391 . S
H1392 C1400 0.950 . S
H1393 C1405 0.950 . S
H1394 C1402 0.950 . S
H1395 C1404 0.950 . S
H1396 C1406 0.950 . S
H1397 C1408 0.950 . S
H1398 C1410 0.950 . S
H1399 C1411 0.950 . S
C1400 H1392 0.950 . S
C1400 C1401 1.386 . S
C1400 C1402 1.391 . S
C1401 C1400 1.386 . S
C1401 C1405 1.393 . S
C1402 H1394 0.950 . S
C1402 C1400 1.391 . S
C1402 C1403 1.400 . S
C1403 C1402 1.400 . S
C1403 C1404 1.398 . S
C1403 C1409 1.491 . S
C1404 H1395 0.950 . S
C1404 C1403 1.398 . S
C1404 C1405 1.391 . S
C1405 H1393 0.950 . S
C1405 C1401 1.393 . S
C1405 C1404 1.391 . S
C1406 H1396 0.950 . S
C1406 C1407 1.386 . S
C1406 C1408 1.391 1_655 S
C1407 C1406 1.386 . S
C1407 C1411 1.393 . S
C1408 H1397 0.950 . S
C1408 C1406 1.391 1_455 S
C1408 C1409 1.400 . S
C1409 C1403 1.491 . S
C1409 C1408 1.400 . S
C1409 C1410 1.398 1_455 S
C1410 H1398 0.950 . S
C1410 C1409 1.398 1_655 S
C1410 C1411 1.391 . S
C1411 H1399 0.950 . S
C1411 C1407 1.393 . S
C1411 C1410 1.391 . S
H1412 C1420 0.950 . S
H1413 C1425 0.950 . S
H1414 C1422 0.950 . S
H1415 C1424 0.950 . S
H1416 C1426 0.950 . S
H1417 C1428 0.950 . S
H1418 C1430 0.950 . S
H1419 C1431 0.950 . S
C1420 H1412 0.950 . S
C1420 C1421 1.386 . S
C1420 C1422 1.391 . S
C1421 C1420 1.386 . S
C1421 C1425 1.393 . S
C1422 H1414 0.950 . S
C1422 C1420 1.391 . S
C1422 C1423 1.400 . S
C1423 C1422 1.400 . S
C1423 C1424 1.398 . S
C1423 C1429 1.491 . S
C1424 H1415 0.950 . S
C1424 C1423 1.398 . S
C1424 C1425 1.391 . S
C1425 H1413 0.950 . S
C1425 C1421 1.393 . S
C1425 C1424 1.391 . S
C1426 H1416 0.950 . S
C1426 C1427 1.386 . S
C1426 C1428 1.391 . S
C1427 C1426 1.386 . S
C1427 C1431 1.393 . S
C1428 H1417 0.950 . S
C1428 C1426 1.391 . S
C1428 C1429 1.400 . S
C1429 C1423 1.491 . S
C1429 C1428 1.400 . S
C1429 C1430 1.398 . S
C1430 H1418 0.950 . S
C1430 C1429 1.398 . S
C1430 C1431 1.391 . S
C1431 H1419 0.950 . S
C1431 C1427 1.393 . S
C1431 C1430 1.391 . S
H1432 C1440 0.950 . S
H1433 C1445 0.950 . S
H1434 C1442 0.950 . S
H1435 C1444 0.950 . S
H1436 C1446 0.950 . S
H1437 C1448 0.950 . S
H1438 C1450 0.950 . S
H1439 C1451 0.950 . S
C1440 H1432 0.950 . S
C1440 C1441 1.386 . S
C1440 C1442 1.391 . S
C1441 C1440 1.386 . S
C1441 C1445 1.393 . S
C1442 H1434 0.950 . S
C1442 C1440 1.391 . S
C1442 C1443 1.400 . S
C1443 C1442 1.400 . S
C1443 C1444 1.398 . S
C1443 C1449 1.491 . S
C1444 H1435 0.950 . S
C1444 C1443 1.398 . S
C1444 C1445 1.391 . S
C1445 H1433 0.950 . S
C1445 C1441 1.393 . S
C1445 C1444 1.391 . S
C1446 H1436 0.950 . S
C1446 C1447 1.386 . S
C1446 C1448 1.391 . S
C1447 C1446 1.386 . S
C1447 C1451 1.393 . S
C1448 H1437 0.950 . S
C1448 C1446 1.391 . S
C1448 C1449 1.400 . S
C1449 C1443 1.491 . S
C1449 C1448 1.400 . S
C1449 C1450 1.398 . S
C1450 H1438 0.950 . S
C1450 C1449 1.398 . S
C1450 C1451 1.391 . S
C1451 H1439 0.950 . S
C1451 C1447 1.393 . S
C1451 C1450 1.391 . S
H1452 C1460 0.950 . S
H1453 C1465 0.950 . S
H1454 C1462 0.950 . S
H1455 C1464 0.950 . S
H1456 C1466 0.950 . S
H1457 C1468 0.950 . S
H1458 C1470 0.950 . S
H1459 C1471 0.950 . S
C1460 H1452 0.950 . S
C1460 C1461 1.386 . S
C1460 C1462 1.391 . S
C1461 C1460 1.386 . S
C1461 C1465 1.393 . S
C1462 H1454 0.950 . S
C1462 C1460 1.391 . S
C1462 C1463 1.400 . S
C1463 C1462 1.400 . S
C1463 C1464 1.398 . S
C1463 C1469 1.491 . S
C1464 H1455 0.950 . S
C1464 C1463 1.398 . S
C1464 C1465 1.391 . S
C1465 H1453 0.950 . S
C1465 C1461 1.393 . S
C1465 C1464 1.391 . S
C1466 H1456 0.950 . S
C1466 C1467 1.386 . S
C1466 C1468 1.391 1_545 S
C1467 C1466 1.386 . S
C1467 C1471 1.393 1_545 S
C1468 H1457 0.950 . S
C1468 C1466 1.391 1_565 S
C1468 C1469 1.400 . S
C1469 C1463 1.491 . S
C1469 C1468 1.400 . S
C1469 C1470 1.398 . S
C1470 H1458 0.950 . S
C1470 C1469 1.398 . S
C1470 C1471 1.391 . S
C1471 H1459 0.950 . S
C1471 C1467 1.393 1_565 S
C1471 C1470 1.391 . S
H1472 C1480 0.950 . S
H1473 C1485 0.950 1_565 S
H1474 C1482 0.950 . S
H1475 C1484 0.950 . S
H1476 C1486 0.950 . S
H1477 C1488 0.950 . S
H1478 C1490 0.950 . S
H1479 C1491 0.950 . S
C1480 H1472 0.950 . S
C1480 C1481 1.386 . S
C1480 C1482 1.391 1_565 S
C1481 C1480 1.386 . S
C1481 C1485 1.393 1_565 S
C1482 H1474 0.950 . S
C1482 C1480 1.391 1_545 S
C1482 C1483 1.400 . S
C1483 C1482 1.400 . S
C1483 C1484 1.398 . S
C1483 C1489 1.491 . S
C1484 H1475 0.950 . S
C1484 C1483 1.398 . S
C1484 C1485 1.391 . S
C1485 H1473 0.950 1_545 S
C1485 C1481 1.393 1_545 S
C1485 C1484 1.391 . S
C1486 H1476 0.950 . S
C1486 C1487 1.386 . S
C1486 C1488 1.391 . S
C1487 C1486 1.386 . S
C1487 C1491 1.393 . S
C1488 H1477 0.950 . S
C1488 C1486 1.391 . S
C1488 C1489 1.400 . S
C1489 C1483 1.491 . S
C1489 C1488 1.400 . S
C1489 C1490 1.398 . S
C1490 H1478 0.950 . S
C1490 C1489 1.398 . S
C1490 C1491 1.391 . S
C1491 H1479 0.950 . S
C1491 C1487 1.393 . S
C1491 C1490 1.391 . S
H1492 C1500 0.950 . S
H1493 C1505 0.950 . S
H1494 C1502 0.950 . S
H1495 C1504 0.950 . S
H1496 C1506 0.950 . S
H1497 C1508 0.950 . S
H1498 C1510 0.950 . S
H1499 C1511 0.950 . S
C1500 H1492 0.950 . S
C1500 C1501 1.386 . S
C1500 C1502 1.391 . S
C1501 C1500 1.386 . S
C1501 C1505 1.393 . S
C1502 H1494 0.950 . S
C1502 C1500 1.391 . S
C1502 C1503 1.400 . S
C1503 C1502 1.400 . S
C1503 C1504 1.398 . S
C1503 C1509 1.491 . S
C1504 H1495 0.950 . S
C1504 C1503 1.398 . S
C1504 C1505 1.391 . S
C1505 H1493 0.950 . S
C1505 C1501 1.393 . S
C1505 C1504 1.391 . S
C1506 H1496 0.950 . S
C1506 C1507 1.386 . S
C1506 C1508 1.391 . S
C1507 C1506 1.386 . S
C1507 C1511 1.393 . S
C1508 H1497 0.950 . S
C1508 C1506 1.391 . S
C1508 C1509 1.400 . S
C1509 C1503 1.491 . S
C1509 C1508 1.400 . S
C1509 C1510 1.398 . S
C1510 H1498 0.950 . S
C1510 C1509 1.398 . S
C1510 C1511 1.391 . S
C1511 H1499 0.950 . S
C1511 C1507 1.393 . S
C1511 C1510 1.391 . S
C561 C191 1.802 . S
C567 N12 1.786 . S
C581 N35 1.778 . S
C587 C260 1.797 . S
C601 N58 1.790 . S
C607 C214 1.796 . S
C621 N81 1.788 . S
C627 C237 1.793 . S
C641 C99 1.812 . S
C647 C7 1.829 . S
C661 C30 1.821 . S
C667 C122 1.803 . S
C681 C145 1.804 . S
C687 C53 1.825 . S
C701 C76 1.819 . S
C707 C168 1.799 . S
C721 N104 1.616 . S
C727 N196 1.585 . S
C741 N150 1.622 . S
C747 N219 1.572 . S
C761 N242 1.592 . S
C767 N173 1.623 . S
C781 N127 1.613 . S
C787 N265 1.575 . S
C801 C467 1.728 . S
C807 N288 1.734 . S
C821 N311 1.750 . S
C827 C536 1.750 . S
C841 N334 1.749 . S
C847 C490 1.738 . S
C861 C513 1.728 . S
C867 N357 1.734 . S
C881 N380 1.690 . S
C887 C283 1.681 . S
C901 C306 1.697 . S
C907 N403 1.695 . S
C921 C329 1.687 . S
C927 N426 1.682 . S
C941 N449 1.686 . S
C947 C352 1.678 . S
C961 N472 1.648 . S
C967 C375 1.647 . S
C981 C421 1.661 . S
C987 N495 1.666 . S
C1001 C444 1.647 . S
C1007 N518 1.645 . S
C1021 N541 1.645 . S
C1027 C398 1.648 . S
C1041 C522 1.927 . S
C1047 N2 1.763 . S
C1061 C499 1.932 . S
C1067 N25 1.729 . S
C1081 C545 1.925 . S
C1087 N48 1.759 . S
C1101 N71 1.763 . S
C1107 C476 1.928 . S
C1121 C108 1.732 . S
C1127 C315 1.808 . S
C1141 C292 1.805 . S
C1147 C131 1.711 . S
C1161 C361 1.804 . S
C1167 C154 1.711 . S
C1181 C338 1.810 . S
C1187 C177 1.718 . S
C1201 N186 1.730 . S
C1207 C430 1.893 . S
C1221 C384 1.899 . S
C1227 N209 1.707 . S
C1241 C407 1.883 . S
C1247 N232 1.719 . S
C1261 C453 1.885 . S
C1267 N255 1.726 . S
C1281 C246 1.922 . S
C1287 N278 1.731 . S
C1301 C223 1.907 . S
C1307 N301 1.730 . S
C1321 N324 1.750 . S
C1327 C269 1.911 . S
C1341 C200 1.920 . S
C1347 N347 1.718 . S
C1361 N370 1.726 . S
C1367 C39 1.913 . S
C1381 N393 1.746 . S
C1387 C16 1.911 . S
C1401 N416 1.723 . S
C1407 C85 1.912 . S
C1421 N439 1.741 . S
C1427 C62 1.896 . S
C1441 N462 1.734 . S
C1447 N140 1.844 . S
C1461 N485 1.754 . S
C1467 N94 1.829 . S
C1481 N117 1.849 . S
C1487 N508 1.735 . S
C1501 N531 1.757 . S
C1507 N163 1.829 . S
