# Generated by pormake.
# Topology vbv, (6)-cn, num edge types: 1
# Building blocks:
#     Node 0, Type 0, BuildingBlock: OJICUG_clean_sbu_0, # of connection points: 6
#     Node 1, Type 0, BuildingBlock: OJICUG_clean_sbu_0, # of connection points: 6
#     Node 2, Type 0, BuildingBlock: OJICUG_clean_sbu_0, # of connection points: 6
#     Node 3, Type 0, BuildingBlock: OJICUG_clean_sbu_0, # of connection points: 6
#     Node 4, Type 0, BuildingBlock: OJICUG_clean_sbu_0, # of connection points: 6
#     Node 5, Type 0, BuildingBlock: OJICUG_clean_sbu_0, # of connection points: 6
#     Node 6, Type 0, BuildingBlock: OJICUG_clean_sbu_0, # of connection points: 6
#     Node 7, Type 0, BuildingBlock: OJICUG_clean_sbu_0, # of connection points: 6
#     Node 8, Type 0, BuildingBlock: OJICUG_clean_sbu_0, # of connection points: 6
#     Node 9, Type 0, BuildingBlock: OJICUG_clean_sbu_0, # of connection points: 6
#     Node 10, Type 0, BuildingBlock: OJICUG_clean_sbu_0, # of connection points: 6
#     Node 11, Type 0, BuildingBlock: OJICUG_clean_sbu_0, # of connection points: 6
#     Node 12, Type 0, BuildingBlock: OJICUG_clean_sbu_0, # of connection points: 6
#     Node 13, Type 0, BuildingBlock: OJICUG_clean_sbu_0, # of connection points: 6
#     Node 14, Type 0, BuildingBlock: OJICUG_clean_sbu_0, # of connection points: 6
#     Node 15, Type 0, BuildingBlock: OJICUG_clean_sbu_0, # of connection points: 6
#     Edge 16, Type (0, 0), BuildingBlock: XUDNAN_clean_linker_2, # of connection points: 2
#     Edge 17, Type (0, 0), BuildingBlock: XUDNAN_clean_linker_2, # of connection points: 2
#     Edge 18, Type (0, 0), BuildingBlock: XUDNAN_clean_linker_2, # of connection points: 2
#     Edge 19, Type (0, 0), BuildingBlock: XUDNAN_clean_linker_2, # of connection points: 2
#     Edge 20, Type (0, 0), BuildingBlock: XUDNAN_clean_linker_2, # of connection points: 2
#     Edge 21, Type (0, 0), BuildingBlock: XUDNAN_clean_linker_2, # of connection points: 2
#     Edge 22, Type (0, 0), BuildingBlock: XUDNAN_clean_linker_2, # of connection points: 2
#     Edge 23, Type (0, 0), BuildingBlock: XUDNAN_clean_linker_2, # of connection points: 2
#     Edge 24, Type (0, 0), BuildingBlock: XUDNAN_clean_linker_2, # of connection points: 2
#     Edge 25, Type (0, 0), BuildingBlock: XUDNAN_clean_linker_2, # of connection points: 2
#     Edge 26, Type (0, 0), BuildingBlock: XUDNAN_clean_linker_2, # of connection points: 2
#     Edge 27, Type (0, 0), BuildingBlock: XUDNAN_clean_linker_2, # of connection points: 2
#     Edge 28, Type (0, 0), BuildingBlock: XUDNAN_clean_linker_2, # of connection points: 2
#     Edge 29, Type (0, 0), BuildingBlock: XUDNAN_clean_linker_2, # of connection points: 2
#     Edge 30, Type (0, 0), BuildingBlock: XUDNAN_clean_linker_2, # of connection points: 2
#     Edge 31, Type (0, 0), BuildingBlock: XUDNAN_clean_linker_2, # of connection points: 2
#     Edge 32, Type (0, 0), BuildingBlock: XUDNAN_clean_linker_2, # of connection points: 2
#     Edge 33, Type (0, 0), BuildingBlock: XUDNAN_clean_linker_2, # of connection points: 2
#     Edge 34, Type (0, 0), BuildingBlock: XUDNAN_clean_linker_2, # of connection points: 2
#     Edge 35, Type (0, 0), BuildingBlock: XUDNAN_clean_linker_2, # of connection points: 2
#     Edge 36, Type (0, 0), BuildingBlock: XUDNAN_clean_linker_2, # of connection points: 2
#     Edge 37, Type (0, 0), BuildingBlock: XUDNAN_clean_linker_2, # of connection points: 2
#     Edge 38, Type (0, 0), BuildingBlock: XUDNAN_clean_linker_2, # of connection points: 2
#     Edge 39, Type (0, 0), BuildingBlock: XUDNAN_clean_linker_2, # of connection points: 2
#     Edge 40, Type (0, 0), BuildingBlock: XUDNAN_clean_linker_2, # of connection points: 2
#     Edge 41, Type (0, 0), BuildingBlock: XUDNAN_clean_linker_2, # of connection points: 2
#     Edge 42, Type (0, 0), BuildingBlock: XUDNAN_clean_linker_2, # of connection points: 2
#     Edge 43, Type (0, 0), BuildingBlock: XUDNAN_clean_linker_2, # of connection points: 2
#     Edge 44, Type (0, 0), BuildingBlock: XUDNAN_clean_linker_2, # of connection points: 2
#     Edge 45, Type (0, 0), BuildingBlock: XUDNAN_clean_linker_2, # of connection points: 2
#     Edge 46, Type (0, 0), BuildingBlock: XUDNAN_clean_linker_2, # of connection points: 2
#     Edge 47, Type (0, 0), BuildingBlock: XUDNAN_clean_linker_2, # of connection points: 2
#     Edge 48, Type (0, 0), BuildingBlock: XUDNAN_clean_linker_2, # of connection points: 2
#     Edge 49, Type (0, 0), BuildingBlock: XUDNAN_clean_linker_2, # of connection points: 2
#     Edge 50, Type (0, 0), BuildingBlock: XUDNAN_clean_linker_2, # of connection points: 2
#     Edge 51, Type (0, 0), BuildingBlock: XUDNAN_clean_linker_2, # of connection points: 2
#     Edge 52, Type (0, 0), BuildingBlock: XUDNAN_clean_linker_2, # of connection points: 2
#     Edge 53, Type (0, 0), BuildingBlock: XUDNAN_clean_linker_2, # of connection points: 2
#     Edge 54, Type (0, 0), BuildingBlock: XUDNAN_clean_linker_2, # of connection points: 2
#     Edge 55, Type (0, 0), BuildingBlock: XUDNAN_clean_linker_2, # of connection points: 2
#     Edge 56, Type (0, 0), BuildingBlock: XUDNAN_clean_linker_2, # of connection points: 2
#     Edge 57, Type (0, 0), BuildingBlock: XUDNAN_clean_linker_2, # of connection points: 2
#     Edge 58, Type (0, 0), BuildingBlock: XUDNAN_clean_linker_2, # of connection points: 2
#     Edge 59, Type (0, 0), BuildingBlock: XUDNAN_clean_linker_2, # of connection points: 2
#     Edge 60, Type (0, 0), BuildingBlock: XUDNAN_clean_linker_2, # of connection points: 2
#     Edge 61, Type (0, 0), BuildingBlock: XUDNAN_clean_linker_2, # of connection points: 2
#     Edge 62, Type (0, 0), BuildingBlock: XUDNAN_clean_linker_2, # of connection points: 2
#     Edge 63, Type (0, 0), BuildingBlock: XUDNAN_clean_linker_2, # of connection points: 2
# Relax obj value: 0.217
# Max RMSD: 0.236
# Mean RMSD: 0.236
data_MOF--net-vbv--node1-OJICUG_clean_sbu_0--edge1-XUDNAN_clean_linker_2
_symmetry_space_group_name_H-M    P1
_symmetry_Int_Tables_number       1
_symmetry_cell_setting            triclinic
loop_
_symmetry_equiv_pos_as_xyz
'x, y, z'
_cell_length_a     54.973696
_cell_length_b     28.393732
_cell_length_c     47.131379
_cell_angle_alpha  89.987701
_cell_angle_beta   89.972235
_cell_angle_gamma 89.922615
loop_
_atom_site_label
_atom_site_type_symbol
_atom_site_fract_x
_atom_site_fract_y
_atom_site_fract_z
_atom_type_partial_charge
Sc0 Sc 0.12101 0.39697 0.11004 0.0
Sc1 Sc 0.16484 0.31262 0.09475 0.0
Sc2 Sc 0.12312 0.34486 0.04421 0.0
O3 O 0.13642 0.35139 0.08342 0.0
C4 C 0.07571 0.35661 0.07994 0.0
C5 C 0.13378 0.30975 0.15047 0.0
C6 C 0.12974 0.24143 0.05991 0.0
C7 C 0.17726 0.41495 0.12024 0.0
C8 C 0.12271 0.4511 0.04976 0.0
C9 C 0.179 0.32287 0.03388 0.0
O10 O 0.08629 0.36205 0.1037 0.0
O11 O 0.14656 0.28839 0.13204 0.0
O12 O 0.11466 0.27354 0.05315 0.0
O13 O 0.15572 0.43118 0.11721 0.0
O14 O 0.13178 0.41669 0.03608 0.0
O15 O 0.18416 0.33669 0.05855 0.0
O16 O 0.11444 0.44697 0.07512 0.0
O17 O 0.18238 0.37138 0.11667 0.0
O18 O 0.15703 0.3202 0.02573 0.0
O19 O 0.12593 0.35169 0.14705 0.0
O20 O 0.08664 0.36502 0.05672 0.0
O21 O 0.15018 0.25047 0.07195 0.0
Sc22 Sc 0.38765 0.68487 0.04889 0.0
Sc23 Sc 0.34841 0.71541 0.10309 0.0
Sc24 Sc 0.38141 0.61175 0.10706 0.0
O25 O 0.37195 0.67015 0.08615 0.0
C26 C 0.37806 0.57873 0.04179 0.0
C27 C 0.33371 0.72459 0.0412 0.0
C28 C 0.32527 0.61315 0.11749 0.0
C29 C 0.38779 0.78384 0.0732 0.0
C30 C 0.43091 0.65212 0.08552 0.0
C31 C 0.37661 0.68735 0.15737 0.0
O32 O 0.37468 0.61996 0.03204 0.0
O33 O 0.32691 0.71267 0.06586 0.0
O34 O 0.34375 0.58925 0.10948 0.0
O35 O 0.40101 0.7496 0.06536 0.0
O36 O 0.41855 0.63708 0.10647 0.0
O37 O 0.36914 0.72045 0.14145 0.0
O38 O 0.42188 0.65273 0.06071 0.0
O39 O 0.36727 0.77741 0.08545 0.0
O40 O 0.37863 0.64495 0.14865 0.0
O41 O 0.3556 0.72094 0.03267 0.0
O42 O 0.38481 0.57123 0.06743 0.0
O43 O 0.32599 0.65808 0.12019 0.0
Sc44 Sc 0.62683 0.60633 0.39094 0.0
Sc45 Sc 0.66956 0.69888 0.3914 0.0
Sc46 Sc 0.63447 0.67656 0.45196 0.0
O47 O 0.64351 0.66069 0.41137 0.0
C48 C 0.5828 0.6592 0.42212 0.0
C49 C 0.63225 0.68401 0.34141 0.0
C50 C 0.64251 0.77911 0.42747 0.0
C51 C 0.68297 0.59247 0.37386 0.0
C52 C 0.63163 0.56546 0.45435 0.0
C53 C 0.69202 0.68478 0.45239 0.0
O54 O 0.59084 0.63519 0.40116 0.0
O55 O 0.64771 0.7089 0.35454 0.0
O56 O 0.63277 0.75001 0.4443 0.0
O57 O 0.66202 0.57512 0.37942 0.0
O58 O 0.63542 0.60558 0.46498 0.0
O59 O 0.6937 0.69139 0.42595 0.0
O60 O 0.6268 0.55956 0.42812 0.0
O61 O 0.68723 0.6365 0.37486 0.0
O62 O 0.67192 0.6813 0.46556 0.0
O63 O 0.62442 0.64487 0.35103 0.0
O64 O 0.59627 0.67343 0.44233 0.0
O65 O 0.6564 0.7664 0.40721 0.0
Sc66 Sc 0.89074 0.39551 0.3869 0.0
Sc67 Sc 0.84731 0.31044 0.39561 0.0
Sc68 Sc 0.88049 0.34824 0.4538 0.0
O69 O 0.8729 0.35105 0.41241 0.0
C70 C 0.93106 0.34239 0.42174 0.0
C71 C 0.88377 0.30607 0.34697 0.0
C72 C 0.8702 0.24164 0.44281 0.0
C73 C 0.83665 0.41007 0.36897 0.0
C74 C 0.88874 0.45467 0.44463 0.0
C75 C 0.82275 0.34511 0.4515 0.0
O76 O 0.92376 0.35596 0.39724 0.0
O77 O 0.87274 0.28241 0.36579 0.0
O78 O 0.88345 0.27288 0.45426 0.0
O79 O 0.85576 0.43082 0.37827 0.0
O80 O 0.87732 0.42292 0.45789 0.0
O81 O 0.82148 0.33752 0.42499 0.0
O82 O 0.89819 0.44736 0.42031 0.0
O83 O 0.83599 0.36537 0.36635 0.0
O84 O 0.84257 0.34423 0.46551 0.0
O85 O 0.88683 0.35048 0.34925 0.0
O86 O 0.91914 0.35148 0.44443 0.0
O87 O 0.85518 0.25105 0.42303 0.0
Sc88 Sc 0.89068 0.59837 0.89327 0.0
Sc89 Sc 0.84759 0.69015 0.89593 0.0
Sc90 Sc 0.88154 0.662 0.95658 0.0
O91 O 0.8734 0.65041 0.91517 0.0
C92 C 0.88401 0.55105 0.95478 0.0
C93 C 0.83472 0.5848 0.87572 0.0
C94 C 0.82431 0.67114 0.95617 0.0
C95 C 0.8848 0.67899 0.84537 0.0
C96 C 0.9337 0.64919 0.92705 0.0
C97 C 0.87422 0.76681 0.93506 0.0
O98 O 0.89022 0.54804 0.92878 0.0
O99 O 0.83007 0.62866 0.87783 0.0
O100 O 0.84408 0.66573 0.96964 0.0
O101 O 0.89306 0.63968 0.85429 0.0
O102 O 0.91983 0.65971 0.94773 0.0
O103 O 0.86108 0.75606 0.91372 0.0
O104 O 0.92619 0.62785 0.90483 0.0
O105 O 0.86929 0.70283 0.85916 0.0
O106 O 0.88325 0.73618 0.95151 0.0
O107 O 0.85584 0.56768 0.8807 0.0
O108 O 0.87979 0.58982 0.96688 0.0
O109 O 0.82317 0.68059 0.93001 0.0
Sc110 Sc 0.62612 0.39529 0.88725 0.0
Sc111 Sc 0.66261 0.2953 0.89315 0.0
Sc112 Sc 0.6215 0.32184 0.94697 0.0
O113 O 0.63666 0.33757 0.90914 0.0
C114 C 0.6263 0.43209 0.95185 0.0
C115 C 0.68281 0.39741 0.87546 0.0
C116 C 0.67774 0.29922 0.95635 0.0
C117 C 0.63186 0.31516 0.83894 0.0
C118 C 0.57599 0.35264 0.90981 0.0
C119 C 0.62863 0.21982 0.92554 0.0
O120 O 0.62331 0.43972 0.92535 0.0
O121 O 0.68309 0.35259 0.87456 0.0
O122 O 0.65581 0.30127 0.96484 0.0
O123 O 0.62752 0.35754 0.84671 0.0
O124 O 0.58542 0.339 0.933 0.0
O125 O 0.64709 0.23125 0.91074 0.0
O126 O 0.58836 0.37214 0.89009 0.0
O127 O 0.64232 0.28538 0.85497 0.0
O128 O 0.61429 0.25016 0.93604 0.0
O129 O 0.66374 0.42029 0.88268 0.0
O130 O 0.62772 0.39101 0.96218 0.0
O131 O 0.68393 0.30336 0.93052 0.0
Sc132 Sc 0.37973 0.32561 0.54782 0.0
Sc133 Sc 0.35315 0.29236 0.61167 0.0
Sc134 Sc 0.38722 0.3946 0.60763 0.0
O135 O 0.37338 0.3371 0.58893 0.0
C136 C 0.43129 0.35218 0.57449 0.0
C137 C 0.38313 0.22235 0.57111 0.0
C138 C 0.38883 0.31947 0.65837 0.0
C139 C 0.32373 0.29961 0.5551 0.0
C140 C 0.3763 0.43404 0.54551 0.0
C141 C 0.3331 0.39499 0.62771 0.0
O142 O 0.41763 0.34556 0.55291 0.0
O143 O 0.36782 0.22913 0.59108 0.0
O144 O 0.38912 0.36183 0.64943 0.0
O145 O 0.34243 0.3047 0.53941 0.0
O146 O 0.38723 0.43824 0.5692 0.0
O147 O 0.33506 0.35099 0.63339 0.0
O148 O 0.36874 0.39471 0.53666 0.0
O149 O 0.32465 0.29675 0.58186 0.0
O150 O 0.35037 0.41823 0.61611 0.0
O151 O 0.39089 0.25516 0.55534 0.0
O152 O 0.42326 0.3674 0.59824 0.0
O153 O 0.38066 0.28607 0.64335 0.0
Sc154 Sc 0.12517 0.6025 0.6089 0.0
Sc155 Sc 0.17045 0.68575 0.59543 0.0
Sc156 Sc 0.12724 0.66139 0.54282 0.0
O157 O 0.14097 0.64976 0.58221 0.0
C158 C 0.11806 0.5519 0.54863 0.0
C159 C 0.18111 0.58096 0.6186 0.0
C160 C 0.18438 0.65727 0.53261 0.0
C161 C 0.13919 0.68647 0.65106 0.0
C162 C 0.08065 0.66201 0.58396 0.0
C163 C 0.14407 0.76503 0.55776 0.0
O164 O 0.11656 0.55212 0.57556 0.0
O165 O 0.18655 0.62421 0.61525 0.0
O166 O 0.16273 0.65695 0.52298 0.0
O167 O 0.13074 0.64545 0.64656 0.0
O168 O 0.09081 0.66905 0.55996 0.0
O169 O 0.15956 0.75204 0.57623 0.0
O170 O 0.09074 0.63865 0.60391 0.0
O171 O 0.15244 0.70814 0.63332 0.0
O172 O 0.13022 0.73624 0.54517 0.0
O173 O 0.15945 0.56557 0.61543 0.0
O174 O 0.12304 0.58816 0.5342 0.0
O175 O 0.18972 0.66598 0.55826 0.0
Sc176 Sc 0.62657 0.89523 0.10506 0.0
Sc177 Sc 0.66122 0.79423 0.10057 0.0
Sc178 Sc 0.62251 0.82195 0.04537 0.0
O179 O 0.63679 0.8375 0.08342 0.0
C180 C 0.57701 0.85154 0.08231 0.0
C181 C 0.62868 0.81448 0.15229 0.0
C182 C 0.62773 0.72039 0.06654 0.0
C183 C 0.68246 0.89492 0.11815 0.0
C184 C 0.62821 0.93139 0.04027 0.0
C185 C 0.67896 0.79642 0.03906 0.0
O186 O 0.58923 0.87045 0.10233 0.0
O187 O 0.63789 0.78378 0.13595 0.0
O188 O 0.61338 0.75132 0.05676 0.0
O189 O 0.66441 0.91898 0.10903 0.0
O190 O 0.63079 0.89036 0.03015 0.0
O191 O 0.68421 0.8038 0.06492 0.0
O192 O 0.62363 0.93887 0.06651 0.0
O193 O 0.6809 0.85051 0.12171 0.0
O194 O 0.65727 0.79767 0.02948 0.0
O195 O 0.62793 0.85834 0.14611 0.0
O196 O 0.58626 0.84238 0.05815 0.0
O197 O 0.64646 0.73115 0.081 0.0
Sc198 Sc 0.87854 0.16941 0.04744 0.0
Sc199 Sc 0.84641 0.18612 0.10933 0.0
Sc200 Sc 0.89032 0.09877 0.10537 0.0
O201 O 0.87158 0.15134 0.08754 0.0
C202 C 0.8812 0.06289 0.04129 0.0
C203 C 0.82145 0.1808 0.05119 0.0
C204 C 0.8362 0.07777 0.12389 0.0
C205 C 0.87286 0.26784 0.07252 0.0
C206 C 0.92965 0.15673 0.07356 0.0
C207 C 0.88426 0.17164 0.15713 0.0
O208 O 0.87032 0.10036 0.0341 0.0
O209 O 0.82061 0.1724 0.07746 0.0
O210 O 0.8563 0.06212 0.11384 0.0
O211 O 0.88693 0.23942 0.05979 0.0
O212 O 0.92349 0.13902 0.09736 0.0
O213 O 0.87118 0.20029 0.14315 0.0
O214 O 0.91642 0.15097 0.05175 0.0
O215 O 0.85609 0.25373 0.0894 0.0
O216 O 0.88982 0.13084 0.14766 0.0
O217 O 0.84123 0.18897 0.03806 0.0
O218 O 0.89273 0.0593 0.06487 0.0
O219 O 0.83262 0.12156 0.12882 0.0
Sc220 Sc 0.12454 0.1039 0.39159 0.0
Sc221 Sc 0.15682 0.2084 0.39566 0.0
Sc222 Sc 0.1212 0.17188 0.45181 0.0
O223 O 0.1346 0.16123 0.413 0.0
C224 C 0.07594 0.13834 0.41843 0.0
C225 C 0.12705 0.18174 0.34232 0.0
C226 C 0.11758 0.27256 0.42921 0.0
C227 C 0.18076 0.10813 0.37922 0.0
C228 C 0.1319 0.06625 0.45534 0.0
C229 C 0.175 0.21179 0.45714 0.0
O230 O 0.0869 0.12819 0.39539 0.0
O231 O 0.13466 0.21437 0.35844 0.0
O232 O 0.10597 0.23736 0.43879 0.0
O233 O 0.16256 0.08311 0.38697 0.0
O234 O 0.13627 0.10679 0.46543 0.0
O235 O 0.18028 0.20494 0.43131 0.0
O236 O 0.12306 0.06046 0.43043 0.0
O237 O 0.17937 0.15302 0.37675 0.0
O238 O 0.15353 0.20728 0.46684 0.0
O239 O 0.12545 0.13906 0.35056 0.0
O240 O 0.08709 0.13799 0.44201 0.0
O241 O 0.13739 0.26805 0.41514 0.0
Sc242 Sc 0.38709 0.89053 0.39497 0.0
Sc243 Sc 0.34005 0.81083 0.40499 0.0
Sc244 Sc 0.3807 0.83236 0.45892 0.0
O245 O 0.36916 0.84448 0.41929 0.0
C246 C 0.42896 0.83704 0.42539 0.0
C247 C 0.37297 0.80964 0.35079 0.0
C248 C 0.37031 0.73155 0.43975 0.0
C249 C 0.33168 0.91655 0.38305 0.0
C250 C 0.38534 0.93887 0.45691 0.0
C251 C 0.32388 0.81572 0.46563 0.0
O252 O 0.42025 0.84886 0.40135 0.0
O253 O 0.35911 0.78809 0.36796 0.0
O254 O 0.38641 0.75963 0.44932 0.0
O255 O 0.35349 0.93042 0.38782 0.0
O256 O 0.37444 0.9047 0.46883 0.0
O257 O 0.31968 0.83225 0.44124 0.0
O258 O 0.39451 0.93585 0.43193 0.0
O259 O 0.32555 0.87325 0.38441 0.0
O260 O 0.34546 0.81169 0.47485 0.0
O261 O 0.38179 0.8503 0.35591 0.0
O262 O 0.41797 0.84828 0.44811 0.0
O263 O 0.3517 0.7457 0.42575 0.0
Sc264 Sc 0.38021 0.1129 0.89101 0.0
Sc265 Sc 0.33549 0.19835 0.90316 0.0
Sc266 Sc 0.37711 0.1714 0.95722 0.0
O267 O 0.36423 0.16071 0.91731 0.0
C268 C 0.38579 0.06132 0.95123 0.0
C269 C 0.32421 0.09421 0.87941 0.0
C270 C 0.31975 0.16851 0.96533 0.0
C271 C 0.3685 0.19829 0.84879 0.0
C272 C 0.42454 0.17136 0.91729 0.0
C273 C 0.36148 0.27614 0.94185 0.0
O274 O 0.38693 0.06129 0.92428 0.0
O275 O 0.31891 0.1374 0.88335 0.0
O276 O 0.34109 0.16565 0.97578 0.0
O277 O 0.37678 0.15718 0.8536 0.0
O278 O 0.41382 0.18018 0.94077 0.0
O279 O 0.34701 0.26437 0.92204 0.0
O280 O 0.41491 0.14671 0.89764 0.0
O281 O 0.35434 0.21957 0.8657 0.0
O282 O 0.37383 0.24628 0.95565 0.0
O283 O 0.34574 0.07814 0.88261 0.0
O284 O 0.3817 0.09804 0.96562 0.0
O285 O 0.31533 0.18 0.93984 0.0
Sc286 Sc 0.11979 0.89747 0.8882 0.0
Sc287 Sc 0.158 0.80049 0.89254 0.0
Sc288 Sc 0.13084 0.84813 0.95312 0.0
O289 O 0.13655 0.84811 0.91137 0.0
C290 C 0.12645 0.95386 0.94587 0.0
C291 C 0.17462 0.90353 0.8707 0.0
C292 C 0.18688 0.82187 0.94918 0.0
C293 C 0.12392 0.81636 0.84176 0.0
C294 C 0.07917 0.85073 0.92405 0.0
C295 C 0.1289 0.73901 0.93809 0.0
O296 O 0.11452 0.94701 0.92315 0.0
O297 O 0.1755 0.8583 0.86944 0.0
O298 O 0.1685 0.83599 0.96318 0.0
O299 O 0.12142 0.85929 0.84859 0.0
O300 O 0.09223 0.8604 0.94577 0.0
O301 O 0.14229 0.74138 0.91596 0.0
O302 O 0.08597 0.86177 0.89891 0.0
O303 O 0.13267 0.78651 0.8589 0.0
O304 O 0.12304 0.77472 0.95281 0.0
O305 O 0.15571 0.92619 0.87923 0.0
O306 O 0.13896 0.92147 0.95696 0.0
O307 O 0.18578 0.80839 0.9236 0.0
Sc308 Sc 0.89214 0.83573 0.5505 0.0
Sc309 Sc 0.85178 0.7997 0.60148 0.0
Sc310 Sc 0.88509 0.90114 0.61226 0.0
O311 O 0.87617 0.8461 0.58802 0.0
C312 C 0.93543 0.86447 0.58947 0.0
C313 C 0.88983 0.73352 0.56759 0.0
C314 C 0.88174 0.81508 0.65614 0.0
C315 C 0.83709 0.80513 0.5398 0.0
C316 C 0.88267 0.94341 0.54887 0.0
C317 C 0.82874 0.89821 0.6215 0.0
O318 O 0.92681 0.86308 0.56446 0.0
O319 O 0.86907 0.73999 0.57923 0.0
O320 O 0.88266 0.85954 0.65165 0.0
O321 O 0.85932 0.80563 0.53206 0.0
O322 O 0.88829 0.94837 0.57511 0.0
O323 O 0.83 0.85331 0.62332 0.0
O324 O 0.88055 0.90334 0.5372 0.0
O325 O 0.83053 0.81348 0.56508 0.0
O326 O 0.84724 0.92303 0.61497 0.0
O327 O 0.90417 0.76755 0.56299 0.0
O328 O 0.92254 0.87757 0.6105 0.0
O329 O 0.87343 0.78606 0.63808 0.0
Sc330 Sc 0.62178 0.10779 0.59883 0.0
Sc331 Sc 0.66497 0.19776 0.5967 0.0
Sc332 Sc 0.62663 0.17961 0.54026 0.0
O333 O 0.63827 0.16128 0.57893 0.0
C334 C 0.63151 0.07355 0.53414 0.0
C335 C 0.6779 0.08994 0.61286 0.0
C336 C 0.68184 0.2099 0.53617 0.0
C337 C 0.62993 0.18207 0.64895 0.0
C338 C 0.57886 0.15734 0.56872 0.0
C339 C 0.63001 0.27616 0.56703 0.0
O340 O 0.62082 0.06761 0.55823 0.0
O341 O 0.68288 0.13397 0.61236 0.0
O342 O 0.66006 0.21217 0.52756 0.0
O343 O 0.62199 0.14239 0.6403 0.0
O344 O 0.59142 0.14938 0.54684 0.0
O345 O 0.64933 0.2637 0.58042 0.0
O346 O 0.58681 0.14377 0.59266 0.0
O347 O 0.64439 0.20756 0.63468 0.0
O348 O 0.61542 0.24652 0.55599 0.0
O349 O 0.65664 0.07398 0.60735 0.0
O350 O 0.63872 0.11359 0.52558 0.0
O351 O 0.68728 0.19158 0.55982 0.0
H352 H 0.16174 0.16843 0.04813 0.0
H353 H 0.08527 0.20712 0.04581 0.0
H354 H 0.07642 0.13717 0.01704 0.0
H355 H 0.16707 0.12881 0.97978 0.0
H356 H 0.18596 0.07804 0.98639 0.0
H357 H 0.18692 0.12744 0.01024 0.0
H358 H 0.17624 0.07487 0.05296 0.0
H359 H 0.17621 0.02437 0.02978 0.0
H360 H 0.14992 0.03717 0.05132 0.0
H361 H 0.0766 0.07187 0.98226 0.0
H362 H 0.08447 0.00378 0.95094 0.0
H363 H 0.15982 0.00161 0.97827 0.0
C364 C 0.14303 0.16121 0.04246 0.0
C365 C 0.12425 0.19356 0.0491 0.0
C366 C 0.10003 0.18317 0.04082 0.0
C367 C 0.09477 0.14352 0.02439 0.0
C368 C 0.11381 0.11382 0.01684 0.0
C369 C 0.13732 0.12109 0.0263 0.0
C370 C 0.15434 0.08369 0.01452 0.0
C371 C 0.17476 0.10585 0.99666 0.0
C372 C 0.16479 0.05321 0.03858 0.0
C373 C 0.13685 0.05573 0.99617 0.0
C374 C 0.11361 0.07404 0.99773 0.0
C375 C 0.0946 0.05647 0.98129 0.0
C376 C 0.09928 0.01819 0.96334 0.0
C377 C 0.12267 0.99747 0.96232 0.0
C378 C 0.14171 0.01664 0.97889 0.0
H379 H 0.35557 0.01914 0.98932 0.0
H380 H 0.42644 0.0066 0.94976 0.0
H381 H 0.43641 0.93992 0.98175 0.0
H382 H 0.37264 0.98974 0.0605 0.0
H383 H 0.34592 0.95502 0.06773 0.0
H384 H 0.34447 0.00269 0.04253 0.0
H385 H 0.32882 0.9457 0.00352 0.0
H386 H 0.32946 0.89861 0.02906 0.0
H387 H 0.34571 0.89265 0.99603 0.0
H388 H 0.43913 0.8773 0.01923 0.0
H389 H 0.43165 0.81141 0.05199 0.0
H390 H 0.35766 0.86055 0.065 0.0
C391 C 0.37307 0.00189 0.9873 0.0
C392 C 0.39031 0.01762 0.96718 0.0
C393 C 0.413 0.99451 0.9649 0.0
C394 C 0.41887 0.95711 0.98319 0.0
C395 C 0.40167 0.943 0.00325 0.0
C396 C 0.37896 0.96376 0.00487 0.0
C397 C 0.36316 0.93962 0.0269 0.0
C398 C 0.35614 0.97382 0.05083 0.0
C399 C 0.34046 0.91784 0.01304 0.0
C400 C 0.38053 0.90199 0.03747 0.0
C401 C 0.40281 0.90534 0.02397 0.0
C402 C 0.42171 0.87417 0.02977 0.0
C403 C 0.41731 0.83699 0.04861 0.0
C404 C 0.39404 0.83056 0.06108 0.0
C405 C 0.37573 0.8647 0.05621 0.0
H406 H 0.61011 0.98513 0.53491 0.0
H407 H 0.6609 0.07227 0.48765 0.0
H408 H 0.66582 0.00956 0.45235 0.0
H409 H 0.64167 0.87669 0.52395 0.0
H410 H 0.61441 0.842 0.5204 0.0
H411 H 0.61403 0.89487 0.54143 0.0
H412 H 0.57812 0.92661 0.51125 0.0
H413 H 0.57869 0.87403 0.48985 0.0
H414 H 0.58142 0.931 0.47328 0.0
H415 H 0.66691 0.93649 0.42292 0.0
H416 H 0.66594 0.85544 0.40377 0.0
H417 H 0.6137 0.81679 0.46897 0.0
C418 C 0.62224 0.99097 0.51716 0.0
C419 C 0.63493 0.03386 0.51409 0.0
C420 C 0.65072 0.03997 0.49048 0.0
C421 C 0.65365 0.00459 0.47015 0.0
C422 C 0.64062 0.96313 0.47351 0.0
C423 C 0.62533 0.95596 0.49645 0.0
C424 C 0.61427 0.90724 0.4955 0.0
C425 C 0.62154 0.87851 0.52188 0.0
C426 C 0.58647 0.9099 0.49228 0.0
C427 C 0.62614 0.8881 0.46884 0.0
C428 C 0.6411 0.92099 0.4563 0.0
C429 C 0.65505 0.91043 0.43236 0.0
C430 C 0.65431 0.86438 0.42153 0.0
C431 C 0.63977 0.82961 0.43475 0.0
C432 C 0.62495 0.84241 0.45815 0.0
H433 H 0.89669 0.03696 0.55658 0.0
H434 H 0.85823 0.94359 0.49894 0.0
H435 H 0.85199 0.00888 0.46583 0.0
H436 H 0.85855 0.14 0.54335 0.0
H437 H 0.88347 0.18111 0.54497 0.0
H438 H 0.88477 0.12709 0.56498 0.0
H439 H 0.92569 0.10614 0.54072 0.0
H440 H 0.92439 0.15989 0.52045 0.0
H441 H 0.92735 0.10411 0.50254 0.0
H442 H 0.84996 0.08235 0.43834 0.0
H443 H 0.85112 0.16253 0.41853 0.0
H444 H 0.89106 0.21037 0.49267 0.0
C445 C 0.88682 0.03045 0.53711 0.0
C446 C 0.87814 0.98487 0.5304 0.0
C447 C 0.86535 0.97788 0.50457 0.0
C448 C 0.86162 0.01482 0.48552 0.0
C449 C 0.87075 0.05888 0.49242 0.0
C450 C 0.88298 0.0672 0.51756 0.0
C451 C 0.89087 0.11836 0.51935 0.0
C452 C 0.87868 0.1431 0.54466 0.0
C453 C 0.91873 0.12233 0.52085 0.0
C454 C 0.8812 0.13701 0.4913 0.0
C455 C 0.86966 0.10194 0.4762 0.0
C456 C 0.85894 0.11026 0.44991 0.0
C457 C 0.85972 0.15596 0.43882 0.0
C458 C 0.8712 0.19284 0.45395 0.0
C459 C 0.88231 0.18293 0.48044 0.0
H460 H 0.89691 0.97057 0.04789 0.0
H461 H 0.86481 0.06698 0.98675 0.0
H462 H 0.86281 0.0036 0.95159 0.0
H463 H 0.93309 0.90286 0.99647 0.0
H464 H 0.92759 0.84754 0.01409 0.0
H465 H 0.9282 0.90141 0.03429 0.0
H466 H 0.88509 0.88348 0.05387 0.0
H467 H 0.88445 0.82953 0.03387 0.0
H468 H 0.86057 0.87244 0.02937 0.0
H469 H 0.86133 0.92883 0.92373 0.0
H470 H 0.86032 0.84684 0.90594 0.0
H471 H 0.89421 0.79974 0.98428 0.0
C472 C 0.88974 0.97845 0.02703 0.0
C473 C 0.88103 0.02391 0.0203 0.0
C474 C 0.87155 0.03251 0.9927 0.0
C475 C 0.87041 0.99676 0.97237 0.0
C476 C 0.87891 0.95237 0.97972 0.0
C477 C 0.88843 0.943 0.00632 0.0
C478 C 0.89514 0.89151 0.00909 0.0
C479 C 0.92264 0.88549 0.01375 0.0
C480 C 0.88043 0.86786 0.03296 0.0
C481 C 0.88753 0.87359 0.98012 0.0
C482 C 0.87832 0.90923 0.96341 0.0
C483 C 0.86879 0.90057 0.93645 0.0
C484 C 0.8683 0.85395 0.92649 0.0
C485 C 0.87731 0.81674 0.9435 0.0
C486 C 0.88745 0.82722 0.97043 0.0
H487 H 0.60679 0.1884 0.97418 0.0
H488 H 0.64735 0.14052 0.90055 0.0
H489 H 0.65065 0.06132 0.92195 0.0
H490 H 0.64234 0.12982 0.02428 0.0
H491 H 0.61775 0.11504 0.04796 0.0
H492 H 0.6155 0.1663 0.02561 0.0
H493 H 0.57521 0.13537 0.00416 0.0
H494 H 0.577 0.08442 0.02687 0.0
H495 H 0.57425 0.0771 0.98902 0.0
H496 H 0.65257 0.9903 0.95259 0.0
H497 H 0.65109 0.92904 0.98924 0.0
H498 H 0.61025 0.02287 0.04443 0.0
C499 C 0.61566 0.16087 0.96208 0.0
C500 C 0.62651 0.17047 0.93542 0.0
C501 C 0.63868 0.13384 0.9208 0.0
C502 C 0.64072 0.08884 0.93285 0.0
C503 C 0.63063 0.08116 0.95961 0.0
C504 C 0.61815 0.11595 0.97399 0.0
C505 C 0.61044 0.09928 0.00327 0.0
C506 C 0.62222 0.12941 0.02665 0.0
C507 C 0.58257 0.09902 0.00598 0.0
C508 C 0.62068 0.04967 0.0032 0.0
C509 C 0.63217 0.04013 0.97771 0.0
C510 C 0.64341 0.99718 0.9725 0.0
C511 C 0.64247 0.9626 0.99358 0.0
C512 C 0.6304 0.9709 0.01977 0.0
C513 C 0.61965 0.01543 0.02474 0.0
H514 H 0.35472 0.98042 0.49531 0.0
H515 H 0.42646 0.99235 0.45767 0.0
H516 H 0.4357 0.05911 0.48958 0.0
H517 H 0.34446 0.10445 0.49963 0.0
H518 H 0.32754 0.10121 0.53234 0.0
H519 H 0.32768 0.0519 0.50838 0.0
H520 H 0.343 0.99826 0.54919 0.0
H521 H 0.34344 0.04781 0.57308 0.0
H522 H 0.37061 0.01333 0.56769 0.0
H523 H 0.43697 0.1247 0.52447 0.0
H524 H 0.4277 0.19487 0.55327 0.0
H525 H 0.35435 0.14376 0.56703 0.0
C526 C 0.3724 0.99707 0.49393 0.0
C527 C 0.38998 0.98122 0.47421 0.0
C528 C 0.41274 0.0042 0.47257 0.0
C529 C 0.41824 0.04169 0.49083 0.0
C530 C 0.40065 0.05604 0.51036 0.0
C531 C 0.37799 0.03521 0.51159 0.0
C532 C 0.36152 0.0606 0.53244 0.0
C533 C 0.33898 0.08074 0.51729 0.0
C534 C 0.35422 0.02804 0.55706 0.0
C535 C 0.37839 0.09938 0.54249 0.0
C536 C 0.40106 0.09526 0.52994 0.0
C537 C 0.41937 0.12816 0.53455 0.0
C538 C 0.41398 0.16773 0.55108 0.0
C539 C 0.39041 0.17437 0.56259 0.0
C540 C 0.3727 0.13883 0.5592 0.0
H541 H 0.12048 0.80143 0.51144 0.0
H542 H 0.16694 0.84132 0.58198 0.0
H543 H 0.16857 0.9227 0.56338 0.0
H544 H 0.1511 0.86878 0.45924 0.0
H545 H 0.12389 0.8846 0.44013 0.0
H546 H 0.12505 0.8303 0.45984 0.0
H547 H 0.08667 0.85488 0.48821 0.0
H548 H 0.08521 0.90906 0.46838 0.0
H549 H 0.08634 0.91054 0.50659 0.0
H550 H 0.16602 0.99875 0.53641 0.0
H551 H 0.15919 0.06488 0.50366 0.0
H552 H 0.11517 0.97478 0.44977 0.0
C553 C 0.13073 0.82731 0.52332 0.0
C554 C 0.14346 0.81492 0.54838 0.0
C555 C 0.15695 0.84991 0.56287 0.0
C556 C 0.15801 0.8962 0.55242 0.0
C557 C 0.14558 0.90683 0.52742 0.0
C558 C 0.13216 0.87342 0.51309 0.0
C559 C 0.12113 0.89349 0.48618 0.0
C560 C 0.13088 0.86776 0.4598 0.0
C561 C 0.09318 0.8919 0.48743 0.0
C562 C 0.13044 0.94359 0.48756 0.0
C563 C 0.14445 0.95048 0.51157 0.0
C564 C 0.15503 0.99378 0.5176 0.0
C565 C 0.151 0.03116 0.4988 0.0
C566 C 0.13657 0.02518 0.47407 0.0
C567 C 0.12635 0.98053 0.46835 0.0
H568 H 0.60997 0.52462 0.94676 0.0
H569 H 0.64727 0.42847 0.00387 0.0
H570 H 0.64866 0.48979 0.04042 0.0
H571 H 0.64337 0.62896 0.96801 0.0
H572 H 0.61738 0.66747 0.9654 0.0
H573 H 0.61924 0.61578 0.94337 0.0
H574 H 0.5774 0.58829 0.96267 0.0
H575 H 0.57568 0.63956 0.98513 0.0
H576 H 0.57319 0.58156 0.00039 0.0
H577 H 0.64717 0.56086 0.07075 0.0
H578 H 0.64454 0.64023 0.09201 0.0
H579 H 0.60711 0.69069 0.01682 0.0
C580 C 0.61855 0.51668 0.96688 0.0
C581 C 0.62834 0.47151 0.97239 0.0
C582 C 0.63938 0.46255 -0.00089 0.0
C583 C 0.64027 0.49716 0.02013 0.0
C584 C 0.63001 0.5408 0.01434 0.0
C585 C 0.61949 0.55098 0.98839 0.0
C586 C 0.61021 0.60132 0.98783 0.0
C587 C 0.62334 0.63007 0.96479 0.0
C588 C 0.58247 0.60274 0.98376 0.0
C589 C 0.61731 0.61755 0.01739 0.0
C590 C 0.62868 0.58197 0.0323 0.0
C591 C 0.63808 0.589 0.05944 0.0
C592 C 0.63643 0.63408 0.0714 0.0
C593 C 0.62529 0.6714 0.05633 0.0
C594 C 0.61514 0.66258 0.02922 0.0
H595 H 0.90751 0.31087 0.03949 0.0
H596 H 0.838 0.33568 0.08086 0.0
H597 H 0.83368 0.41005 0.05429 0.0
H598 H 0.92665 0.43608 0.03581 0.0
H599 H 0.94071 0.42814 0.00158 0.0
H600 H 0.93961 0.37986 0.02637 0.0
H601 H 0.91853 0.32868 0.98825 0.0
H602 H 0.91892 0.37704 0.96353 0.0
H603 H 0.89055 0.34884 0.97239 0.0
H604 H 0.83459 0.4762 0.01999 0.0
H605 H 0.8432 0.53772 0.98464 0.0
H606 H 0.91206 0.47083 0.9644 0.0
C607 C 0.89165 0.33251 0.0436 0.0
C608 C 0.87306 0.3173 0.06238 0.0
C609 C 0.85258 0.34664 0.0669 0.0
C610 C 0.84987 0.38877 0.05167 0.0
C611 C 0.86788 0.40125 0.03223 0.0
C612 C 0.88864 0.37462 0.02856 0.0
C613 C 0.90485 0.39529 0.0056 0.0
C614 C 0.92941 0.41078 0.01809 0.0
C615 C 0.90841 0.36037 0.98099 0.0
C616 C 0.88969 0.43731 0.99648 0.0
C617 C 0.86844 0.4398 0.01221 0.0
C618 C 0.85125 0.47491 0.00778 0.0
C619 C 0.85626 0.50948 0.98753 0.0
C620 C 0.87823 0.50885 0.97178 0.0
C621 C 0.895 0.47172 0.97587 0.0
H622 H 0.14751 0.51104 0.50941 0.0
H623 H 0.07791 0.49578 0.55157 0.0
H624 H 0.06797 0.42839 0.52012 0.0
H625 H 0.12914 0.47986 0.43878 0.0
H626 H 0.15623 0.44635 0.4311 0.0
H627 H 0.15747 0.49465 0.45585 0.0
H628 H 0.17483 0.43937 0.49474 0.0
H629 H 0.17426 0.39135 0.46985 0.0
H630 H 0.15881 0.3859 0.50341 0.0
H631 H 0.06544 0.36441 0.48333 0.0
H632 H 0.07348 0.29765 0.45129 0.0
H633 H 0.14607 0.35149 0.43516 0.0
C634 C 0.13024 0.4932 0.51204 0.0
C635 C 0.11337 0.50829 0.53273 0.0
C636 C 0.09106 0.48424 0.53591 0.0
C637 C 0.0852 0.44644 0.51795 0.0
C638 C 0.10204 0.43296 0.49729 0.0
C639 C 0.12439 0.45479 0.49478 0.0
C640 C 0.14007 0.43102 0.47252 0.0
C641 C 0.14607 0.46501 0.44812 0.0
C642 C 0.16336 0.41069 0.48593 0.0
C643 C 0.12305 0.39234 0.4628 0.0
C644 C 0.10103 0.39475 0.47696 0.0
C645 C 0.08264 0.36207 0.47222 0.0
C646 C 0.08735 0.32439 0.45383 0.0
C647 C 0.11046 0.31917 0.44073 0.0
C648 C 0.12812 0.35477 0.44442 0.0
H649 H 0.39806 0.52205 0.54811 0.0
H650 H 0.34634 0.4389 0.49966 0.0
H651 H 0.34147 0.50395 0.46589 0.0
H652 H 0.36711 0.63345 0.53883 0.0
H653 H 0.3948 0.66698 0.53571 0.0
H654 H 0.39444 0.61352 0.55627 0.0
H655 H 0.43009 0.58095 0.52599 0.0
H656 H 0.43028 0.63409 0.50508 0.0
H657 H 0.42691 0.57772 0.48797 0.0
H658 H 0.34139 0.57739 0.43754 0.0
H659 H 0.3447 0.65753 0.41774 0.0
H660 H 0.39689 0.69351 0.48343 0.0
C661 C 0.38564 0.51766 0.53049 0.0
C662 C 0.37272 0.47514 0.52656 0.0
C663 C 0.35664 0.47087 0.50312 0.0
C664 C 0.35373 0.50763 0.48371 0.0
C665 C 0.36701 0.54861 0.48785 0.0
C666 C 0.38254 0.55412 0.51068 0.0
C667 C 0.39426 0.60242 0.51025 0.0
C668 C 0.38722 0.63076 0.53684 0.0
C669 C 0.42203 0.59854 0.50713 0.0
C670 C 0.38276 0.62298 0.48374 0.0
C671 C 0.36716 0.59123 0.47114 0.0
C672 C 0.35367 0.60259 0.44707 0.0
C673 C 0.35572 0.64814 0.43593 0.0
C674 C 0.3712 0.68172 0.44883 0.0
C675 C 0.38523 0.66847 0.47273 0.0
H676 H 0.38105 0.31042 0.99102 0.0
H677 H 0.34483 0.35489 0.91362 0.0
H678 H 0.3459 0.43744 0.93047 0.0
H679 H 0.34921 0.38783 0.03721 0.0
H680 H 0.37502 0.39862 0.05985 0.0
H681 H 0.37255 0.34364 0.04104 0.0
H682 H 0.41485 0.3574 0.01819 0.0
H683 H 0.41754 0.41234 0.03703 0.0
H684 H 0.42049 0.41116 -0.00106 0.0
H685 H 0.3505 0.51479 0.95625 0.0
H686 H 0.35742 0.58099 0.98896 0.0
H687 H 0.38963 0.48503 0.0502 0.0
C688 C 0.37358 0.33747 0.97735 0.0
C689 C 0.36302 0.32613 0.95082 0.0
C690 C 0.35309 0.36267 0.93394 0.0
C691 C 0.35363 0.40964 0.94334 0.0
C692 C 0.364 0.41936 0.96972 0.0
C693 C 0.37374 0.38425 0.98649 0.0
C694 C 0.38305 0.40359 0.01441 0.0
C695 C 0.36912 0.38215 0.03961 0.0
C696 C 0.41062 0.39565 0.0173 0.0
C697 C 0.37707 0.45528 0.01077 0.0
C698 C 0.36619 0.46364 0.9848 0.0
C699 C 0.35903 0.50863 0.97661 0.0
C700 C 0.36309 0.54605 0.99541 0.0
C701 C 0.37413 0.53839 0.02226 0.0
C702 C 0.38114 0.4922 0.02993 0.0
H703 H 0.1514 0.48828 0.00788 0.0
H704 H 0.08563 0.51402 0.05645 0.0
H705 H 0.07749 0.58511 0.02772 0.0
H706 H 0.16917 0.60909 0.00389 0.0
H707 H 0.18172 0.60425 0.96866 0.0
H708 H 0.18122 0.55362 0.99162 0.0
H709 H 0.15786 0.50697 0.95303 0.0
H710 H 0.15788 0.55788 0.93017 0.0
H711 H 0.12956 0.52991 0.93947 0.0
H712 H 0.07653 0.65282 0.99452 0.0
H713 H 0.0863 0.72133 0.96468 0.0
H714 H 0.15376 0.65468 0.9386 0.0
C715 C 0.13526 0.50889 0.01236 0.0
C716 C 0.11904 0.49567 0.03426 0.0
C717 C 0.09832 0.52376 0.03987 0.0
C718 C 0.09341 0.5638 0.02345 0.0
C719 C 0.10953 0.57545 0.00173 0.0
C720 C 0.13031 0.54946 0.99651 0.0
C721 C 0.14572 0.5721 0.97355 0.0
C722 C 0.17094 0.58558 0.98513 0.0
C723 C 0.14787 0.53977 0.94751 0.0
C724 C 0.13051 0.6153 0.96695 0.0
C725 C 0.10945 0.61579 0.98305 0.0
C726 C 0.09291 0.65281 0.98177 0.0
C727 C 0.09859 0.69148 0.96469 0.0
C728 C 0.12074 0.69317 0.94931 0.0
C729 C 0.13649 0.65384 0.94966 0.0
H730 H 0.85856 0.66035 0.55503 0.0
H731 H 0.93358 0.70565 0.54563 0.0
H732 H 0.94104 0.64066 0.51217 0.0
H733 H 0.87132 0.53249 0.55073 0.0
H734 H 0.84374 0.52098 0.53128 0.0
H735 H 0.84492 0.56918 0.55609 0.0
H736 H 0.83126 0.62619 0.5162 0.0
H737 H 0.83061 0.57844 0.49108 0.0
H738 H 0.84886 0.62982 0.48401 0.0
H739 H 0.93918 0.57647 0.47537 0.0
H740 H 0.93008 0.50812 0.4445 0.0
H741 H 0.85723 0.50151 0.47961 0.0
C742 C 0.87676 0.65577 0.54667 0.0
C743 C 0.89546 0.6883 0.55308 0.0
C744 C 0.91891 0.68134 0.54114 0.0
C745 C 0.92333 0.64463 0.52192 0.0
C746 C 0.90422 0.61465 0.51501 0.0
C747 C 0.88157 0.61901 0.52753 0.0
C748 C 0.86412 0.58225 0.51613 0.0
C749 C 0.85553 0.54926 0.53998 0.0
C750 C 0.84244 0.60558 0.50096 0.0
C751 C 0.8805 0.55676 0.49523 0.0
C752 C 0.90344 0.5765 0.49455 0.0
C753 C 0.92139 0.56027 0.476 0.0
C754 C 0.916 0.5218 0.45834 0.0
C755 C 0.89302 0.49956 0.45975 0.0
C756 C 0.87501 0.51774 0.47822 0.0
H757 H 0.61053 0.47635 0.45078 0.0
H758 H 0.65682 0.56399 0.50362 0.0
H759 H 0.65765 0.50266 0.5401 0.0
H760 H 0.57524 0.42568 0.50814 0.0
H761 H 0.57389 0.36761 0.49279 0.0
H762 H 0.57627 0.41856 0.47014 0.0
H763 H 0.6151 0.38405 0.44667 0.0
H764 H 0.61243 0.33263 0.46881 0.0
H765 H 0.64024 0.3662 0.46879 0.0
H766 H 0.65465 0.43263 0.57077 0.0
H767 H 0.65073 0.35341 0.59184 0.0
H768 H 0.60578 0.31045 0.52065 0.0
C769 C 0.62094 0.48236 0.46993 0.0
C770 C 0.63337 0.52529 0.47435 0.0
C771 C 0.64683 0.53175 0.49978 0.0
C772 C 0.64742 0.49715 0.52078 0.0
C773 C 0.63447 0.45596 0.51624 0.0
C774 C 0.62169 0.44796 0.49141 0.0
C775 C 0.61011 0.39952 0.49186 0.0
C776 C 0.58222 0.40308 0.49066 0.0
C777 C 0.62007 0.36879 0.4676 0.0
C778 C 0.61862 0.38182 0.52061 0.0
C779 C 0.63252 0.41515 0.53435 0.0
C780 C 0.64361 0.40622 0.5604 0.0
C781 C 0.6412 0.36124 0.57229 0.0
C782 C 0.62774 0.3259 0.55814 0.0
C783 C 0.61572 0.33697 0.53239 0.0
H784 H 0.1262 0.26917 0.31716 0.0
H785 H 0.11714 0.1202 0.29901 0.0
H786 H 0.11393 0.13831 0.24802 0.0
H787 H 0.08482 0.31276 0.26026 0.0
H788 H 0.10397 0.36278 0.25292 0.0
H789 H 0.10257 0.3388 0.2883 0.0
H790 H 0.14942 0.32868 0.28826 0.0
H791 H 0.15096 0.35221 0.25288 0.0
H792 H 0.16367 0.295 0.26039 0.0
H793 H 0.11749 0.17071 0.19913 0.0
H794 H 0.12482 0.21616 0.15534 0.0
H795 H 0.12987 0.34471 0.20468 0.0
C796 C 0.12303 0.24038 0.30256 0.0
C797 C 0.12196 0.19319 0.31219 0.0
C798 C 0.11794 0.15663 0.29227 0.0
C799 C 0.11608 0.16656 0.26322 0.0
C800 C 0.11792 0.21327 0.25443 0.0
C801 C 0.12095 0.2497 0.27351 0.0
C802 C 0.1238 0.29649 0.25834 0.0
C803 C 0.10252 0.32966 0.26538 0.0
C804 C 0.14843 0.31941 0.26539 0.0
C805 C 0.1228 0.28041 0.22772 0.0
C806 C 0.11928 0.23227 0.226 0.0
C807 C 0.11976 0.20852 0.20017 0.0
C808 C 0.12408 0.23458 0.17545 0.0
C809 C 0.1277 0.28391 0.17669 0.0
C810 C 0.12666 0.30718 0.20313 0.0
H811 H 0.37656 0.77404 0.18352 0.0
H812 H 0.38744 0.6249 0.19996 0.0
H813 H 0.39181 0.64183 0.25098 0.0
H814 H 0.4191 0.81735 0.23886 0.0
H815 H 0.3998 0.86666 0.24757 0.0
H816 H 0.40015 0.84361 0.21194 0.0
H817 H 0.35344 0.83205 0.21407 0.0
H818 H 0.35295 0.85484 0.24967 0.0
H819 H 0.34046 0.79745 0.24235 0.0
H820 H 0.38973 0.67295 0.30022 0.0
H821 H 0.38327 0.71703 0.34471 0.0
H822 H 0.37553 0.8467 0.29692 0.0
C823 C 0.38029 0.74496 0.19774 0.0
C824 C 0.38162 0.69805 0.18763 0.0
C825 C 0.38639 0.66111 0.20707 0.0
C826 C 0.38894 0.67038 0.23613 0.0
C827 C 0.387 0.71682 0.24541 0.0
C828 C 0.38306 0.75361 0.2268 0.0
C829 C 0.38036 0.79997 0.2425 0.0
C830 C 0.40109 0.8339 0.23476 0.0
C831 C 0.35532 0.82237 0.23681 0.0
C832 C 0.38256 0.78323 0.27293 0.0
C833 C 0.38652 0.73513 0.27404 0.0
C834 C 0.38713 0.71073 0.29964 0.0
C835 C 0.38334 0.736 0.32475 0.0
C836 C 0.37919 0.78521 0.32415 0.0
C837 C 0.37924 0.80926 0.29793 0.0
H838 H 0.64012 0.84748 0.20514 0.0
H839 H 0.59859 0.74081 0.16093 0.0
H840 H 0.5899 0.70105 0.20642 0.0
H841 H 0.66962 0.77147 0.2489 0.0
H842 H 0.67013 0.80841 0.27999 0.0
H843 H 0.66849 0.83467 0.24536 0.0
H844 H 0.62918 0.87924 0.25963 0.0
H845 H 0.63086 0.8535 0.29455 0.0
H846 H 0.60367 0.84679 0.27359 0.0
H847 H 0.59114 0.66623 0.25506 0.0
H848 H 0.60204 0.63942 0.3033 0.0
H849 H 0.64377 0.7676 0.31569 0.0
C850 C 0.62831 0.81698 0.20534 0.0
C851 C 0.6196 0.79753 0.17981 0.0
C852 C 0.60511 0.75639 0.18048 0.0
C853 C 0.60006 0.73366 0.20618 0.0
C854 C 0.60973 0.75247 0.23101 0.0
C855 C 0.62341 0.79342 0.23087 0.0
C856 C 0.6343 0.80277 0.25982 0.0
C857 C 0.66228 0.80439 0.25841 0.0
C858 C 0.62387 0.84828 0.27266 0.0
C859 C 0.62547 0.75978 0.27582 0.0
C860 C 0.61095 0.73164 0.25903 0.0
C861 C 0.60213 0.68839 0.26861 0.0
C862 C 0.6085 0.67335 0.29602 0.0
C863 C 0.62378 0.70126 0.31338 0.0
C864 C 0.63195 0.74538 0.30312 0.0
H865 H 0.8813 0.25927 0.18132 0.0
H866 H 0.90281 0.11515 0.19937 0.0
H867 H 0.90969 0.1367 0.24952 0.0
H868 H 0.92412 0.31679 0.23167 0.0
H869 H 0.90217 0.36143 0.24094 0.0
H870 H 0.90203 0.33605 0.20589 0.0
H871 H 0.85675 0.3131 0.21223 0.0
H872 H 0.85676 0.33814 0.24726 0.0
H873 H 0.84792 0.27761 0.24223 0.0
H874 H 0.9083 0.17103 0.29863 0.0
H875 H 0.9008 0.21641 0.34252 0.0
H876 H 0.88187 0.33903 0.29232 0.0
C877 C 0.88794 0.23234 0.19563 0.0
C878 C 0.89149 0.18541 0.18633 0.0
C879 C 0.90009 0.15135 0.20588 0.0
C880 C 0.90404 0.16329 0.23444 0.0
C881 C 0.89969 0.20957 0.24301 0.0
C882 C 0.89215 0.24372 0.22408 0.0
C883 C 0.88722 0.29011 0.23896 0.0
C884 C 0.90495 0.32835 0.22876 0.0
C885 C 0.86059 0.30561 0.23493 0.0
C886 C 0.89229 0.27633 0.26942 0.0
C887 C 0.89961 0.22977 0.27128 0.0
C888 C 0.90313 0.20775 0.29738 0.0
C889 C 0.89874 0.23373 0.32217 0.0
C890 C 0.89111 0.28134 0.32073 0.0
C891 C 0.88833 0.30309 0.294 0.0
H892 H 0.871 0.84502 0.71016 0.0
H893 H 0.91051 0.73865 0.66295 0.0
H894 H 0.9203 0.69717 0.70757 0.0
H895 H 0.90958 0.84262 0.77598 0.0
H896 H 0.88343 0.84902 0.79876 0.0
H897 H 0.88333 0.87499 0.76385 0.0
H898 H 0.8436 0.83016 0.75196 0.0
H899 H 0.84365 0.80392 0.78668 0.0
H900 H 0.8428 0.76696 0.75561 0.0
H901 H 0.92168 0.66215 0.75632 0.0
H902 H 0.91356 0.63535 0.8053 0.0
H903 H 0.87208 0.76312 0.82076 0.0
C904 C 0.88243 0.81394 0.70946 0.0
C905 C 0.89035 0.7953 0.6833 0.0
C906 C 0.90448 0.75357 0.68291 0.0
C907 C 0.91019 0.72988 0.70813 0.0
C908 C 0.90151 0.74821 0.7336 0.0
C909 C 0.88796 0.78935 0.7345 0.0
C910 C 0.87848 0.79847 0.7642 0.0
C911 C 0.88937 0.84398 0.77642 0.0
C912 C 0.85048 0.79994 0.76462 0.0
C913 C 0.88817 0.75541 0.77954 0.0
C914 C 0.90176 0.72726 0.76167 0.0
C915 C 0.91135 0.68423 0.77065 0.0
C916 C 0.90662 0.66924 0.79853 0.0
C917 C 0.89218 0.69697 0.81701 0.0
C918 C 0.8833 0.74103 0.80735 0.0
H919 H 0.64203 0.23037 0.81345 0.0
H920 H 0.60695 0.36519 0.79816 0.0
H921 H 0.59784 0.34047 0.74906 0.0
H922 H 0.67104 0.22207 0.74798 0.0
H923 H 0.66736 0.15928 0.74439 0.0
H924 H 0.66857 0.18545 0.7791 0.0
H925 H 0.62704 0.14761 0.79154 0.0
H926 H 0.62564 0.12145 0.75673 0.0
H927 H 0.60112 0.15841 0.76903 0.0
H928 H 0.59644 0.30476 0.70054 0.0
H929 H 0.60384 0.26156 0.65581 0.0
H930 H 0.63902 0.14928 0.70259 0.0
C931 C 0.63207 0.25456 0.80001 0.0
C932 C 0.62516 0.29982 0.80982 0.0
C933 C 0.61243 0.33038 0.79125 0.0
C934 C 0.60706 0.31654 0.76335 0.0
C935 C 0.61438 0.27191 0.75435 0.0
C936 C 0.62658 0.24134 0.77214 0.0
C937 C 0.63408 0.19675 0.75669 0.0
C938 C 0.6619 0.19056 0.75706 0.0
C939 C 0.62119 0.1535 0.76925 0.0
C940 C 0.62484 0.20756 0.72712 0.0
C941 C 0.61326 0.25089 0.72634 0.0
C942 C 0.60499 0.27041 0.701 0.0
C943 C 0.6092 0.24565 0.67576 0.0
C944 C 0.6214 0.20176 0.67604 0.0
C945 C 0.62888 0.182 0.70206 0.0
H946 H 0.39228 0.23326 0.68428 0.0
H947 H 0.39619 0.38346 0.70107 0.0
H948 H 0.39618 0.36736 0.75244 0.0
H949 H 0.35109 0.20659 0.73511 0.0
H950 H 0.36383 0.15074 0.74565 0.0
H951 H 0.36897 0.17263 0.71038 0.0
H952 H 0.41557 0.16645 0.71753 0.0
H953 H 0.41062 0.14365 0.75277 0.0
H954 H 0.42951 0.1948 0.74763 0.0
H955 H 0.38766 0.33662 0.80079 0.0
H956 H 0.37573 0.29246 0.84366 0.0
H957 H 0.37881 0.16173 0.79617 0.0
C958 C 0.39394 0.26275 0.69871 0.0
C959 C 0.39419 0.30967 0.68858 0.0
C960 C 0.39612 0.34722 0.70823 0.0
C961 C 0.39609 0.33843 0.7375 0.0
C962 C 0.39457 0.29189 0.74673 0.0
C963 C 0.39407 0.25457 0.72796 0.0
C964 C 0.39038 0.20819 0.7433 0.0
C965 C 0.36719 0.1831 0.73299 0.0
C966 C 0.41287 0.1764 0.74012 0.0
C967 C 0.38764 0.22552 0.7735 0.0
C968 C 0.3903 0.2739 0.775 0.0
C969 C 0.38615 0.29864 0.80004 0.0
C970 C 0.37916 0.27332 0.82417 0.0
C971 C 0.3765 0.22373 0.82316 0.0
C972 C 0.38115 0.19952 0.79759 0.0
H973 H 0.12837 0.72813 0.8177 0.0
H974 H 0.10997 0.87337 0.79792 0.0
H975 H 0.10858 0.8536 0.74718 0.0
H976 H 0.16765 0.70957 0.76171 0.0
H977 H 0.15863 0.64984 0.75424 0.0
H978 H 0.15514 0.67323 0.78948 0.0
H979 H 0.10923 0.65283 0.78874 0.0
H980 H 0.11262 0.6288 0.75355 0.0
H981 H 0.09044 0.6743 0.76018 0.0
H982 H 0.11545 0.82208 0.69886 0.0
H983 H 0.12593 0.77793 0.65542 0.0
H984 H 0.13746 0.65168 0.70546 0.0
C985 C 0.12345 0.75553 0.80278 0.0
C986 C 0.11935 0.80238 0.81192 0.0
C987 C 0.11316 0.83722 0.79159 0.0
C988 C 0.11232 0.82637 0.76265 0.0
C989 C 0.11729 0.78034 0.75431 0.0
C990 C 0.12228 0.7452 0.77374 0.0
C991 C 0.12818 0.69915 0.7589 0.0
C992 C 0.15393 0.68197 0.76654 0.0
C993 C 0.10897 0.66154 0.76575 0.0
C994 C 0.12667 0.71448 0.72814 0.0
C995 C 0.12033 0.76149 0.72606 0.0
C996 C 0.11988 0.78499 0.70013 0.0
C997 C 0.12603 0.75978 0.67564 0.0
C998 C 0.13226 0.71148 0.67721 0.0
C999 C 0.13229 0.68839 0.70374 0.0
H1000 H 0.22647 0.40399 0.10949 0.0
H1001 H 0.17382 0.50368 0.14288 0.0
H1002 H 0.20634 0.56287 0.14821 0.0
H1003 H 0.27831 0.44066 0.15378 0.0
H1004 H 0.30007 0.43341 0.12548 0.0
H1005 H 0.27313 0.39735 0.12648 0.0
H1006 H 0.26197 0.42464 0.07575 0.0
H1007 H 0.28879 0.46093 0.07461 0.0
H1008 H 0.2593 0.48673 0.06832 0.0
H1009 H 0.24399 0.61297 0.14755 0.0
H1010 H 0.28381 0.65079 0.14062 0.0
H1011 H 0.31268 0.51985 0.10677 0.0
C1012 C 0.22185 0.43791 0.11852 0.0
C1013 C 0.19747 0.44881 0.1261 0.0
C1014 C 0.19225 0.49419 0.13709 0.0
C1015 C 0.21066 0.52812 0.14021 0.0
C1016 C 0.23434 0.51652 0.13212 0.0
C1017 C 0.24003 0.4725 0.12152 0.0
C1018 C 0.26672 0.4701 0.11295 0.0
C1019 C 0.28036 0.43319 0.13074 0.0
C1020 C 0.26933 0.46001 0.08101 0.0
C1021 C 0.27506 0.51976 0.12018 0.0
C1022 C 0.25608 0.54575 0.13136 0.0
C1023 C 0.25901 0.59283 0.13897 0.0
C1024 C 0.28181 0.61407 0.1349 0.0
C1025 C 0.30165 0.58854 0.12322 0.0
C1026 C 0.2981 0.54045 0.116 0.0
H1027 H 0.73082 0.60451 0.38932 0.0
H1028 H 0.68281 0.50745 0.34578 0.0
H1029 H 0.71786 0.45467 0.33641 0.0
H1030 H 0.78482 0.58806 0.34618 0.0
H1031 H 0.80555 0.58957 0.3758 0.0
H1032 H 0.7772 0.62139 0.37752 0.0
H1033 H 0.7658 0.57748 0.42372 0.0
H1034 H 0.79418 0.54587 0.42233 0.0
H1035 H 0.76588 0.51401 0.42418 0.0
H1036 H 0.75804 0.41267 0.33168 0.0
H1037 H 0.79891 0.37877 0.33671 0.0
H1038 H 0.82136 0.49977 0.38653 0.0
C1039 C 0.72773 0.57236 0.37753 0.0
C1040 C 0.70401 0.5605 0.36785 0.0
C1041 C 0.70071 0.5175 0.3532 0.0
C1042 C 0.72058 0.48742 0.34771 0.0
C1043 C 0.74366 0.50025 0.35747 0.0
C1044 C 0.74728 0.54133 0.37252 0.0
C1045 C 0.7736 0.54503 0.38251 0.0
C1046 C 0.78602 0.58861 0.36973 0.0
C1047 C 0.77494 0.54562 0.41512 0.0
C1048 C 0.78435 0.49975 0.37051 0.0
C1049 C 0.76672 0.47489 0.35588 0.0
C1050 C 0.77191 0.43182 0.34316 0.0
C1051 C 0.79536 0.41288 0.34613 0.0
C1052 C 0.81369 0.43639 0.36199 0.0
C1053 C 0.80807 0.48107 0.37389 0.0
H1054 H 0.78587 0.59896 0.88643 0.0
H1055 H 0.83652 0.4959 0.85263 0.0
H1056 H 0.80251 0.44009 0.84572 0.0
H1057 H 0.75075 0.51702 0.92597 0.0
H1058 H 0.7219 0.5456 0.91997 0.0
H1059 H 0.74948 0.5796 0.91974 0.0
H1060 H 0.73961 0.6108 0.86965 0.0
H1061 H 0.71178 0.57731 0.86958 0.0
H1062 H 0.73359 0.56967 0.84138 0.0
H1063 H 0.76346 0.39447 0.84397 0.0
H1064 H 0.72294 0.35974 0.85001 0.0
H1065 H 0.69679 0.49043 0.88706 0.0
C1066 C 0.78977 0.56497 0.87704 0.0
C1067 C 0.81398 0.55219 0.86962 0.0
C1068 C 0.81825 0.50678 0.85823 0.0
C1069 C 0.79898 0.47485 0.8542 0.0
C1070 C 0.77546 0.48844 0.86195 0.0
C1071 C 0.77076 0.5323 0.87332 0.0
C1072 C 0.74404 0.53677 0.88166 0.0
C1073 C 0.7414 0.54522 0.91374 0.0
C1074 C 0.73152 0.57597 0.86454 0.0
C1075 C 0.73444 0.48846 0.87332 0.0
C1076 C 0.75291 0.46147 0.86174 0.0
C1077 C 0.74889 0.41536 0.85297 0.0
C1078 C 0.72565 0.39592 0.85655 0.0
C1079 C 0.70635 0.42208 0.86905 0.0
C1080 C 0.71088 0.46945 0.87716 0.0
H1081 H 0.22987 0.59254 0.60776 0.0
H1082 H 0.17824 0.49266 0.64272 0.0
H1083 H 0.21194 0.4366 0.65168 0.0
H1084 H 0.26595 0.50716 0.57135 0.0
H1085 H 0.29433 0.53714 0.57754 0.0
H1086 H 0.26642 0.57024 0.57563 0.0
H1087 H 0.2751 0.6057 0.62523 0.0
H1088 H 0.303 0.57251 0.62735 0.0
H1089 H 0.28042 0.56695 0.6549 0.0
H1090 H 0.25142 0.39084 0.65605 0.0
H1091 H 0.29255 0.35679 0.65271 0.0
H1092 H 0.31853 0.48561 0.61335 0.0
C1093 C 0.22564 0.55915 0.6177 0.0
C1094 C 0.20132 0.54735 0.62491 0.0
C1095 C 0.19663 0.50271 0.63716 0.0
C1096 C 0.2157 0.47068 0.64239 0.0
C1097 C 0.23941 0.48349 0.635 0.0
C1098 C 0.24439 0.52655 0.62269 0.0
C1099 C 0.27121 0.53074 0.61525 0.0
C1100 C 0.27467 0.53666 0.58304 0.0
C1101 C 0.28313 0.57139 0.63167 0.0
C1102 C 0.28064 0.48331 0.62536 0.0
C1103 C 0.26201 0.45676 0.63687 0.0
C1104 C 0.26612 0.41144 0.64716 0.0
C1105 C 0.28968 0.39243 0.64523 0.0
C1106 C 0.30908 0.41841 0.63294 0.0
C1107 C 0.30435 0.46482 0.62321 0.0
H1108 H 0.78704 0.0957 0.11827 0.0
H1109 H 0.83831 0.9838 0.13731 0.0
H1110 H 0.80423 0.92727 0.14066 0.0
H1111 H 0.73672 0.05426 0.16315 0.0
H1112 H 0.7136 0.07015 0.13776 0.0
H1113 H 0.74165 0.10286 0.13922 0.0
H1114 H 0.74858 0.08661 0.08604 0.0
H1115 H 0.72092 0.05301 0.08419 0.0
H1116 H 0.74931 0.02676 0.07331 0.0
H1117 H 0.76503 0.88252 0.14099 0.0
H1118 H 0.72399 0.85049 0.13534 0.0
H1119 H 0.69694 0.98965 0.1132 0.0
C1120 C 0.79105 0.05947 0.12376 0.0
C1121 C 0.81546 0.04442 0.12812 0.0
C1122 C 0.81988 0.99635 0.13423 0.0
C1123 C 0.80059 0.96398 0.13619 0.0
C1124 C 0.77685 0.97987 0.13156 0.0
C1125 C 0.77197 0.0264 0.12525 0.0
C1126 C 0.74489 0.03339 0.11939 0.0
C1127 C 0.73355 0.06717 0.14118 0.0
C1128 C 0.74069 0.05096 0.08891 0.0
C1129 C 0.73533 0.98346 0.12327 0.0
C1130 C 0.75415 0.95347 0.13063 0.0
C1131 C 0.75019 0.90573 0.13526 0.0
C1132 C 0.72658 0.88788 0.13199 0.0
C1133 C 0.70681 0.91726 0.12381 0.0
C1134 C 0.71141 0.96604 0.11961 0.0
H1135 H 0.19435 0.01436 0.38698 0.0
H1136 H 0.22302 0.15051 0.36167 0.0
H1137 H 0.26406 0.11625 0.35815 0.0
H1138 H 0.24458 0.98044 0.42997 0.0
H1139 H 0.24389 0.91922 0.41987 0.0
H1140 H 0.21638 0.95367 0.41905 0.0
H1141 H 0.2101 0.93184 0.36621 0.0
H1142 H 0.23759 0.89722 0.36693 0.0
H1143 H 0.23405 0.9434 0.34101 0.0
H1144 H 0.30308 0.06836 0.36056 0.0
H1145 H 0.33604 0.00961 0.36659 0.0
H1146 H 0.28222 0.90406 0.38869 0.0
C1147 C 0.20915 0.03688 0.38025 0.0
C1148 C 0.20512 0.08536 0.3745 0.0
C1149 C 0.2253 0.11335 0.36612 0.0
C1150 C 0.24884 0.09419 0.36408 0.0
C1151 C 0.25221 0.04666 0.37029 0.0
C1152 C 0.23288 0.01822 0.37798 0.0
C1153 C 0.24161 0.96841 0.38412 0.0
C1154 C 0.2363 0.95464 0.41509 0.0
C1155 C 0.23016 0.93314 0.36332 0.0
C1156 C 0.26881 0.97346 0.37892 0.0
C1157 C 0.27458 0.01891 0.37105 0.0
C1158 C 0.2987 0.03249 0.36638 0.0
C1159 C 0.31735 0.99885 0.36987 0.0
C1160 C 0.3119 0.95185 0.37772 0.0
C1161 C 0.28715 0.93932 0.38212 0.0
H1162 H 0.18782 0.99422 0.88638 0.0
H1163 H 0.21418 0.87074 0.8415 0.0
H1164 H 0.25455 0.90737 0.83701 0.0
H1165 H 0.2237 0.08179 0.84575 0.0
H1166 H 0.22937 0.11765 0.8766 0.0
H1167 H 0.20183 0.08348 0.87425 0.0
H1168 H 0.21215 0.04362 0.92219 0.0
H1169 H 0.23979 0.0773 0.92453 0.0
H1170 H 0.24094 0.01394 0.92633 0.0
H1171 H 0.29344 0.95357 0.84156 0.0
H1172 H 0.32699 0.00911 0.85174 0.0
H1173 H 0.27564 0.10399 0.89214 0.0
C1174 C 0.20187 0.97541 0.87492 0.0
C1175 C 0.19758 0.92953 0.86415 0.0
C1176 C 0.21681 0.90586 0.84991 0.0
C1177 C 0.23991 0.92638 0.84725 0.0
C1178 C 0.24372 0.9709 0.8588 0.0
C1179 C 0.22519 0.99546 0.87207 0.0
C1180 C 0.23449 0.04207 0.88362 0.0
C1181 C 0.22158 0.08371 0.86918 0.0
C1182 C 0.23167 0.04434 0.91609 0.0
C1183 C 0.26112 0.0395 0.87503 0.0
C1184 C 0.26609 0.99806 0.86084 0.0
C1185 C 0.28968 0.98651 0.85225 0.0
C1186 C 0.30867 0.01819 0.8582 0.0
C1187 C 0.30399 0.06127 0.87234 0.0
C1188 C 0.27979 0.07188 0.88072 0.0
H1189 H 0.81567 0.99205 0.61293 0.0
H1190 H 0.78611 0.85678 0.63855 0.0
H1191 H 0.74517 0.89176 0.64102 0.0
H1192 H 0.77531 0.06482 0.65741 0.0
H1193 H 0.77232 0.11037 0.63099 0.0
H1194 H 0.79972 0.07556 0.63269 0.0
H1195 H 0.79435 0.05245 0.57994 0.0
H1196 H 0.76692 0.08704 0.57811 0.0
H1197 H 0.7663 0.02558 0.56858 0.0
H1198 H 0.70664 0.93969 0.63755 0.0
H1199 H 0.67384 0.99796 0.63022 0.0
H1200 H 0.72771 0.10341 0.60809 0.0
C1201 C 0.80068 0.96991 0.61955 0.0
C1202 C 0.80442 0.92142 0.62569 0.0
C1203 C 0.78403 0.89389 0.63383 0.0
C1204 C 0.76056 0.91348 0.63528 0.0
C1205 C 0.75749 0.96097 0.62868 0.0
C1206 C 0.77699 0.98901 0.62118 0.0
C1207 C 0.76846 0.03879 0.61436 0.0
C1208 C 0.77962 0.0745 0.6351 0.0
C1209 C 0.77436 0.05171 0.58341 0.0
C1210 C 0.74114 0.03416 0.61893 0.0
C1211 C 0.73523 0.9889 0.62715 0.0
C1212 C 0.71111 0.97538 0.63143 0.0
C1213 C 0.69254 0.0088 0.62716 0.0
C1214 C 0.69801 0.05562 0.61886 0.0
C1215 C 0.72279 0.06827 0.61492 0.0
H1216 H 0.31165 0.22285 0.011 0.0
H1217 H 0.27944 0.11594 0.9575 0.0
H1218 H 0.23846 0.14285 0.97125 0.0
H1219 H 0.26003 0.22731 0.06701 0.0
H1220 H 0.26387 0.29018 0.06986 0.0
H1221 H 0.28979 0.25302 0.06283 0.0
H1222 H 0.2991 0.30384 0.01853 0.0
H1223 H 0.27248 0.33934 0.02428 0.0
H1224 H 0.27651 0.30912 0.99097 0.0
H1225 H 0.20268 0.19417 0.9798 0.0
H1226 H 0.17216 0.25305 0.99458 0.0
H1227 H 0.22805 0.32863 0.0411 0.0
C1228 C 0.29595 0.20297 0.004 0.0
C1229 C 0.29844 0.167 0.9837 0.0
C1230 C 0.27765 0.14296 0.97362 0.0
C1231 C 0.25435 0.15846 0.98099 0.0
C1232 C 0.25241 0.19757 0.99864 0.0
C1233 C 0.27258 0.21847 0.01094 0.0
C1234 C 0.26573 0.26331 0.02635 0.0
C1235 C 0.2701 0.25813 0.05842 0.0
C1236 C 0.27926 0.30639 0.01429 0.0
C1237 C 0.23891 0.26545 0.01956 0.0
C1238 C 0.23157 0.22729 0.0036 0.0
C1239 C 0.20795 0.22334 0.99319 0.0
C1240 C 0.1909 0.25758 0.00112 0.0
C1241 C 0.19775 0.2953 0.01907 0.0
C1242 C 0.22226 0.3 0.02749 0.0
H1243 H 0.31228 0.70518 0.99026 0.0
H1244 H 0.31661 0.80827 0.05777 0.0
H1245 H 0.2823 0.85225 0.03696 0.0
H1246 H 0.29034 0.79062 0.93264 0.0
H1247 H 0.2705 0.74638 0.91799 0.0
H1248 H 0.29889 0.72935 0.9342 0.0
H1249 H 0.27552 0.67279 0.96766 0.0
H1250 H 0.24711 0.69012 0.95198 0.0
H1251 H 0.25147 0.6958 0.98973 0.0
H1252 H 0.24308 0.87429 0.01591 0.0
H1253 H 0.203 0.87808 0.99227 0.0
H1254 H 0.22417 0.76224 0.93747 0.0
C1255 C 0.30652 0.73808 -0.00023 0.0
C1256 C 0.31684 0.75392 0.02528 0.0
C1257 C 0.3087 0.79613 0.03803 0.0
C1258 C 0.28937 0.82134 0.02634 0.0
C1259 C 0.27861 0.80382 0.00186 0.0
C1260 C 0.2871 0.76365 0.98835 0.0
C1261 C 0.27042 0.74932 0.96438 0.0
C1262 C 0.28331 0.75423 0.9356 0.0
C1263 C 0.26055 0.69906 0.96873 0.0
C1264 C 0.2506 0.78588 0.96776 0.0
C1265 C 0.25582 0.81734 0.98923 0.0
C1266 C 0.23902 0.85083 0.99846 0.0
C1267 C 0.21626 0.85238 0.9852 0.0
C1268 C 0.21073 0.8207 0.96301 0.0
C1269 C 0.22822 0.7875 0.95402 0.0
H1270 H 0.70249 0.73725 0.49865 0.0
H1271 H 0.73293 0.63729 0.43895 0.0
H1272 H 0.77437 0.65679 0.45533 0.0
H1273 H 0.74364 0.82343 0.48655 0.0
H1274 H 0.74617 0.84469 0.52246 0.0
H1275 H 0.71865 0.81635 0.51097 0.0
H1276 H 0.72201 0.75479 0.55143 0.0
H1277 H 0.749 0.78418 0.56385 0.0
H1278 H 0.7499 0.72212 0.55587 0.0
H1279 H 0.81211 0.69551 0.4729 0.0
H1280 H 0.84409 0.74259 0.4964 0.0
H1281 H 0.78849 0.81983 0.54255 0.0
C1282 C 0.71786 0.71786 0.49018 0.0
C1283 C 0.71484 0.68544 0.46799 0.0
C1284 C 0.73521 0.66188 0.45631 0.0
C1285 C 0.75871 0.6729 0.46532 0.0
C1286 C 0.76128 0.70754 0.48594 0.0
C1287 C 0.74143 0.72897 0.49869 0.0
C1288 C 0.74919 0.76801 0.5184 0.0
C1289 C 0.73879 0.81593 0.50901 0.0
C1290 C 0.74212 0.75657 0.54921 0.0
C1291 C 0.77637 0.7659 0.51414 0.0
C1292 C 0.78303 0.73078 0.49543 0.0
C1293 C 0.80719 0.72286 0.48784 0.0
C1294 C 0.82516 0.75024 0.50087 0.0
C1295 C 0.81864 0.78485 0.52111 0.0
C1296 C 0.79393 0.79358 0.5271 0.0
H1297 H 0.81318 0.30695 0.50279 0.0
H1298 H 0.78047 0.3842 0.4332 0.0
H1299 H 0.73965 0.36512 0.45151 0.0
H1300 H 0.77786 0.21471 0.49835 0.0
H1301 H 0.77442 0.2014 0.53553 0.0
H1302 H 0.80084 0.23259 0.52341 0.0
H1303 H 0.7919 0.30176 0.55769 0.0
H1304 H 0.7659 0.26996 0.57095 0.0
H1305 H 0.76227 0.32905 0.55759 0.0
H1306 H 0.70408 0.32271 0.4696 0.0
H1307 H 0.67452 0.26837 0.49092 0.0
H1308 H 0.73046 0.21604 0.54806 0.0
C1309 C 0.79741 0.32207 0.49244 0.0
C1310 C 0.79971 0.34717 0.46684 0.0
C1311 C 0.77883 0.36506 0.45301 0.0
C1312 C 0.75565 0.35444 0.46325 0.0
C1313 C 0.75389 0.32619 0.4873 0.0
C1314 C 0.77417 0.3111 0.50217 0.0
C1315 C 0.76751 0.27537 0.52466 0.0
C1316 C 0.78095 0.22827 0.52018 0.0
C1317 C 0.77216 0.29524 0.55449 0.0
C1318 C 0.74064 0.27057 0.51884 0.0
C1319 C 0.7331 0.30071 0.49756 0.0
C1320 C 0.70956 0.29983 0.48682 0.0
C1321 C 0.69303 0.26828 0.49879 0.0
C1322 C 0.70022 0.23795 0.52119 0.0
C1323 C 0.72441 0.23894 0.53108 0.0
H1324 H 0.8136 0.71752 0.0047 0.0
H1325 H 0.78329 0.62779 0.93939 0.0
H1326 H 0.74177 0.64898 0.95473 0.0
H1327 H 0.76281 0.70029 0.05888 0.0
H1328 H 0.76503 0.7611 0.06954 0.0
H1329 H 0.79177 0.72994 0.05777 0.0
H1330 H 0.79909 0.79547 0.02046 0.0
H1331 H 0.77181 0.82568 0.03109 0.0
H1332 H 0.77579 0.80815 0.99463 0.0
H1333 H 0.70487 0.69097 0.97043 0.0
H1334 H 0.67315 0.74013 0.99263 0.0
H1335 H 0.72781 0.80441 0.04675 0.0
C1336 C 0.79816 0.70041 0.99482 0.0
C1337 C 0.80125 0.67082 0.97123 0.0
C1338 C 0.7809 0.65023 0.95777 0.0
C1339 C 0.75738 0.66222 0.9662 0.0
C1340 C 0.75481 0.69455 0.98813 0.0
C1341 C 0.77456 0.71243 0.00283 0.0
C1342 C 0.76689 0.7501 0.0236 0.0
C1343 C 0.77191 0.7344 0.05427 0.0
C1344 C 0.77913 0.79763 0.01702 0.0
C1345 C 0.73997 0.75176 0.01742 0.0
C1346 C 0.73338 0.71943 0.99697 0.0
C1347 C 0.70966 0.71587 0.98688 0.0
C1348 C 0.69188 0.74451 -0.00076 0.0
C1349 C 0.69811 0.77592 0.02139 0.0
C1350 C 0.72256 0.78053 0.02991 0.0
H1351 H 0.72675 0.31256 0.95279 0.0
H1352 H 0.6703 0.24734 0.004 0.0
H1353 H 0.70157 0.20558 0.03162 0.0
H1354 H 0.76551 0.21495 0.94824 0.0
H1355 H 0.79346 0.2476 0.95157 0.0
H1356 H 0.76694 0.27537 0.93658 0.0
H1357 H 0.76915 0.34223 0.97398 0.0
H1358 H 0.79614 0.31551 0.98849 0.0
H1359 H 0.77043 0.32736 0.01114 0.0
H1360 H 0.73786 0.16604 0.05051 0.0
H1361 H 0.77853 0.14239 0.06694 0.0
H1362 H 0.81168 0.23449 0.00434 0.0
C1363 C 0.72105 0.29024 0.97021 0.0
C1364 C 0.69624 0.28301 0.97632 0.0
C1365 C 0.68929 0.25368 -0.00078 0.0
C1366 C 0.70686 0.22939 0.01478 0.0
C1367 C 0.73111 0.23552 0.0073 0.0
C1368 C 0.73832 0.26614 0.98615 0.0
C1369 C 0.76565 0.26676 0.98278 0.0
C1370 C 0.77332 0.25017 0.95302 0.0
C1371 C 0.77595 0.31587 0.98951 0.0
C1372 C 0.7726 0.2312 0.00518 0.0
C1373 C 0.75232 0.21325 0.01875 0.0
C1374 C 0.75393 0.18013 0.04032 0.0
C1375 C 0.77704 0.1668 0.04937 0.0
C1376 C 0.79807 0.187 0.03698 0.0
C1377 C 0.79586 0.21828 0.01395 0.0
H1378 H 0.31132 0.2624 0.50353 0.0
H1379 H 0.28166 0.32984 0.57867 0.0
H1380 H 0.24012 0.31692 0.56088 0.0
H1381 H 0.26452 0.30545 0.45334 0.0
H1382 H 0.26418 0.25072 0.43397 0.0
H1383 H 0.29168 0.26997 0.45117 0.0
H1384 H 0.29374 0.19069 0.47843 0.0
H1385 H 0.26606 0.17154 0.46167 0.0
H1386 H 0.26821 0.17265 0.49983 0.0
H1387 H 0.20222 0.29065 0.53764 0.0
H1388 H 0.1696 0.25698 0.50798 0.0
H1389 H 0.22387 0.20616 0.44824 0.0
C1390 C 0.29606 0.2754 0.5158 0.0
C1391 C 0.29952 0.2969 0.54238 0.0
C1392 C 0.27923 0.31286 0.55827 0.0
C1393 C 0.25562 0.30587 0.54836 0.0
C1394 C 0.25272 0.28299 0.52256 0.0
C1395 C 0.2723 0.26839 0.50631 0.0
C1396 C 0.26402 0.24227 0.48015 0.0
C1397 C 0.27154 0.2687 0.45305 0.0
C1398 C 0.27358 0.19128 0.48004 0.0
C1399 C 0.23681 0.2439 0.48458 0.0
C1400 C 0.23068 0.26763 0.50912 0.0
C1401 C 0.20669 0.27233 0.51819 0.0
C1402 C 0.18836 0.25277 0.50138 0.0
C1403 C 0.19428 0.22907 0.47588 0.0
C1404 C 0.21882 0.22441 0.46755 0.0
H1405 H 0.27461 0.82179 0.45809 0.0
H1406 H 0.33082 0.73979 0.50017 0.0
H1407 H 0.3007 0.679 0.51202 0.0
H1408 H 0.22826 0.79833 0.50897 0.0
H1409 H 0.20436 0.79668 0.48281 0.0
H1410 H 0.23109 0.83145 0.4765 0.0
H1411 H 0.23737 0.78667 0.42902 0.0
H1412 H 0.21122 0.75022 0.43606 0.0
H1413 H 0.24041 0.72343 0.42933 0.0
H1414 H 0.26509 0.629 0.52092 0.0
H1415 H 0.22456 0.60298 0.53668 0.0
H1416 H 0.19116 0.7154 0.48834 0.0
C1417 C 0.28049 0.79128 0.47008 0.0
C1418 C 0.30501 0.78559 0.47822 0.0
C1419 C 0.31205 0.74528 0.49399 0.0
C1420 C 0.29519 0.71002 0.50031 0.0
C1421 C 0.27141 0.7157 0.49082 0.0
C1422 C 0.26388 0.75586 0.47677 0.0
C1423 C 0.23676 0.75536 0.4715 0.0
C1424 C 0.2244 0.79793 0.48582 0.0
C1425 C 0.23112 0.75382 0.43957 0.0
C1426 C 0.23009 0.70936 0.48576 0.0
C1427 C 0.25053 0.68634 0.49593 0.0
C1428 C 0.24896 0.64604 0.51265 0.0
C1429 C 0.2259 0.63112 0.52122 0.0
C1430 C 0.20498 0.6568 0.51315 0.0
C1431 C 0.20692 0.69426 0.49372 0.0
H1432 H 0.0529 0.29404 0.11626 0.0
H1433 H 0.04243 0.37444 0.03887 0.0
H1434 H 1.00383 0.33309 0.0303 0.0
H1435 H 0.03173 0.18662 0.0895 0.0
H1436 H 0.01621 0.16752 0.12117 0.0
H1437 H 0.04175 0.20693 0.12379 0.0
H1438 H 0.01548 0.26722 0.15136 0.0
H1439 H 0.98992 0.22765 0.14933 0.0
H1440 H 0.9871 0.28714 0.13637 0.0
H1441 H 0.96944 0.27861 0.02681 0.0
H1442 H 0.93788 0.21838 0.03069 0.0
H1443 H 0.96846 0.17161 0.111 0.0
C1444 C 0.04204 0.30395 0.09805 0.0
C1445 C 0.05058 0.33785 0.07833 0.0
C1446 C 0.03622 0.34882 0.05429 0.0
C1447 C 0.01428 0.32544 0.0492 0.0
C1448 C 0.00682 0.29103 0.06835 0.0
C1449 C 0.01995 0.2806 0.09253 0.0
C1450 C 0.00814 0.24019 0.10872 0.0
C1451 C 0.02549 0.19781 0.11091 0.0
C1452 C 0.99965 0.25654 0.13819 0.0
C1453 C 0.9866 0.22923 0.08954 0.0
C1454 C 0.98642 0.25913 0.0664 0.0
C1455 C 0.96922 0.25525 0.04496 0.0
C1456 C 0.95143 0.22041 0.04731 0.0
C1457 C 0.9506 0.18973 0.0711 0.0
C1458 C 0.96854 0.19433 0.09255 0.0
H1459 H 0.46183 0.69199 0.04619 0.0
H1460 H 0.45203 0.67266 0.13688 0.0
H1461 H 0.48631 0.72662 0.14595 0.0
H1462 H 0.52794 0.6969 0.04771 0.0
H1463 H 0.52949 0.74058 0.02002 0.0
H1464 H 0.50453 0.69962 0.02097 0.0
H1465 H 0.47386 0.7698 0.0214 0.0
H1466 H 0.49908 0.8102 0.02025 0.0
H1467 H 0.4769 0.81468 0.04823 0.0
H1468 H 0.52066 0.78629 0.14518 0.0
H1469 H 0.55604 0.83679 0.13453 0.0
H1470 H 0.54358 0.81637 0.04439 0.0
C1471 C 0.4671 0.69836 0.06798 0.0
C1472 C 0.45415 0.67767 0.09079 0.0
C1473 C 0.46168 0.68753 0.11897 0.0
C1474 C 0.48102 0.71859 0.12437 0.0
C1475 C 0.49282 0.73952 0.10142 0.0
C1476 C 0.48642 0.72915 0.07377 0.0
C1477 C 0.50232 0.75562 0.05286 0.0
C1478 C 0.51694 0.72113 0.03431 0.0
C1479 C 0.48712 0.78955 0.03461 0.0
C1480 C 0.5187 0.78244 0.07306 0.0
C1481 C 0.51274 0.77319 0.10098 0.0
C1482 C 0.52549 0.79371 0.12337 0.0
C1483 C 0.54544 0.82287 0.11708 0.0
C1484 C 0.55266 0.831 0.08859 0.0
C1485 C 0.53855 0.81133 0.0664 0.0
H1486 H 0.46511 0.81601 0.38507 0.0
H1487 H 0.44239 0.78679 0.47167 0.0
H1488 H 0.47654 0.73238 0.47739 0.0
H1489 H 0.48711 0.6971 0.3686 0.0
H1490 H 0.51322 0.71699 0.3488 0.0
H1491 H 0.48608 0.75265 0.3501 0.0
H1492 H 0.51106 0.82311 0.36915 0.0
H1493 H 0.53828 0.78783 0.36755 0.0
H1494 H 0.52952 0.81549 0.40043 0.0
H1495 H 0.51321 0.6834 0.47552 0.0
H1496 H 0.55329 0.64709 0.46711 0.0
H1497 H 0.55456 0.70567 0.38216 0.0
C1498 C 0.46737 0.79813 0.40518 0.0
C1499 C 0.45092 0.8062 0.42793 0.0
C1500 C 0.45469 0.782 0.45393 0.0
C1501 C 0.474 0.75048 0.4574 0.0
C1502 C 0.48976 0.74322 0.43477 0.0
C1503 C 0.48699 0.76657 0.40923 0.0
C1504 C 0.50769 0.75371 0.38911 0.0
C1505 C 0.49793 0.72862 0.36257 0.0
C1506 C 0.52251 0.79765 0.3811 0.0
C1507 C 0.5225 0.7201 0.40756 0.0
C1508 C 0.51148 0.71434 0.43368 0.0
C1509 C 0.52193 0.68718 0.45506 0.0
C1510 C 0.54465 0.66649 0.45006 0.0
C1511 C 0.55678 0.67269 0.42386 0.0
C1512 C 0.54532 0.69911 0.40206 0.0
H1513 H 0.05318 0.19796 0.38021 0.0
H1514 H 0.04203 0.12115 0.4587 0.0
H1515 H 1.00374 0.1642 0.46667 0.0
H1516 H 0.03311 0.30675 0.40523 0.0
H1517 H 0.0176 0.32556 0.3735 0.0
H1518 H 0.04262 0.28473 0.37111 0.0
H1519 H 0.01546 0.22475 0.34464 0.0
H1520 H 0.99044 0.26578 0.34632 0.0
H1521 H 0.98692 0.20698 0.36013 0.0
H1522 H 0.97047 0.2215 0.47005 0.0
H1523 H 0.93961 0.28308 0.46568 0.0
H1524 H 0.96954 0.32406 0.38391 0.0
C1525 C 0.04209 0.18888 0.3984 0.0
C1526 C 0.05041 0.15552 0.41865 0.0
C1527 C 0.0359 0.14601 0.44279 0.0
C1528 C 0.01417 0.17052 0.44758 0.0
C1529 C 0.00703 0.20458 0.42801 0.0
C1530 C 0.02016 0.21331 0.40358 0.0
C1531 C 0.00871 0.25378 0.38695 0.0
C1532 C 0.02658 0.29515 0.38403 0.0
C1533 C 0.99985 0.2368 0.35778 0.0
C1534 C 0.98739 0.2667 0.40614 0.0
C1535 C 0.98709 0.23784 0.42976 0.0
C1536 C 0.97028 0.24388 0.45147 0.0
C1537 C 0.95289 0.27957 0.44883 0.0
C1538 C 0.95199 0.30899 0.42446 0.0
C1539 C 0.96963 0.30233 0.40278 0.0
H1540 H 0.96184 0.69158 0.88532 0.0
H1541 H 0.96173 0.65089 0.97406 0.0
H1542 H 0.99865 0.69786 0.98206 0.0
H1543 H 0.03025 0.69432 0.87745 0.0
H1544 H 0.02927 0.74475 0.85425 0.0
H1545 H 1.00447 0.70327 0.85443 0.0
H1546 H 0.9745 0.77152 0.86475 0.0
H1547 H 0.99923 0.81304 0.8653 0.0
H1548 H 0.97923 0.80819 0.89548 0.0
H1549 H 0.03132 0.7567 0.98262 0.0
H1550 H 0.06331 0.81487 0.97435 0.0
H1551 H 0.04517 0.81768 0.88455 0.0
C1552 C 0.97022 0.69109 0.9061 0.0
C1553 C 0.95902 0.66708 0.92905 0.0
C1554 C 0.97007 0.66862 0.95617 0.0
C1555 C 0.99098 0.69546 0.96097 0.0
C1556 C 1.00088 0.72057 0.9384 0.0
C1557 C 0.99135 0.71791 0.91132 0.0
C1558 C 0.00536 0.75019 0.89127 0.0
C1559 C 0.01809 0.72141 0.86797 0.0
C1560 C 0.98857 0.78797 0.87845 0.0
C1561 C 0.02375 0.772 0.91155 0.0
C1562 C 0.02056 0.75438 0.93861 0.0
C1563 C 0.03429 0.77022 0.96143 0.0
C1564 C 0.05238 0.80381 0.95646 0.0
C1565 C 0.05704 0.82121 0.92873 0.0
C1566 C 0.04218 0.80533 0.906 0.0
H1567 H 0.54098 0.33151 0.94915 0.0
H1568 H 0.5544 0.33473 0.85843 0.0
H1569 H 0.51677 0.28902 0.8505 0.0
H1570 H 0.5212 0.21671 0.95318 0.0
H1571 H 0.49781 0.22635 0.97936 0.0
H1572 H 0.5238 0.26473 0.97802 0.0
H1573 H 0.49575 0.33755 0.97254 0.0
H1574 H 0.46958 0.29957 0.97467 0.0
H1575 H 0.47323 0.33848 0.94475 0.0
H1576 H 0.48096 0.23338 0.85318 0.0
H1577 H 0.44591 0.18328 0.86525 0.0
H1578 H 0.45524 0.21779 0.95436 0.0
C1579 C 0.53561 0.32395 0.92752 0.0
C1580 C 0.55063 0.337 0.90438 0.0
C1581 C 0.54306 0.32587 0.87645 0.0
C1582 C 0.52182 0.29943 0.87177 0.0
C1583 C 0.50817 0.28501 0.8952 0.0
C1584 C 0.51442 0.29795 0.92248 0.0
C1585 C 0.49718 0.27662 0.94409 0.0
C1586 C 0.51082 0.24419 0.96488 0.0
C1587 C 0.4831 0.31536 0.95994 0.0
C1588 C 0.48058 0.24864 0.92479 0.0
C1589 C 0.4873 0.25377 0.89669 0.0
C1590 C 0.47534 0.2297 0.87508 0.0
C1591 C 0.45556 0.20083 0.88224 0.0
C1592 C 0.4477 0.19633 0.91083 0.0
C1593 C 0.46068 0.22036 0.93233 0.0
H1594 H 0.54396 0.18272 0.60928 0.0
H1595 H 0.56575 0.20645 0.52173 0.0
H1596 H 0.53349 0.26509 0.51637 0.0
H1597 H 0.47924 0.19145 0.59539 0.0
H1598 H 0.47233 0.22065 0.62839 0.0
H1599 H 0.49807 0.18152 0.62614 0.0
H1600 H 0.52604 0.24858 0.64415 0.0
H1601 H 0.50038 0.28807 0.64593 0.0
H1602 H 0.52677 0.30382 0.62531 0.0
H1603 H 0.49888 0.31954 0.51899 0.0
H1604 H 0.46031 0.36108 0.5283 0.0
H1605 H 0.459 0.304 0.61366 0.0
C1606 C 0.54184 0.20014 0.58899 0.0
C1607 C 0.55756 0.18959 0.56597 0.0
C1608 C 0.55404 0.2133 0.53975 0.0
C1609 C 0.53581 0.24719 0.53646 0.0
C1610 C 0.52089 0.25716 0.55947 0.0
C1611 C 0.52332 0.23402 0.58513 0.0
C1612 C 0.50365 0.25003 0.60573 0.0
C1613 C 0.48736 0.20844 0.61442 0.0
C1614 C 0.51489 0.27405 0.63183 0.0
C1615 C 0.48983 0.2853 0.58746 0.0
C1616 C 0.50041 0.28908 0.56097 0.0
C1617 C 0.4905 0.31726 0.53972 0.0
C1618 C 0.46865 0.34091 0.54523 0.0
C1619 C 0.45689 0.33646 0.5718 0.0
C1620 C 0.46798 0.30922 0.59346 0.0
H1621 H 0.04991 0.70677 0.54627 0.0
H1622 H 0.05981 0.67765 0.63601 0.0
H1623 H 0.02557 0.73062 0.6473 0.0
H1624 H 0.03528 0.82786 0.55266 0.0
H1625 H 0.01236 0.82768 0.52532 0.0
H1626 H 0.03714 0.78619 0.52388 0.0
H1627 H 0.00665 0.7167 0.52184 0.0
H1628 H 0.98176 0.75796 0.52271 0.0
H1629 H 0.98351 0.71164 0.54877 0.0
H1630 H 0.99145 0.79024 0.64908 0.0
H1631 H 0.95632 0.84263 0.64077 0.0
H1632 H 0.96828 0.832 0.54988 0.0
C1633 C 0.04469 0.71093 0.56829 0.0
C1634 C 0.05765 0.68778 0.59021 0.0
C1635 C 0.05014 0.69447 0.61874 0.0
C1636 C 0.03081 0.72491 0.62543 0.0
C1637 C 0.01897 0.74823 0.60338 0.0
C1638 C 0.0253 0.74087 0.57535 0.0
C1639 C 0.00928 0.7695 0.55561 0.0
C1640 C 0.02443 0.8049 0.53836 0.0
C1641 C 0.99442 0.73702 0.53609 0.0
C1642 C 0.99311 0.79443 0.57694 0.0
C1643 C 0.99912 0.782 0.60438 0.0
C1644 C 0.98655 0.80014 0.62765 0.0
C1645 C 0.96672 0.83031 0.62271 0.0
C1646 C 0.95947 0.84186 0.59467 0.0
C1647 C 0.97336 0.82439 0.5716 0.0
loop_
_geom_bond_atom_site_label_1
_geom_bond_atom_site_label_2
_geom_bond_distance
_geom_bond_site_symmetry_2
_ccdc_geom_bond_type
Sc0 O3 2.025 . S
Sc0 O10 2.105 . S
Sc0 O13 2.105 . S
Sc0 O16 2.105 . S
Sc0 O19 2.105 . S
Sc1 O3 2.025 . S
Sc1 O11 2.105 . S
Sc1 O15 2.105 . S
Sc1 O17 2.105 . S
Sc1 O21 2.105 . S
Sc2 O3 2.025 . S
Sc2 O12 2.105 . S
Sc2 O14 2.105 . S
Sc2 O18 2.105 . S
Sc2 O20 2.105 . S
O3 Sc0 2.025 . S
O3 Sc1 2.025 . S
O3 Sc2 2.025 . S
C4 O10 1.268 . S
C4 O20 1.268 . S
C5 O11 1.268 . S
C5 O19 1.268 . S
C6 O12 1.268 . S
C6 O21 1.268 . S
C7 O13 1.268 . S
C7 O17 1.268 . S
C8 O14 1.268 . S
C8 O16 1.268 . S
C9 O15 1.268 . S
C9 O18 1.268 . S
O10 Sc0 2.105 . S
O10 C4 1.268 . S
O11 Sc1 2.105 . S
O11 C5 1.268 . S
O12 Sc2 2.105 . S
O12 C6 1.268 . S
O13 Sc0 2.105 . S
O13 C7 1.268 . S
O14 Sc2 2.105 . S
O14 C8 1.268 . S
O15 Sc1 2.105 . S
O15 C9 1.268 . S
O16 Sc0 2.105 . S
O16 C8 1.268 . S
O17 Sc1 2.105 . S
O17 C7 1.268 . S
O18 Sc2 2.105 . S
O18 C9 1.268 . S
O19 Sc0 2.105 . S
O19 C5 1.268 . S
O20 Sc2 2.105 . S
O20 C4 1.268 . S
O21 Sc1 2.105 . S
O21 C6 1.268 . S
Sc22 O25 2.025 . S
Sc22 O32 2.105 . S
Sc22 O35 2.105 . S
Sc22 O38 2.105 . S
Sc22 O41 2.105 . S
Sc23 O25 2.025 . S
Sc23 O33 2.105 . S
Sc23 O37 2.105 . S
Sc23 O39 2.105 . S
Sc23 O43 2.105 . S
Sc24 O25 2.025 . S
Sc24 O34 2.105 . S
Sc24 O36 2.105 . S
Sc24 O40 2.105 . S
Sc24 O42 2.105 . S
O25 Sc22 2.025 . S
O25 Sc23 2.025 . S
O25 Sc24 2.025 . S
C26 O32 1.268 . S
C26 O42 1.268 . S
C27 O33 1.268 . S
C27 O41 1.268 . S
C28 O34 1.268 . S
C28 O43 1.268 . S
C29 O35 1.268 . S
C29 O39 1.268 . S
C30 O36 1.268 . S
C30 O38 1.268 . S
C31 O37 1.268 . S
C31 O40 1.268 . S
O32 Sc22 2.105 . S
O32 C26 1.268 . S
O33 Sc23 2.105 . S
O33 C27 1.268 . S
O34 Sc24 2.105 . S
O34 C28 1.268 . S
O35 Sc22 2.105 . S
O35 C29 1.268 . S
O36 Sc24 2.105 . S
O36 C30 1.268 . S
O37 Sc23 2.105 . S
O37 C31 1.268 . S
O38 Sc22 2.105 . S
O38 C30 1.268 . S
O39 Sc23 2.105 . S
O39 C29 1.268 . S
O40 Sc24 2.105 . S
O40 C31 1.268 . S
O41 Sc22 2.105 . S
O41 C27 1.268 . S
O42 Sc24 2.105 . S
O42 C26 1.268 . S
O43 Sc23 2.105 . S
O43 C28 1.268 . S
Sc44 O47 2.025 . S
Sc44 O54 2.105 . S
Sc44 O57 2.105 . S
Sc44 O60 2.105 . S
Sc44 O63 2.105 . S
Sc45 O47 2.025 . S
Sc45 O55 2.105 . S
Sc45 O59 2.105 . S
Sc45 O61 2.105 . S
Sc45 O65 2.105 . S
Sc46 O47 2.025 . S
Sc46 O56 2.105 . S
Sc46 O58 2.105 . S
Sc46 O62 2.105 . S
Sc46 O64 2.105 . S
O47 Sc44 2.025 . S
O47 Sc45 2.025 . S
O47 Sc46 2.025 . S
C48 O54 1.268 . S
C48 O64 1.268 . S
C49 O55 1.268 . S
C49 O63 1.268 . S
C50 O56 1.268 . S
C50 O65 1.268 . S
C51 O57 1.268 . S
C51 O61 1.268 . S
C52 O58 1.268 . S
C52 O60 1.268 . S
C53 O59 1.268 . S
C53 O62 1.268 . S
O54 Sc44 2.105 . S
O54 C48 1.268 . S
O55 Sc45 2.105 . S
O55 C49 1.268 . S
O56 Sc46 2.105 . S
O56 C50 1.268 . S
O57 Sc44 2.105 . S
O57 C51 1.268 . S
O58 Sc46 2.105 . S
O58 C52 1.268 . S
O59 Sc45 2.105 . S
O59 C53 1.268 . S
O60 Sc44 2.105 . S
O60 C52 1.268 . S
O61 Sc45 2.105 . S
O61 C51 1.268 . S
O62 Sc46 2.105 . S
O62 C53 1.268 . S
O63 Sc44 2.105 . S
O63 C49 1.268 . S
O64 Sc46 2.105 . S
O64 C48 1.268 . S
O65 Sc45 2.105 . S
O65 C50 1.268 . S
Sc66 O69 2.025 . S
Sc66 O76 2.105 . S
Sc66 O79 2.105 . S
Sc66 O82 2.105 . S
Sc66 O85 2.105 . S
Sc67 O69 2.025 . S
Sc67 O77 2.105 . S
Sc67 O81 2.105 . S
Sc67 O83 2.105 . S
Sc67 O87 2.105 . S
Sc68 O69 2.025 . S
Sc68 O78 2.105 . S
Sc68 O80 2.105 . S
Sc68 O84 2.105 . S
Sc68 O86 2.105 . S
O69 Sc66 2.025 . S
O69 Sc67 2.025 . S
O69 Sc68 2.025 . S
C70 O76 1.268 . S
C70 O86 1.268 . S
C71 O77 1.268 . S
C71 O85 1.268 . S
C72 O78 1.268 . S
C72 O87 1.268 . S
C73 O79 1.268 . S
C73 O83 1.268 . S
C74 O80 1.268 . S
C74 O82 1.268 . S
C75 O81 1.268 . S
C75 O84 1.268 . S
O76 Sc66 2.105 . S
O76 C70 1.268 . S
O77 Sc67 2.105 . S
O77 C71 1.268 . S
O78 Sc68 2.105 . S
O78 C72 1.268 . S
O79 Sc66 2.105 . S
O79 C73 1.268 . S
O80 Sc68 2.105 . S
O80 C74 1.268 . S
O81 Sc67 2.105 . S
O81 C75 1.268 . S
O82 Sc66 2.105 . S
O82 C74 1.268 . S
O83 Sc67 2.105 . S
O83 C73 1.268 . S
O84 Sc68 2.105 . S
O84 C75 1.268 . S
O85 Sc66 2.105 . S
O85 C71 1.268 . S
O86 Sc68 2.105 . S
O86 C70 1.268 . S
O87 Sc67 2.105 . S
O87 C72 1.268 . S
Sc88 O91 2.025 . S
Sc88 O98 2.105 . S
Sc88 O101 2.105 . S
Sc88 O104 2.105 . S
Sc88 O107 2.105 . S
Sc89 O91 2.025 . S
Sc89 O99 2.105 . S
Sc89 O103 2.105 . S
Sc89 O105 2.105 . S
Sc89 O109 2.105 . S
Sc90 O91 2.025 . S
Sc90 O100 2.105 . S
Sc90 O102 2.105 . S
Sc90 O106 2.105 . S
Sc90 O108 2.105 . S
O91 Sc88 2.025 . S
O91 Sc89 2.025 . S
O91 Sc90 2.025 . S
C92 O98 1.268 . S
C92 O108 1.268 . S
C93 O99 1.268 . S
C93 O107 1.268 . S
C94 O100 1.268 . S
C94 O109 1.268 . S
C95 O101 1.268 . S
C95 O105 1.268 . S
C96 O102 1.268 . S
C96 O104 1.268 . S
C97 O103 1.268 . S
C97 O106 1.268 . S
O98 Sc88 2.105 . S
O98 C92 1.268 . S
O99 Sc89 2.105 . S
O99 C93 1.268 . S
O100 Sc90 2.105 . S
O100 C94 1.268 . S
O101 Sc88 2.105 . S
O101 C95 1.268 . S
O102 Sc90 2.105 . S
O102 C96 1.268 . S
O103 Sc89 2.105 . S
O103 C97 1.268 . S
O104 Sc88 2.105 . S
O104 C96 1.268 . S
O105 Sc89 2.105 . S
O105 C95 1.268 . S
O106 Sc90 2.105 . S
O106 C97 1.268 . S
O107 Sc88 2.105 . S
O107 C93 1.268 . S
O108 Sc90 2.105 . S
O108 C92 1.268 . S
O109 Sc89 2.105 . S
O109 C94 1.268 . S
Sc110 O113 2.025 . S
Sc110 O120 2.105 . S
Sc110 O123 2.105 . S
Sc110 O126 2.105 . S
Sc110 O129 2.105 . S
Sc111 O113 2.025 . S
Sc111 O121 2.105 . S
Sc111 O125 2.105 . S
Sc111 O127 2.105 . S
Sc111 O131 2.105 . S
Sc112 O113 2.025 . S
Sc112 O122 2.105 . S
Sc112 O124 2.105 . S
Sc112 O128 2.105 . S
Sc112 O130 2.105 . S
O113 Sc110 2.025 . S
O113 Sc111 2.025 . S
O113 Sc112 2.025 . S
C114 O120 1.268 . S
C114 O130 1.268 . S
C115 O121 1.268 . S
C115 O129 1.268 . S
C116 O122 1.268 . S
C116 O131 1.268 . S
C117 O123 1.268 . S
C117 O127 1.268 . S
C118 O124 1.268 . S
C118 O126 1.268 . S
C119 O125 1.268 . S
C119 O128 1.268 . S
O120 Sc110 2.105 . S
O120 C114 1.268 . S
O121 Sc111 2.105 . S
O121 C115 1.268 . S
O122 Sc112 2.105 . S
O122 C116 1.268 . S
O123 Sc110 2.105 . S
O123 C117 1.268 . S
O124 Sc112 2.105 . S
O124 C118 1.268 . S
O125 Sc111 2.105 . S
O125 C119 1.268 . S
O126 Sc110 2.105 . S
O126 C118 1.268 . S
O127 Sc111 2.105 . S
O127 C117 1.268 . S
O128 Sc112 2.105 . S
O128 C119 1.268 . S
O129 Sc110 2.105 . S
O129 C115 1.268 . S
O130 Sc112 2.105 . S
O130 C114 1.268 . S
O131 Sc111 2.105 . S
O131 C116 1.268 . S
Sc132 O135 2.025 . S
Sc132 O142 2.105 . S
Sc132 O145 2.105 . S
Sc132 O148 2.105 . S
Sc132 O151 2.105 . S
Sc133 O135 2.025 . S
Sc133 O143 2.105 . S
Sc133 O147 2.105 . S
Sc133 O149 2.105 . S
Sc133 O153 2.105 . S
Sc134 O135 2.025 . S
Sc134 O144 2.105 . S
Sc134 O146 2.105 . S
Sc134 O150 2.105 . S
Sc134 O152 2.105 . S
O135 Sc132 2.025 . S
O135 Sc133 2.025 . S
O135 Sc134 2.025 . S
C136 O142 1.268 . S
C136 O152 1.268 . S
C137 O143 1.268 . S
C137 O151 1.268 . S
C138 O144 1.268 . S
C138 O153 1.268 . S
C139 O145 1.268 . S
C139 O149 1.268 . S
C140 O146 1.268 . S
C140 O148 1.268 . S
C141 O147 1.268 . S
C141 O150 1.268 . S
O142 Sc132 2.105 . S
O142 C136 1.268 . S
O143 Sc133 2.105 . S
O143 C137 1.268 . S
O144 Sc134 2.105 . S
O144 C138 1.268 . S
O145 Sc132 2.105 . S
O145 C139 1.268 . S
O146 Sc134 2.105 . S
O146 C140 1.268 . S
O147 Sc133 2.105 . S
O147 C141 1.268 . S
O148 Sc132 2.105 . S
O148 C140 1.268 . S
O149 Sc133 2.105 . S
O149 C139 1.268 . S
O150 Sc134 2.105 . S
O150 C141 1.268 . S
O151 Sc132 2.105 . S
O151 C137 1.268 . S
O152 Sc134 2.105 . S
O152 C136 1.268 . S
O153 Sc133 2.105 . S
O153 C138 1.268 . S
Sc154 O157 2.025 . S
Sc154 O164 2.105 . S
Sc154 O167 2.105 . S
Sc154 O170 2.105 . S
Sc154 O173 2.105 . S
Sc155 O157 2.025 . S
Sc155 O165 2.105 . S
Sc155 O169 2.105 . S
Sc155 O171 2.105 . S
Sc155 O175 2.105 . S
Sc156 O157 2.025 . S
Sc156 O166 2.105 . S
Sc156 O168 2.105 . S
Sc156 O172 2.105 . S
Sc156 O174 2.105 . S
O157 Sc154 2.025 . S
O157 Sc155 2.025 . S
O157 Sc156 2.025 . S
C158 O164 1.268 . S
C158 O174 1.268 . S
C159 O165 1.268 . S
C159 O173 1.268 . S
C160 O166 1.268 . S
C160 O175 1.268 . S
C161 O167 1.268 . S
C161 O171 1.268 . S
C162 O168 1.268 . S
C162 O170 1.268 . S
C163 O169 1.268 . S
C163 O172 1.268 . S
O164 Sc154 2.105 . S
O164 C158 1.268 . S
O165 Sc155 2.105 . S
O165 C159 1.268 . S
O166 Sc156 2.105 . S
O166 C160 1.268 . S
O167 Sc154 2.105 . S
O167 C161 1.268 . S
O168 Sc156 2.105 . S
O168 C162 1.268 . S
O169 Sc155 2.105 . S
O169 C163 1.268 . S
O170 Sc154 2.105 . S
O170 C162 1.268 . S
O171 Sc155 2.105 . S
O171 C161 1.268 . S
O172 Sc156 2.105 . S
O172 C163 1.268 . S
O173 Sc154 2.105 . S
O173 C159 1.268 . S
O174 Sc156 2.105 . S
O174 C158 1.268 . S
O175 Sc155 2.105 . S
O175 C160 1.268 . S
Sc176 O179 2.025 . S
Sc176 O186 2.105 . S
Sc176 O189 2.105 . S
Sc176 O192 2.105 . S
Sc176 O195 2.105 . S
Sc177 O179 2.025 . S
Sc177 O187 2.105 . S
Sc177 O191 2.105 . S
Sc177 O193 2.105 . S
Sc177 O197 2.105 . S
Sc178 O179 2.025 . S
Sc178 O188 2.105 . S
Sc178 O190 2.105 . S
Sc178 O194 2.105 . S
Sc178 O196 2.105 . S
O179 Sc176 2.025 . S
O179 Sc177 2.025 . S
O179 Sc178 2.025 . S
C180 O186 1.268 . S
C180 O196 1.268 . S
C181 O187 1.268 . S
C181 O195 1.268 . S
C182 O188 1.268 . S
C182 O197 1.268 . S
C183 O189 1.268 . S
C183 O193 1.268 . S
C184 O190 1.268 . S
C184 O192 1.268 . S
C185 O191 1.268 . S
C185 O194 1.268 . S
O186 Sc176 2.105 . S
O186 C180 1.268 . S
O187 Sc177 2.105 . S
O187 C181 1.268 . S
O188 Sc178 2.105 . S
O188 C182 1.268 . S
O189 Sc176 2.105 . S
O189 C183 1.268 . S
O190 Sc178 2.105 . S
O190 C184 1.268 . S
O191 Sc177 2.105 . S
O191 C185 1.268 . S
O192 Sc176 2.105 . S
O192 C184 1.268 . S
O193 Sc177 2.105 . S
O193 C183 1.268 . S
O194 Sc178 2.105 . S
O194 C185 1.268 . S
O195 Sc176 2.105 . S
O195 C181 1.268 . S
O196 Sc178 2.105 . S
O196 C180 1.268 . S
O197 Sc177 2.105 . S
O197 C182 1.268 . S
Sc198 O201 2.025 . S
Sc198 O208 2.105 . S
Sc198 O211 2.105 . S
Sc198 O214 2.105 . S
Sc198 O217 2.105 . S
Sc199 O201 2.025 . S
Sc199 O209 2.105 . S
Sc199 O213 2.105 . S
Sc199 O215 2.105 . S
Sc199 O219 2.105 . S
Sc200 O201 2.025 . S
Sc200 O210 2.105 . S
Sc200 O212 2.105 . S
Sc200 O216 2.105 . S
Sc200 O218 2.105 . S
O201 Sc198 2.025 . S
O201 Sc199 2.025 . S
O201 Sc200 2.025 . S
C202 O208 1.268 . S
C202 O218 1.268 . S
C203 O209 1.268 . S
C203 O217 1.268 . S
C204 O210 1.268 . S
C204 O219 1.268 . S
C205 O211 1.268 . S
C205 O215 1.268 . S
C206 O212 1.268 . S
C206 O214 1.268 . S
C207 O213 1.268 . S
C207 O216 1.268 . S
O208 Sc198 2.105 . S
O208 C202 1.268 . S
O209 Sc199 2.105 . S
O209 C203 1.268 . S
O210 Sc200 2.105 . S
O210 C204 1.268 . S
O211 Sc198 2.105 . S
O211 C205 1.268 . S
O212 Sc200 2.105 . S
O212 C206 1.268 . S
O213 Sc199 2.105 . S
O213 C207 1.268 . S
O214 Sc198 2.105 . S
O214 C206 1.268 . S
O215 Sc199 2.105 . S
O215 C205 1.268 . S
O216 Sc200 2.105 . S
O216 C207 1.268 . S
O217 Sc198 2.105 . S
O217 C203 1.268 . S
O218 Sc200 2.105 . S
O218 C202 1.268 . S
O219 Sc199 2.105 . S
O219 C204 1.268 . S
Sc220 O223 2.025 . S
Sc220 O230 2.105 . S
Sc220 O233 2.105 . S
Sc220 O236 2.105 . S
Sc220 O239 2.105 . S
Sc221 O223 2.025 . S
Sc221 O231 2.105 . S
Sc221 O235 2.105 . S
Sc221 O237 2.105 . S
Sc221 O241 2.105 . S
Sc222 O223 2.025 . S
Sc222 O232 2.105 . S
Sc222 O234 2.105 . S
Sc222 O238 2.105 . S
Sc222 O240 2.105 . S
O223 Sc220 2.025 . S
O223 Sc221 2.025 . S
O223 Sc222 2.025 . S
C224 O230 1.268 . S
C224 O240 1.268 . S
C225 O231 1.268 . S
C225 O239 1.268 . S
C226 O232 1.268 . S
C226 O241 1.268 . S
C227 O233 1.268 . S
C227 O237 1.268 . S
C228 O234 1.268 . S
C228 O236 1.268 . S
C229 O235 1.268 . S
C229 O238 1.268 . S
O230 Sc220 2.105 . S
O230 C224 1.268 . S
O231 Sc221 2.105 . S
O231 C225 1.268 . S
O232 Sc222 2.105 . S
O232 C226 1.268 . S
O233 Sc220 2.105 . S
O233 C227 1.268 . S
O234 Sc222 2.105 . S
O234 C228 1.268 . S
O235 Sc221 2.105 . S
O235 C229 1.268 . S
O236 Sc220 2.105 . S
O236 C228 1.268 . S
O237 Sc221 2.105 . S
O237 C227 1.268 . S
O238 Sc222 2.105 . S
O238 C229 1.268 . S
O239 Sc220 2.105 . S
O239 C225 1.268 . S
O240 Sc222 2.105 . S
O240 C224 1.268 . S
O241 Sc221 2.105 . S
O241 C226 1.268 . S
Sc242 O245 2.025 . S
Sc242 O252 2.105 . S
Sc242 O255 2.105 . S
Sc242 O258 2.105 . S
Sc242 O261 2.105 . S
Sc243 O245 2.025 . S
Sc243 O253 2.105 . S
Sc243 O257 2.105 . S
Sc243 O259 2.105 . S
Sc243 O263 2.105 . S
Sc244 O245 2.025 . S
Sc244 O254 2.105 . S
Sc244 O256 2.105 . S
Sc244 O260 2.105 . S
Sc244 O262 2.105 . S
O245 Sc242 2.025 . S
O245 Sc243 2.025 . S
O245 Sc244 2.025 . S
C246 O252 1.268 . S
C246 O262 1.268 . S
C247 O253 1.268 . S
C247 O261 1.268 . S
C248 O254 1.268 . S
C248 O263 1.268 . S
C249 O255 1.268 . S
C249 O259 1.268 . S
C250 O256 1.268 . S
C250 O258 1.268 . S
C251 O257 1.268 . S
C251 O260 1.268 . S
O252 Sc242 2.105 . S
O252 C246 1.268 . S
O253 Sc243 2.105 . S
O253 C247 1.268 . S
O254 Sc244 2.105 . S
O254 C248 1.268 . S
O255 Sc242 2.105 . S
O255 C249 1.268 . S
O256 Sc244 2.105 . S
O256 C250 1.268 . S
O257 Sc243 2.105 . S
O257 C251 1.268 . S
O258 Sc242 2.105 . S
O258 C250 1.268 . S
O259 Sc243 2.105 . S
O259 C249 1.268 . S
O260 Sc244 2.105 . S
O260 C251 1.268 . S
O261 Sc242 2.105 . S
O261 C247 1.268 . S
O262 Sc244 2.105 . S
O262 C246 1.268 . S
O263 Sc243 2.105 . S
O263 C248 1.268 . S
Sc264 O267 2.025 . S
Sc264 O274 2.105 . S
Sc264 O277 2.105 . S
Sc264 O280 2.105 . S
Sc264 O283 2.105 . S
Sc265 O267 2.025 . S
Sc265 O275 2.105 . S
Sc265 O279 2.105 . S
Sc265 O281 2.105 . S
Sc265 O285 2.105 . S
Sc266 O267 2.025 . S
Sc266 O276 2.105 . S
Sc266 O278 2.105 . S
Sc266 O282 2.105 . S
Sc266 O284 2.105 . S
O267 Sc264 2.025 . S
O267 Sc265 2.025 . S
O267 Sc266 2.025 . S
C268 O274 1.268 . S
C268 O284 1.268 . S
C269 O275 1.268 . S
C269 O283 1.268 . S
C270 O276 1.268 . S
C270 O285 1.268 . S
C271 O277 1.268 . S
C271 O281 1.268 . S
C272 O278 1.268 . S
C272 O280 1.268 . S
C273 O279 1.268 . S
C273 O282 1.268 . S
O274 Sc264 2.105 . S
O274 C268 1.268 . S
O275 Sc265 2.105 . S
O275 C269 1.268 . S
O276 Sc266 2.105 . S
O276 C270 1.268 . S
O277 Sc264 2.105 . S
O277 C271 1.268 . S
O278 Sc266 2.105 . S
O278 C272 1.268 . S
O279 Sc265 2.105 . S
O279 C273 1.268 . S
O280 Sc264 2.105 . S
O280 C272 1.268 . S
O281 Sc265 2.105 . S
O281 C271 1.268 . S
O282 Sc266 2.105 . S
O282 C273 1.268 . S
O283 Sc264 2.105 . S
O283 C269 1.268 . S
O284 Sc266 2.105 . S
O284 C268 1.268 . S
O285 Sc265 2.105 . S
O285 C270 1.268 . S
Sc286 O289 2.025 . S
Sc286 O296 2.105 . S
Sc286 O299 2.105 . S
Sc286 O302 2.105 . S
Sc286 O305 2.105 . S
Sc287 O289 2.025 . S
Sc287 O297 2.105 . S
Sc287 O301 2.105 . S
Sc287 O303 2.105 . S
Sc287 O307 2.105 . S
Sc288 O289 2.025 . S
Sc288 O298 2.105 . S
Sc288 O300 2.105 . S
Sc288 O304 2.105 . S
Sc288 O306 2.105 . S
O289 Sc286 2.025 . S
O289 Sc287 2.025 . S
O289 Sc288 2.025 . S
C290 O296 1.268 . S
C290 O306 1.268 . S
C291 O297 1.268 . S
C291 O305 1.268 . S
C292 O298 1.268 . S
C292 O307 1.268 . S
C293 O299 1.268 . S
C293 O303 1.268 . S
C294 O300 1.268 . S
C294 O302 1.268 . S
C295 O301 1.268 . S
C295 O304 1.268 . S
O296 Sc286 2.105 . S
O296 C290 1.268 . S
O297 Sc287 2.105 . S
O297 C291 1.268 . S
O298 Sc288 2.105 . S
O298 C292 1.268 . S
O299 Sc286 2.105 . S
O299 C293 1.268 . S
O300 Sc288 2.105 . S
O300 C294 1.268 . S
O301 Sc287 2.105 . S
O301 C295 1.268 . S
O302 Sc286 2.105 . S
O302 C294 1.268 . S
O303 Sc287 2.105 . S
O303 C293 1.268 . S
O304 Sc288 2.105 . S
O304 C295 1.268 . S
O305 Sc286 2.105 . S
O305 C291 1.268 . S
O306 Sc288 2.105 . S
O306 C290 1.268 . S
O307 Sc287 2.105 . S
O307 C292 1.268 . S
Sc308 O311 2.025 . S
Sc308 O318 2.105 . S
Sc308 O321 2.105 . S
Sc308 O324 2.105 . S
Sc308 O327 2.105 . S
Sc309 O311 2.025 . S
Sc309 O319 2.105 . S
Sc309 O323 2.105 . S
Sc309 O325 2.105 . S
Sc309 O329 2.105 . S
Sc310 O311 2.025 . S
Sc310 O320 2.105 . S
Sc310 O322 2.105 . S
Sc310 O326 2.105 . S
Sc310 O328 2.105 . S
O311 Sc308 2.025 . S
O311 Sc309 2.025 . S
O311 Sc310 2.025 . S
C312 O318 1.268 . S
C312 O328 1.268 . S
C313 O319 1.268 . S
C313 O327 1.268 . S
C314 O320 1.268 . S
C314 O329 1.268 . S
C315 O321 1.268 . S
C315 O325 1.268 . S
C316 O322 1.268 . S
C316 O324 1.268 . S
C317 O323 1.268 . S
C317 O326 1.268 . S
O318 Sc308 2.105 . S
O318 C312 1.268 . S
O319 Sc309 2.105 . S
O319 C313 1.268 . S
O320 Sc310 2.105 . S
O320 C314 1.268 . S
O321 Sc308 2.105 . S
O321 C315 1.268 . S
O322 Sc310 2.105 . S
O322 C316 1.268 . S
O323 Sc309 2.105 . S
O323 C317 1.268 . S
O324 Sc308 2.105 . S
O324 C316 1.268 . S
O325 Sc309 2.105 . S
O325 C315 1.268 . S
O326 Sc310 2.105 . S
O326 C317 1.268 . S
O327 Sc308 2.105 . S
O327 C313 1.268 . S
O328 Sc310 2.105 . S
O328 C312 1.268 . S
O329 Sc309 2.105 . S
O329 C314 1.268 . S
Sc330 O333 2.025 . S
Sc330 O340 2.105 . S
Sc330 O343 2.105 . S
Sc330 O346 2.105 . S
Sc330 O349 2.105 . S
Sc331 O333 2.025 . S
Sc331 O341 2.105 . S
Sc331 O345 2.105 . S
Sc331 O347 2.105 . S
Sc331 O351 2.105 . S
Sc332 O333 2.025 . S
Sc332 O342 2.105 . S
Sc332 O344 2.105 . S
Sc332 O348 2.105 . S
Sc332 O350 2.105 . S
O333 Sc330 2.025 . S
O333 Sc331 2.025 . S
O333 Sc332 2.025 . S
C334 O340 1.268 . S
C334 O350 1.268 . S
C335 O341 1.268 . S
C335 O349 1.268 . S
C336 O342 1.268 . S
C336 O351 1.268 . S
C337 O343 1.268 . S
C337 O347 1.268 . S
C338 O344 1.268 . S
C338 O346 1.268 . S
C339 O345 1.268 . S
C339 O348 1.268 . S
O340 Sc330 2.105 . S
O340 C334 1.268 . S
O341 Sc331 2.105 . S
O341 C335 1.268 . S
O342 Sc332 2.105 . S
O342 C336 1.268 . S
O343 Sc330 2.105 . S
O343 C337 1.268 . S
O344 Sc332 2.105 . S
O344 C338 1.268 . S
O345 Sc331 2.105 . S
O345 C339 1.268 . S
O346 Sc330 2.105 . S
O346 C338 1.268 . S
O347 Sc331 2.105 . S
O347 C337 1.268 . S
O348 Sc332 2.105 . S
O348 C339 1.268 . S
O349 Sc330 2.105 . S
O349 C335 1.268 . S
O350 Sc332 2.105 . S
O350 C334 1.268 . S
O351 Sc331 2.105 . S
O351 C336 1.268 . S
H352 C364 0.930 . S
H353 C366 0.930 . S
H354 C367 0.930 . S
H355 C371 0.959 1_556 S
H356 C371 0.959 . S
H357 C371 0.961 . S
H358 C372 0.960 . S
H359 C372 0.961 1_565 S
H360 C372 0.959 1_565 S
H361 C375 0.934 . S
H362 C376 0.931 . S
H363 C378 0.930 . S
C364 H352 0.930 . S
C364 C365 1.399 . S
C364 C369 1.399 . S
C365 C364 1.399 . S
C365 C366 1.376 . S
C366 H353 0.930 . S
C366 C365 1.376 . S
C366 C367 1.388 . S
C367 H354 0.930 . S
C367 C366 1.388 . S
C367 C368 1.390 . S
C368 C367 1.390 . S
C368 C369 1.394 . S
C368 C374 1.465 . S
C369 C364 1.399 . S
C369 C368 1.394 . S
C369 C370 1.516 . S
C370 C369 1.516 . S
C370 C371 1.502 . S
C370 C372 1.561 . S
C370 C373 1.526 . S
C371 H355 0.959 1_554 S
C371 H356 0.959 . S
C371 H357 0.961 . S
C371 C370 1.502 . S
C372 H358 0.960 . S
C372 H359 0.961 1_545 S
C372 H360 0.959 1_545 S
C372 C370 1.561 . S
C373 C370 1.526 . S
C373 C374 1.396 . S
C373 C378 1.390 1_544 S
C374 C368 1.465 . S
C374 C373 1.396 . S
C374 C375 1.399 1_554 S
C375 H361 0.934 . S
C375 C374 1.399 1_556 S
C375 C376 1.385 1_545 S
C376 H362 0.931 . S
C376 C375 1.385 1_565 S
C376 C377 1.389 . S
C377 C376 1.389 . S
C377 C378 1.387 . S
C378 H363 0.930 . S
C378 C373 1.390 1_566 S
C378 C377 1.387 . S
H379 C391 0.930 . S
H380 C393 0.930 . S
H381 C394 0.930 . S
H382 C398 0.959 . S
H383 C398 0.959 . S
H384 C398 0.961 1_545 S
H385 C399 0.960 . S
H386 C399 0.961 1_565 S
H387 C399 0.959 1_565 S
H388 C402 0.929 1_556 S
H389 C403 0.931 . S
H390 C405 0.930 . S
C391 H379 0.930 . S
C391 C392 1.399 1_554 S
C391 C396 1.399 . S
C392 C391 1.399 1_556 S
C392 C393 1.376 . S
C393 H380 0.930 . S
C393 C392 1.376 . S
C393 C394 1.388 1_545 S
C394 H381 0.930 . S
C394 C393 1.388 1_565 S
C394 C395 1.390 . S
C395 C394 1.390 . S
C395 C396 1.394 1_566 S
C395 C401 1.465 1_556 S
C396 C391 1.399 . S
C396 C395 1.394 1_544 S
C396 C397 1.516 1_545 S
C397 C396 1.516 1_565 S
C397 C398 1.502 . S
C397 C399 1.561 1_565 S
C397 C400 1.526 . S
C398 H382 0.959 . S
C398 H383 0.959 . S
C398 H384 0.961 1_565 S
C398 C397 1.502 . S
C399 H385 0.960 . S
C399 H386 0.961 1_545 S
C399 H387 0.959 1_545 S
C399 C397 1.561 1_545 S
C400 C397 1.526 . S
C400 C401 1.396 . S
C400 C405 1.390 . S
C401 C395 1.465 1_554 S
C401 C400 1.396 . S
C401 C402 1.399 . S
C402 H388 0.929 1_554 S
C402 C401 1.399 . S
C402 C403 1.385 . S
C403 H389 0.931 . S
C403 C402 1.385 . S
C403 C404 1.389 . S
C404 C403 1.389 . S
C404 C405 1.387 . S
C405 H390 0.930 . S
C405 C400 1.390 . S
C405 C404 1.387 . S
H406 C418 0.930 . S
H407 C420 0.930 . S
H408 C421 0.930 . S
H409 C425 0.959 . S
H410 C425 0.959 . S
H411 C425 0.961 . S
H412 C426 0.960 . S
H413 C426 0.961 . S
H414 C426 0.959 . S
H415 C429 0.929 . S
H416 C430 0.931 . S
H417 C432 0.930 . S
C418 H406 0.930 . S
C418 C419 1.399 . S
C418 C423 1.399 1_545 S
C419 C418 1.399 . S
C419 C420 1.376 . S
C420 H407 0.930 . S
C420 C419 1.376 . S
C420 C421 1.388 . S
C421 H408 0.930 . S
C421 C420 1.388 . S
C421 C422 1.390 1_545 S
C422 C421 1.390 1_565 S
C422 C423 1.394 . S
C422 C428 1.465 . S
C423 C418 1.399 1_565 S
C423 C422 1.394 . S
C423 C424 1.516 . S
C424 C423 1.516 . S
C424 C425 1.502 . S
C424 C426 1.561 . S
C424 C427 1.526 . S
C425 H409 0.959 . S
C425 H410 0.959 . S
C425 H411 0.961 . S
C425 C424 1.502 . S
C426 H412 0.960 . S
C426 H413 0.961 . S
C426 H414 0.959 . S
C426 C424 1.561 . S
C427 C424 1.526 . S
C427 C428 1.396 . S
C427 C432 1.390 . S
C428 C422 1.465 . S
C428 C427 1.396 . S
C428 C429 1.399 . S
C429 H415 0.929 . S
C429 C428 1.399 . S
C429 C430 1.385 . S
C430 H416 0.931 . S
C430 C429 1.385 . S
C430 C431 1.389 . S
C431 C430 1.389 . S
C431 C432 1.387 . S
C432 H417 0.930 . S
C432 C427 1.390 . S
C432 C431 1.387 . S
H433 C445 0.930 . S
H434 C447 0.930 . S
H435 C448 0.930 . S
H436 C452 0.959 . S
H437 C452 0.959 . S
H438 C452 0.961 . S
H439 C453 0.960 . S
H440 C453 0.961 . S
H441 C453 0.959 . S
H442 C456 0.929 . S
H443 C457 0.931 . S
H444 C459 0.930 . S
C445 H433 0.930 . S
C445 C446 1.399 . S
C445 C450 1.399 1_565 S
C446 C445 1.399 . S
C446 C447 1.376 . S
C447 H434 0.930 . S
C447 C446 1.376 . S
C447 C448 1.388 . S
C448 H435 0.930 . S
C448 C447 1.388 . S
C448 C449 1.390 1_565 S
C449 C448 1.390 1_545 S
C449 C450 1.394 . S
C449 C455 1.465 . S
C450 C445 1.399 1_545 S
C450 C449 1.394 . S
C450 C451 1.516 . S
C451 C450 1.516 . S
C451 C452 1.502 . S
C451 C453 1.561 . S
C451 C454 1.526 . S
C452 H436 0.959 . S
C452 H437 0.959 . S
C452 H438 0.961 . S
C452 C451 1.502 . S
C453 H439 0.960 . S
C453 H440 0.961 . S
C453 H441 0.959 . S
C453 C451 1.561 . S
C454 C451 1.526 . S
C454 C455 1.396 . S
C454 C459 1.390 . S
C455 C449 1.465 . S
C455 C454 1.396 . S
C455 C456 1.399 . S
C456 H442 0.929 . S
C456 C455 1.399 . S
C456 C457 1.385 . S
C457 H443 0.931 . S
C457 C456 1.385 . S
C457 C458 1.389 . S
C458 C457 1.389 . S
C458 C459 1.387 . S
C459 H444 0.930 . S
C459 C454 1.390 . S
C459 C458 1.387 . S
H460 C472 0.930 . S
H461 C474 0.930 1_556 S
H462 C475 0.930 . S
H463 C479 0.959 1_556 S
H464 C479 0.959 . S
H465 C479 0.961 . S
H466 C480 0.960 . S
H467 C480 0.961 . S
H468 C480 0.959 . S
H469 C483 0.929 . S
H470 C484 0.931 . S
H471 C486 0.930 . S
C472 H460 0.930 . S
C472 C473 1.399 . S
C472 C477 1.399 1_545 S
C473 C472 1.399 . S
C473 C474 1.375 . S
C474 H461 0.930 1_554 S
C474 C473 1.375 . S
C474 C475 1.390 1_554 S
C475 H462 0.930 . S
C475 C474 1.390 1_556 S
C475 C476 1.390 1_545 S
C476 C475 1.390 1_565 S
C476 C477 1.394 1_556 S
C476 C482 1.465 . S
C477 C472 1.399 1_565 S
C477 C476 1.394 1_554 S
C477 C478 1.516 . S
C478 C477 1.516 . S
C478 C479 1.502 . S
C478 C480 1.561 . S
C478 C481 1.526 1_554 S
C479 H463 0.959 1_554 S
C479 H464 0.959 . S
C479 H465 0.961 . S
C479 C478 1.502 . S
C480 H466 0.960 . S
C480 H467 0.961 . S
C480 H468 0.959 . S
C480 C478 1.561 . S
C481 C478 1.526 1_556 S
C481 C482 1.396 . S
C481 C486 1.390 . S
C482 C476 1.465 . S
C482 C481 1.396 . S
C482 C483 1.399 . S
C483 H469 0.929 . S
C483 C482 1.399 . S
C483 C484 1.385 . S
C484 H470 0.931 . S
C484 C483 1.385 . S
C484 C485 1.389 . S
C485 C484 1.389 . S
C485 C486 1.387 . S
C486 H471 0.930 . S
C486 C481 1.390 . S
C486 C485 1.387 . S
H487 C499 0.930 . S
H488 C501 0.930 . S
H489 C502 0.930 . S
H490 C506 0.959 . S
H491 C506 0.959 . S
H492 C506 0.961 1_556 S
H493 C507 0.960 . S
H494 C507 0.961 . S
H495 C507 0.959 . S
H496 C510 0.929 . S
H497 C511 0.931 . S
H498 C513 0.930 . S
C499 H487 0.930 . S
C499 C500 1.399 . S
C499 C504 1.399 . S
C500 C499 1.399 . S
C500 C501 1.376 . S
C501 H488 0.930 . S
C501 C500 1.376 . S
C501 C502 1.388 . S
C502 H489 0.930 . S
C502 C501 1.388 . S
C502 C503 1.390 . S
C503 C502 1.390 . S
C503 C504 1.394 . S
C503 C509 1.465 . S
C504 C499 1.399 . S
C504 C503 1.394 . S
C504 C505 1.516 . S
C505 C504 1.516 . S
C505 C506 1.502 1_556 S
C505 C507 1.561 . S
C505 C508 1.526 . S
C506 H490 0.959 . S
C506 H491 0.959 . S
C506 H492 0.961 1_554 S
C506 C505 1.502 1_554 S
C507 H493 0.960 . S
C507 H494 0.961 . S
C507 H495 0.959 . S
C507 C505 1.561 . S
C508 C505 1.526 . S
C508 C509 1.396 . S
C508 C513 1.390 1_546 S
C509 C503 1.465 . S
C509 C508 1.396 . S
C509 C510 1.399 1_545 S
C510 H496 0.929 . S
C510 C509 1.399 1_565 S
C510 C511 1.385 1_556 S
C511 H497 0.931 . S
C511 C510 1.385 1_554 S
C511 C512 1.389 . S
C512 C511 1.389 . S
C512 C513 1.387 . S
C513 H498 0.930 . S
C513 C508 1.390 1_564 S
C513 C512 1.387 . S
H514 C526 0.930 . S
H515 C528 0.930 . S
H516 C529 0.930 . S
H517 C533 0.959 . S
H518 C533 0.959 . S
H519 C533 0.961 1_565 S
H520 C534 0.960 . S
H521 C534 0.961 1_545 S
H522 C534 0.959 1_545 S
H523 C537 0.929 . S
H524 C538 0.931 . S
H525 C540 0.930 . S
C526 H514 0.930 . S
C526 C527 1.399 . S
C526 C531 1.399 . S
C527 C526 1.399 . S
C527 C528 1.376 . S
C528 H515 0.930 . S
C528 C527 1.376 . S
C528 C529 1.388 1_565 S
C529 H516 0.930 . S
C529 C528 1.388 1_545 S
C529 C530 1.390 . S
C530 C529 1.390 . S
C530 C531 1.394 1_545 S
C530 C536 1.465 . S
C531 C526 1.399 . S
C531 C530 1.394 1_565 S
C531 C532 1.516 1_565 S
C532 C531 1.516 1_545 S
C532 C533 1.502 . S
C532 C534 1.561 1_545 S
C532 C535 1.526 . S
C533 H517 0.959 . S
C533 H518 0.959 . S
C533 H519 0.961 1_545 S
C533 C532 1.502 . S
C534 H520 0.960 . S
C534 H521 0.961 1_565 S
C534 H522 0.959 1_565 S
C534 C532 1.561 1_565 S
C535 C532 1.526 . S
C535 C536 1.396 . S
C535 C540 1.390 . S
C536 C530 1.465 . S
C536 C535 1.396 . S
C536 C537 1.399 . S
C537 H523 0.929 . S
C537 C536 1.399 . S
C537 C538 1.385 . S
C538 H524 0.931 . S
C538 C537 1.385 . S
C538 C539 1.389 . S
C539 C538 1.389 . S
C539 C540 1.387 . S
C540 H525 0.930 . S
C540 C535 1.390 . S
C540 C539 1.387 . S
H541 C553 0.930 . S
H542 C555 0.930 . S
H543 C556 0.930 . S
H544 C560 0.959 . S
H545 C560 0.959 . S
H546 C560 0.961 . S
H547 C561 0.960 1_565 S
H548 C561 0.961 . S
H549 C561 0.959 . S
H550 C564 0.929 . S
H551 C565 0.931 . S
H552 C567 0.930 . S
C553 H541 0.930 . S
C553 C554 1.399 . S
C553 C558 1.399 . S
C554 C553 1.399 . S
C554 C555 1.376 . S
C555 H542 0.930 . S
C555 C554 1.376 . S
C555 C556 1.388 . S
C556 H543 0.930 . S
C556 C555 1.388 . S
C556 C557 1.390 . S
C557 C556 1.390 . S
C557 C558 1.394 . S
C557 C563 1.465 . S
C558 C553 1.399 . S
C558 C557 1.394 . S
C558 C559 1.516 . S
C559 C558 1.516 . S
C559 C560 1.502 . S
C559 C561 1.561 1_565 S
C559 C562 1.526 . S
C560 H544 0.959 . S
C560 H545 0.959 . S
C560 H546 0.961 . S
C560 C559 1.502 . S
C561 H547 0.960 1_545 S
C561 H548 0.961 . S
C561 H549 0.959 . S
C561 C559 1.561 1_545 S
C562 C559 1.526 . S
C562 C563 1.396 . S
C562 C567 1.390 1_565 S
C563 C557 1.465 . S
C563 C562 1.396 . S
C563 C564 1.399 . S
C564 H550 0.929 . S
C564 C563 1.399 . S
C564 C565 1.385 1_565 S
C565 H551 0.931 . S
C565 C564 1.385 1_545 S
C565 C566 1.389 . S
C566 C565 1.389 . S
C566 C567 1.387 . S
C567 H552 0.930 . S
C567 C562 1.390 1_545 S
C567 C566 1.387 . S
H568 C580 0.930 . S
H569 C582 0.930 1_554 S
H570 C583 0.930 . S
H571 C587 0.959 1_554 S
H572 C587 0.959 . S
H573 C587 0.961 . S
H574 C588 0.960 . S
H575 C588 0.961 . S
H576 C588 0.959 . S
H577 C591 0.929 . S
H578 C592 0.931 . S
H579 C594 0.930 . S
C580 H568 0.930 . S
C580 C581 1.399 . S
C580 C585 1.399 . S
C581 C580 1.399 . S
C581 C582 1.375 . S
C582 H569 0.930 1_556 S
C582 C581 1.375 . S
C582 C583 1.390 1_556 S
C583 H570 0.930 . S
C583 C582 1.390 1_554 S
C583 C584 1.390 . S
C584 C583 1.390 . S
C584 C585 1.394 1_554 S
C584 C590 1.465 . S
C585 C580 1.399 . S
C585 C584 1.394 1_556 S
C585 C586 1.516 . S
C586 C585 1.516 . S
C586 C587 1.502 . S
C586 C588 1.561 . S
C586 C589 1.526 1_556 S
C587 H571 0.959 1_556 S
C587 H572 0.959 . S
C587 H573 0.961 . S
C587 C586 1.502 . S
C588 H574 0.960 . S
C588 H575 0.961 . S
C588 H576 0.959 . S
C588 C586 1.561 . S
C589 C586 1.526 1_554 S
C589 C590 1.396 . S
C589 C594 1.390 . S
C590 C584 1.465 . S
C590 C589 1.396 . S
C590 C591 1.399 . S
C591 H577 0.929 . S
C591 C590 1.399 . S
C591 C592 1.385 . S
C592 H578 0.931 . S
C592 C591 1.385 . S
C592 C593 1.389 . S
C593 C592 1.389 . S
C593 C594 1.387 . S
C594 H579 0.930 . S
C594 C589 1.390 . S
C594 C593 1.387 . S
H595 C607 0.930 . S
H596 C609 0.930 . S
H597 C610 0.930 1_556 S
H598 C614 0.959 . S
H599 C614 0.959 . S
H600 C614 0.961 . S
H601 C615 0.960 . S
H602 C615 0.961 . S
H603 C615 0.959 . S
H604 C618 0.929 . S
H605 C619 0.931 . S
H606 C621 0.930 . S
C607 H595 0.930 . S
C607 C608 1.399 . S
C607 C612 1.399 . S
C608 C607 1.399 . S
C608 C609 1.376 . S
C609 H596 0.930 . S
C609 C608 1.376 . S
C609 C610 1.388 . S
C610 H597 0.930 1_554 S
C610 C609 1.388 . S
C610 C611 1.390 . S
C611 C610 1.390 . S
C611 C612 1.394 . S
C611 C617 1.465 1_554 S
C612 C607 1.399 . S
C612 C611 1.394 . S
C612 C613 1.516 . S
C613 C612 1.516 . S
C613 C614 1.502 . S
C613 C615 1.561 . S
C613 C616 1.526 . S
C614 H598 0.959 . S
C614 H599 0.959 . S
C614 H600 0.961 . S
C614 C613 1.502 . S
C615 H601 0.960 . S
C615 H602 0.961 . S
C615 H603 0.959 . S
C615 C613 1.561 . S
C616 C613 1.526 . S
C616 C617 1.396 1_554 S
C616 C621 1.390 . S
C617 C611 1.465 1_556 S
C617 C616 1.396 1_556 S
C617 C618 1.399 . S
C618 H604 0.929 . S
C618 C617 1.399 . S
C618 C619 1.385 . S
C619 H605 0.931 . S
C619 C618 1.385 . S
C619 C620 1.389 . S
C620 C619 1.389 . S
C620 C621 1.387 1_556 S
C621 H606 0.930 . S
C621 C616 1.390 . S
C621 C620 1.387 1_554 S
H622 C634 0.930 . S
H623 C636 0.930 . S
H624 C637 0.930 . S
H625 C641 0.959 . S
H626 C641 0.959 . S
H627 C641 0.961 . S
H628 C642 0.960 . S
H629 C642 0.961 . S
H630 C642 0.959 . S
H631 C645 0.929 . S
H632 C646 0.931 . S
H633 C648 0.930 . S
C634 H622 0.930 . S
C634 C635 1.399 . S
C634 C639 1.399 . S
C635 C634 1.399 . S
C635 C636 1.376 . S
C636 H623 0.930 . S
C636 C635 1.376 . S
C636 C637 1.388 . S
C637 H624 0.930 . S
C637 C636 1.388 . S
C637 C638 1.390 . S
C638 C637 1.390 . S
C638 C639 1.394 . S
C638 C644 1.465 . S
C639 C634 1.399 . S
C639 C638 1.394 . S
C639 C640 1.516 . S
C640 C639 1.516 . S
C640 C641 1.502 . S
C640 C642 1.561 . S
C640 C643 1.526 . S
C641 H625 0.959 . S
C641 H626 0.959 . S
C641 H627 0.961 . S
C641 C640 1.502 . S
C642 H628 0.960 . S
C642 H629 0.961 . S
C642 H630 0.959 . S
C642 C640 1.561 . S
C643 C640 1.526 . S
C643 C644 1.396 . S
C643 C648 1.390 . S
C644 C638 1.465 . S
C644 C643 1.396 . S
C644 C645 1.399 . S
C645 H631 0.929 . S
C645 C644 1.399 . S
C645 C646 1.385 . S
C646 H632 0.931 . S
C646 C645 1.385 . S
C646 C647 1.389 . S
C647 C646 1.389 . S
C647 C648 1.387 . S
C648 H633 0.930 . S
C648 C643 1.390 . S
C648 C647 1.387 . S
H649 C661 0.930 . S
H650 C663 0.930 . S
H651 C664 0.930 . S
H652 C668 0.959 . S
H653 C668 0.959 . S
H654 C668 0.961 . S
H655 C669 0.960 . S
H656 C669 0.961 . S
H657 C669 0.959 . S
H658 C672 0.929 . S
H659 C673 0.931 . S
H660 C675 0.930 . S
C661 H649 0.930 . S
C661 C662 1.399 . S
C661 C666 1.399 . S
C662 C661 1.399 . S
C662 C663 1.376 . S
C663 H650 0.930 . S
C663 C662 1.376 . S
C663 C664 1.388 . S
C664 H651 0.930 . S
C664 C663 1.388 . S
C664 C665 1.390 . S
C665 C664 1.390 . S
C665 C666 1.394 . S
C665 C671 1.465 . S
C666 C661 1.399 . S
C666 C665 1.394 . S
C666 C667 1.516 . S
C667 C666 1.516 . S
C667 C668 1.502 . S
C667 C669 1.561 . S
C667 C670 1.526 . S
C668 H652 0.959 . S
C668 H653 0.959 . S
C668 H654 0.961 . S
C668 C667 1.502 . S
C669 H655 0.960 . S
C669 H656 0.961 . S
C669 H657 0.959 . S
C669 C667 1.561 . S
C670 C667 1.526 . S
C670 C671 1.396 . S
C670 C675 1.390 . S
C671 C665 1.465 . S
C671 C670 1.396 . S
C671 C672 1.399 . S
C672 H658 0.929 . S
C672 C671 1.399 . S
C672 C673 1.385 . S
C673 H659 0.931 . S
C673 C672 1.385 . S
C673 C674 1.389 . S
C674 C673 1.389 . S
C674 C675 1.387 . S
C675 H660 0.930 . S
C675 C670 1.390 . S
C675 C674 1.387 . S
H676 C688 0.930 . S
H677 C690 0.930 . S
H678 C691 0.930 . S
H679 C695 0.959 . S
H680 C695 0.959 . S
H681 C695 0.961 . S
H682 C696 0.960 . S
H683 C696 0.961 . S
H684 C696 0.959 . S
H685 C699 0.929 . S
H686 C700 0.931 . S
H687 C702 0.930 1_556 S
C688 H676 0.930 . S
C688 C689 1.399 . S
C688 C693 1.399 . S
C689 C688 1.399 . S
C689 C690 1.376 . S
C690 H677 0.930 . S
C690 C689 1.376 . S
C690 C691 1.388 . S
C691 H678 0.930 . S
C691 C690 1.388 . S
C691 C692 1.390 . S
C692 C691 1.390 . S
C692 C693 1.394 . S
C692 C698 1.465 . S
C693 C688 1.399 . S
C693 C692 1.394 . S
C693 C694 1.516 . S
C694 C693 1.516 . S
C694 C695 1.502 . S
C694 C696 1.561 . S
C694 C697 1.526 . S
C695 H679 0.959 . S
C695 H680 0.959 . S
C695 H681 0.961 . S
C695 C694 1.502 . S
C696 H682 0.960 . S
C696 H683 0.961 . S
C696 H684 0.959 . S
C696 C694 1.561 . S
C697 C694 1.526 . S
C697 C698 1.396 . S
C697 C702 1.390 1_556 S
C698 C692 1.465 . S
C698 C697 1.396 . S
C698 C699 1.399 1_556 S
C699 H685 0.929 . S
C699 C698 1.399 1_554 S
C699 C700 1.385 . S
C700 H686 0.931 . S
C700 C699 1.385 . S
C700 C701 1.389 . S
C701 C700 1.389 . S
C701 C702 1.387 . S
C702 H687 0.930 1_554 S
C702 C697 1.390 1_554 S
C702 C701 1.387 . S
H703 C715 0.930 . S
H704 C717 0.930 . S
H705 C718 0.930 . S
H706 C722 0.959 . S
H707 C722 0.959 . S
H708 C722 0.961 . S
H709 C723 0.960 . S
H710 C723 0.961 . S
H711 C723 0.959 . S
H712 C726 0.929 1_554 S
H713 C727 0.931 . S
H714 C729 0.930 . S
C715 H703 0.930 . S
C715 C716 1.399 1_556 S
C715 C720 1.399 . S
C716 C715 1.399 1_554 S
C716 C717 1.376 . S
C717 H704 0.930 . S
C717 C716 1.376 . S
C717 C718 1.388 . S
C718 H705 0.930 . S
C718 C717 1.388 . S
C718 C719 1.385 1_554 S
C719 C718 1.385 1_556 S
C719 C720 1.396 . S
C719 C725 1.468 . S
C720 C715 1.399 . S
C720 C719 1.396 . S
C720 C721 1.516 . S
C721 C720 1.516 . S
C721 C722 1.502 . S
C721 C723 1.561 . S
C721 C724 1.526 . S
C722 H706 0.959 . S
C722 H707 0.959 . S
C722 H708 0.961 . S
C722 C721 1.502 . S
C723 H709 0.960 . S
C723 H710 0.961 . S
C723 H711 0.959 . S
C723 C721 1.561 . S
C724 C721 1.526 . S
C724 C725 1.396 . S
C724 C729 1.390 . S
C725 C719 1.468 . S
C725 C724 1.396 . S
C725 C726 1.399 . S
C726 H712 0.929 1_556 S
C726 C725 1.399 . S
C726 C727 1.385 . S
C727 H713 0.931 . S
C727 C726 1.385 . S
C727 C728 1.389 . S
C728 C727 1.389 . S
C728 C729 1.387 . S
C729 H714 0.930 . S
C729 C724 1.390 . S
C729 C728 1.387 . S
H730 C742 0.930 . S
H731 C744 0.930 . S
H732 C745 0.930 . S
H733 C749 0.959 . S
H734 C749 0.959 . S
H735 C749 0.961 . S
H736 C750 0.960 . S
H737 C750 0.961 . S
H738 C750 0.959 . S
H739 C753 0.929 . S
H740 C754 0.931 . S
H741 C756 0.930 . S
C742 H730 0.930 . S
C742 C743 1.399 . S
C742 C747 1.399 . S
C743 C742 1.399 . S
C743 C744 1.376 . S
C744 H731 0.930 . S
C744 C743 1.376 . S
C744 C745 1.388 . S
C745 H732 0.930 . S
C745 C744 1.388 . S
C745 C746 1.390 . S
C746 C745 1.390 . S
C746 C747 1.394 . S
C746 C752 1.465 . S
C747 C742 1.399 . S
C747 C746 1.394 . S
C747 C748 1.516 . S
C748 C747 1.516 . S
C748 C749 1.502 . S
C748 C750 1.561 . S
C748 C751 1.526 . S
C749 H733 0.959 . S
C749 H734 0.959 . S
C749 H735 0.961 . S
C749 C748 1.502 . S
C750 H736 0.960 . S
C750 H737 0.961 . S
C750 H738 0.959 . S
C750 C748 1.561 . S
C751 C748 1.526 . S
C751 C752 1.396 . S
C751 C756 1.390 . S
C752 C746 1.465 . S
C752 C751 1.396 . S
C752 C753 1.399 . S
C753 H739 0.929 . S
C753 C752 1.399 . S
C753 C754 1.385 . S
C754 H740 0.931 . S
C754 C753 1.385 . S
C754 C755 1.389 . S
C755 C754 1.389 . S
C755 C756 1.387 . S
C756 H741 0.930 . S
C756 C751 1.390 . S
C756 C755 1.387 . S
H757 C769 0.930 . S
H758 C771 0.930 . S
H759 C772 0.930 . S
H760 C776 0.959 . S
H761 C776 0.959 . S
H762 C776 0.961 . S
H763 C777 0.960 . S
H764 C777 0.961 . S
H765 C777 0.959 . S
H766 C780 0.929 . S
H767 C781 0.931 . S
H768 C783 0.930 . S
C769 H757 0.930 . S
C769 C770 1.399 . S
C769 C774 1.399 . S
C770 C769 1.399 . S
C770 C771 1.376 . S
C771 H758 0.930 . S
C771 C770 1.376 . S
C771 C772 1.388 . S
C772 H759 0.930 . S
C772 C771 1.388 . S
C772 C773 1.390 . S
C773 C772 1.390 . S
C773 C774 1.394 . S
C773 C779 1.465 . S
C774 C769 1.399 . S
C774 C773 1.394 . S
C774 C775 1.516 . S
C775 C774 1.516 . S
C775 C776 1.502 . S
C775 C777 1.561 . S
C775 C778 1.526 . S
C776 H760 0.959 . S
C776 H761 0.959 . S
C776 H762 0.961 . S
C776 C775 1.502 . S
C777 H763 0.960 . S
C777 H764 0.961 . S
C777 H765 0.959 . S
C777 C775 1.561 . S
C778 C775 1.526 . S
C778 C779 1.396 . S
C778 C783 1.390 . S
C779 C773 1.465 . S
C779 C778 1.396 . S
C779 C780 1.399 . S
C780 H766 0.929 . S
C780 C779 1.399 . S
C780 C781 1.385 . S
C781 H767 0.931 . S
C781 C780 1.385 . S
C781 C782 1.389 . S
C782 C781 1.389 . S
C782 C783 1.387 . S
C783 H768 0.930 . S
C783 C778 1.390 . S
C783 C782 1.387 . S
H784 C796 0.930 . S
H785 C798 0.930 . S
H786 C799 0.930 . S
H787 C803 0.959 . S
H788 C803 0.959 . S
H789 C803 0.961 . S
H790 C804 0.960 . S
H791 C804 0.961 . S
H792 C804 0.959 . S
H793 C807 0.929 . S
H794 C808 0.931 . S
H795 C810 0.930 . S
C796 H784 0.930 . S
C796 C797 1.399 . S
C796 C801 1.399 . S
C797 C796 1.399 . S
C797 C798 1.376 . S
C798 H785 0.930 . S
C798 C797 1.376 . S
C798 C799 1.388 . S
C799 H786 0.930 . S
C799 C798 1.388 . S
C799 C800 1.390 . S
C800 C799 1.390 . S
C800 C801 1.394 . S
C800 C806 1.465 . S
C801 C796 1.399 . S
C801 C800 1.394 . S
C801 C802 1.516 . S
C802 C801 1.516 . S
C802 C803 1.502 . S
C802 C804 1.561 . S
C802 C805 1.526 . S
C803 H787 0.959 . S
C803 H788 0.959 . S
C803 H789 0.961 . S
C803 C802 1.502 . S
C804 H790 0.960 . S
C804 H791 0.961 . S
C804 H792 0.959 . S
C804 C802 1.561 . S
C805 C802 1.526 . S
C805 C806 1.396 . S
C805 C810 1.390 . S
C806 C800 1.465 . S
C806 C805 1.396 . S
C806 C807 1.399 . S
C807 H793 0.929 . S
C807 C806 1.399 . S
C807 C808 1.385 . S
C808 H794 0.931 . S
C808 C807 1.385 . S
C808 C809 1.389 . S
C809 C808 1.389 . S
C809 C810 1.387 . S
C810 H795 0.930 . S
C810 C805 1.390 . S
C810 C809 1.387 . S
H811 C823 0.930 . S
H812 C825 0.930 . S
H813 C826 0.930 . S
H814 C830 0.959 . S
H815 C830 0.959 . S
H816 C830 0.961 . S
H817 C831 0.960 . S
H818 C831 0.961 . S
H819 C831 0.959 . S
H820 C834 0.929 . S
H821 C835 0.931 . S
H822 C837 0.930 . S
C823 H811 0.930 . S
C823 C824 1.399 . S
C823 C828 1.399 . S
C824 C823 1.399 . S
C824 C825 1.376 . S
C825 H812 0.930 . S
C825 C824 1.376 . S
C825 C826 1.388 . S
C826 H813 0.930 . S
C826 C825 1.388 . S
C826 C827 1.390 . S
C827 C826 1.390 . S
C827 C828 1.394 . S
C827 C833 1.465 . S
C828 C823 1.399 . S
C828 C827 1.394 . S
C828 C829 1.516 . S
C829 C828 1.516 . S
C829 C830 1.502 . S
C829 C831 1.561 . S
C829 C832 1.526 . S
C830 H814 0.959 . S
C830 H815 0.959 . S
C830 H816 0.961 . S
C830 C829 1.502 . S
C831 H817 0.960 . S
C831 H818 0.961 . S
C831 H819 0.959 . S
C831 C829 1.561 . S
C832 C829 1.526 . S
C832 C833 1.396 . S
C832 C837 1.390 . S
C833 C827 1.465 . S
C833 C832 1.396 . S
C833 C834 1.399 . S
C834 H820 0.929 . S
C834 C833 1.399 . S
C834 C835 1.385 . S
C835 H821 0.931 . S
C835 C834 1.385 . S
C835 C836 1.389 . S
C836 C835 1.389 . S
C836 C837 1.387 . S
C837 H822 0.930 . S
C837 C832 1.390 . S
C837 C836 1.387 . S
H838 C850 0.930 . S
H839 C852 0.930 . S
H840 C853 0.930 . S
H841 C857 0.959 . S
H842 C857 0.959 . S
H843 C857 0.961 . S
H844 C858 0.960 . S
H845 C858 0.961 . S
H846 C858 0.959 . S
H847 C861 0.929 . S
H848 C862 0.931 . S
H849 C864 0.930 . S
C850 H838 0.930 . S
C850 C851 1.399 . S
C850 C855 1.399 . S
C851 C850 1.399 . S
C851 C852 1.376 . S
C852 H839 0.930 . S
C852 C851 1.376 . S
C852 C853 1.388 . S
C853 H840 0.930 . S
C853 C852 1.388 . S
C853 C854 1.390 . S
C854 C853 1.390 . S
C854 C855 1.394 . S
C854 C860 1.465 . S
C855 C850 1.399 . S
C855 C854 1.394 . S
C855 C856 1.516 . S
C856 C855 1.516 . S
C856 C857 1.502 . S
C856 C858 1.561 . S
C856 C859 1.526 . S
C857 H841 0.959 . S
C857 H842 0.959 . S
C857 H843 0.961 . S
C857 C856 1.502 . S
C858 H844 0.960 . S
C858 H845 0.961 . S
C858 H846 0.959 . S
C858 C856 1.561 . S
C859 C856 1.526 . S
C859 C860 1.396 . S
C859 C864 1.390 . S
C860 C854 1.465 . S
C860 C859 1.396 . S
C860 C861 1.399 . S
C861 H847 0.929 . S
C861 C860 1.399 . S
C861 C862 1.385 . S
C862 H848 0.931 . S
C862 C861 1.385 . S
C862 C863 1.389 . S
C863 C862 1.389 . S
C863 C864 1.387 . S
C864 H849 0.930 . S
C864 C859 1.390 . S
C864 C863 1.387 . S
H865 C877 0.930 . S
H866 C879 0.930 . S
H867 C880 0.930 . S
H868 C884 0.959 . S
H869 C884 0.959 . S
H870 C884 0.961 . S
H871 C885 0.960 . S
H872 C885 0.961 . S
H873 C885 0.959 . S
H874 C888 0.929 . S
H875 C889 0.931 . S
H876 C891 0.930 . S
C877 H865 0.930 . S
C877 C878 1.399 . S
C877 C882 1.399 . S
C878 C877 1.399 . S
C878 C879 1.376 . S
C879 H866 0.930 . S
C879 C878 1.376 . S
C879 C880 1.388 . S
C880 H867 0.930 . S
C880 C879 1.388 . S
C880 C881 1.390 . S
C881 C880 1.390 . S
C881 C882 1.394 . S
C881 C887 1.465 . S
C882 C877 1.399 . S
C882 C881 1.394 . S
C882 C883 1.516 . S
C883 C882 1.516 . S
C883 C884 1.502 . S
C883 C885 1.561 . S
C883 C886 1.526 . S
C884 H868 0.959 . S
C884 H869 0.959 . S
C884 H870 0.961 . S
C884 C883 1.502 . S
C885 H871 0.960 . S
C885 H872 0.961 . S
C885 H873 0.959 . S
C885 C883 1.561 . S
C886 C883 1.526 . S
C886 C887 1.396 . S
C886 C891 1.390 . S
C887 C881 1.465 . S
C887 C886 1.396 . S
C887 C888 1.399 . S
C888 H874 0.929 . S
C888 C887 1.399 . S
C888 C889 1.385 . S
C889 H875 0.931 . S
C889 C888 1.385 . S
C889 C890 1.389 . S
C890 C889 1.389 . S
C890 C891 1.387 . S
C891 H876 0.930 . S
C891 C886 1.390 . S
C891 C890 1.387 . S
H892 C904 0.930 . S
H893 C906 0.930 . S
H894 C907 0.930 . S
H895 C911 0.959 . S
H896 C911 0.959 . S
H897 C911 0.961 . S
H898 C912 0.960 . S
H899 C912 0.961 . S
H900 C912 0.959 . S
H901 C915 0.929 . S
H902 C916 0.931 . S
H903 C918 0.930 . S
C904 H892 0.930 . S
C904 C905 1.399 . S
C904 C909 1.399 . S
C905 C904 1.399 . S
C905 C906 1.376 . S
C906 H893 0.930 . S
C906 C905 1.376 . S
C906 C907 1.388 . S
C907 H894 0.930 . S
C907 C906 1.388 . S
C907 C908 1.390 . S
C908 C907 1.390 . S
C908 C909 1.394 . S
C908 C914 1.465 . S
C909 C904 1.399 . S
C909 C908 1.394 . S
C909 C910 1.516 . S
C910 C909 1.516 . S
C910 C911 1.502 . S
C910 C912 1.561 . S
C910 C913 1.526 . S
C911 H895 0.959 . S
C911 H896 0.959 . S
C911 H897 0.961 . S
C911 C910 1.502 . S
C912 H898 0.960 . S
C912 H899 0.961 . S
C912 H900 0.959 . S
C912 C910 1.561 . S
C913 C910 1.526 . S
C913 C914 1.396 . S
C913 C918 1.390 . S
C914 C908 1.465 . S
C914 C913 1.396 . S
C914 C915 1.399 . S
C915 H901 0.929 . S
C915 C914 1.399 . S
C915 C916 1.385 . S
C916 H902 0.931 . S
C916 C915 1.385 . S
C916 C917 1.389 . S
C917 C916 1.389 . S
C917 C918 1.387 . S
C918 H903 0.930 . S
C918 C913 1.390 . S
C918 C917 1.387 . S
H919 C931 0.930 . S
H920 C933 0.930 . S
H921 C934 0.930 . S
H922 C938 0.959 . S
H923 C938 0.959 . S
H924 C938 0.961 . S
H925 C939 0.960 . S
H926 C939 0.961 . S
H927 C939 0.959 . S
H928 C942 0.929 . S
H929 C943 0.931 . S
H930 C945 0.930 . S
C931 H919 0.930 . S
C931 C932 1.399 . S
C931 C936 1.399 . S
C932 C931 1.399 . S
C932 C933 1.376 . S
C933 H920 0.930 . S
C933 C932 1.376 . S
C933 C934 1.388 . S
C934 H921 0.930 . S
C934 C933 1.388 . S
C934 C935 1.390 . S
C935 C934 1.390 . S
C935 C936 1.394 . S
C935 C941 1.465 . S
C936 C931 1.399 . S
C936 C935 1.394 . S
C936 C937 1.516 . S
C937 C936 1.516 . S
C937 C938 1.502 . S
C937 C939 1.561 . S
C937 C940 1.526 . S
C938 H922 0.959 . S
C938 H923 0.959 . S
C938 H924 0.961 . S
C938 C937 1.502 . S
C939 H925 0.960 . S
C939 H926 0.961 . S
C939 H927 0.959 . S
C939 C937 1.561 . S
C940 C937 1.526 . S
C940 C941 1.396 . S
C940 C945 1.390 . S
C941 C935 1.465 . S
C941 C940 1.396 . S
C941 C942 1.399 . S
C942 H928 0.929 . S
C942 C941 1.399 . S
C942 C943 1.385 . S
C943 H929 0.931 . S
C943 C942 1.385 . S
C943 C944 1.389 . S
C944 C943 1.389 . S
C944 C945 1.387 . S
C945 H930 0.930 . S
C945 C940 1.390 . S
C945 C944 1.387 . S
H946 C958 0.930 . S
H947 C960 0.930 . S
H948 C961 0.930 . S
H949 C965 0.959 . S
H950 C965 0.959 . S
H951 C965 0.961 . S
H952 C966 0.960 . S
H953 C966 0.961 . S
H954 C966 0.959 . S
H955 C969 0.929 . S
H956 C970 0.931 . S
H957 C972 0.930 . S
C958 H946 0.930 . S
C958 C959 1.399 . S
C958 C963 1.399 . S
C959 C958 1.399 . S
C959 C960 1.376 . S
C960 H947 0.930 . S
C960 C959 1.376 . S
C960 C961 1.388 . S
C961 H948 0.930 . S
C961 C960 1.388 . S
C961 C962 1.390 . S
C962 C961 1.390 . S
C962 C963 1.394 . S
C962 C968 1.465 . S
C963 C958 1.399 . S
C963 C962 1.394 . S
C963 C964 1.516 . S
C964 C963 1.516 . S
C964 C965 1.502 . S
C964 C966 1.561 . S
C964 C967 1.526 . S
C965 H949 0.959 . S
C965 H950 0.959 . S
C965 H951 0.961 . S
C965 C964 1.502 . S
C966 H952 0.960 . S
C966 H953 0.961 . S
C966 H954 0.959 . S
C966 C964 1.561 . S
C967 C964 1.526 . S
C967 C968 1.396 . S
C967 C972 1.390 . S
C968 C962 1.465 . S
C968 C967 1.396 . S
C968 C969 1.399 . S
C969 H955 0.929 . S
C969 C968 1.399 . S
C969 C970 1.385 . S
C970 H956 0.931 . S
C970 C969 1.385 . S
C970 C971 1.389 . S
C971 C970 1.389 . S
C971 C972 1.387 . S
C972 H957 0.930 . S
C972 C967 1.390 . S
C972 C971 1.387 . S
H973 C985 0.930 . S
H974 C987 0.930 . S
H975 C988 0.930 . S
H976 C992 0.959 . S
H977 C992 0.959 . S
H978 C992 0.961 . S
H979 C993 0.960 . S
H980 C993 0.961 . S
H981 C993 0.959 . S
H982 C996 0.929 . S
H983 C997 0.931 . S
H984 C999 0.930 . S
C985 H973 0.930 . S
C985 C986 1.399 . S
C985 C990 1.399 . S
C986 C985 1.399 . S
C986 C987 1.376 . S
C987 H974 0.930 . S
C987 C986 1.376 . S
C987 C988 1.388 . S
C988 H975 0.930 . S
C988 C987 1.388 . S
C988 C989 1.390 . S
C989 C988 1.390 . S
C989 C990 1.394 . S
C989 C995 1.465 . S
C990 C985 1.399 . S
C990 C989 1.394 . S
C990 C991 1.516 . S
C991 C990 1.516 . S
C991 C992 1.502 . S
C991 C993 1.561 . S
C991 C994 1.526 . S
C992 H976 0.959 . S
C992 H977 0.959 . S
C992 H978 0.961 . S
C992 C991 1.502 . S
C993 H979 0.960 . S
C993 H980 0.961 . S
C993 H981 0.959 . S
C993 C991 1.561 . S
C994 C991 1.526 . S
C994 C995 1.396 . S
C994 C999 1.390 . S
C995 C989 1.465 . S
C995 C994 1.396 . S
C995 C996 1.399 . S
C996 H982 0.929 . S
C996 C995 1.399 . S
C996 C997 1.385 . S
C997 H983 0.931 . S
C997 C996 1.385 . S
C997 C998 1.389 . S
C998 C997 1.389 . S
C998 C999 1.387 . S
C999 H984 0.930 . S
C999 C994 1.390 . S
C999 C998 1.387 . S
H1000 C1012 0.930 . S
H1001 C1014 0.930 . S
H1002 C1015 0.930 . S
H1003 C1019 0.959 . S
H1004 C1019 0.959 . S
H1005 C1019 0.961 . S
H1006 C1020 0.960 . S
H1007 C1020 0.961 . S
H1008 C1020 0.959 . S
H1009 C1023 0.929 . S
H1010 C1024 0.931 . S
H1011 C1026 0.930 . S
C1012 H1000 0.930 . S
C1012 C1013 1.399 . S
C1012 C1017 1.399 . S
C1013 C1012 1.399 . S
C1013 C1014 1.376 . S
C1014 H1001 0.930 . S
C1014 C1013 1.376 . S
C1014 C1015 1.388 . S
C1015 H1002 0.930 . S
C1015 C1014 1.388 . S
C1015 C1016 1.390 . S
C1016 C1015 1.390 . S
C1016 C1017 1.394 . S
C1016 C1022 1.465 . S
C1017 C1012 1.399 . S
C1017 C1016 1.394 . S
C1017 C1018 1.516 . S
C1018 C1017 1.516 . S
C1018 C1019 1.502 . S
C1018 C1020 1.561 . S
C1018 C1021 1.526 . S
C1019 H1003 0.959 . S
C1019 H1004 0.959 . S
C1019 H1005 0.961 . S
C1019 C1018 1.502 . S
C1020 H1006 0.960 . S
C1020 H1007 0.961 . S
C1020 H1008 0.959 . S
C1020 C1018 1.561 . S
C1021 C1018 1.526 . S
C1021 C1022 1.396 . S
C1021 C1026 1.390 . S
C1022 C1016 1.465 . S
C1022 C1021 1.396 . S
C1022 C1023 1.399 . S
C1023 H1009 0.929 . S
C1023 C1022 1.399 . S
C1023 C1024 1.385 . S
C1024 H1010 0.931 . S
C1024 C1023 1.385 . S
C1024 C1025 1.389 . S
C1025 C1024 1.389 . S
C1025 C1026 1.387 . S
C1026 H1011 0.930 . S
C1026 C1021 1.390 . S
C1026 C1025 1.387 . S
H1027 C1039 0.930 . S
H1028 C1041 0.930 . S
H1029 C1042 0.930 . S
H1030 C1046 0.959 . S
H1031 C1046 0.959 . S
H1032 C1046 0.961 . S
H1033 C1047 0.960 . S
H1034 C1047 0.961 . S
H1035 C1047 0.959 . S
H1036 C1050 0.929 . S
H1037 C1051 0.931 . S
H1038 C1053 0.930 . S
C1039 H1027 0.930 . S
C1039 C1040 1.399 . S
C1039 C1044 1.399 . S
C1040 C1039 1.399 . S
C1040 C1041 1.376 . S
C1041 H1028 0.930 . S
C1041 C1040 1.376 . S
C1041 C1042 1.388 . S
C1042 H1029 0.930 . S
C1042 C1041 1.388 . S
C1042 C1043 1.390 . S
C1043 C1042 1.390 . S
C1043 C1044 1.394 . S
C1043 C1049 1.465 . S
C1044 C1039 1.399 . S
C1044 C1043 1.394 . S
C1044 C1045 1.516 . S
C1045 C1044 1.516 . S
C1045 C1046 1.502 . S
C1045 C1047 1.561 . S
C1045 C1048 1.526 . S
C1046 H1030 0.959 . S
C1046 H1031 0.959 . S
C1046 H1032 0.961 . S
C1046 C1045 1.502 . S
C1047 H1033 0.960 . S
C1047 H1034 0.961 . S
C1047 H1035 0.959 . S
C1047 C1045 1.561 . S
C1048 C1045 1.526 . S
C1048 C1049 1.396 . S
C1048 C1053 1.390 . S
C1049 C1043 1.465 . S
C1049 C1048 1.396 . S
C1049 C1050 1.399 . S
C1050 H1036 0.929 . S
C1050 C1049 1.399 . S
C1050 C1051 1.385 . S
C1051 H1037 0.931 . S
C1051 C1050 1.385 . S
C1051 C1052 1.389 . S
C1052 C1051 1.389 . S
C1052 C1053 1.387 . S
C1053 H1038 0.930 . S
C1053 C1048 1.390 . S
C1053 C1052 1.387 . S
H1054 C1066 0.930 . S
H1055 C1068 0.930 . S
H1056 C1069 0.930 . S
H1057 C1073 0.959 . S
H1058 C1073 0.959 . S
H1059 C1073 0.961 . S
H1060 C1074 0.960 . S
H1061 C1074 0.961 . S
H1062 C1074 0.959 . S
H1063 C1077 0.929 . S
H1064 C1078 0.931 . S
H1065 C1080 0.930 . S
C1066 H1054 0.930 . S
C1066 C1067 1.399 . S
C1066 C1071 1.399 . S
C1067 C1066 1.399 . S
C1067 C1068 1.376 . S
C1068 H1055 0.930 . S
C1068 C1067 1.376 . S
C1068 C1069 1.388 . S
C1069 H1056 0.930 . S
C1069 C1068 1.388 . S
C1069 C1070 1.390 . S
C1070 C1069 1.390 . S
C1070 C1071 1.394 . S
C1070 C1076 1.465 . S
C1071 C1066 1.399 . S
C1071 C1070 1.394 . S
C1071 C1072 1.516 . S
C1072 C1071 1.516 . S
C1072 C1073 1.502 . S
C1072 C1074 1.561 . S
C1072 C1075 1.526 . S
C1073 H1057 0.959 . S
C1073 H1058 0.959 . S
C1073 H1059 0.961 . S
C1073 C1072 1.502 . S
C1074 H1060 0.960 . S
C1074 H1061 0.961 . S
C1074 H1062 0.959 . S
C1074 C1072 1.561 . S
C1075 C1072 1.526 . S
C1075 C1076 1.396 . S
C1075 C1080 1.390 . S
C1076 C1070 1.465 . S
C1076 C1075 1.396 . S
C1076 C1077 1.399 . S
C1077 H1063 0.929 . S
C1077 C1076 1.399 . S
C1077 C1078 1.385 . S
C1078 H1064 0.931 . S
C1078 C1077 1.385 . S
C1078 C1079 1.389 . S
C1079 C1078 1.389 . S
C1079 C1080 1.387 . S
C1080 H1065 0.930 . S
C1080 C1075 1.390 . S
C1080 C1079 1.387 . S
H1081 C1093 0.930 . S
H1082 C1095 0.930 . S
H1083 C1096 0.930 . S
H1084 C1100 0.959 . S
H1085 C1100 0.959 . S
H1086 C1100 0.961 . S
H1087 C1101 0.960 . S
H1088 C1101 0.961 . S
H1089 C1101 0.959 . S
H1090 C1104 0.929 . S
H1091 C1105 0.931 . S
H1092 C1107 0.930 . S
C1093 H1081 0.930 . S
C1093 C1094 1.399 . S
C1093 C1098 1.399 . S
C1094 C1093 1.399 . S
C1094 C1095 1.376 . S
C1095 H1082 0.930 . S
C1095 C1094 1.376 . S
C1095 C1096 1.388 . S
C1096 H1083 0.930 . S
C1096 C1095 1.388 . S
C1096 C1097 1.390 . S
C1097 C1096 1.390 . S
C1097 C1098 1.394 . S
C1097 C1103 1.465 . S
C1098 C1093 1.399 . S
C1098 C1097 1.394 . S
C1098 C1099 1.516 . S
C1099 C1098 1.516 . S
C1099 C1100 1.502 . S
C1099 C1101 1.561 . S
C1099 C1102 1.526 . S
C1100 H1084 0.959 . S
C1100 H1085 0.959 . S
C1100 H1086 0.961 . S
C1100 C1099 1.502 . S
C1101 H1087 0.960 . S
C1101 H1088 0.961 . S
C1101 H1089 0.959 . S
C1101 C1099 1.561 . S
C1102 C1099 1.526 . S
C1102 C1103 1.396 . S
C1102 C1107 1.390 . S
C1103 C1097 1.465 . S
C1103 C1102 1.396 . S
C1103 C1104 1.399 . S
C1104 H1090 0.929 . S
C1104 C1103 1.399 . S
C1104 C1105 1.385 . S
C1105 H1091 0.931 . S
C1105 C1104 1.385 . S
C1105 C1106 1.389 . S
C1106 C1105 1.389 . S
C1106 C1107 1.387 . S
C1107 H1092 0.930 . S
C1107 C1102 1.390 . S
C1107 C1106 1.387 . S
H1108 C1120 0.930 . S
H1109 C1122 0.930 . S
H1110 C1123 0.930 . S
H1111 C1127 0.959 . S
H1112 C1127 0.959 . S
H1113 C1127 0.961 . S
H1114 C1128 0.960 . S
H1115 C1128 0.961 . S
H1116 C1128 0.959 . S
H1117 C1131 0.929 . S
H1118 C1132 0.931 . S
H1119 C1134 0.930 . S
C1120 H1108 0.930 . S
C1120 C1121 1.399 . S
C1120 C1125 1.399 . S
C1121 C1120 1.399 . S
C1121 C1122 1.376 . S
C1122 H1109 0.930 . S
C1122 C1121 1.376 . S
C1122 C1123 1.388 . S
C1123 H1110 0.930 . S
C1123 C1122 1.388 . S
C1123 C1124 1.390 . S
C1124 C1123 1.390 . S
C1124 C1125 1.394 . S
C1124 C1130 1.465 1_545 S
C1125 C1120 1.399 . S
C1125 C1124 1.394 . S
C1125 C1126 1.516 . S
C1126 C1125 1.516 . S
C1126 C1127 1.502 1_545 S
C1126 C1128 1.561 . S
C1126 C1129 1.526 1_545 S
C1127 H1111 0.959 . S
C1127 H1112 0.959 . S
C1127 H1113 0.961 . S
C1127 C1126 1.502 1_565 S
C1128 H1114 0.960 . S
C1128 H1115 0.961 . S
C1128 H1116 0.959 . S
C1128 C1126 1.561 . S
C1129 C1126 1.526 1_565 S
C1129 C1130 1.396 . S
C1129 C1134 1.390 . S
C1130 C1124 1.465 1_565 S
C1130 C1129 1.396 . S
C1130 C1131 1.399 . S
C1131 H1117 0.929 . S
C1131 C1130 1.399 . S
C1131 C1132 1.385 . S
C1132 H1118 0.931 . S
C1132 C1131 1.385 . S
C1132 C1133 1.389 . S
C1133 C1132 1.389 . S
C1133 C1134 1.387 . S
C1134 H1119 0.930 . S
C1134 C1129 1.390 . S
C1134 C1133 1.387 . S
H1135 C1147 0.930 . S
H1136 C1149 0.930 . S
H1137 C1150 0.930 . S
H1138 C1154 0.959 . S
H1139 C1154 0.959 . S
H1140 C1154 0.961 . S
H1141 C1155 0.960 1_545 S
H1142 C1155 0.961 . S
H1143 C1155 0.959 1_545 S
H1144 C1158 0.929 1_545 S
H1145 C1159 0.931 . S
H1146 C1161 0.930 . S
C1147 H1135 0.930 . S
C1147 C1148 1.399 . S
C1147 C1152 1.399 . S
C1148 C1147 1.399 . S
C1148 C1149 1.376 . S
C1149 H1136 0.930 . S
C1149 C1148 1.376 . S
C1149 C1150 1.388 . S
C1150 H1137 0.930 . S
C1150 C1149 1.388 . S
C1150 C1151 1.390 . S
C1151 C1150 1.390 . S
C1151 C1152 1.394 . S
C1151 C1157 1.465 1_545 S
C1152 C1147 1.399 . S
C1152 C1151 1.394 . S
C1152 C1153 1.516 1_545 S
C1153 C1152 1.516 1_565 S
C1153 C1154 1.502 . S
C1153 C1155 1.561 . S
C1153 C1156 1.526 . S
C1154 H1138 0.959 . S
C1154 H1139 0.959 . S
C1154 H1140 0.961 . S
C1154 C1153 1.502 . S
C1155 H1141 0.960 1_565 S
C1155 H1142 0.961 . S
C1155 H1143 0.959 1_565 S
C1155 C1153 1.561 . S
C1156 C1153 1.526 . S
C1156 C1157 1.396 . S
C1156 C1161 1.390 . S
C1157 C1151 1.465 1_565 S
C1157 C1156 1.396 . S
C1157 C1158 1.399 . S
C1158 H1144 0.929 1_565 S
C1158 C1157 1.399 . S
C1158 C1159 1.385 . S
C1159 H1145 0.931 . S
C1159 C1158 1.385 . S
C1159 C1160 1.389 . S
C1160 C1159 1.389 . S
C1160 C1161 1.387 . S
C1161 H1146 0.930 . S
C1161 C1156 1.390 . S
C1161 C1160 1.387 . S
H1162 C1174 0.930 . S
H1163 C1176 0.930 . S
H1164 C1177 0.930 . S
H1165 C1181 0.959 . S
H1166 C1181 0.959 . S
H1167 C1181 0.961 . S
H1168 C1182 0.960 . S
H1169 C1182 0.961 . S
H1170 C1182 0.959 . S
H1171 C1185 0.929 . S
H1172 C1186 0.931 . S
H1173 C1188 0.930 . S
C1174 H1162 0.930 . S
C1174 C1175 1.399 . S
C1174 C1179 1.399 . S
C1175 C1174 1.399 . S
C1175 C1176 1.376 . S
C1176 H1163 0.930 . S
C1176 C1175 1.376 . S
C1176 C1177 1.388 . S
C1177 H1164 0.930 . S
C1177 C1176 1.388 . S
C1177 C1178 1.390 . S
C1178 C1177 1.390 . S
C1178 C1179 1.394 . S
C1178 C1184 1.465 1_565 S
C1179 C1174 1.399 . S
C1179 C1178 1.394 . S
C1179 C1180 1.516 1_565 S
C1180 C1179 1.516 1_545 S
C1180 C1181 1.502 . S
C1180 C1182 1.561 1_545 S
C1180 C1183 1.526 . S
C1181 H1165 0.959 . S
C1181 H1166 0.959 . S
C1181 H1167 0.961 . S
C1181 C1180 1.502 . S
C1182 H1168 0.960 . S
C1182 H1169 0.961 . S
C1182 H1170 0.959 . S
C1182 C1180 1.561 1_565 S
C1183 C1180 1.526 . S
C1183 C1184 1.396 . S
C1183 C1188 1.390 . S
C1184 C1178 1.465 1_545 S
C1184 C1183 1.396 . S
C1184 C1185 1.399 . S
C1185 H1171 0.929 . S
C1185 C1184 1.399 . S
C1185 C1186 1.385 . S
C1186 H1172 0.931 . S
C1186 C1185 1.385 . S
C1186 C1187 1.389 . S
C1187 C1186 1.389 . S
C1187 C1188 1.387 . S
C1188 H1173 0.930 . S
C1188 C1183 1.390 . S
C1188 C1187 1.387 . S
H1189 C1201 0.930 . S
H1190 C1203 0.930 . S
H1191 C1204 0.930 . S
H1192 C1208 0.959 1_565 S
H1193 C1208 0.959 . S
H1194 C1208 0.961 . S
H1195 C1209 0.960 . S
H1196 C1209 0.961 . S
H1197 C1209 0.959 . S
H1198 C1212 0.929 . S
H1199 C1213 0.931 . S
H1200 C1215 0.930 . S
C1201 H1189 0.930 . S
C1201 C1202 1.399 . S
C1201 C1206 1.399 . S
C1202 C1201 1.399 . S
C1202 C1203 1.376 . S
C1203 H1190 0.930 . S
C1203 C1202 1.376 . S
C1203 C1204 1.388 . S
C1204 H1191 0.930 . S
C1204 C1203 1.388 . S
C1204 C1205 1.390 . S
C1205 C1204 1.390 . S
C1205 C1206 1.394 . S
C1205 C1211 1.465 1_565 S
C1206 C1201 1.399 . S
C1206 C1205 1.394 . S
C1206 C1207 1.516 1_565 S
C1207 C1206 1.516 1_545 S
C1207 C1208 1.502 . S
C1207 C1209 1.561 . S
C1207 C1210 1.526 . S
C1208 H1192 0.959 1_545 S
C1208 H1193 0.959 . S
C1208 H1194 0.961 . S
C1208 C1207 1.502 . S
C1209 H1195 0.960 . S
C1209 H1196 0.961 . S
C1209 H1197 0.959 . S
C1209 C1207 1.561 . S
C1210 C1207 1.526 . S
C1210 C1211 1.396 . S
C1210 C1215 1.390 . S
C1211 C1205 1.465 1_545 S
C1211 C1210 1.396 . S
C1211 C1212 1.399 . S
C1212 H1198 0.929 . S
C1212 C1211 1.399 . S
C1212 C1213 1.385 . S
C1213 H1199 0.931 . S
C1213 C1212 1.385 . S
C1213 C1214 1.389 . S
C1214 C1213 1.389 . S
C1214 C1215 1.387 . S
C1215 H1200 0.930 . S
C1215 C1210 1.390 . S
C1215 C1214 1.387 . S
H1216 C1228 0.930 . S
H1217 C1230 0.930 . S
H1218 C1231 0.930 . S
H1219 C1235 0.959 . S
H1220 C1235 0.959 . S
H1221 C1235 0.961 . S
H1222 C1236 0.960 . S
H1223 C1236 0.961 . S
H1224 C1236 0.959 . S
H1225 C1239 0.929 . S
H1226 C1240 0.931 . S
H1227 C1242 0.930 . S
C1228 H1216 0.930 . S
C1228 C1229 1.399 . S
C1228 C1233 1.399 . S
C1229 C1228 1.399 . S
C1229 C1230 1.376 . S
C1230 H1217 0.930 . S
C1230 C1229 1.376 . S
C1230 C1231 1.388 . S
C1231 H1218 0.930 . S
C1231 C1230 1.388 . S
C1231 C1232 1.390 . S
C1232 C1231 1.390 . S
C1232 C1233 1.394 . S
C1232 C1238 1.465 . S
C1233 C1228 1.399 . S
C1233 C1232 1.394 . S
C1233 C1234 1.516 1_556 S
C1234 C1233 1.516 1_554 S
C1234 C1235 1.502 . S
C1234 C1236 1.561 1_554 S
C1234 C1237 1.526 . S
C1235 H1219 0.959 . S
C1235 H1220 0.959 . S
C1235 H1221 0.961 . S
C1235 C1234 1.502 . S
C1236 H1222 0.960 . S
C1236 H1223 0.961 . S
C1236 H1224 0.959 . S
C1236 C1234 1.561 1_556 S
C1237 C1234 1.526 . S
C1237 C1238 1.396 1_554 S
C1237 C1242 1.390 . S
C1238 C1232 1.465 . S
C1238 C1237 1.396 1_556 S
C1238 C1239 1.399 . S
C1239 H1225 0.929 . S
C1239 C1238 1.399 . S
C1239 C1240 1.385 1_556 S
C1240 H1226 0.931 . S
C1240 C1239 1.385 1_554 S
C1240 C1241 1.389 . S
C1241 C1240 1.389 . S
C1241 C1242 1.387 . S
C1242 H1227 0.930 . S
C1242 C1237 1.390 . S
C1242 C1241 1.387 . S
H1243 C1255 0.930 . S
H1244 C1257 0.930 . S
H1245 C1258 0.930 . S
H1246 C1262 0.959 . S
H1247 C1262 0.959 . S
H1248 C1262 0.961 . S
H1249 C1263 0.960 . S
H1250 C1263 0.961 . S
H1251 C1263 0.959 . S
H1252 C1266 0.929 . S
H1253 C1267 0.931 . S
H1254 C1269 0.930 . S
C1255 H1243 0.930 . S
C1255 C1256 1.399 1_556 S
C1255 C1260 1.399 . S
C1256 C1255 1.399 1_554 S
C1256 C1257 1.376 . S
C1257 H1244 0.930 . S
C1257 C1256 1.376 . S
C1257 C1258 1.388 . S
C1258 H1245 0.930 . S
C1258 C1257 1.388 . S
C1258 C1259 1.390 . S
C1259 C1258 1.390 . S
C1259 C1260 1.394 1_554 S
C1259 C1265 1.465 . S
C1260 C1255 1.399 . S
C1260 C1259 1.394 1_556 S
C1260 C1261 1.516 . S
C1261 C1260 1.516 . S
C1261 C1262 1.502 . S
C1261 C1263 1.561 . S
C1261 C1264 1.526 . S
C1262 H1246 0.959 . S
C1262 H1247 0.959 . S
C1262 H1248 0.961 . S
C1262 C1261 1.502 . S
C1263 H1249 0.960 . S
C1263 H1250 0.961 . S
C1263 H1251 0.959 . S
C1263 C1261 1.561 . S
C1264 C1261 1.526 . S
C1264 C1265 1.396 1_556 S
C1264 C1269 1.390 . S
C1265 C1259 1.465 . S
C1265 C1264 1.396 1_554 S
C1265 C1266 1.399 . S
C1266 H1252 0.929 . S
C1266 C1265 1.399 . S
C1266 C1267 1.385 . S
C1267 H1253 0.931 . S
C1267 C1266 1.385 . S
C1267 C1268 1.389 1_554 S
C1268 C1267 1.389 1_556 S
C1268 C1269 1.387 . S
C1269 H1254 0.930 . S
C1269 C1264 1.390 . S
C1269 C1268 1.387 . S
H1270 C1282 0.930 . S
H1271 C1284 0.930 . S
H1272 C1285 0.930 . S
H1273 C1289 0.959 . S
H1274 C1289 0.959 . S
H1275 C1289 0.961 . S
H1276 C1290 0.960 . S
H1277 C1290 0.961 . S
H1278 C1290 0.959 . S
H1279 C1293 0.929 . S
H1280 C1294 0.931 . S
H1281 C1296 0.930 . S
C1282 H1270 0.930 . S
C1282 C1283 1.399 . S
C1282 C1287 1.399 . S
C1283 C1282 1.399 . S
C1283 C1284 1.376 . S
C1284 H1271 0.930 . S
C1284 C1283 1.376 . S
C1284 C1285 1.388 . S
C1285 H1272 0.930 . S
C1285 C1284 1.388 . S
C1285 C1286 1.390 . S
C1286 C1285 1.390 . S
C1286 C1287 1.394 . S
C1286 C1292 1.465 . S
C1287 C1282 1.399 . S
C1287 C1286 1.394 . S
C1287 C1288 1.516 . S
C1288 C1287 1.516 . S
C1288 C1289 1.502 . S
C1288 C1290 1.561 . S
C1288 C1291 1.526 . S
C1289 H1273 0.959 . S
C1289 H1274 0.959 . S
C1289 H1275 0.961 . S
C1289 C1288 1.502 . S
C1290 H1276 0.960 . S
C1290 H1277 0.961 . S
C1290 H1278 0.959 . S
C1290 C1288 1.561 . S
C1291 C1288 1.526 . S
C1291 C1292 1.396 . S
C1291 C1296 1.390 . S
C1292 C1286 1.465 . S
C1292 C1291 1.396 . S
C1292 C1293 1.399 . S
C1293 H1279 0.929 . S
C1293 C1292 1.399 . S
C1293 C1294 1.385 . S
C1294 H1280 0.931 . S
C1294 C1293 1.385 . S
C1294 C1295 1.389 . S
C1295 C1294 1.389 . S
C1295 C1296 1.387 . S
C1296 H1281 0.930 . S
C1296 C1291 1.390 . S
C1296 C1295 1.387 . S
H1297 C1309 0.930 . S
H1298 C1311 0.930 . S
H1299 C1312 0.930 . S
H1300 C1316 0.959 . S
H1301 C1316 0.959 . S
H1302 C1316 0.961 . S
H1303 C1317 0.960 . S
H1304 C1317 0.961 . S
H1305 C1317 0.959 . S
H1306 C1320 0.929 . S
H1307 C1321 0.931 . S
H1308 C1323 0.930 . S
C1309 H1297 0.930 . S
C1309 C1310 1.399 . S
C1309 C1314 1.399 . S
C1310 C1309 1.399 . S
C1310 C1311 1.376 . S
C1311 H1298 0.930 . S
C1311 C1310 1.376 . S
C1311 C1312 1.388 . S
C1312 H1299 0.930 . S
C1312 C1311 1.388 . S
C1312 C1313 1.390 . S
C1313 C1312 1.390 . S
C1313 C1314 1.394 . S
C1313 C1319 1.465 . S
C1314 C1309 1.399 . S
C1314 C1313 1.394 . S
C1314 C1315 1.516 . S
C1315 C1314 1.516 . S
C1315 C1316 1.502 . S
C1315 C1317 1.561 . S
C1315 C1318 1.526 . S
C1316 H1300 0.959 . S
C1316 H1301 0.959 . S
C1316 H1302 0.961 . S
C1316 C1315 1.502 . S
C1317 H1303 0.960 . S
C1317 H1304 0.961 . S
C1317 H1305 0.959 . S
C1317 C1315 1.561 . S
C1318 C1315 1.526 . S
C1318 C1319 1.396 . S
C1318 C1323 1.390 . S
C1319 C1313 1.465 . S
C1319 C1318 1.396 . S
C1319 C1320 1.399 . S
C1320 H1306 0.929 . S
C1320 C1319 1.399 . S
C1320 C1321 1.385 . S
C1321 H1307 0.931 . S
C1321 C1320 1.385 . S
C1321 C1322 1.389 . S
C1322 C1321 1.389 . S
C1322 C1323 1.387 . S
C1323 H1308 0.930 . S
C1323 C1318 1.390 . S
C1323 C1322 1.387 . S
H1324 C1336 0.930 . S
H1325 C1338 0.930 . S
H1326 C1339 0.930 . S
H1327 C1343 0.959 . S
H1328 C1343 0.959 . S
H1329 C1343 0.961 . S
H1330 C1344 0.960 . S
H1331 C1344 0.961 . S
H1332 C1344 0.959 . S
H1333 C1347 0.929 . S
H1334 C1348 0.931 . S
H1335 C1350 0.919 1_556 S
C1336 H1324 0.930 . S
C1336 C1337 1.399 . S
C1336 C1341 1.399 . S
C1337 C1336 1.399 . S
C1337 C1338 1.376 1_556 S
C1338 H1325 0.930 . S
C1338 C1337 1.376 1_554 S
C1338 C1339 1.388 . S
C1339 H1326 0.930 . S
C1339 C1338 1.388 . S
C1339 C1340 1.390 . S
C1340 C1339 1.390 . S
C1340 C1341 1.394 1_554 S
C1340 C1346 1.465 . S
C1341 C1336 1.399 . S
C1341 C1340 1.394 1_556 S
C1341 C1342 1.516 . S
C1342 C1341 1.516 . S
C1342 C1343 1.502 . S
C1342 C1344 1.561 . S
C1342 C1345 1.526 . S
C1343 H1327 0.959 . S
C1343 H1328 0.959 . S
C1343 H1329 0.961 . S
C1343 C1342 1.502 . S
C1344 H1330 0.960 . S
C1344 H1331 0.961 . S
C1344 H1332 0.959 . S
C1344 C1342 1.561 . S
C1345 C1342 1.526 . S
C1345 C1346 1.396 1_556 S
C1345 C1350 1.387 1_556 S
C1346 C1340 1.465 . S
C1346 C1345 1.396 1_554 S
C1346 C1347 1.399 . S
C1347 H1333 0.929 . S
C1347 C1346 1.399 . S
C1347 C1348 1.385 . S
C1348 H1334 0.931 . S
C1348 C1347 1.385 . S
C1348 C1349 1.389 . S
C1349 C1348 1.389 . S
C1349 C1350 1.401 . S
C1350 H1335 0.919 1_554 S
C1350 C1345 1.387 1_554 S
C1350 C1349 1.401 . S
H1351 C1363 0.930 . S
H1352 C1365 0.930 . S
H1353 C1366 0.930 . S
H1354 C1370 0.959 . S
H1355 C1370 0.959 1_554 S
H1356 C1370 0.961 . S
H1357 C1371 0.960 . S
H1358 C1371 0.961 . S
H1359 C1371 0.959 . S
H1360 C1374 0.930 1_556 S
H1361 C1375 0.931 . S
H1362 C1377 0.930 . S
C1363 H1351 0.930 . S
C1363 C1364 1.399 . S
C1363 C1368 1.399 . S
C1364 C1363 1.399 . S
C1364 C1365 1.376 . S
C1365 H1352 0.930 . S
C1365 C1364 1.376 . S
C1365 C1366 1.388 . S
C1366 H1353 0.930 . S
C1366 C1365 1.388 . S
C1366 C1367 1.390 . S
C1367 C1366 1.390 . S
C1367 C1368 1.394 . S
C1367 C1373 1.465 1_556 S
C1368 C1363 1.399 . S
C1368 C1367 1.394 . S
C1368 C1369 1.516 1_556 S
C1369 C1368 1.516 1_554 S
C1369 C1370 1.502 1_554 S
C1369 C1371 1.561 . S
C1369 C1372 1.526 . S
C1370 H1354 0.959 . S
C1370 H1355 0.959 1_556 S
C1370 H1356 0.961 . S
C1370 C1369 1.502 1_556 S
C1371 H1357 0.960 . S
C1371 H1358 0.961 . S
C1371 H1359 0.959 . S
C1371 C1369 1.561 . S
C1372 C1369 1.526 . S
C1372 C1373 1.396 . S
C1372 C1377 1.390 . S
C1373 C1367 1.465 1_554 S
C1373 C1372 1.396 . S
C1373 C1374 1.399 . S
C1374 H1360 0.930 1_554 S
C1374 C1373 1.399 . S
C1374 C1375 1.385 . S
C1375 H1361 0.931 . S
C1375 C1374 1.385 . S
C1375 C1376 1.389 . S
C1376 C1375 1.389 . S
C1376 C1377 1.387 . S
C1377 H1362 0.930 . S
C1377 C1372 1.390 . S
C1377 C1376 1.387 . S
H1378 C1390 0.930 . S
H1379 C1392 0.930 . S
H1380 C1393 0.930 . S
H1381 C1397 0.959 . S
H1382 C1397 0.959 . S
H1383 C1397 0.961 . S
H1384 C1398 0.960 . S
H1385 C1398 0.961 . S
H1386 C1398 0.959 . S
H1387 C1401 0.929 . S
H1388 C1402 0.931 . S
H1389 C1404 0.930 . S
C1390 H1378 0.930 . S
C1390 C1391 1.399 . S
C1390 C1395 1.399 . S
C1391 C1390 1.399 . S
C1391 C1392 1.376 . S
C1392 H1379 0.930 . S
C1392 C1391 1.376 . S
C1392 C1393 1.388 . S
C1393 H1380 0.930 . S
C1393 C1392 1.388 . S
C1393 C1394 1.390 . S
C1394 C1393 1.390 . S
C1394 C1395 1.394 . S
C1394 C1400 1.465 . S
C1395 C1390 1.399 . S
C1395 C1394 1.394 . S
C1395 C1396 1.516 . S
C1396 C1395 1.516 . S
C1396 C1397 1.502 . S
C1396 C1398 1.561 . S
C1396 C1399 1.526 . S
C1397 H1381 0.959 . S
C1397 H1382 0.959 . S
C1397 H1383 0.961 . S
C1397 C1396 1.502 . S
C1398 H1384 0.960 . S
C1398 H1385 0.961 . S
C1398 H1386 0.959 . S
C1398 C1396 1.561 . S
C1399 C1396 1.526 . S
C1399 C1400 1.396 . S
C1399 C1404 1.390 . S
C1400 C1394 1.465 . S
C1400 C1399 1.396 . S
C1400 C1401 1.399 . S
C1401 H1387 0.929 . S
C1401 C1400 1.399 . S
C1401 C1402 1.385 . S
C1402 H1388 0.931 . S
C1402 C1401 1.385 . S
C1402 C1403 1.389 . S
C1403 C1402 1.389 . S
C1403 C1404 1.387 . S
C1404 H1389 0.930 . S
C1404 C1399 1.390 . S
C1404 C1403 1.387 . S
H1405 C1417 0.930 . S
H1406 C1419 0.930 . S
H1407 C1420 0.930 . S
H1408 C1424 0.959 . S
H1409 C1424 0.959 . S
H1410 C1424 0.961 . S
H1411 C1425 0.960 . S
H1412 C1425 0.961 . S
H1413 C1425 0.959 . S
H1414 C1428 0.929 . S
H1415 C1429 0.931 . S
H1416 C1431 0.930 . S
C1417 H1405 0.930 . S
C1417 C1418 1.399 . S
C1417 C1422 1.399 . S
C1418 C1417 1.399 . S
C1418 C1419 1.376 . S
C1419 H1406 0.930 . S
C1419 C1418 1.376 . S
C1419 C1420 1.388 . S
C1420 H1407 0.930 . S
C1420 C1419 1.388 . S
C1420 C1421 1.390 . S
C1421 C1420 1.390 . S
C1421 C1422 1.394 . S
C1421 C1427 1.465 . S
C1422 C1417 1.399 . S
C1422 C1421 1.394 . S
C1422 C1423 1.516 . S
C1423 C1422 1.516 . S
C1423 C1424 1.502 . S
C1423 C1425 1.561 . S
C1423 C1426 1.526 . S
C1424 H1408 0.959 . S
C1424 H1409 0.959 . S
C1424 H1410 0.961 . S
C1424 C1423 1.502 . S
C1425 H1411 0.960 . S
C1425 H1412 0.961 . S
C1425 H1413 0.959 . S
C1425 C1423 1.561 . S
C1426 C1423 1.526 . S
C1426 C1427 1.396 . S
C1426 C1431 1.390 . S
C1427 C1421 1.465 . S
C1427 C1426 1.396 . S
C1427 C1428 1.399 . S
C1428 H1414 0.929 . S
C1428 C1427 1.399 . S
C1428 C1429 1.385 . S
C1429 H1415 0.931 . S
C1429 C1428 1.385 . S
C1429 C1430 1.389 . S
C1430 C1429 1.389 . S
C1430 C1431 1.387 . S
C1431 H1416 0.930 . S
C1431 C1426 1.390 . S
C1431 C1430 1.387 . S
H1432 C1444 0.930 . S
H1433 C1446 0.930 . S
H1434 C1447 0.930 . S
H1435 C1451 0.959 . S
H1436 C1451 0.959 . S
H1437 C1451 0.961 . S
H1438 C1452 0.960 . S
H1439 C1452 0.961 1_655 S
H1440 C1452 0.949 1_655 S
H1441 C1455 0.929 . S
H1442 C1456 0.931 . S
H1443 C1458 0.930 . S
C1444 H1432 0.930 . S
C1444 C1445 1.399 . S
C1444 C1449 1.399 . S
C1445 C1444 1.399 . S
C1445 C1446 1.376 . S
C1446 H1433 0.930 . S
C1446 C1445 1.376 . S
C1446 C1447 1.388 . S
C1447 H1434 0.930 . S
C1447 C1446 1.388 . S
C1447 C1448 1.390 . S
C1448 C1447 1.390 . S
C1448 C1449 1.394 . S
C1448 C1454 1.465 1_455 S
C1449 C1444 1.399 . S
C1449 C1448 1.394 . S
C1449 C1450 1.516 . S
C1450 C1449 1.516 . S
C1450 C1451 1.502 . S
C1450 C1452 1.561 . S
C1450 C1453 1.526 1_455 S
C1451 H1435 0.959 . S
C1451 H1436 0.959 . S
C1451 H1437 0.961 . S
C1451 C1450 1.502 . S
C1452 H1438 0.960 . S
C1452 H1439 0.961 1_455 S
C1452 H1440 0.949 1_455 S
C1452 C1450 1.561 . S
C1453 C1450 1.526 1_655 S
C1453 C1454 1.396 . S
C1453 C1458 1.390 . S
C1454 C1448 1.465 1_655 S
C1454 C1453 1.396 . S
C1454 C1455 1.399 . S
C1455 H1441 0.929 . S
C1455 C1454 1.399 . S
C1455 C1456 1.385 . S
C1456 H1442 0.931 . S
C1456 C1455 1.385 . S
C1456 C1457 1.389 . S
C1457 C1456 1.389 . S
C1457 C1458 1.387 . S
C1458 H1443 0.930 . S
C1458 C1453 1.390 . S
C1458 C1457 1.387 . S
H1459 C1471 0.930 . S
H1460 C1473 0.930 . S
H1461 C1474 0.930 . S
H1462 C1478 0.959 . S
H1463 C1478 0.959 . S
H1464 C1478 0.961 . S
H1465 C1479 0.960 . S
H1466 C1479 0.961 . S
H1467 C1479 0.959 . S
H1468 C1482 0.929 . S
H1469 C1483 0.931 . S
H1470 C1485 0.930 . S
C1471 H1459 0.930 . S
C1471 C1472 1.399 . S
C1471 C1476 1.399 . S
C1472 C1471 1.399 . S
C1472 C1473 1.376 . S
C1473 H1460 0.930 . S
C1473 C1472 1.376 . S
C1473 C1474 1.388 . S
C1474 H1461 0.930 . S
C1474 C1473 1.388 . S
C1474 C1475 1.390 . S
C1475 C1474 1.390 . S
C1475 C1476 1.394 . S
C1475 C1481 1.465 . S
C1476 C1471 1.399 . S
C1476 C1475 1.394 . S
C1476 C1477 1.516 . S
C1477 C1476 1.516 . S
C1477 C1478 1.502 . S
C1477 C1479 1.561 . S
C1477 C1480 1.526 . S
C1478 H1462 0.959 . S
C1478 H1463 0.959 . S
C1478 H1464 0.961 . S
C1478 C1477 1.502 . S
C1479 H1465 0.960 . S
C1479 H1466 0.961 . S
C1479 H1467 0.959 . S
C1479 C1477 1.561 . S
C1480 C1477 1.526 . S
C1480 C1481 1.396 . S
C1480 C1485 1.390 . S
C1481 C1475 1.465 . S
C1481 C1480 1.396 . S
C1481 C1482 1.399 . S
C1482 H1468 0.929 . S
C1482 C1481 1.399 . S
C1482 C1483 1.385 . S
C1483 H1469 0.931 . S
C1483 C1482 1.385 . S
C1483 C1484 1.389 . S
C1484 C1483 1.389 . S
C1484 C1485 1.387 . S
C1485 H1470 0.930 . S
C1485 C1480 1.390 . S
C1485 C1484 1.387 . S
H1486 C1498 0.930 . S
H1487 C1500 0.930 . S
H1488 C1501 0.930 . S
H1489 C1505 0.959 . S
H1490 C1505 0.959 . S
H1491 C1505 0.961 . S
H1492 C1506 0.960 . S
H1493 C1506 0.961 . S
H1494 C1506 0.959 . S
H1495 C1509 0.929 . S
H1496 C1510 0.931 . S
H1497 C1512 0.930 . S
C1498 H1486 0.930 . S
C1498 C1499 1.399 . S
C1498 C1503 1.399 . S
C1499 C1498 1.399 . S
C1499 C1500 1.376 . S
C1500 H1487 0.930 . S
C1500 C1499 1.376 . S
C1500 C1501 1.388 . S
C1501 H1488 0.930 . S
C1501 C1500 1.388 . S
C1501 C1502 1.390 . S
C1502 C1501 1.390 . S
C1502 C1503 1.394 . S
C1502 C1508 1.465 . S
C1503 C1498 1.399 . S
C1503 C1502 1.394 . S
C1503 C1504 1.516 . S
C1504 C1503 1.516 . S
C1504 C1505 1.502 . S
C1504 C1506 1.561 . S
C1504 C1507 1.526 . S
C1505 H1489 0.959 . S
C1505 H1490 0.959 . S
C1505 H1491 0.961 . S
C1505 C1504 1.502 . S
C1506 H1492 0.960 . S
C1506 H1493 0.961 . S
C1506 H1494 0.959 . S
C1506 C1504 1.561 . S
C1507 C1504 1.526 . S
C1507 C1508 1.396 . S
C1507 C1512 1.390 . S
C1508 C1502 1.465 . S
C1508 C1507 1.396 . S
C1508 C1509 1.399 . S
C1509 H1495 0.929 . S
C1509 C1508 1.399 . S
C1509 C1510 1.385 . S
C1510 H1496 0.931 . S
C1510 C1509 1.385 . S
C1510 C1511 1.389 . S
C1511 C1510 1.389 . S
C1511 C1512 1.387 . S
C1512 H1497 0.930 . S
C1512 C1507 1.390 . S
C1512 C1511 1.387 . S
H1513 C1525 0.930 . S
H1514 C1527 0.930 . S
H1515 C1528 0.930 . S
H1516 C1532 0.959 . S
H1517 C1532 0.959 1_655 S
H1518 C1532 0.961 . S
H1519 C1533 0.960 1_455 S
H1520 C1533 0.961 . S
H1521 C1533 0.959 . S
H1522 C1536 0.929 . S
H1523 C1537 0.931 . S
H1524 C1539 0.930 . S
C1525 H1513 0.930 . S
C1525 C1526 1.399 . S
C1525 C1530 1.399 . S
C1526 C1525 1.399 . S
C1526 C1527 1.376 . S
C1527 H1514 0.930 . S
C1527 C1526 1.376 . S
C1527 C1528 1.388 . S
C1528 H1515 0.930 . S
C1528 C1527 1.388 . S
C1528 C1529 1.390 . S
C1529 C1528 1.390 . S
C1529 C1530 1.394 . S
C1529 C1535 1.465 1_455 S
C1530 C1525 1.399 . S
C1530 C1529 1.394 . S
C1530 C1531 1.516 . S
C1531 C1530 1.516 . S
C1531 C1532 1.502 . S
C1531 C1533 1.561 1_455 S
C1531 C1534 1.526 1_455 S
C1532 H1516 0.959 . S
C1532 H1517 0.959 1_455 S
C1532 H1518 0.961 . S
C1532 C1531 1.502 . S
C1533 H1519 0.960 1_655 S
C1533 H1520 0.961 . S
C1533 H1521 0.959 . S
C1533 C1531 1.561 1_655 S
C1534 C1531 1.526 1_655 S
C1534 C1535 1.396 . S
C1534 C1539 1.390 . S
C1535 C1529 1.465 1_655 S
C1535 C1534 1.396 . S
C1535 C1536 1.399 . S
C1536 H1522 0.929 . S
C1536 C1535 1.399 . S
C1536 C1537 1.385 . S
C1537 H1523 0.931 . S
C1537 C1536 1.385 . S
C1537 C1538 1.389 . S
C1538 C1537 1.389 . S
C1538 C1539 1.387 . S
C1539 H1524 0.930 . S
C1539 C1534 1.390 . S
C1539 C1538 1.387 . S
H1540 C1552 0.930 . S
H1541 C1554 0.930 . S
H1542 C1555 0.930 . S
H1543 C1559 0.959 . S
H1544 C1559 0.959 . S
H1545 C1559 0.961 1_655 S
H1546 C1560 0.960 . S
H1547 C1560 0.961 1_455 S
H1548 C1560 0.959 . S
H1549 C1563 0.929 . S
H1550 C1564 0.931 . S
H1551 C1566 0.930 . S
C1552 H1540 0.930 . S
C1552 C1553 1.399 . S
C1552 C1557 1.399 . S
C1553 C1552 1.399 . S
C1553 C1554 1.376 . S
C1554 H1541 0.930 . S
C1554 C1553 1.376 . S
C1554 C1555 1.388 . S
C1555 H1542 0.930 . S
C1555 C1554 1.388 . S
C1555 C1556 1.390 . S
C1556 C1555 1.390 . S
C1556 C1557 1.394 . S
C1556 C1562 1.465 1_655 S
C1557 C1552 1.399 . S
C1557 C1556 1.394 . S
C1557 C1558 1.515 1_655 S
C1558 C1557 1.515 1_455 S
C1558 C1559 1.502 . S
C1558 C1560 1.561 1_455 S
C1558 C1561 1.527 . S
C1559 H1543 0.959 . S
C1559 H1544 0.959 . S
C1559 H1545 0.961 1_455 S
C1559 C1558 1.502 . S
C1560 H1546 0.960 . S
C1560 H1547 0.961 1_655 S
C1560 H1548 0.959 . S
C1560 C1558 1.561 1_655 S
C1561 C1558 1.527 . S
C1561 C1562 1.396 . S
C1561 C1566 1.390 . S
C1562 C1556 1.465 1_455 S
C1562 C1561 1.396 . S
C1562 C1563 1.399 . S
C1563 H1549 0.929 . S
C1563 C1562 1.399 . S
C1563 C1564 1.385 . S
C1564 H1550 0.931 . S
C1564 C1563 1.385 . S
C1564 C1565 1.389 . S
C1565 C1564 1.389 . S
C1565 C1566 1.387 . S
C1566 H1551 0.930 . S
C1566 C1561 1.390 . S
C1566 C1565 1.387 . S
H1567 C1579 0.930 . S
H1568 C1581 0.930 . S
H1569 C1582 0.930 . S
H1570 C1586 0.959 . S
H1571 C1586 0.959 . S
H1572 C1586 0.961 . S
H1573 C1587 0.960 . S
H1574 C1587 0.961 . S
H1575 C1587 0.959 . S
H1576 C1590 0.929 . S
H1577 C1591 0.931 . S
H1578 C1593 0.930 . S
C1579 H1567 0.930 . S
C1579 C1580 1.399 . S
C1579 C1584 1.399 . S
C1580 C1579 1.399 . S
C1580 C1581 1.376 . S
C1581 H1568 0.930 . S
C1581 C1580 1.376 . S
C1581 C1582 1.388 . S
C1582 H1569 0.930 . S
C1582 C1581 1.388 . S
C1582 C1583 1.390 . S
C1583 C1582 1.390 . S
C1583 C1584 1.394 . S
C1583 C1589 1.465 . S
C1584 C1579 1.399 . S
C1584 C1583 1.394 . S
C1584 C1585 1.516 . S
C1585 C1584 1.516 . S
C1585 C1586 1.502 . S
C1585 C1587 1.561 . S
C1585 C1588 1.526 . S
C1586 H1570 0.959 . S
C1586 H1571 0.959 . S
C1586 H1572 0.961 . S
C1586 C1585 1.502 . S
C1587 H1573 0.960 . S
C1587 H1574 0.961 . S
C1587 H1575 0.959 . S
C1587 C1585 1.561 . S
C1588 C1585 1.526 . S
C1588 C1589 1.396 . S
C1588 C1593 1.390 . S
C1589 C1583 1.465 . S
C1589 C1588 1.396 . S
C1589 C1590 1.399 . S
C1590 H1576 0.929 . S
C1590 C1589 1.399 . S
C1590 C1591 1.385 . S
C1591 H1577 0.931 . S
C1591 C1590 1.385 . S
C1591 C1592 1.389 . S
C1592 C1591 1.389 . S
C1592 C1593 1.387 . S
C1593 H1578 0.930 . S
C1593 C1588 1.390 . S
C1593 C1592 1.387 . S
H1594 C1606 0.930 . S
H1595 C1608 0.930 . S
H1596 C1609 0.930 . S
H1597 C1613 0.959 . S
H1598 C1613 0.959 . S
H1599 C1613 0.961 . S
H1600 C1614 0.960 . S
H1601 C1614 0.961 . S
H1602 C1614 0.959 . S
H1603 C1617 0.929 . S
H1604 C1618 0.931 . S
H1605 C1620 0.930 . S
C1606 H1594 0.930 . S
C1606 C1607 1.399 . S
C1606 C1611 1.399 . S
C1607 C1606 1.399 . S
C1607 C1608 1.376 . S
C1608 H1595 0.930 . S
C1608 C1607 1.376 . S
C1608 C1609 1.388 . S
C1609 H1596 0.930 . S
C1609 C1608 1.388 . S
C1609 C1610 1.390 . S
C1610 C1609 1.390 . S
C1610 C1611 1.394 . S
C1610 C1616 1.465 . S
C1611 C1606 1.399 . S
C1611 C1610 1.394 . S
C1611 C1612 1.516 . S
C1612 C1611 1.516 . S
C1612 C1613 1.502 . S
C1612 C1614 1.561 . S
C1612 C1615 1.526 . S
C1613 H1597 0.959 . S
C1613 H1598 0.959 . S
C1613 H1599 0.961 . S
C1613 C1612 1.502 . S
C1614 H1600 0.960 . S
C1614 H1601 0.961 . S
C1614 H1602 0.959 . S
C1614 C1612 1.561 . S
C1615 C1612 1.526 . S
C1615 C1616 1.396 . S
C1615 C1620 1.390 . S
C1616 C1610 1.465 . S
C1616 C1615 1.396 . S
C1616 C1617 1.399 . S
C1617 H1603 0.929 . S
C1617 C1616 1.399 . S
C1617 C1618 1.385 . S
C1618 H1604 0.931 . S
C1618 C1617 1.385 . S
C1618 C1619 1.389 . S
C1619 C1618 1.389 . S
C1619 C1620 1.387 . S
C1620 H1605 0.930 . S
C1620 C1615 1.390 . S
C1620 C1619 1.387 . S
H1621 C1633 0.930 . S
H1622 C1635 0.930 . S
H1623 C1636 0.930 . S
H1624 C1640 0.963 . S
H1625 C1640 0.948 1_655 S
H1626 C1640 0.971 . S
H1627 C1641 0.965 . S
H1628 C1641 0.961 . S
H1629 C1641 0.959 . S
H1630 C1644 0.929 . S
H1631 C1645 0.931 . S
H1632 C1647 0.930 . S
C1633 H1621 0.930 . S
C1633 C1634 1.399 . S
C1633 C1638 1.399 . S
C1634 C1633 1.399 . S
C1634 C1635 1.376 . S
C1635 H1622 0.930 . S
C1635 C1634 1.376 . S
C1635 C1636 1.388 . S
C1636 H1623 0.930 . S
C1636 C1635 1.388 . S
C1636 C1637 1.390 . S
C1637 C1636 1.390 . S
C1637 C1638 1.394 . S
C1637 C1643 1.465 1_455 S
C1638 C1633 1.399 . S
C1638 C1637 1.394 . S
C1638 C1639 1.516 1_455 S
C1639 C1638 1.516 1_655 S
C1639 C1640 1.500 1_655 S
C1639 C1641 1.561 . S
C1639 C1642 1.526 . S
C1640 H1624 0.963 . S
C1640 H1625 0.948 1_455 S
C1640 H1626 0.971 . S
C1640 C1639 1.500 1_455 S
C1641 H1627 0.965 . S
C1641 H1628 0.961 . S
C1641 H1629 0.959 . S
C1641 C1639 1.561 . S
C1642 C1639 1.526 . S
C1642 C1643 1.396 . S
C1642 C1647 1.390 . S
C1643 C1637 1.465 1_655 S
C1643 C1642 1.396 . S
C1643 C1644 1.399 . S
C1644 H1630 0.929 . S
C1644 C1643 1.399 . S
C1644 C1645 1.385 . S
C1645 H1631 0.931 . S
C1645 C1644 1.385 . S
C1645 C1646 1.389 . S
C1646 C1645 1.389 . S
C1646 C1647 1.387 . S
C1647 H1632 0.930 . S
C1647 C1642 1.390 . S
C1647 C1646 1.387 . S
C365 C6 1.463 . S
C377 C290 1.526 . S
C392 C268 1.537 . S
C404 C29 1.377 . S
C419 C334 1.529 . S
C431 C50 1.475 . S
C446 C316 1.526 . S
C458 C72 1.464 . S
C473 C202 1.537 . S
C485 C97 1.446 . S
C500 C119 1.436 . S
C512 C184 1.538 . S
C527 C250 1.528 . S
C539 C137 1.400 . S
C554 C163 1.400 . S
C566 C228 1.539 . S
C581 C114 1.526 . S
C593 C182 1.475 . S
C608 C205 1.383 . S
C620 C92 1.535 . S
C635 C158 1.536 . S
C647 C226 1.379 . S
C662 C140 1.529 . S
C674 C248 1.475 . S
C689 C273 1.399 . S
C701 C26 1.539 . S
C716 C8 1.528 . S
C728 C295 1.405 . S
C743 C313 1.377 . S
C755 C74 1.536 . S
C770 C52 1.536 . S
C782 C339 1.457 . S
C797 C225 1.445 . S
C809 C5 1.480 . S
C824 C31 1.442 . S
C836 C247 1.491 . S
C851 C181 1.514 . S
C863 C49 1.472 . S
C878 C207 1.442 . S
C890 C71 1.489 . S
C905 C314 1.480 . S
C917 C95 1.445 . S
C932 C117 1.485 . S
C944 C337 1.514 . S
C959 C138 1.476 . S
C971 C271 1.513 . S
C986 C293 1.443 . S
C998 C161 1.467 . S
C1013 C7 1.666 . S
C1025 C28 1.668 . S
C1040 C51 1.666 . S
C1052 C73 1.668 . S
C1067 C93 1.660 . S
C1079 C115 1.660 . S
C1094 C159 1.660 . S
C1106 C141 1.660 . S
C1121 C204 1.659 . S
C1133 C183 1.659 . S
C1148 C227 1.661 . S
C1160 C249 1.660 . S
C1175 C291 1.667 . S
C1187 C269 1.668 . S
C1202 C317 1.659 . S
C1214 C335 1.659 . S
C1229 C270 0.752 . S
C1241 C9 0.720 . S
C1256 C27 0.700 . S
C1268 C292 0.819 . S
C1283 C53 0.828 . S
C1295 C315 0.688 . S
C1310 C75 0.710 . S
C1322 C336 0.812 . S
C1337 C94 0.834 . S
C1349 C185 0.650 . S
C1364 C116 0.699 . S
C1376 C203 0.819 . S
C1391 C139 0.819 . S
C1403 C229 0.660 . S
C1418 C251 0.647 . S
C1430 C160 0.838 . S
C1445 C4 1.475 . S
C1457 C206 1.472 . S
C1472 C30 1.479 . S
C1484 C180 1.482 . S
C1499 C246 1.464 . S
C1511 C48 1.463 . S
C1526 C224 1.467 . S
C1538 C70 1.465 . S
C1553 C96 1.465 . S
C1565 C294 1.463 . S
C1580 C118 1.489 . S
C1592 C272 1.492 . S
C1607 C338 1.474 . S
C1619 C136 1.469 . S
C1634 C162 1.492 . S
C1646 C312 1.493 . S
