# Generated by pormake.
# Topology crr, (4)-cn, num edge types: 1
# Building blocks:
#     Node 0, Type 0, BuildingBlock: NAWXER_clean_sbu_0, # of connection points: 4
#     Node 1, Type 0, BuildingBlock: NAWXER_clean_sbu_0, # of connection points: 4
#     Node 2, Type 0, BuildingBlock: NAWXER_clean_sbu_0, # of connection points: 4
#     Node 3, Type 0, BuildingBlock: NAWXER_clean_sbu_0, # of connection points: 4
#     Node 4, Type 0, BuildingBlock: NAWXER_clean_sbu_0, # of connection points: 4
#     Node 5, Type 0, BuildingBlock: NAWXER_clean_sbu_0, # of connection points: 4
#     Node 6, Type 0, BuildingBlock: NAWXER_clean_sbu_0, # of connection points: 4
#     Node 7, Type 0, BuildingBlock: NAWXER_clean_sbu_0, # of connection points: 4
#     Node 8, Type 0, BuildingBlock: NAWXER_clean_sbu_0, # of connection points: 4
#     Node 9, Type 0, BuildingBlock: NAWXER_clean_sbu_0, # of connection points: 4
#     Node 10, Type 0, BuildingBlock: NAWXER_clean_sbu_0, # of connection points: 4
#     Node 11, Type 0, BuildingBlock: NAWXER_clean_sbu_0, # of connection points: 4
#     Edge 12, Type (0, 0), BuildingBlock: ZUJKAS_clean_linker_0, # of connection points: 2
#     Edge 13, Type (0, 0), BuildingBlock: ZUJKAS_clean_linker_0, # of connection points: 2
#     Edge 14, Type (0, 0), BuildingBlock: ZUJKAS_clean_linker_0, # of connection points: 2
#     Edge 15, Type (0, 0), BuildingBlock: ZUJKAS_clean_linker_0, # of connection points: 2
#     Edge 16, Type (0, 0), BuildingBlock: ZUJKAS_clean_linker_0, # of connection points: 2
#     Edge 17, Type (0, 0), BuildingBlock: ZUJKAS_clean_linker_0, # of connection points: 2
#     Edge 18, Type (0, 0), BuildingBlock: ZUJKAS_clean_linker_0, # of connection points: 2
#     Edge 19, Type (0, 0), BuildingBlock: ZUJKAS_clean_linker_0, # of connection points: 2
#     Edge 20, Type (0, 0), BuildingBlock: ZUJKAS_clean_linker_0, # of connection points: 2
#     Edge 21, Type (0, 0), BuildingBlock: ZUJKAS_clean_linker_0, # of connection points: 2
#     Edge 22, Type (0, 0), BuildingBlock: ZUJKAS_clean_linker_0, # of connection points: 2
#     Edge 23, Type (0, 0), BuildingBlock: ZUJKAS_clean_linker_0, # of connection points: 2
#     Edge 24, Type (0, 0), BuildingBlock: ZUJKAS_clean_linker_0, # of connection points: 2
#     Edge 25, Type (0, 0), BuildingBlock: ZUJKAS_clean_linker_0, # of connection points: 2
#     Edge 26, Type (0, 0), BuildingBlock: ZUJKAS_clean_linker_0, # of connection points: 2
#     Edge 27, Type (0, 0), BuildingBlock: ZUJKAS_clean_linker_0, # of connection points: 2
#     Edge 28, Type (0, 0), BuildingBlock: ZUJKAS_clean_linker_0, # of connection points: 2
#     Edge 29, Type (0, 0), BuildingBlock: ZUJKAS_clean_linker_0, # of connection points: 2
#     Edge 30, Type (0, 0), BuildingBlock: ZUJKAS_clean_linker_0, # of connection points: 2
#     Edge 31, Type (0, 0), BuildingBlock: ZUJKAS_clean_linker_0, # of connection points: 2
#     Edge 32, Type (0, 0), BuildingBlock: ZUJKAS_clean_linker_0, # of connection points: 2
#     Edge 33, Type (0, 0), BuildingBlock: ZUJKAS_clean_linker_0, # of connection points: 2
#     Edge 34, Type (0, 0), BuildingBlock: ZUJKAS_clean_linker_0, # of connection points: 2
#     Edge 35, Type (0, 0), BuildingBlock: ZUJKAS_clean_linker_0, # of connection points: 2
# Relax obj value: 0.065
# Max RMSD: 0.110
# Mean RMSD: 0.110
data_MOF--net-crr--node1-NAWXER_clean_sbu_0--edge1-ZUJKAS_clean_linker_0
_symmetry_space_group_name_H-M    P1
_symmetry_Int_Tables_number       1
_symmetry_cell_setting            triclinic
loop_
_symmetry_equiv_pos_as_xyz
'x, y, z'
_cell_length_a     52.304773
_cell_length_b     51.742962
_cell_length_c     52.324943
_cell_angle_alpha  89.96607
_cell_angle_beta   90.030078
_cell_angle_gamma 90.077747
loop_
_atom_site_label
_atom_site_type_symbol
_atom_site_fract_x
_atom_site_fract_y
_atom_site_fract_z
_atom_type_partial_charge
C0 C 0.08336 0.32992 0.38819 0.0
C1 C 0.14749 0.35982 0.32868 0.0
O2 O 0.10519 0.33967 0.39257 0.0
Zn3 Zn 0.11531 0.34431 0.35796 0.0
O4 O 0.07593 0.32666 0.36501 0.0
Zn5 Zn 0.09165 0.33335 0.32734 0.0
O6 O 0.09356 0.29905 0.31292 0.0
O7 O 0.12028 0.30525 0.34493 0.0
O8 O 0.12792 0.35064 0.31692 0.0
O9 O 0.14812 0.35953 0.35291 0.0
O10 O 0.08979 0.37397 0.34415 0.0
O11 O 0.06742 0.357 0.31256 0.0
C12 C 0.11078 0.29041 0.32773 0.0
C13 C 0.07266 0.37623 0.32673 0.0
C14 C 0.33618 0.91745 0.72293 0.0
C15 C 0.32908 0.95667 0.63836 0.0
O16 O 0.32612 0.93913 0.71751 0.0
Zn17 Zn 0.33251 0.93745 0.68101 0.0
O18 O 0.3459 0.9036 0.70511 0.0
Zn19 Zn 0.3508 0.90504 0.66447 0.0
O20 O 0.38726 0.90367 0.66083 0.0
O21 O 0.37384 0.93976 0.67879 0.0
O22 O 0.34006 0.93454 0.63792 0.0
O23 O 0.32139 0.96581 0.65953 0.0
O24 O 0.30736 0.90616 0.67023 0.0
O25 O 0.33136 0.8755 0.65354 0.0
C26 C 0.39224 0.92554 0.67066 0.0
C27 C 0.30945 0.88362 0.66022 0.0
C28 C 0.92218 0.60696 0.329 0.0
C29 C 0.87386 0.68688 0.34084 0.0
O30 O 0.92644 0.62862 0.3183 0.0
Zn31 Zn 0.89902 0.64745 0.33491 0.0
O32 O 0.90397 0.60489 0.34527 0.0
Zn33 Zn 0.87514 0.62864 0.36219 0.0
O34 O 0.84427 0.61129 0.35216 0.0
O35 O 0.86534 0.6289 0.31994 0.0
O36 O 0.86587 0.66814 0.35475 0.0
O37 O 0.89308 0.6835 0.32635 0.0
O38 O 0.91216 0.6493 0.37364 0.0
O39 O 0.88418 0.62868 0.39775 0.0
C40 C 0.84619 0.61593 0.32838 0.0
C41 C 0.90486 0.6414 0.39569 0.0
C42 C 0.66177 0.11774 0.68771 0.0
C43 C 0.67278 0.07734 0.60454 0.0
O44 O 0.67153 0.09508 0.68972 0.0
Zn45 Zn 0.68219 0.06407 0.66423 0.0
O46 O 0.65544 0.12616 0.66581 0.0
Zn47 Zn 0.66627 0.09684 0.64621 0.0
O48 O 0.63918 0.06734 0.65593 0.0
O49 O 0.66033 0.03575 0.67462 0.0
O50 O 0.66306 0.09915 0.60987 0.0
O51 O 0.68053 0.06258 0.62273 0.0
O52 O 0.71855 0.06171 0.67112 0.0
O53 O 0.70699 0.09762 0.65142 0.0
C54 C 0.63933 0.04504 0.66662 0.0
C55 C 0.72447 0.08334 0.6612 0.0
C56 C 0.15141 0.61608 0.65998 0.0
C57 C 0.08772 0.64285 0.59794 0.0
O58 O 0.1523 0.61332 0.63587 0.0
Zn59 Zn 0.12012 0.62985 0.62869 0.0
O60 O 0.13228 0.62757 0.67025 0.0
Zn61 Zn 0.09735 0.64575 0.6585 0.0
O62 O 0.07177 0.6249 0.6756 0.0
O63 O 0.09303 0.60383 0.64572 0.0
O64 O 0.08156 0.64916 0.62082 0.0
O65 O 0.10882 0.63145 0.59385 0.0
O66 O 0.12813 0.66934 0.63769 0.0
O67 O 0.10267 0.68127 0.66912 0.0
C68 C 0.07585 0.60417 0.6632 0.0
C69 C 0.12043 0.68664 0.65342 0.0
C70 C 0.60539 0.92768 0.32632 0.0
C71 C 0.68887 0.88751 0.33733 0.0
O72 O 0.61065 0.90609 0.33663 0.0
Zn73 Zn 0.64709 0.90796 0.33274 0.0
O74 O 0.62359 0.94195 0.31774 0.0
Zn75 Zn 0.6649 0.94026 0.31516 0.0
O76 O 0.67081 0.94111 0.27854 0.0
O77 O 0.65162 0.9056 0.2921 0.0
O78 O 0.69048 0.90967 0.32642 0.0
O79 O 0.66719 0.87927 0.34464 0.0
O80 O 0.65734 0.93838 0.35832 0.0
O81 O 0.67583 0.9693 0.33599 0.0
C82 C 0.66092 0.91916 0.2738 0.0
C83 C 0.6681 0.96062 0.35736 0.0
C84 C 0.85703 0.3515 0.66641 0.0
C85 C 0.9193 0.32376 0.60429 0.0
O86 O 0.85568 0.35154 0.64222 0.0
Zn87 Zn 0.88835 0.33689 0.63597 0.0
O88 O 0.87705 0.34242 0.67748 0.0
Zn89 Zn 0.91322 0.32573 0.66545 0.0
O90 O 0.93772 0.34945 0.67983 0.0
O91 O 0.91386 0.36671 0.64951 0.0
O92 O 0.92778 0.32021 0.62706 0.0
O93 O 0.89711 0.33302 0.60101 0.0
O94 O 0.88403 0.29768 0.64856 0.0
O95 O 0.91205 0.29105 0.67932 0.0
C96 C 0.93161 0.3689 0.66632 0.0
C97 C 0.89422 0.28259 0.66512 0.0
C98 C 0.35814 0.04631 0.32911 0.0
C99 C 0.27335 0.08506 0.3354 0.0
O100 O 0.35842 0.06841 0.34019 0.0
Zn101 Zn 0.33163 0.09779 0.35067 0.0
O102 O 0.33708 0.03717 0.32105 0.0
Zn103 Zn 0.31541 0.0654 0.332 0.0
O104 O 0.3264 0.09684 0.30717 0.0
O105 O 0.34268 0.12747 0.33154 0.0
O106 O 0.27899 0.06356 0.32511 0.0
O107 O 0.291 0.09896 0.34545 0.0
O108 O 0.33491 0.09909 0.38712 0.0
O109 O 0.31722 0.06294 0.37335 0.0
C110 C 0.33632 0.11941 0.30951 0.0
C111 C 0.32511 0.07715 0.39189 0.0
C112 C 0.32665 0.39506 0.0702 0.0
C113 C 0.33923 0.31525 0.11847 0.0
O114 O 0.34484 0.39653 0.08657 0.0
Zn115 Zn 0.36302 0.37241 0.11444 0.0
O116 O 0.31424 0.37405 0.06785 0.0
Zn117 Zn 0.33285 0.35478 0.09364 0.0
O118 O 0.32196 0.37452 0.12809 0.0
O119 O 0.35683 0.39065 0.1458 0.0
O120 O 0.32286 0.31951 0.10101 0.0
O121 O 0.35499 0.33314 0.1248 0.0
O122 O 0.39736 0.37118 0.10238 0.0
O123 O 0.37032 0.35077 0.07696 0.0
C124 C 0.33278 0.38731 0.1461 0.0
C125 C 0.39315 0.35815 0.08227 0.0
C126 C 0.32499 0.64607 0.85544 0.0
C127 C 0.38219 0.6744 0.92208 0.0
O128 O 0.31246 0.6559 0.87418 0.0
Zn129 Zn 0.32162 0.67297 0.91092 0.0
O130 O 0.34918 0.64516 0.85641 0.0
Zn131 Zn 0.35293 0.66036 0.88931 0.0
O132 O 0.33684 0.63176 0.91439 0.0
O133 O 0.30463 0.65003 0.93459 0.0
O134 O 0.38699 0.66305 0.90117 0.0
O135 O 0.35894 0.67942 0.92822 0.0
O136 O 0.30838 0.70756 0.90777 0.0
O137 O 0.34195 0.70011 0.88335 0.0
C138 C 0.31844 0.6303 0.93052 0.0
C139 C 0.32467 0.7156 0.89161 0.0
C140 C 0.65968 0.71892 0.10309 0.0
C141 C 0.66054 0.6335 0.06386 0.0
O142 O 0.64337 0.70347 0.11329 0.0
Zn143 Zn 0.63126 0.66388 0.10858 0.0
O144 O 0.67377 0.71092 0.08498 0.0
Zn145 Zn 0.65984 0.67643 0.08325 0.0
O146 O 0.62091 0.68329 0.07073 0.0
O147 O 0.59596 0.6668 0.10062 0.0
O148 O 0.67332 0.65337 0.0575 0.0
O149 O 0.64447 0.63503 0.08228 0.0
O150 O 0.63881 0.64864 0.14077 0.0
O151 O 0.67321 0.65913 0.11863 0.0
C152 C 0.59847 0.6784 0.07943 0.0
C153 C 0.66297 0.64931 0.13873 0.0
C154 C 0.65295 0.31644 0.87362 0.0
C155 C 0.66003 0.39834 0.91956 0.0
O156 O 0.63803 0.33401 0.86488 0.0
Zn157 Zn 0.629 0.37373 0.87248 0.0
O158 O 0.66749 0.32148 0.89245 0.0
Zn159 Zn 0.65667 0.35693 0.89722 0.0
O160 O 0.61762 0.35267 0.90918 0.0
O161 O 0.59335 0.37267 0.88081 0.0
O162 O 0.67168 0.37737 0.92449 0.0
O163 O 0.64407 0.3991 0.90098 0.0
O164 O 0.63891 0.39047 0.8412 0.0
O165 O 0.67144 0.37508 0.8634 0.0
C166 C 0.59547 0.35965 0.90128 0.0
C167 C 0.66283 0.38701 0.8437 0.0
H168 H 0.14482 0.2659 0.3587 0.0
H169 H 0.16092 0.22193 0.35504 0.0
H170 H 0.11372 0.20938 0.2886 0.0
H171 H 0.09743 0.25377 0.29199 0.0
H172 H 0.13222 0.17336 0.35417 0.0
H173 H 0.18836 0.19213 0.26538 0.0
H174 H 0.17707 0.21827 0.2852 0.0
H175 H 0.15491 0.20032 0.26597 0.0
C176 C 0.13777 0.25388 0.34328 0.0
C177 C 0.11995 0.26343 0.32552 0.0
C178 C 0.14692 0.22868 0.34131 0.0
C179 C 0.13859 0.21249 0.32152 0.0
C180 C 0.12052 0.2217 0.30391 0.0
H181 H 0.23618 0.07608 0.29943 0.0
H182 H 0.19625 0.10058 0.29401 0.0
C183 C 0.11123 0.24702 0.3059 0.0
C184 C 0.14989 0.18639 0.31929 0.0
H185 H 0.19727 0.15416 0.28794 0.0
C186 C 0.14598 0.1688 0.33934 0.0
C187 C 0.16757 0.18039 0.29975 0.0
C188 C 0.17244 0.19869 0.27782 0.0
C189 C 0.16073 0.14629 0.34141 0.0
C190 C 0.18013 0.14155 0.32322 0.0
C191 C 0.18241 0.15789 0.30191 0.0
C192 C 0.2012 0.1232 0.32843 0.0
C193 C 0.15632 0.12846 0.36378 0.0
C194 C 0.21693 0.12755 0.34972 0.0
C195 C 0.23965 0.11389 0.35268 0.0
C196 C 0.24714 0.09552 0.33445 0.0
C197 C 0.23072 0.08999 0.31388 0.0
C198 C 0.20799 0.10399 0.31073 0.0
H199 H 0.136 0.12892 0.36994 0.0
H200 H 0.16161 0.10823 0.35907 0.0
H201 H 0.16818 0.13496 0.38016 0.0
H202 H 0.21241 0.14266 0.36331 0.0
H203 H 0.25193 0.11854 0.36873 0.0
H204 H 0.25952 0.89602 0.66991 0.0
H205 H 0.22255 0.8669 0.6701 0.0
H206 H 0.27086 0.8038 0.64666 0.0
H207 H 0.30792 0.83267 0.64634 0.0
H208 H 0.20281 0.8335 0.62859 0.0
H209 H 0.23493 0.77989 0.71479 0.0
H210 H 0.24701 0.81155 0.70656 0.0
H211 H 0.2587 0.78343 0.69022 0.0
C212 C 0.26227 0.87599 0.6646 0.0
C213 C 0.28672 0.86664 0.65822 0.0
C214 C 0.24112 0.85941 0.66474 0.0
C215 C 0.24411 0.83319 0.65875 0.0
C216 C 0.26828 0.82394 0.65168 0.0
H217 H 0.15082 0.70719 0.61648 0.0
H218 H 0.17694 0.74614 0.61897 0.0
C219 C 0.2894 0.8405 0.65137 0.0
C220 C 0.22208 0.81528 0.66017 0.0
H221 H 0.2009 0.76114 0.69087 0.0
C222 C 0.20219 0.81784 0.64237 0.0
C223 C 0.22114 0.7952 0.67848 0.0
C224 C 0.24145 0.79239 0.69878 0.0
C225 C 0.18199 0.79994 0.64156 0.0
C226 C 0.18188 0.77895 0.65888 0.0
C227 C 0.20108 0.7772 0.67753 0.0
C228 C 0.16354 0.75725 0.65649 0.0
C229 C 0.16115 0.80338 0.62192 0.0
C230 C 0.14727 0.75055 0.67679 0.0
C231 C 0.13218 0.7282 0.67542 0.0
C232 C 0.13355 0.71199 0.65389 0.0
C233 C 0.14935 0.71921 0.63335 0.0
C234 C 0.16418 0.7416 0.63465 0.0
H235 H 0.15976 0.8238 0.6155 0.0
H236 H 0.16555 0.79131 0.60496 0.0
H237 H 0.14232 0.7972 0.62961 0.0
H238 H 0.14671 0.7623 0.69391 0.0
H239 H 0.1203 0.72306 0.6916 0.0
H240 H 0.69377 0.84211 0.36373 0.0
H241 H 0.73105 0.81364 0.36523 0.0
H242 H 0.77317 0.86693 0.31786 0.0
H243 H 0.73604 0.89564 0.31629 0.0
H244 H 0.77237 0.81345 0.30094 0.0
H245 H 0.80103 0.82377 0.40252 0.0
H246 H 0.76751 0.81791 0.39762 0.0
H247 H 0.78158 0.84741 0.38614 0.0
C248 C 0.71104 0.84795 0.35388 0.0
C249 C 0.71193 0.87115 0.33992 0.0
C250 C 0.73236 0.83172 0.35485 0.0
C251 C 0.7549 0.83835 0.34186 0.0
C252 C 0.75598 0.8616 0.32815 0.0
H253 H 0.88417 0.73165 0.31414 0.0
H254 H 0.8588 0.77157 0.31392 0.0
C255 C 0.73475 0.87796 0.32733 0.0
C256 C 0.77664 0.8201 0.3413 0.0
H257 H 0.8182 0.78768 0.37994 0.0
C258 C 0.78275 0.80805 0.31808 0.0
C259 C 0.79009 0.81326 0.3637 0.0
C260 C 0.78494 0.8264 0.3889 0.0
C261 C 0.80093 0.78812 0.31697 0.0
C262 C 0.81369 0.78054 0.33962 0.0
C263 C 0.8084 0.7935 0.3626 0.0
C264 C 0.83036 0.75739 0.34054 0.0
C265 C 0.80521 0.7744 0.29189 0.0
C266 C 0.82327 0.73659 0.35617 0.0
C267 C 0.83777 0.71403 0.35654 0.0
C268 C 0.85975 0.71168 0.34124 0.0
C269 C 0.86726 0.73279 0.32602 0.0
C270 C 0.85272 0.75554 0.32576 0.0
H271 H 0.7903 0.77927 0.27754 0.0
H272 H 0.82404 0.78019 0.28398 0.0
H273 H 0.80535 0.75312 0.29468 0.0
H274 H 0.80613 0.73759 0.36775 0.0
H275 H 0.83139 0.69824 0.36856 0.0
H276 H 0.85948 0.2584 0.63472 0.0
H277 H 0.84235 0.21489 0.63909 0.0
H278 H 0.8904 0.2018 0.70481 0.0
H279 H 0.90774 0.24579 0.7007 0.0
H280 H 0.86895 0.16557 0.63996 0.0
H281 H 0.81596 0.18724 0.72998 0.0
H282 H 0.82789 0.21278 0.7097 0.0
H283 H 0.84971 0.19397 0.72847 0.0
C284 C 0.86654 0.24635 0.65011 0.0
C285 C 0.88485 0.25568 0.66749 0.0
C286 C 0.85679 0.2214 0.65249 0.0
C287 C 0.86501 0.20521 0.67233 0.0
C288 C 0.88368 0.21412 0.68948 0.0
H289 H 0.76199 0.07268 0.69637 0.0
H290 H 0.80297 0.0956 0.70124 0.0
C291 C 0.89357 0.23921 0.68707 0.0
C292 C 0.85278 0.17956 0.67517 0.0
H293 H 0.80456 0.14976 0.70775 0.0
C294 C 0.85536 0.16172 0.65515 0.0
C295 C 0.83529 0.17447 0.69515 0.0
C296 C 0.83183 0.19306 0.71709 0.0
C297 C 0.83941 0.13998 0.6535 0.0
C298 C 0.8202 0.13628 0.67213 0.0
C299 C 0.81928 0.15272 0.69344 0.0
C300 C 0.79804 0.1191 0.66738 0.0
C301 C 0.84229 0.12195 0.63107 0.0
C302 C 0.78193 0.12457 0.64664 0.0
C303 C 0.75861 0.11184 0.64402 0.0
C304 C 0.75091 0.09328 0.66203 0.0
C305 C 0.76759 0.08676 0.6821 0.0
C306 C 0.79092 0.09985 0.68493 0.0
H307 H 0.86239 0.12153 0.62422 0.0
H308 H 0.83627 0.10198 0.63605 0.0
H309 H 0.83017 0.1289 0.61508 0.0
H310 H 0.78676 0.13973 0.63319 0.0
H311 H 0.74615 0.11724 0.62835 0.0
H312 H 0.37664 0.29741 0.15002 0.0
H313 H 0.37554 0.25913 0.17718 0.0
H314 H 0.30148 0.2389 0.14693 0.0
H315 H 0.30237 0.27741 0.11951 0.0
H316 H 0.30435 0.24132 0.2012 0.0
H317 H 0.3823 0.18131 0.16106 0.0
H318 H 0.39131 0.21437 0.16646 0.0
H319 H 0.36707 0.20695 0.14321 0.0
C320 C 0.36024 0.28465 0.14881 0.0
C321 C 0.33954 0.2905 0.13264 0.0
C322 C 0.35975 0.26266 0.16423 0.0
C323 C 0.33857 0.24604 0.16384 0.0
C324 C 0.31809 0.25142 0.14732 0.0
H325 H 0.32744 0.10717 0.25939 0.0
H326 H 0.32735 0.13652 0.22265 0.0
C327 C 0.31866 0.27338 0.13166 0.0
C328 C 0.33702 0.22456 0.18249 0.0
H329 H 0.36886 0.17111 0.20375 0.0
C330 C 0.31821 0.22575 0.20155 0.0
C331 C 0.35505 0.20422 0.18281 0.0
C332 C 0.37494 0.20142 0.16215 0.0
C333 C 0.31767 0.20776 0.22162 0.0
C334 C 0.33654 0.18827 0.22269 0.0
C335 C 0.35463 0.18632 0.203 0.0
C336 C 0.33811 0.17022 0.24456 0.0
C337 C 0.29713 0.20992 0.24174 0.0
C338 C 0.34484 0.17942 0.26887 0.0
C339 C 0.34509 0.16272 0.28987 0.0
C340 C 0.33851 0.13653 0.28692 0.0
C341 C 0.33252 0.12725 0.26234 0.0
C342 C 0.33245 0.14395 0.24132 0.0
H343 H 0.28094 0.22215 0.23523 0.0
H344 H 0.28968 0.19052 0.24697 0.0
H345 H 0.30538 0.21882 0.25919 0.0
H346 H 0.34957 0.19961 0.27164 0.0
H347 H 0.34981 0.17051 0.30849 0.0
H348 H 0.34575 0.62621 0.81167 0.0
H349 H 0.32294 0.61025 0.77395 0.0
H350 H 0.25091 0.62667 0.81048 0.0
H351 H 0.27341 0.64254 0.84828 0.0
H352 H 0.25595 0.57557 0.78441 0.0
H353 H 0.28338 0.66073 0.72487 0.0
H354 H 0.30812 0.64331 0.74145 0.0
H355 H 0.28515 0.66157 0.75932 0.0
C356 C 0.32504 0.62634 0.81172 0.0
C357 C 0.31135 0.63583 0.83289 0.0
C358 C 0.3121 0.61722 0.79017 0.0
C359 C 0.28533 0.61744 0.7895 0.0
C360 C 0.27162 0.62633 0.81076 0.0
H361 H 0.1507 0.61011 0.71146 0.0
H362 H 0.18694 0.60292 0.7396 0.0
C363 C 0.2845 0.63551 0.83227 0.0
C364 C 0.27129 0.60962 0.76633 0.0
H365 H 0.25247 0.63269 0.70831 0.0
C366 C 0.25552 0.58772 0.76751 0.0
C367 C 0.27113 0.62535 0.74425 0.0
C368 C 0.28773 0.64914 0.74222 0.0
C369 C 0.23836 0.582 0.74772 0.0
C370 C 0.23663 0.59898 0.72662 0.0
C371 C 0.25383 0.61972 0.72455 0.0
C372 C 0.2145 0.59851 0.70906 0.0
C373 C 0.22156 0.55842 0.75007 0.0
C374 C 0.21792 0.59841 0.68244 0.0
C375 C 0.19711 0.60273 0.66617 0.0
C376 C 0.17274 0.60761 0.6764 0.0
C377 C 0.16926 0.60653 0.70299 0.0
C378 C 0.18993 0.6021 0.71914 0.0
H379 H 0.2314 0.54287 0.76093 0.0
H380 H 0.20396 0.56358 0.76075 0.0
H381 H 0.21595 0.55081 0.73103 0.0
H382 H 0.23682 0.59598 0.67433 0.0
H383 H 0.20034 0.60352 0.64574 0.0
H384 H 0.62768 0.74338 0.1361 0.0
H385 H 0.63164 0.78684 0.15341 0.0
H386 H 0.70022 0.79907 0.10931 0.0
H387 H 0.69645 0.75519 0.09175 0.0
H388 H 0.70502 0.81127 0.16148 0.0
H389 H 0.61921 0.85779 0.12094 0.0
H390 H 0.61171 0.82691 0.13462 0.0
H391 H 0.63292 0.82874 0.10757 0.0
C392 C 0.64352 0.75531 0.12984 0.0
C393 C 0.66178 0.74579 0.11256 0.0
C394 C 0.6456 0.78029 0.13957 0.0
C395 C 0.66593 0.79636 0.13224 0.0
C396 C 0.68421 0.78706 0.11492 0.0
H397 H 0.69261 0.93127 0.23353 0.0
H398 H 0.6965 0.90744 0.193 0.0
C399 C 0.68203 0.76201 0.10497 0.0
C400 C 0.66892 0.82185 0.14477 0.0
H401 H 0.63391 0.87461 0.16195 0.0
C402 C 0.68993 0.82563 0.16101 0.0
C403 C 0.64932 0.84062 0.14391 0.0
C404 C 0.62716 0.83844 0.12559 0.0
C405 C 0.69052 0.8463 0.17839 0.0
C406 C 0.66966 0.86366 0.17922 0.0
C407 C 0.64982 0.8612 0.16134 0.0
C408 C 0.66568 0.88083 0.20145 0.0
C409 C 0.71228 0.84812 0.19725 0.0
C410 C 0.64654 0.8743 0.21903 0.0
C411 C 0.64435 0.88769 0.24199 0.0
C412 C 0.66116 0.90805 0.2478 0.0
C413 C 0.6794 0.91566 0.22952 0.0
C414 C 0.68173 0.90202 0.20648 0.0
H415 H 0.72621 0.83209 0.19505 0.0
H416 H 0.72256 0.86669 0.19451 0.0
H417 H 0.70476 0.84782 0.2171 0.0
H418 H 0.63396 0.85803 0.21549 0.0
H419 H 0.62995 0.88151 0.25557 0.0
H420 H 0.71467 0.38846 0.84653 0.0
H421 H 0.74467 0.39432 0.81154 0.0
H422 H 0.6821 0.40893 0.75978 0.0
H423 H 0.65166 0.40271 0.79489 0.0
H424 H 0.71296 0.36955 0.74433 0.0
H425 H 0.77285 0.45359 0.76968 0.0
H426 H 0.77005 0.43172 0.79611 0.0
H427 H 0.74198 0.44782 0.78411 0.0
C428 C 0.70724 0.39346 0.82784 0.0
C429 C 0.68078 0.39486 0.82339 0.0
C430 C 0.72447 0.39711 0.8079 0.0
C431 C 0.71563 0.40241 0.78315 0.0
C432 C 0.68928 0.4051 0.77884 0.0
H433 H 0.81276 0.37328 0.64891 0.0
H434 H 0.77713 0.38985 0.6743 0.0
C435 C 0.67195 0.40153 0.79888 0.0
C436 C 0.73375 0.40101 0.76154 0.0
H437 H 0.79315 0.42084 0.74307 0.0
C438 C 0.73018 0.38123 0.74355 0.0
C439 C 0.75619 0.41623 0.76067 0.0
C440 C 0.76036 0.4387 0.77856 0.0
C441 C 0.74937 0.37494 0.72596 0.0
C442 C 0.77249 0.3891 0.72622 0.0
C443 C 0.77543 0.40991 0.74313 0.0
C444 C 0.79462 0.38101 0.71072 0.0
C445 C 0.74544 0.35213 0.7084 0.0
C446 C 0.81641 0.37113 0.7229 0.0
C447 C 0.8368 0.36168 0.70852 0.0
C448 C 0.83573 0.36202 0.68169 0.0
C449 C 0.81408 0.37253 0.66956 0.0
C450 C 0.79371 0.382 0.68399 0.0
H451 H 0.72814 0.34075 0.71347 0.0
H452 H 0.74321 0.35913 0.68847 0.0
H453 H 0.7623 0.33912 0.70897 0.0
H454 H 0.81738 0.37022 0.74357 0.0
H455 H 0.85324 0.35385 0.71843 0.0
H456 H 0.36705 0.88062 0.74284 0.0
H457 H 0.36114 0.85683 0.78255 0.0
H458 H 0.29708 0.9054 0.80192 0.0
H459 H 0.30286 0.92949 0.76176 0.0
H460 H 0.35784 0.87156 0.8361 0.0
H461 H 0.26743 0.83054 0.79632 0.0
H462 H 0.29017 0.84714 0.77621 0.0
H463 H 0.27089 0.86511 0.79826 0.0
C464 C 0.35196 0.8866 0.75572 0.0
C465 C 0.33521 0.90671 0.74907 0.0
C466 C 0.34867 0.87304 0.77847 0.0
C467 C 0.32849 0.87915 0.79497 0.0
C468 C 0.31263 0.90027 0.78926 0.0
H469 H 0.28786 0.75246 0.90016 0.0
H470 H 0.2865 0.79655 0.88283 0.0
C471 C 0.31604 0.91407 0.76643 0.0
C472 C 0.32304 0.86144 0.81649 0.0
H473 H 0.28583 0.80927 0.83115 0.0
C474 C 0.34173 0.85835 0.83549 0.0
C475 C 0.30193 0.84432 0.8157 0.0
C476 C 0.28142 0.84671 0.79554 0.0
C477 C 0.34082 0.83748 0.85258 0.0
C478 C 0.32098 0.81904 0.85024 0.0
C479 C 0.3011 0.82338 0.83276 0.0
C480 C 0.32253 0.79342 0.86279 0.0
C481 C 0.36174 0.83472 0.87223 0.0
C482 C 0.34307 0.77704 0.85702 0.0
C483 C 0.34382 0.75193 0.86665 0.0
C484 C 0.32396 0.74258 0.88222 0.0
C485 C 0.30348 0.75911 0.88826 0.0
C486 C 0.30269 0.78429 0.87844 0.0
H487 H 0.36965 0.85388 0.87768 0.0
H488 H 0.35471 0.82479 0.8897 0.0
H489 H 0.37757 0.82314 0.86402 0.0
H490 H 0.35824 0.78344 0.84443 0.0
H491 H 0.35987 0.73975 0.86161 0.0
H492 H 0.64742 0.6254 0.1827 0.0
H493 H 0.67434 0.60892 0.21728 0.0
H494 H 0.74177 0.63279 0.17612 0.0
H495 H 0.71512 0.64902 0.14129 0.0
H496 H 0.74445 0.58195 0.19887 0.0
H497 H 0.7121 0.65809 0.26688 0.0
H498 H 0.68773 0.63874 0.25198 0.0
H499 H 0.70654 0.66046 0.23293 0.0
C500 C 0.66799 0.62709 0.18096 0.0
C501 C 0.67915 0.63876 0.15936 0.0
C502 C 0.6833 0.61767 0.20074 0.0
C503 C 0.70995 0.6199 0.19929 0.0
C504 C 0.72118 0.63091 0.17751 0.0
H505 H 0.84784 0.6173 0.27649 0.0
H506 H 0.81252 0.61094 0.24693 0.0
C507 C 0.70592 0.64029 0.15771 0.0
C508 C 0.72633 0.61195 0.22085 0.0
H509 H 0.74473 0.63051 0.28058 0.0
C510 C 0.74431 0.59226 0.21691 0.0
C511 C 0.72584 0.62531 0.24441 0.0
C512 C 0.70716 0.64695 0.24942 0.0
C513 C 0.76264 0.58635 0.23556 0.0
C514 C 0.76319 0.60084 0.25844 0.0
C515 C 0.74421 0.61941 0.26301 0.0
C516 C 0.78522 0.60001 0.2761 0.0
C517 C 0.78168 0.56514 0.23031 0.0
C518 C 0.78162 0.59594 0.30238 0.0
C519 C 0.80184 0.59978 0.31946 0.0
C520 C 0.82581 0.6081 0.31047 0.0
C521 C 0.82958 0.611 0.28404 0.0
C522 C 0.80946 0.60707 0.26704 0.0
H523 H 0.77343 0.55025 0.21741 0.0
H524 H 0.79865 0.57351 0.22063 0.0
H525 H 0.78806 0.55566 0.24825 0.0
H526 H 0.76294 0.59074 0.30972 0.0
H527 H 0.79836 0.59742 0.33973 0.0
H528 H 0.64845 0.16877 0.68924 0.0
H529 H 0.6486 0.19744 0.72635 0.0
H530 H 0.6706 0.13387 0.77482 0.0
H531 H 0.67066 0.10491 0.73775 0.0
H532 H 0.62809 0.16888 0.79314 0.0
H533 H 0.71747 0.21907 0.76414 0.0
H534 H 0.69383 0.21558 0.73939 0.0
H535 H 0.70887 0.18735 0.7525 0.0
C536 C 0.65313 0.16078 0.70779 0.0
C537 C 0.65966 0.13456 0.7105 0.0
C538 C 0.65331 0.17722 0.72894 0.0
C539 C 0.65992 0.16777 0.75318 0.0
C540 C 0.66559 0.14149 0.75619 0.0
H541 H 0.69005 0.27903 0.87668 0.0
H542 H 0.69273 0.23914 0.85136 0.0
C543 C 0.6656 0.12501 0.73499 0.0
C544 C 0.66121 0.18564 0.77518 0.0
H545 H 0.69279 0.23904 0.79684 0.0
C546 C 0.64241 0.18402 0.79421 0.0
C547 C 0.68019 0.20505 0.77666 0.0
C548 C 0.70141 0.20685 0.75723 0.0
C549 C 0.64127 0.20233 0.81399 0.0
C550 C 0.65929 0.22272 0.81454 0.0
C551 C 0.67894 0.22343 0.79631 0.0
C552 C 0.65658 0.24499 0.83208 0.0
C553 C 0.62049 0.20002 0.83383 0.0
C554 C 0.63538 0.26133 0.82965 0.0
C555 C 0.63391 0.28409 0.84382 0.0
C556 C 0.65364 0.29098 0.86078 0.0
C557 C 0.67451 0.27416 0.86386 0.0
C558 C 0.67608 0.25143 0.84941 0.0
H559 H 0.61329 0.17987 0.83533 0.0
H560 H 0.62743 0.20636 0.85289 0.0
H561 H 0.6042 0.21257 0.82829 0.0
H562 H 0.62036 0.25697 0.81604 0.0
H563 H 0.61754 0.29658 0.84103 0.0
H564 H 0.28106 0.39109 0.14795 0.0
H565 H 0.25473 0.40015 0.18511 0.0
H566 H 0.32241 0.41359 0.23038 0.0
H567 H 0.34917 0.40424 0.19301 0.0
H568 H 0.29089 0.37668 0.25042 0.0
H569 H 0.23359 0.46265 0.22648 0.0
H570 H 0.23322 0.44008 0.20052 0.0
H571 H 0.26297 0.45487 0.21002 0.0
C572 C 0.29041 0.39648 0.16565 0.0
C573 C 0.31718 0.3967 0.16765 0.0
C574 C 0.27529 0.40199 0.18682 0.0
C575 C 0.28661 0.40795 0.2104 0.0
C576 C 0.31335 0.40934 0.21224 0.0
H577 H 0.19158 0.3813 0.3474 0.0
H578 H 0.22768 0.39841 0.32281 0.0
C579 C 0.32857 0.40395 0.19092 0.0
C580 C 0.2704 0.40845 0.2335 0.0
H581 H 0.21279 0.4308 0.25434 0.0
C582 C 0.27423 0.38905 0.25185 0.0
C583 C 0.24877 0.42468 0.2353 0.0
C584 C 0.24457 0.44691 0.21713 0.0
C585 C 0.25566 0.38375 0.27044 0.0
C586 C 0.23296 0.39853 0.27076 0.0
C587 C 0.23014 0.41935 0.25382 0.0
C588 C 0.21063 0.39039 0.28599 0.0
C589 C 0.2595 0.36108 0.28819 0.0
C590 C 0.18899 0.38077 0.27334 0.0
C591 C 0.1684 0.37102 0.28723 0.0
C592 C 0.16908 0.37077 0.31407 0.0
C593 C 0.19057 0.38103 0.32672 0.0
C594 C 0.2112 0.39082 0.31276 0.0
H595 H 0.27685 0.34973 0.28335 0.0
H596 H 0.26151 0.36819 0.3081 0.0
H597 H 0.24265 0.34801 0.28753 0.0
H598 H 0.18829 0.38025 0.25264 0.0
H599 H 0.1521 0.36341 0.2769 0.0
H600 H 0.97109 0.31679 0.60313 0.0
H601 H -0.00191 0.3121 0.56518 0.0
H602 H 0.93096 0.3124 0.51726 0.0
H603 H 0.90395 0.31785 0.55491 0.0
H604 H 0.00076 0.27639 0.52569 0.0
H605 H 0.97179 0.37302 0.48968 0.0
H606 H 0.96442 0.36211 0.52157 0.0
H607 H 0.94545 0.35141 0.4949 0.0
C608 C 0.9621 0.31565 0.58452 0.0
C609 C 0.93547 0.31812 0.58191 0.0
C610 C 0.97752 0.31293 0.56289 0.0
C611 C 0.96651 0.31249 0.53843 0.0
C612 C 0.93984 0.31339 0.53594 0.0
H613 H 0.03275 0.31687 0.38612 0.0
H614 H 0.00399 0.30896 0.42221 0.0
C615 C 0.92445 0.31643 0.55747 0.0
C616 C 0.98295 0.31246 0.51547 0.0
H617 H -0.00218 0.34788 0.46249 0.0
C618 C 0.00013 0.29198 0.51184 0.0
C619 C 0.98213 0.33295 0.49755 0.0
C620 C 0.96515 0.35625 0.50118 0.0
C621 C 0.01647 0.29139 0.49058 0.0
C622 C 0.01553 0.31182 0.47271 0.0
C623 C -0.0018 0.33213 0.47619 0.0
C624 C 0.03336 0.31349 0.45098 0.0
C625 C 0.03456 0.26897 0.48727 0.0
C626 C 0.0593 0.31859 0.45537 0.0
C627 C 0.0757 0.32336 0.43488 0.0
C628 C 0.06638 0.32308 0.40967 0.0
C629 C 0.0405 0.3172 0.40532 0.0
C630 C 0.02407 0.31263 0.42586 0.0
H631 H 0.02917 0.25228 0.4995 0.0
H632 H 0.03501 0.2626 0.46701 0.0
H633 H 0.05416 0.27518 0.49263 0.0
H634 H 0.06668 0.31974 0.47469 0.0
H635 H 0.09557 0.32775 0.43885 0.0
H636 H 0.3408 0.10166 0.43559 0.0
H637 H 0.33912 0.08518 0.47941 0.0
H638 H 0.3036 0.01505 0.45249 0.0
H639 H 0.30495 0.03139 0.40866 0.0
H640 H 0.28097 0.03635 0.49766 0.0
H641 H 0.38668 0.02685 0.50505 0.0
H642 H 0.37504 0.05822 0.49602 0.0
H643 H 0.37054 0.03128 0.47487 0.0
C644 C 0.33254 0.08277 0.43898 0.0
C645 C 0.3232 0.06775 0.41858 0.0
C646 C 0.33166 0.07337 0.46402 0.0
C647 C 0.32152 0.04879 0.46911 0.0
C648 C 0.31155 0.03406 0.44893 0.0
H649 H 0.34404 0.94194 0.59072 0.0
H650 H 0.3408 0.96626 0.55099 0.0
C651 C 0.31243 0.04341 0.42389 0.0
C652 C 0.32203 0.03792 0.4953 0.0
H653 H 0.36259 0.01559 0.54138 0.0
C654 C 0.29878 0.03197 0.50735 0.0
C655 C 0.34533 0.03207 0.50772 0.0
C656 C 0.37086 0.03721 0.49526 0.0
C657 C 0.29823 0.01999 0.53146 0.0
C658 C 0.32154 0.01404 0.5438 0.0
C659 C 0.34476 0.02036 0.5319 0.0
C660 C 0.32243 0.99942 0.56812 0.0
C661 C 0.2728 0.01293 0.54315 0.0
C662 C 0.31312 0.01003 0.59098 0.0
C663 C 0.31493 0.9961 0.61389 0.0
C664 C 0.32616 0.9714 0.61424 0.0
C665 C 0.33528 0.96088 0.5912 0.0
C666 C 0.33349 0.97477 0.56844 0.0
H667 H 0.25683 0.01483 0.52926 0.0
H668 H 0.27316 0.99278 0.55046 0.0
H669 H 0.2689 0.02592 0.55954 0.0
H670 H 0.30482 0.02919 0.59116 0.0
H671 H 0.30781 0.00479 0.63132 0.0
H672 H 0.04116 0.66641 0.60068 0.0
H673 H 0.00897 0.66967 0.56701 0.0
H674 H 0.06047 0.63292 0.514 0.0
H675 H 0.09279 0.62928 0.54763 0.0
H676 H 0.01012 0.69265 0.5175 0.0
H677 H 0.99609 0.58623 0.51456 0.0
H678 H 0.01281 0.60224 0.54027 0.0
H679 H 0.0286 0.59662 0.51029 0.0
C680 C 0.04577 0.6592 0.58181 0.0
C681 C 0.06944 0.64731 0.57688 0.0
C682 C 0.02735 0.66113 0.56261 0.0
C683 C 0.03225 0.65114 0.53824 0.0
C684 C 0.05624 0.64033 0.53288 0.0
H685 H 0.95017 0.66747 0.39716 0.0
H686 H 0.97925 0.67187 0.43332 0.0
C687 C 0.0747 0.63838 0.55207 0.0
C688 C 0.01187 0.65109 0.51873 0.0
H689 H 0.97497 0.61078 0.48268 0.0
C690 C 0.00233 0.67479 0.5099 0.0
C691 C 0.00146 0.62772 0.50934 0.0
C692 C 0.01005 0.60173 0.51923 0.0
C693 C 0.98305 0.67573 0.49127 0.0
C694 C 0.97341 0.65235 0.48111 0.0
C695 C 0.98251 0.62867 0.49046 0.0
C696 C 0.95464 0.65183 0.46002 0.0
C697 C 0.97307 0.70169 0.48276 0.0
C698 C 0.93123 0.63889 0.46303 0.0
C699 C 0.9146 0.63612 0.44231 0.0
C700 C 0.92123 0.64611 0.41822 0.0
C701 C 0.94445 0.65959 0.41547 0.0
C702 C 0.96103 0.66232 0.43617 0.0
H703 H 0.97679 0.71688 0.4973 0.0
H704 H 0.9829 0.70748 0.46485 0.0
H705 H 0.9522 0.70087 0.47891 0.0
H706 H 0.92607 0.63053 0.4813 0.0
H707 H 0.89687 0.62564 0.44504 0.0
H708 H 0.69267 0.03203 0.58641 0.0
H709 H 0.69474 0.0175 0.54203 0.0
H710 H 0.66006 0.0888 0.51723 0.0
H711 H 0.65762 0.10342 0.5616 0.0
H712 H 0.63679 0.04575 0.49699 0.0
H713 H 0.74169 0.04006 0.48368 0.0
H714 H 0.73076 0.02293 0.51146 0.0
H715 H 0.72719 0.05747 0.50983 0.0
C716 C 0.68566 0.04474 0.57152 0.0
C717 C 0.67496 0.06889 0.57758 0.0
C718 C 0.68706 0.03648 0.54613 0.0
C719 C 0.67795 0.05226 0.5263 0.0
C720 C 0.66739 0.07642 0.53224 0.0
H721 H 0.69128 0.008 0.36398 0.0
H722 H 0.69411 0.03316 0.40373 0.0
C723 C 0.66599 0.08472 0.55763 0.0
C724 C 0.67778 0.0427 0.4996 0.0
H725 H 0.71593 0.01747 0.4529 0.0
C726 C 0.65413 0.0399 0.48722 0.0
C727 C 0.70044 0.03541 0.48673 0.0
C728 C 0.72649 0.03935 0.49849 0.0
C729 C 0.65242 0.02882 0.46282 0.0
C730 C 0.67492 0.02006 0.45064 0.0
C731 C 0.6987 0.02401 0.46242 0.0
C732 C 0.6738 0.00502 0.42662 0.0
C733 C 0.62649 0.02619 0.45044 0.0
C734 C 0.66188 0.98076 0.42655 0.0
C735 C 0.66031 0.96639 0.40408 0.0
C736 C 0.67069 0.97595 0.38113 0.0
C737 C 0.68302 1.00014 0.38131 0.0
C738 C 0.68468 0.01452 0.40395 0.0
H739 H 0.61247 0.03993 0.45874 0.0
H740 H 0.62768 0.02955 0.42951 0.0
H741 H 0.61919 0.0063 0.4536 0.0
H742 H 0.65375 0.97292 0.44395 0.0
H743 H 0.65077 0.94782 0.40474 0.0
H744 H 0.40568 0.0612 0.3445 0.0
H745 H 0.44544 0.03691 0.34176 0.0
H746 H 0.40552 0.97371 0.30575 0.0
H747 H 0.36536 0.99807 0.3082 0.0
H748 H 0.45531 0.98808 0.36374 0.0
H749 H 0.46738 0.98762 0.25805 0.0
H750 H 0.44591 0.00957 0.2741 0.0
H751 H 0.43718 0.97626 0.27011 0.0
C752 C 0.40526 0.0422 0.33584 0.0
C753 C 0.38229 0.0316 0.32653 0.0
C754 C 0.42805 0.02833 0.33434 0.0
C755 C 0.42846 0.00361 0.3234 0.0
C756 C 0.40565 0.99292 0.31394 0.0
H757 H 0.56214 0.90294 0.34312 0.0
H758 H 0.51807 0.91879 0.34153 0.0
C759 C 0.38273 0.00683 0.31545 0.0
C760 C 0.45282 0.98906 0.3227 0.0
H761 H 0.49898 0.96641 0.28241 0.0
C762 C 0.46479 0.98311 0.34598 0.0
C763 C 0.46515 0.98284 0.29947 0.0
C764 C 0.45343 0.98951 0.27395 0.0
C765 C 0.48902 0.97154 0.34669 0.0
C766 C 0.50144 0.96543 0.32346 0.0
C767 C 0.48929 0.97098 0.30016 0.0
C768 C 0.52776 0.9549 0.32303 0.0
C769 C 0.50156 0.96688 0.37226 0.0
C770 C 0.54767 0.96965 0.31254 0.0
C771 C 0.57283 0.96065 0.31334 0.0
C772 C 0.57855 0.93664 0.32458 0.0
C773 C 0.55843 0.92159 0.33449 0.0
C774 C 0.53325 0.93063 0.33367 0.0
H775 H 0.49176 0.97743 0.38793 0.0
H776 H 0.50089 0.94593 0.37675 0.0
H777 H 0.52194 0.97293 0.37184 0.0
H778 H 0.54381 0.98842 0.3042 0.0
H779 H 0.58782 0.9727 0.30542 0.0
H780 H 0.08616 0.55554 0.64658 0.0
H781 H 0.05981 0.51697 0.65112 0.0
H782 H 0.00457 0.56029 0.69467 0.0
H783 H 0.03124 0.59921 0.6906 0.0
H784 H 0.01396 0.5103 0.71427 0.0
H785 H 0.99379 0.50768 0.61035 0.0
H786 H 0.02736 0.50827 0.61739 0.0
H787 H 0.00772 0.53548 0.62585 0.0
C788 C 0.06847 0.55694 0.65724 0.0
C789 C 0.06062 0.58054 0.66796 0.0
C790 C 0.0534 0.53485 0.65975 0.0
C791 C 0.02999 0.53594 0.67271 0.0
C792 C 0.02252 0.55915 0.6844 0.0
H793 H 0.91634 0.41589 0.64852 0.0
H794 H 0.93834 0.45726 0.65277 0.0
C795 C 0.03774 0.58134 0.68206 0.0
C796 C 0.01315 0.51291 0.67321 0.0
H797 H 0.98331 0.46976 0.63398 0.0
C798 C 0.00703 0.50151 0.69677 0.0
C799 C 0.00377 0.50177 0.65037 0.0
C800 C 0.00826 0.51407 0.62458 0.0
C801 C 0.99245 0.47869 0.69802 0.0
C802 C 0.98428 0.46678 0.67505 0.0
C803 C 0.98978 0.4787 0.65158 0.0
C804 C 0.97004 0.44195 0.67463 0.0
C805 C 0.98575 0.46775 0.7239 0.0
C806 C 0.98049 0.41952 0.68558 0.0
C807 C 0.96779 0.3958 0.68338 0.0
C808 C 0.94466 0.39404 0.66978 0.0
C809 C 0.9342 0.41655 0.65899 0.0
C810 C 0.94672 0.44025 0.66145 0.0
H811 H 0.98635 0.48288 0.73895 0.0
H812 H 0.96642 0.45884 0.72381 0.0
H813 H -0.00013 0.45265 0.72908 0.0
H814 H -0.00122 0.4202 0.69524 0.0
H815 H 0.9764 0.37877 0.69176 0.0
H816 H 0.63163 0.99749 0.68887 0.0
H817 H 0.59146 0.97297 0.69102 0.0
H818 H 0.5524 0.03468 0.65183 0.0
H819 H 0.59216 0.05918 0.64946 0.0
H820 H 0.54322 0.98792 0.71309 0.0
H821 H 0.53596 0.96954 0.60893 0.0
H822 H 0.56537 0.97955 0.62412 0.0
H823 H 0.54101 0.00292 0.61689 0.0
C824 C 0.61447 0.00583 0.68071 0.0
C825 C 0.61515 0.03024 0.66886 0.0
C826 C 0.59158 0.9918 0.68198 0.0
C827 C 0.5691 1.00186 0.67122 0.0
C828 C 0.56965 0.02638 0.65983 0.0
H829 H 0.40949 0.97085 0.69136 0.0
H830 H 0.45345 0.98677 0.69294 0.0
C831 C 0.59241 0.04041 0.65861 0.0
C832 C 0.54487 0.98705 0.67199 0.0
H833 H 0.49826 0.96208 0.63355 0.0
C834 C 0.53348 0.98199 0.69574 0.0
C835 C 0.53242 0.97903 0.64934 0.0
C836 C 0.5444 0.98279 0.62337 0.0
C837 C 0.50937 0.97009 0.69738 0.0
C838 C 0.49629 0.9634 0.67464 0.0
C839 C 0.5082 0.96746 0.65095 0.0
C840 C 0.46985 0.95304 0.67486 0.0
C841 C 0.49809 0.96487 0.7234 0.0
C842 C 0.46439 0.92898 0.66375 0.0
C843 C 0.43923 0.91986 0.66266 0.0
C844 C 0.41902 0.93477 0.67248 0.0
C845 C 0.42459 0.95883 0.68369 0.0
C846 C 0.44975 0.9679 0.6848 0.0
H847 H 0.51312 0.96412 0.7384 0.0
H848 H 0.48469 0.98069 0.72838 0.0
H849 H 0.4873 0.94638 0.72359 0.0
H850 H 0.47962 0.91731 0.6558 0.0
H851 H 0.43562 0.90128 0.65387 0.0
H852 H 0.97006 0.60518 0.30731 0.0
H853 H -0.00247 0.56698 0.3028 0.0
H854 H 0.93743 0.51904 0.3336 0.0
H855 H 0.91033 0.55688 0.3387 0.0
H856 H 0.98226 0.51204 0.35815 0.0
H857 H 0.99681 0.50617 0.25315 0.0
H858 H 0.00475 0.53684 0.26716 0.0
H859 H 0.97216 0.52584 0.2674 0.0
C860 C 0.96264 0.58641 0.31275 0.0
C861 C 0.93812 0.58405 0.32354 0.0
C862 C 0.97828 0.5646 0.31005 0.0
C863 C 0.96945 0.54013 0.31772 0.0
C864 C 0.94466 0.53772 0.32761 0.0
H865 H 0.03049 0.38624 0.2972 0.0
H866 H 0.00682 0.42695 0.29409 0.0
C867 C 0.9292 0.55941 0.33054 0.0
C868 C 0.9864 0.5172 0.31751 0.0
H869 H 0.02064 0.47696 0.27877 0.0
C870 C 0.99068 0.50439 0.34078 0.0
C871 C -0.00283 0.50715 0.29481 0.0
C872 C 0.99237 0.51953 0.26915 0.0
C873 C 0.00519 0.4817 0.342 0.0
C874 C 0.01637 0.47188 0.3194 0.0
C875 C 0.01221 0.48468 0.29609 0.0
C876 C 0.03186 0.44793 0.31967 0.0
C877 C 0.00777 0.46806 0.36739 0.0
C878 C 0.05408 0.44645 0.33462 0.0
C879 C 0.06744 0.42321 0.33666 0.0
C880 C 0.05905 0.40107 0.3235 0.0
C881 C 0.03737 0.4029 0.30768 0.0
C882 C 0.02388 0.42615 0.30581 0.0
H883 H 0.99275 0.47419 0.38111 0.0
H884 H 0.00659 0.44677 0.36501 0.0
H885 H 0.02663 0.4728 0.3759 0.0
H886 H 0.06086 0.46319 0.34504 0.0
H887 H 0.08427 0.42257 0.34873 0.0
H888 H 0.28501 0.40304 0.0389 0.0
H889 H 0.27502 0.44225 0.01433 0.0
H890 H 0.34459 0.47775 0.04145 0.0
H891 H 0.35437 0.43928 0.06623 0.0
H892 H 0.30305 0.50985 0.04545 0.0
H893 H 0.30925 0.46648 0.94828 0.0
H894 H 0.28714 0.45166 0.97014 0.0
H895 H 0.32086 0.44999 0.97637 0.0
C896 C 0.29819 0.4192 0.0395 0.0
C897 C 0.32048 0.41804 0.05451 0.0
C898 C 0.2925 0.44153 0.02541 0.0
C899 C 0.30917 0.46284 0.02594 0.0
C900 C 0.33141 0.46158 0.04083 0.0
H901 H 0.34826 0.5872 0.93045 0.0
H902 H 0.34115 0.5468 0.95332 0.0
C903 C 0.337 0.43949 0.05497 0.0
C904 C 0.30389 0.48676 0.01127 0.0
H905 H 0.30245 0.51125 0.95071 0.0
C906 C 0.30256 0.51019 0.02473 0.0
C907 C 0.30334 0.48705 0.98425 0.0
C908 C 0.30539 0.46253 0.9688 0.0
C909 C 0.30204 0.53402 0.01193 0.0
C910 C 0.30222 0.53436 0.9849 0.0
C911 C 0.30226 0.51088 0.97143 0.0
C912 C 0.30535 0.55874 0.97031 0.0
C913 C 0.30288 0.55857 0.02749 0.0
C914 C 0.28744 0.57886 0.97208 0.0
C915 C 0.29162 0.60222 0.95921 0.0
C916 C 0.31361 0.60568 0.94411 0.0
C917 C 0.33114 0.58523 0.94195 0.0
C918 C 0.32706 0.56205 0.95493 0.0
H919 H 0.30791 0.55483 0.04779 0.0
H920 H 0.317 0.57238 0.01943 0.0
H921 H 0.2838 0.5679 0.02706 0.0
H922 H 0.2703 0.57653 0.98345 0.0
H923 H 0.27762 0.61751 0.96104 0.0
H924 H 0.3835 0.71326 0.95756 0.0
H925 H 0.41999 0.72604 0.98428 0.0
H926 H 0.46444 0.66369 0.95235 0.0
H927 H 0.42876 0.65181 0.92492 0.0
H928 H 0.44407 0.70312 0.02053 0.0
H929 H 0.51467 0.72025 0.94481 0.0
H930 H 0.48112 0.71624 0.9378 0.0
H931 H 0.50185 0.68847 0.94049 0.0
C932 C 0.40118 0.70247 0.9562 0.0
C933 C 0.40346 0.68173 0.93903 0.0
C934 C 0.422 0.70982 0.97137 0.0
C935 C 0.44525 0.69635 0.96974 0.0
C936 C 0.44713 0.67511 0.95316 0.0
H937 H 0.55178 0.65562 0.08084 0.0
H938 H 0.51428 0.6664 0.05548 0.0
C939 C 0.42661 0.66814 0.93769 0.0
C940 C 0.46719 0.70305 0.98641 0.0
H941 H 0.53226 0.70567 0.98586 0.0
C942 C 0.46332 0.70431 0.01292 0.0
C943 C 0.49227 0.7057 0.97659 0.0
C944 C 0.49761 0.70792 0.94833 0.0
C945 C 0.48403 0.70567 0.02988 0.0
C946 C 0.50924 0.70453 0.02007 0.0
C947 C 0.513 0.70577 0.99354 0.0
C948 C 0.53169 0.69935 0.03664 0.0
C949 C 0.47857 0.70787 0.0581 0.0
C950 C 0.55446 0.71352 0.03376 0.0
C951 C 0.57631 0.70671 0.04762 0.0
C952 C 0.57558 0.68589 0.06483 0.0
C953 C 0.55275 0.67198 0.06794 0.0
C954 C 0.53117 0.67837 0.05368 0.0
H955 H 0.461 0.71943 0.06146 0.0
H956 H 0.4751 0.68831 0.0661 0.0
H957 H 0.49467 0.71701 0.06859 0.0
H958 H 0.55543 0.72963 0.02057 0.0
H959 H 0.59369 0.7178 0.04497 0.0
H960 H 0.68592 0.40317 0.96515 0.0
H961 H 0.68948 0.44213 0.99178 0.0
H962 H 0.64745 0.4855 0.93534 0.0
H963 H 0.64348 0.44696 0.90897 0.0
H964 H 0.70964 0.49257 0.98171 0.0
H965 H 0.60547 0.49478 0.00096 0.0
H966 H 0.62129 0.46684 0.98776 0.0
H967 H 0.61299 0.49366 0.96751 0.0
C968 C 0.67756 0.42105 0.9584 0.0
C969 C 0.66411 0.42188 0.93512 0.0
C970 C 0.67964 0.44326 0.97359 0.0
C971 C 0.66829 0.46652 0.96571 0.0
C972 C 0.65585 0.4676 0.94202 0.0
H973 H 0.68559 0.6243 0.01868 0.0
H974 H 0.68944 0.58298 0.99616 0.0
C975 C 0.65366 0.44551 0.92695 0.0
C976 C 0.66859 0.48964 0.98237 0.0
H977 H 0.62893 0.53274 0.01156 0.0
C978 C 0.69206 0.50129 0.98848 0.0
C979 C 0.64562 0.50071 0.99146 0.0
C980 C 0.61993 0.48823 0.98683 0.0
C981 C 0.69309 0.52425 0.0028 0.0
C982 C 0.67 0.53602 0.01076 0.0
C983 C 0.64662 0.52389 0.00524 0.0
C984 C 0.66936 0.56081 0.02499 0.0
C985 C 0.71885 0.53552 0.00947 0.0
C986 C 0.65639 0.56221 0.0484 0.0
C987 C 0.65375 0.5858 0.06102 0.0
C988 C 0.66412 0.60854 0.05054 0.0
C989 C 0.6775 0.6071 0.02729 0.0
C990 C 0.67991 0.58345 0.01451 0.0
H991 H 0.73413 0.52063 0.00873 0.0
H992 H 0.72375 0.55082 0.99543 0.0
H993 H 0.7187 0.54428 0.02883 0.0
H994 H 0.64802 0.54503 0.05681 0.0
H995 H 0.64347 0.58619 0.07898 0.0
H996 H 0.43785 0.38452 0.07746 0.0
H997 H 0.47095 0.37831 0.04526 0.0
H998 H 0.42958 0.31289 0.01494 0.0
H999 H 0.39565 0.3199 0.04642 0.0
H1000 H 0.50248 0.34079 0.03523 0.0
H1001 H 0.43877 0.35425 0.95136 0.0
H1002 H 0.42829 0.36038 0.98359 0.0
H1003 H 0.42966 0.32781 0.97159 0.0
C1004 C 0.43584 0.36876 0.06399 0.0
C1005 C 0.4141 0.35284 0.06425 0.0
C1006 C 0.45476 0.36522 0.04558 0.0
C1007 C 0.45249 0.34546 0.02733 0.0
C1008 C 0.43134 0.32876 0.0283 0.0
H1009 H 0.58871 0.31861 0.93308 0.0
H1010 H 0.55279 0.31085 0.96204 0.0
C1011 C 0.4121 0.33265 0.04641 0.0
C1012 C 0.47232 0.34282 0.00729 0.0
H1013 H 0.48186 0.34417 0.94278 0.0
C1014 C 0.49798 0.34145 0.015 0.0
C1015 C 0.46638 0.34389 0.98091 0.0
C1016 C 0.43931 0.34691 0.97132 0.0
C1017 C 0.51794 0.34206 -0.00283 0.0
C1018 C 0.51202 0.34286 0.97076 0.0
C1019 C 0.48633 0.34336 0.96301 0.0
C1020 C 0.53216 0.34537 0.95102 0.0
C1021 C 0.54509 0.34326 0.00698 0.0
C1022 C 0.53164 0.36637 0.93399 0.0
C1023 C 0.55172 0.37036 0.91688 0.0
C1024 C 0.57282 0.35365 0.91684 0.0
C1025 C 0.57281 0.33201 0.93307 0.0
C1026 C 0.55242 0.32767 0.94972 0.0
H1027 H 0.5459 0.34959 0.02725 0.0
H1028 H 0.55375 0.32373 0.00589 0.0
H1029 H 0.55687 0.35675 0.99541 0.0
H1030 H 0.51612 0.38021 0.93454 0.0
H1031 H 0.55129 0.38718 0.90454 0.0
loop_
_geom_bond_atom_site_label_1
_geom_bond_atom_site_label_2
_geom_bond_distance
_geom_bond_site_symmetry_2
_ccdc_geom_bond_type
C0 O2 1.247 . S
C0 O4 1.258 . S
C1 O8 1.247 . S
C1 O9 1.258 . S
O2 C0 1.247 . S
O2 Zn3 2.028 . S
Zn3 O2 2.028 . S
Zn3 O7 2.035 . S
Zn3 O9 2.035 . S
Zn3 O10 2.028 . S
O4 C0 1.258 . S
O4 Zn5 2.035 . S
Zn5 O4 2.035 . S
Zn5 O6 2.028 . S
Zn5 O8 2.028 . S
Zn5 O11 2.035 . S
O6 Zn5 2.028 . S
O6 C12 1.247 . S
O7 Zn3 2.035 . S
O7 C12 1.258 . S
O8 C1 1.247 . S
O8 Zn5 2.028 . S
O9 C1 1.258 . S
O9 Zn3 2.035 . S
O10 Zn3 2.028 . S
O10 C13 1.247 . S
O11 Zn5 2.035 . S
O11 C13 1.258 . S
C12 O6 1.247 . S
C12 O7 1.258 . S
C13 O10 1.247 . S
C13 O11 1.258 . S
C14 O16 1.247 . S
C14 O18 1.258 . S
C15 O22 1.247 . S
C15 O23 1.258 . S
O16 C14 1.247 . S
O16 Zn17 2.028 . S
Zn17 O16 2.028 . S
Zn17 O21 2.035 . S
Zn17 O23 2.035 . S
Zn17 O24 2.028 . S
O18 C14 1.258 . S
O18 Zn19 2.035 . S
Zn19 O18 2.035 . S
Zn19 O20 2.028 . S
Zn19 O22 2.028 . S
Zn19 O25 2.035 . S
O20 Zn19 2.028 . S
O20 C26 1.247 . S
O21 Zn17 2.035 . S
O21 C26 1.258 . S
O22 C15 1.247 . S
O22 Zn19 2.028 . S
O23 C15 1.258 . S
O23 Zn17 2.035 . S
O24 Zn17 2.028 . S
O24 C27 1.247 . S
O25 Zn19 2.035 . S
O25 C27 1.258 . S
C26 O20 1.247 . S
C26 O21 1.258 . S
C27 O24 1.247 . S
C27 O25 1.258 . S
C28 O30 1.247 . S
C28 O32 1.258 . S
C29 O36 1.247 . S
C29 O37 1.258 . S
O30 C28 1.247 . S
O30 Zn31 2.028 . S
Zn31 O30 2.028 . S
Zn31 O35 2.035 . S
Zn31 O37 2.035 . S
Zn31 O38 2.028 . S
O32 C28 1.258 . S
O32 Zn33 2.035 . S
Zn33 O32 2.035 . S
Zn33 O34 2.028 . S
Zn33 O36 2.028 . S
Zn33 O39 2.035 . S
O34 Zn33 2.028 . S
O34 C40 1.247 . S
O35 Zn31 2.035 . S
O35 C40 1.258 . S
O36 C29 1.247 . S
O36 Zn33 2.028 . S
O37 C29 1.258 . S
O37 Zn31 2.035 . S
O38 Zn31 2.028 . S
O38 C41 1.247 . S
O39 Zn33 2.035 . S
O39 C41 1.258 . S
C40 O34 1.247 . S
C40 O35 1.258 . S
C41 O38 1.247 . S
C41 O39 1.258 . S
C42 O44 1.247 . S
C42 O46 1.258 . S
C43 O50 1.247 . S
C43 O51 1.258 . S
O44 C42 1.247 . S
O44 Zn45 2.028 . S
Zn45 O44 2.028 . S
Zn45 O49 2.035 . S
Zn45 O51 2.035 . S
Zn45 O52 2.028 . S
O46 C42 1.258 . S
O46 Zn47 2.035 . S
Zn47 O46 2.035 . S
Zn47 O48 2.028 . S
Zn47 O50 2.028 . S
Zn47 O53 2.035 . S
O48 Zn47 2.028 . S
O48 C54 1.247 . S
O49 Zn45 2.035 . S
O49 C54 1.258 . S
O50 C43 1.247 . S
O50 Zn47 2.028 . S
O51 C43 1.258 . S
O51 Zn45 2.035 . S
O52 Zn45 2.028 . S
O52 C55 1.247 . S
O53 Zn47 2.035 . S
O53 C55 1.258 . S
C54 O48 1.247 . S
C54 O49 1.258 . S
C55 O52 1.247 . S
C55 O53 1.258 . S
C56 O58 1.247 . S
C56 O60 1.258 . S
C57 O64 1.247 . S
C57 O65 1.258 . S
O58 C56 1.247 . S
O58 Zn59 2.028 . S
Zn59 O58 2.028 . S
Zn59 O63 2.035 . S
Zn59 O65 2.035 . S
Zn59 O66 2.028 . S
O60 C56 1.258 . S
O60 Zn61 2.035 . S
Zn61 O60 2.035 . S
Zn61 O62 2.028 . S
Zn61 O64 2.028 . S
Zn61 O67 2.035 . S
O62 Zn61 2.028 . S
O62 C68 1.247 . S
O63 Zn59 2.035 . S
O63 C68 1.258 . S
O64 C57 1.247 . S
O64 Zn61 2.028 . S
O65 C57 1.258 . S
O65 Zn59 2.035 . S
O66 Zn59 2.028 . S
O66 C69 1.247 . S
O67 Zn61 2.035 . S
O67 C69 1.258 . S
C68 O62 1.247 . S
C68 O63 1.258 . S
C69 O66 1.247 . S
C69 O67 1.258 . S
C70 O72 1.247 . S
C70 O74 1.258 . S
C71 O78 1.247 . S
C71 O79 1.258 . S
O72 C70 1.247 . S
O72 Zn73 2.028 . S
Zn73 O72 2.028 . S
Zn73 O77 2.035 . S
Zn73 O79 2.035 . S
Zn73 O80 2.028 . S
O74 C70 1.258 . S
O74 Zn75 2.035 . S
Zn75 O74 2.035 . S
Zn75 O76 2.028 . S
Zn75 O78 2.028 . S
Zn75 O81 2.035 . S
O76 Zn75 2.028 . S
O76 C82 1.247 . S
O77 Zn73 2.035 . S
O77 C82 1.258 . S
O78 C71 1.247 . S
O78 Zn75 2.028 . S
O79 C71 1.258 . S
O79 Zn73 2.035 . S
O80 Zn73 2.028 . S
O80 C83 1.247 . S
O81 Zn75 2.035 . S
O81 C83 1.258 . S
C82 O76 1.247 . S
C82 O77 1.258 . S
C83 O80 1.247 . S
C83 O81 1.258 . S
C84 O86 1.247 . S
C84 O88 1.258 . S
C85 O92 1.247 . S
C85 O93 1.258 . S
O86 C84 1.247 . S
O86 Zn87 2.028 . S
Zn87 O86 2.028 . S
Zn87 O91 2.035 . S
Zn87 O93 2.035 . S
Zn87 O94 2.028 . S
O88 C84 1.258 . S
O88 Zn89 2.035 . S
Zn89 O88 2.035 . S
Zn89 O90 2.028 . S
Zn89 O92 2.028 . S
Zn89 O95 2.035 . S
O90 Zn89 2.028 . S
O90 C96 1.247 . S
O91 Zn87 2.035 . S
O91 C96 1.258 . S
O92 C85 1.247 . S
O92 Zn89 2.028 . S
O93 C85 1.258 . S
O93 Zn87 2.035 . S
O94 Zn87 2.028 . S
O94 C97 1.247 . S
O95 Zn89 2.035 . S
O95 C97 1.258 . S
C96 O90 1.247 . S
C96 O91 1.258 . S
C97 O94 1.247 . S
C97 O95 1.258 . S
C98 O100 1.247 . S
C98 O102 1.258 . S
C99 O106 1.247 . S
C99 O107 1.258 . S
O100 C98 1.247 . S
O100 Zn101 2.028 . S
Zn101 O100 2.028 . S
Zn101 O105 2.035 . S
Zn101 O107 2.035 . S
Zn101 O108 2.028 . S
O102 C98 1.258 . S
O102 Zn103 2.035 . S
Zn103 O102 2.035 . S
Zn103 O104 2.028 . S
Zn103 O106 2.028 . S
Zn103 O109 2.035 . S
O104 Zn103 2.028 . S
O104 C110 1.247 . S
O105 Zn101 2.035 . S
O105 C110 1.258 . S
O106 C99 1.247 . S
O106 Zn103 2.028 . S
O107 C99 1.258 . S
O107 Zn101 2.035 . S
O108 Zn101 2.028 . S
O108 C111 1.247 . S
O109 Zn103 2.035 . S
O109 C111 1.258 . S
C110 O104 1.247 . S
C110 O105 1.258 . S
C111 O108 1.247 . S
C111 O109 1.258 . S
C112 O114 1.247 . S
C112 O116 1.258 . S
C113 O120 1.247 . S
C113 O121 1.258 . S
O114 C112 1.247 . S
O114 Zn115 2.028 . S
Zn115 O114 2.028 . S
Zn115 O119 2.035 . S
Zn115 O121 2.035 . S
Zn115 O122 2.028 . S
O116 C112 1.258 . S
O116 Zn117 2.035 . S
Zn117 O116 2.035 . S
Zn117 O118 2.028 . S
Zn117 O120 2.028 . S
Zn117 O123 2.035 . S
O118 Zn117 2.028 . S
O118 C124 1.247 . S
O119 Zn115 2.035 . S
O119 C124 1.258 . S
O120 C113 1.247 . S
O120 Zn117 2.028 . S
O121 C113 1.258 . S
O121 Zn115 2.035 . S
O122 Zn115 2.028 . S
O122 C125 1.247 . S
O123 Zn117 2.035 . S
O123 C125 1.258 . S
C124 O118 1.247 . S
C124 O119 1.258 . S
C125 O122 1.247 . S
C125 O123 1.258 . S
C126 O128 1.247 . S
C126 O130 1.258 . S
C127 O134 1.247 . S
C127 O135 1.258 . S
O128 C126 1.247 . S
O128 Zn129 2.028 . S
Zn129 O128 2.028 . S
Zn129 O133 2.035 . S
Zn129 O135 2.035 . S
Zn129 O136 2.028 . S
O130 C126 1.258 . S
O130 Zn131 2.035 . S
Zn131 O130 2.035 . S
Zn131 O132 2.028 . S
Zn131 O134 2.028 . S
Zn131 O137 2.035 . S
O132 Zn131 2.028 . S
O132 C138 1.247 . S
O133 Zn129 2.035 . S
O133 C138 1.258 . S
O134 C127 1.247 . S
O134 Zn131 2.028 . S
O135 C127 1.258 . S
O135 Zn129 2.035 . S
O136 Zn129 2.028 . S
O136 C139 1.247 . S
O137 Zn131 2.035 . S
O137 C139 1.258 . S
C138 O132 1.247 . S
C138 O133 1.258 . S
C139 O136 1.247 . S
C139 O137 1.258 . S
C140 O142 1.247 . S
C140 O144 1.258 . S
C141 O148 1.247 . S
C141 O149 1.258 . S
O142 C140 1.247 . S
O142 Zn143 2.028 . S
Zn143 O142 2.028 . S
Zn143 O147 2.035 . S
Zn143 O149 2.035 . S
Zn143 O150 2.028 . S
O144 C140 1.258 . S
O144 Zn145 2.035 . S
Zn145 O144 2.035 . S
Zn145 O146 2.028 . S
Zn145 O148 2.028 . S
Zn145 O151 2.035 . S
O146 Zn145 2.028 . S
O146 C152 1.247 . S
O147 Zn143 2.035 . S
O147 C152 1.258 . S
O148 C141 1.247 . S
O148 Zn145 2.028 . S
O149 C141 1.258 . S
O149 Zn143 2.035 . S
O150 Zn143 2.028 . S
O150 C153 1.247 . S
O151 Zn145 2.035 . S
O151 C153 1.258 . S
C152 O146 1.247 . S
C152 O147 1.258 . S
C153 O150 1.247 . S
C153 O151 1.258 . S
C154 O156 1.247 . S
C154 O158 1.258 . S
C155 O162 1.247 . S
C155 O163 1.258 . S
O156 C154 1.247 . S
O156 Zn157 2.028 . S
Zn157 O156 2.028 . S
Zn157 O161 2.035 . S
Zn157 O163 2.035 . S
Zn157 O164 2.028 . S
O158 C154 1.258 . S
O158 Zn159 2.035 . S
Zn159 O158 2.035 . S
Zn159 O160 2.028 . S
Zn159 O162 2.028 . S
Zn159 O165 2.035 . S
O160 Zn159 2.028 . S
O160 C166 1.247 . S
O161 Zn157 2.035 . S
O161 C166 1.258 . S
O162 C155 1.247 . S
O162 Zn159 2.028 . S
O163 C155 1.258 . S
O163 Zn157 2.035 . S
O164 Zn157 2.028 . S
O164 C167 1.247 . S
O165 Zn159 2.035 . S
O165 C167 1.258 . S
C166 O160 1.247 . S
C166 O161 1.258 . S
C167 O164 1.247 . S
C167 O165 1.258 . S
H168 C176 0.929 . S
H169 C178 0.930 . S
H170 C180 0.930 . S
H171 C183 0.929 . S
H172 C186 0.930 . S
H173 C188 0.960 . S
H174 C188 0.960 . S
H175 C188 0.960 . S
C176 H168 0.929 . S
C176 C177 1.377 . S
C176 C178 1.384 . S
C177 C176 1.377 . S
C177 C183 1.390 . S
C178 H169 0.930 . S
C178 C176 1.384 . S
C178 C179 1.372 . S
C179 C178 1.372 . S
C179 C180 1.400 . S
C179 C184 1.490 . S
C180 H170 0.930 . S
C180 C179 1.400 . S
C180 C183 1.386 . S
H181 C197 0.930 . S
H182 C198 0.931 . S
C183 H171 0.929 . S
C183 C177 1.390 . S
C183 C180 1.386 . S
C184 C179 1.490 . S
C184 C186 1.395 . S
C184 C187 1.403 . S
H185 C191 0.930 . S
C186 H172 0.930 . S
C186 C184 1.395 . S
C186 C189 1.403 . S
C187 C184 1.403 . S
C187 C188 1.524 . S
C187 C191 1.400 . S
C188 H173 0.960 . S
C188 H174 0.960 . S
C188 H175 0.960 . S
C188 C187 1.524 . S
C189 C186 1.403 . S
C189 C190 1.392 . S
C189 C193 1.495 . S
C190 C189 1.392 . S
C190 C191 1.385 . S
C190 C192 1.478 . S
C191 H185 0.930 . S
C191 C187 1.400 . S
C191 C190 1.385 . S
C192 C190 1.478 . S
C192 C194 1.381 . S
C192 C198 1.383 . S
C193 C189 1.495 . S
C193 H199 0.959 . S
C193 H200 0.961 . S
C193 H201 0.960 . S
C194 C192 1.381 . S
C194 C195 1.394 . S
C194 H202 0.930 . S
C195 C194 1.394 . S
C195 C196 1.383 . S
C195 H203 0.929 . S
C196 C195 1.383 . S
C196 C197 1.377 . S
C197 H181 0.930 . S
C197 C196 1.377 . S
C197 C198 1.379 . S
C198 H182 0.931 . S
C198 C192 1.383 . S
C198 C197 1.379 . S
H199 C193 0.959 . S
H200 C193 0.961 . S
H201 C193 0.960 . S
H202 C194 0.930 . S
H203 C195 0.929 . S
H204 C212 0.929 . S
H205 C214 0.930 . S
H206 C216 0.930 . S
H207 C219 0.929 . S
H208 C222 0.930 . S
H209 C224 0.960 . S
H210 C224 0.960 . S
H211 C224 0.960 . S
C212 H204 0.929 . S
C212 C213 1.377 . S
C212 C214 1.384 . S
C213 C212 1.377 . S
C213 C219 1.390 . S
C214 H205 0.930 . S
C214 C212 1.384 . S
C214 C215 1.372 . S
C215 C214 1.372 . S
C215 C216 1.400 . S
C215 C220 1.490 . S
C216 H206 0.930 . S
C216 C215 1.400 . S
C216 C219 1.386 . S
H217 C233 0.930 . S
H218 C234 0.931 . S
C219 H207 0.929 . S
C219 C213 1.390 . S
C219 C216 1.386 . S
C220 C215 1.490 . S
C220 C222 1.395 . S
C220 C223 1.403 . S
H221 C227 0.930 . S
C222 H208 0.930 . S
C222 C220 1.395 . S
C222 C225 1.403 . S
C223 C220 1.403 . S
C223 C224 1.524 . S
C223 C227 1.400 . S
C224 H209 0.960 . S
C224 H210 0.960 . S
C224 H211 0.960 . S
C224 C223 1.524 . S
C225 C222 1.403 . S
C225 C226 1.392 . S
C225 C229 1.495 . S
C226 C225 1.392 . S
C226 C227 1.385 . S
C226 C228 1.478 . S
C227 H221 0.930 . S
C227 C223 1.400 . S
C227 C226 1.385 . S
C228 C226 1.478 . S
C228 C230 1.381 . S
C228 C234 1.383 . S
C229 C225 1.495 . S
C229 H235 0.959 . S
C229 H236 0.961 . S
C229 H237 0.960 . S
C230 C228 1.381 . S
C230 C231 1.394 . S
C230 H238 0.930 . S
C231 C230 1.394 . S
C231 C232 1.383 . S
C231 H239 0.929 . S
C232 C231 1.383 . S
C232 C233 1.377 . S
C233 H217 0.930 . S
C233 C232 1.377 . S
C233 C234 1.379 . S
C234 H218 0.931 . S
C234 C228 1.383 . S
C234 C233 1.379 . S
H235 C229 0.959 . S
H236 C229 0.961 . S
H237 C229 0.960 . S
H238 C230 0.930 . S
H239 C231 0.929 . S
H240 C248 0.929 . S
H241 C250 0.930 . S
H242 C252 0.930 . S
H243 C255 0.929 . S
H244 C258 0.930 . S
H245 C260 0.960 . S
H246 C260 0.960 . S
H247 C260 0.960 . S
C248 H240 0.929 . S
C248 C249 1.377 . S
C248 C250 1.384 . S
C249 C248 1.377 . S
C249 C255 1.390 . S
C250 H241 0.930 . S
C250 C248 1.384 . S
C250 C251 1.372 . S
C251 C250 1.372 . S
C251 C252 1.400 . S
C251 C256 1.490 . S
C252 H242 0.930 . S
C252 C251 1.400 . S
C252 C255 1.386 . S
H253 C269 0.930 . S
H254 C270 0.931 . S
C255 H243 0.929 . S
C255 C249 1.390 . S
C255 C252 1.386 . S
C256 C251 1.490 . S
C256 C258 1.395 . S
C256 C259 1.403 . S
H257 C263 0.930 . S
C258 H244 0.930 . S
C258 C256 1.395 . S
C258 C261 1.403 . S
C259 C256 1.403 . S
C259 C260 1.524 . S
C259 C263 1.400 . S
C260 H245 0.960 . S
C260 H246 0.960 . S
C260 H247 0.960 . S
C260 C259 1.524 . S
C261 C258 1.403 . S
C261 C262 1.392 . S
C261 C265 1.495 . S
C262 C261 1.392 . S
C262 C263 1.385 . S
C262 C264 1.478 . S
C263 H257 0.930 . S
C263 C259 1.400 . S
C263 C262 1.385 . S
C264 C262 1.478 . S
C264 C266 1.381 . S
C264 C270 1.383 . S
C265 C261 1.495 . S
C265 H271 0.959 . S
C265 H272 0.961 . S
C265 H273 0.960 . S
C266 C264 1.381 . S
C266 C267 1.394 . S
C266 H274 0.930 . S
C267 C266 1.394 . S
C267 C268 1.383 . S
C267 H275 0.929 . S
C268 C267 1.383 . S
C268 C269 1.377 . S
C269 H253 0.930 . S
C269 C268 1.377 . S
C269 C270 1.379 . S
C270 H254 0.931 . S
C270 C264 1.383 . S
C270 C269 1.379 . S
H271 C265 0.959 . S
H272 C265 0.961 . S
H273 C265 0.960 . S
H274 C266 0.930 . S
H275 C267 0.929 . S
H276 C284 0.929 . S
H277 C286 0.930 . S
H278 C288 0.930 . S
H279 C291 0.929 . S
H280 C294 0.930 . S
H281 C296 0.960 . S
H282 C296 0.960 . S
H283 C296 0.960 . S
C284 H276 0.929 . S
C284 C285 1.377 . S
C284 C286 1.384 . S
C285 C284 1.377 . S
C285 C291 1.390 . S
C286 H277 0.930 . S
C286 C284 1.384 . S
C286 C287 1.372 . S
C287 C286 1.372 . S
C287 C288 1.400 . S
C287 C292 1.490 . S
C288 H278 0.930 . S
C288 C287 1.400 . S
C288 C291 1.386 . S
H289 C305 0.930 . S
H290 C306 0.931 . S
C291 H279 0.929 . S
C291 C285 1.390 . S
C291 C288 1.386 . S
C292 C287 1.490 . S
C292 C294 1.395 . S
C292 C295 1.403 . S
H293 C299 0.930 . S
C294 H280 0.930 . S
C294 C292 1.395 . S
C294 C297 1.403 . S
C295 C292 1.403 . S
C295 C296 1.524 . S
C295 C299 1.400 . S
C296 H281 0.960 . S
C296 H282 0.960 . S
C296 H283 0.960 . S
C296 C295 1.524 . S
C297 C294 1.403 . S
C297 C298 1.392 . S
C297 C301 1.495 . S
C298 C297 1.392 . S
C298 C299 1.385 . S
C298 C300 1.478 . S
C299 H293 0.930 . S
C299 C295 1.400 . S
C299 C298 1.385 . S
C300 C298 1.478 . S
C300 C302 1.381 . S
C300 C306 1.383 . S
C301 C297 1.495 . S
C301 H307 0.959 . S
C301 H308 0.961 . S
C301 H309 0.960 . S
C302 C300 1.381 . S
C302 C303 1.394 . S
C302 H310 0.930 . S
C303 C302 1.394 . S
C303 C304 1.383 . S
C303 H311 0.929 . S
C304 C303 1.383 . S
C304 C305 1.377 . S
C305 H289 0.930 . S
C305 C304 1.377 . S
C305 C306 1.379 . S
C306 H290 0.931 . S
C306 C300 1.383 . S
C306 C305 1.379 . S
H307 C301 0.959 . S
H308 C301 0.961 . S
H309 C301 0.960 . S
H310 C302 0.930 . S
H311 C303 0.929 . S
H312 C320 0.929 . S
H313 C322 0.930 . S
H314 C324 0.930 . S
H315 C327 0.929 . S
H316 C330 0.930 . S
H317 C332 0.960 . S
H318 C332 0.960 . S
H319 C332 0.960 . S
C320 H312 0.929 . S
C320 C321 1.377 . S
C320 C322 1.384 . S
C321 C320 1.377 . S
C321 C327 1.390 . S
C322 H313 0.930 . S
C322 C320 1.384 . S
C322 C323 1.372 . S
C323 C322 1.372 . S
C323 C324 1.400 . S
C323 C328 1.490 . S
C324 H314 0.930 . S
C324 C323 1.400 . S
C324 C327 1.386 . S
H325 C341 0.930 . S
H326 C342 0.931 . S
C327 H315 0.929 . S
C327 C321 1.390 . S
C327 C324 1.386 . S
C328 C323 1.490 . S
C328 C330 1.395 . S
C328 C331 1.403 . S
H329 C335 0.930 . S
C330 H316 0.930 . S
C330 C328 1.395 . S
C330 C333 1.403 . S
C331 C328 1.403 . S
C331 C332 1.524 . S
C331 C335 1.400 . S
C332 H317 0.960 . S
C332 H318 0.960 . S
C332 H319 0.960 . S
C332 C331 1.524 . S
C333 C330 1.403 . S
C333 C334 1.392 . S
C333 C337 1.495 . S
C334 C333 1.392 . S
C334 C335 1.385 . S
C334 C336 1.478 . S
C335 H329 0.930 . S
C335 C331 1.400 . S
C335 C334 1.385 . S
C336 C334 1.478 . S
C336 C338 1.381 . S
C336 C342 1.383 . S
C337 C333 1.495 . S
C337 H343 0.959 . S
C337 H344 0.961 . S
C337 H345 0.960 . S
C338 C336 1.381 . S
C338 C339 1.394 . S
C338 H346 0.930 . S
C339 C338 1.394 . S
C339 C340 1.383 . S
C339 H347 0.929 . S
C340 C339 1.383 . S
C340 C341 1.377 . S
C341 H325 0.930 . S
C341 C340 1.377 . S
C341 C342 1.379 . S
C342 H326 0.931 . S
C342 C336 1.383 . S
C342 C341 1.379 . S
H343 C337 0.959 . S
H344 C337 0.961 . S
H345 C337 0.960 . S
H346 C338 0.930 . S
H347 C339 0.929 . S
H348 C356 0.929 . S
H349 C358 0.930 . S
H350 C360 0.930 . S
H351 C363 0.929 . S
H352 C366 0.930 . S
H353 C368 0.960 . S
H354 C368 0.960 . S
H355 C368 0.960 . S
C356 H348 0.929 . S
C356 C357 1.377 . S
C356 C358 1.384 . S
C357 C356 1.377 . S
C357 C363 1.390 . S
C358 H349 0.930 . S
C358 C356 1.384 . S
C358 C359 1.372 . S
C359 C358 1.372 . S
C359 C360 1.400 . S
C359 C364 1.490 . S
C360 H350 0.930 . S
C360 C359 1.400 . S
C360 C363 1.386 . S
H361 C377 0.930 . S
H362 C378 0.931 . S
C363 H351 0.929 . S
C363 C357 1.390 . S
C363 C360 1.386 . S
C364 C359 1.490 . S
C364 C366 1.395 . S
C364 C367 1.403 . S
H365 C371 0.930 . S
C366 H352 0.930 . S
C366 C364 1.395 . S
C366 C369 1.403 . S
C367 C364 1.403 . S
C367 C368 1.524 . S
C367 C371 1.400 . S
C368 H353 0.960 . S
C368 H354 0.960 . S
C368 H355 0.960 . S
C368 C367 1.524 . S
C369 C366 1.403 . S
C369 C370 1.392 . S
C369 C373 1.495 . S
C370 C369 1.392 . S
C370 C371 1.385 . S
C370 C372 1.478 . S
C371 H365 0.930 . S
C371 C367 1.400 . S
C371 C370 1.385 . S
C372 C370 1.478 . S
C372 C374 1.381 . S
C372 C378 1.383 . S
C373 C369 1.495 . S
C373 H379 0.959 . S
C373 H380 0.961 . S
C373 H381 0.960 . S
C374 C372 1.381 . S
C374 C375 1.394 . S
C374 H382 0.930 . S
C375 C374 1.394 . S
C375 C376 1.383 . S
C375 H383 0.929 . S
C376 C375 1.383 . S
C376 C377 1.377 . S
C377 H361 0.930 . S
C377 C376 1.377 . S
C377 C378 1.379 . S
C378 H362 0.931 . S
C378 C372 1.383 . S
C378 C377 1.379 . S
H379 C373 0.959 . S
H380 C373 0.961 . S
H381 C373 0.960 . S
H382 C374 0.930 . S
H383 C375 0.929 . S
H384 C392 0.929 . S
H385 C394 0.930 . S
H386 C396 0.930 . S
H387 C399 0.929 . S
H388 C402 0.930 . S
H389 C404 0.960 . S
H390 C404 0.960 . S
H391 C404 0.960 . S
C392 H384 0.929 . S
C392 C393 1.377 . S
C392 C394 1.384 . S
C393 C392 1.377 . S
C393 C399 1.390 . S
C394 H385 0.930 . S
C394 C392 1.384 . S
C394 C395 1.372 . S
C395 C394 1.372 . S
C395 C396 1.400 . S
C395 C400 1.490 . S
C396 H386 0.930 . S
C396 C395 1.400 . S
C396 C399 1.386 . S
H397 C413 0.930 . S
H398 C414 0.931 . S
C399 H387 0.929 . S
C399 C393 1.390 . S
C399 C396 1.386 . S
C400 C395 1.490 . S
C400 C402 1.395 . S
C400 C403 1.403 . S
H401 C407 0.930 . S
C402 H388 0.930 . S
C402 C400 1.395 . S
C402 C405 1.403 . S
C403 C400 1.403 . S
C403 C404 1.524 . S
C403 C407 1.400 . S
C404 H389 0.960 . S
C404 H390 0.960 . S
C404 H391 0.960 . S
C404 C403 1.524 . S
C405 C402 1.403 . S
C405 C406 1.392 . S
C405 C409 1.495 . S
C406 C405 1.392 . S
C406 C407 1.385 . S
C406 C408 1.478 . S
C407 H401 0.930 . S
C407 C403 1.400 . S
C407 C406 1.385 . S
C408 C406 1.478 . S
C408 C410 1.381 . S
C408 C414 1.383 . S
C409 C405 1.495 . S
C409 H415 0.959 . S
C409 H416 0.961 . S
C409 H417 0.960 . S
C410 C408 1.381 . S
C410 C411 1.394 . S
C410 H418 0.930 . S
C411 C410 1.394 . S
C411 C412 1.383 . S
C411 H419 0.929 . S
C412 C411 1.383 . S
C412 C413 1.377 . S
C413 H397 0.930 . S
C413 C412 1.377 . S
C413 C414 1.379 . S
C414 H398 0.931 . S
C414 C408 1.383 . S
C414 C413 1.379 . S
H415 C409 0.959 . S
H416 C409 0.961 . S
H417 C409 0.960 . S
H418 C410 0.930 . S
H419 C411 0.929 . S
H420 C428 0.929 . S
H421 C430 0.930 . S
H422 C432 0.930 . S
H423 C435 0.929 . S
H424 C438 0.930 . S
H425 C440 0.960 . S
H426 C440 0.960 . S
H427 C440 0.960 . S
C428 H420 0.929 . S
C428 C429 1.377 . S
C428 C430 1.384 . S
C429 C428 1.377 . S
C429 C435 1.390 . S
C430 H421 0.930 . S
C430 C428 1.384 . S
C430 C431 1.372 . S
C431 C430 1.372 . S
C431 C432 1.400 . S
C431 C436 1.490 . S
C432 H422 0.930 . S
C432 C431 1.400 . S
C432 C435 1.386 . S
H433 C449 0.930 . S
H434 C450 0.931 . S
C435 H423 0.929 . S
C435 C429 1.390 . S
C435 C432 1.386 . S
C436 C431 1.490 . S
C436 C438 1.395 . S
C436 C439 1.403 . S
H437 C443 0.930 . S
C438 H424 0.930 . S
C438 C436 1.395 . S
C438 C441 1.403 . S
C439 C436 1.403 . S
C439 C440 1.524 . S
C439 C443 1.400 . S
C440 H425 0.960 . S
C440 H426 0.960 . S
C440 H427 0.960 . S
C440 C439 1.524 . S
C441 C438 1.403 . S
C441 C442 1.392 . S
C441 C445 1.495 . S
C442 C441 1.392 . S
C442 C443 1.385 . S
C442 C444 1.478 . S
C443 H437 0.930 . S
C443 C439 1.400 . S
C443 C442 1.385 . S
C444 C442 1.478 . S
C444 C446 1.381 . S
C444 C450 1.383 . S
C445 C441 1.495 . S
C445 H451 0.959 . S
C445 H452 0.961 . S
C445 H453 0.960 . S
C446 C444 1.381 . S
C446 C447 1.394 . S
C446 H454 0.930 . S
C447 C446 1.394 . S
C447 C448 1.383 . S
C447 H455 0.929 . S
C448 C447 1.383 . S
C448 C449 1.377 . S
C449 H433 0.930 . S
C449 C448 1.377 . S
C449 C450 1.379 . S
C450 H434 0.931 . S
C450 C444 1.383 . S
C450 C449 1.379 . S
H451 C445 0.959 . S
H452 C445 0.961 . S
H453 C445 0.960 . S
H454 C446 0.930 . S
H455 C447 0.929 . S
H456 C464 0.929 . S
H457 C466 0.930 . S
H458 C468 0.930 . S
H459 C471 0.929 . S
H460 C474 0.930 . S
H461 C476 0.960 . S
H462 C476 0.960 . S
H463 C476 0.960 . S
C464 H456 0.929 . S
C464 C465 1.377 . S
C464 C466 1.384 . S
C465 C464 1.377 . S
C465 C471 1.390 . S
C466 H457 0.930 . S
C466 C464 1.384 . S
C466 C467 1.372 . S
C467 C466 1.372 . S
C467 C468 1.400 . S
C467 C472 1.490 . S
C468 H458 0.930 . S
C468 C467 1.400 . S
C468 C471 1.386 . S
H469 C485 0.930 . S
H470 C486 0.931 . S
C471 H459 0.929 . S
C471 C465 1.390 . S
C471 C468 1.386 . S
C472 C467 1.490 . S
C472 C474 1.395 . S
C472 C475 1.403 . S
H473 C479 0.930 . S
C474 H460 0.930 . S
C474 C472 1.395 . S
C474 C477 1.403 . S
C475 C472 1.403 . S
C475 C476 1.524 . S
C475 C479 1.400 . S
C476 H461 0.960 . S
C476 H462 0.960 . S
C476 H463 0.960 . S
C476 C475 1.524 . S
C477 C474 1.403 . S
C477 C478 1.392 . S
C477 C481 1.495 . S
C478 C477 1.392 . S
C478 C479 1.385 . S
C478 C480 1.478 . S
C479 H473 0.930 . S
C479 C475 1.400 . S
C479 C478 1.385 . S
C480 C478 1.478 . S
C480 C482 1.381 . S
C480 C486 1.383 . S
C481 C477 1.495 . S
C481 H487 0.959 . S
C481 H488 0.961 . S
C481 H489 0.960 . S
C482 C480 1.381 . S
C482 C483 1.394 . S
C482 H490 0.930 . S
C483 C482 1.394 . S
C483 C484 1.383 . S
C483 H491 0.929 . S
C484 C483 1.383 . S
C484 C485 1.377 . S
C485 H469 0.930 . S
C485 C484 1.377 . S
C485 C486 1.379 . S
C486 H470 0.931 . S
C486 C480 1.383 . S
C486 C485 1.379 . S
H487 C481 0.959 . S
H488 C481 0.961 . S
H489 C481 0.960 . S
H490 C482 0.930 . S
H491 C483 0.929 . S
H492 C500 0.929 . S
H493 C502 0.930 . S
H494 C504 0.930 . S
H495 C507 0.929 . S
H496 C510 0.930 . S
H497 C512 0.960 . S
H498 C512 0.960 . S
H499 C512 0.960 . S
C500 H492 0.929 . S
C500 C501 1.377 . S
C500 C502 1.384 . S
C501 C500 1.377 . S
C501 C507 1.390 . S
C502 H493 0.930 . S
C502 C500 1.384 . S
C502 C503 1.372 . S
C503 C502 1.372 . S
C503 C504 1.400 . S
C503 C508 1.490 . S
C504 H494 0.930 . S
C504 C503 1.400 . S
C504 C507 1.386 . S
H505 C521 0.930 . S
H506 C522 0.931 . S
C507 H495 0.929 . S
C507 C501 1.390 . S
C507 C504 1.386 . S
C508 C503 1.490 . S
C508 C510 1.395 . S
C508 C511 1.403 . S
H509 C515 0.930 . S
C510 H496 0.930 . S
C510 C508 1.395 . S
C510 C513 1.403 . S
C511 C508 1.403 . S
C511 C512 1.524 . S
C511 C515 1.400 . S
C512 H497 0.960 . S
C512 H498 0.960 . S
C512 H499 0.960 . S
C512 C511 1.524 . S
C513 C510 1.403 . S
C513 C514 1.392 . S
C513 C517 1.495 . S
C514 C513 1.392 . S
C514 C515 1.385 . S
C514 C516 1.478 . S
C515 H509 0.930 . S
C515 C511 1.400 . S
C515 C514 1.385 . S
C516 C514 1.478 . S
C516 C518 1.381 . S
C516 C522 1.383 . S
C517 C513 1.495 . S
C517 H523 0.959 . S
C517 H524 0.961 . S
C517 H525 0.960 . S
C518 C516 1.381 . S
C518 C519 1.394 . S
C518 H526 0.930 . S
C519 C518 1.394 . S
C519 C520 1.383 . S
C519 H527 0.929 . S
C520 C519 1.383 . S
C520 C521 1.377 . S
C521 H505 0.930 . S
C521 C520 1.377 . S
C521 C522 1.379 . S
C522 H506 0.931 . S
C522 C516 1.383 . S
C522 C521 1.379 . S
H523 C517 0.959 . S
H524 C517 0.961 . S
H525 C517 0.960 . S
H526 C518 0.930 . S
H527 C519 0.929 . S
H528 C536 0.929 . S
H529 C538 0.930 . S
H530 C540 0.930 . S
H531 C543 0.929 . S
H532 C546 0.930 . S
H533 C548 0.960 . S
H534 C548 0.960 . S
H535 C548 0.960 . S
C536 H528 0.929 . S
C536 C537 1.377 . S
C536 C538 1.384 . S
C537 C536 1.377 . S
C537 C543 1.390 . S
C538 H529 0.930 . S
C538 C536 1.384 . S
C538 C539 1.372 . S
C539 C538 1.372 . S
C539 C540 1.400 . S
C539 C544 1.490 . S
C540 H530 0.930 . S
C540 C539 1.400 . S
C540 C543 1.386 . S
H541 C557 0.930 . S
H542 C558 0.931 . S
C543 H531 0.929 . S
C543 C537 1.390 . S
C543 C540 1.386 . S
C544 C539 1.490 . S
C544 C546 1.395 . S
C544 C547 1.403 . S
H545 C551 0.930 . S
C546 H532 0.930 . S
C546 C544 1.395 . S
C546 C549 1.403 . S
C547 C544 1.403 . S
C547 C548 1.524 . S
C547 C551 1.400 . S
C548 H533 0.960 . S
C548 H534 0.960 . S
C548 H535 0.960 . S
C548 C547 1.524 . S
C549 C546 1.403 . S
C549 C550 1.392 . S
C549 C553 1.495 . S
C550 C549 1.392 . S
C550 C551 1.385 . S
C550 C552 1.478 . S
C551 H545 0.930 . S
C551 C547 1.400 . S
C551 C550 1.385 . S
C552 C550 1.478 . S
C552 C554 1.381 . S
C552 C558 1.383 . S
C553 C549 1.495 . S
C553 H559 0.959 . S
C553 H560 0.961 . S
C553 H561 0.960 . S
C554 C552 1.381 . S
C554 C555 1.394 . S
C554 H562 0.930 . S
C555 C554 1.394 . S
C555 C556 1.383 . S
C555 H563 0.929 . S
C556 C555 1.383 . S
C556 C557 1.377 . S
C557 H541 0.930 . S
C557 C556 1.377 . S
C557 C558 1.379 . S
C558 H542 0.931 . S
C558 C552 1.383 . S
C558 C557 1.379 . S
H559 C553 0.959 . S
H560 C553 0.961 . S
H561 C553 0.960 . S
H562 C554 0.930 . S
H563 C555 0.929 . S
H564 C572 0.929 . S
H565 C574 0.930 . S
H566 C576 0.930 . S
H567 C579 0.929 . S
H568 C582 0.930 . S
H569 C584 0.960 . S
H570 C584 0.960 . S
H571 C584 0.960 . S
C572 H564 0.929 . S
C572 C573 1.377 . S
C572 C574 1.384 . S
C573 C572 1.377 . S
C573 C579 1.390 . S
C574 H565 0.930 . S
C574 C572 1.384 . S
C574 C575 1.372 . S
C575 C574 1.372 . S
C575 C576 1.400 . S
C575 C580 1.490 . S
C576 H566 0.930 . S
C576 C575 1.400 . S
C576 C579 1.386 . S
H577 C593 0.930 . S
H578 C594 0.931 . S
C579 H567 0.929 . S
C579 C573 1.390 . S
C579 C576 1.386 . S
C580 C575 1.490 . S
C580 C582 1.395 . S
C580 C583 1.403 . S
H581 C587 0.930 . S
C582 H568 0.930 . S
C582 C580 1.395 . S
C582 C585 1.403 . S
C583 C580 1.403 . S
C583 C584 1.524 . S
C583 C587 1.400 . S
C584 H569 0.960 . S
C584 H570 0.960 . S
C584 H571 0.960 . S
C584 C583 1.524 . S
C585 C582 1.403 . S
C585 C586 1.392 . S
C585 C589 1.495 . S
C586 C585 1.392 . S
C586 C587 1.385 . S
C586 C588 1.478 . S
C587 H581 0.930 . S
C587 C583 1.400 . S
C587 C586 1.385 . S
C588 C586 1.478 . S
C588 C590 1.381 . S
C588 C594 1.383 . S
C589 C585 1.495 . S
C589 H595 0.959 . S
C589 H596 0.961 . S
C589 H597 0.960 . S
C590 C588 1.381 . S
C590 C591 1.394 . S
C590 H598 0.930 . S
C591 C590 1.394 . S
C591 C592 1.383 . S
C591 H599 0.929 . S
C592 C591 1.383 . S
C592 C593 1.377 . S
C593 H577 0.930 . S
C593 C592 1.377 . S
C593 C594 1.379 . S
C594 H578 0.931 . S
C594 C588 1.383 . S
C594 C593 1.379 . S
H595 C589 0.959 . S
H596 C589 0.961 . S
H597 C589 0.960 . S
H598 C590 0.930 . S
H599 C591 0.929 . S
H600 C608 0.929 . S
H601 C610 0.930 1_455 S
H602 C612 0.930 . S
H603 C615 0.929 . S
H604 C618 0.930 . S
H605 C620 0.960 . S
H606 C620 0.960 . S
H607 C620 0.960 . S
C608 H600 0.929 . S
C608 C609 1.377 . S
C608 C610 1.384 . S
C609 C608 1.377 . S
C609 C615 1.390 . S
C610 H601 0.930 1_655 S
C610 C608 1.384 . S
C610 C611 1.372 . S
C611 C610 1.372 . S
C611 C612 1.400 . S
C611 C616 1.490 . S
C612 H602 0.930 . S
C612 C611 1.400 . S
C612 C615 1.386 . S
H613 C629 0.930 . S
H614 C630 0.931 1_655 S
C615 H603 0.929 . S
C615 C609 1.390 . S
C615 C612 1.386 . S
C616 C611 1.490 . S
C616 C618 1.395 1_655 S
C616 C619 1.403 . S
H617 C623 0.930 . S
C618 H604 0.930 . S
C618 C616 1.395 1_455 S
C618 C621 1.403 . S
C619 C616 1.403 . S
C619 C620 1.524 . S
C619 C623 1.400 . S
C620 H605 0.960 . S
C620 H606 0.960 . S
C620 H607 0.960 . S
C620 C619 1.524 . S
C621 C618 1.403 . S
C621 C622 1.392 . S
C621 C625 1.495 . S
C622 C621 1.392 . S
C622 C623 1.385 1_455 S
C622 C624 1.478 . S
C623 H617 0.930 . S
C623 C619 1.400 . S
C623 C622 1.385 1_655 S
C624 C622 1.478 . S
C624 C626 1.381 . S
C624 C630 1.383 . S
C625 C621 1.495 . S
C625 H631 0.959 . S
C625 H632 0.961 . S
C625 H633 0.960 . S
C626 C624 1.381 . S
C626 C627 1.394 . S
C626 H634 0.930 . S
C627 C626 1.394 . S
C627 C628 1.383 . S
C627 H635 0.929 . S
C628 C627 1.383 . S
C628 C629 1.377 . S
C629 H613 0.930 . S
C629 C628 1.377 . S
C629 C630 1.379 . S
C630 H614 0.931 1_455 S
C630 C624 1.383 . S
C630 C629 1.379 . S
H631 C625 0.959 . S
H632 C625 0.961 . S
H633 C625 0.960 . S
H634 C626 0.930 . S
H635 C627 0.929 . S
H636 C644 0.929 . S
H637 C646 0.930 . S
H638 C648 0.939 . S
H639 C651 0.929 . S
H640 C654 0.930 . S
H641 C656 0.960 . S
H642 C656 0.960 . S
H643 C656 0.960 . S
C644 H636 0.929 . S
C644 C645 1.377 . S
C644 C646 1.384 . S
C645 C644 1.377 . S
C645 C651 1.390 . S
C646 H637 0.930 . S
C646 C644 1.384 . S
C646 C647 1.372 . S
C647 C646 1.372 . S
C647 C648 1.400 . S
C647 C652 1.490 . S
C648 H638 0.939 . S
C648 C647 1.400 . S
C648 C651 1.386 . S
H649 C665 0.930 . S
H650 C666 0.931 . S
C651 H639 0.929 . S
C651 C645 1.390 . S
C651 C648 1.386 . S
C652 C647 1.490 . S
C652 C654 1.395 1_545 S
C652 C655 1.403 . S
H653 C659 0.930 . S
C654 H640 0.930 . S
C654 C652 1.395 1_565 S
C654 C657 1.403 . S
C655 C652 1.403 . S
C655 C656 1.524 . S
C655 C659 1.400 . S
C656 H641 0.960 . S
C656 H642 0.960 . S
C656 H643 0.960 . S
C656 C655 1.524 . S
C657 C654 1.403 . S
C657 C658 1.392 . S
C657 C661 1.495 . S
C658 C657 1.392 . S
C658 C659 1.385 1_565 S
C658 C660 1.478 . S
C659 H653 0.930 . S
C659 C655 1.400 . S
C659 C658 1.385 1_545 S
C660 C658 1.478 . S
C660 C662 1.381 . S
C660 C666 1.383 . S
C661 C657 1.495 . S
C661 H667 0.959 . S
C661 H668 0.961 . S
C661 H669 0.960 . S
C662 C660 1.381 . S
C662 C663 1.394 . S
C662 H670 0.915 1_565 S
C663 C662 1.394 . S
C663 C664 1.383 . S
C663 H671 0.929 . S
C664 C663 1.383 . S
C664 C665 1.377 . S
C665 H649 0.930 . S
C665 C664 1.377 . S
C665 C666 1.379 . S
C666 H650 0.931 . S
C666 C660 1.383 . S
C666 C665 1.379 . S
H667 C661 0.959 . S
H668 C661 0.961 . S
H669 C661 0.960 . S
H670 C662 0.915 1_545 S
H671 C663 0.929 . S
H672 C680 0.929 . S
H673 C682 0.930 1_655 S
H674 C684 0.930 . S
H675 C687 0.929 . S
H676 C690 0.930 . S
H677 C692 0.960 . S
H678 C692 0.960 . S
H679 C692 0.960 . S
C680 H672 0.929 . S
C680 C681 1.377 . S
C680 C682 1.384 . S
C681 C680 1.377 . S
C681 C687 1.390 . S
C682 H673 0.930 1_455 S
C682 C680 1.384 . S
C682 C683 1.372 . S
C683 C682 1.372 . S
C683 C684 1.400 . S
C683 C688 1.490 . S
C684 H674 0.930 . S
C684 C683 1.400 . S
C684 C687 1.386 . S
H685 C701 0.930 . S
H686 C702 0.931 . S
C687 H675 0.929 . S
C687 C681 1.390 . S
C687 C684 1.386 . S
C688 C683 1.490 . S
C688 C690 1.395 1_455 S
C688 C691 1.403 . S
H689 C695 0.930 . S
C690 H676 0.930 . S
C690 C688 1.395 1_655 S
C690 C693 1.403 . S
C691 C688 1.403 . S
C691 C692 1.524 . S
C691 C695 1.400 . S
C692 H677 0.960 . S
C692 H678 0.960 . S
C692 H679 0.960 . S
C692 C691 1.524 . S
C693 C690 1.403 . S
C693 C694 1.392 . S
C693 C697 1.495 . S
C694 C693 1.392 . S
C694 C695 1.385 1_655 S
C694 C696 1.478 . S
C695 H689 0.930 . S
C695 C691 1.400 . S
C695 C694 1.385 1_455 S
C696 C694 1.478 . S
C696 C698 1.381 . S
C696 C702 1.383 . S
C697 C693 1.495 . S
C697 H703 0.959 . S
C697 H704 0.961 . S
C697 H705 0.960 . S
C698 C696 1.381 . S
C698 C699 1.394 . S
C698 H706 0.930 . S
C699 C698 1.394 . S
C699 C700 1.383 . S
C699 H707 0.929 . S
C700 C699 1.383 . S
C700 C701 1.377 . S
C701 H685 0.930 . S
C701 C700 1.377 . S
C701 C702 1.379 . S
C702 H686 0.931 . S
C702 C696 1.383 . S
C702 C701 1.379 . S
H703 C697 0.959 . S
H704 C697 0.961 . S
H705 C697 0.960 . S
H706 C698 0.930 . S
H707 C699 0.929 . S
H708 C716 0.929 . S
H709 C718 0.930 . S
H710 C720 0.930 . S
H711 C723 0.929 . S
H712 C726 0.930 . S
H713 C728 0.960 . S
H714 C728 0.960 . S
H715 C728 0.960 . S
C716 H708 0.929 . S
C716 C717 1.377 1_565 S
C716 C718 1.384 . S
C717 C716 1.377 1_545 S
C717 C723 1.390 . S
C718 H709 0.930 . S
C718 C716 1.384 . S
C718 C719 1.372 1_565 S
C719 C718 1.372 1_545 S
C719 C720 1.400 . S
C719 C724 1.490 . S
C720 H710 0.930 . S
C720 C719 1.400 . S
C720 C723 1.386 . S
H721 C737 0.930 1_545 S
H722 C738 0.931 . S
C723 H711 0.929 . S
C723 C717 1.390 . S
C723 C720 1.386 . S
C724 C719 1.490 . S
C724 C726 1.395 1_545 S
C724 C727 1.403 . S
H725 C731 0.930 . S
C726 H712 0.930 . S
C726 C724 1.395 1_565 S
C726 C729 1.403 . S
C727 C724 1.403 . S
C727 C728 1.524 . S
C727 C731 1.400 . S
C728 H713 0.960 . S
C728 H714 0.960 . S
C728 H715 0.960 . S
C728 C727 1.524 . S
C729 C726 1.403 . S
C729 C730 1.392 . S
C729 C733 1.495 . S
C730 C729 1.392 . S
C730 C731 1.385 1_565 S
C730 C732 1.478 . S
C731 H725 0.930 . S
C731 C727 1.400 . S
C731 C730 1.385 1_545 S
C732 C730 1.478 . S
C732 C734 1.381 . S
C732 C738 1.383 1_565 S
C733 C729 1.495 . S
C733 H739 0.959 . S
C733 H740 0.961 . S
C733 H741 0.960 . S
C734 C732 1.381 . S
C734 C735 1.394 . S
C734 H742 0.930 . S
C735 C734 1.394 . S
C735 C736 1.383 . S
C735 H743 0.929 . S
C736 C735 1.383 . S
C736 C737 1.377 . S
C737 H721 0.930 1_565 S
C737 C736 1.377 . S
C737 C738 1.379 1_565 S
C738 H722 0.931 . S
C738 C732 1.383 1_545 S
C738 C737 1.379 1_545 S
H739 C733 0.959 . S
H740 C733 0.961 . S
H741 C733 0.960 . S
H742 C734 0.930 . S
H743 C735 0.929 . S
H744 C752 0.929 . S
H745 C754 0.930 . S
H746 C756 0.930 . S
H747 C759 0.929 1_565 S
H748 C762 0.930 . S
H749 C764 0.960 . S
H750 C764 0.960 . S
H751 C764 0.960 . S
C752 H744 0.929 . S
C752 C753 1.377 . S
C752 C754 1.384 . S
C753 C752 1.377 . S
C753 C759 1.390 . S
C754 H745 0.930 . S
C754 C752 1.384 . S
C754 C755 1.372 . S
C755 C754 1.372 . S
C755 C756 1.400 1_545 S
C755 C760 1.490 . S
C756 H746 0.930 . S
C756 C755 1.400 1_565 S
C756 C759 1.386 1_565 S
H757 C773 0.930 . S
H758 C774 0.931 . S
C759 H747 0.929 1_545 S
C759 C753 1.390 . S
C759 C756 1.386 1_545 S
C760 C755 1.490 . S
C760 C762 1.395 . S
C760 C763 1.403 . S
H761 C767 0.932 . S
C762 H748 0.930 . S
C762 C760 1.395 . S
C762 C765 1.403 1_545 S
C763 C760 1.403 . S
C763 C764 1.524 . S
C763 C767 1.395 1_545 S
C764 H749 0.960 . S
C764 H750 0.960 . S
C764 H751 0.960 . S
C764 C763 1.524 . S
C765 C762 1.403 1_565 S
C765 C766 1.392 . S
C765 C769 1.495 . S
C766 C765 1.392 . S
C766 C767 1.389 . S
C766 C768 1.478 . S
C767 H761 0.932 . S
C767 C763 1.395 1_565 S
C767 C766 1.389 . S
C768 C766 1.478 . S
C768 C770 1.381 1_565 S
C768 C774 1.383 . S
C769 C765 1.495 . S
C769 H775 0.959 . S
C769 H776 0.961 . S
C769 H777 0.960 1_565 S
C770 C768 1.381 1_545 S
C770 C771 1.394 1_545 S
C770 H778 0.930 . S
C771 C770 1.394 1_565 S
C771 C772 1.383 . S
C771 H779 0.929 1_565 S
C772 C771 1.383 . S
C772 C773 1.377 . S
C773 H757 0.930 . S
C773 C772 1.377 . S
C773 C774 1.379 . S
C774 H758 0.931 . S
C774 C768 1.383 . S
C774 C773 1.379 . S
H775 C769 0.959 . S
H776 C769 0.961 . S
H777 C769 0.960 1_545 S
H778 C770 0.930 . S
H779 C771 0.929 1_545 S
H780 C788 0.929 . S
H781 C790 0.930 . S
H782 C792 0.930 . S
H783 C795 0.933 . S
H784 C798 0.930 . S
H785 C800 0.960 . S
H786 C800 0.960 . S
H787 C800 0.960 . S
C788 H780 0.929 . S
C788 C789 1.377 . S
C788 C790 1.384 . S
C789 C788 1.377 . S
C789 C795 1.385 1_455 S
C790 H781 0.930 . S
C790 C788 1.384 . S
C790 C791 1.372 . S
C791 C790 1.372 . S
C791 C792 1.400 1_455 S
C791 C796 1.490 . S
C792 H782 0.930 . S
C792 C791 1.400 1_655 S
C792 C795 1.387 . S
H793 C809 0.930 . S
H794 C810 0.931 . S
C795 H783 0.933 . S
C795 C789 1.385 1_655 S
C795 C792 1.387 . S
C796 C791 1.490 . S
C796 C798 1.395 . S
C796 C799 1.403 1_455 S
H797 C803 0.930 . S
C798 H784 0.930 . S
C798 C796 1.395 . S
C798 C801 1.403 . S
C799 C796 1.403 1_655 S
C799 C800 1.524 . S
C799 C803 1.400 . S
C800 H785 0.960 . S
C800 H786 0.960 . S
C800 H787 0.960 . S
C800 C799 1.524 . S
C801 C798 1.403 . S
C801 C802 1.392 1_455 S
C801 C805 1.495 . S
C802 C801 1.392 1_655 S
C802 C803 1.385 . S
C802 C804 1.478 . S
C803 H797 0.930 . S
C803 C799 1.400 . S
C803 C802 1.385 . S
C804 C802 1.478 . S
C804 C806 1.381 1_655 S
C804 C810 1.383 . S
C805 C801 1.495 . S
C805 H811 0.959 . S
C805 H812 0.961 . S
C805 H813 0.960 . S
C806 C804 1.381 1_455 S
C806 C807 1.394 . S
C806 H814 0.930 . S
C807 C806 1.394 . S
C807 C808 1.383 1_455 S
C807 H815 0.929 . S
C808 C807 1.383 1_655 S
C808 C809 1.377 . S
C809 H793 0.930 . S
C809 C808 1.377 . S
C809 C810 1.379 . S
C810 H794 0.931 . S
C810 C804 1.383 . S
C810 C809 1.379 . S
H811 C805 0.959 . S
H812 C805 0.961 . S
H813 C805 0.960 . S
H814 C806 0.930 . S
H815 C807 0.929 . S
H816 C824 0.929 . S
H817 C826 0.930 . S
H818 C828 0.930 . S
H819 C831 0.929 . S
H820 C834 0.930 . S
H821 C836 0.960 . S
H822 C836 0.960 . S
H823 C836 0.960 . S
C824 H816 0.929 . S
C824 C825 1.377 1_565 S
C824 C826 1.384 . S
C825 C824 1.377 1_545 S
C825 C831 1.390 . S
C826 H817 0.930 . S
C826 C824 1.384 . S
C826 C827 1.372 1_565 S
C827 C826 1.372 1_545 S
C827 C828 1.400 . S
C827 C832 1.490 . S
C828 H818 0.930 . S
C828 C827 1.400 . S
C828 C831 1.386 . S
H829 C845 0.908 1_545 S
H830 C846 0.931 . S
C831 H819 0.929 . S
C831 C825 1.390 . S
C831 C828 1.386 . S
C832 C827 1.490 . S
C832 C834 1.395 1_545 S
C832 C835 1.403 . S
H833 C839 0.930 . S
C834 H820 0.930 . S
C834 C832 1.395 1_565 S
C834 C837 1.403 . S
C835 C832 1.403 . S
C835 C836 1.524 . S
C835 C839 1.400 . S
C836 H821 0.960 . S
C836 H822 0.960 . S
C836 H823 0.960 . S
C836 C835 1.524 . S
C837 C834 1.403 . S
C837 C838 1.392 . S
C837 C841 1.495 . S
C838 C837 1.392 . S
C838 C839 1.385 1_565 S
C838 C840 1.478 . S
C839 H833 0.930 . S
C839 C835 1.400 . S
C839 C838 1.385 1_545 S
C840 C838 1.478 . S
C840 C842 1.381 . S
C840 C846 1.383 1_565 S
C841 C837 1.495 . S
C841 H847 0.959 . S
C841 H848 0.961 . S
C841 H849 0.960 . S
C842 C840 1.381 . S
C842 C843 1.394 . S
C842 H850 0.930 . S
C843 C842 1.394 . S
C843 C844 1.383 . S
C843 H851 0.929 . S
C844 C843 1.383 . S
C844 C845 1.403 . S
C845 H829 0.908 1_565 S
C845 C844 1.403 . S
C845 C846 1.375 1_565 S
C846 H830 0.931 . S
C846 C840 1.383 1_545 S
C846 C845 1.375 1_545 S
H847 C841 0.959 . S
H848 C841 0.961 . S
H849 C841 0.960 . S
H850 C842 0.930 . S
H851 C843 0.929 . S
H852 C860 0.929 1_455 S
H853 C862 0.930 . S
H854 C864 0.930 . S
H855 C867 0.929 . S
H856 C870 0.930 . S
H857 C872 0.960 . S
H858 C872 0.960 . S
H859 C872 0.960 1_655 S
C860 H852 0.929 1_655 S
C860 C861 1.377 . S
C860 C862 1.384 1_655 S
C861 C860 1.377 . S
C861 C867 1.390 . S
C862 H853 0.930 . S
C862 C860 1.384 1_455 S
C862 C863 1.372 1_455 S
C863 C862 1.372 1_655 S
C863 C864 1.400 . S
C863 C868 1.490 . S
C864 H854 0.930 . S
C864 C863 1.400 . S
C864 C867 1.386 . S
H865 C881 0.930 1_655 S
H866 C882 0.931 . S
C867 H855 0.929 . S
C867 C861 1.390 . S
C867 C864 1.386 . S
C868 C863 1.490 . S
C868 C870 1.395 . S
C868 C871 1.403 1_655 S
H869 C875 0.930 . S
C870 H856 0.930 . S
C870 C868 1.395 . S
C870 C873 1.399 1_655 S
C871 C868 1.403 1_455 S
C871 C872 1.524 . S
C871 C875 1.400 . S
C872 H857 0.960 . S
C872 H858 0.960 . S
C872 H859 0.960 1_455 S
C872 C871 1.524 . S
C873 C870 1.399 1_455 S
C873 C874 1.398 . S
C873 C877 1.495 1_455 S
C874 C873 1.398 . S
C874 C875 1.385 . S
C874 C876 1.478 . S
C875 H869 0.930 . S
C875 C871 1.400 . S
C875 C874 1.385 . S
C876 C874 1.478 . S
C876 C878 1.381 . S
C876 C882 1.383 1_455 S
C877 C873 1.495 1_655 S
C877 H883 0.961 . S
C877 H884 0.966 . S
C877 H885 0.953 1_655 S
C878 C876 1.381 . S
C878 C879 1.394 . S
C878 H886 0.930 . S
C879 C878 1.394 . S
C879 C880 1.383 . S
C879 H887 0.929 . S
C880 C879 1.383 . S
C880 C881 1.377 . S
C881 H865 0.930 1_455 S
C881 C880 1.377 . S
C881 C882 1.379 1_455 S
C882 H866 0.931 . S
C882 C876 1.383 1_655 S
C882 C881 1.379 1_655 S
H883 C877 0.961 . S
H884 C877 0.966 . S
H885 C877 0.953 1_455 S
H886 C878 0.930 . S
H887 C879 0.929 . S
H888 C896 0.929 . S
H889 C898 0.930 . S
H890 C900 0.930 . S
H891 C903 0.929 . S
H892 C906 0.930 . S
H893 C908 0.960 . S
H894 C908 0.960 . S
H895 C908 0.960 . S
C896 H888 0.929 . S
C896 C897 1.377 . S
C896 C898 1.384 . S
C897 C896 1.377 . S
C897 C903 1.390 . S
C898 H889 0.930 . S
C898 C896 1.384 . S
C898 C899 1.372 . S
C899 C898 1.372 . S
C899 C900 1.400 . S
C899 C904 1.490 . S
C900 H890 0.930 . S
C900 C899 1.400 . S
C900 C903 1.386 . S
H901 C917 0.930 . S
H902 C918 0.931 . S
C903 H891 0.929 . S
C903 C897 1.390 . S
C903 C900 1.386 . S
C904 C899 1.490 . S
C904 C906 1.395 . S
C904 C907 1.403 1_554 S
H905 C911 0.930 . S
C906 H892 0.930 . S
C906 C904 1.395 . S
C906 C909 1.403 . S
C907 C904 1.403 1_556 S
C907 C908 1.524 . S
C907 C911 1.400 . S
C908 H893 0.960 . S
C908 H894 0.960 . S
C908 H895 0.960 . S
C908 C907 1.524 . S
C909 C906 1.403 . S
C909 C910 1.392 1_554 S
C909 C913 1.495 . S
C910 C909 1.392 1_556 S
C910 C911 1.385 . S
C910 C912 1.478 . S
C911 H905 0.930 . S
C911 C907 1.400 . S
C911 C910 1.385 . S
C912 C910 1.478 . S
C912 C914 1.381 . S
C912 C918 1.383 . S
C913 C909 1.495 . S
C913 H919 0.959 . S
C913 H920 0.961 . S
C913 H921 0.960 . S
C914 C912 1.381 . S
C914 C915 1.394 . S
C914 H922 0.930 . S
C915 C914 1.394 . S
C915 C916 1.383 . S
C915 H923 0.929 . S
C916 C915 1.383 . S
C916 C917 1.377 . S
C917 H901 0.930 . S
C917 C916 1.377 . S
C917 C918 1.379 . S
C918 H902 0.931 . S
C918 C912 1.383 . S
C918 C917 1.379 . S
H919 C913 0.959 . S
H920 C913 0.961 . S
H921 C913 0.960 . S
H922 C914 0.930 . S
H923 C915 0.929 . S
H924 C932 0.929 . S
H925 C934 0.930 . S
H926 C936 0.930 . S
H927 C939 0.929 . S
H928 C942 0.930 . S
H929 C944 0.960 . S
H930 C944 0.960 . S
H931 C944 0.960 . S
C932 H924 0.929 . S
C932 C933 1.377 . S
C932 C934 1.384 . S
C933 C932 1.377 . S
C933 C939 1.390 . S
C934 H925 0.930 . S
C934 C932 1.384 . S
C934 C935 1.372 . S
C935 C934 1.372 . S
C935 C936 1.400 . S
C935 C940 1.490 . S
C936 H926 0.930 . S
C936 C935 1.400 . S
C936 C939 1.386 . S
H937 C953 0.930 . S
H938 C954 0.931 . S
C939 H927 0.929 . S
C939 C933 1.390 . S
C939 C936 1.386 . S
C940 C935 1.490 . S
C940 C942 1.395 1_556 S
C940 C943 1.403 . S
H941 C947 0.930 . S
C942 H928 0.930 . S
C942 C940 1.395 1_554 S
C942 C945 1.403 . S
C943 C940 1.403 . S
C943 C944 1.524 . S
C943 C947 1.400 . S
C944 H929 0.960 . S
C944 H930 0.960 . S
C944 H931 0.960 . S
C944 C943 1.524 . S
C945 C942 1.403 . S
C945 C946 1.392 . S
C945 C949 1.495 . S
C946 C945 1.392 . S
C946 C947 1.385 1_554 S
C946 C948 1.478 . S
C947 H941 0.930 . S
C947 C943 1.400 . S
C947 C946 1.385 1_556 S
C948 C946 1.478 . S
C948 C950 1.381 . S
C948 C954 1.383 . S
C949 C945 1.495 . S
C949 H955 0.959 . S
C949 H956 0.961 . S
C949 H957 0.960 . S
C950 C948 1.381 . S
C950 C951 1.394 . S
C950 H958 0.930 . S
C951 C950 1.394 . S
C951 C952 1.383 . S
C951 H959 0.929 . S
C952 C951 1.383 . S
C952 C953 1.377 . S
C953 H937 0.930 . S
C953 C952 1.377 . S
C953 C954 1.379 . S
C954 H938 0.931 . S
C954 C948 1.383 . S
C954 C953 1.379 . S
H955 C949 0.959 . S
H956 C949 0.961 . S
H957 C949 0.960 . S
H958 C950 0.930 . S
H959 C951 0.929 . S
H960 C968 0.914 1_554 S
H961 C970 0.930 . S
H962 C972 0.930 . S
H963 C975 0.929 . S
H964 C978 0.929 1_556 S
H965 C980 0.960 . S
H966 C980 0.960 1_554 S
H967 C980 0.960 . S
C968 H960 0.914 1_556 S
C968 C969 1.398 . S
C968 C970 1.378 1_556 S
C969 C968 1.398 . S
C969 C975 1.390 . S
C970 H961 0.930 . S
C970 C968 1.378 1_554 S
C970 C971 1.372 1_554 S
C971 C970 1.372 1_556 S
C971 C972 1.400 . S
C971 C976 1.490 . S
C972 H962 0.930 . S
C972 C971 1.400 . S
C972 C975 1.386 . S
H973 C989 0.928 1_556 S
H974 C990 0.931 . S
C975 H963 0.929 . S
C975 C969 1.390 . S
C975 C972 1.386 . S
C976 C971 1.490 . S
C976 C978 1.395 1_556 S
C976 C979 1.403 . S
H977 C983 0.930 . S
C978 H964 0.929 1_554 S
C978 C976 1.395 1_554 S
C978 C981 1.403 . S
C979 C976 1.403 . S
C979 C980 1.524 . S
C979 C983 1.400 1_556 S
C980 H965 0.960 . S
C980 H966 0.960 1_556 S
C980 H967 0.960 . S
C980 C979 1.524 . S
C981 C978 1.403 . S
C981 C982 1.392 . S
C981 C985 1.495 . S
C982 C981 1.392 . S
C982 C983 1.385 . S
C982 C984 1.478 . S
C983 H977 0.930 . S
C983 C979 1.400 1_554 S
C983 C982 1.385 . S
C984 C982 1.478 . S
C984 C986 1.381 . S
C984 C990 1.383 1_554 S
C985 C981 1.495 . S
C985 H991 0.959 . S
C985 H992 0.961 1_554 S
C985 H993 0.960 . S
C986 C984 1.381 . S
C986 C987 1.394 . S
C986 H994 0.930 . S
C987 C986 1.394 . S
C987 C988 1.383 . S
C987 H995 0.929 . S
C988 C987 1.383 . S
C988 C989 1.379 . S
C989 H973 0.928 1_554 S
C989 C988 1.379 . S
C989 C990 1.379 1_554 S
C990 H974 0.931 . S
C990 C984 1.383 1_556 S
C990 C989 1.379 1_556 S
H991 C985 0.959 . S
H992 C985 0.961 1_556 S
H993 C985 0.960 . S
H994 C986 0.930 . S
H995 C987 0.929 . S
H996 C1004 0.929 . S
H997 C1006 0.930 . S
H998 C1008 0.930 . S
H999 C1011 0.929 . S
H1000 C1014 0.930 . S
H1001 C1016 0.960 . S
H1002 C1016 0.960 . S
H1003 C1016 0.960 . S
C1004 H996 0.929 . S
C1004 C1005 1.377 . S
C1004 C1006 1.384 . S
C1005 C1004 1.377 . S
C1005 C1011 1.390 . S
C1006 H997 0.930 . S
C1006 C1004 1.384 . S
C1006 C1007 1.372 . S
C1007 C1006 1.372 . S
C1007 C1008 1.400 . S
C1007 C1012 1.490 . S
C1008 H998 0.930 . S
C1008 C1007 1.400 . S
C1008 C1011 1.386 . S
H1009 C1025 0.930 . S
H1010 C1026 0.931 . S
C1011 H999 0.929 . S
C1011 C1005 1.390 . S
C1011 C1008 1.386 . S
C1012 C1007 1.490 . S
C1012 C1014 1.395 . S
C1012 C1015 1.403 1_554 S
H1013 C1019 0.930 . S
C1014 H1000 0.930 . S
C1014 C1012 1.395 . S
C1014 C1017 1.403 . S
C1015 C1012 1.403 1_556 S
C1015 C1016 1.524 . S
C1015 C1019 1.400 . S
C1016 H1001 0.960 . S
C1016 H1002 0.960 . S
C1016 H1003 0.960 . S
C1016 C1015 1.524 . S
C1017 C1014 1.403 . S
C1017 C1018 1.392 1_554 S
C1017 C1021 1.495 . S
C1018 C1017 1.392 1_556 S
C1018 C1019 1.385 . S
C1018 C1020 1.478 . S
C1019 H1013 0.930 . S
C1019 C1015 1.400 . S
C1019 C1018 1.385 . S
C1020 C1018 1.478 . S
C1020 C1022 1.381 . S
C1020 C1026 1.383 . S
C1021 C1017 1.495 . S
C1021 H1027 0.959 . S
C1021 H1028 0.961 . S
C1021 H1029 0.960 . S
C1022 C1020 1.381 . S
C1022 C1023 1.394 . S
C1022 H1030 0.930 . S
C1023 C1022 1.394 . S
C1023 C1024 1.383 . S
C1023 H1031 0.929 . S
C1024 C1023 1.383 . S
C1024 C1025 1.377 . S
C1025 H1009 0.930 . S
C1025 C1024 1.377 . S
C1025 C1026 1.379 . S
C1026 H1010 0.931 . S
C1026 C1020 1.383 . S
C1026 C1025 1.379 . S
H1027 C1021 0.959 . S
H1028 C1021 0.961 . S
H1029 C1021 0.960 . S
H1030 C1022 0.930 . S
H1031 C1023 0.929 . S
C177 C12 1.397 . S
C196 C99 1.382 . S
C213 C27 1.394 . S
C232 C69 1.402 . S
C249 C71 1.394 . S
C268 C29 1.400 . S
C285 C97 1.394 . S
C304 C55 1.405 . S
C321 C113 1.398 . S
C340 C110 1.383 . S
C357 C126 1.397 . S
C376 C56 1.380 . S
C393 C140 1.395 . S
C412 C82 1.385 . S
C429 C167 1.398 . S
C448 C84 1.384 . S
C465 C14 1.395 . S
C484 C139 1.391 . S
C501 C153 1.394 . S
C520 C40 1.405 . S
C537 C42 1.394 . S
C556 C154 1.403 . S
C573 C124 1.397 . S
C592 C1 1.381 . S
C609 C85 1.765 . S
C628 C0 1.747 . S
C645 C111 1.761 . S
C664 C15 1.750 . S
C681 C57 1.765 . S
C700 C41 1.748 . S
C717 C43 1.766 . S
C736 C83 1.754 . S
C753 C98 1.761 . S
C772 C70 1.758 . S
C789 C68 1.765 . S
C808 C96 1.770 . S
C825 C54 1.766 . S
C844 C26 1.753 . S
C861 C28 1.769 . S
C880 C13 1.764 . S
C897 C112 1.766 . S
C916 C138 1.774 . S
C933 C127 1.762 . S
C952 C152 1.749 . S
C969 C155 1.769 . S
C988 C141 1.762 . S
C1005 C125 1.766 . S
C1024 C166 1.776 . S
