# Generated by pormake.
# Topology umk, (4)-cn, num edge types: 1
# Building blocks:
#     Node 0, Type 0, BuildingBlock: GALJAG_clean_sbu_0, # of connection points: 4
#     Node 1, Type 0, BuildingBlock: GALJAG_clean_sbu_0, # of connection points: 4
#     Node 2, Type 0, BuildingBlock: GALJAG_clean_sbu_0, # of connection points: 4
#     Node 3, Type 0, BuildingBlock: GALJAG_clean_sbu_0, # of connection points: 4
#     Node 4, Type 0, BuildingBlock: GALJAG_clean_sbu_0, # of connection points: 4
#     Node 5, Type 0, BuildingBlock: GALJAG_clean_sbu_0, # of connection points: 4
#     Node 6, Type 0, BuildingBlock: GALJAG_clean_sbu_0, # of connection points: 4
#     Node 7, Type 0, BuildingBlock: GALJAG_clean_sbu_0, # of connection points: 4
#     Node 8, Type 0, BuildingBlock: GALJAG_clean_sbu_0, # of connection points: 4
#     Node 9, Type 0, BuildingBlock: GALJAG_clean_sbu_0, # of connection points: 4
#     Node 10, Type 0, BuildingBlock: GALJAG_clean_sbu_0, # of connection points: 4
#     Node 11, Type 0, BuildingBlock: GALJAG_clean_sbu_0, # of connection points: 4
#     Node 12, Type 0, BuildingBlock: GALJAG_clean_sbu_0, # of connection points: 4
#     Node 13, Type 0, BuildingBlock: GALJAG_clean_sbu_0, # of connection points: 4
#     Node 14, Type 0, BuildingBlock: GALJAG_clean_sbu_0, # of connection points: 4
#     Node 15, Type 0, BuildingBlock: GALJAG_clean_sbu_0, # of connection points: 4
#     Node 16, Type 0, BuildingBlock: GALJAG_clean_sbu_0, # of connection points: 4
#     Node 17, Type 0, BuildingBlock: GALJAG_clean_sbu_0, # of connection points: 4
#     Node 18, Type 0, BuildingBlock: GALJAG_clean_sbu_0, # of connection points: 4
#     Node 19, Type 0, BuildingBlock: GALJAG_clean_sbu_0, # of connection points: 4
#     Node 20, Type 0, BuildingBlock: GALJAG_clean_sbu_0, # of connection points: 4
#     Node 21, Type 0, BuildingBlock: GALJAG_clean_sbu_0, # of connection points: 4
#     Node 22, Type 0, BuildingBlock: GALJAG_clean_sbu_0, # of connection points: 4
#     Node 23, Type 0, BuildingBlock: GALJAG_clean_sbu_0, # of connection points: 4
#     Edge 24, Type (0, 0), BuildingBlock: ZUJKAS_clean_linker_0, # of connection points: 2
#     Edge 25, Type (0, 0), BuildingBlock: ZUJKAS_clean_linker_0, # of connection points: 2
#     Edge 26, Type (0, 0), BuildingBlock: ZUJKAS_clean_linker_0, # of connection points: 2
#     Edge 27, Type (0, 0), BuildingBlock: ZUJKAS_clean_linker_0, # of connection points: 2
#     Edge 28, Type (0, 0), BuildingBlock: ZUJKAS_clean_linker_0, # of connection points: 2
#     Edge 29, Type (0, 0), BuildingBlock: ZUJKAS_clean_linker_0, # of connection points: 2
#     Edge 30, Type (0, 0), BuildingBlock: ZUJKAS_clean_linker_0, # of connection points: 2
#     Edge 31, Type (0, 0), BuildingBlock: ZUJKAS_clean_linker_0, # of connection points: 2
#     Edge 32, Type (0, 0), BuildingBlock: ZUJKAS_clean_linker_0, # of connection points: 2
#     Edge 33, Type (0, 0), BuildingBlock: ZUJKAS_clean_linker_0, # of connection points: 2
#     Edge 34, Type (0, 0), BuildingBlock: ZUJKAS_clean_linker_0, # of connection points: 2
#     Edge 35, Type (0, 0), BuildingBlock: ZUJKAS_clean_linker_0, # of connection points: 2
#     Edge 36, Type (0, 0), BuildingBlock: ZUJKAS_clean_linker_0, # of connection points: 2
#     Edge 37, Type (0, 0), BuildingBlock: ZUJKAS_clean_linker_0, # of connection points: 2
#     Edge 38, Type (0, 0), BuildingBlock: ZUJKAS_clean_linker_0, # of connection points: 2
#     Edge 39, Type (0, 0), BuildingBlock: ZUJKAS_clean_linker_0, # of connection points: 2
#     Edge 40, Type (0, 0), BuildingBlock: ZUJKAS_clean_linker_0, # of connection points: 2
#     Edge 41, Type (0, 0), BuildingBlock: ZUJKAS_clean_linker_0, # of connection points: 2
#     Edge 42, Type (0, 0), BuildingBlock: ZUJKAS_clean_linker_0, # of connection points: 2
#     Edge 43, Type (0, 0), BuildingBlock: ZUJKAS_clean_linker_0, # of connection points: 2
#     Edge 44, Type (0, 0), BuildingBlock: ZUJKAS_clean_linker_0, # of connection points: 2
#     Edge 45, Type (0, 0), BuildingBlock: ZUJKAS_clean_linker_0, # of connection points: 2
#     Edge 46, Type (0, 0), BuildingBlock: ZUJKAS_clean_linker_0, # of connection points: 2
#     Edge 47, Type (0, 0), BuildingBlock: ZUJKAS_clean_linker_0, # of connection points: 2
#     Edge 48, Type (0, 0), BuildingBlock: ZUJKAS_clean_linker_0, # of connection points: 2
#     Edge 49, Type (0, 0), BuildingBlock: ZUJKAS_clean_linker_0, # of connection points: 2
#     Edge 50, Type (0, 0), BuildingBlock: ZUJKAS_clean_linker_0, # of connection points: 2
#     Edge 51, Type (0, 0), BuildingBlock: ZUJKAS_clean_linker_0, # of connection points: 2
#     Edge 52, Type (0, 0), BuildingBlock: ZUJKAS_clean_linker_0, # of connection points: 2
#     Edge 53, Type (0, 0), BuildingBlock: ZUJKAS_clean_linker_0, # of connection points: 2
#     Edge 54, Type (0, 0), BuildingBlock: ZUJKAS_clean_linker_0, # of connection points: 2
#     Edge 55, Type (0, 0), BuildingBlock: ZUJKAS_clean_linker_0, # of connection points: 2
#     Edge 56, Type (0, 0), BuildingBlock: ZUJKAS_clean_linker_0, # of connection points: 2
#     Edge 57, Type (0, 0), BuildingBlock: ZUJKAS_clean_linker_0, # of connection points: 2
#     Edge 58, Type (0, 0), BuildingBlock: ZUJKAS_clean_linker_0, # of connection points: 2
#     Edge 59, Type (0, 0), BuildingBlock: ZUJKAS_clean_linker_0, # of connection points: 2
#     Edge 60, Type (0, 0), BuildingBlock: ZUJKAS_clean_linker_0, # of connection points: 2
#     Edge 61, Type (0, 0), BuildingBlock: ZUJKAS_clean_linker_0, # of connection points: 2
#     Edge 62, Type (0, 0), BuildingBlock: ZUJKAS_clean_linker_0, # of connection points: 2
#     Edge 63, Type (0, 0), BuildingBlock: ZUJKAS_clean_linker_0, # of connection points: 2
#     Edge 64, Type (0, 0), BuildingBlock: ZUJKAS_clean_linker_0, # of connection points: 2
#     Edge 65, Type (0, 0), BuildingBlock: ZUJKAS_clean_linker_0, # of connection points: 2
#     Edge 66, Type (0, 0), BuildingBlock: ZUJKAS_clean_linker_0, # of connection points: 2
#     Edge 67, Type (0, 0), BuildingBlock: ZUJKAS_clean_linker_0, # of connection points: 2
#     Edge 68, Type (0, 0), BuildingBlock: ZUJKAS_clean_linker_0, # of connection points: 2
#     Edge 69, Type (0, 0), BuildingBlock: ZUJKAS_clean_linker_0, # of connection points: 2
#     Edge 70, Type (0, 0), BuildingBlock: ZUJKAS_clean_linker_0, # of connection points: 2
#     Edge 71, Type (0, 0), BuildingBlock: ZUJKAS_clean_linker_0, # of connection points: 2
# Relax obj value: 0.088
# Max RMSD: 0.064
# Mean RMSD: 0.064
data_MOF--net-umk--node1-GALJAG_clean_sbu_0--edge1-ZUJKAS_clean_linker_0
_symmetry_space_group_name_H-M    P1
_symmetry_Int_Tables_number       1
_symmetry_cell_setting            triclinic
loop_
_symmetry_equiv_pos_as_xyz
'x, y, z'
_cell_length_a     82.589661
_cell_length_b     82.586673
_cell_length_c     61.07084
_cell_angle_alpha  90.009409
_cell_angle_beta   89.9907
_cell_angle_gamma 120.00038
loop_
_atom_site_label
_atom_site_type_symbol
_atom_site_fract_x
_atom_site_fract_y
_atom_site_fract_z
_atom_type_partial_charge
In0 In 0.33133 0.46928 0.09004 0.0
O1 O 0.30724 0.45135 0.06678 0.0
O2 O 0.30836 0.47552 0.08047 0.0
C3 C 0.34536 0.44603 0.09167 0.0
C4 C 0.35621 0.49848 0.06569 0.0
C5 C 0.32555 0.47125 0.1333 0.0
O6 O 0.32878 0.44061 0.08573 0.0
O7 O 0.35472 0.46307 0.09689 0.0
O8 O 0.33933 0.48403 0.12318 0.0
O9 O 0.31455 0.45757 0.12156 0.0
C10 C 0.3 0.46163 0.0679 0.0
O11 O 0.34919 0.5006 0.08306 0.0
O12 O 0.35069 0.48171 0.06068 0.0
In13 In 0.86156 0.33166 0.59002 0.0
O14 O 0.85376 0.30579 0.56919 0.0
O15 O 0.83173 0.30844 0.58344 0.0
C16 C 0.89912 0.34702 0.58978 0.0
C17 C 0.85758 0.35653 0.56515 0.0
C18 C 0.85364 0.32537 0.63314 0.0
O19 O 0.88829 0.33066 0.58292 0.0
O20 O 0.89101 0.35549 0.59675 0.0
O21 O 0.84908 0.33519 0.62174 0.0
O22 O 0.862 0.31851 0.62273 0.0
C23 C 0.83636 0.29893 0.57154 0.0
O24 O 0.85584 0.35584 0.5857 0.0
O25 O 0.86125 0.34465 0.55715 0.0
In26 In 0.53043 0.86183 0.09114 0.0
O27 O 0.54937 0.85554 0.06973 0.0
O28 O 0.52353 0.8327 0.08038 0.0
C29 C 0.55319 0.89917 0.09357 0.0
C30 C 0.50173 0.85813 0.06627 0.0
C31 C 0.52828 0.85331 0.13416 0.0
O32 O 0.55838 0.8885 0.08525 0.0
O33 O 0.53664 0.89098 0.1007 0.0
O34 O 0.5154 0.85415 0.12409 0.0
O35 O 0.54217 0.85653 0.12249 0.0
C36 C 0.53832 0.83811 0.06946 0.0
O37 O 0.49927 0.84881 0.08356 0.0
O38 O 0.5186 0.86927 0.06158 0.0
In39 In 0.6665 0.53096 0.59036 0.0
O40 O 0.6869 0.54584 0.56224 0.0
O41 O 0.69284 0.52937 0.58385 0.0
C42 C 0.65414 0.55547 0.59444 0.0
C43 C 0.64135 0.50135 0.56666 0.0
C44 C 0.6714 0.52738 0.63339 0.0
O45 O 0.67047 0.56039 0.58787 0.0
O46 O 0.64424 0.53833 0.59893 0.0
O47 O 0.65784 0.51491 0.62263 0.0
O48 O 0.68262 0.54152 0.62237 0.0
C49 C 0.69761 0.53961 0.56706 0.0
O50 O 0.65079 0.49972 0.58186 0.0
O51 O 0.64454 0.51777 0.56361 0.0
In52 In 0.1361 0.66675 0.08818 0.0
O53 O 0.14293 0.69229 0.06722 0.0
O54 O 0.16557 0.68949 0.07904 0.0
C55 C 0.09856 0.65114 0.0893 0.0
C56 C 0.14011 0.64199 0.06321 0.0
C57 C 0.14407 0.67279 0.13134 0.0
O58 O 0.10914 0.66752 0.08232 0.0
O59 O 0.10693 0.64279 0.09583 0.0
O60 O 0.14578 0.66072 0.12054 0.0
O61 O 0.1386 0.68206 0.12032 0.0
C62 C 0.16038 0.6989 0.06785 0.0
O63 O 0.14638 0.64605 0.08248 0.0
O64 O 0.13195 0.65051 0.05651 0.0
In65 In 0.46823 0.13706 0.58809 0.0
O66 O 0.49946 0.15084 0.58018 0.0
O67 O 0.48028 0.12986 0.55858 0.0
C68 C 0.47052 0.14536 0.63117 0.0
C69 C 0.45967 0.16017 0.56616 0.0
C70 C 0.44535 0.09979 0.59116 0.0
O71 O 0.48355 0.14491 0.62091 0.0
O72 O 0.45649 0.14191 0.61964 0.0
O73 O 0.43979 0.11059 0.58426 0.0
O74 O 0.46239 0.1078 0.5965 0.0
C75 C 0.4971 0.14145 0.56297 0.0
O76 O 0.45001 0.14261 0.5646 0.0
O77 O 0.47339 0.16599 0.57904 0.0
In78 In 0.52928 0.6669 0.91006 0.0
O79 O 0.54782 0.69101 0.93305 0.0
O80 O 0.52441 0.69096 0.91864 0.0
C81 C 0.55226 0.65261 0.90725 0.0
C82 C 0.50061 0.64281 0.93567 0.0
C83 C 0.52573 0.67131 0.86681 0.0
O84 O 0.55797 0.66926 0.91315 0.0
O85 O 0.53506 0.6433 0.90273 0.0
O86 O 0.51318 0.65808 0.87785 0.0
O87 O 0.54 0.6825 0.87764 0.0
C88 C 0.53824 0.69898 0.93135 0.0
O89 O 0.49821 0.65013 0.91876 0.0
O90 O 0.5174 0.64764 0.93963 0.0
In91 In 0.86175 0.53031 0.4104 0.0
O92 O 0.85561 0.50015 0.41389 0.0
O93 O 0.86096 0.51629 0.44282 0.0
C94 C 0.85376 0.52934 0.36741 0.0
C95 C 0.83725 0.53823 0.43002 0.0
C96 C 0.89932 0.55237 0.4101 0.0
O97 O 0.8491 0.51473 0.37845 0.0
O98 O 0.86221 0.54438 0.37813 0.0
O99 O 0.88858 0.55829 0.41606 0.0
O100 O 0.89112 0.53546 0.40431 0.0
C101 C 0.85723 0.50085 0.43446 0.0
O102 O 0.85457 0.54726 0.43393 0.0
O103 O 0.83234 0.52539 0.41599 0.0
In104 In 0.33268 0.86063 0.90904 0.0
O105 O 0.3505 0.84738 0.91735 0.0
O106 O 0.35193 0.86836 0.93865 0.0
C107 C 0.32682 0.85207 0.86599 0.0
C108 C 0.30081 0.83725 0.9305 0.0
C109 C 0.34753 0.89797 0.90632 0.0
O110 O 0.3401 0.85239 0.87652 0.0
O111 O 0.31629 0.85581 0.87724 0.0
O112 O 0.33158 0.88743 0.91448 0.0
O113 O 0.35583 0.88963 0.89944 0.0
C114 C 0.35747 0.857 0.93442 0.0
O115 O 0.30755 0.85474 0.93039 0.0
O116 O 0.30995 0.83162 0.9195 0.0
In117 In 0.47164 0.33294 0.40766 0.0
O118 O 0.45162 0.30641 0.42646 0.0
O119 O 0.47875 0.31103 0.41911 0.0
C120 C 0.449 0.3477 0.40588 0.0
C121 C 0.50001 0.35736 0.43341 0.0
C122 C 0.47458 0.32738 0.36457 0.0
O123 O 0.44427 0.33237 0.41533 0.0
O124 O 0.46503 0.35544 0.39727 0.0
O125 O 0.48706 0.34115 0.37499 0.0
O126 O 0.46067 0.31624 0.37594 0.0
C127 C 0.46315 0.30067 0.42808 0.0
O128 O 0.5027 0.35093 0.41593 0.0
O129 O 0.48307 0.35152 0.43786 0.0
In130 In 0.13619 0.4684 0.90835 0.0
O131 O 0.14622 0.49925 0.91465 0.0
O132 O 0.13161 0.47993 0.94021 0.0
C133 C 0.14442 0.47116 0.86519 0.0
C134 C 0.16078 0.46107 0.92883 0.0
C135 C 0.09879 0.44552 0.90656 0.0
O136 O 0.14498 0.4844 0.87609 0.0
O137 O 0.14001 0.45658 0.87613 0.0
O138 O 0.10975 0.43992 0.91271 0.0
O139 O 0.1067 0.46255 0.90133 0.0
C140 C 0.1398 0.49672 0.93387 0.0
O141 O 0.14336 0.45009 0.92958 0.0
O142 O 0.1658 0.47553 0.9174 0.0
In143 In 0.6663 0.13754 0.41036 0.0
O144 O 0.68185 0.14339 0.4429 0.0
O145 O 0.69634 0.1608 0.4158 0.0
C146 C 0.65405 0.10047 0.40953 0.0
C147 C 0.63983 0.14349 0.42866 0.0
C148 C 0.67397 0.14778 0.36794 0.0
O149 O 0.66733 0.11156 0.42174 0.0
O150 O 0.64724 0.10812 0.39778 0.0
O151 O 0.66248 0.15033 0.37893 0.0
O152 O 0.68181 0.14046 0.37848 0.0
C153 C 0.69671 0.1572 0.43581 0.0
O154 O 0.63674 0.12761 0.42268 0.0
O155 O 0.65624 0.15658 0.42504 0.0
In156 In 0.66454 0.52777 0.91062 0.0
O157 O 0.68929 0.5458 0.93294 0.0
O158 O 0.68726 0.52104 0.91977 0.0
C159 C 0.65043 0.55098 0.90813 0.0
C160 C 0.64004 0.49922 0.93601 0.0
C161 C 0.67033 0.52499 0.86757 0.0
O162 O 0.66702 0.55652 0.91407 0.0
O163 O 0.64104 0.53383 0.90353 0.0
O164 O 0.65675 0.51224 0.87798 0.0
O165 O 0.68117 0.53904 0.87893 0.0
C166 C 0.69613 0.53516 0.9319 0.0
O167 O 0.64452 0.49676 0.91706 0.0
O168 O 0.64784 0.51606 0.94208 0.0
In169 In 0.13703 0.66832 0.40883 0.0
O170 O 0.14307 0.69366 0.42983 0.0
O171 O 0.16614 0.69114 0.41907 0.0
C172 C 0.09965 0.65351 0.40683 0.0
C173 C 0.14077 0.64345 0.43397 0.0
C174 C 0.1451 0.67385 0.36563 0.0
O175 O 0.11033 0.6695 0.41481 0.0
O176 O 0.10785 0.64514 0.39975 0.0
O177 O 0.14507 0.66076 0.37627 0.0
O178 O 0.1413 0.68435 0.37684 0.0
C179 C 0.16055 0.70042 0.42986 0.0
O180 O 0.15029 0.65044 0.41684 0.0
O181 O 0.12952 0.6491 0.43846 0.0
In182 In 0.46841 0.13593 0.90785 0.0
O183 O 0.4504 0.14219 0.9307 0.0
O184 O 0.47405 0.16525 0.91613 0.0
C185 C 0.44647 0.09838 0.90592 0.0
C186 C 0.49729 0.13978 0.93252 0.0
C187 C 0.47012 0.14513 0.86515 0.0
O188 O 0.4405 0.10889 0.91265 0.0
O189 O 0.46338 0.10682 0.90013 0.0
O190 O 0.48435 0.1481 0.87599 0.0
O191 O 0.45508 0.13783 0.87595 0.0
C192 C 0.46026 0.15971 0.92888 0.0
O193 O 0.49885 0.14329 0.91227 0.0
O194 O 0.48125 0.13445 0.94027 0.0
In195 In 0.33274 0.4693 0.41046 0.0
O196 O 0.30792 0.45032 0.43236 0.0
O197 O 0.30967 0.47528 0.4204 0.0
C198 C 0.34767 0.44684 0.408 0.0
C199 C 0.35761 0.49842 0.43502 0.0
C200 C 0.32633 0.47104 0.36738 0.0
O201 O 0.33211 0.44174 0.4171 0.0
O202 O 0.35555 0.46315 0.40014 0.0
O203 O 0.33995 0.48411 0.3774 0.0
O204 O 0.31576 0.45717 0.37915 0.0
C205 C 0.30082 0.46075 0.43188 0.0
O206 O 0.35029 0.50058 0.41795 0.0
O207 O 0.35237 0.48165 0.43967 0.0
In208 In 0.86138 0.33054 0.90998 0.0
O209 O 0.85418 0.30568 0.93232 0.0
O210 O 0.83173 0.30785 0.91852 0.0
C211 C 0.89884 0.34527 0.90877 0.0
C212 C 0.85834 0.35617 0.93435 0.0
C213 C 0.85231 0.32354 0.86714 0.0
O214 O 0.88787 0.3286 0.91451 0.0
O215 O 0.89091 0.3544 0.90367 0.0
O216 O 0.84859 0.33404 0.87846 0.0
O217 O 0.8603 0.3163 0.87752 0.0
C218 C 0.83673 0.2989 0.93088 0.0
O219 O 0.85573 0.35478 0.91392 0.0
O220 O 0.86247 0.34466 0.94246 0.0
In221 In 0.53005 0.86313 0.41103 0.0
O222 O 0.49875 0.85011 0.4179 0.0
O223 O 0.51767 0.87108 0.43965 0.0
C224 C 0.52834 0.85489 0.36796 0.0
C225 C 0.5377 0.83893 0.43197 0.0
C226 C 0.55348 0.90043 0.41021 0.0
O227 O 0.51567 0.85634 0.37772 0.0
O228 O 0.54183 0.8574 0.37998 0.0
O229 O 0.55661 0.8896 0.42174 0.0
O230 O 0.53863 0.89241 0.39907 0.0
C231 C 0.50088 0.85977 0.43478 0.0
O232 O 0.54967 0.85602 0.42976 0.0
O233 O 0.52205 0.83407 0.42339 0.0
In234 In 0.46589 0.32922 0.08769 0.0
O235 O 0.49472 0.35571 0.08661 0.0
O236 O 0.48486 0.33936 0.05772 0.0
C237 C 0.46778 0.32309 0.1308 0.0
C238 C 0.45515 0.29662 0.0668 0.0
C239 C 0.44364 0.34449 0.08526 0.0
O240 O 0.48167 0.32868 0.1182 0.0
O241 O 0.45293 0.32028 0.12158 0.0
O242 O 0.43728 0.3271 0.08382 0.0
O243 O 0.4611 0.35405 0.08768 0.0
C244 C 0.49774 0.35373 0.06681 0.0
O245 O 0.4509 0.30847 0.06008 0.0
O246 O 0.46447 0.30103 0.08435 0.0
In247 In 0.13687 0.46905 0.58767 0.0
O248 O 0.15029 0.50018 0.5795 0.0
O249 O 0.12919 0.48079 0.5582 0.0
C250 C 0.14488 0.47171 0.63088 0.0
C251 C 0.16056 0.4606 0.56679 0.0
C252 C 0.09952 0.44626 0.58989 0.0
O253 O 0.14454 0.48461 0.62024 0.0
O254 O 0.14141 0.4575 0.61967 0.0
O255 O 0.11022 0.44109 0.58164 0.0
O256 O 0.10769 0.46279 0.59711 0.0
C257 C 0.14061 0.49767 0.56254 0.0
O258 O 0.14306 0.45004 0.56627 0.0
O259 O 0.16606 0.47523 0.57804 0.0
In260 In 0.66528 0.13662 0.09168 0.0
O261 O 0.6911 0.14408 0.07105 0.0
O262 O 0.68698 0.16626 0.08169 0.0
C263 C 0.65089 0.0992 0.09346 0.0
C264 C 0.63959 0.13899 0.06665 0.0
C265 C 0.67297 0.14649 0.13424 0.0
O266 O 0.6668 0.11009 0.08547 0.0
O267 O 0.64231 0.10718 0.10051 0.0
O268 O 0.66152 0.14913 0.12334 0.0
O269 O 0.68073 0.13915 0.12359 0.0
C270 C 0.69692 0.16142 0.07096 0.0
O271 O 0.64088 0.14198 0.08701 0.0
O272 O 0.65117 0.13476 0.05899 0.0
In273 In 0.5309 0.66833 0.58939 0.0
O274 O 0.49984 0.65161 0.58055 0.0
O275 O 0.51896 0.64832 0.56044 0.0
C276 C 0.52676 0.6725 0.63253 0.0
C277 C 0.53981 0.70019 0.56763 0.0
C278 C 0.55491 0.6553 0.59303 0.0
O279 O 0.51455 0.65907 0.62141 0.0
O280 O 0.54097 0.684 0.62184 0.0
O281 O 0.56015 0.67188 0.58725 0.0
O282 O 0.53765 0.64542 0.59698 0.0
C283 C 0.50219 0.64377 0.5641 0.0
O284 O 0.54851 0.69141 0.56486 0.0
O285 O 0.52684 0.69305 0.58158 0.0
In286 In 0.86063 0.52843 0.09029 0.0
O287 O 0.85447 0.49834 0.08634 0.0
O288 O 0.86122 0.51522 0.0578 0.0
C289 C 0.85258 0.52778 0.13328 0.0
C290 C 0.83569 0.53548 0.07032 0.0
C291 C 0.89819 0.55048 0.09009 0.0
O292 O 0.84878 0.51319 0.12268 0.0
O293 O 0.86013 0.54261 0.12212 0.0
O294 O 0.88742 0.55596 0.0829 0.0
O295 O 0.89001 0.53399 0.09737 0.0
C296 C 0.85695 0.49953 0.06587 0.0
O297 O 0.85308 0.54669 0.0696 0.0
O298 O 0.83088 0.52091 0.08148 0.0
In299 In 0.33045 0.86269 0.58885 0.0
O300 O 0.34762 0.84883 0.57999 0.0
O301 O 0.34999 0.87063 0.55944 0.0
C302 C 0.32547 0.85397 0.63187 0.0
C303 C 0.29842 0.83983 0.56729 0.0
C304 C 0.34472 0.89989 0.5927 0.0
O305 O 0.33848 0.85423 0.62077 0.0
O306 O 0.31477 0.85785 0.6212 0.0
O307 O 0.32835 0.88915 0.58575 0.0
O308 O 0.35376 0.89184 0.59774 0.0
C309 C 0.35501 0.85879 0.56327 0.0
O310 O 0.30658 0.85738 0.5656 0.0
O311 O 0.30624 0.83386 0.58008 0.0
H312 H 0.29783 0.4447 0.1588 0.0
H313 H 0.2948 0.44497 0.19868 0.0
H314 H 0.34469 0.49917 0.20157 0.0
H315 H 0.34771 0.49909 0.16173 0.0
H316 H 0.32123 0.44719 0.22875 0.0
H317 H 0.30792 0.50618 0.23986 0.0
H318 H 0.30526 0.4948 0.21377 0.0
H319 H 0.3281 0.51186 0.22342 0.0
C320 C 0.30801 0.45677 0.16791 0.0
C321 C 0.323 0.47189 0.15716 0.0
C322 C 0.30627 0.4569 0.19067 0.0
C323 C 0.31937 0.47219 0.20303 0.0
C324 C 0.3342 0.48741 0.1923 0.0
H325 H 0.34839 0.49862 0.33864 0.0
H326 H 0.34519 0.49837 0.29879 0.0
C327 C 0.33597 0.48729 0.16955 0.0
C328 C 0.31835 0.47167 0.22725 0.0
H329 H 0.31598 0.49526 0.27194 0.0
C330 C 0.31987 0.45756 0.23822 0.0
C331 C 0.31664 0.48527 0.23951 0.0
C332 C 0.31421 0.5003 0.22856 0.0
C333 C 0.32034 0.45703 0.26116 0.0
C334 C 0.3189 0.47079 0.27343 0.0
C335 C 0.31708 0.48473 0.26247 0.0
C336 C 0.31998 0.47131 0.29765 0.0
C337 C 0.32308 0.44216 0.27204 0.0
C338 C 0.30661 0.45637 0.31023 0.0
C339 C 0.30844 0.45644 0.33299 0.0
C340 C 0.3236 0.47153 0.34354 0.0
C341 C 0.33659 0.48677 0.33096 0.0
C342 C 0.33477 0.48667 0.30821 0.0
H343 H 0.32827 0.43548 0.26034 0.0
H344 H 0.33312 0.44811 0.28585 0.0
H345 H 0.3095 0.4311 0.27867 0.0
H346 H 0.29489 0.44455 0.30241 0.0
H347 H 0.29814 0.44456 0.34228 0.0
H348 H 0.83626 0.3391 0.65891 0.0
H349 H 0.83259 0.33667 0.69876 0.0
H350 H 0.85994 0.30385 0.7011 0.0
H351 H 0.86348 0.30602 0.66121 0.0
H352 H 0.82754 0.29015 0.7282 0.0
H353 H 0.87696 0.366 0.74069 0.0
H354 H 0.85796 0.36058 0.72226 0.0
H355 H 0.87524 0.35435 0.71507 0.0
C356 C 0.84139 0.33126 0.6679 0.0
C357 C 0.85029 0.32287 0.65698 0.0
C358 C 0.83934 0.32996 0.69065 0.0
C359 C 0.84626 0.32033 0.70287 0.0
C360 C 0.85458 0.3114 0.69195 0.0
H361 H 0.86069 0.30298 0.83919 0.0
H362 H 0.85726 0.30096 0.79935 0.0
C363 C 0.85662 0.31268 0.66919 0.0
C364 C 0.84536 0.32005 0.72708 0.0
H365 H 0.8617 0.34824 0.77207 0.0
C366 C 0.83497 0.30283 0.73783 0.0
C367 C 0.8551 0.33664 0.73954 0.0
C368 C 0.86708 0.35545 0.72888 0.0
C369 C 0.83395 0.30177 0.76079 0.0
C370 C 0.84384 0.31835 0.77324 0.0
C371 C 0.85406 0.33557 0.76246 0.0
C372 C 0.84438 0.3182 0.79749 0.0
C373 C 0.82213 0.28297 0.7715 0.0
C374 C 0.83843 0.32869 0.80965 0.0
C375 C 0.84049 0.32998 0.8324 0.0
C376 C 0.84866 0.32088 0.84336 0.0
C377 C 0.85426 0.31007 0.8312 0.0
C378 C 0.8522 0.3088 0.80845 0.0
H379 H 0.81146 0.27275 0.76005 0.0
H380 H 0.83125 0.27736 0.77667 0.0
H381 H 0.81493 0.28417 0.78625 0.0
H382 H 0.83246 0.33614 0.80147 0.0
H383 H 0.83608 0.33844 0.84133 0.0
H384 H 0.55431 0.85189 0.34328 0.0
H385 H 0.55434 0.84827 0.30346 0.0
H386 H 0.50154 0.84688 0.29912 0.0
H387 H 0.50128 0.85025 0.33891 0.0
H388 H 0.50389 0.81967 0.27282 0.0
H389 H 0.56478 0.89108 0.26085 0.0
H390 H 0.56844 0.87648 0.27965 0.0
H391 H 0.55186 0.88379 0.28621 0.0
C392 C 0.54265 0.85069 0.33385 0.0
C393 C 0.52785 0.85149 0.34417 0.0
C394 C 0.54273 0.84871 0.31112 0.0
C395 C 0.52808 0.84761 0.29836 0.0
C396 C 0.51301 0.84778 0.30869 0.0
H397 H 0.50035 0.84729 0.16261 0.0
H398 H 0.50026 0.844 0.2024 0.0
C399 C 0.5129 0.84975 0.33141 0.0
C400 C 0.52867 0.84683 0.27417 0.0
H401 H 0.55258 0.8723 0.2294 0.0
C402 C 0.51456 0.83113 0.26329 0.0
C403 C 0.54262 0.86182 0.26184 0.0
C404 C 0.55772 0.87933 0.27265 0.0
C405 C 0.51403 0.83002 0.24034 0.0
C406 C 0.52779 0.84515 0.22801 0.0
C407 C 0.54208 0.8607 0.23891 0.0
C408 C 0.52722 0.84563 0.20378 0.0
C409 C 0.49883 0.81261 0.2295 0.0
C410 C 0.54251 0.84786 0.19138 0.0
C411 C 0.54266 0.84988 0.16864 0.0
C412 C 0.52757 0.84982 0.15796 0.0
C413 C 0.51214 0.84729 0.17038 0.0
C414 C 0.51201 0.84528 0.1931 0.0
H415 H 0.49297 0.80045 0.24082 0.0
H416 H 0.48728 0.81503 0.22458 0.0
H417 H 0.50412 0.80906 0.2146 0.0
H418 H 0.55445 0.84829 0.19934 0.0
H419 H 0.55476 0.85184 0.1595 0.0
H420 H 0.64765 0.497 0.83957 0.0
H421 H 0.65026 0.49655 0.7997 0.0
H422 H 0.70088 0.55019 0.80181 0.0
H423 H 0.69823 0.55088 0.84169 0.0
H424 H 0.6748 0.54872 0.77234 0.0
H425 H 0.68537 0.48803 0.76055 0.0
H426 H 0.66539 0.483 0.77704 0.0
H427 H 0.68845 0.49938 0.78675 0.0
C428 C 0.65948 0.50859 0.83157 0.0
C429 C 0.67274 0.52398 0.84373 0.0
C430 C 0.66101 0.50825 0.8088 0.0
C431 C 0.67591 0.52321 0.79784 0.0
C432 C 0.68934 0.53845 0.80999 0.0
H433 H 0.69955 0.55232 0.65972 0.0
H434 H 0.70172 0.55116 0.6996 0.0
C435 C 0.68781 0.53882 0.83275 0.0
C436 C 0.67666 0.52365 0.77359 0.0
H437 H 0.67811 0.49981 0.72862 0.0
C438 C 0.67572 0.53814 0.76277 0.0
C439 C 0.67773 0.50975 0.76119 0.0
C440 C 0.67946 0.49424 0.77195 0.0
C441 C 0.67536 0.53888 0.73984 0.0
C442 C 0.67633 0.52493 0.72742 0.0
C443 C 0.6774 0.51049 0.73822 0.0
C444 C 0.67582 0.52493 0.70319 0.0
C445 C 0.67338 0.55428 0.72914 0.0
C446 C 0.6609 0.51021 0.69196 0.0
C447 C 0.65969 0.51077 0.66916 0.0
C448 C 0.67342 0.52604 0.65725 0.0
C449 C 0.68869 0.54044 0.66848 0.0
C450 C 0.68991 0.53984 0.69126 0.0
H451 H 0.66831 0.56106 0.74084 0.0
H452 H 0.68722 0.56515 0.7229 0.0
H453 H 0.66356 0.54881 0.71507 0.0
H454 H 0.64993 0.49854 0.70088 0.0
H455 H 0.64778 0.49945 0.66094 0.0
H456 H 0.15346 0.65285 0.33847 0.0
H457 H 0.15649 0.655 0.29858 0.0
H458 H 0.1464 0.70145 0.29889 0.0
H459 H 0.14362 0.69957 0.33884 0.0
H460 H 0.12862 0.65057 0.27005 0.0
H461 H 0.19191 0.72021 0.25877 0.0
H462 H 0.18596 0.70805 0.28469 0.0
H463 H 0.1743 0.72037 0.27588 0.0
C464 C 0.15214 0.66369 0.33007 0.0
C465 C 0.14831 0.67605 0.34176 0.0
C466 C 0.15387 0.66489 0.3073 0.0
C467 C 0.15189 0.67851 0.29581 0.0
C468 C 0.14837 0.69108 0.30747 0.0
H469 H 0.14032 0.69712 0.15834 0.0
H470 H 0.14313 0.69902 0.19835 0.0
C471 C 0.14667 0.68991 0.33027 0.0
C472 C 0.15208 0.67861 0.27156 0.0
H473 H 0.17401 0.70555 0.2268 0.0
C474 C 0.13863 0.66254 0.26059 0.0
C475 C 0.16508 0.69429 0.25929 0.0
C476 C 0.18025 0.71167 0.27022 0.0
C477 C 0.13765 0.66181 0.23767 0.0
C478 C 0.15065 0.67747 0.2254 0.0
C479 C 0.16409 0.69357 0.23631 0.0
C480 C 0.15037 0.67729 0.20118 0.0
C481 C 0.12244 0.64442 0.22676 0.0
C482 C 0.15397 0.66478 0.18957 0.0
C483 C 0.15238 0.66365 0.16679 0.0
C484 C 0.14721 0.67509 0.15522 0.0
C485 C 0.14426 0.68809 0.16683 0.0
C486 C 0.14588 0.68921 0.18965 0.0
H487 H 0.11109 0.63551 0.23839 0.0
H488 H 0.11626 0.64809 0.21281 0.0
H489 H 0.12852 0.63605 0.22029 0.0
H490 H 0.15774 0.65567 0.19819 0.0
H491 H 0.15484 0.65357 0.15828 0.0
H492 H 0.50018 0.15757 0.83784 0.0
H493 H 0.50056 0.16089 0.79803 0.0
H494 H 0.44207 0.14439 0.79898 0.0
H495 H 0.4415 0.14067 0.83878 0.0
H496 H 0.44986 0.12455 0.76953 0.0
H497 H 0.4999 0.20022 0.75893 0.0
H498 H 0.50906 0.18851 0.77515 0.0
H499 H 0.48941 0.19016 0.78502 0.0
C500 C 0.48747 0.15491 0.8296 0.0
C501 C 0.4708 0.14885 0.84141 0.0
C502 C 0.48774 0.15694 0.80686 0.0
C503 C 0.47141 0.15315 0.79556 0.0
C504 C 0.45485 0.14749 0.80739 0.0
H505 H 0.44325 0.1448 0.65692 0.0
H506 H 0.44346 0.14783 0.69682 0.0
C507 C 0.45455 0.14538 0.83012 0.0
C508 C 0.4712 0.15357 0.7713 0.0
H509 H 0.49226 0.18126 0.72675 0.0
C510 C 0.45898 0.13701 0.76018 0.0
C511 C 0.48319 0.16982 0.75914 0.0
C512 C 0.49601 0.18824 0.77016 0.0
C513 C 0.45872 0.13611 0.73725 0.0
C514 C 0.47085 0.15228 0.72512 0.0
C515 C 0.48299 0.1689 0.73616 0.0
C516 C 0.4713 0.15198 0.70091 0.0
C517 C 0.44583 0.11774 0.72616 0.0
C518 C 0.48711 0.15387 0.69003 0.0
C519 C 0.48704 0.15215 0.66725 0.0
C520 C 0.47119 0.14863 0.65502 0.0
C521 C 0.45563 0.14742 0.66592 0.0
C522 C 0.4557 0.14909 0.68869 0.0
H523 H 0.44025 0.10582 0.73781 0.0
H524 H 0.43382 0.11836 0.71895 0.0
H525 H 0.45319 0.11501 0.71269 0.0
H526 H 0.49929 0.15615 0.69922 0.0
H527 H 0.49925 0.1532 0.65928 0.0
H528 H 0.49771 0.64909 0.65885 0.0
H529 H 0.49572 0.65049 0.69873 0.0
H530 H 0.54992 0.70046 0.70003 0.0
H531 H 0.55191 0.6993 0.66013 0.0
H532 H 0.52048 0.64877 0.72802 0.0
H533 H 0.51865 0.71452 0.73924 0.0
H534 H 0.51396 0.7026 0.71322 0.0
H535 H 0.53763 0.71697 0.72251 0.0
C536 C 0.50909 0.66052 0.66761 0.0
C537 C 0.52496 0.6741 0.65639 0.0
C538 C 0.50794 0.66129 0.69037 0.0
C539 C 0.52257 0.6757 0.7023 0.0
C540 C 0.5383 0.68945 0.6911 0.0
H541 H 0.55166 0.69757 0.83934 0.0
H542 H 0.55005 0.69874 0.79935 0.0
C543 C 0.53946 0.6887 0.66832 0.0
C544 C 0.52198 0.67553 0.72654 0.0
H545 H 0.5237 0.70117 0.77128 0.0
C546 C 0.52101 0.66014 0.73749 0.0
C547 C 0.52279 0.69045 0.73881 0.0
C548 C 0.52315 0.707 0.72788 0.0
C549 C 0.52123 0.65942 0.76042 0.0
C550 C 0.52212 0.67436 0.77271 0.0
C551 C 0.52301 0.68973 0.76178 0.0
C552 C 0.52247 0.67435 0.79694 0.0
C553 C 0.52105 0.64291 0.77129 0.0
C554 C 0.5073 0.66051 0.8088 0.0
C555 C 0.50819 0.65978 0.83159 0.0
C556 C 0.52424 0.67295 0.84291 0.0
C557 C 0.53914 0.6872 0.83105 0.0
C558 C 0.53824 0.68791 0.80824 0.0
H559 H 0.52486 0.63499 0.75968 0.0
H560 H 0.53089 0.6475 0.78535 0.0
H561 H 0.50679 0.63325 0.77758 0.0
H562 H 0.49487 0.65013 0.80039 0.0
H563 H 0.49644 0.64871 0.8403 0.0
H564 H 0.86291 0.55902 0.34047 0.0
H565 H 0.85949 0.5586 0.30064 0.0
H566 H 0.83431 0.49856 0.30066 0.0
H567 H 0.83745 0.49884 0.34053 0.0
H568 H 0.87595 0.54555 0.27149 0.0
H569 H 0.79884 0.50668 0.26151 0.0
H570 H 0.81006 0.51681 0.28729 0.0
H571 H 0.80767 0.49498 0.27832 0.0
C572 C 0.85641 0.5457 0.33202 0.0
C573 C 0.85044 0.52895 0.3436 0.0
C574 C 0.85447 0.54549 0.30928 0.0
C575 C 0.84644 0.52854 0.29773 0.0
C576 C 0.84018 0.51176 0.3093 0.0
H577 H 0.83809 0.49784 0.16105 0.0
H578 H 0.83576 0.49831 0.20102 0.0
C579 C 0.84209 0.51195 0.33206 0.0
C580 C 0.84599 0.52858 0.27349 0.0
H581 H 0.81694 0.51154 0.22922 0.0
C582 C 0.86304 0.53826 0.26224 0.0
C583 C 0.82912 0.51894 0.2615 0.0
C584 C 0.81035 0.50889 0.27273 0.0
C585 C 0.86374 0.53828 0.2393 0.0
C586 C 0.84689 0.52861 0.2273 0.0
C587 C 0.82981 0.51896 0.23851 0.0
C588 C 0.84687 0.52818 0.20307 0.0
C589 C 0.88255 0.54823 0.22811 0.0
C590 C 0.85342 0.54475 0.19101 0.0
C591 C 0.8548 0.54454 0.16823 0.0
C592 C 0.84955 0.52772 0.15712 0.0
C593 C 0.8423 0.51102 0.16917 0.0
C594 C 0.84093 0.51125 0.19198 0.0
H595 H 0.89414 0.55115 0.23958 0.0
H596 H 0.88307 0.53984 0.2142 0.0
H597 H 0.88496 0.56179 0.22155 0.0
H598 H 0.85777 0.5579 0.19927 0.0
H599 H 0.86033 0.55761 0.15937 0.0
H600 H 0.30012 0.85508 0.65967 0.0
H601 H 0.29886 0.85186 0.69961 0.0
H602 H 0.34515 0.84158 0.69775 0.0
H603 H 0.34668 0.84502 0.65789 0.0
H604 H 0.29458 0.82225 0.72742 0.0
H605 H 0.36324 0.88692 0.73875 0.0
H606 H 0.3506 0.88122 0.71319 0.0
H607 H 0.36367 0.87001 0.72064 0.0
C608 C 0.30995 0.85201 0.66777 0.0
C609 C 0.32362 0.85048 0.6557 0.0
C610 C 0.30919 0.85015 0.69056 0.0
C611 C 0.32211 0.84679 0.70162 0.0
C612 C 0.33528 0.84452 0.68953 0.0
H613 H 0.3481 0.84425 0.83864 0.0
H614 H 0.34572 0.84105 0.79876 0.0
C615 C 0.33608 0.84641 0.66677 0.0
C616 C 0.32223 0.84631 0.72584 0.0
H617 H 0.34908 0.86882 0.77036 0.0
C618 C 0.30646 0.83242 0.73685 0.0
C619 C 0.33775 0.85966 0.73804 0.0
C620 C 0.35473 0.87541 0.72711 0.0
C621 C 0.30594 0.83134 0.75983 0.0
C622 C 0.32148 0.84468 0.772 0.0
C623 C 0.33723 0.85855 0.76096 0.0
C624 C 0.3217 0.84486 0.79625 0.0
C625 C 0.28892 0.81577 0.77085 0.0
C626 C 0.30892 0.84797 0.80804 0.0
C627 C 0.31024 0.84979 0.83082 0.0
C628 C 0.32445 0.84866 0.84216 0.0
C629 C 0.337 0.84518 0.83035 0.0
C630 C 0.33566 0.84335 0.80759 0.0
H631 H 0.28056 0.80405 0.75939 0.0
H632 H 0.29294 0.81026 0.78517 0.0
H633 H 0.27987 0.82125 0.77677 0.0
H634 H 0.29828 0.84957 0.79956 0.0
H635 H 0.30043 0.85255 0.83949 0.0
H636 H 0.44948 0.29885 0.33868 0.0
H637 H 0.45024 0.29645 0.29877 0.0
H638 H 0.50278 0.34829 0.29674 0.0
H639 H 0.5021 0.35085 0.33661 0.0
H640 H 0.47499 0.34691 0.26871 0.0
H641 H 0.48324 0.2846 0.25835 0.0
H642 H 0.46478 0.28137 0.27661 0.0
H643 H 0.48865 0.29761 0.28368 0.0
C644 C 0.46131 0.30961 0.32975 0.0
C645 C 0.47572 0.32506 0.34074 0.0
C646 C 0.46178 0.30815 0.30698 0.0
C647 C 0.47666 0.32209 0.29486 0.0
C648 C 0.49123 0.33734 0.30584 0.0
H649 H 0.49787 0.32747 0.15439 0.0
H650 H 0.50039 0.32655 0.19436 0.0
C651 C 0.49081 0.33877 0.3286 0.0
C652 C 0.4763 0.32156 0.27064 0.0
H653 H 0.47551 0.29588 0.22637 0.0
C654 C 0.47522 0.33582 0.25945 0.0
C655 C 0.47672 0.30713 0.25864 0.0
C656 C 0.47858 0.29187 0.26987 0.0
C657 C 0.47411 0.33581 0.23655 0.0
C658 C 0.47394 0.32108 0.22459 0.0
C659 C 0.47548 0.30704 0.23569 0.0
C660 C 0.47198 0.32008 0.20051 0.0
C661 C 0.47312 0.35155 0.22526 0.0
C662 C 0.45506 0.31634 0.19087 0.0
C663 C 0.45355 0.31679 0.16814 0.0
C664 C 0.46898 0.32104 0.15468 0.0
C665 C 0.48577 0.32421 0.16436 0.0
C666 C 0.48723 0.32366 0.18714 0.0
H667 H 0.47705 0.36359 0.23639 0.0
H668 H 0.48248 0.35647 0.21075 0.0
H669 H 0.45862 0.34641 0.21947 0.0
H670 H 0.44311 0.31341 0.20098 0.0
H671 H 0.44043 0.31425 0.16115 0.0
H672 H 0.15168 0.50055 0.65818 0.0
H673 H 0.15477 0.50149 0.69806 0.0
H674 H 0.14791 0.44618 0.69749 0.0
H675 H 0.14501 0.4452 0.65754 0.0
H676 H 0.12732 0.47652 0.72665 0.0
H677 H 0.1935 0.47538 0.73739 0.0
H678 H 0.18689 0.48121 0.71166 0.0
H679 H 0.17658 0.45721 0.72006 0.0
C680 C 0.15108 0.48868 0.66651 0.0
C681 C 0.1481 0.4728 0.65476 0.0
C682 C 0.15284 0.48924 0.68929 0.0
C683 C 0.15178 0.474 0.70069 0.0
C684 C 0.14914 0.45824 0.68896 0.0
H685 H 0.14301 0.44416 0.83806 0.0
H686 H 0.14571 0.44532 0.79805 0.0
C687 C 0.14737 0.45766 0.66617 0.0
C688 C 0.15204 0.47407 0.72494 0.0
H689 H 0.17544 0.47109 0.76947 0.0
C690 C 0.13791 0.47547 0.73602 0.0
C691 C 0.16582 0.47256 0.73707 0.0
C692 C 0.18167 0.47166 0.72599 0.0
C693 C 0.13701 0.47514 0.75895 0.0
C694 C 0.1508 0.47369 0.7711 0.0
C695 C 0.16492 0.47224 0.76006 0.0
C696 C 0.15062 0.47354 0.79533 0.0
C697 C 0.12106 0.47593 0.76998 0.0
C698 C 0.15296 0.4892 0.807 0.0
C699 C 0.15142 0.48859 0.8298 0.0
C700 C 0.14758 0.47231 0.8413 0.0
C701 C 0.14592 0.45687 0.82962 0.0
C702 C 0.14747 0.45752 0.8068 0.0
H703 H 0.1094 0.4726 0.75844 0.0
H704 H 0.11555 0.46603 0.78397 0.0
H705 H 0.12616 0.49025 0.77641 0.0
H706 H 0.15569 0.5018 0.79843 0.0
H707 H 0.15288 0.50073 0.83836 0.0
H708 H 0.65635 0.16045 0.34084 0.0
H709 H 0.659 0.16351 0.30088 0.0
H710 H 0.70103 0.14709 0.30164 0.0
H711 H 0.69831 0.14378 0.34148 0.0
H712 H 0.69014 0.18474 0.27213 0.0
H713 H 0.65944 0.10804 0.26191 0.0
H714 H 0.65829 0.11846 0.28741 0.0
H715 H 0.67948 0.11891 0.27958 0.0
C716 C 0.66629 0.15768 0.3325 0.0
C717 C 0.67698 0.15168 0.34423 0.0
C718 C 0.6678 0.15945 0.3097 0.0
C719 C 0.67998 0.15521 0.29833 0.0
C720 C 0.69131 0.1501 0.31011 0.0
H721 H 0.69644 0.1413 0.16095 0.0
H722 H 0.69973 0.14547 0.20068 0.0
C723 C 0.68978 0.14829 0.33286 0.0
C724 C 0.68016 0.1552 0.27409 0.0
H725 H 0.67055 0.12648 0.22995 0.0
C726 C 0.68585 0.17203 0.26286 0.0
C727 C 0.67448 0.13856 0.26211 0.0
C728 C 0.66741 0.11992 0.27331 0.0
C729 C 0.68633 0.1727 0.23986 0.0
C730 C 0.68067 0.15604 0.2279 0.0
C731 C 0.67499 0.13924 0.23917 0.0
C732 C 0.68009 0.15547 0.20365 0.0
C733 C 0.69315 0.19124 0.22856 0.0
C734 C 0.66805 0.15983 0.19215 0.0
C735 C 0.66616 0.15747 0.16944 0.0
C736 C 0.67618 0.15058 0.1579 0.0
C737 C 0.68855 0.14664 0.16939 0.0
C738 C 0.69044 0.14902 0.19208 0.0
H739 H 0.70154 0.20316 0.23974 0.0
H740 H 0.70177 0.1925 0.214 0.0
H741 H 0.68093 0.19229 0.22296 0.0
H742 H 0.65965 0.16446 0.20082 0.0
H743 H 0.65646 0.16054 0.16103 0.0
H744 H 0.15335 0.43091 0.95428 0.0
H745 H 0.17536 0.42696 0.97744 0.0
H746 H 0.22024 0.48029 0.95552 0.0
H747 H 0.19845 0.48417 0.93205 0.0
H748 H 0.23027 0.45295 0.95733 0.0
H749 H 0.19613 0.4557 0.03462 0.0
H750 H 0.1811 0.43783 0.01566 0.0
H751 H 0.19077 0.46203 0.00846 0.0
C752 C 0.16794 0.44171 0.95428 0.0
C753 C 0.17418 0.45791 0.94148 0.0
C754 C 0.18046 0.43948 0.9676 0.0
C755 C 0.19935 0.45349 0.96848 0.0
C756 C 0.2057 0.46936 0.95514 0.0
H757 H 0.28406 0.48354 0.06546 0.0
H758 H 0.25868 0.47951 0.04138 0.0
C759 C 0.19323 0.47156 0.94176 0.0
C760 C 0.21251 0.452 0.98368 0.0
H761 H 0.22202 0.45115 0.03793 0.0
C762 C 0.22843 0.45242 0.97496 0.0
C763 C 0.21012 0.45152 0.00666 0.0
C764 C 0.19371 0.45191 0.01699 0.0
C765 C 0.24223 0.45268 0.98861 0.0
C766 C 0.2398 0.45214 0.0116 0.0
C767 C 0.22373 0.45141 0.0203 0.0
C768 C 0.25444 0.45375 0.02691 0.0
C769 C 0.2596 0.4543 0.97834 0.0
C770 C 0.26019 0.44038 0.02708 0.0
C771 C 0.27479 0.4427 0.04075 0.0
C772 C 0.28371 0.45835 0.05461 0.0
C773 C 0.27747 0.47136 0.05494 0.0
C774 C 0.26297 0.46907 0.04121 0.0
H775 H 0.26115 0.45876 0.96094 0.0
H776 H 0.2723 0.46446 0.98744 0.0
H777 H 0.25878 0.44048 0.97891 0.0
H778 H 0.25352 0.42825 0.01649 0.0
H779 H 0.27923 0.43239 0.04027 0.0
H780 H 0.69935 0.15426 0.48007 0.0
H781 H 0.72424 0.17647 0.50427 0.0
H782 H 0.7549 0.20931 0.44828 0.0
H783 H 0.73 0.18734 0.424 0.0
H784 H 0.76377 0.19048 0.50611 0.0
H785 H 0.74616 0.24556 0.48643 0.0
H786 H 0.73093 0.22127 0.4796 0.0
H787 H 0.75112 0.23557 0.46304 0.0
C788 C 0.7115 0.16609 0.4729 0.0
C789 C 0.71265 0.1692 0.45017 0.0
C790 C 0.7257 0.17874 0.48674 0.0
C791 C 0.74121 0.19466 0.47806 0.0
C792 C 0.74286 0.19726 0.4553 0.0
H793 H 0.8429 0.27759 0.5426 0.0
H794 H 0.81971 0.25099 0.52117 0.0
C795 C 0.72866 0.18467 0.44146 0.0
C796 C 0.75512 0.20911 0.49285 0.0
H797 H 0.77298 0.25461 0.50826 0.0
C798 C 0.76581 0.20451 0.50664 0.0
C799 C 0.75749 0.22729 0.49371 0.0
C800 C 0.74572 0.23274 0.48007 0.0
C801 C 0.7791 0.21777 0.52105 0.0
C802 C 0.78182 0.23609 0.52143 0.0
C803 C 0.77093 0.24057 0.50784 0.0
C804 C 0.79581 0.25095 0.5358 0.0
C805 C 0.78988 0.212 0.53597 0.0
C806 C 0.79006 0.25978 0.55103 0.0
C807 C 0.80326 0.27503 0.56315 0.0
C808 C 0.82246 0.28179 0.56016 0.0
C809 C 0.82819 0.27263 0.5453 0.0
C810 C 0.81496 0.25737 0.53315 0.0
H811 H 0.78288 0.19655 0.53771 0.0
H812 H 0.804 0.21697 0.52899 0.0
H813 H 0.7916 0.2183 0.55247 0.0
H814 H 0.77535 0.25507 0.55324 0.0
H815 H 0.79842 0.28179 0.57448 0.0
H816 H 0.56933 0.84616 0.04521 0.0
H817 H 0.57407 0.82463 0.02202 0.0
H818 H 0.51984 0.77941 0.04089 0.0
H819 H 0.51518 0.80067 0.06437 0.0
H820 H 0.54693 0.76925 0.04083 0.0
H821 H 0.54807 0.80503 0.96321 0.0
H822 H 0.56513 0.81949 0.98326 0.0
H823 H 0.54068 0.81005 0.98888 0.0
C824 C 0.55848 0.83159 0.04449 0.0
C825 C 0.54184 0.8251 0.05648 0.0
C826 C 0.56117 0.81936 0.03116 0.0
C827 C 0.54717 0.80051 0.02946 0.0
C828 C 0.53079 0.79392 0.04191 0.0
H829 H 0.5178 0.71654 0.93242 0.0
H830 H 0.52251 0.74239 0.95608 0.0
C831 C 0.52814 0.80609 0.0553 0.0
C832 C 0.54922 0.78755 0.01445 0.0
H833 H 0.55173 0.7786 0.96035 0.0
C834 C 0.54815 0.77135 0.02324 0.0
C835 C 0.55063 0.79029 0.9915 0.0
C836 C 0.55104 0.80706 0.98105 0.0
C837 C 0.54799 0.75755 0.00968 0.0
C838 C 0.54933 0.76026 0.98673 0.0
C839 C 0.55086 0.77667 0.97797 0.0
C840 C 0.54752 0.7455 0.97146 0.0
C841 C 0.54551 0.73984 0.01999 0.0
C842 C 0.56028 0.73897 0.9719 0.0
C843 C 0.55755 0.72409 0.95847 0.0
C844 C 0.54211 0.71565 0.94425 0.0
C845 C 0.52979 0.72272 0.94325 0.0
C846 C 0.53248 0.73751 0.95673 0.0
H847 H 0.54065 0.73827 0.03723 0.0
H848 H 0.5353 0.72736 0.0106 0.0
H849 H 0.5591 0.74016 0.01992 0.0
H850 H 0.57219 0.74521 0.98284 0.0
H851 H 0.56733 0.719 0.95948 0.0
H852 H 0.70733 0.55643 0.52695 0.0
H853 H 0.73189 0.55863 0.50253 0.0
H854 H 0.74879 0.53263 0.55178 0.0
H855 H 0.72402 0.52998 0.57604 0.0
H856 H 0.77036 0.57523 0.50604 0.0
H857 H 0.73731 0.49817 0.49933 0.0
H858 H 0.72548 0.50939 0.51131 0.0
H859 H 0.74224 0.50644 0.52705 0.0
C860 C 0.71638 0.55132 0.53262 0.0
C861 C 0.71364 0.54284 0.55328 0.0
C862 C 0.7304 0.5526 0.51867 0.0
C863 C 0.74188 0.54544 0.52518 0.0
C864 C 0.73978 0.53783 0.54624 0.0
H865 H 0.84369 0.56067 0.46557 0.0
H866 H 0.82053 0.56373 0.48739 0.0
C867 C 0.72569 0.53642 0.56012 0.0
C868 C 0.75562 0.54529 0.5097 0.0
H869 H 0.76784 0.5161 0.4845 0.0
C870 C 0.76979 0.56232 0.50122 0.0
C871 C 0.7546 0.52838 0.50311 0.0
C872 C 0.73898 0.50954 0.51048 0.0
C873 C 0.78329 0.56292 0.48671 0.0
C874 C 0.78276 0.54606 0.48093 0.0
C875 C 0.76833 0.52903 0.48906 0.0
C876 C 0.79708 0.54561 0.46669 0.0
C877 C 0.79779 0.58155 0.4775 0.0
C878 C 0.79159 0.53423 0.44796 0.0
C879 C 0.80474 0.53222 0.43568 0.0
C880 C 0.82365 0.5416 0.4419 0.0
C881 C 0.82923 0.55338 0.46031 0.0
C882 C 0.81602 0.55525 0.4727 0.0
H883 H 0.79292 0.59189 0.47798 0.0
H884 H 0.8107 0.58718 0.4875 0.0
H885 H 0.80135 0.58016 0.46033 0.0
H886 H 0.77703 0.52661 0.44307 0.0
H887 H 0.80005 0.52306 0.42155 0.0
H888 H 0.27878 0.84597 0.95562 0.0
H889 H 0.25248 0.82474 0.97895 0.0
H890 H 0.25938 0.7786 0.95828 0.0
H891 H 0.28537 0.79959 0.9347 0.0
H892 H 0.22226 0.76992 0.95924 0.0
H893 H 0.25905 0.80359 0.03682 0.0
H894 H 0.25698 0.81877 0.01736 0.0
H895 H 0.27101 0.8084 0.01085 0.0
C896 C 0.27459 0.83127 0.95595 0.0
C897 C 0.28419 0.82444 0.94346 0.0
C898 C 0.25965 0.8192 0.96937 0.0
C899 C 0.2542 0.80018 0.97059 0.0
C900 C 0.26341 0.79326 0.95761 0.0
H901 H 0.19819 0.71443 0.06535 0.0
H902 H 0.21983 0.74039 0.0421 0.0
C903 C 0.27827 0.80527 0.94417 0.0
C904 C 0.23922 0.78738 0.9857 0.0
H905 H 0.22861 0.77776 0.0399 0.0
C906 C 0.22353 0.7717 0.97688 0.0
C907 C 0.24106 0.7897 0.00869 0.0
C908 C 0.25798 0.80592 0.01909 0.0
C909 C 0.2098 0.75801 0.99045 0.0
C910 C 0.21169 0.76028 0.01344 0.0
C911 C 0.22717 0.77617 0.02225 0.0
C912 C 0.1986 0.74555 0.02859 0.0
C913 C 0.19384 0.74085 0.98008 0.0
C914 C 0.17957 0.74016 0.02907 0.0
C915 C 0.16715 0.72526 0.04229 0.0
C916 C 0.17362 0.71563 0.05533 0.0
C917 C 0.19279 0.72155 0.05543 0.0
C918 C 0.20517 0.73639 0.04219 0.0
H919 H 0.19652 0.73948 0.96254 0.0
H920 H 0.19129 0.728 0.98884 0.0
H921 H 0.18091 0.74178 0.98112 0.0
H922 H 0.17429 0.74729 0.01898 0.0
H923 H 0.15245 0.72107 0.04199 0.0
H924 H 0.43148 0.15101 0.53664 0.0
H925 H 0.42704 0.17236 0.51278 0.0
H926 H 0.47532 0.21936 0.54169 0.0
H927 H 0.47966 0.1982 0.56577 0.0
H928 H 0.4452 0.22537 0.53577 0.0
H929 H 0.46106 0.1984 0.46006 0.0
H930 H 0.44225 0.18129 0.47655 0.0
H931 H 0.4657 0.19286 0.48708 0.0
C932 C 0.44104 0.16591 0.53802 0.0
C933 C 0.45599 0.17295 0.55295 0.0
C934 C 0.43854 0.17806 0.52432 0.0
C935 C 0.45104 0.19739 0.52525 0.0
C936 C 0.46557 0.20447 0.54068 0.0
H937 H 0.48671 0.28716 0.43536 0.0
H938 H 0.4812 0.26067 0.45832 0.0
C939 C 0.46804 0.19236 0.55439 0.0
C940 C 0.44953 0.21036 0.50977 0.0
H941 H 0.45457 0.22291 0.45586 0.0
C942 C 0.44705 0.22475 0.51827 0.0
C943 C 0.45213 0.20956 0.48698 0.0
C944 C 0.45559 0.19481 0.47705 0.0
C945 C 0.44757 0.23869 0.50464 0.0
C946 C 0.45032 0.23797 0.48187 0.0
C947 C 0.45233 0.2233 0.47331 0.0
C948 C 0.45289 0.25322 0.46698 0.0
C949 C 0.44603 0.25451 0.51486 0.0
C950 C 0.43865 0.25756 0.46387 0.0
C951 C 0.4418 0.27278 0.45082 0.0
C952 C 0.45919 0.28377 0.44055 0.0
C953 C 0.47318 0.27897 0.4431 0.0
C954 C 0.47004 0.26383 0.45618 0.0
H955 H 0.44778 0.25498 0.53293 0.0
H956 H 0.4567 0.26817 0.50794 0.0
H957 H 0.43202 0.25263 0.51126 0.0
H958 H 0.42519 0.24931 0.47174 0.0
H959 H 0.43073 0.2761 0.44903 0.0
H960 H 0.79807 0.51203 0.06711 0.0
H961 H 0.77607 0.51567 0.04372 0.0
H962 H 0.82052 0.56934 0.02205 0.0
H963 H 0.84272 0.56566 0.04514 0.0
H964 H 0.7657 0.54293 0.04206 0.0
H965 H 0.79997 0.54044 0.96476 0.0
H966 H 0.80533 0.53408 0.99091 0.0
H967 H 0.81494 0.55828 0.98378 0.0
C968 C 0.80314 0.52467 0.05748 0.0
C969 C 0.82213 0.53849 0.0578 0.0
C970 C 0.79056 0.52673 0.04415 0.0
C971 C 0.79675 0.54262 0.03089 0.0
C972 C 0.81556 0.5568 0.03183 0.0
H973 H 0.71741 0.56441 0.95928 0.0
H974 H 0.74304 0.56819 0.98294 0.0
C975 C 0.82818 0.55472 0.04511 0.0
C976 C 0.7835 0.54398 0.01571 0.0
H977 H 0.77404 0.54494 0.96146 0.0
C978 C 0.76755 0.5435 0.02444 0.0
C979 C 0.78591 0.5445 0.99273 0.0
C980 C 0.80236 0.5442 0.9824 0.0
C981 C 0.75378 0.54328 0.01078 0.0
C982 C 0.75624 0.54391 0.9878 0.0
C983 C 0.77231 0.54463 0.97909 0.0
C984 C 0.74168 0.5425 0.97251 0.0
C985 C 0.73641 0.54167 0.02104 0.0
C986 C 0.73295 0.52717 0.95824 0.0
C987 C 0.71846 0.52507 0.94459 0.0
C988 C 0.71248 0.53828 0.94496 0.0
C989 C 0.72166 0.55395 0.95875 0.0
C990 C 0.73621 0.55607 0.97236 0.0
H991 H 0.73483 0.53719 0.03844 0.0
H992 H 0.73725 0.5555 0.02049 0.0
H993 H 0.72371 0.53154 0.01192 0.0
H994 H 0.73703 0.51658 0.95805 0.0
H995 H 0.71167 0.51287 0.93412 0.0
H996 H 0.15184 0.72282 0.45417 0.0
H997 H 0.17312 0.74982 0.47655 0.0
H998 H 0.2193 0.74267 0.45672 0.0
H999 H 0.19825 0.71599 0.43407 0.0
H1000 H 0.19383 0.75001 0.5112 0.0
H1001 H 0.2406 0.79822 0.44741 0.0
H1002 H 0.21836 0.77789 0.441 0.0
H1003 H 0.2387 0.77566 0.44559 0.0
C1004 C 0.16658 0.72718 0.45437 0.0
C1005 C 0.17341 0.71735 0.44233 0.0
C1006 C 0.1787 0.74258 0.46715 0.0
C1007 C 0.19784 0.74844 0.46802 0.0
C1008 C 0.20468 0.7387 0.45586 0.0
H1009 H 0.27982 0.80177 0.56707 0.0
H1010 H 0.25364 0.78081 0.54373 0.0
C1011 C 0.1926 0.72337 0.44304 0.0
C1012 C 0.21051 0.76385 0.48277 0.0
H1013 H 0.25264 0.80425 0.48426 0.0
C1014 C 0.20655 0.76202 0.50528 0.0
C1015 C 0.22693 0.77969 0.47501 0.0
C1016 C 0.23131 0.7831 0.4509 0.0
C1017 C 0.21908 0.7751 0.52036 0.0
C1018 C 0.23617 0.79017 0.51273 0.0
C1019 C 0.23964 0.79255 0.49012 0.0
C1020 C 0.25113 0.80292 0.52791 0.0
C1021 C 0.21398 0.77255 0.54433 0.0
C1022 C 0.25863 0.82234 0.52653 0.0
C1023 C 0.27373 0.83438 0.53974 0.0
C1024 C 0.28164 0.82718 0.55444 0.0
C1025 C 0.27394 0.80772 0.556 0.0
C1026 C 0.25889 0.79572 0.54277 0.0
H1027 H 0.19857 0.76453 0.54665 0.0
H1028 H 0.21989 0.76453 0.5522 0.0
H1029 H 0.21965 0.78621 0.55282 0.0
H1030 H 0.25293 0.82818 0.51504 0.0
H1031 H 0.27943 0.84933 0.53815 0.0
H1032 H 0.47857 0.19778 0.92636 0.0
H1033 H 0.47446 0.21935 0.95005 0.0
H1034 H 0.43025 0.17265 0.98471 0.0
H1035 H 0.434 0.15096 0.96076 0.0
H1036 H 0.42223 0.20093 0.97704 0.0
H1037 H 0.49285 0.22901 0.01319 0.0
H1038 H 0.49315 0.23101 0.98391 0.0
H1039 H 0.48212 0.20824 0.99643 0.0
C1040 C 0.46787 0.19211 0.93891 0.0
C1041 C 0.45672 0.1727 0.94186 0.0
C1042 C 0.46561 0.20444 0.9525 0.0
C1043 C 0.45233 0.19758 0.96942 0.0
C1044 C 0.44066 0.17821 0.97183 0.0
H1045 H 0.45975 0.26755 0.07964 0.0
H1046 H 0.45647 0.2416 0.05706 0.0
C1047 C 0.44284 0.16586 0.95816 0.0
C1048 C 0.45104 0.21061 0.98504 0.0
H1049 H 0.47666 0.2452 0.02178 0.0
C1050 C 0.43407 0.21056 0.98693 0.0
C1051 C 0.4664 0.22286 0.99825 0.0
C1052 C 0.4846 0.2227 0.99806 0.0
C1053 C 0.43222 0.22283 0.00129 0.0
C1054 C 0.44788 0.23571 0.0137 0.0
C1055 C 0.46469 0.23541 0.01216 0.0
C1056 C 0.44747 0.24999 0.02805 0.0
C1057 C 0.41347 0.2217 0.00318 0.0
C1058 C 0.44322 0.26317 0.01935 0.0
C1059 C 0.44487 0.27787 0.03231 0.0
C1060 C 0.45113 0.27983 0.05406 0.0
C1061 C 0.45491 0.26638 0.06292 0.0
C1062 C 0.45306 0.25157 0.05003 0.0
H1063 H 0.4019 0.20767 0.99838 0.0
H1064 H 0.41091 0.22476 0.02012 0.0
H1065 H 0.41313 0.23211 0.992 0.0
H1066 H 0.43935 0.26254 0.00231 0.0
H1067 H 0.44201 0.28813 0.02499 0.0
H1068 H 0.15203 0.43042 0.54076 0.0
H1069 H 0.17367 0.42506 0.51859 0.0
H1070 H 0.21988 0.47684 0.5422 0.0
H1071 H 0.19846 0.48212 0.56459 0.0
H1072 H 0.19605 0.44722 0.4855 0.0
H1073 H 0.23944 0.44085 0.55014 0.0
H1074 H 0.2172 0.43916 0.55587 0.0
H1075 H 0.23799 0.46169 0.55316 0.0
C1076 C 0.16684 0.44052 0.54143 0.0
C1077 C 0.17358 0.45667 0.55444 0.0
C1078 C 0.17916 0.43745 0.52876 0.0
C1079 C 0.19841 0.4504 0.52902 0.0
C1080 C 0.20515 0.46643 0.54217 0.0
H1081 H 0.2839 0.48177 0.43381 0.0
H1082 H 0.25735 0.47644 0.45653 0.0
C1083 C 0.19287 0.46949 0.55484 0.0
C1084 C 0.21136 0.44797 0.51441 0.0
H1085 H 0.25283 0.44828 0.51396 0.0
C1086 C 0.20832 0.44716 0.49173 0.0
C1087 C 0.22719 0.44758 0.52256 0.0
C1088 C 0.23056 0.44716 0.54678 0.0
C1089 C 0.22122 0.44698 0.47693 0.0
C1090 C 0.23774 0.44798 0.48505 0.0
C1091 C 0.24027 0.44775 0.50775 0.0
C1092 C 0.25308 0.45045 0.47035 0.0
C1093 C 0.21714 0.44592 0.45273 0.0
C1094 C 0.25971 0.43777 0.47085 0.0
C1095 C 0.27501 0.44087 0.45798 0.0
C1096 C 0.28399 0.45677 0.44452 0.0
C1097 C 0.2772 0.46933 0.44391 0.0
C1098 C 0.26194 0.46624 0.45678 0.0
H1099 H 0.20188 0.43927 0.44957 0.0
H1100 H 0.22393 0.46028 0.44588 0.0
H1101 H 0.22264 0.43792 0.44391 0.0
H1102 H 0.25314 0.42558 0.48136 0.0
H1103 H 0.27998 0.43098 0.45882 0.0
H1104 H 0.79885 0.28337 0.93216 0.0
H1105 H 0.77685 0.25835 0.95624 0.0
H1106 H 0.82204 0.25256 0.98294 0.0
H1107 H 0.84422 0.27782 0.95911 0.0
H1108 H 0.76806 0.22124 0.96101 0.0
H1109 H 0.79875 0.26214 0.03719 0.0
H1110 H 0.80443 0.27268 0.01035 0.0
H1111 H 0.81485 0.25941 0.01994 0.0
C1112 C 0.80409 0.27668 0.94305 0.0
C1113 C 0.82327 0.28264 0.94389 0.0
C1114 C 0.79151 0.2624 0.95678 0.0
C1115 C 0.79788 0.25384 0.97161 0.0
C1116 C 0.81691 0.25925 0.9719 0.0
H1117 H 0.72031 0.15423 0.04647 0.0
H1118 H 0.74601 0.17611 0.02292 0.0
C1119 C 0.82953 0.27359 0.9582 0.0
C1120 C 0.78456 0.23962 0.9871 0.0
H1121 H 0.77371 0.23128 0.0414 0.0
C1122 C 0.76933 0.22335 0.9786 0.0
C1123 C 0.78619 0.24258 0.01001 0.0
C1124 C 0.80183 0.2602 0.01999 0.0
C1125 C 0.75553 0.20999 0.9924 0.0
C1126 C 0.75723 0.21287 0.01532 0.0
C1127 C 0.77257 0.22906 0.02383 0.0
C1128 C 0.74263 0.19983 0.03064 0.0
C1129 C 0.73891 0.19325 0.98229 0.0
C1130 C 0.73271 0.2061 0.04339 0.0
C1131 C 0.71817 0.19371 0.05698 0.0
C1132 C 0.71332 0.17482 0.05807 0.0
C1133 C 0.72367 0.16869 0.04585 0.0
C1134 C 0.73827 0.18113 0.0323 0.0
H1135 H 0.73764 0.19526 0.96451 0.0
H1136 H 0.74054 0.18078 0.98425 0.0
H1137 H 0.72574 0.19034 0.99053 0.0
H1138 H 0.73593 0.22051 0.04241 0.0
H1139 H 0.71046 0.19883 0.06623 0.0
H1140 H 0.56995 0.84625 0.45287 0.0
H1141 H 0.57533 0.82453 0.47484 0.0
H1142 H 0.51906 0.78046 0.46139 0.0
H1143 H 0.51367 0.80194 0.43926 0.0
H1144 H 0.55625 0.80564 0.51198 0.0
H1145 H 0.54973 0.75551 0.44767 0.0
H1146 H 0.55307 0.77835 0.44139 0.0
H1147 H 0.53016 0.75931 0.44801 0.0
C1148 C 0.55882 0.83187 0.45441 0.0
C1149 C 0.54141 0.82576 0.4443 0.0
C1150 C 0.5619 0.8195 0.46696 0.0
C1151 C 0.54769 0.80083 0.46945 0.0
C1152 C 0.53036 0.7947 0.45926 0.0
H1153 H 0.52185 0.72024 0.5698 0.0
H1154 H 0.52671 0.74634 0.54654 0.0
C1155 C 0.52726 0.80702 0.44673 0.0
C1156 C 0.55046 0.78793 0.48374 0.0
H1157 H 0.54617 0.74466 0.48484 0.0
C1158 C 0.55432 0.79242 0.50601 0.0
C1159 C 0.54825 0.77084 0.47585 0.0
C1160 C 0.54527 0.76579 0.45187 0.0
C1161 C 0.55507 0.77982 0.52082 0.0
C1162 C 0.55154 0.76218 0.51317 0.0
C1163 C 0.54865 0.75811 0.49072 0.0
C1164 C 0.54966 0.74731 0.52829 0.0
C1165 C 0.55947 0.78546 0.54452 0.0
C1166 C 0.56077 0.73901 0.52555 0.0
C1167 C 0.55791 0.72396 0.53873 0.0
C1168 C 0.5438 0.71691 0.55476 0.0
C1169 C 0.53289 0.72544 0.55768 0.0
C1170 C 0.53574 0.74044 0.54449 0.0
H1171 H 0.56757 0.80092 0.54635 0.0
H1172 H 0.5462 0.78026 0.55374 0.0
H1173 H 0.56754 0.77944 0.55202 0.0
H1174 H 0.57149 0.74402 0.51303 0.0
H1175 H 0.56649 0.71763 0.53608 0.0
H1176 H 0.3279 0.40865 0.08225 0.0
H1177 H 0.34175 0.3884 0.08222 0.0
H1178 H 0.39492 0.43532 0.10106 0.0
H1179 H 0.38116 0.45548 0.10151 0.0
H1180 H 0.37114 0.39158 0.05735 0.0
H1181 H 0.38823 0.39594 0.14557 0.0
H1182 H 0.37256 0.40326 0.13475 0.0
H1183 H 0.39749 0.41856 0.13319 0.0
C1184 C 0.3425 0.41458 0.08656 0.0
C1185 C 0.35343 0.43361 0.09201 0.0
C1186 C 0.35038 0.40302 0.08651 0.0
C1187 C 0.36927 0.41029 0.09202 0.0
C1188 C 0.38021 0.42932 0.0973 0.0
H1189 H 0.45461 0.38129 0.0901 0.0
H1190 H 0.43484 0.39553 0.09124 0.0
C1191 C 0.37234 0.44084 0.09742 0.0
C1192 C 0.37788 0.39829 0.09143 0.0
H1193 H 0.40382 0.3849 0.12188 0.0
C1194 C 0.37805 0.38986 0.07152 0.0
C1195 C 0.38679 0.39601 0.10999 0.0
C1196 C 0.38611 0.40376 0.13213 0.0
C1197 C 0.38771 0.37996 0.06943 0.0
C1198 C 0.39727 0.3784 0.08776 0.0
C1199 C 0.39656 0.38627 0.10783 0.0
C1200 C 0.40898 0.36955 0.08622 0.0
C1201 C 0.38829 0.37191 0.04747 0.0
C1202 C 0.40091 0.35022 0.08301 0.0
C1203 C 0.41218 0.34201 0.08239 0.0
C1204 C 0.43165 0.35305 0.08499 0.0
C1205 C 0.43965 0.37243 0.08801 0.0
C1206 C 0.4284 0.38058 0.0887 0.0
H1207 H 0.38253 0.37674 0.03418 0.0
H1208 H 0.40288 0.37582 0.04323 0.0
H1209 H 0.37994 0.35643 0.04826 0.0
H1210 H 0.3859 0.34147 0.08132 0.0
H1211 H 0.40564 0.32703 0.08011 0.0
H1212 H 0.07422 0.45486 0.60668 0.0
H1213 H 0.04014 0.43572 0.60604 0.0
H1214 H 0.0442 0.39166 0.57318 0.0
H1215 H 0.07841 0.4107 0.57393 0.0
H1216 H 0.01799 0.42185 0.56777 0.0
H1217 H 0.0076 0.36454 0.62423 0.0
H1218 H 0.02918 0.38666 0.62321 0.0
H1219 H 0.02384 0.36956 0.60215 0.0
C1220 C 0.06788 0.44103 0.59948 0.0
C1221 C 0.07897 0.43426 0.59037 0.0
C1222 C 0.04842 0.43013 0.59912 0.0
C1223 C 0.03968 0.41223 0.58975 0.0
C1224 C 0.05069 0.40532 0.58081 0.0
H1225 H 0.9201 0.3323 0.57413 0.0
H1226 H 0.95434 0.34751 0.57292 0.0
C1227 C 0.07021 0.41624 0.58116 0.0
C1228 C 0.01903 0.40129 0.58849 0.0
H1229 H 0.98063 0.3619 0.60742 0.0
C1230 C 0.00981 0.40872 0.5764 0.0
C1231 C 0.00845 0.3841 0.5996 0.0
C1232 C 0.01769 0.37574 0.61318 0.0
C1233 C 0.99025 0.39951 0.57529 0.0
C1234 C 0.97963 0.3826 0.58694 0.0
C1235 C 0.98884 0.3749 0.59857 0.0
C1236 C 0.95898 0.3732 0.588 0.0
C1237 C 0.98113 0.40793 0.56156 0.0
C1238 C 0.95032 0.38249 0.59724 0.0
C1239 C 0.93087 0.3739 0.5979 0.0
C1240 C 0.91969 0.35578 0.58949 0.0
C1241 C 0.92837 0.34631 0.58066 0.0
C1242 C 0.94789 0.35495 0.57998 0.0
H1243 H 0.99084 0.41756 0.54892 0.0
H1244 H 0.96838 0.39689 0.55331 0.0
H1245 H 0.97699 0.4161 0.57229 0.0
H1246 H 0.95863 0.39642 0.60395 0.0
H1247 H 0.92459 0.3815 0.60496 0.0
H1248 H 0.54451 0.92446 0.11022 0.0
H1249 H 0.56402 0.95851 0.11061 0.0
H1250 H 0.60876 0.95437 0.07968 0.0
H1251 H 0.58919 0.92021 0.07897 0.0
H1252 H 0.59938 0.98108 0.13001 0.0
H1253 H 0.60158 0.99036 0.0396 0.0
H1254 H 0.58502 0.96879 0.05282 0.0
H1255 H 0.60893 0.97457 0.04954 0.0
C1256 C 0.5585 0.93079 0.10351 0.0
C1257 C 0.5653 0.91969 0.09445 0.0
C1258 C 0.56963 0.95023 0.10377 0.0
C1259 C 0.58772 0.95894 0.09492 0.0
C1260 C 0.59471 0.94791 0.08624 0.0
H1261 H 0.66626 0.07869 0.07837 0.0
H1262 H 0.65247 0.04462 0.07962 0.0
C1263 C 0.58356 0.92842 0.08595 0.0
C1264 C 0.59912 0.9796 0.0948 0.0
H1265 H 0.61841 0.01757 0.06092 0.0
C1266 C 0.60363 0.98907 0.11492 0.0
C1267 C 0.60469 0.98995 0.07507 0.0
C1268 C 0.59972 0.98047 0.05299 0.0
C1269 C 0.6134 0.00867 0.11585 0.0
C1270 C 0.6185 0.01901 0.09612 0.0
C1271 C 0.61446 0.00956 0.07601 0.0
C1272 C 0.62713 0.03962 0.09596 0.0
C1273 C 0.61818 0.01813 0.13793 0.0
C1274 C 0.61734 0.04801 0.10452 0.0
C1275 C 0.62514 0.0674 0.1038 0.0
C1276 C 0.64284 0.07873 0.0944 0.0
C1277 C 0.65261 0.0703 0.08577 0.0
C1278 C 0.64477 0.05087 0.08646 0.0
H1279 H 0.61821 0.00872 0.15092 0.0
H1280 H 0.63208 0.03107 0.13763 0.0
H1281 H 0.60754 0.02203 0.14238 0.0
H1282 H 0.60353 0.03954 0.11149 0.0
H1283 H 0.61724 0.07348 0.11049 0.0
H1284 H 0.67199 0.59275 0.58416 0.0
H1285 H 0.65916 0.61387 0.58628 0.0
H1286 H 0.60706 0.56858 0.61052 0.0
H1287 H 0.61976 0.54755 0.60869 0.0
H1288 H 0.62764 0.60986 0.56439 0.0
H1289 H 0.61853 0.61047 0.65413 0.0
H1290 H 0.63317 0.60253 0.6417 0.0
H1291 H 0.60825 0.58724 0.64319 0.0
C1292 C 0.65787 0.58738 0.59014 0.0
C1293 C 0.64689 0.56853 0.59632 0.0
C1294 C 0.65058 0.59943 0.59134 0.0
C1295 C 0.63229 0.59285 0.59891 0.0
C1296 C 0.62136 0.57406 0.60512 0.0
H1297 H 0.54641 0.62027 0.60537 0.0
H1298 H 0.56738 0.60743 0.6071 0.0
C1299 C 0.6286 0.56202 0.60392 0.0
C1300 C 0.62405 0.60518 0.59917 0.0
H1301 H 0.60083 0.62023 0.63209 0.0
C1302 C 0.62206 0.61245 0.57923 0.0
C1303 C 0.61685 0.60853 0.61858 0.0
C1304 C 0.61946 0.60194 0.64064 0.0
C1305 C 0.61209 0.62208 0.57798 0.0
C1306 C 0.60417 0.62469 0.59725 0.0
C1307 C 0.60684 0.6181 0.61733 0.0
C1308 C 0.5919 0.63296 0.59669 0.0
C1309 C 0.6093 0.62855 0.55592 0.0
C1310 C 0.59883 0.65165 0.59052 0.0
C1311 C 0.58685 0.65904 0.58948 0.0
C1312 C 0.56779 0.64783 0.59468 0.0
C1313 C 0.56101 0.62923 0.60121 0.0
C1314 C 0.57297 0.62188 0.60225 0.0
H1315 H 0.61344 0.62251 0.54224 0.0
H1316 H 0.59445 0.62469 0.55366 0.0
H1317 H 0.61795 0.64401 0.55497 0.0
H1318 H 0.61347 0.6605 0.58648 0.0
H1319 H 0.59247 0.67346 0.5845 0.0
H1320 H 0.92365 0.54101 0.10403 0.0
H1321 H 0.95773 0.56018 0.10307 0.0
H1322 H 0.95335 0.60551 0.07426 0.0
H1323 H 0.91914 0.58643 0.07534 0.0
H1324 H 0.98014 0.57625 0.06524 0.0
H1325 H 0.98935 0.63005 0.1266 0.0
H1326 H 0.96796 0.60786 0.12428 0.0
H1327 H 0.97321 0.62604 0.1047 0.0
C1328 C 0.92993 0.5551 0.0976 0.0
C1329 C 0.91875 0.56225 0.0898 0.0
C1330 C 0.94938 0.56601 0.09705 0.0
C1331 C 0.95801 0.5843 0.08882 0.0
C1332 C 0.94692 0.59152 0.08101 0.0
H1333 H 0.07719 0.66595 0.07547 0.0
H1334 H 0.04294 0.65034 0.07431 0.0
C1335 C 0.92742 0.58059 0.08154 0.0
C1336 C 0.97865 0.59548 0.08783 0.0
H1337 H 0.01659 0.63402 0.10907 0.0
C1338 C 0.98813 0.58891 0.07477 0.0
C1339 C 0.98896 0.61204 0.10018 0.0
C1340 C 0.97943 0.61941 0.11488 0.0
C1341 C 0.00771 0.59838 0.07386 0.0
C1342 C 0.01804 0.61465 0.08667 0.0
C1343 C 0.00858 0.62151 0.09932 0.0
C1344 C 0.03869 0.62428 0.0878 0.0
C1345 C 0.01716 0.59093 0.05913 0.0
C1346 C 0.04755 0.61489 0.09617 0.0
C1347 C 0.06702 0.62372 0.09686 0.0
C1348 C 0.07798 0.64217 0.08929 0.0
C1349 C 0.06908 0.65171 0.08135 0.0
C1350 C 0.04956 0.64284 0.08068 0.0
H1351 H 0.00757 0.58171 0.04612 0.0
H1352 H 0.02977 0.60252 0.05127 0.0
H1353 H 0.0216 0.58257 0.06903 0.0
H1354 H 0.03938 0.60068 0.10215 0.0
H1355 H 0.07347 0.61605 0.10319 0.0
H1356 H 0.45461 0.07414 0.60512 0.0
H1357 H 0.43456 0.04016 0.60647 0.0
H1358 H 0.38824 0.04515 0.58206 0.0
H1359 H 0.40831 0.07922 0.58041 0.0
H1360 H 0.40065 0.01846 0.62953 0.0
H1361 H 0.39119 0.00807 0.5394 0.0
H1362 H 0.40912 0.0296 0.5514 0.0
H1363 H 0.38526 0.02443 0.55102 0.0
C1364 C 0.44016 0.06802 0.60003 0.0
C1365 C 0.43304 0.07932 0.59253 0.0
C1366 C 0.42872 0.04862 0.60085 0.0
C1367 C 0.41001 0.04016 0.59411 0.0
C1368 C 0.40275 0.05141 0.58698 0.0
H1369 H 0.32867 0.92073 0.58128 0.0
H1370 H 0.34292 0.95484 0.58299 0.0
C1371 C 0.41419 0.07085 0.58614 0.0
C1372 C 0.39823 0.01954 0.59453 0.0
H1373 H 0.37556 0.98122 0.56154 0.0
C1374 C 0.39508 0.0103 0.61469 0.0
C1375 C 0.39092 0.00898 0.57513 0.0
C1376 C 0.39437 0.0182 0.55296 0.0
C1377 C 0.38497 0.99072 0.61597 0.0
C1378 C 0.37814 0.98015 0.59652 0.0
C1379 C 0.38083 0.98939 0.57642 0.0
C1380 C 0.36914 0.95951 0.59647 0.0
C1381 C 0.3817 0.98152 0.63813 0.0
C1382 C 0.37923 0.95091 0.60333 0.0
C1383 C 0.37117 0.9315 0.60236 0.0
C1384 C 0.3529 0.92035 0.59437 0.0
C1385 C 0.34277 0.92897 0.58756 0.0
C1386 C 0.35087 0.94843 0.58852 0.0
H1387 H 0.38282 0.99117 0.65148 0.0
H1388 H 0.36771 0.96872 0.639 0.0
H1389 H 0.39244 0.97744 0.64106 0.0
H1390 H 0.3935 0.95924 0.60907 0.0
H1391 H 0.37936 0.92527 0.60762 0.0
H1392 H 0.54254 0.61708 0.89558 0.0
H1393 H 0.56248 0.60304 0.89474 0.0
H1394 H 0.60966 0.65545 0.91514 0.0
H1395 H 0.58969 0.66959 0.9163 0.0
H1396 H 0.59541 0.61393 0.87032 0.0
H1397 H 0.60833 0.61764 0.96013 0.0
H1398 H 0.59 0.62073 0.94837 0.0
H1399 H 0.61389 0.63928 0.94695 0.0
C1400 C 0.55716 0.62563 0.89989 0.0
C1401 C 0.56454 0.6444 0.90613 0.0
C1402 C 0.56853 0.6176 0.89937 0.0
C1403 C 0.58747 0.62815 0.90514 0.0
C1404 C 0.595 0.64699 0.91099 0.0
H1405 H 0.66759 0.58829 0.91785 0.0
H1406 H 0.654 0.60873 0.91588 0.0
C1407 C 0.5836 0.65506 0.91154 0.0
C1408 C 0.59917 0.61921 0.90499 0.0
H1409 H 0.6225 0.60462 0.93841 0.0
C1410 C 0.60144 0.61199 0.88517 0.0
C1411 C 0.60708 0.61681 0.9244 0.0
C1412 C 0.60464 0.62388 0.94624 0.0
C1413 C 0.61117 0.60212 0.88428 0.0
C1414 C 0.61852 0.59915 0.9038 0.0
C1415 C 0.6168 0.60691 0.9235 0.0
C1416 C 0.627 0.58705 0.90436 0.0
C1417 C 0.61344 0.59492 0.86245 0.0
C1418 C 0.61623 0.56808 0.89879 0.0
C1419 C 0.62392 0.55641 0.89991 0.0
C1420 C 0.64249 0.56348 0.90677 0.0
C1421 C 0.65325 0.58248 0.91245 0.0
C1422 C 0.64553 0.59416 0.91134 0.0
H1423 H 0.6121 0.60293 0.84864 0.0
H1424 H 0.62721 0.59567 0.86127 0.0
H1425 H 0.60233 0.58008 0.8606 0.0
H1426 H 0.60178 0.56223 0.89383 0.0
H1427 H 0.61525 0.54182 0.89554 0.0
H1428 H 0.9246 0.54246 0.39676 0.0
H1429 H 0.95865 0.56157 0.3971 0.0
H1430 H 0.95473 0.60787 0.4237 0.0
H1431 H 0.92048 0.58884 0.42312 0.0
H1432 H 0.98057 0.6178 0.38906 0.0
H1433 H 0.99154 0.57576 0.45185 0.0
H1434 H 0.97743 0.56206 0.42926 0.0
H1435 H 0.96902 0.57367 0.44696 0.0
C1436 C 0.93096 0.5567 0.40271 0.0
C1437 C 0.91989 0.56413 0.41005 0.0
C1438 C 0.95042 0.56757 0.403 0.0
C1439 C 0.95919 0.586 0.41081 0.0
C1440 C 0.9482 0.59361 0.41776 0.0
H1441 H 0.07863 0.66845 0.42155 0.0
H1442 H 0.04442 0.65325 0.42264 0.0
C1443 C 0.92868 0.58274 0.41745 0.0
C1444 C 0.97984 0.59729 0.41142 0.0
H1445 H 0.01846 0.5975 0.43167 0.0
C1446 C 0.98889 0.61352 0.39855 0.0
C1447 C 0.99061 0.59167 0.42391 0.0
C1448 C 0.98167 0.57494 0.43895 0.0
C1449 C 0.00848 0.62387 0.39714 0.0
C1450 C 0.0192 0.61789 0.40911 0.0
C1451 C 0.01016 0.60195 0.4224 0.0
C1452 C 0.03982 0.62757 0.40758 0.0
C1453 C 0.01757 0.64071 0.38231 0.0
C1454 C 0.0485 0.61808 0.39893 0.0
C1455 C 0.06796 0.62668 0.39833 0.0
C1456 C 0.0791 0.64488 0.40653 0.0
C1457 C 0.07039 0.65444 0.41504 0.0
C1458 C 0.05088 0.64582 0.41559 0.0
H1459 H 0.00732 0.64133 0.37105 0.0
H1460 H 0.02403 0.6536 0.39242 0.0
H1461 H 0.02881 0.64062 0.37242 0.0
H1462 H 0.04018 0.60396 0.39274 0.0
H1463 H 0.07426 0.61896 0.39171 0.0
H1464 H 0.4564 0.07352 0.89097 0.0
H1465 H 0.43753 0.03942 0.89087 0.0
H1466 H 0.39153 0.04259 0.91976 0.0
H1467 H 0.41028 0.07682 0.91962 0.0
H1468 H 0.42211 0.01654 0.92741 0.0
H1469 H 0.36694 0.00684 0.86799 0.0
H1470 H 0.38871 0.02863 0.87061 0.0
H1471 H 0.37044 0.02235 0.89042 0.0
C1472 C 0.44222 0.06698 0.89714 0.0
C1473 C 0.43479 0.07782 0.90527 0.0
C1474 C 0.43146 0.0475 0.89708 0.0
C1475 C 0.41308 0.03851 0.90507 0.0
C1476 C 0.40557 0.04928 0.91313 0.0
H1477 H 0.33301 0.91934 0.92112 0.0
H1478 H 0.34834 0.95359 0.92138 0.0
C1479 C 0.41632 0.06881 0.91316 0.0
C1480 C 0.40218 0.01784 0.90581 0.0
H1481 H 0.36327 0.97966 0.88556 0.0
C1482 C 0.40924 0.00847 0.91826 0.0
C1483 C 0.38535 0.00739 0.89397 0.0
C1484 C 0.37743 0.01675 0.87983 0.0
C1485 C 0.39997 0.9889 0.91913 0.0
C1486 C 0.38336 0.97844 0.90693 0.0
C1487 C 0.37605 0.98777 0.89484 0.0
C1488 C 0.37376 0.9578 0.90601 0.0
C1489 C 0.40797 0.97957 0.9332 0.0
C1490 C 0.38286 0.94892 0.89686 0.0
C1491 C 0.37419 0.92945 0.89669 0.0
C1492 C 0.35621 0.91851 0.90557 0.0
C1493 C 0.3469 0.92742 0.91422 0.0
C1494 C 0.35561 0.94695 0.91437 0.0
H1495 H 0.41772 0.98927 0.94578 0.0
H1496 H 0.39669 0.96707 0.94157 0.0
H1497 H 0.41587 0.97496 0.9227 0.0
H1498 H 0.39675 0.95707 0.88996 0.0
H1499 H 0.38166 0.92298 0.88979 0.0
H1500 H 0.38034 0.45481 0.38817 0.0
H1501 H 0.39547 0.43585 0.38784 0.0
H1502 H 0.35012 0.39337 0.42591 0.0
H1503 H 0.33472 0.41219 0.42605 0.0
H1504 H 0.40707 0.42431 0.42459 0.0
H1505 H 0.35558 0.36339 0.37567 0.0
H1506 H 0.35572 0.38532 0.37629 0.0
H1507 H 0.34615 0.36931 0.39885 0.0
C1508 C 0.3735 0.44136 0.39631 0.0
C1509 C 0.35634 0.43496 0.40712 0.0
C1510 C 0.38216 0.43055 0.39611 0.0
C1511 C 0.37382 0.41313 0.40664 0.0
C1512 C 0.35661 0.40662 0.41733 0.0
H1513 H 0.41473 0.33473 0.425 0.0
H1514 H 0.39587 0.35011 0.42583 0.0
C1515 C 0.34789 0.41742 0.4175 0.0
C1516 C 0.3837 0.40233 0.40726 0.0
H1517 H 0.381 0.36153 0.39076 0.0
C1518 C 0.40138 0.41058 0.41719 0.0
C1519 C 0.37615 0.38437 0.39774 0.0
C1520 C 0.35743 0.37508 0.38637 0.0
C1521 C 0.41179 0.40141 0.41777 0.0
C1522 C 0.40444 0.38365 0.40782 0.0
C1523 C 0.38659 0.37518 0.3983 0.0
C1524 C 0.41539 0.37395 0.4066 0.0
C1525 C 0.4305 0.41077 0.42918 0.0
C1526 C 0.43238 0.38209 0.39513 0.0
C1527 C 0.44315 0.3734 0.39466 0.0
C1528 C 0.43707 0.35633 0.40554 0.0
C1529 C 0.41979 0.34792 0.41652 0.0
C1530 C 0.40901 0.35665 0.417 0.0
H1531 H 0.43178 0.42165 0.44088 0.0
H1532 H 0.43278 0.4004 0.4382 0.0
H1533 H 0.44176 0.41765 0.41679 0.0
H1534 H 0.43735 0.39526 0.38663 0.0
H1535 H 0.45634 0.38015 0.38593 0.0
H1536 H 0.07837 0.40841 0.91717 0.0
H1537 H 0.04425 0.38836 0.91616 0.0
H1538 H 0.03897 0.435 0.89366 0.0
H1539 H 0.07293 0.455 0.89437 0.0
H1540 H 0.01755 0.39315 0.93909 0.0
H1541 H 0.0074 0.39395 0.84951 0.0
H1542 H 0.02994 0.40115 0.86163 0.0
H1543 H 0.02086 0.41692 0.86103 0.0
C1544 C 0.06992 0.41433 0.91187 0.0
C1545 C 0.07829 0.43324 0.90575 0.0
C1546 C 0.05046 0.40288 0.91131 0.0
C1547 C 0.03913 0.41013 0.90448 0.0
C1548 C 0.04748 0.42903 0.8985 0.0
H1549 H 0.92467 0.38088 0.8975 0.0
H1550 H 0.95865 0.3949 0.89664 0.0
C1551 C 0.06688 0.44046 0.89904 0.0
C1552 C 0.01852 0.39827 0.90442 0.0
H1553 H 0.98013 0.38354 0.8718 0.0
C1554 C 0.00933 0.3908 0.92435 0.0
C1555 C 0.0079 0.39521 0.88513 0.0
C1556 C 0.01702 0.40207 0.86307 0.0
C1557 C 0.98974 0.3811 0.9257 0.0
C1558 C 0.97913 0.37861 0.90653 0.0
C1559 C 0.98833 0.38556 0.88648 0.0
C1560 C 0.95852 0.3698 0.90709 0.0
C1561 C 0.98056 0.3743 0.94775 0.0
C1562 C 0.9472 0.35098 0.91307 0.0
C1563 C 0.92774 0.34293 0.91363 0.0
C1564 C 0.91934 0.35357 0.9081 0.0
C1565 C 0.93074 0.37234 0.90189 0.0
C1566 C 0.95014 0.38036 0.90135 0.0
H1567 H 0.99071 0.3806 0.96142 0.0
H1568 H 0.96918 0.3776 0.95011 0.0
H1569 H 0.97428 0.35889 0.94863 0.0
H1570 H 0.9534 0.34252 0.91719 0.0
H1571 H 0.91929 0.3284 0.91836 0.0
H1572 H 0.58499 0.92119 0.4347 0.0
H1573 H 0.60423 0.95539 0.4361 0.0
H1574 H 0.56911 0.96 0.38716 0.0
H1575 H 0.54973 0.92597 0.38586 0.0
H1576 H 0.62416 0.98187 0.40251 0.0
H1577 H 0.56803 0.99189 0.43816 0.0
H1578 H 0.56685 0.96947 0.43775 0.0
H1579 H 0.5611 0.97806 0.41364 0.0
C1580 C 0.58142 0.92951 0.42421 0.0
C1581 C 0.56577 0.92094 0.4103 0.0
C1582 C 0.59242 0.94901 0.42502 0.0
C1583 C 0.58788 0.96018 0.41202 0.0
C1584 C 0.57261 0.95162 0.39765 0.0
H1585 H 0.62586 0.07475 0.38421 0.0
H1586 H 0.61147 0.04078 0.38566 0.0
C1587 C 0.56161 0.93217 0.39686 0.0
C1588 C 0.59889 0.98082 0.41352 0.0
H1589 H 0.59465 0.01909 0.42409 0.0
C1590 C 0.61782 0.99005 0.40745 0.0
C1591 C 0.59056 0.99139 0.42015 0.0
C1592 C 0.57057 0.98221 0.42801 0.0
C1593 C 0.62842 0.00967 0.40687 0.0
C1594 C 0.61987 0.0202 0.41274 0.0
C1595 C 0.60111 0.01094 0.41945 0.0
C1596 C 0.62973 0.04082 0.41107 0.0
C1597 C 0.64846 0.01901 0.39921 0.0
C1598 C 0.64486 0.05209 0.42483 0.0
C1599 C 0.65315 0.07159 0.42405 0.0
C1600 C 0.64634 0.08003 0.40956 0.0
C1601 C 0.63141 0.06867 0.39556 0.0
C1602 C 0.62316 0.04926 0.39636 0.0
H1603 H 0.65195 0.00891 0.3916 0.0
H1604 H 0.65128 0.0302 0.38718 0.0
H1605 H 0.65788 0.02559 0.41342 0.0
H1606 H 0.64993 0.04581 0.43653 0.0
H1607 H 0.66459 0.08001 0.43508 0.0
H1608 H 0.46405 0.63405 0.93404 0.0
H1609 H 0.43825 0.61167 0.9571 0.0
H1610 H 0.47607 0.59852 0.99102 0.0
H1611 H 0.50196 0.62127 0.96857 0.0
H1612 H 0.42357 0.57502 0.96085 0.0
H1613 H 0.45057 0.60712 0.04183 0.0
H1614 H 0.46085 0.61923 0.01655 0.0
H1615 H 0.46704 0.60282 0.0276 0.0
C1616 C 0.46686 0.62649 0.94656 0.0
C1617 C 0.48502 0.62947 0.94962 0.0
C1618 C 0.45213 0.61372 0.95972 0.0
C1619 C 0.45528 0.60368 0.9761 0.0
C1620 C 0.47338 0.6065 0.97896 0.0
H1621 H 0.37668 0.49728 0.03144 0.0
H1622 H 0.39974 0.52345 0.0096 0.0
C1623 C 0.48815 0.61941 0.966 0.0
C1624 C 0.43952 0.58955 0.98944 0.0
H1625 H 0.42602 0.57497 0.042 0.0
C1626 C 0.42401 0.57514 0.9786 0.0
C1627 C 0.43989 0.58987 0.01262 0.0
C1628 C 0.45539 0.60572 0.02532 0.0
C1629 C 0.40922 0.56066 0.99027 0.0
C1630 C 0.41024 0.56029 0.01338 0.0
C1631 C 0.42537 0.57509 0.02426 0.0
C1632 C 0.39606 0.54442 0.02655 0.0
C1633 C 0.39263 0.54599 0.97766 0.0
C1634 C 0.38677 0.54756 0.04386 0.0
C1635 C 0.3738 0.53264 0.05665 0.0
C1636 C 0.36989 0.51432 0.05229 0.0
C1637 C 0.37927 0.51123 0.03504 0.0
C1638 C 0.39235 0.52616 0.02243 0.0
H1639 H 0.39106 0.5515 0.96169 0.0
H1640 H 0.39474 0.53397 0.97423 0.0
H1641 H 0.37946 0.54084 0.98709 0.0
H1642 H 0.38952 0.56156 0.04744 0.0
H1643 H 0.36679 0.53543 0.06987 0.0
H1644 H 0.85335 0.38562 0.57904 0.0
H1645 H 0.85172 0.40927 0.55641 0.0
H1646 H 0.85661 0.3826 0.49809 0.0
H1647 H 0.85827 0.35891 0.52056 0.0
H1648 H 0.88028 0.43338 0.52472 0.0
H1649 H 0.81016 0.38924 0.48728 0.0
H1650 H 0.81729 0.3827 0.51215 0.0
H1651 H 0.82587 0.38011 0.48615 0.0
C1652 C 0.85394 0.38472 0.56139 0.0
C1653 C 0.85592 0.37042 0.55155 0.0
C1654 C 0.85302 0.39823 0.54851 0.0
C1655 C 0.85385 0.39753 0.52562 0.0
C1656 C 0.85567 0.38319 0.51573 0.0
H1657 H 0.85361 0.46788 0.41998 0.0
H1658 H 0.85276 0.44275 0.44219 0.0
C1659 C 0.85671 0.36974 0.52859 0.0
C1660 C 0.85367 0.4123 0.5121 0.0
H1661 H 0.82818 0.42017 0.47396 0.0
C1662 C 0.86887 0.43055 0.51368 0.0
C1663 C 0.83882 0.40845 0.49762 0.0
C1664 C 0.82201 0.3891 0.49571 0.0
C1665 C 0.86976 0.44509 0.50091 0.0
C1666 C 0.85479 0.44133 0.4866 0.0
C1667 C 0.83961 0.42302 0.48497 0.0
C1668 C 0.85465 0.45624 0.47323 0.0
C1669 C 0.88695 0.46423 0.50247 0.0
C1670 C 0.85556 0.47194 0.48334 0.0
C1671 C 0.85618 0.48633 0.47071 0.0
C1672 C 0.85564 0.48517 0.44774 0.0
C1673 C 0.8541 0.46917 0.43765 0.0
C1674 C 0.85361 0.45481 0.45031 0.0
H1675 H 0.8991 0.46351 0.50911 0.0
H1676 H 0.89083 0.47116 0.48621 0.0
H1677 H 0.88408 0.47306 0.51368 0.0
H1678 H 0.85589 0.47311 0.50101 0.0
H1679 H 0.85719 0.49842 0.47895 0.0
H1680 H 0.36752 0.83014 0.9325 0.0
H1681 H 0.39029 0.82744 0.95565 0.0
H1682 H 0.40163 0.87772 0.98997 0.0
H1683 H 0.37848 0.8801 0.96745 0.0
H1684 H 0.42678 0.85018 0.96001 0.0
H1685 H 0.3933 0.84346 0.04048 0.0
H1686 H 0.3814 0.84152 0.015 0.0
H1687 H 0.39727 0.86417 0.02638 0.0
C1688 C 0.37478 0.84051 0.94511 0.0
C1689 C 0.37115 0.85526 0.94829 0.0
C1690 C 0.38777 0.83896 0.95831 0.0
C1691 C 0.3974 0.85216 0.97485 0.0
C1692 C 0.39398 0.86705 0.97778 0.0
H1693 H 0.50351 0.88043 0.03242 0.0
H1694 H 0.47772 0.87766 0.01009 0.0
C1695 C 0.38085 0.86848 0.96478 0.0
C1696 C 0.41163 0.85087 0.98839 0.0
H1697 H 0.42553 0.85154 0.04118 0.0
C1698 C 0.4264 0.85027 0.97777 0.0
C1699 C 0.41096 0.85063 0.01156 0.0
C1700 C 0.39476 0.84977 0.02401 0.0
C1701 C 0.44085 0.85011 0.98966 0.0
C1702 C 0.44082 0.85113 0.01279 0.0
C1703 C 0.42571 0.85104 0.02343 0.0
C1704 C 0.45648 0.85268 0.02627 0.0
C1705 C 0.45589 0.84866 0.97726 0.0
C1706 C 0.45306 0.83995 0.04332 0.0
C1707 C 0.46776 0.84172 0.0564 0.0
C1708 C 0.48614 0.85623 0.05259 0.0
C1709 C 0.48952 0.869 0.0356 0.0
C1710 C 0.4748 0.86734 0.0227 0.0
H1711 H 0.45075 0.84187 0.96107 0.0
H1712 H 0.46785 0.86292 0.97429 0.0
H1713 H 0.46102 0.84059 0.98662 0.0
H1714 H 0.43902 0.82861 0.04648 0.0
H1715 H 0.46475 0.83169 0.0694 0.0
H1716 H 0.53719 0.36881 0.42995 0.0
H1717 H 0.56264 0.39114 0.45344 0.0
H1718 H 0.5231 0.3989 0.49167 0.0
H1719 H 0.49759 0.37624 0.46869 0.0
H1720 H 0.57477 0.42735 0.46014 0.0
H1721 H 0.55151 0.39009 0.53922 0.0
H1722 H 0.54139 0.37897 0.51342 0.0
H1723 H 0.53366 0.39335 0.52681 0.0
C1724 C 0.53393 0.37518 0.44348 0.0
C1725 C 0.51541 0.37073 0.44757 0.0
C1726 C 0.54847 0.38792 0.45689 0.0
C1727 C 0.54474 0.39642 0.47458 0.0
C1728 C 0.52626 0.39211 0.47852 0.0
H1729 H 0.61762 0.50154 0.53592 0.0
H1730 H 0.59523 0.47545 0.51348 0.0
C1731 C 0.51171 0.37927 0.46526 0.0
C1732 C 0.56023 0.41055 0.48822 0.0
H1733 H 0.57438 0.42281 0.54115 0.0
C1734 C 0.5748 0.42625 0.47783 0.0
C1735 C 0.56047 0.40896 0.51128 0.0
C1736 C 0.54602 0.39183 0.52331 0.0
C1737 C 0.58917 0.44075 0.48994 0.0
C1738 C 0.58869 0.43974 0.51308 0.0
C1739 C 0.57458 0.42369 0.52343 0.0
C1740 C 0.60229 0.45548 0.52684 0.0
C1741 C 0.60473 0.45698 0.47777 0.0
C1742 C 0.61324 0.45277 0.54239 0.0
C1743 C 0.62591 0.46765 0.5555 0.0
C1744 C 0.62777 0.48544 0.55326 0.0
C1745 C 0.61661 0.48803 0.53789 0.0
C1746 C 0.60391 0.47316 0.52492 0.0
H1747 H 0.60637 0.4529 0.46094 0.0
H1748 H 0.60137 0.46837 0.47633 0.0
H1749 H 0.61827 0.46252 0.48652 0.0
H1750 H 0.61209 0.43919 0.54426 0.0
H1751 H 0.63431 0.46525 0.56725 0.0
H1752 H 0.15562 0.53368 0.92322 0.0
H1753 H 0.15722 0.5589 0.94587 0.0
H1754 H 0.12934 0.51979 0.99843 0.0
H1755 H 0.12746 0.49445 0.97578 0.0
H1756 H 0.11385 0.54192 0.98941 0.0
H1757 H 0.19085 0.58525 0.99851 0.0
H1758 H 0.18305 0.57986 0.97063 0.0
H1759 H 0.17949 0.56135 0.989 0.0
C1760 C 0.14996 0.53049 0.93966 0.0
C1761 C 0.14143 0.51211 0.94775 0.0
C1762 C 0.15098 0.54493 0.95262 0.0
C1763 C 0.14364 0.54125 0.97393 0.0
C1764 C 0.13518 0.52292 0.98206 0.0
H1765 H 0.15657 0.62153 0.07436 0.0
H1766 H 0.15765 0.59713 0.05265 0.0
C1767 C 0.13412 0.50848 0.96911 0.0
C1768 C 0.1439 0.55631 0.98738 0.0
H1769 H 0.17289 0.59887 0.01048 0.0
C1770 C 0.12676 0.55434 0.99409 0.0
C1771 C 0.16077 0.57239 0.99364 0.0
C1772 C 0.17961 0.57482 0.98777 0.0
C1773 C 0.126 0.56818 0.00662 0.0
C1774 C 0.14284 0.58455 0.01226 0.0
C1775 C 0.16001 0.58638 0.0059 0.0
C1776 C 0.14285 0.59983 0.02494 0.0
C1777 C 0.1072 0.56506 0.01395 0.0
C1778 C 0.1345 0.60964 0.01633 0.0
C1779 C 0.13384 0.62354 0.02867 0.0
C1780 C 0.14162 0.62792 0.04979 0.0
C1781 C 0.1504 0.6184 0.05816 0.0
C1782 C 0.15106 0.6045 0.04579 0.0
H1783 H 0.09623 0.55007 0.013 0.0
H1784 H 0.10787 0.56999 0.03103 0.0
H1785 H 0.10293 0.57308 0.00317 0.0
H1786 H 0.12839 0.60646 0.0001 0.0
H1787 H 0.12708 0.63072 0.02174 0.0
H1788 H 0.49541 0.1198 0.52846 0.0
H1789 H 0.52115 0.12342 0.5053 0.0
H1790 H 0.5596 0.17241 0.54195 0.0
H1791 H 0.53394 0.16852 0.56564 0.0
H1792 H 0.54429 0.15178 0.4786 0.0
H1793 H 0.58548 0.14195 0.54384 0.0
H1794 H 0.56177 0.13683 0.54807 0.0
H1795 H 0.58076 0.16058 0.54905 0.0
C1796 C 0.50937 0.13129 0.53166 0.0
C1797 C 0.51271 0.1438 0.54896 0.0
C1798 C 0.52405 0.13337 0.51838 0.0
C1799 C 0.54234 0.14802 0.52208 0.0
C1800 C 0.54567 0.16074 0.53911 0.0
H1801 H 0.64505 0.17444 0.45101 0.0
H1802 H 0.62182 0.17761 0.47285 0.0
C1803 C 0.531 0.15857 0.55256 0.0
C1804 C 0.55779 0.14991 0.50791 0.0
H1805 H 0.599 0.1496 0.50855 0.0
C1806 C 0.55628 0.15136 0.48517 0.0
C1807 C 0.57344 0.14937 0.51651 0.0
C1808 C 0.57544 0.14693 0.54067 0.0
C1809 C 0.56986 0.15206 0.47079 0.0
C1810 C 0.58531 0.15127 0.47939 0.0
C1811 C 0.58713 0.15031 0.5021 0.0
C1812 C 0.59903 0.15002 0.46501 0.0
C1813 C 0.56758 0.15346 0.44649 0.0
C1814 C 0.59381 0.13347 0.45341 0.0
C1815 C 0.60701 0.13156 0.44115 0.0
C1816 C 0.62565 0.14621 0.44018 0.0
C1817 C 0.63076 0.16296 0.45138 0.0
C1818 C 0.61755 0.16479 0.46387 0.0
H1819 H 0.55702 0.15765 0.44275 0.0
H1820 H 0.58111 0.16372 0.43892 0.0
H1821 H 0.56296 0.13964 0.43881 0.0
H1822 H 0.5796 0.12186 0.45431 0.0
H1823 H 0.60269 0.11848 0.43271 0.0
H1824 H 0.50866 0.35035 0.02582 0.0
H1825 H 0.53488 0.37419 0.00463 0.0
H1826 H 0.5502 0.41255 0.05891 0.0
H1827 H 0.52427 0.38857 0.08041 0.0
H1828 H 0.53927 0.40745 0.99229 0.0
H1829 H 0.60039 0.41907 0.04189 0.0
H1830 H 0.57734 0.39915 0.04595 0.0
H1831 H 0.58327 0.42155 0.05733 0.0
C1832 C 0.51779 0.36378 0.03335 0.0
C1833 C 0.51445 0.36762 0.05476 0.0
C1834 C 0.53276 0.37738 0.02123 0.0
C1835 C 0.54464 0.39508 0.03026 0.0
C1836 C 0.5415 0.39885 0.05178 0.0
H1837 H 0.62927 0.50127 0.97767 0.0
H1838 H 0.60641 0.47554 0.00043 0.0
C1839 C 0.52661 0.38518 0.064 0.0
C1840 C 0.55935 0.40998 0.01653 0.0
H1841 H 0.60612 0.44151 0.0139 0.0
C1842 C 0.55391 0.41478 0.99692 0.0
C1843 C 0.57844 0.41957 0.02266 0.0
C1844 C 0.58526 0.41447 0.043 0.0
C1845 C 0.56696 0.42913 0.98346 0.0
C1846 C 0.58599 0.43882 0.98968 0.0
C1847 C 0.59149 0.43403 0.00924 0.0
C1848 C 0.60031 0.45416 0.97617 0.0
C1849 C 0.56025 0.43413 0.96294 0.0
C1850 C 0.6046 0.45055 0.95515 0.0
C1851 C 0.61764 0.46519 0.94212 0.0
C1852 C 0.6266 0.48367 0.94994 0.0
C1853 C 0.62252 0.48718 0.97117 0.0
C1854 C 0.60952 0.47252 0.98421 0.0
H1855 H 0.54484 0.42811 0.96292 0.0
H1856 H 0.56703 0.44955 0.9611 0.0
H1857 H 0.56404 0.42858 0.94849 0.0
H1858 H 0.5978 0.43641 0.9488 0.0
H1859 H 0.62059 0.46205 0.92587 0.0
H1860 H 0.16723 0.63289 0.43137 0.0
H1861 H 0.16923 0.60917 0.45341 0.0
H1862 H 0.1194 0.59828 0.48844 0.0
H1863 H 0.11772 0.62239 0.46702 0.0
H1864 H 0.14533 0.59995 0.51582 0.0
H1865 H 0.13749 0.55348 0.44614 0.0
H1866 H 0.15703 0.5767 0.44328 0.0
H1867 H 0.13364 0.57303 0.44339 0.0
C1868 C 0.15673 0.62543 0.44379 0.0
C1869 C 0.14227 0.6294 0.44742 0.0
C1870 C 0.1578 0.6118 0.45627 0.0
C1871 C 0.14424 0.60167 0.47228 0.0
C1872 C 0.12997 0.60586 0.47612 0.0
H1873 H 0.11715 0.49581 0.53007 0.0
H1874 H 0.11889 0.52162 0.50865 0.0
C1875 C 0.12901 0.61962 0.46385 0.0
C1876 C 0.14488 0.58679 0.4852 0.0
H1877 H 0.14449 0.54539 0.48068 0.0
C1878 C 0.14514 0.58801 0.50815 0.0
C1879 C 0.14439 0.5711 0.47517 0.0
C1880 C 0.14293 0.56835 0.45066 0.0
C1881 C 0.14484 0.57395 0.52135 0.0
C1882 C 0.14485 0.5585 0.5113 0.0
C1883 C 0.14467 0.55733 0.48835 0.0
C1884 C 0.14416 0.54296 0.52424 0.0
C1885 C 0.14387 0.5755 0.54588 0.0
C1886 C 0.15793 0.54631 0.53993 0.0
C1887 C 0.15682 0.53159 0.55241 0.0
C1888 C 0.14211 0.51322 0.5491 0.0
C1889 C 0.12864 0.50983 0.53299 0.0
C1890 C 0.12963 0.52456 0.52072 0.0
H1891 H 0.13872 0.58515 0.55053 0.0
H1892 H 0.13454 0.56163 0.55339 0.0
H1893 H 0.15807 0.58111 0.5529 0.0
H1894 H 0.16954 0.56031 0.54252 0.0
H1895 H 0.16749 0.53458 0.56457 0.0
H1896 H 0.63721 0.13741 0.02212 0.0
H1897 H 0.61407 0.13944 0.99909 0.0
H1898 H 0.58697 0.14484 0.05678 0.0
H1899 H 0.61041 0.14336 0.07988 0.0
H1900 H 0.57688 0.11652 0.99752 0.0
H1901 H 0.59208 0.18778 0.0202 0.0
H1902 H 0.60747 0.17897 0.02731 0.0
H1903 H 0.58689 0.17265 0.04341 0.0
C1904 C 0.62639 0.13916 0.02989 0.0
C1905 C 0.62565 0.14031 0.05279 0.0
C1906 C 0.61319 0.14032 0.01671 0.0
C1907 C 0.59897 0.14262 0.02618 0.0
C1908 C 0.59809 0.14358 0.04908 0.0
H1909 H 0.49794 0.13629 0.97684 0.0
H1910 H 0.5232 0.13757 0.99916 0.0
C1911 C 0.61141 0.14259 0.06227 0.0
C1912 C 0.58465 0.1432 0.01209 0.0
H1913 H 0.56414 0.16919 -0.00023 0.0
C1914 C 0.57421 0.12811 0.99789 0.0
C1915 C 0.5812 0.15836 0.01256 0.0
C1916 C 0.59262 0.17544 0.02653 0.0
C1917 C 0.56018 0.12761 0.98448 0.0
C1918 C 0.55655 0.14259 0.98525 0.0
C1919 C 0.56699 0.15772 0.99932 0.0
C1920 C 0.54171 0.14259 0.97176 0.0
C1921 C 0.54904 0.11092 0.96984 0.0
C1922 C 0.54396 0.14526 0.94904 0.0
C1923 C 0.52962 0.14465 0.93626 0.0
C1924 C 0.5128 0.14126 0.94604 0.0
C1925 C 0.51073 0.13886 0.96885 0.0
C1926 C 0.52512 0.13962 0.98162 0.0
H1927 H 0.55173 0.09929 0.97348 0.0
H1928 H 0.53385 0.10574 0.97167 0.0
H1929 H 0.55284 0.11514 0.95251 0.0
H1930 H 0.55676 0.1477 0.94121 0.0
H1931 H 0.5316 0.14657 0.91872 0.0
H1932 H 0.50367 0.62223 0.53126 0.0
H1933 H 0.4778 0.59912 0.50908 0.0
H1934 H 0.43966 0.61163 0.54335 0.0
H1935 H 0.46548 0.63444 0.56607 0.0
H1936 H 0.42568 0.57476 0.53976 0.0
H1937 H 0.45142 0.60733 0.45864 0.0
H1938 H 0.4683 0.60355 0.47269 0.0
H1939 H 0.46162 0.61954 0.4839 0.0
C1940 C 0.4898 0.62014 0.53398 0.0
C1941 C 0.48659 0.63018 0.55034 0.0
C1942 C 0.47504 0.60703 0.52118 0.0
C1943 C 0.45685 0.60392 0.52423 0.0
C1944 C 0.45361 0.61391 0.5406 0.0
H1945 H 0.3676 0.53526 0.43164 0.0
H1946 H 0.39043 0.56135 0.45404 0.0
C1947 C 0.46836 0.62693 0.55356 0.0
C1948 C 0.44112 0.5896 0.51103 0.0
H1949 H 0.42714 0.57514 0.45855 0.0
C1950 C 0.4259 0.57495 0.52199 0.0
C1951 C 0.44122 0.59002 0.48786 0.0
C1952 C 0.45643 0.60607 0.47509 0.0
C1953 C 0.41113 0.56035 0.51043 0.0
C1954 C 0.41186 0.56014 0.48728 0.0
C1955 C 0.42671 0.57515 0.4763 0.0
C1956 C 0.39762 0.54428 0.47415 0.0
C1957 C 0.39486 0.54539 0.52318 0.0
C1958 C 0.39423 0.52606 0.47785 0.0
C1959 C 0.38109 0.51115 0.46525 0.0
C1960 C 0.37132 0.51422 0.44844 0.0
C1961 C 0.37491 0.53249 0.44452 0.0
C1962 C 0.38794 0.54739 0.45729 0.0
H1963 H 0.39342 0.55067 0.53938 0.0
H1964 H 0.38153 0.54013 0.51408 0.0
H1965 H 0.39727 0.5335 0.52614 0.0
H1966 H 0.40192 0.52339 0.49032 0.0
H1967 H 0.37876 0.49725 0.4685 0.0
H1968 H 0.85312 0.38457 0.92009 0.0
H1969 H 0.85165 0.4085 0.94237 0.0
H1970 H 0.85885 0.38364 0.00094 0.0
H1971 H 0.8604 0.3597 0.97882 0.0
H1972 H 0.82829 0.3933 0.00082 0.0
H1973 H 0.89831 0.45128 0.97594 0.0
H1974 H 0.88288 0.4372 0.95431 0.0
H1975 H 0.89177 0.42698 0.9733 0.0
C1976 C 0.85436 0.38419 0.93772 0.0
C1977 C 0.85696 0.37033 0.94773 0.0
C1978 C 0.85356 0.39787 0.95038 0.0
C1979 C 0.8553 0.39786 0.97323 0.0
C1980 C 0.85754 0.38386 0.98331 0.0
H1981 H 0.85257 0.46616 0.07993 0.0
H1982 H 0.85139 0.44104 0.05747 0.0
C1983 C 0.85846 0.37025 0.97065 0.0
C1984 C 0.85495 0.41258 0.98663 0.0
H1985 H 0.88015 0.4591 0.99864 0.0
C1986 C 0.8396 0.4077 0.00041 0.0
C1987 C 0.86973 0.4313 0.98592 0.0
C1988 C 0.88671 0.4371 0.97171 0.0
C1989 C 0.83851 0.42118 0.01335 0.0
C1990 C 0.85341 0.43991 0.01285 0.0
C1991 C 0.86874 0.44474 0.999 0.0
C1992 C 0.85348 0.45478 0.02653 0.0
C1993 C 0.82122 0.4153 0.02702 0.0
C1994 C 0.85549 0.47102 0.01666 0.0
C1995 C 0.85644 0.48549 0.02946 0.0
C1996 C 0.85539 0.48396 0.0524 0.0
C1997 C 0.85327 0.46765 0.06228 0.0
C1998 C 0.85246 0.45324 0.04946 0.0
H1999 H 0.80913 0.40219 0.02076 0.0
H2000 H 0.82398 0.4127 0.04406 0.0
H2001 H 0.81734 0.42637 0.02735 0.0
H2002 H 0.85639 0.47254 0.99901 0.0
H2003 H 0.85808 0.4979 0.02139 0.0
H2004 H 0.50207 0.88247 0.46784 0.0
H2005 H 0.4759 0.87982 0.48935 0.0
H2006 H 0.43786 0.83032 0.45318 0.0
H2007 H 0.46397 0.83325 0.43109 0.0
H2008 H 0.42417 0.85336 0.45755 0.0
H2009 H 0.44853 0.84408 0.53845 0.0
H2010 H 0.46571 0.86505 0.52516 0.0
H2011 H 0.45904 0.84265 0.51316 0.0
C2012 C 0.48814 0.87097 0.46453 0.0
C2013 C 0.48505 0.85801 0.44787 0.0
C2014 C 0.47321 0.86939 0.47695 0.0
C2015 C 0.45497 0.85463 0.47322 0.0
C2016 C 0.45184 0.84174 0.45645 0.0
H2017 H 0.36475 0.83171 0.56511 0.0
H2018 H 0.38769 0.82903 0.54229 0.0
C2019 C 0.46675 0.84343 0.44386 0.0
C2020 C 0.43912 0.85306 0.48631 0.0
H2021 H 0.42435 0.85209 0.53875 0.0
C2022 C 0.42412 0.85289 0.4753 0.0
C2023 C 0.43886 0.85208 0.50946 0.0
C2024 C 0.4538 0.85077 0.52223 0.0
C2025 C 0.40919 0.85244 0.48682 0.0
C2026 C 0.40954 0.85267 0.51 0.0
C2027 C 0.42421 0.85217 0.52099 0.0
C2028 C 0.39509 0.85387 0.52319 0.0
C2029 C 0.39313 0.85154 0.47401 0.0
C2030 C 0.39173 0.86879 0.52017 0.0
C2031 C 0.37852 0.87023 0.53302 0.0
C2032 C 0.36865 0.85696 0.5494 0.0
C2033 C 0.37214 0.84213 0.55258 0.0
C2034 C 0.38524 0.84059 0.53957 0.0
H2035 H 0.39195 0.84533 0.45754 0.0
H2036 H 0.37965 0.84319 0.48276 0.0
H2037 H 0.39559 0.86592 0.47166 0.0
H2038 H 0.39954 0.8795 0.50809 0.0
H2039 H 0.37625 0.88191 0.53034 0.0
loop_
_geom_bond_atom_site_label_1
_geom_bond_atom_site_label_2
_geom_bond_distance
_geom_bond_site_symmetry_2
_ccdc_geom_bond_type
In0 O1 2.294 . S
In0 O2 2.326 . S
In0 O6 2.266 . S
In0 O7 2.326 . S
In0 O8 2.266 . S
In0 O9 2.326 . S
In0 O11 2.294 . S
In0 O12 2.326 . S
O1 In0 2.294 . S
O1 C10 1.240 . S
O2 In0 2.326 . S
O2 C10 1.252 . S
C3 O6 1.252 . S
C3 O7 1.260 . S
C4 O11 1.240 . S
C4 O12 1.252 . S
C5 O8 1.252 . S
C5 O9 1.260 . S
O6 In0 2.266 . S
O6 C3 1.252 . S
O7 In0 2.326 . S
O7 C3 1.260 . S
O8 In0 2.266 . S
O8 C5 1.252 . S
O9 In0 2.326 . S
O9 C5 1.260 . S
C10 O1 1.240 . S
C10 O2 1.252 . S
O11 In0 2.294 . S
O11 C4 1.240 . S
O12 In0 2.326 . S
O12 C4 1.252 . S
In13 O14 2.294 . S
In13 O15 2.326 . S
In13 O19 2.266 . S
In13 O20 2.326 . S
In13 O21 2.266 . S
In13 O22 2.326 . S
In13 O24 2.294 . S
In13 O25 2.326 . S
O14 In13 2.294 . S
O14 C23 1.240 . S
O15 In13 2.326 . S
O15 C23 1.252 . S
C16 O19 1.252 . S
C16 O20 1.260 . S
C17 O24 1.240 . S
C17 O25 1.252 . S
C18 O21 1.252 . S
C18 O22 1.260 . S
O19 In13 2.266 . S
O19 C16 1.252 . S
O20 In13 2.326 . S
O20 C16 1.260 . S
O21 In13 2.266 . S
O21 C18 1.252 . S
O22 In13 2.326 . S
O22 C18 1.260 . S
C23 O14 1.240 . S
C23 O15 1.252 . S
O24 In13 2.294 . S
O24 C17 1.240 . S
O25 In13 2.326 . S
O25 C17 1.252 . S
In26 O27 2.294 . S
In26 O28 2.326 . S
In26 O32 2.266 . S
In26 O33 2.326 . S
In26 O34 2.266 . S
In26 O35 2.326 . S
In26 O37 2.294 . S
In26 O38 2.326 . S
O27 In26 2.294 . S
O27 C36 1.240 . S
O28 In26 2.326 . S
O28 C36 1.252 . S
C29 O32 1.252 . S
C29 O33 1.260 . S
C30 O37 1.240 . S
C30 O38 1.252 . S
C31 O34 1.252 . S
C31 O35 1.260 . S
O32 In26 2.266 . S
O32 C29 1.252 . S
O33 In26 2.326 . S
O33 C29 1.260 . S
O34 In26 2.266 . S
O34 C31 1.252 . S
O35 In26 2.326 . S
O35 C31 1.260 . S
C36 O27 1.240 . S
C36 O28 1.252 . S
O37 In26 2.294 . S
O37 C30 1.240 . S
O38 In26 2.326 . S
O38 C30 1.252 . S
In39 O40 2.294 . S
In39 O41 2.326 . S
In39 O45 2.266 . S
In39 O46 2.326 . S
In39 O47 2.266 . S
In39 O48 2.326 . S
In39 O50 2.294 . S
In39 O51 2.326 . S
O40 In39 2.294 . S
O40 C49 1.240 . S
O41 In39 2.326 . S
O41 C49 1.252 . S
C42 O45 1.252 . S
C42 O46 1.260 . S
C43 O50 1.240 . S
C43 O51 1.252 . S
C44 O47 1.252 . S
C44 O48 1.260 . S
O45 In39 2.266 . S
O45 C42 1.252 . S
O46 In39 2.326 . S
O46 C42 1.260 . S
O47 In39 2.266 . S
O47 C44 1.252 . S
O48 In39 2.326 . S
O48 C44 1.260 . S
C49 O40 1.240 . S
C49 O41 1.252 . S
O50 In39 2.294 . S
O50 C43 1.240 . S
O51 In39 2.326 . S
O51 C43 1.252 . S
In52 O53 2.294 . S
In52 O54 2.326 . S
In52 O58 2.266 . S
In52 O59 2.326 . S
In52 O60 2.266 . S
In52 O61 2.326 . S
In52 O63 2.294 . S
In52 O64 2.326 . S
O53 In52 2.294 . S
O53 C62 1.240 . S
O54 In52 2.326 . S
O54 C62 1.252 . S
C55 O58 1.252 . S
C55 O59 1.260 . S
C56 O63 1.240 . S
C56 O64 1.252 . S
C57 O60 1.252 . S
C57 O61 1.260 . S
O58 In52 2.266 . S
O58 C55 1.252 . S
O59 In52 2.326 . S
O59 C55 1.260 . S
O60 In52 2.266 . S
O60 C57 1.252 . S
O61 In52 2.326 . S
O61 C57 1.260 . S
C62 O53 1.240 . S
C62 O54 1.252 . S
O63 In52 2.294 . S
O63 C56 1.240 . S
O64 In52 2.326 . S
O64 C56 1.252 . S
In65 O66 2.294 . S
In65 O67 2.326 . S
In65 O71 2.266 . S
In65 O72 2.326 . S
In65 O73 2.266 . S
In65 O74 2.326 . S
In65 O76 2.294 . S
In65 O77 2.326 . S
O66 In65 2.294 . S
O66 C75 1.240 . S
O67 In65 2.326 . S
O67 C75 1.252 . S
C68 O71 1.252 . S
C68 O72 1.260 . S
C69 O76 1.240 . S
C69 O77 1.252 . S
C70 O73 1.252 . S
C70 O74 1.260 . S
O71 In65 2.266 . S
O71 C68 1.252 . S
O72 In65 2.326 . S
O72 C68 1.260 . S
O73 In65 2.266 . S
O73 C70 1.252 . S
O74 In65 2.326 . S
O74 C70 1.260 . S
C75 O66 1.240 . S
C75 O67 1.252 . S
O76 In65 2.294 . S
O76 C69 1.240 . S
O77 In65 2.326 . S
O77 C69 1.252 . S
In78 O79 2.294 . S
In78 O80 2.326 . S
In78 O84 2.266 . S
In78 O85 2.326 . S
In78 O86 2.266 . S
In78 O87 2.326 . S
In78 O89 2.294 . S
In78 O90 2.326 . S
O79 In78 2.294 . S
O79 C88 1.240 . S
O80 In78 2.326 . S
O80 C88 1.252 . S
C81 O84 1.252 . S
C81 O85 1.260 . S
C82 O89 1.240 . S
C82 O90 1.252 . S
C83 O86 1.252 . S
C83 O87 1.260 . S
O84 In78 2.266 . S
O84 C81 1.252 . S
O85 In78 2.326 . S
O85 C81 1.260 . S
O86 In78 2.266 . S
O86 C83 1.252 . S
O87 In78 2.326 . S
O87 C83 1.260 . S
C88 O79 1.240 . S
C88 O80 1.252 . S
O89 In78 2.294 . S
O89 C82 1.240 . S
O90 In78 2.326 . S
O90 C82 1.252 . S
In91 O92 2.294 . S
In91 O93 2.326 . S
In91 O97 2.266 . S
In91 O98 2.326 . S
In91 O99 2.266 . S
In91 O100 2.326 . S
In91 O102 2.294 . S
In91 O103 2.326 . S
O92 In91 2.294 . S
O92 C101 1.240 . S
O93 In91 2.326 . S
O93 C101 1.252 . S
C94 O97 1.252 . S
C94 O98 1.260 . S
C95 O102 1.240 . S
C95 O103 1.252 . S
C96 O99 1.252 . S
C96 O100 1.260 . S
O97 In91 2.266 . S
O97 C94 1.252 . S
O98 In91 2.326 . S
O98 C94 1.260 . S
O99 In91 2.266 . S
O99 C96 1.252 . S
O100 In91 2.326 . S
O100 C96 1.260 . S
C101 O92 1.240 . S
C101 O93 1.252 . S
O102 In91 2.294 . S
O102 C95 1.240 . S
O103 In91 2.326 . S
O103 C95 1.252 . S
In104 O105 2.294 . S
In104 O106 2.326 . S
In104 O110 2.266 . S
In104 O111 2.326 . S
In104 O112 2.266 . S
In104 O113 2.326 . S
In104 O115 2.294 . S
In104 O116 2.326 . S
O105 In104 2.294 . S
O105 C114 1.240 . S
O106 In104 2.326 . S
O106 C114 1.252 . S
C107 O110 1.252 . S
C107 O111 1.260 . S
C108 O115 1.240 . S
C108 O116 1.252 . S
C109 O112 1.252 . S
C109 O113 1.260 . S
O110 In104 2.266 . S
O110 C107 1.252 . S
O111 In104 2.326 . S
O111 C107 1.260 . S
O112 In104 2.266 . S
O112 C109 1.252 . S
O113 In104 2.326 . S
O113 C109 1.260 . S
C114 O105 1.240 . S
C114 O106 1.252 . S
O115 In104 2.294 . S
O115 C108 1.240 . S
O116 In104 2.326 . S
O116 C108 1.252 . S
In117 O118 2.294 . S
In117 O119 2.326 . S
In117 O123 2.266 . S
In117 O124 2.326 . S
In117 O125 2.266 . S
In117 O126 2.326 . S
In117 O128 2.294 . S
In117 O129 2.326 . S
O118 In117 2.294 . S
O118 C127 1.240 . S
O119 In117 2.326 . S
O119 C127 1.252 . S
C120 O123 1.252 . S
C120 O124 1.260 . S
C121 O128 1.240 . S
C121 O129 1.252 . S
C122 O125 1.252 . S
C122 O126 1.260 . S
O123 In117 2.266 . S
O123 C120 1.252 . S
O124 In117 2.326 . S
O124 C120 1.260 . S
O125 In117 2.266 . S
O125 C122 1.252 . S
O126 In117 2.326 . S
O126 C122 1.260 . S
C127 O118 1.240 . S
C127 O119 1.252 . S
O128 In117 2.294 . S
O128 C121 1.240 . S
O129 In117 2.326 . S
O129 C121 1.252 . S
In130 O131 2.294 . S
In130 O132 2.326 . S
In130 O136 2.266 . S
In130 O137 2.326 . S
In130 O138 2.266 . S
In130 O139 2.326 . S
In130 O141 2.294 . S
In130 O142 2.326 . S
O131 In130 2.294 . S
O131 C140 1.240 . S
O132 In130 2.326 . S
O132 C140 1.252 . S
C133 O136 1.252 . S
C133 O137 1.260 . S
C134 O141 1.240 . S
C134 O142 1.252 . S
C135 O138 1.252 . S
C135 O139 1.260 . S
O136 In130 2.266 . S
O136 C133 1.252 . S
O137 In130 2.326 . S
O137 C133 1.260 . S
O138 In130 2.266 . S
O138 C135 1.252 . S
O139 In130 2.326 . S
O139 C135 1.260 . S
C140 O131 1.240 . S
C140 O132 1.252 . S
O141 In130 2.294 . S
O141 C134 1.240 . S
O142 In130 2.326 . S
O142 C134 1.252 . S
In143 O144 2.294 . S
In143 O145 2.326 . S
In143 O149 2.266 . S
In143 O150 2.326 . S
In143 O151 2.266 . S
In143 O152 2.326 . S
In143 O154 2.294 . S
In143 O155 2.326 . S
O144 In143 2.294 . S
O144 C153 1.240 . S
O145 In143 2.326 . S
O145 C153 1.252 . S
C146 O149 1.252 . S
C146 O150 1.260 . S
C147 O154 1.240 . S
C147 O155 1.252 . S
C148 O151 1.252 . S
C148 O152 1.260 . S
O149 In143 2.266 . S
O149 C146 1.252 . S
O150 In143 2.326 . S
O150 C146 1.260 . S
O151 In143 2.266 . S
O151 C148 1.252 . S
O152 In143 2.326 . S
O152 C148 1.260 . S
C153 O144 1.240 . S
C153 O145 1.252 . S
O154 In143 2.294 . S
O154 C147 1.240 . S
O155 In143 2.326 . S
O155 C147 1.252 . S
In156 O157 2.294 . S
In156 O158 2.326 . S
In156 O162 2.266 . S
In156 O163 2.326 . S
In156 O164 2.266 . S
In156 O165 2.326 . S
In156 O167 2.294 . S
In156 O168 2.326 . S
O157 In156 2.294 . S
O157 C166 1.240 . S
O158 In156 2.326 . S
O158 C166 1.252 . S
C159 O162 1.252 . S
C159 O163 1.260 . S
C160 O167 1.240 . S
C160 O168 1.252 . S
C161 O164 1.252 . S
C161 O165 1.260 . S
O162 In156 2.266 . S
O162 C159 1.252 . S
O163 In156 2.326 . S
O163 C159 1.260 . S
O164 In156 2.266 . S
O164 C161 1.252 . S
O165 In156 2.326 . S
O165 C161 1.260 . S
C166 O157 1.240 . S
C166 O158 1.252 . S
O167 In156 2.294 . S
O167 C160 1.240 . S
O168 In156 2.326 . S
O168 C160 1.252 . S
In169 O170 2.294 . S
In169 O171 2.326 . S
In169 O175 2.266 . S
In169 O176 2.326 . S
In169 O177 2.266 . S
In169 O178 2.326 . S
In169 O180 2.294 . S
In169 O181 2.326 . S
O170 In169 2.294 . S
O170 C179 1.240 . S
O171 In169 2.326 . S
O171 C179 1.252 . S
C172 O175 1.252 . S
C172 O176 1.260 . S
C173 O180 1.240 . S
C173 O181 1.252 . S
C174 O177 1.252 . S
C174 O178 1.260 . S
O175 In169 2.266 . S
O175 C172 1.252 . S
O176 In169 2.326 . S
O176 C172 1.260 . S
O177 In169 2.266 . S
O177 C174 1.252 . S
O178 In169 2.326 . S
O178 C174 1.260 . S
C179 O170 1.240 . S
C179 O171 1.252 . S
O180 In169 2.294 . S
O180 C173 1.240 . S
O181 In169 2.326 . S
O181 C173 1.252 . S
In182 O183 2.294 . S
In182 O184 2.326 . S
In182 O188 2.266 . S
In182 O189 2.326 . S
In182 O190 2.266 . S
In182 O191 2.326 . S
In182 O193 2.294 . S
In182 O194 2.326 . S
O183 In182 2.294 . S
O183 C192 1.240 . S
O184 In182 2.326 . S
O184 C192 1.252 . S
C185 O188 1.252 . S
C185 O189 1.260 . S
C186 O193 1.240 . S
C186 O194 1.252 . S
C187 O190 1.252 . S
C187 O191 1.260 . S
O188 In182 2.266 . S
O188 C185 1.252 . S
O189 In182 2.326 . S
O189 C185 1.260 . S
O190 In182 2.266 . S
O190 C187 1.252 . S
O191 In182 2.326 . S
O191 C187 1.260 . S
C192 O183 1.240 . S
C192 O184 1.252 . S
O193 In182 2.294 . S
O193 C186 1.240 . S
O194 In182 2.326 . S
O194 C186 1.252 . S
In195 O196 2.294 . S
In195 O197 2.326 . S
In195 O201 2.266 . S
In195 O202 2.326 . S
In195 O203 2.266 . S
In195 O204 2.326 . S
In195 O206 2.294 . S
In195 O207 2.326 . S
O196 In195 2.294 . S
O196 C205 1.240 . S
O197 In195 2.326 . S
O197 C205 1.252 . S
C198 O201 1.252 . S
C198 O202 1.260 . S
C199 O206 1.240 . S
C199 O207 1.252 . S
C200 O203 1.252 . S
C200 O204 1.260 . S
O201 In195 2.266 . S
O201 C198 1.252 . S
O202 In195 2.326 . S
O202 C198 1.260 . S
O203 In195 2.266 . S
O203 C200 1.252 . S
O204 In195 2.326 . S
O204 C200 1.260 . S
C205 O196 1.240 . S
C205 O197 1.252 . S
O206 In195 2.294 . S
O206 C199 1.240 . S
O207 In195 2.326 . S
O207 C199 1.252 . S
In208 O209 2.294 . S
In208 O210 2.326 . S
In208 O214 2.266 . S
In208 O215 2.326 . S
In208 O216 2.266 . S
In208 O217 2.326 . S
In208 O219 2.294 . S
In208 O220 2.326 . S
O209 In208 2.294 . S
O209 C218 1.240 . S
O210 In208 2.326 . S
O210 C218 1.252 . S
C211 O214 1.252 . S
C211 O215 1.260 . S
C212 O219 1.240 . S
C212 O220 1.252 . S
C213 O216 1.252 . S
C213 O217 1.260 . S
O214 In208 2.266 . S
O214 C211 1.252 . S
O215 In208 2.326 . S
O215 C211 1.260 . S
O216 In208 2.266 . S
O216 C213 1.252 . S
O217 In208 2.326 . S
O217 C213 1.260 . S
C218 O209 1.240 . S
C218 O210 1.252 . S
O219 In208 2.294 . S
O219 C212 1.240 . S
O220 In208 2.326 . S
O220 C212 1.252 . S
In221 O222 2.294 . S
In221 O223 2.326 . S
In221 O227 2.266 . S
In221 O228 2.326 . S
In221 O229 2.266 . S
In221 O230 2.326 . S
In221 O232 2.294 . S
In221 O233 2.326 . S
O222 In221 2.294 . S
O222 C231 1.240 . S
O223 In221 2.326 . S
O223 C231 1.252 . S
C224 O227 1.252 . S
C224 O228 1.260 . S
C225 O232 1.240 . S
C225 O233 1.252 . S
C226 O229 1.252 . S
C226 O230 1.260 . S
O227 In221 2.266 . S
O227 C224 1.252 . S
O228 In221 2.326 . S
O228 C224 1.260 . S
O229 In221 2.266 . S
O229 C226 1.252 . S
O230 In221 2.326 . S
O230 C226 1.260 . S
C231 O222 1.240 . S
C231 O223 1.252 . S
O232 In221 2.294 . S
O232 C225 1.240 . S
O233 In221 2.326 . S
O233 C225 1.252 . S
In234 O235 2.294 . S
In234 O236 2.326 . S
In234 O240 2.266 . S
In234 O241 2.326 . S
In234 O242 2.266 . S
In234 O243 2.326 . S
In234 O245 2.294 . S
In234 O246 2.326 . S
O235 In234 2.294 . S
O235 C244 1.240 . S
O236 In234 2.326 . S
O236 C244 1.252 . S
C237 O240 1.252 . S
C237 O241 1.260 . S
C238 O245 1.240 . S
C238 O246 1.252 . S
C239 O242 1.252 . S
C239 O243 1.260 . S
O240 In234 2.266 . S
O240 C237 1.252 . S
O241 In234 2.326 . S
O241 C237 1.260 . S
O242 In234 2.266 . S
O242 C239 1.252 . S
O243 In234 2.326 . S
O243 C239 1.260 . S
C244 O235 1.240 . S
C244 O236 1.252 . S
O245 In234 2.294 . S
O245 C238 1.240 . S
O246 In234 2.326 . S
O246 C238 1.252 . S
In247 O248 2.294 . S
In247 O249 2.326 . S
In247 O253 2.266 . S
In247 O254 2.326 . S
In247 O255 2.266 . S
In247 O256 2.326 . S
In247 O258 2.294 . S
In247 O259 2.326 . S
O248 In247 2.294 . S
O248 C257 1.240 . S
O249 In247 2.326 . S
O249 C257 1.252 . S
C250 O253 1.252 . S
C250 O254 1.260 . S
C251 O258 1.240 . S
C251 O259 1.252 . S
C252 O255 1.252 . S
C252 O256 1.260 . S
O253 In247 2.266 . S
O253 C250 1.252 . S
O254 In247 2.326 . S
O254 C250 1.260 . S
O255 In247 2.266 . S
O255 C252 1.252 . S
O256 In247 2.326 . S
O256 C252 1.260 . S
C257 O248 1.240 . S
C257 O249 1.252 . S
O258 In247 2.294 . S
O258 C251 1.240 . S
O259 In247 2.326 . S
O259 C251 1.252 . S
In260 O261 2.294 . S
In260 O262 2.326 . S
In260 O266 2.266 . S
In260 O267 2.326 . S
In260 O268 2.266 . S
In260 O269 2.326 . S
In260 O271 2.294 . S
In260 O272 2.326 . S
O261 In260 2.294 . S
O261 C270 1.240 . S
O262 In260 2.326 . S
O262 C270 1.252 . S
C263 O266 1.252 . S
C263 O267 1.260 . S
C264 O271 1.240 . S
C264 O272 1.252 . S
C265 O268 1.252 . S
C265 O269 1.260 . S
O266 In260 2.266 . S
O266 C263 1.252 . S
O267 In260 2.326 . S
O267 C263 1.260 . S
O268 In260 2.266 . S
O268 C265 1.252 . S
O269 In260 2.326 . S
O269 C265 1.260 . S
C270 O261 1.240 . S
C270 O262 1.252 . S
O271 In260 2.294 . S
O271 C264 1.240 . S
O272 In260 2.326 . S
O272 C264 1.252 . S
In273 O274 2.294 . S
In273 O275 2.326 . S
In273 O279 2.266 . S
In273 O280 2.326 . S
In273 O281 2.266 . S
In273 O282 2.326 . S
In273 O284 2.294 . S
In273 O285 2.326 . S
O274 In273 2.294 . S
O274 C283 1.240 . S
O275 In273 2.326 . S
O275 C283 1.252 . S
C276 O279 1.252 . S
C276 O280 1.260 . S
C277 O284 1.240 . S
C277 O285 1.252 . S
C278 O281 1.252 . S
C278 O282 1.260 . S
O279 In273 2.266 . S
O279 C276 1.252 . S
O280 In273 2.326 . S
O280 C276 1.260 . S
O281 In273 2.266 . S
O281 C278 1.252 . S
O282 In273 2.326 . S
O282 C278 1.260 . S
C283 O274 1.240 . S
C283 O275 1.252 . S
O284 In273 2.294 . S
O284 C277 1.240 . S
O285 In273 2.326 . S
O285 C277 1.252 . S
In286 O287 2.294 . S
In286 O288 2.326 . S
In286 O292 2.266 . S
In286 O293 2.326 . S
In286 O294 2.266 . S
In286 O295 2.326 . S
In286 O297 2.294 . S
In286 O298 2.326 . S
O287 In286 2.294 . S
O287 C296 1.240 . S
O288 In286 2.326 . S
O288 C296 1.252 . S
C289 O292 1.252 . S
C289 O293 1.260 . S
C290 O297 1.240 . S
C290 O298 1.252 . S
C291 O294 1.252 . S
C291 O295 1.260 . S
O292 In286 2.266 . S
O292 C289 1.252 . S
O293 In286 2.326 . S
O293 C289 1.260 . S
O294 In286 2.266 . S
O294 C291 1.252 . S
O295 In286 2.326 . S
O295 C291 1.260 . S
C296 O287 1.240 . S
C296 O288 1.252 . S
O297 In286 2.294 . S
O297 C290 1.240 . S
O298 In286 2.326 . S
O298 C290 1.252 . S
In299 O300 2.294 . S
In299 O301 2.326 . S
In299 O305 2.266 . S
In299 O306 2.326 . S
In299 O307 2.266 . S
In299 O308 2.326 . S
In299 O310 2.294 . S
In299 O311 2.326 . S
O300 In299 2.294 . S
O300 C309 1.240 . S
O301 In299 2.326 . S
O301 C309 1.252 . S
C302 O305 1.252 . S
C302 O306 1.260 . S
C303 O310 1.240 . S
C303 O311 1.252 . S
C304 O307 1.252 . S
C304 O308 1.260 . S
O305 In299 2.266 . S
O305 C302 1.252 . S
O306 In299 2.326 . S
O306 C302 1.260 . S
O307 In299 2.266 . S
O307 C304 1.252 . S
O308 In299 2.326 . S
O308 C304 1.260 . S
C309 O300 1.240 . S
C309 O301 1.252 . S
O310 In299 2.294 . S
O310 C303 1.240 . S
O311 In299 2.326 . S
O311 C303 1.252 . S
H312 C320 0.929 . S
H313 C322 0.930 . S
H314 C324 0.930 . S
H315 C327 0.929 . S
H316 C330 0.930 . S
H317 C332 0.960 . S
H318 C332 0.960 . S
H319 C332 0.960 . S
C320 H312 0.929 . S
C320 C321 1.377 . S
C320 C322 1.384 . S
C321 C320 1.377 . S
C321 C327 1.390 . S
C322 H313 0.930 . S
C322 C320 1.384 . S
C322 C323 1.372 . S
C323 C322 1.372 . S
C323 C324 1.400 . S
C323 C328 1.490 . S
C324 H314 0.930 . S
C324 C323 1.400 . S
C324 C327 1.386 . S
H325 C341 0.930 . S
H326 C342 0.931 . S
C327 H315 0.929 . S
C327 C321 1.390 . S
C327 C324 1.386 . S
C328 C323 1.490 . S
C328 C330 1.395 . S
C328 C331 1.403 . S
H329 C335 0.930 . S
C330 H316 0.930 . S
C330 C328 1.395 . S
C330 C333 1.403 . S
C331 C328 1.403 . S
C331 C332 1.524 . S
C331 C335 1.400 . S
C332 H317 0.960 . S
C332 H318 0.960 . S
C332 H319 0.960 . S
C332 C331 1.524 . S
C333 C330 1.403 . S
C333 C334 1.392 . S
C333 C337 1.495 . S
C334 C333 1.392 . S
C334 C335 1.385 . S
C334 C336 1.478 . S
C335 H329 0.930 . S
C335 C331 1.400 . S
C335 C334 1.385 . S
C336 C334 1.478 . S
C336 C338 1.381 . S
C336 C342 1.383 . S
C337 C333 1.495 . S
C337 H343 0.959 . S
C337 H344 0.961 . S
C337 H345 0.960 . S
C338 C336 1.381 . S
C338 C339 1.394 . S
C338 H346 0.930 . S
C339 C338 1.394 . S
C339 C340 1.383 . S
C339 H347 0.929 . S
C340 C339 1.383 . S
C340 C341 1.377 . S
C341 H325 0.930 . S
C341 C340 1.377 . S
C341 C342 1.379 . S
C342 H326 0.931 . S
C342 C336 1.383 . S
C342 C341 1.379 . S
H343 C337 0.959 . S
H344 C337 0.961 . S
H345 C337 0.960 . S
H346 C338 0.930 . S
H347 C339 0.929 . S
H348 C356 0.929 . S
H349 C358 0.930 . S
H350 C360 0.930 . S
H351 C363 0.929 . S
H352 C366 0.930 . S
H353 C368 0.960 . S
H354 C368 0.960 . S
H355 C368 0.960 . S
C356 H348 0.929 . S
C356 C357 1.377 . S
C356 C358 1.384 . S
C357 C356 1.377 . S
C357 C363 1.390 . S
C358 H349 0.930 . S
C358 C356 1.384 . S
C358 C359 1.372 . S
C359 C358 1.372 . S
C359 C360 1.400 . S
C359 C364 1.490 . S
C360 H350 0.930 . S
C360 C359 1.400 . S
C360 C363 1.386 . S
H361 C377 0.930 . S
H362 C378 0.931 . S
C363 H351 0.929 . S
C363 C357 1.390 . S
C363 C360 1.386 . S
C364 C359 1.490 . S
C364 C366 1.395 . S
C364 C367 1.403 . S
H365 C371 0.930 . S
C366 H352 0.930 . S
C366 C364 1.395 . S
C366 C369 1.403 . S
C367 C364 1.403 . S
C367 C368 1.524 . S
C367 C371 1.400 . S
C368 H353 0.960 . S
C368 H354 0.960 . S
C368 H355 0.960 . S
C368 C367 1.524 . S
C369 C366 1.403 . S
C369 C370 1.392 . S
C369 C373 1.495 . S
C370 C369 1.392 . S
C370 C371 1.385 . S
C370 C372 1.478 . S
C371 H365 0.930 . S
C371 C367 1.400 . S
C371 C370 1.385 . S
C372 C370 1.478 . S
C372 C374 1.381 . S
C372 C378 1.383 . S
C373 C369 1.495 . S
C373 H379 0.959 . S
C373 H380 0.961 . S
C373 H381 0.960 . S
C374 C372 1.381 . S
C374 C375 1.394 . S
C374 H382 0.930 . S
C375 C374 1.394 . S
C375 C376 1.383 . S
C375 H383 0.929 . S
C376 C375 1.383 . S
C376 C377 1.377 . S
C377 H361 0.930 . S
C377 C376 1.377 . S
C377 C378 1.379 . S
C378 H362 0.931 . S
C378 C372 1.383 . S
C378 C377 1.379 . S
H379 C373 0.959 . S
H380 C373 0.961 . S
H381 C373 0.960 . S
H382 C374 0.930 . S
H383 C375 0.929 . S
H384 C392 0.929 . S
H385 C394 0.930 . S
H386 C396 0.930 . S
H387 C399 0.929 . S
H388 C402 0.930 . S
H389 C404 0.960 . S
H390 C404 0.960 . S
H391 C404 0.960 . S
C392 H384 0.929 . S
C392 C393 1.377 . S
C392 C394 1.384 . S
C393 C392 1.377 . S
C393 C399 1.390 . S
C394 H385 0.930 . S
C394 C392 1.384 . S
C394 C395 1.372 . S
C395 C394 1.372 . S
C395 C396 1.400 . S
C395 C400 1.490 . S
C396 H386 0.930 . S
C396 C395 1.400 . S
C396 C399 1.386 . S
H397 C413 0.930 . S
H398 C414 0.931 . S
C399 H387 0.929 . S
C399 C393 1.390 . S
C399 C396 1.386 . S
C400 C395 1.490 . S
C400 C402 1.395 . S
C400 C403 1.403 . S
H401 C407 0.930 . S
C402 H388 0.930 . S
C402 C400 1.395 . S
C402 C405 1.403 . S
C403 C400 1.403 . S
C403 C404 1.524 . S
C403 C407 1.400 . S
C404 H389 0.960 . S
C404 H390 0.960 . S
C404 H391 0.960 . S
C404 C403 1.524 . S
C405 C402 1.403 . S
C405 C406 1.392 . S
C405 C409 1.495 . S
C406 C405 1.392 . S
C406 C407 1.385 . S
C406 C408 1.478 . S
C407 H401 0.930 . S
C407 C403 1.400 . S
C407 C406 1.385 . S
C408 C406 1.478 . S
C408 C410 1.381 . S
C408 C414 1.383 . S
C409 C405 1.495 . S
C409 H415 0.959 . S
C409 H416 0.961 . S
C409 H417 0.960 . S
C410 C408 1.381 . S
C410 C411 1.394 . S
C410 H418 0.930 . S
C411 C410 1.394 . S
C411 C412 1.383 . S
C411 H419 0.929 . S
C412 C411 1.383 . S
C412 C413 1.377 . S
C413 H397 0.930 . S
C413 C412 1.377 . S
C413 C414 1.379 . S
C414 H398 0.931 . S
C414 C408 1.383 . S
C414 C413 1.379 . S
H415 C409 0.959 . S
H416 C409 0.961 . S
H417 C409 0.960 . S
H418 C410 0.930 . S
H419 C411 0.929 . S
H420 C428 0.929 . S
H421 C430 0.930 . S
H422 C432 0.930 . S
H423 C435 0.929 . S
H424 C438 0.930 . S
H425 C440 0.960 . S
H426 C440 0.960 . S
H427 C440 0.960 . S
C428 H420 0.929 . S
C428 C429 1.377 . S
C428 C430 1.384 . S
C429 C428 1.377 . S
C429 C435 1.390 . S
C430 H421 0.930 . S
C430 C428 1.384 . S
C430 C431 1.372 . S
C431 C430 1.372 . S
C431 C432 1.400 . S
C431 C436 1.490 . S
C432 H422 0.930 . S
C432 C431 1.400 . S
C432 C435 1.386 . S
H433 C449 0.930 . S
H434 C450 0.931 . S
C435 H423 0.929 . S
C435 C429 1.390 . S
C435 C432 1.386 . S
C436 C431 1.490 . S
C436 C438 1.395 . S
C436 C439 1.403 . S
H437 C443 0.930 . S
C438 H424 0.930 . S
C438 C436 1.395 . S
C438 C441 1.403 . S
C439 C436 1.403 . S
C439 C440 1.524 . S
C439 C443 1.400 . S
C440 H425 0.960 . S
C440 H426 0.960 . S
C440 H427 0.960 . S
C440 C439 1.524 . S
C441 C438 1.403 . S
C441 C442 1.392 . S
C441 C445 1.495 . S
C442 C441 1.392 . S
C442 C443 1.385 . S
C442 C444 1.478 . S
C443 H437 0.930 . S
C443 C439 1.400 . S
C443 C442 1.385 . S
C444 C442 1.478 . S
C444 C446 1.381 . S
C444 C450 1.383 . S
C445 C441 1.495 . S
C445 H451 0.959 . S
C445 H452 0.961 . S
C445 H453 0.960 . S
C446 C444 1.381 . S
C446 C447 1.394 . S
C446 H454 0.930 . S
C447 C446 1.394 . S
C447 C448 1.383 . S
C447 H455 0.929 . S
C448 C447 1.383 . S
C448 C449 1.377 . S
C449 H433 0.930 . S
C449 C448 1.377 . S
C449 C450 1.379 . S
C450 H434 0.931 . S
C450 C444 1.383 . S
C450 C449 1.379 . S
H451 C445 0.959 . S
H452 C445 0.961 . S
H453 C445 0.960 . S
H454 C446 0.930 . S
H455 C447 0.929 . S
H456 C464 0.929 . S
H457 C466 0.930 . S
H458 C468 0.930 . S
H459 C471 0.929 . S
H460 C474 0.930 . S
H461 C476 0.960 . S
H462 C476 0.960 . S
H463 C476 0.960 . S
C464 H456 0.929 . S
C464 C465 1.377 . S
C464 C466 1.384 . S
C465 C464 1.377 . S
C465 C471 1.390 . S
C466 H457 0.930 . S
C466 C464 1.384 . S
C466 C467 1.372 . S
C467 C466 1.372 . S
C467 C468 1.400 . S
C467 C472 1.490 . S
C468 H458 0.930 . S
C468 C467 1.400 . S
C468 C471 1.386 . S
H469 C485 0.930 . S
H470 C486 0.931 . S
C471 H459 0.929 . S
C471 C465 1.390 . S
C471 C468 1.386 . S
C472 C467 1.490 . S
C472 C474 1.395 . S
C472 C475 1.403 . S
H473 C479 0.930 . S
C474 H460 0.930 . S
C474 C472 1.395 . S
C474 C477 1.403 . S
C475 C472 1.403 . S
C475 C476 1.524 . S
C475 C479 1.400 . S
C476 H461 0.960 . S
C476 H462 0.960 . S
C476 H463 0.960 . S
C476 C475 1.524 . S
C477 C474 1.403 . S
C477 C478 1.392 . S
C477 C481 1.495 . S
C478 C477 1.392 . S
C478 C479 1.385 . S
C478 C480 1.478 . S
C479 H473 0.930 . S
C479 C475 1.400 . S
C479 C478 1.385 . S
C480 C478 1.478 . S
C480 C482 1.381 . S
C480 C486 1.383 . S
C481 C477 1.495 . S
C481 H487 0.959 . S
C481 H488 0.961 . S
C481 H489 0.960 . S
C482 C480 1.381 . S
C482 C483 1.394 . S
C482 H490 0.930 . S
C483 C482 1.394 . S
C483 C484 1.383 . S
C483 H491 0.929 . S
C484 C483 1.383 . S
C484 C485 1.377 . S
C485 H469 0.930 . S
C485 C484 1.377 . S
C485 C486 1.379 . S
C486 H470 0.931 . S
C486 C480 1.383 . S
C486 C485 1.379 . S
H487 C481 0.959 . S
H488 C481 0.961 . S
H489 C481 0.960 . S
H490 C482 0.930 . S
H491 C483 0.929 . S
H492 C500 0.929 . S
H493 C502 0.930 . S
H494 C504 0.930 . S
H495 C507 0.929 . S
H496 C510 0.930 . S
H497 C512 0.960 . S
H498 C512 0.960 . S
H499 C512 0.960 . S
C500 H492 0.929 . S
C500 C501 1.377 . S
C500 C502 1.384 . S
C501 C500 1.377 . S
C501 C507 1.390 . S
C502 H493 0.930 . S
C502 C500 1.384 . S
C502 C503 1.372 . S
C503 C502 1.372 . S
C503 C504 1.400 . S
C503 C508 1.490 . S
C504 H494 0.930 . S
C504 C503 1.400 . S
C504 C507 1.386 . S
H505 C521 0.930 . S
H506 C522 0.931 . S
C507 H495 0.929 . S
C507 C501 1.390 . S
C507 C504 1.386 . S
C508 C503 1.490 . S
C508 C510 1.395 . S
C508 C511 1.403 . S
H509 C515 0.930 . S
C510 H496 0.930 . S
C510 C508 1.395 . S
C510 C513 1.403 . S
C511 C508 1.403 . S
C511 C512 1.524 . S
C511 C515 1.400 . S
C512 H497 0.960 . S
C512 H498 0.960 . S
C512 H499 0.960 . S
C512 C511 1.524 . S
C513 C510 1.403 . S
C513 C514 1.392 . S
C513 C517 1.495 . S
C514 C513 1.392 . S
C514 C515 1.385 . S
C514 C516 1.478 . S
C515 H509 0.930 . S
C515 C511 1.400 . S
C515 C514 1.385 . S
C516 C514 1.478 . S
C516 C518 1.381 . S
C516 C522 1.383 . S
C517 C513 1.495 . S
C517 H523 0.959 . S
C517 H524 0.961 . S
C517 H525 0.960 . S
C518 C516 1.381 . S
C518 C519 1.394 . S
C518 H526 0.930 . S
C519 C518 1.394 . S
C519 C520 1.383 . S
C519 H527 0.929 . S
C520 C519 1.383 . S
C520 C521 1.377 . S
C521 H505 0.930 . S
C521 C520 1.377 . S
C521 C522 1.379 . S
C522 H506 0.931 . S
C522 C516 1.383 . S
C522 C521 1.379 . S
H523 C517 0.959 . S
H524 C517 0.961 . S
H525 C517 0.960 . S
H526 C518 0.930 . S
H527 C519 0.929 . S
H528 C536 0.929 . S
H529 C538 0.930 . S
H530 C540 0.930 . S
H531 C543 0.929 . S
H532 C546 0.930 . S
H533 C548 0.960 . S
H534 C548 0.960 . S
H535 C548 0.960 . S
C536 H528 0.929 . S
C536 C537 1.377 . S
C536 C538 1.384 . S
C537 C536 1.377 . S
C537 C543 1.390 . S
C538 H529 0.930 . S
C538 C536 1.384 . S
C538 C539 1.372 . S
C539 C538 1.372 . S
C539 C540 1.400 . S
C539 C544 1.490 . S
C540 H530 0.930 . S
C540 C539 1.400 . S
C540 C543 1.386 . S
H541 C557 0.930 . S
H542 C558 0.931 . S
C543 H531 0.929 . S
C543 C537 1.390 . S
C543 C540 1.386 . S
C544 C539 1.490 . S
C544 C546 1.395 . S
C544 C547 1.403 . S
H545 C551 0.930 . S
C546 H532 0.930 . S
C546 C544 1.395 . S
C546 C549 1.403 . S
C547 C544 1.403 . S
C547 C548 1.524 . S
C547 C551 1.400 . S
C548 H533 0.960 . S
C548 H534 0.960 . S
C548 H535 0.960 . S
C548 C547 1.524 . S
C549 C546 1.403 . S
C549 C550 1.392 . S
C549 C553 1.495 . S
C550 C549 1.392 . S
C550 C551 1.385 . S
C550 C552 1.478 . S
C551 H545 0.930 . S
C551 C547 1.400 . S
C551 C550 1.385 . S
C552 C550 1.478 . S
C552 C554 1.381 . S
C552 C558 1.383 . S
C553 C549 1.495 . S
C553 H559 0.959 . S
C553 H560 0.961 . S
C553 H561 0.960 . S
C554 C552 1.381 . S
C554 C555 1.394 . S
C554 H562 0.930 . S
C555 C554 1.394 . S
C555 C556 1.383 . S
C555 H563 0.929 . S
C556 C555 1.383 . S
C556 C557 1.377 . S
C557 H541 0.930 . S
C557 C556 1.377 . S
C557 C558 1.379 . S
C558 H542 0.931 . S
C558 C552 1.383 . S
C558 C557 1.379 . S
H559 C553 0.959 . S
H560 C553 0.961 . S
H561 C553 0.960 . S
H562 C554 0.930 . S
H563 C555 0.929 . S
H564 C572 0.929 . S
H565 C574 0.930 . S
H566 C576 0.930 . S
H567 C579 0.929 . S
H568 C582 0.930 . S
H569 C584 0.960 . S
H570 C584 0.960 . S
H571 C584 0.960 . S
C572 H564 0.929 . S
C572 C573 1.377 . S
C572 C574 1.384 . S
C573 C572 1.377 . S
C573 C579 1.390 . S
C574 H565 0.930 . S
C574 C572 1.384 . S
C574 C575 1.372 . S
C575 C574 1.372 . S
C575 C576 1.400 . S
C575 C580 1.490 . S
C576 H566 0.930 . S
C576 C575 1.400 . S
C576 C579 1.386 . S
H577 C593 0.930 . S
H578 C594 0.931 . S
C579 H567 0.929 . S
C579 C573 1.390 . S
C579 C576 1.386 . S
C580 C575 1.490 . S
C580 C582 1.395 . S
C580 C583 1.403 . S
H581 C587 0.930 . S
C582 H568 0.930 . S
C582 C580 1.395 . S
C582 C585 1.403 . S
C583 C580 1.403 . S
C583 C584 1.524 . S
C583 C587 1.400 . S
C584 H569 0.960 . S
C584 H570 0.960 . S
C584 H571 0.960 . S
C584 C583 1.524 . S
C585 C582 1.403 . S
C585 C586 1.392 . S
C585 C589 1.495 . S
C586 C585 1.392 . S
C586 C587 1.385 . S
C586 C588 1.478 . S
C587 H581 0.930 . S
C587 C583 1.400 . S
C587 C586 1.385 . S
C588 C586 1.478 . S
C588 C590 1.381 . S
C588 C594 1.383 . S
C589 C585 1.495 . S
C589 H595 0.959 . S
C589 H596 0.961 . S
C589 H597 0.960 . S
C590 C588 1.381 . S
C590 C591 1.394 . S
C590 H598 0.930 . S
C591 C590 1.394 . S
C591 C592 1.383 . S
C591 H599 0.929 . S
C592 C591 1.383 . S
C592 C593 1.377 . S
C593 H577 0.930 . S
C593 C592 1.377 . S
C593 C594 1.379 . S
C594 H578 0.931 . S
C594 C588 1.383 . S
C594 C593 1.379 . S
H595 C589 0.959 . S
H596 C589 0.961 . S
H597 C589 0.960 . S
H598 C590 0.930 . S
H599 C591 0.929 . S
H600 C608 0.929 . S
H601 C610 0.930 . S
H602 C612 0.930 . S
H603 C615 0.929 . S
H604 C618 0.930 . S
H605 C620 0.960 . S
H606 C620 0.960 . S
H607 C620 0.960 . S
C608 H600 0.929 . S
C608 C609 1.377 . S
C608 C610 1.384 . S
C609 C608 1.377 . S
C609 C615 1.390 . S
C610 H601 0.930 . S
C610 C608 1.384 . S
C610 C611 1.372 . S
C611 C610 1.372 . S
C611 C612 1.400 . S
C611 C616 1.490 . S
C612 H602 0.930 . S
C612 C611 1.400 . S
C612 C615 1.386 . S
H613 C629 0.930 . S
H614 C630 0.931 . S
C615 H603 0.929 . S
C615 C609 1.390 . S
C615 C612 1.386 . S
C616 C611 1.490 . S
C616 C618 1.395 . S
C616 C619 1.403 . S
H617 C623 0.930 . S
C618 H604 0.930 . S
C618 C616 1.395 . S
C618 C621 1.403 . S
C619 C616 1.403 . S
C619 C620 1.524 . S
C619 C623 1.400 . S
C620 H605 0.960 . S
C620 H606 0.960 . S
C620 H607 0.960 . S
C620 C619 1.524 . S
C621 C618 1.403 . S
C621 C622 1.392 . S
C621 C625 1.495 . S
C622 C621 1.392 . S
C622 C623 1.385 . S
C622 C624 1.478 . S
C623 H617 0.930 . S
C623 C619 1.400 . S
C623 C622 1.385 . S
C624 C622 1.478 . S
C624 C626 1.381 . S
C624 C630 1.383 . S
C625 C621 1.495 . S
C625 H631 0.959 . S
C625 H632 0.961 . S
C625 H633 0.960 . S
C626 C624 1.381 . S
C626 C627 1.394 . S
C626 H634 0.930 . S
C627 C626 1.394 . S
C627 C628 1.383 . S
C627 H635 0.929 . S
C628 C627 1.383 . S
C628 C629 1.377 . S
C629 H613 0.930 . S
C629 C628 1.377 . S
C629 C630 1.379 . S
C630 H614 0.931 . S
C630 C624 1.383 . S
C630 C629 1.379 . S
H631 C625 0.959 . S
H632 C625 0.961 . S
H633 C625 0.960 . S
H634 C626 0.930 . S
H635 C627 0.929 . S
H636 C644 0.929 . S
H637 C646 0.930 . S
H638 C648 0.930 . S
H639 C651 0.929 . S
H640 C654 0.930 . S
H641 C656 0.960 . S
H642 C656 0.960 . S
H643 C656 0.960 . S
C644 H636 0.929 . S
C644 C645 1.377 . S
C644 C646 1.384 . S
C645 C644 1.377 . S
C645 C651 1.390 . S
C646 H637 0.930 . S
C646 C644 1.384 . S
C646 C647 1.372 . S
C647 C646 1.372 . S
C647 C648 1.400 . S
C647 C652 1.490 . S
C648 H638 0.930 . S
C648 C647 1.400 . S
C648 C651 1.386 . S
H649 C665 0.930 . S
H650 C666 0.931 . S
C651 H639 0.929 . S
C651 C645 1.390 . S
C651 C648 1.386 . S
C652 C647 1.490 . S
C652 C654 1.395 . S
C652 C655 1.403 . S
H653 C659 0.930 . S
C654 H640 0.930 . S
C654 C652 1.395 . S
C654 C657 1.403 . S
C655 C652 1.403 . S
C655 C656 1.524 . S
C655 C659 1.400 . S
C656 H641 0.960 . S
C656 H642 0.960 . S
C656 H643 0.960 . S
C656 C655 1.524 . S
C657 C654 1.403 . S
C657 C658 1.392 . S
C657 C661 1.495 . S
C658 C657 1.392 . S
C658 C659 1.385 . S
C658 C660 1.478 . S
C659 H653 0.930 . S
C659 C655 1.400 . S
C659 C658 1.385 . S
C660 C658 1.478 . S
C660 C662 1.381 . S
C660 C666 1.383 . S
C661 C657 1.495 . S
C661 H667 0.959 . S
C661 H668 0.961 . S
C661 H669 0.960 . S
C662 C660 1.381 . S
C662 C663 1.394 . S
C662 H670 0.930 . S
C663 C662 1.394 . S
C663 C664 1.383 . S
C663 H671 0.929 . S
C664 C663 1.383 . S
C664 C665 1.377 . S
C665 H649 0.930 . S
C665 C664 1.377 . S
C665 C666 1.379 . S
C666 H650 0.931 . S
C666 C660 1.383 . S
C666 C665 1.379 . S
H667 C661 0.959 . S
H668 C661 0.961 . S
H669 C661 0.960 . S
H670 C662 0.930 . S
H671 C663 0.929 . S
H672 C680 0.929 . S
H673 C682 0.930 . S
H674 C684 0.930 . S
H675 C687 0.929 . S
H676 C690 0.930 . S
H677 C692 0.960 . S
H678 C692 0.960 . S
H679 C692 0.960 . S
C680 H672 0.929 . S
C680 C681 1.377 . S
C680 C682 1.384 . S
C681 C680 1.377 . S
C681 C687 1.390 . S
C682 H673 0.930 . S
C682 C680 1.384 . S
C682 C683 1.372 . S
C683 C682 1.372 . S
C683 C684 1.400 . S
C683 C688 1.490 . S
C684 H674 0.930 . S
C684 C683 1.400 . S
C684 C687 1.386 . S
H685 C701 0.930 . S
H686 C702 0.931 . S
C687 H675 0.929 . S
C687 C681 1.390 . S
C687 C684 1.386 . S
C688 C683 1.490 . S
C688 C690 1.395 . S
C688 C691 1.403 . S
H689 C695 0.930 . S
C690 H676 0.930 . S
C690 C688 1.395 . S
C690 C693 1.403 . S
C691 C688 1.403 . S
C691 C692 1.524 . S
C691 C695 1.400 . S
C692 H677 0.960 . S
C692 H678 0.960 . S
C692 H679 0.960 . S
C692 C691 1.524 . S
C693 C690 1.403 . S
C693 C694 1.392 . S
C693 C697 1.495 . S
C694 C693 1.392 . S
C694 C695 1.385 . S
C694 C696 1.478 . S
C695 H689 0.930 . S
C695 C691 1.400 . S
C695 C694 1.385 . S
C696 C694 1.478 . S
C696 C698 1.381 . S
C696 C702 1.383 . S
C697 C693 1.495 . S
C697 H703 0.959 . S
C697 H704 0.961 . S
C697 H705 0.960 . S
C698 C696 1.381 . S
C698 C699 1.394 . S
C698 H706 0.930 . S
C699 C698 1.394 . S
C699 C700 1.383 . S
C699 H707 0.929 . S
C700 C699 1.383 . S
C700 C701 1.377 . S
C701 H685 0.930 . S
C701 C700 1.377 . S
C701 C702 1.379 . S
C702 H686 0.931 . S
C702 C696 1.383 . S
C702 C701 1.379 . S
H703 C697 0.959 . S
H704 C697 0.961 . S
H705 C697 0.960 . S
H706 C698 0.930 . S
H707 C699 0.929 . S
H708 C716 0.929 . S
H709 C718 0.930 . S
H710 C720 0.930 . S
H711 C723 0.929 . S
H712 C726 0.930 . S
H713 C728 0.960 . S
H714 C728 0.960 . S
H715 C728 0.960 . S
C716 H708 0.929 . S
C716 C717 1.377 . S
C716 C718 1.384 . S
C717 C716 1.377 . S
C717 C723 1.390 . S
C718 H709 0.930 . S
C718 C716 1.384 . S
C718 C719 1.372 . S
C719 C718 1.372 . S
C719 C720 1.400 . S
C719 C724 1.490 . S
C720 H710 0.930 . S
C720 C719 1.400 . S
C720 C723 1.386 . S
H721 C737 0.930 . S
H722 C738 0.931 . S
C723 H711 0.929 . S
C723 C717 1.390 . S
C723 C720 1.386 . S
C724 C719 1.490 . S
C724 C726 1.395 . S
C724 C727 1.403 . S
H725 C731 0.930 . S
C726 H712 0.930 . S
C726 C724 1.395 . S
C726 C729 1.403 . S
C727 C724 1.403 . S
C727 C728 1.524 . S
C727 C731 1.400 . S
C728 H713 0.960 . S
C728 H714 0.960 . S
C728 H715 0.960 . S
C728 C727 1.524 . S
C729 C726 1.403 . S
C729 C730 1.392 . S
C729 C733 1.495 . S
C730 C729 1.392 . S
C730 C731 1.385 . S
C730 C732 1.478 . S
C731 H725 0.930 . S
C731 C727 1.400 . S
C731 C730 1.385 . S
C732 C730 1.478 . S
C732 C734 1.381 . S
C732 C738 1.383 . S
C733 C729 1.495 . S
C733 H739 0.959 . S
C733 H740 0.961 . S
C733 H741 0.960 . S
C734 C732 1.381 . S
C734 C735 1.394 . S
C734 H742 0.930 . S
C735 C734 1.394 . S
C735 C736 1.383 . S
C735 H743 0.929 . S
C736 C735 1.383 . S
C736 C737 1.377 . S
C737 H721 0.930 . S
C737 C736 1.377 . S
C737 C738 1.379 . S
C738 H722 0.931 . S
C738 C732 1.383 . S
C738 C737 1.379 . S
H739 C733 0.959 . S
H740 C733 0.961 . S
H741 C733 0.960 . S
H742 C734 0.930 . S
H743 C735 0.929 . S
H744 C752 0.929 . S
H745 C754 0.930 . S
H746 C756 0.930 . S
H747 C759 0.929 . S
H748 C762 0.930 . S
H749 C764 0.960 . S
H750 C764 0.960 . S
H751 C764 0.960 . S
C752 H744 0.929 . S
C752 C753 1.377 . S
C752 C754 1.384 . S
C753 C752 1.377 . S
C753 C759 1.390 . S
C754 H745 0.930 . S
C754 C752 1.384 . S
C754 C755 1.372 . S
C755 C754 1.372 . S
C755 C756 1.400 . S
C755 C760 1.490 . S
C756 H746 0.930 . S
C756 C755 1.400 . S
C756 C759 1.386 . S
H757 C773 0.930 . S
H758 C774 0.931 . S
C759 H747 0.929 . S
C759 C753 1.390 . S
C759 C756 1.386 . S
C760 C755 1.490 . S
C760 C762 1.395 . S
C760 C763 1.403 1_556 S
H761 C767 0.930 . S
C762 H748 0.930 . S
C762 C760 1.395 . S
C762 C765 1.403 . S
C763 C760 1.403 1_554 S
C763 C764 1.524 . S
C763 C767 1.400 . S
C764 H749 0.960 . S
C764 H750 0.960 . S
C764 H751 0.960 . S
C764 C763 1.524 . S
C765 C762 1.403 . S
C765 C766 1.392 1_556 S
C765 C769 1.495 . S
C766 C765 1.392 1_554 S
C766 C767 1.385 . S
C766 C768 1.478 . S
C767 H761 0.930 . S
C767 C763 1.400 . S
C767 C766 1.385 . S
C768 C766 1.478 . S
C768 C770 1.381 . S
C768 C774 1.383 . S
C769 C765 1.495 . S
C769 H775 0.959 . S
C769 H776 0.961 . S
C769 H777 0.960 . S
C770 C768 1.381 . S
C770 C771 1.394 . S
C770 H778 0.930 . S
C771 C770 1.394 . S
C771 C772 1.383 . S
C771 H779 0.929 . S
C772 C771 1.383 . S
C772 C773 1.377 . S
C773 H757 0.930 . S
C773 C772 1.377 . S
C773 C774 1.379 . S
C774 H758 0.931 . S
C774 C768 1.383 . S
C774 C773 1.379 . S
H775 C769 0.959 . S
H776 C769 0.961 . S
H777 C769 0.960 . S
H778 C770 0.930 . S
H779 C771 0.929 . S
H780 C788 0.929 . S
H781 C790 0.930 . S
H782 C792 0.930 . S
H783 C795 0.929 . S
H784 C798 0.930 . S
H785 C800 0.960 . S
H786 C800 0.960 . S
H787 C800 0.960 . S
C788 H780 0.929 . S
C788 C789 1.377 . S
C788 C790 1.384 . S
C789 C788 1.377 . S
C789 C795 1.390 . S
C790 H781 0.930 . S
C790 C788 1.384 . S
C790 C791 1.372 . S
C791 C790 1.372 . S
C791 C792 1.400 . S
C791 C796 1.490 . S
C792 H782 0.930 . S
C792 C791 1.400 . S
C792 C795 1.386 . S
H793 C809 0.930 . S
H794 C810 0.931 . S
C795 H783 0.929 . S
C795 C789 1.390 . S
C795 C792 1.386 . S
C796 C791 1.490 . S
C796 C798 1.395 . S
C796 C799 1.403 . S
H797 C803 0.930 . S
C798 H784 0.930 . S
C798 C796 1.395 . S
C798 C801 1.403 . S
C799 C796 1.403 . S
C799 C800 1.524 . S
C799 C803 1.400 . S
C800 H785 0.960 . S
C800 H786 0.960 . S
C800 H787 0.960 . S
C800 C799 1.524 . S
C801 C798 1.403 . S
C801 C802 1.392 . S
C801 C805 1.495 . S
C802 C801 1.392 . S
C802 C803 1.385 . S
C802 C804 1.478 . S
C803 H797 0.930 . S
C803 C799 1.400 . S
C803 C802 1.385 . S
C804 C802 1.478 . S
C804 C806 1.381 . S
C804 C810 1.383 . S
C805 C801 1.495 . S
C805 H811 0.959 . S
C805 H812 0.961 . S
C805 H813 0.960 . S
C806 C804 1.381 . S
C806 C807 1.394 . S
C806 H814 0.930 . S
C807 C806 1.394 . S
C807 C808 1.383 . S
C807 H815 0.929 . S
C808 C807 1.383 . S
C808 C809 1.377 . S
C809 H793 0.930 . S
C809 C808 1.377 . S
C809 C810 1.379 . S
C810 H794 0.931 . S
C810 C804 1.383 . S
C810 C809 1.379 . S
H811 C805 0.959 . S
H812 C805 0.961 . S
H813 C805 0.960 . S
H814 C806 0.930 . S
H815 C807 0.929 . S
H816 C824 0.929 . S
H817 C826 0.930 . S
H818 C828 0.930 . S
H819 C831 0.929 . S
H820 C834 0.930 . S
H821 C836 0.960 . S
H822 C836 0.960 . S
H823 C836 0.960 . S
C824 H816 0.929 . S
C824 C825 1.377 . S
C824 C826 1.384 . S
C825 C824 1.377 . S
C825 C831 1.390 . S
C826 H817 0.930 . S
C826 C824 1.384 . S
C826 C827 1.372 . S
C827 C826 1.372 . S
C827 C828 1.400 . S
C827 C832 1.490 . S
C828 H818 0.930 . S
C828 C827 1.400 . S
C828 C831 1.386 . S
H829 C845 0.930 . S
H830 C846 0.931 . S
C831 H819 0.929 . S
C831 C825 1.390 . S
C831 C828 1.386 . S
C832 C827 1.490 . S
C832 C834 1.395 . S
C832 C835 1.403 1_554 S
H833 C839 0.930 . S
C834 H820 0.930 . S
C834 C832 1.395 . S
C834 C837 1.403 . S
C835 C832 1.403 1_556 S
C835 C836 1.524 . S
C835 C839 1.400 . S
C836 H821 0.960 . S
C836 H822 0.960 . S
C836 H823 0.960 . S
C836 C835 1.524 . S
C837 C834 1.403 . S
C837 C838 1.392 1_554 S
C837 C841 1.495 . S
C838 C837 1.392 1_556 S
C838 C839 1.385 . S
C838 C840 1.478 . S
C839 H833 0.930 . S
C839 C835 1.400 . S
C839 C838 1.385 . S
C840 C838 1.478 . S
C840 C842 1.381 . S
C840 C846 1.383 . S
C841 C837 1.495 . S
C841 H847 0.959 . S
C841 H848 0.961 . S
C841 H849 0.960 . S
C842 C840 1.381 . S
C842 C843 1.394 . S
C842 H850 0.930 . S
C843 C842 1.394 . S
C843 C844 1.383 . S
C843 H851 0.929 . S
C844 C843 1.383 . S
C844 C845 1.377 . S
C845 H829 0.930 . S
C845 C844 1.377 . S
C845 C846 1.379 . S
C846 H830 0.931 . S
C846 C840 1.383 . S
C846 C845 1.379 . S
H847 C841 0.959 . S
H848 C841 0.961 . S
H849 C841 0.960 . S
H850 C842 0.930 . S
H851 C843 0.929 . S
H852 C860 0.929 . S
H853 C862 0.930 . S
H854 C864 0.930 . S
H855 C867 0.929 . S
H856 C870 0.930 . S
H857 C872 0.960 . S
H858 C872 0.960 . S
H859 C872 0.960 . S
C860 H852 0.929 . S
C860 C861 1.377 . S
C860 C862 1.384 . S
C861 C860 1.377 . S
C861 C867 1.390 . S
C862 H853 0.930 . S
C862 C860 1.384 . S
C862 C863 1.372 . S
C863 C862 1.372 . S
C863 C864 1.400 . S
C863 C868 1.490 . S
C864 H854 0.930 . S
C864 C863 1.400 . S
C864 C867 1.386 . S
H865 C881 0.930 . S
H866 C882 0.931 . S
C867 H855 0.929 . S
C867 C861 1.390 . S
C867 C864 1.386 . S
C868 C863 1.490 . S
C868 C870 1.395 . S
C868 C871 1.403 . S
H869 C875 0.930 . S
C870 H856 0.930 . S
C870 C868 1.395 . S
C870 C873 1.403 . S
C871 C868 1.403 . S
C871 C872 1.524 . S
C871 C875 1.400 . S
C872 H857 0.960 . S
C872 H858 0.960 . S
C872 H859 0.960 . S
C872 C871 1.524 . S
C873 C870 1.403 . S
C873 C874 1.392 . S
C873 C877 1.495 . S
C874 C873 1.392 . S
C874 C875 1.385 . S
C874 C876 1.478 . S
C875 H869 0.930 . S
C875 C871 1.400 . S
C875 C874 1.385 . S
C876 C874 1.478 . S
C876 C878 1.381 . S
C876 C882 1.383 . S
C877 C873 1.495 . S
C877 H883 0.959 . S
C877 H884 0.961 . S
C877 H885 0.960 . S
C878 C876 1.381 . S
C878 C879 1.394 . S
C878 H886 0.930 . S
C879 C878 1.394 . S
C879 C880 1.383 . S
C879 H887 0.929 . S
C880 C879 1.383 . S
C880 C881 1.377 . S
C881 H865 0.930 . S
C881 C880 1.377 . S
C881 C882 1.379 . S
C882 H866 0.931 . S
C882 C876 1.383 . S
C882 C881 1.379 . S
H883 C877 0.959 . S
H884 C877 0.961 . S
H885 C877 0.960 . S
H886 C878 0.930 . S
H887 C879 0.929 . S
H888 C896 0.929 . S
H889 C898 0.930 . S
H890 C900 0.930 . S
H891 C903 0.929 . S
H892 C906 0.930 . S
H893 C908 0.960 . S
H894 C908 0.960 . S
H895 C908 0.960 . S
C896 H888 0.929 . S
C896 C897 1.377 . S
C896 C898 1.384 . S
C897 C896 1.377 . S
C897 C903 1.390 . S
C898 H889 0.930 . S
C898 C896 1.384 . S
C898 C899 1.372 . S
C899 C898 1.372 . S
C899 C900 1.400 . S
C899 C904 1.490 . S
C900 H890 0.930 . S
C900 C899 1.400 . S
C900 C903 1.386 . S
H901 C917 0.930 . S
H902 C918 0.931 . S
C903 H891 0.929 . S
C903 C897 1.390 . S
C903 C900 1.386 . S
C904 C899 1.490 . S
C904 C906 1.395 . S
C904 C907 1.403 1_556 S
H905 C911 0.930 . S
C906 H892 0.930 . S
C906 C904 1.395 . S
C906 C909 1.403 . S
C907 C904 1.403 1_554 S
C907 C908 1.524 . S
C907 C911 1.400 . S
C908 H893 0.960 . S
C908 H894 0.960 . S
C908 H895 0.960 . S
C908 C907 1.524 . S
C909 C906 1.403 . S
C909 C910 1.392 1_556 S
C909 C913 1.495 . S
C910 C909 1.392 1_554 S
C910 C911 1.385 . S
C910 C912 1.478 . S
C911 H905 0.930 . S
C911 C907 1.400 . S
C911 C910 1.385 . S
C912 C910 1.478 . S
C912 C914 1.381 . S
C912 C918 1.383 . S
C913 C909 1.495 . S
C913 H919 0.959 . S
C913 H920 0.961 . S
C913 H921 0.960 . S
C914 C912 1.381 . S
C914 C915 1.394 . S
C914 H922 0.930 . S
C915 C914 1.394 . S
C915 C916 1.383 . S
C915 H923 0.929 . S
C916 C915 1.383 . S
C916 C917 1.377 . S
C917 H901 0.930 . S
C917 C916 1.377 . S
C917 C918 1.379 . S
C918 H902 0.931 . S
C918 C912 1.383 . S
C918 C917 1.379 . S
H919 C913 0.959 . S
H920 C913 0.961 . S
H921 C913 0.960 . S
H922 C914 0.930 . S
H923 C915 0.929 . S
H924 C932 0.929 . S
H925 C934 0.930 . S
H926 C936 0.930 . S
H927 C939 0.929 . S
H928 C942 0.930 . S
H929 C944 0.960 . S
H930 C944 0.960 . S
H931 C944 0.960 . S
C932 H924 0.929 . S
C932 C933 1.377 . S
C932 C934 1.384 . S
C933 C932 1.377 . S
C933 C939 1.390 . S
C934 H925 0.930 . S
C934 C932 1.384 . S
C934 C935 1.372 . S
C935 C934 1.372 . S
C935 C936 1.400 . S
C935 C940 1.490 . S
C936 H926 0.930 . S
C936 C935 1.400 . S
C936 C939 1.386 . S
H937 C953 0.930 . S
H938 C954 0.931 . S
C939 H927 0.929 . S
C939 C933 1.390 . S
C939 C936 1.386 . S
C940 C935 1.490 . S
C940 C942 1.395 . S
C940 C943 1.403 . S
H941 C947 0.930 . S
C942 H928 0.930 . S
C942 C940 1.395 . S
C942 C945 1.403 . S
C943 C940 1.403 . S
C943 C944 1.524 . S
C943 C947 1.400 . S
C944 H929 0.960 . S
C944 H930 0.960 . S
C944 H931 0.960 . S
C944 C943 1.524 . S
C945 C942 1.403 . S
C945 C946 1.392 . S
C945 C949 1.495 . S
C946 C945 1.392 . S
C946 C947 1.385 . S
C946 C948 1.478 . S
C947 H941 0.930 . S
C947 C943 1.400 . S
C947 C946 1.385 . S
C948 C946 1.478 . S
C948 C950 1.381 . S
C948 C954 1.383 . S
C949 C945 1.495 . S
C949 H955 0.959 . S
C949 H956 0.961 . S
C949 H957 0.960 . S
C950 C948 1.381 . S
C950 C951 1.394 . S
C950 H958 0.930 . S
C951 C950 1.394 . S
C951 C952 1.383 . S
C951 H959 0.929 . S
C952 C951 1.383 . S
C952 C953 1.377 . S
C953 H937 0.930 . S
C953 C952 1.377 . S
C953 C954 1.379 . S
C954 H938 0.931 . S
C954 C948 1.383 . S
C954 C953 1.379 . S
H955 C949 0.959 . S
H956 C949 0.961 . S
H957 C949 0.960 . S
H958 C950 0.930 . S
H959 C951 0.929 . S
H960 C968 0.929 . S
H961 C970 0.930 . S
H962 C972 0.930 . S
H963 C975 0.929 . S
H964 C978 0.930 . S
H965 C980 0.960 . S
H966 C980 0.960 . S
H967 C980 0.960 . S
C968 H960 0.929 . S
C968 C969 1.377 . S
C968 C970 1.384 . S
C969 C968 1.377 . S
C969 C975 1.390 . S
C970 H961 0.930 . S
C970 C968 1.384 . S
C970 C971 1.372 . S
C971 C970 1.372 . S
C971 C972 1.400 . S
C971 C976 1.490 . S
C972 H962 0.930 . S
C972 C971 1.400 . S
C972 C975 1.386 . S
H973 C989 0.930 . S
H974 C990 0.931 . S
C975 H963 0.929 . S
C975 C969 1.390 . S
C975 C972 1.386 . S
C976 C971 1.490 . S
C976 C978 1.395 . S
C976 C979 1.403 1_554 S
H977 C983 0.930 . S
C978 H964 0.930 . S
C978 C976 1.395 . S
C978 C981 1.403 . S
C979 C976 1.403 1_556 S
C979 C980 1.524 . S
C979 C983 1.400 . S
C980 H965 0.960 . S
C980 H966 0.960 . S
C980 H967 0.960 . S
C980 C979 1.524 . S
C981 C978 1.403 . S
C981 C982 1.392 1_554 S
C981 C985 1.495 . S
C982 C981 1.392 1_556 S
C982 C983 1.385 . S
C982 C984 1.478 . S
C983 H977 0.930 . S
C983 C979 1.400 . S
C983 C982 1.385 . S
C984 C982 1.478 . S
C984 C986 1.381 . S
C984 C990 1.383 . S
C985 C981 1.495 . S
C985 H991 0.959 . S
C985 H992 0.961 . S
C985 H993 0.960 . S
C986 C984 1.381 . S
C986 C987 1.394 . S
C986 H994 0.930 . S
C987 C986 1.394 . S
C987 C988 1.383 . S
C987 H995 0.929 . S
C988 C987 1.383 . S
C988 C989 1.377 . S
C989 H973 0.930 . S
C989 C988 1.377 . S
C989 C990 1.379 . S
C990 H974 0.931 . S
C990 C984 1.383 . S
C990 C989 1.379 . S
H991 C985 0.959 . S
H992 C985 0.961 . S
H993 C985 0.960 . S
H994 C986 0.930 . S
H995 C987 0.929 . S
H996 C1004 0.929 . S
H997 C1006 0.930 . S
H998 C1008 0.930 . S
H999 C1011 0.929 . S
H1000 C1014 0.930 . S
H1001 C1016 0.960 . S
H1002 C1016 0.960 . S
H1003 C1016 0.960 . S
C1004 H996 0.929 . S
C1004 C1005 1.377 . S
C1004 C1006 1.384 . S
C1005 C1004 1.377 . S
C1005 C1011 1.390 . S
C1006 H997 0.930 . S
C1006 C1004 1.384 . S
C1006 C1007 1.372 . S
C1007 C1006 1.372 . S
C1007 C1008 1.400 . S
C1007 C1012 1.490 . S
C1008 H998 0.930 . S
C1008 C1007 1.400 . S
C1008 C1011 1.386 . S
H1009 C1025 0.930 . S
H1010 C1026 0.931 . S
C1011 H999 0.929 . S
C1011 C1005 1.390 . S
C1011 C1008 1.386 . S
C1012 C1007 1.490 . S
C1012 C1014 1.395 . S
C1012 C1015 1.403 . S
H1013 C1019 0.930 . S
C1014 H1000 0.930 . S
C1014 C1012 1.395 . S
C1014 C1017 1.403 . S
C1015 C1012 1.403 . S
C1015 C1016 1.524 . S
C1015 C1019 1.400 . S
C1016 H1001 0.960 . S
C1016 H1002 0.960 . S
C1016 H1003 0.960 . S
C1016 C1015 1.524 . S
C1017 C1014 1.403 . S
C1017 C1018 1.392 . S
C1017 C1021 1.495 . S
C1018 C1017 1.392 . S
C1018 C1019 1.385 . S
C1018 C1020 1.478 . S
C1019 H1013 0.930 . S
C1019 C1015 1.400 . S
C1019 C1018 1.385 . S
C1020 C1018 1.478 . S
C1020 C1022 1.381 . S
C1020 C1026 1.383 . S
C1021 C1017 1.495 . S
C1021 H1027 0.959 . S
C1021 H1028 0.961 . S
C1021 H1029 0.960 . S
C1022 C1020 1.381 . S
C1022 C1023 1.394 . S
C1022 H1030 0.930 . S
C1023 C1022 1.394 . S
C1023 C1024 1.383 . S
C1023 H1031 0.929 . S
C1024 C1023 1.383 . S
C1024 C1025 1.377 . S
C1025 H1009 0.930 . S
C1025 C1024 1.377 . S
C1025 C1026 1.379 . S
C1026 H1010 0.931 . S
C1026 C1020 1.383 . S
C1026 C1025 1.379 . S
H1027 C1021 0.959 . S
H1028 C1021 0.961 . S
H1029 C1021 0.960 . S
H1030 C1022 0.930 . S
H1031 C1023 0.929 . S
H1032 C1040 0.929 . S
H1033 C1042 0.930 . S
H1034 C1044 0.930 . S
H1035 C1047 0.929 . S
H1036 C1050 0.930 . S
H1037 C1052 0.960 . S
H1038 C1052 0.960 . S
H1039 C1052 0.960 . S
C1040 H1032 0.929 . S
C1040 C1041 1.377 . S
C1040 C1042 1.384 . S
C1041 C1040 1.377 . S
C1041 C1047 1.390 . S
C1042 H1033 0.930 . S
C1042 C1040 1.384 . S
C1042 C1043 1.372 . S
C1043 C1042 1.372 . S
C1043 C1044 1.400 . S
C1043 C1048 1.490 . S
C1044 H1034 0.930 . S
C1044 C1043 1.400 . S
C1044 C1047 1.386 . S
H1045 C1061 0.930 . S
H1046 C1062 0.931 . S
C1047 H1035 0.929 . S
C1047 C1041 1.390 . S
C1047 C1044 1.386 . S
C1048 C1043 1.490 . S
C1048 C1050 1.395 . S
C1048 C1051 1.403 1_556 S
H1049 C1055 0.930 . S
C1050 H1036 0.930 . S
C1050 C1048 1.395 . S
C1050 C1053 1.403 . S
C1051 C1048 1.403 1_554 S
C1051 C1052 1.524 . S
C1051 C1055 1.400 . S
C1052 H1037 0.960 . S
C1052 H1038 0.960 . S
C1052 H1039 0.960 . S
C1052 C1051 1.524 . S
C1053 C1050 1.403 . S
C1053 C1054 1.392 1_556 S
C1053 C1057 1.495 . S
C1054 C1053 1.392 1_554 S
C1054 C1055 1.385 . S
C1054 C1056 1.478 . S
C1055 H1049 0.930 . S
C1055 C1051 1.400 . S
C1055 C1054 1.385 . S
C1056 C1054 1.478 . S
C1056 C1058 1.381 . S
C1056 C1062 1.383 . S
C1057 C1053 1.495 . S
C1057 H1063 0.959 . S
C1057 H1064 0.961 . S
C1057 H1065 0.960 . S
C1058 C1056 1.381 . S
C1058 C1059 1.394 . S
C1058 H1066 0.930 . S
C1059 C1058 1.394 . S
C1059 C1060 1.383 . S
C1059 H1067 0.929 . S
C1060 C1059 1.383 . S
C1060 C1061 1.377 . S
C1061 H1045 0.930 . S
C1061 C1060 1.377 . S
C1061 C1062 1.379 . S
C1062 H1046 0.931 . S
C1062 C1056 1.383 . S
C1062 C1061 1.379 . S
H1063 C1057 0.959 . S
H1064 C1057 0.961 . S
H1065 C1057 0.960 . S
H1066 C1058 0.930 . S
H1067 C1059 0.929 . S
H1068 C1076 0.929 . S
H1069 C1078 0.930 . S
H1070 C1080 0.930 . S
H1071 C1083 0.929 . S
H1072 C1086 0.930 . S
H1073 C1088 0.960 . S
H1074 C1088 0.960 . S
H1075 C1088 0.960 . S
C1076 H1068 0.929 . S
C1076 C1077 1.377 . S
C1076 C1078 1.384 . S
C1077 C1076 1.377 . S
C1077 C1083 1.390 . S
C1078 H1069 0.930 . S
C1078 C1076 1.384 . S
C1078 C1079 1.372 . S
C1079 C1078 1.372 . S
C1079 C1080 1.400 . S
C1079 C1084 1.490 . S
C1080 H1070 0.930 . S
C1080 C1079 1.400 . S
C1080 C1083 1.386 . S
H1081 C1097 0.930 . S
H1082 C1098 0.931 . S
C1083 H1071 0.929 . S
C1083 C1077 1.390 . S
C1083 C1080 1.386 . S
C1084 C1079 1.490 . S
C1084 C1086 1.395 . S
C1084 C1087 1.403 . S
H1085 C1091 0.930 . S
C1086 H1072 0.930 . S
C1086 C1084 1.395 . S
C1086 C1089 1.403 . S
C1087 C1084 1.403 . S
C1087 C1088 1.524 . S
C1087 C1091 1.400 . S
C1088 H1073 0.960 . S
C1088 H1074 0.960 . S
C1088 H1075 0.960 . S
C1088 C1087 1.524 . S
C1089 C1086 1.403 . S
C1089 C1090 1.392 . S
C1089 C1093 1.495 . S
C1090 C1089 1.392 . S
C1090 C1091 1.385 . S
C1090 C1092 1.478 . S
C1091 H1085 0.930 . S
C1091 C1087 1.400 . S
C1091 C1090 1.385 . S
C1092 C1090 1.478 . S
C1092 C1094 1.381 . S
C1092 C1098 1.383 . S
C1093 C1089 1.495 . S
C1093 H1099 0.959 . S
C1093 H1100 0.961 . S
C1093 H1101 0.960 . S
C1094 C1092 1.381 . S
C1094 C1095 1.394 . S
C1094 H1102 0.930 . S
C1095 C1094 1.394 . S
C1095 C1096 1.383 . S
C1095 H1103 0.929 . S
C1096 C1095 1.383 . S
C1096 C1097 1.377 . S
C1097 H1081 0.930 . S
C1097 C1096 1.377 . S
C1097 C1098 1.379 . S
C1098 H1082 0.931 . S
C1098 C1092 1.383 . S
C1098 C1097 1.379 . S
H1099 C1093 0.959 . S
H1100 C1093 0.961 . S
H1101 C1093 0.960 . S
H1102 C1094 0.930 . S
H1103 C1095 0.929 . S
H1104 C1112 0.929 . S
H1105 C1114 0.930 . S
H1106 C1116 0.930 . S
H1107 C1119 0.929 . S
H1108 C1122 0.930 . S
H1109 C1124 0.960 . S
H1110 C1124 0.960 . S
H1111 C1124 0.960 . S
C1112 H1104 0.929 . S
C1112 C1113 1.377 . S
C1112 C1114 1.384 . S
C1113 C1112 1.377 . S
C1113 C1119 1.390 . S
C1114 H1105 0.930 . S
C1114 C1112 1.384 . S
C1114 C1115 1.372 . S
C1115 C1114 1.372 . S
C1115 C1116 1.400 . S
C1115 C1120 1.490 . S
C1116 H1106 0.930 . S
C1116 C1115 1.400 . S
C1116 C1119 1.386 . S
H1117 C1133 0.930 . S
H1118 C1134 0.931 . S
C1119 H1107 0.929 . S
C1119 C1113 1.390 . S
C1119 C1116 1.386 . S
C1120 C1115 1.490 . S
C1120 C1122 1.395 . S
C1120 C1123 1.403 1_556 S
H1121 C1127 0.930 . S
C1122 H1108 0.930 . S
C1122 C1120 1.395 . S
C1122 C1125 1.403 . S
C1123 C1120 1.403 1_554 S
C1123 C1124 1.524 . S
C1123 C1127 1.400 . S
C1124 H1109 0.960 . S
C1124 H1110 0.960 . S
C1124 H1111 0.960 . S
C1124 C1123 1.524 . S
C1125 C1122 1.403 . S
C1125 C1126 1.392 1_556 S
C1125 C1129 1.495 . S
C1126 C1125 1.392 1_554 S
C1126 C1127 1.385 . S
C1126 C1128 1.478 . S
C1127 H1121 0.930 . S
C1127 C1123 1.400 . S
C1127 C1126 1.385 . S
C1128 C1126 1.478 . S
C1128 C1130 1.381 . S
C1128 C1134 1.383 . S
C1129 C1125 1.495 . S
C1129 H1135 0.959 . S
C1129 H1136 0.961 . S
C1129 H1137 0.960 . S
C1130 C1128 1.381 . S
C1130 C1131 1.394 . S
C1130 H1138 0.930 . S
C1131 C1130 1.394 . S
C1131 C1132 1.383 . S
C1131 H1139 0.929 . S
C1132 C1131 1.383 . S
C1132 C1133 1.377 . S
C1133 H1117 0.930 . S
C1133 C1132 1.377 . S
C1133 C1134 1.379 . S
C1134 H1118 0.931 . S
C1134 C1128 1.383 . S
C1134 C1133 1.379 . S
H1135 C1129 0.959 . S
H1136 C1129 0.961 . S
H1137 C1129 0.960 . S
H1138 C1130 0.930 . S
H1139 C1131 0.929 . S
H1140 C1148 0.929 . S
H1141 C1150 0.930 . S
H1142 C1152 0.930 . S
H1143 C1155 0.929 . S
H1144 C1158 0.930 . S
H1145 C1160 0.960 . S
H1146 C1160 0.960 . S
H1147 C1160 0.960 . S
C1148 H1140 0.929 . S
C1148 C1149 1.377 . S
C1148 C1150 1.384 . S
C1149 C1148 1.377 . S
C1149 C1155 1.390 . S
C1150 H1141 0.930 . S
C1150 C1148 1.384 . S
C1150 C1151 1.372 . S
C1151 C1150 1.372 . S
C1151 C1152 1.400 . S
C1151 C1156 1.490 . S
C1152 H1142 0.930 . S
C1152 C1151 1.400 . S
C1152 C1155 1.386 . S
H1153 C1169 0.930 . S
H1154 C1170 0.931 . S
C1155 H1143 0.929 . S
C1155 C1149 1.390 . S
C1155 C1152 1.386 . S
C1156 C1151 1.490 . S
C1156 C1158 1.395 . S
C1156 C1159 1.403 . S
H1157 C1163 0.930 . S
C1158 H1144 0.930 . S
C1158 C1156 1.395 . S
C1158 C1161 1.403 . S
C1159 C1156 1.403 . S
C1159 C1160 1.524 . S
C1159 C1163 1.400 . S
C1160 H1145 0.960 . S
C1160 H1146 0.960 . S
C1160 H1147 0.960 . S
C1160 C1159 1.524 . S
C1161 C1158 1.403 . S
C1161 C1162 1.392 . S
C1161 C1165 1.495 . S
C1162 C1161 1.392 . S
C1162 C1163 1.385 . S
C1162 C1164 1.478 . S
C1163 H1157 0.930 . S
C1163 C1159 1.400 . S
C1163 C1162 1.385 . S
C1164 C1162 1.478 . S
C1164 C1166 1.381 . S
C1164 C1170 1.383 . S
C1165 C1161 1.495 . S
C1165 H1171 0.959 . S
C1165 H1172 0.961 . S
C1165 H1173 0.960 . S
C1166 C1164 1.381 . S
C1166 C1167 1.394 . S
C1166 H1174 0.930 . S
C1167 C1166 1.394 . S
C1167 C1168 1.383 . S
C1167 H1175 0.929 . S
C1168 C1167 1.383 . S
C1168 C1169 1.377 . S
C1169 H1153 0.930 . S
C1169 C1168 1.377 . S
C1169 C1170 1.379 . S
C1170 H1154 0.931 . S
C1170 C1164 1.383 . S
C1170 C1169 1.379 . S
H1171 C1165 0.959 . S
H1172 C1165 0.961 . S
H1173 C1165 0.960 . S
H1174 C1166 0.930 . S
H1175 C1167 0.929 . S
H1176 C1184 0.929 . S
H1177 C1186 0.930 . S
H1178 C1188 0.930 . S
H1179 C1191 0.929 . S
H1180 C1194 0.930 . S
H1181 C1196 0.960 . S
H1182 C1196 0.960 . S
H1183 C1196 0.960 . S
C1184 H1176 0.929 . S
C1184 C1185 1.377 . S
C1184 C1186 1.384 . S
C1185 C1184 1.377 . S
C1185 C1191 1.390 . S
C1186 H1177 0.930 . S
C1186 C1184 1.384 . S
C1186 C1187 1.372 . S
C1187 C1186 1.372 . S
C1187 C1188 1.400 . S
C1187 C1192 1.490 . S
C1188 H1178 0.930 . S
C1188 C1187 1.400 . S
C1188 C1191 1.386 . S
H1189 C1205 0.930 . S
H1190 C1206 0.931 . S
C1191 H1179 0.929 . S
C1191 C1185 1.390 . S
C1191 C1188 1.386 . S
C1192 C1187 1.490 . S
C1192 C1194 1.395 . S
C1192 C1195 1.403 . S
H1193 C1199 0.930 . S
C1194 H1180 0.930 . S
C1194 C1192 1.395 . S
C1194 C1197 1.403 . S
C1195 C1192 1.403 . S
C1195 C1196 1.524 . S
C1195 C1199 1.400 . S
C1196 H1181 0.960 . S
C1196 H1182 0.960 . S
C1196 H1183 0.960 . S
C1196 C1195 1.524 . S
C1197 C1194 1.403 . S
C1197 C1198 1.392 . S
C1197 C1201 1.495 . S
C1198 C1197 1.392 . S
C1198 C1199 1.385 . S
C1198 C1200 1.478 . S
C1199 H1193 0.930 . S
C1199 C1195 1.400 . S
C1199 C1198 1.385 . S
C1200 C1198 1.478 . S
C1200 C1202 1.381 . S
C1200 C1206 1.383 . S
C1201 C1197 1.495 . S
C1201 H1207 0.959 . S
C1201 H1208 0.961 . S
C1201 H1209 0.960 . S
C1202 C1200 1.381 . S
C1202 C1203 1.394 . S
C1202 H1210 0.930 . S
C1203 C1202 1.394 . S
C1203 C1204 1.383 . S
C1203 H1211 0.929 . S
C1204 C1203 1.383 . S
C1204 C1205 1.377 . S
C1205 H1189 0.930 . S
C1205 C1204 1.377 . S
C1205 C1206 1.379 . S
C1206 H1190 0.931 . S
C1206 C1200 1.383 . S
C1206 C1205 1.379 . S
H1207 C1201 0.959 . S
H1208 C1201 0.961 . S
H1209 C1201 0.960 . S
H1210 C1202 0.930 . S
H1211 C1203 0.929 . S
H1212 C1220 0.929 . S
H1213 C1222 0.930 . S
H1214 C1224 0.930 . S
H1215 C1227 0.929 . S
H1216 C1230 0.930 . S
H1217 C1232 0.960 . S
H1218 C1232 0.960 . S
H1219 C1232 0.960 . S
C1220 H1212 0.929 . S
C1220 C1221 1.377 . S
C1220 C1222 1.384 . S
C1221 C1220 1.377 . S
C1221 C1227 1.390 . S
C1222 H1213 0.930 . S
C1222 C1220 1.384 . S
C1222 C1223 1.372 . S
C1223 C1222 1.372 . S
C1223 C1224 1.400 . S
C1223 C1228 1.490 . S
C1224 H1214 0.930 . S
C1224 C1223 1.400 . S
C1224 C1227 1.386 . S
H1225 C1241 0.930 . S
H1226 C1242 0.931 . S
C1227 H1215 0.929 . S
C1227 C1221 1.390 . S
C1227 C1224 1.386 . S
C1228 C1223 1.490 . S
C1228 C1230 1.395 . S
C1228 C1231 1.403 . S
H1229 C1235 0.930 . S
C1230 H1216 0.930 . S
C1230 C1228 1.395 . S
C1230 C1233 1.403 1_455 S
C1231 C1228 1.403 . S
C1231 C1232 1.524 . S
C1231 C1235 1.400 1_455 S
C1232 H1217 0.960 . S
C1232 H1218 0.960 . S
C1232 H1219 0.960 . S
C1232 C1231 1.524 . S
C1233 C1230 1.403 1_655 S
C1233 C1234 1.392 . S
C1233 C1237 1.495 . S
C1234 C1233 1.392 . S
C1234 C1235 1.385 . S
C1234 C1236 1.478 . S
C1235 H1229 0.930 . S
C1235 C1231 1.400 1_655 S
C1235 C1234 1.385 . S
C1236 C1234 1.478 . S
C1236 C1238 1.381 . S
C1236 C1242 1.383 . S
C1237 C1233 1.495 . S
C1237 H1243 0.959 . S
C1237 H1244 0.961 . S
C1237 H1245 0.960 . S
C1238 C1236 1.381 . S
C1238 C1239 1.394 . S
C1238 H1246 0.930 . S
C1239 C1238 1.394 . S
C1239 C1240 1.383 . S
C1239 H1247 0.929 . S
C1240 C1239 1.383 . S
C1240 C1241 1.377 . S
C1241 H1225 0.930 . S
C1241 C1240 1.377 . S
C1241 C1242 1.379 . S
C1242 H1226 0.931 . S
C1242 C1236 1.383 . S
C1242 C1241 1.379 . S
H1243 C1237 0.959 . S
H1244 C1237 0.961 . S
H1245 C1237 0.960 . S
H1246 C1238 0.930 . S
H1247 C1239 0.929 . S
H1248 C1256 0.929 . S
H1249 C1258 0.930 . S
H1250 C1260 0.930 . S
H1251 C1263 0.929 . S
H1252 C1266 0.930 . S
H1253 C1268 0.960 . S
H1254 C1268 0.960 . S
H1255 C1268 0.960 . S
C1256 H1248 0.929 . S
C1256 C1257 1.377 . S
C1256 C1258 1.384 . S
C1257 C1256 1.377 . S
C1257 C1263 1.390 . S
C1258 H1249 0.930 . S
C1258 C1256 1.384 . S
C1258 C1259 1.372 . S
C1259 C1258 1.372 . S
C1259 C1260 1.400 . S
C1259 C1264 1.490 . S
C1260 H1250 0.930 . S
C1260 C1259 1.400 . S
C1260 C1263 1.386 . S
H1261 C1277 0.930 . S
H1262 C1278 0.931 . S
C1263 H1251 0.929 . S
C1263 C1257 1.390 . S
C1263 C1260 1.386 . S
C1264 C1259 1.490 . S
C1264 C1266 1.395 . S
C1264 C1267 1.403 . S
H1265 C1271 0.930 . S
C1266 H1252 0.930 . S
C1266 C1264 1.395 . S
C1266 C1269 1.403 1_565 S
C1267 C1264 1.403 . S
C1267 C1268 1.524 . S
C1267 C1271 1.400 1_565 S
C1268 H1253 0.960 . S
C1268 H1254 0.960 . S
C1268 H1255 0.960 . S
C1268 C1267 1.524 . S
C1269 C1266 1.403 1_545 S
C1269 C1270 1.392 . S
C1269 C1273 1.495 . S
C1270 C1269 1.392 . S
C1270 C1271 1.385 . S
C1270 C1272 1.478 . S
C1271 H1265 0.930 . S
C1271 C1267 1.400 1_545 S
C1271 C1270 1.385 . S
C1272 C1270 1.478 . S
C1272 C1274 1.381 . S
C1272 C1278 1.383 . S
C1273 C1269 1.495 . S
C1273 H1279 0.959 . S
C1273 H1280 0.961 . S
C1273 H1281 0.960 . S
C1274 C1272 1.381 . S
C1274 C1275 1.394 . S
C1274 H1282 0.930 . S
C1275 C1274 1.394 . S
C1275 C1276 1.383 . S
C1275 H1283 0.929 . S
C1276 C1275 1.383 . S
C1276 C1277 1.377 . S
C1277 H1261 0.930 . S
C1277 C1276 1.377 . S
C1277 C1278 1.379 . S
C1278 H1262 0.931 . S
C1278 C1272 1.383 . S
C1278 C1277 1.379 . S
H1279 C1273 0.959 . S
H1280 C1273 0.961 . S
H1281 C1273 0.960 . S
H1282 C1274 0.930 . S
H1283 C1275 0.929 . S
H1284 C1292 0.929 . S
H1285 C1294 0.930 . S
H1286 C1296 0.930 . S
H1287 C1299 0.929 . S
H1288 C1302 0.930 . S
H1289 C1304 0.960 . S
H1290 C1304 0.960 . S
H1291 C1304 0.960 . S
C1292 H1284 0.929 . S
C1292 C1293 1.377 . S
C1292 C1294 1.384 . S
C1293 C1292 1.377 . S
C1293 C1299 1.390 . S
C1294 H1285 0.930 . S
C1294 C1292 1.384 . S
C1294 C1295 1.372 . S
C1295 C1294 1.372 . S
C1295 C1296 1.400 . S
C1295 C1300 1.490 . S
C1296 H1286 0.930 . S
C1296 C1295 1.400 . S
C1296 C1299 1.386 . S
H1297 C1313 0.930 . S
H1298 C1314 0.931 . S
C1299 H1287 0.929 . S
C1299 C1293 1.390 . S
C1299 C1296 1.386 . S
C1300 C1295 1.490 . S
C1300 C1302 1.395 . S
C1300 C1303 1.403 . S
H1301 C1307 0.930 . S
C1302 H1288 0.930 . S
C1302 C1300 1.395 . S
C1302 C1305 1.403 . S
C1303 C1300 1.403 . S
C1303 C1304 1.524 . S
C1303 C1307 1.400 . S
C1304 H1289 0.960 . S
C1304 H1290 0.960 . S
C1304 H1291 0.960 . S
C1304 C1303 1.524 . S
C1305 C1302 1.403 . S
C1305 C1306 1.392 . S
C1305 C1309 1.495 . S
C1306 C1305 1.392 . S
C1306 C1307 1.385 . S
C1306 C1308 1.478 . S
C1307 H1301 0.930 . S
C1307 C1303 1.400 . S
C1307 C1306 1.385 . S
C1308 C1306 1.478 . S
C1308 C1310 1.381 . S
C1308 C1314 1.383 . S
C1309 C1305 1.495 . S
C1309 H1315 0.959 . S
C1309 H1316 0.961 . S
C1309 H1317 0.960 . S
C1310 C1308 1.381 . S
C1310 C1311 1.394 . S
C1310 H1318 0.930 . S
C1311 C1310 1.394 . S
C1311 C1312 1.383 . S
C1311 H1319 0.929 . S
C1312 C1311 1.383 . S
C1312 C1313 1.377 . S
C1313 H1297 0.930 . S
C1313 C1312 1.377 . S
C1313 C1314 1.379 . S
C1314 H1298 0.931 . S
C1314 C1308 1.383 . S
C1314 C1313 1.379 . S
H1315 C1309 0.959 . S
H1316 C1309 0.961 . S
H1317 C1309 0.960 . S
H1318 C1310 0.930 . S
H1319 C1311 0.929 . S
H1320 C1328 0.929 . S
H1321 C1330 0.930 . S
H1322 C1332 0.930 . S
H1323 C1335 0.929 . S
H1324 C1338 0.930 . S
H1325 C1340 0.960 . S
H1326 C1340 0.960 . S
H1327 C1340 0.960 . S
C1328 H1320 0.929 . S
C1328 C1329 1.377 . S
C1328 C1330 1.384 . S
C1329 C1328 1.377 . S
C1329 C1335 1.390 . S
C1330 H1321 0.930 . S
C1330 C1328 1.384 . S
C1330 C1331 1.372 . S
C1331 C1330 1.372 . S
C1331 C1332 1.400 . S
C1331 C1336 1.490 . S
C1332 H1322 0.930 . S
C1332 C1331 1.400 . S
C1332 C1335 1.386 . S
H1333 C1349 0.930 . S
H1334 C1350 0.931 . S
C1335 H1323 0.929 . S
C1335 C1329 1.390 . S
C1335 C1332 1.386 . S
C1336 C1331 1.490 . S
C1336 C1338 1.395 . S
C1336 C1339 1.403 . S
H1337 C1343 0.930 . S
C1338 H1324 0.930 . S
C1338 C1336 1.395 . S
C1338 C1341 1.403 1_655 S
C1339 C1336 1.403 . S
C1339 C1340 1.524 . S
C1339 C1343 1.400 1_655 S
C1340 H1325 0.960 . S
C1340 H1326 0.960 . S
C1340 H1327 0.960 . S
C1340 C1339 1.524 . S
C1341 C1338 1.403 1_455 S
C1341 C1342 1.392 . S
C1341 C1345 1.495 . S
C1342 C1341 1.392 . S
C1342 C1343 1.385 . S
C1342 C1344 1.478 . S
C1343 H1337 0.930 . S
C1343 C1339 1.400 1_455 S
C1343 C1342 1.385 . S
C1344 C1342 1.478 . S
C1344 C1346 1.381 . S
C1344 C1350 1.383 . S
C1345 C1341 1.495 . S
C1345 H1351 0.959 . S
C1345 H1352 0.961 . S
C1345 H1353 0.960 . S
C1346 C1344 1.381 . S
C1346 C1347 1.394 . S
C1346 H1354 0.930 . S
C1347 C1346 1.394 . S
C1347 C1348 1.383 . S
C1347 H1355 0.929 . S
C1348 C1347 1.383 . S
C1348 C1349 1.377 . S
C1349 H1333 0.930 . S
C1349 C1348 1.377 . S
C1349 C1350 1.379 . S
C1350 H1334 0.931 . S
C1350 C1344 1.383 . S
C1350 C1349 1.379 . S
H1351 C1345 0.959 . S
H1352 C1345 0.961 . S
H1353 C1345 0.960 . S
H1354 C1346 0.930 . S
H1355 C1347 0.929 . S
H1356 C1364 0.929 . S
H1357 C1366 0.930 . S
H1358 C1368 0.930 . S
H1359 C1371 0.929 . S
H1360 C1374 0.930 . S
H1361 C1376 0.960 . S
H1362 C1376 0.960 . S
H1363 C1376 0.960 . S
C1364 H1356 0.929 . S
C1364 C1365 1.377 . S
C1364 C1366 1.384 . S
C1365 C1364 1.377 . S
C1365 C1371 1.390 . S
C1366 H1357 0.930 . S
C1366 C1364 1.384 . S
C1366 C1367 1.372 . S
C1367 C1366 1.372 . S
C1367 C1368 1.400 . S
C1367 C1372 1.490 . S
C1368 H1358 0.930 . S
C1368 C1367 1.400 . S
C1368 C1371 1.386 . S
H1369 C1385 0.930 . S
H1370 C1386 0.931 . S
C1371 H1359 0.929 . S
C1371 C1365 1.390 . S
C1371 C1368 1.386 . S
C1372 C1367 1.490 . S
C1372 C1374 1.395 . S
C1372 C1375 1.403 . S
H1373 C1379 0.930 . S
C1374 H1360 0.930 . S
C1374 C1372 1.395 . S
C1374 C1377 1.403 1_545 S
C1375 C1372 1.403 . S
C1375 C1376 1.524 . S
C1375 C1379 1.400 1_545 S
C1376 H1361 0.960 . S
C1376 H1362 0.960 . S
C1376 H1363 0.960 . S
C1376 C1375 1.524 . S
C1377 C1374 1.403 1_565 S
C1377 C1378 1.392 . S
C1377 C1381 1.495 . S
C1378 C1377 1.392 . S
C1378 C1379 1.385 . S
C1378 C1380 1.478 . S
C1379 H1373 0.930 . S
C1379 C1375 1.400 1_565 S
C1379 C1378 1.385 . S
C1380 C1378 1.478 . S
C1380 C1382 1.381 . S
C1380 C1386 1.383 . S
C1381 C1377 1.495 . S
C1381 H1387 0.959 . S
C1381 H1388 0.961 . S
C1381 H1389 0.960 . S
C1382 C1380 1.381 . S
C1382 C1383 1.394 . S
C1382 H1390 0.930 . S
C1383 C1382 1.394 . S
C1383 C1384 1.383 . S
C1383 H1391 0.929 . S
C1384 C1383 1.383 . S
C1384 C1385 1.377 . S
C1385 H1369 0.930 . S
C1385 C1384 1.377 . S
C1385 C1386 1.379 . S
C1386 H1370 0.931 . S
C1386 C1380 1.383 . S
C1386 C1385 1.379 . S
H1387 C1381 0.959 . S
H1388 C1381 0.961 . S
H1389 C1381 0.960 . S
H1390 C1382 0.930 . S
H1391 C1383 0.929 . S
H1392 C1400 0.929 . S
H1393 C1402 0.930 . S
H1394 C1404 0.930 . S
H1395 C1407 0.929 . S
H1396 C1410 0.930 . S
H1397 C1412 0.960 . S
H1398 C1412 0.960 . S
H1399 C1412 0.960 . S
C1400 H1392 0.929 . S
C1400 C1401 1.377 . S
C1400 C1402 1.384 . S
C1401 C1400 1.377 . S
C1401 C1407 1.390 . S
C1402 H1393 0.930 . S
C1402 C1400 1.384 . S
C1402 C1403 1.372 . S
C1403 C1402 1.372 . S
C1403 C1404 1.400 . S
C1403 C1408 1.490 . S
C1404 H1394 0.930 . S
C1404 C1403 1.400 . S
C1404 C1407 1.386 . S
H1405 C1421 0.930 . S
H1406 C1422 0.931 . S
C1407 H1395 0.929 . S
C1407 C1401 1.390 . S
C1407 C1404 1.386 . S
C1408 C1403 1.490 . S
C1408 C1410 1.395 . S
C1408 C1411 1.403 . S
H1409 C1415 0.930 . S
C1410 H1396 0.930 . S
C1410 C1408 1.395 . S
C1410 C1413 1.403 . S
C1411 C1408 1.403 . S
C1411 C1412 1.524 . S
C1411 C1415 1.400 . S
C1412 H1397 0.960 . S
C1412 H1398 0.960 . S
C1412 H1399 0.960 . S
C1412 C1411 1.524 . S
C1413 C1410 1.403 . S
C1413 C1414 1.392 . S
C1413 C1417 1.495 . S
C1414 C1413 1.392 . S
C1414 C1415 1.385 . S
C1414 C1416 1.478 . S
C1415 H1409 0.930 . S
C1415 C1411 1.400 . S
C1415 C1414 1.385 . S
C1416 C1414 1.478 . S
C1416 C1418 1.381 . S
C1416 C1422 1.383 . S
C1417 C1413 1.495 . S
C1417 H1423 0.959 . S
C1417 H1424 0.961 . S
C1417 H1425 0.960 . S
C1418 C1416 1.381 . S
C1418 C1419 1.394 . S
C1418 H1426 0.930 . S
C1419 C1418 1.394 . S
C1419 C1420 1.383 . S
C1419 H1427 0.929 . S
C1420 C1419 1.383 . S
C1420 C1421 1.377 . S
C1421 H1405 0.930 . S
C1421 C1420 1.377 . S
C1421 C1422 1.379 . S
C1422 H1406 0.931 . S
C1422 C1416 1.383 . S
C1422 C1421 1.379 . S
H1423 C1417 0.959 . S
H1424 C1417 0.961 . S
H1425 C1417 0.960 . S
H1426 C1418 0.930 . S
H1427 C1419 0.929 . S
H1428 C1436 0.929 . S
H1429 C1438 0.930 . S
H1430 C1440 0.930 . S
H1431 C1443 0.929 . S
H1432 C1446 0.930 . S
H1433 C1448 0.960 . S
H1434 C1448 0.960 . S
H1435 C1448 0.960 . S
C1436 H1428 0.929 . S
C1436 C1437 1.377 . S
C1436 C1438 1.384 . S
C1437 C1436 1.377 . S
C1437 C1443 1.390 . S
C1438 H1429 0.930 . S
C1438 C1436 1.384 . S
C1438 C1439 1.372 . S
C1439 C1438 1.372 . S
C1439 C1440 1.400 . S
C1439 C1444 1.490 . S
C1440 H1430 0.930 . S
C1440 C1439 1.400 . S
C1440 C1443 1.386 . S
H1441 C1457 0.930 . S
H1442 C1458 0.931 . S
C1443 H1431 0.929 . S
C1443 C1437 1.390 . S
C1443 C1440 1.386 . S
C1444 C1439 1.490 . S
C1444 C1446 1.395 . S
C1444 C1447 1.403 . S
H1445 C1451 0.930 . S
C1446 H1432 0.930 . S
C1446 C1444 1.395 . S
C1446 C1449 1.403 1_655 S
C1447 C1444 1.403 . S
C1447 C1448 1.524 . S
C1447 C1451 1.400 1_655 S
C1448 H1433 0.960 . S
C1448 H1434 0.960 . S
C1448 H1435 0.960 . S
C1448 C1447 1.524 . S
C1449 C1446 1.403 1_455 S
C1449 C1450 1.392 . S
C1449 C1453 1.495 . S
C1450 C1449 1.392 . S
C1450 C1451 1.385 . S
C1450 C1452 1.478 . S
C1451 H1445 0.930 . S
C1451 C1447 1.400 1_455 S
C1451 C1450 1.385 . S
C1452 C1450 1.478 . S
C1452 C1454 1.381 . S
C1452 C1458 1.383 . S
C1453 C1449 1.495 . S
C1453 H1459 0.959 . S
C1453 H1460 0.961 . S
C1453 H1461 0.960 . S
C1454 C1452 1.381 . S
C1454 C1455 1.394 . S
C1454 H1462 0.930 . S
C1455 C1454 1.394 . S
C1455 C1456 1.383 . S
C1455 H1463 0.929 . S
C1456 C1455 1.383 . S
C1456 C1457 1.377 . S
C1457 H1441 0.930 . S
C1457 C1456 1.377 . S
C1457 C1458 1.379 . S
C1458 H1442 0.931 . S
C1458 C1452 1.383 . S
C1458 C1457 1.379 . S
H1459 C1453 0.959 . S
H1460 C1453 0.961 . S
H1461 C1453 0.960 . S
H1462 C1454 0.930 . S
H1463 C1455 0.929 . S
H1464 C1472 0.929 . S
H1465 C1474 0.930 . S
H1466 C1476 0.930 . S
H1467 C1479 0.929 . S
H1468 C1482 0.930 . S
H1469 C1484 0.960 . S
H1470 C1484 0.960 . S
H1471 C1484 0.960 . S
C1472 H1464 0.929 . S
C1472 C1473 1.377 . S
C1472 C1474 1.384 . S
C1473 C1472 1.377 . S
C1473 C1479 1.390 . S
C1474 H1465 0.930 . S
C1474 C1472 1.384 . S
C1474 C1475 1.372 . S
C1475 C1474 1.372 . S
C1475 C1476 1.400 . S
C1475 C1480 1.490 . S
C1476 H1466 0.930 . S
C1476 C1475 1.400 . S
C1476 C1479 1.386 . S
H1477 C1493 0.930 . S
H1478 C1494 0.931 . S
C1479 H1467 0.929 . S
C1479 C1473 1.390 . S
C1479 C1476 1.386 . S
C1480 C1475 1.490 . S
C1480 C1482 1.395 . S
C1480 C1483 1.403 . S
H1481 C1487 0.930 . S
C1482 H1468 0.930 . S
C1482 C1480 1.395 . S
C1482 C1485 1.403 1_545 S
C1483 C1480 1.403 . S
C1483 C1484 1.524 . S
C1483 C1487 1.400 1_545 S
C1484 H1469 0.960 . S
C1484 H1470 0.960 . S
C1484 H1471 0.960 . S
C1484 C1483 1.524 . S
C1485 C1482 1.403 1_565 S
C1485 C1486 1.392 . S
C1485 C1489 1.495 . S
C1486 C1485 1.392 . S
C1486 C1487 1.385 . S
C1486 C1488 1.478 . S
C1487 H1481 0.930 . S
C1487 C1483 1.400 1_565 S
C1487 C1486 1.385 . S
C1488 C1486 1.478 . S
C1488 C1490 1.381 . S
C1488 C1494 1.383 . S
C1489 C1485 1.495 . S
C1489 H1495 0.959 . S
C1489 H1496 0.961 . S
C1489 H1497 0.960 . S
C1490 C1488 1.381 . S
C1490 C1491 1.394 . S
C1490 H1498 0.930 . S
C1491 C1490 1.394 . S
C1491 C1492 1.383 . S
C1491 H1499 0.929 . S
C1492 C1491 1.383 . S
C1492 C1493 1.377 . S
C1493 H1477 0.930 . S
C1493 C1492 1.377 . S
C1493 C1494 1.379 . S
C1494 H1478 0.931 . S
C1494 C1488 1.383 . S
C1494 C1493 1.379 . S
H1495 C1489 0.959 . S
H1496 C1489 0.961 . S
H1497 C1489 0.960 . S
H1498 C1490 0.930 . S
H1499 C1491 0.929 . S
H1500 C1508 0.929 . S
H1501 C1510 0.930 . S
H1502 C1512 0.930 . S
H1503 C1515 0.929 . S
H1504 C1518 0.930 . S
H1505 C1520 0.960 . S
H1506 C1520 0.960 . S
H1507 C1520 0.960 . S
C1508 H1500 0.929 . S
C1508 C1509 1.377 . S
C1508 C1510 1.384 . S
C1509 C1508 1.377 . S
C1509 C1515 1.390 . S
C1510 H1501 0.930 . S
C1510 C1508 1.384 . S
C1510 C1511 1.372 . S
C1511 C1510 1.372 . S
C1511 C1512 1.400 . S
C1511 C1516 1.490 . S
C1512 H1502 0.930 . S
C1512 C1511 1.400 . S
C1512 C1515 1.386 . S
H1513 C1529 0.930 . S
H1514 C1530 0.931 . S
C1515 H1503 0.929 . S
C1515 C1509 1.390 . S
C1515 C1512 1.386 . S
C1516 C1511 1.490 . S
C1516 C1518 1.395 . S
C1516 C1519 1.403 . S
H1517 C1523 0.930 . S
C1518 H1504 0.930 . S
C1518 C1516 1.395 . S
C1518 C1521 1.403 . S
C1519 C1516 1.403 . S
C1519 C1520 1.524 . S
C1519 C1523 1.400 . S
C1520 H1505 0.960 . S
C1520 H1506 0.960 . S
C1520 H1507 0.960 . S
C1520 C1519 1.524 . S
C1521 C1518 1.403 . S
C1521 C1522 1.392 . S
C1521 C1525 1.495 . S
C1522 C1521 1.392 . S
C1522 C1523 1.385 . S
C1522 C1524 1.478 . S
C1523 H1517 0.930 . S
C1523 C1519 1.400 . S
C1523 C1522 1.385 . S
C1524 C1522 1.478 . S
C1524 C1526 1.381 . S
C1524 C1530 1.383 . S
C1525 C1521 1.495 . S
C1525 H1531 0.959 . S
C1525 H1532 0.961 . S
C1525 H1533 0.960 . S
C1526 C1524 1.381 . S
C1526 C1527 1.394 . S
C1526 H1534 0.930 . S
C1527 C1526 1.394 . S
C1527 C1528 1.383 . S
C1527 H1535 0.929 . S
C1528 C1527 1.383 . S
C1528 C1529 1.377 . S
C1529 H1513 0.930 . S
C1529 C1528 1.377 . S
C1529 C1530 1.379 . S
C1530 H1514 0.931 . S
C1530 C1524 1.383 . S
C1530 C1529 1.379 . S
H1531 C1525 0.959 . S
H1532 C1525 0.961 . S
H1533 C1525 0.960 . S
H1534 C1526 0.930 . S
H1535 C1527 0.929 . S
H1536 C1544 0.929 . S
H1537 C1546 0.930 . S
H1538 C1548 0.930 . S
H1539 C1551 0.929 . S
H1540 C1554 0.930 . S
H1541 C1556 0.960 . S
H1542 C1556 0.960 . S
H1543 C1556 0.960 . S
C1544 H1536 0.929 . S
C1544 C1545 1.377 . S
C1544 C1546 1.384 . S
C1545 C1544 1.377 . S
C1545 C1551 1.390 . S
C1546 H1537 0.930 . S
C1546 C1544 1.384 . S
C1546 C1547 1.372 . S
C1547 C1546 1.372 . S
C1547 C1548 1.400 . S
C1547 C1552 1.490 . S
C1548 H1538 0.930 . S
C1548 C1547 1.400 . S
C1548 C1551 1.386 . S
H1549 C1565 0.930 . S
H1550 C1566 0.931 . S
C1551 H1539 0.929 . S
C1551 C1545 1.390 . S
C1551 C1548 1.386 . S
C1552 C1547 1.490 . S
C1552 C1554 1.395 . S
C1552 C1555 1.403 . S
H1553 C1559 0.930 . S
C1554 H1540 0.930 . S
C1554 C1552 1.395 . S
C1554 C1557 1.403 1_455 S
C1555 C1552 1.403 . S
C1555 C1556 1.524 . S
C1555 C1559 1.400 1_455 S
C1556 H1541 0.960 . S
C1556 H1542 0.960 . S
C1556 H1543 0.960 . S
C1556 C1555 1.524 . S
C1557 C1554 1.403 1_655 S
C1557 C1558 1.392 . S
C1557 C1561 1.495 . S
C1558 C1557 1.392 . S
C1558 C1559 1.385 . S
C1558 C1560 1.478 . S
C1559 H1553 0.930 . S
C1559 C1555 1.400 1_655 S
C1559 C1558 1.385 . S
C1560 C1558 1.478 . S
C1560 C1562 1.381 . S
C1560 C1566 1.383 . S
C1561 C1557 1.495 . S
C1561 H1567 0.959 . S
C1561 H1568 0.961 . S
C1561 H1569 0.960 . S
C1562 C1560 1.381 . S
C1562 C1563 1.394 . S
C1562 H1570 0.930 . S
C1563 C1562 1.394 . S
C1563 C1564 1.383 . S
C1563 H1571 0.929 . S
C1564 C1563 1.383 . S
C1564 C1565 1.377 . S
C1565 H1549 0.930 . S
C1565 C1564 1.377 . S
C1565 C1566 1.379 . S
C1566 H1550 0.931 . S
C1566 C1560 1.383 . S
C1566 C1565 1.379 . S
H1567 C1561 0.959 . S
H1568 C1561 0.961 . S
H1569 C1561 0.960 . S
H1570 C1562 0.930 . S
H1571 C1563 0.929 . S
H1572 C1580 0.929 . S
H1573 C1582 0.930 . S
H1574 C1584 0.930 . S
H1575 C1587 0.929 . S
H1576 C1590 0.930 . S
H1577 C1592 0.960 . S
H1578 C1592 0.960 . S
H1579 C1592 0.960 . S
C1580 H1572 0.929 . S
C1580 C1581 1.377 . S
C1580 C1582 1.384 . S
C1581 C1580 1.377 . S
C1581 C1587 1.390 . S
C1582 H1573 0.930 . S
C1582 C1580 1.384 . S
C1582 C1583 1.372 . S
C1583 C1582 1.372 . S
C1583 C1584 1.400 . S
C1583 C1588 1.490 . S
C1584 H1574 0.930 . S
C1584 C1583 1.400 . S
C1584 C1587 1.386 . S
H1585 C1601 0.930 . S
H1586 C1602 0.931 . S
C1587 H1575 0.929 . S
C1587 C1581 1.390 . S
C1587 C1584 1.386 . S
C1588 C1583 1.490 . S
C1588 C1590 1.395 . S
C1588 C1591 1.403 . S
H1589 C1595 0.930 . S
C1590 H1576 0.930 . S
C1590 C1588 1.395 . S
C1590 C1593 1.403 1_565 S
C1591 C1588 1.403 . S
C1591 C1592 1.524 . S
C1591 C1595 1.400 1_565 S
C1592 H1577 0.960 . S
C1592 H1578 0.960 . S
C1592 H1579 0.960 . S
C1592 C1591 1.524 . S
C1593 C1590 1.403 1_545 S
C1593 C1594 1.392 . S
C1593 C1597 1.495 . S
C1594 C1593 1.392 . S
C1594 C1595 1.385 . S
C1594 C1596 1.478 . S
C1595 H1589 0.930 . S
C1595 C1591 1.400 1_545 S
C1595 C1594 1.385 . S
C1596 C1594 1.478 . S
C1596 C1598 1.381 . S
C1596 C1602 1.383 . S
C1597 C1593 1.495 . S
C1597 H1603 0.959 . S
C1597 H1604 0.961 . S
C1597 H1605 0.960 . S
C1598 C1596 1.381 . S
C1598 C1599 1.394 . S
C1598 H1606 0.930 . S
C1599 C1598 1.394 . S
C1599 C1600 1.383 . S
C1599 H1607 0.929 . S
C1600 C1599 1.383 . S
C1600 C1601 1.377 . S
C1601 H1585 0.930 . S
C1601 C1600 1.377 . S
C1601 C1602 1.379 . S
C1602 H1586 0.931 . S
C1602 C1596 1.383 . S
C1602 C1601 1.379 . S
H1603 C1597 0.959 . S
H1604 C1597 0.961 . S
H1605 C1597 0.960 . S
H1606 C1598 0.930 . S
H1607 C1599 0.929 . S
H1608 C1616 0.929 . S
H1609 C1618 0.930 . S
H1610 C1620 0.930 . S
H1611 C1623 0.929 . S
H1612 C1626 0.930 . S
H1613 C1628 0.960 . S
H1614 C1628 0.960 . S
H1615 C1628 0.960 . S
C1616 H1608 0.929 . S
C1616 C1617 1.377 . S
C1616 C1618 1.384 . S
C1617 C1616 1.377 . S
C1617 C1623 1.390 . S
C1618 H1609 0.930 . S
C1618 C1616 1.384 . S
C1618 C1619 1.372 . S
C1619 C1618 1.372 . S
C1619 C1620 1.400 . S
C1619 C1624 1.490 . S
C1620 H1610 0.930 . S
C1620 C1619 1.400 . S
C1620 C1623 1.386 . S
H1621 C1637 0.930 . S
H1622 C1638 0.931 . S
C1623 H1611 0.929 . S
C1623 C1617 1.390 . S
C1623 C1620 1.386 . S
C1624 C1619 1.490 . S
C1624 C1626 1.395 . S
C1624 C1627 1.403 1_556 S
H1625 C1631 0.930 . S
C1626 H1612 0.930 . S
C1626 C1624 1.395 . S
C1626 C1629 1.403 . S
C1627 C1624 1.403 1_554 S
C1627 C1628 1.524 . S
C1627 C1631 1.400 . S
C1628 H1613 0.960 . S
C1628 H1614 0.960 . S
C1628 H1615 0.960 . S
C1628 C1627 1.524 . S
C1629 C1626 1.403 . S
C1629 C1630 1.392 1_556 S
C1629 C1633 1.495 . S
C1630 C1629 1.392 1_554 S
C1630 C1631 1.385 . S
C1630 C1632 1.478 . S
C1631 H1625 0.930 . S
C1631 C1627 1.400 . S
C1631 C1630 1.385 . S
C1632 C1630 1.478 . S
C1632 C1634 1.381 . S
C1632 C1638 1.383 . S
C1633 C1629 1.495 . S
C1633 H1639 0.959 . S
C1633 H1640 0.961 . S
C1633 H1641 0.960 . S
C1634 C1632 1.381 . S
C1634 C1635 1.394 . S
C1634 H1642 0.930 . S
C1635 C1634 1.394 . S
C1635 C1636 1.383 . S
C1635 H1643 0.929 . S
C1636 C1635 1.383 . S
C1636 C1637 1.377 . S
C1637 H1621 0.930 . S
C1637 C1636 1.377 . S
C1637 C1638 1.379 . S
C1638 H1622 0.931 . S
C1638 C1632 1.383 . S
C1638 C1637 1.379 . S
H1639 C1633 0.959 . S
H1640 C1633 0.961 . S
H1641 C1633 0.960 . S
H1642 C1634 0.930 . S
H1643 C1635 0.929 . S
H1644 C1652 0.929 . S
H1645 C1654 0.930 . S
H1646 C1656 0.930 . S
H1647 C1659 0.929 . S
H1648 C1662 0.930 . S
H1649 C1664 0.960 . S
H1650 C1664 0.960 . S
H1651 C1664 0.960 . S
C1652 H1644 0.929 . S
C1652 C1653 1.377 . S
C1652 C1654 1.384 . S
C1653 C1652 1.377 . S
C1653 C1659 1.390 . S
C1654 H1645 0.930 . S
C1654 C1652 1.384 . S
C1654 C1655 1.372 . S
C1655 C1654 1.372 . S
C1655 C1656 1.400 . S
C1655 C1660 1.490 . S
C1656 H1646 0.930 . S
C1656 C1655 1.400 . S
C1656 C1659 1.386 . S
H1657 C1673 0.930 . S
H1658 C1674 0.931 . S
C1659 H1647 0.929 . S
C1659 C1653 1.390 . S
C1659 C1656 1.386 . S
C1660 C1655 1.490 . S
C1660 C1662 1.395 . S
C1660 C1663 1.403 . S
H1661 C1667 0.930 . S
C1662 H1648 0.930 . S
C1662 C1660 1.395 . S
C1662 C1665 1.403 . S
C1663 C1660 1.403 . S
C1663 C1664 1.524 . S
C1663 C1667 1.400 . S
C1664 H1649 0.960 . S
C1664 H1650 0.960 . S
C1664 H1651 0.960 . S
C1664 C1663 1.524 . S
C1665 C1662 1.403 . S
C1665 C1666 1.392 . S
C1665 C1669 1.495 . S
C1666 C1665 1.392 . S
C1666 C1667 1.385 . S
C1666 C1668 1.478 . S
C1667 H1661 0.930 . S
C1667 C1663 1.400 . S
C1667 C1666 1.385 . S
C1668 C1666 1.478 . S
C1668 C1670 1.381 . S
C1668 C1674 1.383 . S
C1669 C1665 1.495 . S
C1669 H1675 0.959 . S
C1669 H1676 0.961 . S
C1669 H1677 0.960 . S
C1670 C1668 1.381 . S
C1670 C1671 1.394 . S
C1670 H1678 0.930 . S
C1671 C1670 1.394 . S
C1671 C1672 1.383 . S
C1671 H1679 0.929 . S
C1672 C1671 1.383 . S
C1672 C1673 1.377 . S
C1673 H1657 0.930 . S
C1673 C1672 1.377 . S
C1673 C1674 1.379 . S
C1674 H1658 0.931 . S
C1674 C1668 1.383 . S
C1674 C1673 1.379 . S
H1675 C1669 0.959 . S
H1676 C1669 0.961 . S
H1677 C1669 0.960 . S
H1678 C1670 0.930 . S
H1679 C1671 0.929 . S
H1680 C1688 0.929 . S
H1681 C1690 0.930 . S
H1682 C1692 0.930 . S
H1683 C1695 0.929 . S
H1684 C1698 0.930 . S
H1685 C1700 0.960 . S
H1686 C1700 0.960 . S
H1687 C1700 0.960 . S
C1688 H1680 0.929 . S
C1688 C1689 1.377 . S
C1688 C1690 1.384 . S
C1689 C1688 1.377 . S
C1689 C1695 1.390 . S
C1690 H1681 0.930 . S
C1690 C1688 1.384 . S
C1690 C1691 1.372 . S
C1691 C1690 1.372 . S
C1691 C1692 1.400 . S
C1691 C1696 1.490 . S
C1692 H1682 0.930 . S
C1692 C1691 1.400 . S
C1692 C1695 1.386 . S
H1693 C1709 0.930 . S
H1694 C1710 0.931 . S
C1695 H1683 0.929 . S
C1695 C1689 1.390 . S
C1695 C1692 1.386 . S
C1696 C1691 1.490 . S
C1696 C1698 1.395 . S
C1696 C1699 1.403 1_556 S
H1697 C1703 0.930 . S
C1698 H1684 0.930 . S
C1698 C1696 1.395 . S
C1698 C1701 1.403 . S
C1699 C1696 1.403 1_554 S
C1699 C1700 1.524 . S
C1699 C1703 1.400 . S
C1700 H1685 0.960 . S
C1700 H1686 0.960 . S
C1700 H1687 0.960 . S
C1700 C1699 1.524 . S
C1701 C1698 1.403 . S
C1701 C1702 1.392 1_556 S
C1701 C1705 1.495 . S
C1702 C1701 1.392 1_554 S
C1702 C1703 1.385 . S
C1702 C1704 1.478 . S
C1703 H1697 0.930 . S
C1703 C1699 1.400 . S
C1703 C1702 1.385 . S
C1704 C1702 1.478 . S
C1704 C1706 1.381 . S
C1704 C1710 1.383 . S
C1705 C1701 1.495 . S
C1705 H1711 0.959 . S
C1705 H1712 0.961 . S
C1705 H1713 0.960 . S
C1706 C1704 1.381 . S
C1706 C1707 1.394 . S
C1706 H1714 0.930 . S
C1707 C1706 1.394 . S
C1707 C1708 1.383 . S
C1707 H1715 0.929 . S
C1708 C1707 1.383 . S
C1708 C1709 1.377 . S
C1709 H1693 0.930 . S
C1709 C1708 1.377 . S
C1709 C1710 1.379 . S
C1710 H1694 0.931 . S
C1710 C1704 1.383 . S
C1710 C1709 1.379 . S
H1711 C1705 0.959 . S
H1712 C1705 0.961 . S
H1713 C1705 0.960 . S
H1714 C1706 0.930 . S
H1715 C1707 0.929 . S
H1716 C1724 0.929 . S
H1717 C1726 0.930 . S
H1718 C1728 0.930 . S
H1719 C1731 0.929 . S
H1720 C1734 0.930 . S
H1721 C1736 0.960 . S
H1722 C1736 0.960 . S
H1723 C1736 0.960 . S
C1724 H1716 0.929 . S
C1724 C1725 1.377 . S
C1724 C1726 1.384 . S
C1725 C1724 1.377 . S
C1725 C1731 1.390 . S
C1726 H1717 0.930 . S
C1726 C1724 1.384 . S
C1726 C1727 1.372 . S
C1727 C1726 1.372 . S
C1727 C1728 1.400 . S
C1727 C1732 1.490 . S
C1728 H1718 0.930 . S
C1728 C1727 1.400 . S
C1728 C1731 1.386 . S
H1729 C1745 0.930 . S
H1730 C1746 0.931 . S
C1731 H1719 0.929 . S
C1731 C1725 1.390 . S
C1731 C1728 1.386 . S
C1732 C1727 1.490 . S
C1732 C1734 1.395 . S
C1732 C1735 1.403 . S
H1733 C1739 0.930 . S
C1734 H1720 0.930 . S
C1734 C1732 1.395 . S
C1734 C1737 1.403 . S
C1735 C1732 1.403 . S
C1735 C1736 1.524 . S
C1735 C1739 1.400 . S
C1736 H1721 0.960 . S
C1736 H1722 0.960 . S
C1736 H1723 0.960 . S
C1736 C1735 1.524 . S
C1737 C1734 1.403 . S
C1737 C1738 1.392 . S
C1737 C1741 1.495 . S
C1738 C1737 1.392 . S
C1738 C1739 1.385 . S
C1738 C1740 1.478 . S
C1739 H1733 0.930 . S
C1739 C1735 1.400 . S
C1739 C1738 1.385 . S
C1740 C1738 1.478 . S
C1740 C1742 1.381 . S
C1740 C1746 1.383 . S
C1741 C1737 1.495 . S
C1741 H1747 0.959 . S
C1741 H1748 0.961 . S
C1741 H1749 0.960 . S
C1742 C1740 1.381 . S
C1742 C1743 1.394 . S
C1742 H1750 0.930 . S
C1743 C1742 1.394 . S
C1743 C1744 1.383 . S
C1743 H1751 0.929 . S
C1744 C1743 1.383 . S
C1744 C1745 1.377 . S
C1745 H1729 0.930 . S
C1745 C1744 1.377 . S
C1745 C1746 1.379 . S
C1746 H1730 0.931 . S
C1746 C1740 1.383 . S
C1746 C1745 1.379 . S
H1747 C1741 0.959 . S
H1748 C1741 0.961 . S
H1749 C1741 0.960 . S
H1750 C1742 0.930 . S
H1751 C1743 0.929 . S
H1752 C1760 0.929 . S
H1753 C1762 0.930 . S
H1754 C1764 0.930 . S
H1755 C1767 0.929 . S
H1756 C1770 0.933 . S
H1757 C1772 0.960 . S
H1758 C1772 0.960 . S
H1759 C1772 0.960 . S
C1760 H1752 0.929 . S
C1760 C1761 1.377 . S
C1760 C1762 1.384 . S
C1761 C1760 1.377 . S
C1761 C1767 1.390 . S
C1762 H1753 0.930 . S
C1762 C1760 1.384 . S
C1762 C1763 1.372 . S
C1763 C1762 1.372 . S
C1763 C1764 1.400 . S
C1763 C1768 1.490 . S
C1764 H1754 0.930 . S
C1764 C1763 1.400 . S
C1764 C1767 1.386 . S
H1765 C1781 0.930 . S
H1766 C1782 0.931 . S
C1767 H1755 0.929 . S
C1767 C1761 1.390 . S
C1767 C1764 1.386 . S
C1768 C1763 1.490 . S
C1768 C1770 1.416 . S
C1768 C1771 1.403 . S
H1769 C1775 0.930 . S
C1770 H1756 0.933 . S
C1770 C1768 1.416 . S
C1770 C1773 1.381 1_556 S
C1771 C1768 1.403 . S
C1771 C1772 1.524 . S
C1771 C1775 1.400 1_556 S
C1772 H1757 0.960 . S
C1772 H1758 0.960 . S
C1772 H1759 0.960 . S
C1772 C1771 1.524 . S
C1773 C1770 1.381 1_554 S
C1773 C1774 1.392 . S
C1773 C1777 1.495 . S
C1774 C1773 1.392 . S
C1774 C1775 1.385 . S
C1774 C1776 1.478 . S
C1775 H1769 0.930 . S
C1775 C1771 1.400 1_554 S
C1775 C1774 1.385 . S
C1776 C1774 1.478 . S
C1776 C1778 1.381 . S
C1776 C1782 1.383 . S
C1777 C1773 1.495 . S
C1777 H1783 0.959 . S
C1777 H1784 0.961 . S
C1777 H1785 0.960 . S
C1778 C1776 1.381 . S
C1778 C1779 1.394 . S
C1778 H1786 0.930 . S
C1779 C1778 1.394 . S
C1779 C1780 1.383 . S
C1779 H1787 0.929 . S
C1780 C1779 1.383 . S
C1780 C1781 1.377 . S
C1781 H1765 0.930 . S
C1781 C1780 1.377 . S
C1781 C1782 1.379 . S
C1782 H1766 0.931 . S
C1782 C1776 1.383 . S
C1782 C1781 1.379 . S
H1783 C1777 0.959 . S
H1784 C1777 0.961 . S
H1785 C1777 0.960 . S
H1786 C1778 0.930 . S
H1787 C1779 0.929 . S
H1788 C1796 0.929 . S
H1789 C1798 0.930 . S
H1790 C1800 0.930 . S
H1791 C1803 0.929 . S
H1792 C1806 0.930 . S
H1793 C1808 0.960 . S
H1794 C1808 0.960 . S
H1795 C1808 0.960 . S
C1796 H1788 0.929 . S
C1796 C1797 1.377 . S
C1796 C1798 1.384 . S
C1797 C1796 1.377 . S
C1797 C1803 1.390 . S
C1798 H1789 0.930 . S
C1798 C1796 1.384 . S
C1798 C1799 1.372 . S
C1799 C1798 1.372 . S
C1799 C1800 1.400 . S
C1799 C1804 1.490 . S
C1800 H1790 0.930 . S
C1800 C1799 1.400 . S
C1800 C1803 1.386 . S
H1801 C1817 0.930 . S
H1802 C1818 0.931 . S
C1803 H1791 0.929 . S
C1803 C1797 1.390 . S
C1803 C1800 1.386 . S
C1804 C1799 1.490 . S
C1804 C1806 1.395 . S
C1804 C1807 1.403 . S
H1805 C1811 0.930 . S
C1806 H1792 0.930 . S
C1806 C1804 1.395 . S
C1806 C1809 1.403 . S
C1807 C1804 1.403 . S
C1807 C1808 1.524 . S
C1807 C1811 1.400 . S
C1808 H1793 0.960 . S
C1808 H1794 0.960 . S
C1808 H1795 0.960 . S
C1808 C1807 1.524 . S
C1809 C1806 1.403 . S
C1809 C1810 1.392 . S
C1809 C1813 1.495 . S
C1810 C1809 1.392 . S
C1810 C1811 1.385 . S
C1810 C1812 1.478 . S
C1811 H1805 0.930 . S
C1811 C1807 1.400 . S
C1811 C1810 1.385 . S
C1812 C1810 1.478 . S
C1812 C1814 1.381 . S
C1812 C1818 1.383 . S
C1813 C1809 1.495 . S
C1813 H1819 0.959 . S
C1813 H1820 0.961 . S
C1813 H1821 0.960 . S
C1814 C1812 1.381 . S
C1814 C1815 1.394 . S
C1814 H1822 0.930 . S
C1815 C1814 1.394 . S
C1815 C1816 1.383 . S
C1815 H1823 0.929 . S
C1816 C1815 1.383 . S
C1816 C1817 1.377 . S
C1817 H1801 0.930 . S
C1817 C1816 1.377 . S
C1817 C1818 1.379 . S
C1818 H1802 0.931 . S
C1818 C1812 1.383 . S
C1818 C1817 1.379 . S
H1819 C1813 0.959 . S
H1820 C1813 0.961 . S
H1821 C1813 0.960 . S
H1822 C1814 0.930 . S
H1823 C1815 0.929 . S
H1824 C1832 0.929 . S
H1825 C1834 0.930 . S
H1826 C1836 0.930 . S
H1827 C1839 0.929 . S
H1828 C1842 0.930 . S
H1829 C1844 0.960 . S
H1830 C1844 0.960 . S
H1831 C1844 0.960 . S
C1832 H1824 0.929 . S
C1832 C1833 1.377 . S
C1832 C1834 1.384 . S
C1833 C1832 1.377 . S
C1833 C1839 1.390 . S
C1834 H1825 0.930 . S
C1834 C1832 1.384 . S
C1834 C1835 1.372 . S
C1835 C1834 1.372 . S
C1835 C1836 1.400 . S
C1835 C1840 1.490 . S
C1836 H1826 0.930 . S
C1836 C1835 1.400 . S
C1836 C1839 1.386 . S
H1837 C1853 0.930 . S
H1838 C1854 0.931 . S
C1839 H1827 0.929 . S
C1839 C1833 1.390 . S
C1839 C1836 1.386 . S
C1840 C1835 1.490 . S
C1840 C1842 1.395 1_554 S
C1840 C1843 1.403 . S
H1841 C1847 0.930 . S
C1842 H1828 0.930 . S
C1842 C1840 1.395 1_556 S
C1842 C1845 1.403 . S
C1843 C1840 1.403 . S
C1843 C1844 1.524 . S
C1843 C1847 1.400 . S
C1844 H1829 0.960 . S
C1844 H1830 0.960 . S
C1844 H1831 0.960 . S
C1844 C1843 1.524 . S
C1845 C1842 1.403 . S
C1845 C1846 1.392 . S
C1845 C1849 1.495 . S
C1846 C1845 1.392 . S
C1846 C1847 1.385 1_556 S
C1846 C1848 1.478 . S
C1847 H1841 0.930 . S
C1847 C1843 1.400 . S
C1847 C1846 1.385 1_554 S
C1848 C1846 1.478 . S
C1848 C1850 1.381 . S
C1848 C1854 1.383 . S
C1849 C1845 1.495 . S
C1849 H1855 0.959 . S
C1849 H1856 0.961 . S
C1849 H1857 0.960 . S
C1850 C1848 1.381 . S
C1850 C1851 1.394 . S
C1850 H1858 0.930 . S
C1851 C1850 1.394 . S
C1851 C1852 1.383 . S
C1851 H1859 0.929 . S
C1852 C1851 1.383 . S
C1852 C1853 1.377 . S
C1853 H1837 0.930 . S
C1853 C1852 1.377 . S
C1853 C1854 1.379 . S
C1854 H1838 0.931 . S
C1854 C1848 1.383 . S
C1854 C1853 1.379 . S
H1855 C1849 0.959 . S
H1856 C1849 0.961 . S
H1857 C1849 0.960 . S
H1858 C1850 0.930 . S
H1859 C1851 0.929 . S
H1860 C1868 0.929 . S
H1861 C1870 0.930 . S
H1862 C1872 0.930 . S
H1863 C1875 0.929 . S
H1864 C1878 0.930 . S
H1865 C1880 0.960 . S
H1866 C1880 0.960 . S
H1867 C1880 0.960 . S
C1868 H1860 0.929 . S
C1868 C1869 1.377 . S
C1868 C1870 1.384 . S
C1869 C1868 1.377 . S
C1869 C1875 1.390 . S
C1870 H1861 0.930 . S
C1870 C1868 1.384 . S
C1870 C1871 1.372 . S
C1871 C1870 1.372 . S
C1871 C1872 1.400 . S
C1871 C1876 1.490 . S
C1872 H1862 0.930 . S
C1872 C1871 1.400 . S
C1872 C1875 1.386 . S
H1873 C1889 0.930 . S
H1874 C1890 0.931 . S
C1875 H1863 0.929 . S
C1875 C1869 1.390 . S
C1875 C1872 1.386 . S
C1876 C1871 1.490 . S
C1876 C1878 1.395 . S
C1876 C1879 1.403 . S
H1877 C1883 0.930 . S
C1878 H1864 0.930 . S
C1878 C1876 1.395 . S
C1878 C1881 1.403 . S
C1879 C1876 1.403 . S
C1879 C1880 1.524 . S
C1879 C1883 1.400 . S
C1880 H1865 0.960 . S
C1880 H1866 0.960 . S
C1880 H1867 0.960 . S
C1880 C1879 1.524 . S
C1881 C1878 1.403 . S
C1881 C1882 1.392 . S
C1881 C1885 1.495 . S
C1882 C1881 1.392 . S
C1882 C1883 1.385 . S
C1882 C1884 1.478 . S
C1883 H1877 0.930 . S
C1883 C1879 1.400 . S
C1883 C1882 1.385 . S
C1884 C1882 1.478 . S
C1884 C1886 1.381 . S
C1884 C1890 1.383 . S
C1885 C1881 1.495 . S
C1885 H1891 0.959 . S
C1885 H1892 0.961 . S
C1885 H1893 0.960 . S
C1886 C1884 1.381 . S
C1886 C1887 1.394 . S
C1886 H1894 0.930 . S
C1887 C1886 1.394 . S
C1887 C1888 1.383 . S
C1887 H1895 0.929 . S
C1888 C1887 1.383 . S
C1888 C1889 1.377 . S
C1889 H1873 0.930 . S
C1889 C1888 1.377 . S
C1889 C1890 1.379 . S
C1890 H1874 0.931 . S
C1890 C1884 1.383 . S
C1890 C1889 1.379 . S
H1891 C1885 0.959 . S
H1892 C1885 0.961 . S
H1893 C1885 0.960 . S
H1894 C1886 0.930 . S
H1895 C1887 0.929 . S
H1896 C1904 0.929 . S
H1897 C1906 0.932 1_556 S
H1898 C1908 0.930 . S
H1899 C1911 0.929 . S
H1900 C1914 0.930 . S
H1901 C1916 0.960 . S
H1902 C1916 0.960 . S
H1903 C1916 0.960 . S
C1904 H1896 0.929 . S
C1904 C1905 1.377 . S
C1904 C1906 1.384 . S
C1905 C1904 1.377 . S
C1905 C1911 1.390 . S
C1906 H1897 0.932 1_554 S
C1906 C1904 1.384 . S
C1906 C1907 1.372 . S
C1907 C1906 1.372 . S
C1907 C1908 1.400 . S
C1907 C1912 1.490 . S
C1908 H1898 0.930 . S
C1908 C1907 1.400 . S
C1908 C1911 1.386 . S
H1909 C1925 0.930 . S
H1910 C1926 0.931 . S
C1911 H1899 0.929 . S
C1911 C1905 1.390 . S
C1911 C1908 1.386 . S
C1912 C1907 1.490 . S
C1912 C1914 1.395 1_554 S
C1912 C1915 1.403 . S
H1913 C1919 0.930 . S
C1914 H1900 0.930 . S
C1914 C1912 1.395 1_556 S
C1914 C1917 1.403 . S
C1915 C1912 1.403 . S
C1915 C1916 1.524 . S
C1915 C1919 1.400 . S
C1916 H1901 0.960 . S
C1916 H1902 0.960 . S
C1916 H1903 0.960 . S
C1916 C1915 1.524 . S
C1917 C1914 1.403 . S
C1917 C1918 1.392 . S
C1917 C1921 1.495 . S
C1918 C1917 1.392 . S
C1918 C1919 1.385 1_556 S
C1918 C1920 1.478 . S
C1919 H1913 0.930 . S
C1919 C1915 1.400 . S
C1919 C1918 1.385 1_554 S
C1920 C1918 1.478 . S
C1920 C1922 1.381 . S
C1920 C1926 1.383 . S
C1921 C1917 1.495 . S
C1921 H1927 0.959 . S
C1921 H1928 0.961 . S
C1921 H1929 0.960 . S
C1922 C1920 1.381 . S
C1922 C1923 1.394 . S
C1922 H1930 0.930 . S
C1923 C1922 1.394 . S
C1923 C1924 1.383 . S
C1923 H1931 0.929 . S
C1924 C1923 1.383 . S
C1924 C1925 1.377 . S
C1925 H1909 0.930 . S
C1925 C1924 1.377 . S
C1925 C1926 1.379 . S
C1926 H1910 0.931 . S
C1926 C1920 1.383 . S
C1926 C1925 1.379 . S
H1927 C1921 0.959 . S
H1928 C1921 0.961 . S
H1929 C1921 0.960 . S
H1930 C1922 0.930 . S
H1931 C1923 0.929 . S
H1932 C1940 0.929 . S
H1933 C1942 0.930 . S
H1934 C1944 0.930 . S
H1935 C1947 0.929 . S
H1936 C1950 0.930 . S
H1937 C1952 0.960 . S
H1938 C1952 0.960 . S
H1939 C1952 0.960 . S
C1940 H1932 0.929 . S
C1940 C1941 1.377 . S
C1940 C1942 1.384 . S
C1941 C1940 1.377 . S
C1941 C1947 1.390 . S
C1942 H1933 0.930 . S
C1942 C1940 1.384 . S
C1942 C1943 1.372 . S
C1943 C1942 1.372 . S
C1943 C1944 1.400 . S
C1943 C1948 1.490 . S
C1944 H1934 0.930 . S
C1944 C1943 1.400 . S
C1944 C1947 1.386 . S
H1945 C1961 0.930 . S
H1946 C1962 0.931 . S
C1947 H1935 0.929 . S
C1947 C1941 1.390 . S
C1947 C1944 1.386 . S
C1948 C1943 1.490 . S
C1948 C1950 1.395 . S
C1948 C1951 1.403 . S
H1949 C1955 0.930 . S
C1950 H1936 0.930 . S
C1950 C1948 1.395 . S
C1950 C1953 1.403 . S
C1951 C1948 1.403 . S
C1951 C1952 1.524 . S
C1951 C1955 1.400 . S
C1952 H1937 0.960 . S
C1952 H1938 0.960 . S
C1952 H1939 0.960 . S
C1952 C1951 1.524 . S
C1953 C1950 1.403 . S
C1953 C1954 1.392 . S
C1953 C1957 1.495 . S
C1954 C1953 1.392 . S
C1954 C1955 1.385 . S
C1954 C1956 1.478 . S
C1955 H1949 0.930 . S
C1955 C1951 1.400 . S
C1955 C1954 1.385 . S
C1956 C1954 1.478 . S
C1956 C1958 1.381 . S
C1956 C1962 1.383 . S
C1957 C1953 1.495 . S
C1957 H1963 0.959 . S
C1957 H1964 0.961 . S
C1957 H1965 0.960 . S
C1958 C1956 1.381 . S
C1958 C1959 1.394 . S
C1958 H1966 0.930 . S
C1959 C1958 1.394 . S
C1959 C1960 1.383 . S
C1959 H1967 0.929 . S
C1960 C1959 1.383 . S
C1960 C1961 1.377 . S
C1961 H1945 0.930 . S
C1961 C1960 1.377 . S
C1961 C1962 1.379 . S
C1962 H1946 0.931 . S
C1962 C1956 1.383 . S
C1962 C1961 1.379 . S
H1963 C1957 0.959 . S
H1964 C1957 0.961 . S
H1965 C1957 0.960 . S
H1966 C1958 0.930 . S
H1967 C1959 0.929 . S
H1968 C1976 0.929 . S
H1969 C1978 0.930 . S
H1970 C1980 0.930 . S
H1971 C1983 0.929 . S
H1972 C1986 0.930 . S
H1973 C1988 0.960 . S
H1974 C1988 0.960 . S
H1975 C1988 0.960 . S
C1976 H1968 0.929 . S
C1976 C1977 1.377 . S
C1976 C1978 1.384 . S
C1977 C1976 1.377 . S
C1977 C1983 1.390 . S
C1978 H1969 0.930 . S
C1978 C1976 1.384 . S
C1978 C1979 1.372 . S
C1979 C1978 1.372 . S
C1979 C1980 1.400 . S
C1979 C1984 1.490 . S
C1980 H1970 0.930 . S
C1980 C1979 1.400 . S
C1980 C1983 1.386 . S
H1981 C1997 0.930 . S
H1982 C1998 0.931 . S
C1983 H1971 0.929 . S
C1983 C1977 1.390 . S
C1983 C1980 1.386 . S
C1984 C1979 1.490 . S
C1984 C1986 1.395 1_556 S
C1984 C1987 1.403 . S
H1985 C1991 0.930 . S
C1986 H1972 0.930 . S
C1986 C1984 1.395 1_554 S
C1986 C1989 1.403 . S
C1987 C1984 1.403 . S
C1987 C1988 1.524 . S
C1987 C1991 1.400 . S
C1988 H1973 0.960 . S
C1988 H1974 0.960 . S
C1988 H1975 0.960 . S
C1988 C1987 1.524 . S
C1989 C1986 1.403 . S
C1989 C1990 1.392 . S
C1989 C1993 1.495 . S
C1990 C1989 1.392 . S
C1990 C1991 1.385 1_554 S
C1990 C1992 1.478 . S
C1991 H1985 0.930 . S
C1991 C1987 1.400 . S
C1991 C1990 1.385 1_556 S
C1992 C1990 1.478 . S
C1992 C1994 1.381 . S
C1992 C1998 1.383 . S
C1993 C1989 1.495 . S
C1993 H1999 0.959 . S
C1993 H2000 0.961 . S
C1993 H2001 0.960 . S
C1994 C1992 1.381 . S
C1994 C1995 1.394 . S
C1994 H2002 0.930 . S
C1995 C1994 1.394 . S
C1995 C1996 1.383 . S
C1995 H2003 0.929 . S
C1996 C1995 1.383 . S
C1996 C1997 1.377 . S
C1997 H1981 0.930 . S
C1997 C1996 1.377 . S
C1997 C1998 1.379 . S
C1998 H1982 0.931 . S
C1998 C1992 1.383 . S
C1998 C1997 1.379 . S
H1999 C1993 0.959 . S
H2000 C1993 0.961 . S
H2001 C1993 0.960 . S
H2002 C1994 0.930 . S
H2003 C1995 0.929 . S
H2004 C2012 0.929 . S
H2005 C2014 0.930 . S
H2006 C2016 0.930 . S
H2007 C2019 0.929 . S
H2008 C2022 0.930 . S
H2009 C2024 0.960 . S
H2010 C2024 0.960 . S
H2011 C2024 0.960 . S
C2012 H2004 0.929 . S
C2012 C2013 1.377 . S
C2012 C2014 1.384 . S
C2013 C2012 1.377 . S
C2013 C2019 1.390 . S
C2014 H2005 0.930 . S
C2014 C2012 1.384 . S
C2014 C2015 1.372 . S
C2015 C2014 1.372 . S
C2015 C2016 1.400 . S
C2015 C2020 1.490 . S
C2016 H2006 0.930 . S
C2016 C2015 1.400 . S
C2016 C2019 1.386 . S
H2017 C2033 0.930 . S
H2018 C2034 0.931 . S
C2019 H2007 0.929 . S
C2019 C2013 1.390 . S
C2019 C2016 1.386 . S
C2020 C2015 1.490 . S
C2020 C2022 1.395 . S
C2020 C2023 1.403 . S
H2021 C2027 0.930 . S
C2022 H2008 0.930 . S
C2022 C2020 1.395 . S
C2022 C2025 1.403 . S
C2023 C2020 1.403 . S
C2023 C2024 1.524 . S
C2023 C2027 1.400 . S
C2024 H2009 0.960 . S
C2024 H2010 0.960 . S
C2024 H2011 0.960 . S
C2024 C2023 1.524 . S
C2025 C2022 1.403 . S
C2025 C2026 1.392 . S
C2025 C2029 1.495 . S
C2026 C2025 1.392 . S
C2026 C2027 1.385 . S
C2026 C2028 1.478 . S
C2027 H2021 0.930 . S
C2027 C2023 1.400 . S
C2027 C2026 1.385 . S
C2028 C2026 1.478 . S
C2028 C2030 1.381 . S
C2028 C2034 1.383 . S
C2029 C2025 1.495 . S
C2029 H2035 0.959 . S
C2029 H2036 0.961 . S
C2029 H2037 0.960 . S
C2030 C2028 1.381 . S
C2030 C2031 1.394 . S
C2030 H2038 0.930 . S
C2031 C2030 1.394 . S
C2031 C2032 1.383 . S
C2031 H2039 0.929 . S
C2032 C2031 1.383 . S
C2032 C2033 1.377 . S
C2033 H2017 0.930 . S
C2033 C2032 1.377 . S
C2033 C2034 1.379 . S
C2034 H2018 0.931 . S
C2034 C2028 1.383 . S
C2034 C2033 1.379 . S
H2035 C2029 0.959 . S
H2036 C2029 0.961 . S
H2037 C2029 0.960 . S
H2038 C2030 0.930 . S
H2039 C2031 0.929 . S
C321 C5 1.440 . S
C340 C200 1.429 . S
C357 C18 1.437 . S
C376 C213 1.443 . S
C393 C224 1.439 . S
C412 C31 1.437 . S
C429 C161 1.436 . S
C448 C44 1.437 . S
C465 C174 1.437 . S
C484 C57 1.429 . S
C501 C187 1.437 . S
C520 C68 1.431 . S
C537 C276 1.439 . S
C556 C83 1.427 . S
C573 C94 1.439 . S
C592 C289 1.427 . S
C609 C302 1.436 . S
C628 C107 1.443 . S
C645 C122 1.439 . S
C664 C237 1.426 . S
C681 C250 1.437 . S
C700 C133 1.431 . S
C717 C148 1.436 . S
C736 C265 1.441 . S
C753 C134 1.492 . S
C772 C10 1.480 . S
C789 C153 1.492 . S
C808 C23 1.501 . S
C825 C36 1.493 . S
C844 C88 1.479 . S
C861 C49 1.492 . S
C880 C95 1.498 . S
C897 C108 1.494 . S
C916 C62 1.478 . S
C933 C69 1.492 . S
C952 C127 1.481 . S
C969 C290 1.493 . S
C988 C166 1.481 . S
C1005 C179 1.495 . S
C1024 C303 1.502 . S
C1041 C192 1.493 . S
C1060 C238 1.483 . S
C1077 C251 1.495 . S
C1096 C205 1.502 . S
C1113 C218 1.492 . S
C1132 C270 1.479 . S
C1149 C225 1.495 . S
C1168 C277 1.502 . S
C1185 C3 1.562 . S
C1204 C239 1.566 . S
C1221 C252 1.563 . S
C1240 C16 1.550 . S
C1257 C29 1.560 . S
C1276 C263 1.557 . S
C1293 C42 1.562 . S
C1312 C278 1.565 . S
C1329 C291 1.562 . S
C1348 C55 1.550 . S
C1365 C70 1.560 . S
C1384 C304 1.555 . S
C1401 C81 1.562 . S
C1420 C159 1.551 . S
C1437 C96 1.561 . S
C1456 C172 1.567 . S
C1473 C185 1.562 . S
C1492 C109 1.549 . S
C1509 C198 1.563 . S
C1528 C120 1.551 . S
C1545 C135 1.562 . S
C1564 C211 1.565 . S
C1581 C226 1.560 . S
C1600 C146 1.565 . S
C1617 C82 1.488 . S
C1636 C4 1.489 . S
C1653 C17 1.487 . S
C1672 C101 1.480 . S
C1689 C114 1.488 . S
C1708 C30 1.489 . S
C1725 C121 1.488 . S
C1744 C43 1.489 . S
C1761 C140 1.486 . S
C1780 C56 1.477 . S
C1797 C75 1.485 . S
C1816 C147 1.480 . S
C1833 C244 1.487 . S
C1852 C160 1.478 . S
C1869 C173 1.487 . S
C1888 C257 1.480 . S
C1905 C264 1.488 . S
C1924 C186 1.477 . S
C1941 C283 1.487 . S
C1960 C199 1.484 . S
C1977 C212 1.486 . S
C1996 C296 1.484 . S
C2013 C231 1.486 . S
C2032 C309 1.485 . S
