# Generated by pormake.
# Topology ttw, (5)-cn, num edge types: 1
# Building blocks:
#     Node 0, Type 0, BuildingBlock: XOMCOT_clean_sbu_1, # of connection points: 5
#     Node 1, Type 0, BuildingBlock: XOMCOT_clean_sbu_1, # of connection points: 5
#     Node 2, Type 0, BuildingBlock: XOMCOT_clean_sbu_1, # of connection points: 5
#     Node 3, Type 0, BuildingBlock: XOMCOT_clean_sbu_1, # of connection points: 5
#     Node 4, Type 0, BuildingBlock: XOMCOT_clean_sbu_1, # of connection points: 5
#     Node 5, Type 0, BuildingBlock: XOMCOT_clean_sbu_1, # of connection points: 5
#     Edge 6, Type (0, 0), BuildingBlock: EZIPEK_clean_linker_0, # of connection points: 2
#     Edge 7, Type (0, 0), BuildingBlock: EZIPEK_clean_linker_0, # of connection points: 2
#     Edge 8, Type (0, 0), BuildingBlock: EZIPEK_clean_linker_0, # of connection points: 2
#     Edge 9, Type (0, 0), BuildingBlock: EZIPEK_clean_linker_0, # of connection points: 2
#     Edge 10, Type (0, 0), BuildingBlock: EZIPEK_clean_linker_0, # of connection points: 2
#     Edge 11, Type (0, 0), BuildingBlock: EZIPEK_clean_linker_0, # of connection points: 2
#     Edge 12, Type (0, 0), BuildingBlock: EZIPEK_clean_linker_0, # of connection points: 2
#     Edge 13, Type (0, 0), BuildingBlock: EZIPEK_clean_linker_0, # of connection points: 2
#     Edge 14, Type (0, 0), BuildingBlock: EZIPEK_clean_linker_0, # of connection points: 2
#     Edge 15, Type (0, 0), BuildingBlock: EZIPEK_clean_linker_0, # of connection points: 2
#     Edge 16, Type (0, 0), BuildingBlock: EZIPEK_clean_linker_0, # of connection points: 2
#     Edge 17, Type (0, 0), BuildingBlock: EZIPEK_clean_linker_0, # of connection points: 2
#     Edge 18, Type (0, 0), BuildingBlock: EZIPEK_clean_linker_0, # of connection points: 2
#     Edge 19, Type (0, 0), BuildingBlock: EZIPEK_clean_linker_0, # of connection points: 2
#     Edge 20, Type (0, 0), BuildingBlock: EZIPEK_clean_linker_0, # of connection points: 2
# Relax obj value: 0.318
# Max RMSD: 0.309
# Mean RMSD: 0.263
data_MOF--net-ttw--node1-XOMCOT_clean_sbu_1--edge1-EZIPEK_clean_linker_0
_symmetry_space_group_name_H-M    P1
_symmetry_Int_Tables_number       1
_symmetry_cell_setting            triclinic
loop_
_symmetry_equiv_pos_as_xyz
'x, y, z'
_cell_length_a     41.023639
_cell_length_b     41.258979
_cell_length_c     13.612663
_cell_angle_alpha  93.859565
_cell_angle_beta   94.790206
_cell_angle_gamma 118.9502
loop_
_atom_site_label
_atom_site_type_symbol
_atom_site_fract_x
_atom_site_fract_y
_atom_site_fract_z
_atom_type_partial_charge
C0 C 0.10209 0.54588 0.8889 0.0
C1 C 0.10031 0.54717 0.78827 0.0
N2 N 0.13548 0.56768 0.76689 0.0
N3 N 0.13814 0.56637 0.93223 0.0
C4 C 0.15794 0.57903 0.85502 0.0
H5 H 0.07853 0.52895 0.92651 0.0
Co6 Co 0.15433 0.56883 0.06788 0.0
C7 C 0.20153 0.6497 0.14692 0.0
O8 O 0.2174 0.64235 0.22348 0.0
N9 N 0.1695 0.56925 0.20466 0.0
C10 C 0.19517 0.55937 0.34261 0.0
C11 C 0.19342 0.55775 0.24119 0.0
C12 C 0.15683 0.57739 0.28681 0.0
N13 N 0.17205 0.57156 0.37109 0.0
O14 O 0.10936 0.56874 0.10167 0.0
H15 H 0.208 0.54739 0.19775 0.0
H16 H 0.13638 0.5868 0.28529 0.0
O17 O 0.17791 0.6233 0.08087 0.0
C18 C 0.08096 0.53984 0.12264 0.0
O19 O 0.08275 0.50902 0.12725 0.0
N20 N 0.19788 0.56798 0.03212 0.0
C21 C 0.25858 0.55755 0.99833 0.0
C22 C 0.26408 0.59319 0.0264 0.0
C23 C 0.23343 0.59791 0.04223 0.0
C24 C 0.19174 0.53328 0.99827 0.0
C25 C 0.22181 0.52737 0.98081 0.0
H26 H 0.23918 0.62568 0.06485 0.0
H27 H 0.16349 0.50979 0.98919 0.0
H28 H 0.18829 0.59429 0.86197 0.0
H29 H 0.07546 0.5319 0.73395 0.0
H30 H 0.21069 0.55044 0.39142 0.0
H31 H 0.29214 0.61715 0.0392 0.0
H32 H 0.21663 0.49942 0.95844 0.0
C33 C 0.58531 0.0529 0.94825 0.0
C34 C 0.5864 0.05167 0.84763 0.0
N35 N 0.56592 0.06639 0.80971 0.0
N36 N 0.56464 0.06877 0.97338 0.0
C37 C 0.55254 0.07614 0.88691 0.0
H38 H 0.59927 0.04348 1.00051 0.0
Co39 Co 0.55849 0.07742 0.10369 0.0
C40 C 0.56517 0.15162 0.13176 0.0
O41 O 0.58814 0.15774 0.21291 0.0
N42 N 0.55066 0.08383 0.23737 0.0
C43 C 0.51896 0.08674 0.36038 0.0
C44 C 0.52096 0.0874 0.26044 0.0
C45 C 0.56587 0.0803 0.32565 0.0
N46 N 0.54722 0.0823 0.40086 0.0
O47 O 0.50583 0.04539 0.07196 0.0
H48 H 0.5011 0.08933 0.20709 0.0
H49 H 0.58871 0.07443 0.33555 0.0
O50 O 0.55065 0.12014 0.07672 0.0
C51 C 0.48876 0.01 0.06017 0.0
O52 O 0.50789 0.99213 0.06582 0.0
N53 N 0.61149 0.10921 0.13138 0.0
C54 C 0.68861 0.15779 0.16673 0.0
C55 C 0.66608 0.16377 0.09632 0.0
C56 C 0.62797 0.13855 0.07741 0.0
C57 C 0.63377 0.1004 0.19106 0.0
C58 C 0.67266 0.12484 0.21152 0.0
H59 H 0.61169 0.14296 1.01921 0.0
H60 H 0.62173 0.07407 0.2209 0.0
H61 H 0.53461 0.08854 0.88045 0.0
H62 H 0.60117 0.04104 0.80536 0.0
H63 H 0.49794 0.08843 0.40006 0.0
H64 H 0.67789 0.18794 0.05631 0.0
H65 H 0.68994 0.11834 0.26194 0.0
C66 C 0.5365 0.6494 1.00739 0.0
C67 C 0.53995 0.65193 0.90831 0.0
N68 N 0.50643 0.62789 0.85612 0.0
N69 N 0.50051 0.62532 1.01854 0.0
C70 C 0.48341 0.61118 0.92405 0.0
H71 H 0.55929 0.6635 0.06776 0.0
Co72 Co 0.48507 0.61254 0.1441 0.0
C73 C 0.4096 0.58964 0.03056 0.0
O74 O 0.42476 0.6218 0.99449 0.0
N75 N 0.47186 0.59926 0.26962 0.0
C76 C 0.45001 0.56408 0.39099 0.0
C77 C 0.4498 0.56413 0.29001 0.0
C78 C 0.4858 0.62009 0.35967 0.0
N79 N 0.47263 0.59923 0.43439 0.0
O80 O 0.49366 0.57084 0.12334 0.0
H81 H 0.43569 0.53977 0.23496 0.0
H82 H 0.5064 0.64951 0.37047 0.0
O83 O 0.4308 0.58116 0.0853 0.0
C84 C 0.52501 0.57597 0.1657 0.0
O85 O 0.54807 0.60795 0.21995 0.0
N86 N 0.47866 0.65527 0.16782 0.0
C87 C 0.46411 0.7142 0.15806 0.0
C88 C 0.43803 0.68109 0.19085 0.0
C89 C 0.4464 0.65221 0.19805 0.0
C90 C 0.50659 0.68955 0.15264 0.0
C91 C 0.49962 0.71927 0.14493 0.0
H92 H 0.4256 0.62637 0.22029 0.0
H93 H 0.53412 0.694 0.14326 0.0
H94 H 0.45522 0.58814 0.90444 0.0
H95 H 0.56533 0.66906 0.87669 0.0
H96 H 0.43598 0.53994 0.42997 0.0
H97 H 0.41081 0.6769 0.20569 0.0
H98 H 0.52111 0.74535 0.12466 0.0
C99 C 0.90228 0.41703 0.28915 0.0
C100 C 0.90648 0.41964 0.39101 0.0
N101 N 0.88405 0.43207 0.42419 0.0
N102 N 0.87758 0.4281 0.25762 0.0
C103 C 0.86713 0.43746 0.34214 0.0
H104 H 0.91483 0.40567 0.24072 0.0
Co105 Co 0.86068 0.42313 0.12167 0.0
C106 C 0.78819 0.42551 0.14432 0.0
O107 O 0.7664 0.38934 0.12347 0.0
N108 N 0.84472 0.41819 0.98275 0.0
C109 C 0.80917 0.40127 0.83508 0.0
C110 C 0.80913 0.39901 0.9351 0.0
C111 C 0.86599 0.43082 0.90803 0.0
N112 N 0.84495 0.42118 0.81807 0.0
O113 O 0.89887 0.47404 0.11903 0.0
H114 H 0.7845 0.38228 0.96862 0.0
H115 H 0.89631 0.44537 0.91788 0.0
O116 O 0.82409 0.44044 0.14966 0.0
C117 C 0.92951 0.4743 0.10724 0.0
O118 O 0.92873 0.44228 0.08834 0.0
N119 N 0.82726 0.37202 0.12708 0.0
C120 C 0.80206 0.2978 0.16595 0.0
C121 C 0.79398 0.32216 0.22357 0.0
C122 C 0.80763 0.35905 0.20494 0.0
C123 C 0.83267 0.34828 0.06483 0.0
C124 C 0.81929 0.31106 0.08072 0.0
H125 H 0.80381 0.37758 0.25653 0.0
H126 H 0.8493 0.35862 1.00499 0.0
H127 H 0.84567 0.44543 0.34345 0.0
H128 H 0.92249 0.41041 0.43687 0.0
H129 H 0.78499 0.3874 0.77827 0.0
H130 H 0.77769 0.31351 0.28463 0.0
H131 H 0.82336 0.29384 0.02581 0.0
C132 C 0.39402 0.90078 0.25662 0.0
C133 C 0.39398 0.90158 0.35767 0.0
N134 N 0.35833 0.88723 0.37594 0.0
N135 N 0.35834 0.88518 0.20978 0.0
C136 C 0.3374 0.87854 0.28608 0.0
H137 H 0.41919 0.91216 0.22186 0.0
Co138 Co 0.34033 0.87575 0.06987 0.0
C139 C 0.29168 0.80365 0.144 0.0
O140 O 0.32141 0.80698 0.19832 0.0
N141 N 0.32237 0.86755 0.93402 0.0
C142 C 0.28323 0.85269 0.79413 0.0
C143 C 0.28617 0.85441 0.89592 0.0
C144 C 0.34118 0.87465 0.85391 0.0
N145 N 0.3179 0.86592 0.76798 0.0
O146 O 0.31419 0.90272 0.09296 0.0
H147 H 0.26331 0.84715 0.93968 0.0
H148 H 0.37136 0.88661 0.85849 0.0
O149 O 0.29514 0.82914 0.09022 0.0
C150 C 0.33037 0.93786 0.09138 0.0
O151 O 0.31157 0.95573 0.10416 0.0
N152 N 0.36707 0.85 0.04306 0.0
C153 C 0.4074 0.81229 0.04944 0.0
C154 C 0.369 0.79309 1.01435 0.0
C155 C 0.34951 0.81287 1.00828 0.0
C156 C 0.40536 0.86983 0.0561 0.0
C157 C 0.42632 0.85138 0.06356 0.0
H158 H 0.31997 0.79787 0.98105 0.0
H159 H 0.4196 0.89997 0.06579 0.0
H160 H 0.30723 0.86698 0.27598 0.0
H161 H 0.41825 0.9119 0.41363 0.0
H162 H 0.25785 0.84368 0.74325 0.0
H163 H 0.35394 0.76299 0.99667 0.0
H164 H 0.45648 0.86721 0.08451 0.0
C165 C 0.5413 0.39549 0.94165 0.0
C166 C 0.53864 0.39512 0.84023 0.0
N167 N 0.57346 0.4091 0.81479 0.0
N168 N 0.57765 0.4099 0.98008 0.0
C169 C 0.5967 0.41774 0.90052 0.0
H170 H 0.51803 0.38492 0.9846 0.0
Co171 Co 0.59201 0.41218 0.11484 0.0
C172 C 0.67419 0.46555 0.13392 0.0
O173 O 0.67023 0.49233 0.17904 0.0
N174 N 0.60554 0.41312 0.25105 0.0
C175 C 0.6337 0.40645 0.38935 0.0
C176 C 0.63305 0.40648 0.28848 0.0
C177 C 0.58897 0.41578 0.33088 0.0
N178 N 0.60603 0.41233 0.41578 0.0
O179 O 0.59551 0.46038 0.13692 0.0
H180 H 0.6509 0.40073 0.24484 0.0
H181 H 0.56405 0.41857 0.32676 0.0
O182 O 0.64527 0.43455 0.09782 0.0
C183 C 0.56466 0.45942 0.1501 0.0
O184 O 0.53489 0.42718 0.15576 0.0
N185 N 0.58525 0.36426 0.09218 0.0
C186 C 0.56856 0.29035 0.08082 0.0
C187 C 0.60245 0.31754 0.05347 0.0
C188 C 0.61014 0.35453 0.05839 0.0
C189 C 0.55141 0.33785 0.11412 0.0
C190 C 0.54226 0.30049 0.10806 0.0
H191 H 0.63647 0.37515 0.03761 0.0
H192 H 0.53187 0.34615 0.13904 0.0
H193 H 0.62664 0.42829 0.90451 0.0
H194 H 0.51311 0.38435 0.78866 0.0
H195 H 0.65219 0.40126 0.43922 0.0
H196 H 0.62314 0.31038 0.03122 0.0
H197 H 0.51573 0.28 0.12894 0.0
C198 C 0.02453 0.54517 0.05625 0.0
C199 C 0.045 0.53929 0.13613 0.0
C200 C 0.98854 0.51292 0.2193 0.0
C201 C 0.96681 0.5083 0.12814 0.0
N202 N 0.96303 0.52412 0.96314 0.0
N203 N 0.04787 0.52275 0.30191 0.0
C204 C 0.98457 0.52647 0.04816 0.0
C205 C 0.02751 0.52534 0.22119 0.0
N206 N 0.04296 0.56836 0.98891 0.0
N207 N 0.97139 0.50469 0.30288 0.0
H208 H 0.07687 0.53355 0.30736 0.0
H209 H 0.03593 0.50895 0.36164 0.0
H210 H 0.9431 0.49714 0.30132 0.0
H211 H 0.98566 0.50919 0.37373 0.0
H212 H 0.02947 0.5752 0.93256 0.0
H213 H 0.07211 0.58428 0.99637 0.0
H214 H 0.97372 0.53249 0.89694 0.0
H215 H 0.93393 0.51262 0.95925 0.0
C216 C 0.39729 0.97378 0.16913 0.0
C217 C 0.3709 0.9588 0.08207 0.0
C218 C 0.4219 0.97769 0.9788 0.0
C219 C 0.44804 0.99027 0.06639 0.0
N220 N 0.46107 -0.0043 0.24436 0.0
N221 N 0.35763 0.95582 0.90553 0.0
C222 C 0.43586 0.98724 0.16149 0.0
C223 C 0.38303 0.9632 0.987 0.0
N224 N 0.38553 0.97661 0.25871 0.0
N225 N 0.4342 0.97845 0.88822 0.0
H226 H 0.32909 0.94559 0.90987 0.0
H227 H 0.36511 0.96257 0.83552 0.0
H228 H 0.46257 0.98935 0.88025 0.0
H229 H 0.41638 0.96599 0.82163 0.0
H230 H 0.40368 0.99071 0.324 0.0
H231 H 0.35746 0.96778 0.26601 0.0
H232 H 0.45353 0.99029 0.31505 0.0
H233 H 0.48949 0.00518 0.24097 0.0
C234 C 0.55601 0.50778 0.06613 0.0
C235 C 0.56069 0.49334 0.15486 0.0
C236 C 0.53823 0.53005 0.24652 0.0
C237 C 0.53528 0.54604 0.15944 0.0
N238 N 0.54684 0.55487 0.99 0.0
N239 N 0.56521 0.49734 0.33287 0.0
C240 C 0.54571 0.53623 0.07007 0.0
C241 C 0.55454 0.50657 0.24614 0.0
N242 N 0.56029 0.4935 0.97774 0.0
N243 N 0.52381 0.53594 0.32838 0.0
H244 H 0.57858 0.48137 0.33463 0.0
H245 H 0.56469 0.50879 0.40289 0.0
H246 H 0.51038 0.55181 0.32957 0.0
H247 H 0.5217 0.52217 0.3909 0.0
H248 H 0.55261 0.49917 0.90889 0.0
H249 H 0.57005 0.47444 0.97303 0.0
H250 H 0.55814 0.55204 0.92642 0.0
H251 H 0.53877 0.57527 0.98976 0.0
C252 C 0.14145 0.53668 0.50673 0.0
C253 C 0.16113 0.57125 0.46915 0.0
C254 C 0.16296 0.60411 0.62861 0.0
C255 C 0.14648 0.56963 0.66853 0.0
N256 N 0.12813 0.50441 0.65268 0.0
N257 N 0.1949 0.63824 0.49576 0.0
C258 C 0.13799 0.53624 0.60942 0.0
C259 C 0.17304 0.60518 0.53052 0.0
N260 N 0.12518 0.50428 0.44326 0.0
N261 N 0.16793 0.63545 0.68357 0.0
H262 H 0.20246 0.63951 0.42427 0.0
H263 H 0.20755 0.66403 0.53947 0.0
H264 H 0.16084 0.63526 0.75546 0.0
H265 H 0.17655 0.66086 0.65581 0.0
H266 H 0.10744 0.47829 0.46458 0.0
H267 H 0.12635 0.50391 0.36694 0.0
H268 H 0.12484 0.47996 0.6151 0.0
H269 H 0.12728 0.50371 0.72891 0.0
C270 C 0.53795 0.04241 0.53444 0.0
C271 C 0.55414 0.07842 0.50346 0.0
C272 C 0.57939 0.10683 0.67581 0.0
C273 C 0.56036 0.07091 0.70709 0.0
N274 N 0.51694 0.00526 0.6704 0.0
N275 N 0.58742 0.14512 0.54195 0.0
C276 C 0.53832 0.03886 0.63738 0.0
C277 C 0.57403 0.11077 0.57363 0.0
N278 N 0.52301 0.01173 0.46511 0.0
N279 N 0.60363 0.13675 0.74341 0.0
H280 H 0.58527 0.14859 0.46688 0.0
H281 H 0.59877 0.16989 0.58971 0.0
H282 H 0.60826 0.13446 0.81849 0.0
H283 H 0.62108 0.16321 0.72444 0.0
H284 H 0.51346 0.98467 0.48249 0.0
H285 H 0.52356 0.01387 0.38952 0.0
H286 H 0.49741 0.98128 0.62397 0.0
H287 H 0.51637 0.00221 0.74583 0.0
C288 C 0.51686 0.60701 0.69314 0.0
C289 C 0.49774 0.62093 0.74932 0.0
C290 C 0.46238 0.62162 0.59553 0.0
C291 C 0.48352 0.61029 0.53976 0.0
N292 N 0.5359 0.59971 0.53303 0.0
N293 N 0.45722 0.64781 0.75481 0.0
C294 C 0.51238 0.60533 0.58807 0.0
C295 C 0.47172 0.62995 0.70071 0.0
N296 N 0.53799 0.59391 0.74029 0.0
N297 N 0.43301 0.62372 0.54755 0.0
H298 H 0.46442 0.65519 0.83145 0.0
H299 H 0.44065 0.65811 0.72312 0.0
H300 H 0.42661 0.61896 0.47029 0.0
H301 H 0.41384 0.62794 0.58418 0.0
H302 H 0.5498 0.58013 0.70298 0.0
H303 H 0.54065 0.59359 0.81698 0.0
H304 H 0.55951 0.59883 0.56394 0.0
H305 H 0.5339 0.59991 0.45632 0.0
C306 C 0.87451 0.46034 0.68586 0.0
C307 C 0.85743 0.425 0.72133 0.0
C308 C 0.8535 0.39467 0.55666 0.0
C309 C 0.87344 0.43004 0.52301 0.0
N310 N 0.90711 0.49685 0.557 0.0
N311 N 0.83854 0.35975 0.69779 0.0
C312 C 0.88515 0.46307 0.58817 0.0
C313 C 0.84922 0.3925 0.65864 0.0
N314 N 0.87929 0.4909 0.74442 0.0
N315 N 0.83746 0.36312 0.49012 0.0
H316 H 0.83663 0.35772 0.77331 0.0
H317 H 0.83547 0.33579 0.65777 0.0
H318 H 0.83943 0.36383 0.41441 0.0
H319 H 0.8191 0.33682 0.50852 0.0
H320 H 0.88834 0.51692 0.72006 0.0
H321 H 0.87171 0.48947 0.81592 0.0
H322 H 0.9197 0.52203 0.60345 0.0
H323 H 0.91475 0.49929 0.48549 0.0
C324 C 0.34488 0.85019 0.51763 0.0
C325 C 0.34574 0.88049 0.47228 0.0
C326 C 0.32567 0.89956 0.61983 0.0
C327 C 0.32769 0.87107 0.66844 0.0
N328 N 0.34 0.81977 0.66719 0.0
N329 N 0.34134 0.93641 0.4819 0.0
C330 C 0.33763 0.84654 0.6182 0.0
C331 C 0.33709 0.9057 0.52378 0.0
N332 N 0.3501 0.82449 0.46288 0.0
N333 N 0.31226 0.9204 0.66509 0.0
H334 H 0.34895 0.94093 0.41102 0.0
H335 H 0.33987 0.95844 0.51911 0.0
H336 H 0.30493 0.91765 0.73664 0.0
H337 H 0.30607 0.93874 0.62981 0.0
H338 H 0.34674 0.7998 0.48708 0.0
H339 H 0.35554 0.82678 0.38944 0.0
H340 H 0.35062 0.80317 0.63957 0.0
H341 H 0.33269 0.81515 0.73854 0.0
C342 C 0.6052 0.44529 0.5733 0.0
C343 C 0.59549 0.41149 0.51428 0.0
C344 C 0.57503 0.37702 0.65733 0.0
C345 C 0.58262 0.4104 0.71478 0.0
N346 N 0.60019 0.47523 0.72702 0.0
N347 N 0.56609 0.34464 0.49309 0.0
C348 C 0.59641 0.44431 0.67252 0.0
C349 C 0.57891 0.37714 0.5545 0.0
N350 N 0.62404 0.4783 0.53519 0.0
N351 N 0.56506 0.34554 0.7024 0.0
H352 H 0.56814 0.34413 0.41716 0.0
H353 H 0.55074 0.31825 0.51507 0.0
H354 H 0.56228 0.34494 0.77786 0.0
H355 H 0.56242 0.321 0.66752 0.0
H356 H 0.63523 0.50434 0.57679 0.0
H357 H 0.63059 0.47959 0.46263 0.0
H358 H 0.60653 0.50004 0.69814 0.0
H359 H 0.59459 0.4752 0.80039 0.0
C360 C 0.31189 0.56064 0.91243 0.0
C361 C 0.29216 0.5526 0.99596 0.0
C362 C 0.34623 0.55571 0.09677 0.0
C363 C 0.36739 0.56681 1.0152 0.0
N364 N 0.36591 0.56625 0.83804 0.0
N365 N 0.28552 0.53104 0.1567 0.0
C366 C 0.34853 0.56461 0.92038 0.0
C367 C 0.30765 0.54606 0.08419 0.0
N368 N 0.29619 0.56601 0.82694 0.0
N369 N 0.36321 0.55676 0.1882 0.0
H370 H 0.25747 0.5246 0.15092 0.0
H371 H 0.29373 0.52173 0.21822 0.0
H372 H 0.38973 0.55972 0.19984 0.0
H373 H 0.35134 0.55565 0.25344 0.0
H374 H 0.31078 0.57643 0.76719 0.0
H375 H 0.26874 0.56154 0.81776 0.0
H376 H 0.35292 0.56211 0.76572 0.0
H377 H 0.39219 0.56794 0.84211 0.0
C378 C 0.74095 0.21257 0.27749 0.0
C379 C 0.72865 0.18681 0.18994 0.0
C380 C 0.78505 0.22935 0.12086 0.0
C381 C 0.78908 0.25836 0.19096 0.0
N382 N 0.79271 0.2695 0.36772 0.0
N383 N 0.74291 0.16731 0.03591 0.0
C384 C 0.77399 0.24748 0.28041 0.0
C385 C 0.75238 0.19386 0.11466 0.0
N386 N 0.71984 0.20517 0.35389 0.0
N387 N 0.81444 0.23403 0.0723 0.0
H388 H 0.72006 0.14042 0.03242 0.0
H389 H 0.75698 0.17262 0.97353 0.0
H390 H 0.84095 0.2576 0.09151 0.0
H391 H 0.81401 0.21272 0.02552 0.0
H392 H 0.72562 0.22509 0.41383 0.0
H393 H 0.69564 0.17969 0.35504 0.0
H394 H 0.78468 0.26173 0.43683 0.0
H395 H 0.81866 0.29364 0.36967 0.0
C396 C 0.44472 0.7444 0.02875 0.0
C397 C 0.45322 0.74221 0.1307 0.0
C398 C 0.4332 0.78738 0.17962 0.0
C399 C 0.42657 0.79101 0.07779 0.0
N400 N 0.43278 0.779 0.90687 0.0
N401 N 0.46282 0.76656 0.30277 0.0
C402 C 0.43453 0.7714 1.00276 0.0
C403 C 0.44974 0.76531 0.20608 0.0
N404 N 0.44467 0.71953 0.9569 0.0
N405 N 0.42202 0.80351 0.25066 0.0
H406 H 0.47489 0.75055 0.32458 0.0
H407 H 0.46471 0.78572 0.35995 0.0
H408 H 0.40998 0.8201 0.23491 0.0
H409 H 0.42201 0.79821 0.32437 0.0
H410 H 0.43457 0.71694 0.8824 0.0
H411 H 0.45197 0.69929 0.97245 0.0
H412 H 0.4419 0.76844 0.85026 0.0
H413 H 0.42531 0.79862 0.88567 0.0
C414 C 0.75966 0.46024 0.0636 0.0
C415 C 0.76938 0.44846 0.15148 0.0
C416 C 0.72732 0.4639 0.23635 0.0
C417 C 0.71157 0.46741 0.14318 0.0
N418 N 0.71379 0.47102 0.96806 0.0
N419 N 0.76197 0.43799 0.32188 0.0
C420 C 0.72836 0.46659 0.05682 0.0
C421 C 0.75355 0.45062 0.23853 0.0
N422 N 0.78042 0.46526 0.98694 0.0
N423 N 0.71706 0.47278 0.32268 0.0
H424 H 0.78186 0.42913 0.32678 0.0
H425 H 0.74767 0.43415 0.38357 0.0
H426 H 0.69768 0.48215 0.32495 0.0
H427 H 0.73027 0.47405 0.39271 0.0
H428 H 0.77659 0.4762 0.92306 0.0
H429 H 0.80422 0.46214 0.9923 0.0
H430 H 0.72157 0.46622 0.90006 0.0
H431 H 0.69265 0.47825 0.96239 0.0
C432 C 0.22577 0.70456 0.04604 0.0
C433 C 0.21404 0.68944 0.13581 0.0
C434 C 0.24298 0.75257 0.22464 0.0
C435 C 0.25622 0.7674 0.13615 0.0
N436 N 0.24479 0.75815 0.95696 0.0
N437 N 0.19905 0.69922 0.29887 0.0
C438 C 0.24229 0.74366 0.04481 0.0
C439 C 0.21852 0.7136 0.22142 0.0
N440 N 0.22409 0.68258 0.96392 0.0
N441 N 0.25476 0.77563 0.31218 0.0
H442 H 0.17969 0.67088 0.29638 0.0
H443 H 0.19902 0.71568 0.36029 0.0
H444 H 0.27048 0.80459 0.31542 0.0
H445 H 0.25013 0.76598 0.38123 0.0
H446 H 0.23681 0.69345 0.9018 0.0
H447 H 0.21301 0.65392 0.95974 0.0
H448 H 0.23228 0.74171 0.88864 0.0
H449 H 0.25487 0.78638 0.95365 0.0
C450 C 0.56024 0.1953 1.01416 0.0
C451 C 0.55699 0.182 0.10883 0.0
C452 C 0.56034 0.23937 0.18347 0.0
C453 C 0.56206 0.25204 0.08889 0.0
N454 N 0.55364 0.23805 0.91089 0.0
N455 N 0.54 0.1859 0.27314 0.0
C456 C 0.55873 0.22865 1.00302 0.0
C457 C 0.55241 0.20228 0.18994 0.0
N458 N 0.56691 0.17773 0.93625 0.0
N459 N 0.56837 0.26321 0.26802 0.0
H460 H 0.53231 0.15815 0.27887 0.0
H461 H 0.53312 0.19841 0.33085 0.0
H462 H 0.57593 0.29124 0.26777 0.0
H463 H 0.5713 0.25611 0.33899 0.0
H464 H 0.57451 0.1892 0.8704 0.0
H465 H 0.56718 0.15282 0.93874 0.0
H466 H 0.54725 0.22026 0.84555 0.0
H467 H 0.55219 0.26217 0.90036 0.0
loop_
_geom_bond_atom_site_label_1
_geom_bond_atom_site_label_2
_geom_bond_distance
_geom_bond_site_symmetry_2
_ccdc_geom_bond_type
C0 C1 1.351 . S
C0 N3 1.368 . S
C0 H5 0.931 . S
C1 C0 1.351 . S
C1 N2 1.373 . S
C1 H29 0.930 . S
N2 C1 1.373 . S
N2 C4 1.340 . S
N3 C0 1.368 . S
N3 C4 1.321 . S
N3 Co6 2.135 1_556 S
C4 N2 1.340 . S
C4 N3 1.321 . S
C4 H28 0.930 . S
H5 C0 0.931 . S
Co6 N3 2.135 1_554 S
Co6 N9 2.121 . S
Co6 O14 2.055 . S
Co6 O17 2.039 . S
Co6 N20 2.140 . S
C7 O8 1.227 . S
C7 O17 1.265 . S
O8 C7 1.227 . S
N9 Co6 2.121 . S
N9 C11 1.375 . S
N9 C12 1.313 . S
C10 C11 1.338 . S
C10 N13 1.377 . S
C10 H30 0.930 . S
C11 N9 1.375 . S
C11 C10 1.338 . S
C11 H15 0.931 . S
C12 N9 1.313 . S
C12 N13 1.344 . S
C12 H16 0.930 . S
N13 C10 1.377 . S
N13 C12 1.344 . S
O14 Co6 2.055 . S
O14 C18 1.253 . S
H15 C11 0.931 . S
H16 C12 0.930 . S
O17 Co6 2.039 . S
O17 C7 1.265 . S
C18 O14 1.253 . S
C18 O19 1.227 . S
O19 C18 1.227 . S
N20 Co6 2.140 . S
N20 C23 1.346 1_554 S
N20 C24 1.345 . S
C21 C22 1.387 1_554 S
C21 C25 1.391 . S
C22 C21 1.387 1_556 S
C22 C23 1.369 . S
C22 H31 0.929 . S
C23 N20 1.346 1_556 S
C23 C22 1.369 . S
C23 H26 0.928 . S
C24 N20 1.345 . S
C24 C25 1.371 . S
C24 H27 0.931 . S
C25 C21 1.391 . S
C25 C24 1.371 . S
C25 H32 0.930 . S
H26 C23 0.928 . S
H27 C24 0.931 . S
H28 C4 0.930 . S
H29 C1 0.930 . S
H30 C10 0.930 . S
H31 C22 0.929 . S
H32 C25 0.930 . S
C33 C34 1.351 . S
C33 N36 1.368 . S
C33 H38 0.931 . S
C34 C33 1.351 . S
C34 N35 1.373 . S
C34 H62 0.930 . S
N35 C34 1.373 . S
N35 C37 1.340 . S
N36 C33 1.368 . S
N36 C37 1.321 . S
N36 Co39 2.135 1_556 S
C37 N35 1.340 . S
C37 N36 1.321 . S
C37 H61 0.930 . S
H38 C33 0.931 . S
Co39 N36 2.135 1_554 S
Co39 N42 2.121 . S
Co39 O47 2.055 . S
Co39 O50 2.039 . S
Co39 N53 2.140 . S
C40 O41 1.227 . S
C40 O50 1.265 . S
O41 C40 1.227 . S
N42 Co39 2.121 . S
N42 C44 1.375 . S
N42 C45 1.313 . S
C43 C44 1.338 . S
C43 N46 1.377 . S
C43 H63 0.930 . S
C44 N42 1.375 . S
C44 C43 1.338 . S
C44 H48 0.931 . S
C45 N42 1.313 . S
C45 N46 1.344 . S
C45 H49 0.930 . S
N46 C43 1.377 . S
N46 C45 1.344 . S
O47 Co39 2.055 . S
O47 C51 1.253 . S
H48 C44 0.931 . S
H49 C45 0.930 . S
O50 Co39 2.039 . S
O50 C40 1.265 . S
C51 O47 1.253 . S
C51 O52 1.227 . S
O52 C51 1.227 . S
N53 Co39 2.140 . S
N53 C56 1.346 1_554 S
N53 C57 1.345 . S
C54 C55 1.387 1_554 S
C54 C58 1.391 . S
C55 C54 1.387 1_556 S
C55 C56 1.369 . S
C55 H64 0.930 . S
C56 N53 1.346 1_556 S
C56 C55 1.369 . S
C56 H59 0.928 . S
C57 N53 1.345 . S
C57 C58 1.371 . S
C57 H60 0.931 . S
C58 C54 1.391 . S
C58 C57 1.371 . S
C58 H65 0.930 . S
H59 C56 0.928 . S
H60 C57 0.931 . S
H61 C37 0.930 . S
H62 C34 0.930 . S
H63 C43 0.930 . S
H64 C55 0.930 . S
H65 C58 0.930 . S
C66 C67 1.351 . S
C66 N69 1.368 . S
C66 H71 0.931 . S
C67 C66 1.351 . S
C67 N68 1.373 . S
C67 H95 0.930 . S
N68 C67 1.373 . S
N68 C70 1.340 . S
N69 C66 1.368 . S
N69 C70 1.321 . S
N69 Co72 2.135 1_556 S
C70 N68 1.340 . S
C70 N69 1.321 . S
C70 H94 0.930 . S
H71 C66 0.931 . S
Co72 N69 2.135 1_554 S
Co72 N75 2.121 . S
Co72 O80 2.055 . S
Co72 O83 2.039 . S
Co72 N86 2.140 . S
C73 O74 1.227 . S
C73 O83 1.265 . S
O74 C73 1.227 . S
N75 Co72 2.121 . S
N75 C77 1.375 . S
N75 C78 1.313 . S
C76 C77 1.338 . S
C76 N79 1.377 . S
C76 H96 0.930 . S
C77 N75 1.375 . S
C77 C76 1.338 . S
C77 H81 0.931 . S
C78 N75 1.313 . S
C78 N79 1.344 . S
C78 H82 0.930 . S
N79 C76 1.377 . S
N79 C78 1.344 . S
O80 Co72 2.055 . S
O80 C84 1.253 . S
H81 C77 0.931 . S
H82 C78 0.930 . S
O83 Co72 2.039 . S
O83 C73 1.265 . S
C84 O80 1.253 . S
C84 O85 1.227 . S
O85 C84 1.227 . S
N86 Co72 2.140 . S
N86 C89 1.346 . S
N86 C90 1.345 . S
C87 C88 1.387 . S
C87 C91 1.391 . S
C88 C87 1.387 . S
C88 C89 1.369 . S
C88 H97 0.929 . S
C89 N86 1.346 . S
C89 C88 1.369 . S
C89 H92 0.928 1_554 S
C90 N86 1.345 . S
C90 C91 1.371 . S
C90 H93 0.931 . S
C91 C87 1.391 . S
C91 C90 1.371 . S
C91 H98 0.930 . S
H92 C89 0.928 1_556 S
H93 C90 0.931 . S
H94 C70 0.930 . S
H95 C67 0.930 . S
H96 C76 0.930 . S
H97 C88 0.929 . S
H98 C91 0.930 . S
C99 C100 1.351 . S
C99 N102 1.368 . S
C99 H104 0.931 . S
C100 C99 1.351 . S
C100 N101 1.373 . S
C100 H128 0.930 . S
N101 C100 1.373 . S
N101 C103 1.340 . S
N102 C99 1.368 . S
N102 C103 1.321 . S
N102 Co105 2.135 . S
C103 N101 1.340 . S
C103 N102 1.321 . S
C103 H127 0.930 . S
H104 C99 0.931 . S
Co105 N102 2.135 . S
Co105 N108 2.121 1_554 S
Co105 O113 2.055 . S
Co105 O116 2.039 . S
Co105 N119 2.140 . S
C106 O107 1.227 . S
C106 O116 1.265 . S
O107 C106 1.227 . S
N108 Co105 2.121 1_556 S
N108 C110 1.375 . S
N108 C111 1.313 . S
C109 C110 1.338 . S
C109 N112 1.377 . S
C109 H129 0.930 . S
C110 N108 1.375 . S
C110 C109 1.338 . S
C110 H114 0.931 . S
C111 N108 1.313 . S
C111 N112 1.344 . S
C111 H115 0.930 . S
N112 C109 1.377 . S
N112 C111 1.344 . S
O113 Co105 2.055 . S
O113 C117 1.253 . S
H114 C110 0.931 . S
H115 C111 0.930 . S
O116 Co105 2.039 . S
O116 C106 1.265 . S
C117 O113 1.253 . S
C117 O118 1.227 . S
O118 C117 1.227 . S
N119 Co105 2.140 . S
N119 C122 1.346 . S
N119 C123 1.345 . S
C120 C121 1.387 . S
C120 C124 1.391 . S
C121 C120 1.387 . S
C121 C122 1.369 . S
C121 H130 0.929 . S
C122 N119 1.346 . S
C122 C121 1.369 . S
C122 H125 0.928 . S
C123 N119 1.345 . S
C123 C124 1.371 . S
C123 H126 0.931 1_554 S
C124 C120 1.391 . S
C124 C123 1.371 . S
C124 H131 0.930 1_554 S
H125 C122 0.928 . S
H126 C123 0.931 1_556 S
H127 C103 0.930 . S
H128 C100 0.930 . S
H129 C109 0.930 . S
H130 C121 0.929 . S
H131 C124 0.930 1_556 S
C132 C133 1.351 . S
C132 N135 1.368 . S
C132 H137 0.931 . S
C133 C132 1.351 . S
C133 N134 1.373 . S
C133 H161 0.930 . S
N134 C133 1.373 . S
N134 C136 1.340 . S
N135 C132 1.368 . S
N135 C136 1.321 . S
N135 Co138 2.135 . S
C136 N134 1.340 . S
C136 N135 1.321 . S
C136 H160 0.930 . S
H137 C132 0.931 . S
Co138 N135 2.135 . S
Co138 N141 2.121 1_554 S
Co138 O146 2.055 . S
Co138 O149 2.039 . S
Co138 N152 2.140 . S
C139 O140 1.227 . S
C139 O149 1.265 . S
O140 C139 1.227 . S
N141 Co138 2.121 1_556 S
N141 C143 1.375 . S
N141 C144 1.313 . S
C142 C143 1.338 . S
C142 N145 1.377 . S
C142 H162 0.930 . S
C143 N141 1.375 . S
C143 C142 1.338 . S
C143 H147 0.931 . S
C144 N141 1.313 . S
C144 N145 1.344 . S
C144 H148 0.930 . S
N145 C142 1.377 . S
N145 C144 1.344 . S
O146 Co138 2.055 . S
O146 C150 1.253 . S
H147 C143 0.931 . S
H148 C144 0.930 . S
O149 Co138 2.039 . S
O149 C139 1.265 . S
C150 O146 1.253 . S
C150 O151 1.227 . S
O151 C150 1.227 . S
N152 Co138 2.140 . S
N152 C155 1.346 . S
N152 C156 1.345 . S
C153 C154 1.387 . S
C153 C157 1.391 . S
C154 C153 1.387 . S
C154 C155 1.369 . S
C154 H163 0.929 . S
C155 N152 1.346 . S
C155 C154 1.369 . S
C155 H158 0.928 . S
C156 N152 1.345 . S
C156 C157 1.371 . S
C156 H159 0.931 1_554 S
C157 C153 1.391 . S
C157 C156 1.371 . S
C157 H164 0.930 . S
H158 C155 0.928 . S
H159 C156 0.931 1_556 S
H160 C136 0.930 . S
H161 C133 0.930 . S
H162 C142 0.930 . S
H163 C154 0.929 . S
H164 C157 0.930 . S
C165 C166 1.351 . S
C165 N168 1.368 . S
C165 H170 0.931 . S
C166 C165 1.351 . S
C166 N167 1.373 . S
C166 H194 0.930 . S
N167 C166 1.373 . S
N167 C169 1.340 . S
N168 C165 1.368 . S
N168 C169 1.321 . S
N168 Co171 2.135 1_556 S
C169 N167 1.340 . S
C169 N168 1.321 . S
C169 H193 0.930 . S
H170 C165 0.931 . S
Co171 N168 2.135 1_554 S
Co171 N174 2.121 . S
Co171 O179 2.055 . S
Co171 O182 2.039 . S
Co171 N185 2.140 . S
C172 O173 1.227 . S
C172 O182 1.265 . S
O173 C172 1.227 . S
N174 Co171 2.121 . S
N174 C176 1.375 . S
N174 C177 1.313 . S
C175 C176 1.338 . S
C175 N178 1.377 . S
C175 H195 0.930 . S
C176 N174 1.375 . S
C176 C175 1.338 . S
C176 H180 0.931 . S
C177 N174 1.313 . S
C177 N178 1.344 . S
C177 H181 0.930 . S
N178 C175 1.377 . S
N178 C177 1.344 . S
O179 Co171 2.055 . S
O179 C183 1.253 . S
H180 C176 0.931 . S
H181 C177 0.930 . S
O182 Co171 2.039 . S
O182 C172 1.265 . S
C183 O179 1.253 . S
C183 O184 1.227 . S
O184 C183 1.227 . S
N185 Co171 2.140 . S
N185 C188 1.346 . S
N185 C189 1.345 . S
C186 C187 1.387 . S
C186 C190 1.391 . S
C187 C186 1.387 . S
C187 C188 1.369 . S
C187 H196 0.929 1_554 S
C188 N185 1.346 . S
C188 C187 1.369 . S
C188 H191 0.928 1_554 S
C189 N185 1.345 . S
C189 C190 1.371 . S
C189 H192 0.931 . S
C190 C186 1.391 . S
C190 C189 1.371 . S
C190 H197 0.930 . S
H191 C188 0.928 1_556 S
H192 C189 0.931 . S
H193 C169 0.930 . S
H194 C166 0.930 . S
H195 C175 0.930 . S
H196 C187 0.929 1_556 S
H197 C190 0.930 . S
C198 C199 1.363 1_556 S
C198 C204 1.379 1_456 S
C198 N206 1.356 . S
C199 C198 1.363 1_554 S
C199 C205 1.363 . S
C200 C201 1.363 . S
C200 C205 1.379 1_655 S
C200 N207 1.356 . S
C201 C200 1.363 . S
C201 C204 1.363 . S
N202 C204 1.356 1_556 S
N202 H214 0.984 . S
N202 H215 0.985 . S
N203 C205 1.356 . S
N203 H208 0.984 . S
N203 H209 0.985 . S
C204 C198 1.379 1_654 S
C204 C201 1.363 . S
C204 N202 1.356 1_554 S
C205 C199 1.363 . S
C205 C200 1.379 1_455 S
C205 N203 1.356 . S
N206 C198 1.356 . S
N206 H212 0.984 . S
N206 H213 0.984 . S
N207 C200 1.356 . S
N207 H210 0.984 . S
N207 H211 0.985 . S
H208 N203 0.984 . S
H209 N203 0.985 . S
H210 N207 0.984 . S
H211 N207 0.985 . S
H212 N206 0.984 . S
H213 N206 0.984 . S
H214 N202 0.984 . S
H215 N202 0.985 . S
C216 C217 1.363 . S
C216 C222 1.391 1_554 S
C216 N224 1.356 1_554 S
C217 C216 1.363 . S
C217 C223 1.363 . S
C218 C219 1.363 . S
C218 C223 1.379 1_545 S
C218 N225 1.356 . S
C219 C218 1.363 . S
C219 C222 1.350 1_544 S
N220 C222 1.352 1_545 S
N220 H232 0.984 . S
N220 H233 0.985 . S
N221 C223 1.356 . S
N221 H226 0.984 . S
N221 H227 0.985 . S
C222 C216 1.391 1_556 S
C222 C219 1.350 1_566 S
C222 N220 1.352 1_565 S
C223 C217 1.363 . S
C223 C218 1.379 1_565 S
C223 N221 1.356 . S
N224 C216 1.356 1_556 S
N224 H230 0.984 . S
N224 H231 0.984 . S
N225 C218 1.356 . S
N225 H228 0.984 . S
N225 H229 0.985 . S
H226 N221 0.984 . S
H227 N221 0.985 . S
H228 N225 0.984 . S
H229 N225 0.985 . S
H230 N224 0.984 . S
H231 N224 0.984 . S
H232 N220 0.984 . S
H233 N220 0.985 . S
C234 C235 1.363 . S
C234 C240 1.379 . S
C234 N242 1.356 . S
C235 C234 1.363 . S
C235 C241 1.363 . S
C236 C237 1.363 . S
C236 C241 1.379 . S
C236 N243 1.356 . S
C237 C236 1.363 . S
C237 C240 1.363 . S
N238 C240 1.359 . S
N238 H250 0.981 1_554 S
N238 H251 0.986 . S
N239 C241 1.356 . S
N239 H244 0.984 . S
N239 H245 0.985 . S
C240 C234 1.379 . S
C240 C237 1.363 . S
C240 N238 1.359 . S
C241 C235 1.363 . S
C241 C236 1.379 . S
C241 N239 1.356 . S
N242 C234 1.356 . S
N242 H248 0.984 1_554 S
N242 H249 0.984 . S
N243 C236 1.356 . S
N243 H246 0.984 . S
N243 H247 0.985 . S
H244 N239 0.984 . S
H245 N239 0.985 . S
H246 N243 0.984 . S
H247 N243 0.985 . S
H248 N242 0.984 1_556 S
H249 N242 0.984 . S
H250 N238 0.981 1_556 S
H251 N238 0.986 . S
C252 C253 1.363 . S
C252 C258 1.379 . S
C252 N260 1.356 . S
C253 C252 1.363 . S
C253 C259 1.363 . S
C254 C255 1.363 . S
C254 C259 1.379 . S
C254 N261 1.356 . S
C255 C254 1.363 . S
C255 C258 1.363 . S
N256 C258 1.356 . S
N256 H268 0.984 . S
N256 H269 0.985 . S
N257 C259 1.356 . S
N257 H262 0.984 . S
N257 H263 0.985 . S
C258 C252 1.379 . S
C258 C255 1.363 . S
C258 N256 1.356 . S
C259 C253 1.363 . S
C259 C254 1.379 . S
C259 N257 1.356 . S
N260 C252 1.356 . S
N260 H266 0.984 . S
N260 H267 0.984 . S
N261 C254 1.356 . S
N261 H264 0.984 . S
N261 H265 0.985 . S
H262 N257 0.984 . S
H263 N257 0.985 . S
H264 N261 0.984 . S
H265 N261 0.985 . S
H266 N260 0.984 . S
H267 N260 0.984 . S
H268 N256 0.984 . S
H269 N256 0.985 . S
C270 C271 1.363 . S
C270 C276 1.379 . S
C270 N278 1.356 . S
C271 C270 1.363 . S
C271 C277 1.363 . S
C272 C273 1.363 . S
C272 C277 1.379 . S
C272 N279 1.356 . S
C273 C272 1.363 . S
C273 C276 1.363 . S
N274 C276 1.356 . S
N274 H286 0.984 . S
N274 H287 0.985 . S
N275 C277 1.356 . S
N275 H280 0.984 . S
N275 H281 0.985 . S
C276 C270 1.379 . S
C276 C273 1.363 . S
C276 N274 1.356 . S
C277 C271 1.363 . S
C277 C272 1.379 . S
C277 N275 1.356 . S
N278 C270 1.356 . S
N278 H284 0.984 . S
N278 H285 0.984 . S
N279 C272 1.356 . S
N279 H282 0.984 . S
N279 H283 0.985 . S
H280 N275 0.984 . S
H281 N275 0.985 . S
H282 N279 0.984 . S
H283 N279 0.985 . S
H284 N278 0.984 . S
H285 N278 0.984 . S
H286 N274 0.984 . S
H287 N274 0.985 . S
C288 C289 1.363 . S
C288 C294 1.379 . S
C288 N296 1.356 . S
C289 C288 1.363 . S
C289 C295 1.363 . S
C290 C291 1.363 . S
C290 C295 1.379 . S
C290 N297 1.356 . S
C291 C290 1.363 . S
C291 C294 1.363 . S
N292 C294 1.356 . S
N292 H304 0.984 . S
N292 H305 0.985 . S
N293 C295 1.356 . S
N293 H298 0.984 . S
N293 H299 0.985 . S
C294 C288 1.379 . S
C294 C291 1.363 . S
C294 N292 1.356 . S
C295 C289 1.363 . S
C295 C290 1.379 . S
C295 N293 1.356 . S
N296 C288 1.356 . S
N296 H302 0.984 . S
N296 H303 0.984 . S
N297 C290 1.356 . S
N297 H300 0.984 . S
N297 H301 0.985 . S
H298 N293 0.984 . S
H299 N293 0.985 . S
H300 N297 0.984 . S
H301 N297 0.985 . S
H302 N296 0.984 . S
H303 N296 0.984 . S
H304 N292 0.984 . S
H305 N292 0.985 . S
C306 C307 1.363 . S
C306 C312 1.379 . S
C306 N314 1.356 . S
C307 C306 1.363 . S
C307 C313 1.363 . S
C308 C309 1.363 . S
C308 C313 1.379 . S
C308 N315 1.356 . S
C309 C308 1.363 . S
C309 C312 1.363 . S
N310 C312 1.356 . S
N310 H322 0.984 . S
N310 H323 0.985 . S
N311 C313 1.356 . S
N311 H316 0.984 . S
N311 H317 0.985 . S
C312 C306 1.379 . S
C312 C309 1.363 . S
C312 N310 1.356 . S
C313 C307 1.363 . S
C313 C308 1.379 . S
C313 N311 1.356 . S
N314 C306 1.356 . S
N314 H320 0.984 . S
N314 H321 0.984 . S
N315 C308 1.356 . S
N315 H318 0.984 . S
N315 H319 0.985 . S
H316 N311 0.984 . S
H317 N311 0.985 . S
H318 N315 0.984 . S
H319 N315 0.985 . S
H320 N314 0.984 . S
H321 N314 0.984 . S
H322 N310 0.984 . S
H323 N310 0.985 . S
C324 C325 1.363 . S
C324 C330 1.379 . S
C324 N332 1.356 . S
C325 C324 1.363 . S
C325 C331 1.363 . S
C326 C327 1.363 . S
C326 C331 1.379 . S
C326 N333 1.356 . S
C327 C326 1.363 . S
C327 C330 1.363 . S
N328 C330 1.356 . S
N328 H340 0.984 . S
N328 H341 0.985 . S
N329 C331 1.356 . S
N329 H334 0.984 . S
N329 H335 0.985 . S
C330 C324 1.379 . S
C330 C327 1.363 . S
C330 N328 1.356 . S
C331 C325 1.363 . S
C331 C326 1.379 . S
C331 N329 1.356 . S
N332 C324 1.356 . S
N332 H338 0.984 . S
N332 H339 0.984 . S
N333 C326 1.356 . S
N333 H336 0.984 . S
N333 H337 0.985 . S
H334 N329 0.984 . S
H335 N329 0.985 . S
H336 N333 0.984 . S
H337 N333 0.985 . S
H338 N332 0.984 . S
H339 N332 0.984 . S
H340 N328 0.984 . S
H341 N328 0.985 . S
C342 C343 1.363 . S
C342 C348 1.379 . S
C342 N350 1.356 . S
C343 C342 1.363 . S
C343 C349 1.363 . S
C344 C345 1.363 . S
C344 C349 1.379 . S
C344 N351 1.356 . S
C345 C344 1.363 . S
C345 C348 1.363 . S
N346 C348 1.356 . S
N346 H358 0.984 . S
N346 H359 0.985 . S
N347 C349 1.356 . S
N347 H352 0.984 . S
N347 H353 0.985 . S
C348 C342 1.379 . S
C348 C345 1.363 . S
C348 N346 1.356 . S
C349 C343 1.363 . S
C349 C344 1.379 . S
C349 N347 1.356 . S
N350 C342 1.356 . S
N350 H356 0.984 . S
N350 H357 0.984 . S
N351 C344 1.356 . S
N351 H354 0.984 . S
N351 H355 0.985 . S
H352 N347 0.984 . S
H353 N347 0.985 . S
H354 N351 0.984 . S
H355 N351 0.985 . S
H356 N350 0.984 . S
H357 N350 0.984 . S
H358 N346 0.984 . S
H359 N346 0.985 . S
C360 C361 1.363 . S
C360 C366 1.379 . S
C360 N368 1.356 . S
C361 C360 1.363 . S
C361 C367 1.363 . S
C362 C363 1.363 . S
C362 C367 1.379 . S
C362 N369 1.356 . S
C363 C362 1.363 . S
C363 C366 1.363 . S
N364 C366 1.356 . S
N364 H376 0.984 . S
N364 H377 0.985 . S
N365 C367 1.356 . S
N365 H370 0.984 . S
N365 H371 0.985 . S
C366 C360 1.379 . S
C366 C363 1.363 . S
C366 N364 1.356 . S
C367 C361 1.363 . S
C367 C362 1.379 . S
C367 N365 1.356 . S
N368 C360 1.356 . S
N368 H374 0.984 . S
N368 H375 0.984 . S
N369 C362 1.356 . S
N369 H372 0.984 . S
N369 H373 0.985 . S
H370 N365 0.984 . S
H371 N365 0.985 . S
H372 N369 0.984 . S
H373 N369 0.985 . S
H374 N368 0.984 . S
H375 N368 0.984 . S
H376 N364 0.984 . S
H377 N364 0.985 . S
C378 C379 1.363 . S
C378 C384 1.379 . S
C378 N386 1.356 . S
C379 C378 1.363 . S
C379 C385 1.363 . S
C380 C381 1.363 . S
C380 C385 1.379 . S
C380 N387 1.356 1_554 S
C381 C380 1.363 . S
C381 C384 1.363 . S
N382 C384 1.356 . S
N382 H394 0.984 . S
N382 H395 0.985 . S
N383 C385 1.356 1_556 S
N383 H388 0.984 . S
N383 H389 0.985 . S
C384 C378 1.379 . S
C384 C381 1.363 . S
C384 N382 1.356 . S
C385 C379 1.363 . S
C385 C380 1.379 . S
C385 N383 1.356 1_554 S
N386 C378 1.356 . S
N386 H392 0.984 . S
N386 H393 0.984 . S
N387 C380 1.356 1_556 S
N387 H390 0.984 . S
N387 H391 0.985 . S
H388 N383 0.984 . S
H389 N383 0.985 . S
H390 N387 0.984 . S
H391 N387 0.985 . S
H392 N386 0.984 . S
H393 N386 0.984 . S
H394 N382 0.984 . S
H395 N382 0.985 . S
C396 C397 1.363 . S
C396 C402 1.379 . S
C396 N404 1.354 1_554 S
C397 C396 1.363 . S
C397 C403 1.363 . S
C398 C399 1.363 . S
C398 C403 1.379 . S
C398 N405 1.356 . S
C399 C398 1.363 . S
C399 C402 1.363 . S
N400 C402 1.356 1_556 S
N400 H412 0.984 . S
N400 H413 0.985 . S
N401 C403 1.356 . S
N401 H406 0.984 . S
N401 H407 0.985 . S
C402 C396 1.379 . S
C402 C399 1.363 . S
C402 N400 1.356 1_554 S
C403 C397 1.363 . S
C403 C398 1.379 . S
C403 N401 1.356 . S
N404 C396 1.354 1_556 S
N404 H410 0.990 . S
N404 H411 0.982 1_556 S
N405 C398 1.356 . S
N405 H408 0.984 . S
N405 H409 0.985 . S
H406 N401 0.984 . S
H407 N401 0.985 . S
H408 N405 0.984 . S
H409 N405 0.985 . S
H410 N404 0.990 . S
H411 N404 0.982 1_554 S
H412 N400 0.984 . S
H413 N400 0.985 . S
C414 C415 1.363 . S
C414 C420 1.379 . S
C414 N422 1.356 . S
C415 C414 1.363 . S
C415 C421 1.363 . S
C416 C417 1.363 . S
C416 C421 1.379 . S
C416 N423 1.356 . S
C417 C416 1.363 . S
C417 C420 1.363 . S
N418 C420 1.356 . S
N418 H430 0.984 1_554 S
N418 H431 0.985 . S
N419 C421 1.356 . S
N419 H424 0.984 . S
N419 H425 0.985 . S
C420 C414 1.379 . S
C420 C417 1.363 . S
C420 N418 1.356 . S
C421 C415 1.363 . S
C421 C416 1.379 . S
C421 N419 1.356 . S
N422 C414 1.356 . S
N422 H428 0.984 1_554 S
N422 H429 0.984 . S
N423 C416 1.356 . S
N423 H426 0.984 . S
N423 H427 0.985 . S
H424 N419 0.984 . S
H425 N419 0.985 . S
H426 N423 0.984 . S
H427 N423 0.985 . S
H428 N422 0.984 1_556 S
H429 N422 0.984 . S
H430 N418 0.984 1_556 S
H431 N418 0.985 . S
C432 C433 1.363 1_556 S
C432 C438 1.379 1_556 S
C432 N440 1.356 . S
C433 C432 1.363 1_554 S
C433 C439 1.363 . S
C434 C435 1.363 . S
C434 C439 1.379 . S
C434 N441 1.356 . S
C435 C434 1.363 . S
C435 C438 1.363 . S
N436 C438 1.356 1_556 S
N436 H448 0.984 . S
N436 H449 0.985 . S
N437 C439 1.356 . S
N437 H442 0.984 . S
N437 H443 0.985 . S
C438 C432 1.379 1_554 S
C438 C435 1.363 . S
C438 N436 1.356 1_554 S
C439 C433 1.363 . S
C439 C434 1.379 . S
C439 N437 1.356 . S
N440 C432 1.356 . S
N440 H446 0.984 . S
N440 H447 0.984 . S
N441 C434 1.356 . S
N441 H444 0.984 . S
N441 H445 0.985 . S
H442 N437 0.984 . S
H443 N437 0.985 . S
H444 N441 0.984 . S
H445 N441 0.985 . S
H446 N440 0.984 . S
H447 N440 0.984 . S
H448 N436 0.984 . S
H449 N436 0.985 . S
C450 C451 1.363 1_556 S
C450 C456 1.379 . S
C450 N458 1.356 . S
C451 C450 1.363 1_554 S
C451 C457 1.363 . S
C452 C453 1.363 . S
C452 C457 1.379 . S
C452 N459 1.356 . S
C453 C452 1.363 . S
C453 C456 1.363 1_554 S
N454 C456 1.356 . S
N454 H466 0.984 . S
N454 H467 0.985 . S
N455 C457 1.356 . S
N455 H460 0.984 . S
N455 H461 0.985 . S
C456 C450 1.379 . S
C456 C453 1.363 1_556 S
C456 N454 1.356 . S
C457 C451 1.363 . S
C457 C452 1.379 . S
C457 N455 1.356 . S
N458 C450 1.356 . S
N458 H464 0.984 . S
N458 H465 0.984 . S
N459 C452 1.356 . S
N459 H462 0.984 . S
N459 H463 0.985 . S
H460 N455 0.984 . S
H461 N455 0.985 . S
H462 N459 0.984 . S
H463 N459 0.985 . S
H464 N458 0.984 . S
H465 N458 0.984 . S
H466 N454 0.984 . S
H467 N454 0.985 . S
C199 C18 1.135 . S
C201 C117 1.133 . S
C217 C150 1.005 . S
C219 C51 1.004 . S
C235 C183 1.128 . S
C237 C84 1.125 . S
C253 N13 1.464 . S
C255 N2 1.462 . S
C271 N46 1.464 . S
C273 N35 1.461 . S
C289 N68 1.463 . S
C291 N79 1.467 . S
C307 N112 1.463 . S
C309 N101 1.461 . S
C325 N134 1.461 . S
C327 N145 1.464 . S
C343 N178 1.465 . S
C345 N167 1.461 . S
C361 C21 1.117 . S
C363 C73 1.052 . S
C379 C54 1.003 . S
C381 C120 1.064 . S
C397 C87 0.974 . S
C399 C153 0.978 . S
C415 C106 1.163 . S
C417 C172 1.201 . S
C433 C7 1.213 . S
C435 C139 1.162 . S
C451 C40 1.041 . S
C453 C186 1.078 . S
