# Generated by pormake.
# Topology sow, (4)-cn, num edge types: 1
# Building blocks:
#     Node 0, Type 0, BuildingBlock: KOZSID_clean_sbu_0, # of connection points: 4
#     Node 1, Type 0, BuildingBlock: KOZSID_clean_sbu_0, # of connection points: 4
#     Node 2, Type 0, BuildingBlock: KOZSID_clean_sbu_0, # of connection points: 4
#     Node 3, Type 0, BuildingBlock: KOZSID_clean_sbu_0, # of connection points: 4
#     Node 4, Type 0, BuildingBlock: KOZSID_clean_sbu_0, # of connection points: 4
#     Node 5, Type 0, BuildingBlock: KOZSID_clean_sbu_0, # of connection points: 4
#     Node 6, Type 0, BuildingBlock: KOZSID_clean_sbu_0, # of connection points: 4
#     Node 7, Type 0, BuildingBlock: KOZSID_clean_sbu_0, # of connection points: 4
#     Edge 8, Type (0, 0), BuildingBlock: UVAHIK_clean_linker_0, # of connection points: 2
#     Edge 9, Type (0, 0), BuildingBlock: UVAHIK_clean_linker_0, # of connection points: 2
#     Edge 10, Type (0, 0), BuildingBlock: UVAHIK_clean_linker_0, # of connection points: 2
#     Edge 11, Type (0, 0), BuildingBlock: UVAHIK_clean_linker_0, # of connection points: 2
#     Edge 12, Type (0, 0), BuildingBlock: UVAHIK_clean_linker_0, # of connection points: 2
#     Edge 13, Type (0, 0), BuildingBlock: UVAHIK_clean_linker_0, # of connection points: 2
#     Edge 14, Type (0, 0), BuildingBlock: UVAHIK_clean_linker_0, # of connection points: 2
#     Edge 15, Type (0, 0), BuildingBlock: UVAHIK_clean_linker_0, # of connection points: 2
#     Edge 16, Type (0, 0), BuildingBlock: UVAHIK_clean_linker_0, # of connection points: 2
#     Edge 17, Type (0, 0), BuildingBlock: UVAHIK_clean_linker_0, # of connection points: 2
#     Edge 18, Type (0, 0), BuildingBlock: UVAHIK_clean_linker_0, # of connection points: 2
#     Edge 19, Type (0, 0), BuildingBlock: UVAHIK_clean_linker_0, # of connection points: 2
#     Edge 20, Type (0, 0), BuildingBlock: UVAHIK_clean_linker_0, # of connection points: 2
#     Edge 21, Type (0, 0), BuildingBlock: UVAHIK_clean_linker_0, # of connection points: 2
#     Edge 22, Type (0, 0), BuildingBlock: UVAHIK_clean_linker_0, # of connection points: 2
#     Edge 23, Type (0, 0), BuildingBlock: UVAHIK_clean_linker_0, # of connection points: 2
# Relax obj value: 0.060
# Max RMSD: 0.246
# Mean RMSD: 0.220
data_MOF--net-sow--node1-KOZSID_clean_sbu_0--edge1-UVAHIK_clean_linker_0
_symmetry_space_group_name_H-M    P1
_symmetry_Int_Tables_number       1
_symmetry_cell_setting            triclinic
loop_
_symmetry_equiv_pos_as_xyz
'x, y, z'
_cell_length_a     70.764072
_cell_length_b     27.139691
_cell_length_c     31.065753
_cell_angle_alpha  90.017732
_cell_angle_beta   90.030165
_cell_angle_gamma 90.017958
loop_
_atom_site_label
_atom_site_type_symbol
_atom_site_fract_x
_atom_site_fract_y
_atom_site_fract_z
_atom_type_partial_charge
C0 C 0.11863 0.11285 0.20691 0.0
C1 C 0.1173 0.06829 0.22837 0.0
C2 C 0.13228 0.04047 0.21488 0.0
C3 C 0.14183 0.06961 0.18602 0.0
N4 N 0.1341 0.11478 0.18125 0.0
Co5 Co 0.14193 0.16738 0.13971 0.0
N6 N 0.1601 0.12183 0.11009 0.0
C7 C 0.16355 0.07416 0.12031 0.0
C8 C 0.17628 0.0517 0.09354 0.0
C9 C 0.18135 0.08713 0.06457 0.0
C10 C 0.17153 0.12959 0.07567 0.0
N11 N 0.14988 0.22042 0.09868 0.0
C12 C 0.16285 0.21963 0.06646 0.0
C13 C 0.16493 0.26589 0.04787 0.0
C14 C 0.15279 0.29672 0.06872 0.0
C15 C 0.14411 0.26795 0.09903 0.0
N16 N 0.12321 0.21217 0.16837 0.0
C17 C 0.12009 0.26032 0.15987 0.0
C18 C 0.105 0.27973 0.18176 0.0
C19 C 0.09764 0.24117 0.20449 0.0
C20 C 0.10878 0.20055 0.1951 0.0
N21 N 0.16231 0.18885 0.18049 0.0
C22 C 0.19109 0.21856 0.23838 0.0
C23 C 0.17718 0.25155 0.2249 0.0
C24 C 0.16319 0.23624 0.19591 0.0
C25 C 0.19041 0.17057 0.22241 0.0
C26 C 0.17599 0.15655 0.19416 0.0
N27 N 0.12159 0.14591 0.10004 0.0
C28 C 0.09231 0.1644 0.06336 0.0
C29 C 0.08765 0.11428 0.06157 0.0
C30 C 0.1011 0.08032 0.07592 0.0
C31 C 0.11788 0.09679 0.09459 0.0
C32 C 0.10938 0.17931 0.08215 0.0
H33 H 0.12719 0.06912 0.10658 0.0
H34 H 0.11209 0.21805 0.08375 0.0
H35 H 0.15334 0.2637 0.18655 0.0
H36 H 0.17632 0.11923 0.18411 0.0
C37 C 0.15515 0.05225 0.1564 0.0
C38 C 0.10412 0.15077 0.20871 0.0
C39 C 0.17391 0.1766 0.05323 0.0
C40 C 0.13026 0.28442 0.12765 0.0
H41 H 0.10613 0.05638 0.24978 0.0
H42 H 0.13498 0.00219 0.2225 0.0
H43 H 0.18142 0.01419 0.09515 0.0
H44 H 0.19132 0.08232 0.03851 0.0
H45 H 0.17441 0.27663 0.02223 0.0
H46 H 0.15063 0.33559 0.06267 0.0
H47 H 0.09935 0.3167 0.17946 0.0
H48 H 0.08501 0.24215 0.2241 0.0
H49 H 0.17724 0.28935 0.23614 0.0
H50 H 0.2008 0.14352 0.2323 0.0
H51 H 0.0826 0.1921 0.05151 0.0
H52 H 0.09828 0.04111 0.07526 0.0
C53 C 0.38988 0.38868 0.70975 0.0
C54 C 0.3909 0.43303 0.73166 0.0
C55 C 0.37593 0.46067 0.71786 0.0
C56 C 0.36668 0.43167 0.68836 0.0
N57 N 0.37459 0.38669 0.68344 0.0
Co58 Co 0.36734 0.33462 0.64068 0.0
N59 N 0.34883 0.37979 0.61163 0.0
C60 C 0.34486 0.42693 0.62276 0.0
C61 C 0.33184 0.44904 0.59646 0.0
C62 C 0.32709 0.4139 0.56692 0.0
C63 C 0.3374 0.37196 0.57717 0.0
N64 N 0.36012 0.28229 0.5982 0.0
C65 C 0.34721 0.28303 0.56583 0.0
C66 C 0.34583 0.23732 0.54587 0.0
C67 C 0.35836 0.20693 0.56598 0.0
C68 C 0.36657 0.23536 0.59723 0.0
N69 N 0.38619 0.29006 0.66916 0.0
C70 C 0.38971 0.24229 0.6599 0.0
C71 C 0.40462 0.22286 0.68244 0.0
C72 C 0.41142 0.26104 0.70653 0.0
C73 C 0.40018 0.30148 0.69717 0.0
N74 N 0.34696 0.31098 0.68038 0.0
C75 C 0.31814 0.27867 0.73692 0.0
C76 C 0.33179 0.24598 0.72156 0.0
C77 C 0.34581 0.26263 0.69319 0.0
C78 C 0.31912 0.32761 0.72354 0.0
C79 C 0.33355 0.34287 0.69594 0.0
N80 N 0.38771 0.35839 0.60207 0.0
C81 C 0.41789 0.3438 0.56773 0.0
C82 C 0.42177 0.39435 0.56782 0.0
C83 C 0.4075 0.42653 0.5808 0.0
C84 C 0.39064 0.40794 0.5972 0.0
C85 C 0.40073 0.32664 0.58476 0.0
H86 H 0.38063 0.43442 0.60809 0.0
H87 H 0.39867 0.28759 0.58585 0.0
H88 H 0.35547 0.23551 0.68213 0.0
H89 H 0.33346 0.3808 0.68795 0.0
C90 C 0.35321 0.44883 0.65896 0.0
C91 C 0.4045 0.35107 0.71186 0.0
C92 C 0.33551 0.32537 0.55382 0.0
C93 C 0.38024 0.2188 0.62624 0.0
H94 H 0.40186 0.44492 0.75365 0.0
H95 H 0.373 0.49872 0.72589 0.0
H96 H 0.32632 0.48614 0.59872 0.0
H97 H 0.31703 0.41854 0.54101 0.0
H98 H 0.33652 0.22657 0.51989 0.0
H99 H 0.36099 0.16845 0.55901 0.0
H100 H 0.41054 0.18623 0.67971 0.0
H101 H 0.42381 0.26006 0.72697 0.0
H102 H 0.33149 0.20752 0.73085 0.0
H103 H 0.30895 0.35443 0.73499 0.0
H104 H 0.42846 0.31755 0.55727 0.0
H105 H 0.40968 0.46605 0.58014 0.0
C106 C 0.6174 0.39063 0.80063 0.0
C107 C 0.61501 0.43586 0.78063 0.0
C108 C 0.62989 0.46461 0.7931 0.0
C109 C 0.64039 0.43545 0.82008 0.0
N110 N 0.63348 0.38926 0.82444 0.0
Co111 Co 0.64231 0.33717 0.86577 0.0
N112 N 0.66144 0.38277 0.89199 0.0
C113 C 0.66562 0.42903 0.87877 0.0
C114 C 0.67997 0.45061 0.90164 0.0
C115 C 0.68542 0.41598 0.93098 0.0
C116 C 0.67395 0.37512 0.9245 0.0
N117 N 0.65045 0.28561 0.90811 0.0
C118 C 0.66349 0.28762 0.94007 0.0
C119 C 0.66423 0.24371 0.96298 0.0
C120 C 0.65148 0.2126 0.94433 0.0
C121 C 0.64358 0.23923 0.91148 0.0
N122 N 0.6235 0.29145 0.83893 0.0
C123 C 0.62119 0.24295 0.84713 0.0
C124 C 0.60631 0.22228 0.82524 0.0
C125 C 0.59836 0.26022 0.8027 0.0
C126 C 0.60888 0.30188 0.81236 0.0
N127 N 0.66192 0.31418 0.82388 0.0
C128 C 0.68916 0.28254 0.763 0.0
C129 C 0.6799 0.24878 0.78961 0.0
C130 C 0.66642 0.26521 0.81944 0.0
C131 C 0.68477 0.33234 0.76795 0.0
C132 C 0.67135 0.34714 0.79823 0.0
N133 N 0.62266 0.3602 0.90648 0.0
C134 C 0.59213 0.34598 0.93908 0.0
C135 C 0.58873 0.39667 0.94043 0.0
C136 C 0.60344 0.42857 0.92962 0.0
C137 C 0.62036 0.40961 0.91369 0.0
C138 C 0.60921 0.32853 0.92209 0.0
H139 H 0.6309 0.43574 0.90475 0.0
H140 H 0.61079 0.28946 0.91927 0.0
H141 H 0.65984 0.23742 0.83834 0.0
H142 H 0.66896 0.3856 0.80009 0.0
C143 C 0.65537 0.45186 0.84578 0.0
C144 C 0.60336 0.35135 0.79939 0.0
C145 C 0.67589 0.32946 0.9491 0.0
C146 C 0.63046 0.22093 0.88183 0.0
H147 H 0.60331 0.44758 0.7607 0.0
H148 H 0.63214 0.5031 0.78553 0.0
H149 H 0.6858 0.48718 0.89746 0.0
H150 H 0.69668 0.42023 0.95426 0.0
H151 H 0.67324 0.23481 0.99004 0.0
H152 H 0.64854 0.17481 0.95323 0.0
H153 H 0.60095 0.18506 0.82803 0.0
H154 H 0.58565 0.25822 0.78338 0.0
H155 H 0.68276 0.20969 0.78696 0.0
H156 H 0.69182 0.36017 0.74879 0.0
H157 H 0.58119 0.31999 0.94797 0.0
H158 H 0.60159 0.46814 0.93163 0.0
C159 C 0.89137 0.11043 0.29899 0.0
C160 C 0.89346 0.06524 0.27873 0.0
C161 C 0.8786 0.03674 0.29171 0.0
C162 C 0.86842 0.06598 0.31925 0.0
N163 N 0.87551 0.112 0.32351 0.0
Co164 Co 0.86717 0.16408 0.36539 0.0
N165 N 0.84811 0.11875 0.39218 0.0
C166 C 0.84377 0.07252 0.37914 0.0
C167 C 0.8295 0.05118 0.4024 0.0
C168 C 0.82427 0.08597 0.4318 0.0
C169 C 0.83576 0.12668 0.42492 0.0
N170 N 0.8595 0.21566 0.40816 0.0
C171 C 0.84655 0.21395 0.4403 0.0
C172 C 0.84608 0.25779 0.46337 0.0
C173 C 0.8589 0.28859 0.4446 0.0
C174 C 0.86656 0.26185 0.41154 0.0
N175 N 0.88592 0.20953 0.33804 0.0
C176 C 0.8885 0.25791 0.34645 0.0
C177 C 0.90323 0.27839 0.324 0.0
C178 C 0.91082 0.24044 0.30084 0.0
C179 C 0.90025 0.19896 0.31073 0.0
N180 N 0.84734 0.18763 0.32431 0.0
C181 C 0.81996 0.22027 0.26414 0.0
C182 C 0.82962 0.2537 0.29037 0.0
C183 C 0.84315 0.23678 0.31987 0.0
C184 C 0.824 0.17027 0.26917 0.0
C185 C 0.83749 0.15497 0.29914 0.0
N186 N 0.88707 0.1405 0.40529 0.0
C187 C 0.91777 0.15425 0.43733 0.0
C188 C 0.92113 0.10352 0.43836 0.0
C189 C 0.90634 0.07182 0.42755 0.0
C190 C 0.88938 0.09102 0.41207 0.0
C191 C 0.90065 0.17194 0.42077 0.0
H192 H 0.87877 0.06502 0.40321 0.0
H193 H 0.89911 0.21104 0.41826 0.0
H194 H 0.85004 0.26432 0.33848 0.0
H195 H 0.83961 0.1164 0.30114 0.0
C196 C 0.85366 0.04968 0.34561 0.0
C197 C 0.90552 0.14945 0.29732 0.0
C198 C 0.83394 0.17255 0.44928 0.0
C199 C 0.87956 0.27998 0.38158 0.0
H200 H 0.90494 0.05333 0.25827 0.0
H201 H 0.87618 0.99832 0.28412 0.0
H202 H 0.82356 0.01472 0.39835 0.0
H203 H 0.8131 0.08198 0.45531 0.0
H204 H 0.83718 0.26688 0.49054 0.0
H205 H 0.862 0.3263 0.45352 0.0
H206 H 0.90874 0.31548 0.32675 0.0
H207 H 0.92336 0.24229 0.28094 0.0
H208 H 0.82705 0.29292 0.28765 0.0
H209 H 0.81663 0.14272 0.2503 0.0
H210 H 0.92877 0.1801 0.44623 0.0
H211 H 0.90815 0.03222 0.42932 0.0
C212 C 0.88649 0.93428 0.99524 0.0
C213 C 0.88584 0.98405 0.00511 0.0
C214 C 0.86839 0.00055 0.99196 0.0
C215 C 0.85943 0.95994 0.97497 0.0
N216 N 0.87018 0.91924 0.97693 0.0
Co217 Co 0.86362 0.85317 0.95485 0.0
N218 N 0.84442 0.88089 0.91533 0.0
C219 C 0.83643 0.9258 0.91895 0.0
C220 C 0.82284 0.9343 0.88835 0.0
C221 C 0.82207 0.89193 0.86439 0.0
C222 C 0.83532 0.85969 0.8817 0.0
N223 N 0.85701 0.78663 0.93331 0.0
C224 C 0.84715 0.7732 0.89782 0.0
C225 C 0.8461 0.72217 0.89474 0.0
C226 C 0.85501 0.70341 0.93034 0.0
C227 C 0.86122 0.74373 0.95295 0.0
N228 N 0.88292 0.82625 0.99453 0.0
C229 C 0.88424 0.77949 0.00836 0.0
C230 C 0.90005 0.77181 0.03324 0.0
C231 C 0.90917 0.81654 0.03485 0.0
C232 C 0.89831 0.84912 0.01097 0.0
N233 N 0.84432 0.84649 0.99962 0.0
C234 C 0.81683 0.83335 0.06362 0.0
C235 C 0.83462 0.85312 0.07372 0.0
C236 C 0.84814 0.85945 0.04128 0.0
C237 C 0.81313 0.8208 0.02071 0.0
C238 C 0.82696 0.8277 0.98939 0.0
N239 N 0.88295 0.85961 0.91036 0.0
C240 C 0.91038 0.82646 0.87516 0.0
C241 C 0.91391 0.87195 0.85561 0.0
C242 C 0.90118 0.91064 0.86252 0.0
C243 C 0.88561 0.90348 0.88955 0.0
C244 C 0.89492 0.82114 0.90252 0.0
H245 H 0.8761 0.93392 0.89484 0.0
H246 H 0.8931 0.78634 0.91862 0.0
H247 H 0.86175 0.87451 0.04991 0.0
H248 H 0.82359 0.8171 0.95691 0.0
C249 C 0.84347 0.96067 0.94827 0.0
C250 C 0.90242 0.9016 0.00437 0.0
C251 C 0.83701 0.8075 0.86921 0.0
C252 C 0.87339 0.74261 0.98865 0.0
H253 H 0.89691 0.00605 0.0196 0.0
H254 H 0.86337 0.03822 0.99223 0.0
H255 H 0.81462 0.96748 0.88367 0.0
H256 H 0.81238 0.88513 0.83809 0.0
H257 H 0.83933 0.70065 0.86979 0.0
H258 H 0.8572 0.66495 0.93807 0.0
H259 H 0.90509 0.73715 0.04606 0.0
H260 H 0.92244 0.82372 0.05091 0.0
H261 H 0.83808 0.86381 0.10638 0.0
H262 H 0.79976 0.80457 0.01134 0.0
H263 H 0.91996 0.79573 0.87081 0.0
H264 H 0.90338 0.94625 0.8476 0.0
C265 C 0.62277 0.56703 0.49829 0.0
C266 C 0.62252 0.51794 0.51052 0.0
C267 C 0.63951 0.49828 0.49762 0.0
C268 C 0.64912 0.53649 0.47842 0.0
N269 N 0.63922 0.57871 0.47888 0.0
Co270 Co 0.64687 0.64234 0.45351 0.0
N271 N 0.66521 0.60969 0.41475 0.0
C272 C 0.67201 0.56359 0.41938 0.0
C273 C 0.68457 0.55088 0.38763 0.0
C274 C 0.68598 0.59176 0.36191 0.0
C275 C 0.67428 0.6275 0.37966 0.0
N276 N 0.65467 0.70652 0.42895 0.0
C277 C 0.66496 0.71658 0.3933 0.0
C278 C 0.66797 0.767 0.38938 0.0
C279 C 0.65945 0.78889 0.4241 0.0
C280 C 0.65175 0.75088 0.44733 0.0
N281 N 0.62827 0.67415 0.49214 0.0
C282 C 0.62793 0.72177 0.50387 0.0
C283 C 0.61231 0.7331 0.52823 0.0
C284 C 0.60227 0.68987 0.53173 0.0
C285 C 0.61245 0.65441 0.50947 0.0
N286 N 0.66654 0.64931 0.49751 0.0
C287 C 0.6943 0.66696 0.56033 0.0
C288 C 0.67608 0.6513 0.57198 0.0
C289 C 0.66248 0.64228 0.54011 0.0
C290 C 0.69838 0.67174 0.51638 0.0
C291 C 0.68437 0.66328 0.48577 0.0
N292 N 0.62718 0.63583 0.40977 0.0
C293 C 0.60037 0.67076 0.37335 0.0
C294 C 0.59577 0.62472 0.35602 0.0
C295 C 0.60767 0.58469 0.36464 0.0
C296 C 0.62346 0.59118 0.39116 0.0
C297 C 0.61604 0.67549 0.40022 0.0
H298 H 0.63229 0.55973 0.39781 0.0
H299 H 0.6187 0.71093 0.41457 0.0
H300 H 0.64855 0.63064 0.54997 0.0
H301 H 0.68799 0.66892 0.45252 0.0
C302 C 0.66461 0.53165 0.45067 0.0
C303 C 0.60741 0.60209 0.5055 0.0
C304 C 0.67405 0.67938 0.36579 0.0
C305 C 0.63965 0.75581 0.48291 0.0
H306 H 0.6111 0.49834 0.52615 0.0
H307 H 0.64373 0.46 0.49929 0.0
H308 H 0.69161 0.51585 0.38323 0.0
H309 H 0.69501 0.59527 0.33398 0.0
H310 H 0.6759 0.78596 0.36463 0.0
H311 H 0.65869 0.82791 0.4311 0.0
H312 H 0.608 0.76912 0.53952 0.0
H313 H 0.58888 0.68558 0.548 0.0
H314 H 0.67212 0.6472 0.60543 0.0
H315 H 0.71232 0.68225 0.50538 0.0
H316 H 0.59146 0.70256 0.36767 0.0
H317 H 0.60466 0.54858 0.35144 0.0
C318 C 0.38717 0.56778 0.00741 0.0
C319 C 0.38734 0.51828 0.99647 0.0
C320 C 0.37026 0.49933 0.0096 0.0
C321 C 0.36069 0.53833 0.02763 0.0
N322 N 0.3707 0.58036 0.02627 0.0
Co323 Co 0.3631 0.64497 0.04984 0.0
N324 N 0.34448 0.614 0.08891 0.0
C325 C 0.33751 0.56796 0.08514 0.0
C326 C 0.32474 0.55657 0.11685 0.0
C327 C 0.3234 0.59823 0.14163 0.0
C328 C 0.33534 0.63311 0.12337 0.0
N329 N 0.35546 0.71008 0.07281 0.0
C330 C 0.3452 0.72142 0.10824 0.0
C331 C 0.34238 0.77201 0.11107 0.0
C332 C 0.351 0.79266 0.07588 0.0
C333 C 0.35856 0.7538 0.0535 0.0
N334 N 0.38186 0.67521 0.01067 0.0
C335 C 0.38231 0.72243 0.99776 0.0
C336 C 0.39796 0.73274 0.97314 0.0
C337 C 0.40789 0.68926 0.97069 0.0
C338 C 0.39762 0.65468 0.9938 0.0
N339 N 0.34362 0.65071 0.00532 0.0
C340 C 0.316 0.66367 0.94149 0.0
C341 C 0.33405 0.64589 0.93101 0.0
C342 C 0.34763 0.63965 0.96336 0.0
C343 C 0.31208 0.67401 0.98475 0.0
C344 C 0.32597 0.66716 0.01599 0.0
N345 N 0.38263 0.63948 0.09405 0.0
C346 C 0.40973 0.67438 0.12942 0.0
C347 C 0.41403 0.6287 0.14784 0.0
C348 C 0.4018 0.58902 0.14041 0.0
C349 C 0.38603 0.59536 0.11386 0.0
C350 C 0.39404 0.67894 0.10255 0.0
H351 H 0.37697 0.5641 0.10808 0.0
H352 H 0.3916 0.71399 0.08729 0.0
H353 H 0.36145 0.62633 0.95438 0.0
H354 H 0.32244 0.67605 0.04876 0.0
C355 C 0.345 0.53479 0.05495 0.0
C356 C 0.40257 0.60246 0.99909 0.0
C357 C 0.33595 0.68523 0.13647 0.0
C358 C 0.37069 0.75736 0.01787 0.0
H359 H 0.39873 0.49801 0.98142 0.0
H360 H 0.36593 0.46109 0.00875 0.0
H361 H 0.31757 0.52183 0.12192 0.0
H362 H 0.31432 0.60273 0.16937 0.0
H363 H 0.33451 0.79184 0.13538 0.0
H364 H 0.35191 0.83145 0.06805 0.0
H365 H 0.40236 0.76831 0.96099 0.0
H366 H 0.42127 0.68427 0.95456 0.0
H367 H 0.3377 0.6368 0.8981 0.0
H368 H 0.2985 0.68859 0.9945 0.0
H369 H 0.41889 0.70591 0.13419 0.0
H370 H 0.40456 0.55324 0.15451 0.0
C371 C 0.12253 0.93117 0.50579 0.0
C372 C 0.12245 0.98037 0.49388 0.0
C373 C 0.13951 0.99953 0.50694 0.0
C374 C 0.14899 0.96094 0.5259 0.0
N375 N 0.13894 0.91896 0.52517 0.0
Co376 Co 0.14635 0.85495 0.55025 0.0
N377 N 0.16488 0.88683 0.58908 0.0
C378 C 0.17188 0.93275 0.5846 0.0
C379 C 0.18453 0.94494 0.61634 0.0
C380 C 0.18578 0.90391 0.64191 0.0
C381 C 0.1739 0.86858 0.62406 0.0
N382 N 0.15381 0.79041 0.57472 0.0
C383 C 0.164 0.7799 0.61047 0.0
C384 C 0.16672 0.72937 0.61434 0.0
C385 C 0.15813 0.70787 0.57949 0.0
C386 C 0.15068 0.7462 0.55624 0.0
N387 N 0.12767 0.82385 0.51133 0.0
C388 C 0.12717 0.77629 0.49939 0.0
C389 C 0.11158 0.76549 0.47471 0.0
C390 C 0.10172 0.809 0.47122 0.0
C391 C 0.11198 0.84407 0.49381 0.0
N392 N 0.16598 0.84769 0.50629 0.0
C393 C 0.19355 0.83023 0.4434 0.0
C394 C 0.17578 0.84901 0.432 0.0
C395 C 0.16217 0.85735 0.46393 0.0
C396 C 0.19739 0.82201 0.48699 0.0
C397 C 0.18352 0.83109 0.51777 0.0
N398 N 0.12669 0.86184 0.59394 0.0
C399 C 0.09965 0.82775 0.63002 0.0
C400 C 0.09534 0.87386 0.64759 0.0
C401 C 0.10749 0.91345 0.63926 0.0
C402 C 0.12325 0.90649 0.6128 0.0
C403 C 0.11529 0.82259 0.60318 0.0
H404 H 0.13228 0.93763 0.6064 0.0
H405 H 0.11774 0.78715 0.58862 0.0
H406 H 0.14844 0.87076 0.45432 0.0
H407 H 0.18698 0.82376 0.55087 0.0
C408 C 0.16455 0.96514 0.55356 0.0
C409 C 0.10709 0.89644 0.49802 0.0
C410 C 0.17337 0.81671 0.63794 0.0
C411 C 0.13866 0.74181 0.52045 0.0
H412 H 0.11112 0.00034 0.47828 0.0
H413 H 0.14388 0.03772 0.50547 0.0
H414 H 0.19171 0.97977 0.62089 0.0
H415 H 0.1948 0.90005 0.66986 0.0
H416 H 0.17453 0.71008 0.63909 0.0
H417 H 0.15718 0.6689 0.57239 0.0
H418 H 0.10715 0.72964 0.46322 0.0
H419 H 0.08839 0.8137 0.45477 0.0
H420 H 0.17222 0.85584 0.39862 0.0
H421 H 0.21105 0.80844 0.49736 0.0
H422 H 0.09053 0.79629 0.63549 0.0
H423 H 0.10469 0.94958 0.65265 0.0
C424 C 0.28412 0.27542 0.75932 0.0
C425 C 0.30303 0.26243 0.76697 0.0
C426 C 0.26995 0.26253 0.78863 0.0
C427 C 0.26006 0.18269 0.88454 0.0
H428 H 0.2188 0.27485 0.90081 0.0
C429 C 0.20779 0.17646 0.02889 0.0
C430 C 0.18853 0.18172 0.01891 0.0
C431 C 0.22157 0.18314 0.9971 0.0
C432 C 0.23015 0.24854 0.89635 0.0
H433 H 0.32196 0.22555 0.8112 0.0
H434 H 0.29743 0.20449 0.86325 0.0
H435 H 0.24324 0.2928 0.84801 0.0
H436 H 0.1685 0.19732 0.9681 0.0
H437 H 0.19265 0.2103 0.91255 0.0
H438 H 0.24713 0.13952 0.93438 0.0
C439 C 0.29333 0.22343 0.83405 0.0
C440 C 0.24416 0.25865 0.86586 0.0
C441 C 0.30746 0.23565 0.80431 0.0
C442 C 0.18328 0.19332 0.97652 0.0
C443 C 0.19707 0.20083 0.94489 0.0
C444 C 0.24617 0.17301 0.91555 0.0
C445 C 0.27436 0.23703 0.82684 0.0
C446 C 0.25933 0.22582 0.85933 0.0
C447 C 0.21637 0.19601 0.95488 0.0
C448 C 0.23104 0.20578 0.92169 0.0
H449 H 0.28026 0.29554 0.7305 0.0
H450 H 0.25552 0.27262 0.78116 0.0
H451 H 0.27125 0.156 0.88012 0.0
H452 H 0.21215 0.16777 0.06144 0.0
H453 H 0.23633 0.17956 0.00581 0.0
C454 C 0.20161 0.25901 0.30713 0.0
C455 C 0.20615 0.23373 0.26906 0.0
C456 C 0.21572 0.27137 0.33688 0.0
C457 C 0.26553 0.24017 0.36688 0.0
H458 H 0.26126 0.35787 0.43699 0.0
C459 C 0.32601 0.30989 0.47694 0.0
C460 C 0.32081 0.31986 0.51968 0.0
C461 C 0.31219 0.30162 0.4455 0.0
C462 C 0.26259 0.32478 0.41771 0.0
H463 H 0.22909 0.20312 0.23154 0.0
H464 H 0.25379 0.22622 0.28232 0.0
H465 H 0.23709 0.3399 0.38315 0.0
H466 H 0.29722 0.33038 0.56298 0.0
H467 H 0.27295 0.31734 0.50769 0.0
H468 H 0.29132 0.22597 0.40095 0.0
C469 C 0.2393 0.23508 0.29026 0.0
C470 C 0.24868 0.31423 0.38695 0.0
C471 C 0.22514 0.22203 0.2609 0.0
C472 C 0.30155 0.32293 0.53017 0.0
C473 C 0.28771 0.31552 0.49859 0.0
C474 C 0.27957 0.25118 0.39713 0.0
C475 C 0.2348 0.25945 0.32899 0.0
C476 C 0.24987 0.27156 0.3612 0.0
C477 C 0.29288 0.30411 0.45604 0.0
C478 C 0.2782 0.29343 0.42305 0.0
H479 H 0.18706 0.26807 0.31446 0.0
H480 H 0.21155 0.28929 0.36651 0.0
H481 H 0.26685 0.20642 0.34856 0.0
H482 H 0.3408 0.30763 0.46811 0.0
H483 H 0.31658 0.29333 0.4129 0.0
C484 C 0.80531 0.21498 0.19054 0.0
C485 C 0.80587 0.23695 0.23154 0.0
C486 C 0.7918 0.22929 0.16018 0.0
C487 C 0.74478 0.28686 0.15043 0.0
H488 H 0.75848 0.29874 0.03004 0.0
C489 C 0.69083 0.3489 0.02058 0.0
C490 C 0.69144 0.3239 0.98108 0.0
C491 C 0.70514 0.34198 0.05119 0.0
C492 C 0.75434 0.29512 0.06345 0.0
H493 H 0.79261 0.2915 0.27259 0.0
H494 H 0.76902 0.31677 0.21937 0.0
H495 H 0.78276 0.28018 0.08326 0.0
H496 H 0.7073 0.27244 0.94218 0.0
H497 H 0.73217 0.25955 0.99565 0.0
H498 H 0.71631 0.30099 0.13056 0.0
C499 C 0.77903 0.28819 0.21088 0.0
C500 C 0.7683 0.28453 0.09401 0.0
C501 C 0.79266 0.27405 0.24123 0.0
C502 C 0.70663 0.29222 0.97244 0.0
C503 C 0.7209 0.28518 0.00299 0.0
C504 C 0.73079 0.2973 0.11982 0.0
C505 C 0.7784 0.26587 0.16999 0.0
C506 C 0.76368 0.27979 0.13784 0.0
C507 C 0.72033 0.30981 0.04289 0.0
C508 C 0.73535 0.30109 0.07584 0.0
H509 H 0.8154 0.18669 0.18181 0.0
H510 H 0.79163 0.21095 0.12922 0.0
H511 H 0.74068 0.28289 0.18383 0.0
H512 H 0.6792 0.37348 0.02784 0.0
H513 H 0.70434 0.36202 0.08128 0.0
C514 C 0.71686 0.23033 0.73968 0.0
C515 C 0.70327 0.26654 0.73018 0.0
C516 C 0.73069 0.21753 0.70934 0.0
C517 C 0.75437 0.26639 0.61156 0.0
H518 H 0.77144 0.13172 0.59672 0.0
C519 C 0.80328 0.21105 0.47142 0.0
C520 C 0.81826 0.17897 0.48079 0.0
C521 C 0.78907 0.2196 0.50177 0.0
C522 C 0.76695 0.16959 0.60076 0.0
H523 H 0.69305 0.31592 0.6805 0.0
H524 H 0.71691 0.29342 0.62771 0.0
H525 H 0.74695 0.15026 0.64975 0.0
H526 H 0.83017 0.13014 0.52861 0.0
H527 H 0.80526 0.14494 0.58203 0.0
H528 H 0.77429 0.28578 0.56263 0.0
C529 C 0.71727 0.27576 0.65895 0.0
C530 C 0.75291 0.18025 0.63121 0.0
C531 C 0.70354 0.28863 0.68925 0.0
C532 C 0.81865 0.15483 0.52072 0.0
C533 C 0.80438 0.16323 0.55112 0.0
C534 C 0.76833 0.25573 0.58113 0.0
C535 C 0.73121 0.24052 0.66872 0.0
C536 C 0.74636 0.22879 0.63685 0.0
C537 C 0.78951 0.19619 0.5422 0.0
C538 C 0.77475 0.20719 0.57513 0.0
H539 H 0.71716 0.21288 0.77102 0.0
H540 H 0.74128 0.19057 0.71818 0.0
H541 H 0.75003 0.30436 0.61561 0.0
H542 H 0.80272 0.22992 0.44072 0.0
H543 H 0.7777 0.24459 0.49353 0.0
C544 C 0.78305 0.83188 0.08867 0.0
C545 C 0.80233 0.82417 0.09742 0.0
C546 C 0.76926 0.81921 0.11889 0.0
C547 C 0.76193 0.73798 0.21292 0.0
H548 H 0.71614 0.81465 0.22765 0.0
C549 C 0.7077 0.69534 0.3461 0.0
C550 C 0.68854 0.69633 0.33453 0.0
C551 C 0.72148 0.71223 0.31757 0.0
C552 C 0.72878 0.79262 0.22357 0.0
H553 H 0.8222 0.79836 0.14557 0.0
H554 H 0.79818 0.77759 0.19878 0.0
H555 H 0.74068 0.84368 0.17859 0.0
H556 H 0.66852 0.71693 0.28517 0.0
H557 H 0.69271 0.74666 0.23471 0.0
H558 H 0.75007 0.68708 0.25803 0.0
C559 C 0.7937 0.79254 0.16812 0.0
C560 C 0.74286 0.80924 0.19547 0.0
C561 C 0.80751 0.80509 0.13781 0.0
C562 C 0.68328 0.71539 0.29435 0.0
C563 C 0.69709 0.73264 0.26578 0.0
C564 C 0.74792 0.72153 0.24112 0.0
C565 C 0.77438 0.79868 0.15877 0.0
C566 C 0.75961 0.78206 0.18971 0.0
C567 C 0.71636 0.731 0.27703 0.0
C568 C 0.73116 0.74859 0.24674 0.0
H569 H 0.77856 0.84722 0.05816 0.0
H570 H 0.75454 0.82417 0.11039 0.0
H571 H 0.77445 0.71555 0.20867 0.0
H572 H 0.71198 0.68163 0.37738 0.0
H573 H 0.73615 0.71126 0.32751 0.0
C574 C 0.7221 0.71727 0.58561 0.0
C575 C 0.70893 0.67931 0.59334 0.0
C576 C 0.7362 0.72818 0.61559 0.0
C577 C 0.74775 0.72368 0.72928 0.0
H578 H 0.79986 0.73202 0.69137 0.0
C579 C 0.80804 0.75899 0.8503 0.0
C580 C 0.82344 0.78771 0.83689 0.0
C581 C 0.79454 0.74289 0.82064 0.0
C582 C 0.78538 0.73063 0.7025 0.0
H583 H 0.70036 0.6236 0.63957 0.0
H584 H 0.72462 0.64424 0.69268 0.0
H585 H 0.77518 0.71022 0.63997 0.0
H586 H 0.83661 0.82356 0.78254 0.0
H587 H 0.81264 0.7973 0.73063 0.0
H588 H 0.75761 0.74604 0.79126 0.0
C589 C 0.724 0.66499 0.66293 0.0
C590 C 0.77126 0.71779 0.67303 0.0
C591 C 0.71004 0.65342 0.63255 0.0
C592 C 0.82501 0.80064 0.79337 0.0
C593 C 0.81131 0.7853 0.76371 0.0
C594 C 0.76181 0.73735 0.75863 0.0
C595 C 0.73731 0.70216 0.65449 0.0
C596 C 0.75232 0.71424 0.68613 0.0
C597 C 0.79582 0.75629 0.77696 0.0
C598 C 0.78085 0.74105 0.74569 0.0
H599 H 0.72145 0.73913 0.55651 0.0
H600 H 0.74609 0.75759 0.60862 0.0
H601 H 0.73321 0.72177 0.74008 0.0
H602 H 0.80635 0.74937 0.88393 0.0
H603 H 0.78308 0.72 0.83214 0.0
C604 C 0.28223 0.66416 0.916 0.0
C605 C 0.30147 0.67313 0.90772 0.0
C606 C 0.26841 0.67687 0.88581 0.0
C607 C 0.26079 0.75931 0.79243 0.0
H608 H 0.21549 0.68093 0.77631 0.0
C609 C 0.20697 0.80015 0.6579 0.0
C610 C 0.18778 0.79924 0.66922 0.0
C611 C 0.22069 0.7834 0.68667 0.0
C612 C 0.22799 0.70341 0.78078 0.0
H613 H 0.32123 0.70134 0.86038 0.0
H614 H 0.29721 0.72192 0.80717 0.0
H615 H 0.24003 0.65251 0.82572 0.0
H616 H 0.16766 0.77868 0.71835 0.0
H617 H 0.19175 0.749 0.76916 0.0
H618 H 0.24882 0.80994 0.7472 0.0
C619 C 0.29276 0.70604 0.83749 0.0
C620 C 0.24207 0.68717 0.8091 0.0
C621 C 0.30658 0.69356 0.8678 0.0
C622 C 0.18243 0.78016 0.70933 0.0
C623 C 0.19618 0.76297 0.73812 0.0
C624 C 0.2468 0.77534 0.76395 0.0
C625 C 0.27346 0.6986 0.84638 0.0
C626 C 0.25865 0.71497 0.81536 0.0
C627 C 0.21548 0.76476 0.72718 0.0
C628 C 0.23023 0.74763 0.75781 0.0
H629 H 0.27777 0.64775 0.9461 0.0
H630 H 0.25371 0.67088 0.89399 0.0
H631 H 0.27315 0.78226 0.79705 0.0
H632 H 0.21132 0.81386 0.62668 0.0
H633 H 0.23539 0.78447 0.67698 0.0
C634 C 0.30259 0.70262 0.15786 0.0
C635 C 0.32188 0.70336 0.16821 0.0
C636 C 0.28918 0.7198 0.18721 0.0
C637 C 0.28256 0.74584 0.30318 0.0
H638 H 0.23729 0.81175 0.26273 0.0
C639 C 0.2182 0.77368 0.41341 0.0
C640 C 0.20799 0.81793 0.41037 0.0
C641 C 0.23228 0.76237 0.38356 0.0
C642 C 0.24992 0.79391 0.27469 0.0
H643 H 0.34253 0.72424 0.21609 0.0
H644 H 0.31912 0.7553 0.26761 0.0
H645 H 0.26193 0.78946 0.21162 0.0
H646 H 0.20443 0.88489 0.37332 0.0
H647 H 0.22926 0.8655 0.32126 0.0
H648 H 0.27077 0.75125 0.36636 0.0
C649 C 0.31425 0.74024 0.23729 0.0
C650 C 0.26397 0.78052 0.24526 0.0
C651 C 0.32766 0.72271 0.2079 0.0
C652 C 0.21198 0.85035 0.3763 0.0
C653 C 0.2262 0.83917 0.34648 0.0
C654 C 0.26856 0.75945 0.33262 0.0
C655 C 0.29481 0.73875 0.2274 0.0
C656 C 0.28037 0.75574 0.25904 0.0
C657 C 0.23663 0.79515 0.34994 0.0
C658 C 0.25194 0.78307 0.31871 0.0
H659 H 0.29789 0.68837 0.12707 0.0
H660 H 0.27438 0.7174 0.17862 0.0
H661 H 0.29489 0.72647 0.31499 0.0
H662 H 0.21521 0.74748 0.43882 0.0
H663 H 0.23965 0.72758 0.38666 0.0
C664 C 0.07713 0.14053 0.26019 0.0
C665 C 0.08416 0.13803 0.2181 0.0
C666 C 0.0578 0.13403 0.26802 0.0
C667 C 0.01169 0.14523 0.21299 0.0
H668 H 0.99252 0.08048 0.31528 0.0
C669 C 0.9315 0.12897 0.24516 0.0
C670 C 0.92562 0.13847 0.28744 0.0
C671 C 0.95071 0.12257 0.23585 0.0
C672 C 0.99764 0.09899 0.28669 0.0
H673 H 0.07699 0.12591 0.15138 0.0
H674 H 0.04325 0.11358 0.16476 0.0
H675 H 0.02642 0.08034 0.30074 0.0
H676 H 0.93491 0.14877 0.35308 0.0
H677 H 0.96844 0.1379 0.33719 0.0
H678 H 0.98303 0.16474 0.19928 0.0
C679 C 0.05248 0.12114 0.19179 0.0
C680 C 0.01709 0.0989 0.27835 0.0
C681 C 0.07178 0.12772 0.18407 0.0
C682 C 0.93916 0.1409 0.32034 0.0
C683 C 0.95834 0.13445 0.31116 0.0
C684 C 0.99227 0.14538 0.22134 0.0
C685 C 0.04517 0.12506 0.2338 0.0
C686 C 0.02439 0.12244 0.2416 0.0
C687 C 0.96441 0.12581 0.26868 0.0
C688 C 0.98499 0.1227 0.25851 0.0
H689 H 0.0865 0.14903 0.28676 0.0
H690 H 0.05267 0.13791 0.30067 0.0
H691 H 0.01679 0.16444 0.18474 0.0
H692 H 0.92127 0.12748 0.21924 0.0
H693 H 0.95484 0.11543 0.20288 0.0
C694 C 0.43709 0.37119 0.68729 0.0
C695 C 0.42443 0.3642 0.72138 0.0
C696 C 0.45637 0.37748 0.6952 0.0
C697 C 0.49176 0.4031 0.78134 0.0
H698 H 0.5253 0.3315 0.70499 0.0
C699 C 0.56985 0.36065 0.82324 0.0
C700 C 0.58319 0.36196 0.78989 0.0
C701 C 0.55062 0.36697 0.81448 0.0
C702 C 0.5162 0.3524 0.72626 0.0
H703 H 0.42166 0.35861 0.79045 0.0
H704 H 0.45553 0.36894 0.80477 0.0
H705 H 0.49153 0.3321 0.69076 0.0
H706 H 0.58715 0.37081 0.72136 0.0
H707 H 0.55347 0.38225 0.70566 0.0
H708 H 0.51654 0.4225 0.81732 0.0
C709 C 0.45058 0.37067 0.77181 0.0
C710 C 0.49678 0.35278 0.71808 0.0
C711 C 0.43122 0.36465 0.76376 0.0
C712 C 0.57707 0.37012 0.74758 0.0
C713 C 0.55781 0.37625 0.73868 0.0
C714 C 0.51124 0.40264 0.78958 0.0
C715 C 0.46347 0.37624 0.73754 0.0
C716 C 0.48426 0.3779 0.7456 0.0
C717 C 0.54431 0.37419 0.77198 0.0
C718 C 0.52369 0.37703 0.76225 0.0
H719 H 0.43208 0.37044 0.65442 0.0
H720 H 0.46576 0.3825 0.66804 0.0
H721 H 0.4826 0.42336 0.80291 0.0
H722 H 0.5743 0.35381 0.85602 0.0
H723 H 0.54066 0.36454 0.84085 0.0
C724 C 0.06484 0.91791 0.66144 0.0
C725 C 0.07769 0.88058 0.67252 0.0
C726 C 0.04722 0.92075 0.68174 0.0
C727 C 0.01374 0.84234 0.74298 0.0
H728 H 0.98817 0.96616 0.76469 0.0
C729 C 0.93644 0.84482 0.79837 0.0
C730 C 0.93137 0.87908 0.83014 0.0
C731 C 0.95386 0.84835 0.77749 0.0
C732 C 0.99516 0.93124 0.75919 0.0
H733 H 0.0827 0.81857 0.7148 0.0
H734 H 0.05232 0.82443 0.75138 0.0
H735 H 0.02004 0.96653 0.7349 0.0
H736 H 0.94032 0.94441 0.86462 0.0
H737 H 0.97102 0.95001 0.82904 0.0
H738 H 0.98929 0.80698 0.76868 0.0
C739 C 0.05547 0.85059 0.72608 0.0
C740 C 0.01338 0.93144 0.7416 0.0
C741 C 0.07294 0.84739 0.7054 0.0
C742 C 0.94382 0.91783 0.83985 0.0
C743 C 0.9614 0.92102 0.81937 0.0
C744 C 0.99565 0.84215 0.76086 0.0
C745 C 0.04218 0.88658 0.71386 0.0
C746 C 0.02291 0.88695 0.73326 0.0
C747 C 0.96678 0.88578 0.78844 0.0
C748 C 0.98605 0.88655 0.76904 0.0
H749 H 0.06809 0.94362 0.63582 0.0
H750 H 0.03732 0.94859 0.67109 0.0
H751 H 0.02043 0.80728 0.73637 0.0
H752 H 0.92699 0.81486 0.79005 0.0
H753 H 0.95727 0.82129 0.75309 0.0
C754 C 0.43687 0.65667 0.20437 0.0
C755 C 0.43176 0.62234 0.17265 0.0
C756 C 0.45435 0.65329 0.22509 0.0
C757 C 0.49548 0.56996 0.24359 0.0
H758 H 0.52103 0.69343 0.26713 0.0
C759 C 0.56507 0.58155 0.342 0.0
C760 C 0.57809 0.61856 0.33104 0.0
C761 C 0.54744 0.57924 0.32164 0.0
C762 C 0.51425 0.6585 0.26032 0.0
H763 H 0.44077 0.55722 0.13796 0.0
H764 H 0.47152 0.55185 0.17331 0.0
H765 H 0.48992 0.69434 0.23446 0.0
H766 H 0.58334 0.68058 0.28891 0.0
H767 H 0.55292 0.67568 0.25229 0.0
H768 H 0.52022 0.53418 0.26809 0.0
C769 C 0.46189 0.58077 0.18305 0.0
C770 C 0.49619 0.65905 0.24223 0.0
C771 C 0.44428 0.58384 0.16271 0.0
C772 C 0.57346 0.65199 0.29824 0.0
C773 C 0.55597 0.64934 0.27753 0.0
C774 C 0.51366 0.5694 0.26142 0.0
C775 C 0.46727 0.6159 0.2141 0.0
C776 C 0.48651 0.61484 0.23374 0.0
C777 C 0.54254 0.61364 0.28959 0.0
C778 C 0.52329 0.61371 0.27002 0.0
H779 H 0.42739 0.68642 0.21293 0.0
H780 H 0.45778 0.6803 0.24953 0.0
H781 H 0.48842 0.53518 0.2379 0.0
H782 H 0.56821 0.55567 0.36757 0.0
H783 H 0.53743 0.55161 0.33218 0.0
C784 C 0.06597 0.05314 0.02565 0.0
C785 C 0.06842 0.09733 0.04866 0.0
C786 C 0.04789 0.0341 0.01822 0.0
C787 C 0.99909 0.04024 0.06141 0.0
H788 H 0.98693 0.96746 0.95764 0.0
C789 C 0.9311 0.92337 0.04818 0.0
C790 C 0.92174 0.92232 0.00841 0.0
C791 C 0.94895 0.94521 0.05183 0.0
C792 C 0.98998 0.98806 0.98668 0.0
H793 H 0.0536 0.15672 0.08096 0.0
H794 H 0.0221 0.12449 0.06675 0.0
H795 H 0.0176 0.00734 0.96428 0.0
H796 H 0.92318 0.94444 0.94166 0.0
H797 H 0.9542 0.98343 0.94786 0.0
H798 H 0.9713 0.02219 0.08332 0.0
C799 C 0.03418 0.10397 0.05511 0.0
C800 C 0.00771 0.01047 0.99072 0.0
C801 C 0.05227 0.12293 0.06265 0.0
C802 C 0.93034 0.94414 0.97249 0.0
C803 C 0.94813 0.96622 0.9761 0.0
C804 C 0.98133 0.01809 0.05726 0.0
C805 C 0.03174 0.05883 0.03346 0.0
C806 C 0.01256 0.03664 0.02825 0.0
C807 C 0.95769 0.96716 0.01587 0.0
C808 C 0.97656 0.9914 0.01996 0.0
H809 H 0.07808 0.03267 0.01405 0.0
H810 H 0.04665 0.99907 0.00178 0.0
H811 H 1.00235 0.05946 0.09105 0.0
H812 H 0.92449 0.90796 0.07659 0.0
H813 H 0.9559 0.94473 0.08288 0.0
C814 C 0.57782 0.58774 0.54854 0.0
C815 C 0.58772 0.5838 0.50959 0.0
C816 C 0.55967 0.5678 0.55249 0.0
C817 C 0.52859 0.47185 0.50909 0.0
H818 H 0.48855 0.54882 0.56117 0.0
C819 C 0.45122 0.40004 0.52224 0.0
C820 C 0.44101 0.41376 0.55908 0.0
C821 C 0.46911 0.42038 0.51422 0.0
C822 C 0.4996 0.52642 0.54712 0.0
H823 H 0.58688 0.55458 0.44482 0.0
H824 H 0.55514 0.51924 0.45171 0.0
H825 H 0.51967 0.58533 0.55142 0.0
H826 H 0.44191 0.4572 0.61759 0.0
H827 H 0.47312 0.49109 0.60463 0.0
H828 H 0.50872 0.41241 0.50586 0.0
C829 C 0.56129 0.53824 0.47901 0.0
C830 C 0.51743 0.54755 0.54137 0.0
C831 C 0.57935 0.55869 0.47495 0.0
C832 C 0.44927 0.44681 0.58838 0.0
C833 C 0.46716 0.46646 0.58078 0.0
C834 C 0.51078 0.45043 0.51533 0.0
C835 C 0.55124 0.54262 0.51783 0.0
C836 C 0.53215 0.52045 0.52255 0.0
C837 C 0.47725 0.45428 0.54326 0.0
C838 C 0.49607 0.4773 0.5348 0.0
H839 H 0.58429 0.60514 0.57625 0.0
H840 H 0.5524 0.57095 0.58305 0.0
H841 H 0.53973 0.44994 0.49477 0.0
H842 H 0.44517 0.37458 0.49917 0.0
H843 H 0.47638 0.4103 0.48485 0.0
C844 C 0.43087 0.56024 0.02964 0.0
C845 C 0.42219 0.58389 0.99465 0.0
C846 C 0.44896 0.53998 0.02545 0.0
C847 C 0.49238 0.54819 0.96149 0.0
H848 H 0.50182 0.41475 1.00056 0.0
C849 C 0.56136 0.44836 0.91809 0.0
C850 C 0.56954 0.41649 0.9484 0.0
C851 C 0.54334 0.46779 0.92475 0.0
C852 C 0.49956 0.45232 0.99007 0.0
H853 H 0.42506 0.60275 0.92729 0.0
H854 H 0.45699 0.56887 0.92019 0.0
H855 H 0.47068 0.45159 0.01108 0.0
H856 H 0.56525 0.37915 0.0091 0.0
H857 H 0.53391 0.41464 0.0219 0.0
H858 H 0.52121 0.54978 0.94131 0.0
C859 C 0.44995 0.56672 0.9511 0.0
C860 C 0.48167 0.47334 0.99599 0.0
C861 C 0.43177 0.58645 0.95519 0.0
C862 C 0.55923 0.40378 0.98534 0.0
C863 C 0.54125 0.42393 0.99243 0.0
C864 C 0.5103 0.52749 0.95607 0.0
C865 C 0.4587 0.54311 0.98613 0.0
C866 C 0.47785 0.52132 0.98136 0.0
C867 C 0.5331 0.45652 0.96232 0.0
C868 C 0.51412 0.47903 0.9698 0.0
H869 H 0.42359 0.55726 0.06019 0.0
H870 H 0.45537 0.52218 0.05303 0.0
H871 H 0.48992 0.58552 0.95047 0.0
H872 H 0.56885 0.45781 0.88881 0.0
H873 H 0.5374 0.49141 0.90014 0.0
C874 C 0.0778 0.91165 0.4541 0.0
C875 C 0.08747 0.91504 0.49342 0.0
C876 C 0.05965 0.93148 0.4498 0.0
C877 C 0.02814 0.02615 0.49376 0.0
H878 H 0.98843 0.9496 0.43976 0.0
C879 C 0.95068 0.09632 0.48313 0.0
C880 C 0.9403 0.08351 0.44628 0.0
C881 C 0.96864 0.07603 0.49023 0.0
C882 C 0.99939 0.9719 0.45433 0.0
H883 H 0.08623 0.94315 0.55852 0.0
H884 H 0.0545 0.97832 0.55104 0.0
H885 H 0.01966 0.91357 0.44916 0.0
H886 H 0.94085 0.04182 0.38686 0.0
H887 H 0.97226 0.00788 0.39824 0.0
H888 H 0.0081 0.08501 0.49796 0.0
C889 C 0.06082 0.95986 0.52369 0.0
C890 C 0.01729 0.95105 0.45988 0.0
C891 C 0.07889 0.93954 0.52808 0.0
C892 C 0.94839 0.05136 0.41607 0.0
C893 C 0.96639 0.03174 0.42276 0.0
C894 C 0.01028 0.0473 0.48774 0.0
C895 C 0.05099 0.95599 0.4845 0.0
C896 C 0.03188 0.97796 0.47952 0.0
C897 C 0.97669 0.04317 0.46022 0.0
C898 C 0.99566 0.02054 0.46773 0.0
H899 H 0.08443 0.89466 0.42642 0.0
H900 H 0.05256 0.92873 0.41899 0.0
H901 H 0.03918 0.04796 0.50864 0.0
H902 H 0.94474 0.12116 0.50682 0.0
H903 H 0.97603 0.08543 0.51962 0.0
loop_
_geom_bond_atom_site_label_1
_geom_bond_atom_site_label_2
_geom_bond_distance
_geom_bond_site_symmetry_2
_ccdc_geom_bond_type
C0 C1 1.443 . S
C0 N4 1.376 . S
C0 C38 1.389 . S
C1 C0 1.443 . S
C1 C2 1.340 . S
C1 H41 0.951 . S
C2 C1 1.340 . S
C2 C3 1.439 . S
C2 H42 0.950 . S
C3 C2 1.439 . S
C3 N4 1.374 . S
C3 C37 1.395 . S
N4 C0 1.376 . S
N4 C3 1.374 . S
N4 Co5 2.008 . S
Co5 N4 2.008 . S
Co5 N6 1.995 . S
Co5 N11 2.008 . S
Co5 N16 1.995 . S
Co5 N21 2.282 . S
Co5 N27 2.282 . S
N6 Co5 1.995 . S
N6 C7 1.376 . S
N6 C10 1.383 . S
C7 N6 1.376 . S
C7 C8 1.446 . S
C7 C37 1.391 . S
C8 C7 1.446 . S
C8 C9 1.339 . S
C8 H43 0.949 . S
C9 C8 1.339 . S
C9 C10 1.439 . S
C9 H44 0.950 . S
C10 N6 1.383 . S
C10 C9 1.439 . S
C10 C39 1.392 . S
N11 Co5 2.008 . S
N11 C12 1.376 . S
N11 C15 1.374 . S
C12 N11 1.376 . S
C12 C13 1.443 . S
C12 C39 1.389 . S
C13 C12 1.443 . S
C13 C14 1.340 . S
C13 H45 0.951 . S
C14 C13 1.340 . S
C14 C15 1.439 . S
C14 H46 0.950 . S
C15 N11 1.374 . S
C15 C14 1.439 . S
C15 C40 1.395 . S
N16 Co5 1.995 . S
N16 C17 1.376 . S
N16 C20 1.383 . S
C17 N16 1.376 . S
C17 C18 1.446 . S
C17 C40 1.391 . S
C18 C17 1.446 . S
C18 C19 1.339 . S
C18 H47 0.949 . S
C19 C18 1.339 . S
C19 C20 1.439 . S
C19 H48 0.950 . S
C20 N16 1.383 . S
C20 C19 1.439 . S
C20 C38 1.392 . S
N21 Co5 2.282 . S
N21 C24 1.332 . S
N21 C26 1.332 . S
C22 C23 1.386 . S
C22 C25 1.388 . S
C23 C22 1.386 . S
C23 C24 1.382 . S
C23 H49 0.950 . S
C24 N21 1.332 . S
C24 C23 1.382 . S
C24 H35 0.952 . S
C25 C22 1.388 . S
C25 C26 1.382 . S
C25 H50 0.950 . S
C26 N21 1.332 . S
C26 C25 1.382 . S
C26 H36 0.948 . S
N27 Co5 2.282 . S
N27 C31 1.332 . S
N27 C32 1.332 . S
C28 C29 1.388 . S
C28 C32 1.382 . S
C28 H51 0.950 . S
C29 C28 1.388 . S
C29 C30 1.386 . S
C30 C29 1.386 . S
C30 C31 1.382 . S
C30 H52 0.950 . S
C31 N27 1.332 . S
C31 C30 1.382 . S
C31 H33 0.952 . S
C32 N27 1.332 . S
C32 C28 1.382 . S
C32 H34 0.948 . S
H33 C31 0.952 . S
H34 C32 0.948 . S
H35 C24 0.952 . S
H36 C26 0.948 . S
C37 C3 1.395 . S
C37 C7 1.391 . S
C38 C0 1.389 . S
C38 C20 1.392 . S
C39 C10 1.392 . S
C39 C12 1.389 . S
C40 C15 1.395 . S
C40 C17 1.391 . S
H41 C1 0.951 . S
H42 C2 0.950 . S
H43 C8 0.949 . S
H44 C9 0.950 . S
H45 C13 0.951 . S
H46 C14 0.950 . S
H47 C18 0.949 . S
H48 C19 0.950 . S
H49 C23 0.950 . S
H50 C25 0.950 . S
H51 C28 0.950 . S
H52 C30 0.950 . S
C53 C54 1.443 . S
C53 N57 1.376 . S
C53 C91 1.389 . S
C54 C53 1.443 . S
C54 C55 1.340 . S
C54 H94 0.951 . S
C55 C54 1.340 . S
C55 C56 1.439 . S
C55 H95 0.950 . S
C56 C55 1.439 . S
C56 N57 1.374 . S
C56 C90 1.395 . S
N57 C53 1.376 . S
N57 C56 1.374 . S
N57 Co58 2.008 . S
Co58 N57 2.008 . S
Co58 N59 1.995 . S
Co58 N64 2.008 . S
Co58 N69 1.995 . S
Co58 N74 2.282 . S
Co58 N80 2.282 . S
N59 Co58 1.995 . S
N59 C60 1.376 . S
N59 C63 1.383 . S
C60 N59 1.376 . S
C60 C61 1.446 . S
C60 C90 1.391 . S
C61 C60 1.446 . S
C61 C62 1.339 . S
C61 H96 0.949 . S
C62 C61 1.339 . S
C62 C63 1.439 . S
C62 H97 0.950 . S
C63 N59 1.383 . S
C63 C62 1.439 . S
C63 C92 1.392 . S
N64 Co58 2.008 . S
N64 C65 1.376 . S
N64 C68 1.374 . S
C65 N64 1.376 . S
C65 C66 1.443 . S
C65 C92 1.389 . S
C66 C65 1.443 . S
C66 C67 1.340 . S
C66 H98 0.951 . S
C67 C66 1.340 . S
C67 C68 1.439 . S
C67 H99 0.950 . S
C68 N64 1.374 . S
C68 C67 1.439 . S
C68 C93 1.395 . S
N69 Co58 1.995 . S
N69 C70 1.376 . S
N69 C73 1.383 . S
C70 N69 1.376 . S
C70 C71 1.446 . S
C70 C93 1.391 . S
C71 C70 1.446 . S
C71 C72 1.339 . S
C71 H100 0.949 . S
C72 C71 1.339 . S
C72 C73 1.439 . S
C72 H101 0.950 . S
C73 N69 1.383 . S
C73 C72 1.439 . S
C73 C91 1.392 . S
N74 Co58 2.282 . S
N74 C77 1.332 . S
N74 C79 1.332 . S
C75 C76 1.386 . S
C75 C78 1.388 . S
C76 C75 1.386 . S
C76 C77 1.382 . S
C76 H102 0.950 . S
C77 N74 1.332 . S
C77 C76 1.382 . S
C77 H88 0.952 . S
C78 C75 1.388 . S
C78 C79 1.382 . S
C78 H103 0.950 . S
C79 N74 1.332 . S
C79 C78 1.382 . S
C79 H89 0.948 . S
N80 Co58 2.282 . S
N80 C84 1.332 . S
N80 C85 1.332 . S
C81 C82 1.388 . S
C81 C85 1.382 . S
C81 H104 0.950 . S
C82 C81 1.388 . S
C82 C83 1.386 . S
C83 C82 1.386 . S
C83 C84 1.382 . S
C83 H105 0.950 . S
C84 N80 1.332 . S
C84 C83 1.382 . S
C84 H86 0.952 . S
C85 N80 1.332 . S
C85 C81 1.382 . S
C85 H87 0.948 . S
H86 C84 0.952 . S
H87 C85 0.948 . S
H88 C77 0.952 . S
H89 C79 0.948 . S
C90 C56 1.395 . S
C90 C60 1.391 . S
C91 C53 1.389 . S
C91 C73 1.392 . S
C92 C63 1.392 . S
C92 C65 1.389 . S
C93 C68 1.395 . S
C93 C70 1.391 . S
H94 C54 0.951 . S
H95 C55 0.950 . S
H96 C61 0.949 . S
H97 C62 0.950 . S
H98 C66 0.951 . S
H99 C67 0.950 . S
H100 C71 0.949 . S
H101 C72 0.950 . S
H102 C76 0.950 . S
H103 C78 0.950 . S
H104 C81 0.950 . S
H105 C83 0.950 . S
C106 C107 1.443 . S
C106 N110 1.376 . S
C106 C144 1.389 . S
C107 C106 1.443 . S
C107 C108 1.340 . S
C107 H147 0.951 . S
C108 C107 1.340 . S
C108 C109 1.439 . S
C108 H148 0.950 . S
C109 C108 1.439 . S
C109 N110 1.374 . S
C109 C143 1.395 . S
N110 C106 1.376 . S
N110 C109 1.374 . S
N110 Co111 2.008 . S
Co111 N110 2.008 . S
Co111 N112 1.995 . S
Co111 N117 2.008 . S
Co111 N122 1.995 . S
Co111 N127 2.282 . S
Co111 N133 2.282 . S
N112 Co111 1.995 . S
N112 C113 1.376 . S
N112 C116 1.383 . S
C113 N112 1.376 . S
C113 C114 1.446 . S
C113 C143 1.391 . S
C114 C113 1.446 . S
C114 C115 1.339 . S
C114 H149 0.949 . S
C115 C114 1.339 . S
C115 C116 1.439 . S
C115 H150 0.950 . S
C116 N112 1.383 . S
C116 C115 1.439 . S
C116 C145 1.392 . S
N117 Co111 2.008 . S
N117 C118 1.376 . S
N117 C121 1.374 . S
C118 N117 1.376 . S
C118 C119 1.443 . S
C118 C145 1.389 . S
C119 C118 1.443 . S
C119 C120 1.340 . S
C119 H151 0.951 . S
C120 C119 1.340 . S
C120 C121 1.439 . S
C120 H152 0.950 . S
C121 N117 1.374 . S
C121 C120 1.439 . S
C121 C146 1.395 . S
N122 Co111 1.995 . S
N122 C123 1.376 . S
N122 C126 1.383 . S
C123 N122 1.376 . S
C123 C124 1.446 . S
C123 C146 1.391 . S
C124 C123 1.446 . S
C124 C125 1.339 . S
C124 H153 0.949 . S
C125 C124 1.339 . S
C125 C126 1.439 . S
C125 H154 0.950 . S
C126 N122 1.383 . S
C126 C125 1.439 . S
C126 C144 1.392 . S
N127 Co111 2.282 . S
N127 C130 1.332 . S
N127 C132 1.332 . S
C128 C129 1.386 . S
C128 C131 1.388 . S
C129 C128 1.386 . S
C129 C130 1.382 . S
C129 H155 0.950 . S
C130 N127 1.332 . S
C130 C129 1.382 . S
C130 H141 0.952 . S
C131 C128 1.388 . S
C131 C132 1.382 . S
C131 H156 0.950 . S
C132 N127 1.332 . S
C132 C131 1.382 . S
C132 H142 0.948 . S
N133 Co111 2.282 . S
N133 C137 1.332 . S
N133 C138 1.332 . S
C134 C135 1.388 . S
C134 C138 1.382 . S
C134 H157 0.950 . S
C135 C134 1.388 . S
C135 C136 1.386 . S
C136 C135 1.386 . S
C136 C137 1.382 . S
C136 H158 0.950 . S
C137 N133 1.332 . S
C137 C136 1.382 . S
C137 H139 0.952 . S
C138 N133 1.332 . S
C138 C134 1.382 . S
C138 H140 0.948 . S
H139 C137 0.952 . S
H140 C138 0.948 . S
H141 C130 0.952 . S
H142 C132 0.948 . S
C143 C109 1.395 . S
C143 C113 1.391 . S
C144 C106 1.389 . S
C144 C126 1.392 . S
C145 C116 1.392 . S
C145 C118 1.389 . S
C146 C121 1.395 . S
C146 C123 1.391 . S
H147 C107 0.951 . S
H148 C108 0.950 . S
H149 C114 0.949 . S
H150 C115 0.950 . S
H151 C119 0.951 . S
H152 C120 0.950 . S
H153 C124 0.949 . S
H154 C125 0.950 . S
H155 C129 0.950 . S
H156 C131 0.950 . S
H157 C134 0.950 . S
H158 C136 0.950 . S
C159 C160 1.443 . S
C159 N163 1.376 . S
C159 C197 1.389 . S
C160 C159 1.443 . S
C160 C161 1.340 . S
C160 H200 0.951 . S
C161 C160 1.340 . S
C161 C162 1.439 . S
C161 H201 0.950 . S
C162 C161 1.439 . S
C162 N163 1.374 . S
C162 C196 1.395 . S
N163 C159 1.376 . S
N163 C162 1.374 . S
N163 Co164 2.008 . S
Co164 N163 2.008 . S
Co164 N165 1.995 . S
Co164 N170 2.008 . S
Co164 N175 1.995 . S
Co164 N180 2.282 . S
Co164 N186 2.282 . S
N165 Co164 1.995 . S
N165 C166 1.376 . S
N165 C169 1.383 . S
C166 N165 1.376 . S
C166 C167 1.446 . S
C166 C196 1.391 . S
C167 C166 1.446 . S
C167 C168 1.339 . S
C167 H202 0.949 . S
C168 C167 1.339 . S
C168 C169 1.439 . S
C168 H203 0.950 . S
C169 N165 1.383 . S
C169 C168 1.439 . S
C169 C198 1.392 . S
N170 Co164 2.008 . S
N170 C171 1.376 . S
N170 C174 1.374 . S
C171 N170 1.376 . S
C171 C172 1.443 . S
C171 C198 1.389 . S
C172 C171 1.443 . S
C172 C173 1.340 . S
C172 H204 0.951 . S
C173 C172 1.340 . S
C173 C174 1.439 . S
C173 H205 0.950 . S
C174 N170 1.374 . S
C174 C173 1.439 . S
C174 C199 1.395 . S
N175 Co164 1.995 . S
N175 C176 1.376 . S
N175 C179 1.383 . S
C176 N175 1.376 . S
C176 C177 1.446 . S
C176 C199 1.391 . S
C177 C176 1.446 . S
C177 C178 1.339 . S
C177 H206 0.949 . S
C178 C177 1.339 . S
C178 C179 1.439 . S
C178 H207 0.950 . S
C179 N175 1.383 . S
C179 C178 1.439 . S
C179 C197 1.392 . S
N180 Co164 2.282 . S
N180 C183 1.332 . S
N180 C185 1.332 . S
C181 C182 1.386 . S
C181 C184 1.388 . S
C182 C181 1.386 . S
C182 C183 1.382 . S
C182 H208 0.950 . S
C183 N180 1.332 . S
C183 C182 1.382 . S
C183 H194 0.952 . S
C184 C181 1.388 . S
C184 C185 1.382 . S
C184 H209 0.950 . S
C185 N180 1.332 . S
C185 C184 1.382 . S
C185 H195 0.948 . S
N186 Co164 2.282 . S
N186 C190 1.332 . S
N186 C191 1.332 . S
C187 C188 1.388 . S
C187 C191 1.382 . S
C187 H210 0.950 . S
C188 C187 1.388 . S
C188 C189 1.386 . S
C189 C188 1.386 . S
C189 C190 1.382 . S
C189 H211 0.950 . S
C190 N186 1.332 . S
C190 C189 1.382 . S
C190 H192 0.952 . S
C191 N186 1.332 . S
C191 C187 1.382 . S
C191 H193 0.948 . S
H192 C190 0.952 . S
H193 C191 0.948 . S
H194 C183 0.952 . S
H195 C185 0.948 . S
C196 C162 1.395 . S
C196 C166 1.391 . S
C197 C159 1.389 . S
C197 C179 1.392 . S
C198 C169 1.392 . S
C198 C171 1.389 . S
C199 C174 1.395 . S
C199 C176 1.391 . S
H200 C160 0.951 . S
H201 C161 0.950 . S
H202 C167 0.949 . S
H203 C168 0.950 . S
H204 C172 0.951 . S
H205 C173 0.950 . S
H206 C177 0.949 . S
H207 C178 0.950 . S
H208 C182 0.950 . S
H209 C184 0.950 . S
H210 C187 0.950 . S
H211 C189 0.950 . S
C212 C213 1.443 . S
C212 N216 1.376 . S
C212 C250 1.389 . S
C213 C212 1.443 . S
C213 C214 1.340 . S
C213 H253 0.951 . S
C214 C213 1.340 . S
C214 C215 1.439 . S
C214 H254 0.950 . S
C215 C214 1.439 . S
C215 N216 1.374 . S
C215 C249 1.395 . S
N216 C212 1.376 . S
N216 C215 1.374 . S
N216 Co217 2.008 . S
Co217 N216 2.008 . S
Co217 N218 1.995 . S
Co217 N223 2.008 . S
Co217 N228 1.995 . S
Co217 N233 2.282 . S
Co217 N239 2.282 . S
N218 Co217 1.995 . S
N218 C219 1.376 . S
N218 C222 1.383 . S
C219 N218 1.376 . S
C219 C220 1.446 . S
C219 C249 1.391 . S
C220 C219 1.446 . S
C220 C221 1.339 . S
C220 H255 0.949 . S
C221 C220 1.339 . S
C221 C222 1.439 . S
C221 H256 0.950 . S
C222 N218 1.383 . S
C222 C221 1.439 . S
C222 C251 1.392 . S
N223 Co217 2.008 . S
N223 C224 1.376 . S
N223 C227 1.374 . S
C224 N223 1.376 . S
C224 C225 1.443 . S
C224 C251 1.389 . S
C225 C224 1.443 . S
C225 C226 1.340 . S
C225 H257 0.951 . S
C226 C225 1.340 . S
C226 C227 1.439 . S
C226 H258 0.950 . S
C227 N223 1.374 . S
C227 C226 1.439 . S
C227 C252 1.395 . S
N228 Co217 1.995 . S
N228 C229 1.376 . S
N228 C232 1.383 . S
C229 N228 1.376 . S
C229 C230 1.446 1_556 S
C229 C252 1.391 . S
C230 C229 1.446 1_554 S
C230 C231 1.339 . S
C230 H259 0.949 . S
C231 C230 1.339 . S
C231 C232 1.438 1_554 S
C231 H260 0.950 . S
C232 N228 1.383 . S
C232 C231 1.438 1_556 S
C232 C250 1.392 . S
N233 Co217 2.282 . S
N233 C236 1.332 1_556 S
N233 C238 1.332 . S
C234 C235 1.386 . S
C234 C237 1.388 . S
C235 C234 1.386 . S
C235 C236 1.382 . S
C235 H261 0.950 . S
C236 N233 1.332 1_554 S
C236 C235 1.382 . S
C236 H247 0.952 . S
C237 C234 1.388 . S
C237 C238 1.382 1_554 S
C237 H262 0.950 . S
C238 N233 1.332 . S
C238 C237 1.382 1_556 S
C238 H248 0.948 . S
N239 Co217 2.282 . S
N239 C243 1.332 . S
N239 C244 1.332 . S
C240 C241 1.388 . S
C240 C244 1.382 . S
C240 H263 0.950 . S
C241 C240 1.388 . S
C241 C242 1.386 . S
C242 C241 1.386 . S
C242 C243 1.382 . S
C242 H264 0.950 . S
C243 N239 1.332 . S
C243 C242 1.382 . S
C243 H245 0.952 . S
C244 N239 1.332 . S
C244 C240 1.382 . S
C244 H246 0.948 . S
H245 C243 0.952 . S
H246 C244 0.948 . S
H247 C236 0.952 . S
H248 C238 0.948 . S
C249 C215 1.395 . S
C249 C219 1.391 . S
C250 C212 1.389 . S
C250 C232 1.392 . S
C251 C222 1.392 . S
C251 C224 1.389 . S
C252 C227 1.395 . S
C252 C229 1.391 . S
H253 C213 0.951 . S
H254 C214 0.950 . S
H255 C220 0.949 . S
H256 C221 0.950 . S
H257 C225 0.951 . S
H258 C226 0.950 . S
H259 C230 0.949 . S
H260 C231 0.950 . S
H261 C235 0.950 . S
H262 C237 0.950 . S
H263 C240 0.950 . S
H264 C242 0.950 . S
C265 C266 1.443 . S
C265 N269 1.376 . S
C265 C303 1.389 . S
C266 C265 1.443 . S
C266 C267 1.340 . S
C266 H306 0.951 . S
C267 C266 1.340 . S
C267 C268 1.439 . S
C267 H307 0.950 . S
C268 C267 1.439 . S
C268 N269 1.374 . S
C268 C302 1.395 . S
N269 C265 1.376 . S
N269 C268 1.374 . S
N269 Co270 2.008 . S
Co270 N269 2.008 . S
Co270 N271 1.995 . S
Co270 N276 2.008 . S
Co270 N281 1.995 . S
Co270 N286 2.282 . S
Co270 N292 2.282 . S
N271 Co270 1.995 . S
N271 C272 1.376 . S
N271 C275 1.383 . S
C272 N271 1.376 . S
C272 C273 1.446 . S
C272 C302 1.391 . S
C273 C272 1.446 . S
C273 C274 1.339 . S
C273 H308 0.949 . S
C274 C273 1.339 . S
C274 C275 1.439 . S
C274 H309 0.950 . S
C275 N271 1.383 . S
C275 C274 1.439 . S
C275 C304 1.392 . S
N276 Co270 2.008 . S
N276 C277 1.376 . S
N276 C280 1.374 . S
C277 N276 1.376 . S
C277 C278 1.443 . S
C277 C304 1.389 . S
C278 C277 1.443 . S
C278 C279 1.340 . S
C278 H310 0.951 . S
C279 C278 1.340 . S
C279 C280 1.439 . S
C279 H311 0.950 . S
C280 N276 1.374 . S
C280 C279 1.439 . S
C280 C305 1.395 . S
N281 Co270 1.995 . S
N281 C282 1.376 . S
N281 C285 1.383 . S
C282 N281 1.376 . S
C282 C283 1.446 . S
C282 C305 1.391 . S
C283 C282 1.446 . S
C283 C284 1.339 . S
C283 H312 0.949 . S
C284 C283 1.339 . S
C284 C285 1.439 . S
C284 H313 0.950 . S
C285 N281 1.383 . S
C285 C284 1.439 . S
C285 C303 1.392 . S
N286 Co270 2.282 . S
N286 C289 1.332 . S
N286 C291 1.332 . S
C287 C288 1.386 . S
C287 C290 1.388 . S
C288 C287 1.386 . S
C288 C289 1.382 . S
C288 H314 0.950 . S
C289 N286 1.332 . S
C289 C288 1.382 . S
C289 H300 0.952 . S
C290 C287 1.388 . S
C290 C291 1.382 . S
C290 H315 0.950 . S
C291 N286 1.332 . S
C291 C290 1.382 . S
C291 H301 0.948 . S
N292 Co270 2.282 . S
N292 C296 1.332 . S
N292 C297 1.332 . S
C293 C294 1.388 . S
C293 C297 1.382 . S
C293 H316 0.950 . S
C294 C293 1.388 . S
C294 C295 1.386 . S
C295 C294 1.386 . S
C295 C296 1.382 . S
C295 H317 0.950 . S
C296 N292 1.332 . S
C296 C295 1.382 . S
C296 H298 0.952 . S
C297 N292 1.332 . S
C297 C293 1.382 . S
C297 H299 0.948 . S
H298 C296 0.952 . S
H299 C297 0.948 . S
H300 C289 0.952 . S
H301 C291 0.948 . S
C302 C268 1.395 . S
C302 C272 1.391 . S
C303 C265 1.389 . S
C303 C285 1.392 . S
C304 C275 1.392 . S
C304 C277 1.389 . S
C305 C280 1.395 . S
C305 C282 1.391 . S
H306 C266 0.951 . S
H307 C267 0.950 . S
H308 C273 0.949 . S
H309 C274 0.950 . S
H310 C278 0.951 . S
H311 C279 0.950 . S
H312 C283 0.949 . S
H313 C284 0.950 . S
H314 C288 0.950 . S
H315 C290 0.950 . S
H316 C293 0.950 . S
H317 C295 0.950 . S
C318 C319 1.443 . S
C318 N322 1.376 . S
C318 C356 1.389 . S
C319 C318 1.443 . S
C319 C320 1.340 . S
C319 H359 0.951 . S
C320 C319 1.340 . S
C320 C321 1.439 . S
C320 H360 0.950 . S
C321 C320 1.439 . S
C321 N322 1.374 . S
C321 C355 1.395 . S
N322 C318 1.376 . S
N322 C321 1.374 . S
N322 Co323 2.008 . S
Co323 N322 2.008 . S
Co323 N324 1.995 . S
Co323 N329 2.008 . S
Co323 N334 1.995 . S
Co323 N339 2.282 . S
Co323 N345 2.282 . S
N324 Co323 1.995 . S
N324 C325 1.376 . S
N324 C328 1.383 . S
C325 N324 1.376 . S
C325 C326 1.446 . S
C325 C355 1.391 . S
C326 C325 1.446 . S
C326 C327 1.339 . S
C326 H361 0.949 . S
C327 C326 1.339 . S
C327 C328 1.439 . S
C327 H362 0.950 . S
C328 N324 1.383 . S
C328 C327 1.439 . S
C328 C357 1.392 . S
N329 Co323 2.008 . S
N329 C330 1.376 . S
N329 C333 1.374 . S
C330 N329 1.376 . S
C330 C331 1.443 . S
C330 C357 1.389 . S
C331 C330 1.443 . S
C331 C332 1.340 . S
C331 H363 0.951 . S
C332 C331 1.340 . S
C332 C333 1.439 . S
C332 H364 0.950 . S
C333 N329 1.374 . S
C333 C332 1.439 . S
C333 C358 1.395 . S
N334 Co323 1.995 . S
N334 C335 1.376 . S
N334 C338 1.383 . S
C335 N334 1.376 . S
C335 C336 1.446 1_554 S
C335 C358 1.391 . S
C336 C335 1.446 1_556 S
C336 C337 1.339 . S
C336 H365 0.949 . S
C337 C336 1.339 . S
C337 C338 1.438 1_556 S
C337 H366 0.950 . S
C338 N334 1.383 . S
C338 C337 1.438 1_554 S
C338 C356 1.392 . S
N339 Co323 2.282 . S
N339 C342 1.332 1_554 S
N339 C344 1.332 . S
C340 C341 1.386 . S
C340 C343 1.388 . S
C341 C340 1.386 . S
C341 C342 1.382 . S
C341 H367 0.950 . S
C342 N339 1.332 1_556 S
C342 C341 1.382 . S
C342 H353 0.952 . S
C343 C340 1.388 . S
C343 C344 1.382 1_556 S
C343 H368 0.950 . S
C344 N339 1.332 . S
C344 C343 1.382 1_554 S
C344 H354 0.948 . S
N345 Co323 2.282 . S
N345 C349 1.332 . S
N345 C350 1.332 . S
C346 C347 1.388 . S
C346 C350 1.382 . S
C346 H369 0.950 . S
C347 C346 1.388 . S
C347 C348 1.386 . S
C348 C347 1.386 . S
C348 C349 1.382 . S
C348 H370 0.950 . S
C349 N345 1.332 . S
C349 C348 1.382 . S
C349 H351 0.952 . S
C350 N345 1.332 . S
C350 C346 1.382 . S
C350 H352 0.948 . S
H351 C349 0.952 . S
H352 C350 0.948 . S
H353 C342 0.952 . S
H354 C344 0.948 . S
C355 C321 1.395 . S
C355 C325 1.391 . S
C356 C318 1.389 . S
C356 C338 1.392 . S
C357 C328 1.392 . S
C357 C330 1.389 . S
C358 C333 1.395 . S
C358 C335 1.391 . S
H359 C319 0.951 . S
H360 C320 0.950 . S
H361 C326 0.949 . S
H362 C327 0.950 . S
H363 C331 0.951 . S
H364 C332 0.950 . S
H365 C336 0.949 . S
H366 C337 0.950 . S
H367 C341 0.950 . S
H368 C343 0.950 . S
H369 C346 0.950 . S
H370 C348 0.950 . S
C371 C372 1.443 . S
C371 N375 1.376 . S
C371 C409 1.389 . S
C372 C371 1.443 . S
C372 C373 1.340 . S
C372 H412 0.951 . S
C373 C372 1.340 . S
C373 C374 1.439 . S
C373 H413 0.950 . S
C374 C373 1.439 . S
C374 N375 1.374 . S
C374 C408 1.395 . S
N375 C371 1.376 . S
N375 C374 1.374 . S
N375 Co376 2.008 . S
Co376 N375 2.008 . S
Co376 N377 1.995 . S
Co376 N382 2.008 . S
Co376 N387 1.995 . S
Co376 N392 2.282 . S
Co376 N398 2.282 . S
N377 Co376 1.995 . S
N377 C378 1.376 . S
N377 C381 1.383 . S
C378 N377 1.376 . S
C378 C379 1.446 . S
C378 C408 1.391 . S
C379 C378 1.446 . S
C379 C380 1.339 . S
C379 H414 0.949 . S
C380 C379 1.339 . S
C380 C381 1.439 . S
C380 H415 0.950 . S
C381 N377 1.383 . S
C381 C380 1.439 . S
C381 C410 1.392 . S
N382 Co376 2.008 . S
N382 C383 1.376 . S
N382 C386 1.374 . S
C383 N382 1.376 . S
C383 C384 1.443 . S
C383 C410 1.389 . S
C384 C383 1.443 . S
C384 C385 1.340 . S
C384 H416 0.951 . S
C385 C384 1.340 . S
C385 C386 1.439 . S
C385 H417 0.950 . S
C386 N382 1.374 . S
C386 C385 1.439 . S
C386 C411 1.395 . S
N387 Co376 1.995 . S
N387 C388 1.376 . S
N387 C391 1.383 . S
C388 N387 1.376 . S
C388 C389 1.446 . S
C388 C411 1.391 . S
C389 C388 1.446 . S
C389 C390 1.339 . S
C389 H418 0.949 . S
C390 C389 1.339 . S
C390 C391 1.439 . S
C390 H419 0.950 . S
C391 N387 1.383 . S
C391 C390 1.439 . S
C391 C409 1.392 . S
N392 Co376 2.282 . S
N392 C395 1.332 . S
N392 C397 1.332 . S
C393 C394 1.386 . S
C393 C396 1.388 . S
C394 C393 1.386 . S
C394 C395 1.382 . S
C394 H420 0.950 . S
C395 N392 1.332 . S
C395 C394 1.382 . S
C395 H406 0.952 . S
C396 C393 1.388 . S
C396 C397 1.382 . S
C396 H421 0.950 . S
C397 N392 1.332 . S
C397 C396 1.382 . S
C397 H407 0.948 . S
N398 Co376 2.282 . S
N398 C402 1.332 . S
N398 C403 1.332 . S
C399 C400 1.388 . S
C399 C403 1.382 . S
C399 H422 0.950 . S
C400 C399 1.388 . S
C400 C401 1.386 . S
C401 C400 1.386 . S
C401 C402 1.382 . S
C401 H423 0.950 . S
C402 N398 1.332 . S
C402 C401 1.382 . S
C402 H404 0.952 . S
C403 N398 1.332 . S
C403 C399 1.382 . S
C403 H405 0.948 . S
H404 C402 0.952 . S
H405 C403 0.948 . S
H406 C395 0.952 . S
H407 C397 0.948 . S
C408 C374 1.395 . S
C408 C378 1.391 . S
C409 C371 1.389 . S
C409 C391 1.392 . S
C410 C381 1.392 . S
C410 C383 1.389 . S
C411 C386 1.395 . S
C411 C388 1.391 . S
H412 C372 0.951 . S
H413 C373 0.950 . S
H414 C379 0.949 . S
H415 C380 0.950 . S
H416 C384 0.951 . S
H417 C385 0.950 . S
H418 C389 0.949 . S
H419 C390 0.950 . S
H420 C394 0.950 . S
H421 C396 0.950 . S
H422 C399 0.950 . S
H423 C401 0.950 . S
C424 C425 1.349 . S
C424 C426 1.327 . S
C424 H449 0.950 . S
C425 C424 1.349 . S
C425 C441 1.349 . S
C426 C424 1.327 . S
C426 C445 1.429 . S
C426 H450 0.950 . S
C427 C444 1.574 . S
C427 C446 1.368 . S
C427 H451 0.949 . S
H428 C432 0.949 . S
C429 C430 1.349 . S
C429 C431 1.318 1_554 S
C429 H452 0.950 . S
C430 C429 1.349 . S
C430 C442 1.349 1_554 S
C431 C429 1.318 1_556 S
C431 C447 1.440 . S
C431 H453 0.947 1_556 S
C432 H428 0.949 . S
C432 C440 1.574 . S
C432 C448 1.368 . S
H433 C441 0.950 . S
H434 C439 0.950 . S
H435 C440 0.949 . S
H436 C442 0.950 . S
H437 C443 0.950 . S
H438 C444 0.949 . S
C439 H434 0.950 . S
C439 C441 1.327 . S
C439 C445 1.429 . S
C440 C432 1.574 . S
C440 H435 0.949 . S
C440 C446 1.368 . S
C441 C425 1.349 . S
C441 H433 0.950 . S
C441 C439 1.327 . S
C442 C430 1.349 1_556 S
C442 H436 0.950 . S
C442 C443 1.327 . S
C443 H437 0.950 . S
C443 C442 1.327 . S
C443 C447 1.429 . S
C444 C427 1.574 . S
C444 H438 0.949 . S
C444 C448 1.368 . S
C445 C426 1.429 . S
C445 C439 1.429 . S
C445 C446 1.523 . S
C446 C427 1.368 . S
C446 C440 1.368 . S
C446 C445 1.523 . S
C447 C431 1.440 . S
C447 C443 1.429 . S
C447 C448 1.523 . S
C448 C432 1.368 . S
C448 C444 1.368 . S
C448 C447 1.523 . S
H449 C424 0.950 . S
H450 C426 0.950 . S
H451 C427 0.949 . S
H452 C429 0.950 . S
H453 C431 0.947 1_554 S
C454 C455 1.349 . S
C454 C456 1.327 . S
C454 H479 0.950 . S
C455 C454 1.349 . S
C455 C471 1.349 . S
C456 C454 1.327 . S
C456 C475 1.429 . S
C456 H480 0.950 . S
C457 C474 1.574 . S
C457 C476 1.368 . S
C457 H481 0.949 . S
H458 C462 0.949 . S
C459 C460 1.349 . S
C459 C461 1.327 . S
C459 H482 0.950 . S
C460 C459 1.349 . S
C460 C472 1.349 . S
C461 C459 1.327 . S
C461 C477 1.429 . S
C461 H483 0.950 . S
C462 H458 0.949 . S
C462 C470 1.574 . S
C462 C478 1.368 . S
H463 C471 0.950 . S
H464 C469 0.950 . S
H465 C470 0.949 . S
H466 C472 0.950 . S
H467 C473 0.950 . S
H468 C474 0.949 . S
C469 H464 0.950 . S
C469 C471 1.327 . S
C469 C475 1.429 . S
C470 C462 1.574 . S
C470 H465 0.949 . S
C470 C476 1.368 . S
C471 C455 1.349 . S
C471 H463 0.950 . S
C471 C469 1.327 . S
C472 C460 1.349 . S
C472 H466 0.950 . S
C472 C473 1.327 . S
C473 H467 0.950 . S
C473 C472 1.327 . S
C473 C477 1.429 . S
C474 C457 1.574 . S
C474 H468 0.949 . S
C474 C478 1.368 . S
C475 C456 1.429 . S
C475 C469 1.429 . S
C475 C476 1.523 . S
C476 C457 1.368 . S
C476 C470 1.368 . S
C476 C475 1.523 . S
C477 C461 1.429 . S
C477 C473 1.429 . S
C477 C478 1.523 . S
C478 C462 1.368 . S
C478 C474 1.368 . S
C478 C477 1.523 . S
H479 C454 0.950 . S
H480 C456 0.950 . S
H481 C457 0.949 . S
H482 C459 0.950 . S
H483 C461 0.950 . S
C484 C485 1.349 . S
C484 C486 1.327 . S
C484 H509 0.950 . S
C485 C484 1.349 . S
C485 C501 1.349 . S
C486 C484 1.327 . S
C486 C505 1.429 . S
C486 H510 0.950 . S
C487 C504 1.574 . S
C487 C506 1.368 . S
C487 H511 0.949 . S
H488 C492 0.949 . S
C489 C490 1.349 1_554 S
C489 C491 1.327 . S
C489 H512 0.950 . S
C490 C489 1.349 1_556 S
C490 C502 1.349 . S
C491 C489 1.327 . S
C491 C507 1.429 . S
C491 H513 0.950 . S
C492 H488 0.949 . S
C492 C500 1.574 . S
C492 C508 1.368 . S
H493 C501 0.950 . S
H494 C499 0.950 . S
H495 C500 0.949 . S
H496 C502 0.950 . S
H497 C503 0.950 . S
H498 C504 0.949 . S
C499 H494 0.950 . S
C499 C501 1.327 . S
C499 C505 1.429 . S
C500 C492 1.574 . S
C500 H495 0.949 . S
C500 C506 1.368 . S
C501 C485 1.349 . S
C501 H493 0.950 . S
C501 C499 1.327 . S
C502 C490 1.349 . S
C502 H496 0.950 . S
C502 C503 1.327 . S
C503 H497 0.950 . S
C503 C502 1.327 . S
C503 C507 1.429 1_556 S
C504 C487 1.574 . S
C504 H498 0.949 . S
C504 C508 1.368 . S
C505 C486 1.429 . S
C505 C499 1.429 . S
C505 C506 1.523 . S
C506 C487 1.368 . S
C506 C500 1.368 . S
C506 C505 1.523 . S
C507 C491 1.429 . S
C507 C503 1.429 1_554 S
C507 C508 1.523 . S
C508 C492 1.368 . S
C508 C504 1.368 . S
C508 C507 1.523 . S
H509 C484 0.950 . S
H510 C486 0.950 . S
H511 C487 0.949 . S
H512 C489 0.950 . S
H513 C491 0.950 . S
C514 C515 1.349 . S
C514 C516 1.327 . S
C514 H539 0.950 . S
C515 C514 1.349 . S
C515 C531 1.349 . S
C516 C514 1.327 . S
C516 C535 1.429 . S
C516 H540 0.950 . S
C517 C534 1.574 . S
C517 C536 1.368 . S
C517 H541 0.949 . S
H518 C522 0.949 . S
C519 C520 1.349 . S
C519 C521 1.327 . S
C519 H542 0.950 . S
C520 C519 1.349 . S
C520 C532 1.349 . S
C521 C519 1.327 . S
C521 C537 1.429 . S
C521 H543 0.950 . S
C522 H518 0.949 . S
C522 C530 1.574 . S
C522 C538 1.368 . S
H523 C531 0.950 . S
H524 C529 0.950 . S
H525 C530 0.949 . S
H526 C532 0.950 . S
H527 C533 0.950 . S
H528 C534 0.949 . S
C529 H524 0.950 . S
C529 C531 1.327 . S
C529 C535 1.429 . S
C530 C522 1.574 . S
C530 H525 0.949 . S
C530 C536 1.368 . S
C531 C515 1.349 . S
C531 H523 0.950 . S
C531 C529 1.327 . S
C532 C520 1.349 . S
C532 H526 0.950 . S
C532 C533 1.327 . S
C533 H527 0.950 . S
C533 C532 1.327 . S
C533 C537 1.429 . S
C534 C517 1.574 . S
C534 H528 0.949 . S
C534 C538 1.368 . S
C535 C516 1.429 . S
C535 C529 1.429 . S
C535 C536 1.523 . S
C536 C517 1.368 . S
C536 C530 1.368 . S
C536 C535 1.523 . S
C537 C521 1.429 . S
C537 C533 1.429 . S
C537 C538 1.523 . S
C538 C522 1.368 . S
C538 C534 1.368 . S
C538 C537 1.523 . S
H539 C514 0.950 . S
H540 C516 0.950 . S
H541 C517 0.949 . S
H542 C519 0.950 . S
H543 C521 0.950 . S
C544 C545 1.349 . S
C544 C546 1.327 . S
C544 H569 0.950 . S
C545 C544 1.349 . S
C545 C561 1.349 . S
C546 C544 1.327 . S
C546 C565 1.429 . S
C546 H570 0.950 . S
C547 C564 1.574 . S
C547 C566 1.368 . S
C547 H571 0.949 . S
H548 C552 0.949 . S
C549 C550 1.349 . S
C549 C551 1.327 . S
C549 H572 0.950 . S
C550 C549 1.349 . S
C550 C562 1.349 . S
C551 C549 1.327 . S
C551 C567 1.429 . S
C551 H573 0.950 . S
C552 H548 0.949 . S
C552 C560 1.574 . S
C552 C568 1.368 . S
H553 C561 0.950 . S
H554 C559 0.950 . S
H555 C560 0.949 . S
H556 C562 0.950 . S
H557 C563 0.950 . S
H558 C564 0.949 . S
C559 H554 0.950 . S
C559 C561 1.327 . S
C559 C565 1.429 . S
C560 C552 1.574 . S
C560 H555 0.949 . S
C560 C566 1.368 . S
C561 C545 1.349 . S
C561 H553 0.950 . S
C561 C559 1.327 . S
C562 C550 1.349 . S
C562 H556 0.950 . S
C562 C563 1.327 . S
C563 H557 0.950 . S
C563 C562 1.327 . S
C563 C567 1.429 . S
C564 C547 1.574 . S
C564 H558 0.949 . S
C564 C568 1.368 . S
C565 C546 1.429 . S
C565 C559 1.429 . S
C565 C566 1.523 . S
C566 C547 1.368 . S
C566 C560 1.368 . S
C566 C565 1.523 . S
C567 C551 1.429 . S
C567 C563 1.429 . S
C567 C568 1.523 . S
C568 C552 1.368 . S
C568 C564 1.368 . S
C568 C567 1.523 . S
H569 C544 0.950 . S
H570 C546 0.950 . S
H571 C547 0.949 . S
H572 C549 0.950 . S
H573 C551 0.950 . S
C574 C575 1.349 . S
C574 C576 1.327 . S
C574 H599 0.950 . S
C575 C574 1.349 . S
C575 C591 1.349 . S
C576 C574 1.327 . S
C576 C595 1.429 . S
C576 H600 0.950 . S
C577 C594 1.574 . S
C577 C596 1.368 . S
C577 H601 0.949 . S
H578 C582 0.949 . S
C579 C580 1.349 . S
C579 C581 1.327 . S
C579 H602 0.950 . S
C580 C579 1.349 . S
C580 C592 1.349 . S
C581 C579 1.327 . S
C581 C597 1.429 . S
C581 H603 0.950 . S
C582 H578 0.949 . S
C582 C590 1.574 . S
C582 C598 1.368 . S
H583 C591 0.950 . S
H584 C589 0.950 . S
H585 C590 0.949 . S
H586 C592 0.950 . S
H587 C593 0.950 . S
H588 C594 0.949 . S
C589 H584 0.950 . S
C589 C591 1.327 . S
C589 C595 1.429 . S
C590 C582 1.574 . S
C590 H585 0.949 . S
C590 C596 1.368 . S
C591 C575 1.349 . S
C591 H583 0.950 . S
C591 C589 1.327 . S
C592 C580 1.349 . S
C592 H586 0.950 . S
C592 C593 1.327 . S
C593 H587 0.950 . S
C593 C592 1.327 . S
C593 C597 1.429 . S
C594 C577 1.574 . S
C594 H588 0.949 . S
C594 C598 1.368 . S
C595 C576 1.429 . S
C595 C589 1.429 . S
C595 C596 1.523 . S
C596 C577 1.368 . S
C596 C590 1.368 . S
C596 C595 1.523 . S
C597 C581 1.429 . S
C597 C593 1.429 . S
C597 C598 1.523 . S
C598 C582 1.368 . S
C598 C594 1.368 . S
C598 C597 1.523 . S
H599 C574 0.950 . S
H600 C576 0.950 . S
H601 C577 0.949 . S
H602 C579 0.950 . S
H603 C581 0.950 . S
C604 C605 1.349 . S
C604 C606 1.327 . S
C604 H629 0.950 . S
C605 C604 1.349 . S
C605 C621 1.349 . S
C606 C604 1.327 . S
C606 C625 1.429 . S
C606 H630 0.950 . S
C607 C624 1.574 . S
C607 C626 1.368 . S
C607 H631 0.949 . S
H608 C612 0.949 . S
C609 C610 1.349 . S
C609 C611 1.327 . S
C609 H632 0.950 . S
C610 C609 1.349 . S
C610 C622 1.349 . S
C611 C609 1.327 . S
C611 C627 1.429 . S
C611 H633 0.950 . S
C612 H608 0.949 . S
C612 C620 1.574 . S
C612 C628 1.368 . S
H613 C621 0.950 . S
H614 C619 0.950 . S
H615 C620 0.949 . S
H616 C622 0.950 . S
H617 C623 0.950 . S
H618 C624 0.949 . S
C619 H614 0.950 . S
C619 C621 1.327 . S
C619 C625 1.429 . S
C620 C612 1.574 . S
C620 H615 0.949 . S
C620 C626 1.368 . S
C621 C605 1.349 . S
C621 H613 0.950 . S
C621 C619 1.327 . S
C622 C610 1.349 . S
C622 H616 0.950 . S
C622 C623 1.327 . S
C623 H617 0.950 . S
C623 C622 1.327 . S
C623 C627 1.429 . S
C624 C607 1.574 . S
C624 H618 0.949 . S
C624 C628 1.368 . S
C625 C606 1.429 . S
C625 C619 1.429 . S
C625 C626 1.523 . S
C626 C607 1.368 . S
C626 C620 1.368 . S
C626 C625 1.523 . S
C627 C611 1.429 . S
C627 C623 1.429 . S
C627 C628 1.523 . S
C628 C612 1.368 . S
C628 C624 1.368 . S
C628 C627 1.523 . S
H629 C604 0.950 . S
H630 C606 0.950 . S
H631 C607 0.949 . S
H632 C609 0.950 . S
H633 C611 0.950 . S
C634 C635 1.349 . S
C634 C636 1.327 . S
C634 H659 0.950 . S
C635 C634 1.349 . S
C635 C651 1.349 . S
C636 C634 1.327 . S
C636 C655 1.429 . S
C636 H660 0.950 . S
C637 C654 1.574 . S
C637 C656 1.368 . S
C637 H661 0.949 . S
H638 C642 0.949 . S
C639 C640 1.349 . S
C639 C641 1.327 . S
C639 H662 0.950 . S
C640 C639 1.349 . S
C640 C652 1.349 . S
C641 C639 1.327 . S
C641 C657 1.429 . S
C641 H663 0.950 . S
C642 H638 0.949 . S
C642 C650 1.574 . S
C642 C658 1.368 . S
H643 C651 0.950 . S
H644 C649 0.950 . S
H645 C650 0.949 . S
H646 C652 0.950 . S
H647 C653 0.950 . S
H648 C654 0.949 . S
C649 H644 0.950 . S
C649 C651 1.327 . S
C649 C655 1.429 . S
C650 C642 1.574 . S
C650 H645 0.949 . S
C650 C656 1.368 . S
C651 C635 1.349 . S
C651 H643 0.950 . S
C651 C649 1.327 . S
C652 C640 1.349 . S
C652 H646 0.950 . S
C652 C653 1.327 . S
C653 H647 0.950 . S
C653 C652 1.327 . S
C653 C657 1.429 . S
C654 C637 1.574 . S
C654 H648 0.949 . S
C654 C658 1.368 . S
C655 C636 1.429 . S
C655 C649 1.429 . S
C655 C656 1.523 . S
C656 C637 1.368 . S
C656 C650 1.368 . S
C656 C655 1.523 . S
C657 C641 1.429 . S
C657 C653 1.429 . S
C657 C658 1.523 . S
C658 C642 1.368 . S
C658 C654 1.368 . S
C658 C657 1.523 . S
H659 C634 0.950 . S
H660 C636 0.950 . S
H661 C637 0.949 . S
H662 C639 0.950 . S
H663 C641 0.950 . S
C664 C665 1.349 . S
C664 C666 1.327 . S
C664 H689 0.950 . S
C665 C664 1.349 . S
C665 C681 1.349 . S
C666 C664 1.327 . S
C666 C685 1.429 . S
C666 H690 0.950 . S
C667 C684 1.574 1_455 S
C667 C686 1.368 . S
C667 H691 0.949 . S
H668 C672 0.949 . S
C669 C670 1.349 . S
C669 C671 1.327 . S
C669 H692 0.950 . S
C670 C669 1.349 . S
C670 C682 1.349 . S
C671 C669 1.327 . S
C671 C687 1.429 . S
C671 H693 0.950 . S
C672 H668 0.949 . S
C672 C680 1.574 1_655 S
C672 C688 1.368 . S
H673 C681 0.950 . S
H674 C679 0.950 . S
H675 C680 0.949 . S
H676 C682 0.950 . S
H677 C683 0.950 . S
H678 C684 0.949 . S
C679 H674 0.950 . S
C679 C681 1.327 . S
C679 C685 1.429 . S
C680 C672 1.574 1_455 S
C680 H675 0.949 . S
C680 C686 1.368 . S
C681 C665 1.349 . S
C681 H673 0.950 . S
C681 C679 1.327 . S
C682 C670 1.349 . S
C682 H676 0.950 . S
C682 C683 1.327 . S
C683 H677 0.950 . S
C683 C682 1.327 . S
C683 C687 1.429 . S
C684 C667 1.574 1_655 S
C684 H678 0.949 . S
C684 C688 1.368 . S
C685 C666 1.429 . S
C685 C679 1.429 . S
C685 C686 1.523 . S
C686 C667 1.368 . S
C686 C680 1.368 . S
C686 C685 1.523 . S
C687 C671 1.429 . S
C687 C683 1.429 . S
C687 C688 1.523 . S
C688 C672 1.368 . S
C688 C684 1.368 . S
C688 C687 1.523 . S
H689 C664 0.950 . S
H690 C666 0.950 . S
H691 C667 0.949 . S
H692 C669 0.950 . S
H693 C671 0.950 . S
C694 C695 1.349 . S
C694 C696 1.327 . S
C694 H719 0.950 . S
C695 C694 1.349 . S
C695 C711 1.349 . S
C696 C694 1.327 . S
C696 C715 1.429 . S
C696 H720 0.950 . S
C697 C714 1.574 . S
C697 C716 1.368 . S
C697 H721 0.949 . S
H698 C702 0.949 . S
C699 C700 1.349 . S
C699 C701 1.327 . S
C699 H722 0.950 . S
C700 C699 1.349 . S
C700 C712 1.349 . S
C701 C699 1.327 . S
C701 C717 1.429 . S
C701 H723 0.950 . S
C702 H698 0.949 . S
C702 C710 1.574 . S
C702 C718 1.368 . S
H703 C711 0.950 . S
H704 C709 0.950 . S
H705 C710 0.949 . S
H706 C712 0.950 . S
H707 C713 0.950 . S
H708 C714 0.949 . S
C709 H704 0.950 . S
C709 C711 1.327 . S
C709 C715 1.429 . S
C710 C702 1.574 . S
C710 H705 0.949 . S
C710 C716 1.368 . S
C711 C695 1.349 . S
C711 H703 0.950 . S
C711 C709 1.327 . S
C712 C700 1.349 . S
C712 H706 0.950 . S
C712 C713 1.327 . S
C713 H707 0.950 . S
C713 C712 1.327 . S
C713 C717 1.429 . S
C714 C697 1.574 . S
C714 H708 0.949 . S
C714 C718 1.368 . S
C715 C696 1.429 . S
C715 C709 1.429 . S
C715 C716 1.523 . S
C716 C697 1.368 . S
C716 C710 1.368 . S
C716 C715 1.523 . S
C717 C701 1.429 . S
C717 C713 1.429 . S
C717 C718 1.523 . S
C718 C702 1.368 . S
C718 C714 1.368 . S
C718 C717 1.523 . S
H719 C694 0.950 . S
H720 C696 0.950 . S
H721 C697 0.949 . S
H722 C699 0.950 . S
H723 C701 0.950 . S
C724 C725 1.349 . S
C724 C726 1.327 . S
C724 H749 0.950 . S
C725 C724 1.349 . S
C725 C741 1.349 . S
C726 C724 1.327 . S
C726 C745 1.429 . S
C726 H750 0.950 . S
C727 C744 1.574 1_455 S
C727 C746 1.368 . S
C727 H751 0.949 . S
H728 C732 0.949 . S
C729 C730 1.349 . S
C729 C731 1.327 . S
C729 H752 0.950 . S
C730 C729 1.349 . S
C730 C742 1.349 . S
C731 C729 1.327 . S
C731 C747 1.429 . S
C731 H753 0.950 . S
C732 H728 0.949 . S
C732 C740 1.574 1_655 S
C732 C748 1.368 . S
H733 C741 0.950 . S
H734 C739 0.950 . S
H735 C740 0.949 . S
H736 C742 0.950 . S
H737 C743 0.950 . S
H738 C744 0.949 . S
C739 H734 0.950 . S
C739 C741 1.327 . S
C739 C745 1.429 . S
C740 C732 1.574 1_455 S
C740 H735 0.949 . S
C740 C746 1.368 . S
C741 C725 1.349 . S
C741 H733 0.950 . S
C741 C739 1.327 . S
C742 C730 1.349 . S
C742 H736 0.950 . S
C742 C743 1.327 . S
C743 H737 0.950 . S
C743 C742 1.327 . S
C743 C747 1.429 . S
C744 C727 1.574 1_655 S
C744 H738 0.949 . S
C744 C748 1.368 . S
C745 C726 1.429 . S
C745 C739 1.429 . S
C745 C746 1.523 . S
C746 C727 1.368 . S
C746 C740 1.368 . S
C746 C745 1.523 . S
C747 C731 1.429 . S
C747 C743 1.429 . S
C747 C748 1.523 . S
C748 C732 1.368 . S
C748 C744 1.368 . S
C748 C747 1.523 . S
H749 C724 0.950 . S
H750 C726 0.950 . S
H751 C727 0.949 . S
H752 C729 0.950 . S
H753 C731 0.950 . S
C754 C755 1.349 . S
C754 C756 1.327 . S
C754 H779 0.950 . S
C755 C754 1.349 . S
C755 C771 1.349 . S
C756 C754 1.327 . S
C756 C775 1.429 . S
C756 H780 0.950 . S
C757 C774 1.574 . S
C757 C776 1.368 . S
C757 H781 0.949 . S
H758 C762 0.949 . S
C759 C760 1.349 . S
C759 C761 1.327 . S
C759 H782 0.950 . S
C760 C759 1.349 . S
C760 C772 1.349 . S
C761 C759 1.327 . S
C761 C777 1.429 . S
C761 H783 0.950 . S
C762 H758 0.949 . S
C762 C770 1.574 . S
C762 C778 1.368 . S
H763 C771 0.950 . S
H764 C769 0.950 . S
H765 C770 0.949 . S
H766 C772 0.950 . S
H767 C773 0.950 . S
H768 C774 0.949 . S
C769 H764 0.950 . S
C769 C771 1.327 . S
C769 C775 1.429 . S
C770 C762 1.574 . S
C770 H765 0.949 . S
C770 C776 1.368 . S
C771 C755 1.349 . S
C771 H763 0.950 . S
C771 C769 1.327 . S
C772 C760 1.349 . S
C772 H766 0.950 . S
C772 C773 1.327 . S
C773 H767 0.950 . S
C773 C772 1.327 . S
C773 C777 1.429 . S
C774 C757 1.574 . S
C774 H768 0.949 . S
C774 C778 1.368 . S
C775 C756 1.429 . S
C775 C769 1.429 . S
C775 C776 1.523 . S
C776 C757 1.368 . S
C776 C770 1.368 . S
C776 C775 1.523 . S
C777 C761 1.429 . S
C777 C773 1.429 . S
C777 C778 1.523 . S
C778 C762 1.368 . S
C778 C774 1.368 . S
C778 C777 1.523 . S
H779 C754 0.950 . S
H780 C756 0.950 . S
H781 C757 0.949 . S
H782 C759 0.950 . S
H783 C761 0.950 . S
C784 C785 1.349 1_556 S
C784 C786 1.327 . S
C784 H809 0.950 . S
C785 C784 1.349 1_554 S
C785 C801 1.349 . S
C786 C784 1.327 . S
C786 C805 1.429 1_556 S
C786 H810 0.950 . S
C787 C804 1.584 . S
C787 C806 1.368 1_655 S
C787 H811 0.949 . S
H788 C792 0.949 . S
C789 C790 1.349 . S
C789 C791 1.327 . S
C789 H812 0.950 . S
C790 C789 1.349 . S
C790 C802 1.349 1_554 S
C791 C789 1.327 . S
C791 C807 1.429 . S
C791 H813 0.950 . S
C792 H788 0.949 . S
C792 C800 1.574 1_665 S
C792 C808 1.368 1_556 S
H793 C801 0.950 . S
H794 C799 0.950 . S
H795 C800 0.949 . S
H796 C802 0.950 . S
H797 C803 0.950 . S
H798 C804 0.948 1_565 S
C799 H794 0.950 . S
C799 C801 1.327 . S
C799 C805 1.429 . S
C800 C792 1.574 1_445 S
C800 H795 0.949 . S
C800 C806 1.368 1_556 S
C801 C785 1.349 . S
C801 H793 0.950 . S
C801 C799 1.327 . S
C802 C790 1.349 1_556 S
C802 H796 0.950 . S
C802 C803 1.327 . S
C803 H797 0.950 . S
C803 C802 1.327 . S
C803 C807 1.429 1_556 S
C804 C787 1.584 . S
C804 H798 0.948 1_545 S
C804 C808 1.360 1_545 S
C805 C786 1.429 1_554 S
C805 C799 1.429 . S
C805 C806 1.523 . S
C806 C787 1.368 1_455 S
C806 C800 1.368 1_554 S
C806 C805 1.523 . S
C807 C791 1.429 . S
C807 C803 1.429 1_554 S
C807 C808 1.523 . S
C808 C792 1.368 1_554 S
C808 C804 1.360 1_565 S
C808 C807 1.523 . S
H809 C784 0.950 . S
H810 C786 0.950 . S
H811 C787 0.949 . S
H812 C789 0.950 . S
H813 C791 0.950 . S
C814 C815 1.349 . S
C814 C816 1.327 . S
C814 H839 0.950 . S
C815 C814 1.349 . S
C815 C831 1.349 . S
C816 C814 1.327 . S
C816 C835 1.429 . S
C816 H840 0.950 . S
C817 C834 1.574 . S
C817 C836 1.368 . S
C817 H841 0.949 . S
H818 C822 0.949 . S
C819 C820 1.349 . S
C819 C821 1.327 . S
C819 H842 0.950 . S
C820 C819 1.349 . S
C820 C832 1.349 . S
C821 C819 1.327 . S
C821 C837 1.429 . S
C821 H843 0.950 . S
C822 H818 0.949 . S
C822 C830 1.574 . S
C822 C838 1.368 . S
H823 C831 0.950 . S
H824 C829 0.950 . S
H825 C830 0.949 . S
H826 C832 0.950 . S
H827 C833 0.950 . S
H828 C834 0.949 . S
C829 H824 0.950 . S
C829 C831 1.327 . S
C829 C835 1.429 . S
C830 C822 1.574 . S
C830 H825 0.949 . S
C830 C836 1.368 . S
C831 C815 1.349 . S
C831 H823 0.950 . S
C831 C829 1.327 . S
C832 C820 1.349 . S
C832 H826 0.950 . S
C832 C833 1.327 . S
C833 H827 0.950 . S
C833 C832 1.327 . S
C833 C837 1.429 . S
C834 C817 1.574 . S
C834 H828 0.949 . S
C834 C838 1.368 . S
C835 C816 1.429 . S
C835 C829 1.429 . S
C835 C836 1.523 . S
C836 C817 1.368 . S
C836 C830 1.368 . S
C836 C835 1.523 . S
C837 C821 1.429 . S
C837 C833 1.429 . S
C837 C838 1.523 . S
C838 C822 1.368 . S
C838 C834 1.368 . S
C838 C837 1.523 . S
H839 C814 0.950 . S
H840 C816 0.950 . S
H841 C817 0.949 . S
H842 C819 0.950 . S
H843 C821 0.950 . S
C844 C845 1.349 1_554 S
C844 C846 1.327 . S
C844 H869 0.950 . S
C845 C844 1.349 1_556 S
C845 C861 1.349 . S
C846 C844 1.327 . S
C846 C865 1.429 1_554 S
C846 H870 0.950 . S
C847 C864 1.574 . S
C847 C866 1.368 . S
C847 H871 0.949 . S
H848 C852 0.949 . S
C849 C850 1.349 . S
C849 C851 1.327 . S
C849 H872 0.950 . S
C850 C849 1.349 . S
C850 C862 1.349 . S
C851 C849 1.327 . S
C851 C867 1.429 . S
C851 H873 0.950 . S
C852 H848 0.949 . S
C852 C860 1.574 . S
C852 C868 1.368 1_554 S
H853 C861 0.950 . S
H854 C859 0.950 . S
H855 C860 0.949 . S
H856 C862 0.950 1_554 S
H857 C863 0.950 . S
H858 C864 0.949 . S
C859 H854 0.950 . S
C859 C861 1.327 . S
C859 C865 1.429 . S
C860 C852 1.574 . S
C860 H855 0.949 . S
C860 C866 1.368 1_554 S
C861 C845 1.349 . S
C861 H853 0.950 . S
C861 C859 1.327 . S
C862 C850 1.349 . S
C862 H856 0.950 1_556 S
C862 C863 1.327 1_556 S
C863 H857 0.950 . S
C863 C862 1.327 1_554 S
C863 C867 1.429 1_554 S
C864 C847 1.574 . S
C864 H858 0.949 . S
C864 C868 1.368 . S
C865 C846 1.429 1_556 S
C865 C859 1.429 . S
C865 C866 1.523 . S
C866 C847 1.368 . S
C866 C860 1.368 1_556 S
C866 C865 1.523 . S
C867 C851 1.429 . S
C867 C863 1.429 1_556 S
C867 C868 1.523 . S
C868 C852 1.368 1_556 S
C868 C864 1.368 . S
C868 C867 1.523 . S
H869 C844 0.950 . S
H870 C846 0.950 . S
H871 C847 0.949 . S
H872 C849 0.950 . S
H873 C851 0.950 . S
C874 C875 1.349 . S
C874 C876 1.327 . S
C874 H899 0.950 . S
C875 C874 1.349 . S
C875 C891 1.349 . S
C876 C874 1.327 . S
C876 C895 1.429 . S
C876 H900 0.950 . S
C877 C894 1.577 . S
C877 C896 1.366 1_545 S
C877 H901 0.949 1_545 S
H878 C882 0.988 . S
C879 C880 1.349 . S
C879 C881 1.327 . S
C879 H902 0.950 . S
C880 C879 1.349 . S
C880 C892 1.349 . S
C881 C879 1.327 . S
C881 C897 1.429 . S
C881 H903 0.950 . S
C882 H878 0.988 . S
C882 C890 1.527 1_645 S
C882 C898 1.375 . S
H883 C891 0.950 . S
H884 C889 0.950 . S
H885 C890 0.949 . S
H886 C892 0.950 . S
H887 C893 0.950 . S
H888 C894 0.949 . S
C889 H884 0.950 . S
C889 C891 1.327 . S
C889 C895 1.429 . S
C890 C882 1.527 1_465 S
C890 H885 0.949 . S
C890 C896 1.368 . S
C891 C875 1.349 . S
C891 H883 0.950 . S
C891 C889 1.327 . S
C892 C880 1.349 . S
C892 H886 0.950 . S
C892 C893 1.327 . S
C893 H887 0.950 . S
C893 C892 1.327 . S
C893 C897 1.429 . S
C894 C877 1.577 . S
C894 H888 0.949 . S
C894 C898 1.368 1_455 S
C895 C876 1.429 . S
C895 C889 1.429 . S
C895 C896 1.523 . S
C896 C877 1.366 1_565 S
C896 C890 1.368 . S
C896 C895 1.523 . S
C897 C881 1.429 . S
C897 C893 1.429 . S
C897 C898 1.523 . S
C898 C882 1.375 . S
C898 C894 1.368 1_655 S
C898 C897 1.523 . S
H899 C874 0.950 . S
H900 C876 0.950 . S
H901 C877 0.949 1_565 S
H902 C879 0.950 . S
H903 C881 0.950 . S
C425 C75 2.257 . S
C430 C39 2.299 . S
C455 C22 2.256 . S
C460 C92 2.298 . S
C485 C181 2.257 . S
C490 C145 2.299 . S
C515 C128 2.256 . S
C520 C198 2.298 . S
C545 C234 1.999 . S
C550 C304 1.970 . S
C575 C287 1.998 . S
C580 C251 1.969 . S
C605 C340 1.999 . S
C610 C410 1.970 . S
C635 C357 1.969 . S
C640 C393 1.998 . S
C665 C38 0.713 . S
C670 C197 0.713 . S
C695 C91 0.713 . S
C700 C144 0.713 . S
C725 C400 0.308 . S
C730 C241 0.308 . S
C755 C347 0.308 . S
C760 C294 0.308 . S
C785 C29 1.942 . S
C790 C250 1.945 1_554 S
C815 C303 1.946 . S
C820 C82 1.942 . S
C845 C356 1.945 1_556 S
C850 C135 1.942 . S
C875 C409 1.946 . S
C880 C188 1.942 . S
