# Generated by pormake.
# Topology fca, (5)-cn, num edge types: 1
# Building blocks:
#     Node 0, Type 0, BuildingBlock: BEQFEK_clean_sbu_0, # of connection points: 5
#     Node 1, Type 0, BuildingBlock: BEQFEK_clean_sbu_0, # of connection points: 5
#     Node 2, Type 0, BuildingBlock: BEQFEK_clean_sbu_0, # of connection points: 5
#     Node 3, Type 0, BuildingBlock: BEQFEK_clean_sbu_0, # of connection points: 5
#     Node 4, Type 0, BuildingBlock: BEQFEK_clean_sbu_0, # of connection points: 5
#     Node 5, Type 0, BuildingBlock: BEQFEK_clean_sbu_0, # of connection points: 5
#     Node 6, Type 0, BuildingBlock: BEQFEK_clean_sbu_0, # of connection points: 5
#     Node 7, Type 0, BuildingBlock: BEQFEK_clean_sbu_0, # of connection points: 5
#     Node 8, Type 0, BuildingBlock: BEQFEK_clean_sbu_0, # of connection points: 5
#     Node 9, Type 0, BuildingBlock: BEQFEK_clean_sbu_0, # of connection points: 5
#     Node 10, Type 0, BuildingBlock: BEQFEK_clean_sbu_0, # of connection points: 5
#     Node 11, Type 0, BuildingBlock: BEQFEK_clean_sbu_0, # of connection points: 5
#     Node 12, Type 0, BuildingBlock: BEQFEK_clean_sbu_0, # of connection points: 5
#     Node 13, Type 0, BuildingBlock: BEQFEK_clean_sbu_0, # of connection points: 5
#     Node 14, Type 0, BuildingBlock: BEQFEK_clean_sbu_0, # of connection points: 5
#     Node 15, Type 0, BuildingBlock: BEQFEK_clean_sbu_0, # of connection points: 5
#     Node 16, Type 0, BuildingBlock: BEQFEK_clean_sbu_0, # of connection points: 5
#     Node 17, Type 0, BuildingBlock: BEQFEK_clean_sbu_0, # of connection points: 5
#     Node 18, Type 0, BuildingBlock: BEQFEK_clean_sbu_0, # of connection points: 5
#     Node 19, Type 0, BuildingBlock: BEQFEK_clean_sbu_0, # of connection points: 5
#     Node 20, Type 0, BuildingBlock: BEQFEK_clean_sbu_0, # of connection points: 5
#     Node 21, Type 0, BuildingBlock: BEQFEK_clean_sbu_0, # of connection points: 5
#     Node 22, Type 0, BuildingBlock: BEQFEK_clean_sbu_0, # of connection points: 5
#     Node 23, Type 0, BuildingBlock: BEQFEK_clean_sbu_0, # of connection points: 5
#     Edge 24, Type (0, 0), BuildingBlock: AJUNOK_clean_linker_0, # of connection points: 2
#     Edge 25, Type (0, 0), BuildingBlock: AJUNOK_clean_linker_0, # of connection points: 2
#     Edge 26, Type (0, 0), BuildingBlock: AJUNOK_clean_linker_0, # of connection points: 2
#     Edge 27, Type (0, 0), BuildingBlock: AJUNOK_clean_linker_0, # of connection points: 2
#     Edge 28, Type (0, 0), BuildingBlock: AJUNOK_clean_linker_0, # of connection points: 2
#     Edge 29, Type (0, 0), BuildingBlock: AJUNOK_clean_linker_0, # of connection points: 2
#     Edge 30, Type (0, 0), BuildingBlock: AJUNOK_clean_linker_0, # of connection points: 2
#     Edge 31, Type (0, 0), BuildingBlock: AJUNOK_clean_linker_0, # of connection points: 2
#     Edge 32, Type (0, 0), BuildingBlock: AJUNOK_clean_linker_0, # of connection points: 2
#     Edge 33, Type (0, 0), BuildingBlock: AJUNOK_clean_linker_0, # of connection points: 2
#     Edge 34, Type (0, 0), BuildingBlock: AJUNOK_clean_linker_0, # of connection points: 2
#     Edge 35, Type (0, 0), BuildingBlock: AJUNOK_clean_linker_0, # of connection points: 2
#     Edge 36, Type (0, 0), BuildingBlock: AJUNOK_clean_linker_0, # of connection points: 2
#     Edge 37, Type (0, 0), BuildingBlock: AJUNOK_clean_linker_0, # of connection points: 2
#     Edge 38, Type (0, 0), BuildingBlock: AJUNOK_clean_linker_0, # of connection points: 2
#     Edge 39, Type (0, 0), BuildingBlock: AJUNOK_clean_linker_0, # of connection points: 2
#     Edge 40, Type (0, 0), BuildingBlock: AJUNOK_clean_linker_0, # of connection points: 2
#     Edge 41, Type (0, 0), BuildingBlock: AJUNOK_clean_linker_0, # of connection points: 2
#     Edge 42, Type (0, 0), BuildingBlock: AJUNOK_clean_linker_0, # of connection points: 2
#     Edge 43, Type (0, 0), BuildingBlock: AJUNOK_clean_linker_0, # of connection points: 2
#     Edge 44, Type (0, 0), BuildingBlock: AJUNOK_clean_linker_0, # of connection points: 2
#     Edge 45, Type (0, 0), BuildingBlock: AJUNOK_clean_linker_0, # of connection points: 2
#     Edge 46, Type (0, 0), BuildingBlock: AJUNOK_clean_linker_0, # of connection points: 2
#     Edge 47, Type (0, 0), BuildingBlock: AJUNOK_clean_linker_0, # of connection points: 2
#     Edge 48, Type (0, 0), BuildingBlock: AJUNOK_clean_linker_0, # of connection points: 2
#     Edge 49, Type (0, 0), BuildingBlock: AJUNOK_clean_linker_0, # of connection points: 2
#     Edge 50, Type (0, 0), BuildingBlock: AJUNOK_clean_linker_0, # of connection points: 2
#     Edge 51, Type (0, 0), BuildingBlock: AJUNOK_clean_linker_0, # of connection points: 2
#     Edge 52, Type (0, 0), BuildingBlock: AJUNOK_clean_linker_0, # of connection points: 2
#     Edge 53, Type (0, 0), BuildingBlock: AJUNOK_clean_linker_0, # of connection points: 2
#     Edge 54, Type (0, 0), BuildingBlock: AJUNOK_clean_linker_0, # of connection points: 2
#     Edge 55, Type (0, 0), BuildingBlock: AJUNOK_clean_linker_0, # of connection points: 2
#     Edge 56, Type (0, 0), BuildingBlock: AJUNOK_clean_linker_0, # of connection points: 2
#     Edge 57, Type (0, 0), BuildingBlock: AJUNOK_clean_linker_0, # of connection points: 2
#     Edge 58, Type (0, 0), BuildingBlock: AJUNOK_clean_linker_0, # of connection points: 2
#     Edge 59, Type (0, 0), BuildingBlock: AJUNOK_clean_linker_0, # of connection points: 2
#     Edge 60, Type (0, 0), BuildingBlock: AJUNOK_clean_linker_0, # of connection points: 2
#     Edge 61, Type (0, 0), BuildingBlock: AJUNOK_clean_linker_0, # of connection points: 2
#     Edge 62, Type (0, 0), BuildingBlock: AJUNOK_clean_linker_0, # of connection points: 2
#     Edge 63, Type (0, 0), BuildingBlock: AJUNOK_clean_linker_0, # of connection points: 2
#     Edge 64, Type (0, 0), BuildingBlock: AJUNOK_clean_linker_0, # of connection points: 2
#     Edge 65, Type (0, 0), BuildingBlock: AJUNOK_clean_linker_0, # of connection points: 2
#     Edge 66, Type (0, 0), BuildingBlock: AJUNOK_clean_linker_0, # of connection points: 2
#     Edge 67, Type (0, 0), BuildingBlock: AJUNOK_clean_linker_0, # of connection points: 2
#     Edge 68, Type (0, 0), BuildingBlock: AJUNOK_clean_linker_0, # of connection points: 2
#     Edge 69, Type (0, 0), BuildingBlock: AJUNOK_clean_linker_0, # of connection points: 2
#     Edge 70, Type (0, 0), BuildingBlock: AJUNOK_clean_linker_0, # of connection points: 2
#     Edge 71, Type (0, 0), BuildingBlock: AJUNOK_clean_linker_0, # of connection points: 2
#     Edge 72, Type (0, 0), BuildingBlock: AJUNOK_clean_linker_0, # of connection points: 2
#     Edge 73, Type (0, 0), BuildingBlock: AJUNOK_clean_linker_0, # of connection points: 2
#     Edge 74, Type (0, 0), BuildingBlock: AJUNOK_clean_linker_0, # of connection points: 2
#     Edge 75, Type (0, 0), BuildingBlock: AJUNOK_clean_linker_0, # of connection points: 2
#     Edge 76, Type (0, 0), BuildingBlock: AJUNOK_clean_linker_0, # of connection points: 2
#     Edge 77, Type (0, 0), BuildingBlock: AJUNOK_clean_linker_0, # of connection points: 2
#     Edge 78, Type (0, 0), BuildingBlock: AJUNOK_clean_linker_0, # of connection points: 2
#     Edge 79, Type (0, 0), BuildingBlock: AJUNOK_clean_linker_0, # of connection points: 2
#     Edge 80, Type (0, 0), BuildingBlock: AJUNOK_clean_linker_0, # of connection points: 2
#     Edge 81, Type (0, 0), BuildingBlock: AJUNOK_clean_linker_0, # of connection points: 2
#     Edge 82, Type (0, 0), BuildingBlock: AJUNOK_clean_linker_0, # of connection points: 2
#     Edge 83, Type (0, 0), BuildingBlock: AJUNOK_clean_linker_0, # of connection points: 2
# Relax obj value: 0.591
# Max RMSD: 0.295
# Mean RMSD: 0.295
data_MOF--net-fca--node1-BEQFEK_clean_sbu_0--edge1-AJUNOK_clean_linker_0
_symmetry_space_group_name_H-M    P1
_symmetry_Int_Tables_number       1
_symmetry_cell_setting            triclinic
loop_
_symmetry_equiv_pos_as_xyz
'x, y, z'
_cell_length_a     42.214504
_cell_length_b     42.232983
_cell_length_c     42.234621
_cell_angle_alpha  90.051274
_cell_angle_beta   89.998815
_cell_angle_gamma 90.084153
loop_
_atom_site_label
_atom_site_type_symbol
_atom_site_fract_x
_atom_site_fract_y
_atom_site_fract_z
_atom_type_partial_charge
Co0 Co 0.05497 0.41973 0.29589 0.0
Co1 Co 0.10282 0.42406 0.34991 0.0
C2 C 0.12108 0.44496 0.28315 0.0
O3 O 0.09387 0.43634 0.27333 0.0
O4 O 0.12884 0.4393 0.31183 0.0
C5 C 0.02636 0.38885 0.2428 0.0
O6 O 0.05235 0.37186 0.24119 0.0
C7 C 0.15342 0.40138 0.3904 0.0
C8 C 0.14312 0.42697 0.43475 0.0
C9 C 0.16168 0.40291 0.42227 0.0
N10 N 0.13012 0.42221 0.38513 0.0
N11 N 0.12488 0.43833 0.41137 0.0
C12 C 0.16675 0.38051 0.36504 0.0
H13 H 0.14809 0.36407 0.35645 0.0
H14 H 0.18766 0.36711 0.37363 0.0
H15 H 0.1738 0.39535 0.34453 0.0
C16 C 0.03157 0.36429 0.33148 0.0
N17 N 0.05567 0.38453 0.32451 0.0
N18 N 0.07466 0.38682 0.34906 0.0
C19 C 0.06268 0.36821 0.37261 0.0
C20 C 0.03512 0.35272 0.36218 0.0
C21 C 1.00155 0.36231 0.31263 0.0
H22 H 0.99297 0.3865 0.30732 0.0
H23 H 1.00626 0.34965 0.29013 0.0
H24 H 0.98243 0.34964 0.3254 0.0
O25 O 0.0392 0.45581 0.32066 0.0
O26 O 0.07561 0.45966 0.35862 0.0
H27 H 0.06433 0.39117 0.41758 0.0
H28 H 0.06554 0.34843 0.41966 0.0
C29 C 0.07374 0.36945 0.40618 0.0
H30 H 0.09976 0.37062 0.40698 0.0
H31 H 0.10727 0.45547 0.41396 0.0
O32 O 0.02391 0.41066 0.26334 0.0
C33 C 0.05055 0.46924 0.3452 0.0
Co34 Co 1.00369 0.64367 0.29859 0.0
Co35 Co 0.95362 0.6403 0.35114 0.0
C36 C 0.93795 0.61829 0.284 0.0
O37 O 0.96547 0.62676 0.27487 0.0
O38 O 0.92917 0.62465 0.31225 0.0
C39 C 0.03604 0.67338 0.24643 0.0
O40 O 1.01054 0.69081 0.24287 0.0
C41 C 0.90435 0.66469 0.39285 0.0
C42 C 0.9079 0.63148 0.43298 0.0
C43 C 0.89333 0.6593 0.42346 0.0
N44 N 0.92516 0.64191 0.38553 0.0
N45 N 0.92636 0.62151 0.40914 0.0
C46 C 0.89547 0.6907 0.37048 0.0
H47 H 0.89247 0.68079 0.34631 0.0
H48 H 0.91487 0.70837 0.36918 0.0
H49 H 0.87323 0.70251 0.37804 0.0
C50 C 0.02572 0.69939 0.33487 0.0
N51 N 1.00192 0.6791 0.32716 0.0
N52 N 0.98195 0.67721 0.35097 0.0
C53 C 0.99304 0.69601 0.37484 0.0
C54 C 0.02107 0.71127 0.3653 0.0
C55 C 0.05641 0.70113 0.31723 0.0
H56 H 0.06539 0.67681 0.31355 0.0
H57 H 0.05248 0.71264 0.29402 0.0
H58 H 0.07483 0.71467 0.33015 0.0
O59 O 0.01788 0.60741 0.32388 0.0
O60 O 0.98023 0.60448 0.36065 0.0
H61 H 0.9779 0.67092 0.41621 0.0
H62 H 0.99457 0.7097 0.42437 0.0
C63 C 0.97985 0.6957 0.40772 0.0
H64 H 0.95581 0.706 0.40746 0.0
H65 H 0.94123 0.60178 0.40979 0.0
O66 O 0.03663 0.65188 0.26738 0.0
C67 C 1.00532 0.59416 0.34787 0.0
Co68 Co 0.06104 0.65142 0.76814 0.0
Co69 Co 0.10099 0.63785 0.70923 0.0
C70 C 0.12455 0.62261 0.77735 0.0
O71 O 0.10126 0.63697 0.79023 0.0
O72 O 0.12726 0.62295 0.74721 0.0
C73 C 0.02789 0.68099 0.82229 0.0
O74 O 0.05294 0.69812 0.82924 0.0
C75 C 0.14938 0.65805 0.66571 0.0
C76 C 0.1409 0.62698 0.62455 0.0
C77 C 0.15814 0.65325 0.63433 0.0
N78 N 0.1273 0.63663 0.67332 0.0
N79 N 0.12307 0.61736 0.64908 0.0
C80 C 0.16026 0.68331 0.6881 0.0
H81 H 0.14155 0.70159 0.69043 0.0
H82 H 0.18261 0.69444 0.67981 0.0
H83 H 0.16385 0.67291 0.71196 0.0
C84 C 0.03712 0.70481 0.72844 0.0
N85 N 0.06005 0.68325 0.73531 0.0
N86 N 0.07564 0.67649 0.70927 0.0
C87 C 0.06248 0.69303 0.68493 0.0
C88 C 0.03732 0.7117 0.69607 0.0
C89 C 1.0114 0.71388 0.75098 0.0
H90 H 0.99668 0.69278 0.7559 0.0
H91 H 0.02204 0.72241 0.77339 0.0
H92 H 0.99585 0.73264 0.74133 0.0
O93 O 0.04556 0.61175 0.74928 0.0
O94 O 0.07138 0.60362 0.70418 0.0
H95 H 0.06759 0.66302 0.64443 0.0
H96 H 0.05763 0.70375 0.63495 0.0
C97 C 0.07139 0.68819 0.65099 0.0
H98 H 0.09686 0.69353 0.6479 0.0
H99 H 0.10643 0.59903 0.64852 0.0
O100 O 0.02883 0.66142 0.79954 0.0
C101 C 0.05085 0.59543 0.72448 0.0
Co102 Co 1.00056 0.40983 0.76844 0.0
Co103 Co 0.96028 0.42314 0.70986 0.0
C104 C 0.93656 0.43761 0.77791 0.0
O105 O 0.96009 0.42324 0.79024 0.0
O106 O 0.93345 0.43769 0.7478 0.0
C107 C 0.03056 0.37966 0.82318 0.0
O108 O 1.00444 0.36362 0.82857 0.0
C109 C 0.91055 0.40467 0.66684 0.0
C110 C 0.92424 0.43008 0.62333 0.0
C111 C 0.90384 0.40693 0.63469 0.0
N112 N 0.93463 0.42425 0.67344 0.0
N113 N 0.94198 0.44029 0.64768 0.0
C114 C 0.89514 0.38408 0.69123 0.0
H115 H 0.91262 0.36676 0.70041 0.0
H116 H 0.87408 0.37166 0.68149 0.0
H117 H 0.88779 0.39895 0.71162 0.0
C118 C 0.02522 0.35702 0.7288 0.0
N119 N 1.00198 0.37823 0.73567 0.0
N120 N 0.98613 0.38469 0.70973 0.0
C121 C 0.99939 0.36816 0.68539 0.0
C122 C 0.02477 0.34981 0.6965 0.0
C123 C 0.05144 0.34884 0.75118 0.0
H124 H 0.06476 0.37064 0.75731 0.0
H125 H 0.04123 0.33878 0.77316 0.0
H126 H 0.06822 0.33151 0.74088 0.0
O127 O 1.01608 0.44971 0.75006 0.0
O128 O 0.98964 0.45763 0.70527 0.0
H129 H 0.99906 0.39709 0.64396 0.0
H130 H 1.00185 0.35501 0.63591 0.0
C131 C 0.99095 0.37323 0.6514 0.0
H132 H 0.965 0.37238 0.64855 0.0
H133 H 0.96072 0.4564 0.64613 0.0
O134 O 0.03183 0.39921 0.80044 0.0
C135 C 1.01038 0.46595 0.72532 0.0
Co136 Co 0.29744 0.05595 0.41477 0.0
Co137 Co 0.35115 0.10437 0.42125 0.0
C138 C 0.28289 0.12095 0.44052 0.0
O139 O 0.27322 0.09405 0.43086 0.0
O140 O 0.31178 0.12869 0.43593 0.0
C141 C 0.24359 0.02605 0.38584 0.0
O142 O 0.2394 0.05274 0.37047 0.0
C143 C 0.39877 0.15037 0.39865 0.0
C144 C 0.42724 0.15618 0.44207 0.0
C145 C 0.42613 0.16428 0.41034 0.0
N146 N 0.38488 0.1341 0.42213 0.0
N147 N 0.40137 0.13873 0.44832 0.0
C148 C 0.38778 0.15028 0.36497 0.0
H149 H 0.36686 0.13468 0.36187 0.0
H150 H 0.40729 0.14274 0.34908 0.0
H151 H 0.38132 0.17479 0.3581 0.0
C152 C 0.33426 0.03386 0.35961 0.0
N153 N 0.32719 0.05751 0.38029 0.0
N154 N 0.35231 0.07554 0.38434 0.0
C155 C 0.37657 0.06276 0.36714 0.0
C156 C 0.36583 0.03613 0.35023 0.0
C157 C 0.31353 1.00554 0.35421 0.0
H158 H 0.2907 1.01331 0.34391 0.0
H159 H 0.32448 0.98808 0.33797 0.0
H160 H 0.30897 0.99358 0.37711 0.0
O161 O 0.32146 0.04094 0.45177 0.0
O162 O 0.35937 0.07726 0.45708 0.0
H163 H 0.42644 0.05202 0.37063 0.0
H164 H 0.4171 0.08717 0.34927 0.0
C165 C 0.41046 0.07278 0.37019 0.0
H166 H 0.41419 0.08677 0.39204 0.0
H167 H 0.39605 0.12831 0.47009 0.0
O168 O 0.26609 0.02357 0.40559 0.0
C169 C 0.3455 0.05222 0.46614 0.0
Co170 Co 0.76317 1.00327 0.41499 0.0
Co171 Co 0.70857 0.9557 0.41998 0.0
C172 C 0.77536 0.93753 0.44129 0.0
O173 O 0.78586 0.96439 0.43225 0.0
O174 O 0.74658 0.93021 0.43545 0.0
C175 C 0.81683 0.03326 0.38521 0.0
O176 O 0.81986 1.00736 0.36825 0.0
C177 C 0.66609 0.90671 0.39666 0.0
C178 C 0.62526 0.91243 0.42877 0.0
C179 C 0.6351 0.89659 0.40173 0.0
N180 N 0.67336 0.92823 0.41881 0.0
N181 N 0.64932 0.93077 0.43861 0.0
C182 C 0.68866 0.89675 0.37119 0.0
H183 H 0.69052 0.91565 0.35308 0.0
H184 H 0.68085 0.87434 0.35984 0.0
H185 H 0.71264 0.89363 0.3815 0.0
C186 C 0.72657 0.02626 0.35988 0.0
N187 N 0.73398 1.00226 0.38002 0.0
N188 N 0.70949 0.9832 0.38264 0.0
C189 C 0.68557 0.99495 0.36444 0.0
C190 C 0.69553 0.02273 0.34908 0.0
C191 C 0.74593 0.05583 0.35661 0.0
H192 H 0.76882 0.04997 0.3452 0.0
H193 H 0.73387 0.07406 0.34212 0.0
H194 H 0.75063 0.06593 0.38038 0.0
O195 O 0.7387 0.01912 0.45116 0.0
O196 O 0.70015 0.98337 0.45537 0.0
H197 H 0.64341 0.983 0.38994 0.0
H198 H 0.63635 0.99627 0.34968 0.0
C199 C 0.65238 0.98249 0.36525 0.0
H200 H 0.65223 0.95762 0.35714 0.0
H201 H 0.64857 0.94643 0.45774 0.0
O202 O 0.7953 0.03506 0.4061 0.0
C203 C 0.71409 1.00823 0.4648 0.0
Co204 Co 0.29817 1.00359 0.64254 0.0
Co205 Co 0.35171 0.95494 0.63813 0.0
C206 C 0.28464 0.93691 0.61872 0.0
O207 O 0.27498 0.96448 0.62642 0.0
O208 O 0.31319 0.92908 0.62482 0.0
C209 C 0.24605 0.03572 0.67341 0.0
O210 O 0.24305 1.01074 0.69168 0.0
C211 C 0.3937 0.90497 0.65966 0.0
C212 C 0.43442 0.91118 0.6275 0.0
C213 C 0.42439 0.89443 0.65391 0.0
N214 N 0.38677 0.92749 0.6385 0.0
N215 N 0.41073 0.93036 0.61864 0.0
C216 C 0.37102 0.89433 0.68476 0.0
H217 H 0.34703 0.89166 0.67434 0.0
H218 H 0.36929 0.9127 0.70347 0.0
H219 H 0.37861 0.87153 0.69539 0.0
C220 C 0.33554 0.02655 0.69746 0.0
N221 N 0.32785 1.00274 0.67719 0.0
N222 N 0.3518 0.98302 0.6751 0.0
C223 C 0.37563 0.99407 0.69394 0.0
C224 C 0.36605 0.02204 0.70925 0.0
C225 C 0.31763 0.05703 0.69937 0.0
H226 H 0.31308 0.06564 0.67507 0.0
H227 H 0.2948 0.05297 0.71164 0.0
H228 H 0.33081 0.07574 0.71225 0.0
O229 O 0.32191 0.01851 0.60548 0.0
O230 O 0.35916 0.98152 0.60166 0.0
H231 H 0.42438 0.99379 0.71014 0.0
H232 H 0.40748 0.95563 0.70155 0.0
C233 C 0.40841 0.98066 0.69393 0.0
H234 H 0.41811 0.98126 0.66952 0.0
H235 H 0.41165 0.94667 0.60009 0.0
O236 O 0.2665 0.03588 0.6514 0.0
C237 C 0.34566 1.00627 0.59154 0.0
Co238 Co 0.76605 0.05427 0.63955 0.0
Co239 Co 0.71246 0.10313 0.63833 0.0
C240 C 0.77759 0.12228 0.61657 0.0
O241 O 0.78668 0.09424 0.62279 0.0
O242 O 0.74968 0.13073 0.62448 0.0
C243 C 0.81719 0.02531 0.6733 0.0
O244 O 0.80878 0.04317 0.69732 0.0
C245 C 0.66913 0.15144 0.6615 0.0
C246 C 0.62777 0.1437 0.63049 0.0
C247 C 0.63791 0.16077 0.65667 0.0
N248 N 0.67636 0.12926 0.64 0.0
N249 N 0.65194 0.12549 0.62084 0.0
C250 C 0.69202 0.163 0.68602 0.0
H251 H 0.71556 0.16681 0.67492 0.0
H252 H 0.69515 0.14471 0.70456 0.0
H253 H 0.68371 0.18538 0.69702 0.0
C254 C 0.72929 0.02855 0.69348 0.0
N255 N 0.73717 0.05351 0.67473 0.0
N256 N 0.71369 0.07395 0.67454 0.0
C257 C 0.69019 0.0624 0.69348 0.0
C258 C 0.69937 0.03324 0.70657 0.0
C259 C 0.74625 0.99741 0.69297 0.0
H260 H 0.75663 0.99301 0.66929 0.0
H261 H 0.76544 0.99791 0.71084 0.0
H262 H 0.73014 0.9775 0.69892 0.0
O263 O 0.74169 0.0387 0.60333 0.0
O264 O 0.70524 0.07677 0.60146 0.0
H265 H 0.64692 0.07684 0.67149 0.0
H266 H 0.64226 0.06311 0.71189 0.0
C267 C 0.65776 0.07648 0.69542 0.0
H268 H 0.65955 0.10117 0.70392 0.0
H269 H 0.65112 0.1092 0.60225 0.0
O270 O 0.80176 0.02608 0.64751 0.0
C271 C 0.71782 0.05185 0.59043 0.0
Co272 Co 0.41689 0.29509 0.05515 0.0
Co273 Co 0.4199 0.34906 0.10331 0.0
C274 C 0.43908 0.28259 0.12277 0.0
O275 O 0.43235 0.27284 0.09497 0.0
O276 O 0.43237 0.31106 0.13046 0.0
C277 C 0.38634 0.24213 0.02518 0.0
O278 O 0.36809 0.24056 0.05031 0.0
C279 C 0.39901 0.39095 0.15374 0.0
C280 C 0.42477 0.43476 0.1416 0.0
C281 C 0.40143 0.42291 0.16147 0.0
N282 N 0.4187 0.38502 0.1296 0.0
N283 N 0.43493 0.41095 0.12322 0.0
C284 C 0.37849 0.36612 0.16855 0.0
H285 H 0.39346 0.34573 0.17559 0.0
H286 H 0.36129 0.35714 0.1508 0.0
H287 H 0.36594 0.37537 0.18972 0.0
C288 C 0.36251 0.33178 0.03001 0.0
N289 N 0.38219 0.32455 0.05447 0.0
N290 N 0.38376 0.3488 0.07391 0.0
C291 C 0.36515 0.37235 0.06201 0.0
C292 C 0.35051 0.36233 0.03384 0.0
C293 C 0.3611 0.31308 0.99987 0.0
H294 H 0.38544 0.30721 0.99203 0.0
H295 H 0.34787 0.2908 1.0041 0.0
H296 H 0.34929 0.32625 0.9805 0.0
O297 O 0.45422 0.31859 0.0406 0.0
O298 O 0.45728 0.35572 0.07788 0.0
H299 H 0.3869 0.41776 0.06628 0.0
H300 H 0.34407 0.41874 0.06598 0.0
C301 C 0.36512 0.40547 0.0744 0.0
H302 H 0.36528 0.40516 0.10046 0.0
H303 H 0.4514 0.41299 0.10489 0.0
O304 O 0.40838 0.26255 0.02381 0.0
C305 C 0.46797 0.34221 0.05334 0.0
Co306 Co 0.41956 0.76629 1.00366 0.0
Co307 Co 0.42061 0.71177 0.95574 0.0
C308 C 0.44198 0.77614 0.93497 0.0
O309 O 0.43657 0.78575 0.96305 0.0
O310 O 0.43313 0.74835 0.927 0.0
C311 C 0.38465 0.81688 0.03305 0.0
O312 O 0.36008 0.80705 0.01669 0.0
C313 C 0.39981 0.66698 0.90753 0.0
C314 C 0.42994 0.62572 0.91831 0.0
C315 C 0.40506 0.63553 0.89929 0.0
N316 N 0.41984 0.67472 0.93089 0.0
N317 N 0.43851 0.65032 0.93654 0.0
C318 C 0.37615 0.68956 0.8939 0.0
H319 H 0.35662 0.69337 0.91105 0.0
H320 H 0.36635 0.68053 0.87123 0.0
H321 H 0.38762 0.71289 0.88996 0.0
C322 C 0.36634 0.72916 0.03059 0.0
N323 N 0.38482 0.73678 1.00537 0.0
N324 N 0.38451 0.71323 0.98499 0.0
C325 C 0.36515 0.69011 0.99663 0.0
C326 C 0.35244 0.69953 0.02593 0.0
C327 C 0.36819 0.74572 0.06194 0.0
H328 H 0.3917 0.75697 0.06508 0.0
H329 H 0.34958 0.76413 0.063 0.0
H330 H 0.36414 0.72905 0.08183 0.0
O331 O 0.45599 0.74307 0.01981 0.0
O332 O 0.45809 0.70647 0.98182 0.0
H333 H 0.38517 0.64543 0.98391 0.0
H334 H 0.3435 0.64363 0.99401 0.0
C335 C 0.36213 0.6579 0.98218 0.0
H336 H 0.35605 0.6602 0.95684 0.0
H337 H 0.45602 0.64989 0.95399 0.0
O338 O 0.41102 0.80258 0.03108 0.0
C339 C 0.46919 0.71945 1.00652 0.0
Co340 Co 0.6452 0.29397 1.00567 0.0
Co341 Co 0.63942 0.34802 0.95782 0.0
C342 C 0.62001 0.28098 0.93944 0.0
O343 O 0.62867 0.27123 0.96666 0.0
O344 O 0.62534 0.30974 0.93173 0.0
C345 C 0.67495 0.24 0.03514 0.0
O346 O 0.69126 0.23632 1.00891 0.0
C347 C 0.66075 0.39094 0.90852 0.0
C348 C 0.62878 0.43159 0.91578 0.0
C349 C 0.65517 0.42192 0.89878 0.0
N350 N 0.63953 0.38351 0.93087 0.0
N351 N 0.61978 0.40744 0.93436 0.0
C352 C 0.68589 0.36853 0.8975 0.0
H353 H 0.7047 0.3667 0.91575 0.0
H354 H 0.69638 0.37644 0.87473 0.0
H355 H 0.67554 0.34452 0.89462 0.0
C356 C 0.69975 0.33124 0.02855 0.0
N357 N 0.67964 0.3236 1.00459 0.0
N358 N 0.6768 0.34794 0.98545 0.0
C359 C 0.69491 0.37204 0.99711 0.0
C360 C 0.71034 0.36232 0.02495 0.0
C361 C 0.70318 0.31193 0.05808 0.0
H362 H 0.71438 0.28898 0.05212 0.0
H363 H 0.71786 0.32394 0.07624 0.0
H364 H 0.67944 0.30732 0.06833 0.0
O365 O 0.60855 0.31754 0.02168 0.0
O366 O 0.60367 0.3553 0.98534 0.0
H367 H 0.66957 0.41429 0.98552 0.0
H368 H 0.71029 0.42104 0.99759 0.0
C369 C 0.69414 0.40506 0.98435 0.0
H370 H 0.70145 0.40481 0.95921 0.0
H371 H 0.60127 0.40804 0.95077 0.0
O372 O 0.6546 0.26197 0.03725 0.0
C373 C 0.59439 0.34158 1.01035 0.0
Co374 Co 0.6465 0.76357 0.05621 0.0
Co375 Co 0.6386 0.70864 0.10272 0.0
C376 C 0.61919 0.7763 0.12104 0.0
O377 O 0.62998 0.78696 0.09491 0.0
O378 O 0.62299 0.74706 0.12772 0.0
C379 C 0.67545 0.8171 0.02368 0.0
O380 O 0.69205 0.82295 0.04935 0.0
C381 C 0.65975 0.66865 0.15408 0.0
C382 C 0.63399 0.62436 0.14383 0.0
C383 C 0.65782 0.63692 0.1627 0.0
N384 N 0.63937 0.67376 0.13035 0.0
N385 N 0.62312 0.64757 0.12511 0.0
C386 C 0.68039 0.69411 0.16766 0.0
H387 H 0.69719 0.70258 0.14929 0.0
H388 H 0.6934 0.68569 0.18888 0.0
H389 H 0.66543 0.71466 0.17427 0.0
C390 C 0.70198 0.72635 0.03457 0.0
N391 N 0.68094 0.73379 0.05782 0.0
N392 N 0.67649 0.70884 0.07586 0.0
C393 C 0.69397 0.68452 0.06384 0.0
C394 C 0.71105 0.69472 0.0372 0.0
C395 C 0.70773 0.74659 1.00611 0.0
H396 H 0.71712 0.76987 1.01372 0.0
H397 H 0.72482 0.73578 0.9894 0.0
H398 H 0.68502 0.75005 0.99351 0.0
O399 O 0.60955 0.73978 0.04043 0.0
O400 O 0.60386 0.70021 0.07468 0.0
H401 H 0.66663 0.64209 0.06718 0.0
H402 H 0.70891 0.63552 0.06369 0.0
C403 C 0.69038 0.65089 0.07424 0.0
H404 H 0.6919 0.64954 0.10025 0.0
H405 H 0.60629 0.64489 0.10719 0.0
O406 O 0.65548 0.79465 0.02348 0.0
C407 C 0.59514 0.71515 0.05021 0.0
Co408 Co 0.55717 0.91399 0.79168 0.0
Co409 Co 0.60435 0.91963 0.84627 0.0
C410 C 0.62359 0.93914 0.77949 0.0
O411 O 0.59645 0.93041 0.76951 0.0
O412 O 0.63107 0.93388 0.80832 0.0
C413 C 0.52782 0.88289 0.73834 0.0
O414 O 0.55341 0.8654 0.73602 0.0
C415 C 0.65465 0.8992 0.88845 0.0
C416 C 0.64254 0.92541 0.93199 0.0
C417 C 0.66224 0.90182 0.92041 0.0
N418 N 0.63072 0.91904 0.88224 0.0
N419 N 0.62436 0.93552 0.90801 0.0
C420 C 0.66928 0.87829 0.86386 0.0
H421 H 0.65147 0.86088 0.85538 0.0
H422 H 0.69056 0.86597 0.87314 0.0
H423 H 0.6761 0.8929 0.84311 0.0
C424 C 0.53352 0.85933 0.82837 0.0
N425 N 0.55763 0.87946 0.82115 0.0
N426 N 0.57647 0.88226 0.84577 0.0
C427 C 0.56441 0.86408 0.8696 0.0
C428 C 0.53689 0.8484 0.85936 0.0
C429 C 0.50374 0.8568 0.80923 0.0
H430 H 0.49494 0.88085 0.80362 0.0
H431 H 0.50888 0.8441 0.78685 0.0
H432 H 0.48466 0.84398 0.82189 0.0
O433 O 0.54092 0.95058 0.81523 0.0
O434 O 0.57679 0.9553 0.85352 0.0
H435 H 0.56718 0.88814 0.91395 0.0
H436 H 0.56669 0.84541 0.91717 0.0
C437 C 0.57562 0.86574 0.90311 0.0
H438 H 0.60169 0.86586 0.90371 0.0
H439 H 0.60612 0.9521 0.90984 0.0
O440 O 0.52616 0.90452 0.75914 0.0
C441 C 0.55194 0.96462 0.83955 0.0
Co442 Co 0.50619 0.14134 0.79661 0.0
Co443 Co 0.45755 0.13756 0.85029 0.0
C444 C 0.43964 0.11701 0.78359 0.0
O445 O 0.46712 0.12482 0.77374 0.0
O446 O 0.43173 0.12363 0.81201 0.0
C447 C 0.53603 0.17151 0.74354 0.0
O448 O 0.51013 0.18851 0.7411 0.0
C449 C 0.40816 0.16062 0.89218 0.0
C450 C 0.41374 0.12888 0.93326 0.0
C451 C 0.39767 0.1556 0.92301 0.0
N452 N 0.43006 0.13876 0.88536 0.0
N453 N 0.43253 0.11916 0.90954 0.0
C454 C 0.39822 0.18582 0.86935 0.0
H455 H 0.41713 0.20398 0.86742 0.0
H456 H 0.37575 0.19716 0.87692 0.0
H457 H 0.39521 0.17526 0.84545 0.0
C458 C 0.5298 0.19612 0.83356 0.0
N459 N 0.50566 0.17616 0.82595 0.0
N460 N 0.48608 0.17414 0.85005 0.0
C461 C 0.4976 0.19258 0.87393 0.0
C462 C 0.52579 0.20747 0.86431 0.0
C463 C 0.55972 0.19888 0.81469 0.0
H464 H 0.56922 0.17492 0.80976 0.0
H465 H 0.55449 0.21075 0.7919 0.0
H466 H 0.5782 0.21273 0.82722 0.0
O467 O 0.52082 0.1044 0.82054 0.0
O468 O 0.48374 0.10097 0.85787 0.0
H469 H 0.4846 0.1681 0.91632 0.0
H470 H 0.49789 0.20849 0.92277 0.0
C471 C 0.48438 0.19258 0.90679 0.0
H472 H 0.4595 0.20067 0.90612 0.0
H473 H 0.44839 0.10024 0.9106 0.0
O474 O 0.53805 0.15022 0.76462 0.0
C475 C 0.50841 0.09065 0.84431 0.0
Co476 Co 0.55212 0.14081 0.2656 0.0
Co477 Co 0.60002 0.13799 0.21137 0.0
C478 C 0.61992 0.11704 0.27655 0.0
O479 O 0.59208 0.1238 0.28593 0.0
O480 O 0.62804 0.12425 0.24835 0.0
C481 C 0.52392 0.17398 0.31781 0.0
O482 O 0.54193 0.19816 0.31015 0.0
C483 C 0.64907 0.15906 0.16774 0.0
C484 C 0.63942 0.12885 0.12617 0.0
C485 C 0.65807 0.15388 0.13648 0.0
N486 N 0.62568 0.13883 0.17488 0.0
N487 N 0.62068 0.12015 0.15031 0.0
C488 C 0.66195 0.18286 0.19069 0.0
H489 H 0.6448 0.20252 0.19359 0.0
H490 H 0.68505 0.19243 0.18252 0.0
H491 H 0.66484 0.17163 0.21426 0.0
C492 C 0.52703 0.19511 0.22914 0.0
N493 N 0.55166 0.17582 0.23663 0.0
N494 N 0.57169 0.17496 0.21281 0.0
C495 C 0.5603 0.19413 0.18946 0.0
C496 C 0.53157 0.208 0.19904 0.0
C497 C 0.49616 0.1951 0.2467 0.0
H498 H 0.49122 0.17122 0.25637 0.0
H499 H 0.49753 0.21221 0.26657 0.0
H500 H 0.47614 0.20209 0.2312 0.0
O501 O 0.5354 0.1049 0.24178 0.0
O502 O 0.57278 0.10146 0.20476 0.0
H503 H 0.56246 0.21408 0.14224 0.0
H504 H 0.59975 0.20188 0.15873 0.0
C505 C 0.57431 0.19589 0.15698 0.0
H506 H 0.57224 0.17242 0.14532 0.0
H507 H 0.60334 0.10251 0.14943 0.0
O508 O 0.52422 0.14883 0.30137 0.0
C509 C 0.54762 0.09141 0.21776 0.0
Co510 Co 0.50197 0.91422 0.26163 0.0
Co511 Co 0.45364 0.91888 0.20745 0.0
C512 C 0.43659 0.93961 0.27512 0.0
O513 O 0.46337 0.93034 0.28549 0.0
O514 O 0.42925 0.93404 0.24632 0.0
C515 C 0.53226 0.88555 0.31539 0.0
O516 O 0.50588 0.8695 0.31928 0.0
C517 C 0.40728 0.89653 0.15991 0.0
C518 C 0.40382 0.93932 0.13019 0.0
C519 C 0.39407 0.90809 0.13215 0.0
N520 N 0.42455 0.91966 0.17325 0.0
N521 N 0.42134 0.94552 0.15597 0.0
C522 C 0.40536 0.86337 0.17223 0.0
H523 H 0.42268 0.85956 0.19159 0.0
H524 H 0.40925 0.84608 0.15282 0.0
H525 H 0.38117 0.85919 0.18163 0.0
C526 C 0.52524 0.85939 0.22471 0.0
N527 N 0.50113 0.87948 0.23192 0.0
N528 N 0.48252 0.8824 0.2071 0.0
C529 C 0.49515 0.86493 0.18299 0.0
C530 C 0.52257 0.84927 0.19342 0.0
C531 C 0.55401 0.85501 0.24496 0.0
H532 H 0.56537 0.8783 0.24926 0.0
H533 H 0.54688 0.84463 0.26796 0.0
H534 H 0.57166 0.83912 0.23377 0.0
O535 O 0.51641 0.95152 0.2377 0.0
O536 O 0.48052 0.95474 0.19924 0.0
H537 H 0.47377 0.89015 0.14425 0.0
H538 H 0.50315 0.86128 0.13243 0.0
C539 C 0.48387 0.8665 0.14942 0.0
H540 H 0.4653 0.84832 0.14581 0.0
H541 H 0.43267 0.96698 0.16077 0.0
O542 O 0.53443 0.90559 0.29312 0.0
C543 C 0.50483 0.96511 0.21342 0.0
Co544 Co 0.79531 0.55365 0.91651 0.0
Co545 Co 0.85048 0.60028 0.92235 0.0
C546 C 0.78366 0.61978 0.94216 0.0
O547 O 0.77316 0.59298 0.93296 0.0
O548 O 0.81269 0.6268 0.93717 0.0
C549 C 0.74083 0.52489 0.88696 0.0
O550 O 0.73737 0.55124 0.87084 0.0
C551 C 0.89257 0.65078 0.90196 0.0
C552 C 0.93607 0.63922 0.9285 0.0
C553 C 0.92433 0.65904 0.90513 0.0
N554 N 0.88655 0.62656 0.92151 0.0
N555 N 0.9123 0.62042 0.93809 0.0
C556 C 0.86792 0.66531 0.88107 0.0
H557 H 0.86025 0.64777 0.86303 0.0
H558 H 0.87684 0.68715 0.86947 0.0
H559 H 0.84673 0.67111 0.8955 0.0
C560 C 0.83153 0.53049 0.86116 0.0
N561 N 0.82461 0.55428 0.88176 0.0
N562 N 0.84953 0.57268 0.88494 0.0
C563 C 0.87332 0.56053 0.86681 0.0
C564 C 0.86276 0.53335 0.85076 0.0
C565 C 0.8113 0.50166 0.85688 0.0
H566 H 0.80674 0.49064 0.88026 0.0
H567 H 0.78838 0.50865 0.84622 0.0
H568 H 0.82261 0.4838 0.84131 0.0
O569 O 0.81896 0.53743 0.95319 0.0
O570 O 0.8578 0.57276 0.95787 0.0
H571 H 0.91657 0.566 0.89243 0.0
H572 H 0.92182 0.56027 0.85023 0.0
C573 C 0.9069 0.5716 0.86866 0.0
H574 H 0.90772 0.59755 0.86566 0.0
H575 H 0.91423 0.60211 0.95457 0.0
O576 O 0.76285 0.52247 0.90724 0.0
C577 C 0.84343 0.54815 0.96722 0.0
Co578 Co 0.26464 0.50492 0.91607 0.0
Co579 Co 0.2093 0.45842 0.92138 0.0
C580 C 0.27589 0.43823 0.94094 0.0
O581 O 0.28644 0.46534 0.93276 0.0
O582 O 0.24699 0.43128 0.93516 0.0
C583 C 0.31894 0.53348 0.88581 0.0
O584 O 0.32166 0.50743 0.86902 0.0
C585 C 0.1654 0.40977 0.89996 0.0
C586 C 0.12521 0.41692 0.93262 0.0
C587 C 0.13459 0.39981 0.90621 0.0
N588 N 0.17315 0.43218 0.92104 0.0
N589 N 0.14944 0.43571 0.94109 0.0
C590 C 0.18747 0.39861 0.87456 0.0
H591 H 0.2118 0.39659 0.88432 0.0
H592 H 0.18837 0.41637 0.85525 0.0
H593 H 0.17978 0.37541 0.86485 0.0
C594 C 0.2281 0.52888 0.8613 0.0
N595 N 0.23498 0.50479 0.8815 0.0
N596 N 0.21011 0.48625 0.88418 0.0
C597 C 0.18644 0.49843 0.8659 0.0
C598 C 0.19705 0.5259 0.85032 0.0
C599 C 0.248 0.55812 0.85826 0.0
H600 H 0.25325 0.56765 0.88215 0.0
H601 H 0.27059 0.55204 0.84638 0.0
H602 H 0.23609 0.57693 0.84441 0.0
O603 O 0.24129 0.52146 0.95265 0.0
O604 O 0.20269 0.48586 0.95744 0.0
H605 H 0.14405 0.48758 0.89142 0.0
H606 H 0.13731 0.50065 0.85109 0.0
C607 C 0.15302 0.48663 0.86674 0.0
H608 H 0.1524 0.4616 0.85897 0.0
H609 H 0.14916 0.45208 0.95964 0.0
O610 O 0.29747 0.53577 0.9067 0.0
C611 C 0.21697 0.51058 0.96677 0.0
Co612 Co 0.79728 0.50306 0.14441 0.0
Co613 Co 0.85032 0.45384 0.14031 0.0
C614 C 0.78306 0.43671 0.12039 0.0
O615 O 0.77368 0.46422 0.12855 0.0
O616 O 0.81156 0.42849 0.12632 0.0
C617 C 0.74494 0.53572 0.17405 0.0
O618 O 0.74102 0.51057 0.19191 0.0
C619 C 0.89214 0.40428 0.16302 0.0
C620 C 0.93275 0.40957 0.13058 0.0
C621 C 0.92292 0.39376 0.15764 0.0
N622 N 0.88506 0.42602 0.14111 0.0
N623 N 0.90893 0.42826 0.12107 0.0
C624 C 0.86952 0.39442 0.1885 0.0
H625 H 0.86759 0.41348 0.20647 0.0
H626 H 0.87727 0.37211 0.19998 0.0
H627 H 0.84556 0.39116 0.17815 0.0
C628 C 0.83451 0.52607 0.19935 0.0
N629 N 0.82671 0.50216 0.17921 0.0
N630 N 0.85065 0.48244 0.17702 0.0
C631 C 0.87467 0.49374 0.19548 0.0
C632 C 0.86523 0.52185 0.21063 0.0
C633 C 0.81617 0.55624 0.20197 0.0
H634 H 0.81234 0.56589 0.17793 0.0
H635 H 0.79297 0.55136 0.21319 0.0
H636 H 0.82863 0.57443 0.21623 0.0
O637 O 0.82132 0.51716 0.10719 0.0
O638 O 0.85836 0.47991 0.10379 0.0
H639 H 0.91686 0.48053 0.17074 0.0
H640 H 0.9236 0.49384 0.21108 0.0
C641 C 0.90746 0.48039 0.19528 0.0
H642 H 0.90667 0.45553 0.2034 0.0
H643 H 0.90977 0.44397 0.102 0.0
O644 O 0.76607 0.53582 0.1527 0.0
C645 C 0.84499 0.50461 0.0934 0.0
Co646 Co 0.26358 0.55847 0.14331 0.0
Co647 Co 0.21015 0.60723 0.13898 0.0
C648 C 0.27739 0.62507 0.11957 0.0
O649 O 0.28693 0.59745 0.12721 0.0
O650 O 0.24886 0.63306 0.12569 0.0
C651 C 0.31631 0.52576 0.17234 0.0
O652 O 0.32087 0.5511 0.18982 0.0
C653 C 0.16968 0.65805 0.16123 0.0
C654 C 0.12547 0.64756 0.13546 0.0
C655 C 0.13781 0.66631 0.15949 0.0
N656 N 0.17503 0.63459 0.14057 0.0
N657 N 0.14888 0.62924 0.12433 0.0
C658 C 0.19508 0.67188 0.18177 0.0
H659 H 0.21551 0.67877 0.16672 0.0
H660 H 0.20381 0.65357 0.19846 0.0
H661 H 0.18647 0.69299 0.19487 0.0
C662 C 0.22674 0.53577 0.19882 0.0
N663 N 0.2343 0.55944 0.17831 0.0
N664 N 0.20997 0.57861 0.17555 0.0
C665 C 0.18591 0.567 0.19371 0.0
C666 C 0.19572 0.53947 0.2095 0.0
C667 C 0.24572 0.50614 0.20239 0.0
H668 H 0.24909 0.49542 0.17873 0.0
H669 H 0.2691 0.51198 0.21276 0.0
H670 H 0.23395 0.48846 0.21781 0.0
O671 O 0.2393 0.54406 0.10626 0.0
O672 O 0.20228 0.58127 0.10227 0.0
H673 H 0.14238 0.57265 0.16865 0.0
H674 H 0.13774 0.56853 0.21111 0.0
C675 C 0.15262 0.57884 0.19206 0.0
H676 H 0.15251 0.60482 0.19417 0.0
H677 H 0.14637 0.61149 0.10728 0.0
O678 O 0.29475 0.5256 0.15143 0.0
C679 C 0.21569 0.55642 0.09222 0.0
Co680 Co 0.91457 0.79752 0.55808 0.0
Co681 Co 0.92088 0.85221 0.60557 0.0
C682 C 0.94056 0.78453 0.62347 0.0
O683 O 0.93079 0.77416 0.59685 0.0
O684 O 0.93593 0.81355 0.63056 0.0
C685 C 0.88454 0.74398 0.52785 0.0
O686 O 0.86788 0.74051 0.55389 0.0
C687 C 0.89913 0.90003 0.6516 0.0
C688 C 0.94141 0.93074 0.65355 0.0
C689 C 0.91043 0.92829 0.66401 0.0
N690 N 0.92213 0.88684 0.63412 0.0
N691 N 0.94773 0.90473 0.63641 0.0
C692 C 0.86613 0.88726 0.65408 0.0
H693 H 0.86241 0.8674 0.6373 0.0
H694 H 0.84855 0.90629 0.64981 0.0
H695 H 0.86226 0.87846 0.67853 0.0
C696 C 0.85988 0.83461 0.53501 0.0
N697 N 0.88023 0.82754 0.55893 0.0
N698 N 0.88374 0.85254 0.57721 0.0
C699 C 0.8662 0.87661 0.56461 0.0
C700 C 0.84988 0.86596 0.53758 0.0
C701 C 0.85557 0.81434 0.50619 0.0
H702 H 0.87901 0.80916 0.49559 0.0
H703 H 0.84404 0.7918 0.51308 0.0
H704 H 0.84081 0.82593 0.48787 0.0
O705 O 0.95156 0.82115 0.54248 0.0
O706 O 0.95636 0.85992 0.57788 0.0
H707 H 0.89172 0.9152 0.58609 0.0
H708 H 0.8637 0.92714 0.55611 0.0
C709 C 0.86816 0.91026 0.57563 0.0
H710 H 0.8497 0.91435 0.5938 0.0
H711 H 0.96899 0.90019 0.62464 0.0
O712 O 0.9053 0.76566 0.5261 0.0
C713 C 0.96564 0.8456 0.5532 0.0
Co714 Co 0.91498 0.26509 0.50152 0.0
Co715 Co 0.92041 0.21062 0.45388 0.0
C716 C 0.94058 0.27769 0.43561 0.0
O717 O 0.93187 0.28795 0.46266 0.0
O718 O 0.93496 0.2489 0.42822 0.0
C719 C 0.88695 0.31932 0.53363 0.0
O720 O 0.86992 0.32471 0.50817 0.0
C721 C 0.89714 0.16785 0.40515 0.0
C722 C 0.92976 0.12745 0.41058 0.0
C723 C 0.90244 0.13693 0.39501 0.0
N724 N 0.91944 0.17542 0.42641 0.0
N725 N 0.93952 0.15163 0.42877 0.0
C726 C 0.87131 0.19009 0.39545 0.0
H727 H 0.85338 0.19174 0.41457 0.0
H728 H 0.85979 0.18213 0.37319 0.0
H729 H 0.88133 0.21418 0.39218 0.0
C730 C 0.85965 0.22837 0.52414 0.0
N731 N 0.88006 0.23575 0.50034 0.0
N732 N 0.88312 0.21112 0.48154 0.0
C733 C 0.86509 0.18709 0.49341 0.0
C734 C 0.8493 0.19715 0.52091 0.0
C735 C 0.85583 0.24799 0.55339 0.0
H736 H 0.87932 0.25125 0.5646 0.0
H737 H 0.84612 0.27145 0.54692 0.0
H738 H 0.83977 0.23683 0.57089 0.0
O739 O 0.95138 0.24081 0.51717 0.0
O740 O 0.95617 0.20258 0.48124 0.0
H741 H 0.89133 0.14533 0.4818 0.0
H742 H 0.85126 0.13763 0.49543 0.0
C743 C 0.86646 0.15379 0.48136 0.0
H744 H 0.85822 0.1532 0.45654 0.0
H745 H 0.95882 0.15113 0.44423 0.0
O746 O 0.90672 0.29675 0.53393 0.0
C747 C 0.9654 0.21651 0.50617 0.0
Co748 Co 0.14094 0.79688 0.50554 0.0
Co749 Co 0.13833 0.85087 0.45736 0.0
C750 C 0.11659 0.78474 0.4389 0.0
O751 O 0.12408 0.77473 0.46635 0.0
O752 O 0.12372 0.81307 0.4311 0.0
C753 C 0.16999 0.74247 0.53399 0.0
O754 O 0.18681 0.74007 0.50794 0.0
C755 C 0.16164 0.89319 0.40832 0.0
C756 C 0.13028 0.93445 0.4148 0.0
C757 C 0.15672 0.92416 0.39826 0.0
N758 N 0.13994 0.88629 0.4304 0.0
N759 N 0.12059 0.91062 0.43343 0.0
C760 C 0.18641 0.87021 0.39761 0.0
H761 H 0.205 0.86802 0.41602 0.0
H762 H 0.1973 0.87786 0.37494 0.0
H763 H 0.17558 0.84642 0.39468 0.0
C764 C 0.19642 0.83245 0.52937 0.0
N765 N 0.17634 0.82549 0.50519 0.0
N766 N 0.17503 0.84969 0.48571 0.0
C767 C 0.19421 0.87299 0.49727 0.0
C768 C 0.20887 0.86282 0.52536 0.0
C769 C 0.19798 0.81363 0.55939 0.0
H770 H 0.17366 0.80877 0.56802 0.0
H771 H 0.20993 0.79077 0.55462 0.0
H772 H 0.21107 0.82618 0.57839 0.0
O773 O 0.10457 0.82137 0.52078 0.0
O774 O 0.10196 0.85887 0.48388 0.0
H775 H 0.17098 0.91618 0.48474 0.0
H776 H 0.21171 0.92133 0.49747 0.0
C777 C 0.19514 0.90587 0.48416 0.0
H778 H 0.20291 0.90503 0.45918 0.0
H779 H 0.10182 0.91164 0.4495 0.0
O780 O 0.14934 0.76412 0.5366 0.0
C781 C 0.09135 0.84551 0.50854 0.0
Co782 Co 0.14243 0.26223 0.55556 0.0
Co783 Co 0.13718 0.20787 0.60316 0.0
C784 C 0.11873 0.27544 0.62196 0.0
O785 O 0.12774 0.2856 0.59498 0.0
O786 O 0.1232 0.24638 0.62903 0.0
C787 C 0.17173 0.31506 0.52326 0.0
O788 O 0.18937 0.3191 0.54858 0.0
C789 C 0.15943 0.1678 0.65415 0.0
C790 C 0.13425 0.12322 0.64373 0.0
C791 C 0.15793 0.136 0.66263 0.0
N792 N 0.13892 0.17276 0.63049 0.0
N793 N 0.12304 0.14637 0.62515 0.0
C794 C 0.17974 0.19346 0.66784 0.0
H795 H 0.19642 0.20224 0.6495 0.0
H796 H 0.19287 0.18511 0.68902 0.0
H797 H 0.16451 0.21379 0.67457 0.0
C798 C 0.1975 0.22521 0.53204 0.0
N799 N 0.17699 0.23254 0.55579 0.0
N800 N 0.17394 0.20796 0.57459 0.0
C801 C 0.19203 0.18398 0.56272 0.0
C802 C 0.20796 0.19408 0.53532 0.0
C803 C 0.2015 0.24477 0.5028 0.0
H804 H 0.21237 0.26778 0.50915 0.0
H805 H 0.21668 0.23307 0.48487 0.0
H806 H 0.17794 0.24892 0.49213 0.0
O807 O 0.10464 0.23863 0.54147 0.0
O808 O 0.10071 0.19994 0.577 0.0
H809 H 0.16702 0.14036 0.56805 0.0
H810 H 0.20952 0.13588 0.56401 0.0
C811 C 0.19039 0.15063 0.57437 0.0
H812 H 0.1924 0.15035 0.60038 0.0
H813 H 0.10617 0.14356 0.60728 0.0
O814 O 0.15064 0.29365 0.52292 0.0
C815 C 0.09061 0.21446 0.55282 0.0
C816 C 0.18871 0.38603 0.47149 0.0
C817 C 0.17402 0.37745 0.4428 0.0
C818 C 0.18998 0.36493 0.49705 0.0
C819 C 0.17621 0.33472 0.49477 0.0
H820 H 0.19698 0.41007 0.47505 0.0
H821 H 0.19968 0.37317 0.51933 0.0
S822 S 0.13987 0.29857 0.42323 0.0
N823 N 0.14929 0.33488 0.41256 0.0
N824 N 0.15175 0.29551 0.46024 0.0
C825 C 0.16431 0.32477 0.46528 0.0
C826 C 0.16326 0.34607 0.43928 0.0
C827 C 0.89165 0.71437 0.44428 0.0
C828 C 0.88138 0.68279 0.4465 0.0
C829 C 0.8905 0.7345 0.47035 0.0
C830 C 0.87918 0.72391 0.49979 0.0
H831 H 0.90341 0.72318 0.42339 0.0
H832 H 0.90039 0.75805 0.46776 0.0
S833 S 0.84368 0.64538 0.51647 0.0
N834 N 0.85497 0.6433 0.47908 0.0
N835 N 0.85304 0.68141 0.52855 0.0
C836 C 0.86578 0.69354 0.50162 0.0
C837 C 0.86688 0.67291 0.47485 0.0
C838 C 0.16142 0.70893 0.61567 0.0
C839 C 0.17028 0.67709 0.61181 0.0
C840 C 0.16369 0.73033 0.59078 0.0
C841 C 0.17453 0.72077 0.56084 0.0
H842 H 0.14992 0.71718 0.63693 0.0
H843 H 0.15502 0.75416 0.59464 0.0
S844 S 0.20542 0.64143 0.53968 0.0
N845 N 0.19416 0.63797 0.57699 0.0
N846 N 0.1981 0.67851 0.52963 0.0
C847 C 0.18617 0.68985 0.55726 0.0
C848 C 0.18398 0.66791 0.58287 0.0
C849 C 0.8763 0.39186 0.585 0.0
C850 C 0.89058 0.3824 0.61358 0.0
C851 C 0.87293 0.37066 0.55965 0.0
C852 C 0.88416 0.33946 0.56203 0.0
H853 H 0.86977 0.4164 0.58144 0.0
H854 H 0.8636 0.37942 0.53744 0.0
S855 S 0.91945 0.30154 0.63307 0.0
N856 N 0.91316 0.33858 0.64353 0.0
N857 N 0.90625 0.2989 0.59646 0.0
C858 C 0.89586 0.32896 0.59138 0.0
C859 C 0.89922 0.35041 0.61709 0.0
C860 C 0.47978 0.19895 0.3478 0.0
C861 C 0.50294 0.17523 0.34525 0.0
C862 C 0.45543 0.19637 0.37029 0.0
C863 C 0.45434 0.17046 0.39108 0.0
H864 H 0.47933 0.21838 0.33108 0.0
H865 H 0.43674 0.21391 0.37058 0.0
S866 S 0.51081 0.10341 0.39482 0.0
N867 N 0.52424 0.12607 0.36595 0.0
N868 N 0.47903 0.12152 0.4086 0.0
C869 C 0.47841 0.14761 0.38975 0.0
C870 C 0.50266 0.14994 0.36668 0.0
C871 C 0.61526 0.89364 0.34638 0.0
C872 C 0.6124 0.88418 0.37815 0.0
C873 C 0.58961 0.89183 0.32576 0.0
C874 C 0.55995 0.88072 0.33606 0.0
H875 H 0.63632 0.90526 0.33773 0.0
H876 H 0.59266 0.90106 0.30202 0.0
S877 S 0.54168 0.84748 0.41519 0.0
N878 N 0.57903 0.85891 0.41769 0.0
N879 N 0.53033 0.85576 0.37869 0.0
C880 C 0.55751 0.86821 0.36675 0.0
C881 C 0.58385 0.86996 0.38786 0.0
C882 C 0.47034 0.888 0.72914 0.0
C883 C 0.49992 0.87739 0.71823 0.0
C884 C 0.44444 0.88989 0.70892 0.0
C885 C 0.447 0.88107 0.67694 0.0
H886 H 0.46759 0.89699 0.75301 0.0
H887 H 0.42351 0.90135 0.71803 0.0
S888 S 0.51744 0.84548 0.63843 0.0
N889 N 0.52919 0.85326 0.67494 0.0
N890 N 0.47998 0.8566 0.63656 0.0
C891 C 0.47545 0.86708 0.66665 0.0
C892 C 0.50206 0.86521 0.68739 0.0
C893 C 0.59335 0.16628 0.73294 0.0
C894 C 0.56351 0.17684 0.72276 0.0
C895 C 0.61884 0.1646 0.71212 0.0
C896 C 0.61552 0.17355 0.68026 0.0
H897 H 0.59666 0.15731 0.75675 0.0
H898 H 0.64013 0.15335 0.72067 0.0
S899 S 0.54407 0.20879 0.64345 0.0
N900 N 0.53318 0.20089 0.68018 0.0
N901 N 0.58152 0.19783 0.6407 0.0
C902 C 0.58676 0.18731 0.67064 0.0
C903 C 0.56063 0.18901 0.69199 0.0
C904 C 0.36596 0.49877 0.1899 0.0
C905 C 0.33538 0.49692 0.17694 0.0
C906 C 0.38645 0.47272 0.18852 0.0
C907 C 0.37683 0.44398 0.17457 0.0
H908 H 0.37495 0.52105 0.19894 0.0
H909 H 0.41081 0.47591 0.19599 0.0
S910 S 0.29666 0.42548 0.14304 0.0
N911 N 0.29479 0.46282 0.15415 0.0
N912 N 0.33292 0.41415 0.15177 0.0
C913 C 0.34509 0.44093 0.16485 0.0
C914 C 0.32445 0.46743 0.16589 0.0
C915 C 0.34991 0.61639 0.89286 0.0
C916 C 0.38219 0.61296 0.88554 0.0
C917 C 0.32917 0.59088 0.89042 0.0
C918 C 0.33986 0.56089 0.88076 0.0
H919 H 0.34087 0.6378 0.90351 0.0
H920 H 0.30497 0.59427 0.89824 0.0
S921 S 0.42074 0.54105 0.85319 0.0
N922 N 0.42295 0.57866 0.86378 0.0
N923 N 0.38361 0.53024 0.85931 0.0
C924 C 0.37121 0.55786 0.87017 0.0
C925 C 0.39249 0.58403 0.87264 0.0
C926 C 0.73087 0.46748 0.89186 0.0
C927 C 0.72013 0.49729 0.88181 0.0
C928 C 0.71034 0.44179 0.89393 0.0
C929 C 0.67823 0.44476 0.88572 0.0
H930 H 0.75492 0.46433 0.90023 0.0
H931 H 0.71944 0.42065 0.90496 0.0
S932 S 0.63982 0.51606 0.85192 0.0
N933 N 0.67663 0.52732 0.85907 0.0
N934 N 0.63774 0.47849 0.86259 0.0
C935 C 0.66799 0.47351 0.87239 0.0
C936 C 0.68902 0.49992 0.87042 0.0
C937 C 0.67412 0.58783 0.19027 0.0
C938 C 0.68302 0.61642 0.17559 0.0
C939 C 0.6951 0.56219 0.19189 0.0
C940 C 0.72548 0.56431 0.17851 0.0
H941 H 0.64994 0.58439 0.19818 0.0
H942 H 0.68662 0.53995 0.20146 0.0
S943 S 0.76247 0.63558 0.14258 0.0
N944 N 0.72607 0.64642 0.15142 0.0
N945 N 0.76519 0.59861 0.15461 0.0
C946 C 0.73574 0.59373 0.16675 0.0
C947 C 0.71457 0.6198 0.16532 0.0
C948 C 1.00529 0.76152 0.68414 0.0
C949 C 1.01195 0.72943 0.67756 0.0
C950 C 0.98139 0.7785 0.66776 0.0
C951 C 0.96267 0.7644 0.64373 0.0
H952 H 0.01901 0.77383 0.70201 0.0
H953 H 0.97821 0.80328 0.6735 0.0
S954 S 0.96871 0.68002 0.61892 0.0
N955 N 0.99611 0.68365 0.64661 0.0
N956 N 0.95216 0.71527 0.61546 0.0
C957 C 0.96869 0.73201 0.63743 0.0
C958 C 0.99294 0.71472 0.6543 0.0
C959 C 0.05647 0.29978 0.68466 0.0
C960 C 0.04981 0.3318 0.67783 0.0
C961 C 0.07965 0.28237 0.66768 0.0
C962 C 0.09761 0.29599 0.64283 0.0
H963 H 0.04324 0.28784 0.70311 0.0
H964 H 0.08282 0.25764 0.67359 0.0
S965 S 0.09148 0.38009 0.61725 0.0
N966 N 0.06498 0.37704 0.64586 0.0
N967 N 0.10763 0.34467 0.61369 0.0
C968 C 0.0917 0.32835 0.63638 0.0
C969 C 0.06816 0.34606 0.65381 0.0
C970 C 0.97402 0.3274 0.42594 0.0
C971 C 0.96244 0.29781 0.41503 0.0
C972 C 0.99755 0.34474 0.40929 0.0
C973 C 1.01093 0.33348 0.3808 0.0
H974 H 0.96526 0.33714 0.44799 0.0
H975 H 1.00512 0.36735 0.41876 0.0
S976 S 0.98937 0.25794 0.34117 0.0
N977 N 0.96661 0.25863 0.37295 0.0
N978 N 1.01048 0.29086 0.34232 0.0
C979 C 0.99943 0.30423 0.36942 0.0
C980 C 0.97543 0.28659 0.38624 0.0
C981 C 0.08295 0.73529 0.42872 0.0
C982 C 0.09425 0.76517 0.41833 0.0
C983 C 0.05909 0.71832 0.41212 0.0
C984 C 0.04494 0.73039 0.38438 0.0
H985 H 0.09232 0.72495 0.45021 0.0
H986 H 0.05191 0.69536 0.42098 0.0
S987 S 0.06551 0.8069 0.34628 0.0
N988 N 0.08899 0.80546 0.37751 0.0
N989 N 0.04447 0.77391 0.34703 0.0
C990 C 0.05612 0.75994 0.37354 0.0
C991 C 0.08052 0.77715 0.39023 0.0
C992 C 0.67259 0.97393 0.77096 0.0
C993 C 0.64423 0.96058 0.75898 0.0
C994 C 0.69002 0.99716 0.75401 0.0
C995 C 0.67983 1.00881 0.7244 0.0
H996 H 0.68123 0.96683 0.79403 0.0
H997 H 0.71153 1.00647 0.76447 0.0
S998 S 0.60906 0.98046 0.68056 0.0
N999 N 0.60817 0.96011 0.71393 0.0
N1000 N 0.64076 1.0033 0.6827 0.0
C1001 C 0.65217 0.99514 0.71164 0.0
C1002 C 0.6345 0.9713 0.72869 0.0
C1003 C 0.4299 0.08327 0.73408 0.0
C1004 C 0.41914 0.09482 0.76373 0.0
C1005 C 0.4133 0.05952 0.71695 0.0
C1006 C 0.38509 0.0458 0.72857 0.0
H1007 H 0.45172 0.09233 0.72408 0.0
H1008 H 0.42251 0.05208 0.69421 0.0
S1009 S 0.34607 0.06691 0.80448 0.0
N1010 N 0.3776 0.09007 0.80341 0.0
N1011 N 0.34708 0.04581 0.77156 0.0
C1012 C 0.37393 0.05717 0.75792 0.0
C1013 C 0.39067 0.08142 0.77531 0.0
C1014 C 0.66766 0.08047 0.28374 0.0
C1015 C 0.64073 0.0956 0.29676 0.0
C1016 C 0.6849 0.05709 0.3006 0.0
C1017 C 0.67613 0.04732 0.33135 0.0
H1018 H 0.67515 0.08613 0.25988 0.0
H1019 H 0.70518 0.04625 0.28926 0.0
S1020 S 0.60957 0.08092 0.37796 0.0
N1021 N 0.60753 0.09971 0.34374 0.0
N1022 N 0.64003 0.0566 0.37505 0.0
C1023 C 0.64997 0.06284 0.3451 0.0
C1024 C 0.63235 0.08663 0.32799 0.0
C1025 C 0.40875 0.99343 0.34426 0.0
C1026 C 0.38416 1.01177 0.33097 0.0
C1027 C 0.42467 0.96955 0.32665 0.0
C1028 C 0.41652 0.96223 0.29492 0.0
H1029 H 0.4156 0.99724 0.36867 0.0
H1030 H 0.4438 0.95688 0.33806 0.0
S1031 S 0.35295 1.00282 0.24928 0.0
N1032 N 0.35217 0.02044 0.28418 0.0
N1033 N 0.38116 0.97588 0.25148 0.0
C1034 C 0.39143 0.98011 0.28168 0.0
C1035 C 0.37555 1.00458 0.29952 0.0
C1036 C 0.76032 0.68301 1.0043 0.0
C1037 C 0.72879 0.67539 1.0125 0.0
C1038 C 0.77722 0.66602 0.98075 0.0
C1039 C 0.76353 0.64043 0.96389 0.0
H1040 H 0.77221 0.70223 0.01647 0.0
H1041 H 0.80161 0.67263 0.97631 0.0
S1042 S 0.68048 0.61249 0.97436 0.0
N1043 N 0.68387 0.64174 1.00013 0.0
N1044 N 0.71526 0.60964 0.95668 0.0
C1045 C 0.73162 0.63314 0.9714 0.0
C1046 C 0.71446 0.65053 0.99538 0.0
C1047 C 0.7756 0.38962 0.08309 0.0
C1048 C 0.76268 0.41644 0.09849 0.0
C1049 C 0.75879 0.37274 0.05938 0.0
C1050 C 0.72818 0.38177 0.04949 0.0
H1051 H 0.79935 0.38185 0.08884 0.0
H1052 H 0.77004 0.35245 0.04845 0.0
S1053 S 0.68198 0.44849 0.08324 0.0
N1054 N 0.71604 0.45007 0.10243 0.0
N1055 N 0.68479 0.41821 0.05863 0.0
C1056 C 0.71457 0.40796 0.0651 0.0
C1057 C 0.73163 0.42521 0.08927 0.0
C1058 C 0.34281 0.65047 0.06044 0.0
C1059 C 0.33334 0.6808 0.05013 0.0
C1060 C 0.32558 0.63345 0.08378 0.0
C1061 C 0.29787 0.64577 0.09819 0.0
H1062 H 0.36389 0.63978 0.05053 0.0
H1063 H 0.3338 0.61 0.09003 0.0
S1064 S 0.26347 0.72484 0.08036 0.0
N1065 N 0.29471 0.7227 0.05693 0.0
N1066 N 0.26262 0.69122 0.1003 0.0
C1067 C 0.28857 0.6764 0.08841 0.0
C1068 C 0.30617 0.69369 0.06471 0.0
C1069 C 0.32521 0.42782 0.97465 0.0
C1070 C 0.2959 0.417 0.96225 0.0
C1071 C 0.34246 0.4105 0.99773 0.0
C1072 C 0.33146 0.38131 1.00978 0.0
H1073 H 0.33477 0.45033 0.96695 0.0
H1074 H 0.36477 0.42005 1.00604 0.0
S1075 S 0.25674 0.34153 0.98557 0.0
N1076 N 0.25727 0.37424 0.96418 0.0
N1077 N 0.28938 0.34226 1.00711 0.0
C1078 C 0.30254 0.36996 0.99737 0.0
C1079 C 0.28494 0.38754 0.97389 0.0
C1080 C 0.68956 0.88748 0.97029 0.0
C1081 C 0.6755 0.87752 0.94173 0.0
C1082 C 0.69168 0.86707 0.99636 0.0
C1083 C 0.67944 0.83619 0.99472 0.0
H1084 H 0.69665 0.91197 0.97331 0.0
H1085 H 0.70079 0.87632 0.0185 0.0
S1086 S 0.64515 0.79672 0.92388 0.0
N1087 N 0.6529 0.83317 0.91241 0.0
N1088 N 0.65705 0.79507 0.96098 0.0
C1089 C 0.66822 0.82499 0.96539 0.0
C1090 C 0.66627 0.8456 0.93891 0.0
C1091 C 0.39274 0.23168 0.96803 0.0
C1092 C 0.38128 0.22153 0.99755 0.0
C1093 C 0.3946 0.21098 0.94247 0.0
C1094 C 0.38493 0.17926 0.94536 0.0
H1095 H 0.40226 0.25533 0.96506 0.0
H1096 H 0.40655 0.21949 0.92156 0.0
S1097 S 0.34743 0.14267 1.01583 0.0
N1098 N 0.35578 0.17921 0.02711 0.0
N1099 N 0.35914 0.13994 0.9786 0.0
C1100 C 0.37034 0.16972 0.97376 0.0
C1101 C 0.36846 0.19096 0.99998 0.0
C1102 C 0.66914 0.22979 0.09242 0.0
C1103 C 0.67928 0.21903 0.0626 0.0
C1104 C 0.6657 0.20901 0.11773 0.0
C1105 C 0.67258 0.17665 0.11432 0.0
H1106 H 0.66167 0.25411 0.09575 0.0
H1107 H 0.65463 0.21815 0.13889 0.0
S1108 S 0.70608 0.13785 0.04303 0.0
N1109 N 0.70076 0.17506 0.03227 0.0
N1110 N 0.69459 0.13571 0.08036 0.0
C1111 C 0.68604 0.16626 0.08566 0.0
C1112 C 0.68944 0.18755 0.05967 0.0
C1113 C 0.40662 0.86604 0.05522 0.0
C1114 C 0.38216 0.84356 0.05499 0.0
C1115 C 0.40874 0.88845 0.07934 0.0
C1116 C 0.38681 0.88865 0.10433 0.0
H1117 H 0.425 0.86547 0.0373 0.0
H1118 H 0.42885 0.90444 0.07945 0.0
S1119 S 0.31727 0.83604 0.11355 0.0
N1120 N 0.33426 0.82407 0.08038 0.0
N1121 N 0.33897 0.86589 0.12672 0.0
C1122 C 0.36142 0.86726 0.10373 0.0
C1123 C 0.35886 0.84476 0.07867 0.0
C1124 C 0.99923 0.69386 0.87253 0.0
C1125 C 0.9985 0.683 0.8411 0.0
C1126 C 0.97316 0.68927 0.89259 0.0
C1127 C 0.9455 0.67407 0.88173 0.0
H1128 H 0.02078 0.70374 0.88239 0.0
H1129 H 0.97555 0.69543 0.91739 0.0
S1130 S 0.93007 0.64612 0.79968 0.0
N1131 N 0.96636 0.66046 0.79879 0.0
N1132 N 0.91794 0.65147 0.83634 0.0
C1133 C 0.94347 0.66603 0.84948 0.0
C1134 C 0.96991 0.67058 0.82918 0.0
C1135 C 0.08788 0.38791 0.83177 0.0
C1136 C 0.05882 0.3765 0.8434 0.0
C1137 C 0.11371 0.3924 0.85174 0.0
C1138 C 0.11172 0.38518 0.88413 0.0
H1139 H 0.09019 0.39555 0.8074 0.0
H1140 H 0.13406 0.4044 0.84196 0.0
S1141 S 0.04306 0.34874 0.92511 0.0
N1142 N 0.03083 0.35378 0.8883 0.0
N1143 N 0.07999 0.36171 0.92607 0.0
C1144 C 0.08391 0.37063 0.89541 0.0
C1145 C 0.05733 0.36626 0.87497 0.0
C1146 C 0.96881 0.39194 0.23315 0.0
C1147 C 0.99876 0.382 0.2227 0.0
C1148 C 0.94287 0.39193 0.21289 0.0
C1149 C 0.94581 0.38196 0.18127 0.0
H1150 H 0.96565 0.40174 0.25665 0.0
H1151 H 0.92151 0.40285 0.22161 0.0
S1152 S 0.0176 0.34741 0.14432 0.0
N1153 N 0.02899 0.35717 0.18047 0.0
N1154 N 0.97976 0.35705 0.14198 0.0
C1155 C 0.97479 0.36861 0.17159 0.0
C1156 C 1.00141 0.36863 0.1924 0.0
C1157 C 0.08795 0.69231 0.17606 0.0
C1158 C 0.11705 0.67859 0.18485 0.0
C1159 C 0.06213 0.69264 0.19691 0.0
C1160 C 0.06457 0.67891 0.22707 0.0
H1161 H 0.08432 0.70037 0.15198 0.0
H1162 H 0.0396 0.7015 0.18847 0.0
S1163 S 0.1371 0.64574 0.26404 0.0
N1164 N 0.14784 0.65551 0.22786 0.0
N1165 N 0.09956 0.65595 0.26663 0.0
C1166 C 0.09438 0.66821 0.23731 0.0
C1167 C 0.12066 0.66821 0.21631 0.0
C1168 C 0.88923 0.98024 0.64859 0.0
C1169 C 0.89055 0.9558 0.67108 0.0
C1170 C 0.86623 1.00376 0.65061 0.0
C1171 C 0.84428 1.00394 0.67551 0.0
H1172 H 0.90478 0.98007 0.62818 0.0
H1173 H 0.86482 0.02125 0.6319 0.0
S1174 S 0.83956 0.94672 0.74175 0.0
N1175 N 0.86933 0.9339 0.71979 0.0
N1176 N 0.82637 0.97914 0.72426 0.0
C1177 C 0.84654 0.98085 0.69928 0.0
C1178 C 0.86965 0.95639 0.69684 0.0
C1179 C 0.84724 0.11649 0.39277 0.0
C1180 C 0.87895 0.11393 0.38296 0.0
C1181 C 0.82683 0.09063 0.39129 0.0
C1182 C 0.83726 0.06108 0.38012 0.0
H1183 H 0.83851 0.13747 0.40442 0.0
H1184 H 0.80315 0.09346 0.40078 0.0
S1185 S 0.91622 0.04347 0.34613 0.0
N1186 N 0.91854 0.08087 0.35739 0.0
N1187 N 0.87988 0.0318 0.35482 0.0
C1188 C 0.86785 0.0589 0.36728 0.0
C1189 C 0.88877 0.08544 0.36873 0.0
C1190 C 0.23303 0.96874 0.39164 0.0
C1191 C 0.22274 0.99849 0.38091 0.0
C1192 C 0.2122 0.94329 0.39386 0.0
C1193 C 0.18025 0.94645 0.38511 0.0
H1194 H 0.25694 0.96551 0.40041 0.0
H1195 H 0.22086 0.9222 0.40536 0.0
S1196 S 0.14309 0.01741 0.34932 0.0
N1197 N 0.17987 0.02846 0.35687 0.0
N1198 N 0.14048 0.98009 0.36068 0.0
C1199 C 0.17051 0.97503 0.37109 0.0
C1200 C 0.19182 1.00119 0.36898 0.0
C1201 C 0.17477 0.08702 0.69009 0.0
C1202 C 0.18334 0.11577 0.67553 0.0
C1203 C 0.19602 0.06159 0.69158 0.0
C1204 C 0.22634 0.06409 0.67816 0.0
H1205 H 0.15062 0.08328 0.69798 0.0
H1206 H 0.18779 0.03921 0.70104 0.0
S1207 S 0.26259 0.13593 0.64264 0.0
N1208 N 0.2261 0.14637 0.65159 0.0
N1209 N 0.26567 0.0989 0.6544 0.0
C1210 C 0.23628 0.09367 0.66654 0.0
C1211 C 0.21486 0.11954 0.6653 0.0
C1212 C 0.47346 0.23374 0.13277 0.0
C1213 C 0.46011 0.26239 0.14408 0.0
C1214 C 0.49648 0.21655 0.15021 0.0
C1215 C 0.50757 0.227 0.17997 0.0
H1216 H 0.4666 0.22469 0.10977 0.0
H1217 H 0.50554 0.19473 0.14027 0.0
S1218 S 0.48033 0.29965 0.22138 0.0
N1219 N 0.45988 0.29965 0.18804 0.0
N1220 N 0.50268 0.26762 0.22028 0.0
C1221 C 0.49406 0.25514 0.1919 0.0
C1222 C 0.47064 0.27269 0.17419 0.0
C1223 C 0.5784 0.78253 0.16531 0.0
C1224 C 0.59697 0.7965 0.1411 0.0
C1225 C 0.55447 0.79954 0.18162 0.0
C1226 C 0.54753 0.83144 0.17459 0.0
H1227 H 0.58181 0.75786 0.17135 0.0
H1228 H 0.54104 0.78747 0.19983 0.0
S1229 S 0.59059 0.88067 0.11583 0.0
N1230 N 0.60729 0.84547 0.11254 0.0
N1231 N 0.56318 0.87711 0.14352 0.0
C1232 C 0.56647 0.8461 0.15131 0.0
C1233 C 0.59081 0.8288 0.13457 0.0
C1234 C 0.47562 0.82528 0.9237 0.0
C1235 C 0.46385 0.79545 0.91368 0.0
C1236 C 0.49918 0.84202 0.90651 0.0
C1237 C 0.51251 0.82984 0.87839 0.0
H1238 H 0.4669 0.83575 0.94542 0.0
H1239 H 0.50686 0.86486 0.9153 0.0
S1240 S 0.49092 0.753 0.84134 0.0
N1241 N 0.46804 0.75483 0.87301 0.0
N1242 N 0.51204 0.78594 0.84136 0.0
C1243 C 0.50091 0.80027 0.86792 0.0
C1244 C 0.47681 0.78327 0.88528 0.0
C1245 C 0.56018 0.25602 0.8746 0.0
C1246 C 0.55015 0.22548 0.88379 0.0
C1247 C 0.58354 0.27307 0.89174 0.0
C1248 C 0.59848 0.26043 0.91895 0.0
H1249 H 0.54958 0.26704 0.85403 0.0
H1250 H 0.58941 0.29676 0.88386 0.0
S1251 S 0.58293 0.1799 0.95135 0.0
N1252 N 0.55878 0.18242 0.9207 0.0
N1253 N 0.60203 0.21403 0.95295 0.0
C1254 C 0.58924 0.22939 0.92777 0.0
C1255 C 0.56538 0.21213 0.9103 0.0
C1256 C 0.16825 0.48229 0.27553 0.0
C1257 C 0.14146 0.46668 0.26271 0.0
C1258 C 0.18521 0.50574 0.25842 0.0
C1259 C 0.17628 0.51513 0.22761 0.0
H1260 H 0.17592 0.47689 0.29938 0.0
H1261 H 0.20547 0.51686 0.26959 0.0
S1262 S 0.10975 0.48055 0.1816 0.0
N1263 N 0.10805 0.46192 0.21592 0.0
N1264 N 0.14 0.50524 0.18421 0.0
C1265 C 0.15014 0.49928 0.21413 0.0
C1266 C 0.13284 0.47537 0.23146 0.0
C1267 C 0.89132 0.58036 0.2761 0.0
C1268 C 0.91835 0.59579 0.26357 0.0
C1269 C 0.87491 0.55637 0.25919 0.0
C1270 C 0.88465 0.54617 0.22886 0.0
H1271 H 0.88296 0.5864 0.29957 0.0
H1272 H 0.85433 0.54558 0.27006 0.0
S1273 S 0.95234 0.57964 0.18379 0.0
N1274 N 0.95306 0.59925 0.21764 0.0
N1275 N 0.92209 0.55492 0.18622 0.0
C1276 C 0.91112 0.56169 0.21569 0.0
C1277 C 0.92789 0.58617 0.23285 0.0
C1278 C 0.13563 0.59025 0.82745 0.0
C1279 C 0.14512 0.6002 0.79682 0.0
C1280 C 0.15188 0.56609 0.8443 0.0
C1281 C 0.17858 0.55052 0.83153 0.0
H1282 H 0.1149 0.60067 0.83834 0.0
H1283 H 0.14354 0.5597 0.86769 0.0
S1284 S 0.21432 0.56762 0.75305 0.0
N1285 N 0.18404 0.59225 0.7551 0.0
N1286 N 0.21413 0.54753 0.78657 0.0
C1287 C 0.18865 0.56052 0.8013 0.0
C1288 C 0.17213 0.58499 0.78409 0.0
C1289 C 0.87389 0.5003 0.80142 0.0
C1290 C 0.88171 0.50849 0.83288 0.0
C1291 C 0.8907 0.47667 0.78442 0.0
C1292 C 0.91602 0.45946 0.79807 0.0
H1293 H 0.85473 0.51259 0.78964 0.0
H1294 H 0.88401 0.47226 0.76006 0.0
S1295 S 0.94451 0.47018 0.88089 0.0
N1296 N 0.91551 0.49616 0.87757 0.0
N1297 N 0.94691 0.45219 0.84623 0.0
C1298 C 0.92341 0.46693 0.82997 0.0
C1299 C 0.90642 0.49119 0.84712 0.0
C1300 C 0.25716 0.18426 0.5017 0.0
C1301 C 0.22636 0.17498 0.5109 0.0
C1302 C 0.27455 0.16766 0.47822 0.0
C1303 C 0.26206 0.14088 0.46232 0.0
H1304 H 0.26811 0.20454 0.51301 0.0
H1305 H 0.29837 0.17564 0.47299 0.0
S1306 S 0.18118 0.10815 0.47572 0.0
N1307 N 0.18337 0.13825 0.50061 0.0
N1308 N 0.21562 0.10698 0.4572 0.0
C1309 C 0.23085 0.13186 0.47084 0.0
C1310 C 0.21322 0.14879 0.49482 0.0
C1311 C 0.21716 0.91012 0.56255 0.0
C1312 C 0.22825 0.88147 0.54938 0.0
C1313 C 0.23469 0.92699 0.58579 0.0
C1314 C 0.26426 0.9161 0.59733 0.0
H1315 H 0.19459 0.91959 0.55494 0.0
H1316 H 0.22512 0.94919 0.59433 0.0
S1317 S 0.30353 0.84168 0.57113 0.0
N1318 N 0.27054 0.84273 0.55016 0.0
N1319 N 0.30314 0.87376 0.5935 0.0
C1320 C 0.27523 0.88707 0.58466 0.0
C1321 C 0.25741 0.87004 0.56094 0.0
C1322 C 0.7841 0.16921 0.5789 0.0
C1323 C 0.79756 0.14294 0.59473 0.0
C1324 C 0.80074 0.18618 0.55513 0.0
C1325 C 0.83172 0.17782 0.5457 0.0
H1326 H 0.76007 0.17634 0.58427 0.0
H1327 H 0.78907 0.20596 0.54377 0.0
S1328 S 0.87937 0.11303 0.58104 0.0
N1329 N 0.84509 0.11075 0.59976 0.0
N1330 N 0.87603 0.14283 0.55598 0.0
C1331 C 0.84587 0.15231 0.56187 0.0
C1332 C 0.82896 0.13493 0.58602 0.0
C1333 C 0.84373 0.91004 0.49612 0.0
C1334 C 0.83076 0.88431 0.51313 0.0
C1335 C 0.82632 0.9262 0.47231 0.0
C1336 C 0.79511 0.91723 0.46372 0.0
H1337 H 0.86775 0.91764 0.50099 0.0
H1338 H 0.83744 0.94621 0.46076 0.0
S1339 S 0.75072 0.8502 0.50004 0.0
N1340 N 0.78498 0.85015 0.51889 0.0
N1341 N 0.75269 0.87959 0.47435 0.0
C1342 C 0.78228 0.89092 0.4801 0.0
C1343 C 0.79991 0.87477 0.50454 0.0
C1344 C 0.05921 0.52517 0.35861 0.0
C1345 C 0.03795 0.49984 0.35455 0.0
C1346 C 0.0483 0.5563 0.3589 0.0
C1347 C 1.01586 0.56257 0.35628 0.0
H1348 H 0.08456 0.52113 0.35873 0.0
H1349 H 0.06532 0.57553 0.35931 0.0
S1350 S 0.95059 0.50405 0.3501 0.0
N1351 N 0.98321 0.48253 0.35106 0.0
N1352 N 0.96231 0.54126 0.35305 0.0
C1353 C 0.99419 0.5373 0.35541 0.0
C1354 C 1.00538 0.50571 0.35416 0.0
C1355 C 0.0343 0.54689 0.75179 0.0
C1356 C 0.03841 0.56321 0.72314 0.0
C1357 C 0.02692 0.51486 0.75201 0.0
C1358 C 0.02278 0.49814 0.72358 0.0
H1359 H 0.03768 0.55866 0.77435 0.0
H1360 H 0.02356 0.50339 0.77471 0.0
S1361 S 0.03054 0.53008 0.64224 0.0
N1362 N 0.03812 0.56057 0.66559 0.0
N1363 N 0.02299 0.49994 0.66601 0.0
C1364 C 0.0265 0.51413 0.69469 0.0
C1365 C 0.03465 0.54681 0.69446 0.0
C1366 C 0.35635 0.06077 0.52269 0.0
C1367 C 0.35351 0.03959 0.49714 0.0
C1368 C 0.35579 0.04971 0.55378 0.0
C1369 C 0.35351 0.01721 0.55988 0.0
H1370 H 0.35638 0.08612 0.51873 0.0
H1371 H 0.35559 0.06664 0.57308 0.0
S1372 S 0.34979 0.95218 0.50095 0.0
N1373 N 0.35103 0.9849 0.47958 0.0
N1374 N 0.35144 0.96377 0.53827 0.0
C1375 C 0.3535 0.99568 0.5345 0.0
C1376 C 0.35312 1.007 0.50291 0.0
C1377 C 0.705 1.00943 0.55233 0.0
C1378 C 0.7085 0.04172 0.55892 0.0
C1379 C 0.70319 0.99896 0.52108 0.0
C1380 C 0.70598 0.02053 0.49588 0.0
H1381 H 0.70535 0.99216 0.57129 0.0
H1382 H 0.70251 0.97368 0.51666 0.0
S1383 S 0.71199 0.10771 0.50118 0.0
N1384 N 0.71116 0.0955 0.53831 0.0
N1385 N 0.70925 0.07541 0.47925 0.0
C1386 C 0.70723 0.05298 0.50222 0.0
C1387 C 0.70813 0.06373 0.534 0.0
C1388 C 0.50692 0.35338 1.01129 0.0
C1389 C 0.50001 0.34981 0.04348 0.0
C1390 C 0.53829 0.35389 1.00102 0.0
C1391 C 0.56327 0.34969 0.02265 0.0
H1392 H 0.48803 0.35426 0.99394 0.0
H1393 H 0.54284 0.35494 0.97578 0.0
S1394 S 0.55716 0.34233 0.10968 0.0
N1395 N 0.52016 0.34508 0.09728 0.0
N1396 N 0.5794 0.34462 0.07758 0.0
C1397 C 0.55667 0.34804 0.05504 0.0
C1398 C 0.52482 0.34845 0.0656 0.0
C1399 C 0.53883 0.70308 0.05839 0.0
C1400 C 0.56406 0.70804 0.0372 0.0
C1401 C 0.50756 0.70508 0.04804 0.0
C1402 C 0.50099 0.71093 1.01613 0.0
H1403 H 0.54317 0.70035 0.08354 0.0
H1404 H 0.48853 0.70352 0.06519 0.0
S1405 S 0.5587 0.72125 0.9508 0.0
N1406 N 0.58068 0.71629 0.98278 0.0
N1407 N 0.52156 0.71861 0.96284 0.0
C1408 C 0.52594 0.71307 0.99425 0.0
C1409 C 0.55773 0.71196 1.00494 0.0
C1410 C 0.54992 0.05142 0.85621 0.0
C1411 C 0.51798 0.05842 0.85105 0.0
C1412 C 0.56029 0.02011 0.85544 0.0
C1413 C 0.53908 0.99537 0.84831 0.0
H1414 H 0.56709 0.07028 0.85929 0.0
H1415 H 0.58543 1.01558 0.85787 0.0
S1416 S 0.45261 1.00181 0.83554 0.0
N1417 N 0.46469 0.03856 0.84142 0.0
N1418 N 0.48458 0.97952 0.83865 0.0
C1419 C 0.50679 1.002 0.84496 0.0
C1420 C 0.49611 0.03373 0.84665 0.0
C1421 C 0.54753 1.00411 0.20471 0.0
C1422 C 0.51516 0.99711 0.20623 0.0
C1423 C 0.5578 0.0355 0.2053 0.0
C1424 C 0.53592 0.06036 0.20857 0.0
H1425 H 0.56493 0.98527 0.20471 0.0
H1426 H 0.58306 0.04013 0.20587 0.0
S1427 S 0.44856 0.05411 0.21064 0.0
N1428 N 0.46113 0.01719 0.20805 0.0
N1429 N 0.48076 0.07638 0.21057 0.0
C1430 C 0.50348 0.05372 0.20814 0.0
C1431 C 0.49298 0.02189 0.2066 0.0
C1432 C 0.85592 0.54683 0.05461 0.0
C1433 C 0.85242 0.51461 0.06139 0.0
C1434 C 0.85603 0.55723 0.0233 0.0
C1435 C 0.85149 0.5357 0.99827 0.0
H1436 H 0.85704 0.56411 0.07356 0.0
H1437 H 0.8571 0.58249 0.01885 0.0
S1438 S 0.84393 0.44866 1.00399 0.0
N1439 N 0.84724 0.4609 0.041 0.0
N1440 N 0.84601 0.48086 0.98191 0.0
C1441 C 0.84979 0.50329 1.0047 0.0
C1442 C 0.85063 0.4926 0.03648 0.0
C1443 C 0.20518 0.50216 0.02312 0.0
C1444 C 0.20882 0.52331 0.99769 0.0
C1445 C 0.20538 0.51318 0.05425 0.0
C1446 C 0.20808 0.54563 0.06045 0.0
H1447 H 0.20477 0.47681 0.01909 0.0
H1448 H 0.20496 0.49625 0.07351 0.0
S1449 S 0.21394 0.61064 1.00178 0.0
N1450 N 0.21252 0.57795 0.98031 0.0
N1451 N 0.21144 0.59905 0.03904 0.0
C1452 C 0.20891 0.56718 0.03514 0.0
C1453 C 0.20965 0.55588 1.00355 0.0
C1454 C 0.02192 0.85769 0.56188 0.0
C1455 C 0.99664 0.85365 0.54056 0.0
C1456 C 0.05315 0.85711 0.55117 0.0
C1457 C 0.05961 0.85364 0.51887 0.0
H1458 H 0.01768 0.85864 0.58717 0.0
H1459 H 0.07227 0.85777 0.56828 0.0
S1460 S 1.00151 0.84653 0.45342 0.0
N1461 N 0.97973 0.8488 0.48583 0.0
N1462 N 0.03868 0.84917 0.46533 0.0
C1463 C 0.03449 0.85247 0.49709 0.0
C1464 C 1.00278 0.8521 0.50807 0.0
C1465 C 0.05285 0.20461 0.50929 0.0
C1466 C 0.05884 0.20727 0.54177 0.0
C1467 C 0.02178 0.20447 0.49808 0.0
C1468 C 0.99619 0.20813 0.51908 0.0
H1469 H 0.07225 0.20413 0.49248 0.0
H1470 H 0.01793 0.20409 0.47271 0.0
S1471 S 0.99976 0.2134 0.60642 0.0
N1472 N 0.0371 0.21078 0.59505 0.0
N1473 N 0.97848 0.21197 0.57362 0.0
C1474 C 1.00185 0.209 0.55168 0.0
C1475 C 0.03338 0.2082 0.56316 0.0
loop_
_geom_bond_atom_site_label_1
_geom_bond_atom_site_label_2
_geom_bond_distance
_geom_bond_site_symmetry_2
_ccdc_geom_bond_type
Co0 O3 1.970 . S
Co0 N17 1.989 1_455 S
Co0 O25 1.967 . S
Co0 O32 1.920 1_455 S
Co1 O4 1.966 . S
Co1 N10 2.022 . S
Co1 N18 1.993 . S
Co1 O26 1.941 . S
C2 O3 1.258 . S
C2 O4 1.263 . S
O3 Co0 1.970 . S
O3 C2 1.258 . S
O4 Co1 1.966 . S
O4 C2 1.263 . S
C5 O6 1.235 . S
C5 O32 1.289 . S
O6 C5 1.235 . S
C7 C9 1.400 . S
C7 N10 1.351 . S
C7 C12 1.501 . S
C8 C9 1.387 . S
C8 N11 1.341 . S
C9 C7 1.400 . S
C9 C8 1.387 . S
N10 Co1 2.022 . S
N10 C7 1.351 . S
N10 N11 1.365 . S
N11 C8 1.341 . S
N11 N10 1.365 . S
N11 H31 0.862 . S
C12 C7 1.501 . S
C12 H13 0.961 . S
C12 H14 0.961 . S
C12 H15 0.960 . S
H13 C12 0.961 . S
H14 C12 0.961 . S
H15 C12 0.960 . S
C16 N17 1.342 . S
C16 C20 1.401 . S
C16 C21 1.499 . S
N17 Co0 1.989 1_655 S
N17 C16 1.342 . S
N17 N18 1.388 1_655 S
N18 Co1 1.993 . S
N18 N17 1.388 1_455 S
N18 C19 1.346 . S
C19 N18 1.346 . S
C19 C20 1.396 1_455 S
C19 C29 1.510 . S
C20 C16 1.401 . S
C20 C19 1.396 1_655 S
C21 C16 1.499 . S
C21 H22 0.959 . S
C21 H23 0.960 . S
C21 H24 0.961 . S
H22 C21 0.959 . S
H23 C21 0.960 . S
H24 C21 0.961 . S
O25 Co0 1.967 . S
O25 C33 1.258 . S
O26 Co1 1.941 . S
O26 C33 1.266 . S
H27 C29 0.959 . S
H28 C29 0.961 . S
C29 C19 1.510 . S
C29 H27 0.959 . S
C29 H28 0.961 . S
C29 H30 0.960 . S
H30 C29 0.960 . S
H31 N11 0.862 . S
O32 Co0 1.920 1_655 S
O32 C5 1.289 . S
C33 O25 1.258 . S
C33 O26 1.266 . S
Co34 O37 1.970 1_455 S
Co34 N51 1.989 . S
Co34 O59 1.967 . S
Co34 O66 1.920 . S
Co35 O38 1.966 . S
Co35 N44 2.022 . S
Co35 N52 1.993 1_655 S
Co35 O60 1.941 . S
C36 O37 1.258 . S
C36 O38 1.263 . S
O37 Co34 1.970 1_655 S
O37 C36 1.258 . S
O38 Co35 1.966 . S
O38 C36 1.263 . S
C39 O40 1.235 . S
C39 O66 1.289 . S
O40 C39 1.235 . S
C41 C43 1.400 . S
C41 N44 1.351 . S
C41 C46 1.501 . S
C42 C43 1.387 . S
C42 N45 1.341 . S
C43 C41 1.400 . S
C43 C42 1.387 . S
N44 Co35 2.022 . S
N44 C41 1.351 . S
N44 N45 1.365 . S
N45 C42 1.341 . S
N45 N44 1.365 . S
N45 H65 0.862 . S
C46 C41 1.501 . S
C46 H47 0.961 . S
C46 H48 0.961 . S
C46 H49 0.960 . S
H47 C46 0.961 . S
H48 C46 0.961 . S
H49 C46 0.960 . S
C50 N51 1.342 . S
C50 C54 1.401 . S
C50 C55 1.499 . S
N51 Co34 1.989 . S
N51 C50 1.342 . S
N51 N52 1.388 . S
N52 Co35 1.993 1_455 S
N52 N51 1.388 . S
N52 C53 1.346 . S
C53 N52 1.346 . S
C53 C54 1.396 . S
C53 C63 1.510 . S
C54 C50 1.401 . S
C54 C53 1.396 . S
C55 C50 1.499 . S
C55 H56 0.959 . S
C55 H57 0.960 . S
C55 H58 0.961 . S
H56 C55 0.959 . S
H57 C55 0.960 . S
H58 C55 0.961 . S
O59 Co34 1.967 . S
O59 C67 1.271 . S
O60 Co35 1.941 . S
O60 C67 1.252 1_655 S
H61 C63 0.959 . S
H62 C63 0.961 . S
C63 C53 1.510 . S
C63 H61 0.959 . S
C63 H62 0.961 . S
C63 H64 0.960 1_455 S
H64 C63 0.960 1_655 S
H65 N45 0.862 . S
O66 Co34 1.920 . S
O66 C39 1.289 . S
C67 O59 1.271 . S
C67 O60 1.252 1_455 S
Co68 O71 1.970 . S
Co68 N85 1.989 1_455 S
Co68 O93 1.967 . S
Co68 O100 1.920 1_455 S
Co69 O72 1.966 . S
Co69 N78 2.022 . S
Co69 N86 1.993 . S
Co69 O94 1.941 . S
C70 O71 1.258 . S
C70 O72 1.263 . S
O71 Co68 1.970 . S
O71 C70 1.258 . S
O72 Co69 1.966 . S
O72 C70 1.263 . S
C73 O74 1.235 . S
C73 O100 1.289 . S
O74 C73 1.235 . S
C75 C77 1.400 . S
C75 N78 1.351 . S
C75 C80 1.501 . S
C76 C77 1.387 . S
C76 N79 1.341 . S
C77 C75 1.400 . S
C77 C76 1.387 . S
N78 Co69 2.022 . S
N78 C75 1.351 . S
N78 N79 1.365 . S
N79 C76 1.341 . S
N79 N78 1.365 . S
N79 H99 0.862 . S
C80 C75 1.501 . S
C80 H81 0.961 . S
C80 H82 0.961 . S
C80 H83 0.960 . S
H81 C80 0.961 . S
H82 C80 0.961 . S
H83 C80 0.960 . S
C84 N85 1.342 . S
C84 C88 1.401 . S
C84 C89 1.499 . S
N85 Co68 1.989 1_655 S
N85 C84 1.342 . S
N85 N86 1.388 1_655 S
N86 Co69 1.993 . S
N86 N85 1.388 1_455 S
N86 C87 1.346 . S
C87 N86 1.346 . S
C87 C88 1.396 1_455 S
C87 C97 1.510 . S
C88 C84 1.401 . S
C88 C87 1.396 1_655 S
C89 C84 1.499 . S
C89 H90 0.959 . S
C89 H91 0.960 . S
C89 H92 0.961 . S
H90 C89 0.959 . S
H91 C89 0.960 . S
H92 C89 0.961 . S
O93 Co68 1.967 . S
O93 C101 1.258 . S
O94 Co69 1.941 . S
O94 C101 1.266 . S
H95 C97 0.959 . S
H96 C97 0.961 . S
C97 C87 1.510 . S
C97 H95 0.959 . S
C97 H96 0.961 . S
C97 H98 0.960 . S
H98 C97 0.960 . S
H99 N79 0.862 . S
O100 Co68 1.920 1_655 S
O100 C73 1.289 . S
C101 O93 1.258 . S
C101 O94 1.266 . S
Co102 O105 1.970 1_455 S
Co102 N119 1.989 . S
Co102 O127 1.967 . S
Co102 O134 1.920 . S
Co103 O106 1.966 . S
Co103 N112 2.022 . S
Co103 N120 1.993 1_655 S
Co103 O128 1.941 . S
C104 O105 1.258 . S
C104 O106 1.263 . S
O105 Co102 1.970 1_655 S
O105 C104 1.258 . S
O106 Co103 1.966 . S
O106 C104 1.263 . S
C107 O108 1.235 . S
C107 O134 1.289 . S
O108 C107 1.235 . S
C109 C111 1.400 . S
C109 N112 1.351 . S
C109 C114 1.501 . S
C110 C111 1.387 . S
C110 N113 1.341 . S
C111 C109 1.400 . S
C111 C110 1.387 . S
N112 Co103 2.022 . S
N112 C109 1.351 . S
N112 N113 1.365 . S
N113 C110 1.341 . S
N113 N112 1.365 . S
N113 H133 0.862 . S
C114 C109 1.501 . S
C114 H115 0.961 . S
C114 H116 0.961 . S
C114 H117 0.960 . S
H115 C114 0.961 . S
H116 C114 0.961 . S
H117 C114 0.960 . S
C118 N119 1.342 . S
C118 C122 1.401 . S
C118 C123 1.499 . S
N119 Co102 1.989 . S
N119 C118 1.342 . S
N119 N120 1.388 . S
N120 Co103 1.993 1_455 S
N120 N119 1.388 . S
N120 C121 1.346 . S
C121 N120 1.346 . S
C121 C122 1.396 . S
C121 C131 1.510 . S
C122 C118 1.401 . S
C122 C121 1.396 . S
C123 C118 1.499 . S
C123 H124 0.959 . S
C123 H125 0.960 . S
C123 H126 0.961 . S
H124 C123 0.959 . S
H125 C123 0.960 . S
H126 C123 0.961 . S
O127 Co102 1.967 . S
O127 C135 1.271 . S
O128 Co103 1.941 . S
O128 C135 1.252 1_655 S
H129 C131 0.959 . S
H130 C131 0.961 . S
C131 C121 1.510 . S
C131 H129 0.959 . S
C131 H130 0.961 . S
C131 H132 0.960 1_455 S
H132 C131 0.960 1_655 S
H133 N113 0.862 . S
O134 Co102 1.920 . S
O134 C107 1.289 . S
C135 O127 1.271 . S
C135 O128 1.252 1_455 S
Co136 O139 1.970 . S
Co136 N153 1.989 1_545 S
Co136 O161 1.967 . S
Co136 O168 1.920 1_545 S
Co137 O140 1.966 . S
Co137 N146 2.022 . S
Co137 N154 1.993 . S
Co137 O162 1.941 . S
C138 O139 1.258 . S
C138 O140 1.263 . S
O139 Co136 1.970 . S
O139 C138 1.258 . S
O140 Co137 1.966 . S
O140 C138 1.263 . S
C141 O142 1.235 . S
C141 O168 1.289 . S
O142 C141 1.235 . S
C143 C145 1.400 . S
C143 N146 1.351 . S
C143 C148 1.501 . S
C144 C145 1.387 . S
C144 N147 1.341 . S
C145 C143 1.400 . S
C145 C144 1.387 . S
N146 Co137 2.022 . S
N146 C143 1.351 . S
N146 N147 1.365 . S
N147 C144 1.341 . S
N147 N146 1.365 . S
N147 H167 0.862 . S
C148 C143 1.501 . S
C148 H149 0.961 . S
C148 H150 0.961 . S
C148 H151 0.960 . S
H149 C148 0.961 . S
H150 C148 0.961 . S
H151 C148 0.960 . S
C152 N153 1.342 . S
C152 C156 1.401 . S
C152 C157 1.499 . S
N153 Co136 1.989 1_565 S
N153 C152 1.342 . S
N153 N154 1.388 1_565 S
N154 Co137 1.993 . S
N154 N153 1.388 1_545 S
N154 C155 1.346 . S
C155 N154 1.346 . S
C155 C156 1.396 1_545 S
C155 C165 1.510 . S
C156 C152 1.401 . S
C156 C155 1.396 1_565 S
C157 C152 1.499 . S
C157 H158 0.959 . S
C157 H159 0.960 . S
C157 H160 0.961 . S
H158 C157 0.959 . S
H159 C157 0.960 . S
H160 C157 0.961 . S
O161 Co136 1.967 . S
O161 C169 1.258 . S
O162 Co137 1.941 . S
O162 C169 1.266 . S
H163 C165 0.959 . S
H164 C165 0.961 . S
C165 C155 1.510 . S
C165 H163 0.959 . S
C165 H164 0.961 . S
C165 H166 0.960 . S
H166 C165 0.960 . S
H167 N147 0.862 . S
O168 Co136 1.920 1_565 S
O168 C141 1.289 . S
C169 O161 1.258 . S
C169 O162 1.266 . S
Co170 O173 1.970 1_545 S
Co170 N187 1.989 . S
Co170 O195 1.967 . S
Co170 O202 1.920 . S
Co171 O174 1.966 . S
Co171 N180 2.022 . S
Co171 N188 1.993 1_565 S
Co171 O196 1.941 . S
C172 O173 1.258 . S
C172 O174 1.263 . S
O173 Co170 1.970 1_565 S
O173 C172 1.258 . S
O174 Co171 1.966 . S
O174 C172 1.263 . S
C175 O176 1.235 . S
C175 O202 1.289 . S
O176 C175 1.235 . S
C177 C179 1.400 . S
C177 N180 1.351 . S
C177 C182 1.501 . S
C178 C179 1.387 . S
C178 N181 1.341 . S
C179 C177 1.400 . S
C179 C178 1.387 . S
N180 Co171 2.022 . S
N180 C177 1.351 . S
N180 N181 1.365 . S
N181 C178 1.341 . S
N181 N180 1.365 . S
N181 H201 0.862 . S
C182 C177 1.501 . S
C182 H183 0.961 . S
C182 H184 0.961 . S
C182 H185 0.960 . S
H183 C182 0.961 . S
H184 C182 0.961 . S
H185 C182 0.960 . S
C186 N187 1.342 . S
C186 C190 1.401 . S
C186 C191 1.499 . S
N187 Co170 1.989 . S
N187 C186 1.342 . S
N187 N188 1.388 . S
N188 Co171 1.993 1_545 S
N188 N187 1.388 . S
N188 C189 1.346 . S
C189 N188 1.346 . S
C189 C190 1.396 . S
C189 C199 1.510 . S
C190 C186 1.401 . S
C190 C189 1.396 . S
C191 C186 1.499 . S
C191 H192 0.959 . S
C191 H193 0.960 . S
C191 H194 0.961 . S
H192 C191 0.959 . S
H193 C191 0.960 . S
H194 C191 0.961 . S
O195 Co170 1.967 . S
O195 C203 1.271 . S
O196 Co171 1.941 . S
O196 C203 1.252 1_565 S
H197 C199 0.959 . S
H198 C199 0.961 . S
C199 C189 1.510 . S
C199 H197 0.959 . S
C199 H198 0.961 . S
C199 H200 0.960 1_545 S
H200 C199 0.960 1_565 S
H201 N181 0.862 . S
O202 Co170 1.920 . S
O202 C175 1.289 . S
C203 O195 1.271 . S
C203 O196 1.252 1_545 S
Co204 O207 1.970 1_545 S
Co204 N221 1.989 . S
Co204 O229 1.967 . S
Co204 O236 1.920 . S
Co205 O208 1.966 . S
Co205 N214 2.022 . S
Co205 N222 1.993 1_565 S
Co205 O230 1.941 . S
C206 O207 1.258 . S
C206 O208 1.263 . S
O207 Co204 1.970 1_565 S
O207 C206 1.258 . S
O208 Co205 1.966 . S
O208 C206 1.263 . S
C209 O210 1.235 . S
C209 O236 1.289 . S
O210 C209 1.235 . S
C211 C213 1.400 . S
C211 N214 1.351 . S
C211 C216 1.501 . S
C212 C213 1.387 . S
C212 N215 1.341 . S
C213 C211 1.400 . S
C213 C212 1.387 . S
N214 Co205 2.022 . S
N214 C211 1.351 . S
N214 N215 1.365 . S
N215 C212 1.341 . S
N215 N214 1.365 . S
N215 H235 0.862 . S
C216 C211 1.501 . S
C216 H217 0.961 . S
C216 H218 0.961 . S
C216 H219 0.960 . S
H217 C216 0.961 . S
H218 C216 0.961 . S
H219 C216 0.960 . S
C220 N221 1.342 . S
C220 C224 1.401 . S
C220 C225 1.499 . S
N221 Co204 1.989 . S
N221 C220 1.342 . S
N221 N222 1.388 . S
N222 Co205 1.993 1_545 S
N222 N221 1.388 . S
N222 C223 1.346 . S
C223 N222 1.346 . S
C223 C224 1.396 . S
C223 C233 1.510 . S
C224 C220 1.401 . S
C224 C223 1.396 . S
C225 C220 1.499 . S
C225 H226 0.959 . S
C225 H227 0.960 . S
C225 H228 0.961 . S
H226 C225 0.959 . S
H227 C225 0.960 . S
H228 C225 0.961 . S
O229 Co204 1.967 . S
O229 C237 1.271 . S
O230 Co205 1.941 . S
O230 C237 1.252 1_565 S
H231 C233 0.959 . S
H232 C233 0.961 . S
C233 C223 1.510 . S
C233 H231 0.959 . S
C233 H232 0.961 . S
C233 H234 0.960 1_545 S
H234 C233 0.960 1_565 S
H235 N215 0.862 . S
O236 Co204 1.920 . S
O236 C209 1.289 . S
C237 O229 1.271 . S
C237 O230 1.252 1_545 S
Co238 O241 1.970 . S
Co238 N255 1.989 1_545 S
Co238 O263 1.967 . S
Co238 O270 1.920 1_545 S
Co239 O242 1.966 . S
Co239 N248 2.022 . S
Co239 N256 1.993 . S
Co239 O264 1.941 . S
C240 O241 1.258 . S
C240 O242 1.263 . S
O241 Co238 1.970 . S
O241 C240 1.258 . S
O242 Co239 1.966 . S
O242 C240 1.263 . S
C243 O244 1.235 . S
C243 O270 1.289 . S
O244 C243 1.235 . S
C245 C247 1.400 . S
C245 N248 1.351 . S
C245 C250 1.501 . S
C246 C247 1.387 . S
C246 N249 1.341 . S
C247 C245 1.400 . S
C247 C246 1.387 . S
N248 Co239 2.022 . S
N248 C245 1.351 . S
N248 N249 1.365 . S
N249 C246 1.341 . S
N249 N248 1.365 . S
N249 H269 0.862 . S
C250 C245 1.501 . S
C250 H251 0.961 . S
C250 H252 0.961 . S
C250 H253 0.960 . S
H251 C250 0.961 . S
H252 C250 0.961 . S
H253 C250 0.960 . S
C254 N255 1.342 . S
C254 C258 1.401 . S
C254 C259 1.499 . S
N255 Co238 1.989 1_565 S
N255 C254 1.342 . S
N255 N256 1.388 1_565 S
N256 Co239 1.993 . S
N256 N255 1.388 1_545 S
N256 C257 1.346 . S
C257 N256 1.346 . S
C257 C258 1.396 1_545 S
C257 C267 1.510 . S
C258 C254 1.401 . S
C258 C257 1.396 1_565 S
C259 C254 1.499 . S
C259 H260 0.959 . S
C259 H261 0.960 . S
C259 H262 0.961 . S
H260 C259 0.959 . S
H261 C259 0.960 . S
H262 C259 0.961 . S
O263 Co238 1.967 . S
O263 C271 1.258 . S
O264 Co239 1.941 . S
O264 C271 1.266 . S
H265 C267 0.959 . S
H266 C267 0.961 . S
C267 C257 1.510 . S
C267 H265 0.959 . S
C267 H266 0.961 . S
C267 H268 0.960 . S
H268 C267 0.960 . S
H269 N249 0.862 . S
O270 Co238 1.920 1_565 S
O270 C243 1.289 . S
C271 O263 1.258 . S
C271 O264 1.266 . S
Co272 O275 1.970 . S
Co272 N289 1.989 1_554 S
Co272 O297 1.967 . S
Co272 O304 1.920 1_554 S
Co273 O276 1.966 . S
Co273 N282 2.022 . S
Co273 N290 1.993 . S
Co273 O298 1.941 . S
C274 O275 1.258 . S
C274 O276 1.263 . S
O275 Co272 1.970 . S
O275 C274 1.258 . S
O276 Co273 1.966 . S
O276 C274 1.263 . S
C277 O278 1.235 . S
C277 O304 1.289 . S
O278 C277 1.235 . S
C279 C281 1.400 . S
C279 N282 1.351 . S
C279 C284 1.501 . S
C280 C281 1.387 . S
C280 N283 1.341 . S
C281 C279 1.400 . S
C281 C280 1.387 . S
N282 Co273 2.022 . S
N282 C279 1.351 . S
N282 N283 1.365 . S
N283 C280 1.341 . S
N283 N282 1.365 . S
N283 H303 0.862 . S
C284 C279 1.501 . S
C284 H285 0.961 . S
C284 H286 0.961 . S
C284 H287 0.960 . S
H285 C284 0.961 . S
H286 C284 0.961 . S
H287 C284 0.960 . S
C288 N289 1.342 . S
C288 C292 1.401 . S
C288 C293 1.499 . S
N289 Co272 1.989 1_556 S
N289 C288 1.342 . S
N289 N290 1.388 1_556 S
N290 Co273 1.993 . S
N290 N289 1.388 1_554 S
N290 C291 1.346 . S
C291 N290 1.346 . S
C291 C292 1.396 1_554 S
C291 C301 1.510 . S
C292 C288 1.401 . S
C292 C291 1.396 1_556 S
C293 C288 1.499 . S
C293 H294 0.959 . S
C293 H295 0.960 . S
C293 H296 0.961 . S
H294 C293 0.959 . S
H295 C293 0.960 . S
H296 C293 0.961 . S
O297 Co272 1.967 . S
O297 C305 1.258 . S
O298 Co273 1.941 . S
O298 C305 1.266 . S
H299 C301 0.959 . S
H300 C301 0.961 . S
C301 C291 1.510 . S
C301 H299 0.959 . S
C301 H300 0.961 . S
C301 H302 0.960 . S
H302 C301 0.960 . S
H303 N283 0.862 . S
O304 Co272 1.920 1_556 S
O304 C277 1.289 . S
C305 O297 1.258 . S
C305 O298 1.266 . S
Co306 O309 1.970 1_554 S
Co306 N323 1.989 . S
Co306 O331 1.967 . S
Co306 O338 1.920 . S
Co307 O310 1.966 . S
Co307 N316 2.022 . S
Co307 N324 1.993 1_556 S
Co307 O332 1.941 . S
C308 O309 1.258 . S
C308 O310 1.263 . S
O309 Co306 1.970 1_556 S
O309 C308 1.258 . S
O310 Co307 1.966 . S
O310 C308 1.263 . S
C311 O312 1.235 . S
C311 O338 1.289 . S
O312 C311 1.235 . S
C313 C315 1.400 . S
C313 N316 1.351 . S
C313 C318 1.501 . S
C314 C315 1.387 . S
C314 N317 1.341 . S
C315 C313 1.400 . S
C315 C314 1.387 . S
N316 Co307 2.022 . S
N316 C313 1.351 . S
N316 N317 1.365 . S
N317 C314 1.341 . S
N317 N316 1.365 . S
N317 H337 0.862 . S
C318 C313 1.501 . S
C318 H319 0.961 . S
C318 H320 0.961 . S
C318 H321 0.960 . S
H319 C318 0.961 . S
H320 C318 0.961 . S
H321 C318 0.960 . S
C322 N323 1.342 . S
C322 C326 1.401 . S
C322 C327 1.499 . S
N323 Co306 1.989 . S
N323 C322 1.342 . S
N323 N324 1.388 . S
N324 Co307 1.993 1_554 S
N324 N323 1.388 . S
N324 C325 1.346 . S
C325 N324 1.346 . S
C325 C326 1.396 . S
C325 C335 1.510 . S
C326 C322 1.401 . S
C326 C325 1.396 . S
C327 C322 1.499 . S
C327 H328 0.959 . S
C327 H329 0.960 . S
C327 H330 0.961 . S
H328 C327 0.959 . S
H329 C327 0.960 . S
H330 C327 0.961 . S
O331 Co306 1.967 . S
O331 C339 1.271 . S
O332 Co307 1.941 . S
O332 C339 1.252 1_556 S
H333 C335 0.959 . S
H334 C335 0.961 . S
C335 C325 1.510 . S
C335 H333 0.959 . S
C335 H334 0.961 . S
C335 H336 0.960 1_554 S
H336 C335 0.960 1_556 S
H337 N317 0.862 . S
O338 Co306 1.920 . S
O338 C311 1.289 . S
C339 O331 1.271 . S
C339 O332 1.252 1_554 S
Co340 O343 1.970 1_554 S
Co340 N357 1.989 . S
Co340 O365 1.967 . S
Co340 O372 1.920 . S
Co341 O344 1.966 . S
Co341 N350 2.022 . S
Co341 N358 1.993 1_556 S
Co341 O366 1.941 . S
C342 O343 1.258 . S
C342 O344 1.263 . S
O343 Co340 1.970 1_556 S
O343 C342 1.258 . S
O344 Co341 1.966 . S
O344 C342 1.263 . S
C345 O346 1.235 . S
C345 O372 1.289 . S
O346 C345 1.235 . S
C347 C349 1.400 . S
C347 N350 1.351 . S
C347 C352 1.501 . S
C348 C349 1.387 . S
C348 N351 1.341 . S
C349 C347 1.400 . S
C349 C348 1.387 . S
N350 Co341 2.022 . S
N350 C347 1.351 . S
N350 N351 1.365 . S
N351 C348 1.341 . S
N351 N350 1.365 . S
N351 H371 0.862 . S
C352 C347 1.501 . S
C352 H353 0.961 . S
C352 H354 0.961 . S
C352 H355 0.960 . S
H353 C352 0.961 . S
H354 C352 0.961 . S
H355 C352 0.960 . S
C356 N357 1.342 . S
C356 C360 1.401 . S
C356 C361 1.499 . S
N357 Co340 1.989 . S
N357 C356 1.342 . S
N357 N358 1.388 . S
N358 Co341 1.993 1_554 S
N358 N357 1.388 . S
N358 C359 1.346 . S
C359 N358 1.346 . S
C359 C360 1.396 . S
C359 C369 1.510 . S
C360 C356 1.401 . S
C360 C359 1.396 . S
C361 C356 1.499 . S
C361 H362 0.959 . S
C361 H363 0.960 . S
C361 H364 0.961 . S
H362 C361 0.959 . S
H363 C361 0.960 . S
H364 C361 0.961 . S
O365 Co340 1.967 . S
O365 C373 1.271 . S
O366 Co341 1.941 . S
O366 C373 1.252 1_556 S
H367 C369 0.959 . S
H368 C369 0.961 . S
C369 C359 1.510 . S
C369 H367 0.959 . S
C369 H368 0.961 . S
C369 H370 0.960 1_554 S
H370 C369 0.960 1_556 S
H371 N351 0.862 . S
O372 Co340 1.920 . S
O372 C345 1.289 . S
C373 O365 1.271 . S
C373 O366 1.252 1_554 S
Co374 O377 1.970 . S
Co374 N391 1.989 1_554 S
Co374 O399 1.967 . S
Co374 O406 1.920 1_554 S
Co375 O378 1.966 . S
Co375 N384 2.022 . S
Co375 N392 1.993 . S
Co375 O400 1.941 . S
C376 O377 1.258 . S
C376 O378 1.263 . S
O377 Co374 1.970 . S
O377 C376 1.258 . S
O378 Co375 1.966 . S
O378 C376 1.263 . S
C379 O380 1.235 . S
C379 O406 1.289 . S
O380 C379 1.235 . S
C381 C383 1.400 . S
C381 N384 1.351 . S
C381 C386 1.501 . S
C382 C383 1.387 . S
C382 N385 1.341 . S
C383 C381 1.400 . S
C383 C382 1.387 . S
N384 Co375 2.022 . S
N384 C381 1.351 . S
N384 N385 1.365 . S
N385 C382 1.341 . S
N385 N384 1.365 . S
N385 H405 0.862 . S
C386 C381 1.501 . S
C386 H387 0.961 . S
C386 H388 0.961 . S
C386 H389 0.960 . S
H387 C386 0.961 . S
H388 C386 0.961 . S
H389 C386 0.960 . S
C390 N391 1.342 . S
C390 C394 1.401 . S
C390 C395 1.499 . S
N391 Co374 1.989 1_556 S
N391 C390 1.342 . S
N391 N392 1.388 1_556 S
N392 Co375 1.993 . S
N392 N391 1.388 1_554 S
N392 C393 1.346 . S
C393 N392 1.346 . S
C393 C394 1.396 1_554 S
C393 C403 1.510 . S
C394 C390 1.401 . S
C394 C393 1.396 1_556 S
C395 C390 1.499 . S
C395 H396 0.959 . S
C395 H397 0.960 . S
C395 H398 0.961 . S
H396 C395 0.959 . S
H397 C395 0.960 . S
H398 C395 0.961 . S
O399 Co374 1.967 . S
O399 C407 1.258 . S
O400 Co375 1.941 . S
O400 C407 1.266 . S
H401 C403 0.959 . S
H402 C403 0.961 . S
C403 C393 1.510 . S
C403 H401 0.959 . S
C403 H402 0.961 . S
C403 H404 0.960 . S
H404 C403 0.960 . S
H405 N385 0.862 . S
O406 Co374 1.920 1_556 S
O406 C379 1.289 . S
C407 O399 1.258 . S
C407 O400 1.266 . S
Co408 O411 1.970 . S
Co408 N425 1.989 . S
Co408 O433 1.967 . S
Co408 O440 1.920 . S
Co409 O412 1.966 . S
Co409 N418 2.022 . S
Co409 N426 1.993 . S
Co409 O434 1.941 . S
C410 O411 1.258 . S
C410 O412 1.263 . S
O411 Co408 1.970 . S
O411 C410 1.258 . S
O412 Co409 1.966 . S
O412 C410 1.263 . S
C413 O414 1.235 . S
C413 O440 1.289 . S
O414 C413 1.235 . S
C415 C417 1.400 . S
C415 N418 1.351 . S
C415 C420 1.501 . S
C416 C417 1.387 . S
C416 N419 1.341 . S
C417 C415 1.400 . S
C417 C416 1.387 . S
N418 Co409 2.022 . S
N418 C415 1.351 . S
N418 N419 1.365 . S
N419 C416 1.341 . S
N419 N418 1.365 . S
N419 H439 0.862 . S
C420 C415 1.501 . S
C420 H421 0.961 . S
C420 H422 0.961 . S
C420 H423 0.960 . S
H421 C420 0.961 . S
H422 C420 0.961 . S
H423 C420 0.960 . S
C424 N425 1.342 . S
C424 C428 1.401 . S
C424 C429 1.499 . S
N425 Co408 1.989 . S
N425 C424 1.342 . S
N425 N426 1.388 . S
N426 Co409 1.993 . S
N426 N425 1.388 . S
N426 C427 1.346 . S
C427 N426 1.346 . S
C427 C428 1.396 . S
C427 C437 1.510 . S
C428 C424 1.401 . S
C428 C427 1.396 . S
C429 C424 1.499 . S
C429 H430 0.959 . S
C429 H431 0.960 . S
C429 H432 0.961 . S
H430 C429 0.959 . S
H431 C429 0.960 . S
H432 C429 0.961 . S
O433 Co408 1.967 . S
O433 C441 1.258 . S
O434 Co409 1.941 . S
O434 C441 1.266 . S
H435 C437 0.959 . S
H436 C437 0.961 . S
C437 C427 1.510 . S
C437 H435 0.959 . S
C437 H436 0.961 . S
C437 H438 0.960 . S
H438 C437 0.960 . S
H439 N419 0.862 . S
O440 Co408 1.920 . S
O440 C413 1.289 . S
C441 O433 1.258 . S
C441 O434 1.266 . S
Co442 O445 1.970 . S
Co442 N459 1.989 . S
Co442 O467 1.967 . S
Co442 O474 1.920 . S
Co443 O446 1.966 . S
Co443 N452 2.022 . S
Co443 N460 1.993 . S
Co443 O468 1.941 . S
C444 O445 1.258 . S
C444 O446 1.263 . S
O445 Co442 1.970 . S
O445 C444 1.258 . S
O446 Co443 1.966 . S
O446 C444 1.263 . S
C447 O448 1.235 . S
C447 O474 1.289 . S
O448 C447 1.235 . S
C449 C451 1.400 . S
C449 N452 1.351 . S
C449 C454 1.501 . S
C450 C451 1.387 . S
C450 N453 1.341 . S
C451 C449 1.400 . S
C451 C450 1.387 . S
N452 Co443 2.022 . S
N452 C449 1.351 . S
N452 N453 1.365 . S
N453 C450 1.341 . S
N453 N452 1.365 . S
N453 H473 0.862 . S
C454 C449 1.501 . S
C454 H455 0.961 . S
C454 H456 0.961 . S
C454 H457 0.960 . S
H455 C454 0.961 . S
H456 C454 0.961 . S
H457 C454 0.960 . S
C458 N459 1.342 . S
C458 C462 1.401 . S
C458 C463 1.499 . S
N459 Co442 1.989 . S
N459 C458 1.342 . S
N459 N460 1.388 . S
N460 Co443 1.993 . S
N460 N459 1.388 . S
N460 C461 1.346 . S
C461 N460 1.346 . S
C461 C462 1.396 . S
C461 C471 1.510 . S
C462 C458 1.401 . S
C462 C461 1.396 . S
C463 C458 1.499 . S
C463 H464 0.959 . S
C463 H465 0.960 . S
C463 H466 0.961 . S
H464 C463 0.959 . S
H465 C463 0.960 . S
H466 C463 0.961 . S
O467 Co442 1.967 . S
O467 C475 1.258 . S
O468 Co443 1.941 . S
O468 C475 1.266 . S
H469 C471 0.959 . S
H470 C471 0.961 . S
C471 C461 1.510 . S
C471 H469 0.959 . S
C471 H470 0.961 . S
C471 H472 0.960 . S
H472 C471 0.960 . S
H473 N453 0.862 . S
O474 Co442 1.920 . S
O474 C447 1.289 . S
C475 O467 1.258 . S
C475 O468 1.266 . S
Co476 O479 1.970 . S
Co476 N493 1.989 . S
Co476 O501 1.967 . S
Co476 O508 1.920 . S
Co477 O480 1.966 . S
Co477 N486 2.022 . S
Co477 N494 1.993 . S
Co477 O502 1.941 . S
C478 O479 1.258 . S
C478 O480 1.263 . S
O479 Co476 1.970 . S
O479 C478 1.258 . S
O480 Co477 1.966 . S
O480 C478 1.263 . S
C481 O482 1.235 . S
C481 O508 1.289 . S
O482 C481 1.235 . S
C483 C485 1.400 . S
C483 N486 1.351 . S
C483 C488 1.501 . S
C484 C485 1.387 . S
C484 N487 1.341 . S
C485 C483 1.400 . S
C485 C484 1.387 . S
N486 Co477 2.022 . S
N486 C483 1.351 . S
N486 N487 1.365 . S
N487 C484 1.341 . S
N487 N486 1.365 . S
N487 H507 0.862 . S
C488 C483 1.501 . S
C488 H489 0.961 . S
C488 H490 0.961 . S
C488 H491 0.960 . S
H489 C488 0.961 . S
H490 C488 0.961 . S
H491 C488 0.960 . S
C492 N493 1.342 . S
C492 C496 1.401 . S
C492 C497 1.499 . S
N493 Co476 1.989 . S
N493 C492 1.342 . S
N493 N494 1.388 . S
N494 Co477 1.993 . S
N494 N493 1.388 . S
N494 C495 1.346 . S
C495 N494 1.346 . S
C495 C496 1.396 . S
C495 C505 1.510 . S
C496 C492 1.401 . S
C496 C495 1.396 . S
C497 C492 1.499 . S
C497 H498 0.959 . S
C497 H499 0.960 . S
C497 H500 0.961 . S
H498 C497 0.959 . S
H499 C497 0.960 . S
H500 C497 0.961 . S
O501 Co476 1.967 . S
O501 C509 1.258 . S
O502 Co477 1.941 . S
O502 C509 1.266 . S
H503 C505 0.959 . S
H504 C505 0.961 . S
C505 C495 1.510 . S
C505 H503 0.959 . S
C505 H504 0.961 . S
C505 H506 0.960 . S
H506 C505 0.960 . S
H507 N487 0.862 . S
O508 Co476 1.920 . S
O508 C481 1.289 . S
C509 O501 1.258 . S
C509 O502 1.266 . S
Co510 O513 1.970 . S
Co510 N527 1.989 . S
Co510 O535 1.967 . S
Co510 O542 1.920 . S
Co511 O514 1.966 . S
Co511 N520 2.022 . S
Co511 N528 1.993 . S
Co511 O536 1.941 . S
C512 O513 1.258 . S
C512 O514 1.263 . S
O513 Co510 1.970 . S
O513 C512 1.258 . S
O514 Co511 1.966 . S
O514 C512 1.263 . S
C515 O516 1.235 . S
C515 O542 1.289 . S
O516 C515 1.235 . S
C517 C519 1.400 . S
C517 N520 1.351 . S
C517 C522 1.501 . S
C518 C519 1.387 . S
C518 N521 1.341 . S
C519 C517 1.400 . S
C519 C518 1.387 . S
N520 Co511 2.022 . S
N520 C517 1.351 . S
N520 N521 1.365 . S
N521 C518 1.341 . S
N521 N520 1.365 . S
N521 H541 0.862 . S
C522 C517 1.501 . S
C522 H523 0.961 . S
C522 H524 0.961 . S
C522 H525 0.960 . S
H523 C522 0.961 . S
H524 C522 0.961 . S
H525 C522 0.960 . S
C526 N527 1.342 . S
C526 C530 1.401 . S
C526 C531 1.499 . S
N527 Co510 1.989 . S
N527 C526 1.342 . S
N527 N528 1.388 . S
N528 Co511 1.993 . S
N528 N527 1.388 . S
N528 C529 1.346 . S
C529 N528 1.346 . S
C529 C530 1.396 . S
C529 C539 1.510 . S
C530 C526 1.401 . S
C530 C529 1.396 . S
C531 C526 1.499 . S
C531 H532 0.959 . S
C531 H533 0.960 . S
C531 H534 0.961 . S
H532 C531 0.959 . S
H533 C531 0.960 . S
H534 C531 0.961 . S
O535 Co510 1.967 . S
O535 C543 1.258 . S
O536 Co511 1.941 . S
O536 C543 1.266 . S
H537 C539 0.959 . S
H538 C539 0.961 . S
C539 C529 1.510 . S
C539 H537 0.959 . S
C539 H538 0.961 . S
C539 H540 0.960 . S
H540 C539 0.960 . S
H541 N521 0.862 . S
O542 Co510 1.920 . S
O542 C515 1.289 . S
C543 O535 1.258 . S
C543 O536 1.266 . S
Co544 O547 1.970 . S
Co544 N561 1.989 . S
Co544 O569 1.967 . S
Co544 O576 1.920 . S
Co545 O548 1.966 . S
Co545 N554 2.022 . S
Co545 N562 1.993 . S
Co545 O570 1.941 . S
C546 O547 1.258 . S
C546 O548 1.263 . S
O547 Co544 1.970 . S
O547 C546 1.258 . S
O548 Co545 1.966 . S
O548 C546 1.263 . S
C549 O550 1.235 . S
C549 O576 1.289 . S
O550 C549 1.235 . S
C551 C553 1.400 . S
C551 N554 1.351 . S
C551 C556 1.501 . S
C552 C553 1.387 . S
C552 N555 1.341 . S
C553 C551 1.400 . S
C553 C552 1.387 . S
N554 Co545 2.022 . S
N554 C551 1.351 . S
N554 N555 1.365 . S
N555 C552 1.341 . S
N555 N554 1.365 . S
N555 H575 0.862 . S
C556 C551 1.501 . S
C556 H557 0.961 . S
C556 H558 0.961 . S
C556 H559 0.960 . S
H557 C556 0.961 . S
H558 C556 0.961 . S
H559 C556 0.960 . S
C560 N561 1.342 . S
C560 C564 1.401 . S
C560 C565 1.499 . S
N561 Co544 1.989 . S
N561 C560 1.342 . S
N561 N562 1.388 . S
N562 Co545 1.993 . S
N562 N561 1.388 . S
N562 C563 1.346 . S
C563 N562 1.346 . S
C563 C564 1.396 . S
C563 C573 1.510 . S
C564 C560 1.401 . S
C564 C563 1.396 . S
C565 C560 1.499 . S
C565 H566 0.959 . S
C565 H567 0.960 . S
C565 H568 0.961 . S
H566 C565 0.959 . S
H567 C565 0.960 . S
H568 C565 0.961 . S
O569 Co544 1.967 . S
O569 C577 1.258 . S
O570 Co545 1.941 . S
O570 C577 1.266 . S
H571 C573 0.959 . S
H572 C573 0.961 . S
C573 C563 1.510 . S
C573 H571 0.959 . S
C573 H572 0.961 . S
C573 H574 0.960 . S
H574 C573 0.960 . S
H575 N555 0.862 . S
O576 Co544 1.920 . S
O576 C549 1.289 . S
C577 O569 1.258 . S
C577 O570 1.266 . S
Co578 O581 1.970 . S
Co578 N595 1.989 . S
Co578 O603 1.967 . S
Co578 O610 1.920 . S
Co579 O582 1.966 . S
Co579 N588 2.022 . S
Co579 N596 1.993 . S
Co579 O604 1.941 . S
C580 O581 1.258 . S
C580 O582 1.263 . S
O581 Co578 1.970 . S
O581 C580 1.258 . S
O582 Co579 1.966 . S
O582 C580 1.263 . S
C583 O584 1.235 . S
C583 O610 1.289 . S
O584 C583 1.235 . S
C585 C587 1.400 . S
C585 N588 1.351 . S
C585 C590 1.501 . S
C586 C587 1.387 . S
C586 N589 1.341 . S
C587 C585 1.400 . S
C587 C586 1.387 . S
N588 Co579 2.022 . S
N588 C585 1.351 . S
N588 N589 1.365 . S
N589 C586 1.341 . S
N589 N588 1.365 . S
N589 H609 0.862 . S
C590 C585 1.501 . S
C590 H591 0.961 . S
C590 H592 0.961 . S
C590 H593 0.960 . S
H591 C590 0.961 . S
H592 C590 0.961 . S
H593 C590 0.960 . S
C594 N595 1.342 . S
C594 C598 1.401 . S
C594 C599 1.499 . S
N595 Co578 1.989 . S
N595 C594 1.342 . S
N595 N596 1.388 . S
N596 Co579 1.993 . S
N596 N595 1.388 . S
N596 C597 1.346 . S
C597 N596 1.346 . S
C597 C598 1.396 . S
C597 C607 1.510 . S
C598 C594 1.401 . S
C598 C597 1.396 . S
C599 C594 1.499 . S
C599 H600 0.959 . S
C599 H601 0.960 . S
C599 H602 0.961 . S
H600 C599 0.959 . S
H601 C599 0.960 . S
H602 C599 0.961 . S
O603 Co578 1.967 . S
O603 C611 1.258 . S
O604 Co579 1.941 . S
O604 C611 1.266 . S
H605 C607 0.959 . S
H606 C607 0.961 . S
C607 C597 1.510 . S
C607 H605 0.959 . S
C607 H606 0.961 . S
C607 H608 0.960 . S
H608 C607 0.960 . S
H609 N589 0.862 . S
O610 Co578 1.920 . S
O610 C583 1.289 . S
C611 O603 1.258 . S
C611 O604 1.266 . S
Co612 O615 1.970 . S
Co612 N629 1.989 . S
Co612 O637 1.967 . S
Co612 O644 1.920 . S
Co613 O616 1.966 . S
Co613 N622 2.022 . S
Co613 N630 1.993 . S
Co613 O638 1.941 . S
C614 O615 1.258 . S
C614 O616 1.263 . S
O615 Co612 1.970 . S
O615 C614 1.258 . S
O616 Co613 1.966 . S
O616 C614 1.263 . S
C617 O618 1.235 . S
C617 O644 1.289 . S
O618 C617 1.235 . S
C619 C621 1.400 . S
C619 N622 1.351 . S
C619 C624 1.501 . S
C620 C621 1.387 . S
C620 N623 1.341 . S
C621 C619 1.400 . S
C621 C620 1.387 . S
N622 Co613 2.022 . S
N622 C619 1.351 . S
N622 N623 1.365 . S
N623 C620 1.341 . S
N623 N622 1.365 . S
N623 H643 0.862 . S
C624 C619 1.501 . S
C624 H625 0.961 . S
C624 H626 0.961 . S
C624 H627 0.960 . S
H625 C624 0.961 . S
H626 C624 0.961 . S
H627 C624 0.960 . S
C628 N629 1.342 . S
C628 C632 1.401 . S
C628 C633 1.499 . S
N629 Co612 1.989 . S
N629 C628 1.342 . S
N629 N630 1.388 . S
N630 Co613 1.993 . S
N630 N629 1.388 . S
N630 C631 1.346 . S
C631 N630 1.346 . S
C631 C632 1.396 . S
C631 C641 1.510 . S
C632 C628 1.401 . S
C632 C631 1.396 . S
C633 C628 1.499 . S
C633 H634 0.959 . S
C633 H635 0.960 . S
C633 H636 0.961 . S
H634 C633 0.959 . S
H635 C633 0.960 . S
H636 C633 0.961 . S
O637 Co612 1.967 . S
O637 C645 1.258 . S
O638 Co613 1.941 . S
O638 C645 1.266 . S
H639 C641 0.959 . S
H640 C641 0.961 . S
C641 C631 1.510 . S
C641 H639 0.959 . S
C641 H640 0.961 . S
C641 H642 0.960 . S
H642 C641 0.960 . S
H643 N623 0.862 . S
O644 Co612 1.920 . S
O644 C617 1.289 . S
C645 O637 1.258 . S
C645 O638 1.266 . S
Co646 O649 1.970 . S
Co646 N663 1.989 . S
Co646 O671 1.967 . S
Co646 O678 1.920 . S
Co647 O650 1.966 . S
Co647 N656 2.022 . S
Co647 N664 1.993 . S
Co647 O672 1.941 . S
C648 O649 1.258 . S
C648 O650 1.263 . S
O649 Co646 1.970 . S
O649 C648 1.258 . S
O650 Co647 1.966 . S
O650 C648 1.263 . S
C651 O652 1.235 . S
C651 O678 1.289 . S
O652 C651 1.235 . S
C653 C655 1.400 . S
C653 N656 1.351 . S
C653 C658 1.501 . S
C654 C655 1.387 . S
C654 N657 1.341 . S
C655 C653 1.400 . S
C655 C654 1.387 . S
N656 Co647 2.022 . S
N656 C653 1.351 . S
N656 N657 1.365 . S
N657 C654 1.341 . S
N657 N656 1.365 . S
N657 H677 0.862 . S
C658 C653 1.501 . S
C658 H659 0.961 . S
C658 H660 0.961 . S
C658 H661 0.960 . S
H659 C658 0.961 . S
H660 C658 0.961 . S
H661 C658 0.960 . S
C662 N663 1.342 . S
C662 C666 1.401 . S
C662 C667 1.499 . S
N663 Co646 1.989 . S
N663 C662 1.342 . S
N663 N664 1.388 . S
N664 Co647 1.993 . S
N664 N663 1.388 . S
N664 C665 1.346 . S
C665 N664 1.346 . S
C665 C666 1.396 . S
C665 C675 1.510 . S
C666 C662 1.401 . S
C666 C665 1.396 . S
C667 C662 1.499 . S
C667 H668 0.959 . S
C667 H669 0.960 . S
C667 H670 0.961 . S
H668 C667 0.959 . S
H669 C667 0.960 . S
H670 C667 0.961 . S
O671 Co646 1.967 . S
O671 C679 1.258 . S
O672 Co647 1.941 . S
O672 C679 1.266 . S
H673 C675 0.959 . S
H674 C675 0.961 . S
C675 C665 1.510 . S
C675 H673 0.959 . S
C675 H674 0.961 . S
C675 H676 0.960 . S
H676 C675 0.960 . S
H677 N657 0.862 . S
O678 Co646 1.920 . S
O678 C651 1.289 . S
C679 O671 1.258 . S
C679 O672 1.266 . S
Co680 O683 1.970 . S
Co680 N697 1.989 . S
Co680 O705 1.967 . S
Co680 O712 1.920 . S
Co681 O684 1.966 . S
Co681 N690 2.022 . S
Co681 N698 1.993 . S
Co681 O706 1.941 . S
C682 O683 1.258 . S
C682 O684 1.263 . S
O683 Co680 1.970 . S
O683 C682 1.258 . S
O684 Co681 1.966 . S
O684 C682 1.263 . S
C685 O686 1.235 . S
C685 O712 1.289 . S
O686 C685 1.235 . S
C687 C689 1.400 . S
C687 N690 1.351 . S
C687 C692 1.501 . S
C688 C689 1.387 . S
C688 N691 1.341 . S
C689 C687 1.400 . S
C689 C688 1.387 . S
N690 Co681 2.022 . S
N690 C687 1.351 . S
N690 N691 1.365 . S
N691 C688 1.341 . S
N691 N690 1.365 . S
N691 H711 0.862 . S
C692 C687 1.501 . S
C692 H693 0.961 . S
C692 H694 0.961 . S
C692 H695 0.960 . S
H693 C692 0.961 . S
H694 C692 0.961 . S
H695 C692 0.960 . S
C696 N697 1.342 . S
C696 C700 1.401 . S
C696 C701 1.499 . S
N697 Co680 1.989 . S
N697 C696 1.342 . S
N697 N698 1.388 . S
N698 Co681 1.993 . S
N698 N697 1.388 . S
N698 C699 1.346 . S
C699 N698 1.346 . S
C699 C700 1.396 . S
C699 C709 1.510 . S
C700 C696 1.401 . S
C700 C699 1.396 . S
C701 C696 1.499 . S
C701 H702 0.959 . S
C701 H703 0.960 . S
C701 H704 0.961 . S
H702 C701 0.959 . S
H703 C701 0.960 . S
H704 C701 0.961 . S
O705 Co680 1.967 . S
O705 C713 1.258 . S
O706 Co681 1.941 . S
O706 C713 1.266 . S
H707 C709 0.959 . S
H708 C709 0.961 . S
C709 C699 1.510 . S
C709 H707 0.959 . S
C709 H708 0.961 . S
C709 H710 0.960 . S
H710 C709 0.960 . S
H711 N691 0.862 . S
O712 Co680 1.920 . S
O712 C685 1.289 . S
C713 O705 1.258 . S
C713 O706 1.266 . S
Co714 O717 1.970 . S
Co714 N731 1.989 . S
Co714 O739 1.967 . S
Co714 O746 1.920 . S
Co715 O718 1.966 . S
Co715 N724 2.022 . S
Co715 N732 1.993 . S
Co715 O740 1.941 . S
C716 O717 1.258 . S
C716 O718 1.263 . S
O717 Co714 1.970 . S
O717 C716 1.258 . S
O718 Co715 1.966 . S
O718 C716 1.263 . S
C719 O720 1.235 . S
C719 O746 1.289 . S
O720 C719 1.235 . S
C721 C723 1.400 . S
C721 N724 1.351 . S
C721 C726 1.501 . S
C722 C723 1.387 . S
C722 N725 1.341 . S
C723 C721 1.400 . S
C723 C722 1.387 . S
N724 Co715 2.022 . S
N724 C721 1.351 . S
N724 N725 1.365 . S
N725 C722 1.341 . S
N725 N724 1.365 . S
N725 H745 0.862 . S
C726 C721 1.501 . S
C726 H727 0.961 . S
C726 H728 0.961 . S
C726 H729 0.960 . S
H727 C726 0.961 . S
H728 C726 0.961 . S
H729 C726 0.960 . S
C730 N731 1.342 . S
C730 C734 1.401 . S
C730 C735 1.499 . S
N731 Co714 1.989 . S
N731 C730 1.342 . S
N731 N732 1.388 . S
N732 Co715 1.993 . S
N732 N731 1.388 . S
N732 C733 1.346 . S
C733 N732 1.346 . S
C733 C734 1.396 . S
C733 C743 1.510 . S
C734 C730 1.401 . S
C734 C733 1.396 . S
C735 C730 1.499 . S
C735 H736 0.959 . S
C735 H737 0.960 . S
C735 H738 0.961 . S
H736 C735 0.959 . S
H737 C735 0.960 . S
H738 C735 0.961 . S
O739 Co714 1.967 . S
O739 C747 1.258 . S
O740 Co715 1.941 . S
O740 C747 1.266 . S
H741 C743 0.959 . S
H742 C743 0.961 . S
C743 C733 1.510 . S
C743 H741 0.959 . S
C743 H742 0.961 . S
C743 H744 0.960 . S
H744 C743 0.960 . S
H745 N725 0.862 . S
O746 Co714 1.920 . S
O746 C719 1.289 . S
C747 O739 1.258 . S
C747 O740 1.266 . S
Co748 O751 1.970 . S
Co748 N765 1.989 . S
Co748 O773 1.967 . S
Co748 O780 1.920 . S
Co749 O752 1.966 . S
Co749 N758 2.022 . S
Co749 N766 1.993 . S
Co749 O774 1.941 . S
C750 O751 1.258 . S
C750 O752 1.263 . S
O751 Co748 1.970 . S
O751 C750 1.258 . S
O752 Co749 1.966 . S
O752 C750 1.263 . S
C753 O754 1.235 . S
C753 O780 1.289 . S
O754 C753 1.235 . S
C755 C757 1.400 . S
C755 N758 1.351 . S
C755 C760 1.501 . S
C756 C757 1.387 . S
C756 N759 1.341 . S
C757 C755 1.400 . S
C757 C756 1.387 . S
N758 Co749 2.022 . S
N758 C755 1.351 . S
N758 N759 1.365 . S
N759 C756 1.341 . S
N759 N758 1.365 . S
N759 H779 0.862 . S
C760 C755 1.501 . S
C760 H761 0.961 . S
C760 H762 0.961 . S
C760 H763 0.960 . S
H761 C760 0.961 . S
H762 C760 0.961 . S
H763 C760 0.960 . S
C764 N765 1.342 . S
C764 C768 1.401 . S
C764 C769 1.499 . S
N765 Co748 1.989 . S
N765 C764 1.342 . S
N765 N766 1.388 . S
N766 Co749 1.993 . S
N766 N765 1.388 . S
N766 C767 1.346 . S
C767 N766 1.346 . S
C767 C768 1.396 . S
C767 C777 1.510 . S
C768 C764 1.401 . S
C768 C767 1.396 . S
C769 C764 1.499 . S
C769 H770 0.959 . S
C769 H771 0.960 . S
C769 H772 0.961 . S
H770 C769 0.959 . S
H771 C769 0.960 . S
H772 C769 0.961 . S
O773 Co748 1.967 . S
O773 C781 1.258 . S
O774 Co749 1.941 . S
O774 C781 1.266 . S
H775 C777 0.959 . S
H776 C777 0.961 . S
C777 C767 1.510 . S
C777 H775 0.959 . S
C777 H776 0.961 . S
C777 H778 0.960 . S
H778 C777 0.960 . S
H779 N759 0.862 . S
O780 Co748 1.920 . S
O780 C753 1.289 . S
C781 O773 1.258 . S
C781 O774 1.266 . S
Co782 O785 1.970 . S
Co782 N799 1.989 . S
Co782 O807 1.967 . S
Co782 O814 1.920 . S
Co783 O786 1.966 . S
Co783 N792 2.022 . S
Co783 N800 1.993 . S
Co783 O808 1.941 . S
C784 O785 1.258 . S
C784 O786 1.263 . S
O785 Co782 1.970 . S
O785 C784 1.258 . S
O786 Co783 1.966 . S
O786 C784 1.263 . S
C787 O788 1.235 . S
C787 O814 1.289 . S
O788 C787 1.235 . S
C789 C791 1.400 . S
C789 N792 1.351 . S
C789 C794 1.501 . S
C790 C791 1.387 . S
C790 N793 1.341 . S
C791 C789 1.400 . S
C791 C790 1.387 . S
N792 Co783 2.022 . S
N792 C789 1.351 . S
N792 N793 1.365 . S
N793 C790 1.341 . S
N793 N792 1.365 . S
N793 H813 0.862 . S
C794 C789 1.501 . S
C794 H795 0.961 . S
C794 H796 0.961 . S
C794 H797 0.960 . S
H795 C794 0.961 . S
H796 C794 0.961 . S
H797 C794 0.960 . S
C798 N799 1.342 . S
C798 C802 1.401 . S
C798 C803 1.499 . S
N799 Co782 1.989 . S
N799 C798 1.342 . S
N799 N800 1.388 . S
N800 Co783 1.993 . S
N800 N799 1.388 . S
N800 C801 1.346 . S
C801 N800 1.346 . S
C801 C802 1.396 . S
C801 C811 1.510 . S
C802 C798 1.401 . S
C802 C801 1.396 . S
C803 C798 1.499 . S
C803 H804 0.959 . S
C803 H805 0.960 . S
C803 H806 0.961 . S
H804 C803 0.959 . S
H805 C803 0.960 . S
H806 C803 0.961 . S
O807 Co782 1.967 . S
O807 C815 1.258 . S
O808 Co783 1.941 . S
O808 C815 1.266 . S
H809 C811 0.959 . S
H810 C811 0.961 . S
C811 C801 1.510 . S
C811 H809 0.959 . S
C811 H810 0.961 . S
C811 H812 0.960 . S
H812 C811 0.960 . S
H813 N793 0.862 . S
O814 Co782 1.920 . S
O814 C787 1.289 . S
C815 O807 1.258 . S
C815 O808 1.266 . S
C816 C817 1.369 . S
C816 C818 1.419 . S
C816 H820 0.930 . S
C817 C816 1.369 . S
C817 C826 1.429 . S
C818 C816 1.419 . S
C818 C819 1.363 . S
C818 H821 0.929 . S
C819 C818 1.363 . S
C819 C825 1.428 . S
H820 C816 0.930 . S
H821 C818 0.929 . S
S822 N823 1.613 . S
S822 N824 1.610 . S
N823 S822 1.613 . S
N823 C826 1.350 . S
N824 S822 1.610 . S
N824 C825 1.351 . S
C825 C819 1.428 . S
C825 N824 1.351 . S
C825 C826 1.434 . S
C826 C817 1.429 . S
C826 N823 1.350 . S
C826 C825 1.434 . S
C827 C828 1.369 . S
C827 C829 1.419 . S
C827 H831 0.930 . S
C828 C827 1.369 . S
C828 C837 1.429 . S
C829 C827 1.419 . S
C829 C830 1.363 . S
C829 H832 0.929 . S
C830 C829 1.363 . S
C830 C836 1.428 . S
H831 C827 0.930 . S
H832 C829 0.929 . S
S833 N834 1.613 . S
S833 N835 1.610 . S
N834 S833 1.613 . S
N834 C837 1.350 . S
N835 S833 1.610 . S
N835 C836 1.351 . S
C836 C830 1.428 . S
C836 N835 1.351 . S
C836 C837 1.434 . S
C837 C828 1.429 . S
C837 N834 1.350 . S
C837 C836 1.434 . S
C838 C839 1.369 . S
C838 C840 1.419 . S
C838 H842 0.930 . S
C839 C838 1.369 . S
C839 C848 1.429 . S
C840 C838 1.419 . S
C840 C841 1.363 . S
C840 H843 0.929 . S
C841 C840 1.363 . S
C841 C847 1.428 . S
H842 C838 0.930 . S
H843 C840 0.929 . S
S844 N845 1.613 . S
S844 N846 1.610 . S
N845 S844 1.613 . S
N845 C848 1.350 . S
N846 S844 1.610 . S
N846 C847 1.351 . S
C847 C841 1.428 . S
C847 N846 1.351 . S
C847 C848 1.434 . S
C848 C839 1.429 . S
C848 N845 1.350 . S
C848 C847 1.434 . S
C849 C850 1.369 . S
C849 C851 1.419 . S
C849 H853 0.930 . S
C850 C849 1.369 . S
C850 C859 1.429 . S
C851 C849 1.419 . S
C851 C852 1.363 . S
C851 H854 0.929 . S
C852 C851 1.363 . S
C852 C858 1.428 . S
H853 C849 0.930 . S
H854 C851 0.929 . S
S855 N856 1.613 . S
S855 N857 1.610 . S
N856 S855 1.613 . S
N856 C859 1.350 . S
N857 S855 1.610 . S
N857 C858 1.351 . S
C858 C852 1.428 . S
C858 N857 1.351 . S
C858 C859 1.434 . S
C859 C850 1.429 . S
C859 N856 1.350 . S
C859 C858 1.434 . S
C860 C861 1.369 . S
C860 C862 1.419 . S
C860 H864 0.930 . S
C861 C860 1.369 . S
C861 C870 1.429 . S
C862 C860 1.419 . S
C862 C863 1.363 . S
C862 H865 0.929 . S
C863 C862 1.363 . S
C863 C869 1.428 . S
H864 C860 0.930 . S
H865 C862 0.929 . S
S866 N867 1.613 . S
S866 N868 1.610 . S
N867 S866 1.613 . S
N867 C870 1.350 . S
N868 S866 1.610 . S
N868 C869 1.351 . S
C869 C863 1.428 . S
C869 N868 1.351 . S
C869 C870 1.434 . S
C870 C861 1.429 . S
C870 N867 1.350 . S
C870 C869 1.434 . S
C871 C872 1.369 . S
C871 C873 1.419 . S
C871 H875 0.930 . S
C872 C871 1.369 . S
C872 C881 1.429 . S
C873 C871 1.419 . S
C873 C874 1.363 . S
C873 H876 0.929 . S
C874 C873 1.363 . S
C874 C880 1.428 . S
H875 C871 0.930 . S
H876 C873 0.929 . S
S877 N878 1.613 . S
S877 N879 1.610 . S
N878 S877 1.613 . S
N878 C881 1.350 . S
N879 S877 1.610 . S
N879 C880 1.351 . S
C880 C874 1.428 . S
C880 N879 1.351 . S
C880 C881 1.434 . S
C881 C872 1.429 . S
C881 N878 1.350 . S
C881 C880 1.434 . S
C882 C883 1.369 . S
C882 C884 1.419 . S
C882 H886 0.930 . S
C883 C882 1.369 . S
C883 C892 1.429 . S
C884 C882 1.419 . S
C884 C885 1.363 . S
C884 H887 0.929 . S
C885 C884 1.363 . S
C885 C891 1.428 . S
H886 C882 0.930 . S
H887 C884 0.929 . S
S888 N889 1.613 . S
S888 N890 1.610 . S
N889 S888 1.613 . S
N889 C892 1.350 . S
N890 S888 1.610 . S
N890 C891 1.351 . S
C891 C885 1.428 . S
C891 N890 1.351 . S
C891 C892 1.434 . S
C892 C883 1.429 . S
C892 N889 1.350 . S
C892 C891 1.434 . S
C893 C894 1.369 . S
C893 C895 1.419 . S
C893 H897 0.930 . S
C894 C893 1.369 . S
C894 C903 1.429 . S
C895 C893 1.419 . S
C895 C896 1.363 . S
C895 H898 0.929 . S
C896 C895 1.363 . S
C896 C902 1.428 . S
H897 C893 0.930 . S
H898 C895 0.929 . S
S899 N900 1.613 . S
S899 N901 1.610 . S
N900 S899 1.613 . S
N900 C903 1.350 . S
N901 S899 1.610 . S
N901 C902 1.351 . S
C902 C896 1.428 . S
C902 N901 1.351 . S
C902 C903 1.434 . S
C903 C894 1.429 . S
C903 N900 1.350 . S
C903 C902 1.434 . S
C904 C905 1.369 . S
C904 C906 1.419 . S
C904 H908 0.930 . S
C905 C904 1.369 . S
C905 C914 1.429 . S
C906 C904 1.419 . S
C906 C907 1.363 . S
C906 H909 0.929 . S
C907 C906 1.363 . S
C907 C913 1.428 . S
H908 C904 0.930 . S
H909 C906 0.929 . S
S910 N911 1.613 . S
S910 N912 1.610 . S
N911 S910 1.613 . S
N911 C914 1.350 . S
N912 S910 1.610 . S
N912 C913 1.351 . S
C913 C907 1.428 . S
C913 N912 1.351 . S
C913 C914 1.434 . S
C914 C905 1.429 . S
C914 N911 1.350 . S
C914 C913 1.434 . S
C915 C916 1.369 . S
C915 C917 1.419 . S
C915 H919 0.930 . S
C916 C915 1.369 . S
C916 C925 1.429 . S
C917 C915 1.419 . S
C917 C918 1.363 . S
C917 H920 0.929 . S
C918 C917 1.363 . S
C918 C924 1.428 . S
H919 C915 0.930 . S
H920 C917 0.929 . S
S921 N922 1.613 . S
S921 N923 1.610 . S
N922 S921 1.613 . S
N922 C925 1.350 . S
N923 S921 1.610 . S
N923 C924 1.351 . S
C924 C918 1.428 . S
C924 N923 1.351 . S
C924 C925 1.434 . S
C925 C916 1.429 . S
C925 N922 1.350 . S
C925 C924 1.434 . S
C926 C927 1.369 . S
C926 C928 1.419 . S
C926 H930 0.930 . S
C927 C926 1.369 . S
C927 C936 1.429 . S
C928 C926 1.419 . S
C928 C929 1.363 . S
C928 H931 0.929 . S
C929 C928 1.363 . S
C929 C935 1.428 . S
H930 C926 0.930 . S
H931 C928 0.929 . S
S932 N933 1.613 . S
S932 N934 1.610 . S
N933 S932 1.613 . S
N933 C936 1.350 . S
N934 S932 1.610 . S
N934 C935 1.351 . S
C935 C929 1.428 . S
C935 N934 1.351 . S
C935 C936 1.434 . S
C936 C927 1.429 . S
C936 N933 1.350 . S
C936 C935 1.434 . S
C937 C938 1.369 . S
C937 C939 1.419 . S
C937 H941 0.930 . S
C938 C937 1.369 . S
C938 C947 1.429 . S
C939 C937 1.419 . S
C939 C940 1.363 . S
C939 H942 0.929 . S
C940 C939 1.363 . S
C940 C946 1.428 . S
H941 C937 0.930 . S
H942 C939 0.929 . S
S943 N944 1.613 . S
S943 N945 1.610 . S
N944 S943 1.613 . S
N944 C947 1.350 . S
N945 S943 1.610 . S
N945 C946 1.351 . S
C946 C940 1.428 . S
C946 N945 1.351 . S
C946 C947 1.434 . S
C947 C938 1.429 . S
C947 N944 1.350 . S
C947 C946 1.434 . S
C948 C949 1.369 . S
C948 C950 1.419 . S
C948 H952 0.930 . S
C949 C948 1.369 . S
C949 C958 1.429 . S
C950 C948 1.419 . S
C950 C951 1.363 . S
C950 H953 0.929 . S
C951 C950 1.363 . S
C951 C957 1.428 . S
H952 C948 0.930 . S
H953 C950 0.929 . S
S954 N955 1.613 . S
S954 N956 1.610 . S
N955 S954 1.613 . S
N955 C958 1.350 . S
N956 S954 1.610 . S
N956 C957 1.351 . S
C957 C951 1.428 . S
C957 N956 1.351 . S
C957 C958 1.434 . S
C958 C949 1.429 . S
C958 N955 1.350 . S
C958 C957 1.434 . S
C959 C960 1.369 . S
C959 C961 1.419 . S
C959 H963 0.930 . S
C960 C959 1.369 . S
C960 C969 1.429 . S
C961 C959 1.419 . S
C961 C962 1.363 . S
C961 H964 0.929 . S
C962 C961 1.363 . S
C962 C968 1.428 . S
H963 C959 0.930 . S
H964 C961 0.929 . S
S965 N966 1.613 . S
S965 N967 1.610 . S
N966 S965 1.613 . S
N966 C969 1.350 . S
N967 S965 1.610 . S
N967 C968 1.351 . S
C968 C962 1.428 . S
C968 N967 1.351 . S
C968 C969 1.434 . S
C969 C960 1.429 . S
C969 N966 1.350 . S
C969 C968 1.434 . S
C970 C971 1.369 . S
C970 C972 1.419 . S
C970 H974 0.930 . S
C971 C970 1.369 . S
C971 C980 1.429 . S
C972 C970 1.419 . S
C972 C973 1.363 . S
C972 H975 0.929 . S
C973 C972 1.363 . S
C973 C979 1.428 . S
H974 C970 0.930 . S
H975 C972 0.929 . S
S976 N977 1.613 . S
S976 N978 1.610 . S
N977 S976 1.613 . S
N977 C980 1.350 . S
N978 S976 1.610 . S
N978 C979 1.351 . S
C979 C973 1.428 . S
C979 N978 1.351 . S
C979 C980 1.434 . S
C980 C971 1.429 . S
C980 N977 1.350 . S
C980 C979 1.434 . S
C981 C982 1.369 . S
C981 C983 1.419 . S
C981 H985 0.930 . S
C982 C981 1.369 . S
C982 C991 1.429 . S
C983 C981 1.419 . S
C983 C984 1.363 . S
C983 H986 0.929 . S
C984 C983 1.363 . S
C984 C990 1.428 . S
H985 C981 0.930 . S
H986 C983 0.929 . S
S987 N988 1.613 . S
S987 N989 1.610 . S
N988 S987 1.613 . S
N988 C991 1.350 . S
N989 S987 1.610 . S
N989 C990 1.351 . S
C990 C984 1.428 . S
C990 N989 1.351 . S
C990 C991 1.434 . S
C991 C982 1.429 . S
C991 N988 1.350 . S
C991 C990 1.434 . S
C992 C993 1.369 . S
C992 C994 1.419 . S
C992 H996 0.930 . S
C993 C992 1.369 . S
C993 C1002 1.429 . S
C994 C992 1.419 . S
C994 C995 1.363 . S
C994 H997 0.929 . S
C995 C994 1.363 . S
C995 C1001 1.428 . S
H996 C992 0.930 . S
H997 C994 0.929 . S
S998 N999 1.613 . S
S998 N1000 1.610 . S
N999 S998 1.613 . S
N999 C1002 1.350 . S
N1000 S998 1.610 . S
N1000 C1001 1.351 . S
C1001 C995 1.428 . S
C1001 N1000 1.351 . S
C1001 C1002 1.434 . S
C1002 C993 1.429 . S
C1002 N999 1.350 . S
C1002 C1001 1.434 . S
C1003 C1004 1.369 . S
C1003 C1005 1.419 . S
C1003 H1007 0.930 . S
C1004 C1003 1.369 . S
C1004 C1013 1.429 . S
C1005 C1003 1.419 . S
C1005 C1006 1.363 . S
C1005 H1008 0.929 . S
C1006 C1005 1.363 . S
C1006 C1012 1.428 . S
H1007 C1003 0.930 . S
H1008 C1005 0.929 . S
S1009 N1010 1.613 . S
S1009 N1011 1.610 . S
N1010 S1009 1.613 . S
N1010 C1013 1.350 . S
N1011 S1009 1.610 . S
N1011 C1012 1.351 . S
C1012 C1006 1.428 . S
C1012 N1011 1.351 . S
C1012 C1013 1.434 . S
C1013 C1004 1.429 . S
C1013 N1010 1.350 . S
C1013 C1012 1.434 . S
C1014 C1015 1.369 . S
C1014 C1016 1.419 . S
C1014 H1018 0.930 . S
C1015 C1014 1.369 . S
C1015 C1024 1.429 . S
C1016 C1014 1.419 . S
C1016 C1017 1.363 . S
C1016 H1019 0.929 . S
C1017 C1016 1.363 . S
C1017 C1023 1.428 . S
H1018 C1014 0.930 . S
H1019 C1016 0.929 . S
S1020 N1021 1.613 . S
S1020 N1022 1.610 . S
N1021 S1020 1.613 . S
N1021 C1024 1.350 . S
N1022 S1020 1.610 . S
N1022 C1023 1.351 . S
C1023 C1017 1.428 . S
C1023 N1022 1.351 . S
C1023 C1024 1.434 . S
C1024 C1015 1.429 . S
C1024 N1021 1.350 . S
C1024 C1023 1.434 . S
C1025 C1026 1.369 . S
C1025 C1027 1.419 . S
C1025 H1029 0.930 . S
C1026 C1025 1.369 . S
C1026 C1035 1.429 . S
C1027 C1025 1.419 . S
C1027 C1028 1.363 . S
C1027 H1030 0.929 . S
C1028 C1027 1.363 . S
C1028 C1034 1.428 . S
H1029 C1025 0.930 . S
H1030 C1027 0.929 . S
S1031 N1032 1.613 . S
S1031 N1033 1.610 . S
N1032 S1031 1.613 . S
N1032 C1035 1.350 . S
N1033 S1031 1.610 . S
N1033 C1034 1.351 . S
C1034 C1028 1.428 . S
C1034 N1033 1.351 . S
C1034 C1035 1.434 . S
C1035 C1026 1.429 . S
C1035 N1032 1.350 . S
C1035 C1034 1.434 . S
C1036 C1037 1.369 . S
C1036 C1038 1.419 . S
C1036 H1040 0.930 . S
C1037 C1036 1.369 . S
C1037 C1046 1.429 . S
C1038 C1036 1.419 . S
C1038 C1039 1.363 . S
C1038 H1041 0.929 . S
C1039 C1038 1.363 . S
C1039 C1045 1.428 . S
H1040 C1036 0.930 . S
H1041 C1038 0.929 . S
S1042 N1043 1.613 . S
S1042 N1044 1.610 . S
N1043 S1042 1.613 . S
N1043 C1046 1.350 . S
N1044 S1042 1.610 . S
N1044 C1045 1.351 . S
C1045 C1039 1.428 . S
C1045 N1044 1.351 . S
C1045 C1046 1.434 . S
C1046 C1037 1.429 . S
C1046 N1043 1.350 . S
C1046 C1045 1.434 . S
C1047 C1048 1.369 . S
C1047 C1049 1.419 . S
C1047 H1051 0.930 . S
C1048 C1047 1.369 . S
C1048 C1057 1.429 . S
C1049 C1047 1.419 . S
C1049 C1050 1.363 . S
C1049 H1052 0.929 . S
C1050 C1049 1.363 . S
C1050 C1056 1.428 . S
H1051 C1047 0.930 . S
H1052 C1049 0.929 . S
S1053 N1054 1.613 . S
S1053 N1055 1.610 . S
N1054 S1053 1.613 . S
N1054 C1057 1.350 . S
N1055 S1053 1.610 . S
N1055 C1056 1.351 . S
C1056 C1050 1.428 . S
C1056 N1055 1.351 . S
C1056 C1057 1.434 . S
C1057 C1048 1.429 . S
C1057 N1054 1.350 . S
C1057 C1056 1.434 . S
C1058 C1059 1.369 . S
C1058 C1060 1.419 . S
C1058 H1062 0.930 . S
C1059 C1058 1.369 . S
C1059 C1068 1.429 . S
C1060 C1058 1.419 . S
C1060 C1061 1.363 . S
C1060 H1063 0.929 . S
C1061 C1060 1.363 . S
C1061 C1067 1.428 . S
H1062 C1058 0.930 . S
H1063 C1060 0.929 . S
S1064 N1065 1.613 . S
S1064 N1066 1.610 . S
N1065 S1064 1.613 . S
N1065 C1068 1.350 . S
N1066 S1064 1.610 . S
N1066 C1067 1.351 . S
C1067 C1061 1.428 . S
C1067 N1066 1.351 . S
C1067 C1068 1.434 . S
C1068 C1059 1.429 . S
C1068 N1065 1.350 . S
C1068 C1067 1.434 . S
C1069 C1070 1.369 . S
C1069 C1071 1.419 . S
C1069 H1073 0.930 . S
C1070 C1069 1.369 . S
C1070 C1079 1.429 . S
C1071 C1069 1.419 . S
C1071 C1072 1.363 . S
C1071 H1074 0.929 . S
C1072 C1071 1.363 . S
C1072 C1078 1.428 . S
H1073 C1069 0.930 . S
H1074 C1071 0.929 . S
S1075 N1076 1.613 . S
S1075 N1077 1.610 . S
N1076 S1075 1.613 . S
N1076 C1079 1.350 . S
N1077 S1075 1.610 . S
N1077 C1078 1.351 . S
C1078 C1072 1.428 . S
C1078 N1077 1.351 . S
C1078 C1079 1.434 . S
C1079 C1070 1.429 . S
C1079 N1076 1.350 . S
C1079 C1078 1.434 . S
C1080 C1081 1.369 . S
C1080 C1082 1.419 . S
C1080 H1084 0.930 . S
C1081 C1080 1.369 . S
C1081 C1090 1.429 . S
C1082 C1080 1.419 . S
C1082 C1083 1.363 . S
C1082 H1085 0.929 . S
C1083 C1082 1.363 . S
C1083 C1089 1.428 . S
H1084 C1080 0.930 . S
H1085 C1082 0.929 . S
S1086 N1087 1.613 . S
S1086 N1088 1.610 . S
N1087 S1086 1.613 . S
N1087 C1090 1.350 . S
N1088 S1086 1.610 . S
N1088 C1089 1.351 . S
C1089 C1083 1.428 . S
C1089 N1088 1.351 . S
C1089 C1090 1.434 . S
C1090 C1081 1.429 . S
C1090 N1087 1.350 . S
C1090 C1089 1.434 . S
C1091 C1092 1.369 . S
C1091 C1093 1.419 . S
C1091 H1095 0.930 . S
C1092 C1091 1.369 . S
C1092 C1101 1.429 . S
C1093 C1091 1.419 . S
C1093 C1094 1.363 . S
C1093 H1096 0.929 . S
C1094 C1093 1.363 . S
C1094 C1100 1.428 . S
H1095 C1091 0.930 . S
H1096 C1093 0.929 . S
S1097 N1098 1.613 . S
S1097 N1099 1.610 . S
N1098 S1097 1.613 . S
N1098 C1101 1.350 . S
N1099 S1097 1.610 . S
N1099 C1100 1.351 . S
C1100 C1094 1.428 . S
C1100 N1099 1.351 . S
C1100 C1101 1.434 . S
C1101 C1092 1.429 . S
C1101 N1098 1.350 . S
C1101 C1100 1.434 . S
C1102 C1103 1.369 . S
C1102 C1104 1.419 . S
C1102 H1106 0.930 . S
C1103 C1102 1.369 . S
C1103 C1112 1.429 . S
C1104 C1102 1.419 . S
C1104 C1105 1.363 . S
C1104 H1107 0.929 . S
C1105 C1104 1.363 . S
C1105 C1111 1.428 . S
H1106 C1102 0.930 . S
H1107 C1104 0.929 . S
S1108 N1109 1.613 . S
S1108 N1110 1.610 . S
N1109 S1108 1.613 . S
N1109 C1112 1.350 . S
N1110 S1108 1.610 . S
N1110 C1111 1.351 . S
C1111 C1105 1.428 . S
C1111 N1110 1.351 . S
C1111 C1112 1.434 . S
C1112 C1103 1.429 . S
C1112 N1109 1.350 . S
C1112 C1111 1.434 . S
C1113 C1114 1.369 . S
C1113 C1115 1.419 . S
C1113 H1117 0.930 . S
C1114 C1113 1.369 . S
C1114 C1123 1.429 . S
C1115 C1113 1.419 . S
C1115 C1116 1.363 . S
C1115 H1118 0.929 . S
C1116 C1115 1.363 . S
C1116 C1122 1.428 . S
H1117 C1113 0.930 . S
H1118 C1115 0.929 . S
S1119 N1120 1.613 . S
S1119 N1121 1.610 . S
N1120 S1119 1.613 . S
N1120 C1123 1.350 . S
N1121 S1119 1.610 . S
N1121 C1122 1.351 . S
C1122 C1116 1.428 . S
C1122 N1121 1.351 . S
C1122 C1123 1.434 . S
C1123 C1114 1.429 . S
C1123 N1120 1.350 . S
C1123 C1122 1.434 . S
C1124 C1125 1.369 . S
C1124 C1126 1.419 . S
C1124 H1128 0.930 . S
C1125 C1124 1.369 . S
C1125 C1134 1.429 . S
C1126 C1124 1.419 . S
C1126 C1127 1.363 . S
C1126 H1129 0.929 . S
C1127 C1126 1.363 . S
C1127 C1133 1.428 . S
H1128 C1124 0.930 . S
H1129 C1126 0.929 . S
S1130 N1131 1.613 . S
S1130 N1132 1.610 . S
N1131 S1130 1.613 . S
N1131 C1134 1.350 . S
N1132 S1130 1.610 . S
N1132 C1133 1.351 . S
C1133 C1127 1.428 . S
C1133 N1132 1.351 . S
C1133 C1134 1.434 . S
C1134 C1125 1.429 . S
C1134 N1131 1.350 . S
C1134 C1133 1.434 . S
C1135 C1136 1.369 . S
C1135 C1137 1.419 . S
C1135 H1139 0.930 . S
C1136 C1135 1.369 . S
C1136 C1145 1.429 . S
C1137 C1135 1.419 . S
C1137 C1138 1.363 . S
C1137 H1140 0.929 . S
C1138 C1137 1.363 . S
C1138 C1144 1.428 . S
H1139 C1135 0.930 . S
H1140 C1137 0.929 . S
S1141 N1142 1.613 . S
S1141 N1143 1.610 . S
N1142 S1141 1.613 . S
N1142 C1145 1.350 . S
N1143 S1141 1.610 . S
N1143 C1144 1.351 . S
C1144 C1138 1.428 . S
C1144 N1143 1.351 . S
C1144 C1145 1.434 . S
C1145 C1136 1.429 . S
C1145 N1142 1.350 . S
C1145 C1144 1.434 . S
C1146 C1147 1.369 . S
C1146 C1148 1.419 . S
C1146 H1150 0.930 . S
C1147 C1146 1.369 . S
C1147 C1156 1.429 . S
C1148 C1146 1.419 . S
C1148 C1149 1.363 . S
C1148 H1151 0.929 . S
C1149 C1148 1.363 . S
C1149 C1155 1.428 . S
H1150 C1146 0.930 . S
H1151 C1148 0.929 . S
S1152 N1153 1.613 . S
S1152 N1154 1.610 . S
N1153 S1152 1.613 . S
N1153 C1156 1.350 . S
N1154 S1152 1.610 . S
N1154 C1155 1.351 . S
C1155 C1149 1.428 . S
C1155 N1154 1.351 . S
C1155 C1156 1.434 . S
C1156 C1147 1.429 . S
C1156 N1153 1.350 . S
C1156 C1155 1.434 . S
C1157 C1158 1.369 . S
C1157 C1159 1.419 . S
C1157 H1161 0.930 . S
C1158 C1157 1.369 . S
C1158 C1167 1.429 . S
C1159 C1157 1.419 . S
C1159 C1160 1.363 . S
C1159 H1162 0.929 . S
C1160 C1159 1.363 . S
C1160 C1166 1.428 . S
H1161 C1157 0.930 . S
H1162 C1159 0.929 . S
S1163 N1164 1.613 . S
S1163 N1165 1.610 . S
N1164 S1163 1.613 . S
N1164 C1167 1.350 . S
N1165 S1163 1.610 . S
N1165 C1166 1.351 . S
C1166 C1160 1.428 . S
C1166 N1165 1.351 . S
C1166 C1167 1.434 . S
C1167 C1158 1.429 . S
C1167 N1164 1.350 . S
C1167 C1166 1.434 . S
C1168 C1169 1.369 . S
C1168 C1170 1.419 . S
C1168 H1172 0.930 . S
C1169 C1168 1.369 . S
C1169 C1178 1.429 . S
C1170 C1168 1.419 . S
C1170 C1171 1.363 . S
C1170 H1173 0.929 . S
C1171 C1170 1.363 . S
C1171 C1177 1.428 . S
H1172 C1168 0.930 . S
H1173 C1170 0.929 . S
S1174 N1175 1.613 . S
S1174 N1176 1.610 . S
N1175 S1174 1.613 . S
N1175 C1178 1.350 . S
N1176 S1174 1.610 . S
N1176 C1177 1.351 . S
C1177 C1171 1.428 . S
C1177 N1176 1.351 . S
C1177 C1178 1.434 . S
C1178 C1169 1.429 . S
C1178 N1175 1.350 . S
C1178 C1177 1.434 . S
C1179 C1180 1.369 . S
C1179 C1181 1.419 . S
C1179 H1183 0.930 . S
C1180 C1179 1.369 . S
C1180 C1189 1.429 . S
C1181 C1179 1.419 . S
C1181 C1182 1.363 . S
C1181 H1184 0.929 . S
C1182 C1181 1.363 . S
C1182 C1188 1.428 . S
H1183 C1179 0.930 . S
H1184 C1181 0.929 . S
S1185 N1186 1.613 . S
S1185 N1187 1.610 . S
N1186 S1185 1.613 . S
N1186 C1189 1.350 . S
N1187 S1185 1.610 . S
N1187 C1188 1.351 . S
C1188 C1182 1.428 . S
C1188 N1187 1.351 . S
C1188 C1189 1.434 . S
C1189 C1180 1.429 . S
C1189 N1186 1.350 . S
C1189 C1188 1.434 . S
C1190 C1191 1.369 . S
C1190 C1192 1.419 . S
C1190 H1194 0.930 . S
C1191 C1190 1.369 . S
C1191 C1200 1.429 . S
C1192 C1190 1.419 . S
C1192 C1193 1.363 . S
C1192 H1195 0.929 . S
C1193 C1192 1.363 . S
C1193 C1199 1.428 . S
H1194 C1190 0.930 . S
H1195 C1192 0.929 . S
S1196 N1197 1.613 . S
S1196 N1198 1.610 . S
N1197 S1196 1.613 . S
N1197 C1200 1.350 . S
N1198 S1196 1.610 . S
N1198 C1199 1.351 . S
C1199 C1193 1.428 . S
C1199 N1198 1.351 . S
C1199 C1200 1.434 . S
C1200 C1191 1.429 . S
C1200 N1197 1.350 . S
C1200 C1199 1.434 . S
C1201 C1202 1.369 . S
C1201 C1203 1.419 . S
C1201 H1205 0.930 . S
C1202 C1201 1.369 . S
C1202 C1211 1.429 . S
C1203 C1201 1.419 . S
C1203 C1204 1.363 . S
C1203 H1206 0.929 . S
C1204 C1203 1.363 . S
C1204 C1210 1.428 . S
H1205 C1201 0.930 . S
H1206 C1203 0.929 . S
S1207 N1208 1.613 . S
S1207 N1209 1.610 . S
N1208 S1207 1.613 . S
N1208 C1211 1.350 . S
N1209 S1207 1.610 . S
N1209 C1210 1.351 . S
C1210 C1204 1.428 . S
C1210 N1209 1.351 . S
C1210 C1211 1.434 . S
C1211 C1202 1.429 . S
C1211 N1208 1.350 . S
C1211 C1210 1.434 . S
C1212 C1213 1.369 . S
C1212 C1214 1.419 . S
C1212 H1216 0.930 . S
C1213 C1212 1.369 . S
C1213 C1222 1.429 . S
C1214 C1212 1.419 . S
C1214 C1215 1.363 . S
C1214 H1217 0.929 . S
C1215 C1214 1.363 . S
C1215 C1221 1.428 . S
H1216 C1212 0.930 . S
H1217 C1214 0.929 . S
S1218 N1219 1.613 . S
S1218 N1220 1.610 . S
N1219 S1218 1.613 . S
N1219 C1222 1.350 . S
N1220 S1218 1.610 . S
N1220 C1221 1.351 . S
C1221 C1215 1.428 . S
C1221 N1220 1.351 . S
C1221 C1222 1.434 . S
C1222 C1213 1.429 . S
C1222 N1219 1.350 . S
C1222 C1221 1.434 . S
C1223 C1224 1.369 . S
C1223 C1225 1.419 . S
C1223 H1227 0.930 . S
C1224 C1223 1.369 . S
C1224 C1233 1.429 . S
C1225 C1223 1.419 . S
C1225 C1226 1.363 . S
C1225 H1228 0.929 . S
C1226 C1225 1.363 . S
C1226 C1232 1.428 . S
H1227 C1223 0.930 . S
H1228 C1225 0.929 . S
S1229 N1230 1.613 . S
S1229 N1231 1.610 . S
N1230 S1229 1.613 . S
N1230 C1233 1.350 . S
N1231 S1229 1.610 . S
N1231 C1232 1.351 . S
C1232 C1226 1.428 . S
C1232 N1231 1.351 . S
C1232 C1233 1.434 . S
C1233 C1224 1.429 . S
C1233 N1230 1.350 . S
C1233 C1232 1.434 . S
C1234 C1235 1.369 . S
C1234 C1236 1.419 . S
C1234 H1238 0.930 . S
C1235 C1234 1.369 . S
C1235 C1244 1.429 . S
C1236 C1234 1.419 . S
C1236 C1237 1.363 . S
C1236 H1239 0.929 . S
C1237 C1236 1.363 . S
C1237 C1243 1.428 . S
H1238 C1234 0.930 . S
H1239 C1236 0.929 . S
S1240 N1241 1.613 . S
S1240 N1242 1.610 . S
N1241 S1240 1.613 . S
N1241 C1244 1.350 . S
N1242 S1240 1.610 . S
N1242 C1243 1.351 . S
C1243 C1237 1.428 . S
C1243 N1242 1.351 . S
C1243 C1244 1.434 . S
C1244 C1235 1.429 . S
C1244 N1241 1.350 . S
C1244 C1243 1.434 . S
C1245 C1246 1.369 . S
C1245 C1247 1.419 . S
C1245 H1249 0.930 . S
C1246 C1245 1.369 . S
C1246 C1255 1.429 . S
C1247 C1245 1.419 . S
C1247 C1248 1.363 . S
C1247 H1250 0.929 . S
C1248 C1247 1.363 . S
C1248 C1254 1.428 . S
H1249 C1245 0.930 . S
H1250 C1247 0.929 . S
S1251 N1252 1.613 . S
S1251 N1253 1.610 . S
N1252 S1251 1.613 . S
N1252 C1255 1.350 . S
N1253 S1251 1.610 . S
N1253 C1254 1.351 . S
C1254 C1248 1.428 . S
C1254 N1253 1.351 . S
C1254 C1255 1.434 . S
C1255 C1246 1.429 . S
C1255 N1252 1.350 . S
C1255 C1254 1.434 . S
C1256 C1257 1.369 . S
C1256 C1258 1.419 . S
C1256 H1260 0.930 . S
C1257 C1256 1.369 . S
C1257 C1266 1.429 . S
C1258 C1256 1.419 . S
C1258 C1259 1.363 . S
C1258 H1261 0.929 . S
C1259 C1258 1.363 . S
C1259 C1265 1.428 . S
H1260 C1256 0.930 . S
H1261 C1258 0.929 . S
S1262 N1263 1.613 . S
S1262 N1264 1.610 . S
N1263 S1262 1.613 . S
N1263 C1266 1.350 . S
N1264 S1262 1.610 . S
N1264 C1265 1.351 . S
C1265 C1259 1.428 . S
C1265 N1264 1.351 . S
C1265 C1266 1.434 . S
C1266 C1257 1.429 . S
C1266 N1263 1.350 . S
C1266 C1265 1.434 . S
C1267 C1268 1.369 . S
C1267 C1269 1.419 . S
C1267 H1271 0.930 . S
C1268 C1267 1.369 . S
C1268 C1277 1.429 . S
C1269 C1267 1.419 . S
C1269 C1270 1.363 . S
C1269 H1272 0.929 . S
C1270 C1269 1.363 . S
C1270 C1276 1.428 . S
H1271 C1267 0.930 . S
H1272 C1269 0.929 . S
S1273 N1274 1.613 . S
S1273 N1275 1.610 . S
N1274 S1273 1.613 . S
N1274 C1277 1.350 . S
N1275 S1273 1.610 . S
N1275 C1276 1.351 . S
C1276 C1270 1.428 . S
C1276 N1275 1.351 . S
C1276 C1277 1.434 . S
C1277 C1268 1.429 . S
C1277 N1274 1.350 . S
C1277 C1276 1.434 . S
C1278 C1279 1.369 . S
C1278 C1280 1.419 . S
C1278 H1282 0.930 . S
C1279 C1278 1.369 . S
C1279 C1288 1.429 . S
C1280 C1278 1.419 . S
C1280 C1281 1.363 . S
C1280 H1283 0.929 . S
C1281 C1280 1.363 . S
C1281 C1287 1.428 . S
H1282 C1278 0.930 . S
H1283 C1280 0.929 . S
S1284 N1285 1.613 . S
S1284 N1286 1.610 . S
N1285 S1284 1.613 . S
N1285 C1288 1.350 . S
N1286 S1284 1.610 . S
N1286 C1287 1.351 . S
C1287 C1281 1.428 . S
C1287 N1286 1.351 . S
C1287 C1288 1.434 . S
C1288 C1279 1.429 . S
C1288 N1285 1.350 . S
C1288 C1287 1.434 . S
C1289 C1290 1.369 . S
C1289 C1291 1.419 . S
C1289 H1293 0.930 . S
C1290 C1289 1.369 . S
C1290 C1299 1.429 . S
C1291 C1289 1.419 . S
C1291 C1292 1.363 . S
C1291 H1294 0.929 . S
C1292 C1291 1.363 . S
C1292 C1298 1.428 . S
H1293 C1289 0.930 . S
H1294 C1291 0.929 . S
S1295 N1296 1.613 . S
S1295 N1297 1.610 . S
N1296 S1295 1.613 . S
N1296 C1299 1.350 . S
N1297 S1295 1.610 . S
N1297 C1298 1.351 . S
C1298 C1292 1.428 . S
C1298 N1297 1.351 . S
C1298 C1299 1.434 . S
C1299 C1290 1.429 . S
C1299 N1296 1.350 . S
C1299 C1298 1.434 . S
C1300 C1301 1.369 . S
C1300 C1302 1.419 . S
C1300 H1304 0.930 . S
C1301 C1300 1.369 . S
C1301 C1310 1.429 . S
C1302 C1300 1.419 . S
C1302 C1303 1.363 . S
C1302 H1305 0.929 . S
C1303 C1302 1.363 . S
C1303 C1309 1.428 . S
H1304 C1300 0.930 . S
H1305 C1302 0.929 . S
S1306 N1307 1.613 . S
S1306 N1308 1.610 . S
N1307 S1306 1.613 . S
N1307 C1310 1.350 . S
N1308 S1306 1.610 . S
N1308 C1309 1.351 . S
C1309 C1303 1.428 . S
C1309 N1308 1.351 . S
C1309 C1310 1.434 . S
C1310 C1301 1.429 . S
C1310 N1307 1.350 . S
C1310 C1309 1.434 . S
C1311 C1312 1.369 . S
C1311 C1313 1.419 . S
C1311 H1315 0.930 . S
C1312 C1311 1.369 . S
C1312 C1321 1.429 . S
C1313 C1311 1.419 . S
C1313 C1314 1.363 . S
C1313 H1316 0.929 . S
C1314 C1313 1.363 . S
C1314 C1320 1.428 . S
H1315 C1311 0.930 . S
H1316 C1313 0.929 . S
S1317 N1318 1.613 . S
S1317 N1319 1.610 . S
N1318 S1317 1.613 . S
N1318 C1321 1.350 . S
N1319 S1317 1.610 . S
N1319 C1320 1.351 . S
C1320 C1314 1.428 . S
C1320 N1319 1.351 . S
C1320 C1321 1.434 . S
C1321 C1312 1.429 . S
C1321 N1318 1.350 . S
C1321 C1320 1.434 . S
C1322 C1323 1.369 . S
C1322 C1324 1.419 . S
C1322 H1326 0.930 . S
C1323 C1322 1.369 . S
C1323 C1332 1.429 . S
C1324 C1322 1.419 . S
C1324 C1325 1.363 . S
C1324 H1327 0.929 . S
C1325 C1324 1.363 . S
C1325 C1331 1.428 . S
H1326 C1322 0.930 . S
H1327 C1324 0.929 . S
S1328 N1329 1.613 . S
S1328 N1330 1.610 . S
N1329 S1328 1.613 . S
N1329 C1332 1.350 . S
N1330 S1328 1.610 . S
N1330 C1331 1.351 . S
C1331 C1325 1.428 . S
C1331 N1330 1.351 . S
C1331 C1332 1.434 . S
C1332 C1323 1.429 . S
C1332 N1329 1.350 . S
C1332 C1331 1.434 . S
C1333 C1334 1.369 . S
C1333 C1335 1.419 . S
C1333 H1337 0.930 . S
C1334 C1333 1.369 . S
C1334 C1343 1.429 . S
C1335 C1333 1.419 . S
C1335 C1336 1.363 . S
C1335 H1338 0.929 . S
C1336 C1335 1.363 . S
C1336 C1342 1.428 . S
H1337 C1333 0.930 . S
H1338 C1335 0.929 . S
S1339 N1340 1.613 . S
S1339 N1341 1.610 . S
N1340 S1339 1.613 . S
N1340 C1343 1.350 . S
N1341 S1339 1.610 . S
N1341 C1342 1.351 . S
C1342 C1336 1.428 . S
C1342 N1341 1.351 . S
C1342 C1343 1.434 . S
C1343 C1334 1.429 . S
C1343 N1340 1.350 . S
C1343 C1342 1.434 . S
C1344 C1345 1.369 . S
C1344 C1346 1.419 . S
C1344 H1348 0.930 . S
C1345 C1344 1.369 . S
C1345 C1354 1.429 1_455 S
C1346 C1344 1.419 . S
C1346 C1347 1.363 . S
C1346 H1349 0.929 . S
C1347 C1346 1.363 . S
C1347 C1353 1.428 1_455 S
H1348 C1344 0.930 . S
H1349 C1346 0.929 . S
S1350 N1351 1.613 . S
S1350 N1352 1.610 . S
N1351 S1350 1.613 . S
N1351 C1354 1.350 . S
N1352 S1350 1.610 . S
N1352 C1353 1.351 . S
C1353 C1347 1.428 1_655 S
C1353 N1352 1.351 . S
C1353 C1354 1.434 . S
C1354 C1345 1.429 1_655 S
C1354 N1351 1.350 . S
C1354 C1353 1.434 . S
C1355 C1356 1.369 . S
C1355 C1357 1.419 . S
C1355 H1359 0.930 . S
C1356 C1355 1.369 . S
C1356 C1365 1.429 . S
C1357 C1355 1.419 . S
C1357 C1358 1.363 . S
C1357 H1360 0.929 . S
C1358 C1357 1.363 . S
C1358 C1364 1.428 . S
H1359 C1355 0.930 . S
H1360 C1357 0.929 . S
S1361 N1362 1.613 . S
S1361 N1363 1.610 . S
N1362 S1361 1.613 . S
N1362 C1365 1.350 . S
N1363 S1361 1.610 . S
N1363 C1364 1.351 . S
C1364 C1358 1.428 . S
C1364 N1363 1.351 . S
C1364 C1365 1.434 . S
C1365 C1356 1.429 . S
C1365 N1362 1.350 . S
C1365 C1364 1.434 . S
C1366 C1367 1.369 . S
C1366 C1368 1.419 . S
C1366 H1370 0.930 . S
C1367 C1366 1.369 . S
C1367 C1376 1.429 1_545 S
C1368 C1366 1.419 . S
C1368 C1369 1.363 . S
C1368 H1371 0.929 . S
C1369 C1368 1.363 . S
C1369 C1375 1.428 1_545 S
H1370 C1366 0.930 . S
H1371 C1368 0.929 . S
S1372 N1373 1.613 . S
S1372 N1374 1.610 . S
N1373 S1372 1.613 . S
N1373 C1376 1.350 . S
N1374 S1372 1.610 . S
N1374 C1375 1.351 . S
C1375 C1369 1.428 1_565 S
C1375 N1374 1.351 . S
C1375 C1376 1.434 . S
C1376 C1367 1.429 1_565 S
C1376 N1373 1.350 . S
C1376 C1375 1.434 . S
C1377 C1378 1.369 1_565 S
C1377 C1379 1.419 . S
C1377 H1381 0.930 . S
C1378 C1377 1.369 1_545 S
C1378 C1387 1.429 . S
C1379 C1377 1.419 . S
C1379 C1380 1.363 1_565 S
C1379 H1382 0.929 . S
C1380 C1379 1.363 1_545 S
C1380 C1386 1.428 . S
H1381 C1377 0.930 . S
H1382 C1379 0.929 . S
S1383 N1384 1.613 . S
S1383 N1385 1.610 . S
N1384 S1383 1.613 . S
N1384 C1387 1.350 . S
N1385 S1383 1.610 . S
N1385 C1386 1.351 . S
C1386 C1380 1.428 . S
C1386 N1385 1.351 . S
C1386 C1387 1.434 . S
C1387 C1378 1.429 . S
C1387 N1384 1.350 . S
C1387 C1386 1.434 . S
C1388 C1389 1.369 . S
C1388 C1390 1.419 1_554 S
C1388 H1392 0.930 1_554 S
C1389 C1388 1.369 . S
C1389 C1398 1.429 . S
C1390 C1388 1.419 1_556 S
C1390 C1391 1.363 1_556 S
C1390 H1393 0.929 . S
C1391 C1390 1.363 1_554 S
C1391 C1397 1.428 . S
H1392 C1388 0.930 1_556 S
H1393 C1390 0.929 . S
S1394 N1395 1.613 . S
S1394 N1396 1.610 . S
N1395 S1394 1.613 . S
N1395 C1398 1.350 . S
N1396 S1394 1.610 . S
N1396 C1397 1.351 . S
C1397 C1391 1.428 . S
C1397 N1396 1.351 . S
C1397 C1398 1.434 . S
C1398 C1389 1.429 . S
C1398 N1395 1.350 . S
C1398 C1397 1.434 . S
C1399 C1400 1.369 . S
C1399 C1401 1.419 . S
C1399 H1403 0.930 . S
C1400 C1399 1.369 . S
C1400 C1409 1.429 1_554 S
C1401 C1399 1.419 . S
C1401 C1402 1.363 . S
C1401 H1404 0.929 . S
C1402 C1401 1.363 . S
C1402 C1408 1.428 1_554 S
H1403 C1399 0.930 . S
H1404 C1401 0.929 . S
S1405 N1406 1.613 . S
S1405 N1407 1.610 . S
N1406 S1405 1.613 . S
N1406 C1409 1.350 . S
N1407 S1405 1.610 . S
N1407 C1408 1.351 . S
C1408 C1402 1.428 1_556 S
C1408 N1407 1.351 . S
C1408 C1409 1.434 . S
C1409 C1400 1.429 1_556 S
C1409 N1406 1.350 . S
C1409 C1408 1.434 . S
C1410 C1411 1.369 . S
C1410 C1412 1.420 . S
C1410 H1414 0.930 . S
C1411 C1410 1.369 . S
C1411 C1420 1.429 . S
C1412 C1410 1.420 . S
C1412 C1413 1.362 1_545 S
C1412 H1415 0.929 1_545 S
C1413 C1412 1.362 1_565 S
C1413 C1419 1.428 . S
H1414 C1410 0.930 . S
H1415 C1412 0.929 1_565 S
S1416 N1417 1.613 . S
S1416 N1418 1.610 1_545 S
N1417 S1416 1.613 . S
N1417 C1420 1.350 . S
N1418 S1416 1.610 1_565 S
N1418 C1419 1.351 . S
C1419 C1413 1.428 . S
C1419 N1418 1.351 . S
C1419 C1420 1.434 1_565 S
C1420 C1411 1.429 . S
C1420 N1417 1.350 . S
C1420 C1419 1.434 1_545 S
C1421 C1422 1.369 . S
C1421 C1423 1.419 1_565 S
C1421 H1425 0.930 . S
C1422 C1421 1.369 . S
C1422 C1431 1.429 1_565 S
C1423 C1421 1.419 1_545 S
C1423 C1424 1.363 . S
C1423 H1426 0.929 . S
C1424 C1423 1.363 . S
C1424 C1430 1.428 . S
H1425 C1421 0.930 . S
H1426 C1423 0.929 . S
S1427 N1428 1.613 1_545 S
S1427 N1429 1.610 . S
N1428 S1427 1.613 1_565 S
N1428 C1431 1.350 1_565 S
N1429 S1427 1.610 . S
N1429 C1430 1.351 . S
C1430 C1424 1.428 . S
C1430 N1429 1.351 . S
C1430 C1431 1.434 . S
C1431 C1422 1.429 1_545 S
C1431 N1428 1.350 1_545 S
C1431 C1430 1.434 . S
C1432 C1433 1.369 . S
C1432 C1434 1.419 . S
C1432 H1436 0.930 . S
C1433 C1432 1.369 . S
C1433 C1442 1.429 . S
C1434 C1432 1.419 . S
C1434 C1435 1.363 1_554 S
C1434 H1437 0.929 1_554 S
C1435 C1434 1.363 1_556 S
C1435 C1441 1.428 . S
H1436 C1432 0.930 . S
H1437 C1434 0.929 1_556 S
S1438 N1439 1.613 1_556 S
S1438 N1440 1.610 . S
N1439 S1438 1.613 1_554 S
N1439 C1442 1.350 . S
N1440 S1438 1.610 . S
N1440 C1441 1.351 . S
C1441 C1435 1.428 . S
C1441 N1440 1.351 . S
C1441 C1442 1.434 1_556 S
C1442 C1433 1.429 . S
C1442 N1439 1.350 . S
C1442 C1441 1.434 1_554 S
C1443 C1444 1.369 1_554 S
C1443 C1445 1.419 . S
C1443 H1447 0.930 1_554 S
C1444 C1443 1.369 1_556 S
C1444 C1453 1.429 . S
C1445 C1443 1.419 . S
C1445 C1446 1.363 . S
C1445 H1448 0.929 . S
C1446 C1445 1.363 . S
C1446 C1452 1.428 . S
H1447 C1443 0.930 1_556 S
H1448 C1445 0.929 . S
S1449 N1450 1.623 . S
S1449 N1451 1.598 1_556 S
N1450 S1449 1.623 . S
N1450 C1453 1.350 . S
N1451 S1449 1.598 1_554 S
N1451 C1452 1.351 . S
C1452 C1446 1.428 . S
C1452 N1451 1.351 . S
C1452 C1453 1.434 1_554 S
C1453 C1444 1.429 . S
C1453 N1450 1.350 . S
C1453 C1452 1.434 1_556 S
C1454 C1455 1.369 1_455 S
C1454 C1456 1.419 . S
C1454 H1458 0.930 1_455 S
C1455 C1454 1.369 1_655 S
C1455 C1464 1.429 . S
C1456 C1454 1.419 . S
C1456 C1457 1.363 . S
C1456 H1459 0.929 . S
C1457 C1456 1.363 . S
C1457 C1463 1.428 . S
H1458 C1454 0.930 1_655 S
H1459 C1456 0.929 . S
S1460 N1461 1.613 . S
S1460 N1462 1.610 1_655 S
N1461 S1460 1.613 . S
N1461 C1464 1.350 . S
N1462 S1460 1.610 1_455 S
N1462 C1463 1.351 . S
C1463 C1457 1.428 . S
C1463 N1462 1.351 . S
C1463 C1464 1.434 1_455 S
C1464 C1455 1.429 . S
C1464 N1461 1.350 . S
C1464 C1463 1.434 1_655 S
C1465 C1466 1.369 . S
C1465 C1467 1.419 . S
C1465 H1469 0.930 . S
C1466 C1465 1.369 . S
C1466 C1475 1.429 . S
C1467 C1465 1.419 . S
C1467 C1468 1.363 1_455 S
C1467 H1470 0.929 1_455 S
C1468 C1467 1.363 1_655 S
C1468 C1474 1.428 . S
H1469 C1465 0.930 . S
H1470 C1467 0.929 1_655 S
S1471 N1472 1.613 1_655 S
S1471 N1473 1.610 . S
N1472 S1471 1.613 1_455 S
N1472 C1475 1.350 . S
N1473 S1471 1.610 . S
N1473 C1474 1.351 . S
C1474 C1468 1.428 . S
C1474 N1473 1.351 . S
C1474 C1475 1.434 1_655 S
C1475 C1466 1.429 . S
C1475 N1472 1.350 . S
C1475 C1474 1.434 1_455 S
C817 C9 0.822 . S
C819 C787 0.895 . S
C828 C43 0.803 . S
C830 C685 0.908 . S
C839 C77 0.833 . S
C841 C753 0.894 . S
C850 C111 0.816 . S
C852 C719 0.899 . S
C861 C481 0.903 . S
C863 C145 0.809 . S
C872 C179 0.826 . S
C874 C515 0.901 . S
C883 C413 0.897 . S
C885 C213 0.829 . S
C894 C447 0.902 . S
C896 C247 0.821 . S
C905 C651 0.893 . S
C907 C281 0.830 . S
C916 C315 0.829 . S
C918 C583 0.899 . S
C927 C549 0.907 . S
C929 C349 0.810 . S
C938 C383 0.806 . S
C940 C617 0.903 . S
C949 C88 2.339 . S
C951 C682 2.274 . S
C960 C122 2.340 . S
C962 C784 2.276 . S
C971 C716 2.271 . S
C973 C20 2.342 . S
C982 C750 2.272 . S
C984 C54 2.341 . S
C993 C410 2.278 . S
C995 C258 2.340 . S
C1004 C444 2.273 . S
C1006 C224 2.338 . S
C1015 C478 2.279 . S
C1017 C190 2.338 . S
C1026 C156 2.344 . S
C1028 C512 2.273 . S
C1037 C394 2.339 . S
C1039 C546 2.277 . S
C1048 C614 2.278 . S
C1050 C360 2.337 . S
C1059 C326 2.344 . S
C1061 C648 2.273 . S
C1070 C580 2.272 . S
C1072 C292 2.341 . S
C1081 C417 0.828 . S
C1083 C379 0.893 . S
C1092 C277 0.901 . S
C1094 C451 0.822 . S
C1103 C345 0.909 . S
C1105 C485 0.805 . S
C1114 C311 0.895 . S
C1116 C519 0.826 . S
C1125 C73 0.894 . S
C1127 C553 0.821 . S
C1136 C107 0.899 . S
C1138 C587 0.822 . S
C1147 C5 0.908 . S
C1149 C621 0.806 . S
C1158 C655 0.831 . S
C1160 C39 0.889 . S
C1169 C689 0.834 . S
C1171 C243 0.893 . S
C1180 C723 0.808 . S
C1182 C175 0.903 . S
C1191 C141 0.909 . S
C1193 C757 0.807 . S
C1202 C791 0.806 . S
C1204 C209 0.900 . S
C1213 C274 2.272 . S
C1215 C496 2.341 . S
C1224 C376 2.277 . S
C1226 C530 2.339 . S
C1235 C308 2.274 . S
C1237 C428 2.347 . S
C1246 C462 2.341 . S
C1248 C342 2.277 . S
C1257 C2 2.275 . S
C1259 C666 2.340 . S
C1268 C36 2.273 . S
C1270 C632 2.344 . S
C1279 C70 2.274 . S
C1281 C598 2.344 . S
C1290 C564 2.339 . S
C1292 C104 2.280 . S
C1301 C802 2.339 . S
C1303 C138 2.277 . S
C1312 C768 2.344 . S
C1314 C206 2.280 . S
C1323 C240 2.279 . S
C1325 C734 2.340 . S
C1334 C700 2.344 . S
C1336 C172 2.276 . S
C1345 C33 1.629 . S
C1347 C67 1.634 . S
C1356 C101 1.630 . S
C1358 C135 1.634 . S
C1367 C169 1.628 . S
C1369 C237 1.633 . S
C1378 C271 1.631 . S
C1380 C203 1.633 . S
C1389 C305 1.629 . S
C1391 C373 1.632 . S
C1400 C407 1.628 . S
C1402 C339 1.632 . S
C1411 C475 1.629 . S
C1413 C441 1.628 . S
C1422 C543 1.631 . S
C1424 C509 1.630 . S
C1433 C645 1.630 . S
C1435 C577 1.629 . S
C1444 C611 1.629 . S
C1446 C679 1.630 . S
C1455 C713 1.628 . S
C1457 C781 1.630 . S
C1466 C815 1.631 . S
C1468 C747 1.630 . S
