# Generated by pormake.
# Topology eci, (8)-cn, num edge types: 1
# Building blocks:
#     Node 0, Type 0, BuildingBlock: TAGTUT_clean_sbu_3, # of connection points: 8
#     Node 1, Type 0, BuildingBlock: TAGTUT_clean_sbu_3, # of connection points: 8
#     Node 2, Type 0, BuildingBlock: TAGTUT_clean_sbu_3, # of connection points: 8
#     Node 3, Type 0, BuildingBlock: TAGTUT_clean_sbu_3, # of connection points: 8
#     Edge 4, Type (0, 0), BuildingBlock: EZIPEK_clean_linker_0, # of connection points: 2
#     Edge 5, Type (0, 0), BuildingBlock: EZIPEK_clean_linker_0, # of connection points: 2
#     Edge 6, Type (0, 0), BuildingBlock: EZIPEK_clean_linker_0, # of connection points: 2
#     Edge 7, Type (0, 0), BuildingBlock: EZIPEK_clean_linker_0, # of connection points: 2
#     Edge 8, Type (0, 0), BuildingBlock: EZIPEK_clean_linker_0, # of connection points: 2
#     Edge 9, Type (0, 0), BuildingBlock: EZIPEK_clean_linker_0, # of connection points: 2
#     Edge 10, Type (0, 0), BuildingBlock: EZIPEK_clean_linker_0, # of connection points: 2
#     Edge 11, Type (0, 0), BuildingBlock: EZIPEK_clean_linker_0, # of connection points: 2
#     Edge 12, Type (0, 0), BuildingBlock: EZIPEK_clean_linker_0, # of connection points: 2
#     Edge 13, Type (0, 0), BuildingBlock: EZIPEK_clean_linker_0, # of connection points: 2
#     Edge 14, Type (0, 0), BuildingBlock: EZIPEK_clean_linker_0, # of connection points: 2
#     Edge 15, Type (0, 0), BuildingBlock: EZIPEK_clean_linker_0, # of connection points: 2
#     Edge 16, Type (0, 0), BuildingBlock: EZIPEK_clean_linker_0, # of connection points: 2
#     Edge 17, Type (0, 0), BuildingBlock: EZIPEK_clean_linker_0, # of connection points: 2
#     Edge 18, Type (0, 0), BuildingBlock: EZIPEK_clean_linker_0, # of connection points: 2
#     Edge 19, Type (0, 0), BuildingBlock: EZIPEK_clean_linker_0, # of connection points: 2
# Relax obj value: 0.322
# Max RMSD: 0.269
# Mean RMSD: 0.265
data_MOF--net-eci--node1-TAGTUT_clean_sbu_3--edge1-EZIPEK_clean_linker_0
_symmetry_space_group_name_H-M    P1
_symmetry_Int_Tables_number       1
_symmetry_cell_setting            triclinic
loop_
_symmetry_equiv_pos_as_xyz
'x, y, z'
_cell_length_a     24.580256
_cell_length_b     24.624954
_cell_length_c     12.004525
_cell_angle_alpha  88.869589
_cell_angle_beta   89.141116
_cell_angle_gamma 88.947426
loop_
_atom_site_label
_atom_site_type_symbol
_atom_site_fract_x
_atom_site_fract_y
_atom_site_fract_z
_atom_type_partial_charge
C0 C 0.74305 0.90197 0.11245 0.0
C1 C 0.62123 0.74252 0.03162 0.0
C2 C 0.77562 0.64244 0.09229 0.0
Mg3 Mg 0.87464 0.91177 0.07558 0.0
Mg4 Mg 0.92593 0.85949 0.84743 0.0
O5 O 0.89246 0.84621 -0.01287 0.0
Mg6 Mg 0.821 0.81046 -0.01399 0.0
O7 O 0.74746 0.77878 -0.0063 0.0
Mg8 Mg 0.73585 0.77147 0.16021 0.0
Mg9 Mg 0.72984 0.71885 0.91006 0.0
C10 C 0.90577 0.73848 0.84387 0.0
O11 O 0.80819 0.82154 0.79229 0.0
O12 O 0.96709 0.91742 0.07212 0.0
O13 O 0.75971 0.74755 0.7511 0.0
O14 O 0.87108 0.97021 0.93197 0.0
O15 O 0.00262 0.8746 0.92121 0.0
O16 O 0.89394 0.93329 0.77155 0.0
O17 O 0.82551 0.79273 0.17441 0.0
O18 O 0.87888 0.85751 0.23121 0.0
C19 C 0.84835 0.81747 0.2531 0.0
C20 C 0.00751 0.89946 0.01308 0.0
O21 O 0.8734 0.73566 0.92955 0.0
O22 O 0.64597 0.75537 0.12044 0.0
O23 O 0.90712 0.78133 0.78177 0.0
O24 O 0.76209 0.67975 0.16046 0.0
O25 O 0.64545 0.7264 0.94313 0.0
O26 O 0.7679 0.64931 -0.01188 0.0
O27 O 0.78358 0.89049 0.04848 0.0
O28 O 0.71573 0.86379 0.15876 0.0
C29 C 0.87733 0.974 0.82751 0.0
C30 C 0.7886 0.78825 0.7215 0.0
C31 C 0.58597 0.25123 0.30957 0.0
C32 C 0.7519 0.13022 0.21377 0.0
C33 C 0.85269 0.26842 0.33096 0.0
Mg34 Mg 0.56423 0.37653 0.33873 0.0
Mg35 Mg 0.63389 0.44098 0.1002 0.0
O36 O 0.6354 0.40794 0.25396 0.0
Mg37 Mg 0.67957 0.33686 0.23437 0.0
O38 O 0.71638 0.26377 0.22067 0.0
Mg39 Mg 0.71553 0.23677 0.37706 0.0
Mg40 Mg 0.77879 0.24672 0.13549 0.0
C41 C 0.75865 0.42924 0.13591 0.0
O42 O 0.67542 0.3362 0.04154 0.0
O43 O 0.60933 0.45348 0.27868 0.0
O44 O 0.75251 0.29028 -0.01151 0.0
O45 O 0.5172 0.37856 0.1797 0.0
O46 O 0.60567 0.52017 0.15689 0.0
O47 O 0.56519 0.39991 0.02532 0.0
O48 O 0.69154 0.32691 0.422 0.0
O49 O 0.61737 0.36877 0.4918 0.0
C50 C 0.66287 0.34375 0.50453 0.0
C51 C 0.59313 0.50234 0.2538 0.0
O52 O 0.75461 0.38994 0.20738 0.0
O53 O 0.73218 0.1506 0.30389 0.0
O54 O 0.72098 0.44032 0.06561 0.0
O55 O 0.81131 0.25715 0.39431 0.0
O56 O 0.77447 0.15995 0.13852 0.0
O57 O 0.84815 0.26939 0.22536 0.0
O58 O 0.60055 0.29693 0.26878 0.0
O59 O 0.62149 0.21909 0.35379 0.0
C60 C 0.52163 0.38269 0.07412 0.0
C61 C 0.70994 0.31936 0.96724 0.0
C62 C 0.16599 0.17782 0.20956 0.0
C63 C 0.07933 0.00567 0.3331 0.0
C64 C 0.01156 0.09723 0.61171 0.0
Mg65 Mg 0.21718 0.27569 0.35 0.0
Mg66 Mg 0.27585 0.24891 0.58872 0.0
O67 O 0.21446 0.24209 0.50283 0.0
Mg68 Mg 0.17772 0.17204 0.47755 0.0
O69 O 0.13572 0.10706 0.44206 0.0
Mg70 Mg 0.06867 0.13911 0.3729 0.0
Mg71 Mg 0.12315 0.05207 0.54723 0.0
C72 C 0.20237 0.17658 0.74491 0.0
O73 O 0.25119 0.1095 0.50468 0.0
O74 O 0.23441 0.35636 0.4376 0.0
O75 O 0.20474 0.04523 0.60336 0.0
O76 O 0.31342 0.25778 0.32944 0.0
O77 O 0.27026 0.3355 0.60518 0.0
O78 O 0.3453 0.22618 0.49181 0.0
O79 O 0.0968 0.2185 0.44877 0.0
O80 O 0.12226 0.29587 0.3719 0.0
C81 C 0.08422 0.26523 0.40921 0.0
C82 C 0.25154 0.36996 0.53364 0.0
O83 O 0.16741 0.16616 0.6694 0.0
O84 O 0.058 0.05244 0.30828 0.0
O85 O 0.24771 0.20005 0.72566 0.0
O86 O 0.01434 0.1222 0.51904 0.0
O87 O 0.10604 0.99607 0.42192 0.0
O88 O 0.05169 0.06898 0.6483 0.0
O89 O 0.19607 0.18826 0.29178 0.0
O90 O 0.1191 0.15782 0.2227 0.0
C91 C 0.35252 0.23819 0.38908 0.0
C92 C 0.24896 0.06419 0.56149 0.0
C93 C 0.32999 0.68112 0.47628 0.0
C94 C 0.49043 0.59853 0.6343 0.0
C95 C 0.3936 0.49392 0.83999 0.0
Mg96 Mg 0.22988 0.72879 0.61036 0.0
Mg97 Mg 0.23663 0.77882 0.84948 0.0
O98 O 0.25111 0.71704 0.76766 0.0
Mg99 Mg 0.32418 0.6801 0.7519 0.0
O100 O 0.39736 0.62657 0.72099 0.0
Mg101 Mg 0.35911 0.56762 0.6117 0.0
Mg102 Mg 0.45605 0.60814 0.8397 0.0
C103 C 0.30084 0.70435 0.01644 0.0
O104 O 0.37543 0.75522 0.81848 0.0
O105 O 0.14357 0.74045 0.67871 0.0
O106 O 0.40889 0.67631 0.8403 0.0
O107 O 0.24991 0.82448 0.60585 0.0
O108 O 0.14841 0.77895 0.84492 0.0
O109 O 0.28033 0.84249 0.7721 0.0
O110 O 0.28433 0.60508 0.69862 0.0
O111 O 0.21123 0.63526 0.60966 0.0
C112 C 0.24054 0.59599 0.64846 0.0
C113 C 0.121 0.75635 0.76933 0.0
O114 O 0.31494 0.66715 0.94588 0.0
O115 O 0.43938 0.60294 0.65702 0.0
O116 O 0.27462 0.748 -0.0081 0.0
O117 O 0.36812 0.50252 0.74933 0.0
O118 O 0.52176 0.60607 0.71552 0.0
O119 O 0.42572 0.52814 0.88193 0.0
O120 O 0.31915 0.70647 0.56579 0.0
O121 O 0.34913 0.63267 0.47708 0.0
C122 C 0.27287 0.8572 0.67214 0.0
C123 C 0.4126 0.72517 0.86178 0.0
C124 C 0.83848 0.75706 0.42388 0.0
C125 C 0.83044 0.80842 0.37112 0.0
C126 C 0.79146 0.84502 0.54556 0.0
C127 C 0.80227 0.79476 0.60039 0.0
N128 N 0.82735 0.69935 0.58747 0.0
N129 N 0.80458 0.90322 0.38439 0.0
C130 C 0.82306 0.7497 0.5382 0.0
C131 C 0.80842 0.85278 0.43275 0.0
N132 N 0.86527 0.71658 0.36746 0.0
N133 N 0.76058 0.8839 0.5982 0.0
H134 H 0.80933 0.91115 0.29956 0.0
H135 H 0.79826 0.9381 0.42987 0.0
H136 H 0.74558 0.87933 0.67946 0.0
H137 H 0.74482 0.91849 0.55823 0.0
H138 H 0.8792 0.68049 0.40451 0.0
H139 H 0.87732 0.72034 0.28406 0.0
H140 H 0.83157 0.66364 0.54289 0.0
H141 H 0.82561 0.69242 0.67319 0.0
C142 C 0.66516 0.28782 0.67907 0.0
C143 C 0.68157 0.3349 0.61891 0.0
C144 C 0.72218 0.36966 0.78616 0.0
C145 C 0.69752 0.3273 0.84924 0.0
N146 N 0.6402 0.24871 0.85842 0.0
N147 N 0.71986 0.42445 0.61698 0.0
C148 C 0.66707 0.28728 0.79655 0.0
C149 C 0.70833 0.37712 0.67298 0.0
N150 N 0.65009 0.24283 0.62386 0.0
N151 N 0.76055 0.40104 0.83263 0.0
H152 H 0.71135 0.4307 0.53284 0.0
H153 H 0.73419 0.45867 0.6561 0.0
H154 H 0.77374 0.39408 0.91356 0.0
H155 H 0.78326 0.42946 0.78747 0.0
H156 H 0.64222 0.20563 0.6631 0.0
H157 H 0.65188 0.24128 0.53761 0.0
H158 H 0.61285 0.22209 0.82417 0.0
H159 H 0.64157 0.24627 0.94521 0.0
C160 C 0.16232 0.22113 0.90978 0.0
C161 C 0.18663 0.17403 0.86262 0.0
C162 C 0.21372 0.14062 0.04649 0.0
C163 C 0.18494 0.18467 0.09443 0.0
N164 N 0.13025 0.26614 0.07651 0.0
N165 N 0.22642 0.08493 0.88424 0.0
C166 C 0.159 0.22496 0.02717 0.0
C167 C 0.20996 0.13268 0.93054 0.0
N168 N 0.14413 0.26281 0.84215 0.0
N169 N 0.24434 0.10636 0.11221 0.0
H170 H 0.2225 0.07792 0.79953 0.0
H171 H 0.23786 0.05081 0.93122 0.0
H172 H 0.24769 0.11147 0.19787 0.0
H173 H 0.27006 0.07607 0.08078 0.0
H174 H 0.13228 0.30088 0.871 0.0
H175 H 0.14313 0.26025 0.75555 0.0
H176 H 0.10439 0.29304 0.03403 0.0
H177 H 0.13134 0.27205 0.1621 0.0
C178 C 0.34998 0.73311 0.18511 0.0
C179 C 0.31197 0.69835 0.13466 0.0
C180 C 0.26896 0.6858 0.31388 0.0
C181 C 0.31587 0.70467 0.36685 0.0
N182 N 0.4031 0.74723 0.34961 0.0
N183 N 0.23591 0.63821 0.15636 0.0
C184 C 0.35723 0.72878 0.30143 0.0
C185 C 0.27236 0.67252 0.20109 0.0
N186 N 0.37644 0.77214 0.12438 0.0
N187 N 0.21984 0.68573 0.36707 0.0
H188 H 0.23668 0.62814 0.07231 0.0
H189 H 0.20822 0.61648 0.20569 0.0
H190 H 0.21501 0.70068 0.44614 0.0
H191 H 0.18373 0.67651 0.32753 0.0
H192 H 0.40131 0.80054 0.16059 0.0
H193 H 0.36906 0.77963 0.04032 0.0
H194 H 0.43678 0.76014 0.30298 0.0
H195 H 0.40785 0.74716 0.43591 0.0
C196 C 0.49027 0.78798 0.90755 0.0
C197 C 0.45876 0.74137 0.93239 0.0
C198 C 0.52973 0.70547 0.05825 0.0
C199 C 0.56217 0.7493 0.02581 0.0
N200 N 0.56992 0.84016 0.95232 0.0
N201 N 0.44184 0.66531 0.0613 0.0
C202 C 0.54085 0.79349 0.96197 0.0
C203 C 0.47623 0.7035 0.01802 0.0
N204 N 0.47447 0.82463 0.82692 0.0
N205 N 0.55144 0.6638 0.12146 0.0
H206 H 0.40281 0.65996 0.03336 0.0
H207 H 0.45001 0.64208 0.13274 0.0
H208 H 0.5897 0.66577 0.15756 0.0
H209 H 0.533 0.62636 0.1337 0.0
H210 H 0.49936 0.85526 0.79562 0.0
H211 H 0.43744 0.82337 0.78654 0.0
H212 H 0.55507 0.87587 0.9151 0.0
H213 H 0.60717 0.84444 -0.00833 0.0
C214 C 0.73714 0.03171 0.27494 0.0
C215 C 0.74233 0.07173 0.18859 0.0
C216 C 0.73515 0.00021 0.04976 0.0
C217 C 0.7305 0.96049 0.1366 0.0
N218 N 0.69655 0.94605 0.32584 0.0
N219 N 0.71789 0.09393 -0.00248 0.0
C220 C 0.72117 0.97847 0.24734 0.0
C221 C 0.73329 0.05616 0.07653 0.0
N222 N 0.74958 0.04313 0.38243 0.0
N223 N 0.73893 0.9849 0.94111 0.0
H224 H 0.70776 0.13404 0.01618 0.0
H225 H 0.70712 0.0838 0.91701 0.0
H226 H 0.73213 0.94531 0.916 0.0
H227 H 0.75006 0.01163 0.87662 0.0
H228 H 0.74643 0.01492 0.44782 0.0
H229 H 0.769 0.0784 0.40491 0.0
H230 H 0.68525 0.96004 0.4044 0.0
H231 H 0.68089 0.90824 0.30908 0.0
C232 C 0.44206 0.28112 0.40875 0.0
C233 C 0.41052 0.2435 0.35175 0.0
C234 C 0.49467 0.2102 0.25867 0.0
C235 C 0.52616 0.24268 0.32947 0.0
N236 N 0.52754 0.29448 0.4966 0.0
N237 N 0.4068 0.16881 0.22627 0.0
C238 C 0.49913 0.2742 0.41106 0.0
C239 C 0.43677 0.20699 0.27712 0.0
N240 N 0.41764 0.32445 0.45958 0.0
N241 N 0.51984 0.18311 0.1737 0.0
H242 H 0.3646 0.16704 0.23632 0.0
H243 H 0.42397 0.13758 0.17938 0.0
H244 H 0.56194 0.18357 0.16103 0.0
H245 H 0.49882 0.16293 0.11275 0.0
H246 H 0.44009 0.35672 0.48811 0.0
H247 H 0.37562 0.33135 0.45953 0.0
H248 H 0.50906 0.31464 0.56296 0.0
H249 H 0.56816 0.28393 0.50807 0.0
C250 C 0.2967 0.92762 0.52027 0.0
C251 C 0.28876 0.91418 0.63563 0.0
C252 C 0.30999 0.0095 0.67407 0.0
C253 C 0.29473 0.02441 0.5658 0.0
N254 N 0.28543 0.9979 0.37665 0.0
N255 N 0.28612 0.94954 0.82606 0.0
C256 C 0.29379 0.98335 0.48525 0.0
C257 C 0.29671 0.95664 0.71465 0.0
N258 N 0.30857 0.88803 0.44526 0.0
N259 N 0.32953 0.04841 0.74103 0.0
H260 H 0.26251 0.91873 0.86018 0.0
H261 H 0.29343 0.97908 0.88441 0.0
H262 H 0.33491 0.0881 0.71082 0.0
H263 H 0.34458 0.04002 0.82037 0.0
H264 H 0.31764 0.89646 0.3617 0.0
H265 H 0.31651 0.84778 0.46934 0.0
H266 H 0.27738 0.97006 0.31501 0.0
H267 H 0.28459 0.03868 0.35087 0.0
C268 C 0.99302 0.70793 0.92682 0.0
C269 C 0.95658 0.70513 0.83721 0.0
C270 C 0.02764 0.73022 0.70558 0.0
C271 C 0.06436 0.73795 0.79425 0.0
N272 N 0.08729 0.70656 -0.01807 0.0
N273 N 0.95038 0.67857 0.64785 0.0
C274 C 0.04895 0.71859 0.90351 0.0
C275 C 0.97889 0.70247 0.72895 0.0
N276 N 0.97404 0.7017 0.03348 0.0
N277 N 0.03678 0.75213 0.60177 0.0
H278 H 0.91548 0.65687 0.66851 0.0
H279 H 0.96518 0.67479 0.56641 0.0
H280 H 0.06848 0.77858 0.58367 0.0
H281 H 0.00867 0.74951 0.53792 0.0
H282 H 0.99692 0.71054 0.103 0.0
H283 H 0.93489 0.68797 0.05119 0.0
H284 H 0.07782 0.6891 0.05939 0.0
H285 H 0.12896 0.70687 0.96515 0.0
C286 C 0.78191 0.50798 0.25018 0.0
C287 C 0.79519 0.47503 0.15797 0.0
C288 C 0.82766 0.55524 0.05569 0.0
C289 C 0.79829 0.58844 0.1325 0.0
N290 N 0.77344 0.59537 0.3299 0.0
N291 N 0.84836 0.46339 -0.00773 0.0
C292 C 0.78406 0.56513 0.23822 0.0
C293 C 0.82482 0.49762 0.06746 0.0
N294 N 0.76545 0.485 0.34903 0.0
N295 N 0.85878 0.57924 0.97413 0.0
H296 H 0.84946 0.42145 0.00747 0.0
H297 H 0.8668 0.47587 0.91779 0.0
H298 H 0.86444 0.62115 0.97094 0.0
H299 H 0.8824 0.55805 0.91635 0.0
H300 H 0.75265 0.50809 0.41691 0.0
H301 H 0.76775 0.44326 0.36455 0.0
H302 H 0.77909 0.63708 0.33407 0.0
H303 H 0.77909 0.63708 0.33407 0.0
C304 C 0.93226 0.25272 0.46865 0.0
C305 C 0.90861 0.2805 0.37546 0.0
C306 C -8e-05 0.31183 0.31698 0.0
C307 C 0.02414 0.28107 0.40584 0.0
N308 N 0.00924 0.24677 0.59321 0.0
N309 N 0.91811 0.35738 0.24981 0.0
C310 C 0.98884 0.2594 0.49042 0.0
C311 C 0.94199 0.3167 0.31206 0.0
N312 N 0.90226 0.21841 0.53462 0.0
N313 N 0.03093 0.33522 0.23461 0.0
H314 H 0.87608 0.3644 0.25064 0.0
H315 H 0.94008 0.38797 0.20947 0.0
H316 H 0.07289 0.33817 0.23686 0.0
H317 H 0.01441 0.35047 0.16061 0.0
H318 H 0.91922 0.19415 0.59741 0.0
H319 H 0.86126 0.21115 0.524 0.0
H320 H 0.98502 0.23533 0.66135 0.0
H321 H 0.0494 0.25458 0.61395 0.0
C322 C 0.21695 0.44352 0.66127 0.0
C323 C 0.24687 0.42769 0.56429 0.0
C324 C 0.25561 0.52259 0.50882 0.0
C325 C 0.23293 0.53912 0.61248 0.0
N326 N 0.1974 0.51454 0.79422 0.0
N327 N 0.30515 0.4529 0.40909 0.0
C328 C 0.21521 0.49926 0.69096 0.0
C329 C 0.26913 0.46743 0.49172 0.0
N330 N 0.1882 0.40599 0.72211 0.0
N331 N 0.26337 0.55963 0.42535 0.0
H332 H 0.31762 0.41279 0.39596 0.0
H333 H 0.32702 0.48111 0.36154 0.0
H334 H 0.25176 0.59956 0.43606 0.0
H335 H 0.27502 0.54968 0.34431 0.0
H336 H 0.16161 0.41629 0.78702 0.0
H337 H 0.18674 0.36515 0.70133 0.0
H338 H 0.19024 0.48693 0.85947 0.0
H339 H 0.19277 0.55517 0.81628 0.0
C340 C 0.06831 0.91069 0.26256 0.0
C341 C 0.08337 0.96556 0.24443 0.0
C342 C 0.0865 0.95331 0.04365 0.0
C343 C 0.06072 0.90371 0.06295 0.0
N344 N 0.05493 0.82341 0.17618 0.0
N345 N 0.13248 0.02862 0.12503 0.0
C346 C 0.06376 0.87778 0.16806 0.0
C347 C 0.1015 0.98341 0.1369 0.0
N348 N 0.05372 0.89169 0.36621 0.0
N349 N 0.09079 0.97347 0.93734 0.0
H350 H 0.14634 0.04956 0.19349 0.0
H351 H 0.14874 0.04174 0.04891 0.0
H352 H 0.07974 0.95026 0.86961 0.0
H353 H 0.10337 0.01267 0.91726 0.0
H354 H 0.03776 0.85328 0.38085 0.0
H355 H 0.05436 0.91535 0.4371 0.0
H356 H 0.05855 0.80088 0.25015 0.0
H357 H 0.04838 0.80094 0.10482 0.0
C358 C 0.58425 0.58066 0.38345 0.0
C359 C 0.56104 0.53498 0.33363 0.0
C360 C 0.49073 0.53144 0.47789 0.0
C361 C 0.5122 0.57838 0.52664 0.0
N362 N 0.56975 0.6566 0.50619 0.0
N363 N 0.48157 0.48178 0.30778 0.0
C364 C 0.556 0.60592 0.47317 0.0
C365 C 0.51065 0.51526 0.37251 0.0
N366 N 0.63414 0.59849 0.34875 0.0
N367 N 0.45483 0.49963 0.53537 0.0
H368 H 0.49385 0.47365 0.2262 0.0
H369 H 0.44257 0.46881 0.32911 0.0
H370 H 0.44489 0.50631 0.61833 0.0
H371 H 0.44105 0.46295 0.50558 0.0
H372 H 0.65572 0.62752 0.391 0.0
H373 H 0.65559 0.58189 0.28162 0.0
H374 H 0.59798 0.68048 0.46322 0.0
H375 H 0.54894 0.67707 0.56955 0.0
C376 C 0.91382 0.07095 0.60454 0.0
C377 C 0.95764 0.09196 0.66606 0.0
C378 C 0.90904 0.06856 0.8371 0.0
C379 C 0.88113 0.0291 0.77687 0.0
N380 N 0.84341 0.00324 0.60422 0.0
N381 N 0.99069 0.12219 0.84156 0.0
C382 C 0.87803 0.03489 0.6605 0.0
C383 C 0.95279 0.09531 0.78303 0.0
N384 N 0.90662 0.08462 0.49481 0.0
N385 N 0.89406 0.07959 0.94418 0.0
H386 H 0.02139 0.14444 0.80182 0.0
H387 H 0.9923 0.1209 0.92828 0.0
H388 H 0.85914 0.06308 -0.01917 0.0
H389 H 0.9119 0.10981 -0.00985 0.0
H390 H 0.87343 0.07236 0.44935 0.0
H391 H 0.9291 0.11408 0.45263 0.0
H392 H 0.84448 0.00014 0.51804 0.0
H393 H 0.81509 0.97895 0.64633 0.0
C394 C 0.4208 0.3934 0.05968 0.0
C395 C 0.47107 0.37765 0.00906 0.0
C396 C 0.43347 0.40258 0.8292 0.0
C397 C 0.39731 0.43829 0.88542 0.0
N398 N 0.34673 0.45972 0.05144 0.0
N399 N 0.51722 0.34863 0.84244 0.0
C400 C 0.38664 0.42994 -0.00013 0.0
C401 C 0.47429 0.37504 0.89187 0.0
N402 N 0.40641 0.37391 0.16277 0.0
N403 N 0.42973 0.39721 0.7171 0.0
H404 H 0.5449 0.32539 0.8893 0.0
H405 H 0.52554 0.35027 0.75717 0.0
H406 H 0.39806 0.41553 0.67232 0.0
H407 H 0.45422 0.37049 0.67218 0.0
H408 H 0.3691 0.38301 0.20104 0.0
H409 H 0.42898 0.34306 0.20223 0.0
H410 H 0.34093 0.45965 0.13764 0.0
H411 H 0.32089 0.48576 0.00612 0.0
loop_
_geom_bond_atom_site_label_1
_geom_bond_atom_site_label_2
_geom_bond_distance
_geom_bond_site_symmetry_2
_ccdc_geom_bond_type
C0 O27 1.312 . S
C0 O28 1.208 . S
C1 O22 1.339 . S
C1 O25 1.244 . S
C2 O24 1.264 . S
C2 O26 1.273 1_554 S
Mg3 O5 1.936 . S
Mg3 O12 2.081 . S
Mg3 O14 2.023 1_554 S
Mg3 O18 2.031 . S
Mg3 O27 2.291 . S
Mg4 O5 1.963 1_556 S
Mg4 O15 1.942 1_656 S
Mg4 O16 1.955 . S
Mg4 O23 1.986 . S
O5 Mg3 1.936 . S
O5 Mg4 1.963 1_554 S
O5 Mg6 1.915 1_554 S
Mg6 O5 1.915 1_556 S
Mg6 O7 1.915 . S
Mg6 O11 2.013 . S
Mg6 O17 2.114 1_556 S
Mg6 O21 2.013 . S
Mg6 O27 2.114 1_556 S
O7 Mg6 1.915 . S
O7 Mg8 1.936 1_556 S
O7 Mg9 1.963 . S
Mg8 O7 1.936 1_554 S
Mg8 O17 2.291 . S
Mg8 O22 2.076 1_554 S
Mg8 O24 2.023 . S
Mg8 O28 2.031 . S
Mg9 O7 1.963 . S
Mg9 O13 1.986 . S
Mg9 O25 1.942 . S
Mg9 O26 1.955 . S
C10 O21 1.191 . S
C10 O23 1.307 . S
O11 Mg6 2.013 . S
O11 C30 1.191 . S
O12 Mg3 2.081 . S
O12 C20 1.331 1_655 S
O13 Mg9 1.986 . S
O13 C30 1.307 . S
O14 Mg3 2.023 1_556 S
O14 C29 1.264 . S
O15 Mg4 1.942 1_454 S
O15 C20 1.244 . S
O16 Mg4 1.955 . S
O16 C29 1.273 . S
O17 Mg6 2.114 1_554 S
O17 Mg8 2.291 . S
O17 C19 1.312 . S
O18 Mg3 2.031 . S
O18 C19 1.208 . S
C19 O17 1.312 . S
C19 O18 1.208 . S
C20 O12 1.331 1_455 S
C20 O15 1.244 . S
O21 Mg6 2.013 . S
O21 C10 1.191 . S
O22 C1 1.339 . S
O22 Mg8 2.076 1_556 S
O23 Mg4 1.986 . S
O23 C10 1.307 . S
O24 C2 1.264 . S
O24 Mg8 2.023 . S
O25 C1 1.244 . S
O25 Mg9 1.942 . S
O26 C2 1.273 1_556 S
O26 Mg9 1.955 . S
O27 C0 1.312 . S
O27 Mg3 2.291 . S
O27 Mg6 2.114 1_554 S
O28 C0 1.208 . S
O28 Mg8 2.031 . S
C29 O14 1.264 . S
C29 O16 1.273 . S
C30 O11 1.191 . S
C30 O13 1.307 . S
C31 O58 1.312 . S
C31 O59 1.208 . S
C32 O53 1.331 . S
C32 O56 1.244 . S
C33 O55 1.264 . S
C33 O57 1.273 . S
Mg34 O36 1.936 . S
Mg34 O43 2.081 . S
Mg34 O45 2.023 . S
Mg34 O49 2.031 . S
Mg34 O58 2.291 . S
Mg35 O36 1.963 . S
Mg35 O46 1.942 . S
Mg35 O47 1.955 . S
Mg35 O54 1.986 . S
O36 Mg34 1.936 . S
O36 Mg35 1.963 . S
O36 Mg37 1.915 . S
Mg37 O36 1.915 . S
Mg37 O38 1.915 . S
Mg37 O42 2.013 . S
Mg37 O48 2.114 . S
Mg37 O52 2.013 . S
Mg37 O58 2.114 . S
O38 Mg37 1.915 . S
O38 Mg39 1.936 . S
O38 Mg40 1.963 . S
Mg39 O38 1.936 . S
Mg39 O48 2.291 . S
Mg39 O53 2.081 . S
Mg39 O55 2.023 . S
Mg39 O59 2.031 . S
Mg40 O38 1.963 . S
Mg40 O44 1.986 1_554 S
Mg40 O56 1.942 . S
Mg40 O57 1.955 . S
C41 O52 1.191 . S
C41 O54 1.307 . S
O42 Mg37 2.013 . S
O42 C61 1.191 1_554 S
O43 Mg34 2.081 . S
O43 C51 1.331 . S
O44 Mg40 1.986 1_556 S
O44 C61 1.307 . S
O45 Mg34 2.023 . S
O45 C60 1.264 . S
O46 Mg35 1.942 . S
O46 C51 1.244 . S
O47 Mg35 1.955 . S
O47 C60 1.273 . S
O48 Mg37 2.114 . S
O48 Mg39 2.291 . S
O48 C50 1.312 . S
O49 Mg34 2.031 . S
O49 C50 1.208 . S
C50 O48 1.312 . S
C50 O49 1.208 . S
C51 O43 1.331 . S
C51 O46 1.244 . S
O52 Mg37 2.013 . S
O52 C41 1.191 . S
O53 C32 1.331 . S
O53 Mg39 2.081 . S
O54 Mg35 1.986 . S
O54 C41 1.307 . S
O55 C33 1.264 . S
O55 Mg39 2.023 . S
O56 C32 1.244 . S
O56 Mg40 1.942 . S
O57 C33 1.273 . S
O57 Mg40 1.955 . S
O58 C31 1.312 . S
O58 Mg34 2.291 . S
O58 Mg37 2.114 . S
O59 C31 1.208 . S
O59 Mg39 2.031 . S
C60 O45 1.264 . S
C60 O47 1.273 . S
C61 O42 1.191 1_556 S
C61 O44 1.307 . S
C62 O89 1.312 . S
C62 O90 1.208 . S
C63 O84 1.331 1_565 S
C63 O87 1.244 . S
C64 O86 1.264 . S
C64 O88 1.273 . S
Mg65 O67 1.936 . S
Mg65 O74 2.081 . S
Mg65 O76 2.023 . S
Mg65 O80 2.031 . S
Mg65 O89 2.291 . S
Mg66 O67 1.963 . S
Mg66 O77 1.942 . S
Mg66 O78 1.955 . S
Mg66 O85 1.986 . S
O67 Mg65 1.936 . S
O67 Mg66 1.963 . S
O67 Mg68 1.915 . S
Mg68 O67 1.915 . S
Mg68 O69 1.915 . S
Mg68 O73 2.013 . S
Mg68 O79 2.114 . S
Mg68 O83 2.013 . S
Mg68 O89 2.114 . S
O69 Mg68 1.915 . S
O69 Mg70 1.936 . S
O69 Mg71 1.963 . S
Mg70 O69 1.936 . S
Mg70 O79 2.291 . S
Mg70 O84 2.081 . S
Mg70 O86 2.023 . S
Mg70 O90 2.031 . S
Mg71 O69 1.963 . S
Mg71 O75 1.986 . S
Mg71 O87 1.942 1_545 S
Mg71 O88 1.955 . S
C72 O83 1.191 . S
C72 O85 1.307 . S
O73 Mg68 2.013 . S
O73 C92 1.191 . S
O74 Mg65 2.081 . S
O74 C82 1.331 . S
O75 Mg71 1.986 . S
O75 C92 1.307 . S
O76 Mg65 2.023 . S
O76 C91 1.264 . S
O77 Mg66 1.942 . S
O77 C82 1.244 . S
O78 Mg66 1.955 . S
O78 C91 1.273 . S
O79 Mg68 2.114 . S
O79 Mg70 2.291 . S
O79 C81 1.312 . S
O80 Mg65 2.031 . S
O80 C81 1.208 . S
C81 O79 1.312 . S
C81 O80 1.208 . S
C82 O74 1.331 . S
C82 O77 1.244 . S
O83 Mg68 2.013 . S
O83 C72 1.191 . S
O84 C63 1.331 1_545 S
O84 Mg70 2.081 . S
O85 Mg66 1.986 . S
O85 C72 1.307 . S
O86 C64 1.264 . S
O86 Mg70 2.023 . S
O87 C63 1.244 . S
O87 Mg71 1.942 1_565 S
O88 C64 1.273 . S
O88 Mg71 1.955 . S
O89 C62 1.312 . S
O89 Mg65 2.291 . S
O89 Mg68 2.114 . S
O90 C62 1.208 . S
O90 Mg70 2.031 . S
C91 O76 1.264 . S
C91 O78 1.273 . S
C92 O73 1.191 . S
C92 O75 1.307 . S
C93 O120 1.312 . S
C93 O121 1.208 . S
C94 O115 1.331 . S
C94 O118 1.244 . S
C95 O117 1.264 . S
C95 O119 1.273 . S
Mg96 O98 1.936 . S
Mg96 O105 2.081 . S
Mg96 O107 2.023 . S
Mg96 O111 2.031 . S
Mg96 O120 2.291 . S
Mg97 O98 1.963 . S
Mg97 O108 1.942 . S
Mg97 O109 1.955 . S
Mg97 O116 1.986 1_556 S
O98 Mg96 1.936 . S
O98 Mg97 1.963 . S
O98 Mg99 1.915 . S
Mg99 O98 1.915 . S
Mg99 O100 1.915 . S
Mg99 O104 2.013 . S
Mg99 O110 2.114 . S
Mg99 O114 2.013 . S
Mg99 O120 2.114 . S
O100 Mg99 1.915 . S
O100 Mg101 1.936 . S
O100 Mg102 1.963 . S
Mg101 O100 1.936 . S
Mg101 O110 2.291 . S
Mg101 O115 2.081 . S
Mg101 O117 2.023 . S
Mg101 O121 2.031 . S
Mg102 O100 1.963 . S
Mg102 O106 1.986 . S
Mg102 O118 1.942 . S
Mg102 O119 1.955 . S
C103 O114 1.191 1_554 S
C103 O116 1.307 . S
O104 Mg99 2.013 . S
O104 C123 1.191 . S
O105 Mg96 2.081 . S
O105 C113 1.331 . S
O106 Mg102 1.986 . S
O106 C123 1.307 . S
O107 Mg96 2.023 . S
O107 C122 1.264 . S
O108 Mg97 1.942 . S
O108 C113 1.244 . S
O109 Mg97 1.955 . S
O109 C122 1.273 . S
O110 Mg99 2.114 . S
O110 Mg101 2.291 . S
O110 C112 1.312 . S
O111 Mg96 2.031 . S
O111 C112 1.208 . S
C112 O110 1.312 . S
C112 O111 1.208 . S
C113 O105 1.331 . S
C113 O108 1.244 . S
O114 Mg99 2.013 . S
O114 C103 1.191 1_556 S
O115 C94 1.331 . S
O115 Mg101 2.081 . S
O116 Mg97 1.986 1_554 S
O116 C103 1.307 . S
O117 C95 1.264 . S
O117 Mg101 2.023 . S
O118 C94 1.244 . S
O118 Mg102 1.942 . S
O119 C95 1.273 . S
O119 Mg102 1.955 . S
O120 C93 1.312 . S
O120 Mg96 2.291 . S
O120 Mg99 2.114 . S
O121 C93 1.208 . S
O121 Mg101 2.031 . S
C122 O107 1.264 . S
C122 O109 1.273 . S
C123 O104 1.191 . S
C123 O106 1.307 . S
C124 C125 1.363 . S
C124 C130 1.379 . S
C124 N132 1.356 . S
C125 C124 1.363 . S
C125 C131 1.363 . S
C126 C127 1.363 . S
C126 C131 1.379 . S
C126 N133 1.356 . S
C127 C126 1.363 . S
C127 C130 1.363 . S
N128 C130 1.356 . S
N128 H140 0.984 . S
N128 H141 0.985 . S
N129 C131 1.356 . S
N129 H134 0.984 . S
N129 H135 0.985 . S
C130 C124 1.379 . S
C130 C127 1.363 . S
C130 N128 1.356 . S
C131 C125 1.363 . S
C131 C126 1.379 . S
C131 N129 1.356 . S
N132 C124 1.356 . S
N132 H138 0.984 . S
N132 H139 0.984 . S
N133 C126 1.356 . S
N133 H136 0.984 . S
N133 H137 0.985 . S
H134 N129 0.984 . S
H135 N129 0.985 . S
H136 N133 0.984 . S
H137 N133 0.985 . S
H138 N132 0.984 . S
H139 N132 0.984 . S
H140 N128 0.984 . S
H141 N128 0.985 . S
C142 C143 1.363 . S
C142 C148 1.379 . S
C142 N150 1.356 . S
C143 C142 1.363 . S
C143 C149 1.363 . S
C144 C145 1.363 . S
C144 C149 1.379 . S
C144 N151 1.356 . S
C145 C144 1.363 . S
C145 C148 1.363 . S
N146 C148 1.356 . S
N146 H158 0.984 . S
N146 H159 0.985 . S
N147 C149 1.356 . S
N147 H152 0.984 . S
N147 H153 0.985 . S
C148 C142 1.379 . S
C148 C145 1.363 . S
C148 N146 1.356 . S
C149 C143 1.363 . S
C149 C144 1.379 . S
C149 N147 1.356 . S
N150 C142 1.356 . S
N150 H156 0.984 . S
N150 H157 0.984 . S
N151 C144 1.356 . S
N151 H154 0.984 . S
N151 H155 0.985 . S
H152 N147 0.984 . S
H153 N147 0.985 . S
H154 N151 0.984 . S
H155 N151 0.985 . S
H156 N150 0.984 . S
H157 N150 0.984 . S
H158 N146 0.984 . S
H159 N146 0.985 . S
C160 C161 1.363 . S
C160 C166 1.379 1_556 S
C160 N168 1.356 . S
C161 C160 1.363 . S
C161 C167 1.363 . S
C162 C163 1.363 . S
C162 C167 1.379 1_554 S
C162 N169 1.356 . S
C163 C162 1.363 . S
C163 C166 1.363 . S
N164 C166 1.356 . S
N164 H176 0.984 . S
N164 H177 0.985 . S
N165 C167 1.356 . S
N165 H170 0.984 . S
N165 H171 0.985 . S
C166 C160 1.379 1_554 S
C166 C163 1.363 . S
C166 N164 1.356 . S
C167 C161 1.363 . S
C167 C162 1.379 1_556 S
C167 N165 1.356 . S
N168 C160 1.356 . S
N168 H174 0.984 . S
N168 H175 0.984 . S
N169 C162 1.356 . S
N169 H172 0.984 . S
N169 H173 0.985 . S
H170 N165 0.984 . S
H171 N165 0.985 . S
H172 N169 0.984 . S
H173 N169 0.985 . S
H174 N168 0.984 . S
H175 N168 0.984 . S
H176 N164 0.984 . S
H177 N164 0.985 . S
C178 C179 1.363 . S
C178 C184 1.379 . S
C178 N186 1.356 . S
C179 C178 1.363 . S
C179 C185 1.363 . S
C180 C181 1.363 . S
C180 C185 1.379 . S
C180 N187 1.356 . S
C181 C180 1.363 . S
C181 C184 1.363 . S
N182 C184 1.356 . S
N182 H194 0.984 . S
N182 H195 0.985 . S
N183 C185 1.356 . S
N183 H188 0.984 . S
N183 H189 0.985 . S
C184 C178 1.379 . S
C184 C181 1.363 . S
C184 N182 1.356 . S
C185 C179 1.363 . S
C185 C180 1.379 . S
C185 N183 1.356 . S
N186 C178 1.356 . S
N186 H192 0.984 . S
N186 H193 0.984 . S
N187 C180 1.356 . S
N187 H190 0.984 . S
N187 H191 0.985 . S
H188 N183 0.984 . S
H189 N183 0.985 . S
H190 N187 0.984 . S
H191 N187 0.985 . S
H192 N186 0.984 . S
H193 N186 0.984 . S
H194 N182 0.984 . S
H195 N182 0.985 . S
C196 C197 1.363 . S
C196 C202 1.379 . S
C196 N204 1.356 . S
C197 C196 1.363 . S
C197 C203 1.363 . S
C198 C199 1.363 . S
C198 C203 1.379 . S
C198 N205 1.356 . S
C199 C198 1.363 . S
C199 C202 1.363 . S
N200 C202 1.356 . S
N200 H212 0.984 . S
N200 H213 0.985 . S
N201 C203 1.356 . S
N201 H206 0.984 . S
N201 H207 0.985 . S
C202 C196 1.379 . S
C202 C199 1.363 . S
C202 N200 1.356 . S
C203 C197 1.363 . S
C203 C198 1.379 . S
C203 N201 1.356 . S
N204 C196 1.356 . S
N204 H210 0.984 . S
N204 H211 0.984 . S
N205 C198 1.356 . S
N205 H208 0.984 . S
N205 H209 0.985 . S
H206 N201 0.984 . S
H207 N201 0.985 . S
H208 N205 0.984 . S
H209 N205 0.985 . S
H210 N204 0.984 . S
H211 N204 0.984 . S
H212 N200 0.984 . S
H213 N200 0.985 . S
C214 C215 1.363 . S
C214 C220 1.379 . S
C214 N222 1.356 . S
C215 C214 1.363 . S
C215 C221 1.363 1_554 S
C216 C217 1.363 1_546 S
C216 C221 1.379 . S
C216 N223 1.356 1_545 S
C217 C216 1.363 1_564 S
C217 C220 1.363 1_565 S
N218 C220 1.356 1_565 S
N218 H230 0.984 . S
N218 H231 0.985 . S
N219 C221 1.356 . S
N219 H224 0.984 . S
N219 H225 0.985 . S
C220 C214 1.379 . S
C220 C217 1.363 1_545 S
C220 N218 1.356 1_545 S
C221 C215 1.363 1_556 S
C221 C216 1.379 . S
C221 N219 1.356 . S
N222 C214 1.356 . S
N222 H228 0.984 . S
N222 H229 0.984 . S
N223 C216 1.356 1_565 S
N223 H226 0.984 . S
N223 H227 0.985 1_565 S
H224 N219 0.984 . S
H225 N219 0.985 . S
H226 N223 0.984 . S
H227 N223 0.985 1_545 S
H228 N222 0.984 . S
H229 N222 0.984 . S
H230 N218 0.984 . S
H231 N218 0.985 . S
C232 C233 1.363 . S
C232 C238 1.379 . S
C232 N240 1.356 . S
C233 C232 1.363 . S
C233 C239 1.363 . S
C234 C235 1.363 . S
C234 C239 1.379 . S
C234 N241 1.356 . S
C235 C234 1.363 . S
C235 C238 1.363 . S
N236 C238 1.356 . S
N236 H248 0.984 . S
N236 H249 0.985 . S
N237 C239 1.356 . S
N237 H242 0.984 . S
N237 H243 0.985 . S
C238 C232 1.379 . S
C238 C235 1.363 . S
C238 N236 1.356 . S
C239 C233 1.363 . S
C239 C234 1.379 . S
C239 N237 1.356 . S
N240 C232 1.356 . S
N240 H246 0.984 . S
N240 H247 0.984 . S
N241 C234 1.356 . S
N241 H244 0.984 . S
N241 H245 0.985 . S
H242 N237 0.984 . S
H243 N237 0.985 . S
H244 N241 0.984 . S
H245 N241 0.985 . S
H246 N240 0.984 . S
H247 N240 0.984 . S
H248 N236 0.984 . S
H249 N236 0.985 . S
C250 C251 1.363 . S
C250 C256 1.379 . S
C250 N258 1.356 . S
C251 C250 1.363 . S
C251 C257 1.363 . S
C252 C253 1.363 1_565 S
C252 C257 1.379 . S
C252 N259 1.356 1_565 S
C253 C252 1.363 1_545 S
C253 C256 1.363 1_545 S
N254 C256 1.356 1_545 S
N254 H266 0.981 1_545 S
N254 H267 0.985 . S
N255 C257 1.356 . S
N255 H260 0.984 . S
N255 H261 0.985 . S
C256 C250 1.379 . S
C256 C253 1.363 1_565 S
C256 N254 1.356 1_565 S
C257 C251 1.363 . S
C257 C252 1.379 . S
C257 N255 1.356 . S
N258 C250 1.356 . S
N258 H264 0.984 . S
N258 H265 0.984 . S
N259 C252 1.356 1_545 S
N259 H262 0.984 . S
N259 H263 0.985 . S
H260 N255 0.984 . S
H261 N255 0.985 . S
H262 N259 0.984 . S
H263 N259 0.985 . S
H264 N258 0.984 . S
H265 N258 0.984 . S
H266 N254 0.981 1_565 S
H267 N254 0.985 . S
C268 C269 1.363 1_454 S
C268 C274 1.379 . S
C268 N276 1.356 1_455 S
C269 C268 1.363 1_656 S
C269 C275 1.363 1_655 S
C270 C271 1.363 . S
C270 C275 1.379 . S
C270 N277 1.356 . S
C271 C270 1.363 . S
C271 C274 1.363 1_556 S
N272 C274 1.356 . S
N272 H284 0.984 . S
N272 H285 0.985 . S
N273 C275 1.356 1_655 S
N273 H278 0.984 . S
N273 H279 0.985 . S
C274 C268 1.379 . S
C274 C271 1.363 1_554 S
C274 N272 1.356 . S
C275 C269 1.363 1_455 S
C275 C270 1.379 . S
C275 N273 1.356 1_455 S
N276 C268 1.356 1_655 S
N276 H282 0.984 . S
N276 H283 0.984 . S
N277 C270 1.356 . S
N277 H280 0.984 . S
N277 H281 0.985 . S
H278 N273 0.984 . S
H279 N273 0.985 . S
H280 N277 0.984 . S
H281 N277 0.985 . S
H282 N276 0.984 . S
H283 N276 0.984 . S
H284 N272 0.984 . S
H285 N272 0.985 . S
C286 C287 1.363 . S
C286 C292 1.379 . S
C286 N294 1.356 . S
C287 C286 1.363 . S
C287 C293 1.363 . S
C288 C289 1.363 . S
C288 C293 1.379 . S
C288 N295 1.356 . S
C289 C288 1.363 . S
C289 C292 1.363 . S
N290 C292 1.356 . S
N290 H302 0.984 . S
N290 H303 0.985 . S
N291 C293 1.356 . S
N291 H296 0.984 . S
N291 H297 0.985 . S
C292 C286 1.379 . S
C292 C289 1.363 . S
C292 N290 1.356 . S
C293 C287 1.363 . S
C293 C288 1.379 . S
C293 N291 1.356 . S
N294 C286 1.356 . S
N294 H300 0.984 . S
N294 H301 0.984 . S
N295 C288 1.356 . S
N295 H298 0.984 . S
N295 H299 0.985 1_554 S
H296 N291 0.984 . S
H297 N291 0.985 . S
H298 N295 0.984 . S
H299 N295 0.985 1_556 S
H300 N294 0.984 . S
H301 N294 0.984 . S
H302 N290 0.984 . S
H303 N290 0.985 . S
C304 C305 1.363 . S
C304 C310 1.379 . S
C304 N312 1.356 . S
C305 C304 1.363 . S
C305 C311 1.363 . S
C306 C307 1.363 1_655 S
C306 C311 1.379 . S
C306 N313 1.356 1_655 S
C307 C306 1.363 1_455 S
C307 C310 1.363 1_455 S
N308 C310 1.356 1_455 S
N308 H320 0.984 1_455 S
N308 H321 0.985 . S
N309 C311 1.356 . S
N309 H314 0.984 . S
N309 H315 0.985 . S
C310 C304 1.379 . S
C310 C307 1.363 1_655 S
C310 N308 1.356 1_655 S
C311 C305 1.363 . S
C311 C306 1.379 . S
C311 N309 1.356 . S
N312 C304 1.356 . S
N312 H318 0.984 . S
N312 H319 0.984 . S
N313 C306 1.356 1_455 S
N313 H316 0.984 . S
N313 H317 0.985 . S
H314 N309 0.984 . S
H315 N309 0.985 . S
H316 N313 0.984 . S
H317 N313 0.985 . S
H318 N312 0.984 . S
H319 N312 0.984 . S
H320 N308 0.984 1_655 S
H321 N308 0.985 . S
C322 C323 1.363 . S
C322 C328 1.379 . S
C322 N330 1.356 . S
C323 C322 1.363 . S
C323 C329 1.363 . S
C324 C325 1.363 . S
C324 C329 1.379 . S
C324 N331 1.356 . S
C325 C324 1.363 . S
C325 C328 1.363 . S
N326 C328 1.356 . S
N326 H338 0.984 . S
N326 H339 0.985 . S
N327 C329 1.356 . S
N327 H332 0.984 . S
N327 H333 0.985 . S
C328 C322 1.379 . S
C328 C325 1.363 . S
C328 N326 1.356 . S
C329 C323 1.363 . S
C329 C324 1.379 . S
C329 N327 1.356 . S
N330 C322 1.356 . S
N330 H336 0.984 . S
N330 H337 0.984 . S
N331 C324 1.356 . S
N331 H334 0.984 . S
N331 H335 0.985 . S
H332 N327 0.984 . S
H333 N327 0.985 . S
H334 N331 0.984 . S
H335 N331 0.985 . S
H336 N330 0.984 . S
H337 N330 0.984 . S
H338 N326 0.984 . S
H339 N326 0.985 . S
C340 C341 1.363 . S
C340 C346 1.379 . S
C340 N348 1.356 . S
C341 C340 1.363 . S
C341 C347 1.363 . S
C342 C343 1.363 . S
C342 C347 1.379 . S
C342 N349 1.356 . S
C343 C342 1.363 . S
C343 C346 1.363 . S
N344 C346 1.356 1_655 S
N344 H356 0.984 . S
N344 H357 0.985 . S
N345 C347 1.356 1_545 S
N345 H350 0.984 . S
N345 H351 0.985 . S
C346 C340 1.379 . S
C346 C343 1.363 . S
C346 N344 1.356 1_455 S
C347 C341 1.363 . S
C347 C342 1.379 . S
C347 N345 1.356 1_565 S
N348 C340 1.356 . S
N348 H354 0.984 . S
N348 H355 0.984 . S
N349 C342 1.356 . S
N349 H352 0.984 1_554 S
N349 H353 0.985 1_564 S
H350 N345 0.984 . S
H351 N345 0.985 . S
H352 N349 0.984 1_556 S
H353 N349 0.985 1_546 S
H354 N348 0.984 . S
H355 N348 0.984 . S
H356 N344 0.984 . S
H357 N344 0.985 . S
C358 C359 1.363 . S
C358 C364 1.379 . S
C358 N366 1.356 . S
C359 C358 1.363 . S
C359 C365 1.363 . S
C360 C361 1.363 . S
C360 C365 1.379 . S
C360 N367 1.356 . S
C361 C360 1.363 . S
C361 C364 1.363 . S
N362 C364 1.356 . S
N362 H374 0.984 . S
N362 H375 0.985 . S
N363 C365 1.356 . S
N363 H368 0.984 . S
N363 H369 0.985 . S
C364 C358 1.379 . S
C364 C361 1.363 . S
C364 N362 1.356 . S
C365 C359 1.363 . S
C365 C360 1.379 . S
C365 N363 1.356 . S
N366 C358 1.356 . S
N366 H372 0.984 . S
N366 H373 0.984 . S
N367 C360 1.356 . S
N367 H370 0.984 . S
N367 H371 0.985 . S
H368 N363 0.984 . S
H369 N363 0.985 . S
H370 N367 0.984 . S
H371 N367 0.985 . S
H372 N366 0.984 . S
H373 N366 0.984 . S
H374 N362 0.984 . S
H375 N362 0.985 . S
C376 C377 1.363 . S
C376 C382 1.379 1_545 S
C376 N384 1.356 . S
C377 C376 1.363 . S
C377 C383 1.363 . S
C378 C379 1.363 . S
C378 C383 1.379 . S
C378 N385 1.356 . S
C379 C378 1.363 . S
C379 C382 1.363 1_545 S
N380 C382 1.356 . S
N380 H392 0.984 . S
N380 H393 0.985 . S
N381 C383 1.356 . S
N381 H386 0.984 1_655 S
N381 H387 0.985 . S
C382 C376 1.379 1_565 S
C382 C379 1.363 1_565 S
C382 N380 1.356 . S
C383 C377 1.363 . S
C383 C378 1.379 . S
C383 N381 1.356 . S
N384 C376 1.356 . S
N384 H390 0.984 1_545 S
N384 H391 0.984 1_655 S
N385 C378 1.356 . S
N385 H388 0.984 1_556 S
N385 H389 0.985 1_556 S
H386 N381 0.984 1_455 S
H387 N381 0.985 . S
H388 N385 0.984 1_554 S
H389 N385 0.985 1_554 S
H390 N384 0.984 1_565 S
H391 N384 0.984 1_455 S
H392 N380 0.984 . S
H393 N380 0.985 . S
C394 C395 1.363 . S
C394 C400 1.379 . S
C394 N402 1.356 . S
C395 C394 1.363 . S
C395 C401 1.363 1_554 S
C396 C397 1.363 . S
C396 C401 1.379 . S
C396 N403 1.356 . S
C397 C396 1.363 . S
C397 C400 1.363 1_556 S
N398 C400 1.356 . S
N398 H410 0.984 . S
N398 H411 0.985 1_554 S
N399 C401 1.356 . S
N399 H404 0.984 1_556 S
N399 H405 0.985 . S
C400 C394 1.379 . S
C400 C397 1.363 1_554 S
C400 N398 1.356 . S
C401 C395 1.363 1_556 S
C401 C396 1.379 . S
C401 N399 1.356 . S
N402 C394 1.356 . S
N402 H408 0.984 . S
N402 H409 0.984 . S
N403 C396 1.356 . S
N403 H406 0.984 . S
N403 H407 0.985 . S
H404 N399 0.984 1_554 S
H405 N399 0.985 . S
H406 N403 0.984 . S
H407 N403 0.985 . S
H408 N402 0.984 . S
H409 N402 0.984 . S
H410 N398 0.984 . S
H411 N398 0.985 1_556 S
C125 C19 1.385 . S
C127 C30 1.410 . S
C143 C50 1.386 . S
C145 C61 1.409 . S
C161 C72 1.409 . S
C163 C62 1.386 . S
C179 C103 1.410 . S
C181 C93 1.385 . S
C197 C123 1.454 . S
C199 C1 1.693 . S
C215 C32 1.810 . S
C217 C0 1.722 . S
C233 C91 2.029 . S
C235 C31 1.954 . S
C251 C122 1.908 . S
C253 C92 1.669 . S
C269 C10 1.454 . S
C271 C113 1.693 . S
C287 C41 1.669 . S
C289 C2 1.907 . S
C305 C33 2.029 . S
C307 C81 1.954 . S
C323 C82 1.810 . S
C325 C112 1.722 . S
C341 C63 0.555 . S
C343 C20 0.561 . S
C359 C51 0.555 . S
C361 C94 0.562 . S
C377 C64 0.769 1_655 S
C379 C29 0.769 1_545 S
C395 C60 0.769 . S
C397 C95 0.768 . S
