# Generated by pormake.
# Topology vbp, (6)-cn, num edge types: 1
# Building blocks:
#     Node 0, Type 0, BuildingBlock: OJICUG_clean_sbu_0, # of connection points: 6
#     Node 1, Type 0, BuildingBlock: OJICUG_clean_sbu_0, # of connection points: 6
#     Node 2, Type 0, BuildingBlock: OJICUG_clean_sbu_0, # of connection points: 6
#     Node 3, Type 0, BuildingBlock: OJICUG_clean_sbu_0, # of connection points: 6
#     Node 4, Type 0, BuildingBlock: OJICUG_clean_sbu_0, # of connection points: 6
#     Node 5, Type 0, BuildingBlock: OJICUG_clean_sbu_0, # of connection points: 6
#     Node 6, Type 0, BuildingBlock: OJICUG_clean_sbu_0, # of connection points: 6
#     Node 7, Type 0, BuildingBlock: OJICUG_clean_sbu_0, # of connection points: 6
#     Node 8, Type 0, BuildingBlock: OJICUG_clean_sbu_0, # of connection points: 6
#     Node 9, Type 0, BuildingBlock: OJICUG_clean_sbu_0, # of connection points: 6
#     Node 10, Type 0, BuildingBlock: OJICUG_clean_sbu_0, # of connection points: 6
#     Node 11, Type 0, BuildingBlock: OJICUG_clean_sbu_0, # of connection points: 6
#     Node 12, Type 0, BuildingBlock: OJICUG_clean_sbu_0, # of connection points: 6
#     Node 13, Type 0, BuildingBlock: OJICUG_clean_sbu_0, # of connection points: 6
#     Node 14, Type 0, BuildingBlock: OJICUG_clean_sbu_0, # of connection points: 6
#     Node 15, Type 0, BuildingBlock: OJICUG_clean_sbu_0, # of connection points: 6
#     Edge 16, Type (0, 0), BuildingBlock: KIFKEQ_clean_linker_1, # of connection points: 2
#     Edge 17, Type (0, 0), BuildingBlock: KIFKEQ_clean_linker_1, # of connection points: 2
#     Edge 18, Type (0, 0), BuildingBlock: KIFKEQ_clean_linker_1, # of connection points: 2
#     Edge 19, Type (0, 0), BuildingBlock: KIFKEQ_clean_linker_1, # of connection points: 2
#     Edge 20, Type (0, 0), BuildingBlock: KIFKEQ_clean_linker_1, # of connection points: 2
#     Edge 21, Type (0, 0), BuildingBlock: KIFKEQ_clean_linker_1, # of connection points: 2
#     Edge 22, Type (0, 0), BuildingBlock: KIFKEQ_clean_linker_1, # of connection points: 2
#     Edge 23, Type (0, 0), BuildingBlock: KIFKEQ_clean_linker_1, # of connection points: 2
#     Edge 24, Type (0, 0), BuildingBlock: KIFKEQ_clean_linker_1, # of connection points: 2
#     Edge 25, Type (0, 0), BuildingBlock: KIFKEQ_clean_linker_1, # of connection points: 2
#     Edge 26, Type (0, 0), BuildingBlock: KIFKEQ_clean_linker_1, # of connection points: 2
#     Edge 27, Type (0, 0), BuildingBlock: KIFKEQ_clean_linker_1, # of connection points: 2
#     Edge 28, Type (0, 0), BuildingBlock: KIFKEQ_clean_linker_1, # of connection points: 2
#     Edge 29, Type (0, 0), BuildingBlock: KIFKEQ_clean_linker_1, # of connection points: 2
#     Edge 30, Type (0, 0), BuildingBlock: KIFKEQ_clean_linker_1, # of connection points: 2
#     Edge 31, Type (0, 0), BuildingBlock: KIFKEQ_clean_linker_1, # of connection points: 2
#     Edge 32, Type (0, 0), BuildingBlock: KIFKEQ_clean_linker_1, # of connection points: 2
#     Edge 33, Type (0, 0), BuildingBlock: KIFKEQ_clean_linker_1, # of connection points: 2
#     Edge 34, Type (0, 0), BuildingBlock: KIFKEQ_clean_linker_1, # of connection points: 2
#     Edge 35, Type (0, 0), BuildingBlock: KIFKEQ_clean_linker_1, # of connection points: 2
#     Edge 36, Type (0, 0), BuildingBlock: KIFKEQ_clean_linker_1, # of connection points: 2
#     Edge 37, Type (0, 0), BuildingBlock: KIFKEQ_clean_linker_1, # of connection points: 2
#     Edge 38, Type (0, 0), BuildingBlock: KIFKEQ_clean_linker_1, # of connection points: 2
#     Edge 39, Type (0, 0), BuildingBlock: KIFKEQ_clean_linker_1, # of connection points: 2
#     Edge 40, Type (0, 0), BuildingBlock: KIFKEQ_clean_linker_1, # of connection points: 2
#     Edge 41, Type (0, 0), BuildingBlock: KIFKEQ_clean_linker_1, # of connection points: 2
#     Edge 42, Type (0, 0), BuildingBlock: KIFKEQ_clean_linker_1, # of connection points: 2
#     Edge 43, Type (0, 0), BuildingBlock: KIFKEQ_clean_linker_1, # of connection points: 2
#     Edge 44, Type (0, 0), BuildingBlock: KIFKEQ_clean_linker_1, # of connection points: 2
#     Edge 45, Type (0, 0), BuildingBlock: KIFKEQ_clean_linker_1, # of connection points: 2
#     Edge 46, Type (0, 0), BuildingBlock: KIFKEQ_clean_linker_1, # of connection points: 2
#     Edge 47, Type (0, 0), BuildingBlock: KIFKEQ_clean_linker_1, # of connection points: 2
#     Edge 48, Type (0, 0), BuildingBlock: KIFKEQ_clean_linker_1, # of connection points: 2
#     Edge 49, Type (0, 0), BuildingBlock: KIFKEQ_clean_linker_1, # of connection points: 2
#     Edge 50, Type (0, 0), BuildingBlock: KIFKEQ_clean_linker_1, # of connection points: 2
#     Edge 51, Type (0, 0), BuildingBlock: KIFKEQ_clean_linker_1, # of connection points: 2
#     Edge 52, Type (0, 0), BuildingBlock: KIFKEQ_clean_linker_1, # of connection points: 2
#     Edge 53, Type (0, 0), BuildingBlock: KIFKEQ_clean_linker_1, # of connection points: 2
#     Edge 54, Type (0, 0), BuildingBlock: KIFKEQ_clean_linker_1, # of connection points: 2
#     Edge 55, Type (0, 0), BuildingBlock: KIFKEQ_clean_linker_1, # of connection points: 2
#     Edge 56, Type (0, 0), BuildingBlock: KIFKEQ_clean_linker_1, # of connection points: 2
#     Edge 57, Type (0, 0), BuildingBlock: KIFKEQ_clean_linker_1, # of connection points: 2
#     Edge 58, Type (0, 0), BuildingBlock: KIFKEQ_clean_linker_1, # of connection points: 2
#     Edge 59, Type (0, 0), BuildingBlock: KIFKEQ_clean_linker_1, # of connection points: 2
#     Edge 60, Type (0, 0), BuildingBlock: KIFKEQ_clean_linker_1, # of connection points: 2
#     Edge 61, Type (0, 0), BuildingBlock: KIFKEQ_clean_linker_1, # of connection points: 2
#     Edge 62, Type (0, 0), BuildingBlock: KIFKEQ_clean_linker_1, # of connection points: 2
#     Edge 63, Type (0, 0), BuildingBlock: KIFKEQ_clean_linker_1, # of connection points: 2
# Relax obj value: 0.262
# Max RMSD: 0.268
# Mean RMSD: 0.268
data_MOF--net-vbp--node1-OJICUG_clean_sbu_0--edge1-KIFKEQ_clean_linker_1
_symmetry_space_group_name_H-M    P1
_symmetry_Int_Tables_number       1
_symmetry_cell_setting            triclinic
loop_
_symmetry_equiv_pos_as_xyz
'x, y, z'
_cell_length_a     30.284406
_cell_length_b     43.384944
_cell_length_c     55.877469
_cell_angle_alpha  90.006782
_cell_angle_beta   89.887954
_cell_angle_gamma 89.986771
loop_
_atom_site_label
_atom_site_type_symbol
_atom_site_fract_x
_atom_site_fract_y
_atom_site_fract_z
_atom_type_partial_charge
Sc0 Sc 0.32432 0.10854 0.14901 0.0
Sc1 Sc 0.38089 0.03984 0.1344 0.0
Sc2 Sc 0.41708 0.11043 0.11111 0.0
O3 O 0.37428 0.08623 0.13174 0.0
C4 C 0.3235 0.1385 0.09621 0.0
C5 C 0.27733 0.04579 0.13272 0.0
C6 C 0.40631 0.05041 0.07973 0.0
C7 C 0.35453 0.05915 0.1881 0.0
C8 C 0.40473 0.15652 0.15437 0.0
C9 C 0.4808 0.06133 0.13596 0.0
O10 O 0.30332 0.12956 0.11511 0.0
O11 O 0.31249 0.03146 0.1273 0.0
O12 O 0.41233 0.07913 0.08208 0.0
O13 O 0.33938 0.0861 0.18345 0.0
O14 O 0.42779 0.14404 0.13816 0.0
O15 O 0.45006 0.04297 0.14197 0.0
O16 O 0.36541 0.14804 0.15929 0.0
O17 O 0.36856 0.0409 0.17203 0.0
O18 O 0.47395 0.08622 0.12454 0.0
O19 O 0.27721 0.07279 0.14153 0.0
O20 O 0.36518 0.13627 0.09395 0.0
O21 O 0.39532 0.03303 0.09703 0.0
Sc22 Sc 0.65377 0.39312 0.14761 0.0
Sc23 Sc 0.59647 0.46122 0.132 0.0
Sc24 Sc 0.55757 0.38958 0.11241 0.0
O25 O 0.60245 0.41467 0.13096 0.0
C26 C 0.6508 0.36339 0.0946 0.0
C27 C 0.70028 0.45548 0.13015 0.0
C28 C 0.56689 0.44832 0.07881 0.0
C29 C 0.62349 0.44401 0.18599 0.0
C30 C 0.57593 0.34376 0.15532 0.0
C31 C 0.49613 0.43914 0.1372 0.0
O32 O 0.67226 0.37091 0.11349 0.0
O33 O 0.66498 0.46984 0.12529 0.0
O34 O 0.55579 0.42087 0.0834 0.0
O35 O 0.64022 0.41732 0.18173 0.0
O36 O 0.55184 0.35512 0.13917 0.0
O37 O 0.52695 0.45883 0.13915 0.0
O38 O 0.61459 0.35368 0.15985 0.0
O39 O 0.60788 0.46127 0.16968 0.0
O40 O 0.50204 0.41226 0.12871 0.0
O41 O 0.70064 0.42837 0.13864 0.0
O42 O 0.60906 0.36613 0.09311 0.0
O43 O 0.58403 0.46608 0.09428 0.0
Sc44 Sc 0.32021 0.89246 0.38354 0.0
Sc45 Sc 0.37569 0.96191 0.3976 0.0
Sc46 Sc 0.4151 0.8916 0.41974 0.0
O47 O 0.3705 0.91537 0.40002 0.0
C48 C 0.32197 0.86439 0.43696 0.0
C49 C 0.2717 0.95527 0.39812 0.0
C50 C 0.40111 0.95131 0.45178 0.0
C51 C 0.35172 0.94137 0.34394 0.0
C52 C 0.39975 0.84392 0.3779 0.0
C53 C 0.47704 0.94134 0.39517 0.0
O54 O 0.30071 0.87175 0.41799 0.0
O55 O 0.30659 0.97015 0.40291 0.0
O56 O 0.41292 0.92374 0.44815 0.0
O57 O 0.33499 0.91491 0.34894 0.0
O58 O 0.42373 0.85671 0.39347 0.0
O59 O 0.44576 0.96032 0.39171 0.0
O60 O 0.36058 0.85274 0.3733 0.0
O61 O 0.3665 0.95976 0.35973 0.0
O62 O 0.47117 0.91488 0.4044 0.0
O63 O 0.27217 0.92766 0.39065 0.0
O64 O 0.36367 0.86731 0.43857 0.0
O65 O 0.38576 0.96854 0.4354 0.0
Sc66 Sc 0.56926 0.60448 0.4206 0.0
Sc67 Sc 0.60981 0.53907 0.39206 0.0
Sc68 Sc 0.65883 0.61111 0.38155 0.0
O69 O 0.61241 0.58487 0.39775 0.0
C70 C 0.57253 0.65434 0.38025 0.0
C71 C 0.50926 0.55408 0.39428 0.0
C72 C 0.63284 0.56515 0.33982 0.0
C73 C 0.58613 0.54333 0.44772 0.0
C74 C 0.65905 0.6361 0.4354 0.0
C75 C 0.71174 0.54887 0.3929 0.0
O76 O 0.55019 0.63737 0.39422 0.0
O77 O 0.54061 0.54038 0.38349 0.0
O78 O 0.64164 0.59299 0.34592 0.0
O79 O 0.5843 0.57253 0.44857 0.0
O80 O 0.68077 0.62766 0.41686 0.0
O81 O 0.67856 0.53364 0.40026 0.0
O82 O 0.61719 0.63497 0.43618 0.0
O83 O 0.59294 0.52858 0.42843 0.0
O84 O 0.7087 0.57583 0.3841 0.0
O85 O 0.5157 0.57593 0.40899 0.0
O86 O 0.61365 0.65012 0.37629 0.0
O87 O 0.62441 0.54399 0.35483 0.0
Sc88 Sc 0.57633 0.89911 0.92288 0.0
Sc89 Sc 0.61715 0.96534 0.89574 0.0
Sc90 Sc 0.66393 0.89383 0.8824 0.0
O91 O 0.61879 0.91939 0.90005 0.0
C92 C 0.66694 0.86656 0.93551 0.0
C93 C 0.5922 0.95907 0.95108 0.0
C94 C 0.71831 0.95513 0.89495 0.0
C95 C 0.51649 0.95075 0.89772 0.0
C96 C 0.5777 0.85044 0.88168 0.0
C97 C 0.63744 0.9418 0.84257 0.0
O98 O 0.62508 0.86783 0.93708 0.0
O99 O 0.59932 0.97434 0.9321 0.0
O100 O 0.714 0.92913 0.88468 0.0
O101 O 0.52271 0.92855 0.91221 0.0
O102 O 0.61865 0.85479 0.87726 0.0
O103 O 0.63215 0.96237 0.85846 0.0
O104 O 0.55591 0.86723 0.89602 0.0
O105 O 0.54799 0.96447 0.88702 0.0
O106 O 0.64417 0.91332 0.84759 0.0
O107 O 0.59233 0.92986 0.95155 0.0
O108 O 0.68763 0.8762 0.91697 0.0
O109 O 0.68603 0.96959 0.90425 0.0
Sc110 Sc 0.32047 0.61308 0.88201 0.0
Sc111 Sc 0.37337 0.54141 0.89124 0.0
Sc112 Sc 0.41613 0.60797 0.91789 0.0
O113 O 0.37008 0.58753 0.89682 0.0
C114 C 0.40172 0.66045 0.879 0.0
C115 C 0.34861 0.56689 0.83931 0.0
C116 C 0.47544 0.56069 0.88935 0.0
C117 C 0.26947 0.55042 0.89389 0.0
C118 C 0.32486 0.63587 0.93722 0.0
C119 C 0.40192 0.54437 0.94519 0.0
O120 O 0.36322 0.65189 0.87273 0.0
O121 O 0.36446 0.54734 0.85382 0.0
O122 O 0.47078 0.58667 0.89958 0.0
O123 O 0.27066 0.57889 0.88875 0.0
O124 O 0.36574 0.62965 0.93906 0.0
O125 O 0.38338 0.53027 0.92809 0.0
O126 O 0.30365 0.63247 0.91753 0.0
O127 O 0.304 0.53416 0.8962 0.0
O128 O 0.41573 0.57184 0.94368 0.0
O129 O 0.33169 0.59266 0.84606 0.0
O130 O 0.42407 0.6466 0.89476 0.0
O131 O 0.44338 0.54243 0.88565 0.0
Sc132 Sc 0.55892 0.10742 0.61092 0.0
Sc133 Sc 0.59619 0.04082 0.63968 0.0
Sc134 Sc 0.65236 0.1116 0.64846 0.0
O135 O 0.60249 0.08661 0.63321 0.0
C136 C 0.65111 0.13493 0.59332 0.0
C137 C 0.56994 0.04302 0.585 0.0
C138 C 0.70032 0.04759 0.63661 0.0
C139 C 0.49577 0.06251 0.63993 0.0
C140 C 0.57104 0.15914 0.65079 0.0
C141 C 0.62331 0.06617 0.69124 0.0
O142 O 0.61038 0.12895 0.59093 0.0
O143 O 0.5839 0.0287 0.60324 0.0
O144 O 0.70066 0.07614 0.64179 0.0
O145 O 0.50257 0.08672 0.6277 0.0
O146 O 0.60923 0.15057 0.65776 0.0
O147 O 0.60668 0.04689 0.67684 0.0
O148 O 0.55042 0.14559 0.63417 0.0
O149 O 0.52645 0.04415 0.64601 0.0
O150 O 0.64063 0.09171 0.68444 0.0
O151 O 0.56081 0.07148 0.58503 0.0
O152 O 0.67134 0.13112 0.61324 0.0
O153 O 0.66503 0.03211 0.63424 0.0
Sc154 Sc 0.41028 0.39759 0.60696 0.0
Sc155 Sc 0.36997 0.46585 0.63016 0.0
Sc156 Sc 0.32216 0.39578 0.64687 0.0
O157 O 0.36792 0.41965 0.62855 0.0
C158 C 0.32061 0.36445 0.59502 0.0
C159 C 0.39631 0.45415 0.57563 0.0
C160 C 0.2693 0.4555 0.62874 0.0
C161 C 0.4695 0.45075 0.63085 0.0
C162 C 0.40941 0.3531 0.65087 0.0
C163 C 0.34202 0.44818 0.68398 0.0
O164 O 0.36252 0.36471 0.59412 0.0
O165 O 0.39239 0.47174 0.59368 0.0
O166 O 0.27249 0.43071 0.64088 0.0
O167 O 0.46358 0.42847 0.61633 0.0
O168 O 0.36842 0.35791 0.65524 0.0
O169 O 0.34917 0.4668 0.66686 0.0
O170 O 0.43068 0.36834 0.6353 0.0
O171 O 0.43771 0.4646 0.64121 0.0
O172 O 0.33902 0.41896 0.68081 0.0
O173 O 0.39198 0.42525 0.57723 0.0
O174 O 0.29964 0.37495 0.61314 0.0
O175 O 0.3024 0.46905 0.61942 0.0
Sc176 Sc 0.82169 0.61196 0.64888 0.0
Sc177 Sc 0.8728 0.5401 0.63867 0.0
Sc178 Sc 0.91068 0.6054 0.60884 0.0
O179 O 0.86845 0.58588 0.63239 0.0
C180 C 0.82023 0.63726 0.59454 0.0
C181 C 0.76989 0.54944 0.63638 0.0
C182 C 0.8971 0.54281 0.58311 0.0
C183 C 0.84794 0.56539 0.69073 0.0
C184 C 0.90789 0.65573 0.64975 0.0
C185 C 0.97284 0.55743 0.63635 0.0
O186 O 0.79991 0.63057 0.61397 0.0
O187 O 0.804 0.53367 0.63113 0.0
O188 O 0.898 0.57194 0.58167 0.0
O189 O 0.83671 0.59278 0.68463 0.0
O190 O 0.92784 0.64034 0.63376 0.0
O191 O 0.94203 0.54277 0.64683 0.0
O192 O 0.868 0.65005 0.65593 0.0
O193 O 0.85887 0.54492 0.67573 0.0
O194 O 0.96561 0.57906 0.62156 0.0
O195 O 0.77172 0.577 0.64418 0.0
O196 O 0.86146 0.63329 0.59222 0.0
O197 O 0.88977 0.52864 0.60256 0.0
Sc198 Sc 0.15297 0.89587 0.64775 0.0
Sc199 Sc 0.09729 0.96592 0.63502 0.0
Sc200 Sc 0.0595 0.89668 0.61034 0.0
O201 O 0.10319 0.91952 0.63131 0.0
C202 C 0.1521 0.86814 0.59395 0.0
C203 C 0.20153 0.95879 0.63388 0.0
C204 C 0.0744 0.9578 0.58021 0.0
C205 C 0.12296 0.94491 0.68808 0.0
C206 C 0.07162 0.84849 0.65253 0.0
C207 C -0.0036 0.94479 0.63591 0.0
O208 O 0.17234 0.87387 0.61357 0.0
O209 O 0.16639 0.9741 0.63064 0.0
O210 O 0.06268 0.93002 0.5828 0.0
O211 O 0.14078 0.91906 0.68236 0.0
O212 O 0.0505 0.86083 0.63556 0.0
O213 O 0.02724 0.96378 0.64027 0.0
O214 O 0.11007 0.85745 0.65876 0.0
O215 O 0.1056 0.96297 0.67289 0.0
O216 O 0.00291 0.91897 0.6258 0.0
O217 O 0.20164 0.93052 0.63981 0.0
O218 O 0.1111 0.87323 0.59145 0.0
O219 O 0.08844 0.9743 0.59734 0.0
Sc220 Sc 0.82295 0.3941 0.88291 0.0
Sc221 Sc 0.87088 0.46559 0.89509 0.0
Sc222 Sc 0.9089 0.40037 0.92399 0.0
O223 O 0.86799 0.41982 0.90019 0.0
C224 C 0.81829 0.36829 0.93662 0.0
C225 C 0.77007 0.45647 0.89517 0.0
C226 C 0.89577 0.46074 0.95028 0.0
C227 C 0.84837 0.44141 0.84247 0.0
C228 C 0.90979 0.35062 0.88345 0.0
C229 C 0.97024 0.45009 0.89726 0.0
O230 O 0.79818 0.37696 0.91764 0.0
O231 O 0.80257 0.4706 0.90453 0.0
O232 O 0.88956 0.43196 0.95133 0.0
O233 O 0.84258 0.41293 0.84782 0.0
O234 O 0.93034 0.36749 0.89826 0.0
O235 O 0.93929 0.46268 0.88537 0.0
O236 O 0.86918 0.35516 0.87807 0.0
O237 O 0.85366 0.46222 0.85814 0.0
O238 O 0.96315 0.42964 0.91318 0.0
O239 O 0.77373 0.4302 0.88509 0.0
O240 O 0.86006 0.36946 0.93831 0.0
O241 O 0.89187 0.47566 0.9309 0.0
Sc242 Sc 0.07429 0.10479 0.92248 0.0
Sc243 Sc 0.11632 0.04034 0.89365 0.0
Sc244 Sc 0.16389 0.11243 0.88317 0.0
O245 O 0.11785 0.0861 0.89944 0.0
C246 C 0.07733 0.15593 0.88231 0.0
C247 C 0.01654 0.05617 0.89219 0.0
C248 C 0.14637 0.06459 0.84208 0.0
C249 C 0.08415 0.0427 0.94783 0.0
C250 C 0.16411 0.13769 0.93744 0.0
C251 C 0.21692 0.05099 0.89803 0.0
O252 O 0.05681 0.13978 0.89761 0.0
O253 O 0.0491 0.04303 0.88191 0.0
O254 O 0.149 0.09325 0.84745 0.0
O255 O 0.08777 0.07162 0.94971 0.0
O256 O 0.18461 0.13079 0.91811 0.0
O257 O 0.18333 0.03592 0.90522 0.0
O258 O 0.12281 0.13341 0.93985 0.0
O259 O 0.0914 0.0287 0.92834 0.0
O260 O 0.21414 0.0773 0.88789 0.0
O261 O 0.02112 0.07694 0.90818 0.0
O262 O 0.11752 0.15063 0.87647 0.0
O263 O 0.13903 0.044 0.85764 0.0
Sc264 Sc 0.06613 0.39509 0.42197 0.0
Sc265 Sc 0.11214 0.46316 0.40038 0.0
Sc266 Sc 0.15766 0.39195 0.38392 0.0
O267 O 0.11155 0.41675 0.40175 0.0
C268 C 0.15602 0.36247 0.43658 0.0
C269 C 0.08281 0.45241 0.45452 0.0
C270 C 0.21271 0.45103 0.40129 0.0
C271 C 0.01066 0.4491 0.39693 0.0
C272 C 0.07144 0.34878 0.37897 0.0
C273 C 0.13787 0.44415 0.34634 0.0
O274 O 0.1141 0.36433 0.43762 0.0
O275 O 0.09302 0.46994 0.43719 0.0
O276 O 0.20871 0.42596 0.38966 0.0
O277 O 0.01365 0.4246 0.40939 0.0
O278 O 0.11236 0.35389 0.37501 0.0
O279 O 0.1307 0.46301 0.36333 0.0
O280 O 0.04945 0.36417 0.39406 0.0
O281 O 0.04407 0.46461 0.39019 0.0
O282 O 0.14188 0.41502 0.34977 0.0
O283 O 0.07745 0.4237 0.45206 0.0
O284 O 0.17782 0.37124 0.41814 0.0
O285 O 0.18006 0.46519 0.41041 0.0
Sc286 Sc 0.82183 0.11009 0.3818 0.0
Sc287 Sc 0.87627 0.03923 0.39063 0.0
Sc288 Sc 0.91078 0.10429 0.42155 0.0
O289 O 0.86963 0.08464 0.39769 0.0
C290 C 0.90694 0.15511 0.38127 0.0
C291 C 0.84942 0.06531 0.33918 0.0
C292 C 0.97516 0.05807 0.39333 0.0
C293 C 0.77311 0.04579 0.39346 0.0
C294 C 0.81943 0.13491 0.43609 0.0
C295 C 0.89967 0.04146 0.44625 0.0
O296 O 0.86691 0.14926 0.37541 0.0
O297 O 0.861 0.04447 0.35372 0.0
O298 O 0.96695 0.07838 0.40912 0.0
O299 O 0.77349 0.0736 0.38601 0.0
O300 O 0.86086 0.13192 0.43819 0.0
O301 O 0.89517 0.02746 0.42647 0.0
O302 O 0.79924 0.12755 0.41684 0.0
O303 O 0.80803 0.03087 0.39862 0.0
O304 O 0.89677 0.07046 0.44813 0.0
O305 O 0.83775 0.09237 0.34583 0.0
O306 O 0.9277 0.13946 0.39677 0.0
O307 O 0.94492 0.04418 0.38184 0.0
Sc308 Sc 0.06121 0.60468 0.10917 0.0
Sc309 Sc 0.09707 0.5366 0.13651 0.0
Sc310 Sc 0.15228 0.60709 0.14827 0.0
O311 O 0.10347 0.58277 0.13157 0.0
C312 C 0.15425 0.63334 0.09394 0.0
C313 C 0.0783 0.54208 0.08109 0.0
C314 C 0.20157 0.5437 0.13668 0.0
C315 C -0.0038 0.55772 0.13449 0.0
C316 C 0.07028 0.65435 0.15067 0.0
C317 C 0.11958 0.55973 0.18936 0.0
O318 O 0.11364 0.62758 0.09079 0.0
O319 O 0.09106 0.52648 0.09899 0.0
O320 O 0.20161 0.57233 0.14151 0.0
O321 O 0.00367 0.58309 0.12394 0.0
O322 O 0.10818 0.64549 0.15795 0.0
O323 O 0.1025 0.54131 0.17434 0.0
O324 O 0.05057 0.64159 0.13337 0.0
O325 O 0.02657 0.53889 0.14009 0.0
O326 O 0.1385 0.58503 0.18323 0.0
O327 O 0.06643 0.57001 0.08256 0.0
O328 O 0.17338 0.62834 0.11402 0.0
O329 O 0.16645 0.52822 0.13385 0.0
Sc330 Sc 0.91636 0.89439 0.10689 0.0
Sc331 Sc 0.87935 0.96435 0.13075 0.0
Sc332 Sc 0.82674 0.89482 0.14718 0.0
O333 O 0.87429 0.91788 0.12852 0.0
C334 C 0.82319 0.86429 0.09451 0.0
C335 C 0.89878 0.95374 0.07546 0.0
C336 C 0.77583 0.95679 0.13241 0.0
C337 C 0.98022 0.94452 0.12986 0.0
C338 C 0.90979 0.84833 0.15063 0.0
C339 C 0.8587 0.94528 0.18518 0.0
O340 O 0.86441 0.8676 0.09125 0.0
O341 O 0.88838 0.97099 0.09294 0.0
O342 O 0.77713 0.92957 0.14083 0.0
O343 O 0.97342 0.91925 0.11901 0.0
O344 O 0.8708 0.85634 0.15683 0.0
O345 O 0.87132 0.96331 0.16864 0.0
O346 O 0.93021 0.86103 0.13352 0.0
O347 O 0.94935 0.96269 0.13601 0.0
O348 O 0.84346 0.91818 0.1811 0.0
O349 O 0.90798 0.92544 0.0779 0.0
O350 O 0.80396 0.87292 0.11381 0.0
O351 O 0.81011 0.97152 0.12612 0.0
H352 H 0.41325 0.98891 0.06857 0.0
H353 H 0.43681 0.08033 0.04032 0.0
H354 H 0.4586 0.96718 0.0367 0.0
H355 H 0.48445 0.05917 1.01014 0.0
H356 H 0.58495 0.94144 0.99808 0.0
H357 H 0.53416 0.96318 0.02763 0.0
H358 H 0.49365 0.03199 0.97602 0.0
H359 H 0.54633 0.01219 0.94779 0.0
C360 C 0.4274 0.00431 0.05537 0.0
C361 C 0.42209 0.03639 0.05727 0.0
C362 C 0.45414 0.99193 0.0374 0.0
C363 C 0.47633 0.01145 0.02126 0.0
C364 C 0.46793 0.04327 0.02209 0.0
C365 C 0.44053 0.0555 0.03959 0.0
C366 C 0.56614 0.96184 0.99351 0.0
C367 C 0.57008 0.97532 0.97079 0.0
C368 C 0.53635 0.9739 1.01018 0.0
C369 C 0.50925 0.99912 1.00412 0.0
C370 C 0.51437 0.01298 0.9816 0.0
C371 C 0.54492 1.0016 0.96534 0.0
H372 H 0.57007 0.50835 0.0634 0.0
H373 H 0.52828 0.41688 0.04238 0.0
H374 H 0.52817 0.53001 0.03025 0.0
H375 H 0.48421 0.43849 1.01077 0.0
H376 H 0.4334 0.48635 0.94426 0.0
H377 H 0.48001 0.46284 0.97435 0.0
H378 H 0.45278 0.53887 0.02239 0.0
H379 H 0.40848 0.56337 0.99135 0.0
C380 C 0.55254 0.49286 0.05155 0.0
C381 C 0.55175 0.46101 0.05583 0.0
C382 C 0.52787 0.50528 0.03283 0.0
C383 C 0.50166 0.48606 0.01836 0.0
C384 C 0.50387 0.45404 0.02152 0.0
C385 C 0.52914 0.44163 0.03982 0.0
C386 C 0.43635 0.49753 0.96153 0.0
C387 C 0.4174 0.52652 0.96565 0.0
C388 C 0.46336 0.4842 0.97875 0.0
C389 C 0.47092 0.49929 1.00062 0.0
C390 C 0.44891 0.52718 1.0054 0.0
C391 C 0.42278 0.54089 0.98792 0.0
H392 H 0.40553 0.01238 0.46425 0.0
H393 H 0.42617 0.92022 0.49161 0.0
H394 H 0.44708 0.0332 0.49784 0.0
H395 H 0.47036 0.94056 0.52367 0.0
H396 H 0.52767 0.9887 0.58805 0.0
H397 H 0.47807 0.96751 0.55845 0.0
H398 H 0.5225 0.03579 0.50725 0.0
H399 H 0.56977 0.05846 0.53783 0.0
C400 C 0.41816 0.99664 0.47764 0.0
C401 C 0.41362 0.96466 0.47496 0.0
C402 C 0.44276 0.00848 0.4966 0.0
C403 C 0.46353 0.98847 0.51291 0.0
C404 C 0.45514 0.95673 0.51146 0.0
C405 C 0.42985 0.94501 0.49291 0.0
C406 C 0.52781 0.99856 0.57023 0.0
C407 C 0.55258 0.02504 0.56506 0.0
C408 C 0.49905 0.98659 0.55328 0.0
C409 C 0.49555 1.00033 0.53059 0.0
C410 C 0.52318 0.02534 0.52484 0.0
C411 C 0.55105 0.03788 0.54208 0.0
H412 H 0.57963 0.56211 0.49439 0.0
H413 H 0.54984 0.4863 0.44683 0.0
H414 H 0.53204 0.53929 0.52486 0.0
H415 H 0.50043 0.46486 0.47623 0.0
H416 H 0.43809 0.42121 0.54103 0.0
H417 H 0.49017 0.44061 0.51209 0.0
H418 H 0.45565 0.53414 0.53156 0.0
H419 H 0.40538 0.51444 0.56204 0.0
C420 C 0.56358 0.54033 0.49064 0.0
C421 C 0.5683 0.5261 0.46822 0.0
C422 C 0.53567 0.52755 0.50787 0.0
C423 C 0.51143 0.50067 0.50277 0.0
C424 C 0.51867 0.48543 0.48093 0.0
C425 C 0.54727 0.49776 0.46401 0.0
C426 C 0.44084 0.44596 0.53889 0.0
C427 C 0.41784 0.46633 0.55399 0.0
C428 C 0.47094 0.45712 0.52224 0.0
C429 C 0.47782 0.48897 0.51975 0.0
C430 C 0.45229 0.50944 0.53359 0.0
C431 C 0.42283 0.49821 0.55072 0.0
H432 H 0.9004 0.55765 0.53556 0.0
H433 H 0.94376 0.49009 0.5873 0.0
H434 H 0.95099 0.53573 0.50607 0.0
H435 H -0.00382 0.46992 0.55887 0.0
H436 H 0.05527 0.42195 0.49437 0.0
H437 H 0.00705 0.44212 0.52483 0.0
H438 H 0.02702 0.53442 0.49748 0.0
H439 H 0.07298 0.51369 0.46551 0.0
C440 C 0.92015 0.5378 0.54044 0.0
C441 C 0.91788 0.52542 0.56359 0.0
C442 C 0.94984 0.52567 0.52379 0.0
C443 C 0.97843 0.50148 0.53025 0.0
C444 C 0.97447 0.48828 0.55309 0.0
C445 C 0.94405 0.49979 0.56943 0.0
C446 C 0.05009 0.44665 0.495 0.0
C447 C 0.06698 0.46611 0.47708 0.0
C448 C 0.02237 0.45829 0.51263 0.0
C449 C 0.01204 0.48983 0.51323 0.0
C450 C 0.0329 0.50981 0.49691 0.0
C451 C 0.06 0.49802 0.47888 0.0
H452 H 0.06184 0.92852 0.538 0.0
H453 H 0.06105 0.01895 0.57053 0.0
H454 H 0.01877 0.94775 0.505 0.0
H455 H 0.02028 0.03901 0.53632 0.0
H456 H 0.89476 0.05348 0.4941 0.0
H457 H 0.94554 0.03456 0.5246 0.0
H458 H 0.00992 0.97746 0.47141 0.0
H459 H 0.95753 0.99461 0.44171 0.0
C460 C 0.05379 0.95286 0.53763 0.0
C461 C 0.06357 0.97207 0.55715 0.0
C462 C 0.02915 0.96396 0.5186 0.0
C463 C 0.01483 0.99473 0.51839 0.0
C464 C 0.0294 0.01487 0.53647 0.0
C465 C 0.05352 0.00358 0.55582 0.0
C466 C 0.91893 0.03612 0.48928 0.0
C467 C 0.92186 0.02515 0.46574 0.0
C468 C 0.94867 0.02582 0.50652 0.0
C469 C 0.98243 0.00498 0.50032 0.0
C470 C 0.98413 0.99325 0.47692 0.0
C471 C 0.95377 0.00289 0.4599 0.0
H472 H 0.89411 0.4487 0.99826 0.0
H473 H 0.96177 0.50144 0.94379 0.0
H474 H 0.94892 0.46521 0.02764 0.0
H475 H 0.01785 0.51594 0.97229 0.0
H476 H 0.07017 0.56855 0.03747 0.0
H477 H 0.02808 0.5479 1.00461 0.0
H478 H 0.02344 0.45906 0.03978 0.0
H479 H 0.06356 0.48061 0.07367 0.0
C480 C 0.92038 0.46409 0.99273 0.0
C481 C 0.92306 0.4745 0.96904 0.0
C482 C 0.95234 0.47297 1.00931 0.0
C483 C 0.98808 0.49166 1.00224 0.0
C484 C -0.00956 0.50202 0.97849 0.0
C485 C 0.95797 0.49392 0.96218 0.0
C486 C 0.06116 0.54437 0.03794 0.0
C487 C 0.06887 0.52643 0.0584 0.0
C488 C 0.03708 0.53243 0.01899 0.0
C489 C 0.02114 0.50205 0.01992 0.0
C490 C 0.03391 0.48291 0.039 0.0
C491 C 0.05761 0.49505 0.0582 0.0
H492 H 0.07819 0.05628 0.99544 0.0
H493 H 0.02945 0.99433 0.94095 0.0
H494 H 0.02376 0.03591 0.02352 0.0
H495 H 0.97363 0.97551 0.96824 0.0
H496 H 0.91937 0.92425 0.03394 0.0
H497 H 0.96347 0.94545 1.00197 0.0
H498 H 0.94666 0.03687 0.03157 0.0
H499 H 0.90451 0.01522 0.06466 0.0
C500 C 0.05623 0.03806 0.98963 0.0
C501 C 0.05846 0.02657 0.96621 0.0
C502 C 0.02444 0.02686 1.00547 0.0
C503 C -0.00623 0.00449 0.99796 0.0
C504 C -0.00306 0.99249 0.9747 0.0
C505 C 0.02928 0.00313 0.9591 0.0
C506 C 0.92416 0.94899 0.0334 0.0
C507 C 0.90987 0.96792 0.0523 0.0
C508 C 0.94944 0.96121 1.01494 0.0
C509 C 0.95994 0.99273 1.01471 0.0
C510 C 0.9406 0.01227 0.03185 0.0
C511 C 0.91579 0.99994 0.05058 0.0
H512 H 0.28975 0.06016 0.22301 0.0
H513 H 0.42152 0.02761 0.20812 0.0
H514 H 0.28843 0.02902 0.2599 0.0
H515 H 0.42016 0.99651 0.24422 0.0
H516 H 0.42083 0.96975 0.32307 0.0
H517 H 0.42098 1.00067 0.28685 0.0
H518 H 0.28642 0.97337 0.27265 0.0
H519 H 0.28628 0.94242 0.30962 0.0
C520 C 0.31879 0.04706 0.22795 0.0
C521 C 0.35599 0.04671 0.21286 0.0
C522 C 0.31776 0.02873 0.24879 0.0
C523 C 0.35407 0.00997 0.25501 0.0
C524 C 0.39171 0.01074 0.24026 0.0
C525 C 0.39258 0.02872 0.21954 0.0
C526 C 0.39159 0.96968 0.31191 0.0
C527 C 0.35379 0.95321 0.31903 0.0
C528 C 0.39157 0.98758 0.29115 0.0
C529 C 0.35361 0.98981 0.2768 0.0
C530 C 0.31606 0.97252 0.28344 0.0
C531 C 0.31621 0.95426 0.30432 0.0
H532 H 0.55892 0.47935 0.20478 0.0
H533 H 0.68698 0.44172 0.22164 0.0
H534 H 0.56212 0.51216 0.23974 0.0
H535 H 0.68974 0.47422 0.25775 0.0
H536 H 0.70004 0.55933 0.3071 0.0
H537 H 0.69791 0.52787 0.27048 0.0
H538 H 0.55825 0.51284 0.28142 0.0
H539 H 0.5606 0.54468 0.31714 0.0
C540 C 0.58742 0.4775 0.2164 0.0
C541 C 0.62256 0.45767 0.21044 0.0
C542 C 0.58928 0.49644 0.23656 0.0
C543 C 0.62631 0.4962 0.25169 0.0
C544 C 0.66095 0.47546 0.24633 0.0
C545 C 0.65905 0.45632 0.22593 0.0
C546 C 0.66866 0.55038 0.30094 0.0
C547 C 0.63017 0.55533 0.3145 0.0
C548 C 0.66756 0.53168 0.28032 0.0
C549 C 0.62795 0.51745 0.27292 0.0
C550 C 0.58929 0.5236 0.28614 0.0
C551 C 0.59045 0.54217 0.30658 0.0
H552 H 0.69879 0.94311 0.80604 0.0
H553 H 0.56624 0.96998 0.82475 0.0
H554 H 0.69556 0.97655 0.77054 0.0
H555 H 0.56339 0.00421 0.79062 0.0
H556 H 0.55461 0.04294 0.71571 0.0
H557 H 0.5577 0.00933 0.75016 0.0
H558 H 0.69674 0.02936 0.75819 0.0
H559 H 0.69361 0.0622 0.72238 0.0
C560 C 0.66846 0.9553 0.80207 0.0
C561 C 0.63228 0.95321 0.81775 0.0
C562 C 0.66692 0.97516 0.7821 0.0
C563 C 0.62931 0.99357 0.77759 0.0
C564 C 0.59271 0.99028 0.79295 0.0
C565 C 0.59415 0.97038 0.81257 0.0
C566 C 0.58557 0.04103 0.72531 0.0
C567 C 0.62366 0.05573 0.71653 0.0
C568 C 0.5875 0.02148 0.74512 0.0
C569 C 0.6276 0.01612 0.75713 0.0
C570 C 0.66539 0.03233 0.74922 0.0
C571 C 0.66345 0.05188 0.72908 0.0
H572 H 0.28042 0.56952 0.80672 0.0
H573 H 0.41434 0.53783 0.81558 0.0
H574 H 0.2742 0.53865 0.77004 0.0
H575 H 0.40855 0.50744 0.77912 0.0
H576 H 0.37277 0.42964 0.72849 0.0
H577 H 0.37282 0.46058 0.76539 0.0
H578 H 0.29915 0.53204 0.72936 0.0
H579 H 0.29852 0.50114 0.69311 0.0
C580 C 0.309 0.55691 0.80037 0.0
C581 C 0.34799 0.55644 0.81395 0.0
C582 C 0.30535 0.53882 0.77951 0.0
C583 C 0.34057 0.51982 0.77183 0.0
C584 C 0.38028 0.52092 0.78475 0.0
C585 C 0.38389 0.53888 0.80545 0.0
C586 C 0.35571 0.45158 0.72873 0.0
C587 C 0.3358 0.46291 0.70785 0.0
C588 C 0.35623 0.4696 0.74973 0.0
C589 C 0.33651 0.49919 0.75034 0.0
C590 C 0.31453 0.50951 0.72977 0.0
C591 C 0.31432 0.49173 0.70889 0.0
H592 H 0.91781 0.47001 0.8228 0.0
H593 H 0.78444 0.44199 0.80744 0.0
H594 H 0.91751 0.504 0.78843 0.0
H595 H 0.78434 0.47528 0.77182 0.0
H596 H 0.78066 0.56097 0.72379 0.0
H597 H 0.78123 0.52812 0.75964 0.0
H598 H 0.91965 0.50903 0.74766 0.0
H599 H 0.91903 0.54258 0.71304 0.0
C600 C 0.88901 0.47009 0.8113 0.0
C601 C 0.85163 0.45263 0.81747 0.0
C602 C 0.88862 0.48987 0.79156 0.0
C603 C 0.85079 0.49283 0.77713 0.0
C604 C 0.81389 0.47415 0.78265 0.0
C605 C 0.81425 0.45436 0.80268 0.0
C606 C 0.81153 0.55087 0.72963 0.0
C607 C 0.85011 0.5551 0.716 0.0
C608 C 0.8117 0.53131 0.74979 0.0
C609 C 0.8504 0.51537 0.75663 0.0
C610 C 0.88927 0.52099 0.74347 0.0
C611 C 0.88909 0.54054 0.72359 0.0
H612 H 0.10765 0.08394 0.79975 0.0
H613 H 0.1965 0.01631 0.82922 0.0
H614 H 0.10393 0.05406 0.76246 0.0
H615 H 0.19144 0.98591 0.79302 0.0
H616 H 0.19456 0.94413 0.71802 0.0
H617 H 0.20604 0.97681 0.75308 0.0
H618 H 0.07107 0.00867 0.74818 0.0
H619 H 0.06066 0.97705 0.71264 0.0
C620 C 0.12734 0.06322 0.798 0.0
C621 C 0.15255 0.05262 0.81737 0.0
C622 C 0.12454 0.04561 0.77684 0.0
C623 C 0.14669 0.01697 0.77467 0.0
C624 C 0.17407 0.00769 0.79362 0.0
C625 C 0.177 0.02525 0.81452 0.0
C626 C 0.16706 0.95744 0.7249 0.0
C627 C 0.12654 0.95762 0.71273 0.0
C628 C 0.17366 0.97654 0.74493 0.0
C629 C 0.13972 0.99607 0.75349 0.0
C630 C 0.09853 0.99487 0.74189 0.0
C631 C 0.09219 0.97616 0.72176 0.0
H632 H 0.17403 0.49948 0.33624 0.0
H633 H 0.11021 0.42227 0.30207 0.0
H634 H 0.16994 0.52889 0.29946 0.0
H635 H 0.10708 0.45172 0.2645 0.0
H636 H 0.05821 0.52442 0.21185 0.0
H637 H 0.06676 0.4949 0.24856 0.0
H638 H 0.19477 0.53639 0.25958 0.0
H639 H 0.18562 0.56648 0.22282 0.0
C640 C 0.15975 0.48852 0.32063 0.0
C641 C 0.14211 0.4585 0.3222 0.0
C642 C 0.15763 0.50546 0.29941 0.0
C643 C 0.13772 0.49304 0.27891 0.0
C644 C 0.12193 0.46235 0.28005 0.0
C645 C 0.12424 0.44522 0.30146 0.0
C646 C 0.08784 0.52776 0.22238 0.0
C647 C 0.12109 0.54808 0.21444 0.0
C648 C 0.09308 0.51036 0.24326 0.0
C649 C 0.13186 0.51256 0.25693 0.0
C650 C 0.16434 0.53401 0.24962 0.0
C651 C 0.15898 0.5516 0.22865 0.0
H652 H 0.92195 0.04832 0.31497 0.0
H653 H 0.78099 0.05723 0.3077 0.0
H654 H 0.92486 0.01664 0.27919 0.0
H655 H 0.7836 0.02596 0.27102 0.0
H656 H 0.79824 0.94035 0.22221 0.0
H657 H 0.79533 0.97274 0.25835 0.0
H658 H 0.9186 0.01534 0.23767 0.0
H659 H 0.92206 0.9826 0.20266 0.0
C660 C 0.89176 0.04463 0.30498 0.0
C661 C 0.85147 0.05607 0.31373 0.0
C662 C 0.89327 0.02613 0.28452 0.0
C663 C 0.85442 0.01837 0.2721 0.0
C664 C 0.81414 0.03101 0.28025 0.0
C665 C 0.81269 0.04962 0.3009 0.0
C666 C 0.82531 0.95593 0.22593 0.0
C667 C 0.86059 0.95863 0.20969 0.0
C668 C 0.82324 0.97501 0.24634 0.0
C669 C 0.8565 0.99707 0.25094 0.0
C670 C 0.89253 0.99861 0.23508 0.0
C671 C 0.89457 0.97969 0.2149 0.0
H672 H 0.23457 0.1309 0.08695 0.0
H673 H 0.35486 0.16487 0.05485 0.0
H674 H 0.19723 0.13563 0.04845 0.0
H675 H 0.31746 0.17006 0.01656 0.0
H676 H 0.25354 0.13277 0.94651 0.0
H677 H 0.29068 0.1379 0.98507 0.0
H678 H 0.16832 0.16759 0.01748 0.0
H679 H 0.13119 0.16197 0.97917 0.0
C680 C 0.25282 0.14019 0.07191 0.0
C681 C 0.29793 0.14743 0.07426 0.0
C682 C 0.23136 0.14287 0.04966 0.0
C683 C 0.25428 0.1529 0.02904 0.0
C684 C 0.29876 0.16161 0.03173 0.0
C685 C 0.32017 0.15893 0.05391 0.0
C686 C 0.23474 0.1411 0.9617 0.0
C687 C 0.18917 0.14685 0.9595 0.0
C688 C 0.25608 0.14401 0.98397 0.0
C689 C 0.23257 0.15282 1.00474 0.0
C690 C 0.18753 0.16009 1.00219 0.0
C691 C 0.16624 0.15715 0.98001 0.0
H692 H 0.84931 0.36981 0.98228 0.0
H693 H 0.73054 0.3504 0.94252 0.0
H694 H 0.80977 0.36445 0.01937 0.0
H695 H 0.69081 0.34246 0.98012 0.0
H696 H 0.61854 0.36687 0.04913 0.0
H697 H 0.65769 0.36415 1.01172 0.0
H698 H 0.77715 0.33966 0.04961 0.0
H699 H 0.73793 0.34497 0.08758 0.0
C700 C 0.81476 0.36347 0.98139 0.0
C701 C 0.79335 0.36051 0.9591 0.0
C702 C 0.7918 0.36013 1.00301 0.0
C703 C 0.74644 0.35296 1.00343 0.0
C704 C 0.72531 0.34874 0.98103 0.0
C705 C 0.74824 0.35291 0.95923 0.0
C706 C 0.65311 0.36048 0.04964 0.0
C707 C 0.67486 0.35616 0.07171 0.0
C708 C 0.67585 0.35873 0.02782 0.0
C709 C 0.72129 0.35188 0.02696 0.0
C710 C 0.74261 0.34593 0.04907 0.0
C711 C 0.71995 0.34851 0.07108 0.0
H712 H 0.23509 0.8453 0.44339 0.0
H713 H 0.3534 0.86763 0.48264 0.0
H714 H 0.19525 0.83919 0.4811 0.0
H715 H 0.31357 0.86398 0.51987 0.0
H716 H 0.2394 0.8488 0.58845 0.0
H717 H 0.27982 0.84102 0.55103 0.0
H718 H 0.16199 0.86413 0.51121 0.0
H719 H 0.12174 0.86945 0.54802 0.0
C720 C 0.2527 0.84877 0.46002 0.0
C721 C 0.29766 0.85681 0.45969 0.0
C722 C 0.22968 0.8457 0.48186 0.0
C723 C 0.2505 0.85148 0.50413 0.0
C724 C 0.29584 0.85869 0.5036 0.0
C725 C 0.31896 0.86098 0.48191 0.0
C726 C 0.22203 0.85153 0.57167 0.0
C727 C 0.17707 0.85964 0.57159 0.0
C728 C 0.24538 0.84747 0.54998 0.0
C729 C 0.22482 0.85217 0.52749 0.0
C730 C 0.17954 0.85953 0.52766 0.0
C731 C 0.15617 0.86285 0.54915 0.0
H732 H 0.74385 0.6586 0.44308 0.0
H733 H 0.62656 0.62881 0.48038 0.0
H734 H 0.78078 0.66628 0.48143 0.0
H735 H 0.66375 0.63384 0.51821 0.0
H736 H 0.73118 0.65156 0.58802 0.0
H737 H 0.69231 0.65794 0.55005 0.0
H738 H 0.81524 0.64393 0.51195 0.0
H739 H 0.85362 0.64031 0.54925 0.0
C740 C 0.72595 0.65369 0.45944 0.0
C741 C 0.68208 0.64332 0.45845 0.0
C742 C 0.74727 0.65771 0.48164 0.0
C743 C 0.72589 0.65044 0.50355 0.0
C744 C 0.6817 0.64049 0.50228 0.0
C745 C 0.66017 0.63736 0.48026 0.0
C746 C 0.7499 0.65062 0.5715 0.0
C747 C 0.79571 0.64543 0.57204 0.0
C748 C 0.72751 0.65381 0.54949 0.0
C749 C 0.75003 0.65107 0.5273 0.0
C750 C 0.79606 0.64686 0.52813 0.0
C751 C 0.81838 0.6445 0.54994 0.0
H752 H 0.6331 0.84101 0.97652 0.0
H753 H 0.75596 0.8724 0.94563 0.0
H754 H 0.66888 0.835 0.01516 0.0
H755 H 0.79181 0.86643 0.98453 0.0
H756 H 0.85332 0.83557 0.05402 0.0
H757 H 0.81645 0.83104 0.01555 0.0
H758 H 0.69733 0.86846 0.04659 0.0
H759 H 0.73435 0.87297 0.08532 0.0
C760 C 0.668 0.8462 0.97779 0.0
C761 C 0.69147 0.8573 0.9577 0.0
C762 C 0.68845 0.84299 1.00015 0.0
C763 C 0.7332 0.85055 1.00324 0.0
C764 C 0.75735 0.86014 0.98291 0.0
C765 C 0.73678 0.86352 0.96048 0.0
C766 C 0.81894 0.8423 0.05289 0.0
C767 C 0.79699 0.85474 0.073 0.0
C768 C 0.7979 0.83997 0.03063 0.0
C769 C 0.75404 0.84984 0.02767 0.0
C770 C 0.73109 0.86047 0.0481 0.0
C771 C 0.75227 0.86293 0.07045 0.0
H772 H 0.35473 0.62756 0.98283 0.0
H773 H 0.2404 0.6597 0.94416 0.0
H774 H 0.31519 0.63187 0.02008 0.0
H775 H 0.2011 0.66628 0.98203 0.0
H776 H 0.12381 0.63668 0.04803 0.0
H777 H 0.16464 0.64165 1.0114 0.0
H778 H 0.28456 0.65612 0.05179 0.0
H779 H 0.24332 0.64872 0.089 0.0
C780 C 0.32131 0.63642 0.98224 0.0
C781 C 0.30095 0.6432 0.96014 0.0
C782 C 0.29842 0.63912 1.00396 0.0
C783 C 0.2543 0.64931 1.00468 0.0
C784 C 0.23451 0.65752 0.98259 0.0
C785 C 0.25726 0.65413 0.96068 0.0
C786 C 0.15887 0.64125 0.04937 0.0
C787 C 0.18002 0.64206 0.07188 0.0
C788 C 0.18258 0.6444 0.02798 0.0
C789 C 0.22854 0.64916 0.028 0.0
C790 C 0.2495 0.65167 0.0506 0.0
C791 C 0.22571 0.64785 0.07217 0.0
H792 H 0.85132 0.13634 0.48171 0.0
H793 H 0.73104 0.15092 0.44195 0.0
H794 H 0.81157 0.14093 0.51881 0.0
H795 H 0.69105 0.15802 0.47954 0.0
H796 H 0.6214 0.12814 0.54766 0.0
H797 H 0.66083 0.13292 0.51061 0.0
H798 H 0.77601 0.16476 0.54905 0.0
H799 H 0.7366 0.15759 0.5869 0.0
C800 C 0.81635 0.14142 0.48078 0.0
C801 C 0.79455 0.14306 0.4585 0.0
C802 C 0.79331 0.14431 0.50241 0.0
C803 C 0.74748 0.14963 0.50278 0.0
C804 C 0.72599 0.15301 0.48041 0.0
C805 C 0.74904 0.14935 0.45863 0.0
C806 C 0.65506 0.13652 0.54844 0.0
C807 C 0.67561 0.14242 0.57064 0.0
C808 C 0.67788 0.13955 0.5268 0.0
C809 C 0.72217 0.14927 0.5262 0.0
C810 C 0.74235 0.15649 0.5484 0.0
C811 C 0.7196 0.15274 0.57029 0.0
H812 H 0.35353 0.36398 0.5496 0.0
H813 H 0.23278 0.34776 0.58866 0.0
H814 H 0.31465 0.35939 0.51225 0.0
H815 H 0.19371 0.34044 0.55095 0.0
H816 H 0.12334 0.36605 0.48197 0.0
H817 H 0.16195 0.36244 0.51943 0.0
H818 H 0.28118 0.33665 0.48155 0.0
H819 H 0.24255 0.34296 0.44358 0.0
C820 C 0.31868 0.35841 0.55027 0.0
C821 C 0.2965 0.35622 0.57243 0.0
C822 C 0.29605 0.35557 0.52851 0.0
C823 C 0.2503 0.34964 0.52786 0.0
C824 C 0.2285 0.3459 0.55016 0.0
C825 C 0.25107 0.34964 0.57205 0.0
C826 C 0.15771 0.35916 0.4815 0.0
C827 C 0.17959 0.35474 0.45945 0.0
C828 C 0.18018 0.35689 0.50335 0.0
C829 C 0.22543 0.34935 0.50424 0.0
C830 C 0.24683 0.3434 0.48211 0.0
C831 C 0.22448 0.34655 0.4601 0.0
H832 H 0.5543 0.08141 0.11242 0.0
H833 H 0.51082 0.01693 0.16653 0.0
H834 H 0.62634 0.05686 0.11166 0.0
H835 H 0.58359 0.99303 0.16642 0.0
H836 H 0.7624 0.01871 0.12826 0.0
H837 H 0.69322 0.04655 0.13212 0.0
H838 H 0.62332 0.96018 0.13957 0.0
H839 H 0.69292 0.9323 0.13662 0.0
C840 C 0.56052 0.06256 0.12467 0.0
C841 C 0.52672 0.0509 0.13936 0.0
C842 C 0.60188 0.04844 0.12422 0.0
C843 C 0.61047 0.02261 0.13867 0.0
C844 C 0.5776 0.01233 0.15457 0.0
C845 C 0.53608 0.02623 0.15483 0.0
C846 C 0.73224 0.00559 0.1305 0.0
C847 C 0.73316 0.97324 0.13212 0.0
C848 C 0.69254 0.0216 0.13274 0.0
C849 C 0.65277 0.00564 0.13637 0.0
C850 C 0.65353 0.97324 0.13737 0.0
C851 C 0.69334 0.95721 0.13539 0.0
H852 H 0.41969 0.41549 0.11916 0.0
H853 H 0.47019 0.4874 0.16513 0.0
H854 H 0.34742 0.4399 0.11954 0.0
H855 H 0.39745 0.51127 0.16619 0.0
H856 H 0.285 0.56788 0.13514 0.0
H857 H 0.3546 0.54004 0.13789 0.0
H858 H 0.28345 0.45381 0.14195 0.0
H859 H 0.21406 0.48146 0.13835 0.0
C860 C 0.41502 0.436 0.12994 0.0
C861 C 0.4507 0.44975 0.14189 0.0
C862 C 0.37356 0.45004 0.13013 0.0
C863 C 0.36693 0.47788 0.14251 0.0
C864 C 0.40185 0.49032 0.15591 0.0
C865 C 0.44339 0.47648 0.15551 0.0
C866 C 0.28424 0.54298 0.13643 0.0
C867 C 0.244 0.52692 0.13646 0.0
C868 C 0.32409 0.52702 0.13829 0.0
C869 C 0.32453 0.49471 0.14044 0.0
C870 C 0.2843 0.47865 0.14012 0.0
C871 C 0.2445 0.49456 0.13804 0.0
H872 H 0.55285 0.91969 0.41551 0.0
H873 H 0.50401 0.98846 0.36627 0.0
H874 H 0.6251 0.94413 0.41501 0.0
H875 H 0.57677 0.01225 0.36502 0.0
H876 H 0.68998 0.07043 0.39277 0.0
H877 H 0.62005 0.04292 0.39129 0.0
H878 H 0.68996 0.95605 0.39312 0.0
H879 H 0.75974 0.98356 0.39552 0.0
C880 C 0.55787 0.93953 0.40405 0.0
C881 C 0.52262 0.95231 0.3911 0.0
C882 C 0.59936 0.95359 0.40377 0.0
C883 C 0.6066 0.98051 0.3903 0.0
C884 C 0.57201 0.99208 0.37614 0.0
C885 C 0.53043 0.97825 0.37665 0.0
C886 C 0.6904 0.04547 0.39303 0.0
C887 C 0.73044 0.02923 0.39432 0.0
C888 C 0.65031 0.02965 0.39192 0.0
C889 C 0.64934 0.99722 0.39179 0.0
C890 C 0.6894 0.98101 0.39342 0.0
C891 C 0.72946 0.99682 0.39479 0.0
H892 H 0.47843 0.50881 0.36421 0.0
H893 H 0.43756 0.57117 0.42049 0.0
H894 H 0.40579 0.48445 0.36537 0.0
H895 H 0.36656 0.54612 0.42239 0.0
H896 H 0.22932 0.51206 0.4074 0.0
H897 H 0.29936 0.53847 0.40278 0.0
H898 H 0.36463 0.45104 0.3911 0.0
H899 H 0.29378 0.42468 0.39461 0.0
C900 C 0.45394 0.51748 0.37666 0.0
C901 C 0.4639 0.54187 0.39227 0.0
C902 C 0.41252 0.50331 0.37752 0.0
C903 C 0.3805 0.51312 0.39416 0.0
C904 C 0.3901 0.53819 0.40914 0.0
C905 C 0.43109 0.55254 0.40808 0.0
C906 C 0.25869 0.49841 0.40414 0.0
C907 C 0.25614 0.46627 0.40152 0.0
C908 C 0.29889 0.51357 0.40145 0.0
C909 C 0.33765 0.4969 0.39649 0.0
C910 C 0.33526 0.46464 0.39441 0.0
C911 C 0.29482 0.44949 0.39673 0.0
H912 H 0.29796 0.07804 0.8932 0.0
H913 H 0.23463 0.99 0.9049 0.0
H914 H 0.36962 0.05258 0.89182 0.0
H915 H 0.3059 0.96449 0.90266 0.0
H916 H 0.48611 0.99537 0.86701 0.0
H917 H 0.41298 0.01901 0.86685 0.0
H918 H 0.3724 0.95857 0.92433 0.0
H919 H 0.44431 0.93433 0.92392 0.0
C920 C 0.29935 0.05327 0.89551 0.0
C921 C 0.26065 0.03606 0.89927 0.0
C922 C 0.34035 0.03864 0.89445 0.0
C923 C 0.34347 0.00647 0.89692 0.0
C924 C 0.30477 0.98935 0.90098 0.0
C925 C 0.26386 0.00399 0.90229 0.0
C926 C 0.46133 0.98687 0.87936 0.0
C927 C 0.47113 0.96298 0.89547 0.0
C928 C 0.41958 1.00061 0.87944 0.0
C929 C 0.38697 0.99086 0.89573 0.0
C930 C 0.39649 0.96641 0.91134 0.0
C931 C 0.43793 0.95253 0.91112 0.0
H932 H 0.7083 0.44881 0.8607 0.0
H933 H 0.73697 0.50173 0.92429 0.0
H934 H 0.64046 0.47756 0.85512 0.0
H935 H 0.66746 0.5296 0.9195 0.0
H936 H 0.55469 0.58992 0.89711 0.0
H937 H 0.6279 0.56647 0.89634 0.0
H938 H 0.57038 0.48084 0.87195 0.0
H939 H 0.4983 0.50444 0.87157 0.0
C940 C 0.6996 0.46623 0.87378 0.0
C941 C 0.72755 0.47273 0.89316 0.0
C942 C 0.66069 0.48279 0.87056 0.0
C943 C 0.64826 0.50582 0.88692 0.0
C944 C 0.67633 0.51238 0.90632 0.0
C945 C 0.71584 0.49617 0.90928 0.0
C946 C 0.55791 0.56632 0.89103 0.0
C947 C 0.5205 0.549 0.88464 0.0
C948 C 0.5998 0.55276 0.89088 0.0
C949 C 0.60501 0.52161 0.88446 0.0
C950 C 0.56787 0.50495 0.87678 0.0
C951 C 0.52627 0.51853 0.87668 0.0
H952 H 0.28495 0.93461 0.6344 0.0
H953 H 0.2138 0.02108 0.6334 0.0
H954 H 0.35414 0.9626 0.63858 0.0
H955 H 0.28273 0.04889 0.63839 0.0
H956 H 0.4215 0.08574 0.61905 0.0
H957 H 0.34932 0.06162 0.61771 0.0
H958 H 0.39307 0.99261 0.66817 0.0
H959 H 0.46602 0.01616 0.66893 0.0
C960 C 0.28407 0.95956 0.63498 0.0
C961 C 0.24388 0.97558 0.63355 0.0
C962 C 0.32364 0.97559 0.63769 0.0
C963 C 0.3238 0.00794 0.63922 0.0
C964 C 0.28374 0.02399 0.63716 0.0
C965 C 0.24422 0.008 0.63424 0.0
C966 C 0.41555 0.06583 0.63029 0.0
C967 C 0.44974 0.05257 0.64381 0.0
C968 C 0.37407 0.05198 0.6295 0.0
C969 C 0.36583 0.02482 0.64242 0.0
C970 C 0.3989 0.01302 0.65746 0.0
C971 C 0.44052 0.02671 0.6581 0.0
H972 H 0.54327 0.43373 0.60609 0.0
H973 H 0.49827 0.49527 0.66198 0.0
H974 H 0.61579 0.45728 0.60743 0.0
H975 H 0.57165 0.51824 0.6638 0.0
H976 H 0.68859 0.57665 0.63921 0.0
H977 H 0.61683 0.55142 0.63916 0.0
H978 H 0.68073 0.46288 0.63129 0.0
H979 H 0.75237 0.48811 0.63061 0.0
C980 C 0.54901 0.45193 0.61898 0.0
C981 C 0.51482 0.46273 0.63385 0.0
C982 C 0.59074 0.46538 0.61979 0.0
C983 C 0.59941 0.48978 0.6356 0.0
C984 C 0.56572 0.49987 0.65109 0.0
C985 C 0.5238 0.48653 0.65018 0.0
C986 C 0.68733 0.55181 0.63733 0.0
C987 C 0.72622 0.53441 0.63485 0.0
C988 C 0.64621 0.53733 0.63754 0.0
C989 C 0.6431 0.50513 0.63542 0.0
C990 C 0.68196 0.48777 0.6327 0.0
C991 C 0.72306 0.50225 0.63232 0.0
H992 H 0.18804 0.42967 0.63483 0.0
H993 H 0.25366 0.51672 0.62257 0.0
H994 H 0.11766 0.4564 0.63869 0.0
H995 H 0.18384 0.54358 0.62746 0.0
H996 H 0.04418 0.57605 0.61045 0.0
H997 H 0.11579 0.55175 0.60838 0.0
H998 H 0.07826 0.48959 0.66539 0.0
H999 H 0.00516 0.51315 0.66675 0.0
C1000 C 0.18733 0.45451 0.63288 0.0
C1001 C 0.22621 0.4711 0.62824 0.0
C1002 C 0.14717 0.46987 0.63542 0.0
C1003 C 0.14522 0.50216 0.63369 0.0
C1004 C 0.18407 0.51866 0.62864 0.0
C1005 C 0.2241 0.50327 0.62575 0.0
C1006 C 0.05121 0.55751 0.62285 0.0
C1007 C 0.01869 0.54633 0.63863 0.0
C1008 C 0.09251 0.5436 0.62168 0.0
C1009 C 0.1026 0.51848 0.63651 0.0
C1010 C 0.07106 0.50844 0.65331 0.0
C1011 C 0.02938 0.52215 0.65429 0.0
H1012 H 0.71343 0.98527 0.63612 0.0
H1013 H 0.78339 0.07218 0.63505 0.0
H1014 H 0.78329 0.95788 0.63873 0.0
H1015 H 0.85328 0.04467 0.63694 0.0
H1016 H 0.96831 0.99167 0.66469 0.0
H1017 H 0.8952 0.01493 0.66543 0.0
H1018 H 0.84845 0.94571 0.61594 0.0
H1019 H 0.92118 0.92189 0.61574 0.0
C1020 C 0.74372 0.99855 0.63606 0.0
C1021 C 0.74282 0.03096 0.63546 0.0
C1022 C 0.78376 0.98279 0.63758 0.0
C1023 C 0.82375 0.9991 0.63836 0.0
C1024 C 0.82293 0.03146 0.63699 0.0
C1025 C 0.7829 0.04723 0.63565 0.0
C1026 C 0.94221 0.98109 0.65431 0.0
C1027 C 0.95061 0.95514 0.63996 0.0
C1028 C 0.90046 0.99459 0.65455 0.0
C1029 C 0.86637 0.98257 0.64032 0.0
C1030 C 0.87401 0.95549 0.62714 0.0
C1031 C 0.91572 0.94181 0.62705 0.0
H1032 H 0.25286 0.48881 0.8991 0.0
H1033 H 0.18764 0.57704 0.89177 0.0
H1034 H 0.18158 0.46306 0.89809 0.0
H1035 H 0.11634 0.5512 0.89131 0.0
H1036 H 0.0003 0.49409 0.86598 0.0
H1037 H 0.07347 0.5175 0.86505 0.0
H1038 H 0.11552 0.4572 0.92218 0.0
H1039 H 0.04311 0.43333 0.9228 0.0
C1040 C 0.22334 0.50278 0.89756 0.0
C1041 C 0.22602 0.53503 0.89547 0.0
C1042 C 0.18249 0.48797 0.897 0.0
C1043 C 0.14342 0.50509 0.89442 0.0
C1044 C 0.14597 0.53735 0.89283 0.0
C1045 C 0.18683 0.55217 0.89333 0.0
C1046 C 0.02533 0.48554 0.87813 0.0
C1047 C 0.01574 0.4619 0.89452 0.0
C1048 C 0.06709 0.49915 0.87773 0.0
C1049 C 0.10005 0.4894 0.89372 0.0
C1050 C 0.09094 0.46506 0.9095 0.0
C1051 C 0.0493 0.45141 0.90988 0.0
H1052 H -0.00534 0.99934 0.87536 0.0
H1053 H 0.93753 0.08465 0.90063 0.0
H1054 H 0.92231 0.97551 0.87564 0.0
H1055 H 0.8644 0.06123 0.89979 0.0
H1056 H 0.75145 0.99936 0.92491 0.0
H1057 H 0.82285 0.02515 0.92193 0.0
H1058 H 0.85279 0.97241 0.85822 0.0
H1059 H 0.78283 0.94567 0.86203 0.0
C1060 C 0.96641 0.0133 0.88029 0.0
C1061 C 0.97181 0.04385 0.88804 0.0
C1062 C 0.92477 0.99962 0.88045 0.0
C1063 C 0.8874 0.01632 0.88796 0.0
C1064 C 0.89256 0.04744 0.89447 0.0
C1065 C 0.93438 0.06099 0.89469 0.0
C1066 C 0.77356 0.9932 0.91041 0.0
C1067 C 0.76185 0.97026 0.8939 0.0
C1068 C 0.81426 0.00819 0.90851 0.0
C1069 C 0.84368 1.00094 0.88978 0.0
C1070 C 0.83151 0.97819 0.87315 0.0
C1071 C 0.7913 0.96285 0.87532 0.0
H1072 H 0.93103 0.41949 0.39996 0.0
H1073 H -0.00988 0.50788 0.38406 0.0
H1074 H 0.85783 0.44261 0.39721 0.0
H1075 H 0.91754 0.53115 0.3824 0.0
H1076 H 0.78069 0.56152 0.36341 0.0
H1077 H 0.85133 0.53526 0.36118 0.0
H1078 H 0.81237 0.47627 0.41995 0.0
H1079 H 0.74056 0.5017 0.42132 0.0
C1080 C 0.92838 0.4438 0.39575 0.0
C1081 C 0.96635 0.46187 0.3923 0.0
C1082 C 0.88648 0.4571 0.39439 0.0
C1083 C 0.88177 0.48882 0.38985 0.0
C1084 C 0.91979 0.50659 0.3856 0.0
C1085 C 0.96155 0.49323 0.38662 0.0
C1086 C 0.78731 0.54305 0.37595 0.0
C1087 C 0.75532 0.53382 0.3927 0.0
C1088 C 0.82785 0.52798 0.37468 0.0
C1089 C 0.83768 0.5037 0.39043 0.0
C1090 C 0.80563 0.49452 0.40726 0.0
C1091 C 0.76468 0.50927 0.40824 0.0
H1092 H 0.1891 0.93035 0.39485 0.0
H1093 H 0.25756 0.01727 0.40254 0.0
H1094 H 0.11924 0.95769 0.39178 0.0
H1095 H 0.18772 0.0446 0.39882 0.0
H1096 H 0.04716 0.07739 0.41854 0.0
H1097 H 0.11946 0.05344 0.41985 0.0
H1098 H 0.08064 0.99063 0.36367 0.0
H1099 H 0.00751 0.01401 0.36278 0.0
C1100 C 0.18926 0.95528 0.39596 0.0
C1101 C 0.22893 0.97161 0.39892 0.0
C1102 C 0.14926 0.97096 0.39392 0.0
C1103 C 0.14806 0.00332 0.39467 0.0
C1104 C 0.18755 0.01964 0.39828 0.0
C1105 C 0.22757 0.00395 0.40046 0.0
C1106 C 0.05411 0.05879 0.40617 0.0
C1107 C 0.02127 0.04738 0.39075 0.0
C1108 C 0.09571 0.0451 0.40691 0.0
C1109 C 0.10552 0.01983 0.39214 0.0
C1110 C 0.07364 0.00961 0.37568 0.0
C1111 C 0.0319 0.02322 0.37501 0.0
H1112 H 0.96496 0.51145 0.16294 0.0
H1113 H 0.92322 0.58059 0.11204 0.0
H1114 H 0.89169 0.48849 0.16177 0.0
H1115 H 0.85047 0.55702 0.11029 0.0
H1116 H 0.78312 0.43089 0.1297 0.0
H1117 H 0.85283 0.45843 0.1324 0.0
H1118 H 0.78285 0.54527 0.13096 0.0
H1119 H 0.7131 0.51771 0.12749 0.0
C1120 C 0.94 0.52195 0.15172 0.0
C1121 C 0.95001 0.54761 0.13739 0.0
C1122 C 0.89818 0.50862 0.15086 0.0
C1123 C 0.86566 0.5205 0.13549 0.0
C1124 C 0.87479 0.54734 0.12233 0.0
C1125 C 0.91653 0.56086 0.12336 0.0
C1126 C 0.78264 0.45586 0.12968 0.0
C1127 C 0.74262 0.47211 0.12846 0.0
C1128 C 0.82253 0.47164 0.13151 0.0
C1129 C 0.82326 0.50402 0.1324 0.0
C1130 C 0.78338 0.52032 0.13026 0.0
C1131 C 0.74344 0.50452 0.12822 0.0
H1132 H 0.26364 0.98381 0.12826 0.0
H1133 H 0.1949 0.07099 0.13286 0.0
H1134 H 0.19326 0.95668 0.12962 0.0
H1135 H 0.12465 0.04394 0.13348 0.0
H1136 H 0.00992 0.98937 0.15998 0.0
H1137 H 0.0833 0.01216 0.16076 0.0
H1138 H 0.12697 0.94721 0.10702 0.0
H1139 H 0.05398 0.92377 0.10678 0.0
C1140 C 0.23349 0.9972 0.12915 0.0
C1141 C 0.23479 0.02953 0.1306 0.0
C1142 C 0.19319 0.98164 0.12995 0.0
C1143 C 0.15347 0.99815 0.13203 0.0
C1144 C 0.15477 0.03053 0.13255 0.0
C1145 C 0.195 0.04605 0.13195 0.0
C1146 C 0.03538 0.97967 0.1486 0.0
C1147 C 0.02609 0.95499 0.13315 0.0
C1148 C 0.07728 0.99288 0.14889 0.0
C1149 C 0.11062 0.98189 0.13358 0.0
C1150 C 0.10202 0.95614 0.11908 0.0
C1151 C 0.06017 0.94271 0.11895 0.0
H1152 H 0.3737 0.21536 0.15791 0.0
H1153 H 0.4837 0.15731 0.17676 0.0
H1154 H 0.41796 0.26096 0.16649 0.0
H1155 H 0.52759 0.20261 0.18672 0.0
H1156 H 0.60788 0.28518 0.15574 0.0
H1157 H 0.5646 0.23895 0.16363 0.0
H1158 H 0.45739 0.29541 0.19019 0.0
H1159 H 0.50026 0.3415 0.18093 0.0
C1160 C 0.40669 0.21241 0.16501 0.0
C1161 C 0.42531 0.18293 0.16669 0.0
C1162 C 0.43233 0.23856 0.16994 0.0
C1163 C 0.47697 0.2357 0.17694 0.0
C1164 C 0.49392 0.20591 0.18076 0.0
C1165 C 0.46858 0.17989 0.1754 0.0
C1166 C 0.5758 0.28752 0.16417 0.0
C1167 C 0.55747 0.31678 0.16786 0.0
C1168 C 0.55068 0.261 0.16867 0.0
C1169 C 0.50683 0.26324 0.17719 0.0
C1170 C 0.49041 0.29264 0.18304 0.0
C1171 C 0.51524 0.31909 0.17814 0.0
H1172 H 0.6022 0.71357 0.37628 0.0
H1173 H 0.48981 0.65557 0.36183 0.0
H1174 H 0.55761 0.75911 0.36823 0.0
H1175 H 0.4456 0.70076 0.35218 0.0
H1176 H 0.3675 0.7856 0.37982 0.0
H1177 H 0.41006 0.7387 0.37358 0.0
H1178 H 0.51784 0.7928 0.34478 0.0
H1179 H 0.47582 0.83968 0.35267 0.0
C1180 C 0.56836 0.71058 0.37047 0.0
C1181 C 0.54933 0.68116 0.36988 0.0
C1182 C 0.54258 0.73671 0.36574 0.0
C1183 C 0.4974 0.73391 0.35986 0.0
C1184 C 0.47969 0.7041 0.35734 0.0
C1185 C 0.50516 0.67811 0.36261 0.0
C1186 C 0.39963 0.78723 0.37135 0.0
C1187 C 0.41837 0.81611 0.36663 0.0
C1188 C 0.42433 0.76031 0.36776 0.0
C1189 C 0.4681 0.76173 0.35905 0.0
C1190 C 0.48494 0.79067 0.35219 0.0
C1191 C 0.4606 0.81756 0.35629 0.0
H1192 H 0.49452 0.849 0.86381 0.0
H1193 H 0.60713 0.79111 0.87804 0.0
H1194 H 0.44999 0.80371 0.85494 0.0
H1195 H 0.56225 0.74549 0.87083 0.0
H1196 H 0.47951 0.66472 0.85539 0.0
H1197 H 0.52232 0.71139 0.84812 0.0
H1198 H 0.41433 0.76594 0.87622 0.0
H1199 H 0.37097 0.71922 0.88178 0.0
C1200 C 0.50986 0.82646 0.8647 0.0
C1201 C 0.55423 0.82351 0.87163 0.0
C1202 C 0.48418 0.80039 0.85991 0.0
C1203 C 0.50186 0.77058 0.86261 0.0
C1204 C 0.54719 0.76785 0.86821 0.0
C1205 C 0.57316 0.79404 0.87243 0.0
C1206 C 0.4645 0.6869 0.85908 0.0
C1207 C 0.42186 0.68852 0.86889 0.0
C1208 C 0.48928 0.71369 0.85532 0.0
C1209 C 0.47252 0.74272 0.86202 0.0
C1210 C 0.42856 0.74429 0.87048 0.0
C1211 C 0.40343 0.71747 0.8737 0.0
H1212 H 0.49834 0.34457 0.65231 0.0
H1213 H 0.37596 0.30245 0.67491 0.0
H1214 H 0.53775 0.29765 0.66108 0.0
H1215 H 0.41622 0.25539 0.68515 0.0
H1216 H 0.48299 0.16925 0.65228 0.0
H1217 H 0.44478 0.21651 0.66127 0.0
H1218 H 0.56777 0.25788 0.68388 0.0
H1219 H 0.60682 0.21013 0.67356 0.0
C1220 C 0.47988 0.32546 0.65979 0.0
C1221 C 0.4336 0.32704 0.66218 0.0
C1222 C 0.50282 0.29846 0.66516 0.0
C1223 C 0.4803 0.2722 0.67337 0.0
C1224 C 0.43461 0.27482 0.67817 0.0
C1225 C 0.41145 0.30192 0.67253 0.0
C1226 C 0.50204 0.18826 0.65945 0.0
C1227 C 0.54826 0.18615 0.66156 0.0
C1228 C 0.47981 0.21546 0.66498 0.0
C1229 C 0.50297 0.2415 0.67302 0.0
C1230 C 0.54884 0.23856 0.67719 0.0
C1231 C 0.5713 0.21113 0.67149 0.0
H1232 H 0.98385 0.84061 0.65841 0.0
H1233 H 0.10862 0.79618 0.67249 0.0
H1234 H 0.94518 0.79309 0.66633 0.0
H1235 H 0.06944 0.74819 0.68177 0.0
H1236 H -0.00371 0.6659 0.64691 0.0
H1237 H 0.0365 0.71195 0.65687 0.0
H1238 H 0.91827 0.75128 0.68786 0.0
H1239 H 0.87693 0.70501 0.67658 0.0
C1240 C 0.003 0.82076 0.66396 0.0
C1241 C 0.04944 0.82194 0.66421 0.0
C1242 C 0.98061 0.79339 0.6688 0.0
C1243 C 0.00397 0.7663 0.67421 0.0
C1244 C 0.0503 0.76834 0.67699 0.0
C1245 C 0.07287 0.79592 0.67197 0.0
C1246 C 0.97865 0.68417 0.65605 0.0
C1247 C 0.93287 0.68199 0.66029 0.0
C1248 C 0.00215 0.71064 0.66215 0.0
C1249 C 0.98083 0.73583 0.67293 0.0
C1250 C 0.93573 0.73268 0.67905 0.0
C1251 C 0.91196 0.70606 0.67273 0.0
H1252 H 0.87766 0.29857 0.86068 0.0
H1253 H -0.00138 0.34129 0.88461 0.0
H1254 H 0.91866 0.25137 0.85153 0.0
H1255 H 0.03871 0.29436 0.87666 0.0
H1256 H 0.11035 0.20858 0.86074 0.0
H1257 H 0.0696 0.25611 0.8523 0.0
H1258 H 0.94859 0.21195 0.87498 0.0
H1259 H 0.98851 0.16476 0.8822 0.0
C1260 C 0.91298 0.2981 0.86367 0.0
C1261 C 0.93451 0.32359 0.87386 0.0
C1262 C 0.93654 0.27094 0.85861 0.0
C1263 C 0.98211 0.26864 0.86371 0.0
C1264 C 0.00393 0.295 0.87224 0.0
C1265 C 0.98058 0.32201 0.87713 0.0
C1266 C 0.07489 0.20888 0.86327 0.0
C1267 C 0.05298 0.18301 0.87263 0.0
C1268 C 0.05147 0.23622 0.85866 0.0
C1269 C 0.00569 0.23828 0.86338 0.0
C1270 C 0.98354 0.21153 0.87092 0.0
C1271 C 0.00676 0.18437 0.87538 0.0
H1272 H -0.00461 0.16519 0.38253 0.0
H1273 H 0.87425 0.20567 0.35659 0.0
H1274 H 0.03494 0.21174 0.37325 0.0
H1275 H 0.91488 0.25253 0.3459 0.0
H1276 H 0.98279 0.34092 0.37506 0.0
H1277 H 0.94348 0.29364 0.36741 0.0
H1278 H 0.06645 0.24881 0.34886 0.0
H1279 H 0.10644 0.29635 0.35804 0.0
C1280 C 0.97719 0.18391 0.37434 0.0
C1281 C 0.93119 0.18188 0.37095 0.0
C1282 C 0.00028 0.2107 0.36862 0.0
C1283 C 0.97834 0.2364 0.35905 0.0
C1284 C 0.93287 0.23353 0.35379 0.0
C1285 C 0.9095 0.20657 0.35973 0.0
C1286 C 0.00159 0.32114 0.36899 0.0
C1287 C 0.04805 0.32224 0.36787 0.0
C1288 C 0.97876 0.2939 0.36429 0.0
C1289 C 0.00159 0.26688 0.35802 0.0
C1290 C 0.04773 0.26885 0.35438 0.0
C1291 C 0.07076 0.29623 0.35936 0.0
H1292 H 0.87459 0.79777 0.17415 0.0
H1293 H -0.00183 0.83939 0.15311 0.0
H1294 H 0.91398 0.75027 0.18448 0.0
H1295 H 0.03684 0.79221 0.1621 0.0
H1296 H 0.105 0.70468 0.17475 0.0
H1297 H 0.06556 0.75222 0.18518 0.0
H1298 H 0.9435 0.7114 0.16064 0.0
H1299 H 0.9821 0.66428 0.15148 0.0
C1300 C 0.91017 0.79704 0.17222 0.0
C1301 C 0.933 0.82211 0.16227 0.0
C1302 C 0.93283 0.76971 0.17789 0.0
C1303 C 0.97871 0.7669 0.1736 0.0
C1304 C 0.00177 0.79314 0.16581 0.0
C1305 C 0.97931 0.82029 0.16033 0.0
C1306 C 0.06957 0.70571 0.1723 0.0
C1307 C 0.04696 0.68096 0.16176 0.0
C1308 C 0.04688 0.73304 0.17806 0.0
C1309 C 0.00122 0.73613 0.17334 0.0
C1310 C 0.97836 0.71023 0.16475 0.0
C1311 C 0.00083 0.68313 0.15915 0.0
loop_
_geom_bond_atom_site_label_1
_geom_bond_atom_site_label_2
_geom_bond_distance
_geom_bond_site_symmetry_2
_ccdc_geom_bond_type
Sc0 O3 2.025 . S
Sc0 O10 2.105 . S
Sc0 O13 2.105 . S
Sc0 O16 2.105 . S
Sc0 O19 2.105 . S
Sc1 O3 2.025 . S
Sc1 O11 2.105 . S
Sc1 O15 2.105 . S
Sc1 O17 2.105 . S
Sc1 O21 2.105 . S
Sc2 O3 2.025 . S
Sc2 O12 2.105 . S
Sc2 O14 2.105 . S
Sc2 O18 2.105 . S
Sc2 O20 2.105 . S
O3 Sc0 2.025 . S
O3 Sc1 2.025 . S
O3 Sc2 2.025 . S
C4 O10 1.268 . S
C4 O20 1.268 . S
C5 O11 1.268 . S
C5 O19 1.268 . S
C6 O12 1.268 . S
C6 O21 1.268 . S
C7 O13 1.268 . S
C7 O17 1.268 . S
C8 O14 1.268 . S
C8 O16 1.268 . S
C9 O15 1.268 . S
C9 O18 1.268 . S
O10 Sc0 2.105 . S
O10 C4 1.268 . S
O11 Sc1 2.105 . S
O11 C5 1.268 . S
O12 Sc2 2.105 . S
O12 C6 1.268 . S
O13 Sc0 2.105 . S
O13 C7 1.268 . S
O14 Sc2 2.105 . S
O14 C8 1.268 . S
O15 Sc1 2.105 . S
O15 C9 1.268 . S
O16 Sc0 2.105 . S
O16 C8 1.268 . S
O17 Sc1 2.105 . S
O17 C7 1.268 . S
O18 Sc2 2.105 . S
O18 C9 1.268 . S
O19 Sc0 2.105 . S
O19 C5 1.268 . S
O20 Sc2 2.105 . S
O20 C4 1.268 . S
O21 Sc1 2.105 . S
O21 C6 1.268 . S
Sc22 O25 2.025 . S
Sc22 O32 2.105 . S
Sc22 O35 2.105 . S
Sc22 O38 2.105 . S
Sc22 O41 2.105 . S
Sc23 O25 2.025 . S
Sc23 O33 2.105 . S
Sc23 O37 2.105 . S
Sc23 O39 2.105 . S
Sc23 O43 2.105 . S
Sc24 O25 2.025 . S
Sc24 O34 2.105 . S
Sc24 O36 2.105 . S
Sc24 O40 2.105 . S
Sc24 O42 2.105 . S
O25 Sc22 2.025 . S
O25 Sc23 2.025 . S
O25 Sc24 2.025 . S
C26 O32 1.268 . S
C26 O42 1.268 . S
C27 O33 1.268 . S
C27 O41 1.268 . S
C28 O34 1.268 . S
C28 O43 1.268 . S
C29 O35 1.268 . S
C29 O39 1.268 . S
C30 O36 1.268 . S
C30 O38 1.268 . S
C31 O37 1.268 . S
C31 O40 1.268 . S
O32 Sc22 2.105 . S
O32 C26 1.268 . S
O33 Sc23 2.105 . S
O33 C27 1.268 . S
O34 Sc24 2.105 . S
O34 C28 1.268 . S
O35 Sc22 2.105 . S
O35 C29 1.268 . S
O36 Sc24 2.105 . S
O36 C30 1.268 . S
O37 Sc23 2.105 . S
O37 C31 1.268 . S
O38 Sc22 2.105 . S
O38 C30 1.268 . S
O39 Sc23 2.105 . S
O39 C29 1.268 . S
O40 Sc24 2.105 . S
O40 C31 1.268 . S
O41 Sc22 2.105 . S
O41 C27 1.268 . S
O42 Sc24 2.105 . S
O42 C26 1.268 . S
O43 Sc23 2.105 . S
O43 C28 1.268 . S
Sc44 O47 2.025 . S
Sc44 O54 2.105 . S
Sc44 O57 2.105 . S
Sc44 O60 2.105 . S
Sc44 O63 2.105 . S
Sc45 O47 2.025 . S
Sc45 O55 2.105 . S
Sc45 O59 2.105 . S
Sc45 O61 2.105 . S
Sc45 O65 2.105 . S
Sc46 O47 2.025 . S
Sc46 O56 2.105 . S
Sc46 O58 2.105 . S
Sc46 O62 2.105 . S
Sc46 O64 2.105 . S
O47 Sc44 2.025 . S
O47 Sc45 2.025 . S
O47 Sc46 2.025 . S
C48 O54 1.268 . S
C48 O64 1.268 . S
C49 O55 1.268 . S
C49 O63 1.268 . S
C50 O56 1.268 . S
C50 O65 1.268 . S
C51 O57 1.268 . S
C51 O61 1.268 . S
C52 O58 1.268 . S
C52 O60 1.268 . S
C53 O59 1.268 . S
C53 O62 1.268 . S
O54 Sc44 2.105 . S
O54 C48 1.268 . S
O55 Sc45 2.105 . S
O55 C49 1.268 . S
O56 Sc46 2.105 . S
O56 C50 1.268 . S
O57 Sc44 2.105 . S
O57 C51 1.268 . S
O58 Sc46 2.105 . S
O58 C52 1.268 . S
O59 Sc45 2.105 . S
O59 C53 1.268 . S
O60 Sc44 2.105 . S
O60 C52 1.268 . S
O61 Sc45 2.105 . S
O61 C51 1.268 . S
O62 Sc46 2.105 . S
O62 C53 1.268 . S
O63 Sc44 2.105 . S
O63 C49 1.268 . S
O64 Sc46 2.105 . S
O64 C48 1.268 . S
O65 Sc45 2.105 . S
O65 C50 1.268 . S
Sc66 O69 2.025 . S
Sc66 O76 2.105 . S
Sc66 O79 2.105 . S
Sc66 O82 2.105 . S
Sc66 O85 2.105 . S
Sc67 O69 2.025 . S
Sc67 O77 2.105 . S
Sc67 O81 2.105 . S
Sc67 O83 2.105 . S
Sc67 O87 2.105 . S
Sc68 O69 2.025 . S
Sc68 O78 2.105 . S
Sc68 O80 2.105 . S
Sc68 O84 2.105 . S
Sc68 O86 2.105 . S
O69 Sc66 2.025 . S
O69 Sc67 2.025 . S
O69 Sc68 2.025 . S
C70 O76 1.268 . S
C70 O86 1.268 . S
C71 O77 1.268 . S
C71 O85 1.268 . S
C72 O78 1.268 . S
C72 O87 1.268 . S
C73 O79 1.268 . S
C73 O83 1.268 . S
C74 O80 1.268 . S
C74 O82 1.268 . S
C75 O81 1.268 . S
C75 O84 1.268 . S
O76 Sc66 2.105 . S
O76 C70 1.268 . S
O77 Sc67 2.105 . S
O77 C71 1.268 . S
O78 Sc68 2.105 . S
O78 C72 1.268 . S
O79 Sc66 2.105 . S
O79 C73 1.268 . S
O80 Sc68 2.105 . S
O80 C74 1.268 . S
O81 Sc67 2.105 . S
O81 C75 1.268 . S
O82 Sc66 2.105 . S
O82 C74 1.268 . S
O83 Sc67 2.105 . S
O83 C73 1.268 . S
O84 Sc68 2.105 . S
O84 C75 1.268 . S
O85 Sc66 2.105 . S
O85 C71 1.268 . S
O86 Sc68 2.105 . S
O86 C70 1.268 . S
O87 Sc67 2.105 . S
O87 C72 1.268 . S
Sc88 O91 2.025 . S
Sc88 O98 2.105 . S
Sc88 O101 2.105 . S
Sc88 O104 2.105 . S
Sc88 O107 2.105 . S
Sc89 O91 2.025 . S
Sc89 O99 2.105 . S
Sc89 O103 2.105 . S
Sc89 O105 2.105 . S
Sc89 O109 2.105 . S
Sc90 O91 2.025 . S
Sc90 O100 2.105 . S
Sc90 O102 2.105 . S
Sc90 O106 2.105 . S
Sc90 O108 2.105 . S
O91 Sc88 2.025 . S
O91 Sc89 2.025 . S
O91 Sc90 2.025 . S
C92 O98 1.268 . S
C92 O108 1.268 . S
C93 O99 1.268 . S
C93 O107 1.268 . S
C94 O100 1.268 . S
C94 O109 1.268 . S
C95 O101 1.268 . S
C95 O105 1.268 . S
C96 O102 1.268 . S
C96 O104 1.268 . S
C97 O103 1.268 . S
C97 O106 1.268 . S
O98 Sc88 2.105 . S
O98 C92 1.268 . S
O99 Sc89 2.105 . S
O99 C93 1.268 . S
O100 Sc90 2.105 . S
O100 C94 1.268 . S
O101 Sc88 2.105 . S
O101 C95 1.268 . S
O102 Sc90 2.105 . S
O102 C96 1.268 . S
O103 Sc89 2.105 . S
O103 C97 1.268 . S
O104 Sc88 2.105 . S
O104 C96 1.268 . S
O105 Sc89 2.105 . S
O105 C95 1.268 . S
O106 Sc90 2.105 . S
O106 C97 1.268 . S
O107 Sc88 2.105 . S
O107 C93 1.268 . S
O108 Sc90 2.105 . S
O108 C92 1.268 . S
O109 Sc89 2.105 . S
O109 C94 1.268 . S
Sc110 O113 2.025 . S
Sc110 O120 2.105 . S
Sc110 O123 2.105 . S
Sc110 O126 2.105 . S
Sc110 O129 2.105 . S
Sc111 O113 2.025 . S
Sc111 O121 2.105 . S
Sc111 O125 2.105 . S
Sc111 O127 2.105 . S
Sc111 O131 2.105 . S
Sc112 O113 2.025 . S
Sc112 O122 2.105 . S
Sc112 O124 2.105 . S
Sc112 O128 2.105 . S
Sc112 O130 2.105 . S
O113 Sc110 2.025 . S
O113 Sc111 2.025 . S
O113 Sc112 2.025 . S
C114 O120 1.268 . S
C114 O130 1.268 . S
C115 O121 1.268 . S
C115 O129 1.268 . S
C116 O122 1.268 . S
C116 O131 1.268 . S
C117 O123 1.268 . S
C117 O127 1.268 . S
C118 O124 1.268 . S
C118 O126 1.268 . S
C119 O125 1.268 . S
C119 O128 1.268 . S
O120 Sc110 2.105 . S
O120 C114 1.268 . S
O121 Sc111 2.105 . S
O121 C115 1.268 . S
O122 Sc112 2.105 . S
O122 C116 1.268 . S
O123 Sc110 2.105 . S
O123 C117 1.268 . S
O124 Sc112 2.105 . S
O124 C118 1.268 . S
O125 Sc111 2.105 . S
O125 C119 1.268 . S
O126 Sc110 2.105 . S
O126 C118 1.268 . S
O127 Sc111 2.105 . S
O127 C117 1.268 . S
O128 Sc112 2.105 . S
O128 C119 1.268 . S
O129 Sc110 2.105 . S
O129 C115 1.268 . S
O130 Sc112 2.105 . S
O130 C114 1.268 . S
O131 Sc111 2.105 . S
O131 C116 1.268 . S
Sc132 O135 2.025 . S
Sc132 O142 2.105 . S
Sc132 O145 2.105 . S
Sc132 O148 2.105 . S
Sc132 O151 2.105 . S
Sc133 O135 2.025 . S
Sc133 O143 2.105 . S
Sc133 O147 2.105 . S
Sc133 O149 2.105 . S
Sc133 O153 2.105 . S
Sc134 O135 2.025 . S
Sc134 O144 2.105 . S
Sc134 O146 2.105 . S
Sc134 O150 2.105 . S
Sc134 O152 2.105 . S
O135 Sc132 2.025 . S
O135 Sc133 2.025 . S
O135 Sc134 2.025 . S
C136 O142 1.268 . S
C136 O152 1.268 . S
C137 O143 1.268 . S
C137 O151 1.268 . S
C138 O144 1.268 . S
C138 O153 1.268 . S
C139 O145 1.268 . S
C139 O149 1.268 . S
C140 O146 1.268 . S
C140 O148 1.268 . S
C141 O147 1.268 . S
C141 O150 1.268 . S
O142 Sc132 2.105 . S
O142 C136 1.268 . S
O143 Sc133 2.105 . S
O143 C137 1.268 . S
O144 Sc134 2.105 . S
O144 C138 1.268 . S
O145 Sc132 2.105 . S
O145 C139 1.268 . S
O146 Sc134 2.105 . S
O146 C140 1.268 . S
O147 Sc133 2.105 . S
O147 C141 1.268 . S
O148 Sc132 2.105 . S
O148 C140 1.268 . S
O149 Sc133 2.105 . S
O149 C139 1.268 . S
O150 Sc134 2.105 . S
O150 C141 1.268 . S
O151 Sc132 2.105 . S
O151 C137 1.268 . S
O152 Sc134 2.105 . S
O152 C136 1.268 . S
O153 Sc133 2.105 . S
O153 C138 1.268 . S
Sc154 O157 2.025 . S
Sc154 O164 2.105 . S
Sc154 O167 2.105 . S
Sc154 O170 2.105 . S
Sc154 O173 2.105 . S
Sc155 O157 2.025 . S
Sc155 O165 2.105 . S
Sc155 O169 2.105 . S
Sc155 O171 2.105 . S
Sc155 O175 2.105 . S
Sc156 O157 2.025 . S
Sc156 O166 2.105 . S
Sc156 O168 2.105 . S
Sc156 O172 2.105 . S
Sc156 O174 2.105 . S
O157 Sc154 2.025 . S
O157 Sc155 2.025 . S
O157 Sc156 2.025 . S
C158 O164 1.268 . S
C158 O174 1.268 . S
C159 O165 1.268 . S
C159 O173 1.268 . S
C160 O166 1.268 . S
C160 O175 1.268 . S
C161 O167 1.268 . S
C161 O171 1.268 . S
C162 O168 1.268 . S
C162 O170 1.268 . S
C163 O169 1.268 . S
C163 O172 1.268 . S
O164 Sc154 2.105 . S
O164 C158 1.268 . S
O165 Sc155 2.105 . S
O165 C159 1.268 . S
O166 Sc156 2.105 . S
O166 C160 1.268 . S
O167 Sc154 2.105 . S
O167 C161 1.268 . S
O168 Sc156 2.105 . S
O168 C162 1.268 . S
O169 Sc155 2.105 . S
O169 C163 1.268 . S
O170 Sc154 2.105 . S
O170 C162 1.268 . S
O171 Sc155 2.105 . S
O171 C161 1.268 . S
O172 Sc156 2.105 . S
O172 C163 1.268 . S
O173 Sc154 2.105 . S
O173 C159 1.268 . S
O174 Sc156 2.105 . S
O174 C158 1.268 . S
O175 Sc155 2.105 . S
O175 C160 1.268 . S
Sc176 O179 2.025 . S
Sc176 O186 2.105 . S
Sc176 O189 2.105 . S
Sc176 O192 2.105 . S
Sc176 O195 2.105 . S
Sc177 O179 2.025 . S
Sc177 O187 2.105 . S
Sc177 O191 2.105 1_655 S
Sc177 O193 2.105 . S
Sc177 O197 2.105 . S
Sc178 O179 2.025 . S
Sc178 O188 2.105 . S
Sc178 O190 2.105 . S
Sc178 O194 2.105 1_655 S
Sc178 O196 2.105 . S
O179 Sc176 2.025 . S
O179 Sc177 2.025 . S
O179 Sc178 2.025 . S
C180 O186 1.268 . S
C180 O196 1.268 . S
C181 O187 1.268 . S
C181 O195 1.268 . S
C182 O188 1.268 . S
C182 O197 1.268 . S
C183 O189 1.268 . S
C183 O193 1.268 . S
C184 O190 1.268 . S
C184 O192 1.268 . S
C185 O191 1.268 . S
C185 O194 1.268 . S
O186 Sc176 2.105 . S
O186 C180 1.268 . S
O187 Sc177 2.105 . S
O187 C181 1.268 . S
O188 Sc178 2.105 . S
O188 C182 1.268 . S
O189 Sc176 2.105 . S
O189 C183 1.268 . S
O190 Sc178 2.105 . S
O190 C184 1.268 . S
O191 Sc177 2.105 1_455 S
O191 C185 1.268 . S
O192 Sc176 2.105 . S
O192 C184 1.268 . S
O193 Sc177 2.105 . S
O193 C183 1.268 . S
O194 Sc178 2.105 1_455 S
O194 C185 1.268 . S
O195 Sc176 2.105 . S
O195 C181 1.268 . S
O196 Sc178 2.105 . S
O196 C180 1.268 . S
O197 Sc177 2.105 . S
O197 C182 1.268 . S
Sc198 O201 2.025 . S
Sc198 O208 2.105 . S
Sc198 O211 2.105 . S
Sc198 O214 2.105 . S
Sc198 O217 2.105 . S
Sc199 O201 2.025 . S
Sc199 O209 2.105 . S
Sc199 O213 2.105 1_455 S
Sc199 O215 2.105 . S
Sc199 O219 2.105 . S
Sc200 O201 2.025 . S
Sc200 O210 2.105 . S
Sc200 O212 2.105 . S
Sc200 O216 2.105 1_455 S
Sc200 O218 2.105 . S
O201 Sc198 2.025 . S
O201 Sc199 2.025 . S
O201 Sc200 2.025 . S
C202 O208 1.268 . S
C202 O218 1.268 . S
C203 O209 1.268 . S
C203 O217 1.268 . S
C204 O210 1.268 . S
C204 O219 1.268 . S
C205 O211 1.268 . S
C205 O215 1.268 . S
C206 O212 1.268 . S
C206 O214 1.268 . S
C207 O213 1.268 . S
C207 O216 1.268 . S
O208 Sc198 2.105 . S
O208 C202 1.268 . S
O209 Sc199 2.105 . S
O209 C203 1.268 . S
O210 Sc200 2.105 . S
O210 C204 1.268 . S
O211 Sc198 2.105 . S
O211 C205 1.268 . S
O212 Sc200 2.105 . S
O212 C206 1.268 . S
O213 Sc199 2.105 1_655 S
O213 C207 1.268 . S
O214 Sc198 2.105 . S
O214 C206 1.268 . S
O215 Sc199 2.105 . S
O215 C205 1.268 . S
O216 Sc200 2.105 1_655 S
O216 C207 1.268 . S
O217 Sc198 2.105 . S
O217 C203 1.268 . S
O218 Sc200 2.105 . S
O218 C202 1.268 . S
O219 Sc199 2.105 . S
O219 C204 1.268 . S
Sc220 O223 2.025 . S
Sc220 O230 2.105 . S
Sc220 O233 2.105 . S
Sc220 O236 2.105 . S
Sc220 O239 2.105 . S
Sc221 O223 2.025 . S
Sc221 O231 2.105 . S
Sc221 O235 2.105 1_655 S
Sc221 O237 2.105 . S
Sc221 O241 2.105 . S
Sc222 O223 2.025 . S
Sc222 O232 2.105 . S
Sc222 O234 2.105 . S
Sc222 O238 2.105 1_655 S
Sc222 O240 2.105 . S
O223 Sc220 2.025 . S
O223 Sc221 2.025 . S
O223 Sc222 2.025 . S
C224 O230 1.268 . S
C224 O240 1.268 . S
C225 O231 1.268 . S
C225 O239 1.268 . S
C226 O232 1.268 . S
C226 O241 1.268 . S
C227 O233 1.268 . S
C227 O237 1.268 . S
C228 O234 1.268 . S
C228 O236 1.268 . S
C229 O235 1.268 . S
C229 O238 1.268 . S
O230 Sc220 2.105 . S
O230 C224 1.268 . S
O231 Sc221 2.105 . S
O231 C225 1.268 . S
O232 Sc222 2.105 . S
O232 C226 1.268 . S
O233 Sc220 2.105 . S
O233 C227 1.268 . S
O234 Sc222 2.105 . S
O234 C228 1.268 . S
O235 Sc221 2.105 1_455 S
O235 C229 1.268 . S
O236 Sc220 2.105 . S
O236 C228 1.268 . S
O237 Sc221 2.105 . S
O237 C227 1.268 . S
O238 Sc222 2.105 1_455 S
O238 C229 1.268 . S
O239 Sc220 2.105 . S
O239 C225 1.268 . S
O240 Sc222 2.105 . S
O240 C224 1.268 . S
O241 Sc221 2.105 . S
O241 C226 1.268 . S
Sc242 O245 2.025 . S
Sc242 O252 2.105 . S
Sc242 O255 2.105 . S
Sc242 O258 2.105 . S
Sc242 O261 2.105 1_455 S
Sc243 O245 2.025 . S
Sc243 O253 2.105 1_455 S
Sc243 O257 2.105 . S
Sc243 O259 2.105 . S
Sc243 O263 2.105 . S
Sc244 O245 2.025 . S
Sc244 O254 2.105 . S
Sc244 O256 2.105 . S
Sc244 O260 2.105 . S
Sc244 O262 2.105 . S
O245 Sc242 2.025 . S
O245 Sc243 2.025 . S
O245 Sc244 2.025 . S
C246 O252 1.268 . S
C246 O262 1.268 . S
C247 O253 1.268 . S
C247 O261 1.268 . S
C248 O254 1.268 . S
C248 O263 1.268 . S
C249 O255 1.268 . S
C249 O259 1.268 . S
C250 O256 1.268 . S
C250 O258 1.268 . S
C251 O257 1.268 . S
C251 O260 1.268 . S
O252 Sc242 2.105 . S
O252 C246 1.268 . S
O253 Sc243 2.105 1_655 S
O253 C247 1.268 . S
O254 Sc244 2.105 . S
O254 C248 1.268 . S
O255 Sc242 2.105 . S
O255 C249 1.268 . S
O256 Sc244 2.105 . S
O256 C250 1.268 . S
O257 Sc243 2.105 . S
O257 C251 1.268 . S
O258 Sc242 2.105 . S
O258 C250 1.268 . S
O259 Sc243 2.105 . S
O259 C249 1.268 . S
O260 Sc244 2.105 . S
O260 C251 1.268 . S
O261 Sc242 2.105 1_655 S
O261 C247 1.268 . S
O262 Sc244 2.105 . S
O262 C246 1.268 . S
O263 Sc243 2.105 . S
O263 C248 1.268 . S
Sc264 O267 2.025 . S
Sc264 O274 2.105 . S
Sc264 O277 2.105 1_455 S
Sc264 O280 2.105 . S
Sc264 O283 2.105 . S
Sc265 O267 2.025 . S
Sc265 O275 2.105 . S
Sc265 O279 2.105 . S
Sc265 O281 2.105 1_455 S
Sc265 O285 2.105 . S
Sc266 O267 2.025 . S
Sc266 O276 2.105 . S
Sc266 O278 2.105 . S
Sc266 O282 2.105 . S
Sc266 O284 2.105 . S
O267 Sc264 2.025 . S
O267 Sc265 2.025 . S
O267 Sc266 2.025 . S
C268 O274 1.268 . S
C268 O284 1.268 . S
C269 O275 1.268 . S
C269 O283 1.268 . S
C270 O276 1.268 . S
C270 O285 1.268 . S
C271 O277 1.268 . S
C271 O281 1.268 . S
C272 O278 1.268 . S
C272 O280 1.268 . S
C273 O279 1.268 . S
C273 O282 1.268 . S
O274 Sc264 2.105 . S
O274 C268 1.268 . S
O275 Sc265 2.105 . S
O275 C269 1.268 . S
O276 Sc266 2.105 . S
O276 C270 1.268 . S
O277 Sc264 2.105 1_655 S
O277 C271 1.268 . S
O278 Sc266 2.105 . S
O278 C272 1.268 . S
O279 Sc265 2.105 . S
O279 C273 1.268 . S
O280 Sc264 2.105 . S
O280 C272 1.268 . S
O281 Sc265 2.105 1_655 S
O281 C271 1.268 . S
O282 Sc266 2.105 . S
O282 C273 1.268 . S
O283 Sc264 2.105 . S
O283 C269 1.268 . S
O284 Sc266 2.105 . S
O284 C268 1.268 . S
O285 Sc265 2.105 . S
O285 C270 1.268 . S
Sc286 O289 2.025 . S
Sc286 O296 2.105 . S
Sc286 O299 2.105 . S
Sc286 O302 2.105 . S
Sc286 O305 2.105 . S
Sc287 O289 2.025 . S
Sc287 O297 2.105 . S
Sc287 O301 2.105 . S
Sc287 O303 2.105 . S
Sc287 O307 2.105 1_655 S
Sc288 O289 2.025 . S
Sc288 O298 2.105 1_655 S
Sc288 O300 2.105 . S
Sc288 O304 2.105 . S
Sc288 O306 2.105 . S
O289 Sc286 2.025 . S
O289 Sc287 2.025 . S
O289 Sc288 2.025 . S
C290 O296 1.268 . S
C290 O306 1.268 . S
C291 O297 1.268 . S
C291 O305 1.268 . S
C292 O298 1.268 . S
C292 O307 1.268 . S
C293 O299 1.268 . S
C293 O303 1.268 . S
C294 O300 1.268 . S
C294 O302 1.268 . S
C295 O301 1.268 . S
C295 O304 1.268 . S
O296 Sc286 2.105 . S
O296 C290 1.268 . S
O297 Sc287 2.105 . S
O297 C291 1.268 . S
O298 Sc288 2.105 1_455 S
O298 C292 1.268 . S
O299 Sc286 2.105 . S
O299 C293 1.268 . S
O300 Sc288 2.105 . S
O300 C294 1.268 . S
O301 Sc287 2.105 . S
O301 C295 1.268 . S
O302 Sc286 2.105 . S
O302 C294 1.268 . S
O303 Sc287 2.105 . S
O303 C293 1.268 . S
O304 Sc288 2.105 . S
O304 C295 1.268 . S
O305 Sc286 2.105 . S
O305 C291 1.268 . S
O306 Sc288 2.105 . S
O306 C290 1.268 . S
O307 Sc287 2.105 1_455 S
O307 C292 1.268 . S
Sc308 O311 2.025 . S
Sc308 O318 2.105 . S
Sc308 O321 2.105 1_455 S
Sc308 O324 2.105 . S
Sc308 O327 2.105 . S
Sc309 O311 2.025 . S
Sc309 O319 2.105 . S
Sc309 O323 2.105 . S
Sc309 O325 2.105 1_455 S
Sc309 O329 2.105 . S
Sc310 O311 2.025 . S
Sc310 O320 2.105 . S
Sc310 O322 2.105 . S
Sc310 O326 2.105 . S
Sc310 O328 2.105 . S
O311 Sc308 2.025 . S
O311 Sc309 2.025 . S
O311 Sc310 2.025 . S
C312 O318 1.268 . S
C312 O328 1.268 . S
C313 O319 1.268 . S
C313 O327 1.268 . S
C314 O320 1.268 . S
C314 O329 1.268 . S
C315 O321 1.268 . S
C315 O325 1.268 . S
C316 O322 1.268 . S
C316 O324 1.268 . S
C317 O323 1.268 . S
C317 O326 1.268 . S
O318 Sc308 2.105 . S
O318 C312 1.268 . S
O319 Sc309 2.105 . S
O319 C313 1.268 . S
O320 Sc310 2.105 . S
O320 C314 1.268 . S
O321 Sc308 2.105 1_655 S
O321 C315 1.268 . S
O322 Sc310 2.105 . S
O322 C316 1.268 . S
O323 Sc309 2.105 . S
O323 C317 1.268 . S
O324 Sc308 2.105 . S
O324 C316 1.268 . S
O325 Sc309 2.105 1_655 S
O325 C315 1.268 . S
O326 Sc310 2.105 . S
O326 C317 1.268 . S
O327 Sc308 2.105 . S
O327 C313 1.268 . S
O328 Sc310 2.105 . S
O328 C312 1.268 . S
O329 Sc309 2.105 . S
O329 C314 1.268 . S
Sc330 O333 2.025 . S
Sc330 O340 2.105 . S
Sc330 O343 2.105 1_655 S
Sc330 O346 2.105 . S
Sc330 O349 2.105 . S
Sc331 O333 2.025 . S
Sc331 O341 2.105 . S
Sc331 O345 2.105 . S
Sc331 O347 2.105 1_655 S
Sc331 O351 2.105 . S
Sc332 O333 2.025 . S
Sc332 O342 2.105 . S
Sc332 O344 2.105 . S
Sc332 O348 2.105 . S
Sc332 O350 2.105 . S
O333 Sc330 2.025 . S
O333 Sc331 2.025 . S
O333 Sc332 2.025 . S
C334 O340 1.268 . S
C334 O350 1.268 . S
C335 O341 1.268 . S
C335 O349 1.268 . S
C336 O342 1.268 . S
C336 O351 1.268 . S
C337 O343 1.268 . S
C337 O347 1.268 . S
C338 O344 1.268 . S
C338 O346 1.268 . S
C339 O345 1.268 . S
C339 O348 1.268 . S
O340 Sc330 2.105 . S
O340 C334 1.268 . S
O341 Sc331 2.105 . S
O341 C335 1.268 . S
O342 Sc332 2.105 . S
O342 C336 1.268 . S
O343 Sc330 2.105 1_455 S
O343 C337 1.268 . S
O344 Sc332 2.105 . S
O344 C338 1.268 . S
O345 Sc331 2.105 . S
O345 C339 1.268 . S
O346 Sc330 2.105 . S
O346 C338 1.268 . S
O347 Sc331 2.105 1_455 S
O347 C337 1.268 . S
O348 Sc332 2.105 . S
O348 C339 1.268 . S
O349 Sc330 2.105 . S
O349 C335 1.268 . S
O350 Sc332 2.105 . S
O350 C334 1.268 . S
O351 Sc331 2.105 . S
O351 C336 1.268 . S
H352 C360 0.950 . S
H353 C365 0.950 . S
H354 C362 0.950 . S
H355 C364 0.950 . S
H356 C366 0.950 . S
H357 C368 0.950 . S
H358 C370 0.950 . S
H359 C371 0.950 . S
C360 H352 0.950 . S
C360 C361 1.386 1_565 S
C360 C362 1.391 . S
C361 C360 1.386 1_545 S
C361 C365 1.393 . S
C362 H354 0.950 . S
C362 C360 1.391 . S
C362 C363 1.400 1_565 S
C363 C362 1.400 1_545 S
C363 C364 1.398 . S
C363 C369 1.491 1_544 S
C364 H355 0.950 . S
C364 C363 1.398 . S
C364 C365 1.391 . S
C365 H353 0.950 . S
C365 C361 1.393 . S
C365 C364 1.391 . S
C366 H356 0.950 . S
C366 C367 1.386 1_545 S
C366 C368 1.391 . S
C367 C366 1.386 1_565 S
C367 C371 1.393 . S
C368 H357 0.950 . S
C368 C366 1.391 . S
C368 C369 1.400 1_545 S
C369 C363 1.491 1_566 S
C369 C368 1.400 1_565 S
C369 C370 1.398 . S
C370 H358 0.950 . S
C370 C369 1.398 . S
C370 C371 1.391 . S
C371 H359 0.950 . S
C371 C367 1.393 . S
C371 C370 1.391 . S
H372 C380 0.950 . S
H373 C385 0.950 . S
H374 C382 0.950 . S
H375 C384 0.954 1_556 S
H376 C386 0.950 . S
H377 C388 0.950 . S
H378 C390 0.954 1_554 S
H379 C391 0.950 . S
C380 H372 0.950 . S
C380 C381 1.386 . S
C380 C382 1.391 . S
C381 C380 1.386 . S
C381 C385 1.393 . S
C382 H374 0.950 . S
C382 C380 1.391 . S
C382 C383 1.400 . S
C383 C382 1.400 . S
C383 C384 1.398 . S
C383 C389 1.491 1_554 S
C384 H375 0.954 1_554 S
C384 C383 1.398 . S
C384 C385 1.391 . S
C385 H373 0.950 . S
C385 C381 1.393 . S
C385 C384 1.391 . S
C386 H376 0.950 . S
C386 C387 1.386 . S
C386 C388 1.391 . S
C387 C386 1.386 . S
C387 C391 1.393 . S
C388 H377 0.950 . S
C388 C386 1.391 . S
C388 C389 1.400 . S
C389 C383 1.491 1_556 S
C389 C388 1.400 . S
C389 C390 1.398 . S
C390 H378 0.954 1_556 S
C390 C389 1.398 . S
C390 C391 1.391 . S
C391 H379 0.950 . S
C391 C387 1.393 . S
C391 C390 1.391 . S
H392 C400 0.950 . S
H393 C405 0.950 . S
H394 C402 0.950 . S
H395 C404 0.950 . S
H396 C406 0.950 . S
H397 C408 0.950 . S
H398 C410 0.950 . S
H399 C411 0.950 . S
C400 H392 0.950 . S
C400 C401 1.386 1_545 S
C400 C402 1.391 . S
C401 C400 1.386 1_565 S
C401 C405 1.393 . S
C402 H394 0.950 . S
C402 C400 1.391 . S
C402 C403 1.400 1_545 S
C403 C402 1.400 1_565 S
C403 C404 1.398 . S
C403 C409 1.491 1_565 S
C404 H395 0.950 . S
C404 C403 1.398 . S
C404 C405 1.391 . S
C405 H393 0.950 . S
C405 C401 1.393 . S
C405 C404 1.391 . S
C406 H396 0.950 . S
C406 C407 1.386 1_565 S
C406 C408 1.391 . S
C407 C406 1.386 1_545 S
C407 C411 1.393 . S
C408 H397 0.950 . S
C408 C406 1.391 . S
C408 C409 1.400 1_565 S
C409 C403 1.491 1_545 S
C409 C408 1.400 1_545 S
C409 C410 1.398 . S
C410 H398 0.950 . S
C410 C409 1.398 . S
C410 C411 1.391 . S
C411 H399 0.950 . S
C411 C407 1.393 . S
C411 C410 1.391 . S
H412 C420 0.950 . S
H413 C425 0.950 . S
H414 C422 0.950 . S
H415 C424 0.950 . S
H416 C426 0.950 . S
H417 C428 0.950 . S
H418 C430 0.950 . S
H419 C431 0.950 . S
C420 H412 0.950 . S
C420 C421 1.386 . S
C420 C422 1.391 . S
C421 C420 1.386 . S
C421 C425 1.393 . S
C422 H414 0.950 . S
C422 C420 1.391 . S
C422 C423 1.400 . S
C423 C422 1.400 . S
C423 C424 1.398 . S
C423 C429 1.491 . S
C424 H415 0.950 . S
C424 C423 1.398 . S
C424 C425 1.391 . S
C425 H413 0.950 . S
C425 C421 1.393 . S
C425 C424 1.391 . S
C426 H416 0.950 . S
C426 C427 1.386 . S
C426 C428 1.391 . S
C427 C426 1.386 . S
C427 C431 1.393 . S
C428 H417 0.950 . S
C428 C426 1.391 . S
C428 C429 1.400 . S
C429 C423 1.491 . S
C429 C428 1.400 . S
C429 C430 1.398 . S
C430 H418 0.950 . S
C430 C429 1.398 . S
C430 C431 1.391 . S
C431 H419 0.950 . S
C431 C427 1.393 . S
C431 C430 1.391 . S
H432 C440 0.950 . S
H433 C445 0.950 1_455 S
H434 C442 0.950 . S
H435 C444 0.950 . S
H436 C446 0.950 . S
H437 C448 0.950 . S
H438 C450 0.950 . S
H439 C451 0.950 1_655 S
C440 H432 0.950 . S
C440 C441 1.386 . S
C440 C442 1.391 . S
C441 C440 1.386 . S
C441 C445 1.393 . S
C442 H434 0.950 . S
C442 C440 1.391 . S
C442 C443 1.400 . S
C443 C442 1.400 . S
C443 C444 1.398 1_655 S
C443 C449 1.491 1_655 S
C444 H435 0.950 . S
C444 C443 1.398 1_455 S
C444 C445 1.391 1_455 S
C445 H433 0.950 1_655 S
C445 C441 1.393 . S
C445 C444 1.391 1_655 S
C446 H436 0.950 . S
C446 C447 1.386 . S
C446 C448 1.391 . S
C447 C446 1.386 . S
C447 C451 1.393 . S
C448 H437 0.950 . S
C448 C446 1.391 . S
C448 C449 1.400 . S
C449 C443 1.491 1_455 S
C449 C448 1.400 . S
C449 C450 1.398 1_455 S
C450 H438 0.950 . S
C450 C449 1.398 1_655 S
C450 C451 1.391 1_655 S
C451 H439 0.950 1_455 S
C451 C447 1.393 . S
C451 C450 1.391 1_455 S
H452 C460 0.950 . S
H453 C465 0.950 1_645 S
H454 C462 0.950 . S
H455 C464 0.950 . S
H456 C466 0.950 . S
H457 C468 0.950 . S
H458 C470 0.950 . S
H459 C471 0.950 1_465 S
C460 H452 0.950 . S
C460 C461 1.386 . S
C460 C462 1.391 . S
C461 C460 1.386 . S
C461 C465 1.393 . S
C462 H454 0.950 . S
C462 C460 1.391 . S
C462 C463 1.400 . S
C463 C462 1.400 . S
C463 C464 1.398 1_465 S
C463 C469 1.491 1_465 S
C464 H455 0.950 . S
C464 C463 1.398 1_645 S
C464 C465 1.391 1_645 S
C465 H453 0.950 1_465 S
C465 C461 1.393 . S
C465 C464 1.391 1_465 S
C466 H456 0.950 . S
C466 C467 1.386 . S
C466 C468 1.391 . S
C467 C466 1.386 . S
C467 C471 1.393 . S
C468 H457 0.950 . S
C468 C466 1.391 . S
C468 C469 1.400 . S
C469 C463 1.491 1_645 S
C469 C468 1.400 . S
C469 C470 1.398 1_645 S
C470 H458 0.950 . S
C470 C469 1.398 1_465 S
C470 C471 1.391 1_465 S
C471 H459 0.950 1_645 S
C471 C467 1.393 . S
C471 C470 1.391 1_645 S
H472 C480 0.950 . S
H473 C485 0.950 1_455 S
H474 C482 0.950 . S
H475 C484 0.950 . S
H476 C486 0.950 . S
H477 C488 0.950 . S
H478 C490 0.950 . S
H479 C491 0.950 1_655 S
C480 H472 0.950 . S
C480 C481 1.386 . S
C480 C482 1.391 . S
C481 C480 1.386 . S
C481 C485 1.393 . S
C482 H474 0.950 . S
C482 C480 1.391 . S
C482 C483 1.400 . S
C483 C482 1.400 . S
C483 C484 1.398 1_655 S
C483 C489 1.491 1_656 S
C484 H475 0.950 . S
C484 C483 1.398 1_455 S
C484 C485 1.391 1_455 S
C485 H473 0.950 1_655 S
C485 C481 1.393 . S
C485 C484 1.391 1_655 S
C486 H476 0.950 . S
C486 C487 1.386 . S
C486 C488 1.391 . S
C487 C486 1.386 . S
C487 C491 1.393 . S
C488 H477 0.950 . S
C488 C486 1.391 . S
C488 C489 1.400 . S
C489 C483 1.491 1_454 S
C489 C488 1.400 . S
C489 C490 1.398 1_455 S
C490 H478 0.950 . S
C490 C489 1.398 1_655 S
C490 C491 1.391 1_655 S
C491 H479 0.950 1_455 S
C491 C487 1.393 . S
C491 C490 1.391 1_455 S
H492 C500 0.950 . S
H493 C505 0.954 . S
H494 C502 0.950 . S
H495 C504 0.950 . S
H496 C506 0.950 . S
H497 C508 0.950 . S
H498 C510 0.950 . S
H499 C511 0.954 . S
C500 H492 0.950 . S
C500 C501 1.386 1_565 S
C500 C502 1.391 . S
C501 C500 1.386 1_545 S
C501 C505 1.393 . S
C502 H494 0.950 . S
C502 C500 1.391 . S
C502 C503 1.400 1_565 S
C503 C502 1.400 1_545 S
C503 C504 1.398 1_455 S
C503 C509 1.491 1_446 S
C504 H495 0.950 . S
C504 C503 1.398 1_655 S
C504 C505 1.391 1_655 S
C505 H493 0.954 . S
C505 C501 1.393 . S
C505 C504 1.391 1_455 S
C506 H496 0.950 . S
C506 C507 1.386 1_545 S
C506 C508 1.391 . S
C507 C506 1.386 1_565 S
C507 C511 1.393 . S
C508 H497 0.950 . S
C508 C506 1.391 . S
C508 C509 1.400 1_545 S
C509 C503 1.491 1_664 S
C509 C508 1.400 1_565 S
C509 C510 1.398 1_655 S
C510 H498 0.950 . S
C510 C509 1.398 1_455 S
C510 C511 1.391 1_455 S
C511 H499 0.954 . S
C511 C507 1.393 . S
C511 C510 1.391 1_655 S
H512 C520 0.950 . S
H513 C525 0.950 . S
H514 C522 0.950 . S
H515 C524 0.950 . S
H516 C526 0.950 . S
H517 C528 0.950 . S
H518 C530 0.950 . S
H519 C531 0.950 . S
C520 H512 0.950 . S
C520 C521 1.386 . S
C520 C522 1.391 . S
C521 C520 1.386 . S
C521 C525 1.393 . S
C522 H514 0.950 . S
C522 C520 1.391 . S
C522 C523 1.400 . S
C523 C522 1.400 . S
C523 C524 1.398 . S
C523 C529 1.491 1_545 S
C524 H515 0.950 . S
C524 C523 1.398 . S
C524 C525 1.391 . S
C525 H513 0.950 . S
C525 C521 1.393 . S
C525 C524 1.391 . S
C526 H516 0.950 . S
C526 C527 1.386 . S
C526 C528 1.391 . S
C527 C526 1.386 . S
C527 C531 1.393 . S
C528 H517 0.950 . S
C528 C526 1.391 . S
C528 C529 1.400 . S
C529 C523 1.491 1_565 S
C529 C528 1.400 . S
C529 C530 1.398 . S
C530 H518 0.950 . S
C530 C529 1.398 . S
C530 C531 1.391 . S
C531 H519 0.950 . S
C531 C527 1.393 . S
C531 C530 1.391 . S
H532 C540 0.950 . S
H533 C545 0.950 . S
H534 C542 0.950 . S
H535 C544 0.950 . S
H536 C546 0.950 . S
H537 C548 0.950 . S
H538 C550 0.950 . S
H539 C551 0.950 . S
C540 H532 0.950 . S
C540 C541 1.386 . S
C540 C542 1.391 . S
C541 C540 1.386 . S
C541 C545 1.393 . S
C542 H534 0.950 . S
C542 C540 1.391 . S
C542 C543 1.400 . S
C543 C542 1.400 . S
C543 C544 1.398 . S
C543 C549 1.491 . S
C544 H535 0.950 . S
C544 C543 1.398 . S
C544 C545 1.391 . S
C545 H533 0.950 . S
C545 C541 1.393 . S
C545 C544 1.391 . S
C546 H536 0.950 . S
C546 C547 1.386 . S
C546 C548 1.391 . S
C547 C546 1.386 . S
C547 C551 1.393 . S
C548 H537 0.950 . S
C548 C546 1.391 . S
C548 C549 1.400 . S
C549 C543 1.491 . S
C549 C548 1.400 . S
C549 C550 1.398 . S
C550 H538 0.950 . S
C550 C549 1.398 . S
C550 C551 1.391 . S
C551 H539 0.950 . S
C551 C547 1.393 . S
C551 C550 1.391 . S
H552 C560 0.950 . S
H553 C565 0.950 . S
H554 C562 0.950 . S
H555 C564 0.968 . S
H556 C566 0.950 . S
H557 C568 0.950 . S
H558 C570 0.968 . S
H559 C571 0.950 . S
C560 H552 0.950 . S
C560 C561 1.386 . S
C560 C562 1.391 . S
C561 C560 1.386 . S
C561 C565 1.393 . S
C562 H554 0.950 . S
C562 C560 1.391 . S
C562 C563 1.400 . S
C563 C562 1.400 . S
C563 C564 1.398 . S
C563 C569 1.491 1_565 S
C564 H555 0.968 . S
C564 C563 1.398 . S
C564 C565 1.391 . S
C565 H553 0.950 . S
C565 C561 1.393 . S
C565 C564 1.391 . S
C566 H556 0.950 . S
C566 C567 1.386 . S
C566 C568 1.391 . S
C567 C566 1.386 . S
C567 C571 1.393 . S
C568 H557 0.950 . S
C568 C566 1.391 . S
C568 C569 1.400 . S
C569 C563 1.491 1_545 S
C569 C568 1.400 . S
C569 C570 1.398 . S
C570 H558 0.968 . S
C570 C569 1.398 . S
C570 C571 1.391 . S
C571 H559 0.950 . S
C571 C567 1.393 . S
C571 C570 1.391 . S
H572 C580 0.950 . S
H573 C585 0.950 . S
H574 C582 0.950 . S
H575 C584 0.950 . S
H576 C586 0.950 . S
H577 C588 0.950 . S
H578 C590 0.950 . S
H579 C591 0.950 . S
C580 H572 0.950 . S
C580 C581 1.386 . S
C580 C582 1.391 . S
C581 C580 1.386 . S
C581 C585 1.393 . S
C582 H574 0.950 . S
C582 C580 1.391 . S
C582 C583 1.400 . S
C583 C582 1.400 . S
C583 C584 1.398 . S
C583 C589 1.491 . S
C584 H575 0.950 . S
C584 C583 1.398 . S
C584 C585 1.391 . S
C585 H573 0.950 . S
C585 C581 1.393 . S
C585 C584 1.391 . S
C586 H576 0.950 . S
C586 C587 1.386 . S
C586 C588 1.391 . S
C587 C586 1.386 . S
C587 C591 1.393 . S
C588 H577 0.950 . S
C588 C586 1.391 . S
C588 C589 1.400 . S
C589 C583 1.491 . S
C589 C588 1.400 . S
C589 C590 1.398 . S
C590 H578 0.950 . S
C590 C589 1.398 . S
C590 C591 1.391 . S
C591 H579 0.950 . S
C591 C587 1.393 . S
C591 C590 1.391 . S
H592 C600 0.950 . S
H593 C605 0.950 . S
H594 C602 0.950 . S
H595 C604 0.950 . S
H596 C606 0.950 . S
H597 C608 0.950 . S
H598 C610 0.950 . S
H599 C611 0.950 . S
C600 H592 0.950 . S
C600 C601 1.386 . S
C600 C602 1.391 . S
C601 C600 1.386 . S
C601 C605 1.393 . S
C602 H594 0.950 . S
C602 C600 1.391 . S
C602 C603 1.400 . S
C603 C602 1.400 . S
C603 C604 1.398 . S
C603 C609 1.491 . S
C604 H595 0.950 . S
C604 C603 1.398 . S
C604 C605 1.391 . S
C605 H593 0.950 . S
C605 C601 1.393 . S
C605 C604 1.391 . S
C606 H596 0.950 . S
C606 C607 1.386 . S
C606 C608 1.391 . S
C607 C606 1.386 . S
C607 C611 1.393 . S
C608 H597 0.950 . S
C608 C606 1.391 . S
C608 C609 1.400 . S
C609 C603 1.491 . S
C609 C608 1.400 . S
C609 C610 1.398 . S
C610 H598 0.950 . S
C610 C609 1.398 . S
C610 C611 1.391 . S
C611 H599 0.950 . S
C611 C607 1.393 . S
C611 C610 1.391 . S
H612 C620 0.950 . S
H613 C625 0.950 . S
H614 C622 0.950 1_565 S
H615 C624 0.950 . S
H616 C626 0.950 . S
H617 C628 0.950 1_545 S
H618 C630 0.950 . S
H619 C631 0.950 . S
C620 H612 0.950 . S
C620 C621 1.386 . S
C620 C622 1.391 . S
C621 C620 1.386 . S
C621 C625 1.393 . S
C622 H614 0.950 1_545 S
C622 C620 1.391 . S
C622 C623 1.400 . S
C623 C622 1.400 . S
C623 C624 1.398 . S
C623 C629 1.491 1_545 S
C624 H615 0.950 . S
C624 C623 1.398 . S
C624 C625 1.391 . S
C625 H613 0.950 . S
C625 C621 1.393 . S
C625 C624 1.391 . S
C626 H616 0.950 . S
C626 C627 1.386 . S
C626 C628 1.391 . S
C627 C626 1.386 . S
C627 C631 1.393 . S
C628 H617 0.950 1_565 S
C628 C626 1.391 . S
C628 C629 1.400 . S
C629 C623 1.491 1_565 S
C629 C628 1.400 . S
C629 C630 1.398 . S
C630 H618 0.950 . S
C630 C629 1.398 . S
C630 C631 1.391 . S
C631 H619 0.950 . S
C631 C627 1.393 . S
C631 C630 1.391 . S
H632 C640 0.950 . S
H633 C645 0.950 . S
H634 C642 0.950 . S
H635 C644 0.950 . S
H636 C646 0.950 . S
H637 C648 0.950 . S
H638 C650 0.950 . S
H639 C651 0.950 . S
C640 H632 0.950 . S
C640 C641 1.386 . S
C640 C642 1.391 . S
C641 C640 1.386 . S
C641 C645 1.393 . S
C642 H634 0.950 . S
C642 C640 1.391 . S
C642 C643 1.400 . S
C643 C642 1.400 . S
C643 C644 1.398 . S
C643 C649 1.491 . S
C644 H635 0.950 . S
C644 C643 1.398 . S
C644 C645 1.391 . S
C645 H633 0.950 . S
C645 C641 1.393 . S
C645 C644 1.391 . S
C646 H636 0.950 . S
C646 C647 1.386 . S
C646 C648 1.391 . S
C647 C646 1.386 . S
C647 C651 1.393 . S
C648 H637 0.950 . S
C648 C646 1.391 . S
C648 C649 1.400 . S
C649 C643 1.491 . S
C649 C648 1.400 . S
C649 C650 1.398 . S
C650 H638 0.950 . S
C650 C649 1.398 . S
C650 C651 1.391 . S
C651 H639 0.950 . S
C651 C647 1.393 . S
C651 C650 1.391 . S
H652 C660 0.950 . S
H653 C665 0.950 . S
H654 C662 0.950 1_565 S
H655 C664 0.950 . S
H656 C666 0.950 . S
H657 C668 0.950 1_545 S
H658 C670 0.950 . S
H659 C671 0.950 . S
C660 H652 0.950 . S
C660 C661 1.386 . S
C660 C662 1.391 . S
C661 C660 1.386 . S
C661 C665 1.393 . S
C662 H654 0.950 1_545 S
C662 C660 1.391 . S
C662 C663 1.400 . S
C663 C662 1.400 . S
C663 C664 1.398 . S
C663 C669 1.491 1_545 S
C664 H655 0.950 . S
C664 C663 1.398 . S
C664 C665 1.391 . S
C665 H653 0.950 . S
C665 C661 1.393 . S
C665 C664 1.391 . S
C666 H656 0.950 . S
C666 C667 1.386 . S
C666 C668 1.391 . S
C667 C666 1.386 . S
C667 C671 1.393 . S
C668 H657 0.950 1_565 S
C668 C666 1.391 . S
C668 C669 1.400 . S
C669 C663 1.491 1_565 S
C669 C668 1.400 . S
C669 C670 1.398 . S
C670 H658 0.950 . S
C670 C669 1.398 . S
C670 C671 1.391 . S
C671 H659 0.950 . S
C671 C667 1.393 . S
C671 C670 1.391 . S
H672 C680 0.950 . S
H673 C685 0.950 . S
H674 C682 0.950 . S
H675 C684 0.950 1_556 S
H676 C686 0.950 . S
H677 C688 0.950 . S
H678 C690 0.950 1_554 S
H679 C691 0.950 . S
C680 H672 0.950 . S
C680 C681 1.386 . S
C680 C682 1.391 . S
C681 C680 1.386 . S
C681 C685 1.393 . S
C682 H674 0.950 . S
C682 C680 1.391 . S
C682 C683 1.400 . S
C683 C682 1.400 . S
C683 C684 1.398 . S
C683 C689 1.491 1_554 S
C684 H675 0.950 1_554 S
C684 C683 1.398 . S
C684 C685 1.391 . S
C685 H673 0.950 . S
C685 C681 1.393 . S
C685 C684 1.391 . S
C686 H676 0.950 . S
C686 C687 1.386 . S
C686 C688 1.391 . S
C687 C686 1.386 . S
C687 C691 1.393 . S
C688 H677 0.950 . S
C688 C686 1.391 . S
C688 C689 1.400 . S
C689 C683 1.491 1_556 S
C689 C688 1.400 . S
C689 C690 1.398 . S
C690 H678 0.950 1_556 S
C690 C689 1.398 . S
C690 C691 1.391 . S
C691 H679 0.950 . S
C691 C687 1.393 . S
C691 C690 1.391 . S
H692 C700 0.950 . S
H693 C705 0.950 . S
H694 C702 0.950 . S
H695 C704 0.950 . S
H696 C706 0.950 . S
H697 C708 0.950 . S
H698 C710 0.950 . S
H699 C711 0.950 . S
C700 H692 0.950 . S
C700 C701 1.386 . S
C700 C702 1.391 . S
C701 C700 1.386 . S
C701 C705 1.393 . S
C702 H694 0.950 . S
C702 C700 1.391 . S
C702 C703 1.400 . S
C703 C702 1.400 . S
C703 C704 1.398 . S
C703 C709 1.491 1_556 S
C704 H695 0.950 . S
C704 C703 1.398 . S
C704 C705 1.391 . S
C705 H693 0.950 . S
C705 C701 1.393 . S
C705 C704 1.391 . S
C706 H696 0.950 . S
C706 C707 1.386 . S
C706 C708 1.391 . S
C707 C706 1.386 . S
C707 C711 1.393 . S
C708 H697 0.950 . S
C708 C706 1.391 . S
C708 C709 1.400 . S
C709 C703 1.491 1_554 S
C709 C708 1.400 . S
C709 C710 1.398 . S
C710 H698 0.950 . S
C710 C709 1.398 . S
C710 C711 1.391 . S
C711 H699 0.950 . S
C711 C707 1.393 . S
C711 C710 1.391 . S
H712 C720 0.950 . S
H713 C725 0.950 . S
H714 C722 0.950 . S
H715 C724 0.950 . S
H716 C726 0.950 . S
H717 C728 0.950 . S
H718 C730 0.950 . S
H719 C731 0.950 . S
C720 H712 0.950 . S
C720 C721 1.386 . S
C720 C722 1.391 . S
C721 C720 1.386 . S
C721 C725 1.393 . S
C722 H714 0.950 . S
C722 C720 1.391 . S
C722 C723 1.400 . S
C723 C722 1.400 . S
C723 C724 1.398 . S
C723 C729 1.491 . S
C724 H715 0.950 . S
C724 C723 1.398 . S
C724 C725 1.391 . S
C725 H713 0.950 . S
C725 C721 1.393 . S
C725 C724 1.391 . S
C726 H716 0.950 . S
C726 C727 1.386 . S
C726 C728 1.391 . S
C727 C726 1.386 . S
C727 C731 1.393 . S
C728 H717 0.950 . S
C728 C726 1.391 . S
C728 C729 1.400 . S
C729 C723 1.491 . S
C729 C728 1.400 . S
C729 C730 1.398 . S
C730 H718 0.950 . S
C730 C729 1.398 . S
C730 C731 1.391 . S
C731 H719 0.950 . S
C731 C727 1.393 . S
C731 C730 1.391 . S
H732 C740 0.950 . S
H733 C745 0.950 . S
H734 C742 0.950 . S
H735 C744 0.950 . S
H736 C746 0.950 . S
H737 C748 0.950 . S
H738 C750 0.950 . S
H739 C751 0.950 . S
C740 H732 0.950 . S
C740 C741 1.386 . S
C740 C742 1.391 . S
C741 C740 1.386 . S
C741 C745 1.393 . S
C742 H734 0.950 . S
C742 C740 1.391 . S
C742 C743 1.400 . S
C743 C742 1.400 . S
C743 C744 1.398 . S
C743 C749 1.491 . S
C744 H735 0.950 . S
C744 C743 1.398 . S
C744 C745 1.391 . S
C745 H733 0.950 . S
C745 C741 1.393 . S
C745 C744 1.391 . S
C746 H736 0.950 . S
C746 C747 1.386 . S
C746 C748 1.391 . S
C747 C746 1.386 . S
C747 C751 1.393 . S
C748 H737 0.950 . S
C748 C746 1.391 . S
C748 C749 1.400 . S
C749 C743 1.491 . S
C749 C748 1.400 . S
C749 C750 1.398 . S
C750 H738 0.950 . S
C750 C749 1.398 . S
C750 C751 1.391 . S
C751 H739 0.950 . S
C751 C747 1.393 . S
C751 C750 1.391 . S
H752 C760 0.950 . S
H753 C765 0.950 . S
H754 C762 0.950 1_554 S
H755 C764 0.950 . S
H756 C766 0.950 . S
H757 C768 0.950 1_556 S
H758 C770 0.950 . S
H759 C771 0.950 . S
C760 H752 0.950 . S
C760 C761 1.386 . S
C760 C762 1.391 . S
C761 C760 1.386 . S
C761 C765 1.393 . S
C762 H754 0.950 1_556 S
C762 C760 1.391 . S
C762 C763 1.400 . S
C763 C762 1.400 . S
C763 C764 1.398 . S
C763 C769 1.491 1_556 S
C764 H755 0.950 . S
C764 C763 1.398 . S
C764 C765 1.391 . S
C765 H753 0.950 . S
C765 C761 1.393 . S
C765 C764 1.391 . S
C766 H756 0.950 . S
C766 C767 1.386 . S
C766 C768 1.391 . S
C767 C766 1.386 . S
C767 C771 1.393 . S
C768 H757 0.950 1_554 S
C768 C766 1.391 . S
C768 C769 1.400 . S
C769 C763 1.491 1_554 S
C769 C768 1.400 . S
C769 C770 1.398 . S
C770 H758 0.950 . S
C770 C769 1.398 . S
C770 C771 1.391 . S
C771 H759 0.950 . S
C771 C767 1.393 . S
C771 C770 1.391 . S
H772 C780 0.950 . S
H773 C785 0.950 . S
H774 C782 0.957 . S
H775 C784 0.950 . S
H776 C786 0.950 . S
H777 C788 0.957 . S
H778 C790 0.950 . S
H779 C791 0.950 . S
C780 H772 0.950 . S
C780 C781 1.386 . S
C780 C782 1.391 . S
C781 C780 1.386 . S
C781 C785 1.393 . S
C782 H774 0.957 . S
C782 C780 1.391 . S
C782 C783 1.400 . S
C783 C782 1.400 . S
C783 C784 1.398 . S
C783 C789 1.491 1_556 S
C784 H775 0.950 . S
C784 C783 1.398 . S
C784 C785 1.391 . S
C785 H773 0.950 . S
C785 C781 1.393 . S
C785 C784 1.391 . S
C786 H776 0.950 . S
C786 C787 1.386 . S
C786 C788 1.391 . S
C787 C786 1.386 . S
C787 C791 1.393 . S
C788 H777 0.957 . S
C788 C786 1.391 . S
C788 C789 1.400 . S
C789 C783 1.491 1_554 S
C789 C788 1.400 . S
C789 C790 1.398 . S
C790 H778 0.950 . S
C790 C789 1.398 . S
C790 C791 1.391 . S
C791 H779 0.950 . S
C791 C787 1.393 . S
C791 C790 1.391 . S
H792 C800 0.950 . S
H793 C805 0.950 . S
H794 C802 0.950 . S
H795 C804 0.950 . S
H796 C806 0.950 . S
H797 C808 0.950 . S
H798 C810 0.950 . S
H799 C811 0.950 . S
C800 H792 0.950 . S
C800 C801 1.386 . S
C800 C802 1.391 . S
C801 C800 1.386 . S
C801 C805 1.393 . S
C802 H794 0.950 . S
C802 C800 1.391 . S
C802 C803 1.400 . S
C803 C802 1.400 . S
C803 C804 1.398 . S
C803 C809 1.491 . S
C804 H795 0.950 . S
C804 C803 1.398 . S
C804 C805 1.391 . S
C805 H793 0.950 . S
C805 C801 1.393 . S
C805 C804 1.391 . S
C806 H796 0.950 . S
C806 C807 1.386 . S
C806 C808 1.391 . S
C807 C806 1.386 . S
C807 C811 1.393 . S
C808 H797 0.950 . S
C808 C806 1.391 . S
C808 C809 1.400 . S
C809 C803 1.491 . S
C809 C808 1.400 . S
C809 C810 1.398 . S
C810 H798 0.950 . S
C810 C809 1.398 . S
C810 C811 1.391 . S
C811 H799 0.950 . S
C811 C807 1.393 . S
C811 C810 1.391 . S
H812 C820 0.950 . S
H813 C825 0.950 . S
H814 C822 0.950 . S
H815 C824 0.950 . S
H816 C826 0.950 . S
H817 C828 0.950 . S
H818 C830 0.950 . S
H819 C831 0.950 . S
C820 H812 0.950 . S
C820 C821 1.386 . S
C820 C822 1.391 . S
C821 C820 1.386 . S
C821 C825 1.393 . S
C822 H814 0.950 . S
C822 C820 1.391 . S
C822 C823 1.400 . S
C823 C822 1.400 . S
C823 C824 1.398 . S
C823 C829 1.491 . S
C824 H815 0.950 . S
C824 C823 1.398 . S
C824 C825 1.391 . S
C825 H813 0.950 . S
C825 C821 1.393 . S
C825 C824 1.391 . S
C826 H816 0.950 . S
C826 C827 1.386 . S
C826 C828 1.391 . S
C827 C826 1.386 . S
C827 C831 1.393 . S
C828 H817 0.950 . S
C828 C826 1.391 . S
C828 C829 1.400 . S
C829 C823 1.491 . S
C829 C828 1.400 . S
C829 C830 1.398 . S
C830 H818 0.950 . S
C830 C829 1.398 . S
C830 C831 1.391 . S
C831 H819 0.950 . S
C831 C827 1.393 . S
C831 C830 1.391 . S
H832 C840 0.950 . S
H833 C845 0.950 . S
H834 C842 0.950 . S
H835 C844 0.950 . S
H836 C846 0.950 . S
H837 C848 0.950 . S
H838 C850 0.950 . S
H839 C851 0.950 . S
C840 H832 0.950 . S
C840 C841 1.386 . S
C840 C842 1.391 . S
C841 C840 1.386 . S
C841 C845 1.393 . S
C842 H834 0.950 . S
C842 C840 1.391 . S
C842 C843 1.400 . S
C843 C842 1.400 . S
C843 C844 1.398 . S
C843 C849 1.491 . S
C844 H835 0.950 . S
C844 C843 1.398 . S
C844 C845 1.391 . S
C845 H833 0.950 . S
C845 C841 1.393 . S
C845 C844 1.391 . S
C846 H836 0.950 . S
C846 C847 1.386 1_545 S
C846 C848 1.391 . S
C847 C846 1.386 1_565 S
C847 C851 1.393 . S
C848 H837 0.950 . S
C848 C846 1.391 . S
C848 C849 1.400 . S
C849 C843 1.491 . S
C849 C848 1.400 . S
C849 C850 1.398 1_545 S
C850 H838 0.950 . S
C850 C849 1.398 1_565 S
C850 C851 1.391 . S
C851 H839 0.950 . S
C851 C847 1.393 . S
C851 C850 1.391 . S
H852 C860 0.950 . S
H853 C865 0.950 . S
H854 C862 0.950 . S
H855 C864 0.950 . S
H856 C866 0.950 . S
H857 C868 0.950 . S
H858 C870 0.950 . S
H859 C871 0.950 . S
C860 H852 0.950 . S
C860 C861 1.386 . S
C860 C862 1.391 . S
C861 C860 1.386 . S
C861 C865 1.393 . S
C862 H854 0.950 . S
C862 C860 1.391 . S
C862 C863 1.400 . S
C863 C862 1.400 . S
C863 C864 1.398 . S
C863 C869 1.491 . S
C864 H855 0.950 . S
C864 C863 1.398 . S
C864 C865 1.391 . S
C865 H853 0.950 . S
C865 C861 1.393 . S
C865 C864 1.391 . S
C866 H856 0.950 . S
C866 C867 1.386 . S
C866 C868 1.391 . S
C867 C866 1.386 . S
C867 C871 1.393 . S
C868 H857 0.950 . S
C868 C866 1.391 . S
C868 C869 1.400 . S
C869 C863 1.491 . S
C869 C868 1.400 . S
C869 C870 1.398 . S
C870 H858 0.950 . S
C870 C869 1.398 . S
C870 C871 1.391 . S
C871 H859 0.950 . S
C871 C867 1.393 . S
C871 C870 1.391 . S
H872 C880 0.950 . S
H873 C885 0.950 . S
H874 C882 0.950 . S
H875 C884 0.950 1_545 S
H876 C886 0.950 . S
H877 C888 0.950 . S
H878 C890 0.950 . S
H879 C891 0.950 . S
C880 H872 0.950 . S
C880 C881 1.386 . S
C880 C882 1.391 . S
C881 C880 1.386 . S
C881 C885 1.393 . S
C882 H874 0.950 . S
C882 C880 1.391 . S
C882 C883 1.400 . S
C883 C882 1.400 . S
C883 C884 1.398 . S
C883 C889 1.491 . S
C884 H875 0.950 1_565 S
C884 C883 1.398 . S
C884 C885 1.391 . S
C885 H873 0.950 . S
C885 C881 1.393 . S
C885 C884 1.391 . S
C886 H876 0.950 . S
C886 C887 1.386 . S
C886 C888 1.391 . S
C887 C886 1.386 . S
C887 C891 1.393 1_545 S
C888 H877 0.950 . S
C888 C886 1.391 . S
C888 C889 1.400 1_545 S
C889 C883 1.491 . S
C889 C888 1.400 1_565 S
C889 C890 1.398 . S
C890 H878 0.950 . S
C890 C889 1.398 . S
C890 C891 1.391 . S
C891 H879 0.950 . S
C891 C887 1.393 1_565 S
C891 C890 1.391 . S
H892 C900 0.950 . S
H893 C905 0.950 . S
H894 C902 0.950 . S
H895 C904 0.950 . S
H896 C906 0.950 . S
H897 C908 0.950 . S
H898 C910 0.950 . S
H899 C911 0.950 . S
C900 H892 0.950 . S
C900 C901 1.386 . S
C900 C902 1.391 . S
C901 C900 1.386 . S
C901 C905 1.393 . S
C902 H894 0.950 . S
C902 C900 1.391 . S
C902 C903 1.400 . S
C903 C902 1.400 . S
C903 C904 1.398 . S
C903 C909 1.491 . S
C904 H895 0.950 . S
C904 C903 1.398 . S
C904 C905 1.391 . S
C905 H893 0.950 . S
C905 C901 1.393 . S
C905 C904 1.391 . S
C906 H896 0.950 . S
C906 C907 1.386 . S
C906 C908 1.391 . S
C907 C906 1.386 . S
C907 C911 1.393 . S
C908 H897 0.950 . S
C908 C906 1.391 . S
C908 C909 1.400 . S
C909 C903 1.491 . S
C909 C908 1.400 . S
C909 C910 1.398 . S
C910 H898 0.950 . S
C910 C909 1.398 . S
C910 C911 1.391 . S
C911 H899 0.950 . S
C911 C907 1.393 . S
C911 C910 1.391 . S
H912 C920 0.950 . S
H913 C925 0.950 . S
H914 C922 0.950 . S
H915 C924 0.950 . S
H916 C926 0.950 . S
H917 C928 0.950 . S
H918 C930 0.961 . S
H919 C931 0.950 . S
C920 H912 0.950 . S
C920 C921 1.386 . S
C920 C922 1.391 . S
C921 C920 1.386 . S
C921 C925 1.393 1_545 S
C922 H914 0.950 . S
C922 C920 1.391 . S
C922 C923 1.400 1_545 S
C923 C922 1.400 1_565 S
C923 C924 1.398 . S
C923 C929 1.491 . S
C924 H915 0.950 . S
C924 C923 1.398 . S
C924 C925 1.391 . S
C925 H913 0.950 . S
C925 C921 1.393 1_565 S
C925 C924 1.391 . S
C926 H916 0.950 . S
C926 C927 1.386 . S
C926 C928 1.391 . S
C927 C926 1.386 . S
C927 C931 1.393 . S
C928 H917 0.950 . S
C928 C926 1.391 . S
C928 C929 1.400 . S
C929 C923 1.491 . S
C929 C928 1.400 . S
C929 C930 1.398 . S
C930 H918 0.961 . S
C930 C929 1.398 . S
C930 C931 1.391 . S
C931 H919 0.950 . S
C931 C927 1.393 . S
C931 C930 1.391 . S
H932 C940 0.950 . S
H933 C945 0.950 . S
H934 C942 0.950 . S
H935 C944 0.950 . S
H936 C946 0.950 . S
H937 C948 0.950 . S
H938 C950 0.950 . S
H939 C951 0.950 . S
C940 H932 0.950 . S
C940 C941 1.386 . S
C940 C942 1.391 . S
C941 C940 1.386 . S
C941 C945 1.393 . S
C942 H934 0.950 . S
C942 C940 1.391 . S
C942 C943 1.400 . S
C943 C942 1.400 . S
C943 C944 1.398 . S
C943 C949 1.491 . S
C944 H935 0.950 . S
C944 C943 1.398 . S
C944 C945 1.391 . S
C945 H933 0.950 . S
C945 C941 1.393 . S
C945 C944 1.391 . S
C946 H936 0.950 . S
C946 C947 1.386 . S
C946 C948 1.391 . S
C947 C946 1.386 . S
C947 C951 1.393 . S
C948 H937 0.950 . S
C948 C946 1.391 . S
C948 C949 1.400 . S
C949 C943 1.491 . S
C949 C948 1.400 . S
C949 C950 1.398 . S
C950 H938 0.950 . S
C950 C949 1.398 . S
C950 C951 1.391 . S
C951 H939 0.950 . S
C951 C947 1.393 . S
C951 C950 1.391 . S
H952 C960 0.950 . S
H953 C965 0.950 . S
H954 C962 0.950 . S
H955 C964 0.950 . S
H956 C966 0.950 . S
H957 C968 0.950 . S
H958 C970 0.950 1_565 S
H959 C971 0.950 . S
C960 H952 0.950 . S
C960 C961 1.386 . S
C960 C962 1.391 . S
C961 C960 1.386 . S
C961 C965 1.393 1_565 S
C962 H954 0.950 . S
C962 C960 1.391 . S
C962 C963 1.400 1_565 S
C963 C962 1.400 1_545 S
C963 C964 1.398 . S
C963 C969 1.491 . S
C964 H955 0.950 . S
C964 C963 1.398 . S
C964 C965 1.391 . S
C965 H953 0.950 . S
C965 C961 1.393 1_545 S
C965 C964 1.391 . S
C966 H956 0.950 . S
C966 C967 1.386 . S
C966 C968 1.391 . S
C967 C966 1.386 . S
C967 C971 1.393 . S
C968 H957 0.950 . S
C968 C966 1.391 . S
C968 C969 1.400 . S
C969 C963 1.491 . S
C969 C968 1.400 . S
C969 C970 1.398 . S
C970 H958 0.950 1_545 S
C970 C969 1.398 . S
C970 C971 1.391 . S
C971 H959 0.950 . S
C971 C967 1.393 . S
C971 C970 1.391 . S
H972 C980 0.950 . S
H973 C985 0.950 . S
H974 C982 0.950 . S
H975 C984 0.950 . S
H976 C986 0.950 . S
H977 C988 0.950 . S
H978 C990 0.950 . S
H979 C991 0.950 . S
C980 H972 0.950 . S
C980 C981 1.386 . S
C980 C982 1.391 . S
C981 C980 1.386 . S
C981 C985 1.393 . S
C982 H974 0.950 . S
C982 C980 1.391 . S
C982 C983 1.400 . S
C983 C982 1.400 . S
C983 C984 1.398 . S
C983 C989 1.491 . S
C984 H975 0.950 . S
C984 C983 1.398 . S
C984 C985 1.391 . S
C985 H973 0.950 . S
C985 C981 1.393 . S
C985 C984 1.391 . S
C986 H976 0.950 . S
C986 C987 1.386 . S
C986 C988 1.391 . S
C987 C986 1.386 . S
C987 C991 1.393 . S
C988 H977 0.950 . S
C988 C986 1.391 . S
C988 C989 1.400 . S
C989 C983 1.491 . S
C989 C988 1.400 . S
C989 C990 1.398 . S
C990 H978 0.950 . S
C990 C989 1.398 . S
C990 C991 1.391 . S
C991 H979 0.950 . S
C991 C987 1.393 . S
C991 C990 1.391 . S
H992 C1000 0.950 . S
H993 C1005 0.950 . S
H994 C1002 0.950 . S
H995 C1004 0.950 . S
H996 C1006 0.950 . S
H997 C1008 0.950 . S
H998 C1010 0.950 . S
H999 C1011 0.950 . S
C1000 H992 0.950 . S
C1000 C1001 1.386 . S
C1000 C1002 1.391 . S
C1001 C1000 1.386 . S
C1001 C1005 1.393 . S
C1002 H994 0.950 . S
C1002 C1000 1.391 . S
C1002 C1003 1.400 . S
C1003 C1002 1.400 . S
C1003 C1004 1.398 . S
C1003 C1009 1.491 . S
C1004 H995 0.950 . S
C1004 C1003 1.398 . S
C1004 C1005 1.391 . S
C1005 H993 0.950 . S
C1005 C1001 1.393 . S
C1005 C1004 1.391 . S
C1006 H996 0.950 . S
C1006 C1007 1.386 . S
C1006 C1008 1.391 . S
C1007 C1006 1.386 . S
C1007 C1011 1.393 . S
C1008 H997 0.950 . S
C1008 C1006 1.391 . S
C1008 C1009 1.400 . S
C1009 C1003 1.491 . S
C1009 C1008 1.400 . S
C1009 C1010 1.398 . S
C1010 H998 0.950 . S
C1010 C1009 1.398 . S
C1010 C1011 1.391 . S
C1011 H999 0.950 . S
C1011 C1007 1.393 . S
C1011 C1010 1.391 . S
H1012 C1020 0.950 . S
H1013 C1025 0.950 . S
H1014 C1022 0.950 . S
H1015 C1024 0.950 . S
H1016 C1026 0.950 . S
H1017 C1028 0.950 1_545 S
H1018 C1030 0.950 . S
H1019 C1031 0.950 . S
C1020 H1012 0.950 . S
C1020 C1021 1.386 1_565 S
C1020 C1022 1.391 . S
C1021 C1020 1.386 1_545 S
C1021 C1025 1.393 . S
C1022 H1014 0.950 . S
C1022 C1020 1.391 . S
C1022 C1023 1.400 . S
C1023 C1022 1.400 . S
C1023 C1024 1.398 1_565 S
C1023 C1029 1.491 . S
C1024 H1015 0.950 . S
C1024 C1023 1.398 1_545 S
C1024 C1025 1.391 . S
C1025 H1013 0.950 . S
C1025 C1021 1.393 . S
C1025 C1024 1.391 . S
C1026 H1016 0.950 . S
C1026 C1027 1.386 . S
C1026 C1028 1.391 . S
C1027 C1026 1.386 . S
C1027 C1031 1.393 . S
C1028 H1017 0.950 1_565 S
C1028 C1026 1.391 . S
C1028 C1029 1.400 . S
C1029 C1023 1.491 . S
C1029 C1028 1.400 . S
C1029 C1030 1.398 . S
C1030 H1018 0.950 . S
C1030 C1029 1.398 . S
C1030 C1031 1.391 . S
C1031 H1019 0.950 . S
C1031 C1027 1.393 . S
C1031 C1030 1.391 . S
H1032 C1040 0.950 . S
H1033 C1045 0.950 . S
H1034 C1042 0.950 . S
H1035 C1044 0.950 . S
H1036 C1046 0.950 . S
H1037 C1048 0.950 . S
H1038 C1050 0.950 . S
H1039 C1051 0.950 . S
C1040 H1032 0.950 . S
C1040 C1041 1.386 . S
C1040 C1042 1.391 . S
C1041 C1040 1.386 . S
C1041 C1045 1.393 . S
C1042 H1034 0.950 . S
C1042 C1040 1.391 . S
C1042 C1043 1.400 . S
C1043 C1042 1.400 . S
C1043 C1044 1.398 . S
C1043 C1049 1.491 . S
C1044 H1035 0.950 . S
C1044 C1043 1.398 . S
C1044 C1045 1.391 . S
C1045 H1033 0.950 . S
C1045 C1041 1.393 . S
C1045 C1044 1.391 . S
C1046 H1036 0.950 . S
C1046 C1047 1.386 . S
C1046 C1048 1.391 . S
C1047 C1046 1.386 . S
C1047 C1051 1.393 . S
C1048 H1037 0.950 . S
C1048 C1046 1.391 . S
C1048 C1049 1.400 . S
C1049 C1043 1.491 . S
C1049 C1048 1.400 . S
C1049 C1050 1.398 . S
C1050 H1038 0.950 . S
C1050 C1049 1.398 . S
C1050 C1051 1.391 . S
C1051 H1039 0.950 . S
C1051 C1047 1.393 . S
C1051 C1050 1.391 . S
H1052 C1060 0.950 . S
H1053 C1065 0.950 . S
H1054 C1062 0.950 . S
H1055 C1064 0.950 . S
H1056 C1066 0.950 . S
H1057 C1068 0.950 . S
H1058 C1070 0.950 . S
H1059 C1071 0.950 . S
C1060 H1052 0.950 . S
C1060 C1061 1.386 . S
C1060 C1062 1.391 . S
C1061 C1060 1.386 . S
C1061 C1065 1.393 . S
C1062 H1054 0.950 . S
C1062 C1060 1.391 . S
C1062 C1063 1.400 . S
C1063 C1062 1.400 . S
C1063 C1064 1.398 . S
C1063 C1069 1.491 . S
C1064 H1055 0.950 . S
C1064 C1063 1.398 . S
C1064 C1065 1.391 . S
C1065 H1053 0.950 . S
C1065 C1061 1.393 . S
C1065 C1064 1.391 . S
C1066 H1056 0.950 . S
C1066 C1067 1.386 . S
C1066 C1068 1.391 1_565 S
C1067 C1066 1.386 . S
C1067 C1071 1.393 . S
C1068 H1057 0.950 . S
C1068 C1066 1.391 1_545 S
C1068 C1069 1.400 . S
C1069 C1063 1.491 . S
C1069 C1068 1.400 . S
C1069 C1070 1.398 . S
C1070 H1058 0.950 . S
C1070 C1069 1.398 . S
C1070 C1071 1.391 1_545 S
C1071 H1059 0.950 . S
C1071 C1067 1.393 . S
C1071 C1070 1.391 1_565 S
H1072 C1080 0.950 . S
H1073 C1085 0.950 . S
H1074 C1082 0.950 . S
H1075 C1084 0.950 . S
H1076 C1086 0.950 . S
H1077 C1088 0.950 . S
H1078 C1090 0.950 . S
H1079 C1091 0.950 . S
C1080 H1072 0.950 . S
C1080 C1081 1.386 . S
C1080 C1082 1.391 . S
C1081 C1080 1.386 . S
C1081 C1085 1.393 . S
C1082 H1074 0.950 . S
C1082 C1080 1.391 . S
C1082 C1083 1.400 . S
C1083 C1082 1.400 . S
C1083 C1084 1.398 . S
C1083 C1089 1.491 . S
C1084 H1075 0.950 . S
C1084 C1083 1.398 . S
C1084 C1085 1.391 . S
C1085 H1073 0.950 . S
C1085 C1081 1.393 . S
C1085 C1084 1.391 . S
C1086 H1076 0.950 . S
C1086 C1087 1.386 . S
C1086 C1088 1.391 . S
C1087 C1086 1.386 . S
C1087 C1091 1.393 . S
C1088 H1077 0.950 . S
C1088 C1086 1.391 . S
C1088 C1089 1.400 . S
C1089 C1083 1.491 . S
C1089 C1088 1.400 . S
C1089 C1090 1.398 . S
C1090 H1078 0.950 . S
C1090 C1089 1.398 . S
C1090 C1091 1.391 . S
C1091 H1079 0.950 . S
C1091 C1087 1.393 . S
C1091 C1090 1.391 . S
H1092 C1100 0.950 . S
H1093 C1105 0.950 . S
H1094 C1102 0.950 . S
H1095 C1104 0.950 . S
H1096 C1106 0.950 . S
H1097 C1108 0.950 . S
H1098 C1110 0.950 1_565 S
H1099 C1111 0.950 . S
C1100 H1092 0.950 . S
C1100 C1101 1.386 . S
C1100 C1102 1.391 . S
C1101 C1100 1.386 . S
C1101 C1105 1.393 1_565 S
C1102 H1094 0.950 . S
C1102 C1100 1.391 . S
C1102 C1103 1.400 1_565 S
C1103 C1102 1.400 1_545 S
C1103 C1104 1.398 . S
C1103 C1109 1.491 . S
C1104 H1095 0.950 . S
C1104 C1103 1.398 . S
C1104 C1105 1.391 . S
C1105 H1093 0.950 . S
C1105 C1101 1.393 1_545 S
C1105 C1104 1.391 . S
C1106 H1096 0.950 . S
C1106 C1107 1.386 . S
C1106 C1108 1.391 . S
C1107 C1106 1.386 . S
C1107 C1111 1.393 . S
C1108 H1097 0.950 . S
C1108 C1106 1.391 . S
C1108 C1109 1.400 . S
C1109 C1103 1.491 . S
C1109 C1108 1.400 . S
C1109 C1110 1.398 . S
C1110 H1098 0.950 1_545 S
C1110 C1109 1.398 . S
C1110 C1111 1.391 . S
C1111 H1099 0.950 . S
C1111 C1107 1.393 . S
C1111 C1110 1.391 . S
H1112 C1120 0.950 . S
H1113 C1125 0.950 . S
H1114 C1122 0.950 . S
H1115 C1124 0.950 . S
H1116 C1126 0.950 . S
H1117 C1128 0.950 . S
H1118 C1130 0.950 . S
H1119 C1131 0.950 . S
C1120 H1112 0.950 . S
C1120 C1121 1.386 . S
C1120 C1122 1.391 . S
C1121 C1120 1.386 . S
C1121 C1125 1.393 . S
C1122 H1114 0.950 . S
C1122 C1120 1.391 . S
C1122 C1123 1.400 . S
C1123 C1122 1.400 . S
C1123 C1124 1.398 . S
C1123 C1129 1.491 . S
C1124 H1115 0.950 . S
C1124 C1123 1.398 . S
C1124 C1125 1.391 . S
C1125 H1113 0.950 . S
C1125 C1121 1.393 . S
C1125 C1124 1.391 . S
C1126 H1116 0.950 . S
C1126 C1127 1.386 . S
C1126 C1128 1.391 . S
C1127 C1126 1.386 . S
C1127 C1131 1.393 . S
C1128 H1117 0.950 . S
C1128 C1126 1.391 . S
C1128 C1129 1.400 . S
C1129 C1123 1.491 . S
C1129 C1128 1.400 . S
C1129 C1130 1.398 . S
C1130 H1118 0.950 . S
C1130 C1129 1.398 . S
C1130 C1131 1.391 . S
C1131 H1119 0.950 . S
C1131 C1127 1.393 . S
C1131 C1130 1.391 . S
H1132 C1140 0.950 . S
H1133 C1145 0.950 . S
H1134 C1142 0.950 . S
H1135 C1144 0.950 . S
H1136 C1146 0.950 . S
H1137 C1148 0.950 1_545 S
H1138 C1150 0.950 . S
H1139 C1151 0.950 . S
C1140 H1132 0.950 . S
C1140 C1141 1.386 1_565 S
C1140 C1142 1.391 . S
C1141 C1140 1.386 1_545 S
C1141 C1145 1.393 . S
C1142 H1134 0.950 . S
C1142 C1140 1.391 . S
C1142 C1143 1.400 . S
C1143 C1142 1.400 . S
C1143 C1144 1.398 1_565 S
C1143 C1149 1.491 . S
C1144 H1135 0.950 . S
C1144 C1143 1.398 1_545 S
C1144 C1145 1.391 . S
C1145 H1133 0.950 . S
C1145 C1141 1.393 . S
C1145 C1144 1.391 . S
C1146 H1136 0.950 . S
C1146 C1147 1.386 . S
C1146 C1148 1.391 . S
C1147 C1146 1.386 . S
C1147 C1151 1.393 . S
C1148 H1137 0.950 1_565 S
C1148 C1146 1.391 . S
C1148 C1149 1.400 . S
C1149 C1143 1.491 . S
C1149 C1148 1.400 . S
C1149 C1150 1.398 . S
C1150 H1138 0.950 . S
C1150 C1149 1.398 . S
C1150 C1151 1.391 . S
C1151 H1139 0.950 . S
C1151 C1147 1.393 . S
C1151 C1150 1.391 . S
H1152 C1160 0.950 . S
H1153 C1165 0.950 . S
H1154 C1162 0.950 . S
H1155 C1164 0.950 . S
H1156 C1166 0.950 . S
H1157 C1168 0.950 . S
H1158 C1170 0.950 . S
H1159 C1171 0.950 . S
C1160 H1152 0.950 . S
C1160 C1161 1.386 . S
C1160 C1162 1.391 . S
C1161 C1160 1.386 . S
C1161 C1165 1.393 . S
C1162 H1154 0.950 . S
C1162 C1160 1.391 . S
C1162 C1163 1.400 . S
C1163 C1162 1.400 . S
C1163 C1164 1.398 . S
C1163 C1169 1.491 . S
C1164 H1155 0.950 . S
C1164 C1163 1.398 . S
C1164 C1165 1.391 . S
C1165 H1153 0.950 . S
C1165 C1161 1.393 . S
C1165 C1164 1.391 . S
C1166 H1156 0.950 . S
C1166 C1167 1.386 . S
C1166 C1168 1.391 . S
C1167 C1166 1.386 . S
C1167 C1171 1.393 . S
C1168 H1157 0.950 . S
C1168 C1166 1.391 . S
C1168 C1169 1.400 . S
C1169 C1163 1.491 . S
C1169 C1168 1.400 . S
C1169 C1170 1.398 . S
C1170 H1158 0.950 . S
C1170 C1169 1.398 . S
C1170 C1171 1.391 . S
C1171 H1159 0.950 . S
C1171 C1167 1.393 . S
C1171 C1170 1.391 . S
H1172 C1180 0.950 . S
H1173 C1185 0.950 . S
H1174 C1182 0.950 . S
H1175 C1184 0.950 . S
H1176 C1186 0.950 . S
H1177 C1188 0.950 . S
H1178 C1190 0.950 . S
H1179 C1191 0.950 . S
C1180 H1172 0.950 . S
C1180 C1181 1.386 . S
C1180 C1182 1.391 . S
C1181 C1180 1.386 . S
C1181 C1185 1.393 . S
C1182 H1174 0.950 . S
C1182 C1180 1.391 . S
C1182 C1183 1.400 . S
C1183 C1182 1.400 . S
C1183 C1184 1.398 . S
C1183 C1189 1.491 . S
C1184 H1175 0.950 . S
C1184 C1183 1.398 . S
C1184 C1185 1.391 . S
C1185 H1173 0.950 . S
C1185 C1181 1.393 . S
C1185 C1184 1.391 . S
C1186 H1176 0.950 . S
C1186 C1187 1.386 . S
C1186 C1188 1.391 . S
C1187 C1186 1.386 . S
C1187 C1191 1.393 . S
C1188 H1177 0.950 . S
C1188 C1186 1.391 . S
C1188 C1189 1.400 . S
C1189 C1183 1.491 . S
C1189 C1188 1.400 . S
C1189 C1190 1.398 . S
C1190 H1178 0.950 . S
C1190 C1189 1.398 . S
C1190 C1191 1.391 . S
C1191 H1179 0.950 . S
C1191 C1187 1.393 . S
C1191 C1190 1.391 . S
H1192 C1200 0.950 . S
H1193 C1205 0.950 . S
H1194 C1202 0.950 . S
H1195 C1204 0.950 . S
H1196 C1206 0.950 . S
H1197 C1208 0.950 . S
H1198 C1210 0.950 . S
H1199 C1211 0.950 . S
C1200 H1192 0.950 . S
C1200 C1201 1.386 . S
C1200 C1202 1.391 . S
C1201 C1200 1.386 . S
C1201 C1205 1.393 . S
C1202 H1194 0.950 . S
C1202 C1200 1.391 . S
C1202 C1203 1.400 . S
C1203 C1202 1.400 . S
C1203 C1204 1.398 . S
C1203 C1209 1.491 . S
C1204 H1195 0.950 . S
C1204 C1203 1.398 . S
C1204 C1205 1.391 . S
C1205 H1193 0.950 . S
C1205 C1201 1.393 . S
C1205 C1204 1.391 . S
C1206 H1196 0.950 . S
C1206 C1207 1.386 . S
C1206 C1208 1.391 . S
C1207 C1206 1.386 . S
C1207 C1211 1.393 . S
C1208 H1197 0.950 . S
C1208 C1206 1.391 . S
C1208 C1209 1.400 . S
C1209 C1203 1.491 . S
C1209 C1208 1.400 . S
C1209 C1210 1.398 . S
C1210 H1198 0.950 . S
C1210 C1209 1.398 . S
C1210 C1211 1.391 . S
C1211 H1199 0.950 . S
C1211 C1207 1.393 . S
C1211 C1210 1.391 . S
H1212 C1220 0.950 . S
H1213 C1225 0.950 . S
H1214 C1222 0.950 . S
H1215 C1224 0.950 . S
H1216 C1226 0.950 . S
H1217 C1228 0.950 . S
H1218 C1230 0.950 . S
H1219 C1231 0.950 . S
C1220 H1212 0.950 . S
C1220 C1221 1.386 . S
C1220 C1222 1.391 . S
C1221 C1220 1.386 . S
C1221 C1225 1.393 . S
C1222 H1214 0.950 . S
C1222 C1220 1.391 . S
C1222 C1223 1.400 . S
C1223 C1222 1.400 . S
C1223 C1224 1.398 . S
C1223 C1229 1.491 . S
C1224 H1215 0.950 . S
C1224 C1223 1.398 . S
C1224 C1225 1.391 . S
C1225 H1213 0.950 . S
C1225 C1221 1.393 . S
C1225 C1224 1.391 . S
C1226 H1216 0.950 . S
C1226 C1227 1.386 . S
C1226 C1228 1.391 . S
C1227 C1226 1.386 . S
C1227 C1231 1.393 . S
C1228 H1217 0.950 . S
C1228 C1226 1.391 . S
C1228 C1229 1.400 . S
C1229 C1223 1.491 . S
C1229 C1228 1.400 . S
C1229 C1230 1.398 . S
C1230 H1218 0.950 . S
C1230 C1229 1.398 . S
C1230 C1231 1.391 . S
C1231 H1219 0.950 . S
C1231 C1227 1.393 . S
C1231 C1230 1.391 . S
H1232 C1240 0.950 . S
H1233 C1245 0.950 . S
H1234 C1242 0.950 . S
H1235 C1244 0.950 . S
H1236 C1246 0.950 . S
H1237 C1248 0.950 . S
H1238 C1250 0.950 . S
H1239 C1251 0.950 . S
C1240 H1232 0.950 . S
C1240 C1241 1.386 1_655 S
C1240 C1242 1.391 . S
C1241 C1240 1.386 1_455 S
C1241 C1245 1.393 . S
C1242 H1234 0.950 . S
C1242 C1240 1.391 . S
C1242 C1243 1.400 1_655 S
C1243 C1242 1.400 1_455 S
C1243 C1244 1.398 . S
C1243 C1249 1.491 1_455 S
C1244 H1235 0.950 . S
C1244 C1243 1.398 . S
C1244 C1245 1.391 . S
C1245 H1233 0.950 . S
C1245 C1241 1.393 . S
C1245 C1244 1.391 . S
C1246 H1236 0.950 . S
C1246 C1247 1.386 1_455 S
C1246 C1248 1.391 . S
C1247 C1246 1.386 1_655 S
C1247 C1251 1.393 . S
C1248 H1237 0.950 . S
C1248 C1246 1.391 . S
C1248 C1249 1.400 1_455 S
C1249 C1243 1.491 1_655 S
C1249 C1248 1.400 1_655 S
C1249 C1250 1.398 . S
C1250 H1238 0.950 . S
C1250 C1249 1.398 . S
C1250 C1251 1.391 . S
C1251 H1239 0.950 . S
C1251 C1247 1.393 . S
C1251 C1250 1.391 . S
H1252 C1260 0.950 . S
H1253 C1265 0.950 . S
H1254 C1262 0.950 . S
H1255 C1264 0.950 . S
H1256 C1266 0.950 . S
H1257 C1268 0.950 . S
H1258 C1270 0.950 . S
H1259 C1271 0.950 . S
C1260 H1252 0.950 . S
C1260 C1261 1.386 . S
C1260 C1262 1.391 . S
C1261 C1260 1.386 . S
C1261 C1265 1.393 1_655 S
C1262 H1254 0.950 . S
C1262 C1260 1.391 . S
C1262 C1263 1.400 . S
C1263 C1262 1.400 . S
C1263 C1264 1.398 1_655 S
C1263 C1269 1.491 1_655 S
C1264 H1255 0.950 . S
C1264 C1263 1.398 1_455 S
C1264 C1265 1.391 . S
C1265 H1253 0.950 . S
C1265 C1261 1.393 1_455 S
C1265 C1264 1.391 . S
C1266 H1256 0.950 . S
C1266 C1267 1.386 . S
C1266 C1268 1.391 . S
C1267 C1266 1.386 . S
C1267 C1271 1.393 1_455 S
C1268 H1257 0.950 . S
C1268 C1266 1.391 . S
C1268 C1269 1.400 . S
C1269 C1263 1.491 1_455 S
C1269 C1268 1.400 . S
C1269 C1270 1.398 1_455 S
C1270 H1258 0.950 . S
C1270 C1269 1.398 1_655 S
C1270 C1271 1.391 . S
C1271 H1259 0.950 . S
C1271 C1267 1.393 1_655 S
C1271 C1270 1.391 . S
H1272 C1280 0.950 . S
H1273 C1285 0.950 . S
H1274 C1282 0.950 . S
H1275 C1284 0.950 . S
H1276 C1286 0.950 . S
H1277 C1288 0.950 . S
H1278 C1290 0.950 . S
H1279 C1291 0.950 . S
C1280 H1272 0.950 . S
C1280 C1281 1.386 1_455 S
C1280 C1282 1.391 . S
C1281 C1280 1.386 1_655 S
C1281 C1285 1.393 . S
C1282 H1274 0.950 . S
C1282 C1280 1.391 . S
C1282 C1283 1.400 1_455 S
C1283 C1282 1.400 1_655 S
C1283 C1284 1.398 . S
C1283 C1289 1.491 1_655 S
C1284 H1275 0.950 . S
C1284 C1283 1.398 . S
C1284 C1285 1.391 . S
C1285 H1273 0.950 . S
C1285 C1281 1.393 . S
C1285 C1284 1.391 . S
C1286 H1276 0.950 . S
C1286 C1287 1.386 1_655 S
C1286 C1288 1.391 . S
C1287 C1286 1.386 1_455 S
C1287 C1291 1.393 . S
C1288 H1277 0.950 . S
C1288 C1286 1.391 . S
C1288 C1289 1.400 1_655 S
C1289 C1283 1.491 1_455 S
C1289 C1288 1.400 1_455 S
C1289 C1290 1.398 . S
C1290 H1278 0.950 . S
C1290 C1289 1.398 . S
C1290 C1291 1.391 . S
C1291 H1279 0.950 . S
C1291 C1287 1.393 . S
C1291 C1290 1.391 . S
H1292 C1300 0.950 . S
H1293 C1305 0.950 . S
H1294 C1302 0.950 . S
H1295 C1304 0.950 . S
H1296 C1306 0.950 . S
H1297 C1308 0.950 . S
H1298 C1310 0.950 . S
H1299 C1311 0.950 . S
C1300 H1292 0.950 . S
C1300 C1301 1.386 . S
C1300 C1302 1.391 . S
C1301 C1300 1.386 . S
C1301 C1305 1.393 1_655 S
C1302 H1294 0.950 . S
C1302 C1300 1.391 . S
C1302 C1303 1.400 . S
C1303 C1302 1.400 . S
C1303 C1304 1.398 1_655 S
C1303 C1309 1.491 1_655 S
C1304 H1295 0.950 . S
C1304 C1303 1.398 1_455 S
C1304 C1305 1.391 . S
C1305 H1293 0.950 . S
C1305 C1301 1.393 1_455 S
C1305 C1304 1.391 . S
C1306 H1296 0.950 . S
C1306 C1307 1.386 . S
C1306 C1308 1.391 . S
C1307 C1306 1.386 . S
C1307 C1311 1.393 1_455 S
C1308 H1297 0.950 . S
C1308 C1306 1.391 . S
C1308 C1309 1.400 . S
C1309 C1303 1.491 1_455 S
C1309 C1308 1.400 . S
C1309 C1310 1.398 1_455 S
C1310 H1298 0.950 . S
C1310 C1309 1.398 1_655 S
C1310 C1311 1.391 . S
C1311 H1299 0.950 . S
C1311 C1307 1.393 1_655 S
C1311 C1310 1.391 . S
C361 C6 0.867 . S
C367 C93 0.867 . S
C381 C28 0.894 . S
C387 C119 0.894 . S
C401 C50 0.897 . S
C407 C137 0.897 . S
C421 C73 0.860 . S
C427 C159 0.860 . S
C441 C182 0.849 . S
C447 C269 0.849 . S
C461 C204 0.842 . S
C467 C295 0.842 . S
C481 C226 0.857 . S
C487 C313 0.857 . S
C501 C249 0.865 . S
C507 C335 0.865 . S
C521 C7 1.797 . S
C527 C51 1.797 . S
C541 C29 1.820 . S
C547 C72 1.822 . S
C561 C97 1.823 . S
C567 C141 1.818 . S
C581 C115 1.819 . S
C587 C163 1.809 . S
C601 C227 1.823 . S
C607 C183 1.819 . S
C621 C248 1.822 . S
C627 C205 1.816 . S
C641 C273 1.822 . S
C647 C317 1.815 . S
C661 C291 1.797 . S
C667 C339 1.805 . S
C681 C4 1.909 . S
C687 C250 1.903 . S
C701 C224 1.903 . S
C707 C26 1.907 . S
C721 C48 1.908 . S
C727 C202 1.903 . S
C741 C74 1.906 . S
C747 C180 1.904 . S
C761 C92 1.909 . S
C767 C334 1.903 . S
C781 C118 1.907 . S
C787 C312 1.903 . S
C801 C294 1.907 . S
C807 C136 1.906 . S
C821 C158 1.908 . S
C827 C268 1.904 . S
C841 C9 1.235 . S
C847 C336 1.266 . S
C861 C31 1.248 . S
C867 C314 1.279 . S
C881 C53 1.245 . S
C887 C293 1.282 . S
C901 C71 1.230 . S
C907 C270 1.265 . S
C921 C251 1.283 . S
C927 C95 1.227 . S
C941 C225 1.272 . S
C947 C116 1.246 . S
C961 C203 1.284 . S
C967 C139 1.233 . S
C981 C161 1.213 . S
C987 C181 1.271 . S
C1001 C160 1.270 . S
C1007 C185 1.214 . S
C1021 C138 1.279 . S
C1027 C207 1.248 . S
C1041 C117 1.272 . S
C1047 C229 1.246 . S
C1061 C247 1.216 . S
C1067 C94 1.278 . S
C1081 C271 1.216 . S
C1087 C75 1.277 . S
C1101 C49 1.284 . S
C1107 C292 1.233 . S
C1121 C315 1.234 . S
C1127 C27 1.266 . S
C1141 C5 1.266 . S
C1147 C337 1.221 . S
C1161 C8 1.439 . S
C1167 C30 1.420 . S
C1181 C70 1.443 . S
C1187 C52 1.433 . S
C1201 C96 1.436 . S
C1207 C114 1.421 . S
C1221 C162 1.444 . S
C1227 C140 1.421 . S
C1241 C206 1.421 . S
C1247 C184 1.445 . S
C1261 C228 1.445 . S
C1267 C246 1.422 . S
C1281 C290 1.445 . S
C1287 C272 1.422 . S
C1301 C338 1.426 . S
C1307 C316 1.446 . S
