# Generated by pormake.
# Topology wkd, (5)-cn, num edge types: 1
# Building blocks:
#     Node 0, Type 0, BuildingBlock: XOMCOT_clean_sbu_1, # of connection points: 5
#     Node 1, Type 0, BuildingBlock: XOMCOT_clean_sbu_1, # of connection points: 5
#     Node 2, Type 0, BuildingBlock: XOMCOT_clean_sbu_1, # of connection points: 5
#     Node 3, Type 0, BuildingBlock: XOMCOT_clean_sbu_1, # of connection points: 5
#     Node 4, Type 0, BuildingBlock: XOMCOT_clean_sbu_1, # of connection points: 5
#     Node 5, Type 0, BuildingBlock: XOMCOT_clean_sbu_1, # of connection points: 5
#     Node 6, Type 0, BuildingBlock: XOMCOT_clean_sbu_1, # of connection points: 5
#     Node 7, Type 0, BuildingBlock: XOMCOT_clean_sbu_1, # of connection points: 5
#     Node 8, Type 0, BuildingBlock: XOMCOT_clean_sbu_1, # of connection points: 5
#     Node 9, Type 0, BuildingBlock: XOMCOT_clean_sbu_1, # of connection points: 5
#     Node 10, Type 0, BuildingBlock: XOMCOT_clean_sbu_1, # of connection points: 5
#     Node 11, Type 0, BuildingBlock: XOMCOT_clean_sbu_1, # of connection points: 5
#     Edge 12, Type (0, 0), BuildingBlock: CIFDUS_clean_linker_0, # of connection points: 2
#     Edge 13, Type (0, 0), BuildingBlock: CIFDUS_clean_linker_0, # of connection points: 2
#     Edge 14, Type (0, 0), BuildingBlock: CIFDUS_clean_linker_0, # of connection points: 2
#     Edge 15, Type (0, 0), BuildingBlock: CIFDUS_clean_linker_0, # of connection points: 2
#     Edge 16, Type (0, 0), BuildingBlock: CIFDUS_clean_linker_0, # of connection points: 2
#     Edge 17, Type (0, 0), BuildingBlock: CIFDUS_clean_linker_0, # of connection points: 2
#     Edge 18, Type (0, 0), BuildingBlock: CIFDUS_clean_linker_0, # of connection points: 2
#     Edge 19, Type (0, 0), BuildingBlock: CIFDUS_clean_linker_0, # of connection points: 2
#     Edge 20, Type (0, 0), BuildingBlock: CIFDUS_clean_linker_0, # of connection points: 2
#     Edge 21, Type (0, 0), BuildingBlock: CIFDUS_clean_linker_0, # of connection points: 2
#     Edge 22, Type (0, 0), BuildingBlock: CIFDUS_clean_linker_0, # of connection points: 2
#     Edge 23, Type (0, 0), BuildingBlock: CIFDUS_clean_linker_0, # of connection points: 2
#     Edge 24, Type (0, 0), BuildingBlock: CIFDUS_clean_linker_0, # of connection points: 2
#     Edge 25, Type (0, 0), BuildingBlock: CIFDUS_clean_linker_0, # of connection points: 2
#     Edge 26, Type (0, 0), BuildingBlock: CIFDUS_clean_linker_0, # of connection points: 2
#     Edge 27, Type (0, 0), BuildingBlock: CIFDUS_clean_linker_0, # of connection points: 2
#     Edge 28, Type (0, 0), BuildingBlock: CIFDUS_clean_linker_0, # of connection points: 2
#     Edge 29, Type (0, 0), BuildingBlock: CIFDUS_clean_linker_0, # of connection points: 2
#     Edge 30, Type (0, 0), BuildingBlock: CIFDUS_clean_linker_0, # of connection points: 2
#     Edge 31, Type (0, 0), BuildingBlock: CIFDUS_clean_linker_0, # of connection points: 2
#     Edge 32, Type (0, 0), BuildingBlock: CIFDUS_clean_linker_0, # of connection points: 2
#     Edge 33, Type (0, 0), BuildingBlock: CIFDUS_clean_linker_0, # of connection points: 2
#     Edge 34, Type (0, 0), BuildingBlock: CIFDUS_clean_linker_0, # of connection points: 2
#     Edge 35, Type (0, 0), BuildingBlock: CIFDUS_clean_linker_0, # of connection points: 2
#     Edge 36, Type (0, 0), BuildingBlock: CIFDUS_clean_linker_0, # of connection points: 2
#     Edge 37, Type (0, 0), BuildingBlock: CIFDUS_clean_linker_0, # of connection points: 2
#     Edge 38, Type (0, 0), BuildingBlock: CIFDUS_clean_linker_0, # of connection points: 2
#     Edge 39, Type (0, 0), BuildingBlock: CIFDUS_clean_linker_0, # of connection points: 2
#     Edge 40, Type (0, 0), BuildingBlock: CIFDUS_clean_linker_0, # of connection points: 2
#     Edge 41, Type (0, 0), BuildingBlock: CIFDUS_clean_linker_0, # of connection points: 2
# Relax obj value: 0.115
# Max RMSD: 0.171
# Mean RMSD: 0.171
data_MOF--net-wkd--node1-XOMCOT_clean_sbu_1--edge1-CIFDUS_clean_linker_0
_symmetry_space_group_name_H-M    P1
_symmetry_Int_Tables_number       1
_symmetry_cell_setting            triclinic
loop_
_symmetry_equiv_pos_as_xyz
'x, y, z'
_cell_length_a     22.555716
_cell_length_b     22.577721
_cell_length_c     96.851669
_cell_angle_alpha  89.825563
_cell_angle_beta   90.023416
_cell_angle_gamma 120.40465
loop_
_atom_site_label
_atom_site_type_symbol
_atom_site_fract_x
_atom_site_fract_y
_atom_site_fract_z
_atom_type_partial_charge
C0 C 0.93732 0.2002 0.08802 0.0
C1 C 0.93256 0.1422 0.09358 0.0
N2 N 0.95634 0.11499 0.08431 0.0
N3 N 0.96376 0.21063 0.07514 0.0
C4 C 0.97514 0.15757 0.07319 0.0
H5 H 0.92405 0.23341 0.09346 0.0
Co6 Co 0.98427 0.28827 0.0641 0.0
C7 C 0.93358 0.23374 0.03549 0.0
O8 O 0.97993 0.29327 0.03031 0.0
N9 N 1.00482 0.36791 0.05378 0.0
C10 C 0.0529 0.47802 0.04758 0.0
C11 C 0.06308 0.43003 0.05426 0.0
C12 C 0.95961 0.38027 0.04698 0.0
N13 N 0.98787 0.44643 0.04297 0.0
O14 O 0.90435 0.28959 0.07116 0.0
H15 H 0.10918 0.44157 0.05978 0.0
H16 H 0.90601 0.34199 0.04548 0.0
O17 O 0.92992 0.22519 0.04865 0.0
C18 C 0.92504 0.33438 0.08079 0.0
O19 O 0.98945 0.36319 0.08476 0.0
N20 N 0.06741 0.29427 0.05825 0.0
C21 C 0.20334 0.34891 0.04959 0.0
C22 C 0.14902 0.29744 0.04189 0.0
C23 C 0.08123 0.26958 0.04656 0.0
C24 C 0.11984 0.33649 0.06679 0.0
C25 C 0.18821 0.36528 0.06259 0.0
H26 H 0.04083 0.22998 0.04049 0.0
H27 H 0.10835 0.35353 0.07631 0.0
H28 H 0.99776 0.15089 0.06391 0.0
H29 H 0.91587 0.12349 0.10398 0.0
H30 H 0.08998 0.53221 0.04643 0.0
H31 H 0.1586 0.28053 0.03212 0.0
H32 H 0.22821 0.40399 0.06904 0.0
C33 C 0.76371 0.96632 0.25382 0.0
C34 C 0.81625 0.96408 0.26045 0.0
N35 N 0.86078 0.96621 0.25092 0.0
N36 N 0.77391 0.96931 0.24006 0.0
C37 C 0.83393 0.96961 0.23859 0.0
H38 H 0.72201 0.96807 0.25887 0.0
Co39 Co 0.71745 0.97935 0.22708 0.0
C40 C 0.71614 0.89656 0.20224 0.0
O41 O 0.70258 0.93316 0.19361 0.0
N42 N 0.6597 0.99125 0.21462 0.0
C43 C 0.60326 0.03924 0.20545 0.0
C44 C 0.66038 0.05099 0.21273 0.0
C45 C 0.60045 0.94358 0.20853 0.0
N46 N 0.56576 0.97178 0.2028 0.0
O47 O 0.63533 0.90781 0.2362 0.0
H48 H 0.69724 0.09976 0.21712 0.0
H49 H 0.58127 0.88889 0.20892 0.0
O50 O 0.72256 0.91049 0.21517 0.0
C51 C 0.60962 0.93566 0.24372 0.0
O52 O 0.64263 1.00293 0.24465 0.0
N53 N 0.79605 0.0546 0.21898 0.0
C54 C 0.87378 0.18086 0.20572 0.0
C55 C 0.86604 0.12066 0.19982 0.0
C56 C 0.82801 0.05792 0.20677 0.0
C57 C 0.81218 0.11359 0.22578 0.0
C58 C 0.85033 0.17738 0.21929 0.0
H59 H 0.8226 1.01281 0.20194 0.0
H60 H 0.78824 0.11051 0.23564 0.0
H61 H 0.858 0.97353 0.2287 0.0
H62 H 0.82263 0.96413 0.27153 0.0
H63 H 0.58934 0.07706 0.20262 0.0
H64 H 0.88635 0.12154 0.18964 0.0
H65 H 0.85561 0.22243 0.22438 0.0
C66 C 0.76685 0.80292 0.41607 0.0
C67 C 0.81106 0.85402 0.42489 0.0
N68 N 0.87224 0.85698 0.4247 0.0
N69 N 0.79976 0.77386 0.41002 0.0
C70 C 0.86287 0.80575 0.41607 0.0
H71 H 0.71497 0.79045 0.41375 0.0
Co72 Co 0.76706 0.71305 0.39458 0.0
C73 C 0.91572 0.80734 0.38583 0.0
O74 O 0.91719 0.86354 0.38992 0.0
N75 N 0.73667 0.65438 0.37891 0.0
C76 C 0.73603 0.62913 0.35673 0.0
C77 C 0.769 0.6772 0.36665 0.0
C78 C 0.68329 0.59053 0.37601 0.0
N79 N 0.68211 0.57371 0.36249 0.0
O80 O 0.76932 0.64229 0.4058 0.0
H81 H 0.81359 0.72689 0.36473 0.0
H82 H 0.64594 0.55725 0.38356 0.0
O83 O 0.86202 0.7486 0.38785 0.0
C84 C 0.70814 0.60283 0.41036 0.0
O85 O 0.66013 0.61651 0.40683 0.0
N86 N 0.75203 0.77605 0.38431 0.0
C87 C 0.68744 0.83715 0.37031 0.0
C88 C 0.75619 0.85699 0.36746 0.0
C89 C 0.78738 0.82506 0.37443 0.0
C90 C 0.68506 0.75564 0.38689 0.0
C91 C 0.65197 0.78497 0.38009 0.0
H92 H 0.83802 0.8378 0.37119 0.0
H93 H 0.65617 0.71443 0.39413 0.0
H94 H 0.90317 0.79517 0.41344 0.0
H95 H 0.79963 0.88824 0.43058 0.0
H96 H 0.75068 0.63624 0.34597 0.0
H97 H 0.7854 0.89608 0.35979 0.0
H98 H 0.59811 0.76525 0.38229 0.0
C99 C 0.03923 0.76318 0.58998 0.0
C100 C 0.02976 0.81065 0.59708 0.0
N101 N 0.05435 0.86764 0.58929 0.0
N102 N 0.06821 0.78896 0.57753 0.0
C103 C 0.07907 0.854 0.57778 0.0
H104 H 0.02765 0.71369 0.59396 0.0
Co105 Co 0.10168 0.74726 0.56486 0.0
C106 C 0.0867 0.84223 0.54577 0.0
O107 O 1.0233 0.81525 0.55036 0.0
N108 N 0.13825 0.70862 0.55295 0.0
C109 C 0.20725 0.70174 0.53749 0.0
C110 C 0.19431 0.74554 0.54495 0.0
C111 C 0.1186 0.64223 0.55036 0.0
N112 N 0.15988 0.63708 0.54094 0.0
O113 O 0.18978 0.79763 0.57361 0.0
H114 H 0.22401 0.80101 0.54455 0.0
H115 H 0.0744 0.59878 0.55507 0.0
O116 O 0.12616 0.82261 0.55106 0.0
C117 C 0.21884 0.77739 0.58231 0.0
O118 O 0.28102 0.82259 0.5865 0.0
N119 N 1.01326 0.69183 0.55654 0.0
C120 C 0.88508 0.60083 0.54481 0.0
C121 C 0.94179 0.64252 0.53642 0.0
C122 C 1.00566 0.68636 0.54247 0.0
C123 C 0.95877 0.65 0.56479 0.0
C124 C 0.8943 0.60478 0.55917 0.0
H125 H 0.04938 0.71558 0.53577 0.0
H126 H 0.96513 0.6493 0.57577 0.0
H127 H 0.10799 0.89278 0.5701 0.0
H128 H 1.0067 0.80382 0.60719 0.0
H129 H 0.24807 0.71604 0.53002 0.0
H130 H 0.93746 0.63945 0.52528 0.0
H131 H 0.85213 0.57243 0.56602 0.0
C132 C 0.23825 0.98033 0.75058 0.0
C133 C 0.18959 0.98153 0.759 0.0
N134 N 0.17882 0.03204 0.75463 0.0
N135 N 0.25855 0.02994 0.74089 0.0
C136 C 0.2218 0.06087 0.74373 0.0
H137 H 0.25565 0.9437 0.75115 0.0
Co138 Co 0.31768 0.04421 0.72585 0.0
C139 C 0.30985 0.15738 0.71087 0.0
O140 O 0.37681 0.19818 0.71016 0.0
N141 N 0.37538 0.0577 0.71067 0.0
C142 C 0.4097 0.065 0.6889 0.0
C143 C 0.35763 0.05746 0.69734 0.0
C144 C 0.43895 0.06535 0.71003 0.0
N145 N 0.4609 0.06986 0.69684 0.0
O146 O 0.39222 0.12231 0.73516 0.0
H147 H 0.30949 0.05178 0.69387 0.0
H148 H 0.46777 0.0657 0.71897 0.0
O149 O 0.28476 0.099 0.7168 0.0
C150 C 0.41789 0.09746 0.74356 0.0
O151 O 0.3903 0.03051 0.74419 0.0
N152 N 0.24878 0.96375 0.71762 0.0
C153 C 0.16472 0.83533 0.70585 0.0
C154 C 0.15436 0.8902 0.7028 0.0
C155 C 0.1967 0.95437 0.70899 0.0
C156 C 0.2588 0.91066 0.7207 0.0
C157 C 0.21713 0.84597 0.71502 0.0
H158 H 0.18864 0.99636 0.7065 0.0
H159 H 0.30056 0.91919 0.72746 0.0
H160 H 0.22537 0.10305 0.73776 0.0
H161 H 0.16182 0.94561 0.76726 0.0
H162 H 0.41012 0.06743 0.67773 0.0
H163 H 0.1141 0.88348 0.69577 0.0
H164 H 0.22685 0.80484 0.71754 0.0
C165 C 0.27786 0.23612 0.91504 0.0
C166 C 0.23279 0.17487 0.92138 0.0
N167 N 0.16818 0.15996 0.91861 0.0
N168 N 0.24215 0.2596 0.90807 0.0
C169 C 0.17509 0.21219 0.91053 0.0
H170 H 0.33334 0.26107 0.91514 0.0
Co171 Co 0.28446 0.33879 0.89689 0.0
C172 C 0.18073 0.31604 0.87548 0.0
O173 O 0.23107 0.34111 0.86642 0.0
N174 N 0.32683 0.4201 0.88587 0.0
C175 C 0.34586 0.52195 0.8785 0.0
C176 C 0.30147 0.46306 0.8855 0.0
C177 C 0.38718 0.45456 0.87884 0.0
N178 N 0.39962 0.5165 0.87432 0.0
O179 O 0.27439 0.39182 0.91157 0.0
H180 H 0.25428 0.45305 0.89045 0.0
H181 H 0.42337 0.43706 0.87759 0.0
O182 O 0.19408 0.31225 0.88825 0.0
C183 C 0.33489 0.42704 0.91672 0.0
O184 O 0.38372 0.41744 0.91186 0.0
N185 N 0.30483 0.28977 0.88386 0.0
C186 C 0.35836 0.22119 0.8689 0.0
C187 C 0.28791 0.19987 0.86822 0.0
C188 C 0.26179 0.2341 0.87602 0.0
C189 C 0.37217 0.30837 0.88514 0.0
C190 C 0.40015 0.27593 0.87765 0.0
H191 H 0.20706 0.21427 0.87607 0.0
H192 H 0.40438 0.34794 0.8924 0.0
H193 H 0.13217 0.2142 0.90607 0.0
H194 H 0.24637 0.14279 0.92733 0.0
H195 H 0.3398 0.56602 0.87681 0.0
H196 H 0.2531 0.15654 0.86191 0.0
H197 H 0.45381 0.29212 0.87918 0.0
C198 C 0.76612 0.04119 0.78667 0.0
C199 C 0.81865 0.04134 0.77949 0.0
N200 N 0.8685 0.05135 0.78846 0.0
N201 N 0.78236 0.05168 0.80018 0.0
C202 C 0.84499 0.05708 0.801 0.0
H203 H 0.71836 0.03236 0.78226 0.0
Co204 Co 0.72379 0.05257 0.81388 0.0
C205 C 0.81842 0.15068 0.83599 0.0
O206 O 0.76778 0.13339 0.84473 0.0
N207 N 0.66171 0.05188 0.8274 0.0
C208 C 0.57258 1.01453 0.8418 0.0
C209 C 0.61583 0.99795 0.8351 0.0
C210 C 0.64456 0.10069 0.82968 0.0
N211 N 0.5901 0.07905 0.83829 0.0
O212 O 0.7148 0.12158 0.80347 0.0
H213 H 0.61132 0.94815 0.83554 0.0
H214 H 0.66982 0.15038 0.82467 0.0
O215 O 0.80584 0.12335 0.82395 0.0
C216 C 0.65749 0.09174 0.79701 0.0
O217 O 0.61864 0.02471 0.79813 0.0
N218 N 0.72594 0.97985 0.82306 0.0
C219 C 0.67981 0.85898 0.83815 0.0
C220 C 0.73338 0.92171 0.84316 0.0
C221 C 0.75608 0.98178 0.83542 0.0
C222 C 0.68097 0.91828 0.8172 0.0
C223 C 0.6569 0.85702 0.8246 0.0
H224 H 0.7939 0.02939 0.83995 0.0
H225 H 0.65792 0.91743 0.80735 0.0
H226 H 0.8725 0.06457 0.81059 0.0
H227 H 0.81892 0.03231 0.76853 0.0
H228 H 0.53064 0.98089 0.84856 0.0
H229 H 0.75401 0.92515 0.85342 0.0
H230 H 0.61575 0.80989 0.82026 0.0
C231 C 0.81067 0.74741 0.96615 0.0
C232 C 0.85791 0.79062 0.9566 0.0
N233 N 0.84698 0.84309 0.95402 0.0
N234 N 0.77008 0.77235 0.96999 0.0
C235 C 0.79139 0.82898 0.96191 0.0
H236 H 0.80834 0.70212 0.97049 0.0
Co237 Co 0.70357 0.734 0.98442 0.0
C238 C 0.78904 0.88632 0.99289 0.0
O239 O 0.84316 0.89877 0.98559 0.0
N240 N 0.63744 0.69486 0.99868 0.0
C241 C 0.59324 0.67144 1.01989 0.0
C242 C 0.64891 0.71544 1.01198 0.0
C243 C 0.57421 0.63765 0.99882 0.0
N244 N 0.54623 0.62232 1.01162 0.0
O245 O 0.63693 0.74001 0.97268 0.0
H246 H 0.69621 0.75796 1.01584 0.0
H247 H 0.55034 0.60578 0.98991 0.0
O248 O 0.73525 0.82616 0.99295 0.0
C249 C 0.6059 0.68322 0.96606 0.0
O250 O 0.62638 0.63865 0.96786 0.0
N251 N 0.76333 0.71734 0.99524 0.0
C252 C 0.83329 0.66321 1.00968 0.0
C253 C 0.85992 0.73467 1.00888 0.0
C254 C 0.82382 0.76073 1.00171 0.0
C255 C 0.73727 0.6482 0.99582 0.0
C256 C 0.77034 0.62015 1.00314 0.0
H257 H 0.8453 0.81532 1.00137 0.0
H258 H 0.6896 0.6142 0.99058 0.0
H259 H 0.76925 0.86167 0.9625 0.0
H260 H 0.89989 0.7856 0.95258 0.0
H261 H 0.58812 0.67503 0.03092 0.0
H262 H 0.90866 0.77048 1.01357 0.0
H263 H 0.74584 0.56481 1.00369 0.0
C264 C 0.06125 0.77495 0.12537 0.0
C265 C 0.05799 0.82018 0.11624 0.0
N266 N 0.99703 0.81716 0.11787 0.0
N267 N 1.00284 0.74339 0.13283 0.0
C268 C 0.96445 0.76926 0.1279 0.0
H269 H 0.10464 0.76762 0.12687 0.0
Co270 Co 0.98415 0.68439 0.14805 0.0
C271 C 0.87369 0.69664 0.1623 0.0
O272 O 0.83632 0.62957 0.16357 0.0
N273 N 0.96641 0.62687 0.16349 0.0
C274 C 0.96295 0.59715 0.18549 0.0
C275 C 0.96667 0.64638 0.17666 0.0
C276 C 0.96326 0.56547 0.1646 0.0
N277 N 0.96147 0.54642 0.17795 0.0
O278 O 0.90393 0.61259 0.13883 0.0
H279 H 0.97262 0.69509 0.17974 0.0
H280 H 0.96653 0.53753 0.15586 0.0
O281 O 0.93268 0.72387 0.1565 0.0
C282 C 0.92532 0.58797 0.12949 0.0
O283 O 0.9919 0.61581 0.12769 0.0
N284 N 0.06636 0.74915 0.15629 0.0
C285 C 0.19502 0.82447 0.16897 0.0
C286 C 0.15024 0.85102 0.16796 0.0
C287 C 0.08554 0.81212 0.16163 0.0
C288 C 0.10999 0.72419 0.1566 0.0
C289 C 0.17323 0.75976 0.16315 0.0
H290 H 0.05114 0.83227 0.16105 0.0
H291 H 0.09422 0.6746 0.15209 0.0
H292 H 0.91409 0.75415 0.13192 0.0
H293 H 0.09908 0.85471 0.10943 0.0
H294 H 0.96288 0.59938 0.19665 0.0
H295 H 0.16471 0.90118 0.17199 0.0
H296 H 0.20358 0.7351 0.16387 0.0
C297 C 0.31151 0.05968 0.28816 0.0
C298 C 0.26052 0.05569 0.27965 0.0
N299 N 0.19996 1.001 0.28352 0.0
N300 N 0.28356 1.00783 0.29739 0.0
C301 C 0.21587 0.97258 0.29419 0.0
H302 H 0.36507 0.09962 0.28801 0.0
Co303 Co 0.32766 0.99468 0.31263 0.0
C304 C 0.20718 0.8934 0.32918 0.0
O305 O 0.23012 0.85028 0.32945 0.0
N306 N 0.37017 0.98171 0.32828 0.0
C307 C 0.39592 0.9833 0.35046 0.0
C308 C 0.35838 0.99611 0.34116 0.0
C309 C 0.41573 0.95989 0.33011 0.0
N310 N 0.43171 0.95964 0.34362 0.0
O311 O 0.31481 0.91071 0.30449 0.0
H312 H 0.32421 1.01488 0.34374 0.0
H313 H 0.43614 0.94396 0.32175 0.0
O314 O 0.24057 0.9499 0.32255 0.0
C315 C 0.36386 0.93189 0.2957 0.0
O316 O 0.40587 0.99834 0.2944 0.0
N317 N 0.34928 0.08038 0.3195 0.0
C318 C 0.40946 0.20987 0.33162 0.0
C319 C 0.33762 0.16614 0.33181 0.0
C320 C 0.30821 0.10124 0.32553 0.0
C321 C 0.41834 0.12341 0.31865 0.0
C322 C 0.4495 0.18757 0.32478 0.0
H323 H 0.25326 0.06747 0.32585 0.0
H324 H 0.44987 0.10601 0.31373 0.0
H325 H 0.17859 0.92768 0.29983 0.0
H326 H 0.26728 0.0925 0.27173 0.0
H327 H 0.39686 0.99159 0.36146 0.0
H328 H 0.30472 0.18167 0.3368 0.0
H329 H 0.50506 0.21839 0.32454 0.0
C330 C 0.27841 0.30458 0.4587 0.0
C331 C 0.22375 0.26746 0.45 0.0
N332 N 0.20151 0.20014 0.45166 0.0
N333 N 0.29061 0.26161 0.46629 0.0
C334 C 0.24525 0.19847 0.46105 0.0
H335 H 0.30731 0.35986 0.45929 0.0
Co336 Co 0.35881 0.28924 0.4807 0.0
C337 C 0.25342 0.14963 0.4908 0.0
O338 O 0.20604 0.16609 0.48852 0.0
N339 N 0.42681 0.31574 0.49471 0.0
C340 C 0.47956 0.3126 0.51389 0.0
C341 C 0.42122 0.27869 0.50612 0.0
C342 C 0.49008 0.37269 0.4959 0.0
N343 N 0.52368 0.37173 0.50746 0.0
O344 O 0.41919 0.2803 0.4676 0.0
H345 H 0.37745 0.22982 0.50891 0.0
H346 H 0.51154 0.41375 0.48838 0.0
O347 O 0.31598 0.19222 0.48739 0.0
C348 C 0.45563 0.34072 0.46242 0.0
O349 O 0.44327 0.3889 0.46647 0.0
N350 N 0.30616 0.31063 0.493 0.0
C351 C 0.24897 0.37104 0.50957 0.0
C352 C 0.24858 0.31154 0.51395 0.0
C353 C 0.27853 0.28283 0.50564 0.0
C354 C 0.31039 0.37071 0.48912 0.0
C355 C 0.28095 0.40075 0.49699 0.0
H356 H 0.28085 0.23964 0.50971 0.0
H357 H 0.34024 0.39797 0.48018 0.0
H358 H 0.24285 0.15146 0.46423 0.0
H359 H 0.20181 0.28884 0.44305 0.0
H360 H 0.48788 0.29487 0.52369 0.0
H361 H 0.22645 0.28802 0.52381 0.0
H362 H 0.28627 0.4489 0.49354 0.0
C363 C 0.97063 0.23759 0.62141 0.0
C364 C 0.97229 0.18669 0.61388 0.0
N365 N 0.02596 0.18135 0.61823 0.0
N366 N 1.02217 0.26389 0.63078 0.0
C367 C 0.05658 0.23015 0.62804 0.0
H368 H 0.93373 0.25404 0.61994 0.0
Co369 Co 0.04213 0.33446 0.64424 0.0
C370 C 0.09503 0.25419 0.65911 0.0
O371 O 0.0357 0.19786 0.65698 0.0
N372 N 0.06306 0.40451 0.65719 0.0
C373 C 0.09941 0.46832 0.67617 0.0
C374 C 0.09477 0.41286 0.66949 0.0
C375 C 0.05031 0.45708 0.65655 0.0
N376 N 0.07157 0.49618 0.66806 0.0
O377 O 0.11452 0.40162 0.63242 0.0
H378 H 0.11378 0.38105 0.67355 0.0
H379 H 0.02571 0.46631 0.64788 0.0
O380 O 0.10583 0.31146 0.65405 0.0
C381 C 0.08631 0.42434 0.6241 0.0
O382 O 1.0189 0.39401 0.62423 0.0
N383 N 0.96483 0.27383 0.65535 0.0
C384 C 0.84164 0.20967 0.67056 0.0
C385 C 0.90409 0.22507 0.67672 0.0
C386 C 0.96516 0.25819 0.66904 0.0
C387 C 0.90464 0.26107 0.64944 0.0
C388 C 0.84262 0.22788 0.65668 0.0
H389 H 1.01256 0.27365 0.67441 0.0
H390 H 0.9051 0.28144 0.63935 0.0
H391 H 0.10391 0.24105 0.63299 0.0
H392 H 0.93545 0.15456 0.60614 0.0
H393 H 0.1231 0.48791 0.68612 0.0
H394 H 0.90613 0.21348 0.68751 0.0
H395 H 0.79642 0.22043 0.65166 0.0
H396 H 0.84801 0.02085 0.98692 0.0
H397 H 0.74736 0.87575 1.01994 0.0
H398 H 0.77905 0.97018 0.03621 0.0
H399 H 0.84632 0.09562 0.04139 0.0
H400 H 0.94136 0.23828 1.00753 0.0
H401 H 0.90057 0.14381 0.9914 0.0
C402 C 0.83187 1.0099 0.99764 0.0
C403 C 0.7956 0.9414 1.00222 0.0
C404 C 0.85 0.06438 1.00687 0.0
C405 C 0.77476 0.92792 1.01611 0.0
C406 C 0.79348 0.98209 0.02545 0.0
C407 C 0.85709 0.10602 0.03047 0.0
C408 C 0.89811 0.17447 0.02582 0.0
C409 C 0.83269 0.05079 1.02102 0.0
C410 C 0.91089 0.18656 1.01155 0.0
C411 C 0.88756 0.13237 1.00223 0.0
H412 H 0.79424 0.67325 0.18522 0.0
H413 H 0.89824 0.82019 0.15253 0.0
H414 H 0.85583 0.89288 0.16161 0.0
H415 H 0.78971 0.91524 0.17891 0.0
H416 H 0.69564 0.77532 0.21304 0.0
H417 H 0.73357 0.69939 0.20343 0.0
C418 C 0.80735 0.7211 0.18008 0.0
C419 C 0.84865 0.74089 0.1681 0.0
C420 C 0.78457 0.76387 0.18565 0.0
C421 C 0.86639 0.80368 0.16171 0.0
C422 C 0.84207 0.84524 0.1669 0.0
C423 C 0.7771 0.86785 0.1842 0.0
C424 C 0.7389 0.85026 0.19656 0.0
C425 C 0.80109 0.82586 0.17885 0.0
C426 C 0.72455 0.78967 0.20348 0.0
C427 C 0.74625 0.74633 0.19797 0.0
H428 H 0.98595 0.90671 0.36693 0.0
H429 H 0.96435 0.71872 0.38307 0.0
H430 H 0.05149 0.72714 0.36671 0.0
H431 H 0.13521 0.78962 0.34794 0.0
H432 H 0.147 0.97189 0.3307 0.0
H433 H 0.06221 0.96374 0.34726 0.0
C434 C 1.00087 0.86795 0.36696 0.0
C435 C 0.97 0.813 0.37639 0.0
C436 C 0.04902 0.87194 0.35725 0.0
C437 C 0.98814 0.76197 0.37602 0.0
C438 C 0.03773 0.76669 0.36664 0.0
C439 C 0.11885 0.82725 0.34773 0.0
C440 C 0.14904 0.88231 0.33823 0.0
C441 C 0.06861 0.82155 0.35718 0.0
C442 C 0.12633 0.93 0.33806 0.0
C443 C 0.07748 0.9253 0.34752 0.0
H444 H 0.12626 0.05341 0.49902 0.0
H445 H 0.33851 0.10755 0.50242 0.0
H446 H 0.30631 1.01556 0.51951 0.0
H447 H 0.21727 0.92394 0.53475 0.0
H448 H 1.00666 0.87633 0.531 0.0
H449 H 0.03918 0.96154 0.51294 0.0
C450 C 0.1658 0.04507 0.50337 0.0
C451 C 0.23487 0.0881 0.4995 0.0
C452 C 0.14718 0.99337 0.51332 0.0
C453 C 0.2849 0.07555 0.50522 0.0
C454 C 0.26651 0.02309 0.51506 0.0
C455 C 0.17863 0.93218 0.52994 0.0
C456 C 0.10962 0.89391 0.53443 0.0
C457 C 0.19779 0.98243 0.51943 0.0
C458 C 0.06024 0.90517 0.52797 0.0
C459 C 0.07866 0.95394 0.51755 0.0
H460 H 0.34181 0.26097 0.692 0.0
H461 H 0.17045 0.09089 0.71277 0.0
H462 H 0.0903 0.10646 0.69866 0.0
H463 H 0.06778 0.16368 0.67971 0.0
H464 H 0.23596 0.3374 0.65932 0.0
H465 H 0.31826 0.32545 0.67402 0.0
C466 C 0.28696 0.22783 0.69354 0.0
C467 C 0.26251 0.17388 0.7033 0.0
C468 C 0.24046 0.23737 0.68538 0.0
C469 C 0.19109 0.13188 0.70519 0.0
C470 C 0.14496 0.14078 0.69712 0.0
C471 C 0.12249 0.19899 0.67845 0.0
C472 C 0.14584 0.25064 0.66828 0.0
C473 C 0.169 0.19239 0.68703 0.0
C474 C 0.21676 0.29695 0.66702 0.0
C475 C 0.26374 0.29003 0.67542 0.0
H476 H 0.86203 0.17974 0.86277 0.0
H477 H 0.93761 0.20706 0.82092 0.0
H478 H 0.05568 0.26255 0.8295 0.0
H479 H 0.13712 0.29932 0.84881 0.0
H480 H 0.06198 0.26735 0.89073 0.0
H481 H 0.94406 0.21759 0.88217 0.0
C482 C 0.90427 0.19849 0.85548 0.0
C483 C 0.8906 0.18946 0.84116 0.0
C484 C 0.97216 0.22909 0.86052 0.0
C485 C 0.94631 0.2134 0.83196 0.0
C486 C 1.01393 0.24501 0.83687 0.0
C487 C 0.09514 0.28188 0.85613 0.0
C488 C 0.10879 0.28737 0.87045 0.0
C489 C 0.02742 0.2525 0.85112 0.0
C490 C 0.05329 0.2639 0.87969 0.0
C491 C 0.98576 0.23542 0.87478 0.0
H492 H 0.88059 1.00807 0.10124 0.0
H493 H 0.05335 0.09081 0.07335 0.0
H494 H 0.07823 1.00135 0.0805 0.0
H495 H 0.05649 0.90603 0.09618 0.0
H496 H 0.8871 0.83026 0.1251 0.0
H497 H 0.85595 0.91059 0.11602 0.0
C498 C 0.92383 1.00678 0.09671 0.0
C499 C 0.96565 0.05701 0.08691 0.0
C500 C 0.9389 0.95658 0.10115 0.0
C501 C 1.02016 0.05294 0.08087 0.0
C502 C 0.03474 1.00207 0.08506 0.0
C503 C 1.01282 0.90675 0.10059 0.0
C504 C 0.97521 0.86162 0.11156 0.0
C505 C 0.99544 0.95462 0.09547 0.0
C506 C 0.91771 0.86339 0.11674 0.0
C507 C 0.89967 0.9099 0.11156 0.0
H508 H 0.89153 0.91489 0.27316 0.0
H509 H 0.97748 0.02723 0.23533 0.0
H510 H 0.09035 0.04462 0.2417 0.0
H511 H 0.16619 0.03418 0.25883 0.0
H512 H 0.07857 0.92641 0.29714 0.0
H513 H 0.96541 0.90119 0.28974 0.0
C514 C 0.93488 0.94342 0.2663 0.0
C515 C 0.92583 0.97042 0.25385 0.0
C516 C 0.99974 0.9543 0.27015 0.0
C517 C 0.98253 1.00558 0.24494 0.0
C518 C 0.04733 1.01601 0.24864 0.0
C519 C 0.12251 1.00529 0.26559 0.0
C520 C 0.13192 0.98255 0.2786 0.0
C521 C 0.05686 0.99169 0.26136 0.0
C522 C 0.07382 0.94409 0.28704 0.0
C523 C 1.00867 0.92994 0.28285 0.0
H524 H 0.16898 0.06672 0.44784 0.0
H525 H 0.08837 0.20327 0.4435 0.0
H526 H 0.98043 0.10951 0.43504 0.0
H527 H 0.90746 0.98906 0.42881 0.0
H528 H 0.98423 0.84962 0.43271 0.0
H529 H 0.09413 0.94349 0.44137 0.0
C530 C 0.12785 0.07598 0.44507 0.0
C531 C 0.13808 0.14304 0.44624 0.0
C532 C 0.06458 0.02096 0.44015 0.0
C533 C 0.08357 0.15334 0.44248 0.0
C534 C 1.02107 0.09929 0.43773 0.0
C535 C 0.94766 0.97862 0.43173 0.0
C536 C 0.93675 0.91169 0.43024 0.0
C537 C 1.01083 0.03294 0.43654 0.0
C538 C 0.99082 0.90034 0.43373 0.0
C539 C 0.05378 0.95416 0.43871 0.0
H540 H 1.01431 0.12384 0.59318 0.0
H541 H 0.06983 0.1173 0.63549 0.0
H542 H 0.0843 0.01938 0.63032 0.0
H543 H 0.07606 0.93158 0.61391 0.0
H544 H 0.02711 0.94215 0.57133 0.0
H545 H 1.0153 0.04194 0.57636 0.0
C546 C 0.02997 0.10114 0.60122 0.0
C547 C 0.04073 0.12783 0.61471 0.0
C548 C 0.03905 0.04515 0.59812 0.0
C549 C 0.0618 0.09829 0.625 0.0
C550 C 0.06961 0.04189 0.62207 0.0
C551 C 0.06301 0.95598 0.60576 0.0
C552 C 0.05197 0.92917 0.59228 0.0
C553 C 0.05758 1.01428 0.6087 0.0
C554 C 0.03613 0.96196 0.58176 0.0
C555 C 0.0291 0.01886 0.58465 0.0
H556 H 0.12075 1.0075 0.78014 0.0
H557 H 0.11686 0.08792 0.73985 0.0
H558 H 1.0238 0.10541 0.74721 0.0
H559 H 0.93906 0.0925 0.76455 0.0
H560 H 0.93907 1.00965 0.8047 0.0
H561 H 0.03812 0.99911 0.79799 0.0
C562 C 0.09957 0.0288 0.77296 0.0
C563 C 0.12627 0.04615 0.75941 0.0
C564 C 0.04508 0.03826 0.77723 0.0
C565 C 0.09851 0.07477 0.75036 0.0
C566 C 0.04468 0.08438 0.75454 0.0
C567 C 0.96057 0.072 0.77185 0.0
C568 C 0.93096 0.05119 0.78508 0.0
C569 C 1.01697 0.0655 0.76787 0.0
C570 C 0.96081 0.02635 0.79449 0.0
C571 C 1.01722 0.01987 0.79061 0.0
H572 H 0.94119 0.86053 0.93461 0.0
H573 H 0.8602 0.96991 0.95672 0.0
H574 H 0.94877 0.07793 0.94651 0.0
H575 H 0.05732 0.14377 0.93286 0.0
H576 H 0.14183 0.03333 0.91267 0.0
H577 H 0.04499 0.92408 0.92063 0.0
C578 C 0.94257 0.90773 0.93728 0.0
C579 C 0.89372 0.90612 0.94663 0.0
C580 C 0.99518 0.97018 0.93173 0.0
C581 C 0.89622 0.96852 0.94955 0.0
C582 C 0.94754 0.03081 0.94378 0.0
C583 C 0.05355 0.09554 0.93006 0.0
C584 C 0.10645 0.09639 0.92214 0.0
C585 C 0.99832 0.03261 0.93507 0.0
C586 C 0.10171 0.03373 0.91874 0.0
C587 C 0.04641 0.97135 0.92331 0.0
H588 H 0.51555 0.5558 0.03604 0.0
H589 H 0.42898 0.55961 0.99659 0.0
H590 H 0.31537 0.46955 1.00444 0.0
H591 H 0.23915 0.39749 0.02327 0.0
H592 H 0.32655 0.3945 0.06274 0.0
H593 H 0.44123 0.4768 0.05416 0.0
C594 C 0.47182 0.53695 0.02916 0.0
C595 C 0.48059 0.56513 1.01581 0.0
C596 C 0.40673 0.48555 0.03378 0.0
C597 C 0.42369 0.5388 1.0069 0.0
C598 C 0.35865 0.48754 1.01142 0.0
C599 C 0.28341 0.41353 0.02991 0.0
C600 C 0.27395 0.39007 0.04369 0.0
C601 C 0.34934 0.46141 0.02493 0.0
C602 C 0.33204 0.41235 0.05217 0.0
C603 C 0.39771 0.45941 0.04726 0.0
H604 H 0.90413 0.41943 0.16673 0.0
H605 H 1.02139 0.54035 0.20161 0.0
H606 H 1.01052 0.43856 0.21273 0.0
H607 H 0.95907 0.31363 0.21362 0.0
H608 H 0.84008 0.19102 0.17906 0.0
H609 H 0.86207 0.29455 0.16664 0.0
C610 C 0.92821 0.4235 0.17665 0.0
C611 C 0.96214 0.48723 0.18345 0.0
C612 C 0.92153 0.36427 0.18308 0.0
C613 C 0.99327 0.49169 0.19631 0.0
C614 C 0.98746 0.4335 0.20266 0.0
C615 C 0.93854 0.3096 0.20331 0.0
C616 C 0.89766 0.24452 0.19735 0.0
C617 C 0.95015 0.36923 0.19633 0.0
C618 C 0.87232 0.24042 0.18388 0.0
C619 C 0.88426 0.29965 0.17681 0.0
H620 H 0.53514 0.94749 0.33178 0.0
H621 H 0.42469 0.91764 0.37006 0.0
H622 H 0.49905 0.88579 0.38165 0.0
H623 H 0.59381 0.86486 0.38131 0.0
H624 H 0.69867 0.87977 0.34308 0.0
H625 H 0.62982 0.92072 0.33129 0.0
C626 C 0.5271 0.93362 0.34262 0.0
C627 C 0.47481 0.93681 0.35001 0.0
C628 C 0.56959 0.91317 0.34934 0.0
C629 C 0.46544 0.91826 0.36409 0.0
C630 C 0.50781 0.89932 0.37079 0.0
C631 C 0.60132 0.87604 0.37034 0.0
C632 C 0.65093 0.86817 0.36312 0.0
C633 C 0.55993 0.89666 0.36355 0.0
C634 C 0.66125 0.88564 0.34899 0.0
C635 C 0.62129 0.90839 0.34219 0.0
H636 H 0.81359 0.62133 0.5243 0.0
H637 H 0.80622 0.46592 0.55147 0.0
H638 H 0.69543 0.38115 0.54185 0.0
H639 H 0.60119 0.35121 0.52602 0.0
H640 H 0.60254 0.50601 0.49951 0.0
H641 H 0.71611 0.5904 0.50828 0.0
C642 C 0.78767 0.56879 0.52805 0.0
C643 C 0.81788 0.55004 0.53866 0.0
C644 C 0.72323 0.52017 0.52255 0.0
C645 C 0.78366 0.4819 0.54347 0.0
C646 C 0.72046 0.43331 0.53792 0.0
C647 C 0.62524 0.40345 0.52222 0.0
C648 C 0.59207 0.42181 0.51218 0.0
C649 C 0.68961 0.45198 0.52754 0.0
C650 C 0.6263 0.48979 0.50717 0.0
C651 C 0.6913 0.53836 0.51226 0.0
H652 H 0.03272 0.52467 0.69184 0.0
H653 H 0.11215 0.60708 0.65155 0.0
H654 H 0.13894 0.72178 0.65921 0.0
H655 H 0.15705 0.8009 0.6787 0.0
H656 H 0.08188 0.71631 0.71917 0.0
H657 H 0.03499 0.60005 0.71019 0.0
C658 C 0.05426 0.56762 0.68468 0.0
C659 C 0.07105 0.55808 0.67124 0.0
C660 C 0.07083 0.63302 0.68928 0.0
C661 C 0.09855 0.6135 0.66194 0.0
C662 C 0.11446 0.67904 0.66637 0.0
C663 C 0.12846 0.75671 0.68539 0.0
C664 C 0.12285 0.76669 0.69956 0.0
C665 C 0.10334 0.6899 0.6802 0.0
C666 C 0.08663 0.70946 0.70824 0.0
C667 C 0.06022 0.64314 0.70312 0.0
H668 H 0.48447 0.27653 0.85662 0.0
H669 H 0.30026 0.08243 0.86475 0.0
H670 H 0.35473 0.02161 0.85524 0.0
H671 H 0.45707 0.02318 0.84611 0.0
H672 H 0.6435 0.21701 0.8393 0.0
H673 H 0.58574 0.27812 0.84685 0.0
C674 C 0.45611 0.22086 0.85634 0.0
C675 C 0.38833 0.18429 0.86154 0.0
C676 C 0.48841 0.18608 0.8512 0.0
C677 C 0.35208 0.11219 0.86074 0.0
C678 C 0.38352 0.07725 0.85542 0.0
C679 C 0.48545 0.07876 0.84637 0.0
C680 C 0.5551 0.11524 0.84228 0.0
C681 C 0.45211 0.11362 0.8509 0.0
C682 C 0.59003 0.18743 0.84233 0.0
C683 C 0.55704 0.22247 0.84671 0.0
H684 H 0.62716 0.72109 0.83344 0.0
H685 H 0.63935 0.86473 0.86424 0.0
H686 H 0.55766 0.77045 0.87872 0.0
H687 H 0.47309 0.64812 0.8816 0.0
H688 H 0.45969 0.50254 0.85143 0.0
H689 H 0.55135 0.59604 0.83774 0.0
C690 C 0.61263 0.73155 0.84341 0.0
C691 C 0.63955 0.80009 0.8477 0.0
C692 C 0.56477 0.67672 0.85172 0.0
C693 C 0.6205 0.81271 0.86072 0.0
C694 C 0.57307 0.75876 0.86897 0.0
C695 C 0.49107 0.63712 0.8721 0.0
C696 C 0.45961 0.56918 0.86737 0.0
C697 C 0.54355 0.69084 0.86442 0.0
C698 C 0.48353 0.55474 0.85519 0.0
C699 C 0.53552 0.60817 0.84737 0.0
H700 H 0.99779 0.5679 0.04837 0.0
H701 H 0.90412 0.39394 1.02108 0.0
H702 H 0.85103 0.44761 1.00784 0.0
H703 H 0.83337 0.54436 1.00388 0.0
H704 H 0.9166 0.71351 0.03268 0.0
H705 H 0.97395 0.66267 0.04515 0.0
C706 C 0.96582 0.5421 0.0395 0.0
C707 C 0.95499 0.47737 0.0356 0.0
C708 C 0.93442 0.57273 0.03214 0.0
C709 C 0.91269 0.44363 0.02425 0.0
C710 C 0.88274 0.47446 1.01667 0.0
C711 C 0.86274 0.56991 1.01303 0.0
C712 C 0.86994 0.63306 1.01725 0.0
C713 C 0.89327 0.539 1.02053 0.0
C714 C 0.91063 0.66569 0.02893 0.0
C715 C 0.94302 0.63622 0.0362 0.0
H716 H 0.45794 0.98888 0.20724 0.0
H717 H 0.52904 0.87924 0.18245 0.0
H718 H 0.42247 0.82836 0.16894 0.0
H719 H 0.31186 0.81834 0.1639 0.0
H720 H 0.23321 0.91579 0.19071 0.0
H721 H 0.34165 0.9712 0.20325 0.0
C722 C 0.4496 0.95357 0.1989 0.0
C723 C 0.50089 0.93772 0.19573 0.0
C724 C 0.38772 0.92363 0.19141 0.0
C725 C 0.48979 0.8915 0.18505 0.0
C726 C 0.42924 0.86299 0.17731 0.0
C727 C 0.31697 0.85019 0.17268 0.0
C728 C 0.26296 0.86184 0.17628 0.0
C729 C 0.37801 0.87892 0.18038 0.0
C730 C 0.27339 0.9062 0.1874 0.0
C731 C 0.33534 0.93739 0.19475 0.0
H732 H 0.55731 0.46783 0.37123 0.0
H733 H 0.70087 0.53535 0.33703 0.0
H734 H 0.62353 0.43564 0.32408 0.0
H735 H 0.51864 0.32692 0.32226 0.0
H736 H 0.37956 0.24584 0.35686 0.0
H737 H 0.45001 0.35344 0.36951 0.0
C738 C 0.57188 0.46078 0.36099 0.0
C739 C 0.63513 0.5112 0.3552 0.0
C740 C 0.52746 0.40067 0.3535 0.0
C741 C 0.65241 0.49999 0.34184 0.0
C742 C 0.60811 0.44207 0.33431 0.0
C743 C 0.50368 0.33224 0.33262 0.0
C744 C 0.44455 0.2778 0.33866 0.0
C745 C 0.54597 0.39208 0.34004 0.0
C746 C 0.42481 0.28697 0.35191 0.0
C747 C 0.46559 0.34822 0.35921 0.0
H748 H 0.1982 0.55279 0.55204 0.0
H749 H 0.11252 0.59029 0.5157 0.0
H750 H 0.12497 0.50349 0.50297 0.0
H751 H 0.17308 0.42764 0.50149 0.0
H752 H 0.26526 0.39428 0.53747 0.0
H753 H 0.23632 0.4671 0.55115 0.0
C754 C 0.18055 0.54005 0.54146 0.0
C755 C 0.15378 0.57668 0.53476 0.0
C756 C 0.18986 0.49151 0.53414 0.0
C757 C 0.13237 0.56162 0.52099 0.0
C758 C 0.14004 0.51257 0.51373 0.0
C759 C 0.18627 0.4358 0.51236 0.0
C760 C 0.22197 0.40613 0.51839 0.0
C761 C 0.17078 0.47885 0.52007 0.0
C762 C 0.23754 0.41618 0.53256 0.0
C763 C 0.22147 0.45831 0.54037 0.0
H764 H 0.58684 0.14546 0.70838 0.0
H765 H 0.47947 1.01478 0.67384 0.0
H766 H 0.58834 0.04211 0.66319 0.0
H767 H 0.71389 0.11058 0.66264 0.0
H768 H 0.82315 0.2444 0.69669 0.0
H769 H 0.71442 0.2073 0.7087 0.0
C770 C 0.5875 0.12207 0.69866 0.0
C771 C 0.52518 0.0789 0.69182 0.0
C772 C 0.65074 0.13882 0.69247 0.0
C773 C 0.52675 0.04915 0.67919 0.0
C774 C 0.589 0.06463 0.6731 0.0
C775 C 0.71397 0.13137 0.67273 0.0
C776 C 0.77661 0.18062 0.67867 0.0
C777 C 0.6513 0.11079 0.67945 0.0
C778 C 0.7758 0.20607 0.69188 0.0
C779 C 0.71351 0.18528 0.69872 0.0
H780 H 0.8943 0.57003 0.10237 0.0
H781 H 0.86519 0.46031 0.14052 0.0
H782 H 0.84619 0.35888 0.12776 0.0
H783 H 0.86914 0.31493 0.10624 0.0
H784 H 0.89803 0.42484 0.06812 0.0
H785 H 0.88388 0.51172 0.08019 0.0
C786 C 0.87974 0.5225 0.10782 0.0
C787 C 0.88094 0.52247 0.12235 0.0
C788 C 0.87027 0.46483 0.10038 0.0
C789 C 0.86358 0.46123 0.12934 0.0
C790 C 0.85382 0.40352 0.12203 0.0
C791 C 0.86828 0.35579 0.10049 0.0
C792 C 0.88419 0.36332 0.08631 0.0
C793 C 0.86138 0.40636 0.1076 0.0
C794 C 0.88469 0.41731 0.07898 0.0
C795 C 0.87767 0.46768 0.08595 0.0
H796 H 0.57329 0.87455 0.26899 0.0
H797 H 0.49339 0.91972 0.23262 0.0
H798 H 0.39379 0.90425 0.24564 0.0
H799 H 0.34718 0.90753 0.26843 0.0
H800 H 0.42704 0.8639 0.30496 0.0
H801 H 0.50727 0.84692 0.29093 0.0
C802 C 0.53208 0.8772 0.2638 0.0
C803 C 0.54018 0.89752 0.24984 0.0
C804 C 0.47549 0.86978 0.27149 0.0
C805 C 0.48757 0.90291 0.24329 0.0
C806 C 0.43101 0.89496 0.25079 0.0
C807 C 0.37932 0.89024 0.27322 0.0
C808 C 0.38112 0.88698 0.28772 0.0
C809 C 0.42659 0.88237 0.26506 0.0
C810 C 0.42414 0.86617 0.29384 0.0
C811 C 0.47092 0.85752 0.2858 0.0
H812 H 0.59089 0.43445 0.46423 0.0
H813 H 0.43594 0.29598 0.43585 0.0
H814 H 0.50949 0.36102 0.41631 0.0
H815 H 0.6064 0.47096 0.40769 0.0
H816 H 0.76112 0.61001 0.43605 0.0
H817 H 0.70042 0.53074 0.45519 0.0
C818 C 0.57478 0.4166 0.45375 0.0
C819 C 0.50832 0.35981 0.45148 0.0
C820 C 0.61702 0.45533 0.44258 0.0
C821 C 0.48731 0.33829 0.43788 0.0
C822 C 0.52905 0.37632 0.4267 0.0
C823 C 0.62843 0.48234 0.41798 0.0
C824 C 0.68855 0.54613 0.42044 0.0
C825 C 0.59244 0.43682 0.42895 0.0
C826 C 0.71587 0.56086 0.43383 0.0
C827 C 0.68046 0.51585 0.44482 0.0
H828 H 0.27709 0.72138 0.59864 0.0
H829 H 0.08504 0.67012 0.57913 0.0
H830 H 0.03094 0.55625 0.58921 0.0
H831 H 0.03535 0.47265 0.60462 0.0
H832 H 0.22474 0.52249 0.62516 0.0
H833 H 0.28269 0.63481 0.61352 0.0
C834 C 0.22339 0.68537 0.59651 0.0
C835 C 0.18554 0.70557 0.58797 0.0
C836 C 0.19202 0.61928 0.60258 0.0
C837 C 0.11614 0.65733 0.58544 0.0
C838 C 0.08484 0.59162 0.5913 0.0
C839 C 0.08957 0.50762 0.60651 0.0
C840 C 0.1255 0.48882 0.61583 0.0
C841 C 0.122 0.57234 0.60001 0.0
C842 C 0.19579 0.53513 0.61802 0.0
C843 C 0.22878 0.59963 0.61143 0.0
H844 H 0.42729 0.12345 0.77079 0.0
H845 H 0.54944 0.15584 0.73441 0.0
H846 H 0.64569 0.17098 0.74866 0.0
H847 H 0.68307 0.14662 0.77108 0.0
H848 H 0.55857 0.11192 0.80725 0.0
H849 H 0.47652 0.12798 0.79371 0.0
C850 C 0.47638 0.13777 0.76606 0.0
C851 C 0.48143 0.13904 0.75158 0.0
C852 C 0.53085 0.1446 0.77435 0.0
C853 C 0.5446 0.15562 0.74553 0.0
C854 C 0.59939 0.16322 0.7537 0.0
C855 C 0.63985 0.14623 0.77608 0.0
C856 C 0.62722 0.12885 0.79017 0.0
C857 C 0.59163 0.15382 0.76808 0.0
C858 C 0.56994 0.12636 0.79648 0.0
C859 C 0.52247 0.13469 0.78868 0.0
H860 H 0.47481 0.5819 0.97019 0.0
H861 H 0.60676 0.73435 0.94054 0.0
H862 H 0.52284 0.67234 0.92224 0.0
H863 H 0.42516 0.56219 0.91415 0.0
H864 H 0.29543 0.40796 0.94372 0.0
H865 H 0.36377 0.48361 0.96268 0.0
C866 C 0.48365 0.6032 0.95985 0.0
C867 C 0.54664 0.66312 0.95674 0.0
C868 C 0.43576 0.56615 0.94935 0.0
C869 C 0.55818 0.6893 0.94324 0.0
C870 C 0.51053 0.65317 0.93274 0.0
C871 C 0.40993 0.54665 0.92478 0.0
C872 C 0.35482 0.47987 0.92756 0.0
C873 C 0.45086 0.58981 0.93557 0.0
C874 C 0.33651 0.45953 0.94134 0.0
C875 C 0.37642 0.50247 0.95216 0.0
loop_
_geom_bond_atom_site_label_1
_geom_bond_atom_site_label_2
_geom_bond_distance
_geom_bond_site_symmetry_2
_ccdc_geom_bond_type
C0 C1 1.351 . S
C0 N3 1.367 1_455 S
C0 H5 0.931 . S
C1 C0 1.351 . S
C1 N2 1.373 . S
C1 H29 0.930 . S
N2 C1 1.373 . S
N2 C4 1.340 1_455 S
N3 C0 1.367 1_655 S
N3 C4 1.320 . S
N3 Co6 2.137 . S
C4 N2 1.340 1_655 S
C4 N3 1.320 . S
C4 H28 0.930 . S
H5 C0 0.931 . S
Co6 N3 2.137 . S
Co6 N9 2.121 . S
Co6 O14 2.055 . S
Co6 O17 2.039 . S
Co6 N20 2.140 1_655 S
C7 O8 1.227 . S
C7 O17 1.265 . S
O8 C7 1.227 . S
N9 Co6 2.121 . S
N9 C11 1.375 . S
N9 C12 1.313 . S
C10 C11 1.338 . S
C10 N13 1.377 . S
C10 H30 0.930 1_554 S
C11 N9 1.375 . S
C11 C10 1.338 . S
C11 H15 0.931 . S
C12 N9 1.313 . S
C12 N13 1.344 . S
C12 H16 0.930 . S
N13 C10 1.377 . S
N13 C12 1.344 . S
O14 Co6 2.055 . S
O14 C18 1.253 . S
H15 C11 0.931 . S
H16 C12 0.930 . S
O17 Co6 2.039 . S
O17 C7 1.265 . S
C18 O14 1.253 . S
C18 O19 1.227 1_655 S
O19 C18 1.227 1_455 S
N20 Co6 2.140 1_455 S
N20 C23 1.346 . S
N20 C24 1.345 . S
C21 C22 1.387 . S
C21 C25 1.391 . S
C22 C21 1.387 . S
C22 C23 1.369 . S
C22 H31 0.929 . S
C23 N20 1.346 . S
C23 C22 1.369 . S
C23 H26 0.928 . S
C24 N20 1.345 . S
C24 C25 1.371 . S
C24 H27 0.931 . S
C25 C21 1.391 . S
C25 C24 1.371 . S
C25 H32 0.930 . S
H26 C23 0.928 . S
H27 C24 0.931 . S
H28 C4 0.930 . S
H29 C1 0.930 . S
H30 C10 0.930 1_556 S
H31 C22 0.929 . S
H32 C25 0.930 . S
C33 C34 1.351 . S
C33 N36 1.366 1_545 S
C33 H38 0.931 . S
C34 C33 1.351 . S
C34 N35 1.373 . S
C34 H62 0.930 . S
N35 C34 1.373 . S
N35 C37 1.340 1_545 S
N36 C33 1.366 1_565 S
N36 C37 1.323 . S
N36 Co39 2.135 . S
C37 N35 1.340 1_565 S
C37 N36 1.323 . S
C37 H61 0.930 . S
H38 C33 0.931 . S
Co39 N36 2.135 . S
Co39 N42 2.121 . S
Co39 O47 2.055 . S
Co39 O50 2.039 . S
Co39 N53 2.140 1_565 S
C40 O41 1.227 . S
C40 O50 1.265 . S
O41 C40 1.227 . S
N42 Co39 2.121 . S
N42 C44 1.375 . S
N42 C45 1.313 . S
C43 C44 1.338 . S
C43 N46 1.377 . S
C43 H63 0.930 . S
C44 N42 1.375 . S
C44 C43 1.338 . S
C44 H48 0.931 . S
C45 N42 1.313 . S
C45 N46 1.344 . S
C45 H49 0.930 . S
N46 C43 1.377 . S
N46 C45 1.344 . S
O47 Co39 2.055 . S
O47 C51 1.253 . S
H48 C44 0.931 . S
H49 C45 0.930 . S
O50 Co39 2.039 . S
O50 C40 1.265 . S
C51 O47 1.253 . S
C51 O52 1.227 1_565 S
O52 C51 1.227 1_545 S
N53 Co39 2.140 1_545 S
N53 C56 1.346 . S
N53 C57 1.345 . S
C54 C55 1.387 . S
C54 C58 1.391 . S
C55 C54 1.387 . S
C55 C56 1.369 . S
C55 H64 0.929 . S
C56 N53 1.346 . S
C56 C55 1.369 . S
C56 H59 0.928 . S
C57 N53 1.345 . S
C57 C58 1.371 . S
C57 H60 0.931 . S
C58 C54 1.391 . S
C58 C57 1.371 . S
C58 H65 0.930 . S
H59 C56 0.928 . S
H60 C57 0.931 . S
H61 C37 0.930 . S
H62 C34 0.930 . S
H63 C43 0.930 . S
H64 C55 0.929 . S
H65 C58 0.930 . S
C66 C67 1.351 . S
C66 N69 1.368 . S
C66 H71 0.931 . S
C67 C66 1.351 . S
C67 N68 1.373 . S
C67 H95 0.930 . S
N68 C67 1.373 . S
N68 C70 1.340 . S
N69 C66 1.368 . S
N69 C70 1.321 . S
N69 Co72 2.135 . S
C70 N68 1.340 . S
C70 N69 1.321 . S
C70 H94 0.930 . S
H71 C66 0.931 . S
Co72 N69 2.135 . S
Co72 N75 2.121 . S
Co72 O80 2.055 . S
Co72 O83 2.039 . S
Co72 N86 2.140 . S
C73 O74 1.227 . S
C73 O83 1.265 . S
O74 C73 1.227 . S
N75 Co72 2.121 . S
N75 C77 1.375 . S
N75 C78 1.313 . S
C76 C77 1.338 . S
C76 N79 1.377 . S
C76 H96 0.930 . S
C77 N75 1.375 . S
C77 C76 1.338 . S
C77 H81 0.931 . S
C78 N75 1.313 . S
C78 N79 1.344 . S
C78 H82 0.930 . S
N79 C76 1.377 . S
N79 C78 1.344 . S
O80 Co72 2.055 . S
O80 C84 1.253 . S
H81 C77 0.931 . S
H82 C78 0.930 . S
O83 Co72 2.039 . S
O83 C73 1.265 . S
C84 O80 1.253 . S
C84 O85 1.227 . S
O85 C84 1.227 . S
N86 Co72 2.140 . S
N86 C89 1.346 . S
N86 C90 1.345 . S
C87 C88 1.387 . S
C87 C91 1.391 . S
C88 C87 1.387 . S
C88 C89 1.369 . S
C88 H97 0.929 . S
C89 N86 1.346 . S
C89 C88 1.369 . S
C89 H92 0.928 . S
C90 N86 1.345 . S
C90 C91 1.371 . S
C90 H93 0.931 . S
C91 C87 1.391 . S
C91 C90 1.371 . S
C91 H98 0.930 . S
H92 C89 0.928 . S
H93 C90 0.931 . S
H94 C70 0.930 . S
H95 C67 0.930 . S
H96 C76 0.930 . S
H97 C88 0.929 . S
H98 C91 0.930 . S
C99 C100 1.351 . S
C99 N102 1.367 1_655 S
C99 H104 0.931 . S
C100 C99 1.351 . S
C100 N101 1.373 . S
C100 H128 0.930 . S
N101 C100 1.373 . S
N101 C103 1.340 1_655 S
N102 C99 1.367 1_455 S
N102 C103 1.320 . S
N102 Co105 2.137 . S
C103 N101 1.340 1_455 S
C103 N102 1.320 . S
C103 H127 0.930 . S
H104 C99 0.931 . S
Co105 N102 2.137 . S
Co105 N108 2.121 . S
Co105 O113 2.055 . S
Co105 O116 2.039 . S
Co105 N119 2.140 1_455 S
C106 O107 1.227 . S
C106 O116 1.265 . S
O107 C106 1.227 . S
N108 Co105 2.121 . S
N108 C110 1.375 . S
N108 C111 1.313 . S
C109 C110 1.338 . S
C109 N112 1.377 . S
C109 H129 0.930 . S
C110 N108 1.375 . S
C110 C109 1.338 . S
C110 H114 0.931 . S
C111 N108 1.313 . S
C111 N112 1.344 . S
C111 H115 0.930 . S
N112 C109 1.377 . S
N112 C111 1.344 . S
O113 Co105 2.055 . S
O113 C117 1.253 . S
H114 C110 0.931 . S
H115 C111 0.930 . S
O116 Co105 2.039 . S
O116 C106 1.265 . S
C117 O113 1.253 . S
C117 O118 1.227 1_455 S
O118 C117 1.227 1_655 S
N119 Co105 2.140 1_655 S
N119 C122 1.346 . S
N119 C123 1.345 . S
C120 C121 1.387 . S
C120 C124 1.391 . S
C121 C120 1.387 . S
C121 C122 1.369 . S
C121 H130 0.929 . S
C122 N119 1.346 . S
C122 C121 1.369 . S
C122 H125 0.928 . S
C123 N119 1.345 . S
C123 C124 1.371 . S
C123 H126 0.931 . S
C124 C120 1.391 . S
C124 C123 1.371 . S
C124 H131 0.930 . S
H125 C122 0.928 . S
H126 C123 0.931 . S
H127 C103 0.930 . S
H128 C100 0.930 . S
H129 C109 0.930 . S
H130 C121 0.929 . S
H131 C124 0.930 . S
C132 C133 1.351 . S
C132 N135 1.366 1_565 S
C132 H137 0.931 . S
C133 C132 1.351 . S
C133 N134 1.373 . S
C133 H161 0.930 . S
N134 C133 1.373 . S
N134 C136 1.340 1_565 S
N135 C132 1.366 1_545 S
N135 C136 1.323 . S
N135 Co138 2.135 . S
C136 N134 1.340 1_545 S
C136 N135 1.323 . S
C136 H160 0.930 . S
H137 C132 0.931 . S
Co138 N135 2.135 . S
Co138 N141 2.121 . S
Co138 O146 2.055 . S
Co138 O149 2.039 . S
Co138 N152 2.140 1_545 S
C139 O140 1.227 . S
C139 O149 1.265 . S
O140 C139 1.227 . S
N141 Co138 2.121 . S
N141 C143 1.375 . S
N141 C144 1.313 . S
C142 C143 1.338 . S
C142 N145 1.377 . S
C142 H162 0.930 . S
C143 N141 1.375 . S
C143 C142 1.338 . S
C143 H147 0.931 . S
C144 N141 1.313 . S
C144 N145 1.344 . S
C144 H148 0.930 . S
N145 C142 1.377 . S
N145 C144 1.344 . S
O146 Co138 2.055 . S
O146 C150 1.253 . S
H147 C143 0.931 . S
H148 C144 0.930 . S
O149 Co138 2.039 . S
O149 C139 1.265 . S
C150 O146 1.253 . S
C150 O151 1.227 1_545 S
O151 C150 1.227 1_565 S
N152 Co138 2.140 1_565 S
N152 C155 1.346 . S
N152 C156 1.345 . S
C153 C154 1.387 . S
C153 C157 1.391 . S
C154 C153 1.387 . S
C154 C155 1.369 . S
C154 H163 0.929 . S
C155 N152 1.346 . S
C155 C154 1.369 . S
C155 H158 0.928 . S
C156 N152 1.345 . S
C156 C157 1.371 . S
C156 H159 0.931 . S
C157 C153 1.391 . S
C157 C156 1.371 . S
C157 H164 0.930 . S
H158 C155 0.928 . S
H159 C156 0.931 . S
H160 C136 0.930 . S
H161 C133 0.930 . S
H162 C142 0.930 . S
H163 C154 0.929 . S
H164 C157 0.930 . S
C165 C166 1.351 . S
C165 N168 1.368 . S
C165 H170 0.931 . S
C166 C165 1.351 . S
C166 N167 1.373 . S
C166 H194 0.930 . S
N167 C166 1.373 . S
N167 C169 1.340 . S
N168 C165 1.368 . S
N168 C169 1.321 . S
N168 Co171 2.135 . S
C169 N167 1.340 . S
C169 N168 1.321 . S
C169 H193 0.930 . S
H170 C165 0.931 . S
Co171 N168 2.135 . S
Co171 N174 2.121 . S
Co171 O179 2.055 . S
Co171 O182 2.039 . S
Co171 N185 2.140 . S
C172 O173 1.227 . S
C172 O182 1.265 . S
O173 C172 1.227 . S
N174 Co171 2.121 . S
N174 C176 1.375 . S
N174 C177 1.313 . S
C175 C176 1.338 . S
C175 N178 1.377 . S
C175 H195 0.930 . S
C176 N174 1.375 . S
C176 C175 1.338 . S
C176 H180 0.931 . S
C177 N174 1.313 . S
C177 N178 1.344 . S
C177 H181 0.930 . S
N178 C175 1.377 . S
N178 C177 1.344 . S
O179 Co171 2.055 . S
O179 C183 1.253 . S
H180 C176 0.931 . S
H181 C177 0.930 . S
O182 Co171 2.039 . S
O182 C172 1.265 . S
C183 O179 1.253 . S
C183 O184 1.227 . S
O184 C183 1.227 . S
N185 Co171 2.140 . S
N185 C188 1.346 . S
N185 C189 1.345 . S
C186 C187 1.387 . S
C186 C190 1.391 . S
C187 C186 1.387 . S
C187 C188 1.369 . S
C187 H196 0.929 . S
C188 N185 1.346 . S
C188 C187 1.369 . S
C188 H191 0.928 . S
C189 N185 1.345 . S
C189 C190 1.371 . S
C189 H192 0.931 . S
C190 C186 1.391 . S
C190 C189 1.371 . S
C190 H197 0.930 . S
H191 C188 0.928 . S
H192 C189 0.931 . S
H193 C169 0.930 . S
H194 C166 0.930 . S
H195 C175 0.930 . S
H196 C187 0.929 . S
H197 C190 0.930 . S
C198 C199 1.351 . S
C198 N201 1.366 1_565 S
C198 H203 0.931 . S
C199 C198 1.351 . S
C199 N200 1.373 . S
C199 H227 0.930 . S
N200 C199 1.373 . S
N200 C202 1.340 1_565 S
N201 C198 1.366 1_545 S
N201 C202 1.320 . S
N201 Co204 2.137 . S
C202 N200 1.340 1_545 S
C202 N201 1.320 . S
C202 H226 0.930 . S
H203 C198 0.931 . S
Co204 N201 2.137 . S
Co204 N207 2.121 . S
Co204 O212 2.055 . S
Co204 O215 2.039 . S
Co204 N218 2.140 1_545 S
C205 O206 1.227 . S
C205 O215 1.265 . S
O206 C205 1.227 . S
N207 Co204 2.121 . S
N207 C209 1.375 . S
N207 C210 1.313 . S
C208 C209 1.338 . S
C208 N211 1.377 . S
C208 H228 0.930 . S
C209 N207 1.375 . S
C209 C208 1.338 . S
C209 H213 0.931 . S
C210 N207 1.313 . S
C210 N211 1.344 . S
C210 H214 0.930 . S
N211 C208 1.377 . S
N211 C210 1.344 . S
O212 Co204 2.055 . S
O212 C216 1.253 . S
H213 C209 0.931 . S
H214 C210 0.930 . S
O215 Co204 2.039 . S
O215 C205 1.265 . S
C216 O212 1.253 . S
C216 O217 1.227 1_545 S
O217 C216 1.227 1_565 S
N218 Co204 2.140 1_565 S
N218 C221 1.346 . S
N218 C222 1.345 . S
C219 C220 1.387 . S
C219 C223 1.391 . S
C220 C219 1.387 . S
C220 C221 1.369 . S
C220 H229 0.929 . S
C221 N218 1.346 . S
C221 C220 1.369 . S
C221 H224 0.928 . S
C222 N218 1.345 . S
C222 C223 1.371 . S
C222 H225 0.931 . S
C223 C219 1.391 . S
C223 C222 1.371 . S
C223 H230 0.930 . S
H224 C221 0.928 . S
H225 C222 0.931 . S
H226 C202 0.930 . S
H227 C199 0.930 . S
H228 C208 0.930 . S
H229 C220 0.929 . S
H230 C223 0.930 . S
C231 C232 1.351 . S
C231 N234 1.368 . S
C231 H236 0.931 . S
C232 C231 1.351 . S
C232 N233 1.373 . S
C232 H260 0.930 . S
N233 C232 1.373 . S
N233 C235 1.340 . S
N234 C231 1.368 . S
N234 C235 1.321 . S
N234 Co237 2.135 . S
C235 N233 1.340 . S
C235 N234 1.321 . S
C235 H259 0.930 . S
H236 C231 0.931 . S
Co237 N234 2.135 . S
Co237 N240 2.121 . S
Co237 O245 2.055 . S
Co237 O248 2.039 . S
Co237 N251 2.140 . S
C238 O239 1.227 . S
C238 O248 1.265 . S
O239 C238 1.227 . S
N240 Co237 2.121 . S
N240 C242 1.375 . S
N240 C243 1.313 . S
C241 C242 1.338 . S
C241 N244 1.377 . S
C241 H261 0.930 1_556 S
C242 N240 1.375 . S
C242 C241 1.338 . S
C242 H246 0.931 . S
C243 N240 1.313 . S
C243 N244 1.344 . S
C243 H247 0.930 . S
N244 C241 1.377 . S
N244 C243 1.344 . S
O245 Co237 2.055 . S
O245 C249 1.253 . S
H246 C242 0.931 . S
H247 C243 0.930 . S
O248 Co237 2.039 . S
O248 C238 1.265 . S
C249 O245 1.253 . S
C249 O250 1.227 . S
O250 C249 1.227 . S
N251 Co237 2.140 . S
N251 C254 1.346 . S
N251 C255 1.345 . S
C252 C253 1.387 . S
C252 C256 1.391 . S
C253 C252 1.387 . S
C253 C254 1.369 . S
C253 H262 0.929 . S
C254 N251 1.346 . S
C254 C253 1.369 . S
C254 H257 0.928 . S
C255 N251 1.345 . S
C255 C256 1.371 . S
C255 H258 0.931 . S
C256 C252 1.391 . S
C256 C255 1.371 . S
C256 H263 0.930 . S
H257 C254 0.928 . S
H258 C255 0.931 . S
H259 C235 0.930 . S
H260 C232 0.930 . S
H261 C241 0.930 1_554 S
H262 C253 0.929 . S
H263 C256 0.930 . S
C264 C265 1.351 . S
C264 N267 1.366 1_455 S
C264 H269 0.931 . S
C265 C264 1.351 . S
C265 N266 1.373 . S
C265 H293 0.930 . S
N266 C265 1.373 . S
N266 C268 1.340 1_455 S
N267 C264 1.366 1_655 S
N267 C268 1.323 . S
N267 Co270 2.135 . S
C268 N266 1.340 1_655 S
C268 N267 1.323 . S
C268 H292 0.930 . S
H269 C264 0.931 . S
Co270 N267 2.135 . S
Co270 N273 2.121 . S
Co270 O278 2.055 . S
Co270 O281 2.039 . S
Co270 N284 2.140 1_655 S
C271 O272 1.227 . S
C271 O281 1.265 . S
O272 C271 1.227 . S
N273 Co270 2.121 . S
N273 C275 1.375 . S
N273 C276 1.313 . S
C274 C275 1.338 . S
C274 N277 1.377 . S
C274 H294 0.930 . S
C275 N273 1.375 . S
C275 C274 1.338 . S
C275 H279 0.931 . S
C276 N273 1.313 . S
C276 N277 1.344 . S
C276 H280 0.930 . S
N277 C274 1.377 . S
N277 C276 1.344 . S
O278 Co270 2.055 . S
O278 C282 1.253 . S
H279 C275 0.931 . S
H280 C276 0.930 . S
O281 Co270 2.039 . S
O281 C271 1.265 . S
C282 O278 1.253 . S
C282 O283 1.227 1_655 S
O283 C282 1.227 1_455 S
N284 Co270 2.140 1_455 S
N284 C287 1.346 . S
N284 C288 1.345 . S
C285 C286 1.387 . S
C285 C289 1.391 . S
C286 C285 1.387 . S
C286 C287 1.369 . S
C286 H295 0.929 . S
C287 N284 1.346 . S
C287 C286 1.369 . S
C287 H290 0.928 . S
C288 N284 1.345 . S
C288 C289 1.371 . S
C288 H291 0.931 . S
C289 C285 1.391 . S
C289 C288 1.371 . S
C289 H296 0.930 . S
H290 C287 0.928 . S
H291 C288 0.931 . S
H292 C268 0.930 . S
H293 C265 0.930 . S
H294 C274 0.930 . S
H295 C286 0.929 . S
H296 C289 0.930 . S
C297 C298 1.351 . S
C297 N300 1.367 1_545 S
C297 H302 0.931 . S
C298 C297 1.351 . S
C298 N299 1.373 . S
C298 H326 0.930 . S
N299 C298 1.373 . S
N299 C301 1.340 1_545 S
N300 C297 1.367 1_565 S
N300 C301 1.320 . S
N300 Co303 2.136 . S
C301 N299 1.340 1_565 S
C301 N300 1.320 . S
C301 H325 0.930 . S
H302 C297 0.931 . S
Co303 N300 2.136 . S
Co303 N306 2.121 . S
Co303 O311 2.055 . S
Co303 O314 2.039 . S
Co303 N317 2.140 1_565 S
C304 O305 1.227 . S
C304 O314 1.265 . S
O305 C304 1.227 . S
N306 Co303 2.121 . S
N306 C308 1.375 . S
N306 C309 1.313 . S
C307 C308 1.338 . S
C307 N310 1.377 . S
C307 H327 0.930 . S
C308 N306 1.375 . S
C308 C307 1.338 . S
C308 H312 0.931 . S
C309 N306 1.313 . S
C309 N310 1.344 . S
C309 H313 0.930 . S
N310 C307 1.377 . S
N310 C309 1.344 . S
O311 Co303 2.055 . S
O311 C315 1.253 . S
H312 C308 0.931 . S
H313 C309 0.930 . S
O314 Co303 2.039 . S
O314 C304 1.265 . S
C315 O311 1.253 . S
C315 O316 1.227 1_565 S
O316 C315 1.227 1_545 S
N317 Co303 2.140 1_545 S
N317 C320 1.346 . S
N317 C321 1.345 . S
C318 C319 1.387 . S
C318 C322 1.391 . S
C319 C318 1.387 . S
C319 C320 1.369 . S
C319 H328 0.929 . S
C320 N317 1.346 . S
C320 C319 1.369 . S
C320 H323 0.928 . S
C321 N317 1.345 . S
C321 C322 1.371 . S
C321 H324 0.931 . S
C322 C318 1.391 . S
C322 C321 1.371 . S
C322 H329 0.930 . S
H323 C320 0.928 . S
H324 C321 0.931 . S
H325 C301 0.930 . S
H326 C298 0.930 . S
H327 C307 0.930 . S
H328 C319 0.929 . S
H329 C322 0.930 . S
C330 C331 1.351 . S
C330 N333 1.368 . S
C330 H335 0.931 . S
C331 C330 1.351 . S
C331 N332 1.373 . S
C331 H359 0.930 . S
N332 C331 1.373 . S
N332 C334 1.340 . S
N333 C330 1.368 . S
N333 C334 1.321 . S
N333 Co336 2.135 . S
C334 N332 1.340 . S
C334 N333 1.321 . S
C334 H358 0.930 . S
H335 C330 0.931 . S
Co336 N333 2.135 . S
Co336 N339 2.121 . S
Co336 O344 2.055 . S
Co336 O347 2.039 . S
Co336 N350 2.140 . S
C337 O338 1.227 . S
C337 O347 1.265 . S
O338 C337 1.227 . S
N339 Co336 2.121 . S
N339 C341 1.375 . S
N339 C342 1.313 . S
C340 C341 1.338 . S
C340 N343 1.377 . S
C340 H360 0.930 . S
C341 N339 1.375 . S
C341 C340 1.338 . S
C341 H345 0.931 . S
C342 N339 1.313 . S
C342 N343 1.344 . S
C342 H346 0.930 . S
N343 C340 1.377 . S
N343 C342 1.344 . S
O344 Co336 2.055 . S
O344 C348 1.253 . S
H345 C341 0.931 . S
H346 C342 0.930 . S
O347 Co336 2.039 . S
O347 C337 1.265 . S
C348 O344 1.253 . S
C348 O349 1.227 . S
O349 C348 1.227 . S
N350 Co336 2.140 . S
N350 C353 1.346 . S
N350 C354 1.345 . S
C351 C352 1.387 . S
C351 C355 1.391 . S
C352 C351 1.387 . S
C352 C353 1.369 . S
C352 H361 0.929 . S
C353 N350 1.346 . S
C353 C352 1.369 . S
C353 H356 0.928 . S
C354 N350 1.345 . S
C354 C355 1.371 . S
C354 H357 0.931 . S
C355 C351 1.391 . S
C355 C354 1.371 . S
C355 H362 0.930 . S
H356 C353 0.928 . S
H357 C354 0.931 . S
H358 C334 0.930 . S
H359 C331 0.930 . S
H360 C340 0.930 . S
H361 C352 0.929 . S
H362 C355 0.930 . S
C363 C364 1.351 . S
C363 N366 1.366 1_655 S
C363 H368 0.931 . S
C364 C363 1.351 . S
C364 N365 1.373 . S
C364 H392 0.930 . S
N365 C364 1.373 . S
N365 C367 1.340 1_655 S
N366 C363 1.366 1_455 S
N366 C367 1.323 . S
N366 Co369 2.135 . S
C367 N365 1.340 1_455 S
C367 N366 1.323 . S
C367 H391 0.930 . S
H368 C363 0.931 . S
Co369 N366 2.135 . S
Co369 N372 2.121 . S
Co369 O377 2.055 . S
Co369 O380 2.039 . S
Co369 N383 2.140 1_455 S
C370 O371 1.227 . S
C370 O380 1.265 . S
O371 C370 1.227 . S
N372 Co369 2.121 . S
N372 C374 1.375 . S
N372 C375 1.313 . S
C373 C374 1.338 . S
C373 N376 1.377 . S
C373 H393 0.930 . S
C374 N372 1.375 . S
C374 C373 1.338 . S
C374 H378 0.931 . S
C375 N372 1.313 . S
C375 N376 1.344 . S
C375 H379 0.930 . S
N376 C373 1.377 . S
N376 C375 1.344 . S
O377 Co369 2.055 . S
O377 C381 1.253 . S
H378 C374 0.931 . S
H379 C375 0.930 . S
O380 Co369 2.039 . S
O380 C370 1.265 . S
C381 O377 1.253 . S
C381 O382 1.227 1_455 S
O382 C381 1.227 1_655 S
N383 Co369 2.140 1_655 S
N383 C386 1.346 . S
N383 C387 1.345 . S
C384 C385 1.387 . S
C384 C388 1.391 . S
C385 C384 1.387 . S
C385 C386 1.369 . S
C385 H394 0.929 . S
C386 N383 1.346 . S
C386 C385 1.369 . S
C386 H389 0.928 . S
C387 N383 1.345 . S
C387 C388 1.371 . S
C387 H390 0.931 . S
C388 C384 1.391 . S
C388 C387 1.371 . S
C388 H395 0.930 . S
H389 C386 0.928 . S
H390 C387 0.931 . S
H391 C367 0.930 . S
H392 C364 0.930 . S
H393 C373 0.930 . S
H394 C385 0.929 . S
H395 C388 0.930 . S
H396 C402 0.930 . S
H397 C405 0.930 . S
H398 C406 0.930 . S
H399 C407 0.930 . S
H400 C410 0.930 . S
H401 C411 0.930 . S
C402 H396 0.930 . S
C402 C403 1.355 . S
C402 C404 1.415 1_565 S
C403 C402 1.355 . S
C403 C405 1.419 . S
C404 C402 1.415 1_545 S
C404 C409 1.425 1_546 S
C404 C411 1.409 . S
C405 H397 0.930 . S
C405 C403 1.419 . S
C405 C406 1.362 1_556 S
C406 H398 0.930 . S
C406 C405 1.362 1_554 S
C406 C409 1.409 . S
C407 H399 0.930 . S
C407 C408 1.355 . S
C407 C409 1.415 1_545 S
C408 C407 1.355 . S
C408 C410 1.419 . S
C409 C404 1.425 1_564 S
C409 C406 1.409 . S
C409 C407 1.415 1_565 S
C410 H400 0.930 . S
C410 C408 1.419 . S
C410 C411 1.362 1_554 S
C411 H401 0.930 . S
C411 C404 1.409 . S
C411 C410 1.362 1_556 S
H412 C418 0.930 . S
H413 C421 0.930 . S
H414 C422 0.930 . S
H415 C423 0.930 . S
H416 C426 0.930 . S
H417 C427 0.930 . S
C418 H412 0.930 . S
C418 C419 1.355 . S
C418 C420 1.415 . S
C419 C418 1.355 . S
C419 C421 1.419 . S
C420 C418 1.415 . S
C420 C425 1.425 . S
C420 C427 1.409 . S
C421 H413 0.930 . S
C421 C419 1.419 . S
C421 C422 1.362 . S
C422 H414 0.930 . S
C422 C421 1.362 . S
C422 C425 1.409 . S
C423 H415 0.930 . S
C423 C424 1.355 . S
C423 C425 1.415 . S
C424 C423 1.355 . S
C424 C426 1.419 . S
C425 C420 1.425 . S
C425 C422 1.409 . S
C425 C423 1.415 . S
C426 H416 0.930 . S
C426 C424 1.419 . S
C426 C427 1.362 . S
C427 H417 0.930 . S
C427 C420 1.409 . S
C427 C426 1.362 . S
H428 C434 0.930 . S
H429 C437 0.930 . S
H430 C438 0.930 . S
H431 C439 0.930 . S
H432 C442 0.930 . S
H433 C443 0.930 . S
C434 H428 0.930 . S
C434 C435 1.355 . S
C434 C436 1.415 1_655 S
C435 C434 1.355 . S
C435 C437 1.419 . S
C436 C434 1.415 1_455 S
C436 C441 1.425 1_455 S
C436 C443 1.409 . S
C437 H429 0.930 . S
C437 C435 1.419 . S
C437 C438 1.362 . S
C438 H430 0.930 . S
C438 C437 1.362 . S
C438 C441 1.409 . S
C439 H431 0.930 . S
C439 C440 1.355 . S
C439 C441 1.415 1_455 S
C440 C439 1.355 . S
C440 C442 1.419 . S
C441 C436 1.425 1_655 S
C441 C438 1.409 . S
C441 C439 1.415 1_655 S
C442 H432 0.930 . S
C442 C440 1.419 . S
C442 C443 1.362 . S
C443 H433 0.930 . S
C443 C436 1.409 . S
C443 C442 1.362 . S
H444 C450 0.930 . S
H445 C453 0.930 . S
H446 C454 0.930 . S
H447 C455 0.930 . S
H448 C458 0.930 . S
H449 C459 0.930 . S
C450 H444 0.930 . S
C450 C451 1.355 . S
C450 C452 1.415 1_545 S
C451 C450 1.355 . S
C451 C453 1.419 . S
C452 C450 1.415 1_565 S
C452 C457 1.425 1_565 S
C452 C459 1.409 . S
C453 H445 0.930 . S
C453 C451 1.419 . S
C453 C454 1.362 . S
C454 H446 0.930 . S
C454 C453 1.362 . S
C454 C457 1.409 . S
C455 H447 0.930 . S
C455 C456 1.355 . S
C455 C457 1.415 1_565 S
C456 C455 1.355 . S
C456 C458 1.419 . S
C457 C452 1.425 1_545 S
C457 C454 1.409 . S
C457 C455 1.415 1_545 S
C458 H448 0.930 . S
C458 C456 1.419 . S
C458 C459 1.362 . S
C459 H449 0.930 . S
C459 C452 1.409 . S
C459 C458 1.362 . S
H460 C466 0.930 . S
H461 C469 0.930 . S
H462 C470 0.930 . S
H463 C471 0.930 . S
H464 C474 0.930 . S
H465 C475 0.930 . S
C466 H460 0.930 . S
C466 C467 1.355 . S
C466 C468 1.415 . S
C467 C466 1.355 . S
C467 C469 1.419 . S
C468 C466 1.415 . S
C468 C473 1.425 . S
C468 C475 1.409 . S
C469 H461 0.930 . S
C469 C467 1.419 . S
C469 C470 1.362 . S
C470 H462 0.930 . S
C470 C469 1.362 . S
C470 C473 1.409 . S
C471 H463 0.930 . S
C471 C472 1.355 . S
C471 C473 1.415 . S
C472 C471 1.355 . S
C472 C474 1.419 . S
C473 C468 1.425 . S
C473 C470 1.409 . S
C473 C471 1.415 . S
C474 H464 0.930 . S
C474 C472 1.419 . S
C474 C475 1.362 . S
C475 H465 0.930 . S
C475 C468 1.409 . S
C475 C474 1.362 . S
H476 C482 0.930 . S
H477 C485 0.930 . S
H478 C486 0.930 . S
H479 C487 0.930 . S
H480 C490 0.930 . S
H481 C491 0.930 . S
C482 H476 0.930 . S
C482 C483 1.355 . S
C482 C484 1.415 . S
C483 C482 1.355 . S
C483 C485 1.419 . S
C484 C482 1.415 . S
C484 C489 1.425 1_655 S
C484 C491 1.409 1_655 S
C485 H477 0.930 . S
C485 C483 1.419 . S
C485 C486 1.362 . S
C486 H478 0.930 . S
C486 C485 1.362 . S
C486 C489 1.409 1_655 S
C487 H479 0.930 . S
C487 C488 1.355 . S
C487 C489 1.415 . S
C488 C487 1.355 . S
C488 C490 1.419 . S
C489 C484 1.425 1_455 S
C489 C486 1.409 1_455 S
C489 C487 1.415 . S
C490 H480 0.930 . S
C490 C488 1.419 . S
C490 C491 1.362 . S
C491 H481 0.930 . S
C491 C484 1.409 1_455 S
C491 C490 1.362 . S
H492 C498 0.930 1_655 S
H493 C501 0.930 . S
H494 C502 0.930 . S
H495 C503 0.930 . S
H496 C506 0.931 . S
H497 C507 0.930 . S
C498 H492 0.930 1_455 S
C498 C499 1.355 . S
C498 C500 1.415 . S
C499 C498 1.355 . S
C499 C501 1.419 . S
C500 C498 1.415 . S
C500 C505 1.425 . S
C500 C507 1.409 1_455 S
C501 H493 0.930 . S
C501 C499 1.419 . S
C501 C502 1.362 . S
C502 H494 0.930 . S
C502 C501 1.362 . S
C502 C505 1.409 . S
C503 H495 0.930 . S
C503 C504 1.355 . S
C503 C505 1.415 1_565 S
C504 C503 1.355 . S
C504 C506 1.415 1_455 S
C505 C500 1.425 . S
C505 C502 1.409 . S
C505 C503 1.415 1_545 S
C506 H496 0.931 . S
C506 C504 1.415 1_655 S
C506 C507 1.365 1_565 S
C507 H497 0.930 . S
C507 C500 1.409 1_655 S
C507 C506 1.365 1_545 S
H508 C514 0.930 1_455 S
H509 C517 0.930 . S
H510 C518 0.930 . S
H511 C519 0.930 1_565 S
H512 C522 0.930 . S
H513 C523 0.930 . S
C514 H508 0.930 1_655 S
C514 C515 1.355 . S
C514 C516 1.415 1_655 S
C515 C514 1.355 . S
C515 C517 1.419 1_545 S
C516 C514 1.415 1_455 S
C516 C521 1.425 . S
C516 C523 1.409 . S
C517 H509 0.930 . S
C517 C515 1.419 1_565 S
C517 C518 1.362 . S
C518 H510 0.930 . S
C518 C517 1.362 . S
C518 C521 1.409 1_665 S
C519 H511 0.930 1_545 S
C519 C520 1.355 . S
C519 C521 1.415 . S
C520 C519 1.355 . S
C520 C522 1.419 . S
C521 C516 1.425 . S
C521 C518 1.409 1_445 S
C521 C519 1.415 . S
C522 H512 0.930 . S
C522 C520 1.419 . S
C522 C523 1.362 . S
C523 H513 0.930 . S
C523 C516 1.409 . S
C523 C522 1.362 . S
H524 C530 0.930 . S
H525 C533 0.927 1_655 S
H526 C534 0.930 . S
H527 C535 0.930 . S
H528 C538 0.930 . S
H529 C539 0.930 1_545 S
C530 H524 0.930 . S
C530 C531 1.355 . S
C530 C532 1.415 . S
C531 C530 1.355 . S
C531 C533 1.426 . S
C532 C530 1.415 . S
C532 C537 1.425 1_455 S
C532 C539 1.409 1_545 S
C533 H525 0.927 1_455 S
C533 C531 1.426 . S
C533 C534 1.358 1_455 S
C534 H526 0.930 . S
C534 C533 1.358 1_655 S
C534 C537 1.409 . S
C535 H527 0.930 . S
C535 C536 1.355 . S
C535 C537 1.415 1_565 S
C536 C535 1.355 . S
C536 C538 1.419 . S
C537 C532 1.425 1_655 S
C537 C534 1.409 . S
C537 C535 1.415 1_545 S
C538 H528 0.930 . S
C538 C536 1.419 . S
C538 C539 1.362 1_655 S
C539 H529 0.930 1_565 S
C539 C532 1.409 1_565 S
C539 C538 1.362 1_455 S
H540 C546 0.930 . S
H541 C549 0.930 . S
H542 C550 0.930 . S
H543 C551 0.930 . S
H544 C554 0.930 . S
H545 C555 0.930 . S
C546 H540 0.930 . S
C546 C547 1.355 1_455 S
C546 C548 1.415 1_445 S
C547 C546 1.355 1_655 S
C547 C549 1.419 . S
C548 C546 1.415 1_665 S
C548 C553 1.425 . S
C548 C555 1.409 1_655 S
C549 H541 0.930 . S
C549 C547 1.419 . S
C549 C550 1.362 1_545 S
C550 H542 0.930 . S
C550 C549 1.362 1_565 S
C550 C553 1.409 . S
C551 H543 0.930 . S
C551 C552 1.355 . S
C551 C553 1.415 . S
C552 C551 1.355 . S
C552 C554 1.419 1_655 S
C553 C548 1.425 . S
C553 C550 1.409 . S
C553 C551 1.415 . S
C554 H544 0.930 . S
C554 C552 1.419 1_455 S
C554 C555 1.362 . S
C555 H545 0.930 . S
C555 C548 1.409 1_455 S
C555 C554 1.362 . S
H556 C562 0.930 . S
H557 C565 0.930 . S
H558 C566 0.930 . S
H559 C567 0.930 . S
H560 C570 0.930 . S
H561 C571 0.930 . S
C562 H556 0.930 . S
C562 C563 1.355 . S
C562 C564 1.415 . S
C563 C562 1.355 . S
C563 C565 1.419 . S
C564 C562 1.415 . S
C564 C569 1.425 1_455 S
C564 C571 1.409 . S
C565 H557 0.930 . S
C565 C563 1.419 . S
C565 C566 1.362 1_455 S
C566 H558 0.930 . S
C566 C565 1.362 1_655 S
C566 C569 1.409 . S
C567 H559 0.930 . S
C567 C568 1.355 . S
C567 C569 1.415 . S
C568 C567 1.355 . S
C568 C570 1.419 . S
C569 C564 1.425 1_655 S
C569 C566 1.409 . S
C569 C567 1.415 . S
C570 H560 0.930 . S
C570 C568 1.419 . S
C570 C571 1.362 1_655 S
C571 H561 0.930 . S
C571 C564 1.409 . S
C571 C570 1.362 1_455 S
H572 C578 0.930 . S
H573 C581 0.930 . S
H574 C582 0.915 1_545 S
H575 C583 0.930 . S
H576 C586 0.930 . S
H577 C587 0.930 . S
C578 H572 0.930 . S
C578 C579 1.355 . S
C578 C580 1.415 1_655 S
C579 C578 1.355 . S
C579 C581 1.419 . S
C580 C578 1.415 1_455 S
C580 C585 1.425 1_565 S
C580 C587 1.409 . S
C581 H573 0.930 . S
C581 C579 1.419 . S
C581 C582 1.371 . S
C582 H574 0.915 1_565 S
C582 C581 1.371 . S
C582 C585 1.415 1_665 S
C583 H575 0.930 . S
C583 C584 1.355 . S
C583 C585 1.415 . S
C584 C583 1.355 . S
C584 C586 1.419 . S
C585 C580 1.425 1_545 S
C585 C582 1.415 1_445 S
C585 C583 1.415 . S
C586 H576 0.930 . S
C586 C584 1.419 . S
C586 C587 1.362 1_545 S
C587 H577 0.930 . S
C587 C580 1.409 . S
C587 C586 1.362 1_565 S
H588 C594 0.980 . S
H589 C597 0.930 . S
H590 C598 0.930 . S
H591 C599 0.930 1_556 S
H592 C602 0.930 . S
H593 C603 0.930 . S
C594 H588 0.980 . S
C594 C595 1.280 1_554 S
C594 C596 1.446 . S
C595 C594 1.280 1_556 S
C595 C597 1.419 . S
C596 C594 1.446 . S
C596 C601 1.425 1_554 S
C596 C603 1.409 . S
C597 H589 0.930 . S
C597 C595 1.419 . S
C597 C598 1.362 . S
C598 H590 0.930 . S
C598 C597 1.362 . S
C598 C601 1.409 . S
C599 H591 0.930 1_554 S
C599 C600 1.355 . S
C599 C601 1.415 1_554 S
C600 C599 1.355 . S
C600 C602 1.419 . S
C601 C596 1.425 1_556 S
C601 C598 1.409 . S
C601 C599 1.415 1_556 S
C602 H592 0.930 . S
C602 C600 1.419 . S
C602 C603 1.362 . S
C603 H593 0.930 . S
C603 C596 1.409 . S
C603 C602 1.362 . S
H604 C610 0.930 . S
H605 C613 0.930 . S
H606 C614 0.930 . S
H607 C615 0.930 . S
H608 C618 0.930 . S
H609 C619 0.930 . S
C610 H604 0.930 . S
C610 C611 1.355 . S
C610 C612 1.415 . S
C611 C610 1.355 . S
C611 C613 1.419 . S
C612 C610 1.415 . S
C612 C617 1.425 . S
C612 C619 1.409 . S
C613 H605 0.930 . S
C613 C611 1.419 . S
C613 C614 1.362 . S
C614 H606 0.930 . S
C614 C613 1.362 . S
C614 C617 1.409 . S
C615 H607 0.930 . S
C615 C616 1.355 . S
C615 C617 1.415 . S
C616 C615 1.355 . S
C616 C618 1.419 . S
C617 C612 1.425 . S
C617 C614 1.409 . S
C617 C615 1.415 . S
C618 H608 0.930 . S
C618 C616 1.419 . S
C618 C619 1.362 . S
C619 H609 0.930 . S
C619 C612 1.409 . S
C619 C618 1.362 . S
H620 C626 0.930 . S
H621 C629 0.930 . S
H622 C630 0.930 . S
H623 C631 0.930 . S
H624 C634 0.930 . S
H625 C635 0.930 . S
C626 H620 0.930 . S
C626 C627 1.355 . S
C626 C628 1.415 . S
C627 C626 1.355 . S
C627 C629 1.419 . S
C628 C626 1.415 . S
C628 C633 1.425 . S
C628 C635 1.409 . S
C629 H621 0.930 . S
C629 C627 1.419 . S
C629 C630 1.362 . S
C630 H622 0.930 . S
C630 C629 1.362 . S
C630 C633 1.409 . S
C631 H623 0.930 . S
C631 C632 1.355 . S
C631 C633 1.415 . S
C632 C631 1.355 . S
C632 C634 1.419 . S
C633 C628 1.425 . S
C633 C630 1.409 . S
C633 C631 1.415 . S
C634 H624 0.930 . S
C634 C632 1.419 . S
C634 C635 1.362 . S
C635 H625 0.930 . S
C635 C628 1.409 . S
C635 C634 1.362 . S
H636 C642 0.930 . S
H637 C645 0.930 . S
H638 C646 0.930 . S
H639 C647 0.930 . S
H640 C650 0.930 . S
H641 C651 0.930 . S
C642 H636 0.930 . S
C642 C643 1.355 . S
C642 C644 1.415 . S
C643 C642 1.355 . S
C643 C645 1.419 . S
C644 C642 1.415 . S
C644 C649 1.425 . S
C644 C651 1.409 . S
C645 H637 0.930 . S
C645 C643 1.419 . S
C645 C646 1.362 . S
C646 H638 0.930 . S
C646 C645 1.362 . S
C646 C649 1.409 . S
C647 H639 0.930 . S
C647 C648 1.355 . S
C647 C649 1.415 . S
C648 C647 1.355 . S
C648 C650 1.419 . S
C649 C644 1.425 . S
C649 C646 1.409 . S
C649 C647 1.415 . S
C650 H640 0.930 . S
C650 C648 1.419 . S
C650 C651 1.362 . S
C651 H641 0.930 . S
C651 C644 1.409 . S
C651 C650 1.362 . S
H652 C658 0.930 . S
H653 C661 0.930 . S
H654 C662 0.930 . S
H655 C663 0.930 . S
H656 C666 0.930 . S
H657 C667 0.930 . S
C658 H652 0.930 . S
C658 C659 1.355 . S
C658 C660 1.415 . S
C659 C658 1.355 . S
C659 C661 1.419 . S
C660 C658 1.415 . S
C660 C665 1.425 . S
C660 C667 1.409 . S
C661 H653 0.930 . S
C661 C659 1.419 . S
C661 C662 1.362 . S
C662 H654 0.930 . S
C662 C661 1.362 . S
C662 C665 1.409 . S
C663 H655 0.930 . S
C663 C664 1.355 . S
C663 C665 1.415 . S
C664 C663 1.355 . S
C664 C666 1.419 . S
C665 C660 1.425 . S
C665 C662 1.409 . S
C665 C663 1.415 . S
C666 H656 0.930 . S
C666 C664 1.419 . S
C666 C667 1.362 . S
C667 H657 0.930 . S
C667 C660 1.409 . S
C667 C666 1.362 . S
H668 C674 0.930 . S
H669 C677 0.930 . S
H670 C678 0.930 . S
H671 C679 0.930 . S
H672 C682 0.930 . S
H673 C683 0.930 . S
C674 H668 0.930 . S
C674 C675 1.355 . S
C674 C676 1.415 . S
C675 C674 1.355 . S
C675 C677 1.419 . S
C676 C674 1.415 . S
C676 C681 1.425 . S
C676 C683 1.409 . S
C677 H669 0.930 . S
C677 C675 1.419 . S
C677 C678 1.362 . S
C678 H670 0.930 . S
C678 C677 1.362 . S
C678 C681 1.409 . S
C679 H671 0.930 . S
C679 C680 1.355 . S
C679 C681 1.415 . S
C680 C679 1.355 . S
C680 C682 1.419 . S
C681 C676 1.425 . S
C681 C678 1.409 . S
C681 C679 1.415 . S
C682 H672 0.930 . S
C682 C680 1.419 . S
C682 C683 1.362 . S
C683 H673 0.930 . S
C683 C676 1.409 . S
C683 C682 1.362 . S
H684 C690 0.930 . S
H685 C693 0.930 . S
H686 C694 0.930 . S
H687 C695 0.930 . S
H688 C698 0.930 . S
H689 C699 0.930 . S
C690 H684 0.930 . S
C690 C691 1.355 . S
C690 C692 1.415 . S
C691 C690 1.355 . S
C691 C693 1.419 . S
C692 C690 1.415 . S
C692 C697 1.425 . S
C692 C699 1.409 . S
C693 H685 0.930 . S
C693 C691 1.419 . S
C693 C694 1.362 . S
C694 H686 0.930 . S
C694 C693 1.362 . S
C694 C697 1.409 . S
C695 H687 0.930 . S
C695 C696 1.355 . S
C695 C697 1.415 . S
C696 C695 1.355 . S
C696 C698 1.419 . S
C697 C692 1.425 . S
C697 C694 1.409 . S
C697 C695 1.415 . S
C698 H688 0.930 . S
C698 C696 1.419 . S
C698 C699 1.362 . S
C699 H689 0.930 . S
C699 C692 1.409 . S
C699 C698 1.362 . S
H700 C706 0.930 . S
H701 C709 0.930 . S
H702 C710 0.924 1_556 S
H703 C711 0.930 . S
H704 C714 0.930 . S
H705 C715 0.930 . S
C706 H700 0.930 . S
C706 C707 1.355 . S
C706 C708 1.416 1_554 S
C707 C706 1.355 . S
C707 C709 1.419 . S
C708 C706 1.416 1_556 S
C708 C713 1.424 . S
C708 C715 1.408 . S
C709 H701 0.930 . S
C709 C707 1.419 . S
C709 C710 1.378 . S
C710 H702 0.924 1_554 S
C710 C709 1.378 . S
C710 C713 1.400 1_554 S
C711 H703 0.930 . S
C711 C712 1.355 . S
C711 C713 1.415 . S
C712 C711 1.355 . S
C712 C714 1.419 . S
C713 C708 1.424 . S
C713 C710 1.400 1_556 S
C713 C711 1.415 . S
C714 H704 0.930 . S
C714 C712 1.419 . S
C714 C715 1.362 . S
C715 H705 0.930 . S
C715 C708 1.408 . S
C715 C714 1.362 . S
H716 C722 0.930 . S
H717 C725 0.930 . S
H718 C726 0.930 . S
H719 C727 0.930 . S
H720 C730 0.930 . S
H721 C731 0.930 . S
C722 H716 0.930 . S
C722 C723 1.355 . S
C722 C724 1.415 . S
C723 C722 1.355 . S
C723 C725 1.419 . S
C724 C722 1.415 . S
C724 C729 1.425 . S
C724 C731 1.409 . S
C725 H717 0.930 . S
C725 C723 1.419 . S
C725 C726 1.362 . S
C726 H718 0.930 . S
C726 C725 1.362 . S
C726 C729 1.409 . S
C727 H719 0.930 . S
C727 C728 1.355 . S
C727 C729 1.415 . S
C728 C727 1.355 . S
C728 C730 1.419 . S
C729 C724 1.425 . S
C729 C726 1.409 . S
C729 C727 1.415 . S
C730 H720 0.930 . S
C730 C728 1.419 . S
C730 C731 1.362 . S
C731 H721 0.930 . S
C731 C724 1.409 . S
C731 C730 1.362 . S
H732 C738 0.930 . S
H733 C741 0.930 . S
H734 C742 0.930 . S
H735 C743 0.930 . S
H736 C746 0.930 . S
H737 C747 0.930 . S
C738 H732 0.930 . S
C738 C739 1.355 . S
C738 C740 1.415 . S
C739 C738 1.355 . S
C739 C741 1.419 . S
C740 C738 1.415 . S
C740 C745 1.425 . S
C740 C747 1.409 . S
C741 H733 0.930 . S
C741 C739 1.419 . S
C741 C742 1.362 . S
C742 H734 0.930 . S
C742 C741 1.362 . S
C742 C745 1.409 . S
C743 H735 0.930 . S
C743 C744 1.355 . S
C743 C745 1.415 . S
C744 C743 1.355 . S
C744 C746 1.419 . S
C745 C740 1.425 . S
C745 C742 1.409 . S
C745 C743 1.415 . S
C746 H736 0.930 . S
C746 C744 1.419 . S
C746 C747 1.362 . S
C747 H737 0.930 . S
C747 C740 1.409 . S
C747 C746 1.362 . S
H748 C754 0.930 . S
H749 C757 0.930 . S
H750 C758 0.930 . S
H751 C759 0.930 . S
H752 C762 0.930 . S
H753 C763 0.930 . S
C754 H748 0.930 . S
C754 C755 1.355 . S
C754 C756 1.415 . S
C755 C754 1.355 . S
C755 C757 1.419 . S
C756 C754 1.415 . S
C756 C761 1.425 . S
C756 C763 1.409 . S
C757 H749 0.930 . S
C757 C755 1.419 . S
C757 C758 1.362 . S
C758 H750 0.930 . S
C758 C757 1.362 . S
C758 C761 1.409 . S
C759 H751 0.930 . S
C759 C760 1.355 . S
C759 C761 1.415 . S
C760 C759 1.355 . S
C760 C762 1.419 . S
C761 C756 1.425 . S
C761 C758 1.409 . S
C761 C759 1.415 . S
C762 H752 0.930 . S
C762 C760 1.419 . S
C762 C763 1.362 . S
C763 H753 0.930 . S
C763 C756 1.409 . S
C763 C762 1.362 . S
H764 C770 0.930 . S
H765 C773 0.930 . S
H766 C774 0.930 . S
H767 C775 0.930 . S
H768 C778 0.930 . S
H769 C779 0.930 . S
C770 H764 0.930 . S
C770 C771 1.355 . S
C770 C772 1.415 . S
C771 C770 1.355 . S
C771 C773 1.419 . S
C772 C770 1.415 . S
C772 C777 1.425 . S
C772 C779 1.409 . S
C773 H765 0.930 . S
C773 C771 1.419 . S
C773 C774 1.362 . S
C774 H766 0.930 . S
C774 C773 1.362 . S
C774 C777 1.409 . S
C775 H767 0.930 . S
C775 C776 1.355 . S
C775 C777 1.415 . S
C776 C775 1.355 . S
C776 C778 1.419 . S
C777 C772 1.425 . S
C777 C774 1.409 . S
C777 C775 1.415 . S
C778 H768 0.930 . S
C778 C776 1.419 . S
C778 C779 1.362 . S
C779 H769 0.930 . S
C779 C772 1.409 . S
C779 C778 1.362 . S
H780 C786 0.930 . S
H781 C789 0.930 . S
H782 C790 0.930 . S
H783 C791 0.930 . S
H784 C794 0.930 1_455 S
H785 C795 0.930 . S
C786 H780 0.930 . S
C786 C787 1.355 . S
C786 C788 1.415 . S
C787 C786 1.355 . S
C787 C789 1.419 . S
C788 C786 1.415 . S
C788 C793 1.425 . S
C788 C795 1.409 1_655 S
C789 H781 0.930 . S
C789 C787 1.419 . S
C789 C790 1.362 . S
C790 H782 0.930 . S
C790 C789 1.362 . S
C790 C793 1.409 . S
C791 H783 0.930 . S
C791 C792 1.355 . S
C791 C793 1.415 . S
C792 C791 1.355 . S
C792 C794 1.419 . S
C793 C788 1.425 . S
C793 C790 1.409 . S
C793 C791 1.415 . S
C794 H784 0.930 1_655 S
C794 C792 1.419 . S
C794 C795 1.362 1_655 S
C795 H785 0.930 . S
C795 C788 1.409 1_455 S
C795 C794 1.362 1_455 S
H796 C802 0.930 . S
H797 C805 0.930 . S
H798 C806 0.930 . S
H799 C807 0.930 . S
H800 C810 0.930 . S
H801 C811 0.930 . S
C802 H796 0.930 . S
C802 C803 1.355 . S
C802 C804 1.415 . S
C803 C802 1.355 . S
C803 C805 1.419 . S
C804 C802 1.415 . S
C804 C809 1.425 . S
C804 C811 1.409 . S
C805 H797 0.930 . S
C805 C803 1.419 . S
C805 C806 1.362 . S
C806 H798 0.930 . S
C806 C805 1.362 . S
C806 C809 1.409 . S
C807 H799 0.930 . S
C807 C808 1.355 . S
C807 C809 1.415 . S
C808 C807 1.355 . S
C808 C810 1.419 . S
C809 C804 1.425 . S
C809 C806 1.409 . S
C809 C807 1.415 . S
C810 H800 0.930 . S
C810 C808 1.419 . S
C810 C811 1.362 . S
C811 H801 0.930 . S
C811 C804 1.409 . S
C811 C810 1.362 . S
H812 C818 0.930 . S
H813 C821 0.930 . S
H814 C822 0.930 . S
H815 C823 0.930 . S
H816 C826 0.930 . S
H817 C827 0.930 . S
C818 H812 0.930 . S
C818 C819 1.355 . S
C818 C820 1.415 . S
C819 C818 1.355 . S
C819 C821 1.419 . S
C820 C818 1.415 . S
C820 C825 1.425 . S
C820 C827 1.409 . S
C821 H813 0.930 . S
C821 C819 1.419 . S
C821 C822 1.362 . S
C822 H814 0.930 . S
C822 C821 1.362 . S
C822 C825 1.409 . S
C823 H815 0.930 . S
C823 C824 1.355 . S
C823 C825 1.415 . S
C824 C823 1.355 . S
C824 C826 1.419 . S
C825 C820 1.425 . S
C825 C822 1.409 . S
C825 C823 1.415 . S
C826 H816 0.930 . S
C826 C824 1.419 . S
C826 C827 1.362 . S
C827 H817 0.930 . S
C827 C820 1.409 . S
C827 C826 1.362 . S
H828 C834 0.930 . S
H829 C837 0.930 1_655 S
H830 C838 0.930 . S
H831 C839 0.930 1_655 S
H832 C842 0.930 . S
H833 C843 0.930 . S
C834 H828 0.930 . S
C834 C835 1.355 . S
C834 C836 1.415 . S
C835 C834 1.355 . S
C835 C837 1.419 . S
C836 C834 1.415 . S
C836 C841 1.425 . S
C836 C843 1.409 . S
C837 H829 0.930 1_455 S
C837 C835 1.419 . S
C837 C838 1.362 1_455 S
C838 H830 0.930 . S
C838 C837 1.362 1_655 S
C838 C841 1.409 1_655 S
C839 H831 0.930 1_455 S
C839 C840 1.355 . S
C839 C841 1.415 . S
C840 C839 1.355 . S
C840 C842 1.419 . S
C841 C836 1.425 . S
C841 C838 1.409 1_455 S
C841 C839 1.415 . S
C842 H832 0.930 . S
C842 C840 1.419 . S
C842 C843 1.362 . S
C843 H833 0.930 . S
C843 C836 1.409 . S
C843 C842 1.362 . S
H844 C850 0.930 . S
H845 C853 0.930 1_565 S
H846 C854 0.941 . S
H847 C855 0.930 1_565 S
H848 C858 0.930 . S
H849 C859 0.930 . S
C850 H844 0.930 . S
C850 C851 1.355 . S
C850 C852 1.415 . S
C851 C850 1.355 . S
C851 C853 1.419 . S
C852 C850 1.415 . S
C852 C857 1.425 . S
C852 C859 1.409 . S
C853 H845 0.930 1_545 S
C853 C851 1.419 . S
C853 C854 1.355 1_545 S
C854 H846 0.941 . S
C854 C853 1.355 1_565 S
C854 C857 1.405 1_565 S
C855 H847 0.930 1_545 S
C855 C856 1.355 . S
C855 C857 1.415 . S
C856 C855 1.355 . S
C856 C858 1.419 . S
C857 C852 1.425 . S
C857 C854 1.405 1_545 S
C857 C855 1.415 . S
C858 H848 0.930 . S
C858 C856 1.419 . S
C858 C859 1.362 . S
C859 H849 0.930 . S
C859 C852 1.409 . S
C859 C858 1.362 . S
H860 C866 0.930 . S
H861 C869 0.930 . S
H862 C870 0.930 . S
H863 C871 0.930 . S
H864 C874 0.930 . S
H865 C875 0.930 . S
C866 H860 0.930 . S
C866 C867 1.355 . S
C866 C868 1.415 . S
C867 C866 1.355 . S
C867 C869 1.419 . S
C868 C866 1.415 . S
C868 C873 1.425 . S
C868 C875 1.409 . S
C869 H861 0.930 . S
C869 C867 1.419 . S
C869 C870 1.362 . S
C870 H862 0.930 . S
C870 C869 1.362 . S
C870 C873 1.409 . S
C871 H863 0.930 . S
C871 C872 1.355 . S
C871 C873 1.415 . S
C872 C871 1.355 . S
C872 C874 1.419 . S
C873 C868 1.425 . S
C873 C870 1.409 . S
C873 C871 1.415 . S
C874 H864 0.930 . S
C874 C872 1.419 . S
C874 C875 1.362 . S
C875 H865 0.930 . S
C875 C868 1.409 . S
C875 C874 1.362 . S
C403 C238 1.461 . S
C408 C7 1.513 . S
C419 C271 1.462 . S
C424 C40 1.516 . S
C435 C73 1.461 . S
C440 C304 1.510 . S
C451 C337 1.474 . S
C456 C106 1.491 . S
C467 C139 1.481 . S
C472 C370 1.484 . S
C483 C205 1.504 . S
C488 C172 1.464 . S
C499 N2 1.733 . S
C504 N266 1.718 . S
C515 N35 1.687 . S
C520 N299 1.706 . S
C531 N332 1.729 . S
C536 N68 1.710 . S
C547 N365 1.693 . S
C552 N101 1.679 . S
C563 N134 1.737 . S
C568 N200 1.730 . S
C579 N233 1.706 . S
C584 N167 1.726 . S
C595 N244 1.200 . S
C600 C21 1.198 . S
C611 N277 1.153 . S
C616 C54 1.200 . S
C627 N310 1.154 . S
C632 C87 1.201 . S
C643 C120 1.177 . S
C648 N343 1.194 . S
C659 N376 1.208 . S
C664 C153 1.186 . S
C675 C186 1.204 . S
C680 N211 1.159 . S
C691 C219 1.177 . S
C696 N178 1.188 . S
C707 N13 1.173 . S
C712 C252 1.206 . S
C723 N46 1.158 . S
C728 C285 1.203 . S
C739 N79 1.162 . S
C744 C318 1.204 . S
C755 N112 1.153 . S
C760 C351 1.200 . S
C771 N145 1.155 . S
C776 C384 1.187 . S
C787 C282 1.485 . S
C792 C18 1.459 . S
C803 C51 1.472 . S
C808 C315 1.463 . S
C819 C348 1.492 . S
C824 C84 1.498 . S
C835 C117 1.462 . S
C840 C381 1.473 . S
C851 C150 1.463 . S
C856 C216 1.471 . S
C867 C249 1.480 . S
C872 C183 1.502 . S
