# Generated by pormake.
# Topology hcp, (12)-cn, num edge types: 1
# Building blocks:
#     Node 0, Type 0, BuildingBlock: UKIBUN_clean_sbu_0, # of connection points: 12
#     Node 1, Type 0, BuildingBlock: UKIBUN_clean_sbu_0, # of connection points: 12
#     Edge 2, Type (0, 0), BuildingBlock: CIFDUS_clean_linker_0, # of connection points: 2
#     Edge 3, Type (0, 0), BuildingBlock: CIFDUS_clean_linker_0, # of connection points: 2
#     Edge 4, Type (0, 0), BuildingBlock: CIFDUS_clean_linker_0, # of connection points: 2
#     Edge 5, Type (0, 0), BuildingBlock: CIFDUS_clean_linker_0, # of connection points: 2
#     Edge 6, Type (0, 0), BuildingBlock: CIFDUS_clean_linker_0, # of connection points: 2
#     Edge 7, Type (0, 0), BuildingBlock: CIFDUS_clean_linker_0, # of connection points: 2
#     Edge 8, Type (0, 0), BuildingBlock: CIFDUS_clean_linker_0, # of connection points: 2
#     Edge 9, Type (0, 0), BuildingBlock: CIFDUS_clean_linker_0, # of connection points: 2
#     Edge 10, Type (0, 0), BuildingBlock: CIFDUS_clean_linker_0, # of connection points: 2
#     Edge 11, Type (0, 0), BuildingBlock: CIFDUS_clean_linker_0, # of connection points: 2
#     Edge 12, Type (0, 0), BuildingBlock: CIFDUS_clean_linker_0, # of connection points: 2
#     Edge 13, Type (0, 0), BuildingBlock: CIFDUS_clean_linker_0, # of connection points: 2
# Relax obj value: 0.181
# Max RMSD: 0.266
# Mean RMSD: 0.266
data_MOF--net-hcp--node1-UKIBUN_clean_sbu_0--edge1-CIFDUS_clean_linker_0
_symmetry_space_group_name_H-M    P1
_symmetry_Int_Tables_number       1
_symmetry_cell_setting            triclinic
loop_
_symmetry_equiv_pos_as_xyz
'x, y, z'
_cell_length_a     16.429114
_cell_length_b     16.465708
_cell_length_c     26.078659
_cell_angle_alpha  89.975047
_cell_angle_beta   89.891823
_cell_angle_gamma 120.12627
loop_
_atom_site_label
_atom_site_type_symbol
_atom_site_fract_x
_atom_site_fract_y
_atom_site_fract_z
_atom_type_partial_charge
C0 C 0.93533 0.55816 0.27755 0.0
C1 C 0.88255 0.26863 0.26787 0.0
O2 O 0.73289 0.44742 0.30011 0.0
O3 O 0.64423 0.32441 0.19656 0.0
O4 O 0.60557 0.40785 0.25221 0.0
O5 O 0.76922 0.3618 0.2487 0.0
Hf6 Hf 0.73603 0.45771 0.22133 0.0
O7 O 0.64623 0.31913 0.35023 0.0
Hf8 Hf 0.77956 0.36087 0.32698 0.0
O9 O 0.51886 0.28134 0.30089 0.0
Hf10 Hf 0.60487 0.41252 0.33062 0.0
O11 O 0.68476 0.2338 0.29689 0.0
Hf12 Hf 0.51062 0.28077 0.22235 0.0
Hf13 Hf 0.68701 0.23177 0.21786 0.0
O14 O 0.55912 0.1967 0.24898 0.0
Hf15 Hf 0.55331 0.18611 0.32741 0.0
C16 C 0.51705 0.14956 0.13464 0.0
C17 C 0.76987 0.48481 0.41711 0.0
C18 C 0.40545 0.36958 0.28299 0.0
C19 C 0.69858 0.61201 0.2753 0.0
O20 O 0.73577 0.58945 0.23827 0.0
O21 O 0.82644 0.45234 0.15907 0.0
C22 C 0.83572 0.38487 0.13972 0.0
O23 O 0.55604 0.05526 0.31119 0.0
O24 O 0.38086 0.14302 0.23388 0.0
O25 O 0.51515 0.38195 0.16475 0.0
O26 O 0.48589 0.20023 0.39988 0.0
O27 O 0.76311 0.27427 0.39764 0.0
O28 O 0.91328 0.49326 0.31163 0.0
O29 O 0.82246 0.23487 0.23071 0.0
O30 O 0.58922 0.14844 0.15402 0.0
C31 C 0.48095 0.27098 0.41838 0.0
O32 O 0.47 0.41088 0.31752 0.0
O33 O 0.69198 0.47893 0.40148 0.0
C34 C 0.59732 0.0342 0.27568 0.0
O35 O 0.61165 0.15164 0.39265 0.0
O36 O 0.67077 0.49386 0.15739 0.0
O37 O 0.8809 0.55736 0.24204 0.0
O38 O 0.40649 0.08888 0.30943 0.0
O39 O 0.64459 0.08736 0.23795 0.0
O40 O 0.51672 0.3523 0.39773 0.0
C41 C 0.35627 0.08163 0.2702 0.0
O42 O 0.65353 0.55945 0.31362 0.0
O43 O 0.8141 0.44998 0.394 0.0
O44 O 0.78575 0.29769 0.15279 0.0
O45 O 0.40778 0.31947 0.24596 0.0
O46 O 0.48256 0.1994 0.15147 0.0
O47 O 0.87519 0.31041 0.3076 0.0
C48 C 0.69219 0.19622 0.41426 0.0
C49 C 0.5831 0.45852 0.14552 0.0
C50 C 0.48402 0.69773 0.91463 0.0
C51 C 0.28131 0.77762 0.91595 0.0
O52 O 0.44322 0.68857 0.79742 0.0
O53 O 0.22738 0.52748 0.79848 0.0
O54 O 0.35277 0.56363 0.74878 0.0
O55 O 0.31823 0.65398 0.84849 0.0
Hf56 Hf 0.35494 0.55767 0.82732 0.0
O57 O 0.40705 0.77718 0.7473 0.0
Hf58 Hf 0.41396 0.78686 0.82558 0.0
O59 O 0.3172 0.65179 0.696 0.0
Hf60 Hf 0.45096 0.69003 0.71867 0.0
O61 O 0.28198 0.74299 0.79748 0.0
Hf62 Hf 0.22167 0.51889 0.71979 0.0
Hf63 Hf 0.18459 0.61576 0.82731 0.0
O64 O 0.19288 0.61694 0.74876 0.0
Hf65 Hf 0.27943 0.74733 0.71871 0.0
C66 C 0.02596 0.41636 0.77924 0.0
C67 C 0.60917 0.88987 0.76575 0.0
C68 C 0.36359 0.51841 0.63658 0.0
C69 C 0.55543 0.60099 0.77976 0.0
O70 O 0.49175 0.56233 0.81519 0.0
O71 O 0.26052 0.48029 0.89483 0.0
C72 C 0.18679 0.48039 0.91321 0.0
O73 O 0.1425 0.7419 0.73123 0.0
O74 O 0.13386 0.53077 0.65754 0.0
O75 O 0.22713 0.38751 0.73214 0.0
O76 O 0.37974 0.83422 0.65617 0.0
O77 O 0.4108 0.91925 0.81223 0.0
O78 O 0.48872 0.77179 0.89402 0.0
O79 O 0.2075 0.70253 0.89881 0.0
O80 O 0.05042 0.48068 0.81409 0.0
C81 C 0.44944 0.83055 0.63505 0.0
O82 O 0.43742 0.58842 0.65713 0.0
O83 O 0.58323 0.82761 0.72968 0.0
C84 C 0.08204 0.70842 0.76845 0.0
O85 O 0.32249 0.89132 0.73955 0.0
O86 O 0.30938 0.41286 0.80696 0.0
O87 O 0.43798 0.61418 0.89662 0.0
O88 O 0.19202 0.68927 0.65012 0.0
O89 O 0.08951 0.66756 0.80864 0.0
O90 O 0.4801 0.77591 0.64924 0.0
C91 C 0.13725 0.60372 0.63629 0.0
O92 O 0.55152 0.64732 0.74114 0.0
O93 O 0.55969 0.88398 0.80517 0.0
O94 O 0.14933 0.52557 0.89418 0.0
O95 O 0.27825 0.48832 0.65096 0.0
O96 O 0.07762 0.41889 0.74162 0.0
O97 O 0.36166 0.82033 0.8939 0.0
C98 C 0.37072 0.94307 0.77727 0.0
C99 C 0.26503 0.36277 0.76792 0.0
H100 H 0.28422 0.93877 0.93741 0.0
H101 H 0.30662 0.71347 1.00562 0.0
H102 H 0.3822 0.80843 0.08083 0.0
H103 H 0.46359 0.96486 0.12198 0.0
H104 H 0.45031 0.19429 0.05091 0.0
H105 H 0.35406 0.09121 0.98152 0.0
C106 C 0.30103 0.90908 0.97009 0.0
C107 C 0.28361 0.81635 0.96721 0.0
C108 C 0.35168 0.9674 1.01156 0.0
C109 C 0.31113 0.78086 1.00855 0.0
C110 C 0.35845 0.83713 0.05079 0.0
C111 C 0.44024 -0.00782 0.09098 0.0
C112 C 0.46603 0.08754 0.09083 0.0
C113 C 0.38267 0.93176 0.05174 0.0
C114 C 0.43279 0.12146 0.05133 0.0
C115 C 0.3769 0.06235 1.01192 0.0
H116 H 0.47218 0.43487 0.62917 0.0
H117 H 0.27091 0.48065 0.54722 0.0
H118 H 0.26922 0.38202 0.47701 0.0
H119 H 0.3342 0.2943 0.43558 0.0
H120 H 0.5424 0.25425 0.51279 0.0
H121 H 0.52814 0.33314 0.58928 0.0
C122 C 0.42921 0.42407 0.59553 0.0
C123 C 0.37377 0.46722 0.59262 0.0
C124 C 0.42722 0.36532 0.55534 0.0
C125 C 0.31565 0.4499 0.54975 0.0
C126 C 0.31373 0.39255 0.5099 0.0
C127 C 0.3731 0.29897 0.47011 0.0
C128 C 0.43823 0.26733 0.46875 0.0
C129 C 0.36949 0.3504 0.51212 0.0
C130 C 0.48989 0.27562 0.51329 0.0
C131 C 0.48371 0.32338 0.55649 0.0
H132 H 0.8614 0.27242 0.07024 0.0
H133 H -0.00765 0.55636 0.12806 0.0
H134 H 0.12639 0.60219 0.07161 0.0
H135 H 0.19894 0.56704 1.00016 0.0
H136 H 0.06299 0.29326 0.93224 0.0
H137 H 0.94105 0.2361 0.99939 0.0
C138 C 0.91927 0.34429 0.07049 0.0
C139 C 0.91528 0.41107 0.10306 0.0
C140 C -0.00349 0.37121 0.03685 0.0
C141 C -0.0083 0.5037 0.1029 0.0
C142 C 0.06928 0.52993 0.07096 0.0
C143 C 0.14531 0.49401 1.00164 0.0
C144 C 0.14232 0.43423 0.96236 0.0
C145 C 0.07183 0.46477 0.03738 0.0
C146 C 0.06939 0.34005 0.96314 0.0
C147 C -0.00177 0.3082 1.00082 0.0
H148 H 0.54124 0.02303 0.62842 0.0
H149 H 0.47436 0.77298 0.54308 0.0
H150 H 0.5672 0.86821 0.47043 0.0
H151 H 0.6557 0.02075 0.42849 0.0
H152 H 0.71897 0.27268 0.51009 0.0
H153 H 0.64462 0.18003 0.58771 0.0
C154 C 0.54633 -0.01009 0.59358 0.0
C155 C 0.49872 0.89105 0.59036 0.0
C156 C 0.60192 0.04562 0.55203 0.0
C157 C 0.50861 0.84879 0.54587 0.0
C158 C 0.56258 0.9032 0.50459 0.0
C159 C 0.6571 0.05575 0.46405 0.0
C160 C 0.69416 0.15359 0.46376 0.0
C161 C 0.60897 0.00145 0.5071 0.0
C162 C 0.69339 0.19791 0.50965 0.0
C163 C 0.64838 0.14442 0.55362 0.0
H164 H 0.69522 0.59866 0.07686 0.0
H165 H 0.41039 0.44059 0.13462 0.0
H166 H 0.36135 0.52221 0.07593 0.0
H167 H 0.39308 0.62245 1.00131 0.0
H168 H 0.67093 0.76923 0.93579 0.0
H169 H 0.72997 0.71189 1.0053 0.0
C170 C 0.62261 0.58252 0.07677 0.0
C171 C 0.55641 0.51173 0.1096 0.0
C172 C 0.59392 0.62919 0.042 0.0
C173 C 0.46271 0.49269 0.10914 0.0
C174 C 0.43451 0.54012 0.07586 0.0
C175 C 0.46757 0.64558 1.00377 0.0
C176 C 0.52814 0.70197 0.96441 0.0
C177 C 0.49885 0.60682 0.04143 0.0
C178 C 0.62372 0.72852 0.96665 0.0
C179 C 0.65678 0.69372 1.00574 0.0
H180 H 0.94577 0.62362 0.43179 0.0
H181 H 0.69378 0.43014 0.51295 0.0
H182 H 0.78681 0.44624 0.58986 0.0
H183 H 0.94434 0.5004 0.62996 0.0
H184 H 0.19452 0.68769 0.54462 0.0
H185 H 0.09879 0.6865 0.47286 0.0
C186 C 0.91091 0.58822 0.46711 0.0
C187 C 0.81293 0.52696 0.46693 0.0
C188 C 0.96546 0.5931 0.50961 0.0
C189 C 0.76867 0.47974 0.51251 0.0
C190 C 0.82238 0.48701 0.55603 0.0
C191 C 0.97738 0.53965 0.59527 0.0
C192 C 0.07643 0.59194 0.59183 0.0
C193 C 0.92138 0.54015 0.55422 0.0
C194 C 0.11857 0.64537 0.54756 0.0
C195 C 0.06389 0.64565 0.50681 0.0
H196 H 0.70863 0.98733 0.2223 0.0
H197 H 0.49572 0.88636 0.3412 0.0
H198 H 0.51358 0.74887 0.35319 0.0
H199 H 0.58931 0.65982 0.33 0.0
H200 H 0.80208 0.76105 0.21106 0.0
H201 H 0.78519 0.89919 0.19968 0.0
C202 C 0.66498 0.93505 0.25057 0.0
C203 C 0.60017 0.94672 0.28059 0.0
C204 C 0.67664 0.85775 0.25774 0.0
C205 C 0.54564 0.87873 0.31745 0.0
C206 C 0.55622 0.80059 0.32448 0.0
C207 C 0.63322 0.71243 0.30193 0.0
C208 C 0.69741 0.70044 0.27152 0.0
C209 C 0.62196 0.79007 0.29504 0.0
C210 C 0.75243 0.76883 0.23497 0.0
C211 C 0.74241 0.84733 0.2283 0.0
H212 H 0.95256 0.67005 0.84296 0.0
H213 H 0.00336 0.73094 0.68092 0.0
H214 H 0.8401 0.69204 0.66973 0.0
H215 H 0.68364 0.63658 0.70535 0.0
H216 H 0.63268 0.57637 0.86736 0.0
H217 H 0.79572 0.6138 0.87853 0.0
C218 C 0.9285 0.67574 0.80512 0.0
C219 C -0.00958 0.70373 0.76279 0.0
C220 C 0.83428 0.65041 0.79873 0.0
C221 C 0.95784 0.71108 0.71425 0.0
C222 C 0.86416 0.68738 0.70771 0.0
C223 C 0.70772 0.63088 0.74318 0.0
C224 C 0.64607 0.60385 0.78556 0.0
C225 C 0.80176 0.65572 0.74955 0.0
C226 C 0.67825 0.59581 0.83406 0.0
C227 C 0.77176 0.6187 0.84056 0.0
H228 H 0.2794 0.94241 0.34069 0.0
H229 H 0.24141 0.01322 0.18613 0.0
H230 H 0.11415 0.85202 0.1732 0.0
H231 H 0.01714 0.69288 0.20525 0.0
H232 H 0.05465 0.62259 0.3599 0.0
H233 H 0.18482 0.78266 0.37207 0.0
C234 C 0.24324 0.92331 0.3041 0.0
C235 C 0.26983 -0.00991 0.26441 0.0
C236 C 0.17269 0.83059 0.29647 0.0
C237 C 0.22165 0.96364 0.21751 0.0
C238 C 0.14991 0.8713 0.20986 0.0
C239 C 0.05396 0.71209 0.24166 0.0
C240 C 0.02549 0.64633 0.28194 0.0
C241 C 0.12582 0.80436 0.24892 0.0
C242 C 0.07524 0.67187 0.32834 0.0
C243 C 0.14867 0.76357 0.33552 0.0
H244 H 0.30992 0.27543 0.84116 0.0
H245 H 0.23593 0.25805 0.68091 0.0
H246 H 0.27253 0.1325 0.66898 0.0
H247 H 0.32889 0.03186 0.70354 0.0
H248 H 0.40372 0.05005 0.86366 0.0
H249 H 0.36833 0.17646 0.87542 0.0
C250 C 0.30098 0.24395 0.80355 0.0
C251 C 0.26973 0.276 0.76195 0.0
C252 C 0.32501 0.17444 0.79667 0.0
C253 C 0.25827 0.23383 0.71372 0.0
C254 C 0.28059 0.16312 0.70674 0.0
C255 C 0.33827 0.06379 0.74106 0.0
C256 C 0.36863 0.03122 0.7828 0.0
C257 C 0.31509 0.13396 0.74781 0.0
C258 C 0.3814 0.07429 0.83085 0.0
C259 C 0.35983 0.14553 0.83772 0.0
H260 H 0.27921 0.33229 0.20783 0.0
H261 H 0.32994 0.4035 0.3686 0.0
H262 H 0.16726 0.36818 0.37868 0.0
H263 H 0.01095 0.30974 0.34279 0.0
H264 H 0.96074 0.24003 0.18169 0.0
H265 H 0.12363 0.27657 0.17157 0.0
C266 C 0.25509 0.34073 0.24516 0.0
C267 C 0.31613 0.36936 0.28767 0.0
C268 C 0.16148 0.31744 0.2509 0.0
C269 C 0.28439 0.38176 0.33537 0.0
C270 C 0.19119 0.36029 0.34124 0.0
C271 C 0.03501 0.30176 0.30536 0.0
C272 C 0.97351 0.27197 0.26297 0.0
C273 C 0.12895 0.32615 0.29948 0.0
C274 C 0.00604 0.26146 0.21503 0.0
C275 C 0.09946 0.28381 0.20908 0.0
H276 H 0.93055 0.2926 0.70384 0.0
H277 H 0.9258 0.33552 0.86703 0.0
H278 H 0.80212 0.17141 0.87738 0.0
H279 H 0.70289 0.01575 0.84073 0.0
H280 H 0.70713 0.97256 0.67749 0.0
H281 H 0.82954 0.13714 0.66696 0.0
C282 C 0.90183 0.26646 0.74172 0.0
C283 C 0.93734 0.32618 0.78471 0.0
C284 C 0.83389 0.17176 0.74754 0.0
C285 C 0.89878 0.29152 0.83331 0.0
C286 C 0.82942 0.19736 0.83931 0.0
C287 C 0.731 0.04182 0.80275 0.0
C288 C 0.6961 0.98166 0.75989 0.0
C289 C 0.79821 0.13671 0.79683 0.0
C290 C 0.73384 0.0167 0.71116 0.0
C291 C 0.80251 0.11112 0.70506 0.0
loop_
_geom_bond_atom_site_label_1
_geom_bond_atom_site_label_2
_geom_bond_distance
_geom_bond_site_symmetry_2
_ccdc_geom_bond_type
C0 O28 1.281 . S
C0 O37 1.281 . S
C1 O29 1.281 . S
C1 O47 1.281 . S
O2 Hf6 2.202 . S
O2 Hf8 2.202 . S
O2 Hf10 2.202 . S
O3 Hf6 2.202 . S
O3 Hf12 2.202 . S
O3 Hf13 2.202 . S
O4 Hf6 2.072 . S
O4 Hf10 2.072 . S
O4 Hf12 2.072 . S
O5 Hf6 2.072 . S
O5 Hf8 2.072 . S
O5 Hf13 2.072 . S
Hf6 O2 2.202 . S
Hf6 O3 2.202 . S
Hf6 O4 2.072 . S
Hf6 O5 2.072 . S
Hf6 O20 2.209 . S
Hf6 O21 2.209 . S
Hf6 O36 2.209 . S
Hf6 O37 2.209 . S
O7 Hf8 2.072 . S
O7 Hf10 2.072 . S
O7 Hf15 2.072 . S
Hf8 O2 2.202 . S
Hf8 O5 2.072 . S
Hf8 O7 2.072 . S
Hf8 O11 2.202 . S
Hf8 O27 2.209 . S
Hf8 O28 2.209 . S
Hf8 O43 2.209 . S
Hf8 O47 2.209 . S
O9 Hf10 2.202 . S
O9 Hf12 2.202 . S
O9 Hf15 2.202 . S
Hf10 O2 2.202 . S
Hf10 O4 2.072 . S
Hf10 O7 2.072 . S
Hf10 O9 2.202 . S
Hf10 O32 2.209 . S
Hf10 O33 2.209 . S
Hf10 O40 2.209 . S
Hf10 O42 2.209 . S
O11 Hf8 2.202 . S
O11 Hf13 2.202 . S
O11 Hf15 2.202 . S
Hf12 O3 2.202 . S
Hf12 O4 2.072 . S
Hf12 O9 2.202 . S
Hf12 O14 2.072 . S
Hf12 O24 2.209 . S
Hf12 O25 2.209 . S
Hf12 O45 2.209 . S
Hf12 O46 2.209 . S
Hf13 O3 2.202 . S
Hf13 O5 2.072 . S
Hf13 O11 2.202 . S
Hf13 O14 2.072 . S
Hf13 O29 2.209 . S
Hf13 O30 2.209 . S
Hf13 O39 2.209 . S
Hf13 O44 2.209 . S
O14 Hf12 2.072 . S
O14 Hf13 2.072 . S
O14 Hf15 2.072 . S
Hf15 O7 2.072 . S
Hf15 O9 2.202 . S
Hf15 O11 2.202 . S
Hf15 O14 2.072 . S
Hf15 O23 2.209 . S
Hf15 O26 2.209 . S
Hf15 O35 2.209 . S
Hf15 O38 2.209 . S
C16 O30 1.281 . S
C16 O46 1.281 . S
C17 O33 1.281 . S
C17 O43 1.281 . S
C18 O32 1.281 . S
C18 O45 1.281 . S
C19 O20 1.281 . S
C19 O42 1.281 . S
O20 Hf6 2.209 . S
O20 C19 1.281 . S
O21 Hf6 2.209 . S
O21 C22 1.281 . S
C22 O21 1.281 . S
C22 O44 1.281 . S
O23 Hf15 2.209 . S
O23 C34 1.281 . S
O24 Hf12 2.209 . S
O24 C41 1.281 . S
O25 Hf12 2.209 . S
O25 C49 1.281 . S
O26 Hf15 2.209 . S
O26 C31 1.281 . S
O27 Hf8 2.209 . S
O27 C48 1.281 . S
O28 C0 1.281 . S
O28 Hf8 2.209 . S
O29 C1 1.281 . S
O29 Hf13 2.209 . S
O30 Hf13 2.209 . S
O30 C16 1.281 . S
C31 O26 1.281 . S
C31 O40 1.281 . S
O32 Hf10 2.209 . S
O32 C18 1.281 . S
O33 Hf10 2.209 . S
O33 C17 1.281 . S
C34 O23 1.281 . S
C34 O39 1.281 . S
O35 Hf15 2.209 . S
O35 C48 1.281 . S
O36 Hf6 2.209 . S
O36 C49 1.281 . S
O37 C0 1.281 . S
O37 Hf6 2.209 . S
O38 Hf15 2.209 . S
O38 C41 1.281 . S
O39 Hf13 2.209 . S
O39 C34 1.281 . S
O40 Hf10 2.209 . S
O40 C31 1.281 . S
C41 O24 1.281 . S
C41 O38 1.281 . S
O42 Hf10 2.209 . S
O42 C19 1.281 . S
O43 Hf8 2.209 . S
O43 C17 1.281 . S
O44 Hf13 2.209 . S
O44 C22 1.281 . S
O45 Hf12 2.209 . S
O45 C18 1.281 . S
O46 Hf12 2.209 . S
O46 C16 1.281 . S
O47 C1 1.281 . S
O47 Hf8 2.209 . S
C48 O27 1.281 . S
C48 O35 1.281 . S
C49 O25 1.281 . S
C49 O36 1.281 . S
C50 O78 1.281 . S
C50 O87 1.281 . S
C51 O79 1.281 . S
C51 O97 1.281 . S
O52 Hf56 2.202 . S
O52 Hf58 2.202 . S
O52 Hf60 2.202 . S
O53 Hf56 2.202 . S
O53 Hf62 2.202 . S
O53 Hf63 2.202 . S
O54 Hf56 2.072 . S
O54 Hf60 2.072 . S
O54 Hf62 2.072 . S
O55 Hf56 2.072 . S
O55 Hf58 2.072 . S
O55 Hf63 2.072 . S
Hf56 O52 2.202 . S
Hf56 O53 2.202 . S
Hf56 O54 2.072 . S
Hf56 O55 2.072 . S
Hf56 O70 2.209 . S
Hf56 O71 2.209 . S
Hf56 O86 2.209 . S
Hf56 O87 2.209 . S
O57 Hf58 2.072 . S
O57 Hf60 2.072 . S
O57 Hf65 2.072 . S
Hf58 O52 2.202 . S
Hf58 O55 2.072 . S
Hf58 O57 2.072 . S
Hf58 O61 2.202 . S
Hf58 O77 2.209 . S
Hf58 O78 2.209 . S
Hf58 O93 2.209 . S
Hf58 O97 2.209 . S
O59 Hf60 2.202 . S
O59 Hf62 2.202 . S
O59 Hf65 2.202 . S
Hf60 O52 2.202 . S
Hf60 O54 2.072 . S
Hf60 O57 2.072 . S
Hf60 O59 2.202 . S
Hf60 O82 2.209 . S
Hf60 O83 2.209 . S
Hf60 O90 2.209 . S
Hf60 O92 2.209 . S
O61 Hf58 2.202 . S
O61 Hf63 2.202 . S
O61 Hf65 2.202 . S
Hf62 O53 2.202 . S
Hf62 O54 2.072 . S
Hf62 O59 2.202 . S
Hf62 O64 2.072 . S
Hf62 O74 2.209 . S
Hf62 O75 2.209 . S
Hf62 O95 2.209 . S
Hf62 O96 2.209 . S
Hf63 O53 2.202 . S
Hf63 O55 2.072 . S
Hf63 O61 2.202 . S
Hf63 O64 2.072 . S
Hf63 O79 2.209 . S
Hf63 O80 2.209 . S
Hf63 O89 2.209 . S
Hf63 O94 2.209 . S
O64 Hf62 2.072 . S
O64 Hf63 2.072 . S
O64 Hf65 2.072 . S
Hf65 O57 2.072 . S
Hf65 O59 2.202 . S
Hf65 O61 2.202 . S
Hf65 O64 2.072 . S
Hf65 O73 2.209 . S
Hf65 O76 2.209 . S
Hf65 O85 2.209 . S
Hf65 O88 2.209 . S
C66 O80 1.281 . S
C66 O96 1.281 . S
C67 O83 1.281 . S
C67 O93 1.281 . S
C68 O82 1.281 . S
C68 O95 1.281 . S
C69 O70 1.281 . S
C69 O92 1.281 . S
O70 Hf56 2.209 . S
O70 C69 1.281 . S
O71 Hf56 2.209 . S
O71 C72 1.281 . S
C72 O71 1.281 . S
C72 O94 1.281 . S
O73 Hf65 2.209 . S
O73 C84 1.281 . S
O74 Hf62 2.209 . S
O74 C91 1.281 . S
O75 Hf62 2.209 . S
O75 C99 1.281 . S
O76 Hf65 2.209 . S
O76 C81 1.281 . S
O77 Hf58 2.209 . S
O77 C98 1.281 . S
O78 C50 1.281 . S
O78 Hf58 2.209 . S
O79 C51 1.281 . S
O79 Hf63 2.209 . S
O80 Hf63 2.209 . S
O80 C66 1.281 . S
C81 O76 1.281 . S
C81 O90 1.281 . S
O82 Hf60 2.209 . S
O82 C68 1.281 . S
O83 Hf60 2.209 . S
O83 C67 1.281 . S
C84 O73 1.281 . S
C84 O89 1.281 . S
O85 Hf65 2.209 . S
O85 C98 1.281 . S
O86 Hf56 2.209 . S
O86 C99 1.281 . S
O87 C50 1.281 . S
O87 Hf56 2.209 . S
O88 Hf65 2.209 . S
O88 C91 1.281 . S
O89 Hf63 2.209 . S
O89 C84 1.281 . S
O90 Hf60 2.209 . S
O90 C81 1.281 . S
C91 O74 1.281 . S
C91 O88 1.281 . S
O92 Hf60 2.209 . S
O92 C69 1.281 . S
O93 Hf58 2.209 . S
O93 C67 1.281 . S
O94 Hf63 2.209 . S
O94 C72 1.281 . S
O95 Hf62 2.209 . S
O95 C68 1.281 . S
O96 Hf62 2.209 . S
O96 C66 1.281 . S
O97 C51 1.281 . S
O97 Hf58 2.209 . S
C98 O77 1.281 . S
C98 O85 1.281 . S
C99 O75 1.281 . S
C99 O86 1.281 . S
H100 C106 0.930 . S
H101 C109 0.930 . S
H102 C110 0.930 . S
H103 C111 0.930 . S
H104 C114 0.930 . S
H105 C115 0.930 . S
C106 H100 0.930 . S
C106 C107 1.355 . S
C106 C108 1.415 1_556 S
C107 C106 1.355 . S
C107 C109 1.419 . S
C108 C106 1.415 1_554 S
C108 C113 1.425 . S
C108 C115 1.409 . S
C109 H101 0.930 . S
C109 C107 1.419 . S
C109 C110 1.362 . S
C110 H102 0.930 . S
C110 C109 1.362 . S
C110 C113 1.409 1_556 S
C111 H103 0.930 . S
C111 C112 1.355 . S
C111 C113 1.415 1_545 S
C112 C111 1.355 . S
C112 C114 1.419 . S
C113 C108 1.425 . S
C113 C110 1.409 1_554 S
C113 C111 1.415 1_565 S
C114 H104 0.930 . S
C114 C112 1.419 . S
C114 C115 1.362 1_545 S
C115 H105 0.930 . S
C115 C108 1.409 . S
C115 C114 1.362 1_565 S
H116 C122 0.930 . S
H117 C125 0.930 . S
H118 C126 0.930 . S
H119 C127 0.930 . S
H120 C130 0.930 . S
H121 C131 0.930 . S
C122 H116 0.930 . S
C122 C123 1.355 . S
C122 C124 1.415 . S
C123 C122 1.355 . S
C123 C125 1.419 . S
C124 C122 1.415 . S
C124 C129 1.425 . S
C124 C131 1.409 . S
C125 H117 0.930 . S
C125 C123 1.419 . S
C125 C126 1.362 . S
C126 H118 0.930 . S
C126 C125 1.362 . S
C126 C129 1.409 . S
C127 H119 0.930 . S
C127 C128 1.355 . S
C127 C129 1.415 . S
C128 C127 1.355 . S
C128 C130 1.419 . S
C129 C124 1.425 . S
C129 C126 1.409 . S
C129 C127 1.415 . S
C130 H120 0.930 . S
C130 C128 1.419 . S
C130 C131 1.362 . S
C131 H121 0.930 . S
C131 C124 1.409 . S
C131 C130 1.362 . S
H132 C138 0.930 . S
H133 C141 0.930 . S
H134 C142 0.930 . S
H135 C143 0.930 . S
H136 C146 0.930 . S
H137 C147 0.930 . S
C138 H132 0.930 . S
C138 C139 1.355 1_455 S
C138 C140 1.415 . S
C139 C138 1.355 1_655 S
C139 C141 1.419 . S
C140 C138 1.415 . S
C140 C145 1.425 1_554 S
C140 C147 1.409 . S
C141 H133 0.930 . S
C141 C139 1.419 . S
C141 C142 1.362 1_554 S
C142 H134 0.930 . S
C142 C141 1.362 1_556 S
C142 C145 1.409 1_655 S
C143 H135 0.930 . S
C143 C144 1.355 . S
C143 C145 1.415 . S
C144 C143 1.355 . S
C144 C146 1.419 . S
C145 C140 1.425 1_556 S
C145 C142 1.409 1_455 S
C145 C143 1.415 . S
C146 H136 0.930 . S
C146 C144 1.419 . S
C146 C147 1.362 1_556 S
C147 H137 0.930 . S
C147 C140 1.409 . S
C147 C146 1.362 1_554 S
H148 C154 0.930 . S
H149 C157 0.930 . S
H150 C158 0.930 . S
H151 C159 0.930 . S
H152 C162 0.930 . S
H153 C163 0.930 . S
C154 H148 0.930 . S
C154 C155 1.355 . S
C154 C156 1.415 1_565 S
C155 C154 1.355 . S
C155 C157 1.419 . S
C156 C154 1.415 1_545 S
C156 C161 1.425 . S
C156 C163 1.409 . S
C157 H149 0.930 . S
C157 C155 1.419 . S
C157 C158 1.362 . S
C158 H150 0.930 . S
C158 C157 1.362 . S
C158 C161 1.409 1_565 S
C159 H151 0.930 . S
C159 C160 1.355 . S
C159 C161 1.415 . S
C160 C159 1.355 . S
C160 C162 1.419 . S
C161 C156 1.425 . S
C161 C158 1.409 1_545 S
C161 C159 1.415 . S
C162 H152 0.930 . S
C162 C160 1.419 . S
C162 C163 1.362 . S
C163 H153 0.930 . S
C163 C156 1.409 . S
C163 C162 1.362 . S
H164 C170 0.930 . S
H165 C173 0.930 . S
H166 C174 0.930 1_556 S
H167 C175 0.930 . S
H168 C178 0.930 . S
H169 C179 0.930 . S
C170 H164 0.930 . S
C170 C171 1.355 . S
C170 C172 1.415 . S
C171 C170 1.355 . S
C171 C173 1.419 . S
C172 C170 1.415 . S
C172 C177 1.425 1_554 S
C172 C179 1.409 . S
C173 H165 0.930 . S
C173 C171 1.419 . S
C173 C174 1.362 . S
C174 H166 0.930 1_554 S
C174 C173 1.362 . S
C174 C177 1.409 1_554 S
C175 H167 0.930 . S
C175 C176 1.355 . S
C175 C177 1.415 . S
C176 C175 1.355 . S
C176 C178 1.419 . S
C177 C172 1.425 1_556 S
C177 C174 1.409 1_556 S
C177 C175 1.415 . S
C178 H168 0.930 . S
C178 C176 1.419 . S
C178 C179 1.362 1_556 S
C179 H169 0.930 . S
C179 C172 1.409 . S
C179 C178 1.362 1_554 S
H180 C186 0.930 . S
H181 C189 0.930 . S
H182 C190 0.930 . S
H183 C191 0.930 . S
H184 C194 0.930 . S
H185 C195 0.930 . S
C186 H180 0.930 . S
C186 C187 1.355 . S
C186 C188 1.415 . S
C187 C186 1.355 . S
C187 C189 1.419 . S
C188 C186 1.415 . S
C188 C193 1.425 . S
C188 C195 1.409 1_655 S
C189 H181 0.930 . S
C189 C187 1.419 . S
C189 C190 1.362 . S
C190 H182 0.930 . S
C190 C189 1.362 . S
C190 C193 1.409 . S
C191 H183 0.930 . S
C191 C192 1.355 1_655 S
C191 C193 1.415 . S
C192 C191 1.355 1_455 S
C192 C194 1.419 . S
C193 C188 1.425 . S
C193 C190 1.409 . S
C193 C191 1.415 . S
C194 H184 0.930 . S
C194 C192 1.419 . S
C194 C195 1.362 . S
C195 H185 0.930 . S
C195 C188 1.409 1_455 S
C195 C194 1.362 . S
H196 C202 0.930 . S
H197 C205 0.930 1_545 S
H198 C206 0.930 . S
H199 C207 0.930 . S
H200 C210 0.930 . S
H201 C211 0.930 . S
C202 H196 0.930 . S
C202 C203 1.355 . S
C202 C204 1.415 . S
C203 C202 1.355 . S
C203 C205 1.419 . S
C204 C202 1.415 . S
C204 C209 1.425 . S
C204 C211 1.409 . S
C205 H197 0.930 1_565 S
C205 C203 1.419 . S
C205 C206 1.362 . S
C206 H198 0.930 . S
C206 C205 1.362 . S
C206 C209 1.409 . S
C207 H199 0.930 . S
C207 C208 1.355 . S
C207 C209 1.415 . S
C208 C207 1.355 . S
C208 C210 1.419 . S
C209 C204 1.425 . S
C209 C206 1.409 . S
C209 C207 1.415 . S
C210 H200 0.930 . S
C210 C208 1.419 . S
C210 C211 1.362 . S
C211 H201 0.930 . S
C211 C204 1.409 . S
C211 C210 1.362 . S
H212 C218 0.930 . S
H213 C221 0.930 1_455 S
H214 C222 0.930 . S
H215 C223 0.930 . S
H216 C226 0.930 . S
H217 C227 0.930 . S
C218 H212 0.930 . S
C218 C219 1.355 . S
C218 C220 1.415 . S
C219 C218 1.355 . S
C219 C221 1.419 . S
C220 C218 1.415 . S
C220 C225 1.425 . S
C220 C227 1.409 . S
C221 H213 0.930 1_655 S
C221 C219 1.419 . S
C221 C222 1.362 . S
C222 H214 0.930 . S
C222 C221 1.362 . S
C222 C225 1.409 . S
C223 H215 0.930 . S
C223 C224 1.355 . S
C223 C225 1.415 . S
C224 C223 1.355 . S
C224 C226 1.419 . S
C225 C220 1.425 . S
C225 C222 1.409 . S
C225 C223 1.415 . S
C226 H216 0.930 . S
C226 C224 1.419 . S
C226 C227 1.362 . S
C227 H217 0.930 . S
C227 C220 1.409 . S
C227 C226 1.362 . S
H228 C234 0.930 . S
H229 C237 0.934 . S
H230 C238 0.930 . S
H231 C239 0.930 . S
H232 C242 0.930 . S
H233 C243 0.930 . S
C234 H228 0.930 . S
C234 C235 1.355 . S
C234 C236 1.415 . S
C235 C234 1.355 . S
C235 C237 1.419 . S
C236 C234 1.415 . S
C236 C241 1.425 . S
C236 C243 1.409 . S
C237 H229 0.934 . S
C237 C235 1.419 . S
C237 C238 1.362 . S
C238 H230 0.930 . S
C238 C237 1.362 . S
C238 C241 1.409 . S
C239 H231 0.930 . S
C239 C240 1.355 . S
C239 C241 1.415 . S
C240 C239 1.355 . S
C240 C242 1.419 . S
C241 C236 1.425 . S
C241 C238 1.409 . S
C241 C239 1.415 . S
C242 H232 0.930 . S
C242 C240 1.419 . S
C242 C243 1.362 . S
C243 H233 0.930 . S
C243 C236 1.409 . S
C243 C242 1.362 . S
H244 C250 0.930 . S
H245 C253 0.930 . S
H246 C254 0.930 . S
H247 C255 0.930 1_565 S
H248 C258 0.930 . S
H249 C259 0.930 . S
C250 H244 0.930 . S
C250 C251 1.355 . S
C250 C252 1.415 . S
C251 C250 1.355 . S
C251 C253 1.419 . S
C252 C250 1.415 . S
C252 C257 1.425 . S
C252 C259 1.409 . S
C253 H245 0.930 . S
C253 C251 1.419 . S
C253 C254 1.362 . S
C254 H246 0.930 . S
C254 C253 1.362 . S
C254 C257 1.409 . S
C255 H247 0.930 1_545 S
C255 C256 1.355 . S
C255 C257 1.415 . S
C256 C255 1.355 . S
C256 C258 1.419 . S
C257 C252 1.425 . S
C257 C254 1.409 . S
C257 C255 1.415 . S
C258 H248 0.930 . S
C258 C256 1.419 . S
C258 C259 1.362 . S
C259 H249 0.930 . S
C259 C252 1.409 . S
C259 C258 1.362 . S
H260 C266 0.930 . S
H261 C269 0.930 . S
H262 C270 0.930 . S
H263 C271 0.930 . S
H264 C274 0.930 . S
H265 C275 0.930 . S
C266 H260 0.930 . S
C266 C267 1.355 . S
C266 C268 1.415 . S
C267 C266 1.355 . S
C267 C269 1.419 . S
C268 C266 1.415 . S
C268 C273 1.425 . S
C268 C275 1.409 . S
C269 H261 0.930 . S
C269 C267 1.419 . S
C269 C270 1.362 . S
C270 H262 0.930 . S
C270 C269 1.362 . S
C270 C273 1.409 . S
C271 H263 0.930 . S
C271 C272 1.355 . S
C271 C273 1.415 . S
C272 C271 1.355 . S
C272 C274 1.419 . S
C273 C268 1.425 . S
C273 C270 1.409 . S
C273 C271 1.415 . S
C274 H264 0.930 . S
C274 C272 1.419 . S
C274 C275 1.362 . S
C275 H265 0.930 . S
C275 C268 1.409 . S
C275 C274 1.362 . S
H276 C282 0.930 . S
H277 C285 0.930 . S
H278 C286 0.930 . S
H279 C287 0.930 . S
H280 C290 0.930 1_565 S
H281 C291 0.930 . S
C282 H276 0.930 . S
C282 C283 1.355 . S
C282 C284 1.415 . S
C283 C282 1.355 . S
C283 C285 1.419 . S
C284 C282 1.415 . S
C284 C289 1.425 . S
C284 C291 1.409 . S
C285 H277 0.930 . S
C285 C283 1.419 . S
C285 C286 1.362 . S
C286 H278 0.930 . S
C286 C285 1.362 . S
C286 C289 1.409 . S
C287 H279 0.930 . S
C287 C288 1.355 . S
C287 C289 1.415 . S
C288 C287 1.355 . S
C288 C290 1.419 . S
C289 C284 1.425 . S
C289 C286 1.409 . S
C289 C287 1.415 . S
C290 H280 0.930 1_545 S
C290 C288 1.419 . S
C290 C291 1.362 . S
C291 H281 0.930 . S
C291 C284 1.409 . S
C291 C290 1.362 . S
C107 C51 1.684 . S
C112 C16 1.841 . S
C123 C68 1.847 . S
C128 C31 1.727 . S
C139 C22 1.861 . S
C144 C72 1.767 . S
C155 C81 1.841 . S
C160 C48 1.697 . S
C171 C49 1.861 . S
C176 C50 1.757 . S
C187 C17 1.696 . S
C192 C91 1.841 . S
C203 C34 1.165 1_565 S
C208 C19 1.178 . S
C219 C84 1.213 1_655 S
C224 C69 1.215 . S
C235 C41 1.197 1_565 S
C240 C0 1.197 1_455 S
C251 C99 1.216 . S
C256 C98 1.215 1_545 S
C267 C18 1.160 . S
C272 C1 1.180 1_455 S
C283 C66 1.211 1_655 S
C288 C67 1.215 1_545 S
