# Generated by pormake.
# Topology afi, (4)-cn, num edge types: 1
# Building blocks:
#     Node 0, Type 0, BuildingBlock: QUQFOY_clean_sbu_1, # of connection points: 4
#     Node 1, Type 0, BuildingBlock: QUQFOY_clean_sbu_1, # of connection points: 4
#     Node 2, Type 0, BuildingBlock: QUQFOY_clean_sbu_1, # of connection points: 4
#     Node 3, Type 0, BuildingBlock: QUQFOY_clean_sbu_1, # of connection points: 4
#     Node 4, Type 0, BuildingBlock: QUQFOY_clean_sbu_1, # of connection points: 4
#     Node 5, Type 0, BuildingBlock: QUQFOY_clean_sbu_1, # of connection points: 4
#     Node 6, Type 0, BuildingBlock: QUQFOY_clean_sbu_1, # of connection points: 4
#     Node 7, Type 0, BuildingBlock: QUQFOY_clean_sbu_1, # of connection points: 4
#     Node 8, Type 0, BuildingBlock: QUQFOY_clean_sbu_1, # of connection points: 4
#     Node 9, Type 0, BuildingBlock: QUQFOY_clean_sbu_1, # of connection points: 4
#     Node 10, Type 0, BuildingBlock: QUQFOY_clean_sbu_1, # of connection points: 4
#     Node 11, Type 0, BuildingBlock: QUQFOY_clean_sbu_1, # of connection points: 4
#     Node 12, Type 0, BuildingBlock: QUQFOY_clean_sbu_1, # of connection points: 4
#     Node 13, Type 0, BuildingBlock: QUQFOY_clean_sbu_1, # of connection points: 4
#     Node 14, Type 0, BuildingBlock: QUQFOY_clean_sbu_1, # of connection points: 4
#     Node 15, Type 0, BuildingBlock: QUQFOY_clean_sbu_1, # of connection points: 4
#     Node 16, Type 0, BuildingBlock: QUQFOY_clean_sbu_1, # of connection points: 4
#     Node 17, Type 0, BuildingBlock: QUQFOY_clean_sbu_1, # of connection points: 4
#     Node 18, Type 0, BuildingBlock: QUQFOY_clean_sbu_1, # of connection points: 4
#     Node 19, Type 0, BuildingBlock: QUQFOY_clean_sbu_1, # of connection points: 4
#     Node 20, Type 0, BuildingBlock: QUQFOY_clean_sbu_1, # of connection points: 4
#     Node 21, Type 0, BuildingBlock: QUQFOY_clean_sbu_1, # of connection points: 4
#     Node 22, Type 0, BuildingBlock: QUQFOY_clean_sbu_1, # of connection points: 4
#     Node 23, Type 0, BuildingBlock: QUQFOY_clean_sbu_1, # of connection points: 4
#     Edge 24, Type (0, 0), BuildingBlock: UVAHIK_clean_linker_0, # of connection points: 2
#     Edge 25, Type (0, 0), BuildingBlock: UVAHIK_clean_linker_0, # of connection points: 2
#     Edge 26, Type (0, 0), BuildingBlock: UVAHIK_clean_linker_0, # of connection points: 2
#     Edge 27, Type (0, 0), BuildingBlock: UVAHIK_clean_linker_0, # of connection points: 2
#     Edge 28, Type (0, 0), BuildingBlock: UVAHIK_clean_linker_0, # of connection points: 2
#     Edge 29, Type (0, 0), BuildingBlock: UVAHIK_clean_linker_0, # of connection points: 2
#     Edge 30, Type (0, 0), BuildingBlock: UVAHIK_clean_linker_0, # of connection points: 2
#     Edge 31, Type (0, 0), BuildingBlock: UVAHIK_clean_linker_0, # of connection points: 2
#     Edge 32, Type (0, 0), BuildingBlock: UVAHIK_clean_linker_0, # of connection points: 2
#     Edge 33, Type (0, 0), BuildingBlock: UVAHIK_clean_linker_0, # of connection points: 2
#     Edge 34, Type (0, 0), BuildingBlock: UVAHIK_clean_linker_0, # of connection points: 2
#     Edge 35, Type (0, 0), BuildingBlock: UVAHIK_clean_linker_0, # of connection points: 2
#     Edge 36, Type (0, 0), BuildingBlock: UVAHIK_clean_linker_0, # of connection points: 2
#     Edge 37, Type (0, 0), BuildingBlock: UVAHIK_clean_linker_0, # of connection points: 2
#     Edge 38, Type (0, 0), BuildingBlock: UVAHIK_clean_linker_0, # of connection points: 2
#     Edge 39, Type (0, 0), BuildingBlock: UVAHIK_clean_linker_0, # of connection points: 2
#     Edge 40, Type (0, 0), BuildingBlock: UVAHIK_clean_linker_0, # of connection points: 2
#     Edge 41, Type (0, 0), BuildingBlock: UVAHIK_clean_linker_0, # of connection points: 2
#     Edge 42, Type (0, 0), BuildingBlock: UVAHIK_clean_linker_0, # of connection points: 2
#     Edge 43, Type (0, 0), BuildingBlock: UVAHIK_clean_linker_0, # of connection points: 2
#     Edge 44, Type (0, 0), BuildingBlock: UVAHIK_clean_linker_0, # of connection points: 2
#     Edge 45, Type (0, 0), BuildingBlock: UVAHIK_clean_linker_0, # of connection points: 2
#     Edge 46, Type (0, 0), BuildingBlock: UVAHIK_clean_linker_0, # of connection points: 2
#     Edge 47, Type (0, 0), BuildingBlock: UVAHIK_clean_linker_0, # of connection points: 2
#     Edge 48, Type (0, 0), BuildingBlock: UVAHIK_clean_linker_0, # of connection points: 2
#     Edge 49, Type (0, 0), BuildingBlock: UVAHIK_clean_linker_0, # of connection points: 2
#     Edge 50, Type (0, 0), BuildingBlock: UVAHIK_clean_linker_0, # of connection points: 2
#     Edge 51, Type (0, 0), BuildingBlock: UVAHIK_clean_linker_0, # of connection points: 2
#     Edge 52, Type (0, 0), BuildingBlock: UVAHIK_clean_linker_0, # of connection points: 2
#     Edge 53, Type (0, 0), BuildingBlock: UVAHIK_clean_linker_0, # of connection points: 2
#     Edge 54, Type (0, 0), BuildingBlock: UVAHIK_clean_linker_0, # of connection points: 2
#     Edge 55, Type (0, 0), BuildingBlock: UVAHIK_clean_linker_0, # of connection points: 2
#     Edge 56, Type (0, 0), BuildingBlock: UVAHIK_clean_linker_0, # of connection points: 2
#     Edge 57, Type (0, 0), BuildingBlock: UVAHIK_clean_linker_0, # of connection points: 2
#     Edge 58, Type (0, 0), BuildingBlock: UVAHIK_clean_linker_0, # of connection points: 2
#     Edge 59, Type (0, 0), BuildingBlock: UVAHIK_clean_linker_0, # of connection points: 2
#     Edge 60, Type (0, 0), BuildingBlock: UVAHIK_clean_linker_0, # of connection points: 2
#     Edge 61, Type (0, 0), BuildingBlock: UVAHIK_clean_linker_0, # of connection points: 2
#     Edge 62, Type (0, 0), BuildingBlock: UVAHIK_clean_linker_0, # of connection points: 2
#     Edge 63, Type (0, 0), BuildingBlock: UVAHIK_clean_linker_0, # of connection points: 2
#     Edge 64, Type (0, 0), BuildingBlock: UVAHIK_clean_linker_0, # of connection points: 2
#     Edge 65, Type (0, 0), BuildingBlock: UVAHIK_clean_linker_0, # of connection points: 2
#     Edge 66, Type (0, 0), BuildingBlock: UVAHIK_clean_linker_0, # of connection points: 2
#     Edge 67, Type (0, 0), BuildingBlock: UVAHIK_clean_linker_0, # of connection points: 2
#     Edge 68, Type (0, 0), BuildingBlock: UVAHIK_clean_linker_0, # of connection points: 2
#     Edge 69, Type (0, 0), BuildingBlock: UVAHIK_clean_linker_0, # of connection points: 2
#     Edge 70, Type (0, 0), BuildingBlock: UVAHIK_clean_linker_0, # of connection points: 2
#     Edge 71, Type (0, 0), BuildingBlock: UVAHIK_clean_linker_0, # of connection points: 2
# Relax obj value: 0.130
# Max RMSD: 0.171
# Mean RMSD: 0.171
data_MOF--net-afi--node1-QUQFOY_clean_sbu_1--edge1-UVAHIK_clean_linker_0
_symmetry_space_group_name_H-M    P1
_symmetry_Int_Tables_number       1
_symmetry_cell_setting            triclinic
loop_
_symmetry_equiv_pos_as_xyz
'x, y, z'
_cell_length_a     87.900432
_cell_length_b     87.897397
_cell_length_c     57.485428
_cell_angle_alpha  89.998542
_cell_angle_beta   90.000835
_cell_angle_gamma 119.98884
loop_
_atom_site_label
_atom_site_type_symbol
_atom_site_fract_x
_atom_site_fract_y
_atom_site_fract_z
_atom_type_partial_charge
O0 O 0.47489 0.12544 0.21484 0.0
Cd1 Cd 0.4501 0.12086 0.20696 0.0
Cd2 Cd 0.45566 0.10591 0.16762 0.0
O3 O 0.48035 0.11586 0.18218 0.0
O4 O 0.446 0.13452 0.23117 0.0
O5 O 0.44662 0.14012 0.1936 0.0
C6 C 0.44491 0.14392 0.2148 0.0
C7 C 0.45413 0.10917 0.12736 0.0
C8 C 0.4852 0.1228 0.20218 0.0
C9 C 0.42622 0.08221 0.20024 0.0
O10 O 0.43533 0.08341 0.18241 0.0
O11 O 0.42953 0.09582 0.21183 0.0
O12 O 0.45807 0.09807 0.13603 0.0
O13 O 0.4511 0.11869 0.14165 0.0
O14 O 0.34805 0.47763 0.21126 0.0
Cd15 Cd 0.32792 0.45244 0.20567 0.0
Cd16 Cd 0.34811 0.45635 0.16569 0.0
O17 O 0.36353 0.4813 0.1794 0.0
O18 O 0.31159 0.44937 0.23148 0.0
O19 O 0.30417 0.44777 0.1945 0.0
C20 C 0.29999 0.44712 0.21616 0.0
C21 C 0.34309 0.45423 0.12546 0.0
C22 C 0.36128 0.48713 0.19857 0.0
C23 C 0.34247 0.42806 0.20033 0.0
O24 O 0.34952 0.43583 0.18135 0.0
O25 O 0.33313 0.43255 0.2121 0.0
O26 O 0.35803 0.45777 0.1341 0.0
O27 O 0.33078 0.45191 0.13977 0.0
O28 O 0.86901 0.34631 0.21688 0.0
Cd29 Cd 0.87454 0.32699 0.20735 0.0
Cd30 Cd 0.88711 0.34818 0.16802 0.0
O31 O 0.87617 0.36145 0.18418 0.0
O32 O 0.86235 0.30898 0.23188 0.0
O33 O 0.85538 0.30393 0.19465 0.0
C34 C 0.8525 0.29839 0.21589 0.0
C35 C 0.88349 0.34405 0.12767 0.0
C36 C 0.87015 0.35894 0.20479 0.0
C37 C 0.91308 0.34406 0.19821 0.0
O38 O 0.91061 0.3519 0.18131 0.0
O39 O 0.90018 0.33277 0.21009 0.0
O40 O 0.89384 0.3592 0.13667 0.0
O41 O 0.87484 0.33102 0.14169 0.0
O42 O 0.51881 0.87109 0.21248 0.0
Cd43 Cd 0.54383 0.87571 0.20608 0.0
Cd44 Cd 0.53885 0.89091 0.16574 0.0
O45 O 0.51399 0.88103 0.17967 0.0
O46 O 0.5473 0.8629 0.23212 0.0
O47 O 0.54784 0.85613 0.19525 0.0
C48 C 0.54895 0.85305 0.21697 0.0
C49 C 0.54087 0.88781 0.12554 0.0
C50 C 0.50877 0.87388 0.1995 0.0
C51 C 0.56785 0.91445 0.19904 0.0
O52 O 0.55906 0.91328 0.18089 0.0
O53 O 0.56427 0.90085 0.21083 0.0
O54 O 0.53696 0.89897 0.13407 0.0
O55 O 0.54359 0.87814 0.13995 0.0
O56 O 0.64967 0.52324 0.21747 0.0
Cd57 Cd 0.66922 0.54779 0.20742 0.0
Cd58 Cd 0.64713 0.53981 0.1692 0.0
O59 O 0.63357 0.51568 0.18558 0.0
O60 O 0.68751 0.55326 0.23139 0.0
O61 O 0.69188 0.55109 0.19399 0.0
C62 C 0.69776 0.55373 0.21506 0.0
C63 C 0.65102 0.54009 0.12883 0.0
C64 C 0.63651 0.51203 0.2059 0.0
C65 C 0.65305 0.57034 0.19971 0.0
O66 O 0.64455 0.5602 0.18293 0.0
O67 O 0.66424 0.56814 0.21091 0.0
O68 O 0.63602 0.53582 0.13793 0.0
O69 O 0.66403 0.54412 0.14276 0.0
O70 O 0.12553 0.6494 0.21509 0.0
Cd71 Cd 0.11988 0.66879 0.20644 0.0
Cd72 Cd 0.10699 0.64769 0.16662 0.0
O73 O 0.11798 0.63431 0.18233 0.0
O74 O 0.13152 0.68596 0.23205 0.0
O75 O 0.13914 0.69241 0.19521 0.0
C76 C 0.14158 0.69718 0.21677 0.0
C77 C 0.11042 0.65201 0.12628 0.0
C78 C 0.12423 0.63679 0.20281 0.0
C79 C 0.08121 0.65164 0.19743 0.0
O80 O 0.08359 0.64392 0.18029 0.0
O81 O 0.09416 0.66282 0.20932 0.0
O82 O 0.10006 0.63683 0.1352 0.0
O83 O 0.11917 0.66496 0.14037 0.0
O84 O 0.86832 0.518 0.29074 0.0
Cd85 Cd 0.87384 0.54336 0.29683 0.0
Cd86 Cd 0.88791 0.53774 0.33775 0.0
O87 O 0.87728 0.51274 0.32406 0.0
O88 O 0.86147 0.54736 0.27069 0.0
O89 O 0.85483 0.54826 0.30753 0.0
C90 C 0.85186 0.54945 0.28578 0.0
C91 C 0.88508 0.54003 0.37797 0.0
C92 C 0.87038 0.50765 0.30408 0.0
C93 C 0.91261 0.56614 0.30445 0.0
O94 O 0.9108 0.55724 0.32273 0.0
O95 O 0.89934 0.56314 0.2923 0.0
O96 O 0.89574 0.53546 0.3694 0.0
O97 O 0.87574 0.54325 0.3636 0.0
O98 O 0.3463 0.87052 0.28786 0.0
Cd99 Cd 0.32651 0.87538 0.29721 0.0
Cd100 Cd 0.3482 0.88968 0.33612 0.0
O101 O 0.36236 0.8798 0.31973 0.0
O102 O 0.30871 0.86271 0.2726 0.0
O103 O 0.30354 0.85596 0.30986 0.0
C104 C 0.2981 0.85289 0.28858 0.0
C105 C 0.3441 0.88532 0.37638 0.0
C106 C 0.35958 0.87297 0.29958 0.0
C107 C 0.34207 0.91409 0.30553 0.0
O108 O 0.3503 0.91253 0.32273 0.0
O109 O 0.33142 0.90071 0.29384 0.0
O110 O 0.35906 0.8965 0.36757 0.0
O111 O 0.33122 0.87646 0.36223 0.0
O112 O 0.47869 0.34979 0.29074 0.0
Cd113 Cd 0.45329 0.32985 0.29518 0.0
Cd114 Cd 0.45675 0.34906 0.33648 0.0
O115 O 0.48179 0.36464 0.32306 0.0
O116 O 0.45037 0.31376 0.26911 0.0
O117 O 0.44802 0.30585 0.30599 0.0
C118 C 0.44766 0.3019 0.28427 0.0
C119 C 0.45471 0.34452 0.37687 0.0
C120 C 0.48798 0.36274 0.30397 0.0
C121 C 0.42891 0.34427 0.30137 0.0
O122 O 0.43616 0.3504 0.32093 0.0
O123 O 0.4338 0.33565 0.28877 0.0
O124 O 0.45821 0.35933 0.36786 0.0
O125 O 0.45237 0.33204 0.36286 0.0
O126 O 0.12619 0.47756 0.28874 0.0
Cd127 Cd 0.12087 0.4524 0.2959 0.0
Cd128 Cd 0.10708 0.45838 0.33618 0.0
O129 O 0.11767 0.48327 0.3221 0.0
O130 O 0.13396 0.44801 0.27115 0.0
O131 O 0.13978 0.44813 0.30858 0.0
C132 C 0.14332 0.4465 0.28722 0.0
C133 C 0.11011 0.45641 0.37642 0.0
C134 C 0.12429 0.48809 0.30194 0.0
C135 C 0.08223 0.4296 0.30346 0.0
O136 O 0.0841 0.43876 0.32149 0.0
O137 O 0.09547 0.43242 0.29137 0.0
O138 O 0.09945 0.46095 0.36782 0.0
O139 O 0.11935 0.45303 0.36207 0.0
O140 O 0.64734 0.12578 0.29049 0.0
Cd141 Cd 0.66736 0.12089 0.29843 0.0
Cd142 Cd 0.64598 0.10609 0.33782 0.0
O143 O 0.6316 0.1162 0.32261 0.0
O144 O 0.68415 0.13327 0.27268 0.0
O145 O 0.69087 0.14045 0.30957 0.0
C146 C 0.69543 0.14326 0.28795 0.0
C147 C 0.65054 0.10939 0.37811 0.0
C148 C 0.63419 0.12324 0.30261 0.0
C149 C 0.6518 0.08209 0.30593 0.0
O150 O 0.64369 0.08347 0.32338 0.0
O151 O 0.66243 0.0956 0.29443 0.0
O152 O 0.63549 0.09843 0.36933 0.0
O153 O 0.6632 0.1188 0.36391 0.0
O154 O 0.5201 0.64931 0.28799 0.0
Cd155 Cd 0.54468 0.66915 0.29741 0.0
Cd156 Cd 0.53741 0.64711 0.33582 0.0
O157 O 0.51319 0.63311 0.31975 0.0
O158 O 0.54961 0.68701 0.27297 0.0
O159 O 0.54802 0.69199 0.3103 0.0
C160 C 0.5503 0.69751 0.28906 0.0
C161 C 0.53794 0.651 0.37623 0.0
C162 C 0.50921 0.63599 0.29961 0.0
C163 C 0.5678 0.6535 0.30467 0.0
O164 O 0.55797 0.64501 0.3217 0.0
O165 O 0.56517 0.66444 0.29349 0.0
O166 O 0.53389 0.63606 0.36708 0.0
O167 O 0.5416 0.66394 0.36232 0.0
O168 O 0.51715 0.86843 0.79017 0.0
Cd169 Cd 0.54241 0.87368 0.79539 0.0
Cd170 Cd 0.53849 0.88962 0.83584 0.0
O171 O 0.51373 0.8807 0.82173 0.0
O172 O 0.54548 0.86049 0.76949 0.0
O173 O 0.54744 0.85481 0.80643 0.0
C174 C 0.54798 0.85125 0.78474 0.0
C175 C 0.54023 0.88661 0.87613 0.0
C176 C 0.50778 0.87245 0.80269 0.0
C177 C 0.56697 0.91246 0.80148 0.0
O178 O 0.55946 0.91145 0.82079 0.0
O179 O 0.56213 0.89889 0.789 0.0
O180 O 0.53695 0.89815 0.86736 0.0
O181 O 0.54242 0.87647 0.86193 0.0
O182 O 0.64791 0.52019 0.78992 0.0
Cd183 Cd 0.66784 0.5451 0.79795 0.0
Cd184 Cd 0.64711 0.53805 0.83823 0.0
O185 O 0.63324 0.51352 0.82301 0.0
O186 O 0.68462 0.54989 0.77204 0.0
O187 O 0.69142 0.54913 0.80884 0.0
C188 C 0.69595 0.55112 0.78719 0.0
C189 C 0.65115 0.53906 0.87868 0.0
C190 C 0.63533 0.5093 0.8026 0.0
C191 C 0.65171 0.56762 0.80649 0.0
O192 O 0.64396 0.55795 0.82397 0.0
O193 O 0.6625 0.56521 0.79463 0.0
O194 O 0.63612 0.5346 0.86953 0.0
O195 O 0.66413 0.54291 0.86477 0.0
O196 O 0.12595 0.64806 0.78861 0.0
Cd197 Cd 0.12094 0.66811 0.79578 0.0
Cd198 Cd 0.10644 0.64767 0.83611 0.0
O199 O 0.11675 0.63328 0.82151 0.0
O200 O 0.13348 0.68486 0.77005 0.0
O201 O 0.14031 0.69165 0.80703 0.0
C202 C 0.14329 0.69619 0.7854 0.0
C203 C 0.1095 0.6521 0.87645 0.0
C204 C 0.12364 0.63534 0.80148 0.0
C205 C 0.08221 0.65272 0.80358 0.0
O206 O 0.08373 0.64509 0.82148 0.0
O207 O 0.09561 0.66301 0.79165 0.0
O208 O 0.09865 0.63708 0.86754 0.0
O209 O 0.11887 0.66486 0.86235 0.0
O210 O 0.47504 0.12569 0.7895 0.0
Cd211 Cd 0.45027 0.12108 0.79763 0.0
Cd212 Cd 0.45674 0.10718 0.83748 0.0
O213 O 0.48136 0.11743 0.82263 0.0
O214 O 0.44582 0.13404 0.77275 0.0
O215 O 0.44667 0.14051 0.81004 0.0
C216 C 0.44478 0.14378 0.78866 0.0
C217 C 0.45528 0.11042 0.87779 0.0
C218 C 0.48574 0.12373 0.80224 0.0
C219 C 0.42719 0.08254 0.80554 0.0
O220 O 0.43672 0.08428 0.82311 0.0
O221 O 0.42986 0.09585 0.79371 0.0
O222 O 0.45959 0.09961 0.86904 0.0
O223 O 0.4519 0.11971 0.86354 0.0
O224 O 0.34851 0.47938 0.79011 0.0
Cd225 Cd 0.32861 0.45401 0.79494 0.0
Cd226 Cd 0.34775 0.4574 0.83566 0.0
O227 O 0.36352 0.48243 0.82223 0.0
O228 O 0.31173 0.45096 0.76993 0.0
O229 O 0.30498 0.4487 0.80727 0.0
C230 C 0.30034 0.44824 0.78584 0.0
C231 C 0.34284 0.45522 0.87595 0.0
C232 C 0.36157 0.48862 0.80318 0.0
C233 C 0.34286 0.42954 0.80059 0.0
O234 O 0.34898 0.43673 0.82018 0.0
O235 O 0.3343 0.43452 0.78801 0.0
O236 O 0.35771 0.45867 0.86718 0.0
O237 O 0.33053 0.45306 0.86174 0.0
O238 O 0.86957 0.34834 0.78923 0.0
Cd239 Cd 0.87487 0.32863 0.79728 0.0
Cd240 Cd 0.88818 0.34883 0.83746 0.0
O241 O 0.87741 0.3627 0.82255 0.0
O242 O 0.86219 0.31103 0.77247 0.0
O243 O 0.85581 0.30547 0.8098 0.0
C244 C 0.85259 0.30022 0.78845 0.0
C245 C 0.88489 0.34437 0.87779 0.0
C246 C 0.87111 0.36075 0.80216 0.0
C247 C 0.91347 0.34483 0.80564 0.0
O248 O 0.91138 0.35231 0.8233 0.0
O249 O 0.90035 0.33413 0.79357 0.0
O250 O 0.89545 0.35951 0.86893 0.0
O251 O 0.87593 0.33151 0.86365 0.0
O252 O 0.12567 0.47582 0.7138 0.0
Cd253 Cd 0.1202 0.45081 0.70529 0.0
Cd254 Cd 0.10675 0.45841 0.66593 0.0
O255 O 0.11757 0.48293 0.68117 0.0
O256 O 0.13227 0.44557 0.73061 0.0
O257 O 0.13949 0.44667 0.6936 0.0
C258 C 0.14221 0.44445 0.71509 0.0
C259 C 0.11023 0.45697 0.62573 0.0
C260 C 0.12406 0.48693 0.70151 0.0
C261 C 0.08147 0.42886 0.69723 0.0
O262 O 0.08352 0.43877 0.67999 0.0
O263 O 0.09464 0.4309 0.70884 0.0
O264 O 0.09972 0.46174 0.63428 0.0
O265 O 0.11912 0.45316 0.64012 0.0
O266 O 0.64784 0.12656 0.71404 0.0
Cd267 Cd 0.66789 0.12158 0.70728 0.0
Cd268 Cd 0.64675 0.10524 0.66811 0.0
O269 O 0.63149 0.11456 0.6829 0.0
O270 O 0.68454 0.13469 0.73286 0.0
O271 O 0.69147 0.14081 0.6958 0.0
C272 C 0.69593 0.1442 0.71741 0.0
C273 C 0.65121 0.10841 0.6278 0.0
C274 C 0.63423 0.12271 0.7021 0.0
C275 C 0.65332 0.08265 0.70165 0.0
O276 O 0.64578 0.08333 0.68312 0.0
O277 O 0.6629 0.09648 0.71327 0.0
O278 O 0.6364 0.09696 0.63667 0.0
O279 O 0.66372 0.11832 0.64193 0.0
O280 O 0.52241 0.64955 0.71566 0.0
Cd281 Cd 0.54699 0.66901 0.70553 0.0
Cd282 Cd 0.53834 0.64731 0.6668 0.0
O283 O 0.51423 0.63405 0.68326 0.0
O284 O 0.55277 0.68722 0.72976 0.0
O285 O 0.55037 0.69179 0.69249 0.0
C286 C 0.55315 0.69756 0.71363 0.0
C287 C 0.53863 0.65122 0.62641 0.0
C288 C 0.51089 0.63673 0.70388 0.0
C289 C 0.56874 0.65217 0.69695 0.0
O290 O 0.55832 0.64395 0.68028 0.0
O291 O 0.56711 0.66363 0.7084 0.0
O292 O 0.53404 0.63615 0.63553 0.0
O293 O 0.54296 0.6643 0.64033 0.0
O294 O 0.86897 0.52014 0.71436 0.0
Cd295 Cd 0.87441 0.5452 0.70629 0.0
Cd296 Cd 0.88907 0.5386 0.66741 0.0
O297 O 0.87864 0.51399 0.68233 0.0
O298 O 0.8614 0.54983 0.73092 0.0
O299 O 0.85545 0.54943 0.69352 0.0
C300 C 0.85199 0.55124 0.71484 0.0
C301 C 0.88569 0.5402 0.62723 0.0
C302 C 0.87141 0.50948 0.70221 0.0
C303 C 0.91326 0.56807 0.69955 0.0
O304 O 0.91181 0.55866 0.68197 0.0
O305 O 0.89975 0.56529 0.71099 0.0
O306 O 0.89654 0.53586 0.63576 0.0
O307 O 0.87644 0.54352 0.64164 0.0
O308 O 0.34648 0.87222 0.71588 0.0
Cd309 Cd 0.32653 0.87678 0.70634 0.0
Cd310 Cd 0.34708 0.88957 0.66642 0.0
O311 O 0.36105 0.87941 0.6827 0.0
O312 O 0.30858 0.86419 0.7308 0.0
O313 O 0.3038 0.85718 0.69355 0.0
C314 C 0.29818 0.85417 0.71476 0.0
C315 C 0.34317 0.88528 0.62608 0.0
C316 C 0.35907 0.87367 0.70342 0.0
C317 C 0.34226 0.91514 0.69658 0.0
O318 O 0.35006 0.91289 0.67942 0.0
O319 O 0.33151 0.90216 0.70882 0.0
O320 O 0.35814 0.89621 0.63506 0.0
O321 O 0.33014 0.87662 0.6401 0.0
O322 O 0.47631 0.34816 0.71289 0.0
Cd323 Cd 0.45116 0.32838 0.70613 0.0
Cd324 Cd 0.45637 0.34981 0.66701 0.0
O325 O 0.48101 0.36469 0.68184 0.0
O326 O 0.44739 0.31174 0.73183 0.0
O327 O 0.44652 0.30464 0.69484 0.0
C328 C 0.44541 0.30026 0.71648 0.0
C329 C 0.45494 0.34533 0.62669 0.0
C330 C 0.48627 0.36174 0.70103 0.0
C331 C 0.42731 0.34356 0.70054 0.0
O332 O 0.43565 0.35113 0.68209 0.0
O333 O 0.4313 0.33373 0.71206 0.0
O334 O 0.45858 0.36023 0.63557 0.0
O335 O 0.45218 0.33276 0.64082 0.0
C336 C 0.40193 0.06332 0.22778 0.0
C337 C 0.41271 0.06473 0.20887 0.0
C338 C 0.39076 0.047 0.23788 0.0
C339 C 0.37128 -0.0012 0.22938 0.0
H340 H 0.37202 0.99806 0.29682 0.0
C341 C 0.36075 0.9469 0.30645 0.0
C342 C 0.34612 0.93176 0.29759 0.0
C343 C 0.36604 0.96334 0.29662 0.0
C344 C 0.37168 0.99803 0.27799 0.0
H345 H 0.41961 0.04996 0.18509 0.0
H346 H 0.40041 0.02159 0.20294 0.0
H347 H 0.38648 0.02606 0.27641 0.0
H348 H 0.32488 0.92217 0.27246 0.0
H349 H 0.33388 0.95089 0.25568 0.0
H350 H 0.35735 0.97076 0.23092 0.0
C351 C 0.40037 0.03304 0.2098 0.0
C352 C 0.37978 0.0141 0.26626 0.0
C353 C 0.41147 0.04935 0.19961 0.0
C354 C 0.33632 0.93355 0.27955 0.0
C355 C 0.34155 0.95001 0.26982 0.0
C356 C 0.36326 0.98273 0.24111 0.0
C357 C 0.39017 0.03171 0.22939 0.0
C358 C 0.37996 0.01468 0.2418 0.0
C359 C 0.35675 0.96503 0.27781 0.0
C360 C 0.36364 0.98214 0.26555 0.0
H361 H 0.40244 0.07489 0.23521 0.0
H362 H 0.38282 0.0464 0.25264 0.0
H363 H 0.37096 -0.00124 0.21055 0.0
H364 H 0.36861 0.94599 0.3203 0.0
H365 H 0.37791 0.97459 0.30308 0.0
C366 C 0.412 0.34704 0.2683 0.0
C367 C 0.41563 0.34838 0.29226 0.0
C368 C 0.40097 0.35271 0.25914 0.0
C369 C 0.38376 0.3824 0.27347 0.0
H370 H 0.3568 0.36283 0.21696 0.0
C371 C 0.3422 0.40938 0.23331 0.0
C372 C 0.34644 0.41482 0.21003 0.0
C373 C 0.34791 0.39873 0.2436 0.0
C374 C 0.36426 0.36838 0.23276 0.0
H375 H 0.40972 0.35575 0.32559 0.0
H376 H 0.38986 0.36496 0.30977 0.0
H377 H 0.37119 0.34833 0.23549 0.0
H378 H 0.35911 0.41247 0.17894 0.0
H379 H 0.36885 0.39357 0.19695 0.0
H380 H 0.37664 0.40232 0.27078 0.0
C381 C 0.39603 0.36013 0.29789 0.0
C382 C 0.37259 0.36016 0.24335 0.0
C383 C 0.40732 0.35473 0.30701 0.0
C384 C 0.35569 0.40857 0.19692 0.0
C385 C 0.3612 0.3977 0.20717 0.0
C386 C 0.3752 0.39041 0.26311 0.0
C387 C 0.39305 0.3596 0.27374 0.0
C388 C 0.38272 0.36724 0.26364 0.0
C389 C 0.35775 0.39308 0.23077 0.0
C390 C 0.3656 0.38364 0.24249 0.0
H391 H 0.41827 0.3423 0.25642 0.0
H392 H 0.39928 0.35232 0.24046 0.0
H393 H 0.3917 0.38851 0.28874 0.0
H394 H 0.33507 0.4139 0.24392 0.0
H395 H 0.34496 0.39521 0.26177 0.0
C396 C 0.94551 0.36485 0.1968 0.0
C397 C 0.9312 0.34944 0.2057 0.0
C398 C 0.96222 0.37152 0.20647 0.0
C399 C 0.99045 0.36162 0.24308 0.0
H400 H 0.0112 0.41045 0.26157 0.0
C401 C 0.06209 0.40565 0.27623 0.0
C402 C 0.06439 0.4168 0.2951 0.0
C403 C 0.04551 0.39536 0.26624 0.0
C404 C 0.00552 0.39678 0.25663 0.0
H405 H 0.92348 0.32826 0.23061 0.0
H406 H 0.95279 0.33987 0.24728 0.0
H407 H 0.98349 0.39644 0.24034 0.0
H408 H 0.05089 0.42514 0.31905 0.0
H409 H 0.02202 0.4073 0.30144 0.0
H410 H 0.01269 0.36211 0.25936 0.0
C411 C 0.95099 0.34681 0.23295 0.0
C412 C 0.98979 0.38883 0.24425 0.0
C413 C 0.93421 0.34023 0.22345 0.0
C414 C 0.04961 0.41676 0.30449 0.0
C415 C 0.03309 0.40662 0.29435 0.0
C416 C 0.00639 0.36968 0.25523 0.0
C417 C 0.96501 0.36281 0.22503 0.0
C418 C 0.98207 0.37118 0.23738 0.0
C419 C 0.03097 0.39616 0.27479 0.0
C420 C 0.01399 0.38731 0.26224 0.0
H421 H 0.94368 0.37224 0.18309 0.0
H422 H 0.97288 0.38377 0.19986 0.0
H423 H 0.98476 0.34798 0.23796 0.0
H424 H 0.0732 0.40531 0.26866 0.0
H425 H 0.04423 0.38743 0.25113 0.0
C426 C 0.59204 0.93325 0.22675 0.0
C427 C 0.58134 0.9319 0.20777 0.0
C428 C 0.6032 0.94955 0.23693 0.0
C429 C 0.62267 0.99779 0.22864 0.0
H430 H 0.62188 0.99827 0.29609 0.0
C431 C 0.65745 0.06286 0.27933 0.0
C432 C 0.6477 0.0645 0.29756 0.0
C433 C 0.65224 0.04648 0.26937 0.0
C434 C 0.62222 -0.00162 0.27725 0.0
H435 H 0.57457 0.94674 0.18395 0.0
H436 H 0.59372 0.97507 0.20194 0.0
H437 H 0.60748 0.97037 0.27551 0.0
H438 H 0.62526 0.05008 0.3203 0.0
H439 H 0.61596 0.02162 0.30266 0.0
H440 H 0.63654 0.02582 0.23036 0.0
C441 C 0.59372 0.96359 0.2088 0.0
C442 C 0.61416 0.98236 0.26543 0.0
C443 C 0.58265 0.94731 0.19852 0.0
C444 C 0.63309 0.04929 0.30632 0.0
C445 C 0.62781 0.03292 0.29625 0.0
C446 C 0.63064 0.01382 0.24047 0.0
C447 C 0.60384 0.96486 0.22845 0.0
C448 C 0.61401 0.98186 0.24096 0.0
C449 C 0.63709 0.03137 0.27731 0.0
C450 C 0.63024 0.01432 0.26492 0.0
H451 H 0.59148 0.92165 0.23417 0.0
H452 H 0.61107 0.95009 0.25173 0.0
H453 H 0.62302 0.9979 0.20981 0.0
H454 H 0.66888 0.0743 0.27232 0.0
H455 H 0.65989 0.04571 0.25514 0.0
C456 C 0.58224 0.6351 0.30534 0.0
C457 C 0.58135 0.64949 0.29632 0.0
C458 C 0.59336 0.62985 0.29528 0.0
C459 C 0.61449 0.63189 0.23924 0.0
H460 H 0.63662 0.61067 0.27462 0.0
C461 C 0.65841 0.59534 0.22588 0.0
C462 C 0.64873 0.58374 0.20778 0.0
C463 C 0.65296 0.60636 0.2357 0.0
C464 C 0.63078 0.6168 0.26444 0.0
H465 H 0.59226 0.67032 0.27054 0.0
H466 H 0.61187 0.66135 0.25331 0.0
H467 H 0.6228 0.62489 0.29499 0.0
H468 H 0.62621 0.57528 0.18506 0.0
H469 H 0.61656 0.59428 0.2024 0.0
H470 H 0.62248 0.62381 0.20869 0.0
C471 C 0.60367 0.65387 0.26781 0.0
C472 C 0.62265 0.62476 0.27615 0.0
C473 C 0.5925 0.65907 0.2778 0.0
C474 C 0.63398 0.58405 0.19896 0.0
C475 C 0.62849 0.59503 0.20886 0.0
C476 C 0.62266 0.62398 0.22753 0.0
C477 C 0.60391 0.63894 0.27605 0.0
C478 C 0.61413 0.63211 0.2637 0.0
C479 C 0.63768 0.60601 0.22771 0.0
C480 C 0.63061 0.61605 0.23999 0.0
H481 H 0.57382 0.62741 0.31957 0.0
H482 H 0.59308 0.61819 0.30195 0.0
H483 H 0.60791 0.63726 0.22908 0.0
H484 H 0.66994 0.59556 0.23295 0.0
H485 H 0.66053 0.61491 0.24989 0.0
C486 C 0.04879 0.63074 0.19646 0.0
C487 C 0.06314 0.6462 0.20519 0.0
C488 C 0.03215 0.62404 0.20637 0.0
C489 C 0.0041 0.63395 0.24331 0.0
H490 H 0.98353 0.58517 0.26202 0.0
C491 C 0.93264 0.58994 0.27699 0.0
C492 C 0.93042 0.57887 0.29593 0.0
C493 C 0.94917 0.6002 0.26687 0.0
C494 C 0.98916 0.59883 0.25703 0.0
H495 H 0.07098 0.66741 0.23008 0.0
H496 H 0.0418 0.65575 0.24716 0.0
H497 H 0.01113 0.59917 0.24053 0.0
H498 H 0.94401 0.57061 0.31983 0.0
H499 H 0.97282 0.58839 0.30197 0.0
H500 H 0.98192 0.63346 0.25978 0.0
C501 C 0.04352 0.6488 0.23277 0.0
C502 C 0.00484 0.60677 0.2445 0.0
C503 C 0.06023 0.65541 0.22304 0.0
C504 C 0.94524 0.57894 0.30523 0.0
C505 C 0.96172 0.58904 0.29495 0.0
C506 C 0.98822 0.62589 0.2556 0.0
C507 C 0.02946 0.63277 0.225 0.0
C508 C 0.01248 0.6244 0.23754 0.0
C509 C 0.96375 0.59943 0.27534 0.0
C510 C 0.98069 0.60829 0.26269 0.0
H511 H 0.05054 0.62334 0.18269 0.0
H512 H 0.02146 0.61176 0.19987 0.0
H513 H 0.00974 0.64756 0.23813 0.0
H514 H 0.9215 0.59026 0.26948 0.0
H515 H 0.95039 0.60807 0.25173 0.0
C516 C 0.58416 0.93211 0.76856 0.0
C517 C 0.58047 0.92977 0.79249 0.0
C518 C 0.59535 0.9488 0.7595 0.0
C519 C 0.61294 0.9957 0.77426 0.0
H520 H 0.63952 0.0031 0.71738 0.0
C521 C 0.65427 0.06424 0.73416 0.0
C522 C 0.64962 0.06545 0.71109 0.0
C523 C 0.64876 0.04788 0.74431 0.0
C524 C 0.63217 0.00118 0.7333 0.0
H525 H 0.58649 0.94292 0.82591 0.0
H526 H 0.60667 0.97196 0.8103 0.0
H527 H 0.62512 0.97416 0.73579 0.0
H528 H 0.63648 0.05046 0.68018 0.0
H529 H 0.62709 0.02181 0.69794 0.0
H530 H 0.62019 0.02278 0.77181 0.0
C531 C 0.60039 0.96102 0.79834 0.0
C532 C 0.62384 0.9846 0.74381 0.0
C533 C 0.58892 0.94435 0.80735 0.0
C534 C 0.64021 0.04997 0.698 0.0
C535 C 0.6349 0.03359 0.70811 0.0
C536 C 0.62152 0.01229 0.76398 0.0
C537 C 0.6034 0.96355 0.7742 0.0
C538 C 0.61382 0.98155 0.76422 0.0
C539 C 0.63872 0.0324 0.73155 0.0
C540 C 0.63097 0.01512 0.74323 0.0
H541 H 0.57778 0.92115 0.75661 0.0
H542 H 0.59706 0.95017 0.74082 0.0
H543 H 0.60509 0.99387 0.78962 0.0
H544 H 0.66155 0.07588 0.74475 0.0
H545 H 0.65199 0.04729 0.76236 0.0
C546 C 0.63163 0.58015 0.80703 0.0
C547 C 0.64673 0.5805 0.79826 0.0
C548 C 0.62528 0.59025 0.79667 0.0
C549 C 0.63594 0.62741 0.7575 0.0
H550 H 0.5866 0.60024 0.74105 0.0
C551 C 0.59361 0.65641 0.72266 0.0
C552 C 0.58152 0.64697 0.70488 0.0
C553 C 0.6037 0.64993 0.73277 0.0
C554 C 0.60042 0.60797 0.74538 0.0
H555 H 0.6677 0.5927 0.7728 0.0
H556 H 0.65664 0.61045 0.75489 0.0
H557 H 0.60011 0.58648 0.76324 0.0
H558 H 0.57138 0.62388 0.68282 0.0
H559 H 0.58893 0.61258 0.70061 0.0
H560 H 0.63611 0.64894 0.73961 0.0
C561 C 0.64969 0.60227 0.76968 0.0
C562 C 0.60809 0.60016 0.75834 0.0
C563 C 0.65597 0.59204 0.77989 0.0
C564 C 0.58049 0.63145 0.69654 0.0
C565 C 0.59046 0.62491 0.7068 0.0
C566 C 0.62817 0.63531 0.74474 0.0
C567 C 0.63399 0.60104 0.7775 0.0
C568 C 0.62592 0.60978 0.76452 0.0
C569 C 0.60178 0.63383 0.72544 0.0
C570 C 0.61036 0.62561 0.73845 0.0
H571 H 0.62423 0.57146 0.8212 0.0
H572 H 0.61326 0.58925 0.80323 0.0
H573 H 0.64971 0.63511 0.76206 0.0
H574 H 0.59479 0.66846 0.72941 0.0
H575 H 0.61231 0.65706 0.74715 0.0
C576 C 0.93262 0.59258 0.72656 0.0
C577 C 0.93088 0.58139 0.70801 0.0
C578 C 0.94907 0.60369 0.7364 0.0
C579 C 0.9821 0.61481 0.76453 0.0
H580 H 0.02514 0.6358 0.72854 0.0
C581 C 0.0494 0.63416 0.80468 0.0
C582 C 0.06456 0.64847 0.79529 0.0
C583 C 0.03294 0.62872 0.79481 0.0
C584 C 0.01327 0.6303 0.73889 0.0
H585 H 0.94519 0.57364 0.68464 0.0
H586 H 0.97376 0.59271 0.70205 0.0
H587 H 0.99698 0.62208 0.70858 0.0
H588 H 0.07418 0.66897 0.76907 0.0
H589 H 0.04544 0.65973 0.75223 0.0
H590 H -0.0016 0.62314 0.79485 0.0
C591 C 0.96248 0.59314 0.70881 0.0
C592 C 0.9971 0.62221 0.72741 0.0
C593 C 0.94606 0.58211 0.69888 0.0
C594 C 0.06278 0.65778 0.77659 0.0
C595 C 0.04631 0.65241 0.76683 0.0
C596 C -0.00173 0.62299 0.77602 0.0
C597 C 0.96414 0.6038 0.728 0.0
C598 C 0.98131 0.61405 0.74009 0.0
C599 C 0.03124 0.63755 0.77544 0.0
C600 C 0.01406 0.63052 0.76335 0.0
H601 H 0.92121 0.59247 0.73389 0.0
H602 H 0.94992 0.61198 0.75086 0.0
H603 H 0.97023 0.60853 0.77489 0.0
H604 H 0.0503 0.62667 0.81904 0.0
H605 H 0.02166 0.6171 0.80176 0.0
C606 C 0.4027 0.06266 0.77882 0.0
C607 C 0.41418 0.06477 0.7972 0.0
C608 C 0.39235 0.04621 0.76852 0.0
C609 C 0.39421 0.00672 0.75666 0.0
H610 H 0.34525 0.98588 0.73875 0.0
C611 C 0.36247 0.94768 0.69525 0.0
C612 C 0.34725 0.93314 0.70415 0.0
C613 C 0.36897 0.96426 0.70527 0.0
C614 C 0.35893 0.99161 0.74363 0.0
H615 H 0.42299 0.05105 0.82004 0.0
H616 H 0.40502 0.02241 0.80188 0.0
H617 H 0.35926 0.01334 0.76119 0.0
H618 H 0.32618 0.92488 0.72937 0.0
H619 H 0.3375 0.95393 0.74666 0.0
H620 H 0.39403 0.98518 0.73913 0.0
C621 C 0.40415 0.03352 0.79541 0.0
C622 C 0.36693 0.00727 0.75639 0.0
C623 C 0.41435 0.04991 0.80588 0.0
C624 C 0.33801 0.93579 0.7222 0.0
C625 C 0.34443 0.95243 0.73206 0.0
C626 C 0.38632 0.99126 0.74368 0.0
C627 C 0.39342 0.03162 0.77625 0.0
C628 C 0.38461 0.01489 0.76315 0.0
C629 C 0.36029 0.96668 0.72421 0.0
C630 C 0.36861 0.98352 0.73707 0.0
H631 H 0.40219 0.07383 0.77181 0.0
H632 H 0.38422 0.0451 0.75374 0.0
H633 H 0.40793 0.01243 0.76137 0.0
H634 H 0.36988 0.94612 0.68133 0.0
H635 H 0.38112 0.97511 0.69871 0.0
C636 C 0.35295 0.40767 0.80626 0.0
C637 C 0.34692 0.41623 0.79145 0.0
C638 C 0.35832 0.39635 0.79716 0.0
C639 C 0.35898 0.37345 0.74239 0.0
H640 H 0.40055 0.37682 0.77083 0.0
C641 C 0.40806 0.35704 0.6969 0.0
C642 C 0.41394 0.34745 0.70997 0.0
C643 C 0.39704 0.36244 0.70697 0.0
C644 C 0.38881 0.37557 0.76287 0.0
H645 H 0.34137 0.41931 0.75553 0.0
H646 H 0.35138 0.40029 0.7396 0.0
H647 H 0.38662 0.39181 0.78864 0.0
H648 H 0.41222 0.33538 0.74358 0.0
H649 H 0.39329 0.34509 0.76113 0.0
H650 H 0.36198 0.35795 0.71587 0.0
C651 C 0.35152 0.40179 0.7583 0.0
C652 C 0.38072 0.38408 0.77315 0.0
C653 C 0.34586 0.41284 0.76744 0.0
C654 C 0.40799 0.34277 0.733 0.0
C655 C 0.3972 0.34837 0.74312 0.0
C656 C 0.36729 0.36517 0.73189 0.0
C657 C 0.3581 0.39361 0.77298 0.0
C658 C 0.36578 0.38329 0.76295 0.0
C659 C 0.39191 0.35854 0.73036 0.0
C660 C 0.38234 0.36627 0.74198 0.0
H661 H 0.35374 0.40988 0.82487 0.0
H662 H 0.36289 0.38998 0.80909 0.0
H663 H 0.34733 0.37224 0.73424 0.0
H664 H 0.41236 0.3608 0.6791 0.0
H665 H 0.3932 0.37034 0.6968 0.0
C666 C 0.04897 0.41692 0.6969 0.0
C667 C 0.06356 0.41615 0.70544 0.0
C668 C 0.03249 0.40692 0.7072 0.0
C669 C 0.00536 0.36929 0.74519 0.0
H670 H 0.98402 0.39695 0.76318 0.0
C671 C 0.9339 0.34093 0.77911 0.0
C672 C 0.93139 0.34999 0.79755 0.0
C673 C 0.9505 0.34735 0.76914 0.0
C674 C 0.98988 0.38908 0.75842 0.0
H675 H 0.072 0.40336 0.73042 0.0
H676 H 0.04309 0.38574 0.7482 0.0
H677 H 0.01146 0.41071 0.74133 0.0
H678 H 0.94457 0.37232 0.82081 0.0
H679 H 0.97349 0.38356 0.80322 0.0
H680 H 0.98359 0.3476 0.76224 0.0
C681 C 0.0445 0.39418 0.73365 0.0
C682 C 0.00546 0.3969 0.74567 0.0
C683 C 0.06105 0.40433 0.72352 0.0
C684 C 0.94602 0.36506 0.80659 0.0
C685 C 0.96256 0.37156 0.79645 0.0
C686 C 0.98959 0.36138 0.75772 0.0
C687 C 0.0302 0.39581 0.72605 0.0
C688 C 0.01336 0.38711 0.73893 0.0
C689 C 0.96486 0.36302 0.77725 0.0
C690 C 0.98177 0.37125 0.76454 0.0
H691 H 0.05042 0.42584 0.68296 0.0
H692 H 0.0216 0.40823 0.70082 0.0
H693 H 0.01121 0.36147 0.74019 0.0
H694 H 0.92292 0.32923 0.77182 0.0
H695 H 0.95191 0.34054 0.75431 0.0
C696 C 0.44029 0.16233 0.24383 0.0
C697 C 0.44229 0.15886 0.22051 0.0
C698 C 0.43878 0.17692 0.24968 0.0
C699 C 0.45014 0.22062 0.22807 0.0
H700 H 0.41955 0.21886 0.27792 0.0
C701 C 0.44425 0.28084 0.25284 0.0
C702 C 0.4447 0.28455 0.2767 0.0
C703 C 0.44233 0.26488 0.24537 0.0
C704 C 0.42824 0.21957 0.26409 0.0
H705 H 0.44382 0.16771 0.18494 0.0
H706 H 0.44105 0.19323 0.19516 0.0
H707 H 0.41867 0.19191 0.26534 0.0
H708 H 0.44309 0.27426 0.31144 0.0
H709 H 0.43987 0.24633 0.29835 0.0
H710 H 0.45986 0.24828 0.22697 0.0
C711 C 0.44086 0.18473 0.20894 0.0
C712 C 0.42773 0.20414 0.25686 0.0
C713 C 0.44236 0.17008 0.20307 0.0
C714 C 0.44279 0.27178 0.29295 0.0
C715 C 0.44086 0.25576 0.28545 0.0
C716 C 0.45063 0.23602 0.23527 0.0
C717 C 0.43923 0.1884 0.23235 0.0
C718 C 0.4388 0.20452 0.23891 0.0
C719 C 0.44082 0.25223 0.26156 0.0
C720 C 0.43979 0.2357 0.25348 0.0
H721 H 0.44018 0.15395 0.25771 0.0
H722 H 0.43779 0.17948 0.26788 0.0
H723 H 0.45905 0.22142 0.21448 0.0
H724 H 0.44557 0.29034 0.23984 0.0
H725 H 0.44207 0.26245 0.22685 0.0
C726 C 0.16905 0.44299 0.29817 0.0
C727 C 0.15799 0.44358 0.28101 0.0
C728 C 0.18352 0.4413 0.29188 0.0
C729 C 0.20268 0.4289 0.24286 0.0
H730 H 0.2468 0.45953 0.27386 0.0
C731 C 0.27026 0.44321 0.20719 0.0
C732 C 0.28267 0.44436 0.22353 0.0
C733 C 0.25431 0.44151 0.21459 0.0
C734 C 0.23454 0.45071 0.26523 0.0
H735 H 0.15316 0.44242 0.24383 0.0
H736 H 0.1784 0.43971 0.23294 0.0
H737 H 0.22016 0.45905 0.28661 0.0
H738 H 0.28786 0.44406 0.26042 0.0
H739 H 0.2601 0.44097 0.2732 0.0
H740 H 0.2172 0.42081 0.22121 0.0
C741 C 0.17584 0.44033 0.25124 0.0
C742 C 0.21926 0.45041 0.27258 0.0
C743 C 0.16142 0.44201 0.25751 0.0
C744 C 0.27865 0.44336 0.24735 0.0
C745 C 0.26277 0.44167 0.25472 0.0
C746 C 0.21799 0.42923 0.23547 0.0
C747 C 0.18718 0.44015 0.26832 0.0
C748 C 0.20317 0.43959 0.26139 0.0
C749 C 0.25051 0.44095 0.23846 0.0
C750 C 0.2341 0.44021 0.24651 0.0
H751 H 0.16671 0.4441 0.31643 0.0
H752 H 0.19189 0.44098 0.30547 0.0
H753 H 0.19044 0.42025 0.23407 0.0
H754 H 0.27299 0.44395 0.18872 0.0
H755 H 0.24517 0.44113 0.20164 0.0
C756 C 0.72516 0.16913 0.29679 0.0
C757 C 0.71279 0.15771 0.28051 0.0
C758 C 0.74116 0.18326 0.28931 0.0
C759 C 0.7611 0.21187 0.23855 0.0
H760 H 0.80523 0.22501 0.26929 0.0
C761 C 0.82654 0.26927 0.20507 0.0
C762 C 0.83791 0.28077 0.22213 0.0
C763 C 0.81205 0.25316 0.21145 0.0
C764 C 0.79299 0.22158 0.26062 0.0
H765 H 0.70771 0.15188 0.24368 0.0
H766 H 0.73553 0.17639 0.23076 0.0
H767 H 0.77834 0.19909 0.28244 0.0
H768 H 0.84327 0.28419 0.25921 0.0
H769 H 0.81797 0.25638 0.27028 0.0
H770 H 0.77556 0.23449 0.21707 0.0
C771 C 0.73281 0.17459 0.24925 0.0
C772 C 0.77761 0.20674 0.26817 0.0
C773 C 0.71689 0.16048 0.25669 0.0
C774 C 0.83477 0.27563 0.2456 0.0
C775 C 0.82031 0.2596 0.25197 0.0
C776 C 0.77644 0.22672 0.23108 0.0
C777 C 0.74504 0.18625 0.26543 0.0
C778 C 0.76149 0.20178 0.25727 0.0
C779 C 0.80864 0.24826 0.23502 0.0
C780 C 0.79256 0.23183 0.2421 0.0
H781 H 0.72237 0.16732 0.31525 0.0
H782 H 0.7503 0.19212 0.30218 0.0
H783 H 0.74883 0.20853 0.23002 0.0
H784 H 0.82866 0.27282 0.18683 0.0
H785 H 0.80345 0.24461 0.19793 0.0
C786 C 0.55281 0.82714 0.20842 0.0
C787 C 0.55159 0.83846 0.2246 0.0
C788 C 0.55452 0.81294 0.21602 0.0
C789 C 0.54514 0.78404 0.26671 0.0
H790 H 0.57641 0.771 0.23651 0.0
C791 C 0.55303 0.72642 0.3001 0.0
C792 C 0.55302 0.71504 0.28295 0.0
C793 C 0.55458 0.74253 0.29383 0.0
C794 C 0.56752 0.77441 0.24503 0.0
H795 H 0.55165 0.84403 0.26142 0.0
H796 H 0.5547 0.8194 0.27456 0.0
H797 H 0.57565 0.79704 0.2234 0.0
H798 H 0.55504 0.71178 0.24584 0.0
H799 H 0.55747 0.7396 0.23498 0.0
H800 H 0.53674 0.76128 0.28803 0.0
C801 C 0.55411 0.82132 0.25604 0.0
C802 C 0.56709 0.7893 0.2375 0.0
C803 C 0.55245 0.8355 0.24847 0.0
C804 C 0.55501 0.72025 0.25951 0.0
C805 C 0.55653 0.73628 0.25327 0.0
C806 C 0.54553 0.76912 0.27418 0.0
C807 C 0.55498 0.80978 0.23994 0.0
C808 C 0.55582 0.79422 0.24818 0.0
C809 C 0.55616 0.74755 0.2703 0.0
C810 C 0.55663 0.76405 0.26333 0.0
H811 H 0.55219 0.82909 0.18991 0.0
H812 H 0.55502 0.80417 0.2032 0.0
H813 H 0.53613 0.78734 0.27507 0.0
H814 H 0.55158 0.7228 0.31831 0.0
H815 H 0.55447 0.75101 0.30741 0.0
C816 C 0.72102 0.55898 0.24404 0.0
C817 C 0.71537 0.55651 0.22077 0.0
C818 C 0.73706 0.56039 0.24997 0.0
C819 C 0.76884 0.54802 0.22889 0.0
H820 H 0.79787 0.57865 0.27858 0.0
C821 C 0.83459 0.55327 0.25418 0.0
C822 C 0.83763 0.55261 0.27808 0.0
C823 C 0.82068 0.55537 0.24657 0.0
C824 C 0.78983 0.56996 0.26479 0.0
H825 H 0.72239 0.55416 0.18534 0.0
H826 H 0.75062 0.55685 0.19568 0.0
H827 H 0.7721 0.57998 0.26566 0.0
H828 H 0.8287 0.55404 0.31274 0.0
H829 H 0.80427 0.55766 0.29938 0.0
H830 H 0.78648 0.53791 0.22813 0.0
C831 C 0.74247 0.55742 0.20938 0.0
C832 C 0.77508 0.57071 0.25736 0.0
C833 C 0.72636 0.55598 0.20343 0.0
C834 C 0.82669 0.5545 0.29422 0.0
C835 C 0.81276 0.55666 0.28657 0.0
C836 C 0.78361 0.54731 0.23625 0.0
C837 C 0.74789 0.55942 0.23277 0.0
C838 C 0.76431 0.55962 0.23948 0.0
C839 C 0.8095 0.5569 0.26265 0.0
C840 C 0.79418 0.55816 0.25441 0.0
H841 H 0.71287 0.55944 0.25784 0.0
H842 H 0.74068 0.56168 0.26817 0.0
H843 H 0.76067 0.53907 0.21538 0.0
H844 H 0.84282 0.55196 0.24126 0.0
H845 H 0.81867 0.55577 0.22804 0.0
C846 C 0.16773 0.72671 0.20794 0.0
C847 C 0.15589 0.71464 0.22416 0.0
C848 C 0.18194 0.74265 0.21545 0.0
C849 C 0.20993 0.76242 0.2667 0.0
H850 H 0.22514 0.80647 0.23453 0.0
C851 C 0.2687 0.82733 0.29945 0.0
C852 C 0.28049 0.83827 0.28232 0.0
C853 C 0.25244 0.81303 0.29312 0.0
C854 C 0.22114 0.79425 0.24361 0.0
H855 H 0.14933 0.71008 0.26087 0.0
H856 H 0.17399 0.73781 0.27383 0.0
H857 H 0.19874 0.78 0.22149 0.0
H858 H 0.28436 0.84298 0.24514 0.0
H859 H 0.2563 0.818 0.23416 0.0
H860 H 0.23247 0.77646 0.28846 0.0
C861 C 0.17245 0.73489 0.25538 0.0
C862 C 0.20602 0.7791 0.23613 0.0
C863 C 0.15827 0.71903 0.24791 0.0
C864 C 0.27557 0.83483 0.25881 0.0
C865 C 0.25939 0.82055 0.25249 0.0
C866 C 0.22508 0.77752 0.2741 0.0
C867 C 0.18459 0.74676 0.23929 0.0
C868 C 0.20032 0.76301 0.24752 0.0
C869 C 0.24768 0.80938 0.26953 0.0
C870 C 0.23095 0.79359 0.26255 0.0
H871 H 0.16625 0.7237 0.18953 0.0
H872 H 0.19116 0.7515 0.20264 0.0
H873 H 0.20601 0.75015 0.27563 0.0
H874 H 0.27209 0.82969 0.31772 0.0
H875 H 0.24362 0.80481 0.3067 0.0
C876 C 0.55512 0.72611 0.70251 0.0
C877 C 0.55587 0.7151 0.71963 0.0
C878 C 0.55634 0.74207 0.70874 0.0
C879 C 0.56929 0.77439 0.75702 0.0
H880 H 0.53592 0.78518 0.72821 0.0
C881 C 0.55308 0.82615 0.79358 0.0
C882 C 0.55097 0.83686 0.77728 0.0
C883 C 0.55517 0.81214 0.78615 0.0
C884 C 0.54547 0.78248 0.73623 0.0
H885 H 0.55902 0.71244 0.7566 0.0
H886 H 0.56088 0.74002 0.76742 0.0
H887 H 0.53739 0.75957 0.71536 0.0
H888 H 0.54983 0.84154 0.74039 0.0
H889 H 0.55355 0.81726 0.72754 0.0
H890 H 0.57711 0.79719 0.77819 0.0
C891 C 0.55958 0.73651 0.74918 0.0
C892 C 0.54636 0.76782 0.72881 0.0
C893 C 0.55839 0.72061 0.74297 0.0
C894 C 0.55131 0.83348 0.75344 0.0
C895 C 0.55336 0.81951 0.74604 0.0
C896 C 0.56837 0.78904 0.7645 0.0
C897 C 0.55833 0.74732 0.7322 0.0
C898 C 0.55821 0.76354 0.73919 0.0
C899 C 0.55512 0.80856 0.76228 0.0
C900 C 0.5564 0.7932 0.75423 0.0
H901 H 0.55326 0.72226 0.68438 0.0
H902 H 0.55558 0.75023 0.6952 0.0
H903 H 0.57872 0.77157 0.76518 0.0
H904 H 0.55287 0.82843 0.81207 0.0
H905 H 0.55637 0.80384 0.79908 0.0
C906 C 0.72556 0.55461 0.7957 0.0
C907 C 0.71331 0.55411 0.77959 0.0
C908 C 0.74151 0.55643 0.78805 0.0
C909 C 0.76129 0.54829 0.73666 0.0
H910 H 0.80533 0.57769 0.76854 0.0
C911 C 0.82651 0.55517 0.70385 0.0
C912 C 0.8374 0.55427 0.72103 0.0
C913 C 0.81215 0.55705 0.71014 0.0
C914 C 0.79311 0.56933 0.75954 0.0
H915 H 0.70838 0.55565 0.74288 0.0
H916 H 0.73611 0.55888 0.72966 0.0
H917 H 0.77871 0.57727 0.78167 0.0
H918 H 0.842 0.55503 0.75823 0.0
H919 H 0.81694 0.55802 0.76912 0.0
H920 H 0.77552 0.54003 0.71486 0.0
C921 C 0.73334 0.55764 0.74815 0.0
C922 C 0.77788 0.56909 0.76708 0.0
C923 C 0.71748 0.55587 0.75577 0.0
C924 C 0.83388 0.55569 0.74454 0.0
C925 C 0.81957 0.55754 0.7508 0.0
C926 C 0.77649 0.54847 0.72919 0.0
C927 C 0.74544 0.55771 0.76416 0.0
C928 C 0.76178 0.55848 0.75581 0.0
C929 C 0.80842 0.55807 0.73371 0.0
C930 C 0.79255 0.55887 0.74066 0.0
H931 H 0.72272 0.55328 0.81416 0.0
H932 H 0.75053 0.55631 0.80079 0.0
H933 H 0.74903 0.53978 0.72782 0.0
H934 H 0.82892 0.55418 0.68559 0.0
H935 H 0.80394 0.55764 0.69654 0.0
C936 C 0.26933 0.82794 0.70373 0.0
C937 C 0.28068 0.83934 0.72089 0.0
C938 C 0.25328 0.81332 0.70998 0.0
C939 C 0.22149 0.79395 0.75885 0.0
H940 H 0.20882 0.74994 0.7281 0.0
C941 C 0.169 0.72596 0.79446 0.0
C942 C 0.15774 0.71358 0.77808 0.0
C943 C 0.18313 0.74201 0.78712 0.0
C944 C 0.21205 0.76217 0.73667 0.0
H945 H 0.28392 0.84456 0.758 0.0
H946 H 0.25621 0.81903 0.76885 0.0
H947 H 0.23479 0.77678 0.71543 0.0
H948 H 0.15218 0.70853 0.74119 0.0
H949 H 0.17669 0.73644 0.7285 0.0
H950 H 0.19887 0.77917 0.78041 0.0
C951 C 0.2595 0.82146 0.75056 0.0
C952 C 0.22691 0.77757 0.72936 0.0
C953 C 0.27548 0.83606 0.74433 0.0
C954 C 0.16067 0.71772 0.75428 0.0
C955 C 0.17477 0.73369 0.74697 0.0
C956 C 0.20664 0.77851 0.76623 0.0
C957 C 0.24829 0.8098 0.73351 0.0
C958 C 0.23188 0.79364 0.74044 0.0
C959 C 0.18628 0.74593 0.76327 0.0
C960 C 0.20181 0.76244 0.75527 0.0
H961 H 0.27294 0.83016 0.68552 0.0
H962 H 0.24483 0.80472 0.69639 0.0
H963 H 0.22481 0.80616 0.76755 0.0
H964 H 0.16708 0.72315 0.81292 0.0
H965 H 0.19187 0.75115 0.80008 0.0
C966 C 0.44175 0.27063 0.7075 0.0
C967 C 0.44252 0.28289 0.72382 0.0
C968 C 0.44006 0.25468 0.71493 0.0
C969 C 0.44889 0.23494 0.76584 0.0
H970 H 0.41903 0.19081 0.7344 0.0
C971 C 0.4414 0.16965 0.79925 0.0
C972 C 0.44204 0.15852 0.78223 0.0
C973 C 0.43974 0.1841 0.79277 0.0
C974 C 0.42753 0.20306 0.74326 0.0
H975 H 0.44152 0.2878 0.76066 0.0
H976 H 0.43847 0.26007 0.77348 0.0
H977 H 0.41946 0.21746 0.72132 0.0
H978 H 0.44108 0.15361 0.74509 0.0
H979 H 0.43846 0.17883 0.73386 0.0
H980 H 0.45722 0.2207 0.78751 0.0
C981 C 0.43945 0.26284 0.75501 0.0
C982 C 0.42777 0.21831 0.73575 0.0
C983 C 0.44111 0.27871 0.74762 0.0
C984 C 0.44061 0.16191 0.75867 0.0
C985 C 0.43898 0.17632 0.7522 0.0
C986 C 0.44869 0.21973 0.7733 0.0
C987 C 0.43915 0.25075 0.73879 0.0
C988 C 0.43852 0.23442 0.74691 0.0
C989 C 0.4387 0.18769 0.76914 0.0
C990 C 0.43809 0.20363 0.76202 0.0
H991 H 0.4428 0.27348 0.68905 0.0
H992 H 0.43999 0.24567 0.70202 0.0
H993 H 0.45752 0.24721 0.77458 0.0
H994 H 0.4424 0.16734 0.81755 0.0
H995 H 0.43933 0.19249 0.80626 0.0
C996 C 0.1689 0.44212 0.70583 0.0
C997 C 0.15668 0.44145 0.72214 0.0
C998 C 0.1833 0.44063 0.71311 0.0
C999 C 0.21065 0.44773 0.76486 0.0
H1000 H 0.22824 0.42195 0.73007 0.0
C1001 C 0.27024 0.44256 0.79652 0.0
C1002 C 0.2827 0.44506 0.77943 0.0
C1003 C 0.25386 0.44027 0.79014 0.0
C1004 C 0.22354 0.4293 0.7399 0.0
H1005 H 0.14957 0.43798 0.75872 0.0
H1006 H 0.1745 0.43524 0.77128 0.0
H1007 H 0.20143 0.42133 0.71732 0.0
H1008 H 0.28765 0.44683 0.74225 0.0
H1009 H 0.25932 0.4431 0.73122 0.0
H1010 H 0.23287 0.45599 0.78718 0.0
C1011 C 0.17317 0.43722 0.75296 0.0
C1012 C 0.2082 0.42894 0.73258 0.0
C1013 C 0.15882 0.4387 0.74571 0.0
C1014 C 0.27835 0.44492 0.75587 0.0
C1015 C 0.26203 0.44265 0.74951 0.0
C1016 C 0.22599 0.44812 0.77215 0.0
C1017 C 0.18573 0.43846 0.73682 0.0
C1018 C 0.20165 0.43825 0.7449 0.0
C1019 C 0.24964 0.44043 0.76655 0.0
C1020 C 0.2327 0.43903 0.75965 0.0
H1021 H 0.1676 0.44424 0.68755 0.0
H1022 H 0.19283 0.44177 0.70027 0.0
H1023 H 0.2061 0.45527 0.77453 0.0
H1024 H 0.27319 0.44254 0.81481 0.0
H1025 H 0.24451 0.4384 0.80367 0.0
C1026 C 0.83465 0.27769 0.75859 0.0
C1027 C 0.83798 0.28264 0.78211 0.0
C1028 C 0.82024 0.26163 0.7522 0.0
C1029 C 0.77672 0.2283 0.77336 0.0
H1030 H 0.77872 0.20089 0.72177 0.0
C1031 C 0.71749 0.16175 0.74838 0.0
C1032 C 0.71328 0.15878 0.7246 0.0
C1033 C 0.73339 0.17598 0.75561 0.0
C1034 C 0.77795 0.20848 0.73609 0.0
H1035 H 0.82909 0.27436 0.81746 0.0
H1036 H 0.80395 0.24612 0.8063 0.0
H1037 H 0.8055 0.22706 0.73468 0.0
H1038 H 0.72264 0.16817 0.68972 0.0
H1039 H 0.75051 0.19323 0.70243 0.0
H1040 H 0.74919 0.20984 0.7747 0.0
C1041 C 0.81238 0.25483 0.79278 0.0
C1042 C 0.79327 0.22345 0.74351 0.0
C1043 C 0.82683 0.27096 0.79918 0.0
C1044 C 0.72552 0.17013 0.70816 0.0
C1045 C 0.7415 0.18441 0.71543 0.0
C1046 C 0.76144 0.21333 0.766 0.0
C1047 C 0.80881 0.25009 0.76918 0.0
C1048 C 0.7928 0.2336 0.76214 0.0
C1049 C 0.74547 0.18761 0.73926 0.0
C1050 C 0.76186 0.2033 0.74722 0.0
H1051 H 0.84298 0.2864 0.74498 0.0
H1052 H 0.81776 0.25852 0.73387 0.0
H1053 H 0.77582 0.23599 0.78746 0.0
H1054 H 0.70842 0.15318 0.76151 0.0
H1055 H 0.73619 0.17791 0.77407 0.0
C1056 C 0.44954 0.12314 0.09171 0.0
C1057 C 0.45297 0.11057 0.10179 0.0
C1058 C 0.44832 0.12407 0.06746 0.0
C1059 C 0.43997 0.09712 0.01451 0.0
H1060 H 0.46451 0.14148 0.98154 0.0
C1061 C 0.45636 0.10015 0.91791 0.0
C1062 C 0.45401 0.11167 0.90336 0.0
C1063 C 0.45483 0.10077 0.94198 0.0
C1064 C 0.45737 0.12902 0.99053 0.0
H1065 H 0.45795 0.08926 0.09426 0.0
H1066 H 0.45589 0.09091 0.05235 0.0
H1067 H 0.46427 0.14122 0.02418 0.0
H1068 H 0.44843 0.13307 0.9028 0.0
H1069 H 0.44584 0.13421 0.94521 0.0
H1070 H 0.43335 0.08486 0.98107 0.0
C1071 C 0.45392 0.09991 0.06307 0.0
C1072 C 0.45723 0.12887 0.01493 0.0
C1073 C 0.45522 0.09905 0.08715 0.0
C1074 C 0.45029 0.12401 0.91354 0.0
C1075 C 0.44887 0.1247 0.93779 0.0
C1076 C 0.44012 0.09727 0.99024 0.0
C1077 C 0.45035 0.11234 0.0529 0.0
C1078 C 0.4489 0.11287 0.02716 0.0
C1079 C 0.45096 0.11295 0.95224 0.0
C1080 C 0.4492 0.11317 0.97795 0.0
H1081 H 0.44776 0.13222 0.10253 0.0
H1082 H 0.44552 0.13375 0.06013 0.0
H1083 H 0.43308 0.0846 0.0234 0.0
H1084 H 0.4593 0.09052 0.91071 0.0
H1085 H 0.45684 0.09175 0.95262 0.0
C1086 C 0.32455 0.45107 0.91174 0.0
C1087 C 0.34021 0.45366 0.9015 0.0
C1088 C 0.32237 0.44956 0.93598 0.0
C1089 C 0.33965 0.43892 0.98841 0.0
H1090 H 0.32246 0.46544 0.0223 0.0
C1091 C 0.35375 0.454 0.08528 0.0
C1092 C 0.34039 0.4528 0.09991 0.0
C1093 C 0.3515 0.45259 0.06121 0.0
C1094 C 0.32702 0.45774 0.01306 0.0
H1095 H 0.36585 0.45678 0.90873 0.0
H1096 H 0.36208 0.45421 0.95062 0.0
H1097 H 0.32242 0.46564 0.97968 0.0
H1098 H 0.31418 0.44933 0.10064 0.0
H1099 H 0.31025 0.44692 0.05828 0.0
H1100 H 0.3446 0.43128 0.02159 0.0
C1101 C 0.35139 0.45313 0.94004 0.0
C1102 C 0.327 0.45785 0.98866 0.0
C1103 C 0.35359 0.45473 0.91598 0.0
C1104 C 0.32471 0.45027 0.08984 0.0
C1105 C 0.32249 0.44897 0.0656 0.0
C1106 C 0.33968 0.43881 0.01268 0.0
C1107 C 0.33575 0.45046 0.95037 0.0
C1108 C 0.33374 0.44879 0.9761 0.0
C1109 C 0.33584 0.44999 0.05105 0.0
C1110 C 0.33379 0.44857 0.02531 0.0
H1111 H 0.31399 0.4502 0.90106 0.0
H1112 H 0.31015 0.44746 0.94343 0.0
H1113 H 0.34455 0.43147 0.97925 0.0
H1114 H 0.36603 0.456 0.0924 0.0
H1115 H 0.36218 0.45376 0.0505 0.0
C1116 C 0.87191 0.32575 0.91366 0.0
C1117 C 0.88344 0.34206 0.9034 0.0
C1118 C 0.87103 0.32386 0.93795 0.0
C1119 C 0.89714 0.34478 0.99084 0.0
H1120 H 0.85268 0.32094 0.02368 0.0
C1121 C 0.89251 0.35636 0.08767 0.0
C1122 C 0.8821 0.34188 0.10205 0.0
C1123 C 0.89194 0.35452 0.06355 0.0
C1124 C 0.8652 0.32742 0.01472 0.0
H1125 H 0.9029 0.36921 0.91064 0.0
H1126 H 0.9013 0.36594 0.9526 0.0
H1127 H 0.85303 0.32097 0.98103 0.0
H1128 H 0.86265 0.31413 0.10225 0.0
H1129 H 0.86164 0.31094 0.05978 0.0
H1130 H 0.90934 0.35152 0.02431 0.0
C1131 C 0.89311 0.35453 0.94201 0.0
C1132 C 0.8654 0.32743 0.99033 0.0
C1133 C 0.89393 0.35642 0.9179 0.0
C1134 C 0.87085 0.32553 0.09165 0.0
C1135 C 0.87022 0.32371 0.06736 0.0
C1136 C 0.89694 0.34478 0.0151 0.0
C1137 C 0.88177 0.33822 0.95237 0.0
C1138 C 0.88138 0.33648 0.97814 0.0
C1139 C 0.88095 0.33817 0.05308 0.0
C1140 C 0.88097 0.33647 0.02734 0.0
H1141 H 0.86364 0.31444 0.90296 0.0
H1142 H 0.8622 0.31111 0.94541 0.0
H1143 H 0.9097 0.3515 0.982 0.0
H1144 H 0.90126 0.36917 0.09504 0.0
H1145 H 0.90012 0.366 0.05305 0.0
C1146 C 0.54094 0.89851 0.08531 0.0
C1147 C 0.54232 0.88649 0.10002 0.0
C1148 C 0.5424 0.89765 0.06125 0.0
C1149 C 0.53764 0.86813 0.01324 0.0
H1150 H 0.5637 0.91194 0.97941 0.0
C1151 C 0.54429 0.8724 0.91191 0.0
C1152 C 0.54164 0.88543 0.90169 0.0
C1153 C 0.54578 0.8717 0.93615 0.0
C1154 C 0.55632 0.89959 0.98857 0.0
H1155 H 0.5462 0.864 0.10091 0.0
H1156 H 0.54869 0.86244 0.05856 0.0
H1157 H 0.56388 0.91219 0.02175 0.0
H1158 H 0.53836 0.90786 0.90896 0.0
H1159 H 0.54088 0.9066 0.95085 0.0
H1160 H 0.52979 0.85561 0.97986 0.0
C1161 C 0.54645 0.87253 0.06581 0.0
C1162 C 0.55642 0.89973 0.01284 0.0
C1163 C 0.5451 0.87346 0.09004 0.0
C1164 C 0.54046 0.89767 0.91619 0.0
C1165 C 0.54203 0.89704 0.94025 0.0
C1166 C 0.53753 0.86799 0.98884 0.0
C1167 C 0.54524 0.88471 0.05119 0.0
C1168 C 0.54673 0.88408 0.02548 0.0
C1169 C 0.5448 0.88413 0.95055 0.0
C1170 C 0.5465 0.88379 0.97627 0.0
H1171 H 0.53875 0.90869 0.09235 0.0
H1172 H 0.54109 0.90704 0.05048 0.0
H1173 H 0.52999 0.85586 0.02249 0.0
H1174 H 0.54525 0.86277 0.90121 0.0
H1175 H 0.54795 0.86162 0.94358 0.0
C1176 C 0.63861 0.53668 0.08885 0.0
C1177 C 0.65307 0.5406 0.10319 0.0
C1178 C 0.64034 0.5376 0.0647 0.0
C1179 C 0.66714 0.53683 0.01606 0.0
H1180 H 0.64334 0.55715 0.98242 0.0
C1181 C 0.66943 0.54461 0.91488 0.0
C1182 C 0.65322 0.53991 0.90433 0.0
C1183 C 0.67113 0.54569 0.93919 0.0
C1184 C 0.64998 0.55134 0.99152 0.0
H1185 H 0.68067 0.5483 0.1033 0.0
H1186 H 0.68369 0.54993 0.06082 0.0
H1187 H 0.64327 0.55724 0.02473 0.0
H1188 H 0.62606 0.53241 0.91109 0.0
H1189 H 0.629 0.5342 0.95311 0.0
H1190 H 0.67361 0.53073 0.98263 0.0
C1191 C 0.671 0.54609 0.06842 0.0
C1192 C 0.64994 0.55139 0.01579 0.0
C1193 C 0.66928 0.54522 0.09273 0.0
C1194 C 0.63877 0.53617 0.91857 0.0
C1195 C 0.64048 0.53731 0.94272 0.0
C1196 C 0.66718 0.53678 0.99166 0.0
C1197 C 0.65656 0.54247 0.05416 0.0
C1198 C 0.65817 0.54379 0.02837 0.0
C1199 C 0.65668 0.54222 0.95335 0.0
C1200 C 0.65825 0.54369 0.97914 0.0
H1201 H 0.62589 0.53297 0.09627 0.0
H1202 H 0.62887 0.53439 0.05424 0.0
H1203 H 0.67355 0.53083 0.02526 0.0
H1204 H 0.68081 0.54756 0.90438 0.0
H1205 H 0.6838 0.54957 0.94686 0.0
C1206 C 0.0999 0.6402 0.91651 0.0
C1207 C 0.11082 0.65441 0.90206 0.0
C1208 C 0.10065 0.6421 0.94063 0.0
C1209 C 0.1287 0.66865 0.98905 0.0
H1210 H 0.08463 0.64567 0.02286 0.0
C1211 C 0.12328 0.67057 0.09035 0.0
C1212 C 0.11173 0.65428 0.10067 0.0
C1213 C 0.12393 0.67248 0.06607 0.0
C1214 C 0.09706 0.6521 0.0137 0.0
H1215 H 0.13131 0.68179 0.90169 0.0
H1216 H 0.13262 0.68513 0.94414 0.0
H1217 H 0.08438 0.64574 0.98054 0.0
H1218 H 0.09201 0.62721 0.09354 0.0
H1219 H 0.09318 0.63054 0.05157 0.0
H1220 H 0.14134 0.67477 0.02245 0.0
C1221 C 0.1235 0.67249 0.93664 0.0
C1222 C 0.09692 0.65213 0.98943 0.0
C1223 C 0.1227 0.67059 0.91236 0.0
C1224 C 0.10101 0.63997 0.08624 0.0
C1225 C 0.10158 0.6419 0.06213 0.0
C1226 C 0.12884 0.66864 0.01345 0.0
C1227 C 0.11235 0.65828 0.95102 0.0
C1228 C 0.11272 0.66002 0.97679 0.0
C1229 C 0.11292 0.65818 0.05173 0.0
C1230 C 0.11301 0.65997 0.026 0.0
H1231 H 0.09065 0.62751 0.90922 0.0
H1232 H 0.09213 0.63079 0.95118 0.0
H1233 H 0.1411 0.67479 0.97982 0.0
H1234 H 0.13172 0.68185 0.101 0.0
H1235 H 0.13278 0.68521 0.05855 0.0
C1236 C 0.89582 0.53935 0.58696 0.0
C1237 C 0.88433 0.54157 0.6017 0.0
C1238 C 0.89506 0.54093 0.56292 0.0
C1239 C 0.8664 0.53819 0.51485 0.0
H1240 H 0.91057 0.56258 0.48141 0.0
C1241 C 0.87154 0.54529 0.41355 0.0
C1242 C 0.88396 0.54164 0.4035 0.0
C1243 C 0.87083 0.54683 0.43778 0.0
C1244 C 0.89812 0.55568 0.49047 0.0
H1245 H 0.86283 0.54699 0.60267 0.0
H1246 H 0.86144 0.54968 0.56032 0.0
H1247 H 0.91062 0.56248 0.52375 0.0
H1248 H 0.90529 0.53667 0.41102 0.0
H1249 H 0.90403 0.53931 0.45288 0.0
H1250 H 0.85397 0.53109 0.48135 0.0
C1251 C 0.87104 0.54671 0.56755 0.0
C1252 C 0.89815 0.55562 0.51473 0.0
C1253 C 0.87188 0.54523 0.59177 0.0
C1254 C 0.89559 0.53954 0.41812 0.0
C1255 C 0.89496 0.54118 0.44217 0.0
C1256 C 0.86638 0.53825 0.49045 0.0
C1257 C 0.88276 0.54473 0.5529 0.0
C1258 C 0.88234 0.54649 0.52721 0.0
C1259 C 0.88265 0.54492 0.45232 0.0
C1260 C 0.88229 0.5466 0.47802 0.0
H1261 H 0.90554 0.53645 0.59397 0.0
H1262 H 0.90406 0.53901 0.55211 0.0
H1263 H 0.85402 0.531 0.52399 0.0
H1264 H 0.86239 0.54695 0.40274 0.0
H1265 H 0.86123 0.54975 0.44511 0.0
C1266 C 0.35616 0.89184 0.58621 0.0
C1267 C 0.34129 0.88288 0.60051 0.0
C1268 C 0.35476 0.88977 0.56211 0.0
C1269 C 0.3238 0.87727 0.51327 0.0
H1270 H 0.36087 0.87457 0.48027 0.0
C1271 C 0.32562 0.87175 0.41218 0.0
C1272 C 0.34206 0.88288 0.40194 0.0
C1273 C 0.32401 0.86973 0.43642 0.0
C1274 C 0.35045 0.87539 0.4892 0.0
H1275 H 0.31321 0.86476 0.60062 0.0
H1276 H 0.31074 0.86113 0.55823 0.0
H1277 H 0.36069 0.87456 0.52261 0.0
H1278 H 0.36967 0.90063 0.40917 0.0
H1279 H 0.36686 0.89715 0.45111 0.0
H1280 H 0.31377 0.8784 0.47967 0.0
C1281 C 0.32349 0.86981 0.56582 0.0
C1282 C 0.35035 0.87538 0.51348 0.0
C1283 C 0.32491 0.87183 0.59007 0.0
C1284 C 0.35681 0.8919 0.41642 0.0
C1285 C 0.35523 0.88981 0.44051 0.0
C1286 C 0.3239 0.87726 0.48888 0.0
C1287 C 0.33844 0.8787 0.55159 0.0
C1288 C 0.33728 0.87675 0.52582 0.0
C1289 C 0.33885 0.87868 0.45084 0.0
C1290 C 0.33748 0.87675 0.47659 0.0
H1291 H 0.36898 0.90052 0.5936 0.0
H1292 H 0.36648 0.89706 0.55166 0.0
H1293 H 0.3136 0.87841 0.52227 0.0
H1294 H 0.314 0.86464 0.40149 0.0
H1295 H 0.31122 0.86101 0.44386 0.0
C1296 C 0.4506 0.32704 0.59086 0.0
C1297 C 0.45378 0.3429 0.6011 0.0
C1298 C 0.44934 0.32499 0.5666 0.0
C1299 C 0.4403 0.34332 0.51395 0.0
H1300 H 0.46517 0.32405 0.48057 0.0
C1301 C 0.45515 0.35591 0.41678 0.0
C1302 C 0.45339 0.34216 0.40247 0.0
C1303 C 0.45384 0.35399 0.4409 0.0
C1304 C 0.45793 0.32921 0.48966 0.0
H1305 H 0.45827 0.36907 0.59386 0.0
H1306 H 0.45612 0.36552 0.55191 0.0
H1307 H 0.46532 0.32424 0.52318 0.0
H1308 H 0.44898 0.31559 0.40236 0.0
H1309 H 0.44668 0.31222 0.4448 0.0
H1310 H 0.43312 0.34857 0.48064 0.0
C1311 C 0.45439 0.35457 0.56251 0.0
C1312 C 0.45802 0.32932 0.51405 0.0
C1313 C 0.45574 0.35664 0.58661 0.0
C1314 C 0.45038 0.32642 0.41292 0.0
C1315 C 0.44914 0.32452 0.4372 0.0
C1316 C 0.4402 0.3432 0.48968 0.0
C1317 C 0.45108 0.33871 0.55218 0.0
C1318 C 0.44954 0.33678 0.52644 0.0
C1319 C 0.45074 0.33827 0.45144 0.0
C1320 C 0.44936 0.33654 0.47722 0.0
H1321 H 0.44905 0.31621 0.60155 0.0
H1322 H 0.44673 0.3126 0.55915 0.0
H1323 H 0.43329 0.34879 0.52297 0.0
H1324 H 0.45755 0.36825 0.40938 0.0
H1325 H 0.45548 0.36497 0.45135 0.0
C1326 C 0.12366 0.45147 0.59023 0.0
C1327 C 0.11158 0.45564 0.60019 0.0
C1328 C 0.12442 0.44995 0.56601 0.0
C1329 C 0.09739 0.44172 0.51332 0.0
H1330 H 0.14152 0.46518 0.47969 0.0
C1331 C 0.09998 0.45747 0.4166 0.0
C1332 C 0.11134 0.45497 0.40196 0.0
C1333 C 0.10067 0.45595 0.44066 0.0
C1334 C 0.12912 0.45832 0.48886 0.0
H1335 H 0.09096 0.46163 0.5925 0.0
H1336 H 0.09229 0.459 0.55063 0.0
H1337 H 0.14161 0.46538 0.52233 0.0
H1338 H 0.13251 0.44905 0.40118 0.0
H1339 H 0.13376 0.44644 0.44357 0.0
H1340 H 0.08484 0.43493 0.48007 0.0
C1341 C 0.10106 0.45672 0.56142 0.0
C1342 C 0.12917 0.45844 0.51326 0.0
C1343 C 0.10039 0.45835 0.58547 0.0
C1344 C 0.12356 0.45104 0.41201 0.0
C1345 C 0.12433 0.4496 0.43625 0.0
C1346 C 0.09734 0.44159 0.48906 0.0
C1347 C 0.11298 0.45239 0.55138 0.0
C1348 C 0.11326 0.45054 0.52571 0.0
C1349 C 0.11277 0.45191 0.4508 0.0
C1350 C 0.11316 0.45029 0.47652 0.0
H1351 H 0.13247 0.44933 0.60111 0.0
H1352 H 0.13372 0.44658 0.55875 0.0
H1353 H 0.08493 0.43517 0.52241 0.0
H1354 H 0.09044 0.46058 0.40951 0.0
H1355 H 0.09181 0.45813 0.45138 0.0
C1356 C 0.66899 0.12318 0.41388 0.0
C1357 C 0.65302 0.11068 0.40369 0.0
C1358 C 0.6711 0.12392 0.43813 0.0
C1359 C 0.65276 0.09643 0.49059 0.0
H1360 H 0.67204 0.14037 0.52447 0.0
C1361 C 0.63985 0.09801 0.58771 0.0
C1362 C 0.65359 0.10979 0.6022 0.0
C1363 C 0.64186 0.09886 0.5636 0.0
C1364 C 0.66688 0.12802 0.51523 0.0
H1365 H 0.62673 0.08926 0.41101 0.0
H1366 H 0.63041 0.09056 0.45294 0.0
H1367 H 0.67193 0.14058 0.48184 0.0
H1368 H 0.68022 0.13186 0.60264 0.0
H1369 H 0.68372 0.13335 0.56021 0.0
H1370 H 0.64744 0.08379 0.52375 0.0
C1371 C 0.64137 0.09968 0.4423 0.0
C1372 C 0.66682 0.12815 0.49083 0.0
C1373 C 0.63923 0.09903 0.41822 0.0
C1374 C 0.66939 0.12258 0.59194 0.0
C1375 C 0.67137 0.12348 0.56767 0.0
C1376 C 0.65284 0.0963 0.51485 0.0
C1377 C 0.65734 0.11203 0.45257 0.0
C1378 C 0.65934 0.1123 0.47828 0.0
C1379 C 0.65765 0.11151 0.55326 0.0
C1380 C 0.65949 0.11204 0.52749 0.0
H1381 H 0.67986 0.13235 0.40315 0.0
H1382 H 0.68357 0.13355 0.44555 0.0
H1383 H 0.64728 0.08402 0.48142 0.0
H1384 H 0.62748 0.08803 0.59497 0.0
H1385 H 0.6309 0.08965 0.55302 0.0
C1386 C 0.54314 0.66923 0.41238 0.0
C1387 C 0.53863 0.65305 0.40188 0.0
C1388 C 0.54417 0.67095 0.43669 0.0
C1389 C 0.54998 0.65 0.48914 0.0
H1390 H 0.52938 0.67355 0.52272 0.0
C1391 C 0.53522 0.63877 0.58646 0.0
C1392 C 0.53918 0.65325 0.60076 0.0
C1393 C 0.53618 0.64046 0.56231 0.0
C1394 C 0.53541 0.66715 0.51356 0.0
H1395 H 0.53135 0.62596 0.40872 0.0
H1396 H 0.53302 0.62894 0.45074 0.0
H1397 H 0.52923 0.67349 0.48008 0.0
H1398 H 0.54699 0.68088 0.6008 0.0
H1399 H 0.54863 0.68385 0.5583 0.0
H1400 H 0.55593 0.64341 0.5224 0.0
C1401 C 0.53604 0.64038 0.44032 0.0
C1402 C 0.53533 0.66711 0.48916 0.0
C1403 C 0.53497 0.63865 0.41617 0.0
C1404 C 0.54388 0.66947 0.59026 0.0
C1405 C 0.54476 0.67116 0.56594 0.0
C1406 C 0.55004 0.65003 0.51341 0.0
C1407 C 0.54081 0.65657 0.45091 0.0
C1408 C 0.54227 0.65818 0.4767 0.0
C1409 C 0.5411 0.65669 0.55172 0.0
C1410 C 0.54242 0.65825 0.52593 0.0
H1411 H 0.54602 0.68057 0.40185 0.0
H1412 H 0.54793 0.68362 0.44433 0.0
H1413 H 0.55583 0.64337 0.48009 0.0
H1414 H 0.53147 0.62605 0.59391 0.0
H1415 H 0.53294 0.62898 0.55187 0.0
C1416 C 0.51542 0.12711 0.19677 0.0
C1417 C 0.50253 0.12684 0.21147 0.0
C1418 C 0.53125 0.12962 0.20592 0.0
C1419 C 0.55873 0.14299 0.25992 0.0
H1420 H 0.57676 0.11467 0.2331 0.0
C1421 C 0.60738 0.12635 0.3061 0.0
C1422 C 0.62117 0.12738 0.29252 0.0
C1423 C 0.59427 0.12877 0.29593 0.0
C1424 C 0.57199 0.12281 0.24061 0.0
H1425 H 0.49628 0.12933 0.24728 0.0
H1426 H 0.5235 0.13307 0.2633 0.0
H1427 H 0.55138 0.11426 0.21561 0.0
H1428 H 0.63228 0.1323 0.25773 0.0
H1429 H 0.6093 0.13626 0.24005 0.0
H1430 H 0.57905 0.15086 0.28556 0.0
C1431 C 0.52168 0.13182 0.24463 0.0
C1432 C 0.55748 0.12267 0.23052 0.0
C1433 C 0.50598 0.12956 0.23544 0.0
C1434 C 0.62184 0.13139 0.26872 0.0
C1435 C 0.60865 0.13358 0.25853 0.0
C1436 C 0.57312 0.14293 0.2702 0.0
C1437 C 0.53445 0.13165 0.23004 0.0
C1438 C 0.55057 0.13267 0.2401 0.0
C1439 C 0.59461 0.13203 0.27195 0.0
C1440 C 0.57984 0.13278 0.26068 0.0
H1441 H 0.51323 0.12522 0.17819 0.0
H1442 H 0.54091 0.12981 0.19407 0.0
H1443 H 0.55399 0.1511 0.26756 0.0
H1444 H 0.6065 0.12334 0.32449 0.0
H1445 H 0.58353 0.12742 0.30664 0.0
C1446 C 0.48978 0.62372 0.26473 0.0
C1447 C 0.49229 0.62315 0.28881 0.0
C1448 C 0.47458 0.61069 0.25399 0.0
C1449 C 0.42898 0.57643 0.26378 0.0
H1450 H 0.43662 0.55271 0.21205 0.0
C1451 C 0.37494 0.50907 0.23064 0.0
C1452 C 0.37473 0.50467 0.2071 0.0
C1453 C 0.38843 0.52492 0.23939 0.0
C1454 C 0.43414 0.55938 0.22611 0.0
H1455 H 0.48042 0.60886 0.32065 0.0
H1456 H 0.45366 0.58621 0.30184 0.0
H1457 H 0.46152 0.57807 0.22976 0.0
H1458 H 0.38807 0.51383 0.17401 0.0
H1459 H 0.41129 0.54183 0.18906 0.0
H1460 H 0.40159 0.55794 0.26005 0.0
C1461 C 0.46357 0.59673 0.29134 0.0
C1462 C 0.44846 0.57387 0.23633 0.0
C1463 C 0.47891 0.60964 0.30207 0.0
C1464 C 0.38795 0.51678 0.19228 0.0
C1465 C 0.40133 0.53278 0.20098 0.0
C1466 C 0.41459 0.56208 0.25332 0.0
C1467 C 0.46144 0.59696 0.26714 0.0
C1468 C 0.44604 0.58237 0.25546 0.0
C1469 C 0.40193 0.53692 0.22476 0.0
C1470 C 0.41701 0.55317 0.23458 0.0
H1471 H 0.49981 0.63394 0.25398 0.0
H1472 H 0.47317 0.61122 0.23533 0.0
H1473 H 0.42677 0.58289 0.27836 0.0
H1474 H 0.36502 0.5 0.24259 0.0
H1475 H 0.38854 0.52742 0.25785 0.0
C1476 C 0.86595 0.47747 0.31068 0.0
C1477 C 0.86583 0.48997 0.29557 0.0
C1478 C 0.86315 0.46137 0.30212 0.0
C1479 C 0.84823 0.4324 0.24957 0.0
H1480 H 0.87843 0.41604 0.27479 0.0
C1481 C 0.86523 0.38467 0.20204 0.0
C1482 C 0.86558 0.37148 0.21546 0.0
C1483 C 0.86248 0.39743 0.2126 0.0
C1484 C 0.86974 0.42031 0.26777 0.0
H1485 H 0.86219 0.49516 0.25969 0.0
H1486 H 0.85787 0.46746 0.24471 0.0
H1487 H 0.87868 0.44141 0.29209 0.0
H1488 H 0.86273 0.36102 0.25043 0.0
H1489 H 0.85814 0.38341 0.26879 0.0
H1490 H 0.83993 0.41162 0.22457 0.0
C1491 C 0.85971 0.46982 0.26326 0.0
C1492 C 0.86981 0.43482 0.27774 0.0
C1493 C 0.86231 0.48581 0.27184 0.0
C1494 C 0.86258 0.37101 0.23955 0.0
C1495 C 0.86003 0.38387 0.25012 0.0
C1496 C 0.84833 0.41799 0.23941 0.0
C1497 C 0.86036 0.45749 0.27821 0.0
C1498 C 0.85919 0.44119 0.26865 0.0
C1499 C 0.86022 0.39735 0.23681 0.0
C1500 C 0.85919 0.4119 0.24831 0.0
H1501 H 0.86846 0.4802 0.32909 0.0
H1502 H 0.86338 0.45206 0.31424 0.0
H1503 H 0.83964 0.43672 0.24235 0.0
H1504 H 0.86745 0.38538 0.18344 0.0
H1505 H 0.86281 0.40775 0.20195 0.0
C1506 C 0.47876 0.87002 0.1933 0.0
C1507 C 0.49127 0.86976 0.20825 0.0
C1508 C 0.46278 0.86739 0.20205 0.0
C1509 C 0.43416 0.85264 0.25499 0.0
H1510 H 0.41719 0.88227 0.22953 0.0
C1511 C 0.38607 0.86928 0.30236 0.0
C1512 C 0.37249 0.86889 0.28897 0.0
C1513 C 0.39903 0.86683 0.29184 0.0
C1514 C 0.42165 0.87376 0.23663 0.0
H1515 H 0.49665 0.86618 0.24407 0.0
H1516 H 0.46918 0.86222 0.25939 0.0
H1517 H 0.44263 0.88272 0.21211 0.0
H1518 H 0.36163 0.86513 0.25413 0.0
H1519 H 0.38441 0.86113 0.23583 0.0
H1520 H 0.41351 0.84435 0.28019 0.0
C1521 C 0.47141 0.86399 0.24081 0.0
C1522 C 0.4362 0.87393 0.22659 0.0
C1523 C 0.48727 0.86638 0.23203 0.0
C1524 C 0.3719 0.86553 0.26497 0.0
C1525 C 0.38498 0.86331 0.25444 0.0
C1526 C 0.41974 0.85266 0.26523 0.0
C1527 C 0.45903 0.86467 0.226 0.0
C1528 C 0.44276 0.86349 0.23575 0.0
C1529 C 0.39879 0.86417 0.26771 0.0
C1530 C 0.41343 0.86332 0.25623 0.0
H1531 H 0.48138 0.87243 0.17486 0.0
H1532 H 0.45343 0.86764 0.19002 0.0
H1533 H 0.4386 0.84417 0.26226 0.0
H1534 H 0.38687 0.87179 0.32089 0.0
H1535 H 0.40961 0.86766 0.30245 0.0
C1536 C 0.61085 0.48134 0.20357 0.0
C1537 C 0.62393 0.49508 0.21685 0.0
C1538 C 0.59817 0.46589 0.21434 0.0
C1539 C 0.57478 0.45061 0.26895 0.0
H1540 H 0.56037 0.40394 0.24574 0.0
C1541 C 0.51737 0.38947 0.31142 0.0
C1542 C 0.5057 0.37629 0.29618 0.0
C1543 C 0.53353 0.403 0.30336 0.0
C1544 C 0.56411 0.41688 0.25233 0.0
H1545 H 0.63421 0.5032 0.25179 0.0
H1546 H 0.61188 0.47636 0.27054 0.0
H1547 H 0.5853 0.42942 0.22791 0.0
H1548 H 0.50203 0.36678 0.26062 0.0
H1549 H 0.52974 0.39054 0.24645 0.0
H1550 H 0.55321 0.43838 0.29256 0.0
C1551 C 0.61151 0.47755 0.25182 0.0
C1552 C 0.57843 0.43144 0.24216 0.0
C1553 C 0.62432 0.49287 0.24104 0.0
C1554 C 0.51074 0.37668 0.27289 0.0
C1555 C 0.52675 0.39029 0.26477 0.0
C1556 C 0.56031 0.4361 0.27889 0.0
C1557 C 0.5982 0.46401 0.23861 0.0
C1558 C 0.58379 0.44844 0.25024 0.0
C1559 C 0.53828 0.40378 0.2798 0.0
C1560 C 0.55463 0.41904 0.27054 0.0
H1561 H 0.61022 0.48262 0.1849 0.0
H1562 H 0.58797 0.45567 0.20379 0.0
H1563 H 0.57853 0.46362 0.27535 0.0
H1564 H 0.51395 0.38947 0.32952 0.0
H1565 H 0.54221 0.41295 0.31556 0.0
C1566 C 0.13234 0.62476 0.23713 0.0
C1567 C 0.12886 0.6242 0.21316 0.0
C1568 C 0.1349 0.61185 0.24747 0.0
C1569 C 0.14571 0.57717 0.23608 0.0
H1570 H 0.11636 0.55454 0.28984 0.0
C1571 C 0.13176 0.50948 0.26925 0.0
C1572 C 0.12876 0.50567 0.29312 0.0
C1573 C 0.13429 0.5254 0.26047 0.0
C1574 C 0.12495 0.5609 0.27517 0.0
H1575 H 0.12619 0.61004 0.18109 0.0
H1576 H 0.13084 0.58755 0.19922 0.0
H1577 H 0.11662 0.57992 0.27259 0.0
H1578 H 0.12697 0.51596 0.32665 0.0
H1579 H 0.13196 0.54397 0.31146 0.0
H1580 H 0.15411 0.5582 0.23865 0.0
C1581 C 0.13153 0.598 0.20994 0.0
C1582 C 0.12503 0.57542 0.26523 0.0
C1583 C 0.12878 0.61083 0.1996 0.0
C1584 C 0.12908 0.51843 0.30814 0.0
C1585 C 0.13182 0.53445 0.29939 0.0
C1586 C 0.1458 0.56274 0.2462 0.0
C1587 C 0.13423 0.59818 0.23406 0.0
C1588 C 0.13523 0.58356 0.24541 0.0
C1589 C 0.13409 0.538 0.27536 0.0
C1590 C 0.13522 0.55425 0.26568 0.0
H1591 H 0.13254 0.63488 0.2481 0.0
H1592 H 0.13714 0.61239 0.26606 0.0
H1593 H 0.15383 0.58332 0.22094 0.0
H1594 H 0.13152 0.49992 0.25716 0.0
H1595 H 0.13574 0.52751 0.24185 0.0
C1596 C 0.48536 0.86268 0.77098 0.0
C1597 C 0.49037 0.86864 0.79394 0.0
C1598 C 0.46987 0.86082 0.76166 0.0
C1599 C 0.42696 0.85581 0.77543 0.0
H1600 H 0.43282 0.88015 0.71696 0.0
C1601 C 0.37362 0.86899 0.73792 0.0
C1602 C 0.37217 0.86974 0.71365 0.0
C1603 C 0.38702 0.86693 0.74773 0.0
C1604 C 0.43079 0.87295 0.73302 0.0
H1605 H 0.48253 0.8765 0.82545 0.0
H1606 H 0.45523 0.87298 0.80912 0.0
H1607 H 0.45775 0.87963 0.73436 0.0
H1608 H 0.38308 0.86799 0.68061 0.0
H1609 H 0.40602 0.86367 0.69764 0.0
H1610 H 0.39993 0.84888 0.77399 0.0
C1611 C 0.46344 0.86987 0.7984 0.0
C1612 C 0.44514 0.87276 0.74305 0.0
C1613 C 0.47909 0.87194 0.80769 0.0
C1614 C 0.38397 0.86765 0.69938 0.0
C1615 C 0.39721 0.86531 0.70918 0.0
C1616 C 0.41249 0.85578 0.76522 0.0
C1617 C 0.45891 0.86467 0.77513 0.0
C1618 C 0.4434 0.86429 0.7644 0.0
C1619 C 0.39915 0.8653 0.7335 0.0
C1620 C 0.41424 0.86447 0.74394 0.0
H1621 H 0.49368 0.85997 0.75988 0.0
H1622 H 0.46658 0.85661 0.74374 0.0
H1623 H 0.42527 0.84907 0.79183 0.0
H1624 H 0.36479 0.87066 0.74941 0.0
H1625 H 0.3882 0.86723 0.76649 0.0
C1626 C 0.6212 0.48933 0.76864 0.0
C1627 C 0.62228 0.49206 0.79281 0.0
C1628 C 0.6078 0.47378 0.75905 0.0
C1629 C 0.56339 0.43708 0.7734 0.0
H1630 H 0.56918 0.41769 0.71565 0.0
C1631 C 0.50774 0.37342 0.73392 0.0
C1632 C 0.50361 0.37477 0.71064 0.0
C1633 C 0.52326 0.38651 0.74391 0.0
C1634 C 0.56741 0.42301 0.73176 0.0
H1635 H 0.61071 0.48021 0.82599 0.0
H1636 H 0.58773 0.45277 0.80938 0.0
H1637 H 0.59468 0.44234 0.73396 0.0
H1638 H 0.51298 0.39057 0.67932 0.0
H1639 H 0.54033 0.41339 0.69681 0.0
H1640 H 0.53617 0.41757 0.77127 0.0
C1641 C 0.59686 0.46289 0.79771 0.0
C1642 C 0.58198 0.43717 0.74224 0.0
C1643 C 0.61012 0.47857 0.80728 0.0
C1644 C 0.51574 0.38917 0.6973 0.0
C1645 C 0.53142 0.40218 0.70726 0.0
C1646 C 0.54893 0.42279 0.76311 0.0
C1647 C 0.59528 0.46044 0.77343 0.0
C1648 C 0.58012 0.44454 0.76306 0.0
C1649 C 0.53512 0.40114 0.7308 0.0
C1650 C 0.55076 0.41574 0.74208 0.0
H1651 H 0.6303 0.4995 0.75698 0.0
H1652 H 0.60691 0.47255 0.7403 0.0
H1653 H 0.5613 0.44257 0.78911 0.0
H1654 H 0.49873 0.36251 0.74472 0.0
H1655 H 0.5259 0.38532 0.76204 0.0
C1656 C 0.1309 0.62148 0.7685 0.0
C1657 C 0.12797 0.6222 0.79241 0.0
C1658 C 0.13338 0.60813 0.75949 0.0
C1659 C 0.12424 0.56326 0.7738 0.0
H1660 H 0.15288 0.56994 0.71922 0.0
C1661 C 0.1323 0.50725 0.73562 0.0
C1662 C 0.12857 0.50416 0.71172 0.0
C1663 C 0.13473 0.5227 0.7459 0.0
C1664 C 0.14483 0.56792 0.73446 0.0
H1665 H 0.12627 0.60996 0.82579 0.0
H1666 H 0.1312 0.587 0.81022 0.0
H1667 H 0.15305 0.59524 0.73712 0.0
H1668 H 0.12531 0.5153 0.6797 0.0
H1669 H 0.12976 0.54242 0.69772 0.0
H1670 H 0.11612 0.53597 0.77115 0.0
C1671 C 0.13102 0.59643 0.79828 0.0
C1672 C 0.14485 0.58237 0.74468 0.0
C1673 C 0.12831 0.60967 0.80725 0.0
C1674 C 0.12811 0.51724 0.69816 0.0
C1675 C 0.13073 0.5328 0.70843 0.0
C1676 C 0.1244 0.54889 0.76376 0.0
C1677 C 0.13323 0.59526 0.77421 0.0
C1678 C 0.13436 0.58019 0.76431 0.0
C1679 C 0.13368 0.53549 0.73249 0.0
C1680 C 0.13452 0.55103 0.74384 0.0
H1681 H 0.13065 0.63089 0.75655 0.0
H1682 H 0.13477 0.60755 0.74084 0.0
H1683 H 0.11571 0.56096 0.78857 0.0
H1684 H 0.1328 0.49749 0.7466 0.0
H1685 H 0.13716 0.52453 0.76445 0.0
C1686 C 0.62197 0.13188 0.73499 0.0
C1687 C 0.62094 0.12668 0.71163 0.0
C1688 C 0.60866 0.13404 0.74484 0.0
C1689 C 0.57222 0.14165 0.73221 0.0
H1690 H 0.55209 0.11551 0.78909 0.0
C1691 C 0.50579 0.12937 0.76843 0.0
C1692 C 0.50294 0.12765 0.79258 0.0
C1693 C 0.52131 0.13135 0.75897 0.0
C1694 C 0.55774 0.12322 0.77351 0.0
H1695 H 0.60547 0.12045 0.68002 0.0
H1696 H 0.58228 0.12453 0.69725 0.0
H1697 H 0.57724 0.11548 0.77154 0.0
H1698 H 0.51452 0.12758 0.82584 0.0
H1699 H 0.54191 0.13173 0.80944 0.0
H1700 H 0.55291 0.14963 0.73426 0.0
C1701 C 0.5934 0.1268 0.70788 0.0
C1702 C 0.57211 0.1231 0.76339 0.0
C1703 C 0.60663 0.1244 0.69807 0.0
C1704 C 0.51626 0.12869 0.80714 0.0
C1705 C 0.53191 0.13094 0.79769 0.0
C1706 C 0.55798 0.142 0.74252 0.0
C1707 C 0.59414 0.1313 0.73148 0.0
C1708 C 0.57938 0.13217 0.74254 0.0
C1709 C 0.5345 0.13193 0.77344 0.0
C1710 C 0.55041 0.13262 0.76319 0.0
H1711 H 0.6328 0.13377 0.74596 0.0
H1712 H 0.60962 0.13767 0.76301 0.0
H1713 H 0.57771 0.14889 0.71624 0.0
H1714 H 0.49575 0.12852 0.7567 0.0
H1715 H 0.52265 0.13179 0.74022 0.0
C1716 C 0.38861 0.51786 0.81027 0.0
C1717 C 0.3752 0.50627 0.79523 0.0
C1718 C 0.4022 0.53392 0.80203 0.0
C1719 C 0.41587 0.56448 0.75101 0.0
H1720 H 0.46271 0.57846 0.77317 0.0
C1721 C 0.48005 0.6113 0.70168 0.0
C1722 C 0.49397 0.62419 0.71494 0.0
C1723 C 0.46465 0.5986 0.71253 0.0
C1724 C 0.44968 0.57483 0.76702 0.0
H1725 H 0.36536 0.50265 0.75985 0.0
H1726 H 0.3892 0.53018 0.74537 0.0
H1727 H 0.4375 0.55321 0.79057 0.0
H1728 H 0.50244 0.6341 0.74996 0.0
H1729 H 0.47568 0.61176 0.76882 0.0
H1730 H 0.42834 0.58573 0.72666 0.0
C1731 C 0.3891 0.52721 0.76367 0.0
C1732 C 0.43519 0.5604 0.77707 0.0
C1733 C 0.37543 0.5113 0.77196 0.0
C1734 C 0.49198 0.62437 0.73921 0.0
C1735 C 0.4767 0.61154 0.75005 0.0
C1736 C 0.43041 0.57876 0.74073 0.0
C1737 C 0.4028 0.53865 0.77849 0.0
C1738 C 0.41808 0.5549 0.76904 0.0
C1739 C 0.46299 0.59841 0.73685 0.0
C1740 C 0.44745 0.58397 0.74852 0.0
H1741 H 0.38873 0.51444 0.82834 0.0
H1742 H 0.41232 0.54254 0.81408 0.0
H1743 H 0.4029 0.56087 0.74466 0.0
H1744 H 0.48115 0.61083 0.68296 0.0
H1745 H 0.4543 0.58854 0.70197 0.0
C1746 C 0.8646 0.37481 0.76869 0.0
C1747 C 0.86665 0.37372 0.79277 0.0
C1748 C 0.86212 0.38812 0.75949 0.0
C1749 C 0.86988 0.43241 0.77437 0.0
H1750 H 0.84339 0.42642 0.7178 0.0
C1751 C 0.86221 0.48851 0.73569 0.0
C1752 C 0.86688 0.49215 0.7121 0.0
C1753 C 0.85966 0.47296 0.74577 0.0
C1754 C 0.85084 0.42825 0.73359 0.0
H1755 H 0.86675 0.38519 0.8262 0.0
H1756 H 0.86182 0.40805 0.81026 0.0
H1757 H 0.84296 0.40099 0.73568 0.0
H1758 H 0.87171 0.48189 0.68035 0.0
H1759 H 0.86706 0.45458 0.698 0.0
H1760 H 0.87765 0.45965 0.7723 0.0
C1761 C 0.86269 0.39897 0.79837 0.0
C1762 C 0.85067 0.41372 0.74382 0.0
C1763 C 0.86541 0.38578 0.80754 0.0
C1764 C 0.86819 0.47952 0.69858 0.0
C1765 C 0.86544 0.46385 0.70864 0.0
C1766 C 0.86986 0.44686 0.76433 0.0
C1767 C 0.86141 0.40055 0.77417 0.0
C1768 C 0.86038 0.41566 0.76419 0.0
C1769 C 0.86152 0.46061 0.73245 0.0
C1770 C 0.86052 0.44496 0.7437 0.0
H1771 H 0.86556 0.36577 0.75679 0.0
H1772 H 0.86145 0.38902 0.74077 0.0
H1773 H 0.87782 0.43455 0.78974 0.0
H1774 H 0.86104 0.49791 0.74662 0.0
H1775 H 0.85647 0.47069 0.76411 0.0
loop_
_geom_bond_atom_site_label_1
_geom_bond_atom_site_label_2
_geom_bond_distance
_geom_bond_site_symmetry_2
_ccdc_geom_bond_type
O0 Cd1 2.223 . S
O0 C8 1.315 . S
Cd1 O0 2.223 . S
Cd1 O4 2.297 . S
Cd1 O5 2.439 . S
Cd1 O11 2.240 . S
Cd2 O3 2.240 . S
Cd2 O10 2.223 . S
Cd2 O12 2.297 . S
Cd2 O13 2.439 . S
O3 Cd2 2.240 . S
O3 C8 1.279 . S
O4 Cd1 2.297 . S
O4 C6 1.247 . S
O5 Cd1 2.439 . S
O5 C6 1.208 . S
C6 O4 1.247 . S
C6 O5 1.208 . S
C7 O12 1.247 . S
C7 O13 1.208 . S
C8 O0 1.315 . S
C8 O3 1.279 . S
C9 O10 1.315 . S
C9 O11 1.279 . S
O10 Cd2 2.223 . S
O10 C9 1.315 . S
O11 Cd1 2.240 . S
O11 C9 1.279 . S
O12 Cd2 2.297 . S
O12 C7 1.247 . S
O13 Cd2 2.439 . S
O13 C7 1.208 . S
O14 Cd15 2.223 . S
O14 C22 1.315 . S
Cd15 O14 2.223 . S
Cd15 O18 2.297 . S
Cd15 O19 2.439 . S
Cd15 O25 2.240 . S
Cd16 O17 2.240 . S
Cd16 O24 2.223 . S
Cd16 O26 2.297 . S
Cd16 O27 2.439 . S
O17 Cd16 2.240 . S
O17 C22 1.279 . S
O18 Cd15 2.297 . S
O18 C20 1.247 . S
O19 Cd15 2.439 . S
O19 C20 1.208 . S
C20 O18 1.247 . S
C20 O19 1.208 . S
C21 O26 1.247 . S
C21 O27 1.208 . S
C22 O14 1.315 . S
C22 O17 1.279 . S
C23 O24 1.315 . S
C23 O25 1.279 . S
O24 Cd16 2.223 . S
O24 C23 1.315 . S
O25 Cd15 2.240 . S
O25 C23 1.279 . S
O26 Cd16 2.297 . S
O26 C21 1.247 . S
O27 Cd16 2.439 . S
O27 C21 1.208 . S
O28 Cd29 2.223 . S
O28 C36 1.315 . S
Cd29 O28 2.223 . S
Cd29 O32 2.297 . S
Cd29 O33 2.439 . S
Cd29 O39 2.240 . S
Cd30 O31 2.240 . S
Cd30 O38 2.223 . S
Cd30 O40 2.297 . S
Cd30 O41 2.439 . S
O31 Cd30 2.240 . S
O31 C36 1.279 . S
O32 Cd29 2.297 . S
O32 C34 1.247 . S
O33 Cd29 2.439 . S
O33 C34 1.208 . S
C34 O32 1.247 . S
C34 O33 1.208 . S
C35 O40 1.247 . S
C35 O41 1.208 . S
C36 O28 1.315 . S
C36 O31 1.279 . S
C37 O38 1.315 . S
C37 O39 1.279 . S
O38 Cd30 2.223 . S
O38 C37 1.315 . S
O39 Cd29 2.240 . S
O39 C37 1.279 . S
O40 Cd30 2.297 . S
O40 C35 1.247 . S
O41 Cd30 2.439 . S
O41 C35 1.208 . S
O42 Cd43 2.223 . S
O42 C50 1.315 . S
Cd43 O42 2.223 . S
Cd43 O46 2.297 . S
Cd43 O47 2.439 . S
Cd43 O53 2.240 . S
Cd44 O45 2.240 . S
Cd44 O52 2.223 . S
Cd44 O54 2.297 . S
Cd44 O55 2.439 . S
O45 Cd44 2.240 . S
O45 C50 1.279 . S
O46 Cd43 2.297 . S
O46 C48 1.247 . S
O47 Cd43 2.439 . S
O47 C48 1.208 . S
C48 O46 1.247 . S
C48 O47 1.208 . S
C49 O54 1.247 . S
C49 O55 1.208 . S
C50 O42 1.315 . S
C50 O45 1.279 . S
C51 O52 1.315 . S
C51 O53 1.279 . S
O52 Cd44 2.223 . S
O52 C51 1.315 . S
O53 Cd43 2.240 . S
O53 C51 1.279 . S
O54 Cd44 2.297 . S
O54 C49 1.247 . S
O55 Cd44 2.439 . S
O55 C49 1.208 . S
O56 Cd57 2.223 . S
O56 C64 1.315 . S
Cd57 O56 2.223 . S
Cd57 O60 2.297 . S
Cd57 O61 2.439 . S
Cd57 O67 2.240 . S
Cd58 O59 2.240 . S
Cd58 O66 2.223 . S
Cd58 O68 2.297 . S
Cd58 O69 2.439 . S
O59 Cd58 2.240 . S
O59 C64 1.279 . S
O60 Cd57 2.297 . S
O60 C62 1.247 . S
O61 Cd57 2.439 . S
O61 C62 1.208 . S
C62 O60 1.247 . S
C62 O61 1.208 . S
C63 O68 1.247 . S
C63 O69 1.208 . S
C64 O56 1.315 . S
C64 O59 1.279 . S
C65 O66 1.315 . S
C65 O67 1.279 . S
O66 Cd58 2.223 . S
O66 C65 1.315 . S
O67 Cd57 2.240 . S
O67 C65 1.279 . S
O68 Cd58 2.297 . S
O68 C63 1.247 . S
O69 Cd58 2.439 . S
O69 C63 1.208 . S
O70 Cd71 2.223 . S
O70 C78 1.315 . S
Cd71 O70 2.223 . S
Cd71 O74 2.297 . S
Cd71 O75 2.439 . S
Cd71 O81 2.240 . S
Cd72 O73 2.240 . S
Cd72 O80 2.223 . S
Cd72 O82 2.297 . S
Cd72 O83 2.439 . S
O73 Cd72 2.240 . S
O73 C78 1.279 . S
O74 Cd71 2.297 . S
O74 C76 1.247 . S
O75 Cd71 2.439 . S
O75 C76 1.208 . S
C76 O74 1.247 . S
C76 O75 1.208 . S
C77 O82 1.247 . S
C77 O83 1.208 . S
C78 O70 1.315 . S
C78 O73 1.279 . S
C79 O80 1.315 . S
C79 O81 1.279 . S
O80 Cd72 2.223 . S
O80 C79 1.315 . S
O81 Cd71 2.240 . S
O81 C79 1.279 . S
O82 Cd72 2.297 . S
O82 C77 1.247 . S
O83 Cd72 2.439 . S
O83 C77 1.208 . S
O84 Cd85 2.223 . S
O84 C92 1.315 . S
Cd85 O84 2.223 . S
Cd85 O88 2.297 . S
Cd85 O89 2.439 . S
Cd85 O95 2.240 . S
Cd86 O87 2.240 . S
Cd86 O94 2.223 . S
Cd86 O96 2.297 . S
Cd86 O97 2.439 . S
O87 Cd86 2.240 . S
O87 C92 1.279 . S
O88 Cd85 2.297 . S
O88 C90 1.247 . S
O89 Cd85 2.439 . S
O89 C90 1.208 . S
C90 O88 1.247 . S
C90 O89 1.208 . S
C91 O96 1.247 . S
C91 O97 1.208 . S
C92 O84 1.315 . S
C92 O87 1.279 . S
C93 O94 1.315 . S
C93 O95 1.279 . S
O94 Cd86 2.223 . S
O94 C93 1.315 . S
O95 Cd85 2.240 . S
O95 C93 1.279 . S
O96 Cd86 2.297 . S
O96 C91 1.247 . S
O97 Cd86 2.439 . S
O97 C91 1.208 . S
O98 Cd99 2.223 . S
O98 C106 1.315 . S
Cd99 O98 2.223 . S
Cd99 O102 2.297 . S
Cd99 O103 2.439 . S
Cd99 O109 2.240 . S
Cd100 O101 2.240 . S
Cd100 O108 2.223 . S
Cd100 O110 2.297 . S
Cd100 O111 2.439 . S
O101 Cd100 2.240 . S
O101 C106 1.279 . S
O102 Cd99 2.297 . S
O102 C104 1.247 . S
O103 Cd99 2.439 . S
O103 C104 1.208 . S
C104 O102 1.247 . S
C104 O103 1.208 . S
C105 O110 1.247 . S
C105 O111 1.208 . S
C106 O98 1.315 . S
C106 O101 1.279 . S
C107 O108 1.315 . S
C107 O109 1.279 . S
O108 Cd100 2.223 . S
O108 C107 1.315 . S
O109 Cd99 2.240 . S
O109 C107 1.279 . S
O110 Cd100 2.297 . S
O110 C105 1.247 . S
O111 Cd100 2.439 . S
O111 C105 1.208 . S
O112 Cd113 2.223 . S
O112 C120 1.315 . S
Cd113 O112 2.223 . S
Cd113 O116 2.297 . S
Cd113 O117 2.439 . S
Cd113 O123 2.240 . S
Cd114 O115 2.240 . S
Cd114 O122 2.223 . S
Cd114 O124 2.297 . S
Cd114 O125 2.439 . S
O115 Cd114 2.240 . S
O115 C120 1.279 . S
O116 Cd113 2.297 . S
O116 C118 1.247 . S
O117 Cd113 2.439 . S
O117 C118 1.208 . S
C118 O116 1.247 . S
C118 O117 1.208 . S
C119 O124 1.247 . S
C119 O125 1.208 . S
C120 O112 1.315 . S
C120 O115 1.279 . S
C121 O122 1.315 . S
C121 O123 1.279 . S
O122 Cd114 2.223 . S
O122 C121 1.315 . S
O123 Cd113 2.240 . S
O123 C121 1.279 . S
O124 Cd114 2.297 . S
O124 C119 1.247 . S
O125 Cd114 2.439 . S
O125 C119 1.208 . S
O126 Cd127 2.223 . S
O126 C134 1.315 . S
Cd127 O126 2.223 . S
Cd127 O130 2.297 . S
Cd127 O131 2.439 . S
Cd127 O137 2.240 . S
Cd128 O129 2.240 . S
Cd128 O136 2.223 . S
Cd128 O138 2.297 . S
Cd128 O139 2.439 . S
O129 Cd128 2.240 . S
O129 C134 1.279 . S
O130 Cd127 2.297 . S
O130 C132 1.247 . S
O131 Cd127 2.439 . S
O131 C132 1.208 . S
C132 O130 1.247 . S
C132 O131 1.208 . S
C133 O138 1.247 . S
C133 O139 1.208 . S
C134 O126 1.315 . S
C134 O129 1.279 . S
C135 O136 1.315 . S
C135 O137 1.279 . S
O136 Cd128 2.223 . S
O136 C135 1.315 . S
O137 Cd127 2.240 . S
O137 C135 1.279 . S
O138 Cd128 2.297 . S
O138 C133 1.247 . S
O139 Cd128 2.439 . S
O139 C133 1.208 . S
O140 Cd141 2.223 . S
O140 C148 1.315 . S
Cd141 O140 2.223 . S
Cd141 O144 2.297 . S
Cd141 O145 2.439 . S
Cd141 O151 2.240 . S
Cd142 O143 2.240 . S
Cd142 O150 2.223 . S
Cd142 O152 2.297 . S
Cd142 O153 2.439 . S
O143 Cd142 2.240 . S
O143 C148 1.279 . S
O144 Cd141 2.297 . S
O144 C146 1.247 . S
O145 Cd141 2.439 . S
O145 C146 1.208 . S
C146 O144 1.247 . S
C146 O145 1.208 . S
C147 O152 1.247 . S
C147 O153 1.208 . S
C148 O140 1.315 . S
C148 O143 1.279 . S
C149 O150 1.315 . S
C149 O151 1.279 . S
O150 Cd142 2.223 . S
O150 C149 1.315 . S
O151 Cd141 2.240 . S
O151 C149 1.279 . S
O152 Cd142 2.297 . S
O152 C147 1.247 . S
O153 Cd142 2.439 . S
O153 C147 1.208 . S
O154 Cd155 2.223 . S
O154 C162 1.315 . S
Cd155 O154 2.223 . S
Cd155 O158 2.297 . S
Cd155 O159 2.439 . S
Cd155 O165 2.240 . S
Cd156 O157 2.240 . S
Cd156 O164 2.223 . S
Cd156 O166 2.297 . S
Cd156 O167 2.439 . S
O157 Cd156 2.240 . S
O157 C162 1.279 . S
O158 Cd155 2.297 . S
O158 C160 1.247 . S
O159 Cd155 2.439 . S
O159 C160 1.208 . S
C160 O158 1.247 . S
C160 O159 1.208 . S
C161 O166 1.247 . S
C161 O167 1.208 . S
C162 O154 1.315 . S
C162 O157 1.279 . S
C163 O164 1.315 . S
C163 O165 1.279 . S
O164 Cd156 2.223 . S
O164 C163 1.315 . S
O165 Cd155 2.240 . S
O165 C163 1.279 . S
O166 Cd156 2.297 . S
O166 C161 1.247 . S
O167 Cd156 2.439 . S
O167 C161 1.208 . S
O168 Cd169 2.223 . S
O168 C176 1.315 . S
Cd169 O168 2.223 . S
Cd169 O172 2.297 . S
Cd169 O173 2.439 . S
Cd169 O179 2.240 . S
Cd170 O171 2.240 . S
Cd170 O178 2.223 . S
Cd170 O180 2.297 . S
Cd170 O181 2.439 . S
O171 Cd170 2.240 . S
O171 C176 1.279 . S
O172 Cd169 2.297 . S
O172 C174 1.247 . S
O173 Cd169 2.439 . S
O173 C174 1.208 . S
C174 O172 1.247 . S
C174 O173 1.208 . S
C175 O180 1.247 . S
C175 O181 1.208 . S
C176 O168 1.315 . S
C176 O171 1.279 . S
C177 O178 1.315 . S
C177 O179 1.279 . S
O178 Cd170 2.223 . S
O178 C177 1.315 . S
O179 Cd169 2.240 . S
O179 C177 1.279 . S
O180 Cd170 2.297 . S
O180 C175 1.247 . S
O181 Cd170 2.439 . S
O181 C175 1.208 . S
O182 Cd183 2.223 . S
O182 C190 1.315 . S
Cd183 O182 2.223 . S
Cd183 O186 2.297 . S
Cd183 O187 2.439 . S
Cd183 O193 2.240 . S
Cd184 O185 2.240 . S
Cd184 O192 2.223 . S
Cd184 O194 2.297 . S
Cd184 O195 2.439 . S
O185 Cd184 2.240 . S
O185 C190 1.279 . S
O186 Cd183 2.297 . S
O186 C188 1.247 . S
O187 Cd183 2.439 . S
O187 C188 1.208 . S
C188 O186 1.247 . S
C188 O187 1.208 . S
C189 O194 1.247 . S
C189 O195 1.208 . S
C190 O182 1.315 . S
C190 O185 1.279 . S
C191 O192 1.315 . S
C191 O193 1.279 . S
O192 Cd184 2.223 . S
O192 C191 1.315 . S
O193 Cd183 2.240 . S
O193 C191 1.279 . S
O194 Cd184 2.297 . S
O194 C189 1.247 . S
O195 Cd184 2.439 . S
O195 C189 1.208 . S
O196 Cd197 2.223 . S
O196 C204 1.315 . S
Cd197 O196 2.223 . S
Cd197 O200 2.297 . S
Cd197 O201 2.439 . S
Cd197 O207 2.240 . S
Cd198 O199 2.240 . S
Cd198 O206 2.223 . S
Cd198 O208 2.297 . S
Cd198 O209 2.439 . S
O199 Cd198 2.240 . S
O199 C204 1.279 . S
O200 Cd197 2.297 . S
O200 C202 1.247 . S
O201 Cd197 2.439 . S
O201 C202 1.208 . S
C202 O200 1.247 . S
C202 O201 1.208 . S
C203 O208 1.247 . S
C203 O209 1.208 . S
C204 O196 1.315 . S
C204 O199 1.279 . S
C205 O206 1.315 . S
C205 O207 1.279 . S
O206 Cd198 2.223 . S
O206 C205 1.315 . S
O207 Cd197 2.240 . S
O207 C205 1.279 . S
O208 Cd198 2.297 . S
O208 C203 1.247 . S
O209 Cd198 2.439 . S
O209 C203 1.208 . S
O210 Cd211 2.223 . S
O210 C218 1.315 . S
Cd211 O210 2.223 . S
Cd211 O214 2.297 . S
Cd211 O215 2.439 . S
Cd211 O221 2.240 . S
Cd212 O213 2.240 . S
Cd212 O220 2.223 . S
Cd212 O222 2.297 . S
Cd212 O223 2.439 . S
O213 Cd212 2.240 . S
O213 C218 1.279 . S
O214 Cd211 2.297 . S
O214 C216 1.247 . S
O215 Cd211 2.439 . S
O215 C216 1.208 . S
C216 O214 1.247 . S
C216 O215 1.208 . S
C217 O222 1.247 . S
C217 O223 1.208 . S
C218 O210 1.315 . S
C218 O213 1.279 . S
C219 O220 1.315 . S
C219 O221 1.279 . S
O220 Cd212 2.223 . S
O220 C219 1.315 . S
O221 Cd211 2.240 . S
O221 C219 1.279 . S
O222 Cd212 2.297 . S
O222 C217 1.247 . S
O223 Cd212 2.439 . S
O223 C217 1.208 . S
O224 Cd225 2.223 . S
O224 C232 1.315 . S
Cd225 O224 2.223 . S
Cd225 O228 2.297 . S
Cd225 O229 2.439 . S
Cd225 O235 2.240 . S
Cd226 O227 2.240 . S
Cd226 O234 2.223 . S
Cd226 O236 2.297 . S
Cd226 O237 2.439 . S
O227 Cd226 2.240 . S
O227 C232 1.279 . S
O228 Cd225 2.297 . S
O228 C230 1.247 . S
O229 Cd225 2.439 . S
O229 C230 1.208 . S
C230 O228 1.247 . S
C230 O229 1.208 . S
C231 O236 1.247 . S
C231 O237 1.208 . S
C232 O224 1.315 . S
C232 O227 1.279 . S
C233 O234 1.315 . S
C233 O235 1.279 . S
O234 Cd226 2.223 . S
O234 C233 1.315 . S
O235 Cd225 2.240 . S
O235 C233 1.279 . S
O236 Cd226 2.297 . S
O236 C231 1.247 . S
O237 Cd226 2.439 . S
O237 C231 1.208 . S
O238 Cd239 2.223 . S
O238 C246 1.315 . S
Cd239 O238 2.223 . S
Cd239 O242 2.297 . S
Cd239 O243 2.439 . S
Cd239 O249 2.240 . S
Cd240 O241 2.240 . S
Cd240 O248 2.223 . S
Cd240 O250 2.297 . S
Cd240 O251 2.439 . S
O241 Cd240 2.240 . S
O241 C246 1.279 . S
O242 Cd239 2.297 . S
O242 C244 1.247 . S
O243 Cd239 2.439 . S
O243 C244 1.208 . S
C244 O242 1.247 . S
C244 O243 1.208 . S
C245 O250 1.247 . S
C245 O251 1.208 . S
C246 O238 1.315 . S
C246 O241 1.279 . S
C247 O248 1.315 . S
C247 O249 1.279 . S
O248 Cd240 2.223 . S
O248 C247 1.315 . S
O249 Cd239 2.240 . S
O249 C247 1.279 . S
O250 Cd240 2.297 . S
O250 C245 1.247 . S
O251 Cd240 2.439 . S
O251 C245 1.208 . S
O252 Cd253 2.223 . S
O252 C260 1.315 . S
Cd253 O252 2.223 . S
Cd253 O256 2.297 . S
Cd253 O257 2.439 . S
Cd253 O263 2.240 . S
Cd254 O255 2.240 . S
Cd254 O262 2.223 . S
Cd254 O264 2.297 . S
Cd254 O265 2.439 . S
O255 Cd254 2.240 . S
O255 C260 1.279 . S
O256 Cd253 2.297 . S
O256 C258 1.247 . S
O257 Cd253 2.439 . S
O257 C258 1.208 . S
C258 O256 1.247 . S
C258 O257 1.208 . S
C259 O264 1.247 . S
C259 O265 1.208 . S
C260 O252 1.315 . S
C260 O255 1.279 . S
C261 O262 1.315 . S
C261 O263 1.279 . S
O262 Cd254 2.223 . S
O262 C261 1.315 . S
O263 Cd253 2.240 . S
O263 C261 1.279 . S
O264 Cd254 2.297 . S
O264 C259 1.247 . S
O265 Cd254 2.439 . S
O265 C259 1.208 . S
O266 Cd267 2.223 . S
O266 C274 1.315 . S
Cd267 O266 2.223 . S
Cd267 O270 2.297 . S
Cd267 O271 2.439 . S
Cd267 O277 2.240 . S
Cd268 O269 2.240 . S
Cd268 O276 2.223 . S
Cd268 O278 2.297 . S
Cd268 O279 2.439 . S
O269 Cd268 2.240 . S
O269 C274 1.279 . S
O270 Cd267 2.297 . S
O270 C272 1.247 . S
O271 Cd267 2.439 . S
O271 C272 1.208 . S
C272 O270 1.247 . S
C272 O271 1.208 . S
C273 O278 1.247 . S
C273 O279 1.208 . S
C274 O266 1.315 . S
C274 O269 1.279 . S
C275 O276 1.315 . S
C275 O277 1.279 . S
O276 Cd268 2.223 . S
O276 C275 1.315 . S
O277 Cd267 2.240 . S
O277 C275 1.279 . S
O278 Cd268 2.297 . S
O278 C273 1.247 . S
O279 Cd268 2.439 . S
O279 C273 1.208 . S
O280 Cd281 2.223 . S
O280 C288 1.315 . S
Cd281 O280 2.223 . S
Cd281 O284 2.297 . S
Cd281 O285 2.439 . S
Cd281 O291 2.240 . S
Cd282 O283 2.240 . S
Cd282 O290 2.223 . S
Cd282 O292 2.297 . S
Cd282 O293 2.439 . S
O283 Cd282 2.240 . S
O283 C288 1.279 . S
O284 Cd281 2.297 . S
O284 C286 1.247 . S
O285 Cd281 2.439 . S
O285 C286 1.208 . S
C286 O284 1.247 . S
C286 O285 1.208 . S
C287 O292 1.247 . S
C287 O293 1.208 . S
C288 O280 1.315 . S
C288 O283 1.279 . S
C289 O290 1.315 . S
C289 O291 1.279 . S
O290 Cd282 2.223 . S
O290 C289 1.315 . S
O291 Cd281 2.240 . S
O291 C289 1.279 . S
O292 Cd282 2.297 . S
O292 C287 1.247 . S
O293 Cd282 2.439 . S
O293 C287 1.208 . S
O294 Cd295 2.223 . S
O294 C302 1.315 . S
Cd295 O294 2.223 . S
Cd295 O298 2.297 . S
Cd295 O299 2.439 . S
Cd295 O305 2.240 . S
Cd296 O297 2.240 . S
Cd296 O304 2.223 . S
Cd296 O306 2.297 . S
Cd296 O307 2.439 . S
O297 Cd296 2.240 . S
O297 C302 1.279 . S
O298 Cd295 2.297 . S
O298 C300 1.247 . S
O299 Cd295 2.439 . S
O299 C300 1.208 . S
C300 O298 1.247 . S
C300 O299 1.208 . S
C301 O306 1.247 . S
C301 O307 1.208 . S
C302 O294 1.315 . S
C302 O297 1.279 . S
C303 O304 1.315 . S
C303 O305 1.279 . S
O304 Cd296 2.223 . S
O304 C303 1.315 . S
O305 Cd295 2.240 . S
O305 C303 1.279 . S
O306 Cd296 2.297 . S
O306 C301 1.247 . S
O307 Cd296 2.439 . S
O307 C301 1.208 . S
O308 Cd309 2.223 . S
O308 C316 1.315 . S
Cd309 O308 2.223 . S
Cd309 O312 2.297 . S
Cd309 O313 2.439 . S
Cd309 O319 2.240 . S
Cd310 O311 2.240 . S
Cd310 O318 2.223 . S
Cd310 O320 2.297 . S
Cd310 O321 2.439 . S
O311 Cd310 2.240 . S
O311 C316 1.279 . S
O312 Cd309 2.297 . S
O312 C314 1.247 . S
O313 Cd309 2.439 . S
O313 C314 1.208 . S
C314 O312 1.247 . S
C314 O313 1.208 . S
C315 O320 1.247 . S
C315 O321 1.208 . S
C316 O308 1.315 . S
C316 O311 1.279 . S
C317 O318 1.315 . S
C317 O319 1.279 . S
O318 Cd310 2.223 . S
O318 C317 1.315 . S
O319 Cd309 2.240 . S
O319 C317 1.279 . S
O320 Cd310 2.297 . S
O320 C315 1.247 . S
O321 Cd310 2.439 . S
O321 C315 1.208 . S
O322 Cd323 2.223 . S
O322 C330 1.315 . S
Cd323 O322 2.223 . S
Cd323 O326 2.297 . S
Cd323 O327 2.439 . S
Cd323 O333 2.240 . S
Cd324 O325 2.240 . S
Cd324 O332 2.223 . S
Cd324 O334 2.297 . S
Cd324 O335 2.439 . S
O325 Cd324 2.240 . S
O325 C330 1.279 . S
O326 Cd323 2.297 . S
O326 C328 1.247 . S
O327 Cd323 2.439 . S
O327 C328 1.208 . S
C328 O326 1.247 . S
C328 O327 1.208 . S
C329 O334 1.247 . S
C329 O335 1.208 . S
C330 O322 1.315 . S
C330 O325 1.279 . S
C331 O332 1.315 . S
C331 O333 1.279 . S
O332 Cd324 2.223 . S
O332 C331 1.315 . S
O333 Cd323 2.240 . S
O333 C331 1.279 . S
O334 Cd324 2.297 . S
O334 C329 1.247 . S
O335 Cd324 2.439 . S
O335 C329 1.208 . S
C336 C337 1.349 . S
C336 C338 1.327 . S
C336 H361 0.950 . S
C337 C336 1.349 . S
C337 C353 1.349 . S
C338 C336 1.327 . S
C338 C357 1.429 . S
C338 H362 0.950 . S
C339 C356 1.574 1_545 S
C339 C358 1.368 . S
C339 H363 0.949 . S
H340 C344 0.949 . S
C341 C342 1.349 . S
C341 C343 1.327 . S
C341 H364 0.950 . S
C342 C341 1.349 . S
C342 C354 1.349 . S
C343 C341 1.327 . S
C343 C359 1.429 . S
C343 H365 0.950 . S
C344 H340 0.949 . S
C344 C352 1.574 1_565 S
C344 C360 1.368 . S
H345 C353 0.950 . S
H346 C351 0.950 . S
H347 C352 0.949 . S
H348 C354 0.950 . S
H349 C355 0.950 . S
H350 C356 0.949 . S
C351 H346 0.950 . S
C351 C353 1.327 . S
C351 C357 1.429 . S
C352 C344 1.574 1_545 S
C352 H347 0.949 . S
C352 C358 1.368 . S
C353 C337 1.349 . S
C353 H345 0.950 . S
C353 C351 1.327 . S
C354 C342 1.349 . S
C354 H348 0.950 . S
C354 C355 1.327 . S
C355 H349 0.950 . S
C355 C354 1.327 . S
C355 C359 1.429 . S
C356 C339 1.574 1_565 S
C356 H350 0.949 . S
C356 C360 1.368 . S
C357 C338 1.429 . S
C357 C351 1.429 . S
C357 C358 1.523 . S
C358 C339 1.368 . S
C358 C352 1.368 . S
C358 C357 1.523 . S
C359 C343 1.429 . S
C359 C355 1.429 . S
C359 C360 1.523 . S
C360 C344 1.368 . S
C360 C356 1.368 . S
C360 C359 1.523 . S
H361 C336 0.950 . S
H362 C338 0.950 . S
H363 C339 0.949 . S
H364 C341 0.950 . S
H365 C343 0.950 . S
C366 C367 1.349 . S
C366 C368 1.327 . S
C366 H391 0.950 . S
C367 C366 1.349 . S
C367 C383 1.349 . S
C368 C366 1.327 . S
C368 C387 1.429 . S
C368 H392 0.950 . S
C369 C386 1.574 . S
C369 C388 1.368 . S
C369 H393 0.949 . S
H370 C374 0.949 . S
C371 C372 1.349 . S
C371 C373 1.327 . S
C371 H394 0.950 . S
C372 C371 1.349 . S
C372 C384 1.349 . S
C373 C371 1.327 . S
C373 C389 1.429 . S
C373 H395 0.950 . S
C374 H370 0.949 . S
C374 C382 1.574 . S
C374 C390 1.368 . S
H375 C383 0.950 . S
H376 C381 0.950 . S
H377 C382 0.949 . S
H378 C384 0.950 . S
H379 C385 0.950 . S
H380 C386 0.949 . S
C381 H376 0.950 . S
C381 C383 1.327 . S
C381 C387 1.429 . S
C382 C374 1.574 . S
C382 H377 0.949 . S
C382 C388 1.368 . S
C383 C367 1.349 . S
C383 H375 0.950 . S
C383 C381 1.327 . S
C384 C372 1.349 . S
C384 H378 0.950 . S
C384 C385 1.327 . S
C385 H379 0.950 . S
C385 C384 1.327 . S
C385 C389 1.429 . S
C386 C369 1.574 . S
C386 H380 0.949 . S
C386 C390 1.368 . S
C387 C368 1.429 . S
C387 C381 1.429 . S
C387 C388 1.523 . S
C388 C369 1.368 . S
C388 C382 1.368 . S
C388 C387 1.523 . S
C389 C373 1.429 . S
C389 C385 1.429 . S
C389 C390 1.523 . S
C390 C374 1.368 . S
C390 C386 1.368 . S
C390 C389 1.523 . S
H391 C366 0.950 . S
H392 C368 0.950 . S
H393 C369 0.949 . S
H394 C371 0.950 . S
H395 C373 0.950 . S
C396 C397 1.349 . S
C396 C398 1.327 . S
C396 H421 0.950 . S
C397 C396 1.349 . S
C397 C413 1.349 . S
C398 C396 1.327 . S
C398 C417 1.429 . S
C398 H422 0.950 . S
C399 C416 1.574 1_655 S
C399 C418 1.368 . S
C399 H423 0.949 . S
H400 C404 0.949 . S
C401 C402 1.349 . S
C401 C403 1.327 . S
C401 H424 0.950 . S
C402 C401 1.349 . S
C402 C414 1.349 . S
C403 C401 1.327 . S
C403 C419 1.429 . S
C403 H425 0.950 . S
C404 H400 0.949 . S
C404 C412 1.574 1_455 S
C404 C420 1.368 . S
H405 C413 0.950 . S
H406 C411 0.950 . S
H407 C412 0.949 . S
H408 C414 0.950 . S
H409 C415 0.950 . S
H410 C416 0.949 . S
C411 H406 0.950 . S
C411 C413 1.327 . S
C411 C417 1.429 . S
C412 C404 1.574 1_655 S
C412 H407 0.949 . S
C412 C418 1.368 . S
C413 C397 1.349 . S
C413 H405 0.950 . S
C413 C411 1.327 . S
C414 C402 1.349 . S
C414 H408 0.950 . S
C414 C415 1.327 . S
C415 H409 0.950 . S
C415 C414 1.327 . S
C415 C419 1.429 . S
C416 C399 1.574 1_455 S
C416 H410 0.949 . S
C416 C420 1.368 . S
C417 C398 1.429 . S
C417 C411 1.429 . S
C417 C418 1.523 . S
C418 C399 1.368 . S
C418 C412 1.368 . S
C418 C417 1.523 . S
C419 C403 1.429 . S
C419 C415 1.429 . S
C419 C420 1.523 . S
C420 C404 1.368 . S
C420 C416 1.368 . S
C420 C419 1.523 . S
H421 C396 0.950 . S
H422 C398 0.950 . S
H423 C399 0.949 . S
H424 C401 0.950 . S
H425 C403 0.950 . S
C426 C427 1.349 . S
C426 C428 1.327 . S
C426 H451 0.950 . S
C427 C426 1.349 . S
C427 C443 1.349 . S
C428 C426 1.327 . S
C428 C447 1.429 . S
C428 H452 0.950 . S
C429 C446 1.574 1_565 S
C429 C448 1.368 . S
C429 H453 0.949 . S
H430 C434 0.949 . S
C431 C432 1.349 . S
C431 C433 1.327 . S
C431 H454 0.950 . S
C432 C431 1.349 . S
C432 C444 1.349 . S
C433 C431 1.327 . S
C433 C449 1.429 . S
C433 H455 0.950 . S
C434 H430 0.949 . S
C434 C442 1.574 1_545 S
C434 C450 1.368 . S
H435 C443 0.950 . S
H436 C441 0.950 . S
H437 C442 0.949 . S
H438 C444 0.950 . S
H439 C445 0.950 . S
H440 C446 0.949 . S
C441 H436 0.950 . S
C441 C443 1.327 . S
C441 C447 1.429 . S
C442 C434 1.574 1_565 S
C442 H437 0.949 . S
C442 C448 1.368 . S
C443 C427 1.349 . S
C443 H435 0.950 . S
C443 C441 1.327 . S
C444 C432 1.349 . S
C444 H438 0.950 . S
C444 C445 1.327 . S
C445 H439 0.950 . S
C445 C444 1.327 . S
C445 C449 1.429 . S
C446 C429 1.574 1_545 S
C446 H440 0.949 . S
C446 C450 1.368 . S
C447 C428 1.429 . S
C447 C441 1.429 . S
C447 C448 1.523 . S
C448 C429 1.368 . S
C448 C442 1.368 . S
C448 C447 1.523 . S
C449 C433 1.429 . S
C449 C445 1.429 . S
C449 C450 1.523 . S
C450 C434 1.368 . S
C450 C446 1.368 . S
C450 C449 1.523 . S
H451 C426 0.950 . S
H452 C428 0.950 . S
H453 C429 0.949 . S
H454 C431 0.950 . S
H455 C433 0.950 . S
C456 C457 1.349 . S
C456 C458 1.327 . S
C456 H481 0.950 . S
C457 C456 1.349 . S
C457 C473 1.349 . S
C458 C456 1.327 . S
C458 C477 1.429 . S
C458 H482 0.950 . S
C459 C476 1.574 . S
C459 C478 1.368 . S
C459 H483 0.949 . S
H460 C464 0.949 . S
C461 C462 1.349 . S
C461 C463 1.327 . S
C461 H484 0.950 . S
C462 C461 1.349 . S
C462 C474 1.349 . S
C463 C461 1.327 . S
C463 C479 1.429 . S
C463 H485 0.950 . S
C464 H460 0.949 . S
C464 C472 1.574 . S
C464 C480 1.368 . S
H465 C473 0.950 . S
H466 C471 0.950 . S
H467 C472 0.949 . S
H468 C474 0.950 . S
H469 C475 0.950 . S
H470 C476 0.949 . S
C471 H466 0.950 . S
C471 C473 1.327 . S
C471 C477 1.429 . S
C472 C464 1.574 . S
C472 H467 0.949 . S
C472 C478 1.368 . S
C473 C457 1.349 . S
C473 H465 0.950 . S
C473 C471 1.327 . S
C474 C462 1.349 . S
C474 H468 0.950 . S
C474 C475 1.327 . S
C475 H469 0.950 . S
C475 C474 1.327 . S
C475 C479 1.429 . S
C476 C459 1.574 . S
C476 H470 0.949 . S
C476 C480 1.368 . S
C477 C458 1.429 . S
C477 C471 1.429 . S
C477 C478 1.523 . S
C478 C459 1.368 . S
C478 C472 1.368 . S
C478 C477 1.523 . S
C479 C463 1.429 . S
C479 C475 1.429 . S
C479 C480 1.523 . S
C480 C464 1.368 . S
C480 C476 1.368 . S
C480 C479 1.523 . S
H481 C456 0.950 . S
H482 C458 0.950 . S
H483 C459 0.949 . S
H484 C461 0.950 . S
H485 C463 0.950 . S
C486 C487 1.349 . S
C486 C488 1.327 . S
C486 H511 0.950 . S
C487 C486 1.349 . S
C487 C503 1.349 . S
C488 C486 1.327 . S
C488 C507 1.429 . S
C488 H512 0.950 . S
C489 C506 1.574 1_455 S
C489 C508 1.368 . S
C489 H513 0.949 . S
H490 C494 0.949 . S
C491 C492 1.349 . S
C491 C493 1.327 . S
C491 H514 0.950 . S
C492 C491 1.349 . S
C492 C504 1.349 . S
C493 C491 1.327 . S
C493 C509 1.429 . S
C493 H515 0.950 . S
C494 H490 0.949 . S
C494 C502 1.574 1_655 S
C494 C510 1.368 . S
H495 C503 0.950 . S
H496 C501 0.950 . S
H497 C502 0.949 . S
H498 C504 0.950 . S
H499 C505 0.950 . S
H500 C506 0.949 . S
C501 H496 0.950 . S
C501 C503 1.327 . S
C501 C507 1.429 . S
C502 C494 1.574 1_455 S
C502 H497 0.949 . S
C502 C508 1.368 . S
C503 C487 1.349 . S
C503 H495 0.950 . S
C503 C501 1.327 . S
C504 C492 1.349 . S
C504 H498 0.950 . S
C504 C505 1.327 . S
C505 H499 0.950 . S
C505 C504 1.327 . S
C505 C509 1.429 . S
C506 C489 1.574 1_655 S
C506 H500 0.949 . S
C506 C510 1.368 . S
C507 C488 1.429 . S
C507 C501 1.429 . S
C507 C508 1.523 . S
C508 C489 1.368 . S
C508 C502 1.368 . S
C508 C507 1.523 . S
C509 C493 1.429 . S
C509 C505 1.429 . S
C509 C510 1.523 . S
C510 C494 1.368 . S
C510 C506 1.368 . S
C510 C509 1.523 . S
H511 C486 0.950 . S
H512 C488 0.950 . S
H513 C489 0.949 . S
H514 C491 0.950 . S
H515 C493 0.950 . S
C516 C517 1.349 . S
C516 C518 1.327 . S
C516 H541 0.950 . S
C517 C516 1.349 . S
C517 C533 1.349 . S
C518 C516 1.327 . S
C518 C537 1.429 . S
C518 H542 0.950 . S
C519 C536 1.574 1_565 S
C519 C538 1.368 . S
C519 H543 0.949 . S
H520 C524 0.949 . S
C521 C522 1.349 . S
C521 C523 1.327 . S
C521 H544 0.950 . S
C522 C521 1.349 . S
C522 C534 1.349 . S
C523 C521 1.327 . S
C523 C539 1.429 . S
C523 H545 0.950 . S
C524 H520 0.949 . S
C524 C532 1.574 1_545 S
C524 C540 1.368 . S
H525 C533 0.950 . S
H526 C531 0.950 . S
H527 C532 0.949 . S
H528 C534 0.950 . S
H529 C535 0.950 . S
H530 C536 0.949 . S
C531 H526 0.950 . S
C531 C533 1.327 . S
C531 C537 1.429 . S
C532 C524 1.574 1_565 S
C532 H527 0.949 . S
C532 C538 1.368 . S
C533 C517 1.349 . S
C533 H525 0.950 . S
C533 C531 1.327 . S
C534 C522 1.349 . S
C534 H528 0.950 . S
C534 C535 1.327 . S
C535 H529 0.950 . S
C535 C534 1.327 . S
C535 C539 1.429 . S
C536 C519 1.574 1_545 S
C536 H530 0.949 . S
C536 C540 1.368 . S
C537 C518 1.429 . S
C537 C531 1.429 . S
C537 C538 1.523 . S
C538 C519 1.368 . S
C538 C532 1.368 . S
C538 C537 1.523 . S
C539 C523 1.429 . S
C539 C535 1.429 . S
C539 C540 1.523 . S
C540 C524 1.368 . S
C540 C536 1.368 . S
C540 C539 1.523 . S
H541 C516 0.950 . S
H542 C518 0.950 . S
H543 C519 0.949 . S
H544 C521 0.950 . S
H545 C523 0.950 . S
C546 C547 1.349 . S
C546 C548 1.327 . S
C546 H571 0.950 . S
C547 C546 1.349 . S
C547 C563 1.349 . S
C548 C546 1.327 . S
C548 C567 1.429 . S
C548 H572 0.950 . S
C549 C566 1.574 . S
C549 C568 1.368 . S
C549 H573 0.949 . S
H550 C554 0.949 . S
C551 C552 1.349 . S
C551 C553 1.327 . S
C551 H574 0.950 . S
C552 C551 1.349 . S
C552 C564 1.349 . S
C553 C551 1.327 . S
C553 C569 1.429 . S
C553 H575 0.950 . S
C554 H550 0.949 . S
C554 C562 1.574 . S
C554 C570 1.368 . S
H555 C563 0.950 . S
H556 C561 0.950 . S
H557 C562 0.949 . S
H558 C564 0.950 . S
H559 C565 0.950 . S
H560 C566 0.949 . S
C561 H556 0.950 . S
C561 C563 1.327 . S
C561 C567 1.429 . S
C562 C554 1.574 . S
C562 H557 0.949 . S
C562 C568 1.368 . S
C563 C547 1.349 . S
C563 H555 0.950 . S
C563 C561 1.327 . S
C564 C552 1.349 . S
C564 H558 0.950 . S
C564 C565 1.327 . S
C565 H559 0.950 . S
C565 C564 1.327 . S
C565 C569 1.429 . S
C566 C549 1.574 . S
C566 H560 0.949 . S
C566 C570 1.368 . S
C567 C548 1.429 . S
C567 C561 1.429 . S
C567 C568 1.523 . S
C568 C549 1.368 . S
C568 C562 1.368 . S
C568 C567 1.523 . S
C569 C553 1.429 . S
C569 C565 1.429 . S
C569 C570 1.523 . S
C570 C554 1.368 . S
C570 C566 1.368 . S
C570 C569 1.523 . S
H571 C546 0.950 . S
H572 C548 0.950 . S
H573 C549 0.949 . S
H574 C551 0.950 . S
H575 C553 0.950 . S
C576 C577 1.349 . S
C576 C578 1.327 . S
C576 H601 0.950 . S
C577 C576 1.349 . S
C577 C593 1.349 . S
C578 C576 1.327 . S
C578 C597 1.429 . S
C578 H602 0.950 . S
C579 C596 1.574 1_655 S
C579 C598 1.368 . S
C579 H603 0.949 . S
H580 C584 0.949 . S
C581 C582 1.349 . S
C581 C583 1.327 . S
C581 H604 0.950 . S
C582 C581 1.349 . S
C582 C594 1.349 . S
C583 C581 1.327 . S
C583 C599 1.429 . S
C583 H605 0.950 . S
C584 H580 0.949 . S
C584 C592 1.574 1_455 S
C584 C600 1.368 . S
H585 C593 0.950 . S
H586 C591 0.950 . S
H587 C592 0.949 . S
H588 C594 0.950 . S
H589 C595 0.950 . S
H590 C596 0.949 . S
C591 H586 0.950 . S
C591 C593 1.327 . S
C591 C597 1.429 . S
C592 C584 1.574 1_655 S
C592 H587 0.949 . S
C592 C598 1.368 . S
C593 C577 1.349 . S
C593 H585 0.950 . S
C593 C591 1.327 . S
C594 C582 1.349 . S
C594 H588 0.950 . S
C594 C595 1.327 . S
C595 H589 0.950 . S
C595 C594 1.327 . S
C595 C599 1.429 . S
C596 C579 1.574 1_455 S
C596 H590 0.949 . S
C596 C600 1.368 . S
C597 C578 1.429 . S
C597 C591 1.429 . S
C597 C598 1.523 . S
C598 C579 1.368 . S
C598 C592 1.368 . S
C598 C597 1.523 . S
C599 C583 1.429 . S
C599 C595 1.429 . S
C599 C600 1.523 . S
C600 C584 1.368 . S
C600 C596 1.368 . S
C600 C599 1.523 . S
H601 C576 0.950 . S
H602 C578 0.950 . S
H603 C579 0.949 . S
H604 C581 0.950 . S
H605 C583 0.950 . S
C606 C607 1.349 . S
C606 C608 1.327 . S
C606 H631 0.950 . S
C607 C606 1.349 . S
C607 C623 1.349 . S
C608 C606 1.327 . S
C608 C627 1.429 . S
C608 H632 0.950 . S
C609 C626 1.574 1_545 S
C609 C628 1.368 . S
C609 H633 0.949 . S
H610 C614 0.949 . S
C611 C612 1.349 . S
C611 C613 1.327 . S
C611 H634 0.950 . S
C612 C611 1.349 . S
C612 C624 1.349 . S
C613 C611 1.327 . S
C613 C629 1.429 . S
C613 H635 0.950 . S
C614 H610 0.949 . S
C614 C622 1.574 1_565 S
C614 C630 1.368 . S
H615 C623 0.950 . S
H616 C621 0.950 . S
H617 C622 0.949 . S
H618 C624 0.950 . S
H619 C625 0.950 . S
H620 C626 0.949 . S
C621 H616 0.950 . S
C621 C623 1.327 . S
C621 C627 1.429 . S
C622 C614 1.574 1_545 S
C622 H617 0.949 . S
C622 C628 1.368 . S
C623 C607 1.349 . S
C623 H615 0.950 . S
C623 C621 1.327 . S
C624 C612 1.349 . S
C624 H618 0.950 . S
C624 C625 1.327 . S
C625 H619 0.950 . S
C625 C624 1.327 . S
C625 C629 1.429 . S
C626 C609 1.574 1_565 S
C626 H620 0.949 . S
C626 C630 1.368 . S
C627 C608 1.429 . S
C627 C621 1.429 . S
C627 C628 1.523 . S
C628 C609 1.368 . S
C628 C622 1.368 . S
C628 C627 1.523 . S
C629 C613 1.429 . S
C629 C625 1.429 . S
C629 C630 1.523 . S
C630 C614 1.368 . S
C630 C626 1.368 . S
C630 C629 1.523 . S
H631 C606 0.950 . S
H632 C608 0.950 . S
H633 C609 0.949 . S
H634 C611 0.950 . S
H635 C613 0.950 . S
C636 C637 1.349 . S
C636 C638 1.327 . S
C636 H661 0.950 . S
C637 C636 1.349 . S
C637 C653 1.349 . S
C638 C636 1.327 . S
C638 C657 1.429 . S
C638 H662 0.950 . S
C639 C656 1.574 . S
C639 C658 1.368 . S
C639 H663 0.949 . S
H640 C644 0.949 . S
C641 C642 1.349 . S
C641 C643 1.327 . S
C641 H664 0.950 . S
C642 C641 1.349 . S
C642 C654 1.349 . S
C643 C641 1.327 . S
C643 C659 1.429 . S
C643 H665 0.950 . S
C644 H640 0.949 . S
C644 C652 1.574 . S
C644 C660 1.368 . S
H645 C653 0.950 . S
H646 C651 0.950 . S
H647 C652 0.949 . S
H648 C654 0.950 . S
H649 C655 0.950 . S
H650 C656 0.949 . S
C651 H646 0.950 . S
C651 C653 1.327 . S
C651 C657 1.429 . S
C652 C644 1.574 . S
C652 H647 0.949 . S
C652 C658 1.368 . S
C653 C637 1.349 . S
C653 H645 0.950 . S
C653 C651 1.327 . S
C654 C642 1.349 . S
C654 H648 0.950 . S
C654 C655 1.327 . S
C655 H649 0.950 . S
C655 C654 1.327 . S
C655 C659 1.429 . S
C656 C639 1.574 . S
C656 H650 0.949 . S
C656 C660 1.368 . S
C657 C638 1.429 . S
C657 C651 1.429 . S
C657 C658 1.523 . S
C658 C639 1.368 . S
C658 C652 1.368 . S
C658 C657 1.523 . S
C659 C643 1.429 . S
C659 C655 1.429 . S
C659 C660 1.523 . S
C660 C644 1.368 . S
C660 C656 1.368 . S
C660 C659 1.523 . S
H661 C636 0.950 . S
H662 C638 0.950 . S
H663 C639 0.949 . S
H664 C641 0.950 . S
H665 C643 0.950 . S
C666 C667 1.349 . S
C666 C668 1.327 . S
C666 H691 0.950 . S
C667 C666 1.349 . S
C667 C683 1.349 . S
C668 C666 1.327 . S
C668 C687 1.429 . S
C668 H692 0.950 . S
C669 C686 1.574 1_455 S
C669 C688 1.368 . S
C669 H693 0.949 . S
H670 C674 0.949 . S
C671 C672 1.349 . S
C671 C673 1.327 . S
C671 H694 0.950 . S
C672 C671 1.349 . S
C672 C684 1.349 . S
C673 C671 1.327 . S
C673 C689 1.429 . S
C673 H695 0.950 . S
C674 H670 0.949 . S
C674 C682 1.574 1_655 S
C674 C690 1.368 . S
H675 C683 0.950 . S
H676 C681 0.950 . S
H677 C682 0.949 . S
H678 C684 0.950 . S
H679 C685 0.950 . S
H680 C686 0.949 . S
C681 H676 0.950 . S
C681 C683 1.327 . S
C681 C687 1.429 . S
C682 C674 1.574 1_455 S
C682 H677 0.949 . S
C682 C688 1.368 . S
C683 C667 1.349 . S
C683 H675 0.950 . S
C683 C681 1.327 . S
C684 C672 1.349 . S
C684 H678 0.950 . S
C684 C685 1.327 . S
C685 H679 0.950 . S
C685 C684 1.327 . S
C685 C689 1.429 . S
C686 C669 1.574 1_655 S
C686 H680 0.949 . S
C686 C690 1.368 . S
C687 C668 1.429 . S
C687 C681 1.429 . S
C687 C688 1.523 . S
C688 C669 1.368 . S
C688 C682 1.368 . S
C688 C687 1.523 . S
C689 C673 1.429 . S
C689 C685 1.429 . S
C689 C690 1.523 . S
C690 C674 1.368 . S
C690 C686 1.368 . S
C690 C689 1.523 . S
H691 C666 0.950 . S
H692 C668 0.950 . S
H693 C669 0.949 . S
H694 C671 0.950 . S
H695 C673 0.950 . S
C696 C697 1.349 . S
C696 C698 1.327 . S
C696 H721 0.950 . S
C697 C696 1.349 . S
C697 C713 1.349 . S
C698 C696 1.327 . S
C698 C717 1.429 . S
C698 H722 0.950 . S
C699 C716 1.574 . S
C699 C718 1.368 . S
C699 H723 0.949 . S
H700 C704 0.949 . S
C701 C702 1.349 . S
C701 C703 1.327 . S
C701 H724 0.950 . S
C702 C701 1.349 . S
C702 C714 1.349 . S
C703 C701 1.327 . S
C703 C719 1.429 . S
C703 H725 0.950 . S
C704 H700 0.949 . S
C704 C712 1.574 . S
C704 C720 1.368 . S
H705 C713 0.950 . S
H706 C711 0.950 . S
H707 C712 0.949 . S
H708 C714 0.950 . S
H709 C715 0.950 . S
H710 C716 0.949 . S
C711 H706 0.950 . S
C711 C713 1.327 . S
C711 C717 1.429 . S
C712 C704 1.574 . S
C712 H707 0.949 . S
C712 C718 1.368 . S
C713 C697 1.349 . S
C713 H705 0.950 . S
C713 C711 1.327 . S
C714 C702 1.349 . S
C714 H708 0.950 . S
C714 C715 1.327 . S
C715 H709 0.950 . S
C715 C714 1.327 . S
C715 C719 1.429 . S
C716 C699 1.574 . S
C716 H710 0.949 . S
C716 C720 1.368 . S
C717 C698 1.429 . S
C717 C711 1.429 . S
C717 C718 1.523 . S
C718 C699 1.368 . S
C718 C712 1.368 . S
C718 C717 1.523 . S
C719 C703 1.429 . S
C719 C715 1.429 . S
C719 C720 1.523 . S
C720 C704 1.368 . S
C720 C716 1.368 . S
C720 C719 1.523 . S
H721 C696 0.950 . S
H722 C698 0.950 . S
H723 C699 0.949 . S
H724 C701 0.950 . S
H725 C703 0.950 . S
C726 C727 1.349 . S
C726 C728 1.327 . S
C726 H751 0.950 . S
C727 C726 1.349 . S
C727 C743 1.349 . S
C728 C726 1.327 . S
C728 C747 1.429 . S
C728 H752 0.950 . S
C729 C746 1.574 . S
C729 C748 1.368 . S
C729 H753 0.949 . S
H730 C734 0.949 . S
C731 C732 1.349 . S
C731 C733 1.327 . S
C731 H754 0.950 . S
C732 C731 1.349 . S
C732 C744 1.349 . S
C733 C731 1.327 . S
C733 C749 1.429 . S
C733 H755 0.950 . S
C734 H730 0.949 . S
C734 C742 1.574 . S
C734 C750 1.368 . S
H735 C743 0.950 . S
H736 C741 0.950 . S
H737 C742 0.949 . S
H738 C744 0.950 . S
H739 C745 0.950 . S
H740 C746 0.949 . S
C741 H736 0.950 . S
C741 C743 1.327 . S
C741 C747 1.429 . S
C742 C734 1.574 . S
C742 H737 0.949 . S
C742 C748 1.368 . S
C743 C727 1.349 . S
C743 H735 0.950 . S
C743 C741 1.327 . S
C744 C732 1.349 . S
C744 H738 0.950 . S
C744 C745 1.327 . S
C745 H739 0.950 . S
C745 C744 1.327 . S
C745 C749 1.429 . S
C746 C729 1.574 . S
C746 H740 0.949 . S
C746 C750 1.368 . S
C747 C728 1.429 . S
C747 C741 1.429 . S
C747 C748 1.523 . S
C748 C729 1.368 . S
C748 C742 1.368 . S
C748 C747 1.523 . S
C749 C733 1.429 . S
C749 C745 1.429 . S
C749 C750 1.523 . S
C750 C734 1.368 . S
C750 C746 1.368 . S
C750 C749 1.523 . S
H751 C726 0.950 . S
H752 C728 0.950 . S
H753 C729 0.949 . S
H754 C731 0.950 . S
H755 C733 0.950 . S
C756 C757 1.349 . S
C756 C758 1.327 . S
C756 H781 0.950 . S
C757 C756 1.349 . S
C757 C773 1.349 . S
C758 C756 1.327 . S
C758 C777 1.429 . S
C758 H782 0.950 . S
C759 C776 1.574 . S
C759 C778 1.368 . S
C759 H783 0.949 . S
H760 C764 0.949 . S
C761 C762 1.349 . S
C761 C763 1.327 . S
C761 H784 0.950 . S
C762 C761 1.349 . S
C762 C774 1.349 . S
C763 C761 1.327 . S
C763 C779 1.429 . S
C763 H785 0.950 . S
C764 H760 0.949 . S
C764 C772 1.574 . S
C764 C780 1.368 . S
H765 C773 0.950 . S
H766 C771 0.950 . S
H767 C772 0.949 . S
H768 C774 0.950 . S
H769 C775 0.950 . S
H770 C776 0.949 . S
C771 H766 0.950 . S
C771 C773 1.327 . S
C771 C777 1.429 . S
C772 C764 1.574 . S
C772 H767 0.949 . S
C772 C778 1.368 . S
C773 C757 1.349 . S
C773 H765 0.950 . S
C773 C771 1.327 . S
C774 C762 1.349 . S
C774 H768 0.950 . S
C774 C775 1.327 . S
C775 H769 0.950 . S
C775 C774 1.327 . S
C775 C779 1.429 . S
C776 C759 1.574 . S
C776 H770 0.949 . S
C776 C780 1.368 . S
C777 C758 1.429 . S
C777 C771 1.429 . S
C777 C778 1.523 . S
C778 C759 1.368 . S
C778 C772 1.368 . S
C778 C777 1.523 . S
C779 C763 1.429 . S
C779 C775 1.429 . S
C779 C780 1.523 . S
C780 C764 1.368 . S
C780 C776 1.368 . S
C780 C779 1.523 . S
H781 C756 0.950 . S
H782 C758 0.950 . S
H783 C759 0.949 . S
H784 C761 0.950 . S
H785 C763 0.950 . S
C786 C787 1.349 . S
C786 C788 1.327 . S
C786 H811 0.950 . S
C787 C786 1.349 . S
C787 C803 1.349 . S
C788 C786 1.327 . S
C788 C807 1.429 . S
C788 H812 0.950 . S
C789 C806 1.574 . S
C789 C808 1.368 . S
C789 H813 0.949 . S
H790 C794 0.949 . S
C791 C792 1.349 . S
C791 C793 1.327 . S
C791 H814 0.950 . S
C792 C791 1.349 . S
C792 C804 1.349 . S
C793 C791 1.327 . S
C793 C809 1.429 . S
C793 H815 0.950 . S
C794 H790 0.949 . S
C794 C802 1.574 . S
C794 C810 1.368 . S
H795 C803 0.950 . S
H796 C801 0.950 . S
H797 C802 0.949 . S
H798 C804 0.950 . S
H799 C805 0.950 . S
H800 C806 0.949 . S
C801 H796 0.950 . S
C801 C803 1.327 . S
C801 C807 1.429 . S
C802 C794 1.574 . S
C802 H797 0.949 . S
C802 C808 1.368 . S
C803 C787 1.349 . S
C803 H795 0.950 . S
C803 C801 1.327 . S
C804 C792 1.349 . S
C804 H798 0.950 . S
C804 C805 1.327 . S
C805 H799 0.950 . S
C805 C804 1.327 . S
C805 C809 1.429 . S
C806 C789 1.574 . S
C806 H800 0.949 . S
C806 C810 1.368 . S
C807 C788 1.429 . S
C807 C801 1.429 . S
C807 C808 1.523 . S
C808 C789 1.368 . S
C808 C802 1.368 . S
C808 C807 1.523 . S
C809 C793 1.429 . S
C809 C805 1.429 . S
C809 C810 1.523 . S
C810 C794 1.368 . S
C810 C806 1.368 . S
C810 C809 1.523 . S
H811 C786 0.950 . S
H812 C788 0.950 . S
H813 C789 0.949 . S
H814 C791 0.950 . S
H815 C793 0.950 . S
C816 C817 1.349 . S
C816 C818 1.327 . S
C816 H841 0.950 . S
C817 C816 1.349 . S
C817 C833 1.349 . S
C818 C816 1.327 . S
C818 C837 1.429 . S
C818 H842 0.950 . S
C819 C836 1.574 . S
C819 C838 1.368 . S
C819 H843 0.949 . S
H820 C824 0.949 . S
C821 C822 1.349 . S
C821 C823 1.327 . S
C821 H844 0.950 . S
C822 C821 1.349 . S
C822 C834 1.349 . S
C823 C821 1.327 . S
C823 C839 1.429 . S
C823 H845 0.950 . S
C824 H820 0.949 . S
C824 C832 1.574 . S
C824 C840 1.368 . S
H825 C833 0.950 . S
H826 C831 0.950 . S
H827 C832 0.949 . S
H828 C834 0.950 . S
H829 C835 0.950 . S
H830 C836 0.949 . S
C831 H826 0.950 . S
C831 C833 1.327 . S
C831 C837 1.429 . S
C832 C824 1.574 . S
C832 H827 0.949 . S
C832 C838 1.368 . S
C833 C817 1.349 . S
C833 H825 0.950 . S
C833 C831 1.327 . S
C834 C822 1.349 . S
C834 H828 0.950 . S
C834 C835 1.327 . S
C835 H829 0.950 . S
C835 C834 1.327 . S
C835 C839 1.429 . S
C836 C819 1.574 . S
C836 H830 0.949 . S
C836 C840 1.368 . S
C837 C818 1.429 . S
C837 C831 1.429 . S
C837 C838 1.523 . S
C838 C819 1.368 . S
C838 C832 1.368 . S
C838 C837 1.523 . S
C839 C823 1.429 . S
C839 C835 1.429 . S
C839 C840 1.523 . S
C840 C824 1.368 . S
C840 C836 1.368 . S
C840 C839 1.523 . S
H841 C816 0.950 . S
H842 C818 0.950 . S
H843 C819 0.949 . S
H844 C821 0.950 . S
H845 C823 0.950 . S
C846 C847 1.349 . S
C846 C848 1.327 . S
C846 H871 0.950 . S
C847 C846 1.349 . S
C847 C863 1.349 . S
C848 C846 1.327 . S
C848 C867 1.429 . S
C848 H872 0.950 . S
C849 C866 1.574 . S
C849 C868 1.368 . S
C849 H873 0.949 . S
H850 C854 0.949 . S
C851 C852 1.349 . S
C851 C853 1.327 . S
C851 H874 0.950 . S
C852 C851 1.349 . S
C852 C864 1.349 . S
C853 C851 1.327 . S
C853 C869 1.429 . S
C853 H875 0.950 . S
C854 H850 0.949 . S
C854 C862 1.574 . S
C854 C870 1.368 . S
H855 C863 0.950 . S
H856 C861 0.950 . S
H857 C862 0.949 . S
H858 C864 0.950 . S
H859 C865 0.950 . S
H860 C866 0.949 . S
C861 H856 0.950 . S
C861 C863 1.327 . S
C861 C867 1.429 . S
C862 C854 1.574 . S
C862 H857 0.949 . S
C862 C868 1.368 . S
C863 C847 1.349 . S
C863 H855 0.950 . S
C863 C861 1.327 . S
C864 C852 1.349 . S
C864 H858 0.950 . S
C864 C865 1.327 . S
C865 H859 0.950 . S
C865 C864 1.327 . S
C865 C869 1.429 . S
C866 C849 1.574 . S
C866 H860 0.949 . S
C866 C870 1.368 . S
C867 C848 1.429 . S
C867 C861 1.429 . S
C867 C868 1.523 . S
C868 C849 1.368 . S
C868 C862 1.368 . S
C868 C867 1.523 . S
C869 C853 1.429 . S
C869 C865 1.429 . S
C869 C870 1.523 . S
C870 C854 1.368 . S
C870 C866 1.368 . S
C870 C869 1.523 . S
H871 C846 0.950 . S
H872 C848 0.950 . S
H873 C849 0.949 . S
H874 C851 0.950 . S
H875 C853 0.950 . S
C876 C877 1.349 . S
C876 C878 1.327 . S
C876 H901 0.950 . S
C877 C876 1.349 . S
C877 C893 1.349 . S
C878 C876 1.327 . S
C878 C897 1.429 . S
C878 H902 0.950 . S
C879 C896 1.574 . S
C879 C898 1.368 . S
C879 H903 0.949 . S
H880 C884 0.949 . S
C881 C882 1.349 . S
C881 C883 1.327 . S
C881 H904 0.950 . S
C882 C881 1.349 . S
C882 C894 1.349 . S
C883 C881 1.327 . S
C883 C899 1.429 . S
C883 H905 0.950 . S
C884 H880 0.949 . S
C884 C892 1.574 . S
C884 C900 1.368 . S
H885 C893 0.950 . S
H886 C891 0.950 . S
H887 C892 0.949 . S
H888 C894 0.950 . S
H889 C895 0.950 . S
H890 C896 0.949 . S
C891 H886 0.950 . S
C891 C893 1.327 . S
C891 C897 1.429 . S
C892 C884 1.574 . S
C892 H887 0.949 . S
C892 C898 1.368 . S
C893 C877 1.349 . S
C893 H885 0.950 . S
C893 C891 1.327 . S
C894 C882 1.349 . S
C894 H888 0.950 . S
C894 C895 1.327 . S
C895 H889 0.950 . S
C895 C894 1.327 . S
C895 C899 1.429 . S
C896 C879 1.574 . S
C896 H890 0.949 . S
C896 C900 1.368 . S
C897 C878 1.429 . S
C897 C891 1.429 . S
C897 C898 1.523 . S
C898 C879 1.368 . S
C898 C892 1.368 . S
C898 C897 1.523 . S
C899 C883 1.429 . S
C899 C895 1.429 . S
C899 C900 1.523 . S
C900 C884 1.368 . S
C900 C896 1.368 . S
C900 C899 1.523 . S
H901 C876 0.950 . S
H902 C878 0.950 . S
H903 C879 0.949 . S
H904 C881 0.950 . S
H905 C883 0.950 . S
C906 C907 1.349 . S
C906 C908 1.327 . S
C906 H931 0.950 . S
C907 C906 1.349 . S
C907 C923 1.349 . S
C908 C906 1.327 . S
C908 C927 1.429 . S
C908 H932 0.950 . S
C909 C926 1.574 . S
C909 C928 1.368 . S
C909 H933 0.949 . S
H910 C914 0.949 . S
C911 C912 1.349 . S
C911 C913 1.327 . S
C911 H934 0.950 . S
C912 C911 1.349 . S
C912 C924 1.349 . S
C913 C911 1.327 . S
C913 C929 1.429 . S
C913 H935 0.950 . S
C914 H910 0.949 . S
C914 C922 1.574 . S
C914 C930 1.368 . S
H915 C923 0.950 . S
H916 C921 0.950 . S
H917 C922 0.949 . S
H918 C924 0.950 . S
H919 C925 0.950 . S
H920 C926 0.949 . S
C921 H916 0.950 . S
C921 C923 1.327 . S
C921 C927 1.429 . S
C922 C914 1.574 . S
C922 H917 0.949 . S
C922 C928 1.368 . S
C923 C907 1.349 . S
C923 H915 0.950 . S
C923 C921 1.327 . S
C924 C912 1.349 . S
C924 H918 0.950 . S
C924 C925 1.327 . S
C925 H919 0.950 . S
C925 C924 1.327 . S
C925 C929 1.429 . S
C926 C909 1.574 . S
C926 H920 0.949 . S
C926 C930 1.368 . S
C927 C908 1.429 . S
C927 C921 1.429 . S
C927 C928 1.523 . S
C928 C909 1.368 . S
C928 C922 1.368 . S
C928 C927 1.523 . S
C929 C913 1.429 . S
C929 C925 1.429 . S
C929 C930 1.523 . S
C930 C914 1.368 . S
C930 C926 1.368 . S
C930 C929 1.523 . S
H931 C906 0.950 . S
H932 C908 0.950 . S
H933 C909 0.949 . S
H934 C911 0.950 . S
H935 C913 0.950 . S
C936 C937 1.349 . S
C936 C938 1.327 . S
C936 H961 0.950 . S
C937 C936 1.349 . S
C937 C953 1.349 . S
C938 C936 1.327 . S
C938 C957 1.429 . S
C938 H962 0.950 . S
C939 C956 1.574 . S
C939 C958 1.368 . S
C939 H963 0.949 . S
H940 C944 0.949 . S
C941 C942 1.349 . S
C941 C943 1.327 . S
C941 H964 0.950 . S
C942 C941 1.349 . S
C942 C954 1.349 . S
C943 C941 1.327 . S
C943 C959 1.429 . S
C943 H965 0.950 . S
C944 H940 0.949 . S
C944 C952 1.574 . S
C944 C960 1.368 . S
H945 C953 0.950 . S
H946 C951 0.950 . S
H947 C952 0.949 . S
H948 C954 0.950 . S
H949 C955 0.950 . S
H950 C956 0.949 . S
C951 H946 0.950 . S
C951 C953 1.327 . S
C951 C957 1.429 . S
C952 C944 1.574 . S
C952 H947 0.949 . S
C952 C958 1.368 . S
C953 C937 1.349 . S
C953 H945 0.950 . S
C953 C951 1.327 . S
C954 C942 1.349 . S
C954 H948 0.950 . S
C954 C955 1.327 . S
C955 H949 0.950 . S
C955 C954 1.327 . S
C955 C959 1.429 . S
C956 C939 1.574 . S
C956 H950 0.949 . S
C956 C960 1.368 . S
C957 C938 1.429 . S
C957 C951 1.429 . S
C957 C958 1.523 . S
C958 C939 1.368 . S
C958 C952 1.368 . S
C958 C957 1.523 . S
C959 C943 1.429 . S
C959 C955 1.429 . S
C959 C960 1.523 . S
C960 C944 1.368 . S
C960 C956 1.368 . S
C960 C959 1.523 . S
H961 C936 0.950 . S
H962 C938 0.950 . S
H963 C939 0.949 . S
H964 C941 0.950 . S
H965 C943 0.950 . S
C966 C967 1.349 . S
C966 C968 1.327 . S
C966 H991 0.950 . S
C967 C966 1.349 . S
C967 C983 1.349 . S
C968 C966 1.327 . S
C968 C987 1.429 . S
C968 H992 0.950 . S
C969 C986 1.574 . S
C969 C988 1.368 . S
C969 H993 0.949 . S
H970 C974 0.949 . S
C971 C972 1.349 . S
C971 C973 1.327 . S
C971 H994 0.950 . S
C972 C971 1.349 . S
C972 C984 1.349 . S
C973 C971 1.327 . S
C973 C989 1.429 . S
C973 H995 0.950 . S
C974 H970 0.949 . S
C974 C982 1.574 . S
C974 C990 1.368 . S
H975 C983 0.950 . S
H976 C981 0.950 . S
H977 C982 0.949 . S
H978 C984 0.950 . S
H979 C985 0.950 . S
H980 C986 0.949 . S
C981 H976 0.950 . S
C981 C983 1.327 . S
C981 C987 1.429 . S
C982 C974 1.574 . S
C982 H977 0.949 . S
C982 C988 1.368 . S
C983 C967 1.349 . S
C983 H975 0.950 . S
C983 C981 1.327 . S
C984 C972 1.349 . S
C984 H978 0.950 . S
C984 C985 1.327 . S
C985 H979 0.950 . S
C985 C984 1.327 . S
C985 C989 1.429 . S
C986 C969 1.574 . S
C986 H980 0.949 . S
C986 C990 1.368 . S
C987 C968 1.429 . S
C987 C981 1.429 . S
C987 C988 1.523 . S
C988 C969 1.368 . S
C988 C982 1.368 . S
C988 C987 1.523 . S
C989 C973 1.429 . S
C989 C985 1.429 . S
C989 C990 1.523 . S
C990 C974 1.368 . S
C990 C986 1.368 . S
C990 C989 1.523 . S
H991 C966 0.950 . S
H992 C968 0.950 . S
H993 C969 0.949 . S
H994 C971 0.950 . S
H995 C973 0.950 . S
C996 C997 1.349 . S
C996 C998 1.327 . S
C996 H1021 0.950 . S
C997 C996 1.349 . S
C997 C1013 1.349 . S
C998 C996 1.327 . S
C998 C1017 1.429 . S
C998 H1022 0.950 . S
C999 C1016 1.574 . S
C999 C1018 1.368 . S
C999 H1023 0.949 . S
H1000 C1004 0.949 . S
C1001 C1002 1.349 . S
C1001 C1003 1.327 . S
C1001 H1024 0.950 . S
C1002 C1001 1.349 . S
C1002 C1014 1.349 . S
C1003 C1001 1.327 . S
C1003 C1019 1.429 . S
C1003 H1025 0.950 . S
C1004 H1000 0.949 . S
C1004 C1012 1.574 . S
C1004 C1020 1.368 . S
H1005 C1013 0.950 . S
H1006 C1011 0.950 . S
H1007 C1012 0.949 . S
H1008 C1014 0.950 . S
H1009 C1015 0.950 . S
H1010 C1016 0.949 . S
C1011 H1006 0.950 . S
C1011 C1013 1.327 . S
C1011 C1017 1.429 . S
C1012 C1004 1.574 . S
C1012 H1007 0.949 . S
C1012 C1018 1.368 . S
C1013 C997 1.349 . S
C1013 H1005 0.950 . S
C1013 C1011 1.327 . S
C1014 C1002 1.349 . S
C1014 H1008 0.950 . S
C1014 C1015 1.327 . S
C1015 H1009 0.950 . S
C1015 C1014 1.327 . S
C1015 C1019 1.429 . S
C1016 C999 1.574 . S
C1016 H1010 0.949 . S
C1016 C1020 1.368 . S
C1017 C998 1.429 . S
C1017 C1011 1.429 . S
C1017 C1018 1.523 . S
C1018 C999 1.368 . S
C1018 C1012 1.368 . S
C1018 C1017 1.523 . S
C1019 C1003 1.429 . S
C1019 C1015 1.429 . S
C1019 C1020 1.523 . S
C1020 C1004 1.368 . S
C1020 C1016 1.368 . S
C1020 C1019 1.523 . S
H1021 C996 0.950 . S
H1022 C998 0.950 . S
H1023 C999 0.949 . S
H1024 C1001 0.950 . S
H1025 C1003 0.950 . S
C1026 C1027 1.349 . S
C1026 C1028 1.327 . S
C1026 H1051 0.950 . S
C1027 C1026 1.349 . S
C1027 C1043 1.349 . S
C1028 C1026 1.327 . S
C1028 C1047 1.429 . S
C1028 H1052 0.950 . S
C1029 C1046 1.574 . S
C1029 C1048 1.368 . S
C1029 H1053 0.949 . S
H1030 C1034 0.949 . S
C1031 C1032 1.349 . S
C1031 C1033 1.327 . S
C1031 H1054 0.950 . S
C1032 C1031 1.349 . S
C1032 C1044 1.349 . S
C1033 C1031 1.327 . S
C1033 C1049 1.429 . S
C1033 H1055 0.950 . S
C1034 H1030 0.949 . S
C1034 C1042 1.574 . S
C1034 C1050 1.368 . S
H1035 C1043 0.950 . S
H1036 C1041 0.950 . S
H1037 C1042 0.949 . S
H1038 C1044 0.950 . S
H1039 C1045 0.950 . S
H1040 C1046 0.949 . S
C1041 H1036 0.950 . S
C1041 C1043 1.327 . S
C1041 C1047 1.429 . S
C1042 C1034 1.574 . S
C1042 H1037 0.949 . S
C1042 C1048 1.368 . S
C1043 C1027 1.349 . S
C1043 H1035 0.950 . S
C1043 C1041 1.327 . S
C1044 C1032 1.349 . S
C1044 H1038 0.950 . S
C1044 C1045 1.327 . S
C1045 H1039 0.950 . S
C1045 C1044 1.327 . S
C1045 C1049 1.429 . S
C1046 C1029 1.574 . S
C1046 H1040 0.949 . S
C1046 C1050 1.368 . S
C1047 C1028 1.429 . S
C1047 C1041 1.429 . S
C1047 C1048 1.523 . S
C1048 C1029 1.368 . S
C1048 C1042 1.368 . S
C1048 C1047 1.523 . S
C1049 C1033 1.429 . S
C1049 C1045 1.429 . S
C1049 C1050 1.523 . S
C1050 C1034 1.368 . S
C1050 C1046 1.368 . S
C1050 C1049 1.523 . S
H1051 C1026 0.950 . S
H1052 C1028 0.950 . S
H1053 C1029 0.949 . S
H1054 C1031 0.950 . S
H1055 C1033 0.950 . S
C1056 C1057 1.349 . S
C1056 C1058 1.327 . S
C1056 H1081 0.950 . S
C1057 C1056 1.349 . S
C1057 C1073 1.349 . S
C1058 C1056 1.327 . S
C1058 C1077 1.429 . S
C1058 H1082 0.950 . S
C1059 C1076 1.574 1_554 S
C1059 C1078 1.368 . S
C1059 H1083 0.949 . S
H1060 C1064 0.949 . S
C1061 C1062 1.349 . S
C1061 C1063 1.327 . S
C1061 H1084 0.950 . S
C1062 C1061 1.349 . S
C1062 C1074 1.349 . S
C1063 C1061 1.327 . S
C1063 C1079 1.429 . S
C1063 H1085 0.950 . S
C1064 H1060 0.949 . S
C1064 C1072 1.574 1_556 S
C1064 C1080 1.368 . S
H1065 C1073 0.950 . S
H1066 C1071 0.950 . S
H1067 C1072 0.949 . S
H1068 C1074 0.950 . S
H1069 C1075 0.950 . S
H1070 C1076 0.949 . S
C1071 H1066 0.950 . S
C1071 C1073 1.327 . S
C1071 C1077 1.429 . S
C1072 C1064 1.574 1_554 S
C1072 H1067 0.949 . S
C1072 C1078 1.368 . S
C1073 C1057 1.349 . S
C1073 H1065 0.950 . S
C1073 C1071 1.327 . S
C1074 C1062 1.349 . S
C1074 H1068 0.950 . S
C1074 C1075 1.327 . S
C1075 H1069 0.950 . S
C1075 C1074 1.327 . S
C1075 C1079 1.429 . S
C1076 C1059 1.574 1_556 S
C1076 H1070 0.949 . S
C1076 C1080 1.368 . S
C1077 C1058 1.429 . S
C1077 C1071 1.429 . S
C1077 C1078 1.523 . S
C1078 C1059 1.368 . S
C1078 C1072 1.368 . S
C1078 C1077 1.523 . S
C1079 C1063 1.429 . S
C1079 C1075 1.429 . S
C1079 C1080 1.523 . S
C1080 C1064 1.368 . S
C1080 C1076 1.368 . S
C1080 C1079 1.523 . S
H1081 C1056 0.950 . S
H1082 C1058 0.950 . S
H1083 C1059 0.949 . S
H1084 C1061 0.950 . S
H1085 C1063 0.950 . S
C1086 C1087 1.349 . S
C1086 C1088 1.327 . S
C1086 H1111 0.950 . S
C1087 C1086 1.349 . S
C1087 C1103 1.349 . S
C1088 C1086 1.327 . S
C1088 C1107 1.429 . S
C1088 H1112 0.950 . S
C1089 C1106 1.574 1_556 S
C1089 C1108 1.368 . S
C1089 H1113 0.949 . S
H1090 C1094 0.949 . S
C1091 C1092 1.349 . S
C1091 C1093 1.327 . S
C1091 H1114 0.950 . S
C1092 C1091 1.349 . S
C1092 C1104 1.349 . S
C1093 C1091 1.327 . S
C1093 C1109 1.429 . S
C1093 H1115 0.950 . S
C1094 H1090 0.949 . S
C1094 C1102 1.574 1_554 S
C1094 C1110 1.368 . S
H1095 C1103 0.950 . S
H1096 C1101 0.950 . S
H1097 C1102 0.949 . S
H1098 C1104 0.950 . S
H1099 C1105 0.950 . S
H1100 C1106 0.949 . S
C1101 H1096 0.950 . S
C1101 C1103 1.327 . S
C1101 C1107 1.429 . S
C1102 C1094 1.574 1_556 S
C1102 H1097 0.949 . S
C1102 C1108 1.368 . S
C1103 C1087 1.349 . S
C1103 H1095 0.950 . S
C1103 C1101 1.327 . S
C1104 C1092 1.349 . S
C1104 H1098 0.950 . S
C1104 C1105 1.327 . S
C1105 H1099 0.950 . S
C1105 C1104 1.327 . S
C1105 C1109 1.429 . S
C1106 C1089 1.574 1_554 S
C1106 H1100 0.949 . S
C1106 C1110 1.368 . S
C1107 C1088 1.429 . S
C1107 C1101 1.429 . S
C1107 C1108 1.523 . S
C1108 C1089 1.368 . S
C1108 C1102 1.368 . S
C1108 C1107 1.523 . S
C1109 C1093 1.429 . S
C1109 C1105 1.429 . S
C1109 C1110 1.523 . S
C1110 C1094 1.368 . S
C1110 C1106 1.368 . S
C1110 C1109 1.523 . S
H1111 C1086 0.950 . S
H1112 C1088 0.950 . S
H1113 C1089 0.949 . S
H1114 C1091 0.950 . S
H1115 C1093 0.950 . S
C1116 C1117 1.349 . S
C1116 C1118 1.327 . S
C1116 H1141 0.950 . S
C1117 C1116 1.349 . S
C1117 C1133 1.349 . S
C1118 C1116 1.327 . S
C1118 C1137 1.429 . S
C1118 H1142 0.950 . S
C1119 C1136 1.574 1_556 S
C1119 C1138 1.368 . S
C1119 H1143 0.949 . S
H1120 C1124 0.949 . S
C1121 C1122 1.349 . S
C1121 C1123 1.327 . S
C1121 H1144 0.950 . S
C1122 C1121 1.349 . S
C1122 C1134 1.349 . S
C1123 C1121 1.327 . S
C1123 C1139 1.429 . S
C1123 H1145 0.950 . S
C1124 H1120 0.949 . S
C1124 C1132 1.574 1_554 S
C1124 C1140 1.368 . S
H1125 C1133 0.950 . S
H1126 C1131 0.950 . S
H1127 C1132 0.949 . S
H1128 C1134 0.950 . S
H1129 C1135 0.950 . S
H1130 C1136 0.949 . S
C1131 H1126 0.950 . S
C1131 C1133 1.327 . S
C1131 C1137 1.429 . S
C1132 C1124 1.574 1_556 S
C1132 H1127 0.949 . S
C1132 C1138 1.368 . S
C1133 C1117 1.349 . S
C1133 H1125 0.950 . S
C1133 C1131 1.327 . S
C1134 C1122 1.349 . S
C1134 H1128 0.950 . S
C1134 C1135 1.327 . S
C1135 H1129 0.950 . S
C1135 C1134 1.327 . S
C1135 C1139 1.429 . S
C1136 C1119 1.574 1_554 S
C1136 H1130 0.949 . S
C1136 C1140 1.368 . S
C1137 C1118 1.429 . S
C1137 C1131 1.429 . S
C1137 C1138 1.523 . S
C1138 C1119 1.368 . S
C1138 C1132 1.368 . S
C1138 C1137 1.523 . S
C1139 C1123 1.429 . S
C1139 C1135 1.429 . S
C1139 C1140 1.523 . S
C1140 C1124 1.368 . S
C1140 C1136 1.368 . S
C1140 C1139 1.523 . S
H1141 C1116 0.950 . S
H1142 C1118 0.950 . S
H1143 C1119 0.949 . S
H1144 C1121 0.950 . S
H1145 C1123 0.950 . S
C1146 C1147 1.349 . S
C1146 C1148 1.327 . S
C1146 H1171 0.950 . S
C1147 C1146 1.349 . S
C1147 C1163 1.349 . S
C1148 C1146 1.327 . S
C1148 C1167 1.429 . S
C1148 H1172 0.950 . S
C1149 C1166 1.574 1_554 S
C1149 C1168 1.368 . S
C1149 H1173 0.949 . S
H1150 C1154 0.949 . S
C1151 C1152 1.349 . S
C1151 C1153 1.327 . S
C1151 H1174 0.950 . S
C1152 C1151 1.349 . S
C1152 C1164 1.349 . S
C1153 C1151 1.327 . S
C1153 C1169 1.429 . S
C1153 H1175 0.950 . S
C1154 H1150 0.949 . S
C1154 C1162 1.574 1_556 S
C1154 C1170 1.368 . S
H1155 C1163 0.950 . S
H1156 C1161 0.950 . S
H1157 C1162 0.949 . S
H1158 C1164 0.950 . S
H1159 C1165 0.950 . S
H1160 C1166 0.949 . S
C1161 H1156 0.950 . S
C1161 C1163 1.327 . S
C1161 C1167 1.429 . S
C1162 C1154 1.574 1_554 S
C1162 H1157 0.949 . S
C1162 C1168 1.368 . S
C1163 C1147 1.349 . S
C1163 H1155 0.950 . S
C1163 C1161 1.327 . S
C1164 C1152 1.349 . S
C1164 H1158 0.950 . S
C1164 C1165 1.327 . S
C1165 H1159 0.950 . S
C1165 C1164 1.327 . S
C1165 C1169 1.429 . S
C1166 C1149 1.574 1_556 S
C1166 H1160 0.949 . S
C1166 C1170 1.368 . S
C1167 C1148 1.429 . S
C1167 C1161 1.429 . S
C1167 C1168 1.523 . S
C1168 C1149 1.368 . S
C1168 C1162 1.368 . S
C1168 C1167 1.523 . S
C1169 C1153 1.429 . S
C1169 C1165 1.429 . S
C1169 C1170 1.523 . S
C1170 C1154 1.368 . S
C1170 C1166 1.368 . S
C1170 C1169 1.523 . S
H1171 C1146 0.950 . S
H1172 C1148 0.950 . S
H1173 C1149 0.949 . S
H1174 C1151 0.950 . S
H1175 C1153 0.950 . S
C1176 C1177 1.349 . S
C1176 C1178 1.327 . S
C1176 H1201 0.950 . S
C1177 C1176 1.349 . S
C1177 C1193 1.349 . S
C1178 C1176 1.327 . S
C1178 C1197 1.429 . S
C1178 H1202 0.950 . S
C1179 C1196 1.574 1_554 S
C1179 C1198 1.368 . S
C1179 H1203 0.949 . S
H1180 C1184 0.949 . S
C1181 C1182 1.349 . S
C1181 C1183 1.327 . S
C1181 H1204 0.950 . S
C1182 C1181 1.349 . S
C1182 C1194 1.349 . S
C1183 C1181 1.327 . S
C1183 C1199 1.429 . S
C1183 H1205 0.950 . S
C1184 H1180 0.949 . S
C1184 C1192 1.574 1_556 S
C1184 C1200 1.368 . S
H1185 C1193 0.950 . S
H1186 C1191 0.950 . S
H1187 C1192 0.949 . S
H1188 C1194 0.950 . S
H1189 C1195 0.950 . S
H1190 C1196 0.949 . S
C1191 H1186 0.950 . S
C1191 C1193 1.327 . S
C1191 C1197 1.429 . S
C1192 C1184 1.574 1_554 S
C1192 H1187 0.949 . S
C1192 C1198 1.368 . S
C1193 C1177 1.349 . S
C1193 H1185 0.950 . S
C1193 C1191 1.327 . S
C1194 C1182 1.349 . S
C1194 H1188 0.950 . S
C1194 C1195 1.327 . S
C1195 H1189 0.950 . S
C1195 C1194 1.327 . S
C1195 C1199 1.429 . S
C1196 C1179 1.574 1_556 S
C1196 H1190 0.949 . S
C1196 C1200 1.368 . S
C1197 C1178 1.429 . S
C1197 C1191 1.429 . S
C1197 C1198 1.523 . S
C1198 C1179 1.368 . S
C1198 C1192 1.368 . S
C1198 C1197 1.523 . S
C1199 C1183 1.429 . S
C1199 C1195 1.429 . S
C1199 C1200 1.523 . S
C1200 C1184 1.368 . S
C1200 C1196 1.368 . S
C1200 C1199 1.523 . S
H1201 C1176 0.950 . S
H1202 C1178 0.950 . S
H1203 C1179 0.949 . S
H1204 C1181 0.950 . S
H1205 C1183 0.950 . S
C1206 C1207 1.349 . S
C1206 C1208 1.327 . S
C1206 H1231 0.950 . S
C1207 C1206 1.349 . S
C1207 C1223 1.349 . S
C1208 C1206 1.327 . S
C1208 C1227 1.429 . S
C1208 H1232 0.950 . S
C1209 C1226 1.574 1_556 S
C1209 C1228 1.368 . S
C1209 H1233 0.949 . S
H1210 C1214 0.949 . S
C1211 C1212 1.349 . S
C1211 C1213 1.327 . S
C1211 H1234 0.950 . S
C1212 C1211 1.349 . S
C1212 C1224 1.349 . S
C1213 C1211 1.327 . S
C1213 C1229 1.429 . S
C1213 H1235 0.950 . S
C1214 H1210 0.949 . S
C1214 C1222 1.574 1_554 S
C1214 C1230 1.368 . S
H1215 C1223 0.950 . S
H1216 C1221 0.950 . S
H1217 C1222 0.949 . S
H1218 C1224 0.950 . S
H1219 C1225 0.950 . S
H1220 C1226 0.949 . S
C1221 H1216 0.950 . S
C1221 C1223 1.327 . S
C1221 C1227 1.429 . S
C1222 C1214 1.574 1_556 S
C1222 H1217 0.949 . S
C1222 C1228 1.368 . S
C1223 C1207 1.349 . S
C1223 H1215 0.950 . S
C1223 C1221 1.327 . S
C1224 C1212 1.349 . S
C1224 H1218 0.950 . S
C1224 C1225 1.327 . S
C1225 H1219 0.950 . S
C1225 C1224 1.327 . S
C1225 C1229 1.429 . S
C1226 C1209 1.574 1_554 S
C1226 H1220 0.949 . S
C1226 C1230 1.368 . S
C1227 C1208 1.429 . S
C1227 C1221 1.429 . S
C1227 C1228 1.523 . S
C1228 C1209 1.368 . S
C1228 C1222 1.368 . S
C1228 C1227 1.523 . S
C1229 C1213 1.429 . S
C1229 C1225 1.429 . S
C1229 C1230 1.523 . S
C1230 C1214 1.368 . S
C1230 C1226 1.368 . S
C1230 C1229 1.523 . S
H1231 C1206 0.950 . S
H1232 C1208 0.950 . S
H1233 C1209 0.949 . S
H1234 C1211 0.950 . S
H1235 C1213 0.950 . S
C1236 C1237 1.349 . S
C1236 C1238 1.327 . S
C1236 H1261 0.950 . S
C1237 C1236 1.349 . S
C1237 C1253 1.349 . S
C1238 C1236 1.327 . S
C1238 C1257 1.429 . S
C1238 H1262 0.950 . S
C1239 C1256 1.574 . S
C1239 C1258 1.368 . S
C1239 H1263 0.949 . S
H1240 C1244 0.949 . S
C1241 C1242 1.349 . S
C1241 C1243 1.327 . S
C1241 H1264 0.950 . S
C1242 C1241 1.349 . S
C1242 C1254 1.349 . S
C1243 C1241 1.327 . S
C1243 C1259 1.429 . S
C1243 H1265 0.950 . S
C1244 H1240 0.949 . S
C1244 C1252 1.574 . S
C1244 C1260 1.368 . S
H1245 C1253 0.950 . S
H1246 C1251 0.950 . S
H1247 C1252 0.949 . S
H1248 C1254 0.950 . S
H1249 C1255 0.950 . S
H1250 C1256 0.949 . S
C1251 H1246 0.950 . S
C1251 C1253 1.327 . S
C1251 C1257 1.429 . S
C1252 C1244 1.574 . S
C1252 H1247 0.949 . S
C1252 C1258 1.368 . S
C1253 C1237 1.349 . S
C1253 H1245 0.950 . S
C1253 C1251 1.327 . S
C1254 C1242 1.349 . S
C1254 H1248 0.950 . S
C1254 C1255 1.327 . S
C1255 H1249 0.950 . S
C1255 C1254 1.327 . S
C1255 C1259 1.429 . S
C1256 C1239 1.574 . S
C1256 H1250 0.949 . S
C1256 C1260 1.368 . S
C1257 C1238 1.429 . S
C1257 C1251 1.429 . S
C1257 C1258 1.523 . S
C1258 C1239 1.368 . S
C1258 C1252 1.368 . S
C1258 C1257 1.523 . S
C1259 C1243 1.429 . S
C1259 C1255 1.429 . S
C1259 C1260 1.523 . S
C1260 C1244 1.368 . S
C1260 C1256 1.368 . S
C1260 C1259 1.523 . S
H1261 C1236 0.950 . S
H1262 C1238 0.950 . S
H1263 C1239 0.949 . S
H1264 C1241 0.950 . S
H1265 C1243 0.950 . S
C1266 C1267 1.349 . S
C1266 C1268 1.327 . S
C1266 H1291 0.950 . S
C1267 C1266 1.349 . S
C1267 C1283 1.349 . S
C1268 C1266 1.327 . S
C1268 C1287 1.429 . S
C1268 H1292 0.950 . S
C1269 C1286 1.574 . S
C1269 C1288 1.368 . S
C1269 H1293 0.949 . S
H1270 C1274 0.949 . S
C1271 C1272 1.349 . S
C1271 C1273 1.327 . S
C1271 H1294 0.950 . S
C1272 C1271 1.349 . S
C1272 C1284 1.349 . S
C1273 C1271 1.327 . S
C1273 C1289 1.429 . S
C1273 H1295 0.950 . S
C1274 H1270 0.949 . S
C1274 C1282 1.574 . S
C1274 C1290 1.368 . S
H1275 C1283 0.950 . S
H1276 C1281 0.950 . S
H1277 C1282 0.949 . S
H1278 C1284 0.950 . S
H1279 C1285 0.950 . S
H1280 C1286 0.949 . S
C1281 H1276 0.950 . S
C1281 C1283 1.327 . S
C1281 C1287 1.429 . S
C1282 C1274 1.574 . S
C1282 H1277 0.949 . S
C1282 C1288 1.368 . S
C1283 C1267 1.349 . S
C1283 H1275 0.950 . S
C1283 C1281 1.327 . S
C1284 C1272 1.349 . S
C1284 H1278 0.950 . S
C1284 C1285 1.327 . S
C1285 H1279 0.950 . S
C1285 C1284 1.327 . S
C1285 C1289 1.429 . S
C1286 C1269 1.574 . S
C1286 H1280 0.949 . S
C1286 C1290 1.368 . S
C1287 C1268 1.429 . S
C1287 C1281 1.429 . S
C1287 C1288 1.523 . S
C1288 C1269 1.368 . S
C1288 C1282 1.368 . S
C1288 C1287 1.523 . S
C1289 C1273 1.429 . S
C1289 C1285 1.429 . S
C1289 C1290 1.523 . S
C1290 C1274 1.368 . S
C1290 C1286 1.368 . S
C1290 C1289 1.523 . S
H1291 C1266 0.950 . S
H1292 C1268 0.950 . S
H1293 C1269 0.949 . S
H1294 C1271 0.950 . S
H1295 C1273 0.950 . S
C1296 C1297 1.349 . S
C1296 C1298 1.327 . S
C1296 H1321 0.950 . S
C1297 C1296 1.349 . S
C1297 C1313 1.349 . S
C1298 C1296 1.327 . S
C1298 C1317 1.429 . S
C1298 H1322 0.950 . S
C1299 C1316 1.574 . S
C1299 C1318 1.368 . S
C1299 H1323 0.949 . S
H1300 C1304 0.949 . S
C1301 C1302 1.349 . S
C1301 C1303 1.327 . S
C1301 H1324 0.950 . S
C1302 C1301 1.349 . S
C1302 C1314 1.349 . S
C1303 C1301 1.327 . S
C1303 C1319 1.429 . S
C1303 H1325 0.950 . S
C1304 H1300 0.949 . S
C1304 C1312 1.574 . S
C1304 C1320 1.368 . S
H1305 C1313 0.950 . S
H1306 C1311 0.950 . S
H1307 C1312 0.949 . S
H1308 C1314 0.950 . S
H1309 C1315 0.950 . S
H1310 C1316 0.949 . S
C1311 H1306 0.950 . S
C1311 C1313 1.327 . S
C1311 C1317 1.429 . S
C1312 C1304 1.574 . S
C1312 H1307 0.949 . S
C1312 C1318 1.368 . S
C1313 C1297 1.349 . S
C1313 H1305 0.950 . S
C1313 C1311 1.327 . S
C1314 C1302 1.349 . S
C1314 H1308 0.950 . S
C1314 C1315 1.327 . S
C1315 H1309 0.950 . S
C1315 C1314 1.327 . S
C1315 C1319 1.429 . S
C1316 C1299 1.574 . S
C1316 H1310 0.949 . S
C1316 C1320 1.368 . S
C1317 C1298 1.429 . S
C1317 C1311 1.429 . S
C1317 C1318 1.523 . S
C1318 C1299 1.368 . S
C1318 C1312 1.368 . S
C1318 C1317 1.523 . S
C1319 C1303 1.429 . S
C1319 C1315 1.429 . S
C1319 C1320 1.523 . S
C1320 C1304 1.368 . S
C1320 C1316 1.368 . S
C1320 C1319 1.523 . S
H1321 C1296 0.950 . S
H1322 C1298 0.950 . S
H1323 C1299 0.949 . S
H1324 C1301 0.950 . S
H1325 C1303 0.950 . S
C1326 C1327 1.349 . S
C1326 C1328 1.327 . S
C1326 H1351 0.950 . S
C1327 C1326 1.349 . S
C1327 C1343 1.349 . S
C1328 C1326 1.327 . S
C1328 C1347 1.429 . S
C1328 H1352 0.950 . S
C1329 C1346 1.574 . S
C1329 C1348 1.368 . S
C1329 H1353 0.949 . S
H1330 C1334 0.949 . S
C1331 C1332 1.349 . S
C1331 C1333 1.327 . S
C1331 H1354 0.950 . S
C1332 C1331 1.349 . S
C1332 C1344 1.349 . S
C1333 C1331 1.327 . S
C1333 C1349 1.429 . S
C1333 H1355 0.950 . S
C1334 H1330 0.949 . S
C1334 C1342 1.574 . S
C1334 C1350 1.368 . S
H1335 C1343 0.950 . S
H1336 C1341 0.950 . S
H1337 C1342 0.949 . S
H1338 C1344 0.950 . S
H1339 C1345 0.950 . S
H1340 C1346 0.949 . S
C1341 H1336 0.950 . S
C1341 C1343 1.327 . S
C1341 C1347 1.429 . S
C1342 C1334 1.574 . S
C1342 H1337 0.949 . S
C1342 C1348 1.368 . S
C1343 C1327 1.349 . S
C1343 H1335 0.950 . S
C1343 C1341 1.327 . S
C1344 C1332 1.349 . S
C1344 H1338 0.950 . S
C1344 C1345 1.327 . S
C1345 H1339 0.950 . S
C1345 C1344 1.327 . S
C1345 C1349 1.429 . S
C1346 C1329 1.574 . S
C1346 H1340 0.949 . S
C1346 C1350 1.368 . S
C1347 C1328 1.429 . S
C1347 C1341 1.429 . S
C1347 C1348 1.523 . S
C1348 C1329 1.368 . S
C1348 C1342 1.368 . S
C1348 C1347 1.523 . S
C1349 C1333 1.429 . S
C1349 C1345 1.429 . S
C1349 C1350 1.523 . S
C1350 C1334 1.368 . S
C1350 C1346 1.368 . S
C1350 C1349 1.523 . S
H1351 C1326 0.950 . S
H1352 C1328 0.950 . S
H1353 C1329 0.949 . S
H1354 C1331 0.950 . S
H1355 C1333 0.950 . S
C1356 C1357 1.349 . S
C1356 C1358 1.327 . S
C1356 H1381 0.950 . S
C1357 C1356 1.349 . S
C1357 C1373 1.349 . S
C1358 C1356 1.327 . S
C1358 C1377 1.429 . S
C1358 H1382 0.950 . S
C1359 C1376 1.574 . S
C1359 C1378 1.368 . S
C1359 H1383 0.949 . S
H1360 C1364 0.949 . S
C1361 C1362 1.349 . S
C1361 C1363 1.327 . S
C1361 H1384 0.950 . S
C1362 C1361 1.349 . S
C1362 C1374 1.349 . S
C1363 C1361 1.327 . S
C1363 C1379 1.429 . S
C1363 H1385 0.950 . S
C1364 H1360 0.949 . S
C1364 C1372 1.574 . S
C1364 C1380 1.368 . S
H1365 C1373 0.950 . S
H1366 C1371 0.950 . S
H1367 C1372 0.949 . S
H1368 C1374 0.950 . S
H1369 C1375 0.950 . S
H1370 C1376 0.949 . S
C1371 H1366 0.950 . S
C1371 C1373 1.327 . S
C1371 C1377 1.429 . S
C1372 C1364 1.574 . S
C1372 H1367 0.949 . S
C1372 C1378 1.368 . S
C1373 C1357 1.349 . S
C1373 H1365 0.950 . S
C1373 C1371 1.327 . S
C1374 C1362 1.349 . S
C1374 H1368 0.950 . S
C1374 C1375 1.327 . S
C1375 H1369 0.950 . S
C1375 C1374 1.327 . S
C1375 C1379 1.429 . S
C1376 C1359 1.574 . S
C1376 H1370 0.949 . S
C1376 C1380 1.368 . S
C1377 C1358 1.429 . S
C1377 C1371 1.429 . S
C1377 C1378 1.523 . S
C1378 C1359 1.368 . S
C1378 C1372 1.368 . S
C1378 C1377 1.523 . S
C1379 C1363 1.429 . S
C1379 C1375 1.429 . S
C1379 C1380 1.523 . S
C1380 C1364 1.368 . S
C1380 C1376 1.368 . S
C1380 C1379 1.523 . S
H1381 C1356 0.950 . S
H1382 C1358 0.950 . S
H1383 C1359 0.949 . S
H1384 C1361 0.950 . S
H1385 C1363 0.950 . S
C1386 C1387 1.349 . S
C1386 C1388 1.327 . S
C1386 H1411 0.950 . S
C1387 C1386 1.349 . S
C1387 C1403 1.349 . S
C1388 C1386 1.327 . S
C1388 C1407 1.429 . S
C1388 H1412 0.950 . S
C1389 C1406 1.574 . S
C1389 C1408 1.368 . S
C1389 H1413 0.949 . S
H1390 C1394 0.949 . S
C1391 C1392 1.349 . S
C1391 C1393 1.327 . S
C1391 H1414 0.950 . S
C1392 C1391 1.349 . S
C1392 C1404 1.349 . S
C1393 C1391 1.327 . S
C1393 C1409 1.429 . S
C1393 H1415 0.950 . S
C1394 H1390 0.949 . S
C1394 C1402 1.574 . S
C1394 C1410 1.368 . S
H1395 C1403 0.950 . S
H1396 C1401 0.950 . S
H1397 C1402 0.949 . S
H1398 C1404 0.950 . S
H1399 C1405 0.950 . S
H1400 C1406 0.949 . S
C1401 H1396 0.950 . S
C1401 C1403 1.327 . S
C1401 C1407 1.429 . S
C1402 C1394 1.574 . S
C1402 H1397 0.949 . S
C1402 C1408 1.368 . S
C1403 C1387 1.349 . S
C1403 H1395 0.950 . S
C1403 C1401 1.327 . S
C1404 C1392 1.349 . S
C1404 H1398 0.950 . S
C1404 C1405 1.327 . S
C1405 H1399 0.950 . S
C1405 C1404 1.327 . S
C1405 C1409 1.429 . S
C1406 C1389 1.574 . S
C1406 H1400 0.949 . S
C1406 C1410 1.368 . S
C1407 C1388 1.429 . S
C1407 C1401 1.429 . S
C1407 C1408 1.523 . S
C1408 C1389 1.368 . S
C1408 C1402 1.368 . S
C1408 C1407 1.523 . S
C1409 C1393 1.429 . S
C1409 C1405 1.429 . S
C1409 C1410 1.523 . S
C1410 C1394 1.368 . S
C1410 C1406 1.368 . S
C1410 C1409 1.523 . S
H1411 C1386 0.950 . S
H1412 C1388 0.950 . S
H1413 C1389 0.949 . S
H1414 C1391 0.950 . S
H1415 C1393 0.950 . S
C1416 C1417 1.349 . S
C1416 C1418 1.327 . S
C1416 H1441 0.950 . S
C1417 C1416 1.349 . S
C1417 C1433 1.349 . S
C1418 C1416 1.327 . S
C1418 C1437 1.429 . S
C1418 H1442 0.950 . S
C1419 C1436 1.574 . S
C1419 C1438 1.368 . S
C1419 H1443 0.949 . S
H1420 C1424 0.949 . S
C1421 C1422 1.349 . S
C1421 C1423 1.327 . S
C1421 H1444 0.950 . S
C1422 C1421 1.349 . S
C1422 C1434 1.349 . S
C1423 C1421 1.327 . S
C1423 C1439 1.429 . S
C1423 H1445 0.950 . S
C1424 H1420 0.949 . S
C1424 C1432 1.574 . S
C1424 C1440 1.368 . S
H1425 C1433 0.950 . S
H1426 C1431 0.950 . S
H1427 C1432 0.949 . S
H1428 C1434 0.950 . S
H1429 C1435 0.950 . S
H1430 C1436 0.949 . S
C1431 H1426 0.950 . S
C1431 C1433 1.327 . S
C1431 C1437 1.429 . S
C1432 C1424 1.574 . S
C1432 H1427 0.949 . S
C1432 C1438 1.368 . S
C1433 C1417 1.349 . S
C1433 H1425 0.950 . S
C1433 C1431 1.327 . S
C1434 C1422 1.349 . S
C1434 H1428 0.950 . S
C1434 C1435 1.327 . S
C1435 H1429 0.950 . S
C1435 C1434 1.327 . S
C1435 C1439 1.429 . S
C1436 C1419 1.574 . S
C1436 H1430 0.949 . S
C1436 C1440 1.368 . S
C1437 C1418 1.429 . S
C1437 C1431 1.429 . S
C1437 C1438 1.523 . S
C1438 C1419 1.368 . S
C1438 C1432 1.368 . S
C1438 C1437 1.523 . S
C1439 C1423 1.429 . S
C1439 C1435 1.429 . S
C1439 C1440 1.523 . S
C1440 C1424 1.368 . S
C1440 C1436 1.368 . S
C1440 C1439 1.523 . S
H1441 C1416 0.950 . S
H1442 C1418 0.950 . S
H1443 C1419 0.949 . S
H1444 C1421 0.950 . S
H1445 C1423 0.950 . S
C1446 C1447 1.349 . S
C1446 C1448 1.327 . S
C1446 H1471 0.950 . S
C1447 C1446 1.349 . S
C1447 C1463 1.349 . S
C1448 C1446 1.327 . S
C1448 C1467 1.429 . S
C1448 H1472 0.950 . S
C1449 C1466 1.574 . S
C1449 C1468 1.368 . S
C1449 H1473 0.949 . S
H1450 C1454 0.949 . S
C1451 C1452 1.349 . S
C1451 C1453 1.327 . S
C1451 H1474 0.950 . S
C1452 C1451 1.349 . S
C1452 C1464 1.349 . S
C1453 C1451 1.327 . S
C1453 C1469 1.429 . S
C1453 H1475 0.950 . S
C1454 H1450 0.949 . S
C1454 C1462 1.574 . S
C1454 C1470 1.368 . S
H1455 C1463 0.950 . S
H1456 C1461 0.950 . S
H1457 C1462 0.949 . S
H1458 C1464 0.950 . S
H1459 C1465 0.950 . S
H1460 C1466 0.949 . S
C1461 H1456 0.950 . S
C1461 C1463 1.327 . S
C1461 C1467 1.429 . S
C1462 C1454 1.574 . S
C1462 H1457 0.949 . S
C1462 C1468 1.368 . S
C1463 C1447 1.349 . S
C1463 H1455 0.950 . S
C1463 C1461 1.327 . S
C1464 C1452 1.349 . S
C1464 H1458 0.950 . S
C1464 C1465 1.327 . S
C1465 H1459 0.950 . S
C1465 C1464 1.327 . S
C1465 C1469 1.429 . S
C1466 C1449 1.574 . S
C1466 H1460 0.949 . S
C1466 C1470 1.368 . S
C1467 C1448 1.429 . S
C1467 C1461 1.429 . S
C1467 C1468 1.523 . S
C1468 C1449 1.368 . S
C1468 C1462 1.368 . S
C1468 C1467 1.523 . S
C1469 C1453 1.429 . S
C1469 C1465 1.429 . S
C1469 C1470 1.523 . S
C1470 C1454 1.368 . S
C1470 C1466 1.368 . S
C1470 C1469 1.523 . S
H1471 C1446 0.950 . S
H1472 C1448 0.950 . S
H1473 C1449 0.949 . S
H1474 C1451 0.950 . S
H1475 C1453 0.950 . S
C1476 C1477 1.349 . S
C1476 C1478 1.327 . S
C1476 H1501 0.950 . S
C1477 C1476 1.349 . S
C1477 C1493 1.349 . S
C1478 C1476 1.327 . S
C1478 C1497 1.429 . S
C1478 H1502 0.950 . S
C1479 C1496 1.574 . S
C1479 C1498 1.368 . S
C1479 H1503 0.949 . S
H1480 C1484 0.949 . S
C1481 C1482 1.349 . S
C1481 C1483 1.327 . S
C1481 H1504 0.950 . S
C1482 C1481 1.349 . S
C1482 C1494 1.349 . S
C1483 C1481 1.327 . S
C1483 C1499 1.429 . S
C1483 H1505 0.950 . S
C1484 H1480 0.949 . S
C1484 C1492 1.574 . S
C1484 C1500 1.368 . S
H1485 C1493 0.950 . S
H1486 C1491 0.950 . S
H1487 C1492 0.949 . S
H1488 C1494 0.950 . S
H1489 C1495 0.950 . S
H1490 C1496 0.949 . S
C1491 H1486 0.950 . S
C1491 C1493 1.327 . S
C1491 C1497 1.429 . S
C1492 C1484 1.574 . S
C1492 H1487 0.949 . S
C1492 C1498 1.368 . S
C1493 C1477 1.349 . S
C1493 H1485 0.950 . S
C1493 C1491 1.327 . S
C1494 C1482 1.349 . S
C1494 H1488 0.950 . S
C1494 C1495 1.327 . S
C1495 H1489 0.950 . S
C1495 C1494 1.327 . S
C1495 C1499 1.429 . S
C1496 C1479 1.574 . S
C1496 H1490 0.949 . S
C1496 C1500 1.368 . S
C1497 C1478 1.429 . S
C1497 C1491 1.429 . S
C1497 C1498 1.523 . S
C1498 C1479 1.368 . S
C1498 C1492 1.368 . S
C1498 C1497 1.523 . S
C1499 C1483 1.429 . S
C1499 C1495 1.429 . S
C1499 C1500 1.523 . S
C1500 C1484 1.368 . S
C1500 C1496 1.368 . S
C1500 C1499 1.523 . S
H1501 C1476 0.950 . S
H1502 C1478 0.950 . S
H1503 C1479 0.949 . S
H1504 C1481 0.950 . S
H1505 C1483 0.950 . S
C1506 C1507 1.349 . S
C1506 C1508 1.327 . S
C1506 H1531 0.950 . S
C1507 C1506 1.349 . S
C1507 C1523 1.349 . S
C1508 C1506 1.327 . S
C1508 C1527 1.429 . S
C1508 H1532 0.950 . S
C1509 C1526 1.574 . S
C1509 C1528 1.368 . S
C1509 H1533 0.949 . S
H1510 C1514 0.949 . S
C1511 C1512 1.349 . S
C1511 C1513 1.327 . S
C1511 H1534 0.950 . S
C1512 C1511 1.349 . S
C1512 C1524 1.349 . S
C1513 C1511 1.327 . S
C1513 C1529 1.429 . S
C1513 H1535 0.950 . S
C1514 H1510 0.949 . S
C1514 C1522 1.574 . S
C1514 C1530 1.368 . S
H1515 C1523 0.950 . S
H1516 C1521 0.950 . S
H1517 C1522 0.949 . S
H1518 C1524 0.950 . S
H1519 C1525 0.950 . S
H1520 C1526 0.949 . S
C1521 H1516 0.950 . S
C1521 C1523 1.327 . S
C1521 C1527 1.429 . S
C1522 C1514 1.574 . S
C1522 H1517 0.949 . S
C1522 C1528 1.368 . S
C1523 C1507 1.349 . S
C1523 H1515 0.950 . S
C1523 C1521 1.327 . S
C1524 C1512 1.349 . S
C1524 H1518 0.950 . S
C1524 C1525 1.327 . S
C1525 H1519 0.950 . S
C1525 C1524 1.327 . S
C1525 C1529 1.429 . S
C1526 C1509 1.574 . S
C1526 H1520 0.949 . S
C1526 C1530 1.368 . S
C1527 C1508 1.429 . S
C1527 C1521 1.429 . S
C1527 C1528 1.523 . S
C1528 C1509 1.368 . S
C1528 C1522 1.368 . S
C1528 C1527 1.523 . S
C1529 C1513 1.429 . S
C1529 C1525 1.429 . S
C1529 C1530 1.523 . S
C1530 C1514 1.368 . S
C1530 C1526 1.368 . S
C1530 C1529 1.523 . S
H1531 C1506 0.950 . S
H1532 C1508 0.950 . S
H1533 C1509 0.949 . S
H1534 C1511 0.950 . S
H1535 C1513 0.950 . S
C1536 C1537 1.349 . S
C1536 C1538 1.327 . S
C1536 H1561 0.950 . S
C1537 C1536 1.349 . S
C1537 C1553 1.349 . S
C1538 C1536 1.327 . S
C1538 C1557 1.429 . S
C1538 H1562 0.950 . S
C1539 C1556 1.574 . S
C1539 C1558 1.368 . S
C1539 H1563 0.949 . S
H1540 C1544 0.949 . S
C1541 C1542 1.349 . S
C1541 C1543 1.327 . S
C1541 H1564 0.950 . S
C1542 C1541 1.349 . S
C1542 C1554 1.349 . S
C1543 C1541 1.327 . S
C1543 C1559 1.429 . S
C1543 H1565 0.950 . S
C1544 H1540 0.949 . S
C1544 C1552 1.574 . S
C1544 C1560 1.368 . S
H1545 C1553 0.950 . S
H1546 C1551 0.950 . S
H1547 C1552 0.949 . S
H1548 C1554 0.950 . S
H1549 C1555 0.950 . S
H1550 C1556 0.949 . S
C1551 H1546 0.950 . S
C1551 C1553 1.327 . S
C1551 C1557 1.429 . S
C1552 C1544 1.574 . S
C1552 H1547 0.949 . S
C1552 C1558 1.368 . S
C1553 C1537 1.349 . S
C1553 H1545 0.950 . S
C1553 C1551 1.327 . S
C1554 C1542 1.349 . S
C1554 H1548 0.950 . S
C1554 C1555 1.327 . S
C1555 H1549 0.950 . S
C1555 C1554 1.327 . S
C1555 C1559 1.429 . S
C1556 C1539 1.574 . S
C1556 H1550 0.949 . S
C1556 C1560 1.368 . S
C1557 C1538 1.429 . S
C1557 C1551 1.429 . S
C1557 C1558 1.523 . S
C1558 C1539 1.368 . S
C1558 C1552 1.368 . S
C1558 C1557 1.523 . S
C1559 C1543 1.429 . S
C1559 C1555 1.429 . S
C1559 C1560 1.523 . S
C1560 C1544 1.368 . S
C1560 C1556 1.368 . S
C1560 C1559 1.523 . S
H1561 C1536 0.950 . S
H1562 C1538 0.950 . S
H1563 C1539 0.949 . S
H1564 C1541 0.950 . S
H1565 C1543 0.950 . S
C1566 C1567 1.349 . S
C1566 C1568 1.327 . S
C1566 H1591 0.950 . S
C1567 C1566 1.349 . S
C1567 C1583 1.349 . S
C1568 C1566 1.327 . S
C1568 C1587 1.429 . S
C1568 H1592 0.950 . S
C1569 C1586 1.574 . S
C1569 C1588 1.368 . S
C1569 H1593 0.949 . S
H1570 C1574 0.949 . S
C1571 C1572 1.349 . S
C1571 C1573 1.327 . S
C1571 H1594 0.950 . S
C1572 C1571 1.349 . S
C1572 C1584 1.349 . S
C1573 C1571 1.327 . S
C1573 C1589 1.429 . S
C1573 H1595 0.950 . S
C1574 H1570 0.949 . S
C1574 C1582 1.574 . S
C1574 C1590 1.368 . S
H1575 C1583 0.950 . S
H1576 C1581 0.950 . S
H1577 C1582 0.949 . S
H1578 C1584 0.950 . S
H1579 C1585 0.950 . S
H1580 C1586 0.949 . S
C1581 H1576 0.950 . S
C1581 C1583 1.327 . S
C1581 C1587 1.429 . S
C1582 C1574 1.574 . S
C1582 H1577 0.949 . S
C1582 C1588 1.368 . S
C1583 C1567 1.349 . S
C1583 H1575 0.950 . S
C1583 C1581 1.327 . S
C1584 C1572 1.349 . S
C1584 H1578 0.950 . S
C1584 C1585 1.327 . S
C1585 H1579 0.950 . S
C1585 C1584 1.327 . S
C1585 C1589 1.429 . S
C1586 C1569 1.574 . S
C1586 H1580 0.949 . S
C1586 C1590 1.368 . S
C1587 C1568 1.429 . S
C1587 C1581 1.429 . S
C1587 C1588 1.523 . S
C1588 C1569 1.368 . S
C1588 C1582 1.368 . S
C1588 C1587 1.523 . S
C1589 C1573 1.429 . S
C1589 C1585 1.429 . S
C1589 C1590 1.523 . S
C1590 C1574 1.368 . S
C1590 C1586 1.368 . S
C1590 C1589 1.523 . S
H1591 C1566 0.950 . S
H1592 C1568 0.950 . S
H1593 C1569 0.949 . S
H1594 C1571 0.950 . S
H1595 C1573 0.950 . S
C1596 C1597 1.349 . S
C1596 C1598 1.327 . S
C1596 H1621 0.950 . S
C1597 C1596 1.349 . S
C1597 C1613 1.349 . S
C1598 C1596 1.327 . S
C1598 C1617 1.429 . S
C1598 H1622 0.950 . S
C1599 C1616 1.574 . S
C1599 C1618 1.368 . S
C1599 H1623 0.949 . S
H1600 C1604 0.949 . S
C1601 C1602 1.349 . S
C1601 C1603 1.327 . S
C1601 H1624 0.950 . S
C1602 C1601 1.349 . S
C1602 C1614 1.349 . S
C1603 C1601 1.327 . S
C1603 C1619 1.429 . S
C1603 H1625 0.950 . S
C1604 H1600 0.949 . S
C1604 C1612 1.574 . S
C1604 C1620 1.368 . S
H1605 C1613 0.950 . S
H1606 C1611 0.950 . S
H1607 C1612 0.949 . S
H1608 C1614 0.950 . S
H1609 C1615 0.950 . S
H1610 C1616 0.949 . S
C1611 H1606 0.950 . S
C1611 C1613 1.327 . S
C1611 C1617 1.429 . S
C1612 C1604 1.574 . S
C1612 H1607 0.949 . S
C1612 C1618 1.368 . S
C1613 C1597 1.349 . S
C1613 H1605 0.950 . S
C1613 C1611 1.327 . S
C1614 C1602 1.349 . S
C1614 H1608 0.950 . S
C1614 C1615 1.327 . S
C1615 H1609 0.950 . S
C1615 C1614 1.327 . S
C1615 C1619 1.429 . S
C1616 C1599 1.574 . S
C1616 H1610 0.949 . S
C1616 C1620 1.368 . S
C1617 C1598 1.429 . S
C1617 C1611 1.429 . S
C1617 C1618 1.523 . S
C1618 C1599 1.368 . S
C1618 C1612 1.368 . S
C1618 C1617 1.523 . S
C1619 C1603 1.429 . S
C1619 C1615 1.429 . S
C1619 C1620 1.523 . S
C1620 C1604 1.368 . S
C1620 C1616 1.368 . S
C1620 C1619 1.523 . S
H1621 C1596 0.950 . S
H1622 C1598 0.950 . S
H1623 C1599 0.949 . S
H1624 C1601 0.950 . S
H1625 C1603 0.950 . S
C1626 C1627 1.349 . S
C1626 C1628 1.327 . S
C1626 H1651 0.950 . S
C1627 C1626 1.349 . S
C1627 C1643 1.349 . S
C1628 C1626 1.327 . S
C1628 C1647 1.429 . S
C1628 H1652 0.950 . S
C1629 C1646 1.574 . S
C1629 C1648 1.368 . S
C1629 H1653 0.949 . S
H1630 C1634 0.949 . S
C1631 C1632 1.349 . S
C1631 C1633 1.327 . S
C1631 H1654 0.950 . S
C1632 C1631 1.349 . S
C1632 C1644 1.349 . S
C1633 C1631 1.327 . S
C1633 C1649 1.429 . S
C1633 H1655 0.950 . S
C1634 H1630 0.949 . S
C1634 C1642 1.574 . S
C1634 C1650 1.368 . S
H1635 C1643 0.950 . S
H1636 C1641 0.950 . S
H1637 C1642 0.949 . S
H1638 C1644 0.950 . S
H1639 C1645 0.950 . S
H1640 C1646 0.949 . S
C1641 H1636 0.950 . S
C1641 C1643 1.327 . S
C1641 C1647 1.429 . S
C1642 C1634 1.574 . S
C1642 H1637 0.949 . S
C1642 C1648 1.368 . S
C1643 C1627 1.349 . S
C1643 H1635 0.950 . S
C1643 C1641 1.327 . S
C1644 C1632 1.349 . S
C1644 H1638 0.950 . S
C1644 C1645 1.327 . S
C1645 H1639 0.950 . S
C1645 C1644 1.327 . S
C1645 C1649 1.429 . S
C1646 C1629 1.574 . S
C1646 H1640 0.949 . S
C1646 C1650 1.368 . S
C1647 C1628 1.429 . S
C1647 C1641 1.429 . S
C1647 C1648 1.523 . S
C1648 C1629 1.368 . S
C1648 C1642 1.368 . S
C1648 C1647 1.523 . S
C1649 C1633 1.429 . S
C1649 C1645 1.429 . S
C1649 C1650 1.523 . S
C1650 C1634 1.368 . S
C1650 C1646 1.368 . S
C1650 C1649 1.523 . S
H1651 C1626 0.950 . S
H1652 C1628 0.950 . S
H1653 C1629 0.949 . S
H1654 C1631 0.950 . S
H1655 C1633 0.950 . S
C1656 C1657 1.349 . S
C1656 C1658 1.327 . S
C1656 H1681 0.950 . S
C1657 C1656 1.349 . S
C1657 C1673 1.349 . S
C1658 C1656 1.327 . S
C1658 C1677 1.429 . S
C1658 H1682 0.950 . S
C1659 C1676 1.574 . S
C1659 C1678 1.368 . S
C1659 H1683 0.949 . S
H1660 C1664 0.949 . S
C1661 C1662 1.349 . S
C1661 C1663 1.327 . S
C1661 H1684 0.950 . S
C1662 C1661 1.349 . S
C1662 C1674 1.349 . S
C1663 C1661 1.327 . S
C1663 C1679 1.429 . S
C1663 H1685 0.950 . S
C1664 H1660 0.949 . S
C1664 C1672 1.574 . S
C1664 C1680 1.368 . S
H1665 C1673 0.950 . S
H1666 C1671 0.950 . S
H1667 C1672 0.949 . S
H1668 C1674 0.950 . S
H1669 C1675 0.950 . S
H1670 C1676 0.949 . S
C1671 H1666 0.950 . S
C1671 C1673 1.327 . S
C1671 C1677 1.429 . S
C1672 C1664 1.574 . S
C1672 H1667 0.949 . S
C1672 C1678 1.368 . S
C1673 C1657 1.349 . S
C1673 H1665 0.950 . S
C1673 C1671 1.327 . S
C1674 C1662 1.349 . S
C1674 H1668 0.950 . S
C1674 C1675 1.327 . S
C1675 H1669 0.950 . S
C1675 C1674 1.327 . S
C1675 C1679 1.429 . S
C1676 C1659 1.574 . S
C1676 H1670 0.949 . S
C1676 C1680 1.368 . S
C1677 C1658 1.429 . S
C1677 C1671 1.429 . S
C1677 C1678 1.523 . S
C1678 C1659 1.368 . S
C1678 C1672 1.368 . S
C1678 C1677 1.523 . S
C1679 C1663 1.429 . S
C1679 C1675 1.429 . S
C1679 C1680 1.523 . S
C1680 C1664 1.368 . S
C1680 C1676 1.368 . S
C1680 C1679 1.523 . S
H1681 C1656 0.950 . S
H1682 C1658 0.950 . S
H1683 C1659 0.949 . S
H1684 C1661 0.950 . S
H1685 C1663 0.950 . S
C1686 C1687 1.349 . S
C1686 C1688 1.327 . S
C1686 H1711 0.950 . S
C1687 C1686 1.349 . S
C1687 C1703 1.349 . S
C1688 C1686 1.327 . S
C1688 C1707 1.429 . S
C1688 H1712 0.950 . S
C1689 C1706 1.574 . S
C1689 C1708 1.368 . S
C1689 H1713 0.949 . S
H1690 C1694 0.949 . S
C1691 C1692 1.349 . S
C1691 C1693 1.327 . S
C1691 H1714 0.950 . S
C1692 C1691 1.349 . S
C1692 C1704 1.349 . S
C1693 C1691 1.327 . S
C1693 C1709 1.429 . S
C1693 H1715 0.950 . S
C1694 H1690 0.949 . S
C1694 C1702 1.574 . S
C1694 C1710 1.368 . S
H1695 C1703 0.950 . S
H1696 C1701 0.950 . S
H1697 C1702 0.949 . S
H1698 C1704 0.950 . S
H1699 C1705 0.950 . S
H1700 C1706 0.949 . S
C1701 H1696 0.950 . S
C1701 C1703 1.327 . S
C1701 C1707 1.429 . S
C1702 C1694 1.574 . S
C1702 H1697 0.949 . S
C1702 C1708 1.368 . S
C1703 C1687 1.349 . S
C1703 H1695 0.950 . S
C1703 C1701 1.327 . S
C1704 C1692 1.349 . S
C1704 H1698 0.950 . S
C1704 C1705 1.327 . S
C1705 H1699 0.950 . S
C1705 C1704 1.327 . S
C1705 C1709 1.429 . S
C1706 C1689 1.574 . S
C1706 H1700 0.949 . S
C1706 C1710 1.368 . S
C1707 C1688 1.429 . S
C1707 C1701 1.429 . S
C1707 C1708 1.523 . S
C1708 C1689 1.368 . S
C1708 C1702 1.368 . S
C1708 C1707 1.523 . S
C1709 C1693 1.429 . S
C1709 C1705 1.429 . S
C1709 C1710 1.523 . S
C1710 C1694 1.368 . S
C1710 C1706 1.368 . S
C1710 C1709 1.523 . S
H1711 C1686 0.950 . S
H1712 C1688 0.950 . S
H1713 C1689 0.949 . S
H1714 C1691 0.950 . S
H1715 C1693 0.950 . S
C1716 C1717 1.349 . S
C1716 C1718 1.327 . S
C1716 H1741 0.950 . S
C1717 C1716 1.349 . S
C1717 C1733 1.349 . S
C1718 C1716 1.327 . S
C1718 C1737 1.429 . S
C1718 H1742 0.950 . S
C1719 C1736 1.574 . S
C1719 C1738 1.368 . S
C1719 H1743 0.949 . S
H1720 C1724 0.949 . S
C1721 C1722 1.349 . S
C1721 C1723 1.327 . S
C1721 H1744 0.950 . S
C1722 C1721 1.349 . S
C1722 C1734 1.349 . S
C1723 C1721 1.327 . S
C1723 C1739 1.429 . S
C1723 H1745 0.950 . S
C1724 H1720 0.949 . S
C1724 C1732 1.574 . S
C1724 C1740 1.368 . S
H1725 C1733 0.950 . S
H1726 C1731 0.950 . S
H1727 C1732 0.949 . S
H1728 C1734 0.950 . S
H1729 C1735 0.950 . S
H1730 C1736 0.949 . S
C1731 H1726 0.950 . S
C1731 C1733 1.327 . S
C1731 C1737 1.429 . S
C1732 C1724 1.574 . S
C1732 H1727 0.949 . S
C1732 C1738 1.368 . S
C1733 C1717 1.349 . S
C1733 H1725 0.950 . S
C1733 C1731 1.327 . S
C1734 C1722 1.349 . S
C1734 H1728 0.950 . S
C1734 C1735 1.327 . S
C1735 H1729 0.950 . S
C1735 C1734 1.327 . S
C1735 C1739 1.429 . S
C1736 C1719 1.574 . S
C1736 H1730 0.949 . S
C1736 C1740 1.368 . S
C1737 C1718 1.429 . S
C1737 C1731 1.429 . S
C1737 C1738 1.523 . S
C1738 C1719 1.368 . S
C1738 C1732 1.368 . S
C1738 C1737 1.523 . S
C1739 C1723 1.429 . S
C1739 C1735 1.429 . S
C1739 C1740 1.523 . S
C1740 C1724 1.368 . S
C1740 C1736 1.368 . S
C1740 C1739 1.523 . S
H1741 C1716 0.950 . S
H1742 C1718 0.950 . S
H1743 C1719 0.949 . S
H1744 C1721 0.950 . S
H1745 C1723 0.950 . S
C1746 C1747 1.349 . S
C1746 C1748 1.327 . S
C1746 H1771 0.950 . S
C1747 C1746 1.349 . S
C1747 C1763 1.349 . S
C1748 C1746 1.327 . S
C1748 C1767 1.429 . S
C1748 H1772 0.950 . S
C1749 C1766 1.574 . S
C1749 C1768 1.368 . S
C1749 H1773 0.949 . S
H1750 C1754 0.949 . S
C1751 C1752 1.349 . S
C1751 C1753 1.327 . S
C1751 H1774 0.950 . S
C1752 C1751 1.349 . S
C1752 C1764 1.349 . S
C1753 C1751 1.327 . S
C1753 C1769 1.429 . S
C1753 H1775 0.950 . S
C1754 H1750 0.949 . S
C1754 C1762 1.574 . S
C1754 C1770 1.368 . S
H1755 C1763 0.950 . S
H1756 C1761 0.950 . S
H1757 C1762 0.949 . S
H1758 C1764 0.950 . S
H1759 C1765 0.950 . S
H1760 C1766 0.949 . S
C1761 H1756 0.950 . S
C1761 C1763 1.327 . S
C1761 C1767 1.429 . S
C1762 C1754 1.574 . S
C1762 H1757 0.949 . S
C1762 C1768 1.368 . S
C1763 C1747 1.349 . S
C1763 H1755 0.950 . S
C1763 C1761 1.327 . S
C1764 C1752 1.349 . S
C1764 H1758 0.950 . S
C1764 C1765 1.327 . S
C1765 H1759 0.950 . S
C1765 C1764 1.327 . S
C1765 C1769 1.429 . S
C1766 C1749 1.574 . S
C1766 H1760 0.949 . S
C1766 C1770 1.368 . S
C1767 C1748 1.429 . S
C1767 C1761 1.429 . S
C1767 C1768 1.523 . S
C1768 C1749 1.368 . S
C1768 C1762 1.368 . S
C1768 C1767 1.523 . S
C1769 C1753 1.429 . S
C1769 C1765 1.429 . S
C1769 C1770 1.523 . S
C1770 C1754 1.368 . S
C1770 C1766 1.368 . S
C1770 C1769 1.523 . S
H1771 C1746 0.950 . S
H1772 C1748 0.950 . S
H1773 C1749 0.949 . S
H1774 C1751 0.950 . S
H1775 C1753 0.950 . S
C337 C9 1.842 . S
C342 C107 1.842 . S
C367 C121 1.842 . S
C372 C23 1.842 . S
C397 C37 1.842 . S
C402 C135 1.842 . S
C427 C51 1.842 . S
C432 C149 1.842 . S
C457 C163 1.842 . S
C462 C65 1.842 . S
C487 C79 1.842 . S
C492 C93 1.842 . S
C517 C177 1.842 . S
C522 C275 1.842 . S
C547 C191 1.842 . S
C552 C289 1.842 . S
C577 C303 1.842 . S
C582 C205 1.842 . S
C607 C219 1.842 . S
C612 C317 1.842 . S
C637 C233 1.842 . S
C642 C331 1.842 . S
C667 C261 1.842 . S
C672 C247 1.842 . S
C697 C6 1.500 . S
C702 C118 1.500 . S
C727 C132 1.500 . S
C732 C20 1.500 . S
C757 C146 1.500 . S
C762 C34 1.500 . S
C787 C48 1.501 . S
C792 C160 1.501 . S
C817 C62 1.500 . S
C822 C90 1.500 . S
C847 C76 1.500 . S
C852 C104 1.500 . S
C877 C286 1.500 . S
C882 C174 1.500 . S
C907 C188 1.500 . S
C912 C300 1.500 . S
C937 C314 1.500 . S
C942 C202 1.500 . S
C967 C328 1.501 . S
C972 C216 1.501 . S
C997 C258 1.500 . S
C1002 C230 1.500 . S
C1027 C244 1.500 . S
C1032 C272 1.500 . S
C1057 C7 1.574 . S
C1062 C217 1.574 . S
C1087 C231 1.574 . S
C1092 C21 1.574 . S
C1117 C245 1.574 . S
C1122 C35 1.574 . S
C1147 C49 1.574 . S
C1152 C175 1.574 . S
C1177 C63 1.574 . S
C1182 C189 1.574 . S
C1207 C203 1.574 . S
C1212 C77 1.574 . S
C1237 C301 1.574 . S
C1242 C91 1.574 . S
C1267 C315 1.574 . S
C1272 C105 1.574 . S
C1297 C329 1.574 . S
C1302 C119 1.574 . S
C1327 C259 1.574 . S
C1332 C133 1.574 . S
C1357 C147 1.574 . S
C1362 C273 1.574 . S
C1387 C161 1.574 . S
C1392 C287 1.574 . S
C1417 C8 1.307 . S
C1422 C148 1.307 . S
C1447 C162 1.307 . S
C1452 C22 1.307 . S
C1477 C92 1.307 . S
C1482 C36 1.307 . S
C1507 C50 1.307 . S
C1512 C106 1.307 . S
C1537 C64 1.307 . S
C1542 C120 1.307 . S
C1567 C78 1.307 . S
C1572 C134 1.307 . S
C1597 C176 1.307 . S
C1602 C316 1.307 . S
C1627 C190 1.307 . S
C1632 C330 1.307 . S
C1657 C204 1.307 . S
C1662 C260 1.307 . S
C1687 C274 1.307 . S
C1692 C218 1.307 . S
C1717 C232 1.307 . S
C1722 C288 1.307 . S
C1747 C246 1.307 . S
C1752 C302 1.307 . S
