# Generated by pormake.
# Topology una, (4)-cn, num edge types: 1
# Building blocks:
#     Node 0, Type 0, BuildingBlock: UXUYUI_clean_sbu_0, # of connection points: 4
#     Node 1, Type 0, BuildingBlock: UXUYUI_clean_sbu_0, # of connection points: 4
#     Node 2, Type 0, BuildingBlock: UXUYUI_clean_sbu_0, # of connection points: 4
#     Node 3, Type 0, BuildingBlock: UXUYUI_clean_sbu_0, # of connection points: 4
#     Node 4, Type 0, BuildingBlock: UXUYUI_clean_sbu_0, # of connection points: 4
#     Node 5, Type 0, BuildingBlock: UXUYUI_clean_sbu_0, # of connection points: 4
#     Node 6, Type 0, BuildingBlock: UXUYUI_clean_sbu_0, # of connection points: 4
#     Node 7, Type 0, BuildingBlock: UXUYUI_clean_sbu_0, # of connection points: 4
#     Node 8, Type 0, BuildingBlock: UXUYUI_clean_sbu_0, # of connection points: 4
#     Node 9, Type 0, BuildingBlock: UXUYUI_clean_sbu_0, # of connection points: 4
#     Node 10, Type 0, BuildingBlock: UXUYUI_clean_sbu_0, # of connection points: 4
#     Node 11, Type 0, BuildingBlock: UXUYUI_clean_sbu_0, # of connection points: 4
#     Edge 12, Type (0, 0), BuildingBlock: UVAHIK_clean_linker_0, # of connection points: 2
#     Edge 13, Type (0, 0), BuildingBlock: UVAHIK_clean_linker_0, # of connection points: 2
#     Edge 14, Type (0, 0), BuildingBlock: UVAHIK_clean_linker_0, # of connection points: 2
#     Edge 15, Type (0, 0), BuildingBlock: UVAHIK_clean_linker_0, # of connection points: 2
#     Edge 16, Type (0, 0), BuildingBlock: UVAHIK_clean_linker_0, # of connection points: 2
#     Edge 17, Type (0, 0), BuildingBlock: UVAHIK_clean_linker_0, # of connection points: 2
#     Edge 18, Type (0, 0), BuildingBlock: UVAHIK_clean_linker_0, # of connection points: 2
#     Edge 19, Type (0, 0), BuildingBlock: UVAHIK_clean_linker_0, # of connection points: 2
#     Edge 20, Type (0, 0), BuildingBlock: UVAHIK_clean_linker_0, # of connection points: 2
#     Edge 21, Type (0, 0), BuildingBlock: UVAHIK_clean_linker_0, # of connection points: 2
#     Edge 22, Type (0, 0), BuildingBlock: UVAHIK_clean_linker_0, # of connection points: 2
#     Edge 23, Type (0, 0), BuildingBlock: UVAHIK_clean_linker_0, # of connection points: 2
#     Edge 24, Type (0, 0), BuildingBlock: UVAHIK_clean_linker_0, # of connection points: 2
#     Edge 25, Type (0, 0), BuildingBlock: UVAHIK_clean_linker_0, # of connection points: 2
#     Edge 26, Type (0, 0), BuildingBlock: UVAHIK_clean_linker_0, # of connection points: 2
#     Edge 27, Type (0, 0), BuildingBlock: UVAHIK_clean_linker_0, # of connection points: 2
#     Edge 28, Type (0, 0), BuildingBlock: UVAHIK_clean_linker_0, # of connection points: 2
#     Edge 29, Type (0, 0), BuildingBlock: UVAHIK_clean_linker_0, # of connection points: 2
#     Edge 30, Type (0, 0), BuildingBlock: UVAHIK_clean_linker_0, # of connection points: 2
#     Edge 31, Type (0, 0), BuildingBlock: UVAHIK_clean_linker_0, # of connection points: 2
#     Edge 32, Type (0, 0), BuildingBlock: UVAHIK_clean_linker_0, # of connection points: 2
#     Edge 33, Type (0, 0), BuildingBlock: UVAHIK_clean_linker_0, # of connection points: 2
#     Edge 34, Type (0, 0), BuildingBlock: UVAHIK_clean_linker_0, # of connection points: 2
#     Edge 35, Type (0, 0), BuildingBlock: UVAHIK_clean_linker_0, # of connection points: 2
# Relax obj value: 0.208
# Max RMSD: 0.213
# Mean RMSD: 0.213
data_MOF--net-una--node1-UXUYUI_clean_sbu_0--edge1-UVAHIK_clean_linker_0
_symmetry_space_group_name_H-M    P1
_symmetry_Int_Tables_number       1
_symmetry_cell_setting            triclinic
loop_
_symmetry_equiv_pos_as_xyz
'x, y, z'
_cell_length_a     99.159167
_cell_length_b     99.169262
_cell_length_c     38.576768
_cell_angle_alpha  89.988122
_cell_angle_beta   90.001763
_cell_angle_gamma 119.98747
loop_
_atom_site_label
_atom_site_type_symbol
_atom_site_fract_x
_atom_site_fract_y
_atom_site_fract_z
_atom_type_partial_charge
Li0 Li 0.1288 0.44732 0.0511 0.0
Li1 Li 0.1306 0.42463 0.07275 0.0
Li2 Li 0.14113 0.43598 0.01865 0.0
Li3 Li 0.11365 0.42094 0.02415 0.0
C4 C 0.16277 0.45686 0.05792 0.0
N5 N 0.19356 0.47775 0.04269 0.0
C6 C 0.17437 0.45328 0.06607 0.0
C7 C 0.16684 0.47108 0.04214 0.0
C8 C 0.18986 0.46399 0.0581 0.0
C9 C 0.18247 0.48149 0.03466 0.0
C10 C 0.1081 0.43051 0.10429 0.0
C11 C 0.08899 0.42726 0.14711 0.0
N12 N 0.10061 0.43717 0.1686 0.0
C13 C 0.11987 0.44066 0.12681 0.0
C14 C 0.09254 0.42375 0.11448 0.0
C15 C 0.11584 0.44388 0.1592 0.0
C16 C 0.1174 0.46791 0.04533 0.0
N17 N 0.12802 0.46551 0.06234 0.0
C18 C 0.1371 0.48916 0.09411 0.0
C19 C 0.13776 0.47575 0.08642 0.0
C20 C 0.12637 0.49206 0.07665 0.0
C21 C 0.11641 0.48122 0.052 0.0
H22 H 0.10977 0.45949 0.02642 0.0
H23 H 0.14613 0.47355 0.09949 0.0
C24 C 0.14601 0.41195 0.10644 0.0
N25 N 0.13398 0.41464 0.11114 0.0
C26 C 0.15038 0.40531 0.13282 0.0
C27 C 0.12949 0.40375 0.16809 0.0
C28 C 0.12539 0.41023 0.14077 0.0
C29 C 0.14228 0.40145 0.16439 0.0
H30 H 0.15234 0.41515 0.0822 0.0
H31 H 0.11544 0.41182 0.1435 0.0
C32 C 0.12925 0.44683 0.96891 0.0
N33 N 0.1369 0.4577 0.90177 0.0
C34 C 0.12788 0.4367 0.9422 0.0
C35 C 0.13442 0.46246 0.96149 0.0
C36 C 0.13185 0.44243 0.90843 0.0
C37 C 0.13825 0.46774 0.92736 0.0
C38 C 0.12038 0.39782 0.0351 0.0
C39 C 0.12449 0.38785 0.01853 0.0
C40 C 0.1077 0.39162 0.05788 0.0
C41 C 0.1159 0.37187 0.02512 0.0
C42 C 0.09942 0.37558 0.06379 0.0
N43 N 0.10365 0.36612 0.04744 0.0
C44 C 0.16203 0.42903 0.98698 0.0
C45 C 0.16523 0.45314 0.96768 0.0
C46 C 0.17334 0.4302 0.96379 0.0
N47 N 0.15793 0.4402 0.98792 0.0
C48 C 0.17657 0.45476 0.9439 0.0
C49 C 0.18052 0.44302 0.94126 0.0
H50 H 0.15638 0.4191 0.00407 0.0
H51 H 0.16212 0.4621 0.96947 0.0
C52 C 0.08153 0.40708 0.01033 0.0
N53 N 0.09487 0.4073 0.00126 0.0
C54 C 0.06775 0.39765 0.99226 0.0
C55 C 0.08177 0.38882 0.95617 0.0
C56 C 0.09522 0.39831 0.97508 0.0
C57 C 0.06785 0.38853 0.96449 0.0
H58 H 0.08168 0.41446 0.03114 0.0
H59 H 0.106 0.39868 0.96859 0.0
O60 O 0.1475 0.44642 0.06492 0.0
O61 O 0.1117 0.42733 0.07219 0.0
O62 O 0.12548 0.44148 0.00216 0.0
O63 O 0.12875 0.4135 0.02869 0.0
H64 H 0.17145 0.44235 0.07832 0.0
H65 H 0.158 0.47394 0.03511 0.0
H66 H 0.19895 0.46136 0.06415 0.0
H67 H 0.18577 0.4925 0.02225 0.0
H68 H 0.07698 0.4221 0.15535 0.0
H69 H 0.13198 0.44586 0.1196 0.0
H70 H 0.08329 0.41587 0.09736 0.0
H71 H 0.12482 0.4517 0.1769 0.0
H72 H 0.14507 0.4973 0.11305 0.0
H73 H 0.10786 0.48293 0.03827 0.0
H74 H 0.16036 0.40378 0.12902 0.0
H75 H 0.12284 0.40069 0.19194 0.0
H76 H 0.12405 0.42462 0.94758 0.0
H77 H 0.13559 0.47046 0.98191 0.0
H78 H 0.13095 0.43476 0.88753 0.0
H79 H 0.14232 0.47982 0.92124 0.0
H80 H 0.13419 0.3924 0.00065 0.0
H81 H 0.10424 0.39904 0.07092 0.0
H82 H 0.11897 0.36404 0.01247 0.0
H83 H 0.08961 0.37066 0.08138 0.0
H84 H 0.17631 0.42108 0.96329 0.0
H85 H 0.18179 0.46484 0.92705 0.0
H86 H 0.05728 0.39785 -0.00078 0.0
H87 H 0.08226 0.38183 0.93516 0.0
Li88 Li 0.67817 0.12774 0.22193 0.0
Li89 Li 0.70326 0.13128 0.24302 0.0
Li90 Li 0.70095 0.13947 0.18654 0.0
Li91 Li 0.68915 0.11253 0.19799 0.0
C92 C 0.70187 0.16213 0.22174 0.0
N93 N 0.71074 0.19191 0.19953 0.0
C94 C 0.71676 0.17444 0.22926 0.0
C95 C 0.69146 0.16497 0.20309 0.0
C96 C 0.72104 0.18941 0.21774 0.0
C97 C 0.69617 0.18011 0.19207 0.0
C98 C 0.67555 0.10904 0.27838 0.0
C99 C 0.65976 0.09074 0.3226 0.0
N100 N 0.66177 0.10278 0.34306 0.0
C101 C 0.67743 0.12124 0.29979 0.0
C102 C 0.66661 0.09367 0.28977 0.0
C103 C 0.67038 0.11783 0.33243 0.0
C104 C 0.64594 0.11567 0.22003 0.0
N105 N 0.65939 0.12709 0.23404 0.0
C106 C 0.64566 0.13743 0.26467 0.0
C107 C 0.65953 0.13785 0.25605 0.0
C108 C 0.63153 0.12585 0.25036 0.0
C109 C 0.6318 0.11484 0.22783 0.0
H110 H 0.64625 0.10729 0.20257 0.0
H111 H 0.67043 0.14678 0.26687 0.0
C112 C 0.73203 0.14857 0.27282 0.0
N113 N 0.7176 0.13653 0.28022 0.0
C114 C 0.74381 0.15397 0.29759 0.0
C115 C 0.72578 0.13425 0.3371 0.0
C116 C 0.71439 0.12905 0.31128 0.0
C117 C 0.74066 0.14695 0.33039 0.0
H118 H 0.73433 0.154 0.24755 0.0
H119 H 0.70307 0.11909 0.31619 0.0
C120 C 0.67868 0.11967 0.13843 0.0
N121 N 0.67612 0.11165 0.06917 0.0
C122 C 0.6913 0.12022 0.12097 0.0
C123 C 0.66476 0.11503 0.12067 0.0
C124 C 0.68978 0.11613 0.08595 0.0
C125 C 0.66369 0.11103 0.08565 0.0
C126 C 0.72009 0.12091 0.20709 0.0
C127 C 0.73446 0.12586 0.1911 0.0
C128 C 0.71444 0.10874 0.23116 0.0
C129 C 0.74293 0.11851 0.19935 0.0
C130 C 0.72327 0.1017 0.23873 0.0
N131 N 0.73721 0.10668 0.2228 0.0
C132 C 0.72787 0.16206 0.15397 0.0
C133 C 0.70471 0.15854 0.12767 0.0
C134 C 0.7369 0.17282 0.12862 0.0
N135 N 0.71211 0.15503 0.15273 0.0
C136 C 0.71329 0.16918 0.10163 0.0
C137 C 0.72961 0.17629 0.10159 0.0
H138 H 0.7334 0.15912 0.17446 0.0
H139 H 0.69214 0.15282 0.1275 0.0
C140 C 0.66778 0.08217 0.17898 0.0
N141 N 0.68318 0.09294 0.17766 0.0
C142 C 0.66195 0.0684 0.15998 0.0
C143 C 0.68808 0.0768 0.13987 0.0
C144 C 0.69336 0.0905 0.15878 0.0
C145 C 0.67216 0.06573 0.13978 0.0
H146 H 0.65994 0.08461 0.19364 0.0
H147 H 0.70543 0.09946 0.15693 0.0
O148 O 0.6976 0.14731 0.23191 0.0
O149 O 0.68198 0.112 0.24597 0.0
O150 O 0.67973 0.12334 0.17289 0.0
O151 O 0.71181 0.12818 0.19939 0.0
H152 H 0.72496 0.17246 0.24368 0.0
H153 H 0.67995 0.15554 0.19668 0.0
H154 H 0.73255 0.19904 0.22324 0.0
H155 H 0.68827 0.18246 0.17741 0.0
H156 H 0.65281 0.0789 0.33177 0.0
H157 H 0.68436 0.1332 0.29145 0.0
H158 H 0.66496 0.08411 0.27335 0.0
H159 H 0.67177 0.12715 0.34931 0.0
H160 H 0.64598 0.14601 0.28251 0.0
H161 H 0.62123 0.10584 0.21586 0.0
H162 H 0.75513 0.16383 0.29151 0.0
H163 H 0.72302 0.12843 0.36201 0.0
H164 H 0.70216 0.12372 0.13426 0.0
H165 H 0.65486 0.11448 0.13387 0.0
H166 H 0.69945 0.11649 0.07215 0.0
H167 H 0.65298 0.1074 0.07159 0.0
H168 H 0.739 0.13529 0.17248 0.0
H169 H 0.70338 0.10474 0.2439 0.0
H170 H 0.75407 0.12222 0.18714 0.0
H171 H 0.71904 0.09227 0.25728 0.0
H172 H 0.74946 0.17826 0.13003 0.0
H173 H 0.70718 0.17142 0.08119 0.0
H174 H 0.64958 0.0601 0.16043 0.0
H175 H 0.69623 0.07525 0.12405 0.0
Li176 Li 0.57212 0.70582 0.40812 0.0
Li177 Li 0.55051 0.68237 0.38866 0.0
Li178 Li 0.57635 0.69088 0.36581 0.0
Li179 Li 0.56253 0.70491 0.35118 0.0
C180 C 0.56464 0.67929 0.44722 0.0
N181 N 0.55562 0.66846 0.51405 0.0
C182 C 0.55547 0.6837 0.46626 0.0
C183 C 0.5692 0.66936 0.46217 0.0
C184 C 0.55104 0.67811 0.5 0.0
C185 C 0.56453 0.66402 0.496 0.0
C186 C 0.53737 0.7014 0.38805 0.0
C187 C 0.51362 0.69039 0.35473 0.0
N188 N 0.50889 0.69886 0.37361 0.0
C189 C 0.53228 0.71 0.40708 0.0
C190 C 0.52798 0.69151 0.36161 0.0
C191 C 0.51785 0.70855 0.39941 0.0
C192 C 0.58044 0.73328 0.44208 0.0
N193 N 0.58117 0.72003 0.44547 0.0
C194 C 0.59486 0.72894 0.49908 0.0
C195 C 0.58837 0.71772 0.47297 0.0
C196 C 0.59421 0.74271 0.49623 0.0
C197 C 0.58701 0.74489 0.46717 0.0
H198 H 0.57476 0.73481 0.41969 0.0
H199 H 0.58913 0.70724 0.47461 0.0
C200 C 0.52884 0.65067 0.38569 0.0
N201 N 0.53155 0.66421 0.40051 0.0
C202 C 0.51509 0.63683 0.39273 0.0
C203 C 0.50721 0.65114 0.43041 0.0
C204 C 0.52115 0.6647 0.42274 0.0
C205 C 0.504 0.63695 0.41523 0.0
H206 H 0.53742 0.65065 0.3684 0.0
H207 H 0.52363 0.67561 0.43438 0.0
C208 C 0.59871 0.72436 0.37769 0.0
N209 N 0.6268 0.74626 0.4062 0.0
C210 C 0.60478 0.74017 0.37052 0.0
C211 C 0.60699 0.71969 0.39915 0.0
C212 C 0.61898 0.75106 0.38524 0.0
C213 C 0.62115 0.73093 0.41336 0.0
C214 C 0.55887 0.68107 0.30557 0.0
C215 C 0.57169 0.69276 0.28783 0.0
C216 C 0.54865 0.66725 0.28846 0.0
C217 C 0.57406 0.69042 0.25317 0.0
C218 C 0.55142 0.66537 0.25377 0.0
N219 N 0.56396 0.67689 0.237 0.0
C220 C 0.58289 0.66813 0.3429 0.0
C221 C 0.60341 0.69394 0.33344 0.0
C222 C 0.59088 0.66217 0.32451 0.0
N223 N 0.58918 0.68374 0.34663 0.0
C224 C 0.61191 0.6885 0.31536 0.0
C225 C 0.60553 0.67242 0.31003 0.0
H226 H 0.57137 0.66034 0.35299 0.0
H227 H 0.60795 0.70632 0.33585 0.0
C228 C 0.56586 0.73209 0.32227 0.0
N229 N 0.55888 0.71649 0.31702 0.0
C230 C 0.5643 0.74159 0.29789 0.0
C231 C 0.54768 0.71868 0.26399 0.0
C232 C 0.54963 0.70962 0.28898 0.0
C233 C 0.55527 0.73491 0.26807 0.0
H234 H 0.57264 0.73712 0.34547 0.0
H235 H 0.54383 0.69713 0.28585 0.0
O236 O 0.56907 0.68447 0.41401 0.0
O237 O 0.55153 0.70283 0.39538 0.0
O238 O 0.5846 0.7135 0.3644 0.0
O239 O 0.55643 0.6829 0.33974 0.0
H240 H 0.55185 0.69141 0.45528 0.0
H241 H 0.57627 0.66581 0.44774 0.0
H242 H 0.54396 0.68145 0.51502 0.0
H243 H 0.56799 0.65633 0.50789 0.0
H244 H 0.50624 0.68278 0.33438 0.0
H245 H 0.53943 0.71772 0.4276 0.0
H246 H 0.53165 0.68472 0.3466 0.0
H247 H 0.51376 0.71514 0.41396 0.0
H248 H 0.6004 0.72693 0.52113 0.0
H249 H 0.58614 0.7553 0.46433 0.0
H250 H 0.51324 0.62613 0.38092 0.0
H251 H 0.49895 0.65183 0.44761 0.0
H252 H 0.59864 0.74402 0.35377 0.0
H253 H 0.60241 0.7075 0.40517 0.0
H254 H 0.62379 0.76334 0.38001 0.0
H255 H 0.62762 0.72748 0.4302 0.0
H256 H 0.57976 0.70352 0.30061 0.0
H257 H 0.5387 0.65807 0.30187 0.0
H258 H 0.58394 0.69936 0.23914 0.0
H259 H 0.5436 0.65473 0.2402 0.0
H260 H 0.58532 0.64972 0.32053 0.0
H261 H 0.62322 0.69685 0.3051 0.0
H262 H 0.57006 0.75403 0.30235 0.0
H263 H 0.54061 0.71308 0.24135 0.0
Li264 Li 0.86425 0.54786 0.55592 0.0
Li265 Li 0.86303 0.57148 0.57506 0.0
Li266 Li 0.85295 0.55952 0.52073 0.0
Li267 Li 0.88032 0.57425 0.52682 0.0
C268 C 0.83006 0.54077 0.56503 0.0
N269 N 0.79803 0.52263 0.5605 0.0
C270 C 0.82079 0.54772 0.56544 0.0
C271 C 0.82303 0.52458 0.56242 0.0
C272 C 0.80463 0.53836 0.56303 0.0
C273 C 0.80682 0.51561 0.56018 0.0
C274 C 0.88818 0.56848 0.60638 0.0
C275 C 0.91036 0.57991 0.64471 0.0
N276 N 0.90192 0.56897 0.66903 0.0
C277 C 0.87971 0.55739 0.63179 0.0
C278 C 0.90362 0.57986 0.61286 0.0
C279 C 0.88687 0.55781 0.66328 0.0
C280 C 0.87402 0.52613 0.54942 0.0
N281 N 0.86459 0.52953 0.56849 0.0
C282 C 0.8559 0.50641 0.60217 0.0
C283 C 0.85564 0.52005 0.59458 0.0
C284 C 0.86539 0.50248 0.58255 0.0
C285 C 0.87458 0.51258 0.55597 0.0
H286 H 0.88102 0.53391 0.52887 0.0
H287 H 0.84819 0.523 0.60928 0.0
C288 C 0.84978 0.58733 0.6055 0.0
N289 N 0.85989 0.5822 0.61257 0.0
C290 C 0.84548 0.59429 0.63128 0.0
C291 C 0.86277 0.59143 0.67084 0.0
C292 C 0.86673 0.58451 0.64423 0.0
C293 C 0.85173 0.59609 0.66472 0.0
H294 H 0.84481 0.58574 0.57988 0.0
H295 H 0.87508 0.58083 0.64925 0.0
C296 C 0.86178 0.54564 0.47621 0.0
N297 N 0.84789 0.53031 0.41538 0.0
C298 C 0.86539 0.55383 0.44494 0.0
C299 C 0.85121 0.52964 0.47657 0.0
C300 C 0.85821 0.54587 0.41445 0.0
C301 C 0.8443 0.5221 0.44552 0.0
C302 C 0.87376 0.59782 0.5357 0.0
C303 C 0.86882 0.60748 0.5208 0.0
C304 C 0.88702 0.60433 0.55673 0.0
C305 C 0.87729 0.62349 0.52703 0.0
C306 C 0.89517 0.62039 0.56231 0.0
N307 N 0.89018 0.62956 0.54747 0.0
C308 C 0.82477 0.5415 0.4796 0.0
C309 C 0.8411 0.56811 0.46561 0.0
C310 C 0.81462 0.53978 0.45264 0.0
N311 N 0.83758 0.55559 0.48594 0.0
C312 C 0.83145 0.56687 0.4381 0.0
C313 C 0.8179 0.5526 0.43142 0.0
H314 H 0.82253 0.5315 0.4949 0.0
H315 H 0.85166 0.57901 0.47019 0.0
C316 C 0.91233 0.58701 0.51272 0.0
N317 N 0.89919 0.58723 0.50379 0.0
C318 C 0.9261 0.59602 0.49433 0.0
C319 C 0.91251 0.60531 0.45814 0.0
C320 C 0.89902 0.59613 0.47722 0.0
C321 C 0.92626 0.60522 0.46642 0.0
H322 H 0.91201 0.57964 0.53373 0.0
H323 H 0.88829 0.59585 0.47044 0.0
O324 O 0.8459 0.54972 0.56786 0.0
O325 O 0.88148 0.56815 0.57516 0.0
O326 O 0.86837 0.55328 0.50644 0.0
O327 O 0.86543 0.58209 0.52995 0.0
H328 H 0.826 0.5602 0.56725 0.0
H329 H 0.82998 0.51898 0.56157 0.0
H330 H 0.79733 0.5436 0.56315 0.0
H331 H 0.80123 0.50308 0.558 0.0
H332 H 0.9223 0.58865 0.65008 0.0
H333 H 0.86764 0.5488 0.62757 0.0
H334 H 0.91032 0.58859 0.59355 0.0
H335 H 0.88043 0.54933 0.68323 0.0
H336 H 0.84853 0.49887 0.62267 0.0
H337 H 0.88219 0.51008 0.54052 0.0
H338 H 0.83686 0.59762 0.62539 0.0
H339 H 0.8681 0.59288 0.69609 0.0
H340 H 0.87352 0.56623 0.4443 0.0
H341 H 0.84823 0.52317 0.50064 0.0
H342 H 0.86079 0.55207 0.39008 0.0
H343 H 0.83603 0.50974 0.44541 0.0
H344 H 0.85851 0.60264 0.50471 0.0
H345 H 0.89102 0.59712 0.56866 0.0
H346 H 0.8736 0.63108 0.51564 0.0
H347 H 0.90546 0.62557 0.57849 0.0
H348 H 0.80434 0.52854 0.44858 0.0
H349 H 0.83482 0.57695 0.42183 0.0
H350 H 0.93648 0.59571 0.50171 0.0
H351 H 0.91203 0.612 0.43647 0.0
Li352 Li 0.2895 0.86431 0.73779 0.0
Li353 Li 0.31405 0.86692 0.71836 0.0
Li354 Li 0.30419 0.88312 0.69453 0.0
Li355 Li 0.29198 0.85557 0.68021 0.0
C356 C 0.31062 0.88643 0.77627 0.0
N357 N 0.30924 0.89281 0.84545 0.0
C358 C 0.31757 0.8817 0.80133 0.0
C359 C 0.30306 0.8945 0.78634 0.0
C360 C 0.31673 0.88502 0.83619 0.0
C361 C 0.30245 0.89758 0.82146 0.0
C362 C 0.28538 0.832 0.72044 0.0
C363 C 0.28167 0.80837 0.6938 0.0
N364 N 0.26697 0.80056 0.70682 0.0
C365 C 0.27023 0.82373 0.73357 0.0
C366 C 0.29117 0.82426 0.70045 0.0
C367 C 0.26111 0.80785 0.72641 0.0
C368 C 0.26279 0.86015 0.77378 0.0
N369 N 0.27584 0.85898 0.77605 0.0
C370 C 0.2677 0.84602 0.83055 0.0
C371 C 0.27861 0.85235 0.80391 0.0
C372 C 0.25377 0.84643 0.82825 0.0
C373 C 0.25155 0.85399 0.79989 0.0
H374 H 0.26074 0.86518 0.75097 0.0
H375 H 0.28898 0.85134 0.80464 0.0
C376 C 0.34599 0.88028 0.73377 0.0
N377 N 0.33227 0.86663 0.73213 0.0
C378 C 0.35976 0.88031 0.74145 0.0
C379 C 0.34489 0.85229 0.747 0.0
C380 C 0.33143 0.8528 0.7391 0.0
C381 C 0.35934 0.86615 0.74783 0.0
H382 H 0.34626 0.89112 0.72839 0.0
H383 H 0.32033 0.84216 0.73827 0.0
C384 C 0.27545 0.87513 0.67693 0.0
N385 N 0.26405 0.89166 0.64198 0.0
C386 C 0.2707 0.87159 0.64241 0.0
C387 C 0.2743 0.88701 0.69376 0.0
C388 C 0.26498 0.8801 0.62518 0.0
C389 C 0.26855 0.89526 0.67561 0.0
C390 C 0.3277 0.87624 0.65778 0.0
C391 C 0.33896 0.89195 0.65433 0.0
C392 C 0.33167 0.8648 0.651 0.0
C393 C 0.35406 0.89597 0.64428 0.0
C394 C 0.3469 0.8693 0.64112 0.0
N395 N 0.35768 0.88466 0.63799 0.0
C396 C 0.31643 0.9159 0.69473 0.0
C397 C 0.30777 0.90313 0.6405 0.0
C398 C 0.32113 0.93031 0.6792 0.0
N399 N 0.30992 0.90274 0.67518 0.0
C400 C 0.31204 0.9172 0.62407 0.0
C401 C 0.31892 0.93101 0.64344 0.0
H402 H 0.31818 0.91523 0.7222 0.0
H403 H 0.30291 0.89249 0.62557 0.0
C404 C 0.26568 0.83124 0.64772 0.0
N405 N 0.28134 0.84072 0.64489 0.0
C406 C 0.25743 0.82041 0.62179 0.0
C407 C 0.28156 0.82943 0.59041 0.0
C408 C 0.28934 0.84005 0.617 0.0
C409 C 0.26537 0.81948 0.59256 0.0
H410 H 0.2596 0.83225 0.66996 0.0
H411 H 0.30175 0.84788 0.61522 0.0
O412 O 0.3111 0.88306 0.74209 0.0
O413 O 0.2944 0.84763 0.72661 0.0
O414 O 0.28132 0.86711 0.69409 0.0
O415 O 0.31293 0.87206 0.66822 0.0
H416 H 0.32343 0.87539 0.79399 0.0
H417 H 0.2976 0.89821 0.76726 0.0
H418 H 0.322 0.88137 0.85589 0.0
H419 H 0.29656 0.90373 0.82966 0.0
H420 H 0.28597 0.80227 0.67817 0.0
H421 H 0.26546 0.82952 0.74878 0.0
H422 H 0.30279 0.8305 0.68966 0.0
H423 H 0.24935 0.80132 0.73631 0.0
H424 H 0.2699 0.8404 0.85214 0.0
H425 H 0.24088 0.85436 0.79694 0.0
H426 H 0.37064 0.89126 0.74156 0.0
H427 H 0.34398 0.84115 0.75248 0.0
H428 H 0.27157 0.8625 0.62891 0.0
H429 H 0.27802 0.88996 0.72039 0.0
H430 H 0.26134 0.87754 0.59841 0.0
H431 H 0.26771 0.90455 0.68823 0.0
H432 H 0.33615 0.90097 0.65965 0.0
H433 H 0.32316 0.85259 0.65392 0.0
H434 H 0.3629 0.90809 0.64164 0.0
H435 H 0.35017 0.86058 0.63608 0.0
H436 H 0.32647 0.94078 0.69486 0.0
H437 H 0.31044 0.91734 0.59632 0.0
H438 H 0.24492 0.81314 0.62419 0.0
H439 H 0.28813 0.82902 0.56843 0.0
Li440 Li 0.4442 0.31638 0.88326 0.0
Li441 Li 0.42322 0.29132 0.90528 0.0
Li442 Li 0.43354 0.29336 0.84858 0.0
Li443 Li 0.41793 0.30466 0.85993 0.0
C444 C 0.45612 0.29381 0.88395 0.0
N445 N 0.47837 0.28653 0.86294 0.0
C446 C 0.4546 0.27944 0.8927 0.0
C447 C 0.46898 0.3045 0.86464 0.0
C448 C 0.46597 0.27597 0.88179 0.0
C449 C 0.4801 0.30061 0.85424 0.0
C450 C 0.42842 0.31854 0.94048 0.0
C451 C 0.42628 0.33393 0.98627 0.0
N452 N 0.4363 0.33154 0.0059 0.0
C453 C 0.4387 0.31626 0.9611 0.0
C454 C 0.42217 0.32746 0.95311 0.0
C455 C 0.44253 0.32292 0.9941 0.0
C456 C 0.46465 0.34857 0.87856 0.0
N457 N 0.46234 0.33534 0.8944 0.0
C458 C 0.48649 0.34935 0.92463 0.0
C459 C 0.47287 0.33546 0.91713 0.0
C460 C 0.48931 0.3632 0.90837 0.0
C461 C 0.47816 0.36271 0.88514 0.0
H462 H 0.45602 0.34807 0.86062 0.0
H463 H 0.47077 0.32472 0.92912 0.0
C464 C 0.41331 0.26314 0.93598 0.0
N465 N 0.41458 0.27716 0.9428 0.0
C466 C 0.40732 0.25139 0.96083 0.0
C467 C 0.40359 0.26856 -0.00087 0.0
C468 C 0.40948 0.27994 0.97324 0.0
C469 C 0.40261 0.25413 0.99308 0.0
H470 H 0.41703 0.26113 0.91112 0.0
H471 H 0.40996 0.29093 0.97758 0.0
C472 C 0.43512 0.31488 0.79975 0.0
N473 N 0.42912 0.31642 0.73034 0.0
C474 C 0.42319 0.30187 0.78299 0.0
C475 C 0.44399 0.32866 0.78119 0.0
C476 C 0.42034 0.30289 0.74791 0.0
C477 C 0.44078 0.32921 0.74611 0.0
C478 C 0.39602 0.27355 0.87042 0.0
C479 C 0.38689 0.25885 0.85562 0.0
C480 C 0.3893 0.2792 0.89399 0.0
C481 C 0.37117 0.25004 0.86455 0.0
C482 C 0.37354 0.27003 0.90226 0.0
N483 N 0.36487 0.25577 0.88749 0.0
C484 C 0.42985 0.26654 0.81651 0.0
C485 C 0.44932 0.2899 0.79053 0.0
C486 C 0.43197 0.25767 0.7914 0.0
N487 N 0.43831 0.28232 0.81528 0.0
C488 C 0.4518 0.28148 0.76482 0.0
C489 C 0.44287 0.26515 0.76473 0.0
H490 H 0.4213 0.26088 0.83678 0.0
H491 H 0.45593 0.30248 0.79034 0.0
C492 C 0.40757 0.32497 0.83984 0.0
N493 N 0.4037 0.30976 0.83917 0.0
C494 C 0.399 0.33002 0.82059 0.0
C495 C 0.38225 0.30351 0.80153 0.0
C496 C 0.39128 0.29904 0.82068 0.0
C497 C 0.38628 0.31925 0.80058 0.0
H498 H 0.41774 0.33329 0.85414 0.0
H499 H 0.3887 0.28712 0.81947 0.0
O500 O 0.44493 0.29728 0.89361 0.0
O501 O 0.42464 0.31239 0.90782 0.0
O502 O 0.43803 0.31432 0.83425 0.0
O503 O 0.41149 0.28214 0.86218 0.0
H504 H 0.44476 0.27103 0.90767 0.0
H505 H 0.47023 0.31559 0.8572 0.0
H506 H 0.46492 0.26487 0.88828 0.0
H507 H 0.49005 0.30873 0.83909 0.0
H508 H 0.42153 0.34085 0.99637 0.0
H509 H 0.44357 0.3093 0.95195 0.0
H510 H 0.41424 0.32939 0.93738 0.0
H511 H 0.45045 0.32121 0.01036 0.0
H512 H 0.49488 0.34918 0.94235 0.0
H513 H 0.47983 0.37316 0.87235 0.0
H514 H 0.40684 0.24046 0.95526 0.0
H515 H 0.39988 0.271 0.0236 0.0
H516 H 0.41616 0.29111 0.79688 0.0
H517 H 0.45323 0.33885 0.79381 0.0
H518 H 0.41114 0.29292 0.73465 0.0
H519 H 0.44755 0.33981 0.73144 0.0
H520 H 0.39193 0.25429 0.83742 0.0
H521 H 0.39614 0.29051 0.90583 0.0
H522 H 0.36397 0.23864 0.85327 0.0
H523 H 0.3682 0.27425 0.92045 0.0
H524 H 0.42504 0.24509 0.79264 0.0
H525 H 0.46024 0.28772 0.7446 0.0
H526 H 0.40273 0.34231 0.82022 0.0
H527 H 0.37245 0.29476 0.78694 0.0
Li528 Li 0.57578 0.886 0.86344 0.0
Li529 Li 0.56134 0.8588 0.88581 0.0
Li530 Li 0.56978 0.86395 0.82607 0.0
Li531 Li 0.54833 0.86682 0.84521 0.0
C532 C 0.59457 0.8678 0.86137 0.0
N533 N 0.61735 0.86071 0.844 0.0
C534 C 0.59434 0.85475 0.87576 0.0
C535 C 0.60645 0.87731 0.83837 0.0
C536 C 0.60596 0.85136 0.86662 0.0
C537 C 0.61783 0.8735 0.82983 0.0
C538 C 0.55278 0.87434 0.92626 0.0
C539 C 0.53552 0.86061 0.97382 0.0
N540 N 0.54623 0.87096 0.9964 0.0
C541 C 0.5636 0.88486 0.94993 0.0
C542 C 0.53861 0.86214 0.93827 0.0
C543 C 0.56007 0.88295 0.98528 0.0
C544 C 0.58305 0.91575 0.88403 0.0
N545 N 0.58941 0.90672 0.87688 0.0
C546 C 0.61422 0.92636 0.8975 0.0
C547 C 0.6047 0.91174 0.88282 0.0
C548 C 0.60783 0.93571 0.90686 0.0
C549 C 0.59206 0.93033 0.89926 0.0
H550 H 0.57076 0.91127 0.8795 0.0
H551 H 0.60938 0.90421 0.87723 0.0
C552 C 0.54804 0.83119 0.9259 0.0
N553 N 0.55913 0.84649 0.92522 0.0
C554 C 0.5465 0.82211 0.95491 0.0
C555 C 0.56785 0.84475 0.98182 0.0
C556 C 0.56905 0.85333 0.9522 0.0
C557 C 0.55649 0.82888 0.98343 0.0
H558 H 0.5405 0.82599 0.90379 0.0
H559 H 0.57791 0.86549 0.95065 0.0
C560 C 0.57335 0.88923 0.78631 0.0
N561 N 0.58745 0.90466 0.72561 0.0
C562 C 0.56484 0.88547 0.75546 0.0
C563 C 0.58901 0.90092 0.78634 0.0
C564 C 0.57218 0.89338 0.72503 0.0
C565 C 0.59593 0.90856 0.75537 0.0
C566 C 0.53583 0.83727 0.82933 0.0
C567 C 0.53526 0.83368 0.79413 0.0
C568 C 0.52211 0.83052 0.84884 0.0
C569 C 0.52093 0.82341 0.77898 0.0
C570 C 0.50801 0.82034 0.83271 0.0
N571 N 0.50771 0.81702 0.79841 0.0
C572 C 0.57561 0.84176 0.80028 0.0
C573 C 0.58471 0.86292 0.76111 0.0
C574 C 0.58114 0.83426 0.77902 0.0
N575 N 0.57752 0.85585 0.79124 0.0
C576 C 0.59011 0.85564 0.73856 0.0
C577 C 0.58838 0.84108 0.7474 0.0
H578 H 0.56994 0.83645 0.8245 0.0
H579 H 0.58634 0.87416 0.75439 0.0
C580 C 0.52166 0.8691 0.85819 0.0
N581 N 0.52899 0.86537 0.83342 0.0
C582 C 0.50752 0.86833 0.85099 0.0
C583 C 0.50881 0.86017 0.79264 0.0
C584 C 0.52293 0.86106 0.80103 0.0
C585 C 0.50091 0.86382 0.81784 0.0
H586 H 0.52688 0.87284 0.88347 0.0
H587 H 0.52903 0.85826 0.78171 0.0
O588 O 0.58309 0.8711 0.86939 0.0
O589 O 0.55615 0.87582 0.89159 0.0
O590 O 0.56628 0.88178 0.81643 0.0
O591 O 0.54973 0.84741 0.8446 0.0
H592 H 0.5852 0.84721 0.89347 0.0
H593 H 0.60674 0.88738 0.82677 0.0
H594 H 0.60588 0.84125 0.8774 0.0
H595 H 0.62701 0.88068 0.81182 0.0
H596 H 0.52464 0.85116 0.98348 0.0
H597 H 0.5747 0.89428 0.94121 0.0
H598 H 0.53015 0.85382 0.92035 0.0
H599 H 0.56836 0.89096 0.0039 0.0
H600 H 0.62635 0.9301 0.90229 0.0
H601 H 0.5865 0.93693 0.90654 0.0
H602 H 0.53778 0.80987 0.95469 0.0
H603 H 0.57568 0.85052 0.00329 0.0
H604 H 0.55271 0.87651 0.75495 0.0
H605 H 0.59577 0.90403 0.80992 0.0
H606 H 0.56575 0.89055 0.70094 0.0
H607 H 0.60805 0.91758 0.755 0.0
H608 H 0.54573 0.83888 0.77854 0.0
H609 H 0.52233 0.83324 0.87605 0.0
H610 H 0.5203 0.82057 0.75174 0.0
H611 H 0.49729 0.8151 0.84744 0.0
H612 H 0.57984 0.82328 0.78757 0.0
H613 H 0.59541 0.8613 0.71431 0.0
H614 H 0.50197 0.87153 0.87097 0.0
H615 H 0.50407 0.85655 0.76683 0.0
Li616 Li 0.70117 0.56041 0.04922 0.0
Li617 Li 0.6888 0.57516 0.02986 0.0
Li618 Li 0.67999 0.54926 0.00798 0.0
Li619 Li 0.70466 0.57013 0.99156 0.0
C620 C 0.67669 0.55788 0.08993 0.0
N621 N 0.67122 0.56345 0.15722 0.0
C622 C 0.68825 0.5705 0.10842 0.0
C623 C 0.66235 0.54809 0.10569 0.0
C624 C 0.68526 0.57312 0.1424 0.0
C625 C 0.65982 0.5511 0.13973 0.0
C626 C 0.72221 0.59687 0.02333 0.0
C627 C 0.72966 0.61914 0.98636 0.0
N628 N 0.74461 0.62537 0.9975 0.0
C629 C 0.73764 0.60354 0.03453 0.0
C630 C 0.71816 0.60476 -0.00086 0.0
C631 C 0.74879 0.61795 0.02112 0.0
C632 C 0.72699 0.56419 0.08537 0.0
N633 N 0.71119 0.5564 0.08636 0.0
C634 C 0.7112 0.54427 0.13988 0.0
C635 C 0.70318 0.54637 0.11256 0.0
C636 C 0.72754 0.55268 0.14016 0.0
C637 C 0.73546 0.56263 0.11232 0.0
H638 H 0.73298 0.57167 0.06364 0.0
H639 H 0.6906 0.54011 0.11244 0.0
C640 C 0.66595 0.58223 0.04754 0.0
N641 N 0.68164 0.58842 0.04629 0.0
C642 C 0.65956 0.59001 0.06512 0.0
C643 C 0.68564 0.61073 0.07825 0.0
C644 C 0.69152 0.60243 0.06092 0.0
C645 C 0.66947 0.60432 0.08119 0.0
H646 H 0.65841 0.57089 0.03633 0.0
H647 H 0.70392 0.60681 0.06072 0.0
C648 C 0.69764 0.53471 0.01437 0.0
N649 N 0.69318 0.50564 0.03093 0.0
C650 C 0.70659 0.52921 -0.00168 0.0
C651 C 0.68642 0.52542 0.03888 0.0
C652 C 0.70416 0.51448 0.00702 0.0
C653 C 0.68434 0.51076 0.04688 0.0
C654 C 0.68007 0.56398 0.94708 0.0
C655 C 0.68463 0.55442 0.9302 0.0
C656 C 0.67127 0.56918 0.92923 0.0
C657 C 0.6803 0.55023 0.8957 0.0
C658 C 0.66717 0.56473 0.89473 0.0
N659 N 0.67173 0.55543 0.87882 0.0
C660 C 0.64812 0.52856 0.00799 0.0
C661 C 0.66209 0.52034 0.97219 0.0
C662 C 0.63411 0.51522 -0.00022 0.0
N663 N 0.66171 0.53081 0.99432 0.0
C664 C 0.64833 0.50684 0.96317 0.0
C665 C 0.63408 0.50412 0.9771 0.0
H666 H 0.64822 0.53714 0.02545 0.0
H667 H 0.67307 0.52244 0.96158 0.0
C668 C 0.73313 0.57722 0.9671 0.0
N669 N 0.72062 0.57847 0.95763 0.0
C670 C 0.7461 0.58289 0.94563 0.0
C671 C 0.7331 0.59108 0.90476 0.0
C672 C 0.72042 0.58544 0.92743 0.0
C673 C 0.74613 0.58969 0.91365 0.0
H674 H 0.73302 0.57187 0.99162 0.0
H675 H 0.71043 0.58658 0.92086 0.0
O676 O 0.67916 0.5552 0.05635 0.0
O677 O 0.71114 0.58255 0.03526 0.0
O678 O 0.70001 0.54914 0.00599 0.0
O679 O 0.68402 0.56819 0.98096 0.0
H680 H 0.69942 0.57824 0.09674 0.0
H681 H 0.65327 0.53829 0.09172 0.0
H682 H 0.69409 0.58285 0.15698 0.0
H683 H 0.64877 0.54362 0.15224 0.0
H684 H 0.7267 0.62531 0.96749 0.0
H685 H 0.741 0.5977 0.05338 0.0
H686 H 0.70629 0.59974 0.99003 0.0
H687 H 0.76079 0.62322 0.0295 0.0
H688 H 0.70473 0.5365 0.16097 0.0
H689 H 0.74806 0.5691 0.11141 0.0
H690 H 0.64703 0.58473 0.06695 0.0
H691 H 0.69361 0.62161 0.09087 0.0
H692 H 0.71533 0.53627 0.97931 0.0
H693 H 0.67934 0.52941 0.05156 0.0
H694 H 0.711 0.51008 0.99479 0.0
H695 H 0.67569 0.50346 0.06577 0.0
H696 H 0.6915 0.55032 0.94344 0.0
H697 H 0.66762 0.57656 0.94196 0.0
H698 H 0.68376 0.54285 0.88233 0.0
H699 H 0.66035 0.56867 0.88061 0.0
H700 H 0.62345 0.51352 0.01152 0.0
H701 H 0.64884 0.4987 0.94525 0.0
H702 H 0.756 0.58195 0.95414 0.0
H703 H 0.73257 0.59616 0.88033 0.0
Li704 Li 0.1375 0.70148 0.21692 0.0
Li705 Li 0.10939 0.69138 0.20048 0.0
Li706 Li 0.12516 0.67973 0.17533 0.0
Li707 Li 0.13028 0.70527 0.16128 0.0
C708 C 0.11639 0.67366 0.25632 0.0
N709 N 0.11043 0.65999 0.32122 0.0
C710 C 0.10843 0.67727 0.28118 0.0
C711 C 0.12111 0.66289 0.26439 0.0
C712 C 0.10559 0.67031 0.31386 0.0
C713 C 0.11805 0.65616 0.29736 0.0
C714 C 0.13123 0.72796 0.19803 0.0
C715 C 0.12561 0.74769 0.17827 0.0
N716 N 0.14104 0.75842 0.17978 0.0
C717 C 0.14703 0.73919 0.19963 0.0
C718 C 0.12041 0.73223 0.18743 0.0
C719 C 0.15176 0.75452 0.19019 0.0
C720 C 0.16747 0.71833 0.24868 0.0
N721 N 0.15183 0.71078 0.25433 0.0
C722 C 0.15584 0.71785 0.31421 0.0
C723 C 0.14593 0.71067 0.28617 0.0
C724 C 0.17203 0.72549 0.30932 0.0
C725 C 0.17782 0.72568 0.27599 0.0
H726 H 0.17195 0.71891 0.22288 0.0
H727 H 0.13352 0.7054 0.28965 0.0
C728 C 0.07747 0.67209 0.21191 0.0
N729 N 0.08972 0.68659 0.21745 0.0
C730 C 0.06316 0.66755 0.22763 0.0
C731 C 0.07431 0.69313 0.25355 0.0
C732 C 0.08839 0.69718 0.2373 0.0
C733 C 0.06155 0.67805 0.24932 0.0
H734 H 0.07901 0.6639 0.19627 0.0
H735 H 0.09844 0.70855 0.24161 0.0
C736 C 0.15717 0.695 0.17636 0.0
N737 N 0.17957 0.68646 0.18492 0.0
C738 C 0.16903 0.69941 0.15187 0.0
C739 C 0.15668 0.6862 0.2051 0.0
C740 C 0.18026 0.69499 0.15667 0.0
C741 C 0.16811 0.68202 0.20903 0.0
C742 C 0.10763 0.68598 0.11813 0.0
C743 C 0.11768 0.68589 0.09288 0.0
C744 C 0.09453 0.68683 0.10821 0.0
C745 C 0.11456 0.68687 0.05795 0.0
C746 C 0.09179 0.68777 0.073 0.0
N747 N 0.10179 0.68779 0.04882 0.0
C748 C 0.11316 0.64749 0.17782 0.0
C749 C 0.13326 0.66053 0.13639 0.0
C750 C 0.11237 0.63335 0.17032 0.0
N751 N 0.12368 0.66072 0.16134 0.0
C752 C 0.1328 0.64662 0.12789 0.0
C753 C 0.1224 0.63284 0.14531 0.0
H754 H 0.10553 0.64798 0.1972 0.0
H755 H 0.14143 0.6712 0.12348 0.0
C756 C 0.15272 0.72811 0.11896 0.0
N757 N 0.13719 0.72056 0.12545 0.0
C758 C 0.15921 0.7403 0.0952 0.0
C759 C 0.13357 0.73672 0.08489 0.0
C760 C 0.12757 0.72462 0.1091 0.0
C761 C 0.14962 0.7448 0.07796 0.0
H762 H 0.16014 0.72488 0.13286 0.0
H763 H 0.11534 0.71878 0.11552 0.0
O764 O 0.11901 0.68017 0.2239 0.0
O765 O 0.12644 0.71282 0.20631 0.0
O766 O 0.14589 0.69894 0.17146 0.0
O767 O 0.11054 0.68513 0.15243 0.0
H768 H 0.10468 0.68556 0.27556 0.0
H769 H 0.12701 0.65965 0.24541 0.0
H770 H 0.09955 0.67312 0.33338 0.0
H771 H 0.12169 0.64786 0.30393 0.0
H772 H 0.11738 0.75115 0.16977 0.0
H773 H 0.15556 0.73604 0.2076 0.0
H774 H 0.10815 0.72364 0.18575 0.0
H775 H 0.16396 0.76331 0.19103 0.0
H776 H 0.15086 0.71783 0.33922 0.0
H777 H 0.19023 0.73149 0.27103 0.0
H778 H 0.05369 0.65574 0.22408 0.0
H779 H 0.07351 0.7016 0.26985 0.0
H780 H 0.1695 0.70607 0.12921 0.0
H781 H 0.14769 0.68282 0.22437 0.0
H782 H 0.18949 0.69831 0.13789 0.0
H783 H 0.16788 0.67526 0.23126 0.0
H784 H 0.1279 0.68527 0.10023 0.0
H785 H 0.08662 0.68687 0.12753 0.0
H786 H 0.1223 0.68693 0.0381 0.0
H787 H 0.08174 0.68852 0.06489 0.0
H788 H 0.10402 0.62294 0.18394 0.0
H789 H 0.14079 0.64673 0.10858 0.0
H790 H 0.17162 0.7461 0.09029 0.0
H791 H 0.12583 0.73996 0.07238 0.0
Li792 Li 0.43385 0.14102 0.38276 0.0
Li793 Li 0.4182 0.11406 0.37272 0.0
Li794 Li 0.44432 0.12846 0.34837 0.0
Li795 Li 0.42308 0.13232 0.32675 0.0
C796 C 0.43588 0.1216 0.43228 0.0
N797 N 0.43072 0.11509 0.50227 0.0
C798 C 0.42399 0.12268 0.44921 0.0
C799 C 0.44514 0.1172 0.45096 0.0
C800 C 0.42156 0.11934 0.48459 0.0
C801 C 0.44235 0.11396 0.48633 0.0
C802 C 0.39608 0.12286 0.36263 0.0
C803 C 0.37352 0.10352 0.33168 0.0
N804 N 0.36472 0.10883 0.34706 0.0
C805 C 0.38682 0.12814 0.37807 0.0
C806 C 0.38938 0.11045 0.33919 0.0
C807 C 0.37099 0.12089 0.36989 0.0
C808 C 0.42972 0.1635 0.41717 0.0
N809 N 0.43885 0.1569 0.41603 0.0
C810 C 0.45306 0.17128 0.46581 0.0
C811 C 0.45055 0.16075 0.4392 0.0
C812 C 0.44338 0.1778 0.46853 0.0
C813 C 0.43179 0.17405 0.44336 0.0
H814 H 0.42058 0.16026 0.39819 0.0
H815 H 0.45762 0.15528 0.43762 0.0
C816 C 0.40759 0.0832 0.39095 0.0
N817 N 0.40409 0.09476 0.39354 0.0
C818 C 0.39883 0.06928 0.40902 0.0
C819 C 0.38272 0.07928 0.43113 0.0
C820 C 0.39192 0.09307 0.41304 0.0
C821 C 0.38629 0.06725 0.42983 0.0
H822 H 0.41755 0.08503 0.37578 0.0
H823 H 0.38961 0.10256 0.41555 0.0
C824 C 0.45583 0.16304 0.3463 0.0
N825 N 0.47756 0.19295 0.36609 0.0
C826 C 0.45344 0.17546 0.3386 0.0
C827 C 0.46931 0.16584 0.36393 0.0
C828 C 0.46455 0.19049 0.34887 0.0
C829 C 0.48015 0.18104 0.37372 0.0
C830 C 0.42802 0.1098 0.29235 0.0
C831 C 0.43836 0.12198 0.27092 0.0
C832 C 0.42143 0.09444 0.28079 0.0
C833 C 0.44188 0.11857 0.23817 0.0
C834 C 0.42523 0.0915 0.24784 0.0
N835 N 0.4353 0.10353 0.2274 0.0
C836 C 0.46427 0.11618 0.35276 0.0
C837 C 0.47277 0.13739 0.31374 0.0
C838 C 0.47746 0.11502 0.34568 0.0
N839 N 0.46224 0.12727 0.3369 0.0
C840 C 0.48607 0.13659 0.30574 0.0
C841 C 0.48857 0.12533 0.32191 0.0
H842 H 0.45564 0.10828 0.371 0.0
H843 H 0.47089 0.14616 0.3017 0.0
C844 C 0.41224 0.14983 0.29578 0.0
N845 N 0.41407 0.13739 0.28912 0.0
C846 C 0.40614 0.15533 0.27063 0.0
C847 C 0.40335 0.13477 0.2324 0.0
C848 C 0.40933 0.12951 0.25859 0.0
C849 C 0.40189 0.14796 0.23823 0.0
H850 H 0.41566 0.15554 0.32072 0.0
H851 H 0.4102 0.11922 0.25435 0.0
O852 O 0.43849 0.1247 0.39759 0.0
O853 O 0.41163 0.13003 0.3703 0.0
O854 O 0.44493 0.14818 0.3372 0.0
O855 O 0.42461 0.11275 0.32484 0.0
H856 H 0.41669 0.12606 0.43526 0.0
H857 H 0.45439 0.11631 0.43823 0.0
H858 H 0.4124 0.12012 0.49799 0.0
H859 H 0.44943 0.11055 0.5011 0.0
H860 H 0.36819 0.09391 0.31361 0.0
H861 H 0.39182 0.13775 0.39623 0.0
H862 H 0.3963 0.10617 0.32689 0.0
H863 H 0.36369 0.12486 0.38168 0.0
H864 H 0.46203 0.17375 0.48485 0.0
H865 H 0.42423 0.179 0.44427 0.0
H866 H 0.40223 0.06049 0.40771 0.0
H867 H 0.37308 0.0782 0.44645 0.0
H868 H 0.44311 0.17352 0.32492 0.0
H869 H 0.47125 0.15634 0.37052 0.0
H870 H 0.46282 0.2002 0.34318 0.0
H871 H 0.49058 0.18336 0.38757 0.0
H872 H 0.4435 0.13394 0.27929 0.0
H873 H 0.41347 0.08488 0.29717 0.0
H874 H 0.44983 0.12788 0.22129 0.0
H875 H 0.4202 0.07967 0.23855 0.0
H876 H 0.47887 0.10607 0.35843 0.0
H877 H 0.49445 0.14488 0.2876 0.0
H878 H 0.40527 0.16559 0.27606 0.0
H879 H 0.4 0.12868 0.20783 0.0
Li880 Li 0.29407 0.43552 0.55237 0.0
Li881 Li 0.30568 0.42013 0.52876 0.0
Li882 Li 0.31504 0.44803 0.51146 0.0
Li883 Li 0.29028 0.42745 0.49263 0.0
C884 C 0.31781 0.44247 0.59229 0.0
N885 N 0.32076 0.44796 0.66286 0.0
C886 C 0.31617 0.43082 0.61519 0.0
C887 C 0.32101 0.45694 0.60527 0.0
C888 C 0.3177 0.43383 0.65079 0.0
C889 C 0.32243 0.45947 0.64103 0.0
C890 C 0.269 0.40272 0.52625 0.0
C891 C 0.2515 0.37974 0.49385 0.0
N892 N 0.23921 0.38076 0.50633 0.0
C893 C 0.25621 0.40352 0.53886 0.0
C894 C 0.26665 0.39071 0.50366 0.0
C895 C 0.24123 0.39231 0.52846 0.0
C896 C 0.28235 0.45028 0.59639 0.0
N897 N 0.28451 0.43787 0.59261 0.0
C898 C 0.27279 0.42773 0.64761 0.0
C899 C 0.27983 0.42664 0.6173 0.0
C900 C 0.27043 0.44045 0.65239 0.0
C901 C 0.27534 0.45184 0.62632 0.0
H902 H 0.28597 0.4589 0.57609 0.0
H903 H 0.28162 0.41685 0.61338 0.0
C904 C 0.32742 0.41155 0.54735 0.0
N905 N 0.312 0.4058 0.54138 0.0
C906 C 0.33258 0.40216 0.56244 0.0
C907 C 0.30597 0.38087 0.56308 0.0
C908 C 0.30131 0.39075 0.54842 0.0
C909 C 0.32175 0.38667 0.57124 0.0
H910 H 0.33558 0.42368 0.54206 0.0
H911 H 0.28909 0.38658 0.54399 0.0
C912 C 0.29916 0.46194 0.49738 0.0
N913 N 0.30831 0.49069 0.46815 0.0
C914 C 0.29597 0.46305 0.46252 0.0
C915 C 0.30699 0.47546 0.51737 0.0
C916 C 0.30067 0.47769 0.44824 0.0
C917 C 0.31154 0.48989 0.5021 0.0
C918 C 0.31066 0.42377 0.45021 0.0
C919 C 0.31246 0.43251 0.42036 0.0
C920 C 0.30873 0.40886 0.44726 0.0
C921 C 0.31219 0.42611 0.38792 0.0
C922 C 0.30854 0.40288 0.41435 0.0
N923 N 0.31025 0.41155 0.38562 0.0
C924 C 0.34493 0.47332 0.52449 0.0
C925 C 0.33529 0.47382 0.46861 0.0
C926 C 0.35865 0.48725 0.51789 0.0
N927 N 0.33352 0.46699 0.50013 0.0
C928 C 0.34879 0.48782 0.46095 0.0
C929 C 0.36069 0.49474 0.48582 0.0
H930 H 0.34344 0.46749 0.54902 0.0
H931 H 0.32616 0.4685 0.44949 0.0
C932 C 0.26325 0.42418 0.46567 0.0
N933 N 0.27421 0.42023 0.4582 0.0
C934 C 0.25014 0.41909 0.44479 0.0
C935 C 0.25981 0.406 0.40831 0.0
C936 C 0.27261 0.41109 0.43042 0.0
C937 C 0.24833 0.40999 0.41535 0.0
H938 H 0.26456 0.43108 0.48847 0.0
H939 H 0.281 0.40745 0.4256 0.0
O940 O 0.31595 0.43963 0.55741 0.0
O941 O 0.28377 0.41383 0.53539 0.0
O942 O 0.29472 0.44772 0.51182 0.0
O943 O 0.31119 0.42992 0.4822 0.0
H944 H 0.31353 0.4195 0.60569 0.0
H945 H 0.32219 0.46604 0.58793 0.0
H946 H 0.31639 0.42489 0.66882 0.0
H947 H 0.3248 0.47058 0.65144 0.0
H948 H 0.24951 0.37047 0.47614 0.0
H949 H 0.25784 0.4128 0.55616 0.0
H950 H 0.27645 0.39007 0.49323 0.0
H951 H 0.23122 0.39283 0.53786 0.0
H952 H 0.26934 0.41877 0.66719 0.0
H953 H 0.27351 0.46169 0.62871 0.0
H954 H 0.3448 0.40726 0.56877 0.0
H955 H 0.29724 0.36896 0.56889 0.0
H956 H 0.29011 0.45276 0.44649 0.0
H957 H 0.30972 0.47485 0.54426 0.0
H958 H 0.29833 0.47872 0.42128 0.0
H959 H 0.31768 0.50045 0.51721 0.0
H960 H 0.31389 0.44402 0.42217 0.0
H961 H 0.30737 0.40196 0.4701 0.0
H962 H 0.31349 0.4327 0.36458 0.0
H963 H 0.30702 0.39134 0.41165 0.0
H964 H 0.36764 0.49196 0.53755 0.0
H965 H 0.34979 0.49323 0.43598 0.0
H966 H 0.24144 0.42211 0.45207 0.0
H967 H 0.25902 0.39907 0.3859 0.0
Li968 Li 0.88298 0.30415 0.70215 0.0
Li969 Li 0.85493 0.29276 0.7189 0.0
Li970 Li 0.86227 0.2892 0.66197 0.0
Li971 Li 0.86671 0.3144 0.67765 0.0
C972 C 0.86383 0.26773 0.69905 0.0
N973 N 0.85764 0.23827 0.68063 0.0
C974 C 0.84949 0.25475 0.7074 0.0
C975 C 0.87508 0.26575 0.68166 0.0
C976 C 0.84658 0.23994 0.69779 0.0
C977 C 0.87171 0.25076 0.67247 0.0
C978 C 0.87451 0.32021 0.75897 0.0
C979 C 0.87122 0.33637 0.80099 0.0
N980 N 0.87856 0.33234 0.82516 0.0
C981 C 0.88218 0.31639 0.78415 0.0
C982 C 0.86912 0.33042 0.76736 0.0
C983 C 0.88404 0.32257 0.81749 0.0
C984 C 0.91481 0.32406 0.71563 0.0
N985 N 0.9027 0.30935 0.7197 0.0
C986 C 0.91788 0.30266 0.75623 0.0
C987 C 0.90401 0.29859 0.73895 0.0
C988 C 0.93046 0.31792 0.75353 0.0
C989 C 0.92895 0.32861 0.73231 0.0
H990 H 0.91329 0.33238 0.70044 0.0
H991 H 0.89409 0.28703 0.74202 0.0
C992 C 0.82532 0.27653 0.75397 0.0
N993 N 0.84102 0.28285 0.75668 0.0
C994 C 0.81568 0.26876 0.78214 0.0
C995 C 0.83846 0.27362 0.81485 0.0
C996 C 0.84763 0.2813 0.78614 0.0
C997 C 0.82225 0.2672 0.81306 0.0
H998 H 0.82016 0.27712 0.72982 0.0
H999 H 0.86001 0.28571 0.78707 0.0
C1000 C 0.88268 0.31408 0.61917 0.0
N1001 N 0.885 0.32364 0.55107 0.0
C1002 C 0.86924 0.30997 0.59986 0.0
C1003 C 0.8973 0.32304 0.60384 0.0
C1004 C 0.87066 0.31492 0.56548 0.0
C1005 C 0.89823 0.32776 0.56937 0.0
C1006 C 0.8342 0.29756 0.67644 0.0
C1007 C 0.8222 0.29129 0.65198 0.0
C1008 C 0.83393 0.30702 0.70292 0.0
C1009 C 0.81007 0.29456 0.65455 0.0
C1010 C 0.82161 0.31003 0.70463 0.0
N1011 N 0.81003 0.30379 0.6806 0.0
C1012 C 0.84058 0.26228 0.62897 0.0
C1013 C 0.86527 0.27403 0.60139 0.0
C1014 C 0.83465 0.25 0.60546 0.0
N1015 N 0.85564 0.27389 0.62666 0.0
C1016 C 0.85969 0.26212 0.57671 0.0
C1017 C 0.84424 0.24989 0.57891 0.0
H1018 H 0.83325 0.26251 0.64947 0.0
H1019 H 0.87727 0.28332 0.60048 0.0
C1020 C 0.87803 0.34643 0.67986 0.0
N1021 N 0.8674 0.33311 0.66387 0.0
C1022 C 0.87857 0.36048 0.67264 0.0
C1023 C 0.85754 0.34692 0.6317 0.0
C1024 C 0.85736 0.33312 0.63985 0.0
C1025 C 0.86812 0.36081 0.64851 0.0
H1026 H 0.88596 0.34609 0.6986 0.0
H1027 H 0.84906 0.32238 0.62736 0.0
O1028 O 0.86674 0.28234 0.70739 0.0
O1029 O 0.87277 0.31445 0.72598 0.0
O1030 O 0.88167 0.30946 0.65296 0.0
O1031 O 0.84632 0.29475 0.67368 0.0
H1032 H 0.84066 0.25611 0.72081 0.0
H1033 H 0.88621 0.27572 0.67492 0.0
H1034 H 0.8355 0.22979 0.70385 0.0
H1035 H 0.88025 0.24905 0.65875 0.0
H1036 H 0.86707 0.34425 0.80783 0.0
H1037 H 0.88652 0.3086 0.77818 0.0
H1038 H 0.86348 0.33384 0.74811 0.0
H1039 H 0.88986 0.3196 0.83726 0.0
H1040 H 0.91864 0.29406 0.77214 0.0
H1041 H 0.93833 0.34054 0.72991 0.0
H1042 H 0.8032 0.26363 0.77938 0.0
H1043 H 0.84401 0.27267 0.83816 0.0
H1044 H 0.85782 0.30301 0.61119 0.0
H1045 H 0.90781 0.32633 0.61847 0.0
H1046 H 0.86035 0.31182 0.55025 0.0
H1047 H 0.90947 0.33471 0.55718 0.0
H1048 H 0.82231 0.28403 0.63116 0.0
H1049 H 0.84307 0.31187 0.72206 0.0
H1050 H 0.80071 0.28979 0.6358 0.0
H1051 H 0.82124 0.31731 0.72506 0.0
H1052 H 0.82262 0.24081 0.60761 0.0
H1053 H 0.86736 0.26234 0.55645 0.0
H1054 H 0.88706 0.37097 0.68578 0.0
H1055 H 0.84922 0.34664 0.61312 0.0
C1056 C 0.15259 0.38507 0.1896 0.0
C1057 C 0.14805 0.39629 0.19404 0.0
C1058 C 0.16006 0.38187 0.21641 0.0
C1059 C 0.17135 0.39029 0.31001 0.0
H1060 H 0.20759 0.38819 0.27996 0.0
C1061 C 0.22812 0.41452 0.38705 0.0
C1062 C 0.2346 0.40487 0.39219 0.0
C1063 C 0.21524 0.40983 0.36556 0.0
C1064 C 0.19736 0.38848 0.28873 0.0
H1065 H 0.14723 0.41257 0.2302 0.0
H1066 H 0.16061 0.40741 0.27648 0.0
H1067 H 0.18856 0.38614 0.23727 0.0
H1068 H 0.23233 0.38255 0.37861 0.0
H1069 H 0.21026 0.3748 0.33945 0.0
H1070 H 0.18095 0.39384 0.36121 0.0
C1071 C 0.15809 0.4007 0.25283 0.0
C1072 C 0.18638 0.38724 0.26433 0.0
C1073 C 0.15045 0.40373 0.22623 0.0
C1074 C 0.22787 0.39042 0.37491 0.0
C1075 C 0.21514 0.38588 0.35276 0.0
C1076 C 0.18247 0.39181 0.33427 0.0
C1077 C 0.16333 0.39 0.24801 0.0
C1078 C 0.17347 0.3886 0.27453 0.0
C1079 C 0.2087 0.39554 0.3481 0.0
C1080 C 0.19576 0.39133 0.32365 0.0
H1081 H 0.1507 0.37905 0.16509 0.0
H1082 H 0.16364 0.37333 0.212 0.0
H1083 H 0.16137 0.39099 0.31896 0.0
H1084 H 0.23315 0.42588 0.39906 0.0
H1085 H 0.21064 0.4176 0.36178 0.0
C1086 C 0.83049 0.22169 0.56366 0.0
C1087 C 0.83776 0.23728 0.55301 0.0
C1088 C 0.82252 0.20971 0.53973 0.0
C1089 C 0.81408 0.20161 0.44483 0.0
H1090 H 0.77473 0.16828 0.47926 0.0
C1091 C 0.74886 0.15716 0.39036 0.0
C1092 C 0.7526 0.15352 0.35794 0.0
C1093 C 0.76045 0.16506 0.41511 0.0
C1094 C 0.78564 0.17753 0.46912 0.0
H1095 H 0.84297 0.25274 0.50923 0.0
H1096 H 0.82849 0.23197 0.46758 0.0
H1097 H 0.79339 0.18704 0.51954 0.0
H1098 H 0.77114 0.15446 0.32648 0.0
H1099 H 0.79138 0.1678 0.37019 0.0
H1100 H 0.80574 0.19282 0.39407 0.0
C1101 C 0.82928 0.2288 0.49404 0.0
C1102 C 0.79652 0.18819 0.49238 0.0
C1103 C 0.83752 0.24075 0.51789 0.0
C1104 C 0.76801 0.15729 0.35123 0.0
C1105 C 0.77959 0.165 0.3762 0.0
C1106 C 0.80307 0.1911 0.42148 0.0
C1107 C 0.82134 0.21312 0.50481 0.0
C1108 C 0.81075 0.20061 0.48049 0.0
C1109 C 0.77603 0.16931 0.40818 0.0
C1110 C 0.78854 0.17916 0.43326 0.0
H1111 H 0.83069 0.21879 0.59068 0.0
H1112 H 0.81692 0.1978 0.54887 0.0
H1113 H 0.82504 0.2108 0.43473 0.0
H1114 H 0.73709 0.15455 0.39598 0.0
H1115 H 0.75725 0.16843 0.43906 0.0
C1116 C 0.59508 0.74987 0.55843 0.0
C1117 C 0.6001 0.75441 0.52425 0.0
C1118 C 0.59867 0.76106 0.58413 0.0
C1119 C 0.60839 0.80203 0.59211 0.0
H1120 H 0.60898 0.79331 0.68992 0.0
C1121 C 0.60696 0.84117 0.70252 0.0
C1122 C 0.59372 0.83285 0.72366 0.0
C1123 C 0.61156 0.83331 0.67954 0.0
C1124 C 0.60901 0.79595 0.66265 0.0
H1125 H 0.61373 0.77403 0.49041 0.0
H1126 H 0.62056 0.79365 0.53557 0.0
H1127 H 0.61131 0.77655 0.64684 0.0
H1128 H 0.57495 0.80964 0.7367 0.0
H1129 H 0.58342 0.79608 0.69788 0.0
H1130 H 0.60597 0.82139 0.60825 0.0
C1131 C 0.6134 0.78149 0.54241 0.0
C1132 C 0.61021 0.78631 0.63796 0.0
C1133 C 0.60958 0.77029 0.51658 0.0
C1134 C 0.58542 0.81649 0.72164 0.0
C1135 C 0.59022 0.80867 0.69928 0.0
C1136 C 0.60748 0.81182 0.61684 0.0
C1137 C 0.60756 0.77704 0.57628 0.0
C1138 C 0.6093 0.78887 0.60236 0.0
C1139 C 0.60322 0.817 0.67786 0.0
C1140 C 0.60722 0.80852 0.65223 0.0
H1141 H 0.58763 0.73769 0.56487 0.0
H1142 H 0.59373 0.75713 0.60966 0.0
H1143 H 0.60744 0.8043 0.56504 0.0
H1144 H 0.61382 0.85374 0.70372 0.0
H1145 H 0.62163 0.83994 0.66313 0.0
C1146 C 0.84204 0.61335 0.68847 0.0
C1147 C 0.8457 0.60149 0.69357 0.0
C1148 C 0.83446 0.61692 0.71439 0.0
C1149 C 0.82276 0.60979 0.80736 0.0
H1150 H 0.78608 0.61066 0.77558 0.0
C1151 C 0.76728 0.58623 0.88726 0.0
C1152 C 0.75954 0.59483 0.88959 0.0
C1153 C 0.77998 0.59096 0.86525 0.0
C1154 C 0.79644 0.61076 0.78485 0.0
H1155 H 0.84469 0.58444 0.73029 0.0
H1156 H 0.83154 0.59059 0.7752 0.0
H1157 H 0.80527 0.61241 0.7335 0.0
H1158 H 0.75917 0.6152 0.87018 0.0
H1159 H 0.78117 0.62313 0.83049 0.0
H1160 H 0.81339 0.60717 0.85851 0.0
C1161 C 0.83473 0.59736 0.75151 0.0
C1162 C 0.80747 0.6118 0.76079 0.0
C1163 C 0.84228 0.59381 0.72568 0.0
C1164 C 0.76474 0.60821 0.86881 0.0
C1165 C 0.77738 0.61283 0.8463 0.0
C1166 C 0.81169 0.60863 0.83132 0.0
C1167 C 0.83041 0.60871 0.74592 0.0
C1168 C 0.82045 0.61075 0.77169 0.0
C1169 C 0.78517 0.60428 0.84457 0.0
C1170 C 0.79818 0.60855 0.82014 0.0
H1171 H 0.84474 0.61963 0.66416 0.0
H1172 H 0.83148 0.62586 0.70948 0.0
H1173 H 0.83281 0.6093 0.81666 0.0
H1174 H 0.76338 0.57563 0.90203 0.0
H1175 H 0.78554 0.58394 0.86377 0.0
C1176 C 0.23219 0.84401 0.86678 0.0
C1177 C 0.24104 0.8377 0.85341 0.0
C1178 C 0.21981 0.83531 0.88948 0.0
C1179 C 0.1928 0.79483 0.91604 0.0
H1180 H 0.19008 0.81262 0.00344 0.0
C1181 C 0.1495 0.7563 0.02014 0.0
C1182 C 0.15648 0.75776 0.05265 0.0
C1183 C 0.15708 0.7677 0.99473 0.0
C1184 C 0.19063 0.80753 0.97902 0.0
H1185 H 0.2437 0.81727 0.8528 0.0
H1186 H 0.22234 0.80226 0.89257 0.0
H1187 H 0.20913 0.82926 0.96001 0.0
H1188 H 0.17619 0.77283 0.08509 0.0
H1189 H 0.18956 0.79251 0.04067 0.0
H1190 H 0.17497 0.77299 0.93551 0.0
C1191 C 0.22487 0.81386 0.88545 0.0
C1192 C 0.20144 0.81707 0.95409 0.0
C1193 C 0.23726 0.82255 0.86307 0.0
C1194 C 0.17067 0.77127 0.06002 0.0
C1195 C 0.17823 0.78266 0.0347 0.0
C1196 C 0.182 0.78532 0.94086 0.0
C1197 C 0.21596 0.8201 0.89876 0.0
C1198 C 0.20297 0.81069 0.92286 0.0
C1199 C 0.17174 0.78078 0.00145 0.0
C1200 C 0.18113 0.79146 0.97307 0.0
H1201 H 0.23489 0.85568 0.85979 0.0
H1202 H 0.21312 0.84039 0.89939 0.0
H1203 H 0.19358 0.78966 0.89193 0.0
H1204 H 0.13855 0.746 0.01376 0.0
H1205 H 0.15171 0.76603 0.96946 0.0
C1206 C 0.38671 0.16021 0.21643 0.0
C1207 C 0.39722 0.15488 0.21005 0.0
C1208 C 0.38431 0.16904 0.19155 0.0
C1209 C 0.40642 0.19739 0.12634 0.0
H1210 H 0.3673 0.1932 0.09508 0.0
C1211 C 0.40475 0.24666 0.05371 0.0
C1212 C 0.39783 0.24233 0.02084 0.0
C1213 C 0.40236 0.2353 0.07815 0.0
C1214 C 0.37827 0.19448 0.10376 0.0
H1215 H 0.41285 0.1539 0.17216 0.0
H1216 H 0.40876 0.16947 0.12881 0.0
H1217 H 0.36717 0.17323 0.13317 0.0
H1218 H 0.38207 0.2229 0.98854 0.0
H1219 H 0.37775 0.20298 0.0316 0.0
H1220 H 0.41756 0.21864 0.09754 0.0
C1221 C 0.40237 0.16676 0.153 0.0
C1222 C 0.37819 0.18311 0.12543 0.0
C1223 C 0.40462 0.15778 0.17766 0.0
C1224 C 0.38764 0.2265 0.01365 0.0
C1225 C 0.38509 0.21514 0.03828 0.0
C1226 C 0.40648 0.20883 0.10527 0.0
C1227 C 0.39255 0.17283 0.16015 0.0
C1228 C 0.39229 0.18445 0.13664 0.0
C1229 C 0.39286 0.21944 0.07026 0.0
C1230 C 0.39244 0.20748 0.09375 0.0
H1231 H 0.38078 0.15801 0.24115 0.0
H1232 H 0.37672 0.17364 0.19766 0.0
H1233 H 0.41743 0.19879 0.13502 0.0
H1234 H 0.41273 0.25877 0.05984 0.0
H1235 H 0.40839 0.23888 0.10278 0.0
C1236 C 0.12448 0.51508 0.05647 0.0
C1237 C 0.12565 0.50637 0.08384 0.0
C1238 C 0.12394 0.52864 0.06316 0.0
C1239 C 0.13318 0.55852 0.13081 0.0
H1240 H 0.10616 0.56802 0.0761 0.0
C1241 C 0.12169 0.60849 0.16552 0.0
C1242 C 0.12228 0.6181 0.13809 0.0
C1243 C 0.12194 0.59477 0.1589 0.0
C1244 C 0.11386 0.56558 0.09138 0.0
H1245 H 0.1269 0.50488 0.13968 0.0
H1246 H 0.12573 0.52844 0.15146 0.0
H1247 H 0.10678 0.54413 0.06482 0.0
H1248 H 0.12334 0.62076 0.08221 0.0
H1249 H 0.1238 0.59676 0.07062 0.0
H1250 H 0.14012 0.57991 0.15759 0.0
C1251 C 0.12557 0.52499 0.12477 0.0
C1252 C 0.11425 0.55192 0.0849 0.0
C1253 C 0.12621 0.51147 0.11805 0.0
C1254 C 0.12299 0.61363 0.10387 0.0
C1255 C 0.12311 0.59984 0.09723 0.0
C1256 C 0.13272 0.57213 0.13742 0.0
C1257 C 0.12446 0.53376 0.09739 0.0
C1258 C 0.12394 0.54823 0.10449 0.0
C1259 C 0.12267 0.59031 0.1247 0.0
C1260 C 0.12308 0.57582 0.11774 0.0
H1261 H 0.12426 0.51156 0.02981 0.0
H1262 H 0.12337 0.53525 0.04143 0.0
H1263 H 0.14099 0.5562 0.14599 0.0
H1264 H 0.1213 0.61171 0.19218 0.0
H1265 H 0.12145 0.58759 0.18056 0.0
C1266 C 0.61614 0.13929 0.26065 0.0
C1267 C 0.61667 0.12542 0.25842 0.0
C1268 C 0.60214 0.13892 0.26769 0.0
C1269 C 0.56275 0.11386 0.30385 0.0
H1270 H 0.55343 0.14236 0.25475 0.0
C1271 C 0.51117 0.12249 0.34135 0.0
C1272 C 0.50282 0.12451 0.31437 0.0
C1273 C 0.52482 0.12216 0.33437 0.0
C1274 C 0.55577 0.13422 0.26845 0.0
H1275 H 0.60291 0.10026 0.2624 0.0
H1276 H 0.5784 0.09959 0.27383 0.0
H1277 H 0.57757 0.14247 0.24254 0.0
H1278 H 0.50198 0.12732 0.25883 0.0
H1279 H 0.52573 0.12659 0.24655 0.0
H1280 H 0.54076 0.10536 0.32918 0.0
C1281 C 0.58886 0.11078 0.27053 0.0
C1282 C 0.56972 0.13443 0.26179 0.0
C1283 C 0.60287 0.11116 0.26356 0.0
C1284 C 0.5083 0.12599 0.28021 0.0
C1285 C 0.52191 0.12559 0.27321 0.0
C1286 C 0.54877 0.11362 0.31046 0.0
C1287 C 0.58832 0.12466 0.27256 0.0
C1288 C 0.5734 0.12429 0.27948 0.0
C1289 C 0.5304 0.12377 0.30023 0.0
C1290 C 0.54514 0.12382 0.29289 0.0
H1291 H 0.62651 0.15047 0.25645 0.0
H1292 H 0.60219 0.14984 0.26952 0.0
H1293 H 0.56529 0.106 0.31817 0.0
H1294 H 0.50734 0.12153 0.368 0.0
H1295 H 0.53119 0.12098 0.35585 0.0
C1296 C 0.38231 0.52102 0.50426 0.0
C1297 C 0.37521 0.50962 0.47835 0.0
C1298 C 0.3961 0.53489 0.49747 0.0
C1299 C 0.41979 0.56057 0.42646 0.0
H1300 H 0.45328 0.57596 0.49378 0.0
C1301 C 0.48124 0.61152 0.39615 0.0
C1302 C 0.48915 0.6224 0.42263 0.0
C1303 C 0.46728 0.59784 0.40305 0.0
C1304 C 0.44398 0.57194 0.47491 0.0
H1305 H 0.37714 0.50387 0.42498 0.0
H1306 H 0.40113 0.52817 0.41307 0.0
H1307 H 0.42893 0.55203 0.50562 0.0
H1308 H 0.4886 0.62732 0.47725 0.0
H1309 H 0.46403 0.60367 0.48905 0.0
H1310 H 0.43475 0.58051 0.39584 0.0
C1311 C 0.39592 0.5264 0.43855 0.0
C1312 C 0.43004 0.55822 0.48168 0.0
C1313 C 0.38216 0.51249 0.44538 0.0
C1314 C 0.48274 0.61928 0.45616 0.0
C1315 C 0.46874 0.60562 0.46303 0.0
C1316 C 0.4337 0.57433 0.41975 0.0
C1317 C 0.40307 0.53771 0.46457 0.0
C1318 C 0.41781 0.55237 0.45749 0.0
C1319 C 0.46085 0.59473 0.43656 0.0
C1320 C 0.44598 0.58017 0.44385 0.0
H1321 H 0.37712 0.51931 0.52975 0.0
H1322 H 0.40122 0.54349 0.51789 0.0
H1323 H 0.41049 0.55645 0.40754 0.0
H1324 H 0.48575 0.61363 0.36994 0.0
H1325 H 0.46161 0.58963 0.38214 0.0
C1326 C 0.86532 0.47849 0.56185 0.0
C1327 C 0.86557 0.48786 0.58945 0.0
C1328 C 0.86553 0.46474 0.56823 0.0
C1329 C 0.85789 0.43563 0.6367 0.0
H1330 H 0.88268 0.42475 0.57766 0.0
C1331 C 0.86928 0.38535 0.66896 0.0
C1332 C 0.86805 0.37548 0.64151 0.0
C1333 C 0.86895 0.39905 0.66255 0.0
C1334 C 0.87559 0.42756 0.59415 0.0
H1335 H 0.8664 0.49024 0.64538 0.0
H1336 H 0.86694 0.46629 0.65657 0.0
H1337 H 0.8822 0.44873 0.56679 0.0
H1338 H 0.86571 0.37232 0.58578 0.0
H1339 H 0.86504 0.39623 0.57459 0.0
H1340 H 0.8514 0.4145 0.66421 0.0
C1341 C 0.86629 0.46943 0.62998 0.0
C1342 C 0.87529 0.44129 0.58792 0.0
C1343 C 0.86601 0.48316 0.6236 0.0
C1344 C 0.86656 0.37964 0.60748 0.0
C1345 C 0.86633 0.39339 0.60105 0.0
C1346 C 0.85825 0.42194 0.64301 0.0
C1347 C 0.86607 0.46006 0.60237 0.0
C1348 C 0.86643 0.44548 0.60909 0.0
C1349 C 0.86747 0.40321 0.62854 0.0
C1350 C 0.86709 0.41775 0.62179 0.0
H1351 H 0.86473 0.48168 0.53527 0.0
H1352 H 0.86507 0.45767 0.54637 0.0
H1353 H 0.85074 0.43837 0.65316 0.0
H1354 H 0.87027 0.38238 0.69549 0.0
H1355 H 0.87 0.40645 0.68422 0.0
C1356 C 0.38564 0.8772 0.77579 0.0
C1357 C 0.37388 0.86579 0.75483 0.0
C1358 C 0.39933 0.87685 0.7822 0.0
C1359 C 0.42333 0.86084 0.74825 0.0
H1360 H 0.4413 0.87031 0.84044 0.0
C1361 C 0.48416 0.86925 0.77812 0.0
C1362 C 0.48603 0.86324 0.80959 0.0
C1363 C 0.47036 0.86928 0.77102 0.0
C1364 C 0.43636 0.8675 0.81462 0.0
H1365 H 0.36739 0.8452 0.72374 0.0
H1366 H 0.39108 0.84437 0.73565 0.0
H1367 H 0.41736 0.87077 0.82913 0.0
H1368 H 0.47471 0.85208 0.85781 0.0
H1369 H 0.45058 0.85201 0.84532 0.0
H1370 H 0.44214 0.85724 0.73395 0.0
C1371 C 0.3898 0.85369 0.74683 0.0
C1372 C 0.42275 0.86796 0.80803 0.0
C1373 C 0.37613 0.85405 0.74038 0.0
C1374 C 0.47371 0.85702 0.83356 0.0
C1375 C 0.4599 0.85701 0.82643 0.0
C1376 C 0.43693 0.86036 0.75486 0.0
C1377 C 0.40156 0.86508 0.76782 0.0
C1378 C 0.41607 0.86464 0.77477 0.0
C1379 C 0.45811 0.86326 0.7952 0.0
C1380 C 0.4436 0.86368 0.78813 0.0
H1381 H 0.38422 0.88632 0.78756 0.0
H1382 H 0.40824 0.8859 0.79818 0.0
H1383 H 0.41858 0.85839 0.72224 0.0
H1384 H 0.49353 0.8743 0.75933 0.0
H1385 H 0.46944 0.87437 0.74692 0.0
C1386 C 0.50988 0.38201 0.94898 0.0
C1387 C 0.50396 0.37799 0.91514 0.0
C1388 C 0.52387 0.39576 0.95522 0.0
C1389 C 0.55113 0.43409 0.91659 0.0
H1390 H 0.58005 0.43359 0.98352 0.0
C1391 C 0.60552 0.49025 0.96312 0.0
C1392 C 0.61929 0.48973 0.96841 0.0
C1393 C 0.59152 0.47667 0.95593 0.0
C1394 C 0.57218 0.4339 0.96451 0.0
H1395 H 0.50812 0.38517 0.86128 0.0
H1396 H 0.5326 0.40911 0.8721 0.0
H1397 H 0.55558 0.4098 0.97207 0.0
H1398 H 0.62909 0.47448 0.97018 0.0
H1399 H 0.60475 0.45085 0.95669 0.0
H1400 H 0.56791 0.45809 0.9084 0.0
C1401 C 0.5263 0.40179 0.89392 0.0
C1402 C 0.55804 0.42031 0.95829 0.0
C1403 C 0.51227 0.38807 0.8877 0.0
C1404 C 0.61874 0.47533 0.96591 0.0
C1405 C 0.60474 0.46174 0.95863 0.0
C1406 C 0.56528 0.44767 0.92274 0.0
C1407 C 0.53229 0.40577 0.92775 0.0
C1408 C 0.54733 0.42024 0.93431 0.0
C1409 C 0.59094 0.46224 0.95374 0.0
C1410 C 0.57597 0.44775 0.94682 0.0
H1411 H 0.50362 0.37458 0.97071 0.0
H1412 H 0.52801 0.39861 0.98166 0.0
H1413 H 0.54308 0.43448 0.8982 0.0
H1414 H 0.60557 0.50118 0.96442 0.0
H1415 H 0.58109 0.47745 0.95264 0.0
C1416 C 0.24968 0.42831 0.69781 0.0
C1417 C 0.26261 0.44162 0.68409 0.0
C1418 C 0.24224 0.42933 0.72753 0.0
C1419 C 0.23617 0.45691 0.77948 0.0
H1420 H 0.22171 0.42418 0.84858 0.0
C1421 C 0.20489 0.45785 0.90562 0.0
C1422 C 0.19148 0.44371 0.91419 0.0
C1423 C 0.21488 0.4584 0.87938 0.0
C1424 C 0.22561 0.43337 0.82942 0.0
H1425 H 0.27796 0.46645 0.69107 0.0
H1426 H 0.26487 0.46825 0.74305 0.0
H1427 H 0.23678 0.42368 0.79919 0.0
H1428 H 0.17795 0.41915 0.90142 0.0
H1429 H 0.19538 0.4201 0.85601 0.0
H1430 H 0.22478 0.46646 0.80955 0.0
C1431 C 0.26043 0.45705 0.73053 0.0
C1432 C 0.23423 0.43308 0.80113 0.0
C1433 C 0.26791 0.45601 0.70076 0.0
C1434 C 0.18834 0.43016 0.89603 0.0
C1435 C 0.19833 0.4307 0.86995 0.0
C1436 C 0.22755 0.45721 0.80783 0.0
C1437 C 0.24753 0.4437 0.74425 0.0
C1438 C 0.23938 0.4447 0.77555 0.0
C1439 C 0.21169 0.44482 0.86127 0.0
C1440 C 0.22196 0.44529 0.83278 0.0
H1441 H 0.24513 0.4171 0.68522 0.0
H1442 H 0.23214 0.4189 0.73705 0.0
H1443 H 0.23986 0.46596 0.76003 0.0
H1444 H 0.20771 0.46846 0.91937 0.0
H1445 H 0.22517 0.46942 0.87344 0.0
C1446 C 0.73517 0.19735 0.05801 0.0
C1447 C 0.73898 0.18672 0.07281 0.0
C1448 C 0.74396 0.20694 0.03055 0.0
C1449 C 0.78249 0.22342 0.98931 0.0
H1450 H 0.76201 0.22786 0.90803 0.0
C1451 C 0.81534 0.24821 0.86182 0.0
C1452 C 0.81227 0.2585 0.84294 0.0
C1453 C 0.80617 0.24016 0.89029 0.0
C1454 C 0.7679 0.22691 0.93074 0.0
H1455 H 0.75478 0.17756 0.06968 0.0
H1456 H 0.77014 0.19437 0.02226 0.0
H1457 H 0.74641 0.21269 0.95753 0.0
H1458 H 0.79712 0.26835 0.83902 0.0
H1459 H 0.78107 0.25427 0.889 0.0
H1460 H 0.80395 0.23752 0.96267 0.0
C1461 C 0.76053 0.19548 0.03222 0.0
C1462 C 0.75897 0.21823 0.95906 0.0
C1463 C 0.75173 0.18587 0.05947 0.0
C1464 C 0.79969 0.26041 0.85291 0.0
C1465 C 0.7905 0.25235 0.8815 0.0
C1466 C 0.7914 0.23211 0.96112 0.0
C1467 C 0.75676 0.20613 0.01749 0.0
C1468 C 0.76618 0.21621 0.9884 0.0
C1469 C 0.79372 0.24221 0.90063 0.0
C1470 C 0.78421 0.23375 0.9313 0.0
H1471 H 0.72551 0.19839 0.06789 0.0
H1472 H 0.74087 0.21513 0.01985 0.0
H1473 H 0.78838 0.2223 0.01184 0.0
H1474 H 0.82473 0.24623 0.85435 0.0
H1475 H 0.80874 0.23218 0.904 0.0
C1476 C 0.56761 0.75854 0.23023 0.0
C1477 C 0.55418 0.74489 0.24091 0.0
C1478 C 0.56679 0.76778 0.20398 0.0
C1479 C 0.54254 0.76635 0.12995 0.0
H1480 H 0.56844 0.81129 0.13446 0.0
C1481 C 0.54068 0.80783 0.02669 0.0
C1482 C 0.55528 0.81942 0.01437 0.0
C1483 C 0.53963 0.79883 0.05554 0.0
C1484 C 0.56119 0.79875 0.13282 0.0
H1485 H 0.52932 0.73036 0.23298 0.0
H1486 H 0.52783 0.74664 0.18731 0.0
H1487 H 0.56803 0.79544 0.1832 0.0
H1488 H 0.58024 0.83043 0.02255 0.0
H1489 H 0.57836 0.81495 0.0732 0.0
H1490 H 0.53571 0.76975 0.07949 0.0
C1491 C 0.53905 0.75005 0.19882 0.0
C1492 C 0.56098 0.78966 0.16067 0.0
C1493 C 0.53988 0.74074 0.22499 0.0
C1494 C 0.56879 0.82184 0.03171 0.0
C1495 C 0.56773 0.81295 0.06069 0.0
C1496 C 0.54266 0.77546 0.10219 0.0
C1497 C 0.55251 0.76365 0.18792 0.0
C1498 C 0.55184 0.77334 0.15935 0.0
C1499 C 0.55315 0.80133 0.07284 0.0
C1500 C 0.55217 0.79173 0.10316 0.0
H1501 H 0.57884 0.76189 0.24162 0.0
H1502 H 0.57745 0.77799 0.19576 0.0
H1503 H 0.53552 0.75381 0.12788 0.0
H1504 H 0.53003 0.80581 0.01428 0.0
H1505 H 0.52824 0.79003 0.06459 0.0
C1506 C 0.79988 0.5374 0.38228 0.0
C1507 C 0.80751 0.55116 0.40207 0.0
C1508 C 0.79069 0.53643 0.35381 0.0
C1509 C 0.78726 0.56031 0.28776 0.0
H1510 H 0.74389 0.52833 0.27898 0.0
C1511 C 0.748 0.56515 0.18558 0.0
C1512 C 0.73637 0.55155 0.16979 0.0
C1513 C 0.75646 0.56427 0.21349 0.0
C1514 C 0.75606 0.53718 0.28065 0.0
H1515 H 0.81081 0.57441 0.40805 0.0
H1516 H 0.79536 0.57286 0.3576 0.0
H1517 H 0.75907 0.52798 0.32857 0.0
H1518 H 0.72443 0.52636 0.17047 0.0
H1519 H 0.73959 0.52474 0.21864 0.0
H1520 H 0.78459 0.56937 0.23973 0.0
C1521 C 0.79656 0.56289 0.36423 0.0
C1522 C 0.76469 0.53699 0.30914 0.0
C1523 C 0.80549 0.56378 0.39298 0.0
C1524 C 0.7333 0.53701 0.18243 0.0
C1525 C 0.74195 0.53612 0.21008 0.0
C1526 C 0.77875 0.56036 0.25905 0.0
C1527 C 0.78919 0.54926 0.34429 0.0
C1528 C 0.78027 0.54872 0.31316 0.0
C1529 C 0.75367 0.54976 0.22594 0.0
C1530 C 0.76294 0.54898 0.25542 0.0
H1531 H 0.80132 0.52751 0.38813 0.0
H1532 H 0.78514 0.52582 0.33863 0.0
H1533 H 0.79935 0.56934 0.29014 0.0
H1534 H 0.75041 0.5765 0.17663 0.0
H1535 H 0.76508 0.57502 0.22554 0.0
C1536 C 0.1959 0.74851 0.33358 0.0
C1537 C 0.18273 0.73374 0.33856 0.0
C1538 C 0.20551 0.75665 0.36147 0.0
C1539 C 0.2048 0.75963 0.4562 0.0
H1540 H 0.2497 0.78382 0.44664 0.0
C1541 C 0.24469 0.79334 0.57109 0.0
C1542 C 0.25674 0.80854 0.56397 0.0
C1543 C 0.2362 0.78327 0.54409 0.0
C1544 C 0.23717 0.7772 0.44963 0.0
H1545 H 0.16964 0.7157 0.37648 0.0
H1546 H 0.18642 0.72995 0.42524 0.0
H1547 H 0.23392 0.76783 0.39834 0.0
H1548 H 0.26932 0.8251 0.52297 0.0
H1549 H 0.25449 0.80756 0.47591 0.0
H1550 H 0.20799 0.76918 0.50722 0.0
C1551 C 0.18917 0.73531 0.39983 0.0
C1552 C 0.22814 0.76804 0.42199 0.0
C1553 C 0.17956 0.72716 0.37192 0.0
C1554 C 0.26026 0.81338 0.52928 0.0
C1555 C 0.25177 0.80332 0.50231 0.0
C1556 C 0.21382 0.76879 0.48381 0.0
C1557 C 0.20216 0.75021 0.39496 0.0
C1558 C 0.21185 0.75927 0.42488 0.0
C1559 C 0.23957 0.78819 0.50941 0.0
C1560 C 0.2301 0.7778 0.48073 0.0
H1561 H 0.19853 0.75401 0.30831 0.0
H1562 H 0.2153 0.76821 0.35698 0.0
H1563 H 0.19225 0.75318 0.45905 0.0
H1564 H 0.24186 0.78922 0.59755 0.0
H1565 H 0.22702 0.7716 0.55038 0.0
C1566 C 0.45894 0.25993 0.72217 0.0
C1567 C 0.44431 0.25598 0.73606 0.0
C1568 C 0.46009 0.25151 0.69437 0.0
C1569 C 0.43808 0.21392 0.64841 0.0
H1570 H 0.46501 0.23609 0.57085 0.0
C1571 C 0.43109 0.18511 0.51599 0.0
C1572 C 0.44462 0.18758 0.49876 0.0
C1573 C 0.43212 0.19363 0.54557 0.0
C1574 C 0.45759 0.22974 0.59252 0.0
H1575 H 0.41942 0.24029 0.73127 0.0
H1576 H 0.42143 0.22564 0.68303 0.0
H1577 H 0.46499 0.25053 0.62219 0.0
H1578 H 0.46984 0.20115 0.49862 0.0
H1579 H 0.47164 0.2161 0.55066 0.0
H1580 H 0.43047 0.19319 0.61859 0.0
C1581 C 0.43204 0.23502 0.69398 0.0
C1582 C 0.4576 0.23799 0.62191 0.0
C1583 C 0.43089 0.24342 0.72167 0.0
C1584 C 0.45922 0.19894 0.51151 0.0
C1585 C 0.46025 0.20755 0.5411 0.0
C1586 C 0.43805 0.20571 0.61906 0.0
C1587 C 0.44664 0.23898 0.67996 0.0
C1588 C 0.44764 0.23018 0.64993 0.0
C1589 C 0.44669 0.20485 0.55862 0.0
C1590 C 0.44761 0.21355 0.59058 0.0
H1591 H 0.4695 0.26945 0.73293 0.0
H1592 H 0.47151 0.25472 0.68433 0.0
H1593 H 0.43052 0.20754 0.66987 0.0
H1594 H 0.41968 0.17631 0.50707 0.0
H1595 H 0.42146 0.19144 0.55826 0.0
C1596 C 0.03913 0.37022 0.95923 0.0
C1597 C 0.05369 0.3793 0.94336 0.0
C1598 C 0.02572 0.36198 0.93911 0.0
C1599 C 0.01228 0.34785 0.84941 0.0
H1600 H 0.97496 0.34777 0.87971 0.0
C1601 C 0.95952 0.33244 0.76038 0.0
C1602 C 0.94466 0.32297 0.77467 0.0
C1603 C 0.9728 0.33792 0.7811 0.0
C1604 C 0.98524 0.34754 0.87112 0.0
H1605 H 0.06568 0.38694 0.8941 0.0
H1606 H 0.0423 0.37286 0.85897 0.0
H1607 H -0.00184 0.35992 0.91589 0.0
H1608 H 0.93204 0.31177 0.82173 0.0
H1609 H 0.95523 0.32133 0.85783 0.0
H1610 H -0.00063 0.33584 0.80406 0.0
C1611 C 0.04122 0.37174 0.8869 0.0
C1612 C -0.00147 0.35445 0.89189 0.0
C1613 C 0.05462 0.37986 0.90701 0.0
C1614 C 0.94335 0.31891 0.80991 0.0
C1615 C 0.9566 0.32449 0.83065 0.0
C1616 C -0.00099 0.34105 0.82847 0.0
C1617 C 0.02658 0.36277 0.90269 0.0
C1618 C 0.01225 0.35477 0.88123 0.0
C1619 C 0.97144 0.33418 0.81654 0.0
C1620 C 0.98539 0.34088 0.83909 0.0
H1621 H 0.03812 0.36945 0.98722 0.0
H1622 H 0.01468 0.35497 0.95212 0.0
H1623 H 0.02256 0.34766 0.84066 0.0
H1624 H 0.96086 0.33568 0.73325 0.0
H1625 H 0.98411 0.34546 0.76962 0.0
C1626 C 0.62772 0.95129 0.95232 0.0
C1627 C 0.6171 0.95032 0.92691 0.0
C1628 C 0.6353 0.96437 0.97358 0.0
C1629 C 0.64344 0.00513 0.98442 0.0
H1630 H 0.64762 0.99727 0.08126 0.0
C1631 C 0.65382 0.04885 0.09377 0.0
C1632 C 0.66613 0.05211 0.11653 0.0
C1633 C 0.64877 0.03668 0.06998 0.0
C1634 C 0.64664 -0.00037 0.05423 0.0
H1635 H 0.60676 0.96282 0.90294 0.0
H1636 H 0.61933 0.98524 0.9411 0.0
H1637 H 0.63746 0.97584 0.03995 0.0
H1638 H 0.68265 0.04513 0.13288 0.0
H1639 H 0.67353 0.0235 0.09164 0.0
H1640 H 0.65204 0.02887 -0.00065 0.0
C1641 C 0.62206 0.97601 0.94422 0.0
C1642 C 0.64091 0.98739 0.03046 0.0
C1643 C 0.61465 0.96302 0.92261 0.0
C1644 C 0.67313 0.04282 0.11555 0.0
C1645 C 0.66791 0.03047 0.09211 0.0
C1646 C 0.64894 0.01732 0.00832 0.0
C1647 C 0.63229 0.97674 0.97037 0.0
C1648 C 0.63916 0.98996 0.99526 0.0
C1649 C 0.65581 0.02743 0.06887 0.0
C1650 C 0.6505 0.01464 0.04343 0.0
H1651 H 0.62981 0.9417 0.95677 0.0
H1652 H 0.64334 0.96465 0.99295 0.0
H1653 H 0.64254 0.00762 0.95747 0.0
H1654 H 0.64836 0.05597 0.09377 0.0
H1655 H 0.63933 0.03446 0.05249 0.0
C1656 C 0.65218 0.60321 0.12934 0.0
C1657 C 0.66304 0.61186 0.10341 0.0
C1658 C 0.64675 0.61042 0.15191 0.0
C1659 C 0.64009 0.64304 0.16021 0.0
H1660 H 0.64164 0.63713 0.25923 0.0
C1661 C 0.62197 0.67476 0.25834 0.0
C1662 C 0.61367 0.66644 0.28789 0.0
C1663 C 0.62899 0.66883 0.23654 0.0
C1664 C 0.64092 0.63874 0.23167 0.0
H1665 H 0.67656 0.6347 0.08023 0.0
H1666 H 0.66672 0.64732 0.11939 0.0
H1667 H 0.6515 0.62509 0.21908 0.0
H1668 H 0.60662 0.64547 0.31803 0.0
H1669 H 0.61816 0.63477 0.27915 0.0
H1670 H 0.629 0.65617 0.17239 0.0
C1671 C 0.66255 0.63498 0.12229 0.0
C1672 C 0.64664 0.6319 0.20874 0.0
C1673 C 0.66819 0.62781 0.10005 0.0
C1674 C 0.61273 0.65211 0.29527 0.0
C1675 C 0.61957 0.64607 0.2732 0.0
C1676 C 0.63415 0.64969 0.18308 0.0
C1677 C 0.65191 0.62637 0.14863 0.0
C1678 C 0.64623 0.63396 0.17284 0.0
C1679 C 0.6277 0.65431 0.24341 0.0
C1680 C 0.63444 0.64759 0.21913 0.0
H1681 H 0.64818 0.59093 0.13269 0.0
H1682 H 0.63847 0.60353 0.17187 0.0
H1683 H 0.63952 0.64466 0.13258 0.0
H1684 H 0.62278 0.68572 0.25145 0.0
H1685 H 0.63538 0.67563 0.21419 0.0
C1686 C 0.03241 0.66325 0.25426 0.0
C1687 C 0.04704 0.67288 0.26942 0.0
C1688 C 0.01887 0.65726 0.2742 0.0
C1689 C 0.00313 0.6616 0.35802 0.0
H1690 H 0.97375 0.6176 0.3459 0.0
C1691 C 0.94473 0.62905 0.43269 0.0
C1692 C 0.94042 0.61407 0.44492 0.0
C1693 C 0.95757 0.63698 0.41081 0.0
C1694 C 0.98189 0.62988 0.34972 0.0
H1695 H 0.05891 0.68398 0.31726 0.0
H1696 H 0.03532 0.67351 0.352 0.0
H1697 H 0.99629 0.63047 0.30788 0.0
H1698 H 0.94629 0.59573 0.44398 0.0
H1699 H 0.96888 0.6097 0.4065 0.0
H1700 H 0.98893 0.66086 0.40062 0.0
C1701 C 0.03427 0.67078 0.3246 0.0
C1702 C 0.99468 0.63731 0.32762 0.0
C1703 C 0.0478 0.67679 0.30467 0.0
C1704 C 0.94939 0.60732 0.43531 0.0
C1705 C 0.96221 0.61523 0.41344 0.0
C1706 C 0.99031 0.65417 0.38015 0.0
C1707 C 0.01968 0.66074 0.30973 0.0
C1708 C 0.00553 0.65321 0.33172 0.0
C1709 C 0.96635 0.63008 0.40066 0.0
C1710 C 0.97965 0.63818 0.37647 0.0
H1711 H 0.03145 0.66022 0.22704 0.0
H1712 H 0.00776 0.64975 0.26188 0.0
H1713 H 0.01122 0.67391 0.36162 0.0
H1714 H 0.93813 0.63463 0.43994 0.0
H1715 H 0.96043 0.64838 0.40126 0.0
C1716 C 0.37257 0.05411 0.48503 0.0
C1717 C 0.37757 0.05306 0.4515 0.0
C1718 C 0.3651 0.04096 0.50615 0.0
C1719 C 0.36324 0.00414 0.52234 0.0
H1720 H 0.32499 0.99284 0.57199 0.0
C1721 C 0.33999 0.95812 0.63049 0.0
C1722 C 0.32458 0.94609 0.62571 0.0
C1723 C 0.34595 0.97169 0.61069 0.0
C1724 C 0.33568 0.99591 0.55827 0.0
H1725 H 0.37815 0.03716 0.41362 0.0
H1726 H 0.36554 0.0143 0.4511 0.0
H1727 H 0.33606 0.01531 0.53273 0.0
H1728 H 0.30307 0.93901 0.59795 0.0
H1729 H 0.31344 0.96294 0.56364 0.0
H1730 H 0.36298 0.98488 0.54802 0.0
C1731 C 0.36744 0.02537 0.46083 0.0
C1732 C 0.34201 0.00873 0.53598 0.0
C1733 C 0.37472 0.03847 0.43948 0.0
C1734 C 0.31502 0.94812 0.60193 0.0
C1735 C 0.32091 0.96179 0.5825 0.0
C1736 C 0.35706 0.99149 0.54499 0.0
C1737 C 0.36268 0.02654 0.49442 0.0
C1738 C 0.3558 0.0129 0.51772 0.0
C1739 C 0.33652 0.97353 0.58618 0.0
C1740 C 0.34321 0.98724 0.56308 0.0
H1741 H 0.37482 0.06518 0.49547 0.0
H1742 H 0.36168 0.04218 0.53212 0.0
H1743 H 0.37397 0.00722 0.50876 0.0
H1744 H 0.34762 0.95677 0.64849 0.0
H1745 H 0.358 0.98065 0.61411 0.0
C1746 C 0.34142 0.37858 0.58585 0.0
C1747 C 0.32674 0.37712 0.59138 0.0
C1748 C 0.34673 0.37086 0.60731 0.0
C1749 C 0.34007 0.35314 0.69462 0.0
H1750 H 0.36728 0.33853 0.66055 0.0
C1751 C 0.37542 0.33678 0.78682 0.0
C1752 C 0.3779 0.32452 0.77719 0.0
C1753 C 0.36827 0.34221 0.76394 0.0
C1754 C 0.35952 0.34234 0.6705 0.0
H1755 H 0.30594 0.36595 0.6234 0.0
H1756 H 0.31485 0.35192 0.65947 0.0
H1757 H 0.35592 0.34878 0.61994 0.0
H1758 H 0.37472 0.30835 0.73576 0.0
H1759 H 0.36159 0.31725 0.69681 0.0
H1760 H 0.34326 0.34623 0.74502 0.0
C1761 C 0.32247 0.35938 0.63917 0.0
C1762 C 0.35319 0.34844 0.64721 0.0
C1763 C 0.31724 0.36724 0.618 0.0
C1764 C 0.37279 0.31764 0.74438 0.0
C1765 C 0.36548 0.32293 0.72171 0.0
C1766 C 0.34627 0.34687 0.71785 0.0
C1767 C 0.33741 0.36135 0.63458 0.0
C1768 C 0.3435 0.35406 0.65901 0.0
C1769 C 0.36329 0.33541 0.73101 0.0
C1770 C 0.35619 0.34152 0.70614 0.0
H1771 H 0.34896 0.38589 0.56529 0.0
H1772 H 0.35836 0.37277 0.60313 0.0
H1773 H 0.33285 0.35755 0.70477 0.0
H1774 H 0.37904 0.34225 0.812 0.0
H1775 H 0.36696 0.35196 0.77186 0.0
loop_
_geom_bond_atom_site_label_1
_geom_bond_atom_site_label_2
_geom_bond_distance
_geom_bond_site_symmetry_2
_ccdc_geom_bond_type
Li0 N17 1.990 . S
Li0 O60 1.956 . S
Li0 O61 1.970 . S
Li0 O62 1.961 1_554 S
Li1 N25 1.990 . S
Li1 O60 1.970 . S
Li1 O61 1.956 . S
Li1 O63 1.961 . S
Li2 N47 1.990 . S
Li2 O60 1.961 1_556 S
Li2 O62 1.956 . S
Li2 O63 1.970 1_556 S
Li3 N53 1.990 . S
Li3 O61 1.961 . S
Li3 O62 1.970 1_554 S
Li3 O63 1.956 . S
C4 C6 1.348 . S
C4 C7 1.356 . S
C4 O60 1.325 . S
N5 C8 1.314 . S
N5 C9 1.279 . S
C6 C4 1.348 . S
C6 C8 1.353 . S
C6 H64 0.929 . S
C7 C4 1.356 . S
C7 C9 1.358 . S
C7 H65 0.930 . S
C8 N5 1.314 . S
C8 C6 1.353 . S
C8 H66 0.930 . S
C9 N5 1.279 . S
C9 C7 1.358 . S
C9 H67 0.930 . S
C10 C13 1.348 . S
C10 C14 1.356 . S
C10 O61 1.325 . S
C11 N12 1.279 . S
C11 C14 1.358 . S
C11 H68 0.930 . S
N12 C11 1.279 . S
N12 C15 1.314 . S
C13 C10 1.348 . S
C13 C15 1.353 . S
C13 H69 0.929 . S
C14 C10 1.356 . S
C14 C11 1.358 . S
C14 H70 0.930 . S
C15 N12 1.314 . S
C15 C13 1.353 . S
C15 H71 0.930 . S
C16 N17 1.314 . S
C16 C21 1.353 . S
C16 H22 0.930 . S
N17 Li0 1.990 . S
N17 C16 1.314 . S
N17 C19 1.279 . S
C18 C19 1.358 . S
C18 C20 1.356 . S
C18 H72 0.930 . S
C19 N17 1.279 . S
C19 C18 1.358 . S
C19 H23 0.930 . S
C20 C18 1.356 . S
C20 C21 1.348 . S
C21 C16 1.353 . S
C21 C20 1.348 . S
C21 H73 0.929 . S
H22 C16 0.930 . S
H23 C19 0.930 . S
C24 N25 1.314 . S
C24 C26 1.353 . S
C24 H30 0.930 . S
N25 Li1 1.990 . S
N25 C24 1.314 . S
N25 C28 1.279 . S
C26 C24 1.353 . S
C26 C29 1.348 . S
C26 H74 0.929 . S
C27 C28 1.358 . S
C27 C29 1.356 . S
C27 H75 0.930 . S
C28 N25 1.279 . S
C28 C27 1.358 . S
C28 H31 0.930 . S
C29 C26 1.348 . S
C29 C27 1.356 . S
H30 C24 0.930 . S
H31 C28 0.930 . S
C32 C34 1.348 . S
C32 C35 1.356 . S
C32 O62 1.325 . S
N33 C36 1.314 . S
N33 C37 1.279 . S
C34 C32 1.348 . S
C34 C36 1.353 . S
C34 H76 0.929 . S
C35 C32 1.356 . S
C35 C37 1.358 . S
C35 H77 0.930 . S
C36 N33 1.314 . S
C36 C34 1.353 . S
C36 H78 0.930 . S
C37 N33 1.279 . S
C37 C35 1.358 . S
C37 H79 0.930 . S
C38 C39 1.348 1_554 S
C38 C40 1.356 . S
C38 O63 1.325 . S
C39 C38 1.348 1_556 S
C39 C41 1.353 . S
C39 H80 0.929 . S
C40 C38 1.356 . S
C40 C42 1.358 . S
C40 H81 0.930 . S
C41 C39 1.353 . S
C41 N43 1.314 1_556 S
C41 H82 0.930 . S
C42 C40 1.358 . S
C42 N43 1.279 . S
C42 H83 0.930 . S
N43 C41 1.314 1_554 S
N43 C42 1.279 . S
C44 C46 1.353 . S
C44 N47 1.314 . S
C44 H50 0.930 . S
C45 N47 1.279 . S
C45 C48 1.358 . S
C45 H51 0.930 . S
C46 C44 1.353 . S
C46 C49 1.348 . S
C46 H84 0.929 . S
N47 Li2 1.990 . S
N47 C44 1.314 . S
N47 C45 1.279 . S
C48 C45 1.358 . S
C48 C49 1.356 . S
C48 H85 0.930 . S
C49 C46 1.348 . S
C49 C48 1.356 . S
H50 C44 0.930 . S
H51 C45 0.930 . S
C52 N53 1.314 . S
C52 C54 1.353 . S
C52 H58 0.930 . S
N53 Li3 1.990 . S
N53 C52 1.314 . S
N53 C56 1.279 1_554 S
C54 C52 1.353 . S
C54 C57 1.348 1_554 S
C54 H86 0.929 . S
C55 C56 1.358 . S
C55 C57 1.356 . S
C55 H87 0.930 . S
C56 N53 1.279 1_556 S
C56 C55 1.358 . S
C56 H59 0.930 . S
C57 C54 1.348 1_556 S
C57 C55 1.356 . S
H58 C52 0.930 . S
H59 C56 0.930 . S
O60 Li0 1.956 . S
O60 Li1 1.970 . S
O60 Li2 1.961 1_554 S
O60 C4 1.325 . S
O61 Li0 1.970 . S
O61 Li1 1.956 . S
O61 Li3 1.961 . S
O61 C10 1.325 . S
O62 Li0 1.961 1_556 S
O62 Li2 1.956 . S
O62 Li3 1.970 1_556 S
O62 C32 1.325 . S
O63 Li1 1.961 . S
O63 Li2 1.970 1_554 S
O63 Li3 1.956 . S
O63 C38 1.325 . S
H64 C6 0.929 . S
H65 C7 0.930 . S
H66 C8 0.930 . S
H67 C9 0.930 . S
H68 C11 0.930 . S
H69 C13 0.929 . S
H70 C14 0.930 . S
H71 C15 0.930 . S
H72 C18 0.930 . S
H73 C21 0.929 . S
H74 C26 0.929 . S
H75 C27 0.930 . S
H76 C34 0.929 . S
H77 C35 0.930 . S
H78 C36 0.930 . S
H79 C37 0.930 . S
H80 C39 0.929 . S
H81 C40 0.930 . S
H82 C41 0.930 . S
H83 C42 0.930 . S
H84 C46 0.929 . S
H85 C48 0.930 . S
H86 C54 0.929 . S
H87 C55 0.930 . S
Li88 N105 1.990 . S
Li88 O148 1.956 . S
Li88 O149 1.970 . S
Li88 O150 1.961 . S
Li89 N113 1.990 . S
Li89 O148 1.970 . S
Li89 O149 1.956 . S
Li89 O151 1.961 . S
Li90 N135 1.990 . S
Li90 O148 1.961 . S
Li90 O150 1.956 . S
Li90 O151 1.970 . S
Li91 N141 1.990 . S
Li91 O149 1.961 . S
Li91 O150 1.970 . S
Li91 O151 1.956 . S
C92 C94 1.348 . S
C92 C95 1.356 . S
C92 O148 1.325 . S
N93 C96 1.314 . S
N93 C97 1.279 . S
C94 C92 1.348 . S
C94 C96 1.353 . S
C94 H152 0.929 . S
C95 C92 1.356 . S
C95 C97 1.358 . S
C95 H153 0.930 . S
C96 N93 1.314 . S
C96 C94 1.353 . S
C96 H154 0.930 . S
C97 N93 1.279 . S
C97 C95 1.358 . S
C97 H155 0.930 . S
C98 C101 1.348 . S
C98 C102 1.356 . S
C98 O149 1.325 . S
C99 N100 1.279 . S
C99 C102 1.358 . S
C99 H156 0.930 . S
N100 C99 1.279 . S
N100 C103 1.314 . S
C101 C98 1.348 . S
C101 C103 1.353 . S
C101 H157 0.929 . S
C102 C98 1.356 . S
C102 C99 1.358 . S
C102 H158 0.930 . S
C103 N100 1.314 . S
C103 C101 1.353 . S
C103 H159 0.930 . S
C104 N105 1.314 . S
C104 C109 1.353 . S
C104 H110 0.930 . S
N105 Li88 1.990 . S
N105 C104 1.314 . S
N105 C107 1.279 . S
C106 C107 1.358 . S
C106 C108 1.356 . S
C106 H160 0.930 . S
C107 N105 1.279 . S
C107 C106 1.358 . S
C107 H111 0.930 . S
C108 C106 1.356 . S
C108 C109 1.348 . S
C109 C104 1.353 . S
C109 C108 1.348 . S
C109 H161 0.929 . S
H110 C104 0.930 . S
H111 C107 0.930 . S
C112 N113 1.314 . S
C112 C114 1.353 . S
C112 H118 0.930 . S
N113 Li89 1.990 . S
N113 C112 1.314 . S
N113 C116 1.279 . S
C114 C112 1.353 . S
C114 C117 1.348 . S
C114 H162 0.929 . S
C115 C116 1.358 . S
C115 C117 1.356 . S
C115 H163 0.930 . S
C116 N113 1.279 . S
C116 C115 1.358 . S
C116 H119 0.930 . S
C117 C114 1.348 . S
C117 C115 1.356 . S
H118 C112 0.930 . S
H119 C116 0.930 . S
C120 C122 1.348 . S
C120 C123 1.356 . S
C120 O150 1.325 . S
N121 C124 1.314 . S
N121 C125 1.279 . S
C122 C120 1.348 . S
C122 C124 1.353 . S
C122 H164 0.929 . S
C123 C120 1.356 . S
C123 C125 1.358 . S
C123 H165 0.930 . S
C124 N121 1.314 . S
C124 C122 1.353 . S
C124 H166 0.930 . S
C125 N121 1.279 . S
C125 C123 1.358 . S
C125 H167 0.930 . S
C126 C127 1.348 . S
C126 C128 1.356 . S
C126 O151 1.325 . S
C127 C126 1.348 . S
C127 C129 1.353 . S
C127 H168 0.929 . S
C128 C126 1.356 . S
C128 C130 1.358 . S
C128 H169 0.930 . S
C129 C127 1.353 . S
C129 N131 1.314 . S
C129 H170 0.930 . S
C130 C128 1.358 . S
C130 N131 1.279 . S
C130 H171 0.930 . S
N131 C129 1.314 . S
N131 C130 1.279 . S
C132 C134 1.353 . S
C132 N135 1.314 . S
C132 H138 0.930 . S
C133 N135 1.279 . S
C133 C136 1.358 . S
C133 H139 0.930 . S
C134 C132 1.353 . S
C134 C137 1.348 . S
C134 H172 0.929 . S
N135 Li90 1.990 . S
N135 C132 1.314 . S
N135 C133 1.279 . S
C136 C133 1.358 . S
C136 C137 1.356 . S
C136 H173 0.930 . S
C137 C134 1.348 . S
C137 C136 1.356 . S
H138 C132 0.930 . S
H139 C133 0.930 . S
C140 N141 1.314 . S
C140 C142 1.353 . S
C140 H146 0.930 . S
N141 Li91 1.990 . S
N141 C140 1.314 . S
N141 C144 1.279 . S
C142 C140 1.353 . S
C142 C145 1.348 . S
C142 H174 0.929 . S
C143 C144 1.358 . S
C143 C145 1.356 . S
C143 H175 0.930 . S
C144 N141 1.279 . S
C144 C143 1.358 . S
C144 H147 0.930 . S
C145 C142 1.348 . S
C145 C143 1.356 . S
H146 C140 0.930 . S
H147 C144 0.930 . S
O148 Li88 1.956 . S
O148 Li89 1.970 . S
O148 Li90 1.961 . S
O148 C92 1.325 . S
O149 Li88 1.970 . S
O149 Li89 1.956 . S
O149 Li91 1.961 . S
O149 C98 1.325 . S
O150 Li88 1.961 . S
O150 Li90 1.956 . S
O150 Li91 1.970 . S
O150 C120 1.325 . S
O151 Li89 1.961 . S
O151 Li90 1.970 . S
O151 Li91 1.956 . S
O151 C126 1.325 . S
H152 C94 0.929 . S
H153 C95 0.930 . S
H154 C96 0.930 . S
H155 C97 0.930 . S
H156 C99 0.930 . S
H157 C101 0.929 . S
H158 C102 0.930 . S
H159 C103 0.930 . S
H160 C106 0.930 . S
H161 C109 0.929 . S
H162 C114 0.929 . S
H163 C115 0.930 . S
H164 C122 0.929 . S
H165 C123 0.930 . S
H166 C124 0.930 . S
H167 C125 0.930 . S
H168 C127 0.929 . S
H169 C128 0.930 . S
H170 C129 0.930 . S
H171 C130 0.930 . S
H172 C134 0.929 . S
H173 C136 0.930 . S
H174 C142 0.929 . S
H175 C143 0.930 . S
Li176 N193 1.990 . S
Li176 O236 1.956 . S
Li176 O237 1.970 . S
Li176 O238 1.961 . S
Li177 N201 1.990 . S
Li177 O236 1.970 . S
Li177 O237 1.956 . S
Li177 O239 1.961 . S
Li178 N223 1.990 . S
Li178 O236 1.961 . S
Li178 O238 1.956 . S
Li178 O239 1.970 . S
Li179 N229 1.990 . S
Li179 O237 1.961 . S
Li179 O238 1.970 . S
Li179 O239 1.956 . S
C180 C182 1.348 . S
C180 C183 1.356 . S
C180 O236 1.325 . S
N181 C184 1.314 . S
N181 C185 1.279 . S
C182 C180 1.348 . S
C182 C184 1.353 . S
C182 H240 0.929 . S
C183 C180 1.356 . S
C183 C185 1.358 . S
C183 H241 0.930 . S
C184 N181 1.314 . S
C184 C182 1.353 . S
C184 H242 0.930 . S
C185 N181 1.279 . S
C185 C183 1.358 . S
C185 H243 0.930 . S
C186 C189 1.348 . S
C186 C190 1.356 . S
C186 O237 1.325 . S
C187 N188 1.279 . S
C187 C190 1.358 . S
C187 H244 0.930 . S
N188 C187 1.279 . S
N188 C191 1.314 . S
C189 C186 1.348 . S
C189 C191 1.353 . S
C189 H245 0.929 . S
C190 C186 1.356 . S
C190 C187 1.358 . S
C190 H246 0.930 . S
C191 N188 1.314 . S
C191 C189 1.353 . S
C191 H247 0.930 . S
C192 N193 1.314 . S
C192 C197 1.353 . S
C192 H198 0.930 . S
N193 Li176 1.990 . S
N193 C192 1.314 . S
N193 C195 1.279 . S
C194 C195 1.358 . S
C194 C196 1.356 . S
C194 H248 0.930 . S
C195 N193 1.279 . S
C195 C194 1.358 . S
C195 H199 0.930 . S
C196 C194 1.356 . S
C196 C197 1.348 . S
C197 C192 1.353 . S
C197 C196 1.348 . S
C197 H249 0.929 . S
H198 C192 0.930 . S
H199 C195 0.930 . S
C200 N201 1.314 . S
C200 C202 1.353 . S
C200 H206 0.930 . S
N201 Li177 1.990 . S
N201 C200 1.314 . S
N201 C204 1.279 . S
C202 C200 1.353 . S
C202 C205 1.348 . S
C202 H250 0.929 . S
C203 C204 1.358 . S
C203 C205 1.356 . S
C203 H251 0.930 . S
C204 N201 1.279 . S
C204 C203 1.358 . S
C204 H207 0.930 . S
C205 C202 1.348 . S
C205 C203 1.356 . S
H206 C200 0.930 . S
H207 C204 0.930 . S
C208 C210 1.348 . S
C208 C211 1.356 . S
C208 O238 1.325 . S
N209 C212 1.314 . S
N209 C213 1.279 . S
C210 C208 1.348 . S
C210 C212 1.353 . S
C210 H252 0.929 . S
C211 C208 1.356 . S
C211 C213 1.358 . S
C211 H253 0.930 . S
C212 N209 1.314 . S
C212 C210 1.353 . S
C212 H254 0.930 . S
C213 N209 1.279 . S
C213 C211 1.358 . S
C213 H255 0.930 . S
C214 C215 1.348 . S
C214 C216 1.356 . S
C214 O239 1.325 . S
C215 C214 1.348 . S
C215 C217 1.353 . S
C215 H256 0.929 . S
C216 C214 1.356 . S
C216 C218 1.358 . S
C216 H257 0.930 . S
C217 C215 1.353 . S
C217 N219 1.314 . S
C217 H258 0.930 . S
C218 C216 1.358 . S
C218 N219 1.279 . S
C218 H259 0.930 . S
N219 C217 1.314 . S
N219 C218 1.279 . S
C220 C222 1.353 . S
C220 N223 1.314 . S
C220 H226 0.930 . S
C221 N223 1.279 . S
C221 C224 1.358 . S
C221 H227 0.930 . S
C222 C220 1.353 . S
C222 C225 1.348 . S
C222 H260 0.929 . S
N223 Li178 1.990 . S
N223 C220 1.314 . S
N223 C221 1.279 . S
C224 C221 1.358 . S
C224 C225 1.356 . S
C224 H261 0.930 . S
C225 C222 1.348 . S
C225 C224 1.356 . S
H226 C220 0.930 . S
H227 C221 0.930 . S
C228 N229 1.314 . S
C228 C230 1.353 . S
C228 H234 0.930 . S
N229 Li179 1.990 . S
N229 C228 1.314 . S
N229 C232 1.279 . S
C230 C228 1.353 . S
C230 C233 1.348 . S
C230 H262 0.929 . S
C231 C232 1.358 . S
C231 C233 1.356 . S
C231 H263 0.930 . S
C232 N229 1.279 . S
C232 C231 1.358 . S
C232 H235 0.930 . S
C233 C230 1.348 . S
C233 C231 1.356 . S
H234 C228 0.930 . S
H235 C232 0.930 . S
O236 Li176 1.956 . S
O236 Li177 1.970 . S
O236 Li178 1.961 . S
O236 C180 1.325 . S
O237 Li176 1.970 . S
O237 Li177 1.956 . S
O237 Li179 1.961 . S
O237 C186 1.325 . S
O238 Li176 1.961 . S
O238 Li178 1.956 . S
O238 Li179 1.970 . S
O238 C208 1.325 . S
O239 Li177 1.961 . S
O239 Li178 1.970 . S
O239 Li179 1.956 . S
O239 C214 1.325 . S
H240 C182 0.929 . S
H241 C183 0.930 . S
H242 C184 0.930 . S
H243 C185 0.930 . S
H244 C187 0.930 . S
H245 C189 0.929 . S
H246 C190 0.930 . S
H247 C191 0.930 . S
H248 C194 0.930 . S
H249 C197 0.929 . S
H250 C202 0.929 . S
H251 C203 0.930 . S
H252 C210 0.929 . S
H253 C211 0.930 . S
H254 C212 0.930 . S
H255 C213 0.930 . S
H256 C215 0.929 . S
H257 C216 0.930 . S
H258 C217 0.930 . S
H259 C218 0.930 . S
H260 C222 0.929 . S
H261 C224 0.930 . S
H262 C230 0.929 . S
H263 C231 0.930 . S
Li264 N281 1.990 . S
Li264 O324 1.956 . S
Li264 O325 1.970 . S
Li264 O326 1.961 . S
Li265 N289 1.990 . S
Li265 O324 1.970 . S
Li265 O325 1.956 . S
Li265 O327 1.961 . S
Li266 N311 1.990 . S
Li266 O324 1.961 . S
Li266 O326 1.956 . S
Li266 O327 1.970 . S
Li267 N317 1.990 . S
Li267 O325 1.961 . S
Li267 O326 1.970 . S
Li267 O327 1.956 . S
C268 C270 1.348 . S
C268 C271 1.356 . S
C268 O324 1.325 . S
N269 C272 1.314 . S
N269 C273 1.279 . S
C270 C268 1.348 . S
C270 C272 1.353 . S
C270 H328 0.929 . S
C271 C268 1.356 . S
C271 C273 1.358 . S
C271 H329 0.930 . S
C272 N269 1.314 . S
C272 C270 1.353 . S
C272 H330 0.930 . S
C273 N269 1.279 . S
C273 C271 1.358 . S
C273 H331 0.930 . S
C274 C277 1.348 . S
C274 C278 1.356 . S
C274 O325 1.325 . S
C275 N276 1.279 . S
C275 C278 1.358 . S
C275 H332 0.930 . S
N276 C275 1.279 . S
N276 C279 1.314 . S
C277 C274 1.348 . S
C277 C279 1.353 . S
C277 H333 0.929 . S
C278 C274 1.356 . S
C278 C275 1.358 . S
C278 H334 0.930 . S
C279 N276 1.314 . S
C279 C277 1.353 . S
C279 H335 0.930 . S
C280 N281 1.314 . S
C280 C285 1.353 . S
C280 H286 0.930 . S
N281 Li264 1.990 . S
N281 C280 1.314 . S
N281 C283 1.279 . S
C282 C283 1.358 . S
C282 C284 1.356 . S
C282 H336 0.930 . S
C283 N281 1.279 . S
C283 C282 1.358 . S
C283 H287 0.930 . S
C284 C282 1.356 . S
C284 C285 1.348 . S
C285 C280 1.353 . S
C285 C284 1.348 . S
C285 H337 0.929 . S
H286 C280 0.930 . S
H287 C283 0.930 . S
C288 N289 1.314 . S
C288 C290 1.353 . S
C288 H294 0.930 . S
N289 Li265 1.990 . S
N289 C288 1.314 . S
N289 C292 1.279 . S
C290 C288 1.353 . S
C290 C293 1.348 . S
C290 H338 0.929 . S
C291 C292 1.358 . S
C291 C293 1.356 . S
C291 H339 0.930 . S
C292 N289 1.279 . S
C292 C291 1.358 . S
C292 H295 0.930 . S
C293 C290 1.348 . S
C293 C291 1.356 . S
H294 C288 0.930 . S
H295 C292 0.930 . S
C296 C298 1.348 . S
C296 C299 1.356 . S
C296 O326 1.325 . S
N297 C300 1.314 . S
N297 C301 1.279 . S
C298 C296 1.348 . S
C298 C300 1.353 . S
C298 H340 0.929 . S
C299 C296 1.356 . S
C299 C301 1.358 . S
C299 H341 0.930 . S
C300 N297 1.314 . S
C300 C298 1.353 . S
C300 H342 0.930 . S
C301 N297 1.279 . S
C301 C299 1.358 . S
C301 H343 0.930 . S
C302 C303 1.348 . S
C302 C304 1.356 . S
C302 O327 1.325 . S
C303 C302 1.348 . S
C303 C305 1.353 . S
C303 H344 0.929 . S
C304 C302 1.356 . S
C304 C306 1.358 . S
C304 H345 0.930 . S
C305 C303 1.353 . S
C305 N307 1.314 . S
C305 H346 0.930 . S
C306 C304 1.358 . S
C306 N307 1.279 . S
C306 H347 0.930 . S
N307 C305 1.314 . S
N307 C306 1.279 . S
C308 C310 1.353 . S
C308 N311 1.314 . S
C308 H314 0.930 . S
C309 N311 1.279 . S
C309 C312 1.358 . S
C309 H315 0.930 . S
C310 C308 1.353 . S
C310 C313 1.348 . S
C310 H348 0.929 . S
N311 Li266 1.990 . S
N311 C308 1.314 . S
N311 C309 1.279 . S
C312 C309 1.358 . S
C312 C313 1.356 . S
C312 H349 0.930 . S
C313 C310 1.348 . S
C313 C312 1.356 . S
H314 C308 0.930 . S
H315 C309 0.930 . S
C316 N317 1.314 . S
C316 C318 1.353 . S
C316 H322 0.930 . S
N317 Li267 1.990 . S
N317 C316 1.314 . S
N317 C320 1.279 . S
C318 C316 1.353 . S
C318 C321 1.348 . S
C318 H350 0.929 . S
C319 C320 1.358 . S
C319 C321 1.356 . S
C319 H351 0.930 . S
C320 N317 1.279 . S
C320 C319 1.358 . S
C320 H323 0.930 . S
C321 C318 1.348 . S
C321 C319 1.356 . S
H322 C316 0.930 . S
H323 C320 0.930 . S
O324 Li264 1.956 . S
O324 Li265 1.970 . S
O324 Li266 1.961 . S
O324 C268 1.325 . S
O325 Li264 1.970 . S
O325 Li265 1.956 . S
O325 Li267 1.961 . S
O325 C274 1.325 . S
O326 Li264 1.961 . S
O326 Li266 1.956 . S
O326 Li267 1.970 . S
O326 C296 1.325 . S
O327 Li265 1.961 . S
O327 Li266 1.970 . S
O327 Li267 1.956 . S
O327 C302 1.325 . S
H328 C270 0.929 . S
H329 C271 0.930 . S
H330 C272 0.930 . S
H331 C273 0.930 . S
H332 C275 0.930 . S
H333 C277 0.929 . S
H334 C278 0.930 . S
H335 C279 0.930 . S
H336 C282 0.930 . S
H337 C285 0.929 . S
H338 C290 0.929 . S
H339 C291 0.930 . S
H340 C298 0.929 . S
H341 C299 0.930 . S
H342 C300 0.930 . S
H343 C301 0.930 . S
H344 C303 0.929 . S
H345 C304 0.930 . S
H346 C305 0.930 . S
H347 C306 0.930 . S
H348 C310 0.929 . S
H349 C312 0.930 . S
H350 C318 0.929 . S
H351 C319 0.930 . S
Li352 N369 1.990 . S
Li352 O412 1.956 . S
Li352 O413 1.970 . S
Li352 O414 1.961 . S
Li353 N377 1.990 . S
Li353 O412 1.970 . S
Li353 O413 1.956 . S
Li353 O415 1.961 . S
Li354 N399 1.990 . S
Li354 O412 1.961 . S
Li354 O414 1.956 . S
Li354 O415 1.970 . S
Li355 N405 1.990 . S
Li355 O413 1.961 . S
Li355 O414 1.970 . S
Li355 O415 1.956 . S
C356 C358 1.348 . S
C356 C359 1.356 . S
C356 O412 1.325 . S
N357 C360 1.314 . S
N357 C361 1.279 . S
C358 C356 1.348 . S
C358 C360 1.353 . S
C358 H416 0.929 . S
C359 C356 1.356 . S
C359 C361 1.358 . S
C359 H417 0.930 . S
C360 N357 1.314 . S
C360 C358 1.353 . S
C360 H418 0.930 . S
C361 N357 1.279 . S
C361 C359 1.358 . S
C361 H419 0.930 . S
C362 C365 1.348 . S
C362 C366 1.356 . S
C362 O413 1.325 . S
C363 N364 1.279 . S
C363 C366 1.358 . S
C363 H420 0.930 . S
N364 C363 1.279 . S
N364 C367 1.314 . S
C365 C362 1.348 . S
C365 C367 1.353 . S
C365 H421 0.929 . S
C366 C362 1.356 . S
C366 C363 1.358 . S
C366 H422 0.930 . S
C367 N364 1.314 . S
C367 C365 1.353 . S
C367 H423 0.930 . S
C368 N369 1.314 . S
C368 C373 1.353 . S
C368 H374 0.930 . S
N369 Li352 1.990 . S
N369 C368 1.314 . S
N369 C371 1.279 . S
C370 C371 1.358 . S
C370 C372 1.356 . S
C370 H424 0.930 . S
C371 N369 1.279 . S
C371 C370 1.358 . S
C371 H375 0.930 . S
C372 C370 1.356 . S
C372 C373 1.348 . S
C373 C368 1.353 . S
C373 C372 1.348 . S
C373 H425 0.929 . S
H374 C368 0.930 . S
H375 C371 0.930 . S
C376 N377 1.314 . S
C376 C378 1.353 . S
C376 H382 0.930 . S
N377 Li353 1.990 . S
N377 C376 1.314 . S
N377 C380 1.279 . S
C378 C376 1.353 . S
C378 C381 1.348 . S
C378 H426 0.929 . S
C379 C380 1.358 . S
C379 C381 1.356 . S
C379 H427 0.930 . S
C380 N377 1.279 . S
C380 C379 1.358 . S
C380 H383 0.930 . S
C381 C378 1.348 . S
C381 C379 1.356 . S
H382 C376 0.930 . S
H383 C380 0.930 . S
C384 C386 1.348 . S
C384 C387 1.356 . S
C384 O414 1.325 . S
N385 C388 1.314 . S
N385 C389 1.279 . S
C386 C384 1.348 . S
C386 C388 1.353 . S
C386 H428 0.929 . S
C387 C384 1.356 . S
C387 C389 1.358 . S
C387 H429 0.930 . S
C388 N385 1.314 . S
C388 C386 1.353 . S
C388 H430 0.930 . S
C389 N385 1.279 . S
C389 C387 1.358 . S
C389 H431 0.930 . S
C390 C391 1.348 . S
C390 C392 1.356 . S
C390 O415 1.325 . S
C391 C390 1.348 . S
C391 C393 1.353 . S
C391 H432 0.929 . S
C392 C390 1.356 . S
C392 C394 1.358 . S
C392 H433 0.930 . S
C393 C391 1.353 . S
C393 N395 1.314 . S
C393 H434 0.930 . S
C394 C392 1.358 . S
C394 N395 1.279 . S
C394 H435 0.930 . S
N395 C393 1.314 . S
N395 C394 1.279 . S
C396 C398 1.353 . S
C396 N399 1.314 . S
C396 H402 0.930 . S
C397 N399 1.279 . S
C397 C400 1.358 . S
C397 H403 0.930 . S
C398 C396 1.353 . S
C398 C401 1.348 . S
C398 H436 0.929 . S
N399 Li354 1.990 . S
N399 C396 1.314 . S
N399 C397 1.279 . S
C400 C397 1.358 . S
C400 C401 1.356 . S
C400 H437 0.930 . S
C401 C398 1.348 . S
C401 C400 1.356 . S
H402 C396 0.930 . S
H403 C397 0.930 . S
C404 N405 1.314 . S
C404 C406 1.353 . S
C404 H410 0.930 . S
N405 Li355 1.990 . S
N405 C404 1.314 . S
N405 C408 1.279 . S
C406 C404 1.353 . S
C406 C409 1.348 . S
C406 H438 0.929 . S
C407 C408 1.358 . S
C407 C409 1.356 . S
C407 H439 0.930 . S
C408 N405 1.279 . S
C408 C407 1.358 . S
C408 H411 0.930 . S
C409 C406 1.348 . S
C409 C407 1.356 . S
H410 C404 0.930 . S
H411 C408 0.930 . S
O412 Li352 1.956 . S
O412 Li353 1.970 . S
O412 Li354 1.961 . S
O412 C356 1.325 . S
O413 Li352 1.970 . S
O413 Li353 1.956 . S
O413 Li355 1.961 . S
O413 C362 1.325 . S
O414 Li352 1.961 . S
O414 Li354 1.956 . S
O414 Li355 1.970 . S
O414 C384 1.325 . S
O415 Li353 1.961 . S
O415 Li354 1.970 . S
O415 Li355 1.956 . S
O415 C390 1.325 . S
H416 C358 0.929 . S
H417 C359 0.930 . S
H418 C360 0.930 . S
H419 C361 0.930 . S
H420 C363 0.930 . S
H421 C365 0.929 . S
H422 C366 0.930 . S
H423 C367 0.930 . S
H424 C370 0.930 . S
H425 C373 0.929 . S
H426 C378 0.929 . S
H427 C379 0.930 . S
H428 C386 0.929 . S
H429 C387 0.930 . S
H430 C388 0.930 . S
H431 C389 0.930 . S
H432 C391 0.929 . S
H433 C392 0.930 . S
H434 C393 0.930 . S
H435 C394 0.930 . S
H436 C398 0.929 . S
H437 C400 0.930 . S
H438 C406 0.929 . S
H439 C407 0.930 . S
Li440 N457 1.990 . S
Li440 O500 1.956 . S
Li440 O501 1.970 . S
Li440 O502 1.961 . S
Li441 N465 1.990 . S
Li441 O500 1.970 . S
Li441 O501 1.956 . S
Li441 O503 1.961 . S
Li442 N487 1.990 . S
Li442 O500 1.961 . S
Li442 O502 1.956 . S
Li442 O503 1.970 . S
Li443 N493 1.990 . S
Li443 O501 1.961 . S
Li443 O502 1.970 . S
Li443 O503 1.956 . S
C444 C446 1.348 . S
C444 C447 1.356 . S
C444 O500 1.325 . S
N445 C448 1.314 . S
N445 C449 1.279 . S
C446 C444 1.348 . S
C446 C448 1.353 . S
C446 H504 0.929 . S
C447 C444 1.356 . S
C447 C449 1.358 . S
C447 H505 0.930 . S
C448 N445 1.314 . S
C448 C446 1.353 . S
C448 H506 0.930 . S
C449 N445 1.279 . S
C449 C447 1.358 . S
C449 H507 0.930 . S
C450 C453 1.348 . S
C450 C454 1.356 . S
C450 O501 1.325 . S
C451 N452 1.279 . S
C451 C454 1.358 . S
C451 H508 0.930 . S
N452 C451 1.279 . S
N452 C455 1.314 . S
C453 C450 1.348 . S
C453 C455 1.353 . S
C453 H509 0.929 . S
C454 C450 1.356 . S
C454 C451 1.358 . S
C454 H510 0.930 . S
C455 N452 1.314 . S
C455 C453 1.353 . S
C455 H511 0.930 . S
C456 N457 1.314 . S
C456 C461 1.353 . S
C456 H462 0.930 . S
N457 Li440 1.990 . S
N457 C456 1.314 . S
N457 C459 1.279 . S
C458 C459 1.358 . S
C458 C460 1.356 . S
C458 H512 0.930 . S
C459 N457 1.279 . S
C459 C458 1.358 . S
C459 H463 0.930 . S
C460 C458 1.356 . S
C460 C461 1.348 . S
C461 C456 1.353 . S
C461 C460 1.348 . S
C461 H513 0.929 . S
H462 C456 0.930 . S
H463 C459 0.930 . S
C464 N465 1.314 . S
C464 C466 1.353 . S
C464 H470 0.930 . S
N465 Li441 1.990 . S
N465 C464 1.314 . S
N465 C468 1.279 . S
C466 C464 1.353 . S
C466 C469 1.323 1_556 S
C466 H514 0.929 . S
C467 C468 1.358 1_554 S
C467 C469 1.357 . S
C467 H515 0.930 . S
C468 N465 1.279 . S
C468 C467 1.358 1_556 S
C468 H471 0.930 . S
C469 C466 1.323 1_554 S
C469 C467 1.357 . S
H470 C464 0.930 . S
H471 C468 0.930 . S
C472 C474 1.348 . S
C472 C475 1.356 . S
C472 O502 1.325 . S
N473 C476 1.314 . S
N473 C477 1.279 . S
C474 C472 1.348 . S
C474 C476 1.353 . S
C474 H516 0.929 . S
C475 C472 1.356 . S
C475 C477 1.358 . S
C475 H517 0.930 . S
C476 N473 1.314 . S
C476 C474 1.353 . S
C476 H518 0.930 . S
C477 N473 1.279 . S
C477 C475 1.358 . S
C477 H519 0.930 . S
C478 C479 1.348 . S
C478 C480 1.356 . S
C478 O503 1.325 . S
C479 C478 1.348 . S
C479 C481 1.353 . S
C479 H520 0.929 . S
C480 C478 1.356 . S
C480 C482 1.358 . S
C480 H521 0.930 . S
C481 C479 1.353 . S
C481 N483 1.314 . S
C481 H522 0.930 . S
C482 C480 1.358 . S
C482 N483 1.279 . S
C482 H523 0.930 . S
N483 C481 1.314 . S
N483 C482 1.279 . S
C484 C486 1.353 . S
C484 N487 1.314 . S
C484 H490 0.930 . S
C485 N487 1.279 . S
C485 C488 1.358 . S
C485 H491 0.930 . S
C486 C484 1.353 . S
C486 C489 1.348 . S
C486 H524 0.929 . S
N487 Li442 1.990 . S
N487 C484 1.314 . S
N487 C485 1.279 . S
C488 C485 1.358 . S
C488 C489 1.356 . S
C488 H525 0.930 . S
C489 C486 1.348 . S
C489 C488 1.356 . S
H490 C484 0.930 . S
H491 C485 0.930 . S
C492 N493 1.314 . S
C492 C494 1.353 . S
C492 H498 0.930 . S
N493 Li443 1.990 . S
N493 C492 1.314 . S
N493 C496 1.279 . S
C494 C492 1.353 . S
C494 C497 1.348 . S
C494 H526 0.929 . S
C495 C496 1.358 . S
C495 C497 1.356 . S
C495 H527 0.930 . S
C496 N493 1.279 . S
C496 C495 1.358 . S
C496 H499 0.930 . S
C497 C494 1.348 . S
C497 C495 1.356 . S
H498 C492 0.930 . S
H499 C496 0.930 . S
O500 Li440 1.956 . S
O500 Li441 1.970 . S
O500 Li442 1.961 . S
O500 C444 1.325 . S
O501 Li440 1.970 . S
O501 Li441 1.956 . S
O501 Li443 1.961 . S
O501 C450 1.325 . S
O502 Li440 1.961 . S
O502 Li442 1.956 . S
O502 Li443 1.970 . S
O502 C472 1.325 . S
O503 Li441 1.961 . S
O503 Li442 1.970 . S
O503 Li443 1.956 . S
O503 C478 1.325 . S
H504 C446 0.929 . S
H505 C447 0.930 . S
H506 C448 0.930 . S
H507 C449 0.930 . S
H508 C451 0.930 . S
H509 C453 0.929 . S
H510 C454 0.930 . S
H511 C455 0.930 . S
H512 C458 0.930 . S
H513 C461 0.929 . S
H514 C466 0.929 . S
H515 C467 0.930 . S
H516 C474 0.929 . S
H517 C475 0.930 . S
H518 C476 0.930 . S
H519 C477 0.930 . S
H520 C479 0.929 . S
H521 C480 0.930 . S
H522 C481 0.930 . S
H523 C482 0.930 . S
H524 C486 0.929 . S
H525 C488 0.930 . S
H526 C494 0.929 . S
H527 C495 0.930 . S
Li528 N545 1.990 . S
Li528 O588 1.956 . S
Li528 O589 1.970 . S
Li528 O590 1.961 . S
Li529 N553 1.990 . S
Li529 O588 1.970 . S
Li529 O589 1.956 . S
Li529 O591 1.961 . S
Li530 N575 1.990 . S
Li530 O588 1.961 . S
Li530 O590 1.956 . S
Li530 O591 1.970 . S
Li531 N581 1.990 . S
Li531 O589 1.961 . S
Li531 O590 1.970 . S
Li531 O591 1.956 . S
C532 C534 1.348 . S
C532 C535 1.356 . S
C532 O588 1.325 . S
N533 C536 1.314 . S
N533 C537 1.279 . S
C534 C532 1.348 . S
C534 C536 1.353 . S
C534 H592 0.929 . S
C535 C532 1.356 . S
C535 C537 1.358 . S
C535 H593 0.930 . S
C536 N533 1.314 . S
C536 C534 1.353 . S
C536 H594 0.930 . S
C537 N533 1.279 . S
C537 C535 1.358 . S
C537 H595 0.930 . S
C538 C541 1.348 . S
C538 C542 1.356 . S
C538 O589 1.325 . S
C539 N540 1.279 1_556 S
C539 C542 1.358 . S
C539 H596 0.930 . S
N540 C539 1.279 1_554 S
N540 C543 1.314 1_554 S
C541 C538 1.348 . S
C541 C543 1.353 . S
C541 H597 0.929 . S
C542 C538 1.356 . S
C542 C539 1.358 . S
C542 H598 0.930 . S
C543 N540 1.314 1_556 S
C543 C541 1.353 . S
C543 H599 0.930 1_556 S
C544 N545 1.314 . S
C544 C549 1.353 . S
C544 H550 0.930 . S
N545 Li528 1.990 . S
N545 C544 1.314 . S
N545 C547 1.279 . S
C546 C547 1.358 . S
C546 C548 1.356 . S
C546 H600 0.930 . S
C547 N545 1.279 . S
C547 C546 1.358 . S
C547 H551 0.930 . S
C548 C546 1.356 . S
C548 C549 1.348 . S
C549 C544 1.353 . S
C549 C548 1.348 . S
C549 H601 0.929 . S
H550 C544 0.930 . S
H551 C547 0.930 . S
C552 N553 1.314 . S
C552 C554 1.353 . S
C552 H558 0.930 . S
N553 Li529 1.990 . S
N553 C552 1.314 . S
N553 C556 1.279 . S
C554 C552 1.353 . S
C554 C557 1.348 1_556 S
C554 H602 0.929 . S
C555 C556 1.358 1_554 S
C555 C557 1.356 . S
C555 H603 0.930 . S
C556 N553 1.279 . S
C556 C555 1.358 1_556 S
C556 H559 0.930 . S
C557 C554 1.348 1_554 S
C557 C555 1.356 . S
H558 C552 0.930 . S
H559 C556 0.930 . S
C560 C562 1.348 . S
C560 C563 1.356 . S
C560 O590 1.325 . S
N561 C564 1.314 . S
N561 C565 1.279 . S
C562 C560 1.348 . S
C562 C564 1.353 . S
C562 H604 0.929 . S
C563 C560 1.356 . S
C563 C565 1.358 . S
C563 H605 0.930 . S
C564 N561 1.314 . S
C564 C562 1.353 . S
C564 H606 0.930 . S
C565 N561 1.279 . S
C565 C563 1.358 . S
C565 H607 0.930 . S
C566 C567 1.348 . S
C566 C568 1.356 . S
C566 O591 1.325 . S
C567 C566 1.348 . S
C567 C569 1.353 . S
C567 H608 0.929 . S
C568 C566 1.356 . S
C568 C570 1.358 . S
C568 H609 0.930 . S
C569 C567 1.353 . S
C569 N571 1.314 . S
C569 H610 0.930 . S
C570 C568 1.358 . S
C570 N571 1.279 . S
C570 H611 0.930 . S
N571 C569 1.314 . S
N571 C570 1.279 . S
C572 C574 1.353 . S
C572 N575 1.314 . S
C572 H578 0.930 . S
C573 N575 1.279 . S
C573 C576 1.358 . S
C573 H579 0.930 . S
C574 C572 1.353 . S
C574 C577 1.348 . S
C574 H612 0.929 . S
N575 Li530 1.990 . S
N575 C572 1.314 . S
N575 C573 1.279 . S
C576 C573 1.358 . S
C576 C577 1.356 . S
C576 H613 0.930 . S
C577 C574 1.348 . S
C577 C576 1.356 . S
H578 C572 0.930 . S
H579 C573 0.930 . S
C580 N581 1.314 . S
C580 C582 1.353 . S
C580 H586 0.930 . S
N581 Li531 1.990 . S
N581 C580 1.314 . S
N581 C584 1.279 . S
C582 C580 1.353 . S
C582 C585 1.348 . S
C582 H614 0.929 . S
C583 C584 1.358 . S
C583 C585 1.356 . S
C583 H615 0.930 . S
C584 N581 1.279 . S
C584 C583 1.358 . S
C584 H587 0.930 . S
C585 C582 1.348 . S
C585 C583 1.356 . S
H586 C580 0.930 . S
H587 C584 0.930 . S
O588 Li528 1.956 . S
O588 Li529 1.970 . S
O588 Li530 1.961 . S
O588 C532 1.325 . S
O589 Li528 1.970 . S
O589 Li529 1.956 . S
O589 Li531 1.961 . S
O589 C538 1.325 . S
O590 Li528 1.961 . S
O590 Li530 1.956 . S
O590 Li531 1.970 . S
O590 C560 1.325 . S
O591 Li529 1.961 . S
O591 Li530 1.970 . S
O591 Li531 1.956 . S
O591 C566 1.325 . S
H592 C534 0.929 . S
H593 C535 0.930 . S
H594 C536 0.930 . S
H595 C537 0.930 . S
H596 C539 0.930 . S
H597 C541 0.929 . S
H598 C542 0.930 . S
H599 C543 0.930 1_554 S
H600 C546 0.930 . S
H601 C549 0.929 . S
H602 C554 0.929 . S
H603 C555 0.930 . S
H604 C562 0.929 . S
H605 C563 0.930 . S
H606 C564 0.930 . S
H607 C565 0.930 . S
H608 C567 0.929 . S
H609 C568 0.930 . S
H610 C569 0.930 . S
H611 C570 0.930 . S
H612 C574 0.929 . S
H613 C576 0.930 . S
H614 C582 0.929 . S
H615 C583 0.930 . S
Li616 N633 1.990 . S
Li616 O676 1.956 . S
Li616 O677 1.970 . S
Li616 O678 1.961 . S
Li617 N641 1.990 . S
Li617 O676 1.970 . S
Li617 O677 1.956 . S
Li617 O679 1.961 . S
Li618 N663 1.990 . S
Li618 O676 1.961 . S
Li618 O678 1.956 . S
Li618 O679 1.970 . S
Li619 N669 1.990 1_554 S
Li619 O677 1.961 . S
Li619 O678 1.970 . S
Li619 O679 1.956 . S
C620 C622 1.348 . S
C620 C623 1.356 . S
C620 O676 1.325 . S
N621 C624 1.314 . S
N621 C625 1.279 . S
C622 C620 1.348 . S
C622 C624 1.353 . S
C622 H680 0.929 . S
C623 C620 1.356 . S
C623 C625 1.358 . S
C623 H681 0.930 . S
C624 N621 1.314 . S
C624 C622 1.353 . S
C624 H682 0.930 . S
C625 N621 1.279 . S
C625 C623 1.358 . S
C625 H683 0.930 . S
C626 C629 1.348 . S
C626 C630 1.356 . S
C626 O677 1.325 . S
C627 N628 1.279 . S
C627 C630 1.358 . S
C627 H684 0.930 . S
N628 C627 1.279 . S
N628 C631 1.314 . S
C629 C626 1.348 . S
C629 C631 1.353 . S
C629 H685 0.929 . S
C630 C626 1.356 . S
C630 C627 1.358 . S
C630 H686 0.930 . S
C631 N628 1.314 . S
C631 C629 1.353 . S
C631 H687 0.930 . S
C632 N633 1.314 . S
C632 C637 1.353 . S
C632 H638 0.930 . S
N633 Li616 1.990 . S
N633 C632 1.314 . S
N633 C635 1.279 . S
C634 C635 1.358 . S
C634 C636 1.356 . S
C634 H688 0.930 . S
C635 N633 1.279 . S
C635 C634 1.358 . S
C635 H639 0.930 . S
C636 C634 1.356 . S
C636 C637 1.348 . S
C637 C632 1.353 . S
C637 C636 1.348 . S
C637 H689 0.929 . S
H638 C632 0.930 . S
H639 C635 0.930 . S
C640 N641 1.314 . S
C640 C642 1.353 . S
C640 H646 0.930 . S
N641 Li617 1.990 . S
N641 C640 1.314 . S
N641 C644 1.279 . S
C642 C640 1.353 . S
C642 C645 1.348 . S
C642 H690 0.929 . S
C643 C644 1.358 . S
C643 C645 1.356 . S
C643 H691 0.930 . S
C644 N641 1.279 . S
C644 C643 1.358 . S
C644 H647 0.930 . S
C645 C642 1.348 . S
C645 C643 1.356 . S
H646 C640 0.930 . S
H647 C644 0.930 . S
C648 C650 1.348 1_554 S
C648 C651 1.356 . S
C648 O678 1.325 . S
N649 C652 1.314 1_554 S
N649 C653 1.279 . S
C650 C648 1.348 1_556 S
C650 C652 1.353 . S
C650 H692 0.929 . S
C651 C648 1.356 . S
C651 C653 1.358 . S
C651 H693 0.930 . S
C652 N649 1.314 1_556 S
C652 C650 1.353 . S
C652 H694 0.930 . S
C653 N649 1.279 . S
C653 C651 1.358 . S
C653 H695 0.930 . S
C654 C655 1.348 . S
C654 C656 1.356 . S
C654 O679 1.325 1_556 S
C655 C654 1.348 . S
C655 C657 1.353 . S
C655 H696 0.929 . S
C656 C654 1.356 . S
C656 C658 1.358 . S
C656 H697 0.930 . S
C657 C655 1.353 . S
C657 N659 1.314 . S
C657 H698 0.930 . S
C658 C656 1.358 . S
C658 N659 1.279 . S
C658 H699 0.930 . S
N659 C657 1.314 . S
N659 C658 1.279 . S
C660 C662 1.353 . S
C660 N663 1.314 . S
C660 H666 0.930 . S
C661 N663 1.279 . S
C661 C664 1.358 . S
C661 H667 0.930 . S
C662 C660 1.353 . S
C662 C665 1.348 . S
C662 H700 0.929 . S
N663 Li618 1.990 . S
N663 C660 1.314 . S
N663 C661 1.279 . S
C664 C661 1.358 . S
C664 C665 1.356 . S
C664 H701 0.930 1_554 S
C665 C662 1.348 . S
C665 C664 1.356 . S
H666 C660 0.930 . S
H667 C661 0.930 . S
C668 N669 1.314 . S
C668 C670 1.353 . S
C668 H674 0.930 . S
N669 Li619 1.990 1_556 S
N669 C668 1.314 . S
N669 C672 1.279 . S
C670 C668 1.353 . S
C670 C673 1.348 . S
C670 H702 0.929 . S
C671 C672 1.358 . S
C671 C673 1.356 . S
C671 H703 0.930 . S
C672 N669 1.279 . S
C672 C671 1.358 . S
C672 H675 0.930 . S
C673 C670 1.348 . S
C673 C671 1.356 . S
H674 C668 0.930 . S
H675 C672 0.930 . S
O676 Li616 1.956 . S
O676 Li617 1.970 . S
O676 Li618 1.961 . S
O676 C620 1.325 . S
O677 Li616 1.970 . S
O677 Li617 1.956 . S
O677 Li619 1.961 . S
O677 C626 1.325 . S
O678 Li616 1.961 . S
O678 Li618 1.956 . S
O678 Li619 1.970 . S
O678 C648 1.325 . S
O679 Li617 1.961 . S
O679 Li618 1.970 . S
O679 Li619 1.956 . S
O679 C654 1.325 1_554 S
H680 C622 0.929 . S
H681 C623 0.930 . S
H682 C624 0.930 . S
H683 C625 0.930 . S
H684 C627 0.930 . S
H685 C629 0.929 . S
H686 C630 0.930 . S
H687 C631 0.930 . S
H688 C634 0.930 . S
H689 C637 0.929 . S
H690 C642 0.929 . S
H691 C643 0.930 . S
H692 C650 0.929 . S
H693 C651 0.930 . S
H694 C652 0.930 . S
H695 C653 0.930 . S
H696 C655 0.929 . S
H697 C656 0.930 . S
H698 C657 0.930 . S
H699 C658 0.930 . S
H700 C662 0.929 . S
H701 C664 0.930 1_556 S
H702 C670 0.929 . S
H703 C671 0.930 . S
Li704 N721 1.990 . S
Li704 O764 1.956 . S
Li704 O765 1.970 . S
Li704 O766 1.961 . S
Li705 N729 1.990 . S
Li705 O764 1.970 . S
Li705 O765 1.956 . S
Li705 O767 1.961 . S
Li706 N751 1.990 . S
Li706 O764 1.961 . S
Li706 O766 1.956 . S
Li706 O767 1.970 . S
Li707 N757 1.990 . S
Li707 O765 1.961 . S
Li707 O766 1.970 . S
Li707 O767 1.956 . S
C708 C710 1.348 . S
C708 C711 1.356 . S
C708 O764 1.325 . S
N709 C712 1.314 . S
N709 C713 1.279 . S
C710 C708 1.348 . S
C710 C712 1.353 . S
C710 H768 0.929 . S
C711 C708 1.356 . S
C711 C713 1.358 . S
C711 H769 0.930 . S
C712 N709 1.314 . S
C712 C710 1.353 . S
C712 H770 0.930 . S
C713 N709 1.279 . S
C713 C711 1.358 . S
C713 H771 0.930 . S
C714 C717 1.348 . S
C714 C718 1.356 . S
C714 O765 1.325 . S
C715 N716 1.279 . S
C715 C718 1.358 . S
C715 H772 0.930 . S
N716 C715 1.279 . S
N716 C719 1.314 . S
C717 C714 1.348 . S
C717 C719 1.353 . S
C717 H773 0.929 . S
C718 C714 1.356 . S
C718 C715 1.358 . S
C718 H774 0.930 . S
C719 N716 1.314 . S
C719 C717 1.353 . S
C719 H775 0.930 . S
C720 N721 1.314 . S
C720 C725 1.353 . S
C720 H726 0.930 . S
N721 Li704 1.990 . S
N721 C720 1.314 . S
N721 C723 1.279 . S
C722 C723 1.358 . S
C722 C724 1.356 . S
C722 H776 0.930 . S
C723 N721 1.279 . S
C723 C722 1.358 . S
C723 H727 0.930 . S
C724 C722 1.356 . S
C724 C725 1.348 . S
C725 C720 1.353 . S
C725 C724 1.348 . S
C725 H777 0.929 . S
H726 C720 0.930 . S
H727 C723 0.930 . S
C728 N729 1.314 . S
C728 C730 1.353 . S
C728 H734 0.930 . S
N729 Li705 1.990 . S
N729 C728 1.314 . S
N729 C732 1.279 . S
C730 C728 1.353 . S
C730 C733 1.348 . S
C730 H778 0.929 . S
C731 C732 1.358 . S
C731 C733 1.356 . S
C731 H779 0.930 . S
C732 N729 1.279 . S
C732 C731 1.358 . S
C732 H735 0.930 . S
C733 C730 1.348 . S
C733 C731 1.356 . S
H734 C728 0.930 . S
H735 C732 0.930 . S
C736 C738 1.348 . S
C736 C739 1.356 . S
C736 O766 1.325 . S
N737 C740 1.314 . S
N737 C741 1.279 . S
C738 C736 1.348 . S
C738 C740 1.353 . S
C738 H780 0.929 . S
C739 C736 1.356 . S
C739 C741 1.358 . S
C739 H781 0.930 . S
C740 N737 1.314 . S
C740 C738 1.353 . S
C740 H782 0.930 . S
C741 N737 1.279 . S
C741 C739 1.358 . S
C741 H783 0.930 . S
C742 C743 1.348 . S
C742 C744 1.356 . S
C742 O767 1.325 . S
C743 C742 1.348 . S
C743 C745 1.353 . S
C743 H784 0.929 . S
C744 C742 1.356 . S
C744 C746 1.358 . S
C744 H785 0.930 . S
C745 C743 1.353 . S
C745 N747 1.314 . S
C745 H786 0.930 . S
C746 C744 1.358 . S
C746 N747 1.279 . S
C746 H787 0.930 . S
N747 C745 1.314 . S
N747 C746 1.279 . S
C748 C750 1.353 . S
C748 N751 1.314 . S
C748 H754 0.930 . S
C749 N751 1.279 . S
C749 C752 1.358 . S
C749 H755 0.930 . S
C750 C748 1.353 . S
C750 C753 1.348 . S
C750 H788 0.929 . S
N751 Li706 1.990 . S
N751 C748 1.314 . S
N751 C749 1.279 . S
C752 C749 1.358 . S
C752 C753 1.356 . S
C752 H789 0.930 . S
C753 C750 1.348 . S
C753 C752 1.356 . S
H754 C748 0.930 . S
H755 C749 0.930 . S
C756 N757 1.314 . S
C756 C758 1.353 . S
C756 H762 0.930 . S
N757 Li707 1.990 . S
N757 C756 1.314 . S
N757 C760 1.279 . S
C758 C756 1.353 . S
C758 C761 1.348 . S
C758 H790 0.929 . S
C759 C760 1.358 . S
C759 C761 1.356 . S
C759 H791 0.930 . S
C760 N757 1.279 . S
C760 C759 1.358 . S
C760 H763 0.930 . S
C761 C758 1.348 . S
C761 C759 1.356 . S
H762 C756 0.930 . S
H763 C760 0.930 . S
O764 Li704 1.956 . S
O764 Li705 1.970 . S
O764 Li706 1.961 . S
O764 C708 1.325 . S
O765 Li704 1.970 . S
O765 Li705 1.956 . S
O765 Li707 1.961 . S
O765 C714 1.325 . S
O766 Li704 1.961 . S
O766 Li706 1.956 . S
O766 Li707 1.970 . S
O766 C736 1.325 . S
O767 Li705 1.961 . S
O767 Li706 1.970 . S
O767 Li707 1.956 . S
O767 C742 1.325 . S
H768 C710 0.929 . S
H769 C711 0.930 . S
H770 C712 0.930 . S
H771 C713 0.930 . S
H772 C715 0.930 . S
H773 C717 0.929 . S
H774 C718 0.930 . S
H775 C719 0.930 . S
H776 C722 0.930 . S
H777 C725 0.929 . S
H778 C730 0.929 . S
H779 C731 0.930 . S
H780 C738 0.929 . S
H781 C739 0.930 . S
H782 C740 0.930 . S
H783 C741 0.930 . S
H784 C743 0.929 . S
H785 C744 0.930 . S
H786 C745 0.930 . S
H787 C746 0.930 . S
H788 C750 0.929 . S
H789 C752 0.930 . S
H790 C758 0.929 . S
H791 C759 0.930 . S
Li792 N809 1.990 . S
Li792 O852 1.956 . S
Li792 O853 1.970 . S
Li792 O854 1.961 . S
Li793 N817 1.990 . S
Li793 O852 1.970 . S
Li793 O853 1.956 . S
Li793 O855 1.961 . S
Li794 N839 1.990 . S
Li794 O852 1.961 . S
Li794 O854 1.956 . S
Li794 O855 1.970 . S
Li795 N845 1.990 . S
Li795 O853 1.961 . S
Li795 O854 1.970 . S
Li795 O855 1.956 . S
C796 C798 1.348 . S
C796 C799 1.356 . S
C796 O852 1.325 . S
N797 C800 1.314 . S
N797 C801 1.279 . S
C798 C796 1.348 . S
C798 C800 1.353 . S
C798 H856 0.929 . S
C799 C796 1.356 . S
C799 C801 1.358 . S
C799 H857 0.930 . S
C800 N797 1.314 . S
C800 C798 1.353 . S
C800 H858 0.930 . S
C801 N797 1.279 . S
C801 C799 1.358 . S
C801 H859 0.930 . S
C802 C805 1.348 . S
C802 C806 1.356 . S
C802 O853 1.325 . S
C803 N804 1.279 . S
C803 C806 1.358 . S
C803 H860 0.930 . S
N804 C803 1.279 . S
N804 C807 1.314 . S
C805 C802 1.348 . S
C805 C807 1.353 . S
C805 H861 0.929 . S
C806 C802 1.356 . S
C806 C803 1.358 . S
C806 H862 0.930 . S
C807 N804 1.314 . S
C807 C805 1.353 . S
C807 H863 0.930 . S
C808 N809 1.314 . S
C808 C813 1.353 . S
C808 H814 0.930 . S
N809 Li792 1.990 . S
N809 C808 1.314 . S
N809 C811 1.279 . S
C810 C811 1.358 . S
C810 C812 1.356 . S
C810 H864 0.930 . S
C811 N809 1.279 . S
C811 C810 1.358 . S
C811 H815 0.930 . S
C812 C810 1.356 . S
C812 C813 1.348 . S
C813 C808 1.353 . S
C813 C812 1.348 . S
C813 H865 0.929 . S
H814 C808 0.930 . S
H815 C811 0.930 . S
C816 N817 1.314 . S
C816 C818 1.353 . S
C816 H822 0.930 . S
N817 Li793 1.990 . S
N817 C816 1.314 . S
N817 C820 1.279 . S
C818 C816 1.353 . S
C818 C821 1.348 . S
C818 H866 0.929 . S
C819 C820 1.358 . S
C819 C821 1.356 . S
C819 H867 0.930 . S
C820 N817 1.279 . S
C820 C819 1.358 . S
C820 H823 0.930 . S
C821 C818 1.348 . S
C821 C819 1.356 . S
H822 C816 0.930 . S
H823 C820 0.930 . S
C824 C826 1.348 . S
C824 C827 1.356 . S
C824 O854 1.325 . S
N825 C828 1.314 . S
N825 C829 1.279 . S
C826 C824 1.348 . S
C826 C828 1.353 . S
C826 H868 0.929 . S
C827 C824 1.356 . S
C827 C829 1.358 . S
C827 H869 0.930 . S
C828 N825 1.314 . S
C828 C826 1.353 . S
C828 H870 0.930 . S
C829 N825 1.279 . S
C829 C827 1.358 . S
C829 H871 0.930 . S
C830 C831 1.348 . S
C830 C832 1.356 . S
C830 O855 1.325 . S
C831 C830 1.348 . S
C831 C833 1.353 . S
C831 H872 0.929 . S
C832 C830 1.356 . S
C832 C834 1.358 . S
C832 H873 0.930 . S
C833 C831 1.353 . S
C833 N835 1.314 . S
C833 H874 0.930 . S
C834 C832 1.358 . S
C834 N835 1.279 . S
C834 H875 0.930 . S
N835 C833 1.314 . S
N835 C834 1.279 . S
C836 C838 1.353 . S
C836 N839 1.314 . S
C836 H842 0.930 . S
C837 N839 1.279 . S
C837 C840 1.358 . S
C837 H843 0.930 . S
C838 C836 1.353 . S
C838 C841 1.348 . S
C838 H876 0.929 . S
N839 Li794 1.990 . S
N839 C836 1.314 . S
N839 C837 1.279 . S
C840 C837 1.358 . S
C840 C841 1.356 . S
C840 H877 0.930 . S
C841 C838 1.348 . S
C841 C840 1.356 . S
H842 C836 0.930 . S
H843 C837 0.930 . S
C844 N845 1.314 . S
C844 C846 1.353 . S
C844 H850 0.930 . S
N845 Li795 1.990 . S
N845 C844 1.314 . S
N845 C848 1.279 . S
C846 C844 1.353 . S
C846 C849 1.348 . S
C846 H878 0.929 . S
C847 C848 1.358 . S
C847 C849 1.356 . S
C847 H879 0.930 . S
C848 N845 1.279 . S
C848 C847 1.358 . S
C848 H851 0.930 . S
C849 C846 1.348 . S
C849 C847 1.356 . S
H850 C844 0.930 . S
H851 C848 0.930 . S
O852 Li792 1.956 . S
O852 Li793 1.970 . S
O852 Li794 1.961 . S
O852 C796 1.325 . S
O853 Li792 1.970 . S
O853 Li793 1.956 . S
O853 Li795 1.961 . S
O853 C802 1.325 . S
O854 Li792 1.961 . S
O854 Li794 1.956 . S
O854 Li795 1.970 . S
O854 C824 1.325 . S
O855 Li793 1.961 . S
O855 Li794 1.970 . S
O855 Li795 1.956 . S
O855 C830 1.325 . S
H856 C798 0.929 . S
H857 C799 0.930 . S
H858 C800 0.930 . S
H859 C801 0.930 . S
H860 C803 0.930 . S
H861 C805 0.929 . S
H862 C806 0.930 . S
H863 C807 0.930 . S
H864 C810 0.930 . S
H865 C813 0.929 . S
H866 C818 0.929 . S
H867 C819 0.930 . S
H868 C826 0.929 . S
H869 C827 0.930 . S
H870 C828 0.930 . S
H871 C829 0.930 . S
H872 C831 0.929 . S
H873 C832 0.930 . S
H874 C833 0.930 . S
H875 C834 0.930 . S
H876 C838 0.929 . S
H877 C840 0.930 . S
H878 C846 0.929 . S
H879 C847 0.930 . S
Li880 N897 1.990 . S
Li880 O940 1.956 . S
Li880 O941 1.970 . S
Li880 O942 1.961 . S
Li881 N905 1.990 . S
Li881 O940 1.970 . S
Li881 O941 1.956 . S
Li881 O943 1.961 . S
Li882 N927 1.990 . S
Li882 O940 1.961 . S
Li882 O942 1.956 . S
Li882 O943 1.970 . S
Li883 N933 1.990 . S
Li883 O941 1.961 . S
Li883 O942 1.970 . S
Li883 O943 1.956 . S
C884 C886 1.348 . S
C884 C887 1.356 . S
C884 O940 1.325 . S
N885 C888 1.314 . S
N885 C889 1.279 . S
C886 C884 1.348 . S
C886 C888 1.353 . S
C886 H944 0.929 . S
C887 C884 1.356 . S
C887 C889 1.358 . S
C887 H945 0.930 . S
C888 N885 1.314 . S
C888 C886 1.353 . S
C888 H946 0.930 . S
C889 N885 1.279 . S
C889 C887 1.358 . S
C889 H947 0.930 . S
C890 C893 1.348 . S
C890 C894 1.356 . S
C890 O941 1.325 . S
C891 N892 1.279 . S
C891 C894 1.358 . S
C891 H948 0.930 . S
N892 C891 1.279 . S
N892 C895 1.314 . S
C893 C890 1.348 . S
C893 C895 1.353 . S
C893 H949 0.929 . S
C894 C890 1.356 . S
C894 C891 1.358 . S
C894 H950 0.930 . S
C895 N892 1.314 . S
C895 C893 1.353 . S
C895 H951 0.930 . S
C896 N897 1.314 . S
C896 C901 1.353 . S
C896 H902 0.930 . S
N897 Li880 1.990 . S
N897 C896 1.314 . S
N897 C899 1.279 . S
C898 C899 1.358 . S
C898 C900 1.356 . S
C898 H952 0.930 . S
C899 N897 1.279 . S
C899 C898 1.358 . S
C899 H903 0.930 . S
C900 C898 1.356 . S
C900 C901 1.348 . S
C901 C896 1.353 . S
C901 C900 1.348 . S
C901 H953 0.929 . S
H902 C896 0.930 . S
H903 C899 0.930 . S
C904 N905 1.314 . S
C904 C906 1.353 . S
C904 H910 0.930 . S
N905 Li881 1.990 . S
N905 C904 1.314 . S
N905 C908 1.279 . S
C906 C904 1.353 . S
C906 C909 1.348 . S
C906 H954 0.929 . S
C907 C908 1.358 . S
C907 C909 1.356 . S
C907 H955 0.930 . S
C908 N905 1.279 . S
C908 C907 1.358 . S
C908 H911 0.930 . S
C909 C906 1.348 . S
C909 C907 1.356 . S
H910 C904 0.930 . S
H911 C908 0.930 . S
C912 C914 1.348 . S
C912 C915 1.356 . S
C912 O942 1.325 . S
N913 C916 1.314 . S
N913 C917 1.279 . S
C914 C912 1.348 . S
C914 C916 1.353 . S
C914 H956 0.929 . S
C915 C912 1.356 . S
C915 C917 1.358 . S
C915 H957 0.930 . S
C916 N913 1.314 . S
C916 C914 1.353 . S
C916 H958 0.930 . S
C917 N913 1.279 . S
C917 C915 1.358 . S
C917 H959 0.930 . S
C918 C919 1.348 . S
C918 C920 1.356 . S
C918 O943 1.325 . S
C919 C918 1.348 . S
C919 C921 1.353 . S
C919 H960 0.929 . S
C920 C918 1.356 . S
C920 C922 1.358 . S
C920 H961 0.930 . S
C921 C919 1.353 . S
C921 N923 1.314 . S
C921 H962 0.930 . S
C922 C920 1.358 . S
C922 N923 1.279 . S
C922 H963 0.930 . S
N923 C921 1.314 . S
N923 C922 1.279 . S
C924 C926 1.353 . S
C924 N927 1.314 . S
C924 H930 0.930 . S
C925 N927 1.279 . S
C925 C928 1.358 . S
C925 H931 0.930 . S
C926 C924 1.353 . S
C926 C929 1.348 . S
C926 H964 0.929 . S
N927 Li882 1.990 . S
N927 C924 1.314 . S
N927 C925 1.279 . S
C928 C925 1.358 . S
C928 C929 1.356 . S
C928 H965 0.930 . S
C929 C926 1.348 . S
C929 C928 1.356 . S
H930 C924 0.930 . S
H931 C925 0.930 . S
C932 N933 1.314 . S
C932 C934 1.353 . S
C932 H938 0.930 . S
N933 Li883 1.990 . S
N933 C932 1.314 . S
N933 C936 1.279 . S
C934 C932 1.353 . S
C934 C937 1.348 . S
C934 H966 0.929 . S
C935 C936 1.358 . S
C935 C937 1.356 . S
C935 H967 0.930 . S
C936 N933 1.279 . S
C936 C935 1.358 . S
C936 H939 0.930 . S
C937 C934 1.348 . S
C937 C935 1.356 . S
H938 C932 0.930 . S
H939 C936 0.930 . S
O940 Li880 1.956 . S
O940 Li881 1.970 . S
O940 Li882 1.961 . S
O940 C884 1.325 . S
O941 Li880 1.970 . S
O941 Li881 1.956 . S
O941 Li883 1.961 . S
O941 C890 1.325 . S
O942 Li880 1.961 . S
O942 Li882 1.956 . S
O942 Li883 1.970 . S
O942 C912 1.325 . S
O943 Li881 1.961 . S
O943 Li882 1.970 . S
O943 Li883 1.956 . S
O943 C918 1.325 . S
H944 C886 0.929 . S
H945 C887 0.930 . S
H946 C888 0.930 . S
H947 C889 0.930 . S
H948 C891 0.930 . S
H949 C893 0.929 . S
H950 C894 0.930 . S
H951 C895 0.930 . S
H952 C898 0.930 . S
H953 C901 0.929 . S
H954 C906 0.929 . S
H955 C907 0.930 . S
H956 C914 0.929 . S
H957 C915 0.930 . S
H958 C916 0.930 . S
H959 C917 0.930 . S
H960 C919 0.929 . S
H961 C920 0.930 . S
H962 C921 0.930 . S
H963 C922 0.930 . S
H964 C926 0.929 . S
H965 C928 0.930 . S
H966 C934 0.929 . S
H967 C935 0.930 . S
Li968 N985 1.990 . S
Li968 O1028 1.956 . S
Li968 O1029 1.970 . S
Li968 O1030 1.961 . S
Li969 N993 1.990 . S
Li969 O1028 1.970 . S
Li969 O1029 1.956 . S
Li969 O1031 1.961 . S
Li970 N1015 1.990 . S
Li970 O1028 1.961 . S
Li970 O1030 1.956 . S
Li970 O1031 1.970 . S
Li971 N1021 1.990 . S
Li971 O1029 1.961 . S
Li971 O1030 1.970 . S
Li971 O1031 1.956 . S
C972 C974 1.348 . S
C972 C975 1.356 . S
C972 O1028 1.325 . S
N973 C976 1.314 . S
N973 C977 1.279 . S
C974 C972 1.348 . S
C974 C976 1.353 . S
C974 H1032 0.929 . S
C975 C972 1.356 . S
C975 C977 1.358 . S
C975 H1033 0.930 . S
C976 N973 1.314 . S
C976 C974 1.353 . S
C976 H1034 0.930 . S
C977 N973 1.279 . S
C977 C975 1.358 . S
C977 H1035 0.930 . S
C978 C981 1.348 . S
C978 C982 1.356 . S
C978 O1029 1.325 . S
C979 N980 1.279 . S
C979 C982 1.358 . S
C979 H1036 0.930 . S
N980 C979 1.279 . S
N980 C983 1.314 . S
C981 C978 1.348 . S
C981 C983 1.353 . S
C981 H1037 0.929 . S
C982 C978 1.356 . S
C982 C979 1.358 . S
C982 H1038 0.930 . S
C983 N980 1.314 . S
C983 C981 1.353 . S
C983 H1039 0.930 . S
C984 N985 1.314 . S
C984 C989 1.353 . S
C984 H990 0.930 . S
N985 Li968 1.990 . S
N985 C984 1.314 . S
N985 C987 1.279 . S
C986 C987 1.358 . S
C986 C988 1.356 . S
C986 H1040 0.930 . S
C987 N985 1.279 . S
C987 C986 1.358 . S
C987 H991 0.930 . S
C988 C986 1.356 . S
C988 C989 1.348 . S
C989 C984 1.353 . S
C989 C988 1.348 . S
C989 H1041 0.929 . S
H990 C984 0.930 . S
H991 C987 0.930 . S
C992 N993 1.314 . S
C992 C994 1.353 . S
C992 H998 0.930 . S
N993 Li969 1.990 . S
N993 C992 1.314 . S
N993 C996 1.279 . S
C994 C992 1.353 . S
C994 C997 1.348 . S
C994 H1042 0.929 . S
C995 C996 1.358 . S
C995 C997 1.356 . S
C995 H1043 0.930 . S
C996 N993 1.279 . S
C996 C995 1.358 . S
C996 H999 0.930 . S
C997 C994 1.348 . S
C997 C995 1.356 . S
H998 C992 0.930 . S
H999 C996 0.930 . S
C1000 C1002 1.348 . S
C1000 C1003 1.356 . S
C1000 O1030 1.325 . S
N1001 C1004 1.314 . S
N1001 C1005 1.279 . S
C1002 C1000 1.348 . S
C1002 C1004 1.353 . S
C1002 H1044 0.929 . S
C1003 C1000 1.356 . S
C1003 C1005 1.358 . S
C1003 H1045 0.930 . S
C1004 N1001 1.314 . S
C1004 C1002 1.353 . S
C1004 H1046 0.930 . S
C1005 N1001 1.279 . S
C1005 C1003 1.358 . S
C1005 H1047 0.930 . S
C1006 C1007 1.348 . S
C1006 C1008 1.356 . S
C1006 O1031 1.325 . S
C1007 C1006 1.348 . S
C1007 C1009 1.353 . S
C1007 H1048 0.929 . S
C1008 C1006 1.356 . S
C1008 C1010 1.358 . S
C1008 H1049 0.930 . S
C1009 C1007 1.353 . S
C1009 N1011 1.314 . S
C1009 H1050 0.930 . S
C1010 C1008 1.358 . S
C1010 N1011 1.279 . S
C1010 H1051 0.930 . S
N1011 C1009 1.314 . S
N1011 C1010 1.279 . S
C1012 C1014 1.353 . S
C1012 N1015 1.314 . S
C1012 H1018 0.930 . S
C1013 N1015 1.279 . S
C1013 C1016 1.358 . S
C1013 H1019 0.930 . S
C1014 C1012 1.353 . S
C1014 C1017 1.348 . S
C1014 H1052 0.929 . S
N1015 Li970 1.990 . S
N1015 C1012 1.314 . S
N1015 C1013 1.279 . S
C1016 C1013 1.358 . S
C1016 C1017 1.356 . S
C1016 H1053 0.930 . S
C1017 C1014 1.348 . S
C1017 C1016 1.356 . S
H1018 C1012 0.930 . S
H1019 C1013 0.930 . S
C1020 N1021 1.314 . S
C1020 C1022 1.353 . S
C1020 H1026 0.930 . S
N1021 Li971 1.990 . S
N1021 C1020 1.314 . S
N1021 C1024 1.279 . S
C1022 C1020 1.353 . S
C1022 C1025 1.348 . S
C1022 H1054 0.929 . S
C1023 C1024 1.358 . S
C1023 C1025 1.356 . S
C1023 H1055 0.930 . S
C1024 N1021 1.279 . S
C1024 C1023 1.358 . S
C1024 H1027 0.930 . S
C1025 C1022 1.348 . S
C1025 C1023 1.356 . S
H1026 C1020 0.930 . S
H1027 C1024 0.930 . S
O1028 Li968 1.956 . S
O1028 Li969 1.970 . S
O1028 Li970 1.961 . S
O1028 C972 1.325 . S
O1029 Li968 1.970 . S
O1029 Li969 1.956 . S
O1029 Li971 1.961 . S
O1029 C978 1.325 . S
O1030 Li968 1.961 . S
O1030 Li970 1.956 . S
O1030 Li971 1.970 . S
O1030 C1000 1.325 . S
O1031 Li969 1.961 . S
O1031 Li970 1.970 . S
O1031 Li971 1.956 . S
O1031 C1006 1.325 . S
H1032 C974 0.929 . S
H1033 C975 0.930 . S
H1034 C976 0.930 . S
H1035 C977 0.930 . S
H1036 C979 0.930 . S
H1037 C981 0.929 . S
H1038 C982 0.930 . S
H1039 C983 0.930 . S
H1040 C986 0.930 . S
H1041 C989 0.929 . S
H1042 C994 0.929 . S
H1043 C995 0.930 . S
H1044 C1002 0.929 . S
H1045 C1003 0.930 . S
H1046 C1004 0.930 . S
H1047 C1005 0.930 . S
H1048 C1007 0.929 . S
H1049 C1008 0.930 . S
H1050 C1009 0.930 . S
H1051 C1010 0.930 . S
H1052 C1014 0.929 . S
H1053 C1016 0.930 . S
H1054 C1022 0.929 . S
H1055 C1023 0.930 . S
C1056 C1057 1.349 . S
C1056 C1058 1.327 . S
C1056 H1081 0.950 . S
C1057 C1056 1.349 . S
C1057 C1073 1.349 . S
C1058 C1056 1.327 . S
C1058 C1077 1.429 . S
C1058 H1082 0.950 . S
C1059 C1076 1.574 . S
C1059 C1078 1.368 . S
C1059 H1083 0.949 . S
H1060 C1064 0.949 . S
C1061 C1062 1.349 . S
C1061 C1063 1.327 . S
C1061 H1084 0.950 . S
C1062 C1061 1.349 . S
C1062 C1074 1.349 . S
C1063 C1061 1.327 . S
C1063 C1079 1.429 . S
C1063 H1085 0.950 . S
C1064 H1060 0.949 . S
C1064 C1072 1.574 . S
C1064 C1080 1.368 . S
H1065 C1073 0.950 . S
H1066 C1071 0.950 . S
H1067 C1072 0.949 . S
H1068 C1074 0.950 . S
H1069 C1075 0.950 . S
H1070 C1076 0.949 . S
C1071 H1066 0.950 . S
C1071 C1073 1.327 . S
C1071 C1077 1.429 . S
C1072 C1064 1.574 . S
C1072 H1067 0.949 . S
C1072 C1078 1.368 . S
C1073 C1057 1.349 . S
C1073 H1065 0.950 . S
C1073 C1071 1.327 . S
C1074 C1062 1.349 . S
C1074 H1068 0.950 . S
C1074 C1075 1.327 . S
C1075 H1069 0.950 . S
C1075 C1074 1.327 . S
C1075 C1079 1.429 . S
C1076 C1059 1.574 . S
C1076 H1070 0.949 . S
C1076 C1080 1.368 . S
C1077 C1058 1.429 . S
C1077 C1071 1.429 . S
C1077 C1078 1.523 . S
C1078 C1059 1.368 . S
C1078 C1072 1.368 . S
C1078 C1077 1.523 . S
C1079 C1063 1.429 . S
C1079 C1075 1.429 . S
C1079 C1080 1.523 . S
C1080 C1064 1.368 . S
C1080 C1076 1.368 . S
C1080 C1079 1.523 . S
H1081 C1056 0.950 . S
H1082 C1058 0.950 . S
H1083 C1059 0.949 . S
H1084 C1061 0.950 . S
H1085 C1063 0.950 . S
C1086 C1087 1.349 . S
C1086 C1088 1.327 . S
C1086 H1111 0.950 . S
C1087 C1086 1.349 . S
C1087 C1103 1.349 . S
C1088 C1086 1.327 . S
C1088 C1107 1.429 . S
C1088 H1112 0.950 . S
C1089 C1106 1.574 . S
C1089 C1108 1.368 . S
C1089 H1113 0.949 . S
H1090 C1094 0.949 . S
C1091 C1092 1.349 . S
C1091 C1093 1.327 . S
C1091 H1114 0.950 . S
C1092 C1091 1.349 . S
C1092 C1104 1.349 . S
C1093 C1091 1.327 . S
C1093 C1109 1.429 . S
C1093 H1115 0.950 . S
C1094 H1090 0.949 . S
C1094 C1102 1.574 . S
C1094 C1110 1.368 . S
H1095 C1103 0.950 . S
H1096 C1101 0.950 . S
H1097 C1102 0.949 . S
H1098 C1104 0.950 . S
H1099 C1105 0.950 . S
H1100 C1106 0.949 . S
C1101 H1096 0.950 . S
C1101 C1103 1.327 . S
C1101 C1107 1.429 . S
C1102 C1094 1.574 . S
C1102 H1097 0.949 . S
C1102 C1108 1.368 . S
C1103 C1087 1.349 . S
C1103 H1095 0.950 . S
C1103 C1101 1.327 . S
C1104 C1092 1.349 . S
C1104 H1098 0.950 . S
C1104 C1105 1.327 . S
C1105 H1099 0.950 . S
C1105 C1104 1.327 . S
C1105 C1109 1.429 . S
C1106 C1089 1.574 . S
C1106 H1100 0.949 . S
C1106 C1110 1.368 . S
C1107 C1088 1.429 . S
C1107 C1101 1.429 . S
C1107 C1108 1.523 . S
C1108 C1089 1.368 . S
C1108 C1102 1.368 . S
C1108 C1107 1.523 . S
C1109 C1093 1.429 . S
C1109 C1105 1.429 . S
C1109 C1110 1.523 . S
C1110 C1094 1.368 . S
C1110 C1106 1.368 . S
C1110 C1109 1.523 . S
H1111 C1086 0.950 . S
H1112 C1088 0.950 . S
H1113 C1089 0.949 . S
H1114 C1091 0.950 . S
H1115 C1093 0.950 . S
C1116 C1117 1.349 . S
C1116 C1118 1.327 . S
C1116 H1141 0.950 . S
C1117 C1116 1.349 . S
C1117 C1133 1.349 . S
C1118 C1116 1.327 . S
C1118 C1137 1.429 . S
C1118 H1142 0.950 . S
C1119 C1136 1.574 . S
C1119 C1138 1.368 . S
C1119 H1143 0.949 . S
H1120 C1124 0.949 . S
C1121 C1122 1.349 . S
C1121 C1123 1.327 . S
C1121 H1144 0.950 . S
C1122 C1121 1.349 . S
C1122 C1134 1.349 . S
C1123 C1121 1.327 . S
C1123 C1139 1.429 . S
C1123 H1145 0.950 . S
C1124 H1120 0.949 . S
C1124 C1132 1.574 . S
C1124 C1140 1.368 . S
H1125 C1133 0.950 . S
H1126 C1131 0.950 . S
H1127 C1132 0.949 . S
H1128 C1134 0.950 . S
H1129 C1135 0.950 . S
H1130 C1136 0.949 . S
C1131 H1126 0.950 . S
C1131 C1133 1.327 . S
C1131 C1137 1.429 . S
C1132 C1124 1.574 . S
C1132 H1127 0.949 . S
C1132 C1138 1.368 . S
C1133 C1117 1.349 . S
C1133 H1125 0.950 . S
C1133 C1131 1.327 . S
C1134 C1122 1.349 . S
C1134 H1128 0.950 . S
C1134 C1135 1.327 . S
C1135 H1129 0.950 . S
C1135 C1134 1.327 . S
C1135 C1139 1.429 . S
C1136 C1119 1.574 . S
C1136 H1130 0.949 . S
C1136 C1140 1.368 . S
C1137 C1118 1.429 . S
C1137 C1131 1.429 . S
C1137 C1138 1.523 . S
C1138 C1119 1.368 . S
C1138 C1132 1.368 . S
C1138 C1137 1.523 . S
C1139 C1123 1.429 . S
C1139 C1135 1.429 . S
C1139 C1140 1.523 . S
C1140 C1124 1.368 . S
C1140 C1136 1.368 . S
C1140 C1139 1.523 . S
H1141 C1116 0.950 . S
H1142 C1118 0.950 . S
H1143 C1119 0.949 . S
H1144 C1121 0.950 . S
H1145 C1123 0.950 . S
C1146 C1147 1.349 . S
C1146 C1148 1.327 . S
C1146 H1171 0.950 . S
C1147 C1146 1.349 . S
C1147 C1163 1.349 . S
C1148 C1146 1.327 . S
C1148 C1167 1.429 . S
C1148 H1172 0.950 . S
C1149 C1166 1.574 . S
C1149 C1168 1.368 . S
C1149 H1173 0.949 . S
H1150 C1154 0.949 . S
C1151 C1152 1.349 . S
C1151 C1153 1.327 . S
C1151 H1174 0.950 . S
C1152 C1151 1.349 . S
C1152 C1164 1.349 . S
C1153 C1151 1.327 . S
C1153 C1169 1.429 . S
C1153 H1175 0.950 . S
C1154 H1150 0.949 . S
C1154 C1162 1.574 . S
C1154 C1170 1.368 . S
H1155 C1163 0.950 . S
H1156 C1161 0.950 . S
H1157 C1162 0.949 . S
H1158 C1164 0.950 . S
H1159 C1165 0.950 . S
H1160 C1166 0.949 . S
C1161 H1156 0.950 . S
C1161 C1163 1.327 . S
C1161 C1167 1.429 . S
C1162 C1154 1.574 . S
C1162 H1157 0.949 . S
C1162 C1168 1.368 . S
C1163 C1147 1.349 . S
C1163 H1155 0.950 . S
C1163 C1161 1.327 . S
C1164 C1152 1.349 . S
C1164 H1158 0.950 . S
C1164 C1165 1.327 . S
C1165 H1159 0.950 . S
C1165 C1164 1.327 . S
C1165 C1169 1.429 . S
C1166 C1149 1.574 . S
C1166 H1160 0.949 . S
C1166 C1170 1.368 . S
C1167 C1148 1.429 . S
C1167 C1161 1.429 . S
C1167 C1168 1.523 . S
C1168 C1149 1.368 . S
C1168 C1162 1.368 . S
C1168 C1167 1.523 . S
C1169 C1153 1.429 . S
C1169 C1165 1.429 . S
C1169 C1170 1.523 . S
C1170 C1154 1.368 . S
C1170 C1166 1.368 . S
C1170 C1169 1.523 . S
H1171 C1146 0.950 . S
H1172 C1148 0.950 . S
H1173 C1149 0.949 . S
H1174 C1151 0.950 . S
H1175 C1153 0.950 . S
C1176 C1177 1.349 . S
C1176 C1178 1.327 . S
C1176 H1201 0.950 . S
C1177 C1176 1.349 . S
C1177 C1193 1.349 . S
C1178 C1176 1.327 . S
C1178 C1197 1.429 . S
C1178 H1202 0.950 . S
C1179 C1196 1.574 . S
C1179 C1198 1.368 . S
C1179 H1203 0.949 . S
H1180 C1184 0.949 . S
C1181 C1182 1.349 . S
C1181 C1183 1.327 . S
C1181 H1204 0.950 . S
C1182 C1181 1.349 . S
C1182 C1194 1.349 . S
C1183 C1181 1.327 . S
C1183 C1199 1.429 . S
C1183 H1205 0.950 1_554 S
C1184 H1180 0.949 . S
C1184 C1192 1.574 . S
C1184 C1200 1.368 . S
H1185 C1193 0.950 . S
H1186 C1191 0.950 . S
H1187 C1192 0.949 . S
H1188 C1194 0.950 . S
H1189 C1195 0.950 . S
H1190 C1196 0.949 . S
C1191 H1186 0.950 . S
C1191 C1193 1.327 . S
C1191 C1197 1.429 . S
C1192 C1184 1.574 . S
C1192 H1187 0.949 . S
C1192 C1198 1.368 . S
C1193 C1177 1.349 . S
C1193 H1185 0.950 . S
C1193 C1191 1.327 . S
C1194 C1182 1.349 . S
C1194 H1188 0.950 . S
C1194 C1195 1.327 . S
C1195 H1189 0.950 . S
C1195 C1194 1.327 . S
C1195 C1199 1.429 . S
C1196 C1179 1.574 . S
C1196 H1190 0.949 . S
C1196 C1200 1.368 . S
C1197 C1178 1.429 . S
C1197 C1191 1.429 . S
C1197 C1198 1.523 . S
C1198 C1179 1.368 . S
C1198 C1192 1.368 . S
C1198 C1197 1.523 . S
C1199 C1183 1.429 . S
C1199 C1195 1.429 . S
C1199 C1200 1.522 1_554 S
C1200 C1184 1.368 . S
C1200 C1196 1.368 . S
C1200 C1199 1.522 1_556 S
H1201 C1176 0.950 . S
H1202 C1178 0.950 . S
H1203 C1179 0.949 . S
H1204 C1181 0.950 . S
H1205 C1183 0.950 1_556 S
C1206 C1207 1.349 . S
C1206 C1208 1.327 . S
C1206 H1231 0.950 . S
C1207 C1206 1.349 . S
C1207 C1223 1.349 . S
C1208 C1206 1.327 . S
C1208 C1227 1.429 . S
C1208 H1232 0.950 . S
C1209 C1226 1.574 . S
C1209 C1228 1.368 . S
C1209 H1233 0.949 . S
H1210 C1214 0.949 . S
C1211 C1212 1.349 . S
C1211 C1213 1.327 . S
C1211 H1234 0.950 . S
C1212 C1211 1.349 . S
C1212 C1224 1.349 . S
C1213 C1211 1.327 . S
C1213 C1229 1.429 . S
C1213 H1235 0.950 . S
C1214 H1210 0.949 . S
C1214 C1222 1.574 . S
C1214 C1230 1.368 . S
H1215 C1223 0.950 . S
H1216 C1221 0.950 . S
H1217 C1222 0.949 . S
H1218 C1224 0.950 . S
H1219 C1225 0.950 . S
H1220 C1226 0.949 . S
C1221 H1216 0.950 . S
C1221 C1223 1.327 . S
C1221 C1227 1.429 . S
C1222 C1214 1.574 . S
C1222 H1217 0.949 . S
C1222 C1228 1.368 . S
C1223 C1207 1.349 . S
C1223 H1215 0.950 . S
C1223 C1221 1.327 . S
C1224 C1212 1.349 . S
C1224 H1218 0.950 . S
C1224 C1225 1.327 . S
C1225 H1219 0.950 . S
C1225 C1224 1.327 . S
C1225 C1229 1.429 . S
C1226 C1209 1.574 . S
C1226 H1220 0.949 . S
C1226 C1230 1.368 . S
C1227 C1208 1.429 . S
C1227 C1221 1.429 . S
C1227 C1228 1.523 . S
C1228 C1209 1.368 . S
C1228 C1222 1.368 . S
C1228 C1227 1.523 . S
C1229 C1213 1.429 . S
C1229 C1225 1.429 . S
C1229 C1230 1.523 . S
C1230 C1214 1.368 . S
C1230 C1226 1.368 . S
C1230 C1229 1.523 . S
H1231 C1206 0.950 . S
H1232 C1208 0.950 . S
H1233 C1209 0.949 . S
H1234 C1211 0.950 . S
H1235 C1213 0.950 . S
C1236 C1237 1.349 . S
C1236 C1238 1.327 . S
C1236 H1261 0.950 . S
C1237 C1236 1.349 . S
C1237 C1253 1.349 . S
C1238 C1236 1.327 . S
C1238 C1257 1.429 . S
C1238 H1262 0.950 . S
C1239 C1256 1.574 . S
C1239 C1258 1.368 . S
C1239 H1263 0.949 . S
H1240 C1244 0.949 . S
C1241 C1242 1.349 . S
C1241 C1243 1.327 . S
C1241 H1264 0.950 . S
C1242 C1241 1.349 . S
C1242 C1254 1.349 . S
C1243 C1241 1.327 . S
C1243 C1259 1.429 . S
C1243 H1265 0.950 . S
C1244 H1240 0.949 . S
C1244 C1252 1.574 . S
C1244 C1260 1.368 . S
H1245 C1253 0.950 . S
H1246 C1251 0.950 . S
H1247 C1252 0.949 . S
H1248 C1254 0.950 . S
H1249 C1255 0.950 . S
H1250 C1256 0.949 . S
C1251 H1246 0.950 . S
C1251 C1253 1.327 . S
C1251 C1257 1.429 . S
C1252 C1244 1.574 . S
C1252 H1247 0.949 . S
C1252 C1258 1.368 . S
C1253 C1237 1.349 . S
C1253 H1245 0.950 . S
C1253 C1251 1.327 . S
C1254 C1242 1.349 . S
C1254 H1248 0.950 . S
C1254 C1255 1.327 . S
C1255 H1249 0.950 . S
C1255 C1254 1.327 . S
C1255 C1259 1.429 . S
C1256 C1239 1.574 . S
C1256 H1250 0.949 . S
C1256 C1260 1.368 . S
C1257 C1238 1.429 . S
C1257 C1251 1.429 . S
C1257 C1258 1.523 . S
C1258 C1239 1.368 . S
C1258 C1252 1.368 . S
C1258 C1257 1.523 . S
C1259 C1243 1.429 . S
C1259 C1255 1.429 . S
C1259 C1260 1.523 . S
C1260 C1244 1.368 . S
C1260 C1256 1.368 . S
C1260 C1259 1.523 . S
H1261 C1236 0.950 . S
H1262 C1238 0.950 . S
H1263 C1239 0.949 . S
H1264 C1241 0.950 . S
H1265 C1243 0.950 . S
C1266 C1267 1.349 . S
C1266 C1268 1.327 . S
C1266 H1291 0.950 . S
C1267 C1266 1.349 . S
C1267 C1283 1.349 . S
C1268 C1266 1.327 . S
C1268 C1287 1.429 . S
C1268 H1292 0.950 . S
C1269 C1286 1.574 . S
C1269 C1288 1.368 . S
C1269 H1293 0.949 . S
H1270 C1274 0.949 . S
C1271 C1272 1.349 . S
C1271 C1273 1.327 . S
C1271 H1294 0.950 . S
C1272 C1271 1.349 . S
C1272 C1284 1.349 . S
C1273 C1271 1.327 . S
C1273 C1289 1.429 . S
C1273 H1295 0.950 . S
C1274 H1270 0.949 . S
C1274 C1282 1.574 . S
C1274 C1290 1.368 . S
H1275 C1283 0.950 . S
H1276 C1281 0.950 . S
H1277 C1282 0.949 . S
H1278 C1284 0.950 . S
H1279 C1285 0.950 . S
H1280 C1286 0.949 . S
C1281 H1276 0.950 . S
C1281 C1283 1.327 . S
C1281 C1287 1.429 . S
C1282 C1274 1.574 . S
C1282 H1277 0.949 . S
C1282 C1288 1.368 . S
C1283 C1267 1.349 . S
C1283 H1275 0.950 . S
C1283 C1281 1.327 . S
C1284 C1272 1.349 . S
C1284 H1278 0.950 . S
C1284 C1285 1.327 . S
C1285 H1279 0.950 . S
C1285 C1284 1.327 . S
C1285 C1289 1.429 . S
C1286 C1269 1.574 . S
C1286 H1280 0.949 . S
C1286 C1290 1.368 . S
C1287 C1268 1.429 . S
C1287 C1281 1.429 . S
C1287 C1288 1.523 . S
C1288 C1269 1.368 . S
C1288 C1282 1.368 . S
C1288 C1287 1.523 . S
C1289 C1273 1.429 . S
C1289 C1285 1.429 . S
C1289 C1290 1.523 . S
C1290 C1274 1.368 . S
C1290 C1286 1.368 . S
C1290 C1289 1.523 . S
H1291 C1266 0.950 . S
H1292 C1268 0.950 . S
H1293 C1269 0.949 . S
H1294 C1271 0.950 . S
H1295 C1273 0.950 . S
C1296 C1297 1.349 . S
C1296 C1298 1.327 . S
C1296 H1321 0.950 . S
C1297 C1296 1.349 . S
C1297 C1313 1.349 . S
C1298 C1296 1.327 . S
C1298 C1317 1.429 . S
C1298 H1322 0.950 . S
C1299 C1316 1.574 . S
C1299 C1318 1.368 . S
C1299 H1323 0.949 . S
H1300 C1304 0.949 . S
C1301 C1302 1.349 . S
C1301 C1303 1.327 . S
C1301 H1324 0.950 . S
C1302 C1301 1.349 . S
C1302 C1314 1.349 . S
C1303 C1301 1.327 . S
C1303 C1319 1.429 . S
C1303 H1325 0.950 . S
C1304 H1300 0.949 . S
C1304 C1312 1.574 . S
C1304 C1320 1.368 . S
H1305 C1313 0.950 . S
H1306 C1311 0.950 . S
H1307 C1312 0.949 . S
H1308 C1314 0.950 . S
H1309 C1315 0.950 . S
H1310 C1316 0.949 . S
C1311 H1306 0.950 . S
C1311 C1313 1.327 . S
C1311 C1317 1.429 . S
C1312 C1304 1.574 . S
C1312 H1307 0.949 . S
C1312 C1318 1.368 . S
C1313 C1297 1.349 . S
C1313 H1305 0.950 . S
C1313 C1311 1.327 . S
C1314 C1302 1.349 . S
C1314 H1308 0.950 . S
C1314 C1315 1.327 . S
C1315 H1309 0.950 . S
C1315 C1314 1.327 . S
C1315 C1319 1.429 . S
C1316 C1299 1.574 . S
C1316 H1310 0.949 . S
C1316 C1320 1.368 . S
C1317 C1298 1.429 . S
C1317 C1311 1.429 . S
C1317 C1318 1.523 . S
C1318 C1299 1.368 . S
C1318 C1312 1.368 . S
C1318 C1317 1.523 . S
C1319 C1303 1.429 . S
C1319 C1315 1.429 . S
C1319 C1320 1.523 . S
C1320 C1304 1.368 . S
C1320 C1316 1.368 . S
C1320 C1319 1.523 . S
H1321 C1296 0.950 . S
H1322 C1298 0.950 . S
H1323 C1299 0.949 . S
H1324 C1301 0.950 . S
H1325 C1303 0.950 . S
C1326 C1327 1.349 . S
C1326 C1328 1.327 . S
C1326 H1351 0.950 . S
C1327 C1326 1.349 . S
C1327 C1343 1.349 . S
C1328 C1326 1.327 . S
C1328 C1347 1.429 . S
C1328 H1352 0.950 . S
C1329 C1346 1.574 . S
C1329 C1348 1.368 . S
C1329 H1353 0.949 . S
H1330 C1334 0.949 . S
C1331 C1332 1.349 . S
C1331 C1333 1.327 . S
C1331 H1354 0.950 . S
C1332 C1331 1.349 . S
C1332 C1344 1.349 . S
C1333 C1331 1.327 . S
C1333 C1349 1.429 . S
C1333 H1355 0.950 . S
C1334 H1330 0.949 . S
C1334 C1342 1.574 . S
C1334 C1350 1.368 . S
H1335 C1343 0.950 . S
H1336 C1341 0.950 . S
H1337 C1342 0.949 . S
H1338 C1344 0.950 . S
H1339 C1345 0.950 . S
H1340 C1346 0.949 . S
C1341 H1336 0.950 . S
C1341 C1343 1.327 . S
C1341 C1347 1.429 . S
C1342 C1334 1.574 . S
C1342 H1337 0.949 . S
C1342 C1348 1.368 . S
C1343 C1327 1.349 . S
C1343 H1335 0.950 . S
C1343 C1341 1.327 . S
C1344 C1332 1.349 . S
C1344 H1338 0.950 . S
C1344 C1345 1.327 . S
C1345 H1339 0.950 . S
C1345 C1344 1.327 . S
C1345 C1349 1.429 . S
C1346 C1329 1.574 . S
C1346 H1340 0.949 . S
C1346 C1350 1.368 . S
C1347 C1328 1.429 . S
C1347 C1341 1.429 . S
C1347 C1348 1.523 . S
C1348 C1329 1.368 . S
C1348 C1342 1.368 . S
C1348 C1347 1.523 . S
C1349 C1333 1.429 . S
C1349 C1345 1.429 . S
C1349 C1350 1.523 . S
C1350 C1334 1.368 . S
C1350 C1346 1.368 . S
C1350 C1349 1.523 . S
H1351 C1326 0.950 . S
H1352 C1328 0.950 . S
H1353 C1329 0.949 . S
H1354 C1331 0.950 . S
H1355 C1333 0.950 . S
C1356 C1357 1.349 . S
C1356 C1358 1.327 . S
C1356 H1381 0.950 . S
C1357 C1356 1.349 . S
C1357 C1373 1.349 . S
C1358 C1356 1.327 . S
C1358 C1377 1.429 . S
C1358 H1382 0.950 . S
C1359 C1376 1.574 . S
C1359 C1378 1.368 . S
C1359 H1383 0.949 . S
H1360 C1364 0.949 . S
C1361 C1362 1.349 . S
C1361 C1363 1.327 . S
C1361 H1384 0.950 . S
C1362 C1361 1.349 . S
C1362 C1374 1.349 . S
C1363 C1361 1.327 . S
C1363 C1379 1.429 . S
C1363 H1385 0.950 . S
C1364 H1360 0.949 . S
C1364 C1372 1.574 . S
C1364 C1380 1.368 . S
H1365 C1373 0.950 . S
H1366 C1371 0.950 . S
H1367 C1372 0.949 . S
H1368 C1374 0.950 . S
H1369 C1375 0.950 . S
H1370 C1376 0.949 . S
C1371 H1366 0.950 . S
C1371 C1373 1.327 . S
C1371 C1377 1.429 . S
C1372 C1364 1.574 . S
C1372 H1367 0.949 . S
C1372 C1378 1.368 . S
C1373 C1357 1.349 . S
C1373 H1365 0.950 . S
C1373 C1371 1.327 . S
C1374 C1362 1.349 . S
C1374 H1368 0.950 . S
C1374 C1375 1.327 . S
C1375 H1369 0.950 . S
C1375 C1374 1.327 . S
C1375 C1379 1.429 . S
C1376 C1359 1.574 . S
C1376 H1370 0.949 . S
C1376 C1380 1.368 . S
C1377 C1358 1.429 . S
C1377 C1371 1.429 . S
C1377 C1378 1.523 . S
C1378 C1359 1.368 . S
C1378 C1372 1.368 . S
C1378 C1377 1.523 . S
C1379 C1363 1.429 . S
C1379 C1375 1.429 . S
C1379 C1380 1.523 . S
C1380 C1364 1.368 . S
C1380 C1376 1.368 . S
C1380 C1379 1.523 . S
H1381 C1356 0.950 . S
H1382 C1358 0.950 . S
H1383 C1359 0.949 . S
H1384 C1361 0.950 . S
H1385 C1363 0.950 . S
C1386 C1387 1.349 . S
C1386 C1388 1.327 . S
C1386 H1411 0.950 . S
C1387 C1386 1.349 . S
C1387 C1403 1.349 . S
C1388 C1386 1.327 . S
C1388 C1407 1.429 . S
C1388 H1412 0.950 . S
C1389 C1406 1.574 . S
C1389 C1408 1.368 . S
C1389 H1413 0.949 . S
H1390 C1394 0.955 . S
C1391 C1392 1.350 . S
C1391 C1393 1.327 . S
C1391 H1414 0.950 . S
C1392 C1391 1.350 . S
C1392 C1404 1.348 1_556 S
C1393 C1391 1.327 . S
C1393 C1409 1.429 . S
C1393 H1415 0.950 . S
C1394 H1390 0.955 . S
C1394 C1402 1.574 . S
C1394 C1410 1.368 . S
H1395 C1403 0.950 . S
H1396 C1401 0.950 . S
H1397 C1402 0.949 . S
H1398 C1404 0.950 . S
H1399 C1405 0.950 . S
H1400 C1406 0.949 . S
C1401 H1396 0.950 . S
C1401 C1403 1.327 . S
C1401 C1407 1.429 . S
C1402 C1394 1.574 . S
C1402 H1397 0.949 . S
C1402 C1408 1.368 . S
C1403 C1387 1.349 . S
C1403 H1395 0.950 . S
C1403 C1401 1.327 . S
C1404 C1392 1.348 1_554 S
C1404 H1398 0.950 . S
C1404 C1405 1.327 . S
C1405 H1399 0.950 . S
C1405 C1404 1.327 . S
C1405 C1409 1.429 1_554 S
C1406 C1389 1.574 . S
C1406 H1400 0.949 . S
C1406 C1410 1.368 . S
C1407 C1388 1.429 . S
C1407 C1401 1.429 . S
C1407 C1408 1.523 . S
C1408 C1389 1.368 . S
C1408 C1402 1.368 . S
C1408 C1407 1.523 . S
C1409 C1393 1.429 . S
C1409 C1405 1.429 1_556 S
C1409 C1410 1.523 . S
C1410 C1394 1.368 . S
C1410 C1406 1.368 . S
C1410 C1409 1.523 . S
H1411 C1386 0.950 . S
H1412 C1388 0.950 . S
H1413 C1389 0.949 . S
H1414 C1391 0.950 . S
H1415 C1393 0.950 . S
C1416 C1417 1.349 . S
C1416 C1418 1.327 . S
C1416 H1441 0.950 . S
C1417 C1416 1.349 . S
C1417 C1433 1.349 . S
C1418 C1416 1.327 . S
C1418 C1437 1.429 . S
C1418 H1442 0.950 . S
C1419 C1436 1.574 . S
C1419 C1438 1.368 . S
C1419 H1443 0.949 . S
H1420 C1424 0.949 . S
C1421 C1422 1.349 . S
C1421 C1423 1.327 . S
C1421 H1444 0.950 . S
C1422 C1421 1.349 . S
C1422 C1434 1.349 . S
C1423 C1421 1.327 . S
C1423 C1439 1.429 . S
C1423 H1445 0.950 . S
C1424 H1420 0.949 . S
C1424 C1432 1.574 . S
C1424 C1440 1.368 . S
H1425 C1433 0.950 . S
H1426 C1431 0.950 . S
H1427 C1432 0.949 . S
H1428 C1434 0.950 . S
H1429 C1435 0.950 . S
H1430 C1436 0.949 . S
C1431 H1426 0.950 . S
C1431 C1433 1.327 . S
C1431 C1437 1.429 . S
C1432 C1424 1.574 . S
C1432 H1427 0.949 . S
C1432 C1438 1.368 . S
C1433 C1417 1.349 . S
C1433 H1425 0.950 . S
C1433 C1431 1.327 . S
C1434 C1422 1.349 . S
C1434 H1428 0.950 . S
C1434 C1435 1.327 . S
C1435 H1429 0.950 . S
C1435 C1434 1.327 . S
C1435 C1439 1.429 . S
C1436 C1419 1.574 . S
C1436 H1430 0.949 . S
C1436 C1440 1.368 . S
C1437 C1418 1.429 . S
C1437 C1431 1.429 . S
C1437 C1438 1.523 . S
C1438 C1419 1.368 . S
C1438 C1432 1.368 . S
C1438 C1437 1.523 . S
C1439 C1423 1.429 . S
C1439 C1435 1.429 . S
C1439 C1440 1.523 . S
C1440 C1424 1.368 . S
C1440 C1436 1.368 . S
C1440 C1439 1.523 . S
H1441 C1416 0.950 . S
H1442 C1418 0.950 . S
H1443 C1419 0.949 . S
H1444 C1421 0.950 . S
H1445 C1423 0.950 . S
C1446 C1447 1.349 . S
C1446 C1448 1.327 . S
C1446 H1471 0.950 . S
C1447 C1446 1.349 . S
C1447 C1463 1.349 . S
C1448 C1446 1.327 . S
C1448 C1467 1.429 . S
C1448 H1472 0.950 1_554 S
C1449 C1466 1.574 . S
C1449 C1468 1.368 . S
C1449 H1473 0.949 1_556 S
H1450 C1454 0.949 . S
C1451 C1452 1.349 . S
C1451 C1453 1.327 . S
C1451 H1474 0.950 . S
C1452 C1451 1.349 . S
C1452 C1464 1.349 . S
C1453 C1451 1.327 . S
C1453 C1469 1.429 . S
C1453 H1475 0.950 . S
C1454 H1450 0.949 . S
C1454 C1462 1.574 . S
C1454 C1470 1.368 . S
H1455 C1463 0.950 . S
H1456 C1461 0.950 . S
H1457 C1462 0.949 . S
H1458 C1464 0.950 . S
H1459 C1465 0.950 . S
H1460 C1466 0.949 . S
C1461 H1456 0.950 . S
C1461 C1463 1.327 . S
C1461 C1467 1.429 . S
C1462 C1454 1.574 . S
C1462 H1457 0.949 . S
C1462 C1468 1.368 . S
C1463 C1447 1.349 . S
C1463 H1455 0.950 . S
C1463 C1461 1.327 . S
C1464 C1452 1.349 . S
C1464 H1458 0.950 . S
C1464 C1465 1.327 . S
C1465 H1459 0.950 . S
C1465 C1464 1.327 . S
C1465 C1469 1.429 . S
C1466 C1449 1.574 . S
C1466 H1460 0.949 . S
C1466 C1470 1.368 . S
C1467 C1448 1.429 . S
C1467 C1461 1.429 . S
C1467 C1468 1.523 1_554 S
C1468 C1449 1.368 . S
C1468 C1462 1.368 . S
C1468 C1467 1.523 1_556 S
C1469 C1453 1.429 . S
C1469 C1465 1.429 . S
C1469 C1470 1.523 . S
C1470 C1454 1.368 . S
C1470 C1466 1.368 . S
C1470 C1469 1.523 . S
H1471 C1446 0.950 . S
H1472 C1448 0.950 1_556 S
H1473 C1449 0.949 1_554 S
H1474 C1451 0.950 . S
H1475 C1453 0.950 . S
C1476 C1477 1.349 . S
C1476 C1478 1.327 . S
C1476 H1501 0.950 . S
C1477 C1476 1.349 . S
C1477 C1493 1.349 . S
C1478 C1476 1.327 . S
C1478 C1497 1.429 . S
C1478 H1502 0.950 . S
C1479 C1496 1.574 . S
C1479 C1498 1.368 . S
C1479 H1503 0.949 . S
H1480 C1484 0.949 . S
C1481 C1482 1.349 . S
C1481 C1483 1.327 . S
C1481 H1504 0.950 1_554 S
C1482 C1481 1.349 . S
C1482 C1494 1.349 . S
C1483 C1481 1.327 . S
C1483 C1499 1.429 . S
C1483 H1505 0.950 . S
C1484 H1480 0.949 . S
C1484 C1492 1.574 . S
C1484 C1500 1.368 . S
H1485 C1493 0.950 . S
H1486 C1491 0.950 . S
H1487 C1492 0.949 . S
H1488 C1494 0.950 . S
H1489 C1495 0.950 . S
H1490 C1496 0.949 . S
C1491 H1486 0.950 . S
C1491 C1493 1.327 . S
C1491 C1497 1.429 . S
C1492 C1484 1.574 . S
C1492 H1487 0.949 . S
C1492 C1498 1.368 . S
C1493 C1477 1.349 . S
C1493 H1485 0.950 . S
C1493 C1491 1.327 . S
C1494 C1482 1.349 . S
C1494 H1488 0.950 . S
C1494 C1495 1.327 . S
C1495 H1489 0.950 . S
C1495 C1494 1.327 . S
C1495 C1499 1.429 . S
C1496 C1479 1.574 . S
C1496 H1490 0.949 . S
C1496 C1500 1.368 . S
C1497 C1478 1.429 . S
C1497 C1491 1.429 . S
C1497 C1498 1.523 . S
C1498 C1479 1.368 . S
C1498 C1492 1.368 . S
C1498 C1497 1.523 . S
C1499 C1483 1.429 . S
C1499 C1495 1.429 . S
C1499 C1500 1.523 . S
C1500 C1484 1.368 . S
C1500 C1496 1.368 . S
C1500 C1499 1.523 . S
H1501 C1476 0.950 . S
H1502 C1478 0.950 . S
H1503 C1479 0.949 . S
H1504 C1481 0.950 1_556 S
H1505 C1483 0.950 . S
C1506 C1507 1.349 . S
C1506 C1508 1.327 . S
C1506 H1531 0.950 . S
C1507 C1506 1.349 . S
C1507 C1523 1.349 . S
C1508 C1506 1.327 . S
C1508 C1527 1.429 . S
C1508 H1532 0.950 . S
C1509 C1526 1.574 . S
C1509 C1528 1.368 . S
C1509 H1533 0.949 . S
H1510 C1514 0.949 . S
C1511 C1512 1.349 . S
C1511 C1513 1.327 . S
C1511 H1534 0.950 . S
C1512 C1511 1.349 . S
C1512 C1524 1.349 . S
C1513 C1511 1.327 . S
C1513 C1529 1.429 . S
C1513 H1535 0.950 . S
C1514 H1510 0.949 . S
C1514 C1522 1.574 . S
C1514 C1530 1.368 . S
H1515 C1523 0.950 . S
H1516 C1521 0.950 . S
H1517 C1522 0.949 . S
H1518 C1524 0.950 . S
H1519 C1525 0.950 . S
H1520 C1526 0.949 . S
C1521 H1516 0.950 . S
C1521 C1523 1.327 . S
C1521 C1527 1.429 . S
C1522 C1514 1.574 . S
C1522 H1517 0.949 . S
C1522 C1528 1.368 . S
C1523 C1507 1.349 . S
C1523 H1515 0.950 . S
C1523 C1521 1.327 . S
C1524 C1512 1.349 . S
C1524 H1518 0.950 . S
C1524 C1525 1.327 . S
C1525 H1519 0.950 . S
C1525 C1524 1.327 . S
C1525 C1529 1.429 . S
C1526 C1509 1.574 . S
C1526 H1520 0.949 . S
C1526 C1530 1.368 . S
C1527 C1508 1.429 . S
C1527 C1521 1.429 . S
C1527 C1528 1.523 . S
C1528 C1509 1.368 . S
C1528 C1522 1.368 . S
C1528 C1527 1.523 . S
C1529 C1513 1.429 . S
C1529 C1525 1.429 . S
C1529 C1530 1.523 . S
C1530 C1514 1.368 . S
C1530 C1526 1.368 . S
C1530 C1529 1.523 . S
H1531 C1506 0.950 . S
H1532 C1508 0.950 . S
H1533 C1509 0.949 . S
H1534 C1511 0.950 . S
H1535 C1513 0.950 . S
C1536 C1537 1.349 . S
C1536 C1538 1.327 . S
C1536 H1561 0.950 . S
C1537 C1536 1.349 . S
C1537 C1553 1.349 . S
C1538 C1536 1.327 . S
C1538 C1557 1.429 . S
C1538 H1562 0.950 . S
C1539 C1556 1.574 . S
C1539 C1558 1.368 . S
C1539 H1563 0.949 . S
H1540 C1544 0.949 . S
C1541 C1542 1.349 . S
C1541 C1543 1.327 . S
C1541 H1564 0.950 . S
C1542 C1541 1.349 . S
C1542 C1554 1.349 . S
C1543 C1541 1.327 . S
C1543 C1559 1.429 . S
C1543 H1565 0.950 . S
C1544 H1540 0.949 . S
C1544 C1552 1.574 . S
C1544 C1560 1.368 . S
H1545 C1553 0.950 . S
H1546 C1551 0.950 . S
H1547 C1552 0.949 . S
H1548 C1554 0.950 . S
H1549 C1555 0.950 . S
H1550 C1556 0.949 . S
C1551 H1546 0.950 . S
C1551 C1553 1.327 . S
C1551 C1557 1.429 . S
C1552 C1544 1.574 . S
C1552 H1547 0.949 . S
C1552 C1558 1.368 . S
C1553 C1537 1.349 . S
C1553 H1545 0.950 . S
C1553 C1551 1.327 . S
C1554 C1542 1.349 . S
C1554 H1548 0.950 . S
C1554 C1555 1.327 . S
C1555 H1549 0.950 . S
C1555 C1554 1.327 . S
C1555 C1559 1.429 . S
C1556 C1539 1.574 . S
C1556 H1550 0.949 . S
C1556 C1560 1.368 . S
C1557 C1538 1.429 . S
C1557 C1551 1.429 . S
C1557 C1558 1.523 . S
C1558 C1539 1.368 . S
C1558 C1552 1.368 . S
C1558 C1557 1.523 . S
C1559 C1543 1.429 . S
C1559 C1555 1.429 . S
C1559 C1560 1.523 . S
C1560 C1544 1.368 . S
C1560 C1556 1.368 . S
C1560 C1559 1.523 . S
H1561 C1536 0.950 . S
H1562 C1538 0.950 . S
H1563 C1539 0.949 . S
H1564 C1541 0.950 . S
H1565 C1543 0.950 . S
C1566 C1567 1.349 . S
C1566 C1568 1.327 . S
C1566 H1591 0.950 . S
C1567 C1566 1.349 . S
C1567 C1583 1.349 . S
C1568 C1566 1.327 . S
C1568 C1587 1.429 . S
C1568 H1592 0.950 . S
C1569 C1586 1.574 . S
C1569 C1588 1.368 . S
C1569 H1593 0.949 . S
H1570 C1574 0.949 . S
C1571 C1572 1.349 . S
C1571 C1573 1.327 . S
C1571 H1594 0.950 . S
C1572 C1571 1.349 . S
C1572 C1584 1.349 . S
C1573 C1571 1.327 . S
C1573 C1589 1.429 . S
C1573 H1595 0.950 . S
C1574 H1570 0.949 . S
C1574 C1582 1.574 . S
C1574 C1590 1.368 . S
H1575 C1583 0.950 . S
H1576 C1581 0.950 . S
H1577 C1582 0.949 . S
H1578 C1584 0.950 . S
H1579 C1585 0.950 . S
H1580 C1586 0.949 . S
C1581 H1576 0.950 . S
C1581 C1583 1.327 . S
C1581 C1587 1.429 . S
C1582 C1574 1.574 . S
C1582 H1577 0.949 . S
C1582 C1588 1.368 . S
C1583 C1567 1.349 . S
C1583 H1575 0.950 . S
C1583 C1581 1.327 . S
C1584 C1572 1.349 . S
C1584 H1578 0.950 . S
C1584 C1585 1.327 . S
C1585 H1579 0.950 . S
C1585 C1584 1.327 . S
C1585 C1589 1.429 . S
C1586 C1569 1.574 . S
C1586 H1580 0.949 . S
C1586 C1590 1.368 . S
C1587 C1568 1.429 . S
C1587 C1581 1.429 . S
C1587 C1588 1.523 . S
C1588 C1569 1.368 . S
C1588 C1582 1.368 . S
C1588 C1587 1.523 . S
C1589 C1573 1.429 . S
C1589 C1585 1.429 . S
C1589 C1590 1.523 . S
C1590 C1574 1.368 . S
C1590 C1586 1.368 . S
C1590 C1589 1.523 . S
H1591 C1566 0.950 . S
H1592 C1568 0.950 . S
H1593 C1569 0.949 . S
H1594 C1571 0.950 . S
H1595 C1573 0.950 . S
C1596 C1597 1.349 . S
C1596 C1598 1.327 . S
C1596 H1621 0.950 1_556 S
C1597 C1596 1.349 . S
C1597 C1613 1.349 . S
C1598 C1596 1.327 . S
C1598 C1617 1.429 . S
C1598 H1622 0.950 . S
C1599 C1616 1.574 . S
C1599 C1618 1.368 . S
C1599 H1623 0.949 . S
H1600 C1604 0.949 . S
C1601 C1602 1.349 . S
C1601 C1603 1.327 . S
C1601 H1624 0.950 . S
C1602 C1601 1.349 . S
C1602 C1614 1.349 . S
C1603 C1601 1.327 . S
C1603 C1619 1.429 . S
C1603 H1625 0.950 . S
C1604 H1600 0.949 . S
C1604 C1612 1.574 . S
C1604 C1620 1.368 . S
H1605 C1613 0.950 . S
H1606 C1611 0.950 . S
H1607 C1612 0.949 . S
H1608 C1614 0.950 . S
H1609 C1615 0.950 . S
H1610 C1616 0.949 . S
C1611 H1606 0.950 . S
C1611 C1613 1.327 . S
C1611 C1617 1.429 . S
C1612 C1604 1.574 . S
C1612 H1607 0.949 . S
C1612 C1618 1.368 1_655 S
C1613 C1597 1.349 . S
C1613 H1605 0.950 . S
C1613 C1611 1.327 . S
C1614 C1602 1.349 . S
C1614 H1608 0.950 . S
C1614 C1615 1.327 . S
C1615 H1609 0.950 . S
C1615 C1614 1.327 . S
C1615 C1619 1.429 . S
C1616 C1599 1.574 . S
C1616 H1610 0.949 . S
C1616 C1620 1.368 1_455 S
C1617 C1598 1.429 . S
C1617 C1611 1.429 . S
C1617 C1618 1.523 . S
C1618 C1599 1.368 . S
C1618 C1612 1.368 1_455 S
C1618 C1617 1.523 . S
C1619 C1603 1.429 . S
C1619 C1615 1.429 . S
C1619 C1620 1.523 . S
C1620 C1604 1.368 . S
C1620 C1616 1.368 1_655 S
C1620 C1619 1.523 . S
H1621 C1596 0.950 1_554 S
H1622 C1598 0.950 . S
H1623 C1599 0.949 . S
H1624 C1601 0.950 . S
H1625 C1603 0.950 . S
C1626 C1627 1.349 . S
C1626 C1628 1.327 . S
C1626 H1651 0.950 . S
C1627 C1626 1.349 . S
C1627 C1643 1.349 . S
C1628 C1626 1.327 . S
C1628 C1647 1.429 . S
C1628 H1652 0.950 1_556 S
C1629 C1646 1.564 1_556 S
C1629 C1648 1.364 1_546 S
C1629 H1653 0.962 . S
H1630 C1634 0.949 . S
C1631 C1632 1.349 . S
C1631 C1633 1.327 . S
C1631 H1654 0.950 . S
C1632 C1631 1.349 . S
C1632 C1644 1.349 . S
C1633 C1631 1.327 . S
C1633 C1649 1.429 . S
C1633 H1655 0.950 . S
C1634 H1630 0.949 . S
C1634 C1642 1.574 . S
C1634 C1650 1.368 1_565 S
H1635 C1643 0.950 . S
H1636 C1641 0.950 . S
H1637 C1642 0.949 . S
H1638 C1644 0.950 . S
H1639 C1645 0.950 . S
H1640 C1646 0.949 . S
C1641 H1636 0.950 . S
C1641 C1643 1.327 . S
C1641 C1647 1.429 . S
C1642 C1634 1.574 . S
C1642 H1637 0.949 . S
C1642 C1648 1.368 . S
C1643 C1627 1.349 . S
C1643 H1635 0.950 . S
C1643 C1641 1.327 . S
C1644 C1632 1.349 . S
C1644 H1638 0.950 . S
C1644 C1645 1.327 . S
C1645 H1639 0.950 . S
C1645 C1644 1.327 . S
C1645 C1649 1.429 . S
C1646 C1629 1.564 1_554 S
C1646 H1640 0.949 . S
C1646 C1650 1.368 . S
C1647 C1628 1.429 . S
C1647 C1641 1.429 . S
C1647 C1648 1.523 1_556 S
C1648 C1629 1.364 1_564 S
C1648 C1642 1.368 . S
C1648 C1647 1.523 1_554 S
C1649 C1633 1.429 . S
C1649 C1645 1.429 . S
C1649 C1650 1.523 . S
C1650 C1634 1.368 1_545 S
C1650 C1646 1.368 . S
C1650 C1649 1.523 . S
H1651 C1626 0.950 . S
H1652 C1628 0.950 1_554 S
H1653 C1629 0.962 . S
H1654 C1631 0.950 . S
H1655 C1633 0.950 . S
C1656 C1657 1.349 . S
C1656 C1658 1.327 . S
C1656 H1681 0.950 . S
C1657 C1656 1.349 . S
C1657 C1673 1.349 . S
C1658 C1656 1.327 . S
C1658 C1677 1.429 . S
C1658 H1682 0.950 . S
C1659 C1676 1.574 . S
C1659 C1678 1.368 . S
C1659 H1683 0.949 . S
H1660 C1664 0.949 . S
C1661 C1662 1.349 . S
C1661 C1663 1.327 . S
C1661 H1684 0.950 . S
C1662 C1661 1.349 . S
C1662 C1674 1.349 . S
C1663 C1661 1.327 . S
C1663 C1679 1.429 . S
C1663 H1685 0.950 . S
C1664 H1660 0.949 . S
C1664 C1672 1.574 . S
C1664 C1680 1.368 . S
H1665 C1673 0.950 . S
H1666 C1671 0.950 . S
H1667 C1672 0.949 . S
H1668 C1674 0.950 . S
H1669 C1675 0.950 . S
H1670 C1676 0.949 . S
C1671 H1666 0.950 . S
C1671 C1673 1.327 . S
C1671 C1677 1.429 . S
C1672 C1664 1.574 . S
C1672 H1667 0.949 . S
C1672 C1678 1.368 . S
C1673 C1657 1.349 . S
C1673 H1665 0.950 . S
C1673 C1671 1.327 . S
C1674 C1662 1.349 . S
C1674 H1668 0.950 . S
C1674 C1675 1.327 . S
C1675 H1669 0.950 . S
C1675 C1674 1.327 . S
C1675 C1679 1.429 . S
C1676 C1659 1.574 . S
C1676 H1670 0.949 . S
C1676 C1680 1.368 . S
C1677 C1658 1.429 . S
C1677 C1671 1.429 . S
C1677 C1678 1.523 . S
C1678 C1659 1.368 . S
C1678 C1672 1.368 . S
C1678 C1677 1.523 . S
C1679 C1663 1.429 . S
C1679 C1675 1.429 . S
C1679 C1680 1.523 . S
C1680 C1664 1.368 . S
C1680 C1676 1.368 . S
C1680 C1679 1.523 . S
H1681 C1656 0.950 . S
H1682 C1658 0.950 . S
H1683 C1659 0.949 . S
H1684 C1661 0.950 . S
H1685 C1663 0.950 . S
C1686 C1687 1.349 . S
C1686 C1688 1.327 . S
C1686 H1711 0.950 . S
C1687 C1686 1.349 . S
C1687 C1703 1.349 . S
C1688 C1686 1.327 . S
C1688 C1707 1.429 . S
C1688 H1712 0.950 . S
C1689 C1706 1.576 . S
C1689 C1708 1.368 . S
C1689 H1713 0.949 . S
H1690 C1694 0.949 . S
C1691 C1692 1.349 . S
C1691 C1693 1.327 . S
C1691 H1714 0.950 . S
C1692 C1691 1.349 . S
C1692 C1704 1.349 . S
C1693 C1691 1.327 . S
C1693 C1709 1.429 . S
C1693 H1715 0.950 . S
C1694 H1690 0.949 . S
C1694 C1702 1.577 . S
C1694 C1710 1.368 . S
H1695 C1703 0.950 . S
H1696 C1701 0.950 . S
H1697 C1702 0.950 1_455 S
H1698 C1704 0.950 . S
H1699 C1705 0.950 . S
H1700 C1706 0.950 1_655 S
C1701 H1696 0.950 . S
C1701 C1703 1.327 . S
C1701 C1707 1.429 . S
C1702 C1694 1.577 . S
C1702 H1697 0.950 1_655 S
C1702 C1708 1.367 1_655 S
C1703 C1687 1.349 . S
C1703 H1695 0.950 . S
C1703 C1701 1.327 . S
C1704 C1692 1.349 . S
C1704 H1698 0.950 . S
C1704 C1705 1.327 . S
C1705 H1699 0.950 . S
C1705 C1704 1.327 . S
C1705 C1709 1.429 . S
C1706 C1689 1.576 . S
C1706 H1700 0.950 1_455 S
C1706 C1710 1.367 1_455 S
C1707 C1688 1.429 . S
C1707 C1701 1.429 . S
C1707 C1708 1.523 . S
C1708 C1689 1.368 . S
C1708 C1702 1.367 1_455 S
C1708 C1707 1.523 . S
C1709 C1693 1.429 . S
C1709 C1705 1.429 . S
C1709 C1710 1.523 . S
C1710 C1694 1.368 . S
C1710 C1706 1.367 1_655 S
C1710 C1709 1.523 . S
H1711 C1686 0.950 . S
H1712 C1688 0.950 . S
H1713 C1689 0.949 . S
H1714 C1691 0.950 . S
H1715 C1693 0.950 . S
C1716 C1717 1.349 . S
C1716 C1718 1.327 . S
C1716 H1741 0.950 . S
C1717 C1716 1.349 . S
C1717 C1733 1.349 . S
C1718 C1716 1.327 . S
C1718 C1737 1.429 . S
C1718 H1742 0.950 . S
C1719 C1736 1.604 . S
C1719 C1738 1.323 1_565 S
C1719 H1743 0.946 . S
H1720 C1724 0.946 . S
C1721 C1722 1.349 . S
C1721 C1723 1.327 . S
C1721 H1744 0.950 . S
C1722 C1721 1.349 . S
C1722 C1734 1.349 . S
C1723 C1721 1.327 . S
C1723 C1739 1.429 . S
C1723 H1745 0.950 . S
C1724 H1720 0.946 . S
C1724 C1732 1.605 . S
C1724 C1740 1.322 1_545 S
H1725 C1733 0.950 . S
H1726 C1731 0.950 . S
H1727 C1732 0.949 . S
H1728 C1734 0.950 . S
H1729 C1735 0.950 . S
H1730 C1736 0.949 . S
C1731 H1726 0.950 . S
C1731 C1733 1.327 . S
C1731 C1737 1.429 . S
C1732 C1724 1.605 . S
C1732 H1727 0.949 . S
C1732 C1738 1.368 . S
C1733 C1717 1.349 . S
C1733 H1725 0.950 . S
C1733 C1731 1.327 . S
C1734 C1722 1.349 . S
C1734 H1728 0.950 . S
C1734 C1735 1.327 . S
C1735 H1729 0.950 . S
C1735 C1734 1.327 . S
C1735 C1739 1.429 . S
C1736 C1719 1.604 . S
C1736 H1730 0.949 . S
C1736 C1740 1.368 . S
C1737 C1718 1.429 . S
C1737 C1731 1.429 . S
C1737 C1738 1.523 . S
C1738 C1719 1.323 1_545 S
C1738 C1732 1.368 . S
C1738 C1737 1.523 . S
C1739 C1723 1.429 . S
C1739 C1735 1.429 . S
C1739 C1740 1.523 . S
C1740 C1724 1.322 1_565 S
C1740 C1736 1.368 . S
C1740 C1739 1.523 . S
H1741 C1716 0.950 . S
H1742 C1718 0.950 . S
H1743 C1719 0.946 . S
H1744 C1721 0.950 . S
H1745 C1723 0.950 . S
C1746 C1747 1.349 . S
C1746 C1748 1.327 . S
C1746 H1771 0.950 . S
C1747 C1746 1.349 . S
C1747 C1763 1.349 . S
C1748 C1746 1.327 . S
C1748 C1767 1.429 . S
C1748 H1772 0.950 . S
C1749 C1766 1.574 . S
C1749 C1768 1.368 . S
C1749 H1773 0.949 . S
H1750 C1754 0.949 . S
C1751 C1752 1.349 . S
C1751 C1753 1.327 . S
C1751 H1774 0.950 . S
C1752 C1751 1.349 . S
C1752 C1764 1.349 . S
C1753 C1751 1.327 . S
C1753 C1769 1.429 . S
C1753 H1775 0.950 . S
C1754 H1750 0.949 . S
C1754 C1762 1.574 . S
C1754 C1770 1.368 . S
H1755 C1763 0.950 . S
H1756 C1761 0.950 . S
H1757 C1762 0.949 . S
H1758 C1764 0.950 . S
H1759 C1765 0.950 . S
H1760 C1766 0.949 . S
C1761 H1756 0.950 . S
C1761 C1763 1.327 . S
C1761 C1767 1.429 . S
C1762 C1754 1.574 . S
C1762 H1757 0.949 . S
C1762 C1768 1.368 . S
C1763 C1747 1.349 . S
C1763 H1755 0.950 . S
C1763 C1761 1.327 . S
C1764 C1752 1.349 . S
C1764 H1758 0.950 . S
C1764 C1765 1.327 . S
C1765 H1759 0.950 . S
C1765 C1764 1.327 . S
C1765 C1769 1.429 . S
C1766 C1749 1.574 . S
C1766 H1760 0.949 . S
C1766 C1770 1.368 . S
C1767 C1748 1.429 . S
C1767 C1761 1.429 . S
C1767 C1768 1.523 . S
C1768 C1749 1.368 . S
C1768 C1762 1.368 . S
C1768 C1767 1.523 . S
C1769 C1753 1.429 . S
C1769 C1765 1.429 . S
C1769 C1770 1.523 . S
C1770 C1754 1.368 . S
C1770 C1766 1.368 . S
C1770 C1769 1.523 . S
H1771 C1746 0.950 . S
H1772 C1748 0.950 . S
H1773 C1749 0.949 . S
H1774 C1751 0.950 . S
H1775 C1753 0.950 . S
C1057 C29 1.135 . S
C1062 C937 1.135 . S
C1087 C1017 1.135 . S
C1092 C117 1.135 . S
C1117 C196 1.136 . S
C1122 C577 1.136 . S
C1147 C293 1.135 . S
C1152 C673 1.135 . S
C1177 C372 1.136 . S
C1182 C761 1.136 . S
C1207 C849 1.136 . S
C1212 C469 1.156 . S
C1237 C20 1.654 . S
C1242 C753 1.654 . S
C1267 C108 1.654 . S
C1272 C841 1.654 . S
C1297 C929 1.654 . S
C1302 C205 1.654 . S
C1327 C284 1.654 . S
C1332 C1025 1.654 . S
C1357 C381 1.654 . S
C1362 C585 1.654 . S
C1387 C460 1.654 . S
C1392 C665 1.654 1_556 S
C1417 C900 0.381 . S
C1422 C49 0.381 . S
C1447 C137 0.382 . S
C1452 C997 0.382 . S
C1477 C233 0.381 . S
C1482 C557 0.381 . S
C1507 C313 0.381 . S
C1512 C636 0.381 . S
C1537 C724 0.381 . S
C1542 C409 0.381 . S
C1567 C489 0.381 . S
C1572 C812 0.381 . S
C1597 C57 1.608 . S
C1602 C988 1.608 . S
C1627 C548 1.609 . S
C1632 C145 1.609 . S
C1657 C645 1.608 . S
C1662 C225 1.608 . S
C1687 C733 1.609 . S
C1692 C321 1.609 . S
C1717 C821 1.609 . S
C1722 C401 1.609 . S
C1747 C909 1.609 . S
C1752 C497 1.609 . S
