# Generated by pormake.
# Topology unf, (4)-cn, num edge types: 1
# Building blocks:
#     Node 0, Type 0, BuildingBlock: QUQFOY_clean_sbu_1, # of connection points: 4
#     Node 1, Type 0, BuildingBlock: QUQFOY_clean_sbu_1, # of connection points: 4
#     Node 2, Type 0, BuildingBlock: QUQFOY_clean_sbu_1, # of connection points: 4
#     Node 3, Type 0, BuildingBlock: QUQFOY_clean_sbu_1, # of connection points: 4
#     Node 4, Type 0, BuildingBlock: QUQFOY_clean_sbu_1, # of connection points: 4
#     Node 5, Type 0, BuildingBlock: QUQFOY_clean_sbu_1, # of connection points: 4
#     Node 6, Type 0, BuildingBlock: QUQFOY_clean_sbu_1, # of connection points: 4
#     Node 7, Type 0, BuildingBlock: QUQFOY_clean_sbu_1, # of connection points: 4
#     Node 8, Type 0, BuildingBlock: QUQFOY_clean_sbu_1, # of connection points: 4
#     Node 9, Type 0, BuildingBlock: QUQFOY_clean_sbu_1, # of connection points: 4
#     Node 10, Type 0, BuildingBlock: QUQFOY_clean_sbu_1, # of connection points: 4
#     Node 11, Type 0, BuildingBlock: QUQFOY_clean_sbu_1, # of connection points: 4
#     Edge 12, Type (0, 0), BuildingBlock: TEMPAE_clean_linker_10, # of connection points: 2
#     Edge 13, Type (0, 0), BuildingBlock: TEMPAE_clean_linker_10, # of connection points: 2
#     Edge 14, Type (0, 0), BuildingBlock: TEMPAE_clean_linker_10, # of connection points: 2
#     Edge 15, Type (0, 0), BuildingBlock: TEMPAE_clean_linker_10, # of connection points: 2
#     Edge 16, Type (0, 0), BuildingBlock: TEMPAE_clean_linker_10, # of connection points: 2
#     Edge 17, Type (0, 0), BuildingBlock: TEMPAE_clean_linker_10, # of connection points: 2
#     Edge 18, Type (0, 0), BuildingBlock: TEMPAE_clean_linker_10, # of connection points: 2
#     Edge 19, Type (0, 0), BuildingBlock: TEMPAE_clean_linker_10, # of connection points: 2
#     Edge 20, Type (0, 0), BuildingBlock: TEMPAE_clean_linker_10, # of connection points: 2
#     Edge 21, Type (0, 0), BuildingBlock: TEMPAE_clean_linker_10, # of connection points: 2
#     Edge 22, Type (0, 0), BuildingBlock: TEMPAE_clean_linker_10, # of connection points: 2
#     Edge 23, Type (0, 0), BuildingBlock: TEMPAE_clean_linker_10, # of connection points: 2
#     Edge 24, Type (0, 0), BuildingBlock: TEMPAE_clean_linker_10, # of connection points: 2
#     Edge 25, Type (0, 0), BuildingBlock: TEMPAE_clean_linker_10, # of connection points: 2
#     Edge 26, Type (0, 0), BuildingBlock: TEMPAE_clean_linker_10, # of connection points: 2
#     Edge 27, Type (0, 0), BuildingBlock: TEMPAE_clean_linker_10, # of connection points: 2
#     Edge 28, Type (0, 0), BuildingBlock: TEMPAE_clean_linker_10, # of connection points: 2
#     Edge 29, Type (0, 0), BuildingBlock: TEMPAE_clean_linker_10, # of connection points: 2
#     Edge 30, Type (0, 0), BuildingBlock: TEMPAE_clean_linker_10, # of connection points: 2
#     Edge 31, Type (0, 0), BuildingBlock: TEMPAE_clean_linker_10, # of connection points: 2
#     Edge 32, Type (0, 0), BuildingBlock: TEMPAE_clean_linker_10, # of connection points: 2
#     Edge 33, Type (0, 0), BuildingBlock: TEMPAE_clean_linker_10, # of connection points: 2
#     Edge 34, Type (0, 0), BuildingBlock: TEMPAE_clean_linker_10, # of connection points: 2
#     Edge 35, Type (0, 0), BuildingBlock: TEMPAE_clean_linker_10, # of connection points: 2
# Relax obj value: 0.128
# Max RMSD: 0.160
# Mean RMSD: 0.160
data_MOF--net-unf--node1-QUQFOY_clean_sbu_1--edge1-TEMPAE_clean_linker_10
_symmetry_space_group_name_H-M    P1
_symmetry_Int_Tables_number       1
_symmetry_cell_setting            triclinic
loop_
_symmetry_equiv_pos_as_xyz
'x, y, z'
_cell_length_a     40.604782
_cell_length_b     40.61908
_cell_length_c     41.026393
_cell_angle_alpha  89.947966
_cell_angle_beta   89.993192
_cell_angle_gamma 120.08892
loop_
_atom_site_label
_atom_site_type_symbol
_atom_site_fract_x
_atom_site_fract_y
_atom_site_fract_z
_atom_type_partial_charge
O0 O 0.11896 0.3552 0.07945 0.0
Cd1 Cd 0.09203 0.3684 0.11534 0.0
Cd2 Cd 0.08616 0.41124 0.05209 0.0
O3 O 0.12582 0.39572 0.04014 0.0
O4 O 0.10036 0.34636 0.15577 0.0
O5 O 0.12602 0.40836 0.14796 0.0
C6 C 0.12192 0.38055 0.16608 0.0
C7 C 0.07623 0.44797 0.0135 0.0
C8 C 0.1327 0.3709 0.05212 0.0
C9 C 0.01546 0.34952 0.09156 0.0
O10 O 0.03276 0.37281 0.06862 0.0
O11 O 0.0337 0.34367 0.11373 0.0
O12 O 0.0691 0.41408 0.00723 0.0
O13 O 0.09246 0.4627 0.04094 0.0
O14 O 0.65849 0.76261 0.07605 0.0
Cd15 Cd 0.63645 0.71773 0.10827 0.0
Cd16 Cd 0.59821 0.67947 0.04451 0.0
O17 O 0.61832 0.73634 0.03492 0.0
O18 O 0.65174 0.74207 0.1519 0.0
O19 O 0.59182 0.71088 0.1352 0.0
C20 C 0.61645 0.73105 0.15724 0.0
C21 C 0.55607 0.63406 0.00756 0.0
C22 C 0.64508 0.76544 0.04886 0.0
C23 C 0.65361 0.66061 0.08231 0.0
O24 O 0.63396 0.6599 0.05804 0.0
O25 O 0.65745 0.68099 0.107 0.0
O26 O 0.5901 0.65913 0.99933 0.0
O27 O 0.54432 0.63723 0.03601 0.0
O28 O 0.22237 0.87146 0.06165 0.0
Cd29 Cd 0.26161 0.90526 0.09604 0.0
Cd30 Cd 0.30812 0.90797 0.03534 0.0
O31 O 0.25491 0.86534 0.02115 0.0
O32 O 0.22676 0.89618 0.13339 0.0
O33 O 0.27167 0.88069 0.13488 0.0
C34 C 0.24319 0.88078 0.14881 0.0
C35 C 0.36269 0.91613 0.00882 0.0
C36 C 0.22341 0.857 0.03449 0.0
C37 C 0.31036 0.98005 0.06473 0.0
O38 O 0.31722 0.96164 0.04346 0.0
O39 O 0.28952 0.96335 0.08926 0.0
O40 O 0.33725 0.92029 0.99379 0.0
O41 O 0.35533 0.9033 0.03831 0.0
O42 O 0.64206 0.87188 0.43685 0.0
Cd43 Cd 0.63651 0.90563 0.40224 0.0
Cd44 Cd 0.58921 0.90437 0.44519 0.0
O45 O 0.58932 0.8573 0.46335 0.0
O46 O 0.65521 0.89639 0.36043 0.0
O47 O 0.59452 0.87786 0.3697 0.0
C48 C 0.62031 0.87872 0.35066 0.0
C49 C 0.53648 0.91131 0.43938 0.0
C50 C 0.61751 0.85247 0.45853 0.0
C51 C 0.66135 0.97725 0.43695 0.0
O52 O 0.63498 0.95612 0.45657 0.0
O53 O 0.66532 0.9637 0.4103 0.0
O54 O 0.54721 0.90637 0.46763 0.0
O55 O 0.5533 0.90807 0.41385 0.0
O56 O 0.14318 0.78427 0.45689 0.0
Cd57 Cd 0.10539 0.75241 0.42064 0.0
Cd58 Cd 0.09631 0.69754 0.4639 0.0
O59 O 0.14603 0.73921 0.4844 0.0
O60 O 0.11985 0.7907 0.38524 0.0
O61 O 0.12503 0.73926 0.38037 0.0
C62 C 0.13025 0.77087 0.36818 0.0
C63 C 0.08122 0.63462 0.45948 0.0
C64 C 0.1579 0.77422 0.47933 0.0
C65 C 0.0309 0.711 0.454 0.0
O66 O 0.04766 0.69937 0.4729 0.0
O67 O 0.04789 0.73063 0.42894 0.0
O68 O 0.08579 0.65068 0.48745 0.0
O69 O 0.08853 0.65531 0.4336 0.0
O70 O 0.2087 0.34016 0.45543 0.0
Cd71 Cd 0.24878 0.34294 0.42297 0.0
Cd72 Cd 0.29396 0.3863 0.46873 0.0
O73 O 0.24795 0.38996 0.48476 0.0
O74 O 0.22278 0.32582 0.38008 0.0
O75 O 0.26765 0.38534 0.3901 0.0
C76 C 0.24275 0.36061 0.37037 0.0
C77 C 0.35554 0.43598 0.46219 0.0
C78 C 0.21429 0.3641 0.47777 0.0
C79 C 0.28795 0.31123 0.46076 0.0
O80 O 0.29431 0.33767 0.48063 0.0
O81 O 0.27316 0.30993 0.43314 0.0
O82 O 0.33995 0.42681 0.49063 0.0
O83 O 0.33475 0.41932 0.43695 0.0
O84 O 0.85344 0.63652 0.95145 0.0
Cd85 Cd 0.89071 0.64161 0.91507 0.0
Cd86 Cd 0.89577 0.59245 0.95575 0.0
O87 O 0.84629 0.58522 0.97609 0.0
O88 O 0.87797 0.66728 0.88016 0.0
O89 O 0.87002 0.60955 0.87456 0.0
C90 C 0.86619 0.63699 0.86283 0.0
C91 C 0.90884 0.54362 0.94873 0.0
C92 C 0.83673 0.61033 0.97253 0.0
C93 C 0.964 0.67009 0.94897 0.0
O94 O 0.94547 0.64112 0.96703 0.0
O95 O 0.9484 0.67483 0.92393 0.0
O96 O 0.9036 0.55335 0.97726 0.0
O97 O 0.90297 0.55921 0.92361 0.0
O98 O 0.33782 0.21982 0.94382 0.0
Cd99 Cd 0.3419 0.26024 0.91117 0.0
Cd100 Cd 0.38872 0.30472 0.95467 0.0
O101 O 0.39112 0.25769 0.96973 0.0
O102 O 0.32387 0.23435 0.8684 0.0
O103 O 0.38418 0.27718 0.87849 0.0
C104 C 0.35886 0.25272 0.85885 0.0
C105 C 0.43943 0.36552 0.9473 0.0
C106 C 0.36321 0.22454 0.96443 0.0
C107 C 0.31519 0.3027 0.9499 0.0
O108 O 0.34194 0.3075 0.96884 0.0
O109 O 0.31189 0.2876 0.92209 0.0
O110 O 0.43121 0.34983 0.97573 0.0
O111 O 0.42125 0.34505 0.92234 0.0
O112 O 0.78914 0.14157 0.96691 0.0
Cd113 Cd 0.75594 0.09998 0.9337 0.0
Cd114 Cd 0.70373 0.09212 0.97794 0.0
O115 O 0.74454 0.14441 0.99515 0.0
O116 O 0.79147 0.11259 0.89631 0.0
O117 O 0.73839 0.11503 0.89319 0.0
C118 C 0.76945 0.1205 0.87961 0.0
C119 C 0.64033 0.07396 0.97041 0.0
C120 C 0.77948 0.15732 0.9887 0.0
C121 C 0.72063 0.0289 0.97246 0.0
O122 O 0.7089 0.04618 0.99065 0.0
O123 O 0.73765 0.04397 0.94587 0.0
O124 O 0.65536 0.08118 0.99905 0.0
O125 O 0.66219 0.08017 0.9455 0.0
O126 O 0.33796 0.10686 0.57848 0.0
Cd127 Cd 0.35498 0.08261 0.61382 0.0
Cd128 Cd 0.39741 0.0789 0.55027 0.0
O129 O 0.37984 0.11729 0.53941 0.0
O130 O 0.33577 0.09216 0.65531 0.0
O131 O 0.39713 0.11928 0.64349 0.0
C132 C 0.37059 0.11542 0.66318 0.0
C133 C 0.43338 0.07013 0.51018 0.0
C134 C 0.35358 0.12191 0.55144 0.0
C135 C 0.33898 0.00716 0.59095 0.0
O136 O 0.36129 0.02522 0.56763 0.0
O137 O 0.33246 0.02457 0.6134 0.0
O138 O 0.39886 0.0618 0.50514 0.0
O139 O 0.44904 0.08692 0.53722 0.0
O140 O 0.85921 0.21944 0.56798 0.0
Cd141 Cd 0.8926 0.2537 0.6053 0.0
Cd142 Cd 0.90166 0.30944 0.54519 0.0
O143 O 0.85865 0.25736 0.52932 0.0
O144 O 0.88021 0.21516 0.64026 0.0
O145 O 0.86809 0.26223 0.64492 0.0
C146 C 0.86617 0.23196 0.65704 0.0
C147 C 0.91595 0.36282 0.51324 0.0
C148 C 0.84736 0.22428 0.54071 0.0
C149 C 0.96978 0.30615 0.57945 0.0
O150 O 0.95328 0.31679 0.55934 0.0
O151 O 0.95093 0.28065 0.60055 0.0
O152 O 0.92025 0.33556 0.50247 0.0
O153 O 0.90006 0.35837 0.5414 0.0
O154 O 0.77168 0.65888 0.56005 0.0
Cd155 Cd 0.73235 0.65051 0.59535 0.0
Cd156 Cd 0.68546 0.60586 0.53464 0.0
O157 O 0.73941 0.61909 0.52005 0.0
O158 O 0.76681 0.67475 0.63316 0.0
O159 O 0.72307 0.61375 0.63228 0.0
C160 C 0.75108 0.64193 0.64708 0.0
C161 C 0.63232 0.5607 0.50568 0.0
C162 C 0.77078 0.64359 0.53282 0.0
C163 C 0.6802 0.67324 0.56691 0.0
O164 O 0.67391 0.64825 0.54552 0.0
O165 O 0.70247 0.67886 0.59063 0.0
O166 O 0.65767 0.59184 0.4924 0.0
O167 O 0.6391 0.55307 0.53463 0.0
C168 C 0.1787 0.38185 0.00707 0.0
C169 C 0.15741 0.36022 0.03394 0.0
C170 C 0.20336 0.37285 0.99046 0.0
C171 C 0.20649 0.34131 1.00082 0.0
C172 C 0.18425 0.3187 0.02726 0.0
C173 C 0.16012 0.32854 0.04361 0.0
C174 C 0.22696 0.39782 0.96255 0.0
C175 C 0.18669 0.28467 0.03885 0.0
C176 C 0.25202 0.29947 0.94652 0.0
C177 C 0.28802 0.31445 0.96092 0.0
C178 C 0.22527 0.30857 0.95879 0.0
C179 C 0.23509 0.33353 0.98574 0.0
C180 C 0.27189 0.34982 0.99951 0.0
C181 C 0.29781 0.33991 0.98705 0.0
C182 C 0.18615 0.29054 0.94367 0.0
C183 C 0.28361 0.37699 0.02797 0.0
H184 H 0.17676 0.40637 0.99941 0.0
H185 H 0.14351 0.31145 0.06414 0.0
H186 H 0.25756 0.4124 0.9692 0.0
H187 H 0.22329 0.38029 0.94066 0.0
H188 H 0.21933 0.41974 0.95613 0.0
H189 H 0.16553 0.26849 0.05822 0.0
H190 H 0.18201 0.26521 0.01817 0.0
H191 H 0.21557 0.29419 0.0486 0.0
H192 H 0.24436 0.27976 0.92634 0.0
H193 H 0.32579 0.35196 0.99802 0.0
H194 H 0.17915 0.31274 0.93679 0.0
H195 H 0.16456 0.27163 0.96172 0.0
H196 H 0.18376 0.27353 0.92168 0.0
H197 H 0.27865 0.40085 0.02223 0.0
H198 H 0.31406 0.38894 0.03451 0.0
H199 H 0.266 0.36202 0.0496 0.0
C200 C 0.63999 0.80898 0.00861 0.0
C201 C 0.65991 0.80348 0.03396 0.0
C202 C 0.652 0.84548 0.99624 0.0
C203 C 0.68491 0.87709 0.00932 0.0
C204 C 0.70616 0.8715 0.0338 0.0
C205 C 0.69329 0.83477 0.04597 0.0
C206 C 0.62842 0.85042 0.97031 0.0
C207 C 0.74162 0.9045 0.04811 0.0
C208 C 0.72796 0.97163 0.96439 0.0
C209 C 0.7127 0.99047 0.98201 0.0
C210 C 0.71946 0.93472 0.97309 0.0
C211 C 0.6949 0.91627 0.99979 0.0
C212 C 0.67952 0.93519 0.01766 0.0
C213 C 0.68873 0.97206 0.00865 0.0
C214 C 0.73659 0.91541 0.95373 0.0
C215 C 0.653 0.91636 0.04617 0.0
H216 H 0.61421 0.78495 0.99916 0.0
H217 H 0.70909 0.83071 0.06531 0.0
H218 H 0.61512 0.86625 0.98058 0.0
H219 H 0.64671 0.86744 0.94968 0.0
H220 H 0.60552 0.82274 0.96078 0.0
H221 H 0.75699 0.89495 0.06448 0.0
H222 H 0.76123 0.92228 0.02841 0.0
H223 H 0.73384 0.92286 0.06229 0.0
H224 H 0.74653 0.9857 0.94382 0.0
H225 H 0.67662 0.98627 0.02233 0.0
H226 H 0.71365 0.88887 0.94264 0.0
H227 H 0.75305 0.90721 0.97009 0.0
H228 H 0.7557 0.9339 0.93402 0.0
H229 H 0.6276 0.8896 0.0381 0.0
H230 H 0.64331 0.93494 0.05736 0.0
H231 H 0.66745 0.9087 0.06515 0.0
C232 C 0.1858 0.80996 0.99051 0.0
C233 C 0.18693 0.83056 0.01834 0.0
C234 C 0.15094 0.78433 0.97579 0.0
C235 C 0.11663 0.77947 0.98916 0.0
C236 C 0.11771 0.80081 0.01676 0.0
C237 C 0.15277 0.82596 0.03103 0.0
C238 C 0.15073 0.76181 0.94647 0.0
C239 C 0.08172 0.79649 0.03172 0.0
C240 C 0.02321 0.73374 0.94273 0.0
C241 C 0.00403 0.69763 0.95723 0.0
C242 C 0.06064 0.76038 0.95191 0.0
C243 C 0.07921 0.75041 0.97589 0.0
C244 C 0.06051 0.71346 0.98957 0.0
C245 C 0.02312 0.68761 0.98018 0.0
C246 C 0.07975 0.79961 0.93692 0.0
C247 C 0.07943 0.70164 0.01505 0.0
H248 H 0.21206 0.81342 0.98051 0.0
H249 H 0.15329 0.84196 0.05235 0.0
H250 H 0.13602 0.73108 0.95266 0.0
H251 H 0.13468 0.76532 0.92619 0.0
H252 H 0.17993 0.77056 0.93784 0.0
H253 H 0.08766 0.81669 0.05211 0.0
H254 H 0.06481 0.80119 0.01298 0.0
H255 H 0.06387 0.7671 0.04112 0.0
H256 H 0.00867 0.74157 0.92486 0.0
H257 H 0.00872 0.65954 0.99115 0.0
H258 H 0.10842 0.80734 0.9277 0.0
H259 H 0.08365 0.82084 0.95577 0.0
H260 H 0.06289 0.80176 0.91654 0.0
H261 H 0.10792 0.70787 0.00653 0.0
H262 H 0.06231 0.67087 0.02108 0.0
H263 H 0.08367 0.71822 0.0377 0.0
C264 C 0.68121 0.73512 0.57285 0.0
C265 C 0.66321 0.69752 0.56161 0.0
C266 C 0.67013 0.76065 0.56113 0.0
C267 C 0.64052 0.74802 0.53778 0.0
C268 C 0.61991 0.70918 0.52895 0.0
C269 C 0.63148 0.6844 0.54104 0.0
C270 C 0.6923 0.80177 0.57153 0.0
C271 C 0.58801 0.69441 0.50429 0.0
C272 C 0.60168 0.81041 0.50766 0.0
C273 C 0.62286 0.82551 0.47896 0.0
C274 C 0.60772 0.78587 0.5277 0.0
C275 C 0.63523 0.77597 0.51853 0.0
C276 C 0.65664 0.79114 0.48961 0.0
C277 C 0.6503 0.81583 0.47028 0.0
C278 C 0.58462 0.77039 0.5585 0.0
C279 C 0.68593 0.78086 0.47875 0.0
H280 H 0.70559 0.7453 0.58891 0.0
H281 H 0.61698 0.65509 0.53278 0.0
H282 H 0.7121 0.81895 0.55171 0.0
H283 H 0.67295 0.81316 0.57605 0.0
H284 H 0.70926 0.80554 0.5939 0.0
H285 H 0.57141 0.66281 0.50374 0.0
H286 H 0.56832 0.70519 0.5096 0.0
H287 H 0.60013 0.70474 0.47966 0.0
H288 H 0.58065 0.81806 0.51467 0.0
H289 H 0.66675 0.82734 0.44814 0.0
H290 H 0.60381 0.77693 0.57975 0.0
H291 H 0.56686 0.73897 0.55695 0.0
H292 H 0.56568 0.78233 0.56299 0.0
H293 H 0.70759 0.78817 0.4981 0.0
H294 H 0.70068 0.79576 0.45597 0.0
H295 H 0.67201 0.74973 0.47456 0.0
C296 C 0.20197 0.84225 0.49298 0.0
C297 C 0.1875 0.80374 0.50049 0.0
C298 C 0.22802 0.87095 0.51352 0.0
C299 C 0.2401 0.86104 0.54242 0.0
C300 C 0.22626 0.82227 0.54997 0.0
C301 C 0.20004 0.79398 0.52886 0.0
C302 C 0.24236 0.91201 0.50433 0.0
C303 C 0.2387 0.81075 0.58048 0.0
C304 C 0.33099 0.94669 0.56902 0.0
C305 C 0.31676 0.96531 0.58827 0.0
C306 C 0.3068 0.91013 0.55685 0.0
C307 C 0.26748 0.89195 0.56409 0.0
C308 C 0.25395 0.90858 0.58695 0.0
C309 C 0.2789 0.94524 0.59891 0.0
C310 C 0.32264 0.89327 0.53303 0.0
C311 C 0.2123 0.88982 0.59567 0.0
H312 H 0.19263 0.85011 0.47106 0.0
H313 H 0.1889 0.76426 0.53489 0.0
H314 H 0.23512 0.92629 0.52377 0.0
H315 H 0.27381 0.92742 0.50192 0.0
H316 H 0.23007 0.9148 0.48101 0.0
H317 H 0.22725 0.77955 0.58175 0.0
H318 H 0.27021 0.82545 0.58173 0.0
H319 H 0.22881 0.81956 0.60224 0.0
H320 H 0.3605 0.96194 0.56124 0.0
H321 H 0.26784 0.95943 0.61395 0.0
H322 H 0.31626 0.8983 0.5078 0.0
H323 H 0.30932 0.86209 0.53651 0.0
H324 H 0.354 0.90645 0.53542 0.0
H325 H 0.19668 0.89421 0.5755 0.0
H326 H 0.20768 0.90201 0.61828 0.0
H327 H 0.19989 0.85872 0.59899 0.0
C328 C 0.03208 0.35522 0.55697 0.0
C329 C 0.01112 0.32174 0.5752 0.0
C330 C 0.06866 0.36622 0.54567 0.0
C331 C 0.08475 0.34325 0.55292 0.0
C332 C 0.06533 0.31153 0.57402 0.0
C333 C 0.02856 0.30108 0.58497 0.0
C334 C 0.08839 0.40036 0.5234 0.0
C335 C 0.08193 0.28673 0.5827 0.0
C336 C 0.14442 0.33581 0.48565 0.0
C337 C 0.18154 0.36021 0.49672 0.0
C338 C 0.11283 0.32997 0.50393 0.0
C339 C 0.11844 0.34877 0.5342 0.0
C340 C 0.15579 0.37353 0.54557 0.0
C341 C 0.187 0.37914 0.52658 0.0
C342 C 0.07339 0.30373 0.4907 0.0
C343 C 0.16274 0.39386 0.5778 0.0
H344 H 0.01899 0.37175 0.54983 0.0
H345 H 0.01259 0.27532 0.59922 0.0
H346 H 0.11885 0.41818 0.53 0.0
H347 H 0.08713 0.39054 0.49795 0.0
H348 H 0.07487 0.41831 0.52416 0.0
H349 H 0.06678 0.26759 0.60356 0.0
H350 H 0.07966 0.26891 0.56138 0.0
H351 H 0.11255 0.30435 0.58888 0.0
H352 H 0.13997 0.32117 0.46259 0.0
H353 H 0.21564 0.3978 0.5354 0.0
H354 H 0.0579 0.31957 0.48761 0.0
H355 H 0.05693 0.28028 0.50821 0.0
H356 H 0.074 0.29113 0.46684 0.0
H357 H 0.14964 0.41214 0.57769 0.0
H358 H 0.19354 0.41186 0.58333 0.0
H359 H 0.14902 0.37281 0.59773 0.0
C360 C 0.66216 0.60982 0.05747 0.0
C361 C 0.67534 0.64063 0.07905 0.0
C362 C 0.68658 0.59761 0.04569 0.0
C363 C 0.7251 0.61688 0.05567 0.0
C364 C 0.73719 0.64469 0.08061 0.0
C365 C 0.71199 0.65626 0.09214 0.0
C366 C 0.67224 0.56744 0.01951 0.0
C367 C 0.7779 0.66549 0.09227 0.0
C368 C 0.79205 0.58585 0.02043 0.0
C369 C 0.80728 0.61056 0.99365 0.0
C370 C 0.76539 0.58757 0.04123 0.0
C371 C 0.7538 0.61452 0.03492 0.0
C372 C 0.76891 0.63925 0.00778 0.0
C373 C 0.79538 0.63695 0.98756 0.0
C374 C 0.74979 0.56079 0.06993 0.0
C375 C 0.7571 0.66827 0.99996 0.0
H376 H 0.6335 0.59717 0.04779 0.0
H377 H 0.72218 0.67992 0.109 0.0
H378 H 0.68153 0.58136 0.99532 0.0
H379 H 0.68413 0.54831 0.02264 0.0
H380 H 0.64066 0.55002 0.01948 0.0
H381 H 0.78071 0.67972 0.11606 0.0
H382 H 0.78923 0.6458 0.09472 0.0
H383 H 0.79577 0.68758 0.07412 0.0
H384 H 0.80124 0.56548 0.02538 0.0
H385 H 0.80688 0.6561 0.96691 0.0
H386 H 0.71834 0.54342 0.06823 0.0
H387 H 0.7565 0.5773 0.0929 0.0
H388 H 0.7616 0.54138 0.0714 0.0
H389 H 0.72597 0.65371 0.99552 0.0
H390 H 0.77191 0.68561 0.97813 0.0
H391 H 0.76337 0.68774 0.02094 0.0
C392 C 0.38206 0.19657 0.01033 0.0
C393 C 0.35912 0.19151 0.98306 0.0
C394 C 0.37723 0.16523 0.02869 0.0
C395 C 0.34909 0.12811 0.01928 0.0
C396 C 0.32587 0.1229 0.99181 0.0
C397 C 0.3311 0.15464 0.97413 0.0
C398 C 0.40231 0.17176 0.05794 0.0
C399 C 0.2958 0.08369 0.98075 0.0
C400 C 0.35498 0.04013 0.03626 0.0
C401 C 0.32529 0.02099 0.05878 0.0
C402 C 0.36505 0.07647 0.025 0.0
C403 C 0.34498 0.09419 0.03662 0.0
C404 C 0.31725 0.07649 0.06145 0.0
C405 C 0.30769 0.03993 0.07231 0.0
C406 C 0.39494 0.0944 0.99866 0.0
C407 C 0.29565 0.09483 0.07471 0.0
H408 H 0.40357 0.22503 0.01753 0.0
H409 H 0.31326 0.15047 0.95309 0.0
H410 H 0.38455 0.15824 0.07985 0.0
H411 H 0.41988 0.15824 0.05393 0.0
H412 H 0.42158 0.20249 0.06298 0.0
H413 H 0.27953 0.08465 0.95936 0.0
H414 H 0.30933 0.0667 0.97414 0.0
H415 H 0.27551 0.06854 1.00089 0.0
H416 H 0.36924 0.02591 0.02615 0.0
H417 H 0.28489 0.02535 0.08986 0.0
H418 H 0.41518 0.12469 0.0043 0.0
H419 H 0.38098 0.09354 0.97516 0.0
H420 H 0.41126 0.07938 0.99543 0.0
H421 H 0.31525 0.12543 0.07982 0.0
H422 H 0.27991 0.0807 0.09738 0.0
H423 H 0.27483 0.09297 0.05623 0.0
C424 C 0.95367 0.33838 0.0697 0.0
C425 C 0.97368 0.3257 0.08896 0.0
C426 C 0.91691 0.31299 0.0585 0.0
C427 C 0.89998 0.27401 0.06667 0.0
C428 C 0.9182 0.26198 0.08931 0.0
C429 C 0.95497 0.28812 0.10033 0.0
C430 C 0.89829 0.32722 0.0349 0.0
C431 C 0.90085 0.22072 0.09894 0.0
C432 C 0.80077 0.20272 0.03603 0.0
C433 C 0.80952 0.18917 0.00774 0.0
C434 C 0.82981 0.23075 0.05549 0.0
C435 C 0.86828 0.24535 0.04637 0.0
C436 C 0.87713 0.23245 0.01741 0.0
C437 C 0.8477 0.20463 0.9985 0.0
C438 C 0.81939 0.24409 0.08607 0.0
C439 C 0.91782 0.24756 0.00656 0.0
H440 H 0.96781 0.36767 0.06134 0.0
H441 H 0.97023 0.27825 0.11539 0.0
H442 H 0.90225 0.31997 0.00967 0.0
H443 H 0.86725 0.31346 0.0395 0.0
H444 H 0.91094 0.35859 0.0364 0.0
H445 H 0.91462 0.21719 0.12103 0.0
H446 H 0.8699 0.20782 0.10358 0.0
H447 H 0.90447 0.20474 0.07865 0.0
H448 H 0.77132 0.19085 0.04338 0.0
H449 H 0.85476 0.19457 0.9766 0.0
H450 H 0.83401 0.27562 0.08663 0.0
H451 H 0.82909 0.23491 0.10773 0.0
H452 H 0.78822 0.23255 0.08815 0.0
H453 H 0.93225 0.27886 0.00327 0.0
H454 H 0.91974 0.23464 0.9833 0.0
H455 H 0.93369 0.24171 0.02554 0.0
C456 C 0.30926 0.14728 0.54418 0.0
C457 C 0.34172 0.14622 0.53411 0.0
C458 C 0.29902 0.17191 0.52931 0.0
C459 C 0.322 0.19632 0.504 0.0
C460 C 0.35405 0.1945 0.49294 0.0
C461 C 0.36345 0.16932 0.50805 0.0
C462 C 0.26442 0.17287 0.54156 0.0
C463 C 0.37939 0.22035 0.46618 0.0
C464 C 0.28259 0.24741 0.45379 0.0
C465 C 0.29785 0.2822 0.47032 0.0
C466 C 0.29054 0.21915 0.46417 0.0
C467 C 0.31459 0.22621 0.49142 0.0
C468 C 0.33086 0.26169 0.50758 0.0
C469 C 0.32215 0.28915 0.49693 0.0
C470 C 0.27255 0.18149 0.44654 0.0
C471 C 0.35703 0.27047 0.5365 0.0
H472 H 0.29208 0.12923 0.56406 0.0
H473 H 0.38854 0.16863 0.50005 0.0
H474 H 0.27346 0.20052 0.55368 0.0
H475 H 0.24571 0.17042 0.5209 0.0
H476 H 0.24762 0.14967 0.55925 0.0
H477 H 0.4012 0.21307 0.45845 0.0
H478 H 0.36217 0.2188 0.44464 0.0
H479 H 0.39417 0.25025 0.47483 0.0
H480 H 0.26375 0.24191 0.43324 0.0
H481 H 0.33438 0.31616 0.50961 0.0
H482 H 0.25343 0.15837 0.46341 0.0
H483 H 0.29479 0.17509 0.4384 0.0
H484 H 0.25578 0.18107 0.42499 0.0
H485 H 0.34142 0.25059 0.55677 0.0
H486 H 0.36859 0.30005 0.54543 0.0
H487 H 0.38121 0.26633 0.52992 0.0
C488 C 0.80208 0.19366 0.49404 0.0
C489 C 0.82055 0.19035 0.52172 0.0
C490 C 0.77633 0.16131 0.47632 0.0
C491 C 0.76921 0.12499 0.48643 0.0
C492 C 0.78836 0.1216 0.5139 0.0
C493 C 0.81363 0.15425 0.53126 0.0
C494 C 0.75612 0.16585 0.44727 0.0
C495 C 0.78166 0.08334 0.52537 0.0
C496 C 0.6768 0.03437 0.47012 0.0
C497 C 0.6877 0.01717 0.4461 0.0
C498 C 0.70249 0.07065 0.48198 0.0
C499 C 0.74014 0.09002 0.46977 0.0
C500 C 0.75078 0.07371 0.44429 0.0
C501 C 0.72426 0.03743 0.43257 0.0
C502 C 0.68989 0.08727 0.50888 0.0
C503 C 0.79074 0.09355 0.43077 0.0
H504 H 0.80733 0.22146 0.48648 0.0
H505 H 0.82801 0.15139 0.5524 0.0
H506 H 0.76015 0.15201 0.42555 0.0
H507 H 0.72509 0.15147 0.45217 0.0
H508 H 0.76642 0.1962 0.44146 0.0
H509 H 0.80031 0.08584 0.54616 0.0
H510 H 0.75158 0.0653 0.53307 0.0
H511 H 0.78681 0.06839 0.50512 0.0
H512 H 0.64833 0.01905 0.48028 0.0
H513 H 0.73273 0.02424 0.41393 0.0
H514 H 0.6981 0.11712 0.50313 0.0
H515 H 0.70431 0.08761 0.53195 0.0
H516 H 0.65863 0.07069 0.51293 0.0
H517 H 0.80013 0.12364 0.42488 0.0
H518 H 0.79318 0.07936 0.40851 0.0
H519 H 0.81056 0.09364 0.44944 0.0
C520 C 0.97122 0.67411 0.48607 0.0
C521 C 0.99113 0.70057 0.46128 0.0
C522 C 0.93391 0.66418 0.49417 0.0
C523 C 0.91599 0.68124 0.4772 0.0
C524 C 0.93544 0.70723 0.45158 0.0
C525 C 0.97286 0.71656 0.44384 0.0
C526 C 0.91409 0.63622 0.52161 0.0
C527 C 0.91714 0.72599 0.43304 0.0
C528 C 0.80919 0.6335 0.49013 0.0
C529 C 0.80728 0.65471 0.51628 0.0
C530 C 0.84436 0.64276 0.47606 0.0
C531 C 0.87817 0.67401 0.48836 0.0
C532 C 0.87619 0.69645 0.51377 0.0
C533 C 0.84084 0.68648 0.52745 0.0
C534 C 0.84549 0.61816 0.44902 0.0
C535 C 0.91161 0.73011 0.5275 0.0
H536 H 0.9849 0.66121 0.49945 0.0
H537 H 0.98799 0.73687 0.42455 0.0
H538 H 0.90879 0.65077 0.54212 0.0
H539 H 0.88603 0.61285 0.51334 0.0
H540 H 0.93106 0.62363 0.53088 0.0
H541 H 0.9348 0.74312 0.41212 0.0
H542 H 0.88877 0.70423 0.42384 0.0
H543 H 0.91265 0.74496 0.44962 0.0
H544 H 0.78338 0.60902 0.48128 0.0
H545 H 0.83963 0.70337 0.54736 0.0
H546 H 0.85919 0.60216 0.45802 0.0
H547 H 0.86285 0.63605 0.42833 0.0
H548 H 0.81659 0.59745 0.43995 0.0
H549 H 0.92927 0.72007 0.53988 0.0
H550 H 0.90489 0.74647 0.54534 0.0
H551 H 0.92905 0.74956 0.50759 0.0
C552 C 0.23031 0.4041 0.33646 0.0
C553 C 0.23438 0.3719 0.33868 0.0
C554 C 0.21506 0.41109 0.30828 0.0
C555 C 0.20494 0.38594 0.28142 0.0
C556 C 0.21177 0.355 0.28281 0.0
C557 C 0.22563 0.34789 0.31171 0.0
C558 C 0.20718 0.44368 0.30821 0.0
C559 C 0.20268 0.32826 0.25434 0.0
C560 C 0.1234 0.36542 0.22446 0.0
C561 C 0.14263 0.38694 0.19701 0.0
C562 C 0.14328 0.36692 0.25288 0.0
C563 C 0.18354 0.38922 0.2533 0.0
C564 C 0.20302 0.41188 0.22585 0.0
C565 C 0.18217 0.41094 0.19812 0.0
C566 C 0.12125 0.34336 0.28199 0.0
C567 C 0.24591 0.43509 0.22491 0.0
H568 H 0.2366 0.42236 0.35756 0.0
H569 H 0.22889 0.32302 0.31348 0.0
H570 H 0.21765 0.46043 0.28539 0.0
H571 H 0.17598 0.43217 0.30929 0.0
H572 H 0.22055 0.46303 0.32929 0.0
H573 H 0.21454 0.30907 0.25762 0.0
H574 H 0.17137 0.31051 0.25154 0.0
H575 H 0.21414 0.34457 0.23139 0.0
H576 H 0.09277 0.34688 0.22347 0.0
H577 H 0.19699 0.42713 0.17661 0.0
H578 H 0.13083 0.36076 0.30452 0.0
H579 H 0.1266 0.31933 0.28522 0.0
H580 H 0.0901 0.33154 0.27921 0.0
H581 H 0.2571 0.45264 0.24723 0.0
H582 H 0.25648 0.45408 0.20327 0.0
H583 H 0.25768 0.41564 0.22418 0.0
C584 C 0.58129 0.7593 0.18412 0.0
C585 C 0.60575 0.74442 0.18658 0.0
C586 C 0.57734 0.77952 0.2102 0.0
C587 C 0.59749 0.78385 0.23956 0.0
C588 C 0.61978 0.76614 0.24287 0.0
C589 C 0.62423 0.74728 0.2161 0.0
C590 C 0.55401 0.79865 0.2054 0.0
C591 C 0.64075 0.76895 0.27408 0.0
C592 C 0.63568 0.87084 0.29357 0.0
C593 C 0.61032 0.85716 0.31987 0.0
C594 C 0.63006 0.84809 0.26611 0.0
C595 C 0.59909 0.81023 0.26551 0.0
C596 C 0.57241 0.79684 0.29142 0.0
C597 C 0.57808 0.82076 0.31816 0.0
C598 C 0.65851 0.86393 0.23854 0.0
C599 C 0.53956 0.75645 0.2921 0.0
H600 H 0.5674 0.75747 0.16108 0.0
H601 H 0.64306 0.73564 0.21796 0.0
H602 H 0.53541 0.79389 0.22677 0.0
H603 H 0.5734 0.82981 0.20306 0.0
H604 H 0.53606 0.78832 0.18316 0.0
H605 H 0.65247 0.74942 0.27419 0.0
H606 H 0.66468 0.79848 0.27719 0.0
H607 H 0.62156 0.76222 0.29538 0.0
H608 H 0.66053 0.89908 0.29487 0.0
H609 H 0.5587 0.81002 0.33872 0.0
H610 H 0.64361 0.85781 0.21473 0.0
H611 H 0.67609 0.85006 0.23848 0.0
H612 H 0.6778 0.89516 0.24072 0.0
H613 H 0.52464 0.74857 0.26829 0.0
H614 H 0.51866 0.75204 0.31153 0.0
H615 H 0.5506 0.73679 0.2966 0.0
C616 C 0.19025 0.84983 0.18883 0.0
C617 C 0.22831 0.86242 0.18077 0.0
C618 C 0.17505 0.83246 0.21891 0.0
C619 C 0.19873 0.82838 0.24191 0.0
C620 C 0.23715 0.8407 0.23385 0.0
C621 C 0.25139 0.85719 0.20312 0.0
C622 C 0.13376 0.81905 0.22625 0.0
C623 C 0.26345 0.83755 0.25802 0.0
C624 C 0.16668 0.82415 0.32934 0.0
C625 C 0.1489 0.78512 0.33621 0.0
C626 C 0.18442 0.8387 0.29925 0.0
C627 C 0.18363 0.8135 0.27506 0.0
C628 C 0.1661 0.77405 0.28195 0.0
C629 C 0.14929 0.76035 0.31266 0.0
C630 C 0.20341 0.88102 0.29316 0.0
C631 C 0.164 0.74622 0.25653 0.0
H632 H 0.17212 0.8533 0.17144 0.0
H633 H 0.28082 0.86689 0.19694 0.0
H634 H 0.11899 0.78891 0.23433 0.0
H635 H 0.13178 0.83611 0.24646 0.0
H636 H 0.11847 0.82158 0.2048 0.0
H637 H 0.29201 0.84685 0.2475 0.0
H638 H 0.26693 0.85536 0.27967 0.0
H639 H 0.251 0.80777 0.26664 0.0
H640 H 0.16693 0.84351 0.34765 0.0
H641 H 0.13559 0.73016 0.31791 0.0
H642 H 0.1878 0.88679 0.27389 0.0
H643 H 0.23295 0.89207 0.28431 0.0
H644 H 0.20431 0.89704 0.31539 0.0
H645 H 0.14672 0.74619 0.23557 0.0
H646 H 0.1511 0.71677 0.26622 0.0
H647 H 0.19284 0.75497 0.24711 0.0
C648 C 0.82975 0.65527 0.82553 0.0
C649 C 0.8473 0.6336 0.83122 0.0
C650 C 0.81163 0.65295 0.79586 0.0
C651 C 0.81189 0.6291 0.77086 0.0
C652 C 0.82922 0.60678 0.77654 0.0
C653 C 0.84633 0.60893 0.80689 0.0
C654 C 0.79282 0.67662 0.79109 0.0
C655 C 0.8308 0.58168 0.75022 0.0
C656 C 0.74339 0.6078 0.70006 0.0
C657 C 0.76632 0.63699 0.67826 0.0
C658 C 0.75795 0.6043 0.73019 0.0
C659 C 0.79652 0.62998 0.73813 0.0
C660 C 0.82006 0.65854 0.71557 0.0
C661 C 0.80454 0.662 0.68615 0.0
C662 C 0.73178 0.57404 0.75394 0.0
C663 C 0.86152 0.68599 0.72275 0.0
H664 H 0.82992 0.67395 0.84447 0.0
H665 H 0.85985 0.59213 0.81126 0.0
H666 H 0.80835 0.69861 0.77219 0.0
H667 H 0.76317 0.65848 0.78235 0.0
H668 H 0.79223 0.69108 0.81387 0.0
H669 H 0.84353 0.56465 0.75903 0.0
H670 H 0.80182 0.56201 0.74083 0.0
H671 H 0.848 0.59952 0.72943 0.0
H672 H 0.71384 0.58843 0.69398 0.0
H673 H 0.82253 0.68426 0.66912 0.0
H674 H 0.72847 0.58771 0.77615 0.0
H675 H 0.74424 0.55645 0.7617 0.0
H676 H 0.70314 0.55508 0.74343 0.0
H677 H 0.86394 0.70455 0.7435 0.0
H678 H 0.87669 0.70434 0.70149 0.0
H679 H 0.8761 0.67017 0.72994 0.0
C680 C 0.34519 0.23217 0.80094 0.0
C681 C 0.36966 0.24253 0.82776 0.0
C682 C 0.3515 0.21605 0.7731 0.0
C683 C 0.38214 0.2087 0.77269 0.0
C684 C 0.40791 0.22067 0.79921 0.0
C685 C 0.40167 0.23804 0.82629 0.0
C686 C 0.32411 0.20497 0.74487 0.0
C687 C 0.44029 0.21248 0.80016 0.0
C688 C 0.35851 0.12213 0.72141 0.0
C689 C 0.37896 0.1387 0.69282 0.0
C690 C 0.36149 0.14457 0.74843 0.0
C691 C 0.38425 0.1847 0.74625 0.0
C692 C 0.40602 0.20149 0.71774 0.0
C693 C 0.40355 0.17813 0.69146 0.0
C694 C 0.33885 0.12537 0.77876 0.0
C695 C 0.42977 0.24413 0.71408 0.0
H696 H 0.32049 0.23575 0.80209 0.0
H697 H 0.42033 0.24561 0.84726 0.0
H698 H 0.33988 0.21437 0.72147 0.0
H699 H 0.30596 0.17355 0.74395 0.0
H700 H 0.3053 0.21743 0.747 0.0
H701 H 0.46048 0.2278 0.82034 0.0
H702 H 0.4286 0.18148 0.80362 0.0
H703 H 0.45617 0.2205 0.7768 0.0
H704 H 0.33954 0.09158 0.72238 0.0
H705 H 0.41893 0.19092 0.66909 0.0
H706 H 0.31518 0.1314 0.78136 0.0
H707 H 0.35706 0.13673 0.80074 0.0
H708 H 0.32658 0.09403 0.77807 0.0
H709 H 0.41067 0.25622 0.71185 0.0
H710 H 0.44838 0.25251 0.69221 0.0
H711 H 0.44776 0.25709 0.73593 0.0
C712 C 0.75459 0.13851 0.82521 0.0
C713 C 0.78084 0.13709 0.84654 0.0
C714 C 0.76577 0.15454 0.79391 0.0
C715 C 0.80421 0.17009 0.78405 0.0
C716 C 0.83089 0.16934 0.80579 0.0
C717 C 0.81882 0.15256 0.83658 0.0
C718 C 0.73639 0.15421 0.77118 0.0
C719 C 0.87224 0.18607 0.79644 0.0
C720 C 0.83335 0.1774 0.6954 0.0
C721 C 0.84795 0.21617 0.68888 0.0
C722 C 0.81725 0.16172 0.72575 0.0
C723 C 0.81655 0.18556 0.75054 0.0
C724 C 0.83052 0.22463 0.74391 0.0
C725 C 0.84568 0.23941 0.71295 0.0
C726 C 0.80196 0.11979 0.73156 0.0
C727 C 0.83091 0.25109 0.7699 0.0
H728 H 0.72522 0.12663 0.83281 0.0
H729 H 0.83939 0.15199 0.85305 0.0
H730 H 0.7454 0.18356 0.76296 0.0
H731 H 0.73389 0.13733 0.74911 0.0
H732 H 0.70791 0.14192 0.78279 0.0
H733 H 0.88977 0.18515 0.81683 0.0
H734 H 0.87473 0.17017 0.77552 0.0
H735 H 0.88423 0.21608 0.78859 0.0
H736 H 0.83455 0.1592 0.67668 0.0
H737 H 0.85696 0.26939 0.70797 0.0
H738 H 0.77275 0.10637 0.74178 0.0
H739 H 0.82005 0.11594 0.74967 0.0
H740 H 0.80126 0.10453 0.70888 0.0
H741 H 0.80216 0.23952 0.78072 0.0
H742 H 0.84036 0.28006 0.76028 0.0
H743 H 0.85043 0.25342 0.78984 0.0
C744 C 0.06246 0.50029 0.00173 0.0
C745 C 0.05994 0.46591 0.99255 0.0
C746 C 0.03903 0.51236 0.98716 0.0
C747 C 0.01229 0.48924 0.96314 0.0
C748 C 0.01225 0.45646 0.95163 0.0
C749 C 0.03627 0.44529 0.96635 0.0
C750 C 0.04063 0.54815 0.99947 0.0
C751 C 0.98441 0.43117 0.92597 0.0
C752 C 0.92253 0.49477 0.97026 0.0
C753 C 0.92815 0.52129 0.94597 0.0
C754 C 0.94831 0.48172 0.97435 0.0
C755 C 0.98094 0.49633 0.95411 0.0
C756 C 0.98505 0.5207 0.92781 0.0
C757 C 0.95827 0.53266 0.92385 0.0
C758 C 0.94218 0.45467 0.00205 0.0
C759 C 0.01937 0.53688 0.9057 0.0
H760 H 0.08093 0.51656 0.0217 0.0
H761 H 0.03439 0.41882 0.95881 0.0
H762 H 0.04066 0.56579 0.9788 0.0
H763 H 0.01499 0.54045 0.01444 0.0
H764 H 0.06625 0.56554 0.01468 0.0
H765 H 0.99292 0.41145 0.91519 0.0
H766 H 0.95588 0.4139 0.93721 0.0
H767 H 0.98176 0.44828 0.90615 0.0
H768 H 0.89919 0.48598 0.98733 0.0
H769 H 0.96292 0.55359 0.90529 0.0
H770 H 0.96367 0.46992 0.02135 0.0
H771 H 0.9459 0.43084 0.99346 0.0
H772 H 0.9134 0.44266 0.01302 0.0
H773 H 0.04414 0.56004 0.91865 0.0
H774 H 0.01465 0.54883 0.88297 0.0
H775 H 0.02683 0.51492 0.89916 0.0
C776 C 0.49959 0.56943 0.99848 0.0
C777 C 0.53473 0.59919 0.98772 0.0
C778 C 0.48417 0.53285 0.98505 0.0
C779 C 0.50467 0.52593 0.96064 0.0
C780 C 0.53833 0.55662 0.94764 0.0
C781 C 0.55281 0.59298 0.96117 0.0
C782 C 0.44752 0.50099 0.99891 0.0
C783 C 0.56103 0.55053 0.92161 0.0
C784 C 0.49094 0.42711 0.96869 0.0
C785 C 0.46337 0.4072 0.94485 0.0
C786 C 0.50668 0.46647 0.97245 0.0
C787 C 0.49375 0.4861 0.95239 0.0
C788 C 0.46794 0.46659 0.92673 0.0
C789 C 0.45329 0.42729 0.92305 0.0
C790 C 0.53517 0.48649 0.99943 0.0
C791 C 0.45335 0.48642 0.90493 0.0
H792 H 0.48528 0.57406 0.01876 0.0
H793 H 0.57988 0.61587 0.95247 0.0
H794 H 0.42822 0.48335 0.97903 0.0
H795 H 0.45383 0.48222 0.01414 0.0
H796 H 0.43245 0.51182 0.01425 0.0
H797 H 0.5822 0.57773 0.90996 0.0
H798 H 0.57654 0.53733 0.93276 0.0
H799 H 0.54211 0.5309 0.90247 0.0
H800 H 0.49876 0.41157 0.98551 0.0
H801 H 0.43158 0.41184 0.90484 0.0
H802 H 0.5219 0.49492 0.01889 0.0
H803 H 0.56014 0.51282 0.99008 0.0
H804 H 0.54531 0.46815 0.01041 0.0
H805 H 0.43249 0.4911 0.91864 0.0
H806 H 0.43902 0.46934 0.88288 0.0
H807 H 0.4768 0.51471 0.89718 0.0
C808 C 0.41195 0.95777 0.9685 0.0
C809 C 0.40124 0.93206 0.99465 0.0
C810 C 0.45021 0.98023 0.95934 0.0
C811 C 0.47835 0.97623 0.97623 0.0
C812 C 0.46736 0.94796 1.00071 0.0
C813 C 0.42892 0.92648 0.00992 0.0
C814 C 0.46071 0.01036 0.93346 0.0
C815 C 0.49648 0.94206 0.0186 0.0
C816 C 0.58035 0.02354 0.94534 0.0
C817 C 0.5986 0.05392 0.96725 0.0
C818 C 0.5409 -0.00166 0.94731 0.0
C819 C 0.51934 0.00443 0.97119 0.0
C820 C 0.53739 0.03673 0.99175 0.0
C821 C 0.57693 0.06073 0.98988 0.0
C822 C 0.52285 0.96391 0.92537 0.0
C823 C 0.51523 0.045 0.0168 0.0
H824 H 0.39078 0.96238 0.95657 0.0
H825 H 0.42081 0.90652 0.03 0.0
H826 H 0.47436 0.0388 0.94518 0.0
H827 H 0.48155 0.01031 0.91603 0.0
H828 H 0.43544 0.0064 0.91965 0.0
H829 H 0.48302 0.91569 0.03356 0.0
H830 H 0.51652 0.94052 1.00112 0.0
H831 H 0.51341 0.9666 0.03497 0.0
H832 H 0.59724 0.01789 0.9282 0.0
H833 H 0.59113 0.0842 0.00685 0.0
H834 H 0.49653 0.96055 0.91407 0.0
H835 H 0.51461 0.93798 0.94009 0.0
H836 H 0.54248 0.96558 0.90574 0.0
H837 H 0.49016 0.04434 0.0053 0.0
H838 H 0.53284 0.07314 0.0286 0.0
H839 H 0.50447 0.02274 0.03599 0.0
C840 C 0.48589 0.92138 0.46261 0.0
C841 C 0.51193 0.9283 0.43752 0.0
C842 C 0.47126 0.94572 0.46762 0.0
C843 C 0.48374 0.97818 0.44746 0.0
C844 C 0.50739 0.98338 0.42032 0.0
C845 C 0.52097 0.95804 0.41547 0.0
C846 C 0.445 0.93842 0.49622 0.0
C847 C 0.52127 0.01754 0.39824 0.0
C848 C 0.42997 0.03029 0.46272 0.0
C849 C 0.45127 0.05456 0.48838 0.0
C850 C 0.44159 0.00704 0.44725 0.0
C851 C 0.47551 0.00847 0.45746 0.0
C852 C 0.49908 0.03574 0.48095 0.0
C853 C 0.48657 0.05839 0.49628 0.0
C854 C 0.41577 0.9786 0.42219 0.0
C855 C 0.53604 0.03881 0.49187 0.0
H856 H 0.47887 0.89832 0.47962 0.0
H857 H 0.54149 0.96371 0.39624 0.0
H858 H 0.4604 0.96003 0.5154 0.0
H859 H 0.42016 0.94101 0.48867 0.0
H860 H 0.43447 0.90975 0.50699 0.0
H861 H 0.53279 0.0135 0.37497 0.0
H862 H 0.49813 0.02365 0.39271 0.0
H863 H 0.54429 0.04287 0.41073 0.0
H864 H 0.40276 0.02737 0.4562 0.0
H865 H 0.50334 0.07731 0.51584 0.0
H866 H 0.39982 0.95005 0.43366 0.0
H867 H 0.43242 0.97655 0.40166 0.0
H868 H 0.39485 0.98606 0.41234 0.0
H869 H 0.52986 0.01339 0.50656 0.0
H870 H 0.55334 0.06457 0.50692 0.0
H871 H 0.55318 0.03961 0.4705 0.0
C872 C 0.9611 0.40692 0.47151 0.0
C873 C 0.93432 0.39991 0.49615 0.0
C874 C 0.98516 0.44384 0.45977 0.0
C875 C 0.98183 0.47435 0.47253 0.0
C876 C 0.95269 0.46698 0.49535 0.0
C877 C 0.92948 0.42983 0.50717 0.0
C878 C 0.01606 0.45049 0.43572 0.0
C879 C 0.9476 0.49871 0.50887 0.0
C880 C 0.0674 0.57271 0.48295 0.0
C881 C 0.06204 0.59285 0.45782 0.0
C882 C 0.04281 0.53349 0.48665 0.0
C883 C 0.01146 0.51428 0.46523 0.0
C884 C 0.00723 0.53408 0.43863 0.0
C885 C 0.03295 0.57321 0.43501 0.0
C886 C 0.04908 0.51313 0.51469 0.0
C887 C 0.97397 0.51472 0.41552 0.0
H888 H 0.96509 0.38396 0.46281 0.0
H889 H 0.90869 0.42456 0.52602 0.0
H890 H 0.01796 0.47006 0.41601 0.0
H891 H 0.04393 0.46411 0.44845 0.0
H892 H 0.01133 0.42354 0.42458 0.0
H893 H 0.92076 0.48774 0.52298 0.0
H894 H 0.97181 0.51682 0.52519 0.0
H895 H 0.94754 0.51707 0.48886 0.0
H896 H 0.0899 0.58799 0.5006 0.0
H897 H 0.02843 0.58894 0.41586 0.0
H898 H 0.04782 0.48664 0.50606 0.0
H899 H 0.02616 0.50488 0.53303 0.0
H900 H 0.07692 0.53114 0.52687 0.0
H901 H 0.96991 0.48687 0.40746 0.0
H902 H 0.97766 0.53244 0.39367 0.0
H903 H 0.94758 0.50914 0.42831 0.0
C904 C 0.4175 0.48718 0.4835 0.0
C905 C 0.39724 0.45977 0.45964 0.0
C906 C 0.45713 0.50394 0.48604 0.0
C907 C 0.47672 0.49207 0.46483 0.0
C908 C 0.45661 0.46577 0.43963 0.0
C909 C 0.41705 0.45025 0.43708 0.0
C910 C 0.47773 0.5329 0.51254 0.0
C911 C 0.47634 0.45198 0.41686 0.0
C912 C 0.58397 0.55501 0.4653 0.0
C913 C 0.59429 0.53851 0.4905 0.0
C914 C 0.54595 0.53917 0.45544 0.0
C915 C 0.5177 0.50554 0.47063 0.0
C916 C 0.52839 0.48698 0.49409 0.0
C917 C 0.56657 0.50394 0.50404 0.0
C918 C 0.53575 0.56015 0.4307 0.0
C919 C 0.49916 0.45042 0.51016 0.0
H920 H 0.40214 0.49449 0.50096 0.0
H921 H 0.40131 0.42855 0.41894 0.0
H922 H 0.48828 0.52066 0.53121 0.0
H923 H 0.50283 0.55848 0.50232 0.0
H924 H 0.45907 0.54187 0.52473 0.0
H925 H 0.45774 0.43514 0.39628 0.0
H926 H 0.50274 0.47627 0.40685 0.0
H927 H 0.48473 0.43379 0.43061 0.0
H928 H 0.60517 0.58182 0.45471 0.0
H929 H 0.57438 0.49096 0.52338 0.0
H930 H 0.5212 0.57355 0.44321 0.0
H931 H 0.51575 0.54026 0.41223 0.0
H932 H 0.56126 0.5828 0.41799 0.0
H933 H 0.48113 0.45629 0.52674 0.0
H934 H 0.51255 0.43707 0.52457 0.0
H935 H 0.48017 0.4298 0.49157 0.0
loop_
_geom_bond_atom_site_label_1
_geom_bond_atom_site_label_2
_geom_bond_distance
_geom_bond_site_symmetry_2
_ccdc_geom_bond_type
O0 Cd1 2.223 . S
O0 C8 1.315 . S
Cd1 O0 2.223 . S
Cd1 O4 2.297 . S
Cd1 O5 2.439 . S
Cd1 O11 2.240 . S
Cd2 O3 2.240 . S
Cd2 O10 2.223 . S
Cd2 O12 2.297 . S
Cd2 O13 2.439 . S
O3 Cd2 2.240 . S
O3 C8 1.279 . S
O4 Cd1 2.297 . S
O4 C6 1.247 . S
O5 Cd1 2.439 . S
O5 C6 1.208 . S
C6 O4 1.247 . S
C6 O5 1.208 . S
C7 O12 1.247 . S
C7 O13 1.208 . S
C8 O0 1.315 . S
C8 O3 1.279 . S
C9 O10 1.315 . S
C9 O11 1.279 . S
O10 Cd2 2.223 . S
O10 C9 1.315 . S
O11 Cd1 2.240 . S
O11 C9 1.279 . S
O12 Cd2 2.297 . S
O12 C7 1.247 . S
O13 Cd2 2.439 . S
O13 C7 1.208 . S
O14 Cd15 2.223 . S
O14 C22 1.315 . S
Cd15 O14 2.223 . S
Cd15 O18 2.297 . S
Cd15 O19 2.439 . S
Cd15 O25 2.240 . S
Cd16 O17 2.240 . S
Cd16 O24 2.223 . S
Cd16 O26 2.297 . S
Cd16 O27 2.439 . S
O17 Cd16 2.240 . S
O17 C22 1.279 . S
O18 Cd15 2.297 . S
O18 C20 1.247 . S
O19 Cd15 2.439 . S
O19 C20 1.208 . S
C20 O18 1.247 . S
C20 O19 1.208 . S
C21 O26 1.247 . S
C21 O27 1.208 . S
C22 O14 1.315 . S
C22 O17 1.279 . S
C23 O24 1.315 . S
C23 O25 1.279 . S
O24 Cd16 2.223 . S
O24 C23 1.315 . S
O25 Cd15 2.240 . S
O25 C23 1.279 . S
O26 Cd16 2.297 . S
O26 C21 1.247 . S
O27 Cd16 2.439 . S
O27 C21 1.208 . S
O28 Cd29 2.223 . S
O28 C36 1.315 . S
Cd29 O28 2.223 . S
Cd29 O32 2.297 . S
Cd29 O33 2.439 . S
Cd29 O39 2.240 . S
Cd30 O31 2.240 . S
Cd30 O38 2.223 . S
Cd30 O40 2.297 . S
Cd30 O41 2.439 . S
O31 Cd30 2.240 . S
O31 C36 1.279 . S
O32 Cd29 2.297 . S
O32 C34 1.247 . S
O33 Cd29 2.439 . S
O33 C34 1.208 . S
C34 O32 1.247 . S
C34 O33 1.208 . S
C35 O40 1.247 . S
C35 O41 1.208 . S
C36 O28 1.315 . S
C36 O31 1.279 . S
C37 O38 1.315 . S
C37 O39 1.279 . S
O38 Cd30 2.223 . S
O38 C37 1.315 . S
O39 Cd29 2.240 . S
O39 C37 1.279 . S
O40 Cd30 2.297 . S
O40 C35 1.247 . S
O41 Cd30 2.439 . S
O41 C35 1.208 . S
O42 Cd43 2.223 . S
O42 C50 1.315 . S
Cd43 O42 2.223 . S
Cd43 O46 2.297 . S
Cd43 O47 2.439 . S
Cd43 O53 2.240 . S
Cd44 O45 2.240 . S
Cd44 O52 2.223 . S
Cd44 O54 2.297 . S
Cd44 O55 2.439 . S
O45 Cd44 2.240 . S
O45 C50 1.279 . S
O46 Cd43 2.297 . S
O46 C48 1.247 . S
O47 Cd43 2.439 . S
O47 C48 1.208 . S
C48 O46 1.247 . S
C48 O47 1.208 . S
C49 O54 1.247 . S
C49 O55 1.208 . S
C50 O42 1.315 . S
C50 O45 1.279 . S
C51 O52 1.315 . S
C51 O53 1.279 . S
O52 Cd44 2.223 . S
O52 C51 1.315 . S
O53 Cd43 2.240 . S
O53 C51 1.279 . S
O54 Cd44 2.297 . S
O54 C49 1.247 . S
O55 Cd44 2.439 . S
O55 C49 1.208 . S
O56 Cd57 2.223 . S
O56 C64 1.315 . S
Cd57 O56 2.223 . S
Cd57 O60 2.297 . S
Cd57 O61 2.439 . S
Cd57 O67 2.240 . S
Cd58 O59 2.240 . S
Cd58 O66 2.223 . S
Cd58 O68 2.297 . S
Cd58 O69 2.439 . S
O59 Cd58 2.240 . S
O59 C64 1.279 . S
O60 Cd57 2.297 . S
O60 C62 1.247 . S
O61 Cd57 2.439 . S
O61 C62 1.208 . S
C62 O60 1.247 . S
C62 O61 1.208 . S
C63 O68 1.247 . S
C63 O69 1.208 . S
C64 O56 1.315 . S
C64 O59 1.279 . S
C65 O66 1.315 . S
C65 O67 1.279 . S
O66 Cd58 2.223 . S
O66 C65 1.315 . S
O67 Cd57 2.240 . S
O67 C65 1.279 . S
O68 Cd58 2.297 . S
O68 C63 1.247 . S
O69 Cd58 2.439 . S
O69 C63 1.208 . S
O70 Cd71 2.223 . S
O70 C78 1.315 . S
Cd71 O70 2.223 . S
Cd71 O74 2.297 . S
Cd71 O75 2.439 . S
Cd71 O81 2.240 . S
Cd72 O73 2.240 . S
Cd72 O80 2.223 . S
Cd72 O82 2.297 . S
Cd72 O83 2.439 . S
O73 Cd72 2.240 . S
O73 C78 1.279 . S
O74 Cd71 2.297 . S
O74 C76 1.247 . S
O75 Cd71 2.439 . S
O75 C76 1.208 . S
C76 O74 1.247 . S
C76 O75 1.208 . S
C77 O82 1.247 . S
C77 O83 1.208 . S
C78 O70 1.315 . S
C78 O73 1.279 . S
C79 O80 1.315 . S
C79 O81 1.279 . S
O80 Cd72 2.223 . S
O80 C79 1.315 . S
O81 Cd71 2.240 . S
O81 C79 1.279 . S
O82 Cd72 2.297 . S
O82 C77 1.247 . S
O83 Cd72 2.439 . S
O83 C77 1.208 . S
O84 Cd85 2.223 . S
O84 C92 1.315 . S
Cd85 O84 2.223 . S
Cd85 O88 2.297 . S
Cd85 O89 2.439 . S
Cd85 O95 2.240 . S
Cd86 O87 2.240 . S
Cd86 O94 2.223 . S
Cd86 O96 2.297 . S
Cd86 O97 2.439 . S
O87 Cd86 2.240 . S
O87 C92 1.279 . S
O88 Cd85 2.297 . S
O88 C90 1.247 . S
O89 Cd85 2.439 . S
O89 C90 1.208 . S
C90 O88 1.247 . S
C90 O89 1.208 . S
C91 O96 1.247 . S
C91 O97 1.208 . S
C92 O84 1.315 . S
C92 O87 1.279 . S
C93 O94 1.315 . S
C93 O95 1.279 . S
O94 Cd86 2.223 . S
O94 C93 1.315 . S
O95 Cd85 2.240 . S
O95 C93 1.279 . S
O96 Cd86 2.297 . S
O96 C91 1.247 . S
O97 Cd86 2.439 . S
O97 C91 1.208 . S
O98 Cd99 2.223 . S
O98 C106 1.315 . S
Cd99 O98 2.223 . S
Cd99 O102 2.297 . S
Cd99 O103 2.439 . S
Cd99 O109 2.240 . S
Cd100 O101 2.240 . S
Cd100 O108 2.223 . S
Cd100 O110 2.297 . S
Cd100 O111 2.439 . S
O101 Cd100 2.240 . S
O101 C106 1.279 . S
O102 Cd99 2.297 . S
O102 C104 1.247 . S
O103 Cd99 2.439 . S
O103 C104 1.208 . S
C104 O102 1.247 . S
C104 O103 1.208 . S
C105 O110 1.247 . S
C105 O111 1.208 . S
C106 O98 1.315 . S
C106 O101 1.279 . S
C107 O108 1.315 . S
C107 O109 1.279 . S
O108 Cd100 2.223 . S
O108 C107 1.315 . S
O109 Cd99 2.240 . S
O109 C107 1.279 . S
O110 Cd100 2.297 . S
O110 C105 1.247 . S
O111 Cd100 2.439 . S
O111 C105 1.208 . S
O112 Cd113 2.223 . S
O112 C120 1.315 . S
Cd113 O112 2.223 . S
Cd113 O116 2.297 . S
Cd113 O117 2.439 . S
Cd113 O123 2.240 . S
Cd114 O115 2.240 . S
Cd114 O122 2.223 . S
Cd114 O124 2.297 . S
Cd114 O125 2.439 . S
O115 Cd114 2.240 . S
O115 C120 1.279 . S
O116 Cd113 2.297 . S
O116 C118 1.247 . S
O117 Cd113 2.439 . S
O117 C118 1.208 . S
C118 O116 1.247 . S
C118 O117 1.208 . S
C119 O124 1.247 . S
C119 O125 1.208 . S
C120 O112 1.315 . S
C120 O115 1.279 . S
C121 O122 1.315 . S
C121 O123 1.279 . S
O122 Cd114 2.223 . S
O122 C121 1.315 . S
O123 Cd113 2.240 . S
O123 C121 1.279 . S
O124 Cd114 2.297 . S
O124 C119 1.247 . S
O125 Cd114 2.439 . S
O125 C119 1.208 . S
O126 Cd127 2.223 . S
O126 C134 1.315 . S
Cd127 O126 2.223 . S
Cd127 O130 2.297 . S
Cd127 O131 2.439 . S
Cd127 O137 2.240 . S
Cd128 O129 2.240 . S
Cd128 O136 2.223 . S
Cd128 O138 2.297 . S
Cd128 O139 2.439 . S
O129 Cd128 2.240 . S
O129 C134 1.279 . S
O130 Cd127 2.297 . S
O130 C132 1.247 . S
O131 Cd127 2.439 . S
O131 C132 1.208 . S
C132 O130 1.247 . S
C132 O131 1.208 . S
C133 O138 1.247 . S
C133 O139 1.208 . S
C134 O126 1.315 . S
C134 O129 1.279 . S
C135 O136 1.315 . S
C135 O137 1.279 . S
O136 Cd128 2.223 . S
O136 C135 1.315 . S
O137 Cd127 2.240 . S
O137 C135 1.279 . S
O138 Cd128 2.297 . S
O138 C133 1.247 . S
O139 Cd128 2.439 . S
O139 C133 1.208 . S
O140 Cd141 2.223 . S
O140 C148 1.315 . S
Cd141 O140 2.223 . S
Cd141 O144 2.297 . S
Cd141 O145 2.439 . S
Cd141 O151 2.240 . S
Cd142 O143 2.240 . S
Cd142 O150 2.223 . S
Cd142 O152 2.297 . S
Cd142 O153 2.439 . S
O143 Cd142 2.240 . S
O143 C148 1.279 . S
O144 Cd141 2.297 . S
O144 C146 1.247 . S
O145 Cd141 2.439 . S
O145 C146 1.208 . S
C146 O144 1.247 . S
C146 O145 1.208 . S
C147 O152 1.247 . S
C147 O153 1.208 . S
C148 O140 1.315 . S
C148 O143 1.279 . S
C149 O150 1.315 . S
C149 O151 1.279 . S
O150 Cd142 2.223 . S
O150 C149 1.315 . S
O151 Cd141 2.240 . S
O151 C149 1.279 . S
O152 Cd142 2.297 . S
O152 C147 1.247 . S
O153 Cd142 2.439 . S
O153 C147 1.208 . S
O154 Cd155 2.223 . S
O154 C162 1.315 . S
Cd155 O154 2.223 . S
Cd155 O158 2.297 . S
Cd155 O159 2.439 . S
Cd155 O165 2.240 . S
Cd156 O157 2.240 . S
Cd156 O164 2.223 . S
Cd156 O166 2.297 . S
Cd156 O167 2.439 . S
O157 Cd156 2.240 . S
O157 C162 1.279 . S
O158 Cd155 2.297 . S
O158 C160 1.247 . S
O159 Cd155 2.439 . S
O159 C160 1.208 . S
C160 O158 1.247 . S
C160 O159 1.208 . S
C161 O166 1.247 . S
C161 O167 1.208 . S
C162 O154 1.315 . S
C162 O157 1.279 . S
C163 O164 1.315 . S
C163 O165 1.279 . S
O164 Cd156 2.223 . S
O164 C163 1.315 . S
O165 Cd155 2.240 . S
O165 C163 1.279 . S
O166 Cd156 2.297 . S
O166 C161 1.247 . S
O167 Cd156 2.439 . S
O167 C161 1.208 . S
C168 C169 1.380 1_556 S
C168 C170 1.398 . S
C168 H184 0.937 . S
C169 C168 1.380 1_554 S
C169 C173 1.376 . S
C170 C168 1.398 . S
C170 C171 1.369 1_556 S
C170 C174 1.531 . S
C171 C170 1.369 1_554 S
C171 C172 1.410 . S
C171 C179 1.503 1_554 S
C172 C171 1.410 . S
C172 C173 1.392 . S
C172 C175 1.511 . S
C173 C169 1.376 . S
C173 C172 1.392 . S
C173 H185 0.929 . S
C174 C170 1.531 . S
C174 H186 0.960 . S
C174 H187 0.962 . S
C174 H188 0.960 . S
C175 C172 1.511 . S
C175 H189 0.961 . S
C175 H190 0.961 . S
C175 H191 0.961 . S
C176 C177 1.370 . S
C176 C178 1.363 . S
C176 H192 0.931 . S
C177 C176 1.370 . S
C177 C181 1.408 . S
C178 C176 1.363 . S
C178 C179 1.370 . S
C178 C182 1.524 1_556 S
C179 C171 1.503 1_556 S
C179 C178 1.370 . S
C179 C180 1.403 . S
C180 C179 1.403 . S
C180 C181 1.404 . S
C180 C183 1.539 . S
C181 C177 1.408 . S
C181 C180 1.404 . S
C181 H193 0.930 . S
C182 C178 1.524 1_554 S
C182 H194 0.956 1_554 S
C182 H195 0.961 . S
C182 H196 0.961 . S
C183 C180 1.539 . S
C183 H197 0.958 . S
C183 H198 0.961 . S
C183 H199 0.960 1_556 S
H184 C168 0.937 . S
H185 C173 0.929 . S
H186 C174 0.960 . S
H187 C174 0.962 . S
H188 C174 0.960 . S
H189 C175 0.961 . S
H190 C175 0.961 . S
H191 C175 0.961 . S
H192 C176 0.931 . S
H193 C181 0.930 . S
H194 C182 0.956 1_556 S
H195 C182 0.961 . S
H196 C182 0.961 . S
H197 C183 0.958 . S
H198 C183 0.961 . S
H199 C183 0.960 1_554 S
C200 C201 1.391 . S
C200 C202 1.394 . S
C200 H216 0.931 . S
C201 C200 1.391 . S
C201 C205 1.376 . S
C202 C200 1.394 . S
C202 C203 1.369 . S
C202 C206 1.531 . S
C203 C202 1.369 . S
C203 C204 1.410 . S
C203 C211 1.498 1_554 S
C204 C203 1.410 . S
C204 C205 1.392 . S
C204 C207 1.511 1_554 S
C205 C201 1.376 . S
C205 C204 1.392 . S
C205 H217 0.929 . S
C206 C202 1.531 . S
C206 H218 0.960 . S
C206 H219 0.962 . S
C206 H220 0.960 . S
C207 C204 1.511 1_556 S
C207 H221 0.961 . S
C207 H222 0.961 . S
C207 H223 0.961 . S
C208 C209 1.370 . S
C208 C210 1.363 . S
C208 H224 0.931 . S
C209 C208 1.370 . S
C209 C213 1.411 1_556 S
C210 C208 1.363 . S
C210 C211 1.382 . S
C210 C214 1.524 . S
C211 C203 1.498 1_556 S
C211 C210 1.382 . S
C211 C212 1.397 1_556 S
C212 C211 1.397 1_554 S
C212 C213 1.402 . S
C212 C215 1.539 . S
C213 C209 1.411 1_554 S
C213 C212 1.402 . S
C213 H225 0.928 1_565 S
C214 C210 1.524 . S
C214 H226 0.956 . S
C214 H227 0.961 . S
C214 H228 0.961 . S
C215 C212 1.539 . S
C215 H229 0.958 . S
C215 H230 0.961 . S
C215 H231 0.960 . S
H216 C200 0.931 . S
H217 C205 0.929 . S
H218 C206 0.960 . S
H219 C206 0.962 . S
H220 C206 0.960 . S
H221 C207 0.961 . S
H222 C207 0.961 . S
H223 C207 0.961 . S
H224 C208 0.931 . S
H225 C213 0.928 1_545 S
H226 C214 0.956 . S
H227 C214 0.961 . S
H228 C214 0.961 . S
H229 C215 0.958 . S
H230 C215 0.961 . S
H231 C215 0.960 . S
C232 C233 1.391 . S
C232 C234 1.394 . S
C232 H248 0.931 . S
C233 C232 1.391 . S
C233 C237 1.376 . S
C234 C232 1.394 . S
C234 C235 1.369 . S
C234 C238 1.531 1_554 S
C235 C234 1.369 . S
C235 C236 1.410 . S
C235 C243 1.495 1_554 S
C236 C235 1.410 . S
C236 C237 1.392 . S
C236 C239 1.511 . S
C237 C233 1.376 . S
C237 C236 1.392 . S
C237 H249 0.929 . S
C238 C234 1.531 1_556 S
C238 H250 0.960 . S
C238 H251 0.962 . S
C238 H252 0.960 . S
C239 C236 1.511 . S
C239 H253 0.961 . S
C239 H254 0.961 . S
C239 H255 0.961 . S
C240 C241 1.370 . S
C240 C242 1.363 . S
C240 H256 0.931 . S
C241 C240 1.370 . S
C241 C245 1.400 1_556 S
C242 C240 1.363 . S
C242 C243 1.388 . S
C242 C246 1.524 . S
C243 C235 1.495 1_556 S
C243 C242 1.388 . S
C243 C244 1.394 1_556 S
C244 C243 1.394 1_554 S
C244 C245 1.408 . S
C244 C247 1.539 . S
C245 C241 1.400 1_554 S
C245 C244 1.408 . S
C245 H257 0.934 . S
C246 C242 1.524 . S
C246 H258 0.956 . S
C246 H259 0.961 . S
C246 H260 0.961 . S
C247 C244 1.539 . S
C247 H261 0.958 . S
C247 H262 0.961 . S
C247 H263 0.960 . S
H248 C232 0.931 . S
H249 C237 0.929 . S
H250 C238 0.960 . S
H251 C238 0.962 . S
H252 C238 0.960 . S
H253 C239 0.961 . S
H254 C239 0.961 . S
H255 C239 0.961 . S
H256 C240 0.931 . S
H257 C245 0.934 . S
H258 C246 0.956 . S
H259 C246 0.961 . S
H260 C246 0.961 . S
H261 C247 0.958 . S
H262 C247 0.961 . S
H263 C247 0.960 . S
C264 C265 1.391 . S
C264 C266 1.394 . S
C264 H280 0.931 . S
C265 C264 1.391 . S
C265 C269 1.376 . S
C266 C264 1.394 . S
C266 C267 1.369 . S
C266 C270 1.531 . S
C267 C266 1.369 . S
C267 C268 1.410 . S
C267 C275 1.503 . S
C268 C267 1.410 . S
C268 C269 1.392 . S
C268 C271 1.511 . S
C269 C265 1.376 . S
C269 C268 1.392 . S
C269 H281 0.929 . S
C270 C266 1.531 . S
C270 H282 0.960 . S
C270 H283 0.962 . S
C270 H284 0.960 . S
C271 C268 1.511 . S
C271 H285 0.961 . S
C271 H286 0.961 . S
C271 H287 0.961 . S
C272 C273 1.370 . S
C272 C274 1.363 . S
C272 H288 0.931 . S
C273 C272 1.370 . S
C273 C277 1.408 . S
C274 C272 1.363 . S
C274 C275 1.370 . S
C274 C278 1.524 . S
C275 C267 1.503 . S
C275 C274 1.370 . S
C275 C276 1.403 . S
C276 C275 1.403 . S
C276 C277 1.404 . S
C276 C279 1.539 . S
C277 C273 1.408 . S
C277 C276 1.404 . S
C277 H289 0.930 . S
C278 C274 1.524 . S
C278 H290 0.956 . S
C278 H291 0.961 . S
C278 H292 0.961 . S
C279 C276 1.539 . S
C279 H293 0.958 . S
C279 H294 0.961 . S
C279 H295 0.960 . S
H280 C264 0.931 . S
H281 C269 0.929 . S
H282 C270 0.960 . S
H283 C270 0.962 . S
H284 C270 0.960 . S
H285 C271 0.961 . S
H286 C271 0.961 . S
H287 C271 0.961 . S
H288 C272 0.931 . S
H289 C277 0.930 . S
H290 C278 0.956 . S
H291 C278 0.961 . S
H292 C278 0.961 . S
H293 C279 0.958 . S
H294 C279 0.961 . S
H295 C279 0.960 . S
C296 C297 1.391 . S
C296 C298 1.394 . S
C296 H312 0.931 . S
C297 C296 1.391 . S
C297 C301 1.376 . S
C298 C296 1.394 . S
C298 C299 1.369 . S
C298 C302 1.531 . S
C299 C298 1.369 . S
C299 C300 1.410 . S
C299 C307 1.503 . S
C300 C299 1.410 . S
C300 C301 1.392 . S
C300 C303 1.511 . S
C301 C297 1.376 . S
C301 C300 1.392 . S
C301 H313 0.929 . S
C302 C298 1.531 . S
C302 H314 0.960 . S
C302 H315 0.962 . S
C302 H316 0.960 . S
C303 C300 1.511 . S
C303 H317 0.961 . S
C303 H318 0.961 . S
C303 H319 0.961 . S
C304 C305 1.370 . S
C304 C306 1.363 . S
C304 H320 0.931 1_565 S
C305 C304 1.370 . S
C305 C309 1.408 . S
C306 C304 1.363 . S
C306 C307 1.370 . S
C306 C310 1.524 . S
C307 C299 1.503 . S
C307 C306 1.370 . S
C307 C308 1.403 . S
C308 C307 1.403 . S
C308 C309 1.404 . S
C308 C311 1.539 . S
C309 C305 1.408 . S
C309 C308 1.404 . S
C309 H321 0.930 . S
C310 C306 1.524 . S
C310 H322 0.956 . S
C310 H323 0.961 . S
C310 H324 0.961 . S
C311 C308 1.539 . S
C311 H325 0.958 . S
C311 H326 0.961 . S
C311 H327 0.960 . S
H312 C296 0.931 . S
H313 C301 0.929 . S
H314 C302 0.960 . S
H315 C302 0.962 . S
H316 C302 0.960 . S
H317 C303 0.961 . S
H318 C303 0.961 . S
H319 C303 0.961 . S
H320 C304 0.931 1_545 S
H321 C309 0.930 . S
H322 C310 0.956 . S
H323 C310 0.961 . S
H324 C310 0.961 . S
H325 C311 0.958 . S
H326 C311 0.961 . S
H327 C311 0.960 . S
C328 C329 1.391 . S
C328 C330 1.394 . S
C328 H344 0.922 1_455 S
C329 C328 1.391 . S
C329 C333 1.376 . S
C330 C328 1.394 . S
C330 C331 1.369 . S
C330 C334 1.531 . S
C331 C330 1.369 . S
C331 C332 1.410 . S
C331 C339 1.503 . S
C332 C331 1.410 . S
C332 C333 1.392 . S
C332 C335 1.511 . S
C333 C329 1.376 . S
C333 C332 1.392 . S
C333 H345 0.929 . S
C334 C330 1.531 . S
C334 H346 0.960 . S
C334 H347 0.962 . S
C334 H348 0.960 . S
C335 C332 1.511 . S
C335 H349 0.961 . S
C335 H350 0.961 . S
C335 H351 0.961 . S
C336 C337 1.370 . S
C336 C338 1.363 . S
C336 H352 0.931 . S
C337 C336 1.370 . S
C337 C341 1.408 . S
C338 C336 1.363 . S
C338 C339 1.370 . S
C338 C342 1.524 . S
C339 C331 1.503 . S
C339 C338 1.370 . S
C339 C340 1.403 . S
C340 C339 1.403 . S
C340 C341 1.404 . S
C340 C343 1.539 . S
C341 C337 1.408 . S
C341 C340 1.404 . S
C341 H353 0.930 . S
C342 C338 1.524 . S
C342 H354 0.956 . S
C342 H355 0.961 . S
C342 H356 0.961 . S
C343 C340 1.539 . S
C343 H357 0.958 . S
C343 H358 0.961 . S
C343 H359 0.960 . S
H344 C328 0.922 1_655 S
H345 C333 0.929 . S
H346 C334 0.960 . S
H347 C334 0.962 . S
H348 C334 0.960 . S
H349 C335 0.961 . S
H350 C335 0.961 . S
H351 C335 0.961 . S
H352 C336 0.931 . S
H353 C341 0.930 . S
H354 C342 0.956 . S
H355 C342 0.961 . S
H356 C342 0.961 . S
H357 C343 0.958 . S
H358 C343 0.961 . S
H359 C343 0.960 . S
C360 C361 1.391 . S
C360 C362 1.394 1_554 S
C360 H376 0.931 1_554 S
C361 C360 1.391 . S
C361 C365 1.376 . S
C362 C360 1.394 1_556 S
C362 C363 1.369 1_556 S
C362 C366 1.531 . S
C363 C362 1.369 1_554 S
C363 C364 1.410 . S
C363 C371 1.503 1_554 S
C364 C363 1.410 . S
C364 C365 1.392 . S
C364 C367 1.511 . S
C365 C361 1.376 . S
C365 C364 1.392 . S
C365 H377 0.929 . S
C366 C362 1.531 . S
C366 H378 0.960 . S
C366 H379 0.962 . S
C366 H380 0.960 . S
C367 C364 1.511 . S
C367 H381 0.961 . S
C367 H382 0.961 . S
C367 H383 0.961 . S
C368 C369 1.370 . S
C368 C370 1.363 . S
C368 H384 0.931 . S
C369 C368 1.370 . S
C369 C373 1.408 . S
C370 C368 1.363 . S
C370 C371 1.370 . S
C370 C374 1.524 . S
C371 C363 1.503 1_556 S
C371 C370 1.370 . S
C371 C372 1.403 1_556 S
C372 C371 1.403 1_554 S
C372 C373 1.404 1_554 S
C372 C375 1.539 . S
C373 C369 1.408 . S
C373 C372 1.404 1_556 S
C373 H385 0.922 1_556 S
C374 C370 1.524 . S
C374 H386 0.956 . S
C374 H387 0.961 . S
C374 H388 0.961 . S
C375 C372 1.539 . S
C375 H389 0.958 . S
C375 H390 0.961 . S
C375 H391 0.960 . S
H376 C360 0.931 1_556 S
H377 C365 0.929 . S
H378 C366 0.960 . S
H379 C366 0.962 . S
H380 C366 0.960 . S
H381 C367 0.961 . S
H382 C367 0.961 . S
H383 C367 0.961 . S
H384 C368 0.931 . S
H385 C373 0.922 1_554 S
H386 C374 0.956 . S
H387 C374 0.961 . S
H388 C374 0.961 . S
H389 C375 0.958 . S
H390 C375 0.961 . S
H391 C375 0.960 . S
C392 C393 1.391 . S
C392 C394 1.394 . S
C392 H408 0.931 . S
C393 C392 1.391 . S
C393 C397 1.376 . S
C394 C392 1.394 . S
C394 C395 1.369 . S
C394 C398 1.531 . S
C395 C394 1.369 . S
C395 C396 1.410 . S
C395 C403 1.503 1_556 S
C396 C395 1.410 . S
C396 C397 1.392 . S
C396 C399 1.511 1_556 S
C397 C393 1.376 . S
C397 C396 1.392 . S
C397 H409 0.929 . S
C398 C394 1.531 . S
C398 H410 0.960 1_556 S
C398 H411 0.962 . S
C398 H412 0.960 . S
C399 C396 1.511 1_554 S
C399 H413 0.961 1_554 S
C399 H414 0.961 . S
C399 H415 0.961 . S
C400 C401 1.370 1_556 S
C400 C402 1.363 . S
C400 H416 0.931 1_545 S
C401 C400 1.370 1_554 S
C401 C405 1.408 . S
C402 C400 1.363 . S
C402 C403 1.370 1_556 S
C402 C406 1.524 . S
C403 C395 1.503 1_554 S
C403 C402 1.370 1_554 S
C403 C404 1.403 . S
C404 C403 1.403 . S
C404 C405 1.404 . S
C404 C407 1.539 . S
C405 C401 1.408 . S
C405 C404 1.404 . S
C405 H417 0.930 . S
C406 C402 1.524 . S
C406 H418 0.956 . S
C406 H419 0.961 . S
C406 H420 0.961 . S
C407 C404 1.539 . S
C407 H421 0.958 . S
C407 H422 0.961 . S
C407 H423 0.960 . S
H408 C392 0.931 . S
H409 C397 0.929 . S
H410 C398 0.960 1_554 S
H411 C398 0.962 . S
H412 C398 0.960 . S
H413 C399 0.961 1_556 S
H414 C399 0.961 . S
H415 C399 0.961 . S
H416 C400 0.931 1_565 S
H417 C405 0.930 . S
H418 C406 0.956 . S
H419 C406 0.961 . S
H420 C406 0.961 . S
H421 C407 0.958 . S
H422 C407 0.961 . S
H423 C407 0.960 . S
C424 C425 1.391 . S
C424 C426 1.394 1_554 S
C424 H440 0.932 . S
C425 C424 1.391 . S
C425 C429 1.376 . S
C426 C424 1.394 1_556 S
C426 C427 1.369 . S
C426 C430 1.531 . S
C427 C426 1.369 . S
C427 C428 1.410 1_556 S
C427 C435 1.503 . S
C428 C427 1.410 1_554 S
C428 C429 1.392 . S
C428 C431 1.511 . S
C429 C425 1.376 . S
C429 C428 1.392 . S
C429 H441 0.929 . S
C430 C426 1.531 . S
C430 H442 0.960 . S
C430 H443 0.962 . S
C430 H444 0.960 . S
C431 C428 1.511 . S
C431 H445 0.961 . S
C431 H446 0.961 . S
C431 H447 0.961 . S
C432 C433 1.370 . S
C432 C434 1.363 1_556 S
C432 H448 0.931 1_556 S
C433 C432 1.370 . S
C433 C437 1.408 . S
C434 C432 1.363 1_554 S
C434 C435 1.370 1_554 S
C434 C438 1.524 . S
C435 C427 1.503 . S
C435 C434 1.370 1_556 S
C435 C436 1.403 . S
C436 C435 1.403 . S
C436 C437 1.404 . S
C436 C439 1.539 . S
C437 C433 1.408 . S
C437 C436 1.404 . S
C437 H449 0.930 . S
C438 C434 1.524 . S
C438 H450 0.956 . S
C438 H451 0.961 . S
C438 H452 0.961 . S
C439 C436 1.539 . S
C439 H453 0.958 . S
C439 H454 0.961 . S
C439 H455 0.960 . S
H440 C424 0.932 . S
H441 C429 0.929 . S
H442 C430 0.960 . S
H443 C430 0.962 . S
H444 C430 0.960 . S
H445 C431 0.961 . S
H446 C431 0.961 . S
H447 C431 0.961 . S
H448 C432 0.931 1_554 S
H449 C437 0.930 . S
H450 C438 0.956 . S
H451 C438 0.961 . S
H452 C438 0.961 . S
H453 C439 0.958 . S
H454 C439 0.961 . S
H455 C439 0.960 . S
C456 C457 1.391 . S
C456 C458 1.394 . S
C456 H472 0.931 . S
C457 C456 1.391 . S
C457 C461 1.376 . S
C458 C456 1.394 . S
C458 C459 1.369 . S
C458 C462 1.531 . S
C459 C458 1.369 . S
C459 C460 1.410 . S
C459 C467 1.503 . S
C460 C459 1.410 . S
C460 C461 1.392 . S
C460 C463 1.511 . S
C461 C457 1.376 . S
C461 C460 1.392 . S
C461 H473 0.929 . S
C462 C458 1.531 . S
C462 H474 0.960 . S
C462 H475 0.962 . S
C462 H476 0.960 . S
C463 C460 1.511 . S
C463 H477 0.961 . S
C463 H478 0.961 . S
C463 H479 0.961 . S
C464 C465 1.370 . S
C464 C466 1.363 . S
C464 H480 0.931 . S
C465 C464 1.370 . S
C465 C469 1.408 . S
C466 C464 1.363 . S
C466 C467 1.370 . S
C466 C470 1.524 . S
C467 C459 1.503 . S
C467 C466 1.370 . S
C467 C468 1.403 . S
C468 C467 1.403 . S
C468 C469 1.404 . S
C468 C471 1.539 . S
C469 C465 1.408 . S
C469 C468 1.404 . S
C469 H481 0.930 . S
C470 C466 1.524 . S
C470 H482 0.956 . S
C470 H483 0.961 . S
C470 H484 0.961 . S
C471 C468 1.539 . S
C471 H485 0.958 . S
C471 H486 0.961 . S
C471 H487 0.960 . S
H472 C456 0.931 . S
H473 C461 0.929 . S
H474 C462 0.960 . S
H475 C462 0.962 . S
H476 C462 0.960 . S
H477 C463 0.961 . S
H478 C463 0.961 . S
H479 C463 0.961 . S
H480 C464 0.931 . S
H481 C469 0.930 . S
H482 C470 0.956 . S
H483 C470 0.961 . S
H484 C470 0.961 . S
H485 C471 0.958 . S
H486 C471 0.961 . S
H487 C471 0.960 . S
C488 C489 1.391 . S
C488 C490 1.394 . S
C488 H504 0.931 . S
C489 C488 1.391 . S
C489 C493 1.376 . S
C490 C488 1.394 . S
C490 C491 1.369 . S
C490 C494 1.531 . S
C491 C490 1.369 . S
C491 C492 1.410 . S
C491 C499 1.503 . S
C492 C491 1.410 . S
C492 C493 1.392 . S
C492 C495 1.511 . S
C493 C489 1.376 . S
C493 C492 1.392 . S
C493 H505 0.929 . S
C494 C490 1.531 . S
C494 H506 0.960 . S
C494 H507 0.962 . S
C494 H508 0.960 . S
C495 C492 1.511 . S
C495 H509 0.961 . S
C495 H510 0.961 . S
C495 H511 0.961 . S
C496 C497 1.370 . S
C496 C498 1.363 . S
C496 H512 0.931 . S
C497 C496 1.370 . S
C497 C501 1.408 . S
C498 C496 1.363 . S
C498 C499 1.370 . S
C498 C502 1.524 . S
C499 C491 1.503 . S
C499 C498 1.370 . S
C499 C500 1.403 . S
C500 C499 1.403 . S
C500 C501 1.404 . S
C500 C503 1.539 . S
C501 C497 1.408 . S
C501 C500 1.404 . S
C501 H513 0.930 . S
C502 C498 1.524 . S
C502 H514 0.956 . S
C502 H515 0.961 . S
C502 H516 0.961 . S
C503 C500 1.539 . S
C503 H517 0.958 . S
C503 H518 0.961 . S
C503 H519 0.960 . S
H504 C488 0.931 . S
H505 C493 0.929 . S
H506 C494 0.960 . S
H507 C494 0.962 . S
H508 C494 0.960 . S
H509 C495 0.961 . S
H510 C495 0.961 . S
H511 C495 0.961 . S
H512 C496 0.931 . S
H513 C501 0.930 . S
H514 C502 0.956 . S
H515 C502 0.961 . S
H516 C502 0.961 . S
H517 C503 0.958 . S
H518 C503 0.961 . S
H519 C503 0.960 . S
C520 C521 1.391 . S
C520 C522 1.394 . S
C520 H536 0.931 1_655 S
C521 C520 1.391 . S
C521 C525 1.376 . S
C522 C520 1.394 . S
C522 C523 1.369 . S
C522 C526 1.531 . S
C523 C522 1.369 . S
C523 C524 1.410 . S
C523 C531 1.503 . S
C524 C523 1.410 . S
C524 C525 1.392 . S
C524 C527 1.511 . S
C525 C521 1.376 . S
C525 C524 1.392 . S
C525 H537 0.929 . S
C526 C522 1.531 . S
C526 H538 0.960 . S
C526 H539 0.962 . S
C526 H540 0.960 . S
C527 C524 1.511 . S
C527 H541 0.961 . S
C527 H542 0.961 . S
C527 H543 0.961 . S
C528 C529 1.370 . S
C528 C530 1.363 . S
C528 H544 0.931 . S
C529 C528 1.370 . S
C529 C533 1.408 . S
C530 C528 1.363 . S
C530 C531 1.370 . S
C530 C534 1.524 . S
C531 C523 1.503 . S
C531 C530 1.370 . S
C531 C532 1.403 . S
C532 C531 1.403 . S
C532 C533 1.404 . S
C532 C535 1.539 . S
C533 C529 1.408 . S
C533 C532 1.404 . S
C533 H545 0.930 . S
C534 C530 1.524 . S
C534 H546 0.956 . S
C534 H547 0.961 . S
C534 H548 0.961 . S
C535 C532 1.539 . S
C535 H549 0.958 . S
C535 H550 0.961 . S
C535 H551 0.960 . S
H536 C520 0.931 1_455 S
H537 C525 0.929 . S
H538 C526 0.960 . S
H539 C526 0.962 . S
H540 C526 0.960 . S
H541 C527 0.961 . S
H542 C527 0.961 . S
H543 C527 0.961 . S
H544 C528 0.931 . S
H545 C533 0.930 . S
H546 C534 0.956 . S
H547 C534 0.961 . S
H548 C534 0.961 . S
H549 C535 0.958 . S
H550 C535 0.961 . S
H551 C535 0.960 . S
C552 C553 1.391 . S
C552 C554 1.394 . S
C552 H568 0.931 . S
C553 C552 1.391 . S
C553 C557 1.376 . S
C554 C552 1.394 . S
C554 C555 1.369 . S
C554 C558 1.531 . S
C555 C554 1.369 . S
C555 C556 1.410 . S
C555 C563 1.503 . S
C556 C555 1.410 . S
C556 C557 1.392 . S
C556 C559 1.511 . S
C557 C553 1.376 . S
C557 C556 1.392 . S
C557 H569 0.929 . S
C558 C554 1.531 . S
C558 H570 0.960 . S
C558 H571 0.962 . S
C558 H572 0.960 . S
C559 C556 1.511 . S
C559 H573 0.961 . S
C559 H574 0.961 . S
C559 H575 0.961 . S
C560 C561 1.370 . S
C560 C562 1.363 . S
C560 H576 0.931 . S
C561 C560 1.370 . S
C561 C565 1.408 . S
C562 C560 1.363 . S
C562 C563 1.370 . S
C562 C566 1.524 . S
C563 C555 1.503 . S
C563 C562 1.370 . S
C563 C564 1.403 . S
C564 C563 1.403 . S
C564 C565 1.404 . S
C564 C567 1.539 . S
C565 C561 1.408 . S
C565 C564 1.404 . S
C565 H577 0.930 . S
C566 C562 1.524 . S
C566 H578 0.956 . S
C566 H579 0.961 . S
C566 H580 0.961 . S
C567 C564 1.539 . S
C567 H581 0.958 . S
C567 H582 0.961 . S
C567 H583 0.960 . S
H568 C552 0.931 . S
H569 C557 0.929 . S
H570 C558 0.960 . S
H571 C558 0.962 . S
H572 C558 0.960 . S
H573 C559 0.961 . S
H574 C559 0.961 . S
H575 C559 0.961 . S
H576 C560 0.931 . S
H577 C565 0.930 . S
H578 C566 0.956 . S
H579 C566 0.961 . S
H580 C566 0.961 . S
H581 C567 0.958 . S
H582 C567 0.961 . S
H583 C567 0.960 . S
C584 C585 1.391 . S
C584 C586 1.394 . S
C584 H600 0.931 . S
C585 C584 1.391 . S
C585 C589 1.376 . S
C586 C584 1.394 . S
C586 C587 1.369 . S
C586 C590 1.531 . S
C587 C586 1.369 . S
C587 C588 1.410 . S
C587 C595 1.503 . S
C588 C587 1.410 . S
C588 C589 1.392 . S
C588 C591 1.511 . S
C589 C585 1.376 . S
C589 C588 1.392 . S
C589 H601 0.929 . S
C590 C586 1.531 . S
C590 H602 0.960 . S
C590 H603 0.962 . S
C590 H604 0.960 . S
C591 C588 1.511 . S
C591 H605 0.961 . S
C591 H606 0.961 . S
C591 H607 0.961 . S
C592 C593 1.370 . S
C592 C594 1.363 . S
C592 H608 0.931 . S
C593 C592 1.370 . S
C593 C597 1.408 . S
C594 C592 1.363 . S
C594 C595 1.370 . S
C594 C598 1.524 . S
C595 C587 1.503 . S
C595 C594 1.370 . S
C595 C596 1.403 . S
C596 C595 1.403 . S
C596 C597 1.404 . S
C596 C599 1.539 . S
C597 C593 1.408 . S
C597 C596 1.404 . S
C597 H609 0.930 . S
C598 C594 1.524 . S
C598 H610 0.956 . S
C598 H611 0.961 . S
C598 H612 0.961 . S
C599 C596 1.539 . S
C599 H613 0.958 . S
C599 H614 0.961 . S
C599 H615 0.960 . S
H600 C584 0.931 . S
H601 C589 0.929 . S
H602 C590 0.960 . S
H603 C590 0.962 . S
H604 C590 0.960 . S
H605 C591 0.961 . S
H606 C591 0.961 . S
H607 C591 0.961 . S
H608 C592 0.931 . S
H609 C597 0.930 . S
H610 C598 0.956 . S
H611 C598 0.961 . S
H612 C598 0.961 . S
H613 C599 0.958 . S
H614 C599 0.961 . S
H615 C599 0.960 . S
C616 C617 1.391 . S
C616 C618 1.394 . S
C616 H632 0.931 . S
C617 C616 1.391 . S
C617 C621 1.376 . S
C618 C616 1.394 . S
C618 C619 1.369 . S
C618 C622 1.531 . S
C619 C618 1.369 . S
C619 C620 1.410 . S
C619 C627 1.503 . S
C620 C619 1.410 . S
C620 C621 1.392 . S
C620 C623 1.511 . S
C621 C617 1.376 . S
C621 C620 1.392 . S
C621 H633 0.929 . S
C622 C618 1.531 . S
C622 H634 0.960 . S
C622 H635 0.962 . S
C622 H636 0.960 . S
C623 C620 1.511 . S
C623 H637 0.961 . S
C623 H638 0.961 . S
C623 H639 0.961 . S
C624 C625 1.370 . S
C624 C626 1.363 . S
C624 H640 0.931 . S
C625 C624 1.370 . S
C625 C629 1.408 . S
C626 C624 1.363 . S
C626 C627 1.370 . S
C626 C630 1.524 . S
C627 C619 1.503 . S
C627 C626 1.370 . S
C627 C628 1.403 . S
C628 C627 1.403 . S
C628 C629 1.404 . S
C628 C631 1.539 . S
C629 C625 1.408 . S
C629 C628 1.404 . S
C629 H641 0.930 . S
C630 C626 1.524 . S
C630 H642 0.956 . S
C630 H643 0.961 . S
C630 H644 0.961 . S
C631 C628 1.539 . S
C631 H645 0.958 . S
C631 H646 0.961 . S
C631 H647 0.960 . S
H632 C616 0.931 . S
H633 C621 0.929 . S
H634 C622 0.960 . S
H635 C622 0.962 . S
H636 C622 0.960 . S
H637 C623 0.961 . S
H638 C623 0.961 . S
H639 C623 0.961 . S
H640 C624 0.931 . S
H641 C629 0.930 . S
H642 C630 0.956 . S
H643 C630 0.961 . S
H644 C630 0.961 . S
H645 C631 0.958 . S
H646 C631 0.961 . S
H647 C631 0.960 . S
C648 C649 1.391 . S
C648 C650 1.394 . S
C648 H664 0.931 . S
C649 C648 1.391 . S
C649 C653 1.376 . S
C650 C648 1.394 . S
C650 C651 1.369 . S
C650 C654 1.531 . S
C651 C650 1.369 . S
C651 C652 1.410 . S
C651 C659 1.503 . S
C652 C651 1.410 . S
C652 C653 1.392 . S
C652 C655 1.511 . S
C653 C649 1.376 . S
C653 C652 1.392 . S
C653 H665 0.929 . S
C654 C650 1.531 . S
C654 H666 0.960 . S
C654 H667 0.962 . S
C654 H668 0.960 . S
C655 C652 1.511 . S
C655 H669 0.961 . S
C655 H670 0.961 . S
C655 H671 0.961 . S
C656 C657 1.370 . S
C656 C658 1.363 . S
C656 H672 0.931 . S
C657 C656 1.370 . S
C657 C661 1.408 . S
C658 C656 1.363 . S
C658 C659 1.370 . S
C658 C662 1.524 . S
C659 C651 1.503 . S
C659 C658 1.370 . S
C659 C660 1.403 . S
C660 C659 1.403 . S
C660 C661 1.404 . S
C660 C663 1.539 . S
C661 C657 1.408 . S
C661 C660 1.404 . S
C661 H673 0.930 . S
C662 C658 1.524 . S
C662 H674 0.956 . S
C662 H675 0.961 . S
C662 H676 0.961 . S
C663 C660 1.539 . S
C663 H677 0.958 . S
C663 H678 0.961 . S
C663 H679 0.960 . S
H664 C648 0.931 . S
H665 C653 0.929 . S
H666 C654 0.960 . S
H667 C654 0.962 . S
H668 C654 0.960 . S
H669 C655 0.961 . S
H670 C655 0.961 . S
H671 C655 0.961 . S
H672 C656 0.931 . S
H673 C661 0.930 . S
H674 C662 0.956 . S
H675 C662 0.961 . S
H676 C662 0.961 . S
H677 C663 0.958 . S
H678 C663 0.961 . S
H679 C663 0.960 . S
C680 C681 1.391 . S
C680 C682 1.394 . S
C680 H696 0.931 . S
C681 C680 1.391 . S
C681 C685 1.376 . S
C682 C680 1.394 . S
C682 C683 1.369 . S
C682 C686 1.531 . S
C683 C682 1.369 . S
C683 C684 1.410 . S
C683 C691 1.503 . S
C684 C683 1.410 . S
C684 C685 1.392 . S
C684 C687 1.511 . S
C685 C681 1.376 . S
C685 C684 1.392 . S
C685 H697 0.929 . S
C686 C682 1.531 . S
C686 H698 0.960 . S
C686 H699 0.962 . S
C686 H700 0.960 . S
C687 C684 1.511 . S
C687 H701 0.961 . S
C687 H702 0.961 . S
C687 H703 0.961 . S
C688 C689 1.370 . S
C688 C690 1.363 . S
C688 H704 0.931 . S
C689 C688 1.370 . S
C689 C693 1.408 . S
C690 C688 1.363 . S
C690 C691 1.370 . S
C690 C694 1.524 . S
C691 C683 1.503 . S
C691 C690 1.370 . S
C691 C692 1.403 . S
C692 C691 1.403 . S
C692 C693 1.404 . S
C692 C695 1.539 . S
C693 C689 1.408 . S
C693 C692 1.404 . S
C693 H705 0.930 . S
C694 C690 1.524 . S
C694 H706 0.956 . S
C694 H707 0.961 . S
C694 H708 0.961 . S
C695 C692 1.539 . S
C695 H709 0.958 . S
C695 H710 0.961 . S
C695 H711 0.960 . S
H696 C680 0.931 . S
H697 C685 0.929 . S
H698 C686 0.960 . S
H699 C686 0.962 . S
H700 C686 0.960 . S
H701 C687 0.961 . S
H702 C687 0.961 . S
H703 C687 0.961 . S
H704 C688 0.931 . S
H705 C693 0.930 . S
H706 C694 0.956 . S
H707 C694 0.961 . S
H708 C694 0.961 . S
H709 C695 0.958 . S
H710 C695 0.961 . S
H711 C695 0.960 . S
C712 C713 1.391 . S
C712 C714 1.394 . S
C712 H728 0.931 . S
C713 C712 1.391 . S
C713 C717 1.376 . S
C714 C712 1.394 . S
C714 C715 1.369 . S
C714 C718 1.531 . S
C715 C714 1.369 . S
C715 C716 1.410 . S
C715 C723 1.503 . S
C716 C715 1.410 . S
C716 C717 1.392 . S
C716 C719 1.511 . S
C717 C713 1.376 . S
C717 C716 1.392 . S
C717 H729 0.929 . S
C718 C714 1.531 . S
C718 H730 0.960 . S
C718 H731 0.962 . S
C718 H732 0.960 . S
C719 C716 1.511 . S
C719 H733 0.961 . S
C719 H734 0.961 . S
C719 H735 0.961 . S
C720 C721 1.370 . S
C720 C722 1.363 . S
C720 H736 0.931 . S
C721 C720 1.370 . S
C721 C725 1.408 . S
C722 C720 1.363 . S
C722 C723 1.370 . S
C722 C726 1.524 . S
C723 C715 1.503 . S
C723 C722 1.370 . S
C723 C724 1.403 . S
C724 C723 1.403 . S
C724 C725 1.404 . S
C724 C727 1.539 . S
C725 C721 1.408 . S
C725 C724 1.404 . S
C725 H737 0.930 . S
C726 C722 1.524 . S
C726 H738 0.956 . S
C726 H739 0.961 . S
C726 H740 0.961 . S
C727 C724 1.539 . S
C727 H741 0.958 . S
C727 H742 0.961 . S
C727 H743 0.960 . S
H728 C712 0.931 . S
H729 C717 0.929 . S
H730 C718 0.960 . S
H731 C718 0.962 . S
H732 C718 0.960 . S
H733 C719 0.961 . S
H734 C719 0.961 . S
H735 C719 0.961 . S
H736 C720 0.931 . S
H737 C725 0.930 . S
H738 C726 0.956 . S
H739 C726 0.961 . S
H740 C726 0.961 . S
H741 C727 0.958 . S
H742 C727 0.961 . S
H743 C727 0.960 . S
C744 C745 1.391 . S
C744 C746 1.394 . S
C744 H760 0.931 . S
C745 C744 1.391 . S
C745 C749 1.376 . S
C746 C744 1.394 . S
C746 C747 1.369 . S
C746 C750 1.531 1_455 S
C747 C746 1.369 . S
C747 C748 1.410 1_554 S
C747 C755 1.503 1_454 S
C748 C747 1.410 1_556 S
C748 C749 1.392 1_556 S
C748 C751 1.511 . S
C749 C745 1.376 . S
C749 C748 1.392 1_554 S
C749 H761 0.929 1_554 S
C750 C746 1.531 1_655 S
C750 H762 0.960 . S
C750 H763 0.962 . S
C750 H764 0.960 1_655 S
C751 C748 1.511 . S
C751 H765 0.961 . S
C751 H766 0.961 . S
C751 H767 0.961 . S
C752 C753 1.370 . S
C752 C754 1.363 . S
C752 H768 0.931 . S
C753 C752 1.370 . S
C753 C757 1.408 1_655 S
C754 C752 1.363 . S
C754 C755 1.370 . S
C754 C758 1.524 . S
C755 C747 1.503 1_656 S
C755 C754 1.370 . S
C755 C756 1.403 1_655 S
C756 C755 1.403 1_455 S
C756 C757 1.404 . S
C756 C759 1.539 . S
C757 C753 1.408 1_455 S
C757 C756 1.404 . S
C757 H769 0.930 . S
C758 C754 1.524 . S
C758 H770 0.956 1_556 S
C758 H771 0.961 . S
C758 H772 0.961 . S
C759 C756 1.539 . S
C759 H773 0.958 1_556 S
C759 H774 0.961 . S
C759 H775 0.960 . S
H760 C744 0.931 . S
H761 C749 0.929 1_556 S
H762 C750 0.960 . S
H763 C750 0.962 . S
H764 C750 0.960 1_455 S
H765 C751 0.961 . S
H766 C751 0.961 . S
H767 C751 0.961 . S
H768 C752 0.931 . S
H769 C757 0.930 . S
H770 C758 0.956 1_554 S
H771 C758 0.961 . S
H772 C758 0.961 . S
H773 C759 0.958 1_554 S
H774 C759 0.961 . S
H775 C759 0.960 . S
C776 C777 1.391 . S
C776 C778 1.394 . S
C776 H792 0.931 . S
C777 C776 1.391 . S
C777 C781 1.376 . S
C778 C776 1.394 . S
C778 C779 1.369 . S
C778 C782 1.531 . S
C779 C778 1.369 . S
C779 C780 1.410 1_554 S
C779 C787 1.503 1_554 S
C780 C779 1.410 1_556 S
C780 C781 1.392 1_556 S
C780 C783 1.511 . S
C781 C777 1.376 . S
C781 C780 1.392 1_554 S
C781 H793 0.929 1_554 S
C782 C778 1.531 . S
C782 H794 0.960 . S
C782 H795 0.962 . S
C782 H796 0.960 . S
C783 C780 1.511 . S
C783 H797 0.961 . S
C783 H798 0.961 . S
C783 H799 0.961 . S
C784 C785 1.370 . S
C784 C786 1.363 . S
C784 H800 0.931 . S
C785 C784 1.370 . S
C785 C789 1.408 . S
C786 C784 1.363 . S
C786 C787 1.370 . S
C786 C790 1.524 . S
C787 C779 1.503 1_556 S
C787 C786 1.370 . S
C787 C788 1.403 . S
C788 C787 1.403 . S
C788 C789 1.404 . S
C788 C791 1.539 . S
C789 C785 1.408 . S
C789 C788 1.404 . S
C789 H801 0.930 . S
C790 C786 1.524 . S
C790 H802 0.956 1_556 S
C790 H803 0.961 . S
C790 H804 0.961 . S
C791 C788 1.539 . S
C791 H805 0.958 1_556 S
C791 H806 0.961 . S
C791 H807 0.960 . S
H792 C776 0.931 . S
H793 C781 0.929 1_556 S
H794 C782 0.960 . S
H795 C782 0.962 . S
H796 C782 0.960 . S
H797 C783 0.961 . S
H798 C783 0.961 . S
H799 C783 0.961 . S
H800 C784 0.931 . S
H801 C789 0.930 . S
H802 C790 0.956 1_554 S
H803 C790 0.961 . S
H804 C790 0.961 . S
H805 C791 0.958 1_554 S
H806 C791 0.961 . S
H807 C791 0.960 . S
C808 C809 1.391 . S
C808 C810 1.392 1_554 S
C808 H824 0.931 1_554 S
C809 C808 1.391 . S
C809 C813 1.376 . S
C810 C808 1.392 1_556 S
C810 C811 1.375 1_566 S
C810 C814 1.526 1_565 S
C811 C810 1.375 1_544 S
C811 C812 1.410 1_545 S
C811 C819 1.503 1_554 S
C812 C811 1.410 1_565 S
C812 C813 1.392 . S
C812 C815 1.511 . S
C813 C809 1.376 . S
C813 C812 1.392 . S
C813 H825 0.929 . S
C814 C810 1.526 1_545 S
C814 H826 0.960 . S
C814 H827 0.962 1_545 S
C814 H828 0.960 . S
C815 C812 1.511 . S
C815 H829 0.961 . S
C815 H830 0.961 . S
C815 H831 0.961 1_565 S
C816 C817 1.370 1_565 S
C816 C818 1.363 . S
C816 H832 0.931 . S
C817 C816 1.370 1_545 S
C817 C821 1.408 . S
C818 C816 1.363 . S
C818 C819 1.370 1_565 S
C818 C822 1.524 . S
C819 C811 1.503 1_556 S
C819 C818 1.370 1_545 S
C819 C820 1.403 . S
C820 C819 1.403 . S
C820 C821 1.404 . S
C820 C823 1.539 1_556 S
C821 C817 1.408 . S
C821 C820 1.404 . S
C821 H833 0.930 . S
C822 C818 1.524 . S
C822 H834 0.956 . S
C822 H835 0.960 . S
C822 H836 0.961 . S
C823 C820 1.539 1_554 S
C823 H837 0.958 1_554 S
C823 H838 0.961 . S
C823 H839 0.960 . S
H824 C808 0.931 1_556 S
H825 C813 0.929 . S
H826 C814 0.960 . S
H827 C814 0.962 1_565 S
H828 C814 0.960 . S
H829 C815 0.961 . S
H830 C815 0.961 . S
H831 C815 0.961 1_545 S
H832 C816 0.931 . S
H833 C821 0.930 . S
H834 C822 0.956 . S
H835 C822 0.960 . S
H836 C822 0.961 . S
H837 C823 0.958 1_556 S
H838 C823 0.961 . S
H839 C823 0.960 . S
C840 C841 1.391 . S
C840 C842 1.394 . S
C840 H856 0.931 . S
C841 C840 1.391 . S
C841 C845 1.376 1_565 S
C842 C840 1.394 . S
C842 C843 1.369 . S
C842 C846 1.531 . S
C843 C842 1.369 . S
C843 C844 1.410 1_565 S
C843 C851 1.503 1_565 S
C844 C843 1.410 1_545 S
C844 C845 1.392 . S
C844 C847 1.511 . S
C845 C841 1.376 1_545 S
C845 C844 1.392 . S
C845 H857 0.929 . S
C846 C842 1.531 . S
C846 H858 0.960 . S
C846 H859 0.962 . S
C846 H860 0.960 . S
C847 C844 1.511 . S
C847 H861 0.961 . S
C847 H862 0.961 . S
C847 H863 0.961 . S
C848 C849 1.370 . S
C848 C850 1.363 . S
C848 H864 0.931 . S
C849 C848 1.370 . S
C849 C853 1.408 . S
C850 C848 1.363 . S
C850 C851 1.370 . S
C850 C854 1.524 . S
C851 C843 1.503 1_545 S
C851 C850 1.370 . S
C851 C852 1.403 . S
C852 C851 1.403 . S
C852 C853 1.404 . S
C852 C855 1.539 . S
C853 C849 1.408 . S
C853 C852 1.404 . S
C853 H865 0.930 . S
C854 C850 1.524 . S
C854 H866 0.958 1_545 S
C854 H867 0.960 . S
C854 H868 0.959 . S
C855 C852 1.539 . S
C855 H869 0.958 1_545 S
C855 H870 0.961 . S
C855 H871 0.960 . S
H856 C840 0.931 . S
H857 C845 0.929 . S
H858 C846 0.960 . S
H859 C846 0.962 . S
H860 C846 0.960 . S
H861 C847 0.961 . S
H862 C847 0.961 . S
H863 C847 0.961 . S
H864 C848 0.931 . S
H865 C853 0.930 . S
H866 C854 0.958 1_565 S
H867 C854 0.960 . S
H868 C854 0.959 . S
H869 C855 0.958 1_565 S
H870 C855 0.961 . S
H871 C855 0.960 . S
C872 C873 1.391 1_455 S
C872 C874 1.394 . S
C872 H888 0.931 . S
C873 C872 1.391 1_655 S
C873 C877 1.376 . S
C874 C872 1.394 . S
C874 C875 1.369 1_455 S
C874 C878 1.531 . S
C875 C874 1.369 1_655 S
C875 C876 1.410 . S
C875 C883 1.503 1_655 S
C876 C875 1.410 . S
C876 C877 1.392 . S
C876 C879 1.511 . S
C877 C873 1.376 . S
C877 C876 1.392 . S
C877 H889 0.929 . S
C878 C874 1.531 . S
C878 H890 0.960 . S
C878 H891 0.962 . S
C878 H892 0.960 . S
C879 C876 1.511 . S
C879 H893 0.961 . S
C879 H894 0.961 . S
C879 H895 0.961 . S
C880 C881 1.370 . S
C880 C882 1.363 . S
C880 H896 0.931 . S
C881 C880 1.370 . S
C881 C885 1.408 . S
C882 C880 1.363 . S
C882 C883 1.370 . S
C882 C886 1.524 . S
C883 C875 1.503 1_455 S
C883 C882 1.370 . S
C883 C884 1.403 1_455 S
C884 C883 1.403 1_655 S
C884 C885 1.404 1_655 S
C884 C887 1.539 . S
C885 C881 1.408 . S
C885 C884 1.404 1_455 S
C885 H897 0.930 . S
C886 C882 1.524 . S
C886 H898 0.956 . S
C886 H899 0.961 . S
C886 H900 0.961 . S
C887 C884 1.539 . S
C887 H901 0.958 . S
C887 H902 0.961 . S
C887 H903 0.960 . S
H888 C872 0.931 . S
H889 C877 0.929 . S
H890 C878 0.960 . S
H891 C878 0.962 . S
H892 C878 0.960 . S
H893 C879 0.961 . S
H894 C879 0.961 . S
H895 C879 0.961 . S
H896 C880 0.931 . S
H897 C885 0.930 . S
H898 C886 0.956 . S
H899 C886 0.961 . S
H900 C886 0.961 . S
H901 C887 0.958 . S
H902 C887 0.961 . S
H903 C887 0.960 . S
C904 C905 1.391 . S
C904 C906 1.394 . S
C904 H920 0.931 . S
C905 C904 1.391 . S
C905 C909 1.376 . S
C906 C904 1.394 . S
C906 C907 1.369 . S
C906 C910 1.531 . S
C907 C906 1.369 . S
C907 C908 1.410 . S
C907 C915 1.503 . S
C908 C907 1.410 . S
C908 C909 1.392 . S
C908 C911 1.511 . S
C909 C905 1.376 . S
C909 C908 1.392 . S
C909 H921 0.929 . S
C910 C906 1.531 . S
C910 H922 0.960 . S
C910 H923 0.962 . S
C910 H924 0.960 . S
C911 C908 1.511 . S
C911 H925 0.961 . S
C911 H926 0.961 . S
C911 H927 0.961 . S
C912 C913 1.370 . S
C912 C914 1.363 . S
C912 H928 0.931 . S
C913 C912 1.370 . S
C913 C917 1.408 . S
C914 C912 1.363 . S
C914 C915 1.370 . S
C914 C918 1.524 . S
C915 C907 1.503 . S
C915 C914 1.370 . S
C915 C916 1.403 . S
C916 C915 1.403 . S
C916 C917 1.404 . S
C916 C919 1.539 . S
C917 C913 1.408 . S
C917 C916 1.404 . S
C917 H929 0.930 . S
C918 C914 1.524 . S
C918 H930 0.956 . S
C918 H931 0.961 . S
C918 H932 0.961 . S
C919 C916 1.539 . S
C919 H933 0.958 . S
C919 H934 0.961 . S
C919 H935 0.960 . S
H920 C904 0.931 . S
H921 C909 0.929 . S
H922 C910 0.960 . S
H923 C910 0.962 . S
H924 C910 0.960 . S
H925 C911 0.961 . S
H926 C911 0.961 . S
H927 C911 0.961 . S
H928 C912 0.931 . S
H929 C917 0.930 . S
H930 C918 0.956 . S
H931 C918 0.961 . S
H932 C918 0.961 . S
H933 C919 0.958 . S
H934 C919 0.961 . S
H935 C919 0.960 . S
C169 C8 1.078 . S
C177 C107 1.063 . S
C201 C22 1.042 . S
C209 C121 1.079 1_565 S
C233 C36 1.047 . S
C241 C93 1.065 1_455 S
C265 C163 1.095 . S
C273 C50 1.066 . S
C297 C64 1.102 . S
C305 C135 1.078 1_565 S
C329 C149 1.050 1_455 S
C337 C78 1.080 . S
C361 C23 1.100 . S
C369 C92 1.082 . S
C393 C106 1.102 . S
C401 C37 1.080 1_545 S
C425 C9 1.075 1_655 S
C433 C120 1.061 . S
C457 C134 1.048 . S
C465 C79 1.062 . S
C489 C148 1.096 . S
C497 C51 1.086 1_545 S
C521 C65 1.102 1_655 S
C529 C162 1.079 . S
C553 C76 1.493 . S
C561 C6 1.477 . S
C585 C20 1.492 . S
C593 C48 1.479 . S
C617 C34 1.478 . S
C625 C62 1.478 . S
C649 C90 1.437 . S
C657 C160 1.455 . S
C681 C104 1.488 . S
C689 C132 1.476 . S
C713 C118 1.461 . S
C721 C146 1.469 . S
C745 C7 1.635 . S
C753 C91 1.634 . S
C777 C21 1.627 . S
C785 C105 1.637 . S
C809 C35 1.641 . S
C817 C119 1.627 . S
C841 C49 1.596 . S
C849 C133 1.647 . S
C873 C147 1.596 . S
C881 C63 1.647 . S
C905 C77 1.596 . S
C913 C161 1.647 . S
