# Generated by pormake.
# Topology kfi, (4)-cn, num edge types: 1
# Building blocks:
#     Node 0, Type 0, BuildingBlock: QUQFOY_clean_sbu_1, # of connection points: 4
#     Node 1, Type 0, BuildingBlock: QUQFOY_clean_sbu_1, # of connection points: 4
#     Node 2, Type 0, BuildingBlock: QUQFOY_clean_sbu_1, # of connection points: 4
#     Node 3, Type 0, BuildingBlock: QUQFOY_clean_sbu_1, # of connection points: 4
#     Node 4, Type 0, BuildingBlock: QUQFOY_clean_sbu_1, # of connection points: 4
#     Node 5, Type 0, BuildingBlock: QUQFOY_clean_sbu_1, # of connection points: 4
#     Node 6, Type 0, BuildingBlock: QUQFOY_clean_sbu_1, # of connection points: 4
#     Node 7, Type 0, BuildingBlock: QUQFOY_clean_sbu_1, # of connection points: 4
#     Node 8, Type 0, BuildingBlock: QUQFOY_clean_sbu_1, # of connection points: 4
#     Node 9, Type 0, BuildingBlock: QUQFOY_clean_sbu_1, # of connection points: 4
#     Node 10, Type 0, BuildingBlock: QUQFOY_clean_sbu_1, # of connection points: 4
#     Node 11, Type 0, BuildingBlock: QUQFOY_clean_sbu_1, # of connection points: 4
#     Node 12, Type 0, BuildingBlock: QUQFOY_clean_sbu_1, # of connection points: 4
#     Node 13, Type 0, BuildingBlock: QUQFOY_clean_sbu_1, # of connection points: 4
#     Node 14, Type 0, BuildingBlock: QUQFOY_clean_sbu_1, # of connection points: 4
#     Node 15, Type 0, BuildingBlock: QUQFOY_clean_sbu_1, # of connection points: 4
#     Node 16, Type 0, BuildingBlock: QUQFOY_clean_sbu_1, # of connection points: 4
#     Node 17, Type 0, BuildingBlock: QUQFOY_clean_sbu_1, # of connection points: 4
#     Node 18, Type 0, BuildingBlock: QUQFOY_clean_sbu_1, # of connection points: 4
#     Node 19, Type 0, BuildingBlock: QUQFOY_clean_sbu_1, # of connection points: 4
#     Node 20, Type 0, BuildingBlock: QUQFOY_clean_sbu_1, # of connection points: 4
#     Node 21, Type 0, BuildingBlock: QUQFOY_clean_sbu_1, # of connection points: 4
#     Node 22, Type 0, BuildingBlock: QUQFOY_clean_sbu_1, # of connection points: 4
#     Node 23, Type 0, BuildingBlock: QUQFOY_clean_sbu_1, # of connection points: 4
#     Node 24, Type 0, BuildingBlock: QUQFOY_clean_sbu_1, # of connection points: 4
#     Node 25, Type 0, BuildingBlock: QUQFOY_clean_sbu_1, # of connection points: 4
#     Node 26, Type 0, BuildingBlock: QUQFOY_clean_sbu_1, # of connection points: 4
#     Node 27, Type 0, BuildingBlock: QUQFOY_clean_sbu_1, # of connection points: 4
#     Node 28, Type 0, BuildingBlock: QUQFOY_clean_sbu_1, # of connection points: 4
#     Node 29, Type 0, BuildingBlock: QUQFOY_clean_sbu_1, # of connection points: 4
#     Node 30, Type 0, BuildingBlock: QUQFOY_clean_sbu_1, # of connection points: 4
#     Node 31, Type 0, BuildingBlock: QUQFOY_clean_sbu_1, # of connection points: 4
#     Node 32, Type 0, BuildingBlock: QUQFOY_clean_sbu_1, # of connection points: 4
#     Node 33, Type 0, BuildingBlock: QUQFOY_clean_sbu_1, # of connection points: 4
#     Node 34, Type 0, BuildingBlock: QUQFOY_clean_sbu_1, # of connection points: 4
#     Node 35, Type 0, BuildingBlock: QUQFOY_clean_sbu_1, # of connection points: 4
#     Node 36, Type 0, BuildingBlock: QUQFOY_clean_sbu_1, # of connection points: 4
#     Node 37, Type 0, BuildingBlock: QUQFOY_clean_sbu_1, # of connection points: 4
#     Node 38, Type 0, BuildingBlock: QUQFOY_clean_sbu_1, # of connection points: 4
#     Node 39, Type 0, BuildingBlock: QUQFOY_clean_sbu_1, # of connection points: 4
#     Node 40, Type 0, BuildingBlock: QUQFOY_clean_sbu_1, # of connection points: 4
#     Node 41, Type 0, BuildingBlock: QUQFOY_clean_sbu_1, # of connection points: 4
#     Node 42, Type 0, BuildingBlock: QUQFOY_clean_sbu_1, # of connection points: 4
#     Node 43, Type 0, BuildingBlock: QUQFOY_clean_sbu_1, # of connection points: 4
#     Node 44, Type 0, BuildingBlock: QUQFOY_clean_sbu_1, # of connection points: 4
#     Node 45, Type 0, BuildingBlock: QUQFOY_clean_sbu_1, # of connection points: 4
#     Node 46, Type 0, BuildingBlock: QUQFOY_clean_sbu_1, # of connection points: 4
#     Node 47, Type 0, BuildingBlock: QUQFOY_clean_sbu_1, # of connection points: 4
#     Node 48, Type 0, BuildingBlock: QUQFOY_clean_sbu_1, # of connection points: 4
#     Node 49, Type 0, BuildingBlock: QUQFOY_clean_sbu_1, # of connection points: 4
#     Node 50, Type 0, BuildingBlock: QUQFOY_clean_sbu_1, # of connection points: 4
#     Node 51, Type 0, BuildingBlock: QUQFOY_clean_sbu_1, # of connection points: 4
#     Node 52, Type 0, BuildingBlock: QUQFOY_clean_sbu_1, # of connection points: 4
#     Node 53, Type 0, BuildingBlock: QUQFOY_clean_sbu_1, # of connection points: 4
#     Node 54, Type 0, BuildingBlock: QUQFOY_clean_sbu_1, # of connection points: 4
#     Node 55, Type 0, BuildingBlock: QUQFOY_clean_sbu_1, # of connection points: 4
#     Node 56, Type 0, BuildingBlock: QUQFOY_clean_sbu_1, # of connection points: 4
#     Node 57, Type 0, BuildingBlock: QUQFOY_clean_sbu_1, # of connection points: 4
#     Node 58, Type 0, BuildingBlock: QUQFOY_clean_sbu_1, # of connection points: 4
#     Node 59, Type 0, BuildingBlock: QUQFOY_clean_sbu_1, # of connection points: 4
#     Node 60, Type 0, BuildingBlock: QUQFOY_clean_sbu_1, # of connection points: 4
#     Node 61, Type 0, BuildingBlock: QUQFOY_clean_sbu_1, # of connection points: 4
#     Node 62, Type 0, BuildingBlock: QUQFOY_clean_sbu_1, # of connection points: 4
#     Node 63, Type 0, BuildingBlock: QUQFOY_clean_sbu_1, # of connection points: 4
#     Node 64, Type 0, BuildingBlock: QUQFOY_clean_sbu_1, # of connection points: 4
#     Node 65, Type 0, BuildingBlock: QUQFOY_clean_sbu_1, # of connection points: 4
#     Node 66, Type 0, BuildingBlock: QUQFOY_clean_sbu_1, # of connection points: 4
#     Node 67, Type 0, BuildingBlock: QUQFOY_clean_sbu_1, # of connection points: 4
#     Node 68, Type 0, BuildingBlock: QUQFOY_clean_sbu_1, # of connection points: 4
#     Node 69, Type 0, BuildingBlock: QUQFOY_clean_sbu_1, # of connection points: 4
#     Node 70, Type 0, BuildingBlock: QUQFOY_clean_sbu_1, # of connection points: 4
#     Node 71, Type 0, BuildingBlock: QUQFOY_clean_sbu_1, # of connection points: 4
#     Node 72, Type 0, BuildingBlock: QUQFOY_clean_sbu_1, # of connection points: 4
#     Node 73, Type 0, BuildingBlock: QUQFOY_clean_sbu_1, # of connection points: 4
#     Node 74, Type 0, BuildingBlock: QUQFOY_clean_sbu_1, # of connection points: 4
#     Node 75, Type 0, BuildingBlock: QUQFOY_clean_sbu_1, # of connection points: 4
#     Node 76, Type 0, BuildingBlock: QUQFOY_clean_sbu_1, # of connection points: 4
#     Node 77, Type 0, BuildingBlock: QUQFOY_clean_sbu_1, # of connection points: 4
#     Node 78, Type 0, BuildingBlock: QUQFOY_clean_sbu_1, # of connection points: 4
#     Node 79, Type 0, BuildingBlock: QUQFOY_clean_sbu_1, # of connection points: 4
#     Node 80, Type 0, BuildingBlock: QUQFOY_clean_sbu_1, # of connection points: 4
#     Node 81, Type 0, BuildingBlock: QUQFOY_clean_sbu_1, # of connection points: 4
#     Node 82, Type 0, BuildingBlock: QUQFOY_clean_sbu_1, # of connection points: 4
#     Node 83, Type 0, BuildingBlock: QUQFOY_clean_sbu_1, # of connection points: 4
#     Node 84, Type 0, BuildingBlock: QUQFOY_clean_sbu_1, # of connection points: 4
#     Node 85, Type 0, BuildingBlock: QUQFOY_clean_sbu_1, # of connection points: 4
#     Node 86, Type 0, BuildingBlock: QUQFOY_clean_sbu_1, # of connection points: 4
#     Node 87, Type 0, BuildingBlock: QUQFOY_clean_sbu_1, # of connection points: 4
#     Node 88, Type 0, BuildingBlock: QUQFOY_clean_sbu_1, # of connection points: 4
#     Node 89, Type 0, BuildingBlock: QUQFOY_clean_sbu_1, # of connection points: 4
#     Node 90, Type 0, BuildingBlock: QUQFOY_clean_sbu_1, # of connection points: 4
#     Node 91, Type 0, BuildingBlock: QUQFOY_clean_sbu_1, # of connection points: 4
#     Node 92, Type 0, BuildingBlock: QUQFOY_clean_sbu_1, # of connection points: 4
#     Node 93, Type 0, BuildingBlock: QUQFOY_clean_sbu_1, # of connection points: 4
#     Node 94, Type 0, BuildingBlock: QUQFOY_clean_sbu_1, # of connection points: 4
#     Node 95, Type 0, BuildingBlock: QUQFOY_clean_sbu_1, # of connection points: 4
#     Edge 96, Type (0, 0), BuildingBlock: XIVTED_clean_linker_0, # of connection points: 2
#     Edge 97, Type (0, 0), BuildingBlock: XIVTED_clean_linker_0, # of connection points: 2
#     Edge 98, Type (0, 0), BuildingBlock: XIVTED_clean_linker_0, # of connection points: 2
#     Edge 99, Type (0, 0), BuildingBlock: XIVTED_clean_linker_0, # of connection points: 2
#     Edge 100, Type (0, 0), BuildingBlock: XIVTED_clean_linker_0, # of connection points: 2
#     Edge 101, Type (0, 0), BuildingBlock: XIVTED_clean_linker_0, # of connection points: 2
#     Edge 102, Type (0, 0), BuildingBlock: XIVTED_clean_linker_0, # of connection points: 2
#     Edge 103, Type (0, 0), BuildingBlock: XIVTED_clean_linker_0, # of connection points: 2
#     Edge 104, Type (0, 0), BuildingBlock: XIVTED_clean_linker_0, # of connection points: 2
#     Edge 105, Type (0, 0), BuildingBlock: XIVTED_clean_linker_0, # of connection points: 2
#     Edge 106, Type (0, 0), BuildingBlock: XIVTED_clean_linker_0, # of connection points: 2
#     Edge 107, Type (0, 0), BuildingBlock: XIVTED_clean_linker_0, # of connection points: 2
#     Edge 108, Type (0, 0), BuildingBlock: XIVTED_clean_linker_0, # of connection points: 2
#     Edge 109, Type (0, 0), BuildingBlock: XIVTED_clean_linker_0, # of connection points: 2
#     Edge 110, Type (0, 0), BuildingBlock: XIVTED_clean_linker_0, # of connection points: 2
#     Edge 111, Type (0, 0), BuildingBlock: XIVTED_clean_linker_0, # of connection points: 2
#     Edge 112, Type (0, 0), BuildingBlock: XIVTED_clean_linker_0, # of connection points: 2
#     Edge 113, Type (0, 0), BuildingBlock: XIVTED_clean_linker_0, # of connection points: 2
#     Edge 114, Type (0, 0), BuildingBlock: XIVTED_clean_linker_0, # of connection points: 2
#     Edge 115, Type (0, 0), BuildingBlock: XIVTED_clean_linker_0, # of connection points: 2
#     Edge 116, Type (0, 0), BuildingBlock: XIVTED_clean_linker_0, # of connection points: 2
#     Edge 117, Type (0, 0), BuildingBlock: XIVTED_clean_linker_0, # of connection points: 2
#     Edge 118, Type (0, 0), BuildingBlock: XIVTED_clean_linker_0, # of connection points: 2
#     Edge 119, Type (0, 0), BuildingBlock: XIVTED_clean_linker_0, # of connection points: 2
#     Edge 120, Type (0, 0), BuildingBlock: XIVTED_clean_linker_0, # of connection points: 2
#     Edge 121, Type (0, 0), BuildingBlock: XIVTED_clean_linker_0, # of connection points: 2
#     Edge 122, Type (0, 0), BuildingBlock: XIVTED_clean_linker_0, # of connection points: 2
#     Edge 123, Type (0, 0), BuildingBlock: XIVTED_clean_linker_0, # of connection points: 2
#     Edge 124, Type (0, 0), BuildingBlock: XIVTED_clean_linker_0, # of connection points: 2
#     Edge 125, Type (0, 0), BuildingBlock: XIVTED_clean_linker_0, # of connection points: 2
#     Edge 126, Type (0, 0), BuildingBlock: XIVTED_clean_linker_0, # of connection points: 2
#     Edge 127, Type (0, 0), BuildingBlock: XIVTED_clean_linker_0, # of connection points: 2
#     Edge 128, Type (0, 0), BuildingBlock: XIVTED_clean_linker_0, # of connection points: 2
#     Edge 129, Type (0, 0), BuildingBlock: XIVTED_clean_linker_0, # of connection points: 2
#     Edge 130, Type (0, 0), BuildingBlock: XIVTED_clean_linker_0, # of connection points: 2
#     Edge 131, Type (0, 0), BuildingBlock: XIVTED_clean_linker_0, # of connection points: 2
#     Edge 132, Type (0, 0), BuildingBlock: XIVTED_clean_linker_0, # of connection points: 2
#     Edge 133, Type (0, 0), BuildingBlock: XIVTED_clean_linker_0, # of connection points: 2
#     Edge 134, Type (0, 0), BuildingBlock: XIVTED_clean_linker_0, # of connection points: 2
#     Edge 135, Type (0, 0), BuildingBlock: XIVTED_clean_linker_0, # of connection points: 2
#     Edge 136, Type (0, 0), BuildingBlock: XIVTED_clean_linker_0, # of connection points: 2
#     Edge 137, Type (0, 0), BuildingBlock: XIVTED_clean_linker_0, # of connection points: 2
#     Edge 138, Type (0, 0), BuildingBlock: XIVTED_clean_linker_0, # of connection points: 2
#     Edge 139, Type (0, 0), BuildingBlock: XIVTED_clean_linker_0, # of connection points: 2
#     Edge 140, Type (0, 0), BuildingBlock: XIVTED_clean_linker_0, # of connection points: 2
#     Edge 141, Type (0, 0), BuildingBlock: XIVTED_clean_linker_0, # of connection points: 2
#     Edge 142, Type (0, 0), BuildingBlock: XIVTED_clean_linker_0, # of connection points: 2
#     Edge 143, Type (0, 0), BuildingBlock: XIVTED_clean_linker_0, # of connection points: 2
#     Edge 144, Type (0, 0), BuildingBlock: XIVTED_clean_linker_0, # of connection points: 2
#     Edge 145, Type (0, 0), BuildingBlock: XIVTED_clean_linker_0, # of connection points: 2
#     Edge 146, Type (0, 0), BuildingBlock: XIVTED_clean_linker_0, # of connection points: 2
#     Edge 147, Type (0, 0), BuildingBlock: XIVTED_clean_linker_0, # of connection points: 2
#     Edge 148, Type (0, 0), BuildingBlock: XIVTED_clean_linker_0, # of connection points: 2
#     Edge 149, Type (0, 0), BuildingBlock: XIVTED_clean_linker_0, # of connection points: 2
#     Edge 150, Type (0, 0), BuildingBlock: XIVTED_clean_linker_0, # of connection points: 2
#     Edge 151, Type (0, 0), BuildingBlock: XIVTED_clean_linker_0, # of connection points: 2
#     Edge 152, Type (0, 0), BuildingBlock: XIVTED_clean_linker_0, # of connection points: 2
#     Edge 153, Type (0, 0), BuildingBlock: XIVTED_clean_linker_0, # of connection points: 2
#     Edge 154, Type (0, 0), BuildingBlock: XIVTED_clean_linker_0, # of connection points: 2
#     Edge 155, Type (0, 0), BuildingBlock: XIVTED_clean_linker_0, # of connection points: 2
#     Edge 156, Type (0, 0), BuildingBlock: XIVTED_clean_linker_0, # of connection points: 2
#     Edge 157, Type (0, 0), BuildingBlock: XIVTED_clean_linker_0, # of connection points: 2
#     Edge 158, Type (0, 0), BuildingBlock: XIVTED_clean_linker_0, # of connection points: 2
#     Edge 159, Type (0, 0), BuildingBlock: XIVTED_clean_linker_0, # of connection points: 2
#     Edge 160, Type (0, 0), BuildingBlock: XIVTED_clean_linker_0, # of connection points: 2
#     Edge 161, Type (0, 0), BuildingBlock: XIVTED_clean_linker_0, # of connection points: 2
#     Edge 162, Type (0, 0), BuildingBlock: XIVTED_clean_linker_0, # of connection points: 2
#     Edge 163, Type (0, 0), BuildingBlock: XIVTED_clean_linker_0, # of connection points: 2
#     Edge 164, Type (0, 0), BuildingBlock: XIVTED_clean_linker_0, # of connection points: 2
#     Edge 165, Type (0, 0), BuildingBlock: XIVTED_clean_linker_0, # of connection points: 2
#     Edge 166, Type (0, 0), BuildingBlock: XIVTED_clean_linker_0, # of connection points: 2
#     Edge 167, Type (0, 0), BuildingBlock: XIVTED_clean_linker_0, # of connection points: 2
#     Edge 168, Type (0, 0), BuildingBlock: XIVTED_clean_linker_0, # of connection points: 2
#     Edge 169, Type (0, 0), BuildingBlock: XIVTED_clean_linker_0, # of connection points: 2
#     Edge 170, Type (0, 0), BuildingBlock: XIVTED_clean_linker_0, # of connection points: 2
#     Edge 171, Type (0, 0), BuildingBlock: XIVTED_clean_linker_0, # of connection points: 2
#     Edge 172, Type (0, 0), BuildingBlock: XIVTED_clean_linker_0, # of connection points: 2
#     Edge 173, Type (0, 0), BuildingBlock: XIVTED_clean_linker_0, # of connection points: 2
#     Edge 174, Type (0, 0), BuildingBlock: XIVTED_clean_linker_0, # of connection points: 2
#     Edge 175, Type (0, 0), BuildingBlock: XIVTED_clean_linker_0, # of connection points: 2
#     Edge 176, Type (0, 0), BuildingBlock: XIVTED_clean_linker_0, # of connection points: 2
#     Edge 177, Type (0, 0), BuildingBlock: XIVTED_clean_linker_0, # of connection points: 2
#     Edge 178, Type (0, 0), BuildingBlock: XIVTED_clean_linker_0, # of connection points: 2
#     Edge 179, Type (0, 0), BuildingBlock: XIVTED_clean_linker_0, # of connection points: 2
#     Edge 180, Type (0, 0), BuildingBlock: XIVTED_clean_linker_0, # of connection points: 2
#     Edge 181, Type (0, 0), BuildingBlock: XIVTED_clean_linker_0, # of connection points: 2
#     Edge 182, Type (0, 0), BuildingBlock: XIVTED_clean_linker_0, # of connection points: 2
#     Edge 183, Type (0, 0), BuildingBlock: XIVTED_clean_linker_0, # of connection points: 2
#     Edge 184, Type (0, 0), BuildingBlock: XIVTED_clean_linker_0, # of connection points: 2
#     Edge 185, Type (0, 0), BuildingBlock: XIVTED_clean_linker_0, # of connection points: 2
#     Edge 186, Type (0, 0), BuildingBlock: XIVTED_clean_linker_0, # of connection points: 2
#     Edge 187, Type (0, 0), BuildingBlock: XIVTED_clean_linker_0, # of connection points: 2
#     Edge 188, Type (0, 0), BuildingBlock: XIVTED_clean_linker_0, # of connection points: 2
#     Edge 189, Type (0, 0), BuildingBlock: XIVTED_clean_linker_0, # of connection points: 2
#     Edge 190, Type (0, 0), BuildingBlock: XIVTED_clean_linker_0, # of connection points: 2
#     Edge 191, Type (0, 0), BuildingBlock: XIVTED_clean_linker_0, # of connection points: 2
#     Edge 192, Type (0, 0), BuildingBlock: XIVTED_clean_linker_0, # of connection points: 2
#     Edge 193, Type (0, 0), BuildingBlock: XIVTED_clean_linker_0, # of connection points: 2
#     Edge 194, Type (0, 0), BuildingBlock: XIVTED_clean_linker_0, # of connection points: 2
#     Edge 195, Type (0, 0), BuildingBlock: XIVTED_clean_linker_0, # of connection points: 2
#     Edge 196, Type (0, 0), BuildingBlock: XIVTED_clean_linker_0, # of connection points: 2
#     Edge 197, Type (0, 0), BuildingBlock: XIVTED_clean_linker_0, # of connection points: 2
#     Edge 198, Type (0, 0), BuildingBlock: XIVTED_clean_linker_0, # of connection points: 2
#     Edge 199, Type (0, 0), BuildingBlock: XIVTED_clean_linker_0, # of connection points: 2
#     Edge 200, Type (0, 0), BuildingBlock: XIVTED_clean_linker_0, # of connection points: 2
#     Edge 201, Type (0, 0), BuildingBlock: XIVTED_clean_linker_0, # of connection points: 2
#     Edge 202, Type (0, 0), BuildingBlock: XIVTED_clean_linker_0, # of connection points: 2
#     Edge 203, Type (0, 0), BuildingBlock: XIVTED_clean_linker_0, # of connection points: 2
#     Edge 204, Type (0, 0), BuildingBlock: XIVTED_clean_linker_0, # of connection points: 2
#     Edge 205, Type (0, 0), BuildingBlock: XIVTED_clean_linker_0, # of connection points: 2
#     Edge 206, Type (0, 0), BuildingBlock: XIVTED_clean_linker_0, # of connection points: 2
#     Edge 207, Type (0, 0), BuildingBlock: XIVTED_clean_linker_0, # of connection points: 2
#     Edge 208, Type (0, 0), BuildingBlock: XIVTED_clean_linker_0, # of connection points: 2
#     Edge 209, Type (0, 0), BuildingBlock: XIVTED_clean_linker_0, # of connection points: 2
#     Edge 210, Type (0, 0), BuildingBlock: XIVTED_clean_linker_0, # of connection points: 2
#     Edge 211, Type (0, 0), BuildingBlock: XIVTED_clean_linker_0, # of connection points: 2
#     Edge 212, Type (0, 0), BuildingBlock: XIVTED_clean_linker_0, # of connection points: 2
#     Edge 213, Type (0, 0), BuildingBlock: XIVTED_clean_linker_0, # of connection points: 2
#     Edge 214, Type (0, 0), BuildingBlock: XIVTED_clean_linker_0, # of connection points: 2
#     Edge 215, Type (0, 0), BuildingBlock: XIVTED_clean_linker_0, # of connection points: 2
#     Edge 216, Type (0, 0), BuildingBlock: XIVTED_clean_linker_0, # of connection points: 2
#     Edge 217, Type (0, 0), BuildingBlock: XIVTED_clean_linker_0, # of connection points: 2
#     Edge 218, Type (0, 0), BuildingBlock: XIVTED_clean_linker_0, # of connection points: 2
#     Edge 219, Type (0, 0), BuildingBlock: XIVTED_clean_linker_0, # of connection points: 2
#     Edge 220, Type (0, 0), BuildingBlock: XIVTED_clean_linker_0, # of connection points: 2
#     Edge 221, Type (0, 0), BuildingBlock: XIVTED_clean_linker_0, # of connection points: 2
#     Edge 222, Type (0, 0), BuildingBlock: XIVTED_clean_linker_0, # of connection points: 2
#     Edge 223, Type (0, 0), BuildingBlock: XIVTED_clean_linker_0, # of connection points: 2
#     Edge 224, Type (0, 0), BuildingBlock: XIVTED_clean_linker_0, # of connection points: 2
#     Edge 225, Type (0, 0), BuildingBlock: XIVTED_clean_linker_0, # of connection points: 2
#     Edge 226, Type (0, 0), BuildingBlock: XIVTED_clean_linker_0, # of connection points: 2
#     Edge 227, Type (0, 0), BuildingBlock: XIVTED_clean_linker_0, # of connection points: 2
#     Edge 228, Type (0, 0), BuildingBlock: XIVTED_clean_linker_0, # of connection points: 2
#     Edge 229, Type (0, 0), BuildingBlock: XIVTED_clean_linker_0, # of connection points: 2
#     Edge 230, Type (0, 0), BuildingBlock: XIVTED_clean_linker_0, # of connection points: 2
#     Edge 231, Type (0, 0), BuildingBlock: XIVTED_clean_linker_0, # of connection points: 2
#     Edge 232, Type (0, 0), BuildingBlock: XIVTED_clean_linker_0, # of connection points: 2
#     Edge 233, Type (0, 0), BuildingBlock: XIVTED_clean_linker_0, # of connection points: 2
#     Edge 234, Type (0, 0), BuildingBlock: XIVTED_clean_linker_0, # of connection points: 2
#     Edge 235, Type (0, 0), BuildingBlock: XIVTED_clean_linker_0, # of connection points: 2
#     Edge 236, Type (0, 0), BuildingBlock: XIVTED_clean_linker_0, # of connection points: 2
#     Edge 237, Type (0, 0), BuildingBlock: XIVTED_clean_linker_0, # of connection points: 2
#     Edge 238, Type (0, 0), BuildingBlock: XIVTED_clean_linker_0, # of connection points: 2
#     Edge 239, Type (0, 0), BuildingBlock: XIVTED_clean_linker_0, # of connection points: 2
#     Edge 240, Type (0, 0), BuildingBlock: XIVTED_clean_linker_0, # of connection points: 2
#     Edge 241, Type (0, 0), BuildingBlock: XIVTED_clean_linker_0, # of connection points: 2
#     Edge 242, Type (0, 0), BuildingBlock: XIVTED_clean_linker_0, # of connection points: 2
#     Edge 243, Type (0, 0), BuildingBlock: XIVTED_clean_linker_0, # of connection points: 2
#     Edge 244, Type (0, 0), BuildingBlock: XIVTED_clean_linker_0, # of connection points: 2
#     Edge 245, Type (0, 0), BuildingBlock: XIVTED_clean_linker_0, # of connection points: 2
#     Edge 246, Type (0, 0), BuildingBlock: XIVTED_clean_linker_0, # of connection points: 2
#     Edge 247, Type (0, 0), BuildingBlock: XIVTED_clean_linker_0, # of connection points: 2
#     Edge 248, Type (0, 0), BuildingBlock: XIVTED_clean_linker_0, # of connection points: 2
#     Edge 249, Type (0, 0), BuildingBlock: XIVTED_clean_linker_0, # of connection points: 2
#     Edge 250, Type (0, 0), BuildingBlock: XIVTED_clean_linker_0, # of connection points: 2
#     Edge 251, Type (0, 0), BuildingBlock: XIVTED_clean_linker_0, # of connection points: 2
#     Edge 252, Type (0, 0), BuildingBlock: XIVTED_clean_linker_0, # of connection points: 2
#     Edge 253, Type (0, 0), BuildingBlock: XIVTED_clean_linker_0, # of connection points: 2
#     Edge 254, Type (0, 0), BuildingBlock: XIVTED_clean_linker_0, # of connection points: 2
#     Edge 255, Type (0, 0), BuildingBlock: XIVTED_clean_linker_0, # of connection points: 2
#     Edge 256, Type (0, 0), BuildingBlock: XIVTED_clean_linker_0, # of connection points: 2
#     Edge 257, Type (0, 0), BuildingBlock: XIVTED_clean_linker_0, # of connection points: 2
#     Edge 258, Type (0, 0), BuildingBlock: XIVTED_clean_linker_0, # of connection points: 2
#     Edge 259, Type (0, 0), BuildingBlock: XIVTED_clean_linker_0, # of connection points: 2
#     Edge 260, Type (0, 0), BuildingBlock: XIVTED_clean_linker_0, # of connection points: 2
#     Edge 261, Type (0, 0), BuildingBlock: XIVTED_clean_linker_0, # of connection points: 2
#     Edge 262, Type (0, 0), BuildingBlock: XIVTED_clean_linker_0, # of connection points: 2
#     Edge 263, Type (0, 0), BuildingBlock: XIVTED_clean_linker_0, # of connection points: 2
#     Edge 264, Type (0, 0), BuildingBlock: XIVTED_clean_linker_0, # of connection points: 2
#     Edge 265, Type (0, 0), BuildingBlock: XIVTED_clean_linker_0, # of connection points: 2
#     Edge 266, Type (0, 0), BuildingBlock: XIVTED_clean_linker_0, # of connection points: 2
#     Edge 267, Type (0, 0), BuildingBlock: XIVTED_clean_linker_0, # of connection points: 2
#     Edge 268, Type (0, 0), BuildingBlock: XIVTED_clean_linker_0, # of connection points: 2
#     Edge 269, Type (0, 0), BuildingBlock: XIVTED_clean_linker_0, # of connection points: 2
#     Edge 270, Type (0, 0), BuildingBlock: XIVTED_clean_linker_0, # of connection points: 2
#     Edge 271, Type (0, 0), BuildingBlock: XIVTED_clean_linker_0, # of connection points: 2
#     Edge 272, Type (0, 0), BuildingBlock: XIVTED_clean_linker_0, # of connection points: 2
#     Edge 273, Type (0, 0), BuildingBlock: XIVTED_clean_linker_0, # of connection points: 2
#     Edge 274, Type (0, 0), BuildingBlock: XIVTED_clean_linker_0, # of connection points: 2
#     Edge 275, Type (0, 0), BuildingBlock: XIVTED_clean_linker_0, # of connection points: 2
#     Edge 276, Type (0, 0), BuildingBlock: XIVTED_clean_linker_0, # of connection points: 2
#     Edge 277, Type (0, 0), BuildingBlock: XIVTED_clean_linker_0, # of connection points: 2
#     Edge 278, Type (0, 0), BuildingBlock: XIVTED_clean_linker_0, # of connection points: 2
#     Edge 279, Type (0, 0), BuildingBlock: XIVTED_clean_linker_0, # of connection points: 2
#     Edge 280, Type (0, 0), BuildingBlock: XIVTED_clean_linker_0, # of connection points: 2
#     Edge 281, Type (0, 0), BuildingBlock: XIVTED_clean_linker_0, # of connection points: 2
#     Edge 282, Type (0, 0), BuildingBlock: XIVTED_clean_linker_0, # of connection points: 2
#     Edge 283, Type (0, 0), BuildingBlock: XIVTED_clean_linker_0, # of connection points: 2
#     Edge 284, Type (0, 0), BuildingBlock: XIVTED_clean_linker_0, # of connection points: 2
#     Edge 285, Type (0, 0), BuildingBlock: XIVTED_clean_linker_0, # of connection points: 2
#     Edge 286, Type (0, 0), BuildingBlock: XIVTED_clean_linker_0, # of connection points: 2
#     Edge 287, Type (0, 0), BuildingBlock: XIVTED_clean_linker_0, # of connection points: 2
# Relax obj value: 0.101
# Max RMSD: 0.143
# Mean RMSD: 0.143
data_MOF--net-kfi--node1-QUQFOY_clean_sbu_1--edge1-XIVTED_clean_linker_0
_symmetry_space_group_name_H-M    P1
_symmetry_Int_Tables_number       1
_symmetry_cell_setting            triclinic
loop_
_symmetry_equiv_pos_as_xyz
'x, y, z'
_cell_length_a     95.046847
_cell_length_b     95.030077
_cell_length_c     95.032001
_cell_angle_alpha  89.999095
_cell_angle_beta   89.996833
_cell_angle_gamma 90.003111
loop_
_atom_site_label
_atom_site_type_symbol
_atom_site_fract_x
_atom_site_fract_y
_atom_site_fract_z
_atom_type_partial_charge
O0 O 0.10603 0.21495 0.32527 0.0
Cd1 Cd 0.09644 0.20261 0.3102 0.0
Cd2 Cd 0.07247 0.2132 0.32359 0.0
O3 O 0.08727 0.22021 0.33786 0.0
O4 O 0.11271 0.19285 0.30144 0.0
O5 O 0.09604 0.18144 0.31289 0.0
C6 C 0.10776 0.18112 0.30603 0.0
C7 C 0.05092 0.20532 0.33247 0.0
C8 C 0.10049 0.22071 0.33599 0.0
C9 C 0.07781 0.22175 0.29344 0.0
O10 O 0.07091 0.22386 0.3047 0.0
O11 O 0.08779 0.21287 0.29319 0.0
O12 O 0.05468 0.21829 0.33328 0.0
O13 O 0.05957 0.19651 0.32681 0.0
O14 O 0.78571 0.10706 0.3254 0.0
Cd15 Cd 0.79793 0.09712 0.31042 0.0
Cd16 Cd 0.78735 0.07358 0.32415 0.0
O17 O 0.78067 0.08853 0.33841 0.0
O18 O 0.80793 0.11305 0.3013 0.0
O19 O 0.81908 0.09646 0.31315 0.0
C20 C 0.81958 0.108 0.30599 0.0
C21 C 0.79539 0.05197 0.33272 0.0
C22 C 0.78011 0.10172 0.3363 0.0
C23 C 0.77845 0.0785 0.29411 0.0
O24 O 0.77626 0.07193 0.30554 0.0
O25 O 0.78756 0.08826 0.29357 0.0
O26 O 0.78246 0.05579 0.33393 0.0
O27 O 0.80409 0.06068 0.32695 0.0
O28 O 0.89438 0.78378 0.32631 0.0
Cd29 Cd 0.90405 0.79651 0.31161 0.0
Cd30 Cd 0.92781 0.78563 0.32534 0.0
O31 O 0.91284 0.77841 0.3393 0.0
O32 O 0.88762 0.8058 0.30261 0.0
O33 O 0.9037 0.81768 0.31441 0.0
C34 C 0.89209 0.81766 0.30736 0.0
C35 C 0.94925 0.79364 0.33434 0.0
C36 C 0.89968 0.77787 0.33707 0.0
C37 C 0.92312 0.77766 0.29496 0.0
O38 O 0.92962 0.77516 0.30637 0.0
O39 O 0.91328 0.7867 0.29462 0.0
O40 O 0.94558 0.78064 0.33513 0.0
O41 O 0.94053 0.8024 0.32871 0.0
O42 O 0.21476 0.8934 0.32574 0.0
Cd43 Cd 0.20244 0.90346 0.31094 0.0
Cd44 Cd 0.2137 0.92694 0.32464 0.0
O45 O 0.22034 0.91181 0.33871 0.0
O46 O 0.19244 0.88749 0.30191 0.0
O47 O 0.18129 0.90402 0.3138 0.0
C48 C 0.1808 0.89246 0.3067 0.0
C49 C 0.20623 0.94861 0.33356 0.0
C50 C 0.22062 0.89862 0.33657 0.0
C51 C 0.22192 0.92194 0.29439 0.0
O52 O 0.22443 0.92844 0.3058 0.0
O53 O 0.21264 0.91233 0.29399 0.0
O54 O 0.21912 0.94457 0.33444 0.0
O55 O 0.19727 0.94013 0.32787 0.0
O56 O 0.10638 0.78495 0.67401 0.0
Cd57 Cd 0.09618 0.79729 0.68871 0.0
Cd58 Cd 0.07297 0.78691 0.67443 0.0
O59 O 0.08816 0.78011 0.66051 0.0
O60 O 0.11199 0.80716 0.69818 0.0
O61 O 0.0958 0.81845 0.68592 0.0
C62 C 0.10719 0.81885 0.69331 0.0
C63 C 0.05175 0.79544 0.66544 0.0
C64 C 0.10128 0.77942 0.66296 0.0
C65 C 0.07698 0.77799 0.70457 0.0
O66 O 0.07074 0.77576 0.69295 0.0
O67 O 0.08674 0.78708 0.70534 0.0
O68 O 0.05533 0.78244 0.6642 0.0
O69 O 0.06048 0.80392 0.67149 0.0
O70 O 0.21396 0.10715 0.67433 0.0
Cd71 Cd 0.2017 0.09737 0.68936 0.0
Cd72 Cd 0.21286 0.07363 0.67615 0.0
O73 O 0.21988 0.08847 0.66192 0.0
O74 O 0.19167 0.11346 0.69812 0.0
O75 O 0.18053 0.0966 0.68666 0.0
C76 C 0.18002 0.10829 0.69357 0.0
C77 C 0.2051 0.05196 0.66745 0.0
C78 C 0.22004 0.10171 0.66375 0.0
C79 C 0.22104 0.07913 0.70634 0.0
O80 O 0.22338 0.07224 0.69512 0.0
O81 O 0.21199 0.08896 0.70647 0.0
O82 O 0.21808 0.05575 0.66668 0.0
O83 O 0.19623 0.06069 0.67289 0.0
O84 O 0.89312 0.21508 0.67305 0.0
Cd85 Cd 0.90286 0.20269 0.68802 0.0
Cd86 Cd 0.92658 0.21368 0.67472 0.0
O87 O 0.91178 0.22052 0.6604 0.0
O88 O 0.88673 0.19278 0.69689 0.0
O89 O 0.90335 0.18152 0.6852 0.0
C90 C 0.89173 0.1811 0.69222 0.0
C91 C 0.94828 0.20581 0.66623 0.0
C92 C 0.89857 0.22092 0.66233 0.0
C93 C 0.92126 0.22201 0.70486 0.0
O94 O 0.92795 0.22445 0.69355 0.0
O95 O 0.91155 0.21283 0.70511 0.0
O96 O 0.94448 0.21877 0.66524 0.0
O97 O 0.93953 0.19701 0.67176 0.0
O98 O 0.78591 0.89182 0.6748 0.0
Cd99 Cd 0.79823 0.90143 0.68986 0.0
Cd100 Cd 0.78741 0.92549 0.67653 0.0
O101 O 0.78033 0.9106 0.66238 0.0
O102 O 0.80823 0.88525 0.69852 0.0
O103 O 0.81938 0.90212 0.68709 0.0
C104 C 0.81988 0.89038 0.69391 0.0
C105 C 0.79463 0.94724 0.6675 0.0
C106 C 0.77997 0.89736 0.66419 0.0
C107 C 0.77913 0.91995 0.70678 0.0
O108 O 0.77703 0.92694 0.69557 0.0
O109 O 0.78795 0.90992 0.70694 0.0
O110 O 0.78173 0.94318 0.66696 0.0
O111 O 0.80374 0.93877 0.67295 0.0
O112 O 0.32676 0.10598 0.21446 0.0
Cd113 Cd 0.31197 0.09604 0.20204 0.0
Cd114 Cd 0.32589 0.07251 0.21284 0.0
O115 O 0.33989 0.0876 0.21974 0.0
O116 O 0.30267 0.11212 0.19246 0.0
O117 O 0.31462 0.09593 0.18085 0.0
C118 C 0.30736 0.10742 0.18067 0.0
C119 C 0.33475 0.05102 0.20481 0.0
C120 C 0.33763 0.10076 0.22024 0.0
C121 C 0.29568 0.07712 0.22132 0.0
O122 O 0.30715 0.07068 0.22367 0.0
O123 O 0.29515 0.08688 0.21221 0.0
O124 O 0.33576 0.05478 0.21777 0.0
O125 O 0.32902 0.05971 0.19608 0.0
O126 O 0.89251 0.32627 0.21459 0.0
Cd127 Cd 0.90276 0.3116 0.20225 0.0
Cd128 Cd 0.92591 0.32583 0.21252 0.0
O129 O 0.91076 0.33974 0.2194 0.0
O130 O 0.88704 0.30212 0.19227 0.0
O131 O 0.90329 0.31444 0.18112 0.0
C132 C 0.89193 0.307 0.18062 0.0
C133 C 0.94704 0.33493 0.20389 0.0
C134 C 0.89764 0.33731 0.22012 0.0
C135 C 0.92197 0.29573 0.22152 0.0
O136 O 0.92825 0.30733 0.22369 0.0
O137 O 0.91217 0.29496 0.21248 0.0
O138 O 0.94352 0.33613 0.2169 0.0
O139 O 0.93831 0.32883 0.19545 0.0
O140 O 0.67335 0.89377 0.2138 0.0
Cd141 Cd 0.68797 0.90368 0.20114 0.0
Cd142 Cd 0.67425 0.92732 0.2122 0.0
O143 O 0.66037 0.9122 0.21931 0.0
O144 O 0.69707 0.88762 0.19132 0.0
O145 O 0.68494 0.90386 0.17999 0.0
C146 C 0.69218 0.89238 0.17963 0.0
C147 C 0.66524 0.94896 0.20472 0.0
C148 C 0.6626 0.89903 0.21976 0.0
C149 C 0.70465 0.92259 0.2201 0.0
O150 O 0.69324 0.92909 0.2226 0.0
O151 O 0.70499 0.91278 0.21103 0.0
O152 O 0.66455 0.945 0.21764 0.0
O153 O 0.6707 0.94038 0.19572 0.0
O154 O 0.10513 0.67328 0.21406 0.0
Cd155 Cd 0.09512 0.68811 0.20173 0.0
Cd156 Cd 0.07165 0.67424 0.21259 0.0
O157 O 0.08673 0.66017 0.21933 0.0
O158 O 0.11114 0.69725 0.19188 0.0
O159 O 0.09468 0.6854 0.18056 0.0
C160 C 0.10624 0.69254 0.18018 0.0
C161 C 0.05013 0.66534 0.20466 0.0
C162 C 0.0999 0.6624 0.21981 0.0
C163 C 0.07644 0.7044 0.22122 0.0
O164 O 0.06994 0.69295 0.22353 0.0
O165 O 0.08613 0.70493 0.21203 0.0
O166 O 0.05397 0.6643 0.2176 0.0
O167 O 0.05873 0.67118 0.19591 0.0
O168 O 0.32482 0.89244 0.7849 0.0
Cd169 Cd 0.31043 0.90258 0.79764 0.0
Cd170 Cd 0.3247 0.92584 0.78711 0.0
O171 O 0.3384 0.91059 0.77998 0.0
O172 O 0.30113 0.88663 0.80744 0.0
O173 O 0.31359 0.90264 0.81874 0.0
C174 C 0.30621 0.89124 0.8191 0.0
C175 C 0.3341 0.94708 0.79519 0.0
C176 C 0.33581 0.8975 0.77922 0.0
C177 C 0.29434 0.92196 0.77876 0.0
O178 O 0.30594 0.92816 0.77638 0.0
O179 O 0.29365 0.91215 0.78781 0.0
O180 O 0.33492 0.94337 0.7822 0.0
O181 O 0.32823 0.93848 0.80392 0.0
O182 O 0.10549 0.32712 0.78661 0.0
Cd183 Cd 0.09556 0.31232 0.79905 0.0
Cd184 Cd 0.07206 0.32602 0.78782 0.0
O185 O 0.0871 0.34012 0.78103 0.0
O186 O 0.1117 0.30326 0.80878 0.0
O187 O 0.09532 0.31508 0.82023 0.0
C188 C 0.1069 0.30798 0.82052 0.0
C189 C 0.05036 0.33473 0.79547 0.0
C190 C 0.10028 0.33792 0.78069 0.0
C191 C 0.07702 0.29576 0.77965 0.0
O192 O 0.07057 0.30719 0.7771 0.0
O193 O 0.08662 0.29535 0.78893 0.0
O194 O 0.0543 0.33567 0.78255 0.0
O195 O 0.05899 0.32916 0.80437 0.0
O196 O 0.6741 0.10776 0.78435 0.0
Cd197 Cd 0.68885 0.09782 0.79682 0.0
Cd198 Cd 0.67484 0.07424 0.78641 0.0
O199 O 0.66091 0.08933 0.7794 0.0
O200 O 0.69795 0.11381 0.80674 0.0
O201 O 0.68597 0.09737 0.81795 0.0
C202 C 0.69314 0.1089 0.8184 0.0
C203 C 0.66568 0.05278 0.7942 0.0
C204 C 0.66319 0.10248 0.77871 0.0
C205 C 0.70509 0.0787 0.77778 0.0
O206 O 0.6936 0.07222 0.77563 0.0
O207 O 0.70567 0.08863 0.78671 0.0
O208 O 0.66486 0.05664 0.78125 0.0
O209 O 0.67141 0.06134 0.80305 0.0
O210 O 0.89466 0.67326 0.78505 0.0
Cd211 Cd 0.90465 0.688 0.79754 0.0
Cd212 Cd 0.928 0.6741 0.78726 0.0
O213 O 0.91307 0.65996 0.78036 0.0
O214 O 0.88869 0.69717 0.80744 0.0
O215 O 0.90507 0.68511 0.81867 0.0
C216 C 0.89357 0.69233 0.8191 0.0
C217 C 0.94922 0.66537 0.79605 0.0
C218 C 0.89993 0.66227 0.77955 0.0
C219 C 0.92369 0.70418 0.77837 0.0
O220 O 0.93005 0.69264 0.7761 0.0
O221 O 0.91393 0.70481 0.78747 0.0
O222 O 0.9458 0.66408 0.78301 0.0
O223 O 0.94034 0.67135 0.80441 0.0
O224 O 0.21368 0.32547 0.1059 0.0
Cd225 Cd 0.20116 0.31094 0.09569 0.0
Cd226 Cd 0.21184 0.32506 0.07251 0.0
O227 O 0.21868 0.33896 0.08771 0.0
O228 O 0.1912 0.30164 0.11154 0.0
O229 O 0.18004 0.31398 0.09533 0.0
C230 C 0.17957 0.30664 0.10675 0.0
C231 C 0.20356 0.33413 0.05122 0.0
C232 C 0.21934 0.33647 0.10083 0.0
C233 C 0.22045 0.29484 0.0767 0.0
O234 O 0.22283 0.30642 0.07045 0.0
O235 O 0.21125 0.29416 0.08637 0.0
O236 O 0.21654 0.33526 0.05491 0.0
O237 O 0.19497 0.32812 0.05985 0.0
O238 O 0.21306 0.67424 0.89284 0.0
Cd239 Cd 0.20094 0.68916 0.90293 0.0
Cd240 Cd 0.21213 0.6757 0.92637 0.0
O241 O 0.21885 0.66151 0.91135 0.0
O242 O 0.19078 0.69823 0.88709 0.0
O243 O 0.17978 0.68644 0.90382 0.0
C244 C 0.17918 0.69357 0.89227 0.0
C245 C 0.20427 0.66694 0.94796 0.0
C246 C 0.21902 0.6635 0.89814 0.0
C247 C 0.22061 0.70581 0.9211 0.0
O248 O 0.22297 0.69449 0.92782 0.0
O249 O 0.21139 0.70612 0.91143 0.0
O250 O 0.21721 0.66593 0.94412 0.0
O251 O 0.19549 0.67269 0.93934 0.0
O252 O 0.32601 0.21463 0.89397 0.0
Cd253 Cd 0.31138 0.20196 0.90386 0.0
Cd254 Cd 0.32517 0.21267 0.92734 0.0
O255 O 0.33928 0.21953 0.91234 0.0
O256 O 0.30241 0.19219 0.88771 0.0
O257 O 0.31445 0.18083 0.904 0.0
C258 C 0.30735 0.1805 0.89242 0.0
C259 C 0.33403 0.20462 0.94882 0.0
C260 C 0.33695 0.22025 0.89921 0.0
C261 C 0.29494 0.22106 0.92273 0.0
O262 O 0.30643 0.22355 0.92909 0.0
O263 O 0.29443 0.21185 0.91306 0.0
O264 O 0.33507 0.21758 0.94506 0.0
O265 O 0.32822 0.19591 0.94016 0.0
O266 O 0.78519 0.32692 0.89537 0.0
Cd267 Cd 0.79779 0.31228 0.90533 0.0
Cd268 Cd 0.78731 0.3262 0.9287 0.0
O269 O 0.78034 0.34025 0.91371 0.0
O270 O 0.80751 0.3031 0.88927 0.0
O271 O 0.81893 0.31521 0.90547 0.0
C272 C 0.81923 0.30798 0.89397 0.0
C273 C 0.7959 0.33501 0.94998 0.0
C274 C 0.77958 0.33788 0.90058 0.0
C275 C 0.77866 0.29603 0.92436 0.0
O276 O 0.77631 0.30756 0.93071 0.0
O277 O 0.78779 0.29544 0.91462 0.0
O278 O 0.78287 0.33618 0.94648 0.0
O279 O 0.80437 0.32912 0.94114 0.0
O280 O 0.67545 0.78486 0.89387 0.0
Cd281 Cd 0.68973 0.79755 0.90423 0.0
Cd282 Cd 0.67578 0.7863 0.92719 0.0
O283 O 0.66197 0.77942 0.91194 0.0
O284 O 0.69881 0.80773 0.8884 0.0
O285 O 0.68631 0.81862 0.90466 0.0
C286 C 0.69358 0.81925 0.8932 0.0
C287 C 0.66668 0.79438 0.94855 0.0
C288 C 0.66452 0.77898 0.89883 0.0
C289 C 0.70617 0.77835 0.92298 0.0
O290 O 0.69461 0.77561 0.92911 0.0
O291 O 0.70671 0.78775 0.91349 0.0
O292 O 0.66577 0.78138 0.94485 0.0
O293 O 0.67247 0.80309 0.93988 0.0
O294 O 0.78427 0.67307 0.10551 0.0
Cd295 Cd 0.79675 0.68776 0.09548 0.0
Cd296 Cd 0.78629 0.67383 0.07212 0.0
O297 O 0.77935 0.65978 0.08715 0.0
O298 O 0.80661 0.69694 0.11146 0.0
O299 O 0.81789 0.68485 0.09514 0.0
C300 C 0.81829 0.69207 0.10664 0.0
C301 C 0.79496 0.66494 0.0509 0.0
C302 C 0.77866 0.66211 0.10029 0.0
C303 C 0.77758 0.70398 0.07645 0.0
O304 O 0.77529 0.69246 0.07005 0.0
O305 O 0.78666 0.70457 0.08623 0.0
O306 O 0.78193 0.66374 0.05436 0.0
O307 O 0.80338 0.67093 0.05973 0.0
O308 O 0.32598 0.7847 0.10719 0.0
Cd309 Cd 0.31141 0.79698 0.09674 0.0
Cd310 Cd 0.32565 0.78618 0.07373 0.0
O311 O 0.33948 0.77954 0.08906 0.0
O312 O 0.30193 0.80712 0.11235 0.0
O313 O 0.31437 0.8181 0.09609 0.0
C314 C 0.30691 0.8187 0.10743 0.0
C315 C 0.33492 0.79437 0.05249 0.0
C316 C 0.33701 0.77906 0.10219 0.0
C317 C 0.29546 0.77751 0.07775 0.0
O318 O 0.30706 0.77512 0.07156 0.0
O319 O 0.29474 0.78673 0.0874 0.0
O320 O 0.33603 0.78141 0.05626 0.0
O321 O 0.32879 0.80299 0.06102 0.0
O322 O 0.67339 0.21531 0.1052 0.0
Cd323 Cd 0.68816 0.20293 0.09515 0.0
Cd324 Cd 0.67411 0.21347 0.07186 0.0
O325 O 0.65997 0.22013 0.08691 0.0
O326 O 0.6975 0.19323 0.11114 0.0
O327 O 0.68539 0.18176 0.09497 0.0
C328 C 0.69268 0.18149 0.10643 0.0
C329 C 0.66547 0.20494 0.05048 0.0
C330 C 0.66235 0.22081 0.10005 0.0
C331 C 0.7042 0.22235 0.07623 0.0
O332 O 0.69263 0.22469 0.06995 0.0
O333 O 0.70489 0.21312 0.08587 0.0
O334 O 0.66412 0.21792 0.05408 0.0
O335 O 0.67143 0.19647 0.05929 0.0
O336 O 0.89551 0.78412 0.67322 0.0
Cd337 Cd 0.90561 0.79646 0.68798 0.0
Cd338 Cd 0.92892 0.7858 0.67386 0.0
O339 O 0.91378 0.77904 0.65987 0.0
O340 O 0.88959 0.80587 0.69755 0.0
O341 O 0.90554 0.81767 0.68549 0.0
C342 C 0.89415 0.81773 0.69289 0.0
C343 C 0.9501 0.7945 0.66494 0.0
C344 C 0.90064 0.77848 0.66223 0.0
C345 C 0.92471 0.77708 0.70399 0.0
O346 O 0.931 0.7747 0.69244 0.0
O347 O 0.91502 0.78626 0.70463 0.0
O348 O 0.94661 0.78148 0.66366 0.0
O349 O 0.94132 0.80289 0.67103 0.0
O350 O 0.21378 0.89458 0.67381 0.0
Cd351 Cd 0.20132 0.90449 0.68861 0.0
Cd352 Cd 0.21254 0.92806 0.675 0.0
O353 O 0.21925 0.91303 0.66086 0.0
O354 O 0.19162 0.88834 0.69766 0.0
O355 O 0.18015 0.90469 0.68582 0.0
C356 C 0.17988 0.89312 0.69292 0.0
C357 C 0.20486 0.94973 0.66626 0.0
C358 C 0.21962 0.89985 0.663 0.0
C359 C 0.22066 0.92306 0.70525 0.0
O360 O 0.22327 0.92953 0.69384 0.0
O361 O 0.21136 0.91347 0.7056 0.0
O362 O 0.21778 0.94579 0.66528 0.0
O363 O 0.19599 0.94114 0.67192 0.0
O364 O 0.10549 0.21487 0.67454 0.0
Cd365 Cd 0.09526 0.20274 0.68938 0.0
Cd366 Cd 0.07198 0.21383 0.67539 0.0
O367 O 0.08721 0.22034 0.66135 0.0
O368 O 0.11112 0.1929 0.69879 0.0
O369 O 0.0948 0.18155 0.68678 0.0
C370 C 0.10624 0.18118 0.69409 0.0
C371 C 0.05046 0.20598 0.66645 0.0
C372 C 0.10038 0.22062 0.6636 0.0
C373 C 0.07663 0.2224 0.70556 0.0
O374 O 0.07024 0.22481 0.69407 0.0
O375 O 0.08624 0.21313 0.70613 0.0
O376 O 0.05438 0.21889 0.66535 0.0
O377 O 0.05899 0.19721 0.67236 0.0
O378 O 0.78526 0.10483 0.67183 0.0
Cd379 Cd 0.79777 0.09515 0.68673 0.0
Cd380 Cd 0.78632 0.07145 0.67358 0.0
O381 O 0.77948 0.08623 0.65922 0.0
O382 O 0.80737 0.11149 0.69556 0.0
O383 O 0.81897 0.09502 0.68401 0.0
C384 C 0.81916 0.10669 0.69097 0.0
C385 C 0.79411 0.04963 0.66534 0.0
C386 C 0.77923 0.09945 0.66118 0.0
C387 C 0.77842 0.07697 0.70379 0.0
O388 O 0.7757 0.07033 0.6925 0.0
O389 O 0.78777 0.08652 0.70392 0.0
O390 O 0.78117 0.05345 0.66433 0.0
O391 O 0.80296 0.05845 0.6707 0.0
O392 O 0.89411 0.21472 0.32625 0.0
Cd393 Cd 0.90441 0.20243 0.31156 0.0
Cd394 Cd 0.92742 0.21375 0.32539 0.0
O395 O 0.9123 0.22031 0.3395 0.0
O396 O 0.88856 0.19247 0.30228 0.0
O397 O 0.90493 0.18126 0.31435 0.0
C398 C 0.89347 0.18081 0.30707 0.0
C399 C 0.9489 0.2054 0.33391 0.0
C400 C 0.89915 0.22057 0.33717 0.0
C401 C 0.92284 0.22212 0.29523 0.0
O402 O 0.92907 0.22479 0.30675 0.0
O403 O 0.91344 0.21264 0.2947 0.0
O404 O 0.94524 0.21837 0.33523 0.0
O405 O 0.9401 0.19685 0.32807 0.0
O406 O 0.78443 0.89471 0.32527 0.0
Cd407 Cd 0.79728 0.90384 0.31032 0.0
Cd408 Cd 0.7867 0.92818 0.32351 0.0
O409 O 0.77939 0.91357 0.33781 0.0
O410 O 0.80631 0.8871 0.30163 0.0
O411 O 0.81845 0.90323 0.31309 0.0
C412 C 0.81824 0.8915 0.30625 0.0
C413 C 0.79457 0.94981 0.33221 0.0
C414 C 0.77865 0.90036 0.33592 0.0
C415 C 0.77869 0.92278 0.29323 0.0
O416 O 0.77628 0.92961 0.30448 0.0
O417 O 0.78759 0.91282 0.29314 0.0
O418 O 0.78157 0.94612 0.33292 0.0
O419 O 0.8034 0.94104 0.32678 0.0
O420 O 0.10636 0.78501 0.32646 0.0
Cd421 Cd 0.0964 0.79733 0.31157 0.0
Cd422 Cd 0.07286 0.7864 0.32531 0.0
O423 O 0.08788 0.7797 0.33945 0.0
O424 O 0.11242 0.80708 0.30234 0.0
O425 O 0.09607 0.81852 0.31423 0.0
C426 C 0.10757 0.81882 0.307 0.0
C427 C 0.05129 0.79435 0.33406 0.0
C428 C 0.10107 0.77927 0.33732 0.0
C429 C 0.07769 0.77794 0.29514 0.0
O430 O 0.07121 0.77551 0.30657 0.0
O431 O 0.08738 0.78713 0.2947 0.0
O432 O 0.05511 0.7814 0.33511 0.0
O433 O 0.05996 0.8031 0.32833 0.0
O434 O 0.21513 0.1061 0.32646 0.0
Cd435 Cd 0.20273 0.09622 0.31159 0.0
Cd436 Cd 0.21396 0.07262 0.32531 0.0
O437 O 0.22074 0.08767 0.3394 0.0
O438 O 0.19327 0.11241 0.30235 0.0
O439 O 0.18152 0.09621 0.31412 0.0
C440 C 0.18143 0.10773 0.30693 0.0
C441 C 0.20622 0.05095 0.334 0.0
C442 C 0.22104 0.10086 0.33725 0.0
C443 C 0.22209 0.07755 0.29505 0.0
O444 O 0.22467 0.07109 0.30646 0.0
O445 O 0.21284 0.08718 0.29467 0.0
O446 O 0.21916 0.05484 0.33496 0.0
O447 O 0.19737 0.05962 0.32843 0.0
O448 O 0.66832 0.89543 0.78681 0.0
Cd449 Cd 0.68496 0.90389 0.79804 0.0
Cd450 Cd 0.6739 0.92904 0.78573 0.0
O451 O 0.65998 0.91487 0.77713 0.0
O452 O 0.69309 0.8869 0.8071 0.0
O453 O 0.68386 0.90429 0.8194 0.0
C454 C 0.68991 0.89213 0.81916 0.0
C455 C 0.66511 0.95075 0.79318 0.0
C456 C 0.65955 0.90163 0.77884 0.0
C457 C 0.70374 0.92145 0.77881 0.0
O458 O 0.69354 0.92984 0.77682 0.0
O459 O 0.70241 0.91095 0.78699 0.0
O460 O 0.66536 0.94724 0.78011 0.0
O461 O 0.66967 0.94177 0.8023 0.0
O462 O 0.10519 0.67353 0.78535 0.0
Cd463 Cd 0.09481 0.68808 0.79771 0.0
Cd464 Cd 0.07184 0.67425 0.78672 0.0
O465 O 0.08697 0.66028 0.7799 0.0
O466 O 0.11052 0.6974 0.80783 0.0
O467 O 0.09415 0.68514 0.81884 0.0
C468 C 0.10555 0.6925 0.81943 0.0
C469 C 0.05073 0.66532 0.79552 0.0
C470 C 0.10011 0.66262 0.77951 0.0
C471 C 0.07611 0.7044 0.77826 0.0
O472 O 0.06983 0.69288 0.77569 0.0
O473 O 0.08567 0.70492 0.78758 0.0
O474 O 0.05413 0.66407 0.78247 0.0
O475 O 0.05955 0.67142 0.80388 0.0
O476 O 0.33144 0.10388 0.78607 0.0
Cd477 Cd 0.31484 0.09543 0.79736 0.0
Cd478 Cd 0.32627 0.07023 0.78575 0.0
O479 O 0.34013 0.08433 0.77696 0.0
O480 O 0.30658 0.11245 0.80627 0.0
O481 O 0.31597 0.09524 0.81871 0.0
C482 C 0.30986 0.10737 0.81837 0.0
C483 C 0.33516 0.04877 0.7938 0.0
C484 C 0.34037 0.09761 0.77835 0.0
C485 C 0.29644 0.07734 0.77832 0.0
O486 O 0.30675 0.06903 0.77662 0.0
O487 O 0.29755 0.08801 0.78631 0.0
O488 O 0.33507 0.052 0.78065 0.0
O489 O 0.33039 0.0579 0.80266 0.0
O490 O 0.89294 0.32702 0.78569 0.0
Cd491 Cd 0.90291 0.31217 0.79801 0.0
Cd492 Cd 0.92645 0.32599 0.78709 0.0
O493 O 0.91136 0.34008 0.78038 0.0
O494 O 0.88692 0.30298 0.80785 0.0
O495 O 0.90333 0.31487 0.81919 0.0
C496 C 0.89181 0.30768 0.81956 0.0
C497 C 0.94806 0.33485 0.79484 0.0
C498 C 0.89819 0.33789 0.77993 0.0
C499 C 0.92158 0.2958 0.77856 0.0
O500 O 0.9281 0.30724 0.77622 0.0
O501 O 0.91187 0.29531 0.78773 0.0
O502 O 0.94413 0.33586 0.78192 0.0
O503 O 0.93949 0.32909 0.80367 0.0
O504 O 0.67239 0.10661 0.21425 0.0
Cd505 Cd 0.68726 0.0969 0.20172 0.0
Cd506 Cd 0.67395 0.07305 0.21297 0.0
O507 O 0.6598 0.08796 0.21993 0.0
O508 O 0.6961 0.11315 0.19197 0.0
O509 O 0.68449 0.09661 0.18054 0.0
C510 C 0.69147 0.10826 0.18023 0.0
C511 C 0.66512 0.05131 0.20553 0.0
C512 C 0.66175 0.10118 0.22025 0.0
C513 C 0.70423 0.07841 0.22088 0.0
O514 O 0.69295 0.07169 0.22343 0.0
O515 O 0.70438 0.08815 0.21174 0.0
O516 O 0.66442 0.05528 0.21845 0.0
O517 O 0.67059 0.05989 0.19652 0.0
O518 O 0.89317 0.67374 0.21431 0.0
Cd519 Cd 0.90312 0.68835 0.20166 0.0
Cd520 Cd 0.92661 0.67451 0.2125 0.0
O521 O 0.91154 0.66058 0.21956 0.0
O522 O 0.88705 0.69755 0.19194 0.0
O523 O 0.9032 0.68538 0.18051 0.0
C524 C 0.89174 0.69266 0.18022 0.0
C525 C 0.94807 0.66558 0.20446 0.0
C526 C 0.89839 0.66289 0.22014 0.0
C527 C 0.92213 0.70483 0.22066 0.0
O528 O 0.9285 0.69334 0.22317 0.0
O529 O 0.91238 0.70528 0.21153 0.0
O530 O 0.94435 0.66467 0.21745 0.0
O531 O 0.93935 0.67125 0.19572 0.0
O532 O 0.32749 0.89379 0.21427 0.0
Cd533 Cd 0.31263 0.90368 0.20187 0.0
Cd534 Cd 0.32631 0.92732 0.2127 0.0
O535 O 0.34042 0.91231 0.21955 0.0
O536 O 0.30357 0.88761 0.19204 0.0
O537 O 0.31536 0.90409 0.1807 0.0
C538 C 0.30824 0.89253 0.18033 0.0
C539 C 0.33517 0.94889 0.20485 0.0
C540 C 0.33831 0.89912 0.22004 0.0
C541 C 0.29612 0.92239 0.22115 0.0
O542 O 0.30751 0.92898 0.22349 0.0
O543 O 0.29572 0.91261 0.21206 0.0
O544 O 0.33613 0.94503 0.21779 0.0
O545 O 0.32944 0.94027 0.19605 0.0
O546 O 0.10335 0.33143 0.21244 0.0
Cd547 Cd 0.09457 0.3149 0.20131 0.0
Cd548 Cd 0.06983 0.32639 0.21328 0.0
O549 O 0.08403 0.34029 0.22184 0.0
O550 O 0.11136 0.30661 0.19202 0.0
O551 O 0.09394 0.3161 0.17997 0.0
C552 C 0.10605 0.30996 0.18004 0.0
C553 C 0.04851 0.33526 0.20493 0.0
C554 C 0.09729 0.34044 0.22024 0.0
C555 C 0.07681 0.29658 0.22073 0.0
O556 O 0.06862 0.30696 0.22263 0.0
O557 O 0.08728 0.29761 0.21247 0.0
O558 O 0.05162 0.33536 0.21811 0.0
O559 O 0.05768 0.33029 0.19622 0.0
O560 O 0.78661 0.67373 0.89422 0.0
Cd561 Cd 0.79901 0.68852 0.90421 0.0
Cd562 Cd 0.78846 0.67448 0.92767 0.0
O563 O 0.78171 0.66042 0.91258 0.0
O564 O 0.80868 0.69785 0.8882 0.0
O565 O 0.82018 0.68578 0.90437 0.0
C566 C 0.82043 0.69307 0.89291 0.0
C567 C 0.7966 0.66559 0.94911 0.0
C568 C 0.78105 0.66275 0.89943 0.0
C569 C 0.77974 0.70465 0.92323 0.0
O570 O 0.77744 0.69312 0.9296 0.0
O571 O 0.78886 0.70528 0.91348 0.0
O572 O 0.78365 0.66447 0.94535 0.0
O573 O 0.80526 0.67147 0.94045 0.0
O574 O 0.7852 0.32646 0.10614 0.0
Cd575 Cd 0.79755 0.31188 0.09578 0.0
Cd576 Cd 0.78672 0.32597 0.07277 0.0
O577 O 0.78 0.33991 0.08798 0.0
O578 O 0.80754 0.30249 0.11155 0.0
O579 O 0.81869 0.31478 0.09529 0.0
C580 C 0.81918 0.30741 0.10669 0.0
C581 C 0.79537 0.33498 0.05162 0.0
C582 C 0.77951 0.33746 0.10111 0.0
C583 C 0.77811 0.2958 0.07689 0.0
O584 O 0.77562 0.30739 0.07069 0.0
O585 O 0.7874 0.29514 0.08647 0.0
O586 O 0.78236 0.33623 0.05513 0.0
O587 O 0.80378 0.32885 0.06036 0.0
O588 O 0.67313 0.78458 0.10534 0.0
Cd589 Cd 0.68769 0.79715 0.09521 0.0
Cd590 Cd 0.67393 0.78616 0.07194 0.0
O591 O 0.65989 0.77937 0.08703 0.0
O592 O 0.69676 0.80723 0.11112 0.0
O593 O 0.68456 0.81827 0.09473 0.0
C594 C 0.69179 0.81882 0.10622 0.0
C595 C 0.66509 0.79427 0.05048 0.0
C596 C 0.66223 0.77882 0.10017 0.0
C597 C 0.70416 0.77788 0.07651 0.0
O598 O 0.69267 0.7753 0.07018 0.0
O599 O 0.70464 0.78718 0.08609 0.0
O600 O 0.664 0.7813 0.05422 0.0
O601 O 0.67092 0.80295 0.05916 0.0
O602 O 0.21324 0.67348 0.10524 0.0
Cd603 Cd 0.20103 0.68847 0.09529 0.0
Cd604 Cd 0.21202 0.67469 0.07185 0.0
O605 O 0.21846 0.66036 0.08683 0.0
O606 O 0.19139 0.69771 0.11138 0.0
O607 O 0.17983 0.68596 0.09503 0.0
C608 C 0.17961 0.69312 0.10657 0.0
C609 C 0.20396 0.6663 0.05018 0.0
C610 C 0.21888 0.66254 0.10001 0.0
C611 C 0.22078 0.70473 0.07684 0.0
O612 O 0.22321 0.69326 0.07042 0.0
O613 O 0.2114 0.70529 0.08635 0.0
O614 O 0.21687 0.66497 0.05401 0.0
O615 O 0.19529 0.67208 0.0589 0.0
O616 O 0.32602 0.215 0.10568 0.0
Cd617 Cd 0.3112 0.20248 0.09588 0.0
Cd618 Cd 0.32469 0.21328 0.07225 0.0
O619 O 0.33891 0.22021 0.08711 0.0
O620 O 0.30231 0.19263 0.11203 0.0
O621 O 0.31414 0.18134 0.09554 0.0
C622 C 0.3071 0.18095 0.10715 0.0
C623 C 0.33337 0.20504 0.05078 0.0
C624 C 0.33683 0.22075 0.1003 0.0
C625 C 0.29449 0.22157 0.07716 0.0
O626 O 0.30588 0.22405 0.07061 0.0
O627 O 0.29417 0.21244 0.08692 0.0
O628 O 0.33437 0.21805 0.05438 0.0
O629 O 0.32771 0.19639 0.0596 0.0
O630 O 0.21487 0.32642 0.89469 0.0
Cd631 Cd 0.20247 0.31158 0.90461 0.0
Cd632 Cd 0.21302 0.32532 0.92809 0.0
O633 O 0.2199 0.3395 0.91317 0.0
O634 O 0.19266 0.30242 0.88859 0.0
O635 O 0.18132 0.31437 0.90496 0.0
C636 C 0.18096 0.30718 0.89344 0.0
C637 C 0.20439 0.33398 0.94942 0.0
C638 C 0.22052 0.33732 0.9 0.0
C639 C 0.22173 0.29521 0.92346 0.0
O640 O 0.22403 0.30667 0.92996 0.0
O641 O 0.21263 0.29472 0.91368 0.0
O642 O 0.21743 0.33518 0.94596 0.0
O643 O 0.19595 0.32813 0.94053 0.0
O644 O 0.67432 0.21555 0.89395 0.0
Cd645 Cd 0.68903 0.20309 0.90399 0.0
Cd646 Cd 0.67498 0.21369 0.9274 0.0
O647 O 0.66097 0.22046 0.91227 0.0
O648 O 0.69846 0.19354 0.88796 0.0
O649 O 0.68629 0.18192 0.90398 0.0
C650 C 0.69364 0.18175 0.89256 0.0
C651 C 0.66598 0.20526 0.94867 0.0
C652 C 0.66333 0.22112 0.89914 0.0
C653 C 0.70516 0.22228 0.92316 0.0
O654 O 0.69361 0.22471 0.92944 0.0
O655 O 0.70577 0.21312 0.91345 0.0
O656 O 0.66481 0.21825 0.94507 0.0
O657 O 0.67201 0.19674 0.93997 0.0
O658 O 0.33159 0.78564 0.89582 0.0
Cd659 Cd 0.31485 0.79666 0.90433 0.0
Cd660 Cd 0.32637 0.78499 0.92936 0.0
O661 O 0.34044 0.77649 0.91528 0.0
O662 O 0.30664 0.80572 0.88737 0.0
O663 O 0.31583 0.818 0.9048 0.0
C664 C 0.30983 0.81777 0.89262 0.0
C665 C 0.335 0.79324 0.95083 0.0
C666 C 0.34065 0.778 0.90201 0.0
C667 C 0.29661 0.7773 0.92222 0.0
O668 O 0.30697 0.77561 0.93047 0.0
O669 O 0.29762 0.78541 0.91162 0.0
O670 O 0.33511 0.78008 0.94765 0.0
O671 O 0.3302 0.802 0.94162 0.0
O672 O 0.60896 0.71437 0.82518 0.0
Cd673 Cd 0.5991 0.70203 0.8103 0.0
Cd674 Cd 0.57534 0.71274 0.82351 0.0
O675 O 0.5902 0.7198 0.83769 0.0
O676 O 0.61495 0.6915 0.80172 0.0
O677 O 0.59788 0.68098 0.81348 0.0
C678 C 0.60954 0.68007 0.80657 0.0
C679 C 0.55373 0.70526 0.83256 0.0
C680 C 0.60343 0.72023 0.83585 0.0
C681 C 0.58067 0.72105 0.79329 0.0
O682 O 0.57374 0.72321 0.80452 0.0
O683 O 0.59068 0.71221 0.79314 0.0
O684 O 0.55766 0.71819 0.83318 0.0
O685 O 0.56225 0.69626 0.827 0.0
O686 O 0.28426 0.60631 0.82643 0.0
Cd687 Cd 0.29686 0.59651 0.81167 0.0
Cd688 Cd 0.28592 0.57283 0.82531 0.0
O689 O 0.27897 0.58781 0.83939 0.0
O690 O 0.30643 0.61274 0.80261 0.0
O691 O 0.31804 0.5965 0.81446 0.0
C692 C 0.31821 0.60806 0.80733 0.0
C693 C 0.29376 0.55129 0.83424 0.0
C694 C 0.27844 0.60099 0.83722 0.0
C695 C 0.27776 0.5777 0.79504 0.0
O696 O 0.27525 0.57118 0.80644 0.0
O697 O 0.28692 0.58742 0.7947 0.0
O698 O 0.2808 0.5551 0.83511 0.0
O699 O 0.30257 0.55992 0.82854 0.0
O700 O 0.39246 0.28571 0.82595 0.0
Cd701 Cd 0.40241 0.29803 0.8111 0.0
Cd702 Cd 0.42606 0.28692 0.82461 0.0
O703 O 0.41101 0.2799 0.83861 0.0
O704 O 0.38644 0.30815 0.80222 0.0
O705 O 0.40317 0.31917 0.81398 0.0
C706 C 0.39156 0.31975 0.80696 0.0
C707 C 0.44765 0.29441 0.83371 0.0
C708 C 0.39779 0.27968 0.83662 0.0
C709 C 0.42092 0.2788 0.79431 0.0
O710 O 0.42769 0.27648 0.8056 0.0
O711 O 0.41104 0.28779 0.79407 0.0
O712 O 0.44371 0.28148 0.83437 0.0
O713 O 0.43913 0.3034 0.82812 0.0
O714 O 0.71374 0.39303 0.82735 0.0
Cd715 Cd 0.70131 0.40305 0.81262 0.0
Cd716 Cd 0.71241 0.42659 0.82614 0.0
O717 O 0.71937 0.41154 0.84014 0.0
O718 O 0.69119 0.3871 0.80368 0.0
O719 O 0.68018 0.40371 0.81562 0.0
C720 C 0.6796 0.39215 0.80851 0.0
C721 C 0.70482 0.44814 0.83521 0.0
C722 C 0.7197 0.39835 0.83807 0.0
C723 C 0.72047 0.42166 0.79585 0.0
O724 O 0.72294 0.42828 0.8072 0.0
O725 O 0.71137 0.41188 0.79558 0.0
O726 O 0.71775 0.44422 0.83597 0.0
O727 O 0.69588 0.43962 0.82955 0.0
O728 O 0.60625 0.28486 0.17412 0.0
Cd729 Cd 0.5963 0.29725 0.18894 0.0
Cd730 Cd 0.57275 0.28645 0.17502 0.0
O731 O 0.58785 0.2796 0.161 0.0
O732 O 0.61238 0.30689 0.19819 0.0
O733 O 0.59616 0.31843 0.18623 0.0
C734 C 0.60766 0.31866 0.19345 0.0
C735 C 0.55127 0.29442 0.16608 0.0
C736 C 0.60102 0.27912 0.16323 0.0
C737 C 0.57734 0.27803 0.20526 0.0
O738 O 0.5709 0.27567 0.19379 0.0
O739 O 0.58712 0.28713 0.20576 0.0
O740 O 0.55505 0.28146 0.16512 0.0
O741 O 0.55993 0.30318 0.17182 0.0
O742 O 0.71435 0.60586 0.17406 0.0
Cd743 Cd 0.70207 0.59569 0.18883 0.0
Cd744 Cd 0.71315 0.57243 0.17506 0.0
O745 O 0.71978 0.58752 0.16096 0.0
O746 O 0.6921 0.61159 0.19802 0.0
O747 O 0.68091 0.59515 0.18604 0.0
C748 C 0.68044 0.60666 0.19324 0.0
C749 C 0.70499 0.55099 0.16623 0.0
C750 C 0.72013 0.60069 0.16318 0.0
C751 C 0.72161 0.57713 0.20521 0.0
O752 O 0.72413 0.57073 0.19374 0.0
O753 O 0.7123 0.58669 0.2057 0.0
O754 O 0.71795 0.55472 0.16509 0.0
O755 O 0.69635 0.55965 0.17215 0.0
O756 O 0.39373 0.71445 0.17483 0.0
Cd757 Cd 0.40328 0.70168 0.18957 0.0
Cd758 Cd 0.42719 0.71254 0.17612 0.0
O759 O 0.41233 0.71958 0.16195 0.0
O760 O 0.3869 0.69199 0.19824 0.0
O761 O 0.40331 0.68056 0.18644 0.0
C762 C 0.39161 0.68029 0.19335 0.0
C763 C 0.44897 0.70511 0.16739 0.0
C764 C 0.39915 0.72022 0.16406 0.0
C765 C 0.42201 0.72054 0.20646 0.0
O766 O 0.42861 0.72302 0.1951 0.0
O767 O 0.41222 0.71145 0.20674 0.0
O768 O 0.44499 0.71803 0.16667 0.0
O769 O 0.44034 0.69609 0.17276 0.0
O770 O 0.28563 0.39208 0.17281 0.0
Cd771 Cd 0.29798 0.40165 0.18789 0.0
Cd772 Cd 0.28698 0.42572 0.17479 0.0
O773 O 0.27982 0.41093 0.16058 0.0
O774 O 0.30795 0.38544 0.19653 0.0
O775 O 0.31915 0.40234 0.1852 0.0
C776 C 0.31962 0.39061 0.19203 0.0
C777 C 0.29426 0.44754 0.16599 0.0
C778 C 0.27955 0.39767 0.1623 0.0
C779 C 0.27887 0.41999 0.20502 0.0
O780 O 0.27666 0.42704 0.19388 0.0
O781 O 0.28773 0.40999 0.20505 0.0
O782 O 0.28134 0.44354 0.16544 0.0
O783 O 0.30335 0.43894 0.17127 0.0
O784 O 0.82698 0.60557 0.71471 0.0
Cd785 Cd 0.81229 0.59552 0.70217 0.0
Cd786 Cd 0.82601 0.57239 0.7136 0.0
O787 O 0.84032 0.58735 0.72 0.0
O788 O 0.80295 0.61164 0.69267 0.0
O789 O 0.81502 0.59562 0.68098 0.0
C790 C 0.80771 0.60706 0.68086 0.0
C791 C 0.83401 0.55074 0.70516 0.0
C792 C 0.83795 0.60049 0.72043 0.0
C793 C 0.7959 0.57709 0.72181 0.0
O794 O 0.80746 0.57109 0.7248 0.0
O795 O 0.79536 0.58623 0.71208 0.0
O796 O 0.83554 0.55436 0.71813 0.0
O797 O 0.82833 0.5597 0.69667 0.0
O798 O 0.39137 0.82531 0.71302 0.0
Cd799 Cd 0.40116 0.81039 0.70065 0.0
Cd800 Cd 0.42497 0.82353 0.71165 0.0
O801 O 0.41013 0.83771 0.71871 0.0
O802 O 0.38518 0.80164 0.69045 0.0
O803 O 0.40203 0.81334 0.67953 0.0
C804 C 0.3904 0.80635 0.67888 0.0
C805 C 0.44669 0.83245 0.70429 0.0
C806 C 0.39689 0.83591 0.71902 0.0
C807 C 0.41946 0.79331 0.71979 0.0
O808 O 0.42639 0.80451 0.72209 0.0
O809 O 0.40955 0.79322 0.71083 0.0
O810 O 0.44271 0.83303 0.71722 0.0
O811 O 0.43813 0.82704 0.69523 0.0
O812 O 0.1726 0.394 0.71514 0.0
Cd813 Cd 0.18753 0.4036 0.7026 0.0
Cd814 Cd 0.17362 0.42749 0.71289 0.0
O815 O 0.15948 0.41255 0.71984 0.0
O816 O 0.19675 0.38726 0.69334 0.0
O817 O 0.18499 0.40333 0.6814 0.0
C818 C 0.19214 0.39178 0.68145 0.0
C819 C 0.16476 0.44899 0.70484 0.0
C820 C 0.16169 0.39939 0.72067 0.0
C821 C 0.20377 0.4228 0.72165 0.0
O822 O 0.19231 0.42933 0.72382 0.0
O823 O 0.20432 0.4129 0.71269 0.0
O824 O 0.16372 0.44522 0.71779 0.0
O825 O 0.17057 0.44033 0.69613 0.0
O826 O 0.60713 0.17569 0.7136 0.0
Cd827 Cd 0.59683 0.19029 0.70124 0.0
Cd828 Cd 0.57375 0.17585 0.71145 0.0
O829 O 0.589 0.162 0.71823 0.0
O830 O 0.61254 0.19966 0.69115 0.0
O831 O 0.59623 0.18731 0.68013 0.0
C832 C 0.60764 0.19467 0.67956 0.0
C833 C 0.55251 0.16664 0.70318 0.0
C834 C 0.60209 0.16457 0.71904 0.0
C835 C 0.57762 0.20599 0.72056 0.0
O836 O 0.57143 0.19432 0.72266 0.0
O837 O 0.58739 0.20689 0.71149 0.0
O838 O 0.55625 0.16549 0.71614 0.0
O839 O 0.56108 0.17274 0.69459 0.0
O840 O 0.8261 0.39434 0.28569 0.0
Cd841 Cd 0.8113 0.40408 0.29826 0.0
Cd842 Cd 0.82516 0.42778 0.2877 0.0
O843 O 0.83922 0.4128 0.28067 0.0
O844 O 0.80218 0.3878 0.30771 0.0
O845 O 0.81399 0.40398 0.31944 0.0
C846 C 0.80688 0.39241 0.31953 0.0
C847 C 0.834 0.44925 0.29584 0.0
C848 C 0.83696 0.39965 0.27999 0.0
C849 C 0.79494 0.42312 0.27918 0.0
O850 O 0.8064 0.42962 0.27689 0.0
O851 O 0.79444 0.41329 0.28822 0.0
O852 O 0.83498 0.44557 0.28285 0.0
O853 O 0.8283 0.4405 0.30452 0.0
O854 O 0.60639 0.82722 0.28586 0.0
Cd855 Cd 0.59657 0.81232 0.29829 0.0
Cd856 Cd 0.57289 0.82597 0.28756 0.0
O857 O 0.58784 0.84014 0.28068 0.0
O858 O 0.61264 0.80323 0.30811 0.0
O859 O 0.59618 0.81507 0.31946 0.0
C860 C 0.60773 0.80791 0.31982 0.0
C861 C 0.55127 0.83466 0.29544 0.0
C862 C 0.60102 0.83804 0.28013 0.0
C863 C 0.57786 0.79581 0.27903 0.0
O864 O 0.57126 0.8072 0.27672 0.0
O865 O 0.58765 0.79539 0.28811 0.0
O866 O 0.5551 0.83566 0.28249 0.0
O867 O 0.55996 0.82903 0.30423 0.0
O868 O 0.17363 0.60702 0.28487 0.0
Cd869 Cd 0.1884 0.59699 0.29725 0.0
Cd870 Cd 0.17416 0.57354 0.28694 0.0
O871 O 0.16021 0.5887 0.28014 0.0
O872 O 0.19769 0.61295 0.30707 0.0
O873 O 0.18565 0.59663 0.31841 0.0
C874 C 0.19289 0.60813 0.31877 0.0
C875 C 0.16502 0.55213 0.29489 0.0
C876 C 0.1626 0.60183 0.27938 0.0
C877 C 0.20432 0.57779 0.27801 0.0
O878 O 0.19275 0.57144 0.27589 0.0
O879 O 0.20507 0.58764 0.28702 0.0
O880 O 0.16396 0.55601 0.28197 0.0
O881 O 0.171 0.56063 0.30363 0.0
O882 O 0.39441 0.17274 0.28563 0.0
Cd883 Cd 0.40432 0.18752 0.29811 0.0
Cd884 Cd 0.42781 0.17374 0.28748 0.0
O885 O 0.41285 0.15958 0.28066 0.0
O886 O 0.38826 0.19663 0.3079 0.0
O887 O 0.40463 0.18471 0.31927 0.0
C888 C 0.39309 0.19187 0.31961 0.0
C889 C 0.44925 0.16497 0.29572 0.0
C890 C 0.39969 0.16182 0.28 0.0
C891 C 0.42315 0.20387 0.27883 0.0
O892 O 0.42958 0.1924 0.27646 0.0
O893 O 0.41344 0.2044 0.288 0.0
O894 O 0.44556 0.16382 0.28275 0.0
O895 O 0.44054 0.17085 0.30433 0.0
O896 O 0.71474 0.82683 0.60553 0.0
Cd897 Cd 0.70228 0.81223 0.59534 0.0
Cd898 Cd 0.71326 0.82619 0.57216 0.0
O899 O 0.72 0.84019 0.58731 0.0
O900 O 0.69241 0.80294 0.61125 0.0
O901 O 0.68113 0.81513 0.59502 0.0
C902 C 0.68073 0.80782 0.60647 0.0
C903 C 0.70509 0.83505 0.55073 0.0
C904 C 0.72049 0.83778 0.60045 0.0
C905 C 0.72171 0.79597 0.57661 0.0
O906 O 0.72421 0.8075 0.57032 0.0
O907 O 0.7124 0.79539 0.58619 0.0
O908 O 0.71806 0.83616 0.55446 0.0
O909 O 0.69644 0.8292 0.55942 0.0
O910 O 0.71465 0.17238 0.3946 0.0
Cd911 Cd 0.70204 0.18687 0.40478 0.0
Cd912 Cd 0.71309 0.17319 0.42797 0.0
O913 O 0.72012 0.15924 0.41291 0.0
O914 O 0.69206 0.19603 0.38887 0.0
O915 O 0.68091 0.18381 0.40518 0.0
C916 C 0.68043 0.19111 0.39373 0.0
C917 C 0.70453 0.16425 0.4492 0.0
C918 C 0.72057 0.16156 0.39976 0.0
C919 C 0.72123 0.20344 0.42354 0.0
O920 O 0.72387 0.19198 0.42989 0.0
O921 O 0.71196 0.20384 0.41392 0.0
O922 O 0.71757 0.16318 0.44574 0.0
O923 O 0.69604 0.17016 0.44038 0.0
O924 O 0.82668 0.71419 0.39441 0.0
Cd925 Cd 0.8115 0.70231 0.40442 0.0
Cd926 Cd 0.82558 0.71284 0.42782 0.0
O927 O 0.83999 0.71898 0.41279 0.0
O928 O 0.80223 0.69256 0.38841 0.0
O929 O 0.8138 0.68109 0.40496 0.0
C930 C 0.80674 0.6808 0.39336 0.0
C931 C 0.83406 0.70466 0.4494 0.0
C932 C 0.83778 0.71952 0.39963 0.0
C933 C 0.79572 0.72236 0.42291 0.0
O934 O 0.80725 0.72443 0.42935 0.0
O935 O 0.79491 0.71307 0.41333 0.0
O936 O 0.83559 0.71754 0.44554 0.0
O937 O 0.82795 0.6961 0.4408 0.0
O938 O 0.28506 0.82651 0.39427 0.0
Cd939 Cd 0.29767 0.81197 0.40438 0.0
Cd940 Cd 0.28694 0.82573 0.42765 0.0
O941 O 0.27994 0.83973 0.41262 0.0
O942 O 0.30769 0.80286 0.38846 0.0
O943 O 0.31878 0.81511 0.4048 0.0
C944 C 0.3193 0.80784 0.39333 0.0
C945 C 0.29542 0.83471 0.44889 0.0
C946 C 0.27932 0.8374 0.39948 0.0
C947 C 0.27863 0.7955 0.42331 0.0
O948 O 0.2761 0.80699 0.42965 0.0
O949 O 0.2878 0.79503 0.41361 0.0
O950 O 0.28238 0.83574 0.44538 0.0
O951 O 0.30395 0.82884 0.4401 0.0
O952 O 0.17318 0.28465 0.39385 0.0
Cd953 Cd 0.18788 0.29703 0.40398 0.0
Cd954 Cd 0.17376 0.28591 0.42726 0.0
O955 O 0.15978 0.27931 0.41202 0.0
O956 O 0.19711 0.30669 0.3879 0.0
O957 O 0.18512 0.31821 0.4041 0.0
C958 C 0.19229 0.31844 0.39256 0.0
C959 C 0.16485 0.29377 0.44879 0.0
C960 C 0.1622 0.27891 0.39888 0.0
C961 C 0.20404 0.27754 0.42275 0.0
O962 O 0.19249 0.27503 0.42901 0.0
O963 O 0.20466 0.28686 0.41319 0.0
O964 O 0.16376 0.28085 0.44489 0.0
O965 O 0.1707 0.30254 0.44022 0.0
O966 O 0.28529 0.17299 0.60603 0.0
Cd967 Cd 0.29787 0.18765 0.59607 0.0
Cd968 Cd 0.28696 0.17399 0.57267 0.0
O969 O 0.2801 0.15985 0.58764 0.0
O970 O 0.30769 0.19666 0.61217 0.0
O971 O 0.31901 0.18469 0.5958 0.0
C972 C 0.31938 0.19181 0.60736 0.0
C973 C 0.2952 0.16524 0.55122 0.0
C974 C 0.27954 0.16212 0.6008 0.0
C975 C 0.27864 0.20421 0.5774 0.0
O976 O 0.2761 0.19275 0.57098 0.0
O977 O 0.2879 0.20464 0.58702 0.0
O978 O 0.28221 0.16414 0.55488 0.0
O979 O 0.30382 0.17105 0.55996 0.0
O980 O 0.82539 0.28489 0.60499 0.0
Cd981 Cd 0.81074 0.29721 0.59472 0.0
Cd982 Cd 0.82567 0.2872 0.57169 0.0
O983 O 0.83954 0.28073 0.58709 0.0
O984 O 0.80093 0.30667 0.61057 0.0
O985 O 0.81331 0.3184 0.5948 0.0
C986 C 0.80577 0.3185 0.60611 0.0
C987 C 0.83465 0.29575 0.55045 0.0
C988 C 0.83672 0.27973 0.60011 0.0
C989 C 0.79562 0.2777 0.57523 0.0
O990 O 0.80743 0.27563 0.56933 0.0
O991 O 0.79441 0.28688 0.58486 0.0
O992 O 0.8362 0.28283 0.55419 0.0
O993 O 0.82831 0.30415 0.55905 0.0
O994 O 0.17355 0.71495 0.60549 0.0
Cd995 Cd 0.18832 0.70248 0.59555 0.0
Cd996 Cd 0.17421 0.71293 0.57212 0.0
O997 O 0.16011 0.71964 0.58718 0.0
O998 O 0.19766 0.69292 0.61163 0.0
O999 O 0.18559 0.6813 0.59554 0.0
C1000 C 0.19287 0.68114 0.60701 0.0
C1001 C 0.16551 0.70457 0.55069 0.0
C1002 C 0.16251 0.72043 0.60031 0.0
C1003 C 0.20432 0.7218 0.5765 0.0
O1004 O 0.19275 0.72411 0.57023 0.0
O1005 O 0.20504 0.7126 0.58617 0.0
O1006 O 0.16424 0.71754 0.55437 0.0
O1007 O 0.17142 0.69602 0.55944 0.0
O1008 O 0.39448 0.2842 0.17372 0.0
Cd1009 Cd 0.40482 0.29646 0.18838 0.0
Cd1010 Cd 0.4279 0.2854 0.17423 0.0
O1011 O 0.41261 0.27886 0.16028 0.0
O1012 O 0.38901 0.3063 0.19787 0.0
O1013 O 0.40515 0.31763 0.18561 0.0
C1014 C 0.39377 0.318 0.19301 0.0
C1015 C 0.44927 0.29362 0.16529 0.0
C1016 C 0.39948 0.27849 0.16271 0.0
C1017 C 0.42361 0.27687 0.20443 0.0
O1018 O 0.42981 0.27436 0.19286 0.0
O1019 O 0.41407 0.28621 0.20508 0.0
O1020 O 0.44552 0.28067 0.16407 0.0
O1021 O 0.44064 0.30222 0.1713 0.0
O1022 O 0.71496 0.39415 0.17389 0.0
Cd1023 Cd 0.70239 0.40388 0.18871 0.0
Cd1024 Cd 0.71314 0.42757 0.17521 0.0
O1025 O 0.72015 0.41273 0.16101 0.0
O1026 O 0.69271 0.38765 0.19764 0.0
O1027 O 0.68123 0.40405 0.18586 0.0
C1028 C 0.68097 0.39244 0.19291 0.0
C1029 C 0.70492 0.44905 0.16652 0.0
C1030 C 0.72072 0.39954 0.1631 0.0
C1031 C 0.72143 0.42267 0.20541 0.0
O1032 O 0.72389 0.42923 0.19402 0.0
O1033 O 0.71233 0.41289 0.20573 0.0
O1034 O 0.71793 0.44544 0.16554 0.0
O1035 O 0.69626 0.44023 0.17217 0.0
O1036 O 0.60659 0.71431 0.17427 0.0
Cd1037 Cd 0.59655 0.70209 0.18918 0.0
Cd1038 Cd 0.57305 0.71333 0.17551 0.0
O1039 O 0.58814 0.71988 0.16136 0.0
O1040 O 0.6125 0.69217 0.19835 0.0
O1041 O 0.596 0.68091 0.1865 0.0
C1042 C 0.60752 0.68048 0.19368 0.0
C1043 C 0.55135 0.70574 0.16677 0.0
C1044 C 0.60134 0.72015 0.16345 0.0
C1045 C 0.57812 0.72168 0.20569 0.0
O1046 O 0.57161 0.72418 0.19429 0.0
O1047 O 0.58772 0.71239 0.20609 0.0
O1048 O 0.55536 0.71863 0.16575 0.0
O1049 O 0.55988 0.69684 0.17247 0.0
O1050 O 0.2837 0.60498 0.17178 0.0
Cd1051 Cd 0.29626 0.59531 0.18666 0.0
Cd1052 Cd 0.28498 0.57149 0.17322 0.0
O1053 O 0.27806 0.58641 0.15906 0.0
O1054 O 0.30552 0.61169 0.19578 0.0
O1055 O 0.31748 0.59556 0.18414 0.0
C1056 C 0.31743 0.60712 0.19126 0.0
C1057 C 0.29281 0.54984 0.16455 0.0
C1058 C 0.27772 0.59962 0.16109 0.0
C1059 C 0.27708 0.57664 0.20349 0.0
O1060 O 0.27441 0.57006 0.19216 0.0
O1061 O 0.2863 0.58631 0.20368 0.0
O1062 O 0.27985 0.55365 0.16364 0.0
O1063 O 0.30164 0.55856 0.17009 0.0
O1064 O 0.39637 0.71308 0.83068 0.0
Cd1065 Cd 0.40453 0.70197 0.81383 0.0
Cd1066 Cd 0.42985 0.7139 0.82492 0.0
O1067 O 0.41592 0.72241 0.83913 0.0
O1068 O 0.38733 0.69305 0.80598 0.0
O1069 O 0.4048 0.68062 0.81486 0.0
C1070 C 0.3925 0.68095 0.80911 0.0
C1071 C 0.45166 0.70622 0.83326 0.0
C1072 C 0.40267 0.72082 0.83958 0.0
C1073 C 0.42206 0.72126 0.79518 0.0
O1074 O 0.43049 0.72304 0.80538 0.0
O1075 O 0.4115 0.71313 0.79642 0.0
O1076 O 0.44821 0.71932 0.83322 0.0
O1077 O 0.44253 0.69721 0.8288 0.0
O1078 O 0.28465 0.39425 0.82661 0.0
Cd1079 Cd 0.29693 0.40443 0.81183 0.0
Cd1080 Cd 0.28563 0.42768 0.8256 0.0
O1081 O 0.279 0.41256 0.83968 0.0
O1082 O 0.30674 0.38851 0.8025 0.0
O1083 O 0.31811 0.40481 0.81452 0.0
C1084 C 0.31846 0.39337 0.80722 0.0
C1085 C 0.29372 0.4492 0.83431 0.0
C1086 C 0.27877 0.39938 0.83746 0.0
C1087 C 0.27737 0.42296 0.7954 0.0
O1088 O 0.27475 0.42932 0.80686 0.0
O1089 O 0.28673 0.41344 0.79496 0.0
O1090 O 0.28076 0.44545 0.83543 0.0
O1091 O 0.3024 0.44049 0.82855 0.0
O1092 O 0.60485 0.28506 0.8272 0.0
Cd1093 Cd 0.59477 0.29753 0.81251 0.0
Cd1094 Cd 0.57143 0.28598 0.82594 0.0
O1095 O 0.58645 0.27924 0.84007 0.0
O1096 O 0.61077 0.30739 0.80337 0.0
O1097 O 0.59444 0.31869 0.81541 0.0
C1098 C 0.60592 0.31907 0.80816 0.0
C1099 C 0.54982 0.29392 0.83455 0.0
C1100 C 0.59965 0.27905 0.83795 0.0
C1101 C 0.57639 0.27815 0.79568 0.0
O1102 O 0.56998 0.27532 0.80706 0.0
O1103 O 0.58587 0.28756 0.79544 0.0
O1104 O 0.55358 0.28095 0.83555 0.0
O1105 O 0.55858 0.30269 0.82898 0.0
O1106 O 0.71588 0.60492 0.82811 0.0
Cd1107 Cd 0.70348 0.59492 0.81333 0.0
Cd1108 Cd 0.71528 0.57147 0.82627 0.0
O1109 O 0.72234 0.58634 0.84041 0.0
O1110 O 0.69374 0.61099 0.8042 0.0
O1111 O 0.68227 0.59459 0.81598 0.0
C1112 C 0.68199 0.60609 0.80876 0.0
C1113 C 0.7069 0.55006 0.83492 0.0
C1114 C 0.72224 0.59958 0.83859 0.0
C1115 C 0.72282 0.57675 0.79606 0.0
O1116 O 0.72571 0.57003 0.80725 0.0
O1117 O 0.71349 0.58631 0.79616 0.0
O1118 O 0.71998 0.5535 0.83578 0.0
O1119 O 0.6983 0.55901 0.82939 0.0
O1120 O 0.16887 0.3951 0.28603 0.0
Cd1121 Cd 0.18567 0.40329 0.2972 0.0
Cd1122 Cd 0.17462 0.42862 0.28539 0.0
O1123 O 0.16052 0.41469 0.27669 0.0
O1124 O 0.19365 0.38614 0.30612 0.0
O1125 O 0.18465 0.40355 0.31856 0.0
C1126 C 0.19052 0.39131 0.31822 0.0
C1127 C 0.16606 0.45026 0.29333 0.0
C1128 C 0.16004 0.40144 0.27824 0.0
C1129 C 0.20435 0.42096 0.27802 0.0
O1130 O 0.19417 0.42943 0.27628 0.0
O1131 O 0.20306 0.41035 0.28608 0.0
O1132 O 0.16619 0.44699 0.28019 0.0
O1133 O 0.17061 0.44106 0.30223 0.0
O1134 O 0.60597 0.17391 0.28611 0.0
Cd1135 Cd 0.5959 0.18848 0.29871 0.0
Cd1136 Cd 0.57258 0.17478 0.28777 0.0
O1137 O 0.58762 0.16076 0.28082 0.0
O1138 O 0.61183 0.1976 0.30869 0.0
O1139 O 0.59554 0.18535 0.31983 0.0
C1140 C 0.607 0.19263 0.32031 0.0
C1141 C 0.55116 0.16592 0.29597 0.0
C1142 C 0.60077 0.16305 0.28029 0.0
C1143 C 0.57716 0.20502 0.27953 0.0
O1144 O 0.57079 0.19355 0.27698 0.0
O1145 O 0.5868 0.20546 0.28878 0.0
O1146 O 0.55482 0.16492 0.28297 0.0
O1147 O 0.55992 0.17166 0.30463 0.0
O1148 O 0.82645 0.60625 0.28575 0.0
Cd1149 Cd 0.81156 0.59634 0.2981 0.0
Cd1150 Cd 0.8256 0.57273 0.28761 0.0
O1151 O 0.83966 0.58782 0.28083 0.0
O1152 O 0.80221 0.6124 0.30769 0.0
O1153 O 0.8141 0.59619 0.3193 0.0
C1154 C 0.80684 0.60767 0.31949 0.0
C1155 C 0.83451 0.55128 0.29572 0.0
C1156 C 0.8374 0.60098 0.28017 0.0
C1157 C 0.79548 0.57728 0.27877 0.0
O1158 O 0.80698 0.57083 0.27657 0.0
O1159 O 0.79486 0.58708 0.28784 0.0
O1160 O 0.83565 0.55506 0.28277 0.0
O1161 O 0.82859 0.55991 0.30438 0.0
O1162 O 0.39405 0.82633 0.28582 0.0
Cd1163 Cd 0.40401 0.81166 0.29838 0.0
Cd1164 Cd 0.42759 0.82529 0.28728 0.0
O1165 O 0.41251 0.83923 0.28023 0.0
O1166 O 0.38797 0.80254 0.30819 0.0
O1167 O 0.40425 0.81459 0.31953 0.0
C1168 C 0.39276 0.80736 0.31988 0.0
C1169 C 0.4491 0.83435 0.29504 0.0
C1170 C 0.39933 0.83707 0.27985 0.0
C1171 C 0.4228 0.79496 0.2793 0.0
O1172 O 0.42935 0.80634 0.27678 0.0
O1173 O 0.41303 0.79466 0.28841 0.0
O1174 O 0.44528 0.83512 0.28208 0.0
O1175 O 0.44049 0.8287 0.30391 0.0
O1176 O 0.17273 0.60609 0.71465 0.0
Cd1177 Cd 0.18765 0.59636 0.70221 0.0
Cd1178 Cd 0.17392 0.57263 0.71274 0.0
O1179 O 0.15974 0.58754 0.71966 0.0
O1180 O 0.19666 0.61256 0.69253 0.0
O1181 O 0.18496 0.59613 0.68103 0.0
C1182 C 0.192 0.60774 0.68078 0.0
C1183 C 0.16521 0.55108 0.70466 0.0
C1184 C 0.16188 0.60071 0.7203 0.0
C1185 C 0.20407 0.57749 0.72139 0.0
O1186 O 0.19265 0.5709 0.72361 0.0
O1187 O 0.20454 0.58734 0.71237 0.0
O1188 O 0.16418 0.55481 0.71763 0.0
O1189 O 0.17089 0.55982 0.69595 0.0
O1190 O 0.39606 0.16912 0.71356 0.0
Cd1191 Cd 0.40448 0.18572 0.70224 0.0
Cd1192 Cd 0.42959 0.1746 0.71386 0.0
O1193 O 0.41566 0.1606 0.72269 0.0
O1194 O 0.38749 0.19383 0.69316 0.0
O1195 O 0.40483 0.18446 0.6809 0.0
C1196 C 0.39267 0.1905 0.68112 0.0
C1197 C 0.45096 0.16589 0.70543 0.0
C1198 C 0.40239 0.16025 0.72131 0.0
C1199 C 0.42231 0.20434 0.72131 0.0
O1200 O 0.43068 0.19409 0.72307 0.0
O1201 O 0.4117 0.20313 0.71325 0.0
O1202 O 0.44794 0.16588 0.71863 0.0
O1203 O 0.44167 0.17068 0.69674 0.0
O1204 O 0.82477 0.39304 0.71441 0.0
Cd1205 Cd 0.80984 0.40268 0.70191 0.0
Cd1206 Cd 0.82328 0.42648 0.71289 0.0
O1207 O 0.83747 0.41166 0.71996 0.0
O1208 O 0.80108 0.38642 0.6921 0.0
O1209 O 0.81265 0.40305 0.68075 0.0
C1210 C 0.80574 0.39136 0.68039 0.0
C1211 C 0.83185 0.4482 0.70509 0.0
C1212 C 0.83546 0.39845 0.72035 0.0
C1213 C 0.79303 0.42123 0.72107 0.0
O1214 O 0.80435 0.42792 0.72345 0.0
O1215 O 0.79275 0.41143 0.71199 0.0
O1216 O 0.83262 0.44444 0.71808 0.0
O1217 O 0.82655 0.43937 0.69623 0.0
O1218 O 0.60409 0.83116 0.71246 0.0
Cd1219 Cd 0.59567 0.81454 0.70118 0.0
Cd1220 Cd 0.57059 0.82543 0.71344 0.0
O1221 O 0.58462 0.83949 0.72206 0.0
O1222 O 0.61265 0.8067 0.69184 0.0
O1223 O 0.59502 0.81588 0.67984 0.0
C1224 C 0.60727 0.81001 0.67988 0.0
C1225 C 0.54881 0.83397 0.70589 0.0
C1226 C 0.59786 0.83993 0.7204 0.0
C1227 C 0.57837 0.79565 0.72044 0.0
O1228 O 0.56995 0.80582 0.72242 0.0
O1229 O 0.58883 0.79699 0.7122 0.0
O1230 O 0.5523 0.83382 0.71897 0.0
O1231 O 0.55787 0.82948 0.69682 0.0
O1232 O 0.28561 0.17334 0.39432 0.0
Cd1233 Cd 0.29799 0.18822 0.40421 0.0
Cd1234 Cd 0.28724 0.17452 0.42773 0.0
O1235 O 0.28053 0.16027 0.4128 0.0
O1236 O 0.30772 0.19737 0.38813 0.0
O1237 O 0.31916 0.1855 0.40449 0.0
C1238 C 0.31946 0.19267 0.39296 0.0
C1239 C 0.29546 0.16591 0.44924 0.0
C1240 C 0.27996 0.16244 0.39962 0.0
C1241 C 0.27857 0.20462 0.42286 0.0
O1242 O 0.27618 0.19317 0.42934 0.0
O1243 O 0.28779 0.20511 0.4132 0.0
O1244 O 0.28249 0.16474 0.44555 0.0
O1245 O 0.30408 0.17171 0.44048 0.0
O1246 O 0.28366 0.82775 0.6048 0.0
Cd1247 Cd 0.29595 0.8131 0.59446 0.0
Cd1248 Cd 0.28521 0.82698 0.57142 0.0
O1249 O 0.2784 0.841 0.58651 0.0
O1250 O 0.30597 0.80372 0.6102 0.0
O1251 O 0.3171 0.8159 0.59383 0.0
C1252 C 0.31761 0.80852 0.60523 0.0
C1253 C 0.2942 0.83585 0.55037 0.0
C1254 C 0.27794 0.83869 0.59967 0.0
C1255 C 0.27655 0.79688 0.57563 0.0
O1256 O 0.27411 0.8084 0.56929 0.0
O1257 O 0.28575 0.79633 0.5853 0.0
O1258 O 0.28114 0.83718 0.55368 0.0
O1259 O 0.30246 0.82971 0.55925 0.0
O1260 O 0.17328 0.28418 0.60604 0.0
Cd1261 Cd 0.18816 0.29667 0.59631 0.0
Cd1262 Cd 0.17435 0.286 0.57257 0.0
O1263 O 0.16021 0.27913 0.58755 0.0
O1264 O 0.19714 0.3063 0.61256 0.0
O1265 O 0.18539 0.31784 0.59619 0.0
C1266 C 0.19241 0.31806 0.60781 0.0
C1267 C 0.16557 0.29389 0.55098 0.0
C1268 C 0.1624 0.27852 0.60072 0.0
C1269 C 0.20459 0.27752 0.57741 0.0
O1270 O 0.19315 0.27521 0.57089 0.0
O1271 O 0.20506 0.28659 0.58722 0.0
O1272 O 0.16462 0.28094 0.55479 0.0
O1273 O 0.17122 0.30268 0.55966 0.0
O1274 O 0.71475 0.17343 0.60551 0.0
Cd1275 Cd 0.70271 0.18844 0.59545 0.0
Cd1276 Cd 0.71254 0.17398 0.57197 0.0
O1277 O 0.71949 0.16007 0.58715 0.0
O1278 O 0.69305 0.19806 0.61129 0.0
O1279 O 0.68151 0.18613 0.59503 0.0
C1280 C 0.68126 0.1935 0.60644 0.0
C1281 C 0.70388 0.16486 0.55084 0.0
C1282 C 0.7202 0.1624 0.60029 0.0
C1283 C 0.722 0.20403 0.57598 0.0
O1284 O 0.72369 0.19247 0.56947 0.0
O1285 O 0.71332 0.20486 0.58611 0.0
O1286 O 0.71689 0.16364 0.55436 0.0
O1287 O 0.69546 0.17096 0.55958 0.0
O1288 O 0.82614 0.71476 0.60634 0.0
Cd1289 Cd 0.8113 0.70239 0.59638 0.0
Cd1290 Cd 0.82506 0.71315 0.57297 0.0
O1291 O 0.83929 0.71985 0.58793 0.0
O1292 O 0.80227 0.69247 0.61241 0.0
O1293 O 0.81417 0.68125 0.59592 0.0
C1294 C 0.80708 0.68081 0.6075 0.0
C1295 C 0.83362 0.70482 0.55148 0.0
C1296 C 0.83707 0.72039 0.60109 0.0
C1297 C 0.79494 0.7218 0.5777 0.0
O1298 O 0.80643 0.7242 0.5713 0.0
O1299 O 0.7944 0.71256 0.58735 0.0
O1300 O 0.83485 0.7178 0.55513 0.0
O1301 O 0.82781 0.69625 0.56028 0.0
O1302 O 0.71443 0.82798 0.39391 0.0
Cd1303 Cd 0.70245 0.81314 0.40432 0.0
Cd1304 Cd 0.71397 0.82706 0.42727 0.0
O1305 O 0.72023 0.84121 0.41205 0.0
O1306 O 0.69245 0.80379 0.38853 0.0
O1307 O 0.68126 0.81572 0.40502 0.0
C1308 C 0.68078 0.80849 0.39353 0.0
C1309 C 0.70575 0.83573 0.44874 0.0
C1310 C 0.72028 0.83893 0.39889 0.0
C1311 C 0.72253 0.79696 0.42253 0.0
O1312 O 0.72514 0.80847 0.4288 0.0
O1313 O 0.71298 0.79638 0.4132 0.0
O1314 O 0.71869 0.83707 0.44498 0.0
O1315 O 0.69717 0.82971 0.44009 0.0
O1316 O 0.17457 0.71508 0.39404 0.0
Cd1317 Cd 0.18919 0.70259 0.40416 0.0
Cd1318 Cd 0.1749 0.71316 0.42749 0.0
O1319 O 0.16104 0.71999 0.41224 0.0
O1320 O 0.19867 0.693 0.38818 0.0
O1321 O 0.1864 0.68143 0.40414 0.0
C1322 C 0.19379 0.68123 0.39274 0.0
C1323 C 0.16578 0.70485 0.44877 0.0
C1324 C 0.16354 0.72067 0.39913 0.0
C1325 C 0.20513 0.7218 0.42343 0.0
O1326 O 0.19352 0.72415 0.42965 0.0
O1327 O 0.20585 0.71267 0.4137 0.0
O1328 O 0.16465 0.71783 0.44508 0.0
O1329 O 0.17181 0.69627 0.44013 0.0
O1330 O 0.82555 0.28419 0.39387 0.0
Cd1331 Cd 0.81061 0.29657 0.40367 0.0
Cd1332 Cd 0.82463 0.28648 0.42731 0.0
O1333 O 0.83878 0.2796 0.41236 0.0
O1334 O 0.80137 0.30619 0.38757 0.0
O1335 O 0.81326 0.31775 0.40383 0.0
C1336 C 0.80608 0.31796 0.3923 0.0
C1337 C 0.83339 0.29509 0.44862 0.0
C1338 C 0.83654 0.27877 0.39921 0.0
C1339 C 0.79455 0.27742 0.42288 0.0
O1340 O 0.80607 0.27534 0.42935 0.0
O1341 O 0.7939 0.28637 0.41297 0.0
O1342 O 0.83462 0.28207 0.44512 0.0
O1343 O 0.82746 0.30353 0.43979 0.0
H1344 H 0.09319 0.23197 0.3616 0.0
H1345 H 0.16627 0.27237 0.37115 0.0
H1346 H 0.12813 0.22806 0.33281 0.0
H1347 H 0.13648 0.26723 0.40508 0.0
H1348 H 0.15121 0.25805 0.3561 0.0
H1349 H 0.1079 0.24646 0.37701 0.0
C1350 C 0.10396 0.23409 0.35854 0.0
C1351 C 0.10943 0.22877 0.34588 0.0
C1352 C 0.14796 0.26006 0.36684 0.0
C1353 C 0.12623 0.24548 0.36338 0.0
C1354 C 0.15652 0.26831 0.37543 0.0
C1355 C 0.15266 0.27099 0.38944 0.0
C1356 C 0.13536 0.25452 0.37221 0.0
C1357 C 0.13989 0.26541 0.39437 0.0
C1358 C 0.11234 0.24237 0.36734 0.0
C1359 C 0.12346 0.23188 0.34247 0.0
N1360 N 0.13169 0.25744 0.38576 0.0
N1361 N 0.13134 0.24009 0.35112 0.0
H1362 H 0.73232 0.13597 0.40624 0.0
H1363 H 0.77298 0.12942 0.33292 0.0
H1364 H 0.72788 0.16577 0.37222 0.0
H1365 H 0.76876 0.0947 0.36194 0.0
H1366 H 0.75834 0.14377 0.34837 0.0
H1367 H 0.7472 0.12138 0.3911 0.0
C1368 C 0.73441 0.13942 0.39558 0.0
C1369 C 0.72883 0.15213 0.3905 0.0
C1370 C 0.76063 0.13301 0.35137 0.0
C1371 C 0.74598 0.13556 0.37321 0.0
C1372 C 0.76907 0.12483 0.34259 0.0
C1373 C 0.77209 0.1108 0.3461 0.0
C1374 C 0.75525 0.1272 0.36384 0.0
C1375 C 0.76667 0.10544 0.35878 0.0
C1376 C 0.74291 0.13108 0.38695 0.0
C1377 C 0.7319 0.15605 0.37659 0.0
N1378 N 0.75852 0.11365 0.36719 0.0
N1379 N 0.74033 0.14785 0.36847 0.0
H1380 H 0.8638 0.7302 0.4063 0.0
H1381 H 0.87202 0.77093 0.33327 0.0
H1382 H 0.83423 0.72668 0.37198 0.0
H1383 H 0.90643 0.76584 0.3625 0.0
H1384 H 0.85736 0.75628 0.34838 0.0
H1385 H 0.8791 0.74445 0.39125 0.0
C1386 C 0.86055 0.73235 0.39559 0.0
C1387 C 0.84768 0.72725 0.39041 0.0
C1388 C 0.86811 0.75836 0.35149 0.0
C1389 C 0.86506 0.74368 0.37322 0.0
C1390 C 0.87648 0.76681 0.34291 0.0
C1391 C 0.8905 0.76963 0.3466 0.0
C1392 C 0.87372 0.75277 0.36396 0.0
C1393 C 0.8957 0.76393 0.35922 0.0
C1394 C 0.86929 0.74048 0.38701 0.0
C1395 C 0.84405 0.73036 0.37643 0.0
N1396 N 0.8873 0.75578 0.36746 0.0
N1397 N 0.85264 0.73844 0.36837 0.0
H1398 H 0.22711 0.87078 0.33307 0.0
H1399 H 0.2682 0.86324 0.40604 0.0
H1400 H 0.23243 0.90537 0.36206 0.0
H1401 H 0.27161 0.83329 0.37204 0.0
H1402 H 0.25355 0.87817 0.39102 0.0
H1403 H 0.24153 0.85606 0.34839 0.0
C1404 C 0.23122 0.87527 0.3427 0.0
C1405 C 0.22857 0.88936 0.34626 0.0
C1406 C 0.25756 0.86836 0.38685 0.0
C1407 C 0.24516 0.87254 0.36384 0.0
C1408 C 0.26593 0.85983 0.39541 0.0
C1409 C 0.27116 0.84698 0.3903 0.0
C1410 C 0.25427 0.86395 0.37314 0.0
C1411 C 0.26786 0.84311 0.37642 0.0
C1412 C 0.23953 0.86687 0.35141 0.0
C1413 C 0.23423 0.89458 0.35887 0.0
N1414 N 0.25957 0.85152 0.36836 0.0
N1415 N 0.24226 0.88617 0.36721 0.0
H1416 H 0.13669 0.73157 0.59368 0.0
H1417 H 0.12892 0.77232 0.66687 0.0
H1418 H 0.16648 0.72801 0.6278 0.0
H1419 H 0.09474 0.76799 0.63724 0.0
H1420 H 0.14359 0.75776 0.65165 0.0
H1421 H 0.12174 0.74623 0.60867 0.0
C1422 C 0.14006 0.7338 0.60434 0.0
C1423 C 0.15287 0.72854 0.60948 0.0
C1424 C 0.13289 0.76 0.64846 0.0
C1425 C 0.13589 0.74545 0.62661 0.0
C1426 C 0.12451 0.76839 0.65712 0.0
C1427 C 0.11054 0.77138 0.65335 0.0
C1428 C 0.12732 0.75462 0.63588 0.0
C1429 C 0.10543 0.76594 0.64059 0.0
C1430 C 0.13153 0.74218 0.61288 0.0
C1431 C 0.15669 0.73179 0.62338 0.0
N1432 N 0.11382 0.75783 0.63231 0.0
N1433 N 0.14828 0.7401 0.63142 0.0
H1434 H 0.26834 0.13628 0.59426 0.0
H1435 H 0.22647 0.1296 0.66683 0.0
H1436 H 0.27183 0.16627 0.62822 0.0
H1437 H 0.23223 0.0945 0.63854 0.0
H1438 H 0.24114 0.14403 0.6515 0.0
H1439 H 0.25353 0.12147 0.60927 0.0
C1440 C 0.26606 0.13973 0.60488 0.0
C1441 C 0.27135 0.15255 0.60998 0.0
C1442 C 0.23919 0.13318 0.64863 0.0
C1443 C 0.25428 0.13574 0.62712 0.0
C1444 C 0.23073 0.12494 0.65734 0.0
C1445 C 0.22812 0.11079 0.65399 0.0
C1446 C 0.24501 0.1273 0.6364 0.0
C1447 C 0.23399 0.10535 0.64156 0.0
C1448 C 0.25761 0.13127 0.61343 0.0
C1449 C 0.26804 0.15647 0.62384 0.0
N1450 N 0.24215 0.11361 0.6332 0.0
N1451 N 0.25965 0.14814 0.63188 0.0
H1452 H 0.83214 0.27207 0.62749 0.0
H1453 H 0.90584 0.2327 0.63696 0.0
H1454 H 0.86287 0.26893 0.59416 0.0
H1455 H 0.87077 0.22778 0.66544 0.0
H1456 H 0.89106 0.24732 0.62176 0.0
H1457 H 0.84717 0.25754 0.64237 0.0
C1458 C 0.84209 0.26841 0.62331 0.0
C1459 C 0.84623 0.27172 0.60952 0.0
C1460 C 0.8866 0.24298 0.63131 0.0
C1461 C 0.86348 0.25499 0.62654 0.0
C1462 C 0.89502 0.23462 0.63999 0.0
C1463 C 0.88955 0.22899 0.65252 0.0
C1464 C 0.87265 0.24585 0.63525 0.0
C1465 C 0.87545 0.23186 0.65589 0.0
C1466 C 0.85064 0.26004 0.63181 0.0
C1467 C 0.85924 0.26663 0.60471 0.0
N1468 N 0.86753 0.24014 0.64735 0.0
N1469 N 0.86741 0.25852 0.61321 0.0
H1470 H 0.77317 0.86955 0.66716 0.0
H1471 H 0.73182 0.86364 0.59422 0.0
H1472 H 0.76803 0.90479 0.63893 0.0
H1473 H 0.72793 0.83339 0.62791 0.0
H1474 H 0.74658 0.87826 0.60946 0.0
H1475 H 0.75844 0.85533 0.65166 0.0
C1476 C 0.76903 0.87428 0.65765 0.0
C1477 C 0.77183 0.88841 0.65436 0.0
C1478 C 0.74242 0.86845 0.61351 0.0
C1479 C 0.75489 0.87216 0.63658 0.0
C1480 C 0.734 0.8601 0.60483 0.0
C1481 C 0.72862 0.84725 0.60978 0.0
C1482 C 0.74563 0.86384 0.62718 0.0
C1483 C 0.7318 0.84322 0.62364 0.0
C1484 C 0.76055 0.86617 0.64885 0.0
C1485 C 0.76612 0.89396 0.64191 0.0
N1486 N 0.74016 0.85143 0.6318 0.0
N1487 N 0.75793 0.88582 0.63346 0.0
H1488 H 0.33388 0.12847 0.22712 0.0
H1489 H 0.40648 0.13606 0.26882 0.0
H1490 H 0.3631 0.09403 0.23213 0.0
H1491 H 0.37222 0.1657 0.2723 0.0
H1492 H 0.39166 0.12113 0.25397 0.0
H1493 H 0.34895 0.14307 0.2419 0.0
C1494 C 0.34352 0.12399 0.23124 0.0
C1495 C 0.34721 0.10997 0.22838 0.0
C1496 C 0.38739 0.13087 0.25805 0.0
C1497 C 0.36451 0.12667 0.2454 0.0
C1498 C 0.39583 0.1394 0.26653 0.0
C1499 C 0.3906 0.15217 0.27183 0.0
C1500 C 0.37366 0.13521 0.2547 0.0
C1501 C 0.3767 0.15594 0.2685 0.0
C1502 C 0.35208 0.13232 0.23976 0.0
C1503 C 0.35982 0.10476 0.23407 0.0
N1504 N 0.36876 0.14755 0.26009 0.0
N1505 N 0.36802 0.11312 0.2423 0.0
H1506 H 0.87007 0.33335 0.22748 0.0
H1507 H 0.86252 0.40649 0.26836 0.0
H1508 H 0.90424 0.36306 0.23144 0.0
H1509 H 0.8331 0.37211 0.27252 0.0
H1510 H 0.87732 0.3916 0.25343 0.0
H1511 H 0.85553 0.34853 0.24223 0.0
C1512 C 0.8745 0.34311 0.23136 0.0
C1513 C 0.88843 0.34691 0.22823 0.0
C1514 C 0.86765 0.38732 0.25767 0.0
C1515 C 0.87181 0.36432 0.2452 0.0
C1516 C 0.8592 0.3958 0.2662 0.0
C1517 C 0.84654 0.39055 0.27172 0.0
C1518 C 0.86333 0.37354 0.25451 0.0
C1519 C 0.84278 0.37661 0.26855 0.0
C1520 C 0.86621 0.35174 0.23986 0.0
C1521 C 0.89358 0.35968 0.23361 0.0
N1522 N 0.85109 0.36863 0.2601 0.0
N1523 N 0.88526 0.36794 0.24183 0.0
H1524 H 0.66646 0.87136 0.22677 0.0
H1525 H 0.59408 0.86371 0.26882 0.0
H1526 H 0.63723 0.90578 0.23186 0.0
H1527 H 0.62853 0.83431 0.27248 0.0
H1528 H 0.60881 0.87864 0.25387 0.0
H1529 H 0.65153 0.85681 0.24175 0.0
C1530 C 0.65685 0.87585 0.23095 0.0
C1531 C 0.65312 0.88985 0.22805 0.0
C1532 C 0.61315 0.86896 0.25801 0.0
C1533 C 0.63598 0.8732 0.24529 0.0
C1534 C 0.60476 0.86042 0.26655 0.0
C1535 C 0.61007 0.84772 0.27192 0.0
C1536 C 0.62689 0.86468 0.25468 0.0
C1537 C 0.62399 0.84402 0.26862 0.0
C1538 C 0.64837 0.86754 0.23958 0.0
C1539 C 0.64055 0.89506 0.23383 0.0
N1540 N 0.63187 0.85241 0.26015 0.0
N1541 N 0.63242 0.88673 0.24216 0.0
H1542 H 0.09318 0.6368 0.23143 0.0
H1543 H 0.16651 0.62937 0.2719 0.0
H1544 H 0.12752 0.66622 0.22696 0.0
H1545 H 0.13684 0.59515 0.26813 0.0
H1546 H 0.15128 0.64384 0.25714 0.0
H1547 H 0.10818 0.622 0.24622 0.0
C1548 C 0.10389 0.64012 0.23348 0.0
C1549 C 0.10909 0.65279 0.22793 0.0
C1550 C 0.14809 0.63317 0.25955 0.0
C1551 C 0.12623 0.63598 0.24499 0.0
C1552 C 0.15674 0.62491 0.26806 0.0
C1553 C 0.15297 0.61099 0.27125 0.0
C1554 C 0.1355 0.62753 0.25427 0.0
C1555 C 0.1402 0.6058 0.26591 0.0
C1556 C 0.11244 0.63166 0.24194 0.0
C1557 C 0.12306 0.65654 0.23096 0.0
N1558 N 0.13192 0.61408 0.25769 0.0
N1559 N 0.1311 0.64822 0.23935 0.0
H1560 H 0.33131 0.8701 0.77161 0.0
H1561 H 0.40427 0.8612 0.73086 0.0
H1562 H 0.36157 0.90378 0.76771 0.0
H1563 H 0.36916 0.83276 0.72609 0.0
H1564 H 0.38965 0.87629 0.74575 0.0
H1565 H 0.34612 0.8554 0.75667 0.0
C1566 C 0.34111 0.87439 0.7677 0.0
C1567 C 0.34518 0.88822 0.77092 0.0
C1568 C 0.38514 0.86678 0.74138 0.0
C1569 C 0.36219 0.87142 0.75372 0.0
C1570 C 0.39347 0.85816 0.73287 0.0
C1571 C 0.38794 0.84568 0.72721 0.0
C1572 C 0.37123 0.86281 0.74437 0.0
C1573 C 0.37387 0.84229 0.73018 0.0
C1574 C 0.34953 0.86601 0.75909 0.0
C1575 C 0.35799 0.89319 0.76548 0.0
N1576 N 0.36604 0.85075 0.73863 0.0
N1577 N 0.36605 0.88479 0.75716 0.0
H1578 H 0.13588 0.40636 0.73166 0.0
H1579 H 0.12809 0.33426 0.77422 0.0
H1580 H 0.16551 0.37203 0.72876 0.0
H1581 H 0.09357 0.36325 0.76845 0.0
H1582 H 0.14278 0.34923 0.75943 0.0
H1583 H 0.12087 0.39172 0.74663 0.0
C1584 C 0.1392 0.39573 0.7341 0.0
C1585 C 0.15199 0.39042 0.72893 0.0
C1586 C 0.132 0.35233 0.76141 0.0
C1587 C 0.13494 0.37371 0.74619 0.0
C1588 C 0.12361 0.34383 0.76993 0.0
C1589 C 0.10954 0.34747 0.77257 0.0
C1590 C 0.12635 0.36465 0.75555 0.0
C1591 C 0.10434 0.35999 0.76668 0.0
C1592 C 0.13063 0.38739 0.74265 0.0
C1593 C 0.15574 0.37657 0.73245 0.0
N1594 N 0.11275 0.36814 0.75844 0.0
N1595 N 0.1473 0.36874 0.74092 0.0
H1596 H 0.62963 0.16871 0.72639 0.0
H1597 H 0.63758 0.09562 0.76726 0.0
H1598 H 0.59567 0.13877 0.73034 0.0
H1599 H 0.66701 0.13002 0.77118 0.0
H1600 H 0.62269 0.11046 0.7524 0.0
H1601 H 0.64428 0.15362 0.74112 0.0
C1602 C 0.62527 0.15892 0.73027 0.0
C1603 C 0.61137 0.15502 0.72713 0.0
C1604 C 0.63237 0.11476 0.75657 0.0
C1605 C 0.62811 0.13772 0.74408 0.0
C1606 C 0.64088 0.10631 0.76507 0.0
C1607 C 0.65358 0.11158 0.77049 0.0
C1608 C 0.63666 0.12854 0.75336 0.0
C1609 C 0.65731 0.12551 0.76728 0.0
C1610 C 0.63363 0.15034 0.73875 0.0
C1611 C 0.60631 0.14221 0.73251 0.0
N1612 N 0.64893 0.13347 0.75887 0.0
N1613 N 0.61468 0.13401 0.74071 0.0
H1614 H 0.90671 0.63639 0.76866 0.0
H1615 H 0.8341 0.62826 0.72703 0.0
H1616 H 0.87253 0.66617 0.77161 0.0
H1617 H 0.8635 0.59402 0.73228 0.0
H1618 H 0.84917 0.64309 0.74159 0.0
H1619 H 0.89192 0.62132 0.75392 0.0
C1620 C 0.89608 0.63974 0.76627 0.0
C1621 C 0.89086 0.65258 0.77139 0.0
C1622 C 0.85233 0.63234 0.73955 0.0
C1623 C 0.87396 0.63546 0.7544 0.0
C1624 C 0.84377 0.62387 0.73115 0.0
C1625 C 0.84751 0.60984 0.72843 0.0
C1626 C 0.8648 0.62679 0.7452 0.0
C1627 C 0.86017 0.60475 0.73412 0.0
C1628 C 0.88765 0.63113 0.75786 0.0
C1629 C 0.877 0.65636 0.76795 0.0
N1630 N 0.86837 0.61323 0.74224 0.0
N1631 N 0.86907 0.64788 0.75961 0.0
H1632 H 0.22679 0.33213 0.1283 0.0
H1633 H 0.26752 0.40514 0.1371 0.0
H1634 H 0.23076 0.36226 0.09451 0.0
H1635 H 0.27251 0.36993 0.1654 0.0
H1636 H 0.25254 0.39053 0.12206 0.0
H1637 H 0.24167 0.34703 0.14298 0.0
C1638 C 0.2307 0.34193 0.12398 0.0
C1639 C 0.22753 0.34593 0.11012 0.0
C1640 C 0.25698 0.386 0.13153 0.0
C1641 C 0.24465 0.36303 0.1269 0.0
C1642 C 0.26554 0.39432 0.14012 0.0
C1643 C 0.2713 0.38876 0.15254 0.0
C1644 C 0.25402 0.37208 0.13548 0.0
C1645 C 0.26835 0.37467 0.15591 0.0
C1646 C 0.23927 0.35039 0.13236 0.0
C1647 C 0.23295 0.35874 0.10512 0.0
N1648 N 0.25986 0.36686 0.14749 0.0
N1649 N 0.24124 0.36684 0.11351 0.0
H1650 H 0.22547 0.66687 0.87028 0.0
H1651 H 0.26712 0.59422 0.86294 0.0
H1652 H 0.23099 0.63811 0.90503 0.0
H1653 H 0.27077 0.62846 0.83328 0.0
H1654 H 0.25226 0.6091 0.87782 0.0
H1655 H 0.24008 0.65162 0.85569 0.0
C1656 C 0.22966 0.65729 0.87483 0.0
C1657 C 0.22701 0.65379 0.88893 0.0
C1658 C 0.25638 0.61335 0.86809 0.0
C1659 C 0.24383 0.6363 0.87225 0.0
C1660 C 0.26486 0.60488 0.85958 0.0
C1661 C 0.27021 0.61009 0.84683 0.0
C1662 C 0.25309 0.62708 0.86373 0.0
C1663 C 0.26693 0.62399 0.84303 0.0
C1664 C 0.23808 0.64864 0.8665 0.0
C1665 C 0.23278 0.64125 0.89423 0.0
N1666 N 0.25852 0.63196 0.85139 0.0
N1667 N 0.24091 0.63295 0.88588 0.0
H1668 H 0.36994 0.27323 0.83329 0.0
H1669 H 0.36283 0.23128 0.9058 0.0
H1670 H 0.40478 0.26749 0.86188 0.0
H1671 H 0.33282 0.22814 0.87183 0.0
H1672 H 0.37773 0.24607 0.89086 0.0
H1673 H 0.35537 0.25858 0.84853 0.0
C1674 C 0.37451 0.26898 0.84282 0.0
C1675 C 0.38863 0.27159 0.84628 0.0
C1676 C 0.36791 0.24208 0.88668 0.0
C1677 C 0.37198 0.25473 0.86377 0.0
C1678 C 0.3594 0.23363 0.89519 0.0
C1679 C 0.34654 0.22845 0.89007 0.0
C1680 C 0.36346 0.24549 0.87301 0.0
C1681 C 0.34265 0.23185 0.87623 0.0
C1682 C 0.3662 0.26054 0.85148 0.0
C1683 C 0.39397 0.26574 0.85877 0.0
N1684 N 0.35102 0.24022 0.86822 0.0
N1685 N 0.38563 0.25759 0.86707 0.0
H1686 H 0.72639 0.37054 0.83465 0.0
H1687 H 0.76842 0.36371 0.90715 0.0
H1688 H 0.73174 0.40533 0.86339 0.0
H1689 H 0.77167 0.33366 0.87322 0.0
H1690 H 0.7535 0.37848 0.89223 0.0
H1691 H 0.74114 0.35605 0.84986 0.0
C1692 C 0.73058 0.37512 0.84421 0.0
C1693 C 0.72783 0.3892 0.84772 0.0
C1694 C 0.75754 0.36868 0.88805 0.0
C1695 C 0.74481 0.37264 0.86517 0.0
C1696 C 0.76606 0.36024 0.89655 0.0
C1697 C 0.77132 0.34741 0.89144 0.0
C1698 C 0.75412 0.36418 0.8744 0.0
C1699 C 0.76791 0.34347 0.87761 0.0
C1700 C 0.73908 0.36685 0.85285 0.0
C1701 C 0.73361 0.39454 0.86024 0.0
N1702 N 0.75947 0.35178 0.86961 0.0
N1703 N 0.74182 0.38625 0.86852 0.0
H1704 H 0.59605 0.73153 0.86138 0.0
H1705 H 0.66898 0.77213 0.87122 0.0
H1706 H 0.6311 0.72756 0.83274 0.0
H1707 H 0.63883 0.7672 0.90486 0.0
H1708 H 0.65414 0.7576 0.85614 0.0
H1709 H 0.61068 0.74608 0.8768 0.0
C1710 C 0.60683 0.73366 0.85836 0.0
C1711 C 0.61235 0.72831 0.84574 0.0
C1712 C 0.65076 0.7597 0.86682 0.0
C1713 C 0.62907 0.74507 0.86325 0.0
C1714 C 0.6592 0.76807 0.87542 0.0
C1715 C 0.65517 0.77088 0.88935 0.0
C1716 C 0.63813 0.75418 0.8721 0.0
C1717 C 0.64237 0.76528 0.8942 0.0
C1718 C 0.61517 0.74196 0.86717 0.0
C1719 C 0.6264 0.73141 0.84238 0.0
N1720 N 0.6343 0.75721 0.88558 0.0
N1721 N 0.63423 0.73965 0.85103 0.0
H1722 H 0.76755 0.63628 0.09366 0.0
H1723 H 0.72672 0.6285 0.16678 0.0
H1724 H 0.77103 0.66611 0.12776 0.0
H1725 H 0.7318 0.59404 0.13759 0.0
H1726 H 0.74111 0.64325 0.15146 0.0
H1727 H 0.75294 0.62129 0.10868 0.0
C1728 C 0.7653 0.63965 0.10432 0.0
C1729 C 0.77054 0.65248 0.10945 0.0
C1730 C 0.73906 0.63246 0.14839 0.0
C1731 C 0.7537 0.63545 0.12661 0.0
C1732 C 0.73077 0.62405 0.1571 0.0
C1733 C 0.72806 0.60998 0.15349 0.0
C1734 C 0.74461 0.62684 0.13591 0.0
C1735 C 0.73365 0.60481 0.14082 0.0
C1736 C 0.75696 0.63109 0.11287 0.0
C1737 C 0.76727 0.65631 0.12335 0.0
N1738 N 0.74165 0.61324 0.13248 0.0
N1739 N 0.75901 0.64787 0.1314 0.0
H1740 H 0.33295 0.77215 0.12985 0.0
H1741 H 0.40621 0.73178 0.13852 0.0
H1742 H 0.36283 0.76772 0.09591 0.0
H1743 H 0.37158 0.72768 0.16765 0.0
H1744 H 0.3914 0.7465 0.12345 0.0
H1745 H 0.34812 0.75774 0.14473 0.0
C1746 C 0.34274 0.76823 0.12554 0.0
C1747 C 0.34659 0.77113 0.11158 0.0
C1748 C 0.38704 0.74232 0.13312 0.0
C1749 C 0.364 0.75456 0.12859 0.0
C1750 C 0.39549 0.73391 0.14173 0.0
C1751 C 0.39014 0.72846 0.15438 0.0
C1752 C 0.37321 0.74543 0.13727 0.0
C1753 C 0.37615 0.7316 0.15799 0.0
C1754 C 0.35136 0.75993 0.13403 0.0
C1755 C 0.35941 0.76572 0.10659 0.0
N1756 N 0.36821 0.73993 0.14952 0.0
N1757 N 0.36766 0.7577 0.11509 0.0
H1758 H 0.63642 0.23178 0.09356 0.0
H1759 H 0.62878 0.27237 0.16681 0.0
H1760 H 0.66637 0.22831 0.12755 0.0
H1761 H 0.59426 0.26744 0.13767 0.0
H1762 H 0.64345 0.25796 0.15145 0.0
H1763 H 0.62139 0.24624 0.10869 0.0
C1764 C 0.63981 0.23399 0.10421 0.0
C1765 C 0.65269 0.22881 0.10929 0.0
C1766 C 0.63267 0.26004 0.14841 0.0
C1767 C 0.63562 0.24548 0.12657 0.0
C1768 C 0.62429 0.26834 0.15714 0.0
C1769 C 0.61024 0.27111 0.15355 0.0
C1770 C 0.62702 0.25453 0.13592 0.0
C1771 C 0.60502 0.26555 0.14088 0.0
C1772 C 0.63123 0.24225 0.11283 0.0
C1773 C 0.65653 0.23203 0.12319 0.0
N1774 N 0.61342 0.25753 0.13252 0.0
N1775 N 0.64808 0.24021 0.1313 0.0
H1776 H 0.90709 0.7673 0.63637 0.0
H1777 H 0.83355 0.72723 0.62884 0.0
H1778 H 0.87308 0.77119 0.66626 0.0
H1779 H 0.86273 0.73183 0.59431 0.0
H1780 H 0.84901 0.74157 0.64348 0.0
H1781 H 0.89188 0.75287 0.62141 0.0
C1782 C 0.89641 0.76519 0.63977 0.0
C1783 C 0.89136 0.77048 0.65261 0.0
C1784 C 0.85204 0.73943 0.6327 0.0
C1785 C 0.87399 0.75384 0.63561 0.0
C1786 C 0.84325 0.73118 0.62435 0.0
C1787 C 0.84682 0.72833 0.6103 0.0
C1788 C 0.86457 0.74482 0.62704 0.0
C1789 C 0.85953 0.73378 0.60507 0.0
C1790 C 0.88775 0.75694 0.63122 0.0
C1791 C 0.87743 0.76738 0.65645 0.0
N1792 N 0.86796 0.74176 0.61345 0.0
N1793 N 0.86928 0.75921 0.64803 0.0
H1794 H 0.22636 0.87207 0.66653 0.0
H1795 H 0.26681 0.86455 0.59322 0.0
H1796 H 0.23131 0.90665 0.63746 0.0
H1797 H 0.27061 0.83465 0.62722 0.0
H1798 H 0.25236 0.87952 0.60839 0.0
H1799 H 0.24079 0.85743 0.65116 0.0
C1800 C 0.2304 0.87657 0.65687 0.0
C1801 C 0.22762 0.89064 0.6533 0.0
C1802 C 0.25642 0.86971 0.61253 0.0
C1803 C 0.24422 0.8739 0.63566 0.0
C1804 C 0.26467 0.86116 0.60388 0.0
C1805 C 0.26994 0.84831 0.60895 0.0
C1806 C 0.25328 0.86532 0.62628 0.0
C1807 C 0.26682 0.84447 0.62287 0.0
C1808 C 0.23871 0.86822 0.64813 0.0
C1809 C 0.2332 0.89588 0.64065 0.0
N1810 N 0.25863 0.85289 0.63101 0.0
N1811 N 0.24122 0.8875 0.63227 0.0
H1812 H 0.12821 0.22702 0.66723 0.0
H1813 H 0.1366 0.2674 0.59394 0.0
H1814 H 0.09387 0.23221 0.63794 0.0
H1815 H 0.16617 0.27101 0.62825 0.0
H1816 H 0.12145 0.25292 0.60894 0.0
H1817 H 0.14311 0.24121 0.65188 0.0
C1818 C 0.12381 0.23106 0.65753 0.0
C1819 C 0.10974 0.22843 0.6539 0.0
C1820 C 0.13123 0.25694 0.61318 0.0
C1821 C 0.12677 0.24477 0.63628 0.0
C1822 C 0.13989 0.26521 0.60463 0.0
C1823 C 0.15269 0.27044 0.60984 0.0
C1824 C 0.13548 0.25376 0.62697 0.0
C1825 C 0.15639 0.26725 0.62379 0.0
C1826 C 0.13231 0.23924 0.6488 0.0
C1827 C 0.10464 0.234 0.64118 0.0
N1828 N 0.14787 0.25906 0.63182 0.0
N1829 N 0.11316 0.2419 0.63282 0.0
H1830 H 0.76718 0.09248 0.63583 0.0
H1831 H 0.72762 0.16623 0.62784 0.0
H1832 H 0.77248 0.12721 0.66465 0.0
H1833 H 0.73123 0.13651 0.59366 0.0
H1834 H 0.74216 0.15088 0.64238 0.0
H1835 H 0.75247 0.1075 0.62093 0.0
C1836 C 0.76532 0.10327 0.63899 0.0
C1837 C 0.77109 0.10858 0.65152 0.0
C1838 C 0.73977 0.14771 0.63171 0.0
C1839 C 0.75413 0.12574 0.63461 0.0
C1840 C 0.73138 0.15643 0.62341 0.0
C1841 C 0.72821 0.15268 0.60948 0.0
C1842 C 0.74495 0.13505 0.62611 0.0
C1843 C 0.73344 0.13984 0.60433 0.0
C1844 C 0.75692 0.11182 0.63048 0.0
C1845 C 0.7683 0.12265 0.65508 0.0
N1846 N 0.74154 0.13148 0.61265 0.0
N1847 N 0.75996 0.1307 0.64672 0.0
H1848 H 0.87131 0.22682 0.33333 0.0
H1849 H 0.86249 0.26809 0.40608 0.0
H1850 H 0.90549 0.23252 0.36272 0.0
H1851 H 0.83283 0.27086 0.37177 0.0
H1852 H 0.87779 0.25359 0.39127 0.0
H1853 H 0.85629 0.24114 0.34843 0.0
C1854 C 0.87564 0.23099 0.34301 0.0
C1855 C 0.88971 0.22847 0.34674 0.0
C1856 C 0.86796 0.25743 0.38698 0.0
C1857 C 0.87253 0.24495 0.36407 0.0
C1858 C 0.85922 0.26571 0.39542 0.0
C1859 C 0.84634 0.27071 0.39016 0.0
C1860 C 0.86373 0.254 0.37325 0.0
C1861 C 0.84266 0.26728 0.37627 0.0
C1862 C 0.86707 0.23925 0.35159 0.0
C1863 C 0.89473 0.23421 0.3594 0.0
N1864 N 0.85127 0.25908 0.36834 0.0
N1865 N 0.88614 0.24218 0.36762 0.0
H1866 H 0.76739 0.90781 0.36149 0.0
H1867 H 0.72608 0.83519 0.37094 0.0
H1868 H 0.7707 0.87291 0.33257 0.0
H1869 H 0.73215 0.86456 0.40509 0.0
H1870 H 0.74021 0.85031 0.35577 0.0
H1871 H 0.75262 0.89329 0.37683 0.0
C1872 C 0.76507 0.89709 0.35839 0.0
C1873 C 0.77033 0.89157 0.34573 0.0
C1874 C 0.73843 0.85346 0.36658 0.0
C1875 C 0.75331 0.875 0.36314 0.0
C1876 C 0.73029 0.84487 0.37524 0.0
C1877 C 0.72796 0.84857 0.38935 0.0
C1878 C 0.74422 0.86593 0.372 0.0
C1879 C 0.73372 0.86125 0.39431 0.0
C1880 C 0.75664 0.88882 0.36715 0.0
C1881 C 0.76695 0.87761 0.34225 0.0
N1882 N 0.7416 0.86948 0.38563 0.0
N1883 N 0.7586 0.86985 0.35086 0.0
H1884 H 0.16768 0.72793 0.37157 0.0
H1885 H 0.09422 0.76792 0.363 0.0
H1886 H 0.13774 0.73203 0.4055 0.0
H1887 H 0.12875 0.77216 0.33376 0.0
H1888 H 0.1092 0.75343 0.37812 0.0
H1889 H 0.15253 0.74246 0.35679 0.0
C1890 C 0.15788 0.7318 0.3759 0.0
C1891 C 0.154 0.72875 0.38982 0.0
C1892 C 0.1135 0.7576 0.36843 0.0
C1893 C 0.1366 0.74547 0.37293 0.0
C1894 C 0.10496 0.76587 0.35978 0.0
C1895 C 0.11023 0.77127 0.34707 0.0
C1896 C 0.12734 0.75456 0.36426 0.0
C1897 C 0.12424 0.76826 0.34347 0.0
C1898 C 0.14927 0.74017 0.36747 0.0
C1899 C 0.14117 0.73412 0.39484 0.0
N1900 N 0.13227 0.76005 0.35197 0.0
N1901 N 0.13293 0.74221 0.38639 0.0
H1902 H 0.2276 0.12867 0.33364 0.0
H1903 H 0.26892 0.1366 0.40641 0.0
H1904 H 0.23302 0.09414 0.36269 0.0
H1905 H 0.27239 0.1662 0.3721 0.0
H1906 H 0.25429 0.12152 0.39151 0.0
H1907 H 0.24216 0.14338 0.3488 0.0
C1908 C 0.23176 0.12419 0.34326 0.0
C1909 C 0.22909 0.11012 0.34687 0.0
C1910 C 0.25832 0.13128 0.38724 0.0
C1911 C 0.24586 0.12695 0.36428 0.0
C1912 C 0.26667 0.1399 0.39573 0.0
C1913 C 0.2719 0.1527 0.39051 0.0
C1914 C 0.25503 0.13557 0.37349 0.0
C1915 C 0.26864 0.15642 0.37658 0.0
C1916 C 0.24016 0.13259 0.35187 0.0
C1917 C 0.23483 0.10492 0.35946 0.0
N1918 N 0.26035 0.14795 0.3686 0.0
N1919 N 0.24294 0.11334 0.36773 0.0
H1920 H 0.6458 0.87769 0.78697 0.0
H1921 H 0.62173 0.85377 0.71227 0.0
H1922 H 0.65051 0.90638 0.7521 0.0
H1923 H 0.59312 0.8489 0.74717 0.0
H1924 H 0.63609 0.86978 0.7267 0.0
H1925 H 0.62977 0.86333 0.77256 0.0
C1926 C 0.64342 0.88096 0.77631 0.0
C1927 C 0.64937 0.89324 0.7707 0.0
C1928 C 0.6266 0.86524 0.7311 0.0
C1929 C 0.63154 0.87678 0.7542 0.0
C1930 C 0.61847 0.85612 0.72294 0.0
C1931 C 0.60622 0.85012 0.72855 0.0
C1932 C 0.62269 0.86792 0.74507 0.0
C1933 C 0.60243 0.85345 0.74244 0.0
C1934 C 0.63429 0.87283 0.76816 0.0
C1935 C 0.646 0.89705 0.75683 0.0
N1936 N 0.61077 0.86198 0.75033 0.0
N1937 N 0.63746 0.88871 0.74895 0.0
H1938 H 0.13618 0.59375 0.73153 0.0
H1939 H 0.12782 0.66658 0.77273 0.0
H1940 H 0.16553 0.62824 0.72792 0.0
H1941 H 0.09367 0.63703 0.76775 0.0
H1942 H 0.14262 0.65152 0.75813 0.0
H1943 H 0.12109 0.60853 0.74627 0.0
C1944 C 0.13942 0.60444 0.73377 0.0
C1945 C 0.15215 0.60975 0.72846 0.0
C1946 C 0.13189 0.64832 0.76024 0.0
C1947 C 0.13502 0.62665 0.74546 0.0
C1948 C 0.12345 0.65688 0.76866 0.0
C1949 C 0.10945 0.65309 0.77146 0.0
C1950 C 0.12637 0.6358 0.75467 0.0
C1951 C 0.10438 0.64039 0.76584 0.0
C1952 C 0.13081 0.61287 0.74219 0.0
C1953 C 0.15581 0.6237 0.73173 0.0
N1954 N 0.11284 0.6322 0.75771 0.0
N1955 N 0.14733 0.63162 0.74007 0.0
H1956 H 0.34951 0.0925 0.7517 0.0
H1957 H 0.40758 0.15117 0.74795 0.0
H1958 H 0.35401 0.1217 0.78617 0.0
H1959 H 0.37841 0.1464 0.7135 0.0
H1960 H 0.3929 0.13535 0.76221 0.0
H1961 H 0.36518 0.10735 0.73745 0.0
C1962 C 0.35396 0.10193 0.75631 0.0
C1963 C 0.35051 0.10594 0.7701 0.0
C1964 C 0.38983 0.13773 0.75149 0.0
C1965 C 0.36849 0.12264 0.75403 0.0
C1966 C 0.39819 0.14664 0.74335 0.0
C1967 C 0.39415 0.15005 0.72956 0.0
C1968 C 0.37764 0.13189 0.74563 0.0
C1969 C 0.38182 0.14403 0.72411 0.0
C1970 C 0.36277 0.11039 0.74817 0.0
C1971 C 0.35641 0.11832 0.77555 0.0
N1972 N 0.37403 0.1351 0.73213 0.0
N1973 N 0.36526 0.1262 0.76753 0.0
H1974 H 0.90484 0.36364 0.76861 0.0
H1975 H 0.83203 0.37071 0.72724 0.0
H1976 H 0.87064 0.33398 0.77257 0.0
H1977 H 0.86082 0.4055 0.73233 0.0
H1978 H 0.84726 0.35628 0.74202 0.0
H1979 H 0.88983 0.37851 0.75386 0.0
C1980 C 0.89416 0.36029 0.76645 0.0
C1981 C 0.889 0.34753 0.77184 0.0
C1982 C 0.85026 0.36707 0.7399 0.0
C1983 C 0.87187 0.36441 0.75484 0.0
C1984 C 0.84161 0.3753 0.73138 0.0
C1985 C 0.84513 0.38937 0.72854 0.0
C1986 C 0.86261 0.37287 0.74555 0.0
C1987 C 0.85766 0.39473 0.73426 0.0
C1988 C 0.88561 0.36878 0.75803 0.0
C1989 C 0.87507 0.34373 0.76869 0.0
N1990 N 0.86596 0.38646 0.74249 0.0
N1991 N 0.86704 0.35208 0.76033 0.0
H1992 H 0.63634 0.0941 0.23204 0.0
H1993 H 0.62834 0.16706 0.27302 0.0
H1994 H 0.66527 0.12884 0.22745 0.0
H1995 H 0.59416 0.13744 0.26864 0.0
H1996 H 0.64292 0.15202 0.25817 0.0
H1997 H 0.62142 0.10889 0.24695 0.0
C1998 C 0.63952 0.10485 0.2341 0.0
C1999 C 0.65209 0.11023 0.22847 0.0
C2000 C 0.63223 0.1488 0.26047 0.0
C2001 C 0.63516 0.12713 0.24566 0.0
C2002 C 0.62392 0.15734 0.26903 0.0
C2003 C 0.60998 0.15353 0.27208 0.0
C2004 C 0.62664 0.13627 0.25499 0.0
C2005 C 0.60483 0.14083 0.26654 0.0
C2006 C 0.631 0.11328 0.24261 0.0
C2007 C 0.65567 0.12424 0.23151 0.0
N2008 N 0.61316 0.13264 0.25828 0.0
N2009 N 0.6473 0.13216 0.23996 0.0
H2010 H 0.87075 0.66677 0.22721 0.0
H2011 H 0.86318 0.59421 0.26903 0.0
H2012 H 0.90511 0.63745 0.23209 0.0
H2013 H 0.83353 0.62846 0.27247 0.0
H2014 H 0.87811 0.60903 0.25418 0.0
H2015 H 0.85618 0.65177 0.24211 0.0
C2016 C 0.87522 0.65713 0.23133 0.0
C2017 C 0.8892 0.65339 0.2284 0.0
C2018 C 0.86837 0.61331 0.25825 0.0
C2019 C 0.87255 0.63617 0.24554 0.0
C2020 C 0.85984 0.60486 0.26674 0.0
C2021 C 0.84706 0.61009 0.27201 0.0
C2022 C 0.86402 0.62703 0.25488 0.0
C2023 C 0.84329 0.62398 0.26868 0.0
C2024 C 0.86691 0.64861 0.23991 0.0
C2025 C 0.8944 0.64077 0.23409 0.0
N2026 N 0.85168 0.63192 0.26027 0.0
N2027 N 0.88607 0.63261 0.24238 0.0
H2028 H 0.36399 0.90598 0.23136 0.0
H2029 H 0.37162 0.83333 0.27295 0.0
H2030 H 0.33454 0.87158 0.22755 0.0
H2031 H 0.40611 0.86247 0.26784 0.0
H2032 H 0.35705 0.84839 0.25813 0.0
H2033 H 0.37894 0.89113 0.24618 0.0
C2034 C 0.3607 0.89529 0.23357 0.0
C2035 C 0.34798 0.89003 0.22819 0.0
C2036 C 0.3678 0.8515 0.26026 0.0
C2037 C 0.36495 0.87307 0.24528 0.0
C2038 C 0.37612 0.84294 0.2688 0.0
C2039 C 0.39014 0.84662 0.27164 0.0
C2040 C 0.37348 0.86391 0.25459 0.0
C2041 C 0.39538 0.8592 0.26591 0.0
C2042 C 0.36923 0.88684 0.24203 0.0
C2043 C 0.34426 0.87609 0.23141 0.0
N2044 N 0.38704 0.8674 0.25766 0.0
N2045 N 0.35266 0.86814 0.23981 0.0
H2046 H 0.14601 0.37771 0.28643 0.0
H2047 H 0.12143 0.35374 0.21201 0.0
H2048 H 0.15095 0.40631 0.25153 0.0
H2049 H 0.09265 0.34979 0.24689 0.0
H2050 H 0.13605 0.36964 0.2263 0.0
H2051 H 0.12971 0.36356 0.27211 0.0
C2052 C 0.14362 0.38101 0.27578 0.0
C2053 C 0.14972 0.39319 0.27013 0.0
C2054 C 0.12647 0.36532 0.23073 0.0
C2055 C 0.13159 0.37697 0.25373 0.0
C2056 C 0.11819 0.35626 0.22265 0.0
C2057 C 0.10582 0.35056 0.2283 0.0
C2058 C 0.12258 0.36822 0.24467 0.0
C2059 C 0.10206 0.3541 0.24214 0.0
C2060 C 0.13434 0.373 0.26768 0.0
C2061 C 0.14633 0.39704 0.25628 0.0
N2062 N 0.11054 0.36256 0.24996 0.0
N2063 N 0.13764 0.38882 0.24844 0.0
H2064 H 0.77346 0.6667 0.87194 0.0
H2065 H 0.73456 0.59264 0.86379 0.0
H2066 H 0.77015 0.6368 0.90601 0.0
H2067 H 0.72862 0.62745 0.83519 0.0
H2068 H 0.74917 0.60775 0.87867 0.0
H2069 H 0.75893 0.65132 0.85739 0.0
C2070 C 0.76977 0.65686 0.87634 0.0
C2071 C 0.77302 0.65306 0.89024 0.0
C2072 C 0.74461 0.61208 0.86917 0.0
C2073 C 0.75632 0.63541 0.87361 0.0
C2074 C 0.73626 0.60347 0.86067 0.0
C2075 C 0.73034 0.60878 0.84821 0.0
C2076 C 0.74719 0.62605 0.8651 0.0
C2077 C 0.73292 0.6229 0.84471 0.0
C2078 C 0.76139 0.64812 0.86804 0.0
C2079 C 0.76787 0.64018 0.89537 0.0
N2080 N 0.74121 0.63101 0.85306 0.0
N2081 N 0.75979 0.63181 0.88704 0.0
H2082 H 0.77264 0.3334 0.12878 0.0
H2083 H 0.73211 0.40657 0.13748 0.0
H2084 H 0.76801 0.36321 0.09479 0.0
H2085 H 0.72817 0.37196 0.16667 0.0
H2086 H 0.74677 0.39174 0.12236 0.0
H2087 H 0.75818 0.34852 0.14366 0.0
C2088 C 0.76867 0.34317 0.12446 0.0
C2089 C 0.77153 0.34701 0.11049 0.0
C2090 C 0.74263 0.3874 0.13205 0.0
C2091 C 0.7549 0.36437 0.1275 0.0
C2092 C 0.73426 0.39584 0.14069 0.0
C2093 C 0.72888 0.3905 0.15337 0.0
C2094 C 0.74578 0.37357 0.13619 0.0
C2095 C 0.73203 0.37652 0.15697 0.0
C2096 C 0.76034 0.35177 0.13295 0.0
C2097 C 0.76605 0.3598 0.10548 0.0
N2098 N 0.74033 0.36858 0.14847 0.0
N2099 N 0.758 0.36803 0.11399 0.0
H2100 H 0.6364 0.76761 0.09371 0.0
H2101 H 0.62918 0.72669 0.16682 0.0
H2102 H 0.66639 0.77125 0.12765 0.0
H2103 H 0.5945 0.73184 0.13792 0.0
H2104 H 0.64381 0.74112 0.15141 0.0
H2105 H 0.62156 0.75295 0.10881 0.0
C2106 C 0.63984 0.76539 0.10434 0.0
C2107 C 0.65267 0.77069 0.10941 0.0
C2108 C 0.633 0.73908 0.14844 0.0
C2109 C 0.63581 0.75379 0.12666 0.0
C2110 C 0.62465 0.73077 0.15719 0.0
C2111 C 0.61056 0.72806 0.15369 0.0
C2112 C 0.62728 0.74466 0.13601 0.0
C2113 C 0.60529 0.73368 0.14107 0.0
C2114 C 0.63136 0.75702 0.11295 0.0
C2115 C 0.65658 0.76745 0.12329 0.0
N2116 N 0.61365 0.74171 0.13268 0.0
N2117 N 0.64822 0.75915 0.13139 0.0
H2118 H 0.26598 0.59273 0.13558 0.0
H2119 H 0.22573 0.66612 0.12774 0.0
H2120 H 0.27058 0.62726 0.16476 0.0
H2121 H 0.23025 0.63681 0.09331 0.0
H2122 H 0.24017 0.65076 0.14237 0.0
H2123 H 0.25126 0.60771 0.12066 0.0
C2124 C 0.26396 0.60347 0.13883 0.0
C2125 C 0.26955 0.60874 0.15145 0.0
C2126 C 0.23799 0.64767 0.13162 0.0
C2127 C 0.25257 0.62585 0.13452 0.0
C2128 C 0.22967 0.65641 0.12327 0.0
C2129 C 0.22679 0.65278 0.10924 0.0
C2130 C 0.24341 0.63514 0.12597 0.0
C2131 C 0.23223 0.64006 0.10404 0.0
C2132 C 0.25555 0.612 0.1303 0.0
C2133 C 0.26656 0.62274 0.15511 0.0
N2134 N 0.24028 0.63169 0.11241 0.0
N2135 N 0.25822 0.63077 0.14673 0.0
H2136 H 0.36254 0.23193 0.09332 0.0
H2137 H 0.37173 0.27193 0.16671 0.0
H2138 H 0.33332 0.22813 0.12791 0.0
H2139 H 0.40569 0.267 0.13693 0.0
H2140 H 0.35668 0.25775 0.1515 0.0
H2141 H 0.37784 0.24633 0.10822 0.0
C2142 C 0.35936 0.23406 0.10406 0.0
C2143 C 0.34662 0.2288 0.10937 0.0
C2144 C 0.36742 0.25978 0.14828 0.0
C2145 C 0.364 0.24539 0.1264 0.0
C2146 C 0.37601 0.26795 0.15693 0.0
C2147 C 0.39002 0.27065 0.15312 0.0
C2148 C 0.37281 0.25434 0.13565 0.0
C2149 C 0.39497 0.26516 0.14031 0.0
C2150 C 0.3681 0.24228 0.11255 0.0
C2151 C 0.34305 0.23191 0.12337 0.0
N2152 N 0.38637 0.25727 0.13203 0.0
N2153 N 0.35166 0.24006 0.13136 0.0
H2154 H 0.27238 0.37154 0.83378 0.0
H2155 H 0.23153 0.36316 0.9068 0.0
H2156 H 0.26694 0.4059 0.86302 0.0
H2157 H 0.22812 0.33356 0.87248 0.0
H2158 H 0.24604 0.37833 0.89187 0.0
H2159 H 0.25805 0.35666 0.84902 0.0
C2160 C 0.26826 0.37595 0.84345 0.0
C2161 C 0.27086 0.39003 0.8471 0.0
C2162 C 0.24206 0.36854 0.88761 0.0
C2163 C 0.25437 0.373 0.86459 0.0
C2164 C 0.23377 0.35987 0.89611 0.0
C2165 C 0.22858 0.34706 0.89089 0.0
C2166 C 0.24532 0.36429 0.87384 0.0
C2167 C 0.23184 0.34335 0.87696 0.0
C2168 C 0.26 0.36745 0.85211 0.0
C2169 C 0.26518 0.39513 0.85976 0.0
N2170 N 0.24006 0.35188 0.86896 0.0
N2171 N 0.25721 0.38662 0.86806 0.0
H2172 H 0.6672 0.2285 0.87157 0.0
H2173 H 0.59303 0.26727 0.86349 0.0
H2174 H 0.63742 0.23209 0.9057 0.0
H2175 H 0.62742 0.27242 0.83424 0.0
H2176 H 0.6083 0.25291 0.87846 0.0
H2177 H 0.65172 0.24282 0.85691 0.0
C2178 C 0.65736 0.23222 0.87597 0.0
C2179 C 0.65362 0.22909 0.88991 0.0
C2180 C 0.6125 0.25725 0.86879 0.0
C2181 C 0.63585 0.24555 0.87316 0.0
C2182 C 0.60379 0.26544 0.86024 0.0
C2183 C 0.60894 0.27107 0.84758 0.0
C2184 C 0.6264 0.25452 0.86458 0.0
C2185 C 0.62299 0.26834 0.84392 0.0
C2186 C 0.64856 0.24047 0.86761 0.0
C2187 C 0.64075 0.23426 0.89503 0.0
N2188 N 0.63119 0.2602 0.85233 0.0
N2189 N 0.63232 0.24222 0.88665 0.0
H2190 H 0.35408 0.78638 0.878 0.0
H2191 H 0.37903 0.71233 0.85354 0.0
H2192 H 0.35032 0.75148 0.90679 0.0
H2193 H 0.40733 0.74751 0.84886 0.0
H2194 H 0.36469 0.72645 0.86984 0.0
H2195 H 0.37031 0.77229 0.86355 0.0
C2196 C 0.35672 0.77578 0.88128 0.0
C2197 C 0.35096 0.77006 0.8936 0.0
C2198 C 0.3741 0.73098 0.86528 0.0
C2199 C 0.36902 0.75392 0.87704 0.0
C2200 C 0.38222 0.72299 0.856 0.0
C2201 C 0.39437 0.72878 0.84996 0.0
C2202 C 0.37793 0.74496 0.86809 0.0
C2203 C 0.39809 0.74265 0.85343 0.0
C2204 C 0.36596 0.76781 0.87309 0.0
C2205 C 0.35467 0.75628 0.89741 0.0
N2206 N 0.38976 0.75038 0.86211 0.0
N2207 N 0.36331 0.74857 0.88903 0.0
H2208 H 0.05741 0.24186 0.28995 0.0
H2209 H 0.09236 0.27226 0.21995 0.0
H2210 H 0.09209 0.22196 0.26836 0.0
H2211 H 0.05673 0.29131 0.24075 0.0
H2212 H 0.0906 0.25221 0.23593 0.0
H2213 H 0.05515 0.25843 0.27045 0.0
C2214 C 0.06445 0.24086 0.28104 0.0
C2215 C 0.07508 0.2306 0.2809 0.0
C2216 C 0.08307 0.26071 0.2369 0.0
C2217 C 0.07261 0.24963 0.25856 0.0
C2218 C 0.08406 0.27217 0.22777 0.0
C2219 C 0.07479 0.28359 0.22911 0.0
C2220 C 0.07278 0.26068 0.24752 0.0
C2221 C 0.0642 0.28281 0.23939 0.0
C2222 C 0.06316 0.25034 0.2699 0.0
C2223 C 0.08381 0.22976 0.26901 0.0
N2224 N 0.06358 0.27164 0.24829 0.0
N2225 N 0.08249 0.23925 0.2584 0.0
H2226 H 0.7572 0.05913 0.2916 0.0
H2227 H 0.73005 0.0911 0.21882 0.0
H2228 H 0.77913 0.09141 0.26831 0.0
H2229 H 0.70738 0.05979 0.24272 0.0
H2230 H 0.74979 0.08883 0.23508 0.0
H2231 H 0.74062 0.05674 0.27212 0.0
C2232 C 0.75864 0.06561 0.28233 0.0
C2233 C 0.76948 0.07562 0.28169 0.0
C2234 C 0.74055 0.08234 0.23669 0.0
C2235 C 0.75046 0.07299 0.25937 0.0
C2236 C 0.72927 0.08362 0.22739 0.0
C2237 C 0.71694 0.07576 0.2295 0.0
C2238 C 0.73951 0.07318 0.24824 0.0
C2239 C 0.71661 0.06616 0.24074 0.0
C2240 C 0.74915 0.06424 0.27121 0.0
C2241 C 0.77087 0.08364 0.26935 0.0
N2242 N 0.72766 0.06526 0.24977 0.0
N2243 N 0.76138 0.08225 0.25875 0.0
H2244 H 0.91015 0.731 0.21878 0.0
H2245 H 0.94242 0.7564 0.29201 0.0
H2246 H 0.9409 0.70735 0.24244 0.0
H2247 H 0.91048 0.77917 0.26907 0.0
H2248 H 0.94476 0.74024 0.27217 0.0
H2249 H 0.91292 0.75053 0.23522 0.0
C2250 C 0.91761 0.72996 0.22733 0.0
C2251 C 0.92515 0.71742 0.22934 0.0
C2252 C 0.93735 0.74887 0.27141 0.0
C2253 C 0.9283 0.73974 0.24828 0.0
C2254 C 0.93602 0.75812 0.28274 0.0
C2255 C 0.92609 0.76905 0.28231 0.0
C2256 C 0.92865 0.75051 0.25958 0.0
C2257 C 0.91817 0.77081 0.26996 0.0
C2258 C 0.91918 0.74113 0.23673 0.0
C2259 C 0.93476 0.71675 0.24055 0.0
N2260 N 0.91951 0.76154 0.25916 0.0
N2261 N 0.93593 0.72769 0.24969 0.0
H2262 H 0.22014 0.90954 0.26839 0.0
H2263 H 0.29332 0.94164 0.24249 0.0
H2264 H 0.24385 0.94052 0.29171 0.0
H2265 H 0.27032 0.90953 0.22001 0.0
H2266 H 0.27362 0.94393 0.25882 0.0
H2267 H 0.23665 0.91199 0.24888 0.0
C2268 C 0.22872 0.91699 0.26936 0.0
C2269 C 0.2307 0.9247 0.28181 0.0
C2270 C 0.27282 0.93649 0.25022 0.0
C2271 C 0.24973 0.92748 0.2595 0.0
C2272 C 0.28407 0.93518 0.24087 0.0
C2273 C 0.28357 0.92524 0.22995 0.0
C2274 C 0.26099 0.92775 0.24869 0.0
C2275 C 0.27125 0.91724 0.22834 0.0
C2276 C 0.23816 0.91836 0.25821 0.0
C2277 C 0.24196 0.93425 0.28239 0.0
N2278 N 0.26052 0.91857 0.2377 0.0
N2279 N 0.25113 0.93526 0.27146 0.0
H2280 H 0.08747 0.73077 0.78083 0.0
H2281 H 0.05802 0.75629 0.70643 0.0
H2282 H 0.05836 0.70667 0.7556 0.0
H2283 H 0.08864 0.77926 0.73091 0.0
H2284 H 0.05518 0.73982 0.72596 0.0
H2285 H 0.08513 0.75033 0.76438 0.0
C2286 C 0.08045 0.72963 0.77192 0.0
C2287 C 0.07325 0.71696 0.76949 0.0
C2288 C 0.06241 0.74855 0.72711 0.0
C2289 C 0.07061 0.73933 0.75053 0.0
C2290 C 0.06403 0.75799 0.71597 0.0
C2291 C 0.07374 0.76908 0.71694 0.0
C2292 C 0.07058 0.7502 0.73932 0.0
C2293 C 0.08114 0.77079 0.72961 0.0
C2294 C 0.07913 0.74082 0.76251 0.0
C2295 C 0.06421 0.71618 0.75783 0.0
N2296 N 0.07952 0.76136 0.74023 0.0
N2297 N 0.06328 0.72715 0.74869 0.0
H2298 H 0.29076 0.05639 0.75933 0.0
H2299 H 0.22058 0.09331 0.73147 0.0
H2300 H 0.27248 0.09348 0.77818 0.0
H2301 H 0.24158 0.0592 0.71 0.0
H2302 H 0.2372 0.09094 0.75091 0.0
H2303 H 0.27058 0.05477 0.74356 0.0
C2304 C 0.28244 0.06411 0.76028 0.0
C2305 C 0.28344 0.07521 0.76999 0.0
C2306 C 0.23808 0.08388 0.74201 0.0
C2307 C 0.2603 0.07344 0.75187 0.0
C2308 C 0.22857 0.0852 0.7309 0.0
C2309 C 0.22979 0.07656 0.71897 0.0
C2310 C 0.24891 0.07386 0.7412 0.0
C2311 C 0.24032 0.06619 0.7189 0.0
C2312 C 0.27092 0.06319 0.75123 0.0
C2313 C 0.27225 0.08483 0.77077 0.0
N2314 N 0.24955 0.06523 0.72978 0.0
N2315 N 0.26121 0.0838 0.76173 0.0
H2316 H 0.94082 0.29313 0.75721 0.0
H2317 H 0.90858 0.22022 0.73072 0.0
H2318 H 0.9087 0.27 0.77954 0.0
H2319 H 0.93991 0.24384 0.70778 0.0
H2320 H 0.91096 0.23663 0.75032 0.0
H2321 H 0.94309 0.27353 0.74075 0.0
C2322 C 0.93436 0.28387 0.75877 0.0
C2323 C 0.92442 0.28331 0.76968 0.0
C2324 C 0.91742 0.23815 0.74106 0.0
C2325 C 0.9269 0.26085 0.75079 0.0
C2326 C 0.91608 0.22876 0.72985 0.0
C2327 C 0.92392 0.23075 0.71749 0.0
C2328 C 0.92662 0.24965 0.73991 0.0
C2329 C 0.93355 0.24195 0.71704 0.0
C2330 C 0.93565 0.27268 0.74934 0.0
C2331 C 0.91641 0.27098 0.77121 0.0
N2332 N 0.93451 0.25107 0.72802 0.0
N2333 N 0.91772 0.26031 0.76178 0.0
H2334 H 0.72762 0.90521 0.77952 0.0
H2335 H 0.75962 0.94085 0.71062 0.0
H2336 H 0.7098 0.94181 0.75931 0.0
H2337 H 0.77838 0.90514 0.73154 0.0
H2338 H 0.743 0.94315 0.73005 0.0
H2339 H 0.74789 0.90676 0.7638 0.0
C2340 C 0.72802 0.91367 0.77189 0.0
C2341 C 0.71688 0.92328 0.77063 0.0
C2342 C 0.75085 0.9349 0.73047 0.0
C2343 C 0.74004 0.92506 0.75252 0.0
C2344 C 0.76036 0.93358 0.71937 0.0
C2345 C 0.77031 0.92267 0.71934 0.0
C2346 C 0.75119 0.92517 0.74159 0.0
C2347 C 0.77082 0.91364 0.73104 0.0
C2348 C 0.73961 0.91455 0.7629 0.0
C2349 C 0.71806 0.93408 0.7606 0.0
N2350 N 0.76129 0.915 0.74161 0.0
N2351 N 0.72935 0.93458 0.75184 0.0
H2352 H 0.21999 0.08969 0.26896 0.0
H2353 H 0.29316 0.05792 0.24274 0.0
H2354 H 0.24409 0.05906 0.29233 0.0
H2355 H 0.26974 0.08968 0.2202 0.0
H2356 H 0.27357 0.05555 0.25919 0.0
H2357 H 0.23631 0.08715 0.24932 0.0
C2358 C 0.22861 0.0823 0.26992 0.0
C2359 C 0.23077 0.07472 0.28242 0.0
C2360 C 0.27266 0.06293 0.25055 0.0
C2361 C 0.24958 0.07184 0.25995 0.0
C2362 C 0.28384 0.06428 0.24113 0.0
C2363 C 0.28319 0.07416 0.23016 0.0
C2364 C 0.26075 0.07155 0.24905 0.0
C2365 C 0.27078 0.08203 0.22857 0.0
C2366 C 0.23795 0.08087 0.25868 0.0
C2367 C 0.24208 0.06523 0.28297 0.0
N2368 N 0.26013 0.08066 0.238 0.0
N2369 N 0.25114 0.06417 0.27196 0.0
H2370 H 0.94094 0.29388 0.24321 0.0
H2371 H 0.91137 0.21957 0.26889 0.0
H2372 H 0.91027 0.2694 0.22029 0.0
H2373 H 0.94054 0.24481 0.29291 0.0
H2374 H 0.91369 0.236 0.24931 0.0
H2375 H 0.94373 0.27438 0.25972 0.0
C2376 C 0.93492 0.28435 0.24153 0.0
C2377 C 0.9252 0.28337 0.23044 0.0
C2378 C 0.9197 0.23787 0.25881 0.0
C2379 C 0.9283 0.26103 0.24938 0.0
C2380 C 0.91839 0.22847 0.27001 0.0
C2381 C 0.92562 0.2309 0.28266 0.0
C2382 C 0.92824 0.24984 0.26027 0.0
C2383 C 0.93466 0.24258 0.28342 0.0
C2384 C 0.9365 0.27322 0.25099 0.0
C2385 C 0.91777 0.27071 0.22876 0.0
N2386 N 0.93559 0.25169 0.27244 0.0
N2387 N 0.91937 0.2601 0.23821 0.0
H2388 H 0.78043 0.90988 0.26749 0.0
H2389 H 0.70775 0.94236 0.24089 0.0
H2390 H 0.75727 0.94186 0.28998 0.0
H2391 H 0.73037 0.90956 0.21904 0.0
H2392 H 0.72756 0.94489 0.25704 0.0
H2393 H 0.76407 0.91223 0.24784 0.0
C2394 C 0.77201 0.91752 0.26824 0.0
C2395 C 0.77011 0.92554 0.28051 0.0
C2396 C 0.72825 0.93724 0.24862 0.0
C2397 C 0.75126 0.9282 0.25805 0.0
C2398 C 0.71694 0.9358 0.23937 0.0
C2399 C 0.71729 0.92559 0.2287 0.0
C2400 C 0.74 0.92838 0.24724 0.0
C2401 C 0.72955 0.91748 0.22719 0.0
C2402 C 0.76265 0.91885 0.25701 0.0
C2403 C 0.75907 0.93535 0.28081 0.0
N2404 N 0.74034 0.91894 0.23646 0.0
N2405 N 0.74997 0.93629 0.26982 0.0
H2406 H 0.05756 0.70683 0.24293 0.0
H2407 H 0.08966 0.77996 0.26898 0.0
H2408 H 0.08902 0.73033 0.22006 0.0
H2409 H 0.05925 0.75587 0.29263 0.0
H2410 H 0.08697 0.76361 0.24937 0.0
H2411 H 0.05546 0.72634 0.25952 0.0
C2412 C 0.06391 0.71615 0.24128 0.0
C2413 C 0.07363 0.71685 0.23017 0.0
C2414 C 0.08078 0.76197 0.25879 0.0
C2415 C 0.07133 0.7392 0.24921 0.0
C2416 C 0.0823 0.77133 0.27001 0.0
C2417 C 0.07481 0.7692 0.28256 0.0
C2418 C 0.07175 0.75035 0.26014 0.0
C2419 C 0.06534 0.75787 0.28321 0.0
C2420 C 0.06271 0.72729 0.25079 0.0
C2421 C 0.08149 0.72925 0.22854 0.0
N2422 N 0.06419 0.74879 0.27222 0.0
N2423 N 0.08027 0.73986 0.23804 0.0
H2424 H 0.21829 0.91107 0.73138 0.0
H2425 H 0.29216 0.94129 0.75743 0.0
H2426 H 0.24297 0.94119 0.70794 0.0
H2427 H 0.2681 0.91004 0.78001 0.0
H2428 H 0.27256 0.94414 0.74106 0.0
H2429 H 0.23465 0.91334 0.75102 0.0
C2430 C 0.22705 0.91829 0.73041 0.0
C2431 C 0.22935 0.9258 0.71789 0.0
C2432 C 0.27151 0.93677 0.74969 0.0
C2433 C 0.24822 0.92837 0.74035 0.0
C2434 C 0.2827 0.93515 0.75907 0.0
C2435 C 0.28187 0.92526 0.77001 0.0
C2436 C 0.25942 0.92842 0.75123 0.0
C2437 C 0.26929 0.91768 0.77165 0.0
C2438 C 0.23641 0.91957 0.74164 0.0
C2439 C 0.24084 0.93508 0.71732 0.0
N2440 N 0.25863 0.91931 0.76227 0.0
N2441 N 0.24993 0.93598 0.72832 0.0
H2442 H 0.05765 0.24401 0.70807 0.0
H2443 H 0.08927 0.2697 0.78152 0.0
H2444 H 0.08915 0.22114 0.73151 0.0
H2445 H 0.05855 0.29316 0.75763 0.0
H2446 H 0.08682 0.25019 0.76501 0.0
H2447 H 0.05533 0.26039 0.72773 0.0
C2448 C 0.06397 0.24232 0.71741 0.0
C2449 C 0.07375 0.23127 0.71805 0.0
C2450 C 0.0805 0.25955 0.76346 0.0
C2451 C 0.0712 0.25007 0.74057 0.0
C2452 C 0.08188 0.2707 0.7729 0.0
C2453 C 0.07424 0.28318 0.77087 0.0
C2454 C 0.07146 0.26088 0.75184 0.0
C2455 C 0.06476 0.2838 0.75955 0.0
C2456 C 0.06264 0.2517 0.72863 0.0
C2457 C 0.08157 0.22957 0.73048 0.0
N2458 N 0.06375 0.27288 0.75038 0.0
N2459 N 0.08023 0.23896 0.74118 0.0
H2460 H 0.70748 0.05896 0.75686 0.0
H2461 H 0.78073 0.08968 0.72958 0.0
H2462 H 0.73104 0.09129 0.77842 0.0
H2463 H 0.75629 0.05872 0.70701 0.0
H2464 H 0.76445 0.08773 0.74934 0.0
H2465 H 0.72698 0.0561 0.7404 0.0
C2466 C 0.71681 0.06535 0.75825 0.0
C2467 C 0.71752 0.07552 0.76895 0.0
C2468 C 0.76272 0.08125 0.74012 0.0
C2469 C 0.73988 0.07235 0.75005 0.0
C2470 C 0.77204 0.08234 0.72883 0.0
C2471 C 0.76978 0.07449 0.71652 0.0
C2472 C 0.75102 0.07229 0.73911 0.0
C2473 C 0.75839 0.06508 0.71622 0.0
C2474 C 0.72795 0.06372 0.74882 0.0
C2475 C 0.72995 0.08341 0.77027 0.0
N2476 N 0.74935 0.06436 0.72728 0.0
N2477 N 0.74057 0.08176 0.76084 0.0
H2478 H 0.9124 0.73063 0.78038 0.0
H2479 H 0.94324 0.75503 0.70619 0.0
H2480 H 0.94191 0.7061 0.75605 0.0
H2481 H 0.91297 0.77889 0.73026 0.0
H2482 H 0.9456 0.7387 0.7259 0.0
H2483 H 0.91522 0.75 0.76379 0.0
C2484 C 0.9196 0.72936 0.77164 0.0
C2485 C 0.92677 0.71662 0.76951 0.0
C2486 C 0.93856 0.7476 0.72693 0.0
C2487 C 0.92998 0.73877 0.75037 0.0
C2488 C 0.93722 0.75695 0.71567 0.0
C2489 C 0.92774 0.76826 0.71647 0.0
C2490 C 0.93034 0.74953 0.73906 0.0
C2491 C 0.92029 0.77025 0.72908 0.0
C2492 C 0.9212 0.74044 0.76215 0.0
C2493 C 0.93606 0.71567 0.75805 0.0
N2494 N 0.92164 0.76089 0.7398 0.0
N2495 N 0.93726 0.72653 0.74882 0.0
H2496 H 0.2421 0.29265 0.05773 0.0
H2497 H 0.26835 0.21933 0.08914 0.0
H2498 H 0.21924 0.26872 0.08887 0.0
H2499 H 0.29181 0.24365 0.05874 0.0
H2500 H 0.24866 0.23559 0.08653 0.0
H2501 H 0.25867 0.27316 0.05533 0.0
C2502 C 0.24045 0.28323 0.06394 0.0
C2503 C 0.22936 0.28242 0.07367 0.0
C2504 C 0.25805 0.23729 0.08032 0.0
C2505 C 0.24837 0.26009 0.07103 0.0
C2506 C 0.26932 0.22799 0.08179 0.0
C2507 C 0.28185 0.23022 0.07429 0.0
C2508 C 0.25932 0.24896 0.07134 0.0
C2509 C 0.28242 0.24158 0.06484 0.0
C2510 C 0.24994 0.27211 0.06257 0.0
C2511 C 0.22771 0.2699 0.08135 0.0
N2512 N 0.27138 0.2506 0.06376 0.0
N2513 N 0.2372 0.2593 0.07998 0.0
H2514 H 0.2201 0.73108 0.90718 0.0
H2515 H 0.2912 0.75808 0.94301 0.0
H2516 H 0.24162 0.70907 0.94062 0.0
H2517 H 0.27249 0.77728 0.90631 0.0
H2518 H 0.27097 0.74238 0.94479 0.0
H2519 H 0.23699 0.75031 0.90934 0.0
C2520 C 0.22826 0.73035 0.9151 0.0
C2521 C 0.22954 0.71833 0.92361 0.0
C2522 C 0.27123 0.75011 0.93643 0.0
C2523 C 0.24897 0.74032 0.92606 0.0
C2524 C 0.28278 0.75911 0.9354 0.0
C2525 C 0.28366 0.76891 0.92438 0.0
C2526 C 0.26046 0.75088 0.92635 0.0
C2527 C 0.27235 0.7698 0.91491 0.0
C2528 C 0.23793 0.74134 0.91629 0.0
C2529 C 0.2403 0.71805 0.93373 0.0
N2530 N 0.26128 0.76081 0.91604 0.0
N2531 N 0.24967 0.72882 0.93459 0.0
H2532 H 0.24339 0.29272 0.9424 0.0
H2533 H 0.26869 0.21906 0.91094 0.0
H2534 H 0.22034 0.2692 0.91109 0.0
H2535 H 0.29259 0.2432 0.94112 0.0
H2536 H 0.24921 0.23558 0.91357 0.0
H2537 H 0.25974 0.27304 0.94474 0.0
C2538 C 0.24165 0.28336 0.93614 0.0
C2539 C 0.23057 0.28271 0.92639 0.0
C2540 C 0.25866 0.23719 0.91973 0.0
C2541 C 0.24933 0.26015 0.92896 0.0
C2542 C 0.2698 0.22774 0.91825 0.0
C2543 C 0.2824 0.22984 0.92567 0.0
C2544 C 0.26013 0.24888 0.92865 0.0
C2545 C 0.28315 0.24122 0.93507 0.0
C2546 C 0.25102 0.27212 0.93746 0.0
C2547 C 0.22881 0.27025 0.91863 0.0
N2548 N 0.27223 0.2504 0.93618 0.0
N2549 N 0.23817 0.25954 0.91998 0.0
H2550 H 0.73161 0.22001 0.91191 0.0
H2551 H 0.75678 0.29381 0.94308 0.0
H2552 H 0.70727 0.24459 0.94138 0.0
H2553 H 0.78019 0.26985 0.91237 0.0
H2554 H 0.74031 0.27422 0.94539 0.0
H2555 H 0.75114 0.2364 0.91478 0.0
C2556 C 0.73041 0.22876 0.91911 0.0
C2557 C 0.71768 0.23102 0.92626 0.0
C2558 C 0.74914 0.27319 0.93827 0.0
C2559 C 0.74003 0.24992 0.92952 0.0
C2560 C 0.75858 0.28437 0.93695 0.0
C2561 C 0.76979 0.28357 0.92736 0.0
C2562 C 0.7509 0.26113 0.92991 0.0
C2563 C 0.77162 0.27102 0.91978 0.0
C2564 C 0.74159 0.23814 0.92074 0.0
C2565 C 0.71682 0.24249 0.93555 0.0
N2566 N 0.76218 0.26036 0.92111 0.0
N2567 N 0.72778 0.2516 0.93678 0.0
H2568 H 0.73251 0.78075 0.91146 0.0
H2569 H 0.75809 0.70688 0.9422 0.0
H2570 H 0.70855 0.75603 0.94112 0.0
H2571 H 0.78105 0.7308 0.91111 0.0
H2572 H 0.74166 0.72647 0.94472 0.0
H2573 H 0.75209 0.76435 0.91403 0.0
C2574 C 0.73141 0.77197 0.91865 0.0
C2575 C 0.71877 0.76967 0.92594 0.0
C2576 C 0.75038 0.72749 0.93746 0.0
C2577 C 0.74116 0.75076 0.92885 0.0
C2578 C 0.75979 0.71631 0.93602 0.0
C2579 C 0.77087 0.7171 0.92628 0.0
C2580 C 0.75202 0.73955 0.92906 0.0
C2581 C 0.77258 0.72964 0.91865 0.0
C2582 C 0.74261 0.76259 0.9201 0.0
C2583 C 0.71803 0.75816 0.93519 0.0
N2584 N 0.76317 0.7403 0.9201 0.0
N2585 N 0.729 0.74905 0.93625 0.0
H2586 H 0.75601 0.7063 0.05739 0.0
H2587 H 0.7304 0.78009 0.08828 0.0
H2588 H 0.77888 0.7301 0.08863 0.0
H2589 H 0.7066 0.75562 0.05829 0.0
H2590 H 0.74995 0.76364 0.08577 0.0
H2591 H 0.73962 0.72592 0.05486 0.0
C2592 C 0.7577 0.71571 0.0636 0.0
C2593 C 0.76875 0.71645 0.07339 0.0
C2594 C 0.74051 0.76195 0.07962 0.0
C2595 C 0.74994 0.73894 0.07059 0.0
C2596 C 0.72933 0.77136 0.08103 0.0
C2597 C 0.71674 0.76914 0.07363 0.0
C2598 C 0.73909 0.75018 0.0708 0.0
C2599 C 0.71604 0.75768 0.06432 0.0
C2600 C 0.74831 0.72691 0.06216 0.0
C2601 C 0.77045 0.72897 0.08106 0.0
N2602 N 0.72699 0.74855 0.06329 0.0
N2603 N 0.76106 0.73965 0.0796 0.0
H2604 H 0.21879 0.73097 0.08867 0.0
H2605 H 0.29337 0.75567 0.05897 0.0
H2606 H 0.24338 0.70687 0.05901 0.0
H2607 H 0.26917 0.77907 0.08949 0.0
H2608 H 0.27368 0.73939 0.05625 0.0
H2609 H 0.23555 0.75029 0.08646 0.0
C2610 C 0.22762 0.72978 0.08156 0.0
C2611 C 0.22977 0.71718 0.07416 0.0
C2612 C 0.27262 0.74817 0.06343 0.0
C2613 C 0.24908 0.73927 0.07166 0.0
C2614 C 0.28387 0.7575 0.06498 0.0
C2615 C 0.28301 0.76867 0.07461 0.0
C2616 C 0.26044 0.74999 0.07161 0.0
C2617 C 0.27037 0.77054 0.08204 0.0
C2618 C 0.23721 0.74083 0.08032 0.0
C2619 C 0.24136 0.71633 0.06503 0.0
N2620 N 0.25965 0.76121 0.08048 0.0
N2621 N 0.25066 0.72716 0.06416 0.0
H2622 H 0.70623 0.24436 0.05764 0.0
H2623 H 0.78042 0.26933 0.08807 0.0
H2624 H 0.73045 0.22085 0.08806 0.0
H2625 H 0.75557 0.2938 0.05895 0.0
H2626 H 0.76392 0.24986 0.08539 0.0
H2627 H 0.72579 0.26085 0.05522 0.0
C2628 C 0.71572 0.24255 0.06369 0.0
C2629 C 0.7166 0.23129 0.07322 0.0
C2630 C 0.76214 0.25943 0.07947 0.0
C2631 C 0.73902 0.2502 0.07055 0.0
C2632 C 0.77158 0.27057 0.08098 0.0
C2633 C 0.76929 0.28331 0.07387 0.0
C2634 C 0.75026 0.26104 0.07084 0.0
C2635 C 0.7577 0.28423 0.06474 0.0
C2636 C 0.72688 0.252 0.06231 0.0
C2637 C 0.72922 0.22945 0.0807 0.0
N2638 N 0.74854 0.27331 0.06361 0.0
N2639 N 0.73986 0.23889 0.07931 0.0
H2640 H 0.59482 0.77189 0.71994 0.0
H2641 H 0.55972 0.74048 0.78938 0.0
H2642 H 0.55806 0.78958 0.73997 0.0
H2643 H 0.59537 0.72163 0.76846 0.0
H2644 H 0.55722 0.75686 0.76976 0.0
H2645 H 0.59348 0.75179 0.73591 0.0
C2646 C 0.58637 0.77149 0.72757 0.0
C2647 C 0.57665 0.78256 0.72872 0.0
C2648 C 0.5655 0.74904 0.76938 0.0
C2649 C 0.57513 0.7596 0.74712 0.0
C2650 C 0.56693 0.73967 0.7806 0.0
C2651 C 0.57789 0.72977 0.78068 0.0
C2652 C 0.57516 0.74859 0.75819 0.0
C2653 C 0.58684 0.72916 0.76893 0.0
C2654 C 0.58562 0.76 0.73671 0.0
C2655 C 0.56588 0.78138 0.73877 0.0
N2656 N 0.58538 0.73855 0.75825 0.0
N2657 N 0.5655 0.7702 0.74767 0.0
H2658 H 0.20663 0.55821 0.74272 0.0
H2659 H 0.27987 0.58984 0.76896 0.0
H2660 H 0.22997 0.59015 0.72036 0.0
H2661 H 0.25575 0.55921 0.79231 0.0
H2662 H 0.2635 0.58739 0.74935 0.0
H2663 H 0.22623 0.55578 0.75915 0.0
C2664 C 0.21593 0.56459 0.74115 0.0
C2665 C 0.21656 0.57454 0.73024 0.0
C2666 C 0.26186 0.58109 0.7587 0.0
C2667 C 0.23902 0.57186 0.74909 0.0
C2668 C 0.27123 0.58247 0.76992 0.0
C2669 C 0.26908 0.57487 0.78241 0.0
C2670 C 0.25022 0.57208 0.75997 0.0
C2671 C 0.25775 0.56539 0.78296 0.0
C2672 C 0.22712 0.56321 0.75056 0.0
C2673 C 0.22894 0.58245 0.72869 0.0
N2674 N 0.24866 0.56439 0.77197 0.0
N2675 N 0.23961 0.58104 0.7381 0.0
H2676 H 0.40637 0.22842 0.72079 0.0
H2677 H 0.44147 0.25887 0.79063 0.0
H2678 H 0.44262 0.20992 0.741 0.0
H2679 H 0.40658 0.27867 0.76927 0.0
H2680 H 0.44381 0.24248 0.771 0.0
H2681 H 0.40802 0.24844 0.73681 0.0
C2682 C 0.41478 0.22863 0.72848 0.0
C2683 C 0.42426 0.21736 0.72965 0.0
C2684 C 0.43574 0.2505 0.77053 0.0
C2685 C 0.42614 0.24023 0.74812 0.0
C2686 C 0.4344 0.25989 0.78174 0.0
C2687 C 0.42369 0.27006 0.7817 0.0
C2688 C 0.42625 0.25121 0.75922 0.0
C2689 C 0.41492 0.27092 0.76983 0.0
C2690 C 0.41571 0.24008 0.73764 0.0
C2691 C 0.43499 0.21829 0.73977 0.0
N2692 N 0.41629 0.26152 0.75916 0.0
N2693 N 0.43554 0.22943 0.74871 0.0
H2694 H 0.74158 0.44109 0.79266 0.0
H2695 H 0.7672 0.40843 0.71966 0.0
H2696 H 0.71914 0.40861 0.77015 0.0
H2697 H 0.79018 0.4402 0.74263 0.0
H2698 H 0.74777 0.41087 0.73627 0.0
H2699 H 0.75765 0.44339 0.77276 0.0
C2700 C 0.73992 0.43455 0.78348 0.0
C2701 C 0.72909 0.4245 0.78318 0.0
C2702 C 0.757 0.41742 0.7376 0.0
C2703 C 0.74754 0.42703 0.76036 0.0
C2704 C 0.76811 0.41605 0.72809 0.0
C2705 C 0.78044 0.42398 0.72985 0.0
C2706 C 0.75824 0.42675 0.74899 0.0
C2707 C 0.78095 0.43375 0.74093 0.0
C2708 C 0.74912 0.43587 0.77211 0.0
C2709 C 0.72741 0.41641 0.77093 0.0
N2710 N 0.77008 0.43475 0.75016 0.0
N2711 N 0.73663 0.41774 0.76008 0.0
H2712 H 0.58916 0.23118 0.28159 0.0
H2713 H 0.5581 0.25666 0.20784 0.0
H2714 H 0.5588 0.20754 0.25741 0.0
H2715 H 0.58974 0.27935 0.23128 0.0
H2716 H 0.55552 0.24043 0.22758 0.0
H2717 H 0.58674 0.25067 0.26506 0.0
C2718 C 0.58185 0.23013 0.2729 0.0
C2719 C 0.57432 0.2176 0.27078 0.0
C2720 C 0.56292 0.24905 0.22846 0.0
C2721 C 0.57159 0.23989 0.25173 0.0
C2722 C 0.56439 0.25835 0.21719 0.0
C2723 C 0.5743 0.26929 0.2178 0.0
C2724 C 0.57144 0.25066 0.24043 0.0
C2725 C 0.58207 0.27099 0.23026 0.0
C2726 C 0.58049 0.24128 0.26344 0.0
C2727 C 0.56493 0.21693 0.25939 0.0
N2728 N 0.58058 0.26169 0.24101 0.0
N2729 N 0.56395 0.22785 0.25021 0.0
H2730 H 0.79327 0.55828 0.25714 0.0
H2731 H 0.7194 0.58892 0.23144 0.0
H2732 H 0.76936 0.58947 0.27996 0.0
H2733 H 0.74403 0.55908 0.2076 0.0
H2734 H 0.73589 0.58653 0.25096 0.0
H2735 H 0.77372 0.55575 0.24066 0.0
C2736 C 0.78385 0.56448 0.2588 0.0
C2737 C 0.78305 0.57425 0.26986 0.0
C2738 C 0.73761 0.58039 0.24152 0.0
C2739 C 0.76064 0.57145 0.25096 0.0
C2740 C 0.72818 0.58174 0.23035 0.0
C2741 C 0.73042 0.57434 0.21776 0.0
C2742 C 0.74943 0.57162 0.2401 0.0
C2743 C 0.74194 0.5651 0.21705 0.0
C2744 C 0.77269 0.56304 0.24936 0.0
C2745 C 0.77053 0.58191 0.27152 0.0
N2746 N 0.75109 0.56413 0.22799 0.0
N2747 N 0.75989 0.58046 0.26209 0.0
H2748 H 0.40933 0.71899 0.23234 0.0
H2749 H 0.44221 0.79181 0.25817 0.0
H2750 H 0.44107 0.74201 0.20936 0.0
H2751 H 0.4098 0.76924 0.28065 0.0
H2752 H 0.44447 0.77194 0.24204 0.0
H2753 H 0.41191 0.73548 0.25187 0.0
C2754 C 0.41697 0.7274 0.23146 0.0
C2755 C 0.42485 0.72922 0.21909 0.0
C2756 C 0.43697 0.77127 0.25059 0.0
C2757 C 0.42778 0.74821 0.24141 0.0
C2758 C 0.43569 0.78262 0.25983 0.0
C2759 C 0.42566 0.78229 0.27068 0.0
C2760 C 0.42813 0.75953 0.25216 0.0
C2761 C 0.41758 0.77003 0.27236 0.0
C2762 C 0.41843 0.73683 0.24262 0.0
C2763 C 0.43466 0.74027 0.21862 0.0
N2764 N 0.41888 0.75922 0.2631 0.0
N2765 N 0.43573 0.74943 0.22954 0.0
H2766 H 0.25924 0.44073 0.20913 0.0
H2767 H 0.22819 0.40464 0.27823 0.0
H2768 H 0.27845 0.40506 0.22972 0.0
H2769 H 0.21019 0.44148 0.25864 0.0
H2770 H 0.24823 0.40629 0.26223 0.0
H2771 H 0.24283 0.44286 0.22876 0.0
C2772 C 0.26012 0.43344 0.21785 0.0
C2773 C 0.27014 0.42258 0.21767 0.0
C2774 C 0.23997 0.4141 0.26153 0.0
C2775 C 0.25127 0.4249 0.24016 0.0
C2776 C 0.22851 0.41318 0.27068 0.0
C2777 C 0.21738 0.42283 0.26967 0.0
C2778 C 0.24027 0.42471 0.25124 0.0
C2779 C 0.21844 0.43372 0.25973 0.0
C2780 C 0.25073 0.43466 0.22906 0.0
C2781 C 0.27083 0.41352 0.22933 0.0
N2782 N 0.22959 0.43427 0.25081 0.0
N2783 N 0.26142 0.41479 0.24002 0.0
H2784 H 0.71992 0.5897 0.77052 0.0
H2785 H 0.76875 0.5853 0.71672 0.0
H2786 H 0.74496 0.55859 0.79216 0.0
H2787 H 0.79423 0.56264 0.74671 0.0
H2788 H 0.7487 0.5831 0.73241 0.0
H2789 H 0.73562 0.58821 0.75055 0.0
C2790 C 0.7286 0.58233 0.77096 0.0
C2791 C 0.73117 0.57436 0.78313 0.0
C2792 C 0.75865 0.57872 0.73574 0.0
C2793 C 0.74931 0.57235 0.75998 0.0
C2794 C 0.77012 0.57986 0.72664 0.0
C2795 C 0.78327 0.57438 0.7305 0.0
C2796 C 0.76039 0.57226 0.74895 0.0
C2797 C 0.78433 0.56717 0.74335 0.0
C2798 C 0.7376 0.58139 0.75942 0.0
C2799 C 0.7426 0.565 0.78305 0.0
N2800 N 0.7731 0.56648 0.75217 0.0
N2801 N 0.75132 0.56439 0.77173 0.0
H2802 H 0.40507 0.76829 0.71959 0.0
H2803 H 0.44297 0.74016 0.78915 0.0
H2804 H 0.43966 0.78951 0.74004 0.0
H2805 H 0.40543 0.72157 0.77155 0.0
H2806 H 0.44431 0.75595 0.76896 0.0
H2807 H 0.40753 0.74885 0.7362 0.0
C2808 C 0.41331 0.7688 0.72745 0.0
C2809 C 0.42206 0.78066 0.72852 0.0
C2810 C 0.43585 0.74833 0.76944 0.0
C2811 C 0.42487 0.75843 0.74763 0.0
C2812 C 0.43508 0.73928 0.78097 0.0
C2813 C 0.42395 0.72963 0.78216 0.0
C2814 C 0.42541 0.74777 0.75901 0.0
C2815 C 0.41412 0.72892 0.77116 0.0
C2816 C 0.41467 0.75769 0.73696 0.0
C2817 C 0.43258 0.78066 0.73889 0.0
N2818 N 0.415 0.73797 0.76011 0.0
N2819 N 0.4336 0.76979 0.74812 0.0
H2820 H 0.27966 0.41105 0.76923 0.0
H2821 H 0.20612 0.44205 0.74303 0.0
H2822 H 0.25506 0.4411 0.79283 0.0
H2823 H 0.22979 0.41039 0.72062 0.0
H2824 H 0.22566 0.44459 0.75952 0.0
H2825 H 0.26329 0.41346 0.74961 0.0
C2826 C 0.27091 0.41828 0.77025 0.0
C2827 C 0.26864 0.42574 0.7828 0.0
C2828 C 0.22664 0.43719 0.75091 0.0
C2829 C 0.24978 0.42847 0.76035 0.0
C2830 C 0.21549 0.43575 0.74146 0.0
C2831 C 0.21622 0.42584 0.73052 0.0
C2832 C 0.23861 0.42865 0.74944 0.0
C2833 C 0.22868 0.41805 0.72897 0.0
C2834 C 0.26155 0.41964 0.75902 0.0
C2835 C 0.25716 0.43504 0.78342 0.0
N2836 N 0.23931 0.41952 0.73841 0.0
N2837 N 0.24808 0.43602 0.77241 0.0
H2838 H 0.58826 0.28111 0.76956 0.0
H2839 H 0.5584 0.20759 0.74204 0.0
H2840 H 0.55855 0.25565 0.79267 0.0
H2841 H 0.5895 0.23227 0.71992 0.0
H2842 H 0.55556 0.22678 0.75888 0.0
H2843 H 0.58606 0.2651 0.74962 0.0
C2844 C 0.58114 0.27224 0.7704 0.0
C2845 C 0.57372 0.26962 0.78291 0.0
C2846 C 0.5629 0.22806 0.75026 0.0
C2847 C 0.57123 0.25117 0.76009 0.0
C2848 C 0.56451 0.21711 0.7406 0.0
C2849 C 0.57435 0.21823 0.72964 0.0
C2850 C 0.57121 0.24021 0.74897 0.0
C2851 C 0.58189 0.23086 0.72828 0.0
C2852 C 0.57991 0.26309 0.759 0.0
C2853 C 0.56458 0.25802 0.78331 0.0
N2854 N 0.58027 0.24129 0.73792 0.0
N2855 N 0.56371 0.24914 0.77213 0.0
H2856 H 0.79246 0.44233 0.25777 0.0
H2857 H 0.7193 0.41058 0.23151 0.0
H2858 H 0.76898 0.41061 0.28031 0.0
H2859 H 0.74341 0.44119 0.20812 0.0
H2860 H 0.7356 0.41315 0.25117 0.0
H2861 H 0.77289 0.44472 0.2413 0.0
C2862 C 0.78313 0.43599 0.25938 0.0
C2863 C 0.78246 0.42611 0.27034 0.0
C2864 C 0.73725 0.41942 0.24179 0.0
C2865 C 0.76004 0.42874 0.25144 0.0
C2866 C 0.72793 0.41796 0.23055 0.0
C2867 C 0.73009 0.42553 0.21805 0.0
C2868 C 0.74887 0.42845 0.24053 0.0
C2869 C 0.74139 0.43503 0.21749 0.0
C2870 C 0.77196 0.43735 0.24994 0.0
C2871 C 0.77004 0.41826 0.27193 0.0
N2872 N 0.75045 0.4361 0.22851 0.0
N2873 N 0.75939 0.41964 0.2625 0.0
H2874 H 0.5586 0.79308 0.2577 0.0
H2875 H 0.59051 0.71985 0.23168 0.0
H2876 H 0.59069 0.76999 0.2801 0.0
H2877 H 0.55966 0.74371 0.20836 0.0
H2878 H 0.58812 0.73635 0.2512 0.0
H2879 H 0.55628 0.77341 0.24133 0.0
C2880 C 0.56505 0.78381 0.25929 0.0
C2881 C 0.575 0.78328 0.2702 0.0
C2882 C 0.58176 0.7379 0.24187 0.0
C2883 C 0.57244 0.76075 0.25141 0.0
C2884 C 0.58311 0.72846 0.23071 0.0
C2885 C 0.57541 0.73049 0.21826 0.0
C2886 C 0.5727 0.7495 0.24058 0.0
C2887 C 0.56591 0.74179 0.21768 0.0
C2888 C 0.56373 0.77259 0.24991 0.0
C2889 C 0.58298 0.77095 0.27178 0.0
N2890 N 0.56493 0.75095 0.22862 0.0
N2891 N 0.58163 0.76024 0.2624 0.0
H2892 H 0.27971 0.58877 0.22952 0.0
H2893 H 0.2063 0.5584 0.25672 0.0
H2894 H 0.25481 0.55851 0.20652 0.0
H2895 H 0.23047 0.58996 0.27874 0.0
H2896 H 0.22566 0.55559 0.24007 0.0
H2897 H 0.26358 0.58658 0.24936 0.0
C2898 C 0.27095 0.58153 0.22868 0.0
C2899 C 0.26852 0.57396 0.21623 0.0
C2900 C 0.22679 0.56302 0.24863 0.0
C2901 C 0.24991 0.57148 0.23892 0.0
C2902 C 0.21574 0.56463 0.25817 0.0
C2903 C 0.21666 0.57459 0.26905 0.0
C2904 C 0.23885 0.57146 0.24994 0.0
C2905 C 0.22921 0.58226 0.27044 0.0
C2906 C 0.26171 0.5803 0.24003 0.0
C2907 C 0.25703 0.56466 0.21584 0.0
N2908 N 0.23974 0.58065 0.26091 0.0
N2909 N 0.24807 0.56381 0.22695 0.0
H2910 H 0.41137 0.23013 0.28075 0.0
H2911 H 0.4423 0.25498 0.20673 0.0
H2912 H 0.44143 0.20609 0.25659 0.0
H2913 H 0.4116 0.27848 0.2306 0.0
H2914 H 0.4447 0.23866 0.22643 0.0
H2915 H 0.41394 0.24953 0.26413 0.0
C2916 C 0.41864 0.22898 0.27204 0.0
C2917 C 0.42605 0.21637 0.26997 0.0
C2918 C 0.43755 0.24747 0.22742 0.0
C2919 C 0.42896 0.23855 0.25081 0.0
C2920 C 0.43618 0.25682 0.21616 0.0
C2921 C 0.42658 0.26803 0.21692 0.0
C2922 C 0.42923 0.2493 0.2395 0.0
C2923 C 0.41902 0.26992 0.22947 0.0
C2924 C 0.42009 0.24007 0.26254 0.0
C2925 C 0.4354 0.21555 0.25855 0.0
N2926 N 0.4204 0.26057 0.2402 0.0
N2927 N 0.43646 0.22642 0.24932 0.0
H2928 H 0.76869 0.71991 0.58951 0.0
H2929 H 0.7436 0.79359 0.55794 0.0
H2930 H 0.79271 0.74397 0.55936 0.0
H2931 H 0.72015 0.76989 0.58882 0.0
H2932 H 0.76001 0.77394 0.55575 0.0
H2933 H 0.74924 0.73644 0.58681 0.0
C2934 C 0.76983 0.72857 0.5822 0.0
C2935 C 0.78245 0.73064 0.57479 0.0
C2936 C 0.75119 0.77297 0.56289 0.0
C2937 C 0.76021 0.7497 0.57172 0.0
C2938 C 0.74179 0.78419 0.56414 0.0
C2939 C 0.73057 0.78348 0.57373 0.0
C2940 C 0.7494 0.76096 0.57132 0.0
C2941 C 0.72872 0.77098 0.5814 0.0
C2942 C 0.75871 0.73803 0.58067 0.0
C2943 C 0.78324 0.74202 0.56538 0.0
N2944 N 0.73812 0.76029 0.58014 0.0
N2945 N 0.77234 0.7512 0.56424 0.0
H2946 H 0.79248 0.25597 0.4421 0.0
H2947 H 0.71867 0.22968 0.41186 0.0
H2948 H 0.7684 0.27838 0.41075 0.0
H2949 H 0.74365 0.20604 0.44156 0.0
H2950 H 0.73498 0.24936 0.4142 0.0
H2951 H 0.773 0.23943 0.44484 0.0
C2952 C 0.78304 0.25753 0.43591 0.0
C2953 C 0.78218 0.26849 0.42603 0.0
C2954 C 0.73682 0.23992 0.42032 0.0
C2955 C 0.75985 0.24952 0.42907 0.0
C2956 C 0.72749 0.22867 0.41901 0.0
C2957 C 0.72988 0.21609 0.42637 0.0
C2958 C 0.7487 0.23859 0.42901 0.0
C2959 C 0.74144 0.21547 0.43557 0.0
C2960 C 0.77192 0.24806 0.43747 0.0
C2961 C 0.76962 0.27002 0.41839 0.0
N2962 N 0.7505 0.2265 0.4365 0.0
N2963 N 0.75902 0.26056 0.41997 0.0
H2964 H 0.79401 0.74451 0.44135 0.0
H2965 H 0.72016 0.77068 0.41089 0.0
H2966 H 0.7696 0.72152 0.41068 0.0
H2967 H 0.7453 0.79469 0.44014 0.0
H2968 H 0.7366 0.75111 0.41323 0.0
H2969 H 0.77478 0.76143 0.44356 0.0
C2970 C 0.78455 0.74291 0.4352 0.0
C2971 C 0.78351 0.73165 0.42569 0.0
C2972 C 0.73846 0.7606 0.41924 0.0
C2973 C 0.76147 0.75105 0.42811 0.0
C2974 C 0.72905 0.7718 0.41793 0.0
C2975 C 0.73143 0.78444 0.4252 0.0
C2976 C 0.75038 0.76204 0.42786 0.0
C2977 C 0.7431 0.7852 0.43424 0.0
C2978 C 0.77358 0.7526 0.43645 0.0
C2979 C 0.77095 0.7301 0.41806 0.0
N2980 N 0.75221 0.77422 0.4352 0.0
N2981 N 0.76049 0.73976 0.41934 0.0
H2982 H 0.20717 0.74352 0.44235 0.0
H2983 H 0.28109 0.76914 0.41189 0.0
H2984 H 0.23141 0.7204 0.41164 0.0
H2985 H 0.25629 0.79312 0.44146 0.0
H2986 H 0.26476 0.74951 0.41452 0.0
H2987 H 0.22672 0.75999 0.44497 0.0
C2988 C 0.21666 0.74179 0.43628 0.0
C2989 C 0.21755 0.73066 0.42661 0.0
C2990 C 0.26297 0.75901 0.42055 0.0
C2991 C 0.23995 0.74955 0.4295 0.0
C2992 C 0.27231 0.77023 0.41907 0.0
C2993 C 0.26996 0.7829 0.42631 0.0
C2994 C 0.25114 0.76045 0.42929 0.0
C2995 C 0.25845 0.78363 0.43555 0.0
C2996 C 0.22782 0.75122 0.43778 0.0
C2997 C 0.23017 0.72891 0.41912 0.0
N2998 N 0.24938 0.77262 0.43665 0.0
N2999 N 0.2408 0.73834 0.42061 0.0
H3000 H 0.28045 0.23079 0.41087 0.0
H3001 H 0.20641 0.25581 0.44162 0.0
H3002 H 0.25627 0.20693 0.44105 0.0
H3003 H 0.23016 0.27902 0.41059 0.0
H3004 H 0.22612 0.23952 0.44411 0.0
H3005 H 0.26378 0.25017 0.41324 0.0
C3006 C 0.27173 0.22967 0.41812 0.0
C3007 C 0.26967 0.21711 0.42563 0.0
C3008 C 0.22708 0.24826 0.43686 0.0
C3009 C 0.25046 0.23927 0.42831 0.0
C3010 C 0.21583 0.2576 0.43545 0.0
C3011 C 0.21654 0.26872 0.42574 0.0
C3012 C 0.23913 0.25002 0.42849 0.0
C3013 C 0.22906 0.27053 0.4181 0.0
C3014 C 0.2622 0.24075 0.41946 0.0
C3015 C 0.25822 0.21634 0.43495 0.0
N3016 N 0.23979 0.26119 0.41954 0.0
N3017 N 0.24897 0.2272 0.43591 0.0
H3018 H 0.20715 0.25615 0.55817 0.0
H3019 H 0.28071 0.23034 0.58942 0.0
H3020 H 0.23054 0.27868 0.58995 0.0
H3021 H 0.25646 0.20675 0.55908 0.0
H3022 H 0.26423 0.24987 0.58701 0.0
H3023 H 0.22681 0.2398 0.55568 0.0
C3024 C 0.21648 0.25778 0.56451 0.0
C3025 C 0.2171 0.26871 0.57443 0.0
C3026 C 0.26259 0.24049 0.58077 0.0
C3027 C 0.23963 0.24995 0.57168 0.0
C3028 C 0.27202 0.22932 0.58212 0.0
C3029 C 0.26988 0.21679 0.57459 0.0
C3030 C 0.25088 0.23912 0.57186 0.0
C3031 C 0.25847 0.21614 0.56521 0.0
C3032 C 0.2277 0.24841 0.5631 0.0
C3033 C 0.22952 0.27033 0.58227 0.0
N3034 N 0.24932 0.22709 0.56423 0.0
N3035 N 0.24022 0.26097 0.58083 0.0
H3036 H 0.79483 0.25563 0.55669 0.0
H3037 H 0.74058 0.20688 0.55407 0.0
H3038 H 0.76893 0.27851 0.58616 0.0
H3039 H 0.72407 0.22906 0.5901 0.0
H3040 H 0.75728 0.22587 0.5503 0.0
H3041 H 0.77611 0.23858 0.55376 0.0
C3042 C 0.78507 0.25722 0.56235 0.0
C3043 C 0.78354 0.26847 0.5718 0.0
C3044 C 0.75016 0.22663 0.55913 0.0
C3045 C 0.76172 0.24893 0.56838 0.0
C3046 C 0.74047 0.21577 0.5612 0.0
C3047 C 0.73106 0.21623 0.57257 0.0
C3048 C 0.75059 0.23796 0.56866 0.0
C3049 C 0.73123 0.22815 0.58129 0.0
C3050 C 0.77425 0.24745 0.56061 0.0
C3051 C 0.77064 0.26995 0.57884 0.0
N3052 N 0.74093 0.23844 0.57923 0.0
N3053 N 0.76032 0.26022 0.5771 0.0
H3054 H 0.25452 0.79447 0.5571 0.0
H3055 H 0.23076 0.72003 0.58789 0.0
H3056 H 0.27852 0.77067 0.58747 0.0
H3057 H 0.2061 0.74413 0.55829 0.0
H3058 H 0.24997 0.73684 0.58515 0.0
H3059 H 0.23838 0.77461 0.55472 0.0
C3060 C 0.25651 0.78502 0.56314 0.0
C3061 C 0.2678 0.78433 0.57264 0.0
C3062 C 0.24041 0.73838 0.57914 0.0
C3063 C 0.24929 0.76157 0.57003 0.0
C3064 C 0.22943 0.72876 0.58068 0.0
C3065 C 0.2167 0.73077 0.57346 0.0
C3066 C 0.23866 0.75014 0.57036 0.0
C3067 C 0.21566 0.74223 0.56418 0.0
C3068 C 0.24726 0.77368 0.56179 0.0
C3069 C 0.26988 0.77176 0.58012 0.0
N3070 N 0.22643 0.75157 0.56302 0.0
N3071 N 0.26063 0.76094 0.57877 0.0
H3072 H 0.03479 0.21793 0.35232 0.0
H3073 H 0.96429 0.18298 0.324 0.0
H3074 H 0.0345 0.18364 0.32261 0.0
H3075 H 0.96635 0.21823 0.35253 0.0
H3076 H 0.98969 0.17938 0.32711 0.0
H3077 H 0.00978 0.21435 0.35645 0.0
C3078 C 0.02947 0.20949 0.34682 0.0
C3079 C 0.03664 0.20121 0.33696 0.0
C3080 C 0.98451 0.18772 0.3329 0.0
C3081 C 0.00785 0.19724 0.34135 0.0
C3082 C 0.97002 0.18973 0.33118 0.0
C3083 C 0.96329 0.20107 0.33784 0.0
C3084 C 0.99223 0.19709 0.34137 0.0
C3085 C 0.97118 0.20951 0.34701 0.0
C3086 C 0.01516 0.20744 0.34916 0.0
C3087 C 0.0293 0.19029 0.33025 0.0
N3088 N 0.98522 0.20744 0.34837 0.0
N3089 N 0.01519 0.1888 0.33235 0.0
H3090 H 0.78175 0.96632 0.35162 0.0
H3091 H 0.81767 0.03625 0.32302 0.0
H3092 H 0.81649 0.96596 0.32244 0.0
H3093 H 0.78224 0.03479 0.35134 0.0
H3094 H 0.82095 0.01081 0.32632 0.0
H3095 H 0.78545 0.99136 0.35547 0.0
C3096 C 0.79032 0.97151 0.34618 0.0
C3097 C 0.7987 0.96413 0.33655 0.0
C3098 C 0.81264 0.01613 0.33202 0.0
C3099 C 0.80282 0.99296 0.34062 0.0
C3100 C 0.81081 0.03064 0.33019 0.0
C3101 C 0.79952 0.03755 0.33674 0.0
C3102 C 0.80313 0.00859 0.34049 0.0
C3103 C 0.79093 0.02982 0.3459 0.0
C3104 C 0.79243 0.98583 0.34836 0.0
C3105 C 0.80976 0.97132 0.32991 0.0
N3106 N 0.79282 0.01576 0.34737 0.0
N3107 N 0.81134 0.98544 0.33184 0.0
H3108 H 0.96577 0.78091 0.35382 0.0
H3109 H 0.03556 0.81681 0.32481 0.0
H3110 H 0.96534 0.81559 0.32456 0.0
H3111 H 0.03421 0.78097 0.35264 0.0
H3112 H 0.01018 0.82016 0.32842 0.0
H3113 H 0.99083 0.7846 0.35754 0.0
C3114 C 0.97094 0.78947 0.34834 0.0
C3115 C 0.96355 0.79782 0.33871 0.0
C3116 C 0.01551 0.81174 0.33394 0.0
C3117 C 0.99239 0.80192 0.34264 0.0
C3118 C 0.02999 0.80987 0.33194 0.0
C3119 C 0.03691 0.79846 0.33826 0.0
C3120 C 0.00801 0.80216 0.34236 0.0
C3121 C 0.02923 0.78977 0.34737 0.0
C3122 C 0.98528 0.79157 0.35045 0.0
C3123 C 0.97071 0.80887 0.33202 0.0
N3124 N 0.0152 0.7917 0.34902 0.0
N3125 N 0.98484 0.81043 0.33389 0.0
H3126 H 0.18354 0.03534 0.32508 0.0
H3127 H 0.21968 0.96503 0.35267 0.0
H3128 H 0.22009 0.03356 0.35192 0.0
H3129 H 0.18435 0.96505 0.32418 0.0
H3130 H 0.21639 0.99013 0.35649 0.0
H3131 H 0.18023 0.00992 0.32843 0.0
C3132 C 0.19066 0.02967 0.33194 0.0
C3133 C 0.20224 0.03649 0.33806 0.0
C3134 C 0.2092 0.98467 0.34954 0.0
C3135 C 0.19859 0.00753 0.34186 0.0
C3136 C 0.21107 0.97031 0.34737 0.0
C3137 C 0.20241 0.96302 0.33793 0.0
C3138 C 0.19874 0.99191 0.34201 0.0
C3139 C 0.19131 0.97033 0.33149 0.0
C3140 C 0.18881 0.01516 0.33379 0.0
C3141 C 0.21116 0.02867 0.34682 0.0
N3142 N 0.18995 0.98447 0.33343 0.0
N3143 N 0.20924 0.01461 0.34833 0.0
H3144 H 0.03611 0.81769 0.6753 0.0
H3145 H 0.96652 0.78295 0.64466 0.0
H3146 H 0.03487 0.78301 0.64606 0.0
H3147 H 0.96601 0.81616 0.67557 0.0
H3148 H 0.99152 0.78704 0.64093 0.0
H3149 H 0.01078 0.8213 0.67161 0.0
C3150 C 0.03059 0.81108 0.66784 0.0
C3151 C 0.0375 0.79988 0.66115 0.0
C3152 C 0.98596 0.79361 0.64839 0.0
C3153 C 0.00866 0.80387 0.65695 0.0
C3154 C 0.97166 0.79129 0.6505 0.0
C3155 C 0.96428 0.79908 0.66059 0.0
C3156 C 0.99304 0.80361 0.65666 0.0
C3157 C 0.97139 0.80987 0.66774 0.0
C3158 C 0.01613 0.8131 0.66579 0.0
C3159 C 0.02988 0.79162 0.65161 0.0
N3160 N 0.98549 0.81163 0.66586 0.0
N3161 N 0.01587 0.79367 0.64993 0.0
H3162 H 0.18235 0.03633 0.67615 0.0
H3163 H 0.21794 0.96632 0.64706 0.0
H3164 H 0.21889 0.03477 0.64929 0.0
H3165 H 0.18311 0.96602 0.67614 0.0
H3166 H 0.21463 0.99148 0.64362 0.0
H3167 H 0.17887 0.01098 0.67236 0.0
C3168 C 0.18943 0.03072 0.6692 0.0
C3169 C 0.20106 0.03757 0.6632 0.0
C3170 C 0.20755 0.98594 0.65062 0.0
C3171 C 0.19721 0.00872 0.65888 0.0
C3172 C 0.20943 0.97155 0.65256 0.0
C3173 C 0.20092 0.96415 0.66206 0.0
C3174 C 0.19726 0.9931 0.65845 0.0
C3175 C 0.18994 0.97139 0.66878 0.0
C3176 C 0.18749 0.01626 0.6671 0.0
C3177 C 0.20993 0.02985 0.65431 0.0
N3178 N 0.18859 0.98556 0.66706 0.0
N3179 N 0.2079 0.01584 0.65254 0.0
H3180 H 0.96386 0.18323 0.67545 0.0
H3181 H 0.03408 0.21878 0.6469 0.0
H3182 H 0.96562 0.21936 0.64803 0.0
H3183 H 0.03412 0.18426 0.67635 0.0
H3184 H 0.009 0.21531 0.64313 0.0
H3185 H 0.98926 0.17981 0.67205 0.0
C3186 C 0.96952 0.19022 0.66846 0.0
C3187 C 0.96271 0.20173 0.66219 0.0
C3188 C 0.01447 0.20833 0.65029 0.0
C3189 C 0.99163 0.19795 0.65831 0.0
C3190 C 0.02882 0.21031 0.65242 0.0
C3191 C 0.03612 0.20193 0.66211 0.0
C3192 C 0.00725 0.19808 0.65811 0.0
C3193 C 0.02883 0.19099 0.66884 0.0
C3194 C 0.98402 0.18831 0.66657 0.0
C3195 C 0.97051 0.21049 0.65325 0.0
N3196 N 0.0147 0.18954 0.66693 0.0
N3197 N 0.98455 0.20851 0.65171 0.0
H3198 H 0.81685 0.03426 0.67456 0.0
H3199 H 0.78091 0.96332 0.64835 0.0
H3200 H 0.78029 0.03185 0.64776 0.0
H3201 H 0.81648 0.96393 0.67651 0.0
H3202 H 0.78403 0.98838 0.64412 0.0
H3203 H 0.82024 0.00879 0.67168 0.0
C3204 C 0.80974 0.02844 0.66781 0.0
C3205 C 0.79814 0.0351 0.66157 0.0
C3206 C 0.79131 0.98306 0.65109 0.0
C3207 C 0.80189 0.00609 0.6583 0.0
C3208 C 0.78953 0.96873 0.65349 0.0
C3209 C 0.79832 0.96161 0.66294 0.0
C3210 C 0.8018 0.99046 0.65842 0.0
C3211 C 0.80943 0.96908 0.66919 0.0
C3212 C 0.81164 0.0139 0.66623 0.0
C3213 C 0.78925 0.02709 0.65296 0.0
N3214 N 0.8107 0.9832 0.66703 0.0
N3215 N 0.79122 0.01302 0.65171 0.0
H3216 H 0.35459 0.96537 0.21772 0.0
H3217 H 0.32562 0.03541 0.18221 0.0
H3218 H 0.3253 0.96515 0.18307 0.0
H3219 H 0.35322 0.03384 0.2182 0.0
H3220 H 0.32922 0.01004 0.17874 0.0
H3221 H 0.35825 0.99047 0.21424 0.0
C3222 C 0.34909 0.9706 0.20921 0.0
C3223 C 0.33947 0.96325 0.2008 0.0
C3224 C 0.33469 0.01532 0.18722 0.0
C3225 C 0.34333 0.99213 0.19695 0.0
C3226 C 0.33269 0.0298 0.18916 0.0
C3227 C 0.33895 0.03665 0.20065 0.0
C3228 C 0.34305 0.00776 0.19681 0.0
C3229 C 0.348 0.02891 0.20935 0.0
C3230 C 0.35116 0.98496 0.20723 0.0
C3231 C 0.33275 0.97049 0.18982 0.0
N3232 N 0.34964 0.01488 0.20734 0.0
N3233 N 0.33459 0.98463 0.18838 0.0
H3234 H 0.96271 0.32512 0.18163 0.0
H3235 H 0.03203 0.35502 0.21716 0.0
H3236 H 0.96376 0.35452 0.21619 0.0
H3237 H 0.0328 0.32549 0.18273 0.0
H3238 H 0.00708 0.35897 0.213 0.0
H3239 H 0.98803 0.32891 0.17804 0.0
C3240 C 0.96819 0.33264 0.18821 0.0
C3241 C 0.96123 0.33933 0.19939 0.0
C3242 C 0.01268 0.35177 0.20617 0.0
C3243 C 0.99005 0.34364 0.19543 0.0
C3244 C 0.02695 0.34954 0.20855 0.0
C3245 C 0.03438 0.33977 0.20041 0.0
C3246 C 0.00567 0.34391 0.1958 0.0
C3247 C 0.02737 0.33307 0.18928 0.0
C3248 C 0.98264 0.33476 0.1862 0.0
C3249 C 0.96879 0.34896 0.20761 0.0
N3250 N 0.01329 0.33502 0.18748 0.0
N3251 N 0.9828 0.35068 0.20558 0.0
H3252 H 0.67369 0.96479 0.182 0.0
H3253 H 0.64641 0.03466 0.21923 0.0
H3254 H 0.64742 0.96613 0.21899 0.0
H3255 H 0.67421 0.03509 0.18335 0.0
H3256 H 0.64266 0.00957 0.2158 0.0
H3257 H 0.67017 0.99023 0.17897 0.0
C3258 C 0.66692 0.97037 0.18928 0.0
C3259 C 0.66101 0.96342 0.2009 0.0
C3260 C 0.64945 0.01512 0.20853 0.0
C3261 C 0.65702 0.99239 0.19756 0.0
C3262 C 0.65157 0.02948 0.21048 0.0
C3263 C 0.6608 0.0369 0.20169 0.0
C3264 C 0.65681 0.00801 0.19786 0.0
C3265 C 0.66706 0.02971 0.19041 0.0
C3266 C 0.66497 0.98488 0.18759 0.0
C3267 C 0.65235 0.97112 0.21002 0.0
N3268 N 0.66517 0.01557 0.18897 0.0
N3269 N 0.65075 0.98518 0.20824 0.0
H3270 H 0.03369 0.64579 0.21741 0.0
H3271 H 0.96366 0.67467 0.18184 0.0
H3272 H 0.03388 0.67524 0.18288 0.0
H3273 H 0.96525 0.64711 0.21786 0.0
H3274 H 0.98903 0.67109 0.17838 0.0
H3275 H 0.00861 0.64205 0.21386 0.0
C3276 C 0.02846 0.65131 0.20891 0.0
C3277 C 0.0358 0.661 0.20057 0.0
C3278 C 0.98375 0.66562 0.18686 0.0
C3279 C 0.00694 0.65704 0.19662 0.0
C3280 C 0.96927 0.6676 0.1888 0.0
C3281 C 0.96243 0.66135 0.20029 0.0
C3282 C 0.99131 0.65729 0.19647 0.0
C3283 C 0.97017 0.65232 0.209 0.0
C3284 C 0.01412 0.6492 0.20689 0.0
C3285 C 0.02856 0.66773 0.18959 0.0
N3286 N 0.98419 0.65069 0.20701 0.0
N3287 N 0.01443 0.66584 0.18811 0.0
H3288 H 0.32517 0.96296 0.81768 0.0
H3289 H 0.35427 0.03205 0.78087 0.0
H3290 H 0.35315 0.96372 0.78196 0.0
H3291 H 0.32593 0.03311 0.81627 0.0
H3292 H 0.35806 0.00704 0.78486 0.0
H3293 H 0.32918 0.98829 0.82096 0.0
C3294 C 0.33243 0.96838 0.81076 0.0
C3295 C 0.33865 0.96133 0.79938 0.0
C3296 C 0.35116 0.01272 0.79193 0.0
C3297 C 0.3432 0.99017 0.80298 0.0
C3298 C 0.34902 0.02702 0.78965 0.0
C3299 C 0.33962 0.03456 0.79813 0.0
C3300 C 0.34358 0.00578 0.80257 0.0
C3301 C 0.33321 0.0276 0.80946 0.0
C3302 C 0.33466 0.98283 0.81259 0.0
C3303 C 0.34795 0.96881 0.79072 0.0
N3304 N 0.33507 0.01349 0.81119 0.0
N3305 N 0.3498 0.98283 0.79259 0.0
H3306 H 0.03459 0.32578 0.81804 0.0
H3307 H 0.96462 0.35405 0.78173 0.0
H3308 H 0.03313 0.3528 0.78159 0.0
H3309 H 0.9643 0.32518 0.81674 0.0
H3310 H 0.98972 0.35772 0.7852 0.0
H3311 H 0.00917 0.32925 0.82123 0.0
C3312 C 0.02899 0.3327 0.81092 0.0
C3313 C 0.0359 0.33884 0.7994 0.0
C3314 C 0.98419 0.35072 0.79229 0.0
C3315 C 0.00695 0.34279 0.80292 0.0
C3316 C 0.96983 0.34864 0.79031 0.0
C3317 C 0.96244 0.33914 0.79882 0.0
C3318 C 0.99133 0.34303 0.8027 0.0
C3319 C 0.96966 0.33254 0.80989 0.0
C3320 C 0.01448 0.33462 0.8127 0.0
C3321 C 0.02817 0.34768 0.79048 0.0
N3322 N 0.9838 0.33439 0.81135 0.0
N3323 N 0.01412 0.34926 0.79234 0.0
H3324 H 0.67435 0.03689 0.81678 0.0
H3325 H 0.64665 0.96751 0.77936 0.0
H3326 H 0.64719 0.03593 0.78044 0.0
H3327 H 0.67373 0.96664 0.81575 0.0
H3328 H 0.64283 0.99256 0.783 0.0
H3329 H 0.67054 0.0115 0.8199 0.0
C3330 C 0.66732 0.03141 0.80968 0.0
C3331 C 0.66127 0.03843 0.79819 0.0
C3332 C 0.64946 0.98692 0.79036 0.0
C3333 C 0.65695 0.00953 0.80161 0.0
C3334 C 0.65163 0.97259 0.78827 0.0
C3335 C 0.66068 0.96508 0.79715 0.0
C3336 C 0.65666 0.99391 0.80122 0.0
C3337 C 0.66673 0.97212 0.80863 0.0
C3338 C 0.6652 0.01692 0.81142 0.0
C3339 C 0.65226 0.03087 0.78929 0.0
N3340 N 0.66485 0.98625 0.81018 0.0
N3341 N 0.65052 0.01682 0.79109 0.0
H3342 H 0.96466 0.67558 0.81827 0.0
H3343 H 0.0345 0.64472 0.78431 0.0
H3344 H 0.96621 0.64584 0.78404 0.0
H3345 H 0.03474 0.67616 0.81702 0.0
H3346 H 0.00952 0.64087 0.78843 0.0
H3347 H 0.98997 0.67201 0.82212 0.0
C3348 C 0.97025 0.66804 0.81182 0.0
C3349 C 0.96343 0.66117 0.80066 0.0
C3350 C 0.01502 0.64847 0.7949 0.0
C3351 C 0.99225 0.6571 0.80492 0.0
C3352 C 0.02931 0.65065 0.79255 0.0
C3353 C 0.03661 0.66093 0.80018 0.0
C3354 C 0.00786 0.65687 0.80474 0.0
C3355 C 0.02944 0.66819 0.81086 0.0
C3356 C 0.98469 0.66605 0.81397 0.0
C3357 C 0.97113 0.65153 0.7926 0.0
N3358 N 0.01535 0.66625 0.81262 0.0
N3359 N 0.98513 0.64991 0.79477 0.0
H3360 H 0.21555 0.35437 0.03506 0.0
H3361 H 0.18183 0.32423 0.96469 0.0
H3362 H 0.18215 0.32366 0.03486 0.0
H3363 H 0.21688 0.35299 0.9667 0.0
H3364 H 0.17784 0.32782 0.98998 0.0
H3365 H 0.212 0.35814 0.00997 0.0
C3366 C 0.20728 0.34859 0.02974 0.0
C3367 C 0.19928 0.33853 0.03696 0.0
C3368 C 0.18622 0.33355 0.98481 0.0
C3369 C 0.19537 0.34251 0.0081 0.0
C3370 C 0.18845 0.33156 0.97037 0.0
C3371 C 0.19985 0.33815 0.96368 0.0
C3372 C 0.19542 0.34224 0.99248 0.0
C3373 C 0.20812 0.34751 0.9715 0.0
C3374 C 0.20526 0.35071 0.0154 0.0
C3375 C 0.18859 0.33146 0.02963 0.0
N3376 N 0.20584 0.34915 0.98549 0.0
N3377 N 0.18713 0.33335 0.01549 0.0
H3378 H 0.21695 0.64731 0.96434 0.0
H3379 H 0.18162 0.67605 0.03457 0.0
H3380 H 0.18258 0.67694 0.96428 0.0
H3381 H 0.21709 0.6478 0.03283 0.0
H3382 H 0.17821 0.67281 0.00914 0.0
H3383 H 0.21338 0.64348 0.98941 0.0
C3384 C 0.20849 0.65286 0.9696 0.0
C3385 C 0.20019 0.66261 0.9623 0.0
C3386 C 0.18656 0.66712 0.0144 0.0
C3387 C 0.19622 0.65855 0.99115 0.0
C3388 C 0.18847 0.66891 0.0289 0.0
C3389 C 0.1998 0.66236 0.03574 0.0
C3390 C 0.19603 0.65867 0.00678 0.0
C3391 C 0.20837 0.65324 0.02793 0.0
C3392 C 0.20646 0.65069 0.98394 0.0
C3393 C 0.18926 0.66938 0.96958 0.0
N3394 N 0.2064 0.6518 0.01388 0.0
N3395 N 0.18776 0.66744 0.9837 0.0
H3396 H 0.32406 0.1824 0.03533 0.0
H3397 H 0.35383 0.21703 0.96519 0.0
H3398 H 0.35206 0.21808 0.03358 0.0
H3399 H 0.32379 0.18303 0.9651 0.0
H3400 H 0.35745 0.21353 0.9903 0.0
H3401 H 0.32775 0.17867 0.01001 0.0
C3402 C 0.33124 0.18923 0.02969 0.0
C3403 C 0.33759 0.20071 0.03647 0.0
C3404 C 0.3502 0.20666 0.98481 0.0
C3405 C 0.3418 0.19656 0.00765 0.0
C3406 C 0.34816 0.20865 0.97045 0.0
C3407 C 0.33834 0.20045 0.96314 0.0
C3408 C 0.34215 0.19658 0.99202 0.0
C3409 C 0.3314 0.18963 0.97041 0.0
C3410 C 0.33329 0.18713 0.01525 0.0
C3411 C 0.34677 0.20924 0.02871 0.0
N3412 N 0.33322 0.18818 0.98455 0.0
N3413 N 0.34847 0.20709 0.01471 0.0
H3414 H 0.81824 0.3251 0.96545 0.0
H3415 H 0.78386 0.35542 0.03538 0.0
H3416 H 0.78351 0.35426 0.96704 0.0
H3417 H 0.81694 0.32436 0.03556 0.0
H3418 H 0.78788 0.3593 0.01038 0.0
H3419 H 0.82199 0.32867 0.99078 0.0
C3420 C 0.81165 0.33252 0.97105 0.0
C3421 C 0.8004 0.33922 0.96423 0.0
C3422 C 0.79444 0.35177 0.01587 0.0
C3423 C 0.80454 0.34328 0.99307 0.0
C3424 C 0.79215 0.34958 0.03017 0.0
C3425 C 0.79993 0.3394 0.03746 0.0
C3426 C 0.80437 0.3435 0.00869 0.0
C3427 C 0.81066 0.33226 0.03026 0.0
C3428 C 0.81374 0.3345 0.98551 0.0
C3429 C 0.79215 0.3487 0.97195 0.0
N3430 N 0.81238 0.33422 0.01616 0.0
N3431 N 0.79429 0.35032 0.98596 0.0
H3432 H 0.64552 0.78177 0.03388 0.0
H3433 H 0.67561 0.81702 0.9642 0.0
H3434 H 0.67527 0.81602 0.03439 0.0
H3435 H 0.64791 0.78109 0.96549 0.0
H3436 H 0.67163 0.82059 0.98949 0.0
H3437 H 0.64207 0.78537 0.00876 0.0
C3438 C 0.65116 0.79022 0.02871 0.0
C3439 C 0.66086 0.79847 0.03615 0.0
C3440 C 0.66622 0.81211 0.98416 0.0
C3441 C 0.65725 0.80245 0.00725 0.0
C3442 C 0.66843 0.81011 0.96973 0.0
C3443 C 0.66226 0.7986 0.96283 0.0
C3444 C 0.65773 0.80256 0.99163 0.0
C3445 C 0.65307 0.78995 0.97046 0.0
C3446 C 0.64922 0.79227 0.01434 0.0
C3447 C 0.66776 0.80939 0.02899 0.0
N3448 N 0.65121 0.79201 0.98445 0.0
N3449 N 0.66604 0.81089 0.01483 0.0
H3450 H 0.78322 0.6449 0.03432 0.0
H3451 H 0.81882 0.6752 0.96496 0.0
H3452 H 0.81679 0.67541 0.0351 0.0
H3453 H 0.78369 0.64648 0.96594 0.0
H3454 H 0.82215 0.67149 0.99033 0.0
H3455 H 0.78736 0.64123 0.00932 0.0
C3456 C 0.79164 0.65066 0.02924 0.0
C3457 C 0.79953 0.66063 0.03671 0.0
C3458 C 0.8139 0.66579 0.98492 0.0
C3459 C 0.80413 0.65677 0.00794 0.0
C3460 C 0.81205 0.66785 0.97044 0.0
C3461 C 0.80081 0.66131 0.96343 0.0
C3462 C 0.80449 0.65709 0.99232 0.0
C3463 C 0.79233 0.65192 0.971 0.0
C3464 C 0.794 0.64859 0.01494 0.0
C3465 C 0.81043 0.66768 0.02967 0.0
N3466 N 0.79424 0.65022 0.98503 0.0
N3467 N 0.81223 0.66584 0.01557 0.0
H3468 H 0.35523 0.78222 0.03655 0.0
H3469 H 0.3263 0.81641 0.96582 0.0
H3470 H 0.32475 0.81583 0.03601 0.0
H3471 H 0.35319 0.77994 0.96831 0.0
H3472 H 0.32997 0.82045 0.99111 0.0
H3473 H 0.3592 0.78565 0.01148 0.0
C3474 C 0.34954 0.7905 0.03117 0.0
C3475 C 0.33948 0.7986 0.03828 0.0
C3476 C 0.33528 0.81174 0.98603 0.0
C3477 C 0.34369 0.80237 0.00944 0.0
C3478 C 0.33325 0.80948 0.97161 0.0
C3479 C 0.33927 0.79769 0.96507 0.0
C3480 C 0.34347 0.80219 0.99383 0.0
C3481 C 0.34815 0.78902 0.97301 0.0
C3482 C 0.35178 0.79245 0.01683 0.0
C3483 C 0.33254 0.80931 0.03085 0.0
N3484 N 0.34986 0.79135 0.98698 0.0
N3485 N 0.33455 0.81071 0.01673 0.0
H3486 H 0.64569 0.21707 0.96488 0.0
H3487 H 0.67552 0.18264 0.03502 0.0
H3488 H 0.67643 0.1837 0.96486 0.0
H3489 H 0.64638 0.21739 0.03328 0.0
H3490 H 0.67214 0.17895 0.00965 0.0
H3491 H 0.64178 0.21321 0.9899 0.0
C3492 C 0.65146 0.20875 0.97013 0.0
C3493 C 0.66155 0.20084 0.96288 0.0
C3494 C 0.66628 0.18719 0.0149 0.0
C3495 C 0.65741 0.19657 0.99166 0.0
C3496 C 0.66815 0.18925 0.02937 0.0
C3497 C 0.6614 0.20049 0.03617 0.0
C3498 C 0.65755 0.1964 0.00729 0.0
C3499 C 0.65198 0.20876 0.02839 0.0
C3500 C 0.64924 0.20656 0.98444 0.0
C3501 C 0.6686 0.19008 0.97013 0.0
N3502 N 0.65047 0.20665 0.01437 0.0
N3503 N 0.66662 0.18844 0.98423 0.0
H3504 H 0.4668 0.68296 0.82506 0.0
H3505 H 0.53768 0.71855 0.85202 0.0
H3506 H 0.46934 0.72041 0.85058 0.0
H3507 H 0.53711 0.68349 0.82322 0.0
H3508 H 0.51259 0.71542 0.85606 0.0
H3509 H 0.49218 0.6793 0.82847 0.0
C3510 C 0.47263 0.6902 0.83165 0.0
C3511 C 0.46605 0.70212 0.83737 0.0
C3512 C 0.51793 0.70825 0.84899 0.0
C3513 C 0.49492 0.69806 0.84127 0.0
C3514 C 0.53228 0.71003 0.84671 0.0
C3515 C 0.5394 0.70141 0.8371 0.0
C3516 C 0.51054 0.69795 0.8414 0.0
C3517 C 0.53195 0.69041 0.83065 0.0
C3518 C 0.4871 0.68815 0.83354 0.0
C3519 C 0.47405 0.7112 0.84579 0.0
N3520 N 0.51782 0.68916 0.83269 0.0
N3521 N 0.48806 0.70906 0.84736 0.0
H3522 H 0.28094 0.53492 0.85378 0.0
H3523 H 0.31629 0.46475 0.82501 0.0
H3524 H 0.31553 0.53499 0.82443 0.0
H3525 H 0.28045 0.46646 0.85281 0.0
H3526 H 0.31981 0.49012 0.8285 0.0
H3527 H 0.28443 0.50984 0.85758 0.0
C3528 C 0.28944 0.52966 0.8483 0.0
C3529 C 0.29782 0.53696 0.83862 0.0
C3530 C 0.31136 0.48487 0.83404 0.0
C3531 C 0.3017 0.5081 0.84264 0.0
C3532 C 0.30938 0.47039 0.8321 0.0
C3533 C 0.29792 0.46358 0.83845 0.0
C3534 C 0.30182 0.49247 0.84243 0.0
C3535 C 0.28928 0.47136 0.84752 0.0
C3536 C 0.29142 0.51532 0.85045 0.0
C3537 C 0.30879 0.52969 0.83193 0.0
N3538 N 0.29132 0.48539 0.84911 0.0
N3539 N 0.31025 0.51556 0.83384 0.0
H3540 H 0.5344 0.31668 0.8255 0.0
H3541 H 0.46386 0.28105 0.85303 0.0
H3542 H 0.53233 0.28032 0.85259 0.0
H3543 H 0.46416 0.31627 0.82441 0.0
H3544 H 0.48893 0.28431 0.85703 0.0
H3545 H 0.50901 0.3202 0.82882 0.0
C3546 C 0.52868 0.30965 0.83241 0.0
C3547 C 0.5354 0.29806 0.8386 0.0
C3548 C 0.48354 0.29149 0.85001 0.0
C3549 C 0.50648 0.30195 0.84238 0.0
C3550 C 0.4692 0.28963 0.84774 0.0
C3551 C 0.462 0.29827 0.83821 0.0
C3552 C 0.49086 0.30189 0.84247 0.0
C3553 C 0.46937 0.30933 0.83179 0.0
C3554 C 0.51419 0.31163 0.83425 0.0
C3555 C 0.52751 0.28926 0.84743 0.0
N3556 N 0.4835 0.31066 0.83381 0.0
N3557 N 0.51348 0.2913 0.84892 0.0
H3558 H 0.71779 0.46421 0.8549 0.0
H3559 H 0.68387 0.53502 0.82593 0.0
H3560 H 0.68333 0.4648 0.82539 0.0
H3561 H 0.72 0.53256 0.85329 0.0
H3562 H 0.67976 0.50976 0.82962 0.0
H3563 H 0.71475 0.48936 0.85868 0.0
C3564 C 0.70941 0.46963 0.84938 0.0
C3565 C 0.70094 0.4625 0.83966 0.0
C3566 C 0.68842 0.51483 0.83502 0.0
C3567 C 0.69761 0.49142 0.84364 0.0
C3568 C 0.69073 0.52924 0.83297 0.0
C3569 C 0.70244 0.5358 0.83913 0.0
C3570 C 0.69786 0.50704 0.84334 0.0
C3571 C 0.71099 0.52786 0.84814 0.0
C3572 C 0.70769 0.48401 0.85152 0.0
C3573 C 0.69013 0.46997 0.83292 0.0
N3574 N 0.70862 0.5139 0.84984 0.0
N3575 N 0.68895 0.48413 0.83482 0.0
H3576 H 0.46584 0.28123 0.14562 0.0
H3577 H 0.53552 0.31691 0.17522 0.0
H3578 H 0.46533 0.31542 0.17545 0.0
H3579 H 0.53427 0.28105 0.14743 0.0
H3580 H 0.51016 0.32028 0.1715 0.0
H3581 H 0.49092 0.28497 0.14202 0.0
C3582 C 0.471 0.28969 0.15125 0.0
C3583 C 0.46358 0.29788 0.16101 0.0
C3584 C 0.51551 0.31186 0.16601 0.0
C3585 C 0.49243 0.30204 0.15722 0.0
C3586 C 0.52998 0.30997 0.16808 0.0
C3587 C 0.53692 0.29854 0.1618 0.0
C3588 C 0.50804 0.30227 0.15756 0.0
C3589 C 0.52928 0.28985 0.15266 0.0
C3590 C 0.48534 0.29183 0.14922 0.0
C3591 C 0.47072 0.30883 0.16789 0.0
N3592 N 0.51525 0.2918 0.15095 0.0
N3593 N 0.48485 0.31042 0.16608 0.0
H3594 H 0.68239 0.46455 0.17597 0.0
H3595 H 0.71722 0.53462 0.14631 0.0
H3596 H 0.71791 0.46623 0.14778 0.0
H3597 H 0.68339 0.53477 0.17654 0.0
H3598 H 0.71356 0.50955 0.14259 0.0
H3599 H 0.67875 0.4899 0.17238 0.0
C3600 C 0.68919 0.47018 0.16877 0.0
C3601 C 0.70061 0.46337 0.16234 0.0
C3602 C 0.70677 0.51505 0.1499 0.0
C3603 C 0.69658 0.49223 0.15825 0.0
C3604 C 0.70885 0.52939 0.152 0.0
C3605 C 0.70074 0.5367 0.16191 0.0
C3606 C 0.69669 0.50785 0.15798 0.0
C3607 C 0.68992 0.52946 0.16887 0.0
C3608 C 0.68716 0.48465 0.16678 0.0
C3609 C 0.70912 0.47113 0.15313 0.0
N3610 N 0.68838 0.51533 0.16699 0.0
N3611 N 0.70703 0.48514 0.15149 0.0
H3612 H 0.53467 0.71913 0.14785 0.0
H3613 H 0.4648 0.68242 0.17593 0.0
H3614 H 0.53511 0.68379 0.17631 0.0
H3615 H 0.46616 0.71937 0.14959 0.0
H3616 H 0.49021 0.67932 0.17234 0.0
H3617 H 0.50954 0.71575 0.14432 0.0
C3618 C 0.52948 0.7105 0.1532 0.0
C3619 C 0.53692 0.70186 0.16255 0.0
C3620 C 0.48488 0.68794 0.16714 0.0
C3621 C 0.508 0.69809 0.15881 0.0
C3622 C 0.47037 0.68968 0.16914 0.0
C3623 C 0.46344 0.7013 0.16322 0.0
C3624 C 0.49238 0.69787 0.15913 0.0
C3625 C 0.47114 0.71039 0.15453 0.0
C3626 C 0.51511 0.70858 0.1512 0.0
C3627 C 0.52972 0.69073 0.16907 0.0
N3628 N 0.48519 0.70856 0.15288 0.0
N3629 N 0.51556 0.68932 0.16729 0.0
H3630 H 0.31685 0.46358 0.17439 0.0
H3631 H 0.27967 0.53294 0.14566 0.0
H3632 H 0.27993 0.46447 0.14801 0.0
H3633 H 0.31492 0.53389 0.17422 0.0
H3634 H 0.28331 0.50782 0.14229 0.0
H3635 H 0.31981 0.48899 0.17054 0.0
C3636 C 0.30957 0.46905 0.16753 0.0
C3637 C 0.298 0.46199 0.16169 0.0
C3638 C 0.2904 0.5135 0.14916 0.0
C3639 C 0.30126 0.49091 0.1573 0.0
C3640 C 0.28833 0.52787 0.15107 0.0
C3641 C 0.29687 0.53544 0.1604 0.0
C3642 C 0.30093 0.50653 0.15685 0.0
C3643 C 0.30806 0.52839 0.16698 0.0
C3644 C 0.31122 0.48355 0.1654 0.0
C3645 C 0.28887 0.46955 0.15291 0.0
N3646 N 0.3096 0.51424 0.16531 0.0
N3647 N 0.29061 0.4836 0.15112 0.0
H3648 H 0.82448 0.53617 0.68205 0.0
H3649 H 0.82497 0.46276 0.681 0.0
H3650 H 0.85117 0.53218 0.71853 0.0
H3651 H 0.84777 0.46664 0.72004 0.0
H3652 H 0.82835 0.4879 0.67682 0.0
H3653 H 0.82657 0.51091 0.67804 0.0
C3654 C 0.83107 0.53 0.68901 0.0
C3655 C 0.83747 0.53623 0.70077 0.0
C3656 C 0.83271 0.48334 0.68628 0.0
C3657 C 0.83993 0.5072 0.69636 0.0
C3658 C 0.83087 0.46889 0.68859 0.0
C3659 C 0.83586 0.46267 0.70102 0.0
C3660 C 0.83956 0.49156 0.69654 0.0
C3661 C 0.84351 0.47103 0.71044 0.0
C3662 C 0.83224 0.51548 0.68676 0.0
C3663 C 0.84586 0.52778 0.70946 0.0
N3664 N 0.84499 0.48502 0.70807 0.0
N3665 N 0.8467 0.51372 0.70717 0.0
H3666 H 0.53182 0.8523 0.7196 0.0
H3667 H 0.4628 0.82409 0.68173 0.0
H3668 H 0.53308 0.82508 0.68332 0.0
H3669 H 0.46343 0.85068 0.71851 0.0
H3670 H 0.48818 0.82808 0.6788 0.0
H3671 H 0.50674 0.8558 0.71589 0.0
C3672 C 0.52681 0.84722 0.7107 0.0
C3673 C 0.53445 0.83823 0.70187 0.0
C3674 C 0.48269 0.83325 0.68734 0.0
C3675 C 0.50559 0.84188 0.69773 0.0
C3676 C 0.4682 0.83102 0.68897 0.0
C3677 C 0.46109 0.83687 0.70052 0.0
C3678 C 0.48998 0.84142 0.6973 0.0
C3679 C 0.46856 0.84576 0.7096 0.0
C3680 C 0.51247 0.8492 0.70858 0.0
C3681 C 0.52751 0.83205 0.6904 0.0
N3682 N 0.4826 0.84763 0.70789 0.0
N3683 N 0.51336 0.83375 0.68881 0.0
H3684 H 0.17454 0.53547 0.68214 0.0
H3685 H 0.14512 0.46546 0.71737 0.0
H3686 H 0.14663 0.5339 0.7179 0.0
H3687 H 0.1749 0.46521 0.68314 0.0
H3688 H 0.14149 0.49056 0.7138 0.0
H3689 H 0.17095 0.5101 0.67863 0.0
C3690 C 0.1674 0.52986 0.68903 0.0
C3691 C 0.16104 0.53671 0.70046 0.0
C3692 C 0.14868 0.48504 0.7069 0.0
C3693 C 0.15696 0.50783 0.69658 0.0
C3694 C 0.15073 0.47068 0.70893 0.0
C3695 C 0.16048 0.46332 0.70067 0.0
C3696 C 0.15665 0.4922 0.69672 0.0
C3697 C 0.16734 0.47055 0.68977 0.0
C3698 C 0.1654 0.51538 0.68707 0.0
C3699 C 0.15191 0.52898 0.70909 0.0
N3700 N 0.16552 0.48469 0.68828 0.0
N3701 N 0.15028 0.51495 0.70706 0.0
H3702 H 0.46773 0.14645 0.71778 0.0
H3703 H 0.5365 0.17626 0.68109 0.0
H3704 H 0.46639 0.17551 0.68297 0.0
H3705 H 0.53601 0.14712 0.71588 0.0
H3706 H 0.51114 0.17238 0.67789 0.0
H3707 H 0.49266 0.14263 0.71342 0.0
C3708 C 0.47268 0.15186 0.70905 0.0
C3709 C 0.46509 0.16146 0.70085 0.0
C3710 C 0.51666 0.16662 0.68602 0.0
C3711 C 0.49378 0.15746 0.69599 0.0
C3712 C 0.53113 0.16878 0.6878 0.0
C3713 C 0.53826 0.16219 0.69892 0.0
C3714 C 0.50939 0.15779 0.69542 0.0
C3715 C 0.53085 0.15261 0.70733 0.0
C3716 C 0.48694 0.14969 0.70655 0.0
C3717 C 0.47194 0.16807 0.68956 0.0
N3718 N 0.51681 0.15085 0.70552 0.0
N3719 N 0.48602 0.16618 0.68764 0.0
H3720 H 0.82474 0.46483 0.31841 0.0
H3721 H 0.85425 0.53484 0.28328 0.0
H3722 H 0.85263 0.46641 0.28263 0.0
H3723 H 0.82433 0.53506 0.31739 0.0
H3724 H 0.8579 0.50975 0.28686 0.0
H3725 H 0.82838 0.49018 0.32196 0.0
C3726 C 0.83189 0.47043 0.31152 0.0
C3727 C 0.83822 0.46359 0.30007 0.0
C3728 C 0.85067 0.51526 0.29374 0.0
C3729 C 0.84236 0.49246 0.304 0.0
C3730 C 0.84861 0.52962 0.2917 0.0
C3731 C 0.83882 0.53696 0.29991 0.0
C3732 C 0.84267 0.50809 0.30388 0.0
C3733 C 0.83193 0.52973 0.31078 0.0
C3734 C 0.83391 0.4849 0.31351 0.0
C3735 C 0.84736 0.47133 0.29145 0.0
N3736 N 0.83376 0.51559 0.31228 0.0
N3737 N 0.84902 0.48535 0.2935 0.0
H3738 H 0.53561 0.82552 0.31801 0.0
H3739 H 0.46553 0.85368 0.28196 0.0
H3740 H 0.534 0.8529 0.28184 0.0
H3741 H 0.46535 0.82484 0.31699 0.0
H3742 H 0.4906 0.85752 0.28547 0.0
H3743 H 0.5102 0.82895 0.32134 0.0
C3744 C 0.52998 0.83251 0.31099 0.0
C3745 C 0.53684 0.83876 0.2995 0.0
C3746 C 0.4851 0.85049 0.29255 0.0
C3747 C 0.50791 0.84266 0.30317 0.0
C3748 C 0.47076 0.84831 0.29055 0.0
C3749 C 0.46343 0.83877 0.29907 0.0
C3750 C 0.49228 0.84284 0.30297 0.0
C3751 C 0.47067 0.83223 0.31016 0.0
C3752 C 0.51548 0.83442 0.31285 0.0
C3753 C 0.52908 0.8477 0.2907 0.0
N3754 N 0.4848 0.83417 0.31162 0.0
N3755 N 0.51503 0.84925 0.29263 0.0
H3756 H 0.17417 0.46529 0.31669 0.0
H3757 H 0.14514 0.53598 0.28232 0.0
H3758 H 0.1483 0.46776 0.27949 0.0
H3759 H 0.17515 0.53559 0.31635 0.0
H3760 H 0.14152 0.51082 0.28546 0.0
H3761 H 0.17026 0.49056 0.3207 0.0
C3762 C 0.16741 0.47107 0.30958 0.0
C3763 C 0.16172 0.46453 0.29762 0.0
C3764 C 0.14876 0.51622 0.29241 0.0
C3765 C 0.15725 0.49326 0.30209 0.0
C3766 C 0.15079 0.53061 0.29063 0.0
C3767 C 0.16063 0.5378 0.29893 0.0
C3768 C 0.15682 0.50887 0.30238 0.0
C3769 C 0.16753 0.53038 0.30967 0.0
C3770 C 0.16523 0.48548 0.31182 0.0
C3771 C 0.15307 0.47246 0.28871 0.0
N3772 N 0.16572 0.51621 0.31091 0.0
N3773 N 0.15121 0.48641 0.29105 0.0
H3774 H 0.53556 0.17526 0.31848 0.0
H3775 H 0.46575 0.14514 0.28353 0.0
H3776 H 0.53413 0.14707 0.28293 0.0
H3777 H 0.46536 0.17537 0.31737 0.0
H3778 H 0.49084 0.14159 0.28723 0.0
H3779 H 0.51023 0.1715 0.32208 0.0
C3780 C 0.52999 0.16802 0.31166 0.0
C3781 C 0.53686 0.16164 0.30025 0.0
C3782 C 0.48529 0.14886 0.29402 0.0
C3783 C 0.50803 0.15736 0.30423 0.0
C3784 C 0.47094 0.15087 0.29191 0.0
C3785 C 0.46355 0.16072 0.30001 0.0
C3786 C 0.49241 0.15699 0.3041 0.0
C3787 C 0.47073 0.16773 0.31085 0.0
C3788 C 0.51554 0.16593 0.31367 0.0
C3789 C 0.52918 0.15239 0.29172 0.0
N3790 N 0.48486 0.16595 0.3124 0.0
N3791 N 0.51518 0.15066 0.29379 0.0
H3792 H 0.71791 0.85556 0.46529 0.0
H3793 H 0.68273 0.82554 0.53503 0.0
H3794 H 0.68412 0.82528 0.46484 0.0
H3795 H 0.71808 0.85396 0.53372 0.0
H3796 H 0.67926 0.82919 0.50967 0.0
H3797 H 0.71411 0.85917 0.49036 0.0
C3798 C 0.70952 0.84983 0.47046 0.0
C3799 C 0.70147 0.83995 0.46306 0.0
C3800 C 0.68759 0.83484 0.51501 0.0
C3801 C 0.69725 0.84375 0.4919 0.0
C3802 C 0.68953 0.83281 0.52948 0.0
C3803 C 0.70085 0.83928 0.5364 0.0
C3804 C 0.69702 0.84344 0.50752 0.0
C3805 C 0.70937 0.84858 0.52874 0.0
C3806 C 0.70736 0.85186 0.4848 0.0
C3807 C 0.69062 0.83294 0.47022 0.0
N3808 N 0.70738 0.85024 0.51472 0.0
N3809 N 0.689 0.83476 0.48434 0.0
H3810 H 0.71627 0.1441 0.46564 0.0
H3811 H 0.68158 0.17471 0.53525 0.0
H3812 H 0.68281 0.17473 0.46513 0.0
H3813 H 0.71619 0.14538 0.53399 0.0
H3814 H 0.6779 0.17096 0.50993 0.0
H3815 H 0.71223 0.14036 0.49065 0.0
C3816 C 0.70789 0.14987 0.47078 0.0
C3817 C 0.7 0.15989 0.46339 0.0
C3818 C 0.6861 0.16513 0.51527 0.0
C3819 C 0.69554 0.15596 0.49218 0.0
C3820 C 0.68816 0.16721 0.52972 0.0
C3821 C 0.69936 0.16052 0.53663 0.0
C3822 C 0.6953 0.15627 0.5078 0.0
C3823 C 0.70758 0.15094 0.52901 0.0
C3824 C 0.70559 0.14776 0.48509 0.0
C3825 C 0.68917 0.16696 0.47051 0.0
N3826 N 0.7055 0.14924 0.515 0.0
N3827 N 0.68744 0.16508 0.48462 0.0
H3828 H 0.82379 0.68244 0.53598 0.0
H3829 H 0.85409 0.71665 0.46582 0.0
H3830 H 0.85248 0.71757 0.53425 0.0
H3831 H 0.82325 0.68336 0.46572 0.0
H3832 H 0.85764 0.71305 0.49093 0.0
H3833 H 0.82728 0.67876 0.51062 0.0
C3834 C 0.83108 0.68915 0.53034 0.0
C3835 C 0.83769 0.70047 0.53714 0.0
C3836 C 0.85022 0.70636 0.48544 0.0
C3837 C 0.84166 0.69638 0.50827 0.0
C3838 C 0.84822 0.70841 0.47108 0.0
C3839 C 0.83821 0.70044 0.46376 0.0
C3840 C 0.84195 0.69645 0.49264 0.0
C3841 C 0.83102 0.68978 0.47103 0.0
C3842 C 0.83301 0.68709 0.51587 0.0
C3843 C 0.847 0.70886 0.52936 0.0
N3844 N 0.83282 0.68828 0.48517 0.0
N3845 N 0.84858 0.70674 0.51535 0.0
H3846 H 0.31771 0.825 0.46455 0.0
H3847 H 0.28309 0.85633 0.5339 0.0
H3848 H 0.28299 0.8542 0.46563 0.0
H3849 H 0.31584 0.82494 0.53462 0.0
H3850 H 0.28736 0.85996 0.50891 0.0
H3851 H 0.32138 0.82891 0.48985 0.0
C3852 C 0.31111 0.8325 0.47003 0.0
C3853 C 0.29988 0.83911 0.46309 0.0
C3854 C 0.2938 0.85241 0.51452 0.0
C3855 C 0.30394 0.84356 0.49188 0.0
C3856 C 0.29137 0.85037 0.52881 0.0
C3857 C 0.29897 0.84016 0.53625 0.0
C3858 C 0.30369 0.84397 0.50749 0.0
C3859 C 0.3097 0.83285 0.52921 0.0
C3860 C 0.31316 0.83467 0.48446 0.0
C3861 C 0.29162 0.8487 0.47065 0.0
N3862 N 0.31155 0.83467 0.51511 0.0
N3863 N 0.29371 0.85051 0.48464 0.0
H3864 H 0.14546 0.2809 0.46534 0.0
H3865 H 0.17458 0.3165 0.53531 0.0
H3866 H 0.17478 0.31553 0.46504 0.0
H3867 H 0.14722 0.28032 0.53382 0.0
H3868 H 0.17091 0.31993 0.50994 0.0
H3869 H 0.14191 0.28435 0.49046 0.0
C3870 C 0.15099 0.2894 0.47055 0.0
C3871 C 0.16059 0.2978 0.46317 0.0
C3872 C 0.16551 0.31141 0.51524 0.0
C3873 C 0.15684 0.30163 0.49208 0.0
C3874 C 0.16754 0.3095 0.52971 0.0
C3875 C 0.16137 0.29798 0.53659 0.0
C3876 C 0.15719 0.30176 0.5077 0.0
C3877 C 0.15237 0.2892 0.52887 0.0
C3878 C 0.14898 0.29136 0.48493 0.0
C3879 C 0.16734 0.30877 0.4704 0.0
N3880 N 0.15068 0.29119 0.51485 0.0
N3881 N 0.16556 0.31021 0.48455 0.0
H3882 H 0.28304 0.14537 0.53473 0.0
H3883 H 0.31784 0.17554 0.46486 0.0
H3884 H 0.31681 0.17568 0.5351 0.0
H3885 H 0.28258 0.14701 0.46633 0.0
H3886 H 0.32144 0.17189 0.49021 0.0
H3887 H 0.28676 0.14179 0.50965 0.0
C3888 C 0.29141 0.15111 0.52954 0.0
C3889 C 0.29949 0.16099 0.53692 0.0
C3890 C 0.3131 0.16622 0.48491 0.0
C3891 C 0.30359 0.15724 0.50806 0.0
C3892 C 0.31109 0.16825 0.47045 0.0
C3893 C 0.29975 0.16174 0.46358 0.0
C3894 C 0.30373 0.15758 0.49244 0.0
C3895 C 0.2913 0.15243 0.47128 0.0
C3896 C 0.29353 0.14909 0.51519 0.0
C3897 C 0.31031 0.16802 0.52974 0.0
N3898 N 0.29336 0.15075 0.48529 0.0
N3899 N 0.31187 0.16623 0.5156 0.0
H3900 H 0.82365 0.31757 0.46402 0.0
H3901 H 0.85494 0.28413 0.53407 0.0
H3902 H 0.85257 0.28264 0.46572 0.0
H3903 H 0.82366 0.317 0.53422 0.0
H3904 H 0.85835 0.28773 0.50895 0.0
H3905 H 0.82745 0.32154 0.48929 0.0
C3906 C 0.83105 0.31097 0.46963 0.0
C3907 C 0.83764 0.29962 0.46286 0.0
C3908 C 0.85088 0.29433 0.51445 0.0
C3909 C 0.84197 0.30403 0.49163 0.0
C3910 C 0.84896 0.29229 0.52883 0.0
C3911 C 0.83885 0.30013 0.53616 0.0
C3912 C 0.84242 0.30409 0.50725 0.0
C3913 C 0.83151 0.31068 0.5289 0.0
C3914 C 0.83317 0.31319 0.48405 0.0
C3915 C 0.8471 0.29137 0.47059 0.0
N3916 N 0.83322 0.31217 0.51474 0.0
N3917 N 0.84886 0.29364 0.48456 0.0
H3918 H 0.17526 0.68218 0.53516 0.0
H3919 H 0.14573 0.717 0.46506 0.0
H3920 H 0.14664 0.71737 0.53349 0.0
H3921 H 0.17601 0.6832 0.46497 0.0
H3922 H 0.14189 0.71326 0.4901 0.0
H3923 H 0.17181 0.67858 0.50979 0.0
C3924 C 0.16799 0.68892 0.52953 0.0
C3925 C 0.1614 0.70024 0.53635 0.0
C3926 C 0.14924 0.70649 0.48463 0.0
C3927 C 0.15748 0.69625 0.50746 0.0
C3928 C 0.15141 0.70861 0.4703 0.0
C3929 C 0.16136 0.70054 0.46301 0.0
C3930 C 0.15729 0.6964 0.49183 0.0
C3931 C 0.16829 0.6897 0.47026 0.0
C3932 C 0.16608 0.6869 0.51505 0.0
C3933 C 0.15211 0.70866 0.52859 0.0
N3934 N 0.16635 0.68813 0.48438 0.0
N3935 N 0.15056 0.70659 0.51456 0.0
H3936 H 0.17712 0.1276 0.2869 0.0
H3937 H 0.10547 0.15603 0.3204 0.0
H3938 H 0.15631 0.10665 0.32138 0.0
H3939 H 0.12875 0.1765 0.28723 0.0
H3940 H 0.12163 0.13587 0.31884 0.0
H3941 H 0.15717 0.14341 0.28467 0.0
C3942 C 0.16826 0.12625 0.29394 0.0
C3943 C 0.16845 0.11591 0.30446 0.0
C3944 C 0.12305 0.14471 0.31179 0.0
C3945 C 0.14552 0.13421 0.30211 0.0
C3946 C 0.11381 0.15618 0.31264 0.0
C3947 C 0.11589 0.16802 0.30405 0.0
C3948 C 0.13434 0.14513 0.30223 0.0
C3949 C 0.12686 0.16769 0.2942 0.0
C3950 C 0.15684 0.13531 0.29267 0.0
C3951 C 0.15659 0.11454 0.31316 0.0
N3952 N 0.1357 0.15651 0.29364 0.0
N3953 N 0.14565 0.12374 0.31194 0.0
H3954 H 0.89513 0.15591 0.32187 0.0
H3955 H 0.82497 0.12726 0.28564 0.0
H3956 H 0.87361 0.1758 0.2872 0.0
H3957 H 0.84416 0.10675 0.32131 0.0
H3958 H 0.84523 0.14276 0.28386 0.0
H3959 H 0.87911 0.13569 0.31978 0.0
C3960 C 0.88722 0.15591 0.31368 0.0
C3961 C 0.88556 0.16761 0.30482 0.0
C3962 C 0.84514 0.13481 0.29202 0.0
C3963 C 0.86727 0.14466 0.30239 0.0
C3964 C 0.83355 0.12593 0.29303 0.0
C3965 C 0.83281 0.11583 0.30375 0.0
C3966 C 0.85605 0.13378 0.30194 0.0
C3967 C 0.84431 0.11446 0.31292 0.0
C3968 C 0.87805 0.14441 0.31252 0.0
C3969 C 0.87514 0.16709 0.29439 0.0
N3970 N 0.8554 0.12351 0.31196 0.0
N3971 N 0.86636 0.15589 0.29355 0.0
H3972 H 0.89418 0.84319 0.32101 0.0
H3973 H 0.82178 0.87007 0.2877 0.0
H3974 H 0.87043 0.82131 0.28909 0.0
H3975 H 0.8436 0.89296 0.32028 0.0
H3976 H 0.84144 0.85382 0.28618 0.0
H3977 H 0.87773 0.86308 0.31912 0.0
C3978 C 0.88565 0.84265 0.31347 0.0
C3979 C 0.88357 0.83052 0.3053 0.0
C3980 C 0.84205 0.86244 0.29361 0.0
C3981 C 0.86478 0.85311 0.30312 0.0
C3982 C 0.83079 0.87175 0.29448 0.0
C3983 C 0.83098 0.8828 0.30424 0.0
C3984 C 0.8536 0.86402 0.30269 0.0
C3985 C 0.84302 0.88453 0.31264 0.0
C3986 C 0.87625 0.85397 0.31243 0.0
C3987 C 0.87235 0.83037 0.29572 0.0
N3988 N 0.8538 0.87511 0.3118 0.0
N3989 N 0.86337 0.84141 0.29497 0.0
H3990 H 0.12688 0.82376 0.28659 0.0
H3991 H 0.15595 0.89445 0.32152 0.0
H3992 H 0.10659 0.84362 0.32201 0.0
H3993 H 0.17573 0.87215 0.28728 0.0
H3994 H 0.13569 0.87843 0.31981 0.0
H3995 H 0.14254 0.84387 0.28449 0.0
C3996 C 0.12564 0.83245 0.29387 0.0
C3997 C 0.11555 0.83195 0.3046 0.0
C3998 C 0.1444 0.87719 0.31256 0.0
C3999 C 0.13367 0.85502 0.30243 0.0
C4000 C 0.15592 0.88636 0.3135 0.0
C4001 C 0.1676 0.88449 0.30465 0.0
C4002 C 0.1446 0.8662 0.30265 0.0
C4003 C 0.16704 0.87385 0.29445 0.0
C4004 C 0.13461 0.84396 0.29267 0.0
C4005 C 0.11429 0.84359 0.31361 0.0
N4006 N 0.15582 0.86507 0.29382 0.0
N4007 N 0.12342 0.8546 0.31247 0.0
H4008 H 0.15484 0.8949 0.6784 0.0
H4009 H 0.1267 0.8239 0.71353 0.0
H4010 H 0.1753 0.87257 0.71222 0.0
H4011 H 0.10596 0.84362 0.67829 0.0
H4012 H 0.14228 0.84409 0.71544 0.0
H4013 H 0.13477 0.87867 0.68029 0.0
C4014 C 0.155 0.88675 0.68637 0.0
C4015 C 0.16682 0.88496 0.69505 0.0
C4016 C 0.13427 0.84413 0.70734 0.0
C4017 C 0.14403 0.86643 0.69725 0.0
C4018 C 0.12534 0.83258 0.70626 0.0
C4019 C 0.11514 0.83201 0.69562 0.0
C4020 C 0.13318 0.85518 0.69759 0.0
C4021 C 0.11374 0.84363 0.68661 0.0
C4022 C 0.14358 0.87747 0.68741 0.0
C4023 C 0.16651 0.87423 0.70518 0.0
N4024 N 0.12283 0.85469 0.68765 0.0
N4025 N 0.15538 0.86534 0.70591 0.0
H4026 H 0.15503 0.10597 0.67903 0.0
H4027 H 0.12535 0.17608 0.71464 0.0
H4028 H 0.17495 0.12856 0.713 0.0
H4029 H 0.1054 0.15652 0.67886 0.0
H4030 H 0.14114 0.15606 0.71657 0.0
H4031 H 0.13458 0.12172 0.68101 0.0
C4032 C 0.15499 0.11407 0.68705 0.0
C4033 C 0.16676 0.1161 0.69574 0.0
C4034 C 0.13325 0.15601 0.70835 0.0
C4035 C 0.14354 0.13406 0.69806 0.0
C4036 C 0.12421 0.16747 0.70726 0.0
C4037 C 0.11419 0.16804 0.69646 0.0
C4038 C 0.13246 0.14508 0.69844 0.0
C4039 C 0.11304 0.1565 0.68731 0.0
C4040 C 0.14336 0.12307 0.68814 0.0
C4041 C 0.16619 0.12674 0.70594 0.0
N4042 N 0.12225 0.14555 0.68836 0.0
N4043 N 0.15485 0.13535 0.70674 0.0
H4044 H 0.87201 0.17594 0.71217 0.0
H4045 H 0.84428 0.10502 0.67655 0.0
H4046 H 0.89315 0.15641 0.67707 0.0
H4047 H 0.82357 0.12719 0.71032 0.0
H4048 H 0.86431 0.1213 0.67861 0.0
H4049 H 0.85645 0.15572 0.71384 0.0
C4050 C 0.87346 0.1673 0.70487 0.0
C4051 C 0.88376 0.16792 0.69435 0.0
C4052 C 0.85545 0.12245 0.68567 0.0
C4053 C 0.86575 0.14472 0.69603 0.0
C4054 C 0.84405 0.11314 0.68453 0.0
C4055 C 0.83219 0.11488 0.69316 0.0
C4056 C 0.85492 0.13345 0.69555 0.0
C4057 C 0.83241 0.12558 0.70332 0.0
C4058 C 0.86454 0.15573 0.70582 0.0
C4059 C 0.88528 0.15634 0.6853 0.0
N4060 N 0.84352 0.13448 0.70415 0.0
N4061 N 0.8762 0.14527 0.6862 0.0
H4062 H 0.87465 0.82204 0.71327 0.0
H4063 H 0.84489 0.89304 0.67948 0.0
H4064 H 0.89479 0.84275 0.67825 0.0
H4065 H 0.82486 0.86949 0.71273 0.0
H4066 H 0.86532 0.87722 0.68105 0.0
H4067 H 0.85863 0.84184 0.71554 0.0
C4068 C 0.87578 0.83086 0.70612 0.0
C4069 C 0.88594 0.83068 0.69543 0.0
C4070 C 0.85651 0.87567 0.68811 0.0
C4071 C 0.86741 0.8534 0.69783 0.0
C4072 C 0.8449 0.88471 0.68726 0.0
C4073 C 0.83311 0.88245 0.69587 0.0
C4074 C 0.8563 0.8644 0.6977 0.0
C4075 C 0.83364 0.87151 0.70575 0.0
C4076 C 0.86661 0.84218 0.70742 0.0
C4077 C 0.88705 0.84247 0.68659 0.0
N4078 N 0.84496 0.86286 0.70631 0.0
N4079 N 0.87773 0.8533 0.68785 0.0
H4080 H 0.32169 0.15596 0.10504 0.0
H4081 H 0.28721 0.12708 0.17605 0.0
H4082 H 0.28801 0.17614 0.12783 0.0
H4083 H 0.32217 0.10645 0.15575 0.0
H4084 H 0.28517 0.14292 0.15608 0.0
H4085 H 0.31998 0.13574 0.1211 0.0
C4086 C 0.31379 0.15604 0.11326 0.0
C4087 C 0.30509 0.16781 0.11523 0.0
C4088 C 0.29323 0.13487 0.15587 0.0
C4089 C 0.30311 0.14485 0.13357 0.0
C4090 C 0.29439 0.12581 0.1673 0.0
C4091 C 0.30499 0.11556 0.16764 0.0
C4092 C 0.30287 0.13388 0.14471 0.0
C4093 C 0.31389 0.11427 0.15591 0.0
C4094 C 0.31286 0.14453 0.12244 0.0
C4095 C 0.29506 0.16738 0.12604 0.0
N4096 N 0.31277 0.12349 0.14498 0.0
N4097 N 0.29443 0.15617 0.13483 0.0
H4098 H 0.87284 0.28648 0.17528 0.0
H4099 H 0.84401 0.32228 0.10497 0.0
H4100 H 0.89305 0.32226 0.156 0.0
H4101 H 0.82425 0.28763 0.12665 0.0
H4102 H 0.86422 0.32035 0.12101 0.0
H4103 H 0.85736 0.28452 0.15503 0.0
C4104 C 0.8741 0.29386 0.16669 0.0
C4105 C 0.88411 0.30466 0.1674 0.0
C4106 C 0.85553 0.31306 0.1221 0.0
C4107 C 0.86619 0.30264 0.14416 0.0
C4108 C 0.84404 0.31412 0.11293 0.0
C4109 C 0.83237 0.30522 0.11462 0.0
C4110 C 0.85532 0.30298 0.13294 0.0
C4111 C 0.83293 0.29485 0.12509 0.0
C4112 C 0.86524 0.29274 0.15509 0.0
C4113 C 0.88541 0.31381 0.15587 0.0
N4114 N 0.84412 0.29409 0.13389 0.0
N4115 N 0.87637 0.31274 0.14479 0.0
H4116 H 0.71258 0.87313 0.17444 0.0
H4117 H 0.67667 0.84352 0.10445 0.0
H4118 H 0.6767 0.89311 0.15511 0.0
H4119 H 0.71144 0.8241 0.12623 0.0
H4120 H 0.67846 0.86383 0.12041 0.0
H4121 H 0.7144 0.85737 0.15439 0.0
C4122 C 0.70514 0.87428 0.16588 0.0
C4123 C 0.69436 0.88432 0.16652 0.0
C4124 C 0.6858 0.85519 0.12154 0.0
C4125 C 0.69623 0.86607 0.1435 0.0
C4126 C 0.68482 0.84364 0.11242 0.0
C4127 C 0.69381 0.83204 0.11415 0.0
C4128 C 0.69589 0.8551 0.13237 0.0
C4129 C 0.70416 0.83271 0.12464 0.0
C4130 C 0.70618 0.86526 0.1544 0.0
C4131 C 0.68514 0.88546 0.15503 0.0
N4132 N 0.70484 0.84396 0.13338 0.0
N4133 N 0.68614 0.87627 0.14406 0.0
H4134 H 0.17492 0.71317 0.12633 0.0
H4135 H 0.10411 0.67818 0.15506 0.0
H4136 H 0.15471 0.67829 0.10546 0.0
H4137 H 0.12679 0.7118 0.17546 0.0
H4138 H 0.1201 0.68014 0.1348 0.0
H4139 H 0.15494 0.71506 0.14218 0.0
C4140 C 0.16618 0.70598 0.125 0.0
C4141 C 0.16655 0.69544 0.11469 0.0
C4142 C 0.12142 0.6872 0.14365 0.0
C4143 C 0.14362 0.69738 0.13302 0.0
C4144 C 0.11228 0.68612 0.15517 0.0
C4145 C 0.11425 0.69472 0.16702 0.0
C4146 C 0.1325 0.697 0.14401 0.0
C4147 C 0.125 0.70482 0.16664 0.0
C4148 C 0.15475 0.70705 0.13408 0.0
C4149 C 0.15485 0.68653 0.11333 0.0
N4150 N 0.13375 0.7056 0.1554 0.0
N4151 N 0.14391 0.68755 0.12256 0.0
H4152 H 0.28676 0.87089 0.82393 0.0
H4153 H 0.32211 0.84391 0.89539 0.0
H4154 H 0.32123 0.89269 0.84388 0.0
H4155 H 0.29147 0.82095 0.87101 0.0
H4156 H 0.31934 0.86402 0.8793 0.0
H4157 H 0.28556 0.85492 0.84387 0.0
C4158 C 0.29401 0.8724 0.8326 0.0
C4159 C 0.30424 0.88302 0.83216 0.0
C4160 C 0.31311 0.85462 0.87761 0.0
C4161 C 0.30307 0.86455 0.85504 0.0
C4162 C 0.31465 0.84319 0.88681 0.0
C4163 C 0.30713 0.8307 0.88441 0.0
C4164 C 0.3039 0.85353 0.86609 0.0
C4165 C 0.29762 0.8303 0.87315 0.0
C4166 C 0.29334 0.86325 0.844 0.0
C4167 C 0.31323 0.88459 0.84378 0.0
N4168 N 0.29635 0.84148 0.86439 0.0
N4169 N 0.31258 0.8753 0.8547 0.0
H4170 H 0.17594 0.2871 0.87379 0.0
H4171 H 0.10509 0.32247 0.84559 0.0
H4172 H 0.15621 0.32224 0.89468 0.0
H4173 H 0.12738 0.28863 0.8251 0.0
H4174 H 0.12128 0.3205 0.8657 0.0
H4175 H 0.15581 0.28531 0.85814 0.0
C4176 C 0.16727 0.29438 0.87517 0.0
C4177 C 0.16782 0.30495 0.88543 0.0
C4178 C 0.12247 0.3134 0.85687 0.0
C4179 C 0.14471 0.30313 0.86731 0.0
C4180 C 0.11322 0.31448 0.84543 0.0
C4181 C 0.11502 0.30582 0.8336 0.0
C4182 C 0.13349 0.30353 0.85643 0.0
C4183 C 0.12572 0.29567 0.83391 0.0
C4184 C 0.15575 0.29336 0.8662 0.0
C4185 C 0.15621 0.31397 0.88685 0.0
N4186 N 0.13458 0.29488 0.84506 0.0
N4187 N 0.14518 0.313 0.87772 0.0
H4188 H 0.7138 0.17713 0.87288 0.0
H4189 H 0.67869 0.10664 0.84345 0.0
H4190 H 0.67866 0.15694 0.89334 0.0
H4191 H 0.71235 0.12947 0.82327 0.0
H4192 H 0.68061 0.12249 0.86382 0.0
H4193 H 0.71566 0.15728 0.85687 0.0
C4194 C 0.70654 0.16842 0.87409 0.0
C4195 C 0.69594 0.16876 0.88434 0.0
C4196 C 0.68768 0.12388 0.85499 0.0
C4197 C 0.69785 0.14598 0.86581 0.0
C4198 C 0.68662 0.11482 0.84341 0.0
C4199 C 0.69526 0.11687 0.83159 0.0
C4200 C 0.69749 0.13496 0.85473 0.0
C4201 C 0.70534 0.12762 0.83206 0.0
C4202 C 0.70759 0.15706 0.86491 0.0
C4203 C 0.68694 0.1571 0.88553 0.0
N4204 N 0.7061 0.13629 0.84336 0.0
N4205 N 0.68796 0.14624 0.87621 0.0
H4206 H 0.89566 0.67782 0.84413 0.0
H4207 H 0.82525 0.71325 0.8733 0.0
H4208 H 0.87317 0.71172 0.82398 0.0
H4209 H 0.84519 0.67801 0.89384 0.0
H4210 H 0.8452 0.71506 0.85741 0.0
H4211 H 0.87975 0.6798 0.86445 0.0
C4212 C 0.88754 0.68581 0.84408 0.0
C4213 C 0.8856 0.6945 0.83229 0.0
C4214 C 0.84534 0.70699 0.86545 0.0
C4215 C 0.86745 0.69681 0.85537 0.0
C4216 C 0.83392 0.70596 0.87455 0.0
C4217 C 0.83348 0.69535 0.88478 0.0
C4218 C 0.85638 0.69721 0.86639 0.0
C4219 C 0.8451 0.68631 0.88603 0.0
C4220 C 0.87845 0.68691 0.85565 0.0
C4221 C 0.87493 0.70467 0.83275 0.0
N4222 N 0.85602 0.6873 0.87678 0.0
N4223 N 0.86623 0.70547 0.84402 0.0
H4224 H 0.1744 0.28683 0.12666 0.0
H4225 H 0.10344 0.32274 0.15412 0.0
H4226 H 0.15493 0.32187 0.10534 0.0
H4227 H 0.12721 0.29118 0.17646 0.0
H4228 H 0.11944 0.32001 0.13393 0.0
H4229 H 0.15435 0.28554 0.14248 0.0
C4230 C 0.16581 0.29419 0.12522 0.0
C4231 C 0.16642 0.3046 0.1148 0.0
C4232 C 0.12101 0.31358 0.1432 0.0
C4233 C 0.14342 0.30333 0.1331 0.0
C4234 C 0.11186 0.31509 0.15468 0.0
C4235 C 0.11413 0.30729 0.16703 0.0
C4236 C 0.13236 0.30412 0.14411 0.0
C4237 C 0.12519 0.29754 0.16723 0.0
C4238 C 0.15434 0.29346 0.13429 0.0
C4239 C 0.15489 0.31372 0.1133 0.0
N4240 N 0.13391 0.29631 0.15601 0.0
N4241 N 0.14391 0.31302 0.12251 0.0
H4242 H 0.17352 0.71419 0.87341 0.0
H4243 H 0.10389 0.67748 0.84419 0.0
H4244 H 0.15473 0.67805 0.89343 0.0
H4245 H 0.12509 0.7126 0.82475 0.0
H4246 H 0.11975 0.67959 0.86453 0.0
H4247 H 0.15322 0.716 0.85798 0.0
C4248 C 0.16501 0.7067 0.87465 0.0
C4249 C 0.16588 0.69584 0.88457 0.0
C4250 C 0.12077 0.68695 0.85588 0.0
C4251 C 0.1426 0.69767 0.8667 0.0
C4252 C 0.1117 0.68578 0.84431 0.0
C4253 C 0.11333 0.69476 0.8327 0.0
C4254 C 0.13143 0.69721 0.85579 0.0
C4255 C 0.1236 0.70532 0.83338 0.0
C4256 C 0.15339 0.70773 0.86581 0.0
C4257 C 0.15447 0.68654 0.88585 0.0
N4258 N 0.1323 0.70617 0.84464 0.0
N4259 N 0.14337 0.68752 0.87683 0.0
H4260 H 0.32181 0.15544 0.89466 0.0
H4261 H 0.29076 0.12829 0.82154 0.0
H4262 H 0.28883 0.17596 0.87115 0.0
H4263 H 0.32274 0.1055 0.8443 0.0
H4264 H 0.28808 0.14411 0.84144 0.0
H4265 H 0.32058 0.13545 0.87828 0.0
C4266 C 0.31416 0.15563 0.88621 0.0
C4267 C 0.30554 0.16745 0.88414 0.0
C4268 C 0.29562 0.1356 0.84221 0.0
C4269 C 0.30412 0.14475 0.86542 0.0
C4270 C 0.29716 0.12655 0.83081 0.0
C4271 C 0.3071 0.11568 0.83121 0.0
C4272 C 0.30425 0.13396 0.8541 0.0
C4273 C 0.31498 0.11381 0.84358 0.0
C4274 C 0.3135 0.14425 0.87685 0.0
C4275 C 0.29583 0.16717 0.87304 0.0
N4276 N 0.31354 0.12301 0.85449 0.0
N4277 N 0.29548 0.15609 0.86406 0.0
H4278 H 0.87219 0.28757 0.82456 0.0
H4279 H 0.84419 0.32267 0.89561 0.0
H4280 H 0.89314 0.32263 0.84438 0.0
H4281 H 0.82389 0.28858 0.87354 0.0
H4282 H 0.86422 0.32083 0.87933 0.0
H4283 H 0.85663 0.28566 0.84477 0.0
C4284 C 0.8736 0.29481 0.83326 0.0
C4285 C 0.88385 0.30539 0.83272 0.0
C4286 C 0.85545 0.31364 0.8782 0.0
C4287 C 0.86585 0.30342 0.85592 0.0
C4288 C 0.84406 0.31466 0.88751 0.0
C4289 C 0.83229 0.30588 0.88579 0.0
C4290 C 0.85504 0.30374 0.8672 0.0
C4291 C 0.83264 0.2957 0.87513 0.0
C4292 C 0.86469 0.29372 0.84482 0.0
C4293 C 0.88532 0.31435 0.84437 0.0
N4294 N 0.84375 0.29499 0.86621 0.0
N4295 N 0.87625 0.31331 0.85544 0.0
H4296 H 0.70948 0.87172 0.82256 0.0
H4297 H 0.67831 0.84384 0.89526 0.0
H4298 H 0.67685 0.89387 0.84501 0.0
H4299 H 0.71254 0.82455 0.87251 0.0
H4300 H 0.67922 0.86391 0.87895 0.0
H4301 H 0.71246 0.85612 0.84258 0.0
C4302 C 0.703 0.87336 0.8318 0.0
C4303 C 0.6928 0.88399 0.83207 0.0
C4304 C 0.68666 0.85536 0.87768 0.0
C4305 C 0.69598 0.86595 0.8551 0.0
C4306 C 0.68617 0.84394 0.88701 0.0
C4307 C 0.69523 0.83243 0.88511 0.0
C4308 C 0.6963 0.85521 0.86646 0.0
C4309 C 0.7052 0.83309 0.87426 0.0
C4310 C 0.70471 0.86444 0.84327 0.0
C4311 C 0.68482 0.88576 0.84438 0.0
N4312 N 0.70537 0.84419 0.8653 0.0
N4313 N 0.68642 0.87666 0.85536 0.0
H4314 H 0.84323 0.67739 0.10475 0.0
H4315 H 0.87213 0.7128 0.17531 0.0
H4316 H 0.82314 0.71148 0.12702 0.0
H4317 H 0.89268 0.67749 0.15552 0.0
H4318 H 0.85632 0.71461 0.15529 0.0
H4319 H 0.86344 0.67927 0.12081 0.0
C4320 C 0.84318 0.68541 0.11285 0.0
C4321 C 0.83143 0.69418 0.11468 0.0
C4322 C 0.86434 0.70651 0.15519 0.0
C4323 C 0.85438 0.69636 0.13302 0.0
C4324 C 0.87339 0.70549 0.16665 0.0
C4325 C 0.88361 0.69487 0.16715 0.0
C4326 C 0.86533 0.69672 0.14417 0.0
C4327 C 0.88489 0.6858 0.15555 0.0
C4328 C 0.85467 0.68644 0.12203 0.0
C4329 C 0.83188 0.70437 0.12534 0.0
N4330 N 0.87569 0.68679 0.14459 0.0
N4331 N 0.84309 0.7051 0.13413 0.0
H4332 H 0.28638 0.82431 0.12643 0.0
H4333 H 0.32282 0.89434 0.15532 0.0
H4334 H 0.32248 0.84314 0.10637 0.0
H4335 H 0.28859 0.87239 0.17552 0.0
H4336 H 0.32068 0.87834 0.13507 0.0
H4337 H 0.28469 0.84454 0.14199 0.0
C4338 C 0.29388 0.83281 0.12521 0.0
C4339 C 0.3047 0.83196 0.11523 0.0
C4340 C 0.31353 0.87719 0.14387 0.0
C4341 C 0.30299 0.85516 0.13324 0.0
C4342 C 0.31472 0.88633 0.15539 0.0
C4343 C 0.30599 0.88455 0.16718 0.0
C4344 C 0.30349 0.86632 0.14419 0.0
C4345 C 0.29568 0.87402 0.16674 0.0
C4346 C 0.29293 0.84438 0.13412 0.0
C4347 C 0.31401 0.84337 0.11399 0.0
N4348 N 0.29479 0.86527 0.15552 0.0
N4349 N 0.31309 0.85443 0.12307 0.0
H4350 H 0.71275 0.17663 0.12613 0.0
H4351 H 0.67724 0.10609 0.15504 0.0
H4352 H 0.67757 0.15676 0.10545 0.0
H4353 H 0.71061 0.12894 0.17566 0.0
H4354 H 0.67932 0.12205 0.13476 0.0
H4355 H 0.71441 0.15671 0.14208 0.0
C4356 C 0.70544 0.16798 0.12486 0.0
C4357 C 0.69489 0.16843 0.11458 0.0
C4358 C 0.68629 0.12342 0.14366 0.0
C4359 C 0.69657 0.14557 0.13302 0.0
C4360 C 0.68514 0.11431 0.1552 0.0
C4361 C 0.69365 0.11632 0.16711 0.0
C4362 C 0.69608 0.13452 0.14407 0.0
C4363 C 0.7037 0.12711 0.16679 0.0
C4364 C 0.70638 0.15658 0.134 0.0
C4365 C 0.68582 0.15683 0.1133 0.0
N4366 N 0.70456 0.13582 0.15554 0.0
N4367 N 0.68673 0.14593 0.12258 0.0
H4368 H 0.60709 0.65571 0.82211 0.0
H4369 H 0.67697 0.62447 0.78759 0.0
H4370 H 0.62943 0.67397 0.78706 0.0
H4371 H 0.65731 0.60579 0.82398 0.0
H4372 H 0.65694 0.64014 0.78499 0.0
H4373 H 0.62267 0.63507 0.82086 0.0
C4374 C 0.61509 0.65526 0.814 0.0
C4375 C 0.61712 0.66663 0.80479 0.0
C4376 C 0.65687 0.63255 0.7935 0.0
C4377 C 0.6349 0.64321 0.80333 0.0
C4378 C 0.66833 0.62359 0.79498 0.0
C4379 C 0.66887 0.61397 0.80613 0.0
C4380 C 0.6459 0.63212 0.80339 0.0
C4381 C 0.6573 0.61313 0.81527 0.0
C4382 C 0.624 0.64352 0.81333 0.0
C4383 C 0.62763 0.66553 0.79451 0.0
N4384 N 0.64635 0.62229 0.81385 0.0
N4385 N 0.63616 0.65412 0.79413 0.0
H4386 H 0.32255 0.62868 0.78806 0.0
H4387 H 0.39526 0.65482 0.82142 0.0
H4388 H 0.34339 0.60636 0.82166 0.0
H4389 H 0.37042 0.67798 0.79129 0.0
H4390 H 0.37885 0.63491 0.81913 0.0
H4391 H 0.34254 0.64453 0.78642 0.0
C4392 C 0.33142 0.62704 0.79504 0.0
C4393 C 0.33122 0.6163 0.80515 0.0
C4394 C 0.37713 0.6443 0.81291 0.0
C4395 C 0.35419 0.63462 0.80346 0.0
C4396 C 0.3865 0.65562 0.81417 0.0
C4397 C 0.38409 0.66811 0.80666 0.0
C4398 C 0.36539 0.64551 0.80398 0.0
C4399 C 0.37259 0.66863 0.79743 0.0
C4400 C 0.34286 0.63612 0.7941 0.0
C4401 C 0.3431 0.61456 0.81376 0.0
N4402 N 0.36366 0.65755 0.79643 0.0
N4403 N 0.35406 0.62377 0.81286 0.0
H4404 H 0.39374 0.34456 0.82183 0.0
H4405 H 0.32352 0.37433 0.78659 0.0
H4406 H 0.37138 0.32504 0.78748 0.0
H4407 H 0.34314 0.39413 0.82241 0.0
H4408 H 0.34358 0.35862 0.78449 0.0
H4409 H 0.37791 0.36497 0.82009 0.0
C4410 C 0.38568 0.34468 0.81378 0.0
C4411 C 0.38373 0.33303 0.80491 0.0
C4412 C 0.34363 0.36646 0.79276 0.0
C4413 C 0.36568 0.3562 0.80287 0.0
C4414 C 0.33215 0.37546 0.79395 0.0
C4415 C 0.33159 0.38542 0.80481 0.0
C4416 C 0.3546 0.36722 0.80263 0.0
C4417 C 0.34316 0.38653 0.81393 0.0
C4418 C 0.37663 0.35629 0.81283 0.0
C4419 C 0.37314 0.3337 0.79468 0.0
N4420 N 0.35413 0.37737 0.81278 0.0
N4421 N 0.36447 0.34501 0.79402 0.0
H4422 H 0.62498 0.32429 0.78761 0.0
H4423 H 0.65482 0.39419 0.82345 0.0
H4424 H 0.60519 0.34362 0.82359 0.0
H4425 H 0.67431 0.3721 0.7889 0.0
H4426 H 0.63441 0.37838 0.82159 0.0
H4427 H 0.64073 0.34434 0.7857 0.0
C4428 C 0.62387 0.33285 0.79505 0.0
C4429 C 0.6139 0.33221 0.80589 0.0
C4430 C 0.64309 0.37715 0.81431 0.0
C4431 C 0.63213 0.35521 0.80393 0.0
C4432 C 0.6547 0.38619 0.81533 0.0
C4433 C 0.66634 0.38432 0.80643 0.0
C4434 C 0.64316 0.36628 0.80427 0.0
C4435 C 0.66566 0.3738 0.79612 0.0
C4436 C 0.63289 0.34433 0.79396 0.0
C4437 C 0.61279 0.3437 0.81511 0.0
N4438 N 0.65435 0.36515 0.7954 0.0
N4439 N 0.62198 0.35467 0.81407 0.0
H4440 H 0.65584 0.39443 0.17857 0.0
H4441 H 0.62753 0.32334 0.2134 0.0
H4442 H 0.67648 0.37167 0.21199 0.0
H4443 H 0.6065 0.34355 0.17861 0.0
H4444 H 0.64335 0.34334 0.21523 0.0
H4445 H 0.6357 0.37828 0.18047 0.0
C4446 C 0.65603 0.3862 0.18644 0.0
C4447 C 0.66791 0.38427 0.19502 0.0
C4448 C 0.63522 0.34353 0.20725 0.0
C4449 C 0.64504 0.36583 0.19723 0.0
C4450 C 0.62616 0.33208 0.20621 0.0
C4451 C 0.6158 0.33171 0.19572 0.0
C4452 C 0.63411 0.35467 0.1976 0.0
C4453 C 0.6144 0.34341 0.18681 0.0
C4454 C 0.64458 0.37697 0.18749 0.0
C4455 C 0.66763 0.37344 0.20503 0.0
N4456 N 0.62361 0.35436 0.18781 0.0
N4457 N 0.65646 0.36461 0.20578 0.0
H4458 H 0.62677 0.67528 0.21407 0.0
H4459 H 0.65556 0.60484 0.17845 0.0
H4460 H 0.60637 0.65579 0.17852 0.0
H4461 H 0.67542 0.62672 0.21291 0.0
H4462 H 0.63534 0.62087 0.18037 0.0
H4463 H 0.64232 0.65507 0.21601 0.0
C4464 C 0.62548 0.66664 0.20673 0.0
C4465 C 0.6154 0.66729 0.196 0.0
C4466 C 0.64405 0.62201 0.18762 0.0
C4467 C 0.6334 0.6441 0.19799 0.0
C4468 C 0.65555 0.61284 0.18657 0.0
C4469 C 0.66725 0.61459 0.19542 0.0
C4470 C 0.64429 0.63289 0.19765 0.0
C4471 C 0.66672 0.62512 0.20573 0.0
C4472 C 0.63438 0.65508 0.20784 0.0
C4473 C 0.61407 0.65572 0.18691 0.0
N4474 N 0.65552 0.6339 0.20648 0.0
N4475 N 0.62314 0.64466 0.18796 0.0
H4476 H 0.39373 0.65532 0.17871 0.0
H4477 H 0.32136 0.6273 0.21105 0.0
H4478 H 0.37025 0.67576 0.21177 0.0
H4479 H 0.34275 0.60602 0.17713 0.0
H4480 H 0.34127 0.64314 0.21346 0.0
H4481 H 0.37731 0.63535 0.17986 0.0
C4482 C 0.38528 0.6555 0.18635 0.0
C4483 C 0.38324 0.66728 0.19504 0.0
C4484 C 0.34174 0.63496 0.20554 0.0
C4485 C 0.36449 0.6446 0.19639 0.0
C4486 C 0.33033 0.62589 0.20416 0.0
C4487 C 0.33033 0.61543 0.19376 0.0
C4488 C 0.35322 0.63375 0.19632 0.0
C4489 C 0.34232 0.61399 0.18525 0.0
C4490 C 0.37589 0.64414 0.18696 0.0
C4491 C 0.37213 0.66699 0.20473 0.0
N4492 N 0.35324 0.6232 0.18658 0.0
N4493 N 0.36315 0.65591 0.20506 0.0
H4494 H 0.37461 0.32312 0.21352 0.0
H4495 H 0.34469 0.39303 0.17764 0.0
H4496 H 0.39445 0.34256 0.17762 0.0
H4497 H 0.32458 0.37018 0.21133 0.0
H4498 H 0.36519 0.37734 0.17971 0.0
H4499 H 0.35867 0.34304 0.21529 0.0
C4500 C 0.3757 0.33169 0.20608 0.0
C4501 C 0.38574 0.3311 0.19529 0.0
C4502 C 0.35635 0.37591 0.18675 0.0
C4503 C 0.36728 0.35394 0.19708 0.0
C4504 C 0.34469 0.38488 0.18561 0.0
C4505 C 0.33286 0.38276 0.19421 0.0
C4506 C 0.35614 0.36489 0.19662 0.0
C4507 C 0.33338 0.37206 0.20434 0.0
C4508 C 0.36657 0.34308 0.20708 0.0
C4509 C 0.3868 0.34259 0.18606 0.0
N4510 N 0.34475 0.3635 0.2052 0.0
N4511 N 0.37751 0.35348 0.18702 0.0
H4512 H 0.8217 0.65585 0.60529 0.0
H4513 H 0.78757 0.62679 0.67641 0.0
H4514 H 0.78804 0.67592 0.62822 0.0
H4515 H 0.82244 0.60622 0.65589 0.0
H4516 H 0.78544 0.64269 0.6565 0.0
H4517 H 0.8201 0.63561 0.62135 0.0
C4518 C 0.81383 0.65589 0.61354 0.0
C4519 C 0.8051 0.66765 0.61555 0.0
C4520 C 0.79351 0.63464 0.65622 0.0
C4521 C 0.80325 0.64466 0.63388 0.0
C4522 C 0.79472 0.62554 0.66762 0.0
C4523 C 0.80531 0.61529 0.66788 0.0
C4524 C 0.80308 0.63368 0.64501 0.0
C4525 C 0.81416 0.61404 0.65611 0.0
C4526 C 0.81296 0.64438 0.62271 0.0
C4527 C 0.79511 0.66717 0.62639 0.0
N4528 N 0.81299 0.62329 0.64521 0.0
N4529 N 0.79454 0.65595 0.63517 0.0
H4530 H 0.34247 0.82338 0.60368 0.0
H4531 H 0.37139 0.78593 0.67305 0.0
H4532 H 0.32277 0.78825 0.62464 0.0
H4533 H 0.39167 0.8221 0.65458 0.0
H4534 H 0.35597 0.78439 0.65271 0.0
H4535 H 0.36279 0.82101 0.61954 0.0
C4536 C 0.34253 0.81503 0.61143 0.0
C4537 C 0.33085 0.80612 0.613 0.0
C4538 C 0.36386 0.79261 0.65297 0.0
C4539 C 0.35391 0.80337 0.63109 0.0
C4540 C 0.37268 0.79348 0.6646 0.0
C4541 C 0.38268 0.80427 0.66557 0.0
C4542 C 0.36482 0.80276 0.64226 0.0
C4543 C 0.38403 0.81365 0.65424 0.0
C4544 C 0.35409 0.81371 0.6205 0.0
C4545 C 0.33145 0.79549 0.6232 0.0
N4546 N 0.37501 0.81283 0.64312 0.0
N4547 N 0.3427 0.79449 0.63189 0.0
H4548 H 0.17827 0.3433 0.60559 0.0
H4549 H 0.21171 0.37137 0.67745 0.0
H4550 H 0.21105 0.32239 0.62903 0.0
H4551 H 0.17786 0.39292 0.65622 0.0
H4552 H 0.21371 0.35535 0.65763 0.0
H4553 H 0.17994 0.36339 0.62182 0.0
C4554 C 0.18596 0.34303 0.61399 0.0
C4555 C 0.19442 0.3311 0.61607 0.0
C4556 C 0.2059 0.36363 0.65718 0.0
C4557 C 0.19636 0.35392 0.63461 0.0
C4558 C 0.20476 0.37281 0.66853 0.0
C4559 C 0.19449 0.38339 0.66856 0.0
C4560 C 0.19659 0.36486 0.64578 0.0
C4561 C 0.18589 0.38485 0.65663 0.0
C4562 C 0.18687 0.35446 0.62327 0.0
C4563 C 0.20419 0.33129 0.62713 0.0
N4564 N 0.18699 0.37555 0.64577 0.0
N4565 N 0.20481 0.34244 0.636 0.0
H4566 H 0.67654 0.21403 0.6257 0.0
H4567 H 0.60561 0.17974 0.65478 0.0
H4568 H 0.65627 0.17886 0.60539 0.0
H4569 H 0.62789 0.21413 0.67433 0.0
H4570 H 0.62161 0.18133 0.63452 0.0
H4571 H 0.65641 0.21642 0.64129 0.0
C4572 C 0.66775 0.20688 0.62444 0.0
C4573 C 0.66815 0.19612 0.61437 0.0
C4574 C 0.62284 0.18864 0.64317 0.0
C4575 C 0.64505 0.19863 0.63241 0.0
C4576 C 0.61369 0.18778 0.6547 0.0
C4577 C 0.61556 0.1967 0.66633 0.0
C4578 C 0.63384 0.19854 0.64331 0.0
C4579 C 0.62619 0.2069 0.66569 0.0
C4580 C 0.65623 0.20824 0.63336 0.0
C4581 C 0.65639 0.18727 0.61308 0.0
N4582 N 0.63497 0.20746 0.65446 0.0
N4583 N 0.64537 0.18857 0.62217 0.0
H4584 H 0.78645 0.32254 0.37207 0.0
H4585 H 0.82096 0.39421 0.34483 0.0
H4586 H 0.82067 0.34298 0.3938 0.0
H4587 H 0.78791 0.37144 0.32361 0.0
H4588 H 0.81899 0.37782 0.36476 0.0
H4589 H 0.78468 0.34261 0.35633 0.0
C4590 C 0.79353 0.33134 0.37361 0.0
C4591 C 0.80384 0.33102 0.38415 0.0
C4592 C 0.81207 0.37656 0.3558 0.0
C4593 C 0.80202 0.35408 0.36595 0.0
C4594 C 0.81315 0.38592 0.34446 0.0
C4595 C 0.80471 0.38407 0.33248 0.0
C4596 C 0.80242 0.36535 0.35512 0.0
C4597 C 0.79477 0.37316 0.33254 0.0
C4598 C 0.79252 0.34283 0.3646 0.0
C4599 C 0.81261 0.3428 0.38576 0.0
N4600 N 0.79399 0.36419 0.34361 0.0
N4601 N 0.81164 0.3538 0.3766 0.0
H4602 H 0.65583 0.82315 0.39544 0.0
H4603 H 0.62719 0.78768 0.32487 0.0
H4604 H 0.67579 0.78879 0.37348 0.0
H4605 H 0.60654 0.82297 0.34458 0.0
H4606 H 0.64278 0.78575 0.34505 0.0
H4607 H 0.6356 0.82118 0.37941 0.0
C4608 C 0.65584 0.81504 0.38743 0.0
C4609 C 0.66757 0.80624 0.38565 0.0
C4610 C 0.63478 0.79386 0.34509 0.0
C4611 C 0.64461 0.80396 0.36735 0.0
C4612 C 0.62586 0.79496 0.33354 0.0
C4613 C 0.61569 0.80562 0.33297 0.0
C4614 C 0.63372 0.80362 0.35614 0.0
C4615 C 0.6143 0.81464 0.34459 0.0
C4616 C 0.64433 0.81396 0.37826 0.0
C4617 C 0.66706 0.79593 0.37511 0.0
N4618 N 0.62339 0.81358 0.35564 0.0
N4619 N 0.65586 0.79517 0.36632 0.0
H4620 H 0.2138 0.67661 0.37289 0.0
H4621 H 0.17862 0.60595 0.34393 0.0
H4622 H 0.17885 0.6564 0.39366 0.0
H4623 H 0.21211 0.62875 0.32343 0.0
H4624 H 0.18063 0.6219 0.36421 0.0
H4625 H 0.21556 0.65674 0.35689 0.0
C4626 C 0.20656 0.66789 0.37417 0.0
C4627 C 0.19605 0.66824 0.38451 0.0
C4628 C 0.18765 0.62327 0.35533 0.0
C4629 C 0.19785 0.64542 0.366 0.0
C4630 C 0.18653 0.61415 0.34379 0.0
C4631 C 0.19509 0.61615 0.33192 0.0
C4632 C 0.19743 0.63436 0.35496 0.0
C4633 C 0.20516 0.62693 0.33228 0.0
C4634 C 0.20756 0.65652 0.36501 0.0
C4635 C 0.18708 0.65656 0.38578 0.0
N4636 N 0.20597 0.63566 0.34353 0.0
N4637 N 0.18804 0.64569 0.37648 0.0
H4638 H 0.32435 0.21275 0.37328 0.0
H4639 H 0.39504 0.1774 0.34468 0.0
H4640 H 0.34423 0.17765 0.39409 0.0
H4641 H 0.37263 0.21122 0.32431 0.0
H4642 H 0.37898 0.17939 0.36489 0.0
H4643 H 0.34439 0.21455 0.35751 0.0
C4644 C 0.33303 0.20549 0.37461 0.0
C4645 C 0.33255 0.19492 0.38488 0.0
C4646 C 0.37773 0.18648 0.35606 0.0
C4647 C 0.35556 0.19676 0.36663 0.0
C4648 C 0.38691 0.18538 0.34456 0.0
C4649 C 0.38503 0.19404 0.33274 0.0
C4650 C 0.36671 0.19635 0.35568 0.0
C4651 C 0.37434 0.20419 0.33311 0.0
C4652 C 0.3445 0.20651 0.36558 0.0
C4653 C 0.34418 0.18591 0.38625 0.0
N4654 N 0.36555 0.20498 0.34432 0.0
N4655 N 0.35516 0.18689 0.37706 0.0
H4656 H 0.67572 0.78785 0.62623 0.0
H4657 H 0.60448 0.82293 0.65404 0.0
H4658 H 0.656 0.82292 0.60521 0.0
H4659 H 0.62867 0.79154 0.67618 0.0
H4660 H 0.62049 0.82051 0.63381 0.0
H4661 H 0.65571 0.78629 0.64207 0.0
C4662 C 0.66708 0.79516 0.62486 0.0
C4663 C 0.66761 0.80566 0.61452 0.0
C4664 C 0.62215 0.81404 0.64305 0.0
C4665 C 0.64465 0.8041 0.63285 0.0
C4666 C 0.613 0.81538 0.65455 0.0
C4667 C 0.61538 0.80754 0.66684 0.0
C4668 C 0.63361 0.80472 0.64389 0.0
C4669 C 0.62656 0.79793 0.66698 0.0
C4670 C 0.65564 0.79428 0.63394 0.0
C4671 C 0.65602 0.81471 0.61311 0.0
N4672 N 0.63527 0.79686 0.65575 0.0
N4673 N 0.64506 0.81387 0.62234 0.0
H4674 H 0.62624 0.21297 0.32576 0.0
H4675 H 0.65558 0.17623 0.39543 0.0
H4676 H 0.6061 0.17697 0.3447 0.0
H4677 H 0.67536 0.21091 0.37381 0.0
H4678 H 0.63527 0.17834 0.37951 0.0
H4679 H 0.64197 0.21454 0.34586 0.0
C4680 C 0.62505 0.20546 0.33425 0.0
C4681 C 0.61498 0.19471 0.33348 0.0
C4682 C 0.64399 0.18559 0.37841 0.0
C4683 C 0.63319 0.19627 0.35654 0.0
C4684 C 0.65554 0.18442 0.38751 0.0
C4685 C 0.66723 0.19329 0.3858 0.0
C4686 C 0.64417 0.19575 0.36765 0.0
C4687 C 0.66666 0.20371 0.37538 0.0
C4688 C 0.63405 0.20634 0.34575 0.0
C4689 C 0.61378 0.18538 0.34488 0.0
N4690 N 0.65541 0.20457 0.36666 0.0
N4691 N 0.62295 0.18623 0.35587 0.0
H4692 H 0.78684 0.62753 0.32401 0.0
H4693 H 0.82091 0.65558 0.39554 0.0
H4694 H 0.82136 0.60641 0.34456 0.0
H4695 H 0.78763 0.67626 0.37261 0.0
H4696 H 0.81909 0.63546 0.37938 0.0
H4697 H 0.78472 0.64324 0.34408 0.0
C4698 C 0.79391 0.62612 0.33284 0.0
C4699 C 0.80441 0.61577 0.33254 0.0
C4700 C 0.81207 0.64433 0.37803 0.0
C4701 C 0.8022 0.63394 0.35559 0.0
C4702 C 0.81307 0.65578 0.38728 0.0
C4703 C 0.80453 0.66768 0.3853 0.0
C4704 C 0.80242 0.64482 0.36682 0.0
C4705 C 0.79456 0.6674 0.37442 0.0
C4706 C 0.7927 0.63512 0.34433 0.0
C4707 C 0.81316 0.61431 0.34436 0.0
N4708 N 0.79387 0.65624 0.36557 0.0
N4709 N 0.812 0.62346 0.35535 0.0
H4710 H 0.37341 0.78703 0.32499 0.0
H4711 H 0.34408 0.8228 0.39514 0.0
H4712 H 0.39364 0.82269 0.34449 0.0
H4713 H 0.32444 0.78823 0.37323 0.0
H4714 H 0.36437 0.82095 0.37918 0.0
H4715 H 0.35767 0.7852 0.34504 0.0
C4716 C 0.37462 0.79442 0.33359 0.0
C4717 C 0.38472 0.80514 0.333 0.0
C4718 C 0.35568 0.81367 0.37802 0.0
C4719 C 0.3665 0.80326 0.35602 0.0
C4720 C 0.34414 0.81469 0.38714 0.0
C4721 C 0.33249 0.80578 0.38537 0.0
C4722 C 0.35553 0.80362 0.36715 0.0
C4723 C 0.3331 0.79546 0.37485 0.0
C4724 C 0.3656 0.79337 0.34507 0.0
C4725 C 0.38593 0.8143 0.34453 0.0
N4726 N 0.34434 0.79474 0.36611 0.0
N4727 N 0.37676 0.81329 0.35551 0.0
H4728 H 0.20922 0.37001 0.32133 0.0
H4729 H 0.17814 0.34369 0.39471 0.0
H4730 H 0.17787 0.39352 0.34424 0.0
H4731 H 0.21088 0.3227 0.37129 0.0
H4732 H 0.17957 0.36358 0.37823 0.0
H4733 H 0.21176 0.35424 0.34128 0.0
C4734 C 0.20293 0.37192 0.33064 0.0
C4735 C 0.19321 0.38299 0.33107 0.0
C4736 C 0.18657 0.35469 0.37685 0.0
C4737 C 0.19589 0.36476 0.35402 0.0
C4738 C 0.18578 0.34337 0.38627 0.0
C4739 C 0.19428 0.33145 0.38425 0.0
C4740 C 0.19593 0.35403 0.3654 0.0
C4741 C 0.20399 0.33157 0.37314 0.0
C4742 C 0.20439 0.3629 0.34207 0.0
C4743 C 0.18546 0.38506 0.34349 0.0
N4744 N 0.20445 0.3426 0.36411 0.0
N4745 N 0.18682 0.37588 0.35443 0.0
H4746 H 0.37194 0.20974 0.67759 0.0
H4747 H 0.34446 0.17738 0.60516 0.0
H4748 H 0.3945 0.17719 0.65541 0.0
H4749 H 0.32401 0.21068 0.62829 0.0
H4750 H 0.36456 0.17894 0.62139 0.0
H4751 H 0.35613 0.21215 0.65766 0.0
C4752 C 0.37363 0.20316 0.66843 0.0
C4753 C 0.38443 0.19313 0.66821 0.0
C4754 C 0.35575 0.18602 0.62276 0.0
C4755 C 0.36615 0.19566 0.6453 0.0
C4756 C 0.34431 0.18517 0.61349 0.0
C4757 C 0.33248 0.19379 0.61551 0.0
C4758 C 0.3553 0.19559 0.63404 0.0
C4759 C 0.33281 0.20368 0.62645 0.0
C4760 C 0.36459 0.20454 0.65701 0.0
C4761 C 0.38625 0.18502 0.656 0.0
N4762 N 0.34395 0.20422 0.63533 0.0
N4763 N 0.37704 0.1863 0.64507 0.0
H4764 H 0.81994 0.39385 0.65521 0.0
H4765 H 0.78563 0.32288 0.62588 0.0
H4766 H 0.78698 0.37032 0.67575 0.0
H4767 H 0.82052 0.34345 0.60538 0.0
H4768 H 0.78367 0.34264 0.64199 0.0
H4769 H 0.81816 0.37794 0.63488 0.0
C4770 C 0.81219 0.38549 0.65535 0.0
C4771 C 0.80371 0.38329 0.66725 0.0
C4772 C 0.7917 0.34296 0.63391 0.0
C4773 C 0.80163 0.36513 0.64414 0.0
C4774 C 0.79281 0.33165 0.62468 0.0
C4775 C 0.80337 0.33144 0.61439 0.0
C4776 C 0.80133 0.35413 0.63303 0.0
C4777 C 0.81226 0.34319 0.61322 0.0
C4778 C 0.81121 0.3764 0.64378 0.0
C4779 C 0.79386 0.37231 0.66689 0.0
N4780 N 0.81118 0.354 0.62259 0.0
N4781 N 0.79317 0.36362 0.6556 0.0
H4782 H 0.17786 0.60558 0.65554 0.0
H4783 H 0.21274 0.67657 0.627 0.0
H4784 H 0.21101 0.62859 0.67633 0.0
H4785 H 0.17802 0.65624 0.60598 0.0
H4786 H 0.21449 0.65668 0.64297 0.0
H4787 H 0.17984 0.62163 0.63534 0.0
C4788 C 0.18569 0.61385 0.65576 0.0
C4789 C 0.19416 0.61587 0.66769 0.0
C4790 C 0.20654 0.65644 0.63481 0.0
C4791 C 0.19648 0.6342 0.64474 0.0
C4792 C 0.20555 0.66783 0.62566 0.0
C4793 C 0.1951 0.66814 0.61526 0.0
C4794 C 0.1969 0.6453 0.63373 0.0
C4795 C 0.18619 0.65643 0.61391 0.0
C4796 C 0.18679 0.62303 0.64426 0.0
C4797 C 0.20413 0.62675 0.66744 0.0
N4798 N 0.18715 0.64554 0.6232 0.0
N4799 N 0.20493 0.63553 0.65623 0.0
loop_
_geom_bond_atom_site_label_1
_geom_bond_atom_site_label_2
_geom_bond_distance
_geom_bond_site_symmetry_2
_ccdc_geom_bond_type
O0 Cd1 2.223 . S
O0 C8 1.315 . S
Cd1 O0 2.223 . S
Cd1 O4 2.297 . S
Cd1 O5 2.439 . S
Cd1 O11 2.240 . S
Cd2 O3 2.240 . S
Cd2 O10 2.223 . S
Cd2 O12 2.297 . S
Cd2 O13 2.439 . S
O3 Cd2 2.240 . S
O3 C8 1.279 . S
O4 Cd1 2.297 . S
O4 C6 1.247 . S
O5 Cd1 2.439 . S
O5 C6 1.208 . S
C6 O4 1.247 . S
C6 O5 1.208 . S
C7 O12 1.247 . S
C7 O13 1.208 . S
C8 O0 1.315 . S
C8 O3 1.279 . S
C9 O10 1.315 . S
C9 O11 1.279 . S
O10 Cd2 2.223 . S
O10 C9 1.315 . S
O11 Cd1 2.240 . S
O11 C9 1.279 . S
O12 Cd2 2.297 . S
O12 C7 1.247 . S
O13 Cd2 2.439 . S
O13 C7 1.208 . S
O14 Cd15 2.223 . S
O14 C22 1.315 . S
Cd15 O14 2.223 . S
Cd15 O18 2.297 . S
Cd15 O19 2.439 . S
Cd15 O25 2.240 . S
Cd16 O17 2.240 . S
Cd16 O24 2.223 . S
Cd16 O26 2.297 . S
Cd16 O27 2.439 . S
O17 Cd16 2.240 . S
O17 C22 1.279 . S
O18 Cd15 2.297 . S
O18 C20 1.247 . S
O19 Cd15 2.439 . S
O19 C20 1.208 . S
C20 O18 1.247 . S
C20 O19 1.208 . S
C21 O26 1.247 . S
C21 O27 1.208 . S
C22 O14 1.315 . S
C22 O17 1.279 . S
C23 O24 1.315 . S
C23 O25 1.279 . S
O24 Cd16 2.223 . S
O24 C23 1.315 . S
O25 Cd15 2.240 . S
O25 C23 1.279 . S
O26 Cd16 2.297 . S
O26 C21 1.247 . S
O27 Cd16 2.439 . S
O27 C21 1.208 . S
O28 Cd29 2.223 . S
O28 C36 1.315 . S
Cd29 O28 2.223 . S
Cd29 O32 2.297 . S
Cd29 O33 2.439 . S
Cd29 O39 2.240 . S
Cd30 O31 2.240 . S
Cd30 O38 2.223 . S
Cd30 O40 2.297 . S
Cd30 O41 2.439 . S
O31 Cd30 2.240 . S
O31 C36 1.279 . S
O32 Cd29 2.297 . S
O32 C34 1.247 . S
O33 Cd29 2.439 . S
O33 C34 1.208 . S
C34 O32 1.247 . S
C34 O33 1.208 . S
C35 O40 1.247 . S
C35 O41 1.208 . S
C36 O28 1.315 . S
C36 O31 1.279 . S
C37 O38 1.315 . S
C37 O39 1.279 . S
O38 Cd30 2.223 . S
O38 C37 1.315 . S
O39 Cd29 2.240 . S
O39 C37 1.279 . S
O40 Cd30 2.297 . S
O40 C35 1.247 . S
O41 Cd30 2.439 . S
O41 C35 1.208 . S
O42 Cd43 2.223 . S
O42 C50 1.315 . S
Cd43 O42 2.223 . S
Cd43 O46 2.297 . S
Cd43 O47 2.439 . S
Cd43 O53 2.240 . S
Cd44 O45 2.240 . S
Cd44 O52 2.223 . S
Cd44 O54 2.297 . S
Cd44 O55 2.439 . S
O45 Cd44 2.240 . S
O45 C50 1.279 . S
O46 Cd43 2.297 . S
O46 C48 1.247 . S
O47 Cd43 2.439 . S
O47 C48 1.208 . S
C48 O46 1.247 . S
C48 O47 1.208 . S
C49 O54 1.247 . S
C49 O55 1.208 . S
C50 O42 1.315 . S
C50 O45 1.279 . S
C51 O52 1.315 . S
C51 O53 1.279 . S
O52 Cd44 2.223 . S
O52 C51 1.315 . S
O53 Cd43 2.240 . S
O53 C51 1.279 . S
O54 Cd44 2.297 . S
O54 C49 1.247 . S
O55 Cd44 2.439 . S
O55 C49 1.208 . S
O56 Cd57 2.223 . S
O56 C64 1.315 . S
Cd57 O56 2.223 . S
Cd57 O60 2.297 . S
Cd57 O61 2.439 . S
Cd57 O67 2.240 . S
Cd58 O59 2.240 . S
Cd58 O66 2.223 . S
Cd58 O68 2.297 . S
Cd58 O69 2.439 . S
O59 Cd58 2.240 . S
O59 C64 1.279 . S
O60 Cd57 2.297 . S
O60 C62 1.247 . S
O61 Cd57 2.439 . S
O61 C62 1.208 . S
C62 O60 1.247 . S
C62 O61 1.208 . S
C63 O68 1.247 . S
C63 O69 1.208 . S
C64 O56 1.315 . S
C64 O59 1.279 . S
C65 O66 1.315 . S
C65 O67 1.279 . S
O66 Cd58 2.223 . S
O66 C65 1.315 . S
O67 Cd57 2.240 . S
O67 C65 1.279 . S
O68 Cd58 2.297 . S
O68 C63 1.247 . S
O69 Cd58 2.439 . S
O69 C63 1.208 . S
O70 Cd71 2.223 . S
O70 C78 1.315 . S
Cd71 O70 2.223 . S
Cd71 O74 2.297 . S
Cd71 O75 2.439 . S
Cd71 O81 2.240 . S
Cd72 O73 2.240 . S
Cd72 O80 2.223 . S
Cd72 O82 2.297 . S
Cd72 O83 2.439 . S
O73 Cd72 2.240 . S
O73 C78 1.279 . S
O74 Cd71 2.297 . S
O74 C76 1.247 . S
O75 Cd71 2.439 . S
O75 C76 1.208 . S
C76 O74 1.247 . S
C76 O75 1.208 . S
C77 O82 1.247 . S
C77 O83 1.208 . S
C78 O70 1.315 . S
C78 O73 1.279 . S
C79 O80 1.315 . S
C79 O81 1.279 . S
O80 Cd72 2.223 . S
O80 C79 1.315 . S
O81 Cd71 2.240 . S
O81 C79 1.279 . S
O82 Cd72 2.297 . S
O82 C77 1.247 . S
O83 Cd72 2.439 . S
O83 C77 1.208 . S
O84 Cd85 2.223 . S
O84 C92 1.315 . S
Cd85 O84 2.223 . S
Cd85 O88 2.297 . S
Cd85 O89 2.439 . S
Cd85 O95 2.240 . S
Cd86 O87 2.240 . S
Cd86 O94 2.223 . S
Cd86 O96 2.297 . S
Cd86 O97 2.439 . S
O87 Cd86 2.240 . S
O87 C92 1.279 . S
O88 Cd85 2.297 . S
O88 C90 1.247 . S
O89 Cd85 2.439 . S
O89 C90 1.208 . S
C90 O88 1.247 . S
C90 O89 1.208 . S
C91 O96 1.247 . S
C91 O97 1.208 . S
C92 O84 1.315 . S
C92 O87 1.279 . S
C93 O94 1.315 . S
C93 O95 1.279 . S
O94 Cd86 2.223 . S
O94 C93 1.315 . S
O95 Cd85 2.240 . S
O95 C93 1.279 . S
O96 Cd86 2.297 . S
O96 C91 1.247 . S
O97 Cd86 2.439 . S
O97 C91 1.208 . S
O98 Cd99 2.223 . S
O98 C106 1.315 . S
Cd99 O98 2.223 . S
Cd99 O102 2.297 . S
Cd99 O103 2.439 . S
Cd99 O109 2.240 . S
Cd100 O101 2.240 . S
Cd100 O108 2.223 . S
Cd100 O110 2.297 . S
Cd100 O111 2.439 . S
O101 Cd100 2.240 . S
O101 C106 1.279 . S
O102 Cd99 2.297 . S
O102 C104 1.247 . S
O103 Cd99 2.439 . S
O103 C104 1.208 . S
C104 O102 1.247 . S
C104 O103 1.208 . S
C105 O110 1.247 . S
C105 O111 1.208 . S
C106 O98 1.315 . S
C106 O101 1.279 . S
C107 O108 1.315 . S
C107 O109 1.279 . S
O108 Cd100 2.223 . S
O108 C107 1.315 . S
O109 Cd99 2.240 . S
O109 C107 1.279 . S
O110 Cd100 2.297 . S
O110 C105 1.247 . S
O111 Cd100 2.439 . S
O111 C105 1.208 . S
O112 Cd113 2.223 . S
O112 C120 1.315 . S
Cd113 O112 2.223 . S
Cd113 O116 2.297 . S
Cd113 O117 2.439 . S
Cd113 O123 2.240 . S
Cd114 O115 2.240 . S
Cd114 O122 2.223 . S
Cd114 O124 2.297 . S
Cd114 O125 2.439 . S
O115 Cd114 2.240 . S
O115 C120 1.279 . S
O116 Cd113 2.297 . S
O116 C118 1.247 . S
O117 Cd113 2.439 . S
O117 C118 1.208 . S
C118 O116 1.247 . S
C118 O117 1.208 . S
C119 O124 1.247 . S
C119 O125 1.208 . S
C120 O112 1.315 . S
C120 O115 1.279 . S
C121 O122 1.315 . S
C121 O123 1.279 . S
O122 Cd114 2.223 . S
O122 C121 1.315 . S
O123 Cd113 2.240 . S
O123 C121 1.279 . S
O124 Cd114 2.297 . S
O124 C119 1.247 . S
O125 Cd114 2.439 . S
O125 C119 1.208 . S
O126 Cd127 2.223 . S
O126 C134 1.315 . S
Cd127 O126 2.223 . S
Cd127 O130 2.297 . S
Cd127 O131 2.439 . S
Cd127 O137 2.240 . S
Cd128 O129 2.240 . S
Cd128 O136 2.223 . S
Cd128 O138 2.297 . S
Cd128 O139 2.439 . S
O129 Cd128 2.240 . S
O129 C134 1.279 . S
O130 Cd127 2.297 . S
O130 C132 1.247 . S
O131 Cd127 2.439 . S
O131 C132 1.208 . S
C132 O130 1.247 . S
C132 O131 1.208 . S
C133 O138 1.247 . S
C133 O139 1.208 . S
C134 O126 1.315 . S
C134 O129 1.279 . S
C135 O136 1.315 . S
C135 O137 1.279 . S
O136 Cd128 2.223 . S
O136 C135 1.315 . S
O137 Cd127 2.240 . S
O137 C135 1.279 . S
O138 Cd128 2.297 . S
O138 C133 1.247 . S
O139 Cd128 2.439 . S
O139 C133 1.208 . S
O140 Cd141 2.223 . S
O140 C148 1.315 . S
Cd141 O140 2.223 . S
Cd141 O144 2.297 . S
Cd141 O145 2.439 . S
Cd141 O151 2.240 . S
Cd142 O143 2.240 . S
Cd142 O150 2.223 . S
Cd142 O152 2.297 . S
Cd142 O153 2.439 . S
O143 Cd142 2.240 . S
O143 C148 1.279 . S
O144 Cd141 2.297 . S
O144 C146 1.247 . S
O145 Cd141 2.439 . S
O145 C146 1.208 . S
C146 O144 1.247 . S
C146 O145 1.208 . S
C147 O152 1.247 . S
C147 O153 1.208 . S
C148 O140 1.315 . S
C148 O143 1.279 . S
C149 O150 1.315 . S
C149 O151 1.279 . S
O150 Cd142 2.223 . S
O150 C149 1.315 . S
O151 Cd141 2.240 . S
O151 C149 1.279 . S
O152 Cd142 2.297 . S
O152 C147 1.247 . S
O153 Cd142 2.439 . S
O153 C147 1.208 . S
O154 Cd155 2.223 . S
O154 C162 1.315 . S
Cd155 O154 2.223 . S
Cd155 O158 2.297 . S
Cd155 O159 2.439 . S
Cd155 O165 2.240 . S
Cd156 O157 2.240 . S
Cd156 O164 2.223 . S
Cd156 O166 2.297 . S
Cd156 O167 2.439 . S
O157 Cd156 2.240 . S
O157 C162 1.279 . S
O158 Cd155 2.297 . S
O158 C160 1.247 . S
O159 Cd155 2.439 . S
O159 C160 1.208 . S
C160 O158 1.247 . S
C160 O159 1.208 . S
C161 O166 1.247 . S
C161 O167 1.208 . S
C162 O154 1.315 . S
C162 O157 1.279 . S
C163 O164 1.315 . S
C163 O165 1.279 . S
O164 Cd156 2.223 . S
O164 C163 1.315 . S
O165 Cd155 2.240 . S
O165 C163 1.279 . S
O166 Cd156 2.297 . S
O166 C161 1.247 . S
O167 Cd156 2.439 . S
O167 C161 1.208 . S
O168 Cd169 2.223 . S
O168 C176 1.315 . S
Cd169 O168 2.223 . S
Cd169 O172 2.297 . S
Cd169 O173 2.439 . S
Cd169 O179 2.240 . S
Cd170 O171 2.240 . S
Cd170 O178 2.223 . S
Cd170 O180 2.297 . S
Cd170 O181 2.439 . S
O171 Cd170 2.240 . S
O171 C176 1.279 . S
O172 Cd169 2.297 . S
O172 C174 1.247 . S
O173 Cd169 2.439 . S
O173 C174 1.208 . S
C174 O172 1.247 . S
C174 O173 1.208 . S
C175 O180 1.247 . S
C175 O181 1.208 . S
C176 O168 1.315 . S
C176 O171 1.279 . S
C177 O178 1.315 . S
C177 O179 1.279 . S
O178 Cd170 2.223 . S
O178 C177 1.315 . S
O179 Cd169 2.240 . S
O179 C177 1.279 . S
O180 Cd170 2.297 . S
O180 C175 1.247 . S
O181 Cd170 2.439 . S
O181 C175 1.208 . S
O182 Cd183 2.223 . S
O182 C190 1.315 . S
Cd183 O182 2.223 . S
Cd183 O186 2.297 . S
Cd183 O187 2.439 . S
Cd183 O193 2.240 . S
Cd184 O185 2.240 . S
Cd184 O192 2.223 . S
Cd184 O194 2.297 . S
Cd184 O195 2.439 . S
O185 Cd184 2.240 . S
O185 C190 1.279 . S
O186 Cd183 2.297 . S
O186 C188 1.247 . S
O187 Cd183 2.439 . S
O187 C188 1.208 . S
C188 O186 1.247 . S
C188 O187 1.208 . S
C189 O194 1.247 . S
C189 O195 1.208 . S
C190 O182 1.315 . S
C190 O185 1.279 . S
C191 O192 1.315 . S
C191 O193 1.279 . S
O192 Cd184 2.223 . S
O192 C191 1.315 . S
O193 Cd183 2.240 . S
O193 C191 1.279 . S
O194 Cd184 2.297 . S
O194 C189 1.247 . S
O195 Cd184 2.439 . S
O195 C189 1.208 . S
O196 Cd197 2.223 . S
O196 C204 1.315 . S
Cd197 O196 2.223 . S
Cd197 O200 2.297 . S
Cd197 O201 2.439 . S
Cd197 O207 2.240 . S
Cd198 O199 2.240 . S
Cd198 O206 2.223 . S
Cd198 O208 2.297 . S
Cd198 O209 2.439 . S
O199 Cd198 2.240 . S
O199 C204 1.279 . S
O200 Cd197 2.297 . S
O200 C202 1.247 . S
O201 Cd197 2.439 . S
O201 C202 1.208 . S
C202 O200 1.247 . S
C202 O201 1.208 . S
C203 O208 1.247 . S
C203 O209 1.208 . S
C204 O196 1.315 . S
C204 O199 1.279 . S
C205 O206 1.315 . S
C205 O207 1.279 . S
O206 Cd198 2.223 . S
O206 C205 1.315 . S
O207 Cd197 2.240 . S
O207 C205 1.279 . S
O208 Cd198 2.297 . S
O208 C203 1.247 . S
O209 Cd198 2.439 . S
O209 C203 1.208 . S
O210 Cd211 2.223 . S
O210 C218 1.315 . S
Cd211 O210 2.223 . S
Cd211 O214 2.297 . S
Cd211 O215 2.439 . S
Cd211 O221 2.240 . S
Cd212 O213 2.240 . S
Cd212 O220 2.223 . S
Cd212 O222 2.297 . S
Cd212 O223 2.439 . S
O213 Cd212 2.240 . S
O213 C218 1.279 . S
O214 Cd211 2.297 . S
O214 C216 1.247 . S
O215 Cd211 2.439 . S
O215 C216 1.208 . S
C216 O214 1.247 . S
C216 O215 1.208 . S
C217 O222 1.247 . S
C217 O223 1.208 . S
C218 O210 1.315 . S
C218 O213 1.279 . S
C219 O220 1.315 . S
C219 O221 1.279 . S
O220 Cd212 2.223 . S
O220 C219 1.315 . S
O221 Cd211 2.240 . S
O221 C219 1.279 . S
O222 Cd212 2.297 . S
O222 C217 1.247 . S
O223 Cd212 2.439 . S
O223 C217 1.208 . S
O224 Cd225 2.223 . S
O224 C232 1.315 . S
Cd225 O224 2.223 . S
Cd225 O228 2.297 . S
Cd225 O229 2.439 . S
Cd225 O235 2.240 . S
Cd226 O227 2.240 . S
Cd226 O234 2.223 . S
Cd226 O236 2.297 . S
Cd226 O237 2.439 . S
O227 Cd226 2.240 . S
O227 C232 1.279 . S
O228 Cd225 2.297 . S
O228 C230 1.247 . S
O229 Cd225 2.439 . S
O229 C230 1.208 . S
C230 O228 1.247 . S
C230 O229 1.208 . S
C231 O236 1.247 . S
C231 O237 1.208 . S
C232 O224 1.315 . S
C232 O227 1.279 . S
C233 O234 1.315 . S
C233 O235 1.279 . S
O234 Cd226 2.223 . S
O234 C233 1.315 . S
O235 Cd225 2.240 . S
O235 C233 1.279 . S
O236 Cd226 2.297 . S
O236 C231 1.247 . S
O237 Cd226 2.439 . S
O237 C231 1.208 . S
O238 Cd239 2.223 . S
O238 C246 1.315 . S
Cd239 O238 2.223 . S
Cd239 O242 2.297 . S
Cd239 O243 2.439 . S
Cd239 O249 2.240 . S
Cd240 O241 2.240 . S
Cd240 O248 2.223 . S
Cd240 O250 2.297 . S
Cd240 O251 2.439 . S
O241 Cd240 2.240 . S
O241 C246 1.279 . S
O242 Cd239 2.297 . S
O242 C244 1.247 . S
O243 Cd239 2.439 . S
O243 C244 1.208 . S
C244 O242 1.247 . S
C244 O243 1.208 . S
C245 O250 1.247 . S
C245 O251 1.208 . S
C246 O238 1.315 . S
C246 O241 1.279 . S
C247 O248 1.315 . S
C247 O249 1.279 . S
O248 Cd240 2.223 . S
O248 C247 1.315 . S
O249 Cd239 2.240 . S
O249 C247 1.279 . S
O250 Cd240 2.297 . S
O250 C245 1.247 . S
O251 Cd240 2.439 . S
O251 C245 1.208 . S
O252 Cd253 2.223 . S
O252 C260 1.315 . S
Cd253 O252 2.223 . S
Cd253 O256 2.297 . S
Cd253 O257 2.439 . S
Cd253 O263 2.240 . S
Cd254 O255 2.240 . S
Cd254 O262 2.223 . S
Cd254 O264 2.297 . S
Cd254 O265 2.439 . S
O255 Cd254 2.240 . S
O255 C260 1.279 . S
O256 Cd253 2.297 . S
O256 C258 1.247 . S
O257 Cd253 2.439 . S
O257 C258 1.208 . S
C258 O256 1.247 . S
C258 O257 1.208 . S
C259 O264 1.247 . S
C259 O265 1.208 . S
C260 O252 1.315 . S
C260 O255 1.279 . S
C261 O262 1.315 . S
C261 O263 1.279 . S
O262 Cd254 2.223 . S
O262 C261 1.315 . S
O263 Cd253 2.240 . S
O263 C261 1.279 . S
O264 Cd254 2.297 . S
O264 C259 1.247 . S
O265 Cd254 2.439 . S
O265 C259 1.208 . S
O266 Cd267 2.223 . S
O266 C274 1.315 . S
Cd267 O266 2.223 . S
Cd267 O270 2.297 . S
Cd267 O271 2.439 . S
Cd267 O277 2.240 . S
Cd268 O269 2.240 . S
Cd268 O276 2.223 . S
Cd268 O278 2.297 . S
Cd268 O279 2.439 . S
O269 Cd268 2.240 . S
O269 C274 1.279 . S
O270 Cd267 2.297 . S
O270 C272 1.247 . S
O271 Cd267 2.439 . S
O271 C272 1.208 . S
C272 O270 1.247 . S
C272 O271 1.208 . S
C273 O278 1.247 . S
C273 O279 1.208 . S
C274 O266 1.315 . S
C274 O269 1.279 . S
C275 O276 1.315 . S
C275 O277 1.279 . S
O276 Cd268 2.223 . S
O276 C275 1.315 . S
O277 Cd267 2.240 . S
O277 C275 1.279 . S
O278 Cd268 2.297 . S
O278 C273 1.247 . S
O279 Cd268 2.439 . S
O279 C273 1.208 . S
O280 Cd281 2.223 . S
O280 C288 1.315 . S
Cd281 O280 2.223 . S
Cd281 O284 2.297 . S
Cd281 O285 2.439 . S
Cd281 O291 2.240 . S
Cd282 O283 2.240 . S
Cd282 O290 2.223 . S
Cd282 O292 2.297 . S
Cd282 O293 2.439 . S
O283 Cd282 2.240 . S
O283 C288 1.279 . S
O284 Cd281 2.297 . S
O284 C286 1.247 . S
O285 Cd281 2.439 . S
O285 C286 1.208 . S
C286 O284 1.247 . S
C286 O285 1.208 . S
C287 O292 1.247 . S
C287 O293 1.208 . S
C288 O280 1.315 . S
C288 O283 1.279 . S
C289 O290 1.315 . S
C289 O291 1.279 . S
O290 Cd282 2.223 . S
O290 C289 1.315 . S
O291 Cd281 2.240 . S
O291 C289 1.279 . S
O292 Cd282 2.297 . S
O292 C287 1.247 . S
O293 Cd282 2.439 . S
O293 C287 1.208 . S
O294 Cd295 2.223 . S
O294 C302 1.315 . S
Cd295 O294 2.223 . S
Cd295 O298 2.297 . S
Cd295 O299 2.439 . S
Cd295 O305 2.240 . S
Cd296 O297 2.240 . S
Cd296 O304 2.223 . S
Cd296 O306 2.297 . S
Cd296 O307 2.439 . S
O297 Cd296 2.240 . S
O297 C302 1.279 . S
O298 Cd295 2.297 . S
O298 C300 1.247 . S
O299 Cd295 2.439 . S
O299 C300 1.208 . S
C300 O298 1.247 . S
C300 O299 1.208 . S
C301 O306 1.247 . S
C301 O307 1.208 . S
C302 O294 1.315 . S
C302 O297 1.279 . S
C303 O304 1.315 . S
C303 O305 1.279 . S
O304 Cd296 2.223 . S
O304 C303 1.315 . S
O305 Cd295 2.240 . S
O305 C303 1.279 . S
O306 Cd296 2.297 . S
O306 C301 1.247 . S
O307 Cd296 2.439 . S
O307 C301 1.208 . S
O308 Cd309 2.223 . S
O308 C316 1.315 . S
Cd309 O308 2.223 . S
Cd309 O312 2.297 . S
Cd309 O313 2.439 . S
Cd309 O319 2.240 . S
Cd310 O311 2.240 . S
Cd310 O318 2.223 . S
Cd310 O320 2.297 . S
Cd310 O321 2.439 . S
O311 Cd310 2.240 . S
O311 C316 1.279 . S
O312 Cd309 2.297 . S
O312 C314 1.247 . S
O313 Cd309 2.439 . S
O313 C314 1.208 . S
C314 O312 1.247 . S
C314 O313 1.208 . S
C315 O320 1.247 . S
C315 O321 1.208 . S
C316 O308 1.315 . S
C316 O311 1.279 . S
C317 O318 1.315 . S
C317 O319 1.279 . S
O318 Cd310 2.223 . S
O318 C317 1.315 . S
O319 Cd309 2.240 . S
O319 C317 1.279 . S
O320 Cd310 2.297 . S
O320 C315 1.247 . S
O321 Cd310 2.439 . S
O321 C315 1.208 . S
O322 Cd323 2.223 . S
O322 C330 1.315 . S
Cd323 O322 2.223 . S
Cd323 O326 2.297 . S
Cd323 O327 2.439 . S
Cd323 O333 2.240 . S
Cd324 O325 2.240 . S
Cd324 O332 2.223 . S
Cd324 O334 2.297 . S
Cd324 O335 2.439 . S
O325 Cd324 2.240 . S
O325 C330 1.279 . S
O326 Cd323 2.297 . S
O326 C328 1.247 . S
O327 Cd323 2.439 . S
O327 C328 1.208 . S
C328 O326 1.247 . S
C328 O327 1.208 . S
C329 O334 1.247 . S
C329 O335 1.208 . S
C330 O322 1.315 . S
C330 O325 1.279 . S
C331 O332 1.315 . S
C331 O333 1.279 . S
O332 Cd324 2.223 . S
O332 C331 1.315 . S
O333 Cd323 2.240 . S
O333 C331 1.279 . S
O334 Cd324 2.297 . S
O334 C329 1.247 . S
O335 Cd324 2.439 . S
O335 C329 1.208 . S
O336 Cd337 2.223 . S
O336 C344 1.315 . S
Cd337 O336 2.223 . S
Cd337 O340 2.297 . S
Cd337 O341 2.439 . S
Cd337 O347 2.240 . S
Cd338 O339 2.240 . S
Cd338 O346 2.223 . S
Cd338 O348 2.297 . S
Cd338 O349 2.439 . S
O339 Cd338 2.240 . S
O339 C344 1.279 . S
O340 Cd337 2.297 . S
O340 C342 1.247 . S
O341 Cd337 2.439 . S
O341 C342 1.208 . S
C342 O340 1.247 . S
C342 O341 1.208 . S
C343 O348 1.247 . S
C343 O349 1.208 . S
C344 O336 1.315 . S
C344 O339 1.279 . S
C345 O346 1.315 . S
C345 O347 1.279 . S
O346 Cd338 2.223 . S
O346 C345 1.315 . S
O347 Cd337 2.240 . S
O347 C345 1.279 . S
O348 Cd338 2.297 . S
O348 C343 1.247 . S
O349 Cd338 2.439 . S
O349 C343 1.208 . S
O350 Cd351 2.223 . S
O350 C358 1.315 . S
Cd351 O350 2.223 . S
Cd351 O354 2.297 . S
Cd351 O355 2.439 . S
Cd351 O361 2.240 . S
Cd352 O353 2.240 . S
Cd352 O360 2.223 . S
Cd352 O362 2.297 . S
Cd352 O363 2.439 . S
O353 Cd352 2.240 . S
O353 C358 1.279 . S
O354 Cd351 2.297 . S
O354 C356 1.247 . S
O355 Cd351 2.439 . S
O355 C356 1.208 . S
C356 O354 1.247 . S
C356 O355 1.208 . S
C357 O362 1.247 . S
C357 O363 1.208 . S
C358 O350 1.315 . S
C358 O353 1.279 . S
C359 O360 1.315 . S
C359 O361 1.279 . S
O360 Cd352 2.223 . S
O360 C359 1.315 . S
O361 Cd351 2.240 . S
O361 C359 1.279 . S
O362 Cd352 2.297 . S
O362 C357 1.247 . S
O363 Cd352 2.439 . S
O363 C357 1.208 . S
O364 Cd365 2.223 . S
O364 C372 1.315 . S
Cd365 O364 2.223 . S
Cd365 O368 2.297 . S
Cd365 O369 2.439 . S
Cd365 O375 2.240 . S
Cd366 O367 2.240 . S
Cd366 O374 2.223 . S
Cd366 O376 2.297 . S
Cd366 O377 2.439 . S
O367 Cd366 2.240 . S
O367 C372 1.279 . S
O368 Cd365 2.297 . S
O368 C370 1.247 . S
O369 Cd365 2.439 . S
O369 C370 1.208 . S
C370 O368 1.247 . S
C370 O369 1.208 . S
C371 O376 1.247 . S
C371 O377 1.208 . S
C372 O364 1.315 . S
C372 O367 1.279 . S
C373 O374 1.315 . S
C373 O375 1.279 . S
O374 Cd366 2.223 . S
O374 C373 1.315 . S
O375 Cd365 2.240 . S
O375 C373 1.279 . S
O376 Cd366 2.297 . S
O376 C371 1.247 . S
O377 Cd366 2.439 . S
O377 C371 1.208 . S
O378 Cd379 2.223 . S
O378 C386 1.315 . S
Cd379 O378 2.223 . S
Cd379 O382 2.297 . S
Cd379 O383 2.439 . S
Cd379 O389 2.240 . S
Cd380 O381 2.240 . S
Cd380 O388 2.223 . S
Cd380 O390 2.297 . S
Cd380 O391 2.439 . S
O381 Cd380 2.240 . S
O381 C386 1.279 . S
O382 Cd379 2.297 . S
O382 C384 1.247 . S
O383 Cd379 2.439 . S
O383 C384 1.208 . S
C384 O382 1.247 . S
C384 O383 1.208 . S
C385 O390 1.247 . S
C385 O391 1.208 . S
C386 O378 1.315 . S
C386 O381 1.279 . S
C387 O388 1.315 . S
C387 O389 1.279 . S
O388 Cd380 2.223 . S
O388 C387 1.315 . S
O389 Cd379 2.240 . S
O389 C387 1.279 . S
O390 Cd380 2.297 . S
O390 C385 1.247 . S
O391 Cd380 2.439 . S
O391 C385 1.208 . S
O392 Cd393 2.223 . S
O392 C400 1.315 . S
Cd393 O392 2.223 . S
Cd393 O396 2.297 . S
Cd393 O397 2.439 . S
Cd393 O403 2.240 . S
Cd394 O395 2.240 . S
Cd394 O402 2.223 . S
Cd394 O404 2.297 . S
Cd394 O405 2.439 . S
O395 Cd394 2.240 . S
O395 C400 1.279 . S
O396 Cd393 2.297 . S
O396 C398 1.247 . S
O397 Cd393 2.439 . S
O397 C398 1.208 . S
C398 O396 1.247 . S
C398 O397 1.208 . S
C399 O404 1.247 . S
C399 O405 1.208 . S
C400 O392 1.315 . S
C400 O395 1.279 . S
C401 O402 1.315 . S
C401 O403 1.279 . S
O402 Cd394 2.223 . S
O402 C401 1.315 . S
O403 Cd393 2.240 . S
O403 C401 1.279 . S
O404 Cd394 2.297 . S
O404 C399 1.247 . S
O405 Cd394 2.439 . S
O405 C399 1.208 . S
O406 Cd407 2.223 . S
O406 C414 1.315 . S
Cd407 O406 2.223 . S
Cd407 O410 2.297 . S
Cd407 O411 2.439 . S
Cd407 O417 2.240 . S
Cd408 O409 2.240 . S
Cd408 O416 2.223 . S
Cd408 O418 2.297 . S
Cd408 O419 2.439 . S
O409 Cd408 2.240 . S
O409 C414 1.279 . S
O410 Cd407 2.297 . S
O410 C412 1.247 . S
O411 Cd407 2.439 . S
O411 C412 1.208 . S
C412 O410 1.247 . S
C412 O411 1.208 . S
C413 O418 1.247 . S
C413 O419 1.208 . S
C414 O406 1.315 . S
C414 O409 1.279 . S
C415 O416 1.315 . S
C415 O417 1.279 . S
O416 Cd408 2.223 . S
O416 C415 1.315 . S
O417 Cd407 2.240 . S
O417 C415 1.279 . S
O418 Cd408 2.297 . S
O418 C413 1.247 . S
O419 Cd408 2.439 . S
O419 C413 1.208 . S
O420 Cd421 2.223 . S
O420 C428 1.315 . S
Cd421 O420 2.223 . S
Cd421 O424 2.297 . S
Cd421 O425 2.439 . S
Cd421 O431 2.240 . S
Cd422 O423 2.240 . S
Cd422 O430 2.223 . S
Cd422 O432 2.297 . S
Cd422 O433 2.439 . S
O423 Cd422 2.240 . S
O423 C428 1.279 . S
O424 Cd421 2.297 . S
O424 C426 1.247 . S
O425 Cd421 2.439 . S
O425 C426 1.208 . S
C426 O424 1.247 . S
C426 O425 1.208 . S
C427 O432 1.247 . S
C427 O433 1.208 . S
C428 O420 1.315 . S
C428 O423 1.279 . S
C429 O430 1.315 . S
C429 O431 1.279 . S
O430 Cd422 2.223 . S
O430 C429 1.315 . S
O431 Cd421 2.240 . S
O431 C429 1.279 . S
O432 Cd422 2.297 . S
O432 C427 1.247 . S
O433 Cd422 2.439 . S
O433 C427 1.208 . S
O434 Cd435 2.223 . S
O434 C442 1.315 . S
Cd435 O434 2.223 . S
Cd435 O438 2.297 . S
Cd435 O439 2.439 . S
Cd435 O445 2.240 . S
Cd436 O437 2.240 . S
Cd436 O444 2.223 . S
Cd436 O446 2.297 . S
Cd436 O447 2.439 . S
O437 Cd436 2.240 . S
O437 C442 1.279 . S
O438 Cd435 2.297 . S
O438 C440 1.247 . S
O439 Cd435 2.439 . S
O439 C440 1.208 . S
C440 O438 1.247 . S
C440 O439 1.208 . S
C441 O446 1.247 . S
C441 O447 1.208 . S
C442 O434 1.315 . S
C442 O437 1.279 . S
C443 O444 1.315 . S
C443 O445 1.279 . S
O444 Cd436 2.223 . S
O444 C443 1.315 . S
O445 Cd435 2.240 . S
O445 C443 1.279 . S
O446 Cd436 2.297 . S
O446 C441 1.247 . S
O447 Cd436 2.439 . S
O447 C441 1.208 . S
O448 Cd449 2.223 . S
O448 C456 1.315 . S
Cd449 O448 2.223 . S
Cd449 O452 2.297 . S
Cd449 O453 2.439 . S
Cd449 O459 2.240 . S
Cd450 O451 2.240 . S
Cd450 O458 2.223 . S
Cd450 O460 2.297 . S
Cd450 O461 2.439 . S
O451 Cd450 2.240 . S
O451 C456 1.279 . S
O452 Cd449 2.297 . S
O452 C454 1.247 . S
O453 Cd449 2.439 . S
O453 C454 1.208 . S
C454 O452 1.247 . S
C454 O453 1.208 . S
C455 O460 1.247 . S
C455 O461 1.208 . S
C456 O448 1.315 . S
C456 O451 1.279 . S
C457 O458 1.315 . S
C457 O459 1.279 . S
O458 Cd450 2.223 . S
O458 C457 1.315 . S
O459 Cd449 2.240 . S
O459 C457 1.279 . S
O460 Cd450 2.297 . S
O460 C455 1.247 . S
O461 Cd450 2.439 . S
O461 C455 1.208 . S
O462 Cd463 2.223 . S
O462 C470 1.315 . S
Cd463 O462 2.223 . S
Cd463 O466 2.297 . S
Cd463 O467 2.439 . S
Cd463 O473 2.240 . S
Cd464 O465 2.240 . S
Cd464 O472 2.223 . S
Cd464 O474 2.297 . S
Cd464 O475 2.439 . S
O465 Cd464 2.240 . S
O465 C470 1.279 . S
O466 Cd463 2.297 . S
O466 C468 1.247 . S
O467 Cd463 2.439 . S
O467 C468 1.208 . S
C468 O466 1.247 . S
C468 O467 1.208 . S
C469 O474 1.247 . S
C469 O475 1.208 . S
C470 O462 1.315 . S
C470 O465 1.279 . S
C471 O472 1.315 . S
C471 O473 1.279 . S
O472 Cd464 2.223 . S
O472 C471 1.315 . S
O473 Cd463 2.240 . S
O473 C471 1.279 . S
O474 Cd464 2.297 . S
O474 C469 1.247 . S
O475 Cd464 2.439 . S
O475 C469 1.208 . S
O476 Cd477 2.223 . S
O476 C484 1.315 . S
Cd477 O476 2.223 . S
Cd477 O480 2.297 . S
Cd477 O481 2.439 . S
Cd477 O487 2.240 . S
Cd478 O479 2.240 . S
Cd478 O486 2.223 . S
Cd478 O488 2.297 . S
Cd478 O489 2.439 . S
O479 Cd478 2.240 . S
O479 C484 1.279 . S
O480 Cd477 2.297 . S
O480 C482 1.247 . S
O481 Cd477 2.439 . S
O481 C482 1.208 . S
C482 O480 1.247 . S
C482 O481 1.208 . S
C483 O488 1.247 . S
C483 O489 1.208 . S
C484 O476 1.315 . S
C484 O479 1.279 . S
C485 O486 1.315 . S
C485 O487 1.279 . S
O486 Cd478 2.223 . S
O486 C485 1.315 . S
O487 Cd477 2.240 . S
O487 C485 1.279 . S
O488 Cd478 2.297 . S
O488 C483 1.247 . S
O489 Cd478 2.439 . S
O489 C483 1.208 . S
O490 Cd491 2.223 . S
O490 C498 1.315 . S
Cd491 O490 2.223 . S
Cd491 O494 2.297 . S
Cd491 O495 2.439 . S
Cd491 O501 2.240 . S
Cd492 O493 2.240 . S
Cd492 O500 2.223 . S
Cd492 O502 2.297 . S
Cd492 O503 2.439 . S
O493 Cd492 2.240 . S
O493 C498 1.279 . S
O494 Cd491 2.297 . S
O494 C496 1.247 . S
O495 Cd491 2.439 . S
O495 C496 1.208 . S
C496 O494 1.247 . S
C496 O495 1.208 . S
C497 O502 1.247 . S
C497 O503 1.208 . S
C498 O490 1.315 . S
C498 O493 1.279 . S
C499 O500 1.315 . S
C499 O501 1.279 . S
O500 Cd492 2.223 . S
O500 C499 1.315 . S
O501 Cd491 2.240 . S
O501 C499 1.279 . S
O502 Cd492 2.297 . S
O502 C497 1.247 . S
O503 Cd492 2.439 . S
O503 C497 1.208 . S
O504 Cd505 2.223 . S
O504 C512 1.315 . S
Cd505 O504 2.223 . S
Cd505 O508 2.297 . S
Cd505 O509 2.439 . S
Cd505 O515 2.240 . S
Cd506 O507 2.240 . S
Cd506 O514 2.223 . S
Cd506 O516 2.297 . S
Cd506 O517 2.439 . S
O507 Cd506 2.240 . S
O507 C512 1.279 . S
O508 Cd505 2.297 . S
O508 C510 1.247 . S
O509 Cd505 2.439 . S
O509 C510 1.208 . S
C510 O508 1.247 . S
C510 O509 1.208 . S
C511 O516 1.247 . S
C511 O517 1.208 . S
C512 O504 1.315 . S
C512 O507 1.279 . S
C513 O514 1.315 . S
C513 O515 1.279 . S
O514 Cd506 2.223 . S
O514 C513 1.315 . S
O515 Cd505 2.240 . S
O515 C513 1.279 . S
O516 Cd506 2.297 . S
O516 C511 1.247 . S
O517 Cd506 2.439 . S
O517 C511 1.208 . S
O518 Cd519 2.223 . S
O518 C526 1.315 . S
Cd519 O518 2.223 . S
Cd519 O522 2.297 . S
Cd519 O523 2.439 . S
Cd519 O529 2.240 . S
Cd520 O521 2.240 . S
Cd520 O528 2.223 . S
Cd520 O530 2.297 . S
Cd520 O531 2.439 . S
O521 Cd520 2.240 . S
O521 C526 1.279 . S
O522 Cd519 2.297 . S
O522 C524 1.247 . S
O523 Cd519 2.439 . S
O523 C524 1.208 . S
C524 O522 1.247 . S
C524 O523 1.208 . S
C525 O530 1.247 . S
C525 O531 1.208 . S
C526 O518 1.315 . S
C526 O521 1.279 . S
C527 O528 1.315 . S
C527 O529 1.279 . S
O528 Cd520 2.223 . S
O528 C527 1.315 . S
O529 Cd519 2.240 . S
O529 C527 1.279 . S
O530 Cd520 2.297 . S
O530 C525 1.247 . S
O531 Cd520 2.439 . S
O531 C525 1.208 . S
O532 Cd533 2.223 . S
O532 C540 1.315 . S
Cd533 O532 2.223 . S
Cd533 O536 2.297 . S
Cd533 O537 2.439 . S
Cd533 O543 2.240 . S
Cd534 O535 2.240 . S
Cd534 O542 2.223 . S
Cd534 O544 2.297 . S
Cd534 O545 2.439 . S
O535 Cd534 2.240 . S
O535 C540 1.279 . S
O536 Cd533 2.297 . S
O536 C538 1.247 . S
O537 Cd533 2.439 . S
O537 C538 1.208 . S
C538 O536 1.247 . S
C538 O537 1.208 . S
C539 O544 1.247 . S
C539 O545 1.208 . S
C540 O532 1.315 . S
C540 O535 1.279 . S
C541 O542 1.315 . S
C541 O543 1.279 . S
O542 Cd534 2.223 . S
O542 C541 1.315 . S
O543 Cd533 2.240 . S
O543 C541 1.279 . S
O544 Cd534 2.297 . S
O544 C539 1.247 . S
O545 Cd534 2.439 . S
O545 C539 1.208 . S
O546 Cd547 2.223 . S
O546 C554 1.315 . S
Cd547 O546 2.223 . S
Cd547 O550 2.297 . S
Cd547 O551 2.439 . S
Cd547 O557 2.240 . S
Cd548 O549 2.240 . S
Cd548 O556 2.223 . S
Cd548 O558 2.297 . S
Cd548 O559 2.439 . S
O549 Cd548 2.240 . S
O549 C554 1.279 . S
O550 Cd547 2.297 . S
O550 C552 1.247 . S
O551 Cd547 2.439 . S
O551 C552 1.208 . S
C552 O550 1.247 . S
C552 O551 1.208 . S
C553 O558 1.247 . S
C553 O559 1.208 . S
C554 O546 1.315 . S
C554 O549 1.279 . S
C555 O556 1.315 . S
C555 O557 1.279 . S
O556 Cd548 2.223 . S
O556 C555 1.315 . S
O557 Cd547 2.240 . S
O557 C555 1.279 . S
O558 Cd548 2.297 . S
O558 C553 1.247 . S
O559 Cd548 2.439 . S
O559 C553 1.208 . S
O560 Cd561 2.223 . S
O560 C568 1.315 . S
Cd561 O560 2.223 . S
Cd561 O564 2.297 . S
Cd561 O565 2.439 . S
Cd561 O571 2.240 . S
Cd562 O563 2.240 . S
Cd562 O570 2.223 . S
Cd562 O572 2.297 . S
Cd562 O573 2.439 . S
O563 Cd562 2.240 . S
O563 C568 1.279 . S
O564 Cd561 2.297 . S
O564 C566 1.247 . S
O565 Cd561 2.439 . S
O565 C566 1.208 . S
C566 O564 1.247 . S
C566 O565 1.208 . S
C567 O572 1.247 . S
C567 O573 1.208 . S
C568 O560 1.315 . S
C568 O563 1.279 . S
C569 O570 1.315 . S
C569 O571 1.279 . S
O570 Cd562 2.223 . S
O570 C569 1.315 . S
O571 Cd561 2.240 . S
O571 C569 1.279 . S
O572 Cd562 2.297 . S
O572 C567 1.247 . S
O573 Cd562 2.439 . S
O573 C567 1.208 . S
O574 Cd575 2.223 . S
O574 C582 1.315 . S
Cd575 O574 2.223 . S
Cd575 O578 2.297 . S
Cd575 O579 2.439 . S
Cd575 O585 2.240 . S
Cd576 O577 2.240 . S
Cd576 O584 2.223 . S
Cd576 O586 2.297 . S
Cd576 O587 2.439 . S
O577 Cd576 2.240 . S
O577 C582 1.279 . S
O578 Cd575 2.297 . S
O578 C580 1.247 . S
O579 Cd575 2.439 . S
O579 C580 1.208 . S
C580 O578 1.247 . S
C580 O579 1.208 . S
C581 O586 1.247 . S
C581 O587 1.208 . S
C582 O574 1.315 . S
C582 O577 1.279 . S
C583 O584 1.315 . S
C583 O585 1.279 . S
O584 Cd576 2.223 . S
O584 C583 1.315 . S
O585 Cd575 2.240 . S
O585 C583 1.279 . S
O586 Cd576 2.297 . S
O586 C581 1.247 . S
O587 Cd576 2.439 . S
O587 C581 1.208 . S
O588 Cd589 2.223 . S
O588 C596 1.315 . S
Cd589 O588 2.223 . S
Cd589 O592 2.297 . S
Cd589 O593 2.439 . S
Cd589 O599 2.240 . S
Cd590 O591 2.240 . S
Cd590 O598 2.223 . S
Cd590 O600 2.297 . S
Cd590 O601 2.439 . S
O591 Cd590 2.240 . S
O591 C596 1.279 . S
O592 Cd589 2.297 . S
O592 C594 1.247 . S
O593 Cd589 2.439 . S
O593 C594 1.208 . S
C594 O592 1.247 . S
C594 O593 1.208 . S
C595 O600 1.247 . S
C595 O601 1.208 . S
C596 O588 1.315 . S
C596 O591 1.279 . S
C597 O598 1.315 . S
C597 O599 1.279 . S
O598 Cd590 2.223 . S
O598 C597 1.315 . S
O599 Cd589 2.240 . S
O599 C597 1.279 . S
O600 Cd590 2.297 . S
O600 C595 1.247 . S
O601 Cd590 2.439 . S
O601 C595 1.208 . S
O602 Cd603 2.223 . S
O602 C610 1.315 . S
Cd603 O602 2.223 . S
Cd603 O606 2.297 . S
Cd603 O607 2.439 . S
Cd603 O613 2.240 . S
Cd604 O605 2.240 . S
Cd604 O612 2.223 . S
Cd604 O614 2.297 . S
Cd604 O615 2.439 . S
O605 Cd604 2.240 . S
O605 C610 1.279 . S
O606 Cd603 2.297 . S
O606 C608 1.247 . S
O607 Cd603 2.439 . S
O607 C608 1.208 . S
C608 O606 1.247 . S
C608 O607 1.208 . S
C609 O614 1.247 . S
C609 O615 1.208 . S
C610 O602 1.315 . S
C610 O605 1.279 . S
C611 O612 1.315 . S
C611 O613 1.279 . S
O612 Cd604 2.223 . S
O612 C611 1.315 . S
O613 Cd603 2.240 . S
O613 C611 1.279 . S
O614 Cd604 2.297 . S
O614 C609 1.247 . S
O615 Cd604 2.439 . S
O615 C609 1.208 . S
O616 Cd617 2.223 . S
O616 C624 1.315 . S
Cd617 O616 2.223 . S
Cd617 O620 2.297 . S
Cd617 O621 2.439 . S
Cd617 O627 2.240 . S
Cd618 O619 2.240 . S
Cd618 O626 2.223 . S
Cd618 O628 2.297 . S
Cd618 O629 2.439 . S
O619 Cd618 2.240 . S
O619 C624 1.279 . S
O620 Cd617 2.297 . S
O620 C622 1.247 . S
O621 Cd617 2.439 . S
O621 C622 1.208 . S
C622 O620 1.247 . S
C622 O621 1.208 . S
C623 O628 1.247 . S
C623 O629 1.208 . S
C624 O616 1.315 . S
C624 O619 1.279 . S
C625 O626 1.315 . S
C625 O627 1.279 . S
O626 Cd618 2.223 . S
O626 C625 1.315 . S
O627 Cd617 2.240 . S
O627 C625 1.279 . S
O628 Cd618 2.297 . S
O628 C623 1.247 . S
O629 Cd618 2.439 . S
O629 C623 1.208 . S
O630 Cd631 2.223 . S
O630 C638 1.315 . S
Cd631 O630 2.223 . S
Cd631 O634 2.297 . S
Cd631 O635 2.439 . S
Cd631 O641 2.240 . S
Cd632 O633 2.240 . S
Cd632 O640 2.223 . S
Cd632 O642 2.297 . S
Cd632 O643 2.439 . S
O633 Cd632 2.240 . S
O633 C638 1.279 . S
O634 Cd631 2.297 . S
O634 C636 1.247 . S
O635 Cd631 2.439 . S
O635 C636 1.208 . S
C636 O634 1.247 . S
C636 O635 1.208 . S
C637 O642 1.247 . S
C637 O643 1.208 . S
C638 O630 1.315 . S
C638 O633 1.279 . S
C639 O640 1.315 . S
C639 O641 1.279 . S
O640 Cd632 2.223 . S
O640 C639 1.315 . S
O641 Cd631 2.240 . S
O641 C639 1.279 . S
O642 Cd632 2.297 . S
O642 C637 1.247 . S
O643 Cd632 2.439 . S
O643 C637 1.208 . S
O644 Cd645 2.223 . S
O644 C652 1.315 . S
Cd645 O644 2.223 . S
Cd645 O648 2.297 . S
Cd645 O649 2.439 . S
Cd645 O655 2.240 . S
Cd646 O647 2.240 . S
Cd646 O654 2.223 . S
Cd646 O656 2.297 . S
Cd646 O657 2.439 . S
O647 Cd646 2.240 . S
O647 C652 1.279 . S
O648 Cd645 2.297 . S
O648 C650 1.247 . S
O649 Cd645 2.439 . S
O649 C650 1.208 . S
C650 O648 1.247 . S
C650 O649 1.208 . S
C651 O656 1.247 . S
C651 O657 1.208 . S
C652 O644 1.315 . S
C652 O647 1.279 . S
C653 O654 1.315 . S
C653 O655 1.279 . S
O654 Cd646 2.223 . S
O654 C653 1.315 . S
O655 Cd645 2.240 . S
O655 C653 1.279 . S
O656 Cd646 2.297 . S
O656 C651 1.247 . S
O657 Cd646 2.439 . S
O657 C651 1.208 . S
O658 Cd659 2.223 . S
O658 C666 1.315 . S
Cd659 O658 2.223 . S
Cd659 O662 2.297 . S
Cd659 O663 2.439 . S
Cd659 O669 2.240 . S
Cd660 O661 2.240 . S
Cd660 O668 2.223 . S
Cd660 O670 2.297 . S
Cd660 O671 2.439 . S
O661 Cd660 2.240 . S
O661 C666 1.279 . S
O662 Cd659 2.297 . S
O662 C664 1.247 . S
O663 Cd659 2.439 . S
O663 C664 1.208 . S
C664 O662 1.247 . S
C664 O663 1.208 . S
C665 O670 1.247 . S
C665 O671 1.208 . S
C666 O658 1.315 . S
C666 O661 1.279 . S
C667 O668 1.315 . S
C667 O669 1.279 . S
O668 Cd660 2.223 . S
O668 C667 1.315 . S
O669 Cd659 2.240 . S
O669 C667 1.279 . S
O670 Cd660 2.297 . S
O670 C665 1.247 . S
O671 Cd660 2.439 . S
O671 C665 1.208 . S
O672 Cd673 2.223 . S
O672 C680 1.315 . S
Cd673 O672 2.223 . S
Cd673 O676 2.297 . S
Cd673 O677 2.439 . S
Cd673 O683 2.240 . S
Cd674 O675 2.240 . S
Cd674 O682 2.223 . S
Cd674 O684 2.297 . S
Cd674 O685 2.439 . S
O675 Cd674 2.240 . S
O675 C680 1.279 . S
O676 Cd673 2.297 . S
O676 C678 1.247 . S
O677 Cd673 2.439 . S
O677 C678 1.208 . S
C678 O676 1.247 . S
C678 O677 1.208 . S
C679 O684 1.247 . S
C679 O685 1.208 . S
C680 O672 1.315 . S
C680 O675 1.279 . S
C681 O682 1.315 . S
C681 O683 1.279 . S
O682 Cd674 2.223 . S
O682 C681 1.315 . S
O683 Cd673 2.240 . S
O683 C681 1.279 . S
O684 Cd674 2.297 . S
O684 C679 1.247 . S
O685 Cd674 2.439 . S
O685 C679 1.208 . S
O686 Cd687 2.223 . S
O686 C694 1.315 . S
Cd687 O686 2.223 . S
Cd687 O690 2.297 . S
Cd687 O691 2.439 . S
Cd687 O697 2.240 . S
Cd688 O689 2.240 . S
Cd688 O696 2.223 . S
Cd688 O698 2.297 . S
Cd688 O699 2.439 . S
O689 Cd688 2.240 . S
O689 C694 1.279 . S
O690 Cd687 2.297 . S
O690 C692 1.247 . S
O691 Cd687 2.439 . S
O691 C692 1.208 . S
C692 O690 1.247 . S
C692 O691 1.208 . S
C693 O698 1.247 . S
C693 O699 1.208 . S
C694 O686 1.315 . S
C694 O689 1.279 . S
C695 O696 1.315 . S
C695 O697 1.279 . S
O696 Cd688 2.223 . S
O696 C695 1.315 . S
O697 Cd687 2.240 . S
O697 C695 1.279 . S
O698 Cd688 2.297 . S
O698 C693 1.247 . S
O699 Cd688 2.439 . S
O699 C693 1.208 . S
O700 Cd701 2.223 . S
O700 C708 1.315 . S
Cd701 O700 2.223 . S
Cd701 O704 2.297 . S
Cd701 O705 2.439 . S
Cd701 O711 2.240 . S
Cd702 O703 2.240 . S
Cd702 O710 2.223 . S
Cd702 O712 2.297 . S
Cd702 O713 2.439 . S
O703 Cd702 2.240 . S
O703 C708 1.279 . S
O704 Cd701 2.297 . S
O704 C706 1.247 . S
O705 Cd701 2.439 . S
O705 C706 1.208 . S
C706 O704 1.247 . S
C706 O705 1.208 . S
C707 O712 1.247 . S
C707 O713 1.208 . S
C708 O700 1.315 . S
C708 O703 1.279 . S
C709 O710 1.315 . S
C709 O711 1.279 . S
O710 Cd702 2.223 . S
O710 C709 1.315 . S
O711 Cd701 2.240 . S
O711 C709 1.279 . S
O712 Cd702 2.297 . S
O712 C707 1.247 . S
O713 Cd702 2.439 . S
O713 C707 1.208 . S
O714 Cd715 2.223 . S
O714 C722 1.315 . S
Cd715 O714 2.223 . S
Cd715 O718 2.297 . S
Cd715 O719 2.439 . S
Cd715 O725 2.240 . S
Cd716 O717 2.240 . S
Cd716 O724 2.223 . S
Cd716 O726 2.297 . S
Cd716 O727 2.439 . S
O717 Cd716 2.240 . S
O717 C722 1.279 . S
O718 Cd715 2.297 . S
O718 C720 1.247 . S
O719 Cd715 2.439 . S
O719 C720 1.208 . S
C720 O718 1.247 . S
C720 O719 1.208 . S
C721 O726 1.247 . S
C721 O727 1.208 . S
C722 O714 1.315 . S
C722 O717 1.279 . S
C723 O724 1.315 . S
C723 O725 1.279 . S
O724 Cd716 2.223 . S
O724 C723 1.315 . S
O725 Cd715 2.240 . S
O725 C723 1.279 . S
O726 Cd716 2.297 . S
O726 C721 1.247 . S
O727 Cd716 2.439 . S
O727 C721 1.208 . S
O728 Cd729 2.223 . S
O728 C736 1.315 . S
Cd729 O728 2.223 . S
Cd729 O732 2.297 . S
Cd729 O733 2.439 . S
Cd729 O739 2.240 . S
Cd730 O731 2.240 . S
Cd730 O738 2.223 . S
Cd730 O740 2.297 . S
Cd730 O741 2.439 . S
O731 Cd730 2.240 . S
O731 C736 1.279 . S
O732 Cd729 2.297 . S
O732 C734 1.247 . S
O733 Cd729 2.439 . S
O733 C734 1.208 . S
C734 O732 1.247 . S
C734 O733 1.208 . S
C735 O740 1.247 . S
C735 O741 1.208 . S
C736 O728 1.315 . S
C736 O731 1.279 . S
C737 O738 1.315 . S
C737 O739 1.279 . S
O738 Cd730 2.223 . S
O738 C737 1.315 . S
O739 Cd729 2.240 . S
O739 C737 1.279 . S
O740 Cd730 2.297 . S
O740 C735 1.247 . S
O741 Cd730 2.439 . S
O741 C735 1.208 . S
O742 Cd743 2.223 . S
O742 C750 1.315 . S
Cd743 O742 2.223 . S
Cd743 O746 2.297 . S
Cd743 O747 2.439 . S
Cd743 O753 2.240 . S
Cd744 O745 2.240 . S
Cd744 O752 2.223 . S
Cd744 O754 2.297 . S
Cd744 O755 2.439 . S
O745 Cd744 2.240 . S
O745 C750 1.279 . S
O746 Cd743 2.297 . S
O746 C748 1.247 . S
O747 Cd743 2.439 . S
O747 C748 1.208 . S
C748 O746 1.247 . S
C748 O747 1.208 . S
C749 O754 1.247 . S
C749 O755 1.208 . S
C750 O742 1.315 . S
C750 O745 1.279 . S
C751 O752 1.315 . S
C751 O753 1.279 . S
O752 Cd744 2.223 . S
O752 C751 1.315 . S
O753 Cd743 2.240 . S
O753 C751 1.279 . S
O754 Cd744 2.297 . S
O754 C749 1.247 . S
O755 Cd744 2.439 . S
O755 C749 1.208 . S
O756 Cd757 2.223 . S
O756 C764 1.315 . S
Cd757 O756 2.223 . S
Cd757 O760 2.297 . S
Cd757 O761 2.439 . S
Cd757 O767 2.240 . S
Cd758 O759 2.240 . S
Cd758 O766 2.223 . S
Cd758 O768 2.297 . S
Cd758 O769 2.439 . S
O759 Cd758 2.240 . S
O759 C764 1.279 . S
O760 Cd757 2.297 . S
O760 C762 1.247 . S
O761 Cd757 2.439 . S
O761 C762 1.208 . S
C762 O760 1.247 . S
C762 O761 1.208 . S
C763 O768 1.247 . S
C763 O769 1.208 . S
C764 O756 1.315 . S
C764 O759 1.279 . S
C765 O766 1.315 . S
C765 O767 1.279 . S
O766 Cd758 2.223 . S
O766 C765 1.315 . S
O767 Cd757 2.240 . S
O767 C765 1.279 . S
O768 Cd758 2.297 . S
O768 C763 1.247 . S
O769 Cd758 2.439 . S
O769 C763 1.208 . S
O770 Cd771 2.223 . S
O770 C778 1.315 . S
Cd771 O770 2.223 . S
Cd771 O774 2.297 . S
Cd771 O775 2.439 . S
Cd771 O781 2.240 . S
Cd772 O773 2.240 . S
Cd772 O780 2.223 . S
Cd772 O782 2.297 . S
Cd772 O783 2.439 . S
O773 Cd772 2.240 . S
O773 C778 1.279 . S
O774 Cd771 2.297 . S
O774 C776 1.247 . S
O775 Cd771 2.439 . S
O775 C776 1.208 . S
C776 O774 1.247 . S
C776 O775 1.208 . S
C777 O782 1.247 . S
C777 O783 1.208 . S
C778 O770 1.315 . S
C778 O773 1.279 . S
C779 O780 1.315 . S
C779 O781 1.279 . S
O780 Cd772 2.223 . S
O780 C779 1.315 . S
O781 Cd771 2.240 . S
O781 C779 1.279 . S
O782 Cd772 2.297 . S
O782 C777 1.247 . S
O783 Cd772 2.439 . S
O783 C777 1.208 . S
O784 Cd785 2.223 . S
O784 C792 1.315 . S
Cd785 O784 2.223 . S
Cd785 O788 2.297 . S
Cd785 O789 2.439 . S
Cd785 O795 2.240 . S
Cd786 O787 2.240 . S
Cd786 O794 2.223 . S
Cd786 O796 2.297 . S
Cd786 O797 2.439 . S
O787 Cd786 2.240 . S
O787 C792 1.279 . S
O788 Cd785 2.297 . S
O788 C790 1.247 . S
O789 Cd785 2.439 . S
O789 C790 1.208 . S
C790 O788 1.247 . S
C790 O789 1.208 . S
C791 O796 1.247 . S
C791 O797 1.208 . S
C792 O784 1.315 . S
C792 O787 1.279 . S
C793 O794 1.315 . S
C793 O795 1.279 . S
O794 Cd786 2.223 . S
O794 C793 1.315 . S
O795 Cd785 2.240 . S
O795 C793 1.279 . S
O796 Cd786 2.297 . S
O796 C791 1.247 . S
O797 Cd786 2.439 . S
O797 C791 1.208 . S
O798 Cd799 2.223 . S
O798 C806 1.315 . S
Cd799 O798 2.223 . S
Cd799 O802 2.297 . S
Cd799 O803 2.439 . S
Cd799 O809 2.240 . S
Cd800 O801 2.240 . S
Cd800 O808 2.223 . S
Cd800 O810 2.297 . S
Cd800 O811 2.439 . S
O801 Cd800 2.240 . S
O801 C806 1.279 . S
O802 Cd799 2.297 . S
O802 C804 1.247 . S
O803 Cd799 2.439 . S
O803 C804 1.208 . S
C804 O802 1.247 . S
C804 O803 1.208 . S
C805 O810 1.247 . S
C805 O811 1.208 . S
C806 O798 1.315 . S
C806 O801 1.279 . S
C807 O808 1.315 . S
C807 O809 1.279 . S
O808 Cd800 2.223 . S
O808 C807 1.315 . S
O809 Cd799 2.240 . S
O809 C807 1.279 . S
O810 Cd800 2.297 . S
O810 C805 1.247 . S
O811 Cd800 2.439 . S
O811 C805 1.208 . S
O812 Cd813 2.223 . S
O812 C820 1.315 . S
Cd813 O812 2.223 . S
Cd813 O816 2.297 . S
Cd813 O817 2.439 . S
Cd813 O823 2.240 . S
Cd814 O815 2.240 . S
Cd814 O822 2.223 . S
Cd814 O824 2.297 . S
Cd814 O825 2.439 . S
O815 Cd814 2.240 . S
O815 C820 1.279 . S
O816 Cd813 2.297 . S
O816 C818 1.247 . S
O817 Cd813 2.439 . S
O817 C818 1.208 . S
C818 O816 1.247 . S
C818 O817 1.208 . S
C819 O824 1.247 . S
C819 O825 1.208 . S
C820 O812 1.315 . S
C820 O815 1.279 . S
C821 O822 1.315 . S
C821 O823 1.279 . S
O822 Cd814 2.223 . S
O822 C821 1.315 . S
O823 Cd813 2.240 . S
O823 C821 1.279 . S
O824 Cd814 2.297 . S
O824 C819 1.247 . S
O825 Cd814 2.439 . S
O825 C819 1.208 . S
O826 Cd827 2.223 . S
O826 C834 1.315 . S
Cd827 O826 2.223 . S
Cd827 O830 2.297 . S
Cd827 O831 2.439 . S
Cd827 O837 2.240 . S
Cd828 O829 2.240 . S
Cd828 O836 2.223 . S
Cd828 O838 2.297 . S
Cd828 O839 2.439 . S
O829 Cd828 2.240 . S
O829 C834 1.279 . S
O830 Cd827 2.297 . S
O830 C832 1.247 . S
O831 Cd827 2.439 . S
O831 C832 1.208 . S
C832 O830 1.247 . S
C832 O831 1.208 . S
C833 O838 1.247 . S
C833 O839 1.208 . S
C834 O826 1.315 . S
C834 O829 1.279 . S
C835 O836 1.315 . S
C835 O837 1.279 . S
O836 Cd828 2.223 . S
O836 C835 1.315 . S
O837 Cd827 2.240 . S
O837 C835 1.279 . S
O838 Cd828 2.297 . S
O838 C833 1.247 . S
O839 Cd828 2.439 . S
O839 C833 1.208 . S
O840 Cd841 2.223 . S
O840 C848 1.315 . S
Cd841 O840 2.223 . S
Cd841 O844 2.297 . S
Cd841 O845 2.439 . S
Cd841 O851 2.240 . S
Cd842 O843 2.240 . S
Cd842 O850 2.223 . S
Cd842 O852 2.297 . S
Cd842 O853 2.439 . S
O843 Cd842 2.240 . S
O843 C848 1.279 . S
O844 Cd841 2.297 . S
O844 C846 1.247 . S
O845 Cd841 2.439 . S
O845 C846 1.208 . S
C846 O844 1.247 . S
C846 O845 1.208 . S
C847 O852 1.247 . S
C847 O853 1.208 . S
C848 O840 1.315 . S
C848 O843 1.279 . S
C849 O850 1.315 . S
C849 O851 1.279 . S
O850 Cd842 2.223 . S
O850 C849 1.315 . S
O851 Cd841 2.240 . S
O851 C849 1.279 . S
O852 Cd842 2.297 . S
O852 C847 1.247 . S
O853 Cd842 2.439 . S
O853 C847 1.208 . S
O854 Cd855 2.223 . S
O854 C862 1.315 . S
Cd855 O854 2.223 . S
Cd855 O858 2.297 . S
Cd855 O859 2.439 . S
Cd855 O865 2.240 . S
Cd856 O857 2.240 . S
Cd856 O864 2.223 . S
Cd856 O866 2.297 . S
Cd856 O867 2.439 . S
O857 Cd856 2.240 . S
O857 C862 1.279 . S
O858 Cd855 2.297 . S
O858 C860 1.247 . S
O859 Cd855 2.439 . S
O859 C860 1.208 . S
C860 O858 1.247 . S
C860 O859 1.208 . S
C861 O866 1.247 . S
C861 O867 1.208 . S
C862 O854 1.315 . S
C862 O857 1.279 . S
C863 O864 1.315 . S
C863 O865 1.279 . S
O864 Cd856 2.223 . S
O864 C863 1.315 . S
O865 Cd855 2.240 . S
O865 C863 1.279 . S
O866 Cd856 2.297 . S
O866 C861 1.247 . S
O867 Cd856 2.439 . S
O867 C861 1.208 . S
O868 Cd869 2.223 . S
O868 C876 1.315 . S
Cd869 O868 2.223 . S
Cd869 O872 2.297 . S
Cd869 O873 2.439 . S
Cd869 O879 2.240 . S
Cd870 O871 2.240 . S
Cd870 O878 2.223 . S
Cd870 O880 2.297 . S
Cd870 O881 2.439 . S
O871 Cd870 2.240 . S
O871 C876 1.279 . S
O872 Cd869 2.297 . S
O872 C874 1.247 . S
O873 Cd869 2.439 . S
O873 C874 1.208 . S
C874 O872 1.247 . S
C874 O873 1.208 . S
C875 O880 1.247 . S
C875 O881 1.208 . S
C876 O868 1.315 . S
C876 O871 1.279 . S
C877 O878 1.315 . S
C877 O879 1.279 . S
O878 Cd870 2.223 . S
O878 C877 1.315 . S
O879 Cd869 2.240 . S
O879 C877 1.279 . S
O880 Cd870 2.297 . S
O880 C875 1.247 . S
O881 Cd870 2.439 . S
O881 C875 1.208 . S
O882 Cd883 2.223 . S
O882 C890 1.315 . S
Cd883 O882 2.223 . S
Cd883 O886 2.297 . S
Cd883 O887 2.439 . S
Cd883 O893 2.240 . S
Cd884 O885 2.240 . S
Cd884 O892 2.223 . S
Cd884 O894 2.297 . S
Cd884 O895 2.439 . S
O885 Cd884 2.240 . S
O885 C890 1.279 . S
O886 Cd883 2.297 . S
O886 C888 1.247 . S
O887 Cd883 2.439 . S
O887 C888 1.208 . S
C888 O886 1.247 . S
C888 O887 1.208 . S
C889 O894 1.247 . S
C889 O895 1.208 . S
C890 O882 1.315 . S
C890 O885 1.279 . S
C891 O892 1.315 . S
C891 O893 1.279 . S
O892 Cd884 2.223 . S
O892 C891 1.315 . S
O893 Cd883 2.240 . S
O893 C891 1.279 . S
O894 Cd884 2.297 . S
O894 C889 1.247 . S
O895 Cd884 2.439 . S
O895 C889 1.208 . S
O896 Cd897 2.223 . S
O896 C904 1.315 . S
Cd897 O896 2.223 . S
Cd897 O900 2.297 . S
Cd897 O901 2.439 . S
Cd897 O907 2.240 . S
Cd898 O899 2.240 . S
Cd898 O906 2.223 . S
Cd898 O908 2.297 . S
Cd898 O909 2.439 . S
O899 Cd898 2.240 . S
O899 C904 1.279 . S
O900 Cd897 2.297 . S
O900 C902 1.247 . S
O901 Cd897 2.439 . S
O901 C902 1.208 . S
C902 O900 1.247 . S
C902 O901 1.208 . S
C903 O908 1.247 . S
C903 O909 1.208 . S
C904 O896 1.315 . S
C904 O899 1.279 . S
C905 O906 1.315 . S
C905 O907 1.279 . S
O906 Cd898 2.223 . S
O906 C905 1.315 . S
O907 Cd897 2.240 . S
O907 C905 1.279 . S
O908 Cd898 2.297 . S
O908 C903 1.247 . S
O909 Cd898 2.439 . S
O909 C903 1.208 . S
O910 Cd911 2.223 . S
O910 C918 1.315 . S
Cd911 O910 2.223 . S
Cd911 O914 2.297 . S
Cd911 O915 2.439 . S
Cd911 O921 2.240 . S
Cd912 O913 2.240 . S
Cd912 O920 2.223 . S
Cd912 O922 2.297 . S
Cd912 O923 2.439 . S
O913 Cd912 2.240 . S
O913 C918 1.279 . S
O914 Cd911 2.297 . S
O914 C916 1.247 . S
O915 Cd911 2.439 . S
O915 C916 1.208 . S
C916 O914 1.247 . S
C916 O915 1.208 . S
C917 O922 1.247 . S
C917 O923 1.208 . S
C918 O910 1.315 . S
C918 O913 1.279 . S
C919 O920 1.315 . S
C919 O921 1.279 . S
O920 Cd912 2.223 . S
O920 C919 1.315 . S
O921 Cd911 2.240 . S
O921 C919 1.279 . S
O922 Cd912 2.297 . S
O922 C917 1.247 . S
O923 Cd912 2.439 . S
O923 C917 1.208 . S
O924 Cd925 2.223 . S
O924 C932 1.315 . S
Cd925 O924 2.223 . S
Cd925 O928 2.297 . S
Cd925 O929 2.439 . S
Cd925 O935 2.240 . S
Cd926 O927 2.240 . S
Cd926 O934 2.223 . S
Cd926 O936 2.297 . S
Cd926 O937 2.439 . S
O927 Cd926 2.240 . S
O927 C932 1.279 . S
O928 Cd925 2.297 . S
O928 C930 1.247 . S
O929 Cd925 2.439 . S
O929 C930 1.208 . S
C930 O928 1.247 . S
C930 O929 1.208 . S
C931 O936 1.247 . S
C931 O937 1.208 . S
C932 O924 1.315 . S
C932 O927 1.279 . S
C933 O934 1.315 . S
C933 O935 1.279 . S
O934 Cd926 2.223 . S
O934 C933 1.315 . S
O935 Cd925 2.240 . S
O935 C933 1.279 . S
O936 Cd926 2.297 . S
O936 C931 1.247 . S
O937 Cd926 2.439 . S
O937 C931 1.208 . S
O938 Cd939 2.223 . S
O938 C946 1.315 . S
Cd939 O938 2.223 . S
Cd939 O942 2.297 . S
Cd939 O943 2.439 . S
Cd939 O949 2.240 . S
Cd940 O941 2.240 . S
Cd940 O948 2.223 . S
Cd940 O950 2.297 . S
Cd940 O951 2.439 . S
O941 Cd940 2.240 . S
O941 C946 1.279 . S
O942 Cd939 2.297 . S
O942 C944 1.247 . S
O943 Cd939 2.439 . S
O943 C944 1.208 . S
C944 O942 1.247 . S
C944 O943 1.208 . S
C945 O950 1.247 . S
C945 O951 1.208 . S
C946 O938 1.315 . S
C946 O941 1.279 . S
C947 O948 1.315 . S
C947 O949 1.279 . S
O948 Cd940 2.223 . S
O948 C947 1.315 . S
O949 Cd939 2.240 . S
O949 C947 1.279 . S
O950 Cd940 2.297 . S
O950 C945 1.247 . S
O951 Cd940 2.439 . S
O951 C945 1.208 . S
O952 Cd953 2.223 . S
O952 C960 1.315 . S
Cd953 O952 2.223 . S
Cd953 O956 2.297 . S
Cd953 O957 2.439 . S
Cd953 O963 2.240 . S
Cd954 O955 2.240 . S
Cd954 O962 2.223 . S
Cd954 O964 2.297 . S
Cd954 O965 2.439 . S
O955 Cd954 2.240 . S
O955 C960 1.279 . S
O956 Cd953 2.297 . S
O956 C958 1.247 . S
O957 Cd953 2.439 . S
O957 C958 1.208 . S
C958 O956 1.247 . S
C958 O957 1.208 . S
C959 O964 1.247 . S
C959 O965 1.208 . S
C960 O952 1.315 . S
C960 O955 1.279 . S
C961 O962 1.315 . S
C961 O963 1.279 . S
O962 Cd954 2.223 . S
O962 C961 1.315 . S
O963 Cd953 2.240 . S
O963 C961 1.279 . S
O964 Cd954 2.297 . S
O964 C959 1.247 . S
O965 Cd954 2.439 . S
O965 C959 1.208 . S
O966 Cd967 2.223 . S
O966 C974 1.315 . S
Cd967 O966 2.223 . S
Cd967 O970 2.297 . S
Cd967 O971 2.439 . S
Cd967 O977 2.240 . S
Cd968 O969 2.240 . S
Cd968 O976 2.223 . S
Cd968 O978 2.297 . S
Cd968 O979 2.439 . S
O969 Cd968 2.240 . S
O969 C974 1.279 . S
O970 Cd967 2.297 . S
O970 C972 1.247 . S
O971 Cd967 2.439 . S
O971 C972 1.208 . S
C972 O970 1.247 . S
C972 O971 1.208 . S
C973 O978 1.247 . S
C973 O979 1.208 . S
C974 O966 1.315 . S
C974 O969 1.279 . S
C975 O976 1.315 . S
C975 O977 1.279 . S
O976 Cd968 2.223 . S
O976 C975 1.315 . S
O977 Cd967 2.240 . S
O977 C975 1.279 . S
O978 Cd968 2.297 . S
O978 C973 1.247 . S
O979 Cd968 2.439 . S
O979 C973 1.208 . S
O980 Cd981 2.223 . S
O980 C988 1.315 . S
Cd981 O980 2.223 . S
Cd981 O984 2.297 . S
Cd981 O985 2.439 . S
Cd981 O991 2.240 . S
Cd982 O983 2.240 . S
Cd982 O990 2.223 . S
Cd982 O992 2.297 . S
Cd982 O993 2.439 . S
O983 Cd982 2.240 . S
O983 C988 1.279 . S
O984 Cd981 2.297 . S
O984 C986 1.247 . S
O985 Cd981 2.439 . S
O985 C986 1.208 . S
C986 O984 1.247 . S
C986 O985 1.208 . S
C987 O992 1.247 . S
C987 O993 1.208 . S
C988 O980 1.315 . S
C988 O983 1.279 . S
C989 O990 1.315 . S
C989 O991 1.279 . S
O990 Cd982 2.223 . S
O990 C989 1.315 . S
O991 Cd981 2.240 . S
O991 C989 1.279 . S
O992 Cd982 2.297 . S
O992 C987 1.247 . S
O993 Cd982 2.439 . S
O993 C987 1.208 . S
O994 Cd995 2.223 . S
O994 C1002 1.315 . S
Cd995 O994 2.223 . S
Cd995 O998 2.297 . S
Cd995 O999 2.439 . S
Cd995 O1005 2.240 . S
Cd996 O997 2.240 . S
Cd996 O1004 2.223 . S
Cd996 O1006 2.297 . S
Cd996 O1007 2.439 . S
O997 Cd996 2.240 . S
O997 C1002 1.279 . S
O998 Cd995 2.297 . S
O998 C1000 1.247 . S
O999 Cd995 2.439 . S
O999 C1000 1.208 . S
C1000 O998 1.247 . S
C1000 O999 1.208 . S
C1001 O1006 1.247 . S
C1001 O1007 1.208 . S
C1002 O994 1.315 . S
C1002 O997 1.279 . S
C1003 O1004 1.315 . S
C1003 O1005 1.279 . S
O1004 Cd996 2.223 . S
O1004 C1003 1.315 . S
O1005 Cd995 2.240 . S
O1005 C1003 1.279 . S
O1006 Cd996 2.297 . S
O1006 C1001 1.247 . S
O1007 Cd996 2.439 . S
O1007 C1001 1.208 . S
O1008 Cd1009 2.223 . S
O1008 C1016 1.315 . S
Cd1009 O1008 2.223 . S
Cd1009 O1012 2.297 . S
Cd1009 O1013 2.439 . S
Cd1009 O1019 2.240 . S
Cd1010 O1011 2.240 . S
Cd1010 O1018 2.223 . S
Cd1010 O1020 2.297 . S
Cd1010 O1021 2.439 . S
O1011 Cd1010 2.240 . S
O1011 C1016 1.279 . S
O1012 Cd1009 2.297 . S
O1012 C1014 1.247 . S
O1013 Cd1009 2.439 . S
O1013 C1014 1.208 . S
C1014 O1012 1.247 . S
C1014 O1013 1.208 . S
C1015 O1020 1.247 . S
C1015 O1021 1.208 . S
C1016 O1008 1.315 . S
C1016 O1011 1.279 . S
C1017 O1018 1.315 . S
C1017 O1019 1.279 . S
O1018 Cd1010 2.223 . S
O1018 C1017 1.315 . S
O1019 Cd1009 2.240 . S
O1019 C1017 1.279 . S
O1020 Cd1010 2.297 . S
O1020 C1015 1.247 . S
O1021 Cd1010 2.439 . S
O1021 C1015 1.208 . S
O1022 Cd1023 2.223 . S
O1022 C1030 1.315 . S
Cd1023 O1022 2.223 . S
Cd1023 O1026 2.297 . S
Cd1023 O1027 2.439 . S
Cd1023 O1033 2.240 . S
Cd1024 O1025 2.240 . S
Cd1024 O1032 2.223 . S
Cd1024 O1034 2.297 . S
Cd1024 O1035 2.439 . S
O1025 Cd1024 2.240 . S
O1025 C1030 1.279 . S
O1026 Cd1023 2.297 . S
O1026 C1028 1.247 . S
O1027 Cd1023 2.439 . S
O1027 C1028 1.208 . S
C1028 O1026 1.247 . S
C1028 O1027 1.208 . S
C1029 O1034 1.247 . S
C1029 O1035 1.208 . S
C1030 O1022 1.315 . S
C1030 O1025 1.279 . S
C1031 O1032 1.315 . S
C1031 O1033 1.279 . S
O1032 Cd1024 2.223 . S
O1032 C1031 1.315 . S
O1033 Cd1023 2.240 . S
O1033 C1031 1.279 . S
O1034 Cd1024 2.297 . S
O1034 C1029 1.247 . S
O1035 Cd1024 2.439 . S
O1035 C1029 1.208 . S
O1036 Cd1037 2.223 . S
O1036 C1044 1.315 . S
Cd1037 O1036 2.223 . S
Cd1037 O1040 2.297 . S
Cd1037 O1041 2.439 . S
Cd1037 O1047 2.240 . S
Cd1038 O1039 2.240 . S
Cd1038 O1046 2.223 . S
Cd1038 O1048 2.297 . S
Cd1038 O1049 2.439 . S
O1039 Cd1038 2.240 . S
O1039 C1044 1.279 . S
O1040 Cd1037 2.297 . S
O1040 C1042 1.247 . S
O1041 Cd1037 2.439 . S
O1041 C1042 1.208 . S
C1042 O1040 1.247 . S
C1042 O1041 1.208 . S
C1043 O1048 1.247 . S
C1043 O1049 1.208 . S
C1044 O1036 1.315 . S
C1044 O1039 1.279 . S
C1045 O1046 1.315 . S
C1045 O1047 1.279 . S
O1046 Cd1038 2.223 . S
O1046 C1045 1.315 . S
O1047 Cd1037 2.240 . S
O1047 C1045 1.279 . S
O1048 Cd1038 2.297 . S
O1048 C1043 1.247 . S
O1049 Cd1038 2.439 . S
O1049 C1043 1.208 . S
O1050 Cd1051 2.223 . S
O1050 C1058 1.315 . S
Cd1051 O1050 2.223 . S
Cd1051 O1054 2.297 . S
Cd1051 O1055 2.439 . S
Cd1051 O1061 2.240 . S
Cd1052 O1053 2.240 . S
Cd1052 O1060 2.223 . S
Cd1052 O1062 2.297 . S
Cd1052 O1063 2.439 . S
O1053 Cd1052 2.240 . S
O1053 C1058 1.279 . S
O1054 Cd1051 2.297 . S
O1054 C1056 1.247 . S
O1055 Cd1051 2.439 . S
O1055 C1056 1.208 . S
C1056 O1054 1.247 . S
C1056 O1055 1.208 . S
C1057 O1062 1.247 . S
C1057 O1063 1.208 . S
C1058 O1050 1.315 . S
C1058 O1053 1.279 . S
C1059 O1060 1.315 . S
C1059 O1061 1.279 . S
O1060 Cd1052 2.223 . S
O1060 C1059 1.315 . S
O1061 Cd1051 2.240 . S
O1061 C1059 1.279 . S
O1062 Cd1052 2.297 . S
O1062 C1057 1.247 . S
O1063 Cd1052 2.439 . S
O1063 C1057 1.208 . S
O1064 Cd1065 2.223 . S
O1064 C1072 1.315 . S
Cd1065 O1064 2.223 . S
Cd1065 O1068 2.297 . S
Cd1065 O1069 2.439 . S
Cd1065 O1075 2.240 . S
Cd1066 O1067 2.240 . S
Cd1066 O1074 2.223 . S
Cd1066 O1076 2.297 . S
Cd1066 O1077 2.439 . S
O1067 Cd1066 2.240 . S
O1067 C1072 1.279 . S
O1068 Cd1065 2.297 . S
O1068 C1070 1.247 . S
O1069 Cd1065 2.439 . S
O1069 C1070 1.208 . S
C1070 O1068 1.247 . S
C1070 O1069 1.208 . S
C1071 O1076 1.247 . S
C1071 O1077 1.208 . S
C1072 O1064 1.315 . S
C1072 O1067 1.279 . S
C1073 O1074 1.315 . S
C1073 O1075 1.279 . S
O1074 Cd1066 2.223 . S
O1074 C1073 1.315 . S
O1075 Cd1065 2.240 . S
O1075 C1073 1.279 . S
O1076 Cd1066 2.297 . S
O1076 C1071 1.247 . S
O1077 Cd1066 2.439 . S
O1077 C1071 1.208 . S
O1078 Cd1079 2.223 . S
O1078 C1086 1.315 . S
Cd1079 O1078 2.223 . S
Cd1079 O1082 2.297 . S
Cd1079 O1083 2.439 . S
Cd1079 O1089 2.240 . S
Cd1080 O1081 2.240 . S
Cd1080 O1088 2.223 . S
Cd1080 O1090 2.297 . S
Cd1080 O1091 2.439 . S
O1081 Cd1080 2.240 . S
O1081 C1086 1.279 . S
O1082 Cd1079 2.297 . S
O1082 C1084 1.247 . S
O1083 Cd1079 2.439 . S
O1083 C1084 1.208 . S
C1084 O1082 1.247 . S
C1084 O1083 1.208 . S
C1085 O1090 1.247 . S
C1085 O1091 1.208 . S
C1086 O1078 1.315 . S
C1086 O1081 1.279 . S
C1087 O1088 1.315 . S
C1087 O1089 1.279 . S
O1088 Cd1080 2.223 . S
O1088 C1087 1.315 . S
O1089 Cd1079 2.240 . S
O1089 C1087 1.279 . S
O1090 Cd1080 2.297 . S
O1090 C1085 1.247 . S
O1091 Cd1080 2.439 . S
O1091 C1085 1.208 . S
O1092 Cd1093 2.223 . S
O1092 C1100 1.315 . S
Cd1093 O1092 2.223 . S
Cd1093 O1096 2.297 . S
Cd1093 O1097 2.439 . S
Cd1093 O1103 2.240 . S
Cd1094 O1095 2.240 . S
Cd1094 O1102 2.223 . S
Cd1094 O1104 2.297 . S
Cd1094 O1105 2.439 . S
O1095 Cd1094 2.240 . S
O1095 C1100 1.279 . S
O1096 Cd1093 2.297 . S
O1096 C1098 1.247 . S
O1097 Cd1093 2.439 . S
O1097 C1098 1.208 . S
C1098 O1096 1.247 . S
C1098 O1097 1.208 . S
C1099 O1104 1.247 . S
C1099 O1105 1.208 . S
C1100 O1092 1.315 . S
C1100 O1095 1.279 . S
C1101 O1102 1.315 . S
C1101 O1103 1.279 . S
O1102 Cd1094 2.223 . S
O1102 C1101 1.315 . S
O1103 Cd1093 2.240 . S
O1103 C1101 1.279 . S
O1104 Cd1094 2.297 . S
O1104 C1099 1.247 . S
O1105 Cd1094 2.439 . S
O1105 C1099 1.208 . S
O1106 Cd1107 2.223 . S
O1106 C1114 1.315 . S
Cd1107 O1106 2.223 . S
Cd1107 O1110 2.297 . S
Cd1107 O1111 2.439 . S
Cd1107 O1117 2.240 . S
Cd1108 O1109 2.240 . S
Cd1108 O1116 2.223 . S
Cd1108 O1118 2.297 . S
Cd1108 O1119 2.439 . S
O1109 Cd1108 2.240 . S
O1109 C1114 1.279 . S
O1110 Cd1107 2.297 . S
O1110 C1112 1.247 . S
O1111 Cd1107 2.439 . S
O1111 C1112 1.208 . S
C1112 O1110 1.247 . S
C1112 O1111 1.208 . S
C1113 O1118 1.247 . S
C1113 O1119 1.208 . S
C1114 O1106 1.315 . S
C1114 O1109 1.279 . S
C1115 O1116 1.315 . S
C1115 O1117 1.279 . S
O1116 Cd1108 2.223 . S
O1116 C1115 1.315 . S
O1117 Cd1107 2.240 . S
O1117 C1115 1.279 . S
O1118 Cd1108 2.297 . S
O1118 C1113 1.247 . S
O1119 Cd1108 2.439 . S
O1119 C1113 1.208 . S
O1120 Cd1121 2.223 . S
O1120 C1128 1.315 . S
Cd1121 O1120 2.223 . S
Cd1121 O1124 2.297 . S
Cd1121 O1125 2.439 . S
Cd1121 O1131 2.240 . S
Cd1122 O1123 2.240 . S
Cd1122 O1130 2.223 . S
Cd1122 O1132 2.297 . S
Cd1122 O1133 2.439 . S
O1123 Cd1122 2.240 . S
O1123 C1128 1.279 . S
O1124 Cd1121 2.297 . S
O1124 C1126 1.247 . S
O1125 Cd1121 2.439 . S
O1125 C1126 1.208 . S
C1126 O1124 1.247 . S
C1126 O1125 1.208 . S
C1127 O1132 1.247 . S
C1127 O1133 1.208 . S
C1128 O1120 1.315 . S
C1128 O1123 1.279 . S
C1129 O1130 1.315 . S
C1129 O1131 1.279 . S
O1130 Cd1122 2.223 . S
O1130 C1129 1.315 . S
O1131 Cd1121 2.240 . S
O1131 C1129 1.279 . S
O1132 Cd1122 2.297 . S
O1132 C1127 1.247 . S
O1133 Cd1122 2.439 . S
O1133 C1127 1.208 . S
O1134 Cd1135 2.223 . S
O1134 C1142 1.315 . S
Cd1135 O1134 2.223 . S
Cd1135 O1138 2.297 . S
Cd1135 O1139 2.439 . S
Cd1135 O1145 2.240 . S
Cd1136 O1137 2.240 . S
Cd1136 O1144 2.223 . S
Cd1136 O1146 2.297 . S
Cd1136 O1147 2.439 . S
O1137 Cd1136 2.240 . S
O1137 C1142 1.279 . S
O1138 Cd1135 2.297 . S
O1138 C1140 1.247 . S
O1139 Cd1135 2.439 . S
O1139 C1140 1.208 . S
C1140 O1138 1.247 . S
C1140 O1139 1.208 . S
C1141 O1146 1.247 . S
C1141 O1147 1.208 . S
C1142 O1134 1.315 . S
C1142 O1137 1.279 . S
C1143 O1144 1.315 . S
C1143 O1145 1.279 . S
O1144 Cd1136 2.223 . S
O1144 C1143 1.315 . S
O1145 Cd1135 2.240 . S
O1145 C1143 1.279 . S
O1146 Cd1136 2.297 . S
O1146 C1141 1.247 . S
O1147 Cd1136 2.439 . S
O1147 C1141 1.208 . S
O1148 Cd1149 2.223 . S
O1148 C1156 1.315 . S
Cd1149 O1148 2.223 . S
Cd1149 O1152 2.297 . S
Cd1149 O1153 2.439 . S
Cd1149 O1159 2.240 . S
Cd1150 O1151 2.240 . S
Cd1150 O1158 2.223 . S
Cd1150 O1160 2.297 . S
Cd1150 O1161 2.439 . S
O1151 Cd1150 2.240 . S
O1151 C1156 1.279 . S
O1152 Cd1149 2.297 . S
O1152 C1154 1.247 . S
O1153 Cd1149 2.439 . S
O1153 C1154 1.208 . S
C1154 O1152 1.247 . S
C1154 O1153 1.208 . S
C1155 O1160 1.247 . S
C1155 O1161 1.208 . S
C1156 O1148 1.315 . S
C1156 O1151 1.279 . S
C1157 O1158 1.315 . S
C1157 O1159 1.279 . S
O1158 Cd1150 2.223 . S
O1158 C1157 1.315 . S
O1159 Cd1149 2.240 . S
O1159 C1157 1.279 . S
O1160 Cd1150 2.297 . S
O1160 C1155 1.247 . S
O1161 Cd1150 2.439 . S
O1161 C1155 1.208 . S
O1162 Cd1163 2.223 . S
O1162 C1170 1.315 . S
Cd1163 O1162 2.223 . S
Cd1163 O1166 2.297 . S
Cd1163 O1167 2.439 . S
Cd1163 O1173 2.240 . S
Cd1164 O1165 2.240 . S
Cd1164 O1172 2.223 . S
Cd1164 O1174 2.297 . S
Cd1164 O1175 2.439 . S
O1165 Cd1164 2.240 . S
O1165 C1170 1.279 . S
O1166 Cd1163 2.297 . S
O1166 C1168 1.247 . S
O1167 Cd1163 2.439 . S
O1167 C1168 1.208 . S
C1168 O1166 1.247 . S
C1168 O1167 1.208 . S
C1169 O1174 1.247 . S
C1169 O1175 1.208 . S
C1170 O1162 1.315 . S
C1170 O1165 1.279 . S
C1171 O1172 1.315 . S
C1171 O1173 1.279 . S
O1172 Cd1164 2.223 . S
O1172 C1171 1.315 . S
O1173 Cd1163 2.240 . S
O1173 C1171 1.279 . S
O1174 Cd1164 2.297 . S
O1174 C1169 1.247 . S
O1175 Cd1164 2.439 . S
O1175 C1169 1.208 . S
O1176 Cd1177 2.223 . S
O1176 C1184 1.315 . S
Cd1177 O1176 2.223 . S
Cd1177 O1180 2.297 . S
Cd1177 O1181 2.439 . S
Cd1177 O1187 2.240 . S
Cd1178 O1179 2.240 . S
Cd1178 O1186 2.223 . S
Cd1178 O1188 2.297 . S
Cd1178 O1189 2.439 . S
O1179 Cd1178 2.240 . S
O1179 C1184 1.279 . S
O1180 Cd1177 2.297 . S
O1180 C1182 1.247 . S
O1181 Cd1177 2.439 . S
O1181 C1182 1.208 . S
C1182 O1180 1.247 . S
C1182 O1181 1.208 . S
C1183 O1188 1.247 . S
C1183 O1189 1.208 . S
C1184 O1176 1.315 . S
C1184 O1179 1.279 . S
C1185 O1186 1.315 . S
C1185 O1187 1.279 . S
O1186 Cd1178 2.223 . S
O1186 C1185 1.315 . S
O1187 Cd1177 2.240 . S
O1187 C1185 1.279 . S
O1188 Cd1178 2.297 . S
O1188 C1183 1.247 . S
O1189 Cd1178 2.439 . S
O1189 C1183 1.208 . S
O1190 Cd1191 2.223 . S
O1190 C1198 1.315 . S
Cd1191 O1190 2.223 . S
Cd1191 O1194 2.297 . S
Cd1191 O1195 2.439 . S
Cd1191 O1201 2.240 . S
Cd1192 O1193 2.240 . S
Cd1192 O1200 2.223 . S
Cd1192 O1202 2.297 . S
Cd1192 O1203 2.439 . S
O1193 Cd1192 2.240 . S
O1193 C1198 1.279 . S
O1194 Cd1191 2.297 . S
O1194 C1196 1.247 . S
O1195 Cd1191 2.439 . S
O1195 C1196 1.208 . S
C1196 O1194 1.247 . S
C1196 O1195 1.208 . S
C1197 O1202 1.247 . S
C1197 O1203 1.208 . S
C1198 O1190 1.315 . S
C1198 O1193 1.279 . S
C1199 O1200 1.315 . S
C1199 O1201 1.279 . S
O1200 Cd1192 2.223 . S
O1200 C1199 1.315 . S
O1201 Cd1191 2.240 . S
O1201 C1199 1.279 . S
O1202 Cd1192 2.297 . S
O1202 C1197 1.247 . S
O1203 Cd1192 2.439 . S
O1203 C1197 1.208 . S
O1204 Cd1205 2.223 . S
O1204 C1212 1.315 . S
Cd1205 O1204 2.223 . S
Cd1205 O1208 2.297 . S
Cd1205 O1209 2.439 . S
Cd1205 O1215 2.240 . S
Cd1206 O1207 2.240 . S
Cd1206 O1214 2.223 . S
Cd1206 O1216 2.297 . S
Cd1206 O1217 2.439 . S
O1207 Cd1206 2.240 . S
O1207 C1212 1.279 . S
O1208 Cd1205 2.297 . S
O1208 C1210 1.247 . S
O1209 Cd1205 2.439 . S
O1209 C1210 1.208 . S
C1210 O1208 1.247 . S
C1210 O1209 1.208 . S
C1211 O1216 1.247 . S
C1211 O1217 1.208 . S
C1212 O1204 1.315 . S
C1212 O1207 1.279 . S
C1213 O1214 1.315 . S
C1213 O1215 1.279 . S
O1214 Cd1206 2.223 . S
O1214 C1213 1.315 . S
O1215 Cd1205 2.240 . S
O1215 C1213 1.279 . S
O1216 Cd1206 2.297 . S
O1216 C1211 1.247 . S
O1217 Cd1206 2.439 . S
O1217 C1211 1.208 . S
O1218 Cd1219 2.223 . S
O1218 C1226 1.315 . S
Cd1219 O1218 2.223 . S
Cd1219 O1222 2.297 . S
Cd1219 O1223 2.439 . S
Cd1219 O1229 2.240 . S
Cd1220 O1221 2.240 . S
Cd1220 O1228 2.223 . S
Cd1220 O1230 2.297 . S
Cd1220 O1231 2.439 . S
O1221 Cd1220 2.240 . S
O1221 C1226 1.279 . S
O1222 Cd1219 2.297 . S
O1222 C1224 1.247 . S
O1223 Cd1219 2.439 . S
O1223 C1224 1.208 . S
C1224 O1222 1.247 . S
C1224 O1223 1.208 . S
C1225 O1230 1.247 . S
C1225 O1231 1.208 . S
C1226 O1218 1.315 . S
C1226 O1221 1.279 . S
C1227 O1228 1.315 . S
C1227 O1229 1.279 . S
O1228 Cd1220 2.223 . S
O1228 C1227 1.315 . S
O1229 Cd1219 2.240 . S
O1229 C1227 1.279 . S
O1230 Cd1220 2.297 . S
O1230 C1225 1.247 . S
O1231 Cd1220 2.439 . S
O1231 C1225 1.208 . S
O1232 Cd1233 2.223 . S
O1232 C1240 1.315 . S
Cd1233 O1232 2.223 . S
Cd1233 O1236 2.297 . S
Cd1233 O1237 2.439 . S
Cd1233 O1243 2.240 . S
Cd1234 O1235 2.240 . S
Cd1234 O1242 2.223 . S
Cd1234 O1244 2.297 . S
Cd1234 O1245 2.439 . S
O1235 Cd1234 2.240 . S
O1235 C1240 1.279 . S
O1236 Cd1233 2.297 . S
O1236 C1238 1.247 . S
O1237 Cd1233 2.439 . S
O1237 C1238 1.208 . S
C1238 O1236 1.247 . S
C1238 O1237 1.208 . S
C1239 O1244 1.247 . S
C1239 O1245 1.208 . S
C1240 O1232 1.315 . S
C1240 O1235 1.279 . S
C1241 O1242 1.315 . S
C1241 O1243 1.279 . S
O1242 Cd1234 2.223 . S
O1242 C1241 1.315 . S
O1243 Cd1233 2.240 . S
O1243 C1241 1.279 . S
O1244 Cd1234 2.297 . S
O1244 C1239 1.247 . S
O1245 Cd1234 2.439 . S
O1245 C1239 1.208 . S
O1246 Cd1247 2.223 . S
O1246 C1254 1.315 . S
Cd1247 O1246 2.223 . S
Cd1247 O1250 2.297 . S
Cd1247 O1251 2.439 . S
Cd1247 O1257 2.240 . S
Cd1248 O1249 2.240 . S
Cd1248 O1256 2.223 . S
Cd1248 O1258 2.297 . S
Cd1248 O1259 2.439 . S
O1249 Cd1248 2.240 . S
O1249 C1254 1.279 . S
O1250 Cd1247 2.297 . S
O1250 C1252 1.247 . S
O1251 Cd1247 2.439 . S
O1251 C1252 1.208 . S
C1252 O1250 1.247 . S
C1252 O1251 1.208 . S
C1253 O1258 1.247 . S
C1253 O1259 1.208 . S
C1254 O1246 1.315 . S
C1254 O1249 1.279 . S
C1255 O1256 1.315 . S
C1255 O1257 1.279 . S
O1256 Cd1248 2.223 . S
O1256 C1255 1.315 . S
O1257 Cd1247 2.240 . S
O1257 C1255 1.279 . S
O1258 Cd1248 2.297 . S
O1258 C1253 1.247 . S
O1259 Cd1248 2.439 . S
O1259 C1253 1.208 . S
O1260 Cd1261 2.223 . S
O1260 C1268 1.315 . S
Cd1261 O1260 2.223 . S
Cd1261 O1264 2.297 . S
Cd1261 O1265 2.439 . S
Cd1261 O1271 2.240 . S
Cd1262 O1263 2.240 . S
Cd1262 O1270 2.223 . S
Cd1262 O1272 2.297 . S
Cd1262 O1273 2.439 . S
O1263 Cd1262 2.240 . S
O1263 C1268 1.279 . S
O1264 Cd1261 2.297 . S
O1264 C1266 1.247 . S
O1265 Cd1261 2.439 . S
O1265 C1266 1.208 . S
C1266 O1264 1.247 . S
C1266 O1265 1.208 . S
C1267 O1272 1.247 . S
C1267 O1273 1.208 . S
C1268 O1260 1.315 . S
C1268 O1263 1.279 . S
C1269 O1270 1.315 . S
C1269 O1271 1.279 . S
O1270 Cd1262 2.223 . S
O1270 C1269 1.315 . S
O1271 Cd1261 2.240 . S
O1271 C1269 1.279 . S
O1272 Cd1262 2.297 . S
O1272 C1267 1.247 . S
O1273 Cd1262 2.439 . S
O1273 C1267 1.208 . S
O1274 Cd1275 2.223 . S
O1274 C1282 1.315 . S
Cd1275 O1274 2.223 . S
Cd1275 O1278 2.297 . S
Cd1275 O1279 2.439 . S
Cd1275 O1285 2.240 . S
Cd1276 O1277 2.240 . S
Cd1276 O1284 2.223 . S
Cd1276 O1286 2.297 . S
Cd1276 O1287 2.439 . S
O1277 Cd1276 2.240 . S
O1277 C1282 1.279 . S
O1278 Cd1275 2.297 . S
O1278 C1280 1.247 . S
O1279 Cd1275 2.439 . S
O1279 C1280 1.208 . S
C1280 O1278 1.247 . S
C1280 O1279 1.208 . S
C1281 O1286 1.247 . S
C1281 O1287 1.208 . S
C1282 O1274 1.315 . S
C1282 O1277 1.279 . S
C1283 O1284 1.315 . S
C1283 O1285 1.279 . S
O1284 Cd1276 2.223 . S
O1284 C1283 1.315 . S
O1285 Cd1275 2.240 . S
O1285 C1283 1.279 . S
O1286 Cd1276 2.297 . S
O1286 C1281 1.247 . S
O1287 Cd1276 2.439 . S
O1287 C1281 1.208 . S
O1288 Cd1289 2.223 . S
O1288 C1296 1.315 . S
Cd1289 O1288 2.223 . S
Cd1289 O1292 2.297 . S
Cd1289 O1293 2.439 . S
Cd1289 O1299 2.240 . S
Cd1290 O1291 2.240 . S
Cd1290 O1298 2.223 . S
Cd1290 O1300 2.297 . S
Cd1290 O1301 2.439 . S
O1291 Cd1290 2.240 . S
O1291 C1296 1.279 . S
O1292 Cd1289 2.297 . S
O1292 C1294 1.247 . S
O1293 Cd1289 2.439 . S
O1293 C1294 1.208 . S
C1294 O1292 1.247 . S
C1294 O1293 1.208 . S
C1295 O1300 1.247 . S
C1295 O1301 1.208 . S
C1296 O1288 1.315 . S
C1296 O1291 1.279 . S
C1297 O1298 1.315 . S
C1297 O1299 1.279 . S
O1298 Cd1290 2.223 . S
O1298 C1297 1.315 . S
O1299 Cd1289 2.240 . S
O1299 C1297 1.279 . S
O1300 Cd1290 2.297 . S
O1300 C1295 1.247 . S
O1301 Cd1290 2.439 . S
O1301 C1295 1.208 . S
O1302 Cd1303 2.223 . S
O1302 C1310 1.315 . S
Cd1303 O1302 2.223 . S
Cd1303 O1306 2.297 . S
Cd1303 O1307 2.439 . S
Cd1303 O1313 2.240 . S
Cd1304 O1305 2.240 . S
Cd1304 O1312 2.223 . S
Cd1304 O1314 2.297 . S
Cd1304 O1315 2.439 . S
O1305 Cd1304 2.240 . S
O1305 C1310 1.279 . S
O1306 Cd1303 2.297 . S
O1306 C1308 1.247 . S
O1307 Cd1303 2.439 . S
O1307 C1308 1.208 . S
C1308 O1306 1.247 . S
C1308 O1307 1.208 . S
C1309 O1314 1.247 . S
C1309 O1315 1.208 . S
C1310 O1302 1.315 . S
C1310 O1305 1.279 . S
C1311 O1312 1.315 . S
C1311 O1313 1.279 . S
O1312 Cd1304 2.223 . S
O1312 C1311 1.315 . S
O1313 Cd1303 2.240 . S
O1313 C1311 1.279 . S
O1314 Cd1304 2.297 . S
O1314 C1309 1.247 . S
O1315 Cd1304 2.439 . S
O1315 C1309 1.208 . S
O1316 Cd1317 2.223 . S
O1316 C1324 1.315 . S
Cd1317 O1316 2.223 . S
Cd1317 O1320 2.297 . S
Cd1317 O1321 2.439 . S
Cd1317 O1327 2.240 . S
Cd1318 O1319 2.240 . S
Cd1318 O1326 2.223 . S
Cd1318 O1328 2.297 . S
Cd1318 O1329 2.439 . S
O1319 Cd1318 2.240 . S
O1319 C1324 1.279 . S
O1320 Cd1317 2.297 . S
O1320 C1322 1.247 . S
O1321 Cd1317 2.439 . S
O1321 C1322 1.208 . S
C1322 O1320 1.247 . S
C1322 O1321 1.208 . S
C1323 O1328 1.247 . S
C1323 O1329 1.208 . S
C1324 O1316 1.315 . S
C1324 O1319 1.279 . S
C1325 O1326 1.315 . S
C1325 O1327 1.279 . S
O1326 Cd1318 2.223 . S
O1326 C1325 1.315 . S
O1327 Cd1317 2.240 . S
O1327 C1325 1.279 . S
O1328 Cd1318 2.297 . S
O1328 C1323 1.247 . S
O1329 Cd1318 2.439 . S
O1329 C1323 1.208 . S
O1330 Cd1331 2.223 . S
O1330 C1338 1.315 . S
Cd1331 O1330 2.223 . S
Cd1331 O1334 2.297 . S
Cd1331 O1335 2.439 . S
Cd1331 O1341 2.240 . S
Cd1332 O1333 2.240 . S
Cd1332 O1340 2.223 . S
Cd1332 O1342 2.297 . S
Cd1332 O1343 2.439 . S
O1333 Cd1332 2.240 . S
O1333 C1338 1.279 . S
O1334 Cd1331 2.297 . S
O1334 C1336 1.247 . S
O1335 Cd1331 2.439 . S
O1335 C1336 1.208 . S
C1336 O1334 1.247 . S
C1336 O1335 1.208 . S
C1337 O1342 1.247 . S
C1337 O1343 1.208 . S
C1338 O1330 1.315 . S
C1338 O1333 1.279 . S
C1339 O1340 1.315 . S
C1339 O1341 1.279 . S
O1340 Cd1332 2.223 . S
O1340 C1339 1.315 . S
O1341 Cd1331 2.240 . S
O1341 C1339 1.279 . S
O1342 Cd1332 2.297 . S
O1342 C1337 1.247 . S
O1343 Cd1332 2.439 . S
O1343 C1337 1.208 . S
H1344 C1350 0.930 . S
H1345 C1354 0.930 . S
H1346 C1359 0.929 . S
H1347 C1357 0.929 . S
H1348 C1352 0.929 . S
H1349 C1358 0.929 . S
C1350 H1344 0.930 . S
C1350 C1351 1.367 . S
C1350 C1358 1.378 . S
C1351 C1350 1.367 . S
C1351 C1359 1.433 . S
C1352 H1348 0.929 . S
C1352 C1354 1.378 . S
C1352 C1356 1.350 . S
C1353 C1356 1.463 . S
C1353 C1358 1.350 . S
C1353 N1361 1.427 . S
C1354 H1345 0.930 . S
C1354 C1352 1.378 . S
C1354 C1355 1.367 . S
C1355 C1354 1.367 . S
C1355 C1357 1.433 . S
C1356 C1352 1.350 . S
C1356 C1353 1.463 . S
C1356 N1360 1.427 . S
C1357 H1347 0.929 . S
C1357 C1355 1.433 . S
C1357 N1360 1.384 . S
C1358 H1349 0.929 . S
C1358 C1350 1.378 . S
C1358 C1353 1.350 . S
C1359 H1346 0.929 . S
C1359 C1351 1.433 . S
C1359 N1361 1.384 . S
N1360 C1356 1.427 . S
N1360 C1357 1.384 . S
N1361 C1353 1.427 . S
N1361 C1359 1.384 . S
H1362 C1368 0.930 . S
H1363 C1372 0.930 . S
H1364 C1377 0.929 . S
H1365 C1375 0.929 . S
H1366 C1370 0.929 . S
H1367 C1376 0.929 . S
C1368 H1362 0.930 . S
C1368 C1369 1.367 . S
C1368 C1376 1.378 . S
C1369 C1368 1.367 . S
C1369 C1377 1.433 . S
C1370 H1366 0.929 . S
C1370 C1372 1.378 . S
C1370 C1374 1.350 . S
C1371 C1374 1.463 . S
C1371 C1376 1.350 . S
C1371 N1379 1.427 . S
C1372 H1363 0.930 . S
C1372 C1370 1.378 . S
C1372 C1373 1.367 . S
C1373 C1372 1.367 . S
C1373 C1375 1.433 . S
C1374 C1370 1.350 . S
C1374 C1371 1.463 . S
C1374 N1378 1.427 . S
C1375 H1365 0.929 . S
C1375 C1373 1.433 . S
C1375 N1378 1.384 . S
C1376 H1367 0.929 . S
C1376 C1368 1.378 . S
C1376 C1371 1.350 . S
C1377 H1364 0.929 . S
C1377 C1369 1.433 . S
C1377 N1379 1.384 . S
N1378 C1374 1.427 . S
N1378 C1375 1.384 . S
N1379 C1371 1.427 . S
N1379 C1377 1.384 . S
H1380 C1386 0.930 . S
H1381 C1390 0.930 . S
H1382 C1395 0.929 . S
H1383 C1393 0.929 . S
H1384 C1388 0.929 . S
H1385 C1394 0.929 . S
C1386 H1380 0.930 . S
C1386 C1387 1.367 . S
C1386 C1394 1.378 . S
C1387 C1386 1.367 . S
C1387 C1395 1.433 . S
C1388 H1384 0.929 . S
C1388 C1390 1.378 . S
C1388 C1392 1.350 . S
C1389 C1392 1.463 . S
C1389 C1394 1.350 . S
C1389 N1397 1.427 . S
C1390 H1381 0.930 . S
C1390 C1388 1.378 . S
C1390 C1391 1.367 . S
C1391 C1390 1.367 . S
C1391 C1393 1.433 . S
C1392 C1388 1.350 . S
C1392 C1389 1.463 . S
C1392 N1396 1.427 . S
C1393 H1383 0.929 . S
C1393 C1391 1.433 . S
C1393 N1396 1.384 . S
C1394 H1385 0.929 . S
C1394 C1386 1.378 . S
C1394 C1389 1.350 . S
C1395 H1382 0.929 . S
C1395 C1387 1.433 . S
C1395 N1397 1.384 . S
N1396 C1392 1.427 . S
N1396 C1393 1.384 . S
N1397 C1389 1.427 . S
N1397 C1395 1.384 . S
H1398 C1404 0.930 . S
H1399 C1408 0.930 . S
H1400 C1413 0.929 . S
H1401 C1411 0.929 . S
H1402 C1406 0.929 . S
H1403 C1412 0.929 . S
C1404 H1398 0.930 . S
C1404 C1405 1.367 . S
C1404 C1412 1.378 . S
C1405 C1404 1.367 . S
C1405 C1413 1.433 . S
C1406 H1402 0.929 . S
C1406 C1408 1.378 . S
C1406 C1410 1.350 . S
C1407 C1410 1.463 . S
C1407 C1412 1.350 . S
C1407 N1415 1.427 . S
C1408 H1399 0.930 . S
C1408 C1406 1.378 . S
C1408 C1409 1.367 . S
C1409 C1408 1.367 . S
C1409 C1411 1.433 . S
C1410 C1406 1.350 . S
C1410 C1407 1.463 . S
C1410 N1414 1.427 . S
C1411 H1401 0.929 . S
C1411 C1409 1.433 . S
C1411 N1414 1.384 . S
C1412 H1403 0.929 . S
C1412 C1404 1.378 . S
C1412 C1407 1.350 . S
C1413 H1400 0.929 . S
C1413 C1405 1.433 . S
C1413 N1415 1.384 . S
N1414 C1410 1.427 . S
N1414 C1411 1.384 . S
N1415 C1407 1.427 . S
N1415 C1413 1.384 . S
H1416 C1422 0.930 . S
H1417 C1426 0.930 . S
H1418 C1431 0.929 . S
H1419 C1429 0.929 . S
H1420 C1424 0.929 . S
H1421 C1430 0.929 . S
C1422 H1416 0.930 . S
C1422 C1423 1.367 . S
C1422 C1430 1.378 . S
C1423 C1422 1.367 . S
C1423 C1431 1.433 . S
C1424 H1420 0.929 . S
C1424 C1426 1.378 . S
C1424 C1428 1.350 . S
C1425 C1428 1.463 . S
C1425 C1430 1.350 . S
C1425 N1433 1.427 . S
C1426 H1417 0.930 . S
C1426 C1424 1.378 . S
C1426 C1427 1.367 . S
C1427 C1426 1.367 . S
C1427 C1429 1.433 . S
C1428 C1424 1.350 . S
C1428 C1425 1.463 . S
C1428 N1432 1.427 . S
C1429 H1419 0.929 . S
C1429 C1427 1.433 . S
C1429 N1432 1.384 . S
C1430 H1421 0.929 . S
C1430 C1422 1.378 . S
C1430 C1425 1.350 . S
C1431 H1418 0.929 . S
C1431 C1423 1.433 . S
C1431 N1433 1.384 . S
N1432 C1428 1.427 . S
N1432 C1429 1.384 . S
N1433 C1425 1.427 . S
N1433 C1431 1.384 . S
H1434 C1440 0.930 . S
H1435 C1444 0.930 . S
H1436 C1449 0.929 . S
H1437 C1447 0.929 . S
H1438 C1442 0.929 . S
H1439 C1448 0.929 . S
C1440 H1434 0.930 . S
C1440 C1441 1.367 . S
C1440 C1448 1.378 . S
C1441 C1440 1.367 . S
C1441 C1449 1.433 . S
C1442 H1438 0.929 . S
C1442 C1444 1.378 . S
C1442 C1446 1.350 . S
C1443 C1446 1.463 . S
C1443 C1448 1.350 . S
C1443 N1451 1.427 . S
C1444 H1435 0.930 . S
C1444 C1442 1.378 . S
C1444 C1445 1.367 . S
C1445 C1444 1.367 . S
C1445 C1447 1.433 . S
C1446 C1442 1.350 . S
C1446 C1443 1.463 . S
C1446 N1450 1.427 . S
C1447 H1437 0.929 . S
C1447 C1445 1.433 . S
C1447 N1450 1.384 . S
C1448 H1439 0.929 . S
C1448 C1440 1.378 . S
C1448 C1443 1.350 . S
C1449 H1436 0.929 . S
C1449 C1441 1.433 . S
C1449 N1451 1.384 . S
N1450 C1446 1.427 . S
N1450 C1447 1.384 . S
N1451 C1443 1.427 . S
N1451 C1449 1.384 . S
H1452 C1458 0.930 . S
H1453 C1462 0.930 . S
H1454 C1467 0.929 . S
H1455 C1465 0.929 . S
H1456 C1460 0.929 . S
H1457 C1466 0.929 . S
C1458 H1452 0.930 . S
C1458 C1459 1.367 . S
C1458 C1466 1.378 . S
C1459 C1458 1.367 . S
C1459 C1467 1.433 . S
C1460 H1456 0.929 . S
C1460 C1462 1.378 . S
C1460 C1464 1.350 . S
C1461 C1464 1.463 . S
C1461 C1466 1.350 . S
C1461 N1469 1.427 . S
C1462 H1453 0.930 . S
C1462 C1460 1.378 . S
C1462 C1463 1.367 . S
C1463 C1462 1.367 . S
C1463 C1465 1.433 . S
C1464 C1460 1.350 . S
C1464 C1461 1.463 . S
C1464 N1468 1.427 . S
C1465 H1455 0.929 . S
C1465 C1463 1.433 . S
C1465 N1468 1.384 . S
C1466 H1457 0.929 . S
C1466 C1458 1.378 . S
C1466 C1461 1.350 . S
C1467 H1454 0.929 . S
C1467 C1459 1.433 . S
C1467 N1469 1.384 . S
N1468 C1464 1.427 . S
N1468 C1465 1.384 . S
N1469 C1461 1.427 . S
N1469 C1467 1.384 . S
H1470 C1476 0.930 . S
H1471 C1480 0.930 . S
H1472 C1485 0.929 . S
H1473 C1483 0.929 . S
H1474 C1478 0.929 . S
H1475 C1484 0.929 . S
C1476 H1470 0.930 . S
C1476 C1477 1.367 . S
C1476 C1484 1.378 . S
C1477 C1476 1.367 . S
C1477 C1485 1.433 . S
C1478 H1474 0.929 . S
C1478 C1480 1.378 . S
C1478 C1482 1.350 . S
C1479 C1482 1.463 . S
C1479 C1484 1.350 . S
C1479 N1487 1.427 . S
C1480 H1471 0.930 . S
C1480 C1478 1.378 . S
C1480 C1481 1.367 . S
C1481 C1480 1.367 . S
C1481 C1483 1.433 . S
C1482 C1478 1.350 . S
C1482 C1479 1.463 . S
C1482 N1486 1.427 . S
C1483 H1473 0.929 . S
C1483 C1481 1.433 . S
C1483 N1486 1.384 . S
C1484 H1475 0.929 . S
C1484 C1476 1.378 . S
C1484 C1479 1.350 . S
C1485 H1472 0.929 . S
C1485 C1477 1.433 . S
C1485 N1487 1.384 . S
N1486 C1482 1.427 . S
N1486 C1483 1.384 . S
N1487 C1479 1.427 . S
N1487 C1485 1.384 . S
H1488 C1494 0.930 . S
H1489 C1498 0.930 . S
H1490 C1503 0.929 . S
H1491 C1501 0.929 . S
H1492 C1496 0.929 . S
H1493 C1502 0.929 . S
C1494 H1488 0.930 . S
C1494 C1495 1.367 . S
C1494 C1502 1.378 . S
C1495 C1494 1.367 . S
C1495 C1503 1.433 . S
C1496 H1492 0.929 . S
C1496 C1498 1.378 . S
C1496 C1500 1.350 . S
C1497 C1500 1.463 . S
C1497 C1502 1.350 . S
C1497 N1505 1.427 . S
C1498 H1489 0.930 . S
C1498 C1496 1.378 . S
C1498 C1499 1.367 . S
C1499 C1498 1.367 . S
C1499 C1501 1.433 . S
C1500 C1496 1.350 . S
C1500 C1497 1.463 . S
C1500 N1504 1.427 . S
C1501 H1491 0.929 . S
C1501 C1499 1.433 . S
C1501 N1504 1.384 . S
C1502 H1493 0.929 . S
C1502 C1494 1.378 . S
C1502 C1497 1.350 . S
C1503 H1490 0.929 . S
C1503 C1495 1.433 . S
C1503 N1505 1.384 . S
N1504 C1500 1.427 . S
N1504 C1501 1.384 . S
N1505 C1497 1.427 . S
N1505 C1503 1.384 . S
H1506 C1512 0.930 . S
H1507 C1516 0.930 . S
H1508 C1521 0.929 . S
H1509 C1519 0.929 . S
H1510 C1514 0.929 . S
H1511 C1520 0.929 . S
C1512 H1506 0.930 . S
C1512 C1513 1.367 . S
C1512 C1520 1.378 . S
C1513 C1512 1.367 . S
C1513 C1521 1.433 . S
C1514 H1510 0.929 . S
C1514 C1516 1.378 . S
C1514 C1518 1.350 . S
C1515 C1518 1.463 . S
C1515 C1520 1.350 . S
C1515 N1523 1.427 . S
C1516 H1507 0.930 . S
C1516 C1514 1.378 . S
C1516 C1517 1.367 . S
C1517 C1516 1.367 . S
C1517 C1519 1.433 . S
C1518 C1514 1.350 . S
C1518 C1515 1.463 . S
C1518 N1522 1.427 . S
C1519 H1509 0.929 . S
C1519 C1517 1.433 . S
C1519 N1522 1.384 . S
C1520 H1511 0.929 . S
C1520 C1512 1.378 . S
C1520 C1515 1.350 . S
C1521 H1508 0.929 . S
C1521 C1513 1.433 . S
C1521 N1523 1.384 . S
N1522 C1518 1.427 . S
N1522 C1519 1.384 . S
N1523 C1515 1.427 . S
N1523 C1521 1.384 . S
H1524 C1530 0.930 . S
H1525 C1534 0.930 . S
H1526 C1539 0.929 . S
H1527 C1537 0.929 . S
H1528 C1532 0.929 . S
H1529 C1538 0.929 . S
C1530 H1524 0.930 . S
C1530 C1531 1.367 . S
C1530 C1538 1.378 . S
C1531 C1530 1.367 . S
C1531 C1539 1.433 . S
C1532 H1528 0.929 . S
C1532 C1534 1.378 . S
C1532 C1536 1.350 . S
C1533 C1536 1.463 . S
C1533 C1538 1.350 . S
C1533 N1541 1.427 . S
C1534 H1525 0.930 . S
C1534 C1532 1.378 . S
C1534 C1535 1.367 . S
C1535 C1534 1.367 . S
C1535 C1537 1.433 . S
C1536 C1532 1.350 . S
C1536 C1533 1.463 . S
C1536 N1540 1.427 . S
C1537 H1527 0.929 . S
C1537 C1535 1.433 . S
C1537 N1540 1.384 . S
C1538 H1529 0.929 . S
C1538 C1530 1.378 . S
C1538 C1533 1.350 . S
C1539 H1526 0.929 . S
C1539 C1531 1.433 . S
C1539 N1541 1.384 . S
N1540 C1536 1.427 . S
N1540 C1537 1.384 . S
N1541 C1533 1.427 . S
N1541 C1539 1.384 . S
H1542 C1548 0.930 . S
H1543 C1552 0.930 . S
H1544 C1557 0.929 . S
H1545 C1555 0.929 . S
H1546 C1550 0.929 . S
H1547 C1556 0.929 . S
C1548 H1542 0.930 . S
C1548 C1549 1.367 . S
C1548 C1556 1.378 . S
C1549 C1548 1.367 . S
C1549 C1557 1.433 . S
C1550 H1546 0.929 . S
C1550 C1552 1.378 . S
C1550 C1554 1.350 . S
C1551 C1554 1.463 . S
C1551 C1556 1.350 . S
C1551 N1559 1.427 . S
C1552 H1543 0.930 . S
C1552 C1550 1.378 . S
C1552 C1553 1.367 . S
C1553 C1552 1.367 . S
C1553 C1555 1.433 . S
C1554 C1550 1.350 . S
C1554 C1551 1.463 . S
C1554 N1558 1.427 . S
C1555 H1545 0.929 . S
C1555 C1553 1.433 . S
C1555 N1558 1.384 . S
C1556 H1547 0.929 . S
C1556 C1548 1.378 . S
C1556 C1551 1.350 . S
C1557 H1544 0.929 . S
C1557 C1549 1.433 . S
C1557 N1559 1.384 . S
N1558 C1554 1.427 . S
N1558 C1555 1.384 . S
N1559 C1551 1.427 . S
N1559 C1557 1.384 . S
H1560 C1566 0.930 . S
H1561 C1570 0.930 . S
H1562 C1575 0.929 . S
H1563 C1573 0.929 . S
H1564 C1568 0.929 . S
H1565 C1574 0.929 . S
C1566 H1560 0.930 . S
C1566 C1567 1.367 . S
C1566 C1574 1.378 . S
C1567 C1566 1.367 . S
C1567 C1575 1.433 . S
C1568 H1564 0.929 . S
C1568 C1570 1.378 . S
C1568 C1572 1.350 . S
C1569 C1572 1.463 . S
C1569 C1574 1.350 . S
C1569 N1577 1.427 . S
C1570 H1561 0.930 . S
C1570 C1568 1.378 . S
C1570 C1571 1.367 . S
C1571 C1570 1.367 . S
C1571 C1573 1.433 . S
C1572 C1568 1.350 . S
C1572 C1569 1.463 . S
C1572 N1576 1.427 . S
C1573 H1563 0.929 . S
C1573 C1571 1.433 . S
C1573 N1576 1.384 . S
C1574 H1565 0.929 . S
C1574 C1566 1.378 . S
C1574 C1569 1.350 . S
C1575 H1562 0.929 . S
C1575 C1567 1.433 . S
C1575 N1577 1.384 . S
N1576 C1572 1.427 . S
N1576 C1573 1.384 . S
N1577 C1569 1.427 . S
N1577 C1575 1.384 . S
H1578 C1584 0.930 . S
H1579 C1588 0.930 . S
H1580 C1593 0.929 . S
H1581 C1591 0.929 . S
H1582 C1586 0.929 . S
H1583 C1592 0.929 . S
C1584 H1578 0.930 . S
C1584 C1585 1.367 . S
C1584 C1592 1.378 . S
C1585 C1584 1.367 . S
C1585 C1593 1.433 . S
C1586 H1582 0.929 . S
C1586 C1588 1.378 . S
C1586 C1590 1.350 . S
C1587 C1590 1.463 . S
C1587 C1592 1.350 . S
C1587 N1595 1.427 . S
C1588 H1579 0.930 . S
C1588 C1586 1.378 . S
C1588 C1589 1.367 . S
C1589 C1588 1.367 . S
C1589 C1591 1.433 . S
C1590 C1586 1.350 . S
C1590 C1587 1.463 . S
C1590 N1594 1.427 . S
C1591 H1581 0.929 . S
C1591 C1589 1.433 . S
C1591 N1594 1.384 . S
C1592 H1583 0.929 . S
C1592 C1584 1.378 . S
C1592 C1587 1.350 . S
C1593 H1580 0.929 . S
C1593 C1585 1.433 . S
C1593 N1595 1.384 . S
N1594 C1590 1.427 . S
N1594 C1591 1.384 . S
N1595 C1587 1.427 . S
N1595 C1593 1.384 . S
H1596 C1602 0.930 . S
H1597 C1606 0.930 . S
H1598 C1611 0.929 . S
H1599 C1609 0.929 . S
H1600 C1604 0.929 . S
H1601 C1610 0.929 . S
C1602 H1596 0.930 . S
C1602 C1603 1.367 . S
C1602 C1610 1.378 . S
C1603 C1602 1.367 . S
C1603 C1611 1.433 . S
C1604 H1600 0.929 . S
C1604 C1606 1.378 . S
C1604 C1608 1.350 . S
C1605 C1608 1.463 . S
C1605 C1610 1.350 . S
C1605 N1613 1.427 . S
C1606 H1597 0.930 . S
C1606 C1604 1.378 . S
C1606 C1607 1.367 . S
C1607 C1606 1.367 . S
C1607 C1609 1.433 . S
C1608 C1604 1.350 . S
C1608 C1605 1.463 . S
C1608 N1612 1.427 . S
C1609 H1599 0.929 . S
C1609 C1607 1.433 . S
C1609 N1612 1.384 . S
C1610 H1601 0.929 . S
C1610 C1602 1.378 . S
C1610 C1605 1.350 . S
C1611 H1598 0.929 . S
C1611 C1603 1.433 . S
C1611 N1613 1.384 . S
N1612 C1608 1.427 . S
N1612 C1609 1.384 . S
N1613 C1605 1.427 . S
N1613 C1611 1.384 . S
H1614 C1620 0.930 . S
H1615 C1624 0.930 . S
H1616 C1629 0.929 . S
H1617 C1627 0.929 . S
H1618 C1622 0.929 . S
H1619 C1628 0.929 . S
C1620 H1614 0.930 . S
C1620 C1621 1.367 . S
C1620 C1628 1.378 . S
C1621 C1620 1.367 . S
C1621 C1629 1.433 . S
C1622 H1618 0.929 . S
C1622 C1624 1.378 . S
C1622 C1626 1.350 . S
C1623 C1626 1.463 . S
C1623 C1628 1.350 . S
C1623 N1631 1.427 . S
C1624 H1615 0.930 . S
C1624 C1622 1.378 . S
C1624 C1625 1.367 . S
C1625 C1624 1.367 . S
C1625 C1627 1.433 . S
C1626 C1622 1.350 . S
C1626 C1623 1.463 . S
C1626 N1630 1.427 . S
C1627 H1617 0.929 . S
C1627 C1625 1.433 . S
C1627 N1630 1.384 . S
C1628 H1619 0.929 . S
C1628 C1620 1.378 . S
C1628 C1623 1.350 . S
C1629 H1616 0.929 . S
C1629 C1621 1.433 . S
C1629 N1631 1.384 . S
N1630 C1626 1.427 . S
N1630 C1627 1.384 . S
N1631 C1623 1.427 . S
N1631 C1629 1.384 . S
H1632 C1638 0.930 . S
H1633 C1642 0.930 . S
H1634 C1647 0.929 . S
H1635 C1645 0.929 . S
H1636 C1640 0.929 . S
H1637 C1646 0.929 . S
C1638 H1632 0.930 . S
C1638 C1639 1.367 . S
C1638 C1646 1.378 . S
C1639 C1638 1.367 . S
C1639 C1647 1.433 . S
C1640 H1636 0.929 . S
C1640 C1642 1.378 . S
C1640 C1644 1.350 . S
C1641 C1644 1.463 . S
C1641 C1646 1.350 . S
C1641 N1649 1.427 . S
C1642 H1633 0.930 . S
C1642 C1640 1.378 . S
C1642 C1643 1.367 . S
C1643 C1642 1.367 . S
C1643 C1645 1.433 . S
C1644 C1640 1.350 . S
C1644 C1641 1.463 . S
C1644 N1648 1.427 . S
C1645 H1635 0.929 . S
C1645 C1643 1.433 . S
C1645 N1648 1.384 . S
C1646 H1637 0.929 . S
C1646 C1638 1.378 . S
C1646 C1641 1.350 . S
C1647 H1634 0.929 . S
C1647 C1639 1.433 . S
C1647 N1649 1.384 . S
N1648 C1644 1.427 . S
N1648 C1645 1.384 . S
N1649 C1641 1.427 . S
N1649 C1647 1.384 . S
H1650 C1656 0.930 . S
H1651 C1660 0.930 . S
H1652 C1665 0.929 . S
H1653 C1663 0.929 . S
H1654 C1658 0.929 . S
H1655 C1664 0.929 . S
C1656 H1650 0.930 . S
C1656 C1657 1.367 . S
C1656 C1664 1.378 . S
C1657 C1656 1.367 . S
C1657 C1665 1.433 . S
C1658 H1654 0.929 . S
C1658 C1660 1.378 . S
C1658 C1662 1.350 . S
C1659 C1662 1.463 . S
C1659 C1664 1.350 . S
C1659 N1667 1.427 . S
C1660 H1651 0.930 . S
C1660 C1658 1.378 . S
C1660 C1661 1.367 . S
C1661 C1660 1.367 . S
C1661 C1663 1.433 . S
C1662 C1658 1.350 . S
C1662 C1659 1.463 . S
C1662 N1666 1.427 . S
C1663 H1653 0.929 . S
C1663 C1661 1.433 . S
C1663 N1666 1.384 . S
C1664 H1655 0.929 . S
C1664 C1656 1.378 . S
C1664 C1659 1.350 . S
C1665 H1652 0.929 . S
C1665 C1657 1.433 . S
C1665 N1667 1.384 . S
N1666 C1662 1.427 . S
N1666 C1663 1.384 . S
N1667 C1659 1.427 . S
N1667 C1665 1.384 . S
H1668 C1674 0.930 . S
H1669 C1678 0.930 . S
H1670 C1683 0.929 . S
H1671 C1681 0.929 . S
H1672 C1676 0.929 . S
H1673 C1682 0.929 . S
C1674 H1668 0.930 . S
C1674 C1675 1.367 . S
C1674 C1682 1.378 . S
C1675 C1674 1.367 . S
C1675 C1683 1.433 . S
C1676 H1672 0.929 . S
C1676 C1678 1.378 . S
C1676 C1680 1.350 . S
C1677 C1680 1.463 . S
C1677 C1682 1.350 . S
C1677 N1685 1.427 . S
C1678 H1669 0.930 . S
C1678 C1676 1.378 . S
C1678 C1679 1.367 . S
C1679 C1678 1.367 . S
C1679 C1681 1.433 . S
C1680 C1676 1.350 . S
C1680 C1677 1.463 . S
C1680 N1684 1.427 . S
C1681 H1671 0.929 . S
C1681 C1679 1.433 . S
C1681 N1684 1.384 . S
C1682 H1673 0.929 . S
C1682 C1674 1.378 . S
C1682 C1677 1.350 . S
C1683 H1670 0.929 . S
C1683 C1675 1.433 . S
C1683 N1685 1.384 . S
N1684 C1680 1.427 . S
N1684 C1681 1.384 . S
N1685 C1677 1.427 . S
N1685 C1683 1.384 . S
H1686 C1692 0.930 . S
H1687 C1696 0.930 . S
H1688 C1701 0.929 . S
H1689 C1699 0.929 . S
H1690 C1694 0.929 . S
H1691 C1700 0.929 . S
C1692 H1686 0.930 . S
C1692 C1693 1.367 . S
C1692 C1700 1.378 . S
C1693 C1692 1.367 . S
C1693 C1701 1.433 . S
C1694 H1690 0.929 . S
C1694 C1696 1.378 . S
C1694 C1698 1.350 . S
C1695 C1698 1.463 . S
C1695 C1700 1.350 . S
C1695 N1703 1.427 . S
C1696 H1687 0.930 . S
C1696 C1694 1.378 . S
C1696 C1697 1.367 . S
C1697 C1696 1.367 . S
C1697 C1699 1.433 . S
C1698 C1694 1.350 . S
C1698 C1695 1.463 . S
C1698 N1702 1.427 . S
C1699 H1689 0.929 . S
C1699 C1697 1.433 . S
C1699 N1702 1.384 . S
C1700 H1691 0.929 . S
C1700 C1692 1.378 . S
C1700 C1695 1.350 . S
C1701 H1688 0.929 . S
C1701 C1693 1.433 . S
C1701 N1703 1.384 . S
N1702 C1698 1.427 . S
N1702 C1699 1.384 . S
N1703 C1695 1.427 . S
N1703 C1701 1.384 . S
H1704 C1710 0.930 . S
H1705 C1714 0.930 . S
H1706 C1719 0.929 . S
H1707 C1717 0.929 . S
H1708 C1712 0.929 . S
H1709 C1718 0.929 . S
C1710 H1704 0.930 . S
C1710 C1711 1.367 . S
C1710 C1718 1.378 . S
C1711 C1710 1.367 . S
C1711 C1719 1.433 . S
C1712 H1708 0.929 . S
C1712 C1714 1.378 . S
C1712 C1716 1.350 . S
C1713 C1716 1.463 . S
C1713 C1718 1.350 . S
C1713 N1721 1.427 . S
C1714 H1705 0.930 . S
C1714 C1712 1.378 . S
C1714 C1715 1.367 . S
C1715 C1714 1.367 . S
C1715 C1717 1.433 . S
C1716 C1712 1.350 . S
C1716 C1713 1.463 . S
C1716 N1720 1.427 . S
C1717 H1707 0.929 . S
C1717 C1715 1.433 . S
C1717 N1720 1.384 . S
C1718 H1709 0.929 . S
C1718 C1710 1.378 . S
C1718 C1713 1.350 . S
C1719 H1706 0.929 . S
C1719 C1711 1.433 . S
C1719 N1721 1.384 . S
N1720 C1716 1.427 . S
N1720 C1717 1.384 . S
N1721 C1713 1.427 . S
N1721 C1719 1.384 . S
H1722 C1728 0.930 . S
H1723 C1732 0.930 . S
H1724 C1737 0.929 . S
H1725 C1735 0.929 . S
H1726 C1730 0.929 . S
H1727 C1736 0.929 . S
C1728 H1722 0.930 . S
C1728 C1729 1.367 . S
C1728 C1736 1.378 . S
C1729 C1728 1.367 . S
C1729 C1737 1.433 . S
C1730 H1726 0.929 . S
C1730 C1732 1.378 . S
C1730 C1734 1.350 . S
C1731 C1734 1.463 . S
C1731 C1736 1.350 . S
C1731 N1739 1.427 . S
C1732 H1723 0.930 . S
C1732 C1730 1.378 . S
C1732 C1733 1.367 . S
C1733 C1732 1.367 . S
C1733 C1735 1.433 . S
C1734 C1730 1.350 . S
C1734 C1731 1.463 . S
C1734 N1738 1.427 . S
C1735 H1725 0.929 . S
C1735 C1733 1.433 . S
C1735 N1738 1.384 . S
C1736 H1727 0.929 . S
C1736 C1728 1.378 . S
C1736 C1731 1.350 . S
C1737 H1724 0.929 . S
C1737 C1729 1.433 . S
C1737 N1739 1.384 . S
N1738 C1734 1.427 . S
N1738 C1735 1.384 . S
N1739 C1731 1.427 . S
N1739 C1737 1.384 . S
H1740 C1746 0.930 . S
H1741 C1750 0.930 . S
H1742 C1755 0.929 . S
H1743 C1753 0.929 . S
H1744 C1748 0.929 . S
H1745 C1754 0.929 . S
C1746 H1740 0.930 . S
C1746 C1747 1.367 . S
C1746 C1754 1.378 . S
C1747 C1746 1.367 . S
C1747 C1755 1.433 . S
C1748 H1744 0.929 . S
C1748 C1750 1.378 . S
C1748 C1752 1.350 . S
C1749 C1752 1.463 . S
C1749 C1754 1.350 . S
C1749 N1757 1.427 . S
C1750 H1741 0.930 . S
C1750 C1748 1.378 . S
C1750 C1751 1.367 . S
C1751 C1750 1.367 . S
C1751 C1753 1.433 . S
C1752 C1748 1.350 . S
C1752 C1749 1.463 . S
C1752 N1756 1.427 . S
C1753 H1743 0.929 . S
C1753 C1751 1.433 . S
C1753 N1756 1.384 . S
C1754 H1745 0.929 . S
C1754 C1746 1.378 . S
C1754 C1749 1.350 . S
C1755 H1742 0.929 . S
C1755 C1747 1.433 . S
C1755 N1757 1.384 . S
N1756 C1752 1.427 . S
N1756 C1753 1.384 . S
N1757 C1749 1.427 . S
N1757 C1755 1.384 . S
H1758 C1764 0.930 . S
H1759 C1768 0.930 . S
H1760 C1773 0.929 . S
H1761 C1771 0.929 . S
H1762 C1766 0.929 . S
H1763 C1772 0.929 . S
C1764 H1758 0.930 . S
C1764 C1765 1.367 . S
C1764 C1772 1.378 . S
C1765 C1764 1.367 . S
C1765 C1773 1.433 . S
C1766 H1762 0.929 . S
C1766 C1768 1.378 . S
C1766 C1770 1.350 . S
C1767 C1770 1.463 . S
C1767 C1772 1.350 . S
C1767 N1775 1.427 . S
C1768 H1759 0.930 . S
C1768 C1766 1.378 . S
C1768 C1769 1.367 . S
C1769 C1768 1.367 . S
C1769 C1771 1.433 . S
C1770 C1766 1.350 . S
C1770 C1767 1.463 . S
C1770 N1774 1.427 . S
C1771 H1761 0.929 . S
C1771 C1769 1.433 . S
C1771 N1774 1.384 . S
C1772 H1763 0.929 . S
C1772 C1764 1.378 . S
C1772 C1767 1.350 . S
C1773 H1760 0.929 . S
C1773 C1765 1.433 . S
C1773 N1775 1.384 . S
N1774 C1770 1.427 . S
N1774 C1771 1.384 . S
N1775 C1767 1.427 . S
N1775 C1773 1.384 . S
H1776 C1782 0.930 . S
H1777 C1786 0.930 . S
H1778 C1791 0.929 . S
H1779 C1789 0.929 . S
H1780 C1784 0.929 . S
H1781 C1790 0.929 . S
C1782 H1776 0.930 . S
C1782 C1783 1.367 . S
C1782 C1790 1.378 . S
C1783 C1782 1.367 . S
C1783 C1791 1.433 . S
C1784 H1780 0.929 . S
C1784 C1786 1.378 . S
C1784 C1788 1.350 . S
C1785 C1788 1.463 . S
C1785 C1790 1.350 . S
C1785 N1793 1.427 . S
C1786 H1777 0.930 . S
C1786 C1784 1.378 . S
C1786 C1787 1.367 . S
C1787 C1786 1.367 . S
C1787 C1789 1.433 . S
C1788 C1784 1.350 . S
C1788 C1785 1.463 . S
C1788 N1792 1.427 . S
C1789 H1779 0.929 . S
C1789 C1787 1.433 . S
C1789 N1792 1.384 . S
C1790 H1781 0.929 . S
C1790 C1782 1.378 . S
C1790 C1785 1.350 . S
C1791 H1778 0.929 . S
C1791 C1783 1.433 . S
C1791 N1793 1.384 . S
N1792 C1788 1.427 . S
N1792 C1789 1.384 . S
N1793 C1785 1.427 . S
N1793 C1791 1.384 . S
H1794 C1800 0.930 . S
H1795 C1804 0.930 . S
H1796 C1809 0.929 . S
H1797 C1807 0.929 . S
H1798 C1802 0.929 . S
H1799 C1808 0.929 . S
C1800 H1794 0.930 . S
C1800 C1801 1.367 . S
C1800 C1808 1.378 . S
C1801 C1800 1.367 . S
C1801 C1809 1.433 . S
C1802 H1798 0.929 . S
C1802 C1804 1.378 . S
C1802 C1806 1.350 . S
C1803 C1806 1.463 . S
C1803 C1808 1.350 . S
C1803 N1811 1.427 . S
C1804 H1795 0.930 . S
C1804 C1802 1.378 . S
C1804 C1805 1.367 . S
C1805 C1804 1.367 . S
C1805 C1807 1.433 . S
C1806 C1802 1.350 . S
C1806 C1803 1.463 . S
C1806 N1810 1.427 . S
C1807 H1797 0.929 . S
C1807 C1805 1.433 . S
C1807 N1810 1.384 . S
C1808 H1799 0.929 . S
C1808 C1800 1.378 . S
C1808 C1803 1.350 . S
C1809 H1796 0.929 . S
C1809 C1801 1.433 . S
C1809 N1811 1.384 . S
N1810 C1806 1.427 . S
N1810 C1807 1.384 . S
N1811 C1803 1.427 . S
N1811 C1809 1.384 . S
H1812 C1818 0.930 . S
H1813 C1822 0.930 . S
H1814 C1827 0.929 . S
H1815 C1825 0.929 . S
H1816 C1820 0.929 . S
H1817 C1826 0.929 . S
C1818 H1812 0.930 . S
C1818 C1819 1.367 . S
C1818 C1826 1.378 . S
C1819 C1818 1.367 . S
C1819 C1827 1.433 . S
C1820 H1816 0.929 . S
C1820 C1822 1.378 . S
C1820 C1824 1.350 . S
C1821 C1824 1.463 . S
C1821 C1826 1.350 . S
C1821 N1829 1.427 . S
C1822 H1813 0.930 . S
C1822 C1820 1.378 . S
C1822 C1823 1.367 . S
C1823 C1822 1.367 . S
C1823 C1825 1.433 . S
C1824 C1820 1.350 . S
C1824 C1821 1.463 . S
C1824 N1828 1.427 . S
C1825 H1815 0.929 . S
C1825 C1823 1.433 . S
C1825 N1828 1.384 . S
C1826 H1817 0.929 . S
C1826 C1818 1.378 . S
C1826 C1821 1.350 . S
C1827 H1814 0.929 . S
C1827 C1819 1.433 . S
C1827 N1829 1.384 . S
N1828 C1824 1.427 . S
N1828 C1825 1.384 . S
N1829 C1821 1.427 . S
N1829 C1827 1.384 . S
H1830 C1836 0.930 . S
H1831 C1840 0.930 . S
H1832 C1845 0.929 . S
H1833 C1843 0.929 . S
H1834 C1838 0.929 . S
H1835 C1844 0.929 . S
C1836 H1830 0.930 . S
C1836 C1837 1.367 . S
C1836 C1844 1.378 . S
C1837 C1836 1.367 . S
C1837 C1845 1.433 . S
C1838 H1834 0.929 . S
C1838 C1840 1.378 . S
C1838 C1842 1.350 . S
C1839 C1842 1.463 . S
C1839 C1844 1.350 . S
C1839 N1847 1.427 . S
C1840 H1831 0.930 . S
C1840 C1838 1.378 . S
C1840 C1841 1.367 . S
C1841 C1840 1.367 . S
C1841 C1843 1.433 . S
C1842 C1838 1.350 . S
C1842 C1839 1.463 . S
C1842 N1846 1.427 . S
C1843 H1833 0.929 . S
C1843 C1841 1.433 . S
C1843 N1846 1.384 . S
C1844 H1835 0.929 . S
C1844 C1836 1.378 . S
C1844 C1839 1.350 . S
C1845 H1832 0.929 . S
C1845 C1837 1.433 . S
C1845 N1847 1.384 . S
N1846 C1842 1.427 . S
N1846 C1843 1.384 . S
N1847 C1839 1.427 . S
N1847 C1845 1.384 . S
H1848 C1854 0.930 . S
H1849 C1858 0.930 . S
H1850 C1863 0.929 . S
H1851 C1861 0.929 . S
H1852 C1856 0.929 . S
H1853 C1862 0.929 . S
C1854 H1848 0.930 . S
C1854 C1855 1.367 . S
C1854 C1862 1.378 . S
C1855 C1854 1.367 . S
C1855 C1863 1.433 . S
C1856 H1852 0.929 . S
C1856 C1858 1.378 . S
C1856 C1860 1.350 . S
C1857 C1860 1.463 . S
C1857 C1862 1.350 . S
C1857 N1865 1.427 . S
C1858 H1849 0.930 . S
C1858 C1856 1.378 . S
C1858 C1859 1.367 . S
C1859 C1858 1.367 . S
C1859 C1861 1.433 . S
C1860 C1856 1.350 . S
C1860 C1857 1.463 . S
C1860 N1864 1.427 . S
C1861 H1851 0.929 . S
C1861 C1859 1.433 . S
C1861 N1864 1.384 . S
C1862 H1853 0.929 . S
C1862 C1854 1.378 . S
C1862 C1857 1.350 . S
C1863 H1850 0.929 . S
C1863 C1855 1.433 . S
C1863 N1865 1.384 . S
N1864 C1860 1.427 . S
N1864 C1861 1.384 . S
N1865 C1857 1.427 . S
N1865 C1863 1.384 . S
H1866 C1872 0.930 . S
H1867 C1876 0.930 . S
H1868 C1881 0.929 . S
H1869 C1879 0.929 . S
H1870 C1874 0.929 . S
H1871 C1880 0.929 . S
C1872 H1866 0.930 . S
C1872 C1873 1.367 . S
C1872 C1880 1.378 . S
C1873 C1872 1.367 . S
C1873 C1881 1.433 . S
C1874 H1870 0.929 . S
C1874 C1876 1.378 . S
C1874 C1878 1.350 . S
C1875 C1878 1.463 . S
C1875 C1880 1.350 . S
C1875 N1883 1.427 . S
C1876 H1867 0.930 . S
C1876 C1874 1.378 . S
C1876 C1877 1.367 . S
C1877 C1876 1.367 . S
C1877 C1879 1.433 . S
C1878 C1874 1.350 . S
C1878 C1875 1.463 . S
C1878 N1882 1.427 . S
C1879 H1869 0.929 . S
C1879 C1877 1.433 . S
C1879 N1882 1.384 . S
C1880 H1871 0.929 . S
C1880 C1872 1.378 . S
C1880 C1875 1.350 . S
C1881 H1868 0.929 . S
C1881 C1873 1.433 . S
C1881 N1883 1.384 . S
N1882 C1878 1.427 . S
N1882 C1879 1.384 . S
N1883 C1875 1.427 . S
N1883 C1881 1.384 . S
H1884 C1890 0.930 . S
H1885 C1894 0.930 . S
H1886 C1899 0.929 . S
H1887 C1897 0.929 . S
H1888 C1892 0.929 . S
H1889 C1898 0.929 . S
C1890 H1884 0.930 . S
C1890 C1891 1.367 . S
C1890 C1898 1.378 . S
C1891 C1890 1.367 . S
C1891 C1899 1.433 . S
C1892 H1888 0.929 . S
C1892 C1894 1.378 . S
C1892 C1896 1.350 . S
C1893 C1896 1.463 . S
C1893 C1898 1.350 . S
C1893 N1901 1.427 . S
C1894 H1885 0.930 . S
C1894 C1892 1.378 . S
C1894 C1895 1.367 . S
C1895 C1894 1.367 . S
C1895 C1897 1.433 . S
C1896 C1892 1.350 . S
C1896 C1893 1.463 . S
C1896 N1900 1.427 . S
C1897 H1887 0.929 . S
C1897 C1895 1.433 . S
C1897 N1900 1.384 . S
C1898 H1889 0.929 . S
C1898 C1890 1.378 . S
C1898 C1893 1.350 . S
C1899 H1886 0.929 . S
C1899 C1891 1.433 . S
C1899 N1901 1.384 . S
N1900 C1896 1.427 . S
N1900 C1897 1.384 . S
N1901 C1893 1.427 . S
N1901 C1899 1.384 . S
H1902 C1908 0.930 . S
H1903 C1912 0.930 . S
H1904 C1917 0.929 . S
H1905 C1915 0.929 . S
H1906 C1910 0.929 . S
H1907 C1916 0.929 . S
C1908 H1902 0.930 . S
C1908 C1909 1.367 . S
C1908 C1916 1.378 . S
C1909 C1908 1.367 . S
C1909 C1917 1.433 . S
C1910 H1906 0.929 . S
C1910 C1912 1.378 . S
C1910 C1914 1.350 . S
C1911 C1914 1.463 . S
C1911 C1916 1.350 . S
C1911 N1919 1.427 . S
C1912 H1903 0.930 . S
C1912 C1910 1.378 . S
C1912 C1913 1.367 . S
C1913 C1912 1.367 . S
C1913 C1915 1.433 . S
C1914 C1910 1.350 . S
C1914 C1911 1.463 . S
C1914 N1918 1.427 . S
C1915 H1905 0.929 . S
C1915 C1913 1.433 . S
C1915 N1918 1.384 . S
C1916 H1907 0.929 . S
C1916 C1908 1.378 . S
C1916 C1911 1.350 . S
C1917 H1904 0.929 . S
C1917 C1909 1.433 . S
C1917 N1919 1.384 . S
N1918 C1914 1.427 . S
N1918 C1915 1.384 . S
N1919 C1911 1.427 . S
N1919 C1917 1.384 . S
H1920 C1926 0.930 . S
H1921 C1930 0.930 . S
H1922 C1935 0.929 . S
H1923 C1933 0.929 . S
H1924 C1928 0.929 . S
H1925 C1934 0.929 . S
C1926 H1920 0.930 . S
C1926 C1927 1.367 . S
C1926 C1934 1.378 . S
C1927 C1926 1.367 . S
C1927 C1935 1.433 . S
C1928 H1924 0.929 . S
C1928 C1930 1.378 . S
C1928 C1932 1.350 . S
C1929 C1932 1.463 . S
C1929 C1934 1.350 . S
C1929 N1937 1.427 . S
C1930 H1921 0.930 . S
C1930 C1928 1.378 . S
C1930 C1931 1.367 . S
C1931 C1930 1.367 . S
C1931 C1933 1.433 . S
C1932 C1928 1.350 . S
C1932 C1929 1.463 . S
C1932 N1936 1.427 . S
C1933 H1923 0.929 . S
C1933 C1931 1.433 . S
C1933 N1936 1.384 . S
C1934 H1925 0.929 . S
C1934 C1926 1.378 . S
C1934 C1929 1.350 . S
C1935 H1922 0.929 . S
C1935 C1927 1.433 . S
C1935 N1937 1.384 . S
N1936 C1932 1.427 . S
N1936 C1933 1.384 . S
N1937 C1929 1.427 . S
N1937 C1935 1.384 . S
H1938 C1944 0.930 . S
H1939 C1948 0.930 . S
H1940 C1953 0.929 . S
H1941 C1951 0.929 . S
H1942 C1946 0.929 . S
H1943 C1952 0.929 . S
C1944 H1938 0.930 . S
C1944 C1945 1.367 . S
C1944 C1952 1.378 . S
C1945 C1944 1.367 . S
C1945 C1953 1.433 . S
C1946 H1942 0.929 . S
C1946 C1948 1.378 . S
C1946 C1950 1.350 . S
C1947 C1950 1.463 . S
C1947 C1952 1.350 . S
C1947 N1955 1.427 . S
C1948 H1939 0.930 . S
C1948 C1946 1.378 . S
C1948 C1949 1.367 . S
C1949 C1948 1.367 . S
C1949 C1951 1.433 . S
C1950 C1946 1.350 . S
C1950 C1947 1.463 . S
C1950 N1954 1.427 . S
C1951 H1941 0.929 . S
C1951 C1949 1.433 . S
C1951 N1954 1.384 . S
C1952 H1943 0.929 . S
C1952 C1944 1.378 . S
C1952 C1947 1.350 . S
C1953 H1940 0.929 . S
C1953 C1945 1.433 . S
C1953 N1955 1.384 . S
N1954 C1950 1.427 . S
N1954 C1951 1.384 . S
N1955 C1947 1.427 . S
N1955 C1953 1.384 . S
H1956 C1962 0.930 . S
H1957 C1966 0.930 . S
H1958 C1971 0.929 . S
H1959 C1969 0.929 . S
H1960 C1964 0.929 . S
H1961 C1970 0.929 . S
C1962 H1956 0.930 . S
C1962 C1963 1.367 . S
C1962 C1970 1.378 . S
C1963 C1962 1.367 . S
C1963 C1971 1.433 . S
C1964 H1960 0.929 . S
C1964 C1966 1.378 . S
C1964 C1968 1.350 . S
C1965 C1968 1.463 . S
C1965 C1970 1.350 . S
C1965 N1973 1.427 . S
C1966 H1957 0.930 . S
C1966 C1964 1.378 . S
C1966 C1967 1.367 . S
C1967 C1966 1.367 . S
C1967 C1969 1.433 . S
C1968 C1964 1.350 . S
C1968 C1965 1.463 . S
C1968 N1972 1.427 . S
C1969 H1959 0.929 . S
C1969 C1967 1.433 . S
C1969 N1972 1.384 . S
C1970 H1961 0.929 . S
C1970 C1962 1.378 . S
C1970 C1965 1.350 . S
C1971 H1958 0.929 . S
C1971 C1963 1.433 . S
C1971 N1973 1.384 . S
N1972 C1968 1.427 . S
N1972 C1969 1.384 . S
N1973 C1965 1.427 . S
N1973 C1971 1.384 . S
H1974 C1980 0.930 . S
H1975 C1984 0.930 . S
H1976 C1989 0.929 . S
H1977 C1987 0.929 . S
H1978 C1982 0.929 . S
H1979 C1988 0.929 . S
C1980 H1974 0.930 . S
C1980 C1981 1.367 . S
C1980 C1988 1.378 . S
C1981 C1980 1.367 . S
C1981 C1989 1.433 . S
C1982 H1978 0.929 . S
C1982 C1984 1.378 . S
C1982 C1986 1.350 . S
C1983 C1986 1.463 . S
C1983 C1988 1.350 . S
C1983 N1991 1.427 . S
C1984 H1975 0.930 . S
C1984 C1982 1.378 . S
C1984 C1985 1.367 . S
C1985 C1984 1.367 . S
C1985 C1987 1.433 . S
C1986 C1982 1.350 . S
C1986 C1983 1.463 . S
C1986 N1990 1.427 . S
C1987 H1977 0.929 . S
C1987 C1985 1.433 . S
C1987 N1990 1.384 . S
C1988 H1979 0.929 . S
C1988 C1980 1.378 . S
C1988 C1983 1.350 . S
C1989 H1976 0.929 . S
C1989 C1981 1.433 . S
C1989 N1991 1.384 . S
N1990 C1986 1.427 . S
N1990 C1987 1.384 . S
N1991 C1983 1.427 . S
N1991 C1989 1.384 . S
H1992 C1998 0.930 . S
H1993 C2002 0.930 . S
H1994 C2007 0.929 . S
H1995 C2005 0.929 . S
H1996 C2000 0.929 . S
H1997 C2006 0.929 . S
C1998 H1992 0.930 . S
C1998 C1999 1.367 . S
C1998 C2006 1.378 . S
C1999 C1998 1.367 . S
C1999 C2007 1.433 . S
C2000 H1996 0.929 . S
C2000 C2002 1.378 . S
C2000 C2004 1.350 . S
C2001 C2004 1.463 . S
C2001 C2006 1.350 . S
C2001 N2009 1.427 . S
C2002 H1993 0.930 . S
C2002 C2000 1.378 . S
C2002 C2003 1.367 . S
C2003 C2002 1.367 . S
C2003 C2005 1.433 . S
C2004 C2000 1.350 . S
C2004 C2001 1.463 . S
C2004 N2008 1.427 . S
C2005 H1995 0.929 . S
C2005 C2003 1.433 . S
C2005 N2008 1.384 . S
C2006 H1997 0.929 . S
C2006 C1998 1.378 . S
C2006 C2001 1.350 . S
C2007 H1994 0.929 . S
C2007 C1999 1.433 . S
C2007 N2009 1.384 . S
N2008 C2004 1.427 . S
N2008 C2005 1.384 . S
N2009 C2001 1.427 . S
N2009 C2007 1.384 . S
H2010 C2016 0.930 . S
H2011 C2020 0.930 . S
H2012 C2025 0.929 . S
H2013 C2023 0.929 . S
H2014 C2018 0.929 . S
H2015 C2024 0.929 . S
C2016 H2010 0.930 . S
C2016 C2017 1.367 . S
C2016 C2024 1.378 . S
C2017 C2016 1.367 . S
C2017 C2025 1.433 . S
C2018 H2014 0.929 . S
C2018 C2020 1.378 . S
C2018 C2022 1.350 . S
C2019 C2022 1.463 . S
C2019 C2024 1.350 . S
C2019 N2027 1.427 . S
C2020 H2011 0.930 . S
C2020 C2018 1.378 . S
C2020 C2021 1.367 . S
C2021 C2020 1.367 . S
C2021 C2023 1.433 . S
C2022 C2018 1.350 . S
C2022 C2019 1.463 . S
C2022 N2026 1.427 . S
C2023 H2013 0.929 . S
C2023 C2021 1.433 . S
C2023 N2026 1.384 . S
C2024 H2015 0.929 . S
C2024 C2016 1.378 . S
C2024 C2019 1.350 . S
C2025 H2012 0.929 . S
C2025 C2017 1.433 . S
C2025 N2027 1.384 . S
N2026 C2022 1.427 . S
N2026 C2023 1.384 . S
N2027 C2019 1.427 . S
N2027 C2025 1.384 . S
H2028 C2034 0.930 . S
H2029 C2038 0.930 . S
H2030 C2043 0.929 . S
H2031 C2041 0.929 . S
H2032 C2036 0.929 . S
H2033 C2042 0.929 . S
C2034 H2028 0.930 . S
C2034 C2035 1.367 . S
C2034 C2042 1.378 . S
C2035 C2034 1.367 . S
C2035 C2043 1.433 . S
C2036 H2032 0.929 . S
C2036 C2038 1.378 . S
C2036 C2040 1.350 . S
C2037 C2040 1.463 . S
C2037 C2042 1.350 . S
C2037 N2045 1.427 . S
C2038 H2029 0.930 . S
C2038 C2036 1.378 . S
C2038 C2039 1.367 . S
C2039 C2038 1.367 . S
C2039 C2041 1.433 . S
C2040 C2036 1.350 . S
C2040 C2037 1.463 . S
C2040 N2044 1.427 . S
C2041 H2031 0.929 . S
C2041 C2039 1.433 . S
C2041 N2044 1.384 . S
C2042 H2033 0.929 . S
C2042 C2034 1.378 . S
C2042 C2037 1.350 . S
C2043 H2030 0.929 . S
C2043 C2035 1.433 . S
C2043 N2045 1.384 . S
N2044 C2040 1.427 . S
N2044 C2041 1.384 . S
N2045 C2037 1.427 . S
N2045 C2043 1.384 . S
H2046 C2052 0.930 . S
H2047 C2056 0.930 . S
H2048 C2061 0.929 . S
H2049 C2059 0.929 . S
H2050 C2054 0.929 . S
H2051 C2060 0.929 . S
C2052 H2046 0.930 . S
C2052 C2053 1.367 . S
C2052 C2060 1.378 . S
C2053 C2052 1.367 . S
C2053 C2061 1.433 . S
C2054 H2050 0.929 . S
C2054 C2056 1.378 . S
C2054 C2058 1.350 . S
C2055 C2058 1.463 . S
C2055 C2060 1.350 . S
C2055 N2063 1.427 . S
C2056 H2047 0.930 . S
C2056 C2054 1.378 . S
C2056 C2057 1.367 . S
C2057 C2056 1.367 . S
C2057 C2059 1.433 . S
C2058 C2054 1.350 . S
C2058 C2055 1.463 . S
C2058 N2062 1.427 . S
C2059 H2049 0.929 . S
C2059 C2057 1.433 . S
C2059 N2062 1.384 . S
C2060 H2051 0.929 . S
C2060 C2052 1.378 . S
C2060 C2055 1.350 . S
C2061 H2048 0.929 . S
C2061 C2053 1.433 . S
C2061 N2063 1.384 . S
N2062 C2058 1.427 . S
N2062 C2059 1.384 . S
N2063 C2055 1.427 . S
N2063 C2061 1.384 . S
H2064 C2070 0.930 . S
H2065 C2074 0.930 . S
H2066 C2079 0.929 . S
H2067 C2077 0.929 . S
H2068 C2072 0.929 . S
H2069 C2078 0.929 . S
C2070 H2064 0.930 . S
C2070 C2071 1.367 . S
C2070 C2078 1.378 . S
C2071 C2070 1.367 . S
C2071 C2079 1.433 . S
C2072 H2068 0.929 . S
C2072 C2074 1.378 . S
C2072 C2076 1.350 . S
C2073 C2076 1.463 . S
C2073 C2078 1.350 . S
C2073 N2081 1.427 . S
C2074 H2065 0.930 . S
C2074 C2072 1.378 . S
C2074 C2075 1.367 . S
C2075 C2074 1.367 . S
C2075 C2077 1.433 . S
C2076 C2072 1.350 . S
C2076 C2073 1.463 . S
C2076 N2080 1.427 . S
C2077 H2067 0.929 . S
C2077 C2075 1.433 . S
C2077 N2080 1.384 . S
C2078 H2069 0.929 . S
C2078 C2070 1.378 . S
C2078 C2073 1.350 . S
C2079 H2066 0.929 . S
C2079 C2071 1.433 . S
C2079 N2081 1.384 . S
N2080 C2076 1.427 . S
N2080 C2077 1.384 . S
N2081 C2073 1.427 . S
N2081 C2079 1.384 . S
H2082 C2088 0.930 . S
H2083 C2092 0.930 . S
H2084 C2097 0.929 . S
H2085 C2095 0.929 . S
H2086 C2090 0.929 . S
H2087 C2096 0.929 . S
C2088 H2082 0.930 . S
C2088 C2089 1.367 . S
C2088 C2096 1.378 . S
C2089 C2088 1.367 . S
C2089 C2097 1.433 . S
C2090 H2086 0.929 . S
C2090 C2092 1.378 . S
C2090 C2094 1.350 . S
C2091 C2094 1.463 . S
C2091 C2096 1.350 . S
C2091 N2099 1.427 . S
C2092 H2083 0.930 . S
C2092 C2090 1.378 . S
C2092 C2093 1.367 . S
C2093 C2092 1.367 . S
C2093 C2095 1.433 . S
C2094 C2090 1.350 . S
C2094 C2091 1.463 . S
C2094 N2098 1.427 . S
C2095 H2085 0.929 . S
C2095 C2093 1.433 . S
C2095 N2098 1.384 . S
C2096 H2087 0.929 . S
C2096 C2088 1.378 . S
C2096 C2091 1.350 . S
C2097 H2084 0.929 . S
C2097 C2089 1.433 . S
C2097 N2099 1.384 . S
N2098 C2094 1.427 . S
N2098 C2095 1.384 . S
N2099 C2091 1.427 . S
N2099 C2097 1.384 . S
H2100 C2106 0.930 . S
H2101 C2110 0.930 . S
H2102 C2115 0.929 . S
H2103 C2113 0.929 . S
H2104 C2108 0.929 . S
H2105 C2114 0.929 . S
C2106 H2100 0.930 . S
C2106 C2107 1.367 . S
C2106 C2114 1.378 . S
C2107 C2106 1.367 . S
C2107 C2115 1.433 . S
C2108 H2104 0.929 . S
C2108 C2110 1.378 . S
C2108 C2112 1.350 . S
C2109 C2112 1.463 . S
C2109 C2114 1.350 . S
C2109 N2117 1.427 . S
C2110 H2101 0.930 . S
C2110 C2108 1.378 . S
C2110 C2111 1.367 . S
C2111 C2110 1.367 . S
C2111 C2113 1.433 . S
C2112 C2108 1.350 . S
C2112 C2109 1.463 . S
C2112 N2116 1.427 . S
C2113 H2103 0.929 . S
C2113 C2111 1.433 . S
C2113 N2116 1.384 . S
C2114 H2105 0.929 . S
C2114 C2106 1.378 . S
C2114 C2109 1.350 . S
C2115 H2102 0.929 . S
C2115 C2107 1.433 . S
C2115 N2117 1.384 . S
N2116 C2112 1.427 . S
N2116 C2113 1.384 . S
N2117 C2109 1.427 . S
N2117 C2115 1.384 . S
H2118 C2124 0.930 . S
H2119 C2128 0.930 . S
H2120 C2133 0.929 . S
H2121 C2131 0.929 . S
H2122 C2126 0.929 . S
H2123 C2132 0.929 . S
C2124 H2118 0.930 . S
C2124 C2125 1.367 . S
C2124 C2132 1.378 . S
C2125 C2124 1.367 . S
C2125 C2133 1.433 . S
C2126 H2122 0.929 . S
C2126 C2128 1.378 . S
C2126 C2130 1.350 . S
C2127 C2130 1.463 . S
C2127 C2132 1.350 . S
C2127 N2135 1.427 . S
C2128 H2119 0.930 . S
C2128 C2126 1.378 . S
C2128 C2129 1.367 . S
C2129 C2128 1.367 . S
C2129 C2131 1.433 . S
C2130 C2126 1.350 . S
C2130 C2127 1.463 . S
C2130 N2134 1.427 . S
C2131 H2121 0.929 . S
C2131 C2129 1.433 . S
C2131 N2134 1.384 . S
C2132 H2123 0.929 . S
C2132 C2124 1.378 . S
C2132 C2127 1.350 . S
C2133 H2120 0.929 . S
C2133 C2125 1.433 . S
C2133 N2135 1.384 . S
N2134 C2130 1.427 . S
N2134 C2131 1.384 . S
N2135 C2127 1.427 . S
N2135 C2133 1.384 . S
H2136 C2142 0.930 . S
H2137 C2146 0.930 . S
H2138 C2151 0.929 . S
H2139 C2149 0.929 . S
H2140 C2144 0.929 . S
H2141 C2150 0.929 . S
C2142 H2136 0.930 . S
C2142 C2143 1.367 . S
C2142 C2150 1.378 . S
C2143 C2142 1.367 . S
C2143 C2151 1.433 . S
C2144 H2140 0.929 . S
C2144 C2146 1.378 . S
C2144 C2148 1.350 . S
C2145 C2148 1.463 . S
C2145 C2150 1.350 . S
C2145 N2153 1.427 . S
C2146 H2137 0.930 . S
C2146 C2144 1.378 . S
C2146 C2147 1.367 . S
C2147 C2146 1.367 . S
C2147 C2149 1.433 . S
C2148 C2144 1.350 . S
C2148 C2145 1.463 . S
C2148 N2152 1.427 . S
C2149 H2139 0.929 . S
C2149 C2147 1.433 . S
C2149 N2152 1.384 . S
C2150 H2141 0.929 . S
C2150 C2142 1.378 . S
C2150 C2145 1.350 . S
C2151 H2138 0.929 . S
C2151 C2143 1.433 . S
C2151 N2153 1.384 . S
N2152 C2148 1.427 . S
N2152 C2149 1.384 . S
N2153 C2145 1.427 . S
N2153 C2151 1.384 . S
H2154 C2160 0.930 . S
H2155 C2164 0.930 . S
H2156 C2169 0.929 . S
H2157 C2167 0.929 . S
H2158 C2162 0.929 . S
H2159 C2168 0.929 . S
C2160 H2154 0.930 . S
C2160 C2161 1.367 . S
C2160 C2168 1.378 . S
C2161 C2160 1.367 . S
C2161 C2169 1.433 . S
C2162 H2158 0.929 . S
C2162 C2164 1.378 . S
C2162 C2166 1.350 . S
C2163 C2166 1.463 . S
C2163 C2168 1.350 . S
C2163 N2171 1.427 . S
C2164 H2155 0.930 . S
C2164 C2162 1.378 . S
C2164 C2165 1.367 . S
C2165 C2164 1.367 . S
C2165 C2167 1.433 . S
C2166 C2162 1.350 . S
C2166 C2163 1.463 . S
C2166 N2170 1.427 . S
C2167 H2157 0.929 . S
C2167 C2165 1.433 . S
C2167 N2170 1.384 . S
C2168 H2159 0.929 . S
C2168 C2160 1.378 . S
C2168 C2163 1.350 . S
C2169 H2156 0.929 . S
C2169 C2161 1.433 . S
C2169 N2171 1.384 . S
N2170 C2166 1.427 . S
N2170 C2167 1.384 . S
N2171 C2163 1.427 . S
N2171 C2169 1.384 . S
H2172 C2178 0.930 . S
H2173 C2182 0.930 . S
H2174 C2187 0.929 . S
H2175 C2185 0.929 . S
H2176 C2180 0.929 . S
H2177 C2186 0.929 . S
C2178 H2172 0.930 . S
C2178 C2179 1.367 . S
C2178 C2186 1.378 . S
C2179 C2178 1.367 . S
C2179 C2187 1.433 . S
C2180 H2176 0.929 . S
C2180 C2182 1.378 . S
C2180 C2184 1.350 . S
C2181 C2184 1.463 . S
C2181 C2186 1.350 . S
C2181 N2189 1.427 . S
C2182 H2173 0.930 . S
C2182 C2180 1.378 . S
C2182 C2183 1.367 . S
C2183 C2182 1.367 . S
C2183 C2185 1.433 . S
C2184 C2180 1.350 . S
C2184 C2181 1.463 . S
C2184 N2188 1.427 . S
C2185 H2175 0.929 . S
C2185 C2183 1.433 . S
C2185 N2188 1.384 . S
C2186 H2177 0.929 . S
C2186 C2178 1.378 . S
C2186 C2181 1.350 . S
C2187 H2174 0.929 . S
C2187 C2179 1.433 . S
C2187 N2189 1.384 . S
N2188 C2184 1.427 . S
N2188 C2185 1.384 . S
N2189 C2181 1.427 . S
N2189 C2187 1.384 . S
H2190 C2196 0.930 . S
H2191 C2200 0.930 . S
H2192 C2205 0.929 . S
H2193 C2203 0.929 . S
H2194 C2198 0.929 . S
H2195 C2204 0.929 . S
C2196 H2190 0.930 . S
C2196 C2197 1.367 . S
C2196 C2204 1.378 . S
C2197 C2196 1.367 . S
C2197 C2205 1.433 . S
C2198 H2194 0.929 . S
C2198 C2200 1.378 . S
C2198 C2202 1.350 . S
C2199 C2202 1.463 . S
C2199 C2204 1.350 . S
C2199 N2207 1.427 . S
C2200 H2191 0.930 . S
C2200 C2198 1.378 . S
C2200 C2201 1.367 . S
C2201 C2200 1.367 . S
C2201 C2203 1.433 . S
C2202 C2198 1.350 . S
C2202 C2199 1.463 . S
C2202 N2206 1.427 . S
C2203 H2193 0.929 . S
C2203 C2201 1.433 . S
C2203 N2206 1.384 . S
C2204 H2195 0.929 . S
C2204 C2196 1.378 . S
C2204 C2199 1.350 . S
C2205 H2192 0.929 . S
C2205 C2197 1.433 . S
C2205 N2207 1.384 . S
N2206 C2202 1.427 . S
N2206 C2203 1.384 . S
N2207 C2199 1.427 . S
N2207 C2205 1.384 . S
H2208 C2214 0.930 . S
H2209 C2218 0.930 . S
H2210 C2223 0.929 . S
H2211 C2221 0.929 . S
H2212 C2216 0.929 . S
H2213 C2222 0.929 . S
C2214 H2208 0.930 . S
C2214 C2215 1.367 . S
C2214 C2222 1.378 . S
C2215 C2214 1.367 . S
C2215 C2223 1.433 . S
C2216 H2212 0.929 . S
C2216 C2218 1.378 . S
C2216 C2220 1.350 . S
C2217 C2220 1.463 . S
C2217 C2222 1.350 . S
C2217 N2225 1.427 . S
C2218 H2209 0.930 . S
C2218 C2216 1.378 . S
C2218 C2219 1.367 . S
C2219 C2218 1.367 . S
C2219 C2221 1.433 . S
C2220 C2216 1.350 . S
C2220 C2217 1.463 . S
C2220 N2224 1.427 . S
C2221 H2211 0.929 . S
C2221 C2219 1.433 . S
C2221 N2224 1.384 . S
C2222 H2213 0.929 . S
C2222 C2214 1.378 . S
C2222 C2217 1.350 . S
C2223 H2210 0.929 . S
C2223 C2215 1.433 . S
C2223 N2225 1.384 . S
N2224 C2220 1.427 . S
N2224 C2221 1.384 . S
N2225 C2217 1.427 . S
N2225 C2223 1.384 . S
H2226 C2232 0.930 . S
H2227 C2236 0.930 . S
H2228 C2241 0.929 . S
H2229 C2239 0.929 . S
H2230 C2234 0.929 . S
H2231 C2240 0.929 . S
C2232 H2226 0.930 . S
C2232 C2233 1.367 . S
C2232 C2240 1.378 . S
C2233 C2232 1.367 . S
C2233 C2241 1.433 . S
C2234 H2230 0.929 . S
C2234 C2236 1.378 . S
C2234 C2238 1.350 . S
C2235 C2238 1.463 . S
C2235 C2240 1.350 . S
C2235 N2243 1.427 . S
C2236 H2227 0.930 . S
C2236 C2234 1.378 . S
C2236 C2237 1.367 . S
C2237 C2236 1.367 . S
C2237 C2239 1.433 . S
C2238 C2234 1.350 . S
C2238 C2235 1.463 . S
C2238 N2242 1.427 . S
C2239 H2229 0.929 . S
C2239 C2237 1.433 . S
C2239 N2242 1.384 . S
C2240 H2231 0.929 . S
C2240 C2232 1.378 . S
C2240 C2235 1.350 . S
C2241 H2228 0.929 . S
C2241 C2233 1.433 . S
C2241 N2243 1.384 . S
N2242 C2238 1.427 . S
N2242 C2239 1.384 . S
N2243 C2235 1.427 . S
N2243 C2241 1.384 . S
H2244 C2250 0.930 . S
H2245 C2254 0.930 . S
H2246 C2259 0.929 . S
H2247 C2257 0.929 . S
H2248 C2252 0.929 . S
H2249 C2258 0.929 . S
C2250 H2244 0.930 . S
C2250 C2251 1.367 . S
C2250 C2258 1.378 . S
C2251 C2250 1.367 . S
C2251 C2259 1.433 . S
C2252 H2248 0.929 . S
C2252 C2254 1.378 . S
C2252 C2256 1.350 . S
C2253 C2256 1.463 . S
C2253 C2258 1.350 . S
C2253 N2261 1.427 . S
C2254 H2245 0.930 . S
C2254 C2252 1.378 . S
C2254 C2255 1.367 . S
C2255 C2254 1.367 . S
C2255 C2257 1.433 . S
C2256 C2252 1.350 . S
C2256 C2253 1.463 . S
C2256 N2260 1.427 . S
C2257 H2247 0.929 . S
C2257 C2255 1.433 . S
C2257 N2260 1.384 . S
C2258 H2249 0.929 . S
C2258 C2250 1.378 . S
C2258 C2253 1.350 . S
C2259 H2246 0.929 . S
C2259 C2251 1.433 . S
C2259 N2261 1.384 . S
N2260 C2256 1.427 . S
N2260 C2257 1.384 . S
N2261 C2253 1.427 . S
N2261 C2259 1.384 . S
H2262 C2268 0.930 . S
H2263 C2272 0.930 . S
H2264 C2277 0.929 . S
H2265 C2275 0.929 . S
H2266 C2270 0.929 . S
H2267 C2276 0.929 . S
C2268 H2262 0.930 . S
C2268 C2269 1.367 . S
C2268 C2276 1.378 . S
C2269 C2268 1.367 . S
C2269 C2277 1.433 . S
C2270 H2266 0.929 . S
C2270 C2272 1.378 . S
C2270 C2274 1.350 . S
C2271 C2274 1.463 . S
C2271 C2276 1.350 . S
C2271 N2279 1.427 . S
C2272 H2263 0.930 . S
C2272 C2270 1.378 . S
C2272 C2273 1.367 . S
C2273 C2272 1.367 . S
C2273 C2275 1.433 . S
C2274 C2270 1.350 . S
C2274 C2271 1.463 . S
C2274 N2278 1.427 . S
C2275 H2265 0.929 . S
C2275 C2273 1.433 . S
C2275 N2278 1.384 . S
C2276 H2267 0.929 . S
C2276 C2268 1.378 . S
C2276 C2271 1.350 . S
C2277 H2264 0.929 . S
C2277 C2269 1.433 . S
C2277 N2279 1.384 . S
N2278 C2274 1.427 . S
N2278 C2275 1.384 . S
N2279 C2271 1.427 . S
N2279 C2277 1.384 . S
H2280 C2286 0.930 . S
H2281 C2290 0.930 . S
H2282 C2295 0.929 . S
H2283 C2293 0.929 . S
H2284 C2288 0.929 . S
H2285 C2294 0.929 . S
C2286 H2280 0.930 . S
C2286 C2287 1.367 . S
C2286 C2294 1.378 . S
C2287 C2286 1.367 . S
C2287 C2295 1.433 . S
C2288 H2284 0.929 . S
C2288 C2290 1.378 . S
C2288 C2292 1.350 . S
C2289 C2292 1.463 . S
C2289 C2294 1.350 . S
C2289 N2297 1.427 . S
C2290 H2281 0.930 . S
C2290 C2288 1.378 . S
C2290 C2291 1.367 . S
C2291 C2290 1.367 . S
C2291 C2293 1.433 . S
C2292 C2288 1.350 . S
C2292 C2289 1.463 . S
C2292 N2296 1.427 . S
C2293 H2283 0.929 . S
C2293 C2291 1.433 . S
C2293 N2296 1.384 . S
C2294 H2285 0.929 . S
C2294 C2286 1.378 . S
C2294 C2289 1.350 . S
C2295 H2282 0.929 . S
C2295 C2287 1.433 . S
C2295 N2297 1.384 . S
N2296 C2292 1.427 . S
N2296 C2293 1.384 . S
N2297 C2289 1.427 . S
N2297 C2295 1.384 . S
H2298 C2304 0.930 . S
H2299 C2308 0.930 . S
H2300 C2313 0.929 . S
H2301 C2311 0.929 . S
H2302 C2306 0.929 . S
H2303 C2312 0.929 . S
C2304 H2298 0.930 . S
C2304 C2305 1.367 . S
C2304 C2312 1.378 . S
C2305 C2304 1.367 . S
C2305 C2313 1.433 . S
C2306 H2302 0.929 . S
C2306 C2308 1.378 . S
C2306 C2310 1.350 . S
C2307 C2310 1.463 . S
C2307 C2312 1.350 . S
C2307 N2315 1.427 . S
C2308 H2299 0.930 . S
C2308 C2306 1.378 . S
C2308 C2309 1.367 . S
C2309 C2308 1.367 . S
C2309 C2311 1.433 . S
C2310 C2306 1.350 . S
C2310 C2307 1.463 . S
C2310 N2314 1.427 . S
C2311 H2301 0.929 . S
C2311 C2309 1.433 . S
C2311 N2314 1.384 . S
C2312 H2303 0.929 . S
C2312 C2304 1.378 . S
C2312 C2307 1.350 . S
C2313 H2300 0.929 . S
C2313 C2305 1.433 . S
C2313 N2315 1.384 . S
N2314 C2310 1.427 . S
N2314 C2311 1.384 . S
N2315 C2307 1.427 . S
N2315 C2313 1.384 . S
H2316 C2322 0.930 . S
H2317 C2326 0.930 . S
H2318 C2331 0.929 . S
H2319 C2329 0.929 . S
H2320 C2324 0.929 . S
H2321 C2330 0.929 . S
C2322 H2316 0.930 . S
C2322 C2323 1.367 . S
C2322 C2330 1.378 . S
C2323 C2322 1.367 . S
C2323 C2331 1.433 . S
C2324 H2320 0.929 . S
C2324 C2326 1.378 . S
C2324 C2328 1.350 . S
C2325 C2328 1.463 . S
C2325 C2330 1.350 . S
C2325 N2333 1.427 . S
C2326 H2317 0.930 . S
C2326 C2324 1.378 . S
C2326 C2327 1.367 . S
C2327 C2326 1.367 . S
C2327 C2329 1.433 . S
C2328 C2324 1.350 . S
C2328 C2325 1.463 . S
C2328 N2332 1.427 . S
C2329 H2319 0.929 . S
C2329 C2327 1.433 . S
C2329 N2332 1.384 . S
C2330 H2321 0.929 . S
C2330 C2322 1.378 . S
C2330 C2325 1.350 . S
C2331 H2318 0.929 . S
C2331 C2323 1.433 . S
C2331 N2333 1.384 . S
N2332 C2328 1.427 . S
N2332 C2329 1.384 . S
N2333 C2325 1.427 . S
N2333 C2331 1.384 . S
H2334 C2340 0.930 . S
H2335 C2344 0.930 . S
H2336 C2349 0.929 . S
H2337 C2347 0.929 . S
H2338 C2342 0.929 . S
H2339 C2348 0.929 . S
C2340 H2334 0.930 . S
C2340 C2341 1.367 . S
C2340 C2348 1.378 . S
C2341 C2340 1.367 . S
C2341 C2349 1.433 . S
C2342 H2338 0.929 . S
C2342 C2344 1.378 . S
C2342 C2346 1.350 . S
C2343 C2346 1.463 . S
C2343 C2348 1.350 . S
C2343 N2351 1.427 . S
C2344 H2335 0.930 . S
C2344 C2342 1.378 . S
C2344 C2345 1.367 . S
C2345 C2344 1.367 . S
C2345 C2347 1.433 . S
C2346 C2342 1.350 . S
C2346 C2343 1.463 . S
C2346 N2350 1.427 . S
C2347 H2337 0.929 . S
C2347 C2345 1.433 . S
C2347 N2350 1.384 . S
C2348 H2339 0.929 . S
C2348 C2340 1.378 . S
C2348 C2343 1.350 . S
C2349 H2336 0.929 . S
C2349 C2341 1.433 . S
C2349 N2351 1.384 . S
N2350 C2346 1.427 . S
N2350 C2347 1.384 . S
N2351 C2343 1.427 . S
N2351 C2349 1.384 . S
H2352 C2358 0.930 . S
H2353 C2362 0.930 . S
H2354 C2367 0.929 . S
H2355 C2365 0.929 . S
H2356 C2360 0.929 . S
H2357 C2366 0.929 . S
C2358 H2352 0.930 . S
C2358 C2359 1.367 . S
C2358 C2366 1.378 . S
C2359 C2358 1.367 . S
C2359 C2367 1.433 . S
C2360 H2356 0.929 . S
C2360 C2362 1.378 . S
C2360 C2364 1.350 . S
C2361 C2364 1.463 . S
C2361 C2366 1.350 . S
C2361 N2369 1.427 . S
C2362 H2353 0.930 . S
C2362 C2360 1.378 . S
C2362 C2363 1.367 . S
C2363 C2362 1.367 . S
C2363 C2365 1.433 . S
C2364 C2360 1.350 . S
C2364 C2361 1.463 . S
C2364 N2368 1.427 . S
C2365 H2355 0.929 . S
C2365 C2363 1.433 . S
C2365 N2368 1.384 . S
C2366 H2357 0.929 . S
C2366 C2358 1.378 . S
C2366 C2361 1.350 . S
C2367 H2354 0.929 . S
C2367 C2359 1.433 . S
C2367 N2369 1.384 . S
N2368 C2364 1.427 . S
N2368 C2365 1.384 . S
N2369 C2361 1.427 . S
N2369 C2367 1.384 . S
H2370 C2376 0.930 . S
H2371 C2380 0.930 . S
H2372 C2385 0.929 . S
H2373 C2383 0.929 . S
H2374 C2378 0.929 . S
H2375 C2384 0.929 . S
C2376 H2370 0.930 . S
C2376 C2377 1.367 . S
C2376 C2384 1.378 . S
C2377 C2376 1.367 . S
C2377 C2385 1.433 . S
C2378 H2374 0.929 . S
C2378 C2380 1.378 . S
C2378 C2382 1.350 . S
C2379 C2382 1.463 . S
C2379 C2384 1.350 . S
C2379 N2387 1.427 . S
C2380 H2371 0.930 . S
C2380 C2378 1.378 . S
C2380 C2381 1.367 . S
C2381 C2380 1.367 . S
C2381 C2383 1.433 . S
C2382 C2378 1.350 . S
C2382 C2379 1.463 . S
C2382 N2386 1.427 . S
C2383 H2373 0.929 . S
C2383 C2381 1.433 . S
C2383 N2386 1.384 . S
C2384 H2375 0.929 . S
C2384 C2376 1.378 . S
C2384 C2379 1.350 . S
C2385 H2372 0.929 . S
C2385 C2377 1.433 . S
C2385 N2387 1.384 . S
N2386 C2382 1.427 . S
N2386 C2383 1.384 . S
N2387 C2379 1.427 . S
N2387 C2385 1.384 . S
H2388 C2394 0.930 . S
H2389 C2398 0.930 . S
H2390 C2403 0.929 . S
H2391 C2401 0.929 . S
H2392 C2396 0.929 . S
H2393 C2402 0.929 . S
C2394 H2388 0.930 . S
C2394 C2395 1.367 . S
C2394 C2402 1.378 . S
C2395 C2394 1.367 . S
C2395 C2403 1.433 . S
C2396 H2392 0.929 . S
C2396 C2398 1.378 . S
C2396 C2400 1.350 . S
C2397 C2400 1.463 . S
C2397 C2402 1.350 . S
C2397 N2405 1.427 . S
C2398 H2389 0.930 . S
C2398 C2396 1.378 . S
C2398 C2399 1.367 . S
C2399 C2398 1.367 . S
C2399 C2401 1.433 . S
C2400 C2396 1.350 . S
C2400 C2397 1.463 . S
C2400 N2404 1.427 . S
C2401 H2391 0.929 . S
C2401 C2399 1.433 . S
C2401 N2404 1.384 . S
C2402 H2393 0.929 . S
C2402 C2394 1.378 . S
C2402 C2397 1.350 . S
C2403 H2390 0.929 . S
C2403 C2395 1.433 . S
C2403 N2405 1.384 . S
N2404 C2400 1.427 . S
N2404 C2401 1.384 . S
N2405 C2397 1.427 . S
N2405 C2403 1.384 . S
H2406 C2412 0.930 . S
H2407 C2416 0.930 . S
H2408 C2421 0.929 . S
H2409 C2419 0.929 . S
H2410 C2414 0.929 . S
H2411 C2420 0.929 . S
C2412 H2406 0.930 . S
C2412 C2413 1.367 . S
C2412 C2420 1.378 . S
C2413 C2412 1.367 . S
C2413 C2421 1.433 . S
C2414 H2410 0.929 . S
C2414 C2416 1.378 . S
C2414 C2418 1.350 . S
C2415 C2418 1.463 . S
C2415 C2420 1.350 . S
C2415 N2423 1.427 . S
C2416 H2407 0.930 . S
C2416 C2414 1.378 . S
C2416 C2417 1.367 . S
C2417 C2416 1.367 . S
C2417 C2419 1.433 . S
C2418 C2414 1.350 . S
C2418 C2415 1.463 . S
C2418 N2422 1.427 . S
C2419 H2409 0.929 . S
C2419 C2417 1.433 . S
C2419 N2422 1.384 . S
C2420 H2411 0.929 . S
C2420 C2412 1.378 . S
C2420 C2415 1.350 . S
C2421 H2408 0.929 . S
C2421 C2413 1.433 . S
C2421 N2423 1.384 . S
N2422 C2418 1.427 . S
N2422 C2419 1.384 . S
N2423 C2415 1.427 . S
N2423 C2421 1.384 . S
H2424 C2430 0.930 . S
H2425 C2434 0.930 . S
H2426 C2439 0.929 . S
H2427 C2437 0.929 . S
H2428 C2432 0.929 . S
H2429 C2438 0.929 . S
C2430 H2424 0.930 . S
C2430 C2431 1.367 . S
C2430 C2438 1.378 . S
C2431 C2430 1.367 . S
C2431 C2439 1.433 . S
C2432 H2428 0.929 . S
C2432 C2434 1.378 . S
C2432 C2436 1.350 . S
C2433 C2436 1.463 . S
C2433 C2438 1.350 . S
C2433 N2441 1.427 . S
C2434 H2425 0.930 . S
C2434 C2432 1.378 . S
C2434 C2435 1.367 . S
C2435 C2434 1.367 . S
C2435 C2437 1.433 . S
C2436 C2432 1.350 . S
C2436 C2433 1.463 . S
C2436 N2440 1.427 . S
C2437 H2427 0.929 . S
C2437 C2435 1.433 . S
C2437 N2440 1.384 . S
C2438 H2429 0.929 . S
C2438 C2430 1.378 . S
C2438 C2433 1.350 . S
C2439 H2426 0.929 . S
C2439 C2431 1.433 . S
C2439 N2441 1.384 . S
N2440 C2436 1.427 . S
N2440 C2437 1.384 . S
N2441 C2433 1.427 . S
N2441 C2439 1.384 . S
H2442 C2448 0.930 . S
H2443 C2452 0.930 . S
H2444 C2457 0.929 . S
H2445 C2455 0.929 . S
H2446 C2450 0.929 . S
H2447 C2456 0.929 . S
C2448 H2442 0.930 . S
C2448 C2449 1.367 . S
C2448 C2456 1.378 . S
C2449 C2448 1.367 . S
C2449 C2457 1.433 . S
C2450 H2446 0.929 . S
C2450 C2452 1.378 . S
C2450 C2454 1.350 . S
C2451 C2454 1.463 . S
C2451 C2456 1.350 . S
C2451 N2459 1.427 . S
C2452 H2443 0.930 . S
C2452 C2450 1.378 . S
C2452 C2453 1.367 . S
C2453 C2452 1.367 . S
C2453 C2455 1.433 . S
C2454 C2450 1.350 . S
C2454 C2451 1.463 . S
C2454 N2458 1.427 . S
C2455 H2445 0.929 . S
C2455 C2453 1.433 . S
C2455 N2458 1.384 . S
C2456 H2447 0.929 . S
C2456 C2448 1.378 . S
C2456 C2451 1.350 . S
C2457 H2444 0.929 . S
C2457 C2449 1.433 . S
C2457 N2459 1.384 . S
N2458 C2454 1.427 . S
N2458 C2455 1.384 . S
N2459 C2451 1.427 . S
N2459 C2457 1.384 . S
H2460 C2466 0.930 . S
H2461 C2470 0.930 . S
H2462 C2475 0.929 . S
H2463 C2473 0.929 . S
H2464 C2468 0.929 . S
H2465 C2474 0.929 . S
C2466 H2460 0.930 . S
C2466 C2467 1.367 . S
C2466 C2474 1.378 . S
C2467 C2466 1.367 . S
C2467 C2475 1.433 . S
C2468 H2464 0.929 . S
C2468 C2470 1.378 . S
C2468 C2472 1.350 . S
C2469 C2472 1.463 . S
C2469 C2474 1.350 . S
C2469 N2477 1.427 . S
C2470 H2461 0.930 . S
C2470 C2468 1.378 . S
C2470 C2471 1.367 . S
C2471 C2470 1.367 . S
C2471 C2473 1.433 . S
C2472 C2468 1.350 . S
C2472 C2469 1.463 . S
C2472 N2476 1.427 . S
C2473 H2463 0.929 . S
C2473 C2471 1.433 . S
C2473 N2476 1.384 . S
C2474 H2465 0.929 . S
C2474 C2466 1.378 . S
C2474 C2469 1.350 . S
C2475 H2462 0.929 . S
C2475 C2467 1.433 . S
C2475 N2477 1.384 . S
N2476 C2472 1.427 . S
N2476 C2473 1.384 . S
N2477 C2469 1.427 . S
N2477 C2475 1.384 . S
H2478 C2484 0.930 . S
H2479 C2488 0.930 . S
H2480 C2493 0.929 . S
H2481 C2491 0.929 . S
H2482 C2486 0.929 . S
H2483 C2492 0.929 . S
C2484 H2478 0.930 . S
C2484 C2485 1.367 . S
C2484 C2492 1.378 . S
C2485 C2484 1.367 . S
C2485 C2493 1.433 . S
C2486 H2482 0.929 . S
C2486 C2488 1.378 . S
C2486 C2490 1.350 . S
C2487 C2490 1.463 . S
C2487 C2492 1.350 . S
C2487 N2495 1.427 . S
C2488 H2479 0.930 . S
C2488 C2486 1.378 . S
C2488 C2489 1.367 . S
C2489 C2488 1.367 . S
C2489 C2491 1.433 . S
C2490 C2486 1.350 . S
C2490 C2487 1.463 . S
C2490 N2494 1.427 . S
C2491 H2481 0.929 . S
C2491 C2489 1.433 . S
C2491 N2494 1.384 . S
C2492 H2483 0.929 . S
C2492 C2484 1.378 . S
C2492 C2487 1.350 . S
C2493 H2480 0.929 . S
C2493 C2485 1.433 . S
C2493 N2495 1.384 . S
N2494 C2490 1.427 . S
N2494 C2491 1.384 . S
N2495 C2487 1.427 . S
N2495 C2493 1.384 . S
H2496 C2502 0.930 . S
H2497 C2506 0.930 . S
H2498 C2511 0.929 . S
H2499 C2509 0.929 . S
H2500 C2504 0.929 . S
H2501 C2510 0.929 . S
C2502 H2496 0.930 . S
C2502 C2503 1.367 . S
C2502 C2510 1.378 . S
C2503 C2502 1.367 . S
C2503 C2511 1.433 . S
C2504 H2500 0.929 . S
C2504 C2506 1.378 . S
C2504 C2508 1.350 . S
C2505 C2508 1.463 . S
C2505 C2510 1.350 . S
C2505 N2513 1.427 . S
C2506 H2497 0.930 . S
C2506 C2504 1.378 . S
C2506 C2507 1.367 . S
C2507 C2506 1.367 . S
C2507 C2509 1.433 . S
C2508 C2504 1.350 . S
C2508 C2505 1.463 . S
C2508 N2512 1.427 . S
C2509 H2499 0.929 . S
C2509 C2507 1.433 . S
C2509 N2512 1.384 . S
C2510 H2501 0.929 . S
C2510 C2502 1.378 . S
C2510 C2505 1.350 . S
C2511 H2498 0.929 . S
C2511 C2503 1.433 . S
C2511 N2513 1.384 . S
N2512 C2508 1.427 . S
N2512 C2509 1.384 . S
N2513 C2505 1.427 . S
N2513 C2511 1.384 . S
H2514 C2520 0.930 . S
H2515 C2524 0.930 . S
H2516 C2529 0.929 . S
H2517 C2527 0.929 . S
H2518 C2522 0.929 . S
H2519 C2528 0.929 . S
C2520 H2514 0.930 . S
C2520 C2521 1.367 . S
C2520 C2528 1.378 . S
C2521 C2520 1.367 . S
C2521 C2529 1.433 . S
C2522 H2518 0.929 . S
C2522 C2524 1.378 . S
C2522 C2526 1.350 . S
C2523 C2526 1.463 . S
C2523 C2528 1.350 . S
C2523 N2531 1.427 . S
C2524 H2515 0.930 . S
C2524 C2522 1.378 . S
C2524 C2525 1.367 . S
C2525 C2524 1.367 . S
C2525 C2527 1.433 . S
C2526 C2522 1.350 . S
C2526 C2523 1.463 . S
C2526 N2530 1.427 . S
C2527 H2517 0.929 . S
C2527 C2525 1.433 . S
C2527 N2530 1.384 . S
C2528 H2519 0.929 . S
C2528 C2520 1.378 . S
C2528 C2523 1.350 . S
C2529 H2516 0.929 . S
C2529 C2521 1.433 . S
C2529 N2531 1.384 . S
N2530 C2526 1.427 . S
N2530 C2527 1.384 . S
N2531 C2523 1.427 . S
N2531 C2529 1.384 . S
H2532 C2538 0.930 . S
H2533 C2542 0.930 . S
H2534 C2547 0.929 . S
H2535 C2545 0.929 . S
H2536 C2540 0.929 . S
H2537 C2546 0.929 . S
C2538 H2532 0.930 . S
C2538 C2539 1.367 . S
C2538 C2546 1.378 . S
C2539 C2538 1.367 . S
C2539 C2547 1.433 . S
C2540 H2536 0.929 . S
C2540 C2542 1.378 . S
C2540 C2544 1.350 . S
C2541 C2544 1.463 . S
C2541 C2546 1.350 . S
C2541 N2549 1.427 . S
C2542 H2533 0.930 . S
C2542 C2540 1.378 . S
C2542 C2543 1.367 . S
C2543 C2542 1.367 . S
C2543 C2545 1.433 . S
C2544 C2540 1.350 . S
C2544 C2541 1.463 . S
C2544 N2548 1.427 . S
C2545 H2535 0.929 . S
C2545 C2543 1.433 . S
C2545 N2548 1.384 . S
C2546 H2537 0.929 . S
C2546 C2538 1.378 . S
C2546 C2541 1.350 . S
C2547 H2534 0.929 . S
C2547 C2539 1.433 . S
C2547 N2549 1.384 . S
N2548 C2544 1.427 . S
N2548 C2545 1.384 . S
N2549 C2541 1.427 . S
N2549 C2547 1.384 . S
H2550 C2556 0.930 . S
H2551 C2560 0.930 . S
H2552 C2565 0.929 . S
H2553 C2563 0.929 . S
H2554 C2558 0.929 . S
H2555 C2564 0.929 . S
C2556 H2550 0.930 . S
C2556 C2557 1.367 . S
C2556 C2564 1.378 . S
C2557 C2556 1.367 . S
C2557 C2565 1.433 . S
C2558 H2554 0.929 . S
C2558 C2560 1.378 . S
C2558 C2562 1.350 . S
C2559 C2562 1.463 . S
C2559 C2564 1.350 . S
C2559 N2567 1.427 . S
C2560 H2551 0.930 . S
C2560 C2558 1.378 . S
C2560 C2561 1.367 . S
C2561 C2560 1.367 . S
C2561 C2563 1.433 . S
C2562 C2558 1.350 . S
C2562 C2559 1.463 . S
C2562 N2566 1.427 . S
C2563 H2553 0.929 . S
C2563 C2561 1.433 . S
C2563 N2566 1.384 . S
C2564 H2555 0.929 . S
C2564 C2556 1.378 . S
C2564 C2559 1.350 . S
C2565 H2552 0.929 . S
C2565 C2557 1.433 . S
C2565 N2567 1.384 . S
N2566 C2562 1.427 . S
N2566 C2563 1.384 . S
N2567 C2559 1.427 . S
N2567 C2565 1.384 . S
H2568 C2574 0.930 . S
H2569 C2578 0.930 . S
H2570 C2583 0.929 . S
H2571 C2581 0.929 . S
H2572 C2576 0.929 . S
H2573 C2582 0.929 . S
C2574 H2568 0.930 . S
C2574 C2575 1.367 . S
C2574 C2582 1.378 . S
C2575 C2574 1.367 . S
C2575 C2583 1.433 . S
C2576 H2572 0.929 . S
C2576 C2578 1.378 . S
C2576 C2580 1.350 . S
C2577 C2580 1.463 . S
C2577 C2582 1.350 . S
C2577 N2585 1.427 . S
C2578 H2569 0.930 . S
C2578 C2576 1.378 . S
C2578 C2579 1.367 . S
C2579 C2578 1.367 . S
C2579 C2581 1.433 . S
C2580 C2576 1.350 . S
C2580 C2577 1.463 . S
C2580 N2584 1.427 . S
C2581 H2571 0.929 . S
C2581 C2579 1.433 . S
C2581 N2584 1.384 . S
C2582 H2573 0.929 . S
C2582 C2574 1.378 . S
C2582 C2577 1.350 . S
C2583 H2570 0.929 . S
C2583 C2575 1.433 . S
C2583 N2585 1.384 . S
N2584 C2580 1.427 . S
N2584 C2581 1.384 . S
N2585 C2577 1.427 . S
N2585 C2583 1.384 . S
H2586 C2592 0.930 . S
H2587 C2596 0.930 . S
H2588 C2601 0.929 . S
H2589 C2599 0.929 . S
H2590 C2594 0.929 . S
H2591 C2600 0.929 . S
C2592 H2586 0.930 . S
C2592 C2593 1.367 . S
C2592 C2600 1.378 . S
C2593 C2592 1.367 . S
C2593 C2601 1.433 . S
C2594 H2590 0.929 . S
C2594 C2596 1.378 . S
C2594 C2598 1.350 . S
C2595 C2598 1.463 . S
C2595 C2600 1.350 . S
C2595 N2603 1.427 . S
C2596 H2587 0.930 . S
C2596 C2594 1.378 . S
C2596 C2597 1.367 . S
C2597 C2596 1.367 . S
C2597 C2599 1.433 . S
C2598 C2594 1.350 . S
C2598 C2595 1.463 . S
C2598 N2602 1.427 . S
C2599 H2589 0.929 . S
C2599 C2597 1.433 . S
C2599 N2602 1.384 . S
C2600 H2591 0.929 . S
C2600 C2592 1.378 . S
C2600 C2595 1.350 . S
C2601 H2588 0.929 . S
C2601 C2593 1.433 . S
C2601 N2603 1.384 . S
N2602 C2598 1.427 . S
N2602 C2599 1.384 . S
N2603 C2595 1.427 . S
N2603 C2601 1.384 . S
H2604 C2610 0.930 . S
H2605 C2614 0.930 . S
H2606 C2619 0.929 . S
H2607 C2617 0.929 . S
H2608 C2612 0.929 . S
H2609 C2618 0.929 . S
C2610 H2604 0.930 . S
C2610 C2611 1.367 . S
C2610 C2618 1.378 . S
C2611 C2610 1.367 . S
C2611 C2619 1.433 . S
C2612 H2608 0.929 . S
C2612 C2614 1.378 . S
C2612 C2616 1.350 . S
C2613 C2616 1.463 . S
C2613 C2618 1.350 . S
C2613 N2621 1.427 . S
C2614 H2605 0.930 . S
C2614 C2612 1.378 . S
C2614 C2615 1.367 . S
C2615 C2614 1.367 . S
C2615 C2617 1.433 . S
C2616 C2612 1.350 . S
C2616 C2613 1.463 . S
C2616 N2620 1.427 . S
C2617 H2607 0.929 . S
C2617 C2615 1.433 . S
C2617 N2620 1.384 . S
C2618 H2609 0.929 . S
C2618 C2610 1.378 . S
C2618 C2613 1.350 . S
C2619 H2606 0.929 . S
C2619 C2611 1.433 . S
C2619 N2621 1.384 . S
N2620 C2616 1.427 . S
N2620 C2617 1.384 . S
N2621 C2613 1.427 . S
N2621 C2619 1.384 . S
H2622 C2628 0.930 . S
H2623 C2632 0.930 . S
H2624 C2637 0.929 . S
H2625 C2635 0.929 . S
H2626 C2630 0.929 . S
H2627 C2636 0.929 . S
C2628 H2622 0.930 . S
C2628 C2629 1.367 . S
C2628 C2636 1.378 . S
C2629 C2628 1.367 . S
C2629 C2637 1.433 . S
C2630 H2626 0.929 . S
C2630 C2632 1.378 . S
C2630 C2634 1.350 . S
C2631 C2634 1.463 . S
C2631 C2636 1.350 . S
C2631 N2639 1.427 . S
C2632 H2623 0.930 . S
C2632 C2630 1.378 . S
C2632 C2633 1.367 . S
C2633 C2632 1.367 . S
C2633 C2635 1.433 . S
C2634 C2630 1.350 . S
C2634 C2631 1.463 . S
C2634 N2638 1.427 . S
C2635 H2625 0.929 . S
C2635 C2633 1.433 . S
C2635 N2638 1.384 . S
C2636 H2627 0.929 . S
C2636 C2628 1.378 . S
C2636 C2631 1.350 . S
C2637 H2624 0.929 . S
C2637 C2629 1.433 . S
C2637 N2639 1.384 . S
N2638 C2634 1.427 . S
N2638 C2635 1.384 . S
N2639 C2631 1.427 . S
N2639 C2637 1.384 . S
H2640 C2646 0.930 . S
H2641 C2650 0.930 . S
H2642 C2655 0.929 . S
H2643 C2653 0.929 . S
H2644 C2648 0.929 . S
H2645 C2654 0.929 . S
C2646 H2640 0.930 . S
C2646 C2647 1.367 . S
C2646 C2654 1.378 . S
C2647 C2646 1.367 . S
C2647 C2655 1.433 . S
C2648 H2644 0.929 . S
C2648 C2650 1.378 . S
C2648 C2652 1.350 . S
C2649 C2652 1.463 . S
C2649 C2654 1.350 . S
C2649 N2657 1.427 . S
C2650 H2641 0.930 . S
C2650 C2648 1.378 . S
C2650 C2651 1.367 . S
C2651 C2650 1.367 . S
C2651 C2653 1.433 . S
C2652 C2648 1.350 . S
C2652 C2649 1.463 . S
C2652 N2656 1.427 . S
C2653 H2643 0.929 . S
C2653 C2651 1.433 . S
C2653 N2656 1.384 . S
C2654 H2645 0.929 . S
C2654 C2646 1.378 . S
C2654 C2649 1.350 . S
C2655 H2642 0.929 . S
C2655 C2647 1.433 . S
C2655 N2657 1.384 . S
N2656 C2652 1.427 . S
N2656 C2653 1.384 . S
N2657 C2649 1.427 . S
N2657 C2655 1.384 . S
H2658 C2664 0.930 . S
H2659 C2668 0.930 . S
H2660 C2673 0.929 . S
H2661 C2671 0.929 . S
H2662 C2666 0.929 . S
H2663 C2672 0.929 . S
C2664 H2658 0.930 . S
C2664 C2665 1.367 . S
C2664 C2672 1.378 . S
C2665 C2664 1.367 . S
C2665 C2673 1.433 . S
C2666 H2662 0.929 . S
C2666 C2668 1.378 . S
C2666 C2670 1.350 . S
C2667 C2670 1.463 . S
C2667 C2672 1.350 . S
C2667 N2675 1.427 . S
C2668 H2659 0.930 . S
C2668 C2666 1.378 . S
C2668 C2669 1.367 . S
C2669 C2668 1.367 . S
C2669 C2671 1.433 . S
C2670 C2666 1.350 . S
C2670 C2667 1.463 . S
C2670 N2674 1.427 . S
C2671 H2661 0.929 . S
C2671 C2669 1.433 . S
C2671 N2674 1.384 . S
C2672 H2663 0.929 . S
C2672 C2664 1.378 . S
C2672 C2667 1.350 . S
C2673 H2660 0.929 . S
C2673 C2665 1.433 . S
C2673 N2675 1.384 . S
N2674 C2670 1.427 . S
N2674 C2671 1.384 . S
N2675 C2667 1.427 . S
N2675 C2673 1.384 . S
H2676 C2682 0.930 . S
H2677 C2686 0.930 . S
H2678 C2691 0.929 . S
H2679 C2689 0.929 . S
H2680 C2684 0.929 . S
H2681 C2690 0.929 . S
C2682 H2676 0.930 . S
C2682 C2683 1.367 . S
C2682 C2690 1.378 . S
C2683 C2682 1.367 . S
C2683 C2691 1.433 . S
C2684 H2680 0.929 . S
C2684 C2686 1.378 . S
C2684 C2688 1.350 . S
C2685 C2688 1.463 . S
C2685 C2690 1.350 . S
C2685 N2693 1.427 . S
C2686 H2677 0.930 . S
C2686 C2684 1.378 . S
C2686 C2687 1.367 . S
C2687 C2686 1.367 . S
C2687 C2689 1.433 . S
C2688 C2684 1.350 . S
C2688 C2685 1.463 . S
C2688 N2692 1.427 . S
C2689 H2679 0.929 . S
C2689 C2687 1.433 . S
C2689 N2692 1.384 . S
C2690 H2681 0.929 . S
C2690 C2682 1.378 . S
C2690 C2685 1.350 . S
C2691 H2678 0.929 . S
C2691 C2683 1.433 . S
C2691 N2693 1.384 . S
N2692 C2688 1.427 . S
N2692 C2689 1.384 . S
N2693 C2685 1.427 . S
N2693 C2691 1.384 . S
H2694 C2700 0.930 . S
H2695 C2704 0.930 . S
H2696 C2709 0.929 . S
H2697 C2707 0.929 . S
H2698 C2702 0.929 . S
H2699 C2708 0.929 . S
C2700 H2694 0.930 . S
C2700 C2701 1.367 . S
C2700 C2708 1.378 . S
C2701 C2700 1.367 . S
C2701 C2709 1.433 . S
C2702 H2698 0.929 . S
C2702 C2704 1.378 . S
C2702 C2706 1.350 . S
C2703 C2706 1.463 . S
C2703 C2708 1.350 . S
C2703 N2711 1.427 . S
C2704 H2695 0.930 . S
C2704 C2702 1.378 . S
C2704 C2705 1.367 . S
C2705 C2704 1.367 . S
C2705 C2707 1.433 . S
C2706 C2702 1.350 . S
C2706 C2703 1.463 . S
C2706 N2710 1.427 . S
C2707 H2697 0.929 . S
C2707 C2705 1.433 . S
C2707 N2710 1.384 . S
C2708 H2699 0.929 . S
C2708 C2700 1.378 . S
C2708 C2703 1.350 . S
C2709 H2696 0.929 . S
C2709 C2701 1.433 . S
C2709 N2711 1.384 . S
N2710 C2706 1.427 . S
N2710 C2707 1.384 . S
N2711 C2703 1.427 . S
N2711 C2709 1.384 . S
H2712 C2718 0.930 . S
H2713 C2722 0.930 . S
H2714 C2727 0.929 . S
H2715 C2725 0.929 . S
H2716 C2720 0.929 . S
H2717 C2726 0.929 . S
C2718 H2712 0.930 . S
C2718 C2719 1.367 . S
C2718 C2726 1.378 . S
C2719 C2718 1.367 . S
C2719 C2727 1.433 . S
C2720 H2716 0.929 . S
C2720 C2722 1.378 . S
C2720 C2724 1.350 . S
C2721 C2724 1.463 . S
C2721 C2726 1.350 . S
C2721 N2729 1.427 . S
C2722 H2713 0.930 . S
C2722 C2720 1.378 . S
C2722 C2723 1.367 . S
C2723 C2722 1.367 . S
C2723 C2725 1.433 . S
C2724 C2720 1.350 . S
C2724 C2721 1.463 . S
C2724 N2728 1.427 . S
C2725 H2715 0.929 . S
C2725 C2723 1.433 . S
C2725 N2728 1.384 . S
C2726 H2717 0.929 . S
C2726 C2718 1.378 . S
C2726 C2721 1.350 . S
C2727 H2714 0.929 . S
C2727 C2719 1.433 . S
C2727 N2729 1.384 . S
N2728 C2724 1.427 . S
N2728 C2725 1.384 . S
N2729 C2721 1.427 . S
N2729 C2727 1.384 . S
H2730 C2736 0.930 . S
H2731 C2740 0.930 . S
H2732 C2745 0.929 . S
H2733 C2743 0.929 . S
H2734 C2738 0.929 . S
H2735 C2744 0.929 . S
C2736 H2730 0.930 . S
C2736 C2737 1.367 . S
C2736 C2744 1.378 . S
C2737 C2736 1.367 . S
C2737 C2745 1.433 . S
C2738 H2734 0.929 . S
C2738 C2740 1.378 . S
C2738 C2742 1.350 . S
C2739 C2742 1.463 . S
C2739 C2744 1.350 . S
C2739 N2747 1.427 . S
C2740 H2731 0.930 . S
C2740 C2738 1.378 . S
C2740 C2741 1.367 . S
C2741 C2740 1.367 . S
C2741 C2743 1.433 . S
C2742 C2738 1.350 . S
C2742 C2739 1.463 . S
C2742 N2746 1.427 . S
C2743 H2733 0.929 . S
C2743 C2741 1.433 . S
C2743 N2746 1.384 . S
C2744 H2735 0.929 . S
C2744 C2736 1.378 . S
C2744 C2739 1.350 . S
C2745 H2732 0.929 . S
C2745 C2737 1.433 . S
C2745 N2747 1.384 . S
N2746 C2742 1.427 . S
N2746 C2743 1.384 . S
N2747 C2739 1.427 . S
N2747 C2745 1.384 . S
H2748 C2754 0.930 . S
H2749 C2758 0.930 . S
H2750 C2763 0.929 . S
H2751 C2761 0.929 . S
H2752 C2756 0.929 . S
H2753 C2762 0.929 . S
C2754 H2748 0.930 . S
C2754 C2755 1.367 . S
C2754 C2762 1.378 . S
C2755 C2754 1.367 . S
C2755 C2763 1.433 . S
C2756 H2752 0.929 . S
C2756 C2758 1.378 . S
C2756 C2760 1.350 . S
C2757 C2760 1.463 . S
C2757 C2762 1.350 . S
C2757 N2765 1.427 . S
C2758 H2749 0.930 . S
C2758 C2756 1.378 . S
C2758 C2759 1.367 . S
C2759 C2758 1.367 . S
C2759 C2761 1.433 . S
C2760 C2756 1.350 . S
C2760 C2757 1.463 . S
C2760 N2764 1.427 . S
C2761 H2751 0.929 . S
C2761 C2759 1.433 . S
C2761 N2764 1.384 . S
C2762 H2753 0.929 . S
C2762 C2754 1.378 . S
C2762 C2757 1.350 . S
C2763 H2750 0.929 . S
C2763 C2755 1.433 . S
C2763 N2765 1.384 . S
N2764 C2760 1.427 . S
N2764 C2761 1.384 . S
N2765 C2757 1.427 . S
N2765 C2763 1.384 . S
H2766 C2772 0.930 . S
H2767 C2776 0.930 . S
H2768 C2781 0.929 . S
H2769 C2779 0.929 . S
H2770 C2774 0.929 . S
H2771 C2780 0.929 . S
C2772 H2766 0.930 . S
C2772 C2773 1.367 . S
C2772 C2780 1.378 . S
C2773 C2772 1.367 . S
C2773 C2781 1.433 . S
C2774 H2770 0.929 . S
C2774 C2776 1.378 . S
C2774 C2778 1.350 . S
C2775 C2778 1.463 . S
C2775 C2780 1.350 . S
C2775 N2783 1.427 . S
C2776 H2767 0.930 . S
C2776 C2774 1.378 . S
C2776 C2777 1.367 . S
C2777 C2776 1.367 . S
C2777 C2779 1.433 . S
C2778 C2774 1.350 . S
C2778 C2775 1.463 . S
C2778 N2782 1.427 . S
C2779 H2769 0.929 . S
C2779 C2777 1.433 . S
C2779 N2782 1.384 . S
C2780 H2771 0.929 . S
C2780 C2772 1.378 . S
C2780 C2775 1.350 . S
C2781 H2768 0.929 . S
C2781 C2773 1.433 . S
C2781 N2783 1.384 . S
N2782 C2778 1.427 . S
N2782 C2779 1.384 . S
N2783 C2775 1.427 . S
N2783 C2781 1.384 . S
H2784 C2790 0.930 . S
H2785 C2794 0.930 . S
H2786 C2799 0.929 . S
H2787 C2797 0.929 . S
H2788 C2792 0.929 . S
H2789 C2798 0.929 . S
C2790 H2784 0.930 . S
C2790 C2791 1.367 . S
C2790 C2798 1.378 . S
C2791 C2790 1.367 . S
C2791 C2799 1.433 . S
C2792 H2788 0.929 . S
C2792 C2794 1.378 . S
C2792 C2796 1.350 . S
C2793 C2796 1.463 . S
C2793 C2798 1.350 . S
C2793 N2801 1.427 . S
C2794 H2785 0.930 . S
C2794 C2792 1.378 . S
C2794 C2795 1.367 . S
C2795 C2794 1.367 . S
C2795 C2797 1.433 . S
C2796 C2792 1.350 . S
C2796 C2793 1.463 . S
C2796 N2800 1.427 . S
C2797 H2787 0.929 . S
C2797 C2795 1.433 . S
C2797 N2800 1.384 . S
C2798 H2789 0.929 . S
C2798 C2790 1.378 . S
C2798 C2793 1.350 . S
C2799 H2786 0.929 . S
C2799 C2791 1.433 . S
C2799 N2801 1.384 . S
N2800 C2796 1.427 . S
N2800 C2797 1.384 . S
N2801 C2793 1.427 . S
N2801 C2799 1.384 . S
H2802 C2808 0.930 . S
H2803 C2812 0.930 . S
H2804 C2817 0.929 . S
H2805 C2815 0.929 . S
H2806 C2810 0.929 . S
H2807 C2816 0.929 . S
C2808 H2802 0.930 . S
C2808 C2809 1.367 . S
C2808 C2816 1.378 . S
C2809 C2808 1.367 . S
C2809 C2817 1.433 . S
C2810 H2806 0.929 . S
C2810 C2812 1.378 . S
C2810 C2814 1.350 . S
C2811 C2814 1.463 . S
C2811 C2816 1.350 . S
C2811 N2819 1.427 . S
C2812 H2803 0.930 . S
C2812 C2810 1.378 . S
C2812 C2813 1.367 . S
C2813 C2812 1.367 . S
C2813 C2815 1.433 . S
C2814 C2810 1.350 . S
C2814 C2811 1.463 . S
C2814 N2818 1.427 . S
C2815 H2805 0.929 . S
C2815 C2813 1.433 . S
C2815 N2818 1.384 . S
C2816 H2807 0.929 . S
C2816 C2808 1.378 . S
C2816 C2811 1.350 . S
C2817 H2804 0.929 . S
C2817 C2809 1.433 . S
C2817 N2819 1.384 . S
N2818 C2814 1.427 . S
N2818 C2815 1.384 . S
N2819 C2811 1.427 . S
N2819 C2817 1.384 . S
H2820 C2826 0.930 . S
H2821 C2830 0.930 . S
H2822 C2835 0.929 . S
H2823 C2833 0.929 . S
H2824 C2828 0.929 . S
H2825 C2834 0.929 . S
C2826 H2820 0.930 . S
C2826 C2827 1.367 . S
C2826 C2834 1.378 . S
C2827 C2826 1.367 . S
C2827 C2835 1.433 . S
C2828 H2824 0.929 . S
C2828 C2830 1.378 . S
C2828 C2832 1.350 . S
C2829 C2832 1.463 . S
C2829 C2834 1.350 . S
C2829 N2837 1.427 . S
C2830 H2821 0.930 . S
C2830 C2828 1.378 . S
C2830 C2831 1.367 . S
C2831 C2830 1.367 . S
C2831 C2833 1.433 . S
C2832 C2828 1.350 . S
C2832 C2829 1.463 . S
C2832 N2836 1.427 . S
C2833 H2823 0.929 . S
C2833 C2831 1.433 . S
C2833 N2836 1.384 . S
C2834 H2825 0.929 . S
C2834 C2826 1.378 . S
C2834 C2829 1.350 . S
C2835 H2822 0.929 . S
C2835 C2827 1.433 . S
C2835 N2837 1.384 . S
N2836 C2832 1.427 . S
N2836 C2833 1.384 . S
N2837 C2829 1.427 . S
N2837 C2835 1.384 . S
H2838 C2844 0.930 . S
H2839 C2848 0.930 . S
H2840 C2853 0.929 . S
H2841 C2851 0.929 . S
H2842 C2846 0.929 . S
H2843 C2852 0.929 . S
C2844 H2838 0.930 . S
C2844 C2845 1.367 . S
C2844 C2852 1.378 . S
C2845 C2844 1.367 . S
C2845 C2853 1.433 . S
C2846 H2842 0.929 . S
C2846 C2848 1.378 . S
C2846 C2850 1.350 . S
C2847 C2850 1.463 . S
C2847 C2852 1.350 . S
C2847 N2855 1.427 . S
C2848 H2839 0.930 . S
C2848 C2846 1.378 . S
C2848 C2849 1.367 . S
C2849 C2848 1.367 . S
C2849 C2851 1.433 . S
C2850 C2846 1.350 . S
C2850 C2847 1.463 . S
C2850 N2854 1.427 . S
C2851 H2841 0.929 . S
C2851 C2849 1.433 . S
C2851 N2854 1.384 . S
C2852 H2843 0.929 . S
C2852 C2844 1.378 . S
C2852 C2847 1.350 . S
C2853 H2840 0.929 . S
C2853 C2845 1.433 . S
C2853 N2855 1.384 . S
N2854 C2850 1.427 . S
N2854 C2851 1.384 . S
N2855 C2847 1.427 . S
N2855 C2853 1.384 . S
H2856 C2862 0.930 . S
H2857 C2866 0.930 . S
H2858 C2871 0.929 . S
H2859 C2869 0.929 . S
H2860 C2864 0.929 . S
H2861 C2870 0.929 . S
C2862 H2856 0.930 . S
C2862 C2863 1.367 . S
C2862 C2870 1.378 . S
C2863 C2862 1.367 . S
C2863 C2871 1.433 . S
C2864 H2860 0.929 . S
C2864 C2866 1.378 . S
C2864 C2868 1.350 . S
C2865 C2868 1.463 . S
C2865 C2870 1.350 . S
C2865 N2873 1.427 . S
C2866 H2857 0.930 . S
C2866 C2864 1.378 . S
C2866 C2867 1.367 . S
C2867 C2866 1.367 . S
C2867 C2869 1.433 . S
C2868 C2864 1.350 . S
C2868 C2865 1.463 . S
C2868 N2872 1.427 . S
C2869 H2859 0.929 . S
C2869 C2867 1.433 . S
C2869 N2872 1.384 . S
C2870 H2861 0.929 . S
C2870 C2862 1.378 . S
C2870 C2865 1.350 . S
C2871 H2858 0.929 . S
C2871 C2863 1.433 . S
C2871 N2873 1.384 . S
N2872 C2868 1.427 . S
N2872 C2869 1.384 . S
N2873 C2865 1.427 . S
N2873 C2871 1.384 . S
H2874 C2880 0.930 . S
H2875 C2884 0.930 . S
H2876 C2889 0.929 . S
H2877 C2887 0.929 . S
H2878 C2882 0.929 . S
H2879 C2888 0.929 . S
C2880 H2874 0.930 . S
C2880 C2881 1.367 . S
C2880 C2888 1.378 . S
C2881 C2880 1.367 . S
C2881 C2889 1.433 . S
C2882 H2878 0.929 . S
C2882 C2884 1.378 . S
C2882 C2886 1.350 . S
C2883 C2886 1.463 . S
C2883 C2888 1.350 . S
C2883 N2891 1.427 . S
C2884 H2875 0.930 . S
C2884 C2882 1.378 . S
C2884 C2885 1.367 . S
C2885 C2884 1.367 . S
C2885 C2887 1.433 . S
C2886 C2882 1.350 . S
C2886 C2883 1.463 . S
C2886 N2890 1.427 . S
C2887 H2877 0.929 . S
C2887 C2885 1.433 . S
C2887 N2890 1.384 . S
C2888 H2879 0.929 . S
C2888 C2880 1.378 . S
C2888 C2883 1.350 . S
C2889 H2876 0.929 . S
C2889 C2881 1.433 . S
C2889 N2891 1.384 . S
N2890 C2886 1.427 . S
N2890 C2887 1.384 . S
N2891 C2883 1.427 . S
N2891 C2889 1.384 . S
H2892 C2898 0.930 . S
H2893 C2902 0.930 . S
H2894 C2907 0.929 . S
H2895 C2905 0.929 . S
H2896 C2900 0.929 . S
H2897 C2906 0.929 . S
C2898 H2892 0.930 . S
C2898 C2899 1.367 . S
C2898 C2906 1.378 . S
C2899 C2898 1.367 . S
C2899 C2907 1.433 . S
C2900 H2896 0.929 . S
C2900 C2902 1.378 . S
C2900 C2904 1.350 . S
C2901 C2904 1.463 . S
C2901 C2906 1.350 . S
C2901 N2909 1.427 . S
C2902 H2893 0.930 . S
C2902 C2900 1.378 . S
C2902 C2903 1.367 . S
C2903 C2902 1.367 . S
C2903 C2905 1.433 . S
C2904 C2900 1.350 . S
C2904 C2901 1.463 . S
C2904 N2908 1.427 . S
C2905 H2895 0.929 . S
C2905 C2903 1.433 . S
C2905 N2908 1.384 . S
C2906 H2897 0.929 . S
C2906 C2898 1.378 . S
C2906 C2901 1.350 . S
C2907 H2894 0.929 . S
C2907 C2899 1.433 . S
C2907 N2909 1.384 . S
N2908 C2904 1.427 . S
N2908 C2905 1.384 . S
N2909 C2901 1.427 . S
N2909 C2907 1.384 . S
H2910 C2916 0.930 . S
H2911 C2920 0.930 . S
H2912 C2925 0.929 . S
H2913 C2923 0.929 . S
H2914 C2918 0.929 . S
H2915 C2924 0.929 . S
C2916 H2910 0.930 . S
C2916 C2917 1.367 . S
C2916 C2924 1.378 . S
C2917 C2916 1.367 . S
C2917 C2925 1.433 . S
C2918 H2914 0.929 . S
C2918 C2920 1.378 . S
C2918 C2922 1.350 . S
C2919 C2922 1.463 . S
C2919 C2924 1.350 . S
C2919 N2927 1.427 . S
C2920 H2911 0.930 . S
C2920 C2918 1.378 . S
C2920 C2921 1.367 . S
C2921 C2920 1.367 . S
C2921 C2923 1.433 . S
C2922 C2918 1.350 . S
C2922 C2919 1.463 . S
C2922 N2926 1.427 . S
C2923 H2913 0.929 . S
C2923 C2921 1.433 . S
C2923 N2926 1.384 . S
C2924 H2915 0.929 . S
C2924 C2916 1.378 . S
C2924 C2919 1.350 . S
C2925 H2912 0.929 . S
C2925 C2917 1.433 . S
C2925 N2927 1.384 . S
N2926 C2922 1.427 . S
N2926 C2923 1.384 . S
N2927 C2919 1.427 . S
N2927 C2925 1.384 . S
H2928 C2934 0.930 . S
H2929 C2938 0.930 . S
H2930 C2943 0.929 . S
H2931 C2941 0.929 . S
H2932 C2936 0.929 . S
H2933 C2942 0.929 . S
C2934 H2928 0.930 . S
C2934 C2935 1.367 . S
C2934 C2942 1.378 . S
C2935 C2934 1.367 . S
C2935 C2943 1.433 . S
C2936 H2932 0.929 . S
C2936 C2938 1.378 . S
C2936 C2940 1.350 . S
C2937 C2940 1.463 . S
C2937 C2942 1.350 . S
C2937 N2945 1.427 . S
C2938 H2929 0.930 . S
C2938 C2936 1.378 . S
C2938 C2939 1.367 . S
C2939 C2938 1.367 . S
C2939 C2941 1.433 . S
C2940 C2936 1.350 . S
C2940 C2937 1.463 . S
C2940 N2944 1.427 . S
C2941 H2931 0.929 . S
C2941 C2939 1.433 . S
C2941 N2944 1.384 . S
C2942 H2933 0.929 . S
C2942 C2934 1.378 . S
C2942 C2937 1.350 . S
C2943 H2930 0.929 . S
C2943 C2935 1.433 . S
C2943 N2945 1.384 . S
N2944 C2940 1.427 . S
N2944 C2941 1.384 . S
N2945 C2937 1.427 . S
N2945 C2943 1.384 . S
H2946 C2952 0.930 . S
H2947 C2956 0.930 . S
H2948 C2961 0.929 . S
H2949 C2959 0.929 . S
H2950 C2954 0.929 . S
H2951 C2960 0.929 . S
C2952 H2946 0.930 . S
C2952 C2953 1.367 . S
C2952 C2960 1.378 . S
C2953 C2952 1.367 . S
C2953 C2961 1.433 . S
C2954 H2950 0.929 . S
C2954 C2956 1.378 . S
C2954 C2958 1.350 . S
C2955 C2958 1.463 . S
C2955 C2960 1.350 . S
C2955 N2963 1.427 . S
C2956 H2947 0.930 . S
C2956 C2954 1.378 . S
C2956 C2957 1.367 . S
C2957 C2956 1.367 . S
C2957 C2959 1.433 . S
C2958 C2954 1.350 . S
C2958 C2955 1.463 . S
C2958 N2962 1.427 . S
C2959 H2949 0.929 . S
C2959 C2957 1.433 . S
C2959 N2962 1.384 . S
C2960 H2951 0.929 . S
C2960 C2952 1.378 . S
C2960 C2955 1.350 . S
C2961 H2948 0.929 . S
C2961 C2953 1.433 . S
C2961 N2963 1.384 . S
N2962 C2958 1.427 . S
N2962 C2959 1.384 . S
N2963 C2955 1.427 . S
N2963 C2961 1.384 . S
H2964 C2970 0.930 . S
H2965 C2974 0.930 . S
H2966 C2979 0.929 . S
H2967 C2977 0.929 . S
H2968 C2972 0.929 . S
H2969 C2978 0.929 . S
C2970 H2964 0.930 . S
C2970 C2971 1.367 . S
C2970 C2978 1.378 . S
C2971 C2970 1.367 . S
C2971 C2979 1.433 . S
C2972 H2968 0.929 . S
C2972 C2974 1.378 . S
C2972 C2976 1.350 . S
C2973 C2976 1.463 . S
C2973 C2978 1.350 . S
C2973 N2981 1.427 . S
C2974 H2965 0.930 . S
C2974 C2972 1.378 . S
C2974 C2975 1.367 . S
C2975 C2974 1.367 . S
C2975 C2977 1.433 . S
C2976 C2972 1.350 . S
C2976 C2973 1.463 . S
C2976 N2980 1.427 . S
C2977 H2967 0.929 . S
C2977 C2975 1.433 . S
C2977 N2980 1.384 . S
C2978 H2969 0.929 . S
C2978 C2970 1.378 . S
C2978 C2973 1.350 . S
C2979 H2966 0.929 . S
C2979 C2971 1.433 . S
C2979 N2981 1.384 . S
N2980 C2976 1.427 . S
N2980 C2977 1.384 . S
N2981 C2973 1.427 . S
N2981 C2979 1.384 . S
H2982 C2988 0.930 . S
H2983 C2992 0.930 . S
H2984 C2997 0.929 . S
H2985 C2995 0.929 . S
H2986 C2990 0.929 . S
H2987 C2996 0.929 . S
C2988 H2982 0.930 . S
C2988 C2989 1.367 . S
C2988 C2996 1.378 . S
C2989 C2988 1.367 . S
C2989 C2997 1.433 . S
C2990 H2986 0.929 . S
C2990 C2992 1.378 . S
C2990 C2994 1.350 . S
C2991 C2994 1.463 . S
C2991 C2996 1.350 . S
C2991 N2999 1.427 . S
C2992 H2983 0.930 . S
C2992 C2990 1.378 . S
C2992 C2993 1.367 . S
C2993 C2992 1.367 . S
C2993 C2995 1.433 . S
C2994 C2990 1.350 . S
C2994 C2991 1.463 . S
C2994 N2998 1.427 . S
C2995 H2985 0.929 . S
C2995 C2993 1.433 . S
C2995 N2998 1.384 . S
C2996 H2987 0.929 . S
C2996 C2988 1.378 . S
C2996 C2991 1.350 . S
C2997 H2984 0.929 . S
C2997 C2989 1.433 . S
C2997 N2999 1.384 . S
N2998 C2994 1.427 . S
N2998 C2995 1.384 . S
N2999 C2991 1.427 . S
N2999 C2997 1.384 . S
H3000 C3006 0.930 . S
H3001 C3010 0.930 . S
H3002 C3015 0.929 . S
H3003 C3013 0.929 . S
H3004 C3008 0.929 . S
H3005 C3014 0.929 . S
C3006 H3000 0.930 . S
C3006 C3007 1.367 . S
C3006 C3014 1.378 . S
C3007 C3006 1.367 . S
C3007 C3015 1.433 . S
C3008 H3004 0.929 . S
C3008 C3010 1.378 . S
C3008 C3012 1.350 . S
C3009 C3012 1.463 . S
C3009 C3014 1.350 . S
C3009 N3017 1.427 . S
C3010 H3001 0.930 . S
C3010 C3008 1.378 . S
C3010 C3011 1.367 . S
C3011 C3010 1.367 . S
C3011 C3013 1.433 . S
C3012 C3008 1.350 . S
C3012 C3009 1.463 . S
C3012 N3016 1.427 . S
C3013 H3003 0.929 . S
C3013 C3011 1.433 . S
C3013 N3016 1.384 . S
C3014 H3005 0.929 . S
C3014 C3006 1.378 . S
C3014 C3009 1.350 . S
C3015 H3002 0.929 . S
C3015 C3007 1.433 . S
C3015 N3017 1.384 . S
N3016 C3012 1.427 . S
N3016 C3013 1.384 . S
N3017 C3009 1.427 . S
N3017 C3015 1.384 . S
H3018 C3024 0.930 . S
H3019 C3028 0.930 . S
H3020 C3033 0.929 . S
H3021 C3031 0.929 . S
H3022 C3026 0.929 . S
H3023 C3032 0.929 . S
C3024 H3018 0.930 . S
C3024 C3025 1.367 . S
C3024 C3032 1.378 . S
C3025 C3024 1.367 . S
C3025 C3033 1.433 . S
C3026 H3022 0.929 . S
C3026 C3028 1.378 . S
C3026 C3030 1.350 . S
C3027 C3030 1.463 . S
C3027 C3032 1.350 . S
C3027 N3035 1.427 . S
C3028 H3019 0.930 . S
C3028 C3026 1.378 . S
C3028 C3029 1.367 . S
C3029 C3028 1.367 . S
C3029 C3031 1.433 . S
C3030 C3026 1.350 . S
C3030 C3027 1.463 . S
C3030 N3034 1.427 . S
C3031 H3021 0.929 . S
C3031 C3029 1.433 . S
C3031 N3034 1.384 . S
C3032 H3023 0.929 . S
C3032 C3024 1.378 . S
C3032 C3027 1.350 . S
C3033 H3020 0.929 . S
C3033 C3025 1.433 . S
C3033 N3035 1.384 . S
N3034 C3030 1.427 . S
N3034 C3031 1.384 . S
N3035 C3027 1.427 . S
N3035 C3033 1.384 . S
H3036 C3042 0.930 . S
H3037 C3046 0.930 . S
H3038 C3051 0.929 . S
H3039 C3049 0.929 . S
H3040 C3044 0.929 . S
H3041 C3050 0.929 . S
C3042 H3036 0.930 . S
C3042 C3043 1.367 . S
C3042 C3050 1.378 . S
C3043 C3042 1.367 . S
C3043 C3051 1.433 . S
C3044 H3040 0.929 . S
C3044 C3046 1.378 . S
C3044 C3048 1.350 . S
C3045 C3048 1.463 . S
C3045 C3050 1.350 . S
C3045 N3053 1.427 . S
C3046 H3037 0.930 . S
C3046 C3044 1.378 . S
C3046 C3047 1.367 . S
C3047 C3046 1.367 . S
C3047 C3049 1.433 . S
C3048 C3044 1.350 . S
C3048 C3045 1.463 . S
C3048 N3052 1.427 . S
C3049 H3039 0.929 . S
C3049 C3047 1.433 . S
C3049 N3052 1.384 . S
C3050 H3041 0.929 . S
C3050 C3042 1.378 . S
C3050 C3045 1.350 . S
C3051 H3038 0.929 . S
C3051 C3043 1.433 . S
C3051 N3053 1.384 . S
N3052 C3048 1.427 . S
N3052 C3049 1.384 . S
N3053 C3045 1.427 . S
N3053 C3051 1.384 . S
H3054 C3060 0.930 . S
H3055 C3064 0.930 . S
H3056 C3069 0.929 . S
H3057 C3067 0.929 . S
H3058 C3062 0.929 . S
H3059 C3068 0.929 . S
C3060 H3054 0.930 . S
C3060 C3061 1.367 . S
C3060 C3068 1.378 . S
C3061 C3060 1.367 . S
C3061 C3069 1.433 . S
C3062 H3058 0.929 . S
C3062 C3064 1.378 . S
C3062 C3066 1.350 . S
C3063 C3066 1.463 . S
C3063 C3068 1.350 . S
C3063 N3071 1.427 . S
C3064 H3055 0.930 . S
C3064 C3062 1.378 . S
C3064 C3065 1.367 . S
C3065 C3064 1.367 . S
C3065 C3067 1.433 . S
C3066 C3062 1.350 . S
C3066 C3063 1.463 . S
C3066 N3070 1.427 . S
C3067 H3057 0.929 . S
C3067 C3065 1.433 . S
C3067 N3070 1.384 . S
C3068 H3059 0.929 . S
C3068 C3060 1.378 . S
C3068 C3063 1.350 . S
C3069 H3056 0.929 . S
C3069 C3061 1.433 . S
C3069 N3071 1.384 . S
N3070 C3066 1.427 . S
N3070 C3067 1.384 . S
N3071 C3063 1.427 . S
N3071 C3069 1.384 . S
H3072 C3078 0.930 . S
H3073 C3082 0.930 . S
H3074 C3087 0.929 . S
H3075 C3085 0.929 . S
H3076 C3080 0.929 . S
H3077 C3086 0.929 . S
C3078 H3072 0.930 . S
C3078 C3079 1.367 . S
C3078 C3086 1.378 . S
C3079 C3078 1.367 . S
C3079 C3087 1.433 . S
C3080 H3076 0.929 . S
C3080 C3082 1.378 . S
C3080 C3084 1.350 . S
C3081 C3084 1.463 1_455 S
C3081 C3086 1.350 . S
C3081 N3089 1.427 . S
C3082 H3073 0.930 . S
C3082 C3080 1.378 . S
C3082 C3083 1.367 . S
C3083 C3082 1.367 . S
C3083 C3085 1.433 . S
C3084 C3080 1.350 . S
C3084 C3081 1.463 1_655 S
C3084 N3088 1.427 . S
C3085 H3075 0.929 . S
C3085 C3083 1.433 . S
C3085 N3088 1.384 . S
C3086 H3077 0.929 . S
C3086 C3078 1.378 . S
C3086 C3081 1.350 . S
C3087 H3074 0.929 . S
C3087 C3079 1.433 . S
C3087 N3089 1.384 . S
N3088 C3084 1.427 . S
N3088 C3085 1.384 . S
N3089 C3081 1.427 . S
N3089 C3087 1.384 . S
H3090 C3096 0.930 . S
H3091 C3100 0.930 . S
H3092 C3105 0.929 . S
H3093 C3103 0.929 . S
H3094 C3098 0.929 . S
H3095 C3104 0.929 . S
C3096 H3090 0.930 . S
C3096 C3097 1.367 . S
C3096 C3104 1.378 . S
C3097 C3096 1.367 . S
C3097 C3105 1.433 . S
C3098 H3094 0.929 . S
C3098 C3100 1.378 . S
C3098 C3102 1.350 . S
C3099 C3102 1.463 1_565 S
C3099 C3104 1.350 . S
C3099 N3107 1.427 . S
C3100 H3091 0.930 . S
C3100 C3098 1.378 . S
C3100 C3101 1.367 . S
C3101 C3100 1.367 . S
C3101 C3103 1.433 . S
C3102 C3098 1.350 . S
C3102 C3099 1.463 1_545 S
C3102 N3106 1.427 . S
C3103 H3093 0.929 . S
C3103 C3101 1.433 . S
C3103 N3106 1.384 . S
C3104 H3095 0.929 . S
C3104 C3096 1.378 . S
C3104 C3099 1.350 . S
C3105 H3092 0.929 . S
C3105 C3097 1.433 . S
C3105 N3107 1.384 . S
N3106 C3102 1.427 . S
N3106 C3103 1.384 . S
N3107 C3099 1.427 . S
N3107 C3105 1.384 . S
H3108 C3114 0.930 . S
H3109 C3118 0.930 . S
H3110 C3123 0.929 . S
H3111 C3121 0.929 . S
H3112 C3116 0.929 . S
H3113 C3122 0.929 . S
C3114 H3108 0.930 . S
C3114 C3115 1.367 . S
C3114 C3122 1.378 . S
C3115 C3114 1.367 . S
C3115 C3123 1.433 . S
C3116 H3112 0.929 . S
C3116 C3118 1.378 . S
C3116 C3120 1.350 . S
C3117 C3120 1.463 1_655 S
C3117 C3122 1.350 . S
C3117 N3125 1.427 . S
C3118 H3109 0.930 . S
C3118 C3116 1.378 . S
C3118 C3119 1.367 . S
C3119 C3118 1.367 . S
C3119 C3121 1.433 . S
C3120 C3116 1.350 . S
C3120 C3117 1.463 1_455 S
C3120 N3124 1.427 . S
C3121 H3111 0.929 . S
C3121 C3119 1.433 . S
C3121 N3124 1.384 . S
C3122 H3113 0.929 . S
C3122 C3114 1.378 . S
C3122 C3117 1.350 . S
C3123 H3110 0.929 . S
C3123 C3115 1.433 . S
C3123 N3125 1.384 . S
N3124 C3120 1.427 . S
N3124 C3121 1.384 . S
N3125 C3117 1.427 . S
N3125 C3123 1.384 . S
H3126 C3132 0.930 . S
H3127 C3136 0.930 . S
H3128 C3141 0.929 . S
H3129 C3139 0.929 . S
H3130 C3134 0.929 . S
H3131 C3140 0.929 . S
C3132 H3126 0.930 . S
C3132 C3133 1.367 . S
C3132 C3140 1.378 . S
C3133 C3132 1.367 . S
C3133 C3141 1.433 . S
C3134 H3130 0.929 . S
C3134 C3136 1.378 . S
C3134 C3138 1.350 . S
C3135 C3138 1.463 1_545 S
C3135 C3140 1.350 . S
C3135 N3143 1.427 . S
C3136 H3127 0.930 . S
C3136 C3134 1.378 . S
C3136 C3137 1.367 . S
C3137 C3136 1.367 . S
C3137 C3139 1.433 . S
C3138 C3134 1.350 . S
C3138 C3135 1.463 1_565 S
C3138 N3142 1.427 . S
C3139 H3129 0.929 . S
C3139 C3137 1.433 . S
C3139 N3142 1.384 . S
C3140 H3131 0.929 . S
C3140 C3132 1.378 . S
C3140 C3135 1.350 . S
C3141 H3128 0.929 . S
C3141 C3133 1.433 . S
C3141 N3143 1.384 . S
N3142 C3138 1.427 . S
N3142 C3139 1.384 . S
N3143 C3135 1.427 . S
N3143 C3141 1.384 . S
H3144 C3150 0.930 . S
H3145 C3154 0.930 . S
H3146 C3159 0.929 . S
H3147 C3157 0.929 . S
H3148 C3152 0.929 . S
H3149 C3158 0.929 . S
C3150 H3144 0.930 . S
C3150 C3151 1.367 . S
C3150 C3158 1.378 . S
C3151 C3150 1.367 . S
C3151 C3159 1.433 . S
C3152 H3148 0.929 . S
C3152 C3154 1.378 . S
C3152 C3156 1.350 . S
C3153 C3156 1.463 1_455 S
C3153 C3158 1.350 . S
C3153 N3161 1.427 . S
C3154 H3145 0.930 . S
C3154 C3152 1.378 . S
C3154 C3155 1.367 . S
C3155 C3154 1.367 . S
C3155 C3157 1.433 . S
C3156 C3152 1.350 . S
C3156 C3153 1.463 1_655 S
C3156 N3160 1.427 . S
C3157 H3147 0.929 . S
C3157 C3155 1.433 . S
C3157 N3160 1.384 . S
C3158 H3149 0.929 . S
C3158 C3150 1.378 . S
C3158 C3153 1.350 . S
C3159 H3146 0.929 . S
C3159 C3151 1.433 . S
C3159 N3161 1.384 . S
N3160 C3156 1.427 . S
N3160 C3157 1.384 . S
N3161 C3153 1.427 . S
N3161 C3159 1.384 . S
H3162 C3168 0.930 . S
H3163 C3172 0.930 . S
H3164 C3177 0.929 . S
H3165 C3175 0.929 . S
H3166 C3170 0.929 . S
H3167 C3176 0.929 . S
C3168 H3162 0.930 . S
C3168 C3169 1.367 . S
C3168 C3176 1.378 . S
C3169 C3168 1.367 . S
C3169 C3177 1.433 . S
C3170 H3166 0.929 . S
C3170 C3172 1.378 . S
C3170 C3174 1.350 . S
C3171 C3174 1.463 1_545 S
C3171 C3176 1.350 . S
C3171 N3179 1.427 . S
C3172 H3163 0.930 . S
C3172 C3170 1.378 . S
C3172 C3173 1.367 . S
C3173 C3172 1.367 . S
C3173 C3175 1.433 . S
C3174 C3170 1.350 . S
C3174 C3171 1.463 1_565 S
C3174 N3178 1.427 . S
C3175 H3165 0.929 . S
C3175 C3173 1.433 . S
C3175 N3178 1.384 . S
C3176 H3167 0.929 . S
C3176 C3168 1.378 . S
C3176 C3171 1.350 . S
C3177 H3164 0.929 . S
C3177 C3169 1.433 . S
C3177 N3179 1.384 . S
N3178 C3174 1.427 . S
N3178 C3175 1.384 . S
N3179 C3171 1.427 . S
N3179 C3177 1.384 . S
H3180 C3186 0.930 . S
H3181 C3190 0.930 . S
H3182 C3195 0.929 . S
H3183 C3193 0.929 . S
H3184 C3188 0.929 . S
H3185 C3194 0.929 . S
C3186 H3180 0.930 . S
C3186 C3187 1.367 . S
C3186 C3194 1.378 . S
C3187 C3186 1.367 . S
C3187 C3195 1.433 . S
C3188 H3184 0.929 . S
C3188 C3190 1.378 . S
C3188 C3192 1.350 . S
C3189 C3192 1.463 1_655 S
C3189 C3194 1.350 . S
C3189 N3197 1.427 . S
C3190 H3181 0.930 . S
C3190 C3188 1.378 . S
C3190 C3191 1.367 . S
C3191 C3190 1.367 . S
C3191 C3193 1.433 . S
C3192 C3188 1.350 . S
C3192 C3189 1.463 1_455 S
C3192 N3196 1.427 . S
C3193 H3183 0.929 . S
C3193 C3191 1.433 . S
C3193 N3196 1.384 . S
C3194 H3185 0.929 . S
C3194 C3186 1.378 . S
C3194 C3189 1.350 . S
C3195 H3182 0.929 . S
C3195 C3187 1.433 . S
C3195 N3197 1.384 . S
N3196 C3192 1.427 . S
N3196 C3193 1.384 . S
N3197 C3189 1.427 . S
N3197 C3195 1.384 . S
H3198 C3204 0.930 . S
H3199 C3208 0.930 . S
H3200 C3213 0.929 . S
H3201 C3211 0.929 . S
H3202 C3206 0.929 . S
H3203 C3212 0.929 . S
C3204 H3198 0.930 . S
C3204 C3205 1.367 . S
C3204 C3212 1.378 . S
C3205 C3204 1.367 . S
C3205 C3213 1.433 . S
C3206 H3202 0.929 . S
C3206 C3208 1.378 . S
C3206 C3210 1.350 . S
C3207 C3210 1.463 1_545 S
C3207 C3212 1.350 . S
C3207 N3215 1.427 . S
C3208 H3199 0.930 . S
C3208 C3206 1.378 . S
C3208 C3209 1.367 . S
C3209 C3208 1.367 . S
C3209 C3211 1.433 . S
C3210 C3206 1.350 . S
C3210 C3207 1.463 1_565 S
C3210 N3214 1.427 . S
C3211 H3201 0.929 . S
C3211 C3209 1.433 . S
C3211 N3214 1.384 . S
C3212 H3203 0.929 . S
C3212 C3204 1.378 . S
C3212 C3207 1.350 . S
C3213 H3200 0.929 . S
C3213 C3205 1.433 . S
C3213 N3215 1.384 . S
N3214 C3210 1.427 . S
N3214 C3211 1.384 . S
N3215 C3207 1.427 . S
N3215 C3213 1.384 . S
H3216 C3222 0.930 . S
H3217 C3226 0.930 . S
H3218 C3231 0.929 . S
H3219 C3229 0.929 . S
H3220 C3224 0.929 . S
H3221 C3230 0.929 . S
C3222 H3216 0.930 . S
C3222 C3223 1.367 . S
C3222 C3230 1.378 . S
C3223 C3222 1.367 . S
C3223 C3231 1.433 . S
C3224 H3220 0.929 . S
C3224 C3226 1.378 . S
C3224 C3228 1.350 . S
C3225 C3228 1.463 1_565 S
C3225 C3230 1.350 . S
C3225 N3233 1.427 . S
C3226 H3217 0.930 . S
C3226 C3224 1.378 . S
C3226 C3227 1.367 . S
C3227 C3226 1.367 . S
C3227 C3229 1.433 . S
C3228 C3224 1.350 . S
C3228 C3225 1.463 1_545 S
C3228 N3232 1.427 . S
C3229 H3219 0.929 . S
C3229 C3227 1.433 . S
C3229 N3232 1.384 . S
C3230 H3221 0.929 . S
C3230 C3222 1.378 . S
C3230 C3225 1.350 . S
C3231 H3218 0.929 . S
C3231 C3223 1.433 . S
C3231 N3233 1.384 . S
N3232 C3228 1.427 . S
N3232 C3229 1.384 . S
N3233 C3225 1.427 . S
N3233 C3231 1.384 . S
H3234 C3240 0.930 . S
H3235 C3244 0.930 . S
H3236 C3249 0.929 . S
H3237 C3247 0.929 . S
H3238 C3242 0.929 . S
H3239 C3248 0.929 . S
C3240 H3234 0.930 . S
C3240 C3241 1.367 . S
C3240 C3248 1.378 . S
C3241 C3240 1.367 . S
C3241 C3249 1.433 . S
C3242 H3238 0.929 . S
C3242 C3244 1.378 . S
C3242 C3246 1.350 . S
C3243 C3246 1.463 1_655 S
C3243 C3248 1.350 . S
C3243 N3251 1.427 . S
C3244 H3235 0.930 . S
C3244 C3242 1.378 . S
C3244 C3245 1.367 . S
C3245 C3244 1.367 . S
C3245 C3247 1.433 . S
C3246 C3242 1.350 . S
C3246 C3243 1.463 1_455 S
C3246 N3250 1.427 . S
C3247 H3237 0.929 . S
C3247 C3245 1.433 . S
C3247 N3250 1.384 . S
C3248 H3239 0.929 . S
C3248 C3240 1.378 . S
C3248 C3243 1.350 . S
C3249 H3236 0.929 . S
C3249 C3241 1.433 . S
C3249 N3251 1.384 . S
N3250 C3246 1.427 . S
N3250 C3247 1.384 . S
N3251 C3243 1.427 . S
N3251 C3249 1.384 . S
H3252 C3258 0.930 . S
H3253 C3262 0.930 . S
H3254 C3267 0.929 . S
H3255 C3265 0.929 . S
H3256 C3260 0.929 . S
H3257 C3266 0.929 . S
C3258 H3252 0.930 . S
C3258 C3259 1.367 . S
C3258 C3266 1.378 . S
C3259 C3258 1.367 . S
C3259 C3267 1.433 . S
C3260 H3256 0.929 . S
C3260 C3262 1.378 . S
C3260 C3264 1.350 . S
C3261 C3264 1.463 1_565 S
C3261 C3266 1.350 . S
C3261 N3269 1.427 . S
C3262 H3253 0.930 . S
C3262 C3260 1.378 . S
C3262 C3263 1.367 . S
C3263 C3262 1.367 . S
C3263 C3265 1.433 . S
C3264 C3260 1.350 . S
C3264 C3261 1.463 1_545 S
C3264 N3268 1.427 . S
C3265 H3255 0.929 . S
C3265 C3263 1.433 . S
C3265 N3268 1.384 . S
C3266 H3257 0.929 . S
C3266 C3258 1.378 . S
C3266 C3261 1.350 . S
C3267 H3254 0.929 . S
C3267 C3259 1.433 . S
C3267 N3269 1.384 . S
N3268 C3264 1.427 . S
N3268 C3265 1.384 . S
N3269 C3261 1.427 . S
N3269 C3267 1.384 . S
H3270 C3276 0.930 . S
H3271 C3280 0.930 . S
H3272 C3285 0.929 . S
H3273 C3283 0.929 . S
H3274 C3278 0.929 . S
H3275 C3284 0.929 . S
C3276 H3270 0.930 . S
C3276 C3277 1.367 . S
C3276 C3284 1.378 . S
C3277 C3276 1.367 . S
C3277 C3285 1.433 . S
C3278 H3274 0.929 . S
C3278 C3280 1.378 . S
C3278 C3282 1.350 . S
C3279 C3282 1.463 1_455 S
C3279 C3284 1.350 . S
C3279 N3287 1.427 . S
C3280 H3271 0.930 . S
C3280 C3278 1.378 . S
C3280 C3281 1.367 . S
C3281 C3280 1.367 . S
C3281 C3283 1.433 . S
C3282 C3278 1.350 . S
C3282 C3279 1.463 1_655 S
C3282 N3286 1.427 . S
C3283 H3273 0.929 . S
C3283 C3281 1.433 . S
C3283 N3286 1.384 . S
C3284 H3275 0.929 . S
C3284 C3276 1.378 . S
C3284 C3279 1.350 . S
C3285 H3272 0.929 . S
C3285 C3277 1.433 . S
C3285 N3287 1.384 . S
N3286 C3282 1.427 . S
N3286 C3283 1.384 . S
N3287 C3279 1.427 . S
N3287 C3285 1.384 . S
H3288 C3294 0.930 . S
H3289 C3298 0.930 . S
H3290 C3303 0.929 . S
H3291 C3301 0.929 . S
H3292 C3296 0.929 . S
H3293 C3302 0.929 . S
C3294 H3288 0.930 . S
C3294 C3295 1.367 . S
C3294 C3302 1.378 . S
C3295 C3294 1.367 . S
C3295 C3303 1.433 . S
C3296 H3292 0.929 . S
C3296 C3298 1.378 . S
C3296 C3300 1.350 . S
C3297 C3300 1.463 1_565 S
C3297 C3302 1.350 . S
C3297 N3305 1.427 . S
C3298 H3289 0.930 . S
C3298 C3296 1.378 . S
C3298 C3299 1.367 . S
C3299 C3298 1.367 . S
C3299 C3301 1.433 . S
C3300 C3296 1.350 . S
C3300 C3297 1.463 1_545 S
C3300 N3304 1.427 . S
C3301 H3291 0.929 . S
C3301 C3299 1.433 . S
C3301 N3304 1.384 . S
C3302 H3293 0.929 . S
C3302 C3294 1.378 . S
C3302 C3297 1.350 . S
C3303 H3290 0.929 . S
C3303 C3295 1.433 . S
C3303 N3305 1.384 . S
N3304 C3300 1.427 . S
N3304 C3301 1.384 . S
N3305 C3297 1.427 . S
N3305 C3303 1.384 . S
H3306 C3312 0.930 . S
H3307 C3316 0.930 . S
H3308 C3321 0.929 . S
H3309 C3319 0.929 . S
H3310 C3314 0.929 . S
H3311 C3320 0.929 . S
C3312 H3306 0.930 . S
C3312 C3313 1.367 . S
C3312 C3320 1.378 . S
C3313 C3312 1.367 . S
C3313 C3321 1.433 . S
C3314 H3310 0.929 . S
C3314 C3316 1.378 . S
C3314 C3318 1.350 . S
C3315 C3318 1.463 1_455 S
C3315 C3320 1.350 . S
C3315 N3323 1.427 . S
C3316 H3307 0.930 . S
C3316 C3314 1.378 . S
C3316 C3317 1.367 . S
C3317 C3316 1.367 . S
C3317 C3319 1.433 . S
C3318 C3314 1.350 . S
C3318 C3315 1.463 1_655 S
C3318 N3322 1.427 . S
C3319 H3309 0.929 . S
C3319 C3317 1.433 . S
C3319 N3322 1.384 . S
C3320 H3311 0.929 . S
C3320 C3312 1.378 . S
C3320 C3315 1.350 . S
C3321 H3308 0.929 . S
C3321 C3313 1.433 . S
C3321 N3323 1.384 . S
N3322 C3318 1.427 . S
N3322 C3319 1.384 . S
N3323 C3315 1.427 . S
N3323 C3321 1.384 . S
H3324 C3330 0.930 . S
H3325 C3334 0.930 . S
H3326 C3339 0.929 . S
H3327 C3337 0.929 . S
H3328 C3332 0.929 . S
H3329 C3338 0.929 . S
C3330 H3324 0.930 . S
C3330 C3331 1.367 . S
C3330 C3338 1.378 . S
C3331 C3330 1.367 . S
C3331 C3339 1.433 . S
C3332 H3328 0.929 . S
C3332 C3334 1.378 . S
C3332 C3336 1.350 . S
C3333 C3336 1.463 1_545 S
C3333 C3338 1.350 . S
C3333 N3341 1.427 . S
C3334 H3325 0.930 . S
C3334 C3332 1.378 . S
C3334 C3335 1.367 . S
C3335 C3334 1.367 . S
C3335 C3337 1.433 . S
C3336 C3332 1.350 . S
C3336 C3333 1.463 1_565 S
C3336 N3340 1.427 . S
C3337 H3327 0.929 . S
C3337 C3335 1.433 . S
C3337 N3340 1.384 . S
C3338 H3329 0.929 . S
C3338 C3330 1.378 . S
C3338 C3333 1.350 . S
C3339 H3326 0.929 . S
C3339 C3331 1.433 . S
C3339 N3341 1.384 . S
N3340 C3336 1.427 . S
N3340 C3337 1.384 . S
N3341 C3333 1.427 . S
N3341 C3339 1.384 . S
H3342 C3348 0.930 . S
H3343 C3352 0.930 . S
H3344 C3357 0.929 . S
H3345 C3355 0.929 . S
H3346 C3350 0.929 . S
H3347 C3356 0.929 . S
C3348 H3342 0.930 . S
C3348 C3349 1.367 . S
C3348 C3356 1.378 . S
C3349 C3348 1.367 . S
C3349 C3357 1.433 . S
C3350 H3346 0.929 . S
C3350 C3352 1.378 . S
C3350 C3354 1.350 . S
C3351 C3354 1.463 1_655 S
C3351 C3356 1.350 . S
C3351 N3359 1.427 . S
C3352 H3343 0.930 . S
C3352 C3350 1.378 . S
C3352 C3353 1.367 . S
C3353 C3352 1.367 . S
C3353 C3355 1.433 . S
C3354 C3350 1.350 . S
C3354 C3351 1.463 1_455 S
C3354 N3358 1.427 . S
C3355 H3345 0.929 . S
C3355 C3353 1.433 . S
C3355 N3358 1.384 . S
C3356 H3347 0.929 . S
C3356 C3348 1.378 . S
C3356 C3351 1.350 . S
C3357 H3344 0.929 . S
C3357 C3349 1.433 . S
C3357 N3359 1.384 . S
N3358 C3354 1.427 . S
N3358 C3355 1.384 . S
N3359 C3351 1.427 . S
N3359 C3357 1.384 . S
H3360 C3366 0.930 . S
H3361 C3370 0.930 . S
H3362 C3375 0.929 . S
H3363 C3373 0.929 . S
H3364 C3368 0.929 . S
H3365 C3374 0.929 . S
C3366 H3360 0.930 . S
C3366 C3367 1.367 . S
C3366 C3374 1.378 . S
C3367 C3366 1.367 . S
C3367 C3375 1.433 . S
C3368 H3364 0.929 . S
C3368 C3370 1.378 . S
C3368 C3372 1.350 . S
C3369 C3372 1.463 1_554 S
C3369 C3374 1.350 . S
C3369 N3377 1.427 . S
C3370 H3361 0.930 . S
C3370 C3368 1.378 . S
C3370 C3371 1.367 . S
C3371 C3370 1.367 . S
C3371 C3373 1.433 . S
C3372 C3368 1.350 . S
C3372 C3369 1.463 1_556 S
C3372 N3376 1.427 . S
C3373 H3363 0.929 . S
C3373 C3371 1.433 . S
C3373 N3376 1.384 . S
C3374 H3365 0.929 . S
C3374 C3366 1.378 . S
C3374 C3369 1.350 . S
C3375 H3362 0.929 . S
C3375 C3367 1.433 . S
C3375 N3377 1.384 . S
N3376 C3372 1.427 . S
N3376 C3373 1.384 . S
N3377 C3369 1.427 . S
N3377 C3375 1.384 . S
H3378 C3384 0.930 . S
H3379 C3388 0.930 . S
H3380 C3393 0.929 . S
H3381 C3391 0.929 . S
H3382 C3386 0.929 . S
H3383 C3392 0.929 . S
C3384 H3378 0.930 . S
C3384 C3385 1.367 . S
C3384 C3392 1.378 . S
C3385 C3384 1.367 . S
C3385 C3393 1.433 . S
C3386 H3382 0.929 . S
C3386 C3388 1.378 . S
C3386 C3390 1.350 . S
C3387 C3390 1.463 1_556 S
C3387 C3392 1.350 . S
C3387 N3395 1.427 . S
C3388 H3379 0.930 . S
C3388 C3386 1.378 . S
C3388 C3389 1.367 . S
C3389 C3388 1.367 . S
C3389 C3391 1.433 . S
C3390 C3386 1.350 . S
C3390 C3387 1.463 1_554 S
C3390 N3394 1.427 . S
C3391 H3381 0.929 . S
C3391 C3389 1.433 . S
C3391 N3394 1.384 . S
C3392 H3383 0.929 . S
C3392 C3384 1.378 . S
C3392 C3387 1.350 . S
C3393 H3380 0.929 . S
C3393 C3385 1.433 . S
C3393 N3395 1.384 . S
N3394 C3390 1.427 . S
N3394 C3391 1.384 . S
N3395 C3387 1.427 . S
N3395 C3393 1.384 . S
H3396 C3402 0.930 . S
H3397 C3406 0.930 . S
H3398 C3411 0.929 . S
H3399 C3409 0.929 . S
H3400 C3404 0.929 . S
H3401 C3410 0.929 . S
C3402 H3396 0.930 . S
C3402 C3403 1.367 . S
C3402 C3410 1.378 . S
C3403 C3402 1.367 . S
C3403 C3411 1.433 . S
C3404 H3400 0.929 . S
C3404 C3406 1.378 . S
C3404 C3408 1.350 . S
C3405 C3408 1.463 1_554 S
C3405 C3410 1.350 . S
C3405 N3413 1.427 . S
C3406 H3397 0.930 . S
C3406 C3404 1.378 . S
C3406 C3407 1.367 . S
C3407 C3406 1.367 . S
C3407 C3409 1.433 . S
C3408 C3404 1.350 . S
C3408 C3405 1.463 1_556 S
C3408 N3412 1.427 . S
C3409 H3399 0.929 . S
C3409 C3407 1.433 . S
C3409 N3412 1.384 . S
C3410 H3401 0.929 . S
C3410 C3402 1.378 . S
C3410 C3405 1.350 . S
C3411 H3398 0.929 . S
C3411 C3403 1.433 . S
C3411 N3413 1.384 . S
N3412 C3408 1.427 . S
N3412 C3409 1.384 . S
N3413 C3405 1.427 . S
N3413 C3411 1.384 . S
H3414 C3420 0.930 . S
H3415 C3424 0.930 . S
H3416 C3429 0.929 . S
H3417 C3427 0.929 . S
H3418 C3422 0.929 . S
H3419 C3428 0.929 . S
C3420 H3414 0.930 . S
C3420 C3421 1.367 . S
C3420 C3428 1.378 . S
C3421 C3420 1.367 . S
C3421 C3429 1.433 . S
C3422 H3418 0.929 . S
C3422 C3424 1.378 . S
C3422 C3426 1.350 . S
C3423 C3426 1.463 1_556 S
C3423 C3428 1.350 . S
C3423 N3431 1.427 . S
C3424 H3415 0.930 . S
C3424 C3422 1.378 . S
C3424 C3425 1.367 . S
C3425 C3424 1.367 . S
C3425 C3427 1.433 . S
C3426 C3422 1.350 . S
C3426 C3423 1.463 1_554 S
C3426 N3430 1.427 . S
C3427 H3417 0.929 . S
C3427 C3425 1.433 . S
C3427 N3430 1.384 . S
C3428 H3419 0.929 . S
C3428 C3420 1.378 . S
C3428 C3423 1.350 . S
C3429 H3416 0.929 . S
C3429 C3421 1.433 . S
C3429 N3431 1.384 . S
N3430 C3426 1.427 . S
N3430 C3427 1.384 . S
N3431 C3423 1.427 . S
N3431 C3429 1.384 . S
H3432 C3438 0.930 . S
H3433 C3442 0.930 . S
H3434 C3447 0.929 . S
H3435 C3445 0.929 . S
H3436 C3440 0.929 . S
H3437 C3446 0.929 . S
C3438 H3432 0.930 . S
C3438 C3439 1.367 . S
C3438 C3446 1.378 . S
C3439 C3438 1.367 . S
C3439 C3447 1.433 . S
C3440 H3436 0.929 . S
C3440 C3442 1.378 . S
C3440 C3444 1.350 . S
C3441 C3444 1.463 1_554 S
C3441 C3446 1.350 . S
C3441 N3449 1.427 . S
C3442 H3433 0.930 . S
C3442 C3440 1.378 . S
C3442 C3443 1.367 . S
C3443 C3442 1.367 . S
C3443 C3445 1.433 . S
C3444 C3440 1.350 . S
C3444 C3441 1.463 1_556 S
C3444 N3448 1.427 . S
C3445 H3435 0.929 . S
C3445 C3443 1.433 . S
C3445 N3448 1.384 . S
C3446 H3437 0.929 . S
C3446 C3438 1.378 . S
C3446 C3441 1.350 . S
C3447 H3434 0.929 . S
C3447 C3439 1.433 . S
C3447 N3449 1.384 . S
N3448 C3444 1.427 . S
N3448 C3445 1.384 . S
N3449 C3441 1.427 . S
N3449 C3447 1.384 . S
H3450 C3456 0.930 . S
H3451 C3460 0.930 . S
H3452 C3465 0.929 . S
H3453 C3463 0.929 . S
H3454 C3458 0.929 . S
H3455 C3464 0.929 . S
C3456 H3450 0.930 . S
C3456 C3457 1.367 . S
C3456 C3464 1.378 . S
C3457 C3456 1.367 . S
C3457 C3465 1.433 . S
C3458 H3454 0.929 . S
C3458 C3460 1.378 . S
C3458 C3462 1.350 . S
C3459 C3462 1.463 1_554 S
C3459 C3464 1.350 . S
C3459 N3467 1.427 . S
C3460 H3451 0.930 . S
C3460 C3458 1.378 . S
C3460 C3461 1.367 . S
C3461 C3460 1.367 . S
C3461 C3463 1.433 . S
C3462 C3458 1.350 . S
C3462 C3459 1.463 1_556 S
C3462 N3466 1.427 . S
C3463 H3453 0.929 . S
C3463 C3461 1.433 . S
C3463 N3466 1.384 . S
C3464 H3455 0.929 . S
C3464 C3456 1.378 . S
C3464 C3459 1.350 . S
C3465 H3452 0.929 . S
C3465 C3457 1.433 . S
C3465 N3467 1.384 . S
N3466 C3462 1.427 . S
N3466 C3463 1.384 . S
N3467 C3459 1.427 . S
N3467 C3465 1.384 . S
H3468 C3474 0.930 . S
H3469 C3478 0.930 . S
H3470 C3483 0.929 . S
H3471 C3481 0.929 . S
H3472 C3476 0.929 . S
H3473 C3482 0.929 . S
C3474 H3468 0.930 . S
C3474 C3475 1.367 . S
C3474 C3482 1.378 . S
C3475 C3474 1.367 . S
C3475 C3483 1.433 . S
C3476 H3472 0.929 . S
C3476 C3478 1.378 . S
C3476 C3480 1.350 . S
C3477 C3480 1.463 1_554 S
C3477 C3482 1.350 . S
C3477 N3485 1.427 . S
C3478 H3469 0.930 . S
C3478 C3476 1.378 . S
C3478 C3479 1.367 . S
C3479 C3478 1.367 . S
C3479 C3481 1.433 . S
C3480 C3476 1.350 . S
C3480 C3477 1.463 1_556 S
C3480 N3484 1.427 . S
C3481 H3471 0.929 . S
C3481 C3479 1.433 . S
C3481 N3484 1.384 . S
C3482 H3473 0.929 . S
C3482 C3474 1.378 . S
C3482 C3477 1.350 . S
C3483 H3470 0.929 . S
C3483 C3475 1.433 . S
C3483 N3485 1.384 . S
N3484 C3480 1.427 . S
N3484 C3481 1.384 . S
N3485 C3477 1.427 . S
N3485 C3483 1.384 . S
H3486 C3492 0.930 . S
H3487 C3496 0.930 . S
H3488 C3501 0.929 . S
H3489 C3499 0.929 . S
H3490 C3494 0.929 . S
H3491 C3500 0.929 . S
C3492 H3486 0.930 . S
C3492 C3493 1.367 . S
C3492 C3500 1.378 . S
C3493 C3492 1.367 . S
C3493 C3501 1.433 . S
C3494 H3490 0.929 . S
C3494 C3496 1.378 . S
C3494 C3498 1.350 . S
C3495 C3498 1.463 1_556 S
C3495 C3500 1.350 . S
C3495 N3503 1.427 . S
C3496 H3487 0.930 . S
C3496 C3494 1.378 . S
C3496 C3497 1.367 . S
C3497 C3496 1.367 . S
C3497 C3499 1.433 . S
C3498 C3494 1.350 . S
C3498 C3495 1.463 1_554 S
C3498 N3502 1.427 . S
C3499 H3489 0.929 . S
C3499 C3497 1.433 . S
C3499 N3502 1.384 . S
C3500 H3491 0.929 . S
C3500 C3492 1.378 . S
C3500 C3495 1.350 . S
C3501 H3488 0.929 . S
C3501 C3493 1.433 . S
C3501 N3503 1.384 . S
N3502 C3498 1.427 . S
N3502 C3499 1.384 . S
N3503 C3495 1.427 . S
N3503 C3501 1.384 . S
H3504 C3510 0.930 . S
H3505 C3514 0.930 . S
H3506 C3519 0.929 . S
H3507 C3517 0.929 . S
H3508 C3512 0.929 . S
H3509 C3518 0.929 . S
C3510 H3504 0.930 . S
C3510 C3511 1.367 . S
C3510 C3518 1.378 . S
C3511 C3510 1.367 . S
C3511 C3519 1.433 . S
C3512 H3508 0.929 . S
C3512 C3514 1.378 . S
C3512 C3516 1.350 . S
C3513 C3516 1.463 . S
C3513 C3518 1.350 . S
C3513 N3521 1.427 . S
C3514 H3505 0.930 . S
C3514 C3512 1.378 . S
C3514 C3515 1.367 . S
C3515 C3514 1.367 . S
C3515 C3517 1.433 . S
C3516 C3512 1.350 . S
C3516 C3513 1.463 . S
C3516 N3520 1.427 . S
C3517 H3507 0.929 . S
C3517 C3515 1.433 . S
C3517 N3520 1.384 . S
C3518 H3509 0.929 . S
C3518 C3510 1.378 . S
C3518 C3513 1.350 . S
C3519 H3506 0.929 . S
C3519 C3511 1.433 . S
C3519 N3521 1.384 . S
N3520 C3516 1.427 . S
N3520 C3517 1.384 . S
N3521 C3513 1.427 . S
N3521 C3519 1.384 . S
H3522 C3528 0.930 . S
H3523 C3532 0.930 . S
H3524 C3537 0.929 . S
H3525 C3535 0.929 . S
H3526 C3530 0.929 . S
H3527 C3536 0.929 . S
C3528 H3522 0.930 . S
C3528 C3529 1.367 . S
C3528 C3536 1.378 . S
C3529 C3528 1.367 . S
C3529 C3537 1.433 . S
C3530 H3526 0.929 . S
C3530 C3532 1.378 . S
C3530 C3534 1.350 . S
C3531 C3534 1.463 . S
C3531 C3536 1.350 . S
C3531 N3539 1.427 . S
C3532 H3523 0.930 . S
C3532 C3530 1.378 . S
C3532 C3533 1.367 . S
C3533 C3532 1.367 . S
C3533 C3535 1.433 . S
C3534 C3530 1.350 . S
C3534 C3531 1.463 . S
C3534 N3538 1.427 . S
C3535 H3525 0.929 . S
C3535 C3533 1.433 . S
C3535 N3538 1.384 . S
C3536 H3527 0.929 . S
C3536 C3528 1.378 . S
C3536 C3531 1.350 . S
C3537 H3524 0.929 . S
C3537 C3529 1.433 . S
C3537 N3539 1.384 . S
N3538 C3534 1.427 . S
N3538 C3535 1.384 . S
N3539 C3531 1.427 . S
N3539 C3537 1.384 . S
H3540 C3546 0.930 . S
H3541 C3550 0.930 . S
H3542 C3555 0.929 . S
H3543 C3553 0.929 . S
H3544 C3548 0.929 . S
H3545 C3554 0.929 . S
C3546 H3540 0.930 . S
C3546 C3547 1.367 . S
C3546 C3554 1.378 . S
C3547 C3546 1.367 . S
C3547 C3555 1.433 . S
C3548 H3544 0.929 . S
C3548 C3550 1.378 . S
C3548 C3552 1.350 . S
C3549 C3552 1.463 . S
C3549 C3554 1.350 . S
C3549 N3557 1.427 . S
C3550 H3541 0.930 . S
C3550 C3548 1.378 . S
C3550 C3551 1.367 . S
C3551 C3550 1.367 . S
C3551 C3553 1.433 . S
C3552 C3548 1.350 . S
C3552 C3549 1.463 . S
C3552 N3556 1.427 . S
C3553 H3543 0.929 . S
C3553 C3551 1.433 . S
C3553 N3556 1.384 . S
C3554 H3545 0.929 . S
C3554 C3546 1.378 . S
C3554 C3549 1.350 . S
C3555 H3542 0.929 . S
C3555 C3547 1.433 . S
C3555 N3557 1.384 . S
N3556 C3552 1.427 . S
N3556 C3553 1.384 . S
N3557 C3549 1.427 . S
N3557 C3555 1.384 . S
H3558 C3564 0.930 . S
H3559 C3568 0.930 . S
H3560 C3573 0.929 . S
H3561 C3571 0.929 . S
H3562 C3566 0.929 . S
H3563 C3572 0.929 . S
C3564 H3558 0.930 . S
C3564 C3565 1.367 . S
C3564 C3572 1.378 . S
C3565 C3564 1.367 . S
C3565 C3573 1.433 . S
C3566 H3562 0.929 . S
C3566 C3568 1.378 . S
C3566 C3570 1.350 . S
C3567 C3570 1.463 . S
C3567 C3572 1.350 . S
C3567 N3575 1.427 . S
C3568 H3559 0.930 . S
C3568 C3566 1.378 . S
C3568 C3569 1.367 . S
C3569 C3568 1.367 . S
C3569 C3571 1.433 . S
C3570 C3566 1.350 . S
C3570 C3567 1.463 . S
C3570 N3574 1.427 . S
C3571 H3561 0.929 . S
C3571 C3569 1.433 . S
C3571 N3574 1.384 . S
C3572 H3563 0.929 . S
C3572 C3564 1.378 . S
C3572 C3567 1.350 . S
C3573 H3560 0.929 . S
C3573 C3565 1.433 . S
C3573 N3575 1.384 . S
N3574 C3570 1.427 . S
N3574 C3571 1.384 . S
N3575 C3567 1.427 . S
N3575 C3573 1.384 . S
H3576 C3582 0.930 . S
H3577 C3586 0.930 . S
H3578 C3591 0.929 . S
H3579 C3589 0.929 . S
H3580 C3584 0.929 . S
H3581 C3590 0.929 . S
C3582 H3576 0.930 . S
C3582 C3583 1.367 . S
C3582 C3590 1.378 . S
C3583 C3582 1.367 . S
C3583 C3591 1.433 . S
C3584 H3580 0.929 . S
C3584 C3586 1.378 . S
C3584 C3588 1.350 . S
C3585 C3588 1.463 . S
C3585 C3590 1.350 . S
C3585 N3593 1.427 . S
C3586 H3577 0.930 . S
C3586 C3584 1.378 . S
C3586 C3587 1.367 . S
C3587 C3586 1.367 . S
C3587 C3589 1.433 . S
C3588 C3584 1.350 . S
C3588 C3585 1.463 . S
C3588 N3592 1.427 . S
C3589 H3579 0.929 . S
C3589 C3587 1.433 . S
C3589 N3592 1.384 . S
C3590 H3581 0.929 . S
C3590 C3582 1.378 . S
C3590 C3585 1.350 . S
C3591 H3578 0.929 . S
C3591 C3583 1.433 . S
C3591 N3593 1.384 . S
N3592 C3588 1.427 . S
N3592 C3589 1.384 . S
N3593 C3585 1.427 . S
N3593 C3591 1.384 . S
H3594 C3600 0.930 . S
H3595 C3604 0.930 . S
H3596 C3609 0.929 . S
H3597 C3607 0.929 . S
H3598 C3602 0.929 . S
H3599 C3608 0.929 . S
C3600 H3594 0.930 . S
C3600 C3601 1.367 . S
C3600 C3608 1.378 . S
C3601 C3600 1.367 . S
C3601 C3609 1.433 . S
C3602 H3598 0.929 . S
C3602 C3604 1.378 . S
C3602 C3606 1.350 . S
C3603 C3606 1.463 . S
C3603 C3608 1.350 . S
C3603 N3611 1.427 . S
C3604 H3595 0.930 . S
C3604 C3602 1.378 . S
C3604 C3605 1.367 . S
C3605 C3604 1.367 . S
C3605 C3607 1.433 . S
C3606 C3602 1.350 . S
C3606 C3603 1.463 . S
C3606 N3610 1.427 . S
C3607 H3597 0.929 . S
C3607 C3605 1.433 . S
C3607 N3610 1.384 . S
C3608 H3599 0.929 . S
C3608 C3600 1.378 . S
C3608 C3603 1.350 . S
C3609 H3596 0.929 . S
C3609 C3601 1.433 . S
C3609 N3611 1.384 . S
N3610 C3606 1.427 . S
N3610 C3607 1.384 . S
N3611 C3603 1.427 . S
N3611 C3609 1.384 . S
H3612 C3618 0.930 . S
H3613 C3622 0.930 . S
H3614 C3627 0.929 . S
H3615 C3625 0.929 . S
H3616 C3620 0.929 . S
H3617 C3626 0.929 . S
C3618 H3612 0.930 . S
C3618 C3619 1.367 . S
C3618 C3626 1.378 . S
C3619 C3618 1.367 . S
C3619 C3627 1.433 . S
C3620 H3616 0.929 . S
C3620 C3622 1.378 . S
C3620 C3624 1.350 . S
C3621 C3624 1.463 . S
C3621 C3626 1.350 . S
C3621 N3629 1.427 . S
C3622 H3613 0.930 . S
C3622 C3620 1.378 . S
C3622 C3623 1.367 . S
C3623 C3622 1.367 . S
C3623 C3625 1.433 . S
C3624 C3620 1.350 . S
C3624 C3621 1.463 . S
C3624 N3628 1.427 . S
C3625 H3615 0.929 . S
C3625 C3623 1.433 . S
C3625 N3628 1.384 . S
C3626 H3617 0.929 . S
C3626 C3618 1.378 . S
C3626 C3621 1.350 . S
C3627 H3614 0.929 . S
C3627 C3619 1.433 . S
C3627 N3629 1.384 . S
N3628 C3624 1.427 . S
N3628 C3625 1.384 . S
N3629 C3621 1.427 . S
N3629 C3627 1.384 . S
H3630 C3636 0.930 . S
H3631 C3640 0.930 . S
H3632 C3645 0.929 . S
H3633 C3643 0.929 . S
H3634 C3638 0.929 . S
H3635 C3644 0.929 . S
C3636 H3630 0.930 . S
C3636 C3637 1.367 . S
C3636 C3644 1.378 . S
C3637 C3636 1.367 . S
C3637 C3645 1.433 . S
C3638 H3634 0.929 . S
C3638 C3640 1.378 . S
C3638 C3642 1.350 . S
C3639 C3642 1.463 . S
C3639 C3644 1.350 . S
C3639 N3647 1.427 . S
C3640 H3631 0.930 . S
C3640 C3638 1.378 . S
C3640 C3641 1.367 . S
C3641 C3640 1.367 . S
C3641 C3643 1.433 . S
C3642 C3638 1.350 . S
C3642 C3639 1.463 . S
C3642 N3646 1.427 . S
C3643 H3633 0.929 . S
C3643 C3641 1.433 . S
C3643 N3646 1.384 . S
C3644 H3635 0.929 . S
C3644 C3636 1.378 . S
C3644 C3639 1.350 . S
C3645 H3632 0.929 . S
C3645 C3637 1.433 . S
C3645 N3647 1.384 . S
N3646 C3642 1.427 . S
N3646 C3643 1.384 . S
N3647 C3639 1.427 . S
N3647 C3645 1.384 . S
H3648 C3654 0.930 . S
H3649 C3658 0.930 . S
H3650 C3663 0.929 . S
H3651 C3661 0.929 . S
H3652 C3656 0.929 . S
H3653 C3662 0.929 . S
C3654 H3648 0.930 . S
C3654 C3655 1.367 . S
C3654 C3662 1.378 . S
C3655 C3654 1.367 . S
C3655 C3663 1.433 . S
C3656 H3652 0.929 . S
C3656 C3658 1.378 . S
C3656 C3660 1.350 . S
C3657 C3660 1.463 . S
C3657 C3662 1.350 . S
C3657 N3665 1.427 . S
C3658 H3649 0.930 . S
C3658 C3656 1.378 . S
C3658 C3659 1.367 . S
C3659 C3658 1.367 . S
C3659 C3661 1.433 . S
C3660 C3656 1.350 . S
C3660 C3657 1.463 . S
C3660 N3664 1.427 . S
C3661 H3651 0.929 . S
C3661 C3659 1.433 . S
C3661 N3664 1.384 . S
C3662 H3653 0.929 . S
C3662 C3654 1.378 . S
C3662 C3657 1.350 . S
C3663 H3650 0.929 . S
C3663 C3655 1.433 . S
C3663 N3665 1.384 . S
N3664 C3660 1.427 . S
N3664 C3661 1.384 . S
N3665 C3657 1.427 . S
N3665 C3663 1.384 . S
H3666 C3672 0.930 . S
H3667 C3676 0.930 . S
H3668 C3681 0.929 . S
H3669 C3679 0.929 . S
H3670 C3674 0.929 . S
H3671 C3680 0.929 . S
C3672 H3666 0.930 . S
C3672 C3673 1.367 . S
C3672 C3680 1.378 . S
C3673 C3672 1.367 . S
C3673 C3681 1.433 . S
C3674 H3670 0.929 . S
C3674 C3676 1.378 . S
C3674 C3678 1.350 . S
C3675 C3678 1.463 . S
C3675 C3680 1.350 . S
C3675 N3683 1.427 . S
C3676 H3667 0.930 . S
C3676 C3674 1.378 . S
C3676 C3677 1.367 . S
C3677 C3676 1.367 . S
C3677 C3679 1.433 . S
C3678 C3674 1.350 . S
C3678 C3675 1.463 . S
C3678 N3682 1.427 . S
C3679 H3669 0.929 . S
C3679 C3677 1.433 . S
C3679 N3682 1.384 . S
C3680 H3671 0.929 . S
C3680 C3672 1.378 . S
C3680 C3675 1.350 . S
C3681 H3668 0.929 . S
C3681 C3673 1.433 . S
C3681 N3683 1.384 . S
N3682 C3678 1.427 . S
N3682 C3679 1.384 . S
N3683 C3675 1.427 . S
N3683 C3681 1.384 . S
H3684 C3690 0.930 . S
H3685 C3694 0.930 . S
H3686 C3699 0.929 . S
H3687 C3697 0.929 . S
H3688 C3692 0.929 . S
H3689 C3698 0.929 . S
C3690 H3684 0.930 . S
C3690 C3691 1.367 . S
C3690 C3698 1.378 . S
C3691 C3690 1.367 . S
C3691 C3699 1.433 . S
C3692 H3688 0.929 . S
C3692 C3694 1.378 . S
C3692 C3696 1.350 . S
C3693 C3696 1.463 . S
C3693 C3698 1.350 . S
C3693 N3701 1.427 . S
C3694 H3685 0.930 . S
C3694 C3692 1.378 . S
C3694 C3695 1.367 . S
C3695 C3694 1.367 . S
C3695 C3697 1.433 . S
C3696 C3692 1.350 . S
C3696 C3693 1.463 . S
C3696 N3700 1.427 . S
C3697 H3687 0.929 . S
C3697 C3695 1.433 . S
C3697 N3700 1.384 . S
C3698 H3689 0.929 . S
C3698 C3690 1.378 . S
C3698 C3693 1.350 . S
C3699 H3686 0.929 . S
C3699 C3691 1.433 . S
C3699 N3701 1.384 . S
N3700 C3696 1.427 . S
N3700 C3697 1.384 . S
N3701 C3693 1.427 . S
N3701 C3699 1.384 . S
H3702 C3708 0.930 . S
H3703 C3712 0.930 . S
H3704 C3717 0.929 . S
H3705 C3715 0.929 . S
H3706 C3710 0.929 . S
H3707 C3716 0.929 . S
C3708 H3702 0.930 . S
C3708 C3709 1.367 . S
C3708 C3716 1.378 . S
C3709 C3708 1.367 . S
C3709 C3717 1.433 . S
C3710 H3706 0.929 . S
C3710 C3712 1.378 . S
C3710 C3714 1.350 . S
C3711 C3714 1.463 . S
C3711 C3716 1.350 . S
C3711 N3719 1.427 . S
C3712 H3703 0.930 . S
C3712 C3710 1.378 . S
C3712 C3713 1.367 . S
C3713 C3712 1.367 . S
C3713 C3715 1.433 . S
C3714 C3710 1.350 . S
C3714 C3711 1.463 . S
C3714 N3718 1.427 . S
C3715 H3705 0.929 . S
C3715 C3713 1.433 . S
C3715 N3718 1.384 . S
C3716 H3707 0.929 . S
C3716 C3708 1.378 . S
C3716 C3711 1.350 . S
C3717 H3704 0.929 . S
C3717 C3709 1.433 . S
C3717 N3719 1.384 . S
N3718 C3714 1.427 . S
N3718 C3715 1.384 . S
N3719 C3711 1.427 . S
N3719 C3717 1.384 . S
H3720 C3726 0.930 . S
H3721 C3730 0.930 . S
H3722 C3735 0.929 . S
H3723 C3733 0.929 . S
H3724 C3728 0.929 . S
H3725 C3734 0.929 . S
C3726 H3720 0.930 . S
C3726 C3727 1.367 . S
C3726 C3734 1.378 . S
C3727 C3726 1.367 . S
C3727 C3735 1.433 . S
C3728 H3724 0.929 . S
C3728 C3730 1.378 . S
C3728 C3732 1.350 . S
C3729 C3732 1.463 . S
C3729 C3734 1.350 . S
C3729 N3737 1.427 . S
C3730 H3721 0.930 . S
C3730 C3728 1.378 . S
C3730 C3731 1.367 . S
C3731 C3730 1.367 . S
C3731 C3733 1.433 . S
C3732 C3728 1.350 . S
C3732 C3729 1.463 . S
C3732 N3736 1.427 . S
C3733 H3723 0.929 . S
C3733 C3731 1.433 . S
C3733 N3736 1.384 . S
C3734 H3725 0.929 . S
C3734 C3726 1.378 . S
C3734 C3729 1.350 . S
C3735 H3722 0.929 . S
C3735 C3727 1.433 . S
C3735 N3737 1.384 . S
N3736 C3732 1.427 . S
N3736 C3733 1.384 . S
N3737 C3729 1.427 . S
N3737 C3735 1.384 . S
H3738 C3744 0.930 . S
H3739 C3748 0.930 . S
H3740 C3753 0.929 . S
H3741 C3751 0.929 . S
H3742 C3746 0.929 . S
H3743 C3752 0.929 . S
C3744 H3738 0.930 . S
C3744 C3745 1.367 . S
C3744 C3752 1.378 . S
C3745 C3744 1.367 . S
C3745 C3753 1.433 . S
C3746 H3742 0.929 . S
C3746 C3748 1.378 . S
C3746 C3750 1.350 . S
C3747 C3750 1.463 . S
C3747 C3752 1.350 . S
C3747 N3755 1.427 . S
C3748 H3739 0.930 . S
C3748 C3746 1.378 . S
C3748 C3749 1.367 . S
C3749 C3748 1.367 . S
C3749 C3751 1.433 . S
C3750 C3746 1.350 . S
C3750 C3747 1.463 . S
C3750 N3754 1.427 . S
C3751 H3741 0.929 . S
C3751 C3749 1.433 . S
C3751 N3754 1.384 . S
C3752 H3743 0.929 . S
C3752 C3744 1.378 . S
C3752 C3747 1.350 . S
C3753 H3740 0.929 . S
C3753 C3745 1.433 . S
C3753 N3755 1.384 . S
N3754 C3750 1.427 . S
N3754 C3751 1.384 . S
N3755 C3747 1.427 . S
N3755 C3753 1.384 . S
H3756 C3762 0.930 . S
H3757 C3766 0.930 . S
H3758 C3771 0.929 . S
H3759 C3769 0.929 . S
H3760 C3764 0.929 . S
H3761 C3770 0.929 . S
C3762 H3756 0.930 . S
C3762 C3763 1.367 . S
C3762 C3770 1.378 . S
C3763 C3762 1.367 . S
C3763 C3771 1.433 . S
C3764 H3760 0.929 . S
C3764 C3766 1.378 . S
C3764 C3768 1.350 . S
C3765 C3768 1.463 . S
C3765 C3770 1.350 . S
C3765 N3773 1.427 . S
C3766 H3757 0.930 . S
C3766 C3764 1.378 . S
C3766 C3767 1.367 . S
C3767 C3766 1.367 . S
C3767 C3769 1.433 . S
C3768 C3764 1.350 . S
C3768 C3765 1.463 . S
C3768 N3772 1.427 . S
C3769 H3759 0.929 . S
C3769 C3767 1.433 . S
C3769 N3772 1.384 . S
C3770 H3761 0.929 . S
C3770 C3762 1.378 . S
C3770 C3765 1.350 . S
C3771 H3758 0.929 . S
C3771 C3763 1.433 . S
C3771 N3773 1.384 . S
N3772 C3768 1.427 . S
N3772 C3769 1.384 . S
N3773 C3765 1.427 . S
N3773 C3771 1.384 . S
H3774 C3780 0.930 . S
H3775 C3784 0.930 . S
H3776 C3789 0.929 . S
H3777 C3787 0.929 . S
H3778 C3782 0.929 . S
H3779 C3788 0.929 . S
C3780 H3774 0.930 . S
C3780 C3781 1.367 . S
C3780 C3788 1.378 . S
C3781 C3780 1.367 . S
C3781 C3789 1.433 . S
C3782 H3778 0.929 . S
C3782 C3784 1.378 . S
C3782 C3786 1.350 . S
C3783 C3786 1.463 . S
C3783 C3788 1.350 . S
C3783 N3791 1.427 . S
C3784 H3775 0.930 . S
C3784 C3782 1.378 . S
C3784 C3785 1.367 . S
C3785 C3784 1.367 . S
C3785 C3787 1.433 . S
C3786 C3782 1.350 . S
C3786 C3783 1.463 . S
C3786 N3790 1.427 . S
C3787 H3777 0.929 . S
C3787 C3785 1.433 . S
C3787 N3790 1.384 . S
C3788 H3779 0.929 . S
C3788 C3780 1.378 . S
C3788 C3783 1.350 . S
C3789 H3776 0.929 . S
C3789 C3781 1.433 . S
C3789 N3791 1.384 . S
N3790 C3786 1.427 . S
N3790 C3787 1.384 . S
N3791 C3783 1.427 . S
N3791 C3789 1.384 . S
H3792 C3798 0.930 . S
H3793 C3802 0.930 . S
H3794 C3807 0.929 . S
H3795 C3805 0.929 . S
H3796 C3800 0.929 . S
H3797 C3806 0.929 . S
C3798 H3792 0.930 . S
C3798 C3799 1.367 . S
C3798 C3806 1.378 . S
C3799 C3798 1.367 . S
C3799 C3807 1.433 . S
C3800 H3796 0.929 . S
C3800 C3802 1.378 . S
C3800 C3804 1.350 . S
C3801 C3804 1.463 . S
C3801 C3806 1.350 . S
C3801 N3809 1.427 . S
C3802 H3793 0.930 . S
C3802 C3800 1.378 . S
C3802 C3803 1.367 . S
C3803 C3802 1.367 . S
C3803 C3805 1.433 . S
C3804 C3800 1.350 . S
C3804 C3801 1.463 . S
C3804 N3808 1.427 . S
C3805 H3795 0.929 . S
C3805 C3803 1.433 . S
C3805 N3808 1.384 . S
C3806 H3797 0.929 . S
C3806 C3798 1.378 . S
C3806 C3801 1.350 . S
C3807 H3794 0.929 . S
C3807 C3799 1.433 . S
C3807 N3809 1.384 . S
N3808 C3804 1.427 . S
N3808 C3805 1.384 . S
N3809 C3801 1.427 . S
N3809 C3807 1.384 . S
H3810 C3816 0.930 . S
H3811 C3820 0.930 . S
H3812 C3825 0.929 . S
H3813 C3823 0.929 . S
H3814 C3818 0.929 . S
H3815 C3824 0.929 . S
C3816 H3810 0.930 . S
C3816 C3817 1.367 . S
C3816 C3824 1.378 . S
C3817 C3816 1.367 . S
C3817 C3825 1.433 . S
C3818 H3814 0.929 . S
C3818 C3820 1.378 . S
C3818 C3822 1.350 . S
C3819 C3822 1.463 . S
C3819 C3824 1.350 . S
C3819 N3827 1.427 . S
C3820 H3811 0.930 . S
C3820 C3818 1.378 . S
C3820 C3821 1.367 . S
C3821 C3820 1.367 . S
C3821 C3823 1.433 . S
C3822 C3818 1.350 . S
C3822 C3819 1.463 . S
C3822 N3826 1.427 . S
C3823 H3813 0.929 . S
C3823 C3821 1.433 . S
C3823 N3826 1.384 . S
C3824 H3815 0.929 . S
C3824 C3816 1.378 . S
C3824 C3819 1.350 . S
C3825 H3812 0.929 . S
C3825 C3817 1.433 . S
C3825 N3827 1.384 . S
N3826 C3822 1.427 . S
N3826 C3823 1.384 . S
N3827 C3819 1.427 . S
N3827 C3825 1.384 . S
H3828 C3834 0.930 . S
H3829 C3838 0.930 . S
H3830 C3843 0.929 . S
H3831 C3841 0.929 . S
H3832 C3836 0.929 . S
H3833 C3842 0.929 . S
C3834 H3828 0.930 . S
C3834 C3835 1.367 . S
C3834 C3842 1.378 . S
C3835 C3834 1.367 . S
C3835 C3843 1.433 . S
C3836 H3832 0.929 . S
C3836 C3838 1.378 . S
C3836 C3840 1.350 . S
C3837 C3840 1.463 . S
C3837 C3842 1.350 . S
C3837 N3845 1.427 . S
C3838 H3829 0.930 . S
C3838 C3836 1.378 . S
C3838 C3839 1.367 . S
C3839 C3838 1.367 . S
C3839 C3841 1.433 . S
C3840 C3836 1.350 . S
C3840 C3837 1.463 . S
C3840 N3844 1.427 . S
C3841 H3831 0.929 . S
C3841 C3839 1.433 . S
C3841 N3844 1.384 . S
C3842 H3833 0.929 . S
C3842 C3834 1.378 . S
C3842 C3837 1.350 . S
C3843 H3830 0.929 . S
C3843 C3835 1.433 . S
C3843 N3845 1.384 . S
N3844 C3840 1.427 . S
N3844 C3841 1.384 . S
N3845 C3837 1.427 . S
N3845 C3843 1.384 . S
H3846 C3852 0.930 . S
H3847 C3856 0.930 . S
H3848 C3861 0.929 . S
H3849 C3859 0.929 . S
H3850 C3854 0.929 . S
H3851 C3860 0.929 . S
C3852 H3846 0.930 . S
C3852 C3853 1.367 . S
C3852 C3860 1.378 . S
C3853 C3852 1.367 . S
C3853 C3861 1.433 . S
C3854 H3850 0.929 . S
C3854 C3856 1.378 . S
C3854 C3858 1.350 . S
C3855 C3858 1.463 . S
C3855 C3860 1.350 . S
C3855 N3863 1.427 . S
C3856 H3847 0.930 . S
C3856 C3854 1.378 . S
C3856 C3857 1.367 . S
C3857 C3856 1.367 . S
C3857 C3859 1.433 . S
C3858 C3854 1.350 . S
C3858 C3855 1.463 . S
C3858 N3862 1.427 . S
C3859 H3849 0.929 . S
C3859 C3857 1.433 . S
C3859 N3862 1.384 . S
C3860 H3851 0.929 . S
C3860 C3852 1.378 . S
C3860 C3855 1.350 . S
C3861 H3848 0.929 . S
C3861 C3853 1.433 . S
C3861 N3863 1.384 . S
N3862 C3858 1.427 . S
N3862 C3859 1.384 . S
N3863 C3855 1.427 . S
N3863 C3861 1.384 . S
H3864 C3870 0.930 . S
H3865 C3874 0.930 . S
H3866 C3879 0.929 . S
H3867 C3877 0.929 . S
H3868 C3872 0.929 . S
H3869 C3878 0.929 . S
C3870 H3864 0.930 . S
C3870 C3871 1.367 . S
C3870 C3878 1.378 . S
C3871 C3870 1.367 . S
C3871 C3879 1.433 . S
C3872 H3868 0.929 . S
C3872 C3874 1.378 . S
C3872 C3876 1.350 . S
C3873 C3876 1.463 . S
C3873 C3878 1.350 . S
C3873 N3881 1.427 . S
C3874 H3865 0.930 . S
C3874 C3872 1.378 . S
C3874 C3875 1.367 . S
C3875 C3874 1.367 . S
C3875 C3877 1.433 . S
C3876 C3872 1.350 . S
C3876 C3873 1.463 . S
C3876 N3880 1.427 . S
C3877 H3867 0.929 . S
C3877 C3875 1.433 . S
C3877 N3880 1.384 . S
C3878 H3869 0.929 . S
C3878 C3870 1.378 . S
C3878 C3873 1.350 . S
C3879 H3866 0.929 . S
C3879 C3871 1.433 . S
C3879 N3881 1.384 . S
N3880 C3876 1.427 . S
N3880 C3877 1.384 . S
N3881 C3873 1.427 . S
N3881 C3879 1.384 . S
H3882 C3888 0.930 . S
H3883 C3892 0.930 . S
H3884 C3897 0.929 . S
H3885 C3895 0.929 . S
H3886 C3890 0.929 . S
H3887 C3896 0.929 . S
C3888 H3882 0.930 . S
C3888 C3889 1.367 . S
C3888 C3896 1.378 . S
C3889 C3888 1.367 . S
C3889 C3897 1.433 . S
C3890 H3886 0.929 . S
C3890 C3892 1.378 . S
C3890 C3894 1.350 . S
C3891 C3894 1.463 . S
C3891 C3896 1.350 . S
C3891 N3899 1.427 . S
C3892 H3883 0.930 . S
C3892 C3890 1.378 . S
C3892 C3893 1.367 . S
C3893 C3892 1.367 . S
C3893 C3895 1.433 . S
C3894 C3890 1.350 . S
C3894 C3891 1.463 . S
C3894 N3898 1.427 . S
C3895 H3885 0.929 . S
C3895 C3893 1.433 . S
C3895 N3898 1.384 . S
C3896 H3887 0.929 . S
C3896 C3888 1.378 . S
C3896 C3891 1.350 . S
C3897 H3884 0.929 . S
C3897 C3889 1.433 . S
C3897 N3899 1.384 . S
N3898 C3894 1.427 . S
N3898 C3895 1.384 . S
N3899 C3891 1.427 . S
N3899 C3897 1.384 . S
H3900 C3906 0.930 . S
H3901 C3910 0.930 . S
H3902 C3915 0.929 . S
H3903 C3913 0.929 . S
H3904 C3908 0.929 . S
H3905 C3914 0.929 . S
C3906 H3900 0.930 . S
C3906 C3907 1.367 . S
C3906 C3914 1.378 . S
C3907 C3906 1.367 . S
C3907 C3915 1.433 . S
C3908 H3904 0.929 . S
C3908 C3910 1.378 . S
C3908 C3912 1.350 . S
C3909 C3912 1.463 . S
C3909 C3914 1.350 . S
C3909 N3917 1.427 . S
C3910 H3901 0.930 . S
C3910 C3908 1.378 . S
C3910 C3911 1.367 . S
C3911 C3910 1.367 . S
C3911 C3913 1.433 . S
C3912 C3908 1.350 . S
C3912 C3909 1.463 . S
C3912 N3916 1.427 . S
C3913 H3903 0.929 . S
C3913 C3911 1.433 . S
C3913 N3916 1.384 . S
C3914 H3905 0.929 . S
C3914 C3906 1.378 . S
C3914 C3909 1.350 . S
C3915 H3902 0.929 . S
C3915 C3907 1.433 . S
C3915 N3917 1.384 . S
N3916 C3912 1.427 . S
N3916 C3913 1.384 . S
N3917 C3909 1.427 . S
N3917 C3915 1.384 . S
H3918 C3924 0.930 . S
H3919 C3928 0.930 . S
H3920 C3933 0.929 . S
H3921 C3931 0.929 . S
H3922 C3926 0.929 . S
H3923 C3932 0.929 . S
C3924 H3918 0.930 . S
C3924 C3925 1.367 . S
C3924 C3932 1.378 . S
C3925 C3924 1.367 . S
C3925 C3933 1.433 . S
C3926 H3922 0.929 . S
C3926 C3928 1.378 . S
C3926 C3930 1.350 . S
C3927 C3930 1.463 . S
C3927 C3932 1.350 . S
C3927 N3935 1.427 . S
C3928 H3919 0.930 . S
C3928 C3926 1.378 . S
C3928 C3929 1.367 . S
C3929 C3928 1.367 . S
C3929 C3931 1.433 . S
C3930 C3926 1.350 . S
C3930 C3927 1.463 . S
C3930 N3934 1.427 . S
C3931 H3921 0.929 . S
C3931 C3929 1.433 . S
C3931 N3934 1.384 . S
C3932 H3923 0.929 . S
C3932 C3924 1.378 . S
C3932 C3927 1.350 . S
C3933 H3920 0.929 . S
C3933 C3925 1.433 . S
C3933 N3935 1.384 . S
N3934 C3930 1.427 . S
N3934 C3931 1.384 . S
N3935 C3927 1.427 . S
N3935 C3933 1.384 . S
H3936 C3942 0.930 . S
H3937 C3946 0.930 . S
H3938 C3951 0.929 . S
H3939 C3949 0.929 . S
H3940 C3944 0.929 . S
H3941 C3950 0.929 . S
C3942 H3936 0.930 . S
C3942 C3943 1.367 . S
C3942 C3950 1.378 . S
C3943 C3942 1.367 . S
C3943 C3951 1.433 . S
C3944 H3940 0.929 . S
C3944 C3946 1.378 . S
C3944 C3948 1.350 . S
C3945 C3948 1.463 . S
C3945 C3950 1.350 . S
C3945 N3953 1.427 . S
C3946 H3937 0.930 . S
C3946 C3944 1.378 . S
C3946 C3947 1.367 . S
C3947 C3946 1.367 . S
C3947 C3949 1.433 . S
C3948 C3944 1.350 . S
C3948 C3945 1.463 . S
C3948 N3952 1.427 . S
C3949 H3939 0.929 . S
C3949 C3947 1.433 . S
C3949 N3952 1.384 . S
C3950 H3941 0.929 . S
C3950 C3942 1.378 . S
C3950 C3945 1.350 . S
C3951 H3938 0.929 . S
C3951 C3943 1.433 . S
C3951 N3953 1.384 . S
N3952 C3948 1.427 . S
N3952 C3949 1.384 . S
N3953 C3945 1.427 . S
N3953 C3951 1.384 . S
H3954 C3960 0.930 . S
H3955 C3964 0.930 . S
H3956 C3969 0.929 . S
H3957 C3967 0.929 . S
H3958 C3962 0.929 . S
H3959 C3968 0.929 . S
C3960 H3954 0.930 . S
C3960 C3961 1.367 . S
C3960 C3968 1.378 . S
C3961 C3960 1.367 . S
C3961 C3969 1.433 . S
C3962 H3958 0.929 . S
C3962 C3964 1.378 . S
C3962 C3966 1.350 . S
C3963 C3966 1.463 . S
C3963 C3968 1.350 . S
C3963 N3971 1.427 . S
C3964 H3955 0.930 . S
C3964 C3962 1.378 . S
C3964 C3965 1.367 . S
C3965 C3964 1.367 . S
C3965 C3967 1.433 . S
C3966 C3962 1.350 . S
C3966 C3963 1.463 . S
C3966 N3970 1.427 . S
C3967 H3957 0.929 . S
C3967 C3965 1.433 . S
C3967 N3970 1.384 . S
C3968 H3959 0.929 . S
C3968 C3960 1.378 . S
C3968 C3963 1.350 . S
C3969 H3956 0.929 . S
C3969 C3961 1.433 . S
C3969 N3971 1.384 . S
N3970 C3966 1.427 . S
N3970 C3967 1.384 . S
N3971 C3963 1.427 . S
N3971 C3969 1.384 . S
H3972 C3978 0.930 . S
H3973 C3982 0.930 . S
H3974 C3987 0.929 . S
H3975 C3985 0.929 . S
H3976 C3980 0.929 . S
H3977 C3986 0.929 . S
C3978 H3972 0.930 . S
C3978 C3979 1.367 . S
C3978 C3986 1.378 . S
C3979 C3978 1.367 . S
C3979 C3987 1.433 . S
C3980 H3976 0.929 . S
C3980 C3982 1.378 . S
C3980 C3984 1.350 . S
C3981 C3984 1.463 . S
C3981 C3986 1.350 . S
C3981 N3989 1.427 . S
C3982 H3973 0.930 . S
C3982 C3980 1.378 . S
C3982 C3983 1.367 . S
C3983 C3982 1.367 . S
C3983 C3985 1.433 . S
C3984 C3980 1.350 . S
C3984 C3981 1.463 . S
C3984 N3988 1.427 . S
C3985 H3975 0.929 . S
C3985 C3983 1.433 . S
C3985 N3988 1.384 . S
C3986 H3977 0.929 . S
C3986 C3978 1.378 . S
C3986 C3981 1.350 . S
C3987 H3974 0.929 . S
C3987 C3979 1.433 . S
C3987 N3989 1.384 . S
N3988 C3984 1.427 . S
N3988 C3985 1.384 . S
N3989 C3981 1.427 . S
N3989 C3987 1.384 . S
H3990 C3996 0.930 . S
H3991 C4000 0.930 . S
H3992 C4005 0.929 . S
H3993 C4003 0.929 . S
H3994 C3998 0.929 . S
H3995 C4004 0.929 . S
C3996 H3990 0.930 . S
C3996 C3997 1.367 . S
C3996 C4004 1.378 . S
C3997 C3996 1.367 . S
C3997 C4005 1.433 . S
C3998 H3994 0.929 . S
C3998 C4000 1.378 . S
C3998 C4002 1.350 . S
C3999 C4002 1.463 . S
C3999 C4004 1.350 . S
C3999 N4007 1.427 . S
C4000 H3991 0.930 . S
C4000 C3998 1.378 . S
C4000 C4001 1.367 . S
C4001 C4000 1.367 . S
C4001 C4003 1.433 . S
C4002 C3998 1.350 . S
C4002 C3999 1.463 . S
C4002 N4006 1.427 . S
C4003 H3993 0.929 . S
C4003 C4001 1.433 . S
C4003 N4006 1.384 . S
C4004 H3995 0.929 . S
C4004 C3996 1.378 . S
C4004 C3999 1.350 . S
C4005 H3992 0.929 . S
C4005 C3997 1.433 . S
C4005 N4007 1.384 . S
N4006 C4002 1.427 . S
N4006 C4003 1.384 . S
N4007 C3999 1.427 . S
N4007 C4005 1.384 . S
H4008 C4014 0.930 . S
H4009 C4018 0.930 . S
H4010 C4023 0.929 . S
H4011 C4021 0.929 . S
H4012 C4016 0.929 . S
H4013 C4022 0.929 . S
C4014 H4008 0.930 . S
C4014 C4015 1.367 . S
C4014 C4022 1.378 . S
C4015 C4014 1.367 . S
C4015 C4023 1.433 . S
C4016 H4012 0.929 . S
C4016 C4018 1.378 . S
C4016 C4020 1.350 . S
C4017 C4020 1.463 . S
C4017 C4022 1.350 . S
C4017 N4025 1.427 . S
C4018 H4009 0.930 . S
C4018 C4016 1.378 . S
C4018 C4019 1.367 . S
C4019 C4018 1.367 . S
C4019 C4021 1.433 . S
C4020 C4016 1.350 . S
C4020 C4017 1.463 . S
C4020 N4024 1.427 . S
C4021 H4011 0.929 . S
C4021 C4019 1.433 . S
C4021 N4024 1.384 . S
C4022 H4013 0.929 . S
C4022 C4014 1.378 . S
C4022 C4017 1.350 . S
C4023 H4010 0.929 . S
C4023 C4015 1.433 . S
C4023 N4025 1.384 . S
N4024 C4020 1.427 . S
N4024 C4021 1.384 . S
N4025 C4017 1.427 . S
N4025 C4023 1.384 . S
H4026 C4032 0.930 . S
H4027 C4036 0.930 . S
H4028 C4041 0.929 . S
H4029 C4039 0.929 . S
H4030 C4034 0.929 . S
H4031 C4040 0.929 . S
C4032 H4026 0.930 . S
C4032 C4033 1.367 . S
C4032 C4040 1.378 . S
C4033 C4032 1.367 . S
C4033 C4041 1.433 . S
C4034 H4030 0.929 . S
C4034 C4036 1.378 . S
C4034 C4038 1.350 . S
C4035 C4038 1.463 . S
C4035 C4040 1.350 . S
C4035 N4043 1.427 . S
C4036 H4027 0.930 . S
C4036 C4034 1.378 . S
C4036 C4037 1.367 . S
C4037 C4036 1.367 . S
C4037 C4039 1.433 . S
C4038 C4034 1.350 . S
C4038 C4035 1.463 . S
C4038 N4042 1.427 . S
C4039 H4029 0.929 . S
C4039 C4037 1.433 . S
C4039 N4042 1.384 . S
C4040 H4031 0.929 . S
C4040 C4032 1.378 . S
C4040 C4035 1.350 . S
C4041 H4028 0.929 . S
C4041 C4033 1.433 . S
C4041 N4043 1.384 . S
N4042 C4038 1.427 . S
N4042 C4039 1.384 . S
N4043 C4035 1.427 . S
N4043 C4041 1.384 . S
H4044 C4050 0.930 . S
H4045 C4054 0.930 . S
H4046 C4059 0.929 . S
H4047 C4057 0.929 . S
H4048 C4052 0.929 . S
H4049 C4058 0.929 . S
C4050 H4044 0.930 . S
C4050 C4051 1.367 . S
C4050 C4058 1.378 . S
C4051 C4050 1.367 . S
C4051 C4059 1.433 . S
C4052 H4048 0.929 . S
C4052 C4054 1.378 . S
C4052 C4056 1.350 . S
C4053 C4056 1.463 . S
C4053 C4058 1.350 . S
C4053 N4061 1.427 . S
C4054 H4045 0.930 . S
C4054 C4052 1.378 . S
C4054 C4055 1.367 . S
C4055 C4054 1.367 . S
C4055 C4057 1.433 . S
C4056 C4052 1.350 . S
C4056 C4053 1.463 . S
C4056 N4060 1.427 . S
C4057 H4047 0.929 . S
C4057 C4055 1.433 . S
C4057 N4060 1.384 . S
C4058 H4049 0.929 . S
C4058 C4050 1.378 . S
C4058 C4053 1.350 . S
C4059 H4046 0.929 . S
C4059 C4051 1.433 . S
C4059 N4061 1.384 . S
N4060 C4056 1.427 . S
N4060 C4057 1.384 . S
N4061 C4053 1.427 . S
N4061 C4059 1.384 . S
H4062 C4068 0.930 . S
H4063 C4072 0.930 . S
H4064 C4077 0.929 . S
H4065 C4075 0.929 . S
H4066 C4070 0.929 . S
H4067 C4076 0.929 . S
C4068 H4062 0.930 . S
C4068 C4069 1.367 . S
C4068 C4076 1.378 . S
C4069 C4068 1.367 . S
C4069 C4077 1.433 . S
C4070 H4066 0.929 . S
C4070 C4072 1.378 . S
C4070 C4074 1.350 . S
C4071 C4074 1.463 . S
C4071 C4076 1.350 . S
C4071 N4079 1.427 . S
C4072 H4063 0.930 . S
C4072 C4070 1.378 . S
C4072 C4073 1.367 . S
C4073 C4072 1.367 . S
C4073 C4075 1.433 . S
C4074 C4070 1.350 . S
C4074 C4071 1.463 . S
C4074 N4078 1.427 . S
C4075 H4065 0.929 . S
C4075 C4073 1.433 . S
C4075 N4078 1.384 . S
C4076 H4067 0.929 . S
C4076 C4068 1.378 . S
C4076 C4071 1.350 . S
C4077 H4064 0.929 . S
C4077 C4069 1.433 . S
C4077 N4079 1.384 . S
N4078 C4074 1.427 . S
N4078 C4075 1.384 . S
N4079 C4071 1.427 . S
N4079 C4077 1.384 . S
H4080 C4086 0.930 . S
H4081 C4090 0.930 . S
H4082 C4095 0.929 . S
H4083 C4093 0.929 . S
H4084 C4088 0.929 . S
H4085 C4094 0.929 . S
C4086 H4080 0.930 . S
C4086 C4087 1.367 . S
C4086 C4094 1.378 . S
C4087 C4086 1.367 . S
C4087 C4095 1.433 . S
C4088 H4084 0.929 . S
C4088 C4090 1.378 . S
C4088 C4092 1.350 . S
C4089 C4092 1.463 . S
C4089 C4094 1.350 . S
C4089 N4097 1.427 . S
C4090 H4081 0.930 . S
C4090 C4088 1.378 . S
C4090 C4091 1.367 . S
C4091 C4090 1.367 . S
C4091 C4093 1.433 . S
C4092 C4088 1.350 . S
C4092 C4089 1.463 . S
C4092 N4096 1.427 . S
C4093 H4083 0.929 . S
C4093 C4091 1.433 . S
C4093 N4096 1.384 . S
C4094 H4085 0.929 . S
C4094 C4086 1.378 . S
C4094 C4089 1.350 . S
C4095 H4082 0.929 . S
C4095 C4087 1.433 . S
C4095 N4097 1.384 . S
N4096 C4092 1.427 . S
N4096 C4093 1.384 . S
N4097 C4089 1.427 . S
N4097 C4095 1.384 . S
H4098 C4104 0.930 . S
H4099 C4108 0.930 . S
H4100 C4113 0.929 . S
H4101 C4111 0.929 . S
H4102 C4106 0.929 . S
H4103 C4112 0.929 . S
C4104 H4098 0.930 . S
C4104 C4105 1.367 . S
C4104 C4112 1.378 . S
C4105 C4104 1.367 . S
C4105 C4113 1.433 . S
C4106 H4102 0.929 . S
C4106 C4108 1.378 . S
C4106 C4110 1.350 . S
C4107 C4110 1.463 . S
C4107 C4112 1.350 . S
C4107 N4115 1.427 . S
C4108 H4099 0.930 . S
C4108 C4106 1.378 . S
C4108 C4109 1.367 . S
C4109 C4108 1.367 . S
C4109 C4111 1.433 . S
C4110 C4106 1.350 . S
C4110 C4107 1.463 . S
C4110 N4114 1.427 . S
C4111 H4101 0.929 . S
C4111 C4109 1.433 . S
C4111 N4114 1.384 . S
C4112 H4103 0.929 . S
C4112 C4104 1.378 . S
C4112 C4107 1.350 . S
C4113 H4100 0.929 . S
C4113 C4105 1.433 . S
C4113 N4115 1.384 . S
N4114 C4110 1.427 . S
N4114 C4111 1.384 . S
N4115 C4107 1.427 . S
N4115 C4113 1.384 . S
H4116 C4122 0.930 . S
H4117 C4126 0.930 . S
H4118 C4131 0.929 . S
H4119 C4129 0.929 . S
H4120 C4124 0.929 . S
H4121 C4130 0.929 . S
C4122 H4116 0.930 . S
C4122 C4123 1.367 . S
C4122 C4130 1.378 . S
C4123 C4122 1.367 . S
C4123 C4131 1.433 . S
C4124 H4120 0.929 . S
C4124 C4126 1.378 . S
C4124 C4128 1.350 . S
C4125 C4128 1.463 . S
C4125 C4130 1.350 . S
C4125 N4133 1.427 . S
C4126 H4117 0.930 . S
C4126 C4124 1.378 . S
C4126 C4127 1.367 . S
C4127 C4126 1.367 . S
C4127 C4129 1.433 . S
C4128 C4124 1.350 . S
C4128 C4125 1.463 . S
C4128 N4132 1.427 . S
C4129 H4119 0.929 . S
C4129 C4127 1.433 . S
C4129 N4132 1.384 . S
C4130 H4121 0.929 . S
C4130 C4122 1.378 . S
C4130 C4125 1.350 . S
C4131 H4118 0.929 . S
C4131 C4123 1.433 . S
C4131 N4133 1.384 . S
N4132 C4128 1.427 . S
N4132 C4129 1.384 . S
N4133 C4125 1.427 . S
N4133 C4131 1.384 . S
H4134 C4140 0.930 . S
H4135 C4144 0.930 . S
H4136 C4149 0.929 . S
H4137 C4147 0.929 . S
H4138 C4142 0.929 . S
H4139 C4148 0.929 . S
C4140 H4134 0.930 . S
C4140 C4141 1.367 . S
C4140 C4148 1.378 . S
C4141 C4140 1.367 . S
C4141 C4149 1.433 . S
C4142 H4138 0.929 . S
C4142 C4144 1.378 . S
C4142 C4146 1.350 . S
C4143 C4146 1.463 . S
C4143 C4148 1.350 . S
C4143 N4151 1.427 . S
C4144 H4135 0.930 . S
C4144 C4142 1.378 . S
C4144 C4145 1.367 . S
C4145 C4144 1.367 . S
C4145 C4147 1.433 . S
C4146 C4142 1.350 . S
C4146 C4143 1.463 . S
C4146 N4150 1.427 . S
C4147 H4137 0.929 . S
C4147 C4145 1.433 . S
C4147 N4150 1.384 . S
C4148 H4139 0.929 . S
C4148 C4140 1.378 . S
C4148 C4143 1.350 . S
C4149 H4136 0.929 . S
C4149 C4141 1.433 . S
C4149 N4151 1.384 . S
N4150 C4146 1.427 . S
N4150 C4147 1.384 . S
N4151 C4143 1.427 . S
N4151 C4149 1.384 . S
H4152 C4158 0.930 . S
H4153 C4162 0.930 . S
H4154 C4167 0.929 . S
H4155 C4165 0.929 . S
H4156 C4160 0.929 . S
H4157 C4166 0.929 . S
C4158 H4152 0.930 . S
C4158 C4159 1.367 . S
C4158 C4166 1.378 . S
C4159 C4158 1.367 . S
C4159 C4167 1.433 . S
C4160 H4156 0.929 . S
C4160 C4162 1.378 . S
C4160 C4164 1.350 . S
C4161 C4164 1.463 . S
C4161 C4166 1.350 . S
C4161 N4169 1.427 . S
C4162 H4153 0.930 . S
C4162 C4160 1.378 . S
C4162 C4163 1.367 . S
C4163 C4162 1.367 . S
C4163 C4165 1.433 . S
C4164 C4160 1.350 . S
C4164 C4161 1.463 . S
C4164 N4168 1.427 . S
C4165 H4155 0.929 . S
C4165 C4163 1.433 . S
C4165 N4168 1.384 . S
C4166 H4157 0.929 . S
C4166 C4158 1.378 . S
C4166 C4161 1.350 . S
C4167 H4154 0.929 . S
C4167 C4159 1.433 . S
C4167 N4169 1.384 . S
N4168 C4164 1.427 . S
N4168 C4165 1.384 . S
N4169 C4161 1.427 . S
N4169 C4167 1.384 . S
H4170 C4176 0.930 . S
H4171 C4180 0.930 . S
H4172 C4185 0.929 . S
H4173 C4183 0.929 . S
H4174 C4178 0.929 . S
H4175 C4184 0.929 . S
C4176 H4170 0.930 . S
C4176 C4177 1.367 . S
C4176 C4184 1.378 . S
C4177 C4176 1.367 . S
C4177 C4185 1.433 . S
C4178 H4174 0.929 . S
C4178 C4180 1.378 . S
C4178 C4182 1.350 . S
C4179 C4182 1.463 . S
C4179 C4184 1.350 . S
C4179 N4187 1.427 . S
C4180 H4171 0.930 . S
C4180 C4178 1.378 . S
C4180 C4181 1.367 . S
C4181 C4180 1.367 . S
C4181 C4183 1.433 . S
C4182 C4178 1.350 . S
C4182 C4179 1.463 . S
C4182 N4186 1.427 . S
C4183 H4173 0.929 . S
C4183 C4181 1.433 . S
C4183 N4186 1.384 . S
C4184 H4175 0.929 . S
C4184 C4176 1.378 . S
C4184 C4179 1.350 . S
C4185 H4172 0.929 . S
C4185 C4177 1.433 . S
C4185 N4187 1.384 . S
N4186 C4182 1.427 . S
N4186 C4183 1.384 . S
N4187 C4179 1.427 . S
N4187 C4185 1.384 . S
H4188 C4194 0.930 . S
H4189 C4198 0.930 . S
H4190 C4203 0.929 . S
H4191 C4201 0.929 . S
H4192 C4196 0.929 . S
H4193 C4202 0.929 . S
C4194 H4188 0.930 . S
C4194 C4195 1.367 . S
C4194 C4202 1.378 . S
C4195 C4194 1.367 . S
C4195 C4203 1.433 . S
C4196 H4192 0.929 . S
C4196 C4198 1.378 . S
C4196 C4200 1.350 . S
C4197 C4200 1.463 . S
C4197 C4202 1.350 . S
C4197 N4205 1.427 . S
C4198 H4189 0.930 . S
C4198 C4196 1.378 . S
C4198 C4199 1.367 . S
C4199 C4198 1.367 . S
C4199 C4201 1.433 . S
C4200 C4196 1.350 . S
C4200 C4197 1.463 . S
C4200 N4204 1.427 . S
C4201 H4191 0.929 . S
C4201 C4199 1.433 . S
C4201 N4204 1.384 . S
C4202 H4193 0.929 . S
C4202 C4194 1.378 . S
C4202 C4197 1.350 . S
C4203 H4190 0.929 . S
C4203 C4195 1.433 . S
C4203 N4205 1.384 . S
N4204 C4200 1.427 . S
N4204 C4201 1.384 . S
N4205 C4197 1.427 . S
N4205 C4203 1.384 . S
H4206 C4212 0.930 . S
H4207 C4216 0.930 . S
H4208 C4221 0.929 . S
H4209 C4219 0.929 . S
H4210 C4214 0.929 . S
H4211 C4220 0.929 . S
C4212 H4206 0.930 . S
C4212 C4213 1.367 . S
C4212 C4220 1.378 . S
C4213 C4212 1.367 . S
C4213 C4221 1.433 . S
C4214 H4210 0.929 . S
C4214 C4216 1.378 . S
C4214 C4218 1.350 . S
C4215 C4218 1.463 . S
C4215 C4220 1.350 . S
C4215 N4223 1.427 . S
C4216 H4207 0.930 . S
C4216 C4214 1.378 . S
C4216 C4217 1.367 . S
C4217 C4216 1.367 . S
C4217 C4219 1.433 . S
C4218 C4214 1.350 . S
C4218 C4215 1.463 . S
C4218 N4222 1.427 . S
C4219 H4209 0.929 . S
C4219 C4217 1.433 . S
C4219 N4222 1.384 . S
C4220 H4211 0.929 . S
C4220 C4212 1.378 . S
C4220 C4215 1.350 . S
C4221 H4208 0.929 . S
C4221 C4213 1.433 . S
C4221 N4223 1.384 . S
N4222 C4218 1.427 . S
N4222 C4219 1.384 . S
N4223 C4215 1.427 . S
N4223 C4221 1.384 . S
H4224 C4230 0.930 . S
H4225 C4234 0.930 . S
H4226 C4239 0.929 . S
H4227 C4237 0.929 . S
H4228 C4232 0.929 . S
H4229 C4238 0.929 . S
C4230 H4224 0.930 . S
C4230 C4231 1.367 . S
C4230 C4238 1.378 . S
C4231 C4230 1.367 . S
C4231 C4239 1.433 . S
C4232 H4228 0.929 . S
C4232 C4234 1.378 . S
C4232 C4236 1.350 . S
C4233 C4236 1.463 . S
C4233 C4238 1.350 . S
C4233 N4241 1.427 . S
C4234 H4225 0.930 . S
C4234 C4232 1.378 . S
C4234 C4235 1.367 . S
C4235 C4234 1.367 . S
C4235 C4237 1.433 . S
C4236 C4232 1.350 . S
C4236 C4233 1.463 . S
C4236 N4240 1.427 . S
C4237 H4227 0.929 . S
C4237 C4235 1.433 . S
C4237 N4240 1.384 . S
C4238 H4229 0.929 . S
C4238 C4230 1.378 . S
C4238 C4233 1.350 . S
C4239 H4226 0.929 . S
C4239 C4231 1.433 . S
C4239 N4241 1.384 . S
N4240 C4236 1.427 . S
N4240 C4237 1.384 . S
N4241 C4233 1.427 . S
N4241 C4239 1.384 . S
H4242 C4248 0.930 . S
H4243 C4252 0.930 . S
H4244 C4257 0.929 . S
H4245 C4255 0.929 . S
H4246 C4250 0.929 . S
H4247 C4256 0.929 . S
C4248 H4242 0.930 . S
C4248 C4249 1.367 . S
C4248 C4256 1.378 . S
C4249 C4248 1.367 . S
C4249 C4257 1.433 . S
C4250 H4246 0.929 . S
C4250 C4252 1.378 . S
C4250 C4254 1.350 . S
C4251 C4254 1.463 . S
C4251 C4256 1.350 . S
C4251 N4259 1.427 . S
C4252 H4243 0.930 . S
C4252 C4250 1.378 . S
C4252 C4253 1.367 . S
C4253 C4252 1.367 . S
C4253 C4255 1.433 . S
C4254 C4250 1.350 . S
C4254 C4251 1.463 . S
C4254 N4258 1.427 . S
C4255 H4245 0.929 . S
C4255 C4253 1.433 . S
C4255 N4258 1.384 . S
C4256 H4247 0.929 . S
C4256 C4248 1.378 . S
C4256 C4251 1.350 . S
C4257 H4244 0.929 . S
C4257 C4249 1.433 . S
C4257 N4259 1.384 . S
N4258 C4254 1.427 . S
N4258 C4255 1.384 . S
N4259 C4251 1.427 . S
N4259 C4257 1.384 . S
H4260 C4266 0.930 . S
H4261 C4270 0.930 . S
H4262 C4275 0.929 . S
H4263 C4273 0.929 . S
H4264 C4268 0.929 . S
H4265 C4274 0.929 . S
C4266 H4260 0.930 . S
C4266 C4267 1.367 . S
C4266 C4274 1.378 . S
C4267 C4266 1.367 . S
C4267 C4275 1.433 . S
C4268 H4264 0.929 . S
C4268 C4270 1.378 . S
C4268 C4272 1.350 . S
C4269 C4272 1.463 . S
C4269 C4274 1.350 . S
C4269 N4277 1.427 . S
C4270 H4261 0.930 . S
C4270 C4268 1.378 . S
C4270 C4271 1.367 . S
C4271 C4270 1.367 . S
C4271 C4273 1.433 . S
C4272 C4268 1.350 . S
C4272 C4269 1.463 . S
C4272 N4276 1.427 . S
C4273 H4263 0.929 . S
C4273 C4271 1.433 . S
C4273 N4276 1.384 . S
C4274 H4265 0.929 . S
C4274 C4266 1.378 . S
C4274 C4269 1.350 . S
C4275 H4262 0.929 . S
C4275 C4267 1.433 . S
C4275 N4277 1.384 . S
N4276 C4272 1.427 . S
N4276 C4273 1.384 . S
N4277 C4269 1.427 . S
N4277 C4275 1.384 . S
H4278 C4284 0.930 . S
H4279 C4288 0.930 . S
H4280 C4293 0.929 . S
H4281 C4291 0.929 . S
H4282 C4286 0.929 . S
H4283 C4292 0.929 . S
C4284 H4278 0.930 . S
C4284 C4285 1.367 . S
C4284 C4292 1.378 . S
C4285 C4284 1.367 . S
C4285 C4293 1.433 . S
C4286 H4282 0.929 . S
C4286 C4288 1.378 . S
C4286 C4290 1.350 . S
C4287 C4290 1.463 . S
C4287 C4292 1.350 . S
C4287 N4295 1.427 . S
C4288 H4279 0.930 . S
C4288 C4286 1.378 . S
C4288 C4289 1.367 . S
C4289 C4288 1.367 . S
C4289 C4291 1.433 . S
C4290 C4286 1.350 . S
C4290 C4287 1.463 . S
C4290 N4294 1.427 . S
C4291 H4281 0.929 . S
C4291 C4289 1.433 . S
C4291 N4294 1.384 . S
C4292 H4283 0.929 . S
C4292 C4284 1.378 . S
C4292 C4287 1.350 . S
C4293 H4280 0.929 . S
C4293 C4285 1.433 . S
C4293 N4295 1.384 . S
N4294 C4290 1.427 . S
N4294 C4291 1.384 . S
N4295 C4287 1.427 . S
N4295 C4293 1.384 . S
H4296 C4302 0.930 . S
H4297 C4306 0.930 . S
H4298 C4311 0.929 . S
H4299 C4309 0.929 . S
H4300 C4304 0.929 . S
H4301 C4310 0.929 . S
C4302 H4296 0.930 . S
C4302 C4303 1.367 . S
C4302 C4310 1.378 . S
C4303 C4302 1.367 . S
C4303 C4311 1.433 . S
C4304 H4300 0.929 . S
C4304 C4306 1.378 . S
C4304 C4308 1.350 . S
C4305 C4308 1.463 . S
C4305 C4310 1.350 . S
C4305 N4313 1.427 . S
C4306 H4297 0.930 . S
C4306 C4304 1.378 . S
C4306 C4307 1.367 . S
C4307 C4306 1.367 . S
C4307 C4309 1.433 . S
C4308 C4304 1.350 . S
C4308 C4305 1.463 . S
C4308 N4312 1.427 . S
C4309 H4299 0.929 . S
C4309 C4307 1.433 . S
C4309 N4312 1.384 . S
C4310 H4301 0.929 . S
C4310 C4302 1.378 . S
C4310 C4305 1.350 . S
C4311 H4298 0.929 . S
C4311 C4303 1.433 . S
C4311 N4313 1.384 . S
N4312 C4308 1.427 . S
N4312 C4309 1.384 . S
N4313 C4305 1.427 . S
N4313 C4311 1.384 . S
H4314 C4320 0.930 . S
H4315 C4324 0.930 . S
H4316 C4329 0.929 . S
H4317 C4327 0.929 . S
H4318 C4322 0.929 . S
H4319 C4328 0.929 . S
C4320 H4314 0.930 . S
C4320 C4321 1.367 . S
C4320 C4328 1.378 . S
C4321 C4320 1.367 . S
C4321 C4329 1.433 . S
C4322 H4318 0.929 . S
C4322 C4324 1.378 . S
C4322 C4326 1.350 . S
C4323 C4326 1.463 . S
C4323 C4328 1.350 . S
C4323 N4331 1.427 . S
C4324 H4315 0.930 . S
C4324 C4322 1.378 . S
C4324 C4325 1.367 . S
C4325 C4324 1.367 . S
C4325 C4327 1.433 . S
C4326 C4322 1.350 . S
C4326 C4323 1.463 . S
C4326 N4330 1.427 . S
C4327 H4317 0.929 . S
C4327 C4325 1.433 . S
C4327 N4330 1.384 . S
C4328 H4319 0.929 . S
C4328 C4320 1.378 . S
C4328 C4323 1.350 . S
C4329 H4316 0.929 . S
C4329 C4321 1.433 . S
C4329 N4331 1.384 . S
N4330 C4326 1.427 . S
N4330 C4327 1.384 . S
N4331 C4323 1.427 . S
N4331 C4329 1.384 . S
H4332 C4338 0.930 . S
H4333 C4342 0.930 . S
H4334 C4347 0.929 . S
H4335 C4345 0.929 . S
H4336 C4340 0.929 . S
H4337 C4346 0.929 . S
C4338 H4332 0.930 . S
C4338 C4339 1.367 . S
C4338 C4346 1.378 . S
C4339 C4338 1.367 . S
C4339 C4347 1.433 . S
C4340 H4336 0.929 . S
C4340 C4342 1.378 . S
C4340 C4344 1.350 . S
C4341 C4344 1.463 . S
C4341 C4346 1.350 . S
C4341 N4349 1.427 . S
C4342 H4333 0.930 . S
C4342 C4340 1.378 . S
C4342 C4343 1.367 . S
C4343 C4342 1.367 . S
C4343 C4345 1.433 . S
C4344 C4340 1.350 . S
C4344 C4341 1.463 . S
C4344 N4348 1.427 . S
C4345 H4335 0.929 . S
C4345 C4343 1.433 . S
C4345 N4348 1.384 . S
C4346 H4337 0.929 . S
C4346 C4338 1.378 . S
C4346 C4341 1.350 . S
C4347 H4334 0.929 . S
C4347 C4339 1.433 . S
C4347 N4349 1.384 . S
N4348 C4344 1.427 . S
N4348 C4345 1.384 . S
N4349 C4341 1.427 . S
N4349 C4347 1.384 . S
H4350 C4356 0.930 . S
H4351 C4360 0.930 . S
H4352 C4365 0.929 . S
H4353 C4363 0.929 . S
H4354 C4358 0.929 . S
H4355 C4364 0.929 . S
C4356 H4350 0.930 . S
C4356 C4357 1.367 . S
C4356 C4364 1.378 . S
C4357 C4356 1.367 . S
C4357 C4365 1.433 . S
C4358 H4354 0.929 . S
C4358 C4360 1.378 . S
C4358 C4362 1.350 . S
C4359 C4362 1.463 . S
C4359 C4364 1.350 . S
C4359 N4367 1.427 . S
C4360 H4351 0.930 . S
C4360 C4358 1.378 . S
C4360 C4361 1.367 . S
C4361 C4360 1.367 . S
C4361 C4363 1.433 . S
C4362 C4358 1.350 . S
C4362 C4359 1.463 . S
C4362 N4366 1.427 . S
C4363 H4353 0.929 . S
C4363 C4361 1.433 . S
C4363 N4366 1.384 . S
C4364 H4355 0.929 . S
C4364 C4356 1.378 . S
C4364 C4359 1.350 . S
C4365 H4352 0.929 . S
C4365 C4357 1.433 . S
C4365 N4367 1.384 . S
N4366 C4362 1.427 . S
N4366 C4363 1.384 . S
N4367 C4359 1.427 . S
N4367 C4365 1.384 . S
H4368 C4374 0.930 . S
H4369 C4378 0.930 . S
H4370 C4383 0.929 . S
H4371 C4381 0.929 . S
H4372 C4376 0.929 . S
H4373 C4382 0.929 . S
C4374 H4368 0.930 . S
C4374 C4375 1.367 . S
C4374 C4382 1.378 . S
C4375 C4374 1.367 . S
C4375 C4383 1.433 . S
C4376 H4372 0.929 . S
C4376 C4378 1.378 . S
C4376 C4380 1.350 . S
C4377 C4380 1.463 . S
C4377 C4382 1.350 . S
C4377 N4385 1.427 . S
C4378 H4369 0.930 . S
C4378 C4376 1.378 . S
C4378 C4379 1.367 . S
C4379 C4378 1.367 . S
C4379 C4381 1.433 . S
C4380 C4376 1.350 . S
C4380 C4377 1.463 . S
C4380 N4384 1.427 . S
C4381 H4371 0.929 . S
C4381 C4379 1.433 . S
C4381 N4384 1.384 . S
C4382 H4373 0.929 . S
C4382 C4374 1.378 . S
C4382 C4377 1.350 . S
C4383 H4370 0.929 . S
C4383 C4375 1.433 . S
C4383 N4385 1.384 . S
N4384 C4380 1.427 . S
N4384 C4381 1.384 . S
N4385 C4377 1.427 . S
N4385 C4383 1.384 . S
H4386 C4392 0.930 . S
H4387 C4396 0.930 . S
H4388 C4401 0.929 . S
H4389 C4399 0.929 . S
H4390 C4394 0.929 . S
H4391 C4400 0.929 . S
C4392 H4386 0.930 . S
C4392 C4393 1.367 . S
C4392 C4400 1.378 . S
C4393 C4392 1.367 . S
C4393 C4401 1.433 . S
C4394 H4390 0.929 . S
C4394 C4396 1.378 . S
C4394 C4398 1.350 . S
C4395 C4398 1.463 . S
C4395 C4400 1.350 . S
C4395 N4403 1.427 . S
C4396 H4387 0.930 . S
C4396 C4394 1.378 . S
C4396 C4397 1.367 . S
C4397 C4396 1.367 . S
C4397 C4399 1.433 . S
C4398 C4394 1.350 . S
C4398 C4395 1.463 . S
C4398 N4402 1.427 . S
C4399 H4389 0.929 . S
C4399 C4397 1.433 . S
C4399 N4402 1.384 . S
C4400 H4391 0.929 . S
C4400 C4392 1.378 . S
C4400 C4395 1.350 . S
C4401 H4388 0.929 . S
C4401 C4393 1.433 . S
C4401 N4403 1.384 . S
N4402 C4398 1.427 . S
N4402 C4399 1.384 . S
N4403 C4395 1.427 . S
N4403 C4401 1.384 . S
H4404 C4410 0.930 . S
H4405 C4414 0.930 . S
H4406 C4419 0.929 . S
H4407 C4417 0.929 . S
H4408 C4412 0.929 . S
H4409 C4418 0.929 . S
C4410 H4404 0.930 . S
C4410 C4411 1.367 . S
C4410 C4418 1.378 . S
C4411 C4410 1.367 . S
C4411 C4419 1.433 . S
C4412 H4408 0.929 . S
C4412 C4414 1.378 . S
C4412 C4416 1.350 . S
C4413 C4416 1.463 . S
C4413 C4418 1.350 . S
C4413 N4421 1.427 . S
C4414 H4405 0.930 . S
C4414 C4412 1.378 . S
C4414 C4415 1.367 . S
C4415 C4414 1.367 . S
C4415 C4417 1.433 . S
C4416 C4412 1.350 . S
C4416 C4413 1.463 . S
C4416 N4420 1.427 . S
C4417 H4407 0.929 . S
C4417 C4415 1.433 . S
C4417 N4420 1.384 . S
C4418 H4409 0.929 . S
C4418 C4410 1.378 . S
C4418 C4413 1.350 . S
C4419 H4406 0.929 . S
C4419 C4411 1.433 . S
C4419 N4421 1.384 . S
N4420 C4416 1.427 . S
N4420 C4417 1.384 . S
N4421 C4413 1.427 . S
N4421 C4419 1.384 . S
H4422 C4428 0.930 . S
H4423 C4432 0.930 . S
H4424 C4437 0.929 . S
H4425 C4435 0.929 . S
H4426 C4430 0.929 . S
H4427 C4436 0.929 . S
C4428 H4422 0.930 . S
C4428 C4429 1.367 . S
C4428 C4436 1.378 . S
C4429 C4428 1.367 . S
C4429 C4437 1.433 . S
C4430 H4426 0.929 . S
C4430 C4432 1.378 . S
C4430 C4434 1.350 . S
C4431 C4434 1.463 . S
C4431 C4436 1.350 . S
C4431 N4439 1.427 . S
C4432 H4423 0.930 . S
C4432 C4430 1.378 . S
C4432 C4433 1.367 . S
C4433 C4432 1.367 . S
C4433 C4435 1.433 . S
C4434 C4430 1.350 . S
C4434 C4431 1.463 . S
C4434 N4438 1.427 . S
C4435 H4425 0.929 . S
C4435 C4433 1.433 . S
C4435 N4438 1.384 . S
C4436 H4427 0.929 . S
C4436 C4428 1.378 . S
C4436 C4431 1.350 . S
C4437 H4424 0.929 . S
C4437 C4429 1.433 . S
C4437 N4439 1.384 . S
N4438 C4434 1.427 . S
N4438 C4435 1.384 . S
N4439 C4431 1.427 . S
N4439 C4437 1.384 . S
H4440 C4446 0.930 . S
H4441 C4450 0.930 . S
H4442 C4455 0.929 . S
H4443 C4453 0.929 . S
H4444 C4448 0.929 . S
H4445 C4454 0.929 . S
C4446 H4440 0.930 . S
C4446 C4447 1.367 . S
C4446 C4454 1.378 . S
C4447 C4446 1.367 . S
C4447 C4455 1.433 . S
C4448 H4444 0.929 . S
C4448 C4450 1.378 . S
C4448 C4452 1.350 . S
C4449 C4452 1.463 . S
C4449 C4454 1.350 . S
C4449 N4457 1.427 . S
C4450 H4441 0.930 . S
C4450 C4448 1.378 . S
C4450 C4451 1.367 . S
C4451 C4450 1.367 . S
C4451 C4453 1.433 . S
C4452 C4448 1.350 . S
C4452 C4449 1.463 . S
C4452 N4456 1.427 . S
C4453 H4443 0.929 . S
C4453 C4451 1.433 . S
C4453 N4456 1.384 . S
C4454 H4445 0.929 . S
C4454 C4446 1.378 . S
C4454 C4449 1.350 . S
C4455 H4442 0.929 . S
C4455 C4447 1.433 . S
C4455 N4457 1.384 . S
N4456 C4452 1.427 . S
N4456 C4453 1.384 . S
N4457 C4449 1.427 . S
N4457 C4455 1.384 . S
H4458 C4464 0.930 . S
H4459 C4468 0.930 . S
H4460 C4473 0.929 . S
H4461 C4471 0.929 . S
H4462 C4466 0.929 . S
H4463 C4472 0.929 . S
C4464 H4458 0.930 . S
C4464 C4465 1.367 . S
C4464 C4472 1.378 . S
C4465 C4464 1.367 . S
C4465 C4473 1.433 . S
C4466 H4462 0.929 . S
C4466 C4468 1.378 . S
C4466 C4470 1.350 . S
C4467 C4470 1.463 . S
C4467 C4472 1.350 . S
C4467 N4475 1.427 . S
C4468 H4459 0.930 . S
C4468 C4466 1.378 . S
C4468 C4469 1.367 . S
C4469 C4468 1.367 . S
C4469 C4471 1.433 . S
C4470 C4466 1.350 . S
C4470 C4467 1.463 . S
C4470 N4474 1.427 . S
C4471 H4461 0.929 . S
C4471 C4469 1.433 . S
C4471 N4474 1.384 . S
C4472 H4463 0.929 . S
C4472 C4464 1.378 . S
C4472 C4467 1.350 . S
C4473 H4460 0.929 . S
C4473 C4465 1.433 . S
C4473 N4475 1.384 . S
N4474 C4470 1.427 . S
N4474 C4471 1.384 . S
N4475 C4467 1.427 . S
N4475 C4473 1.384 . S
H4476 C4482 0.930 . S
H4477 C4486 0.930 . S
H4478 C4491 0.929 . S
H4479 C4489 0.929 . S
H4480 C4484 0.929 . S
H4481 C4490 0.929 . S
C4482 H4476 0.930 . S
C4482 C4483 1.367 . S
C4482 C4490 1.378 . S
C4483 C4482 1.367 . S
C4483 C4491 1.433 . S
C4484 H4480 0.929 . S
C4484 C4486 1.378 . S
C4484 C4488 1.350 . S
C4485 C4488 1.463 . S
C4485 C4490 1.350 . S
C4485 N4493 1.427 . S
C4486 H4477 0.930 . S
C4486 C4484 1.378 . S
C4486 C4487 1.367 . S
C4487 C4486 1.367 . S
C4487 C4489 1.433 . S
C4488 C4484 1.350 . S
C4488 C4485 1.463 . S
C4488 N4492 1.427 . S
C4489 H4479 0.929 . S
C4489 C4487 1.433 . S
C4489 N4492 1.384 . S
C4490 H4481 0.929 . S
C4490 C4482 1.378 . S
C4490 C4485 1.350 . S
C4491 H4478 0.929 . S
C4491 C4483 1.433 . S
C4491 N4493 1.384 . S
N4492 C4488 1.427 . S
N4492 C4489 1.384 . S
N4493 C4485 1.427 . S
N4493 C4491 1.384 . S
H4494 C4500 0.930 . S
H4495 C4504 0.930 . S
H4496 C4509 0.929 . S
H4497 C4507 0.929 . S
H4498 C4502 0.929 . S
H4499 C4508 0.929 . S
C4500 H4494 0.930 . S
C4500 C4501 1.367 . S
C4500 C4508 1.378 . S
C4501 C4500 1.367 . S
C4501 C4509 1.433 . S
C4502 H4498 0.929 . S
C4502 C4504 1.378 . S
C4502 C4506 1.350 . S
C4503 C4506 1.463 . S
C4503 C4508 1.350 . S
C4503 N4511 1.427 . S
C4504 H4495 0.930 . S
C4504 C4502 1.378 . S
C4504 C4505 1.367 . S
C4505 C4504 1.367 . S
C4505 C4507 1.433 . S
C4506 C4502 1.350 . S
C4506 C4503 1.463 . S
C4506 N4510 1.427 . S
C4507 H4497 0.929 . S
C4507 C4505 1.433 . S
C4507 N4510 1.384 . S
C4508 H4499 0.929 . S
C4508 C4500 1.378 . S
C4508 C4503 1.350 . S
C4509 H4496 0.929 . S
C4509 C4501 1.433 . S
C4509 N4511 1.384 . S
N4510 C4506 1.427 . S
N4510 C4507 1.384 . S
N4511 C4503 1.427 . S
N4511 C4509 1.384 . S
H4512 C4518 0.930 . S
H4513 C4522 0.930 . S
H4514 C4527 0.929 . S
H4515 C4525 0.929 . S
H4516 C4520 0.929 . S
H4517 C4526 0.929 . S
C4518 H4512 0.930 . S
C4518 C4519 1.367 . S
C4518 C4526 1.378 . S
C4519 C4518 1.367 . S
C4519 C4527 1.433 . S
C4520 H4516 0.929 . S
C4520 C4522 1.378 . S
C4520 C4524 1.350 . S
C4521 C4524 1.463 . S
C4521 C4526 1.350 . S
C4521 N4529 1.427 . S
C4522 H4513 0.930 . S
C4522 C4520 1.378 . S
C4522 C4523 1.367 . S
C4523 C4522 1.367 . S
C4523 C4525 1.433 . S
C4524 C4520 1.350 . S
C4524 C4521 1.463 . S
C4524 N4528 1.427 . S
C4525 H4515 0.929 . S
C4525 C4523 1.433 . S
C4525 N4528 1.384 . S
C4526 H4517 0.929 . S
C4526 C4518 1.378 . S
C4526 C4521 1.350 . S
C4527 H4514 0.929 . S
C4527 C4519 1.433 . S
C4527 N4529 1.384 . S
N4528 C4524 1.427 . S
N4528 C4525 1.384 . S
N4529 C4521 1.427 . S
N4529 C4527 1.384 . S
H4530 C4536 0.930 . S
H4531 C4540 0.930 . S
H4532 C4545 0.929 . S
H4533 C4543 0.929 . S
H4534 C4538 0.929 . S
H4535 C4544 0.929 . S
C4536 H4530 0.930 . S
C4536 C4537 1.367 . S
C4536 C4544 1.378 . S
C4537 C4536 1.367 . S
C4537 C4545 1.433 . S
C4538 H4534 0.929 . S
C4538 C4540 1.378 . S
C4538 C4542 1.350 . S
C4539 C4542 1.463 . S
C4539 C4544 1.350 . S
C4539 N4547 1.427 . S
C4540 H4531 0.930 . S
C4540 C4538 1.378 . S
C4540 C4541 1.367 . S
C4541 C4540 1.367 . S
C4541 C4543 1.433 . S
C4542 C4538 1.350 . S
C4542 C4539 1.463 . S
C4542 N4546 1.427 . S
C4543 H4533 0.929 . S
C4543 C4541 1.433 . S
C4543 N4546 1.384 . S
C4544 H4535 0.929 . S
C4544 C4536 1.378 . S
C4544 C4539 1.350 . S
C4545 H4532 0.929 . S
C4545 C4537 1.433 . S
C4545 N4547 1.384 . S
N4546 C4542 1.427 . S
N4546 C4543 1.384 . S
N4547 C4539 1.427 . S
N4547 C4545 1.384 . S
H4548 C4554 0.930 . S
H4549 C4558 0.930 . S
H4550 C4563 0.929 . S
H4551 C4561 0.929 . S
H4552 C4556 0.929 . S
H4553 C4562 0.929 . S
C4554 H4548 0.930 . S
C4554 C4555 1.367 . S
C4554 C4562 1.378 . S
C4555 C4554 1.367 . S
C4555 C4563 1.433 . S
C4556 H4552 0.929 . S
C4556 C4558 1.378 . S
C4556 C4560 1.350 . S
C4557 C4560 1.463 . S
C4557 C4562 1.350 . S
C4557 N4565 1.427 . S
C4558 H4549 0.930 . S
C4558 C4556 1.378 . S
C4558 C4559 1.367 . S
C4559 C4558 1.367 . S
C4559 C4561 1.433 . S
C4560 C4556 1.350 . S
C4560 C4557 1.463 . S
C4560 N4564 1.427 . S
C4561 H4551 0.929 . S
C4561 C4559 1.433 . S
C4561 N4564 1.384 . S
C4562 H4553 0.929 . S
C4562 C4554 1.378 . S
C4562 C4557 1.350 . S
C4563 H4550 0.929 . S
C4563 C4555 1.433 . S
C4563 N4565 1.384 . S
N4564 C4560 1.427 . S
N4564 C4561 1.384 . S
N4565 C4557 1.427 . S
N4565 C4563 1.384 . S
H4566 C4572 0.930 . S
H4567 C4576 0.930 . S
H4568 C4581 0.929 . S
H4569 C4579 0.929 . S
H4570 C4574 0.929 . S
H4571 C4580 0.929 . S
C4572 H4566 0.930 . S
C4572 C4573 1.367 . S
C4572 C4580 1.378 . S
C4573 C4572 1.367 . S
C4573 C4581 1.433 . S
C4574 H4570 0.929 . S
C4574 C4576 1.378 . S
C4574 C4578 1.350 . S
C4575 C4578 1.463 . S
C4575 C4580 1.350 . S
C4575 N4583 1.427 . S
C4576 H4567 0.930 . S
C4576 C4574 1.378 . S
C4576 C4577 1.367 . S
C4577 C4576 1.367 . S
C4577 C4579 1.433 . S
C4578 C4574 1.350 . S
C4578 C4575 1.463 . S
C4578 N4582 1.427 . S
C4579 H4569 0.929 . S
C4579 C4577 1.433 . S
C4579 N4582 1.384 . S
C4580 H4571 0.929 . S
C4580 C4572 1.378 . S
C4580 C4575 1.350 . S
C4581 H4568 0.929 . S
C4581 C4573 1.433 . S
C4581 N4583 1.384 . S
N4582 C4578 1.427 . S
N4582 C4579 1.384 . S
N4583 C4575 1.427 . S
N4583 C4581 1.384 . S
H4584 C4590 0.930 . S
H4585 C4594 0.930 . S
H4586 C4599 0.929 . S
H4587 C4597 0.929 . S
H4588 C4592 0.929 . S
H4589 C4598 0.929 . S
C4590 H4584 0.930 . S
C4590 C4591 1.367 . S
C4590 C4598 1.378 . S
C4591 C4590 1.367 . S
C4591 C4599 1.433 . S
C4592 H4588 0.929 . S
C4592 C4594 1.378 . S
C4592 C4596 1.350 . S
C4593 C4596 1.463 . S
C4593 C4598 1.350 . S
C4593 N4601 1.427 . S
C4594 H4585 0.930 . S
C4594 C4592 1.378 . S
C4594 C4595 1.367 . S
C4595 C4594 1.367 . S
C4595 C4597 1.433 . S
C4596 C4592 1.350 . S
C4596 C4593 1.463 . S
C4596 N4600 1.427 . S
C4597 H4587 0.929 . S
C4597 C4595 1.433 . S
C4597 N4600 1.384 . S
C4598 H4589 0.929 . S
C4598 C4590 1.378 . S
C4598 C4593 1.350 . S
C4599 H4586 0.929 . S
C4599 C4591 1.433 . S
C4599 N4601 1.384 . S
N4600 C4596 1.427 . S
N4600 C4597 1.384 . S
N4601 C4593 1.427 . S
N4601 C4599 1.384 . S
H4602 C4608 0.930 . S
H4603 C4612 0.930 . S
H4604 C4617 0.929 . S
H4605 C4615 0.929 . S
H4606 C4610 0.929 . S
H4607 C4616 0.929 . S
C4608 H4602 0.930 . S
C4608 C4609 1.367 . S
C4608 C4616 1.378 . S
C4609 C4608 1.367 . S
C4609 C4617 1.433 . S
C4610 H4606 0.929 . S
C4610 C4612 1.378 . S
C4610 C4614 1.350 . S
C4611 C4614 1.463 . S
C4611 C4616 1.350 . S
C4611 N4619 1.427 . S
C4612 H4603 0.930 . S
C4612 C4610 1.378 . S
C4612 C4613 1.367 . S
C4613 C4612 1.367 . S
C4613 C4615 1.433 . S
C4614 C4610 1.350 . S
C4614 C4611 1.463 . S
C4614 N4618 1.427 . S
C4615 H4605 0.929 . S
C4615 C4613 1.433 . S
C4615 N4618 1.384 . S
C4616 H4607 0.929 . S
C4616 C4608 1.378 . S
C4616 C4611 1.350 . S
C4617 H4604 0.929 . S
C4617 C4609 1.433 . S
C4617 N4619 1.384 . S
N4618 C4614 1.427 . S
N4618 C4615 1.384 . S
N4619 C4611 1.427 . S
N4619 C4617 1.384 . S
H4620 C4626 0.930 . S
H4621 C4630 0.930 . S
H4622 C4635 0.929 . S
H4623 C4633 0.929 . S
H4624 C4628 0.929 . S
H4625 C4634 0.929 . S
C4626 H4620 0.930 . S
C4626 C4627 1.367 . S
C4626 C4634 1.378 . S
C4627 C4626 1.367 . S
C4627 C4635 1.433 . S
C4628 H4624 0.929 . S
C4628 C4630 1.378 . S
C4628 C4632 1.350 . S
C4629 C4632 1.463 . S
C4629 C4634 1.350 . S
C4629 N4637 1.427 . S
C4630 H4621 0.930 . S
C4630 C4628 1.378 . S
C4630 C4631 1.367 . S
C4631 C4630 1.367 . S
C4631 C4633 1.433 . S
C4632 C4628 1.350 . S
C4632 C4629 1.463 . S
C4632 N4636 1.427 . S
C4633 H4623 0.929 . S
C4633 C4631 1.433 . S
C4633 N4636 1.384 . S
C4634 H4625 0.929 . S
C4634 C4626 1.378 . S
C4634 C4629 1.350 . S
C4635 H4622 0.929 . S
C4635 C4627 1.433 . S
C4635 N4637 1.384 . S
N4636 C4632 1.427 . S
N4636 C4633 1.384 . S
N4637 C4629 1.427 . S
N4637 C4635 1.384 . S
H4638 C4644 0.930 . S
H4639 C4648 0.930 . S
H4640 C4653 0.929 . S
H4641 C4651 0.929 . S
H4642 C4646 0.929 . S
H4643 C4652 0.929 . S
C4644 H4638 0.930 . S
C4644 C4645 1.367 . S
C4644 C4652 1.378 . S
C4645 C4644 1.367 . S
C4645 C4653 1.433 . S
C4646 H4642 0.929 . S
C4646 C4648 1.378 . S
C4646 C4650 1.350 . S
C4647 C4650 1.463 . S
C4647 C4652 1.350 . S
C4647 N4655 1.427 . S
C4648 H4639 0.930 . S
C4648 C4646 1.378 . S
C4648 C4649 1.367 . S
C4649 C4648 1.367 . S
C4649 C4651 1.433 . S
C4650 C4646 1.350 . S
C4650 C4647 1.463 . S
C4650 N4654 1.427 . S
C4651 H4641 0.929 . S
C4651 C4649 1.433 . S
C4651 N4654 1.384 . S
C4652 H4643 0.929 . S
C4652 C4644 1.378 . S
C4652 C4647 1.350 . S
C4653 H4640 0.929 . S
C4653 C4645 1.433 . S
C4653 N4655 1.384 . S
N4654 C4650 1.427 . S
N4654 C4651 1.384 . S
N4655 C4647 1.427 . S
N4655 C4653 1.384 . S
H4656 C4662 0.930 . S
H4657 C4666 0.930 . S
H4658 C4671 0.929 . S
H4659 C4669 0.929 . S
H4660 C4664 0.929 . S
H4661 C4670 0.929 . S
C4662 H4656 0.930 . S
C4662 C4663 1.367 . S
C4662 C4670 1.378 . S
C4663 C4662 1.367 . S
C4663 C4671 1.433 . S
C4664 H4660 0.929 . S
C4664 C4666 1.378 . S
C4664 C4668 1.350 . S
C4665 C4668 1.463 . S
C4665 C4670 1.350 . S
C4665 N4673 1.427 . S
C4666 H4657 0.930 . S
C4666 C4664 1.378 . S
C4666 C4667 1.367 . S
C4667 C4666 1.367 . S
C4667 C4669 1.433 . S
C4668 C4664 1.350 . S
C4668 C4665 1.463 . S
C4668 N4672 1.427 . S
C4669 H4659 0.929 . S
C4669 C4667 1.433 . S
C4669 N4672 1.384 . S
C4670 H4661 0.929 . S
C4670 C4662 1.378 . S
C4670 C4665 1.350 . S
C4671 H4658 0.929 . S
C4671 C4663 1.433 . S
C4671 N4673 1.384 . S
N4672 C4668 1.427 . S
N4672 C4669 1.384 . S
N4673 C4665 1.427 . S
N4673 C4671 1.384 . S
H4674 C4680 0.930 . S
H4675 C4684 0.930 . S
H4676 C4689 0.929 . S
H4677 C4687 0.929 . S
H4678 C4682 0.929 . S
H4679 C4688 0.929 . S
C4680 H4674 0.930 . S
C4680 C4681 1.367 . S
C4680 C4688 1.378 . S
C4681 C4680 1.367 . S
C4681 C4689 1.433 . S
C4682 H4678 0.929 . S
C4682 C4684 1.378 . S
C4682 C4686 1.350 . S
C4683 C4686 1.463 . S
C4683 C4688 1.350 . S
C4683 N4691 1.427 . S
C4684 H4675 0.930 . S
C4684 C4682 1.378 . S
C4684 C4685 1.367 . S
C4685 C4684 1.367 . S
C4685 C4687 1.433 . S
C4686 C4682 1.350 . S
C4686 C4683 1.463 . S
C4686 N4690 1.427 . S
C4687 H4677 0.929 . S
C4687 C4685 1.433 . S
C4687 N4690 1.384 . S
C4688 H4679 0.929 . S
C4688 C4680 1.378 . S
C4688 C4683 1.350 . S
C4689 H4676 0.929 . S
C4689 C4681 1.433 . S
C4689 N4691 1.384 . S
N4690 C4686 1.427 . S
N4690 C4687 1.384 . S
N4691 C4683 1.427 . S
N4691 C4689 1.384 . S
H4692 C4698 0.930 . S
H4693 C4702 0.930 . S
H4694 C4707 0.929 . S
H4695 C4705 0.929 . S
H4696 C4700 0.929 . S
H4697 C4706 0.929 . S
C4698 H4692 0.930 . S
C4698 C4699 1.367 . S
C4698 C4706 1.378 . S
C4699 C4698 1.367 . S
C4699 C4707 1.433 . S
C4700 H4696 0.929 . S
C4700 C4702 1.378 . S
C4700 C4704 1.350 . S
C4701 C4704 1.463 . S
C4701 C4706 1.350 . S
C4701 N4709 1.427 . S
C4702 H4693 0.930 . S
C4702 C4700 1.378 . S
C4702 C4703 1.367 . S
C4703 C4702 1.367 . S
C4703 C4705 1.433 . S
C4704 C4700 1.350 . S
C4704 C4701 1.463 . S
C4704 N4708 1.427 . S
C4705 H4695 0.929 . S
C4705 C4703 1.433 . S
C4705 N4708 1.384 . S
C4706 H4697 0.929 . S
C4706 C4698 1.378 . S
C4706 C4701 1.350 . S
C4707 H4694 0.929 . S
C4707 C4699 1.433 . S
C4707 N4709 1.384 . S
N4708 C4704 1.427 . S
N4708 C4705 1.384 . S
N4709 C4701 1.427 . S
N4709 C4707 1.384 . S
H4710 C4716 0.930 . S
H4711 C4720 0.930 . S
H4712 C4725 0.929 . S
H4713 C4723 0.929 . S
H4714 C4718 0.929 . S
H4715 C4724 0.929 . S
C4716 H4710 0.930 . S
C4716 C4717 1.367 . S
C4716 C4724 1.378 . S
C4717 C4716 1.367 . S
C4717 C4725 1.433 . S
C4718 H4714 0.929 . S
C4718 C4720 1.378 . S
C4718 C4722 1.350 . S
C4719 C4722 1.463 . S
C4719 C4724 1.350 . S
C4719 N4727 1.427 . S
C4720 H4711 0.930 . S
C4720 C4718 1.378 . S
C4720 C4721 1.367 . S
C4721 C4720 1.367 . S
C4721 C4723 1.433 . S
C4722 C4718 1.350 . S
C4722 C4719 1.463 . S
C4722 N4726 1.427 . S
C4723 H4713 0.929 . S
C4723 C4721 1.433 . S
C4723 N4726 1.384 . S
C4724 H4715 0.929 . S
C4724 C4716 1.378 . S
C4724 C4719 1.350 . S
C4725 H4712 0.929 . S
C4725 C4717 1.433 . S
C4725 N4727 1.384 . S
N4726 C4722 1.427 . S
N4726 C4723 1.384 . S
N4727 C4719 1.427 . S
N4727 C4725 1.384 . S
H4728 C4734 0.930 . S
H4729 C4738 0.930 . S
H4730 C4743 0.929 . S
H4731 C4741 0.929 . S
H4732 C4736 0.929 . S
H4733 C4742 0.929 . S
C4734 H4728 0.930 . S
C4734 C4735 1.367 . S
C4734 C4742 1.378 . S
C4735 C4734 1.367 . S
C4735 C4743 1.433 . S
C4736 H4732 0.929 . S
C4736 C4738 1.378 . S
C4736 C4740 1.350 . S
C4737 C4740 1.463 . S
C4737 C4742 1.350 . S
C4737 N4745 1.427 . S
C4738 H4729 0.930 . S
C4738 C4736 1.378 . S
C4738 C4739 1.367 . S
C4739 C4738 1.367 . S
C4739 C4741 1.433 . S
C4740 C4736 1.350 . S
C4740 C4737 1.463 . S
C4740 N4744 1.427 . S
C4741 H4731 0.929 . S
C4741 C4739 1.433 . S
C4741 N4744 1.384 . S
C4742 H4733 0.929 . S
C4742 C4734 1.378 . S
C4742 C4737 1.350 . S
C4743 H4730 0.929 . S
C4743 C4735 1.433 . S
C4743 N4745 1.384 . S
N4744 C4740 1.427 . S
N4744 C4741 1.384 . S
N4745 C4737 1.427 . S
N4745 C4743 1.384 . S
H4746 C4752 0.930 . S
H4747 C4756 0.930 . S
H4748 C4761 0.929 . S
H4749 C4759 0.929 . S
H4750 C4754 0.929 . S
H4751 C4760 0.929 . S
C4752 H4746 0.930 . S
C4752 C4753 1.367 . S
C4752 C4760 1.378 . S
C4753 C4752 1.367 . S
C4753 C4761 1.433 . S
C4754 H4750 0.929 . S
C4754 C4756 1.378 . S
C4754 C4758 1.350 . S
C4755 C4758 1.463 . S
C4755 C4760 1.350 . S
C4755 N4763 1.427 . S
C4756 H4747 0.930 . S
C4756 C4754 1.378 . S
C4756 C4757 1.367 . S
C4757 C4756 1.367 . S
C4757 C4759 1.433 . S
C4758 C4754 1.350 . S
C4758 C4755 1.463 . S
C4758 N4762 1.427 . S
C4759 H4749 0.929 . S
C4759 C4757 1.433 . S
C4759 N4762 1.384 . S
C4760 H4751 0.929 . S
C4760 C4752 1.378 . S
C4760 C4755 1.350 . S
C4761 H4748 0.929 . S
C4761 C4753 1.433 . S
C4761 N4763 1.384 . S
N4762 C4758 1.427 . S
N4762 C4759 1.384 . S
N4763 C4755 1.427 . S
N4763 C4761 1.384 . S
H4764 C4770 0.930 . S
H4765 C4774 0.930 . S
H4766 C4779 0.929 . S
H4767 C4777 0.929 . S
H4768 C4772 0.929 . S
H4769 C4778 0.929 . S
C4770 H4764 0.930 . S
C4770 C4771 1.367 . S
C4770 C4778 1.378 . S
C4771 C4770 1.367 . S
C4771 C4779 1.433 . S
C4772 H4768 0.929 . S
C4772 C4774 1.378 . S
C4772 C4776 1.350 . S
C4773 C4776 1.463 . S
C4773 C4778 1.350 . S
C4773 N4781 1.427 . S
C4774 H4765 0.930 . S
C4774 C4772 1.378 . S
C4774 C4775 1.367 . S
C4775 C4774 1.367 . S
C4775 C4777 1.433 . S
C4776 C4772 1.350 . S
C4776 C4773 1.463 . S
C4776 N4780 1.427 . S
C4777 H4767 0.929 . S
C4777 C4775 1.433 . S
C4777 N4780 1.384 . S
C4778 H4769 0.929 . S
C4778 C4770 1.378 . S
C4778 C4773 1.350 . S
C4779 H4766 0.929 . S
C4779 C4771 1.433 . S
C4779 N4781 1.384 . S
N4780 C4776 1.427 . S
N4780 C4777 1.384 . S
N4781 C4773 1.427 . S
N4781 C4779 1.384 . S
H4782 C4788 0.930 . S
H4783 C4792 0.930 . S
H4784 C4797 0.929 . S
H4785 C4795 0.929 . S
H4786 C4790 0.929 . S
H4787 C4796 0.929 . S
C4788 H4782 0.930 . S
C4788 C4789 1.367 . S
C4788 C4796 1.378 . S
C4789 C4788 1.367 . S
C4789 C4797 1.433 . S
C4790 H4786 0.929 . S
C4790 C4792 1.378 . S
C4790 C4794 1.350 . S
C4791 C4794 1.463 . S
C4791 C4796 1.350 . S
C4791 N4799 1.427 . S
C4792 H4783 0.930 . S
C4792 C4790 1.378 . S
C4792 C4793 1.367 . S
C4793 C4792 1.367 . S
C4793 C4795 1.433 . S
C4794 C4790 1.350 . S
C4794 C4791 1.463 . S
C4794 N4798 1.427 . S
C4795 H4785 0.929 . S
C4795 C4793 1.433 . S
C4795 N4798 1.384 . S
C4796 H4787 0.929 . S
C4796 C4788 1.378 . S
C4796 C4791 1.350 . S
C4797 H4784 0.929 . S
C4797 C4789 1.433 . S
C4797 N4799 1.384 . S
N4798 C4794 1.427 . S
N4798 C4795 1.384 . S
N4799 C4791 1.427 . S
N4799 C4797 1.384 . S
C1351 C8 1.675 . S
C1355 C960 1.671 . S
C1369 C918 1.674 . S
C1373 C22 1.667 . S
C1387 C932 1.673 . S
C1391 C36 1.667 . S
C1405 C50 1.668 . S
C1409 C946 1.670 . S
C1423 C1002 1.675 . S
C1427 C64 1.669 . S
C1441 C974 1.671 . S
C1445 C78 1.668 . S
C1459 C988 1.668 . S
C1463 C92 1.675 . S
C1477 C106 1.669 . S
C1481 C904 1.675 . S
C1495 C120 1.668 . S
C1499 C890 1.670 . S
C1513 C134 1.670 . S
C1517 C848 1.675 . S
C1531 C148 1.667 . S
C1535 C862 1.673 . S
C1549 C162 1.674 . S
C1553 C876 1.668 . S
C1567 C176 1.668 . S
C1571 C806 1.675 . S
C1585 C820 1.670 . S
C1589 C190 1.668 . S
C1603 C834 1.671 . S
C1607 C204 1.675 . S
C1621 C218 1.670 . S
C1625 C792 1.668 . S
C1639 C232 1.669 . S
C1643 C778 1.675 . S
C1657 C246 1.672 . S
C1661 C694 1.674 . S
C1675 C708 1.668 . S
C1679 C260 1.670 . S
C1693 C722 1.668 . S
C1697 C274 1.675 . S
C1711 C680 1.673 . S
C1715 C288 1.667 . S
C1729 C302 1.671 . S
C1733 C750 1.668 . S
C1747 C316 1.667 . S
C1751 C764 1.672 . S
C1765 C330 1.675 . S
C1769 C736 1.671 . S
C1783 C344 1.675 . S
C1787 C1296 1.668 . S
C1801 C358 1.667 . S
C1805 C1254 1.673 . S
C1819 C372 1.668 . S
C1823 C1268 1.671 . S
C1837 C386 1.675 . S
C1841 C1282 1.669 . S
C1855 C400 1.670 . S
C1859 C1338 1.675 . S
C1873 C414 1.672 . S
C1877 C1310 1.667 . S
C1891 C1324 1.668 . S
C1895 C428 1.671 . S
C1909 C442 1.670 . S
C1913 C1240 1.675 . S
C1927 C456 1.669 . S
C1931 C1226 1.669 . S
C1945 C1184 1.670 . S
C1949 C470 1.668 . S
C1963 C484 1.673 . S
C1967 C1198 1.674 . S
C1981 C498 1.674 . S
C1985 C1212 1.667 . S
C1999 C512 1.675 . S
C2003 C1142 1.669 . S
C2017 C526 1.672 . S
C2021 C1156 1.675 . S
C2035 C540 1.674 . S
C2039 C1170 1.673 . S
C2053 C1128 1.669 . S
C2057 C554 1.669 . S
C2071 C568 1.670 . S
C2075 C1114 1.675 . S
C2089 C582 1.672 . S
C2093 C1030 1.675 . S
C2107 C596 1.671 . S
C2111 C1044 1.668 . S
C2125 C1058 1.675 . S
C2129 C610 1.672 . S
C2143 C624 1.675 . S
C2147 C1016 1.668 . S
C2161 C1086 1.667 . S
C2165 C638 1.672 . S
C2179 C652 1.671 . S
C2183 C1100 1.675 . S
C2197 C666 1.669 . S
C2201 C1072 1.669 . S
C2215 C9 1.850 . S
C2219 C555 1.853 . S
C2233 C23 1.849 . S
C2237 C513 1.854 . S
C2251 C527 1.854 . S
C2255 C37 1.849 . S
C2269 C51 1.855 . S
C2273 C541 1.848 . S
C2287 C471 1.854 . S
C2291 C65 1.848 . S
C2305 C485 1.849 . S
C2309 C79 1.854 . S
C2323 C499 1.849 . S
C2327 C93 1.854 . S
C2341 C457 1.854 . S
C2345 C107 1.848 . S
C2359 C443 1.850 . S
C2363 C121 1.853 . S
C2377 C135 1.852 . S
C2381 C401 1.851 . S
C2395 C415 1.853 . S
C2399 C149 1.850 . S
C2413 C163 1.849 . S
C2417 C429 1.854 . S
C2431 C359 1.854 . S
C2435 C177 1.849 . S
C2449 C373 1.850 . S
C2453 C191 1.853 . S
C2467 C205 1.848 . S
C2471 C387 1.854 . S
C2485 C219 1.852 . S
C2489 C345 1.850 . S
C2503 C233 1.848 . S
C2507 C625 1.855 . S
C2521 C247 1.850 . S
C2525 C667 1.853 . S
C2539 C639 1.848 . S
C2543 C261 1.854 . S
C2557 C653 1.854 . S
C2561 C275 1.849 . S
C2575 C289 1.852 . S
C2579 C569 1.851 . S
C2593 C303 1.849 . S
C2597 C597 1.854 . S
C2611 C611 1.853 . S
C2615 C317 1.850 . S
C2629 C331 1.852 . S
C2633 C583 1.851 . S
C2647 C1227 1.854 . S
C2651 C681 1.849 . S
C2665 C1185 1.848 . S
C2669 C695 1.854 . S
C2683 C1199 1.854 . S
C2687 C709 1.849 . S
C2701 C723 1.848 . S
C2705 C1213 1.854 . S
C2719 C1143 1.854 . S
C2723 C737 1.849 . S
C2737 C1157 1.849 . S
C2741 C751 1.854 . S
C2755 C765 1.854 . S
C2759 C1171 1.849 . S
C2773 C779 1.848 . S
C2777 C1129 1.855 . S
C2791 C1115 1.853 . S
C2795 C793 1.850 . S
C2809 C807 1.854 . S
C2813 C1073 1.849 . S
C2827 C1087 1.853 . S
C2831 C821 1.849 . S
C2845 C1101 1.853 . S
C2849 C835 1.850 . S
C2863 C849 1.850 . S
C2867 C1031 1.853 . S
C2881 C863 1.848 . S
C2885 C1045 1.855 . S
C2899 C1059 1.853 . S
C2903 C877 1.850 . S
C2917 C891 1.852 . S
C2921 C1017 1.851 . S
C2935 C1297 1.854 . S
C2939 C905 1.849 . S
C2953 C1339 1.848 . S
C2957 C919 1.854 . S
C2971 C933 1.849 . S
C2975 C1311 1.854 . S
C2989 C1325 1.849 . S
C2993 C947 1.854 . S
C3007 C1241 1.852 . S
C3011 C961 1.851 . S
C3025 C1269 1.849 . S
C3029 C975 1.854 . S
C3043 C989 1.853 . S
C3047 C1283 1.850 . S
C3061 C1255 1.849 . S
C3065 C1003 1.854 . S
C3079 C7 1.263 . S
C3083 C399 1.262 . S
C3097 C413 1.264 . S
C3101 C21 1.261 . S
C3115 C35 1.255 . S
C3119 C427 1.270 . S
C3133 C441 1.266 . S
C3137 C49 1.259 . S
C3151 C63 1.269 . S
C3155 C343 1.255 . S
C3169 C77 1.270 . S
C3173 C357 1.255 . S
C3187 C91 1.267 . S
C3191 C371 1.257 . S
C3205 C385 1.261 . S
C3209 C105 1.263 . S
C3223 C539 1.253 . S
C3227 C119 1.271 . S
C3241 C133 1.269 . S
C3245 C553 1.255 . S
C3259 C147 1.270 . S
C3263 C511 1.254 . S
C3277 C161 1.254 . S
C3281 C525 1.271 . S
C3295 C175 1.270 . S
C3299 C483 1.254 . S
C3313 C189 1.270 . S
C3317 C497 1.254 . S
C3331 C203 1.267 . S
C3335 C455 1.257 . S
C3349 C217 1.264 . S
C3353 C469 1.261 . S
C3367 C231 1.257 . S
C3371 C637 1.268 . S
C3385 C245 1.259 . S
C3389 C609 1.265 . S
C3403 C623 1.271 . S
C3407 C259 1.253 . S
C3421 C273 1.265 . S
C3425 C581 1.259 . S
C3439 C595 1.253 . S
C3443 C287 1.271 . S
C3457 C301 1.254 . S
C3461 C567 1.271 . S
C3475 C315 1.253 . S
C3479 C665 1.271 . S
C3493 C651 1.259 . S
C3497 C329 1.266 . S
C3511 C1071 1.271 . S
C3515 C679 1.254 . S
C3529 C693 1.255 . S
C3533 C1085 1.270 . S
C3547 C1099 1.270 . S
C3551 C707 1.254 . S
C3565 C721 1.254 . S
C3569 C1113 1.270 . S
C3583 C1015 1.256 . S
C3587 C735 1.268 . S
C3601 C1029 1.261 . S
C3605 C749 1.264 . S
C3619 C1043 1.256 . S
C3623 C763 1.268 . S
C3637 C777 1.271 . S
C3641 C1057 1.254 . S
C3655 C791 1.257 . S
C3659 C1211 1.267 . S
C3673 C1225 1.256 . S
C3677 C805 1.269 . S
C3691 C1183 1.271 . S
C3695 C819 1.254 . S
C3709 C1197 1.256 . S
C3713 C833 1.268 . S
C3727 C847 1.270 . S
C3731 C1155 1.254 . S
C3745 C861 1.269 . S
C3749 C1169 1.256 . S
C3763 C1127 1.271 . S
C3767 C875 1.253 . S
C3781 C1141 1.270 . S
C3785 C889 1.254 . S
C3799 C1309 1.258 . S
C3803 C903 1.267 . S
C3817 C917 1.259 . S
C3821 C1281 1.265 . S
C3835 C1295 1.271 . S
C3839 C931 1.253 . S
C3853 C945 1.271 . S
C3857 C1253 1.253 . S
C3871 C959 1.254 . S
C3875 C1267 1.270 . S
C3889 C973 1.254 . S
C3893 C1239 1.270 . S
C3907 C1337 1.265 . S
C3911 C987 1.260 . S
C3925 C1001 1.267 . S
C3929 C1323 1.258 . S
C3943 C440 1.226 . S
C3947 C6 1.240 . S
C3961 C398 1.234 . S
C3965 C20 1.232 . S
C3979 C34 1.235 . S
C3983 C412 1.231 . S
C3997 C426 1.231 . S
C4001 C48 1.235 . S
C4015 C356 1.243 . S
C4019 C62 1.223 . S
C4033 C76 1.240 . S
C4037 C370 1.226 . S
C4051 C90 1.234 . S
C4055 C384 1.231 . S
C4069 C342 1.224 . S
C4073 C104 1.242 . S
C4087 C622 1.242 . S
C4091 C118 1.224 . S
C4105 C132 1.227 . S
C4109 C580 1.239 . S
C4123 C146 1.238 . S
C4127 C594 1.228 . S
C4141 C608 1.229 . S
C4145 C160 1.237 . S
C4159 C174 1.223 . S
C4163 C664 1.243 . S
C4177 C636 1.229 . S
C4181 C188 1.237 . S
C4195 C650 1.223 . S
C4199 C202 1.243 . S
C4213 C216 1.237 . S
C4217 C566 1.229 . S
C4231 C230 1.231 . S
C4235 C552 1.235 . S
C4249 C244 1.227 . S
C4253 C468 1.239 . S
C4267 C258 1.236 . S
C4271 C482 1.230 . S
C4285 C496 1.232 . S
C4289 C272 1.234 . S
C4303 C454 1.230 . S
C4307 C286 1.236 . S
C4321 C300 1.240 . S
C4325 C524 1.226 . S
C4339 C314 1.234 . S
C4343 C538 1.232 . S
C4357 C328 1.233 . S
C4361 C510 1.233 . S
C4375 C678 1.230 . S
C4379 C1112 1.236 . S
C4393 C692 1.224 . S
C4397 C1070 1.242 . S
C4411 C706 1.240 . S
C4415 C1084 1.226 . S
C4429 C1098 1.232 . S
C4433 C720 1.234 . S
C4447 C1028 1.243 . S
C4451 C734 1.223 . S
C4465 C1042 1.233 . S
C4469 C748 1.233 . S
C4483 C762 1.242 . S
C4487 C1056 1.223 . S
C4501 C1014 1.230 . S
C4505 C776 1.236 . S
C4519 C1294 1.243 . S
C4523 C790 1.223 . S
C4537 C1252 1.236 . S
C4541 C804 1.230 . S
C4555 C1266 1.242 . S
C4559 C818 1.223 . S
C4573 C1280 1.229 . S
C4577 C832 1.237 . S
C4591 C1336 1.223 . S
C4595 C846 1.243 . S
C4609 C1308 1.242 . S
C4613 C860 1.224 . S
C4627 C1322 1.225 . S
C4631 C874 1.241 . S
C4645 C1238 1.231 . S
C4649 C888 1.235 . S
C4663 C902 1.232 . S
C4667 C1224 1.234 . S
C4681 C1140 1.230 . S
C4685 C916 1.236 . S
C4699 C1154 1.231 . S
C4703 C930 1.235 . S
C4717 C1168 1.230 . S
C4721 C944 1.235 . S
C4735 C1126 1.223 . S
C4739 C958 1.243 . S
C4753 C1196 1.226 . S
C4757 C972 1.240 . S
C4771 C1210 1.242 . S
C4775 C986 1.224 . S
C4789 C1182 1.240 . S
C4793 C1000 1.226 . S
