# Generated by pormake.
# Topology hjm, (4)-cn, num edge types: 1
# Building blocks:
#     Node 0, Type 0, BuildingBlock: GALJAG_clean_sbu_0, # of connection points: 4
#     Node 1, Type 0, BuildingBlock: GALJAG_clean_sbu_0, # of connection points: 4
#     Node 2, Type 0, BuildingBlock: GALJAG_clean_sbu_0, # of connection points: 4
#     Node 3, Type 0, BuildingBlock: GALJAG_clean_sbu_0, # of connection points: 4
#     Node 4, Type 0, BuildingBlock: GALJAG_clean_sbu_0, # of connection points: 4
#     Node 5, Type 0, BuildingBlock: GALJAG_clean_sbu_0, # of connection points: 4
#     Node 6, Type 0, BuildingBlock: GALJAG_clean_sbu_0, # of connection points: 4
#     Node 7, Type 0, BuildingBlock: GALJAG_clean_sbu_0, # of connection points: 4
#     Edge 8, Type (0, 0), BuildingBlock: KIFKEQ_clean_linker_1, # of connection points: 2
#     Edge 9, Type (0, 0), BuildingBlock: KIFKEQ_clean_linker_1, # of connection points: 2
#     Edge 10, Type (0, 0), BuildingBlock: KIFKEQ_clean_linker_1, # of connection points: 2
#     Edge 11, Type (0, 0), BuildingBlock: KIFKEQ_clean_linker_1, # of connection points: 2
#     Edge 12, Type (0, 0), BuildingBlock: KIFKEQ_clean_linker_1, # of connection points: 2
#     Edge 13, Type (0, 0), BuildingBlock: KIFKEQ_clean_linker_1, # of connection points: 2
#     Edge 14, Type (0, 0), BuildingBlock: KIFKEQ_clean_linker_1, # of connection points: 2
#     Edge 15, Type (0, 0), BuildingBlock: KIFKEQ_clean_linker_1, # of connection points: 2
#     Edge 16, Type (0, 0), BuildingBlock: KIFKEQ_clean_linker_1, # of connection points: 2
#     Edge 17, Type (0, 0), BuildingBlock: KIFKEQ_clean_linker_1, # of connection points: 2
#     Edge 18, Type (0, 0), BuildingBlock: KIFKEQ_clean_linker_1, # of connection points: 2
#     Edge 19, Type (0, 0), BuildingBlock: KIFKEQ_clean_linker_1, # of connection points: 2
#     Edge 20, Type (0, 0), BuildingBlock: KIFKEQ_clean_linker_1, # of connection points: 2
#     Edge 21, Type (0, 0), BuildingBlock: KIFKEQ_clean_linker_1, # of connection points: 2
#     Edge 22, Type (0, 0), BuildingBlock: KIFKEQ_clean_linker_1, # of connection points: 2
#     Edge 23, Type (0, 0), BuildingBlock: KIFKEQ_clean_linker_1, # of connection points: 2
# Relax obj value: 0.069
# Max RMSD: 0.136
# Mean RMSD: 0.136
data_MOF--net-hjm--node1-GALJAG_clean_sbu_0--edge1-KIFKEQ_clean_linker_1
_symmetry_space_group_name_H-M    P1
_symmetry_Int_Tables_number       1
_symmetry_cell_setting            triclinic
loop_
_symmetry_equiv_pos_as_xyz
'x, y, z'
_cell_length_a     25.99252
_cell_length_b     21.593366
_cell_length_c     26.013721
_cell_angle_alpha  90.11882
_cell_angle_beta   69.351854
_cell_angle_gamma 90.109269
loop_
_atom_site_label
_atom_site_type_symbol
_atom_site_fract_x
_atom_site_fract_y
_atom_site_fract_z
_atom_type_partial_charge
In0 In 0.18473 0.2457 0.31163 0.0
O1 O 0.11807 0.31987 0.3295 0.0
O2 O 0.16373 0.31379 0.3829 0.0
C3 C 0.19703 0.244 0.20442 0.0
C4 C 0.12271 0.15418 0.37346 0.0
C5 C 0.29298 0.2429 0.29628 0.0
O6 O 0.19141 0.29373 0.23148 0.0
O7 O 0.19489 0.19532 0.23184 0.0
O8 O 0.26456 0.19462 0.30013 0.0
O9 O 0.26654 0.29288 0.30155 0.0
C10 C 0.12547 0.33997 0.37198 0.0
O11 O 0.16073 0.18047 0.38481 0.0
O12 O 0.11655 0.17313 0.33015 0.0
In13 In 0.81135 0.2404 0.18802 0.0
O14 O 0.86916 0.32353 0.17134 0.0
O15 O 0.83804 0.29699 0.10916 0.0
C16 C 0.79748 0.2494 0.29552 0.0
C17 C 0.87454 0.14543 0.13334 0.0
C18 C 0.70417 0.23458 0.19964 0.0
O19 O 0.78751 0.29357 0.2688 0.0
O20 O 0.81593 0.20121 0.26766 0.0
O21 O 0.72909 0.19011 0.21186 0.0
O22 O 0.7337 0.28135 0.18011 0.0
C23 C 0.86847 0.33323 0.12376 0.0
O24 O 0.82712 0.15549 0.13228 0.0
O25 O 0.88945 0.18228 0.16309 0.0
In26 In 0.81083 0.7458 0.68573 0.0
O27 O 0.88381 0.68019 0.6629 0.0
O28 O 0.8279 0.67008 0.62031 0.0
C29 C 0.79543 0.74681 0.79395 0.0
C30 C 0.87214 0.83791 0.6241 0.0
C31 C 0.70361 0.74788 0.69774 0.0
O32 O 0.80245 0.69737 0.76644 0.0
O33 O 0.7975 0.79549 0.76665 0.0
O34 O 0.73127 0.79645 0.69583 0.0
O35 O 0.73043 0.69805 0.6921 0.0
C36 C 0.87175 0.65215 0.62608 0.0
O37 O 0.82992 0.81704 0.61672 0.0
O38 O 0.88264 0.81328 0.66318 0.0
In39 In 0.18376 0.74038 0.81459 0.0
O40 O 0.16311 0.80275 0.89036 0.0
O41 O 0.12125 0.81872 0.83479 0.0
C42 C 0.29175 0.74839 0.79924 0.0
C43 C 0.12067 0.64622 0.87094 0.0
C44 C 0.19594 0.73261 0.70748 0.0
O45 O 0.26477 0.79356 0.79128 0.0
O46 O 0.26394 0.69987 0.81635 0.0
O47 O 0.20355 0.68688 0.73406 0.0
O48 O 0.1809 0.78152 0.73528 0.0
C49 C 0.12741 0.83379 0.8791 0.0
O50 O 0.10831 0.67762 0.83615 0.0
O51 O 0.1654 0.66135 0.87625 0.0
In52 In 0.68855 0.75195 0.31242 0.0
O53 O 0.62823 0.83249 0.33074 0.0
O54 O 0.66225 0.80888 0.39135 0.0
C55 C 0.70182 0.75215 0.20467 0.0
C56 C 0.62539 0.65768 0.36805 0.0
C57 C 0.79589 0.75483 0.30069 0.0
O58 O 0.70551 0.80044 0.23042 0.0
O59 O 0.69005 0.70373 0.23351 0.0
O60 O 0.77019 0.70483 0.30221 0.0
O61 O 0.76709 0.80304 0.30664 0.0
C62 C 0.63007 0.84334 0.37774 0.0
O63 O 0.67272 0.66839 0.36933 0.0
O64 O 0.61059 0.69359 0.33764 0.0
In65 In 0.31464 0.75609 0.18875 0.0
O66 O 0.3862 0.82396 0.16605 0.0
O67 O 0.33136 0.83065 0.12222 0.0
C68 C 0.2996 0.74431 0.29631 0.0
C69 C 0.3755 0.6625 0.12915 0.0
C70 C 0.20736 0.76379 0.20193 0.0
O71 O 0.3129 0.79484 0.27079 0.0
O72 O 0.29512 0.69921 0.26728 0.0
O73 O 0.23645 0.7173 0.1805 0.0
O74 O 0.23281 0.80724 0.21519 0.0
C75 C 0.37443 0.85046 0.12854 0.0
O76 O 0.33145 0.68017 0.12375 0.0
O77 O 0.38801 0.69096 0.16547 0.0
In78 In 0.31471 0.25185 0.6849 0.0
O79 O 0.38941 0.18819 0.66494 0.0
O80 O 0.33345 0.17251 0.62335 0.0
C81 C 0.29931 0.24425 0.79278 0.0
C82 C 0.3724 0.34492 0.62099 0.0
C83 C 0.20744 0.26031 0.6976 0.0
O84 O 0.29131 0.19896 0.76579 0.0
O85 O 0.3165 0.29274 0.76503 0.0
O86 O 0.23405 0.30524 0.70691 0.0
O87 O 0.23531 0.21188 0.68047 0.0
C88 C 0.37751 0.15683 0.62971 0.0
O89 O 0.33622 0.31471 0.60962 0.0
O90 O 0.37842 0.32922 0.66517 0.0
In91 In 0.6874 0.25647 0.81371 0.0
O92 O 0.6212 0.1816 0.8314 0.0
O93 O 0.6653 0.19012 0.8861 0.0
C94 C 0.69915 0.25667 0.70663 0.0
C95 C 0.62607 0.34844 0.87555 0.0
C96 C 0.79575 0.25862 0.79793 0.0
O97 O 0.69389 0.20734 0.73401 0.0
O98 O 0.69694 0.3058 0.73367 0.0
O99 O 0.76804 0.30704 0.80017 0.0
O100 O 0.76856 0.20892 0.80496 0.0
C101 C 0.6277 0.16291 0.87465 0.0
O102 O 0.6653 0.32356 0.88564 0.0
O103 O 0.61843 0.32798 0.83334 0.0
H104 H 0.11347 0.12565 0.47805 0.0
H105 H 0.05069 0.07673 0.3502 0.0
H106 H 0.0516 0.05111 0.53936 0.0
H107 H 0.99041 -0.00025 0.41059 0.0
H108 H 0.84991 0.91213 0.54976 0.0
H109 H 0.91022 0.98915 0.48946 0.0
H110 H 0.0368 0.94456 0.55554 0.0
H111 H 0.97549 0.86998 0.61738 0.0
C112 C 0.08686 0.09828 0.46286 0.0
C113 C 0.08686 0.10687 0.4094 0.0
C114 C 0.05154 0.05526 0.49791 0.0
C115 C 0.01594 0.01916 0.48002 0.0
C116 C 0.0165 0.02743 0.42615 0.0
C117 C 0.05135 0.07115 0.39134 0.0
C118 C 0.89054 0.91922 0.55149 0.0
C119 C 0.90798 0.88539 0.58836 0.0
C120 C 0.92532 0.96295 0.51664 0.0
C121 C 0.97855 0.97312 0.51743 0.0
C122 C 0.99581 0.93893 0.5544 0.0
C123 C 0.96077 0.8959 0.58972 0.0
H124 H 0.05215 0.90939 0.86047 0.0
H125 H 0.12459 0.86497 0.98189 0.0
H126 H 0.99152 0.98384 0.9235 0.0
H127 H 0.06287 0.93841 0.04568 0.0
H128 H 0.98122 0.12256 0.12189 0.0
H129 H 0.04385 0.04811 0.06047 0.0
H130 H 0.91275 0.98408 0.00768 0.0
H131 H 0.85064 0.0596 0.06804 0.0
C132 C 0.05512 0.91561 0.90066 0.0
C133 C 0.09306 0.88137 0.91629 0.0
C134 C 0.02006 0.95788 0.93697 0.0
C135 C 0.02195 0.96666 0.98985 0.0
C136 C 0.06065 0.93314 0.00511 0.0
C137 C 0.09591 0.89096 0.96865 0.0
C138 C 0.96575 0.09226 0.09741 0.0
C139 C 0.91112 0.09701 0.09959 0.0
C140 C 0.00157 0.04946 0.06236 0.0
C141 C 0.98344 0.01045 0.02885 0.0
C142 C 0.92833 0.01426 0.03215 0.0
C143 C 0.8926 0.05716 0.06706 0.0
H144 H 0.44932 0.41854 0.6395 0.0
H145 H 0.37457 0.37788 0.51897 0.0
H146 H 0.5101 0.49335 0.57706 0.0
H147 H 0.43643 0.45154 0.45574 0.0
H148 H 0.51827 0.63535 0.38085 0.0
H149 H 0.4559 0.56069 0.44212 0.0
H150 H 0.58797 0.49559 0.49259 0.0
H151 H 0.64982 0.57152 0.43246 0.0
C152 C 0.44589 0.42564 0.59963 0.0
C153 C 0.4072 0.39242 0.5841 0.0
C154 C 0.48104 0.46812 0.56363 0.0
C155 C 0.47848 0.47811 0.51118 0.0
C156 C 0.43916 0.44542 0.49601 0.0
C157 C 0.40382 0.40308 0.53215 0.0
C158 C 0.53401 0.6048 0.40481 0.0
C159 C 0.58885 0.60936 0.40203 0.0
C160 C 0.49833 0.56186 0.43978 0.0
C161 C 0.51681 0.52238 0.47255 0.0
C162 C 0.57209 0.5261 0.46872 0.0
C163 C 0.60768 0.56924 0.43395 0.0
H164 H 0.4815 0.63667 0.11694 0.0
H165 H 0.35039 0.58146 0.06087 0.0
H166 H 0.54273 0.56244 0.05449 0.0
H167 H 0.41081 0.5049 2e-05 0.0
H168 H 0.54843 0.42009 0.85619 0.0
H169 H 0.48795 0.4961 0.91772 0.0
H170 H 0.56084 0.45591 0.03991 0.0
H171 H 0.62268 0.38224 0.97742 0.0
C172 C 0.46558 0.60793 0.09177 0.0
C173 C 0.41124 0.61474 0.09372 0.0
C174 C 0.5006 0.56513 0.05609 0.0
C175 C 0.48182 0.52754 0.02209 0.0
C176 C 0.42703 0.53382 0.02481 0.0
C177 C 0.39222 0.57728 0.06 0.0
C178 C 0.55163 0.42794 0.89609 0.0
C179 C 0.59035 0.39555 0.91197 0.0
C180 C 0.51668 0.47107 0.93159 0.0
C181 C 0.51931 0.48213 0.98396 0.0
C182 C 0.5582 0.44949 0.99962 0.0
C183 C 0.59353 0.40699 0.9639 0.0
H184 H 0.93535 0.41772 0.14689 0.0
H185 H 0.87975 0.35589 0.01722 0.0
H186 H 0.99573 0.49308 0.0846 0.0
H187 H 0.94117 0.43015 0.95444 0.0
H188 H 0.01758 0.6145 0.87505 0.0
H189 H 0.95495 0.54005 0.93654 0.0
H190 H 0.07934 0.49439 0.00504 0.0
H191 H 0.14127 0.5699 0.94461 0.0
C192 C 0.93601 0.42031 0.10507 0.0
C193 C 0.90289 0.38095 0.08689 0.0
C194 C 0.97092 0.46312 0.06925 0.0
C195 C 0.9736 0.46731 0.01441 0.0
C196 C 0.93972 0.42853 0.99654 0.0
C197 C 0.90468 0.38584 0.03244 0.0
C198 C 0.03158 0.58824 0.90305 0.0
C199 C 0.08422 0.59806 0.90518 0.0
C200 C 0.99578 0.54547 0.93815 0.0
C201 C 0.012 0.51157 0.97597 0.0
C202 C 0.06517 0.52059 0.97715 0.0
C203 C 0.10083 0.56347 0.94222 0.0
H204 H 0.05058 0.41461 0.35082 0.0
H205 H 0.11963 0.37179 0.47511 0.0
H206 H 0.98953 0.49029 0.41227 0.0
H207 H 0.05716 0.44508 0.53748 0.0
H208 H 0.9766 0.62425 0.61697 0.0
H209 H 0.03889 0.55107 0.5543 0.0
H210 H 0.91058 0.4985 0.49283 0.0
H211 H 0.84911 0.57405 0.55403 0.0
C212 C 0.05258 0.42135 0.39135 0.0
C213 C 0.08998 0.38756 0.40812 0.0
C214 C 0.01725 0.46428 0.42682 0.0
C215 C 0.01812 0.47378 0.48007 0.0
C216 C 0.05585 0.43992 0.49655 0.0
C217 C 0.09158 0.39763 0.46086 0.0
C218 C 0.96167 0.59683 0.59022 0.0
C219 C 0.90801 0.60477 0.5904 0.0
C220 C 0.99732 0.55461 0.55439 0.0
C221 C 0.97992 0.51869 0.51833 0.0
C222 C 0.9258 0.5261 0.51922 0.0
C223 C 0.89035 0.56897 0.55464 0.0
H224 H 0.5558 0.08459 0.85201 0.0
H225 H 0.61824 0.13565 0.9796 0.0
H226 H 0.49455 0.00909 0.9135 0.0
H227 H 0.55547 0.06259 0.04192 0.0
H228 H 0.47747 0.88306 0.12243 0.0
H229 H 0.53939 0.95657 0.05999 0.0
H230 H 0.41383 0.00037 0.99236 0.0
H231 H 0.35274 0.9244 0.05347 0.0
C232 C 0.55626 0.07973 0.89329 0.0
C233 C 0.59194 0.11568 0.91096 0.0
C234 C 0.52081 0.0369 0.92874 0.0
C235 C 0.51981 0.02972 0.98287 0.0
C236 C 0.55569 0.06591 0.00031 0.0
C237 C 0.59159 0.10804 0.96465 0.0
C238 C 0.46303 0.90861 0.09437 0.0
C239 C 0.41028 0.89808 0.09283 0.0
C240 C 0.49846 0.95105 0.05867 0.0
C241 C 0.48175 0.98463 0.021 0.0
C242 C 0.42852 0.97463 0.0201 0.0
C243 C 0.39327 0.93153 0.05544 0.0
H244 H 0.61816 0.86556 0.48464 0.0
H245 H 0.56309 0.92731 0.35486 0.0
H246 H 0.5564 0.93951 0.54762 0.0
H247 H 0.50255 0.00242 0.41723 0.0
H248 H 0.3572 0.08019 0.55583 0.0
H249 H 0.41892 0.00406 0.49608 0.0
H250 H 0.54234 0.04911 0.56629 0.0
H251 H 0.47983 0.12415 0.62718 0.0
C252 C 0.59326 0.89543 0.46945 0.0
C253 C 0.59528 0.89061 0.41491 0.0
C254 C 0.55804 0.93794 0.50546 0.0
C255 C 0.52427 0.97664 0.48758 0.0
C256 C 0.52719 0.97248 0.43264 0.0
C257 C 0.56219 0.92981 0.39676 0.0
C258 C 0.39737 0.07348 0.55877 0.0
C259 C 0.41376 0.10814 0.59607 0.0
C260 C 0.43292 0.03023 0.52422 0.0
C261 C 0.4858 0.02091 0.526 0.0
C262 C 0.50174 0.05476 0.56418 0.0
C263 C 0.46602 0.09788 0.59894 0.0
H264 H 0.31047 0.834 0.36544 0.0
H265 H 0.25957 0.64393 0.36215 0.0
H266 H 0.28448 0.8285 0.46487 0.0
H267 H 0.23216 0.6388 0.46203 0.0
H268 H 0.24198 0.63809 0.63619 0.0
H269 H 0.2684 0.63891 0.53629 0.0
H270 H 0.20139 0.82324 0.5445 0.0
H271 H 0.17641 0.82295 0.64395 0.0
C272 C 0.29378 0.791 0.38602 0.0
C273 C 0.28695 0.73944 0.35609 0.0
C274 C 0.27844 0.78798 0.44304 0.0
C275 C 0.25566 0.73342 0.47148 0.0
C276 C 0.24993 0.68137 0.44135 0.0
C277 C 0.26547 0.68435 0.38418 0.0
C278 C 0.23256 0.67854 0.61658 0.0
C279 C 0.2074 0.73058 0.64776 0.0
C280 C 0.24755 0.67896 0.5594 0.0
C281 C 0.23751 0.73139 0.53237 0.0
C282 C 0.2108 0.78264 0.56391 0.0
C283 C 0.19606 0.7823 0.62094 0.0
H284 H 0.75964 0.84457 0.86343 0.0
H285 H 0.80242 0.65105 0.85958 0.0
H286 H 0.73463 0.84566 0.96277 0.0
H287 H 0.7797 0.65254 0.95895 0.0
H288 H 0.68243 0.65914 0.14255 0.0
H289 H 0.70439 0.65804 0.04328 0.0
H290 H 0.77231 0.84259 0.03276 0.0
H291 H 0.74808 0.84444 0.132 0.0
C292 C 0.76435 0.80242 0.88385 0.0
C293 C 0.78303 0.74775 0.85383 0.0
C294 C 0.75025 0.80307 0.94082 0.0
C295 C 0.75515 0.7492 0.96907 0.0
C296 C 0.77447 0.69461 0.93877 0.0
C297 C 0.78797 0.69383 0.88177 0.0
C298 C 0.7017 0.69955 0.11891 0.0
C299 C 0.71336 0.75194 0.14493 0.0
C300 C 0.71475 0.69878 0.06197 0.0
C301 C 0.74034 0.75016 0.02981 0.0
C302 C 0.7518 0.80259 0.05616 0.0
C303 C 0.73814 0.8036 0.11308 0.0
H304 H 0.82196 0.16376 0.36031 0.0
H305 H 0.74453 0.34168 0.3658 0.0
H306 H 0.79761 0.16658 0.45977 0.0
H307 H 0.71844 0.34369 0.46541 0.0
H308 H 0.72926 0.35492 0.63681 0.0
H309 H 0.75472 0.3541 0.53728 0.0
H310 H 0.71913 0.15806 0.5422 0.0
H311 H 0.69561 0.15866 0.64162 0.0
C312 C 0.79972 0.20347 0.38283 0.0
C313 C 0.78522 0.25253 0.35535 0.0
C314 C 0.7853 0.20487 0.43989 0.0
C315 C 0.75569 0.25517 0.47074 0.0
C316 C 0.7418 0.30458 0.44297 0.0
C317 C 0.75658 0.30336 0.38588 0.0
C318 C 0.72659 0.31175 0.6166 0.0
C319 C 0.71054 0.25683 0.6469 0.0
C320 C 0.741 0.31129 0.55955 0.0
C321 C 0.73924 0.25595 0.53159 0.0
C322 C 0.72202 0.20126 0.56223 0.0
C323 C 0.70806 0.20165 0.61925 0.0
H324 H 0.19478 0.34096 0.13811 0.0
H325 H 0.22658 0.14454 0.13575 0.0
H326 H 0.21896 0.33981 0.03862 0.0
H327 H 0.25274 0.1436 0.03618 0.0
H328 H 0.24533 0.1529 0.86359 0.0
H329 H 0.21794 0.15263 0.96337 0.0
H330 H 0.29757 0.32995 0.95686 0.0
H331 H 0.32307 0.33107 0.8573 0.0
C332 C 0.20695 0.29755 0.11627 0.0
C333 C 0.20875 0.24285 0.14463 0.0
C334 C 0.22129 0.29693 0.0592 0.0
C335 C 0.23823 0.24168 0.02923 0.0
C336 C 0.23925 0.18682 0.0579 0.0
C337 C 0.22446 0.18738 0.11499 0.0
C338 C 0.25719 0.19162 0.88354 0.0
C339 C 0.28627 0.24203 0.85274 0.0
C340 C 0.24166 0.19142 0.94073 0.0
C341 C 0.2553 0.24142 0.9683 0.0
C342 C 0.28538 0.29126 0.93716 0.0
C343 C 0.30047 0.29168 0.88004 0.0
H344 H 0.35982 0.14202 0.26808 0.0
H345 H 0.36145 0.33929 0.29521 0.0
H346 H 0.45941 0.13905 0.24217 0.0
H347 H 0.46102 0.33616 0.27116 0.0
H348 H 0.64314 0.32108 0.17058 0.0
H349 H 0.54373 0.32223 0.1935 0.0
H350 H 0.53085 0.14831 0.27927 0.0
H351 H 0.63035 0.1463 0.25466 0.0
C352 C 0.38147 0.18465 0.26912 0.0
C353 C 0.35293 0.24089 0.28366 0.0
C354 C 0.43856 0.18293 0.25447 0.0
C355 C 0.46834 0.23738 0.25445 0.0
C356 C 0.43953 0.29353 0.26976 0.0
C357 C 0.38244 0.2953 0.28401 0.0
C358 C 0.61903 0.28288 0.19393 0.0
C359 C 0.64444 0.23357 0.21077 0.0
C360 C 0.56202 0.28378 0.20751 0.0
C361 C 0.52917 0.23557 0.23858 0.0
C362 C 0.55487 0.18583 0.25473 0.0
C363 C 0.6119 0.18474 0.2408 0.0
H364 H 0.63678 0.65108 0.69552 0.0
H365 H 0.63545 0.84771 0.72665 0.0
H366 H 0.53726 0.65257 0.71939 0.0
H367 H 0.53583 0.84901 0.75247 0.0
H368 H 0.36292 0.83949 0.74501 0.0
H369 H 0.46281 0.8397 0.7177 0.0
H370 H 0.4556 0.6631 0.79803 0.0
H371 H 0.35598 0.66203 0.82345 0.0
C372 C 0.61516 0.69461 0.70747 0.0
C373 C 0.64382 0.74925 0.70922 0.0
C374 C 0.55807 0.69543 0.72163 0.0
C375 C 0.52836 0.75084 0.73832 0.0
C376 C 0.55734 0.80566 0.73921 0.0
C377 C 0.61446 0.8049 0.72461 0.0
C378 C 0.38275 0.80092 0.75704 0.0
C379 C 0.35174 0.75071 0.78628 0.0
C380 C 0.43999 0.80109 0.74155 0.0
C381 C 0.46739 0.75125 0.75538 0.0
C382 C 0.43604 0.70164 0.78567 0.0
C383 C 0.37888 0.70126 0.80071 0.0
H384 H 0.14585 0.68184 0.1682 0.0
H385 H 0.1337 0.84859 0.26372 0.0
H386 H 0.0463 0.68083 0.19259 0.0
H387 H 0.03398 0.84651 0.28984 0.0
H388 H 0.86155 0.85703 0.28118 0.0
H389 H 0.96113 0.86064 0.25549 0.0
H390 H 0.96469 0.66135 0.26967 0.0
H391 H 0.8652 0.65777 0.29346 0.0
C392 C 0.12183 0.71829 0.19442 0.0
C393 C 0.14748 0.76533 0.21401 0.0
C394 C 0.06473 0.71743 0.20884 0.0
C395 C 0.03198 0.7633 0.24359 0.0
C396 C 0.05789 0.81086 0.2625 0.0
C397 C 0.11505 0.81199 0.24768 0.0
C398 C 0.88362 0.81405 0.27909 0.0
C399 C 0.85566 0.7571 0.28923 0.0
C400 C 0.94071 0.81611 0.26455 0.0
C401 C 0.97107 0.76127 0.26023 0.0
C402 C 0.94278 0.70439 0.27155 0.0
C403 C 0.88571 0.70233 0.28568 0.0
H404 H 0.14403 0.17398 0.67154 0.0
H405 H 0.13587 0.35142 0.75094 0.0
H406 H 0.04454 0.17473 0.69561 0.0
H407 H 0.03613 0.35133 0.77681 0.0
H408 H 0.864 0.3584 0.76745 0.0
H409 H 0.96371 0.36004 0.74095 0.0
H410 H 0.96253 0.16384 0.77423 0.0
H411 H 0.86291 0.16199 0.79887 0.0
C412 C 0.1209 0.21317 0.69413 0.0
C413 C 0.14765 0.26267 0.70932 0.0
C414 C 0.06383 0.21337 0.70838 0.0
C415 C 0.03219 0.26285 0.73857 0.0
C416 C 0.05921 0.31282 0.75301 0.0
C417 C 0.11636 0.31282 0.73835 0.0
C418 C 0.88507 0.31569 0.76931 0.0
C419 C 0.85574 0.26004 0.78516 0.0
C420 C 0.94222 0.31666 0.75433 0.0
C421 C 0.97127 0.26204 0.75525 0.0
C422 C 0.94164 0.20655 0.77204 0.0
C423 C 0.88451 0.20552 0.78662 0.0
loop_
_geom_bond_atom_site_label_1
_geom_bond_atom_site_label_2
_geom_bond_distance
_geom_bond_site_symmetry_2
_ccdc_geom_bond_type
In0 O1 2.294 . S
In0 O2 2.326 . S
In0 O6 2.266 . S
In0 O7 2.326 . S
In0 O8 2.266 . S
In0 O9 2.326 . S
In0 O11 2.294 . S
In0 O12 2.326 . S
O1 In0 2.294 . S
O1 C10 1.240 . S
O2 In0 2.326 . S
O2 C10 1.252 . S
C3 O6 1.252 . S
C3 O7 1.260 . S
C4 O11 1.240 . S
C4 O12 1.252 . S
C5 O8 1.252 . S
C5 O9 1.260 . S
O6 In0 2.266 . S
O6 C3 1.252 . S
O7 In0 2.326 . S
O7 C3 1.260 . S
O8 In0 2.266 . S
O8 C5 1.252 . S
O9 In0 2.326 . S
O9 C5 1.260 . S
C10 O1 1.240 . S
C10 O2 1.252 . S
O11 In0 2.294 . S
O11 C4 1.240 . S
O12 In0 2.326 . S
O12 C4 1.252 . S
In13 O14 2.294 . S
In13 O15 2.326 . S
In13 O19 2.266 . S
In13 O20 2.326 . S
In13 O21 2.266 . S
In13 O22 2.326 . S
In13 O24 2.294 . S
In13 O25 2.326 . S
O14 In13 2.294 . S
O14 C23 1.240 . S
O15 In13 2.326 . S
O15 C23 1.252 . S
C16 O19 1.252 . S
C16 O20 1.260 . S
C17 O24 1.240 . S
C17 O25 1.252 . S
C18 O21 1.252 . S
C18 O22 1.260 . S
O19 In13 2.266 . S
O19 C16 1.252 . S
O20 In13 2.326 . S
O20 C16 1.260 . S
O21 In13 2.266 . S
O21 C18 1.252 . S
O22 In13 2.326 . S
O22 C18 1.260 . S
C23 O14 1.240 . S
C23 O15 1.252 . S
O24 In13 2.294 . S
O24 C17 1.240 . S
O25 In13 2.326 . S
O25 C17 1.252 . S
In26 O27 2.294 . S
In26 O28 2.326 . S
In26 O32 2.266 . S
In26 O33 2.326 . S
In26 O34 2.266 . S
In26 O35 2.326 . S
In26 O37 2.294 . S
In26 O38 2.326 . S
O27 In26 2.294 . S
O27 C36 1.240 . S
O28 In26 2.326 . S
O28 C36 1.252 . S
C29 O32 1.252 . S
C29 O33 1.260 . S
C30 O37 1.240 . S
C30 O38 1.252 . S
C31 O34 1.252 . S
C31 O35 1.260 . S
O32 In26 2.266 . S
O32 C29 1.252 . S
O33 In26 2.326 . S
O33 C29 1.260 . S
O34 In26 2.266 . S
O34 C31 1.252 . S
O35 In26 2.326 . S
O35 C31 1.260 . S
C36 O27 1.240 . S
C36 O28 1.252 . S
O37 In26 2.294 . S
O37 C30 1.240 . S
O38 In26 2.326 . S
O38 C30 1.252 . S
In39 O40 2.294 . S
In39 O41 2.326 . S
In39 O45 2.266 . S
In39 O46 2.326 . S
In39 O47 2.266 . S
In39 O48 2.326 . S
In39 O50 2.294 . S
In39 O51 2.326 . S
O40 In39 2.294 . S
O40 C49 1.240 . S
O41 In39 2.326 . S
O41 C49 1.252 . S
C42 O45 1.252 . S
C42 O46 1.260 . S
C43 O50 1.240 . S
C43 O51 1.252 . S
C44 O47 1.252 . S
C44 O48 1.260 . S
O45 In39 2.266 . S
O45 C42 1.252 . S
O46 In39 2.326 . S
O46 C42 1.260 . S
O47 In39 2.266 . S
O47 C44 1.252 . S
O48 In39 2.326 . S
O48 C44 1.260 . S
C49 O40 1.240 . S
C49 O41 1.252 . S
O50 In39 2.294 . S
O50 C43 1.240 . S
O51 In39 2.326 . S
O51 C43 1.252 . S
In52 O53 2.294 . S
In52 O54 2.326 . S
In52 O58 2.266 . S
In52 O59 2.326 . S
In52 O60 2.266 . S
In52 O61 2.326 . S
In52 O63 2.294 . S
In52 O64 2.326 . S
O53 In52 2.294 . S
O53 C62 1.240 . S
O54 In52 2.326 . S
O54 C62 1.252 . S
C55 O58 1.252 . S
C55 O59 1.260 . S
C56 O63 1.240 . S
C56 O64 1.252 . S
C57 O60 1.252 . S
C57 O61 1.260 . S
O58 In52 2.266 . S
O58 C55 1.252 . S
O59 In52 2.326 . S
O59 C55 1.260 . S
O60 In52 2.266 . S
O60 C57 1.252 . S
O61 In52 2.326 . S
O61 C57 1.260 . S
C62 O53 1.240 . S
C62 O54 1.252 . S
O63 In52 2.294 . S
O63 C56 1.240 . S
O64 In52 2.326 . S
O64 C56 1.252 . S
In65 O66 2.294 . S
In65 O67 2.326 . S
In65 O71 2.266 . S
In65 O72 2.326 . S
In65 O73 2.266 . S
In65 O74 2.326 . S
In65 O76 2.294 . S
In65 O77 2.326 . S
O66 In65 2.294 . S
O66 C75 1.240 . S
O67 In65 2.326 . S
O67 C75 1.252 . S
C68 O71 1.252 . S
C68 O72 1.260 . S
C69 O76 1.240 . S
C69 O77 1.252 . S
C70 O73 1.252 . S
C70 O74 1.260 . S
O71 In65 2.266 . S
O71 C68 1.252 . S
O72 In65 2.326 . S
O72 C68 1.260 . S
O73 In65 2.266 . S
O73 C70 1.252 . S
O74 In65 2.326 . S
O74 C70 1.260 . S
C75 O66 1.240 . S
C75 O67 1.252 . S
O76 In65 2.294 . S
O76 C69 1.240 . S
O77 In65 2.326 . S
O77 C69 1.252 . S
In78 O79 2.294 . S
In78 O80 2.326 . S
In78 O84 2.266 . S
In78 O85 2.326 . S
In78 O86 2.266 . S
In78 O87 2.326 . S
In78 O89 2.294 . S
In78 O90 2.326 . S
O79 In78 2.294 . S
O79 C88 1.240 . S
O80 In78 2.326 . S
O80 C88 1.252 . S
C81 O84 1.252 . S
C81 O85 1.260 . S
C82 O89 1.240 . S
C82 O90 1.252 . S
C83 O86 1.252 . S
C83 O87 1.260 . S
O84 In78 2.266 . S
O84 C81 1.252 . S
O85 In78 2.326 . S
O85 C81 1.260 . S
O86 In78 2.266 . S
O86 C83 1.252 . S
O87 In78 2.326 . S
O87 C83 1.260 . S
C88 O79 1.240 . S
C88 O80 1.252 . S
O89 In78 2.294 . S
O89 C82 1.240 . S
O90 In78 2.326 . S
O90 C82 1.252 . S
In91 O92 2.294 . S
In91 O93 2.326 . S
In91 O97 2.266 . S
In91 O98 2.326 . S
In91 O99 2.266 . S
In91 O100 2.326 . S
In91 O102 2.294 . S
In91 O103 2.326 . S
O92 In91 2.294 . S
O92 C101 1.240 . S
O93 In91 2.326 . S
O93 C101 1.252 . S
C94 O97 1.252 . S
C94 O98 1.260 . S
C95 O102 1.240 . S
C95 O103 1.252 . S
C96 O99 1.252 . S
C96 O100 1.260 . S
O97 In91 2.266 . S
O97 C94 1.252 . S
O98 In91 2.326 . S
O98 C94 1.260 . S
O99 In91 2.266 . S
O99 C96 1.252 . S
O100 In91 2.326 . S
O100 C96 1.260 . S
C101 O92 1.240 . S
C101 O93 1.252 . S
O102 In91 2.294 . S
O102 C95 1.240 . S
O103 In91 2.326 . S
O103 C95 1.252 . S
H104 C112 0.950 . S
H105 C117 0.950 1_655 S
H106 C114 0.950 . S
H107 C116 0.950 . S
H108 C118 0.950 . S
H109 C120 0.950 . S
H110 C122 0.950 . S
H111 C123 0.950 1_455 S
C112 H104 0.950 . S
C112 C113 1.386 . S
C112 C114 1.391 . S
C113 C112 1.386 . S
C113 C117 1.393 . S
C114 H106 0.950 . S
C114 C112 1.391 . S
C114 C115 1.400 . S
C115 C114 1.400 . S
C115 C116 1.398 1_455 S
C115 C121 1.491 1_445 S
C116 H107 0.950 . S
C116 C115 1.398 1_655 S
C116 C117 1.391 1_655 S
C117 H105 0.950 1_455 S
C117 C113 1.393 . S
C117 C116 1.391 1_455 S
C118 H108 0.950 . S
C118 C119 1.386 . S
C118 C120 1.391 . S
C119 C118 1.386 . S
C119 C123 1.393 . S
C120 H109 0.950 . S
C120 C118 1.391 . S
C120 C121 1.400 . S
C121 C115 1.491 1_665 S
C121 C120 1.400 . S
C121 C122 1.398 1_655 S
C122 H110 0.950 . S
C122 C121 1.398 1_455 S
C122 C123 1.391 1_455 S
C123 H111 0.950 1_655 S
C123 C119 1.393 . S
C123 C122 1.391 1_655 S
H124 C132 0.950 . S
H125 C137 0.950 . S
H126 C134 0.950 1_545 S
H127 C136 0.950 . S
H128 C138 0.950 . S
H129 C140 0.950 1_565 S
H130 C142 0.950 . S
H131 C143 0.950 . S
C132 H124 0.950 . S
C132 C133 1.386 . S
C132 C134 1.391 . S
C133 C132 1.386 . S
C133 C137 1.393 . S
C134 H126 0.950 1_565 S
C134 C132 1.391 . S
C134 C135 1.400 . S
C135 C134 1.400 . S
C135 C136 1.398 1_556 S
C135 C141 1.491 1_466 S
C136 H127 0.950 . S
C136 C135 1.398 1_554 S
C136 C137 1.391 1_554 S
C137 H125 0.950 . S
C137 C133 1.393 . S
C137 C136 1.391 1_556 S
C138 H128 0.950 . S
C138 C139 1.386 . S
C138 C140 1.391 . S
C139 C138 1.386 . S
C139 C143 1.393 . S
C140 H129 0.950 1_545 S
C140 C138 1.391 . S
C140 C141 1.400 . S
C141 C135 1.491 1_644 S
C141 C140 1.400 . S
C141 C142 1.398 1_554 S
C142 H130 0.950 . S
C142 C141 1.398 1_556 S
C142 C143 1.391 1_556 S
C143 H131 0.950 . S
C143 C139 1.393 . S
C143 C142 1.391 1_554 S
H144 C152 0.950 . S
H145 C157 0.950 . S
H146 C154 0.950 . S
H147 C156 0.950 . S
H148 C158 0.950 . S
H149 C160 0.950 . S
H150 C162 0.950 . S
H151 C163 0.950 . S
C152 H144 0.950 . S
C152 C153 1.386 . S
C152 C154 1.391 . S
C153 C152 1.386 . S
C153 C157 1.393 . S
C154 H146 0.950 . S
C154 C152 1.391 . S
C154 C155 1.400 . S
C155 C154 1.400 . S
C155 C156 1.398 . S
C155 C161 1.491 . S
C156 H147 0.950 . S
C156 C155 1.398 . S
C156 C157 1.391 . S
C157 H145 0.950 . S
C157 C153 1.393 . S
C157 C156 1.391 . S
C158 H148 0.950 . S
C158 C159 1.386 . S
C158 C160 1.391 . S
C159 C158 1.386 . S
C159 C163 1.393 . S
C160 H149 0.950 . S
C160 C158 1.391 . S
C160 C161 1.400 . S
C161 C155 1.491 . S
C161 C160 1.400 . S
C161 C162 1.398 . S
C162 H150 0.950 . S
C162 C161 1.398 . S
C162 C163 1.391 . S
C163 H151 0.950 . S
C163 C159 1.393 . S
C163 C162 1.391 . S
H164 C172 0.950 . S
H165 C177 0.950 . S
H166 C174 0.950 1_556 S
H167 C176 0.950 . S
H168 C178 0.950 . S
H169 C180 0.950 1_554 S
H170 C182 0.950 . S
H171 C183 0.950 . S
C172 H164 0.950 . S
C172 C173 1.386 . S
C172 C174 1.391 . S
C173 C172 1.386 . S
C173 C177 1.393 . S
C174 H166 0.950 1_554 S
C174 C172 1.391 . S
C174 C175 1.400 . S
C175 C174 1.400 . S
C175 C176 1.398 . S
C175 C181 1.491 1_554 S
C176 H167 0.950 . S
C176 C175 1.398 . S
C176 C177 1.391 . S
C177 H165 0.950 . S
C177 C173 1.393 . S
C177 C176 1.391 . S
C178 H168 0.950 . S
C178 C179 1.386 . S
C178 C180 1.391 . S
C179 C178 1.386 . S
C179 C183 1.393 . S
C180 H169 0.950 1_556 S
C180 C178 1.391 . S
C180 C181 1.400 . S
C181 C175 1.491 1_556 S
C181 C180 1.400 . S
C181 C182 1.398 . S
C182 H170 0.950 . S
C182 C181 1.398 . S
C182 C183 1.391 . S
C183 H171 0.950 . S
C183 C179 1.393 . S
C183 C182 1.391 . S
H184 C192 0.950 . S
H185 C197 0.950 . S
H186 C194 0.950 . S
H187 C196 0.950 . S
H188 C198 0.950 . S
H189 C200 0.950 . S
H190 C202 0.950 . S
H191 C203 0.950 . S
C192 H184 0.950 . S
C192 C193 1.386 . S
C192 C194 1.391 . S
C193 C192 1.386 . S
C193 C197 1.393 . S
C194 H186 0.950 . S
C194 C192 1.391 . S
C194 C195 1.400 . S
C195 C194 1.400 . S
C195 C196 1.398 1_554 S
C195 C201 1.491 1_654 S
C196 H187 0.950 . S
C196 C195 1.398 1_556 S
C196 C197 1.391 1_556 S
C197 H185 0.950 . S
C197 C193 1.393 . S
C197 C196 1.391 1_554 S
C198 H188 0.950 . S
C198 C199 1.386 . S
C198 C200 1.391 . S
C199 C198 1.386 . S
C199 C203 1.393 . S
C200 H189 0.950 . S
C200 C198 1.391 . S
C200 C201 1.400 . S
C201 C195 1.491 1_456 S
C201 C200 1.400 . S
C201 C202 1.398 1_556 S
C202 H190 0.950 . S
C202 C201 1.398 1_554 S
C202 C203 1.391 1_554 S
C203 H191 0.950 . S
C203 C199 1.393 . S
C203 C202 1.391 1_556 S
H204 C212 0.950 . S
H205 C217 0.950 . S
H206 C214 0.950 1_655 S
H207 C216 0.950 . S
H208 C218 0.950 . S
H209 C220 0.950 1_455 S
H210 C222 0.950 . S
H211 C223 0.950 . S
C212 H204 0.950 . S
C212 C213 1.386 . S
C212 C214 1.391 . S
C213 C212 1.386 . S
C213 C217 1.393 . S
C214 H206 0.950 1_455 S
C214 C212 1.391 . S
C214 C215 1.400 . S
C215 C214 1.400 . S
C215 C216 1.398 . S
C215 C221 1.491 1_455 S
C216 H207 0.950 . S
C216 C215 1.398 . S
C216 C217 1.391 . S
C217 H205 0.950 . S
C217 C213 1.393 . S
C217 C216 1.391 . S
C218 H208 0.950 . S
C218 C219 1.386 . S
C218 C220 1.391 . S
C219 C218 1.386 . S
C219 C223 1.393 . S
C220 H209 0.950 1_655 S
C220 C218 1.391 . S
C220 C221 1.400 . S
C221 C215 1.491 1_655 S
C221 C220 1.400 . S
C221 C222 1.398 . S
C222 H210 0.950 . S
C222 C221 1.398 . S
C222 C223 1.391 . S
C223 H211 0.950 . S
C223 C219 1.393 . S
C223 C222 1.391 . S
H224 C232 0.950 . S
H225 C237 0.950 . S
H226 C234 0.950 1_565 S
H227 C236 0.950 . S
H228 C238 0.950 . S
H229 C240 0.950 1_545 S
H230 C242 0.950 . S
H231 C243 0.950 . S
C232 H224 0.950 . S
C232 C233 1.386 . S
C232 C234 1.391 . S
C233 C232 1.386 . S
C233 C237 1.393 . S
C234 H226 0.950 1_545 S
C234 C232 1.391 . S
C234 C235 1.400 . S
C235 C234 1.400 . S
C235 C236 1.398 1_556 S
C235 C241 1.491 1_546 S
C236 H227 0.950 . S
C236 C235 1.398 1_554 S
C236 C237 1.391 1_554 S
C237 H225 0.950 . S
C237 C233 1.393 . S
C237 C236 1.391 1_556 S
C238 H228 0.950 . S
C238 C239 1.386 . S
C238 C240 1.391 . S
C239 C238 1.386 . S
C239 C243 1.393 . S
C240 H229 0.950 1_565 S
C240 C238 1.391 . S
C240 C241 1.400 . S
C241 C235 1.491 1_564 S
C241 C240 1.400 . S
C241 C242 1.398 1_554 S
C242 H230 0.950 . S
C242 C241 1.398 1_556 S
C242 C243 1.391 1_556 S
C243 H231 0.950 . S
C243 C239 1.393 . S
C243 C242 1.391 1_554 S
H244 C252 0.950 . S
H245 C257 0.950 . S
H246 C254 0.950 1_545 S
H247 C256 0.950 . S
H248 C258 0.950 . S
H249 C260 0.950 1_565 S
H250 C262 0.950 . S
H251 C263 0.950 . S
C252 H244 0.950 . S
C252 C253 1.386 . S
C252 C254 1.391 . S
C253 C252 1.386 . S
C253 C257 1.393 . S
C254 H246 0.950 1_565 S
C254 C252 1.391 . S
C254 C255 1.400 . S
C255 C254 1.400 . S
C255 C256 1.398 . S
C255 C261 1.491 1_565 S
C256 H247 0.950 . S
C256 C255 1.398 . S
C256 C257 1.391 . S
C257 H245 0.950 . S
C257 C253 1.393 . S
C257 C256 1.391 . S
C258 H248 0.950 . S
C258 C259 1.386 . S
C258 C260 1.391 . S
C259 C258 1.386 . S
C259 C263 1.393 . S
C260 H249 0.950 1_545 S
C260 C258 1.391 . S
C260 C261 1.400 . S
C261 C255 1.491 1_545 S
C261 C260 1.400 . S
C261 C262 1.398 . S
C262 H250 0.950 . S
C262 C261 1.398 . S
C262 C263 1.391 . S
C263 H251 0.950 . S
C263 C259 1.393 . S
C263 C262 1.391 . S
H264 C272 0.950 . S
H265 C277 0.950 . S
H266 C274 0.950 . S
H267 C276 0.950 . S
H268 C278 0.950 . S
H269 C280 0.950 . S
H270 C282 0.950 . S
H271 C283 0.950 . S
C272 H264 0.950 . S
C272 C273 1.386 . S
C272 C274 1.391 . S
C273 C272 1.386 . S
C273 C277 1.393 . S
C274 H266 0.950 . S
C274 C272 1.391 . S
C274 C275 1.400 . S
C275 C274 1.400 . S
C275 C276 1.398 . S
C275 C281 1.491 . S
C276 H267 0.950 . S
C276 C275 1.398 . S
C276 C277 1.391 . S
C277 H265 0.950 . S
C277 C273 1.393 . S
C277 C276 1.391 . S
C278 H268 0.950 . S
C278 C279 1.386 . S
C278 C280 1.391 . S
C279 C278 1.386 . S
C279 C283 1.393 . S
C280 H269 0.950 . S
C280 C278 1.391 . S
C280 C281 1.400 . S
C281 C275 1.491 . S
C281 C280 1.400 . S
C281 C282 1.398 . S
C282 H270 0.950 . S
C282 C281 1.398 . S
C282 C283 1.391 . S
C283 H271 0.950 . S
C283 C279 1.393 . S
C283 C282 1.391 . S
H284 C292 0.950 . S
H285 C297 0.950 . S
H286 C294 0.950 . S
H287 C296 0.950 . S
H288 C298 0.950 . S
H289 C300 0.950 . S
H290 C302 0.950 . S
H291 C303 0.950 . S
C292 H284 0.950 . S
C292 C293 1.386 . S
C292 C294 1.391 . S
C293 C292 1.386 . S
C293 C297 1.393 . S
C294 H286 0.950 . S
C294 C292 1.391 . S
C294 C295 1.400 . S
C295 C294 1.400 . S
C295 C296 1.398 . S
C295 C301 1.491 1_556 S
C296 H287 0.950 . S
C296 C295 1.398 . S
C296 C297 1.391 . S
C297 H285 0.950 . S
C297 C293 1.393 . S
C297 C296 1.391 . S
C298 H288 0.950 . S
C298 C299 1.386 . S
C298 C300 1.391 . S
C299 C298 1.386 . S
C299 C303 1.393 . S
C300 H289 0.950 . S
C300 C298 1.391 . S
C300 C301 1.400 . S
C301 C295 1.491 1_554 S
C301 C300 1.400 . S
C301 C302 1.398 . S
C302 H290 0.950 . S
C302 C301 1.398 . S
C302 C303 1.391 . S
C303 H291 0.950 . S
C303 C299 1.393 . S
C303 C302 1.391 . S
H304 C312 0.950 . S
H305 C317 0.950 . S
H306 C314 0.950 . S
H307 C316 0.950 . S
H308 C318 0.950 . S
H309 C320 0.950 . S
H310 C322 0.950 . S
H311 C323 0.950 . S
C312 H304 0.950 . S
C312 C313 1.386 . S
C312 C314 1.391 . S
C313 C312 1.386 . S
C313 C317 1.393 . S
C314 H306 0.950 . S
C314 C312 1.391 . S
C314 C315 1.400 . S
C315 C314 1.400 . S
C315 C316 1.398 . S
C315 C321 1.491 . S
C316 H307 0.950 . S
C316 C315 1.398 . S
C316 C317 1.391 . S
C317 H305 0.950 . S
C317 C313 1.393 . S
C317 C316 1.391 . S
C318 H308 0.950 . S
C318 C319 1.386 . S
C318 C320 1.391 . S
C319 C318 1.386 . S
C319 C323 1.393 . S
C320 H309 0.950 . S
C320 C318 1.391 . S
C320 C321 1.400 . S
C321 C315 1.491 . S
C321 C320 1.400 . S
C321 C322 1.398 . S
C322 H310 0.950 . S
C322 C321 1.398 . S
C322 C323 1.391 . S
C323 H311 0.950 . S
C323 C319 1.393 . S
C323 C322 1.391 . S
H324 C332 0.950 . S
H325 C337 0.950 . S
H326 C334 0.950 . S
H327 C336 0.950 . S
H328 C338 0.950 . S
H329 C340 0.950 . S
H330 C342 0.950 . S
H331 C343 0.950 . S
C332 H324 0.950 . S
C332 C333 1.386 . S
C332 C334 1.391 . S
C333 C332 1.386 . S
C333 C337 1.393 . S
C334 H326 0.950 . S
C334 C332 1.391 . S
C334 C335 1.400 . S
C335 C334 1.400 . S
C335 C336 1.398 . S
C335 C341 1.491 1_554 S
C336 H327 0.950 . S
C336 C335 1.398 . S
C336 C337 1.391 . S
C337 H325 0.950 . S
C337 C333 1.393 . S
C337 C336 1.391 . S
C338 H328 0.950 . S
C338 C339 1.386 . S
C338 C340 1.391 . S
C339 C338 1.386 . S
C339 C343 1.393 . S
C340 H329 0.950 . S
C340 C338 1.391 . S
C340 C341 1.400 . S
C341 C335 1.491 1_556 S
C341 C340 1.400 . S
C341 C342 1.398 . S
C342 H330 0.950 . S
C342 C341 1.398 . S
C342 C343 1.391 . S
C343 H331 0.950 . S
C343 C339 1.393 . S
C343 C342 1.391 . S
H344 C352 0.950 . S
H345 C357 0.950 . S
H346 C354 0.950 . S
H347 C356 0.950 . S
H348 C358 0.950 . S
H349 C360 0.950 . S
H350 C362 0.950 . S
H351 C363 0.950 . S
C352 H344 0.950 . S
C352 C353 1.386 . S
C352 C354 1.391 . S
C353 C352 1.386 . S
C353 C357 1.393 . S
C354 H346 0.950 . S
C354 C352 1.391 . S
C354 C355 1.400 . S
C355 C354 1.400 . S
C355 C356 1.398 . S
C355 C361 1.491 . S
C356 H347 0.950 . S
C356 C355 1.398 . S
C356 C357 1.391 . S
C357 H345 0.950 . S
C357 C353 1.393 . S
C357 C356 1.391 . S
C358 H348 0.950 . S
C358 C359 1.386 . S
C358 C360 1.391 . S
C359 C358 1.386 . S
C359 C363 1.393 . S
C360 H349 0.950 . S
C360 C358 1.391 . S
C360 C361 1.400 . S
C361 C355 1.491 . S
C361 C360 1.400 . S
C361 C362 1.398 . S
C362 H350 0.950 . S
C362 C361 1.398 . S
C362 C363 1.391 . S
C363 H351 0.950 . S
C363 C359 1.393 . S
C363 C362 1.391 . S
H364 C372 0.950 . S
H365 C377 0.950 . S
H366 C374 0.950 . S
H367 C376 0.950 . S
H368 C378 0.950 . S
H369 C380 0.950 . S
H370 C382 0.950 . S
H371 C383 0.950 . S
C372 H364 0.950 . S
C372 C373 1.386 . S
C372 C374 1.391 . S
C373 C372 1.386 . S
C373 C377 1.393 . S
C374 H366 0.950 . S
C374 C372 1.391 . S
C374 C375 1.400 . S
C375 C374 1.400 . S
C375 C376 1.398 . S
C375 C381 1.491 . S
C376 H367 0.950 . S
C376 C375 1.398 . S
C376 C377 1.391 . S
C377 H365 0.950 . S
C377 C373 1.393 . S
C377 C376 1.391 . S
C378 H368 0.950 . S
C378 C379 1.386 . S
C378 C380 1.391 . S
C379 C378 1.386 . S
C379 C383 1.393 . S
C380 H369 0.950 . S
C380 C378 1.391 . S
C380 C381 1.400 . S
C381 C375 1.491 . S
C381 C380 1.400 . S
C381 C382 1.398 . S
C382 H370 0.950 . S
C382 C381 1.398 . S
C382 C383 1.391 . S
C383 H371 0.950 . S
C383 C379 1.393 . S
C383 C382 1.391 . S
H384 C392 0.950 . S
H385 C397 0.950 . S
H386 C394 0.950 . S
H387 C396 0.950 . S
H388 C398 0.950 . S
H389 C400 0.950 . S
H390 C402 0.950 . S
H391 C403 0.950 . S
C392 H384 0.950 . S
C392 C393 1.386 . S
C392 C394 1.391 . S
C393 C392 1.386 . S
C393 C397 1.393 . S
C394 H386 0.950 . S
C394 C392 1.391 . S
C394 C395 1.400 . S
C395 C394 1.400 . S
C395 C396 1.398 . S
C395 C401 1.491 1_455 S
C396 H387 0.950 . S
C396 C395 1.398 . S
C396 C397 1.391 . S
C397 H385 0.950 . S
C397 C393 1.393 . S
C397 C396 1.391 . S
C398 H388 0.950 . S
C398 C399 1.386 . S
C398 C400 1.391 . S
C399 C398 1.386 . S
C399 C403 1.393 . S
C400 H389 0.950 . S
C400 C398 1.391 . S
C400 C401 1.400 . S
C401 C395 1.491 1_655 S
C401 C400 1.400 . S
C401 C402 1.398 . S
C402 H390 0.950 . S
C402 C401 1.398 . S
C402 C403 1.391 . S
C403 H391 0.950 . S
C403 C399 1.393 . S
C403 C402 1.391 . S
H404 C412 0.950 . S
H405 C417 0.950 . S
H406 C414 0.950 . S
H407 C416 0.950 . S
H408 C418 0.950 . S
H409 C420 0.950 . S
H410 C422 0.950 . S
H411 C423 0.950 . S
C412 H404 0.950 . S
C412 C413 1.386 . S
C412 C414 1.391 . S
C413 C412 1.386 . S
C413 C417 1.393 . S
C414 H406 0.950 . S
C414 C412 1.391 . S
C414 C415 1.400 . S
C415 C414 1.400 . S
C415 C416 1.398 . S
C415 C421 1.491 1_455 S
C416 H407 0.950 . S
C416 C415 1.398 . S
C416 C417 1.391 . S
C417 H405 0.950 . S
C417 C413 1.393 . S
C417 C416 1.391 . S
C418 H408 0.950 . S
C418 C419 1.386 . S
C418 C420 1.391 . S
C419 C418 1.386 . S
C419 C423 1.393 . S
C420 H409 0.950 . S
C420 C418 1.391 . S
C420 C421 1.400 . S
C421 C415 1.491 1_655 S
C421 C420 1.400 . S
C421 C422 1.398 . S
C422 H410 0.950 . S
C422 C421 1.398 . S
C422 C423 1.391 . S
C423 H411 0.950 . S
C423 C419 1.393 . S
C423 C422 1.391 . S
C113 C4 1.851 . S
C119 C30 1.851 . S
C133 C49 1.856 . S
C139 C17 1.856 . S
C153 C82 1.849 . S
C159 C56 1.849 . S
C173 C69 1.858 . S
C179 C95 1.858 . S
C193 C23 1.226 . S
C199 C43 1.226 . S
C213 C10 1.237 . S
C219 C36 1.237 . S
C233 C101 1.240 . S
C239 C75 1.240 . S
C253 C62 1.227 . S
C259 C88 1.227 . S
C273 C68 1.531 . S
C279 C44 1.531 . S
C293 C29 1.530 . S
C299 C55 1.530 . S
C313 C16 1.531 . S
C319 C94 1.531 . S
C333 C3 1.527 . S
C339 C81 1.527 . S
C353 C5 1.554 . S
C359 C18 1.548 . S
C373 C31 1.550 . S
C379 C42 1.552 . S
C393 C70 1.548 . S
C399 C57 1.553 . S
C413 C83 1.551 . S
C419 C96 1.551 . S
