# Generated by pormake.
# Topology vmc, (5)-cn, num edge types: 1
# Building blocks:
#     Node 0, Type 0, BuildingBlock: XOMCOT_clean_sbu_0, # of connection points: 5
#     Node 1, Type 0, BuildingBlock: XOMCOT_clean_sbu_0, # of connection points: 5
#     Node 2, Type 0, BuildingBlock: XOMCOT_clean_sbu_0, # of connection points: 5
#     Node 3, Type 0, BuildingBlock: XOMCOT_clean_sbu_0, # of connection points: 5
#     Node 4, Type 0, BuildingBlock: XOMCOT_clean_sbu_0, # of connection points: 5
#     Node 5, Type 0, BuildingBlock: XOMCOT_clean_sbu_0, # of connection points: 5
#     Node 6, Type 0, BuildingBlock: XOMCOT_clean_sbu_0, # of connection points: 5
#     Node 7, Type 0, BuildingBlock: XOMCOT_clean_sbu_0, # of connection points: 5
#     Edge 8, Type (0, 0), BuildingBlock: AJUNOK_clean_linker_0, # of connection points: 2
#     Edge 9, Type (0, 0), BuildingBlock: AJUNOK_clean_linker_0, # of connection points: 2
#     Edge 10, Type (0, 0), BuildingBlock: AJUNOK_clean_linker_0, # of connection points: 2
#     Edge 11, Type (0, 0), BuildingBlock: AJUNOK_clean_linker_0, # of connection points: 2
#     Edge 12, Type (0, 0), BuildingBlock: AJUNOK_clean_linker_0, # of connection points: 2
#     Edge 13, Type (0, 0), BuildingBlock: AJUNOK_clean_linker_0, # of connection points: 2
#     Edge 14, Type (0, 0), BuildingBlock: AJUNOK_clean_linker_0, # of connection points: 2
#     Edge 15, Type (0, 0), BuildingBlock: AJUNOK_clean_linker_0, # of connection points: 2
#     Edge 16, Type (0, 0), BuildingBlock: AJUNOK_clean_linker_0, # of connection points: 2
#     Edge 17, Type (0, 0), BuildingBlock: AJUNOK_clean_linker_0, # of connection points: 2
#     Edge 18, Type (0, 0), BuildingBlock: AJUNOK_clean_linker_0, # of connection points: 2
#     Edge 19, Type (0, 0), BuildingBlock: AJUNOK_clean_linker_0, # of connection points: 2
#     Edge 20, Type (0, 0), BuildingBlock: AJUNOK_clean_linker_0, # of connection points: 2
#     Edge 21, Type (0, 0), BuildingBlock: AJUNOK_clean_linker_0, # of connection points: 2
#     Edge 22, Type (0, 0), BuildingBlock: AJUNOK_clean_linker_0, # of connection points: 2
#     Edge 23, Type (0, 0), BuildingBlock: AJUNOK_clean_linker_0, # of connection points: 2
#     Edge 24, Type (0, 0), BuildingBlock: AJUNOK_clean_linker_0, # of connection points: 2
#     Edge 25, Type (0, 0), BuildingBlock: AJUNOK_clean_linker_0, # of connection points: 2
#     Edge 26, Type (0, 0), BuildingBlock: AJUNOK_clean_linker_0, # of connection points: 2
#     Edge 27, Type (0, 0), BuildingBlock: AJUNOK_clean_linker_0, # of connection points: 2
# Relax obj value: 0.325
# Max RMSD: 0.196
# Mean RMSD: 0.196
data_MOF--net-vmc--node1-XOMCOT_clean_sbu_0--edge1-AJUNOK_clean_linker_0
_symmetry_space_group_name_H-M    P1
_symmetry_Int_Tables_number       1
_symmetry_cell_setting            triclinic
loop_
_symmetry_equiv_pos_as_xyz
'x, y, z'
_cell_length_a     21.917339
_cell_length_b     36.823364
_cell_length_c     21.95824
_cell_angle_alpha  89.912521
_cell_angle_beta   87.562786
_cell_angle_gamma 89.958923
loop_
_atom_site_label
_atom_site_type_symbol
_atom_site_fract_x
_atom_site_fract_y
_atom_site_fract_z
_atom_type_partial_charge
Co0 Co 0.27293 0.47592 0.07307 0.0
C1 C 0.22585 0.50507 0.95855 0.0
C2 C 0.16334 0.51685 1.03344 0.0
C3 C 0.1394 0.53006 0.98054 0.0
N4 N 0.21749 0.5008 1.01958 0.0
N5 N 0.17856 0.52227 0.93332 0.0
H6 H 0.26634 0.49621 0.93301 0.0
H7 H 0.14224 0.51921 0.07849 0.0
C8 C 0.1722 0.48209 0.17817 0.0
O9 O 0.13056 0.46169 0.15387 0.0
N10 N 0.32874 0.45099 0.1234 0.0
C11 C 0.36199 0.42162 0.10612 0.0
C12 C 0.40474 0.41539 0.14859 0.0
C13 C 0.35139 0.4624 0.17588 0.0
N14 N 0.3978 0.44106 0.19183 0.0
C15 C 0.23641 0.41509 1.00264 0.0
C16 C 0.21539 0.3696 0.10164 0.0
C17 C 0.22455 0.3542 0.04371 0.0
C18 C 0.23195 0.37754 0.9934 0.0
C19 C 0.22054 0.40711 0.10895 0.0
N20 N 0.23335 0.42934 0.06009 0.0
H21 H 0.24869 0.43216 0.96408 0.0
H22 H 0.22188 0.41743 0.15481 0.0
H23 H 0.35747 0.40697 0.06389 0.0
H24 H 0.33713 0.48695 0.19954 0.0
O25 O 0.33715 0.47417 1.00916 0.0
O26 O 0.32323 0.5185 0.07614 0.0
O27 O 0.22278 0.48867 0.14935 0.0
C28 C 0.35786 0.50379 1.03361 0.0
H29 H 0.09618 0.54399 0.97708 0.0
H30 H 0.4398 0.39464 0.14685 0.0
H31 H 0.20866 0.35259 0.14165 0.0
H32 H 0.23919 0.36674 0.94781 0.0
Co33 Co 0.69294 0.4728 0.49668 0.0
C34 C 0.73958 0.51333 0.60197 0.0
C35 C 0.81184 0.4868 0.55078 0.0
C36 C 0.83439 0.4992 0.6045 0.0
N37 N 0.7521 0.49548 0.54884 0.0
N38 N 0.78893 0.51587 0.63666 0.0
H39 H 0.69412 0.52088 0.61833 0.0
H40 H 0.83583 0.46868 0.51975 0.0
C41 C 0.7917 0.48165 0.38881 0.0
O42 O 0.83641 0.46286 0.41122 0.0
N43 N 0.63344 0.44942 0.44825 0.0
C44 C 0.6028 0.41884 0.46437 0.0
C45 C 0.55631 0.41396 0.42543 0.0
C46 C 0.60464 0.46317 0.40062 0.0
N47 N 0.55795 0.44176 0.38563 0.0
C48 C 0.73117 0.41078 0.56304 0.0
C49 C 0.75117 0.36697 0.46179 0.0
C50 C 0.74649 0.3508 0.51956 0.0
C51 C 0.73875 0.37333 0.57084 0.0
C52 C 0.74366 0.40446 0.456 0.0
N53 N 0.73144 0.42566 0.5061 0.0
H54 H 0.72003 0.42749 0.60243 0.0
H55 H 0.74092 0.41565 0.41076 0.0
H56 H 0.61189 0.40217 0.50355 0.0
H57 H 0.61465 0.48934 0.38026 0.0
O58 O 0.63119 0.47107 0.5629 0.0
O59 O 0.64433 0.51616 0.4969 0.0
O60 O 0.74089 0.48574 0.41883 0.0
C61 C 0.61013 0.50101 0.53937 0.0
H62 H 0.87917 0.49344 0.62118 0.0
H63 H 0.52324 0.39212 0.42666 0.0
H64 H 0.75706 0.35051 0.42111 0.0
H65 H 0.73412 0.36188 0.61626 0.0
Co66 Co 0.69634 0.57648 0.99674 0.0
C67 C 0.74422 0.54809 0.1115 0.0
C68 C 0.81166 0.54323 0.03867 0.0
C69 C 0.83523 0.52914 0.09112 0.0
N70 N 0.75406 0.55466 0.05129 0.0
N71 N 0.79278 0.53235 0.13723 0.0
H72 H 0.70229 0.55505 0.13638 0.0
H73 H 0.8353 0.5447 0.99458 0.0
C74 C 0.76093 0.53819 0.89647 0.0
O75 O 0.7463 0.50831 0.92635 0.0
N76 N 0.63856 0.59862 0.94505 0.0
C77 C 0.60234 0.62699 0.9611 0.0
C78 C 0.55527 0.62867 0.92202 0.0
C79 C 0.61342 0.58342 0.8965 0.0
N80 N 0.56237 0.60112 0.88221 0.0
C81 C 0.71838 0.64004 0.06693 0.0
C82 C 0.75497 0.68279 0.96827 0.0
C83 C 0.73779 0.69971 1.02346 0.0
C84 C 0.72221 0.67776 0.07406 0.0
C85 C 0.75038 0.64514 0.963 0.0
N86 N 0.72961 0.62442 1.01125 0.0
H87 H 0.70137 0.62371 0.10488 0.0
H88 H 0.75829 0.63336 0.91846 0.0
H89 H 0.60724 0.64365 1.00108 0.0
H90 H 0.62937 0.55852 0.87504 0.0
O91 O 0.63076 0.57499 0.0593 0.0
O92 O 0.65133 0.53159 0.99242 0.0
O93 O 0.75236 0.56892 0.92243 0.0
C94 C 0.61424 0.54459 0.03448 0.0
H95 H 0.87956 0.51653 0.094 0.0
H96 H 0.51773 0.64782 0.92365 0.0
H97 H 0.76878 0.6987 0.92851 0.0
H98 H 0.70905 0.68976 0.11767 0.0
Co99 Co 0.27076 0.56903 0.57273 0.0
C100 C 0.22383 0.53741 0.45952 0.0
C101 C 0.1523 0.54156 0.52855 0.0
C102 C 0.12786 0.5286 0.47581 0.0
N103 N 0.2127 0.54715 0.51845 0.0
N104 N 0.17298 0.52599 0.43233 0.0
H105 H 0.26816 0.53922 0.43623 0.0
H106 H 0.12681 0.5474 0.57039 0.0
C107 C 0.17185 0.56589 0.68005 0.0
O108 O 0.13473 0.59099 0.66064 0.0
N109 N 0.32935 0.59099 0.62376 0.0
C110 C 0.3646 0.61962 0.607 0.0
C111 C 0.40959 0.62328 0.64781 0.0
C112 C 0.35331 0.57736 0.67431 0.0
N113 N 0.4024 0.59671 0.68965 0.0
C114 C 0.23599 0.6313 0.50426 0.0
C115 C 0.22022 0.67687 0.6039 0.0
C116 C 0.22527 0.69218 0.54561 0.0
C117 C 0.23119 0.66888 0.49516 0.0
C118 C 0.22633 0.63941 0.61104 0.0
N119 N 0.23544 0.61707 0.56173 0.0
H120 H 0.2454 0.61395 0.46534 0.0
H121 H 0.23043 0.62902 0.65667 0.0
H122 H 0.35977 0.63551 0.56602 0.0
H123 H 0.33773 0.55268 0.69685 0.0
O124 O 0.33513 0.56961 0.50888 0.0
O125 O 0.31671 0.52474 0.57415 0.0
O126 O 0.21951 0.55658 0.64845 0.0
C127 C 0.35301 0.53896 0.53252 0.0
H128 H 0.08005 0.52314 0.46948 0.0
H129 H 0.44589 0.64323 0.64612 0.0
H130 H 0.21673 0.69397 0.64401 0.0
H131 H 0.23511 0.67975 0.4493 0.0
Co132 Co 0.78046 0.97778 0.07067 0.0
C133 C 0.72094 1.0048 0.96177 0.0
C134 C 0.68627 0.03356 0.04034 0.0
C135 C 0.66018 0.04774 0.98903 0.0
N136 N 0.72332 1.00585 1.02333 0.0
N137 N 0.68189 0.02946 0.93933 0.0
H138 H 0.75127 0.98842 0.93344 0.0
H139 H 0.68074 0.04414 0.0861 0.0
C140 C 0.68144 0.98952 0.17601 0.0
O141 O 0.63322 0.988 0.14262 0.0
N142 N 0.83888 0.94923 0.11281 0.0
C143 C 0.86767 0.91988 0.08877 0.0
C144 C 0.91206 0.90921 0.1268 0.0
C145 C 0.86686 0.95653 0.1647 0.0
N146 N 0.911 0.93193 0.17485 0.0
C147 C 0.74621 0.91684 0.99789 0.0
C148 C 0.70631 0.87448 0.09567 0.0
C149 C 0.71902 0.85769 0.03946 0.0
C150 C 0.7368 0.87958 0.98952 0.0
C151 C 0.71635 0.91167 0.10218 0.0
N152 N 0.73812 0.93236 0.05418 0.0
H153 H 0.76685 0.93199 0.96051 0.0
H154 H 0.71298 0.92241 0.14767 0.0
H155 H 0.85932 0.90816 0.04485 0.0
H156 H 0.85633 0.97978 0.19334 0.0
O157 O 0.84077 0.97947 1.00322 0.0
O158 O 0.8315 1.01966 0.07782 0.0
O159 O 0.73514 0.98593 0.15189 0.0
C160 C 0.86322 1.00746 1.03112 0.0
H161 H 0.62909 0.07056 0.98846 0.0
H162 H 0.94458 0.88751 0.1181 0.0
H163 H 0.69258 0.85855 0.13546 0.0
H164 H 0.74847 0.86764 0.94551 0.0
Co165 Co 0.193 0.97068 0.48951 0.0
C166 C 0.24208 1.00286 0.60096 0.0
C167 C 0.30619 1.00917 0.52563 0.0
C168 C 0.3309 0.02389 0.57691 0.0
N169 N 0.2498 0.99649 0.54043 0.0
N170 N 0.29073 1.01965 0.62481 0.0
H171 H 0.20199 0.99441 0.62752 0.0
H172 H 0.32881 1.00758 0.48109 0.0
C173 C 0.2546 1.00796 0.38576 0.0
O174 O 0.2377 0.03807 0.41368 0.0
N175 N 0.13636 0.94398 0.44258 0.0
C176 C 0.10486 0.91483 0.46369 0.0
C177 C 0.06341 0.90522 0.42186 0.0
C178 C 0.11313 0.9522 0.38857 0.0
N179 N 0.06909 0.92842 0.37445 0.0
C180 C 0.22269 0.91034 0.56534 0.0
C181 C 0.26072 0.86578 0.46964 0.0
C182 C 0.24718 0.85001 0.52674 0.0
C183 C 0.23016 0.87303 0.57556 0.0
C184 C 0.25294 0.90305 0.4614 0.0
N185 N 0.23149 0.9246 0.50825 0.0
H186 H 0.2047 0.92717 0.60213 0.0
H187 H 0.25804 0.91355 0.41561 0.0
H188 H 0.10971 0.90245 0.50788 0.0
H189 H 0.12679 0.97552 0.36124 0.0
O190 O 0.12829 0.97284 0.55334 0.0
O191 O 0.14382 1.01365 0.48074 0.0
O192 O 0.24694 0.9775 0.41313 0.0
C193 C 0.10906 1.00177 0.52558 0.0
H194 H 0.37478 0.03715 0.57778 0.0
H195 H 0.02956 0.88396 0.42746 0.0
H196 H 0.27253 0.84915 0.43024 0.0
H197 H 0.21959 0.86205 0.62055 0.0
Co198 Co 0.20165 0.07512 0.98756 0.0
C199 C 0.24774 0.03349 0.09172 0.0
C200 C 0.32028 0.06116 0.04269 0.0
C201 C 0.34192 0.04831 0.09674 0.0
N202 N 0.26086 0.05211 0.03939 0.0
N203 N 0.29619 0.03093 0.12753 0.0
H204 H 0.20223 0.02539 0.10691 0.0
H205 H 0.34447 0.07957 1.0121 0.0
C206 C 0.29998 0.06688 0.87831 0.0
O207 O 0.34635 0.08421 0.9005 0.0
N208 N 0.1419 0.0986 0.93943 0.0
C209 C 0.1115 0.12931 0.95523 0.0
C210 C 0.06339 0.13342 0.91795 0.0
C211 C 0.1113 0.08403 0.89375 0.0
N212 N 0.06367 0.10496 0.87964 0.0
C213 C 0.23698 0.13665 0.05623 0.0
C214 C 0.25902 0.1816 0.95657 0.0
C215 C 0.25223 0.1972 1.01464 0.0
C216 C 0.24348 0.17407 0.06516 0.0
C217 C 0.2524 0.14411 0.94963 0.0
N218 N 0.23903 0.12236 0.9989 0.0
H219 H 0.22517 0.11947 0.09493 0.0
H220 H 0.25135 0.13333 0.90403 0.0
H221 H 0.12144 0.14642 0.99352 0.0
H222 H 0.12029 0.05738 0.8749 0.0
O223 O 0.13939 0.07543 0.05346 0.0
O224 O 0.15468 0.03141 0.98593 0.0
O225 O 0.2497 0.06352 0.9094 0.0
C226 C 0.11998 0.04539 1.02903 0.0
H227 H 0.38621 0.05411 0.11448 0.0
H228 H 0.02982 0.15502 0.91975 0.0
H229 H 0.26587 0.19848 0.91642 0.0
H230 H 0.23721 0.18499 0.11076 0.0
Co231 Co 0.76727 0.07134 0.57607 0.0
C232 C 0.72549 0.03475 0.46462 0.0
C233 C 0.64967 0.04876 0.52469 0.0
C234 C 0.62762 0.03546 0.47103 0.0
N235 N 0.71124 0.04835 0.52084 0.0
N236 N 0.67542 0.02655 0.43332 0.0
H237 H 0.77149 0.03297 0.44514 0.0
H238 H 0.62231 0.05966 0.56231 0.0
C239 C 0.66832 0.06741 0.68315 0.0
O240 O 0.63183 0.09252 0.66276 0.0
N241 N 0.82373 0.09464 0.62767 0.0
C242 C 0.85766 0.12391 0.61117 0.0
C243 C 0.90097 0.12901 0.65329 0.0
C244 C 0.84681 0.08205 0.67931 0.0
N245 N 0.89392 0.1027 0.6955 0.0
C246 C 0.7287 0.13249 0.50732 0.0
C247 C 0.7156 0.17869 0.60626 0.0
C248 C 0.72145 0.19372 0.54775 0.0
C249 C 0.72491 0.17008 0.49763 0.0
C250 C 0.7204 0.14124 0.61397 0.0
N251 N 0.72899 0.11859 0.56501 0.0
H252 H 0.73745 0.11487 0.4686 0.0
H253 H 0.72469 0.13116 0.65977 0.0
H254 H 0.85319 0.13923 0.56953 0.0
H255 H 0.83243 0.05716 0.70196 0.0
O256 O 0.83152 0.07396 0.5123 0.0
O257 O 0.81727 0.02835 0.57696 0.0
O258 O 0.71586 0.05725 0.65185 0.0
C259 C 0.85228 0.04389 0.53547 0.0
H260 H 0.58007 0.03343 0.45999 0.0
H261 H 0.93671 0.14933 0.6518 0.0
H262 H 0.71181 0.19591 0.64619 0.0
H263 H 0.72937 0.18062 0.45158 0.0
C264 C 0.13892 0.57343 0.79072 0.0
C265 C 0.16578 0.55197 0.74379 0.0
C266 C 0.14201 0.5632 0.85237 0.0
C267 C 0.17193 0.53108 0.86954 0.0
H268 H 0.1178 0.59914 0.78006 0.0
H269 H 0.12278 0.58129 0.88695 0.0
S270 S 0.24153 0.4627 0.76353 0.0
N271 N 0.21812 0.49536 0.71857 0.0
N272 N 0.22251 0.47587 0.8336 0.0
C273 C 0.19594 0.50846 0.82276 0.0
C274 C 0.19315 0.51894 0.76022 0.0
C275 C 0.80686 0.4974 0.74249 0.0
C276 C 0.7881 0.52385 0.70098 0.0
C277 C 0.80076 0.50309 0.80567 0.0
C278 C 0.77679 0.53577 0.82994 0.0
H279 H 0.82394 0.47147 0.72594 0.0
H280 H 0.81339 0.48126 0.83578 0.0
S281 S 0.72652 0.61494 0.73963 0.0
N282 N 0.74786 0.58449 0.68778 0.0
N283 N 0.73793 0.59597 0.80642 0.0
C284 C 0.7608 0.5632 0.78858 0.0
C285 C 0.76586 0.55699 0.72417 0.0
C286 C 0.74097 0.4993 0.29344 0.0
C287 C 0.79538 0.49455 0.32422 0.0
C288 C 0.74094 0.51132 0.23305 0.0
C289 C 0.79542 0.51965 0.19983 0.0
H290 H 0.69748 0.4932 0.31582 0.0
H291 H 0.69734 0.51368 0.21222 0.0
S292 S 0.95138 0.51356 0.25998 0.0
N293 N 0.90594 0.49962 0.31725 0.0
N294 N 0.90629 0.52342 0.20384 0.0
C295 C 0.85075 0.51527 0.23001 0.0
C296 C 0.85063 0.50247 0.29196 0.0
C297 C 0.20505 0.5225 0.26237 0.0
C298 C 0.16546 0.49515 0.24257 0.0
C299 C 0.2063 0.5327 0.3238 0.0
C300 C 0.16808 0.5161 0.36875 0.0
H301 H 0.23645 0.53589 0.2302 0.0
H302 H 0.23783 0.55378 0.33616 0.0
S303 S 0.0551 0.44331 0.34172 0.0
N304 N 0.08588 0.45211 0.27332 0.0
N305 N 0.08858 0.47106 0.38896 0.0
C306 C 0.12695 0.48937 0.34965 0.0
C307 C 0.12555 0.47898 0.28667 0.0
C308 C 0.65461 0.07249 0.85668 0.0
C309 C 0.67175 0.03733 0.87537 0.0
C310 C 0.64984 0.08144 0.79458 0.0
C311 C 0.66276 0.05581 0.74829 0.0
H312 H 0.64702 0.09379 0.89001 0.0
H313 H 0.63901 0.1092 0.78268 0.0
S314 S 0.70044 0.95877 0.77152 0.0
N315 N 0.6935 0.97552 0.84117 0.0
N316 N 0.68808 0.99311 0.72521 0.0
C317 C 0.67732 1.02029 0.76608 0.0
C318 C 0.68089 1.01088 0.82924 0.0
C319 C 0.24562 0.04677 0.78618 0.0
C320 C 0.30122 0.0545 0.81324 0.0
C321 C 0.24307 0.03573 0.72546 0.0
C322 C 0.29611 0.03127 0.68785 0.0
H323 H 0.20289 0.04961 0.81183 0.0
H324 H 0.19846 0.03102 0.70804 0.0
S325 S 0.45497 0.04544 0.73724 0.0
N326 N 0.41161 0.05587 0.79806 0.0
N327 N 0.40754 0.0338 0.68415 0.0
C328 C 0.35275 0.03829 0.7144 0.0
C329 C 0.35513 0.05014 0.77677 0.0
C330 C 0.31341 0.04736 0.23452 0.0
C331 C 0.29352 1.02206 0.19171 0.0
C332 C 0.30352 0.04159 0.29742 0.0
C333 C 0.27469 1.00988 0.32019 0.0
H334 H 0.33387 0.0727 0.21915 0.0
H335 H 0.31688 0.06271 0.32846 0.0
S336 S 0.21876 0.93384 0.22677 0.0
N337 N 0.24632 0.96347 0.17616 0.0
N338 N 0.23011 0.95169 0.29433 0.0
C339 C 0.25785 0.98339 0.27781 0.0
C340 C 0.26647 0.98977 0.21364 0.0
C341 C 0.62989 0.02854 0.33125 0.0
C342 C 0.67377 1.01466 0.37043 0.0
C343 C 0.63069 1.01921 0.26886 0.0
C344 C 0.67539 0.99562 0.24327 0.0
H345 H 0.59601 0.04777 0.34845 0.0
H346 H 0.5976 0.03166 0.24008 0.0
S347 S 0.79394 0.94717 0.32824 0.0
N348 N 0.75866 0.97298 0.38011 0.0
N349 N 0.75976 0.95518 0.26402 0.0
C350 C 0.71727 0.98008 0.28279 0.0
C351 C 0.71663 0.98967 0.34594 0.0
C352 C 0.44162 0.54755 0.05363 0.0
C353 C 0.42318 0.51454 1.02777 0.0
C354 C 0.50352 0.55609 0.05898 0.0
C355 C 0.54985 0.53197 0.03876 0.0
H356 H 0.40783 0.56692 0.07065 0.0
H357 H 0.51501 0.58229 0.07769 0.0
S358 S 0.52651 0.44124 0.97001 0.0
N359 N 0.45674 0.45708 0.98329 0.0
N360 N 0.573 0.47319 0.99305 0.0
C361 C 0.53219 0.49875 1.01314 0.0
C362 C 0.46902 0.49008 1.00752 0.0
C363 C 0.52577 0.54473 0.52055 0.0
C364 C 0.54449 0.51116 0.54448 0.0
C365 C 0.46388 0.55266 0.51298 0.0
C366 C 0.41794 0.52729 0.5288 0.0
H367 H 0.55939 0.56498 0.50662 0.0
H368 H 0.45199 0.57931 0.49618 0.0
S369 S 0.44226 0.43474 0.59078 0.0
N370 N 0.51164 0.45194 0.5824 0.0
N371 N 0.39556 0.46677 0.56817 0.0
C372 C 0.43596 0.4935 0.55234 0.0
C373 C 0.499 0.48551 0.56042 0.0
C374 C 0.0101 0.05853 0.05508 0.0
C375 C 0.05536 0.03367 0.03519 0.0
C376 C 0.94788 0.05071 0.04991 0.0
C377 C 0.92837 1.01789 1.02414 0.0
H378 H 0.0227 0.08467 0.07327 0.0
H379 H 0.91466 0.07042 0.06696 0.0
S380 S 0.02867 0.94289 0.9677 0.0
N381 N 0.07628 0.97425 0.99064 0.0
N382 N 0.9596 0.95986 0.98033 0.0
C383 C 0.97316 0.99277 1.00419 0.0
C384 C 0.03647 1.00052 1.01012 0.0
C385 C 0.93716 1.00046 0.5556 0.0
C386 C 0.9176 0.03289 0.52824 0.0
C387 C -0.00062 0.99155 0.55774 0.0
C388 C 0.04486 1.01471 0.53267 0.0
H389 H 0.90411 0.98177 0.57612 0.0
H390 H 0.0117 0.96581 0.57775 0.0
S391 S 0.01881 0.10389 0.45888 0.0
N392 N 0.94954 0.08894 0.47762 0.0
N393 N 0.06616 0.07218 0.48141 0.0
C394 C 0.02612 0.04746 0.50589 0.0
C395 C 0.96271 0.0565 0.50358 0.0
C396 C 0.201 0.2951 0.99233 0.0
C397 C 0.23244 0.31419 0.03667 0.0
C398 C 0.20837 0.25742 0.98506 0.0
C399 C 0.2477 0.23737 1.02164 0.0
H400 H 0.1698 0.3093 0.96363 0.0
H401 H 0.18212 0.24375 0.95124 0.0
S402 S 0.34545 0.2751 0.13982 0.0
N403 N 0.30792 0.31059 0.1146 0.0
N404 N 0.32131 0.23989 0.10107 0.0
C405 C 0.28038 0.25626 0.0652 0.0
C406 C 0.27294 0.2946 0.0726 0.0
C407 C 0.70208 0.29072 0.49078 0.0
C408 C 0.74306 0.31058 0.52564 0.0
C409 C 0.69554 0.25296 0.49767 0.0
C410 C 0.7296 0.23364 0.53984 0.0
H411 H 0.67382 0.30461 0.4588 0.0
H412 H 0.66277 0.2389 0.47065 0.0
S413 S 0.84791 0.2723 0.6372 0.0
N414 N 0.82108 0.30774 0.60069 0.0
N415 N 0.80954 0.23686 0.6133 0.0
C416 C 0.77201 0.25307 0.57369 0.0
C417 C 0.77847 0.29148 0.56677 0.0
C418 C 0.75286 0.79718 0.07851 0.0
C419 C 0.72125 0.81733 0.03517 0.0
C420 C 0.75798 0.75925 0.07459 0.0
C421 C 0.73202 0.73996 1.02696 0.0
H422 H 0.77486 0.81092 0.11524 0.0
H423 H 0.78325 0.74497 0.10857 0.0
S424 S 0.64008 0.77942 0.90493 0.0
N425 N 0.66078 0.81486 0.94516 0.0
N426 N 0.67012 0.74362 0.93774 0.0
C427 C 0.69936 0.75969 0.98393 0.0
C428 C 0.69414 0.79831 0.98798 0.0
C429 C 0.19298 0.79334 0.5632 0.0
C430 C 0.24415 0.80965 0.53324 0.0
C431 C 0.18665 0.7554 0.56623 0.0
C432 C 0.23082 0.73226 0.53877 0.0
H433 H 0.15685 0.81001 0.58353 0.0
H434 H 0.14664 0.74406 0.58985 0.0
S435 S 0.37583 0.7608 0.45963 0.0
N436 N 0.34176 0.79933 0.47917 0.0
N437 N 0.3292 0.72818 0.48398 0.0
C438 C 0.28254 0.74809 0.50944 0.0
C439 C 0.28934 0.78669 0.50686 0.0
C440 C 0.45412 0.44352 0.34894 0.0
C441 C 0.51738 0.44713 0.33746 0.0
C442 C 0.41426 0.4437 0.30095 0.0
C443 C 0.43713 0.44679 0.24065 0.0
H444 H 0.43587 0.43955 0.39509 0.0
H445 H 0.36587 0.43958 0.3105 0.0
S446 S 0.59793 0.45929 0.18721 0.0
N447 N 0.60048 0.45602 0.26215 0.0
N448 N 0.52508 0.45595 0.17165 0.0
C449 C 0.49971 0.45204 0.22882 0.0
C450 C 0.54012 0.45236 0.27751 0.0
C451 C 0.50575 0.59188 0.72635 0.0
C452 C 0.44231 0.58991 0.738 0.0
C453 C 0.54556 0.59281 0.77421 0.0
C454 C 0.52273 0.59246 0.83469 0.0
H455 H 0.52428 0.59436 0.68001 0.0
H456 H 0.59395 0.59621 0.76416 0.0
S457 S 0.36157 0.58158 0.88886 0.0
N458 N 0.35904 0.58296 0.81375 0.0
N459 N 0.43446 0.58541 0.90428 0.0
C460 C 0.45996 0.58772 0.84694 0.0
C461 C 0.41945 0.58616 0.79823 0.0
C462 C 0.01205 0.96229 0.29854 0.0
C463 C 0.03177 0.92907 0.32245 0.0
C464 C 0.97209 0.96313 0.2505 0.0
C465 C 0.9509 0.93079 0.22488 0.0
H466 H 0.02654 0.98771 0.31795 0.0
H467 H 0.9581 0.9892 0.23296 0.0
S468 S -0.00999 0.83689 0.2708 0.0
N469 N 0.02925 0.86322 0.31556 0.0
N470 N 0.95167 0.86475 0.22761 0.0
C471 C 0.9705 0.89746 0.24836 0.0
C472 C 0.01159 0.89662 0.29659 0.0
C473 C 0.95759 0.10279 0.84909 0.0
C474 C 0.02017 0.09796 0.8347 0.0
C475 C 0.91508 0.10149 0.80351 0.0
C476 C 0.93456 0.09581 0.74277 0.0
H477 H 0.94198 0.10886 0.89542 0.0
H478 H 0.86746 0.10713 0.81497 0.0
S479 S 0.09191 0.07888 0.68241 0.0
N480 N 0.09878 0.08481 0.75642 0.0
N481 N 0.01829 0.08267 0.67054 0.0
C482 C -0.00377 0.08889 0.72835 0.0
C483 C 0.03937 0.08984 0.77458 0.0
loop_
_geom_bond_atom_site_label_1
_geom_bond_atom_site_label_2
_geom_bond_distance
_geom_bond_site_symmetry_2
_ccdc_geom_bond_type
Co0 N4 2.148 . S
Co0 N10 2.128 . S
Co0 N20 2.194 . S
Co0 O25 2.351 1_554 S
Co0 O26 2.155 . S
Co0 O27 2.096 . S
C1 N4 1.301 1_556 S
C1 N5 1.328 . S
C1 H6 0.930 . S
C2 C3 1.333 1_554 S
C2 N4 1.317 . S
C2 H7 0.930 . S
C3 C2 1.333 1_556 S
C3 N5 1.350 . S
C3 H29 0.931 . S
N4 Co0 2.148 . S
N4 C1 1.301 1_554 S
N4 C2 1.317 . S
N5 C1 1.328 . S
N5 C3 1.350 . S
H6 C1 0.930 . S
H7 C2 0.930 . S
C8 O9 1.224 . S
C8 O27 1.247 . S
O9 C8 1.224 . S
N10 Co0 2.128 . S
N10 C11 1.355 . S
N10 C13 1.311 . S
C11 N10 1.355 . S
C11 C12 1.363 . S
C11 H23 0.929 . S
C12 C11 1.363 . S
C12 N14 1.375 . S
C12 H30 0.931 . S
C13 N10 1.311 . S
C13 N14 1.347 . S
C13 H24 0.929 . S
N14 C12 1.375 . S
N14 C13 1.347 . S
C15 C18 1.365 . S
C15 N20 1.328 1_556 S
C15 H21 0.929 . S
C16 C17 1.362 . S
C16 C19 1.378 . S
C16 H31 0.929 . S
C17 C16 1.362 . S
C17 C18 1.366 1_554 S
C18 C15 1.365 . S
C18 C17 1.366 1_556 S
C18 H32 0.930 . S
C19 C16 1.378 . S
C19 N20 1.315 . S
C19 H22 0.930 . S
N20 Co0 2.194 . S
N20 C15 1.328 1_554 S
N20 C19 1.315 . S
H21 C15 0.929 . S
H22 C19 0.930 . S
H23 C11 0.929 . S
H24 C13 0.929 . S
O25 Co0 2.351 1_556 S
O25 C28 1.244 1_556 S
O26 Co0 2.155 . S
O26 C28 1.240 . S
O27 Co0 2.096 . S
O27 C8 1.247 . S
C28 O25 1.244 1_554 S
C28 O26 1.240 . S
H29 C3 0.931 . S
H30 C12 0.931 . S
H31 C16 0.929 . S
H32 C18 0.930 . S
Co33 N37 2.148 . S
Co33 N43 2.128 . S
Co33 N53 2.194 . S
Co33 O58 2.351 . S
Co33 O59 2.155 . S
Co33 O60 2.096 . S
C34 N37 1.301 . S
C34 N38 1.328 . S
C34 H39 0.930 . S
C35 C36 1.333 . S
C35 N37 1.317 . S
C35 H40 0.930 . S
C36 C35 1.333 . S
C36 N38 1.350 . S
C36 H62 0.931 . S
N37 Co33 2.148 . S
N37 C34 1.301 . S
N37 C35 1.317 . S
N38 C34 1.328 . S
N38 C36 1.350 . S
H39 C34 0.930 . S
H40 C35 0.930 . S
C41 O42 1.224 . S
C41 O60 1.247 . S
O42 C41 1.224 . S
N43 Co33 2.128 . S
N43 C44 1.355 . S
N43 C46 1.311 . S
C44 N43 1.355 . S
C44 C45 1.363 . S
C44 H56 0.929 . S
C45 C44 1.363 . S
C45 N47 1.375 . S
C45 H63 0.931 . S
C46 N43 1.311 . S
C46 N47 1.347 . S
C46 H57 0.929 . S
N47 C45 1.375 . S
N47 C46 1.347 . S
C48 C51 1.365 . S
C48 N53 1.328 . S
C48 H54 0.929 . S
C49 C50 1.362 . S
C49 C52 1.378 . S
C49 H64 0.929 . S
C50 C49 1.362 . S
C50 C51 1.366 . S
C51 C48 1.365 . S
C51 C50 1.366 . S
C51 H65 0.930 . S
C52 C49 1.378 . S
C52 N53 1.315 . S
C52 H55 0.930 . S
N53 Co33 2.194 . S
N53 C48 1.328 . S
N53 C52 1.315 . S
H54 C48 0.929 . S
H55 C52 0.930 . S
H56 C44 0.929 . S
H57 C46 0.929 . S
O58 Co33 2.351 . S
O58 C61 1.244 . S
O59 Co33 2.155 . S
O59 C61 1.240 . S
O60 Co33 2.096 . S
O60 C41 1.247 . S
C61 O58 1.244 . S
C61 O59 1.240 . S
H62 C36 0.931 . S
H63 C45 0.931 . S
H64 C49 0.929 . S
H65 C51 0.930 . S
Co66 N70 2.148 . S
Co66 N76 2.128 . S
Co66 N86 2.194 . S
Co66 O91 2.351 1_556 S
Co66 O92 2.155 . S
Co66 O93 2.096 . S
C67 N70 1.301 1_554 S
C67 N71 1.328 . S
C67 H72 0.930 . S
C68 C69 1.333 1_556 S
C68 N70 1.317 . S
C68 H73 0.930 . S
C69 C68 1.333 1_554 S
C69 N71 1.350 . S
C69 H95 0.931 . S
N70 Co66 2.148 . S
N70 C67 1.301 1_556 S
N70 C68 1.317 . S
N71 C67 1.328 . S
N71 C69 1.350 . S
H72 C67 0.930 . S
H73 C68 0.930 . S
C74 O75 1.224 . S
C74 O93 1.247 . S
O75 C74 1.224 . S
N76 Co66 2.128 . S
N76 C77 1.355 . S
N76 C79 1.311 . S
C77 N76 1.355 . S
C77 C78 1.363 . S
C77 H89 0.929 . S
C78 C77 1.363 . S
C78 N80 1.375 . S
C78 H96 0.931 . S
C79 N76 1.311 . S
C79 N80 1.347 . S
C79 H90 0.929 . S
N80 C78 1.375 . S
N80 C79 1.347 . S
C81 C84 1.365 . S
C81 N86 1.328 1_554 S
C81 H87 0.929 . S
C82 C83 1.362 . S
C82 C85 1.378 . S
C82 H97 0.929 . S
C83 C82 1.362 . S
C83 C84 1.366 1_556 S
C84 C81 1.365 . S
C84 C83 1.366 1_554 S
C84 H98 0.930 . S
C85 C82 1.378 . S
C85 N86 1.315 . S
C85 H88 0.930 . S
N86 Co66 2.194 . S
N86 C81 1.328 1_556 S
N86 C85 1.315 . S
H87 C81 0.929 . S
H88 C85 0.930 . S
H89 C77 0.929 . S
H90 C79 0.929 . S
O91 Co66 2.351 1_554 S
O91 C94 1.244 1_554 S
O92 Co66 2.155 . S
O92 C94 1.240 . S
O93 Co66 2.096 . S
O93 C74 1.247 . S
C94 O91 1.244 1_556 S
C94 O92 1.240 . S
H95 C69 0.931 . S
H96 C78 0.931 . S
H97 C82 0.929 . S
H98 C84 0.930 . S
Co99 N103 2.148 . S
Co99 N109 2.128 . S
Co99 N119 2.194 . S
Co99 O124 2.351 . S
Co99 O125 2.155 . S
Co99 O126 2.096 . S
C100 N103 1.301 . S
C100 N104 1.328 . S
C100 H105 0.930 . S
C101 C102 1.333 . S
C101 N103 1.317 . S
C101 H106 0.930 . S
C102 C101 1.333 . S
C102 N104 1.350 . S
C102 H128 0.931 . S
N103 Co99 2.148 . S
N103 C100 1.301 . S
N103 C101 1.317 . S
N104 C100 1.328 . S
N104 C102 1.350 . S
H105 C100 0.930 . S
H106 C101 0.930 . S
C107 O108 1.224 . S
C107 O126 1.247 . S
O108 C107 1.224 . S
N109 Co99 2.128 . S
N109 C110 1.355 . S
N109 C112 1.311 . S
C110 N109 1.355 . S
C110 C111 1.363 . S
C110 H122 0.929 . S
C111 C110 1.363 . S
C111 N113 1.375 . S
C111 H129 0.931 . S
C112 N109 1.311 . S
C112 N113 1.347 . S
C112 H123 0.929 . S
N113 C111 1.375 . S
N113 C112 1.347 . S
C114 C117 1.365 . S
C114 N119 1.328 . S
C114 H120 0.929 . S
C115 C116 1.362 . S
C115 C118 1.378 . S
C115 H130 0.929 . S
C116 C115 1.362 . S
C116 C117 1.366 . S
C117 C114 1.365 . S
C117 C116 1.366 . S
C117 H131 0.930 . S
C118 C115 1.378 . S
C118 N119 1.315 . S
C118 H121 0.930 . S
N119 Co99 2.194 . S
N119 C114 1.328 . S
N119 C118 1.315 . S
H120 C114 0.929 . S
H121 C118 0.930 . S
H122 C110 0.929 . S
H123 C112 0.929 . S
O124 Co99 2.351 . S
O124 C127 1.244 . S
O125 Co99 2.155 . S
O125 C127 1.240 . S
O126 Co99 2.096 . S
O126 C107 1.247 . S
C127 O124 1.244 . S
C127 O125 1.240 . S
H128 C102 0.931 . S
H129 C111 0.931 . S
H130 C115 0.929 . S
H131 C117 0.930 . S
Co132 N136 2.148 . S
Co132 N142 2.128 . S
Co132 N152 2.194 . S
Co132 O157 2.351 1_554 S
Co132 O158 2.155 . S
Co132 O159 2.096 . S
C133 N136 1.301 1_556 S
C133 N137 1.328 . S
C133 H138 0.930 . S
C134 C135 1.333 1_554 S
C134 N136 1.317 . S
C134 H139 0.930 . S
C135 C134 1.333 1_556 S
C135 N137 1.350 . S
C135 H161 0.931 1_565 S
N136 Co132 2.148 . S
N136 C133 1.301 1_554 S
N136 C134 1.317 . S
N137 C133 1.328 . S
N137 C135 1.350 . S
H138 C133 0.930 . S
H139 C134 0.930 . S
C140 O141 1.224 . S
C140 O159 1.247 . S
O141 C140 1.224 . S
N142 Co132 2.128 . S
N142 C143 1.355 . S
N142 C145 1.311 . S
C143 N142 1.355 . S
C143 C144 1.363 . S
C143 H155 0.929 . S
C144 C143 1.363 . S
C144 N146 1.375 . S
C144 H162 0.931 . S
C145 N142 1.311 . S
C145 N146 1.347 . S
C145 H156 0.929 . S
N146 C144 1.375 . S
N146 C145 1.347 . S
C147 C150 1.365 . S
C147 N152 1.328 1_556 S
C147 H153 0.929 . S
C148 C149 1.362 . S
C148 C151 1.378 . S
C148 H163 0.929 . S
C149 C148 1.362 . S
C149 C150 1.366 1_554 S
C150 C147 1.365 . S
C150 C149 1.366 1_556 S
C150 H164 0.930 . S
C151 C148 1.378 . S
C151 N152 1.315 . S
C151 H154 0.930 . S
N152 Co132 2.194 . S
N152 C147 1.328 1_554 S
N152 C151 1.315 . S
H153 C147 0.929 . S
H154 C151 0.930 . S
H155 C143 0.929 . S
H156 C145 0.929 . S
O157 Co132 2.351 1_556 S
O157 C160 1.244 1_556 S
O158 Co132 2.155 . S
O158 C160 1.240 . S
O159 Co132 2.096 . S
O159 C140 1.247 . S
C160 O157 1.244 1_554 S
C160 O158 1.240 . S
H161 C135 0.931 1_545 S
H162 C144 0.931 . S
H163 C148 0.929 . S
H164 C150 0.930 . S
Co165 N169 2.148 . S
Co165 N175 2.128 . S
Co165 N185 2.194 . S
Co165 O190 2.351 . S
Co165 O191 2.155 . S
Co165 O192 2.096 . S
C166 N169 1.301 . S
C166 N170 1.328 . S
C166 H171 0.930 . S
C167 C168 1.333 . S
C167 N169 1.317 . S
C167 H172 0.930 . S
C168 C167 1.333 . S
C168 N170 1.350 . S
C168 H194 0.931 1_565 S
N169 Co165 2.148 . S
N169 C166 1.301 . S
N169 C167 1.317 . S
N170 C166 1.328 . S
N170 C168 1.350 . S
H171 C166 0.930 . S
H172 C167 0.930 . S
C173 O174 1.224 . S
C173 O192 1.247 . S
O174 C173 1.224 . S
N175 Co165 2.128 . S
N175 C176 1.355 . S
N175 C178 1.311 . S
C176 N175 1.355 . S
C176 C177 1.363 . S
C176 H188 0.929 . S
C177 C176 1.363 . S
C177 N179 1.375 . S
C177 H195 0.931 . S
C178 N175 1.311 . S
C178 N179 1.347 . S
C178 H189 0.929 . S
N179 C177 1.375 . S
N179 C178 1.347 . S
C180 C183 1.365 . S
C180 N185 1.328 . S
C180 H186 0.929 . S
C181 C182 1.362 . S
C181 C184 1.378 . S
C181 H196 0.929 . S
C182 C181 1.362 . S
C182 C183 1.366 . S
C183 C180 1.365 . S
C183 C182 1.366 . S
C183 H197 0.930 . S
C184 C181 1.378 . S
C184 N185 1.315 . S
C184 H187 0.930 . S
N185 Co165 2.194 . S
N185 C180 1.328 . S
N185 C184 1.315 . S
H186 C180 0.929 . S
H187 C184 0.930 . S
H188 C176 0.929 . S
H189 C178 0.929 . S
O190 Co165 2.351 . S
O190 C193 1.244 . S
O191 Co165 2.155 . S
O191 C193 1.240 . S
O192 Co165 2.096 . S
O192 C173 1.247 . S
C193 O190 1.244 . S
C193 O191 1.240 . S
H194 C168 0.931 1_545 S
H195 C177 0.931 . S
H196 C181 0.929 . S
H197 C183 0.930 . S
Co198 N202 2.148 . S
Co198 N208 2.128 . S
Co198 N218 2.194 . S
Co198 O223 2.351 1_556 S
Co198 O224 2.155 . S
Co198 O225 2.096 . S
C199 N202 1.301 1_554 S
C199 N203 1.328 . S
C199 H204 0.930 . S
C200 C201 1.333 1_556 S
C200 N202 1.317 . S
C200 H205 0.930 . S
C201 C200 1.333 1_554 S
C201 N203 1.350 . S
C201 H227 0.931 1_545 S
N202 Co198 2.148 . S
N202 C199 1.301 1_556 S
N202 C200 1.317 . S
N203 C199 1.328 . S
N203 C201 1.350 . S
H204 C199 0.930 . S
H205 C200 0.930 . S
C206 O207 1.224 . S
C206 O225 1.247 . S
O207 C206 1.224 . S
N208 Co198 2.128 . S
N208 C209 1.355 . S
N208 C211 1.311 . S
C209 N208 1.355 . S
C209 C210 1.363 . S
C209 H221 0.929 . S
C210 C209 1.363 . S
C210 N212 1.375 . S
C210 H228 0.931 . S
C211 N208 1.311 . S
C211 N212 1.347 . S
C211 H222 0.929 . S
N212 C210 1.375 . S
N212 C211 1.347 . S
C213 C216 1.365 . S
C213 N218 1.328 1_554 S
C213 H219 0.929 . S
C214 C215 1.362 . S
C214 C217 1.378 . S
C214 H229 0.929 . S
C215 C214 1.362 . S
C215 C216 1.366 1_556 S
C216 C213 1.365 . S
C216 C215 1.366 1_554 S
C216 H230 0.930 . S
C217 C214 1.378 . S
C217 N218 1.315 . S
C217 H220 0.930 . S
N218 Co198 2.194 . S
N218 C213 1.328 1_556 S
N218 C217 1.315 . S
H219 C213 0.929 . S
H220 C217 0.930 . S
H221 C209 0.929 . S
H222 C211 0.929 . S
O223 Co198 2.351 1_554 S
O223 C226 1.244 1_554 S
O224 Co198 2.155 . S
O224 C226 1.240 . S
O225 Co198 2.096 . S
O225 C206 1.247 . S
C226 O223 1.244 1_556 S
C226 O224 1.240 . S
H227 C201 0.931 1_565 S
H228 C210 0.931 . S
H229 C214 0.929 . S
H230 C216 0.930 . S
Co231 N235 2.148 . S
Co231 N241 2.128 . S
Co231 N251 2.194 . S
Co231 O256 2.351 . S
Co231 O257 2.155 . S
Co231 O258 2.096 . S
C232 N235 1.301 . S
C232 N236 1.328 . S
C232 H237 0.930 . S
C233 C234 1.333 . S
C233 N235 1.317 . S
C233 H238 0.930 . S
C234 C233 1.333 . S
C234 N236 1.350 . S
C234 H260 0.931 1_545 S
N235 Co231 2.148 . S
N235 C232 1.301 . S
N235 C233 1.317 . S
N236 C232 1.328 . S
N236 C234 1.350 . S
H237 C232 0.930 . S
H238 C233 0.930 . S
C239 O240 1.224 . S
C239 O258 1.247 . S
O240 C239 1.224 . S
N241 Co231 2.128 . S
N241 C242 1.355 . S
N241 C244 1.311 . S
C242 N241 1.355 . S
C242 C243 1.363 . S
C242 H254 0.929 . S
C243 C242 1.363 . S
C243 N245 1.375 . S
C243 H261 0.931 . S
C244 N241 1.311 . S
C244 N245 1.347 . S
C244 H255 0.929 . S
N245 C243 1.375 . S
N245 C244 1.347 . S
C246 C249 1.365 . S
C246 N251 1.328 . S
C246 H252 0.929 . S
C247 C248 1.362 . S
C247 C250 1.378 . S
C247 H262 0.929 . S
C248 C247 1.362 . S
C248 C249 1.366 . S
C249 C246 1.365 . S
C249 C248 1.366 . S
C249 H263 0.930 . S
C250 C247 1.378 . S
C250 N251 1.315 . S
C250 H253 0.930 . S
N251 Co231 2.194 . S
N251 C246 1.328 . S
N251 C250 1.315 . S
H252 C246 0.929 . S
H253 C250 0.930 . S
H254 C242 0.929 . S
H255 C244 0.929 . S
O256 Co231 2.351 . S
O256 C259 1.244 . S
O257 Co231 2.155 . S
O257 C259 1.240 . S
O258 Co231 2.096 . S
O258 C239 1.247 . S
C259 O256 1.244 . S
C259 O257 1.240 . S
H260 C234 0.931 1_565 S
H261 C243 0.931 . S
H262 C247 0.929 . S
H263 C249 0.930 . S
C264 C265 1.369 . S
C264 C266 1.419 . S
C264 H268 0.930 . S
C265 C264 1.369 . S
C265 C274 1.429 . S
C266 C264 1.419 . S
C266 C267 1.363 . S
C266 H269 0.929 . S
C267 C266 1.363 . S
C267 C273 1.428 . S
H268 C264 0.930 . S
H269 C266 0.929 . S
S270 N271 1.613 . S
S270 N272 1.610 . S
N271 S270 1.613 . S
N271 C274 1.350 . S
N272 S270 1.610 . S
N272 C273 1.351 . S
C273 C267 1.428 . S
C273 N272 1.351 . S
C273 C274 1.434 . S
C274 C265 1.429 . S
C274 N271 1.350 . S
C274 C273 1.434 . S
C275 C276 1.369 . S
C275 C277 1.419 . S
C275 H279 0.930 . S
C276 C275 1.369 . S
C276 C285 1.429 . S
C277 C275 1.419 . S
C277 C278 1.363 . S
C277 H280 0.929 . S
C278 C277 1.363 . S
C278 C284 1.428 . S
H279 C275 0.930 . S
H280 C277 0.929 . S
S281 N282 1.613 . S
S281 N283 1.610 . S
N282 S281 1.613 . S
N282 C285 1.350 . S
N283 S281 1.610 . S
N283 C284 1.351 . S
C284 C278 1.428 . S
C284 N283 1.351 . S
C284 C285 1.434 . S
C285 C276 1.429 . S
C285 N282 1.350 . S
C285 C284 1.434 . S
C286 C287 1.369 . S
C286 C288 1.419 . S
C286 H290 0.930 . S
C287 C286 1.369 . S
C287 C296 1.429 . S
C288 C286 1.419 . S
C288 C289 1.363 . S
C288 H291 0.929 . S
C289 C288 1.363 . S
C289 C295 1.428 . S
H290 C286 0.930 . S
H291 C288 0.929 . S
S292 N293 1.613 . S
S292 N294 1.610 . S
N293 S292 1.613 . S
N293 C296 1.350 . S
N294 S292 1.610 . S
N294 C295 1.351 . S
C295 C289 1.428 . S
C295 N294 1.351 . S
C295 C296 1.434 . S
C296 C287 1.429 . S
C296 N293 1.350 . S
C296 C295 1.434 . S
C297 C298 1.369 . S
C297 C299 1.419 . S
C297 H301 0.930 . S
C298 C297 1.369 . S
C298 C307 1.429 . S
C299 C297 1.419 . S
C299 C300 1.363 . S
C299 H302 0.929 . S
C300 C299 1.363 . S
C300 C306 1.428 . S
H301 C297 0.930 . S
H302 C299 0.929 . S
S303 N304 1.613 . S
S303 N305 1.610 . S
N304 S303 1.613 . S
N304 C307 1.350 . S
N305 S303 1.610 . S
N305 C306 1.351 . S
C306 C300 1.428 . S
C306 N305 1.351 . S
C306 C307 1.434 . S
C307 C298 1.429 . S
C307 N304 1.350 . S
C307 C306 1.434 . S
C308 C309 1.369 1_545 S
C308 C310 1.419 . S
C308 H312 0.930 . S
C309 C308 1.369 1_565 S
C309 C318 1.429 . S
C310 C308 1.419 . S
C310 C311 1.363 . S
C310 H313 0.929 . S
C311 C310 1.363 . S
C311 C317 1.428 1_545 S
H312 C308 0.930 . S
H313 C310 0.929 . S
S314 N315 1.613 . S
S314 N316 1.610 . S
N315 S314 1.613 . S
N315 C318 1.350 . S
N316 S314 1.610 . S
N316 C317 1.351 . S
C317 C311 1.428 1_565 S
C317 N316 1.351 . S
C317 C318 1.434 . S
C318 C309 1.429 . S
C318 N315 1.350 . S
C318 C317 1.434 . S
C319 C320 1.369 . S
C319 C321 1.419 . S
C319 H323 0.930 . S
C320 C319 1.369 . S
C320 C329 1.423 1_545 S
C321 C319 1.419 . S
C321 C322 1.363 1_545 S
C321 H324 0.929 . S
C322 C321 1.363 1_565 S
C322 C328 1.428 . S
H323 C319 0.930 . S
H324 C321 0.929 . S
S325 N326 1.613 . S
S325 N327 1.610 . S
N326 S325 1.613 . S
N326 C329 1.351 . S
N327 S325 1.610 . S
N327 C328 1.351 . S
C328 C322 1.428 . S
C328 N327 1.351 . S
C328 C329 1.438 . S
C329 C320 1.423 1_565 S
C329 N326 1.351 . S
C329 C328 1.438 . S
C330 C331 1.369 . S
C330 C332 1.419 . S
C330 H334 0.930 . S
C331 C330 1.369 . S
C331 C340 1.429 1_545 S
C332 C330 1.419 . S
C332 C333 1.363 1_545 S
C332 H335 0.929 . S
C333 C332 1.363 1_565 S
C333 C339 1.428 . S
H334 C330 0.930 . S
H335 C332 0.929 . S
S336 N337 1.613 . S
S336 N338 1.610 . S
N337 S336 1.613 . S
N337 C340 1.350 . S
N338 S336 1.610 . S
N338 C339 1.351 . S
C339 C333 1.428 . S
C339 N338 1.351 . S
C339 C340 1.434 . S
C340 C331 1.429 1_565 S
C340 N337 1.350 . S
C340 C339 1.434 . S
C341 C342 1.369 . S
C341 C343 1.419 . S
C341 H345 0.930 . S
C342 C341 1.369 . S
C342 C351 1.429 1_545 S
C343 C341 1.419 . S
C343 C344 1.363 1_545 S
C343 H346 0.929 . S
C344 C343 1.363 1_565 S
C344 C350 1.428 . S
H345 C341 0.930 . S
H346 C343 0.929 . S
S347 N348 1.613 . S
S347 N349 1.610 . S
N348 S347 1.613 . S
N348 C351 1.350 . S
N349 S347 1.610 . S
N349 C350 1.351 . S
C350 C344 1.428 . S
C350 N349 1.351 . S
C350 C351 1.434 . S
C351 C342 1.429 1_565 S
C351 N348 1.350 . S
C351 C350 1.434 . S
C352 C353 1.369 . S
C352 C354 1.419 1_556 S
C352 H356 0.930 . S
C353 C352 1.369 . S
C353 C362 1.427 1_556 S
C354 C352 1.419 1_554 S
C354 C355 1.363 . S
C354 H357 0.929 . S
C355 C354 1.363 . S
C355 C361 1.428 . S
H356 C352 0.930 . S
H357 C354 0.929 . S
S358 N359 1.613 . S
S358 N360 1.610 . S
N359 S358 1.613 . S
N359 C362 1.350 . S
N360 S358 1.610 . S
N360 C361 1.351 . S
C361 C355 1.428 . S
C361 N360 1.351 . S
C361 C362 1.435 . S
C362 C353 1.427 1_554 S
C362 N359 1.350 . S
C362 C361 1.435 . S
C363 C364 1.369 . S
C363 C365 1.419 . S
C363 H367 0.930 . S
C364 C363 1.369 . S
C364 C373 1.429 . S
C365 C363 1.419 . S
C365 C366 1.363 . S
C365 H368 0.929 . S
C366 C365 1.363 . S
C366 C372 1.428 . S
H367 C363 0.930 . S
H368 C365 0.929 . S
S369 N370 1.613 . S
S369 N371 1.610 . S
N370 S369 1.613 . S
N370 C373 1.350 . S
N371 S369 1.610 . S
N371 C372 1.351 . S
C372 C366 1.428 . S
C372 N371 1.351 . S
C372 C373 1.434 . S
C373 C364 1.429 . S
C373 N370 1.350 . S
C373 C372 1.434 . S
C374 C375 1.369 . S
C374 C376 1.419 1_455 S
C374 H378 0.930 . S
C375 C374 1.369 . S
C375 C384 1.429 1_544 S
C376 C374 1.419 1_655 S
C376 C377 1.363 1_544 S
C376 H379 0.929 . S
C377 C376 1.363 1_566 S
C377 C383 1.428 . S
H378 C374 0.930 . S
H379 C376 0.929 . S
S380 N381 1.613 . S
S380 N382 1.610 . S
N381 S380 1.613 . S
N381 C384 1.350 . S
N382 S380 1.610 . S
N382 C383 1.351 1_455 S
C383 C377 1.428 . S
C383 N382 1.351 1_655 S
C383 C384 1.434 1_655 S
C384 C375 1.429 1_566 S
C384 N381 1.350 . S
C384 C383 1.434 1_455 S
C385 C386 1.369 . S
C385 C387 1.419 1_645 S
C385 H389 0.930 . S
C386 C385 1.369 . S
C386 C395 1.429 . S
C387 C385 1.419 1_465 S
C387 C388 1.363 . S
C387 H390 0.929 . S
C388 C387 1.363 . S
C388 C394 1.428 . S
H389 C385 0.930 . S
H390 C387 0.929 . S
S391 N392 1.613 1_465 S
S391 N393 1.610 . S
N392 S391 1.613 1_645 S
N392 C395 1.350 . S
N393 S391 1.610 . S
N393 C394 1.351 . S
C394 C388 1.428 . S
C394 N393 1.351 . S
C394 C395 1.434 1_465 S
C395 C386 1.429 . S
C395 N392 1.350 . S
C395 C394 1.434 1_645 S
C396 C397 1.369 1_556 S
C396 C398 1.419 . S
C396 H400 0.930 . S
C397 C396 1.369 1_554 S
C397 C406 1.429 . S
C398 C396 1.419 . S
C398 C399 1.363 . S
C398 H401 0.929 . S
C399 C398 1.363 . S
C399 C405 1.428 1_556 S
H400 C396 0.930 . S
H401 C398 0.929 . S
S402 N403 1.613 . S
S402 N404 1.610 . S
N403 S402 1.613 . S
N403 C406 1.350 . S
N404 S402 1.610 . S
N404 C405 1.351 . S
C405 C399 1.428 1_554 S
C405 N404 1.351 . S
C405 C406 1.434 . S
C406 C397 1.429 . S
C406 N403 1.350 . S
C406 C405 1.434 . S
C407 C408 1.369 . S
C407 C409 1.419 . S
C407 H411 0.930 . S
C408 C407 1.369 . S
C408 C417 1.429 . S
C409 C407 1.419 . S
C409 C410 1.363 . S
C409 H412 0.929 . S
C410 C409 1.363 . S
C410 C416 1.428 . S
H411 C407 0.930 . S
H412 C409 0.929 . S
S413 N414 1.613 . S
S413 N415 1.610 . S
N414 S413 1.613 . S
N414 C417 1.350 . S
N415 S413 1.610 . S
N415 C416 1.351 . S
C416 C410 1.428 . S
C416 N415 1.351 . S
C416 C417 1.434 . S
C417 C408 1.429 . S
C417 N414 1.350 . S
C417 C416 1.434 . S
C418 C419 1.369 . S
C418 C420 1.419 . S
C418 H422 0.930 . S
C419 C418 1.369 . S
C419 C428 1.429 1_554 S
C420 C418 1.419 . S
C420 C421 1.363 1_554 S
C420 H423 0.929 . S
C421 C420 1.363 1_556 S
C421 C427 1.428 . S
H422 C418 0.930 . S
H423 C420 0.929 . S
S424 N425 1.613 . S
S424 N426 1.610 . S
N425 S424 1.613 . S
N425 C428 1.350 . S
N426 S424 1.610 . S
N426 C427 1.351 . S
C427 C421 1.428 . S
C427 N426 1.351 . S
C427 C428 1.434 . S
C428 C419 1.429 1_556 S
C428 N425 1.350 . S
C428 C427 1.434 . S
C429 C430 1.369 . S
C429 C431 1.419 . S
C429 H433 0.930 . S
C430 C429 1.369 . S
C430 C439 1.429 . S
C431 C429 1.419 . S
C431 C432 1.363 . S
C431 H434 0.929 . S
C432 C431 1.363 . S
C432 C438 1.428 . S
H433 C429 0.930 . S
H434 C431 0.929 . S
S435 N436 1.613 . S
S435 N437 1.610 . S
N436 S435 1.613 . S
N436 C439 1.350 . S
N437 S435 1.610 . S
N437 C438 1.351 . S
C438 C432 1.428 . S
C438 N437 1.351 . S
C438 C439 1.434 . S
C439 C430 1.429 . S
C439 N436 1.350 . S
C439 C438 1.434 . S
C440 C441 1.369 . S
C440 C442 1.419 . S
C440 H444 0.930 . S
C441 C440 1.369 . S
C441 C450 1.429 . S
C442 C440 1.419 . S
C442 C443 1.363 . S
C442 H445 0.929 . S
C443 C442 1.363 . S
C443 C449 1.428 . S
H444 C440 0.930 . S
H445 C442 0.929 . S
S446 N447 1.613 . S
S446 N448 1.610 . S
N447 S446 1.613 . S
N447 C450 1.350 . S
N448 S446 1.610 . S
N448 C449 1.351 . S
C449 C443 1.428 . S
C449 N448 1.351 . S
C449 C450 1.434 . S
C450 C441 1.429 . S
C450 N447 1.350 . S
C450 C449 1.434 . S
C451 C452 1.369 . S
C451 C453 1.419 . S
C451 H455 0.930 . S
C452 C451 1.369 . S
C452 C461 1.429 . S
C453 C451 1.419 . S
C453 C454 1.363 . S
C453 H456 0.929 . S
C454 C453 1.363 . S
C454 C460 1.428 . S
H455 C451 0.930 . S
H456 C453 0.929 . S
S457 N458 1.613 . S
S457 N459 1.610 . S
N458 S457 1.613 . S
N458 C461 1.350 . S
N459 S457 1.610 . S
N459 C460 1.351 . S
C460 C454 1.428 . S
C460 N459 1.351 . S
C460 C461 1.434 . S
C461 C452 1.429 . S
C461 N458 1.350 . S
C461 C460 1.434 . S
C462 C463 1.369 . S
C462 C464 1.419 1_455 S
C462 H466 0.930 . S
C463 C462 1.369 . S
C463 C472 1.429 . S
C464 C462 1.419 1_655 S
C464 C465 1.363 . S
C464 H467 0.929 . S
C465 C464 1.363 . S
C465 C471 1.428 . S
H466 C462 0.930 . S
H467 C464 0.929 . S
S468 N469 1.613 . S
S468 N470 1.610 1_455 S
N469 S468 1.613 . S
N469 C472 1.350 . S
N470 S468 1.610 1_655 S
N470 C471 1.351 . S
C471 C465 1.428 . S
C471 N470 1.351 . S
C471 C472 1.434 1_655 S
C472 C463 1.429 . S
C472 N469 1.350 . S
C472 C471 1.434 1_455 S
C473 C474 1.369 . S
C473 C475 1.419 1_455 S
C473 H477 0.930 . S
C474 C473 1.369 . S
C474 C483 1.429 . S
C475 C473 1.419 1_655 S
C475 C476 1.363 . S
C475 H478 0.929 . S
C476 C475 1.363 . S
C476 C482 1.428 . S
H477 C473 0.930 . S
H478 C475 0.929 . S
S479 N480 1.613 . S
S479 N481 1.610 1_455 S
N480 S479 1.613 . S
N480 C483 1.350 . S
N481 S479 1.610 1_655 S
N481 C482 1.351 . S
C482 C476 1.428 . S
C482 N481 1.351 . S
C482 C483 1.434 1_655 S
C483 C474 1.429 . S
C483 N480 1.350 . S
C483 C482 1.434 1_455 S
C265 C107 1.902 . S
C267 N5 1.923 . S
C276 N38 1.920 . S
C278 C74 1.898 . S
C287 C41 1.903 . S
C289 N71 1.924 . S
C298 C8 1.898 . S
C300 N104 1.921 . S
C309 N137 1.921 . S
C311 C239 1.900 . S
C320 C206 1.903 . S
C322 N170 1.924 . S
C331 N203 1.920 . S
C333 C173 1.898 . S
C342 N236 1.920 . S
C344 C140 1.898 . S
C353 C28 1.116 1_556 S
C355 C94 1.125 1_554 S
C364 C61 1.123 . S
C366 C127 1.120 . S
C375 C226 1.115 1_554 S
C377 C160 1.126 1_556 S
C386 C259 1.129 . S
C388 C193 1.115 . S
C397 C17 1.554 . S
C399 C215 1.559 . S
C408 C50 1.560 . S
C410 C248 1.555 . S
C419 C149 1.559 . S
C421 C83 1.556 . S
C430 C182 1.558 . S
C432 C116 1.556 . S
C441 N47 1.026 . S
C443 N14 1.006 . S
C452 N113 1.020 . S
C454 N80 1.011 . S
C463 N179 1.026 . S
C465 N146 1.007 . S
C474 N212 1.027 . S
C476 N245 1.006 . S
