# Generated by pormake.
# Topology umo, (4)-cn, num edge types: 1
# Building blocks:
#     Node 0, Type 0, BuildingBlock: ICAMEG_clean_sbu_1, # of connection points: 4
#     Node 1, Type 0, BuildingBlock: ICAMEG_clean_sbu_1, # of connection points: 4
#     Node 2, Type 0, BuildingBlock: ICAMEG_clean_sbu_1, # of connection points: 4
#     Node 3, Type 0, BuildingBlock: ICAMEG_clean_sbu_1, # of connection points: 4
#     Node 4, Type 0, BuildingBlock: ICAMEG_clean_sbu_1, # of connection points: 4
#     Node 5, Type 0, BuildingBlock: ICAMEG_clean_sbu_1, # of connection points: 4
#     Node 6, Type 0, BuildingBlock: ICAMEG_clean_sbu_1, # of connection points: 4
#     Node 7, Type 0, BuildingBlock: ICAMEG_clean_sbu_1, # of connection points: 4
#     Node 8, Type 0, BuildingBlock: ICAMEG_clean_sbu_1, # of connection points: 4
#     Node 9, Type 0, BuildingBlock: ICAMEG_clean_sbu_1, # of connection points: 4
#     Node 10, Type 0, BuildingBlock: ICAMEG_clean_sbu_1, # of connection points: 4
#     Node 11, Type 0, BuildingBlock: ICAMEG_clean_sbu_1, # of connection points: 4
#     Edge 12, Type (0, 0), BuildingBlock: UVAHIK_clean_linker_0, # of connection points: 2
#     Edge 13, Type (0, 0), BuildingBlock: UVAHIK_clean_linker_0, # of connection points: 2
#     Edge 14, Type (0, 0), BuildingBlock: UVAHIK_clean_linker_0, # of connection points: 2
#     Edge 15, Type (0, 0), BuildingBlock: UVAHIK_clean_linker_0, # of connection points: 2
#     Edge 16, Type (0, 0), BuildingBlock: UVAHIK_clean_linker_0, # of connection points: 2
#     Edge 17, Type (0, 0), BuildingBlock: UVAHIK_clean_linker_0, # of connection points: 2
#     Edge 18, Type (0, 0), BuildingBlock: UVAHIK_clean_linker_0, # of connection points: 2
#     Edge 19, Type (0, 0), BuildingBlock: UVAHIK_clean_linker_0, # of connection points: 2
#     Edge 20, Type (0, 0), BuildingBlock: UVAHIK_clean_linker_0, # of connection points: 2
#     Edge 21, Type (0, 0), BuildingBlock: UVAHIK_clean_linker_0, # of connection points: 2
#     Edge 22, Type (0, 0), BuildingBlock: UVAHIK_clean_linker_0, # of connection points: 2
#     Edge 23, Type (0, 0), BuildingBlock: UVAHIK_clean_linker_0, # of connection points: 2
#     Edge 24, Type (0, 0), BuildingBlock: UVAHIK_clean_linker_0, # of connection points: 2
#     Edge 25, Type (0, 0), BuildingBlock: UVAHIK_clean_linker_0, # of connection points: 2
#     Edge 26, Type (0, 0), BuildingBlock: UVAHIK_clean_linker_0, # of connection points: 2
#     Edge 27, Type (0, 0), BuildingBlock: UVAHIK_clean_linker_0, # of connection points: 2
#     Edge 28, Type (0, 0), BuildingBlock: UVAHIK_clean_linker_0, # of connection points: 2
#     Edge 29, Type (0, 0), BuildingBlock: UVAHIK_clean_linker_0, # of connection points: 2
#     Edge 30, Type (0, 0), BuildingBlock: UVAHIK_clean_linker_0, # of connection points: 2
#     Edge 31, Type (0, 0), BuildingBlock: UVAHIK_clean_linker_0, # of connection points: 2
#     Edge 32, Type (0, 0), BuildingBlock: UVAHIK_clean_linker_0, # of connection points: 2
#     Edge 33, Type (0, 0), BuildingBlock: UVAHIK_clean_linker_0, # of connection points: 2
#     Edge 34, Type (0, 0), BuildingBlock: UVAHIK_clean_linker_0, # of connection points: 2
#     Edge 35, Type (0, 0), BuildingBlock: UVAHIK_clean_linker_0, # of connection points: 2
# Relax obj value: 0.091
# Max RMSD: 0.159
# Mean RMSD: 0.159
data_MOF--net-umo--node1-ICAMEG_clean_sbu_1--edge1-UVAHIK_clean_linker_0
_symmetry_space_group_name_H-M    P1
_symmetry_Int_Tables_number       1
_symmetry_cell_setting            triclinic
loop_
_symmetry_equiv_pos_as_xyz
'x, y, z'
_cell_length_a     66.075261
_cell_length_b     65.946805
_cell_length_c     51.42642
_cell_angle_alpha  90.000789
_cell_angle_beta   89.994289
_cell_angle_gamma 120.06059
loop_
_atom_site_label
_atom_site_type_symbol
_atom_site_fract_x
_atom_site_fract_y
_atom_site_fract_z
_atom_type_partial_charge
Co0 Co 0.15098 0.55316 0.40268 0.0
Co1 Co 0.18014 0.52359 0.41857 0.0
O2 O 0.15816 0.52818 0.39763 0.0
C3 C 0.10593 0.50914 0.40534 0.0
O4 O 0.11624 0.50071 0.42 0.0
C5 C 0.19774 0.53053 0.36516 0.0
O6 O 0.19401 0.54827 0.36505 0.0
O7 O 0.20401 0.55734 0.41661 0.0
O8 O 0.18461 0.57658 0.40861 0.0
H9 H 0.23857 0.54167 0.4901 0.0
H10 H 0.13405 0.5236 0.35531 0.0
O11 O 0.11719 0.53014 0.39701 0.0
H12 H 0.1841 0.60434 0.32353 0.0
H13 H 0.10838 0.59676 0.38284 0.0
H14 H 0.16623 0.5926 0.4398 0.0
H15 H 0.17745 0.59628 0.37053 0.0
H16 H 0.11872 0.56597 0.37643 0.0
O17 O 0.19321 0.51798 0.3856 0.0
H18 H 0.2104 0.54734 0.46412 0.0
H19 H 0.19734 0.48967 0.41605 0.0
H20 H 0.15655 0.62378 0.44678 0.0
H21 H 0.14009 0.53089 0.30814 0.0
H22 H 0.12742 0.62599 0.41816 0.0
H23 H 0.16535 0.5715 0.29198 0.0
O24 O 0.14675 0.54689 0.4405 0.0
H25 H 0.11992 0.44557 0.38244 0.0
H26 H 0.15996 0.4891 0.46188 0.0
H27 H 0.12966 0.44738 0.46513 0.0
H28 H 0.10943 0.42534 0.4252 0.0
H29 H 0.15021 0.48735 0.38012 0.0
H30 H 0.22552 0.48347 0.44138 0.0
H31 H 0.24627 0.50953 0.47877 0.0
O32 O 0.16774 0.52985 0.45157 0.0
C33 C 0.20332 0.57615 0.41347 0.0
C34 C 0.22956 0.53013 0.47393 0.0
C35 C 0.22225 0.49749 0.44656 0.0
N36 N 0.20206 0.51868 0.4388 0.0
C37 C 0.21353 0.53321 0.45921 0.0
C38 C 0.20635 0.5011 0.43227 0.0
C39 C 0.23389 0.51212 0.46754 0.0
C40 C 0.14484 0.54135 0.34841 0.0
N41 N 0.15526 0.5595 0.36565 0.0
C42 C 0.14829 0.54536 0.32169 0.0
C43 C 0.1625 0.56814 0.31264 0.0
C44 C 0.17303 0.58657 0.33033 0.0
C45 C 0.16923 0.5819 0.35692 0.0
C46 C 0.12114 0.59601 0.39539 0.0
C47 C 0.15367 0.59355 0.42715 0.0
C48 C 0.12704 0.5786 0.39187 0.0
N49 N 0.14323 0.57764 0.40757 0.0
C50 C 0.1482 0.6112 0.43125 0.0
C51 C 0.13184 0.61241 0.41521 0.0
C52 C 0.15499 0.53876 0.45734 0.0
C53 C 0.12868 0.45497 0.39996 0.0
C54 C 0.15121 0.47962 0.44443 0.0
C55 C 0.1341 0.456 0.44638 0.0
C56 C 0.12277 0.44363 0.42397 0.0
N57 N 0.15692 0.49059 0.42082 0.0
C58 C 0.14591 0.47859 0.39875 0.0
Co59 Co 0.65455 0.18199 0.584 0.0
Co60 Co 0.59563 0.15028 0.57164 0.0
O61 O 0.62779 0.15809 0.56464 0.0
C62 C 0.66615 0.19452 0.52901 0.0
O63 O 0.6446 0.19026 0.52663 0.0
C64 C 0.59474 0.10512 0.57013 0.0
O65 O 0.61323 0.11435 0.58525 0.0
O66 O 0.5992 0.14477 0.60875 0.0
O67 O 0.63599 0.17316 0.61743 0.0
H68 H 0.53173 0.15299 0.62171 0.0
H69 H 0.66089 0.14851 0.55149 0.0
O70 O 0.67349 0.19186 0.55099 0.0
H71 H 0.67995 0.13665 0.64087 0.0
H72 H 0.73999 0.22947 0.60668 0.0
H73 H 0.66121 0.21715 0.62407 0.0
H74 H 0.66858 0.1663 0.63165 0.0
H75 H 0.70562 0.19872 0.58341 0.0
O76 O 0.58502 0.11687 0.56373 0.0
H77 H 0.57243 0.16357 0.6121 0.0
H78 H 0.54979 0.11845 0.54642 0.0
H79 H 0.69505 0.24796 0.64796 0.0
H80 H 0.67239 0.11881 0.55978 0.0
H81 H 0.73479 0.25428 0.6393 0.0
H82 H 0.68196 0.11269 0.60476 0.0
O83 O 0.6447 0.20519 0.57672 0.0
H84 H 0.60264 0.14188 0.47539 0.0
H85 H 0.57766 0.17755 0.54325 0.0
H86 H 0.57397 0.18524 0.49708 0.0
H87 H 0.58647 0.16731 0.46277 0.0
H88 H 0.60634 0.13492 0.52179 0.0
H89 H 0.50882 0.10726 0.55541 0.0
H90 H 0.49958 0.12464 0.59324 0.0
O91 O 0.60553 0.18374 0.57952 0.0
C92 C 0.61546 0.15752 0.62461 0.0
C93 C 0.53553 0.14536 0.60511 0.0
C94 C 0.52267 0.11967 0.56792 0.0
N95 N 0.56349 0.1418 0.57859 0.0
C96 C 0.55855 0.15134 0.59953 0.0
C97 C 0.5459 0.12604 0.56295 0.0
C98 C 0.51751 0.12943 0.58915 0.0
C99 C 0.66527 0.14611 0.57106 0.0
N100 N 0.66415 0.15917 0.59104 0.0
C101 C 0.67167 0.1292 0.57566 0.0
C102 C 0.67698 0.12574 0.60091 0.0
C103 C 0.67584 0.13916 0.62118 0.0
C104 C 0.66932 0.15587 0.61586 0.0
C105 C 0.72276 0.22683 0.61069 0.0
C106 C 0.67842 0.21965 0.62039 0.0
C107 C 0.70324 0.20947 0.59756 0.0
N108 N 0.68141 0.20596 0.60264 0.0
C109 C 0.69753 0.23719 0.63389 0.0
C110 C 0.71983 0.24074 0.62899 0.0
C111 C 0.6246 0.20329 0.57814 0.0
C112 C 0.59707 0.14974 0.49016 0.0
C113 C 0.58326 0.16978 0.52845 0.0
C114 C 0.58105 0.17413 0.50233 0.0
C115 C 0.58804 0.16404 0.48309 0.0
N116 N 0.59217 0.15575 0.53524 0.0
C117 C 0.599 0.14575 0.51647 0.0
Co118 Co 0.46706 0.65356 0.75072 0.0
Co119 Co 0.43798 0.59569 0.73117 0.0
O120 O 0.46326 0.62803 0.72836 0.0
C121 C 0.46437 0.66767 0.69743 0.0
O122 O 0.44668 0.64631 0.69484 0.0
C123 C 0.48149 0.59388 0.73384 0.0
O124 O 0.48851 0.60982 0.75221 0.0
O125 O 0.44321 0.59553 0.7691 0.0
O126 O 0.4585 0.63291 0.78238 0.0
H127 H 0.36618 0.52839 0.77072 0.0
H128 H 0.50521 0.66099 0.71468 0.0
O129 O 0.47508 0.67435 0.71914 0.0
H130 H 0.5397 0.67494 0.80246 0.0
H131 H 0.50684 0.73768 0.77983 0.0
H132 H 0.44089 0.6579 0.79519 0.0
H133 H 0.49865 0.66483 0.79643 0.0
H134 H 0.50169 0.70462 0.75256 0.0
O135 O 0.46107 0.58532 0.72424 0.0
H136 H 0.39761 0.56958 0.7666 0.0
H137 H 0.42571 0.55207 0.70178 0.0
H138 H 0.44548 0.6904 0.82306 0.0
H139 H 0.54637 0.67118 0.7198 0.0
H140 H 0.47865 0.73063 0.81544 0.0
H141 H 0.56385 0.67817 0.76396 0.0
O142 O 0.43379 0.64445 0.74638 0.0
H143 H 0.46224 0.61098 0.63727 0.0
H144 H 0.3958 0.58133 0.69823 0.0
H145 H 0.38877 0.58192 0.65121 0.0
H146 H 0.42213 0.59677 0.62038 0.0
H147 H 0.46855 0.61044 0.68445 0.0
H148 H 0.39467 0.51065 0.7053 0.0
H149 H 0.36457 0.4986 0.73991 0.0
O150 O 0.4146 0.60579 0.73801 0.0
C151 C 0.44989 0.61102 0.78693 0.0
C152 C 0.37914 0.53344 0.75549 0.0
C153 C 0.39514 0.52347 0.71879 0.0
N154 N 0.41333 0.56324 0.73382 0.0
C155 C 0.39693 0.55674 0.75301 0.0
C156 C 0.4127 0.54694 0.71692 0.0
C157 C 0.37826 0.51673 0.73822 0.0
C158 C 0.51278 0.66424 0.73393 0.0
N159 N 0.49961 0.66247 0.75521 0.0
C160 C 0.53606 0.6699 0.73672 0.0
C161 C 0.54584 0.67379 0.76151 0.0
C162 C 0.53229 0.67197 0.78312 0.0
C163 C 0.50906 0.66621 0.77959 0.0
C164 C 0.49235 0.72022 0.78338 0.0
C165 C 0.45547 0.67533 0.79189 0.0
C166 C 0.48933 0.70145 0.76799 0.0
N167 N 0.47115 0.67934 0.77247 0.0
C168 C 0.45793 0.69367 0.80767 0.0
C169 C 0.47653 0.71625 0.80337 0.0
C170 C 0.41504 0.62499 0.74275 0.0
C171 C 0.44755 0.60439 0.65051 0.0
C172 C 0.41043 0.58793 0.68495 0.0
C173 C 0.40633 0.58815 0.65834 0.0
C174 C 0.42505 0.59646 0.64104 0.0
N175 N 0.43255 0.59574 0.69409 0.0
C176 C 0.451 0.60393 0.67724 0.0
Co177 Co 0.84118 0.44003 0.90224 0.0
Co178 Co 0.8143 0.47164 0.91865 0.0
O179 O 0.83462 0.46537 0.8968 0.0
C180 C 0.88684 0.48335 0.89992 0.0
O181 O 0.87847 0.4926 0.91626 0.0
C182 C 0.79443 0.46358 0.86628 0.0
O183 O 0.79698 0.44509 0.86662 0.0
O184 O 0.78951 0.43817 0.9183 0.0
O185 O 0.80787 0.41774 0.9113 0.0
H186 H 0.75953 0.45788 0.99301 0.0
H187 H 0.8552 0.46676 0.8527 0.0
O188 O 0.87453 0.46198 0.89314 0.0
H189 H 0.80147 0.38469 0.82759 0.0
H190 H 0.88023 0.39325 0.88108 0.0
H191 H 0.82761 0.40259 0.94167 0.0
H192 H 0.81163 0.39534 0.87365 0.0
H193 H 0.87059 0.4245 0.87431 0.0
O194 O 0.80038 0.47696 0.88617 0.0
H195 H 0.78568 0.45007 0.96588 0.0
H196 H 0.79883 0.50693 0.91637 0.0
H197 H 0.83666 0.37101 0.94907 0.0
H198 H 0.84567 0.45683 0.80641 0.0
H199 H 0.86314 0.36619 0.91863 0.0
H200 H 0.81854 0.41556 0.79361 0.0
O201 O 0.84818 0.44838 0.93944 0.0
H202 H 0.87499 0.54751 0.87865 0.0
H203 H 0.83733 0.50724 0.96046 0.0
H204 H 0.8689 0.54857 0.9617 0.0
H205 H 0.88794 0.56898 0.92057 0.0
H206 H 0.84347 0.50616 0.87834 0.0
H207 H 0.77267 0.51525 0.94284 0.0
H208 H 0.7529 0.49068 0.98153 0.0
O209 O 0.82755 0.46566 0.95116 0.0
C210 C 0.7896 0.41895 0.91634 0.0
C211 C 0.76813 0.46877 0.97627 0.0
C212 C 0.77548 0.50095 0.94809 0.0
N213 N 0.79396 0.4782 0.93977 0.0
C214 C 0.78302 0.46449 0.9609 0.0
C215 C 0.79024 0.49614 0.93316 0.0
C216 C 0.76439 0.48716 0.9698 0.0
C217 C 0.84361 0.44871 0.84727 0.0
N218 N 0.8341 0.43163 0.86586 0.0
C219 C 0.83819 0.44321 0.82103 0.0
C220 C 0.82293 0.42006 0.81387 0.0
C221 C 0.81333 0.40273 0.83293 0.0
C222 C 0.81912 0.40888 0.85898 0.0
C223 C 0.86863 0.39514 0.89444 0.0
C224 C 0.83903 0.4005 0.92825 0.0
C225 C 0.86314 0.41282 0.89073 0.0
N226 N 0.84839 0.41522 0.90746 0.0
C227 C 0.84414 0.38264 0.93258 0.0
C228 C 0.85903 0.37996 0.91551 0.0
C229 C 0.84057 0.45694 0.95652 0.0
C230 C 0.86676 0.53884 0.89669 0.0
C231 C 0.84556 0.51601 0.9425 0.0
C232 C 0.86339 0.53942 0.94331 0.0
C233 C 0.87405 0.55086 0.92022 0.0
N234 N 0.83849 0.50436 0.91934 0.0
C235 C 0.84884 0.51546 0.89662 0.0
Co236 Co 0.33981 0.81528 0.08372 0.0
Co237 Co 0.39819 0.84348 0.06649 0.0
O238 O 0.36616 0.83695 0.06215 0.0
C239 C 0.32695 0.79876 0.03008 0.0
O240 O 0.34824 0.80223 0.02814 0.0
C241 C 0.40083 0.88945 0.06717 0.0
O242 O 0.38295 0.88049 0.08317 0.0
O243 O 0.3972 0.84895 0.10421 0.0
O244 O 0.35949 0.82692 0.11611 0.0
H245 H 0.46298 0.83722 0.10984 0.0
H246 H 0.33379 0.84644 0.04688 0.0
O247 O 0.31992 0.80288 0.0515 0.0
H248 H 0.31804 0.8672 0.1337 0.0
H249 H 0.25502 0.7719 0.10985 0.0
H250 H 0.33362 0.7842 0.12836 0.0
H251 H 0.32786 0.83591 0.12863 0.0
H252 H 0.28899 0.79963 0.08362 0.0
O253 O 0.40968 0.87725 0.05943 0.0
H254 H 0.42234 0.82838 0.1037 0.0
H255 H 0.44294 0.87415 0.03864 0.0
H256 H 0.30019 0.75645 0.15522 0.0
H257 H 0.32388 0.87773 0.05104 0.0
H258 H 0.26054 0.75016 0.14601 0.0
H259 H 0.31599 0.88833 0.09471 0.0
O260 O 0.34843 0.79064 0.08008 0.0
H261 H 0.38606 0.85285 0.97172 0.0
H262 H 0.41288 0.81509 0.03491 0.0
H263 H 0.41345 0.80734 0.98809 0.0
H264 H 0.40001 0.82632 0.95613 0.0
H265 H 0.38547 0.85987 0.01873 0.0
H266 H 0.48385 0.88362 0.04419 0.0
H267 H 0.49407 0.86502 0.07994 0.0
O268 O 0.38726 0.80978 0.07346 0.0
C269 C 0.38119 0.84013 0.12145 0.0
C270 C 0.45874 0.84537 0.09413 0.0
C271 C 0.47045 0.87143 0.0573 0.0
N272 N 0.43025 0.85057 0.0707 0.0
C273 C 0.43574 0.84038 0.09051 0.0
C274 C 0.44727 0.86604 0.05429 0.0
C275 C 0.47617 0.86099 0.07737 0.0
C276 C 0.33013 0.85079 0.06591 0.0
N277 N 0.33127 0.83929 0.08747 0.0
C278 C 0.32463 0.86859 0.06816 0.0
C279 C 0.32025 0.87456 0.09268 0.0
C280 C 0.32142 0.86272 0.11457 0.0
C281 C 0.32703 0.84505 0.11158 0.0
C282 C 0.27222 0.77454 0.1141 0.0
C283 C 0.31645 0.78168 0.12437 0.0
C284 C 0.2915 0.79019 0.09929 0.0
N285 N 0.31328 0.79369 0.10465 0.0
C286 C 0.29757 0.76589 0.13958 0.0
C287 C 0.27533 0.76235 0.13439 0.0
C288 C 0.36781 0.79108 0.0774 0.0
C289 C 0.39204 0.84454 0.98545 0.0
C290 C 0.40692 0.82335 0.02114 0.0
C291 C 0.40734 0.81895 0.99464 0.0
C292 C 0.39983 0.82962 0.97672 0.0
N293 N 0.39925 0.83801 0.02956 0.0
C294 C 0.39186 0.84855 0.01209 0.0
Co295 Co 0.52108 0.34017 0.25377 0.0
Co296 Co 0.55309 0.39827 0.2355 0.0
O297 O 0.52717 0.36643 0.2313 0.0
C298 C 0.52659 0.32631 0.20128 0.0
O299 O 0.54544 0.34708 0.20036 0.0
C300 C 0.51058 0.40207 0.2342 0.0
O301 O 0.50113 0.38452 0.25067 0.0
O302 O 0.54588 0.39807 0.27292 0.0
O303 O 0.52867 0.36039 0.28574 0.0
H304 H 0.624 0.46296 0.27949 0.0
H305 H 0.48547 0.3346 0.21492 0.0
O306 O 0.51407 0.31989 0.22185 0.0
H307 H 0.44642 0.32078 0.3001 0.0
H308 H 0.4768 0.2555 0.28088 0.0
H309 H 0.54382 0.3337 0.30028 0.0
H310 H 0.4873 0.32955 0.29712 0.0
H311 H 0.48493 0.28956 0.2536 0.0
O312 O 0.53165 0.41035 0.22679 0.0
H313 H 0.59162 0.42243 0.2736 0.0
H314 H 0.56891 0.44278 0.20633 0.0
H315 H 0.53624 0.30019 0.3282 0.0
H316 H 0.44453 0.32574 0.21698 0.0
H317 H 0.50251 0.26075 0.31855 0.0
H318 H 0.42477 0.31882 0.25981 0.0
O319 O 0.5542 0.34799 0.25196 0.0
H320 H 0.53354 0.3839 0.14039 0.0
H321 H 0.59667 0.41165 0.20552 0.0
H322 H 0.60586 0.41073 0.1592 0.0
H323 H 0.57416 0.39678 0.12628 0.0
H324 H 0.52508 0.38492 0.18692 0.0
H325 H 0.60096 0.48358 0.21158 0.0
H326 H 0.62882 0.49386 0.24833 0.0
O327 O 0.57496 0.38671 0.24419 0.0
C328 C 0.53778 0.38232 0.29051 0.0
C329 C 0.61202 0.45868 0.26334 0.0
C330 C 0.59907 0.47026 0.22525 0.0
N331 N 0.57854 0.43022 0.23951 0.0
C332 C 0.5937 0.43575 0.25987 0.0
C333 C 0.58094 0.44715 0.2224 0.0
C334 C 0.6147 0.47602 0.24587 0.0
C335 C 0.4769 0.33136 0.2336 0.0
N336 N 0.4887 0.33245 0.25586 0.0
C337 C 0.45376 0.32645 0.23466 0.0
C338 C 0.44269 0.32262 0.2587 0.0
C339 C 0.45484 0.32374 0.28131 0.0
C340 C 0.47799 0.32875 0.27952 0.0
C341 C 0.49151 0.27262 0.28533 0.0
C342 C 0.52901 0.31663 0.29609 0.0
C343 C 0.49621 0.29194 0.26993 0.0
N344 N 0.51468 0.31361 0.27552 0.0
C345 C 0.52485 0.2977 0.31191 0.0
C346 C 0.50594 0.27557 0.30646 0.0
C347 C 0.57351 0.3671 0.2493 0.0
C348 C 0.54751 0.3901 0.15454 0.0
C349 C 0.58277 0.40555 0.19131 0.0
C350 C 0.58809 0.4051 0.16511 0.0
C351 C 0.5703 0.39729 0.14664 0.0
N352 N 0.56037 0.39847 0.19891 0.0
C353 C 0.54285 0.39082 0.18091 0.0
Co354 Co 0.47336 0.81533 0.42172 0.0
Co355 Co 0.44534 0.84561 0.43965 0.0
O356 O 0.47037 0.83824 0.44294 0.0
C357 C 0.47047 0.79984 0.47581 0.0
O358 O 0.45369 0.80481 0.4784 0.0
C359 C 0.48931 0.8905 0.43394 0.0
O360 O 0.49704 0.87966 0.41909 0.0
O361 O 0.44931 0.84859 0.40141 0.0
O362 O 0.46536 0.82694 0.38932 0.0
H363 H 0.37258 0.83919 0.40082 0.0
H364 H 0.51196 0.84615 0.45728 0.0
O365 O 0.48078 0.80291 0.45396 0.0
H366 H 0.54653 0.86371 0.36942 0.0
H367 H 0.51093 0.76826 0.39561 0.0
H368 H 0.44655 0.7838 0.37813 0.0
H369 H 0.50506 0.83386 0.37584 0.0
H370 H 0.50686 0.79756 0.42142 0.0
O371 O 0.46877 0.87957 0.44345 0.0
H372 H 0.40386 0.8294 0.40556 0.0
H373 H 0.43451 0.87908 0.46659 0.0
H374 H 0.45007 0.75449 0.3517 0.0
H375 H 0.55355 0.87602 0.45178 0.0
H376 H 0.48245 0.74656 0.36039 0.0
H377 H 0.57106 0.885 0.40758 0.0
O378 O 0.43985 0.79179 0.42644 0.0
H379 H 0.47323 0.86 0.53233 0.0
H380 H 0.40433 0.82042 0.47501 0.0
H381 H 0.39913 0.81565 0.52254 0.0
H382 H 0.43375 0.83553 0.55154 0.0
H383 H 0.47767 0.86412 0.48469 0.0
H384 H 0.40366 0.88955 0.46238 0.0
H385 H 0.37236 0.86947 0.42937 0.0
O386 O 0.42146 0.81181 0.43566 0.0
C387 C 0.45635 0.83971 0.38408 0.0
C388 C 0.38607 0.848 0.41535 0.0
C389 C 0.40353 0.87628 0.44988 0.0
N390 N 0.42084 0.85349 0.4365 0.0
C391 C 0.40378 0.84247 0.41818 0.0
C392 C 0.42097 0.87031 0.45214 0.0
C393 C 0.38597 0.865 0.43135 0.0
C394 C 0.51954 0.8498 0.43802 0.0
N395 N 0.50616 0.8382 0.41692 0.0
C396 C 0.54306 0.86679 0.43501 0.0
C397 C 0.55286 0.87186 0.4102 0.0
C398 C 0.5391 0.85993 0.38878 0.0
C399 C 0.51563 0.84308 0.39252 0.0
C400 C 0.49679 0.7716 0.39159 0.0
C401 C 0.46079 0.78057 0.38188 0.0
C402 C 0.49438 0.78814 0.40616 0.0
N403 N 0.47663 0.79254 0.40109 0.0
C404 C 0.46265 0.7639 0.36692 0.0
C405 C 0.48081 0.75944 0.37183 0.0
C406 C 0.42142 0.7928 0.43101 0.0
C407 C 0.45801 0.85131 0.5199 0.0
C408 C 0.41949 0.8291 0.4875 0.0
C409 C 0.41643 0.82637 0.5144 0.0
C410 C 0.43585 0.83755 0.53066 0.0
N411 N 0.44128 0.84264 0.47709 0.0
C412 C 0.4604 0.85368 0.49291 0.0
Co413 Co 0.59438 0.44307 0.60657 0.0
Co414 Co 0.65304 0.4725 0.59126 0.0
O415 O 0.62656 0.46754 0.61243 0.0
C416 C 0.59368 0.48722 0.60828 0.0
O417 O 0.61038 0.49535 0.59076 0.0
C418 C 0.66402 0.46523 0.64432 0.0
O419 O 0.64278 0.44708 0.64407 0.0
O420 O 0.64337 0.43884 0.59317 0.0
O421 O 0.60418 0.41981 0.59735 0.0
H422 H 0.69343 0.45519 0.5191 0.0
H423 H 0.6073 0.46934 0.65645 0.0
O424 O 0.5843 0.46603 0.61583 0.0
H425 H 0.57594 0.38656 0.68068 0.0
H426 H 0.50828 0.39907 0.62682 0.0
H427 H 0.56966 0.40633 0.56661 0.0
H428 H 0.57747 0.39786 0.6347 0.0
H429 H 0.54958 0.42903 0.6341 0.0
O430 O 0.67189 0.47818 0.62413 0.0
H431 H 0.6596 0.44908 0.54541 0.0
H432 H 0.70407 0.50673 0.59357 0.0
H433 H 0.52862 0.37604 0.55868 0.0
H434 H 0.60585 0.45877 0.70267 0.0
H435 H 0.4976 0.37226 0.58893 0.0
H436 H 0.59018 0.41713 0.71503 0.0
O437 O 0.59645 0.45181 0.56944 0.0
H438 H 0.66983 0.55009 0.62772 0.0
H439 H 0.66695 0.50707 0.54807 0.0
H440 H 0.67778 0.54864 0.545 0.0
H441 H 0.67927 0.57042 0.58503 0.0
H442 H 0.65896 0.50846 0.62988 0.0
H443 H 0.73844 0.51336 0.56793 0.0
H444 H 0.7332 0.48752 0.53032 0.0
O445 O 0.63418 0.46614 0.55833 0.0
C446 C 0.62349 0.42017 0.59402 0.0
C447 C 0.69593 0.46662 0.53537 0.0
C448 C 0.7212 0.49925 0.5628 0.0
N449 N 0.67986 0.4777 0.5708 0.0
C450 C 0.67683 0.4633 0.55028 0.0
C451 C 0.70169 0.4954 0.57727 0.0
C452 C 0.71824 0.48475 0.5417 0.0
C453 C 0.60017 0.45114 0.66168 0.0
N454 N 0.59235 0.43423 0.64289 0.0
C455 C 0.59951 0.44528 0.68788 0.0
C456 C 0.59076 0.42192 0.69481 0.0
C457 C 0.58278 0.40476 0.67554 0.0
C458 C 0.58374 0.41127 0.64953 0.0
C459 C 0.52164 0.40049 0.61355 0.0
C460 C 0.55628 0.40467 0.57996 0.0
C461 C 0.54504 0.41744 0.61756 0.0
N462 N 0.56202 0.41924 0.60095 0.0
C463 C 0.53306 0.38754 0.57533 0.0
C464 C 0.51566 0.38545 0.59229 0.0
C465 C 0.61274 0.45883 0.55256 0.0
C466 C 0.66933 0.54081 0.61016 0.0
C467 C 0.66756 0.51644 0.56557 0.0
C468 C 0.67374 0.53998 0.56371 0.0
C469 C 0.67458 0.5522 0.58619 0.0
N470 N 0.66247 0.50542 0.58915 0.0
C471 C 0.66329 0.51727 0.61127 0.0
Co472 Co 0.1779 0.65773 0.75575 0.0
Co473 Co 0.14752 0.59954 0.77459 0.0
O474 O 0.15491 0.63206 0.77722 0.0
C475 C 0.19338 0.67094 0.80976 0.0
O476 O 0.18808 0.64909 0.81282 0.0
C477 C 0.10272 0.59849 0.76783 0.0
O478 O 0.1137 0.61721 0.75316 0.0
O479 O 0.1449 0.60008 0.73627 0.0
O480 O 0.16625 0.63772 0.72363 0.0
H481 H 0.15409 0.53256 0.73754 0.0
H482 H 0.1473 0.66617 0.79087 0.0
O483 O 0.19042 0.67798 0.78772 0.0
H484 H 0.12996 0.68238 0.70253 0.0
H485 H 0.22528 0.7422 0.72849 0.0
H486 H 0.20932 0.66178 0.71238 0.0
H487 H 0.15956 0.67055 0.70945 0.0
H488 H 0.1959 0.70914 0.75465 0.0
O489 O 0.11359 0.589 0.77778 0.0
H490 H 0.16391 0.57378 0.7415 0.0
H491 H 0.11386 0.55547 0.8019 0.0
H492 H 0.23869 0.69428 0.68562 0.0
H493 H 0.11769 0.67812 0.78486 0.0
H494 H 0.24683 0.73484 0.69363 0.0
H495 H 0.10882 0.68625 0.74042 0.0
O496 O 0.20127 0.64763 0.76087 0.0
H497 H 0.13234 0.61416 0.86653 0.0
H498 H 0.1723 0.58406 0.81097 0.0
H499 H 0.17663 0.58419 0.85862 0.0
H500 H 0.15655 0.59931 0.88673 0.0
H501 H 0.12865 0.61391 0.81879 0.0
H502 H 0.10338 0.51402 0.79847 0.0
H503 H 0.12362 0.50235 0.76617 0.0
O504 O 0.18124 0.60938 0.77113 0.0
C505 C 0.1537 0.61581 0.71872 0.0
C506 C 0.14522 0.53744 0.75177 0.0
C507 C 0.11673 0.52703 0.78594 0.0
N508 N 0.13965 0.56705 0.7721 0.0
C509 C 0.15076 0.56076 0.75416 0.0
C510 C 0.12272 0.55051 0.78777 0.0
C511 C 0.1281 0.5205 0.76782 0.0
C512 C 0.1437 0.66992 0.7715 0.0
N513 N 0.15521 0.66779 0.75055 0.0
C514 C 0.12684 0.67657 0.76821 0.0
C515 C 0.12185 0.68109 0.74326 0.0
C516 C 0.13369 0.67891 0.72199 0.0
C517 C 0.15039 0.67216 0.72602 0.0
C518 C 0.22184 0.7246 0.72477 0.0
C519 C 0.21264 0.67936 0.71583 0.0
C520 C 0.20526 0.70582 0.73954 0.0
N521 N 0.20075 0.68354 0.73485 0.0
C522 C 0.22934 0.6977 0.70069 0.0
C523 C 0.23392 0.72045 0.70521 0.0
C524 C 0.20022 0.62824 0.76606 0.0
C525 C 0.1411 0.60745 0.85449 0.0
C526 C 0.16353 0.5907 0.82308 0.0
C527 C 0.16601 0.59069 0.85004 0.0
C528 C 0.15473 0.59916 0.86581 0.0
N529 N 0.15013 0.59886 0.81212 0.0
C530 C 0.13898 0.60716 0.82745 0.0
Co531 Co 0.517 0.18241 0.92284 0.0
Co532 Co 0.54527 0.15146 0.93571 0.0
O533 O 0.52066 0.15894 0.9421 0.0
C534 C 0.52142 0.19674 0.97752 0.0
O535 O 0.53923 0.19314 0.97805 0.0
C536 C 0.50112 0.10633 0.93328 0.0
O537 O 0.49225 0.11676 0.91952 0.0
O538 O 0.5382 0.14781 0.898 0.0
O539 O 0.52484 0.17247 0.88901 0.0
H540 H 0.61464 0.15716 0.8888 0.0
H541 H 0.47903 0.15 0.95817 0.0
O542 O 0.50982 0.19319 0.95651 0.0
H543 H 0.44323 0.13534 0.87104 0.0
H544 H 0.47783 0.22925 0.90272 0.0
H545 H 0.54312 0.21629 0.88071 0.0
H546 H 0.48469 0.16526 0.87739 0.0
H547 H 0.48281 0.19922 0.9258 0.0
O548 O 0.52225 0.11759 0.941 0.0
H549 H 0.58388 0.16705 0.89754 0.0
H550 H 0.55816 0.11844 0.96004 0.0
H551 H 0.5387 0.24636 0.85698 0.0
H552 H 0.43746 0.12006 0.95276 0.0
H553 H 0.50585 0.25299 0.86796 0.0
H554 H 0.41933 0.11253 0.90892 0.0
O555 O 0.55048 0.20598 0.9274 0.0
H556 H 0.52475 0.139 0.03069 0.0
H557 H 0.58895 0.17709 0.9671 0.0
H558 H 0.59785 0.18281 0.01399 0.0
H559 H 0.56562 0.16368 0.04615 0.0
H560 H 0.51661 0.13392 0.98361 0.0
H561 H 0.58853 0.10788 0.95186 0.0
H562 H 0.61709 0.12738 0.91608 0.0
O563 O 0.56889 0.18521 0.9303 0.0
C564 C 0.53198 0.15848 0.88207 0.0
C565 C 0.60235 0.14861 0.90451 0.0
C566 C 0.58767 0.12093 0.93988 0.0
N567 N 0.56939 0.14349 0.92943 0.0
C568 C 0.58494 0.15419 0.9096 0.0
C569 C 0.57049 0.12695 0.9444 0.0
C570 C 0.6037 0.13188 0.9198 0.0
C571 C 0.47118 0.14699 0.93909 0.0
N572 N 0.48422 0.15942 0.91814 0.0
C573 C 0.44767 0.12995 0.93612 0.0
C574 C 0.43752 0.1257 0.91151 0.0
C575 C 0.45093 0.13847 0.89024 0.0
C576 C 0.47441 0.15534 0.89394 0.0
C577 C 0.49215 0.22646 0.89769 0.0
C578 C 0.52865 0.21892 0.8854 0.0
C579 C 0.49507 0.2095 0.9107 0.0
N580 N 0.51305 0.20581 0.90434 0.0
C581 C 0.5263 0.23604 0.87199 0.0
C582 C 0.50788 0.23977 0.87819 0.0
C583 C 0.56898 0.20455 0.92857 0.0
C584 C 0.53896 0.14736 0.01687 0.0
C585 C 0.57482 0.16874 0.98097 0.0
C586 C 0.57998 0.172 0.0075 0.0
C587 C 0.56188 0.16124 0.02553 0.0
N588 N 0.55229 0.1551 0.97262 0.0
C589 C 0.53446 0.14446 0.99019 0.0
Co590 Co 0.3956 0.5499 0.10352 0.0
Co591 Co 0.3366 0.51992 0.08888 0.0
O592 O 0.36357 0.52491 0.10936 0.0
C593 C 0.39697 0.506 0.10152 0.0
O594 O 0.37783 0.49705 0.08747 0.0
C595 C 0.32679 0.52769 0.14234 0.0
O596 O 0.34828 0.5454 0.14194 0.0
O597 O 0.34638 0.55368 0.09026 0.0
O598 O 0.38513 0.57309 0.09748 0.0
H599 H 0.2949 0.53664 0.01771 0.0
H600 H 0.38392 0.52113 0.15144 0.0
O601 O 0.40669 0.52715 0.10931 0.0
H602 H 0.41475 0.60232 0.18173 0.0
H603 H 0.48212 0.59426 0.1215 0.0
H604 H 0.41894 0.58872 0.06552 0.0
H605 H 0.41261 0.59352 0.13487 0.0
H606 H 0.44118 0.56341 0.12893 0.0
O607 O 0.31845 0.51481 0.12217 0.0
H608 H 0.32921 0.54285 0.04312 0.0
H609 H 0.28556 0.48592 0.09258 0.0
H610 H 0.4596 0.61994 0.05752 0.0
H611 H 0.38593 0.52918 0.19849 0.0
H612 H 0.49152 0.62285 0.08563 0.0
H613 H 0.40134 0.57001 0.2139 0.0
O614 O 0.39292 0.54299 0.06582 0.0
H615 H 0.31963 0.44257 0.1263 0.0
H616 H 0.32166 0.48472 0.04624 0.0
H617 H 0.3103 0.44298 0.04372 0.0
H618 H 0.30922 0.42163 0.08396 0.0
H619 H 0.33104 0.48436 0.12789 0.0
H620 H 0.25072 0.47919 0.06783 0.0
H621 H 0.25531 0.50461 0.03003 0.0
O622 O 0.3547 0.52567 0.05553 0.0
C623 C 0.3659 0.57256 0.09292 0.0
C624 C 0.29269 0.52538 0.03407 0.0
C625 C 0.26789 0.49316 0.06222 0.0
N626 N 0.3094 0.51459 0.06911 0.0
C627 C 0.31206 0.52876 0.04847 0.0
C628 C 0.28766 0.49707 0.07618 0.0
C629 C 0.27047 0.50743 0.04101 0.0
C630 C 0.39091 0.53898 0.15801 0.0
N631 N 0.39827 0.55685 0.14043 0.0
C632 C 0.3919 0.54342 0.18467 0.0
C633 C 0.40052 0.56633 0.1933 0.0
C634 C 0.40803 0.58446 0.17526 0.0
C635 C 0.40674 0.57937 0.14875 0.0
C636 C 0.46835 0.59321 0.10916 0.0
C637 C 0.43272 0.58998 0.07795 0.0
C638 C 0.44516 0.57576 0.11325 0.0
N639 N 0.42768 0.57442 0.09783 0.0
C640 C 0.45572 0.60765 0.07327 0.0
C641 C 0.47362 0.60925 0.08904 0.0
C642 C 0.37627 0.53453 0.04933 0.0
C643 C 0.31995 0.45166 0.10865 0.0
C644 C 0.32126 0.47555 0.06382 0.0
C645 C 0.31477 0.45191 0.06228 0.0
C646 C 0.31415 0.43993 0.08488 0.0
N647 N 0.32689 0.48691 0.08721 0.0
C648 C 0.3263 0.47529 0.10945 0.0
Co649 Co 0.81478 0.33854 0.25517 0.0
Co650 Co 0.84207 0.39676 0.2736 0.0
O651 O 0.83591 0.36473 0.27736 0.0
C652 C 0.79731 0.3249 0.30839 0.0
O653 O 0.80084 0.34624 0.31055 0.0
C654 C 0.88832 0.40017 0.27321 0.0
O655 O 0.87972 0.38211 0.25741 0.0
O656 O 0.84794 0.39642 0.2359 0.0
O657 O 0.82695 0.35876 0.22316 0.0
H658 H 0.83525 0.46174 0.23126 0.0
H659 H 0.84526 0.3322 0.29262 0.0
O660 O 0.80181 0.31812 0.28701 0.0
H661 H 0.86797 0.31795 0.20616 0.0
H662 H 0.77251 0.25397 0.22756 0.0
H663 H 0.78461 0.33278 0.20982 0.0
H664 H 0.83646 0.32745 0.21063 0.0
H665 H 0.79949 0.28771 0.25461 0.0
O666 O 0.87578 0.40865 0.28085 0.0
H667 H 0.8269 0.4211 0.23672 0.0
H668 H 0.87196 0.44131 0.30229 0.0
H669 H 0.75762 0.29959 0.18215 0.0
H670 H 0.87676 0.32259 0.28907 0.0
H671 H 0.75143 0.25983 0.19097 0.0
H672 H 0.88833 0.31545 0.24558 0.0
O673 O 0.78992 0.34685 0.25837 0.0
H674 H 0.85085 0.3834 0.36815 0.0
H675 H 0.81307 0.4105 0.30538 0.0
H676 H 0.80487 0.41025 0.35219 0.0
H677 H 0.82386 0.39666 0.38394 0.0
H678 H 0.85833 0.38364 0.32115 0.0
H679 H 0.88093 0.4822 0.29743 0.0
H680 H 0.86244 0.49262 0.26176 0.0
O681 O 0.80846 0.38552 0.26639 0.0
C682 C 0.83985 0.38066 0.21833 0.0
C683 C 0.84334 0.4574 0.24694 0.0
C684 C 0.86901 0.46889 0.28406 0.0
N685 N 0.84876 0.42881 0.26994 0.0
C686 C 0.83863 0.43441 0.25017 0.0
C687 C 0.86389 0.44572 0.28669 0.0
C688 C 0.85862 0.47472 0.26404 0.0
C689 C 0.85004 0.32887 0.27366 0.0
N690 N 0.83897 0.33026 0.25188 0.0
C691 C 0.86795 0.32354 0.27176 0.0
C692 C 0.87447 0.31958 0.24734 0.0
C693 C 0.86306 0.321 0.22521 0.0
C694 C 0.84527 0.32643 0.22786 0.0
C695 C 0.77511 0.27121 0.22348 0.0
C696 C 0.78214 0.31557 0.21364 0.0
C697 C 0.79033 0.29037 0.23875 0.0
N698 N 0.79378 0.31221 0.23361 0.0
C699 C 0.76678 0.29682 0.19797 0.0
C700 C 0.76329 0.27452 0.20295 0.0
C701 C 0.79003 0.36605 0.26168 0.0
C702 C 0.84254 0.38944 0.35451 0.0
C703 C 0.82134 0.40448 0.31905 0.0
C704 C 0.81667 0.40444 0.34555 0.0
C705 C 0.82735 0.39684 0.36335 0.0
N706 N 0.83625 0.3972 0.31053 0.0
C707 C 0.8468 0.38973 0.32788 0.0
C708 C 0.24691 0.5991 0.41721 0.0
C709 C 0.22549 0.59869 0.41521 0.0
C710 C 0.26785 0.62034 0.41893 0.0
C711 C 0.29226 0.68163 0.4379 0.0
H712 H 0.34498 0.69152 0.39548 0.0
C713 C 0.37762 0.77098 0.43157 0.0
C714 C 0.39874 0.7707 0.43055 0.0
C715 C 0.35623 0.75013 0.42999 0.0
C716 C 0.33052 0.68892 0.40771 0.0
H717 H 0.2093 0.62036 0.41355 0.0
H718 H 0.24599 0.65746 0.41665 0.0
H719 H 0.30802 0.6548 0.39198 0.0
H720 H 0.41392 0.74819 0.42779 0.0
H721 H 0.37666 0.71188 0.42563 0.0
H722 H 0.31482 0.71561 0.45391 0.0
C723 C 0.24646 0.64127 0.41696 0.0
C724 C 0.30937 0.66793 0.40563 0.0
C725 C 0.22549 0.62003 0.41505 0.0
C726 C 0.39799 0.74908 0.42843 0.0
C727 C 0.37663 0.72825 0.42702 0.0
C728 C 0.31348 0.70259 0.44011 0.0
C729 C 0.26782 0.64161 0.41886 0.0
C730 C 0.29007 0.66406 0.42076 0.0
C731 C 0.35551 0.72855 0.42752 0.0
C732 C 0.33287 0.70643 0.42509 0.0
H733 H 0.24756 0.58301 0.41742 0.0
H734 H 0.28408 0.62012 0.42065 0.0
H735 H 0.27769 0.67896 0.44999 0.0
H736 H 0.37756 0.78733 0.43312 0.0
H737 H 0.34028 0.75097 0.43015 0.0
C738 C 0.60611 0.22623 0.59283 0.0
C739 C 0.62336 0.22489 0.57831 0.0
C740 C 0.60554 0.24709 0.59371 0.0
C741 C 0.60067 0.28948 0.58384 0.0
H742 H 0.65942 0.34805 0.57983 0.0
C743 C 0.60384 0.37841 0.57993 0.0
C744 C 0.62288 0.39769 0.59175 0.0
C745 C 0.60355 0.35719 0.57744 0.0
C746 C 0.64284 0.3319 0.58139 0.0
H747 H 0.65286 0.24366 0.5524 0.0
H748 H 0.65113 0.27963 0.55262 0.0
H749 H 0.65948 0.31148 0.57811 0.0
H750 H 0.65615 0.4099 0.61106 0.0
H751 H 0.65513 0.37264 0.60812 0.0
H752 H 0.58422 0.30999 0.58899 0.0
C753 C 0.63867 0.26508 0.56437 0.0
C754 C 0.64282 0.31081 0.57984 0.0
C755 C 0.6396 0.24443 0.56406 0.0
C756 C 0.64141 0.39534 0.60151 0.0
C757 C 0.64087 0.37399 0.59963 0.0
C758 C 0.60073 0.31061 0.58602 0.0
C759 C 0.62186 0.26683 0.57952 0.0
C760 C 0.62174 0.28929 0.58097 0.0
C761 C 0.62205 0.35468 0.58732 0.0
C762 C 0.62184 0.33212 0.58481 0.0
H763 H 0.59347 0.21136 0.6041 0.0
H764 H 0.59261 0.24781 0.60598 0.0
H765 H 0.58402 0.27331 0.58436 0.0
H766 H 0.5894 0.37989 0.5721 0.0
H767 H 0.58897 0.34291 0.56743 0.0
C768 C 0.24378 0.64824 0.76272 0.0
C769 C 0.22217 0.62748 0.76547 0.0
C770 C 0.26441 0.64747 0.76065 0.0
C771 C 0.28988 0.60959 0.7724 0.0
H772 H 0.33607 0.65104 0.72235 0.0
C773 C 0.37127 0.60335 0.74441 0.0
C774 C 0.39258 0.62469 0.74432 0.0
C775 C 0.35012 0.60314 0.74669 0.0
C776 C 0.32338 0.63949 0.7365 0.0
H777 H 0.20535 0.5896 0.76866 0.0
H778 H 0.24135 0.58827 0.76454 0.0
H779 H 0.29975 0.6517 0.7275 0.0
H780 H 0.40835 0.66255 0.74624 0.0
H781 H 0.37141 0.66208 0.75006 0.0
H782 H 0.31356 0.59725 0.78113 0.0
C783 C 0.24235 0.60517 0.76437 0.0
C784 C 0.30263 0.63991 0.73954 0.0
C785 C 0.22171 0.60595 0.76662 0.0
C786 C 0.39226 0.6458 0.74624 0.0
C787 C 0.37112 0.64557 0.7483 0.0
C788 C 0.31059 0.60907 0.76922 0.0
C789 C 0.26389 0.62591 0.7611 0.0
C790 C 0.28574 0.6251 0.75767 0.0
C791 C 0.34988 0.62425 0.74867 0.0
C792 C 0.32758 0.62414 0.75138 0.0
H793 H 0.2448 0.66515 0.76197 0.0
H794 H 0.28078 0.66379 0.75868 0.0
H795 H 0.27733 0.59817 0.78673 0.0
H796 H 0.37089 0.58678 0.74297 0.0
H797 H 0.33393 0.58648 0.74671 0.0
C798 C 0.74617 0.39718 0.92223 0.0
C799 C 0.76713 0.39683 0.91911 0.0
C800 C 0.72486 0.37631 0.92395 0.0
C801 C 0.69866 0.31383 0.93933 0.0
H802 H 0.64664 0.30767 0.89825 0.0
C803 C 0.61276 0.2259 0.92744 0.0
C804 C 0.59179 0.22651 0.92807 0.0
C805 C 0.63427 0.24666 0.92674 0.0
C806 C 0.6609 0.30922 0.91009 0.0
H807 H 0.78213 0.37419 0.91584 0.0
H808 H 0.74485 0.33777 0.91882 0.0
H809 H 0.68405 0.34409 0.89673 0.0
H810 H 0.57704 0.24946 0.92873 0.0
H811 H 0.61456 0.28559 0.92793 0.0
H812 H 0.67547 0.27902 0.95282 0.0
C813 C 0.745 0.35424 0.92004 0.0
C814 C 0.68231 0.33005 0.90919 0.0
C815 C 0.76633 0.37512 0.91819 0.0
C816 C 0.59283 0.24833 0.92814 0.0
C817 C 0.61434 0.26906 0.92753 0.0
C818 C 0.6772 0.29301 0.94032 0.0
C819 C 0.72406 0.35465 0.92272 0.0
C820 C 0.70138 0.33256 0.92381 0.0
C821 C 0.63528 0.26845 0.92673 0.0
C822 C 0.65809 0.2905 0.92571 0.0
H823 H 0.74613 0.41358 0.92312 0.0
H824 H 0.70898 0.37711 0.92636 0.0
H825 H 0.71302 0.31541 0.95102 0.0
H826 H 0.61261 0.2094 0.92727 0.0
H827 H 0.6501 0.24562 0.92579 0.0
C828 C 0.38888 0.76837 0.07837 0.0
C829 C 0.36774 0.76866 0.07873 0.0
C830 C 0.3888 0.74721 0.07976 0.0
C831 C 0.35191 0.68431 0.0676 0.0
H832 H 0.39454 0.6784 0.11465 0.0
C833 C 0.34522 0.59549 0.08902 0.0
C834 C 0.36622 0.59507 0.0911 0.0
C835 C 0.34553 0.61676 0.08738 0.0
C836 C 0.38274 0.67986 0.10117 0.0
H837 H 0.32993 0.74687 0.08077 0.0
H838 H 0.32989 0.70997 0.08315 0.0
H839 H 0.39497 0.71553 0.11181 0.0
H840 H 0.40406 0.61673 0.09286 0.0
H841 H 0.40455 0.65376 0.08953 0.0
H842 H 0.3398 0.64876 0.05674 0.0
C843 C 0.34647 0.72615 0.08164 0.0
C844 C 0.38297 0.70109 0.0996 0.0
C845 C 0.34653 0.7473 0.08041 0.0
C846 C 0.38754 0.6164 0.09141 0.0
C847 C 0.38783 0.63765 0.08965 0.0
C848 C 0.35176 0.66312 0.06907 0.0
C849 C 0.3676 0.72591 0.08137 0.0
C850 C 0.36751 0.70349 0.08285 0.0
C851 C 0.36683 0.63806 0.08765 0.0
C852 C 0.36713 0.66064 0.08592 0.0
H853 H 0.40554 0.78449 0.07708 0.0
H854 H 0.40533 0.74749 0.07927 0.0
H855 H 0.34002 0.6858 0.05427 0.0
H856 H 0.32848 0.5794 0.08883 0.0
H857 H 0.32903 0.61649 0.08625 0.0
C858 C 0.74634 0.34433 0.25883 0.0
C859 C 0.76753 0.36569 0.26053 0.0
C860 C 0.72508 0.34403 0.25819 0.0
C861 C 0.69857 0.38018 0.27428 0.0
H862 H 0.64925 0.33744 0.22793 0.0
C863 C 0.61715 0.38742 0.25152 0.0
C864 C 0.59546 0.36649 0.25165 0.0
C865 C 0.63792 0.38687 0.25339 0.0
C866 C 0.6628 0.34929 0.24115 0.0
H867 H 0.783 0.40351 0.26252 0.0
H868 H 0.74597 0.40294 0.26087 0.0
H869 H 0.68615 0.33744 0.2293 0.0
H870 H 0.57861 0.32856 0.25395 0.0
H871 H 0.61499 0.3277 0.25712 0.0
H872 H 0.67529 0.39227 0.28578 0.0
C873 C 0.74577 0.38641 0.26059 0.0
C874 C 0.68389 0.34928 0.24198 0.0
C875 C 0.76701 0.38673 0.26137 0.0
C876 C 0.59501 0.345 0.25377 0.0
C877 C 0.61581 0.34447 0.25546 0.0
C878 C 0.67753 0.38028 0.27333 0.0
C879 C 0.72457 0.36506 0.2591 0.0
C880 C 0.70203 0.36478 0.25849 0.0
C881 C 0.63744 0.3654 0.25526 0.0
C882 C 0.6595 0.36489 0.25671 0.0
H883 H 0.7461 0.32779 0.25826 0.0
H884 H 0.70903 0.32728 0.25737 0.0
H885 H 0.71205 0.39204 0.28755 0.0
H886 H 0.61816 0.40428 0.24993 0.0
H887 H 0.65439 0.40325 0.25293 0.0
C888 C 0.16297 0.62339 0.67097 0.0
C889 C 0.15052 0.60776 0.69127 0.0
C890 C 0.16197 0.61509 0.64566 0.0
C891 C 0.14926 0.56105 0.61039 0.0
H892 H 0.14738 0.59499 0.54979 0.0
C893 C 0.13551 0.5499 0.4917 0.0
C894 C 0.15106 0.54197 0.4851 0.0
C895 C 0.13417 0.55643 0.51717 0.0
C896 C 0.1477 0.58517 0.56651 0.0
H897 H 0.12642 0.5712 0.70044 0.0
H898 H 0.12447 0.55696 0.65646 0.0
H899 H 0.147 0.6098 0.59309 0.0
H900 H 0.17657 0.53364 0.50058 0.0
H901 H 0.17428 0.54516 0.54515 0.0
H902 H 0.14965 0.53625 0.58377 0.0
C903 C 0.1354 0.57554 0.66018 0.0
C904 C 0.14776 0.59383 0.59134 0.0
C905 C 0.13639 0.58379 0.68541 0.0
C906 C 0.16438 0.53962 0.50495 0.0
C907 C 0.16306 0.54622 0.53052 0.0
C908 C 0.14924 0.5524 0.58554 0.0
C909 C 0.1485 0.59099 0.64008 0.0
C910 C 0.14848 0.58185 0.6136 0.0
C911 C 0.14835 0.55526 0.53677 0.0
C912 C 0.14837 0.56431 0.56329 0.0
H913 H 0.17408 0.64194 0.67474 0.0
H914 H 0.17238 0.62747 0.63064 0.0
H915 H 0.15015 0.55155 0.62711 0.0
H916 H 0.12477 0.55174 0.47703 0.0
H917 H 0.12224 0.56276 0.52142 0.0
C918 C 0.5909 0.1349 0.66271 0.0
C919 C 0.60908 0.15594 0.65242 0.0
C920 C 0.58251 0.13424 0.68786 0.0
C921 C 0.57096 0.16838 0.73241 0.0
H922 H 0.57258 0.12973 0.78818 0.0
C923 C 0.54383 0.17559 0.8375 0.0
C924 C 0.53574 0.15618 0.85412 0.0
C925 C 0.55152 0.17477 0.81236 0.0
C926 C 0.57143 0.14026 0.77276 0.0
H927 H 0.63291 0.19268 0.66053 0.0
H928 H 0.61769 0.1916 0.70427 0.0
H929 H 0.58923 0.12956 0.74593 0.0
H930 H 0.52788 0.1202 0.85699 0.0
H931 H 0.53969 0.11812 0.81271 0.0
H932 H 0.5523 0.1784 0.75841 0.0
C933 C 0.61029 0.17562 0.69293 0.0
C934 C 0.58125 0.14031 0.74863 0.0
C935 C 0.61909 0.17616 0.66803 0.0
C936 C 0.53418 0.13549 0.84462 0.0
C937 C 0.5413 0.13445 0.81928 0.0
C938 C 0.56062 0.16794 0.75632 0.0
C939 C 0.59175 0.15473 0.70288 0.0
C940 C 0.58129 0.15454 0.72838 0.0
C941 C 0.5508 0.15431 0.80301 0.0
C942 C 0.56086 0.15401 0.77699 0.0
H943 H 0.5828 0.11908 0.65108 0.0
H944 H 0.56817 0.11796 0.69518 0.0
H945 H 0.57056 0.17928 0.71689 0.0
H946 H 0.54554 0.19189 0.8444 0.0
H947 H 0.55897 0.19059 0.80078 0.0
C948 C 0.36697 0.5348 1.00187 0.0
C949 C 0.38293 0.53727 0.02144 0.0
C950 C 0.3745 0.54107 0.97613 0.0
C951 C 0.42833 0.57951 0.93918 0.0
H952 H 0.39108 0.54605 0.87917 0.0
C953 C 0.44922 0.61817 0.83494 0.0
C954 C 0.44558 0.6027 0.8143 0.0
C955 C 0.44246 0.60968 0.86029 0.0
C956 C 0.40181 0.5555 0.89571 0.0
H957 H 0.41901 0.5468 0.02882 0.0
H958 H 0.43188 0.55723 0.98413 0.0
H959 H 0.37701 0.53078 0.92272 0.0
H960 H 0.43282 0.56619 0.80452 0.0
H961 H 0.42146 0.55162 0.84859 0.0
H962 H 0.45324 0.60408 0.91222 0.0
C963 C 0.41371 0.55109 0.98873 0.0
C964 C 0.3936 0.54687 0.92069 0.0
C965 C 0.40625 0.5449 0.01437 0.0
C966 C 0.43581 0.57867 0.81984 0.0
C967 C 0.42908 0.57023 0.84512 0.0
C968 C 0.43651 0.58816 0.91423 0.0
C969 C 0.39812 0.54986 0.96941 0.0
C970 C 0.40679 0.55875 0.94273 0.0
C971 C 0.43192 0.58555 0.86558 0.0
C972 C 0.42336 0.57626 0.89218 0.0
H973 H 0.34891 0.52902 0.00659 0.0
H974 H 0.36203 0.53997 0.96173 0.0
H975 H 0.43879 0.58932 0.95573 0.0
H976 H 0.45662 0.63675 0.83144 0.0
H977 H 0.44478 0.62196 0.87557 0.0
C978 C 0.83198 0.37324 0.17033 0.0
C979 C 0.84416 0.3887 0.19085 0.0
C980 C 0.83382 0.38166 0.14492 0.0
C981 C 0.84844 0.43621 0.10956 0.0
H982 H 0.84915 0.40148 0.04914 0.0
C983 C 0.86053 0.44586 0.99042 0.0
C984 C 0.84528 0.45425 0.98418 0.0
C985 C 0.8623 0.43962 0.0159 0.0
C986 C 0.84921 0.41155 0.0658 0.0
H987 H 0.8688 0.42506 0.20031 0.0
H988 H 0.87224 0.4395 0.15617 0.0
H989 H 0.84919 0.38663 0.09252 0.0
H990 H 0.82082 0.46374 1.00034 0.0
H991 H 0.82383 0.45272 0.04485 0.0
H992 H 0.84871 0.46127 0.08284 0.0
C993 C 0.86083 0.42097 0.15977 0.0
C994 C 0.84894 0.40286 0.09069 0.0
C995 C 0.85898 0.4126 0.18511 0.0
C996 C 0.83276 0.45739 0.00439 0.0
C997 C 0.83451 0.45108 0.02995 0.0
C998 C 0.84868 0.44489 0.08467 0.0
C999 C 0.8479 0.40572 0.13945 0.0
C1000 C 0.84854 0.41507 0.11289 0.0
C1001 C 0.84885 0.44155 0.03588 0.0
C1002 C 0.84907 0.43267 0.06247 0.0
H1003 H 0.82036 0.35476 0.174 0.0
H1004 H 0.82351 0.36943 0.12975 0.0
H1005 H 0.84781 0.44592 0.12622 0.0
H1006 H 0.87063 0.44338 0.97545 0.0
H1007 H 0.87394 0.43289 0.01987 0.0
C1008 C 0.37285 0.83116 0.16914 0.0
C1009 C 0.38869 0.84386 0.14911 0.0
C1010 C 0.38074 0.83244 0.1947 0.0
C1011 C 0.40073 0.84641 0.24953 0.0
H1012 H 0.45905 0.84639 0.25826 0.0
C1013 C 0.4431 0.8579 0.35025 0.0
C1014 C 0.45211 0.84316 0.35649 0.0
C1015 C 0.43648 0.85924 0.32482 0.0
C1016 C 0.44268 0.84626 0.25618 0.0
H1017 H 0.42512 0.86882 0.14068 0.0
H1018 H 0.43864 0.8713 0.1851 0.0
H1019 H 0.44451 0.8462 0.21465 0.0
H1020 H 0.46194 0.81887 0.34045 0.0
H1021 H 0.45024 0.82114 0.29602 0.0
H1022 H 0.3986 0.84587 0.29106 0.0
C1023 C 0.42023 0.85992 0.18099 0.0
C1024 C 0.43447 0.84644 0.23116 0.0
C1025 C 0.41239 0.85863 0.1555 0.0
C1026 C 0.45514 0.83045 0.33638 0.0
C1027 C 0.44845 0.83178 0.31087 0.0
C1028 C 0.40896 0.84625 0.27454 0.0
C1029 C 0.40462 0.84647 0.20081 0.0
C1030 C 0.4134 0.84654 0.22751 0.0
C1031 C 0.43864 0.84588 0.30489 0.0
C1032 C 0.43005 0.84619 0.27819 0.0
H1033 H 0.35449 0.81957 0.16497 0.0
H1034 H 0.36824 0.82174 0.20946 0.0
H1035 H 0.38454 0.84663 0.24745 0.0
H1036 H 0.44065 0.8681 0.36513 0.0
H1037 H 0.42947 0.87066 0.32081 0.0
C1038 C 0.55111 0.4144 0.32363 0.0
C1039 C 0.54134 0.3904 0.31798 0.0
C1040 C 0.55768 0.42274 0.34897 0.0
C1041 C 0.5852 0.43718 0.39932 0.0
H1042 H 0.54849 0.40383 0.45969 0.0
C1043 C 0.62122 0.45789 0.50494 0.0
C1044 C 0.60566 0.45592 0.52476 0.0
C1045 C 0.6133 0.45147 0.47934 0.0
C1046 C 0.55887 0.4135 0.44304 0.0
H1047 H 0.5299 0.35624 0.33503 0.0
H1048 H 0.54142 0.37085 0.37931 0.0
H1049 H 0.53356 0.38906 0.41628 0.0
H1050 H 0.56981 0.44695 0.53271 0.0
H1051 H 0.55627 0.43623 0.48825 0.0
H1052 H 0.61042 0.46174 0.42608 0.0
C1053 C 0.54392 0.3832 0.36404 0.0
C1054 C 0.55041 0.40486 0.41814 0.0
C1055 C 0.53732 0.37481 0.33862 0.0
C1056 C 0.58231 0.44854 0.51807 0.0
C1057 C 0.57444 0.44216 0.49256 0.0
C1058 C 0.59369 0.4458 0.42422 0.0
C1059 C 0.55466 0.40734 0.36941 0.0
C1060 C 0.56346 0.41659 0.39597 0.0
C1061 C 0.58967 0.44298 0.47299 0.0
C1062 C 0.58062 0.43408 0.4464 0.0
H1063 H 0.55436 0.42697 0.30834 0.0
H1064 H 0.56542 0.44136 0.35249 0.0
H1065 H 0.59587 0.4465 0.38268 0.0
H1066 H 0.63929 0.46344 0.50934 0.0
H1067 H 0.62549 0.45224 0.46475 0.0
C1068 C 0.92189 0.39508 0.28706 0.0
C1069 C 0.91154 0.40915 0.2851 0.0
C1070 C 0.94226 0.40263 0.30178 0.0
C1071 C 0.97462 0.44381 0.35516 0.0
H1072 H 0.02726 0.43763 0.33254 0.0
C1073 C 0.06829 0.50398 0.38897 0.0
C1074 C 0.08174 0.49394 0.39652 0.0
C1075 C 0.04609 0.49009 0.37846 0.0
C1076 C 0.01248 0.43906 0.33928 0.0
H1077 H 0.91504 0.44264 0.29549 0.0
H1078 H 0.95071 0.45603 0.32034 0.0
H1079 H 0.99145 0.42032 0.30641 0.0
H1080 H 0.0826 0.46157 0.3993 0.0
H1081 H 0.04365 0.4372 0.38013 0.0
H1082 H -0.00397 0.4635 0.38729 0.0
C1083 C 0.9428 0.43887 0.31138 0.0
C1084 C 0.99204 0.4292 0.32434 0.0
C1085 C 0.92247 0.4313 0.29693 0.0
C1086 C 0.07245 0.46966 0.3938 0.0
C1087 C 0.05033 0.45579 0.38274 0.0
C1088 C 0.99505 0.4538 0.36987 0.0
C1089 C 0.95256 0.42439 0.31461 0.0
C1090 C 0.97318 0.43213 0.33175 0.0
C1091 C 0.03707 0.46597 0.37487 0.0
C1092 C 0.01435 0.45205 0.36169 0.0
H1093 H 0.91371 0.37785 0.27823 0.0
H1094 H 0.94942 0.39112 0.30389 0.0
H1095 H 0.96014 0.44578 0.36178 0.0
H1096 H 0.07506 0.52265 0.39088 0.0
H1097 H 0.03627 0.49837 0.37229 0.0
C1098 C 0.5291 0.9239 0.44449 0.0
C1099 C 0.50491 0.91492 0.44188 0.0
C1100 C 0.54327 0.94611 0.45532 0.0
C1101 C 0.54589 0.00188 0.46885 0.0
H1102 H 0.57822 0.004 0.53268 0.0
C1103 C 0.5648 0.0711 0.54509 0.0
C1104 C 0.58676 0.08239 0.55727 0.0
C1105 C 0.5582 0.05145 0.52966 0.0
C1106 C 0.56968 0.00383 0.51464 0.0
H1107 H 0.47668 0.92227 0.44728 0.0
H1108 H 0.50144 0.96119 0.46545 0.0
H1109 H 0.56153 0.9688 0.50544 0.0
H1110 H 0.6187 0.08142 0.56376 0.0
H1111 H 0.60705 0.04677 0.53651 0.0
H1112 H 0.55343 0.03653 0.47812 0.0
C1113 C 0.50945 0.9511 0.45938 0.0
C1114 C 0.56019 0.98374 0.49906 0.0
C1115 C 0.49529 0.92882 0.4491 0.0
C1116 C 0.60161 0.07297 0.55467 0.0
C1117 C 0.59499 0.05323 0.53904 0.0
C1118 C 0.55546 0.02193 0.48425 0.0
C1119 C 0.53346 0.95976 0.46304 0.0
C1120 C 0.54752 0.98235 0.47654 0.0
C1121 C 0.57345 0.04268 0.52585 0.0
C1122 C 0.56665 0.02277 0.50782 0.0
H1123 H 0.53687 0.91338 0.43923 0.0
H1124 H 0.56176 0.9525 0.458 0.0
H1125 H 0.53643 0.00128 0.45138 0.0
H1126 H 0.55286 0.07778 0.54697 0.0
H1127 H 0.54119 0.04328 0.5204 0.0
C1128 C 0.52026 0.59548 0.73269 0.0
C1129 C 0.49791 0.5875 0.72209 0.0
C1130 C 0.53584 0.58986 0.7207 0.0
C1131 C 0.54775 0.57055 0.65816 0.0
H1132 H 0.57327 0.53963 0.69979 0.0
C1133 C 0.5962 0.5263 0.6129 0.0
C1134 C 0.58713 0.50305 0.62128 0.0
C1135 C 0.59023 0.54121 0.62589 0.0
C1136 C 0.56645 0.54846 0.68798 0.0
H1137 H 0.4745 0.56767 0.69045 0.0
H1138 H 0.50154 0.55797 0.66977 0.0
H1139 H 0.55348 0.55799 0.72117 0.0
H1140 H 0.56506 0.47733 0.6501 0.0
H1141 H 0.55467 0.50321 0.6725 0.0
H1142 H 0.55966 0.55999 0.6249 0.0
C1143 C 0.50712 0.56867 0.68717 0.0
C1144 C 0.55532 0.55911 0.70021 0.0
C1145 C 0.49153 0.57401 0.69923 0.0
C1146 C 0.57226 0.4951 0.64303 0.0
C1147 C 0.56651 0.51001 0.65609 0.0
C1148 C 0.55901 0.56004 0.64594 0.0
C1149 C 0.5294 0.57652 0.69774 0.0
C1150 C 0.5451 0.56946 0.68533 0.0
C1151 C 0.57537 0.53317 0.64764 0.0
C1152 C 0.56767 0.54813 0.6607 0.0
H1153 H 0.5257 0.60602 0.7502 0.0
H1154 H 0.55293 0.59607 0.72923 0.0
H1155 H 0.54023 0.57868 0.6463 0.0
H1156 H 0.60783 0.53297 0.59631 0.0
H1157 H 0.59726 0.55902 0.61901 0.0
C1158 C 0.06412 0.56529 0.78063 0.0
C1159 C 0.07808 0.58918 0.77482 0.0
C1160 C 0.04154 0.55657 0.79013 0.0
C1161 C 0.00815 0.57247 0.83095 0.0
H1162 H 0.95562 0.51434 0.80616 0.0
C1163 C 0.91922 0.52268 0.88569 0.0
C1164 C 0.90917 0.49819 0.8864 0.0
C1165 C 0.93882 0.53629 0.87013 0.0
C1166 C 0.97015 0.53054 0.8134 0.0
H1167 H 0.07947 0.62272 0.77382 0.0
H1168 H 0.03982 0.60741 0.79137 0.0
H1169 H 0.99135 0.53392 0.78039 0.0
H1170 H 0.91233 0.46886 0.87243 0.0
H1171 H 0.94673 0.49251 0.84606 0.0
H1172 H 0.98747 0.56841 0.86472 0.0
C1173 C 0.04638 0.5955 0.7881 0.0
C1174 C 0.99046 0.5418 0.79852 0.0
C1175 C 0.0689 0.60417 0.77799 0.0
C1176 C 0.91955 0.48767 0.8721 0.0
C1177 C 0.93913 0.50122 0.85676 0.0
C1178 C 0.98784 0.56105 0.84602 0.0
C1179 C 0.03266 0.57166 0.79447 0.0
C1180 C 0.00986 0.56246 0.80754 0.0
C1181 C 0.94869 0.5256 0.85512 0.0
C1182 C 0.96894 0.53954 0.83778 0.0
H1183 H 0.07085 0.5534 0.77833 0.0
H1184 H 0.03137 0.53817 0.79517 0.0
H1185 H 0.023 0.58832 0.83836 0.0
H1186 H 0.91148 0.53125 0.8964 0.0
H1187 H 0.9458 0.55504 0.86926 0.0
C1188 C 0.4968 0.0685 0.94786 0.0
C1189 C 0.48636 0.08194 0.94187 0.0
C1190 C 0.48358 0.04623 0.95854 0.0
C1191 C 0.43473 0.01257 1.0007 0.0
H1192 H 0.44138 0.96045 0.97675 0.0
C1193 C 0.39452 0.9225 0.05406 0.0
C1194 C 0.40893 0.91248 0.05498 0.0
C1195 C 0.40109 0.94266 0.0392 0.0
C1196 C 0.43945 0.97488 0.98378 0.0
H1197 H 0.45391 0.08265 0.94191 0.0
H1198 H 0.4307 0.04353 0.96134 0.0
H1199 H 0.4573 0.99607 0.95074 0.0
H1200 H 0.44206 0.91639 0.04246 0.0
H1201 H 0.45374 0.95168 0.01731 0.0
H1202 H 0.41784 0.99176 0.03439 0.0
C1203 C 0.44909 0.05028 0.95741 0.0
C1204 C 0.4484 0.99515 0.96878 0.0
C1205 C 0.46229 0.0725 0.94619 0.0
C1206 C 0.43046 0.92355 0.04188 0.0
C1207 C 0.43705 0.94366 0.02725 0.0
C1208 C 0.42591 0.99228 0.01588 0.0
C1209 C 0.45972 0.03708 0.96384 0.0
C1210 C 0.44669 0.01439 0.97745 0.0
C1211 C 0.42219 0.95309 0.02515 0.0
C1212 C 0.42884 0.97352 0.00792 0.0
H1213 H 0.51533 0.07538 0.9447 0.0
H1214 H 0.49223 0.03649 0.96357 0.0
H1215 H 0.43336 0.02729 0.00784 0.0
H1216 H 0.37776 0.91424 0.06387 0.0
H1217 H 0.3893 0.94955 0.03797 0.0
C1218 C 0.39191 0.46706 0.11394 0.0
C1219 C 0.40655 0.49127 0.11023 0.0
C1220 C 0.40081 0.45373 0.12498 0.0
C1221 C 0.45485 0.45275 0.13629 0.0
H1222 H 0.42726 0.42127 0.2014 0.0
C1223 C 0.50732 0.4321 0.20827 0.0
C1224 C 0.49628 0.41062 0.22155 0.0
C1225 C 0.49427 0.43924 0.19368 0.0
C1226 C 0.43493 0.42958 0.18302 0.0
H1227 H 0.44196 0.52041 0.11401 0.0
H1228 H 0.45758 0.49705 0.13255 0.0
H1229 H 0.40773 0.43755 0.17544 0.0
H1230 H 0.46284 0.38002 0.23059 0.0
H1231 H 0.43991 0.39244 0.20467 0.0
H1232 H 0.48211 0.4451 0.14371 0.0
C1233 C 0.43927 0.48841 0.12719 0.0
C1234 C 0.42374 0.43885 0.16818 0.0
C1235 C 0.43032 0.50177 0.11671 0.0
C1236 C 0.47179 0.39674 0.22066 0.0
C1237 C 0.45868 0.40384 0.2058 0.0
C1238 C 0.46588 0.4433 0.15091 0.0
C1239 C 0.42454 0.46439 0.13182 0.0
C1240 C 0.43402 0.45112 0.14512 0.0
C1241 C 0.46987 0.42497 0.19174 0.0
C1242 C 0.45647 0.43231 0.17487 0.0
H1243 H 0.37346 0.45862 0.10927 0.0
H1244 H 0.38917 0.43521 0.12841 0.0
H1245 H 0.46294 0.46191 0.11839 0.0
H1246 H 0.52616 0.44328 0.20882 0.0
H1247 H 0.50339 0.45596 0.18375 0.0
C1248 C 0.21109 0.5392 0.31907 0.0
C1249 C 0.20792 0.526 0.34173 0.0
C1250 C 0.22219 0.53655 0.29738 0.0
C1251 C 0.26172 0.54079 0.26429 0.0
H1252 H 0.24994 0.48139 0.23579 0.0
C1253 C 0.32282 0.53716 0.18832 0.0
C1254 C 0.31242 0.52365 0.16595 0.0
C1255 C 0.30938 0.53505 0.21013 0.0
C1256 C 0.25331 0.49808 0.24352 0.0
H1257 H 0.21301 0.49885 0.35892 0.0
H1258 H 0.23264 0.49428 0.32073 0.0
H1259 H 0.22684 0.48192 0.27297 0.0
H1260 H 0.27984 0.49651 0.14941 0.0
H1261 H 0.25617 0.4929 0.18778 0.0
H1262 H 0.28797 0.55705 0.23503 0.0
C1263 C 0.22642 0.50665 0.31991 0.0
C1264 C 0.24026 0.49838 0.26488 0.0
C1265 C 0.21529 0.50935 0.34179 0.0
C1266 C 0.28834 0.50723 0.16631 0.0
C1267 C 0.27482 0.50509 0.18829 0.0
C1268 C 0.27481 0.5405 0.2432 0.0
C1269 C 0.23042 0.52062 0.29769 0.0
C1270 C 0.24427 0.51978 0.27537 0.0
C1271 C 0.28516 0.51938 0.2102 0.0
C1272 C 0.27082 0.51918 0.23256 0.0
H1273 H 0.20534 0.55195 0.31816 0.0
H1274 H 0.2246 0.54723 0.28037 0.0
H1275 H 0.26543 0.55757 0.27209 0.0
H1276 H 0.34138 0.54974 0.18892 0.0
H1277 H 0.31794 0.54597 0.22689 0.0
C1278 C 0.77072 0.28538 0.32768 0.0
C1279 C 0.78779 0.30901 0.33088 0.0
C1280 C 0.75969 0.27132 0.34943 0.0
C1281 C 0.74997 0.27731 0.42015 0.0
H1282 H 0.72145 0.20966 0.41939 0.0
C1283 C 0.70628 0.21911 0.51036 0.0
C1284 C 0.68218 0.20407 0.50658 0.0
C1285 C 0.72094 0.2303 0.48913 0.0
C1286 C 0.72947 0.22856 0.41982 0.0
H1287 H 0.80798 0.33613 0.35901 0.0
H1288 H 0.79018 0.31144 0.39681 0.0
H1289 H 0.74479 0.23249 0.38218 0.0
H1290 H 0.65473 0.18792 0.47765 0.0
H1291 H 0.68061 0.20689 0.44047 0.0
H1292 H 0.73508 0.2732 0.45815 0.0
C1293 C 0.78414 0.30384 0.37775 0.0
C1294 C 0.74267 0.2417 0.39843 0.0
C1295 C 0.79461 0.318 0.35606 0.0
C1296 C 0.67323 0.19951 0.48112 0.0
C1297 C 0.688 0.21023 0.45987 0.0
C1298 C 0.7373 0.26423 0.4417 0.0
C1299 C 0.76596 0.28047 0.37484 0.0
C1300 C 0.75292 0.26629 0.39813 0.0
C1301 C 0.71186 0.22612 0.46376 0.0
C1302 C 0.72674 0.23977 0.44161 0.0
H1303 H 0.76509 0.27812 0.30838 0.0
H1304 H 0.74564 0.25358 0.34617 0.0
H1305 H 0.75686 0.29604 0.42063 0.0
H1306 H 0.71361 0.22302 0.52979 0.0
H1307 H 0.73931 0.24254 0.49253 0.0
C1308 C 0.47006 0.67455 0.64985 0.0
C1309 C 0.47152 0.68357 0.67489 0.0
C1310 C 0.47466 0.68876 0.62801 0.0
C1311 C 0.49681 0.75102 0.60685 0.0
H1312 H 0.45902 0.71995 0.54617 0.0
C1313 C 0.47243 0.79462 0.5236 0.0
C1314 C 0.47644 0.78974 0.49812 0.0
C1315 C 0.47606 0.78359 0.54481 0.0
C1316 C 0.46989 0.7288 0.56287 0.0
H1317 H 0.47937 0.71456 0.69701 0.0
H1318 H 0.48603 0.73921 0.65887 0.0
H1319 H 0.45672 0.69691 0.58403 0.0
H1320 H 0.48786 0.76995 0.47481 0.0
H1321 H 0.49333 0.74988 0.51206 0.0
H1322 H 0.50855 0.78316 0.58579 0.0
C1323 C 0.48221 0.72139 0.65589 0.0
C1324 C 0.46874 0.7156 0.58463 0.0
C1325 C 0.47826 0.70727 0.67783 0.0
C1326 C 0.48473 0.77407 0.49426 0.0
C1327 C 0.4878 0.76258 0.51549 0.0
C1328 C 0.4975 0.76427 0.58523 0.0
C1329 C 0.48006 0.71221 0.63059 0.0
C1330 C 0.48216 0.72647 0.60703 0.0
C1331 C 0.48326 0.76709 0.54089 0.0
C1332 C 0.48401 0.75324 0.5631 0.0
H1333 H 0.4652 0.65638 0.64712 0.0
H1334 H 0.47362 0.68113 0.60908 0.0
H1335 H 0.50774 0.76009 0.6234 0.0
H1336 H 0.46614 0.80671 0.52711 0.0
H1337 H 0.47229 0.7872 0.56421 0.0
C1338 C 0.78006 0.45424 0.82062 0.0
C1339 C 0.78413 0.46807 0.84294 0.0
C1340 C 0.76888 0.4569 0.79901 0.0
C1341 C 0.72941 0.45325 0.76646 0.0
H1342 H 0.74236 0.51255 0.73651 0.0
C1343 C 0.6683 0.45672 0.69055 0.0
C1344 C 0.6786 0.4697 0.66784 0.0
C1345 C 0.68189 0.45911 0.71231 0.0
C1346 C 0.73865 0.49589 0.74465 0.0
H1347 H 0.78057 0.49633 0.8596 0.0
H1348 H 0.76071 0.50087 0.82158 0.0
H1349 H 0.76566 0.5121 0.77353 0.0
H1350 H 0.71115 0.49624 0.65063 0.0
H1351 H 0.73509 0.50028 0.6889 0.0
H1352 H 0.70266 0.43692 0.73776 0.0
C1353 C 0.76632 0.48801 0.82095 0.0
C1354 C 0.75183 0.49564 0.76593 0.0
C1355 C 0.77757 0.48533 0.84273 0.0
C1356 C 0.70273 0.48593 0.66781 0.0
C1357 C 0.71641 0.48831 0.68973 0.0
C1358 C 0.71622 0.4535 0.74545 0.0
C1359 C 0.76141 0.47343 0.79909 0.0
C1360 C 0.7474 0.47427 0.77693 0.0
C1361 C 0.70616 0.47449 0.71199 0.0
C1362 C 0.72062 0.47478 0.73429 0.0
H1363 H 0.7852 0.44101 0.81989 0.0
H1364 H 0.7658 0.44573 0.78228 0.0
H1365 H 0.72536 0.4365 0.77467 0.0
H1366 H 0.64971 0.44433 0.69146 0.0
H1367 H 0.67338 0.44858 0.72934 0.0
C1368 C 0.28744 0.77377 0.01013 0.0
C1369 C 0.31137 0.78984 0.00729 0.0
C1370 C 0.27341 0.7635 0.98818 0.0
C1371 C 0.27907 0.75354 0.91748 0.0
H1372 H 0.21208 0.72895 0.91779 0.0
C1373 C 0.2201 0.71116 0.82734 0.0
C1374 C 0.20387 0.68739 0.83171 0.0
C1375 C 0.23198 0.72597 0.84827 0.0
C1376 C 0.23081 0.7359 0.91747 0.0
H1377 H 0.33918 0.80903 0.97954 0.0
H1378 H 0.31465 0.79255 0.94138 0.0
H1379 H 0.23549 0.75146 0.95508 0.0
H1380 H 0.18634 0.66074 0.86128 0.0
H1381 H 0.20652 0.6869 0.89786 0.0
H1382 H 0.27423 0.73837 0.87952 0.0
C1383 C 0.30671 0.78671 0.96033 0.0
C1384 C 0.24425 0.7486 0.93892 0.0
C1385 C 0.32081 0.7964 0.98223 0.0
C1386 C 0.19885 0.67899 0.85738 0.0
C1387 C 0.21027 0.69392 0.87829 0.0
C1388 C 0.26571 0.74138 0.89586 0.0
C1389 C 0.28293 0.76957 0.9629 0.0
C1390 C 0.26858 0.75734 0.93942 0.0
C1391 C 0.2273 0.71739 0.87387 0.0
C1392 C 0.24145 0.73219 0.89581 0.0
H1393 H 0.27981 0.76835 0.0293 0.0
H1394 H 0.25533 0.7502 0.99117 0.0
H1395 H 0.29754 0.7593 0.91715 0.0
H1396 H 0.22435 0.71803 0.80773 0.0
H1397 H 0.2451 0.74403 0.84447 0.0
C1398 C 0.53219 0.31964 0.15472 0.0
C1399 C 0.52034 0.3107 0.17836 0.0
C1400 C 0.52732 0.30508 0.13315 0.0
C1401 C 0.50635 0.27329 0.08653 0.0
H1402 H 0.50424 0.21407 0.09711 0.0
C1403 C 0.4998 0.21407 1.00012 0.0
C1404 C 0.51574 0.20586 1.00107 0.0
C1405 C 0.49593 0.2242 0.02212 0.0
C1406 C 0.50473 0.23053 0.09383 0.0
H1407 H 0.49369 0.27947 0.19773 0.0
H1408 H 0.48523 0.25386 0.15985 0.0
H1409 H 0.50573 0.23743 0.13466 0.0
H1410 H 0.53942 0.20102 0.02616 0.0
H1411 H 0.53281 0.21876 0.06424 0.0
H1412 H 0.50637 0.26692 0.04573 0.0
C1413 C 0.49838 0.2722 0.15816 0.0
C1414 C 0.50533 0.2438 0.11536 0.0
C1415 C 0.50315 0.28687 0.17979 0.0
C1416 C 0.5271 0.20727 0.02469 0.0
C1417 C 0.52315 0.21727 0.04664 0.0
C1418 C 0.50567 0.26 0.06501 0.0
C1419 C 0.51052 0.28115 0.13463 0.0
C1420 C 0.50674 0.26562 0.11195 0.0
C1421 C 0.50779 0.22617 0.04557 0.0
C1422 C 0.50543 0.23873 0.06839 0.0
H1423 H 0.54548 0.33793 0.15286 0.0
H1424 H 0.53725 0.3125 0.11549 0.0
H1425 H 0.50711 0.28988 0.08324 0.0
H1426 H 0.49072 0.21316 0.98224 0.0
H1427 H 0.48381 0.23069 0.02073 0.0
loop_
_geom_bond_atom_site_label_1
_geom_bond_atom_site_label_2
_geom_bond_distance
_geom_bond_site_symmetry_2
_ccdc_geom_bond_type
Co0 O2 2.143 . S
Co0 O8 2.074 . S
Co0 O11 2.093 . S
Co0 O24 2.097 . S
Co0 N41 2.151 . S
Co0 N49 2.214 . S
Co1 O2 2.160 . S
Co1 O7 2.058 . S
Co1 O17 2.057 . S
Co1 O32 2.037 . S
Co1 N36 2.145 . S
Co1 N57 2.257 . S
O2 Co0 2.143 . S
O2 Co1 2.160 . S
C3 O4 1.278 . S
C3 O11 1.224 . S
O4 C3 1.278 . S
C5 O6 1.245 . S
C5 O17 1.232 . S
O6 C5 1.245 . S
O7 Co1 2.058 . S
O7 C33 1.269 . S
O8 Co0 2.074 . S
O8 C33 1.257 . S
H9 C34 0.930 . S
H10 C40 0.930 . S
O11 Co0 2.093 . S
O11 C3 1.224 . S
H12 C44 0.929 . S
H13 C46 0.930 . S
H14 C47 0.930 . S
H15 C45 0.929 . S
H16 C48 0.928 . S
O17 Co1 2.057 . S
O17 C5 1.232 . S
H18 C37 0.929 . S
H19 C38 0.929 . S
H20 C50 0.931 . S
H21 C42 0.929 . S
H22 C51 0.930 . S
H23 C43 0.931 . S
O24 Co0 2.097 . S
O24 C52 1.214 . S
H25 C53 0.929 . S
H26 C54 0.929 . S
H27 C55 0.930 . S
H28 C56 0.929 . S
H29 C58 0.930 . S
H30 C35 0.930 . S
H31 C39 0.930 . S
O32 Co1 2.037 . S
O32 C52 1.234 . S
C33 O7 1.269 . S
C33 O8 1.257 . S
C34 H9 0.930 . S
C34 C37 1.388 . S
C34 C39 1.418 . S
C35 H30 0.930 . S
C35 C38 1.404 . S
C35 C39 1.353 . S
N36 Co1 2.145 . S
N36 C37 1.397 . S
N36 C38 1.334 . S
C37 H18 0.929 . S
C37 C34 1.388 . S
C37 N36 1.397 . S
C38 H19 0.929 . S
C38 C35 1.404 . S
C38 N36 1.334 . S
C39 H31 0.930 . S
C39 C34 1.418 . S
C39 C35 1.353 . S
C40 H10 0.930 . S
C40 N41 1.330 . S
C40 C42 1.446 . S
N41 Co0 2.151 . S
N41 C40 1.330 . S
N41 C45 1.418 . S
C42 H21 0.929 . S
C42 C40 1.446 . S
C42 C43 1.332 . S
C43 H23 0.931 . S
C43 C42 1.332 . S
C43 C44 1.267 . S
C44 H12 0.929 . S
C44 C43 1.267 . S
C44 C45 1.251 . S
C45 H15 0.929 . S
C45 N41 1.418 . S
C45 C44 1.251 . S
C46 H13 0.930 . S
C46 C48 1.406 . S
C46 C51 1.261 . S
C47 H14 0.930 . S
C47 N49 1.325 . S
C47 C50 1.357 . S
C48 H16 0.928 . S
C48 C46 1.406 . S
C48 N49 1.261 . S
N49 Co0 2.214 . S
N49 C47 1.325 . S
N49 C48 1.261 . S
C50 H20 0.931 . S
C50 C47 1.357 . S
C50 C51 1.312 . S
C51 H22 0.930 . S
C51 C46 1.261 . S
C51 C50 1.312 . S
C52 O24 1.214 . S
C52 O32 1.234 . S
C53 H25 0.929 . S
C53 C56 1.391 . S
C53 C58 1.391 . S
C54 H26 0.929 . S
C54 C55 1.390 . S
C54 N57 1.391 . S
C55 H27 0.930 . S
C55 C54 1.390 . S
C55 C56 1.392 . S
C56 H28 0.929 . S
C56 C53 1.391 . S
C56 C55 1.392 . S
N57 Co1 2.257 . S
N57 C54 1.391 . S
N57 C58 1.388 . S
C58 H29 0.930 . S
C58 C53 1.391 . S
C58 N57 1.388 . S
Co59 O61 2.143 . S
Co59 O67 2.074 . S
Co59 O70 2.093 . S
Co59 O83 2.097 . S
Co59 N100 2.151 . S
Co59 N108 2.214 . S
Co60 O61 2.160 . S
Co60 O66 2.058 . S
Co60 O76 2.057 . S
Co60 O91 2.037 . S
Co60 N95 2.145 . S
Co60 N116 2.257 . S
O61 Co59 2.143 . S
O61 Co60 2.160 . S
C62 O63 1.278 . S
C62 O70 1.224 . S
O63 C62 1.278 . S
C64 O65 1.245 . S
C64 O76 1.232 . S
O65 C64 1.245 . S
O66 Co60 2.058 . S
O66 C92 1.269 . S
O67 Co59 2.074 . S
O67 C92 1.257 . S
H68 C93 0.930 . S
H69 C99 0.930 . S
O70 Co59 2.093 . S
O70 C62 1.224 . S
H71 C103 0.929 . S
H72 C105 0.930 . S
H73 C106 0.930 . S
H74 C104 0.929 . S
H75 C107 0.928 . S
O76 Co60 2.057 . S
O76 C64 1.232 . S
H77 C96 0.929 . S
H78 C97 0.929 . S
H79 C109 0.931 . S
H80 C101 0.929 . S
H81 C110 0.930 . S
H82 C102 0.931 . S
O83 Co59 2.097 . S
O83 C111 1.214 . S
H84 C112 0.929 . S
H85 C113 0.929 . S
H86 C114 0.930 . S
H87 C115 0.929 . S
H88 C117 0.930 . S
H89 C94 0.930 . S
H90 C98 0.930 . S
O91 Co60 2.037 . S
O91 C111 1.234 . S
C92 O66 1.269 . S
C92 O67 1.257 . S
C93 H68 0.930 . S
C93 C96 1.388 . S
C93 C98 1.418 . S
C94 H89 0.930 . S
C94 C97 1.404 . S
C94 C98 1.353 . S
N95 Co60 2.145 . S
N95 C96 1.397 . S
N95 C97 1.334 . S
C96 H77 0.929 . S
C96 C93 1.388 . S
C96 N95 1.397 . S
C97 H78 0.929 . S
C97 C94 1.404 . S
C97 N95 1.334 . S
C98 H90 0.930 . S
C98 C93 1.418 . S
C98 C94 1.353 . S
C99 H69 0.930 . S
C99 N100 1.330 . S
C99 C101 1.446 . S
N100 Co59 2.151 . S
N100 C99 1.330 . S
N100 C104 1.418 . S
C101 H80 0.929 . S
C101 C99 1.446 . S
C101 C102 1.332 . S
C102 H82 0.931 . S
C102 C101 1.332 . S
C102 C103 1.267 . S
C103 H71 0.929 . S
C103 C102 1.267 . S
C103 C104 1.251 . S
C104 H74 0.929 . S
C104 N100 1.418 . S
C104 C103 1.251 . S
C105 H72 0.930 . S
C105 C107 1.406 . S
C105 C110 1.261 . S
C106 H73 0.930 . S
C106 N108 1.325 . S
C106 C109 1.357 . S
C107 H75 0.928 . S
C107 C105 1.406 . S
C107 N108 1.261 . S
N108 Co59 2.214 . S
N108 C106 1.325 . S
N108 C107 1.261 . S
C109 H79 0.931 . S
C109 C106 1.357 . S
C109 C110 1.312 . S
C110 H81 0.930 . S
C110 C105 1.261 . S
C110 C109 1.312 . S
C111 O83 1.214 . S
C111 O91 1.234 . S
C112 H84 0.929 . S
C112 C115 1.391 . S
C112 C117 1.391 . S
C113 H85 0.929 . S
C113 C114 1.390 . S
C113 N116 1.391 . S
C114 H86 0.930 . S
C114 C113 1.390 . S
C114 C115 1.392 . S
C115 H87 0.929 . S
C115 C112 1.391 . S
C115 C114 1.392 . S
N116 Co60 2.257 . S
N116 C113 1.391 . S
N116 C117 1.388 . S
C117 H88 0.930 . S
C117 C112 1.391 . S
C117 N116 1.388 . S
Co118 O120 2.143 . S
Co118 O126 2.074 . S
Co118 O129 2.093 . S
Co118 O142 2.097 . S
Co118 N159 2.151 . S
Co118 N167 2.214 . S
Co119 O120 2.160 . S
Co119 O125 2.058 . S
Co119 O135 2.057 . S
Co119 O150 2.037 . S
Co119 N154 2.145 . S
Co119 N175 2.257 . S
O120 Co118 2.143 . S
O120 Co119 2.160 . S
C121 O122 1.278 . S
C121 O129 1.224 . S
O122 C121 1.278 . S
C123 O124 1.245 . S
C123 O135 1.232 . S
O124 C123 1.245 . S
O125 Co119 2.058 . S
O125 C151 1.269 . S
O126 Co118 2.074 . S
O126 C151 1.257 . S
H127 C152 0.930 . S
H128 C158 0.930 . S
O129 Co118 2.093 . S
O129 C121 1.224 . S
H130 C162 0.929 . S
H131 C164 0.930 . S
H132 C165 0.930 . S
H133 C163 0.929 . S
H134 C166 0.928 . S
O135 Co119 2.057 . S
O135 C123 1.232 . S
H136 C155 0.929 . S
H137 C156 0.929 . S
H138 C168 0.931 . S
H139 C160 0.929 . S
H140 C169 0.930 . S
H141 C161 0.931 . S
O142 Co118 2.097 . S
O142 C170 1.214 . S
H143 C171 0.929 . S
H144 C172 0.929 . S
H145 C173 0.930 . S
H146 C174 0.929 . S
H147 C176 0.930 . S
H148 C153 0.930 . S
H149 C157 0.930 . S
O150 Co119 2.037 . S
O150 C170 1.234 . S
C151 O125 1.269 . S
C151 O126 1.257 . S
C152 H127 0.930 . S
C152 C155 1.388 . S
C152 C157 1.418 . S
C153 H148 0.930 . S
C153 C156 1.404 . S
C153 C157 1.353 . S
N154 Co119 2.145 . S
N154 C155 1.397 . S
N154 C156 1.334 . S
C155 H136 0.929 . S
C155 C152 1.388 . S
C155 N154 1.397 . S
C156 H137 0.929 . S
C156 C153 1.404 . S
C156 N154 1.334 . S
C157 H149 0.930 . S
C157 C152 1.418 . S
C157 C153 1.353 . S
C158 H128 0.930 . S
C158 N159 1.330 . S
C158 C160 1.446 . S
N159 Co118 2.151 . S
N159 C158 1.330 . S
N159 C163 1.418 . S
C160 H139 0.929 . S
C160 C158 1.446 . S
C160 C161 1.332 . S
C161 H141 0.931 . S
C161 C160 1.332 . S
C161 C162 1.267 . S
C162 H130 0.929 . S
C162 C161 1.267 . S
C162 C163 1.251 . S
C163 H133 0.929 . S
C163 N159 1.418 . S
C163 C162 1.251 . S
C164 H131 0.930 . S
C164 C166 1.406 . S
C164 C169 1.261 . S
C165 H132 0.930 . S
C165 N167 1.325 . S
C165 C168 1.357 . S
C166 H134 0.928 . S
C166 C164 1.406 . S
C166 N167 1.261 . S
N167 Co118 2.214 . S
N167 C165 1.325 . S
N167 C166 1.261 . S
C168 H138 0.931 . S
C168 C165 1.357 . S
C168 C169 1.312 . S
C169 H140 0.930 . S
C169 C164 1.261 . S
C169 C168 1.312 . S
C170 O142 1.214 . S
C170 O150 1.234 . S
C171 H143 0.929 . S
C171 C174 1.391 . S
C171 C176 1.391 . S
C172 H144 0.929 . S
C172 C173 1.390 . S
C172 N175 1.391 . S
C173 H145 0.930 . S
C173 C172 1.390 . S
C173 C174 1.392 . S
C174 H146 0.929 . S
C174 C171 1.391 . S
C174 C173 1.392 . S
N175 Co119 2.257 . S
N175 C172 1.391 . S
N175 C176 1.388 . S
C176 H147 0.930 . S
C176 C171 1.391 . S
C176 N175 1.388 . S
Co177 O179 2.143 . S
Co177 O185 2.074 . S
Co177 O188 2.093 . S
Co177 O201 2.097 . S
Co177 N218 2.151 . S
Co177 N226 2.214 . S
Co178 O179 2.160 . S
Co178 O184 2.058 . S
Co178 O194 2.057 . S
Co178 O209 2.037 . S
Co178 N213 2.145 . S
Co178 N234 2.257 . S
O179 Co177 2.143 . S
O179 Co178 2.160 . S
C180 O181 1.278 . S
C180 O188 1.224 . S
O181 C180 1.278 . S
C182 O183 1.245 . S
C182 O194 1.232 . S
O183 C182 1.245 . S
O184 Co178 2.058 . S
O184 C210 1.269 . S
O185 Co177 2.074 . S
O185 C210 1.257 . S
H186 C211 0.930 . S
H187 C217 0.930 . S
O188 Co177 2.093 . S
O188 C180 1.224 . S
H189 C221 0.929 . S
H190 C223 0.930 . S
H191 C224 0.930 . S
H192 C222 0.929 . S
H193 C225 0.928 . S
O194 Co178 2.057 . S
O194 C182 1.232 . S
H195 C214 0.929 . S
H196 C215 0.929 . S
H197 C227 0.931 . S
H198 C219 0.929 . S
H199 C228 0.930 . S
H200 C220 0.931 . S
O201 Co177 2.097 . S
O201 C229 1.214 . S
H202 C230 0.929 . S
H203 C231 0.929 . S
H204 C232 0.930 . S
H205 C233 0.929 . S
H206 C235 0.930 . S
H207 C212 0.930 . S
H208 C216 0.930 . S
O209 Co178 2.037 . S
O209 C229 1.234 . S
C210 O184 1.269 . S
C210 O185 1.257 . S
C211 H186 0.930 . S
C211 C214 1.388 . S
C211 C216 1.418 . S
C212 H207 0.930 . S
C212 C215 1.404 . S
C212 C216 1.353 . S
N213 Co178 2.145 . S
N213 C214 1.397 . S
N213 C215 1.334 . S
C214 H195 0.929 . S
C214 C211 1.388 . S
C214 N213 1.397 . S
C215 H196 0.929 . S
C215 C212 1.404 . S
C215 N213 1.334 . S
C216 H208 0.930 . S
C216 C211 1.418 . S
C216 C212 1.353 . S
C217 H187 0.930 . S
C217 N218 1.330 . S
C217 C219 1.446 . S
N218 Co177 2.151 . S
N218 C217 1.330 . S
N218 C222 1.418 . S
C219 H198 0.929 . S
C219 C217 1.446 . S
C219 C220 1.332 . S
C220 H200 0.931 . S
C220 C219 1.332 . S
C220 C221 1.267 . S
C221 H189 0.929 . S
C221 C220 1.267 . S
C221 C222 1.251 . S
C222 H192 0.929 . S
C222 N218 1.418 . S
C222 C221 1.251 . S
C223 H190 0.930 . S
C223 C225 1.406 . S
C223 C228 1.261 . S
C224 H191 0.930 . S
C224 N226 1.325 . S
C224 C227 1.357 . S
C225 H193 0.928 . S
C225 C223 1.406 . S
C225 N226 1.261 . S
N226 Co177 2.214 . S
N226 C224 1.325 . S
N226 C225 1.261 . S
C227 H197 0.931 . S
C227 C224 1.357 . S
C227 C228 1.312 . S
C228 H199 0.930 . S
C228 C223 1.261 . S
C228 C227 1.312 . S
C229 O201 1.214 . S
C229 O209 1.234 . S
C230 H202 0.929 . S
C230 C233 1.391 . S
C230 C235 1.391 . S
C231 H203 0.929 . S
C231 C232 1.390 . S
C231 N234 1.391 . S
C232 H204 0.930 . S
C232 C231 1.390 . S
C232 C233 1.392 . S
C233 H205 0.929 . S
C233 C230 1.391 . S
C233 C232 1.392 . S
N234 Co178 2.257 . S
N234 C231 1.391 . S
N234 C235 1.388 . S
C235 H206 0.930 . S
C235 C230 1.391 . S
C235 N234 1.388 . S
Co236 O238 2.143 . S
Co236 O244 2.074 . S
Co236 O247 2.093 . S
Co236 O260 2.097 . S
Co236 N277 2.151 . S
Co236 N285 2.214 . S
Co237 O238 2.160 . S
Co237 O243 2.058 . S
Co237 O253 2.057 . S
Co237 O268 2.037 . S
Co237 N272 2.145 . S
Co237 N293 2.257 . S
O238 Co236 2.143 . S
O238 Co237 2.160 . S
C239 O240 1.278 . S
C239 O247 1.224 . S
O240 C239 1.278 . S
C241 O242 1.245 . S
C241 O253 1.232 . S
O242 C241 1.245 . S
O243 Co237 2.058 . S
O243 C269 1.269 . S
O244 Co236 2.074 . S
O244 C269 1.257 . S
H245 C270 0.930 . S
H246 C276 0.930 . S
O247 Co236 2.093 . S
O247 C239 1.224 . S
H248 C280 0.929 . S
H249 C282 0.930 . S
H250 C283 0.930 . S
H251 C281 0.929 . S
H252 C284 0.928 . S
O253 Co237 2.057 . S
O253 C241 1.232 . S
H254 C273 0.929 . S
H255 C274 0.929 . S
H256 C286 0.931 . S
H257 C278 0.929 . S
H258 C287 0.930 . S
H259 C279 0.931 . S
O260 Co236 2.097 . S
O260 C288 1.214 . S
H261 C289 0.929 . S
H262 C290 0.929 . S
H263 C291 0.930 . S
H264 C292 0.929 . S
H265 C294 0.930 . S
H266 C271 0.930 . S
H267 C275 0.930 . S
O268 Co237 2.037 . S
O268 C288 1.234 . S
C269 O243 1.269 . S
C269 O244 1.257 . S
C270 H245 0.930 . S
C270 C273 1.388 . S
C270 C275 1.418 . S
C271 H266 0.930 . S
C271 C274 1.404 . S
C271 C275 1.353 . S
N272 Co237 2.145 . S
N272 C273 1.397 . S
N272 C274 1.334 . S
C273 H254 0.929 . S
C273 C270 1.388 . S
C273 N272 1.397 . S
C274 H255 0.929 . S
C274 C271 1.404 . S
C274 N272 1.334 . S
C275 H267 0.930 . S
C275 C270 1.418 . S
C275 C271 1.353 . S
C276 H246 0.930 . S
C276 N277 1.330 . S
C276 C278 1.446 . S
N277 Co236 2.151 . S
N277 C276 1.330 . S
N277 C281 1.418 . S
C278 H257 0.929 . S
C278 C276 1.446 . S
C278 C279 1.332 . S
C279 H259 0.931 . S
C279 C278 1.332 . S
C279 C280 1.267 . S
C280 H248 0.929 . S
C280 C279 1.267 . S
C280 C281 1.251 . S
C281 H251 0.929 . S
C281 N277 1.418 . S
C281 C280 1.251 . S
C282 H249 0.930 . S
C282 C284 1.406 . S
C282 C287 1.261 . S
C283 H250 0.930 . S
C283 N285 1.325 . S
C283 C286 1.357 . S
C284 H252 0.928 . S
C284 C282 1.406 . S
C284 N285 1.261 . S
N285 Co236 2.214 . S
N285 C283 1.325 . S
N285 C284 1.261 . S
C286 H256 0.931 . S
C286 C283 1.357 . S
C286 C287 1.312 . S
C287 H258 0.930 . S
C287 C282 1.261 . S
C287 C286 1.312 . S
C288 O260 1.214 . S
C288 O268 1.234 . S
C289 H261 0.929 . S
C289 C292 1.391 . S
C289 C294 1.391 1_556 S
C290 H262 0.929 . S
C290 C291 1.390 1_554 S
C290 N293 1.391 . S
C291 H263 0.930 . S
C291 C290 1.390 1_556 S
C291 C292 1.392 . S
C292 H264 0.929 . S
C292 C289 1.391 . S
C292 C291 1.392 . S
N293 Co237 2.257 . S
N293 C290 1.391 . S
N293 C294 1.388 . S
C294 H265 0.930 . S
C294 C289 1.391 1_554 S
C294 N293 1.388 . S
Co295 O297 2.143 . S
Co295 O303 2.074 . S
Co295 O306 2.093 . S
Co295 O319 2.097 . S
Co295 N336 2.151 . S
Co295 N344 2.214 . S
Co296 O297 2.160 . S
Co296 O302 2.058 . S
Co296 O312 2.057 . S
Co296 O327 2.037 . S
Co296 N331 2.145 . S
Co296 N352 2.257 . S
O297 Co295 2.143 . S
O297 Co296 2.160 . S
C298 O299 1.278 . S
C298 O306 1.224 . S
O299 C298 1.278 . S
C300 O301 1.245 . S
C300 O312 1.232 . S
O301 C300 1.245 . S
O302 Co296 2.058 . S
O302 C328 1.269 . S
O303 Co295 2.074 . S
O303 C328 1.257 . S
H304 C329 0.930 . S
H305 C335 0.930 . S
O306 Co295 2.093 . S
O306 C298 1.224 . S
H307 C339 0.929 . S
H308 C341 0.930 . S
H309 C342 0.930 . S
H310 C340 0.929 . S
H311 C343 0.928 . S
O312 Co296 2.057 . S
O312 C300 1.232 . S
H313 C332 0.929 . S
H314 C333 0.929 . S
H315 C345 0.931 . S
H316 C337 0.929 . S
H317 C346 0.930 . S
H318 C338 0.931 . S
O319 Co295 2.097 . S
O319 C347 1.214 . S
H320 C348 0.929 . S
H321 C349 0.929 . S
H322 C350 0.930 . S
H323 C351 0.929 . S
H324 C353 0.930 . S
H325 C330 0.930 . S
H326 C334 0.930 . S
O327 Co296 2.037 . S
O327 C347 1.234 . S
C328 O302 1.269 . S
C328 O303 1.257 . S
C329 H304 0.930 . S
C329 C332 1.388 . S
C329 C334 1.418 . S
C330 H325 0.930 . S
C330 C333 1.404 . S
C330 C334 1.353 . S
N331 Co296 2.145 . S
N331 C332 1.397 . S
N331 C333 1.334 . S
C332 H313 0.929 . S
C332 C329 1.388 . S
C332 N331 1.397 . S
C333 H314 0.929 . S
C333 C330 1.404 . S
C333 N331 1.334 . S
C334 H326 0.930 . S
C334 C329 1.418 . S
C334 C330 1.353 . S
C335 H305 0.930 . S
C335 N336 1.330 . S
C335 C337 1.446 . S
N336 Co295 2.151 . S
N336 C335 1.330 . S
N336 C340 1.418 . S
C337 H316 0.929 . S
C337 C335 1.446 . S
C337 C338 1.332 . S
C338 H318 0.931 . S
C338 C337 1.332 . S
C338 C339 1.267 . S
C339 H307 0.929 . S
C339 C338 1.267 . S
C339 C340 1.251 . S
C340 H310 0.929 . S
C340 N336 1.418 . S
C340 C339 1.251 . S
C341 H308 0.930 . S
C341 C343 1.406 . S
C341 C346 1.261 . S
C342 H309 0.930 . S
C342 N344 1.325 . S
C342 C345 1.357 . S
C343 H311 0.928 . S
C343 C341 1.406 . S
C343 N344 1.261 . S
N344 Co295 2.214 . S
N344 C342 1.325 . S
N344 C343 1.261 . S
C345 H315 0.931 . S
C345 C342 1.357 . S
C345 C346 1.312 . S
C346 H317 0.930 . S
C346 C341 1.261 . S
C346 C345 1.312 . S
C347 O319 1.214 . S
C347 O327 1.234 . S
C348 H320 0.929 . S
C348 C351 1.391 . S
C348 C353 1.391 . S
C349 H321 0.929 . S
C349 C350 1.390 . S
C349 N352 1.391 . S
C350 H322 0.930 . S
C350 C349 1.390 . S
C350 C351 1.392 . S
C351 H323 0.929 . S
C351 C348 1.391 . S
C351 C350 1.392 . S
N352 Co296 2.257 . S
N352 C349 1.391 . S
N352 C353 1.388 . S
C353 H324 0.930 . S
C353 C348 1.391 . S
C353 N352 1.388 . S
Co354 O356 2.143 . S
Co354 O362 2.074 . S
Co354 O365 2.093 . S
Co354 O378 2.097 . S
Co354 N395 2.151 . S
Co354 N403 2.214 . S
Co355 O356 2.160 . S
Co355 O361 2.058 . S
Co355 O371 2.057 . S
Co355 O386 2.037 . S
Co355 N390 2.145 . S
Co355 N411 2.257 . S
O356 Co354 2.143 . S
O356 Co355 2.160 . S
C357 O358 1.278 . S
C357 O365 1.224 . S
O358 C357 1.278 . S
C359 O360 1.245 . S
C359 O371 1.232 . S
O360 C359 1.245 . S
O361 Co355 2.058 . S
O361 C387 1.269 . S
O362 Co354 2.074 . S
O362 C387 1.257 . S
H363 C388 0.930 . S
H364 C394 0.930 . S
O365 Co354 2.093 . S
O365 C357 1.224 . S
H366 C398 0.929 . S
H367 C400 0.930 . S
H368 C401 0.930 . S
H369 C399 0.929 . S
H370 C402 0.928 . S
O371 Co355 2.057 . S
O371 C359 1.232 . S
H372 C391 0.929 . S
H373 C392 0.929 . S
H374 C404 0.931 . S
H375 C396 0.929 . S
H376 C405 0.930 . S
H377 C397 0.931 . S
O378 Co354 2.097 . S
O378 C406 1.214 . S
H379 C407 0.929 . S
H380 C408 0.929 . S
H381 C409 0.930 . S
H382 C410 0.929 . S
H383 C412 0.930 . S
H384 C389 0.930 . S
H385 C393 0.930 . S
O386 Co355 2.037 . S
O386 C406 1.234 . S
C387 O361 1.269 . S
C387 O362 1.257 . S
C388 H363 0.930 . S
C388 C391 1.388 . S
C388 C393 1.418 . S
C389 H384 0.930 . S
C389 C392 1.404 . S
C389 C393 1.353 . S
N390 Co355 2.145 . S
N390 C391 1.397 . S
N390 C392 1.334 . S
C391 H372 0.929 . S
C391 C388 1.388 . S
C391 N390 1.397 . S
C392 H373 0.929 . S
C392 C389 1.404 . S
C392 N390 1.334 . S
C393 H385 0.930 . S
C393 C388 1.418 . S
C393 C389 1.353 . S
C394 H364 0.930 . S
C394 N395 1.330 . S
C394 C396 1.446 . S
N395 Co354 2.151 . S
N395 C394 1.330 . S
N395 C399 1.418 . S
C396 H375 0.929 . S
C396 C394 1.446 . S
C396 C397 1.332 . S
C397 H377 0.931 . S
C397 C396 1.332 . S
C397 C398 1.267 . S
C398 H366 0.929 . S
C398 C397 1.267 . S
C398 C399 1.251 . S
C399 H369 0.929 . S
C399 N395 1.418 . S
C399 C398 1.251 . S
C400 H367 0.930 . S
C400 C402 1.406 . S
C400 C405 1.261 . S
C401 H368 0.930 . S
C401 N403 1.325 . S
C401 C404 1.357 . S
C402 H370 0.928 . S
C402 C400 1.406 . S
C402 N403 1.261 . S
N403 Co354 2.214 . S
N403 C401 1.325 . S
N403 C402 1.261 . S
C404 H374 0.931 . S
C404 C401 1.357 . S
C404 C405 1.312 . S
C405 H376 0.930 . S
C405 C400 1.261 . S
C405 C404 1.312 . S
C406 O378 1.214 . S
C406 O386 1.234 . S
C407 H379 0.929 . S
C407 C410 1.391 . S
C407 C412 1.391 . S
C408 H380 0.929 . S
C408 C409 1.390 . S
C408 N411 1.391 . S
C409 H381 0.930 . S
C409 C408 1.390 . S
C409 C410 1.392 . S
C410 H382 0.929 . S
C410 C407 1.391 . S
C410 C409 1.392 . S
N411 Co355 2.257 . S
N411 C408 1.391 . S
N411 C412 1.388 . S
C412 H383 0.930 . S
C412 C407 1.391 . S
C412 N411 1.388 . S
Co413 O415 2.143 . S
Co413 O421 2.074 . S
Co413 O424 2.093 . S
Co413 O437 2.097 . S
Co413 N454 2.151 . S
Co413 N462 2.214 . S
Co414 O415 2.160 . S
Co414 O420 2.058 . S
Co414 O430 2.057 . S
Co414 O445 2.037 . S
Co414 N449 2.145 . S
Co414 N470 2.257 . S
O415 Co413 2.143 . S
O415 Co414 2.160 . S
C416 O417 1.278 . S
C416 O424 1.224 . S
O417 C416 1.278 . S
C418 O419 1.245 . S
C418 O430 1.232 . S
O419 C418 1.245 . S
O420 Co414 2.058 . S
O420 C446 1.269 . S
O421 Co413 2.074 . S
O421 C446 1.257 . S
H422 C447 0.930 . S
H423 C453 0.930 . S
O424 Co413 2.093 . S
O424 C416 1.224 . S
H425 C457 0.929 . S
H426 C459 0.930 . S
H427 C460 0.930 . S
H428 C458 0.929 . S
H429 C461 0.928 . S
O430 Co414 2.057 . S
O430 C418 1.232 . S
H431 C450 0.929 . S
H432 C451 0.929 . S
H433 C463 0.931 . S
H434 C455 0.929 . S
H435 C464 0.930 . S
H436 C456 0.931 . S
O437 Co413 2.097 . S
O437 C465 1.214 . S
H438 C466 0.929 . S
H439 C467 0.929 . S
H440 C468 0.930 . S
H441 C469 0.929 . S
H442 C471 0.930 . S
H443 C448 0.930 . S
H444 C452 0.930 . S
O445 Co414 2.037 . S
O445 C465 1.234 . S
C446 O420 1.269 . S
C446 O421 1.257 . S
C447 H422 0.930 . S
C447 C450 1.388 . S
C447 C452 1.418 . S
C448 H443 0.930 . S
C448 C451 1.404 . S
C448 C452 1.353 . S
N449 Co414 2.145 . S
N449 C450 1.397 . S
N449 C451 1.334 . S
C450 H431 0.929 . S
C450 C447 1.388 . S
C450 N449 1.397 . S
C451 H432 0.929 . S
C451 C448 1.404 . S
C451 N449 1.334 . S
C452 H444 0.930 . S
C452 C447 1.418 . S
C452 C448 1.353 . S
C453 H423 0.930 . S
C453 N454 1.330 . S
C453 C455 1.446 . S
N454 Co413 2.151 . S
N454 C453 1.330 . S
N454 C458 1.418 . S
C455 H434 0.929 . S
C455 C453 1.446 . S
C455 C456 1.332 . S
C456 H436 0.931 . S
C456 C455 1.332 . S
C456 C457 1.267 . S
C457 H425 0.929 . S
C457 C456 1.267 . S
C457 C458 1.251 . S
C458 H428 0.929 . S
C458 N454 1.418 . S
C458 C457 1.251 . S
C459 H426 0.930 . S
C459 C461 1.406 . S
C459 C464 1.261 . S
C460 H427 0.930 . S
C460 N462 1.325 . S
C460 C463 1.357 . S
C461 H429 0.928 . S
C461 C459 1.406 . S
C461 N462 1.261 . S
N462 Co413 2.214 . S
N462 C460 1.325 . S
N462 C461 1.261 . S
C463 H433 0.931 . S
C463 C460 1.357 . S
C463 C464 1.312 . S
C464 H435 0.930 . S
C464 C459 1.261 . S
C464 C463 1.312 . S
C465 O437 1.214 . S
C465 O445 1.234 . S
C466 H438 0.929 . S
C466 C469 1.391 . S
C466 C471 1.391 . S
C467 H439 0.929 . S
C467 C468 1.390 . S
C467 N470 1.391 . S
C468 H440 0.930 . S
C468 C467 1.390 . S
C468 C469 1.392 . S
C469 H441 0.929 . S
C469 C466 1.391 . S
C469 C468 1.392 . S
N470 Co414 2.257 . S
N470 C467 1.391 . S
N470 C471 1.388 . S
C471 H442 0.930 . S
C471 C466 1.391 . S
C471 N470 1.388 . S
Co472 O474 2.143 . S
Co472 O480 2.074 . S
Co472 O483 2.093 . S
Co472 O496 2.097 . S
Co472 N513 2.151 . S
Co472 N521 2.214 . S
Co473 O474 2.160 . S
Co473 O479 2.058 . S
Co473 O489 2.057 . S
Co473 O504 2.037 . S
Co473 N508 2.145 . S
Co473 N529 2.257 . S
O474 Co472 2.143 . S
O474 Co473 2.160 . S
C475 O476 1.278 . S
C475 O483 1.224 . S
O476 C475 1.278 . S
C477 O478 1.245 . S
C477 O489 1.232 . S
O478 C477 1.245 . S
O479 Co473 2.058 . S
O479 C505 1.269 . S
O480 Co472 2.074 . S
O480 C505 1.257 . S
H481 C506 0.930 . S
H482 C512 0.930 . S
O483 Co472 2.093 . S
O483 C475 1.224 . S
H484 C516 0.929 . S
H485 C518 0.930 . S
H486 C519 0.930 . S
H487 C517 0.929 . S
H488 C520 0.928 . S
O489 Co473 2.057 . S
O489 C477 1.232 . S
H490 C509 0.929 . S
H491 C510 0.929 . S
H492 C522 0.931 . S
H493 C514 0.929 . S
H494 C523 0.930 . S
H495 C515 0.931 . S
O496 Co472 2.097 . S
O496 C524 1.214 . S
H497 C525 0.929 . S
H498 C526 0.929 . S
H499 C527 0.930 . S
H500 C528 0.929 . S
H501 C530 0.930 . S
H502 C507 0.930 . S
H503 C511 0.930 . S
O504 Co473 2.037 . S
O504 C524 1.234 . S
C505 O479 1.269 . S
C505 O480 1.257 . S
C506 H481 0.930 . S
C506 C509 1.388 . S
C506 C511 1.418 . S
C507 H502 0.930 . S
C507 C510 1.404 . S
C507 C511 1.353 . S
N508 Co473 2.145 . S
N508 C509 1.397 . S
N508 C510 1.334 . S
C509 H490 0.929 . S
C509 C506 1.388 . S
C509 N508 1.397 . S
C510 H491 0.929 . S
C510 C507 1.404 . S
C510 N508 1.334 . S
C511 H503 0.930 . S
C511 C506 1.418 . S
C511 C507 1.353 . S
C512 H482 0.930 . S
C512 N513 1.330 . S
C512 C514 1.446 . S
N513 Co472 2.151 . S
N513 C512 1.330 . S
N513 C517 1.418 . S
C514 H493 0.929 . S
C514 C512 1.446 . S
C514 C515 1.332 . S
C515 H495 0.931 . S
C515 C514 1.332 . S
C515 C516 1.267 . S
C516 H484 0.929 . S
C516 C515 1.267 . S
C516 C517 1.251 . S
C517 H487 0.929 . S
C517 N513 1.418 . S
C517 C516 1.251 . S
C518 H485 0.930 . S
C518 C520 1.406 . S
C518 C523 1.261 . S
C519 H486 0.930 . S
C519 N521 1.325 . S
C519 C522 1.357 . S
C520 H488 0.928 . S
C520 C518 1.406 . S
C520 N521 1.261 . S
N521 Co472 2.214 . S
N521 C519 1.325 . S
N521 C520 1.261 . S
C522 H492 0.931 . S
C522 C519 1.357 . S
C522 C523 1.312 . S
C523 H494 0.930 . S
C523 C518 1.261 . S
C523 C522 1.312 . S
C524 O496 1.214 . S
C524 O504 1.234 . S
C525 H497 0.929 . S
C525 C528 1.391 . S
C525 C530 1.391 . S
C526 H498 0.929 . S
C526 C527 1.390 . S
C526 N529 1.391 . S
C527 H499 0.930 . S
C527 C526 1.390 . S
C527 C528 1.392 . S
C528 H500 0.929 . S
C528 C525 1.391 . S
C528 C527 1.392 . S
N529 Co473 2.257 . S
N529 C526 1.391 . S
N529 C530 1.388 . S
C530 H501 0.930 . S
C530 C525 1.391 . S
C530 N529 1.388 . S
Co531 O533 2.143 . S
Co531 O539 2.074 . S
Co531 O542 2.093 . S
Co531 O555 2.097 . S
Co531 N572 2.151 . S
Co531 N580 2.214 . S
Co532 O533 2.160 . S
Co532 O538 2.058 . S
Co532 O548 2.057 . S
Co532 O563 2.037 . S
Co532 N567 2.145 . S
Co532 N588 2.257 . S
O533 Co531 2.143 . S
O533 Co532 2.160 . S
C534 O535 1.278 . S
C534 O542 1.224 . S
O535 C534 1.278 . S
C536 O537 1.245 . S
C536 O548 1.232 . S
O537 C536 1.245 . S
O538 Co532 2.058 . S
O538 C564 1.269 . S
O539 Co531 2.074 . S
O539 C564 1.257 . S
H540 C565 0.930 . S
H541 C571 0.930 . S
O542 Co531 2.093 . S
O542 C534 1.224 . S
H543 C575 0.929 . S
H544 C577 0.930 . S
H545 C578 0.930 . S
H546 C576 0.929 . S
H547 C579 0.928 . S
O548 Co532 2.057 . S
O548 C536 1.232 . S
H549 C568 0.929 . S
H550 C569 0.929 . S
H551 C581 0.931 . S
H552 C573 0.929 . S
H553 C582 0.930 . S
H554 C574 0.931 . S
O555 Co531 2.097 . S
O555 C583 1.214 . S
H556 C584 0.929 . S
H557 C585 0.929 . S
H558 C586 0.930 . S
H559 C587 0.929 . S
H560 C589 0.930 . S
H561 C566 0.930 . S
H562 C570 0.930 . S
O563 Co532 2.037 . S
O563 C583 1.234 . S
C564 O538 1.269 . S
C564 O539 1.257 . S
C565 H540 0.930 . S
C565 C568 1.388 . S
C565 C570 1.418 . S
C566 H561 0.930 . S
C566 C569 1.404 . S
C566 C570 1.353 . S
N567 Co532 2.145 . S
N567 C568 1.397 . S
N567 C569 1.334 . S
C568 H549 0.929 . S
C568 C565 1.388 . S
C568 N567 1.397 . S
C569 H550 0.929 . S
C569 C566 1.404 . S
C569 N567 1.334 . S
C570 H562 0.930 . S
C570 C565 1.418 . S
C570 C566 1.353 . S
C571 H541 0.930 . S
C571 N572 1.330 . S
C571 C573 1.446 . S
N572 Co531 2.151 . S
N572 C571 1.330 . S
N572 C576 1.418 . S
C573 H552 0.929 . S
C573 C571 1.446 . S
C573 C574 1.332 . S
C574 H554 0.931 . S
C574 C573 1.332 . S
C574 C575 1.267 . S
C575 H543 0.929 . S
C575 C574 1.267 . S
C575 C576 1.251 . S
C576 H546 0.929 . S
C576 N572 1.418 . S
C576 C575 1.251 . S
C577 H544 0.930 . S
C577 C579 1.406 . S
C577 C582 1.261 . S
C578 H545 0.930 . S
C578 N580 1.325 . S
C578 C581 1.357 . S
C579 H547 0.928 . S
C579 C577 1.406 . S
C579 N580 1.261 . S
N580 Co531 2.214 . S
N580 C578 1.325 . S
N580 C579 1.261 . S
C581 H551 0.931 . S
C581 C578 1.357 . S
C581 C582 1.312 . S
C582 H553 0.930 . S
C582 C577 1.261 . S
C582 C581 1.312 . S
C583 O555 1.214 . S
C583 O563 1.234 . S
C584 H556 0.929 . S
C584 C587 1.391 . S
C584 C589 1.391 1_554 S
C585 H557 0.929 . S
C585 C586 1.390 1_556 S
C585 N588 1.391 . S
C586 H558 0.930 . S
C586 C585 1.390 1_554 S
C586 C587 1.392 . S
C587 H559 0.929 . S
C587 C584 1.391 . S
C587 C586 1.392 . S
N588 Co532 2.257 . S
N588 C585 1.391 . S
N588 C589 1.388 . S
C589 H560 0.930 . S
C589 C584 1.391 1_556 S
C589 N588 1.388 . S
Co590 O592 2.143 . S
Co590 O598 2.074 . S
Co590 O601 2.093 . S
Co590 O614 2.097 . S
Co590 N631 2.151 . S
Co590 N639 2.214 . S
Co591 O592 2.160 . S
Co591 O597 2.058 . S
Co591 O607 2.057 . S
Co591 O622 2.037 . S
Co591 N626 2.145 . S
Co591 N647 2.257 . S
O592 Co590 2.143 . S
O592 Co591 2.160 . S
C593 O594 1.278 . S
C593 O601 1.224 . S
O594 C593 1.278 . S
C595 O596 1.245 . S
C595 O607 1.232 . S
O596 C595 1.245 . S
O597 Co591 2.058 . S
O597 C623 1.269 . S
O598 Co590 2.074 . S
O598 C623 1.257 . S
H599 C624 0.930 . S
H600 C630 0.930 . S
O601 Co590 2.093 . S
O601 C593 1.224 . S
H602 C634 0.929 . S
H603 C636 0.930 . S
H604 C637 0.930 . S
H605 C635 0.929 . S
H606 C638 0.928 . S
O607 Co591 2.057 . S
O607 C595 1.232 . S
H608 C627 0.929 . S
H609 C628 0.929 . S
H610 C640 0.931 . S
H611 C632 0.929 . S
H612 C641 0.930 . S
H613 C633 0.931 . S
O614 Co590 2.097 . S
O614 C642 1.214 . S
H615 C643 0.929 . S
H616 C644 0.929 . S
H617 C645 0.930 . S
H618 C646 0.929 . S
H619 C648 0.930 . S
H620 C625 0.930 . S
H621 C629 0.930 . S
O622 Co591 2.037 . S
O622 C642 1.234 . S
C623 O597 1.269 . S
C623 O598 1.257 . S
C624 H599 0.930 . S
C624 C627 1.388 . S
C624 C629 1.418 . S
C625 H620 0.930 . S
C625 C628 1.404 . S
C625 C629 1.353 . S
N626 Co591 2.145 . S
N626 C627 1.397 . S
N626 C628 1.334 . S
C627 H608 0.929 . S
C627 C624 1.388 . S
C627 N626 1.397 . S
C628 H609 0.929 . S
C628 C625 1.404 . S
C628 N626 1.334 . S
C629 H621 0.930 . S
C629 C624 1.418 . S
C629 C625 1.353 . S
C630 H600 0.930 . S
C630 N631 1.330 . S
C630 C632 1.446 . S
N631 Co590 2.151 . S
N631 C630 1.330 . S
N631 C635 1.418 . S
C632 H611 0.929 . S
C632 C630 1.446 . S
C632 C633 1.332 . S
C633 H613 0.931 . S
C633 C632 1.332 . S
C633 C634 1.267 . S
C634 H602 0.929 . S
C634 C633 1.267 . S
C634 C635 1.251 . S
C635 H605 0.929 . S
C635 N631 1.418 . S
C635 C634 1.251 . S
C636 H603 0.930 . S
C636 C638 1.406 . S
C636 C641 1.261 . S
C637 H604 0.930 . S
C637 N639 1.325 . S
C637 C640 1.357 . S
C638 H606 0.928 . S
C638 C636 1.406 . S
C638 N639 1.261 . S
N639 Co590 2.214 . S
N639 C637 1.325 . S
N639 C638 1.261 . S
C640 H610 0.931 . S
C640 C637 1.357 . S
C640 C641 1.312 . S
C641 H612 0.930 . S
C641 C636 1.261 . S
C641 C640 1.312 . S
C642 O614 1.214 . S
C642 O622 1.234 . S
C643 H615 0.929 . S
C643 C646 1.391 . S
C643 C648 1.391 . S
C644 H616 0.929 . S
C644 C645 1.390 . S
C644 N647 1.391 . S
C645 H617 0.930 . S
C645 C644 1.390 . S
C645 C646 1.392 . S
C646 H618 0.929 . S
C646 C643 1.391 . S
C646 C645 1.392 . S
N647 Co591 2.257 . S
N647 C644 1.391 . S
N647 C648 1.388 . S
C648 H619 0.930 . S
C648 C643 1.391 . S
C648 N647 1.388 . S
Co649 O651 2.143 . S
Co649 O657 2.074 . S
Co649 O660 2.093 . S
Co649 O673 2.097 . S
Co649 N690 2.151 . S
Co649 N698 2.214 . S
Co650 O651 2.160 . S
Co650 O656 2.058 . S
Co650 O666 2.057 . S
Co650 O681 2.037 . S
Co650 N685 2.145 . S
Co650 N706 2.257 . S
O651 Co649 2.143 . S
O651 Co650 2.160 . S
C652 O653 1.278 . S
C652 O660 1.224 . S
O653 C652 1.278 . S
C654 O655 1.245 . S
C654 O666 1.232 . S
O655 C654 1.245 . S
O656 Co650 2.058 . S
O656 C682 1.269 . S
O657 Co649 2.074 . S
O657 C682 1.257 . S
H658 C683 0.930 . S
H659 C689 0.930 . S
O660 Co649 2.093 . S
O660 C652 1.224 . S
H661 C693 0.929 . S
H662 C695 0.930 . S
H663 C696 0.930 . S
H664 C694 0.929 . S
H665 C697 0.928 . S
O666 Co650 2.057 . S
O666 C654 1.232 . S
H667 C686 0.929 . S
H668 C687 0.929 . S
H669 C699 0.931 . S
H670 C691 0.929 . S
H671 C700 0.930 . S
H672 C692 0.931 . S
O673 Co649 2.097 . S
O673 C701 1.214 . S
H674 C702 0.929 . S
H675 C703 0.929 . S
H676 C704 0.930 . S
H677 C705 0.929 . S
H678 C707 0.930 . S
H679 C684 0.930 . S
H680 C688 0.930 . S
O681 Co650 2.037 . S
O681 C701 1.234 . S
C682 O656 1.269 . S
C682 O657 1.257 . S
C683 H658 0.930 . S
C683 C686 1.388 . S
C683 C688 1.418 . S
C684 H679 0.930 . S
C684 C687 1.404 . S
C684 C688 1.353 . S
N685 Co650 2.145 . S
N685 C686 1.397 . S
N685 C687 1.334 . S
C686 H667 0.929 . S
C686 C683 1.388 . S
C686 N685 1.397 . S
C687 H668 0.929 . S
C687 C684 1.404 . S
C687 N685 1.334 . S
C688 H680 0.930 . S
C688 C683 1.418 . S
C688 C684 1.353 . S
C689 H659 0.930 . S
C689 N690 1.330 . S
C689 C691 1.446 . S
N690 Co649 2.151 . S
N690 C689 1.330 . S
N690 C694 1.418 . S
C691 H670 0.929 . S
C691 C689 1.446 . S
C691 C692 1.332 . S
C692 H672 0.931 . S
C692 C691 1.332 . S
C692 C693 1.267 . S
C693 H661 0.929 . S
C693 C692 1.267 . S
C693 C694 1.251 . S
C694 H664 0.929 . S
C694 N690 1.418 . S
C694 C693 1.251 . S
C695 H662 0.930 . S
C695 C697 1.406 . S
C695 C700 1.261 . S
C696 H663 0.930 . S
C696 N698 1.325 . S
C696 C699 1.357 . S
C697 H665 0.928 . S
C697 C695 1.406 . S
C697 N698 1.261 . S
N698 Co649 2.214 . S
N698 C696 1.325 . S
N698 C697 1.261 . S
C699 H669 0.931 . S
C699 C696 1.357 . S
C699 C700 1.312 . S
C700 H671 0.930 . S
C700 C695 1.261 . S
C700 C699 1.312 . S
C701 O673 1.214 . S
C701 O681 1.234 . S
C702 H674 0.929 . S
C702 C705 1.391 . S
C702 C707 1.391 . S
C703 H675 0.929 . S
C703 C704 1.390 . S
C703 N706 1.391 . S
C704 H676 0.930 . S
C704 C703 1.390 . S
C704 C705 1.392 . S
C705 H677 0.929 . S
C705 C702 1.391 . S
C705 C704 1.392 . S
N706 Co650 2.257 . S
N706 C703 1.391 . S
N706 C707 1.388 . S
C707 H678 0.930 . S
C707 C702 1.391 . S
C707 N706 1.388 . S
C708 C709 1.349 . S
C708 C710 1.327 . S
C708 H733 0.950 . S
C709 C708 1.349 . S
C709 C725 1.349 . S
C710 C708 1.327 . S
C710 C729 1.429 . S
C710 H734 0.950 . S
C711 C728 1.574 . S
C711 C730 1.368 . S
C711 H735 0.949 . S
H712 C716 0.949 . S
C713 C714 1.349 . S
C713 C715 1.327 . S
C713 H736 0.950 . S
C714 C713 1.349 . S
C714 C726 1.349 . S
C715 C713 1.327 . S
C715 C731 1.429 . S
C715 H737 0.950 . S
C716 H712 0.949 . S
C716 C724 1.574 . S
C716 C732 1.368 . S
H717 C725 0.950 . S
H718 C723 0.950 . S
H719 C724 0.949 . S
H720 C726 0.950 . S
H721 C727 0.950 . S
H722 C728 0.949 . S
C723 H718 0.950 . S
C723 C725 1.327 . S
C723 C729 1.429 . S
C724 C716 1.574 . S
C724 H719 0.949 . S
C724 C730 1.368 . S
C725 C709 1.349 . S
C725 H717 0.950 . S
C725 C723 1.327 . S
C726 C714 1.349 . S
C726 H720 0.950 . S
C726 C727 1.327 . S
C727 H721 0.950 . S
C727 C726 1.327 . S
C727 C731 1.429 . S
C728 C711 1.574 . S
C728 H722 0.949 . S
C728 C732 1.368 . S
C729 C710 1.429 . S
C729 C723 1.429 . S
C729 C730 1.523 . S
C730 C711 1.368 . S
C730 C724 1.368 . S
C730 C729 1.523 . S
C731 C715 1.429 . S
C731 C727 1.429 . S
C731 C732 1.523 . S
C732 C716 1.368 . S
C732 C728 1.368 . S
C732 C731 1.523 . S
H733 C708 0.950 . S
H734 C710 0.950 . S
H735 C711 0.949 . S
H736 C713 0.950 . S
H737 C715 0.950 . S
C738 C739 1.349 . S
C738 C740 1.327 . S
C738 H763 0.950 . S
C739 C738 1.349 . S
C739 C755 1.349 . S
C740 C738 1.327 . S
C740 C759 1.429 . S
C740 H764 0.950 . S
C741 C758 1.574 . S
C741 C760 1.368 . S
C741 H765 0.949 . S
H742 C746 0.949 . S
C743 C744 1.349 . S
C743 C745 1.327 . S
C743 H766 0.950 . S
C744 C743 1.349 . S
C744 C756 1.349 . S
C745 C743 1.327 . S
C745 C761 1.429 . S
C745 H767 0.950 . S
C746 H742 0.949 . S
C746 C754 1.574 . S
C746 C762 1.368 . S
H747 C755 0.950 . S
H748 C753 0.950 . S
H749 C754 0.949 . S
H750 C756 0.950 . S
H751 C757 0.950 . S
H752 C758 0.949 . S
C753 H748 0.950 . S
C753 C755 1.327 . S
C753 C759 1.429 . S
C754 C746 1.574 . S
C754 H749 0.949 . S
C754 C760 1.368 . S
C755 C739 1.349 . S
C755 H747 0.950 . S
C755 C753 1.327 . S
C756 C744 1.349 . S
C756 H750 0.950 . S
C756 C757 1.327 . S
C757 H751 0.950 . S
C757 C756 1.327 . S
C757 C761 1.429 . S
C758 C741 1.574 . S
C758 H752 0.949 . S
C758 C762 1.368 . S
C759 C740 1.429 . S
C759 C753 1.429 . S
C759 C760 1.523 . S
C760 C741 1.368 . S
C760 C754 1.368 . S
C760 C759 1.523 . S
C761 C745 1.429 . S
C761 C757 1.429 . S
C761 C762 1.523 . S
C762 C746 1.368 . S
C762 C758 1.368 . S
C762 C761 1.523 . S
H763 C738 0.950 . S
H764 C740 0.950 . S
H765 C741 0.949 . S
H766 C743 0.950 . S
H767 C745 0.950 . S
C768 C769 1.349 . S
C768 C770 1.327 . S
C768 H793 0.950 . S
C769 C768 1.349 . S
C769 C785 1.349 . S
C770 C768 1.327 . S
C770 C789 1.429 . S
C770 H794 0.950 . S
C771 C788 1.574 . S
C771 C790 1.368 . S
C771 H795 0.949 . S
H772 C776 0.949 . S
C773 C774 1.349 . S
C773 C775 1.327 . S
C773 H796 0.950 . S
C774 C773 1.349 . S
C774 C786 1.349 . S
C775 C773 1.327 . S
C775 C791 1.429 . S
C775 H797 0.950 . S
C776 H772 0.949 . S
C776 C784 1.574 . S
C776 C792 1.368 . S
H777 C785 0.950 . S
H778 C783 0.950 . S
H779 C784 0.949 . S
H780 C786 0.950 . S
H781 C787 0.950 . S
H782 C788 0.949 . S
C783 H778 0.950 . S
C783 C785 1.327 . S
C783 C789 1.429 . S
C784 C776 1.574 . S
C784 H779 0.949 . S
C784 C790 1.368 . S
C785 C769 1.349 . S
C785 H777 0.950 . S
C785 C783 1.327 . S
C786 C774 1.349 . S
C786 H780 0.950 . S
C786 C787 1.327 . S
C787 H781 0.950 . S
C787 C786 1.327 . S
C787 C791 1.429 . S
C788 C771 1.574 . S
C788 H782 0.949 . S
C788 C792 1.368 . S
C789 C770 1.429 . S
C789 C783 1.429 . S
C789 C790 1.523 . S
C790 C771 1.368 . S
C790 C784 1.368 . S
C790 C789 1.523 . S
C791 C775 1.429 . S
C791 C787 1.429 . S
C791 C792 1.523 . S
C792 C776 1.368 . S
C792 C788 1.368 . S
C792 C791 1.523 . S
H793 C768 0.950 . S
H794 C770 0.950 . S
H795 C771 0.949 . S
H796 C773 0.950 . S
H797 C775 0.950 . S
C798 C799 1.349 . S
C798 C800 1.327 . S
C798 H823 0.950 . S
C799 C798 1.349 . S
C799 C815 1.349 . S
C800 C798 1.327 . S
C800 C819 1.429 . S
C800 H824 0.950 . S
C801 C818 1.574 . S
C801 C820 1.368 . S
C801 H825 0.949 . S
H802 C806 0.949 . S
C803 C804 1.349 . S
C803 C805 1.327 . S
C803 H826 0.950 . S
C804 C803 1.349 . S
C804 C816 1.349 . S
C805 C803 1.327 . S
C805 C821 1.429 . S
C805 H827 0.950 . S
C806 H802 0.949 . S
C806 C814 1.574 . S
C806 C822 1.368 . S
H807 C815 0.950 . S
H808 C813 0.950 . S
H809 C814 0.949 . S
H810 C816 0.950 . S
H811 C817 0.950 . S
H812 C818 0.949 . S
C813 H808 0.950 . S
C813 C815 1.327 . S
C813 C819 1.429 . S
C814 C806 1.574 . S
C814 H809 0.949 . S
C814 C820 1.368 . S
C815 C799 1.349 . S
C815 H807 0.950 . S
C815 C813 1.327 . S
C816 C804 1.349 . S
C816 H810 0.950 . S
C816 C817 1.327 . S
C817 H811 0.950 . S
C817 C816 1.327 . S
C817 C821 1.429 . S
C818 C801 1.574 . S
C818 H812 0.949 . S
C818 C822 1.368 . S
C819 C800 1.429 . S
C819 C813 1.429 . S
C819 C820 1.523 . S
C820 C801 1.368 . S
C820 C814 1.368 . S
C820 C819 1.523 . S
C821 C805 1.429 . S
C821 C817 1.429 . S
C821 C822 1.523 . S
C822 C806 1.368 . S
C822 C818 1.368 . S
C822 C821 1.523 . S
H823 C798 0.950 . S
H824 C800 0.950 . S
H825 C801 0.949 . S
H826 C803 0.950 . S
H827 C805 0.950 . S
C828 C829 1.349 . S
C828 C830 1.327 . S
C828 H853 0.950 . S
C829 C828 1.349 . S
C829 C845 1.349 . S
C830 C828 1.327 . S
C830 C849 1.429 . S
C830 H854 0.950 . S
C831 C848 1.574 . S
C831 C850 1.368 . S
C831 H855 0.949 . S
H832 C836 0.949 . S
C833 C834 1.349 . S
C833 C835 1.327 . S
C833 H856 0.950 . S
C834 C833 1.349 . S
C834 C846 1.349 . S
C835 C833 1.327 . S
C835 C851 1.429 . S
C835 H857 0.950 . S
C836 H832 0.949 . S
C836 C844 1.574 . S
C836 C852 1.368 . S
H837 C845 0.950 . S
H838 C843 0.950 . S
H839 C844 0.949 . S
H840 C846 0.950 . S
H841 C847 0.950 . S
H842 C848 0.949 . S
C843 H838 0.950 . S
C843 C845 1.327 . S
C843 C849 1.429 . S
C844 C836 1.574 . S
C844 H839 0.949 . S
C844 C850 1.368 . S
C845 C829 1.349 . S
C845 H837 0.950 . S
C845 C843 1.327 . S
C846 C834 1.349 . S
C846 H840 0.950 . S
C846 C847 1.327 . S
C847 H841 0.950 . S
C847 C846 1.327 . S
C847 C851 1.429 . S
C848 C831 1.574 . S
C848 H842 0.949 . S
C848 C852 1.368 . S
C849 C830 1.429 . S
C849 C843 1.429 . S
C849 C850 1.523 . S
C850 C831 1.368 . S
C850 C844 1.368 . S
C850 C849 1.523 . S
C851 C835 1.429 . S
C851 C847 1.429 . S
C851 C852 1.523 . S
C852 C836 1.368 . S
C852 C848 1.368 . S
C852 C851 1.523 . S
H853 C828 0.950 . S
H854 C830 0.950 . S
H855 C831 0.949 . S
H856 C833 0.950 . S
H857 C835 0.950 . S
C858 C859 1.349 . S
C858 C860 1.327 . S
C858 H883 0.950 . S
C859 C858 1.349 . S
C859 C875 1.349 . S
C860 C858 1.327 . S
C860 C879 1.429 . S
C860 H884 0.950 . S
C861 C878 1.574 . S
C861 C880 1.368 . S
C861 H885 0.949 . S
H862 C866 0.949 . S
C863 C864 1.349 . S
C863 C865 1.327 . S
C863 H886 0.950 . S
C864 C863 1.349 . S
C864 C876 1.349 . S
C865 C863 1.327 . S
C865 C881 1.429 . S
C865 H887 0.950 . S
C866 H862 0.949 . S
C866 C874 1.574 . S
C866 C882 1.368 . S
H867 C875 0.950 . S
H868 C873 0.950 . S
H869 C874 0.949 . S
H870 C876 0.950 . S
H871 C877 0.950 . S
H872 C878 0.949 . S
C873 H868 0.950 . S
C873 C875 1.327 . S
C873 C879 1.429 . S
C874 C866 1.574 . S
C874 H869 0.949 . S
C874 C880 1.368 . S
C875 C859 1.349 . S
C875 H867 0.950 . S
C875 C873 1.327 . S
C876 C864 1.349 . S
C876 H870 0.950 . S
C876 C877 1.327 . S
C877 H871 0.950 . S
C877 C876 1.327 . S
C877 C881 1.429 . S
C878 C861 1.574 . S
C878 H872 0.949 . S
C878 C882 1.368 . S
C879 C860 1.429 . S
C879 C873 1.429 . S
C879 C880 1.523 . S
C880 C861 1.368 . S
C880 C874 1.368 . S
C880 C879 1.523 . S
C881 C865 1.429 . S
C881 C877 1.429 . S
C881 C882 1.523 . S
C882 C866 1.368 . S
C882 C878 1.368 . S
C882 C881 1.523 . S
H883 C858 0.950 . S
H884 C860 0.950 . S
H885 C861 0.949 . S
H886 C863 0.950 . S
H887 C865 0.950 . S
C888 C889 1.349 . S
C888 C890 1.327 . S
C888 H913 0.950 . S
C889 C888 1.349 . S
C889 C905 1.349 . S
C890 C888 1.327 . S
C890 C909 1.429 . S
C890 H914 0.950 . S
C891 C908 1.574 . S
C891 C910 1.368 . S
C891 H915 0.949 . S
H892 C896 0.949 . S
C893 C894 1.349 . S
C893 C895 1.327 . S
C893 H916 0.950 . S
C894 C893 1.349 . S
C894 C906 1.349 . S
C895 C893 1.327 . S
C895 C911 1.429 . S
C895 H917 0.950 . S
C896 H892 0.949 . S
C896 C904 1.574 . S
C896 C912 1.368 . S
H897 C905 0.950 . S
H898 C903 0.950 . S
H899 C904 0.949 . S
H900 C906 0.950 . S
H901 C907 0.950 . S
H902 C908 0.949 . S
C903 H898 0.950 . S
C903 C905 1.327 . S
C903 C909 1.429 . S
C904 C896 1.574 . S
C904 H899 0.949 . S
C904 C910 1.368 . S
C905 C889 1.349 . S
C905 H897 0.950 . S
C905 C903 1.327 . S
C906 C894 1.349 . S
C906 H900 0.950 . S
C906 C907 1.327 . S
C907 H901 0.950 . S
C907 C906 1.327 . S
C907 C911 1.429 . S
C908 C891 1.574 . S
C908 H902 0.949 . S
C908 C912 1.368 . S
C909 C890 1.429 . S
C909 C903 1.429 . S
C909 C910 1.523 . S
C910 C891 1.368 . S
C910 C904 1.368 . S
C910 C909 1.523 . S
C911 C895 1.429 . S
C911 C907 1.429 . S
C911 C912 1.523 . S
C912 C896 1.368 . S
C912 C908 1.368 . S
C912 C911 1.523 . S
H913 C888 0.950 . S
H914 C890 0.950 . S
H915 C891 0.949 . S
H916 C893 0.950 . S
H917 C895 0.950 . S
C918 C919 1.349 . S
C918 C920 1.327 . S
C918 H943 0.950 . S
C919 C918 1.349 . S
C919 C935 1.349 . S
C920 C918 1.327 . S
C920 C939 1.429 . S
C920 H944 0.950 . S
C921 C938 1.574 . S
C921 C940 1.368 . S
C921 H945 0.949 . S
H922 C926 0.949 . S
C923 C924 1.349 . S
C923 C925 1.327 . S
C923 H946 0.950 . S
C924 C923 1.349 . S
C924 C936 1.349 . S
C925 C923 1.327 . S
C925 C941 1.429 . S
C925 H947 0.950 . S
C926 H922 0.949 . S
C926 C934 1.574 . S
C926 C942 1.368 . S
H927 C935 0.950 . S
H928 C933 0.950 . S
H929 C934 0.949 . S
H930 C936 0.950 . S
H931 C937 0.950 . S
H932 C938 0.949 . S
C933 H928 0.950 . S
C933 C935 1.327 . S
C933 C939 1.429 . S
C934 C926 1.574 . S
C934 H929 0.949 . S
C934 C940 1.368 . S
C935 C919 1.349 . S
C935 H927 0.950 . S
C935 C933 1.327 . S
C936 C924 1.349 . S
C936 H930 0.950 . S
C936 C937 1.327 . S
C937 H931 0.950 . S
C937 C936 1.327 . S
C937 C941 1.429 . S
C938 C921 1.574 . S
C938 H932 0.949 . S
C938 C942 1.368 . S
C939 C920 1.429 . S
C939 C933 1.429 . S
C939 C940 1.523 . S
C940 C921 1.368 . S
C940 C934 1.368 . S
C940 C939 1.523 . S
C941 C925 1.429 . S
C941 C937 1.429 . S
C941 C942 1.523 . S
C942 C926 1.368 . S
C942 C938 1.368 . S
C942 C941 1.523 . S
H943 C918 0.950 . S
H944 C920 0.950 . S
H945 C921 0.949 . S
H946 C923 0.950 . S
H947 C925 0.950 . S
C948 C949 1.349 1_556 S
C948 C950 1.327 . S
C948 H973 0.950 . S
C949 C948 1.349 1_554 S
C949 C965 1.349 . S
C950 C948 1.327 . S
C950 C969 1.429 . S
C950 H974 0.950 . S
C951 C968 1.574 . S
C951 C970 1.368 . S
C951 H975 0.949 . S
H952 C956 0.949 . S
C953 C954 1.349 . S
C953 C955 1.327 . S
C953 H976 0.950 . S
C954 C953 1.349 . S
C954 C966 1.349 . S
C955 C953 1.327 . S
C955 C971 1.429 . S
C955 H977 0.950 . S
C956 H952 0.949 . S
C956 C964 1.574 . S
C956 C972 1.368 . S
H957 C965 0.950 . S
H958 C963 0.950 . S
H959 C964 0.949 . S
H960 C966 0.950 . S
H961 C967 0.950 . S
H962 C968 0.949 . S
C963 H958 0.950 . S
C963 C965 1.327 1_556 S
C963 C969 1.429 . S
C964 C956 1.574 . S
C964 H959 0.949 . S
C964 C970 1.368 . S
C965 C949 1.349 . S
C965 H957 0.950 . S
C965 C963 1.327 1_554 S
C966 C954 1.349 . S
C966 H960 0.950 . S
C966 C967 1.327 . S
C967 H961 0.950 . S
C967 C966 1.327 . S
C967 C971 1.429 . S
C968 C951 1.574 . S
C968 H962 0.949 . S
C968 C972 1.368 . S
C969 C950 1.429 . S
C969 C963 1.429 . S
C969 C970 1.523 . S
C970 C951 1.368 . S
C970 C964 1.368 . S
C970 C969 1.523 . S
C971 C955 1.429 . S
C971 C967 1.429 . S
C971 C972 1.523 . S
C972 C956 1.368 . S
C972 C968 1.368 . S
C972 C971 1.523 . S
H973 C948 0.950 . S
H974 C950 0.950 . S
H975 C951 0.949 . S
H976 C953 0.950 . S
H977 C955 0.950 . S
C978 C979 1.349 . S
C978 C980 1.327 . S
C978 H1003 0.950 . S
C979 C978 1.349 . S
C979 C995 1.349 . S
C980 C978 1.327 . S
C980 C999 1.429 . S
C980 H1004 0.950 . S
C981 C998 1.574 . S
C981 C1000 1.368 . S
C981 H1005 0.949 . S
H982 C986 0.949 . S
C983 C984 1.349 1_554 S
C983 C985 1.327 . S
C983 H1006 0.950 1_554 S
C984 C983 1.349 1_556 S
C984 C996 1.349 . S
C985 C983 1.327 . S
C985 C1001 1.429 . S
C985 H1007 0.950 . S
C986 H982 0.949 . S
C986 C994 1.574 . S
C986 C1002 1.368 . S
H987 C995 0.950 . S
H988 C993 0.950 . S
H989 C994 0.949 . S
H990 C996 0.950 . S
H991 C997 0.950 . S
H992 C998 0.949 . S
C993 H988 0.950 . S
C993 C995 1.327 . S
C993 C999 1.429 . S
C994 C986 1.574 . S
C994 H989 0.949 . S
C994 C1000 1.368 . S
C995 C979 1.349 . S
C995 H987 0.950 . S
C995 C993 1.327 . S
C996 C984 1.349 . S
C996 H990 0.950 . S
C996 C997 1.327 1_556 S
C997 H991 0.950 . S
C997 C996 1.327 1_554 S
C997 C1001 1.429 . S
C998 C981 1.574 . S
C998 H992 0.949 . S
C998 C1002 1.368 . S
C999 C980 1.429 . S
C999 C993 1.429 . S
C999 C1000 1.523 . S
C1000 C981 1.368 . S
C1000 C994 1.368 . S
C1000 C999 1.523 . S
C1001 C985 1.429 . S
C1001 C997 1.429 . S
C1001 C1002 1.523 . S
C1002 C986 1.368 . S
C1002 C998 1.368 . S
C1002 C1001 1.523 . S
H1003 C978 0.950 . S
H1004 C980 0.950 . S
H1005 C981 0.949 . S
H1006 C983 0.950 1_556 S
H1007 C985 0.950 . S
C1008 C1009 1.349 . S
C1008 C1010 1.327 . S
C1008 H1033 0.950 . S
C1009 C1008 1.349 . S
C1009 C1025 1.349 . S
C1010 C1008 1.327 . S
C1010 C1029 1.429 . S
C1010 H1034 0.950 . S
C1011 C1028 1.574 . S
C1011 C1030 1.368 . S
C1011 H1035 0.949 . S
H1012 C1016 0.949 . S
C1013 C1014 1.349 . S
C1013 C1015 1.327 . S
C1013 H1036 0.950 . S
C1014 C1013 1.349 . S
C1014 C1026 1.349 . S
C1015 C1013 1.327 . S
C1015 C1031 1.429 . S
C1015 H1037 0.950 . S
C1016 H1012 0.949 . S
C1016 C1024 1.574 . S
C1016 C1032 1.368 . S
H1017 C1025 0.950 . S
H1018 C1023 0.950 . S
H1019 C1024 0.949 . S
H1020 C1026 0.950 . S
H1021 C1027 0.950 . S
H1022 C1028 0.949 . S
C1023 H1018 0.950 . S
C1023 C1025 1.327 . S
C1023 C1029 1.429 . S
C1024 C1016 1.574 . S
C1024 H1019 0.949 . S
C1024 C1030 1.368 . S
C1025 C1009 1.349 . S
C1025 H1017 0.950 . S
C1025 C1023 1.327 . S
C1026 C1014 1.349 . S
C1026 H1020 0.950 . S
C1026 C1027 1.327 . S
C1027 H1021 0.950 . S
C1027 C1026 1.327 . S
C1027 C1031 1.429 . S
C1028 C1011 1.574 . S
C1028 H1022 0.949 . S
C1028 C1032 1.368 . S
C1029 C1010 1.429 . S
C1029 C1023 1.429 . S
C1029 C1030 1.523 . S
C1030 C1011 1.368 . S
C1030 C1024 1.368 . S
C1030 C1029 1.523 . S
C1031 C1015 1.429 . S
C1031 C1027 1.429 . S
C1031 C1032 1.523 . S
C1032 C1016 1.368 . S
C1032 C1028 1.368 . S
C1032 C1031 1.523 . S
H1033 C1008 0.950 . S
H1034 C1010 0.950 . S
H1035 C1011 0.949 . S
H1036 C1013 0.950 . S
H1037 C1015 0.950 . S
C1038 C1039 1.349 . S
C1038 C1040 1.327 . S
C1038 H1063 0.950 . S
C1039 C1038 1.349 . S
C1039 C1055 1.349 . S
C1040 C1038 1.327 . S
C1040 C1059 1.429 . S
C1040 H1064 0.950 . S
C1041 C1058 1.574 . S
C1041 C1060 1.368 . S
C1041 H1065 0.949 . S
H1042 C1046 0.949 . S
C1043 C1044 1.349 . S
C1043 C1045 1.327 . S
C1043 H1066 0.950 . S
C1044 C1043 1.349 . S
C1044 C1056 1.349 . S
C1045 C1043 1.327 . S
C1045 C1061 1.429 . S
C1045 H1067 0.950 . S
C1046 H1042 0.949 . S
C1046 C1054 1.574 . S
C1046 C1062 1.368 . S
H1047 C1055 0.950 . S
H1048 C1053 0.950 . S
H1049 C1054 0.949 . S
H1050 C1056 0.950 . S
H1051 C1057 0.950 . S
H1052 C1058 0.949 . S
C1053 H1048 0.950 . S
C1053 C1055 1.327 . S
C1053 C1059 1.429 . S
C1054 C1046 1.574 . S
C1054 H1049 0.949 . S
C1054 C1060 1.368 . S
C1055 C1039 1.349 . S
C1055 H1047 0.950 . S
C1055 C1053 1.327 . S
C1056 C1044 1.349 . S
C1056 H1050 0.950 . S
C1056 C1057 1.327 . S
C1057 H1051 0.950 . S
C1057 C1056 1.327 . S
C1057 C1061 1.429 . S
C1058 C1041 1.574 . S
C1058 H1052 0.949 . S
C1058 C1062 1.368 . S
C1059 C1040 1.429 . S
C1059 C1053 1.429 . S
C1059 C1060 1.523 . S
C1060 C1041 1.368 . S
C1060 C1054 1.368 . S
C1060 C1059 1.523 . S
C1061 C1045 1.429 . S
C1061 C1057 1.429 . S
C1061 C1062 1.523 . S
C1062 C1046 1.368 . S
C1062 C1058 1.368 . S
C1062 C1061 1.523 . S
H1063 C1038 0.950 . S
H1064 C1040 0.950 . S
H1065 C1041 0.949 . S
H1066 C1043 0.950 . S
H1067 C1045 0.950 . S
C1068 C1069 1.349 . S
C1068 C1070 1.327 . S
C1068 H1093 0.950 . S
C1069 C1068 1.349 . S
C1069 C1085 1.349 . S
C1070 C1068 1.327 . S
C1070 C1089 1.429 . S
C1070 H1094 0.950 . S
C1071 C1088 1.574 1_655 S
C1071 C1090 1.368 . S
C1071 H1095 0.949 . S
H1072 C1076 0.949 . S
C1073 C1074 1.349 . S
C1073 C1075 1.327 . S
C1073 H1096 0.950 . S
C1074 C1073 1.349 . S
C1074 C1086 1.349 . S
C1075 C1073 1.327 . S
C1075 C1091 1.429 . S
C1075 H1097 0.950 . S
C1076 H1072 0.949 . S
C1076 C1084 1.574 1_455 S
C1076 C1092 1.368 . S
H1077 C1085 0.950 . S
H1078 C1083 0.950 . S
H1079 C1084 0.949 . S
H1080 C1086 0.950 . S
H1081 C1087 0.950 . S
H1082 C1088 0.949 . S
C1083 H1078 0.950 . S
C1083 C1085 1.327 . S
C1083 C1089 1.429 . S
C1084 C1076 1.574 1_655 S
C1084 H1079 0.949 . S
C1084 C1090 1.368 . S
C1085 C1069 1.349 . S
C1085 H1077 0.950 . S
C1085 C1083 1.327 . S
C1086 C1074 1.349 . S
C1086 H1080 0.950 . S
C1086 C1087 1.327 . S
C1087 H1081 0.950 . S
C1087 C1086 1.327 . S
C1087 C1091 1.429 . S
C1088 C1071 1.574 1_455 S
C1088 H1082 0.949 . S
C1088 C1092 1.368 . S
C1089 C1070 1.429 . S
C1089 C1083 1.429 . S
C1089 C1090 1.523 . S
C1090 C1071 1.368 . S
C1090 C1084 1.368 . S
C1090 C1089 1.523 . S
C1091 C1075 1.429 . S
C1091 C1087 1.429 . S
C1091 C1092 1.523 . S
C1092 C1076 1.368 . S
C1092 C1088 1.368 . S
C1092 C1091 1.523 . S
H1093 C1068 0.950 . S
H1094 C1070 0.950 . S
H1095 C1071 0.949 . S
H1096 C1073 0.950 . S
H1097 C1075 0.950 . S
C1098 C1099 1.349 . S
C1098 C1100 1.327 . S
C1098 H1123 0.950 . S
C1099 C1098 1.349 . S
C1099 C1115 1.349 . S
C1100 C1098 1.327 . S
C1100 C1119 1.429 . S
C1100 H1124 0.950 . S
C1101 C1118 1.574 1_565 S
C1101 C1120 1.368 . S
C1101 H1125 0.949 . S
H1102 C1106 0.949 . S
C1103 C1104 1.349 . S
C1103 C1105 1.327 . S
C1103 H1126 0.950 . S
C1104 C1103 1.349 . S
C1104 C1116 1.349 . S
C1105 C1103 1.327 . S
C1105 C1121 1.429 . S
C1105 H1127 0.950 . S
C1106 H1102 0.949 . S
C1106 C1114 1.574 1_545 S
C1106 C1122 1.368 . S
H1107 C1115 0.950 . S
H1108 C1113 0.950 . S
H1109 C1114 0.949 . S
H1110 C1116 0.950 . S
H1111 C1117 0.950 . S
H1112 C1118 0.949 . S
C1113 H1108 0.950 . S
C1113 C1115 1.327 . S
C1113 C1119 1.429 . S
C1114 C1106 1.574 1_565 S
C1114 H1109 0.949 . S
C1114 C1120 1.368 . S
C1115 C1099 1.349 . S
C1115 H1107 0.950 . S
C1115 C1113 1.327 . S
C1116 C1104 1.349 . S
C1116 H1110 0.950 . S
C1116 C1117 1.327 . S
C1117 H1111 0.950 . S
C1117 C1116 1.327 . S
C1117 C1121 1.429 . S
C1118 C1101 1.574 1_545 S
C1118 H1112 0.949 . S
C1118 C1122 1.368 . S
C1119 C1100 1.429 . S
C1119 C1113 1.429 . S
C1119 C1120 1.523 . S
C1120 C1101 1.368 . S
C1120 C1114 1.368 . S
C1120 C1119 1.523 . S
C1121 C1105 1.429 . S
C1121 C1117 1.429 . S
C1121 C1122 1.523 . S
C1122 C1106 1.368 . S
C1122 C1118 1.368 . S
C1122 C1121 1.523 . S
H1123 C1098 0.950 . S
H1124 C1100 0.950 . S
H1125 C1101 0.949 . S
H1126 C1103 0.950 . S
H1127 C1105 0.950 . S
C1128 C1129 1.349 . S
C1128 C1130 1.327 . S
C1128 H1153 0.950 . S
C1129 C1128 1.349 . S
C1129 C1145 1.349 . S
C1130 C1128 1.327 . S
C1130 C1149 1.429 . S
C1130 H1154 0.950 . S
C1131 C1148 1.574 . S
C1131 C1150 1.368 . S
C1131 H1155 0.949 . S
H1132 C1136 0.949 . S
C1133 C1134 1.349 . S
C1133 C1135 1.327 . S
C1133 H1156 0.950 . S
C1134 C1133 1.349 . S
C1134 C1146 1.349 . S
C1135 C1133 1.327 . S
C1135 C1151 1.429 . S
C1135 H1157 0.950 . S
C1136 H1132 0.949 . S
C1136 C1144 1.574 . S
C1136 C1152 1.368 . S
H1137 C1145 0.950 . S
H1138 C1143 0.950 . S
H1139 C1144 0.949 . S
H1140 C1146 0.950 . S
H1141 C1147 0.950 . S
H1142 C1148 0.949 . S
C1143 H1138 0.950 . S
C1143 C1145 1.327 . S
C1143 C1149 1.429 . S
C1144 C1136 1.574 . S
C1144 H1139 0.949 . S
C1144 C1150 1.368 . S
C1145 C1129 1.349 . S
C1145 H1137 0.950 . S
C1145 C1143 1.327 . S
C1146 C1134 1.349 . S
C1146 H1140 0.950 . S
C1146 C1147 1.327 . S
C1147 H1141 0.950 . S
C1147 C1146 1.327 . S
C1147 C1151 1.429 . S
C1148 C1131 1.574 . S
C1148 H1142 0.949 . S
C1148 C1152 1.368 . S
C1149 C1130 1.429 . S
C1149 C1143 1.429 . S
C1149 C1150 1.523 . S
C1150 C1131 1.368 . S
C1150 C1144 1.368 . S
C1150 C1149 1.523 . S
C1151 C1135 1.429 . S
C1151 C1147 1.429 . S
C1151 C1152 1.523 . S
C1152 C1136 1.368 . S
C1152 C1148 1.368 . S
C1152 C1151 1.523 . S
H1153 C1128 0.950 . S
H1154 C1130 0.950 . S
H1155 C1131 0.949 . S
H1156 C1133 0.950 . S
H1157 C1135 0.950 . S
C1158 C1159 1.349 . S
C1158 C1160 1.327 . S
C1158 H1183 0.950 . S
C1159 C1158 1.349 . S
C1159 C1175 1.349 . S
C1160 C1158 1.327 . S
C1160 C1179 1.429 . S
C1160 H1184 0.950 . S
C1161 C1178 1.574 1_455 S
C1161 C1180 1.368 . S
C1161 H1185 0.949 . S
H1162 C1166 0.949 . S
C1163 C1164 1.349 . S
C1163 C1165 1.327 . S
C1163 H1186 0.950 . S
C1164 C1163 1.349 . S
C1164 C1176 1.349 . S
C1165 C1163 1.327 . S
C1165 C1181 1.429 . S
C1165 H1187 0.950 . S
C1166 H1162 0.949 . S
C1166 C1174 1.574 1_655 S
C1166 C1182 1.368 . S
H1167 C1175 0.950 . S
H1168 C1173 0.950 . S
H1169 C1174 0.949 . S
H1170 C1176 0.950 . S
H1171 C1177 0.950 . S
H1172 C1178 0.949 . S
C1173 H1168 0.950 . S
C1173 C1175 1.327 . S
C1173 C1179 1.429 . S
C1174 C1166 1.574 1_455 S
C1174 H1169 0.949 . S
C1174 C1180 1.368 . S
C1175 C1159 1.349 . S
C1175 H1167 0.950 . S
C1175 C1173 1.327 . S
C1176 C1164 1.349 . S
C1176 H1170 0.950 . S
C1176 C1177 1.327 . S
C1177 H1171 0.950 . S
C1177 C1176 1.327 . S
C1177 C1181 1.429 . S
C1178 C1161 1.574 1_655 S
C1178 H1172 0.949 . S
C1178 C1182 1.368 . S
C1179 C1160 1.429 . S
C1179 C1173 1.429 . S
C1179 C1180 1.523 . S
C1180 C1161 1.368 . S
C1180 C1174 1.368 . S
C1180 C1179 1.523 . S
C1181 C1165 1.429 . S
C1181 C1177 1.429 . S
C1181 C1182 1.523 . S
C1182 C1166 1.368 . S
C1182 C1178 1.368 . S
C1182 C1181 1.523 . S
H1183 C1158 0.950 . S
H1184 C1160 0.950 . S
H1185 C1161 0.949 . S
H1186 C1163 0.950 . S
H1187 C1165 0.950 . S
C1188 C1189 1.349 . S
C1188 C1190 1.327 . S
C1188 H1213 0.950 . S
C1189 C1188 1.349 . S
C1189 C1205 1.349 . S
C1190 C1188 1.327 . S
C1190 C1209 1.429 . S
C1190 H1214 0.950 . S
C1191 C1208 1.574 1_545 S
C1191 C1210 1.368 1_554 S
C1191 H1215 0.949 . S
H1192 C1196 0.949 . S
C1193 C1194 1.349 . S
C1193 C1195 1.327 . S
C1193 H1216 0.950 . S
C1194 C1193 1.349 . S
C1194 C1206 1.349 . S
C1195 C1193 1.327 . S
C1195 C1211 1.429 . S
C1195 H1217 0.950 . S
C1196 H1192 0.949 . S
C1196 C1204 1.574 1_565 S
C1196 C1212 1.368 1_556 S
H1197 C1205 0.950 . S
H1198 C1203 0.950 1_554 S
H1199 C1204 0.949 . S
H1200 C1206 0.950 . S
H1201 C1207 0.950 1_556 S
H1202 C1208 0.949 . S
C1203 H1198 0.950 1_556 S
C1203 C1205 1.327 . S
C1203 C1209 1.429 . S
C1204 C1196 1.574 1_545 S
C1204 H1199 0.949 . S
C1204 C1210 1.368 . S
C1205 C1189 1.349 . S
C1205 H1197 0.950 . S
C1205 C1203 1.327 . S
C1206 C1194 1.349 . S
C1206 H1200 0.950 . S
C1206 C1207 1.327 . S
C1207 H1201 0.950 1_554 S
C1207 C1206 1.327 . S
C1207 C1211 1.429 . S
C1208 C1191 1.574 1_565 S
C1208 H1202 0.949 . S
C1208 C1212 1.368 . S
C1209 C1190 1.429 . S
C1209 C1203 1.429 . S
C1209 C1210 1.523 . S
C1210 C1191 1.368 1_556 S
C1210 C1204 1.368 . S
C1210 C1209 1.523 . S
C1211 C1195 1.429 . S
C1211 C1207 1.429 . S
C1211 C1212 1.523 . S
C1212 C1196 1.368 1_554 S
C1212 C1208 1.368 . S
C1212 C1211 1.523 . S
H1213 C1188 0.950 . S
H1214 C1190 0.950 . S
H1215 C1191 0.949 . S
H1216 C1193 0.950 . S
H1217 C1195 0.950 . S
C1218 C1219 1.349 . S
C1218 C1220 1.327 . S
C1218 H1243 0.950 . S
C1219 C1218 1.349 . S
C1219 C1235 1.349 . S
C1220 C1218 1.327 . S
C1220 C1239 1.429 . S
C1220 H1244 0.950 . S
C1221 C1238 1.574 . S
C1221 C1240 1.368 . S
C1221 H1245 0.949 . S
H1222 C1226 0.949 . S
C1223 C1224 1.349 . S
C1223 C1225 1.327 . S
C1223 H1246 0.950 . S
C1224 C1223 1.349 . S
C1224 C1236 1.349 . S
C1225 C1223 1.327 . S
C1225 C1241 1.429 . S
C1225 H1247 0.950 . S
C1226 H1222 0.949 . S
C1226 C1234 1.574 . S
C1226 C1242 1.368 . S
H1227 C1235 0.950 . S
H1228 C1233 0.950 . S
H1229 C1234 0.949 . S
H1230 C1236 0.950 . S
H1231 C1237 0.950 . S
H1232 C1238 0.949 . S
C1233 H1228 0.950 . S
C1233 C1235 1.327 . S
C1233 C1239 1.429 . S
C1234 C1226 1.574 . S
C1234 H1229 0.949 . S
C1234 C1240 1.368 . S
C1235 C1219 1.349 . S
C1235 H1227 0.950 . S
C1235 C1233 1.327 . S
C1236 C1224 1.349 . S
C1236 H1230 0.950 . S
C1236 C1237 1.327 . S
C1237 H1231 0.950 . S
C1237 C1236 1.327 . S
C1237 C1241 1.429 . S
C1238 C1221 1.574 . S
C1238 H1232 0.949 . S
C1238 C1242 1.368 . S
C1239 C1220 1.429 . S
C1239 C1233 1.429 . S
C1239 C1240 1.523 . S
C1240 C1221 1.368 . S
C1240 C1234 1.368 . S
C1240 C1239 1.523 . S
C1241 C1225 1.429 . S
C1241 C1237 1.429 . S
C1241 C1242 1.523 . S
C1242 C1226 1.368 . S
C1242 C1238 1.368 . S
C1242 C1241 1.523 . S
H1243 C1218 0.950 . S
H1244 C1220 0.950 . S
H1245 C1221 0.949 . S
H1246 C1223 0.950 . S
H1247 C1225 0.950 . S
C1248 C1249 1.349 . S
C1248 C1250 1.327 . S
C1248 H1273 0.950 . S
C1249 C1248 1.349 . S
C1249 C1265 1.349 . S
C1250 C1248 1.327 . S
C1250 C1269 1.429 . S
C1250 H1274 0.950 . S
C1251 C1268 1.574 . S
C1251 C1270 1.368 . S
C1251 H1275 0.949 . S
H1252 C1256 0.949 . S
C1253 C1254 1.349 . S
C1253 C1255 1.327 . S
C1253 H1276 0.950 . S
C1254 C1253 1.349 . S
C1254 C1266 1.349 . S
C1255 C1253 1.327 . S
C1255 C1271 1.429 . S
C1255 H1277 0.950 . S
C1256 H1252 0.949 . S
C1256 C1264 1.574 . S
C1256 C1272 1.368 . S
H1257 C1265 0.950 . S
H1258 C1263 0.950 . S
H1259 C1264 0.949 . S
H1260 C1266 0.950 . S
H1261 C1267 0.950 . S
H1262 C1268 0.949 . S
C1263 H1258 0.950 . S
C1263 C1265 1.327 . S
C1263 C1269 1.429 . S
C1264 C1256 1.574 . S
C1264 H1259 0.949 . S
C1264 C1270 1.368 . S
C1265 C1249 1.349 . S
C1265 H1257 0.950 . S
C1265 C1263 1.327 . S
C1266 C1254 1.349 . S
C1266 H1260 0.950 . S
C1266 C1267 1.327 . S
C1267 H1261 0.950 . S
C1267 C1266 1.327 . S
C1267 C1271 1.429 . S
C1268 C1251 1.574 . S
C1268 H1262 0.949 . S
C1268 C1272 1.368 . S
C1269 C1250 1.429 . S
C1269 C1263 1.429 . S
C1269 C1270 1.523 . S
C1270 C1251 1.368 . S
C1270 C1264 1.368 . S
C1270 C1269 1.523 . S
C1271 C1255 1.429 . S
C1271 C1267 1.429 . S
C1271 C1272 1.523 . S
C1272 C1256 1.368 . S
C1272 C1268 1.368 . S
C1272 C1271 1.523 . S
H1273 C1248 0.950 . S
H1274 C1250 0.950 . S
H1275 C1251 0.949 . S
H1276 C1253 0.950 . S
H1277 C1255 0.950 . S
C1278 C1279 1.349 . S
C1278 C1280 1.327 . S
C1278 H1303 0.950 . S
C1279 C1278 1.349 . S
C1279 C1295 1.349 . S
C1280 C1278 1.327 . S
C1280 C1299 1.429 . S
C1280 H1304 0.950 . S
C1281 C1298 1.574 . S
C1281 C1300 1.368 . S
C1281 H1305 0.949 . S
H1282 C1286 0.949 . S
C1283 C1284 1.349 . S
C1283 C1285 1.327 . S
C1283 H1306 0.950 . S
C1284 C1283 1.349 . S
C1284 C1296 1.349 . S
C1285 C1283 1.327 . S
C1285 C1301 1.429 . S
C1285 H1307 0.950 . S
C1286 H1282 0.949 . S
C1286 C1294 1.574 . S
C1286 C1302 1.368 . S
H1287 C1295 0.950 . S
H1288 C1293 0.950 . S
H1289 C1294 0.949 . S
H1290 C1296 0.950 . S
H1291 C1297 0.950 . S
H1292 C1298 0.949 . S
C1293 H1288 0.950 . S
C1293 C1295 1.327 . S
C1293 C1299 1.429 . S
C1294 C1286 1.574 . S
C1294 H1289 0.949 . S
C1294 C1300 1.368 . S
C1295 C1279 1.349 . S
C1295 H1287 0.950 . S
C1295 C1293 1.327 . S
C1296 C1284 1.349 . S
C1296 H1290 0.950 . S
C1296 C1297 1.327 . S
C1297 H1291 0.950 . S
C1297 C1296 1.327 . S
C1297 C1301 1.429 . S
C1298 C1281 1.574 . S
C1298 H1292 0.949 . S
C1298 C1302 1.368 . S
C1299 C1280 1.429 . S
C1299 C1293 1.429 . S
C1299 C1300 1.523 . S
C1300 C1281 1.368 . S
C1300 C1294 1.368 . S
C1300 C1299 1.523 . S
C1301 C1285 1.429 . S
C1301 C1297 1.429 . S
C1301 C1302 1.523 . S
C1302 C1286 1.368 . S
C1302 C1298 1.368 . S
C1302 C1301 1.523 . S
H1303 C1278 0.950 . S
H1304 C1280 0.950 . S
H1305 C1281 0.949 . S
H1306 C1283 0.950 . S
H1307 C1285 0.950 . S
C1308 C1309 1.349 . S
C1308 C1310 1.327 . S
C1308 H1333 0.950 . S
C1309 C1308 1.349 . S
C1309 C1325 1.349 . S
C1310 C1308 1.327 . S
C1310 C1329 1.429 . S
C1310 H1334 0.950 . S
C1311 C1328 1.574 . S
C1311 C1330 1.368 . S
C1311 H1335 0.949 . S
H1312 C1316 0.949 . S
C1313 C1314 1.349 . S
C1313 C1315 1.327 . S
C1313 H1336 0.950 . S
C1314 C1313 1.349 . S
C1314 C1326 1.349 . S
C1315 C1313 1.327 . S
C1315 C1331 1.429 . S
C1315 H1337 0.950 . S
C1316 H1312 0.949 . S
C1316 C1324 1.574 . S
C1316 C1332 1.368 . S
H1317 C1325 0.950 . S
H1318 C1323 0.950 . S
H1319 C1324 0.949 . S
H1320 C1326 0.950 . S
H1321 C1327 0.950 . S
H1322 C1328 0.949 . S
C1323 H1318 0.950 . S
C1323 C1325 1.327 . S
C1323 C1329 1.429 . S
C1324 C1316 1.574 . S
C1324 H1319 0.949 . S
C1324 C1330 1.368 . S
C1325 C1309 1.349 . S
C1325 H1317 0.950 . S
C1325 C1323 1.327 . S
C1326 C1314 1.349 . S
C1326 H1320 0.950 . S
C1326 C1327 1.327 . S
C1327 H1321 0.950 . S
C1327 C1326 1.327 . S
C1327 C1331 1.429 . S
C1328 C1311 1.574 . S
C1328 H1322 0.949 . S
C1328 C1332 1.368 . S
C1329 C1310 1.429 . S
C1329 C1323 1.429 . S
C1329 C1330 1.523 . S
C1330 C1311 1.368 . S
C1330 C1324 1.368 . S
C1330 C1329 1.523 . S
C1331 C1315 1.429 . S
C1331 C1327 1.429 . S
C1331 C1332 1.523 . S
C1332 C1316 1.368 . S
C1332 C1328 1.368 . S
C1332 C1331 1.523 . S
H1333 C1308 0.950 . S
H1334 C1310 0.950 . S
H1335 C1311 0.949 . S
H1336 C1313 0.950 . S
H1337 C1315 0.950 . S
C1338 C1339 1.349 . S
C1338 C1340 1.327 . S
C1338 H1363 0.950 . S
C1339 C1338 1.349 . S
C1339 C1355 1.349 . S
C1340 C1338 1.327 . S
C1340 C1359 1.429 . S
C1340 H1364 0.950 . S
C1341 C1358 1.574 . S
C1341 C1360 1.368 . S
C1341 H1365 0.949 . S
H1342 C1346 0.949 . S
C1343 C1344 1.349 . S
C1343 C1345 1.327 . S
C1343 H1366 0.950 . S
C1344 C1343 1.349 . S
C1344 C1356 1.349 . S
C1345 C1343 1.327 . S
C1345 C1361 1.429 . S
C1345 H1367 0.950 . S
C1346 H1342 0.949 . S
C1346 C1354 1.574 . S
C1346 C1362 1.368 . S
H1347 C1355 0.950 . S
H1348 C1353 0.950 . S
H1349 C1354 0.949 . S
H1350 C1356 0.950 . S
H1351 C1357 0.950 . S
H1352 C1358 0.949 . S
C1353 H1348 0.950 . S
C1353 C1355 1.327 . S
C1353 C1359 1.429 . S
C1354 C1346 1.574 . S
C1354 H1349 0.949 . S
C1354 C1360 1.368 . S
C1355 C1339 1.349 . S
C1355 H1347 0.950 . S
C1355 C1353 1.327 . S
C1356 C1344 1.349 . S
C1356 H1350 0.950 . S
C1356 C1357 1.327 . S
C1357 H1351 0.950 . S
C1357 C1356 1.327 . S
C1357 C1361 1.429 . S
C1358 C1341 1.574 . S
C1358 H1352 0.949 . S
C1358 C1362 1.368 . S
C1359 C1340 1.429 . S
C1359 C1353 1.429 . S
C1359 C1360 1.523 . S
C1360 C1341 1.368 . S
C1360 C1354 1.368 . S
C1360 C1359 1.523 . S
C1361 C1345 1.429 . S
C1361 C1357 1.429 . S
C1361 C1362 1.523 . S
C1362 C1346 1.368 . S
C1362 C1358 1.368 . S
C1362 C1361 1.523 . S
H1363 C1338 0.950 . S
H1364 C1340 0.950 . S
H1365 C1341 0.949 . S
H1366 C1343 0.950 . S
H1367 C1345 0.950 . S
C1368 C1369 1.349 . S
C1368 C1370 1.327 1_554 S
C1368 H1393 0.950 . S
C1369 C1368 1.349 . S
C1369 C1385 1.349 1_554 S
C1370 C1368 1.327 1_556 S
C1370 C1389 1.429 . S
C1370 H1394 0.950 . S
C1371 C1388 1.574 . S
C1371 C1390 1.368 . S
C1371 H1395 0.949 . S
H1372 C1376 0.949 . S
C1373 C1374 1.349 . S
C1373 C1375 1.327 . S
C1373 H1396 0.950 . S
C1374 C1373 1.349 . S
C1374 C1386 1.349 . S
C1375 C1373 1.327 . S
C1375 C1391 1.429 . S
C1375 H1397 0.950 . S
C1376 H1372 0.949 . S
C1376 C1384 1.574 . S
C1376 C1392 1.368 . S
H1377 C1385 0.950 . S
H1378 C1383 0.950 . S
H1379 C1384 0.949 . S
H1380 C1386 0.950 . S
H1381 C1387 0.950 . S
H1382 C1388 0.949 . S
C1383 H1378 0.950 . S
C1383 C1385 1.327 . S
C1383 C1389 1.429 . S
C1384 C1376 1.574 . S
C1384 H1379 0.949 . S
C1384 C1390 1.368 . S
C1385 C1369 1.349 1_556 S
C1385 H1377 0.950 . S
C1385 C1383 1.327 . S
C1386 C1374 1.349 . S
C1386 H1380 0.950 . S
C1386 C1387 1.327 . S
C1387 H1381 0.950 . S
C1387 C1386 1.327 . S
C1387 C1391 1.429 . S
C1388 C1371 1.574 . S
C1388 H1382 0.949 . S
C1388 C1392 1.368 . S
C1389 C1370 1.429 . S
C1389 C1383 1.429 . S
C1389 C1390 1.523 . S
C1390 C1371 1.368 . S
C1390 C1384 1.368 . S
C1390 C1389 1.523 . S
C1391 C1375 1.429 . S
C1391 C1387 1.429 . S
C1391 C1392 1.523 . S
C1392 C1376 1.368 . S
C1392 C1388 1.368 . S
C1392 C1391 1.523 . S
H1393 C1368 0.950 . S
H1394 C1370 0.950 . S
H1395 C1371 0.949 . S
H1396 C1373 0.950 . S
H1397 C1375 0.950 . S
C1398 C1399 1.349 . S
C1398 C1400 1.327 . S
C1398 H1423 0.950 . S
C1399 C1398 1.349 . S
C1399 C1415 1.349 . S
C1400 C1398 1.327 . S
C1400 C1419 1.429 . S
C1400 H1424 0.950 . S
C1401 C1418 1.574 . S
C1401 C1420 1.368 . S
C1401 H1425 0.949 . S
H1402 C1406 0.949 . S
C1403 C1404 1.349 1_554 S
C1403 C1405 1.327 . S
C1403 H1426 0.950 . S
C1404 C1403 1.349 1_556 S
C1404 C1416 1.349 1_556 S
C1405 C1403 1.327 . S
C1405 C1421 1.429 . S
C1405 H1427 0.950 . S
C1406 H1402 0.949 . S
C1406 C1414 1.574 . S
C1406 C1422 1.368 . S
H1407 C1415 0.950 . S
H1408 C1413 0.950 . S
H1409 C1414 0.949 . S
H1410 C1416 0.950 1_556 S
H1411 C1417 0.950 . S
H1412 C1418 0.949 . S
C1413 H1408 0.950 . S
C1413 C1415 1.327 . S
C1413 C1419 1.429 . S
C1414 C1406 1.574 . S
C1414 H1409 0.949 . S
C1414 C1420 1.368 . S
C1415 C1399 1.349 . S
C1415 H1407 0.950 . S
C1415 C1413 1.327 . S
C1416 C1404 1.349 1_554 S
C1416 H1410 0.950 1_554 S
C1416 C1417 1.327 . S
C1417 H1411 0.950 . S
C1417 C1416 1.327 . S
C1417 C1421 1.429 . S
C1418 C1401 1.574 . S
C1418 H1412 0.949 . S
C1418 C1422 1.368 . S
C1419 C1400 1.429 . S
C1419 C1413 1.429 . S
C1419 C1420 1.523 . S
C1420 C1401 1.368 . S
C1420 C1414 1.368 . S
C1420 C1419 1.523 . S
C1421 C1405 1.429 . S
C1421 C1417 1.429 . S
C1421 C1422 1.523 . S
C1422 C1406 1.368 . S
C1422 C1418 1.368 . S
C1422 C1421 1.523 . S
H1423 C1398 0.950 . S
H1424 C1400 0.950 . S
H1425 C1401 0.949 . S
H1426 C1403 0.950 . S
H1427 C1405 0.950 . S
C709 C33 0.886 . S
C714 C406 0.885 . S
C739 C111 0.885 . S
C744 C446 0.886 . S
C769 C524 0.886 . S
C774 C170 0.886 . S
C799 C210 0.886 . S
C804 C583 0.885 . S
C829 C288 0.885 . S
C834 C623 0.886 . S
C859 C701 0.886 . S
C864 C347 0.886 . S
C889 C505 1.707 . S
C894 C52 1.723 . S
C919 C92 1.708 . S
C924 C564 1.708 . S
C949 C642 1.723 . S
C954 C151 1.707 . S
C979 C682 1.707 . S
C984 C229 1.723 . S
C1009 C269 1.708 . S
C1014 C387 1.708 . S
C1039 C328 1.707 . S
C1044 C465 1.723 . S
C1069 C654 1.429 . S
C1074 C3 1.427 . S
C1099 C359 1.428 . S
C1104 C64 1.428 . S
C1129 C123 1.429 . S
C1134 C416 1.426 . S
C1159 C477 1.429 . S
C1164 C180 1.427 . S
C1189 C536 1.428 . S
C1194 C241 1.428 . S
C1219 C593 1.426 . S
C1224 C300 1.429 . S
C1249 C5 1.177 . S
C1254 C595 1.177 . S
C1279 C652 1.165 . S
C1284 C62 1.165 . S
C1309 C121 1.165 . S
C1314 C357 1.165 . S
C1339 C182 1.177 . S
C1344 C418 1.177 . S
C1369 C239 1.165 . S
C1374 C475 1.165 . S
C1399 C298 1.165 . S
C1404 C534 1.165 . S
