# Generated by pormake.
# Topology hbo, (4)-cn, num edge types: 1
# Building blocks:
#     Node 0, Type 0, BuildingBlock: ICAMEG_clean_sbu_1, # of connection points: 4
#     Node 1, Type 0, BuildingBlock: ICAMEG_clean_sbu_1, # of connection points: 4
#     Node 2, Type 0, BuildingBlock: ICAMEG_clean_sbu_1, # of connection points: 4
#     Node 3, Type 0, BuildingBlock: ICAMEG_clean_sbu_1, # of connection points: 4
#     Node 4, Type 0, BuildingBlock: ICAMEG_clean_sbu_1, # of connection points: 4
#     Node 5, Type 0, BuildingBlock: ICAMEG_clean_sbu_1, # of connection points: 4
#     Node 6, Type 0, BuildingBlock: ICAMEG_clean_sbu_1, # of connection points: 4
#     Node 7, Type 0, BuildingBlock: ICAMEG_clean_sbu_1, # of connection points: 4
#     Node 8, Type 0, BuildingBlock: ICAMEG_clean_sbu_1, # of connection points: 4
#     Node 9, Type 0, BuildingBlock: ICAMEG_clean_sbu_1, # of connection points: 4
#     Node 10, Type 0, BuildingBlock: ICAMEG_clean_sbu_1, # of connection points: 4
#     Node 11, Type 0, BuildingBlock: ICAMEG_clean_sbu_1, # of connection points: 4
#     Node 12, Type 0, BuildingBlock: ICAMEG_clean_sbu_1, # of connection points: 4
#     Node 13, Type 0, BuildingBlock: ICAMEG_clean_sbu_1, # of connection points: 4
#     Node 14, Type 0, BuildingBlock: ICAMEG_clean_sbu_1, # of connection points: 4
#     Node 15, Type 0, BuildingBlock: ICAMEG_clean_sbu_1, # of connection points: 4
#     Node 16, Type 0, BuildingBlock: ICAMEG_clean_sbu_1, # of connection points: 4
#     Node 17, Type 0, BuildingBlock: ICAMEG_clean_sbu_1, # of connection points: 4
#     Node 18, Type 0, BuildingBlock: ICAMEG_clean_sbu_1, # of connection points: 4
#     Node 19, Type 0, BuildingBlock: ICAMEG_clean_sbu_1, # of connection points: 4
#     Node 20, Type 0, BuildingBlock: ICAMEG_clean_sbu_1, # of connection points: 4
#     Node 21, Type 0, BuildingBlock: ICAMEG_clean_sbu_1, # of connection points: 4
#     Node 22, Type 0, BuildingBlock: ICAMEG_clean_sbu_1, # of connection points: 4
#     Node 23, Type 0, BuildingBlock: ICAMEG_clean_sbu_1, # of connection points: 4
#     Edge 24, Type (0, 0), BuildingBlock: CIFDUS_clean_linker_0, # of connection points: 2
#     Edge 25, Type (0, 0), BuildingBlock: CIFDUS_clean_linker_0, # of connection points: 2
#     Edge 26, Type (0, 0), BuildingBlock: CIFDUS_clean_linker_0, # of connection points: 2
#     Edge 27, Type (0, 0), BuildingBlock: CIFDUS_clean_linker_0, # of connection points: 2
#     Edge 28, Type (0, 0), BuildingBlock: CIFDUS_clean_linker_0, # of connection points: 2
#     Edge 29, Type (0, 0), BuildingBlock: CIFDUS_clean_linker_0, # of connection points: 2
#     Edge 30, Type (0, 0), BuildingBlock: CIFDUS_clean_linker_0, # of connection points: 2
#     Edge 31, Type (0, 0), BuildingBlock: CIFDUS_clean_linker_0, # of connection points: 2
#     Edge 32, Type (0, 0), BuildingBlock: CIFDUS_clean_linker_0, # of connection points: 2
#     Edge 33, Type (0, 0), BuildingBlock: CIFDUS_clean_linker_0, # of connection points: 2
#     Edge 34, Type (0, 0), BuildingBlock: CIFDUS_clean_linker_0, # of connection points: 2
#     Edge 35, Type (0, 0), BuildingBlock: CIFDUS_clean_linker_0, # of connection points: 2
#     Edge 36, Type (0, 0), BuildingBlock: CIFDUS_clean_linker_0, # of connection points: 2
#     Edge 37, Type (0, 0), BuildingBlock: CIFDUS_clean_linker_0, # of connection points: 2
#     Edge 38, Type (0, 0), BuildingBlock: CIFDUS_clean_linker_0, # of connection points: 2
#     Edge 39, Type (0, 0), BuildingBlock: CIFDUS_clean_linker_0, # of connection points: 2
#     Edge 40, Type (0, 0), BuildingBlock: CIFDUS_clean_linker_0, # of connection points: 2
#     Edge 41, Type (0, 0), BuildingBlock: CIFDUS_clean_linker_0, # of connection points: 2
#     Edge 42, Type (0, 0), BuildingBlock: CIFDUS_clean_linker_0, # of connection points: 2
#     Edge 43, Type (0, 0), BuildingBlock: CIFDUS_clean_linker_0, # of connection points: 2
#     Edge 44, Type (0, 0), BuildingBlock: CIFDUS_clean_linker_0, # of connection points: 2
#     Edge 45, Type (0, 0), BuildingBlock: CIFDUS_clean_linker_0, # of connection points: 2
#     Edge 46, Type (0, 0), BuildingBlock: CIFDUS_clean_linker_0, # of connection points: 2
#     Edge 47, Type (0, 0), BuildingBlock: CIFDUS_clean_linker_0, # of connection points: 2
#     Edge 48, Type (0, 0), BuildingBlock: CIFDUS_clean_linker_0, # of connection points: 2
#     Edge 49, Type (0, 0), BuildingBlock: CIFDUS_clean_linker_0, # of connection points: 2
#     Edge 50, Type (0, 0), BuildingBlock: CIFDUS_clean_linker_0, # of connection points: 2
#     Edge 51, Type (0, 0), BuildingBlock: CIFDUS_clean_linker_0, # of connection points: 2
#     Edge 52, Type (0, 0), BuildingBlock: CIFDUS_clean_linker_0, # of connection points: 2
#     Edge 53, Type (0, 0), BuildingBlock: CIFDUS_clean_linker_0, # of connection points: 2
#     Edge 54, Type (0, 0), BuildingBlock: CIFDUS_clean_linker_0, # of connection points: 2
#     Edge 55, Type (0, 0), BuildingBlock: CIFDUS_clean_linker_0, # of connection points: 2
#     Edge 56, Type (0, 0), BuildingBlock: CIFDUS_clean_linker_0, # of connection points: 2
#     Edge 57, Type (0, 0), BuildingBlock: CIFDUS_clean_linker_0, # of connection points: 2
#     Edge 58, Type (0, 0), BuildingBlock: CIFDUS_clean_linker_0, # of connection points: 2
#     Edge 59, Type (0, 0), BuildingBlock: CIFDUS_clean_linker_0, # of connection points: 2
#     Edge 60, Type (0, 0), BuildingBlock: CIFDUS_clean_linker_0, # of connection points: 2
#     Edge 61, Type (0, 0), BuildingBlock: CIFDUS_clean_linker_0, # of connection points: 2
#     Edge 62, Type (0, 0), BuildingBlock: CIFDUS_clean_linker_0, # of connection points: 2
#     Edge 63, Type (0, 0), BuildingBlock: CIFDUS_clean_linker_0, # of connection points: 2
#     Edge 64, Type (0, 0), BuildingBlock: CIFDUS_clean_linker_0, # of connection points: 2
#     Edge 65, Type (0, 0), BuildingBlock: CIFDUS_clean_linker_0, # of connection points: 2
#     Edge 66, Type (0, 0), BuildingBlock: CIFDUS_clean_linker_0, # of connection points: 2
#     Edge 67, Type (0, 0), BuildingBlock: CIFDUS_clean_linker_0, # of connection points: 2
#     Edge 68, Type (0, 0), BuildingBlock: CIFDUS_clean_linker_0, # of connection points: 2
#     Edge 69, Type (0, 0), BuildingBlock: CIFDUS_clean_linker_0, # of connection points: 2
#     Edge 70, Type (0, 0), BuildingBlock: CIFDUS_clean_linker_0, # of connection points: 2
#     Edge 71, Type (0, 0), BuildingBlock: CIFDUS_clean_linker_0, # of connection points: 2
# Relax obj value: 0.140
# Max RMSD: 0.173
# Mean RMSD: 0.173
data_MOF--net-hbo--node1-ICAMEG_clean_sbu_1--edge1-CIFDUS_clean_linker_0
_symmetry_space_group_name_H-M    P1
_symmetry_Int_Tables_number       1
_symmetry_cell_setting            triclinic
loop_
_symmetry_equiv_pos_as_xyz
'x, y, z'
_cell_length_a     49.850409
_cell_length_b     49.847664
_cell_length_c     49.852575
_cell_angle_alpha  89.990344
_cell_angle_beta   90.010877
_cell_angle_gamma 90.022533
loop_
_atom_site_label
_atom_site_type_symbol
_atom_site_fract_x
_atom_site_fract_y
_atom_site_fract_z
_atom_type_partial_charge
Co0 Co 0.15934 0.37206 0.26826 0.0
Co1 Co 0.12991 0.32847 0.22333 0.0
O2 O 0.13038 0.3618 0.24395 0.0
C3 C 0.15536 0.41892 0.2318 0.0
O4 O 0.15422 0.4026 0.21116 0.0
C5 C 0.07895 0.32743 0.25345 0.0
O6 O 0.09237 0.3345 0.27498 0.0
O7 O 0.13884 0.30683 0.25574 0.0
O8 O 0.16277 0.33475 0.28168 0.0
H9 H 0.16542 0.23916 0.19305 0.0
H10 H 0.10806 0.4021 0.26918 0.0
O11 O 0.15681 0.40975 0.25558 0.0
H12 H 0.11827 0.36501 0.36032 0.0
H13 H 0.20506 0.43275 0.33484 0.0
H14 H 0.21183 0.34853 0.28339 0.0
H15 H 0.15294 0.35711 0.32594 0.0
H16 H 0.16846 0.4187 0.30463 0.0
O17 O 0.09099 0.32411 0.23121 0.0
H18 H 0.16605 0.28148 0.21866 0.0
H19 H 0.09156 0.30437 0.1842 0.0
H20 H 0.24878 0.36167 0.31357 0.0
H21 H 0.07299 0.41066 0.30302 0.0
H22 H 0.24553 0.40407 0.33954 0.0
H23 H 0.07795 0.39197 0.34894 0.0
O24 O 0.18688 0.36464 0.2403 0.0
H25 H 0.07965 0.39897 0.17172 0.0
H26 H 0.15108 0.33071 0.16736 0.0
H27 H 0.14106 0.35804 0.12737 0.0
H28 H 0.10507 0.39244 0.12938 0.0
H29 H 0.0905 0.37136 0.21132 0.0
H30 H 0.09001 0.26219 0.15838 0.0
H31 H 0.12718 0.22929 0.16265 0.0
O32 O 0.16871 0.33214 0.21493 0.0
C33 C 0.15335 0.31166 0.27626 0.0
C34 C 0.14914 0.25337 0.19096 0.0
C35 C 0.1068 0.26628 0.17153 0.0
N36 N 0.12896 0.29545 0.20278 0.0
C37 C 0.14942 0.2774 0.20535 0.0
C38 C 0.10775 0.2901 0.18625 0.0
C39 C 0.12767 0.24783 0.17392 0.0
C40 C 0.11048 0.39413 0.2892 0.0
N41 N 0.13257 0.37921 0.2956 0.0
C42 C 0.09051 0.39894 0.30824 0.0
C43 C 0.09328 0.38841 0.33399 0.0
C44 C 0.11589 0.37327 0.34038 0.0
C45 C 0.13543 0.3688 0.32081 0.0
C46 C 0.2067 0.41421 0.32366 0.0
C47 C 0.21021 0.36693 0.29474 0.0
C48 C 0.18607 0.40619 0.30647 0.0
N49 N 0.18796 0.38276 0.29237 0.0
C50 C 0.23122 0.3743 0.31175 0.0
C51 C 0.2294 0.39811 0.32629 0.0
C52 C 0.18823 0.34723 0.22159 0.0
C53 C 0.09533 0.384 0.17057 0.0
C54 C 0.13547 0.3457 0.16844 0.0
C55 C 0.12983 0.36107 0.1457 0.0
C56 C 0.10963 0.38035 0.14684 0.0
N57 N 0.12133 0.34938 0.19164 0.0
C58 C 0.10149 0.36824 0.1929 0.0
Co59 Co 0.16337 0.62966 0.73647 0.0
Co60 Co 0.13173 0.66845 0.78427 0.0
O61 O 0.13347 0.63721 0.76071 0.0
C62 C 0.15937 0.58043 0.76966 0.0
O63 O 0.15785 0.5959 0.79091 0.0
C64 C 0.08075 0.67133 0.75372 0.0
O65 O 0.09388 0.66547 0.73166 0.0
O66 O 0.14081 0.69299 0.75408 0.0
O67 O 0.16595 0.66831 0.726 0.0
H68 H 0.16454 0.75549 0.82311 0.0
H69 H 0.11303 0.5983 0.73188 0.0
O70 O 0.16151 0.59076 0.74636 0.0
H71 H 0.12441 0.6426 0.64416 0.0
H72 H 0.21243 0.57526 0.66698 0.0
H73 H 0.21522 0.65605 0.72401 0.0
H74 H 0.15791 0.64888 0.68003 0.0
H75 H 0.17489 0.58584 0.69743 0.0
O76 O 0.09292 0.67285 0.77609 0.0
H77 H 0.16657 0.71573 0.79375 0.0
H78 H 0.09222 0.68797 0.82479 0.0
H79 H 0.25308 0.64637 0.69367 0.0
H80 H 0.07915 0.59129 0.69649 0.0
H81 H 0.25183 0.60571 0.66489 0.0
H82 H 0.08471 0.61359 0.65228 0.0
O83 O 0.1902 0.63569 0.76554 0.0
H84 H 0.08203 0.59249 0.82807 0.0
H85 H 0.1518 0.66156 0.84031 0.0
H86 H 0.14159 0.63044 0.87738 0.0
H87 H 0.10644 0.59561 0.87139 0.0
H88 H 0.09305 0.62388 0.79143 0.0
H89 H 0.08926 0.72758 0.8543 0.0
H90 H 0.12566 0.76162 0.85366 0.0
O91 O 0.17031 0.66502 0.79325 0.0
C92 C 0.15573 0.69057 0.73342 0.0
C93 C 0.14859 0.74077 0.82363 0.0
C94 C 0.10632 0.72511 0.8411 0.0
N95 N 0.12963 0.69946 0.80768 0.0
C96 C 0.14966 0.71818 0.8071 0.0
C97 C 0.10807 0.70276 0.8243 0.0
C98 C 0.12675 0.7442 0.84074 0.0
C99 C 0.11571 0.60787 0.71261 0.0
N100 N 0.13747 0.62389 0.70799 0.0
C101 C 0.09641 0.60391 0.69268 0.0
C102 C 0.09951 0.61647 0.66789 0.0
C103 C 0.12178 0.63276 0.66333 0.0
C104 C 0.14065 0.6363 0.68375 0.0
C105 C 0.21319 0.59306 0.67939 0.0
C106 C 0.21446 0.6384 0.71142 0.0
C107 C 0.19203 0.59911 0.69671 0.0
N108 N 0.1928 0.62163 0.71234 0.0
C109 C 0.23599 0.63299 0.69434 0.0
C110 C 0.23529 0.61016 0.67822 0.0
C111 C 0.19052 0.65138 0.78576 0.0
C112 C 0.09734 0.60762 0.83095 0.0
C113 C 0.13656 0.6464 0.83751 0.0
C114 C 0.13081 0.62888 0.8586 0.0
C115 C 0.11107 0.60936 0.85524 0.0
N116 N 0.12298 0.64459 0.81376 0.0
C117 C 0.10359 0.62552 0.81031 0.0
Co118 Co 0.82671 0.62564 0.27194 0.0
Co119 Co 0.86429 0.65931 0.22455 0.0
O120 O 0.85792 0.62902 0.24858 0.0
C121 C 0.82581 0.57584 0.23993 0.0
O122 O 0.83154 0.59001 0.21849 0.0
C123 C 0.91291 0.65762 0.2584 0.0
O124 O 0.89718 0.65575 0.27944 0.0
O125 O 0.85652 0.68575 0.25353 0.0
O126 O 0.82863 0.66413 0.28147 0.0
H127 H 0.84394 0.74828 0.18173 0.0
H128 H 0.87257 0.5884 0.27859 0.0
O129 O 0.82375 0.58697 0.26279 0.0
H130 H 0.86423 0.6354 0.36522 0.0
H131 H 0.76914 0.57936 0.34085 0.0
H132 H 0.77815 0.65847 0.28212 0.0
H133 H 0.83286 0.64512 0.32821 0.0
H134 H 0.80859 0.58448 0.31143 0.0
O135 O 0.90292 0.65921 0.23494 0.0
H136 H 0.83566 0.70992 0.21186 0.0
H137 H 0.90801 0.67304 0.18611 0.0
H138 H 0.73851 0.65429 0.31141 0.0
H139 H 0.90425 0.57792 0.31514 0.0
H140 H 0.73381 0.6145 0.34105 0.0
H141 H 0.90022 0.60156 0.35881 0.0
O142 O 0.80188 0.63441 0.242 0.0
H143 H 0.90711 0.57719 0.18479 0.0
H144 H 0.84593 0.65307 0.16793 0.0
H145 H 0.85417 0.62002 0.13206 0.0
H146 H 0.88498 0.58176 0.14038 0.0
H147 H 0.89814 0.61058 0.22017 0.0
H148 H 0.91721 0.71113 0.15588 0.0
H149 H 0.88498 0.74905 0.15347 0.0
O150 O 0.82584 0.66013 0.21379 0.0
C151 C 0.84086 0.68515 0.27376 0.0
C152 C 0.8581 0.73184 0.18254 0.0
C153 C 0.89924 0.71101 0.16806 0.0
N154 N 0.87123 0.68918 0.20059 0.0
C155 C 0.85348 0.71003 0.19951 0.0
C156 C 0.89395 0.68952 0.18526 0.0
C157 C 0.88114 0.73227 0.16671 0.0
C158 C 0.87054 0.59859 0.29762 0.0
N159 N 0.85081 0.61724 0.30131 0.0
C160 C 0.8886 0.59265 0.31821 0.0
C161 C 0.88636 0.60595 0.34269 0.0
C162 C 0.86618 0.62495 0.3463 0.0
C163 C 0.84851 0.63041 0.32525 0.0
C164 C 0.77098 0.59682 0.32807 0.0
C165 C 0.77634 0.64118 0.29508 0.0
C166 C 0.79325 0.59979 0.31133 0.0
N167 N 0.79577 0.62185 0.29523 0.0
C168 C 0.75381 0.63888 0.31157 0.0
C169 C 0.75117 0.61654 0.32817 0.0
C170 C 0.8039 0.64941 0.22136 0.0
C171 C 0.89371 0.59382 0.18089 0.0
C172 C 0.85931 0.63644 0.17173 0.0
C173 C 0.86395 0.61783 0.15132 0.0
C174 C 0.88125 0.59637 0.15599 0.0
N175 N 0.87163 0.63382 0.19609 0.0
C176 C 0.88865 0.61285 0.20081 0.0
Co177 Co 0.86696 0.33715 0.76213 0.0
Co178 Co 0.83413 0.3787 0.71792 0.0
O179 O 0.86475 0.37002 0.7409 0.0
C180 C 0.91952 0.33776 0.73308 0.0
O181 O 0.90726 0.34416 0.71066 0.0
C182 C 0.83952 0.42823 0.75106 0.0
O183 O 0.83952 0.41357 0.77296 0.0
O184 O 0.8084 0.37242 0.74801 0.0
O185 O 0.82799 0.33892 0.77082 0.0
H186 H 0.74235 0.36495 0.67853 0.0
H187 H 0.90372 0.38256 0.77298 0.0
O188 O 0.90622 0.33446 0.75462 0.0
H189 H 0.85556 0.36717 0.85799 0.0
H190 H 0.90967 0.27378 0.82828 0.0
H191 H 0.83327 0.28842 0.76717 0.0
H192 H 0.84672 0.33867 0.81856 0.0
H193 H 0.90614 0.31556 0.80201 0.0
O194 O 0.83744 0.41723 0.72812 0.0
H195 H 0.78119 0.35377 0.70706 0.0
H196 H 0.82208 0.42351 0.6801 0.0
H197 H 0.83587 0.24646 0.79324 0.0
H198 H 0.91343 0.41138 0.812 0.0
H199 H 0.8743 0.23892 0.82406 0.0
H200 H 0.8892 0.40381 0.85487 0.0
O201 O 0.85893 0.31483 0.72989 0.0
H202 H 0.91762 0.41594 0.67541 0.0
H203 H 0.83677 0.36082 0.6608 0.0
H204 H 0.86889 0.36721 0.62374 0.0
H205 H 0.90965 0.39498 0.63092 0.0
H206 H 0.8851 0.40882 0.712 0.0
H207 H 0.7836 0.43556 0.65144 0.0
H208 H 0.7434 0.40611 0.65046 0.0
O209 O 0.83017 0.34056 0.70674 0.0
C210 C 0.80801 0.35407 0.76589 0.0
C211 C 0.75977 0.37791 0.67874 0.0
C212 C 0.78291 0.41756 0.66357 0.0
N213 N 0.80393 0.38789 0.69515 0.0
C214 C 0.78185 0.37165 0.69481 0.0
C215 C 0.80461 0.41067 0.67989 0.0
C216 C 0.76036 0.40102 0.66301 0.0
C217 C 0.89322 0.37903 0.79162 0.0
N218 N 0.87464 0.35895 0.79347 0.0
C219 C 0.89875 0.39547 0.81362 0.0
C220 C 0.88512 0.39123 0.83766 0.0
C221 C 0.86623 0.37069 0.83941 0.0
C222 C 0.8612 0.35469 0.81698 0.0
C223 C 0.89282 0.27683 0.81493 0.0
C224 C 0.84999 0.28535 0.78063 0.0
C225 C 0.89077 0.30041 0.79993 0.0
N226 N 0.86948 0.30447 0.78314 0.0
C227 C 0.85138 0.26152 0.7953 0.0
C228 C 0.87296 0.25729 0.81257 0.0
C229 C 0.84186 0.31827 0.71109 0.0
C230 C 0.8999 0.40385 0.67202 0.0
C231 C 0.85451 0.37283 0.66413 0.0
C232 C 0.87259 0.37645 0.64304 0.0
C233 C 0.89544 0.39205 0.64707 0.0
N234 N 0.85901 0.38448 0.68854 0.0
C235 C 0.88136 0.39983 0.69263 0.0
Co236 Co 0.2293 0.11875 0.3236 0.0
Co237 Co 0.26453 0.16321 0.36313 0.0
O238 O 0.2482 0.12815 0.35667 0.0
C239 C 0.26919 0.07492 0.33019 0.0
O240 O 0.28734 0.09243 0.33774 0.0
C241 C 0.22921 0.15538 0.4106 0.0
O242 O 0.20995 0.14727 0.39457 0.0
O243 O 0.23097 0.18204 0.35244 0.0
O244 O 0.21256 0.15484 0.32168 0.0
H245 H 0.28748 0.25884 0.341 0.0
H246 H 0.22461 0.08347 0.37124 0.0
O247 O 0.24545 0.0823 0.32441 0.0
H248 H 0.13225 0.11257 0.35105 0.0
H249 H 0.1767 0.05713 0.26324 0.0
H250 H 0.21867 0.14632 0.27194 0.0
H251 H 0.17003 0.12745 0.3228 0.0
H252 H 0.20009 0.06995 0.30491 0.0
O253 O 0.25192 0.16226 0.40112 0.0
H254 H 0.26742 0.21435 0.33288 0.0
H255 H 0.29612 0.18675 0.40821 0.0
H256 H 0.19527 0.13441 0.23001 0.0
H257 H 0.18738 0.06792 0.39989 0.0
H258 H 0.17408 0.08953 0.22546 0.0
H259 H 0.14081 0.08255 0.3899 0.0
O260 O 0.25976 0.13163 0.3012 0.0
H261 H 0.31832 0.09388 0.41272 0.0
H262 H 0.32238 0.16926 0.34879 0.0
H263 H 0.364 0.14559 0.36116 0.0
H264 H 0.36214 0.10763 0.3934 0.0
H265 H 0.27714 0.11793 0.39956 0.0
H266 H 0.3163 0.23102 0.41726 0.0
H267 H 0.31213 0.26741 0.38346 0.0
O268 O 0.27769 0.16511 0.32539 0.0
C269 C 0.21364 0.177 0.3343 0.0
C270 C 0.2895 0.24313 0.35585 0.0
C271 C 0.30564 0.22753 0.39867 0.0
N272 N 0.28073 0.19793 0.36998 0.0
C273 C 0.27824 0.21787 0.35133 0.0
C274 C 0.29412 0.20252 0.39346 0.0
C275 C 0.3033 0.24793 0.37969 0.0
C276 C 0.20437 0.08972 0.36662 0.0
N277 N 0.1995 0.10626 0.34531 0.0
C278 C 0.18338 0.08093 0.38297 0.0
C279 C 0.15727 0.08919 0.37738 0.0
C280 C 0.15245 0.10605 0.3556 0.0
C281 C 0.17394 0.11447 0.33972 0.0
C282 C 0.18581 0.07677 0.265 0.0
C283 C 0.20936 0.12681 0.27018 0.0
C284 C 0.19913 0.08412 0.28852 0.0
N285 N 0.21058 0.10893 0.29093 0.0
C286 C 0.1962 0.12015 0.24636 0.0
C287 C 0.18434 0.09496 0.24381 0.0
C288 C 0.27573 0.15145 0.30386 0.0
C289 C 0.3194 0.11043 0.39871 0.0
C290 C 0.32138 0.15268 0.36271 0.0
C291 C 0.34503 0.1394 0.36971 0.0
C292 C 0.34397 0.11813 0.38782 0.0
N293 N 0.29735 0.14502 0.37348 0.0
C294 C 0.29616 0.1242 0.39127 0.0
Co295 Co 0.3403 0.76795 0.87923 0.0
Co296 Co 0.37173 0.72649 0.83394 0.0
O297 O 0.37113 0.74702 0.86719 0.0
C298 C 0.35112 0.73329 0.92662 0.0
O299 O 0.34828 0.71177 0.9117 0.0
C300 C 0.4197 0.76099 0.82963 0.0
O301 O 0.40522 0.78136 0.83793 0.0
O302 O 0.35899 0.75806 0.8132 0.0
O303 O 0.33237 0.78015 0.842 0.0
H304 H 0.33437 0.69343 0.74635 0.0
H305 H 0.39354 0.77579 0.90474 0.0
O306 O 0.34795 0.7566 0.91673 0.0
H307 H 0.36872 0.86429 0.86819 0.0
H308 H 0.29167 0.82917 0.94312 0.0
H309 H 0.28485 0.77675 0.85951 0.0
H310 H 0.3382 0.82566 0.86337 0.0
H311 H 0.33037 0.80321 0.92652 0.0
O312 O 0.40944 0.73772 0.82747 0.0
H313 H 0.33379 0.7189 0.78876 0.0
H314 H 0.41194 0.69077 0.80772 0.0
H315 H 0.24573 0.80257 0.87529 0.0
H316 H 0.42454 0.81395 0.91022 0.0
H317 H 0.249 0.82903 0.91739 0.0
H318 H 0.41223 0.85858 0.89179 0.0
O319 O 0.31569 0.73676 0.87411 0.0
H320 H 0.42959 0.67951 0.90174 0.0
H321 H 0.35572 0.66883 0.83682 0.0
H322 H 0.37054 0.62985 0.86343 0.0
H323 H 0.40778 0.63505 0.89614 0.0
H324 H 0.41397 0.71802 0.87485 0.0
H325 H 0.41348 0.66519 0.76539 0.0
H326 H 0.37444 0.66633 0.73443 0.0
O327 O 0.33411 0.71481 0.83941 0.0
C328 C 0.34193 0.77634 0.81862 0.0
C329 C 0.35147 0.6927 0.75971 0.0
C330 C 0.39589 0.67688 0.77038 0.0
N331 N 0.37271 0.70615 0.80079 0.0
C332 C 0.35123 0.70702 0.78379 0.0
C333 C 0.39493 0.69145 0.79429 0.0
C334 C 0.37397 0.67752 0.75303 0.0
C335 C 0.3879 0.79521 0.89691 0.0
N336 N 0.36401 0.7985 0.88386 0.0
C337 C 0.4056 0.81672 0.89997 0.0
C338 C 0.3987 0.84174 0.88959 0.0
C339 C 0.3743 0.84495 0.87632 0.0
C340 C 0.35712 0.82298 0.8736 0.0
C341 C 0.29001 0.81776 0.92473 0.0
C342 C 0.28648 0.78834 0.87777 0.0
C343 C 0.31184 0.80298 0.91526 0.0
N344 N 0.30992 0.78863 0.89197 0.0
C345 C 0.26424 0.80287 0.88664 0.0
C346 C 0.26608 0.81768 0.91027 0.0
C347 C 0.31503 0.71877 0.85589 0.0
C348 C 0.41339 0.67698 0.88751 0.0
C349 C 0.37186 0.67128 0.85108 0.0
C350 C 0.38022 0.64912 0.86604 0.0
C351 C 0.40112 0.65205 0.88438 0.0
N352 N 0.38404 0.69565 0.85421 0.0
C353 C 0.40452 0.69868 0.87217 0.0
Co354 Co 0.76661 0.86767 0.33359 0.0
Co355 Co 0.72101 0.83345 0.37285 0.0
O356 O 0.74615 0.86288 0.36672 0.0
C357 C 0.73897 0.92 0.34045 0.0
O358 O 0.71604 0.90751 0.34398 0.0
C359 C 0.75847 0.82923 0.4187 0.0
O360 O 0.77863 0.83461 0.40266 0.0
O361 O 0.74782 0.80653 0.36061 0.0
O362 O 0.77381 0.82863 0.33124 0.0
H363 H 0.6718 0.74883 0.34876 0.0
H364 H 0.78028 0.89983 0.38179 0.0
O365 O 0.76029 0.90693 0.33548 0.0
H366 H 0.86236 0.84914 0.36003 0.0
H367 H 0.83253 0.91509 0.27347 0.0
H368 H 0.77007 0.83879 0.2817 0.0
H369 H 0.82185 0.84456 0.33204 0.0
H370 H 0.80679 0.90805 0.31513 0.0
O371 O 0.73446 0.82906 0.41009 0.0
H372 H 0.7032 0.78634 0.34122 0.0
H373 H 0.68558 0.81769 0.41845 0.0
H374 H 0.79555 0.84496 0.23976 0.0
H375 H 0.82045 0.90522 0.41015 0.0
H376 H 0.82706 0.88334 0.23545 0.0
H377 H 0.86185 0.87969 0.39938 0.0
O378 O 0.73379 0.86306 0.31108 0.0
H379 H 0.69045 0.91357 0.42569 0.0
H380 H 0.66322 0.84392 0.36096 0.0
H381 H 0.63031 0.87791 0.37538 0.0
H382 H 0.64386 0.91304 0.40801 0.0
H383 H 0.72277 0.87931 0.41054 0.0
H384 H 0.65417 0.78039 0.42693 0.0
H385 H 0.64704 0.74569 0.39189 0.0
O386 O 0.70694 0.83671 0.33582 0.0
C387 C 0.7666 0.8073 0.34326 0.0
C388 C 0.67466 0.76388 0.36415 0.0
C389 C 0.6648 0.78157 0.40804 0.0
N390 N 0.69603 0.80431 0.37927 0.0
C391 C 0.69235 0.7852 0.35996 0.0
C392 C 0.68264 0.80262 0.40314 0.0
C393 C 0.6608 0.76211 0.38836 0.0
C394 C 0.79829 0.88884 0.37681 0.0
N395 N 0.79872 0.87196 0.35521 0.0
C396 C 0.82095 0.89189 0.39301 0.0
C397 C 0.84415 0.87753 0.38699 0.0
C398 C 0.84445 0.86037 0.36492 0.0
C399 C 0.8214 0.8578 0.34919 0.0
C400 C 0.81889 0.89827 0.27511 0.0
C401 C 0.78383 0.85547 0.28003 0.0
C402 C 0.8042 0.89423 0.29863 0.0
N403 N 0.78704 0.87296 0.30089 0.0
C404 C 0.79816 0.8589 0.25621 0.0
C405 C 0.81582 0.88045 0.25379 0.0
C406 C 0.71265 0.84894 0.31416 0.0
C407 C 0.68429 0.89834 0.4115 0.0
C408 C 0.6693 0.85921 0.37505 0.0
C409 C 0.65055 0.87836 0.38322 0.0
C410 C 0.65816 0.89805 0.40155 0.0
N411 N 0.69487 0.85961 0.38493 0.0
C412 C 0.70247 0.87884 0.40291 0.0
Co413 Co 0.66262 0.24189 0.87562 0.0
Co414 Co 0.62817 0.27692 0.82724 0.0
O415 O 0.63102 0.26131 0.86305 0.0
C416 C 0.65822 0.28126 0.92115 0.0
O417 O 0.66308 0.30167 0.90521 0.0
C418 C 0.57858 0.24384 0.8318 0.0
O419 O 0.59302 0.22406 0.84148 0.0
O420 O 0.63895 0.24237 0.81026 0.0
O421 O 0.66829 0.22527 0.83979 0.0
H422 H 0.65915 0.29632 0.73331 0.0
H423 H 0.6112 0.23741 0.90522 0.0
O424 O 0.65743 0.25743 0.91205 0.0
H425 H 0.63418 0.14494 0.8787 0.0
H426 H 0.71572 0.18878 0.9432 0.0
H427 H 0.71674 0.2306 0.85355 0.0
H428 H 0.66408 0.1826 0.86708 0.0
H429 H 0.67584 0.21251 0.9261 0.0
O430 O 0.58962 0.26598 0.82536 0.0
H431 H 0.6627 0.27724 0.77881 0.0
H432 H 0.58655 0.30954 0.79918 0.0
H433 H 0.75698 0.20689 0.8698 0.0
H434 H 0.58088 0.20031 0.91751 0.0
H435 H 0.75664 0.18578 0.91494 0.0
H436 H 0.59225 0.15368 0.90415 0.0
O437 O 0.6866 0.27219 0.86502 0.0
H438 H 0.57649 0.33455 0.89173 0.0
H439 H 0.64496 0.33402 0.82039 0.0
H440 H 0.63273 0.37678 0.842 0.0
H441 H 0.5982 0.37723 0.87791 0.0
H442 H 0.58951 0.2922 0.86971 0.0
H443 H 0.58207 0.32879 0.7538 0.0
H444 H 0.61859 0.3223 0.72055 0.0
O445 O 0.66647 0.28846 0.82815 0.0
C446 C 0.65702 0.22548 0.81688 0.0
C447 C 0.64313 0.29934 0.74764 0.0
C448 C 0.59984 0.31752 0.75913 0.0
N449 N 0.62491 0.29238 0.79167 0.0
C450 C 0.64505 0.28864 0.77346 0.0
C451 C 0.60246 0.30651 0.78477 0.0
C452 C 0.62035 0.31389 0.74049 0.0
C453 C 0.61642 0.21715 0.89953 0.0
N454 N 0.63943 0.21219 0.88547 0.0
C455 C 0.59911 0.19623 0.90647 0.0
C456 C 0.60549 0.17009 0.89893 0.0
C457 C 0.62899 0.16517 0.88462 0.0
C458 C 0.6458 0.18659 0.87801 0.0
C459 C 0.7161 0.19787 0.92349 0.0
C460 C 0.71637 0.22134 0.87316 0.0
C461 C 0.6936 0.21139 0.91371 0.0
N462 N 0.6939 0.22282 0.88878 0.0
C463 C 0.73925 0.208 0.88228 0.0
C464 C 0.73905 0.19618 0.90761 0.0
C465 C 0.68641 0.28701 0.8441 0.0
C466 C 0.59153 0.33462 0.87607 0.0
C467 C 0.63003 0.33402 0.83608 0.0
C468 C 0.62312 0.35832 0.8482 0.0
C469 C 0.60374 0.35856 0.86833 0.0
N470 N 0.61791 0.31064 0.84373 0.0
C471 C 0.59893 0.31071 0.86349 0.0
Co472 Co 0.27398 0.83033 0.62376 0.0
Co473 Co 0.23567 0.86771 0.66691 0.0
O474 O 0.25435 0.86277 0.63302 0.0
C475 C 0.23868 0.8387 0.5763 0.0
O476 O 0.2174 0.83853 0.59182 0.0
C477 C 0.27034 0.91585 0.66264 0.0
O478 O 0.29075 0.8998 0.65827 0.0
O479 O 0.26834 0.85745 0.68752 0.0
O480 O 0.28686 0.82588 0.66128 0.0
H481 H 0.20689 0.84251 0.76017 0.0
H482 H 0.28261 0.88082 0.59337 0.0
O483 O 0.26195 0.83459 0.58594 0.0
H484 H 0.37156 0.85617 0.6289 0.0
H485 H 0.3319 0.77333 0.5638 0.0
H486 H 0.28184 0.77701 0.64903 0.0
H487 H 0.33217 0.82758 0.6377 0.0
H488 H 0.30747 0.81433 0.57684 0.0
O489 O 0.2471 0.90618 0.6671 0.0
H490 H 0.23009 0.83602 0.71698 0.0
H491 H 0.20173 0.91149 0.68942 0.0
H492 H 0.30614 0.73569 0.63687 0.0
H493 H 0.32151 0.90984 0.58383 0.0
H494 H 0.33141 0.73367 0.59397 0.0
H495 H 0.36637 0.89762 0.60173 0.0
O496 O 0.24217 0.80753 0.63232 0.0
H497 H 0.18464 0.91611 0.59469 0.0
H498 H 0.1781 0.85149 0.66932 0.0
H499 H 0.13761 0.86268 0.6432 0.0
H500 H 0.14072 0.89525 0.60561 0.0
H501 H 0.22468 0.90418 0.62119 0.0
H502 H 0.17838 0.91891 0.73242 0.0
H503 H 0.1808 0.88421 0.76811 0.0
O504 O 0.22386 0.82942 0.66719 0.0
C505 C 0.28501 0.83844 0.68346 0.0
C506 C 0.20563 0.85775 0.74475 0.0
C507 C 0.18966 0.90064 0.72919 0.0
N508 N 0.21714 0.87328 0.70065 0.0
C509 C 0.21867 0.85416 0.72022 0.0
C510 C 0.20298 0.89637 0.70491 0.0
C511 C 0.19102 0.88116 0.7492 0.0
C512 C 0.30211 0.8752 0.60099 0.0
N513 N 0.30511 0.85243 0.61597 0.0
C514 C 0.32404 0.89178 0.59562 0.0
C515 C 0.3492 0.88494 0.60571 0.0
C516 C 0.35212 0.8617 0.62097 0.0
C517 C 0.32972 0.84562 0.62596 0.0
C518 C 0.32098 0.77398 0.58256 0.0
C519 C 0.29289 0.77634 0.63039 0.0
C520 C 0.30706 0.79711 0.59001 0.0
N521 N 0.29336 0.79811 0.61374 0.0
C522 C 0.30656 0.75286 0.62358 0.0
C523 C 0.32071 0.75173 0.5995 0.0
C524 C 0.22611 0.80874 0.65227 0.0
C525 C 0.18301 0.90195 0.61107 0.0
C526 C 0.17964 0.86562 0.65295 0.0
C527 C 0.15662 0.87192 0.63827 0.0
C528 C 0.15838 0.89021 0.61719 0.0
N529 N 0.20371 0.87727 0.64687 0.0
C530 C 0.20559 0.89519 0.62621 0.0
Co531 Co 0.62764 0.73811 0.16733 0.0
Co532 Co 0.66229 0.77427 0.11992 0.0
O533 O 0.63063 0.75481 0.13216 0.0
C534 C 0.57922 0.77245 0.16385 0.0
O535 O 0.59431 0.7921 0.15491 0.0
C536 C 0.65454 0.73374 0.07703 0.0
O537 O 0.65572 0.71459 0.09507 0.0
O538 O 0.68629 0.74408 0.13026 0.0
O539 O 0.66556 0.72576 0.16579 0.0
H540 H 0.75654 0.80956 0.12604 0.0
H541 H 0.58849 0.72513 0.12452 0.0
O542 O 0.58951 0.74983 0.16969 0.0
H543 H 0.62984 0.63872 0.14919 0.0
H544 H 0.5807 0.68498 0.23931 0.0
H545 H 0.66226 0.73574 0.21561 0.0
H546 H 0.643 0.68041 0.17232 0.0
H547 H 0.58544 0.70548 0.19452 0.0
O548 O 0.65727 0.75825 0.08371 0.0
H549 H 0.71639 0.7855 0.14209 0.0
H550 H 0.6755 0.80371 0.06958 0.0
H551 H 0.65846 0.71538 0.26055 0.0
H552 H 0.57455 0.68388 0.10101 0.0
H553 H 0.61743 0.68978 0.27265 0.0
H554 H 0.59533 0.64029 0.11327 0.0
O555 O 0.63917 0.77186 0.18522 0.0
H556 H 0.58092 0.81599 0.07745 0.0
H557 H 0.6634 0.83339 0.12925 0.0
H558 H 0.63354 0.87108 0.11764 0.0
H559 H 0.59199 0.86249 0.09151 0.0
H560 H 0.61119 0.77885 0.0897 0.0
H561 H 0.71529 0.8278 0.05266 0.0
H562 H 0.75615 0.83093 0.08103 0.0
O563 O 0.66775 0.79074 0.15596 0.0
C564 C 0.68564 0.72797 0.15013 0.0
C565 C 0.73883 0.80842 0.11354 0.0
C566 C 0.71569 0.81863 0.07234 0.0
N567 N 0.69355 0.79343 0.10689 0.0
C568 C 0.716 0.7949 0.12255 0.0
C569 C 0.69324 0.80493 0.082 0.0
C570 C 0.7386 0.82038 0.08827 0.0
C571 C 0.59749 0.7062 0.1301 0.0
N572 N 0.6165 0.70518 0.14982 0.0
C573 C 0.58957 0.68293 0.11666 0.0
C574 C 0.60126 0.65848 0.12352 0.0
C575 C 0.62064 0.65759 0.14366 0.0
C576 C 0.62808 0.68128 0.15664 0.0
C577 C 0.59869 0.69604 0.23427 0.0
C578 C 0.64442 0.72449 0.22068 0.0
C579 C 0.60146 0.70775 0.20896 0.0
N580 N 0.62418 0.72163 0.20241 0.0
C581 C 0.64235 0.71307 0.24618 0.0
C582 C 0.61931 0.69874 0.25296 0.0
C583 C 0.65673 0.78942 0.17898 0.0
C584 C 0.59901 0.82 0.08877 0.0
C585 C 0.64531 0.82947 0.11795 0.0
C586 C 0.62851 0.85091 0.11138 0.0
C587 C 0.60521 0.84608 0.0967 0.0
N588 N 0.63911 0.80395 0.11006 0.0
C589 C 0.61629 0.79906 0.09567 0.0
Co590 Co 0.7367 0.15937 0.63039 0.0
Co591 Co 0.77065 0.12223 0.67747 0.0
O592 O 0.75366 0.12611 0.64236 0.0
C593 C 0.77229 0.15092 0.5822 0.0
O594 O 0.79425 0.15521 0.5961 0.0
C595 C 0.73511 0.07418 0.67365 0.0
O596 O 0.71597 0.08881 0.66305 0.0
O597 O 0.73767 0.13562 0.69579 0.0
O598 O 0.7228 0.16688 0.66701 0.0
H599 H 0.79619 0.15226 0.77023 0.0
H600 H 0.72556 0.10819 0.60209 0.0
O601 O 0.74932 0.15216 0.5932 0.0
H602 H 0.63733 0.14077 0.63263 0.0
H603 H 0.68504 0.21684 0.56526 0.0
H604 H 0.73187 0.21446 0.65236 0.0
H605 H 0.67833 0.16686 0.6418 0.0
H606 H 0.7059 0.17501 0.58142 0.0
O607 O 0.75737 0.08468 0.68032 0.0
H608 H 0.77546 0.15688 0.72555 0.0
H609 H 0.80158 0.07857 0.70445 0.0
H610 H 0.71113 0.25665 0.63704 0.0
H611 H 0.68504 0.08165 0.59211 0.0
H612 H 0.68749 0.25803 0.59319 0.0
H613 H 0.64052 0.09785 0.60752 0.0
O614 O 0.7698 0.18046 0.63889 0.0
H615 H 0.82088 0.0667 0.61007 0.0
H616 H 0.82932 0.13385 0.68213 0.0
H617 H 0.86989 0.11844 0.65844 0.0
H618 H 0.86581 0.08455 0.62214 0.0
H619 H 0.78082 0.0829 0.63413 0.0
H620 H 0.8224 0.07303 0.74899 0.0
H621 H 0.81987 0.11009 0.78219 0.0
O622 O 0.78495 0.15939 0.67569 0.0
C623 C 0.72249 0.15538 0.68981 0.0
C624 C 0.79749 0.136 0.75591 0.0
C625 C 0.81216 0.09151 0.744 0.0
N626 N 0.78742 0.11808 0.71236 0.0
C627 C 0.78584 0.13852 0.73055 0.0
C628 C 0.80026 0.09474 0.71884 0.0
C629 C 0.81075 0.11232 0.76262 0.0
C630 C 0.70625 0.11552 0.60865 0.0
N631 N 0.70435 0.13907 0.62256 0.0
C632 C 0.68337 0.10034 0.60303 0.0
C633 C 0.65841 0.10942 0.61172 0.0
C634 C 0.65662 0.13347 0.62584 0.0
C635 C 0.67993 0.14811 0.63111 0.0
C636 C 0.69526 0.21649 0.58441 0.0
C637 C 0.72153 0.21485 0.63331 0.0
C638 C 0.70719 0.19287 0.59364 0.0
N639 N 0.72001 0.19224 0.61788 0.0
C640 C 0.70987 0.23882 0.62471 0.0
C641 C 0.69663 0.23959 0.6001 0.0
C642 C 0.78512 0.17908 0.65941 0.0
C643 C 0.82292 0.08146 0.62585 0.0
C644 C 0.82736 0.1193 0.66624 0.0
C645 C 0.85042 0.11054 0.65296 0.0
C646 C 0.84812 0.09151 0.63262 0.0
N647 N 0.80271 0.10936 0.65951 0.0
C648 C 0.80032 0.09068 0.63959 0.0
Co649 Co 0.37629 0.28523 0.17049 0.0
Co650 Co 0.34607 0.23813 0.12983 0.0
O651 O 0.37517 0.26282 0.13845 0.0
C652 C 0.42672 0.25443 0.17278 0.0
O653 O 0.41263 0.23281 0.16751 0.0
C654 C 0.34924 0.27299 0.08166 0.0
O655 O 0.34908 0.29393 0.09763 0.0
O656 O 0.31858 0.2663 0.13658 0.0
O657 O 0.33746 0.2936 0.16707 0.0
H658 H 0.25723 0.19261 0.14395 0.0
H659 H 0.41523 0.2946 0.12651 0.0
O660 O 0.41524 0.27717 0.17466 0.0
H661 H 0.36504 0.37935 0.13558 0.0
H662 H 0.4178 0.35352 0.23225 0.0
H663 H 0.34093 0.29295 0.21771 0.0
H664 H 0.35524 0.34101 0.16528 0.0
H665 H 0.41537 0.32525 0.19171 0.0
O666 O 0.34824 0.24935 0.09138 0.0
H667 H 0.29419 0.22357 0.15509 0.0
H668 H 0.33601 0.20031 0.08461 0.0
H669 H 0.34242 0.32105 0.25839 0.0
H670 H 0.42583 0.33251 0.09652 0.0
H671 H 0.38108 0.35161 0.26588 0.0
H672 H 0.40059 0.37524 0.10092 0.0
O673 O 0.36734 0.25423 0.19402 0.0
H674 H 0.43179 0.20149 0.09154 0.0
H675 H 0.35265 0.18128 0.14736 0.0
H676 H 0.38716 0.14649 0.14056 0.0
H677 H 0.42708 0.15651 0.11248 0.0
H678 H 0.3969 0.23575 0.09901 0.0
H679 H 0.29938 0.16927 0.07257 0.0
H680 H 0.25968 0.16519 0.10242 0.0
O681 O 0.34319 0.22646 0.16803 0.0
C682 C 0.31753 0.28586 0.15306 0.0
C683 C 0.27445 0.19415 0.13082 0.0
C684 C 0.29809 0.18108 0.09075 0.0
N685 N 0.31732 0.21359 0.12063 0.0
C686 C 0.29548 0.21159 0.13707 0.0
C687 C 0.31874 0.19873 0.09763 0.0
C688 C 0.27583 0.17879 0.10751 0.0
C689 C 0.40433 0.31321 0.1287 0.0
N690 N 0.38474 0.31563 0.14771 0.0
C691 C 0.41035 0.33457 0.1116 0.0
C692 C 0.39615 0.35853 0.11405 0.0
C693 C 0.37619 0.36084 0.13348 0.0
C694 C 0.37069 0.33904 0.15021 0.0
C695 C 0.40083 0.34032 0.2292 0.0
C696 C 0.35774 0.30632 0.22074 0.0
C697 C 0.39938 0.32422 0.20631 0.0
N698 N 0.37794 0.30761 0.20227 0.0
C699 C 0.35851 0.32212 0.24386 0.0
C700 C 0.38022 0.33924 0.24805 0.0
C701 C 0.35272 0.23347 0.19071 0.0
C702 C 0.41445 0.19685 0.10376 0.0
C703 C 0.36998 0.18581 0.13514 0.0
C704 C 0.38943 0.16601 0.13132 0.0
C705 C 0.41181 0.17164 0.11554 0.0
N706 N 0.37271 0.21049 0.1235 0.0
C707 C 0.39457 0.21614 0.10797 0.0
Co708 Co 0.8758 0.674 0.78245 0.0
Co709 Co 0.83433 0.63621 0.74218 0.0
O710 O 0.86795 0.64196 0.76135 0.0
C711 C 0.92165 0.67026 0.74486 0.0
O712 O 0.90468 0.66557 0.72527 0.0
C713 C 0.83935 0.5866 0.77521 0.0
O714 O 0.84282 0.60133 0.79678 0.0
O715 O 0.81302 0.64496 0.77488 0.0
O716 O 0.83855 0.675 0.79668 0.0
H717 H 0.7404 0.65874 0.7134 0.0
H718 H 0.91056 0.626 0.78717 0.0
O719 O 0.9133 0.67383 0.76872 0.0
H720 H 0.8755 0.64195 0.87827 0.0
H721 H 0.93348 0.7318 0.84192 0.0
H722 H 0.84732 0.72498 0.79376 0.0
H723 H 0.86321 0.67202 0.84096 0.0
H724 H 0.92242 0.69129 0.81574 0.0
O725 O 0.83524 0.59758 0.75253 0.0
H726 H 0.78323 0.66619 0.73702 0.0
H727 H 0.81359 0.59251 0.70689 0.0
H728 H 0.85745 0.76575 0.81991 0.0
H729 H 0.92354 0.59553 0.82394 0.0
H730 H 0.90081 0.76935 0.84421 0.0
H731 H 0.90592 0.6034 0.86987 0.0
O732 O 0.86498 0.69789 0.75231 0.0
H733 H 0.90847 0.59102 0.69099 0.0
H734 H 0.83184 0.65321 0.68479 0.0
H735 H 0.85867 0.64359 0.64438 0.0
H736 H 0.89727 0.61223 0.64732 0.0
H737 H 0.88128 0.60145 0.73097 0.0
H738 H 0.77101 0.58416 0.68309 0.0
H739 H 0.73408 0.61747 0.68619 0.0
O740 O 0.83291 0.67457 0.73096 0.0
C741 C 0.81663 0.66229 0.7934 0.0
C742 C 0.75636 0.64411 0.71183 0.0
C743 C 0.77353 0.60224 0.69485 0.0
N744 N 0.80094 0.6299 0.7232 0.0
C745 C 0.78069 0.64826 0.7251 0.0
C746 C 0.79757 0.60704 0.70842 0.0
C747 C 0.75283 0.62094 0.69659 0.0
C748 C 0.90298 0.62967 0.80714 0.0
N749 N 0.88623 0.65082 0.81193 0.0
C750 C 0.91033 0.6123 0.82786 0.0
C751 C 0.9004 0.6167 0.85362 0.0
C752 C 0.88332 0.63832 0.85834 0.0
C753 C 0.87637 0.65524 0.83712 0.0
C754 C 0.9145 0.73045 0.83146 0.0
C755 C 0.86616 0.72633 0.80442 0.0
C756 C 0.90816 0.70759 0.81654 0.0
N757 N 0.88418 0.70571 0.80337 0.0
C758 C 0.87181 0.74949 0.81913 0.0
C759 C 0.89616 0.75151 0.83274 0.0
C760 C 0.84639 0.69596 0.73483 0.0
C761 C 0.89166 0.60467 0.68944 0.0
C762 C 0.8487 0.63969 0.68627 0.0
C763 C 0.86376 0.63423 0.6633 0.0
C764 C 0.8854 0.61662 0.66496 0.0
N765 N 0.85496 0.62791 0.71023 0.0
C766 C 0.87613 0.61058 0.71199 0.0
Co767 Co 0.83656 0.37455 0.27275 0.0
Co768 Co 0.87221 0.33107 0.23232 0.0
O769 O 0.86766 0.36531 0.25083 0.0
C770 C 0.83883 0.41824 0.23245 0.0
O771 O 0.84463 0.40069 0.2137 0.0
C772 C 0.92021 0.33531 0.26691 0.0
O773 O 0.90453 0.34283 0.28668 0.0
O774 O 0.86183 0.31051 0.265 0.0
O775 O 0.83627 0.33841 0.28933 0.0
H776 H 0.84569 0.23797 0.20422 0.0
H777 H 0.88448 0.40972 0.27315 0.0
O778 O 0.83581 0.411 0.25673 0.0
H779 H 0.87301 0.38009 0.36683 0.0
H780 H 0.78132 0.43577 0.33105 0.0
H781 H 0.78612 0.34687 0.28792 0.0
H782 H 0.84125 0.36555 0.33179 0.0
H783 H 0.82067 0.42312 0.30387 0.0
O784 O 0.91043 0.32992 0.24394 0.0
H785 H 0.83986 0.28141 0.22717 0.0
H786 H 0.91553 0.30783 0.19824 0.0
H787 H 0.74651 0.35859 0.31515 0.0
H788 H 0.91661 0.42491 0.30759 0.0
H789 H 0.74394 0.40334 0.33693 0.0
H790 H 0.91102 0.41001 0.35481 0.0
O791 O 0.8114 0.36198 0.2444 0.0
H792 H 0.92249 0.40201 0.18131 0.0
H793 H 0.85602 0.32902 0.17471 0.0
H794 H 0.8679 0.35485 0.13423 0.0
H795 H 0.90139 0.39163 0.13738 0.0
H796 H 0.90984 0.37582 0.22134 0.0
H797 H 0.92229 0.26458 0.17516 0.0
H798 H 0.88716 0.22934 0.17798 0.0
O799 O 0.83417 0.33148 0.22031 0.0
C800 C 0.84692 0.31562 0.28515 0.0
C801 C 0.86111 0.2532 0.20277 0.0
C802 C 0.90412 0.26812 0.18649 0.0
N803 N 0.87725 0.29719 0.21389 0.0
C804 C 0.85789 0.27786 0.21566 0.0
C805 C 0.90021 0.29254 0.19965 0.0
C806 C 0.88439 0.24836 0.18808 0.0
C807 C 0.88178 0.40335 0.2937 0.0
N808 N 0.86096 0.38685 0.30046 0.0
C809 C 0.90009 0.41193 0.31309 0.0
C810 C 0.89697 0.40353 0.33957 0.0
C811 C 0.87566 0.38673 0.34632 0.0
C812 C 0.85777 0.3785 0.32639 0.0
C813 C 0.78224 0.41619 0.32171 0.0
C814 C 0.78522 0.36631 0.29749 0.0
C815 C 0.80444 0.40894 0.30625 0.0
N816 N 0.80577 0.38421 0.29449 0.0
C817 C 0.76271 0.37287 0.31281 0.0
C818 C 0.76127 0.39798 0.325 0.0
C819 C 0.81286 0.34445 0.22581 0.0
C820 C 0.90792 0.38599 0.17967 0.0
C821 C 0.87053 0.34505 0.17627 0.0
C822 C 0.87724 0.35956 0.15326 0.0
C823 C 0.89605 0.38018 0.15504 0.0
N824 N 0.88229 0.35085 0.20036 0.0
C825 C 0.90076 0.37102 0.20225 0.0
Co826 Co 0.17079 0.36841 0.72787 0.0
Co827 Co 0.12525 0.33328 0.76593 0.0
O828 O 0.13556 0.36465 0.74474 0.0
C829 C 0.16446 0.42046 0.75702 0.0
O830 O 0.15783 0.40749 0.77897 0.0
C831 C 0.07972 0.33881 0.72737 0.0
O832 O 0.09684 0.34246 0.70769 0.0
O833 O 0.13594 0.30866 0.73623 0.0
O834 O 0.17184 0.32949 0.7188 0.0
H835 H 0.13771 0.24098 0.80449 0.0
H836 H 0.12586 0.40367 0.71127 0.0
O837 O 0.17052 0.40766 0.73579 0.0
H838 H 0.15368 0.3564 0.62897 0.0
H839 H 0.24012 0.41495 0.67092 0.0
H840 H 0.22107 0.33666 0.72833 0.0
H841 H 0.1771 0.34829 0.67176 0.0
H842 H 0.19561 0.40929 0.69175 0.0
O843 O 0.08801 0.33518 0.75125 0.0
H844 H 0.15064 0.28093 0.77832 0.0
H845 H 0.07695 0.31877 0.79822 0.0
H846 H 0.26579 0.34143 0.70775 0.0
H847 H 0.10208 0.41263 0.66883 0.0
H848 H 0.27555 0.38081 0.6788 0.0
H849 H 0.1159 0.38884 0.6273 0.0
O850 O 0.18926 0.3608 0.76262 0.0
H851 H 0.08039 0.4146 0.80498 0.0
H852 H 0.1357 0.33509 0.82493 0.0
H853 H 0.12372 0.36616 0.86149 0.0
H854 H 0.09582 0.40624 0.85162 0.0
H855 H 0.09306 0.38312 0.76898 0.0
H856 H 0.06311 0.27912 0.82439 0.0
H857 H 0.09365 0.2399 0.82774 0.0
O858 O 0.16196 0.33043 0.78158 0.0
C859 C 0.1566 0.3091 0.72109 0.0
C860 C 0.12425 0.25796 0.80323 0.0
C861 C 0.08237 0.27936 0.81436 0.0
N862 N 0.11462 0.30221 0.78684 0.0
C863 C 0.13149 0.28067 0.78849 0.0
C864 C 0.09028 0.30172 0.79944 0.0
C865 C 0.09952 0.25736 0.81625 0.0
C866 C 0.13215 0.3934 0.69324 0.0
N867 N 0.15288 0.37548 0.69401 0.0
C868 C 0.11854 0.39849 0.66929 0.0
C869 C 0.12628 0.3851 0.646 0.0
C870 C 0.14745 0.36688 0.64693 0.0
C871 C 0.16058 0.36228 0.67125 0.0
C872 C 0.2361 0.3977 0.68348 0.0
C873 C 0.22512 0.3538 0.71568 0.0
C874 C 0.21096 0.39443 0.69541 0.0
N875 N 0.20571 0.37262 0.71119 0.0
C876 C 0.2505 0.35642 0.70411 0.0
C877 C 0.25597 0.37853 0.6879 0.0
C878 C 0.18419 0.34298 0.78035 0.0
C879 C 0.09251 0.39718 0.80955 0.0
C880 C 0.12369 0.35255 0.82045 0.0
C881 C 0.11689 0.37003 0.84125 0.0
C882 C 0.10121 0.3925 0.8357 0.0
N883 N 0.11506 0.35726 0.79485 0.0
C884 C 0.09968 0.37924 0.78927 0.0
Co885 Co 0.12561 0.66273 0.22054 0.0
Co886 Co 0.15594 0.62974 0.27319 0.0
O887 O 0.12792 0.63307 0.24605 0.0
C888 C 0.07249 0.66237 0.24681 0.0
O889 O 0.08485 0.66102 0.27004 0.0
C890 C 0.15847 0.5781 0.24413 0.0
O891 O 0.15709 0.59131 0.22139 0.0
O892 O 0.18452 0.63589 0.24596 0.0
O893 O 0.16517 0.6626 0.21528 0.0
H894 H 0.24018 0.65688 0.32148 0.0
H895 H 0.09205 0.61421 0.2127 0.0
O896 O 0.0859 0.66342 0.22512 0.0
H897 H 0.14787 0.62092 0.13132 0.0
H898 H 0.08421 0.71351 0.14366 0.0
H899 H 0.15674 0.71251 0.21094 0.0
H900 H 0.1515 0.65484 0.16713 0.0
H901 H 0.08818 0.67609 0.17581 0.0
O902 O 0.15798 0.59051 0.26641 0.0
H903 H 0.20447 0.66107 0.28749 0.0
H904 H 0.16727 0.59015 0.31663 0.0
H905 H 0.15367 0.7502 0.17903 0.0
H906 H 0.08762 0.57997 0.17727 0.0
H907 H 0.11719 0.75086 0.14508 0.0
H908 H 0.11573 0.58315 0.13626 0.0
O909 O 0.12961 0.68976 0.24977 0.0
H910 H 0.07158 0.58766 0.30886 0.0
H911 H 0.14419 0.65225 0.32744 0.0
H912 H 0.10822 0.6458 0.36078 0.0
H913 H 0.07159 0.61328 0.35158 0.0
H914 H 0.10784 0.59489 0.27597 0.0
H915 H 0.20273 0.58503 0.35076 0.0
H916 H 0.23946 0.61862 0.35341 0.0
O917 O 0.15468 0.66877 0.2807 0.0
C918 C 0.18556 0.65078 0.22517 0.0
C919 C 0.22425 0.64214 0.32057 0.0
C920 C 0.20325 0.6018 0.33698 0.0
N921 N 0.18371 0.62597 0.30019 0.0
C922 C 0.20393 0.64445 0.30141 0.0
C923 C 0.18326 0.60476 0.31757 0.0
C924 C 0.22384 0.62066 0.33846 0.0
C925 C 0.10416 0.61588 0.19479 0.0
N926 N 0.12194 0.63657 0.19195 0.0
C927 C 0.10164 0.59637 0.17485 0.0
C928 C 0.11745 0.59815 0.15186 0.0
C929 C 0.13551 0.61932 0.14909 0.0
C930 C 0.13752 0.63844 0.16947 0.0
C931 C 0.10022 0.71344 0.15833 0.0
C932 C 0.1409 0.71258 0.19613 0.0
C933 C 0.10252 0.69234 0.17663 0.0
N934 N 0.12277 0.69205 0.19512 0.0
C935 C 0.13923 0.73401 0.17816 0.0
C936 C 0.11874 0.73438 0.15914 0.0
C937 C 0.14325 0.68962 0.27143 0.0
C938 C 0.08747 0.60183 0.31312 0.0
C939 C 0.12828 0.63812 0.32325 0.0
C940 C 0.108 0.6345 0.34224 0.0
C941 C 0.08746 0.61624 0.33707 0.0
N942 N 0.12816 0.62389 0.29982 0.0
C943 C 0.10811 0.60593 0.29463 0.0
Co944 Co 0.76598 0.87047 0.66037 0.0
Co945 Co 0.72801 0.8313 0.61755 0.0
O946 O 0.74848 0.86365 0.62598 0.0
C947 C 0.72913 0.91664 0.65337 0.0
O948 O 0.71087 0.90011 0.64408 0.0
C949 C 0.76993 0.83365 0.57536 0.0
O950 O 0.78756 0.84151 0.59326 0.0
O951 O 0.75646 0.80772 0.63268 0.0
O952 O 0.77988 0.83306 0.66165 0.0
H953 H 0.68752 0.74092 0.63655 0.0
H954 H 0.77589 0.90722 0.61469 0.0
O955 O 0.75222 0.90807 0.66019 0.0
H956 H 0.86458 0.87048 0.63852 0.0
H957 H 0.81879 0.92597 0.72619 0.0
H958 H 0.77192 0.84013 0.71122 0.0
H959 H 0.82425 0.8573 0.66397 0.0
H960 H 0.7971 0.91641 0.68275 0.0
O961 O 0.74564 0.82924 0.58187 0.0
H962 H 0.713 0.78196 0.64729 0.0
H963 H 0.69976 0.81175 0.56856 0.0
H964 H 0.79352 0.84877 0.75487 0.0
H965 H 0.81574 0.92111 0.58883 0.0
H966 H 0.81717 0.89196 0.76259 0.0
H967 H 0.86047 0.90263 0.60067 0.0
O968 O 0.73356 0.85904 0.68059 0.0
H969 H 0.6927 0.907 0.56113 0.0
H970 H 0.66857 0.8345 0.62398 0.0
H971 H 0.63313 0.86402 0.60611 0.0
H972 H 0.64511 0.90057 0.57442 0.0
H973 H 0.72754 0.87716 0.57967 0.0
H974 H 0.67435 0.77092 0.55689 0.0
H975 H 0.66801 0.7352 0.59106 0.0
O976 O 0.71 0.83233 0.65302 0.0
C977 C 0.7748 0.81074 0.65027 0.0
C978 C 0.69007 0.75638 0.62152 0.0
C979 C 0.68271 0.7732 0.5768 0.0
N980 N 0.70768 0.79932 0.60865 0.0
C981 C 0.70441 0.7797 0.62751 0.0
C982 C 0.69716 0.79625 0.58351 0.0
C983 C 0.67915 0.75317 0.59598 0.0
C984 C 0.79533 0.8993 0.62011 0.0
N985 N 0.79776 0.88158 0.64088 0.0
C986 C 0.8178 0.90715 0.60533 0.0
C987 C 0.84288 0.89674 0.61196 0.0
C988 C 0.8452 0.87868 0.63318 0.0
C989 C 0.82229 0.87125 0.64748 0.0
C990 C 0.8086 0.90706 0.72306 0.0
C991 C 0.78233 0.8589 0.71435 0.0
C992 C 0.79624 0.90155 0.69852 0.0
N993 N 0.78342 0.87766 0.69439 0.0
C994 C 0.79445 0.86371 0.73914 0.0
C995 C 0.80769 0.88796 0.74347 0.0
C996 C 0.71379 0.84357 0.67561 0.0
C997 C 0.68722 0.89111 0.57487 0.0
C998 C 0.67396 0.85041 0.61027 0.0
C999 C 0.65379 0.86702 0.60017 0.0
C1000 C 0.66053 0.88751 0.58237 0.0
N1001 N 0.70009 0.85404 0.6028 0.0
C1002 C 0.70684 0.87408 0.58535 0.0
Co1003 Co 0.66747 0.224 0.12602 0.0
Co1004 Co 0.63419 0.26538 0.16998 0.0
O1005 O 0.63648 0.24539 0.13651 0.0
C1006 C 0.65981 0.25962 0.07866 0.0
O1007 O 0.66198 0.28078 0.09418 0.0
C1008 C 0.58484 0.23236 0.16975 0.0
O1009 O 0.59954 0.21139 0.16363 0.0
O1010 O 0.64481 0.23317 0.19111 0.0
O1011 O 0.67288 0.21122 0.16355 0.0
H1012 H 0.66623 0.29636 0.26038 0.0
H1013 H 0.61562 0.21775 0.09743 0.0
O1014 O 0.66229 0.23607 0.08824 0.0
H1015 H 0.63653 0.12811 0.13366 0.0
H1016 H 0.71862 0.16275 0.06415 0.0
H1017 H 0.72136 0.21353 0.149 0.0
H1018 H 0.66751 0.166 0.14088 0.0
H1019 H 0.67955 0.18933 0.0788 0.0
O1020 O 0.59571 0.25519 0.17329 0.0
H1021 H 0.66919 0.27157 0.21769 0.0
H1022 H 0.59306 0.3016 0.194 0.0
H1023 H 0.7608 0.18706 0.13521 0.0
H1024 H 0.5842 0.18036 0.08951 0.0
H1025 H 0.75958 0.16143 0.0925 0.0
H1026 H 0.59454 0.13516 0.10776 0.0
O1027 O 0.69237 0.25458 0.1331 0.0
H1028 H 0.58262 0.31493 0.09895 0.0
H1029 H 0.65161 0.32268 0.16939 0.0
H1030 H 0.63973 0.36247 0.14252 0.0
H1031 H 0.60494 0.35875 0.10703 0.0
H1032 H 0.59529 0.2756 0.12616 0.0
H1033 H 0.58916 0.32654 0.23655 0.0
H1034 H 0.62598 0.32409 0.27005 0.0
O1035 O 0.67246 0.27611 0.16728 0.0
C1036 C 0.66212 0.21488 0.18646 0.0
C1037 C 0.65009 0.29765 0.24592 0.0
C1038 C 0.60681 0.31455 0.23256 0.0
N1039 N 0.63139 0.28525 0.20331 0.0
C1040 C 0.65167 0.2837 0.22168 0.0
C1041 C 0.60909 0.30032 0.20854 0.0
C1042 C 0.62749 0.31318 0.25134 0.0
C1043 C 0.6204 0.19809 0.10522 0.0
N1044 N 0.64344 0.19405 0.11952 0.0
C1045 C 0.60247 0.17701 0.10076 0.0
C1046 C 0.60826 0.15167 0.11104 0.0
C1047 C 0.6318 0.14771 0.12559 0.0
C1048 C 0.64924 0.16926 0.12969 0.0
C1049 C 0.71938 0.17381 0.08282 0.0
C1050 C 0.72062 0.20231 0.13046 0.0
C1051 C 0.69734 0.18894 0.09119 0.0
N1052 N 0.69812 0.20283 0.11481 0.0
C1053 C 0.74304 0.18741 0.12273 0.0
C1054 C 0.74235 0.17306 0.09874 0.0
C1055 C 0.69238 0.27207 0.15181 0.0
C1056 C 0.59776 0.31683 0.11439 0.0
C1057 C 0.63656 0.32087 0.15392 0.0
C1058 C 0.62985 0.34349 0.13881 0.0
C1059 C 0.61032 0.34139 0.11891 0.0
N1060 N 0.62412 0.29686 0.1494 0.0
C1061 C 0.60497 0.29464 0.12992 0.0
Co1062 Co 0.23121 0.12865 0.65886 0.0
Co1063 Co 0.27695 0.16226 0.6191 0.0
O1064 O 0.25247 0.13228 0.626 0.0
C1065 C 0.25954 0.07588 0.6566 0.0
O1066 O 0.2824 0.08829 0.65239 0.0
C1067 C 0.2428 0.16133 0.56971 0.0
O1068 O 0.22136 0.15608 0.58407 0.0
O1069 O 0.24865 0.18908 0.62856 0.0
O1070 O 0.22349 0.16771 0.65918 0.0
H1071 H 0.322 0.24999 0.64003 0.0
H1072 H 0.21943 0.09398 0.61201 0.0
O1073 O 0.23795 0.08919 0.6594 0.0
H1074 H 0.13591 0.14415 0.62898 0.0
H1075 H 0.16407 0.08365 0.71954 0.0
H1076 H 0.22604 0.16007 0.70911 0.0
H1077 H 0.17553 0.15079 0.65782 0.0
H1078 H 0.19078 0.08889 0.67824 0.0
O1079 O 0.26567 0.1637 0.58077 0.0
H1080 H 0.29145 0.21198 0.64837 0.0
H1081 H 0.31456 0.17619 0.57459 0.0
H1082 H 0.19955 0.15573 0.75064 0.0
H1083 H 0.18017 0.08648 0.58284 0.0
H1084 H 0.16829 0.11728 0.75607 0.0
H1085 H 0.13806 0.11175 0.59119 0.0
O1086 O 0.26344 0.13497 0.68196 0.0
H1087 H 0.3125 0.07971 0.57359 0.0
H1088 H 0.33453 0.15482 0.63402 0.0
H1089 H 0.36914 0.12108 0.62359 0.0
H1090 H 0.35822 0.08319 0.59312 0.0
H1091 H 0.27844 0.11378 0.5848 0.0
H1092 H 0.34517 0.21395 0.56534 0.0
H1093 H 0.34912 0.25115 0.59825 0.0
O1094 O 0.28935 0.16193 0.65688 0.0
C1095 C 0.23011 0.18871 0.64625 0.0
C1096 C 0.3205 0.23388 0.62556 0.0
C1097 C 0.33348 0.21366 0.58363 0.0
N1098 N 0.3013 0.19182 0.61205 0.0
C1099 C 0.30328 0.21226 0.6302 0.0
C1100 C 0.31605 0.19237 0.58894 0.0
C1101 C 0.33569 0.23452 0.60211 0.0
C1102 C 0.2011 0.10488 0.61592 0.0
N1103 N 0.19978 0.12279 0.63663 0.0
C1104 C 0.17897 0.10062 0.59927 0.0
C1105 C 0.15536 0.11483 0.60394 0.0
C1106 C 0.15415 0.13304 0.62512 0.0
C1107 C 0.17669 0.1368 0.64133 0.0
C1108 C 0.17763 0.10048 0.71742 0.0
C1109 C 0.21244 0.14332 0.71128 0.0
C1110 C 0.19289 0.1035 0.69412 0.0
N1111 N 0.20997 0.12477 0.69125 0.0
C1112 C 0.19751 0.14095 0.73486 0.0
C1113 C 0.17999 0.11937 0.7379 0.0
C1114 C 0.28379 0.15026 0.67887 0.0
C1115 C 0.31752 0.09614 0.58687 0.0
C1116 C 0.32958 0.13832 0.6209 0.0
C1117 C 0.34929 0.11932 0.61497 0.0
C1118 C 0.34315 0.09809 0.59786 0.0
N1119 N 0.30449 0.13629 0.61005 0.0
C1120 C 0.29834 0.11554 0.59322 0.0
Co1121 Co 0.34155 0.75986 0.128 0.0
Co1122 Co 0.37167 0.72182 0.17704 0.0
O1123 O 0.37136 0.73865 0.14176 0.0
C1124 C 0.34859 0.71978 0.08424 0.0
O1125 O 0.34488 0.70014 0.1014 0.0
C1126 C 0.42129 0.75418 0.17605 0.0
O1127 O 0.40699 0.77435 0.16698 0.0
O1128 O 0.36074 0.75595 0.19466 0.0
O1129 O 0.33499 0.77623 0.1638 0.0
H1130 H 0.33488 0.69985 0.26826 0.0
H1131 H 0.39442 0.76192 0.10076 0.0
O1132 O 0.34761 0.74415 0.0918 0.0
H1133 H 0.37559 0.85501 0.1284 0.0
H1134 H 0.29506 0.81675 0.05869 0.0
H1135 H 0.28703 0.77374 0.14743 0.0
H1136 H 0.34305 0.81893 0.13776 0.0
H1137 H 0.33259 0.79049 0.0774 0.0
O1138 O 0.41017 0.7318 0.18132 0.0
H1139 H 0.33437 0.72062 0.22337 0.0
H1140 H 0.4109 0.68735 0.20622 0.0
H1141 H 0.24909 0.79999 0.12957 0.0
H1142 H 0.4274 0.79743 0.09079 0.0
H1143 H 0.25298 0.82172 0.08489 0.0
H1144 H 0.41811 0.84435 0.10472 0.0
O1145 O 0.31548 0.73083 0.13684 0.0
H1146 H 0.4256 0.66501 0.11366 0.0
H1147 H 0.35282 0.66511 0.18062 0.0
H1148 H 0.36511 0.6228 0.15814 0.0
H1149 H 0.40179 0.62257 0.12442 0.0
H1150 H 0.41251 0.70691 0.13647 0.0
H1151 H 0.41233 0.66638 0.25103 0.0
H1152 H 0.37407 0.6725 0.28235 0.0
O1153 O 0.33329 0.7115 0.17345 0.0
C1154 C 0.34432 0.77423 0.1875 0.0
C1155 C 0.35163 0.69697 0.25477 0.0
C1156 C 0.39512 0.67822 0.24511 0.0
N1157 N 0.37251 0.70506 0.21214 0.0
C1158 C 0.35144 0.70862 0.2293 0.0
C1159 C 0.39423 0.69019 0.21979 0.0
C1160 C 0.37364 0.68165 0.26267 0.0
C1161 C 0.3901 0.78234 0.10665 0.0
N1162 N 0.36678 0.78835 0.11974 0.0
C1163 C 0.40891 0.80234 0.10105 0.0
C1164 C 0.4037 0.82865 0.10891 0.0
C1165 C 0.37986 0.83464 0.12222 0.0
C1166 C 0.36154 0.81411 0.12753 0.0
C1167 C 0.29315 0.80742 0.07821 0.0
C1168 C 0.28893 0.78327 0.12804 0.0
C1169 C 0.31431 0.79248 0.08888 0.0
N1170 N 0.31207 0.78076 0.11357 0.0
C1171 C 0.26736 0.79805 0.118 0.0
C1172 C 0.26954 0.81021 0.09292 0.0
C1173 C 0.31416 0.71485 0.15681 0.0
C1174 C 0.40964 0.66484 0.12836 0.0
C1175 C 0.36874 0.66519 0.16592 0.0
C1176 C 0.37565 0.64116 0.15329 0.0
C1177 C 0.39625 0.64104 0.13439 0.0
N1178 N 0.38202 0.68843 0.15996 0.0
C1179 C 0.40219 0.68848 0.14141 0.0
Co1180 Co 0.74174 0.16659 0.37952 0.0
Co1181 Co 0.77281 0.12396 0.33535 0.0
O1182 O 0.75715 0.13199 0.37014 0.0
C1183 C 0.78127 0.15878 0.42369 0.0
O1184 O 0.80083 0.15791 0.40609 0.0
C1185 C 0.73359 0.07957 0.3427 0.0
O1186 O 0.71437 0.09703 0.3471 0.0
O1187 O 0.74018 0.13727 0.31656 0.0
O1188 O 0.7258 0.17079 0.34303 0.0
H1189 H 0.79728 0.1427 0.23938 0.0
H1190 H 0.73123 0.11864 0.41321 0.0
O1191 O 0.75711 0.16266 0.41629 0.0
H1192 H 0.64213 0.15041 0.38431 0.0
H1193 H 0.69575 0.23149 0.44171 0.0
H1194 H 0.73679 0.21939 0.35253 0.0
H1195 H 0.68309 0.17447 0.3705 0.0
H1196 H 0.71461 0.1877 0.42845 0.0
O1197 O 0.75729 0.08733 0.33726 0.0
H1198 H 0.77824 0.15319 0.28381 0.0
H1199 H 0.80004 0.07591 0.31233 0.0
H1200 H 0.71804 0.26346 0.36489 0.0
H1201 H 0.69078 0.09414 0.42771 0.0
H1202 H 0.69731 0.26972 0.40977 0.0
H1203 H 0.64582 0.10997 0.41319 0.0
O1204 O 0.77459 0.18575 0.36714 0.0
H1205 H 0.82256 0.07231 0.4062 0.0
H1206 H 0.83167 0.13266 0.32836 0.0
H1207 H 0.87224 0.11749 0.35225 0.0
H1208 H 0.86783 0.08703 0.39145 0.0
H1209 H 0.78252 0.08816 0.38187 0.0
H1210 H 0.81917 0.06452 0.26814 0.0
H1211 H 0.81794 0.09808 0.23133 0.0
O1212 O 0.78899 0.16027 0.33292 0.0
C1213 C 0.72523 0.15755 0.32114 0.0
C1214 C 0.79802 0.12794 0.25529 0.0
C1215 C 0.81026 0.08404 0.27142 0.0
N1216 N 0.7882 0.11526 0.30069 0.0
C1217 C 0.78733 0.13379 0.28051 0.0
C1218 C 0.79935 0.09058 0.29638 0.0
C1219 C 0.80958 0.10289 0.25077 0.0
C1220 C 0.71173 0.12581 0.40701 0.0
N1221 N 0.70953 0.14807 0.39115 0.0
C1222 C 0.6889 0.11178 0.4152 0.0
C1223 C 0.66369 0.12065 0.40701 0.0
C1224 C 0.6616 0.14334 0.3908 0.0
C1225 C 0.68488 0.15684 0.38298 0.0
C1226 C 0.70468 0.229 0.42208 0.0
C1227 C 0.72767 0.22192 0.37204 0.0
C1228 C 0.71544 0.20427 0.41448 0.0
N1229 N 0.72662 0.20096 0.38967 0.0
C1230 C 0.71715 0.24694 0.37895 0.0
C1231 C 0.70556 0.25044 0.40415 0.0
C1232 C 0.78973 0.18163 0.3469 0.0
C1233 C 0.82475 0.08554 0.38912 0.0
C1234 C 0.82958 0.11952 0.34547 0.0
C1235 C 0.85262 0.11093 0.35887 0.0
C1236 C 0.85014 0.09383 0.38085 0.0
N1237 N 0.80475 0.11127 0.35366 0.0
C1238 C 0.80215 0.09452 0.37521 0.0
Co1239 Co 0.37272 0.2605 0.82953 0.0
Co1240 Co 0.32907 0.22933 0.87229 0.0
O1241 O 0.3647 0.24372 0.86407 0.0
C1242 C 0.41995 0.2239 0.83792 0.0
O1243 O 0.40436 0.20472 0.84699 0.0
C1244 C 0.34094 0.26124 0.92212 0.0
O1245 O 0.34538 0.28317 0.9082 0.0
O1246 O 0.31204 0.26463 0.86364 0.0
O1247 O 0.33595 0.27613 0.82734 0.0
H1248 H 0.23084 0.21347 0.85597 0.0
H1249 H 0.40768 0.26973 0.87662 0.0
O1250 O 0.41011 0.24625 0.83051 0.0
H1251 H 0.37801 0.35975 0.84837 0.0
H1252 H 0.43024 0.31061 0.76317 0.0
H1253 H 0.34347 0.26545 0.77801 0.0
H1254 H 0.36369 0.31954 0.82342 0.0
H1255 H 0.41956 0.29049 0.80708 0.0
O1256 O 0.33379 0.23966 0.91057 0.0
H1257 H 0.27599 0.23063 0.84538 0.0
H1258 H 0.3063 0.19803 0.91806 0.0
H1259 H 0.35322 0.28552 0.73387 0.0
H1260 H 0.42278 0.30941 0.90202 0.0
H1261 H 0.39688 0.30829 0.72621 0.0
H1262 H 0.40786 0.35483 0.88797 0.0
O1263 O 0.36015 0.22767 0.81028 0.0
H1264 H 0.39793 0.16906 0.91461 0.0
H1265 H 0.31741 0.17244 0.8573 0.0
H1266 H 0.33869 0.12884 0.86674 0.0
H1267 H 0.37921 0.12693 0.89568 0.0
H1268 H 0.37623 0.21229 0.90433 0.0
H1269 H 0.26143 0.18063 0.92948 0.0
H1270 H 0.22333 0.18825 0.89829 0.0
O1271 O 0.32363 0.21758 0.83449 0.0
C1272 C 0.31559 0.27879 0.84256 0.0
C1273 C 0.24729 0.20998 0.8697 0.0
C1274 C 0.26445 0.19158 0.91098 0.0
N1275 N 0.29381 0.21529 0.88103 0.0
C1276 C 0.27293 0.21962 0.8638 0.0
C1277 C 0.28981 0.20156 0.90443 0.0
C1278 C 0.24308 0.19585 0.89346 0.0
C1279 C 0.40121 0.28943 0.8703 0.0
N1280 N 0.38474 0.2923 0.84857 0.0
C1281 C 0.40978 0.31183 0.8848 0.0
C1282 C 0.40138 0.3373 0.87692 0.0
C1283 C 0.38461 0.34007 0.85473 0.0
C1284 C 0.37643 0.31721 0.84074 0.0
C1285 C 0.41114 0.30075 0.76626 0.0
C1286 C 0.36247 0.27542 0.77488 0.0
C1287 C 0.40502 0.28923 0.79105 0.0
N1288 N 0.38088 0.27685 0.79514 0.0
C1289 C 0.36789 0.2867 0.74982 0.0
C1290 C 0.39241 0.29945 0.74554 0.0
C1291 C 0.33811 0.215 0.8136 0.0
C1292 C 0.38025 0.16961 0.90201 0.0
C1293 C 0.33515 0.17183 0.86971 0.0
C1294 C 0.34705 0.14705 0.87509 0.0
C1295 C 0.36977 0.146 0.89135 0.0
N1296 N 0.34554 0.19493 0.88023 0.0
C1297 C 0.36781 0.19403 0.8962 0.0
Co1298 Co 0.25869 0.83619 0.37372 0.0
Co1299 Co 0.22257 0.86897 0.32489 0.0
O1300 O 0.23934 0.86748 0.36026 0.0
C1301 C 0.21963 0.84368 0.41872 0.0
O1302 O 0.19924 0.84037 0.40236 0.0
C1303 C 0.25733 0.91716 0.32554 0.0
O1304 O 0.27669 0.90274 0.33606 0.0
O1305 O 0.25611 0.85637 0.30725 0.0
O1306 O 0.27465 0.8291 0.33786 0.0
H1307 H 0.19877 0.83369 0.23352 0.0
H1308 H 0.26404 0.88849 0.40158 0.0
O1309 O 0.24364 0.84271 0.4101 0.0
H1310 H 0.35577 0.8643 0.37361 0.0
H1311 H 0.31294 0.78548 0.44221 0.0
H1312 H 0.26905 0.78114 0.35365 0.0
H1313 H 0.31776 0.83419 0.36385 0.0
H1314 H 0.28899 0.82479 0.42407 0.0
O1315 O 0.2346 0.90674 0.32042 0.0
H1316 H 0.21956 0.83202 0.27838 0.0
H1317 H 0.19009 0.91002 0.29585 0.0
H1318 H 0.29297 0.74144 0.37094 0.0
H1319 H 0.30153 0.91906 0.41198 0.0
H1320 H 0.31514 0.74346 0.41552 0.0
H1321 H 0.34778 0.90707 0.39788 0.0
O1322 O 0.22807 0.81202 0.36474 0.0
H1323 H 0.16902 0.92586 0.38849 0.0
H1324 H 0.16479 0.8535 0.3212 0.0
H1325 H 0.1233 0.86816 0.34376 0.0
H1326 H 0.12525 0.90465 0.37764 0.0
H1327 H 0.21007 0.91041 0.36558 0.0
H1328 H 0.16917 0.91264 0.25107 0.0
H1329 H 0.17335 0.87423 0.21961 0.0
O1330 O 0.21004 0.83136 0.32831 0.0
C1331 C 0.27348 0.83898 0.31434 0.0
C1332 C 0.19674 0.85052 0.24708 0.0
C1333 C 0.18015 0.89485 0.25692 0.0
N1334 N 0.20588 0.87082 0.28978 0.0
C1335 C 0.20841 0.84967 0.27253 0.0
C1336 C 0.19209 0.89328 0.28222 0.0
C1337 C 0.1825 0.87328 0.23928 0.0
C1338 C 0.28415 0.883 0.3956 0.0
N1339 N 0.2887 0.85954 0.38218 0.0
C1340 C 0.30528 0.90045 0.40145 0.0
C1341 C 0.33122 0.89373 0.3935 0.0
C1342 C 0.33571 0.86975 0.37986 0.0
C1343 C 0.31408 0.85281 0.37431 0.0
C1344 C 0.30341 0.78437 0.42273 0.0
C1345 C 0.27877 0.78223 0.373 0.0
C1346 C 0.28976 0.80654 0.41238 0.0
N1347 N 0.27779 0.80532 0.38774 0.0
C1348 C 0.29223 0.75966 0.38272 0.0
C1349 C 0.30464 0.7608 0.40775 0.0
C1350 C 0.21201 0.81196 0.34479 0.0
C1351 C 0.1679 0.90998 0.37372 0.0
C1352 C 0.16583 0.8693 0.33599 0.0
C1353 C 0.14225 0.87757 0.34865 0.0
C1354 C 0.14335 0.89805 0.36765 0.0
N1355 N 0.18982 0.88115 0.34201 0.0
C1356 C 0.19106 0.90121 0.36063 0.0
Co1357 Co 0.62207 0.73733 0.82726 0.0
Co1358 Co 0.66225 0.7728 0.87038 0.0
O1359 O 0.62808 0.75629 0.8609 0.0
C1360 C 0.57721 0.77622 0.82968 0.0
O1361 O 0.59419 0.79508 0.8367 0.0
C1362 C 0.65066 0.73983 0.91894 0.0
O1363 O 0.65003 0.71778 0.90454 0.0
O1364 O 0.68172 0.73857 0.86317 0.0
O1365 O 0.65873 0.72162 0.82835 0.0
H1366 H 0.76002 0.79428 0.8585 0.0
H1367 H 0.58385 0.73133 0.87237 0.0
O1368 O 0.58522 0.75239 0.82535 0.0
H1369 H 0.61588 0.63978 0.853 0.0
H1370 H 0.56727 0.68374 0.76145 0.0
H1371 H 0.65415 0.72807 0.77807 0.0
H1372 H 0.63184 0.67821 0.82625 0.0
H1373 H 0.57588 0.70694 0.8043 0.0
O1374 O 0.65612 0.76236 0.90832 0.0
H1375 H 0.71652 0.77428 0.84605 0.0
H1376 H 0.68091 0.80574 0.91677 0.0
H1377 H 0.64647 0.70491 0.73502 0.0
H1378 H 0.56718 0.69345 0.8995 0.0
H1379 H 0.60276 0.68253 0.7265 0.0
H1380 H 0.58327 0.64728 0.88991 0.0
O1381 O 0.63578 0.76845 0.80641 0.0
H1382 H 0.58765 0.82933 0.90784 0.0
H1383 H 0.67135 0.83006 0.8552 0.0
H1384 H 0.64701 0.87243 0.86272 0.0
H1385 H 0.60487 0.87226 0.88929 0.0
H1386 H 0.61244 0.78737 0.89953 0.0
H1387 H 0.72409 0.82594 0.93006 0.0
H1388 H 0.76401 0.82035 0.90078 0.0
O1389 O 0.66865 0.78433 0.83273 0.0
C1390 C 0.67903 0.72193 0.84388 0.0
C1391 C 0.74276 0.79693 0.87139 0.0
C1392 C 0.7226 0.81466 0.91157 0.0
N1393 N 0.69616 0.78898 0.88057 0.0
C1394 C 0.71805 0.78571 0.86442 0.0
C1395 C 0.69822 0.80312 0.90397 0.0
C1396 C 0.74498 0.81153 0.89513 0.0
C1397 C 0.59081 0.71128 0.86796 0.0
N1398 N 0.60876 0.70698 0.84771 0.0
C1399 C 0.58136 0.68991 0.88344 0.0
C1400 C 0.59041 0.66402 0.87807 0.0
C1401 C 0.60873 0.6598 0.85738 0.0
C1402 C 0.61776 0.68165 0.84235 0.0
C1403 C 0.58641 0.69337 0.76495 0.0
C1404 C 0.63514 0.71824 0.77457 0.0
C1405 C 0.59139 0.70659 0.78914 0.0
N1406 N 0.61557 0.71868 0.79374 0.0
C1407 C 0.63088 0.70522 0.75013 0.0
C1408 C 0.60634 0.69269 0.74535 0.0
C1409 C 0.65598 0.78359 0.81056 0.0
C1410 C 0.60604 0.82969 0.89632 0.0
C1411 C 0.65297 0.82978 0.86665 0.0
C1412 C 0.63931 0.85386 0.87093 0.0
C1413 C 0.61568 0.85375 0.88586 0.0
N1414 N 0.64342 0.80625 0.877 0.0
C1415 C 0.62025 0.806 0.89166 0.0
H1416 H 0.14916 0.54255 0.20313 0.0
H1417 H 0.17256 0.54736 0.28651 0.0
H1418 H 0.17414 0.49889 0.28936 0.0
H1419 H 0.16782 0.45548 0.26925 0.0
H1420 H 0.14415 0.4484 0.18629 0.0
H1421 H 0.14393 0.49753 0.18216 0.0
C1422 C 0.15476 0.53292 0.22181 0.0
C1423 C 0.16054 0.54859 0.2446 0.0
C1424 C 0.15551 0.50473 0.22346 0.0
C1425 C 0.16774 0.53586 0.26872 0.0
C1426 C 0.16871 0.50809 0.27041 0.0
C1427 C 0.16251 0.46453 0.25019 0.0
C1428 C 0.15577 0.44832 0.22818 0.0
C1429 C 0.16237 0.49241 0.24806 0.0
C1430 C 0.14937 0.46049 0.20357 0.0
C1431 C 0.14921 0.48854 0.20123 0.0
H1432 H 0.95906 0.69152 0.77721 0.0
H1433 H 0.94972 0.65052 0.70159 0.0
H1434 H 0.99869 0.64869 0.69644 0.0
H1435 H 0.04423 0.65624 0.7154 0.0
H1436 H 0.05163 0.69668 0.79172 0.0
H1437 H 0.00328 0.7012 0.79455 0.0
C1438 C 0.96765 0.68221 0.75952 0.0
C1439 C 0.95085 0.67089 0.73998 0.0
C1440 C 0.9955 0.68104 0.75688 0.0
C1441 C 0.96231 0.65934 0.71696 0.0
C1442 C 0.99027 0.65821 0.71407 0.0
C1443 C 0.0352 0.66628 0.73245 0.0
C1444 C 0.0515 0.67582 0.75345 0.0
C1445 C 0.0071 0.66863 0.73417 0.0
C1446 C 0.03956 0.6888 0.77545 0.0
C1447 C 0.01188 0.69147 0.77711 0.0
H1448 H 0.80945 0.45342 0.2601 0.0
H1449 H 0.86084 0.44715 0.19082 0.0
H1450 H 0.85928 0.49614 0.1851 0.0
H1451 H 0.84669 0.54099 0.20305 0.0
H1452 H 0.79662 0.54532 0.27364 0.0
H1453 H 0.79424 0.4967 0.27557 0.0
C1454 C 0.82025 0.46271 0.24363 0.0
C1455 C 0.83561 0.4469 0.22619 0.0
C1456 C 0.81958 0.49052 0.24083 0.0
C1457 C 0.84896 0.45907 0.20457 0.0
C1458 C 0.84816 0.48701 0.20141 0.0
C1459 C 0.83496 0.53119 0.21854 0.0
C1460 C 0.82214 0.54662 0.23837 0.0
C1461 C 0.83405 0.50301 0.21986 0.0
C1462 C 0.807 0.53382 0.25839 0.0
C1463 C 0.80557 0.50604 0.25951 0.0
H1464 H 0.04129 0.32185 0.76132 0.0
H1465 H 0.05213 0.35596 0.68253 0.0
H1466 H 0.00325 0.35786 0.67656 0.0
H1467 H 0.95722 0.3513 0.69494 0.0
H1468 H 0.94847 0.31714 0.77417 0.0
H1469 H 0.99672 0.31388 0.77862 0.0
C1470 C 0.03309 0.32974 0.74277 0.0
C1471 C 0.05038 0.33896 0.72251 0.0
C1472 C 0.00524 0.33083 0.73957 0.0
C1473 C 0.03927 0.34874 0.69849 0.0
C1474 C 0.01133 0.34989 0.69511 0.0
C1475 C 0.96591 0.34299 0.71307 0.0
C1476 C 0.94909 0.3347 0.73425 0.0
C1477 C 0.99406 0.3412 0.71567 0.0
C1478 C 0.96075 0.32395 0.75761 0.0
C1479 C 0.98844 0.32201 0.76022 0.0
H1480 H 0.15549 0.4564 0.79797 0.0
H1481 H 0.17273 0.4516 0.71312 0.0
H1482 H 0.17238 0.50009 0.70982 0.0
H1483 H 0.16742 0.54388 0.73041 0.0
H1484 H 0.15067 0.55033 0.81509 0.0
H1485 H 0.15059 0.50131 0.81896 0.0
C1486 C 0.15919 0.46599 0.7788 0.0
C1487 C 0.16422 0.4502 0.7559 0.0
C1488 C 0.15904 0.49423 0.77692 0.0
C1489 C 0.16894 0.46305 0.73118 0.0
C1490 C 0.1687 0.49089 0.72919 0.0
C1491 C 0.16369 0.53467 0.74977 0.0
C1492 C 0.15906 0.55081 0.77241 0.0
C1493 C 0.16381 0.50665 0.75187 0.0
C1494 C 0.15436 0.5384 0.79731 0.0
C1495 C 0.15429 0.51035 0.79954 0.0
H1496 H 0.94959 0.66313 0.21898 0.0
H1497 H 0.94255 0.65281 0.30467 0.0
H1498 H 0.99153 0.65353 0.30889 0.0
H1499 H 0.0364 0.65704 0.2879 0.0
H1500 H 0.04197 0.66731 0.20197 0.0
H1501 H 0.99343 0.66665 0.19833 0.0
C1502 C 0.95865 0.66103 0.23865 0.0
C1503 C 0.94241 0.65796 0.26147 0.0
C1504 C 0.9866 0.66147 0.24091 0.0
C1505 C 0.9546 0.65526 0.28676 0.0
C1506 C 0.9826 0.65567 0.28919 0.0
C1507 C 0.02696 0.65921 0.26841 0.0
C1508 C 0.04288 0.66226 0.24528 0.0
C1509 C 0.99882 0.65878 0.26636 0.0
C1510 C 0.03031 0.66493 0.22015 0.0
C1511 C 0.0025 0.66456 0.21799 0.0
H1512 H 0.84315 0.55287 0.73327 0.0
H1513 H 0.83889 0.55367 0.81971 0.0
H1514 H 0.83937 0.5044 0.82025 0.0
H1515 H 0.83949 0.46099 0.79555 0.0
H1516 H 0.84403 0.46229 0.70893 0.0
H1517 H 0.84495 0.51085 0.70925 0.0
C1518 C 0.84227 0.54239 0.75233 0.0
C1519 C 0.84067 0.55695 0.7764 0.0
C1520 C 0.84256 0.51435 0.75245 0.0
C1521 C 0.84001 0.54292 0.80086 0.0
C1522 C 0.84025 0.51476 0.80116 0.0
C1523 C 0.84079 0.47194 0.7768 0.0
C1524 C 0.84141 0.45787 0.75227 0.0
C1525 C 0.8413 0.50023 0.77701 0.0
C1526 C 0.84324 0.47242 0.72814 0.0
C1527 C 0.84381 0.50029 0.72823 0.0
H1528 H 0.95574 0.31277 0.23309 0.0
H1529 H 0.95062 0.35462 0.3087 0.0
H1530 H -0.00031 0.35451 0.31222 0.0
H1531 H 0.04411 0.34465 0.2922 0.0
H1532 H 0.0477 0.30349 0.21599 0.0
H1533 H 0.99906 0.30124 0.21442 0.0
C1534 C 0.96526 0.32184 0.25043 0.0
C1535 C 0.94958 0.33388 0.27048 0.0
C1536 C 0.99323 0.3219 0.25218 0.0
C1537 C 0.96228 0.34522 0.29296 0.0
C1538 C 0.99032 0.34524 0.29494 0.0
C1539 C 0.0342 0.33495 0.27543 0.0
C1540 C 0.04951 0.32443 0.25417 0.0
C1541 C 0.00602 0.33392 0.27445 0.0
C1542 C 0.03642 0.31198 0.23251 0.0
C1543 C 0.00858 0.31064 0.23157 0.0
H1544 H 0.20462 0.14223 0.5347 0.0
H1545 H 0.2779 0.18838 0.53864 0.0
H1546 H 0.27911 0.19158 0.49012 0.0
H1547 H 0.26127 0.17953 0.4467 0.0
H1548 H 0.18867 0.13278 0.4407 0.0
H1549 H 0.18514 0.13181 0.48982 0.0
C1550 C 0.22063 0.1532 0.52486 0.0
C1551 C 0.24128 0.16478 0.54029 0.0
C1552 C 0.22145 0.15477 0.49662 0.0
C1553 C 0.26195 0.17892 0.52729 0.0
C1554 C 0.26268 0.18084 0.4995 0.0
C1555 C 0.24458 0.16913 0.45602 0.0
C1556 C 0.22542 0.15603 0.44005 0.0
C1557 C 0.24284 0.16848 0.484 0.0
C1558 C 0.20374 0.143 0.45256 0.0
C1559 C 0.20176 0.14238 0.48064 0.0
H1560 H 0.34015 0.69195 0.96123 0.0
H1561 H 0.37632 0.77057 0.95659 0.0
H1562 H 0.38164 0.77153 0.00499 0.0
H1563 H 0.37166 0.75272 0.0486 0.0
H1564 H 0.33384 0.67519 0.05515 0.0
H1565 H 0.33397 0.67084 0.00606 0.0
C1566 C 0.34959 0.70902 0.97087 0.0
C1567 C 0.35747 0.73131 0.95543 0.0
C1568 C 0.35212 0.70974 0.999 0.0
C1569 C 0.36971 0.75334 0.96808 0.0
C1570 C 0.3728 0.75393 0.99576 0.0
C1571 C 0.36365 0.73471 0.03934 0.0
C1572 C 0.35234 0.71451 0.05536 0.0
C1573 C 0.36333 0.73266 0.01142 0.0
C1574 C 0.34256 0.69107 0.04315 0.0
C1575 C 0.3425 0.68867 0.01512 0.0
H1576 H 0.79526 0.85084 0.45313 0.0
H1577 H 0.73097 0.79307 0.44757 0.0
H1578 H 0.73199 0.78647 0.49589 0.0
H1579 H 0.7467 0.80121 0.53969 0.0
H1580 H 0.80878 0.86094 0.54723 0.0
H1581 H 0.81361 0.86234 0.49817 0.0
C1582 C 0.78195 0.83644 0.46259 0.0
C1583 C 0.76285 0.82269 0.44706 0.0
C1584 C 0.7821 0.83329 0.49064 0.0
C1585 C 0.74557 0.80413 0.45931 0.0
C1586 C 0.74613 0.80032 0.48688 0.0
C1587 C 0.76154 0.81431 0.53062 0.0
C1588 C 0.77703 0.83127 0.54683 0.0
C1589 C 0.7636 0.81548 0.50275 0.0
C1590 C 0.79658 0.84775 0.53499 0.0
C1591 C 0.79918 0.84868 0.507 0.0
H1592 H 0.66976 0.30259 0.04559 0.0
H1593 H 0.63679 0.22243 0.04679 0.0
H1594 H 0.63062 0.22373 0.99852 0.0
H1595 H 0.63795 0.24547 0.95589 0.0
H1596 H 0.67299 0.32454 0.95244 0.0
H1597 H 0.67445 0.32609 0.00168 0.0
C1598 C 0.66095 0.28561 0.03524 0.0
C1599 C 0.65406 0.26233 0.04972 0.0
C1600 C 0.65789 0.28623 0.00713 0.0
C1601 C 0.64263 0.24044 0.0361 0.0
C1602 C 0.63902 0.24116 0.00848 0.0
C1603 C 0.64578 0.26321 0.96581 0.0
C1604 C 0.65571 0.2847 0.95052 0.0
C1605 C 0.64715 0.26363 0.99378 0.0
C1606 C 0.66529 0.30768 0.96377 0.0
C1607 C 0.66627 0.30848 0.9919 0.0
H1608 H 0.25586 0.86153 0.45419 0.0
H1609 H 0.17492 0.83137 0.44903 0.0
H1610 H 0.17247 0.82936 0.49823 0.0
H1611 H 0.19556 0.8319 0.54256 0.0
H1612 H 0.27762 0.85971 0.54526 0.0
H1613 H 0.27736 0.86681 0.49718 0.0
C1614 C 0.23753 0.85468 0.46374 0.0
C1615 C 0.21576 0.84623 0.44801 0.0
C1616 C 0.23659 0.85289 0.49166 0.0
C1617 C 0.19201 0.83791 0.46074 0.0
C1618 C 0.19069 0.83659 0.48884 0.0
C1619 C 0.2132 0.83978 0.53257 0.0
C1620 C 0.23667 0.84493 0.54743 0.0
C1621 C 0.21317 0.84335 0.50451 0.0
C1622 C 0.25942 0.85519 0.53428 0.0
C1623 C 0.25931 0.85935 0.50676 0.0
H1624 H 0.63426 0.76677 0.03995 0.0
H1625 H 0.66591 0.68692 0.05002 0.0
H1626 H 0.66475 0.68016 0.00119 0.0
H1627 H 0.65925 0.69939 0.95534 0.0
H1628 H 0.62904 0.78021 0.9474 0.0
H1629 H 0.62492 0.78403 0.99569 0.0
C1630 C 0.64074 0.74776 0.03153 0.0
C1631 C 0.65062 0.72756 0.0484 0.0
C1632 C 0.64037 0.74426 0.00377 0.0
C1633 C 0.65837 0.70284 0.0373 0.0
C1634 C 0.65781 0.69904 0.00943 0.0
C1635 C 0.65134 0.71757 0.96428 0.0
C1636 C 0.64481 0.7396 0.94788 0.0
C1637 C 0.64952 0.71993 0.99238 0.0
C1638 C 0.63457 0.7631 0.95961 0.0
C1639 C 0.63218 0.76535 0.98724 0.0
H1640 H 0.81293 0.16187 0.54638 0.0
H1641 H 0.7328 0.12922 0.55214 0.0
H1642 H 0.72958 0.12716 0.50371 0.0
H1643 H 0.74727 0.13839 0.45991 0.0
H1644 H 0.82712 0.17061 0.45208 0.0
H1645 H 0.83283 0.16882 0.50103 0.0
C1646 C 0.795 0.1539 0.53698 0.0
C1647 C 0.773 0.14616 0.55292 0.0
C1648 C 0.79308 0.15293 0.50877 0.0
C1649 C 0.7499 0.13575 0.54043 0.0
C1650 C 0.74798 0.13454 0.51267 0.0
C1651 C 0.76603 0.14486 0.46887 0.0
C1652 C 0.78657 0.15503 0.45256 0.0
C1653 C 0.76908 0.14377 0.4967 0.0
C1654 C 0.81096 0.16282 0.46434 0.0
C1655 C 0.81417 0.16188 0.4923 0.0
H1656 H 0.35153 0.2337 0.04454 0.0
H1657 H 0.34796 0.31983 0.05231 0.0
H1658 H 0.34636 0.32431 0.00333 0.0
H1659 H 0.34402 0.30318 0.95809 0.0
H1660 H 0.34681 0.21669 0.95243 0.0
H1661 H 0.35072 0.21311 0.00068 0.0
C1662 C 0.35046 0.25353 0.03565 0.0
C1663 C 0.34965 0.27636 0.05213 0.0
C1664 C 0.34933 0.25592 0.00772 0.0
C1665 C 0.34849 0.30187 0.0401 0.0
C1666 C 0.34755 0.30445 0.01208 0.0
C1667 C 0.34566 0.28363 0.96747 0.0
C1668 C 0.34485 0.26029 0.95156 0.0
C1669 C 0.34767 0.28155 0.99564 0.0
C1670 C 0.34703 0.23505 0.96406 0.0
C1671 C 0.34933 0.23289 0.99175 0.0
H1672 H 0.55072 0.27056 0.18697 0.0
H1673 H 0.55252 0.19002 0.15523 0.0
H1674 H 0.50334 0.18911 0.1545 0.0
H1675 H 0.45991 0.21241 0.16079 0.0
H1676 H 0.45965 0.29344 0.19163 0.0
H1677 H 0.50828 0.29286 0.1947 0.0
C1678 C 0.54046 0.25269 0.17997 0.0
C1679 C 0.55528 0.23045 0.17103 0.0
C1680 C 0.51244 0.25245 0.17931 0.0
C1681 C 0.54157 0.20742 0.16225 0.0
C1682 C 0.51347 0.20693 0.16174 0.0
C1683 C 0.47051 0.22982 0.16838 0.0
C1684 C 0.45614 0.25297 0.17583 0.0
C1685 C 0.49869 0.2295 0.16991 0.0
C1686 C 0.47017 0.27542 0.18555 0.0
C1687 C 0.49801 0.27514 0.18737 0.0
H1688 H 0.5411 0.74798 0.80174 0.0
H1689 H 0.54828 0.81596 0.85476 0.0
H1690 H 0.49918 0.81921 0.8574 0.0
H1691 H 0.45442 0.79917 0.84834 0.0
H1692 H 0.44914 0.72979 0.79669 0.0
H1693 H 0.49737 0.73067 0.78981 0.0
C1694 C 0.53196 0.76369 0.81372 0.0
C1695 C 0.54816 0.78144 0.82835 0.0
C1696 C 0.50407 0.76501 0.81555 0.0
C1697 C 0.53611 0.80202 0.84335 0.0
C1698 C 0.50809 0.80375 0.84499 0.0
C1699 C 0.46387 0.78457 0.83527 0.0
C1700 C 0.44835 0.76424 0.82332 0.0
C1701 C 0.49187 0.78485 0.83174 0.0
C1702 C 0.46074 0.74538 0.80644 0.0
C1703 C 0.4883 0.74588 0.80243 0.0
H1704 H 0.69841 0.95741 0.34283 0.0
H1705 H 0.78475 0.9488 0.34382 0.0
H1706 H 0.79006 0.99695 0.34573 0.0
H1707 H 0.77109 0.04122 0.34548 0.0
H1708 H 0.68527 0.05238 0.34404 0.0
H1709 H 0.67889 0.00345 0.34427 0.0
C1710 C 0.71832 0.96615 0.34357 0.0
C1711 C 0.7411 0.94945 0.34283 0.0
C1712 C 0.7214 0.99423 0.34456 0.0
C1713 C 0.76681 0.96106 0.34397 0.0
C1714 C 0.76995 0.98867 0.34515 0.0
C1715 C 0.75089 0.03311 0.34516 0.0
C1716 C 0.72869 0.0504 0.34438 0.0
C1717 C 0.74747 0.00537 0.34511 0.0
C1718 C 0.70271 0.03944 0.34451 0.0
C1719 C 0.69908 0.01151 0.34458 0.0
H1720 H 0.45489 0.25527 0.81128 0.0
H1721 H 0.45163 0.18601 0.86306 0.0
H1722 H 0.50089 0.18493 0.86471 0.0
H1723 H 0.54489 0.20588 0.85351 0.0
H1724 H 0.54605 0.27604 0.80258 0.0
H1725 H 0.49756 0.27458 0.79874 0.0
C1726 C 0.46482 0.23984 0.82295 0.0
C1727 C 0.44955 0.22093 0.83726 0.0
C1728 C 0.49285 0.23963 0.8241 0.0
C1729 C 0.4629 0.20084 0.85186 0.0
C1730 C 0.49106 0.20031 0.8529 0.0
C1731 C 0.53449 0.22066 0.8414 0.0
C1732 C 0.54916 0.24117 0.82854 0.0
C1733 C 0.50627 0.21991 0.83942 0.0
C1734 C 0.53537 0.26021 0.81295 0.0
C1735 C 0.50757 0.25939 0.81066 0.0
H1736 H 0.29247 0.95218 0.34925 0.0
H1737 H 0.22991 0.94673 0.28952 0.0
H1738 H 0.23051 0.99509 0.28377 0.0
H1739 H 0.24519 0.03888 0.29862 0.0
H1740 H 0.30645 0.04631 0.35921 0.0
H1741 H 0.31043 0.99719 0.36137 0.0
C1742 C 0.27934 0.96163 0.3347 0.0
C1743 C 0.2609 0.94599 0.32011 0.0
C1744 C 0.27945 0.98973 0.33175 0.0
C1745 C 0.24397 0.95839 0.3013 0.0
C1746 C 0.24431 0.98604 0.29794 0.0
C1747 C 0.25961 0.02978 0.31217 0.0
C1748 C 0.2752 0.04602 0.32903 0.0
C1749 C 0.26137 0.00189 0.31357 0.0
C1750 C 0.29419 0.03408 0.34607 0.0
C1751 C 0.29632 0.00605 0.34741 0.0
H1752 H 0.54539 0.7399 0.1905 0.0
H1753 H 0.54707 0.8118 0.14231 0.0
H1754 H 0.4979 0.8137 0.14327 0.0
H1755 H 0.45439 0.79284 0.15541 0.0
H1756 H 0.45425 0.72025 0.20282 0.0
H1757 H 0.50295 0.72079 0.20451 0.0
C1758 C 0.53508 0.7561 0.18025 0.0
C1759 C 0.54983 0.77552 0.16613 0.0
C1760 C 0.50707 0.75686 0.18065 0.0
C1761 C 0.53614 0.79657 0.15332 0.0
C1762 C 0.50805 0.7976 0.15378 0.0
C1763 C 0.46505 0.77735 0.16636 0.0
C1764 C 0.4507 0.75643 0.17879 0.0
C1765 C 0.49328 0.77757 0.16704 0.0
C1766 C 0.46478 0.73645 0.19285 0.0
C1767 C 0.49266 0.73672 0.19387 0.0
H1768 H 0.75281 0.95078 0.68758 0.0
H1769 H 0.69252 0.94714 0.62567 0.0
H1770 H 0.6868 0.99603 0.62813 0.0
H1771 H 0.70218 0.04023 0.64547 0.0
H1772 H 0.76277 0.04214 0.7074 0.0
H1773 H 0.7649 0.99348 0.7075 0.0
C1774 C 0.73831 0.96064 0.67467 0.0
C1775 C 0.72342 0.94554 0.65619 0.0
C1776 C 0.73521 0.98847 0.67621 0.0
C1777 C 0.7043 0.95846 0.64 0.0
C1778 C 0.7011 0.98638 0.64136 0.0
C1779 C 0.71544 0.02991 0.6593 0.0
C1780 C 0.73254 0.04478 0.67615 0.0
C1781 C 0.71685 0.00167 0.65907 0.0
C1782 C 0.74967 0.03118 0.69395 0.0
C1783 C 0.75095 0.00333 0.69405 0.0
H1784 H 0.30034 0.03904 0.65145 0.0
H1785 H 0.2151 0.0458 0.66588 0.0
H1786 H 0.21137 0.99749 0.66944 0.0
H1787 H 0.23161 0.95332 0.66837 0.0
H1788 H 0.31646 0.94482 0.65345 0.0
H1789 H 0.32095 0.99369 0.65027 0.0
C1790 C 0.28099 0.02991 0.65538 0.0
C1791 C 0.2581 0.04621 0.65844 0.0
C1792 C 0.27884 0.00177 0.65738 0.0
C1793 C 0.23314 0.03396 0.66347 0.0
C1794 C 0.23091 0.00622 0.66553 0.0
C1795 C 0.25118 0.96205 0.66451 0.0
C1796 C 0.27367 0.94538 0.66126 0.0
C1797 C 0.25356 0.98996 0.66254 0.0
C1798 C 0.29879 0.95717 0.65614 0.0
C1799 C 0.30137 0.98513 0.65427 0.0
H1800 H 0.14253 0.25839 0.26985 0.0
H1801 H 0.1835 0.31427 0.32199 0.0
H1802 H 0.20337 0.27724 0.34669 0.0
H1803 H 0.21333 0.22932 0.35024 0.0
H1804 H 0.17309 0.17345 0.29755 0.0
H1805 H 0.14857 0.21014 0.27677 0.0
C1806 C 0.15544 0.26251 0.28688 0.0
C1807 C 0.16177 0.28913 0.29369 0.0
C1808 C 0.16717 0.2411 0.30089 0.0
C1809 C 0.17843 0.29401 0.316 0.0
C1810 C 0.1899 0.27282 0.33019 0.0
C1811 C 0.19886 0.22506 0.33455 0.0
C1812 C 0.19546 0.19867 0.32526 0.0
C1813 C 0.18506 0.24631 0.32231 0.0
C1814 C 0.17643 0.19359 0.30498 0.0
C1815 C 0.16238 0.21458 0.29298 0.0
H1816 H 0.30807 0.67656 0.82223 0.0
H1817 H 0.2655 0.72675 0.87863 0.0
H1818 H 0.22299 0.70732 0.86388 0.0
H1819 H 0.19799 0.68086 0.83103 0.0
H1820 H 0.24063 0.63264 0.77295 0.0
H1821 H 0.28325 0.64653 0.79264 0.0
C1822 C 0.28959 0.68303 0.83169 0.0
C1823 C 0.29 0.70346 0.85125 0.0
C1824 C 0.26525 0.67235 0.82262 0.0
C1825 C 0.26581 0.71122 0.86345 0.0
C1826 C 0.24148 0.70022 0.8549 0.0
C1827 C 0.21654 0.67301 0.82283 0.0
C1828 C 0.21605 0.65601 0.80022 0.0
C1829 C 0.24095 0.68151 0.83385 0.0
C1830 C 0.24035 0.64586 0.79018 0.0
C1831 C 0.26475 0.65387 0.80138 0.0
H1832 H 0.80822 0.69131 0.31688 0.0
H1833 H 0.85758 0.73615 0.26142 0.0
H1834 H 0.84008 0.77809 0.27967 0.0
H1835 H 0.8078 0.80154 0.30805 0.0
H1836 H 0.7569 0.75649 0.36194 0.0
H1837 H 0.77807 0.71486 0.34726 0.0
C1838 C 0.81548 0.7102 0.30889 0.0
C1839 C 0.83402 0.7105 0.28755 0.0
C1840 C 0.80482 0.73414 0.31892 0.0
C1841 C 0.84329 0.73527 0.27776 0.0
C1842 C 0.83317 0.75926 0.28807 0.0
C1843 C 0.8014 0.78269 0.31683 0.0
C1844 C 0.78056 0.78218 0.33594 0.0
C1845 C 0.81341 0.75886 0.30812 0.0
C1846 C 0.77275 0.7575 0.34711 0.0
C1847 C 0.78485 0.73369 0.33874 0.0
H1848 H 0.80216 0.32446 0.81131 0.0
H1849 H 0.75688 0.37034 0.75343 0.0
H1850 H 0.71506 0.35533 0.77422 0.0
H1851 H 0.69164 0.32587 0.80599 0.0
H1852 H 0.7372 0.28048 0.8641 0.0
H1853 H 0.77879 0.29909 0.84615 0.0
C1854 C 0.78322 0.3316 0.80342 0.0
C1855 C 0.78277 0.34837 0.78063 0.0
C1856 C 0.75932 0.32289 0.81542 0.0
C1857 C 0.75791 0.35743 0.77088 0.0
C1858 C 0.73396 0.34875 0.7827 0.0
C1859 C 0.71059 0.3203 0.81507 0.0
C1860 C 0.71121 0.3015 0.83623 0.0
C1861 C 0.73446 0.33098 0.80458 0.0
C1862 C 0.73604 0.29479 0.84779 0.0
C1863 C 0.75987 0.30534 0.83744 0.0
H1864 H 0.1871 0.80503 0.69018 0.0
H1865 H 0.23192 0.75718 0.63355 0.0
H1866 H 0.21245 0.71636 0.6525 0.0
H1867 H 0.18599 0.69419 0.68779 0.0
H1868 H 0.14211 0.74251 0.74484 0.0
H1869 H 0.15797 0.78318 0.72288 0.0
C1870 C 0.19243 0.78574 0.68166 0.0
C1871 C 0.21122 0.78428 0.66058 0.0
C1872 C 0.18151 0.76236 0.69289 0.0
C1873 C 0.21758 0.75901 0.64977 0.0
C1874 C 0.20656 0.7356 0.66071 0.0
C1875 C 0.17962 0.71358 0.6953 0.0
C1876 C 0.16302 0.71514 0.71818 0.0
C1877 C 0.18901 0.73702 0.68271 0.0
C1878 C 0.15492 0.74055 0.7274 0.0
C1879 C 0.16403 0.76389 0.71487 0.0
H1880 H 0.68939 0.68696 0.18571 0.0
H1881 H 0.73637 0.73314 0.12939 0.0
H1882 H 0.77707 0.71044 0.1446 0.0
H1883 H 0.79955 0.68089 0.17686 0.0
H1884 H 0.75221 0.63564 0.23375 0.0
H1885 H 0.71126 0.65437 0.21481 0.0
C1886 C 0.70843 0.6919 0.17643 0.0
C1887 C 0.70979 0.71197 0.15661 0.0
C1888 C 0.73169 0.67899 0.1854 0.0
C1889 C 0.7347 0.71785 0.14474 0.0
C1890 C 0.758 0.70494 0.15349 0.0
C1891 C 0.78029 0.67478 0.18493 0.0
C1892 C 0.77908 0.65712 0.20698 0.0
C1893 C 0.75678 0.68596 0.17426 0.0
C1894 C 0.75385 0.64929 0.21692 0.0
C1895 C 0.73038 0.66008 0.20618 0.0
H1896 H 0.78176 0.23109 0.642 0.0
H1897 H 0.82727 0.179 0.69417 0.0
H1898 H 0.85103 0.21722 0.71253 0.0
H1899 H 0.85534 0.26571 0.71784 0.0
H1900 H 0.80845 0.31837 0.66749 0.0
H1901 H 0.78914 0.27986 0.64452 0.0
C1902 C 0.79725 0.22805 0.65698 0.0
C1903 C 0.8025 0.20211 0.6667 0.0
C1904 C 0.81048 0.25035 0.66817 0.0
C1905 C 0.82263 0.19864 0.68624 0.0
C1906 C 0.83624 0.22057 0.69694 0.0
C1907 C 0.84124 0.26884 0.70156 0.0
C1908 C 0.83324 0.29496 0.69471 0.0
C1909 C 0.82976 0.24658 0.68868 0.0
C1910 C 0.81492 0.29851 0.67345 0.0
C1911 C 0.80377 0.27646 0.66025 0.0
H1912 H 0.19792 0.3147 0.17895 0.0
H1913 H 0.23709 0.36957 0.23348 0.0
H1914 H 0.28059 0.35756 0.2145 0.0
H1915 H 0.30753 0.32826 0.1859 0.0
H1916 H 0.26833 0.27208 0.1327 0.0
H1917 H 0.22464 0.28834 0.14752 0.0
C1918 C 0.21588 0.32434 0.18654 0.0
C1919 C 0.21419 0.3428 0.20788 0.0
C1920 C 0.24081 0.31707 0.17585 0.0
C1921 C 0.23775 0.35521 0.21719 0.0
C1922 C 0.26265 0.3483 0.20639 0.0
C1923 C 0.28948 0.31975 0.17721 0.0
C1924 C 0.29129 0.29869 0.15844 0.0
C1925 C 0.26444 0.32875 0.18622 0.0
C1926 C 0.26761 0.28819 0.14726 0.0
C1927 C 0.24259 0.29739 0.15582 0.0
H1928 H 0.32241 0.1879 0.19222 0.0
H1929 H 0.36413 0.24413 0.24338 0.0
H1930 H 0.34563 0.22212 0.28292 0.0
H1931 H 0.31466 0.18972 0.30276 0.0
H1932 H 0.27211 0.13399 0.25178 0.0
H1933 H 0.29416 0.15302 0.2124 0.0
C1934 C 0.32776 0.19521 0.21199 0.0
C1935 C 0.34449 0.21787 0.21469 0.0
C1936 C 0.31678 0.18268 0.23471 0.0
C1937 C 0.35127 0.22683 0.24058 0.0
C1938 C 0.34061 0.21431 0.26326 0.0
C1939 C 0.31037 0.18144 0.28311 0.0
C1940 C 0.29152 0.16055 0.28032 0.0
C1941 C 0.32288 0.19263 0.26052 0.0
C1942 C 0.28645 0.15007 0.25462 0.0
C1943 C 0.29899 0.16101 0.23203 0.0
H1944 H 0.35493 0.77356 0.76569 0.0
H1945 H 0.30551 0.81732 0.82185 0.0
H1946 H 0.2855 0.84251 0.78509 0.0
H1947 H 0.27933 0.84954 0.73676 0.0
H1948 H 0.32773 0.80439 0.68082 0.0
H1949 H 0.351 0.78279 0.71778 0.0
C1950 C 0.33998 0.78878 0.76998 0.0
C1951 C 0.33163 0.79329 0.79652 0.0
C1952 C 0.32828 0.80303 0.74875 0.0
C1953 C 0.31228 0.81323 0.80162 0.0
C1954 C 0.30077 0.82769 0.78059 0.0
C1955 C 0.29525 0.83531 0.73263 0.0
C1956 C 0.30158 0.82855 0.706 0.0
C1957 C 0.30824 0.8224 0.75403 0.0
C1958 C 0.32228 0.80997 0.70109 0.0
C1959 C 0.3356 0.79747 0.72223 0.0
H1960 H 0.72356 0.85762 0.26117 0.0
H1961 H 0.66248 0.82715 0.31458 0.0
H1962 H 0.63806 0.80856 0.27676 0.0
H1963 H 0.63723 0.79546 0.22959 0.0
H1964 H 0.69871 0.82478 0.176 0.0
H1965 H 0.71948 0.84938 0.21275 0.0
C1966 C 0.70461 0.84747 0.2645 0.0
C1967 C 0.69519 0.84344 0.29078 0.0
C1968 C 0.69085 0.83619 0.24264 0.0
C1969 C 0.67046 0.83032 0.29464 0.0
C1970 C 0.65646 0.81953 0.273 0.0
C1971 C 0.65495 0.80752 0.2258 0.0
C1972 C 0.66663 0.80776 0.20016 0.0
C1973 C 0.66701 0.82143 0.24706 0.0
C1974 C 0.68939 0.82389 0.1956 0.0
C1975 C 0.70136 0.83799 0.21664 0.0
H1976 H 0.72279 0.14615 0.74387 0.0
H1977 H 0.68226 0.19169 0.68226 0.0
H1978 H 0.6562 0.21507 0.71601 0.0
H1979 H 0.64781 0.2259 0.76304 0.0
H1980 H 0.69017 0.18252 0.82493 0.0
H1981 H 0.71218 0.15504 0.79115 0.0
C1982 C 0.70797 0.16088 0.7378 0.0
C1983 C 0.70464 0.16707 0.71049 0.0
C1984 C 0.69338 0.1749 0.75742 0.0
C1985 C 0.68538 0.18638 0.70307 0.0
C1986 C 0.67043 0.19992 0.7224 0.0
C1987 C 0.66151 0.21016 0.7692 0.0
C1988 C 0.66735 0.20647 0.79651 0.0
C1989 C 0.6747 0.19481 0.74965 0.0
C1990 C 0.68528 0.18597 0.80406 0.0
C1991 C 0.69801 0.17022 0.78473 0.0
H1992 H 0.81574 0.80869 0.68654 0.0
H1993 H 0.76625 0.75835 0.63615 0.0
H1994 H 0.7855 0.71846 0.6568 0.0
H1995 H 0.81319 0.69805 0.69163 0.0
H1996 H 0.86249 0.74805 0.74244 0.0
H1997 H 0.84639 0.78795 0.71897 0.0
C1998 C 0.80936 0.78903 0.67977 0.0
C1999 C 0.78933 0.78665 0.65994 0.0
C2000 C 0.82027 0.7661 0.69195 0.0
C2001 C 0.78153 0.7609 0.65139 0.0
C2002 C 0.79245 0.73802 0.66328 0.0
C2003 C 0.82072 0.7176 0.69746 0.0
C2004 C 0.83891 0.71997 0.71896 0.0
C2005 C 0.81134 0.74042 0.68399 0.0
C2006 C 0.84847 0.74556 0.72602 0.0
C2007 C 0.83922 0.76842 0.71265 0.0
H2008 H 0.69764 0.31515 0.18454 0.0
H2009 H 0.74344 0.26215 0.13356 0.0
H2010 H 0.78508 0.28184 0.15044 0.0
H2011 H 0.80818 0.3105 0.18317 0.0
H2012 H 0.76182 0.36246 0.23483 0.0
H2013 H 0.72056 0.34669 0.2139 0.0
C2014 C 0.71666 0.30808 0.17673 0.0
C2015 C 0.71735 0.28693 0.15801 0.0
C2016 C 0.74042 0.31911 0.18683 0.0
C2017 C 0.74226 0.27833 0.148 0.0
C2018 C 0.7661 0.28947 0.15778 0.0
C2019 C 0.78911 0.31866 0.18969 0.0
C2020 C 0.78817 0.33743 0.21083 0.0
C2021 C 0.76539 0.30931 0.17777 0.0
C2022 C 0.76322 0.34791 0.21875 0.0
C2023 C 0.73957 0.33887 0.20683 0.0
H2024 H 0.19506 0.30439 0.6826 0.0
H2025 H 0.13633 0.25822 0.72661 0.0
H2026 H 0.15271 0.21716 0.70548 0.0
H2027 H 0.18566 0.19427 0.67734 0.0
H2028 H 0.24445 0.24032 0.63332 0.0
H2029 H 0.22562 0.28178 0.65151 0.0
C2030 C 0.18553 0.28544 0.6874 0.0
C2031 C 0.16452 0.28448 0.70635 0.0
C2032 C 0.19506 0.26193 0.67524 0.0
C2033 C 0.1525 0.25964 0.71216 0.0
C2034 C 0.16191 0.23613 0.70013 0.0
C2035 C 0.19423 0.21334 0.67135 0.0
C2036 C 0.21662 0.21407 0.65406 0.0
C2037 C 0.18347 0.23702 0.68203 0.0
C2038 C 0.22725 0.23908 0.64654 0.0
C2039 C 0.21657 0.2628 0.65705 0.0
H2040 H 0.19547 0.67903 0.1795 0.0
H2041 H 0.23521 0.63521 0.24291 0.0
H2042 H 0.27873 0.64911 0.22538 0.0
H2043 H 0.30506 0.6769 0.19487 0.0
H2044 H 0.26539 0.72192 0.13229 0.0
H2045 H 0.22215 0.7039 0.14664 0.0
C2046 C 0.21361 0.67221 0.18939 0.0
C2047 C 0.21197 0.65629 0.21271 0.0
C2048 C 0.23855 0.68055 0.17944 0.0
C2049 C 0.23578 0.64753 0.22502 0.0
C2050 C 0.26071 0.65553 0.21505 0.0
C2051 C 0.28706 0.68259 0.18407 0.0
C2052 C 0.28852 0.70101 0.16267 0.0
C2053 C 0.26227 0.67254 0.19268 0.0
C2054 C 0.26491 0.70787 0.14886 0.0
C2055 C 0.24014 0.69766 0.15713 0.0
H2056 H 0.85876 0.26258 0.28006 0.0
H2057 H 0.81789 0.319 0.3316 0.0
H2058 H 0.79921 0.28219 0.35765 0.0
H2059 H 0.78994 0.23412 0.36233 0.0
H2060 H 0.82938 0.178 0.30935 0.0
H2061 H 0.85332 0.21454 0.28779 0.0
C2062 C 0.84616 0.2669 0.29726 0.0
C2063 C 0.83948 0.29354 0.30353 0.0
C2064 C 0.83499 0.24564 0.31189 0.0
C2065 C 0.82321 0.29868 0.32605 0.0
C2066 C 0.81242 0.27763 0.341 0.0
C2067 C 0.80415 0.22981 0.34642 0.0
C2068 C 0.80752 0.20335 0.33732 0.0
C2069 C 0.81747 0.25102 0.33357 0.0
C2070 C 0.82612 0.19818 0.31669 0.0
C2071 C 0.83983 0.21909 0.30422 0.0
H2072 H 0.23785 0.35316 0.77682 0.0
H2073 H 0.17911 0.31202 0.8254 0.0
H2074 H 0.21471 0.29116 0.85151 0.0
H2075 H 0.26258 0.28035 0.85721 0.0
H2076 H 0.32069 0.319 0.80588 0.0
H2077 H 0.28553 0.34511 0.78479 0.0
C2078 C 0.23278 0.34004 0.79342 0.0
C2079 C 0.20577 0.33412 0.79889 0.0
C2080 C 0.25338 0.32738 0.80793 0.0
C2081 C 0.1997 0.31695 0.82053 0.0
C2082 C 0.22008 0.30487 0.83551 0.0
C2083 C 0.26761 0.29483 0.84178 0.0
C2084 C 0.29436 0.29752 0.83324 0.0
C2085 C 0.24703 0.30929 0.82888 0.0
C2086 C 0.30039 0.31639 0.81305 0.0
C2087 C 0.28021 0.33134 0.80077 0.0
H2088 H 0.17334 0.80635 0.30688 0.0
H2089 H 0.21562 0.76236 0.36848 0.0
H2090 H 0.19497 0.7207 0.35293 0.0
H2091 H 0.16943 0.69652 0.31877 0.0
H2092 H 0.12912 0.74045 0.25579 0.0
H2093 H 0.14437 0.78265 0.2754 0.0
C2094 C 0.17784 0.78776 0.31724 0.0
C2095 C 0.19635 0.78749 0.33863 0.0
C2096 C 0.1664 0.7639 0.30786 0.0
C2097 C 0.20159 0.76318 0.35191 0.0
C2098 C 0.18988 0.73934 0.34295 0.0
C2099 C 0.1636 0.71529 0.30944 0.0
C2100 C 0.14843 0.71523 0.28556 0.0
C2101 C 0.17293 0.7394 0.32044 0.0
C2102 C 0.14088 0.73983 0.27405 0.0
C2103 C 0.14969 0.76398 0.28519 0.0
H2104 H 0.76404 0.64873 0.78712 0.0
H2105 H 0.81737 0.69467 0.83769 0.0
H2106 H 0.77912 0.7147 0.86044 0.0
H2107 H 0.73072 0.7236 0.86202 0.0
H2108 H 0.67777 0.67919 0.80972 0.0
H2109 H 0.71557 0.65405 0.79208 0.0
C2110 C 0.76736 0.66271 0.80346 0.0
C2111 C 0.79359 0.67039 0.81034 0.0
C2112 C 0.74526 0.67471 0.81611 0.0
C2113 C 0.79741 0.68852 0.83169 0.0
C2114 C 0.77552 0.70009 0.84474 0.0
C2115 C 0.72736 0.70806 0.84717 0.0
C2116 C 0.70141 0.70361 0.83707 0.0
C2117 C 0.74935 0.69403 0.8365 0.0
C2118 C 0.6975 0.6833 0.8178 0.0
C2119 C 0.71916 0.66889 0.80757 0.0
H2120 H 0.72085 0.85378 0.7286 0.0
H2121 H 0.66706 0.81478 0.67293 0.0
H2122 H 0.64272 0.79452 0.71019 0.0
H2123 H 0.63993 0.78386 0.7582 0.0
H2124 H 0.69563 0.82124 0.81319 0.0
H2125 H 0.71581 0.84608 0.77652 0.0
C2126 C 0.70351 0.84126 0.72455 0.0
C2127 C 0.69605 0.8356 0.69798 0.0
C2128 C 0.69008 0.82904 0.74597 0.0
C2129 C 0.67344 0.81934 0.69319 0.0
C2130 C 0.65954 0.80762 0.71449 0.0
C2131 C 0.65625 0.79768 0.76223 0.0
C2132 C 0.6663 0.80043 0.78844 0.0
C2133 C 0.66822 0.81165 0.74092 0.0
C2134 C 0.68748 0.81852 0.79325 0.0
C2135 C 0.69911 0.8328 0.77226 0.0
H2136 H 0.7248 0.14233 0.26861 0.0
H2137 H 0.68638 0.19612 0.32463 0.0
H2138 H 0.66139 0.2168 0.28813 0.0
H2139 H 0.65342 0.22243 0.23995 0.0
H2140 H 0.69358 0.17007 0.18379 0.0
H2141 H 0.71456 0.146 0.22072 0.0
C2142 C 0.71068 0.1583 0.27294 0.0
C2143 C 0.70768 0.16769 0.29937 0.0
C2144 C 0.69673 0.17056 0.25177 0.0
C2145 C 0.68927 0.18849 0.3045 0.0
C2146 C 0.67495 0.20042 0.2836 0.0
C2147 C 0.66643 0.20551 0.23575 0.0
C2148 C 0.67196 0.19825 0.20906 0.0
C2149 C 0.67897 0.19204 0.25709 0.0
C2150 C 0.68898 0.17626 0.20409 0.0
C2151 C 0.70109 0.16246 0.22522 0.0
H2152 H 0.27099 0.14583 0.73184 0.0
H2153 H 0.33389 0.17237 0.67858 0.0
H2154 H 0.35759 0.19285 0.71596 0.0
H2155 H 0.35802 0.20773 0.76293 0.0
H2156 H 0.29369 0.18302 0.81552 0.0
H2157 H 0.2733 0.15755 0.77944 0.0
C2158 C 0.29014 0.15558 0.72848 0.0
C2159 C 0.30044 0.15765 0.70235 0.0
C2160 C 0.30336 0.16812 0.74998 0.0
C2161 C 0.32532 0.17051 0.69843 0.0
C2162 C 0.3389 0.18241 0.71981 0.0
C2163 C 0.33974 0.19651 0.7666 0.0
C2164 C 0.32746 0.19756 0.79195 0.0
C2165 C 0.32769 0.1821 0.74555 0.0
C2166 C 0.3037 0.1828 0.79626 0.0
C2167 C 0.2919 0.16814 0.77558 0.0
H2168 H 0.27497 0.84987 0.26069 0.0
H2169 H 0.31442 0.80343 0.32237 0.0
H2170 H 0.34194 0.78143 0.2887 0.0
H2171 H 0.35184 0.77211 0.2416 0.0
H2172 H 0.31158 0.81756 0.17973 0.0
H2173 H 0.2878 0.84332 0.21368 0.0
C2174 C 0.28982 0.83521 0.26684 0.0
C2175 C 0.29231 0.8282 0.29405 0.0
C2176 C 0.30546 0.82228 0.24733 0.0
C2177 C 0.31181 0.80917 0.30159 0.0
C2178 C 0.32762 0.79649 0.28233 0.0
C2179 C 0.33821 0.78793 0.23549 0.0
C2180 C 0.33336 0.79259 0.20811 0.0
C2181 C 0.32417 0.80241 0.2551 0.0
C2182 C 0.31562 0.81329 0.20065 0.0
C2183 C 0.3019 0.82805 0.22006 0.0
loop_
_geom_bond_atom_site_label_1
_geom_bond_atom_site_label_2
_geom_bond_distance
_geom_bond_site_symmetry_2
_ccdc_geom_bond_type
Co0 O2 2.143 . S
Co0 O8 2.074 . S
Co0 O11 2.093 . S
Co0 O24 2.097 . S
Co0 N41 2.151 . S
Co0 N49 2.214 . S
Co1 O2 2.160 . S
Co1 O7 2.058 . S
Co1 O17 2.057 . S
Co1 O32 2.037 . S
Co1 N36 2.145 . S
Co1 N57 2.257 . S
O2 Co0 2.143 . S
O2 Co1 2.160 . S
C3 O4 1.278 . S
C3 O11 1.224 . S
O4 C3 1.278 . S
C5 O6 1.245 . S
C5 O17 1.232 . S
O6 C5 1.245 . S
O7 Co1 2.058 . S
O7 C33 1.269 . S
O8 Co0 2.074 . S
O8 C33 1.257 . S
H9 C34 0.930 . S
H10 C40 0.930 . S
O11 Co0 2.093 . S
O11 C3 1.224 . S
H12 C44 0.929 . S
H13 C46 0.930 . S
H14 C47 0.930 . S
H15 C45 0.929 . S
H16 C48 0.928 . S
O17 Co1 2.057 . S
O17 C5 1.232 . S
H18 C37 0.929 . S
H19 C38 0.929 . S
H20 C50 0.931 . S
H21 C42 0.929 . S
H22 C51 0.930 . S
H23 C43 0.931 . S
O24 Co0 2.097 . S
O24 C52 1.214 . S
H25 C53 0.929 . S
H26 C54 0.929 . S
H27 C55 0.930 . S
H28 C56 0.929 . S
H29 C58 0.930 . S
H30 C35 0.930 . S
H31 C39 0.930 . S
O32 Co1 2.037 . S
O32 C52 1.234 . S
C33 O7 1.269 . S
C33 O8 1.257 . S
C34 H9 0.930 . S
C34 C37 1.388 . S
C34 C39 1.418 . S
C35 H30 0.930 . S
C35 C38 1.404 . S
C35 C39 1.353 . S
N36 Co1 2.145 . S
N36 C37 1.397 . S
N36 C38 1.334 . S
C37 H18 0.929 . S
C37 C34 1.388 . S
C37 N36 1.397 . S
C38 H19 0.929 . S
C38 C35 1.404 . S
C38 N36 1.334 . S
C39 H31 0.930 . S
C39 C34 1.418 . S
C39 C35 1.353 . S
C40 H10 0.930 . S
C40 N41 1.330 . S
C40 C42 1.446 . S
N41 Co0 2.151 . S
N41 C40 1.330 . S
N41 C45 1.418 . S
C42 H21 0.929 . S
C42 C40 1.446 . S
C42 C43 1.332 . S
C43 H23 0.931 . S
C43 C42 1.332 . S
C43 C44 1.267 . S
C44 H12 0.929 . S
C44 C43 1.267 . S
C44 C45 1.251 . S
C45 H15 0.929 . S
C45 N41 1.418 . S
C45 C44 1.251 . S
C46 H13 0.930 . S
C46 C48 1.406 . S
C46 C51 1.261 . S
C47 H14 0.930 . S
C47 N49 1.325 . S
C47 C50 1.357 . S
C48 H16 0.928 . S
C48 C46 1.406 . S
C48 N49 1.261 . S
N49 Co0 2.214 . S
N49 C47 1.325 . S
N49 C48 1.261 . S
C50 H20 0.931 . S
C50 C47 1.357 . S
C50 C51 1.312 . S
C51 H22 0.930 . S
C51 C46 1.261 . S
C51 C50 1.312 . S
C52 O24 1.214 . S
C52 O32 1.234 . S
C53 H25 0.929 . S
C53 C56 1.391 . S
C53 C58 1.391 . S
C54 H26 0.929 . S
C54 C55 1.390 . S
C54 N57 1.391 . S
C55 H27 0.930 . S
C55 C54 1.390 . S
C55 C56 1.392 . S
C56 H28 0.929 . S
C56 C53 1.391 . S
C56 C55 1.392 . S
N57 Co1 2.257 . S
N57 C54 1.391 . S
N57 C58 1.388 . S
C58 H29 0.930 . S
C58 C53 1.391 . S
C58 N57 1.388 . S
Co59 O61 2.143 . S
Co59 O67 2.074 . S
Co59 O70 2.093 . S
Co59 O83 2.097 . S
Co59 N100 2.151 . S
Co59 N108 2.214 . S
Co60 O61 2.160 . S
Co60 O66 2.058 . S
Co60 O76 2.057 . S
Co60 O91 2.037 . S
Co60 N95 2.145 . S
Co60 N116 2.257 . S
O61 Co59 2.143 . S
O61 Co60 2.160 . S
C62 O63 1.278 . S
C62 O70 1.224 . S
O63 C62 1.278 . S
C64 O65 1.245 . S
C64 O76 1.232 . S
O65 C64 1.245 . S
O66 Co60 2.058 . S
O66 C92 1.269 . S
O67 Co59 2.074 . S
O67 C92 1.257 . S
H68 C93 0.930 . S
H69 C99 0.930 . S
O70 Co59 2.093 . S
O70 C62 1.224 . S
H71 C103 0.929 . S
H72 C105 0.930 . S
H73 C106 0.930 . S
H74 C104 0.929 . S
H75 C107 0.928 . S
O76 Co60 2.057 . S
O76 C64 1.232 . S
H77 C96 0.929 . S
H78 C97 0.929 . S
H79 C109 0.931 . S
H80 C101 0.929 . S
H81 C110 0.930 . S
H82 C102 0.931 . S
O83 Co59 2.097 . S
O83 C111 1.214 . S
H84 C112 0.929 . S
H85 C113 0.929 . S
H86 C114 0.930 . S
H87 C115 0.929 . S
H88 C117 0.930 . S
H89 C94 0.930 . S
H90 C98 0.930 . S
O91 Co60 2.037 . S
O91 C111 1.234 . S
C92 O66 1.269 . S
C92 O67 1.257 . S
C93 H68 0.930 . S
C93 C96 1.388 . S
C93 C98 1.418 . S
C94 H89 0.930 . S
C94 C97 1.404 . S
C94 C98 1.353 . S
N95 Co60 2.145 . S
N95 C96 1.397 . S
N95 C97 1.334 . S
C96 H77 0.929 . S
C96 C93 1.388 . S
C96 N95 1.397 . S
C97 H78 0.929 . S
C97 C94 1.404 . S
C97 N95 1.334 . S
C98 H90 0.930 . S
C98 C93 1.418 . S
C98 C94 1.353 . S
C99 H69 0.930 . S
C99 N100 1.330 . S
C99 C101 1.446 . S
N100 Co59 2.151 . S
N100 C99 1.330 . S
N100 C104 1.418 . S
C101 H80 0.929 . S
C101 C99 1.446 . S
C101 C102 1.332 . S
C102 H82 0.931 . S
C102 C101 1.332 . S
C102 C103 1.267 . S
C103 H71 0.929 . S
C103 C102 1.267 . S
C103 C104 1.251 . S
C104 H74 0.929 . S
C104 N100 1.418 . S
C104 C103 1.251 . S
C105 H72 0.930 . S
C105 C107 1.406 . S
C105 C110 1.261 . S
C106 H73 0.930 . S
C106 N108 1.325 . S
C106 C109 1.357 . S
C107 H75 0.928 . S
C107 C105 1.406 . S
C107 N108 1.261 . S
N108 Co59 2.214 . S
N108 C106 1.325 . S
N108 C107 1.261 . S
C109 H79 0.931 . S
C109 C106 1.357 . S
C109 C110 1.312 . S
C110 H81 0.930 . S
C110 C105 1.261 . S
C110 C109 1.312 . S
C111 O83 1.214 . S
C111 O91 1.234 . S
C112 H84 0.929 . S
C112 C115 1.391 . S
C112 C117 1.391 . S
C113 H85 0.929 . S
C113 C114 1.390 . S
C113 N116 1.391 . S
C114 H86 0.930 . S
C114 C113 1.390 . S
C114 C115 1.392 . S
C115 H87 0.929 . S
C115 C112 1.391 . S
C115 C114 1.392 . S
N116 Co60 2.257 . S
N116 C113 1.391 . S
N116 C117 1.388 . S
C117 H88 0.930 . S
C117 C112 1.391 . S
C117 N116 1.388 . S
Co118 O120 2.143 . S
Co118 O126 2.074 . S
Co118 O129 2.093 . S
Co118 O142 2.097 . S
Co118 N159 2.151 . S
Co118 N167 2.214 . S
Co119 O120 2.160 . S
Co119 O125 2.058 . S
Co119 O135 2.057 . S
Co119 O150 2.037 . S
Co119 N154 2.145 . S
Co119 N175 2.257 . S
O120 Co118 2.143 . S
O120 Co119 2.160 . S
C121 O122 1.278 . S
C121 O129 1.224 . S
O122 C121 1.278 . S
C123 O124 1.245 . S
C123 O135 1.232 . S
O124 C123 1.245 . S
O125 Co119 2.058 . S
O125 C151 1.269 . S
O126 Co118 2.074 . S
O126 C151 1.257 . S
H127 C152 0.930 . S
H128 C158 0.930 . S
O129 Co118 2.093 . S
O129 C121 1.224 . S
H130 C162 0.929 . S
H131 C164 0.930 . S
H132 C165 0.930 . S
H133 C163 0.929 . S
H134 C166 0.928 . S
O135 Co119 2.057 . S
O135 C123 1.232 . S
H136 C155 0.929 . S
H137 C156 0.929 . S
H138 C168 0.931 . S
H139 C160 0.929 . S
H140 C169 0.930 . S
H141 C161 0.931 . S
O142 Co118 2.097 . S
O142 C170 1.214 . S
H143 C171 0.929 . S
H144 C172 0.929 . S
H145 C173 0.930 . S
H146 C174 0.929 . S
H147 C176 0.930 . S
H148 C153 0.930 . S
H149 C157 0.930 . S
O150 Co119 2.037 . S
O150 C170 1.234 . S
C151 O125 1.269 . S
C151 O126 1.257 . S
C152 H127 0.930 . S
C152 C155 1.388 . S
C152 C157 1.418 . S
C153 H148 0.930 . S
C153 C156 1.404 . S
C153 C157 1.353 . S
N154 Co119 2.145 . S
N154 C155 1.397 . S
N154 C156 1.334 . S
C155 H136 0.929 . S
C155 C152 1.388 . S
C155 N154 1.397 . S
C156 H137 0.929 . S
C156 C153 1.404 . S
C156 N154 1.334 . S
C157 H149 0.930 . S
C157 C152 1.418 . S
C157 C153 1.353 . S
C158 H128 0.930 . S
C158 N159 1.330 . S
C158 C160 1.446 . S
N159 Co118 2.151 . S
N159 C158 1.330 . S
N159 C163 1.418 . S
C160 H139 0.929 . S
C160 C158 1.446 . S
C160 C161 1.332 . S
C161 H141 0.931 . S
C161 C160 1.332 . S
C161 C162 1.267 . S
C162 H130 0.929 . S
C162 C161 1.267 . S
C162 C163 1.251 . S
C163 H133 0.929 . S
C163 N159 1.418 . S
C163 C162 1.251 . S
C164 H131 0.930 . S
C164 C166 1.406 . S
C164 C169 1.261 . S
C165 H132 0.930 . S
C165 N167 1.325 . S
C165 C168 1.357 . S
C166 H134 0.928 . S
C166 C164 1.406 . S
C166 N167 1.261 . S
N167 Co118 2.214 . S
N167 C165 1.325 . S
N167 C166 1.261 . S
C168 H138 0.931 . S
C168 C165 1.357 . S
C168 C169 1.312 . S
C169 H140 0.930 . S
C169 C164 1.261 . S
C169 C168 1.312 . S
C170 O142 1.214 . S
C170 O150 1.234 . S
C171 H143 0.929 . S
C171 C174 1.391 . S
C171 C176 1.391 . S
C172 H144 0.929 . S
C172 C173 1.390 . S
C172 N175 1.391 . S
C173 H145 0.930 . S
C173 C172 1.390 . S
C173 C174 1.392 . S
C174 H146 0.929 . S
C174 C171 1.391 . S
C174 C173 1.392 . S
N175 Co119 2.257 . S
N175 C172 1.391 . S
N175 C176 1.388 . S
C176 H147 0.930 . S
C176 C171 1.391 . S
C176 N175 1.388 . S
Co177 O179 2.143 . S
Co177 O185 2.074 . S
Co177 O188 2.093 . S
Co177 O201 2.097 . S
Co177 N218 2.151 . S
Co177 N226 2.214 . S
Co178 O179 2.160 . S
Co178 O184 2.058 . S
Co178 O194 2.057 . S
Co178 O209 2.037 . S
Co178 N213 2.145 . S
Co178 N234 2.257 . S
O179 Co177 2.143 . S
O179 Co178 2.160 . S
C180 O181 1.278 . S
C180 O188 1.224 . S
O181 C180 1.278 . S
C182 O183 1.245 . S
C182 O194 1.232 . S
O183 C182 1.245 . S
O184 Co178 2.058 . S
O184 C210 1.269 . S
O185 Co177 2.074 . S
O185 C210 1.257 . S
H186 C211 0.930 . S
H187 C217 0.930 . S
O188 Co177 2.093 . S
O188 C180 1.224 . S
H189 C221 0.929 . S
H190 C223 0.930 . S
H191 C224 0.930 . S
H192 C222 0.929 . S
H193 C225 0.928 . S
O194 Co178 2.057 . S
O194 C182 1.232 . S
H195 C214 0.929 . S
H196 C215 0.929 . S
H197 C227 0.931 . S
H198 C219 0.929 . S
H199 C228 0.930 . S
H200 C220 0.931 . S
O201 Co177 2.097 . S
O201 C229 1.214 . S
H202 C230 0.929 . S
H203 C231 0.929 . S
H204 C232 0.930 . S
H205 C233 0.929 . S
H206 C235 0.930 . S
H207 C212 0.930 . S
H208 C216 0.930 . S
O209 Co178 2.037 . S
O209 C229 1.234 . S
C210 O184 1.269 . S
C210 O185 1.257 . S
C211 H186 0.930 . S
C211 C214 1.388 . S
C211 C216 1.418 . S
C212 H207 0.930 . S
C212 C215 1.404 . S
C212 C216 1.353 . S
N213 Co178 2.145 . S
N213 C214 1.397 . S
N213 C215 1.334 . S
C214 H195 0.929 . S
C214 C211 1.388 . S
C214 N213 1.397 . S
C215 H196 0.929 . S
C215 C212 1.404 . S
C215 N213 1.334 . S
C216 H208 0.930 . S
C216 C211 1.418 . S
C216 C212 1.353 . S
C217 H187 0.930 . S
C217 N218 1.330 . S
C217 C219 1.446 . S
N218 Co177 2.151 . S
N218 C217 1.330 . S
N218 C222 1.418 . S
C219 H198 0.929 . S
C219 C217 1.446 . S
C219 C220 1.332 . S
C220 H200 0.931 . S
C220 C219 1.332 . S
C220 C221 1.267 . S
C221 H189 0.929 . S
C221 C220 1.267 . S
C221 C222 1.251 . S
C222 H192 0.929 . S
C222 N218 1.418 . S
C222 C221 1.251 . S
C223 H190 0.930 . S
C223 C225 1.406 . S
C223 C228 1.261 . S
C224 H191 0.930 . S
C224 N226 1.325 . S
C224 C227 1.357 . S
C225 H193 0.928 . S
C225 C223 1.406 . S
C225 N226 1.261 . S
N226 Co177 2.214 . S
N226 C224 1.325 . S
N226 C225 1.261 . S
C227 H197 0.931 . S
C227 C224 1.357 . S
C227 C228 1.312 . S
C228 H199 0.930 . S
C228 C223 1.261 . S
C228 C227 1.312 . S
C229 O201 1.214 . S
C229 O209 1.234 . S
C230 H202 0.929 . S
C230 C233 1.391 . S
C230 C235 1.391 . S
C231 H203 0.929 . S
C231 C232 1.390 . S
C231 N234 1.391 . S
C232 H204 0.930 . S
C232 C231 1.390 . S
C232 C233 1.392 . S
C233 H205 0.929 . S
C233 C230 1.391 . S
C233 C232 1.392 . S
N234 Co178 2.257 . S
N234 C231 1.391 . S
N234 C235 1.388 . S
C235 H206 0.930 . S
C235 C230 1.391 . S
C235 N234 1.388 . S
Co236 O238 2.143 . S
Co236 O244 2.074 . S
Co236 O247 2.093 . S
Co236 O260 2.097 . S
Co236 N277 2.151 . S
Co236 N285 2.214 . S
Co237 O238 2.160 . S
Co237 O243 2.058 . S
Co237 O253 2.057 . S
Co237 O268 2.037 . S
Co237 N272 2.145 . S
Co237 N293 2.257 . S
O238 Co236 2.143 . S
O238 Co237 2.160 . S
C239 O240 1.278 . S
C239 O247 1.224 . S
O240 C239 1.278 . S
C241 O242 1.245 . S
C241 O253 1.232 . S
O242 C241 1.245 . S
O243 Co237 2.058 . S
O243 C269 1.269 . S
O244 Co236 2.074 . S
O244 C269 1.257 . S
H245 C270 0.930 . S
H246 C276 0.930 . S
O247 Co236 2.093 . S
O247 C239 1.224 . S
H248 C280 0.929 . S
H249 C282 0.930 . S
H250 C283 0.930 . S
H251 C281 0.929 . S
H252 C284 0.928 . S
O253 Co237 2.057 . S
O253 C241 1.232 . S
H254 C273 0.929 . S
H255 C274 0.929 . S
H256 C286 0.931 . S
H257 C278 0.929 . S
H258 C287 0.930 . S
H259 C279 0.931 . S
O260 Co236 2.097 . S
O260 C288 1.214 . S
H261 C289 0.929 . S
H262 C290 0.929 . S
H263 C291 0.930 . S
H264 C292 0.929 . S
H265 C294 0.930 . S
H266 C271 0.930 . S
H267 C275 0.930 . S
O268 Co237 2.037 . S
O268 C288 1.234 . S
C269 O243 1.269 . S
C269 O244 1.257 . S
C270 H245 0.930 . S
C270 C273 1.388 . S
C270 C275 1.418 . S
C271 H266 0.930 . S
C271 C274 1.404 . S
C271 C275 1.353 . S
N272 Co237 2.145 . S
N272 C273 1.397 . S
N272 C274 1.334 . S
C273 H254 0.929 . S
C273 C270 1.388 . S
C273 N272 1.397 . S
C274 H255 0.929 . S
C274 C271 1.404 . S
C274 N272 1.334 . S
C275 H267 0.930 . S
C275 C270 1.418 . S
C275 C271 1.353 . S
C276 H246 0.930 . S
C276 N277 1.330 . S
C276 C278 1.446 . S
N277 Co236 2.151 . S
N277 C276 1.330 . S
N277 C281 1.418 . S
C278 H257 0.929 . S
C278 C276 1.446 . S
C278 C279 1.332 . S
C279 H259 0.931 . S
C279 C278 1.332 . S
C279 C280 1.267 . S
C280 H248 0.929 . S
C280 C279 1.267 . S
C280 C281 1.251 . S
C281 H251 0.929 . S
C281 N277 1.418 . S
C281 C280 1.251 . S
C282 H249 0.930 . S
C282 C284 1.406 . S
C282 C287 1.261 . S
C283 H250 0.930 . S
C283 N285 1.325 . S
C283 C286 1.357 . S
C284 H252 0.928 . S
C284 C282 1.406 . S
C284 N285 1.261 . S
N285 Co236 2.214 . S
N285 C283 1.325 . S
N285 C284 1.261 . S
C286 H256 0.931 . S
C286 C283 1.357 . S
C286 C287 1.312 . S
C287 H258 0.930 . S
C287 C282 1.261 . S
C287 C286 1.312 . S
C288 O260 1.214 . S
C288 O268 1.234 . S
C289 H261 0.929 . S
C289 C292 1.391 . S
C289 C294 1.391 . S
C290 H262 0.929 . S
C290 C291 1.390 . S
C290 N293 1.391 . S
C291 H263 0.930 . S
C291 C290 1.390 . S
C291 C292 1.392 . S
C292 H264 0.929 . S
C292 C289 1.391 . S
C292 C291 1.392 . S
N293 Co237 2.257 . S
N293 C290 1.391 . S
N293 C294 1.388 . S
C294 H265 0.930 . S
C294 C289 1.391 . S
C294 N293 1.388 . S
Co295 O297 2.143 . S
Co295 O303 2.074 . S
Co295 O306 2.093 . S
Co295 O319 2.097 . S
Co295 N336 2.151 . S
Co295 N344 2.214 . S
Co296 O297 2.160 . S
Co296 O302 2.058 . S
Co296 O312 2.057 . S
Co296 O327 2.037 . S
Co296 N331 2.145 . S
Co296 N352 2.257 . S
O297 Co295 2.143 . S
O297 Co296 2.160 . S
C298 O299 1.278 . S
C298 O306 1.224 . S
O299 C298 1.278 . S
C300 O301 1.245 . S
C300 O312 1.232 . S
O301 C300 1.245 . S
O302 Co296 2.058 . S
O302 C328 1.269 . S
O303 Co295 2.074 . S
O303 C328 1.257 . S
H304 C329 0.930 . S
H305 C335 0.930 . S
O306 Co295 2.093 . S
O306 C298 1.224 . S
H307 C339 0.929 . S
H308 C341 0.930 . S
H309 C342 0.930 . S
H310 C340 0.929 . S
H311 C343 0.928 . S
O312 Co296 2.057 . S
O312 C300 1.232 . S
H313 C332 0.929 . S
H314 C333 0.929 . S
H315 C345 0.931 . S
H316 C337 0.929 . S
H317 C346 0.930 . S
H318 C338 0.931 . S
O319 Co295 2.097 . S
O319 C347 1.214 . S
H320 C348 0.929 . S
H321 C349 0.929 . S
H322 C350 0.930 . S
H323 C351 0.929 . S
H324 C353 0.930 . S
H325 C330 0.930 . S
H326 C334 0.930 . S
O327 Co296 2.037 . S
O327 C347 1.234 . S
C328 O302 1.269 . S
C328 O303 1.257 . S
C329 H304 0.930 . S
C329 C332 1.388 . S
C329 C334 1.418 . S
C330 H325 0.930 . S
C330 C333 1.404 . S
C330 C334 1.353 . S
N331 Co296 2.145 . S
N331 C332 1.397 . S
N331 C333 1.334 . S
C332 H313 0.929 . S
C332 C329 1.388 . S
C332 N331 1.397 . S
C333 H314 0.929 . S
C333 C330 1.404 . S
C333 N331 1.334 . S
C334 H326 0.930 . S
C334 C329 1.418 . S
C334 C330 1.353 . S
C335 H305 0.930 . S
C335 N336 1.330 . S
C335 C337 1.446 . S
N336 Co295 2.151 . S
N336 C335 1.330 . S
N336 C340 1.418 . S
C337 H316 0.929 . S
C337 C335 1.446 . S
C337 C338 1.332 . S
C338 H318 0.931 . S
C338 C337 1.332 . S
C338 C339 1.267 . S
C339 H307 0.929 . S
C339 C338 1.267 . S
C339 C340 1.251 . S
C340 H310 0.929 . S
C340 N336 1.418 . S
C340 C339 1.251 . S
C341 H308 0.930 . S
C341 C343 1.406 . S
C341 C346 1.261 . S
C342 H309 0.930 . S
C342 N344 1.325 . S
C342 C345 1.357 . S
C343 H311 0.928 . S
C343 C341 1.406 . S
C343 N344 1.261 . S
N344 Co295 2.214 . S
N344 C342 1.325 . S
N344 C343 1.261 . S
C345 H315 0.931 . S
C345 C342 1.357 . S
C345 C346 1.312 . S
C346 H317 0.930 . S
C346 C341 1.261 . S
C346 C345 1.312 . S
C347 O319 1.214 . S
C347 O327 1.234 . S
C348 H320 0.929 . S
C348 C351 1.391 . S
C348 C353 1.391 . S
C349 H321 0.929 . S
C349 C350 1.390 . S
C349 N352 1.391 . S
C350 H322 0.930 . S
C350 C349 1.390 . S
C350 C351 1.392 . S
C351 H323 0.929 . S
C351 C348 1.391 . S
C351 C350 1.392 . S
N352 Co296 2.257 . S
N352 C349 1.391 . S
N352 C353 1.388 . S
C353 H324 0.930 . S
C353 C348 1.391 . S
C353 N352 1.388 . S
Co354 O356 2.143 . S
Co354 O362 2.074 . S
Co354 O365 2.093 . S
Co354 O378 2.097 . S
Co354 N395 2.151 . S
Co354 N403 2.214 . S
Co355 O356 2.160 . S
Co355 O361 2.058 . S
Co355 O371 2.057 . S
Co355 O386 2.037 . S
Co355 N390 2.145 . S
Co355 N411 2.257 . S
O356 Co354 2.143 . S
O356 Co355 2.160 . S
C357 O358 1.278 . S
C357 O365 1.224 . S
O358 C357 1.278 . S
C359 O360 1.245 . S
C359 O371 1.232 . S
O360 C359 1.245 . S
O361 Co355 2.058 . S
O361 C387 1.269 . S
O362 Co354 2.074 . S
O362 C387 1.257 . S
H363 C388 0.930 . S
H364 C394 0.930 . S
O365 Co354 2.093 . S
O365 C357 1.224 . S
H366 C398 0.929 . S
H367 C400 0.930 . S
H368 C401 0.930 . S
H369 C399 0.929 . S
H370 C402 0.928 . S
O371 Co355 2.057 . S
O371 C359 1.232 . S
H372 C391 0.929 . S
H373 C392 0.929 . S
H374 C404 0.931 . S
H375 C396 0.929 . S
H376 C405 0.930 . S
H377 C397 0.931 . S
O378 Co354 2.097 . S
O378 C406 1.214 . S
H379 C407 0.929 . S
H380 C408 0.929 . S
H381 C409 0.930 . S
H382 C410 0.929 . S
H383 C412 0.930 . S
H384 C389 0.930 . S
H385 C393 0.930 . S
O386 Co355 2.037 . S
O386 C406 1.234 . S
C387 O361 1.269 . S
C387 O362 1.257 . S
C388 H363 0.930 . S
C388 C391 1.388 . S
C388 C393 1.418 . S
C389 H384 0.930 . S
C389 C392 1.404 . S
C389 C393 1.353 . S
N390 Co355 2.145 . S
N390 C391 1.397 . S
N390 C392 1.334 . S
C391 H372 0.929 . S
C391 C388 1.388 . S
C391 N390 1.397 . S
C392 H373 0.929 . S
C392 C389 1.404 . S
C392 N390 1.334 . S
C393 H385 0.930 . S
C393 C388 1.418 . S
C393 C389 1.353 . S
C394 H364 0.930 . S
C394 N395 1.330 . S
C394 C396 1.446 . S
N395 Co354 2.151 . S
N395 C394 1.330 . S
N395 C399 1.418 . S
C396 H375 0.929 . S
C396 C394 1.446 . S
C396 C397 1.332 . S
C397 H377 0.931 . S
C397 C396 1.332 . S
C397 C398 1.267 . S
C398 H366 0.929 . S
C398 C397 1.267 . S
C398 C399 1.251 . S
C399 H369 0.929 . S
C399 N395 1.418 . S
C399 C398 1.251 . S
C400 H367 0.930 . S
C400 C402 1.406 . S
C400 C405 1.261 . S
C401 H368 0.930 . S
C401 N403 1.325 . S
C401 C404 1.357 . S
C402 H370 0.928 . S
C402 C400 1.406 . S
C402 N403 1.261 . S
N403 Co354 2.214 . S
N403 C401 1.325 . S
N403 C402 1.261 . S
C404 H374 0.931 . S
C404 C401 1.357 . S
C404 C405 1.312 . S
C405 H376 0.930 . S
C405 C400 1.261 . S
C405 C404 1.312 . S
C406 O378 1.214 . S
C406 O386 1.234 . S
C407 H379 0.929 . S
C407 C410 1.391 . S
C407 C412 1.391 . S
C408 H380 0.929 . S
C408 C409 1.390 . S
C408 N411 1.391 . S
C409 H381 0.930 . S
C409 C408 1.390 . S
C409 C410 1.392 . S
C410 H382 0.929 . S
C410 C407 1.391 . S
C410 C409 1.392 . S
N411 Co355 2.257 . S
N411 C408 1.391 . S
N411 C412 1.388 . S
C412 H383 0.930 . S
C412 C407 1.391 . S
C412 N411 1.388 . S
Co413 O415 2.143 . S
Co413 O421 2.074 . S
Co413 O424 2.093 . S
Co413 O437 2.097 . S
Co413 N454 2.151 . S
Co413 N462 2.214 . S
Co414 O415 2.160 . S
Co414 O420 2.058 . S
Co414 O430 2.057 . S
Co414 O445 2.037 . S
Co414 N449 2.145 . S
Co414 N470 2.257 . S
O415 Co413 2.143 . S
O415 Co414 2.160 . S
C416 O417 1.278 . S
C416 O424 1.224 . S
O417 C416 1.278 . S
C418 O419 1.245 . S
C418 O430 1.232 . S
O419 C418 1.245 . S
O420 Co414 2.058 . S
O420 C446 1.269 . S
O421 Co413 2.074 . S
O421 C446 1.257 . S
H422 C447 0.930 . S
H423 C453 0.930 . S
O424 Co413 2.093 . S
O424 C416 1.224 . S
H425 C457 0.929 . S
H426 C459 0.930 . S
H427 C460 0.930 . S
H428 C458 0.929 . S
H429 C461 0.928 . S
O430 Co414 2.057 . S
O430 C418 1.232 . S
H431 C450 0.929 . S
H432 C451 0.929 . S
H433 C463 0.931 . S
H434 C455 0.929 . S
H435 C464 0.930 . S
H436 C456 0.931 . S
O437 Co413 2.097 . S
O437 C465 1.214 . S
H438 C466 0.929 . S
H439 C467 0.929 . S
H440 C468 0.930 . S
H441 C469 0.929 . S
H442 C471 0.930 . S
H443 C448 0.930 . S
H444 C452 0.930 . S
O445 Co414 2.037 . S
O445 C465 1.234 . S
C446 O420 1.269 . S
C446 O421 1.257 . S
C447 H422 0.930 . S
C447 C450 1.388 . S
C447 C452 1.418 . S
C448 H443 0.930 . S
C448 C451 1.404 . S
C448 C452 1.353 . S
N449 Co414 2.145 . S
N449 C450 1.397 . S
N449 C451 1.334 . S
C450 H431 0.929 . S
C450 C447 1.388 . S
C450 N449 1.397 . S
C451 H432 0.929 . S
C451 C448 1.404 . S
C451 N449 1.334 . S
C452 H444 0.930 . S
C452 C447 1.418 . S
C452 C448 1.353 . S
C453 H423 0.930 . S
C453 N454 1.330 . S
C453 C455 1.446 . S
N454 Co413 2.151 . S
N454 C453 1.330 . S
N454 C458 1.418 . S
C455 H434 0.929 . S
C455 C453 1.446 . S
C455 C456 1.332 . S
C456 H436 0.931 . S
C456 C455 1.332 . S
C456 C457 1.267 . S
C457 H425 0.929 . S
C457 C456 1.267 . S
C457 C458 1.251 . S
C458 H428 0.929 . S
C458 N454 1.418 . S
C458 C457 1.251 . S
C459 H426 0.930 . S
C459 C461 1.406 . S
C459 C464 1.261 . S
C460 H427 0.930 . S
C460 N462 1.325 . S
C460 C463 1.357 . S
C461 H429 0.928 . S
C461 C459 1.406 . S
C461 N462 1.261 . S
N462 Co413 2.214 . S
N462 C460 1.325 . S
N462 C461 1.261 . S
C463 H433 0.931 . S
C463 C460 1.357 . S
C463 C464 1.312 . S
C464 H435 0.930 . S
C464 C459 1.261 . S
C464 C463 1.312 . S
C465 O437 1.214 . S
C465 O445 1.234 . S
C466 H438 0.929 . S
C466 C469 1.391 . S
C466 C471 1.391 . S
C467 H439 0.929 . S
C467 C468 1.390 . S
C467 N470 1.391 . S
C468 H440 0.930 . S
C468 C467 1.390 . S
C468 C469 1.392 . S
C469 H441 0.929 . S
C469 C466 1.391 . S
C469 C468 1.392 . S
N470 Co414 2.257 . S
N470 C467 1.391 . S
N470 C471 1.388 . S
C471 H442 0.930 . S
C471 C466 1.391 . S
C471 N470 1.388 . S
Co472 O474 2.143 . S
Co472 O480 2.074 . S
Co472 O483 2.093 . S
Co472 O496 2.097 . S
Co472 N513 2.151 . S
Co472 N521 2.214 . S
Co473 O474 2.160 . S
Co473 O479 2.058 . S
Co473 O489 2.057 . S
Co473 O504 2.037 . S
Co473 N508 2.145 . S
Co473 N529 2.257 . S
O474 Co472 2.143 . S
O474 Co473 2.160 . S
C475 O476 1.278 . S
C475 O483 1.224 . S
O476 C475 1.278 . S
C477 O478 1.245 . S
C477 O489 1.232 . S
O478 C477 1.245 . S
O479 Co473 2.058 . S
O479 C505 1.269 . S
O480 Co472 2.074 . S
O480 C505 1.257 . S
H481 C506 0.930 . S
H482 C512 0.930 . S
O483 Co472 2.093 . S
O483 C475 1.224 . S
H484 C516 0.929 . S
H485 C518 0.930 . S
H486 C519 0.930 . S
H487 C517 0.929 . S
H488 C520 0.928 . S
O489 Co473 2.057 . S
O489 C477 1.232 . S
H490 C509 0.929 . S
H491 C510 0.929 . S
H492 C522 0.931 . S
H493 C514 0.929 . S
H494 C523 0.930 . S
H495 C515 0.931 . S
O496 Co472 2.097 . S
O496 C524 1.214 . S
H497 C525 0.929 . S
H498 C526 0.929 . S
H499 C527 0.930 . S
H500 C528 0.929 . S
H501 C530 0.930 . S
H502 C507 0.930 . S
H503 C511 0.930 . S
O504 Co473 2.037 . S
O504 C524 1.234 . S
C505 O479 1.269 . S
C505 O480 1.257 . S
C506 H481 0.930 . S
C506 C509 1.388 . S
C506 C511 1.418 . S
C507 H502 0.930 . S
C507 C510 1.404 . S
C507 C511 1.353 . S
N508 Co473 2.145 . S
N508 C509 1.397 . S
N508 C510 1.334 . S
C509 H490 0.929 . S
C509 C506 1.388 . S
C509 N508 1.397 . S
C510 H491 0.929 . S
C510 C507 1.404 . S
C510 N508 1.334 . S
C511 H503 0.930 . S
C511 C506 1.418 . S
C511 C507 1.353 . S
C512 H482 0.930 . S
C512 N513 1.330 . S
C512 C514 1.446 . S
N513 Co472 2.151 . S
N513 C512 1.330 . S
N513 C517 1.418 . S
C514 H493 0.929 . S
C514 C512 1.446 . S
C514 C515 1.332 . S
C515 H495 0.931 . S
C515 C514 1.332 . S
C515 C516 1.267 . S
C516 H484 0.929 . S
C516 C515 1.267 . S
C516 C517 1.251 . S
C517 H487 0.929 . S
C517 N513 1.418 . S
C517 C516 1.251 . S
C518 H485 0.930 . S
C518 C520 1.406 . S
C518 C523 1.261 . S
C519 H486 0.930 . S
C519 N521 1.325 . S
C519 C522 1.357 . S
C520 H488 0.928 . S
C520 C518 1.406 . S
C520 N521 1.261 . S
N521 Co472 2.214 . S
N521 C519 1.325 . S
N521 C520 1.261 . S
C522 H492 0.931 . S
C522 C519 1.357 . S
C522 C523 1.312 . S
C523 H494 0.930 . S
C523 C518 1.261 . S
C523 C522 1.312 . S
C524 O496 1.214 . S
C524 O504 1.234 . S
C525 H497 0.929 . S
C525 C528 1.391 . S
C525 C530 1.391 . S
C526 H498 0.929 . S
C526 C527 1.390 . S
C526 N529 1.391 . S
C527 H499 0.930 . S
C527 C526 1.390 . S
C527 C528 1.392 . S
C528 H500 0.929 . S
C528 C525 1.391 . S
C528 C527 1.392 . S
N529 Co473 2.257 . S
N529 C526 1.391 . S
N529 C530 1.388 . S
C530 H501 0.930 . S
C530 C525 1.391 . S
C530 N529 1.388 . S
Co531 O533 2.143 . S
Co531 O539 2.074 . S
Co531 O542 2.093 . S
Co531 O555 2.097 . S
Co531 N572 2.151 . S
Co531 N580 2.214 . S
Co532 O533 2.160 . S
Co532 O538 2.058 . S
Co532 O548 2.057 . S
Co532 O563 2.037 . S
Co532 N567 2.145 . S
Co532 N588 2.257 . S
O533 Co531 2.143 . S
O533 Co532 2.160 . S
C534 O535 1.278 . S
C534 O542 1.224 . S
O535 C534 1.278 . S
C536 O537 1.245 . S
C536 O548 1.232 . S
O537 C536 1.245 . S
O538 Co532 2.058 . S
O538 C564 1.269 . S
O539 Co531 2.074 . S
O539 C564 1.257 . S
H540 C565 0.930 . S
H541 C571 0.930 . S
O542 Co531 2.093 . S
O542 C534 1.224 . S
H543 C575 0.929 . S
H544 C577 0.930 . S
H545 C578 0.930 . S
H546 C576 0.929 . S
H547 C579 0.928 . S
O548 Co532 2.057 . S
O548 C536 1.232 . S
H549 C568 0.929 . S
H550 C569 0.929 . S
H551 C581 0.931 . S
H552 C573 0.929 . S
H553 C582 0.930 . S
H554 C574 0.931 . S
O555 Co531 2.097 . S
O555 C583 1.214 . S
H556 C584 0.929 . S
H557 C585 0.929 . S
H558 C586 0.930 . S
H559 C587 0.929 . S
H560 C589 0.930 . S
H561 C566 0.930 . S
H562 C570 0.930 . S
O563 Co532 2.037 . S
O563 C583 1.234 . S
C564 O538 1.269 . S
C564 O539 1.257 . S
C565 H540 0.930 . S
C565 C568 1.388 . S
C565 C570 1.418 . S
C566 H561 0.930 . S
C566 C569 1.404 . S
C566 C570 1.353 . S
N567 Co532 2.145 . S
N567 C568 1.397 . S
N567 C569 1.334 . S
C568 H549 0.929 . S
C568 C565 1.388 . S
C568 N567 1.397 . S
C569 H550 0.929 . S
C569 C566 1.404 . S
C569 N567 1.334 . S
C570 H562 0.930 . S
C570 C565 1.418 . S
C570 C566 1.353 . S
C571 H541 0.930 . S
C571 N572 1.330 . S
C571 C573 1.446 . S
N572 Co531 2.151 . S
N572 C571 1.330 . S
N572 C576 1.418 . S
C573 H552 0.929 . S
C573 C571 1.446 . S
C573 C574 1.332 . S
C574 H554 0.931 . S
C574 C573 1.332 . S
C574 C575 1.267 . S
C575 H543 0.929 . S
C575 C574 1.267 . S
C575 C576 1.251 . S
C576 H546 0.929 . S
C576 N572 1.418 . S
C576 C575 1.251 . S
C577 H544 0.930 . S
C577 C579 1.406 . S
C577 C582 1.261 . S
C578 H545 0.930 . S
C578 N580 1.325 . S
C578 C581 1.357 . S
C579 H547 0.928 . S
C579 C577 1.406 . S
C579 N580 1.261 . S
N580 Co531 2.214 . S
N580 C578 1.325 . S
N580 C579 1.261 . S
C581 H551 0.931 . S
C581 C578 1.357 . S
C581 C582 1.312 . S
C582 H553 0.930 . S
C582 C577 1.261 . S
C582 C581 1.312 . S
C583 O555 1.214 . S
C583 O563 1.234 . S
C584 H556 0.929 . S
C584 C587 1.391 . S
C584 C589 1.391 . S
C585 H557 0.929 . S
C585 C586 1.390 . S
C585 N588 1.391 . S
C586 H558 0.930 . S
C586 C585 1.390 . S
C586 C587 1.392 . S
C587 H559 0.929 . S
C587 C584 1.391 . S
C587 C586 1.392 . S
N588 Co532 2.257 . S
N588 C585 1.391 . S
N588 C589 1.388 . S
C589 H560 0.930 . S
C589 C584 1.391 . S
C589 N588 1.388 . S
Co590 O592 2.143 . S
Co590 O598 2.074 . S
Co590 O601 2.093 . S
Co590 O614 2.097 . S
Co590 N631 2.151 . S
Co590 N639 2.214 . S
Co591 O592 2.160 . S
Co591 O597 2.058 . S
Co591 O607 2.057 . S
Co591 O622 2.037 . S
Co591 N626 2.145 . S
Co591 N647 2.257 . S
O592 Co590 2.143 . S
O592 Co591 2.160 . S
C593 O594 1.278 . S
C593 O601 1.224 . S
O594 C593 1.278 . S
C595 O596 1.245 . S
C595 O607 1.232 . S
O596 C595 1.245 . S
O597 Co591 2.058 . S
O597 C623 1.269 . S
O598 Co590 2.074 . S
O598 C623 1.257 . S
H599 C624 0.930 . S
H600 C630 0.930 . S
O601 Co590 2.093 . S
O601 C593 1.224 . S
H602 C634 0.929 . S
H603 C636 0.930 . S
H604 C637 0.930 . S
H605 C635 0.929 . S
H606 C638 0.928 . S
O607 Co591 2.057 . S
O607 C595 1.232 . S
H608 C627 0.929 . S
H609 C628 0.929 . S
H610 C640 0.931 . S
H611 C632 0.929 . S
H612 C641 0.930 . S
H613 C633 0.931 . S
O614 Co590 2.097 . S
O614 C642 1.214 . S
H615 C643 0.929 . S
H616 C644 0.929 . S
H617 C645 0.930 . S
H618 C646 0.929 . S
H619 C648 0.930 . S
H620 C625 0.930 . S
H621 C629 0.930 . S
O622 Co591 2.037 . S
O622 C642 1.234 . S
C623 O597 1.269 . S
C623 O598 1.257 . S
C624 H599 0.930 . S
C624 C627 1.388 . S
C624 C629 1.418 . S
C625 H620 0.930 . S
C625 C628 1.404 . S
C625 C629 1.353 . S
N626 Co591 2.145 . S
N626 C627 1.397 . S
N626 C628 1.334 . S
C627 H608 0.929 . S
C627 C624 1.388 . S
C627 N626 1.397 . S
C628 H609 0.929 . S
C628 C625 1.404 . S
C628 N626 1.334 . S
C629 H621 0.930 . S
C629 C624 1.418 . S
C629 C625 1.353 . S
C630 H600 0.930 . S
C630 N631 1.330 . S
C630 C632 1.446 . S
N631 Co590 2.151 . S
N631 C630 1.330 . S
N631 C635 1.418 . S
C632 H611 0.929 . S
C632 C630 1.446 . S
C632 C633 1.332 . S
C633 H613 0.931 . S
C633 C632 1.332 . S
C633 C634 1.267 . S
C634 H602 0.929 . S
C634 C633 1.267 . S
C634 C635 1.251 . S
C635 H605 0.929 . S
C635 N631 1.418 . S
C635 C634 1.251 . S
C636 H603 0.930 . S
C636 C638 1.406 . S
C636 C641 1.261 . S
C637 H604 0.930 . S
C637 N639 1.325 . S
C637 C640 1.357 . S
C638 H606 0.928 . S
C638 C636 1.406 . S
C638 N639 1.261 . S
N639 Co590 2.214 . S
N639 C637 1.325 . S
N639 C638 1.261 . S
C640 H610 0.931 . S
C640 C637 1.357 . S
C640 C641 1.312 . S
C641 H612 0.930 . S
C641 C636 1.261 . S
C641 C640 1.312 . S
C642 O614 1.214 . S
C642 O622 1.234 . S
C643 H615 0.929 . S
C643 C646 1.391 . S
C643 C648 1.391 . S
C644 H616 0.929 . S
C644 C645 1.390 . S
C644 N647 1.391 . S
C645 H617 0.930 . S
C645 C644 1.390 . S
C645 C646 1.392 . S
C646 H618 0.929 . S
C646 C643 1.391 . S
C646 C645 1.392 . S
N647 Co591 2.257 . S
N647 C644 1.391 . S
N647 C648 1.388 . S
C648 H619 0.930 . S
C648 C643 1.391 . S
C648 N647 1.388 . S
Co649 O651 2.143 . S
Co649 O657 2.074 . S
Co649 O660 2.093 . S
Co649 O673 2.097 . S
Co649 N690 2.151 . S
Co649 N698 2.214 . S
Co650 O651 2.160 . S
Co650 O656 2.058 . S
Co650 O666 2.057 . S
Co650 O681 2.037 . S
Co650 N685 2.145 . S
Co650 N706 2.257 . S
O651 Co649 2.143 . S
O651 Co650 2.160 . S
C652 O653 1.278 . S
C652 O660 1.224 . S
O653 C652 1.278 . S
C654 O655 1.245 . S
C654 O666 1.232 . S
O655 C654 1.245 . S
O656 Co650 2.058 . S
O656 C682 1.269 . S
O657 Co649 2.074 . S
O657 C682 1.257 . S
H658 C683 0.930 . S
H659 C689 0.930 . S
O660 Co649 2.093 . S
O660 C652 1.224 . S
H661 C693 0.929 . S
H662 C695 0.930 . S
H663 C696 0.930 . S
H664 C694 0.929 . S
H665 C697 0.928 . S
O666 Co650 2.057 . S
O666 C654 1.232 . S
H667 C686 0.929 . S
H668 C687 0.929 . S
H669 C699 0.931 . S
H670 C691 0.929 . S
H671 C700 0.930 . S
H672 C692 0.931 . S
O673 Co649 2.097 . S
O673 C701 1.214 . S
H674 C702 0.929 . S
H675 C703 0.929 . S
H676 C704 0.930 . S
H677 C705 0.929 . S
H678 C707 0.930 . S
H679 C684 0.930 . S
H680 C688 0.930 . S
O681 Co650 2.037 . S
O681 C701 1.234 . S
C682 O656 1.269 . S
C682 O657 1.257 . S
C683 H658 0.930 . S
C683 C686 1.388 . S
C683 C688 1.418 . S
C684 H679 0.930 . S
C684 C687 1.404 . S
C684 C688 1.353 . S
N685 Co650 2.145 . S
N685 C686 1.397 . S
N685 C687 1.334 . S
C686 H667 0.929 . S
C686 C683 1.388 . S
C686 N685 1.397 . S
C687 H668 0.929 . S
C687 C684 1.404 . S
C687 N685 1.334 . S
C688 H680 0.930 . S
C688 C683 1.418 . S
C688 C684 1.353 . S
C689 H659 0.930 . S
C689 N690 1.330 . S
C689 C691 1.446 . S
N690 Co649 2.151 . S
N690 C689 1.330 . S
N690 C694 1.418 . S
C691 H670 0.929 . S
C691 C689 1.446 . S
C691 C692 1.332 . S
C692 H672 0.931 . S
C692 C691 1.332 . S
C692 C693 1.267 . S
C693 H661 0.929 . S
C693 C692 1.267 . S
C693 C694 1.251 . S
C694 H664 0.929 . S
C694 N690 1.418 . S
C694 C693 1.251 . S
C695 H662 0.930 . S
C695 C697 1.406 . S
C695 C700 1.261 . S
C696 H663 0.930 . S
C696 N698 1.325 . S
C696 C699 1.357 . S
C697 H665 0.928 . S
C697 C695 1.406 . S
C697 N698 1.261 . S
N698 Co649 2.214 . S
N698 C696 1.325 . S
N698 C697 1.261 . S
C699 H669 0.931 . S
C699 C696 1.357 . S
C699 C700 1.312 . S
C700 H671 0.930 . S
C700 C695 1.261 . S
C700 C699 1.312 . S
C701 O673 1.214 . S
C701 O681 1.234 . S
C702 H674 0.929 . S
C702 C705 1.391 . S
C702 C707 1.391 . S
C703 H675 0.929 . S
C703 C704 1.390 . S
C703 N706 1.391 . S
C704 H676 0.930 . S
C704 C703 1.390 . S
C704 C705 1.392 . S
C705 H677 0.929 . S
C705 C702 1.391 . S
C705 C704 1.392 . S
N706 Co650 2.257 . S
N706 C703 1.391 . S
N706 C707 1.388 . S
C707 H678 0.930 . S
C707 C702 1.391 . S
C707 N706 1.388 . S
Co708 O710 2.143 . S
Co708 O716 2.074 . S
Co708 O719 2.093 . S
Co708 O732 2.097 . S
Co708 N749 2.151 . S
Co708 N757 2.214 . S
Co709 O710 2.160 . S
Co709 O715 2.058 . S
Co709 O725 2.057 . S
Co709 O740 2.037 . S
Co709 N744 2.145 . S
Co709 N765 2.257 . S
O710 Co708 2.143 . S
O710 Co709 2.160 . S
C711 O712 1.278 . S
C711 O719 1.224 . S
O712 C711 1.278 . S
C713 O714 1.245 . S
C713 O725 1.232 . S
O714 C713 1.245 . S
O715 Co709 2.058 . S
O715 C741 1.269 . S
O716 Co708 2.074 . S
O716 C741 1.257 . S
H717 C742 0.930 . S
H718 C748 0.930 . S
O719 Co708 2.093 . S
O719 C711 1.224 . S
H720 C752 0.929 . S
H721 C754 0.930 . S
H722 C755 0.930 . S
H723 C753 0.929 . S
H724 C756 0.928 . S
O725 Co709 2.057 . S
O725 C713 1.232 . S
H726 C745 0.929 . S
H727 C746 0.929 . S
H728 C758 0.931 . S
H729 C750 0.929 . S
H730 C759 0.930 . S
H731 C751 0.931 . S
O732 Co708 2.097 . S
O732 C760 1.214 . S
H733 C761 0.929 . S
H734 C762 0.929 . S
H735 C763 0.930 . S
H736 C764 0.929 . S
H737 C766 0.930 . S
H738 C743 0.930 . S
H739 C747 0.930 . S
O740 Co709 2.037 . S
O740 C760 1.234 . S
C741 O715 1.269 . S
C741 O716 1.257 . S
C742 H717 0.930 . S
C742 C745 1.388 . S
C742 C747 1.418 . S
C743 H738 0.930 . S
C743 C746 1.404 . S
C743 C747 1.353 . S
N744 Co709 2.145 . S
N744 C745 1.397 . S
N744 C746 1.334 . S
C745 H726 0.929 . S
C745 C742 1.388 . S
C745 N744 1.397 . S
C746 H727 0.929 . S
C746 C743 1.404 . S
C746 N744 1.334 . S
C747 H739 0.930 . S
C747 C742 1.418 . S
C747 C743 1.353 . S
C748 H718 0.930 . S
C748 N749 1.330 . S
C748 C750 1.446 . S
N749 Co708 2.151 . S
N749 C748 1.330 . S
N749 C753 1.418 . S
C750 H729 0.929 . S
C750 C748 1.446 . S
C750 C751 1.332 . S
C751 H731 0.931 . S
C751 C750 1.332 . S
C751 C752 1.267 . S
C752 H720 0.929 . S
C752 C751 1.267 . S
C752 C753 1.251 . S
C753 H723 0.929 . S
C753 N749 1.418 . S
C753 C752 1.251 . S
C754 H721 0.930 . S
C754 C756 1.406 . S
C754 C759 1.261 . S
C755 H722 0.930 . S
C755 N757 1.325 . S
C755 C758 1.357 . S
C756 H724 0.928 . S
C756 C754 1.406 . S
C756 N757 1.261 . S
N757 Co708 2.214 . S
N757 C755 1.325 . S
N757 C756 1.261 . S
C758 H728 0.931 . S
C758 C755 1.357 . S
C758 C759 1.312 . S
C759 H730 0.930 . S
C759 C754 1.261 . S
C759 C758 1.312 . S
C760 O732 1.214 . S
C760 O740 1.234 . S
C761 H733 0.929 . S
C761 C764 1.391 . S
C761 C766 1.391 . S
C762 H734 0.929 . S
C762 C763 1.390 . S
C762 N765 1.391 . S
C763 H735 0.930 . S
C763 C762 1.390 . S
C763 C764 1.392 . S
C764 H736 0.929 . S
C764 C761 1.391 . S
C764 C763 1.392 . S
N765 Co709 2.257 . S
N765 C762 1.391 . S
N765 C766 1.388 . S
C766 H737 0.930 . S
C766 C761 1.391 . S
C766 N765 1.388 . S
Co767 O769 2.143 . S
Co767 O775 2.074 . S
Co767 O778 2.093 . S
Co767 O791 2.097 . S
Co767 N808 2.151 . S
Co767 N816 2.214 . S
Co768 O769 2.160 . S
Co768 O774 2.058 . S
Co768 O784 2.057 . S
Co768 O799 2.037 . S
Co768 N803 2.145 . S
Co768 N824 2.257 . S
O769 Co767 2.143 . S
O769 Co768 2.160 . S
C770 O771 1.278 . S
C770 O778 1.224 . S
O771 C770 1.278 . S
C772 O773 1.245 . S
C772 O784 1.232 . S
O773 C772 1.245 . S
O774 Co768 2.058 . S
O774 C800 1.269 . S
O775 Co767 2.074 . S
O775 C800 1.257 . S
H776 C801 0.930 . S
H777 C807 0.930 . S
O778 Co767 2.093 . S
O778 C770 1.224 . S
H779 C811 0.929 . S
H780 C813 0.930 . S
H781 C814 0.930 . S
H782 C812 0.929 . S
H783 C815 0.928 . S
O784 Co768 2.057 . S
O784 C772 1.232 . S
H785 C804 0.929 . S
H786 C805 0.929 . S
H787 C817 0.931 . S
H788 C809 0.929 . S
H789 C818 0.930 . S
H790 C810 0.931 . S
O791 Co767 2.097 . S
O791 C819 1.214 . S
H792 C820 0.929 . S
H793 C821 0.929 . S
H794 C822 0.930 . S
H795 C823 0.929 . S
H796 C825 0.930 . S
H797 C802 0.930 . S
H798 C806 0.930 . S
O799 Co768 2.037 . S
O799 C819 1.234 . S
C800 O774 1.269 . S
C800 O775 1.257 . S
C801 H776 0.930 . S
C801 C804 1.388 . S
C801 C806 1.418 . S
C802 H797 0.930 . S
C802 C805 1.404 . S
C802 C806 1.353 . S
N803 Co768 2.145 . S
N803 C804 1.397 . S
N803 C805 1.334 . S
C804 H785 0.929 . S
C804 C801 1.388 . S
C804 N803 1.397 . S
C805 H786 0.929 . S
C805 C802 1.404 . S
C805 N803 1.334 . S
C806 H798 0.930 . S
C806 C801 1.418 . S
C806 C802 1.353 . S
C807 H777 0.930 . S
C807 N808 1.330 . S
C807 C809 1.446 . S
N808 Co767 2.151 . S
N808 C807 1.330 . S
N808 C812 1.418 . S
C809 H788 0.929 . S
C809 C807 1.446 . S
C809 C810 1.332 . S
C810 H790 0.931 . S
C810 C809 1.332 . S
C810 C811 1.267 . S
C811 H779 0.929 . S
C811 C810 1.267 . S
C811 C812 1.251 . S
C812 H782 0.929 . S
C812 N808 1.418 . S
C812 C811 1.251 . S
C813 H780 0.930 . S
C813 C815 1.406 . S
C813 C818 1.261 . S
C814 H781 0.930 . S
C814 N816 1.325 . S
C814 C817 1.357 . S
C815 H783 0.928 . S
C815 C813 1.406 . S
C815 N816 1.261 . S
N816 Co767 2.214 . S
N816 C814 1.325 . S
N816 C815 1.261 . S
C817 H787 0.931 . S
C817 C814 1.357 . S
C817 C818 1.312 . S
C818 H789 0.930 . S
C818 C813 1.261 . S
C818 C817 1.312 . S
C819 O791 1.214 . S
C819 O799 1.234 . S
C820 H792 0.929 . S
C820 C823 1.391 . S
C820 C825 1.391 . S
C821 H793 0.929 . S
C821 C822 1.390 . S
C821 N824 1.391 . S
C822 H794 0.930 . S
C822 C821 1.390 . S
C822 C823 1.392 . S
C823 H795 0.929 . S
C823 C820 1.391 . S
C823 C822 1.392 . S
N824 Co768 2.257 . S
N824 C821 1.391 . S
N824 C825 1.388 . S
C825 H796 0.930 . S
C825 C820 1.391 . S
C825 N824 1.388 . S
Co826 O828 2.143 . S
Co826 O834 2.074 . S
Co826 O837 2.093 . S
Co826 O850 2.097 . S
Co826 N867 2.151 . S
Co826 N875 2.214 . S
Co827 O828 2.160 . S
Co827 O833 2.058 . S
Co827 O843 2.057 . S
Co827 O858 2.037 . S
Co827 N862 2.145 . S
Co827 N883 2.257 . S
O828 Co826 2.143 . S
O828 Co827 2.160 . S
C829 O830 1.278 . S
C829 O837 1.224 . S
O830 C829 1.278 . S
C831 O832 1.245 . S
C831 O843 1.232 . S
O832 C831 1.245 . S
O833 Co827 2.058 . S
O833 C859 1.269 . S
O834 Co826 2.074 . S
O834 C859 1.257 . S
H835 C860 0.930 . S
H836 C866 0.930 . S
O837 Co826 2.093 . S
O837 C829 1.224 . S
H838 C870 0.929 . S
H839 C872 0.930 . S
H840 C873 0.930 . S
H841 C871 0.929 . S
H842 C874 0.928 . S
O843 Co827 2.057 . S
O843 C831 1.232 . S
H844 C863 0.929 . S
H845 C864 0.929 . S
H846 C876 0.931 . S
H847 C868 0.929 . S
H848 C877 0.930 . S
H849 C869 0.931 . S
O850 Co826 2.097 . S
O850 C878 1.214 . S
H851 C879 0.929 . S
H852 C880 0.929 . S
H853 C881 0.930 . S
H854 C882 0.929 . S
H855 C884 0.930 . S
H856 C861 0.930 . S
H857 C865 0.930 . S
O858 Co827 2.037 . S
O858 C878 1.234 . S
C859 O833 1.269 . S
C859 O834 1.257 . S
C860 H835 0.930 . S
C860 C863 1.388 . S
C860 C865 1.418 . S
C861 H856 0.930 . S
C861 C864 1.404 . S
C861 C865 1.353 . S
N862 Co827 2.145 . S
N862 C863 1.397 . S
N862 C864 1.334 . S
C863 H844 0.929 . S
C863 C860 1.388 . S
C863 N862 1.397 . S
C864 H845 0.929 . S
C864 C861 1.404 . S
C864 N862 1.334 . S
C865 H857 0.930 . S
C865 C860 1.418 . S
C865 C861 1.353 . S
C866 H836 0.930 . S
C866 N867 1.330 . S
C866 C868 1.446 . S
N867 Co826 2.151 . S
N867 C866 1.330 . S
N867 C871 1.418 . S
C868 H847 0.929 . S
C868 C866 1.446 . S
C868 C869 1.332 . S
C869 H849 0.931 . S
C869 C868 1.332 . S
C869 C870 1.267 . S
C870 H838 0.929 . S
C870 C869 1.267 . S
C870 C871 1.251 . S
C871 H841 0.929 . S
C871 N867 1.418 . S
C871 C870 1.251 . S
C872 H839 0.930 . S
C872 C874 1.406 . S
C872 C877 1.261 . S
C873 H840 0.930 . S
C873 N875 1.325 . S
C873 C876 1.357 . S
C874 H842 0.928 . S
C874 C872 1.406 . S
C874 N875 1.261 . S
N875 Co826 2.214 . S
N875 C873 1.325 . S
N875 C874 1.261 . S
C876 H846 0.931 . S
C876 C873 1.357 . S
C876 C877 1.312 . S
C877 H848 0.930 . S
C877 C872 1.261 . S
C877 C876 1.312 . S
C878 O850 1.214 . S
C878 O858 1.234 . S
C879 H851 0.929 . S
C879 C882 1.391 . S
C879 C884 1.391 . S
C880 H852 0.929 . S
C880 C881 1.390 . S
C880 N883 1.391 . S
C881 H853 0.930 . S
C881 C880 1.390 . S
C881 C882 1.392 . S
C882 H854 0.929 . S
C882 C879 1.391 . S
C882 C881 1.392 . S
N883 Co827 2.257 . S
N883 C880 1.391 . S
N883 C884 1.388 . S
C884 H855 0.930 . S
C884 C879 1.391 . S
C884 N883 1.388 . S
Co885 O887 2.143 . S
Co885 O893 2.074 . S
Co885 O896 2.093 . S
Co885 O909 2.097 . S
Co885 N926 2.151 . S
Co885 N934 2.214 . S
Co886 O887 2.160 . S
Co886 O892 2.058 . S
Co886 O902 2.057 . S
Co886 O917 2.037 . S
Co886 N921 2.145 . S
Co886 N942 2.257 . S
O887 Co885 2.143 . S
O887 Co886 2.160 . S
C888 O889 1.278 . S
C888 O896 1.224 . S
O889 C888 1.278 . S
C890 O891 1.245 . S
C890 O902 1.232 . S
O891 C890 1.245 . S
O892 Co886 2.058 . S
O892 C918 1.269 . S
O893 Co885 2.074 . S
O893 C918 1.257 . S
H894 C919 0.930 . S
H895 C925 0.930 . S
O896 Co885 2.093 . S
O896 C888 1.224 . S
H897 C929 0.929 . S
H898 C931 0.930 . S
H899 C932 0.930 . S
H900 C930 0.929 . S
H901 C933 0.928 . S
O902 Co886 2.057 . S
O902 C890 1.232 . S
H903 C922 0.929 . S
H904 C923 0.929 . S
H905 C935 0.931 . S
H906 C927 0.929 . S
H907 C936 0.930 . S
H908 C928 0.931 . S
O909 Co885 2.097 . S
O909 C937 1.214 . S
H910 C938 0.929 . S
H911 C939 0.929 . S
H912 C940 0.930 . S
H913 C941 0.929 . S
H914 C943 0.930 . S
H915 C920 0.930 . S
H916 C924 0.930 . S
O917 Co886 2.037 . S
O917 C937 1.234 . S
C918 O892 1.269 . S
C918 O893 1.257 . S
C919 H894 0.930 . S
C919 C922 1.388 . S
C919 C924 1.418 . S
C920 H915 0.930 . S
C920 C923 1.404 . S
C920 C924 1.353 . S
N921 Co886 2.145 . S
N921 C922 1.397 . S
N921 C923 1.334 . S
C922 H903 0.929 . S
C922 C919 1.388 . S
C922 N921 1.397 . S
C923 H904 0.929 . S
C923 C920 1.404 . S
C923 N921 1.334 . S
C924 H916 0.930 . S
C924 C919 1.418 . S
C924 C920 1.353 . S
C925 H895 0.930 . S
C925 N926 1.330 . S
C925 C927 1.446 . S
N926 Co885 2.151 . S
N926 C925 1.330 . S
N926 C930 1.418 . S
C927 H906 0.929 . S
C927 C925 1.446 . S
C927 C928 1.332 . S
C928 H908 0.931 . S
C928 C927 1.332 . S
C928 C929 1.267 . S
C929 H897 0.929 . S
C929 C928 1.267 . S
C929 C930 1.251 . S
C930 H900 0.929 . S
C930 N926 1.418 . S
C930 C929 1.251 . S
C931 H898 0.930 . S
C931 C933 1.406 . S
C931 C936 1.261 . S
C932 H899 0.930 . S
C932 N934 1.325 . S
C932 C935 1.357 . S
C933 H901 0.928 . S
C933 C931 1.406 . S
C933 N934 1.261 . S
N934 Co885 2.214 . S
N934 C932 1.325 . S
N934 C933 1.261 . S
C935 H905 0.931 . S
C935 C932 1.357 . S
C935 C936 1.312 . S
C936 H907 0.930 . S
C936 C931 1.261 . S
C936 C935 1.312 . S
C937 O909 1.214 . S
C937 O917 1.234 . S
C938 H910 0.929 . S
C938 C941 1.391 . S
C938 C943 1.391 . S
C939 H911 0.929 . S
C939 C940 1.390 . S
C939 N942 1.391 . S
C940 H912 0.930 . S
C940 C939 1.390 . S
C940 C941 1.392 . S
C941 H913 0.929 . S
C941 C938 1.391 . S
C941 C940 1.392 . S
N942 Co886 2.257 . S
N942 C939 1.391 . S
N942 C943 1.388 . S
C943 H914 0.930 . S
C943 C938 1.391 . S
C943 N942 1.388 . S
Co944 O946 2.143 . S
Co944 O952 2.074 . S
Co944 O955 2.093 . S
Co944 O968 2.097 . S
Co944 N985 2.151 . S
Co944 N993 2.214 . S
Co945 O946 2.160 . S
Co945 O951 2.058 . S
Co945 O961 2.057 . S
Co945 O976 2.037 . S
Co945 N980 2.145 . S
Co945 N1001 2.257 . S
O946 Co944 2.143 . S
O946 Co945 2.160 . S
C947 O948 1.278 . S
C947 O955 1.224 . S
O948 C947 1.278 . S
C949 O950 1.245 . S
C949 O961 1.232 . S
O950 C949 1.245 . S
O951 Co945 2.058 . S
O951 C977 1.269 . S
O952 Co944 2.074 . S
O952 C977 1.257 . S
H953 C978 0.930 . S
H954 C984 0.930 . S
O955 Co944 2.093 . S
O955 C947 1.224 . S
H956 C988 0.929 . S
H957 C990 0.930 . S
H958 C991 0.930 . S
H959 C989 0.929 . S
H960 C992 0.928 . S
O961 Co945 2.057 . S
O961 C949 1.232 . S
H962 C981 0.929 . S
H963 C982 0.929 . S
H964 C994 0.931 . S
H965 C986 0.929 . S
H966 C995 0.930 . S
H967 C987 0.931 . S
O968 Co944 2.097 . S
O968 C996 1.214 . S
H969 C997 0.929 . S
H970 C998 0.929 . S
H971 C999 0.930 . S
H972 C1000 0.929 . S
H973 C1002 0.930 . S
H974 C979 0.930 . S
H975 C983 0.930 . S
O976 Co945 2.037 . S
O976 C996 1.234 . S
C977 O951 1.269 . S
C977 O952 1.257 . S
C978 H953 0.930 . S
C978 C981 1.388 . S
C978 C983 1.418 . S
C979 H974 0.930 . S
C979 C982 1.404 . S
C979 C983 1.353 . S
N980 Co945 2.145 . S
N980 C981 1.397 . S
N980 C982 1.334 . S
C981 H962 0.929 . S
C981 C978 1.388 . S
C981 N980 1.397 . S
C982 H963 0.929 . S
C982 C979 1.404 . S
C982 N980 1.334 . S
C983 H975 0.930 . S
C983 C978 1.418 . S
C983 C979 1.353 . S
C984 H954 0.930 . S
C984 N985 1.330 . S
C984 C986 1.446 . S
N985 Co944 2.151 . S
N985 C984 1.330 . S
N985 C989 1.418 . S
C986 H965 0.929 . S
C986 C984 1.446 . S
C986 C987 1.332 . S
C987 H967 0.931 . S
C987 C986 1.332 . S
C987 C988 1.267 . S
C988 H956 0.929 . S
C988 C987 1.267 . S
C988 C989 1.251 . S
C989 H959 0.929 . S
C989 N985 1.418 . S
C989 C988 1.251 . S
C990 H957 0.930 . S
C990 C992 1.406 . S
C990 C995 1.261 . S
C991 H958 0.930 . S
C991 N993 1.325 . S
C991 C994 1.357 . S
C992 H960 0.928 . S
C992 C990 1.406 . S
C992 N993 1.261 . S
N993 Co944 2.214 . S
N993 C991 1.325 . S
N993 C992 1.261 . S
C994 H964 0.931 . S
C994 C991 1.357 . S
C994 C995 1.312 . S
C995 H966 0.930 . S
C995 C990 1.261 . S
C995 C994 1.312 . S
C996 O968 1.214 . S
C996 O976 1.234 . S
C997 H969 0.929 . S
C997 C1000 1.391 . S
C997 C1002 1.391 . S
C998 H970 0.929 . S
C998 C999 1.390 . S
C998 N1001 1.391 . S
C999 H971 0.930 . S
C999 C998 1.390 . S
C999 C1000 1.392 . S
C1000 H972 0.929 . S
C1000 C997 1.391 . S
C1000 C999 1.392 . S
N1001 Co945 2.257 . S
N1001 C998 1.391 . S
N1001 C1002 1.388 . S
C1002 H973 0.930 . S
C1002 C997 1.391 . S
C1002 N1001 1.388 . S
Co1003 O1005 2.143 . S
Co1003 O1011 2.074 . S
Co1003 O1014 2.093 . S
Co1003 O1027 2.097 . S
Co1003 N1044 2.151 . S
Co1003 N1052 2.214 . S
Co1004 O1005 2.160 . S
Co1004 O1010 2.058 . S
Co1004 O1020 2.057 . S
Co1004 O1035 2.037 . S
Co1004 N1039 2.145 . S
Co1004 N1060 2.257 . S
O1005 Co1003 2.143 . S
O1005 Co1004 2.160 . S
C1006 O1007 1.278 . S
C1006 O1014 1.224 . S
O1007 C1006 1.278 . S
C1008 O1009 1.245 . S
C1008 O1020 1.232 . S
O1009 C1008 1.245 . S
O1010 Co1004 2.058 . S
O1010 C1036 1.269 . S
O1011 Co1003 2.074 . S
O1011 C1036 1.257 . S
H1012 C1037 0.930 . S
H1013 C1043 0.930 . S
O1014 Co1003 2.093 . S
O1014 C1006 1.224 . S
H1015 C1047 0.929 . S
H1016 C1049 0.930 . S
H1017 C1050 0.930 . S
H1018 C1048 0.929 . S
H1019 C1051 0.928 . S
O1020 Co1004 2.057 . S
O1020 C1008 1.232 . S
H1021 C1040 0.929 . S
H1022 C1041 0.929 . S
H1023 C1053 0.931 . S
H1024 C1045 0.929 . S
H1025 C1054 0.930 . S
H1026 C1046 0.931 . S
O1027 Co1003 2.097 . S
O1027 C1055 1.214 . S
H1028 C1056 0.929 . S
H1029 C1057 0.929 . S
H1030 C1058 0.930 . S
H1031 C1059 0.929 . S
H1032 C1061 0.930 . S
H1033 C1038 0.930 . S
H1034 C1042 0.930 . S
O1035 Co1004 2.037 . S
O1035 C1055 1.234 . S
C1036 O1010 1.269 . S
C1036 O1011 1.257 . S
C1037 H1012 0.930 . S
C1037 C1040 1.388 . S
C1037 C1042 1.418 . S
C1038 H1033 0.930 . S
C1038 C1041 1.404 . S
C1038 C1042 1.353 . S
N1039 Co1004 2.145 . S
N1039 C1040 1.397 . S
N1039 C1041 1.334 . S
C1040 H1021 0.929 . S
C1040 C1037 1.388 . S
C1040 N1039 1.397 . S
C1041 H1022 0.929 . S
C1041 C1038 1.404 . S
C1041 N1039 1.334 . S
C1042 H1034 0.930 . S
C1042 C1037 1.418 . S
C1042 C1038 1.353 . S
C1043 H1013 0.930 . S
C1043 N1044 1.330 . S
C1043 C1045 1.446 . S
N1044 Co1003 2.151 . S
N1044 C1043 1.330 . S
N1044 C1048 1.418 . S
C1045 H1024 0.929 . S
C1045 C1043 1.446 . S
C1045 C1046 1.332 . S
C1046 H1026 0.931 . S
C1046 C1045 1.332 . S
C1046 C1047 1.267 . S
C1047 H1015 0.929 . S
C1047 C1046 1.267 . S
C1047 C1048 1.251 . S
C1048 H1018 0.929 . S
C1048 N1044 1.418 . S
C1048 C1047 1.251 . S
C1049 H1016 0.930 . S
C1049 C1051 1.406 . S
C1049 C1054 1.261 . S
C1050 H1017 0.930 . S
C1050 N1052 1.325 . S
C1050 C1053 1.357 . S
C1051 H1019 0.928 . S
C1051 C1049 1.406 . S
C1051 N1052 1.261 . S
N1052 Co1003 2.214 . S
N1052 C1050 1.325 . S
N1052 C1051 1.261 . S
C1053 H1023 0.931 . S
C1053 C1050 1.357 . S
C1053 C1054 1.312 . S
C1054 H1025 0.930 . S
C1054 C1049 1.261 . S
C1054 C1053 1.312 . S
C1055 O1027 1.214 . S
C1055 O1035 1.234 . S
C1056 H1028 0.929 . S
C1056 C1059 1.391 . S
C1056 C1061 1.391 . S
C1057 H1029 0.929 . S
C1057 C1058 1.390 . S
C1057 N1060 1.391 . S
C1058 H1030 0.930 . S
C1058 C1057 1.390 . S
C1058 C1059 1.392 . S
C1059 H1031 0.929 . S
C1059 C1056 1.391 . S
C1059 C1058 1.392 . S
N1060 Co1004 2.257 . S
N1060 C1057 1.391 . S
N1060 C1061 1.388 . S
C1061 H1032 0.930 . S
C1061 C1056 1.391 . S
C1061 N1060 1.388 . S
Co1062 O1064 2.143 . S
Co1062 O1070 2.074 . S
Co1062 O1073 2.093 . S
Co1062 O1086 2.097 . S
Co1062 N1103 2.151 . S
Co1062 N1111 2.214 . S
Co1063 O1064 2.160 . S
Co1063 O1069 2.058 . S
Co1063 O1079 2.057 . S
Co1063 O1094 2.037 . S
Co1063 N1098 2.145 . S
Co1063 N1119 2.257 . S
O1064 Co1062 2.143 . S
O1064 Co1063 2.160 . S
C1065 O1066 1.278 . S
C1065 O1073 1.224 . S
O1066 C1065 1.278 . S
C1067 O1068 1.245 . S
C1067 O1079 1.232 . S
O1068 C1067 1.245 . S
O1069 Co1063 2.058 . S
O1069 C1095 1.269 . S
O1070 Co1062 2.074 . S
O1070 C1095 1.257 . S
H1071 C1096 0.930 . S
H1072 C1102 0.930 . S
O1073 Co1062 2.093 . S
O1073 C1065 1.224 . S
H1074 C1106 0.929 . S
H1075 C1108 0.930 . S
H1076 C1109 0.930 . S
H1077 C1107 0.929 . S
H1078 C1110 0.928 . S
O1079 Co1063 2.057 . S
O1079 C1067 1.232 . S
H1080 C1099 0.929 . S
H1081 C1100 0.929 . S
H1082 C1112 0.931 . S
H1083 C1104 0.929 . S
H1084 C1113 0.930 . S
H1085 C1105 0.931 . S
O1086 Co1062 2.097 . S
O1086 C1114 1.214 . S
H1087 C1115 0.929 . S
H1088 C1116 0.929 . S
H1089 C1117 0.930 . S
H1090 C1118 0.929 . S
H1091 C1120 0.930 . S
H1092 C1097 0.930 . S
H1093 C1101 0.930 . S
O1094 Co1063 2.037 . S
O1094 C1114 1.234 . S
C1095 O1069 1.269 . S
C1095 O1070 1.257 . S
C1096 H1071 0.930 . S
C1096 C1099 1.388 . S
C1096 C1101 1.418 . S
C1097 H1092 0.930 . S
C1097 C1100 1.404 . S
C1097 C1101 1.353 . S
N1098 Co1063 2.145 . S
N1098 C1099 1.397 . S
N1098 C1100 1.334 . S
C1099 H1080 0.929 . S
C1099 C1096 1.388 . S
C1099 N1098 1.397 . S
C1100 H1081 0.929 . S
C1100 C1097 1.404 . S
C1100 N1098 1.334 . S
C1101 H1093 0.930 . S
C1101 C1096 1.418 . S
C1101 C1097 1.353 . S
C1102 H1072 0.930 . S
C1102 N1103 1.330 . S
C1102 C1104 1.446 . S
N1103 Co1062 2.151 . S
N1103 C1102 1.330 . S
N1103 C1107 1.418 . S
C1104 H1083 0.929 . S
C1104 C1102 1.446 . S
C1104 C1105 1.332 . S
C1105 H1085 0.931 . S
C1105 C1104 1.332 . S
C1105 C1106 1.267 . S
C1106 H1074 0.929 . S
C1106 C1105 1.267 . S
C1106 C1107 1.251 . S
C1107 H1077 0.929 . S
C1107 N1103 1.418 . S
C1107 C1106 1.251 . S
C1108 H1075 0.930 . S
C1108 C1110 1.406 . S
C1108 C1113 1.261 . S
C1109 H1076 0.930 . S
C1109 N1111 1.325 . S
C1109 C1112 1.357 . S
C1110 H1078 0.928 . S
C1110 C1108 1.406 . S
C1110 N1111 1.261 . S
N1111 Co1062 2.214 . S
N1111 C1109 1.325 . S
N1111 C1110 1.261 . S
C1112 H1082 0.931 . S
C1112 C1109 1.357 . S
C1112 C1113 1.312 . S
C1113 H1084 0.930 . S
C1113 C1108 1.261 . S
C1113 C1112 1.312 . S
C1114 O1086 1.214 . S
C1114 O1094 1.234 . S
C1115 H1087 0.929 . S
C1115 C1118 1.391 . S
C1115 C1120 1.391 . S
C1116 H1088 0.929 . S
C1116 C1117 1.390 . S
C1116 N1119 1.391 . S
C1117 H1089 0.930 . S
C1117 C1116 1.390 . S
C1117 C1118 1.392 . S
C1118 H1090 0.929 . S
C1118 C1115 1.391 . S
C1118 C1117 1.392 . S
N1119 Co1063 2.257 . S
N1119 C1116 1.391 . S
N1119 C1120 1.388 . S
C1120 H1091 0.930 . S
C1120 C1115 1.391 . S
C1120 N1119 1.388 . S
Co1121 O1123 2.143 . S
Co1121 O1129 2.074 . S
Co1121 O1132 2.093 . S
Co1121 O1145 2.097 . S
Co1121 N1162 2.151 . S
Co1121 N1170 2.214 . S
Co1122 O1123 2.160 . S
Co1122 O1128 2.058 . S
Co1122 O1138 2.057 . S
Co1122 O1153 2.037 . S
Co1122 N1157 2.145 . S
Co1122 N1178 2.257 . S
O1123 Co1121 2.143 . S
O1123 Co1122 2.160 . S
C1124 O1125 1.278 . S
C1124 O1132 1.224 . S
O1125 C1124 1.278 . S
C1126 O1127 1.245 . S
C1126 O1138 1.232 . S
O1127 C1126 1.245 . S
O1128 Co1122 2.058 . S
O1128 C1154 1.269 . S
O1129 Co1121 2.074 . S
O1129 C1154 1.257 . S
H1130 C1155 0.930 . S
H1131 C1161 0.930 . S
O1132 Co1121 2.093 . S
O1132 C1124 1.224 . S
H1133 C1165 0.929 . S
H1134 C1167 0.930 . S
H1135 C1168 0.930 . S
H1136 C1166 0.929 . S
H1137 C1169 0.928 . S
O1138 Co1122 2.057 . S
O1138 C1126 1.232 . S
H1139 C1158 0.929 . S
H1140 C1159 0.929 . S
H1141 C1171 0.931 . S
H1142 C1163 0.929 . S
H1143 C1172 0.930 . S
H1144 C1164 0.931 . S
O1145 Co1121 2.097 . S
O1145 C1173 1.214 . S
H1146 C1174 0.929 . S
H1147 C1175 0.929 . S
H1148 C1176 0.930 . S
H1149 C1177 0.929 . S
H1150 C1179 0.930 . S
H1151 C1156 0.930 . S
H1152 C1160 0.930 . S
O1153 Co1122 2.037 . S
O1153 C1173 1.234 . S
C1154 O1128 1.269 . S
C1154 O1129 1.257 . S
C1155 H1130 0.930 . S
C1155 C1158 1.388 . S
C1155 C1160 1.418 . S
C1156 H1151 0.930 . S
C1156 C1159 1.404 . S
C1156 C1160 1.353 . S
N1157 Co1122 2.145 . S
N1157 C1158 1.397 . S
N1157 C1159 1.334 . S
C1158 H1139 0.929 . S
C1158 C1155 1.388 . S
C1158 N1157 1.397 . S
C1159 H1140 0.929 . S
C1159 C1156 1.404 . S
C1159 N1157 1.334 . S
C1160 H1152 0.930 . S
C1160 C1155 1.418 . S
C1160 C1156 1.353 . S
C1161 H1131 0.930 . S
C1161 N1162 1.330 . S
C1161 C1163 1.446 . S
N1162 Co1121 2.151 . S
N1162 C1161 1.330 . S
N1162 C1166 1.418 . S
C1163 H1142 0.929 . S
C1163 C1161 1.446 . S
C1163 C1164 1.332 . S
C1164 H1144 0.931 . S
C1164 C1163 1.332 . S
C1164 C1165 1.267 . S
C1165 H1133 0.929 . S
C1165 C1164 1.267 . S
C1165 C1166 1.251 . S
C1166 H1136 0.929 . S
C1166 N1162 1.418 . S
C1166 C1165 1.251 . S
C1167 H1134 0.930 . S
C1167 C1169 1.406 . S
C1167 C1172 1.261 . S
C1168 H1135 0.930 . S
C1168 N1170 1.325 . S
C1168 C1171 1.357 . S
C1169 H1137 0.928 . S
C1169 C1167 1.406 . S
C1169 N1170 1.261 . S
N1170 Co1121 2.214 . S
N1170 C1168 1.325 . S
N1170 C1169 1.261 . S
C1171 H1141 0.931 . S
C1171 C1168 1.357 . S
C1171 C1172 1.312 . S
C1172 H1143 0.930 . S
C1172 C1167 1.261 . S
C1172 C1171 1.312 . S
C1173 O1145 1.214 . S
C1173 O1153 1.234 . S
C1174 H1146 0.929 . S
C1174 C1177 1.391 . S
C1174 C1179 1.391 . S
C1175 H1147 0.929 . S
C1175 C1176 1.390 . S
C1175 N1178 1.391 . S
C1176 H1148 0.930 . S
C1176 C1175 1.390 . S
C1176 C1177 1.392 . S
C1177 H1149 0.929 . S
C1177 C1174 1.391 . S
C1177 C1176 1.392 . S
N1178 Co1122 2.257 . S
N1178 C1175 1.391 . S
N1178 C1179 1.388 . S
C1179 H1150 0.930 . S
C1179 C1174 1.391 . S
C1179 N1178 1.388 . S
Co1180 O1182 2.143 . S
Co1180 O1188 2.074 . S
Co1180 O1191 2.093 . S
Co1180 O1204 2.097 . S
Co1180 N1221 2.151 . S
Co1180 N1229 2.214 . S
Co1181 O1182 2.160 . S
Co1181 O1187 2.058 . S
Co1181 O1197 2.057 . S
Co1181 O1212 2.037 . S
Co1181 N1216 2.145 . S
Co1181 N1237 2.257 . S
O1182 Co1180 2.143 . S
O1182 Co1181 2.160 . S
C1183 O1184 1.278 . S
C1183 O1191 1.224 . S
O1184 C1183 1.278 . S
C1185 O1186 1.245 . S
C1185 O1197 1.232 . S
O1186 C1185 1.245 . S
O1187 Co1181 2.058 . S
O1187 C1213 1.269 . S
O1188 Co1180 2.074 . S
O1188 C1213 1.257 . S
H1189 C1214 0.930 . S
H1190 C1220 0.930 . S
O1191 Co1180 2.093 . S
O1191 C1183 1.224 . S
H1192 C1224 0.929 . S
H1193 C1226 0.930 . S
H1194 C1227 0.930 . S
H1195 C1225 0.929 . S
H1196 C1228 0.928 . S
O1197 Co1181 2.057 . S
O1197 C1185 1.232 . S
H1198 C1217 0.929 . S
H1199 C1218 0.929 . S
H1200 C1230 0.931 . S
H1201 C1222 0.929 . S
H1202 C1231 0.930 . S
H1203 C1223 0.931 . S
O1204 Co1180 2.097 . S
O1204 C1232 1.214 . S
H1205 C1233 0.929 . S
H1206 C1234 0.929 . S
H1207 C1235 0.930 . S
H1208 C1236 0.929 . S
H1209 C1238 0.930 . S
H1210 C1215 0.930 . S
H1211 C1219 0.930 . S
O1212 Co1181 2.037 . S
O1212 C1232 1.234 . S
C1213 O1187 1.269 . S
C1213 O1188 1.257 . S
C1214 H1189 0.930 . S
C1214 C1217 1.388 . S
C1214 C1219 1.418 . S
C1215 H1210 0.930 . S
C1215 C1218 1.404 . S
C1215 C1219 1.353 . S
N1216 Co1181 2.145 . S
N1216 C1217 1.397 . S
N1216 C1218 1.334 . S
C1217 H1198 0.929 . S
C1217 C1214 1.388 . S
C1217 N1216 1.397 . S
C1218 H1199 0.929 . S
C1218 C1215 1.404 . S
C1218 N1216 1.334 . S
C1219 H1211 0.930 . S
C1219 C1214 1.418 . S
C1219 C1215 1.353 . S
C1220 H1190 0.930 . S
C1220 N1221 1.330 . S
C1220 C1222 1.446 . S
N1221 Co1180 2.151 . S
N1221 C1220 1.330 . S
N1221 C1225 1.418 . S
C1222 H1201 0.929 . S
C1222 C1220 1.446 . S
C1222 C1223 1.332 . S
C1223 H1203 0.931 . S
C1223 C1222 1.332 . S
C1223 C1224 1.267 . S
C1224 H1192 0.929 . S
C1224 C1223 1.267 . S
C1224 C1225 1.251 . S
C1225 H1195 0.929 . S
C1225 N1221 1.418 . S
C1225 C1224 1.251 . S
C1226 H1193 0.930 . S
C1226 C1228 1.406 . S
C1226 C1231 1.261 . S
C1227 H1194 0.930 . S
C1227 N1229 1.325 . S
C1227 C1230 1.357 . S
C1228 H1196 0.928 . S
C1228 C1226 1.406 . S
C1228 N1229 1.261 . S
N1229 Co1180 2.214 . S
N1229 C1227 1.325 . S
N1229 C1228 1.261 . S
C1230 H1200 0.931 . S
C1230 C1227 1.357 . S
C1230 C1231 1.312 . S
C1231 H1202 0.930 . S
C1231 C1226 1.261 . S
C1231 C1230 1.312 . S
C1232 O1204 1.214 . S
C1232 O1212 1.234 . S
C1233 H1205 0.929 . S
C1233 C1236 1.391 . S
C1233 C1238 1.391 . S
C1234 H1206 0.929 . S
C1234 C1235 1.390 . S
C1234 N1237 1.391 . S
C1235 H1207 0.930 . S
C1235 C1234 1.390 . S
C1235 C1236 1.392 . S
C1236 H1208 0.929 . S
C1236 C1233 1.391 . S
C1236 C1235 1.392 . S
N1237 Co1181 2.257 . S
N1237 C1234 1.391 . S
N1237 C1238 1.388 . S
C1238 H1209 0.930 . S
C1238 C1233 1.391 . S
C1238 N1237 1.388 . S
Co1239 O1241 2.143 . S
Co1239 O1247 2.074 . S
Co1239 O1250 2.093 . S
Co1239 O1263 2.097 . S
Co1239 N1280 2.151 . S
Co1239 N1288 2.214 . S
Co1240 O1241 2.160 . S
Co1240 O1246 2.058 . S
Co1240 O1256 2.057 . S
Co1240 O1271 2.037 . S
Co1240 N1275 2.145 . S
Co1240 N1296 2.257 . S
O1241 Co1239 2.143 . S
O1241 Co1240 2.160 . S
C1242 O1243 1.278 . S
C1242 O1250 1.224 . S
O1243 C1242 1.278 . S
C1244 O1245 1.245 . S
C1244 O1256 1.232 . S
O1245 C1244 1.245 . S
O1246 Co1240 2.058 . S
O1246 C1272 1.269 . S
O1247 Co1239 2.074 . S
O1247 C1272 1.257 . S
H1248 C1273 0.930 . S
H1249 C1279 0.930 . S
O1250 Co1239 2.093 . S
O1250 C1242 1.224 . S
H1251 C1283 0.929 . S
H1252 C1285 0.930 . S
H1253 C1286 0.930 . S
H1254 C1284 0.929 . S
H1255 C1287 0.928 . S
O1256 Co1240 2.057 . S
O1256 C1244 1.232 . S
H1257 C1276 0.929 . S
H1258 C1277 0.929 . S
H1259 C1289 0.931 . S
H1260 C1281 0.929 . S
H1261 C1290 0.930 . S
H1262 C1282 0.931 . S
O1263 Co1239 2.097 . S
O1263 C1291 1.214 . S
H1264 C1292 0.929 . S
H1265 C1293 0.929 . S
H1266 C1294 0.930 . S
H1267 C1295 0.929 . S
H1268 C1297 0.930 . S
H1269 C1274 0.930 . S
H1270 C1278 0.930 . S
O1271 Co1240 2.037 . S
O1271 C1291 1.234 . S
C1272 O1246 1.269 . S
C1272 O1247 1.257 . S
C1273 H1248 0.930 . S
C1273 C1276 1.388 . S
C1273 C1278 1.418 . S
C1274 H1269 0.930 . S
C1274 C1277 1.404 . S
C1274 C1278 1.353 . S
N1275 Co1240 2.145 . S
N1275 C1276 1.397 . S
N1275 C1277 1.334 . S
C1276 H1257 0.929 . S
C1276 C1273 1.388 . S
C1276 N1275 1.397 . S
C1277 H1258 0.929 . S
C1277 C1274 1.404 . S
C1277 N1275 1.334 . S
C1278 H1270 0.930 . S
C1278 C1273 1.418 . S
C1278 C1274 1.353 . S
C1279 H1249 0.930 . S
C1279 N1280 1.330 . S
C1279 C1281 1.446 . S
N1280 Co1239 2.151 . S
N1280 C1279 1.330 . S
N1280 C1284 1.418 . S
C1281 H1260 0.929 . S
C1281 C1279 1.446 . S
C1281 C1282 1.332 . S
C1282 H1262 0.931 . S
C1282 C1281 1.332 . S
C1282 C1283 1.267 . S
C1283 H1251 0.929 . S
C1283 C1282 1.267 . S
C1283 C1284 1.251 . S
C1284 H1254 0.929 . S
C1284 N1280 1.418 . S
C1284 C1283 1.251 . S
C1285 H1252 0.930 . S
C1285 C1287 1.406 . S
C1285 C1290 1.261 . S
C1286 H1253 0.930 . S
C1286 N1288 1.325 . S
C1286 C1289 1.357 . S
C1287 H1255 0.928 . S
C1287 C1285 1.406 . S
C1287 N1288 1.261 . S
N1288 Co1239 2.214 . S
N1288 C1286 1.325 . S
N1288 C1287 1.261 . S
C1289 H1259 0.931 . S
C1289 C1286 1.357 . S
C1289 C1290 1.312 . S
C1290 H1261 0.930 . S
C1290 C1285 1.261 . S
C1290 C1289 1.312 . S
C1291 O1263 1.214 . S
C1291 O1271 1.234 . S
C1292 H1264 0.929 . S
C1292 C1295 1.391 . S
C1292 C1297 1.391 . S
C1293 H1265 0.929 . S
C1293 C1294 1.390 . S
C1293 N1296 1.391 . S
C1294 H1266 0.930 . S
C1294 C1293 1.390 . S
C1294 C1295 1.392 . S
C1295 H1267 0.929 . S
C1295 C1292 1.391 . S
C1295 C1294 1.392 . S
N1296 Co1240 2.257 . S
N1296 C1293 1.391 . S
N1296 C1297 1.388 . S
C1297 H1268 0.930 . S
C1297 C1292 1.391 . S
C1297 N1296 1.388 . S
Co1298 O1300 2.143 . S
Co1298 O1306 2.074 . S
Co1298 O1309 2.093 . S
Co1298 O1322 2.097 . S
Co1298 N1339 2.151 . S
Co1298 N1347 2.214 . S
Co1299 O1300 2.160 . S
Co1299 O1305 2.058 . S
Co1299 O1315 2.057 . S
Co1299 O1330 2.037 . S
Co1299 N1334 2.145 . S
Co1299 N1355 2.257 . S
O1300 Co1298 2.143 . S
O1300 Co1299 2.160 . S
C1301 O1302 1.278 . S
C1301 O1309 1.224 . S
O1302 C1301 1.278 . S
C1303 O1304 1.245 . S
C1303 O1315 1.232 . S
O1304 C1303 1.245 . S
O1305 Co1299 2.058 . S
O1305 C1331 1.269 . S
O1306 Co1298 2.074 . S
O1306 C1331 1.257 . S
H1307 C1332 0.930 . S
H1308 C1338 0.930 . S
O1309 Co1298 2.093 . S
O1309 C1301 1.224 . S
H1310 C1342 0.929 . S
H1311 C1344 0.930 . S
H1312 C1345 0.930 . S
H1313 C1343 0.929 . S
H1314 C1346 0.928 . S
O1315 Co1299 2.057 . S
O1315 C1303 1.232 . S
H1316 C1335 0.929 . S
H1317 C1336 0.929 . S
H1318 C1348 0.931 . S
H1319 C1340 0.929 . S
H1320 C1349 0.930 . S
H1321 C1341 0.931 . S
O1322 Co1298 2.097 . S
O1322 C1350 1.214 . S
H1323 C1351 0.929 . S
H1324 C1352 0.929 . S
H1325 C1353 0.930 . S
H1326 C1354 0.929 . S
H1327 C1356 0.930 . S
H1328 C1333 0.930 . S
H1329 C1337 0.930 . S
O1330 Co1299 2.037 . S
O1330 C1350 1.234 . S
C1331 O1305 1.269 . S
C1331 O1306 1.257 . S
C1332 H1307 0.930 . S
C1332 C1335 1.388 . S
C1332 C1337 1.418 . S
C1333 H1328 0.930 . S
C1333 C1336 1.404 . S
C1333 C1337 1.353 . S
N1334 Co1299 2.145 . S
N1334 C1335 1.397 . S
N1334 C1336 1.334 . S
C1335 H1316 0.929 . S
C1335 C1332 1.388 . S
C1335 N1334 1.397 . S
C1336 H1317 0.929 . S
C1336 C1333 1.404 . S
C1336 N1334 1.334 . S
C1337 H1329 0.930 . S
C1337 C1332 1.418 . S
C1337 C1333 1.353 . S
C1338 H1308 0.930 . S
C1338 N1339 1.330 . S
C1338 C1340 1.446 . S
N1339 Co1298 2.151 . S
N1339 C1338 1.330 . S
N1339 C1343 1.418 . S
C1340 H1319 0.929 . S
C1340 C1338 1.446 . S
C1340 C1341 1.332 . S
C1341 H1321 0.931 . S
C1341 C1340 1.332 . S
C1341 C1342 1.267 . S
C1342 H1310 0.929 . S
C1342 C1341 1.267 . S
C1342 C1343 1.251 . S
C1343 H1313 0.929 . S
C1343 N1339 1.418 . S
C1343 C1342 1.251 . S
C1344 H1311 0.930 . S
C1344 C1346 1.406 . S
C1344 C1349 1.261 . S
C1345 H1312 0.930 . S
C1345 N1347 1.325 . S
C1345 C1348 1.357 . S
C1346 H1314 0.928 . S
C1346 C1344 1.406 . S
C1346 N1347 1.261 . S
N1347 Co1298 2.214 . S
N1347 C1345 1.325 . S
N1347 C1346 1.261 . S
C1348 H1318 0.931 . S
C1348 C1345 1.357 . S
C1348 C1349 1.312 . S
C1349 H1320 0.930 . S
C1349 C1344 1.261 . S
C1349 C1348 1.312 . S
C1350 O1322 1.214 . S
C1350 O1330 1.234 . S
C1351 H1323 0.929 . S
C1351 C1354 1.391 . S
C1351 C1356 1.391 . S
C1352 H1324 0.929 . S
C1352 C1353 1.390 . S
C1352 N1355 1.391 . S
C1353 H1325 0.930 . S
C1353 C1352 1.390 . S
C1353 C1354 1.392 . S
C1354 H1326 0.929 . S
C1354 C1351 1.391 . S
C1354 C1353 1.392 . S
N1355 Co1299 2.257 . S
N1355 C1352 1.391 . S
N1355 C1356 1.388 . S
C1356 H1327 0.930 . S
C1356 C1351 1.391 . S
C1356 N1355 1.388 . S
Co1357 O1359 2.143 . S
Co1357 O1365 2.074 . S
Co1357 O1368 2.093 . S
Co1357 O1381 2.097 . S
Co1357 N1398 2.151 . S
Co1357 N1406 2.214 . S
Co1358 O1359 2.160 . S
Co1358 O1364 2.058 . S
Co1358 O1374 2.057 . S
Co1358 O1389 2.037 . S
Co1358 N1393 2.145 . S
Co1358 N1414 2.257 . S
O1359 Co1357 2.143 . S
O1359 Co1358 2.160 . S
C1360 O1361 1.278 . S
C1360 O1368 1.224 . S
O1361 C1360 1.278 . S
C1362 O1363 1.245 . S
C1362 O1374 1.232 . S
O1363 C1362 1.245 . S
O1364 Co1358 2.058 . S
O1364 C1390 1.269 . S
O1365 Co1357 2.074 . S
O1365 C1390 1.257 . S
H1366 C1391 0.930 . S
H1367 C1397 0.930 . S
O1368 Co1357 2.093 . S
O1368 C1360 1.224 . S
H1369 C1401 0.929 . S
H1370 C1403 0.930 . S
H1371 C1404 0.930 . S
H1372 C1402 0.929 . S
H1373 C1405 0.928 . S
O1374 Co1358 2.057 . S
O1374 C1362 1.232 . S
H1375 C1394 0.929 . S
H1376 C1395 0.929 . S
H1377 C1407 0.931 . S
H1378 C1399 0.929 . S
H1379 C1408 0.930 . S
H1380 C1400 0.931 . S
O1381 Co1357 2.097 . S
O1381 C1409 1.214 . S
H1382 C1410 0.929 . S
H1383 C1411 0.929 . S
H1384 C1412 0.930 . S
H1385 C1413 0.929 . S
H1386 C1415 0.930 . S
H1387 C1392 0.930 . S
H1388 C1396 0.930 . S
O1389 Co1358 2.037 . S
O1389 C1409 1.234 . S
C1390 O1364 1.269 . S
C1390 O1365 1.257 . S
C1391 H1366 0.930 . S
C1391 C1394 1.388 . S
C1391 C1396 1.418 . S
C1392 H1387 0.930 . S
C1392 C1395 1.404 . S
C1392 C1396 1.353 . S
N1393 Co1358 2.145 . S
N1393 C1394 1.397 . S
N1393 C1395 1.334 . S
C1394 H1375 0.929 . S
C1394 C1391 1.388 . S
C1394 N1393 1.397 . S
C1395 H1376 0.929 . S
C1395 C1392 1.404 . S
C1395 N1393 1.334 . S
C1396 H1388 0.930 . S
C1396 C1391 1.418 . S
C1396 C1392 1.353 . S
C1397 H1367 0.930 . S
C1397 N1398 1.330 . S
C1397 C1399 1.446 . S
N1398 Co1357 2.151 . S
N1398 C1397 1.330 . S
N1398 C1402 1.418 . S
C1399 H1378 0.929 . S
C1399 C1397 1.446 . S
C1399 C1400 1.332 . S
C1400 H1380 0.931 . S
C1400 C1399 1.332 . S
C1400 C1401 1.267 . S
C1401 H1369 0.929 . S
C1401 C1400 1.267 . S
C1401 C1402 1.251 . S
C1402 H1372 0.929 . S
C1402 N1398 1.418 . S
C1402 C1401 1.251 . S
C1403 H1370 0.930 . S
C1403 C1405 1.406 . S
C1403 C1408 1.261 . S
C1404 H1371 0.930 . S
C1404 N1406 1.325 . S
C1404 C1407 1.357 . S
C1405 H1373 0.928 . S
C1405 C1403 1.406 . S
C1405 N1406 1.261 . S
N1406 Co1357 2.214 . S
N1406 C1404 1.325 . S
N1406 C1405 1.261 . S
C1407 H1377 0.931 . S
C1407 C1404 1.357 . S
C1407 C1408 1.312 . S
C1408 H1379 0.930 . S
C1408 C1403 1.261 . S
C1408 C1407 1.312 . S
C1409 O1381 1.214 . S
C1409 O1389 1.234 . S
C1410 H1382 0.929 . S
C1410 C1413 1.391 . S
C1410 C1415 1.391 . S
C1411 H1383 0.929 . S
C1411 C1412 1.390 . S
C1411 N1414 1.391 . S
C1412 H1384 0.930 . S
C1412 C1411 1.390 . S
C1412 C1413 1.392 . S
C1413 H1385 0.929 . S
C1413 C1410 1.391 . S
C1413 C1412 1.392 . S
N1414 Co1358 2.257 . S
N1414 C1411 1.391 . S
N1414 C1415 1.388 . S
C1415 H1386 0.930 . S
C1415 C1410 1.391 . S
C1415 N1414 1.388 . S
H1416 C1422 0.930 . S
H1417 C1425 0.930 . S
H1418 C1426 0.930 . S
H1419 C1427 0.930 . S
H1420 C1430 0.930 . S
H1421 C1431 0.930 . S
C1422 H1416 0.930 . S
C1422 C1423 1.355 . S
C1422 C1424 1.415 . S
C1423 C1422 1.355 . S
C1423 C1425 1.419 . S
C1424 C1422 1.415 . S
C1424 C1429 1.425 . S
C1424 C1431 1.409 . S
C1425 H1417 0.930 . S
C1425 C1423 1.419 . S
C1425 C1426 1.362 . S
C1426 H1418 0.930 . S
C1426 C1425 1.362 . S
C1426 C1429 1.409 . S
C1427 H1419 0.930 . S
C1427 C1428 1.355 . S
C1427 C1429 1.415 . S
C1428 C1427 1.355 . S
C1428 C1430 1.419 . S
C1429 C1424 1.425 . S
C1429 C1426 1.409 . S
C1429 C1427 1.415 . S
C1430 H1420 0.930 . S
C1430 C1428 1.419 . S
C1430 C1431 1.362 . S
C1431 H1421 0.930 . S
C1431 C1424 1.409 . S
C1431 C1430 1.362 . S
H1432 C1438 0.930 . S
H1433 C1441 0.930 . S
H1434 C1442 0.930 . S
H1435 C1443 0.930 . S
H1436 C1446 0.930 . S
H1437 C1447 0.930 . S
C1438 H1432 0.930 . S
C1438 C1439 1.355 . S
C1438 C1440 1.415 . S
C1439 C1438 1.355 . S
C1439 C1441 1.419 . S
C1440 C1438 1.415 . S
C1440 C1445 1.425 1_655 S
C1440 C1447 1.409 1_655 S
C1441 H1433 0.930 . S
C1441 C1439 1.419 . S
C1441 C1442 1.362 . S
C1442 H1434 0.930 . S
C1442 C1441 1.362 . S
C1442 C1445 1.409 1_655 S
C1443 H1435 0.930 . S
C1443 C1444 1.355 . S
C1443 C1445 1.415 . S
C1444 C1443 1.355 . S
C1444 C1446 1.419 . S
C1445 C1440 1.425 1_455 S
C1445 C1442 1.409 1_455 S
C1445 C1443 1.415 . S
C1446 H1436 0.930 . S
C1446 C1444 1.419 . S
C1446 C1447 1.362 . S
C1447 H1437 0.930 . S
C1447 C1440 1.409 1_455 S
C1447 C1446 1.362 . S
H1448 C1454 0.930 . S
H1449 C1457 0.930 . S
H1450 C1458 0.930 . S
H1451 C1459 0.930 . S
H1452 C1462 0.930 . S
H1453 C1463 0.930 . S
C1454 H1448 0.930 . S
C1454 C1455 1.355 . S
C1454 C1456 1.415 . S
C1455 C1454 1.355 . S
C1455 C1457 1.419 . S
C1456 C1454 1.415 . S
C1456 C1461 1.425 . S
C1456 C1463 1.409 . S
C1457 H1449 0.930 . S
C1457 C1455 1.419 . S
C1457 C1458 1.362 . S
C1458 H1450 0.930 . S
C1458 C1457 1.362 . S
C1458 C1461 1.409 . S
C1459 H1451 0.930 . S
C1459 C1460 1.355 . S
C1459 C1461 1.415 . S
C1460 C1459 1.355 . S
C1460 C1462 1.419 . S
C1461 C1456 1.425 . S
C1461 C1458 1.409 . S
C1461 C1459 1.415 . S
C1462 H1452 0.930 . S
C1462 C1460 1.419 . S
C1462 C1463 1.362 . S
C1463 H1453 0.930 . S
C1463 C1456 1.409 . S
C1463 C1462 1.362 . S
H1464 C1470 0.930 . S
H1465 C1473 0.930 . S
H1466 C1474 0.930 . S
H1467 C1475 0.930 . S
H1468 C1478 0.930 . S
H1469 C1479 0.930 . S
C1470 H1464 0.930 . S
C1470 C1471 1.355 . S
C1470 C1472 1.415 . S
C1471 C1470 1.355 . S
C1471 C1473 1.419 . S
C1472 C1470 1.415 . S
C1472 C1477 1.425 1_455 S
C1472 C1479 1.409 1_455 S
C1473 H1465 0.930 . S
C1473 C1471 1.419 . S
C1473 C1474 1.362 . S
C1474 H1466 0.930 . S
C1474 C1473 1.362 . S
C1474 C1477 1.409 1_455 S
C1475 H1467 0.930 . S
C1475 C1476 1.355 . S
C1475 C1477 1.415 . S
C1476 C1475 1.355 . S
C1476 C1478 1.419 . S
C1477 C1472 1.425 1_655 S
C1477 C1474 1.409 1_655 S
C1477 C1475 1.415 . S
C1478 H1468 0.930 . S
C1478 C1476 1.419 . S
C1478 C1479 1.362 . S
C1479 H1469 0.930 . S
C1479 C1472 1.409 1_655 S
C1479 C1478 1.362 . S
H1480 C1486 0.930 . S
H1481 C1489 0.930 . S
H1482 C1490 0.930 . S
H1483 C1491 0.930 . S
H1484 C1494 0.930 . S
H1485 C1495 0.930 . S
C1486 H1480 0.930 . S
C1486 C1487 1.355 . S
C1486 C1488 1.415 . S
C1487 C1486 1.355 . S
C1487 C1489 1.419 . S
C1488 C1486 1.415 . S
C1488 C1493 1.425 . S
C1488 C1495 1.409 . S
C1489 H1481 0.930 . S
C1489 C1487 1.419 . S
C1489 C1490 1.362 . S
C1490 H1482 0.930 . S
C1490 C1489 1.362 . S
C1490 C1493 1.409 . S
C1491 H1483 0.930 . S
C1491 C1492 1.355 . S
C1491 C1493 1.415 . S
C1492 C1491 1.355 . S
C1492 C1494 1.419 . S
C1493 C1488 1.425 . S
C1493 C1490 1.409 . S
C1493 C1491 1.415 . S
C1494 H1484 0.930 . S
C1494 C1492 1.419 . S
C1494 C1495 1.362 . S
C1495 H1485 0.930 . S
C1495 C1488 1.409 . S
C1495 C1494 1.362 . S
H1496 C1502 0.930 . S
H1497 C1505 0.930 . S
H1498 C1506 0.930 . S
H1499 C1507 0.930 . S
H1500 C1510 0.930 . S
H1501 C1511 0.930 . S
C1502 H1496 0.930 . S
C1502 C1503 1.355 . S
C1502 C1504 1.415 . S
C1503 C1502 1.355 . S
C1503 C1505 1.419 . S
C1504 C1502 1.415 . S
C1504 C1509 1.425 1_655 S
C1504 C1511 1.409 1_655 S
C1505 H1497 0.930 . S
C1505 C1503 1.419 . S
C1505 C1506 1.362 . S
C1506 H1498 0.930 . S
C1506 C1505 1.362 . S
C1506 C1509 1.409 1_655 S
C1507 H1499 0.930 . S
C1507 C1508 1.355 . S
C1507 C1509 1.415 . S
C1508 C1507 1.355 . S
C1508 C1510 1.419 . S
C1509 C1504 1.425 1_455 S
C1509 C1506 1.409 1_455 S
C1509 C1507 1.415 . S
C1510 H1500 0.930 . S
C1510 C1508 1.419 . S
C1510 C1511 1.362 . S
C1511 H1501 0.930 . S
C1511 C1504 1.409 1_455 S
C1511 C1510 1.362 . S
H1512 C1518 0.930 . S
H1513 C1521 0.930 . S
H1514 C1522 0.930 . S
H1515 C1523 0.930 . S
H1516 C1526 0.930 . S
H1517 C1527 0.930 . S
C1518 H1512 0.930 . S
C1518 C1519 1.355 . S
C1518 C1520 1.415 . S
C1519 C1518 1.355 . S
C1519 C1521 1.419 . S
C1520 C1518 1.415 . S
C1520 C1525 1.425 . S
C1520 C1527 1.409 . S
C1521 H1513 0.930 . S
C1521 C1519 1.419 . S
C1521 C1522 1.362 . S
C1522 H1514 0.930 . S
C1522 C1521 1.362 . S
C1522 C1525 1.409 . S
C1523 H1515 0.930 . S
C1523 C1524 1.355 . S
C1523 C1525 1.415 . S
C1524 C1523 1.355 . S
C1524 C1526 1.419 . S
C1525 C1520 1.425 . S
C1525 C1522 1.409 . S
C1525 C1523 1.415 . S
C1526 H1516 0.930 . S
C1526 C1524 1.419 . S
C1526 C1527 1.362 . S
C1527 H1517 0.930 . S
C1527 C1520 1.409 . S
C1527 C1526 1.362 . S
H1528 C1534 0.930 . S
H1529 C1537 0.930 . S
H1530 C1538 0.930 . S
H1531 C1539 0.930 . S
H1532 C1542 0.930 . S
H1533 C1543 0.930 . S
C1534 H1528 0.930 . S
C1534 C1535 1.355 . S
C1534 C1536 1.415 . S
C1535 C1534 1.355 . S
C1535 C1537 1.419 . S
C1536 C1534 1.415 . S
C1536 C1541 1.425 1_655 S
C1536 C1543 1.409 1_655 S
C1537 H1529 0.930 . S
C1537 C1535 1.419 . S
C1537 C1538 1.362 . S
C1538 H1530 0.930 . S
C1538 C1537 1.362 . S
C1538 C1541 1.409 1_655 S
C1539 H1531 0.930 . S
C1539 C1540 1.355 . S
C1539 C1541 1.415 . S
C1540 C1539 1.355 . S
C1540 C1542 1.419 . S
C1541 C1536 1.425 1_455 S
C1541 C1538 1.409 1_455 S
C1541 C1539 1.415 . S
C1542 H1532 0.930 . S
C1542 C1540 1.419 . S
C1542 C1543 1.362 . S
C1543 H1533 0.930 . S
C1543 C1536 1.409 1_455 S
C1543 C1542 1.362 . S
H1544 C1550 0.930 . S
H1545 C1553 0.930 . S
H1546 C1554 0.930 . S
H1547 C1555 0.930 . S
H1548 C1558 0.930 . S
H1549 C1559 0.930 . S
C1550 H1544 0.930 . S
C1550 C1551 1.355 . S
C1550 C1552 1.415 . S
C1551 C1550 1.355 . S
C1551 C1553 1.419 . S
C1552 C1550 1.415 . S
C1552 C1557 1.425 . S
C1552 C1559 1.409 . S
C1553 H1545 0.930 . S
C1553 C1551 1.419 . S
C1553 C1554 1.362 . S
C1554 H1546 0.930 . S
C1554 C1553 1.362 . S
C1554 C1557 1.409 . S
C1555 H1547 0.930 . S
C1555 C1556 1.355 . S
C1555 C1557 1.415 . S
C1556 C1555 1.355 . S
C1556 C1558 1.419 . S
C1557 C1552 1.425 . S
C1557 C1554 1.409 . S
C1557 C1555 1.415 . S
C1558 H1548 0.930 . S
C1558 C1556 1.419 . S
C1558 C1559 1.362 . S
C1559 H1549 0.930 . S
C1559 C1552 1.409 . S
C1559 C1558 1.362 . S
H1560 C1566 0.930 . S
H1561 C1569 0.930 . S
H1562 C1570 0.930 . S
H1563 C1571 0.930 . S
H1564 C1574 0.930 . S
H1565 C1575 0.930 . S
C1566 H1560 0.930 . S
C1566 C1567 1.355 . S
C1566 C1568 1.415 . S
C1567 C1566 1.355 . S
C1567 C1569 1.419 . S
C1568 C1566 1.415 . S
C1568 C1573 1.425 1_556 S
C1568 C1575 1.409 1_556 S
C1569 H1561 0.930 . S
C1569 C1567 1.419 . S
C1569 C1570 1.362 . S
C1570 H1562 0.930 . S
C1570 C1569 1.362 . S
C1570 C1573 1.409 1_556 S
C1571 H1563 0.930 . S
C1571 C1572 1.355 . S
C1571 C1573 1.415 . S
C1572 C1571 1.355 . S
C1572 C1574 1.419 . S
C1573 C1568 1.425 1_554 S
C1573 C1570 1.409 1_554 S
C1573 C1571 1.415 . S
C1574 H1564 0.930 . S
C1574 C1572 1.419 . S
C1574 C1575 1.362 . S
C1575 H1565 0.930 . S
C1575 C1568 1.409 1_554 S
C1575 C1574 1.362 . S
H1576 C1582 0.930 . S
H1577 C1585 0.930 . S
H1578 C1586 0.930 . S
H1579 C1587 0.930 . S
H1580 C1590 0.930 . S
H1581 C1591 0.930 . S
C1582 H1576 0.930 . S
C1582 C1583 1.355 . S
C1582 C1584 1.415 . S
C1583 C1582 1.355 . S
C1583 C1585 1.419 . S
C1584 C1582 1.415 . S
C1584 C1589 1.425 . S
C1584 C1591 1.409 . S
C1585 H1577 0.930 . S
C1585 C1583 1.419 . S
C1585 C1586 1.362 . S
C1586 H1578 0.930 . S
C1586 C1585 1.362 . S
C1586 C1589 1.409 . S
C1587 H1579 0.930 . S
C1587 C1588 1.355 . S
C1587 C1589 1.415 . S
C1588 C1587 1.355 . S
C1588 C1590 1.419 . S
C1589 C1584 1.425 . S
C1589 C1586 1.409 . S
C1589 C1587 1.415 . S
C1590 H1580 0.930 . S
C1590 C1588 1.419 . S
C1590 C1591 1.362 . S
C1591 H1581 0.930 . S
C1591 C1584 1.409 . S
C1591 C1590 1.362 . S
H1592 C1598 0.930 . S
H1593 C1601 0.930 . S
H1594 C1602 0.930 . S
H1595 C1603 0.930 . S
H1596 C1606 0.930 . S
H1597 C1607 0.930 . S
C1598 H1592 0.930 . S
C1598 C1599 1.355 . S
C1598 C1600 1.415 . S
C1599 C1598 1.355 . S
C1599 C1601 1.419 . S
C1600 C1598 1.415 . S
C1600 C1605 1.425 1_554 S
C1600 C1607 1.409 1_554 S
C1601 H1593 0.930 . S
C1601 C1599 1.419 . S
C1601 C1602 1.362 . S
C1602 H1594 0.930 . S
C1602 C1601 1.362 . S
C1602 C1605 1.409 1_554 S
C1603 H1595 0.930 . S
C1603 C1604 1.355 . S
C1603 C1605 1.415 . S
C1604 C1603 1.355 . S
C1604 C1606 1.419 . S
C1605 C1600 1.425 1_556 S
C1605 C1602 1.409 1_556 S
C1605 C1603 1.415 . S
C1606 H1596 0.930 . S
C1606 C1604 1.419 . S
C1606 C1607 1.362 . S
C1607 H1597 0.930 . S
C1607 C1600 1.409 1_556 S
C1607 C1606 1.362 . S
H1608 C1614 0.930 . S
H1609 C1617 0.930 . S
H1610 C1618 0.930 . S
H1611 C1619 0.930 . S
H1612 C1622 0.930 . S
H1613 C1623 0.930 . S
C1614 H1608 0.930 . S
C1614 C1615 1.355 . S
C1614 C1616 1.415 . S
C1615 C1614 1.355 . S
C1615 C1617 1.419 . S
C1616 C1614 1.415 . S
C1616 C1621 1.425 . S
C1616 C1623 1.409 . S
C1617 H1609 0.930 . S
C1617 C1615 1.419 . S
C1617 C1618 1.362 . S
C1618 H1610 0.930 . S
C1618 C1617 1.362 . S
C1618 C1621 1.409 . S
C1619 H1611 0.930 . S
C1619 C1620 1.355 . S
C1619 C1621 1.415 . S
C1620 C1619 1.355 . S
C1620 C1622 1.419 . S
C1621 C1616 1.425 . S
C1621 C1618 1.409 . S
C1621 C1619 1.415 . S
C1622 H1612 0.930 . S
C1622 C1620 1.419 . S
C1622 C1623 1.362 . S
C1623 H1613 0.930 . S
C1623 C1616 1.409 . S
C1623 C1622 1.362 . S
H1624 C1630 0.930 . S
H1625 C1633 0.930 . S
H1626 C1634 0.930 . S
H1627 C1635 0.930 . S
H1628 C1638 0.930 . S
H1629 C1639 0.930 . S
C1630 H1624 0.930 . S
C1630 C1631 1.355 . S
C1630 C1632 1.415 . S
C1631 C1630 1.355 . S
C1631 C1633 1.419 . S
C1632 C1630 1.415 . S
C1632 C1637 1.425 1_554 S
C1632 C1639 1.409 1_554 S
C1633 H1625 0.930 . S
C1633 C1631 1.419 . S
C1633 C1634 1.362 . S
C1634 H1626 0.930 . S
C1634 C1633 1.362 . S
C1634 C1637 1.409 1_554 S
C1635 H1627 0.930 . S
C1635 C1636 1.355 . S
C1635 C1637 1.415 . S
C1636 C1635 1.355 . S
C1636 C1638 1.419 . S
C1637 C1632 1.425 1_556 S
C1637 C1634 1.409 1_556 S
C1637 C1635 1.415 . S
C1638 H1628 0.930 . S
C1638 C1636 1.419 . S
C1638 C1639 1.362 . S
C1639 H1629 0.930 . S
C1639 C1632 1.409 1_556 S
C1639 C1638 1.362 . S
H1640 C1646 0.930 . S
H1641 C1649 0.930 . S
H1642 C1650 0.930 . S
H1643 C1651 0.930 . S
H1644 C1654 0.930 . S
H1645 C1655 0.930 . S
C1646 H1640 0.930 . S
C1646 C1647 1.355 . S
C1646 C1648 1.415 . S
C1647 C1646 1.355 . S
C1647 C1649 1.419 . S
C1648 C1646 1.415 . S
C1648 C1653 1.425 . S
C1648 C1655 1.409 . S
C1649 H1641 0.930 . S
C1649 C1647 1.419 . S
C1649 C1650 1.362 . S
C1650 H1642 0.930 . S
C1650 C1649 1.362 . S
C1650 C1653 1.409 . S
C1651 H1643 0.930 . S
C1651 C1652 1.355 . S
C1651 C1653 1.415 . S
C1652 C1651 1.355 . S
C1652 C1654 1.419 . S
C1653 C1648 1.425 . S
C1653 C1650 1.409 . S
C1653 C1651 1.415 . S
C1654 H1644 0.930 . S
C1654 C1652 1.419 . S
C1654 C1655 1.362 . S
C1655 H1645 0.930 . S
C1655 C1648 1.409 . S
C1655 C1654 1.362 . S
H1656 C1662 0.930 . S
H1657 C1665 0.930 . S
H1658 C1666 0.930 . S
H1659 C1667 0.930 . S
H1660 C1670 0.930 . S
H1661 C1671 0.930 . S
C1662 H1656 0.930 . S
C1662 C1663 1.355 . S
C1662 C1664 1.415 . S
C1663 C1662 1.355 . S
C1663 C1665 1.419 . S
C1664 C1662 1.415 . S
C1664 C1669 1.425 1_554 S
C1664 C1671 1.409 1_554 S
C1665 H1657 0.930 . S
C1665 C1663 1.419 . S
C1665 C1666 1.362 . S
C1666 H1658 0.930 . S
C1666 C1665 1.362 . S
C1666 C1669 1.409 1_554 S
C1667 H1659 0.930 . S
C1667 C1668 1.355 . S
C1667 C1669 1.415 . S
C1668 C1667 1.355 . S
C1668 C1670 1.419 . S
C1669 C1664 1.425 1_556 S
C1669 C1666 1.409 1_556 S
C1669 C1667 1.415 . S
C1670 H1660 0.930 . S
C1670 C1668 1.419 . S
C1670 C1671 1.362 . S
C1671 H1661 0.930 . S
C1671 C1664 1.409 1_556 S
C1671 C1670 1.362 . S
H1672 C1678 0.930 . S
H1673 C1681 0.930 . S
H1674 C1682 0.930 . S
H1675 C1683 0.930 . S
H1676 C1686 0.930 . S
H1677 C1687 0.930 . S
C1678 H1672 0.930 . S
C1678 C1679 1.355 . S
C1678 C1680 1.415 . S
C1679 C1678 1.355 . S
C1679 C1681 1.419 . S
C1680 C1678 1.415 . S
C1680 C1685 1.425 . S
C1680 C1687 1.409 . S
C1681 H1673 0.930 . S
C1681 C1679 1.419 . S
C1681 C1682 1.362 . S
C1682 H1674 0.930 . S
C1682 C1681 1.362 . S
C1682 C1685 1.409 . S
C1683 H1675 0.930 . S
C1683 C1684 1.355 . S
C1683 C1685 1.415 . S
C1684 C1683 1.355 . S
C1684 C1686 1.419 . S
C1685 C1680 1.425 . S
C1685 C1682 1.409 . S
C1685 C1683 1.415 . S
C1686 H1676 0.930 . S
C1686 C1684 1.419 . S
C1686 C1687 1.362 . S
C1687 H1677 0.930 . S
C1687 C1680 1.409 . S
C1687 C1686 1.362 . S
H1688 C1694 0.930 . S
H1689 C1697 0.930 . S
H1690 C1698 0.930 . S
H1691 C1699 0.930 . S
H1692 C1702 0.930 . S
H1693 C1703 0.930 . S
C1694 H1688 0.930 . S
C1694 C1695 1.355 . S
C1694 C1696 1.415 . S
C1695 C1694 1.355 . S
C1695 C1697 1.419 . S
C1696 C1694 1.415 . S
C1696 C1701 1.425 . S
C1696 C1703 1.409 . S
C1697 H1689 0.930 . S
C1697 C1695 1.419 . S
C1697 C1698 1.362 . S
C1698 H1690 0.930 . S
C1698 C1697 1.362 . S
C1698 C1701 1.409 . S
C1699 H1691 0.930 . S
C1699 C1700 1.355 . S
C1699 C1701 1.415 . S
C1700 C1699 1.355 . S
C1700 C1702 1.419 . S
C1701 C1696 1.425 . S
C1701 C1698 1.409 . S
C1701 C1699 1.415 . S
C1702 H1692 0.930 . S
C1702 C1700 1.419 . S
C1702 C1703 1.362 . S
C1703 H1693 0.930 . S
C1703 C1696 1.409 . S
C1703 C1702 1.362 . S
H1704 C1710 0.930 . S
H1705 C1713 0.930 . S
H1706 C1714 0.930 . S
H1707 C1715 0.930 . S
H1708 C1718 0.930 . S
H1709 C1719 0.930 . S
C1710 H1704 0.930 . S
C1710 C1711 1.355 . S
C1710 C1712 1.415 . S
C1711 C1710 1.355 . S
C1711 C1713 1.419 . S
C1712 C1710 1.415 . S
C1712 C1717 1.425 1_565 S
C1712 C1719 1.409 1_565 S
C1713 H1705 0.930 . S
C1713 C1711 1.419 . S
C1713 C1714 1.362 . S
C1714 H1706 0.930 . S
C1714 C1713 1.362 . S
C1714 C1717 1.409 1_565 S
C1715 H1707 0.930 . S
C1715 C1716 1.355 . S
C1715 C1717 1.415 . S
C1716 C1715 1.355 . S
C1716 C1718 1.419 . S
C1717 C1712 1.425 1_545 S
C1717 C1714 1.409 1_545 S
C1717 C1715 1.415 . S
C1718 H1708 0.930 . S
C1718 C1716 1.419 . S
C1718 C1719 1.362 . S
C1719 H1709 0.930 . S
C1719 C1712 1.409 1_545 S
C1719 C1718 1.362 . S
H1720 C1726 0.930 . S
H1721 C1729 0.930 . S
H1722 C1730 0.930 . S
H1723 C1731 0.930 . S
H1724 C1734 0.930 . S
H1725 C1735 0.930 . S
C1726 H1720 0.930 . S
C1726 C1727 1.355 . S
C1726 C1728 1.415 . S
C1727 C1726 1.355 . S
C1727 C1729 1.419 . S
C1728 C1726 1.415 . S
C1728 C1733 1.425 . S
C1728 C1735 1.409 . S
C1729 H1721 0.930 . S
C1729 C1727 1.419 . S
C1729 C1730 1.362 . S
C1730 H1722 0.930 . S
C1730 C1729 1.362 . S
C1730 C1733 1.409 . S
C1731 H1723 0.930 . S
C1731 C1732 1.355 . S
C1731 C1733 1.415 . S
C1732 C1731 1.355 . S
C1732 C1734 1.419 . S
C1733 C1728 1.425 . S
C1733 C1730 1.409 . S
C1733 C1731 1.415 . S
C1734 H1724 0.930 . S
C1734 C1732 1.419 . S
C1734 C1735 1.362 . S
C1735 H1725 0.930 . S
C1735 C1728 1.409 . S
C1735 C1734 1.362 . S
H1736 C1742 0.930 . S
H1737 C1745 0.930 . S
H1738 C1746 0.930 . S
H1739 C1747 0.930 . S
H1740 C1750 0.930 . S
H1741 C1751 0.930 . S
C1742 H1736 0.930 . S
C1742 C1743 1.355 . S
C1742 C1744 1.415 . S
C1743 C1742 1.355 . S
C1743 C1745 1.419 . S
C1744 C1742 1.415 . S
C1744 C1749 1.425 1_565 S
C1744 C1751 1.409 1_565 S
C1745 H1737 0.930 . S
C1745 C1743 1.419 . S
C1745 C1746 1.362 . S
C1746 H1738 0.930 . S
C1746 C1745 1.362 . S
C1746 C1749 1.409 1_565 S
C1747 H1739 0.930 . S
C1747 C1748 1.355 . S
C1747 C1749 1.415 . S
C1748 C1747 1.355 . S
C1748 C1750 1.419 . S
C1749 C1744 1.425 1_545 S
C1749 C1746 1.409 1_545 S
C1749 C1747 1.415 . S
C1750 H1740 0.930 . S
C1750 C1748 1.419 . S
C1750 C1751 1.362 . S
C1751 H1741 0.930 . S
C1751 C1744 1.409 1_545 S
C1751 C1750 1.362 . S
H1752 C1758 0.930 . S
H1753 C1761 0.930 . S
H1754 C1762 0.930 . S
H1755 C1763 0.930 . S
H1756 C1766 0.930 . S
H1757 C1767 0.930 . S
C1758 H1752 0.930 . S
C1758 C1759 1.355 . S
C1758 C1760 1.415 . S
C1759 C1758 1.355 . S
C1759 C1761 1.419 . S
C1760 C1758 1.415 . S
C1760 C1765 1.425 . S
C1760 C1767 1.409 . S
C1761 H1753 0.930 . S
C1761 C1759 1.419 . S
C1761 C1762 1.362 . S
C1762 H1754 0.930 . S
C1762 C1761 1.362 . S
C1762 C1765 1.409 . S
C1763 H1755 0.930 . S
C1763 C1764 1.355 . S
C1763 C1765 1.415 . S
C1764 C1763 1.355 . S
C1764 C1766 1.419 . S
C1765 C1760 1.425 . S
C1765 C1762 1.409 . S
C1765 C1763 1.415 . S
C1766 H1756 0.930 . S
C1766 C1764 1.419 . S
C1766 C1767 1.362 . S
C1767 H1757 0.930 . S
C1767 C1760 1.409 . S
C1767 C1766 1.362 . S
H1768 C1774 0.930 . S
H1769 C1777 0.930 . S
H1770 C1778 0.930 . S
H1771 C1779 0.930 . S
H1772 C1782 0.930 . S
H1773 C1783 0.930 . S
C1774 H1768 0.930 . S
C1774 C1775 1.355 . S
C1774 C1776 1.415 . S
C1775 C1774 1.355 . S
C1775 C1777 1.419 . S
C1776 C1774 1.415 . S
C1776 C1781 1.425 1_565 S
C1776 C1783 1.409 1_565 S
C1777 H1769 0.930 . S
C1777 C1775 1.419 . S
C1777 C1778 1.362 . S
C1778 H1770 0.930 . S
C1778 C1777 1.362 . S
C1778 C1781 1.409 1_565 S
C1779 H1771 0.930 . S
C1779 C1780 1.355 . S
C1779 C1781 1.415 . S
C1780 C1779 1.355 . S
C1780 C1782 1.419 . S
C1781 C1776 1.425 1_545 S
C1781 C1778 1.409 1_545 S
C1781 C1779 1.415 . S
C1782 H1772 0.930 . S
C1782 C1780 1.419 . S
C1782 C1783 1.362 . S
C1783 H1773 0.930 . S
C1783 C1776 1.409 1_545 S
C1783 C1782 1.362 . S
H1784 C1790 0.930 . S
H1785 C1793 0.930 . S
H1786 C1794 0.930 . S
H1787 C1795 0.930 . S
H1788 C1798 0.930 . S
H1789 C1799 0.930 . S
C1790 H1784 0.930 . S
C1790 C1791 1.355 . S
C1790 C1792 1.415 . S
C1791 C1790 1.355 . S
C1791 C1793 1.419 . S
C1792 C1790 1.415 . S
C1792 C1797 1.425 1_545 S
C1792 C1799 1.409 1_545 S
C1793 H1785 0.930 . S
C1793 C1791 1.419 . S
C1793 C1794 1.362 . S
C1794 H1786 0.930 . S
C1794 C1793 1.362 . S
C1794 C1797 1.409 1_545 S
C1795 H1787 0.930 . S
C1795 C1796 1.355 . S
C1795 C1797 1.415 . S
C1796 C1795 1.355 . S
C1796 C1798 1.419 . S
C1797 C1792 1.425 1_565 S
C1797 C1794 1.409 1_565 S
C1797 C1795 1.415 . S
C1798 H1788 0.930 . S
C1798 C1796 1.419 . S
C1798 C1799 1.362 . S
C1799 H1789 0.930 . S
C1799 C1792 1.409 1_565 S
C1799 C1798 1.362 . S
H1800 C1806 0.930 . S
H1801 C1809 0.930 . S
H1802 C1810 0.930 . S
H1803 C1811 0.930 . S
H1804 C1814 0.930 . S
H1805 C1815 0.930 . S
C1806 H1800 0.930 . S
C1806 C1807 1.355 . S
C1806 C1808 1.415 . S
C1807 C1806 1.355 . S
C1807 C1809 1.419 . S
C1808 C1806 1.415 . S
C1808 C1813 1.425 . S
C1808 C1815 1.409 . S
C1809 H1801 0.930 . S
C1809 C1807 1.419 . S
C1809 C1810 1.362 . S
C1810 H1802 0.930 . S
C1810 C1809 1.362 . S
C1810 C1813 1.409 . S
C1811 H1803 0.930 . S
C1811 C1812 1.355 . S
C1811 C1813 1.415 . S
C1812 C1811 1.355 . S
C1812 C1814 1.419 . S
C1813 C1808 1.425 . S
C1813 C1810 1.409 . S
C1813 C1811 1.415 . S
C1814 H1804 0.930 . S
C1814 C1812 1.419 . S
C1814 C1815 1.362 . S
C1815 H1805 0.930 . S
C1815 C1808 1.409 . S
C1815 C1814 1.362 . S
H1816 C1822 0.930 . S
H1817 C1825 0.930 . S
H1818 C1826 0.930 . S
H1819 C1827 0.930 . S
H1820 C1830 0.930 . S
H1821 C1831 0.930 . S
C1822 H1816 0.930 . S
C1822 C1823 1.355 . S
C1822 C1824 1.415 . S
C1823 C1822 1.355 . S
C1823 C1825 1.419 . S
C1824 C1822 1.415 . S
C1824 C1829 1.425 . S
C1824 C1831 1.409 . S
C1825 H1817 0.930 . S
C1825 C1823 1.419 . S
C1825 C1826 1.362 . S
C1826 H1818 0.930 . S
C1826 C1825 1.362 . S
C1826 C1829 1.409 . S
C1827 H1819 0.930 . S
C1827 C1828 1.355 . S
C1827 C1829 1.415 . S
C1828 C1827 1.355 . S
C1828 C1830 1.419 . S
C1829 C1824 1.425 . S
C1829 C1826 1.409 . S
C1829 C1827 1.415 . S
C1830 H1820 0.930 . S
C1830 C1828 1.419 . S
C1830 C1831 1.362 . S
C1831 H1821 0.930 . S
C1831 C1824 1.409 . S
C1831 C1830 1.362 . S
H1832 C1838 0.930 . S
H1833 C1841 0.930 . S
H1834 C1842 0.930 . S
H1835 C1843 0.930 . S
H1836 C1846 0.930 . S
H1837 C1847 0.930 . S
C1838 H1832 0.930 . S
C1838 C1839 1.355 . S
C1838 C1840 1.415 . S
C1839 C1838 1.355 . S
C1839 C1841 1.419 . S
C1840 C1838 1.415 . S
C1840 C1845 1.425 . S
C1840 C1847 1.409 . S
C1841 H1833 0.930 . S
C1841 C1839 1.419 . S
C1841 C1842 1.362 . S
C1842 H1834 0.930 . S
C1842 C1841 1.362 . S
C1842 C1845 1.409 . S
C1843 H1835 0.930 . S
C1843 C1844 1.355 . S
C1843 C1845 1.415 . S
C1844 C1843 1.355 . S
C1844 C1846 1.419 . S
C1845 C1840 1.425 . S
C1845 C1842 1.409 . S
C1845 C1843 1.415 . S
C1846 H1836 0.930 . S
C1846 C1844 1.419 . S
C1846 C1847 1.362 . S
C1847 H1837 0.930 . S
C1847 C1840 1.409 . S
C1847 C1846 1.362 . S
H1848 C1854 0.930 . S
H1849 C1857 0.930 . S
H1850 C1858 0.930 . S
H1851 C1859 0.930 . S
H1852 C1862 0.930 . S
H1853 C1863 0.930 . S
C1854 H1848 0.930 . S
C1854 C1855 1.355 . S
C1854 C1856 1.415 . S
C1855 C1854 1.355 . S
C1855 C1857 1.419 . S
C1856 C1854 1.415 . S
C1856 C1861 1.425 . S
C1856 C1863 1.409 . S
C1857 H1849 0.930 . S
C1857 C1855 1.419 . S
C1857 C1858 1.362 . S
C1858 H1850 0.930 . S
C1858 C1857 1.362 . S
C1858 C1861 1.409 . S
C1859 H1851 0.930 . S
C1859 C1860 1.355 . S
C1859 C1861 1.415 . S
C1860 C1859 1.355 . S
C1860 C1862 1.419 . S
C1861 C1856 1.425 . S
C1861 C1858 1.409 . S
C1861 C1859 1.415 . S
C1862 H1852 0.930 . S
C1862 C1860 1.419 . S
C1862 C1863 1.362 . S
C1863 H1853 0.930 . S
C1863 C1856 1.409 . S
C1863 C1862 1.362 . S
H1864 C1870 0.930 . S
H1865 C1873 0.930 . S
H1866 C1874 0.930 . S
H1867 C1875 0.930 . S
H1868 C1878 0.930 . S
H1869 C1879 0.930 . S
C1870 H1864 0.930 . S
C1870 C1871 1.355 . S
C1870 C1872 1.415 . S
C1871 C1870 1.355 . S
C1871 C1873 1.419 . S
C1872 C1870 1.415 . S
C1872 C1877 1.425 . S
C1872 C1879 1.409 . S
C1873 H1865 0.930 . S
C1873 C1871 1.419 . S
C1873 C1874 1.362 . S
C1874 H1866 0.930 . S
C1874 C1873 1.362 . S
C1874 C1877 1.409 . S
C1875 H1867 0.930 . S
C1875 C1876 1.355 . S
C1875 C1877 1.415 . S
C1876 C1875 1.355 . S
C1876 C1878 1.419 . S
C1877 C1872 1.425 . S
C1877 C1874 1.409 . S
C1877 C1875 1.415 . S
C1878 H1868 0.930 . S
C1878 C1876 1.419 . S
C1878 C1879 1.362 . S
C1879 H1869 0.930 . S
C1879 C1872 1.409 . S
C1879 C1878 1.362 . S
H1880 C1886 0.930 . S
H1881 C1889 0.930 . S
H1882 C1890 0.930 . S
H1883 C1891 0.930 . S
H1884 C1894 0.930 . S
H1885 C1895 0.930 . S
C1886 H1880 0.930 . S
C1886 C1887 1.355 . S
C1886 C1888 1.415 . S
C1887 C1886 1.355 . S
C1887 C1889 1.419 . S
C1888 C1886 1.415 . S
C1888 C1893 1.425 . S
C1888 C1895 1.409 . S
C1889 H1881 0.930 . S
C1889 C1887 1.419 . S
C1889 C1890 1.362 . S
C1890 H1882 0.930 . S
C1890 C1889 1.362 . S
C1890 C1893 1.409 . S
C1891 H1883 0.930 . S
C1891 C1892 1.355 . S
C1891 C1893 1.415 . S
C1892 C1891 1.355 . S
C1892 C1894 1.419 . S
C1893 C1888 1.425 . S
C1893 C1890 1.409 . S
C1893 C1891 1.415 . S
C1894 H1884 0.930 . S
C1894 C1892 1.419 . S
C1894 C1895 1.362 . S
C1895 H1885 0.930 . S
C1895 C1888 1.409 . S
C1895 C1894 1.362 . S
H1896 C1902 0.930 . S
H1897 C1905 0.930 . S
H1898 C1906 0.930 . S
H1899 C1907 0.930 . S
H1900 C1910 0.930 . S
H1901 C1911 0.930 . S
C1902 H1896 0.930 . S
C1902 C1903 1.355 . S
C1902 C1904 1.415 . S
C1903 C1902 1.355 . S
C1903 C1905 1.419 . S
C1904 C1902 1.415 . S
C1904 C1909 1.425 . S
C1904 C1911 1.409 . S
C1905 H1897 0.930 . S
C1905 C1903 1.419 . S
C1905 C1906 1.362 . S
C1906 H1898 0.930 . S
C1906 C1905 1.362 . S
C1906 C1909 1.409 . S
C1907 H1899 0.930 . S
C1907 C1908 1.355 . S
C1907 C1909 1.415 . S
C1908 C1907 1.355 . S
C1908 C1910 1.419 . S
C1909 C1904 1.425 . S
C1909 C1906 1.409 . S
C1909 C1907 1.415 . S
C1910 H1900 0.930 . S
C1910 C1908 1.419 . S
C1910 C1911 1.362 . S
C1911 H1901 0.930 . S
C1911 C1904 1.409 . S
C1911 C1910 1.362 . S
H1912 C1918 0.930 . S
H1913 C1921 0.930 . S
H1914 C1922 0.930 . S
H1915 C1923 0.930 . S
H1916 C1926 0.930 . S
H1917 C1927 0.930 . S
C1918 H1912 0.930 . S
C1918 C1919 1.355 . S
C1918 C1920 1.415 . S
C1919 C1918 1.355 . S
C1919 C1921 1.419 . S
C1920 C1918 1.415 . S
C1920 C1925 1.425 . S
C1920 C1927 1.409 . S
C1921 H1913 0.930 . S
C1921 C1919 1.419 . S
C1921 C1922 1.362 . S
C1922 H1914 0.930 . S
C1922 C1921 1.362 . S
C1922 C1925 1.409 . S
C1923 H1915 0.930 . S
C1923 C1924 1.355 . S
C1923 C1925 1.415 . S
C1924 C1923 1.355 . S
C1924 C1926 1.419 . S
C1925 C1920 1.425 . S
C1925 C1922 1.409 . S
C1925 C1923 1.415 . S
C1926 H1916 0.930 . S
C1926 C1924 1.419 . S
C1926 C1927 1.362 . S
C1927 H1917 0.930 . S
C1927 C1920 1.409 . S
C1927 C1926 1.362 . S
H1928 C1934 0.930 . S
H1929 C1937 0.930 . S
H1930 C1938 0.930 . S
H1931 C1939 0.930 . S
H1932 C1942 0.930 . S
H1933 C1943 0.930 . S
C1934 H1928 0.930 . S
C1934 C1935 1.355 . S
C1934 C1936 1.415 . S
C1935 C1934 1.355 . S
C1935 C1937 1.419 . S
C1936 C1934 1.415 . S
C1936 C1941 1.425 . S
C1936 C1943 1.409 . S
C1937 H1929 0.930 . S
C1937 C1935 1.419 . S
C1937 C1938 1.362 . S
C1938 H1930 0.930 . S
C1938 C1937 1.362 . S
C1938 C1941 1.409 . S
C1939 H1931 0.930 . S
C1939 C1940 1.355 . S
C1939 C1941 1.415 . S
C1940 C1939 1.355 . S
C1940 C1942 1.419 . S
C1941 C1936 1.425 . S
C1941 C1938 1.409 . S
C1941 C1939 1.415 . S
C1942 H1932 0.930 . S
C1942 C1940 1.419 . S
C1942 C1943 1.362 . S
C1943 H1933 0.930 . S
C1943 C1936 1.409 . S
C1943 C1942 1.362 . S
H1944 C1950 0.930 . S
H1945 C1953 0.930 . S
H1946 C1954 0.930 . S
H1947 C1955 0.930 . S
H1948 C1958 0.930 . S
H1949 C1959 0.930 . S
C1950 H1944 0.930 . S
C1950 C1951 1.355 . S
C1950 C1952 1.415 . S
C1951 C1950 1.355 . S
C1951 C1953 1.419 . S
C1952 C1950 1.415 . S
C1952 C1957 1.425 . S
C1952 C1959 1.409 . S
C1953 H1945 0.930 . S
C1953 C1951 1.419 . S
C1953 C1954 1.362 . S
C1954 H1946 0.930 . S
C1954 C1953 1.362 . S
C1954 C1957 1.409 . S
C1955 H1947 0.930 . S
C1955 C1956 1.355 . S
C1955 C1957 1.415 . S
C1956 C1955 1.355 . S
C1956 C1958 1.419 . S
C1957 C1952 1.425 . S
C1957 C1954 1.409 . S
C1957 C1955 1.415 . S
C1958 H1948 0.930 . S
C1958 C1956 1.419 . S
C1958 C1959 1.362 . S
C1959 H1949 0.930 . S
C1959 C1952 1.409 . S
C1959 C1958 1.362 . S
H1960 C1966 0.930 . S
H1961 C1969 0.930 . S
H1962 C1970 0.930 . S
H1963 C1971 0.930 . S
H1964 C1974 0.930 . S
H1965 C1975 0.930 . S
C1966 H1960 0.930 . S
C1966 C1967 1.355 . S
C1966 C1968 1.415 . S
C1967 C1966 1.355 . S
C1967 C1969 1.419 . S
C1968 C1966 1.415 . S
C1968 C1973 1.425 . S
C1968 C1975 1.409 . S
C1969 H1961 0.930 . S
C1969 C1967 1.419 . S
C1969 C1970 1.362 . S
C1970 H1962 0.930 . S
C1970 C1969 1.362 . S
C1970 C1973 1.409 . S
C1971 H1963 0.930 . S
C1971 C1972 1.355 . S
C1971 C1973 1.415 . S
C1972 C1971 1.355 . S
C1972 C1974 1.419 . S
C1973 C1968 1.425 . S
C1973 C1970 1.409 . S
C1973 C1971 1.415 . S
C1974 H1964 0.930 . S
C1974 C1972 1.419 . S
C1974 C1975 1.362 . S
C1975 H1965 0.930 . S
C1975 C1968 1.409 . S
C1975 C1974 1.362 . S
H1976 C1982 0.930 . S
H1977 C1985 0.930 . S
H1978 C1986 0.930 . S
H1979 C1987 0.930 . S
H1980 C1990 0.930 . S
H1981 C1991 0.930 . S
C1982 H1976 0.930 . S
C1982 C1983 1.355 . S
C1982 C1984 1.415 . S
C1983 C1982 1.355 . S
C1983 C1985 1.419 . S
C1984 C1982 1.415 . S
C1984 C1989 1.425 . S
C1984 C1991 1.409 . S
C1985 H1977 0.930 . S
C1985 C1983 1.419 . S
C1985 C1986 1.362 . S
C1986 H1978 0.930 . S
C1986 C1985 1.362 . S
C1986 C1989 1.409 . S
C1987 H1979 0.930 . S
C1987 C1988 1.355 . S
C1987 C1989 1.415 . S
C1988 C1987 1.355 . S
C1988 C1990 1.419 . S
C1989 C1984 1.425 . S
C1989 C1986 1.409 . S
C1989 C1987 1.415 . S
C1990 H1980 0.930 . S
C1990 C1988 1.419 . S
C1990 C1991 1.362 . S
C1991 H1981 0.930 . S
C1991 C1984 1.409 . S
C1991 C1990 1.362 . S
H1992 C1998 0.930 . S
H1993 C2001 0.930 . S
H1994 C2002 0.930 . S
H1995 C2003 0.930 . S
H1996 C2006 0.930 . S
H1997 C2007 0.930 . S
C1998 H1992 0.930 . S
C1998 C1999 1.355 . S
C1998 C2000 1.415 . S
C1999 C1998 1.355 . S
C1999 C2001 1.419 . S
C2000 C1998 1.415 . S
C2000 C2005 1.425 . S
C2000 C2007 1.409 . S
C2001 H1993 0.930 . S
C2001 C1999 1.419 . S
C2001 C2002 1.362 . S
C2002 H1994 0.930 . S
C2002 C2001 1.362 . S
C2002 C2005 1.409 . S
C2003 H1995 0.930 . S
C2003 C2004 1.355 . S
C2003 C2005 1.415 . S
C2004 C2003 1.355 . S
C2004 C2006 1.419 . S
C2005 C2000 1.425 . S
C2005 C2002 1.409 . S
C2005 C2003 1.415 . S
C2006 H1996 0.930 . S
C2006 C2004 1.419 . S
C2006 C2007 1.362 . S
C2007 H1997 0.930 . S
C2007 C2000 1.409 . S
C2007 C2006 1.362 . S
H2008 C2014 0.930 . S
H2009 C2017 0.930 . S
H2010 C2018 0.930 . S
H2011 C2019 0.930 . S
H2012 C2022 0.930 . S
H2013 C2023 0.930 . S
C2014 H2008 0.930 . S
C2014 C2015 1.355 . S
C2014 C2016 1.415 . S
C2015 C2014 1.355 . S
C2015 C2017 1.419 . S
C2016 C2014 1.415 . S
C2016 C2021 1.425 . S
C2016 C2023 1.409 . S
C2017 H2009 0.930 . S
C2017 C2015 1.419 . S
C2017 C2018 1.362 . S
C2018 H2010 0.930 . S
C2018 C2017 1.362 . S
C2018 C2021 1.409 . S
C2019 H2011 0.930 . S
C2019 C2020 1.355 . S
C2019 C2021 1.415 . S
C2020 C2019 1.355 . S
C2020 C2022 1.419 . S
C2021 C2016 1.425 . S
C2021 C2018 1.409 . S
C2021 C2019 1.415 . S
C2022 H2012 0.930 . S
C2022 C2020 1.419 . S
C2022 C2023 1.362 . S
C2023 H2013 0.930 . S
C2023 C2016 1.409 . S
C2023 C2022 1.362 . S
H2024 C2030 0.930 . S
H2025 C2033 0.930 . S
H2026 C2034 0.930 . S
H2027 C2035 0.930 . S
H2028 C2038 0.930 . S
H2029 C2039 0.930 . S
C2030 H2024 0.930 . S
C2030 C2031 1.355 . S
C2030 C2032 1.415 . S
C2031 C2030 1.355 . S
C2031 C2033 1.419 . S
C2032 C2030 1.415 . S
C2032 C2037 1.425 . S
C2032 C2039 1.409 . S
C2033 H2025 0.930 . S
C2033 C2031 1.419 . S
C2033 C2034 1.362 . S
C2034 H2026 0.930 . S
C2034 C2033 1.362 . S
C2034 C2037 1.409 . S
C2035 H2027 0.930 . S
C2035 C2036 1.355 . S
C2035 C2037 1.415 . S
C2036 C2035 1.355 . S
C2036 C2038 1.419 . S
C2037 C2032 1.425 . S
C2037 C2034 1.409 . S
C2037 C2035 1.415 . S
C2038 H2028 0.930 . S
C2038 C2036 1.419 . S
C2038 C2039 1.362 . S
C2039 H2029 0.930 . S
C2039 C2032 1.409 . S
C2039 C2038 1.362 . S
H2040 C2046 0.930 . S
H2041 C2049 0.930 . S
H2042 C2050 0.930 . S
H2043 C2051 0.930 . S
H2044 C2054 0.930 . S
H2045 C2055 0.930 . S
C2046 H2040 0.930 . S
C2046 C2047 1.355 . S
C2046 C2048 1.415 . S
C2047 C2046 1.355 . S
C2047 C2049 1.419 . S
C2048 C2046 1.415 . S
C2048 C2053 1.425 . S
C2048 C2055 1.409 . S
C2049 H2041 0.930 . S
C2049 C2047 1.419 . S
C2049 C2050 1.362 . S
C2050 H2042 0.930 . S
C2050 C2049 1.362 . S
C2050 C2053 1.409 . S
C2051 H2043 0.930 . S
C2051 C2052 1.355 . S
C2051 C2053 1.415 . S
C2052 C2051 1.355 . S
C2052 C2054 1.419 . S
C2053 C2048 1.425 . S
C2053 C2050 1.409 . S
C2053 C2051 1.415 . S
C2054 H2044 0.930 . S
C2054 C2052 1.419 . S
C2054 C2055 1.362 . S
C2055 H2045 0.930 . S
C2055 C2048 1.409 . S
C2055 C2054 1.362 . S
H2056 C2062 0.930 . S
H2057 C2065 0.930 . S
H2058 C2066 0.930 . S
H2059 C2067 0.930 . S
H2060 C2070 0.930 . S
H2061 C2071 0.930 . S
C2062 H2056 0.930 . S
C2062 C2063 1.355 . S
C2062 C2064 1.415 . S
C2063 C2062 1.355 . S
C2063 C2065 1.419 . S
C2064 C2062 1.415 . S
C2064 C2069 1.425 . S
C2064 C2071 1.409 . S
C2065 H2057 0.930 . S
C2065 C2063 1.419 . S
C2065 C2066 1.362 . S
C2066 H2058 0.930 . S
C2066 C2065 1.362 . S
C2066 C2069 1.409 . S
C2067 H2059 0.930 . S
C2067 C2068 1.355 . S
C2067 C2069 1.415 . S
C2068 C2067 1.355 . S
C2068 C2070 1.419 . S
C2069 C2064 1.425 . S
C2069 C2066 1.409 . S
C2069 C2067 1.415 . S
C2070 H2060 0.930 . S
C2070 C2068 1.419 . S
C2070 C2071 1.362 . S
C2071 H2061 0.930 . S
C2071 C2064 1.409 . S
C2071 C2070 1.362 . S
H2072 C2078 0.930 . S
H2073 C2081 0.930 . S
H2074 C2082 0.930 . S
H2075 C2083 0.930 . S
H2076 C2086 0.930 . S
H2077 C2087 0.930 . S
C2078 H2072 0.930 . S
C2078 C2079 1.355 . S
C2078 C2080 1.415 . S
C2079 C2078 1.355 . S
C2079 C2081 1.419 . S
C2080 C2078 1.415 . S
C2080 C2085 1.425 . S
C2080 C2087 1.409 . S
C2081 H2073 0.930 . S
C2081 C2079 1.419 . S
C2081 C2082 1.362 . S
C2082 H2074 0.930 . S
C2082 C2081 1.362 . S
C2082 C2085 1.409 . S
C2083 H2075 0.930 . S
C2083 C2084 1.355 . S
C2083 C2085 1.415 . S
C2084 C2083 1.355 . S
C2084 C2086 1.419 . S
C2085 C2080 1.425 . S
C2085 C2082 1.409 . S
C2085 C2083 1.415 . S
C2086 H2076 0.930 . S
C2086 C2084 1.419 . S
C2086 C2087 1.362 . S
C2087 H2077 0.930 . S
C2087 C2080 1.409 . S
C2087 C2086 1.362 . S
H2088 C2094 0.930 . S
H2089 C2097 0.930 . S
H2090 C2098 0.930 . S
H2091 C2099 0.930 . S
H2092 C2102 0.930 . S
H2093 C2103 0.930 . S
C2094 H2088 0.930 . S
C2094 C2095 1.355 . S
C2094 C2096 1.415 . S
C2095 C2094 1.355 . S
C2095 C2097 1.419 . S
C2096 C2094 1.415 . S
C2096 C2101 1.425 . S
C2096 C2103 1.409 . S
C2097 H2089 0.930 . S
C2097 C2095 1.419 . S
C2097 C2098 1.362 . S
C2098 H2090 0.930 . S
C2098 C2097 1.362 . S
C2098 C2101 1.409 . S
C2099 H2091 0.930 . S
C2099 C2100 1.355 . S
C2099 C2101 1.415 . S
C2100 C2099 1.355 . S
C2100 C2102 1.419 . S
C2101 C2096 1.425 . S
C2101 C2098 1.409 . S
C2101 C2099 1.415 . S
C2102 H2092 0.930 . S
C2102 C2100 1.419 . S
C2102 C2103 1.362 . S
C2103 H2093 0.930 . S
C2103 C2096 1.409 . S
C2103 C2102 1.362 . S
H2104 C2110 0.930 . S
H2105 C2113 0.930 . S
H2106 C2114 0.930 . S
H2107 C2115 0.930 . S
H2108 C2118 0.930 . S
H2109 C2119 0.930 . S
C2110 H2104 0.930 . S
C2110 C2111 1.355 . S
C2110 C2112 1.415 . S
C2111 C2110 1.355 . S
C2111 C2113 1.419 . S
C2112 C2110 1.415 . S
C2112 C2117 1.425 . S
C2112 C2119 1.409 . S
C2113 H2105 0.930 . S
C2113 C2111 1.419 . S
C2113 C2114 1.362 . S
C2114 H2106 0.930 . S
C2114 C2113 1.362 . S
C2114 C2117 1.409 . S
C2115 H2107 0.930 . S
C2115 C2116 1.355 . S
C2115 C2117 1.415 . S
C2116 C2115 1.355 . S
C2116 C2118 1.419 . S
C2117 C2112 1.425 . S
C2117 C2114 1.409 . S
C2117 C2115 1.415 . S
C2118 H2108 0.930 . S
C2118 C2116 1.419 . S
C2118 C2119 1.362 . S
C2119 H2109 0.930 . S
C2119 C2112 1.409 . S
C2119 C2118 1.362 . S
H2120 C2126 0.930 . S
H2121 C2129 0.930 . S
H2122 C2130 0.930 . S
H2123 C2131 0.930 . S
H2124 C2134 0.930 . S
H2125 C2135 0.930 . S
C2126 H2120 0.930 . S
C2126 C2127 1.355 . S
C2126 C2128 1.415 . S
C2127 C2126 1.355 . S
C2127 C2129 1.419 . S
C2128 C2126 1.415 . S
C2128 C2133 1.425 . S
C2128 C2135 1.409 . S
C2129 H2121 0.930 . S
C2129 C2127 1.419 . S
C2129 C2130 1.362 . S
C2130 H2122 0.930 . S
C2130 C2129 1.362 . S
C2130 C2133 1.409 . S
C2131 H2123 0.930 . S
C2131 C2132 1.355 . S
C2131 C2133 1.415 . S
C2132 C2131 1.355 . S
C2132 C2134 1.419 . S
C2133 C2128 1.425 . S
C2133 C2130 1.409 . S
C2133 C2131 1.415 . S
C2134 H2124 0.930 . S
C2134 C2132 1.419 . S
C2134 C2135 1.362 . S
C2135 H2125 0.930 . S
C2135 C2128 1.409 . S
C2135 C2134 1.362 . S
H2136 C2142 0.930 . S
H2137 C2145 0.930 . S
H2138 C2146 0.930 . S
H2139 C2147 0.930 . S
H2140 C2150 0.930 . S
H2141 C2151 0.930 . S
C2142 H2136 0.930 . S
C2142 C2143 1.355 . S
C2142 C2144 1.415 . S
C2143 C2142 1.355 . S
C2143 C2145 1.419 . S
C2144 C2142 1.415 . S
C2144 C2149 1.425 . S
C2144 C2151 1.409 . S
C2145 H2137 0.930 . S
C2145 C2143 1.419 . S
C2145 C2146 1.362 . S
C2146 H2138 0.930 . S
C2146 C2145 1.362 . S
C2146 C2149 1.409 . S
C2147 H2139 0.930 . S
C2147 C2148 1.355 . S
C2147 C2149 1.415 . S
C2148 C2147 1.355 . S
C2148 C2150 1.419 . S
C2149 C2144 1.425 . S
C2149 C2146 1.409 . S
C2149 C2147 1.415 . S
C2150 H2140 0.930 . S
C2150 C2148 1.419 . S
C2150 C2151 1.362 . S
C2151 H2141 0.930 . S
C2151 C2144 1.409 . S
C2151 C2150 1.362 . S
H2152 C2158 0.930 . S
H2153 C2161 0.930 . S
H2154 C2162 0.930 . S
H2155 C2163 0.930 . S
H2156 C2166 0.930 . S
H2157 C2167 0.930 . S
C2158 H2152 0.930 . S
C2158 C2159 1.355 . S
C2158 C2160 1.415 . S
C2159 C2158 1.355 . S
C2159 C2161 1.419 . S
C2160 C2158 1.415 . S
C2160 C2165 1.425 . S
C2160 C2167 1.409 . S
C2161 H2153 0.930 . S
C2161 C2159 1.419 . S
C2161 C2162 1.362 . S
C2162 H2154 0.930 . S
C2162 C2161 1.362 . S
C2162 C2165 1.409 . S
C2163 H2155 0.930 . S
C2163 C2164 1.355 . S
C2163 C2165 1.415 . S
C2164 C2163 1.355 . S
C2164 C2166 1.419 . S
C2165 C2160 1.425 . S
C2165 C2162 1.409 . S
C2165 C2163 1.415 . S
C2166 H2156 0.930 . S
C2166 C2164 1.419 . S
C2166 C2167 1.362 . S
C2167 H2157 0.930 . S
C2167 C2160 1.409 . S
C2167 C2166 1.362 . S
H2168 C2174 0.930 . S
H2169 C2177 0.930 . S
H2170 C2178 0.930 . S
H2171 C2179 0.930 . S
H2172 C2182 0.930 . S
H2173 C2183 0.930 . S
C2174 H2168 0.930 . S
C2174 C2175 1.355 . S
C2174 C2176 1.415 . S
C2175 C2174 1.355 . S
C2175 C2177 1.419 . S
C2176 C2174 1.415 . S
C2176 C2181 1.425 . S
C2176 C2183 1.409 . S
C2177 H2169 0.930 . S
C2177 C2175 1.419 . S
C2177 C2178 1.362 . S
C2178 H2170 0.930 . S
C2178 C2177 1.362 . S
C2178 C2181 1.409 . S
C2179 H2171 0.930 . S
C2179 C2180 1.355 . S
C2179 C2181 1.415 . S
C2180 C2179 1.355 . S
C2180 C2182 1.419 . S
C2181 C2176 1.425 . S
C2181 C2178 1.409 . S
C2181 C2179 1.415 . S
C2182 H2172 0.930 . S
C2182 C2180 1.419 . S
C2182 C2183 1.362 . S
C2183 H2173 0.930 . S
C2183 C2176 1.409 . S
C2183 C2182 1.362 . S
C1423 C890 1.412 . S
C1428 C3 1.409 . S
C1439 C711 1.404 . S
C1444 C64 1.416 . S
C1455 C770 1.416 . S
C1460 C121 1.406 . S
C1471 C831 1.406 . S
C1476 C180 1.403 . S
C1487 C829 1.423 . S
C1492 C62 1.404 . S
C1503 C123 1.409 . S
C1508 C888 1.418 . S
C1519 C713 1.403 . S
C1524 C182 1.405 . S
C1535 C772 1.403 . S
C1540 C5 1.411 . S
C1551 C1067 1.407 . S
C1556 C241 1.397 . S
C1567 C298 1.424 . S
C1572 C1124 1.409 . S
C1583 C359 1.402 . S
C1588 C949 1.401 . S
C1599 C1006 1.422 . S
C1604 C416 1.409 . S
C1615 C1301 1.407 . S
C1620 C475 1.426 . S
C1631 C536 1.397 . S
C1636 C1362 1.408 . S
C1647 C593 1.425 . S
C1652 C1183 1.407 . S
C1663 C654 1.400 . S
C1668 C1244 1.404 . S
C1679 C1008 1.404 . S
C1684 C652 1.400 . S
C1695 C1360 1.405 . S
C1700 C300 1.416 . S
C1711 C357 1.418 . S
C1716 C1185 1.409 . S
C1727 C1242 1.398 . S
C1732 C418 1.411 . S
C1743 C1303 1.414 . S
C1748 C239 1.400 . S
C1759 C534 1.405 . S
C1764 C1126 1.416 . S
C1775 C947 1.409 . S
C1780 C595 1.413 . S
C1791 C1065 1.416 . S
C1796 C477 1.408 . S
C1807 C33 1.081 . S
C1812 C269 1.110 . S
C1823 C347 1.105 . S
C1828 C111 1.101 . S
C1839 C151 1.092 . S
C1844 C387 1.095 . S
C1855 C210 1.073 . S
C1860 C465 1.116 . S
C1871 C524 1.093 . S
C1876 C92 1.112 . S
C1887 C564 1.075 . S
C1892 C170 1.115 . S
C1903 C642 1.114 . S
C1908 C229 1.087 . S
C1919 C52 1.095 . S
C1924 C682 1.093 . S
C1935 C701 1.081 . S
C1940 C288 1.113 . S
C1951 C328 1.086 . S
C1956 C505 1.118 . S
C1967 C406 1.108 . S
C1972 C583 1.086 . S
C1983 C623 1.124 . S
C1988 C446 1.076 . S
C1999 C977 1.070 . S
C2004 C760 1.110 . S
C2015 C1055 1.114 . S
C2020 C819 1.090 . S
C2031 C859 1.071 . S
C2036 C1095 1.118 . S
C2047 C918 1.079 . S
C2052 C1173 1.111 . S
C2063 C800 1.105 . S
C2068 C1232 1.101 . S
C2079 C878 1.107 . S
C2084 C1272 1.092 . S
C2095 C1350 1.112 . S
C2100 C937 1.091 . S
C2111 C741 1.111 . S
C2116 C1390 1.081 . S
C2127 C996 1.084 . S
C2132 C1409 1.112 . S
C2143 C1213 1.119 . S
C2148 C1036 1.083 . S
C2159 C1114 1.104 . S
C2164 C1291 1.091 . S
C2175 C1331 1.087 . S
C2180 C1154 1.118 . S
