# Generated by pormake.
# Topology wkc, (5)-cn, num edge types: 1
# Building blocks:
#     Node 0, Type 0, BuildingBlock: XOMCOT_clean_sbu_0, # of connection points: 5
#     Node 1, Type 0, BuildingBlock: XOMCOT_clean_sbu_0, # of connection points: 5
#     Node 2, Type 0, BuildingBlock: XOMCOT_clean_sbu_0, # of connection points: 5
#     Node 3, Type 0, BuildingBlock: XOMCOT_clean_sbu_0, # of connection points: 5
#     Node 4, Type 0, BuildingBlock: XOMCOT_clean_sbu_0, # of connection points: 5
#     Node 5, Type 0, BuildingBlock: XOMCOT_clean_sbu_0, # of connection points: 5
#     Node 6, Type 0, BuildingBlock: XOMCOT_clean_sbu_0, # of connection points: 5
#     Node 7, Type 0, BuildingBlock: XOMCOT_clean_sbu_0, # of connection points: 5
#     Node 8, Type 0, BuildingBlock: XOMCOT_clean_sbu_0, # of connection points: 5
#     Node 9, Type 0, BuildingBlock: XOMCOT_clean_sbu_0, # of connection points: 5
#     Node 10, Type 0, BuildingBlock: XOMCOT_clean_sbu_0, # of connection points: 5
#     Node 11, Type 0, BuildingBlock: XOMCOT_clean_sbu_0, # of connection points: 5
#     Edge 12, Type (0, 0), BuildingBlock: MIFKUJ_clean_linker_0, # of connection points: 2
#     Edge 13, Type (0, 0), BuildingBlock: MIFKUJ_clean_linker_0, # of connection points: 2
#     Edge 14, Type (0, 0), BuildingBlock: MIFKUJ_clean_linker_0, # of connection points: 2
#     Edge 15, Type (0, 0), BuildingBlock: MIFKUJ_clean_linker_0, # of connection points: 2
#     Edge 16, Type (0, 0), BuildingBlock: MIFKUJ_clean_linker_0, # of connection points: 2
#     Edge 17, Type (0, 0), BuildingBlock: MIFKUJ_clean_linker_0, # of connection points: 2
#     Edge 18, Type (0, 0), BuildingBlock: MIFKUJ_clean_linker_0, # of connection points: 2
#     Edge 19, Type (0, 0), BuildingBlock: MIFKUJ_clean_linker_0, # of connection points: 2
#     Edge 20, Type (0, 0), BuildingBlock: MIFKUJ_clean_linker_0, # of connection points: 2
#     Edge 21, Type (0, 0), BuildingBlock: MIFKUJ_clean_linker_0, # of connection points: 2
#     Edge 22, Type (0, 0), BuildingBlock: MIFKUJ_clean_linker_0, # of connection points: 2
#     Edge 23, Type (0, 0), BuildingBlock: MIFKUJ_clean_linker_0, # of connection points: 2
#     Edge 24, Type (0, 0), BuildingBlock: MIFKUJ_clean_linker_0, # of connection points: 2
#     Edge 25, Type (0, 0), BuildingBlock: MIFKUJ_clean_linker_0, # of connection points: 2
#     Edge 26, Type (0, 0), BuildingBlock: MIFKUJ_clean_linker_0, # of connection points: 2
#     Edge 27, Type (0, 0), BuildingBlock: MIFKUJ_clean_linker_0, # of connection points: 2
#     Edge 28, Type (0, 0), BuildingBlock: MIFKUJ_clean_linker_0, # of connection points: 2
#     Edge 29, Type (0, 0), BuildingBlock: MIFKUJ_clean_linker_0, # of connection points: 2
#     Edge 30, Type (0, 0), BuildingBlock: MIFKUJ_clean_linker_0, # of connection points: 2
#     Edge 31, Type (0, 0), BuildingBlock: MIFKUJ_clean_linker_0, # of connection points: 2
#     Edge 32, Type (0, 0), BuildingBlock: MIFKUJ_clean_linker_0, # of connection points: 2
#     Edge 33, Type (0, 0), BuildingBlock: MIFKUJ_clean_linker_0, # of connection points: 2
#     Edge 34, Type (0, 0), BuildingBlock: MIFKUJ_clean_linker_0, # of connection points: 2
#     Edge 35, Type (0, 0), BuildingBlock: MIFKUJ_clean_linker_0, # of connection points: 2
#     Edge 36, Type (0, 0), BuildingBlock: MIFKUJ_clean_linker_0, # of connection points: 2
#     Edge 37, Type (0, 0), BuildingBlock: MIFKUJ_clean_linker_0, # of connection points: 2
#     Edge 38, Type (0, 0), BuildingBlock: MIFKUJ_clean_linker_0, # of connection points: 2
#     Edge 39, Type (0, 0), BuildingBlock: MIFKUJ_clean_linker_0, # of connection points: 2
#     Edge 40, Type (0, 0), BuildingBlock: MIFKUJ_clean_linker_0, # of connection points: 2
#     Edge 41, Type (0, 0), BuildingBlock: MIFKUJ_clean_linker_0, # of connection points: 2
# Relax obj value: 0.255
# Max RMSD: 0.224
# Mean RMSD: 0.224
data_MOF--net-wkc--node1-XOMCOT_clean_sbu_0--edge1-MIFKUJ_clean_linker_0
_symmetry_space_group_name_H-M    P1
_symmetry_Int_Tables_number       1
_symmetry_cell_setting            triclinic
loop_
_symmetry_equiv_pos_as_xyz
'x, y, z'
_cell_length_a     49.323536
_cell_length_b     49.311497
_cell_length_c     58.062779
_cell_angle_alpha  90.00122
_cell_angle_beta   89.980317
_cell_angle_gamma 119.97567
loop_
_atom_site_label
_atom_site_type_symbol
_atom_site_fract_x
_atom_site_fract_y
_atom_site_fract_z
_atom_type_partial_charge
Co0 Co 0.2625 0.42881 0.00745 0.0
C1 C 0.27404 0.38787 0.97549 0.0
C2 C 0.23329 0.39031 0.96633 0.0
C3 C 0.23759 0.37232 0.95018 0.0
N4 N 0.25573 0.39951 0.98258 0.0
N5 N 0.2633 0.37084 0.95595 0.0
H6 H 0.29528 0.39231 0.98386 0.0
H7 H 0.21542 0.39691 0.96593 0.0
C8 C 0.19629 0.37856 0.01385 0.0
O9 O 0.20612 0.35843 0.01105 0.0
N10 N 0.26953 0.45856 0.0316 0.0
C11 C 0.29287 0.46933 0.04714 0.0
C12 C 0.29085 0.49078 0.06103 0.0
C13 C 0.25378 0.47386 0.03601 0.0
N14 N 0.26629 0.49368 0.05408 0.0
C15 C 0.29301 0.39951 0.03034 0.0
C16 C 0.25219 0.37591 0.06716 0.0
C17 C 0.27807 0.37151 0.0665 0.0
C18 C 0.29876 0.38369 0.04788 0.0
C19 C 0.24761 0.39227 0.04942 0.0
N20 N 0.26691 0.40246 0.03059 0.0
H21 H 0.31077 0.41112 0.01742 0.0
H22 H 0.22934 0.39802 0.05154 0.0
H23 H 0.31049 0.46244 0.04805 0.0
H24 H 0.23381 0.4707 0.02611 0.0
O25 O 0.30573 0.45365 0.99842 0.0
O26 O 0.26711 0.45963 0.98467 0.0
O27 O 0.21567 0.408 0.01279 0.0
C28 C 0.29687 0.46871 0.98485 0.0
H29 H 0.22349 0.36211 0.93494 0.0
H30 H 0.30699 0.50408 0.07469 0.0
H31 H 0.23659 0.3683 0.08187 0.0
H32 H 0.31972 0.38183 0.04721 0.0
Co33 Co 0.83178 0.25697 0.16919 0.0
C34 C 0.88772 0.27085 0.1398 0.0
C35 C 0.84393 0.23755 0.12467 0.0
C36 C 0.86739 0.24408 0.10902 0.0
N37 N 0.85656 0.25423 0.14407 0.0
N38 N 0.89486 0.26496 0.11861 0.0
H39 H 0.90495 0.28804 0.15115 0.0
H40 H 0.81912 0.22235 0.12185 0.0
C41 C 0.81594 0.19008 0.16992 0.0
O42 O 0.84577 0.20013 0.16627 0.0
N43 N 0.8065 0.25973 0.19343 0.0
C44 C 0.81669 0.27814 0.21226 0.0
C45 C 0.79116 0.27448 0.22445 0.0
C46 C 0.77501 0.24555 0.19416 0.0
N47 N 0.76502 0.25411 0.21301 0.0
C48 C 0.8893 0.28587 0.19463 0.0
C49 C 0.87151 0.24005 0.22791 0.0
C50 C 0.90101 0.26703 0.22959 0.0
C51 C 0.90977 0.29013 0.21263 0.0
C52 C 0.85171 0.23679 0.20964 0.0
N53 N 0.86113 0.25894 0.19265 0.0
H54 H 0.89559 0.30514 0.18299 0.0
H55 H 0.82816 0.2172 0.21005 0.0
H56 H 0.84097 0.29378 0.21655 0.0
H57 H 0.75981 0.22976 0.18097 0.0
O58 O 0.84953 0.30119 0.16361 0.0
O59 O 0.80697 0.26394 0.14651 0.0
O60 O 0.80618 0.2097 0.17108 0.0
C61 C 0.82668 0.29368 0.14923 0.0
H62 H 0.86448 0.23448 0.09184 0.0
H63 H 0.79179 0.2869 0.24 0.0
H64 H 0.86338 0.22191 0.24092 0.0
H65 H 0.93162 0.3121 0.21383 0.0
Co66 Co 0.57794 0.82875 0.32721 0.0
C67 C 0.62055 0.88177 0.29614 0.0
C68 C 0.61094 0.83701 0.28352 0.0
C69 C 0.62849 0.85935 0.26729 0.0
N70 N 0.60621 0.85103 0.30179 0.0
N71 N 0.6345 0.8875 0.27526 0.0
H72 H 0.61955 0.89953 0.30623 0.0
H73 H 0.60149 0.81203 0.28186 0.0
C74 C 0.62722 0.81049 0.33015 0.0
O75 O 0.64766 0.83943 0.32441 0.0
N76 N 0.5491 0.80622 0.35183 0.0
C77 C 0.5388 0.81851 0.36796 0.0
C78 C 0.51673 0.79457 0.38125 0.0
C79 C 0.53307 0.77501 0.35533 0.0
N80 N 0.51305 0.76717 0.37333 0.0
C81 C 0.60724 0.88782 0.35099 0.0
C82 C 0.63347 0.87053 0.38595 0.0
C83 C 0.63571 0.89997 0.38705 0.0
C84 C 0.62251 0.90858 0.3691 0.0
C85 C 0.61759 0.85034 0.36773 0.0
N86 N 0.60554 0.85933 0.35 0.0
H87 H 0.59496 0.89401 0.33861 0.0
H88 H 0.61337 0.82675 0.36895 0.0
H89 H 0.54609 0.84307 0.3695 0.0
H90 H 0.53565 0.75847 0.34464 0.0
O91 O 0.55317 0.8476 0.31906 0.0
O92 O 0.54596 0.80266 0.30504 0.0
O93 O 0.59816 0.80206 0.3317 0.0
C94 C 0.53731 0.82365 0.30568 0.0
H95 H 0.63586 0.85511 0.25078 0.0
H96 H 0.50343 0.79716 0.39504 0.0
H97 H 0.64286 0.86253 0.3995 0.0
H98 H 0.62231 0.93043 0.36964 0.0
Co99 Co 0.74524 0.58058 0.50044 0.0
C100 C 0.74118 0.62692 0.47148 0.0
C101 C 0.78409 0.627 0.46514 0.0
C102 C 0.78193 0.64735 0.44989 0.0
N103 N 0.75849 0.61432 0.47861 0.0
N104 N 0.75478 0.64714 0.45381 0.0
H105 H 0.71865 0.62063 0.47883 0.0
H106 H 0.80233 0.62093 0.46571 0.0
C107 C 0.79925 0.59773 0.53167 0.0
O108 O 0.77866 0.5869 0.54849 0.0
N109 N 0.73107 0.54558 0.52178 0.0
C110 C 0.70368 0.53063 0.53335 0.0
C111 C 0.70069 0.50394 0.54314 0.0
C112 C 0.74389 0.52705 0.52428 0.0
N113 N 0.72592 0.50166 0.53741 0.0
C114 C 0.70882 0.59827 0.52898 0.0
C115 C 0.75873 0.65035 0.54851 0.0
C116 C 0.72861 0.63984 0.55725 0.0
C117 C 0.7033 0.61421 0.54656 0.0
C118 C 0.76307 0.63371 0.53081 0.0
N119 N 0.7386 0.60626 0.52284 0.0
H120 H 0.68902 0.57936 0.52043 0.0
H121 H 0.78627 0.64287 0.52377 0.0
H122 H 0.68585 0.53706 0.53379 0.0
H123 H 0.76525 0.53138 0.51582 0.0
O124 O 0.70452 0.55987 0.48612 0.0
O125 O 0.74417 0.55307 0.47625 0.0
O126 O 0.79012 0.59754 0.51098 0.0
C127 C 0.71516 0.54578 0.47314 0.0
H128 H 0.79846 0.66014 0.43631 0.0
H129 H 0.68103 0.48709 0.55329 0.0
H130 H 0.77878 0.67111 0.55537 0.0
H131 H 0.67947 0.60584 0.55215 0.0
Co132 Co 0.17414 0.75117 0.66649 0.0
C133 C 0.12045 0.74023 0.63654 0.0
C134 C 0.16008 0.78578 0.63131 0.0
C135 C 0.13695 0.78175 0.61608 0.0
N136 N 0.14938 0.76015 0.64481 0.0
N137 N 0.11201 0.75302 0.61938 0.0
H138 H 0.10634 0.71628 0.64198 0.0
H139 H 0.18356 0.80566 0.63182 0.0
C140 C 0.19084 0.81596 0.67894 0.0
O141 O 0.16055 0.80552 0.67896 0.0
N142 N 0.19884 0.7416 0.68717 0.0
C143 C 0.18767 0.71539 0.69991 0.0
C144 C 0.21202 0.71607 0.71181 0.0
C145 C 0.22991 0.75789 0.69131 0.0
N146 N 0.23862 0.74282 0.70651 0.0
C147 C 0.11582 0.72265 0.69218 0.0
C148 C 0.14133 0.75628 0.73217 0.0
C149 C 0.10949 0.73382 0.73179 0.0
C150 C 0.0967 0.71688 0.71146 0.0
C151 C 0.15948 0.76137 0.71254 0.0
N152 N 0.14655 0.74559 0.69246 0.0
H153 H 0.10617 0.70735 0.67764 0.0
H154 H 0.18432 0.77753 0.71376 0.0
H155 H 0.16347 0.69687 0.70028 0.0
H156 H 0.24565 0.78016 0.68335 0.0
O157 O 0.15399 0.70865 0.65551 0.0
O158 O 0.19738 0.74802 0.64074 0.0
O159 O 0.20119 0.79754 0.67369 0.0
C160 C 0.17643 0.71833 0.64043 0.0
H161 H 0.1389 0.79818 0.60292 0.0
H162 H 0.21027 0.69775 0.72303 0.0
H163 H 0.15232 0.76952 0.74764 0.0
H164 H 0.07249 0.69831 0.7108 0.0
Co165 Co 0.42785 0.16973 0.83824 0.0
C166 C 0.38202 0.12035 0.80633 0.0
C167 C 0.3982 0.16689 0.79396 0.0
C168 C 0.38037 0.14605 0.77697 0.0
N169 N 0.39928 0.15082 0.81243 0.0
N170 N 0.37023 0.11687 0.78488 0.0
H171 H 0.37942 0.10095 0.81645 0.0
H172 H 0.41075 0.19213 0.79255 0.0
C173 C 0.38222 0.19253 0.8427 0.0
O174 O 0.36047 0.16457 0.83599 0.0
N175 N 0.45709 0.18895 0.8632 0.0
C176 C 0.46512 0.17413 0.87892 0.0
C177 C 0.48938 0.1962 0.89197 0.0
C178 C 0.47657 0.21978 0.86677 0.0
N179 N 0.49667 0.22487 0.88424 0.0
C180 C 0.39557 0.10932 0.85978 0.0
C181 C 0.37086 0.12614 0.89611 0.0
C182 C 0.36727 0.09616 0.89581 0.0
C183 C 0.37961 0.08772 0.87726 0.0
C184 C 0.38735 0.14719 0.87842 0.0
N185 N 0.39879 0.13851 0.86008 0.0
H186 H 0.40697 0.10301 0.84674 0.0
H187 H 0.39273 0.17105 0.8806 0.0
H188 H 0.45488 0.14903 0.88028 0.0
H189 H 0.4771 0.23796 0.85599 0.0
O190 O 0.45015 0.1488 0.82857 0.0
O191 O 0.46063 0.19566 0.81653 0.0
O192 O 0.41064 0.19874 0.84443 0.0
C193 C 0.46715 0.17313 0.8158 0.0
H194 H 0.37585 0.15185 0.75995 0.0
H195 H 0.5012 0.19144 0.90574 0.0
H196 H 0.36285 0.13398 0.91068 0.0
H197 H 0.37798 0.06499 0.87669 0.0
Co198 Co 0.57516 0.74089 0.82281 0.0
C199 C 0.61751 0.73285 0.85388 0.0
C200 C 0.62875 0.7809 0.85338 0.0
C201 C 0.64944 0.77813 0.86792 0.0
N202 N 0.6089 0.75245 0.84454 0.0
N203 N 0.64205 0.74785 0.86828 0.0
H204 H 0.60642 0.70814 0.84989 0.0
H205 H 0.62835 0.80215 0.84953 0.0
C206 C 0.59778 0.79526 0.7911 0.0
O207 O 0.58836 0.77455 0.77437 0.0
N208 N 0.54027 0.72876 0.80158 0.0
C209 C 0.51971 0.69963 0.79403 0.0
C210 C 0.49509 0.70006 0.78332 0.0
C211 C 0.52692 0.74613 0.79603 0.0
N212 N 0.49979 0.72933 0.7845 0.0
C213 C 0.58783 0.70302 0.79164 0.0
C214 C 0.64583 0.75015 0.77729 0.0
C215 C 0.63267 0.72086 0.76651 0.0
C216 C 0.60375 0.69681 0.77446 0.0
C217 C 0.62916 0.75521 0.79458 0.0
N218 N 0.59943 0.7325 0.80026 0.0
H219 H 0.56636 0.68394 0.79812 0.0
H220 H 0.63994 0.77774 0.80301 0.0
H221 H 0.52061 0.67869 0.79766 0.0
H222 H 0.53572 0.77003 0.8016 0.0
O223 O 0.55294 0.70014 0.83689 0.0
O224 O 0.54841 0.74098 0.84729 0.0
O225 O 0.59439 0.78609 0.81211 0.0
C226 C 0.53995 0.71157 0.85021 0.0
H227 H 0.66817 0.7968 0.87766 0.0
H228 H 0.47461 0.68009 0.77608 0.0
H229 H 0.66875 0.769 0.77237 0.0
H230 H 0.5931 0.67353 0.76712 0.0
Co231 Co 0.83843 0.5762 0.98739 0.0
C232 C 0.88806 0.62156 0.0176 0.0
C233 C 0.84389 0.6182 0.02532 0.0
C234 C 0.86563 0.63754 0.04137 0.0
N235 N 0.85807 0.60824 0.01052 0.0
N236 N 0.89334 0.63957 0.03643 0.0
H237 H 0.90521 0.61677 0.00989 0.0
H238 H 0.81924 0.61087 0.02503 0.0
C239 C 0.8043 0.59642 0.95616 0.0
O240 O 0.81556 0.58693 0.93946 0.0
N241 N 0.81801 0.54288 0.96473 0.0
C242 C 0.83025 0.5298 0.95082 0.0
C243 C 0.80631 0.5047 0.93963 0.0
C244 C 0.78668 0.52485 0.96219 0.0
N245 N 0.77888 0.50158 0.94676 0.0
C246 C 0.89376 0.59503 0.96024 0.0
C247 C 0.89883 0.6496 0.94306 0.0
C248 C 0.91895 0.63952 0.93469 0.0
C249 C 0.91702 0.61249 0.94416 0.0
C250 C 0.87615 0.63153 0.95942 0.0
N251 N 0.87195 0.6031 0.96619 0.0
H252 H 0.89329 0.57483 0.9678 0.0
H253 H 0.86187 0.64043 0.96645 0.0
H254 H 0.85453 0.53654 0.94938 0.0
H255 H 0.77002 0.52868 0.97169 0.0
O256 O 0.85754 0.55414 0.00079 0.0
O257 O 0.81108 0.54708 0.01072 0.0
O258 O 0.81137 0.59444 0.97712 0.0
C259 C 0.83259 0.53934 0.0134 0.0
H260 H 0.86127 0.64874 0.0558 0.0
H261 H 0.80898 0.48909 0.92795 0.0
H262 H 0.90063 0.67123 0.93703 0.0
H263 H 0.93274 0.60435 0.93872 0.0
Co264 Co 0.25486 0.83357 0.15988 0.0
C265 C 0.26523 0.88731 0.18998 0.0
C266 C 0.22341 0.8448 0.19862 0.0
C267 C 0.22729 0.86751 0.2142 0.0
N268 N 0.24678 0.85734 0.18301 0.0
N269 N 0.25368 0.89426 0.20878 0.0
H270 H 0.28725 0.90352 0.1822 0.0
H271 H 0.20531 0.82043 0.19913 0.0
C272 C 0.18896 0.81725 0.15068 0.0
O273 O 0.19859 0.8472 0.1532 0.0
N274 N 0.26313 0.80935 0.13767 0.0
C275 C 0.28359 0.8204 0.11998 0.0
C276 C 0.28371 0.79562 0.10918 0.0
C277 C 0.25172 0.77812 0.13781 0.0
N278 N 0.26385 0.76921 0.1205 0.0
C279 C 0.28706 0.8924 0.13575 0.0
C280 C 0.24797 0.87443 0.09788 0.0
C281 C 0.27397 0.90464 0.09851 0.0
C282 C 0.29379 0.9135 0.11767 0.0
C283 C 0.24235 0.85395 0.11619 0.0
N284 N 0.26086 0.86344 0.13545 0.0
H285 H 0.30406 0.89889 0.1493 0.0
H286 H 0.22397 0.82997 0.1142 0.0
H287 H 0.29802 0.84482 0.11549 0.0
H288 H 0.23525 0.76233 0.15044 0.0
O289 O 0.29743 0.85208 0.17055 0.0
O290 O 0.25759 0.80842 0.18443 0.0
O291 O 0.20839 0.80737 0.15302 0.0
C292 C 0.28739 0.82886 0.18496 0.0
H293 H 0.21256 0.86414 0.22899 0.0
H294 H 0.29812 0.79696 0.09466 0.0
H295 H 0.23297 0.86615 0.08285 0.0
H296 H 0.31473 0.93631 0.11847 0.0
Co297 Co 0.4278 0.25718 0.32747 0.0
C298 C 0.38712 0.27017 0.35855 0.0
C299 C 0.39307 0.23249 0.37071 0.0
C300 C 0.37582 0.2381 0.38672 0.0
N301 N 0.39971 0.25221 0.35277 0.0
N302 N 0.37211 0.26185 0.37903 0.0
H303 H 0.3902 0.29008 0.34888 0.0
H304 H 0.40086 0.21559 0.37226 0.0
C305 C 0.37827 0.18967 0.32491 0.0
O306 O 0.35765 0.19834 0.32963 0.0
N307 N 0.4564 0.26239 0.30294 0.0
C308 C 0.46482 0.28257 0.28516 0.0
C309 C 0.48613 0.27944 0.2718 0.0
C310 C 0.47303 0.24764 0.30045 0.0
N311 N 0.4913 0.25756 0.28147 0.0
C312 C 0.39857 0.2866 0.30344 0.0
C313 C 0.37215 0.24291 0.26857 0.0
C314 C 0.36999 0.27011 0.26761 0.0
C315 C 0.38318 0.29196 0.28544 0.0
C316 C 0.38799 0.23855 0.28686 0.0
N317 N 0.40017 0.25976 0.30452 0.0
H318 H 0.4111 0.30527 0.31558 0.0
H319 H 0.39224 0.21918 0.28575 0.0
H320 H 0.45645 0.2988 0.28227 0.0
H321 H 0.47191 0.23021 0.31235 0.0
O322 O 0.4529 0.30099 0.33477 0.0
O323 O 0.45971 0.26352 0.34983 0.0
O324 O 0.40737 0.2102 0.32378 0.0
C325 C 0.46861 0.2932 0.34855 0.0
H326 H 0.36697 0.22577 0.40284 0.0
H327 H 0.49777 0.293 0.2566 0.0
H328 H 0.36344 0.22611 0.25459 0.0
H329 H 0.38271 0.31369 0.28502 0.0
Co330 Co 0.16993 0.42972 0.48932 0.0
C331 C 0.1164 0.38793 0.52007 0.0
C332 C 0.1586 0.38822 0.52912 0.0
C333 C 0.13559 0.36953 0.54459 0.0
N334 N 0.14636 0.39905 0.51324 0.0
N335 N 0.10907 0.36945 0.53889 0.0
H336 H 0.10037 0.39388 0.51214 0.0
H337 H 0.18285 0.39412 0.52976 0.0
C338 C 0.18735 0.38064 0.48233 0.0
O339 O 0.15735 0.36027 0.48444 0.0
N340 N 0.19349 0.4609 0.46623 0.0
C341 C 0.18132 0.4725 0.45101 0.0
C342 C 0.20535 0.49623 0.43887 0.0
C343 C 0.22481 0.47775 0.46327 0.0
N344 N 0.23267 0.49965 0.44662 0.0
C345 C 0.11123 0.39964 0.4647 0.0
C346 C 0.13233 0.38026 0.42761 0.0
C347 C 0.10137 0.37412 0.42754 0.0
C348 C 0.09092 0.38415 0.44641 0.0
C349 C 0.15185 0.39603 0.44614 0.0
N350 N 0.14089 0.40417 0.46504 0.0
H351 H 0.10359 0.40981 0.47775 0.0
H352 H 0.17623 0.40279 0.44472 0.0
H353 H 0.15668 0.46474 0.44927 0.0
H354 H 0.24144 0.47497 0.47371 0.0
O355 O 0.15025 0.45342 0.49829 0.0
O356 O 0.19439 0.45952 0.51313 0.0
O357 O 0.19701 0.40996 0.48418 0.0
C358 C 0.17338 0.46816 0.51257 0.0
H359 H 0.13847 0.35784 0.55938 0.0
H360 H 0.20289 0.51021 0.42555 0.0
H361 H 0.14175 0.37362 0.41323 0.0
H362 H 0.06776 0.38149 0.44656 0.0
Co363 Co 0.73858 0.16535 0.64986 0.0
C364 C 0.72674 0.11317 0.68169 0.0
C365 C 0.77174 0.15332 0.68764 0.0
C366 C 0.76723 0.13054 0.70343 0.0
N367 N 0.74685 0.142 0.67331 0.0
N368 N 0.73882 0.10543 0.69967 0.0
H369 H 0.70314 0.09848 0.67565 0.0
H370 H 0.79147 0.17689 0.6872 0.0
C371 C 0.80547 0.18454 0.64092 0.0
O372 O 0.79703 0.15478 0.64276 0.0
N373 N 0.72958 0.18851 0.62731 0.0
C374 C 0.70586 0.17595 0.61206 0.0
C375 C 0.70455 0.19977 0.60083 0.0
C376 C 0.74236 0.21981 0.6253 0.0
N377 N 0.72734 0.22731 0.60924 0.0
C378 C 0.71077 0.10615 0.62579 0.0
C379 C 0.74858 0.12821 0.58727 0.0
C380 C 0.72466 0.09683 0.58772 0.0
C381 C 0.70559 0.0859 0.60735 0.0
C382 C 0.7527 0.14769 0.60594 0.0
N383 N 0.7348 0.1364 0.62539 0.0
H384 H 0.69412 0.09787 0.63964 0.0
H385 H 0.7696 0.17227 0.60423 0.0
H386 H 0.68997 0.15115 0.6098 0.0
H387 H 0.76109 0.23658 0.63616 0.0
O388 O 0.69547 0.14519 0.65978 0.0
O389 O 0.73379 0.1896 0.6741 0.0
O390 O 0.78509 0.19315 0.64361 0.0
C391 C 0.70425 0.1683 0.67417 0.0
H392 H 0.78297 0.13273 0.71722 0.0
H393 H 0.68767 0.19699 0.5878 0.0
H394 H 0.7637 0.13797 0.57242 0.0
H395 H 0.68584 0.06229 0.60809 0.0
H396 H 0.32463 0.1876 0.84021 0.0
H397 H 0.30761 0.22142 0.85796 0.0
H398 H 0.40097 0.28159 0.88374 0.0
H399 H 0.41821 0.24755 0.86616 0.0
H400 H 0.35757 0.26785 0.91701 0.0
H401 H 0.37244 0.30531 0.83953 0.0
H402 H 0.36654 0.30118 0.7973 0.0
H403 H 0.26701 0.26034 0.80428 0.0
H404 H 0.27226 0.26381 0.84658 0.0
H405 H 0.32425 0.38506 0.95604 0.0
H406 H 0.34674 0.35761 0.93572 0.0
H407 H 0.25628 0.29365 0.90693 0.0
H408 H 0.2335 0.32083 0.92737 0.0
H409 H 0.30133 0.3123 0.8747 0.0
H410 H 0.28599 0.27209 0.95188 0.0
H411 H 0.29133 0.27551 0.99417 0.0
H412 H 0.39131 0.32093 0.98774 0.0
H413 H 0.38658 0.31817 0.94538 0.0
C414 C 0.34169 0.20818 0.84944 0.0
C415 C 0.37282 0.21483 0.85171 0.0
C416 C 0.33191 0.2276 0.85954 0.0
C417 C 0.35303 0.25423 0.87207 0.0
C418 C 0.38425 0.2612 0.87413 0.0
C419 C 0.39411 0.2418 0.86396 0.0
C420 C 0.34206 0.27393 0.88373 0.0
C421 C 0.34579 0.27806 0.90768 0.0
C422 C 0.32598 0.28663 0.87169 0.0
C423 C 0.32273 0.28458 0.84624 0.0
C424 C 0.34927 0.29522 0.83207 0.0
C425 C 0.34604 0.29304 0.80811 0.0
C426 C 0.31641 0.28044 0.79811 0.0
C427 C 0.28995 0.27006 0.81205 0.0
C428 C 0.29304 0.27217 0.83602 0.0
C429 C 0.30899 0.36499 0.9456 0.0
C430 C 0.27691 0.35509 0.94353 0.0
C431 C 0.32196 0.34934 0.9339 0.0
C432 C 0.30317 0.32332 0.91997 0.0
C433 C 0.27129 0.31369 0.91755 0.0
C434 C 0.25829 0.32933 0.92923 0.0
C435 C 0.31664 0.30602 0.90799 0.0
C436 C 0.31333 0.30229 0.88399 0.0
C437 C 0.33305 0.29363 0.91999 0.0
C438 C 0.33594 0.29523 0.94546 0.0
C439 C 0.30913 0.28304 0.95948 0.0
C440 C 0.31204 0.28482 0.98346 0.0
C441 C 0.34165 0.29851 0.99363 0.0
C442 C 0.3684 0.31038 0.97984 0.0
C443 C 0.36562 0.30869 0.95584 0.0
H444 H 0.34385 0.29986 0.0122 0.0
H445 H 0.31397 0.27878 0.77956 0.0
H446 H 0.15274 0.39392 0.99995 0.0
H447 H 0.10036 0.37489 0.01618 0.0
H448 H 0.11809 0.32121 0.06664 0.0
H449 H 0.16907 0.33806 0.04908 0.0
H450 H 0.06264 0.28852 0.05551 0.0
H451 H 0.12219 0.3968 0.07752 0.0
H452 H 0.15742 0.45258 0.06837 0.0
H453 H 0.08655 0.45255 0.02544 0.0
H454 H 0.05101 0.39664 0.03411 0.0
H455 H 0.94942 0.27832 0.13893 0.0
H456 H 1.0009 0.29989 0.12029 0.0
H457 H 0.96077 0.30581 0.05587 0.0
H458 H 0.90914 0.28349 0.07429 0.0
H459 H 0.02613 0.36331 0.07403 0.0
H460 H 0.96793 0.2517 0.05355 0.0
H461 H 0.93627 0.19582 0.0638 0.0
H462 H 0.0092 0.20445 0.10885 0.0
H463 H 0.04108 0.26054 0.09911 0.0
C464 C 0.14517 0.37788 0.0144 0.0
C465 C 0.16471 0.36735 0.02328 0.0
C466 C 0.11538 0.36721 0.02385 0.0
C467 C 0.10529 0.3471 0.04311 0.0
C468 C 0.12503 0.3366 0.05183 0.0
C469 C 0.15424 0.3463 0.04183 0.0
C470 C 0.07436 0.33695 0.05431 0.0
C471 C 0.05502 0.3051 0.05972 0.0
C472 C 0.06391 0.35828 0.05986 0.0
C473 C 0.08409 0.39248 0.05627 0.0
C474 C 0.11409 0.40873 0.06619 0.0
C475 C 0.13415 0.44031 0.06102 0.0
C476 C 0.12433 0.45595 0.04612 0.0
C477 C 0.09417 0.44029 0.03684 0.0
C478 C 0.07403 0.40868 0.04192 0.0
C479 C 0.95172 0.2845 0.12085 0.0
C480 C 0.92534 0.27908 0.108 0.0
C481 C 0.98104 0.2968 0.11025 0.0
C482 C 0.98457 0.30452 0.08675 0.0
C483 C 0.9585 0.30011 0.07405 0.0
C484 C 0.92905 0.28716 0.08452 0.0
C485 C 0.01503 0.31521 0.07513 0.0
C486 C 0.03411 0.34702 0.06976 0.0
C487 C 0.0257 0.29407 0.07016 0.0
C488 C 0.0067 0.26034 0.07581 0.0
C489 C 0.97706 0.24174 0.06581 0.0
C490 C 0.95912 0.21002 0.07148 0.0
C491 C 0.97067 0.19661 0.08702 0.0
C492 C 1.00025 0.21488 0.09685 0.0
C493 C 0.01827 0.24662 0.09125 0.0
H494 H 0.95675 0.17206 0.09139 0.0
H495 H 0.14012 0.48022 0.04178 0.0
H496 H 0.83287 0.14796 0.18439 0.0
H497 H 0.79934 0.09581 0.2001 0.0
H498 H 0.71806 0.10504 0.18764 0.0
H499 H 0.75186 0.1581 0.17288 0.0
H500 H 0.71165 0.08066 0.22706 0.0
H501 H 0.73748 0.05618 0.15397 0.0
H502 H 0.77165 0.05875 0.12202 0.0
H503 H 0.81729 0.02447 0.16662 0.0
H504 H 0.78366 0.02208 0.19893 0.0
H505 H 0.6379 0.89735 0.22912 0.0
H506 H 0.6652 0.94756 0.20905 0.0
H507 H 0.69573 0.99536 0.27427 0.0
H508 H 0.66796 0.94514 0.29441 0.0
H509 H 0.7228 0.98948 0.20523 0.0
H510 H 0.70495 0.06844 0.27119 0.0
H511 H 0.66533 0.06435 0.29906 0.0
H512 H 0.59371 0.98605 0.26183 0.0
H513 H 0.63278 0.99 0.23351 0.0
C514 C 0.80782 0.13879 0.1847 0.0
C515 C 0.79504 0.15716 0.17721 0.0
C516 C 0.78858 0.1088 0.19365 0.0
C517 C 0.75597 0.09604 0.19478 0.0
C518 C 0.7431 0.11422 0.18699 0.0
C519 C 0.76243 0.14451 0.17841 0.0
C520 C 0.73556 0.06431 0.20491 0.0
C521 C 0.71406 0.06072 0.2222 0.0
C522 C 0.73801 0.03793 0.19832 0.0
C523 C 0.7582 0.03918 0.17891 0.0
C524 C 0.75494 0.04938 0.157 0.0
C525 C 0.77419 0.05077 0.13882 0.0
C526 C 0.79667 0.04184 0.1423 0.0
C527 C 0.79988 0.0314 0.16395 0.0
C528 C 0.7807 0.02998 0.1822 0.0
C529 C 0.65051 0.91853 0.23919 0.0
C530 C 0.6507 0.9172 0.26339 0.0
C531 C 0.66608 0.94729 0.22769 0.0
C532 C 0.68232 0.97544 0.24008 0.0
C533 C 0.68282 0.97413 0.26427 0.0
C534 C 0.66698 0.94537 0.27579 0.0
C535 C 0.69935 0.006 0.22768 0.0
C536 C 0.72028 0.00937 0.21 0.0
C537 C 0.6956 0.03189 0.23339 0.0
C538 C 0.67191 0.02931 0.25037 0.0
C539 C 0.68074 0.05041 0.26891 0.0
C540 C 0.65837 0.04812 0.28479 0.0
C541 C 0.62704 0.02489 0.28227 0.0
C542 C 0.618 0.00395 0.26382 0.0
C543 C 0.64027 0.00619 0.24786 0.0
H544 H 0.60977 0.02315 0.29458 0.0
H545 H 0.81156 0.04295 0.12821 0.0
H546 H 0.69375 0.63293 0.45204 0.0
H547 H 0.67204 0.65947 0.43 0.0
H548 H 0.76357 0.72324 0.40269 0.0
H549 H 0.78594 0.69775 0.42565 0.0
H550 H 0.7345 0.7541 0.41419 0.0
H551 H 0.70624 0.6605 0.3707 0.0
H552 H 0.68305 0.60358 0.36513 0.0
H553 H 0.59298 0.58926 0.3851 0.0
H554 H 0.61573 0.64607 0.39108 0.0
H555 H 0.68607 0.81873 0.32653 0.0
H556 H 0.70686 0.78888 0.34567 0.0
H557 H 0.6157 0.72651 0.37423 0.0
H558 H 0.59452 0.75593 0.35472 0.0
H559 H 0.64432 0.69457 0.36176 0.0
H560 H 0.67163 0.78686 0.40586 0.0
H561 H 0.69383 0.84354 0.41203 0.0
H562 H 0.78464 0.85995 0.39202 0.0
H563 H 0.76286 0.80339 0.38535 0.0
C564 C 0.70953 0.6528 0.44165 0.0
C565 C 0.7418 0.66303 0.44075 0.0
C566 C 0.69688 0.66776 0.42874 0.0
C567 C 0.71601 0.69304 0.41431 0.0
C568 C 0.74825 0.70364 0.41357 0.0
C569 C 0.761 0.68882 0.42662 0.0
C570 C 0.70246 0.70865 0.40023 0.0
C571 C 0.71511 0.74112 0.40246 0.0
C572 C 0.67653 0.69166 0.38538 0.0
C573 C 0.66275 0.65752 0.38152 0.0
C574 C 0.68153 0.6452 0.37403 0.0
C575 C 0.66846 0.61295 0.37079 0.0
C576 C 0.63658 0.59281 0.37481 0.0
C577 C 0.61768 0.60488 0.38201 0.0
C578 C 0.63064 0.63711 0.38531 0.0
C579 C 0.67031 0.79843 0.33664 0.0
C580 C 0.63868 0.7899 0.33924 0.0
C581 C 0.68229 0.78145 0.34767 0.0
C582 C 0.66302 0.75583 0.36181 0.0
C583 C 0.63107 0.74628 0.36351 0.0
C584 C 0.61899 0.76313 0.35232 0.0
C585 C 0.67654 0.73999 0.37562 0.0
C586 C 0.66382 0.70752 0.37341 0.0
C587 C 0.7023 0.75693 0.3906 0.0
C588 C 0.71555 0.79091 0.3949 0.0
C589 C 0.69629 0.80258 0.40263 0.0
C590 C 0.7088 0.83468 0.40623 0.0
C591 C 0.74061 0.85534 0.40237 0.0
C592 C 0.75999 0.84392 0.39497 0.0
C593 C 0.74758 0.81184 0.39129 0.0
H594 H 0.75026 0.88019 0.40516 0.0
H595 H 0.62651 0.56785 0.37231 0.0
H596 H 0.07212 0.69079 0.61248 0.0
H597 H 0.02131 0.66672 0.59341 0.0
H598 H 0.03459 0.75816 0.57809 0.0
H599 H 0.08506 0.78246 0.59791 0.0
H600 H 0.97792 0.72171 0.59474 0.0
H601 H 0.03995 0.71225 0.5357 0.0
H602 H 0.0773 0.69825 0.51901 0.0
H603 H 0.01483 0.60144 0.53491 0.0
H604 H 0.97727 0.6149 0.55199 0.0
H605 H 0.84986 0.62883 0.50267 0.0
H606 H 0.90547 0.65721 0.51344 0.0
H607 H 0.8804 0.62945 0.5842 0.0
H608 H 0.82522 0.60135 0.57375 0.0
H609 H 0.94508 0.63951 0.53472 0.0
H610 H 0.92533 0.69137 0.6184 0.0
H611 H 0.88819 0.70672 0.63354 0.0
H612 H 0.86805 0.72335 0.56474 0.0
H613 H 0.90545 0.70863 0.54921 0.0
C614 C 0.06427 0.70587 0.60519 0.0
C615 C 0.08274 0.73866 0.60689 0.0
C616 C 0.03529 0.69202 0.594 0.0
C617 C 0.02419 0.7106 0.58409 0.0
C618 C 0.04268 0.74332 0.58553 0.0
C619 C 0.07167 0.7572 0.59673 0.0
C620 C 0.99266 0.69584 0.57322 0.0
C621 C 0.97086 0.70387 0.58153 0.0
C622 C 0.98346 0.67287 0.5557 0.0
C623 C 0.00588 0.66463 0.54528 0.0
C624 C 0.03426 0.688 0.53578 0.0
C625 C 0.05546 0.68015 0.52623 0.0
C626 C 0.04847 0.64898 0.52594 0.0
C627 C 0.02022 0.62558 0.53515 0.0
C628 C 0.99895 0.6333 0.54474 0.0
C629 C 0.85624 0.62859 0.52049 0.0
C630 C 0.83304 0.61305 0.53738 0.0
C631 C 0.88801 0.64475 0.52659 0.0
C632 C 0.89702 0.6458 0.54967 0.0
C633 C 0.87396 0.62937 0.56635 0.0
C634 C 0.84236 0.61325 0.5603 0.0
C635 C 0.93032 0.66484 0.55674 0.0
C636 C 0.95235 0.65757 0.54776 0.0
C637 C 0.93992 0.68885 0.57342 0.0
C638 C 0.91804 0.69865 0.58265 0.0
C639 C 0.91315 0.69851 0.60651 0.0
C640 C 0.89202 0.70707 0.61516 0.0
C641 C 0.87571 0.71593 0.60011 0.0
C642 C 0.88063 0.7164 0.57638 0.0
C643 C 0.90178 0.70794 0.56764 0.0
H644 H 0.85931 0.72246 0.60683 0.0
H645 H 0.06493 0.64296 0.51855 0.0
H646 H 0.17935 0.8426 0.71535 0.0
H647 H 0.21235 0.89476 0.73115 0.0
H648 H 0.28226 0.9132 0.67927 0.0
H649 H 0.24977 0.85965 0.66437 0.0
H650 H 0.31102 0.93949 0.71607 0.0
H651 H 0.2288 0.94295 0.67654 0.0
H652 H 0.17458 0.92628 0.665 0.0
H653 H 0.1528 0.93914 0.73432 0.0
H654 H 0.20678 0.95549 0.74636 0.0
H655 H 0.37803 0.10604 0.74037 0.0
H656 H 0.34971 0.05589 0.71972 0.0
H657 H 0.29501 0.01248 0.78063 0.0
H658 H 0.32379 0.06234 0.80143 0.0
H659 H 0.26111 0.00273 0.73479 0.0
H660 H 0.34695 0.9975 0.77249 0.0
H661 H 0.40298 0.01788 0.78032 0.0
H662 H 0.4197 0.01298 0.70825 0.0
H663 H 0.36387 0.99323 0.69995 0.0
C664 C 0.20179 0.85779 0.70732 0.0
C665 C 0.21188 0.84737 0.68845 0.0
C666 C 0.22059 0.88775 0.71626 0.0
C667 C 0.24943 0.90855 0.70595 0.0
C668 C 0.26 0.89781 0.68743 0.0
C669 C 0.24147 0.8673 0.67888 0.0
C670 C 0.26822 0.94128 0.71473 0.0
C671 C 0.30012 0.95342 0.71975 0.0
C672 C 0.25428 0.95985 0.71956 0.0
C673 C 0.22181 0.95025 0.71238 0.0
C674 C 0.2124 0.94206 0.68935 0.0
C675 C 0.18171 0.93268 0.68272 0.0
C676 C 0.16025 0.9316 0.69892 0.0
C677 C 0.16945 0.93998 0.72179 0.0
C678 C 0.20011 0.94935 0.72852 0.0
C679 C 0.3598 0.0858 0.74923 0.0
C680 C 0.35293 0.08794 0.77244 0.0
C681 C 0.34381 0.05723 0.7375 0.0
C682 C 0.32034 0.03058 0.7487 0.0
C683 C 0.31306 0.03283 0.77172 0.0
C684 C 0.32951 0.06118 0.78358 0.0
C685 C 0.30329 1.00018 0.73653 0.0
C686 C 0.27184 0.98869 0.73083 0.0
C687 C 0.31784 0.98271 0.73049 0.0
C688 C 0.35131 0.99425 0.73557 0.0
C689 C 0.36264 1.0011 0.75829 0.0
C690 C 0.39436 0.0125 0.76281 0.0
C691 C 0.41493 0.01685 0.74479 0.0
C692 C 0.40378 0.00971 0.7222 0.0
C693 C 0.3721 0.99842 0.71758 0.0
H694 H 0.43947 0.02565 0.74834 0.0
H695 H 0.13649 0.92431 0.69375 0.0
H696 H 0.79061 0.60777 0.91315 0.0
H697 H 0.76187 0.6338 0.90215 0.0
H698 H 0.74645 0.64536 0.97375 0.0
H699 H 0.77623 0.61972 0.98504 0.0
H700 H 0.70453 0.6197 0.90722 0.0
H701 H 0.74139 0.7128 0.97891 0.0
H702 H 0.78567 0.74274 0.00539 0.0
H703 H 0.84795 0.73438 0.95799 0.0
H704 H 0.80415 0.70479 0.93112 0.0
H705 H 0.61409 0.69177 0.8896 0.0
H706 H 0.63971 0.66661 0.90913 0.0
H707 H 0.72996 0.7471 0.89447 0.0
H708 H 0.70411 0.7728 0.87584 0.0
H709 H 0.73272 0.72589 0.9346 0.0
H710 H 0.69608 0.67833 0.86037 0.0
H711 H 0.65693 0.65149 0.82977 0.0
H712 H 0.60355 0.57372 0.87499 0.0
H713 H 0.64219 0.6003 0.90597 0.0
C714 C 0.78118 0.61578 0.92668 0.0
C715 C 0.78583 0.61165 0.95003 0.0
C716 C 0.76458 0.63062 0.9203 0.0
C717 C 0.75203 0.64172 0.93705 0.0
C718 C 0.75623 0.63736 0.96047 0.0
C719 C 0.77313 0.62257 0.96691 0.0
C720 C 0.73472 0.65781 0.9296 0.0
C721 C 0.71059 0.64284 0.91337 0.0
C722 C 0.74286 0.68823 0.93725 0.0
C723 C 0.76941 0.70624 0.95317 0.0
C724 C 0.76455 0.71742 0.97413 0.0
C725 C 0.78956 0.73433 0.9892 0.0
C726 C 0.81957 0.74035 0.98342 0.0
C727 C 0.82467 0.72959 0.9625 0.0
C728 C 0.79975 0.71272 0.94736 0.0
C729 C 0.63938 0.70409 0.89071 0.0
C730 C 0.65718 0.73405 0.88102 0.0
C731 C 0.65404 0.68972 0.90183 0.0
C732 C 0.68687 0.7046 0.90286 0.0
C733 C 0.70463 0.73506 0.8939 0.0
C734 C 0.6899 0.74973 0.88321 0.0
C735 C 0.70269 0.68782 0.9121 0.0
C736 C 0.72643 0.70261 0.92868 0.0
C737 C 0.69495 0.65759 0.90421 0.0
C738 C 0.67185 0.64143 0.88554 0.0
C739 C 0.67589 0.65558 0.86382 0.0
C740 C 0.65381 0.64042 0.84641 0.0
C741 C 0.62773 0.61096 0.85045 0.0
C742 C 0.62373 0.59656 0.8719 0.0
C743 C 0.64573 0.61165 0.88938 0.0
H744 H 0.61065 0.59926 0.83696 0.0
H745 H 0.8389 0.75342 0.99511 0.0
H746 H 0.14966 0.83399 0.13053 0.0
H747 H 0.09837 0.80012 0.1138 0.0
H748 H 0.10386 0.71876 0.13399 0.0
H749 H 0.15626 0.7529 0.14992 0.0
H750 H 0.08054 0.70896 0.09362 0.0
H751 H 0.05555 0.74262 0.1628 0.0
H752 H 0.05862 0.77979 0.1925 0.0
H753 H 0.02927 0.82474 0.14313 0.0
H754 H 0.02642 0.7881 0.11304 0.0
H755 H 0.89904 0.64664 0.08271 0.0
H756 H 0.94765 0.67212 0.10498 0.0
H757 H 1.001 0.69469 0.04192 0.0
H758 H 0.95236 0.66817 0.01977 0.0
H759 H 0.99215 0.72762 0.1085 0.0
H760 H 0.07078 0.69955 0.04953 0.0
H761 H 0.06514 0.65733 0.02369 0.0
H762 H 0.98226 0.5913 0.05988 0.0
H763 H 0.9877 0.63295 0.08625 0.0
C764 C 0.13992 0.80889 0.13163 0.0
C765 C 0.15697 0.79615 0.14177 0.0
C766 C 0.11041 0.78946 0.12211 0.0
C767 C 0.09675 0.75674 0.12301 0.0
C768 C 0.11375 0.7439 0.13313 0.0
C769 C 0.14364 0.76342 0.14232 0.0
C770 C 0.06516 0.73624 0.11278 0.0
C771 C 0.06118 0.71294 0.09698 0.0
C772 C 0.03946 0.74069 0.11756 0.0
C773 C 0.04098 0.76272 0.13562 0.0
C774 C 0.04993 0.76055 0.15824 0.0
C775 C 0.05161 0.78152 0.17515 0.0
C776 C 0.0442 0.80465 0.1697 0.0
C777 C 0.03502 0.80682 0.14733 0.0
C778 C 0.03332 0.78593 0.13034 0.0
C779 C 0.92117 0.65711 0.07365 0.0
C780 C 0.92195 0.65538 0.04952 0.0
C781 C 0.94897 0.67162 0.08638 0.0
C782 C 0.97816 0.685 0.07524 0.0
C783 C 0.9789 0.68384 0.05105 0.0
C784 C 0.9511 0.66884 0.03836 0.0
C785 C 0.00778 0.70093 0.08883 0.0
C786 C 0.01139 0.72339 0.10527 0.0
C787 C 0.03271 0.69489 0.08524 0.0
C788 C 0.02953 0.66949 0.06974 0.0
C789 C 0.05146 0.67599 0.05208 0.0
C790 C 0.04828 0.65215 0.03734 0.0
C791 C 0.02332 0.62167 0.04013 0.0
C792 C 1.00155 0.61493 0.05774 0.0
C793 C 0.00466 0.63865 0.07258 0.0
H794 H 0.02087 0.60326 0.02867 0.0
H795 H 0.04552 0.82086 0.18282 0.0
H796 H 0.41304 0.16624 0.3055 0.0
H797 H 0.39372 0.1148 0.2878 0.0
H798 H 0.29942 0.08866 0.30741 0.0
H799 H 0.31852 0.13989 0.32532 0.0
H800 H 0.3111 0.04021 0.31323 0.0
H801 H 0.32478 0.11452 0.2541 0.0
H802 H 0.35483 0.16364 0.23228 0.0
H803 H 0.42033 0.1351 0.21131 0.0
H804 H 0.39094 0.08601 0.23336 0.0
H805 H 0.22351 0.91619 0.23527 0.0
H806 H 0.2467 0.96533 0.25673 0.0
H807 H 0.33826 0.98836 0.23214 0.0
H808 H 0.31527 0.93916 0.21073 0.0
H809 H 0.33036 0.03826 0.2295 0.0
H810 H 0.31577 0.96302 0.28729 0.0
H811 H 0.2866 0.91442 0.30983 0.0
H812 H 0.22356 0.94467 0.33365 0.0
H813 H 0.2521 0.99328 0.31098 0.0
C814 C 0.38824 0.14941 0.30637 0.0
C815 C 0.36729 0.15731 0.31671 0.0
C816 C 0.37722 0.12005 0.29613 0.0
C817 C 0.34506 0.09804 0.29598 0.0
C818 C 0.32431 0.1053 0.30726 0.0
C819 C 0.33528 0.13466 0.31744 0.0
C820 C 0.33279 0.06813 0.28308 0.0
C821 C 0.31504 0.03976 0.29488 0.0
C822 C 0.33851 0.06753 0.25922 0.0
C823 C 0.35584 0.09673 0.24556 0.0
C824 C 0.3457 0.1188 0.24495 0.0
C825 C 0.36261 0.14663 0.23254 0.0
C826 C 0.38952 0.15252 0.22046 0.0
C827 C 0.39951 0.13052 0.2207 0.0
C828 C 0.38273 0.10269 0.23315 0.0
C829 C 0.24861 0.93152 0.23458 0.0
C830 C 0.26745 0.92354 0.22128 0.0
C831 C 0.26186 0.95968 0.24686 0.0
C832 C 0.29431 0.98043 0.2463 0.0
C833 C 0.31317 0.97276 0.23283 0.0
C834 C 0.29993 0.94461 0.22051 0.0
C835 C 0.30846 0.01022 0.25962 0.0
C836 C 0.32654 0.03862 0.24787 0.0
C837 C 0.30308 0.01083 0.28354 0.0
C838 C 0.28591 0.98167 0.29726 0.0
C839 C 0.29554 0.9592 0.29719 0.0
C840 C 0.27915 0.93167 0.31001 0.0
C841 C 0.2532 0.92643 0.32312 0.0
C842 C 0.24364 0.94875 0.32347 0.0
C843 C 0.25994 0.97631 0.31065 0.0
H844 H 0.24054 0.9051 0.33304 0.0
H845 H 0.40259 0.17409 0.21087 0.0
H846 H 0.25137 0.40988 0.48627 0.0
H847 H 0.28599 0.39161 0.47123 0.0
H848 H 0.20583 0.30964 0.44323 0.0
H849 H 0.17138 0.32682 0.45929 0.0
H850 H 0.24161 0.29211 0.4592 0.0
H851 H 0.25902 0.37884 0.41048 0.0
H852 H 0.27306 0.43363 0.40315 0.0
H853 H 0.36446 0.46566 0.43161 0.0
H854 H 0.3508 0.41106 0.43939 0.0
H855 H 0.34596 0.29323 0.35921 0.0
H856 H 0.31816 0.31619 0.3785 0.0
H857 H 0.33455 0.28617 0.4442 0.0
H858 H 0.3625 0.26326 0.42504 0.0
H859 H 0.33288 0.36105 0.41024 0.0
H860 H 0.27027 0.26261 0.4779 0.0
H861 H 0.25146 0.20615 0.48216 0.0
H862 H 0.24282 0.19474 0.40873 0.0
H863 H 0.26113 0.251 0.40406 0.0
C864 C 0.24124 0.38785 0.47705 0.0
C865 C 0.20868 0.36974 0.47404 0.0
C866 C 0.26103 0.37751 0.46831 0.0
C867 C 0.24867 0.34939 0.45572 0.0
C868 C 0.21609 0.3313 0.45293 0.0
C869 C 0.19634 0.3412 0.46212 0.0
C870 C 0.26925 0.33858 0.44517 0.0
C871 C 0.26163 0.30733 0.4486 0.0
C872 C 0.29524 0.35814 0.43102 0.0
C873 C 0.30379 0.39089 0.4257 0.0
C874 C 0.28208 0.39758 0.41523 0.0
C875 C 0.28996 0.42859 0.41101 0.0
C876 C 0.3196 0.45311 0.41697 0.0
C877 C 0.34149 0.44665 0.42703 0.0
C878 C 0.3337 0.41567 0.43134 0.0
C879 C 0.34402 0.29181 0.37778 0.0
C880 C 0.35637 0.27616 0.39052 0.0
C881 C 0.32809 0.30499 0.3888 0.0
C882 C 0.32401 0.30272 0.41279 0.0
C883 C 0.33699 0.28783 0.42563 0.0
C884 C 0.35286 0.27458 0.41462 0.0
C885 C 0.30498 0.31464 0.42422 0.0
C886 C 0.31297 0.34603 0.421 0.0
C887 C 0.2787 0.29499 0.438 0.0
C888 C 0.26745 0.26108 0.44065 0.0
C889 C 0.26428 0.24802 0.46268 0.0
C890 C 0.25371 0.21606 0.46516 0.0
C891 C 0.24607 0.1969 0.44572 0.0
C892 C 0.24887 0.20963 0.42376 0.0
C893 C 0.25938 0.24156 0.42119 0.0
H894 H 0.23791 0.17217 0.44768 0.0
H895 H 0.32562 0.4771 0.41375 0.0
H896 H 0.85535 0.17512 0.6382 0.0
H897 H 0.90742 0.21056 0.62297 0.0
H898 H 0.88114 0.28062 0.61071 0.0
H899 H 0.8286 0.24503 0.62586 0.0
H900 H 0.91042 0.27264 0.57339 0.0
H901 H 0.93053 0.29013 0.65413 0.0
H902 H 0.92945 0.2752 0.69479 0.0
H903 H 0.98324 0.23127 0.67788 0.0
H904 H 0.98427 0.24555 0.63704 0.0
H905 H 0.06562 0.3878 0.5421 0.0
H906 H 0.01473 0.35999 0.56124 0.0
H907 H 0.03387 0.28703 0.58151 0.0
H908 H 0.08495 0.31498 0.5626 0.0
H909 H 0.00802 0.30033 0.61605 0.0
H910 H 0.98479 0.2789 0.5354 0.0
H911 H 0.98537 0.29234 0.49442 0.0
H912 H 0.93692 0.34196 0.51076 0.0
H913 H 0.93645 0.32919 0.5519 0.0
C914 C 0.86064 0.19815 0.63246 0.0
C915 C 0.83777 0.20723 0.63331 0.0
C916 C 0.89053 0.21846 0.62382 0.0
C917 C 0.89833 0.24838 0.61586 0.0
C918 C 0.87567 0.25767 0.61682 0.0
C919 C 0.84571 0.23737 0.6256 0.0
C920 C 0.92981 0.26928 0.60576 0.0
C921 C 0.93179 0.27921 0.58285 0.0
C922 C 0.9577 0.27721 0.61791 0.0
C923 C 0.95726 0.26872 0.64248 0.0
C924 C 0.94193 0.27709 0.65905 0.0
C925 C 0.94136 0.26877 0.68213 0.0
C926 C 0.95621 0.25224 0.68891 0.0
C927 C 0.97173 0.24406 0.67261 0.0
C928 C 0.97235 0.25229 0.64949 0.0
C929 C 0.05893 0.36574 0.55049 0.0
C930 C 0.07931 0.3535 0.55067 0.0
C931 C 0.02979 0.34985 0.56147 0.0
C932 C 0.02016 0.32112 0.57257 0.0
C933 C 0.0407 0.30914 0.5731 0.0
C934 C 0.06995 0.32516 0.5623 0.0
C935 C 0.98868 0.30339 0.58354 0.0
C936 C 0.98668 0.29402 0.60662 0.0
C937 C 0.96077 0.29581 0.5715 0.0
C938 C 0.9609 0.30339 0.54676 0.0
C939 C 0.97448 0.29289 0.53028 0.0
C940 C 0.97476 0.30035 0.50702 0.0
C941 C 0.96128 0.31808 0.5 0.0
C942 C 0.94741 0.32829 0.51622 0.0
C943 C 0.94711 0.32093 0.53951 0.0
H944 H 0.96152 0.32383 0.48198 0.0
H945 H 0.95574 0.24582 0.70679 0.0
H946 H 0.61178 0.84513 0.81978 0.0
H947 H 0.63352 0.90026 0.80864 0.0
H948 H 0.63919 0.87629 0.73804 0.0
H949 H 0.617 0.82163 0.74882 0.0
H950 H 0.68668 0.94385 0.79001 0.0
H951 H 0.62151 0.91672 0.70152 0.0
H952 H 0.57102 0.87665 0.68522 0.0
H953 H 0.53034 0.85548 0.75285 0.0
H954 H 0.58037 0.89577 0.7695 0.0
H955 H 0.76579 0.07318 0.71562 0.0
H956 H 0.73993 0.02257 0.73535 0.0
H957 H 0.65241 0.0226 0.73341 0.0
H958 H 0.67811 0.07244 0.71257 0.0
H959 H 0.63989 0.96879 0.72344 0.0
H960 H 0.69817 0.03511 0.78499 0.0
H961 H 0.74413 0.0761 0.80561 0.0
H962 H 0.79019 0.02207 0.7994 0.0
H963 H 0.74468 0.98093 0.77846 0.0
C964 C 0.6177 0.8517 0.8019 0.0
C965 C 0.61229 0.82892 0.78515 0.0
C966 C 0.63018 0.8832 0.79557 0.0
C967 C 0.63746 0.89238 0.77241 0.0
C968 C 0.63307 0.86975 0.75591 0.0
C969 C 0.62043 0.83842 0.76214 0.0
C970 C 0.64938 0.92538 0.76512 0.0
C971 C 0.67641 0.9494 0.77554 0.0
C972 C 0.63529 0.93287 0.7468 0.0
C973 C 0.60483 0.90915 0.73677 0.0
C974 C 0.60174 0.90369 0.71289 0.0
C975 C 0.57319 0.88089 0.70359 0.0
C976 C 0.54751 0.86347 0.71799 0.0
C977 C 0.55027 0.86892 0.74171 0.0
C978 C 0.57872 0.89173 0.75109 0.0
C979 C 0.74111 0.06242 0.71963 0.0
C980 C 0.72393 0.07663 0.71258 0.0
C981 C 0.72631 0.03356 0.73104 0.0
C982 C 0.69417 0.01874 0.73631 0.0
C983 C 0.67715 0.03332 0.72956 0.0
C984 C 0.69181 0.06182 0.71767 0.0
C985 C 0.67807 0.98738 0.74774 0.0
C986 C 0.65013 0.96354 0.73808 0.0
C987 C 0.69063 0.98039 0.76737 0.0
C988 C 0.71807 0.00503 0.78001 0.0
C989 C 0.71818 0.03205 0.78789 0.0
C990 C 0.74414 0.05531 0.79965 0.0
C991 C 0.77008 0.05172 0.80377 0.0
C992 C 0.77008 0.02483 0.79619 0.0
C993 C 0.74419 0.00151 0.7844 0.0
H994 H 0.79016 0.06975 0.81288 0.0
H995 H 0.52547 0.84578 0.71077 0.0
H996 H 0.26585 0.72882 0.15087 0.0
H997 H 0.26156 0.678 0.14184 0.0
H998 H 0.24594 0.68972 0.07034 0.0
H999 H 0.25122 0.74084 0.07928 0.0
H1000 H 0.20336 0.62764 0.0912 0.0
H1001 H 0.31246 0.70557 0.08242 0.0
H1002 H 0.36413 0.74831 0.09458 0.0
H1003 H 0.36813 0.6897 0.14758 0.0
H1004 H 0.31598 0.64688 0.13621 0.0
H1005 H 0.23803 0.52116 0.03136 0.0
H1006 H 0.23031 0.56353 0.04574 0.0
H1007 H 0.2674 0.55828 0.1118 0.0
H1008 H 0.27485 0.5159 0.09764 0.0
H1009 H 0.29743 0.61606 0.09611 0.0
H1010 H 0.19119 0.53816 0.10618 0.0
H1011 H 0.13797 0.4951 0.09767 0.0
H1012 H 0.12738 0.55118 0.04581 0.0
H1013 H 0.18073 0.59448 0.05377 0.0
C1014 C 0.26112 0.72022 0.13333 0.0
C1015 C 0.25871 0.73843 0.11573 0.0
C1016 C 0.25883 0.6914 0.12817 0.0
C1017 C 0.25344 0.6802 0.10542 0.0
C1018 C 0.25003 0.69796 0.08799 0.0
C1019 C 0.2531 0.72706 0.09306 0.0
C1020 C 0.25235 0.65045 0.09954 0.0
C1021 C 0.22394 0.62507 0.09202 0.0
C1022 C 0.27906 0.64701 0.10139 0.0
C1023 C 0.31001 0.67314 0.10869 0.0
C1024 C 0.32406 0.70195 0.09694 0.0
C1025 C 0.35352 0.72616 0.10363 0.0
C1026 C 0.36941 0.72173 0.12184 0.0
C1027 C 0.35582 0.69308 0.13344 0.0
C1028 C 0.32624 0.66889 0.12695 0.0
C1029 C 0.24385 0.52853 0.04909 0.0
C1030 C 0.25757 0.51548 0.06322 0.0
C1031 C 0.23942 0.55277 0.05732 0.0
C1032 C 0.24844 0.56424 0.07984 0.0
C1033 C 0.26054 0.55006 0.0943 0.0
C1034 C 0.26494 0.52592 0.08613 0.0
C1035 C 0.24834 0.59294 0.08762 0.0
C1036 C 0.27666 0.61831 0.09541 0.0
C1037 C 0.22144 0.59617 0.08633 0.0
C1038 C 0.19012 0.56951 0.08045 0.0
C1039 C 0.17772 0.54118 0.09272 0.0
C1040 C 0.14744 0.51679 0.08811 0.0
C1041 C 0.12925 0.52049 0.07132 0.0
C1042 C 0.14145 0.54842 0.05889 0.0
C1043 C 0.17171 0.57289 0.06345 0.0
H1044 H 0.10574 0.50165 0.06786 0.0
H1045 H 0.39222 0.7405 0.12698 0.0
H1046 H 0.74046 0.24695 0.25561 0.0
H1047 H 0.68873 0.23899 0.26558 0.0
H1048 H 0.66667 0.23587 0.19341 0.0
H1049 H 0.71847 0.24387 0.18338 0.0
H1050 H 0.65739 0.2786 0.21871 0.0
H1051 H 0.62969 0.17091 0.2236 0.0
H1052 H 0.63537 0.12632 0.23635 0.0
H1053 H 0.62452 0.14568 0.30679 0.0
H1054 H 0.61925 0.19072 0.29449 0.0
H1055 H 0.50583 0.25241 0.23753 0.0
H1056 H 0.54786 0.24352 0.22437 0.0
H1057 H 0.57015 0.23514 0.29494 0.0
H1058 H 0.52749 0.24326 0.30808 0.0
H1059 H 0.57749 0.19511 0.26852 0.0
H1060 H 0.61059 0.30455 0.26522 0.0
H1061 H 0.60721 0.35104 0.25411 0.0
H1062 H 0.61088 0.33066 0.18264 0.0
H1063 H 0.61383 0.28376 0.19334 0.0
C1064 C 0.72442 0.24423 0.2419 0.0
C1065 C 0.73348 0.24611 0.21874 0.0
C1066 C 0.69484 0.23947 0.2476 0.0
C1067 C 0.67383 0.2367 0.23022 0.0
C1068 C 0.68251 0.23781 0.20706 0.0
C1069 C 0.71199 0.24219 0.20135 0.0
C1070 C 0.64396 0.23529 0.23632 0.0
C1071 C 0.6396 0.26 0.2292 0.0
C1072 C 0.62133 0.21156 0.25066 0.0
C1073 C 0.62434 0.18439 0.25812 0.0
C1074 C 0.62878 0.16584 0.24183 0.0
C1075 C 0.63187 0.14044 0.24897 0.0
C1076 C 0.63038 0.13321 0.27237 0.0
C1077 C 0.6257 0.15133 0.28867 0.0
C1078 C 0.62262 0.17677 0.28162 0.0
C1079 C 0.51955 0.24839 0.25019 0.0
C1080 C 0.51369 0.24889 0.27381 0.0
C1081 C 0.54355 0.24333 0.24268 0.0
C1082 C 0.56265 0.23936 0.25868 0.0
C1083 C 0.55581 0.23824 0.28227 0.0
C1084 C 0.53144 0.24287 0.28978 0.0
C1085 C 0.59089 0.23845 0.25086 0.0
C1086 C 0.59508 0.21348 0.25778 0.0
C1087 C 0.61369 0.26219 0.23656 0.0
C1088 C 0.61208 0.29046 0.23008 0.0
C1089 C 0.61044 0.30986 0.24713 0.0
C1090 C 0.60863 0.33629 0.24091 0.0
C1091 C 0.60874 0.34375 0.21768 0.0
C1092 C 0.61074 0.32482 0.20063 0.0
C1093 C 0.61249 0.29832 0.20676 0.0
H1094 H 0.60734 0.36423 0.2129 0.0
H1095 H 0.63278 0.11354 0.27786 0.0
H1096 H 0.48797 0.71248 0.34918 0.0
H1097 H 0.44529 0.66152 0.36146 0.0
H1098 H 0.44255 0.70067 0.42726 0.0
H1099 H 0.4861 0.75116 0.41558 0.0
H1100 H 0.43039 0.64253 0.43313 0.0
H1101 H 0.39443 0.69574 0.38209 0.0
H1102 H 0.39394 0.72144 0.34576 0.0
H1103 H 0.36992 0.63724 0.30836 0.0
H1104 H 0.37068 0.61119 0.34448 0.0
H1105 H 0.24971 0.5582 0.43276 0.0
H1106 H 0.30112 0.59858 0.41978 0.0
H1107 H 0.33747 0.53624 0.43137 0.0
H1108 H 0.28556 0.49548 0.4447 0.0
H1109 H 0.33519 0.60113 0.38454 0.0
H1110 H 0.41616 0.58195 0.44515 0.0
H1111 H 0.41522 0.56039 0.4837 0.0
H1112 H 0.34568 0.58289 0.5058 0.0
H1113 H 0.34649 0.6049 0.46748 0.0
C1114 C 0.47883 0.71015 0.36645 0.0
C1115 C 0.49021 0.73622 0.38122 0.0
C1116 C 0.45423 0.68097 0.3734 0.0
C1117 C 0.44027 0.67736 0.39514 0.0
C1118 C 0.45278 0.70285 0.41037 0.0
C1119 C 0.47748 0.7319 0.40352 0.0
C1120 C 0.41102 0.64812 0.40141 0.0
C1121 C 0.40966 0.63326 0.42239 0.0
C1122 C 0.3838 0.63616 0.38758 0.0
C1123 C 0.38297 0.65166 0.36592 0.0
C1124 C 0.38923 0.68279 0.3661 0.0
C1125 C 0.38889 0.69741 0.34555 0.0
C1126 C 0.38201 0.68102 0.32475 0.0
C1127 C 0.37532 0.64993 0.32448 0.0
C1128 C 0.3757 0.63523 0.34497 0.0
C1129 C 0.26854 0.55294 0.43242 0.0
C1130 C 0.26352 0.52358 0.43963 0.0
C1131 C 0.29799 0.57609 0.425 0.0
C1132 C 0.32323 0.57053 0.42453 0.0
C1133 C 0.31843 0.54122 0.43178 0.0
C1134 C 0.28883 0.51798 0.43943 0.0
C1135 C 0.35433 0.59582 0.41647 0.0
C1136 C 0.35606 0.60993 0.39509 0.0
C1137 C 0.3816 0.60754 0.43022 0.0
C1138 C 0.38113 0.59469 0.45338 0.0
C1139 C 0.40073 0.58234 0.45826 0.0
C1140 C 0.40021 0.57005 0.48007 0.0
C1141 C 0.38032 0.57016 0.49716 0.0
C1142 C 0.36098 0.58269 0.49252 0.0
C1143 C 0.36144 0.59504 0.47075 0.0
H1144 H 0.37994 0.56062 0.51402 0.0
H1145 H 0.38178 0.69238 0.30886 0.0
H1146 H 0.68221 0.44083 0.5425 0.0
H1147 H 0.69031 0.39865 0.55611 0.0
H1148 H 0.78984 0.46257 0.5595 0.0
H1149 H 0.78173 0.50516 0.54563 0.0
H1150 H 0.7758 0.40433 0.54289 0.0
H1151 H 0.74913 0.44447 0.60813 0.0
H1152 H 0.71897 0.46297 0.63045 0.0
H1153 H 0.63689 0.37209 0.62526 0.0
H1154 H 0.66642 0.35316 0.60259 0.0
H1155 H 0.78233 0.28246 0.60899 0.0
H1156 H 0.78995 0.33417 0.5984 0.0
H1157 H 0.69078 0.29255 0.58627 0.0
H1158 H 0.6831 0.24143 0.59698 0.0
H1159 H 0.71452 0.3465 0.61176 0.0
H1160 H 0.74064 0.30952 0.542 0.0
H1161 H 0.77118 0.29151 0.51961 0.0
H1162 H 0.85573 0.37746 0.53449 0.0
H1163 H 0.82569 0.3958 0.55724 0.0
C1164 C 0.70582 0.44595 0.54616 0.0
C1165 C 0.7313 0.4764 0.54339 0.0
C1166 C 0.71044 0.42182 0.5539 0.0
C1167 C 0.74061 0.42763 0.55933 0.0
C1168 C 0.76635 0.45765 0.55556 0.0
C1169 C 0.76172 0.4819 0.54762 0.0
C1170 C 0.7446 0.40231 0.56968 0.0
C1171 C 0.76293 0.39207 0.55823 0.0
C1172 C 0.72781 0.38629 0.58969 0.0
C1173 C 0.70998 0.39745 0.60354 0.0
C1174 C 0.7246 0.42848 0.61162 0.0
C1175 C 0.70762 0.43904 0.62435 0.0
C1176 C 0.67602 0.41873 0.62924 0.0
C1177 C 0.66136 0.3878 0.62146 0.0
C1178 C 0.67823 0.37712 0.60869 0.0
C1179 C 0.76223 0.28451 0.60419 0.0
C1180 C 0.73217 0.25787 0.60362 0.0
C1181 C 0.76661 0.31395 0.59803 0.0
C1182 C 0.74093 0.31713 0.59141 0.0
C1183 C 0.71092 0.29063 0.59127 0.0
C1184 C 0.7066 0.26136 0.59721 0.0
C1185 C 0.7447 0.34778 0.58448 0.0
C1186 C 0.72787 0.35912 0.59668 0.0
C1187 C 0.76302 0.36483 0.5653 0.0
C1188 C 0.781 0.35386 0.55155 0.0
C1189 C 0.76578 0.32446 0.54066 0.0
C1190 C 0.78299 0.31422 0.52787 0.0
C1191 C 0.81539 0.33328 0.52569 0.0
C1192 C 0.83064 0.36268 0.53624 0.0
C1193 C 0.81354 0.37302 0.54907 0.0
H1194 H 0.82867 0.32531 0.51579 0.0
H1195 H 0.66291 0.42696 0.63909 0.0
H1196 H 0.2946 0.78304 0.68637 0.0
H1197 H 0.34654 0.79466 0.69936 0.0
H1198 H 0.30473 0.73399 0.75798 0.0
H1199 H 0.25342 0.72385 0.74595 0.0
H1200 H 0.35672 0.78139 0.77091 0.0
H1201 H 0.32379 0.71034 0.70583 0.0
H1202 H 0.30729 0.69479 0.66565 0.0
H1203 H 0.39365 0.77216 0.64147 0.0
H1204 H 0.41041 0.78861 0.68158 0.0
H1205 H 0.43715 0.69778 0.78899 0.0
H1206 H 0.40044 0.71392 0.77516 0.0
H1207 H 0.47744 0.79958 0.74869 0.0
H1208 H 0.51453 0.78377 0.7632 0.0
H1209 H 0.41767 0.75382 0.71739 0.0
H1210 H 0.45269 0.81739 0.7858 0.0
H1211 H 0.46663 0.82691 0.82695 0.0
H1212 H 0.37326 0.75662 0.84556 0.0
H1213 H 0.35889 0.74631 0.8045 0.0
C1214 C 0.29652 0.77267 0.70225 0.0
C1215 C 0.26962 0.752 0.71486 0.0
C1216 C 0.32625 0.77913 0.70957 0.0
C1217 C 0.32957 0.76474 0.72944 0.0
C1218 C 0.30289 0.74532 0.74255 0.0
C1219 C 0.27337 0.73916 0.73542 0.0
C1220 C 0.36018 0.76799 0.73615 0.0
C1221 C 0.3701 0.77555 0.75912 0.0
C1222 C 0.37812 0.76093 0.72074 0.0
C1223 C 0.36816 0.75095 0.69667 0.0
C1224 C 0.33916 0.72418 0.69194 0.0
C1225 C 0.32977 0.71517 0.66918 0.0
C1226 C 0.34937 0.73248 0.651 0.0
C1227 C 0.37845 0.75882 0.65556 0.0
C1228 C 0.3879 0.76803 0.6783 0.0
C1229 C 0.44621 0.72007 0.78028 0.0
C1230 C 0.47854 0.73952 0.77706 0.0
C1231 C 0.42531 0.7293 0.77247 0.0
C1232 C 0.43632 0.75789 0.76095 0.0
C1233 C 0.46861 0.77746 0.75762 0.0
C1234 C 0.48967 0.76851 0.76594 0.0
C1235 C 0.41344 0.76639 0.75214 0.0
C1236 C 0.40485 0.76077 0.72888 0.0
C1237 C 0.39636 0.7746 0.76734 0.0
C1238 C 0.40479 0.78094 0.79206 0.0
C1239 C 0.4352 0.80377 0.79866 0.0
C1240 C 0.44317 0.80935 0.82197 0.0
C1241 C 0.42086 0.79234 0.83886 0.0
C1242 C 0.39052 0.76977 0.83247 0.0
C1243 C 0.38244 0.76408 0.80917 0.0
H1244 H 0.42708 0.79669 0.8569 0.0
H1245 H 0.34205 0.72543 0.63339 0.0
H1246 H 0.72477 0.48018 0.97115 0.0
H1247 H 0.67327 0.43665 0.96091 0.0
H1248 H 0.71128 0.42312 0.89786 0.0
H1249 H 0.76238 0.4674 0.90743 0.0
H1250 H 0.65512 0.41461 0.88998 0.0
H1251 H 0.70186 0.37895 0.9465 0.0
H1252 H 0.72596 0.37964 0.98387 0.0
H1253 H 0.6433 0.36544 0.01911 0.0
H1254 H 0.61887 0.36509 0.98192 0.0
H1255 H 0.55186 0.23491 0.90148 0.0
H1256 H 0.5965 0.28475 0.91295 0.0
H1257 H 0.5456 0.33194 0.89517 0.0
H1258 H 0.5007 0.28179 0.88334 0.0
H1259 H 0.60556 0.32565 0.94475 0.0
H1260 H 0.59795 0.40579 0.87583 0.0
H1261 H 0.57764 0.40236 0.83644 0.0
H1262 H 0.58836 0.32268 0.82259 0.0
H1263 H 0.60909 0.32589 0.86176 0.0
C1264 C 0.72212 0.46836 0.95491 0.0
C1265 C 0.74794 0.47715 0.94025 0.0
C1266 C 0.69266 0.44327 0.94917 0.0
C1267 C 0.68849 0.42629 0.92878 0.0
C1268 C 0.71391 0.43577 0.91372 0.0
C1269 C 0.74327 0.46091 0.91937 0.0
C1270 C 0.65823 0.39768 0.92353 0.0
C1271 C 0.64414 0.39526 0.90204 0.0
C1272 C 0.64409 0.37222 0.9391 0.0
C1273 C 0.6587 0.37236 0.96146 0.0
C1274 C 0.68893 0.37622 0.96223 0.0
C1275 C 0.70263 0.37651 0.98337 0.0
C1276 C 0.68621 0.37268 0.00386 0.0
C1277 C 0.65602 0.36847 0.00323 0.0
C1278 C 0.64223 0.36821 0.98213 0.0
C1279 C 0.54996 0.25579 0.90023 0.0
C1280 C 0.5227 0.25438 0.89152 0.0
C1281 C 0.57557 0.28434 0.90678 0.0
C1282 C 0.57454 0.31217 0.90483 0.0
C1283 C 0.54713 0.31084 0.89652 0.0
C1284 C 0.52152 0.28222 0.88975 0.0
C1285 C 0.60257 0.34242 0.9111 0.0
C1286 C 0.61622 0.34519 0.93283 0.0
C1287 C 0.61678 0.36783 0.89548 0.0
C1288 C 0.60468 0.36587 0.87181 0.0
C1289 C 0.59603 0.3876 0.86434 0.0
C1290 C 0.58445 0.38569 0.84206 0.0
C1291 C 0.5816 0.36224 0.82706 0.0
C1292 C 0.59045 0.34074 0.83426 0.0
C1293 C 0.60209 0.34258 0.85651 0.0
H1294 H 0.5726 0.36079 0.80982 0.0
H1295 H 0.69685 0.37289 0.02021 0.0
H1296 H 0.39657 0.32432 0.24324 0.0
H1297 H 0.37593 0.33696 0.20934 0.0
H1298 H 0.29377 0.24502 0.2113 0.0
H1299 H 0.31488 0.23196 0.24519 0.0
H1300 H 0.31346 0.26066 0.16826 0.0
H1301 H 0.29055 0.30969 0.22962 0.0
H1302 H 0.30073 0.34191 0.26449 0.0
H1303 H 0.36895 0.42309 0.22773 0.0
H1304 H 0.35952 0.39127 0.19272 0.0
H1305 H 0.2385 0.3167 0.08849 0.0
H1306 H 0.24979 0.29483 0.12281 0.0
H1307 H 0.3443 0.37278 0.12368 0.0
H1308 H 0.33329 0.39453 0.08941 0.0
H1309 H 0.31053 0.3598 0.16659 0.0
H1310 H 0.33481 0.30749 0.106 0.0
H1311 H 0.32235 0.27424 0.07146 0.0
H1312 H 0.24724 0.19765 0.10774 0.0
H1313 H 0.25897 0.23064 0.14241 0.0
C1314 C 0.37396 0.30689 0.23659 0.0
C1315 C 0.35705 0.27734 0.24704 0.0
C1316 C 0.36218 0.31413 0.21722 0.0
C1317 C 0.33296 0.29219 0.20809 0.0
C1318 C 0.31626 0.26236 0.21817 0.0
C1319 C 0.32827 0.25495 0.23749 0.0
C1320 C 0.32032 0.30071 0.18792 0.0
C1321 C 0.31223 0.28202 0.16805 0.0
C1322 C 0.31885 0.32867 0.18759 0.0
C1323 C 0.32446 0.34801 0.20857 0.0
C1324 C 0.30787 0.33437 0.229 0.0
C1325 C 0.31349 0.35257 0.24879 0.0
C1326 C 0.33551 0.38451 0.24834 0.0
C1327 C 0.3519 0.39834 0.22807 0.0
C1328 C 0.3464 0.38024 0.20823 0.0
C1329 C 0.26171 0.32897 0.09597 0.0
C1330 C 0.2851 0.35717 0.0863 0.0
C1331 C 0.26813 0.31647 0.11546 0.0
C1332 C 0.29786 0.33225 0.12567 0.0
C1333 C 0.32123 0.36031 0.11598 0.0
C1334 C 0.31499 0.37255 0.09635 0.0
C1335 C 0.30459 0.32022 0.14691 0.0
C1336 C 0.31141 0.33825 0.16698 0.0
C1337 C 0.30444 0.2915 0.14748 0.0
C1338 C 0.29752 0.27164 0.1267 0.0
C1339 C 0.31544 0.28366 0.10654 0.0
C1340 C 0.30856 0.26484 0.08696 0.0
C1341 C 0.28395 0.23388 0.08738 0.0
C1342 C 0.26625 0.22165 0.10742 0.0
C1343 C 0.27302 0.24039 0.12704 0.0
H1344 H 0.27866 0.21935 0.07221 0.0
H1345 H 0.33983 0.39856 0.26368 0.0
H1346 H 0.03845 0.33161 0.4269 0.0
H1347 H 0.00455 0.30995 0.39323 0.0
H1348 H 0.08416 0.36125 0.34853 0.0
H1349 H 0.11783 0.38416 0.38199 0.0
H1350 H 0.03731 0.36773 0.33456 0.0
H1351 H 0.0499 0.28102 0.35659 0.0
H1352 H 0.04888 0.24133 0.38298 0.0
H1353 H 0.9501 0.20273 0.3931 0.0
H1354 H 0.9506 0.24248 0.367 0.0
H1355 H 0.96481 0.29385 0.23025 0.0
H1356 H 0.99886 0.3082 0.264 0.0
H1357 H 0.91797 0.26687 0.30842 0.0
H1358 H 0.88372 0.25303 0.27484 0.0
H1359 H 0.96522 0.25413 0.32229 0.0
H1360 H 0.95371 0.34222 0.30077 0.0
H1361 H 0.95521 0.38169 0.27392 0.0
H1362 H 0.05333 0.41751 0.2625 0.0
H1363 H 0.0523 0.3779 0.28903 0.0
C1364 C 0.04871 0.33836 0.4099 0.0
C1365 C 0.0809 0.35954 0.40718 0.0
C1366 C 0.02937 0.32568 0.39066 0.0
C1367 C 0.04189 0.33367 0.36834 0.0
C1368 C 0.07401 0.35464 0.36559 0.0
C1369 C 0.0933 0.36747 0.38477 0.0
C1370 C 0.02139 0.32133 0.34781 0.0
C1371 C 0.02193 0.34285 0.33173 0.0
C1372 C 1.00075 0.28891 0.34437 0.0
C1373 C 1.00035 0.26492 0.36001 0.0
C1374 C 0.028 0.26422 0.36458 0.0
C1375 C 0.02751 0.24169 0.37946 0.0
C1376 C 0.99946 0.21958 0.38975 0.0
C1377 C 0.97182 0.2199 0.38514 0.0
C1378 C 0.97219 0.24241 0.37029 0.0
C1379 C 0.95424 0.28773 0.24719 0.0
C1380 C 0.92154 0.27252 0.24984 0.0
C1381 C 0.97372 0.29582 0.26643 0.0
C1382 C 0.96088 0.28885 0.28866 0.0
C1383 C 0.92828 0.27236 0.29137 0.0
C1384 C 0.90875 0.26438 0.27214 0.0
C1385 C 0.98148 0.30054 0.3091 0.0
C1386 C 0.98079 0.27895 0.32516 0.0
C1387 C 0.00214 0.3329 0.31251 0.0
C1388 C 0.00285 0.35689 0.29669 0.0
C1389 C 0.97555 0.35835 0.29239 0.0
C1390 C 0.97632 0.38077 0.27725 0.0
C1391 C 0.00433 0.40204 0.26646 0.0
C1392 C 0.03164 0.40098 0.27084 0.0
C1393 C 0.03098 0.37857 0.28593 0.0
H1394 H 0.00488 0.41938 0.25475 0.0
H1395 H 0.99912 0.20215 0.40127 0.0
H1396 H 0.63102 0.88175 0.43222 0.0
H1397 H 0.64996 0.91483 0.46623 0.0
H1398 H 0.68731 0.99722 0.42339 0.0
H1399 H 0.67014 0.96423 0.389 0.0
H1400 H 0.72619 0.00669 0.45751 0.0
H1401 H 0.61604 0.96799 0.4514 0.0
H1402 H 0.5603 0.92798 0.44758 0.0
H1403 H 0.56445 0.88604 0.51132 0.0
H1404 H 0.62037 0.92556 0.51535 0.0
H1405 H 0.72875 0.11271 0.54206 0.0
H1406 H 0.7175 0.07881 0.50863 0.0
H1407 H 0.69354 1.00018 0.55332 0.0
H1408 H 0.70576 0.03416 0.58702 0.0
H1409 H 0.64894 0.98835 0.519 0.0
H1410 H 0.76003 0.03061 0.52519 0.0
H1411 H 0.81503 0.07274 0.52841 0.0
H1412 H 0.80791 0.11069 0.46362 0.0
H1413 H 0.75269 0.06903 0.46017 0.0
C1414 C 0.64391 0.90689 0.42987 0.0
C1415 C 0.64896 0.92026 0.40774 0.0
C1416 C 0.65435 0.9258 0.44944 0.0
C1417 C 0.66947 0.95851 0.44742 0.0
C1418 C 0.67548 0.97202 0.42538 0.0
C1419 C 0.66537 0.9531 0.40574 0.0
C1420 C 0.67817 0.97851 0.4683 0.0
C1421 C 0.70921 0.00288 0.47082 0.0
C1422 C 0.65613 0.97328 0.48588 0.0
C1423 C 0.62248 0.94954 0.48355 0.0
C1424 C 0.60513 0.95009 0.46451 0.0
C1425 C 0.57349 0.92753 0.46232 0.0
C1426 C 0.55887 0.90443 0.47917 0.0
C1427 C 0.57583 0.90391 0.49827 0.0
C1428 C 0.60749 0.9264 0.50052 0.0
C1429 C 0.72174 0.08837 0.54487 0.0
C1430 C 0.71838 0.07625 0.56731 0.0
C1431 C 0.71515 0.069 0.5257 0.0
C1432 C 0.70493 0.03708 0.52852 0.0
C1433 C 0.70142 0.02479 0.55082 0.0
C1434 C 0.70827 0.04422 0.57004 0.0
C1435 C 0.69688 0.01639 0.50816 0.0
C1436 C 0.66592 0.99198 0.50572 0.0
C1437 C 0.71887 0.02188 0.49055 0.0
C1438 C 0.75213 0.04685 0.49253 0.0
C1439 C 0.77011 0.04808 0.51172 0.0
C1440 C 0.80134 0.07185 0.51357 0.0
C1441 C 0.81494 0.09442 0.49625 0.0
C1442 C 0.79734 0.09321 0.47703 0.0
C1443 C 0.76608 0.06951 0.4751 0.0
H1444 H 0.83912 0.1128 0.49772 0.0
H1445 H 0.53437 0.88698 0.47744 0.0
H1446 H 0.76398 0.65882 0.59638 0.0
H1447 H 0.75221 0.67643 0.63242 0.0
H1448 H 0.67021 0.67101 0.60136 0.0
H1449 H 0.68186 0.65346 0.56521 0.0
H1450 H 0.74442 0.72448 0.64641 0.0
H1451 H 0.61098 0.63922 0.64029 0.0
H1452 H 0.57433 0.58868 0.62214 0.0
H1453 H 0.64539 0.56261 0.6224 0.0
H1454 H 0.68228 0.61276 0.64087 0.0
H1455 H 0.66034 0.75949 0.72979 0.0
H1456 H 0.68169 0.74883 0.69519 0.0
H1457 H 0.66142 0.65969 0.72345 0.0
H1458 H 0.63981 0.67015 0.75804 0.0
H1459 H 0.64084 0.65244 0.68108 0.0
H1460 H 0.73712 0.72143 0.71887 0.0
H1461 H 0.77576 0.76963 0.73869 0.0
H1462 H 0.78283 0.82388 0.6788 0.0
H1463 H 0.74389 0.77604 0.65872 0.0
C1464 C 0.74381 0.66202 0.59705 0.0
C1465 C 0.72365 0.65441 0.57801 0.0
C1466 C 0.73709 0.67202 0.61769 0.0
C1467 C 0.71008 0.67452 0.61967 0.0
C1468 C 0.69088 0.66866 0.60031 0.0
C1469 C 0.69751 0.65856 0.57969 0.0
C1470 C 0.7009 0.68124 0.64234 0.0
C1471 C 0.72176 0.70882 0.654 0.0
C1472 C 0.67165 0.66037 0.65247 0.0
C1473 C 0.64946 0.62989 0.64174 0.0
C1474 C 0.61872 0.62264 0.63656 0.0
C1475 C 0.59792 0.59407 0.62621 0.0
C1476 C 0.60756 0.57249 0.62105 0.0
C1477 C 0.63798 0.57938 0.62633 0.0
C1478 C 0.65886 0.60789 0.63672 0.0
C1479 C 0.66098 0.73788 0.72881 0.0
C1480 C 0.64835 0.71562 0.74661 0.0
C1481 C 0.67318 0.73181 0.70902 0.0
C1482 C 0.67332 0.70353 0.70676 0.0
C1483 C 0.66143 0.68161 0.72477 0.0
C1484 C 0.64906 0.68759 0.74451 0.0
C1485 C 0.68414 0.69601 0.68509 0.0
C1486 C 0.66352 0.66821 0.67356 0.0
C1487 C 0.71387 0.71637 0.67537 0.0
C1488 C 0.73737 0.74518 0.68736 0.0
C1489 C 0.74673 0.74367 0.70998 0.0
C1490 C 0.76872 0.77092 0.72126 0.0
C1491 C 0.78169 0.7998 0.71003 0.0
C1492 C 0.77274 0.80149 0.68748 0.0
C1493 C 0.75074 0.77431 0.67614 0.0
H1494 H 0.79871 0.82087 0.71879 0.0
H1495 H 0.59143 0.55041 0.613 0.0
H1496 H 0.05032 0.72496 0.73602 0.0
H1497 H 0.0188 0.71274 0.77122 0.0
H1498 H 0.09401 0.71452 0.81034 0.0
H1499 H 0.12538 0.7263 0.7753 0.0
H1500 H 0.03692 0.66273 0.81952 0.0
H1501 H 0.08115 0.77443 0.81407 0.0
H1502 H 0.09287 0.82374 0.7949 0.0
H1503 H 0.99458 0.79109 0.78846 0.0
H1504 H 0.98226 0.74137 0.8073 0.0
H1505 H 0.98048 0.65556 0.93127 0.0
H1506 H 0.01419 0.67615 0.89735 0.0
H1507 H 0.94034 0.68049 0.86074 0.0
H1508 H 0.90669 0.66034 0.89474 0.0
H1509 H 0.99625 0.72966 0.84988 0.0
H1510 H 0.95128 0.61829 0.85406 0.0
H1511 H 0.93813 0.56807 0.87239 0.0
H1512 H 0.03586 0.59861 0.8798 0.0
H1513 H 0.04961 0.64923 0.86181 0.0
C1514 C 0.06004 0.72267 0.75214 0.0
C1515 C 0.09034 0.72675 0.75296 0.0
C1516 C 0.04215 0.71593 0.77222 0.0
C1517 C 0.05423 0.71302 0.79338 0.0
C1518 C 0.08435 0.71682 0.79419 0.0
C1519 C 0.10229 0.72375 0.7742 0.0
C1520 C 0.03526 0.70517 0.81467 0.0
C1521 C 0.02838 0.67757 0.82635 0.0
C1522 C 0.02342 0.72412 0.82313 0.0
C1523 C 0.03078 0.75405 0.81188 0.0
C1524 C 0.06203 0.77766 0.80839 0.0
C1525 C 0.06878 0.8057 0.79762 0.0
C1526 C 0.04449 0.81051 0.79041 0.0
C1527 C 0.01338 0.78732 0.79402 0.0
C1528 C 0.00649 0.75921 0.80476 0.0
C1529 C 0.97159 0.66124 0.91606 0.0
C1530 C 0.94088 0.65606 0.91552 0.0
C1531 C 0.99083 0.67296 0.89671 0.0
C1532 C 0.97951 0.67921 0.87638 0.0
C1533 C 0.94949 0.67573 0.87623 0.0
C1534 C 0.93032 0.66428 0.89567 0.0
C1535 C 0.99819 0.68737 0.85488 0.0
C1536 C 0.00488 0.71488 0.8431 0.0
C1537 C 0.00966 0.66819 0.84615 0.0
C1538 C 1.00147 0.63766 0.85679 0.0
C1539 C 0.96997 0.61438 0.85974 0.0
C1540 C 0.96241 0.58583 0.87006 0.0
C1541 C 0.98615 0.58018 0.87731 0.0
C1542 C 0.0175 0.60304 0.8742 0.0
C1543 C 0.02519 0.63166 0.86394 0.0
H1544 H 0.98024 0.55807 0.88529 0.0
H1545 H 0.04976 0.83225 0.78208 0.0
H1546 H 0.23486 0.91873 0.07463 0.0
H1547 H 0.24744 0.95244 0.04067 0.0
H1548 H 0.34267 0.97085 0.04283 0.0
H1549 H 0.33037 0.93797 0.07707 0.0
H1550 H 0.3432 0.0224 0.03375 0.0
H1551 H 0.28618 0.91731 0.00443 0.0
H1552 H 0.24159 0.86348 0.00135 0.0
H1553 H 0.18137 0.89923 0.98189 0.0
H1554 H 0.22555 0.95332 0.98516 0.0
H1555 H 0.39271 0.06635 0.91889 0.0
H1556 H 0.37303 0.03464 0.95383 0.0
H1557 H 0.29262 0.04729 0.95347 0.0
H1558 H 0.31246 0.07951 0.91848 0.0
H1559 H 0.28115 0.98234 0.96192 0.0
H1560 H 0.34225 0.08858 0.98883 0.0
H1561 H 0.3892 0.14107 0.99025 0.0
H1562 H 0.4444 0.10087 0.01271 0.0
H1563 H 0.39785 0.04805 0.01106 0.0
C1564 C 0.25847 0.93008 0.06783 0.0
C1565 C 0.28166 0.92581 0.07846 0.0
C1566 C 0.26562 0.94922 0.0484 0.0
C1567 C 0.29591 0.96386 0.03898 0.0
C1568 C 0.31916 0.9599 0.0498 0.0
C1569 C 0.31214 0.94114 0.06938 0.0
C1570 C 0.30356 0.98316 0.01776 0.0
C1571 C 0.32971 0.01348 0.01804 0.0
C1572 C 0.28565 0.97184 0.99731 0.0
C1573 C 0.25908 0.93936 0.9953 0.0
C1574 C 0.26337 0.9137 0.99967 0.0
C1575 C 0.23819 0.88314 0.99786 0.0
C1576 C 0.20864 0.87794 0.9915 0.0
C1577 C 0.20425 0.90329 0.98686 0.0
C1578 C 0.22936 0.9339 0.98868 0.0
C1579 C 0.37063 0.06202 0.92607 0.0
C1580 C 0.354 0.07523 0.91598 0.0
C1581 C 0.35953 0.04409 0.94606 0.0
C1582 C 0.3315 0.03881 0.95618 0.0
C1583 C 0.31432 0.05118 0.94583 0.0
C1584 C 0.32568 0.06959 0.92597 0.0
C1585 C 0.32089 0.02112 0.978 0.0
C1586 C 0.29429 0.99122 0.97779 0.0
C1587 C 0.33863 0.03257 0.99841 0.0
C1588 C 0.36661 0.06433 0.99963 0.0
C1589 C 0.36445 0.0909 0.99388 0.0
C1590 C 0.39098 0.12072 0.99476 0.0
C1591 C 0.41978 0.12429 0.00152 0.0
C1592 C 0.42208 0.09806 0.00746 0.0
C1593 C 0.39562 0.06818 0.00658 0.0
H1594 H 0.44029 0.1474 0.00219 0.0
H1595 H 0.18918 0.85427 0.9901 0.0
H1596 H 0.29083 0.51609 0.96544 0.0
H1597 H 0.33096 0.56176 0.94448 0.0
H1598 H 0.39476 0.52622 0.95136 0.0
H1599 H 0.35533 0.48151 0.97306 0.0
H1600 H 0.42486 0.58464 0.96017 0.0
H1601 H 0.3544 0.52303 0.89945 0.0
H1602 H 0.30366 0.49437 0.8794 0.0
H1603 H 0.298 0.5784 0.87606 0.0
H1604 H 0.34856 0.60748 0.89636 0.0
H1605 H 0.53115 0.65712 0.86835 0.0
H1606 H 0.48874 0.6208 0.89349 0.0
H1607 H 0.45072 0.6828 0.89435 0.0
H1608 H 0.49365 0.71972 0.86929 0.0
H1609 H 0.40643 0.61726 0.88368 0.0
H1610 H 0.48248 0.6793 0.94094 0.0
H1611 H 0.53499 0.70578 0.95853 0.0
H1612 H 0.53156 0.61747 0.96584 0.0
H1613 H 0.47919 0.59049 0.94799 0.0
C1614 C 0.31338 0.51802 0.96231 0.0
C1615 C 0.31998 0.49528 0.97086 0.0
C1616 C 0.33629 0.54407 0.95028 0.0
C1617 C 0.36593 0.54743 0.94613 0.0
C1618 C 0.37223 0.52439 0.95443 0.0
C1619 C 0.3496 0.49873 0.96676 0.0
C1620 C 0.39076 0.57503 0.93352 0.0
C1621 C 0.42077 0.59154 0.94338 0.0
C1622 C 0.38544 0.58476 0.91184 0.0
C1623 C 0.35505 0.56732 0.89967 0.0
C1624 C 0.3422 0.53533 0.89461 0.0
C1625 C 0.31351 0.51902 0.88317 0.0
C1626 C 0.29757 0.53453 0.87653 0.0
C1627 C 0.31034 0.5664 0.88126 0.0
C1628 C 0.33902 0.58281 0.89272 0.0
C1629 C 0.51395 0.6632 0.87407 0.0
C1630 C 0.51569 0.69126 0.86693 0.0
C1631 C 0.48977 0.64245 0.88844 0.0
C1632 C 0.46667 0.64917 0.89579 0.0
C1633 C 0.4684 0.67727 0.88886 0.0
C1634 C 0.49297 0.69838 0.87471 0.0
C1635 C 0.44037 0.62609 0.91016 0.0
C1636 C 0.41021 0.61051 0.90064 0.0
C1637 C 0.44563 0.6168 0.93194 0.0
C1638 C 0.47697 0.6329 0.94298 0.0
C1639 C 0.493 0.66555 0.94615 0.0
C1640 C 0.52273 0.68064 0.9562 0.0
C1641 C 0.53663 0.66332 0.96326 0.0
C1642 C 0.52077 0.63086 0.96036 0.0
C1643 C 0.49104 0.61565 0.95031 0.0
H1644 H 0.55966 0.67506 0.97102 0.0
H1645 H 0.27536 0.52187 0.86767 0.0
H1646 H 0.78686 0.50805 0.04597 0.0
H1647 H 0.78204 0.46675 0.07221 0.0
H1648 H 0.86432 0.47193 0.04177 0.0
H1649 H 0.86977 0.51347 0.01626 0.0
H1650 H 0.77288 0.40996 0.06681 0.0
H1651 H 0.90722 0.4605 0.08001 0.0
H1652 H 0.9552 0.51212 0.08284 0.0
H1653 H 0.90063 0.55393 0.10316 0.0
H1654 H 0.85239 0.50253 0.1008 0.0
H1655 H 0.80031 0.28994 0.10708 0.0
H1656 H 0.79749 0.33186 0.08652 0.0
H1657 H 0.84053 0.39352 0.14457 0.0
H1658 H 0.84521 0.35237 0.16432 0.0
H1659 H 0.86591 0.42478 0.11024 0.0
H1660 H 0.75874 0.35852 0.12861 0.0
H1661 H 0.70782 0.30971 0.13104 0.0
H1662 H 0.70267 0.30396 0.05724 0.0
H1663 H 0.7538 0.35248 0.05435 0.0
C1664 C 0.80395 0.50042 0.04502 0.0
C1665 C 0.82889 0.51426 0.02926 0.0
C1666 C 0.80112 0.47677 0.05993 0.0
C1667 C 0.82313 0.46658 0.05925 0.0
C1668 C 0.84749 0.47988 0.04306 0.0
C1669 C 0.85051 0.50362 0.02841 0.0
C1670 C 0.82102 0.4421 0.07532 0.0
C1671 C 0.79313 0.41318 0.07643 0.0
C1672 C 0.84713 0.44662 0.08846 0.0
C1673 C 0.87614 0.47764 0.09005 0.0
C1674 C 0.90547 0.48067 0.08519 0.0
C1675 C 0.93271 0.50991 0.08669 0.0
C1676 C 0.93095 0.53628 0.09315 0.0
C1677 C 0.90195 0.53349 0.09811 0.0
C1678 C 0.87465 0.50431 0.09666 0.0
C1679 C 0.80901 0.31245 0.1154 0.0
C1680 C 0.82311 0.31804 0.13719 0.0
C1681 C 0.80718 0.33636 0.10374 0.0
C1682 C 0.81842 0.36594 0.11403 0.0
C1683 C 0.83184 0.37111 0.1361 0.0
C1684 C 0.83446 0.34755 0.14742 0.0
C1685 C 0.81789 0.39207 0.10143 0.0
C1686 C 0.84542 0.42142 0.10088 0.0
C1687 C 0.79102 0.38826 0.08964 0.0
C1688 C 0.76027 0.35901 0.09127 0.0
C1689 C 0.74687 0.34672 0.11289 0.0
C1690 C 0.71795 0.31912 0.11436 0.0
C1691 C 0.70206 0.3037 0.09431 0.0
C1692 C 0.71503 0.3159 0.07275 0.0
C1693 C 0.74397 0.34347 0.07119 0.0
H1694 H 0.67966 0.28235 0.09548 0.0
H1695 H 0.95206 0.55887 0.0944 0.0
H1696 H 0.52869 0.87047 0.28996 0.0
H1697 H 0.48274 0.86606 0.2707 0.0
H1698 H 0.43811 0.76527 0.27341 0.0
H1699 H 0.48513 0.76975 0.29169 0.0
H1700 H 0.4224 0.78061 0.23491 0.0
H1701 H 0.41966 0.80738 0.31262 0.0
H1702 H 0.4392 0.83593 0.34924 0.0
H1703 H 0.45373 0.92049 0.31691 0.0
H1704 H 0.43472 0.89256 0.27998 0.0
H1705 H 0.27758 0.77675 0.20873 0.0
H1706 H 0.31582 0.77082 0.23209 0.0
H1707 H 0.38446 0.86752 0.21955 0.0
H1708 H 0.34663 0.87356 0.19615 0.0
H1709 H 0.38107 0.84633 0.26671 0.0
H1710 H 0.38691 0.81483 0.18711 0.0
H1711 H 0.35777 0.78171 0.15396 0.0
H1712 H 0.32873 0.69913 0.19481 0.0
H1713 H 0.35733 0.73181 0.22832 0.0
C1714 C 0.50919 0.84737 0.28627 0.0
C1715 C 0.5103 0.82045 0.29247 0.0
C1716 C 0.48281 0.84483 0.27538 0.0
C1717 C 0.45647 0.81532 0.27118 0.0
C1718 C 0.45799 0.78831 0.27659 0.0
C1719 C 0.48482 0.79087 0.28704 0.0
C1720 C 0.42734 0.81313 0.26174 0.0
C1721 C 0.41317 0.79464 0.24213 0.0
C1722 C 0.4147 0.83097 0.27125 0.0
C1723 C 0.42595 0.8479 0.29347 0.0
C1724 C 0.4272 0.83211 0.31328 0.0
C1725 C 0.43817 0.84818 0.3341 0.0
C1726 C 0.44775 0.88002 0.33539 0.0
C1727 C 0.44631 0.89583 0.31587 0.0
C1728 C 0.4354 0.87988 0.295 0.0
C1729 C 0.30072 0.7968 0.2112 0.0
C1730 C 0.30922 0.82557 0.20053 0.0
C1731 C 0.3225 0.79337 0.22449 0.0
C1732 C 0.35296 0.81872 0.22742 0.0
C1733 C 0.36105 0.84772 0.21751 0.0
C1734 C 0.33947 0.85107 0.20405 0.0
C1735 C 0.37722 0.81491 0.23962 0.0
C1736 C 0.39031 0.83216 0.25976 0.0
C1737 C 0.3882 0.7953 0.231 0.0
C1738 C 0.37404 0.77574 0.21024 0.0
C1739 C 0.37444 0.7896 0.18897 0.0
C1740 C 0.35793 0.77093 0.17016 0.0
C1741 C 0.34117 0.73837 0.17237 0.0
C1742 C 0.34158 0.72437 0.19319 0.0
C1743 C 0.35799 0.74295 0.21209 0.0
H1744 H 0.32777 0.724 0.15797 0.0
H1745 H 0.45624 0.89242 0.35152 0.0
H1746 H 0.48161 0.35236 0.35789 0.0
H1747 H 0.52729 0.39361 0.3775 0.0
H1748 H 0.56311 0.33053 0.38763 0.0
H1749 H 0.51646 0.28855 0.36864 0.0
H1750 H 0.57418 0.36488 0.42453 0.0
H1751 H 0.59274 0.38767 0.34499 0.0
H1752 H 0.58149 0.3958 0.30503 0.0
H1753 H 0.57229 0.47411 0.3266 0.0
H1754 H 0.58301 0.46617 0.36677 0.0
H1755 H 0.7223 0.49833 0.45557 0.0
H1756 H 0.68448 0.45407 0.4321 0.0
H1757 H 0.62357 0.49334 0.43085 0.0
H1758 H 0.66089 0.53724 0.45456 0.0
H1759 H 0.63143 0.46918 0.38705 0.0
H1760 H 0.60903 0.44053 0.4682 0.0
H1761 H 0.62464 0.43284 0.50693 0.0
H1762 H 0.64627 0.36481 0.47987 0.0
H1763 H 0.63137 0.37256 0.44087 0.0
C1764 C 0.49915 0.34721 0.36436 0.0
C1765 C 0.49563 0.31733 0.36158 0.0
C1766 C 0.52538 0.37088 0.37546 0.0
C1767 C 0.54912 0.36549 0.38353 0.0
C1768 C 0.54523 0.33534 0.3814 0.0
C1769 C 0.51861 0.31139 0.37056 0.0
C1770 C 0.57784 0.39155 0.39406 0.0
C1771 C 0.58701 0.38748 0.41611 0.0
C1772 C 0.59479 0.42114 0.38313 0.0
C1773 C 0.58847 0.42616 0.35895 0.0
C1774 C 0.58811 0.4065 0.34125 0.0
C1775 C 0.58185 0.41109 0.31855 0.0
C1776 C 0.57612 0.43542 0.31328 0.0
C1777 C 0.57671 0.45526 0.33071 0.0
C1778 C 0.58292 0.45074 0.35345 0.0
C1779 C 0.70104 0.49772 0.44998 0.0
C1780 C 0.69441 0.5211 0.45691 0.0
C1781 C 0.67947 0.47242 0.43668 0.0
C1782 C 0.65123 0.47045 0.4299 0.0
C1783 C 0.64526 0.49451 0.43594 0.0
C1784 C 0.66652 0.51947 0.44952 0.0
C1785 C 0.62696 0.44259 0.41758 0.0
C1786 C 0.61874 0.44638 0.39521 0.0
C1787 C 0.61137 0.41268 0.42802 0.0
C1788 C 0.61942 0.40737 0.45158 0.0
C1789 C 0.61732 0.42409 0.47048 0.0
C1790 C 0.62603 0.41972 0.49248 0.0
C1791 C 0.63652 0.39841 0.49584 0.0
C1792 C 0.63819 0.38135 0.47723 0.0
C1793 C 0.62962 0.38572 0.45517 0.0
H1794 H 0.64328 0.39508 0.51288 0.0
H1795 H 0.57128 0.43894 0.2957 0.0
H1796 H 0.12662 0.47934 0.52442 0.0
H1797 H 0.13094 0.5243 0.54524 0.0
H1798 H 0.23055 0.56196 0.55226 0.0
H1799 H 0.226 0.51605 0.53222 0.0
H1800 H 0.20954 0.57249 0.58997 0.0
H1801 H 0.19828 0.58988 0.51104 0.0
H1802 H 0.17519 0.57769 0.47214 0.0
H1803 H 0.08955 0.56789 0.49886 0.0
H1804 H 0.11194 0.57953 0.538 0.0
H1805 H 0.22877 0.72344 0.62002 0.0
H1806 H 0.23222 0.6835 0.59689 0.0
H1807 H 0.13224 0.62326 0.60214 0.0
H1808 H 0.12874 0.66262 0.62564 0.0
H1809 H 0.15941 0.62905 0.55619 0.0
H1810 H 0.1731 0.60946 0.63628 0.0
H1811 H 0.19942 0.62432 0.67403 0.0
H1812 H 0.28572 0.64237 0.64265 0.0
H1813 H 0.26006 0.62832 0.60461 0.0
C1814 C 0.14942 0.49711 0.53053 0.0
C1815 C 0.17601 0.49435 0.52659 0.0
C1816 C 0.15192 0.52294 0.5423 0.0
C1817 C 0.18122 0.54705 0.5498 0.0
C1818 C 0.20772 0.54382 0.54651 0.0
C1819 C 0.20511 0.5176 0.53508 0.0
C1820 C 0.18397 0.57554 0.56091 0.0
C1821 C 0.19905 0.58515 0.58234 0.0
C1822 C 0.17028 0.59219 0.55106 0.0
C1823 C 0.15673 0.58535 0.52751 0.0
C1824 C 0.17445 0.58492 0.50866 0.0
C1825 C 0.16149 0.57813 0.48656 0.0
C1826 C 0.1309 0.57196 0.48304 0.0
C1827 C 0.11323 0.57264 0.50161 0.0
C1828 C 0.12606 0.57937 0.52376 0.0
C1829 C 0.20753 0.70182 0.61598 0.0
C1830 C 0.17849 0.69602 0.62461 0.0
C1831 C 0.20955 0.67904 0.60288 0.0
C1832 C 0.18249 0.65045 0.59794 0.0
C1833 C 0.15337 0.64519 0.6058 0.0
C1834 C 0.15142 0.66762 0.61925 0.0
C1835 C 0.18435 0.62537 0.58527 0.0
C1836 C 0.17018 0.6165 0.56357 0.0
C1837 C 0.1994 0.60985 0.59465 0.0
C1838 C 0.21476 0.61825 0.61754 0.0
C1839 C 0.19777 0.61696 0.63738 0.0
C1840 C 0.21256 0.62519 0.65884 0.0
C1841 C 0.24425 0.6344 0.66073 0.0
C1842 C 0.2612 0.63533 0.64116 0.0
C1843 C 0.24655 0.62727 0.61964 0.0
H1844 H 0.25565 0.64072 0.67737 0.0
H1845 H 0.12091 0.56671 0.46591 0.0
H1846 H 0.70768 0.22084 0.69265 0.0
H1847 H 0.66821 0.22415 0.71613 0.0
H1848 H 0.61052 0.12342 0.71438 0.0
H1849 H 0.64913 0.12034 0.68982 0.0
H1850 H 0.57488 0.14537 0.70875 0.0
H1851 H 0.656 0.16804 0.76351 0.0
H1852 H 0.70944 0.19538 0.77955 0.0
H1853 H 0.70841 0.28195 0.77993 0.0
H1854 H 0.65509 0.25519 0.76361 0.0
H1855 H 0.47725 0.12528 0.80475 0.0
H1856 H 0.51845 0.12714 0.78027 0.0
H1857 H 0.55539 0.22593 0.7692 0.0
H1858 H 0.51386 0.22421 0.79362 0.0
H1859 H 0.60133 0.20786 0.78063 0.0
H1860 H 0.51449 0.17868 0.72881 0.0
H1861 H 0.4596 0.14621 0.71643 0.0
H1862 H 0.47069 0.06527 0.71397 0.0
H1863 H 0.52527 0.09698 0.72704 0.0
C1864 C 0.68662 0.19945 0.69742 0.0
C1865 C 0.68144 0.17034 0.68949 0.0
C1866 C 0.6641 0.20131 0.71094 0.0
C1867 C 0.63642 0.174 0.71741 0.0
C1868 C 0.63152 0.14488 0.70963 0.0
C1869 C 0.65366 0.1431 0.69565 0.0
C1870 C 0.61216 0.1756 0.73178 0.0
C1871 C 0.58076 0.15877 0.7246 0.0
C1872 C 0.61963 0.19351 0.75232 0.0
C1873 C 0.6517 0.20968 0.7621 0.0
C1874 C 0.66727 0.19296 0.76685 0.0
C1875 C 0.69752 0.20834 0.77601 0.0
C1876 C 0.71235 0.2404 0.78069 0.0
C1877 C 0.69692 0.25713 0.77626 0.0
C1878 C 0.66668 0.24186 0.76707 0.0
C1879 C 0.49413 0.14744 0.79714 0.0
C1880 C 0.4923 0.17461 0.80105 0.0
C1881 C 0.51761 0.14842 0.78311 0.0
C1882 C 0.53982 0.17662 0.77283 0.0
C1883 C 0.5384 0.20394 0.77697 0.0
C1884 C 0.51464 0.20289 0.79082 0.0
C1885 C 0.56437 0.17733 0.75768 0.0
C1886 C 0.59571 0.19464 0.7647 0.0
C1887 C 0.55676 0.15918 0.73735 0.0
C1888 C 0.52395 0.1402 0.72914 0.0
C1889 C 0.50513 0.15389 0.72587 0.0
C1890 C 0.47403 0.13559 0.71874 0.0
C1891 C 0.46156 0.10363 0.71455 0.0
C1892 C 0.48024 0.08995 0.71738 0.0
C1893 C 0.51127 0.10808 0.72465 0.0
H1894 H 0.43748 0.08949 0.70904 0.0
H1895 H 0.73576 0.25227 0.78779 0.0
loop_
_geom_bond_atom_site_label_1
_geom_bond_atom_site_label_2
_geom_bond_distance
_geom_bond_site_symmetry_2
_ccdc_geom_bond_type
Co0 N4 2.163 . S
Co0 N10 2.110 1_556 S
Co0 N20 2.169 1_556 S
Co0 O25 2.363 . S
Co0 O26 2.183 . S
Co0 O27 2.101 . S
C1 N4 1.301 . S
C1 N5 1.328 . S
C1 H6 0.930 . S
C2 C3 1.333 . S
C2 N4 1.317 . S
C2 H7 0.930 . S
C3 C2 1.333 . S
C3 N5 1.350 . S
C3 H29 0.931 . S
N4 Co0 2.163 . S
N4 C1 1.301 . S
N4 C2 1.317 . S
N5 C1 1.328 . S
N5 C3 1.350 . S
H6 C1 0.930 . S
H7 C2 0.930 . S
C8 O9 1.224 . S
C8 O27 1.247 1_554 S
O9 C8 1.224 . S
N10 Co0 2.110 1_554 S
N10 C11 1.355 . S
N10 C13 1.311 . S
C11 N10 1.355 . S
C11 C12 1.363 . S
C11 H23 0.929 . S
C12 C11 1.363 . S
C12 N14 1.375 . S
C12 H30 0.931 . S
C13 N10 1.311 . S
C13 N14 1.347 . S
C13 H24 0.929 . S
N14 C12 1.375 . S
N14 C13 1.347 . S
C15 C18 1.365 . S
C15 N20 1.328 . S
C15 H21 0.929 . S
C16 C17 1.362 . S
C16 C19 1.378 . S
C16 H31 0.929 . S
C17 C16 1.362 . S
C17 C18 1.366 . S
C18 C15 1.365 . S
C18 C17 1.366 . S
C18 H32 0.930 . S
C19 C16 1.378 . S
C19 N20 1.315 . S
C19 H22 0.930 . S
N20 Co0 2.169 1_554 S
N20 C15 1.328 . S
N20 C19 1.315 . S
H21 C15 0.929 . S
H22 C19 0.930 . S
H23 C11 0.929 . S
H24 C13 0.929 . S
O25 Co0 2.363 . S
O25 C28 1.244 . S
O26 Co0 2.183 . S
O26 C28 1.240 . S
O27 Co0 2.101 . S
O27 C8 1.247 1_556 S
C28 O25 1.244 . S
C28 O26 1.240 . S
H29 C3 0.931 . S
H30 C12 0.931 . S
H31 C16 0.929 . S
H32 C18 0.930 . S
Co33 N37 2.148 . S
Co33 N43 2.128 . S
Co33 N53 2.194 . S
Co33 O58 2.351 . S
Co33 O59 2.155 . S
Co33 O60 2.096 . S
C34 N37 1.301 . S
C34 N38 1.328 . S
C34 H39 0.930 . S
C35 C36 1.333 . S
C35 N37 1.317 . S
C35 H40 0.930 . S
C36 C35 1.333 . S
C36 N38 1.350 . S
C36 H62 0.931 . S
N37 Co33 2.148 . S
N37 C34 1.301 . S
N37 C35 1.317 . S
N38 C34 1.328 . S
N38 C36 1.350 . S
H39 C34 0.930 . S
H40 C35 0.930 . S
C41 O42 1.224 . S
C41 O60 1.247 . S
O42 C41 1.224 . S
N43 Co33 2.128 . S
N43 C44 1.355 . S
N43 C46 1.311 . S
C44 N43 1.355 . S
C44 C45 1.363 . S
C44 H56 0.929 . S
C45 C44 1.363 . S
C45 N47 1.375 . S
C45 H63 0.931 . S
C46 N43 1.311 . S
C46 N47 1.347 . S
C46 H57 0.929 . S
N47 C45 1.375 . S
N47 C46 1.347 . S
C48 C51 1.365 . S
C48 N53 1.328 . S
C48 H54 0.929 . S
C49 C50 1.362 . S
C49 C52 1.378 . S
C49 H64 0.929 . S
C50 C49 1.362 . S
C50 C51 1.366 . S
C51 C48 1.365 . S
C51 C50 1.366 . S
C51 H65 0.930 . S
C52 C49 1.378 . S
C52 N53 1.315 . S
C52 H55 0.930 . S
N53 Co33 2.194 . S
N53 C48 1.328 . S
N53 C52 1.315 . S
H54 C48 0.929 . S
H55 C52 0.930 . S
H56 C44 0.929 . S
H57 C46 0.929 . S
O58 Co33 2.351 . S
O58 C61 1.244 . S
O59 Co33 2.155 . S
O59 C61 1.240 . S
O60 Co33 2.096 . S
O60 C41 1.247 . S
C61 O58 1.244 . S
C61 O59 1.240 . S
H62 C36 0.931 . S
H63 C45 0.931 . S
H64 C49 0.929 . S
H65 C51 0.930 . S
Co66 N70 2.148 . S
Co66 N76 2.128 . S
Co66 N86 2.194 . S
Co66 O91 2.351 . S
Co66 O92 2.155 . S
Co66 O93 2.096 . S
C67 N70 1.301 . S
C67 N71 1.328 . S
C67 H72 0.930 . S
C68 C69 1.333 . S
C68 N70 1.317 . S
C68 H73 0.930 . S
C69 C68 1.333 . S
C69 N71 1.350 . S
C69 H95 0.931 . S
N70 Co66 2.148 . S
N70 C67 1.301 . S
N70 C68 1.317 . S
N71 C67 1.328 . S
N71 C69 1.350 . S
H72 C67 0.930 . S
H73 C68 0.930 . S
C74 O75 1.224 . S
C74 O93 1.247 . S
O75 C74 1.224 . S
N76 Co66 2.128 . S
N76 C77 1.355 . S
N76 C79 1.311 . S
C77 N76 1.355 . S
C77 C78 1.363 . S
C77 H89 0.929 . S
C78 C77 1.363 . S
C78 N80 1.375 . S
C78 H96 0.931 . S
C79 N76 1.311 . S
C79 N80 1.347 . S
C79 H90 0.929 . S
N80 C78 1.375 . S
N80 C79 1.347 . S
C81 C84 1.365 . S
C81 N86 1.328 . S
C81 H87 0.929 . S
C82 C83 1.362 . S
C82 C85 1.378 . S
C82 H97 0.929 . S
C83 C82 1.362 . S
C83 C84 1.366 . S
C84 C81 1.365 . S
C84 C83 1.366 . S
C84 H98 0.930 . S
C85 C82 1.378 . S
C85 N86 1.315 . S
C85 H88 0.930 . S
N86 Co66 2.194 . S
N86 C81 1.328 . S
N86 C85 1.315 . S
H87 C81 0.929 . S
H88 C85 0.930 . S
H89 C77 0.929 . S
H90 C79 0.929 . S
O91 Co66 2.351 . S
O91 C94 1.244 . S
O92 Co66 2.155 . S
O92 C94 1.240 . S
O93 Co66 2.096 . S
O93 C74 1.247 . S
C94 O91 1.244 . S
C94 O92 1.240 . S
H95 C69 0.931 . S
H96 C78 0.931 . S
H97 C82 0.929 . S
H98 C84 0.930 . S
Co99 N103 2.148 . S
Co99 N109 2.128 . S
Co99 N119 2.194 . S
Co99 O124 2.351 . S
Co99 O125 2.155 . S
Co99 O126 2.096 . S
C100 N103 1.301 . S
C100 N104 1.328 . S
C100 H105 0.930 . S
C101 C102 1.333 . S
C101 N103 1.317 . S
C101 H106 0.930 . S
C102 C101 1.333 . S
C102 N104 1.350 . S
C102 H128 0.931 . S
N103 Co99 2.148 . S
N103 C100 1.301 . S
N103 C101 1.317 . S
N104 C100 1.328 . S
N104 C102 1.350 . S
H105 C100 0.930 . S
H106 C101 0.930 . S
C107 O108 1.224 . S
C107 O126 1.247 . S
O108 C107 1.224 . S
N109 Co99 2.128 . S
N109 C110 1.355 . S
N109 C112 1.311 . S
C110 N109 1.355 . S
C110 C111 1.363 . S
C110 H122 0.929 . S
C111 C110 1.363 . S
C111 N113 1.375 . S
C111 H129 0.931 . S
C112 N109 1.311 . S
C112 N113 1.347 . S
C112 H123 0.929 . S
N113 C111 1.375 . S
N113 C112 1.347 . S
C114 C117 1.365 . S
C114 N119 1.328 . S
C114 H120 0.929 . S
C115 C116 1.362 . S
C115 C118 1.378 . S
C115 H130 0.929 . S
C116 C115 1.362 . S
C116 C117 1.366 . S
C117 C114 1.365 . S
C117 C116 1.366 . S
C117 H131 0.930 . S
C118 C115 1.378 . S
C118 N119 1.315 . S
C118 H121 0.930 . S
N119 Co99 2.194 . S
N119 C114 1.328 . S
N119 C118 1.315 . S
H120 C114 0.929 . S
H121 C118 0.930 . S
H122 C110 0.929 . S
H123 C112 0.929 . S
O124 Co99 2.351 . S
O124 C127 1.244 . S
O125 Co99 2.155 . S
O125 C127 1.240 . S
O126 Co99 2.096 . S
O126 C107 1.247 . S
C127 O124 1.244 . S
C127 O125 1.240 . S
H128 C102 0.931 . S
H129 C111 0.931 . S
H130 C115 0.929 . S
H131 C117 0.930 . S
Co132 N136 2.148 . S
Co132 N142 2.128 . S
Co132 N152 2.194 . S
Co132 O157 2.351 . S
Co132 O158 2.155 . S
Co132 O159 2.096 . S
C133 N136 1.301 . S
C133 N137 1.328 . S
C133 H138 0.930 . S
C134 C135 1.333 . S
C134 N136 1.317 . S
C134 H139 0.930 . S
C135 C134 1.333 . S
C135 N137 1.350 . S
C135 H161 0.931 . S
N136 Co132 2.148 . S
N136 C133 1.301 . S
N136 C134 1.317 . S
N137 C133 1.328 . S
N137 C135 1.350 . S
H138 C133 0.930 . S
H139 C134 0.930 . S
C140 O141 1.224 . S
C140 O159 1.247 . S
O141 C140 1.224 . S
N142 Co132 2.128 . S
N142 C143 1.355 . S
N142 C145 1.311 . S
C143 N142 1.355 . S
C143 C144 1.363 . S
C143 H155 0.929 . S
C144 C143 1.363 . S
C144 N146 1.375 . S
C144 H162 0.931 . S
C145 N142 1.311 . S
C145 N146 1.347 . S
C145 H156 0.929 . S
N146 C144 1.375 . S
N146 C145 1.347 . S
C147 C150 1.365 . S
C147 N152 1.328 . S
C147 H153 0.929 . S
C148 C149 1.362 . S
C148 C151 1.378 . S
C148 H163 0.929 . S
C149 C148 1.362 . S
C149 C150 1.366 . S
C150 C147 1.365 . S
C150 C149 1.366 . S
C150 H164 0.930 . S
C151 C148 1.378 . S
C151 N152 1.315 . S
C151 H154 0.930 . S
N152 Co132 2.194 . S
N152 C147 1.328 . S
N152 C151 1.315 . S
H153 C147 0.929 . S
H154 C151 0.930 . S
H155 C143 0.929 . S
H156 C145 0.929 . S
O157 Co132 2.351 . S
O157 C160 1.244 . S
O158 Co132 2.155 . S
O158 C160 1.240 . S
O159 Co132 2.096 . S
O159 C140 1.247 . S
C160 O157 1.244 . S
C160 O158 1.240 . S
H161 C135 0.931 . S
H162 C144 0.931 . S
H163 C148 0.929 . S
H164 C150 0.930 . S
Co165 N169 2.148 . S
Co165 N175 2.128 . S
Co165 N185 2.194 . S
Co165 O190 2.351 . S
Co165 O191 2.155 . S
Co165 O192 2.096 . S
C166 N169 1.301 . S
C166 N170 1.328 . S
C166 H171 0.930 . S
C167 C168 1.333 . S
C167 N169 1.317 . S
C167 H172 0.930 . S
C168 C167 1.333 . S
C168 N170 1.350 . S
C168 H194 0.931 . S
N169 Co165 2.148 . S
N169 C166 1.301 . S
N169 C167 1.317 . S
N170 C166 1.328 . S
N170 C168 1.350 . S
H171 C166 0.930 . S
H172 C167 0.930 . S
C173 O174 1.224 . S
C173 O192 1.247 . S
O174 C173 1.224 . S
N175 Co165 2.128 . S
N175 C176 1.355 . S
N175 C178 1.311 . S
C176 N175 1.355 . S
C176 C177 1.363 . S
C176 H188 0.929 . S
C177 C176 1.363 . S
C177 N179 1.375 . S
C177 H195 0.931 . S
C178 N175 1.311 . S
C178 N179 1.347 . S
C178 H189 0.929 . S
N179 C177 1.375 . S
N179 C178 1.347 . S
C180 C183 1.365 . S
C180 N185 1.328 . S
C180 H186 0.929 . S
C181 C182 1.362 . S
C181 C184 1.378 . S
C181 H196 0.929 . S
C182 C181 1.362 . S
C182 C183 1.366 . S
C183 C180 1.365 . S
C183 C182 1.366 . S
C183 H197 0.930 . S
C184 C181 1.378 . S
C184 N185 1.315 . S
C184 H187 0.930 . S
N185 Co165 2.194 . S
N185 C180 1.328 . S
N185 C184 1.315 . S
H186 C180 0.929 . S
H187 C184 0.930 . S
H188 C176 0.929 . S
H189 C178 0.929 . S
O190 Co165 2.351 . S
O190 C193 1.244 . S
O191 Co165 2.155 . S
O191 C193 1.240 . S
O192 Co165 2.096 . S
O192 C173 1.247 . S
C193 O190 1.244 . S
C193 O191 1.240 . S
H194 C168 0.931 . S
H195 C177 0.931 . S
H196 C181 0.929 . S
H197 C183 0.930 . S
Co198 N202 2.148 . S
Co198 N208 2.128 . S
Co198 N218 2.194 . S
Co198 O223 2.351 . S
Co198 O224 2.155 . S
Co198 O225 2.096 . S
C199 N202 1.301 . S
C199 N203 1.328 . S
C199 H204 0.930 . S
C200 C201 1.333 . S
C200 N202 1.317 . S
C200 H205 0.930 . S
C201 C200 1.333 . S
C201 N203 1.350 . S
C201 H227 0.931 . S
N202 Co198 2.148 . S
N202 C199 1.301 . S
N202 C200 1.317 . S
N203 C199 1.328 . S
N203 C201 1.350 . S
H204 C199 0.930 . S
H205 C200 0.930 . S
C206 O207 1.224 . S
C206 O225 1.247 . S
O207 C206 1.224 . S
N208 Co198 2.128 . S
N208 C209 1.355 . S
N208 C211 1.311 . S
C209 N208 1.355 . S
C209 C210 1.363 . S
C209 H221 0.929 . S
C210 C209 1.363 . S
C210 N212 1.375 . S
C210 H228 0.931 . S
C211 N208 1.311 . S
C211 N212 1.347 . S
C211 H222 0.929 . S
N212 C210 1.375 . S
N212 C211 1.347 . S
C213 C216 1.365 . S
C213 N218 1.328 . S
C213 H219 0.929 . S
C214 C215 1.362 . S
C214 C217 1.378 . S
C214 H229 0.929 . S
C215 C214 1.362 . S
C215 C216 1.366 . S
C216 C213 1.365 . S
C216 C215 1.366 . S
C216 H230 0.930 . S
C217 C214 1.378 . S
C217 N218 1.315 . S
C217 H220 0.930 . S
N218 Co198 2.194 . S
N218 C213 1.328 . S
N218 C217 1.315 . S
H219 C213 0.929 . S
H220 C217 0.930 . S
H221 C209 0.929 . S
H222 C211 0.929 . S
O223 Co198 2.351 . S
O223 C226 1.244 . S
O224 Co198 2.155 . S
O224 C226 1.240 . S
O225 Co198 2.096 . S
O225 C206 1.247 . S
C226 O223 1.244 . S
C226 O224 1.240 . S
H227 C201 0.931 . S
H228 C210 0.931 . S
H229 C214 0.929 . S
H230 C216 0.930 . S
Co231 N235 2.148 1_556 S
Co231 N241 2.128 . S
Co231 N251 2.194 . S
Co231 O256 2.351 1_556 S
Co231 O257 2.155 1_556 S
Co231 O258 2.096 . S
C232 N235 1.301 . S
C232 N236 1.328 . S
C232 H237 0.930 . S
C233 C234 1.333 . S
C233 N235 1.317 . S
C233 H238 0.930 . S
C234 C233 1.333 . S
C234 N236 1.350 . S
C234 H260 0.931 . S
N235 Co231 2.148 1_554 S
N235 C232 1.301 . S
N235 C233 1.317 . S
N236 C232 1.328 . S
N236 C234 1.350 . S
H237 C232 0.930 . S
H238 C233 0.930 . S
C239 O240 1.224 . S
C239 O258 1.247 . S
O240 C239 1.224 . S
N241 Co231 2.128 . S
N241 C242 1.355 . S
N241 C244 1.311 . S
C242 N241 1.355 . S
C242 C243 1.363 . S
C242 H254 0.929 . S
C243 C242 1.363 . S
C243 N245 1.375 . S
C243 H261 0.931 . S
C244 N241 1.311 . S
C244 N245 1.347 . S
C244 H255 0.929 . S
N245 C243 1.375 . S
N245 C244 1.347 . S
C246 C249 1.365 . S
C246 N251 1.328 . S
C246 H252 0.929 . S
C247 C248 1.362 . S
C247 C250 1.378 . S
C247 H262 0.929 . S
C248 C247 1.362 . S
C248 C249 1.366 . S
C249 C246 1.365 . S
C249 C248 1.366 . S
C249 H263 0.930 . S
C250 C247 1.378 . S
C250 N251 1.315 . S
C250 H253 0.930 . S
N251 Co231 2.194 . S
N251 C246 1.328 . S
N251 C250 1.315 . S
H252 C246 0.929 . S
H253 C250 0.930 . S
H254 C242 0.929 . S
H255 C244 0.929 . S
O256 Co231 2.351 1_554 S
O256 C259 1.244 . S
O257 Co231 2.155 1_554 S
O257 C259 1.240 . S
O258 Co231 2.096 . S
O258 C239 1.247 . S
C259 O256 1.244 . S
C259 O257 1.240 . S
H260 C234 0.931 . S
H261 C243 0.931 . S
H262 C247 0.929 . S
H263 C249 0.930 . S
Co264 N268 2.148 . S
Co264 N274 2.128 . S
Co264 N284 2.194 . S
Co264 O289 2.351 . S
Co264 O290 2.155 . S
Co264 O291 2.096 . S
C265 N268 1.301 . S
C265 N269 1.328 . S
C265 H270 0.930 . S
C266 C267 1.333 . S
C266 N268 1.317 . S
C266 H271 0.930 . S
C267 C266 1.333 . S
C267 N269 1.350 . S
C267 H293 0.931 . S
N268 Co264 2.148 . S
N268 C265 1.301 . S
N268 C266 1.317 . S
N269 C265 1.328 . S
N269 C267 1.350 . S
H270 C265 0.930 . S
H271 C266 0.930 . S
C272 O273 1.224 . S
C272 O291 1.247 . S
O273 C272 1.224 . S
N274 Co264 2.128 . S
N274 C275 1.355 . S
N274 C277 1.311 . S
C275 N274 1.355 . S
C275 C276 1.363 . S
C275 H287 0.929 . S
C276 C275 1.363 . S
C276 N278 1.375 . S
C276 H294 0.931 . S
C277 N274 1.311 . S
C277 N278 1.347 . S
C277 H288 0.929 . S
N278 C276 1.375 . S
N278 C277 1.347 . S
C279 C282 1.365 . S
C279 N284 1.328 . S
C279 H285 0.929 . S
C280 C281 1.362 . S
C280 C283 1.378 . S
C280 H295 0.929 . S
C281 C280 1.362 . S
C281 C282 1.366 . S
C282 C279 1.365 . S
C282 C281 1.366 . S
C282 H296 0.930 . S
C283 C280 1.378 . S
C283 N284 1.315 . S
C283 H286 0.930 . S
N284 Co264 2.194 . S
N284 C279 1.328 . S
N284 C283 1.315 . S
H285 C279 0.929 . S
H286 C283 0.930 . S
H287 C275 0.929 . S
H288 C277 0.929 . S
O289 Co264 2.351 . S
O289 C292 1.244 . S
O290 Co264 2.155 . S
O290 C292 1.240 . S
O291 Co264 2.096 . S
O291 C272 1.247 . S
C292 O289 1.244 . S
C292 O290 1.240 . S
H293 C267 0.931 . S
H294 C276 0.931 . S
H295 C280 0.929 . S
H296 C282 0.930 . S
Co297 N301 2.148 . S
Co297 N307 2.128 . S
Co297 N317 2.194 . S
Co297 O322 2.351 . S
Co297 O323 2.155 . S
Co297 O324 2.096 . S
C298 N301 1.301 . S
C298 N302 1.328 . S
C298 H303 0.930 . S
C299 C300 1.333 . S
C299 N301 1.317 . S
C299 H304 0.930 . S
C300 C299 1.333 . S
C300 N302 1.350 . S
C300 H326 0.931 . S
N301 Co297 2.148 . S
N301 C298 1.301 . S
N301 C299 1.317 . S
N302 C298 1.328 . S
N302 C300 1.350 . S
H303 C298 0.930 . S
H304 C299 0.930 . S
C305 O306 1.224 . S
C305 O324 1.247 . S
O306 C305 1.224 . S
N307 Co297 2.128 . S
N307 C308 1.355 . S
N307 C310 1.311 . S
C308 N307 1.355 . S
C308 C309 1.363 . S
C308 H320 0.929 . S
C309 C308 1.363 . S
C309 N311 1.375 . S
C309 H327 0.931 . S
C310 N307 1.311 . S
C310 N311 1.347 . S
C310 H321 0.929 . S
N311 C309 1.375 . S
N311 C310 1.347 . S
C312 C315 1.365 . S
C312 N317 1.328 . S
C312 H318 0.929 . S
C313 C314 1.362 . S
C313 C316 1.378 . S
C313 H328 0.929 . S
C314 C313 1.362 . S
C314 C315 1.366 . S
C315 C312 1.365 . S
C315 C314 1.366 . S
C315 H329 0.930 . S
C316 C313 1.378 . S
C316 N317 1.315 . S
C316 H319 0.930 . S
N317 Co297 2.194 . S
N317 C312 1.328 . S
N317 C316 1.315 . S
H318 C312 0.929 . S
H319 C316 0.930 . S
H320 C308 0.929 . S
H321 C310 0.929 . S
O322 Co297 2.351 . S
O322 C325 1.244 . S
O323 Co297 2.155 . S
O323 C325 1.240 . S
O324 Co297 2.096 . S
O324 C305 1.247 . S
C325 O322 1.244 . S
C325 O323 1.240 . S
H326 C300 0.931 . S
H327 C309 0.931 . S
H328 C313 0.929 . S
H329 C315 0.930 . S
Co330 N334 2.148 . S
Co330 N340 2.128 . S
Co330 N350 2.194 . S
Co330 O355 2.351 . S
Co330 O356 2.155 . S
Co330 O357 2.096 . S
C331 N334 1.301 . S
C331 N335 1.328 . S
C331 H336 0.930 . S
C332 C333 1.333 . S
C332 N334 1.317 . S
C332 H337 0.930 . S
C333 C332 1.333 . S
C333 N335 1.350 . S
C333 H359 0.931 . S
N334 Co330 2.148 . S
N334 C331 1.301 . S
N334 C332 1.317 . S
N335 C331 1.328 . S
N335 C333 1.350 . S
H336 C331 0.930 . S
H337 C332 0.930 . S
C338 O339 1.224 . S
C338 O357 1.247 . S
O339 C338 1.224 . S
N340 Co330 2.128 . S
N340 C341 1.355 . S
N340 C343 1.311 . S
C341 N340 1.355 . S
C341 C342 1.363 . S
C341 H353 0.929 . S
C342 C341 1.363 . S
C342 N344 1.375 . S
C342 H360 0.931 . S
C343 N340 1.311 . S
C343 N344 1.347 . S
C343 H354 0.929 . S
N344 C342 1.375 . S
N344 C343 1.347 . S
C345 C348 1.365 . S
C345 N350 1.328 . S
C345 H351 0.929 . S
C346 C347 1.362 . S
C346 C349 1.378 . S
C346 H361 0.929 . S
C347 C346 1.362 . S
C347 C348 1.366 . S
C348 C345 1.365 . S
C348 C347 1.366 . S
C348 H362 0.930 . S
C349 C346 1.378 . S
C349 N350 1.315 . S
C349 H352 0.930 . S
N350 Co330 2.194 . S
N350 C345 1.328 . S
N350 C349 1.315 . S
H351 C345 0.929 . S
H352 C349 0.930 . S
H353 C341 0.929 . S
H354 C343 0.929 . S
O355 Co330 2.351 . S
O355 C358 1.244 . S
O356 Co330 2.155 . S
O356 C358 1.240 . S
O357 Co330 2.096 . S
O357 C338 1.247 . S
C358 O355 1.244 . S
C358 O356 1.240 . S
H359 C333 0.931 . S
H360 C342 0.931 . S
H361 C346 0.929 . S
H362 C348 0.930 . S
Co363 N367 2.148 . S
Co363 N373 2.128 . S
Co363 N383 2.194 . S
Co363 O388 2.351 . S
Co363 O389 2.155 . S
Co363 O390 2.096 . S
C364 N367 1.301 . S
C364 N368 1.328 . S
C364 H369 0.930 . S
C365 C366 1.333 . S
C365 N367 1.317 . S
C365 H370 0.930 . S
C366 C365 1.333 . S
C366 N368 1.350 . S
C366 H392 0.931 . S
N367 Co363 2.148 . S
N367 C364 1.301 . S
N367 C365 1.317 . S
N368 C364 1.328 . S
N368 C366 1.350 . S
H369 C364 0.930 . S
H370 C365 0.930 . S
C371 O372 1.224 . S
C371 O390 1.247 . S
O372 C371 1.224 . S
N373 Co363 2.128 . S
N373 C374 1.355 . S
N373 C376 1.311 . S
C374 N373 1.355 . S
C374 C375 1.363 . S
C374 H386 0.929 . S
C375 C374 1.363 . S
C375 N377 1.375 . S
C375 H393 0.931 . S
C376 N373 1.311 . S
C376 N377 1.347 . S
C376 H387 0.929 . S
N377 C375 1.375 . S
N377 C376 1.347 . S
C378 C381 1.365 . S
C378 N383 1.328 . S
C378 H384 0.929 . S
C379 C380 1.362 . S
C379 C382 1.378 . S
C379 H394 0.929 . S
C380 C379 1.362 . S
C380 C381 1.366 . S
C381 C378 1.365 . S
C381 C380 1.366 . S
C381 H395 0.930 . S
C382 C379 1.378 . S
C382 N383 1.315 . S
C382 H385 0.930 . S
N383 Co363 2.194 . S
N383 C378 1.328 . S
N383 C382 1.315 . S
H384 C378 0.929 . S
H385 C382 0.930 . S
H386 C374 0.929 . S
H387 C376 0.929 . S
O388 Co363 2.351 . S
O388 C391 1.244 . S
O389 Co363 2.155 . S
O389 C391 1.240 . S
O390 Co363 2.096 . S
O390 C371 1.247 . S
C391 O388 1.244 . S
C391 O389 1.240 . S
H392 C366 0.931 . S
H393 C375 0.931 . S
H394 C379 0.929 . S
H395 C381 0.930 . S
H396 C414 0.951 . S
H397 C416 0.951 . S
H398 C418 0.950 . S
H399 C419 0.950 . S
H400 C421 0.950 . S
H401 C424 0.950 . S
H402 C425 0.950 . S
H403 C427 0.950 . S
H404 C428 0.950 . S
H405 C429 0.951 . S
H406 C431 0.951 . S
H407 C433 0.950 . S
H408 C434 0.950 . S
H409 C436 0.950 . S
H410 C439 0.950 . S
H411 C440 0.950 . S
H412 C442 0.950 . S
H413 C443 0.950 . S
C414 H396 0.951 . S
C414 C415 1.366 . S
C414 C416 1.388 . S
C415 C414 1.366 . S
C415 C419 1.385 . S
C416 H397 0.951 . S
C416 C414 1.388 . S
C416 C417 1.366 . S
C417 C416 1.366 . S
C417 C418 1.414 . S
C417 C420 1.499 . S
C418 H398 0.950 . S
C418 C417 1.414 . S
C418 C419 1.374 . S
C419 H399 0.950 . S
C419 C415 1.385 . S
C419 C418 1.374 . S
C420 C417 1.499 . S
C420 C421 1.373 . S
C420 C422 1.389 . S
C421 H400 0.950 . S
C421 C420 1.373 . S
C421 C437 1.377 . S
C422 C420 1.389 . S
C422 C423 1.524 . S
C422 C436 1.377 . S
C423 C422 1.524 . S
C423 C424 1.397 . S
C423 C428 1.363 . S
C424 H401 0.950 . S
C424 C423 1.397 . S
C424 C425 1.334 . S
C425 H402 0.950 . S
C425 C424 1.334 . S
C425 C426 1.287 . S
C426 C425 1.287 . S
C426 C427 1.524 . S
C426 H445 0.913 . S
C427 H403 0.950 . S
C427 C426 1.524 . S
C427 C428 1.415 . S
C428 H404 0.950 . S
C428 C423 1.363 . S
C428 C427 1.415 . S
C429 H405 0.951 . S
C429 C430 1.366 . S
C429 C431 1.388 . S
C430 C429 1.366 . S
C430 C434 1.385 . S
C431 H406 0.951 . S
C431 C429 1.388 . S
C431 C432 1.366 . S
C432 C431 1.366 . S
C432 C433 1.414 . S
C432 C435 1.499 . S
C433 H407 0.950 . S
C433 C432 1.414 . S
C433 C434 1.374 . S
C434 H408 0.950 . S
C434 C430 1.385 . S
C434 C433 1.374 . S
C435 C432 1.499 . S
C435 C436 1.373 . S
C435 C437 1.389 . S
C436 H409 0.950 . S
C436 C422 1.377 . S
C436 C435 1.373 . S
C437 C421 1.377 . S
C437 C435 1.389 . S
C437 C438 1.524 . S
C438 C437 1.524 . S
C438 C439 1.397 . S
C438 C443 1.363 . S
C439 H410 0.950 . S
C439 C438 1.397 . S
C439 C440 1.334 . S
C440 H411 0.950 . S
C440 C439 1.334 . S
C440 C441 1.287 . S
C441 C440 1.287 . S
C441 C442 1.524 . S
C441 H444 0.999 1_556 S
C442 H412 0.950 . S
C442 C441 1.524 . S
C442 C443 1.415 . S
C443 H413 0.950 . S
C443 C438 1.363 . S
C443 C442 1.415 . S
H444 C441 0.999 1_554 S
H445 C426 0.913 . S
H446 C464 0.951 1_556 S
H447 C466 0.951 . S
H448 C468 0.950 . S
H449 C469 0.950 . S
H450 C471 0.950 . S
H451 C474 0.950 . S
H452 C475 0.950 . S
H453 C477 0.950 . S
H454 C478 0.950 . S
H455 C479 0.951 . S
H456 C481 0.951 . S
H457 C483 0.950 . S
H458 C484 0.950 . S
H459 C486 0.950 . S
H460 C489 0.950 . S
H461 C490 0.950 1_655 S
H462 C492 0.950 . S
H463 C493 0.950 . S
C464 H446 0.951 1_554 S
C464 C465 1.366 . S
C464 C466 1.388 . S
C465 C464 1.366 . S
C465 C469 1.385 . S
C466 H447 0.951 . S
C466 C464 1.388 . S
C466 C467 1.366 . S
C467 C466 1.366 . S
C467 C468 1.414 . S
C467 C470 1.499 . S
C468 H448 0.950 . S
C468 C467 1.414 . S
C468 C469 1.374 . S
C469 H449 0.950 . S
C469 C465 1.385 . S
C469 C468 1.374 . S
C470 C467 1.499 . S
C470 C471 1.373 . S
C470 C472 1.389 . S
C471 H450 0.950 . S
C471 C470 1.373 . S
C471 C487 1.377 . S
C472 C470 1.389 . S
C472 C473 1.524 . S
C472 C486 1.377 . S
C473 C472 1.524 . S
C473 C474 1.397 . S
C473 C478 1.363 . S
C474 H451 0.950 . S
C474 C473 1.397 . S
C474 C475 1.334 . S
C475 H452 0.950 . S
C475 C474 1.334 . S
C475 C476 1.287 . S
C476 C475 1.287 . S
C476 C477 1.524 . S
C476 H495 0.913 . S
C477 H453 0.950 . S
C477 C476 1.524 . S
C477 C478 1.415 . S
C478 H454 0.950 . S
C478 C473 1.363 . S
C478 C477 1.415 . S
C479 H455 0.951 . S
C479 C480 1.366 . S
C479 C481 1.388 1_655 S
C480 C479 1.366 . S
C480 C484 1.385 . S
C481 H456 0.951 . S
C481 C479 1.388 1_455 S
C481 C482 1.366 . S
C482 C481 1.366 . S
C482 C483 1.414 1_455 S
C482 C485 1.499 . S
C483 H457 0.950 . S
C483 C482 1.414 1_655 S
C483 C484 1.374 . S
C484 H458 0.950 . S
C484 C480 1.385 . S
C484 C483 1.374 . S
C485 C482 1.499 . S
C485 C486 1.373 . S
C485 C487 1.389 . S
C486 H459 0.950 . S
C486 C472 1.377 . S
C486 C485 1.373 . S
C487 C471 1.377 . S
C487 C485 1.389 . S
C487 C488 1.524 . S
C488 C487 1.524 . S
C488 C489 1.397 . S
C488 C493 1.363 . S
C489 H460 0.950 . S
C489 C488 1.397 . S
C489 C490 1.334 . S
C490 H461 0.950 1_455 S
C490 C489 1.334 . S
C490 C491 1.287 . S
C491 C490 1.287 . S
C491 C492 1.524 . S
C491 H494 0.999 . S
C492 H462 0.950 . S
C492 C491 1.524 . S
C492 C493 1.415 . S
C493 H463 0.950 . S
C493 C488 1.363 . S
C493 C492 1.415 . S
H494 C491 0.999 . S
H495 C476 0.913 . S
H496 C514 0.951 . S
H497 C516 0.951 . S
H498 C518 0.950 . S
H499 C519 0.950 . S
H500 C521 0.950 . S
H501 C524 0.950 . S
H502 C525 0.950 . S
H503 C527 0.950 . S
H504 C528 0.950 . S
H505 C529 0.951 . S
H506 C531 0.951 . S
H507 C533 0.950 . S
H508 C534 0.950 . S
H509 C536 0.950 . S
H510 C539 0.950 . S
H511 C540 0.950 . S
H512 C542 0.950 . S
H513 C543 0.950 . S
C514 H496 0.951 . S
C514 C515 1.366 . S
C514 C516 1.388 . S
C515 C514 1.366 . S
C515 C519 1.385 . S
C516 H497 0.951 . S
C516 C514 1.388 . S
C516 C517 1.366 . S
C517 C516 1.366 . S
C517 C518 1.414 . S
C517 C520 1.499 . S
C518 H498 0.950 . S
C518 C517 1.414 . S
C518 C519 1.374 . S
C519 H499 0.950 . S
C519 C515 1.385 . S
C519 C518 1.374 . S
C520 C517 1.499 . S
C520 C521 1.373 . S
C520 C522 1.389 . S
C521 H500 0.950 . S
C521 C520 1.373 . S
C521 C537 1.377 . S
C522 C520 1.389 . S
C522 C523 1.524 . S
C522 C536 1.377 . S
C523 C522 1.524 . S
C523 C524 1.397 . S
C523 C528 1.363 . S
C524 H501 0.950 . S
C524 C523 1.397 . S
C524 C525 1.334 . S
C525 H502 0.950 . S
C525 C524 1.334 . S
C525 C526 1.287 . S
C526 C525 1.287 . S
C526 C527 1.524 . S
C526 H545 0.913 . S
C527 H503 0.950 . S
C527 C526 1.524 . S
C527 C528 1.415 . S
C528 H504 0.950 . S
C528 C523 1.363 . S
C528 C527 1.415 . S
C529 H505 0.951 . S
C529 C530 1.366 . S
C529 C531 1.388 . S
C530 C529 1.366 . S
C530 C534 1.385 . S
C531 H506 0.951 . S
C531 C529 1.388 . S
C531 C532 1.366 1_565 S
C532 C531 1.366 1_545 S
C532 C533 1.414 . S
C532 C535 1.499 . S
C533 H507 0.950 . S
C533 C532 1.414 . S
C533 C534 1.374 1_545 S
C534 H508 0.950 . S
C534 C530 1.385 . S
C534 C533 1.374 1_565 S
C535 C532 1.499 . S
C535 C536 1.373 . S
C535 C537 1.389 . S
C536 H509 0.950 . S
C536 C522 1.377 . S
C536 C535 1.373 . S
C537 C521 1.377 . S
C537 C535 1.389 . S
C537 C538 1.524 . S
C538 C537 1.524 . S
C538 C539 1.397 . S
C538 C543 1.363 . S
C539 H510 0.950 . S
C539 C538 1.397 . S
C539 C540 1.334 . S
C540 H511 0.950 . S
C540 C539 1.334 . S
C540 C541 1.287 . S
C541 C540 1.287 . S
C541 C542 1.524 . S
C541 H544 0.999 . S
C542 H512 0.950 . S
C542 C541 1.524 . S
C542 C543 1.415 . S
C543 H513 0.950 . S
C543 C538 1.363 . S
C543 C542 1.415 . S
H544 C541 0.999 . S
H545 C526 0.913 . S
H546 C564 0.951 . S
H547 C566 0.951 . S
H548 C568 0.950 . S
H549 C569 0.950 . S
H550 C571 0.950 . S
H551 C574 0.950 . S
H552 C575 0.950 . S
H553 C577 0.950 . S
H554 C578 0.950 . S
H555 C579 0.951 . S
H556 C581 0.951 . S
H557 C583 0.950 . S
H558 C584 0.950 . S
H559 C586 0.950 . S
H560 C589 0.950 . S
H561 C590 0.950 . S
H562 C592 0.950 . S
H563 C593 0.950 . S
C564 H546 0.951 . S
C564 C565 1.366 . S
C564 C566 1.388 . S
C565 C564 1.366 . S
C565 C569 1.385 . S
C566 H547 0.951 . S
C566 C564 1.388 . S
C566 C567 1.366 . S
C567 C566 1.366 . S
C567 C568 1.414 . S
C567 C570 1.499 . S
C568 H548 0.950 . S
C568 C567 1.414 . S
C568 C569 1.374 . S
C569 H549 0.950 . S
C569 C565 1.385 . S
C569 C568 1.374 . S
C570 C567 1.499 . S
C570 C571 1.373 . S
C570 C572 1.389 . S
C571 H550 0.950 . S
C571 C570 1.373 . S
C571 C587 1.377 . S
C572 C570 1.389 . S
C572 C573 1.524 . S
C572 C586 1.377 . S
C573 C572 1.524 . S
C573 C574 1.397 . S
C573 C578 1.363 . S
C574 H551 0.950 . S
C574 C573 1.397 . S
C574 C575 1.334 . S
C575 H552 0.950 . S
C575 C574 1.334 . S
C575 C576 1.287 . S
C576 C575 1.287 . S
C576 C577 1.524 . S
C576 H595 0.913 . S
C577 H553 0.950 . S
C577 C576 1.524 . S
C577 C578 1.415 . S
C578 H554 0.950 . S
C578 C573 1.363 . S
C578 C577 1.415 . S
C579 H555 0.951 . S
C579 C580 1.366 . S
C579 C581 1.388 . S
C580 C579 1.366 . S
C580 C584 1.385 . S
C581 H556 0.951 . S
C581 C579 1.388 . S
C581 C582 1.366 . S
C582 C581 1.366 . S
C582 C583 1.414 . S
C582 C585 1.499 . S
C583 H557 0.950 . S
C583 C582 1.414 . S
C583 C584 1.374 . S
C584 H558 0.950 . S
C584 C580 1.385 . S
C584 C583 1.374 . S
C585 C582 1.499 . S
C585 C586 1.373 . S
C585 C587 1.389 . S
C586 H559 0.950 . S
C586 C572 1.377 . S
C586 C585 1.373 . S
C587 C571 1.377 . S
C587 C585 1.389 . S
C587 C588 1.524 . S
C588 C587 1.524 . S
C588 C589 1.397 . S
C588 C593 1.363 . S
C589 H560 0.950 . S
C589 C588 1.397 . S
C589 C590 1.334 . S
C590 H561 0.950 . S
C590 C589 1.334 . S
C590 C591 1.287 . S
C591 C590 1.287 . S
C591 C592 1.524 . S
C591 H594 0.999 . S
C592 H562 0.950 . S
C592 C591 1.524 . S
C592 C593 1.415 . S
C593 H563 0.950 . S
C593 C588 1.363 . S
C593 C592 1.415 . S
H594 C591 0.999 . S
H595 C576 0.913 . S
H596 C614 0.951 . S
H597 C616 0.951 1_655 S
H598 C618 0.950 1_655 S
H599 C619 0.950 . S
H600 C621 0.950 . S
H601 C624 0.950 . S
H602 C625 0.950 . S
H603 C627 0.950 . S
H604 C628 0.950 . S
H605 C629 0.951 . S
H606 C631 0.951 . S
H607 C633 0.950 . S
H608 C634 0.950 . S
H609 C636 0.950 . S
H610 C639 0.950 . S
H611 C640 0.950 . S
H612 C642 0.950 . S
H613 C643 0.950 . S
C614 H596 0.951 . S
C614 C615 1.366 . S
C614 C616 1.388 . S
C615 C614 1.366 . S
C615 C619 1.385 . S
C616 H597 0.951 1_455 S
C616 C614 1.388 . S
C616 C617 1.366 1_455 S
C617 C616 1.366 1_655 S
C617 C618 1.414 1_655 S
C617 C620 1.499 . S
C618 H598 0.950 1_455 S
C618 C617 1.414 1_455 S
C618 C619 1.374 . S
C619 H599 0.950 . S
C619 C615 1.385 . S
C619 C618 1.374 . S
C620 C617 1.499 . S
C620 C621 1.373 . S
C620 C622 1.389 . S
C621 H600 0.950 . S
C621 C620 1.373 . S
C621 C637 1.377 . S
C622 C620 1.389 . S
C622 C623 1.524 . S
C622 C636 1.377 . S
C623 C622 1.524 . S
C623 C624 1.397 1_655 S
C623 C628 1.363 . S
C624 H601 0.950 . S
C624 C623 1.397 1_455 S
C624 C625 1.334 . S
C625 H602 0.950 . S
C625 C624 1.334 . S
C625 C626 1.287 . S
C626 C625 1.287 . S
C626 C627 1.524 . S
C626 H645 0.913 . S
C627 H603 0.950 . S
C627 C626 1.524 . S
C627 C628 1.415 1_455 S
C628 H604 0.950 . S
C628 C623 1.363 . S
C628 C627 1.415 1_655 S
C629 H605 0.951 . S
C629 C630 1.366 . S
C629 C631 1.388 . S
C630 C629 1.366 . S
C630 C634 1.385 . S
C631 H606 0.951 . S
C631 C629 1.388 . S
C631 C632 1.366 . S
C632 C631 1.366 . S
C632 C633 1.414 . S
C632 C635 1.499 . S
C633 H607 0.950 . S
C633 C632 1.414 . S
C633 C634 1.374 . S
C634 H608 0.950 . S
C634 C630 1.385 . S
C634 C633 1.374 . S
C635 C632 1.499 . S
C635 C636 1.373 . S
C635 C637 1.389 . S
C636 H609 0.950 . S
C636 C622 1.377 . S
C636 C635 1.373 . S
C637 C621 1.377 . S
C637 C635 1.389 . S
C637 C638 1.524 . S
C638 C637 1.524 . S
C638 C639 1.397 . S
C638 C643 1.363 . S
C639 H610 0.950 . S
C639 C638 1.397 . S
C639 C640 1.334 . S
C640 H611 0.950 . S
C640 C639 1.334 . S
C640 C641 1.287 . S
C641 C640 1.287 . S
C641 C642 1.524 . S
C641 H644 0.999 . S
C642 H612 0.950 . S
C642 C641 1.524 . S
C642 C643 1.415 . S
C643 H613 0.950 . S
C643 C638 1.363 . S
C643 C642 1.415 . S
H644 C641 0.999 . S
H645 C626 0.913 . S
H646 C664 0.951 . S
H647 C666 0.951 . S
H648 C668 0.950 . S
H649 C669 0.950 . S
H650 C671 0.950 . S
H651 C674 0.950 . S
H652 C675 0.950 . S
H653 C677 0.950 . S
H654 C678 0.950 . S
H655 C679 0.951 . S
H656 C681 0.951 . S
H657 C683 0.950 . S
H658 C684 0.950 . S
H659 C686 0.950 . S
H660 C689 0.950 . S
H661 C690 0.950 . S
H662 C692 0.950 1_545 S
H663 C693 0.950 . S
C664 H646 0.951 . S
C664 C665 1.366 . S
C664 C666 1.388 . S
C665 C664 1.366 . S
C665 C669 1.385 . S
C666 H647 0.951 . S
C666 C664 1.388 . S
C666 C667 1.366 . S
C667 C666 1.366 . S
C667 C668 1.414 . S
C667 C670 1.499 . S
C668 H648 0.950 . S
C668 C667 1.414 . S
C668 C669 1.374 . S
C669 H649 0.950 . S
C669 C665 1.385 . S
C669 C668 1.374 . S
C670 C667 1.499 . S
C670 C671 1.373 . S
C670 C672 1.389 . S
C671 H650 0.950 . S
C671 C670 1.373 . S
C671 C687 1.377 . S
C672 C670 1.389 . S
C672 C673 1.524 . S
C672 C686 1.377 . S
C673 C672 1.524 . S
C673 C674 1.397 . S
C673 C678 1.363 . S
C674 H651 0.950 . S
C674 C673 1.397 . S
C674 C675 1.334 . S
C675 H652 0.950 . S
C675 C674 1.334 . S
C675 C676 1.287 . S
C676 C675 1.287 . S
C676 C677 1.524 . S
C676 H695 0.913 . S
C677 H653 0.950 . S
C677 C676 1.524 . S
C677 C678 1.415 . S
C678 H654 0.950 . S
C678 C673 1.363 . S
C678 C677 1.415 . S
C679 H655 0.951 . S
C679 C680 1.366 . S
C679 C681 1.388 . S
C680 C679 1.366 . S
C680 C684 1.385 . S
C681 H656 0.951 . S
C681 C679 1.388 . S
C681 C682 1.366 1_545 S
C682 C681 1.366 1_565 S
C682 C683 1.414 . S
C682 C685 1.499 . S
C683 H657 0.950 . S
C683 C682 1.414 . S
C683 C684 1.374 1_565 S
C684 H658 0.950 . S
C684 C680 1.385 . S
C684 C683 1.374 1_545 S
C685 C682 1.499 . S
C685 C686 1.373 . S
C685 C687 1.389 . S
C686 H659 0.950 . S
C686 C672 1.377 . S
C686 C685 1.373 . S
C687 C671 1.377 . S
C687 C685 1.389 . S
C687 C688 1.524 . S
C688 C687 1.524 . S
C688 C689 1.397 . S
C688 C693 1.363 . S
C689 H660 0.950 . S
C689 C688 1.397 . S
C689 C690 1.334 . S
C690 H661 0.950 . S
C690 C689 1.334 . S
C690 C691 1.287 . S
C691 C690 1.287 . S
C691 C692 1.524 . S
C691 H694 0.999 1_565 S
C692 H662 0.950 1_565 S
C692 C691 1.524 . S
C692 C693 1.415 . S
C693 H663 0.950 . S
C693 C688 1.363 . S
C693 C692 1.415 . S
H694 C691 0.999 1_545 S
H695 C676 0.913 . S
H696 C714 0.951 . S
H697 C716 0.951 . S
H698 C718 0.950 . S
H699 C719 0.950 . S
H700 C721 0.950 . S
H701 C724 0.950 . S
H702 C725 0.950 . S
H703 C727 0.950 . S
H704 C728 0.950 . S
H705 C729 0.951 . S
H706 C731 0.951 . S
H707 C733 0.950 . S
H708 C734 0.950 . S
H709 C736 0.950 . S
H710 C739 0.950 . S
H711 C740 0.950 . S
H712 C742 0.950 . S
H713 C743 0.950 . S
C714 H696 0.951 . S
C714 C715 1.366 . S
C714 C716 1.388 . S
C715 C714 1.366 . S
C715 C719 1.385 . S
C716 H697 0.951 . S
C716 C714 1.388 . S
C716 C717 1.366 . S
C717 C716 1.366 . S
C717 C718 1.414 . S
C717 C720 1.499 . S
C718 H698 0.950 . S
C718 C717 1.414 . S
C718 C719 1.374 . S
C719 H699 0.950 . S
C719 C715 1.385 . S
C719 C718 1.374 . S
C720 C717 1.499 . S
C720 C721 1.373 . S
C720 C722 1.389 . S
C721 H700 0.950 . S
C721 C720 1.373 . S
C721 C737 1.377 . S
C722 C720 1.389 . S
C722 C723 1.524 . S
C722 C736 1.377 . S
C723 C722 1.524 . S
C723 C724 1.397 . S
C723 C728 1.363 . S
C724 H701 0.950 . S
C724 C723 1.397 . S
C724 C725 1.334 . S
C725 H702 0.950 . S
C725 C724 1.334 . S
C725 C726 1.287 . S
C726 C725 1.287 . S
C726 C727 1.524 . S
C726 H745 0.913 . S
C727 H703 0.950 . S
C727 C726 1.524 . S
C727 C728 1.415 . S
C728 H704 0.950 . S
C728 C723 1.363 . S
C728 C727 1.415 . S
C729 H705 0.951 . S
C729 C730 1.366 . S
C729 C731 1.388 . S
C730 C729 1.366 . S
C730 C734 1.385 . S
C731 H706 0.951 . S
C731 C729 1.388 . S
C731 C732 1.366 . S
C732 C731 1.366 . S
C732 C733 1.414 . S
C732 C735 1.499 . S
C733 H707 0.950 . S
C733 C732 1.414 . S
C733 C734 1.374 . S
C734 H708 0.950 . S
C734 C730 1.385 . S
C734 C733 1.374 . S
C735 C732 1.499 . S
C735 C736 1.373 . S
C735 C737 1.389 . S
C736 H709 0.950 . S
C736 C722 1.377 . S
C736 C735 1.373 . S
C737 C721 1.377 . S
C737 C735 1.389 . S
C737 C738 1.524 . S
C738 C737 1.524 . S
C738 C739 1.397 . S
C738 C743 1.363 . S
C739 H710 0.950 . S
C739 C738 1.397 . S
C739 C740 1.334 . S
C740 H711 0.950 . S
C740 C739 1.334 . S
C740 C741 1.287 . S
C741 C740 1.287 . S
C741 C742 1.524 . S
C741 H744 0.999 . S
C742 H712 0.950 . S
C742 C741 1.524 . S
C742 C743 1.415 . S
C743 H713 0.950 . S
C743 C738 1.363 . S
C743 C742 1.415 . S
H744 C741 0.999 . S
H745 C726 0.913 . S
H746 C764 0.951 . S
H747 C766 0.951 . S
H748 C768 0.950 . S
H749 C769 0.950 . S
H750 C771 0.950 . S
H751 C774 0.950 . S
H752 C775 0.950 . S
H753 C777 0.950 . S
H754 C778 0.950 . S
H755 C779 0.951 . S
H756 C781 0.951 . S
H757 C783 0.950 . S
H758 C784 0.950 . S
H759 C786 0.950 . S
H760 C789 0.950 . S
H761 C790 0.950 . S
H762 C792 0.950 . S
H763 C793 0.950 . S
C764 H746 0.951 . S
C764 C765 1.366 . S
C764 C766 1.388 . S
C765 C764 1.366 . S
C765 C769 1.385 . S
C766 H747 0.951 . S
C766 C764 1.388 . S
C766 C767 1.366 . S
C767 C766 1.366 . S
C767 C768 1.414 . S
C767 C770 1.499 . S
C768 H748 0.950 . S
C768 C767 1.414 . S
C768 C769 1.374 . S
C769 H749 0.950 . S
C769 C765 1.385 . S
C769 C768 1.374 . S
C770 C767 1.499 . S
C770 C771 1.373 . S
C770 C772 1.389 . S
C771 H750 0.950 . S
C771 C770 1.373 . S
C771 C787 1.377 . S
C772 C770 1.389 . S
C772 C773 1.524 . S
C772 C786 1.377 . S
C773 C772 1.524 . S
C773 C774 1.397 . S
C773 C778 1.363 . S
C774 H751 0.950 . S
C774 C773 1.397 . S
C774 C775 1.334 . S
C775 H752 0.950 . S
C775 C774 1.334 . S
C775 C776 1.287 . S
C776 C775 1.287 . S
C776 C777 1.524 . S
C776 H795 0.913 . S
C777 H753 0.950 . S
C777 C776 1.524 . S
C777 C778 1.415 . S
C778 H754 0.950 . S
C778 C773 1.363 . S
C778 C777 1.415 . S
C779 H755 0.951 . S
C779 C780 1.366 . S
C779 C781 1.388 . S
C780 C779 1.366 . S
C780 C784 1.385 . S
C781 H756 0.951 . S
C781 C779 1.388 . S
C781 C782 1.366 1_655 S
C782 C781 1.366 1_455 S
C782 C783 1.414 . S
C782 C785 1.499 . S
C783 H757 0.950 . S
C783 C782 1.414 . S
C783 C784 1.374 1_455 S
C784 H758 0.950 . S
C784 C780 1.385 . S
C784 C783 1.374 1_655 S
C785 C782 1.499 . S
C785 C786 1.373 . S
C785 C787 1.389 . S
C786 H759 0.950 . S
C786 C772 1.377 . S
C786 C785 1.373 . S
C787 C771 1.377 . S
C787 C785 1.389 . S
C787 C788 1.524 . S
C788 C787 1.524 . S
C788 C789 1.397 . S
C788 C793 1.363 . S
C789 H760 0.950 . S
C789 C788 1.397 . S
C789 C790 1.334 . S
C790 H761 0.950 . S
C790 C789 1.334 . S
C790 C791 1.287 . S
C791 C790 1.287 . S
C791 C792 1.524 . S
C791 H794 0.999 1_455 S
C792 H762 0.950 . S
C792 C791 1.524 . S
C792 C793 1.415 . S
C793 H763 0.950 . S
C793 C788 1.363 . S
C793 C792 1.415 . S
H794 C791 0.999 1_655 S
H795 C776 0.913 . S
H796 C814 0.951 . S
H797 C816 0.951 . S
H798 C818 0.950 . S
H799 C819 0.950 . S
H800 C821 0.950 . S
H801 C824 0.950 . S
H802 C825 0.950 . S
H803 C827 0.950 . S
H804 C828 0.950 . S
H805 C829 0.951 . S
H806 C831 0.951 . S
H807 C833 0.950 . S
H808 C834 0.950 . S
H809 C836 0.950 . S
H810 C839 0.950 . S
H811 C840 0.950 . S
H812 C842 0.950 . S
H813 C843 0.950 . S
C814 H796 0.951 . S
C814 C815 1.366 . S
C814 C816 1.388 . S
C815 C814 1.366 . S
C815 C819 1.385 . S
C816 H797 0.951 . S
C816 C814 1.388 . S
C816 C817 1.366 . S
C817 C816 1.366 . S
C817 C818 1.414 . S
C817 C820 1.499 . S
C818 H798 0.950 . S
C818 C817 1.414 . S
C818 C819 1.374 . S
C819 H799 0.950 . S
C819 C815 1.385 . S
C819 C818 1.374 . S
C820 C817 1.499 . S
C820 C821 1.373 . S
C820 C822 1.389 . S
C821 H800 0.950 . S
C821 C820 1.373 . S
C821 C837 1.377 . S
C822 C820 1.389 . S
C822 C823 1.524 . S
C822 C836 1.377 . S
C823 C822 1.524 . S
C823 C824 1.397 . S
C823 C828 1.363 . S
C824 H801 0.950 . S
C824 C823 1.397 . S
C824 C825 1.334 . S
C825 H802 0.950 . S
C825 C824 1.334 . S
C825 C826 1.287 . S
C826 C825 1.287 . S
C826 C827 1.524 . S
C826 H845 0.913 . S
C827 H803 0.950 . S
C827 C826 1.524 . S
C827 C828 1.415 . S
C828 H804 0.950 . S
C828 C823 1.363 . S
C828 C827 1.415 . S
C829 H805 0.951 . S
C829 C830 1.366 . S
C829 C831 1.388 . S
C830 C829 1.366 . S
C830 C834 1.385 . S
C831 H806 0.951 . S
C831 C829 1.388 . S
C831 C832 1.366 1_565 S
C832 C831 1.366 1_545 S
C832 C833 1.414 . S
C832 C835 1.499 . S
C833 H807 0.950 . S
C833 C832 1.414 . S
C833 C834 1.374 1_545 S
C834 H808 0.950 . S
C834 C830 1.385 . S
C834 C833 1.374 1_565 S
C835 C832 1.499 . S
C835 C836 1.373 . S
C835 C837 1.389 . S
C836 H809 0.950 . S
C836 C822 1.377 . S
C836 C835 1.373 . S
C837 C821 1.377 . S
C837 C835 1.389 . S
C837 C838 1.524 . S
C838 C837 1.524 . S
C838 C839 1.397 1_545 S
C838 C843 1.363 . S
C839 H810 0.950 . S
C839 C838 1.397 1_565 S
C839 C840 1.334 . S
C840 H811 0.950 . S
C840 C839 1.334 . S
C840 C841 1.287 . S
C841 C840 1.287 . S
C841 C842 1.524 . S
C841 H844 0.999 . S
C842 H812 0.950 . S
C842 C841 1.524 . S
C842 C843 1.415 1_565 S
C843 H813 0.950 . S
C843 C838 1.363 . S
C843 C842 1.415 1_545 S
H844 C841 0.999 . S
H845 C826 0.913 . S
H846 C864 0.951 . S
H847 C866 0.951 . S
H848 C868 0.950 . S
H849 C869 0.950 . S
H850 C871 0.950 . S
H851 C874 0.950 . S
H852 C875 0.950 . S
H853 C877 0.950 . S
H854 C878 0.950 . S
H855 C879 0.951 . S
H856 C881 0.951 . S
H857 C883 0.950 . S
H858 C884 0.950 . S
H859 C886 0.950 . S
H860 C889 0.950 . S
H861 C890 0.950 . S
H862 C892 0.950 . S
H863 C893 0.950 . S
C864 H846 0.951 . S
C864 C865 1.366 . S
C864 C866 1.388 . S
C865 C864 1.366 . S
C865 C869 1.385 . S
C866 H847 0.951 . S
C866 C864 1.388 . S
C866 C867 1.366 . S
C867 C866 1.366 . S
C867 C868 1.414 . S
C867 C870 1.499 . S
C868 H848 0.950 . S
C868 C867 1.414 . S
C868 C869 1.374 . S
C869 H849 0.950 . S
C869 C865 1.385 . S
C869 C868 1.374 . S
C870 C867 1.499 . S
C870 C871 1.373 . S
C870 C872 1.389 . S
C871 H850 0.950 . S
C871 C870 1.373 . S
C871 C887 1.377 . S
C872 C870 1.389 . S
C872 C873 1.524 . S
C872 C886 1.377 . S
C873 C872 1.524 . S
C873 C874 1.397 . S
C873 C878 1.363 . S
C874 H851 0.950 . S
C874 C873 1.397 . S
C874 C875 1.334 . S
C875 H852 0.950 . S
C875 C874 1.334 . S
C875 C876 1.287 . S
C876 C875 1.287 . S
C876 C877 1.524 . S
C876 H895 0.913 . S
C877 H853 0.950 . S
C877 C876 1.524 . S
C877 C878 1.415 . S
C878 H854 0.950 . S
C878 C873 1.363 . S
C878 C877 1.415 . S
C879 H855 0.951 . S
C879 C880 1.366 . S
C879 C881 1.388 . S
C880 C879 1.366 . S
C880 C884 1.385 . S
C881 H856 0.951 . S
C881 C879 1.388 . S
C881 C882 1.366 . S
C882 C881 1.366 . S
C882 C883 1.414 . S
C882 C885 1.499 . S
C883 H857 0.950 . S
C883 C882 1.414 . S
C883 C884 1.374 . S
C884 H858 0.950 . S
C884 C880 1.385 . S
C884 C883 1.374 . S
C885 C882 1.499 . S
C885 C886 1.373 . S
C885 C887 1.389 . S
C886 H859 0.950 . S
C886 C872 1.377 . S
C886 C885 1.373 . S
C887 C871 1.377 . S
C887 C885 1.389 . S
C887 C888 1.524 . S
C888 C887 1.524 . S
C888 C889 1.397 . S
C888 C893 1.363 . S
C889 H860 0.950 . S
C889 C888 1.397 . S
C889 C890 1.334 . S
C890 H861 0.950 . S
C890 C889 1.334 . S
C890 C891 1.287 . S
C891 C890 1.287 . S
C891 C892 1.524 . S
C891 H894 0.999 . S
C892 H862 0.950 . S
C892 C891 1.524 . S
C892 C893 1.415 . S
C893 H863 0.950 . S
C893 C888 1.363 . S
C893 C892 1.415 . S
H894 C891 0.999 . S
H895 C876 0.913 . S
H896 C914 0.951 . S
H897 C916 0.951 . S
H898 C918 0.950 . S
H899 C919 0.950 . S
H900 C921 0.950 . S
H901 C924 0.950 . S
H902 C925 0.950 . S
H903 C927 0.950 . S
H904 C928 0.950 . S
H905 C929 0.951 . S
H906 C931 0.951 . S
H907 C933 0.950 . S
H908 C934 0.950 . S
H909 C936 0.950 . S
H910 C939 0.950 . S
H911 C940 0.950 . S
H912 C942 0.950 . S
H913 C943 0.950 . S
C914 H896 0.951 . S
C914 C915 1.366 . S
C914 C916 1.388 . S
C915 C914 1.366 . S
C915 C919 1.385 . S
C916 H897 0.951 . S
C916 C914 1.388 . S
C916 C917 1.366 . S
C917 C916 1.366 . S
C917 C918 1.414 . S
C917 C920 1.499 . S
C918 H898 0.950 . S
C918 C917 1.414 . S
C918 C919 1.374 . S
C919 H899 0.950 . S
C919 C915 1.385 . S
C919 C918 1.374 . S
C920 C917 1.499 . S
C920 C921 1.373 . S
C920 C922 1.389 . S
C921 H900 0.950 . S
C921 C920 1.373 . S
C921 C937 1.377 . S
C922 C920 1.389 . S
C922 C923 1.524 . S
C922 C936 1.377 . S
C923 C922 1.524 . S
C923 C924 1.397 . S
C923 C928 1.363 . S
C924 H901 0.950 . S
C924 C923 1.397 . S
C924 C925 1.334 . S
C925 H902 0.950 . S
C925 C924 1.334 . S
C925 C926 1.287 . S
C926 C925 1.287 . S
C926 C927 1.524 . S
C926 H945 0.913 . S
C927 H903 0.950 . S
C927 C926 1.524 . S
C927 C928 1.415 . S
C928 H904 0.950 . S
C928 C923 1.363 . S
C928 C927 1.415 . S
C929 H905 0.951 . S
C929 C930 1.366 . S
C929 C931 1.388 1_455 S
C930 C929 1.366 . S
C930 C934 1.385 . S
C931 H906 0.951 . S
C931 C929 1.388 1_655 S
C931 C932 1.366 . S
C932 C931 1.366 . S
C932 C933 1.414 1_655 S
C932 C935 1.499 . S
C933 H907 0.950 . S
C933 C932 1.414 1_455 S
C933 C934 1.374 . S
C934 H908 0.950 . S
C934 C930 1.385 . S
C934 C933 1.374 . S
C935 C932 1.499 . S
C935 C936 1.373 . S
C935 C937 1.389 . S
C936 H909 0.950 . S
C936 C922 1.377 . S
C936 C935 1.373 . S
C937 C921 1.377 . S
C937 C935 1.389 . S
C937 C938 1.524 . S
C938 C937 1.524 . S
C938 C939 1.397 . S
C938 C943 1.363 . S
C939 H910 0.950 . S
C939 C938 1.397 . S
C939 C940 1.334 . S
C940 H911 0.950 . S
C940 C939 1.334 . S
C940 C941 1.287 . S
C941 C940 1.287 . S
C941 C942 1.524 . S
C941 H944 0.999 . S
C942 H912 0.950 . S
C942 C941 1.524 . S
C942 C943 1.415 . S
C943 H913 0.950 . S
C943 C938 1.363 . S
C943 C942 1.415 . S
H944 C941 0.999 . S
H945 C926 0.913 . S
H946 C964 0.951 . S
H947 C966 0.951 . S
H948 C968 0.950 . S
H949 C969 0.950 . S
H950 C971 0.950 . S
H951 C974 0.950 . S
H952 C975 0.950 . S
H953 C977 0.950 . S
H954 C978 0.950 . S
H955 C979 0.951 . S
H956 C981 0.951 1_565 S
H957 C983 0.950 . S
H958 C984 0.950 . S
H959 C986 0.950 . S
H960 C989 0.950 . S
H961 C990 0.950 . S
H962 C992 0.950 . S
H963 C993 0.950 . S
C964 H946 0.951 . S
C964 C965 1.366 . S
C964 C966 1.388 . S
C965 C964 1.366 . S
C965 C969 1.385 . S
C966 H947 0.951 . S
C966 C964 1.388 . S
C966 C967 1.366 . S
C967 C966 1.366 . S
C967 C968 1.414 . S
C967 C970 1.499 . S
C968 H948 0.950 . S
C968 C967 1.414 . S
C968 C969 1.374 . S
C969 H949 0.950 . S
C969 C965 1.385 . S
C969 C968 1.374 . S
C970 C967 1.499 . S
C970 C971 1.373 . S
C970 C972 1.389 . S
C971 H950 0.950 . S
C971 C970 1.373 . S
C971 C987 1.377 . S
C972 C970 1.389 . S
C972 C973 1.524 . S
C972 C986 1.377 . S
C973 C972 1.524 . S
C973 C974 1.397 . S
C973 C978 1.363 . S
C974 H951 0.950 . S
C974 C973 1.397 . S
C974 C975 1.334 . S
C975 H952 0.950 . S
C975 C974 1.334 . S
C975 C976 1.287 . S
C976 C975 1.287 . S
C976 C977 1.524 . S
C976 H995 0.913 . S
C977 H953 0.950 . S
C977 C976 1.524 . S
C977 C978 1.415 . S
C978 H954 0.950 . S
C978 C973 1.363 . S
C978 C977 1.415 . S
C979 H955 0.951 . S
C979 C980 1.366 . S
C979 C981 1.388 . S
C980 C979 1.366 . S
C980 C984 1.385 . S
C981 H956 0.951 1_545 S
C981 C979 1.388 . S
C981 C982 1.366 1_545 S
C982 C981 1.366 1_565 S
C982 C983 1.414 1_565 S
C982 C985 1.499 . S
C983 H957 0.950 . S
C983 C982 1.414 1_545 S
C983 C984 1.374 . S
C984 H958 0.950 . S
C984 C980 1.385 . S
C984 C983 1.374 . S
C985 C982 1.499 . S
C985 C986 1.373 . S
C985 C987 1.389 . S
C986 H959 0.950 . S
C986 C972 1.377 . S
C986 C985 1.373 . S
C987 C971 1.377 . S
C987 C985 1.389 . S
C987 C988 1.524 . S
C988 C987 1.524 . S
C988 C989 1.397 1_565 S
C988 C993 1.363 . S
C989 H960 0.950 . S
C989 C988 1.397 1_545 S
C989 C990 1.334 . S
C990 H961 0.950 . S
C990 C989 1.334 . S
C990 C991 1.287 . S
C991 C990 1.287 . S
C991 C992 1.524 1_545 S
C991 H994 0.999 . S
C992 H962 0.950 . S
C992 C991 1.524 1_565 S
C992 C993 1.415 . S
C993 H963 0.950 . S
C993 C988 1.363 . S
C993 C992 1.415 . S
H994 C991 0.999 . S
H995 C976 0.913 . S
H996 C1014 0.951 . S
H997 C1016 0.951 . S
H998 C1018 0.950 . S
H999 C1019 0.950 . S
H1000 C1021 0.950 . S
H1001 C1024 0.950 . S
H1002 C1025 0.950 . S
H1003 C1027 0.950 . S
H1004 C1028 0.950 . S
H1005 C1029 0.951 . S
H1006 C1031 0.951 . S
H1007 C1033 0.950 . S
H1008 C1034 0.950 . S
H1009 C1036 0.950 . S
H1010 C1039 0.950 . S
H1011 C1040 0.950 . S
H1012 C1042 0.950 . S
H1013 C1043 0.950 . S
C1014 H996 0.951 . S
C1014 C1015 1.366 . S
C1014 C1016 1.388 . S
C1015 C1014 1.366 . S
C1015 C1019 1.385 . S
C1016 H997 0.951 . S
C1016 C1014 1.388 . S
C1016 C1017 1.366 . S
C1017 C1016 1.366 . S
C1017 C1018 1.414 . S
C1017 C1020 1.499 . S
C1018 H998 0.950 . S
C1018 C1017 1.414 . S
C1018 C1019 1.374 . S
C1019 H999 0.950 . S
C1019 C1015 1.385 . S
C1019 C1018 1.374 . S
C1020 C1017 1.499 . S
C1020 C1021 1.373 . S
C1020 C1022 1.389 . S
C1021 H1000 0.950 . S
C1021 C1020 1.373 . S
C1021 C1037 1.377 . S
C1022 C1020 1.389 . S
C1022 C1023 1.524 . S
C1022 C1036 1.377 . S
C1023 C1022 1.524 . S
C1023 C1024 1.397 . S
C1023 C1028 1.363 . S
C1024 H1001 0.950 . S
C1024 C1023 1.397 . S
C1024 C1025 1.334 . S
C1025 H1002 0.950 . S
C1025 C1024 1.334 . S
C1025 C1026 1.287 . S
C1026 C1025 1.287 . S
C1026 C1027 1.524 . S
C1026 H1045 0.913 . S
C1027 H1003 0.950 . S
C1027 C1026 1.524 . S
C1027 C1028 1.415 . S
C1028 H1004 0.950 . S
C1028 C1023 1.363 . S
C1028 C1027 1.415 . S
C1029 H1005 0.951 . S
C1029 C1030 1.366 . S
C1029 C1031 1.388 . S
C1030 C1029 1.366 . S
C1030 C1034 1.385 . S
C1031 H1006 0.951 . S
C1031 C1029 1.388 . S
C1031 C1032 1.366 . S
C1032 C1031 1.366 . S
C1032 C1033 1.414 . S
C1032 C1035 1.499 . S
C1033 H1007 0.950 . S
C1033 C1032 1.414 . S
C1033 C1034 1.374 . S
C1034 H1008 0.950 . S
C1034 C1030 1.385 . S
C1034 C1033 1.374 . S
C1035 C1032 1.499 . S
C1035 C1036 1.373 . S
C1035 C1037 1.389 . S
C1036 H1009 0.950 . S
C1036 C1022 1.377 . S
C1036 C1035 1.373 . S
C1037 C1021 1.377 . S
C1037 C1035 1.389 . S
C1037 C1038 1.524 . S
C1038 C1037 1.524 . S
C1038 C1039 1.397 . S
C1038 C1043 1.363 . S
C1039 H1010 0.950 . S
C1039 C1038 1.397 . S
C1039 C1040 1.334 . S
C1040 H1011 0.950 . S
C1040 C1039 1.334 . S
C1040 C1041 1.287 . S
C1041 C1040 1.287 . S
C1041 C1042 1.524 . S
C1041 H1044 0.999 . S
C1042 H1012 0.950 . S
C1042 C1041 1.524 . S
C1042 C1043 1.415 . S
C1043 H1013 0.950 . S
C1043 C1038 1.363 . S
C1043 C1042 1.415 . S
H1044 C1041 0.999 . S
H1045 C1026 0.913 . S
H1046 C1064 0.951 . S
H1047 C1066 0.951 . S
H1048 C1068 0.950 . S
H1049 C1069 0.950 . S
H1050 C1071 0.950 . S
H1051 C1074 0.950 . S
H1052 C1075 0.950 . S
H1053 C1077 0.950 . S
H1054 C1078 0.950 . S
H1055 C1079 0.951 . S
H1056 C1081 0.951 . S
H1057 C1083 0.950 . S
H1058 C1084 0.950 . S
H1059 C1086 0.950 . S
H1060 C1089 0.950 . S
H1061 C1090 0.950 . S
H1062 C1092 0.950 . S
H1063 C1093 0.950 . S
C1064 H1046 0.951 . S
C1064 C1065 1.366 . S
C1064 C1066 1.388 . S
C1065 C1064 1.366 . S
C1065 C1069 1.385 . S
C1066 H1047 0.951 . S
C1066 C1064 1.388 . S
C1066 C1067 1.366 . S
C1067 C1066 1.366 . S
C1067 C1068 1.414 . S
C1067 C1070 1.499 . S
C1068 H1048 0.950 . S
C1068 C1067 1.414 . S
C1068 C1069 1.374 . S
C1069 H1049 0.950 . S
C1069 C1065 1.385 . S
C1069 C1068 1.374 . S
C1070 C1067 1.499 . S
C1070 C1071 1.373 . S
C1070 C1072 1.389 . S
C1071 H1050 0.950 . S
C1071 C1070 1.373 . S
C1071 C1087 1.377 . S
C1072 C1070 1.389 . S
C1072 C1073 1.524 . S
C1072 C1086 1.377 . S
C1073 C1072 1.524 . S
C1073 C1074 1.397 . S
C1073 C1078 1.363 . S
C1074 H1051 0.950 . S
C1074 C1073 1.397 . S
C1074 C1075 1.334 . S
C1075 H1052 0.950 . S
C1075 C1074 1.334 . S
C1075 C1076 1.287 . S
C1076 C1075 1.287 . S
C1076 C1077 1.524 . S
C1076 H1095 0.913 . S
C1077 H1053 0.950 . S
C1077 C1076 1.524 . S
C1077 C1078 1.415 . S
C1078 H1054 0.950 . S
C1078 C1073 1.363 . S
C1078 C1077 1.415 . S
C1079 H1055 0.951 . S
C1079 C1080 1.366 . S
C1079 C1081 1.388 . S
C1080 C1079 1.366 . S
C1080 C1084 1.385 . S
C1081 H1056 0.951 . S
C1081 C1079 1.388 . S
C1081 C1082 1.366 . S
C1082 C1081 1.366 . S
C1082 C1083 1.414 . S
C1082 C1085 1.499 . S
C1083 H1057 0.950 . S
C1083 C1082 1.414 . S
C1083 C1084 1.374 . S
C1084 H1058 0.950 . S
C1084 C1080 1.385 . S
C1084 C1083 1.374 . S
C1085 C1082 1.499 . S
C1085 C1086 1.373 . S
C1085 C1087 1.389 . S
C1086 H1059 0.950 . S
C1086 C1072 1.377 . S
C1086 C1085 1.373 . S
C1087 C1071 1.377 . S
C1087 C1085 1.389 . S
C1087 C1088 1.524 . S
C1088 C1087 1.524 . S
C1088 C1089 1.397 . S
C1088 C1093 1.363 . S
C1089 H1060 0.950 . S
C1089 C1088 1.397 . S
C1089 C1090 1.334 . S
C1090 H1061 0.950 . S
C1090 C1089 1.334 . S
C1090 C1091 1.287 . S
C1091 C1090 1.287 . S
C1091 C1092 1.524 . S
C1091 H1094 0.999 . S
C1092 H1062 0.950 . S
C1092 C1091 1.524 . S
C1092 C1093 1.415 . S
C1093 H1063 0.950 . S
C1093 C1088 1.363 . S
C1093 C1092 1.415 . S
H1094 C1091 0.999 . S
H1095 C1076 0.913 . S
H1096 C1114 0.951 . S
H1097 C1116 0.951 . S
H1098 C1118 0.950 . S
H1099 C1119 0.950 . S
H1100 C1121 0.950 . S
H1101 C1124 0.950 . S
H1102 C1125 0.950 . S
H1103 C1127 0.950 . S
H1104 C1128 0.950 . S
H1105 C1129 0.951 . S
H1106 C1131 0.951 . S
H1107 C1133 0.950 . S
H1108 C1134 0.950 . S
H1109 C1136 0.950 . S
H1110 C1139 0.950 . S
H1111 C1140 0.950 . S
H1112 C1142 0.950 . S
H1113 C1143 0.950 . S
C1114 H1096 0.951 . S
C1114 C1115 1.366 . S
C1114 C1116 1.388 . S
C1115 C1114 1.366 . S
C1115 C1119 1.385 . S
C1116 H1097 0.951 . S
C1116 C1114 1.388 . S
C1116 C1117 1.366 . S
C1117 C1116 1.366 . S
C1117 C1118 1.414 . S
C1117 C1120 1.499 . S
C1118 H1098 0.950 . S
C1118 C1117 1.414 . S
C1118 C1119 1.374 . S
C1119 H1099 0.950 . S
C1119 C1115 1.385 . S
C1119 C1118 1.374 . S
C1120 C1117 1.499 . S
C1120 C1121 1.373 . S
C1120 C1122 1.389 . S
C1121 H1100 0.950 . S
C1121 C1120 1.373 . S
C1121 C1137 1.377 . S
C1122 C1120 1.389 . S
C1122 C1123 1.524 . S
C1122 C1136 1.377 . S
C1123 C1122 1.524 . S
C1123 C1124 1.397 . S
C1123 C1128 1.363 . S
C1124 H1101 0.950 . S
C1124 C1123 1.397 . S
C1124 C1125 1.334 . S
C1125 H1102 0.950 . S
C1125 C1124 1.334 . S
C1125 C1126 1.287 . S
C1126 C1125 1.287 . S
C1126 C1127 1.524 . S
C1126 H1145 0.913 . S
C1127 H1103 0.950 . S
C1127 C1126 1.524 . S
C1127 C1128 1.415 . S
C1128 H1104 0.950 . S
C1128 C1123 1.363 . S
C1128 C1127 1.415 . S
C1129 H1105 0.951 . S
C1129 C1130 1.366 . S
C1129 C1131 1.388 . S
C1130 C1129 1.366 . S
C1130 C1134 1.385 . S
C1131 H1106 0.951 . S
C1131 C1129 1.388 . S
C1131 C1132 1.366 . S
C1132 C1131 1.366 . S
C1132 C1133 1.414 . S
C1132 C1135 1.499 . S
C1133 H1107 0.950 . S
C1133 C1132 1.414 . S
C1133 C1134 1.374 . S
C1134 H1108 0.950 . S
C1134 C1130 1.385 . S
C1134 C1133 1.374 . S
C1135 C1132 1.499 . S
C1135 C1136 1.373 . S
C1135 C1137 1.389 . S
C1136 H1109 0.950 . S
C1136 C1122 1.377 . S
C1136 C1135 1.373 . S
C1137 C1121 1.377 . S
C1137 C1135 1.389 . S
C1137 C1138 1.524 . S
C1138 C1137 1.524 . S
C1138 C1139 1.397 . S
C1138 C1143 1.363 . S
C1139 H1110 0.950 . S
C1139 C1138 1.397 . S
C1139 C1140 1.334 . S
C1140 H1111 0.950 . S
C1140 C1139 1.334 . S
C1140 C1141 1.287 . S
C1141 C1140 1.287 . S
C1141 C1142 1.524 . S
C1141 H1144 0.999 . S
C1142 H1112 0.950 . S
C1142 C1141 1.524 . S
C1142 C1143 1.415 . S
C1143 H1113 0.950 . S
C1143 C1138 1.363 . S
C1143 C1142 1.415 . S
H1144 C1141 0.999 . S
H1145 C1126 0.913 . S
H1146 C1164 0.951 . S
H1147 C1166 0.951 . S
H1148 C1168 0.950 . S
H1149 C1169 0.950 . S
H1150 C1171 0.950 . S
H1151 C1174 0.950 . S
H1152 C1175 0.950 . S
H1153 C1177 0.950 . S
H1154 C1178 0.950 . S
H1155 C1179 0.951 . S
H1156 C1181 0.951 . S
H1157 C1183 0.950 . S
H1158 C1184 0.950 . S
H1159 C1186 0.950 . S
H1160 C1189 0.950 . S
H1161 C1190 0.950 . S
H1162 C1192 0.950 . S
H1163 C1193 0.950 . S
C1164 H1146 0.951 . S
C1164 C1165 1.366 . S
C1164 C1166 1.388 . S
C1165 C1164 1.366 . S
C1165 C1169 1.385 . S
C1166 H1147 0.951 . S
C1166 C1164 1.388 . S
C1166 C1167 1.366 . S
C1167 C1166 1.366 . S
C1167 C1168 1.414 . S
C1167 C1170 1.499 . S
C1168 H1148 0.950 . S
C1168 C1167 1.414 . S
C1168 C1169 1.374 . S
C1169 H1149 0.950 . S
C1169 C1165 1.385 . S
C1169 C1168 1.374 . S
C1170 C1167 1.499 . S
C1170 C1171 1.373 . S
C1170 C1172 1.389 . S
C1171 H1150 0.950 . S
C1171 C1170 1.373 . S
C1171 C1187 1.377 . S
C1172 C1170 1.389 . S
C1172 C1173 1.524 . S
C1172 C1186 1.377 . S
C1173 C1172 1.524 . S
C1173 C1174 1.397 . S
C1173 C1178 1.363 . S
C1174 H1151 0.950 . S
C1174 C1173 1.397 . S
C1174 C1175 1.334 . S
C1175 H1152 0.950 . S
C1175 C1174 1.334 . S
C1175 C1176 1.287 . S
C1176 C1175 1.287 . S
C1176 C1177 1.524 . S
C1176 H1195 0.913 . S
C1177 H1153 0.950 . S
C1177 C1176 1.524 . S
C1177 C1178 1.415 . S
C1178 H1154 0.950 . S
C1178 C1173 1.363 . S
C1178 C1177 1.415 . S
C1179 H1155 0.951 . S
C1179 C1180 1.366 . S
C1179 C1181 1.388 . S
C1180 C1179 1.366 . S
C1180 C1184 1.385 . S
C1181 H1156 0.951 . S
C1181 C1179 1.388 . S
C1181 C1182 1.366 . S
C1182 C1181 1.366 . S
C1182 C1183 1.414 . S
C1182 C1185 1.499 . S
C1183 H1157 0.950 . S
C1183 C1182 1.414 . S
C1183 C1184 1.374 . S
C1184 H1158 0.950 . S
C1184 C1180 1.385 . S
C1184 C1183 1.374 . S
C1185 C1182 1.499 . S
C1185 C1186 1.373 . S
C1185 C1187 1.389 . S
C1186 H1159 0.950 . S
C1186 C1172 1.377 . S
C1186 C1185 1.373 . S
C1187 C1171 1.377 . S
C1187 C1185 1.389 . S
C1187 C1188 1.524 . S
C1188 C1187 1.524 . S
C1188 C1189 1.397 . S
C1188 C1193 1.363 . S
C1189 H1160 0.950 . S
C1189 C1188 1.397 . S
C1189 C1190 1.334 . S
C1190 H1161 0.950 . S
C1190 C1189 1.334 . S
C1190 C1191 1.287 . S
C1191 C1190 1.287 . S
C1191 C1192 1.524 . S
C1191 H1194 0.999 . S
C1192 H1162 0.950 . S
C1192 C1191 1.524 . S
C1192 C1193 1.415 . S
C1193 H1163 0.950 . S
C1193 C1188 1.363 . S
C1193 C1192 1.415 . S
H1194 C1191 0.999 . S
H1195 C1176 0.913 . S
H1196 C1214 0.951 . S
H1197 C1216 0.951 . S
H1198 C1218 0.950 . S
H1199 C1219 0.950 . S
H1200 C1221 0.950 . S
H1201 C1224 0.950 . S
H1202 C1225 0.950 . S
H1203 C1227 0.950 . S
H1204 C1228 0.950 . S
H1205 C1229 0.951 . S
H1206 C1231 0.951 . S
H1207 C1233 0.950 . S
H1208 C1234 0.950 . S
H1209 C1236 0.950 . S
H1210 C1239 0.950 . S
H1211 C1240 0.950 . S
H1212 C1242 0.950 . S
H1213 C1243 0.950 . S
C1214 H1196 0.951 . S
C1214 C1215 1.366 . S
C1214 C1216 1.388 . S
C1215 C1214 1.366 . S
C1215 C1219 1.385 . S
C1216 H1197 0.951 . S
C1216 C1214 1.388 . S
C1216 C1217 1.366 . S
C1217 C1216 1.366 . S
C1217 C1218 1.414 . S
C1217 C1220 1.499 . S
C1218 H1198 0.950 . S
C1218 C1217 1.414 . S
C1218 C1219 1.374 . S
C1219 H1199 0.950 . S
C1219 C1215 1.385 . S
C1219 C1218 1.374 . S
C1220 C1217 1.499 . S
C1220 C1221 1.373 . S
C1220 C1222 1.389 . S
C1221 H1200 0.950 . S
C1221 C1220 1.373 . S
C1221 C1237 1.377 . S
C1222 C1220 1.389 . S
C1222 C1223 1.524 . S
C1222 C1236 1.377 . S
C1223 C1222 1.524 . S
C1223 C1224 1.397 . S
C1223 C1228 1.363 . S
C1224 H1201 0.950 . S
C1224 C1223 1.397 . S
C1224 C1225 1.334 . S
C1225 H1202 0.950 . S
C1225 C1224 1.334 . S
C1225 C1226 1.287 . S
C1226 C1225 1.287 . S
C1226 C1227 1.524 . S
C1226 H1245 0.913 . S
C1227 H1203 0.950 . S
C1227 C1226 1.524 . S
C1227 C1228 1.415 . S
C1228 H1204 0.950 . S
C1228 C1223 1.363 . S
C1228 C1227 1.415 . S
C1229 H1205 0.951 . S
C1229 C1230 1.366 . S
C1229 C1231 1.388 . S
C1230 C1229 1.366 . S
C1230 C1234 1.385 . S
C1231 H1206 0.951 . S
C1231 C1229 1.388 . S
C1231 C1232 1.366 . S
C1232 C1231 1.366 . S
C1232 C1233 1.414 . S
C1232 C1235 1.499 . S
C1233 H1207 0.950 . S
C1233 C1232 1.414 . S
C1233 C1234 1.374 . S
C1234 H1208 0.950 . S
C1234 C1230 1.385 . S
C1234 C1233 1.374 . S
C1235 C1232 1.499 . S
C1235 C1236 1.373 . S
C1235 C1237 1.389 . S
C1236 H1209 0.950 . S
C1236 C1222 1.377 . S
C1236 C1235 1.373 . S
C1237 C1221 1.377 . S
C1237 C1235 1.389 . S
C1237 C1238 1.524 . S
C1238 C1237 1.524 . S
C1238 C1239 1.397 . S
C1238 C1243 1.363 . S
C1239 H1210 0.950 . S
C1239 C1238 1.397 . S
C1239 C1240 1.334 . S
C1240 H1211 0.950 . S
C1240 C1239 1.334 . S
C1240 C1241 1.287 . S
C1241 C1240 1.287 . S
C1241 C1242 1.524 . S
C1241 H1244 0.999 . S
C1242 H1212 0.950 . S
C1242 C1241 1.524 . S
C1242 C1243 1.415 . S
C1243 H1213 0.950 . S
C1243 C1238 1.363 . S
C1243 C1242 1.415 . S
H1244 C1241 0.999 . S
H1245 C1226 0.913 . S
H1246 C1264 0.951 . S
H1247 C1266 0.951 . S
H1248 C1268 0.950 . S
H1249 C1269 0.950 . S
H1250 C1271 0.950 . S
H1251 C1274 0.950 . S
H1252 C1275 0.950 . S
H1253 C1277 0.943 1_554 S
H1254 C1278 0.950 . S
H1255 C1279 0.951 . S
H1256 C1281 0.951 . S
H1257 C1283 0.950 . S
H1258 C1284 0.950 . S
H1259 C1286 0.950 . S
H1260 C1289 0.950 . S
H1261 C1290 0.950 . S
H1262 C1292 0.950 . S
H1263 C1293 0.950 . S
C1264 H1246 0.951 . S
C1264 C1265 1.366 . S
C1264 C1266 1.388 . S
C1265 C1264 1.366 . S
C1265 C1269 1.385 . S
C1266 H1247 0.951 . S
C1266 C1264 1.388 . S
C1266 C1267 1.366 . S
C1267 C1266 1.366 . S
C1267 C1268 1.414 . S
C1267 C1270 1.499 . S
C1268 H1248 0.950 . S
C1268 C1267 1.414 . S
C1268 C1269 1.374 . S
C1269 H1249 0.950 . S
C1269 C1265 1.385 . S
C1269 C1268 1.374 . S
C1270 C1267 1.499 . S
C1270 C1271 1.373 . S
C1270 C1272 1.389 . S
C1271 H1250 0.950 . S
C1271 C1270 1.373 . S
C1271 C1287 1.377 . S
C1272 C1270 1.389 . S
C1272 C1273 1.524 . S
C1272 C1286 1.377 . S
C1273 C1272 1.524 . S
C1273 C1274 1.397 . S
C1273 C1278 1.363 . S
C1274 H1251 0.950 . S
C1274 C1273 1.397 . S
C1274 C1275 1.334 . S
C1275 H1252 0.950 . S
C1275 C1274 1.334 . S
C1275 C1276 1.287 1_556 S
C1276 C1275 1.287 1_554 S
C1276 C1277 1.522 1_554 S
C1276 H1295 0.913 . S
C1277 H1253 0.943 1_556 S
C1277 C1276 1.522 1_556 S
C1277 C1278 1.425 . S
C1278 H1254 0.950 . S
C1278 C1273 1.363 . S
C1278 C1277 1.425 . S
C1279 H1255 0.951 . S
C1279 C1280 1.366 . S
C1279 C1281 1.388 . S
C1280 C1279 1.366 . S
C1280 C1284 1.385 . S
C1281 H1256 0.951 . S
C1281 C1279 1.388 . S
C1281 C1282 1.366 . S
C1282 C1281 1.366 . S
C1282 C1283 1.414 . S
C1282 C1285 1.499 . S
C1283 H1257 0.950 . S
C1283 C1282 1.414 . S
C1283 C1284 1.374 . S
C1284 H1258 0.950 . S
C1284 C1280 1.385 . S
C1284 C1283 1.374 . S
C1285 C1282 1.499 . S
C1285 C1286 1.373 . S
C1285 C1287 1.389 . S
C1286 H1259 0.950 . S
C1286 C1272 1.377 . S
C1286 C1285 1.373 . S
C1287 C1271 1.377 . S
C1287 C1285 1.389 . S
C1287 C1288 1.524 . S
C1288 C1287 1.524 . S
C1288 C1289 1.397 . S
C1288 C1293 1.363 . S
C1289 H1260 0.950 . S
C1289 C1288 1.397 . S
C1289 C1290 1.334 . S
C1290 H1261 0.950 . S
C1290 C1289 1.334 . S
C1290 C1291 1.287 . S
C1291 C1290 1.287 . S
C1291 C1292 1.524 . S
C1291 H1294 0.999 . S
C1292 H1262 0.950 . S
C1292 C1291 1.524 . S
C1292 C1293 1.415 . S
C1293 H1263 0.950 . S
C1293 C1288 1.363 . S
C1293 C1292 1.415 . S
H1294 C1291 0.999 . S
H1295 C1276 0.913 . S
H1296 C1314 0.951 . S
H1297 C1316 0.951 . S
H1298 C1318 0.950 . S
H1299 C1319 0.950 . S
H1300 C1321 0.950 . S
H1301 C1324 0.950 . S
H1302 C1325 0.950 . S
H1303 C1327 0.950 . S
H1304 C1328 0.950 . S
H1305 C1329 0.951 . S
H1306 C1331 0.951 . S
H1307 C1333 0.950 . S
H1308 C1334 0.950 . S
H1309 C1336 0.950 . S
H1310 C1339 0.950 . S
H1311 C1340 0.950 . S
H1312 C1342 0.950 . S
H1313 C1343 0.950 . S
C1314 H1296 0.951 . S
C1314 C1315 1.366 . S
C1314 C1316 1.388 . S
C1315 C1314 1.366 . S
C1315 C1319 1.385 . S
C1316 H1297 0.951 . S
C1316 C1314 1.388 . S
C1316 C1317 1.366 . S
C1317 C1316 1.366 . S
C1317 C1318 1.414 . S
C1317 C1320 1.499 . S
C1318 H1298 0.950 . S
C1318 C1317 1.414 . S
C1318 C1319 1.374 . S
C1319 H1299 0.950 . S
C1319 C1315 1.385 . S
C1319 C1318 1.374 . S
C1320 C1317 1.499 . S
C1320 C1321 1.373 . S
C1320 C1322 1.389 . S
C1321 H1300 0.950 . S
C1321 C1320 1.373 . S
C1321 C1337 1.377 . S
C1322 C1320 1.389 . S
C1322 C1323 1.524 . S
C1322 C1336 1.377 . S
C1323 C1322 1.524 . S
C1323 C1324 1.397 . S
C1323 C1328 1.363 . S
C1324 H1301 0.950 . S
C1324 C1323 1.397 . S
C1324 C1325 1.334 . S
C1325 H1302 0.950 . S
C1325 C1324 1.334 . S
C1325 C1326 1.287 . S
C1326 C1325 1.287 . S
C1326 C1327 1.524 . S
C1326 H1345 0.913 . S
C1327 H1303 0.950 . S
C1327 C1326 1.524 . S
C1327 C1328 1.415 . S
C1328 H1304 0.950 . S
C1328 C1323 1.363 . S
C1328 C1327 1.415 . S
C1329 H1305 0.951 . S
C1329 C1330 1.366 . S
C1329 C1331 1.388 . S
C1330 C1329 1.366 . S
C1330 C1334 1.385 . S
C1331 H1306 0.951 . S
C1331 C1329 1.388 . S
C1331 C1332 1.366 . S
C1332 C1331 1.366 . S
C1332 C1333 1.414 . S
C1332 C1335 1.499 . S
C1333 H1307 0.950 . S
C1333 C1332 1.414 . S
C1333 C1334 1.374 . S
C1334 H1308 0.950 . S
C1334 C1330 1.385 . S
C1334 C1333 1.374 . S
C1335 C1332 1.499 . S
C1335 C1336 1.373 . S
C1335 C1337 1.389 . S
C1336 H1309 0.950 . S
C1336 C1322 1.377 . S
C1336 C1335 1.373 . S
C1337 C1321 1.377 . S
C1337 C1335 1.389 . S
C1337 C1338 1.524 . S
C1338 C1337 1.524 . S
C1338 C1339 1.397 . S
C1338 C1343 1.363 . S
C1339 H1310 0.950 . S
C1339 C1338 1.397 . S
C1339 C1340 1.334 . S
C1340 H1311 0.950 . S
C1340 C1339 1.334 . S
C1340 C1341 1.287 . S
C1341 C1340 1.287 . S
C1341 C1342 1.524 . S
C1341 H1344 0.999 . S
C1342 H1312 0.950 . S
C1342 C1341 1.524 . S
C1342 C1343 1.415 . S
C1343 H1313 0.950 . S
C1343 C1338 1.363 . S
C1343 C1342 1.415 . S
H1344 C1341 0.999 . S
H1345 C1326 0.913 . S
H1346 C1364 0.951 . S
H1347 C1366 0.951 . S
H1348 C1368 0.950 . S
H1349 C1369 0.950 . S
H1350 C1371 0.950 . S
H1351 C1374 0.950 . S
H1352 C1375 0.950 . S
H1353 C1377 0.950 . S
H1354 C1378 0.950 . S
H1355 C1379 0.951 . S
H1356 C1381 0.951 . S
H1357 C1383 0.950 . S
H1358 C1384 0.950 . S
H1359 C1386 0.950 . S
H1360 C1389 0.950 . S
H1361 C1390 0.950 . S
H1362 C1392 0.950 . S
H1363 C1393 0.950 . S
C1364 H1346 0.951 . S
C1364 C1365 1.366 . S
C1364 C1366 1.388 . S
C1365 C1364 1.366 . S
C1365 C1369 1.385 . S
C1366 H1347 0.951 . S
C1366 C1364 1.388 . S
C1366 C1367 1.366 . S
C1367 C1366 1.366 . S
C1367 C1368 1.414 . S
C1367 C1370 1.499 . S
C1368 H1348 0.950 . S
C1368 C1367 1.414 . S
C1368 C1369 1.374 . S
C1369 H1349 0.950 . S
C1369 C1365 1.385 . S
C1369 C1368 1.374 . S
C1370 C1367 1.499 . S
C1370 C1371 1.373 . S
C1370 C1372 1.389 . S
C1371 H1350 0.950 . S
C1371 C1370 1.373 . S
C1371 C1387 1.377 1_455 S
C1372 C1370 1.389 . S
C1372 C1373 1.524 . S
C1372 C1386 1.377 1_455 S
C1373 C1372 1.524 . S
C1373 C1374 1.397 . S
C1373 C1378 1.363 1_455 S
C1374 H1351 0.950 . S
C1374 C1373 1.397 . S
C1374 C1375 1.334 . S
C1375 H1352 0.950 . S
C1375 C1374 1.334 . S
C1375 C1376 1.287 . S
C1376 C1375 1.287 . S
C1376 C1377 1.524 1_455 S
C1376 H1395 0.913 . S
C1377 H1353 0.950 . S
C1377 C1376 1.524 1_655 S
C1377 C1378 1.415 . S
C1378 H1354 0.950 . S
C1378 C1373 1.363 1_655 S
C1378 C1377 1.415 . S
C1379 H1355 0.951 . S
C1379 C1380 1.366 . S
C1379 C1381 1.388 . S
C1380 C1379 1.366 . S
C1380 C1384 1.385 . S
C1381 H1356 0.951 . S
C1381 C1379 1.388 . S
C1381 C1382 1.366 . S
C1382 C1381 1.366 . S
C1382 C1383 1.414 . S
C1382 C1385 1.499 . S
C1383 H1357 0.950 . S
C1383 C1382 1.414 . S
C1383 C1384 1.374 . S
C1384 H1358 0.950 . S
C1384 C1380 1.385 . S
C1384 C1383 1.374 . S
C1385 C1382 1.499 . S
C1385 C1386 1.373 . S
C1385 C1387 1.389 . S
C1386 H1359 0.950 . S
C1386 C1372 1.377 1_655 S
C1386 C1385 1.373 . S
C1387 C1371 1.377 1_655 S
C1387 C1385 1.389 . S
C1387 C1388 1.524 . S
C1388 C1387 1.524 . S
C1388 C1389 1.397 . S
C1388 C1393 1.363 1_655 S
C1389 H1360 0.950 . S
C1389 C1388 1.397 . S
C1389 C1390 1.334 . S
C1390 H1361 0.950 . S
C1390 C1389 1.334 . S
C1390 C1391 1.287 . S
C1391 C1390 1.287 . S
C1391 C1392 1.524 1_655 S
C1391 H1394 0.999 . S
C1392 H1362 0.950 . S
C1392 C1391 1.524 1_455 S
C1392 C1393 1.415 . S
C1393 H1363 0.950 . S
C1393 C1388 1.363 1_455 S
C1393 C1392 1.415 . S
H1394 C1391 0.999 . S
H1395 C1376 0.913 . S
H1396 C1414 0.951 . S
H1397 C1416 0.951 . S
H1398 C1418 0.950 . S
H1399 C1419 0.950 . S
H1400 C1421 0.950 . S
H1401 C1424 0.950 . S
H1402 C1425 0.950 . S
H1403 C1427 0.950 . S
H1404 C1428 0.950 . S
H1405 C1429 0.951 . S
H1406 C1431 0.951 . S
H1407 C1433 0.950 . S
H1408 C1434 0.950 . S
H1409 C1436 0.950 . S
H1410 C1439 0.950 . S
H1411 C1440 0.950 . S
H1412 C1442 0.950 . S
H1413 C1443 0.950 . S
C1414 H1396 0.951 . S
C1414 C1415 1.366 . S
C1414 C1416 1.388 . S
C1415 C1414 1.366 . S
C1415 C1419 1.385 . S
C1416 H1397 0.951 . S
C1416 C1414 1.388 . S
C1416 C1417 1.366 . S
C1417 C1416 1.366 . S
C1417 C1418 1.414 . S
C1417 C1420 1.499 . S
C1418 H1398 0.950 . S
C1418 C1417 1.414 . S
C1418 C1419 1.374 . S
C1419 H1399 0.950 . S
C1419 C1415 1.385 . S
C1419 C1418 1.374 . S
C1420 C1417 1.499 . S
C1420 C1421 1.373 1_565 S
C1420 C1422 1.389 . S
C1421 H1400 0.950 . S
C1421 C1420 1.373 1_545 S
C1421 C1437 1.377 . S
C1422 C1420 1.389 . S
C1422 C1423 1.524 . S
C1422 C1436 1.377 . S
C1423 C1422 1.524 . S
C1423 C1424 1.397 . S
C1423 C1428 1.363 . S
C1424 H1401 0.950 . S
C1424 C1423 1.397 . S
C1424 C1425 1.334 . S
C1425 H1402 0.950 . S
C1425 C1424 1.334 . S
C1425 C1426 1.287 . S
C1426 C1425 1.287 . S
C1426 C1427 1.524 . S
C1426 H1445 0.913 . S
C1427 H1403 0.950 . S
C1427 C1426 1.524 . S
C1427 C1428 1.415 . S
C1428 H1404 0.950 . S
C1428 C1423 1.363 . S
C1428 C1427 1.415 . S
C1429 H1405 0.951 . S
C1429 C1430 1.366 . S
C1429 C1431 1.388 . S
C1430 C1429 1.366 . S
C1430 C1434 1.385 . S
C1431 H1406 0.951 . S
C1431 C1429 1.388 . S
C1431 C1432 1.366 . S
C1432 C1431 1.366 . S
C1432 C1433 1.414 . S
C1432 C1435 1.499 . S
C1433 H1407 0.950 . S
C1433 C1432 1.414 . S
C1433 C1434 1.374 . S
C1434 H1408 0.950 . S
C1434 C1430 1.385 . S
C1434 C1433 1.374 . S
C1435 C1432 1.499 . S
C1435 C1436 1.373 1_545 S
C1435 C1437 1.389 . S
C1436 H1409 0.950 . S
C1436 C1422 1.377 . S
C1436 C1435 1.373 1_565 S
C1437 C1421 1.377 . S
C1437 C1435 1.389 . S
C1437 C1438 1.524 . S
C1438 C1437 1.524 . S
C1438 C1439 1.397 . S
C1438 C1443 1.363 . S
C1439 H1410 0.950 . S
C1439 C1438 1.397 . S
C1439 C1440 1.334 . S
C1440 H1411 0.950 . S
C1440 C1439 1.334 . S
C1440 C1441 1.287 . S
C1441 C1440 1.287 . S
C1441 C1442 1.524 . S
C1441 H1444 0.999 . S
C1442 H1412 0.950 . S
C1442 C1441 1.524 . S
C1442 C1443 1.415 . S
C1443 H1413 0.950 . S
C1443 C1438 1.363 . S
C1443 C1442 1.415 . S
H1444 C1441 0.999 . S
H1445 C1426 0.913 . S
H1446 C1464 0.951 . S
H1447 C1466 0.951 . S
H1448 C1468 0.950 . S
H1449 C1469 0.950 . S
H1450 C1471 0.950 . S
H1451 C1474 0.950 . S
H1452 C1475 0.950 . S
H1453 C1477 0.950 . S
H1454 C1478 0.950 . S
H1455 C1479 0.951 . S
H1456 C1481 0.951 . S
H1457 C1483 0.950 . S
H1458 C1484 0.950 . S
H1459 C1486 0.950 . S
H1460 C1489 0.950 . S
H1461 C1490 0.950 . S
H1462 C1492 0.950 . S
H1463 C1493 0.950 . S
C1464 H1446 0.951 . S
C1464 C1465 1.366 . S
C1464 C1466 1.388 . S
C1465 C1464 1.366 . S
C1465 C1469 1.385 . S
C1466 H1447 0.951 . S
C1466 C1464 1.388 . S
C1466 C1467 1.366 . S
C1467 C1466 1.366 . S
C1467 C1468 1.414 . S
C1467 C1470 1.499 . S
C1468 H1448 0.950 . S
C1468 C1467 1.414 . S
C1468 C1469 1.374 . S
C1469 H1449 0.950 . S
C1469 C1465 1.385 . S
C1469 C1468 1.374 . S
C1470 C1467 1.499 . S
C1470 C1471 1.373 . S
C1470 C1472 1.389 . S
C1471 H1450 0.950 . S
C1471 C1470 1.373 . S
C1471 C1487 1.377 . S
C1472 C1470 1.389 . S
C1472 C1473 1.524 . S
C1472 C1486 1.377 . S
C1473 C1472 1.524 . S
C1473 C1474 1.397 . S
C1473 C1478 1.363 . S
C1474 H1451 0.950 . S
C1474 C1473 1.397 . S
C1474 C1475 1.334 . S
C1475 H1452 0.950 . S
C1475 C1474 1.334 . S
C1475 C1476 1.287 . S
C1476 C1475 1.287 . S
C1476 C1477 1.524 . S
C1476 H1495 0.913 . S
C1477 H1453 0.950 . S
C1477 C1476 1.524 . S
C1477 C1478 1.415 . S
C1478 H1454 0.950 . S
C1478 C1473 1.363 . S
C1478 C1477 1.415 . S
C1479 H1455 0.951 . S
C1479 C1480 1.366 . S
C1479 C1481 1.388 . S
C1480 C1479 1.366 . S
C1480 C1484 1.385 . S
C1481 H1456 0.951 . S
C1481 C1479 1.388 . S
C1481 C1482 1.366 . S
C1482 C1481 1.366 . S
C1482 C1483 1.414 . S
C1482 C1485 1.499 . S
C1483 H1457 0.950 . S
C1483 C1482 1.414 . S
C1483 C1484 1.374 . S
C1484 H1458 0.950 . S
C1484 C1480 1.385 . S
C1484 C1483 1.374 . S
C1485 C1482 1.499 . S
C1485 C1486 1.373 . S
C1485 C1487 1.389 . S
C1486 H1459 0.950 . S
C1486 C1472 1.377 . S
C1486 C1485 1.373 . S
C1487 C1471 1.377 . S
C1487 C1485 1.389 . S
C1487 C1488 1.524 . S
C1488 C1487 1.524 . S
C1488 C1489 1.397 . S
C1488 C1493 1.363 . S
C1489 H1460 0.950 . S
C1489 C1488 1.397 . S
C1489 C1490 1.334 . S
C1490 H1461 0.950 . S
C1490 C1489 1.334 . S
C1490 C1491 1.287 . S
C1491 C1490 1.287 . S
C1491 C1492 1.524 . S
C1491 H1494 0.999 . S
C1492 H1462 0.950 . S
C1492 C1491 1.524 . S
C1492 C1493 1.415 . S
C1493 H1463 0.950 . S
C1493 C1488 1.363 . S
C1493 C1492 1.415 . S
H1494 C1491 0.999 . S
H1495 C1476 0.913 . S
H1496 C1514 0.951 . S
H1497 C1516 0.951 . S
H1498 C1518 0.950 . S
H1499 C1519 0.950 . S
H1500 C1521 0.950 . S
H1501 C1524 0.950 1_455 S
H1502 C1525 0.950 . S
H1503 C1527 0.950 . S
H1504 C1528 0.950 . S
H1505 C1529 0.951 . S
H1506 C1531 0.951 . S
H1507 C1533 0.950 . S
H1508 C1534 0.950 . S
H1509 C1536 0.950 . S
H1510 C1539 0.950 1_655 S
H1511 C1540 0.950 . S
H1512 C1542 0.950 . S
H1513 C1543 0.950 . S
C1514 H1496 0.951 . S
C1514 C1515 1.366 . S
C1514 C1516 1.388 . S
C1515 C1514 1.366 . S
C1515 C1519 1.385 . S
C1516 H1497 0.951 . S
C1516 C1514 1.388 . S
C1516 C1517 1.366 . S
C1517 C1516 1.366 . S
C1517 C1518 1.414 . S
C1517 C1520 1.499 . S
C1518 H1498 0.950 . S
C1518 C1517 1.414 . S
C1518 C1519 1.374 . S
C1519 H1499 0.950 . S
C1519 C1515 1.385 . S
C1519 C1518 1.374 . S
C1520 C1517 1.499 . S
C1520 C1521 1.373 . S
C1520 C1522 1.389 1_455 S
C1521 H1500 0.950 . S
C1521 C1520 1.373 . S
C1521 C1537 1.377 . S
C1522 C1520 1.389 1_655 S
C1522 C1523 1.524 . S
C1522 C1536 1.377 . S
C1523 C1522 1.524 . S
C1523 C1524 1.397 . S
C1523 C1528 1.363 . S
C1524 H1501 0.950 1_655 S
C1524 C1523 1.397 . S
C1524 C1525 1.334 . S
C1525 H1502 0.950 . S
C1525 C1524 1.334 . S
C1525 C1526 1.287 . S
C1526 C1525 1.287 . S
C1526 C1527 1.524 . S
C1526 H1545 0.913 . S
C1527 H1503 0.950 . S
C1527 C1526 1.524 . S
C1527 C1528 1.415 . S
C1528 H1504 0.950 . S
C1528 C1523 1.363 . S
C1528 C1527 1.415 . S
C1529 H1505 0.951 . S
C1529 C1530 1.366 . S
C1529 C1531 1.388 . S
C1530 C1529 1.366 . S
C1530 C1534 1.385 . S
C1531 H1506 0.951 . S
C1531 C1529 1.388 . S
C1531 C1532 1.366 . S
C1532 C1531 1.366 . S
C1532 C1533 1.414 . S
C1532 C1535 1.499 . S
C1533 H1507 0.950 . S
C1533 C1532 1.414 . S
C1533 C1534 1.374 . S
C1534 H1508 0.950 . S
C1534 C1530 1.385 . S
C1534 C1533 1.374 . S
C1535 C1532 1.499 . S
C1535 C1536 1.373 . S
C1535 C1537 1.389 1_655 S
C1536 H1509 0.950 . S
C1536 C1522 1.377 . S
C1536 C1535 1.373 . S
C1537 C1521 1.377 . S
C1537 C1535 1.389 1_455 S
C1537 C1538 1.524 . S
C1538 C1537 1.524 . S
C1538 C1539 1.397 . S
C1538 C1543 1.363 . S
C1539 H1510 0.950 1_455 S
C1539 C1538 1.397 . S
C1539 C1540 1.334 . S
C1540 H1511 0.950 . S
C1540 C1539 1.334 . S
C1540 C1541 1.287 . S
C1541 C1540 1.287 . S
C1541 C1542 1.524 . S
C1541 H1544 0.999 . S
C1542 H1512 0.950 . S
C1542 C1541 1.524 . S
C1542 C1543 1.415 . S
C1543 H1513 0.950 . S
C1543 C1538 1.363 . S
C1543 C1542 1.415 . S
H1544 C1541 0.999 . S
H1545 C1526 0.913 . S
H1546 C1564 0.951 . S
H1547 C1566 0.951 . S
H1548 C1568 0.950 . S
H1549 C1569 0.950 . S
H1550 C1571 0.950 . S
H1551 C1574 0.950 1_554 S
H1552 C1575 0.961 . S
H1553 C1577 0.950 . S
H1554 C1578 0.950 . S
H1555 C1579 0.951 . S
H1556 C1581 0.951 . S
H1557 C1583 0.950 . S
H1558 C1584 0.950 . S
H1559 C1586 0.950 . S
H1560 C1589 0.950 . S
H1561 C1590 0.950 . S
H1562 C1592 0.950 . S
H1563 C1593 0.950 . S
C1564 H1546 0.951 . S
C1564 C1565 1.366 . S
C1564 C1566 1.388 . S
C1565 C1564 1.366 . S
C1565 C1569 1.385 . S
C1566 H1547 0.951 . S
C1566 C1564 1.388 . S
C1566 C1567 1.366 . S
C1567 C1566 1.366 . S
C1567 C1568 1.414 . S
C1567 C1570 1.499 . S
C1568 H1548 0.950 . S
C1568 C1567 1.414 . S
C1568 C1569 1.374 . S
C1569 H1549 0.950 . S
C1569 C1565 1.385 . S
C1569 C1568 1.374 . S
C1570 C1567 1.499 . S
C1570 C1571 1.373 1_565 S
C1570 C1572 1.389 1_554 S
C1571 H1550 0.950 . S
C1571 C1570 1.373 1_545 S
C1571 C1587 1.377 1_554 S
C1572 C1570 1.389 1_556 S
C1572 C1573 1.524 . S
C1572 C1586 1.377 . S
C1573 C1572 1.524 . S
C1573 C1574 1.397 . S
C1573 C1578 1.363 . S
C1574 H1551 0.950 1_556 S
C1574 C1573 1.397 . S
C1574 C1575 1.334 . S
C1575 H1552 0.961 . S
C1575 C1574 1.334 . S
C1575 C1576 1.287 . S
C1576 C1575 1.287 . S
C1576 C1577 1.524 . S
C1576 H1595 0.913 . S
C1577 H1553 0.950 . S
C1577 C1576 1.524 . S
C1577 C1578 1.415 . S
C1578 H1554 0.950 . S
C1578 C1573 1.363 . S
C1578 C1577 1.415 . S
C1579 H1555 0.951 . S
C1579 C1580 1.366 . S
C1579 C1581 1.388 . S
C1580 C1579 1.366 . S
C1580 C1584 1.385 . S
C1581 H1556 0.951 . S
C1581 C1579 1.388 . S
C1581 C1582 1.366 . S
C1582 C1581 1.366 . S
C1582 C1583 1.414 . S
C1582 C1585 1.499 . S
C1583 H1557 0.950 . S
C1583 C1582 1.414 . S
C1583 C1584 1.374 . S
C1584 H1558 0.950 . S
C1584 C1580 1.385 . S
C1584 C1583 1.374 . S
C1585 C1582 1.499 . S
C1585 C1586 1.373 1_545 S
C1585 C1587 1.389 . S
C1586 H1559 0.950 . S
C1586 C1572 1.377 . S
C1586 C1585 1.373 1_565 S
C1587 C1571 1.377 1_556 S
C1587 C1585 1.389 . S
C1587 C1588 1.524 1_556 S
C1588 C1587 1.524 1_554 S
C1588 C1589 1.397 1_554 S
C1588 C1593 1.363 . S
C1589 H1560 0.950 . S
C1589 C1588 1.397 1_556 S
C1589 C1590 1.334 . S
C1590 H1561 0.950 . S
C1590 C1589 1.334 . S
C1590 C1591 1.287 1_556 S
C1591 C1590 1.287 1_554 S
C1591 C1592 1.524 . S
C1591 H1594 0.999 . S
C1592 H1562 0.950 . S
C1592 C1591 1.524 . S
C1592 C1593 1.415 . S
C1593 H1563 0.950 . S
C1593 C1588 1.363 . S
C1593 C1592 1.415 . S
H1594 C1591 0.999 . S
H1595 C1576 0.913 . S
H1596 C1614 0.951 . S
H1597 C1616 0.951 . S
H1598 C1618 0.950 . S
H1599 C1619 0.950 . S
H1600 C1621 0.950 . S
H1601 C1624 0.950 . S
H1602 C1625 0.950 . S
H1603 C1627 0.950 . S
H1604 C1628 0.950 . S
H1605 C1629 0.951 . S
H1606 C1631 0.951 . S
H1607 C1633 0.950 . S
H1608 C1634 0.950 . S
H1609 C1636 0.950 . S
H1610 C1639 0.950 . S
H1611 C1640 0.950 . S
H1612 C1642 0.950 . S
H1613 C1643 0.950 . S
C1614 H1596 0.951 . S
C1614 C1615 1.366 . S
C1614 C1616 1.388 . S
C1615 C1614 1.366 . S
C1615 C1619 1.385 . S
C1616 H1597 0.951 . S
C1616 C1614 1.388 . S
C1616 C1617 1.366 . S
C1617 C1616 1.366 . S
C1617 C1618 1.414 . S
C1617 C1620 1.499 . S
C1618 H1598 0.950 . S
C1618 C1617 1.414 . S
C1618 C1619 1.374 . S
C1619 H1599 0.950 . S
C1619 C1615 1.385 . S
C1619 C1618 1.374 . S
C1620 C1617 1.499 . S
C1620 C1621 1.373 . S
C1620 C1622 1.389 . S
C1621 H1600 0.950 . S
C1621 C1620 1.373 . S
C1621 C1637 1.377 . S
C1622 C1620 1.389 . S
C1622 C1623 1.524 . S
C1622 C1636 1.377 . S
C1623 C1622 1.524 . S
C1623 C1624 1.397 . S
C1623 C1628 1.363 . S
C1624 H1601 0.950 . S
C1624 C1623 1.397 . S
C1624 C1625 1.334 . S
C1625 H1602 0.950 . S
C1625 C1624 1.334 . S
C1625 C1626 1.287 . S
C1626 C1625 1.287 . S
C1626 C1627 1.524 . S
C1626 H1645 0.913 . S
C1627 H1603 0.950 . S
C1627 C1626 1.524 . S
C1627 C1628 1.415 . S
C1628 H1604 0.950 . S
C1628 C1623 1.363 . S
C1628 C1627 1.415 . S
C1629 H1605 0.951 . S
C1629 C1630 1.366 . S
C1629 C1631 1.388 . S
C1630 C1629 1.366 . S
C1630 C1634 1.385 . S
C1631 H1606 0.951 . S
C1631 C1629 1.388 . S
C1631 C1632 1.366 . S
C1632 C1631 1.366 . S
C1632 C1633 1.414 . S
C1632 C1635 1.499 . S
C1633 H1607 0.950 . S
C1633 C1632 1.414 . S
C1633 C1634 1.374 . S
C1634 H1608 0.950 . S
C1634 C1630 1.385 . S
C1634 C1633 1.374 . S
C1635 C1632 1.499 . S
C1635 C1636 1.373 . S
C1635 C1637 1.389 . S
C1636 H1609 0.950 . S
C1636 C1622 1.377 . S
C1636 C1635 1.373 . S
C1637 C1621 1.377 . S
C1637 C1635 1.389 . S
C1637 C1638 1.524 . S
C1638 C1637 1.524 . S
C1638 C1639 1.397 . S
C1638 C1643 1.363 . S
C1639 H1610 0.950 . S
C1639 C1638 1.397 . S
C1639 C1640 1.334 . S
C1640 H1611 0.950 . S
C1640 C1639 1.334 . S
C1640 C1641 1.287 . S
C1641 C1640 1.287 . S
C1641 C1642 1.524 . S
C1641 H1644 0.999 . S
C1642 H1612 0.950 . S
C1642 C1641 1.524 . S
C1642 C1643 1.415 . S
C1643 H1613 0.950 . S
C1643 C1638 1.363 . S
C1643 C1642 1.415 . S
H1644 C1641 0.999 . S
H1645 C1626 0.913 . S
H1646 C1664 0.951 . S
H1647 C1666 0.951 . S
H1648 C1668 0.950 . S
H1649 C1669 0.950 . S
H1650 C1671 0.950 . S
H1651 C1674 0.950 . S
H1652 C1675 0.950 . S
H1653 C1677 0.950 . S
H1654 C1678 0.950 . S
H1655 C1679 0.951 . S
H1656 C1681 0.951 . S
H1657 C1683 0.950 . S
H1658 C1684 0.950 . S
H1659 C1686 0.950 . S
H1660 C1689 0.950 . S
H1661 C1690 0.950 . S
H1662 C1692 0.950 . S
H1663 C1693 0.950 . S
C1664 H1646 0.951 . S
C1664 C1665 1.366 . S
C1664 C1666 1.388 . S
C1665 C1664 1.366 . S
C1665 C1669 1.385 . S
C1666 H1647 0.951 . S
C1666 C1664 1.388 . S
C1666 C1667 1.366 . S
C1667 C1666 1.366 . S
C1667 C1668 1.414 . S
C1667 C1670 1.499 . S
C1668 H1648 0.950 . S
C1668 C1667 1.414 . S
C1668 C1669 1.374 . S
C1669 H1649 0.950 . S
C1669 C1665 1.385 . S
C1669 C1668 1.374 . S
C1670 C1667 1.499 . S
C1670 C1671 1.373 . S
C1670 C1672 1.389 . S
C1671 H1650 0.950 . S
C1671 C1670 1.373 . S
C1671 C1687 1.377 . S
C1672 C1670 1.389 . S
C1672 C1673 1.524 . S
C1672 C1686 1.377 . S
C1673 C1672 1.524 . S
C1673 C1674 1.397 . S
C1673 C1678 1.363 . S
C1674 H1651 0.950 . S
C1674 C1673 1.397 . S
C1674 C1675 1.334 . S
C1675 H1652 0.950 . S
C1675 C1674 1.334 . S
C1675 C1676 1.287 . S
C1676 C1675 1.287 . S
C1676 C1677 1.524 . S
C1676 H1695 0.913 . S
C1677 H1653 0.950 . S
C1677 C1676 1.524 . S
C1677 C1678 1.415 . S
C1678 H1654 0.950 . S
C1678 C1673 1.363 . S
C1678 C1677 1.415 . S
C1679 H1655 0.951 . S
C1679 C1680 1.366 . S
C1679 C1681 1.388 . S
C1680 C1679 1.366 . S
C1680 C1684 1.385 . S
C1681 H1656 0.951 . S
C1681 C1679 1.388 . S
C1681 C1682 1.366 . S
C1682 C1681 1.366 . S
C1682 C1683 1.414 . S
C1682 C1685 1.499 . S
C1683 H1657 0.950 . S
C1683 C1682 1.414 . S
C1683 C1684 1.374 . S
C1684 H1658 0.950 . S
C1684 C1680 1.385 . S
C1684 C1683 1.374 . S
C1685 C1682 1.499 . S
C1685 C1686 1.373 . S
C1685 C1687 1.389 . S
C1686 H1659 0.950 . S
C1686 C1672 1.377 . S
C1686 C1685 1.373 . S
C1687 C1671 1.377 . S
C1687 C1685 1.389 . S
C1687 C1688 1.524 . S
C1688 C1687 1.524 . S
C1688 C1689 1.397 . S
C1688 C1693 1.363 . S
C1689 H1660 0.950 . S
C1689 C1688 1.397 . S
C1689 C1690 1.334 . S
C1690 H1661 0.950 . S
C1690 C1689 1.334 . S
C1690 C1691 1.287 . S
C1691 C1690 1.287 . S
C1691 C1692 1.524 . S
C1691 H1694 0.999 . S
C1692 H1662 0.950 . S
C1692 C1691 1.524 . S
C1692 C1693 1.415 . S
C1693 H1663 0.950 . S
C1693 C1688 1.363 . S
C1693 C1692 1.415 . S
H1694 C1691 0.999 . S
H1695 C1676 0.913 . S
H1696 C1714 0.951 . S
H1697 C1716 0.951 . S
H1698 C1718 0.950 . S
H1699 C1719 0.950 . S
H1700 C1721 0.950 . S
H1701 C1724 0.950 . S
H1702 C1725 0.950 . S
H1703 C1727 0.950 . S
H1704 C1728 0.950 . S
H1705 C1729 0.951 . S
H1706 C1731 0.951 . S
H1707 C1733 0.950 . S
H1708 C1734 0.950 . S
H1709 C1736 0.950 . S
H1710 C1739 0.950 . S
H1711 C1740 0.950 . S
H1712 C1742 0.950 . S
H1713 C1743 0.950 . S
C1714 H1696 0.951 . S
C1714 C1715 1.366 . S
C1714 C1716 1.388 . S
C1715 C1714 1.366 . S
C1715 C1719 1.385 . S
C1716 H1697 0.951 . S
C1716 C1714 1.388 . S
C1716 C1717 1.366 . S
C1717 C1716 1.366 . S
C1717 C1718 1.414 . S
C1717 C1720 1.499 . S
C1718 H1698 0.950 . S
C1718 C1717 1.414 . S
C1718 C1719 1.374 . S
C1719 H1699 0.950 . S
C1719 C1715 1.385 . S
C1719 C1718 1.374 . S
C1720 C1717 1.499 . S
C1720 C1721 1.373 . S
C1720 C1722 1.389 . S
C1721 H1700 0.950 . S
C1721 C1720 1.373 . S
C1721 C1737 1.377 . S
C1722 C1720 1.389 . S
C1722 C1723 1.524 . S
C1722 C1736 1.377 . S
C1723 C1722 1.524 . S
C1723 C1724 1.397 . S
C1723 C1728 1.363 . S
C1724 H1701 0.950 . S
C1724 C1723 1.397 . S
C1724 C1725 1.334 . S
C1725 H1702 0.950 . S
C1725 C1724 1.334 . S
C1725 C1726 1.287 . S
C1726 C1725 1.287 . S
C1726 C1727 1.524 . S
C1726 H1745 0.913 . S
C1727 H1703 0.950 . S
C1727 C1726 1.524 . S
C1727 C1728 1.415 . S
C1728 H1704 0.950 . S
C1728 C1723 1.363 . S
C1728 C1727 1.415 . S
C1729 H1705 0.951 . S
C1729 C1730 1.366 . S
C1729 C1731 1.388 . S
C1730 C1729 1.366 . S
C1730 C1734 1.385 . S
C1731 H1706 0.951 . S
C1731 C1729 1.388 . S
C1731 C1732 1.366 . S
C1732 C1731 1.366 . S
C1732 C1733 1.414 . S
C1732 C1735 1.499 . S
C1733 H1707 0.950 . S
C1733 C1732 1.414 . S
C1733 C1734 1.374 . S
C1734 H1708 0.950 . S
C1734 C1730 1.385 . S
C1734 C1733 1.374 . S
C1735 C1732 1.499 . S
C1735 C1736 1.373 . S
C1735 C1737 1.389 . S
C1736 H1709 0.950 . S
C1736 C1722 1.377 . S
C1736 C1735 1.373 . S
C1737 C1721 1.377 . S
C1737 C1735 1.389 . S
C1737 C1738 1.524 . S
C1738 C1737 1.524 . S
C1738 C1739 1.397 . S
C1738 C1743 1.363 . S
C1739 H1710 0.950 . S
C1739 C1738 1.397 . S
C1739 C1740 1.334 . S
C1740 H1711 0.950 . S
C1740 C1739 1.334 . S
C1740 C1741 1.287 . S
C1741 C1740 1.287 . S
C1741 C1742 1.524 . S
C1741 H1744 0.999 . S
C1742 H1712 0.950 . S
C1742 C1741 1.524 . S
C1742 C1743 1.415 . S
C1743 H1713 0.950 . S
C1743 C1738 1.363 . S
C1743 C1742 1.415 . S
H1744 C1741 0.999 . S
H1745 C1726 0.913 . S
H1746 C1764 0.951 . S
H1747 C1766 0.951 . S
H1748 C1768 0.950 . S
H1749 C1769 0.950 . S
H1750 C1771 0.950 . S
H1751 C1774 0.950 . S
H1752 C1775 0.950 . S
H1753 C1777 0.950 . S
H1754 C1778 0.950 . S
H1755 C1779 0.951 . S
H1756 C1781 0.951 . S
H1757 C1783 0.950 . S
H1758 C1784 0.950 . S
H1759 C1786 0.950 . S
H1760 C1789 0.950 . S
H1761 C1790 0.950 . S
H1762 C1792 0.950 . S
H1763 C1793 0.950 . S
C1764 H1746 0.951 . S
C1764 C1765 1.366 . S
C1764 C1766 1.388 . S
C1765 C1764 1.366 . S
C1765 C1769 1.385 . S
C1766 H1747 0.951 . S
C1766 C1764 1.388 . S
C1766 C1767 1.366 . S
C1767 C1766 1.366 . S
C1767 C1768 1.414 . S
C1767 C1770 1.499 . S
C1768 H1748 0.950 . S
C1768 C1767 1.414 . S
C1768 C1769 1.374 . S
C1769 H1749 0.950 . S
C1769 C1765 1.385 . S
C1769 C1768 1.374 . S
C1770 C1767 1.499 . S
C1770 C1771 1.373 . S
C1770 C1772 1.389 . S
C1771 H1750 0.950 . S
C1771 C1770 1.373 . S
C1771 C1787 1.377 . S
C1772 C1770 1.389 . S
C1772 C1773 1.524 . S
C1772 C1786 1.377 . S
C1773 C1772 1.524 . S
C1773 C1774 1.397 . S
C1773 C1778 1.363 . S
C1774 H1751 0.950 . S
C1774 C1773 1.397 . S
C1774 C1775 1.334 . S
C1775 H1752 0.950 . S
C1775 C1774 1.334 . S
C1775 C1776 1.287 . S
C1776 C1775 1.287 . S
C1776 C1777 1.524 . S
C1776 H1795 0.913 . S
C1777 H1753 0.950 . S
C1777 C1776 1.524 . S
C1777 C1778 1.415 . S
C1778 H1754 0.950 . S
C1778 C1773 1.363 . S
C1778 C1777 1.415 . S
C1779 H1755 0.951 . S
C1779 C1780 1.366 . S
C1779 C1781 1.388 . S
C1780 C1779 1.366 . S
C1780 C1784 1.385 . S
C1781 H1756 0.951 . S
C1781 C1779 1.388 . S
C1781 C1782 1.366 . S
C1782 C1781 1.366 . S
C1782 C1783 1.414 . S
C1782 C1785 1.499 . S
C1783 H1757 0.950 . S
C1783 C1782 1.414 . S
C1783 C1784 1.374 . S
C1784 H1758 0.950 . S
C1784 C1780 1.385 . S
C1784 C1783 1.374 . S
C1785 C1782 1.499 . S
C1785 C1786 1.373 . S
C1785 C1787 1.389 . S
C1786 H1759 0.950 . S
C1786 C1772 1.377 . S
C1786 C1785 1.373 . S
C1787 C1771 1.377 . S
C1787 C1785 1.389 . S
C1787 C1788 1.524 . S
C1788 C1787 1.524 . S
C1788 C1789 1.397 . S
C1788 C1793 1.363 . S
C1789 H1760 0.950 . S
C1789 C1788 1.397 . S
C1789 C1790 1.334 . S
C1790 H1761 0.950 . S
C1790 C1789 1.334 . S
C1790 C1791 1.287 . S
C1791 C1790 1.287 . S
C1791 C1792 1.524 . S
C1791 H1794 0.999 . S
C1792 H1762 0.950 . S
C1792 C1791 1.524 . S
C1792 C1793 1.415 . S
C1793 H1763 0.950 . S
C1793 C1788 1.363 . S
C1793 C1792 1.415 . S
H1794 C1791 0.999 . S
H1795 C1776 0.913 . S
H1796 C1814 0.951 . S
H1797 C1816 0.951 . S
H1798 C1818 0.950 . S
H1799 C1819 0.950 . S
H1800 C1821 0.950 . S
H1801 C1824 0.950 . S
H1802 C1825 0.950 . S
H1803 C1827 0.950 . S
H1804 C1828 0.950 . S
H1805 C1829 0.951 . S
H1806 C1831 0.951 . S
H1807 C1833 0.950 . S
H1808 C1834 0.950 . S
H1809 C1836 0.950 . S
H1810 C1839 0.950 . S
H1811 C1840 0.950 . S
H1812 C1842 0.950 . S
H1813 C1843 0.950 . S
C1814 H1796 0.951 . S
C1814 C1815 1.366 . S
C1814 C1816 1.388 . S
C1815 C1814 1.366 . S
C1815 C1819 1.385 . S
C1816 H1797 0.951 . S
C1816 C1814 1.388 . S
C1816 C1817 1.366 . S
C1817 C1816 1.366 . S
C1817 C1818 1.414 . S
C1817 C1820 1.499 . S
C1818 H1798 0.950 . S
C1818 C1817 1.414 . S
C1818 C1819 1.374 . S
C1819 H1799 0.950 . S
C1819 C1815 1.385 . S
C1819 C1818 1.374 . S
C1820 C1817 1.499 . S
C1820 C1821 1.373 . S
C1820 C1822 1.389 . S
C1821 H1800 0.950 . S
C1821 C1820 1.373 . S
C1821 C1837 1.377 . S
C1822 C1820 1.389 . S
C1822 C1823 1.524 . S
C1822 C1836 1.377 . S
C1823 C1822 1.524 . S
C1823 C1824 1.397 . S
C1823 C1828 1.363 . S
C1824 H1801 0.950 . S
C1824 C1823 1.397 . S
C1824 C1825 1.334 . S
C1825 H1802 0.950 . S
C1825 C1824 1.334 . S
C1825 C1826 1.287 . S
C1826 C1825 1.287 . S
C1826 C1827 1.524 . S
C1826 H1845 0.913 . S
C1827 H1803 0.950 . S
C1827 C1826 1.524 . S
C1827 C1828 1.415 . S
C1828 H1804 0.950 . S
C1828 C1823 1.363 . S
C1828 C1827 1.415 . S
C1829 H1805 0.951 . S
C1829 C1830 1.366 . S
C1829 C1831 1.388 . S
C1830 C1829 1.366 . S
C1830 C1834 1.385 . S
C1831 H1806 0.951 . S
C1831 C1829 1.388 . S
C1831 C1832 1.366 . S
C1832 C1831 1.366 . S
C1832 C1833 1.414 . S
C1832 C1835 1.499 . S
C1833 H1807 0.950 . S
C1833 C1832 1.414 . S
C1833 C1834 1.374 . S
C1834 H1808 0.950 . S
C1834 C1830 1.385 . S
C1834 C1833 1.374 . S
C1835 C1832 1.499 . S
C1835 C1836 1.373 . S
C1835 C1837 1.389 . S
C1836 H1809 0.950 . S
C1836 C1822 1.377 . S
C1836 C1835 1.373 . S
C1837 C1821 1.377 . S
C1837 C1835 1.389 . S
C1837 C1838 1.524 . S
C1838 C1837 1.524 . S
C1838 C1839 1.397 . S
C1838 C1843 1.363 . S
C1839 H1810 0.950 . S
C1839 C1838 1.397 . S
C1839 C1840 1.334 . S
C1840 H1811 0.950 . S
C1840 C1839 1.334 . S
C1840 C1841 1.287 . S
C1841 C1840 1.287 . S
C1841 C1842 1.524 . S
C1841 H1844 0.999 . S
C1842 H1812 0.950 . S
C1842 C1841 1.524 . S
C1842 C1843 1.415 . S
C1843 H1813 0.950 . S
C1843 C1838 1.363 . S
C1843 C1842 1.415 . S
H1844 C1841 0.999 . S
H1845 C1826 0.913 . S
H1846 C1864 0.951 . S
H1847 C1866 0.951 . S
H1848 C1868 0.950 . S
H1849 C1869 0.950 . S
H1850 C1871 0.950 . S
H1851 C1874 0.950 . S
H1852 C1875 0.950 . S
H1853 C1877 0.950 . S
H1854 C1878 0.950 . S
H1855 C1879 0.951 . S
H1856 C1881 0.951 . S
H1857 C1883 0.950 . S
H1858 C1884 0.950 . S
H1859 C1886 0.950 . S
H1860 C1889 0.950 . S
H1861 C1890 0.950 . S
H1862 C1892 0.950 . S
H1863 C1893 0.950 . S
C1864 H1846 0.951 . S
C1864 C1865 1.366 . S
C1864 C1866 1.388 . S
C1865 C1864 1.366 . S
C1865 C1869 1.385 . S
C1866 H1847 0.951 . S
C1866 C1864 1.388 . S
C1866 C1867 1.366 . S
C1867 C1866 1.366 . S
C1867 C1868 1.414 . S
C1867 C1870 1.499 . S
C1868 H1848 0.950 . S
C1868 C1867 1.414 . S
C1868 C1869 1.374 . S
C1869 H1849 0.950 . S
C1869 C1865 1.385 . S
C1869 C1868 1.374 . S
C1870 C1867 1.499 . S
C1870 C1871 1.373 . S
C1870 C1872 1.389 . S
C1871 H1850 0.950 . S
C1871 C1870 1.373 . S
C1871 C1887 1.377 . S
C1872 C1870 1.389 . S
C1872 C1873 1.524 . S
C1872 C1886 1.377 . S
C1873 C1872 1.524 . S
C1873 C1874 1.397 . S
C1873 C1878 1.363 . S
C1874 H1851 0.950 . S
C1874 C1873 1.397 . S
C1874 C1875 1.334 . S
C1875 H1852 0.950 . S
C1875 C1874 1.334 . S
C1875 C1876 1.287 . S
C1876 C1875 1.287 . S
C1876 C1877 1.524 . S
C1876 H1895 0.913 . S
C1877 H1853 0.950 . S
C1877 C1876 1.524 . S
C1877 C1878 1.415 . S
C1878 H1854 0.950 . S
C1878 C1873 1.363 . S
C1878 C1877 1.415 . S
C1879 H1855 0.951 . S
C1879 C1880 1.366 . S
C1879 C1881 1.388 . S
C1880 C1879 1.366 . S
C1880 C1884 1.385 . S
C1881 H1856 0.951 . S
C1881 C1879 1.388 . S
C1881 C1882 1.366 . S
C1882 C1881 1.366 . S
C1882 C1883 1.414 . S
C1882 C1885 1.499 . S
C1883 H1857 0.950 . S
C1883 C1882 1.414 . S
C1883 C1884 1.374 . S
C1884 H1858 0.950 . S
C1884 C1880 1.385 . S
C1884 C1883 1.374 . S
C1885 C1882 1.499 . S
C1885 C1886 1.373 . S
C1885 C1887 1.389 . S
C1886 H1859 0.950 . S
C1886 C1872 1.377 . S
C1886 C1885 1.373 . S
C1887 C1871 1.377 . S
C1887 C1885 1.389 . S
C1887 C1888 1.524 . S
C1888 C1887 1.524 . S
C1888 C1889 1.397 . S
C1888 C1893 1.363 . S
C1889 H1860 0.950 . S
C1889 C1888 1.397 . S
C1889 C1890 1.334 . S
C1890 H1861 0.950 . S
C1890 C1889 1.334 . S
C1890 C1891 1.287 . S
C1891 C1890 1.287 . S
C1891 C1892 1.524 . S
C1891 H1894 0.999 . S
C1892 H1862 0.950 . S
C1892 C1891 1.524 . S
C1892 C1893 1.415 . S
C1893 H1863 0.950 . S
C1893 C1888 1.363 . S
C1893 C1892 1.415 . S
H1894 C1891 0.999 . S
H1895 C1876 0.913 . S
C415 C173 1.558 . S
C430 N5 1.625 . S
C465 C8 1.558 . S
C480 N38 1.625 . S
C515 C41 1.558 . S
C530 N71 1.625 . S
C565 N104 1.625 . S
C580 C74 1.558 . S
C615 N137 1.625 . S
C630 C107 1.559 . S
C665 C140 1.558 . S
C680 N170 1.625 . S
C715 C239 1.558 . S
C730 N203 1.625 . S
C765 C272 1.558 . S
C780 N236 1.625 . S
C815 C305 1.559 . S
C830 N269 1.625 . S
C865 C338 1.558 . S
C880 N302 1.625 . S
C915 C371 1.558 . S
C930 N335 1.625 . S
C965 C206 1.559 . S
C980 N368 1.625 . S
C1015 N278 1.284 . S
C1030 N14 1.283 . S
C1065 N47 1.283 . S
C1080 N311 1.284 . S
C1115 N80 1.284 . S
C1130 N344 1.284 . S
C1165 N113 1.284 . S
C1180 N377 1.283 . S
C1215 N146 1.284 . S
C1230 N212 1.283 . S
C1265 N245 1.284 . S
C1280 N179 1.284 . S
C1315 C314 0.997 . S
C1330 C17 0.997 . S
C1365 C347 0.997 . S
C1380 C50 0.996 . S
C1415 C83 0.997 . S
C1430 C380 0.997 . S
C1465 C116 0.996 . S
C1480 C215 0.997 . S
C1515 C149 0.997 . S
C1530 C248 0.997 . S
C1565 C281 0.997 . S
C1580 C182 0.997 . S
C1615 C28 0.617 . S
C1630 C226 0.617 . S
C1665 C259 0.618 . S
C1680 C61 0.618 . S
C1715 C94 0.619 . S
C1730 C292 0.619 . S
C1765 C325 0.619 . S
C1780 C127 0.619 . S
C1815 C358 0.619 . S
C1830 C160 0.619 . S
C1865 C391 0.617 . S
C1880 C193 0.617 . S
