# Generated by pormake.
# Topology dei, (4)-cn, num edge types: 1
# Building blocks:
#     Node 0, Type 0, BuildingBlock: AZAVOO_clean_sbu_0, # of connection points: 4
#     Node 1, Type 0, BuildingBlock: AZAVOO_clean_sbu_0, # of connection points: 4
#     Node 2, Type 0, BuildingBlock: AZAVOO_clean_sbu_0, # of connection points: 4
#     Node 3, Type 0, BuildingBlock: AZAVOO_clean_sbu_0, # of connection points: 4
#     Node 4, Type 0, BuildingBlock: AZAVOO_clean_sbu_0, # of connection points: 4
#     Node 5, Type 0, BuildingBlock: AZAVOO_clean_sbu_0, # of connection points: 4
#     Node 6, Type 0, BuildingBlock: AZAVOO_clean_sbu_0, # of connection points: 4
#     Node 7, Type 0, BuildingBlock: AZAVOO_clean_sbu_0, # of connection points: 4
#     Node 8, Type 0, BuildingBlock: AZAVOO_clean_sbu_0, # of connection points: 4
#     Node 9, Type 0, BuildingBlock: AZAVOO_clean_sbu_0, # of connection points: 4
#     Node 10, Type 0, BuildingBlock: AZAVOO_clean_sbu_0, # of connection points: 4
#     Node 11, Type 0, BuildingBlock: AZAVOO_clean_sbu_0, # of connection points: 4
#     Node 12, Type 0, BuildingBlock: AZAVOO_clean_sbu_0, # of connection points: 4
#     Node 13, Type 0, BuildingBlock: AZAVOO_clean_sbu_0, # of connection points: 4
#     Node 14, Type 0, BuildingBlock: AZAVOO_clean_sbu_0, # of connection points: 4
#     Node 15, Type 0, BuildingBlock: AZAVOO_clean_sbu_0, # of connection points: 4
#     Node 16, Type 0, BuildingBlock: AZAVOO_clean_sbu_0, # of connection points: 4
#     Node 17, Type 0, BuildingBlock: AZAVOO_clean_sbu_0, # of connection points: 4
#     Node 18, Type 0, BuildingBlock: AZAVOO_clean_sbu_0, # of connection points: 4
#     Node 19, Type 0, BuildingBlock: AZAVOO_clean_sbu_0, # of connection points: 4
#     Node 20, Type 0, BuildingBlock: AZAVOO_clean_sbu_0, # of connection points: 4
#     Node 21, Type 0, BuildingBlock: AZAVOO_clean_sbu_0, # of connection points: 4
#     Node 22, Type 0, BuildingBlock: AZAVOO_clean_sbu_0, # of connection points: 4
#     Node 23, Type 0, BuildingBlock: AZAVOO_clean_sbu_0, # of connection points: 4
#     Node 24, Type 0, BuildingBlock: AZAVOO_clean_sbu_0, # of connection points: 4
#     Node 25, Type 0, BuildingBlock: AZAVOO_clean_sbu_0, # of connection points: 4
#     Node 26, Type 0, BuildingBlock: AZAVOO_clean_sbu_0, # of connection points: 4
#     Node 27, Type 0, BuildingBlock: AZAVOO_clean_sbu_0, # of connection points: 4
#     Node 28, Type 0, BuildingBlock: AZAVOO_clean_sbu_0, # of connection points: 4
#     Node 29, Type 0, BuildingBlock: AZAVOO_clean_sbu_0, # of connection points: 4
#     Node 30, Type 0, BuildingBlock: AZAVOO_clean_sbu_0, # of connection points: 4
#     Node 31, Type 0, BuildingBlock: AZAVOO_clean_sbu_0, # of connection points: 4
#     Edge 32, Type (0, 0), BuildingBlock: ZUJKAS_clean_linker_0, # of connection points: 2
#     Edge 33, Type (0, 0), BuildingBlock: ZUJKAS_clean_linker_0, # of connection points: 2
#     Edge 34, Type (0, 0), BuildingBlock: ZUJKAS_clean_linker_0, # of connection points: 2
#     Edge 35, Type (0, 0), BuildingBlock: ZUJKAS_clean_linker_0, # of connection points: 2
#     Edge 36, Type (0, 0), BuildingBlock: ZUJKAS_clean_linker_0, # of connection points: 2
#     Edge 37, Type (0, 0), BuildingBlock: ZUJKAS_clean_linker_0, # of connection points: 2
#     Edge 38, Type (0, 0), BuildingBlock: ZUJKAS_clean_linker_0, # of connection points: 2
#     Edge 39, Type (0, 0), BuildingBlock: ZUJKAS_clean_linker_0, # of connection points: 2
#     Edge 40, Type (0, 0), BuildingBlock: ZUJKAS_clean_linker_0, # of connection points: 2
#     Edge 41, Type (0, 0), BuildingBlock: ZUJKAS_clean_linker_0, # of connection points: 2
#     Edge 42, Type (0, 0), BuildingBlock: ZUJKAS_clean_linker_0, # of connection points: 2
#     Edge 43, Type (0, 0), BuildingBlock: ZUJKAS_clean_linker_0, # of connection points: 2
#     Edge 44, Type (0, 0), BuildingBlock: ZUJKAS_clean_linker_0, # of connection points: 2
#     Edge 45, Type (0, 0), BuildingBlock: ZUJKAS_clean_linker_0, # of connection points: 2
#     Edge 46, Type (0, 0), BuildingBlock: ZUJKAS_clean_linker_0, # of connection points: 2
#     Edge 47, Type (0, 0), BuildingBlock: ZUJKAS_clean_linker_0, # of connection points: 2
#     Edge 48, Type (0, 0), BuildingBlock: ZUJKAS_clean_linker_0, # of connection points: 2
#     Edge 49, Type (0, 0), BuildingBlock: ZUJKAS_clean_linker_0, # of connection points: 2
#     Edge 50, Type (0, 0), BuildingBlock: ZUJKAS_clean_linker_0, # of connection points: 2
#     Edge 51, Type (0, 0), BuildingBlock: ZUJKAS_clean_linker_0, # of connection points: 2
#     Edge 52, Type (0, 0), BuildingBlock: ZUJKAS_clean_linker_0, # of connection points: 2
#     Edge 53, Type (0, 0), BuildingBlock: ZUJKAS_clean_linker_0, # of connection points: 2
#     Edge 54, Type (0, 0), BuildingBlock: ZUJKAS_clean_linker_0, # of connection points: 2
#     Edge 55, Type (0, 0), BuildingBlock: ZUJKAS_clean_linker_0, # of connection points: 2
#     Edge 56, Type (0, 0), BuildingBlock: ZUJKAS_clean_linker_0, # of connection points: 2
#     Edge 57, Type (0, 0), BuildingBlock: ZUJKAS_clean_linker_0, # of connection points: 2
#     Edge 58, Type (0, 0), BuildingBlock: ZUJKAS_clean_linker_0, # of connection points: 2
#     Edge 59, Type (0, 0), BuildingBlock: ZUJKAS_clean_linker_0, # of connection points: 2
#     Edge 60, Type (0, 0), BuildingBlock: ZUJKAS_clean_linker_0, # of connection points: 2
#     Edge 61, Type (0, 0), BuildingBlock: ZUJKAS_clean_linker_0, # of connection points: 2
#     Edge 62, Type (0, 0), BuildingBlock: ZUJKAS_clean_linker_0, # of connection points: 2
#     Edge 63, Type (0, 0), BuildingBlock: ZUJKAS_clean_linker_0, # of connection points: 2
#     Edge 64, Type (0, 0), BuildingBlock: ZUJKAS_clean_linker_0, # of connection points: 2
#     Edge 65, Type (0, 0), BuildingBlock: ZUJKAS_clean_linker_0, # of connection points: 2
#     Edge 66, Type (0, 0), BuildingBlock: ZUJKAS_clean_linker_0, # of connection points: 2
#     Edge 67, Type (0, 0), BuildingBlock: ZUJKAS_clean_linker_0, # of connection points: 2
#     Edge 68, Type (0, 0), BuildingBlock: ZUJKAS_clean_linker_0, # of connection points: 2
#     Edge 69, Type (0, 0), BuildingBlock: ZUJKAS_clean_linker_0, # of connection points: 2
#     Edge 70, Type (0, 0), BuildingBlock: ZUJKAS_clean_linker_0, # of connection points: 2
#     Edge 71, Type (0, 0), BuildingBlock: ZUJKAS_clean_linker_0, # of connection points: 2
#     Edge 72, Type (0, 0), BuildingBlock: ZUJKAS_clean_linker_0, # of connection points: 2
#     Edge 73, Type (0, 0), BuildingBlock: ZUJKAS_clean_linker_0, # of connection points: 2
#     Edge 74, Type (0, 0), BuildingBlock: ZUJKAS_clean_linker_0, # of connection points: 2
#     Edge 75, Type (0, 0), BuildingBlock: ZUJKAS_clean_linker_0, # of connection points: 2
#     Edge 76, Type (0, 0), BuildingBlock: ZUJKAS_clean_linker_0, # of connection points: 2
#     Edge 77, Type (0, 0), BuildingBlock: ZUJKAS_clean_linker_0, # of connection points: 2
#     Edge 78, Type (0, 0), BuildingBlock: ZUJKAS_clean_linker_0, # of connection points: 2
#     Edge 79, Type (0, 0), BuildingBlock: ZUJKAS_clean_linker_0, # of connection points: 2
#     Edge 80, Type (0, 0), BuildingBlock: ZUJKAS_clean_linker_0, # of connection points: 2
#     Edge 81, Type (0, 0), BuildingBlock: ZUJKAS_clean_linker_0, # of connection points: 2
#     Edge 82, Type (0, 0), BuildingBlock: ZUJKAS_clean_linker_0, # of connection points: 2
#     Edge 83, Type (0, 0), BuildingBlock: ZUJKAS_clean_linker_0, # of connection points: 2
#     Edge 84, Type (0, 0), BuildingBlock: ZUJKAS_clean_linker_0, # of connection points: 2
#     Edge 85, Type (0, 0), BuildingBlock: ZUJKAS_clean_linker_0, # of connection points: 2
#     Edge 86, Type (0, 0), BuildingBlock: ZUJKAS_clean_linker_0, # of connection points: 2
#     Edge 87, Type (0, 0), BuildingBlock: ZUJKAS_clean_linker_0, # of connection points: 2
#     Edge 88, Type (0, 0), BuildingBlock: ZUJKAS_clean_linker_0, # of connection points: 2
#     Edge 89, Type (0, 0), BuildingBlock: ZUJKAS_clean_linker_0, # of connection points: 2
#     Edge 90, Type (0, 0), BuildingBlock: ZUJKAS_clean_linker_0, # of connection points: 2
#     Edge 91, Type (0, 0), BuildingBlock: ZUJKAS_clean_linker_0, # of connection points: 2
#     Edge 92, Type (0, 0), BuildingBlock: ZUJKAS_clean_linker_0, # of connection points: 2
#     Edge 93, Type (0, 0), BuildingBlock: ZUJKAS_clean_linker_0, # of connection points: 2
#     Edge 94, Type (0, 0), BuildingBlock: ZUJKAS_clean_linker_0, # of connection points: 2
#     Edge 95, Type (0, 0), BuildingBlock: ZUJKAS_clean_linker_0, # of connection points: 2
# Relax obj value: 0.222
# Max RMSD: 0.106
# Mean RMSD: 0.106
data_MOF--net-dei--node1-AZAVOO_clean_sbu_0--edge1-ZUJKAS_clean_linker_0
_symmetry_space_group_name_H-M    P1
_symmetry_Int_Tables_number       1
_symmetry_cell_setting            triclinic
loop_
_symmetry_equiv_pos_as_xyz
'x, y, z'
_cell_length_a     65.80723
_cell_length_b     65.808447
_cell_length_c     135.98336
_cell_angle_alpha  89.770688
_cell_angle_beta   89.92797
_cell_angle_gamma 90.036049
loop_
_atom_site_label
_atom_site_type_symbol
_atom_site_fract_x
_atom_site_fract_y
_atom_site_fract_z
_atom_type_partial_charge
Mg0 Mg 0.14683 0.59577 0.02651 0.0
O1 O 0.11118 0.5945 0.02526 0.0
O2 O 0.10064 0.62053 0.03439 0.0
Mg3 Mg 0.12688 0.63745 0.04145 0.0
C4 C 0.09689 0.60546 0.02882 0.0
C5 C 0.16271 0.56431 0.01248 0.0
O6 O 0.17677 0.57838 0.01153 0.0
O7 O 0.14633 0.58156 0.04188 0.0
O8 O 0.13523 0.60932 0.04979 0.0
O9 O 0.14917 0.61955 0.01444 0.0
O10 O 0.14691 0.62523 0.03038 0.0
C11 C 0.14156 0.59106 0.04974 0.0
C12 C 0.14849 0.63228 0.02167 0.0
O13 O 0.14861 0.56649 0.01874 0.0
Mg14 Mg 0.63397 0.89825 0.2775 0.0
O15 O 0.63492 0.86283 0.27561 0.0
O16 O 0.60892 0.85068 0.28447 0.0
Mg17 Mg 0.59104 0.87647 0.29143 0.0
C18 C 0.62428 0.848 0.27891 0.0
C19 C 0.6641 0.91353 0.2629 0.0
O20 O 0.64809 0.92472 0.26092 0.0
O21 O 0.64837 0.89656 0.29302 0.0
O22 O 0.61932 0.88509 0.29925 0.0
O23 O 0.61018 0.90169 0.26537 0.0
O24 O 0.60412 0.89776 0.28117 0.0
C25 C 0.63745 0.89121 0.30039 0.0
C26 C 0.59727 0.90045 0.27253 0.0
O27 O 0.66355 0.90083 0.2699 0.0
Mg28 Mg 0.33072 0.38305 0.52816 0.0
O29 O 0.36627 0.38508 0.52685 0.0
O30 O 0.37726 0.35922 0.5361 0.0
Mg31 Mg 0.35112 0.34006 0.54209 0.0
C32 C 0.38072 0.37479 0.53073 0.0
C33 C 0.31504 0.41378 0.51427 0.0
O34 O 0.30422 0.39739 0.51254 0.0
O35 O 0.33162 0.39529 0.54384 0.0
O36 O 0.34269 0.36708 0.5515 0.0
O37 O 0.32876 0.36161 0.51532 0.0
O38 O 0.33116 0.35256 0.53097 0.0
C39 C 0.33642 0.38541 0.55161 0.0
C40 C 0.32982 0.34746 0.52193 0.0
O41 O 0.3277 0.41374 0.52128 0.0
Mg42 Mg 0.84643 0.08257 0.77992 0.0
O43 O 0.84529 0.11768 0.7787 0.0
O44 O 0.87188 0.1291 0.78729 0.0
Mg45 Mg 0.88912 0.10271 0.79427 0.0
C46 C 0.85625 0.13217 0.78196 0.0
C47 C 0.81514 0.06628 0.76616 0.0
O48 O 0.82944 0.05235 0.76593 0.0
O49 O 0.83259 0.08364 0.79532 0.0
O50 O 0.8612 0.09371 0.80283 0.0
O51 O 0.86956 0.08035 0.76761 0.0
O52 O 0.87661 0.08226 0.78346 0.0
C53 C 0.84279 0.0877 0.80307 0.0
C54 C 0.88285 0.08068 0.77462 0.0
O55 O 0.81662 0.08082 0.77221 0.0
Mg56 Mg 0.14751 0.38433 0.92879 0.0
O57 O 0.1121 0.38615 0.9301 0.0
O58 O 0.09986 0.36029 0.92131 0.0
Mg59 Mg 0.12571 0.3414 0.91495 0.0
C60 C 0.0972 0.37596 0.92664 0.0
C61 C 0.16347 0.41473 0.94315 0.0
O62 O 0.17724 0.40034 0.94384 0.0
O63 O 0.14724 0.3987 0.91316 0.0
O64 O 0.13559 0.36953 0.90728 0.0
O65 O 0.14955 0.36071 0.94099 0.0
O66 O 0.14715 0.35429 0.92513 0.0
C67 C 0.14214 0.38745 0.9059 0.0
C68 C 0.14909 0.34772 0.93388 0.0
O69 O 0.14954 0.41349 0.93675 0.0
Mg70 Mg 0.84609 0.89675 0.17551 0.0
O71 O 0.84517 0.86138 0.17716 0.0
O72 O 0.87019 0.8509 0.16735 0.0
Mg73 Mg 0.8884 0.87713 0.16085 0.0
C74 C 0.85534 0.84712 0.17311 0.0
C75 C 0.81403 0.91381 0.18881 0.0
O76 O 0.82763 0.92845 0.18889 0.0
O77 O 0.83222 0.8953 0.16003 0.0
O78 O 0.86094 0.8865 0.15219 0.0
O79 O 0.86971 0.90019 0.18762 0.0
O80 O 0.87568 0.89706 0.17175 0.0
C81 C 0.84243 0.89212 0.15216 0.0
C82 C 0.88257 0.89952 0.1804 0.0
O83 O 0.8165 0.89877 0.18314 0.0
Mg84 Mg 0.33171 0.5968 0.42656 0.0
O85 O 0.36712 0.59476 0.42836 0.0
O86 O 0.37869 0.61876 0.4181 0.0
Mg87 Mg 0.35304 0.63796 0.4116 0.0
C88 C 0.3818 0.60418 0.42414 0.0
C89 C 0.31413 0.56598 0.44037 0.0
O90 O 0.30205 0.58167 0.44158 0.0
O91 O 0.33292 0.58304 0.4111 0.0
O92 O 0.3424 0.61101 0.40278 0.0
O93 O 0.32884 0.61936 0.43893 0.0
O94 O 0.3334 0.6269 0.42323 0.0
C95 C 0.33623 0.59267 0.40307 0.0
C96 C 0.33158 0.63287 0.43212 0.0
O97 O 0.32797 0.56673 0.43389 0.0
Mg98 Mg 0.63357 0.08119 0.67795 0.0
O99 O 0.63584 0.11644 0.67938 0.0
O100 O 0.61108 0.12889 0.66985 0.0
Mg101 Mg 0.59209 0.10293 0.66349 0.0
C102 C 0.62619 0.1314 0.67558 0.0
C103 C 0.66302 0.06466 0.69227 0.0
O104 O 0.64625 0.05438 0.69393 0.0
O105 O 0.64677 0.08165 0.66235 0.0
O106 O 0.61925 0.09342 0.65439 0.0
O107 O 0.61099 0.07934 0.69041 0.0
O108 O 0.60365 0.08218 0.67459 0.0
C109 C 0.63733 0.08646 0.65445 0.0
C110 C 0.59756 0.08024 0.68347 0.0
O111 O 0.66356 0.07765 0.68537 0.0
Mg112 Mg 0.83217 0.38374 0.9294 0.0
O113 O 0.86758 0.38523 0.93083 0.0
O114 O 0.87918 0.36066 0.921 0.0
Mg115 Mg 0.85307 0.34194 0.91475 0.0
C116 C 0.88223 0.37552 0.9268 0.0
C117 C 0.81538 0.41313 0.94368 0.0
O118 O 0.80342 0.39725 0.94457 0.0
O119 O 0.83272 0.39729 0.91379 0.0
O120 O 0.84361 0.36923 0.90601 0.0
O121 O 0.82936 0.36008 0.9415 0.0
O122 O 0.83271 0.35441 0.9256 0.0
C123 C 0.83705 0.38742 0.90595 0.0
C124 C 0.83021 0.34739 0.93425 0.0
O125 O 0.8294 0.41313 0.93728 0.0
Mg126 Mg 0.34635 0.07977 0.67772 0.0
O127 O 0.34224 0.1157 0.68005 0.0
O128 O 0.36878 0.12599 0.671 0.0
Mg129 Mg 0.38788 0.10225 0.66341 0.0
C130 C 0.35361 0.12999 0.67652 0.0
C131 C 0.30677 0.05773 0.69126 0.0
O132 O 0.3002 0.03895 0.69049 0.0
O133 O 0.33195 0.0805 0.6621 0.0
O134 O 0.36 0.09315 0.65511 0.0
O135 O 0.36959 0.07772 0.69009 0.0
O136 O 0.37608 0.08269 0.67444 0.0
C137 C 0.34195 0.08634 0.6545 0.0
C138 C 0.38266 0.08021 0.68312 0.0
O139 O 0.32102 0.06376 0.68574 0.0
Mg140 Mg 0.64844 0.59507 0.42607 0.0
O141 O 0.6127 0.59213 0.42742 0.0
O142 O 0.59934 0.61722 0.41827 0.0
Mg143 Mg 0.62388 0.63525 0.41039 0.0
C144 C 0.59736 0.60198 0.42403 0.0
C145 C 0.66563 0.56758 0.44149 0.0
O146 O 0.67662 0.58409 0.44251 0.0
O147 O 0.65004 0.57744 0.4112 0.0
O148 O 0.63639 0.60577 0.40653 0.0
O149 O 0.64918 0.61925 0.43774 0.0
O150 O 0.64554 0.62617 0.42198 0.0
C151 C 0.64361 0.58876 0.40429 0.0
C152 C 0.64682 0.63258 0.43084 0.0
O153 O 0.65235 0.56667 0.43477 0.0
Mg154 Mg 0.1337 0.89808 0.17508 0.0
O155 O 0.13556 0.86281 0.17653 0.0
O156 O 0.11011 0.85083 0.16734 0.0
Mg157 Mg 0.09198 0.87684 0.16051 0.0
C158 C 0.1254 0.84804 0.17293 0.0
C159 C 0.1642 0.91442 0.18929 0.0
O160 O 0.1491 0.92732 0.19031 0.0
O161 O 0.14755 0.89695 0.15972 0.0
O162 O 0.11939 0.88682 0.15179 0.0
O163 O 0.11014 0.90116 0.18722 0.0
O164 O 0.10403 0.89739 0.1714 0.0
C165 C 0.13771 0.89314 0.15184 0.0
C166 C 0.09721 0.90017 0.18007 0.0
O167 O 0.16329 0.90092 0.18268 0.0
Mg168 Mg 0.8309 0.59455 0.02701 0.0
O169 O 0.86692 0.59467 0.02576 0.0
O170 O 0.87763 0.62202 0.03407 0.0
Mg171 Mg 0.8518 0.6376 0.04233 0.0
C172 C 0.8812 0.60663 0.02862 0.0
C173 C 0.81517 0.56394 0.01237 0.0
O174 O 0.80066 0.57763 0.01199 0.0
O175 O 0.83069 0.57679 0.0419 0.0
O176 O 0.84161 0.60667 0.04547 0.0
O177 O 0.82846 0.61863 0.01518 0.0
O178 O 0.83131 0.62584 0.03096 0.0
C179 C 0.83601 0.58945 0.04841 0.0
C180 C 0.83004 0.63202 0.02206 0.0
O181 O 0.82943 0.56589 0.01856 0.0
Mg182 Mg 0.13365 0.08124 0.77962 0.0
O183 O 0.13522 0.11668 0.77811 0.0
O184 O 0.10912 0.12893 0.78681 0.0
Mg185 Mg 0.09056 0.10267 0.79327 0.0
C186 C 0.12484 0.13157 0.78146 0.0
C187 C 0.16386 0.0658 0.76507 0.0
O188 O 0.14747 0.05501 0.76332 0.0
O189 O 0.14666 0.08244 0.79541 0.0
O190 O 0.1181 0.09451 0.80218 0.0
O191 O 0.11097 0.07868 0.7671 0.0
O192 O 0.10331 0.08151 0.78283 0.0
C193 C 0.13631 0.08809 0.80291 0.0
C194 C 0.0974 0.0793 0.77398 0.0
O195 O 0.16388 0.07843 0.7721 0.0
Mg196 Mg 0.64719 0.38344 0.52876 0.0
O197 O 0.61174 0.38458 0.52688 0.0
O198 O 0.60078 0.36084 0.53738 0.0
Mg199 Mg 0.62647 0.34267 0.54413 0.0
C200 C 0.59731 0.37504 0.53122 0.0
C201 C 0.66403 0.4148 0.51474 0.0
O202 O 0.67816 0.40074 0.51422 0.0
O203 O 0.6458 0.39819 0.54402 0.0
O204 O 0.63664 0.37026 0.55244 0.0
O205 O 0.65078 0.35982 0.51686 0.0
O206 O 0.64682 0.3536 0.53269 0.0
C207 C 0.64261 0.38865 0.55209 0.0
C208 C 0.64933 0.34677 0.52398 0.0
O209 O 0.64967 0.41283 0.52089 0.0
Mg210 Mg 0.34478 0.89857 0.27731 0.0
O211 O 0.34295 0.86281 0.27612 0.0
O212 O 0.36847 0.8525 0.28568 0.0
Mg213 Mg 0.38652 0.87851 0.29232 0.0
C214 C 0.35344 0.84856 0.28008 0.0
C215 C 0.31628 0.91537 0.26265 0.0
O216 O 0.33317 0.92566 0.26134 0.0
O217 O 0.33103 0.89801 0.29282 0.0
O218 O 0.35877 0.88735 0.30098 0.0
O219 O 0.36877 0.90146 0.26524 0.0
O220 O 0.3744 0.89821 0.28111 0.0
C221 C 0.34048 0.89365 0.30078 0.0
C222 C 0.3815 0.90076 0.27248 0.0
O223 O 0.31526 0.90216 0.26945 0.0
Mg224 Mg 0.6479 0.09373 0.52957 0.0
O225 O 0.6121 0.09373 0.52853 0.0
O226 O 0.60084 0.12112 0.53667 0.0
Mg227 Mg 0.62661 0.13645 0.545 0.0
C228 C 0.59767 0.10549 0.53133 0.0
C229 C 0.66378 0.06375 0.51476 0.0
O230 O 0.67801 0.07778 0.51443 0.0
O231 O 0.64785 0.07562 0.54429 0.0
O232 O 0.63713 0.10552 0.5481 0.0
O233 O 0.65078 0.11855 0.51805 0.0
O234 O 0.64799 0.1247 0.53388 0.0
C235 C 0.64302 0.08829 0.55089 0.0
C236 C 0.65017 0.13157 0.52513 0.0
O237 O 0.64936 0.06537 0.52089 0.0
Mg238 Mg 0.13329 0.39816 0.78019 0.0
O239 O 0.13637 0.36285 0.77839 0.0
O240 O 0.11295 0.34917 0.78832 0.0
Mg241 Mg 0.09459 0.37393 0.79565 0.0
C242 C 0.12748 0.3474 0.7822 0.0
C243 C 0.16324 0.41504 0.76533 0.0
O244 O 0.1487 0.42858 0.7644 0.0
O245 O 0.14918 0.39773 0.79532 0.0
O246 O 0.12276 0.38394 0.80319 0.0
O247 O 0.10944 0.39992 0.7684 0.0
O248 O 0.1033 0.39574 0.78425 0.0
C249 C 0.14052 0.39148 0.80319 0.0
C250 C 0.09646 0.39743 0.77546 0.0
O251 O 0.16204 0.40139 0.77189 0.0
Mg252 Mg 0.83236 0.88351 0.02615 0.0
O253 O 0.86787 0.88483 0.02487 0.0
O254 O 0.87805 0.85974 0.03477 0.0
Mg255 Mg 0.85161 0.84163 0.04123 0.0
C256 C 0.88205 0.87453 0.02898 0.0
C257 C 0.81557 0.91529 0.01272 0.0
O258 O 0.80092 0.9017 0.01283 0.0
O259 O 0.83289 0.8974 0.04161 0.0
O260 O 0.84147 0.86907 0.04983 0.0
O261 O 0.82998 0.86115 0.01369 0.0
O262 O 0.8328 0.85319 0.02945 0.0
C263 C 0.83572 0.88754 0.04961 0.0
C264 C 0.83177 0.84745 0.02048 0.0
O265 O 0.83043 0.91327 0.01856 0.0
Mg266 Mg 0.34519 0.58197 0.27721 0.0
O267 O 0.34321 0.61756 0.2758 0.0
O268 O 0.36918 0.62788 0.28502 0.0
Mg269 Mg 0.38753 0.60202 0.29177 0.0
C270 C 0.35404 0.6318 0.27948 0.0
C271 C 0.31516 0.56595 0.26272 0.0
O272 O 0.3317 0.55541 0.26094 0.0
O273 O 0.33171 0.58218 0.29283 0.0
O274 O 0.3603 0.59147 0.30056 0.0
O275 O 0.36808 0.58012 0.26476 0.0
O276 O 0.37575 0.58228 0.2805 0.0
C277 C 0.34195 0.58525 0.30068 0.0
C278 C 0.38168 0.58102 0.2716 0.0
O279 O 0.315 0.57857 0.26976 0.0
Mg280 Mg 0.64906 0.88466 0.42606 0.0
O281 O 0.61373 0.88841 0.42825 0.0
O282 O 0.59922 0.86315 0.41985 0.0
Mg283 Mg 0.62317 0.84469 0.41193 0.0
C284 C 0.59798 0.87865 0.42538 0.0
C285 C 0.66426 0.914 0.4413 0.0
O286 O 0.67335 0.89709 0.44395 0.0
O287 O 0.64832 0.89911 0.41071 0.0
O288 O 0.63359 0.8722 0.40375 0.0
O289 O 0.65146 0.86072 0.43809 0.0
O290 O 0.64614 0.85447 0.42242 0.0
C291 C 0.64161 0.88973 0.40317 0.0
C292 C 0.64883 0.84764 0.43112 0.0
O293 O 0.65361 0.9144 0.43356 0.0
Mg294 Mg 0.345 0.39714 0.67729 0.0
O295 O 0.34378 0.36149 0.67872 0.0
O296 O 0.37066 0.35141 0.67003 0.0
Mg297 Mg 0.38854 0.37702 0.66317 0.0
C298 C 0.3552 0.34738 0.67535 0.0
C299 C 0.31389 0.41337 0.69124 0.0
O300 O 0.32827 0.42711 0.69213 0.0
O301 O 0.33084 0.39697 0.66172 0.0
O302 O 0.36063 0.38734 0.65565 0.0
O303 O 0.36868 0.39999 0.68951 0.0
O304 O 0.37498 0.39719 0.6737 0.0
C305 C 0.3426 0.3936 0.65441 0.0
C306 C 0.3817 0.39941 0.68238 0.0
O307 O 0.31569 0.39931 0.68497 0.0
Mg308 Mg 0.83299 0.09572 0.92882 0.0
O309 O 0.86835 0.09446 0.92972 0.0
O310 O 0.8786 0.12022 0.92019 0.0
Mg311 Mg 0.85203 0.13718 0.91326 0.0
C312 C 0.88246 0.10531 0.92592 0.0
C313 C 0.81624 0.0665 0.94317 0.0
O314 O 0.80325 0.08163 0.94342 0.0
O315 O 0.83285 0.08118 0.91357 0.0
O316 O 0.8421 0.10917 0.90516 0.0
O317 O 0.83127 0.11962 0.9407 0.0
O318 O 0.83278 0.1251 0.92469 0.0
C319 C 0.836 0.09081 0.90552 0.0
C320 C 0.83152 0.13223 0.93336 0.0
O321 O 0.83094 0.06689 0.93714 0.0
Mg322 Mg 0.13241 0.57974 0.17534 0.0
O323 O 0.13906 0.61552 0.17743 0.0
O324 O 0.1127 0.6307 0.16978 0.0
Mg325 Mg 0.09712 0.60801 0.16013 0.0
C326 C 0.12858 0.63148 0.17512 0.0
C327 C 0.17151 0.55766 0.18913 0.0
O328 O 0.17796 0.53881 0.18855 0.0
O329 O 0.14595 0.57784 0.15983 0.0
O330 O 0.12877 0.60432 0.15377 0.0
O331 O 0.10829 0.57949 0.18703 0.0
O332 O 0.10421 0.58594 0.17122 0.0
C333 C 0.14071 0.58929 0.15266 0.0
C334 C 0.09636 0.58353 0.17972 0.0
O335 O 0.15738 0.56358 0.18353 0.0
Mg336 Mg 0.33217 0.88444 0.42621 0.0
O337 O 0.36749 0.88709 0.42777 0.0
O338 O 0.38036 0.86149 0.41898 0.0
Mg339 Mg 0.35527 0.84318 0.4116 0.0
C340 C 0.3826 0.87687 0.42454 0.0
C341 C 0.31491 0.91339 0.44101 0.0
O342 O 0.30256 0.89778 0.44176 0.0
O343 O 0.33223 0.89904 0.41073 0.0
O344 O 0.34335 0.87056 0.4037 0.0
O345 O 0.32974 0.86083 0.43831 0.0
O346 O 0.33422 0.85416 0.42257 0.0
C347 C 0.33601 0.88839 0.40308 0.0
C348 C 0.33222 0.8477 0.43137 0.0
O349 O 0.32869 0.91349 0.43448 0.0
Mg350 Mg 0.84507 0.58091 0.17541 0.0
O351 O 0.84273 0.61658 0.1771 0.0
O352 O 0.86837 0.62852 0.16797 0.0
Mg353 Mg 0.88735 0.60337 0.1613 0.0
C354 C 0.85284 0.63144 0.1734 0.0
C355 C 0.81684 0.56394 0.19021 0.0
O356 O 0.83394 0.55411 0.19166 0.0
O357 O 0.831 0.58228 0.15985 0.0
O358 O 0.85951 0.59455 0.15315 0.0
O359 O 0.86916 0.57777 0.18748 0.0
O360 O 0.87492 0.58214 0.17171 0.0
C361 C 0.84141 0.58801 0.15236 0.0
C362 C 0.88198 0.57924 0.1803 0.0
O363 O 0.81557 0.57669 0.18322 0.0
Mg364 Mg 0.14762 0.09475 0.92828 0.0
O365 O 0.11188 0.09456 0.92931 0.0
O366 O 0.10129 0.12251 0.92138 0.0
Mg367 Mg 0.12739 0.13838 0.91338 0.0
C368 C 0.09768 0.10668 0.92658 0.0
C369 C 0.16457 0.06417 0.94216 0.0
O370 O 0.17884 0.07816 0.94194 0.0
O371 O 0.14794 0.07774 0.91336 0.0
O372 O 0.13715 0.10767 0.90922 0.0
O373 O 0.14947 0.11883 0.94013 0.0
O374 O 0.14823 0.12563 0.92426 0.0
C375 C 0.1427 0.09018 0.90667 0.0
C376 C 0.14957 0.13203 0.93307 0.0
O377 O 0.14919 0.06599 0.93663 0.0
Mg378 Mg 0.63354 0.39739 0.67793 0.0
O379 O 0.63487 0.36219 0.67965 0.0
O380 O 0.61086 0.35021 0.66957 0.0
Mg381 Mg 0.59201 0.37603 0.66314 0.0
C382 C 0.62546 0.34746 0.67557 0.0
C383 C 0.66284 0.4145 0.69233 0.0
O384 O 0.64695 0.42644 0.69314 0.0
O385 O 0.64739 0.39615 0.66243 0.0
O386 O 0.61907 0.38645 0.65446 0.0
O387 O 0.60967 0.40108 0.68984 0.0
O388 O 0.60412 0.39664 0.67402 0.0
C389 C 0.63738 0.39273 0.65453 0.0
C390 C 0.59701 0.39987 0.68258 0.0
O391 O 0.66286 0.40044 0.68598 0.0
Mg392 Mg 0.33124 0.09451 0.52944 0.0
O393 O 0.36706 0.09377 0.52883 0.0
O394 O 0.37821 0.1216 0.53661 0.0
Mg395 Mg 0.35226 0.13722 0.54489 0.0
C396 C 0.38147 0.10573 0.53144 0.0
C397 C 0.31547 0.06353 0.51492 0.0
O398 O 0.30025 0.07647 0.51497 0.0
O399 O 0.32912 0.07681 0.54427 0.0
O400 O 0.34062 0.10648 0.54785 0.0
O401 O 0.33093 0.11867 0.51771 0.0
O402 O 0.33116 0.12579 0.53359 0.0
C403 C 0.33407 0.08957 0.5508 0.0
C404 C 0.33091 0.13198 0.52467 0.0
O405 O 0.33017 0.06604 0.52081 0.0
Mg406 Mg 0.6336 0.58113 0.27768 0.0
O407 O 0.63622 0.61655 0.27592 0.0
O408 O 0.6101 0.62959 0.28432 0.0
Mg409 Mg 0.59073 0.6043 0.291 0.0
C410 C 0.62594 0.63176 0.27902 0.0
C411 C 0.66428 0.56503 0.26342 0.0
O412 O 0.6488 0.55272 0.26207 0.0
O413 O 0.64686 0.5813 0.29345 0.0
O414 O 0.61792 0.59368 0.29936 0.0
O415 O 0.611 0.57938 0.26511 0.0
O416 O 0.60309 0.58256 0.2808 0.0
C417 C 0.63564 0.58653 0.30071 0.0
C418 C 0.59735 0.58091 0.27192 0.0
O419 O 0.66366 0.57786 0.27035 0.0
Mg420 Mg 0.14664 0.88403 0.02613 0.0
O421 O 0.11124 0.88644 0.0245 0.0
O422 O 0.10021 0.86185 0.03447 0.0
Mg423 Mg 0.12538 0.84242 0.04087 0.0
C424 C 0.09673 0.8768 0.02873 0.0
C425 C 0.16326 0.91369 0.01182 0.0
O426 O 0.17387 0.89722 0.01003 0.0
O427 O 0.14572 0.89752 0.0416 0.0
O428 O 0.13607 0.86914 0.04961 0.0
O429 O 0.14988 0.8603 0.01406 0.0
O430 O 0.14571 0.85448 0.02988 0.0
C431 C 0.14241 0.88742 0.0495 0.0
C432 C 0.14861 0.84747 0.02128 0.0
O433 O 0.15016 0.91367 0.01864 0.0
Mg434 Mg 0.84513 0.39795 0.78073 0.0
O435 O 0.84268 0.36267 0.77879 0.0
O436 O 0.86833 0.34911 0.78739 0.0
Mg437 Mg 0.88532 0.37317 0.79586 0.0
C438 C 0.85315 0.34737 0.78167 0.0
C439 C 0.81509 0.4149 0.76581 0.0
O440 O 0.82968 0.42846 0.76497 0.0
O441 O 0.82833 0.39774 0.79572 0.0
O442 O 0.85683 0.38535 0.80152 0.0
O443 O 0.86941 0.40032 0.76897 0.0
O444 O 0.87595 0.39543 0.78469 0.0
C445 C 0.83941 0.39268 0.80299 0.0
C446 C 0.88259 0.39763 0.7759 0.0
O447 O 0.8163 0.4013 0.77241 0.0
H448 H 0.11103 0.58611 0.13944 0.0
H449 H 0.11439 0.58261 0.12172 0.0
H450 H 0.17901 0.57384 0.12493 0.0
H451 H 0.17571 0.57753 0.14295 0.0
H452 H 0.14041 0.61114 0.11103 0.0
H453 H 0.15825 0.52944 0.10476 0.0
H454 H 0.14414 0.53814 0.11533 0.0
H455 H 0.17109 0.54197 0.11475 0.0
C456 C 0.12596 0.58311 0.1364 0.0
C457 C 0.14325 0.58257 0.14247 0.0
C458 C 0.1278 0.58112 0.12629 0.0
C459 C 0.14695 0.5783 0.12206 0.0
C460 C 0.16411 0.57607 0.12814 0.0
H461 H 0.17682 0.58196 0.05911 0.0
H462 H 0.18045 0.58102 0.07715 0.0
C463 C 0.16226 0.57811 0.13837 0.0
C464 C 0.14888 0.57949 0.11128 0.0
H465 H 0.158 0.55089 0.09092 0.0
C466 C 0.14444 0.59805 0.10661 0.0
C467 C 0.15378 0.56228 0.10561 0.0
C468 C 0.15697 0.54174 0.1103 0.0
C469 C 0.14473 0.59978 0.09633 0.0
C470 C 0.14984 0.58252 0.09069 0.0
C471 C 0.15457 0.56413 0.09536 0.0
C472 C 0.14808 0.58241 0.07992 0.0
C473 C 0.13938 0.61984 0.09156 0.0
C474 C 0.12874 0.58219 0.07567 0.0
C475 C 0.12667 0.58192 0.0655 0.0
C476 C 0.14391 0.58202 0.05944 0.0
C477 C 0.16334 0.58109 0.06368 0.0
C478 C 0.16541 0.58116 0.07392 0.0
H479 H 0.13807 0.63231 0.09701 0.0
H480 H 0.15107 0.62401 0.086 0.0
H481 H 0.12464 0.61842 0.08766 0.0
H482 H 0.11523 0.58274 0.08023 0.0
H483 H 0.11161 0.5833 0.06235 0.0
H484 H 0.67481 0.90847 0.39467 0.0
H485 H 0.68025 0.91243 0.37676 0.0
H486 H 0.6202 0.88846 0.37149 0.0
H487 H 0.61414 0.88634 0.38901 0.0
H488 H 0.67798 0.88156 0.36178 0.0
H489 H 0.618 0.93981 0.356 0.0
H490 H 0.62814 0.9342 0.36804 0.0
H491 H 0.60944 0.91778 0.36255 0.0
C492 C 0.66251 0.90513 0.38964 0.0
C493 C 0.64384 0.89768 0.39317 0.0
C494 C 0.66577 0.90688 0.37946 0.0
C495 C 0.65044 0.90107 0.37283 0.0
C496 C 0.63196 0.89365 0.37645 0.0
H497 H 0.61772 0.87615 0.31613 0.0
H498 H 0.62477 0.88113 0.33323 0.0
C499 C 0.6285 0.89254 0.38647 0.0
C500 C 0.65309 0.90283 0.36208 0.0
H501 H 0.62965 0.92208 0.34175 0.0
C502 C 0.66788 0.89089 0.35737 0.0
C503 C 0.6394 0.91454 0.35639 0.0
C504 C 0.62295 0.9274 0.36101 0.0
C505 C 0.6688 0.88984 0.34705 0.0
C506 C 0.65502 0.90146 0.34142 0.0
C507 C 0.64062 0.91374 0.34614 0.0
C508 C 0.65244 0.89808 0.33081 0.0
C509 C 0.68339 0.87533 0.34218 0.0
C510 C 0.66591 0.90596 0.3237 0.0
C511 C 0.66182 0.90332 0.31363 0.0
C512 C 0.64429 0.89271 0.3107 0.0
C513 C 0.63137 0.88451 0.31799 0.0
C514 C 0.63531 0.88729 0.32785 0.0
H515 H 0.69267 0.86676 0.34761 0.0
H516 H 0.67484 0.86432 0.3376 0.0
H517 H 0.69372 0.8839 0.33721 0.0
H518 H 0.67919 0.91447 0.32594 0.0
H519 H 0.67193 0.90997 0.3082 0.0
H520 H 0.36921 0.40242 0.6401 0.0
H521 H 0.3633 0.40399 0.62266 0.0
H522 H 0.29872 0.39909 0.62752 0.0
H523 H 0.30456 0.3967 0.64548 0.0
H524 H 0.34057 0.36925 0.61308 0.0
H525 H 0.31294 0.44825 0.60659 0.0
H526 H 0.32913 0.44174 0.61684 0.0
H527 H 0.30302 0.43406 0.61694 0.0
C528 C 0.35361 0.40166 0.63758 0.0
C529 C 0.33731 0.39858 0.64416 0.0
C530 C 0.35036 0.4027 0.62756 0.0
C531 C 0.3307 0.40122 0.62387 0.0
C532 C 0.31406 0.39999 0.63036 0.0
H533 H 0.30148 0.39271 0.56147 0.0
H534 H 0.29874 0.39582 0.57946 0.0
C535 C 0.31735 0.3987 0.64055 0.0
C536 C 0.32837 0.39963 0.61316 0.0
H537 H 0.31806 0.4277 0.59267 0.0
C538 C 0.33532 0.38185 0.60858 0.0
C539 C 0.32223 0.41641 0.60743 0.0
C540 C 0.31648 0.43631 0.61213 0.0
C541 C 0.33623 0.38043 0.59831 0.0
C542 C 0.32978 0.39719 0.59258 0.0
C543 C 0.32263 0.41483 0.59716 0.0
C544 C 0.33124 0.39711 0.58178 0.0
C545 C 0.34422 0.36119 0.59367 0.0
C546 C 0.35033 0.39796 0.57724 0.0
C547 C 0.35187 0.39654 0.56705 0.0
C548 C 0.33433 0.39446 0.56131 0.0
C549 C 0.31513 0.39495 0.56579 0.0
C550 C 0.31359 0.39631 0.57602 0.0
H551 H 0.34662 0.34889 0.59916 0.0
H552 H 0.33347 0.35576 0.58796 0.0
H553 H 0.35895 0.36436 0.58999 0.0
H554 H 0.36406 0.39895 0.5816 0.0
H555 H 0.3668 0.39568 0.5637 0.0
H556 H 0.80396 0.10161 0.89473 0.0
H557 H 0.80204 0.09916 0.87681 0.0
H558 H 0.85536 0.06103 0.8768 0.0
H559 H 0.85723 0.06348 0.8948 0.0
H560 H 0.83534 0.11265 0.86421 0.0
H561 H 0.8146 0.03138 0.85877 0.0
H562 H 0.80959 0.04458 0.87014 0.0
H563 H 0.83493 0.03649 0.86722 0.0
C564 C 0.81461 0.09185 0.89091 0.0
C565 C 0.83042 0.08222 0.89606 0.0
C566 C 0.81376 0.09083 0.8807 0.0
C567 C 0.82859 0.08 0.87553 0.0
C568 C 0.84365 0.06928 0.88072 0.0
H569 H 0.86026 0.06214 0.81559 0.0
H570 H 0.85582 0.06168 0.83336 0.0
C571 C 0.84454 0.07036 0.89096 0.0
C572 C 0.82871 0.08056 0.86471 0.0
H573 H 0.8226 0.0505 0.84462 0.0
C574 C 0.83238 0.09915 0.85988 0.0
C575 C 0.82507 0.06286 0.85918 0.0
C576 C 0.82069 0.04269 0.86405 0.0
C577 C 0.83273 0.10037 0.84957 0.0
C578 C 0.82884 0.0826 0.84406 0.0
C579 C 0.82525 0.06411 0.84891 0.0
C580 C 0.83018 0.08225 0.83326 0.0
C581 C 0.83809 0.12028 0.84464 0.0
C582 C 0.8165 0.09317 0.8273 0.0
C583 C 0.81902 0.09344 0.81707 0.0
C584 C 0.83513 0.08267 0.81283 0.0
C585 C 0.84766 0.07048 0.81876 0.0
C586 C 0.84531 0.0704 0.82889 0.0
H587 H 0.84286 0.13203 0.85001 0.0
H588 H 0.85056 0.11797 0.83925 0.0
H589 H 0.82473 0.12613 0.84055 0.0
H590 H 0.80437 0.10195 0.83059 0.0
H591 H 0.80939 0.10309 0.81259 0.0
H592 H 0.16317 0.42022 0.89758 0.0
H593 H 0.16762 0.42673 0.87974 0.0
H594 H 0.13251 0.37309 0.87327 0.0
H595 H 0.12684 0.36735 0.89044 0.0
H596 H 0.18371 0.3989 0.86431 0.0
H597 H 0.10203 0.41665 0.85834 0.0
H598 H 0.11374 0.41807 0.87033 0.0
H599 H 0.10662 0.3939 0.86525 0.0
C600 C 0.15606 0.4102 0.89231 0.0
C601 C 0.14438 0.39352 0.89548 0.0
C602 C 0.1588 0.41374 0.88217 0.0
C603 C 0.14994 0.4006 0.87524 0.0
C604 C 0.13897 0.38373 0.87847 0.0
H605 H 0.13836 0.36356 0.81738 0.0
H606 H 0.14196 0.36947 0.8349 0.0
C607 C 0.13585 0.38049 0.88839 0.0
C608 C 0.15141 0.40409 0.86453 0.0
H609 H 0.12156 0.40771 0.84409 0.0
C610 C 0.17028 0.40154 0.85987 0.0
C611 C 0.13364 0.40675 0.8588 0.0
C612 C 0.11288 0.40912 0.86343 0.0
C613 C 0.17172 0.40092 0.84957 0.0
C614 C 0.15399 0.40338 0.84388 0.0
C615 C 0.13519 0.40638 0.84853 0.0
C616 C 0.15412 0.39978 0.8332 0.0
C617 C 0.19185 0.39631 0.84476 0.0
C618 C 0.16049 0.41474 0.82645 0.0
C619 C 0.1583 0.41146 0.8163 0.0
C620 C 0.14985 0.39314 0.81295 0.0
C621 C 0.14504 0.37777 0.81977 0.0
C622 C 0.14686 0.38117 0.82979 0.0
H623 H 0.20415 0.39387 0.85022 0.0
H624 H 0.19047 0.38249 0.84014 0.0
H625 H 0.1962 0.40908 0.83983 0.0
H626 H 0.16617 0.42921 0.82903 0.0
H627 H 0.16169 0.42367 0.81119 0.0
H628 H 0.80486 0.87532 0.06087 0.0
H629 H 0.80294 0.87882 0.07873 0.0
H630 H 0.85364 0.9204 0.07796 0.0
H631 H 0.8556 0.91681 0.05998 0.0
H632 H 0.83762 0.86787 0.091 0.0
H633 H 0.8112 0.94745 0.09644 0.0
H634 H 0.80653 0.93367 0.08521 0.0
H635 H 0.83139 0.94355 0.08772 0.0
C636 C 0.81498 0.88593 0.06449 0.0
C637 C 0.83016 0.8961 0.05912 0.0
C638 C 0.81408 0.88764 0.07467 0.0
C639 C 0.82823 0.89972 0.07963 0.0
C640 C 0.8425 0.91111 0.07422 0.0
H641 H 0.85824 0.9194 0.1399 0.0
H642 H 0.85416 0.91997 0.12211 0.0
C643 C 0.84345 0.90932 0.06397 0.0
C644 C 0.82869 0.89937 0.09048 0.0
H645 H 0.82036 0.9289 0.11059 0.0
C646 C 0.83373 0.88113 0.09532 0.0
C647 C 0.82375 0.91675 0.09602 0.0
C648 C 0.81778 0.93648 0.09113 0.0
C649 C 0.83413 0.87994 0.10563 0.0
C650 C 0.82893 0.89737 0.11115 0.0
C651 C 0.82404 0.91554 0.10629 0.0
C652 C 0.82996 0.8977 0.12199 0.0
C653 C 0.84083 0.86044 0.11055 0.0
C654 C 0.81693 0.88576 0.12784 0.0
C655 C 0.8192 0.88547 0.13809 0.0
C656 C 0.8344 0.89726 0.14247 0.0
C657 C 0.84624 0.91036 0.13664 0.0
C658 C 0.84414 0.91049 0.12649 0.0
H659 H 0.84647 0.8491 0.10517 0.0
H660 H 0.85305 0.86362 0.11596 0.0
H661 H 0.82787 0.85363 0.11462 0.0
H662 H 0.80553 0.87619 0.12447 0.0
H663 H 0.81019 0.87503 0.14247 0.0
H664 H 0.35743 0.564 0.39302 0.0
H665 H 0.35584 0.55934 0.37508 0.0
H666 H 0.30341 0.5986 0.37375 0.0
H667 H 0.30511 0.60333 0.39156 0.0
H668 H 0.32525 0.54613 0.36217 0.0
H669 H 0.34447 0.62726 0.35548 0.0
H670 H 0.34919 0.6146 0.36706 0.0
H671 H 0.32407 0.62322 0.36405 0.0
C672 C 0.34513 0.57089 0.3889 0.0
C673 C 0.33123 0.58376 0.39357 0.0
C674 C 0.34442 0.56855 0.37868 0.0
C675 C 0.32991 0.57919 0.3731 0.0
C676 C 0.31505 0.59073 0.3779 0.0
H677 H 0.30799 0.59834 0.31064 0.0
H678 H 0.30284 0.59478 0.32855 0.0
C679 C 0.31576 0.59305 0.38807 0.0
C680 C 0.33028 0.57842 0.36224 0.0
H681 H 0.33413 0.60804 0.34165 0.0
C682 C 0.32721 0.55963 0.35767 0.0
C683 C 0.33314 0.5961 0.35643 0.0
C684 C 0.33811 0.61643 0.36097 0.0
C685 C 0.32622 0.55807 0.3474 0.0
C686 C 0.32835 0.5758 0.34158 0.0
C687 C 0.33187 0.59458 0.34615 0.0
C688 C 0.32877 0.575 0.33072 0.0
C689 C 0.32263 0.53748 0.34287 0.0
C690 C 0.34448 0.56444 0.32604 0.0
C691 C 0.34712 0.56615 0.31594 0.0
C692 C 0.33437 0.57877 0.31033 0.0
C693 C 0.31777 0.5883 0.31483 0.0
C694 C 0.31503 0.58646 0.32503 0.0
H695 H 0.31639 0.52645 0.34829 0.0
H696 H 0.31201 0.53863 0.33655 0.0
H697 H 0.33726 0.53134 0.34012 0.0
H698 H 0.35552 0.5559 0.33028 0.0
H699 H 0.36014 0.55881 0.31259 0.0
H700 H 0.64472 0.05077 0.64515 0.0
H701 H 0.6486 0.04687 0.62723 0.0
H702 H 0.65069 0.1121 0.62402 0.0
H703 H 0.64743 0.11588 0.64179 0.0
H704 H 0.6211 0.06286 0.61303 0.0
H705 H 0.69843 0.09486 0.60746 0.0
H706 H 0.68968 0.0859 0.6193 0.0
H707 H 0.68201 0.11044 0.61476 0.0
C708 C 0.64713 0.06413 0.64062 0.0
C709 C 0.64656 0.08361 0.64479 0.0
C710 C 0.64889 0.06194 0.6304 0.0
C711 C 0.65018 0.0792 0.62432 0.0
C712 C 0.65027 0.09857 0.62859 0.0
H713 H 0.64398 0.11672 0.56504 0.0
H714 H 0.64573 0.1119 0.5827 0.0
C715 C 0.64862 0.10074 0.63873 0.0
C716 C 0.65049 0.07733 0.61348 0.0
H717 H 0.67757 0.09183 0.59323 0.0
C718 C 0.63362 0.06877 0.60868 0.0
C719 C 0.66667 0.08545 0.60785 0.0
C720 C 0.68529 0.09454 0.6126 0.0
C721 C 0.6323 0.06867 0.59836 0.0
C722 C 0.64846 0.07695 0.59278 0.0
C723 C 0.66538 0.08522 0.59757 0.0
C724 C 0.64731 0.07912 0.58199 0.0
C725 C 0.61328 0.06081 0.59346 0.0
C726 C 0.64805 0.0622 0.57571 0.0
C727 C 0.64709 0.06488 0.56548 0.0
C728 C 0.6452 0.0845 0.56151 0.0
C729 C 0.64502 0.10134 0.56787 0.0
C730 C 0.64607 0.09867 0.57798 0.0
H731 H 0.60128 0.05674 0.59887 0.0
H732 H 0.60716 0.07244 0.58832 0.0
H733 H 0.61699 0.04711 0.58908 0.0
H734 H 0.64942 0.04701 0.57873 0.0
H735 H 0.64747 0.05171 0.56073 0.0
H736 H 0.80196 0.39762 0.81222 0.0
H737 H 0.79678 0.40148 0.83015 0.0
H738 H 0.86176 0.40169 0.83444 0.0
H739 H 0.86696 0.39949 0.81703 0.0
H740 H 0.81052 0.37372 0.84445 0.0
H741 H 0.8468 0.44864 0.85089 0.0
H742 H 0.83941 0.44049 0.83875 0.0
H743 H 0.86274 0.43158 0.8442 0.0
C744 C 0.81498 0.39907 0.81703 0.0
C745 C 0.83477 0.3978 0.81326 0.0
C746 C 0.81208 0.40112 0.82721 0.0
C747 C 0.82893 0.40207 0.83358 0.0
C748 C 0.84855 0.40152 0.8297 0.0
H749 H 0.86621 0.39371 0.89275 0.0
H750 H 0.86149 0.39535 0.87498 0.0
C751 C 0.85143 0.39991 0.81968 0.0
C752 C 0.82659 0.40226 0.84436 0.0
H753 H 0.84309 0.42688 0.86484 0.0
C754 C 0.81713 0.38558 0.84895 0.0
C755 C 0.83595 0.41741 0.85017 0.0
C756 C 0.84667 0.43559 0.84573 0.0
C757 C 0.81718 0.38344 0.85923 0.0
C758 C 0.82653 0.39868 0.86498 0.0
C759 C 0.8357 0.41541 0.86038 0.0
C760 C 0.82869 0.39713 0.87574 0.0
C761 C 0.80831 0.36451 0.86384 0.0
C762 C 0.81179 0.39836 0.88203 0.0
C763 C 0.81454 0.39773 0.89225 0.0
C764 C 0.8342 0.39608 0.89618 0.0
C765 C 0.851 0.39573 0.88985 0.0
C766 C 0.84828 0.39616 0.87973 0.0
H767 H 0.80388 0.35306 0.85825 0.0
H768 H 0.81947 0.35752 0.86896 0.0
H769 H 0.79463 0.36856 0.86819 0.0
H770 H 0.79658 0.39952 0.87905 0.0
H771 H 0.80134 0.3972 0.89702 0.0
H772 H 0.31693 0.05716 0.64608 0.0
H773 H 0.31208 0.05231 0.62818 0.0
H774 H 0.34575 0.10733 0.62246 0.0
H775 H 0.34999 0.11257 0.63996 0.0
H776 H 0.29582 0.08281 0.61312 0.0
H777 H 0.37695 0.06279 0.60678 0.0
H778 H 0.36455 0.05878 0.6185 0.0
H779 H 0.37244 0.08383 0.61486 0.0
C780 C 0.32268 0.06846 0.64098 0.0
C781 C 0.33388 0.0852 0.6444 0.0
C782 C 0.32023 0.06553 0.63079 0.0
C783 C 0.32917 0.07916 0.62405 0.0
C784 C 0.33923 0.09637 0.62753 0.0
H785 H 0.34738 0.11396 0.56533 0.0
H786 H 0.34291 0.10994 0.58294 0.0
C787 C 0.34141 0.09943 0.63755 0.0
C788 C 0.32784 0.07629 0.61329 0.0
H789 H 0.35768 0.07272 0.59282 0.0
C790 C 0.30918 0.08 0.60865 0.0
C791 C 0.34551 0.07327 0.60753 0.0
C792 C 0.36601 0.06931 0.61214 0.0
C793 C 0.30785 0.08159 0.59836 0.0
C794 C 0.32555 0.07884 0.59263 0.0
C795 C 0.3441 0.07456 0.59727 0.0
C796 C 0.32578 0.08201 0.58188 0.0
C797 C 0.28793 0.08748 0.59368 0.0
C798 C 0.31742 0.06763 0.57543 0.0
C799 C 0.32009 0.06976 0.56523 0.0
C800 C 0.33116 0.0863 0.56145 0.0
C801 C 0.33895 0.10089 0.56798 0.0
C802 C 0.33633 0.09873 0.57807 0.0
H803 H 0.27592 0.09054 0.59923 0.0
H804 H 0.29003 0.10126 0.58905 0.0
H805 H 0.28267 0.07506 0.5888 0.0
H806 H 0.30934 0.05453 0.57829 0.0
H807 H 0.31364 0.0585 0.56035 0.0
H808 H 0.67028 0.56275 0.39493 0.0
H809 H 0.67463 0.5593 0.37697 0.0
H810 H 0.62525 0.60127 0.37222 0.0
H811 H 0.62093 0.60485 0.38984 0.0
H812 H 0.64382 0.54725 0.3626 0.0
H813 H 0.6708 0.62629 0.35574 0.0
H814 H 0.67272 0.61433 0.3677 0.0
H815 H 0.64872 0.62383 0.3634 0.0
C816 C 0.66023 0.57094 0.39001 0.0
C817 C 0.64521 0.58392 0.39376 0.0
C818 C 0.66284 0.56915 0.37981 0.0
C819 C 0.65052 0.58039 0.37332 0.0
C820 C 0.63524 0.59289 0.3771 0.0
H821 H 0.61598 0.60155 0.3164 0.0
H822 H 0.62179 0.59515 0.33353 0.0
C823 C 0.63268 0.59471 0.38719 0.0
C824 C 0.65288 0.57869 0.36255 0.0
H825 H 0.66094 0.60706 0.34189 0.0
C826 C 0.64808 0.56013 0.35805 0.0
C827 C 0.65792 0.59576 0.35668 0.0
C828 C 0.66296 0.61617 0.3611 0.0
C829 C 0.64741 0.5584 0.34775 0.0
C830 C 0.65231 0.5755 0.34191 0.0
C831 C 0.65773 0.59385 0.34643 0.0
C832 C 0.64818 0.57624 0.33126 0.0
C833 C 0.64015 0.53888 0.34317 0.0
C834 C 0.66112 0.56744 0.32421 0.0
C835 C 0.65771 0.57091 0.31412 0.0
C836 C 0.64146 0.58337 0.3111 0.0
C837 C 0.6287 0.59189 0.31832 0.0
C838 C 0.63186 0.58817 0.3282 0.0
H839 H 0.63676 0.52699 0.34877 0.0
H840 H 0.6262 0.54181 0.33881 0.0
H841 H 0.6519 0.53303 0.33805 0.0
H842 H 0.67394 0.55829 0.32652 0.0
H843 H 0.66758 0.56387 0.30874 0.0
H844 H 0.16866 0.87492 0.1419 0.0
H845 H 0.17334 0.87681 0.12394 0.0
H846 H 0.12724 0.92334 0.12229 0.0
H847 H 0.12323 0.92201 0.14008 0.0
H848 H 0.14162 0.86801 0.11086 0.0
H849 H 0.17044 0.94634 0.10446 0.0
H850 H 0.17205 0.93392 0.1163 0.0
H851 H 0.14851 0.94507 0.11228 0.0
C852 C 0.16042 0.88625 0.1377 0.0
C853 C 0.14593 0.8986 0.14226 0.0
C854 C 0.16279 0.88709 0.12748 0.0
C855 C 0.1507 0.9003 0.12183 0.0
C856 C 0.13704 0.9134 0.12652 0.0
H857 H 0.1217 0.91526 0.06019 0.0
H858 H 0.12322 0.91754 0.07823 0.0
C859 C 0.13485 0.91271 0.13667 0.0
C860 C 0.15102 0.89941 0.111 0.0
H861 H 0.15787 0.92873 0.09056 0.0
C862 C 0.14544 0.88116 0.10639 0.0
C863 C 0.1556 0.91675 0.10526 0.0
C864 C 0.16215 0.93658 0.10981 0.0
C865 C 0.14428 0.87989 0.09611 0.0
C866 C 0.14892 0.89732 0.09041 0.0
C867 C 0.15432 0.91549 0.09502 0.0
C868 C 0.1488 0.89705 0.07961 0.0
C869 C 0.13771 0.86018 0.09141 0.0
C870 C 0.16351 0.88588 0.07453 0.0
C871 C 0.16302 0.88513 0.06431 0.0
C872 C 0.14777 0.89545 0.05908 0.0
C873 C 0.1339 0.90772 0.06411 0.0
C874 C 0.13448 0.9086 0.07436 0.0
H875 H 0.13163 0.84918 0.0969 0.0
H876 H 0.1259 0.8631 0.08575 0.0
H877 H 0.1509 0.85308 0.08769 0.0
H878 H 0.17494 0.87728 0.07848 0.0
H879 H 0.17354 0.87517 0.06053 0.0
H880 H 0.85197 0.613 0.06258 0.0
H881 H 0.84843 0.60957 0.08024 0.0
H882 H 0.81308 0.55497 0.07637 0.0
H883 H 0.8167 0.55822 0.05838 0.0
H884 H 0.8127 0.60942 0.09088 0.0
H885 H 0.85771 0.53879 0.09656 0.0
H886 H 0.85998 0.55447 0.08569 0.0
H887 H 0.83857 0.53785 0.08713 0.0
C888 C 0.84358 0.60007 0.06542 0.0
C889 C 0.8348 0.58569 0.05908 0.0
C890 C 0.84154 0.59822 0.07554 0.0
C891 C 0.83071 0.58193 0.0796 0.0
C892 C 0.82184 0.56745 0.07334 0.0
H893 H 0.81573 0.56002 0.1435 0.0
H894 H 0.81039 0.55684 0.12554 0.0
C895 C 0.82392 0.56928 0.06311 0.0
C896 C 0.82845 0.58076 0.0904 0.0
H897 H 0.84273 0.55346 0.11064 0.0
C898 C 0.81895 0.59702 0.0952 0.0
C899 C 0.83716 0.56484 0.09598 0.0
C900 C 0.84911 0.54805 0.09113 0.0
C901 C 0.8179 0.59782 0.10547 0.0
C902 C 0.82637 0.58177 0.11108 0.0
C903 C 0.83567 0.56536 0.10629 0.0
C904 C 0.82828 0.58347 0.12186 0.0
C905 C 0.80822 0.61615 0.11024 0.0
C906 C 0.83977 0.59949 0.12562 0.0
C907 C 0.84193 0.60183 0.13565 0.0
C908 C 0.8336 0.58758 0.14225 0.0
C909 C 0.82187 0.57146 0.13858 0.0
C910 C 0.81918 0.56944 0.12837 0.0
H911 H 0.79763 0.62404 0.10515 0.0
H912 H 0.79981 0.61179 0.11702 0.0
H913 H 0.82024 0.62718 0.11229 0.0
H914 H 0.84739 0.61012 0.12075 0.0
H915 H 0.85116 0.61437 0.13824 0.0
H916 H 0.12868 0.11493 0.81711 0.0
H917 H 0.13245 0.10991 0.83469 0.0
H918 H 0.16483 0.05399 0.82956 0.0
H919 H 0.1605 0.05867 0.81162 0.0
H920 H 0.11656 0.07354 0.84466 0.0
H921 H 0.19879 0.09018 0.85017 0.0
H922 H 0.1847 0.09956 0.83971 0.0
H923 H 0.19179 0.07331 0.84031 0.0
C924 C 0.13702 0.10174 0.81967 0.0
C925 C 0.14431 0.08718 0.81301 0.0
C926 C 0.139 0.09884 0.82973 0.0
C927 C 0.14869 0.08153 0.83339 0.0
C928 C 0.15726 0.06747 0.82681 0.0
H929 H 0.16035 0.05755 0.89707 0.0
H930 H 0.1624 0.05281 0.87908 0.0
C931 C 0.15506 0.07027 0.8166 0.0
C932 C 0.14893 0.07837 0.84415 0.0
H933 H 0.17919 0.08351 0.86435 0.0
C934 C 0.1303 0.07525 0.84898 0.0
C935 C 0.16678 0.08134 0.84971 0.0
C936 C 0.1867 0.08643 0.84478 0.0
C937 C 0.12904 0.07524 0.85927 0.0
C938 C 0.14696 0.07805 0.86483 0.0
C939 C 0.16563 0.0808 0.86002 0.0
C940 C 0.14614 0.0805 0.8756 0.0
C941 C 0.10851 0.07287 0.86415 0.0
C942 C 0.13668 0.09771 0.87946 0.0
C943 C 0.13533 0.1003 0.88954 0.0
C944 C 0.14363 0.08584 0.89606 0.0
C945 C 0.15351 0.0687 0.89222 0.0
C946 C 0.1548 0.06608 0.882 0.0
H947 H 0.0969 0.0669 0.85898 0.0
H948 H 0.10954 0.06253 0.8706 0.0
H949 H 0.10323 0.08789 0.8668 0.0
H950 H 0.1303 0.1092 0.87463 0.0
H951 H 0.12778 0.11383 0.89221 0.0
H952 H 0.62499 0.42018 0.56196 0.0
H953 H 0.62699 0.42479 0.57991 0.0
H954 H 0.67292 0.3781 0.58149 0.0
H955 H 0.67167 0.37434 0.56372 0.0
H956 H 0.61761 0.39356 0.59309 0.0
H957 H 0.69669 0.42005 0.59935 0.0
H958 H 0.68449 0.4219 0.5875 0.0
H959 H 0.69495 0.3981 0.59164 0.0
C960 C 0.63627 0.41184 0.56613 0.0
C961 C 0.64845 0.39723 0.56154 0.0
C962 C 0.63715 0.41415 0.57636 0.0
C963 C 0.65018 0.40184 0.58201 0.0
C964 C 0.66314 0.38811 0.57729 0.0
H965 H 0.6646 0.3716 0.64364 0.0
H966 H 0.66675 0.37337 0.62559 0.0
C967 C 0.6625 0.38605 0.56713 0.0
C968 C 0.64927 0.40204 0.59286 0.0
H969 H 0.67874 0.40771 0.61328 0.0
C970 C 0.63087 0.39693 0.59753 0.0
C971 C 0.66673 0.406 0.5986 0.0
C972 C 0.68679 0.41198 0.59403 0.0
C973 C 0.62954 0.39567 0.60782 0.0
C974 C 0.64707 0.39973 0.6135 0.0
C975 C 0.6654 0.40463 0.60884 0.0
C976 C 0.64681 0.39941 0.62432 0.0
C977 C 0.60965 0.38958 0.61255 0.0
C978 C 0.636 0.41426 0.62949 0.0
C979 C 0.63535 0.41362 0.63972 0.0
C980 C 0.64543 0.3981 0.6449 0.0
C981 C 0.6573 0.38403 0.63978 0.0
C982 C 0.65809 0.38476 0.62951 0.0
H983 H 0.59851 0.38387 0.60708 0.0
H984 H 0.61222 0.37763 0.6182 0.0
H985 H 0.6029 0.40293 0.61629 0.0
H986 H 0.62762 0.42594 0.6256 0.0
H987 H 0.62565 0.42429 0.64356 0.0
H988 H 0.33189 0.92926 0.30985 0.0
H989 H 0.32903 0.93342 0.32778 0.0
H990 H 0.32817 0.86827 0.33137 0.0
H991 H 0.33114 0.86415 0.31356 0.0
H992 H 0.29891 0.91598 0.34177 0.0
H993 H 0.37745 0.88709 0.3482 0.0
H994 H 0.36992 0.89859 0.33667 0.0
H995 H 0.36196 0.87324 0.33966 0.0
C996 C 0.33013 0.91593 0.31447 0.0
C997 C 0.33111 0.89638 0.3104 0.0
C998 C 0.32894 0.91829 0.32468 0.0
C999 C 0.3289 0.90113 0.33085 0.0
C1000 C 0.32859 0.88166 0.32672 0.0
H1001 H 0.32199 0.86334 0.38922 0.0
H1002 H 0.31859 0.87005 0.37179 0.0
C1003 C 0.32978 0.87932 0.31656 0.0
C1004 C 0.32906 0.90334 0.34164 0.0
H1005 H 0.35654 0.89172 0.36216 0.0
C1006 C 0.31164 0.91108 0.34624 0.0
C1007 C 0.34567 0.89662 0.3474 0.0
C1008 C 0.36491 0.88851 0.34278 0.0
C1009 C 0.31003 0.91154 0.35653 0.0
C1010 C 0.32647 0.90464 0.36227 0.0
C1011 C 0.34413 0.89736 0.35767 0.0
C1012 C 0.32477 0.90217 0.373 0.0
C1013 C 0.29044 0.91827 0.36125 0.0
C1014 C 0.32845 0.91834 0.3795 0.0
C1015 C 0.33069 0.91454 0.38963 0.0
C1016 C 0.32942 0.89451 0.39316 0.0
C1017 C 0.32375 0.87887 0.38667 0.0
C1018 C 0.32165 0.88262 0.3767 0.0
H1019 H 0.27895 0.9231 0.35574 0.0
H1020 H 0.28403 0.90561 0.36571 0.0
H1021 H 0.29347 0.93109 0.36633 0.0
H1022 H 0.33071 0.9336 0.37669 0.0
H1023 H 0.33474 0.92685 0.39451 0.0
H1024 H 0.06666 0.63305 0.02871 0.0
H1025 H 0.03048 0.62782 0.02663 0.0
H1026 H 0.04065 0.5641 0.02126 0.0
H1027 H 0.07758 0.56925 0.02354 0.0
H1028 H 0.0091 0.61467 0.01093 0.0
H1029 H -0.00345 0.5635 0.04307 0.0
H1030 H 0.0189 0.57923 0.04181 0.0
H1031 H 0.01653 0.55648 0.0347 0.0
C1032 C 0.06135 0.61783 0.0271 0.0
C1033 C 0.07511 0.60155 0.02643 0.0
C1034 C 0.04054 0.61489 0.02589 0.0
C1035 C 0.03263 0.59553 0.02397 0.0
C1036 C 0.04629 0.57914 0.02295 0.0
H1037 H 0.90008 0.57144 0.02159 0.0
H1038 H 0.93692 0.56636 0.01895 0.0
C1039 C 0.06741 0.58213 0.02414 0.0
C1040 C 0.0101 0.59323 0.02292 0.0
H1041 H 0.96867 0.5732 0.03399 0.0
C1042 C 0.0001 0.60531 0.01587 0.0
C1043 C -0.00176 0.58139 0.0295 0.0
C1044 C 0.00796 0.5695 0.03777 0.0
C1045 C 0.97969 0.60618 0.01532 0.0
C1046 C 0.96779 0.59441 0.02192 0.0
C1047 C 0.97774 0.58183 0.02878 0.0
C1048 C 0.94528 0.5972 0.0227 0.0
C1049 C 0.97005 0.62019 0.00784 0.0
C1050 C 0.93768 0.61613 0.0256 0.0
C1051 C 0.91691 0.61906 0.02705 0.0
C1052 C 0.90291 0.60308 0.02581 0.0
C1053 C 0.91036 0.58411 0.02262 0.0
C1054 C 0.93143 0.58117 0.02116 0.0
H1055 H 0.98079 0.62421 0.00182 0.0
H1056 H 0.95628 0.61315 0.0046 0.0
H1057 H 0.96543 0.63452 0.01149 0.0
H1058 H 0.94794 0.62865 0.02702 0.0
H1059 H 0.9119 0.63395 0.0294 0.0
H1060 H 0.62589 0.65273 0.26148 0.0
H1061 H 0.6293 0.68986 0.25943 0.0
H1062 H 0.64262 0.69545 0.29036 0.0
H1063 H 0.63941 0.65867 0.29234 0.0
H1064 H 0.60517 0.7193 0.26916 0.0
H1065 H 0.68636 0.73117 0.27856 0.0
H1066 H 0.6766 0.70682 0.2747 0.0
H1067 H 0.67278 0.7154 0.28711 0.0
C1068 C 0.63026 0.66189 0.26773 0.0
C1069 C 0.6327 0.65286 0.27705 0.0
C1070 C 0.63197 0.68311 0.2666 0.0
C1071 C 0.63639 0.69556 0.27473 0.0
C1072 C 0.63963 0.68629 0.28392 0.0
H1073 H 0.635 0.82027 0.29249 0.0
H1074 H 0.63818 0.78351 0.29042 0.0
C1075 C 0.63781 0.66523 0.28506 0.0
C1076 C 0.63639 0.71825 0.27387 0.0
H1077 H 0.66522 0.76037 0.27863 0.0
C1078 C 0.61842 0.72829 0.27104 0.0
C1079 C 0.65354 0.73007 0.27649 0.0
C1080 C 0.67347 0.72036 0.27931 0.0
C1081 C 0.61701 0.74971 0.27106 0.0
C1082 C 0.63415 0.76145 0.27378 0.0
C1083 C 0.65214 0.75141 0.27646 0.0
C1084 C 0.63336 0.78406 0.27469 0.0
C1085 C 0.59692 0.75962 0.26868 0.0
C1086 C 0.63044 0.79683 0.26646 0.0
C1087 C 0.62899 0.81804 0.26763 0.0
C1088 C 0.63028 0.82669 0.27705 0.0
C1089 C 0.63406 0.81397 0.28516 0.0
C1090 C 0.63572 0.79295 0.28398 0.0
H1091 H 0.58448 0.74833 0.26786 0.0
H1092 H 0.5927 0.7705 0.27456 0.0
H1093 H 0.59827 0.76831 0.2617 0.0
H1094 H 0.62896 0.79038 0.25918 0.0
H1095 H 0.62586 0.82752 0.26128 0.0
H1096 H 0.41007 0.372 0.54443 0.0
H1097 H 0.44657 0.37629 0.5424 0.0
H1098 H 0.43754 0.39551 0.51237 0.0
H1099 H 0.40044 0.39134 0.51442 0.0
H1100 H 0.46874 0.35342 0.52843 0.0
H1101 H 0.48033 0.43671 0.52382 0.0
H1102 H 0.45844 0.42616 0.53004 0.0
H1103 H 0.4601 0.42513 0.51689 0.0
C1104 C 0.41576 0.3774 0.53741 0.0
C1105 C 0.40236 0.381 0.52955 0.0
C1106 C 0.43668 0.37987 0.53627 0.0
C1107 C 0.44491 0.38606 0.52723 0.0
C1108 C 0.43156 0.39082 0.51945 0.0
H1109 H 0.57775 0.38697 0.51397 0.0
H1110 H 0.54057 0.38995 0.5116 0.0
C1111 C 0.41037 0.38845 0.52062 0.0
C1112 C 0.46746 0.38572 0.52594 0.0
H1113 H 0.50945 0.416 0.5232 0.0
C1114 C 0.47761 0.36708 0.52716 0.0
C1115 C 0.47909 0.40356 0.52442 0.0
C1116 C 0.46908 0.42411 0.52378 0.0
C1117 C 0.49895 0.36585 0.52706 0.0
C1118 C 0.5106 0.38372 0.52559 0.0
C1119 C 0.5005 0.40228 0.52411 0.0
C1120 C 0.53311 0.38363 0.52683 0.0
C1121 C 0.50894 0.34548 0.52874 0.0
C1122 C 0.5412 0.37999 0.53619 0.0
C1123 C 0.56212 0.37834 0.53754 0.0
C1124 C 0.57564 0.38041 0.52958 0.0
C1125 C 0.56771 0.38531 0.52025 0.0
C1126 C 0.54651 0.38687 0.51888 0.0
H1127 H 0.49797 0.33271 0.52807 0.0
H1128 H 0.52151 0.34318 0.5234 0.0
H1129 H 0.51552 0.34497 0.53624 0.0
H1130 H 0.53124 0.37792 0.54247 0.0
H1131 H 0.56774 0.37489 0.54484 0.0
H1132 H 0.87807 0.32232 0.77179 0.0
H1133 H 0.87474 0.28546 0.77018 0.0
H1134 H 0.81511 0.28824 0.78331 0.0
H1135 H 0.81833 0.3254 0.78476 0.0
H1136 H 0.86998 0.26067 0.787 0.0
H1137 H 0.80745 0.24816 0.76017 0.0
H1138 H 0.82234 0.27123 0.76039 0.0
H1139 H 0.80303 0.26697 0.76949 0.0
C1140 C 0.86395 0.31512 0.774 0.0
C1141 C 0.84837 0.32664 0.7783 0.0
C1142 C 0.86213 0.29406 0.77315 0.0
C1143 C 0.84471 0.28405 0.77663 0.0
C1144 C 0.82858 0.29566 0.78044 0.0
H1145 H 0.82242 0.15404 0.78699 0.0
H1146 H 0.81851 0.19125 0.78572 0.0
C1147 C 0.83035 0.31688 0.78122 0.0
C1148 C 0.84445 0.26145 0.77711 0.0
H1149 H 0.8204 0.21919 0.76832 0.0
C1150 C 0.85915 0.25161 0.78291 0.0
C1151 C 0.83031 0.24965 0.77177 0.0
C1152 C 0.81494 0.25943 0.76503 0.0
C1153 C 0.86008 0.2303 0.78353 0.0
C1154 C 0.84595 0.21849 0.77816 0.0
C1155 C 0.83109 0.2283 0.77247 0.0
C1156 C 0.84703 0.19594 0.77808 0.0
C1157 C 0.87601 0.22055 0.79 0.0
C1158 C 0.86385 0.18625 0.77383 0.0
C1159 C 0.86609 0.1652 0.77458 0.0
C1160 C 0.85139 0.15341 0.77943 0.0
C1161 C 0.83384 0.16286 0.78312 0.0
C1162 C 0.83169 0.18406 0.78247 0.0
H1163 H 0.88369 0.23178 0.79481 0.0
H1164 H 0.86905 0.20854 0.79468 0.0
H1165 H 0.88776 0.21326 0.78534 0.0
H1166 H 0.87561 0.19507 0.77023 0.0
H1167 H 0.87972 0.15818 0.77168 0.0
H1168 H 0.9097 0.38372 0.91268 0.0
H1169 H 0.94635 0.38829 0.91446 0.0
H1170 H 0.94011 0.38557 0.94603 0.0
H1171 H 0.90307 0.38096 0.94422 0.0
H1172 H 0.96995 0.41664 0.92352 0.0
H1173 H 0.98201 0.34061 0.94053 0.0
H1174 H 0.95908 0.34726 0.93401 0.0
H1175 H 0.96304 0.35619 0.94631 0.0
C1176 C 0.91611 0.38438 0.92001 0.0
C1177 C 0.9036 0.38188 0.9283 0.0
C1178 C 0.93708 0.38694 0.92103 0.0
C1179 C 0.94615 0.38678 0.93036 0.0
C1180 C 0.93355 0.38527 0.93873 0.0
H1181 H 0.0768 0.38513 0.94386 0.0
H1182 H 0.03982 0.39052 0.94562 0.0
C1183 C 0.91238 0.38293 0.93771 0.0
C1184 C 0.96879 0.38794 0.93115 0.0
H1185 H 0.00997 0.36121 0.93836 0.0
C1186 C 0.97887 0.40461 0.92686 0.0
C1187 C 0.98053 0.37204 0.93532 0.0
C1188 C 0.97073 0.35289 0.93923 0.0
C1189 C -0.00069 0.40587 0.92665 0.0
C1190 C 0.01104 0.3901 0.93091 0.0
C1191 C 0.00099 0.37353 0.93531 0.0
C1192 C 0.03364 0.38945 0.92998 0.0
C1193 C 0.00918 0.42402 0.92179 0.0
C1194 C 0.0425 0.38741 0.92065 0.0
C1195 C 0.06338 0.38422 0.91966 0.0
C1196 C 0.07599 0.38303 0.92797 0.0
C1197 C 0.06743 0.38613 0.93733 0.0
C1198 C 0.04632 0.38908 0.93833 0.0
H1199 H -0.00166 0.43681 0.92085 0.0
H1200 H 0.02239 0.42935 0.92616 0.0
H1201 H 0.01477 0.41966 0.91439 0.0
H1202 H 0.03311 0.38731 0.91411 0.0
H1203 H 0.06962 0.38191 0.91237 0.0
H1204 H 0.83347 0.82892 0.18841 0.0
H1205 H 0.82802 0.79207 0.19097 0.0
H1206 H 0.85884 0.77978 0.16365 0.0
H1207 H 0.86452 0.81581 0.16113 0.0
H1208 H 0.80961 0.76002 0.17769 0.0
H1209 H 0.89207 0.74748 0.18411 0.0
H1210 H 0.88012 0.77189 0.18597 0.0
H1211 H 0.88602 0.76333 0.17376 0.0
C1212 C 0.83897 0.81831 0.18295 0.0
C1213 C 0.84987 0.82534 0.17467 0.0
C1214 C 0.83585 0.79728 0.18442 0.0
C1215 C 0.8435 0.78311 0.17761 0.0
C1216 C 0.85328 0.79031 0.16913 0.0
H1217 H 0.8585 0.66218 0.16054 0.0
H1218 H 0.85306 0.69831 0.16291 0.0
C1219 C 0.85651 0.81103 0.16771 0.0
C1220 C 0.84214 0.7607 0.17924 0.0
H1221 H 0.87216 0.71838 0.18048 0.0
C1222 C 0.8232 0.7509 0.17857 0.0
C1223 C 0.85993 0.74875 0.18022 0.0
C1224 C 0.8807 0.75834 0.18113 0.0
C1225 C 0.82175 0.72947 0.17835 0.0
C1226 C 0.83963 0.71761 0.17901 0.0
C1227 C 0.85843 0.72746 0.18007 0.0
C1228 C 0.83976 0.69521 0.17737 0.0
C1229 C 0.80136 0.71959 0.17677 0.0
C1230 C 0.83353 0.68118 0.18464 0.0
C1231 C 0.83668 0.66013 0.1833 0.0
C1232 C 0.84634 0.65297 0.17473 0.0
C1233 C 0.85143 0.66711 0.16733 0.0
C1234 C 0.84824 0.68786 0.16864 0.0
H1235 H 0.78894 0.73092 0.17601 0.0
H1236 H 0.80184 0.7101 0.17003 0.0
H1237 H 0.79784 0.70938 0.18306 0.0
H1238 H 0.827 0.68654 0.19147 0.0
H1239 H 0.8325 0.64966 0.18913 0.0
H1240 H 0.40062 0.59122 0.44139 0.0
H1241 H 0.43759 0.58698 0.444 0.0
H1242 H 0.44811 0.59912 0.41323 0.0
H1243 H 0.41181 0.60375 0.41067 0.0
H1244 H 0.4691 0.5614 0.43424 0.0
H1245 H 0.48142 0.64363 0.42687 0.0
H1246 H 0.45713 0.63359 0.43075 0.0
H1247 H 0.4653 0.63094 0.41821 0.0
C1248 C 0.41086 0.59269 0.43519 0.0
C1249 C 0.40333 0.59818 0.42585 0.0
C1250 C 0.43197 0.59033 0.43669 0.0
C1251 C 0.44573 0.59329 0.42885 0.0
C1252 C 0.43794 0.59733 0.41945 0.0
H1253 H 0.56791 0.59785 0.41059 0.0
H1254 H 0.53158 0.59341 0.41329 0.0
C1255 C 0.41712 0.5999 0.41799 0.0
C1256 C 0.46825 0.5931 0.43031 0.0
H1257 H 0.51051 0.62245 0.42654 0.0
C1258 C 0.47816 0.57484 0.43277 0.0
C1259 C 0.48016 0.61061 0.42832 0.0
C1260 C 0.47052 0.63087 0.42596 0.0
C1261 C 0.49961 0.57343 0.4328 0.0
C1262 C 0.51141 0.59077 0.43047 0.0
C1263 C 0.50148 0.60917 0.42838 0.0
C1264 C 0.53391 0.58995 0.42906 0.0
C1265 C 0.50958 0.5532 0.43474 0.0
C1266 C 0.54757 0.58882 0.43702 0.0
C1267 C 0.56865 0.59127 0.43547 0.0
C1268 C 0.5762 0.59509 0.42595 0.0
C1269 C 0.56254 0.59507 0.41801 0.0
C1270 C 0.54173 0.59253 0.41954 0.0
H1271 H 0.4983 0.54086 0.43592 0.0
H1272 H 0.51951 0.54909 0.42845 0.0
H1273 H 0.51937 0.55432 0.44136 0.0
H1274 H 0.54186 0.58701 0.44445 0.0
H1275 H 0.57881 0.59139 0.44173 0.0
H1276 H 0.64292 0.15727 0.66245 0.0
H1277 H 0.64697 0.19411 0.66407 0.0
H1278 H 0.62647 0.19042 0.69417 0.0
H1279 H 0.62299 0.15333 0.6926 0.0
H1280 H 0.61455 0.21919 0.6678 0.0
H1281 H 0.67372 0.23048 0.69646 0.0
H1282 H 0.67158 0.20725 0.6895 0.0
H1283 H 0.65421 0.21231 0.69938 0.0
C1284 C 0.63993 0.16428 0.6695 0.0
C1285 C 0.63282 0.15252 0.67742 0.0
C1286 C 0.64212 0.18533 0.67041 0.0
C1287 C 0.63709 0.19514 0.67925 0.0
C1288 C 0.63084 0.18325 0.68734 0.0
H1289 H 0.61905 0.3246 0.69211 0.0
H1290 H 0.62203 0.28736 0.6934 0.0
C1291 C 0.62885 0.16205 0.68645 0.0
C1292 C 0.63642 0.21782 0.67956 0.0
H1293 H 0.65618 0.25968 0.69096 0.0
C1294 C 0.62372 0.22802 0.67284 0.0
C1295 C 0.64826 0.2294 0.68619 0.0
C1296 C 0.66286 0.2194 0.69326 0.0
C1297 C 0.62258 0.24935 0.67255 0.0
C1298 C 0.63458 0.26092 0.67912 0.0
C1299 C 0.647 0.25078 0.68595 0.0
C1300 C 0.63471 0.28356 0.67882 0.0
C1301 C 0.60825 0.25936 0.66533 0.0
C1302 C 0.64171 0.29384 0.6704 0.0
C1303 C 0.64004 0.31498 0.66968 0.0
C1304 C 0.63167 0.32627 0.67742 0.0
C1305 C 0.62585 0.3162 0.68611 0.0
C1306 C 0.62737 0.29496 0.6868 0.0
H1307 H 0.59749 0.2483 0.66203 0.0
H1308 H 0.59941 0.27155 0.66899 0.0
H1309 H 0.61713 0.26642 0.65927 0.0
H1310 H 0.64786 0.28544 0.66425 0.0
H1311 H 0.64449 0.32245 0.66289 0.0
H1312 H 0.38067 0.31612 0.67172 0.0
H1313 H 0.3752 0.28017 0.67381 0.0
H1314 H 0.31578 0.29157 0.68598 0.0
H1315 H 0.32099 0.32851 0.68365 0.0
H1316 H 0.36908 0.25921 0.69066 0.0
H1317 H 0.30506 0.24766 0.66456 0.0
H1318 H 0.32155 0.26957 0.66403 0.0
H1319 H 0.30232 0.26788 0.67335 0.0
C1320 C 0.36628 0.31126 0.6748 0.0
C1321 C 0.3512 0.32543 0.67741 0.0
C1322 C 0.36322 0.2905 0.67601 0.0
C1323 C 0.34502 0.28301 0.67993 0.0
C1324 C 0.32985 0.29696 0.68276 0.0
H1325 H 0.32179 0.14986 0.68651 0.0
H1326 H 0.31792 0.18702 0.68875 0.0
C1327 C 0.33291 0.31807 0.68152 0.0
C1328 C 0.34289 0.26056 0.68122 0.0
H1329 H 0.31806 0.2186 0.67248 0.0
C1330 C 0.35766 0.25037 0.68683 0.0
C1331 C 0.32841 0.24894 0.67597 0.0
C1332 C 0.31349 0.25892 0.66905 0.0
C1333 C 0.35858 0.22905 0.68725 0.0
C1334 C 0.34394 0.21738 0.68212 0.0
C1335 C 0.32885 0.22752 0.67667 0.0
C1336 C 0.34588 0.19485 0.68121 0.0
C1337 C 0.37568 0.21919 0.69292 0.0
C1338 C 0.36264 0.18697 0.67621 0.0
C1339 C 0.3649 0.16611 0.67498 0.0
C1340 C 0.35031 0.15216 0.67858 0.0
C1341 C 0.33335 0.16 0.68365 0.0
C1342 C 0.33112 0.18123 0.6849 0.0
H1343 H 0.38286 0.2299 0.69817 0.0
H1344 H 0.37014 0.20566 0.69703 0.0
H1345 H 0.38761 0.21411 0.68771 0.0
H1346 H 0.37401 0.19704 0.6731 0.0
H1347 H 0.37826 0.16104 0.67104 0.0
H1348 H 0.16083 0.65377 0.16836 0.0
H1349 H 0.16349 0.69111 0.16866 0.0
H1350 H 0.11025 0.69394 0.1871 0.0
H1351 H 0.10785 0.65688 0.18693 0.0
H1352 H 0.13388 0.71905 0.16183 0.0
H1353 H 0.14838 0.73167 0.20161 0.0
H1354 H 0.15283 0.70746 0.19579 0.0
H1355 H 0.12746 0.71508 0.19899 0.0
C1356 C 0.15038 0.66235 0.17289 0.0
C1357 C 0.13467 0.65232 0.17799 0.0
C1358 C 0.15162 0.68372 0.17288 0.0
C1359 C 0.13723 0.69547 0.17801 0.0
C1360 C 0.12188 0.68536 0.18331 0.0
H1361 H 0.10311 0.82163 0.18361 0.0
H1362 H 0.10733 0.78469 0.18465 0.0
C1363 C 0.12064 0.6641 0.1833 0.0
C1364 C 0.13765 0.71822 0.17757 0.0
H1365 H 0.13993 0.76057 0.19206 0.0
C1366 C 0.1355 0.72814 0.16842 0.0
C1367 C 0.13941 0.73017 0.18618 0.0
C1368 C 0.14231 0.72062 0.1962 0.0
C1369 C 0.13478 0.74955 0.16769 0.0
C1370 C 0.13662 0.7614 0.17633 0.0
C1371 C 0.13874 0.7515 0.18544 0.0
C1372 C 0.1352 0.78405 0.1762 0.0
C1373 C 0.13121 0.75935 0.15778 0.0
C1374 C 0.15 0.79616 0.17151 0.0
C1375 C 0.14779 0.81741 0.17109 0.0
C1376 C 0.1307 0.82678 0.17532 0.0
C1377 C 0.11649 0.81475 0.18038 0.0
C1378 C 0.1188 0.79364 0.18089 0.0
H1379 H 0.12744 0.74802 0.15202 0.0
H1380 H 0.11864 0.77056 0.15826 0.0
H1381 H 0.14508 0.76767 0.15544 0.0
H1382 H 0.163 0.78916 0.16801 0.0
H1383 H 0.15881 0.82637 0.16704 0.0
H1384 H 0.14124 0.15703 0.79481 0.0
H1385 H 0.14581 0.1939 0.7933 0.0
H1386 H 0.12702 0.19113 0.76296 0.0
H1387 H 0.12241 0.15409 0.7645 0.0
H1388 H 0.16876 0.21915 0.78137 0.0
H1389 H 0.0864 0.23165 0.77468 0.0
H1390 H 0.09631 0.20833 0.7798 0.0
H1391 H 0.09821 0.2132 0.76683 0.0
C1392 C 0.13851 0.16427 0.78777 0.0
C1393 C 0.13153 0.15278 0.77977 0.0
C1394 C 0.14102 0.18535 0.78692 0.0
C1395 C 0.13628 0.19546 0.77809 0.0
C1396 C 0.13033 0.18379 0.76992 0.0
H1397 H 0.12789 0.32646 0.76469 0.0
H1398 H 0.13216 0.2894 0.76284 0.0
C1399 C 0.12796 0.16261 0.77075 0.0
C1400 C 0.13702 0.21817 0.77761 0.0
H1401 H 0.1076 0.26045 0.77395 0.0
C1402 C 0.15541 0.22815 0.77969 0.0
C1403 C 0.11951 0.23004 0.7756 0.0
C1404 C 0.09891 0.22036 0.77419 0.0
C1405 C 0.15684 0.24953 0.77967 0.0
C1406 C 0.13944 0.26135 0.77749 0.0
C1407 C 0.12105 0.25141 0.7754 0.0
C1408 C 0.13954 0.28401 0.77815 0.0
C1409 C 0.17702 0.25934 0.78194 0.0
C1410 C 0.14266 0.29336 0.78729 0.0
C1411 C 0.14025 0.31434 0.78832 0.0
C1412 C 0.13471 0.32652 0.78026 0.0
C1413 C 0.13254 0.31744 0.77098 0.0
C1414 C 0.13478 0.29628 0.76995 0.0
H1415 H 0.18978 0.24834 0.78144 0.0
H1416 H 0.18 0.27221 0.77683 0.0
H1417 H 0.17672 0.26543 0.78954 0.0
H1418 H 0.14592 0.28429 0.79376 0.0
H1419 H 0.14173 0.32096 0.79557 0.0
H1420 H 0.31918 0.65032 0.27171 0.0
H1421 H 0.31332 0.68723 0.26955 0.0
H1422 H 0.37336 0.69935 0.28071 0.0
H1423 H 0.37948 0.66338 0.28258 0.0
H1424 H 0.31566 0.71939 0.28438 0.0
H1425 H 0.37408 0.73182 0.2555 0.0
H1426 H 0.36346 0.70701 0.25803 0.0
H1427 H 0.38295 0.71736 0.26582 0.0
C1428 C 0.33118 0.6609 0.27356 0.0
C1429 C 0.34981 0.65374 0.27737 0.0
C1430 C 0.32778 0.68199 0.27238 0.0
C1431 C 0.34303 0.69616 0.27485 0.0
C1432 C 0.36149 0.68887 0.27855 0.0
H1433 H 0.37701 0.81639 0.28503 0.0
H1434 H 0.37045 0.78049 0.28315 0.0
C1435 C 0.36489 0.66811 0.2797 0.0
C1436 C 0.34012 0.71865 0.27386 0.0
H1437 H 0.36327 0.76102 0.26442 0.0
C1438 C 0.32565 0.72851 0.27981 0.0
C1439 C 0.35347 0.73065 0.26806 0.0
C1440 C 0.36927 0.72118 0.26143 0.0
C1441 C 0.32491 0.74995 0.28045 0.0
C1442 C 0.33864 0.76184 0.27483 0.0
C1443 C 0.35253 0.75196 0.26863 0.0
C1444 C 0.34113 0.78421 0.27627 0.0
C1445 C 0.31049 0.75975 0.28764 0.0
C1446 C 0.32678 0.79861 0.27296 0.0
C1447 C 0.33055 0.81966 0.274 0.0
C1448 C 0.3487 0.82657 0.2784 0.0
C1449 C 0.36281 0.81192 0.28164 0.0
C1450 C 0.3591 0.7912 0.28059 0.0
H1451 H 0.30154 0.74837 0.29188 0.0
H1452 H 0.31913 0.76934 0.29288 0.0
H1453 H 0.29982 0.76984 0.28362 0.0
H1454 H 0.31287 0.79359 0.26948 0.0
H1455 H 0.31929 0.83043 0.27142 0.0
H1456 H 0.41039 0.13374 0.52749 0.0
H1457 H 0.44678 0.12863 0.52543 0.0
H1458 H 0.43819 0.06373 0.52674 0.0
H1459 H 0.40123 0.06881 0.52874 0.0
H1460 H 0.46925 0.10845 0.54051 0.0
H1461 H 0.4806 0.07318 0.50373 0.0
H1462 H 0.45876 0.08874 0.50654 0.0
H1463 H 0.46038 0.06341 0.51135 0.0
C1464 C 0.41612 0.11832 0.5272 0.0
C1465 C 0.40291 0.10171 0.52847 0.0
C1466 C 0.43699 0.11543 0.52599 0.0
C1467 C 0.44534 0.09584 0.526 0.0
C1468 C 0.43212 0.07902 0.52665 0.0
H1469 H 0.57739 0.0686 0.53052 0.0
H1470 H 0.54024 0.06377 0.52918 0.0
C1471 C 0.411 0.08193 0.5278 0.0
C1472 C 0.46791 0.0936 0.52644 0.0
H1473 H 0.50984 0.07888 0.51334 0.0
C1474 C 0.4781 0.10179 0.53461 0.0
C1475 C 0.47949 0.08508 0.5187 0.0
C1476 C 0.4694 0.07717 0.50952 0.0
C1477 C 0.49943 0.10201 0.53519 0.0
C1478 C 0.51104 0.09368 0.52741 0.0
C1479 C 0.50092 0.08498 0.51935 0.0
C1480 C 0.53361 0.09574 0.52717 0.0
C1481 C 0.50942 0.11144 0.54407 0.0
C1482 C 0.54224 0.11509 0.52606 0.0
C1483 C 0.56321 0.11784 0.52683 0.0
C1484 C 0.5762 0.10129 0.52863 0.0
C1485 C 0.56777 0.08163 0.52908 0.0
C1486 C 0.54657 0.07889 0.52839 0.0
H1487 H 0.49841 0.11423 0.55012 0.0
H1488 H 0.52177 0.10147 0.54686 0.0
H1489 H 0.51632 0.12622 0.54197 0.0
H1490 H 0.53263 0.12825 0.52492 0.0
H1491 H 0.56925 0.13313 0.52634 0.0
H1492 H 0.89971 0.902 0.01572 0.0
H1493 H 0.93642 0.90778 0.01298 0.0
H1494 H 0.95028 0.8641 0.03569 0.0
H1495 H 0.91446 0.85808 0.03836 0.0
H1496 H 0.96905 0.91919 0.02755 0.0
H1497 H 0.98177 0.84235 0.01188 0.0
H1498 H 0.9571 0.85444 0.01179 0.0
H1499 H 0.96665 0.84289 0.02286 0.0
C1500 C 0.91062 0.89365 0.02011 0.0
C1501 C 0.90397 0.87936 0.02719 0.0
C1502 C 0.93159 0.89698 0.01854 0.0
C1503 C 0.94615 0.88604 0.024 0.0
C1504 C 0.93943 0.87237 0.03122 0.0
H1505 H 0.06477 0.86438 0.03971 0.0
H1506 H 0.02893 0.8704 0.03718 0.0
C1507 C 0.91877 0.869 0.03275 0.0
C1508 C 0.96847 0.88834 0.02235 0.0
H1509 H 0.00998 0.86005 0.01761 0.0
C1510 C 0.97821 0.90649 0.0251 0.0
C1511 C 0.98048 0.87161 0.01933 0.0
C1512 C 0.97101 0.85175 0.01622 0.0
C1513 C -0.00129 0.90791 0.02542 0.0
C1514 C 0.01062 0.89095 0.02269 0.0
C1515 C 0.00085 0.87316 0.01954 0.0
C1516 C 0.03291 0.88991 0.02452 0.0
C1517 C 0.00854 0.92694 0.02931 0.0
C1518 C 0.04733 0.89926 0.01831 0.0
C1519 C 0.06831 0.89573 0.0197 0.0
C1520 C 0.07501 0.88268 0.0273 0.0
C1521 C 0.06037 0.8742 0.03367 0.0
C1522 C 0.03973 0.8777 0.03228 0.0
H1523 H -0.00281 0.93869 0.03135 0.0
H1524 H 0.01781 0.92318 0.0359 0.0
H1525 H 0.01897 0.93335 0.02368 0.0
H1526 H 0.04236 0.90871 0.01223 0.0
H1527 H 0.07913 0.90262 0.0147 0.0
H1528 H 0.40377 0.91224 0.4211 0.0
H1529 H 0.44087 0.91681 0.42257 0.0
H1530 H 0.44574 0.8574 0.43585 0.0
H1531 H 0.40905 0.85262 0.4341 0.0
H1532 H 0.46974 0.91439 0.43846 0.0
H1533 H 0.48218 0.85215 0.41158 0.0
H1534 H 0.45826 0.86542 0.41263 0.0
H1535 H 0.465 0.84614 0.42143 0.0
C1536 C 0.41278 0.90042 0.42453 0.0
C1537 C 0.40364 0.88203 0.42745 0.0
C1538 C 0.43396 0.90296 0.42532 0.0
C1539 C 0.44621 0.88719 0.42906 0.0
C1540 C 0.43675 0.86953 0.43267 0.0
H1541 H 0.57216 0.85624 0.43632 0.0
H1542 H 0.53537 0.86077 0.43785 0.0
C1543 C 0.41576 0.8669 0.43177 0.0
C1544 C 0.46888 0.88855 0.42882 0.0
H1545 H 0.51111 0.86446 0.41994 0.0
C1546 C 0.4788 0.90362 0.43433 0.0
C1547 C 0.48075 0.87451 0.4234 0.0
C1548 C 0.47109 0.85873 0.41685 0.0
C1549 C 0.50021 0.90456 0.43485 0.0
C1550 C 0.51201 0.89019 0.42965 0.0
C1551 C 0.50208 0.8754 0.42398 0.0
C1552 C 0.53467 0.88961 0.43019 0.0
C1553 C 0.51013 0.92038 0.44125 0.0
C1554 C 0.54672 0.90469 0.42567 0.0
C1555 C 0.56792 0.90221 0.4249 0.0
C1556 C 0.5773 0.88456 0.42858 0.0
C1557 C 0.56534 0.87011 0.43355 0.0
C1558 C 0.54429 0.87261 0.43436 0.0
H1559 H 0.49885 0.92905 0.44564 0.0
H1560 H 0.52113 0.91305 0.44633 0.0
H1561 H 0.51872 0.93124 0.43656 0.0
H1562 H 0.53964 0.91779 0.42227 0.0
H1563 H 0.57672 0.91333 0.42083 0.0
H1564 H 0.06745 0.13437 0.92765 0.0
H1565 H 0.0312 0.12862 0.92942 0.0
H1566 H 0.04171 0.06445 0.93329 0.0
H1567 H 0.07865 0.07013 0.93149 0.0
H1568 H 0.0101 0.10252 0.91585 0.0
H1569 H -0.00175 0.08145 0.95519 0.0
H1570 H 0.01976 0.09637 0.95114 0.0
H1571 H 0.01898 0.06968 0.94866 0.0
C1572 C 0.06222 0.11899 0.92898 0.0
C1573 C 0.07603 0.10269 0.92924 0.0
C1574 C 0.0414 0.11576 0.93002 0.0
C1575 C 0.03365 0.09614 0.93142 0.0
C1576 C 0.04735 0.07977 0.93226 0.0
H1577 H 0.90213 0.06863 0.9294 0.0
H1578 H 0.93922 0.0635 0.93092 0.0
C1579 C 0.06845 0.08303 0.93122 0.0
C1580 C 0.0112 0.09316 0.93103 0.0
H1581 H 0.97004 0.08379 0.94517 0.0
C1582 C 0.00116 0.09811 0.92222 0.0
C1583 C -0.00046 0.08774 0.9394 0.0
C1584 C 0.00952 0.08359 0.94918 0.0
C1585 C 0.98077 0.09821 0.92159 0.0
C1586 C 0.96907 0.09298 0.92997 0.0
C1587 C 0.97905 0.08743 0.93872 0.0
C1588 C 0.94659 0.09552 0.93001 0.0
C1589 C 0.9709 0.10443 0.912 0.0
C1590 C 0.93846 0.11515 0.92939 0.0
C1591 C 0.91757 0.11806 0.92848 0.0
C1592 C 0.90416 0.10145 0.92827 0.0
C1593 C 0.9121 0.08173 0.92952 0.0
C1594 C 0.93325 0.07879 0.93034 0.0
H1595 H 0.98191 0.10469 0.9058 0.0
H1596 H 0.95826 0.09392 0.91017 0.0
H1597 H 0.96442 0.11992 0.91274 0.0
H1598 H 0.94839 0.12829 0.92934 0.0
H1599 H 0.91192 0.13345 0.92772 0.0
H1600 H 0.12883 0.42708 0.95176 0.0
H1601 H 0.12498 0.4529 0.96452 0.0
H1602 H 0.18994 0.46196 0.96477 0.0
H1603 H 0.19392 0.43582 0.95204 0.0
H1604 H 0.1436 0.4532 -0.02108 0.0
H1605 H 0.16424 0.51939 0.95968 0.0
H1606 H 0.15544 0.49535 0.95491 0.0
H1607 H 0.18132 0.49817 0.95884 0.0
C1608 C 0.14225 0.43472 0.95451 0.0
C1609 C 0.16163 0.42995 0.95086 0.0
C1610 C 0.14002 0.4493 0.96179 0.0
C1611 C 0.15713 0.45944 0.96536 0.0
C1612 C 0.17658 0.45439 0.9619 0.0
H1613 H 0.1933 0.54554 0.00245 0.0
H1614 H 0.18941 0.51885 -0.01001 0.0
C1615 C 0.17886 0.43953 0.95471 0.0
C1616 C 0.15475 0.47523 0.97281 0.0
H1617 H 0.16455 0.52518 0.977 0.0
C1618 C 0.14783 0.46887 -0.02251 0.0
C1619 C 0.15986 0.49562 0.97073 0.0
C1620 C 0.16541 0.50262 0.96047 0.0
C1621 C 0.14773 0.48293 -0.01482 0.0
C1622 C 0.1543 0.50297 -0.01677 0.0
C1623 C 0.16 0.50958 0.97842 0.0
C1624 C 0.15659 0.5179 -0.00893 0.0
C1625 C 0.14161 0.47615 -0.0046 0.0
C1626 C 0.13939 0.52594 -0.00435 0.0
C1627 C 0.14158 0.54081 0.00278 0.0
C1628 C 0.16099 0.548 0.00529 0.0
C1629 C 0.17824 0.54008 0.00063 0.0
C1630 C 0.17603 0.52494 -0.00642 0.0
H1631 H 0.13878 0.45952 -0.00418 0.0
H1632 H 0.15365 0.48018 0.00077 0.0
H1633 H 0.1275 0.48412 -0.00236 0.0
H1634 H 0.12429 0.52096 -0.00641 0.0
H1635 H 0.12803 0.54705 0.00614 0.0
H1636 H 0.78308 0.88669 0.18983 0.0
H1637 H 0.75878 0.88225 0.20322 0.0
H1638 H 0.78583 0.93258 0.21866 0.0
H1639 H 0.81023 0.93735 0.20523 0.0
H1640 H 0.76493 0.87627 0.22448 0.0
H1641 H 0.72512 0.94764 0.2138 0.0
H1642 H 0.74215 0.93441 0.20562 0.0
H1643 H 0.75214 0.94995 0.21531 0.0
C1644 C 0.78382 0.8969 0.19605 0.0
C1645 C 0.79836 0.91253 0.19645 0.0
C1646 C 0.77011 0.89415 0.20371 0.0
C1647 C 0.77069 0.90706 0.21184 0.0
C1648 C 0.78528 0.92255 0.21236 0.0
H1649 H 0.70023 0.93295 0.26212 0.0
H1650 H 0.72744 0.92705 0.25005 0.0
C1651 C 0.79898 0.92539 0.20467 0.0
C1652 C 0.75478 0.90559 0.21931 0.0
H1653 H 0.71489 0.93199 0.22865 0.0
C1654 C 0.75391 0.88836 0.22543 0.0
C1655 C 0.74024 0.9212 0.22023 0.0
C1656 C 0.73975 0.93927 0.21335 0.0
C1657 C 0.73922 0.8869 0.23288 0.0
C1658 C 0.72549 0.90314 0.2341 0.0
C1659 C 0.72586 0.91984 0.22771 0.0
C1660 C 0.71083 0.90387 0.24214 0.0
C1661 C 0.73866 0.86849 0.23952 0.0
C1662 C 0.69269 0.89289 0.24147 0.0
C1663 C 0.67719 0.89649 0.2482 0.0
C1664 C 0.67982 0.91109 0.25557 0.0
C1665 C 0.69805 0.92184 0.25635 0.0
C1666 C 0.71354 0.91825 0.24961 0.0
H1667 H 0.7511 0.85761 0.23787 0.0
H1668 H 0.73986 0.87327 0.24732 0.0
H1669 H 0.72389 0.86054 0.23867 0.0
H1670 H 0.69031 0.88209 0.23559 0.0
H1671 H 0.66314 0.88796 0.24767 0.0
H1672 H 0.32275 0.40736 0.49514 0.0
H1673 H 0.32856 0.43305 0.48238 0.0
H1674 H 0.31718 0.48043 0.50357 0.0
H1675 H 0.31248 0.45464 0.51649 0.0
H1676 H 0.29958 0.45916 0.47662 0.0
H1677 H 0.36678 0.50275 0.48949 0.0
H1678 H 0.3612 0.47726 0.49369 0.0
H1679 H 0.3478 0.49856 0.49877 0.0
C1680 C 0.32154 0.42329 0.49703 0.0
C1681 C 0.31695 0.42926 0.50666 0.0
C1682 C 0.32511 0.43788 0.48981 0.0
C1683 C 0.32369 0.45858 0.49211 0.0
C1684 C 0.31899 0.46453 0.50175 0.0
H1685 H 0.30316 0.5681 0.45963 0.0
H1686 H 0.3077 0.54166 0.47219 0.0
C1687 C 0.31594 0.4499 0.50905 0.0
C1688 C 0.32441 0.47374 0.48415 0.0
H1689 H 0.3465 0.51822 0.4769 0.0
C1690 C 0.31005 0.47191 0.47659 0.0
C1691 C 0.33806 0.49033 0.48423 0.0
C1692 C 0.35447 0.49231 0.49193 0.0
C1693 C 0.30839 0.48668 0.46925 0.0
C1694 C 0.32165 0.5035 0.46945 0.0
C1695 C 0.33635 0.50522 0.47687 0.0
C1696 C 0.31998 0.51961 0.46204 0.0
C1697 C 0.29199 0.48465 0.46155 0.0
C1698 C 0.32534 0.51568 0.45226 0.0
C1699 C 0.32268 0.5306 0.4451 0.0
C1700 C 0.31458 0.54957 0.44766 0.0
C1701 C 0.30907 0.55342 0.45746 0.0
C1702 C 0.31193 0.53853 0.46464 0.0
H1703 H 0.28109 0.47225 0.4633 0.0
H1704 H 0.28342 0.49912 0.46081 0.0
H1705 H 0.29904 0.48131 0.45432 0.0
H1706 H 0.33156 0.50107 0.45018 0.0
H1707 H 0.32714 0.5274 0.43759 0.0
H1708 H 0.81568 0.04683 0.7485 0.0
H1709 H 0.79137 0.05074 0.73504 0.0
H1710 H 0.75607 0.09222 0.75263 0.0
H1711 H 0.78053 0.08878 0.76605 0.0
H1712 H 0.75058 0.0402 0.73781 0.0
H1713 H 0.75731 0.1209 0.72558 0.0
H1714 H 0.77807 0.10739 0.73135 0.0
H1715 H 0.75714 0.11622 0.73862 0.0
C1716 C 0.80274 0.05678 0.7495 0.0
C1717 C 0.79984 0.06737 0.75833 0.0
C1718 C 0.78908 0.05922 0.74176 0.0
C1719 C 0.77227 0.07211 0.7428 0.0
C1720 C 0.76932 0.0827 0.75161 0.0
H1721 H 0.65992 0.08184 0.71006 0.0
H1722 H 0.68678 0.08484 0.72252 0.0
C1723 C 0.78308 0.08043 0.75931 0.0
C1724 C 0.75629 0.07203 0.73528 0.0
H1725 H 0.73016 0.10164 0.719 0.0
C1726 C 0.74623 0.05359 0.73364 0.0
C1727 C 0.75054 0.08968 0.73002 0.0
C1728 C 0.76135 0.1097 0.73139 0.0
C1729 C 0.73048 0.05222 0.72682 0.0
C1730 C 0.72491 0.06971 0.72146 0.0
C1731 C 0.73469 0.08831 0.72316 0.0
C1732 C 0.70913 0.06866 0.71389 0.0
C1733 C 0.71969 0.03218 0.72547 0.0
C1734 C 0.71309 0.05862 0.705 0.0
C1735 C 0.6979 0.057 0.69792 0.0
C1736 C 0.67869 0.06523 0.69976 0.0
C1737 C 0.67471 0.07522 0.70864 0.0
C1738 C 0.68996 0.07707 0.71567 0.0
H1739 H 0.72397 0.02087 0.73119 0.0
H1740 H 0.70297 0.03443 0.7257 0.0
H1741 H 0.7236 0.02582 0.71816 0.0
H1742 H 0.72791 0.0521 0.70358 0.0
H1743 H 0.7011 0.04939 0.69104 0.0
H1744 H 0.84126 0.53215 0.01224 0.0
H1745 H 0.84666 0.50774 -0.00091 0.0
H1746 H 0.7993 0.53621 -0.01799 0.0
H1747 H 0.79397 0.56111 -0.00489 0.0
H1748 H 0.8156 0.48209 -0.00682 0.0
H1749 H 0.84596 0.5278 0.9664 0.0
H1750 H 0.84826 0.53602 0.97902 0.0
H1751 H 0.82456 0.5388 0.97264 0.0
C1752 C 0.83204 0.53332 0.00567 0.0
C1753 C 0.81711 0.54843 0.00471 0.0
C1754 C 0.83531 0.51951 -0.00186 0.0
C1755 C 0.8237 0.52055 -0.01045 0.0
C1756 C 0.80876 0.53559 -0.01148 0.0
H1757 H 0.79196 0.44654 0.94619 0.0
H1758 H 0.79591 0.47232 0.95911 0.0
C1759 C 0.80546 0.5495 -0.00393 0.0
C1760 C 0.82514 0.5041 -0.01765 0.0
H1761 H 0.83366 0.49456 0.96289 0.0
C1762 C 0.81973 0.48456 -0.01446 0.0
C1763 C 0.83107 0.50822 0.97721 0.0
C1764 C 0.83798 0.5288 0.97359 0.0
C1765 C 0.81863 0.46841 -0.02106 0.0
C1766 C 0.82367 0.4727 0.97371 0.0
C1767 C 0.82994 0.49205 0.97058 0.0
C1768 C 0.82096 0.4569 0.96627 0.0
C1769 C 0.81162 0.44788 -0.0174 0.0
C1770 C 0.83371 0.43988 0.96616 0.0
C1771 C 0.83144 0.42532 0.95885 0.0
C1772 C 0.81648 0.42775 0.95162 0.0
C1773 C 0.80351 0.44455 0.95179 0.0
C1774 C 0.80582 0.45917 0.95909 0.0
H1775 H 0.80605 0.44843 -0.00969 0.0
H1776 H 0.79926 0.44197 -0.02216 0.0
H1777 H 0.82444 0.43697 -0.01773 0.0
H1778 H 0.84558 0.43808 0.97161 0.0
H1779 H 0.84155 0.41233 0.95874 0.0
H1780 H 0.16011 0.08532 0.7478 0.0
H1781 H 0.18636 0.08993 0.73511 0.0
H1782 H 0.22846 0.05519 0.75274 0.0
H1783 H 0.20222 0.05074 0.76548 0.0
H1784 H 0.22747 0.10729 0.73747 0.0
H1785 H 0.2262 0.02676 0.72518 0.0
H1786 H 0.2051 0.03857 0.73145 0.0
H1787 H 0.227 0.03043 0.73827 0.0
C1788 C 0.17498 0.07861 0.74888 0.0
C1789 C 0.17936 0.06757 0.75746 0.0
C1790 C 0.1899 0.08135 0.74171 0.0
C1791 C 0.20918 0.07278 0.74302 0.0
C1792 C 0.21355 0.06175 0.75162 0.0
H1793 H 0.31679 0.05399 0.7105 0.0
H1794 H 0.2941 0.06355 0.72402 0.0
C1795 C 0.19868 0.05919 0.75885 0.0
C1796 C 0.22471 0.07498 0.7353 0.0
H1797 H 0.25316 0.04732 0.7193 0.0
C1798 C 0.23309 0.09426 0.73344 0.0
C1799 C 0.23156 0.05795 0.72997 0.0
C1800 C 0.22192 0.03726 0.73121 0.0
C1801 C 0.24901 0.09673 0.72666 0.0
C1802 C 0.25656 0.07949 0.72175 0.0
C1803 C 0.24759 0.06039 0.72332 0.0
C1804 C 0.27353 0.08059 0.71472 0.0
C1805 C 0.2581 0.11748 0.72496 0.0
C1806 C 0.27016 0.08838 0.70525 0.0
C1807 C 0.28331 0.08328 0.69761 0.0
C1808 C 0.29953 0.07008 0.69939 0.0
C1809 C 0.30433 0.06432 0.70905 0.0
C1810 C 0.29136 0.06967 0.71673 0.0
H1811 H 0.25172 0.12904 0.73003 0.0
H1812 H 0.27484 0.11686 0.72593 0.0
H1813 H 0.25508 0.1224 0.71728 0.0
H1814 H 0.25633 0.09659 0.70356 0.0
H1815 H 0.27938 0.08761 0.69015 0.0
H1816 H 0.63833 0.4469 0.51472 0.0
H1817 H 0.63299 0.47148 0.50156 0.0
H1818 H 0.68003 0.44291 0.48435 0.0
H1819 H 0.68527 0.4178 0.49746 0.0
H1820 H 0.66423 0.49691 0.49559 0.0
H1821 H 0.63366 0.4527 0.46412 0.0
H1822 H 0.63154 0.44416 0.47674 0.0
H1823 H 0.65514 0.44148 0.47023 0.0
C1824 C 0.64751 0.44575 0.50812 0.0
C1825 C 0.66232 0.43054 0.50713 0.0
C1826 C 0.64426 0.45965 0.50059 0.0
C1827 C 0.65579 0.45863 0.49196 0.0
C1828 C 0.67063 0.44351 0.4909 0.0
H1829 H 0.68842 0.53373 0.44389 0.0
H1830 H 0.68396 0.50768 0.45674 0.0
C1831 C 0.67389 0.42949 0.49845 0.0
C1832 C 0.65442 0.47521 0.48477 0.0
H1833 H 0.64612 0.48596 0.4606 0.0
C1834 C 0.65999 0.49464 0.48797 0.0
C1835 C 0.64878 0.47197 0.47489 0.0
C1836 C 0.64175 0.4515 0.47127 0.0
C1837 C 0.6611 0.51092 0.48139 0.0
C1838 C 0.65635 0.50752 0.47141 0.0
C1839 C 0.64992 0.48828 0.46828 0.0
C1840 C 0.65925 0.52342 0.46398 0.0
C1841 C 0.66831 0.53132 0.48506 0.0
C1842 C 0.64687 0.54071 0.46395 0.0
C1843 C 0.64952 0.5555 0.45672 0.0
C1844 C 0.66447 0.55299 0.44948 0.0
C1845 C 0.67697 0.53584 0.44953 0.0
C1846 C 0.67434 0.52104 0.45678 0.0
H1847 H 0.67394 0.53056 0.49275 0.0
H1848 H 0.68068 0.53723 0.48027 0.0
H1849 H 0.65558 0.54234 0.48478 0.0
H1850 H 0.635 0.54257 0.46941 0.0
H1851 H 0.63965 0.56868 0.45665 0.0
H1852 H 0.20081 0.89624 0.18745 0.0
H1853 H 0.22594 0.89049 0.20035 0.0
H1854 H 0.18786 0.92204 0.22114 0.0
H1855 H 0.16244 0.92773 0.20826 0.0
H1856 H 0.24337 0.92429 0.20972 0.0
H1857 H 0.20826 0.87076 0.2366 0.0
H1858 H 0.20038 0.87223 0.22388 0.0
H1859 H 0.19234 0.89128 0.23245 0.0
C1860 C 0.19777 0.9019 0.19478 0.0
C1861 C 0.17989 0.91264 0.19686 0.0
C1862 C 0.21197 0.89837 0.20214 0.0
C1863 C 0.20844 0.90547 0.21168 0.0
C1864 C 0.19052 0.91605 0.21384 0.0
H1865 H 0.27737 0.92866 0.26335 0.0
H1866 H 0.25165 0.92493 0.25037 0.0
C1867 C 0.1763 0.91968 0.20645 0.0
C1868 C 0.22499 0.90481 0.21887 0.0
H1869 H 0.2383 0.88791 0.24166 0.0
C1870 C 0.24244 0.91613 0.21666 0.0
C1871 C 0.22345 0.89416 0.22787 0.0
C1872 C 0.20518 0.88126 0.23036 0.0
C1873 C 0.25828 0.91778 0.22341 0.0
C1874 C 0.25658 0.90761 0.23254 0.0
C1875 C 0.23937 0.89574 0.23465 0.0
C1876 C 0.27206 0.90999 0.24019 0.0
C1877 C 0.27625 0.93112 0.22089 0.0
C1878 C 0.29188 0.90296 0.23863 0.0
C1879 C 0.30654 0.90557 0.24588 0.0
C1880 C 0.30133 0.91477 0.25482 0.0
C1881 C 0.28153 0.92168 0.25643 0.0
C1882 C 0.26694 0.91942 0.2491 0.0
H1883 H 0.27347 0.94057 0.21424 0.0
H1884 H 0.27991 0.94132 0.22713 0.0
H1885 H 0.28974 0.92147 0.21945 0.0
H1886 H 0.29593 0.89531 0.23187 0.0
H1887 H 0.32178 0.89986 0.24466 0.0
H1888 H 0.64091 0.02954 0.5153 0.0
H1889 H 0.63625 0.00481 0.50215 0.0
H1890 H 0.67775 0.03862 0.48372 0.0
H1891 H 0.68284 0.06331 0.49692 0.0
H1892 H 0.62346 0.00958 0.48184 0.0
H1893 H 0.70248 0.982 0.48649 0.0
H1894 H 0.6898 -0.00378 0.49569 0.0
H1895 H 0.70038 0.00816 0.48494 0.0
C1896 C 0.64914 0.03164 0.50846 0.0
C1897 C 0.66243 0.04814 0.50714 0.0
C1898 C 0.64626 0.01767 0.50095 0.0
C1899 C 0.65667 0.02001 0.49205 0.0
C1900 C 0.66974 0.03661 0.49062 0.0
H1901 H 0.67604 0.95332 0.43995 0.0
H1902 H 0.66946 0.98018 0.45206 0.0
C1903 C 0.67278 0.05052 0.49818 0.0
C1904 C 0.65528 0.00411 0.48457 0.0
H1905 H 0.68399 0.9695 0.47295 0.0
C1906 C 0.63662 0.00056 0.47986 0.0
C1907 C 0.67242 -0.00785 0.48229 0.0
C1908 C 0.69237 -0.00559 0.48767 0.0
C1909 C 0.63495 0.98658 0.47253 0.0
C1910 C 0.65245 0.97544 0.46994 0.0
C1911 C 0.67079 0.97851 0.4749 0.0
C1912 C 0.65265 0.96057 0.46198 0.0
C1913 C 0.61487 0.98307 0.46746 0.0
C1914 C 0.6455 0.94086 0.46372 0.0
C1915 C 0.64979 0.92553 0.45701 0.0
C1916 C 0.66105 0.92992 0.4485 0.0
C1917 C 0.66757 0.94977 0.44657 0.0
C1918 C 0.66354 0.96504 0.45336 0.0
H1919 H 0.603 -0.00703 0.46998 0.0
H1920 H 0.61677 0.98467 0.45938 0.0
H1921 H 0.60962 0.96732 0.46895 0.0
H1922 H 0.6374 0.9372 0.47045 0.0
H1923 H 0.64431 0.91027 0.45844 0.0
H1924 H 0.17524 0.38014 0.75693 0.0
H1925 H 0.20148 0.37573 0.74436 0.0
H1926 H 0.21176 0.44051 0.74393 0.0
H1927 H 0.18521 0.44505 0.75648 0.0
H1928 H 0.20301 0.39482 0.72515 0.0
H1929 H 0.26866 0.41385 0.7491 0.0
H1930 H 0.24445 0.40537 0.75389 0.0
H1931 H 0.2477 0.43126 0.74997 0.0
C1932 C 0.18323 0.3934 0.75418 0.0
C1933 C 0.17865 0.41291 0.7577 0.0
C1934 C 0.19806 0.39085 0.74702 0.0
C1935 C 0.20864 0.40775 0.74344 0.0
C1936 C 0.20384 0.42732 0.74681 0.0
H1937 H 0.29572 0.44407 0.70144 0.0
H1938 H 0.26912 0.44028 0.71404 0.0
C1939 C 0.18873 0.42992 0.75387 0.0
C1940 C 0.22448 0.40511 0.73602 0.0
H1941 H 0.2745 0.41459 0.73176 0.0
C1942 C 0.21872 0.39885 0.72657 0.0
C1943 C 0.24489 0.41 0.73808 0.0
C1944 C 0.25191 0.4153 0.74833 0.0
C1945 C 0.23279 0.39882 0.71885 0.0
C1946 C 0.25286 0.40521 0.72079 0.0
C1947 C 0.25887 0.4102 0.73036 0.0
C1948 C 0.26782 0.40748 0.71293 0.0
C1949 C 0.22596 0.39301 0.70863 0.0
C1950 C 0.27566 0.39026 0.70832 0.0
C1951 C 0.29046 0.3924 0.70113 0.0
C1952 C 0.29777 0.41176 0.69856 0.0
C1953 C 0.29013 0.42904 0.70329 0.0
C1954 C 0.27504 0.42689 0.71042 0.0
H1955 H 0.20931 0.39036 0.70823 0.0
H1956 H 0.23014 0.40512 0.70328 0.0
H1957 H 0.23379 0.37887 0.70633 0.0
H1958 H 0.27054 0.37519 0.7104 0.0
H1959 H 0.29652 0.37882 0.69773 0.0
H1960 H 0.78733 0.92344 -0.00149 0.0
H1961 H 0.79057 0.94784 -0.01505 0.0
H1962 H 0.85012 0.96489 -0.00473 0.0
H1963 H 0.8472 0.94058 0.00875 0.0
H1964 H 0.79721 0.98997 -0.01036 0.0
H1965 H 0.85809 0.96011 0.96971 0.0
H1966 H 0.84253 0.9437 0.97731 0.0
H1967 H 0.86175 0.9581 -0.02198 0.0
C1968 C 0.80113 0.93233 -0.00214 0.0
C1969 C 0.81688 0.93035 0.00476 0.0
C1970 C 0.80305 0.94602 -0.00992 0.0
C1971 C 0.82072 0.95776 -0.01091 0.0
C1972 C 0.83659 0.95556 -0.00417 0.0
H1973 H 0.84597 0.06182 0.95642 0.0
H1974 H 0.84789 0.03611 0.96951 0.0
C1975 C 0.8347 0.94194 0.00361 0.0
C1976 C 0.82121 0.97444 -0.01806 0.0
H1977 H 0.84487 -0.00835 0.96592 0.0
C1978 C 0.80747 -0.01048 -0.01662 0.0
C1979 C 0.83544 0.9756 0.97875 0.0
C1980 C 0.85039 0.95863 0.97696 0.0
C1981 C 0.80671 0.0059 -0.02314 0.0
C1982 C 0.82038 0.00673 0.97347 0.0
C1983 C 0.8347 -0.00882 0.9722 0.0
C1984 C 0.81889 0.02255 0.96593 0.0
C1985 C 0.79184 0.02291 -0.02127 0.0
C1986 C 0.80184 0.02328 0.95975 0.0
C1987 C 0.80059 0.03806 0.95241 0.0
C1988 C 0.81662 0.05176 0.95112 0.0
C1989 C 0.83359 0.05111 0.95734 0.0
C1990 C 0.8347 0.03656 0.96475 0.0
H1991 H 0.78512 0.02204 -0.01378 0.0
H1992 H 0.79944 0.03787 -0.02218 0.0
H1993 H 0.77974 0.02273 0.97806 0.0
H1994 H 0.78966 0.01232 0.96055 0.0
H1995 H 0.78747 0.03845 0.94761 0.0
H1996 H 0.27451 0.56278 0.26575 0.0
H1997 H 0.24764 0.56677 0.25336 0.0
H1998 H 0.2932 0.57777 0.23108 0.0
H1999 H 0.31996 0.5725 0.24331 0.0
H2000 H 0.23777 0.59874 0.24166 0.0
H2001 H 0.26087 0.53298 0.21866 0.0
H2002 H 0.27012 0.53659 0.23101 0.0
H2003 H 0.28096 0.55073 0.22094 0.0
C2004 C 0.27864 0.56567 0.25816 0.0
C2005 C 0.29909 0.5669 0.25535 0.0
C2006 C 0.2634 0.56812 0.25113 0.0
C2007 C 0.26848 0.5722 0.24128 0.0
C2008 C 0.28898 0.57399 0.23857 0.0
H2009 H 0.20269 0.58332 0.18768 0.0
H2010 H 0.22509 0.59201 0.20135 0.0
C2011 C 0.30421 0.57097 0.24553 0.0
C2012 C 0.25233 0.5743 0.23383 0.0
H2013 H 0.23525 0.55437 0.21228 0.0
C2014 C 0.23717 0.58905 0.23523 0.0
C2015 C 0.25155 0.56145 0.22553 0.0
C2016 C 0.26661 0.54441 0.22396 0.0
C2017 C 0.2213 0.59143 0.22844 0.0
C2018 C 0.22087 0.57895 0.22006 0.0
C2019 C 0.23594 0.56415 0.21868 0.0
C2020 C 0.20481 0.5804 0.21257 0.0
C2021 C 0.20515 0.60724 0.23021 0.0
C2022 C 0.18551 0.57223 0.2145 0.0
C2023 C 0.17274 0.56721 0.20667 0.0
C2024 C 0.1793 0.57048 0.19696 0.0
C2025 C 0.19738 0.58097 0.19515 0.0
C2026 C 0.21018 0.5858 0.20293 0.0
H2027 H 0.20924 0.61768 0.23629 0.0
H2028 H 0.2025 0.61629 0.22342 0.0
H2029 H 0.19065 0.59955 0.23213 0.0
H2030 H 0.18124 0.56779 0.2219 0.0
H2031 H 0.15885 0.55887 0.20814 0.0
H2032 H 0.34482 0.03489 0.51326 0.0
H2033 H 0.34961 0.01072 0.49997 0.0
H2034 H 0.29557 0.03319 0.48568 0.0
H2035 H 0.29079 0.05791 0.49891 0.0
H2036 H 0.32085 0.98221 0.49579 0.0
H2037 H 0.33727 0.02901 0.46287 0.0
H2038 H 0.34142 0.03778 0.4753 0.0
H2039 H 0.31624 0.03754 0.47022 0.0
C2040 C 0.33397 0.03481 0.50728 0.0
C2041 C 0.31734 0.0482 0.50715 0.0
C2042 C 0.33686 0.02112 0.49966 0.0
C2043 C 0.32319 0.02053 0.4918 0.0
C2044 C 0.30656 0.03386 0.49159 0.0
H2045 H 0.28782 0.9428 0.44579 0.0
H2046 H 0.29173 0.96839 0.4588 0.0
C2047 C 0.30365 0.04767 0.49923 0.0
C2048 C 0.32481 0.00417 0.48454 0.0
H2049 H 0.32787 -0.00543 0.46 0.0
C2050 C 0.32266 0.98502 0.48797 0.0
C2051 C 0.32736 0.00807 0.4744 0.0
C2052 C 0.3309 0.02924 0.47045 0.0
C2053 C 0.32188 0.96872 0.48143 0.0
C2054 C 0.32334 0.97271 0.47125 0.0
C2055 C 0.32647 -0.00824 0.46784 0.0
C2056 C 0.32056 0.95662 0.46394 0.0
C2057 C 0.31854 0.94753 0.48541 0.0
C2058 C 0.33546 0.94168 0.46268 0.0
C2059 C 0.33334 0.92736 0.45523 0.0
C2060 C 0.31628 0.92784 0.44906 0.0
C2061 C 0.30107 0.94235 0.45051 0.0
C2062 C 0.30331 0.95686 0.45788 0.0
H2063 H 0.31545 0.94744 0.49344 0.0
H2064 H 0.30559 0.94022 0.48157 0.0
H2065 H 0.33227 0.93819 0.48402 0.0
H2066 H 0.34891 0.94144 0.46726 0.0
H2067 H 0.34511 0.91605 0.45421 0.0
H2068 H 0.70153 0.58185 0.26562 0.0
H2069 H 0.72692 0.58789 0.25281 0.0
H2070 H 0.68768 0.55991 0.23137 0.0
H2071 H 0.66206 0.55389 0.24415 0.0
H2072 H 0.74277 0.55403 0.24264 0.0
H2073 H 0.71048 0.61174 0.21703 0.0
H2074 H 0.70255 0.60952 0.22973 0.0
H2075 H 0.6936 0.59164 0.2208 0.0
C2076 C 0.6983 0.57705 0.25817 0.0
C2077 C 0.68004 0.56716 0.25587 0.0
C2078 C 0.71265 0.58075 0.25087 0.0
C2079 C 0.70888 0.57472 0.24117 0.0
C2080 C 0.69055 0.56507 0.2388 0.0
H2081 H 0.77724 0.55311 0.1891 0.0
H2082 H 0.75146 0.55728 0.20204 0.0
C2083 C 0.6762 0.56124 0.24613 0.0
C2084 C 0.72548 0.57532 0.23399 0.0
H2085 H 0.73983 0.59389 0.21163 0.0
C2086 C 0.74232 0.56293 0.23591 0.0
C2087 C 0.72454 0.58692 0.22525 0.0
C2088 C 0.70691 0.60086 0.22306 0.0
C2089 C 0.75812 0.56123 0.22913 0.0
C2090 C 0.75704 0.57245 0.22027 0.0
C2091 C 0.74044 0.58531 0.21845 0.0
C2092 C 0.77248 0.57009 0.21259 0.0
C2093 C 0.77535 0.54673 0.2313 0.0
C2094 C 0.79265 0.57581 0.21436 0.0
C2095 C 0.80733 0.57285 0.20714 0.0
C2096 C 0.80181 0.56469 0.19802 0.0
C2097 C 0.78164 0.55922 0.19617 0.0
C2098 C 0.76702 0.56177 0.20348 0.0
H2099 H 0.77199 0.53668 0.23769 0.0
H2100 H 0.77858 0.53709 0.2248 0.0
H2101 H 0.78929 0.5555 0.23302 0.0
H2102 H 0.79697 0.58262 0.22129 0.0
H2103 H 0.82284 0.57754 0.20854 0.0
H2104 H 0.18489 0.94856 0.01114 0.0
H2105 H 0.18119 0.97596 -0.00107 0.0
H2106 H 0.13476 0.94138 -0.01596 0.0
H2107 H 0.13835 0.91413 -0.0037 0.0
H2108 H 0.18721 0.96711 -0.02171 0.0
H2109 H 0.11085 -0.00062 -0.01395 0.0
H2110 H 0.12543 0.98726 -0.00459 0.0
H2111 H 0.11327 0.97299 -0.01411 0.0
C2112 C 0.17393 0.94699 0.00525 0.0
C2113 C 0.16203 0.92951 0.00445 0.0
C2114 C 0.17166 0.96257 -0.0016 0.0
C2115 C 0.15744 0.96068 -0.00923 0.0
C2116 C 0.14544 0.94319 -0.00997 0.0
H2117 H 0.14169 0.03001 0.94246 0.0
H2118 H 0.13874 0.00535 0.95585 0.0
C2119 C 0.14771 0.92763 -0.00311 0.0
C2120 C 0.15715 0.97584 -0.0171 0.0
H2121 H 0.12944 0.01326 0.97716 0.0
C2122 C 0.17454 0.97734 -0.02299 0.0
C2123 C 0.14033 0.9887 -0.01875 0.0
C2124 C 0.12137 0.9874 -0.01251 0.0
C2125 C 0.17629 -0.00844 0.97429 0.0
C2126 C 0.15979 0.00485 0.97279 0.0
C2127 C 0.14209 0.00307 0.9785 0.0
C2128 C 0.16073 0.02039 0.96511 0.0
C2129 C 0.19513 -0.00762 0.96794 0.0
C2130 C 0.17423 0.03675 0.96599 0.0
C2131 C 0.17621 0.05068 0.95832 0.0
C2132 C 0.16445 0.04845 0.94978 0.0
C2133 C 0.15094 0.03201 0.94897 0.0
C2134 C 0.14907 0.01807 0.95661 0.0
H2135 H 0.205 0.97976 0.96906 0.0
H2136 H 0.19095 -0.00666 0.96004 0.0
H2137 H 0.20405 0.00616 0.96978 0.0
H2138 H 0.18327 0.03863 0.97258 0.0
H2139 H 0.18651 0.06339 0.95917 0.0
H2140 H 0.78274 0.38935 0.76601 0.0
H2141 H 0.75804 0.38394 0.75296 0.0
H2142 H 0.78727 0.43005 0.73529 0.0
H2143 H 0.81246 0.43539 0.74828 0.0
H2144 H 0.73284 0.41513 0.74667 0.0
H2145 H 0.77711 0.38332 0.71546 0.0
H2146 H 0.7854 0.38135 0.7281 0.0
H2147 H 0.78857 0.40475 0.72145 0.0
C2148 C 0.78401 0.39831 0.75933 0.0
C2149 C 0.79943 0.41292 0.75818 0.0
C2150 C 0.77002 0.39503 0.75187 0.0
C2151 C 0.77117 0.40629 0.74313 0.0
C2152 C 0.78653 0.42087 0.74191 0.0
H2153 H 0.69668 0.43752 0.69454 0.0
H2154 H 0.72242 0.43387 0.70753 0.0
C2155 C 0.80063 0.42416 0.74939 0.0
C2156 C 0.75461 0.40485 0.73595 0.0
H2157 H 0.7441 0.39608 0.71182 0.0
C2158 C 0.73518 0.4107 0.73908 0.0
C2159 C 0.7579 0.39895 0.7261 0.0
C2160 C 0.77832 0.39155 0.72256 0.0
C2161 C 0.719 0.41182 0.73247 0.0
C2162 C 0.72248 0.40681 0.72252 0.0
C2163 C 0.74171 0.40012 0.71946 0.0
C2164 C 0.70664 0.40942 0.71504 0.0
C2165 C 0.69862 0.41928 0.73606 0.0
C2166 C 0.68941 0.39693 0.71511 0.0
C2167 C 0.67486 0.39904 0.70775 0.0
C2168 C 0.6775 0.41357 0.70029 0.0
C2169 C 0.69452 0.42629 0.70029 0.0
C2170 C 0.70912 0.42416 0.70764 0.0
H2171 H 0.69932 0.42512 0.74371 0.0
H2172 H 0.69287 0.43154 0.73117 0.0
H2173 H 0.68749 0.40661 0.73588 0.0
H2174 H 0.68744 0.38535 0.72071 0.0
H2175 H 0.66171 0.38911 0.70777 0.0
H2176 H 0.15313 0.82052 0.03605 0.0
H2177 H 0.15283 0.78394 0.0352 0.0
H2178 H 0.14933 0.78708 0.00355 0.0
H2179 H 0.14864 0.82452 0.00431 0.0
H2180 H 0.12038 0.76073 0.02606 0.0
H2181 H 0.19828 0.74756 0.01142 0.0
H2182 H 0.19114 0.77014 0.01809 0.0
H2183 H 0.18375 0.76729 0.00548 0.0
C2184 C 0.15185 0.81363 0.02887 0.0
C2185 C 0.15006 0.82539 0.02023 0.0
C2186 C 0.15195 0.79268 0.02844 0.0
C2187 C 0.15089 0.78308 0.01935 0.0
C2188 C 0.15009 0.79455 0.01062 0.0
H2189 H 0.14356 0.65511 0.00474 0.0
H2190 H 0.14243 0.69257 0.00386 0.0
C2191 C 0.14966 0.81577 0.01106 0.0
C2192 C 0.14989 0.76095 0.01915 0.0
H2193 H 0.17682 0.71893 0.01282 0.0
C2194 C 0.13256 0.75151 0.02307 0.0
C2195 C 0.16629 0.74928 0.01566 0.0
C2196 C 0.18605 0.75897 0.0125 0.0
C2197 C 0.13091 0.73037 0.02324 0.0
C2198 C 0.14682 0.71875 0.01916 0.0
C2199 C 0.16437 0.72818 0.01551 0.0
C2200 C 0.14654 0.69665 0.01952 0.0
C2201 C 0.11239 0.72057 0.02782 0.0
C2202 C 0.14994 0.68715 0.02854 0.0
C2203 C 0.15112 0.66625 0.029 0.0
C2204 C 0.14841 0.65439 0.0205 0.0
C2205 C 0.14541 0.66393 0.01139 0.0
C2206 C 0.14461 0.68514 0.0109 0.0
H2207 H 0.1002 0.73179 0.02936 0.0
H2208 H 0.10629 0.70857 0.02292 0.0
H2209 H 0.11673 0.71323 0.03487 0.0
H2210 H 0.1521 0.69596 0.03518 0.0
H2211 H 0.15436 0.65945 0.03609 0.0
H2212 H 0.57082 0.90947 0.28683 0.0
H2213 H 0.53415 0.90915 0.28619 0.0
H2214 H 0.53643 0.89453 0.25529 0.0
H2215 H 0.5739 0.89404 0.25594 0.0
H2216 H 0.51019 0.93379 0.27475 0.0
H2217 H 0.4971 0.8517 0.26753 0.0
H2218 H 0.52027 0.86145 0.27284 0.0
H2219 H 0.51594 0.86367 0.25985 0.0
C2220 C 0.56364 0.90591 0.27988 0.0
C2221 C 0.57518 0.90145 0.27143 0.0
C2222 C 0.54267 0.90584 0.27956 0.0
C2223 C 0.53275 0.90154 0.27075 0.0
C2224 C 0.54405 0.89751 0.26219 0.0
H2225 H 0.40499 0.89811 0.25567 0.0
H2226 H 0.44239 0.90026 0.25494 0.0
C2227 C 0.5653 0.89745 0.26252 0.0
C2228 C 0.51052 0.90223 0.27057 0.0
H2229 H 0.46844 0.87327 0.26677 0.0
C2230 C 0.501 0.92064 0.27294 0.0
C2231 C 0.49881 0.88477 0.26859 0.0
C2232 C 0.50845 0.86419 0.26716 0.0
C2233 C 0.47984 0.92226 0.27299 0.0
C2234 C 0.46815 0.90508 0.27042 0.0
C2235 C 0.47765 0.88654 0.26834 0.0
C2236 C 0.44592 0.90554 0.27056 0.0
C2237 C 0.47019 0.94228 0.27574 0.0
C2238 C 0.43597 0.90785 0.27954 0.0
C2239 C 0.41501 0.90678 0.27995 0.0
C2240 C 0.40357 0.90288 0.27141 0.0
C2241 C 0.41349 0.90097 0.26233 0.0
C2242 C 0.43471 0.9022 0.26193 0.0
H2243 H 0.48137 0.95494 0.27571 0.0
H2244 H 0.45763 0.94606 0.2706 0.0
H2245 H 0.46369 0.94112 0.28325 0.0
H2246 H 0.44444 0.91006 0.28628 0.0
H2247 H 0.40781 0.90883 0.28704 0.0
H2248 H 0.36054 0.15571 0.51669 0.0
H2249 H 0.36058 0.19311 0.51596 0.0
H2250 H 0.2998 0.19398 0.52796 0.0
H2251 H 0.30012 0.15683 0.52901 0.0
H2252 H 0.33442 0.21888 0.50606 0.0
H2253 H 0.32926 0.23229 0.5464 0.0
H2254 H 0.3373 0.20829 0.54132 0.0
H2255 H 0.31083 0.2149 0.54157 0.0
C2256 C 0.34717 0.16401 0.51901 0.0
C2257 C 0.33022 0.15373 0.52276 0.0
C2258 C 0.34724 0.18524 0.5187 0.0
C2259 C 0.33035 0.19623 0.52211 0.0
C2260 C 0.31317 0.18579 0.52556 0.0
H2261 H 0.29772 0.32296 0.52416 0.0
H2262 H 0.29798 0.28569 0.52401 0.0
C2263 C 0.31324 0.16466 0.52601 0.0
C2264 C 0.33043 0.21861 0.52178 0.0
H2265 H 0.32578 0.26102 0.53596 0.0
C2266 C 0.3327 0.22812 0.51259 0.0
C2267 C 0.32803 0.2305 0.53037 0.0
C2268 C 0.32638 0.22104 0.54049 0.0
C2269 C 0.33241 0.2493 0.5117 0.0
C2270 C 0.32995 0.26116 0.52024 0.0
C2271 C 0.32764 0.25172 0.52945 0.0
C2272 C 0.32957 0.28348 0.51972 0.0
C2273 C 0.33421 0.25889 0.50162 0.0
C2274 C 0.34721 0.29438 0.51724 0.0
C2275 C 0.34697 0.31559 0.51717 0.0
C2276 C 0.3291 0.32596 0.51958 0.0
C2277 C 0.31143 0.31508 0.52195 0.0
C2278 C 0.31165 0.29392 0.522 0.0
H2279 H 0.33291 0.24751 0.49564 0.0
H2280 H 0.32227 0.27062 0.50059 0.0
H2281 H 0.3492 0.26651 0.50092 0.0
H2282 H 0.36126 0.28648 0.51565 0.0
H2283 H 0.3609 0.32386 0.51571 0.0
H2284 H 0.90707 0.05464 0.78393 0.0
H2285 H 0.94417 0.05398 0.78385 0.0
H2286 H 0.94492 0.10244 0.76237 0.0
H2287 H 0.90742 0.10309 0.76243 0.0
H2288 H 0.96981 0.0475 0.7673 0.0
H2289 H 0.98268 0.12205 0.78544 0.0
H2290 H 0.95952 0.10758 0.78688 0.0
H2291 H 0.96394 0.12182 0.77581 0.0
C2292 C 0.91521 0.06492 0.77908 0.0
C2293 C 0.90465 0.0787 0.77305 0.0
C2294 C 0.93629 0.06464 0.77911 0.0
C2295 C 0.94712 0.07835 0.77322 0.0
C2296 C 0.93664 0.09194 0.76705 0.0
H2297 H 0.07308 0.09872 0.76052 0.0
H2298 H 0.03559 0.09755 0.76021 0.0
C2299 C 0.91539 0.09209 0.76694 0.0
C2300 C 0.96942 0.07774 0.77329 0.0
H2301 H 0.01063 0.10556 0.77879 0.0
C2302 C 0.97899 0.06016 0.76979 0.0
C2303 C 0.98114 0.09411 0.77685 0.0
C2304 C 0.9714 0.11242 0.78156 0.0
C2305 C -0.00074 0.05888 0.76933 0.0
C2306 C 0.01096 0.07569 0.77236 0.0
C2307 C 0.00143 0.093 0.77619 0.0
C2308 C 0.03324 0.07532 0.77195 0.0
C2309 C 0.00901 0.03975 0.76546 0.0
C2310 C 0.04394 0.06308 0.77857 0.0
C2311 C 0.06502 0.06376 0.77874 0.0
C2312 C 0.07568 0.07662 0.77227 0.0
C2313 C 0.06506 0.08844 0.76541 0.0
C2314 C 0.04381 0.0879 0.76531 0.0
H2315 H -0.00229 0.02921 0.76219 0.0
H2316 H 0.02064 0.04356 0.75982 0.0
H2317 H 0.01678 0.03168 0.77157 0.0
H2318 H 0.03598 0.0535 0.78381 0.0
H2319 H 0.07303 0.05465 0.78415 0.0
H2320 H 0.17069 0.15777 0.92183 0.0
H2321 H 0.17111 0.19473 0.92257 0.0
H2322 H 0.13169 0.19278 0.94796 0.0
H2323 H 0.1317 0.15536 0.94739 0.0
H2324 H 0.13783 0.21943 0.92064 0.0
H2325 H 0.17702 0.23173 0.95635 0.0
H2326 H 0.17871 0.2082 0.94962 0.0
H2327 H 0.15649 0.21375 0.9568 0.0
C2328 C 0.16237 0.16524 0.92767 0.0
C2329 C 0.15122 0.15391 0.9346 0.0
C2330 C 0.16258 0.18629 0.92805 0.0
C2331 C 0.15152 0.19637 0.93533 0.0
C2332 C 0.14061 0.18513 0.9424 0.0
H2333 H 0.12822 0.32342 0.94682 0.0
H2334 H 0.12707 0.28597 0.94635 0.0
C2335 C 0.14062 0.16388 0.9421 0.0
C2336 C 0.15083 0.21869 0.9352 0.0
H2337 H 0.16232 0.26046 0.94878 0.0
C2338 C 0.14314 0.22847 0.92678 0.0
C2339 C 0.15821 0.23027 0.94315 0.0
C2340 C 0.16827 0.22053 0.95196 0.0
C2341 C 0.14213 0.24969 0.92622 0.0
C2342 C 0.1488 0.26117 0.93437 0.0
C2343 C 0.15677 0.25142 0.94269 0.0
C2344 C 0.14863 0.28345 0.93436 0.0
C2345 C 0.13375 0.25962 0.91704 0.0
C2346 C 0.16155 0.29401 0.92798 0.0
C2347 C 0.16235 0.31505 0.92834 0.0
C2348 C 0.15044 0.3258 0.93514 0.0
C2349 C 0.13785 0.31529 0.94171 0.0
C2350 C 0.13695 0.29409 0.94131 0.0
H2351 H 0.12615 0.24849 0.91214 0.0
H2352 H 0.12273 0.27173 0.91899 0.0
H2353 H 0.14634 0.26681 0.91284 0.0
H2354 H 0.17108 0.286 0.92278 0.0
H2355 H 0.17205 0.32302 0.92315 0.0
H2356 H 0.90848 0.9119 0.16644 0.0
H2357 H 0.94526 0.91212 0.16694 0.0
H2358 H 0.94374 0.89176 0.19715 0.0
H2359 H 0.90627 0.89096 0.19664 0.0
H2360 H 0.96967 0.93454 0.17941 0.0
H2361 H 0.98258 0.8513 0.18283 0.0
H2362 H 0.95944 0.86214 0.17798 0.0
H2363 H 0.96375 0.86163 0.19101 0.0
C2364 C 0.91589 0.90733 0.17321 0.0
C2365 C 0.90461 0.90113 0.1815 0.0
C2366 C 0.93689 0.90752 0.17345 0.0
C2367 C 0.94703 0.90165 0.18201 0.0
C2368 C 0.93595 0.89597 0.19043 0.0
H2369 H 0.07387 0.89554 0.19682 0.0
H2370 H 0.03648 0.89782 0.19766 0.0
C2371 C 0.9147 0.89574 0.19019 0.0
C2372 C 0.96927 0.90225 0.18211 0.0
H2373 H 0.01038 0.87256 0.18454 0.0
C2374 C 0.97883 0.92105 0.18059 0.0
C2375 C 0.98095 0.88444 0.18327 0.0
C2376 C 0.97126 0.86366 0.18376 0.0
C2377 C -0.00092 0.92265 0.18062 0.0
C2378 C 0.01072 0.905 0.18238 0.0
C2379 C 0.00119 0.88611 0.18359 0.0
C2380 C 0.03294 0.90546 0.18224 0.0
C2381 C 0.00882 0.94311 0.17882 0.0
C2382 C 0.04287 0.90904 0.17334 0.0
C2383 C 0.06382 0.90774 0.17286 0.0
C2384 C 0.07523 0.90256 0.18126 0.0
C2385 C 0.06535 0.89947 0.19027 0.0
C2386 C 0.04416 0.90077 0.19074 0.0
H2387 H -0.00237 0.95572 0.17926 0.0
H2388 H 0.02112 0.94586 0.18424 0.0
H2389 H 0.01571 0.9434 0.17137 0.0
H2390 H 0.03437 0.91233 0.1667 0.0
H2391 H 0.07104 0.91056 0.16582 0.0
H2392 H 0.3604 0.65881 0.42582 0.0
H2393 H 0.35784 0.69583 0.42524 0.0
H2394 H 0.30192 0.69288 0.4418 0.0
H2395 H 0.30429 0.65558 0.44223 0.0
H2396 H 0.32443 0.71937 0.41719 0.0
H2397 H 0.33956 0.73276 0.45695 0.0
H2398 H 0.34653 0.70952 0.45082 0.0
H2399 H 0.32057 0.71395 0.45425 0.0
C2400 C 0.34768 0.66611 0.42941 0.0
C2401 C 0.33256 0.65458 0.43409 0.0
C2402 C 0.34618 0.68715 0.42902 0.0
C2403 C 0.32964 0.69689 0.43341 0.0
C2404 C 0.31483 0.68547 0.43841 0.0
H2405 H 0.30283 0.82515 0.44008 0.0
H2406 H 0.29955 0.78795 0.43917 0.0
C2407 C 0.31633 0.66432 0.43879 0.0
C2408 C 0.32826 0.71912 0.43295 0.0
H2409 H 0.33111 0.76119 0.44731 0.0
C2410 C 0.32577 0.72861 0.42375 0.0
C2411 C 0.33036 0.73089 0.44153 0.0
C2412 C 0.33458 0.72136 0.45145 0.0
C2413 C 0.32518 0.74985 0.42295 0.0
C2414 C 0.32697 0.76153 0.43161 0.0
C2415 C 0.32934 0.75199 0.44076 0.0
C2416 C 0.32802 0.78375 0.43145 0.0
C2417 C 0.32264 0.75967 0.41296 0.0
C2418 C 0.34549 0.79328 0.4278 0.0
C2419 C 0.34762 0.81421 0.42859 0.0
C2420 C 0.3323 0.82585 0.43301 0.0
C2421 C 0.31503 0.8163 0.43689 0.0
C2422 C 0.31293 0.79526 0.43615 0.0
H2423 H 0.31872 0.74842 0.40719 0.0
H2424 H 0.31059 0.77146 0.41324 0.0
H2425 H 0.33702 0.7673 0.4108 0.0
H2426 H 0.35756 0.78448 0.42446 0.0
H2427 H 0.36112 0.82137 0.42561 0.0
H2428 H 0.40549 0.0953 0.69834 0.0
H2429 H 0.44295 0.09586 0.699 0.0
H2430 H 0.44555 0.06304 0.67158 0.0
H2431 H 0.4087 0.06301 0.67076 0.0
H2432 H 0.46923 0.06271 0.69898 0.0
H2433 H 0.48241 0.11054 0.66567 0.0
H2434 H 0.45815 0.1096 0.67188 0.0
H2435 H 0.46578 0.0893 0.66388 0.0
C2436 C 0.4142 0.08818 0.69254 0.0
C2437 C 0.40451 0.07925 0.68449 0.0
C2438 C 0.43541 0.08863 0.69285 0.0
C2439 C 0.4468 0.08 0.68518 0.0
C2440 C 0.43699 0.0704 0.67737 0.0
H2441 H 0.57185 0.05961 0.67214 0.0
H2442 H 0.53494 0.05852 0.6733 0.0
C2443 C 0.416 0.07021 0.67698 0.0
C2444 C 0.46902 0.08004 0.6855 0.0
H2445 H 0.51119 0.09457 0.67277 0.0
C2446 C 0.47847 0.06991 0.69334 0.0
C2447 C 0.48079 0.08908 0.67795 0.0
C2448 C 0.47131 0.10038 0.6694 0.0
C2449 C 0.49962 0.06848 0.69385 0.0
C2450 C 0.51137 0.07773 0.6864 0.0
C2451 C 0.50194 0.08771 0.6785 0.0
C2452 C 0.53358 0.07677 0.68648 0.0
C2453 C 0.50925 0.05656 0.70213 0.0
C2454 C 0.54486 0.08711 0.69366 0.0
C2455 C 0.56605 0.08757 0.69309 0.0
C2456 C 0.57584 0.07803 0.68522 0.0
C2457 C 0.56448 0.06722 0.67824 0.0
C2458 C 0.54349 0.06656 0.67887 0.0
H2459 H 0.49787 0.04769 0.7064 0.0
H2460 H 0.52088 0.04597 0.6992 0.0
H2461 H 0.51698 0.06717 0.70723 0.0
H2462 H 0.53725 0.09531 0.69949 0.0
H2463 H 0.57465 0.0961 0.69847 0.0
H2464 H 0.81894 0.32165 0.9201 0.0
H2465 H 0.81921 0.2849 0.92054 0.0
H2466 H 0.83789 0.28618 0.95095 0.0
H2467 H 0.8378 0.32364 0.95058 0.0
H2468 H 0.85339 0.26089 0.92477 0.0
H2469 H 0.7879 0.24728 0.94988 0.0
H2470 H 0.7914 0.27064 0.94308 0.0
H2471 H 0.80597 0.26591 0.954 0.0
C2472 C 0.82312 0.3142 0.92692 0.0
C2473 C 0.82867 0.32539 0.93531 0.0
C2474 C 0.82321 0.29323 0.92713 0.0
C2475 C 0.8286 0.28307 0.93575 0.0
C2476 C 0.83356 0.29404 0.94427 0.0
H2477 H 0.84248 0.15551 0.94929 0.0
H2478 H 0.84338 0.19296 0.94969 0.0
C2479 C 0.83349 0.31526 0.94407 0.0
C2480 C 0.82948 0.26092 0.93564 0.0
H2481 H 0.80762 0.21872 0.94551 0.0
C2482 C 0.84352 0.25158 0.92933 0.0
C2483 C 0.81601 0.24913 0.94135 0.0
C2484 C 0.7993 0.25866 0.94739 0.0
C2485 C 0.84492 0.23044 0.92887 0.0
C2486 C 0.83214 0.21869 0.93501 0.0
C2487 C 0.81779 0.22802 0.94111 0.0
C2488 C 0.83239 0.19655 0.93477 0.0
C2489 C 0.86002 0.22084 0.92191 0.0
C2490 C 0.82533 0.18671 0.92639 0.0
C2491 C 0.82466 0.16573 0.92619 0.0
C2492 C 0.83104 0.15426 0.93438 0.0
C2493 C 0.83756 0.16411 0.94292 0.0
C2494 C 0.83824 0.18531 0.94311 0.0
H2495 H 0.87102 0.23211 0.91892 0.0
H2496 H 0.86855 0.20852 0.92568 0.0
H2497 H 0.85179 0.21398 0.91563 0.0
H2498 H 0.82016 0.19526 0.92004 0.0
H2499 H 0.81914 0.15849 0.91956 0.0
H2500 H 0.65884 0.82631 0.44791 0.0
H2501 H 0.66172 0.78911 0.44945 0.0
H2502 H 0.64186 0.78249 0.41941 0.0
H2503 H 0.6413 0.81856 0.41749 0.0
H2504 H 0.63162 0.76064 0.44705 0.0
H2505 H 0.69107 0.74799 0.41861 0.0
H2506 H 0.68619 0.7728 0.42373 0.0
H2507 H 0.66995 0.7626 0.41432 0.0
C2508 C 0.65513 0.81684 0.44167 0.0
C2509 C 0.64919 0.82552 0.43268 0.0
C2510 C 0.65687 0.79571 0.44253 0.0
C2511 C 0.65245 0.78322 0.43445 0.0
C2512 C 0.64597 0.79187 0.42562 0.0
H2513 H 0.63326 0.66245 0.4186 0.0
H2514 H 0.63494 0.69851 0.42085 0.0
C2515 C 0.64496 0.81273 0.42466 0.0
C2516 C 0.65347 0.76102 0.43524 0.0
H2517 H 0.67231 0.71894 0.42396 0.0
C2518 C 0.64088 0.75146 0.44219 0.0
C2519 C 0.66516 0.74927 0.42862 0.0
C2520 C 0.67896 0.7587 0.42095 0.0
C2521 C 0.63921 0.7303 0.44254 0.0
C2522 C 0.65088 0.71863 0.43596 0.0
C2523 C 0.66371 0.72813 0.4291 0.0
C2524 C 0.64843 0.69659 0.4353 0.0
C2525 C 0.62416 0.72059 0.44951 0.0
C2526 C 0.65514 0.68358 0.44282 0.0
C2527 C 0.65381 0.66252 0.44162 0.0
C2528 C 0.64601 0.65448 0.43284 0.0
C2529 C 0.63909 0.66779 0.42547 0.0
C2530 C 0.64016 0.6886 0.42671 0.0
H2531 H 0.6146 0.73202 0.45333 0.0
H2532 H 0.61407 0.71002 0.44544 0.0
H2533 H 0.63243 0.7116 0.45514 0.0
H2534 H 0.66185 0.68968 0.44945 0.0
H2535 H 0.65956 0.65262 0.44735 0.0
H2536 H 0.86006 0.65737 0.02754 0.0
H2537 H 0.85912 0.69447 0.02735 0.0
H2538 H 0.80166 0.69281 0.0121 0.0
H2539 H 0.80235 0.6554 0.01253 0.0
H2540 H 0.85696 0.7191 0.01061 0.0
H2541 H 0.79117 0.73177 0.03567 0.0
H2542 H 0.80617 0.70878 0.0359 0.0
H2543 H 0.78789 0.71278 0.02632 0.0
C2544 C 0.84727 0.66495 0.02414 0.0
C2545 C 0.83128 0.65376 0.02005 0.0
C2546 C 0.8467 0.68606 0.02407 0.0
C2547 C 0.83009 0.69624 0.01993 0.0
C2548 C 0.81437 0.6851 0.01553 0.0
H2549 H 0.80554 0.82423 0.00995 0.0
H2550 H 0.80483 0.78679 0.00965 0.0
C2551 C 0.81496 0.66387 0.01558 0.0
C2552 C 0.83007 0.71858 0.01965 0.0
H2553 H 0.80498 0.76069 0.0277 0.0
C2554 C 0.8456 0.72822 0.01434 0.0
C2555 C 0.81534 0.73026 0.02466 0.0
C2556 C 0.79925 0.72048 0.03104 0.0
C2557 C 0.84659 0.74938 0.01369 0.0
C2558 C 0.83162 0.76109 0.01847 0.0
C2559 C 0.81616 0.7515 0.0239 0.0
C2560 C 0.83235 0.78339 0.01822 0.0
C2561 C 0.86351 0.75908 0.0078 0.0
C2562 C 0.84823 0.79354 0.02295 0.0
C2563 C 0.84884 0.81464 0.02295 0.0
C2564 C 0.83342 0.82584 0.01834 0.0
C2565 C 0.81778 0.81575 0.01335 0.0
C2566 C 0.8172 0.79452 0.01333 0.0
H2567 H 0.87157 0.74788 0.0031 0.0
H2568 H 0.85748 0.77144 0.00304 0.0
H2569 H 0.87478 0.76586 0.01288 0.0
H2570 H 0.85993 0.78514 0.02682 0.0
H2571 H 0.86108 0.8222 0.02678 0.0
H2572 H 0.65449 0.32556 0.50671 0.0
H2573 H 0.65589 0.28829 0.50501 0.0
H2574 H 0.64804 0.28154 0.53634 0.0
H2575 H 0.64784 0.31788 0.53819 0.0
H2576 H 0.68403 0.25989 0.51687 0.0
H2577 H 0.60127 0.24744 0.52335 0.0
H2578 H 0.61117 0.27134 0.51881 0.0
H2579 H 0.61412 0.26455 0.53153 0.0
C2580 C 0.65292 0.31606 0.51319 0.0
C2581 C 0.65013 0.32469 0.52252 0.0
C2582 C 0.65375 0.29491 0.51222 0.0
C2583 C 0.65149 0.28244 0.52054 0.0
C2584 C 0.64923 0.29104 0.52983 0.0
H2585 H 0.65016 0.16058 0.53921 0.0
H2586 H 0.65199 0.19701 0.53712 0.0
C2587 C 0.64882 0.31192 0.53082 0.0
C2588 C 0.65186 0.26029 0.51977 0.0
H2589 H 0.62249 0.21842 0.52358 0.0
C2590 C 0.67055 0.25072 0.51809 0.0
C2591 C 0.63428 0.24867 0.52177 0.0
C2592 C 0.61401 0.25846 0.52393 0.0
C2593 C 0.67215 0.22951 0.51847 0.0
C2594 C 0.6545 0.21793 0.52029 0.0
C2595 C 0.63584 0.22753 0.52195 0.0
C2596 C 0.65516 0.19581 0.52132 0.0
C2597 C 0.6927 0.21962 0.51742 0.0
C2598 C 0.65629 0.18319 0.51305 0.0
C2599 C 0.65455 0.16211 0.51416 0.0
C2600 C 0.65177 0.15364 0.52357 0.0
C2601 C 0.65141 0.16651 0.53181 0.0
C2602 C 0.65284 0.18738 0.53068 0.0
H2603 H 0.70516 0.23095 0.51678 0.0
H2604 H 0.69571 0.20965 0.52386 0.0
H2605 H 0.69282 0.20988 0.51077 0.0
H2606 H 0.65801 0.18967 0.50576 0.0
H2607 H 0.65526 0.15253 0.50771 0.0
H2608 H 0.91165 0.37895 0.78687 0.0
H2609 H 0.9476 0.38291 0.78594 0.0
H2610 H 0.94102 0.41905 0.75961 0.0
H2611 H 0.90372 0.4164 0.76099 0.0
H2612 H 0.96923 0.36889 0.77031 0.0
H2613 H 0.98236 0.45116 0.77744 0.0
H2614 H 0.96022 0.4376 0.78179 0.0
H2615 H 0.96202 0.44493 0.76911 0.0
C2616 C 0.91737 0.38821 0.78102 0.0
C2617 C 0.90459 0.39766 0.77414 0.0
C2618 C 0.93816 0.39035 0.78048 0.0
C2619 C 0.9468 0.40152 0.77283 0.0
C2620 C 0.93438 0.41069 0.76569 0.0
H2621 H 0.07526 0.40905 0.75898 0.0
H2622 H 0.03798 0.41028 0.75728 0.0
C2623 C 0.91323 0.40883 0.76637 0.0
C2624 C 0.9689 0.40148 0.77193 0.0
H2625 H 0.0101 0.43133 0.77334 0.0
C2626 C 0.9784 0.38256 0.77081 0.0
C2627 C 0.98058 0.41928 0.77307 0.0
C2628 C 0.9709 0.43943 0.77552 0.0
C2629 C -0.00144 0.381 0.77061 0.0
C2630 C 0.01021 0.39892 0.77117 0.0
C2631 C 0.00082 0.41784 0.77243 0.0
C2632 C 0.03226 0.39792 0.7718 0.0
C2633 C 0.00823 0.36021 0.77011 0.0
C2634 C 0.04082 0.39082 0.7805 0.0
C2635 C 0.06165 0.39035 0.7815 0.0
C2636 C 0.07445 0.39663 0.77378 0.0
C2637 C 0.06579 0.40368 0.76497 0.0
C2638 C 0.04465 0.4045 0.76401 0.0
H2639 H -0.00288 0.34825 0.76805 0.0
H2640 H 0.02094 0.36018 0.76473 0.0
H2641 H 0.01457 0.35621 0.77742 0.0
H2642 H 0.03134 0.38607 0.78661 0.0
H2643 H 0.06736 0.3856 0.78851 0.0
H2644 H 0.40597 0.61145 0.26492 0.0
H2645 H 0.44341 0.61163 0.26519 0.0
H2646 H 0.44323 0.54963 0.27566 0.0
H2647 H 0.40603 0.54942 0.27526 0.0
H2648 H 0.46895 0.60363 0.28204 0.0
H2649 H 0.48156 0.54799 0.25185 0.0
H2650 H 0.45787 0.56147 0.25331 0.0
H2651 H 0.46384 0.5404 0.26122 0.0
C2652 C 0.41407 0.59772 0.26692 0.0
C2653 C 0.40344 0.58016 0.26968 0.0
C2654 C 0.43531 0.59791 0.26724 0.0
C2655 C 0.44598 0.58054 0.27032 0.0
C2656 C 0.43526 0.563 0.27306 0.0
H2657 H 0.57265 0.55064 0.27698 0.0
H2658 H 0.53553 0.55182 0.27793 0.0
C2659 C 0.41411 0.56284 0.27275 0.0
C2660 C 0.46835 0.58074 0.27074 0.0
H2661 H 0.5103 0.5588 0.26064 0.0
C2662 C 0.47806 0.59396 0.27733 0.0
C2663 C 0.48004 0.56786 0.26467 0.0
C2664 C 0.47038 0.55371 0.2573 0.0
C2665 C 0.49934 0.59465 0.27797 0.0
C2666 C 0.51093 0.58196 0.27176 0.0
C2667 C 0.50121 0.56856 0.26532 0.0
C2668 C 0.53326 0.58207 0.27174 0.0
C2669 C 0.50932 0.60849 0.28536 0.0
C2670 C 0.54407 0.59853 0.26772 0.0
C2671 C 0.56525 0.59768 0.26696 0.0
C2672 C 0.5756 0.58027 0.27013 0.0
C2673 C 0.56474 0.56385 0.27413 0.0
C2674 C 0.54369 0.56468 0.27486 0.0
H2675 H 0.49809 0.61565 0.29038 0.0
H2676 H 0.52051 0.59983 0.28982 0.0
H2677 H 0.51772 0.62071 0.28145 0.0
H2678 H 0.53612 0.61196 0.26517 0.0
H2679 H 0.57355 0.6108 0.26428 0.0
H2680 H 0.40848 0.4074 0.66799 0.0
H2681 H 0.44503 0.40726 0.6688 0.0
H2682 H 0.44221 0.3961 0.70007 0.0
H2683 H 0.40477 0.39492 0.69925 0.0
H2684 H 0.46861 0.43305 0.67924 0.0
H2685 H 0.48188 0.35233 0.68966 0.0
H2686 H 0.45865 0.36116 0.68403 0.0
H2687 H 0.46307 0.36532 0.69689 0.0
C2688 C 0.41546 0.40443 0.67506 0.0
C2689 C 0.40377 0.40059 0.68355 0.0
C2690 C 0.4364 0.40457 0.67548 0.0
C2691 C 0.44615 0.40136 0.68444 0.0
C2692 C 0.43472 0.39816 0.69305 0.0
H2693 H 0.57376 0.39988 0.69946 0.0
H2694 H 0.53644 0.40259 0.70018 0.0
C2695 C 0.41348 0.39769 0.69261 0.0
C2696 C 0.46835 0.40222 0.68467 0.0
H2697 H 0.51044 0.37402 0.68955 0.0
C2698 C 0.47782 0.42024 0.68156 0.0
C2699 C 0.48007 0.38514 0.68733 0.0
C2700 C 0.47049 0.36479 0.68957 0.0
C2701 C 0.49896 0.42188 0.6814 0.0
C2702 C 0.51065 0.40516 0.68462 0.0
C2703 C 0.5012 0.38699 0.68748 0.0
C2704 C 0.53282 0.40557 0.68441 0.0
C2705 C 0.50861 0.44139 0.67781 0.0
C2706 C 0.54265 0.40642 0.67533 0.0
C2707 C 0.56358 0.40505 0.67493 0.0
C2708 C 0.57502 0.40224 0.68357 0.0
C2709 C 0.56522 0.40182 0.69272 0.0
C2710 C 0.54406 0.4034 0.69312 0.0
H2711 H 0.49745 0.45404 0.67738 0.0
H2712 H 0.52128 0.44595 0.68271 0.0
H2713 H 0.51493 0.43906 0.67033 0.0
H2714 H 0.53413 0.40769 0.66855 0.0
H2715 H 0.5707 0.40601 0.66776 0.0
H2716 H 0.90898 0.57516 0.16556 0.0
H2717 H 0.94554 0.57614 0.16639 0.0
H2718 H 0.9426 0.57982 0.19803 0.0
H2719 H 0.90511 0.57992 0.19728 0.0
H2720 H 0.96859 0.60892 0.17562 0.0
H2721 H 0.98232 0.53083 0.19011 0.0
H2722 H 0.95964 0.53783 0.18344 0.0
H2723 H 0.96263 0.54545 0.196 0.0
C2724 C 0.91589 0.57666 0.17274 0.0
C2725 C 0.90413 0.57827 0.18137 0.0
C2726 C 0.93684 0.57694 0.17316 0.0
C2727 C 0.94651 0.57817 0.18223 0.0
C2728 C 0.93509 0.5789 0.19096 0.0
H2729 H 0.07321 0.58519 0.19652 0.0
H2730 H 0.03583 0.58437 0.19727 0.0
C2731 C 0.91384 0.57898 0.19054 0.0
C2732 C 0.96866 0.57924 0.18238 0.0
H2733 H 0.01005 0.55203 0.18809 0.0
C2734 C 0.97794 0.59663 0.17843 0.0
C2735 C 0.98048 0.56274 0.18568 0.0
C2736 C 0.97088 0.54303 0.18898 0.0
C2737 C -0.00186 0.59824 0.17802 0.0
C2738 C 0.00995 0.58212 0.1818 0.0
C2739 C 0.00069 0.56454 0.18552 0.0
C2740 C 0.03206 0.58281 0.18147 0.0
C2741 C 0.00769 0.61707 0.1736 0.0
C2742 C 0.04179 0.58186 0.17237 0.0
C2743 C 0.06275 0.58253 0.17193 0.0
C2744 C 0.0743 0.58394 0.1806 0.0
C2745 C 0.06456 0.58443 0.18976 0.0
C2746 C 0.04338 0.5839 0.19019 0.0
H2747 H -0.00358 0.62944 0.17248 0.0
H2748 H 0.02011 0.62275 0.17838 0.0
H2749 H 0.01439 0.61332 0.16633 0.0
H2750 H 0.03316 0.58046 0.16562 0.0
H2751 H 0.06984 0.58147 0.16476 0.0
loop_
_geom_bond_atom_site_label_1
_geom_bond_atom_site_label_2
_geom_bond_distance
_geom_bond_site_symmetry_2
_ccdc_geom_bond_type
Mg0 O1 2.028 . S
Mg0 O7 1.986 . S
Mg0 O9 2.114 . S
Mg0 O10 2.251 . S
Mg0 O13 2.010 . S
O1 Mg0 2.028 . S
O1 C4 1.250 . S
O2 Mg3 2.028 . S
O2 C4 1.248 . S
Mg3 O2 2.028 . S
Mg3 O8 2.032 . S
Mg3 O10 2.079 . S
C4 O1 1.250 . S
C4 O2 1.248 . S
C5 O6 1.264 . S
C5 O13 1.249 . S
O6 C5 1.264 . S
O7 Mg0 1.986 . S
O7 C11 1.246 . S
O8 Mg3 2.032 . S
O8 C11 1.259 . S
O9 Mg0 2.114 . S
O9 C12 1.252 . S
O10 Mg0 2.251 . S
O10 Mg3 2.079 . S
O10 C12 1.273 . S
C11 O7 1.246 . S
C11 O8 1.259 . S
C12 O9 1.252 . S
C12 O10 1.273 . S
O13 Mg0 2.010 . S
O13 C5 1.249 . S
Mg14 O15 2.028 . S
Mg14 O21 1.986 . S
Mg14 O23 2.114 . S
Mg14 O24 2.251 . S
Mg14 O27 2.010 . S
O15 Mg14 2.028 . S
O15 C18 1.250 . S
O16 Mg17 2.028 . S
O16 C18 1.248 . S
Mg17 O16 2.028 . S
Mg17 O22 2.032 . S
Mg17 O24 2.079 . S
C18 O15 1.250 . S
C18 O16 1.248 . S
C19 O20 1.264 . S
C19 O27 1.249 . S
O20 C19 1.264 . S
O21 Mg14 1.986 . S
O21 C25 1.246 . S
O22 Mg17 2.032 . S
O22 C25 1.259 . S
O23 Mg14 2.114 . S
O23 C26 1.252 . S
O24 Mg14 2.251 . S
O24 Mg17 2.079 . S
O24 C26 1.273 . S
C25 O21 1.246 . S
C25 O22 1.259 . S
C26 O23 1.252 . S
C26 O24 1.273 . S
O27 Mg14 2.010 . S
O27 C19 1.249 . S
Mg28 O29 2.028 . S
Mg28 O35 1.986 . S
Mg28 O37 2.114 . S
Mg28 O38 2.251 . S
Mg28 O41 2.010 . S
O29 Mg28 2.028 . S
O29 C32 1.250 . S
O30 Mg31 2.028 . S
O30 C32 1.248 . S
Mg31 O30 2.028 . S
Mg31 O36 2.032 . S
Mg31 O38 2.079 . S
C32 O29 1.250 . S
C32 O30 1.248 . S
C33 O34 1.264 . S
C33 O41 1.249 . S
O34 C33 1.264 . S
O35 Mg28 1.986 . S
O35 C39 1.246 . S
O36 Mg31 2.032 . S
O36 C39 1.259 . S
O37 Mg28 2.114 . S
O37 C40 1.252 . S
O38 Mg28 2.251 . S
O38 Mg31 2.079 . S
O38 C40 1.273 . S
C39 O35 1.246 . S
C39 O36 1.259 . S
C40 O37 1.252 . S
C40 O38 1.273 . S
O41 Mg28 2.010 . S
O41 C33 1.249 . S
Mg42 O43 2.028 . S
Mg42 O49 1.986 . S
Mg42 O51 2.114 . S
Mg42 O52 2.251 . S
Mg42 O55 2.010 . S
O43 Mg42 2.028 . S
O43 C46 1.250 . S
O44 Mg45 2.028 . S
O44 C46 1.248 . S
Mg45 O44 2.028 . S
Mg45 O50 2.032 . S
Mg45 O52 2.079 . S
C46 O43 1.250 . S
C46 O44 1.248 . S
C47 O48 1.264 . S
C47 O55 1.249 . S
O48 C47 1.264 . S
O49 Mg42 1.986 . S
O49 C53 1.246 . S
O50 Mg45 2.032 . S
O50 C53 1.259 . S
O51 Mg42 2.114 . S
O51 C54 1.252 . S
O52 Mg42 2.251 . S
O52 Mg45 2.079 . S
O52 C54 1.273 . S
C53 O49 1.246 . S
C53 O50 1.259 . S
C54 O51 1.252 . S
C54 O52 1.273 . S
O55 Mg42 2.010 . S
O55 C47 1.249 . S
Mg56 O57 2.028 . S
Mg56 O63 1.986 . S
Mg56 O65 2.114 . S
Mg56 O66 2.251 . S
Mg56 O69 2.010 . S
O57 Mg56 2.028 . S
O57 C60 1.250 . S
O58 Mg59 2.028 . S
O58 C60 1.248 . S
Mg59 O58 2.028 . S
Mg59 O64 2.032 . S
Mg59 O66 2.079 . S
C60 O57 1.250 . S
C60 O58 1.248 . S
C61 O62 1.264 . S
C61 O69 1.249 . S
O62 C61 1.264 . S
O63 Mg56 1.986 . S
O63 C67 1.246 . S
O64 Mg59 2.032 . S
O64 C67 1.259 . S
O65 Mg56 2.114 . S
O65 C68 1.252 . S
O66 Mg56 2.251 . S
O66 Mg59 2.079 . S
O66 C68 1.273 . S
C67 O63 1.246 . S
C67 O64 1.259 . S
C68 O65 1.252 . S
C68 O66 1.273 . S
O69 Mg56 2.010 . S
O69 C61 1.249 . S
Mg70 O71 2.028 . S
Mg70 O77 1.986 . S
Mg70 O79 2.114 . S
Mg70 O80 2.251 . S
Mg70 O83 2.010 . S
O71 Mg70 2.028 . S
O71 C74 1.250 . S
O72 Mg73 2.028 . S
O72 C74 1.248 . S
Mg73 O72 2.028 . S
Mg73 O78 2.032 . S
Mg73 O80 2.079 . S
C74 O71 1.250 . S
C74 O72 1.248 . S
C75 O76 1.264 . S
C75 O83 1.249 . S
O76 C75 1.264 . S
O77 Mg70 1.986 . S
O77 C81 1.246 . S
O78 Mg73 2.032 . S
O78 C81 1.259 . S
O79 Mg70 2.114 . S
O79 C82 1.252 . S
O80 Mg70 2.251 . S
O80 Mg73 2.079 . S
O80 C82 1.273 . S
C81 O77 1.246 . S
C81 O78 1.259 . S
C82 O79 1.252 . S
C82 O80 1.273 . S
O83 Mg70 2.010 . S
O83 C75 1.249 . S
Mg84 O85 2.028 . S
Mg84 O91 1.986 . S
Mg84 O93 2.114 . S
Mg84 O94 2.251 . S
Mg84 O97 2.010 . S
O85 Mg84 2.028 . S
O85 C88 1.250 . S
O86 Mg87 2.028 . S
O86 C88 1.248 . S
Mg87 O86 2.028 . S
Mg87 O92 2.032 . S
Mg87 O94 2.079 . S
C88 O85 1.250 . S
C88 O86 1.248 . S
C89 O90 1.264 . S
C89 O97 1.249 . S
O90 C89 1.264 . S
O91 Mg84 1.986 . S
O91 C95 1.246 . S
O92 Mg87 2.032 . S
O92 C95 1.259 . S
O93 Mg84 2.114 . S
O93 C96 1.252 . S
O94 Mg84 2.251 . S
O94 Mg87 2.079 . S
O94 C96 1.273 . S
C95 O91 1.246 . S
C95 O92 1.259 . S
C96 O93 1.252 . S
C96 O94 1.273 . S
O97 Mg84 2.010 . S
O97 C89 1.249 . S
Mg98 O99 2.028 . S
Mg98 O105 1.986 . S
Mg98 O107 2.114 . S
Mg98 O108 2.251 . S
Mg98 O111 2.010 . S
O99 Mg98 2.028 . S
O99 C102 1.250 . S
O100 Mg101 2.028 . S
O100 C102 1.248 . S
Mg101 O100 2.028 . S
Mg101 O106 2.032 . S
Mg101 O108 2.079 . S
C102 O99 1.250 . S
C102 O100 1.248 . S
C103 O104 1.264 . S
C103 O111 1.249 . S
O104 C103 1.264 . S
O105 Mg98 1.986 . S
O105 C109 1.246 . S
O106 Mg101 2.032 . S
O106 C109 1.259 . S
O107 Mg98 2.114 . S
O107 C110 1.252 . S
O108 Mg98 2.251 . S
O108 Mg101 2.079 . S
O108 C110 1.273 . S
C109 O105 1.246 . S
C109 O106 1.259 . S
C110 O107 1.252 . S
C110 O108 1.273 . S
O111 Mg98 2.010 . S
O111 C103 1.249 . S
Mg112 O113 2.028 . S
Mg112 O119 1.986 . S
Mg112 O121 2.114 . S
Mg112 O122 2.251 . S
Mg112 O125 2.010 . S
O113 Mg112 2.028 . S
O113 C116 1.250 . S
O114 Mg115 2.028 . S
O114 C116 1.248 . S
Mg115 O114 2.028 . S
Mg115 O120 2.032 . S
Mg115 O122 2.079 . S
C116 O113 1.250 . S
C116 O114 1.248 . S
C117 O118 1.264 . S
C117 O125 1.249 . S
O118 C117 1.264 . S
O119 Mg112 1.986 . S
O119 C123 1.246 . S
O120 Mg115 2.032 . S
O120 C123 1.259 . S
O121 Mg112 2.114 . S
O121 C124 1.252 . S
O122 Mg112 2.251 . S
O122 Mg115 2.079 . S
O122 C124 1.273 . S
C123 O119 1.246 . S
C123 O120 1.259 . S
C124 O121 1.252 . S
C124 O122 1.273 . S
O125 Mg112 2.010 . S
O125 C117 1.249 . S
Mg126 O127 2.028 . S
Mg126 O133 1.986 . S
Mg126 O135 2.114 . S
Mg126 O136 2.251 . S
Mg126 O139 2.010 . S
O127 Mg126 2.028 . S
O127 C130 1.250 . S
O128 Mg129 2.028 . S
O128 C130 1.248 . S
Mg129 O128 2.028 . S
Mg129 O134 2.032 . S
Mg129 O136 2.079 . S
C130 O127 1.250 . S
C130 O128 1.248 . S
C131 O132 1.264 . S
C131 O139 1.249 . S
O132 C131 1.264 . S
O133 Mg126 1.986 . S
O133 C137 1.246 . S
O134 Mg129 2.032 . S
O134 C137 1.259 . S
O135 Mg126 2.114 . S
O135 C138 1.252 . S
O136 Mg126 2.251 . S
O136 Mg129 2.079 . S
O136 C138 1.273 . S
C137 O133 1.246 . S
C137 O134 1.259 . S
C138 O135 1.252 . S
C138 O136 1.273 . S
O139 Mg126 2.010 . S
O139 C131 1.249 . S
Mg140 O141 2.028 . S
Mg140 O147 1.986 . S
Mg140 O149 2.114 . S
Mg140 O150 2.251 . S
Mg140 O153 2.010 . S
O141 Mg140 2.028 . S
O141 C144 1.250 . S
O142 Mg143 2.028 . S
O142 C144 1.248 . S
Mg143 O142 2.028 . S
Mg143 O148 2.032 . S
Mg143 O150 2.079 . S
C144 O141 1.250 . S
C144 O142 1.248 . S
C145 O146 1.264 . S
C145 O153 1.249 . S
O146 C145 1.264 . S
O147 Mg140 1.986 . S
O147 C151 1.246 . S
O148 Mg143 2.032 . S
O148 C151 1.259 . S
O149 Mg140 2.114 . S
O149 C152 1.252 . S
O150 Mg140 2.251 . S
O150 Mg143 2.079 . S
O150 C152 1.273 . S
C151 O147 1.246 . S
C151 O148 1.259 . S
C152 O149 1.252 . S
C152 O150 1.273 . S
O153 Mg140 2.010 . S
O153 C145 1.249 . S
Mg154 O155 2.028 . S
Mg154 O161 1.986 . S
Mg154 O163 2.114 . S
Mg154 O164 2.251 . S
Mg154 O167 2.010 . S
O155 Mg154 2.028 . S
O155 C158 1.250 . S
O156 Mg157 2.028 . S
O156 C158 1.248 . S
Mg157 O156 2.028 . S
Mg157 O162 2.032 . S
Mg157 O164 2.079 . S
C158 O155 1.250 . S
C158 O156 1.248 . S
C159 O160 1.264 . S
C159 O167 1.249 . S
O160 C159 1.264 . S
O161 Mg154 1.986 . S
O161 C165 1.246 . S
O162 Mg157 2.032 . S
O162 C165 1.259 . S
O163 Mg154 2.114 . S
O163 C166 1.252 . S
O164 Mg154 2.251 . S
O164 Mg157 2.079 . S
O164 C166 1.273 . S
C165 O161 1.246 . S
C165 O162 1.259 . S
C166 O163 1.252 . S
C166 O164 1.273 . S
O167 Mg154 2.010 . S
O167 C159 1.249 . S
Mg168 O169 2.028 . S
Mg168 O175 1.986 . S
Mg168 O177 2.114 . S
Mg168 O178 2.251 . S
Mg168 O181 2.010 . S
O169 Mg168 2.028 . S
O169 C172 1.250 . S
O170 Mg171 2.028 . S
O170 C172 1.248 . S
Mg171 O170 2.028 . S
Mg171 O176 2.032 . S
Mg171 O178 2.079 . S
C172 O169 1.250 . S
C172 O170 1.248 . S
C173 O174 1.264 . S
C173 O181 1.249 . S
O174 C173 1.264 . S
O175 Mg168 1.986 . S
O175 C179 1.246 . S
O176 Mg171 2.032 . S
O176 C179 1.259 . S
O177 Mg168 2.114 . S
O177 C180 1.252 . S
O178 Mg168 2.251 . S
O178 Mg171 2.079 . S
O178 C180 1.273 . S
C179 O175 1.246 . S
C179 O176 1.259 . S
C180 O177 1.252 . S
C180 O178 1.273 . S
O181 Mg168 2.010 . S
O181 C173 1.249 . S
Mg182 O183 2.028 . S
Mg182 O189 1.986 . S
Mg182 O191 2.114 . S
Mg182 O192 2.251 . S
Mg182 O195 2.010 . S
O183 Mg182 2.028 . S
O183 C186 1.250 . S
O184 Mg185 2.028 . S
O184 C186 1.248 . S
Mg185 O184 2.028 . S
Mg185 O190 2.032 . S
Mg185 O192 2.079 . S
C186 O183 1.250 . S
C186 O184 1.248 . S
C187 O188 1.264 . S
C187 O195 1.249 . S
O188 C187 1.264 . S
O189 Mg182 1.986 . S
O189 C193 1.246 . S
O190 Mg185 2.032 . S
O190 C193 1.259 . S
O191 Mg182 2.114 . S
O191 C194 1.252 . S
O192 Mg182 2.251 . S
O192 Mg185 2.079 . S
O192 C194 1.273 . S
C193 O189 1.246 . S
C193 O190 1.259 . S
C194 O191 1.252 . S
C194 O192 1.273 . S
O195 Mg182 2.010 . S
O195 C187 1.249 . S
Mg196 O197 2.028 . S
Mg196 O203 1.986 . S
Mg196 O205 2.114 . S
Mg196 O206 2.251 . S
Mg196 O209 2.010 . S
O197 Mg196 2.028 . S
O197 C200 1.250 . S
O198 Mg199 2.028 . S
O198 C200 1.248 . S
Mg199 O198 2.028 . S
Mg199 O204 2.032 . S
Mg199 O206 2.079 . S
C200 O197 1.250 . S
C200 O198 1.248 . S
C201 O202 1.264 . S
C201 O209 1.249 . S
O202 C201 1.264 . S
O203 Mg196 1.986 . S
O203 C207 1.246 . S
O204 Mg199 2.032 . S
O204 C207 1.259 . S
O205 Mg196 2.114 . S
O205 C208 1.252 . S
O206 Mg196 2.251 . S
O206 Mg199 2.079 . S
O206 C208 1.273 . S
C207 O203 1.246 . S
C207 O204 1.259 . S
C208 O205 1.252 . S
C208 O206 1.273 . S
O209 Mg196 2.010 . S
O209 C201 1.249 . S
Mg210 O211 2.028 . S
Mg210 O217 1.986 . S
Mg210 O219 2.114 . S
Mg210 O220 2.251 . S
Mg210 O223 2.010 . S
O211 Mg210 2.028 . S
O211 C214 1.250 . S
O212 Mg213 2.028 . S
O212 C214 1.248 . S
Mg213 O212 2.028 . S
Mg213 O218 2.032 . S
Mg213 O220 2.079 . S
C214 O211 1.250 . S
C214 O212 1.248 . S
C215 O216 1.264 . S
C215 O223 1.249 . S
O216 C215 1.264 . S
O217 Mg210 1.986 . S
O217 C221 1.246 . S
O218 Mg213 2.032 . S
O218 C221 1.259 . S
O219 Mg210 2.114 . S
O219 C222 1.252 . S
O220 Mg210 2.251 . S
O220 Mg213 2.079 . S
O220 C222 1.273 . S
C221 O217 1.246 . S
C221 O218 1.259 . S
C222 O219 1.252 . S
C222 O220 1.273 . S
O223 Mg210 2.010 . S
O223 C215 1.249 . S
Mg224 O225 2.028 . S
Mg224 O231 1.986 . S
Mg224 O233 2.114 . S
Mg224 O234 2.251 . S
Mg224 O237 2.010 . S
O225 Mg224 2.028 . S
O225 C228 1.250 . S
O226 Mg227 2.028 . S
O226 C228 1.248 . S
Mg227 O226 2.028 . S
Mg227 O232 2.032 . S
Mg227 O234 2.079 . S
C228 O225 1.250 . S
C228 O226 1.248 . S
C229 O230 1.264 . S
C229 O237 1.249 . S
O230 C229 1.264 . S
O231 Mg224 1.986 . S
O231 C235 1.246 . S
O232 Mg227 2.032 . S
O232 C235 1.259 . S
O233 Mg224 2.114 . S
O233 C236 1.252 . S
O234 Mg224 2.251 . S
O234 Mg227 2.079 . S
O234 C236 1.273 . S
C235 O231 1.246 . S
C235 O232 1.259 . S
C236 O233 1.252 . S
C236 O234 1.273 . S
O237 Mg224 2.010 . S
O237 C229 1.249 . S
Mg238 O239 2.028 . S
Mg238 O245 1.986 . S
Mg238 O247 2.114 . S
Mg238 O248 2.251 . S
Mg238 O251 2.010 . S
O239 Mg238 2.028 . S
O239 C242 1.250 . S
O240 Mg241 2.028 . S
O240 C242 1.248 . S
Mg241 O240 2.028 . S
Mg241 O246 2.032 . S
Mg241 O248 2.079 . S
C242 O239 1.250 . S
C242 O240 1.248 . S
C243 O244 1.264 . S
C243 O251 1.249 . S
O244 C243 1.264 . S
O245 Mg238 1.986 . S
O245 C249 1.246 . S
O246 Mg241 2.032 . S
O246 C249 1.259 . S
O247 Mg238 2.114 . S
O247 C250 1.252 . S
O248 Mg238 2.251 . S
O248 Mg241 2.079 . S
O248 C250 1.273 . S
C249 O245 1.246 . S
C249 O246 1.259 . S
C250 O247 1.252 . S
C250 O248 1.273 . S
O251 Mg238 2.010 . S
O251 C243 1.249 . S
Mg252 O253 2.028 . S
Mg252 O259 1.986 . S
Mg252 O261 2.114 . S
Mg252 O262 2.251 . S
Mg252 O265 2.010 . S
O253 Mg252 2.028 . S
O253 C256 1.250 . S
O254 Mg255 2.028 . S
O254 C256 1.248 . S
Mg255 O254 2.028 . S
Mg255 O260 2.032 . S
Mg255 O262 2.079 . S
C256 O253 1.250 . S
C256 O254 1.248 . S
C257 O258 1.264 . S
C257 O265 1.249 . S
O258 C257 1.264 . S
O259 Mg252 1.986 . S
O259 C263 1.246 . S
O260 Mg255 2.032 . S
O260 C263 1.259 . S
O261 Mg252 2.114 . S
O261 C264 1.252 . S
O262 Mg252 2.251 . S
O262 Mg255 2.079 . S
O262 C264 1.273 . S
C263 O259 1.246 . S
C263 O260 1.259 . S
C264 O261 1.252 . S
C264 O262 1.273 . S
O265 Mg252 2.010 . S
O265 C257 1.249 . S
Mg266 O267 2.028 . S
Mg266 O273 1.986 . S
Mg266 O275 2.114 . S
Mg266 O276 2.251 . S
Mg266 O279 2.010 . S
O267 Mg266 2.028 . S
O267 C270 1.250 . S
O268 Mg269 2.028 . S
O268 C270 1.248 . S
Mg269 O268 2.028 . S
Mg269 O274 2.032 . S
Mg269 O276 2.079 . S
C270 O267 1.250 . S
C270 O268 1.248 . S
C271 O272 1.264 . S
C271 O279 1.249 . S
O272 C271 1.264 . S
O273 Mg266 1.986 . S
O273 C277 1.246 . S
O274 Mg269 2.032 . S
O274 C277 1.259 . S
O275 Mg266 2.114 . S
O275 C278 1.252 . S
O276 Mg266 2.251 . S
O276 Mg269 2.079 . S
O276 C278 1.273 . S
C277 O273 1.246 . S
C277 O274 1.259 . S
C278 O275 1.252 . S
C278 O276 1.273 . S
O279 Mg266 2.010 . S
O279 C271 1.249 . S
Mg280 O281 2.028 . S
Mg280 O287 1.986 . S
Mg280 O289 2.114 . S
Mg280 O290 2.251 . S
Mg280 O293 2.010 . S
O281 Mg280 2.028 . S
O281 C284 1.250 . S
O282 Mg283 2.028 . S
O282 C284 1.248 . S
Mg283 O282 2.028 . S
Mg283 O288 2.032 . S
Mg283 O290 2.079 . S
C284 O281 1.250 . S
C284 O282 1.248 . S
C285 O286 1.264 . S
C285 O293 1.249 . S
O286 C285 1.264 . S
O287 Mg280 1.986 . S
O287 C291 1.246 . S
O288 Mg283 2.032 . S
O288 C291 1.259 . S
O289 Mg280 2.114 . S
O289 C292 1.252 . S
O290 Mg280 2.251 . S
O290 Mg283 2.079 . S
O290 C292 1.273 . S
C291 O287 1.246 . S
C291 O288 1.259 . S
C292 O289 1.252 . S
C292 O290 1.273 . S
O293 Mg280 2.010 . S
O293 C285 1.249 . S
Mg294 O295 2.028 . S
Mg294 O301 1.986 . S
Mg294 O303 2.114 . S
Mg294 O304 2.251 . S
Mg294 O307 2.010 . S
O295 Mg294 2.028 . S
O295 C298 1.250 . S
O296 Mg297 2.028 . S
O296 C298 1.248 . S
Mg297 O296 2.028 . S
Mg297 O302 2.032 . S
Mg297 O304 2.079 . S
C298 O295 1.250 . S
C298 O296 1.248 . S
C299 O300 1.264 . S
C299 O307 1.249 . S
O300 C299 1.264 . S
O301 Mg294 1.986 . S
O301 C305 1.246 . S
O302 Mg297 2.032 . S
O302 C305 1.259 . S
O303 Mg294 2.114 . S
O303 C306 1.252 . S
O304 Mg294 2.251 . S
O304 Mg297 2.079 . S
O304 C306 1.273 . S
C305 O301 1.246 . S
C305 O302 1.259 . S
C306 O303 1.252 . S
C306 O304 1.273 . S
O307 Mg294 2.010 . S
O307 C299 1.249 . S
Mg308 O309 2.028 . S
Mg308 O315 1.986 . S
Mg308 O317 2.114 . S
Mg308 O318 2.251 . S
Mg308 O321 2.010 . S
O309 Mg308 2.028 . S
O309 C312 1.250 . S
O310 Mg311 2.028 . S
O310 C312 1.248 . S
Mg311 O310 2.028 . S
Mg311 O316 2.032 . S
Mg311 O318 2.079 . S
C312 O309 1.250 . S
C312 O310 1.248 . S
C313 O314 1.264 . S
C313 O321 1.249 . S
O314 C313 1.264 . S
O315 Mg308 1.986 . S
O315 C319 1.246 . S
O316 Mg311 2.032 . S
O316 C319 1.259 . S
O317 Mg308 2.114 . S
O317 C320 1.252 . S
O318 Mg308 2.251 . S
O318 Mg311 2.079 . S
O318 C320 1.273 . S
C319 O315 1.246 . S
C319 O316 1.259 . S
C320 O317 1.252 . S
C320 O318 1.273 . S
O321 Mg308 2.010 . S
O321 C313 1.249 . S
Mg322 O323 2.028 . S
Mg322 O329 1.986 . S
Mg322 O331 2.114 . S
Mg322 O332 2.251 . S
Mg322 O335 2.010 . S
O323 Mg322 2.028 . S
O323 C326 1.250 . S
O324 Mg325 2.028 . S
O324 C326 1.248 . S
Mg325 O324 2.028 . S
Mg325 O330 2.032 . S
Mg325 O332 2.079 . S
C326 O323 1.250 . S
C326 O324 1.248 . S
C327 O328 1.264 . S
C327 O335 1.249 . S
O328 C327 1.264 . S
O329 Mg322 1.986 . S
O329 C333 1.246 . S
O330 Mg325 2.032 . S
O330 C333 1.259 . S
O331 Mg322 2.114 . S
O331 C334 1.252 . S
O332 Mg322 2.251 . S
O332 Mg325 2.079 . S
O332 C334 1.273 . S
C333 O329 1.246 . S
C333 O330 1.259 . S
C334 O331 1.252 . S
C334 O332 1.273 . S
O335 Mg322 2.010 . S
O335 C327 1.249 . S
Mg336 O337 2.028 . S
Mg336 O343 1.986 . S
Mg336 O345 2.114 . S
Mg336 O346 2.251 . S
Mg336 O349 2.010 . S
O337 Mg336 2.028 . S
O337 C340 1.250 . S
O338 Mg339 2.028 . S
O338 C340 1.248 . S
Mg339 O338 2.028 . S
Mg339 O344 2.032 . S
Mg339 O346 2.079 . S
C340 O337 1.250 . S
C340 O338 1.248 . S
C341 O342 1.264 . S
C341 O349 1.249 . S
O342 C341 1.264 . S
O343 Mg336 1.986 . S
O343 C347 1.246 . S
O344 Mg339 2.032 . S
O344 C347 1.259 . S
O345 Mg336 2.114 . S
O345 C348 1.252 . S
O346 Mg336 2.251 . S
O346 Mg339 2.079 . S
O346 C348 1.273 . S
C347 O343 1.246 . S
C347 O344 1.259 . S
C348 O345 1.252 . S
C348 O346 1.273 . S
O349 Mg336 2.010 . S
O349 C341 1.249 . S
Mg350 O351 2.028 . S
Mg350 O357 1.986 . S
Mg350 O359 2.114 . S
Mg350 O360 2.251 . S
Mg350 O363 2.010 . S
O351 Mg350 2.028 . S
O351 C354 1.250 . S
O352 Mg353 2.028 . S
O352 C354 1.248 . S
Mg353 O352 2.028 . S
Mg353 O358 2.032 . S
Mg353 O360 2.079 . S
C354 O351 1.250 . S
C354 O352 1.248 . S
C355 O356 1.264 . S
C355 O363 1.249 . S
O356 C355 1.264 . S
O357 Mg350 1.986 . S
O357 C361 1.246 . S
O358 Mg353 2.032 . S
O358 C361 1.259 . S
O359 Mg350 2.114 . S
O359 C362 1.252 . S
O360 Mg350 2.251 . S
O360 Mg353 2.079 . S
O360 C362 1.273 . S
C361 O357 1.246 . S
C361 O358 1.259 . S
C362 O359 1.252 . S
C362 O360 1.273 . S
O363 Mg350 2.010 . S
O363 C355 1.249 . S
Mg364 O365 2.028 . S
Mg364 O371 1.986 . S
Mg364 O373 2.114 . S
Mg364 O374 2.251 . S
Mg364 O377 2.010 . S
O365 Mg364 2.028 . S
O365 C368 1.250 . S
O366 Mg367 2.028 . S
O366 C368 1.248 . S
Mg367 O366 2.028 . S
Mg367 O372 2.032 . S
Mg367 O374 2.079 . S
C368 O365 1.250 . S
C368 O366 1.248 . S
C369 O370 1.264 . S
C369 O377 1.249 . S
O370 C369 1.264 . S
O371 Mg364 1.986 . S
O371 C375 1.246 . S
O372 Mg367 2.032 . S
O372 C375 1.259 . S
O373 Mg364 2.114 . S
O373 C376 1.252 . S
O374 Mg364 2.251 . S
O374 Mg367 2.079 . S
O374 C376 1.273 . S
C375 O371 1.246 . S
C375 O372 1.259 . S
C376 O373 1.252 . S
C376 O374 1.273 . S
O377 Mg364 2.010 . S
O377 C369 1.249 . S
Mg378 O379 2.028 . S
Mg378 O385 1.986 . S
Mg378 O387 2.114 . S
Mg378 O388 2.251 . S
Mg378 O391 2.010 . S
O379 Mg378 2.028 . S
O379 C382 1.250 . S
O380 Mg381 2.028 . S
O380 C382 1.248 . S
Mg381 O380 2.028 . S
Mg381 O386 2.032 . S
Mg381 O388 2.079 . S
C382 O379 1.250 . S
C382 O380 1.248 . S
C383 O384 1.264 . S
C383 O391 1.249 . S
O384 C383 1.264 . S
O385 Mg378 1.986 . S
O385 C389 1.246 . S
O386 Mg381 2.032 . S
O386 C389 1.259 . S
O387 Mg378 2.114 . S
O387 C390 1.252 . S
O388 Mg378 2.251 . S
O388 Mg381 2.079 . S
O388 C390 1.273 . S
C389 O385 1.246 . S
C389 O386 1.259 . S
C390 O387 1.252 . S
C390 O388 1.273 . S
O391 Mg378 2.010 . S
O391 C383 1.249 . S
Mg392 O393 2.028 . S
Mg392 O399 1.986 . S
Mg392 O401 2.114 . S
Mg392 O402 2.251 . S
Mg392 O405 2.010 . S
O393 Mg392 2.028 . S
O393 C396 1.250 . S
O394 Mg395 2.028 . S
O394 C396 1.248 . S
Mg395 O394 2.028 . S
Mg395 O400 2.032 . S
Mg395 O402 2.079 . S
C396 O393 1.250 . S
C396 O394 1.248 . S
C397 O398 1.264 . S
C397 O405 1.249 . S
O398 C397 1.264 . S
O399 Mg392 1.986 . S
O399 C403 1.246 . S
O400 Mg395 2.032 . S
O400 C403 1.259 . S
O401 Mg392 2.114 . S
O401 C404 1.252 . S
O402 Mg392 2.251 . S
O402 Mg395 2.079 . S
O402 C404 1.273 . S
C403 O399 1.246 . S
C403 O400 1.259 . S
C404 O401 1.252 . S
C404 O402 1.273 . S
O405 Mg392 2.010 . S
O405 C397 1.249 . S
Mg406 O407 2.028 . S
Mg406 O413 1.986 . S
Mg406 O415 2.114 . S
Mg406 O416 2.251 . S
Mg406 O419 2.010 . S
O407 Mg406 2.028 . S
O407 C410 1.250 . S
O408 Mg409 2.028 . S
O408 C410 1.248 . S
Mg409 O408 2.028 . S
Mg409 O414 2.032 . S
Mg409 O416 2.079 . S
C410 O407 1.250 . S
C410 O408 1.248 . S
C411 O412 1.264 . S
C411 O419 1.249 . S
O412 C411 1.264 . S
O413 Mg406 1.986 . S
O413 C417 1.246 . S
O414 Mg409 2.032 . S
O414 C417 1.259 . S
O415 Mg406 2.114 . S
O415 C418 1.252 . S
O416 Mg406 2.251 . S
O416 Mg409 2.079 . S
O416 C418 1.273 . S
C417 O413 1.246 . S
C417 O414 1.259 . S
C418 O415 1.252 . S
C418 O416 1.273 . S
O419 Mg406 2.010 . S
O419 C411 1.249 . S
Mg420 O421 2.028 . S
Mg420 O427 1.986 . S
Mg420 O429 2.114 . S
Mg420 O430 2.251 . S
Mg420 O433 2.010 . S
O421 Mg420 2.028 . S
O421 C424 1.250 . S
O422 Mg423 2.028 . S
O422 C424 1.248 . S
Mg423 O422 2.028 . S
Mg423 O428 2.032 . S
Mg423 O430 2.079 . S
C424 O421 1.250 . S
C424 O422 1.248 . S
C425 O426 1.264 . S
C425 O433 1.249 . S
O426 C425 1.264 . S
O427 Mg420 1.986 . S
O427 C431 1.246 . S
O428 Mg423 2.032 . S
O428 C431 1.259 . S
O429 Mg420 2.114 . S
O429 C432 1.252 . S
O430 Mg420 2.251 . S
O430 Mg423 2.079 . S
O430 C432 1.273 . S
C431 O427 1.246 . S
C431 O428 1.259 . S
C432 O429 1.252 . S
C432 O430 1.273 . S
O433 Mg420 2.010 . S
O433 C425 1.249 . S
Mg434 O435 2.028 . S
Mg434 O441 1.986 . S
Mg434 O443 2.114 . S
Mg434 O444 2.251 . S
Mg434 O447 2.010 . S
O435 Mg434 2.028 . S
O435 C438 1.250 . S
O436 Mg437 2.028 . S
O436 C438 1.248 . S
Mg437 O436 2.028 . S
Mg437 O442 2.032 . S
Mg437 O444 2.079 . S
C438 O435 1.250 . S
C438 O436 1.248 . S
C439 O440 1.264 . S
C439 O447 1.249 . S
O440 C439 1.264 . S
O441 Mg434 1.986 . S
O441 C445 1.246 . S
O442 Mg437 2.032 . S
O442 C445 1.259 . S
O443 Mg434 2.114 . S
O443 C446 1.252 . S
O444 Mg434 2.251 . S
O444 Mg437 2.079 . S
O444 C446 1.273 . S
C445 O441 1.246 . S
C445 O442 1.259 . S
C446 O443 1.252 . S
C446 O444 1.273 . S
O447 Mg434 2.010 . S
O447 C439 1.249 . S
H448 C456 0.929 . S
H449 C458 0.930 . S
H450 C460 0.930 . S
H451 C463 0.929 . S
H452 C466 0.930 . S
H453 C468 0.960 . S
H454 C468 0.960 . S
H455 C468 0.960 . S
C456 H448 0.929 . S
C456 C457 1.377 . S
C456 C458 1.384 . S
C457 C456 1.377 . S
C457 C463 1.390 . S
C458 H449 0.930 . S
C458 C456 1.384 . S
C458 C459 1.372 . S
C459 C458 1.372 . S
C459 C460 1.400 . S
C459 C464 1.490 . S
C460 H450 0.930 . S
C460 C459 1.400 . S
C460 C463 1.386 . S
H461 C477 0.930 . S
H462 C478 0.931 . S
C463 H451 0.929 . S
C463 C457 1.390 . S
C463 C460 1.386 . S
C464 C459 1.490 . S
C464 C466 1.395 . S
C464 C467 1.403 . S
H465 C471 0.930 . S
C466 H452 0.930 . S
C466 C464 1.395 . S
C466 C469 1.403 . S
C467 C464 1.403 . S
C467 C468 1.524 . S
C467 C471 1.400 . S
C468 H453 0.960 . S
C468 H454 0.960 . S
C468 H455 0.960 . S
C468 C467 1.524 . S
C469 C466 1.403 . S
C469 C470 1.392 . S
C469 C473 1.495 . S
C470 C469 1.392 . S
C470 C471 1.385 . S
C470 C472 1.478 . S
C471 H465 0.930 . S
C471 C467 1.400 . S
C471 C470 1.385 . S
C472 C470 1.478 . S
C472 C474 1.381 . S
C472 C478 1.383 . S
C473 C469 1.495 . S
C473 H479 0.959 . S
C473 H480 0.961 . S
C473 H481 0.960 . S
C474 C472 1.381 . S
C474 C475 1.394 . S
C474 H482 0.930 . S
C475 C474 1.394 . S
C475 C476 1.383 . S
C475 H483 0.929 . S
C476 C475 1.383 . S
C476 C477 1.377 . S
C477 H461 0.930 . S
C477 C476 1.377 . S
C477 C478 1.379 . S
C478 H462 0.931 . S
C478 C472 1.383 . S
C478 C477 1.379 . S
H479 C473 0.959 . S
H480 C473 0.961 . S
H481 C473 0.960 . S
H482 C474 0.930 . S
H483 C475 0.929 . S
H484 C492 0.929 . S
H485 C494 0.930 . S
H486 C496 0.930 . S
H487 C499 0.929 . S
H488 C502 0.930 . S
H489 C504 0.960 . S
H490 C504 0.960 . S
H491 C504 0.960 . S
C492 H484 0.929 . S
C492 C493 1.377 . S
C492 C494 1.384 . S
C493 C492 1.377 . S
C493 C499 1.390 . S
C494 H485 0.930 . S
C494 C492 1.384 . S
C494 C495 1.372 . S
C495 C494 1.372 . S
C495 C496 1.400 . S
C495 C500 1.490 . S
C496 H486 0.930 . S
C496 C495 1.400 . S
C496 C499 1.386 . S
H497 C513 0.930 . S
H498 C514 0.931 . S
C499 H487 0.929 . S
C499 C493 1.390 . S
C499 C496 1.386 . S
C500 C495 1.490 . S
C500 C502 1.395 . S
C500 C503 1.403 . S
H501 C507 0.930 . S
C502 H488 0.930 . S
C502 C500 1.395 . S
C502 C505 1.403 . S
C503 C500 1.403 . S
C503 C504 1.524 . S
C503 C507 1.400 . S
C504 H489 0.960 . S
C504 H490 0.960 . S
C504 H491 0.960 . S
C504 C503 1.524 . S
C505 C502 1.403 . S
C505 C506 1.392 . S
C505 C509 1.495 . S
C506 C505 1.392 . S
C506 C507 1.385 . S
C506 C508 1.478 . S
C507 H501 0.930 . S
C507 C503 1.400 . S
C507 C506 1.385 . S
C508 C506 1.478 . S
C508 C510 1.381 . S
C508 C514 1.383 . S
C509 C505 1.495 . S
C509 H515 0.959 . S
C509 H516 0.961 . S
C509 H517 0.960 . S
C510 C508 1.381 . S
C510 C511 1.394 . S
C510 H518 0.930 . S
C511 C510 1.394 . S
C511 C512 1.383 . S
C511 H519 0.929 . S
C512 C511 1.383 . S
C512 C513 1.377 . S
C513 H497 0.930 . S
C513 C512 1.377 . S
C513 C514 1.379 . S
C514 H498 0.931 . S
C514 C508 1.383 . S
C514 C513 1.379 . S
H515 C509 0.959 . S
H516 C509 0.961 . S
H517 C509 0.960 . S
H518 C510 0.930 . S
H519 C511 0.929 . S
H520 C528 0.929 . S
H521 C530 0.930 . S
H522 C532 0.930 . S
H523 C535 0.929 . S
H524 C538 0.930 . S
H525 C540 0.960 . S
H526 C540 0.960 . S
H527 C540 0.960 . S
C528 H520 0.929 . S
C528 C529 1.377 . S
C528 C530 1.384 . S
C529 C528 1.377 . S
C529 C535 1.390 . S
C530 H521 0.930 . S
C530 C528 1.384 . S
C530 C531 1.372 . S
C531 C530 1.372 . S
C531 C532 1.400 . S
C531 C536 1.490 . S
C532 H522 0.930 . S
C532 C531 1.400 . S
C532 C535 1.386 . S
H533 C549 0.930 . S
H534 C550 0.931 . S
C535 H523 0.929 . S
C535 C529 1.390 . S
C535 C532 1.386 . S
C536 C531 1.490 . S
C536 C538 1.395 . S
C536 C539 1.403 . S
H537 C543 0.930 . S
C538 H524 0.930 . S
C538 C536 1.395 . S
C538 C541 1.403 . S
C539 C536 1.403 . S
C539 C540 1.524 . S
C539 C543 1.400 . S
C540 H525 0.960 . S
C540 H526 0.960 . S
C540 H527 0.960 . S
C540 C539 1.524 . S
C541 C538 1.403 . S
C541 C542 1.392 . S
C541 C545 1.495 . S
C542 C541 1.392 . S
C542 C543 1.385 . S
C542 C544 1.478 . S
C543 H537 0.930 . S
C543 C539 1.400 . S
C543 C542 1.385 . S
C544 C542 1.478 . S
C544 C546 1.381 . S
C544 C550 1.383 . S
C545 C541 1.495 . S
C545 H551 0.959 . S
C545 H552 0.961 . S
C545 H553 0.960 . S
C546 C544 1.381 . S
C546 C547 1.394 . S
C546 H554 0.930 . S
C547 C546 1.394 . S
C547 C548 1.383 . S
C547 H555 0.929 . S
C548 C547 1.383 . S
C548 C549 1.377 . S
C549 H533 0.930 . S
C549 C548 1.377 . S
C549 C550 1.379 . S
C550 H534 0.931 . S
C550 C544 1.383 . S
C550 C549 1.379 . S
H551 C545 0.959 . S
H552 C545 0.961 . S
H553 C545 0.960 . S
H554 C546 0.930 . S
H555 C547 0.929 . S
H556 C564 0.929 . S
H557 C566 0.930 . S
H558 C568 0.930 . S
H559 C571 0.929 . S
H560 C574 0.930 . S
H561 C576 0.960 . S
H562 C576 0.960 . S
H563 C576 0.960 . S
C564 H556 0.929 . S
C564 C565 1.377 . S
C564 C566 1.384 . S
C565 C564 1.377 . S
C565 C571 1.390 . S
C566 H557 0.930 . S
C566 C564 1.384 . S
C566 C567 1.372 . S
C567 C566 1.372 . S
C567 C568 1.400 . S
C567 C572 1.490 . S
C568 H558 0.930 . S
C568 C567 1.400 . S
C568 C571 1.386 . S
H569 C585 0.930 . S
H570 C586 0.931 . S
C571 H559 0.929 . S
C571 C565 1.390 . S
C571 C568 1.386 . S
C572 C567 1.490 . S
C572 C574 1.395 . S
C572 C575 1.403 . S
H573 C579 0.930 . S
C574 H560 0.930 . S
C574 C572 1.395 . S
C574 C577 1.403 . S
C575 C572 1.403 . S
C575 C576 1.524 . S
C575 C579 1.400 . S
C576 H561 0.960 . S
C576 H562 0.960 . S
C576 H563 0.960 . S
C576 C575 1.524 . S
C577 C574 1.403 . S
C577 C578 1.392 . S
C577 C581 1.495 . S
C578 C577 1.392 . S
C578 C579 1.385 . S
C578 C580 1.478 . S
C579 H573 0.930 . S
C579 C575 1.400 . S
C579 C578 1.385 . S
C580 C578 1.478 . S
C580 C582 1.381 . S
C580 C586 1.383 . S
C581 C577 1.495 . S
C581 H587 0.959 . S
C581 H588 0.961 . S
C581 H589 0.960 . S
C582 C580 1.381 . S
C582 C583 1.394 . S
C582 H590 0.930 . S
C583 C582 1.394 . S
C583 C584 1.383 . S
C583 H591 0.929 . S
C584 C583 1.383 . S
C584 C585 1.377 . S
C585 H569 0.930 . S
C585 C584 1.377 . S
C585 C586 1.379 . S
C586 H570 0.931 . S
C586 C580 1.383 . S
C586 C585 1.379 . S
H587 C581 0.959 . S
H588 C581 0.961 . S
H589 C581 0.960 . S
H590 C582 0.930 . S
H591 C583 0.929 . S
H592 C600 0.929 . S
H593 C602 0.930 . S
H594 C604 0.930 . S
H595 C607 0.929 . S
H596 C610 0.930 . S
H597 C612 0.960 . S
H598 C612 0.960 . S
H599 C612 0.960 . S
C600 H592 0.929 . S
C600 C601 1.377 . S
C600 C602 1.384 . S
C601 C600 1.377 . S
C601 C607 1.390 . S
C602 H593 0.930 . S
C602 C600 1.384 . S
C602 C603 1.372 . S
C603 C602 1.372 . S
C603 C604 1.400 . S
C603 C608 1.490 . S
C604 H594 0.930 . S
C604 C603 1.400 . S
C604 C607 1.386 . S
H605 C621 0.930 . S
H606 C622 0.931 . S
C607 H595 0.929 . S
C607 C601 1.390 . S
C607 C604 1.386 . S
C608 C603 1.490 . S
C608 C610 1.395 . S
C608 C611 1.403 . S
H609 C615 0.930 . S
C610 H596 0.930 . S
C610 C608 1.395 . S
C610 C613 1.403 . S
C611 C608 1.403 . S
C611 C612 1.524 . S
C611 C615 1.400 . S
C612 H597 0.960 . S
C612 H598 0.960 . S
C612 H599 0.960 . S
C612 C611 1.524 . S
C613 C610 1.403 . S
C613 C614 1.392 . S
C613 C617 1.495 . S
C614 C613 1.392 . S
C614 C615 1.385 . S
C614 C616 1.478 . S
C615 H609 0.930 . S
C615 C611 1.400 . S
C615 C614 1.385 . S
C616 C614 1.478 . S
C616 C618 1.381 . S
C616 C622 1.383 . S
C617 C613 1.495 . S
C617 H623 0.959 . S
C617 H624 0.961 . S
C617 H625 0.960 . S
C618 C616 1.381 . S
C618 C619 1.394 . S
C618 H626 0.930 . S
C619 C618 1.394 . S
C619 C620 1.383 . S
C619 H627 0.929 . S
C620 C619 1.383 . S
C620 C621 1.377 . S
C621 H605 0.930 . S
C621 C620 1.377 . S
C621 C622 1.379 . S
C622 H606 0.931 . S
C622 C616 1.383 . S
C622 C621 1.379 . S
H623 C617 0.959 . S
H624 C617 0.961 . S
H625 C617 0.960 . S
H626 C618 0.930 . S
H627 C619 0.929 . S
H628 C636 0.929 . S
H629 C638 0.930 . S
H630 C640 0.930 . S
H631 C643 0.929 . S
H632 C646 0.930 . S
H633 C648 0.960 . S
H634 C648 0.960 . S
H635 C648 0.960 . S
C636 H628 0.929 . S
C636 C637 1.377 . S
C636 C638 1.384 . S
C637 C636 1.377 . S
C637 C643 1.390 . S
C638 H629 0.930 . S
C638 C636 1.384 . S
C638 C639 1.372 . S
C639 C638 1.372 . S
C639 C640 1.400 . S
C639 C644 1.490 . S
C640 H630 0.930 . S
C640 C639 1.400 . S
C640 C643 1.386 . S
H641 C657 0.930 . S
H642 C658 0.931 . S
C643 H631 0.929 . S
C643 C637 1.390 . S
C643 C640 1.386 . S
C644 C639 1.490 . S
C644 C646 1.395 . S
C644 C647 1.403 . S
H645 C651 0.930 . S
C646 H632 0.930 . S
C646 C644 1.395 . S
C646 C649 1.403 . S
C647 C644 1.403 . S
C647 C648 1.524 . S
C647 C651 1.400 . S
C648 H633 0.960 . S
C648 H634 0.960 . S
C648 H635 0.960 . S
C648 C647 1.524 . S
C649 C646 1.403 . S
C649 C650 1.392 . S
C649 C653 1.495 . S
C650 C649 1.392 . S
C650 C651 1.385 . S
C650 C652 1.478 . S
C651 H645 0.930 . S
C651 C647 1.400 . S
C651 C650 1.385 . S
C652 C650 1.478 . S
C652 C654 1.381 . S
C652 C658 1.383 . S
C653 C649 1.495 . S
C653 H659 0.959 . S
C653 H660 0.961 . S
C653 H661 0.960 . S
C654 C652 1.381 . S
C654 C655 1.394 . S
C654 H662 0.930 . S
C655 C654 1.394 . S
C655 C656 1.383 . S
C655 H663 0.929 . S
C656 C655 1.383 . S
C656 C657 1.377 . S
C657 H641 0.930 . S
C657 C656 1.377 . S
C657 C658 1.379 . S
C658 H642 0.931 . S
C658 C652 1.383 . S
C658 C657 1.379 . S
H659 C653 0.959 . S
H660 C653 0.961 . S
H661 C653 0.960 . S
H662 C654 0.930 . S
H663 C655 0.929 . S
H664 C672 0.929 . S
H665 C674 0.930 . S
H666 C676 0.930 . S
H667 C679 0.929 . S
H668 C682 0.930 . S
H669 C684 0.960 . S
H670 C684 0.960 . S
H671 C684 0.960 . S
C672 H664 0.929 . S
C672 C673 1.377 . S
C672 C674 1.384 . S
C673 C672 1.377 . S
C673 C679 1.390 . S
C674 H665 0.930 . S
C674 C672 1.384 . S
C674 C675 1.372 . S
C675 C674 1.372 . S
C675 C676 1.400 . S
C675 C680 1.490 . S
C676 H666 0.930 . S
C676 C675 1.400 . S
C676 C679 1.386 . S
H677 C693 0.930 . S
H678 C694 0.931 . S
C679 H667 0.929 . S
C679 C673 1.390 . S
C679 C676 1.386 . S
C680 C675 1.490 . S
C680 C682 1.395 . S
C680 C683 1.403 . S
H681 C687 0.930 . S
C682 H668 0.930 . S
C682 C680 1.395 . S
C682 C685 1.403 . S
C683 C680 1.403 . S
C683 C684 1.524 . S
C683 C687 1.400 . S
C684 H669 0.960 . S
C684 H670 0.960 . S
C684 H671 0.960 . S
C684 C683 1.524 . S
C685 C682 1.403 . S
C685 C686 1.392 . S
C685 C689 1.495 . S
C686 C685 1.392 . S
C686 C687 1.385 . S
C686 C688 1.478 . S
C687 H681 0.930 . S
C687 C683 1.400 . S
C687 C686 1.385 . S
C688 C686 1.478 . S
C688 C690 1.381 . S
C688 C694 1.383 . S
C689 C685 1.495 . S
C689 H695 0.959 . S
C689 H696 0.961 . S
C689 H697 0.960 . S
C690 C688 1.381 . S
C690 C691 1.394 . S
C690 H698 0.930 . S
C691 C690 1.394 . S
C691 C692 1.383 . S
C691 H699 0.929 . S
C692 C691 1.383 . S
C692 C693 1.377 . S
C693 H677 0.930 . S
C693 C692 1.377 . S
C693 C694 1.379 . S
C694 H678 0.931 . S
C694 C688 1.383 . S
C694 C693 1.379 . S
H695 C689 0.959 . S
H696 C689 0.961 . S
H697 C689 0.960 . S
H698 C690 0.930 . S
H699 C691 0.929 . S
H700 C708 0.929 . S
H701 C710 0.930 . S
H702 C712 0.930 . S
H703 C715 0.929 . S
H704 C718 0.930 . S
H705 C720 0.960 . S
H706 C720 0.960 . S
H707 C720 0.960 . S
C708 H700 0.929 . S
C708 C709 1.377 . S
C708 C710 1.384 . S
C709 C708 1.377 . S
C709 C715 1.390 . S
C710 H701 0.930 . S
C710 C708 1.384 . S
C710 C711 1.372 . S
C711 C710 1.372 . S
C711 C712 1.400 . S
C711 C716 1.490 . S
C712 H702 0.930 . S
C712 C711 1.400 . S
C712 C715 1.386 . S
H713 C729 0.930 . S
H714 C730 0.931 . S
C715 H703 0.929 . S
C715 C709 1.390 . S
C715 C712 1.386 . S
C716 C711 1.490 . S
C716 C718 1.395 . S
C716 C719 1.403 . S
H717 C723 0.930 . S
C718 H704 0.930 . S
C718 C716 1.395 . S
C718 C721 1.403 . S
C719 C716 1.403 . S
C719 C720 1.524 . S
C719 C723 1.400 . S
C720 H705 0.960 . S
C720 H706 0.960 . S
C720 H707 0.960 . S
C720 C719 1.524 . S
C721 C718 1.403 . S
C721 C722 1.392 . S
C721 C725 1.495 . S
C722 C721 1.392 . S
C722 C723 1.385 . S
C722 C724 1.478 . S
C723 H717 0.930 . S
C723 C719 1.400 . S
C723 C722 1.385 . S
C724 C722 1.478 . S
C724 C726 1.381 . S
C724 C730 1.383 . S
C725 C721 1.495 . S
C725 H731 0.959 . S
C725 H732 0.961 . S
C725 H733 0.960 . S
C726 C724 1.381 . S
C726 C727 1.394 . S
C726 H734 0.930 . S
C727 C726 1.394 . S
C727 C728 1.383 . S
C727 H735 0.929 . S
C728 C727 1.383 . S
C728 C729 1.377 . S
C729 H713 0.930 . S
C729 C728 1.377 . S
C729 C730 1.379 . S
C730 H714 0.931 . S
C730 C724 1.383 . S
C730 C729 1.379 . S
H731 C725 0.959 . S
H732 C725 0.961 . S
H733 C725 0.960 . S
H734 C726 0.930 . S
H735 C727 0.929 . S
H736 C744 0.929 . S
H737 C746 0.930 . S
H738 C748 0.930 . S
H739 C751 0.929 . S
H740 C754 0.930 . S
H741 C756 0.960 . S
H742 C756 0.960 . S
H743 C756 0.960 . S
C744 H736 0.929 . S
C744 C745 1.377 . S
C744 C746 1.384 . S
C745 C744 1.377 . S
C745 C751 1.390 . S
C746 H737 0.930 . S
C746 C744 1.384 . S
C746 C747 1.372 . S
C747 C746 1.372 . S
C747 C748 1.400 . S
C747 C752 1.490 . S
C748 H738 0.930 . S
C748 C747 1.400 . S
C748 C751 1.386 . S
H749 C765 0.930 . S
H750 C766 0.931 . S
C751 H739 0.929 . S
C751 C745 1.390 . S
C751 C748 1.386 . S
C752 C747 1.490 . S
C752 C754 1.395 . S
C752 C755 1.403 . S
H753 C759 0.930 . S
C754 H740 0.930 . S
C754 C752 1.395 . S
C754 C757 1.403 . S
C755 C752 1.403 . S
C755 C756 1.524 . S
C755 C759 1.400 . S
C756 H741 0.960 . S
C756 H742 0.960 . S
C756 H743 0.960 . S
C756 C755 1.524 . S
C757 C754 1.403 . S
C757 C758 1.392 . S
C757 C761 1.495 . S
C758 C757 1.392 . S
C758 C759 1.385 . S
C758 C760 1.478 . S
C759 H753 0.930 . S
C759 C755 1.400 . S
C759 C758 1.385 . S
C760 C758 1.478 . S
C760 C762 1.381 . S
C760 C766 1.383 . S
C761 C757 1.495 . S
C761 H767 0.959 . S
C761 H768 0.961 . S
C761 H769 0.960 . S
C762 C760 1.381 . S
C762 C763 1.394 . S
C762 H770 0.930 . S
C763 C762 1.394 . S
C763 C764 1.383 . S
C763 H771 0.929 . S
C764 C763 1.383 . S
C764 C765 1.377 . S
C765 H749 0.930 . S
C765 C764 1.377 . S
C765 C766 1.379 . S
C766 H750 0.931 . S
C766 C760 1.383 . S
C766 C765 1.379 . S
H767 C761 0.959 . S
H768 C761 0.961 . S
H769 C761 0.960 . S
H770 C762 0.930 . S
H771 C763 0.929 . S
H772 C780 0.929 . S
H773 C782 0.930 . S
H774 C784 0.930 . S
H775 C787 0.929 . S
H776 C790 0.930 . S
H777 C792 0.960 . S
H778 C792 0.960 . S
H779 C792 0.960 . S
C780 H772 0.929 . S
C780 C781 1.377 . S
C780 C782 1.384 . S
C781 C780 1.377 . S
C781 C787 1.390 . S
C782 H773 0.930 . S
C782 C780 1.384 . S
C782 C783 1.372 . S
C783 C782 1.372 . S
C783 C784 1.400 . S
C783 C788 1.490 . S
C784 H774 0.930 . S
C784 C783 1.400 . S
C784 C787 1.386 . S
H785 C801 0.930 . S
H786 C802 0.931 . S
C787 H775 0.929 . S
C787 C781 1.390 . S
C787 C784 1.386 . S
C788 C783 1.490 . S
C788 C790 1.395 . S
C788 C791 1.403 . S
H789 C795 0.930 . S
C790 H776 0.930 . S
C790 C788 1.395 . S
C790 C793 1.403 . S
C791 C788 1.403 . S
C791 C792 1.524 . S
C791 C795 1.400 . S
C792 H777 0.960 . S
C792 H778 0.960 . S
C792 H779 0.960 . S
C792 C791 1.524 . S
C793 C790 1.403 . S
C793 C794 1.392 . S
C793 C797 1.495 . S
C794 C793 1.392 . S
C794 C795 1.385 . S
C794 C796 1.478 . S
C795 H789 0.930 . S
C795 C791 1.400 . S
C795 C794 1.385 . S
C796 C794 1.478 . S
C796 C798 1.381 . S
C796 C802 1.383 . S
C797 C793 1.495 . S
C797 H803 0.959 . S
C797 H804 0.961 . S
C797 H805 0.960 . S
C798 C796 1.381 . S
C798 C799 1.394 . S
C798 H806 0.930 . S
C799 C798 1.394 . S
C799 C800 1.383 . S
C799 H807 0.929 . S
C800 C799 1.383 . S
C800 C801 1.377 . S
C801 H785 0.930 . S
C801 C800 1.377 . S
C801 C802 1.379 . S
C802 H786 0.931 . S
C802 C796 1.383 . S
C802 C801 1.379 . S
H803 C797 0.959 . S
H804 C797 0.961 . S
H805 C797 0.960 . S
H806 C798 0.930 . S
H807 C799 0.929 . S
H808 C816 0.929 . S
H809 C818 0.930 . S
H810 C820 0.930 . S
H811 C823 0.929 . S
H812 C826 0.930 . S
H813 C828 0.960 . S
H814 C828 0.960 . S
H815 C828 0.960 . S
C816 H808 0.929 . S
C816 C817 1.377 . S
C816 C818 1.384 . S
C817 C816 1.377 . S
C817 C823 1.390 . S
C818 H809 0.930 . S
C818 C816 1.384 . S
C818 C819 1.372 . S
C819 C818 1.372 . S
C819 C820 1.400 . S
C819 C824 1.490 . S
C820 H810 0.930 . S
C820 C819 1.400 . S
C820 C823 1.386 . S
H821 C837 0.930 . S
H822 C838 0.931 . S
C823 H811 0.929 . S
C823 C817 1.390 . S
C823 C820 1.386 . S
C824 C819 1.490 . S
C824 C826 1.395 . S
C824 C827 1.403 . S
H825 C831 0.930 . S
C826 H812 0.930 . S
C826 C824 1.395 . S
C826 C829 1.403 . S
C827 C824 1.403 . S
C827 C828 1.524 . S
C827 C831 1.400 . S
C828 H813 0.960 . S
C828 H814 0.960 . S
C828 H815 0.960 . S
C828 C827 1.524 . S
C829 C826 1.403 . S
C829 C830 1.392 . S
C829 C833 1.495 . S
C830 C829 1.392 . S
C830 C831 1.385 . S
C830 C832 1.478 . S
C831 H825 0.930 . S
C831 C827 1.400 . S
C831 C830 1.385 . S
C832 C830 1.478 . S
C832 C834 1.381 . S
C832 C838 1.383 . S
C833 C829 1.495 . S
C833 H839 0.959 . S
C833 H840 0.961 . S
C833 H841 0.960 . S
C834 C832 1.381 . S
C834 C835 1.394 . S
C834 H842 0.930 . S
C835 C834 1.394 . S
C835 C836 1.383 . S
C835 H843 0.929 . S
C836 C835 1.383 . S
C836 C837 1.377 . S
C837 H821 0.930 . S
C837 C836 1.377 . S
C837 C838 1.379 . S
C838 H822 0.931 . S
C838 C832 1.383 . S
C838 C837 1.379 . S
H839 C833 0.959 . S
H840 C833 0.961 . S
H841 C833 0.960 . S
H842 C834 0.930 . S
H843 C835 0.929 . S
H844 C852 0.929 . S
H845 C854 0.930 . S
H846 C856 0.930 . S
H847 C859 0.929 . S
H848 C862 0.930 . S
H849 C864 0.960 . S
H850 C864 0.960 . S
H851 C864 0.960 . S
C852 H844 0.929 . S
C852 C853 1.377 . S
C852 C854 1.384 . S
C853 C852 1.377 . S
C853 C859 1.390 . S
C854 H845 0.930 . S
C854 C852 1.384 . S
C854 C855 1.372 . S
C855 C854 1.372 . S
C855 C856 1.400 . S
C855 C860 1.490 . S
C856 H846 0.930 . S
C856 C855 1.400 . S
C856 C859 1.386 . S
H857 C873 0.930 . S
H858 C874 0.931 . S
C859 H847 0.929 . S
C859 C853 1.390 . S
C859 C856 1.386 . S
C860 C855 1.490 . S
C860 C862 1.395 . S
C860 C863 1.403 . S
H861 C867 0.930 . S
C862 H848 0.930 . S
C862 C860 1.395 . S
C862 C865 1.403 . S
C863 C860 1.403 . S
C863 C864 1.524 . S
C863 C867 1.400 . S
C864 H849 0.960 . S
C864 H850 0.960 . S
C864 H851 0.960 . S
C864 C863 1.524 . S
C865 C862 1.403 . S
C865 C866 1.392 . S
C865 C869 1.495 . S
C866 C865 1.392 . S
C866 C867 1.385 . S
C866 C868 1.478 . S
C867 H861 0.930 . S
C867 C863 1.400 . S
C867 C866 1.385 . S
C868 C866 1.478 . S
C868 C870 1.381 . S
C868 C874 1.383 . S
C869 C865 1.495 . S
C869 H875 0.959 . S
C869 H876 0.961 . S
C869 H877 0.960 . S
C870 C868 1.381 . S
C870 C871 1.394 . S
C870 H878 0.930 . S
C871 C870 1.394 . S
C871 C872 1.383 . S
C871 H879 0.929 . S
C872 C871 1.383 . S
C872 C873 1.377 . S
C873 H857 0.930 . S
C873 C872 1.377 . S
C873 C874 1.379 . S
C874 H858 0.931 . S
C874 C868 1.383 . S
C874 C873 1.379 . S
H875 C869 0.959 . S
H876 C869 0.961 . S
H877 C869 0.960 . S
H878 C870 0.930 . S
H879 C871 0.929 . S
H880 C888 0.929 . S
H881 C890 0.930 . S
H882 C892 0.930 . S
H883 C895 0.929 . S
H884 C898 0.930 . S
H885 C900 0.960 . S
H886 C900 0.960 . S
H887 C900 0.960 . S
C888 H880 0.929 . S
C888 C889 1.377 . S
C888 C890 1.384 . S
C889 C888 1.377 . S
C889 C895 1.390 . S
C890 H881 0.930 . S
C890 C888 1.384 . S
C890 C891 1.372 . S
C891 C890 1.372 . S
C891 C892 1.400 . S
C891 C896 1.490 . S
C892 H882 0.930 . S
C892 C891 1.400 . S
C892 C895 1.386 . S
H893 C909 0.930 . S
H894 C910 0.931 . S
C895 H883 0.929 . S
C895 C889 1.390 . S
C895 C892 1.386 . S
C896 C891 1.490 . S
C896 C898 1.395 . S
C896 C899 1.403 . S
H897 C903 0.930 . S
C898 H884 0.930 . S
C898 C896 1.395 . S
C898 C901 1.403 . S
C899 C896 1.403 . S
C899 C900 1.524 . S
C899 C903 1.400 . S
C900 H885 0.960 . S
C900 H886 0.960 . S
C900 H887 0.960 . S
C900 C899 1.524 . S
C901 C898 1.403 . S
C901 C902 1.392 . S
C901 C905 1.495 . S
C902 C901 1.392 . S
C902 C903 1.385 . S
C902 C904 1.478 . S
C903 H897 0.930 . S
C903 C899 1.400 . S
C903 C902 1.385 . S
C904 C902 1.478 . S
C904 C906 1.381 . S
C904 C910 1.383 . S
C905 C901 1.495 . S
C905 H911 0.959 . S
C905 H912 0.961 . S
C905 H913 0.960 . S
C906 C904 1.381 . S
C906 C907 1.394 . S
C906 H914 0.930 . S
C907 C906 1.394 . S
C907 C908 1.383 . S
C907 H915 0.929 . S
C908 C907 1.383 . S
C908 C909 1.377 . S
C909 H893 0.930 . S
C909 C908 1.377 . S
C909 C910 1.379 . S
C910 H894 0.931 . S
C910 C904 1.383 . S
C910 C909 1.379 . S
H911 C905 0.959 . S
H912 C905 0.961 . S
H913 C905 0.960 . S
H914 C906 0.930 . S
H915 C907 0.929 . S
H916 C924 0.929 . S
H917 C926 0.930 . S
H918 C928 0.930 . S
H919 C931 0.929 . S
H920 C934 0.930 . S
H921 C936 0.960 . S
H922 C936 0.960 . S
H923 C936 0.960 . S
C924 H916 0.929 . S
C924 C925 1.377 . S
C924 C926 1.384 . S
C925 C924 1.377 . S
C925 C931 1.390 . S
C926 H917 0.930 . S
C926 C924 1.384 . S
C926 C927 1.372 . S
C927 C926 1.372 . S
C927 C928 1.400 . S
C927 C932 1.490 . S
C928 H918 0.930 . S
C928 C927 1.400 . S
C928 C931 1.386 . S
H929 C945 0.930 . S
H930 C946 0.931 . S
C931 H919 0.929 . S
C931 C925 1.390 . S
C931 C928 1.386 . S
C932 C927 1.490 . S
C932 C934 1.395 . S
C932 C935 1.403 . S
H933 C939 0.930 . S
C934 H920 0.930 . S
C934 C932 1.395 . S
C934 C937 1.403 . S
C935 C932 1.403 . S
C935 C936 1.524 . S
C935 C939 1.400 . S
C936 H921 0.960 . S
C936 H922 0.960 . S
C936 H923 0.960 . S
C936 C935 1.524 . S
C937 C934 1.403 . S
C937 C938 1.392 . S
C937 C941 1.495 . S
C938 C937 1.392 . S
C938 C939 1.385 . S
C938 C940 1.478 . S
C939 H933 0.930 . S
C939 C935 1.400 . S
C939 C938 1.385 . S
C940 C938 1.478 . S
C940 C942 1.381 . S
C940 C946 1.383 . S
C941 C937 1.495 . S
C941 H947 0.959 . S
C941 H948 0.961 . S
C941 H949 0.960 . S
C942 C940 1.381 . S
C942 C943 1.394 . S
C942 H950 0.930 . S
C943 C942 1.394 . S
C943 C944 1.383 . S
C943 H951 0.929 . S
C944 C943 1.383 . S
C944 C945 1.377 . S
C945 H929 0.930 . S
C945 C944 1.377 . S
C945 C946 1.379 . S
C946 H930 0.931 . S
C946 C940 1.383 . S
C946 C945 1.379 . S
H947 C941 0.959 . S
H948 C941 0.961 . S
H949 C941 0.960 . S
H950 C942 0.930 . S
H951 C943 0.929 . S
H952 C960 0.929 . S
H953 C962 0.930 . S
H954 C964 0.930 . S
H955 C967 0.929 . S
H956 C970 0.930 . S
H957 C972 0.960 . S
H958 C972 0.960 . S
H959 C972 0.960 . S
C960 H952 0.929 . S
C960 C961 1.377 . S
C960 C962 1.384 . S
C961 C960 1.377 . S
C961 C967 1.390 . S
C962 H953 0.930 . S
C962 C960 1.384 . S
C962 C963 1.372 . S
C963 C962 1.372 . S
C963 C964 1.400 . S
C963 C968 1.490 . S
C964 H954 0.930 . S
C964 C963 1.400 . S
C964 C967 1.386 . S
H965 C981 0.930 . S
H966 C982 0.931 . S
C967 H955 0.929 . S
C967 C961 1.390 . S
C967 C964 1.386 . S
C968 C963 1.490 . S
C968 C970 1.395 . S
C968 C971 1.403 . S
H969 C975 0.930 . S
C970 H956 0.930 . S
C970 C968 1.395 . S
C970 C973 1.403 . S
C971 C968 1.403 . S
C971 C972 1.524 . S
C971 C975 1.400 . S
C972 H957 0.960 . S
C972 H958 0.960 . S
C972 H959 0.960 . S
C972 C971 1.524 . S
C973 C970 1.403 . S
C973 C974 1.392 . S
C973 C977 1.495 . S
C974 C973 1.392 . S
C974 C975 1.385 . S
C974 C976 1.478 . S
C975 H969 0.930 . S
C975 C971 1.400 . S
C975 C974 1.385 . S
C976 C974 1.478 . S
C976 C978 1.381 . S
C976 C982 1.383 . S
C977 C973 1.495 . S
C977 H983 0.959 . S
C977 H984 0.961 . S
C977 H985 0.960 . S
C978 C976 1.381 . S
C978 C979 1.394 . S
C978 H986 0.930 . S
C979 C978 1.394 . S
C979 C980 1.383 . S
C979 H987 0.929 . S
C980 C979 1.383 . S
C980 C981 1.377 . S
C981 H965 0.930 . S
C981 C980 1.377 . S
C981 C982 1.379 . S
C982 H966 0.931 . S
C982 C976 1.383 . S
C982 C981 1.379 . S
H983 C977 0.959 . S
H984 C977 0.961 . S
H985 C977 0.960 . S
H986 C978 0.930 . S
H987 C979 0.929 . S
H988 C996 0.929 . S
H989 C998 0.930 . S
H990 C1000 0.930 . S
H991 C1003 0.929 . S
H992 C1006 0.930 . S
H993 C1008 0.960 . S
H994 C1008 0.960 . S
H995 C1008 0.960 . S
C996 H988 0.929 . S
C996 C997 1.377 . S
C996 C998 1.384 . S
C997 C996 1.377 . S
C997 C1003 1.390 . S
C998 H989 0.930 . S
C998 C996 1.384 . S
C998 C999 1.372 . S
C999 C998 1.372 . S
C999 C1000 1.400 . S
C999 C1004 1.490 . S
C1000 H990 0.930 . S
C1000 C999 1.400 . S
C1000 C1003 1.386 . S
H1001 C1017 0.930 . S
H1002 C1018 0.931 . S
C1003 H991 0.929 . S
C1003 C997 1.390 . S
C1003 C1000 1.386 . S
C1004 C999 1.490 . S
C1004 C1006 1.395 . S
C1004 C1007 1.403 . S
H1005 C1011 0.930 . S
C1006 H992 0.930 . S
C1006 C1004 1.395 . S
C1006 C1009 1.403 . S
C1007 C1004 1.403 . S
C1007 C1008 1.524 . S
C1007 C1011 1.400 . S
C1008 H993 0.960 . S
C1008 H994 0.960 . S
C1008 H995 0.960 . S
C1008 C1007 1.524 . S
C1009 C1006 1.403 . S
C1009 C1010 1.392 . S
C1009 C1013 1.495 . S
C1010 C1009 1.392 . S
C1010 C1011 1.385 . S
C1010 C1012 1.478 . S
C1011 H1005 0.930 . S
C1011 C1007 1.400 . S
C1011 C1010 1.385 . S
C1012 C1010 1.478 . S
C1012 C1014 1.381 . S
C1012 C1018 1.383 . S
C1013 C1009 1.495 . S
C1013 H1019 0.959 . S
C1013 H1020 0.961 . S
C1013 H1021 0.960 . S
C1014 C1012 1.381 . S
C1014 C1015 1.394 . S
C1014 H1022 0.930 . S
C1015 C1014 1.394 . S
C1015 C1016 1.383 . S
C1015 H1023 0.929 . S
C1016 C1015 1.383 . S
C1016 C1017 1.377 . S
C1017 H1001 0.930 . S
C1017 C1016 1.377 . S
C1017 C1018 1.379 . S
C1018 H1002 0.931 . S
C1018 C1012 1.383 . S
C1018 C1017 1.379 . S
H1019 C1013 0.959 . S
H1020 C1013 0.961 . S
H1021 C1013 0.960 . S
H1022 C1014 0.930 . S
H1023 C1015 0.929 . S
H1024 C1032 0.929 . S
H1025 C1034 0.930 . S
H1026 C1036 0.930 . S
H1027 C1039 0.929 . S
H1028 C1042 0.930 . S
H1029 C1044 0.960 . S
H1030 C1044 0.960 . S
H1031 C1044 0.960 . S
C1032 H1024 0.929 . S
C1032 C1033 1.377 . S
C1032 C1034 1.384 . S
C1033 C1032 1.377 . S
C1033 C1039 1.390 . S
C1034 H1025 0.930 . S
C1034 C1032 1.384 . S
C1034 C1035 1.372 . S
C1035 C1034 1.372 . S
C1035 C1036 1.400 . S
C1035 C1040 1.490 . S
C1036 H1026 0.930 . S
C1036 C1035 1.400 . S
C1036 C1039 1.386 . S
H1037 C1053 0.930 . S
H1038 C1054 0.931 . S
C1039 H1027 0.929 . S
C1039 C1033 1.390 . S
C1039 C1036 1.386 . S
C1040 C1035 1.490 . S
C1040 C1042 1.395 . S
C1040 C1043 1.403 . S
H1041 C1047 0.930 . S
C1042 H1028 0.930 . S
C1042 C1040 1.395 . S
C1042 C1045 1.403 1_455 S
C1043 C1040 1.403 . S
C1043 C1044 1.524 . S
C1043 C1047 1.400 1_455 S
C1044 H1029 0.960 . S
C1044 H1030 0.960 . S
C1044 H1031 0.960 . S
C1044 C1043 1.524 . S
C1045 C1042 1.403 1_655 S
C1045 C1046 1.392 . S
C1045 C1049 1.495 . S
C1046 C1045 1.392 . S
C1046 C1047 1.385 . S
C1046 C1048 1.478 . S
C1047 H1041 0.930 . S
C1047 C1043 1.400 1_655 S
C1047 C1046 1.385 . S
C1048 C1046 1.478 . S
C1048 C1050 1.381 . S
C1048 C1054 1.383 . S
C1049 C1045 1.495 . S
C1049 H1055 0.959 . S
C1049 H1056 0.961 . S
C1049 H1057 0.960 . S
C1050 C1048 1.381 . S
C1050 C1051 1.394 . S
C1050 H1058 0.930 . S
C1051 C1050 1.394 . S
C1051 C1052 1.383 . S
C1051 H1059 0.929 . S
C1052 C1051 1.383 . S
C1052 C1053 1.377 . S
C1053 H1037 0.930 . S
C1053 C1052 1.377 . S
C1053 C1054 1.379 . S
C1054 H1038 0.931 . S
C1054 C1048 1.383 . S
C1054 C1053 1.379 . S
H1055 C1049 0.959 . S
H1056 C1049 0.961 . S
H1057 C1049 0.960 . S
H1058 C1050 0.930 . S
H1059 C1051 0.929 . S
H1060 C1068 0.929 . S
H1061 C1070 0.930 . S
H1062 C1072 0.930 . S
H1063 C1075 0.929 . S
H1064 C1078 0.930 . S
H1065 C1080 0.960 . S
H1066 C1080 0.960 . S
H1067 C1080 0.960 . S
C1068 H1060 0.929 . S
C1068 C1069 1.377 . S
C1068 C1070 1.384 . S
C1069 C1068 1.377 . S
C1069 C1075 1.390 . S
C1070 H1061 0.930 . S
C1070 C1068 1.384 . S
C1070 C1071 1.372 . S
C1071 C1070 1.372 . S
C1071 C1072 1.400 . S
C1071 C1076 1.490 . S
C1072 H1062 0.930 . S
C1072 C1071 1.400 . S
C1072 C1075 1.386 . S
H1073 C1089 0.930 . S
H1074 C1090 0.931 . S
C1075 H1063 0.929 . S
C1075 C1069 1.390 . S
C1075 C1072 1.386 . S
C1076 C1071 1.490 . S
C1076 C1078 1.395 . S
C1076 C1079 1.403 . S
H1077 C1083 0.930 . S
C1078 H1064 0.930 . S
C1078 C1076 1.395 . S
C1078 C1081 1.403 . S
C1079 C1076 1.403 . S
C1079 C1080 1.524 . S
C1079 C1083 1.400 . S
C1080 H1065 0.960 . S
C1080 H1066 0.960 . S
C1080 H1067 0.960 . S
C1080 C1079 1.524 . S
C1081 C1078 1.403 . S
C1081 C1082 1.392 . S
C1081 C1085 1.495 . S
C1082 C1081 1.392 . S
C1082 C1083 1.385 . S
C1082 C1084 1.478 . S
C1083 H1077 0.930 . S
C1083 C1079 1.400 . S
C1083 C1082 1.385 . S
C1084 C1082 1.478 . S
C1084 C1086 1.381 . S
C1084 C1090 1.383 . S
C1085 C1081 1.495 . S
C1085 H1091 0.959 . S
C1085 H1092 0.961 . S
C1085 H1093 0.960 . S
C1086 C1084 1.381 . S
C1086 C1087 1.394 . S
C1086 H1094 0.930 . S
C1087 C1086 1.394 . S
C1087 C1088 1.383 . S
C1087 H1095 0.929 . S
C1088 C1087 1.383 . S
C1088 C1089 1.377 . S
C1089 H1073 0.930 . S
C1089 C1088 1.377 . S
C1089 C1090 1.379 . S
C1090 H1074 0.931 . S
C1090 C1084 1.383 . S
C1090 C1089 1.379 . S
H1091 C1085 0.959 . S
H1092 C1085 0.961 . S
H1093 C1085 0.960 . S
H1094 C1086 0.930 . S
H1095 C1087 0.929 . S
H1096 C1104 0.929 . S
H1097 C1106 0.930 . S
H1098 C1108 0.930 . S
H1099 C1111 0.929 . S
H1100 C1114 0.930 . S
H1101 C1116 0.960 . S
H1102 C1116 0.960 . S
H1103 C1116 0.960 . S
C1104 H1096 0.929 . S
C1104 C1105 1.377 . S
C1104 C1106 1.384 . S
C1105 C1104 1.377 . S
C1105 C1111 1.390 . S
C1106 H1097 0.930 . S
C1106 C1104 1.384 . S
C1106 C1107 1.372 . S
C1107 C1106 1.372 . S
C1107 C1108 1.400 . S
C1107 C1112 1.490 . S
C1108 H1098 0.930 . S
C1108 C1107 1.400 . S
C1108 C1111 1.386 . S
H1109 C1125 0.930 . S
H1110 C1126 0.931 . S
C1111 H1099 0.929 . S
C1111 C1105 1.390 . S
C1111 C1108 1.386 . S
C1112 C1107 1.490 . S
C1112 C1114 1.395 . S
C1112 C1115 1.403 . S
H1113 C1119 0.930 . S
C1114 H1100 0.930 . S
C1114 C1112 1.395 . S
C1114 C1117 1.403 . S
C1115 C1112 1.403 . S
C1115 C1116 1.524 . S
C1115 C1119 1.400 . S
C1116 H1101 0.960 . S
C1116 H1102 0.960 . S
C1116 H1103 0.960 . S
C1116 C1115 1.524 . S
C1117 C1114 1.403 . S
C1117 C1118 1.392 . S
C1117 C1121 1.495 . S
C1118 C1117 1.392 . S
C1118 C1119 1.385 . S
C1118 C1120 1.478 . S
C1119 H1113 0.930 . S
C1119 C1115 1.400 . S
C1119 C1118 1.385 . S
C1120 C1118 1.478 . S
C1120 C1122 1.381 . S
C1120 C1126 1.383 . S
C1121 C1117 1.495 . S
C1121 H1127 0.959 . S
C1121 H1128 0.961 . S
C1121 H1129 0.960 . S
C1122 C1120 1.381 . S
C1122 C1123 1.394 . S
C1122 H1130 0.930 . S
C1123 C1122 1.394 . S
C1123 C1124 1.383 . S
C1123 H1131 0.929 . S
C1124 C1123 1.383 . S
C1124 C1125 1.377 . S
C1125 H1109 0.930 . S
C1125 C1124 1.377 . S
C1125 C1126 1.379 . S
C1126 H1110 0.931 . S
C1126 C1120 1.383 . S
C1126 C1125 1.379 . S
H1127 C1121 0.959 . S
H1128 C1121 0.961 . S
H1129 C1121 0.960 . S
H1130 C1122 0.930 . S
H1131 C1123 0.929 . S
H1132 C1140 0.929 . S
H1133 C1142 0.930 . S
H1134 C1144 0.930 . S
H1135 C1147 0.929 . S
H1136 C1150 0.930 . S
H1137 C1152 0.960 . S
H1138 C1152 0.960 . S
H1139 C1152 0.960 . S
C1140 H1132 0.929 . S
C1140 C1141 1.377 . S
C1140 C1142 1.384 . S
C1141 C1140 1.377 . S
C1141 C1147 1.390 . S
C1142 H1133 0.930 . S
C1142 C1140 1.384 . S
C1142 C1143 1.372 . S
C1143 C1142 1.372 . S
C1143 C1144 1.400 . S
C1143 C1148 1.490 . S
C1144 H1134 0.930 . S
C1144 C1143 1.400 . S
C1144 C1147 1.386 . S
H1145 C1161 0.930 . S
H1146 C1162 0.931 . S
C1147 H1135 0.929 . S
C1147 C1141 1.390 . S
C1147 C1144 1.386 . S
C1148 C1143 1.490 . S
C1148 C1150 1.395 . S
C1148 C1151 1.403 . S
H1149 C1155 0.930 . S
C1150 H1136 0.930 . S
C1150 C1148 1.395 . S
C1150 C1153 1.403 . S
C1151 C1148 1.403 . S
C1151 C1152 1.524 . S
C1151 C1155 1.400 . S
C1152 H1137 0.960 . S
C1152 H1138 0.960 . S
C1152 H1139 0.960 . S
C1152 C1151 1.524 . S
C1153 C1150 1.403 . S
C1153 C1154 1.392 . S
C1153 C1157 1.495 . S
C1154 C1153 1.392 . S
C1154 C1155 1.385 . S
C1154 C1156 1.478 . S
C1155 H1149 0.930 . S
C1155 C1151 1.400 . S
C1155 C1154 1.385 . S
C1156 C1154 1.478 . S
C1156 C1158 1.381 . S
C1156 C1162 1.383 . S
C1157 C1153 1.495 . S
C1157 H1163 0.959 . S
C1157 H1164 0.961 . S
C1157 H1165 0.960 . S
C1158 C1156 1.381 . S
C1158 C1159 1.394 . S
C1158 H1166 0.930 . S
C1159 C1158 1.394 . S
C1159 C1160 1.383 . S
C1159 H1167 0.929 . S
C1160 C1159 1.383 . S
C1160 C1161 1.377 . S
C1161 H1145 0.930 . S
C1161 C1160 1.377 . S
C1161 C1162 1.379 . S
C1162 H1146 0.931 . S
C1162 C1156 1.383 . S
C1162 C1161 1.379 . S
H1163 C1157 0.959 . S
H1164 C1157 0.961 . S
H1165 C1157 0.960 . S
H1166 C1158 0.930 . S
H1167 C1159 0.929 . S
H1168 C1176 0.929 . S
H1169 C1178 0.930 . S
H1170 C1180 0.930 . S
H1171 C1183 0.929 . S
H1172 C1186 0.930 . S
H1173 C1188 0.960 . S
H1174 C1188 0.960 . S
H1175 C1188 0.960 . S
C1176 H1168 0.929 . S
C1176 C1177 1.377 . S
C1176 C1178 1.384 . S
C1177 C1176 1.377 . S
C1177 C1183 1.390 . S
C1178 H1169 0.930 . S
C1178 C1176 1.384 . S
C1178 C1179 1.372 . S
C1179 C1178 1.372 . S
C1179 C1180 1.400 . S
C1179 C1184 1.490 . S
C1180 H1170 0.930 . S
C1180 C1179 1.400 . S
C1180 C1183 1.386 . S
H1181 C1197 0.930 . S
H1182 C1198 0.931 . S
C1183 H1171 0.929 . S
C1183 C1177 1.390 . S
C1183 C1180 1.386 . S
C1184 C1179 1.490 . S
C1184 C1186 1.395 . S
C1184 C1187 1.403 . S
H1185 C1191 0.930 . S
C1186 H1172 0.930 . S
C1186 C1184 1.395 . S
C1186 C1189 1.403 1_655 S
C1187 C1184 1.403 . S
C1187 C1188 1.524 . S
C1187 C1191 1.400 1_655 S
C1188 H1173 0.960 . S
C1188 H1174 0.960 . S
C1188 H1175 0.960 . S
C1188 C1187 1.524 . S
C1189 C1186 1.403 1_455 S
C1189 C1190 1.392 . S
C1189 C1193 1.495 . S
C1190 C1189 1.392 . S
C1190 C1191 1.385 . S
C1190 C1192 1.478 . S
C1191 H1185 0.930 . S
C1191 C1187 1.400 1_455 S
C1191 C1190 1.385 . S
C1192 C1190 1.478 . S
C1192 C1194 1.381 . S
C1192 C1198 1.383 . S
C1193 C1189 1.495 . S
C1193 H1199 0.959 . S
C1193 H1200 0.961 . S
C1193 H1201 0.960 . S
C1194 C1192 1.381 . S
C1194 C1195 1.394 . S
C1194 H1202 0.930 . S
C1195 C1194 1.394 . S
C1195 C1196 1.383 . S
C1195 H1203 0.929 . S
C1196 C1195 1.383 . S
C1196 C1197 1.377 . S
C1197 H1181 0.930 . S
C1197 C1196 1.377 . S
C1197 C1198 1.379 . S
C1198 H1182 0.931 . S
C1198 C1192 1.383 . S
C1198 C1197 1.379 . S
H1199 C1193 0.959 . S
H1200 C1193 0.961 . S
H1201 C1193 0.960 . S
H1202 C1194 0.930 . S
H1203 C1195 0.929 . S
H1204 C1212 0.929 . S
H1205 C1214 0.930 . S
H1206 C1216 0.930 . S
H1207 C1219 0.929 . S
H1208 C1222 0.930 . S
H1209 C1224 0.960 . S
H1210 C1224 0.960 . S
H1211 C1224 0.960 . S
C1212 H1204 0.929 . S
C1212 C1213 1.377 . S
C1212 C1214 1.384 . S
C1213 C1212 1.377 . S
C1213 C1219 1.390 . S
C1214 H1205 0.930 . S
C1214 C1212 1.384 . S
C1214 C1215 1.372 . S
C1215 C1214 1.372 . S
C1215 C1216 1.400 . S
C1215 C1220 1.490 . S
C1216 H1206 0.930 . S
C1216 C1215 1.400 . S
C1216 C1219 1.386 . S
H1217 C1233 0.930 . S
H1218 C1234 0.931 . S
C1219 H1207 0.929 . S
C1219 C1213 1.390 . S
C1219 C1216 1.386 . S
C1220 C1215 1.490 . S
C1220 C1222 1.395 . S
C1220 C1223 1.403 . S
H1221 C1227 0.930 . S
C1222 H1208 0.930 . S
C1222 C1220 1.395 . S
C1222 C1225 1.403 . S
C1223 C1220 1.403 . S
C1223 C1224 1.524 . S
C1223 C1227 1.400 . S
C1224 H1209 0.960 . S
C1224 H1210 0.960 . S
C1224 H1211 0.960 . S
C1224 C1223 1.524 . S
C1225 C1222 1.403 . S
C1225 C1226 1.392 . S
C1225 C1229 1.495 . S
C1226 C1225 1.392 . S
C1226 C1227 1.385 . S
C1226 C1228 1.478 . S
C1227 H1221 0.930 . S
C1227 C1223 1.400 . S
C1227 C1226 1.385 . S
C1228 C1226 1.478 . S
C1228 C1230 1.381 . S
C1228 C1234 1.383 . S
C1229 C1225 1.495 . S
C1229 H1235 0.959 . S
C1229 H1236 0.961 . S
C1229 H1237 0.960 . S
C1230 C1228 1.381 . S
C1230 C1231 1.394 . S
C1230 H1238 0.930 . S
C1231 C1230 1.394 . S
C1231 C1232 1.383 . S
C1231 H1239 0.929 . S
C1232 C1231 1.383 . S
C1232 C1233 1.377 . S
C1233 H1217 0.930 . S
C1233 C1232 1.377 . S
C1233 C1234 1.379 . S
C1234 H1218 0.931 . S
C1234 C1228 1.383 . S
C1234 C1233 1.379 . S
H1235 C1229 0.959 . S
H1236 C1229 0.961 . S
H1237 C1229 0.960 . S
H1238 C1230 0.930 . S
H1239 C1231 0.929 . S
H1240 C1248 0.929 . S
H1241 C1250 0.930 . S
H1242 C1252 0.930 . S
H1243 C1255 0.929 . S
H1244 C1258 0.930 . S
H1245 C1260 0.960 . S
H1246 C1260 0.960 . S
H1247 C1260 0.960 . S
C1248 H1240 0.929 . S
C1248 C1249 1.377 . S
C1248 C1250 1.384 . S
C1249 C1248 1.377 . S
C1249 C1255 1.390 . S
C1250 H1241 0.930 . S
C1250 C1248 1.384 . S
C1250 C1251 1.372 . S
C1251 C1250 1.372 . S
C1251 C1252 1.400 . S
C1251 C1256 1.490 . S
C1252 H1242 0.930 . S
C1252 C1251 1.400 . S
C1252 C1255 1.386 . S
H1253 C1269 0.930 . S
H1254 C1270 0.931 . S
C1255 H1243 0.929 . S
C1255 C1249 1.390 . S
C1255 C1252 1.386 . S
C1256 C1251 1.490 . S
C1256 C1258 1.395 . S
C1256 C1259 1.403 . S
H1257 C1263 0.930 . S
C1258 H1244 0.930 . S
C1258 C1256 1.395 . S
C1258 C1261 1.403 . S
C1259 C1256 1.403 . S
C1259 C1260 1.524 . S
C1259 C1263 1.400 . S
C1260 H1245 0.960 . S
C1260 H1246 0.960 . S
C1260 H1247 0.960 . S
C1260 C1259 1.524 . S
C1261 C1258 1.403 . S
C1261 C1262 1.392 . S
C1261 C1265 1.495 . S
C1262 C1261 1.392 . S
C1262 C1263 1.385 . S
C1262 C1264 1.478 . S
C1263 H1257 0.930 . S
C1263 C1259 1.400 . S
C1263 C1262 1.385 . S
C1264 C1262 1.478 . S
C1264 C1266 1.381 . S
C1264 C1270 1.383 . S
C1265 C1261 1.495 . S
C1265 H1271 0.959 . S
C1265 H1272 0.961 . S
C1265 H1273 0.960 . S
C1266 C1264 1.381 . S
C1266 C1267 1.394 . S
C1266 H1274 0.930 . S
C1267 C1266 1.394 . S
C1267 C1268 1.383 . S
C1267 H1275 0.929 . S
C1268 C1267 1.383 . S
C1268 C1269 1.377 . S
C1269 H1253 0.930 . S
C1269 C1268 1.377 . S
C1269 C1270 1.379 . S
C1270 H1254 0.931 . S
C1270 C1264 1.383 . S
C1270 C1269 1.379 . S
H1271 C1265 0.959 . S
H1272 C1265 0.961 . S
H1273 C1265 0.960 . S
H1274 C1266 0.930 . S
H1275 C1267 0.929 . S
H1276 C1284 0.929 . S
H1277 C1286 0.930 . S
H1278 C1288 0.930 . S
H1279 C1291 0.929 . S
H1280 C1294 0.930 . S
H1281 C1296 0.960 . S
H1282 C1296 0.960 . S
H1283 C1296 0.960 . S
C1284 H1276 0.929 . S
C1284 C1285 1.377 . S
C1284 C1286 1.384 . S
C1285 C1284 1.377 . S
C1285 C1291 1.390 . S
C1286 H1277 0.930 . S
C1286 C1284 1.384 . S
C1286 C1287 1.372 . S
C1287 C1286 1.372 . S
C1287 C1288 1.400 . S
C1287 C1292 1.490 . S
C1288 H1278 0.930 . S
C1288 C1287 1.400 . S
C1288 C1291 1.386 . S
H1289 C1305 0.930 . S
H1290 C1306 0.931 . S
C1291 H1279 0.929 . S
C1291 C1285 1.390 . S
C1291 C1288 1.386 . S
C1292 C1287 1.490 . S
C1292 C1294 1.395 . S
C1292 C1295 1.403 . S
H1293 C1299 0.930 . S
C1294 H1280 0.930 . S
C1294 C1292 1.395 . S
C1294 C1297 1.403 . S
C1295 C1292 1.403 . S
C1295 C1296 1.524 . S
C1295 C1299 1.400 . S
C1296 H1281 0.960 . S
C1296 H1282 0.960 . S
C1296 H1283 0.960 . S
C1296 C1295 1.524 . S
C1297 C1294 1.403 . S
C1297 C1298 1.392 . S
C1297 C1301 1.495 . S
C1298 C1297 1.392 . S
C1298 C1299 1.385 . S
C1298 C1300 1.478 . S
C1299 H1293 0.930 . S
C1299 C1295 1.400 . S
C1299 C1298 1.385 . S
C1300 C1298 1.478 . S
C1300 C1302 1.381 . S
C1300 C1306 1.383 . S
C1301 C1297 1.495 . S
C1301 H1307 0.959 . S
C1301 H1308 0.961 . S
C1301 H1309 0.960 . S
C1302 C1300 1.381 . S
C1302 C1303 1.394 . S
C1302 H1310 0.930 . S
C1303 C1302 1.394 . S
C1303 C1304 1.383 . S
C1303 H1311 0.929 . S
C1304 C1303 1.383 . S
C1304 C1305 1.377 . S
C1305 H1289 0.930 . S
C1305 C1304 1.377 . S
C1305 C1306 1.379 . S
C1306 H1290 0.931 . S
C1306 C1300 1.383 . S
C1306 C1305 1.379 . S
H1307 C1301 0.959 . S
H1308 C1301 0.961 . S
H1309 C1301 0.960 . S
H1310 C1302 0.930 . S
H1311 C1303 0.929 . S
H1312 C1320 0.929 . S
H1313 C1322 0.930 . S
H1314 C1324 0.930 . S
H1315 C1327 0.929 . S
H1316 C1330 0.930 . S
H1317 C1332 0.960 . S
H1318 C1332 0.960 . S
H1319 C1332 0.960 . S
C1320 H1312 0.929 . S
C1320 C1321 1.377 . S
C1320 C1322 1.384 . S
C1321 C1320 1.377 . S
C1321 C1327 1.390 . S
C1322 H1313 0.930 . S
C1322 C1320 1.384 . S
C1322 C1323 1.372 . S
C1323 C1322 1.372 . S
C1323 C1324 1.400 . S
C1323 C1328 1.490 . S
C1324 H1314 0.930 . S
C1324 C1323 1.400 . S
C1324 C1327 1.386 . S
H1325 C1341 0.930 . S
H1326 C1342 0.931 . S
C1327 H1315 0.929 . S
C1327 C1321 1.390 . S
C1327 C1324 1.386 . S
C1328 C1323 1.490 . S
C1328 C1330 1.395 . S
C1328 C1331 1.403 . S
H1329 C1335 0.930 . S
C1330 H1316 0.930 . S
C1330 C1328 1.395 . S
C1330 C1333 1.403 . S
C1331 C1328 1.403 . S
C1331 C1332 1.524 . S
C1331 C1335 1.400 . S
C1332 H1317 0.960 . S
C1332 H1318 0.960 . S
C1332 H1319 0.960 . S
C1332 C1331 1.524 . S
C1333 C1330 1.403 . S
C1333 C1334 1.392 . S
C1333 C1337 1.495 . S
C1334 C1333 1.392 . S
C1334 C1335 1.385 . S
C1334 C1336 1.478 . S
C1335 H1329 0.930 . S
C1335 C1331 1.400 . S
C1335 C1334 1.385 . S
C1336 C1334 1.478 . S
C1336 C1338 1.381 . S
C1336 C1342 1.383 . S
C1337 C1333 1.495 . S
C1337 H1343 0.959 . S
C1337 H1344 0.961 . S
C1337 H1345 0.960 . S
C1338 C1336 1.381 . S
C1338 C1339 1.394 . S
C1338 H1346 0.930 . S
C1339 C1338 1.394 . S
C1339 C1340 1.383 . S
C1339 H1347 0.929 . S
C1340 C1339 1.383 . S
C1340 C1341 1.377 . S
C1341 H1325 0.930 . S
C1341 C1340 1.377 . S
C1341 C1342 1.379 . S
C1342 H1326 0.931 . S
C1342 C1336 1.383 . S
C1342 C1341 1.379 . S
H1343 C1337 0.959 . S
H1344 C1337 0.961 . S
H1345 C1337 0.960 . S
H1346 C1338 0.930 . S
H1347 C1339 0.929 . S
H1348 C1356 0.929 . S
H1349 C1358 0.930 . S
H1350 C1360 0.930 . S
H1351 C1363 0.929 . S
H1352 C1366 0.930 . S
H1353 C1368 0.960 . S
H1354 C1368 0.960 . S
H1355 C1368 0.960 . S
C1356 H1348 0.929 . S
C1356 C1357 1.377 . S
C1356 C1358 1.384 . S
C1357 C1356 1.377 . S
C1357 C1363 1.390 . S
C1358 H1349 0.930 . S
C1358 C1356 1.384 . S
C1358 C1359 1.372 . S
C1359 C1358 1.372 . S
C1359 C1360 1.400 . S
C1359 C1364 1.490 . S
C1360 H1350 0.930 . S
C1360 C1359 1.400 . S
C1360 C1363 1.386 . S
H1361 C1377 0.930 . S
H1362 C1378 0.931 . S
C1363 H1351 0.929 . S
C1363 C1357 1.390 . S
C1363 C1360 1.386 . S
C1364 C1359 1.490 . S
C1364 C1366 1.395 . S
C1364 C1367 1.403 . S
H1365 C1371 0.930 . S
C1366 H1352 0.930 . S
C1366 C1364 1.395 . S
C1366 C1369 1.403 . S
C1367 C1364 1.403 . S
C1367 C1368 1.524 . S
C1367 C1371 1.400 . S
C1368 H1353 0.960 . S
C1368 H1354 0.960 . S
C1368 H1355 0.960 . S
C1368 C1367 1.524 . S
C1369 C1366 1.403 . S
C1369 C1370 1.392 . S
C1369 C1373 1.495 . S
C1370 C1369 1.392 . S
C1370 C1371 1.385 . S
C1370 C1372 1.478 . S
C1371 H1365 0.930 . S
C1371 C1367 1.400 . S
C1371 C1370 1.385 . S
C1372 C1370 1.478 . S
C1372 C1374 1.381 . S
C1372 C1378 1.383 . S
C1373 C1369 1.495 . S
C1373 H1379 0.959 . S
C1373 H1380 0.961 . S
C1373 H1381 0.960 . S
C1374 C1372 1.381 . S
C1374 C1375 1.394 . S
C1374 H1382 0.930 . S
C1375 C1374 1.394 . S
C1375 C1376 1.383 . S
C1375 H1383 0.929 . S
C1376 C1375 1.383 . S
C1376 C1377 1.377 . S
C1377 H1361 0.930 . S
C1377 C1376 1.377 . S
C1377 C1378 1.379 . S
C1378 H1362 0.931 . S
C1378 C1372 1.383 . S
C1378 C1377 1.379 . S
H1379 C1373 0.959 . S
H1380 C1373 0.961 . S
H1381 C1373 0.960 . S
H1382 C1374 0.930 . S
H1383 C1375 0.929 . S
H1384 C1392 0.929 . S
H1385 C1394 0.930 . S
H1386 C1396 0.930 . S
H1387 C1399 0.929 . S
H1388 C1402 0.930 . S
H1389 C1404 0.960 . S
H1390 C1404 0.960 . S
H1391 C1404 0.960 . S
C1392 H1384 0.929 . S
C1392 C1393 1.377 . S
C1392 C1394 1.384 . S
C1393 C1392 1.377 . S
C1393 C1399 1.390 . S
C1394 H1385 0.930 . S
C1394 C1392 1.384 . S
C1394 C1395 1.372 . S
C1395 C1394 1.372 . S
C1395 C1396 1.400 . S
C1395 C1400 1.490 . S
C1396 H1386 0.930 . S
C1396 C1395 1.400 . S
C1396 C1399 1.386 . S
H1397 C1413 0.930 . S
H1398 C1414 0.931 . S
C1399 H1387 0.929 . S
C1399 C1393 1.390 . S
C1399 C1396 1.386 . S
C1400 C1395 1.490 . S
C1400 C1402 1.395 . S
C1400 C1403 1.403 . S
H1401 C1407 0.930 . S
C1402 H1388 0.930 . S
C1402 C1400 1.395 . S
C1402 C1405 1.403 . S
C1403 C1400 1.403 . S
C1403 C1404 1.524 . S
C1403 C1407 1.400 . S
C1404 H1389 0.960 . S
C1404 H1390 0.960 . S
C1404 H1391 0.960 . S
C1404 C1403 1.524 . S
C1405 C1402 1.403 . S
C1405 C1406 1.392 . S
C1405 C1409 1.495 . S
C1406 C1405 1.392 . S
C1406 C1407 1.385 . S
C1406 C1408 1.478 . S
C1407 H1401 0.930 . S
C1407 C1403 1.400 . S
C1407 C1406 1.385 . S
C1408 C1406 1.478 . S
C1408 C1410 1.381 . S
C1408 C1414 1.383 . S
C1409 C1405 1.495 . S
C1409 H1415 0.959 . S
C1409 H1416 0.961 . S
C1409 H1417 0.960 . S
C1410 C1408 1.381 . S
C1410 C1411 1.394 . S
C1410 H1418 0.930 . S
C1411 C1410 1.394 . S
C1411 C1412 1.383 . S
C1411 H1419 0.929 . S
C1412 C1411 1.383 . S
C1412 C1413 1.377 . S
C1413 H1397 0.930 . S
C1413 C1412 1.377 . S
C1413 C1414 1.379 . S
C1414 H1398 0.931 . S
C1414 C1408 1.383 . S
C1414 C1413 1.379 . S
H1415 C1409 0.959 . S
H1416 C1409 0.961 . S
H1417 C1409 0.960 . S
H1418 C1410 0.930 . S
H1419 C1411 0.929 . S
H1420 C1428 0.929 . S
H1421 C1430 0.930 . S
H1422 C1432 0.930 . S
H1423 C1435 0.929 . S
H1424 C1438 0.930 . S
H1425 C1440 0.960 . S
H1426 C1440 0.960 . S
H1427 C1440 0.960 . S
C1428 H1420 0.929 . S
C1428 C1429 1.377 . S
C1428 C1430 1.384 . S
C1429 C1428 1.377 . S
C1429 C1435 1.390 . S
C1430 H1421 0.930 . S
C1430 C1428 1.384 . S
C1430 C1431 1.372 . S
C1431 C1430 1.372 . S
C1431 C1432 1.400 . S
C1431 C1436 1.490 . S
C1432 H1422 0.930 . S
C1432 C1431 1.400 . S
C1432 C1435 1.386 . S
H1433 C1449 0.930 . S
H1434 C1450 0.931 . S
C1435 H1423 0.929 . S
C1435 C1429 1.390 . S
C1435 C1432 1.386 . S
C1436 C1431 1.490 . S
C1436 C1438 1.395 . S
C1436 C1439 1.403 . S
H1437 C1443 0.930 . S
C1438 H1424 0.930 . S
C1438 C1436 1.395 . S
C1438 C1441 1.403 . S
C1439 C1436 1.403 . S
C1439 C1440 1.524 . S
C1439 C1443 1.400 . S
C1440 H1425 0.960 . S
C1440 H1426 0.960 . S
C1440 H1427 0.960 . S
C1440 C1439 1.524 . S
C1441 C1438 1.403 . S
C1441 C1442 1.392 . S
C1441 C1445 1.495 . S
C1442 C1441 1.392 . S
C1442 C1443 1.385 . S
C1442 C1444 1.478 . S
C1443 H1437 0.930 . S
C1443 C1439 1.400 . S
C1443 C1442 1.385 . S
C1444 C1442 1.478 . S
C1444 C1446 1.381 . S
C1444 C1450 1.383 . S
C1445 C1441 1.495 . S
C1445 H1451 0.959 . S
C1445 H1452 0.961 . S
C1445 H1453 0.960 . S
C1446 C1444 1.381 . S
C1446 C1447 1.394 . S
C1446 H1454 0.930 . S
C1447 C1446 1.394 . S
C1447 C1448 1.383 . S
C1447 H1455 0.929 . S
C1448 C1447 1.383 . S
C1448 C1449 1.377 . S
C1449 H1433 0.930 . S
C1449 C1448 1.377 . S
C1449 C1450 1.379 . S
C1450 H1434 0.931 . S
C1450 C1444 1.383 . S
C1450 C1449 1.379 . S
H1451 C1445 0.959 . S
H1452 C1445 0.961 . S
H1453 C1445 0.960 . S
H1454 C1446 0.930 . S
H1455 C1447 0.929 . S
H1456 C1464 0.929 . S
H1457 C1466 0.930 . S
H1458 C1468 0.930 . S
H1459 C1471 0.929 . S
H1460 C1474 0.930 . S
H1461 C1476 0.960 . S
H1462 C1476 0.960 . S
H1463 C1476 0.960 . S
C1464 H1456 0.929 . S
C1464 C1465 1.377 . S
C1464 C1466 1.384 . S
C1465 C1464 1.377 . S
C1465 C1471 1.390 . S
C1466 H1457 0.930 . S
C1466 C1464 1.384 . S
C1466 C1467 1.372 . S
C1467 C1466 1.372 . S
C1467 C1468 1.400 . S
C1467 C1472 1.490 . S
C1468 H1458 0.930 . S
C1468 C1467 1.400 . S
C1468 C1471 1.386 . S
H1469 C1485 0.930 . S
H1470 C1486 0.931 . S
C1471 H1459 0.929 . S
C1471 C1465 1.390 . S
C1471 C1468 1.386 . S
C1472 C1467 1.490 . S
C1472 C1474 1.395 . S
C1472 C1475 1.403 . S
H1473 C1479 0.930 . S
C1474 H1460 0.930 . S
C1474 C1472 1.395 . S
C1474 C1477 1.403 . S
C1475 C1472 1.403 . S
C1475 C1476 1.524 . S
C1475 C1479 1.400 . S
C1476 H1461 0.960 . S
C1476 H1462 0.960 . S
C1476 H1463 0.960 . S
C1476 C1475 1.524 . S
C1477 C1474 1.403 . S
C1477 C1478 1.392 . S
C1477 C1481 1.495 . S
C1478 C1477 1.392 . S
C1478 C1479 1.385 . S
C1478 C1480 1.478 . S
C1479 H1473 0.930 . S
C1479 C1475 1.400 . S
C1479 C1478 1.385 . S
C1480 C1478 1.478 . S
C1480 C1482 1.381 . S
C1480 C1486 1.383 . S
C1481 C1477 1.495 . S
C1481 H1487 0.959 . S
C1481 H1488 0.961 . S
C1481 H1489 0.960 . S
C1482 C1480 1.381 . S
C1482 C1483 1.394 . S
C1482 H1490 0.930 . S
C1483 C1482 1.394 . S
C1483 C1484 1.383 . S
C1483 H1491 0.929 . S
C1484 C1483 1.383 . S
C1484 C1485 1.377 . S
C1485 H1469 0.930 . S
C1485 C1484 1.377 . S
C1485 C1486 1.379 . S
C1486 H1470 0.931 . S
C1486 C1480 1.383 . S
C1486 C1485 1.379 . S
H1487 C1481 0.959 . S
H1488 C1481 0.961 . S
H1489 C1481 0.960 . S
H1490 C1482 0.930 . S
H1491 C1483 0.929 . S
H1492 C1500 0.929 . S
H1493 C1502 0.930 . S
H1494 C1504 0.930 . S
H1495 C1507 0.929 . S
H1496 C1510 0.930 . S
H1497 C1512 0.960 . S
H1498 C1512 0.960 . S
H1499 C1512 0.960 . S
C1500 H1492 0.929 . S
C1500 C1501 1.377 . S
C1500 C1502 1.384 . S
C1501 C1500 1.377 . S
C1501 C1507 1.390 . S
C1502 H1493 0.930 . S
C1502 C1500 1.384 . S
C1502 C1503 1.372 . S
C1503 C1502 1.372 . S
C1503 C1504 1.400 . S
C1503 C1508 1.490 . S
C1504 H1494 0.930 . S
C1504 C1503 1.400 . S
C1504 C1507 1.386 . S
H1505 C1521 0.930 . S
H1506 C1522 0.931 . S
C1507 H1495 0.929 . S
C1507 C1501 1.390 . S
C1507 C1504 1.386 . S
C1508 C1503 1.490 . S
C1508 C1510 1.395 . S
C1508 C1511 1.403 . S
H1509 C1515 0.930 . S
C1510 H1496 0.930 . S
C1510 C1508 1.395 . S
C1510 C1513 1.403 1_655 S
C1511 C1508 1.403 . S
C1511 C1512 1.524 . S
C1511 C1515 1.400 1_655 S
C1512 H1497 0.960 . S
C1512 H1498 0.960 . S
C1512 H1499 0.960 . S
C1512 C1511 1.524 . S
C1513 C1510 1.403 1_455 S
C1513 C1514 1.392 . S
C1513 C1517 1.495 . S
C1514 C1513 1.392 . S
C1514 C1515 1.385 . S
C1514 C1516 1.478 . S
C1515 H1509 0.930 . S
C1515 C1511 1.400 1_455 S
C1515 C1514 1.385 . S
C1516 C1514 1.478 . S
C1516 C1518 1.381 . S
C1516 C1522 1.383 . S
C1517 C1513 1.495 . S
C1517 H1523 0.959 . S
C1517 H1524 0.961 . S
C1517 H1525 0.960 . S
C1518 C1516 1.381 . S
C1518 C1519 1.394 . S
C1518 H1526 0.930 . S
C1519 C1518 1.394 . S
C1519 C1520 1.383 . S
C1519 H1527 0.929 . S
C1520 C1519 1.383 . S
C1520 C1521 1.377 . S
C1521 H1505 0.930 . S
C1521 C1520 1.377 . S
C1521 C1522 1.379 . S
C1522 H1506 0.931 . S
C1522 C1516 1.383 . S
C1522 C1521 1.379 . S
H1523 C1517 0.959 . S
H1524 C1517 0.961 . S
H1525 C1517 0.960 . S
H1526 C1518 0.930 . S
H1527 C1519 0.929 . S
H1528 C1536 0.929 . S
H1529 C1538 0.930 . S
H1530 C1540 0.930 . S
H1531 C1543 0.929 . S
H1532 C1546 0.930 . S
H1533 C1548 0.960 . S
H1534 C1548 0.960 . S
H1535 C1548 0.960 . S
C1536 H1528 0.929 . S
C1536 C1537 1.377 . S
C1536 C1538 1.384 . S
C1537 C1536 1.377 . S
C1537 C1543 1.390 . S
C1538 H1529 0.930 . S
C1538 C1536 1.384 . S
C1538 C1539 1.372 . S
C1539 C1538 1.372 . S
C1539 C1540 1.400 . S
C1539 C1544 1.490 . S
C1540 H1530 0.930 . S
C1540 C1539 1.400 . S
C1540 C1543 1.386 . S
H1541 C1557 0.930 . S
H1542 C1558 0.931 . S
C1543 H1531 0.929 . S
C1543 C1537 1.390 . S
C1543 C1540 1.386 . S
C1544 C1539 1.490 . S
C1544 C1546 1.395 . S
C1544 C1547 1.403 . S
H1545 C1551 0.930 . S
C1546 H1532 0.930 . S
C1546 C1544 1.395 . S
C1546 C1549 1.403 . S
C1547 C1544 1.403 . S
C1547 C1548 1.524 . S
C1547 C1551 1.400 . S
C1548 H1533 0.960 . S
C1548 H1534 0.960 . S
C1548 H1535 0.960 . S
C1548 C1547 1.524 . S
C1549 C1546 1.403 . S
C1549 C1550 1.392 . S
C1549 C1553 1.495 . S
C1550 C1549 1.392 . S
C1550 C1551 1.385 . S
C1550 C1552 1.478 . S
C1551 H1545 0.930 . S
C1551 C1547 1.400 . S
C1551 C1550 1.385 . S
C1552 C1550 1.478 . S
C1552 C1554 1.381 . S
C1552 C1558 1.383 . S
C1553 C1549 1.495 . S
C1553 H1559 0.959 . S
C1553 H1560 0.961 . S
C1553 H1561 0.960 . S
C1554 C1552 1.381 . S
C1554 C1555 1.394 . S
C1554 H1562 0.930 . S
C1555 C1554 1.394 . S
C1555 C1556 1.383 . S
C1555 H1563 0.929 . S
C1556 C1555 1.383 . S
C1556 C1557 1.377 . S
C1557 H1541 0.930 . S
C1557 C1556 1.377 . S
C1557 C1558 1.379 . S
C1558 H1542 0.931 . S
C1558 C1552 1.383 . S
C1558 C1557 1.379 . S
H1559 C1553 0.959 . S
H1560 C1553 0.961 . S
H1561 C1553 0.960 . S
H1562 C1554 0.930 . S
H1563 C1555 0.929 . S
H1564 C1572 0.929 . S
H1565 C1574 0.930 . S
H1566 C1576 0.930 . S
H1567 C1579 0.929 . S
H1568 C1582 0.930 . S
H1569 C1584 0.960 . S
H1570 C1584 0.960 . S
H1571 C1584 0.960 . S
C1572 H1564 0.929 . S
C1572 C1573 1.377 . S
C1572 C1574 1.384 . S
C1573 C1572 1.377 . S
C1573 C1579 1.390 . S
C1574 H1565 0.930 . S
C1574 C1572 1.384 . S
C1574 C1575 1.372 . S
C1575 C1574 1.372 . S
C1575 C1576 1.400 . S
C1575 C1580 1.490 . S
C1576 H1566 0.930 . S
C1576 C1575 1.400 . S
C1576 C1579 1.386 . S
H1577 C1593 0.930 . S
H1578 C1594 0.931 . S
C1579 H1567 0.929 . S
C1579 C1573 1.390 . S
C1579 C1576 1.386 . S
C1580 C1575 1.490 . S
C1580 C1582 1.395 . S
C1580 C1583 1.403 . S
H1581 C1587 0.930 . S
C1582 H1568 0.930 . S
C1582 C1580 1.395 . S
C1582 C1585 1.403 1_455 S
C1583 C1580 1.403 . S
C1583 C1584 1.524 . S
C1583 C1587 1.400 1_455 S
C1584 H1569 0.960 . S
C1584 H1570 0.960 . S
C1584 H1571 0.960 . S
C1584 C1583 1.524 . S
C1585 C1582 1.403 1_655 S
C1585 C1586 1.392 . S
C1585 C1589 1.495 . S
C1586 C1585 1.392 . S
C1586 C1587 1.385 . S
C1586 C1588 1.478 . S
C1587 H1581 0.930 . S
C1587 C1583 1.400 1_655 S
C1587 C1586 1.385 . S
C1588 C1586 1.478 . S
C1588 C1590 1.381 . S
C1588 C1594 1.383 . S
C1589 C1585 1.495 . S
C1589 H1595 0.959 . S
C1589 H1596 0.961 . S
C1589 H1597 0.960 . S
C1590 C1588 1.381 . S
C1590 C1591 1.394 . S
C1590 H1598 0.930 . S
C1591 C1590 1.394 . S
C1591 C1592 1.383 . S
C1591 H1599 0.929 . S
C1592 C1591 1.383 . S
C1592 C1593 1.377 . S
C1593 H1577 0.930 . S
C1593 C1592 1.377 . S
C1593 C1594 1.379 . S
C1594 H1578 0.931 . S
C1594 C1588 1.383 . S
C1594 C1593 1.379 . S
H1595 C1589 0.959 . S
H1596 C1589 0.961 . S
H1597 C1589 0.960 . S
H1598 C1590 0.930 . S
H1599 C1591 0.929 . S
H1600 C1608 0.929 . S
H1601 C1610 0.930 . S
H1602 C1612 0.930 . S
H1603 C1615 0.929 . S
H1604 C1618 0.930 . S
H1605 C1620 0.960 . S
H1606 C1620 0.960 . S
H1607 C1620 0.960 . S
C1608 H1600 0.929 . S
C1608 C1609 1.377 . S
C1608 C1610 1.384 . S
C1609 C1608 1.377 . S
C1609 C1615 1.390 . S
C1610 H1601 0.930 . S
C1610 C1608 1.384 . S
C1610 C1611 1.372 . S
C1611 C1610 1.372 . S
C1611 C1612 1.400 . S
C1611 C1616 1.490 . S
C1612 H1602 0.930 . S
C1612 C1611 1.400 . S
C1612 C1615 1.386 . S
H1613 C1629 0.930 . S
H1614 C1630 0.931 . S
C1615 H1603 0.929 . S
C1615 C1609 1.390 . S
C1615 C1612 1.386 . S
C1616 C1611 1.490 . S
C1616 C1618 1.395 1_556 S
C1616 C1619 1.403 . S
H1617 C1623 0.930 . S
C1618 H1604 0.930 . S
C1618 C1616 1.395 1_554 S
C1618 C1621 1.403 . S
C1619 C1616 1.403 . S
C1619 C1620 1.524 . S
C1619 C1623 1.400 . S
C1620 H1605 0.960 . S
C1620 H1606 0.960 . S
C1620 H1607 0.960 . S
C1620 C1619 1.524 . S
C1621 C1618 1.403 . S
C1621 C1622 1.392 . S
C1621 C1625 1.495 . S
C1622 C1621 1.392 . S
C1622 C1623 1.385 1_554 S
C1622 C1624 1.478 . S
C1623 H1617 0.930 . S
C1623 C1619 1.400 . S
C1623 C1622 1.385 1_556 S
C1624 C1622 1.478 . S
C1624 C1626 1.381 . S
C1624 C1630 1.383 . S
C1625 C1621 1.495 . S
C1625 H1631 0.959 . S
C1625 H1632 0.961 . S
C1625 H1633 0.960 . S
C1626 C1624 1.381 . S
C1626 C1627 1.394 . S
C1626 H1634 0.930 . S
C1627 C1626 1.394 . S
C1627 C1628 1.383 . S
C1627 H1635 0.929 . S
C1628 C1627 1.383 . S
C1628 C1629 1.377 . S
C1629 H1613 0.930 . S
C1629 C1628 1.377 . S
C1629 C1630 1.379 . S
C1630 H1614 0.931 . S
C1630 C1624 1.383 . S
C1630 C1629 1.379 . S
H1631 C1625 0.959 . S
H1632 C1625 0.961 . S
H1633 C1625 0.960 . S
H1634 C1626 0.930 . S
H1635 C1627 0.929 . S
H1636 C1644 0.929 . S
H1637 C1646 0.930 . S
H1638 C1648 0.930 . S
H1639 C1651 0.929 . S
H1640 C1654 0.930 . S
H1641 C1656 0.960 . S
H1642 C1656 0.960 . S
H1643 C1656 0.960 . S
C1644 H1636 0.929 . S
C1644 C1645 1.377 . S
C1644 C1646 1.384 . S
C1645 C1644 1.377 . S
C1645 C1651 1.390 . S
C1646 H1637 0.930 . S
C1646 C1644 1.384 . S
C1646 C1647 1.372 . S
C1647 C1646 1.372 . S
C1647 C1648 1.400 . S
C1647 C1652 1.490 . S
C1648 H1638 0.930 . S
C1648 C1647 1.400 . S
C1648 C1651 1.386 . S
H1649 C1665 0.930 . S
H1650 C1666 0.931 . S
C1651 H1639 0.929 . S
C1651 C1645 1.390 . S
C1651 C1648 1.386 . S
C1652 C1647 1.490 . S
C1652 C1654 1.395 . S
C1652 C1655 1.403 . S
H1653 C1659 0.930 . S
C1654 H1640 0.930 . S
C1654 C1652 1.395 . S
C1654 C1657 1.403 . S
C1655 C1652 1.403 . S
C1655 C1656 1.524 . S
C1655 C1659 1.400 . S
C1656 H1641 0.960 . S
C1656 H1642 0.960 . S
C1656 H1643 0.960 . S
C1656 C1655 1.524 . S
C1657 C1654 1.403 . S
C1657 C1658 1.392 . S
C1657 C1661 1.495 . S
C1658 C1657 1.392 . S
C1658 C1659 1.385 . S
C1658 C1660 1.478 . S
C1659 H1653 0.930 . S
C1659 C1655 1.400 . S
C1659 C1658 1.385 . S
C1660 C1658 1.478 . S
C1660 C1662 1.381 . S
C1660 C1666 1.383 . S
C1661 C1657 1.495 . S
C1661 H1667 0.959 . S
C1661 H1668 0.961 . S
C1661 H1669 0.960 . S
C1662 C1660 1.381 . S
C1662 C1663 1.394 . S
C1662 H1670 0.930 . S
C1663 C1662 1.394 . S
C1663 C1664 1.383 . S
C1663 H1671 0.929 . S
C1664 C1663 1.383 . S
C1664 C1665 1.377 . S
C1665 H1649 0.930 . S
C1665 C1664 1.377 . S
C1665 C1666 1.379 . S
C1666 H1650 0.931 . S
C1666 C1660 1.383 . S
C1666 C1665 1.379 . S
H1667 C1661 0.959 . S
H1668 C1661 0.961 . S
H1669 C1661 0.960 . S
H1670 C1662 0.930 . S
H1671 C1663 0.929 . S
H1672 C1680 0.929 . S
H1673 C1682 0.930 . S
H1674 C1684 0.930 . S
H1675 C1687 0.929 . S
H1676 C1690 0.930 . S
H1677 C1692 0.960 . S
H1678 C1692 0.960 . S
H1679 C1692 0.960 . S
C1680 H1672 0.929 . S
C1680 C1681 1.377 . S
C1680 C1682 1.384 . S
C1681 C1680 1.377 . S
C1681 C1687 1.390 . S
C1682 H1673 0.930 . S
C1682 C1680 1.384 . S
C1682 C1683 1.372 . S
C1683 C1682 1.372 . S
C1683 C1684 1.400 . S
C1683 C1688 1.490 . S
C1684 H1674 0.930 . S
C1684 C1683 1.400 . S
C1684 C1687 1.386 . S
H1685 C1701 0.930 . S
H1686 C1702 0.931 . S
C1687 H1675 0.929 . S
C1687 C1681 1.390 . S
C1687 C1684 1.386 . S
C1688 C1683 1.490 . S
C1688 C1690 1.395 . S
C1688 C1691 1.403 . S
H1689 C1695 0.930 . S
C1690 H1676 0.930 . S
C1690 C1688 1.395 . S
C1690 C1693 1.403 . S
C1691 C1688 1.403 . S
C1691 C1692 1.524 . S
C1691 C1695 1.400 . S
C1692 H1677 0.960 . S
C1692 H1678 0.960 . S
C1692 H1679 0.960 . S
C1692 C1691 1.524 . S
C1693 C1690 1.403 . S
C1693 C1694 1.392 . S
C1693 C1697 1.495 . S
C1694 C1693 1.392 . S
C1694 C1695 1.385 . S
C1694 C1696 1.478 . S
C1695 H1689 0.930 . S
C1695 C1691 1.400 . S
C1695 C1694 1.385 . S
C1696 C1694 1.478 . S
C1696 C1698 1.381 . S
C1696 C1702 1.383 . S
C1697 C1693 1.495 . S
C1697 H1703 0.959 . S
C1697 H1704 0.961 . S
C1697 H1705 0.960 . S
C1698 C1696 1.381 . S
C1698 C1699 1.394 . S
C1698 H1706 0.930 . S
C1699 C1698 1.394 . S
C1699 C1700 1.383 . S
C1699 H1707 0.929 . S
C1700 C1699 1.383 . S
C1700 C1701 1.377 . S
C1701 H1685 0.930 . S
C1701 C1700 1.377 . S
C1701 C1702 1.379 . S
C1702 H1686 0.931 . S
C1702 C1696 1.383 . S
C1702 C1701 1.379 . S
H1703 C1697 0.959 . S
H1704 C1697 0.961 . S
H1705 C1697 0.960 . S
H1706 C1698 0.930 . S
H1707 C1699 0.929 . S
H1708 C1716 0.929 . S
H1709 C1718 0.930 . S
H1710 C1720 0.930 . S
H1711 C1723 0.929 . S
H1712 C1726 0.930 . S
H1713 C1728 0.960 . S
H1714 C1728 0.960 . S
H1715 C1728 0.960 . S
C1716 H1708 0.929 . S
C1716 C1717 1.377 . S
C1716 C1718 1.384 . S
C1717 C1716 1.377 . S
C1717 C1723 1.390 . S
C1718 H1709 0.930 . S
C1718 C1716 1.384 . S
C1718 C1719 1.372 . S
C1719 C1718 1.372 . S
C1719 C1720 1.400 . S
C1719 C1724 1.490 . S
C1720 H1710 0.930 . S
C1720 C1719 1.400 . S
C1720 C1723 1.386 . S
H1721 C1737 0.930 . S
H1722 C1738 0.931 . S
C1723 H1711 0.929 . S
C1723 C1717 1.390 . S
C1723 C1720 1.386 . S
C1724 C1719 1.490 . S
C1724 C1726 1.395 . S
C1724 C1727 1.403 . S
H1725 C1731 0.930 . S
C1726 H1712 0.930 . S
C1726 C1724 1.395 . S
C1726 C1729 1.403 . S
C1727 C1724 1.403 . S
C1727 C1728 1.524 . S
C1727 C1731 1.400 . S
C1728 H1713 0.960 . S
C1728 H1714 0.960 . S
C1728 H1715 0.960 . S
C1728 C1727 1.524 . S
C1729 C1726 1.403 . S
C1729 C1730 1.392 . S
C1729 C1733 1.495 . S
C1730 C1729 1.392 . S
C1730 C1731 1.385 . S
C1730 C1732 1.478 . S
C1731 H1725 0.930 . S
C1731 C1727 1.400 . S
C1731 C1730 1.385 . S
C1732 C1730 1.478 . S
C1732 C1734 1.381 . S
C1732 C1738 1.383 . S
C1733 C1729 1.495 . S
C1733 H1739 0.959 . S
C1733 H1740 0.961 . S
C1733 H1741 0.960 . S
C1734 C1732 1.381 . S
C1734 C1735 1.394 . S
C1734 H1742 0.930 . S
C1735 C1734 1.394 . S
C1735 C1736 1.383 . S
C1735 H1743 0.929 . S
C1736 C1735 1.383 . S
C1736 C1737 1.377 . S
C1737 H1721 0.930 . S
C1737 C1736 1.377 . S
C1737 C1738 1.379 . S
C1738 H1722 0.931 . S
C1738 C1732 1.383 . S
C1738 C1737 1.379 . S
H1739 C1733 0.959 . S
H1740 C1733 0.961 . S
H1741 C1733 0.960 . S
H1742 C1734 0.930 . S
H1743 C1735 0.929 . S
H1744 C1752 0.929 . S
H1745 C1754 0.930 . S
H1746 C1756 0.930 . S
H1747 C1759 0.929 . S
H1748 C1762 0.930 . S
H1749 C1764 0.960 . S
H1750 C1764 0.960 . S
H1751 C1764 0.960 . S
C1752 H1744 0.929 . S
C1752 C1753 1.377 . S
C1752 C1754 1.384 . S
C1753 C1752 1.377 . S
C1753 C1759 1.390 . S
C1754 H1745 0.930 . S
C1754 C1752 1.384 . S
C1754 C1755 1.372 . S
C1755 C1754 1.372 . S
C1755 C1756 1.400 . S
C1755 C1760 1.490 . S
C1756 H1746 0.930 . S
C1756 C1755 1.400 . S
C1756 C1759 1.386 . S
H1757 C1773 0.930 . S
H1758 C1774 0.931 . S
C1759 H1747 0.929 . S
C1759 C1753 1.390 . S
C1759 C1756 1.386 . S
C1760 C1755 1.490 . S
C1760 C1762 1.395 . S
C1760 C1763 1.403 1_554 S
H1761 C1767 0.930 . S
C1762 H1748 0.930 . S
C1762 C1760 1.395 . S
C1762 C1765 1.403 . S
C1763 C1760 1.403 1_556 S
C1763 C1764 1.524 . S
C1763 C1767 1.400 . S
C1764 H1749 0.960 . S
C1764 H1750 0.960 . S
C1764 H1751 0.960 . S
C1764 C1763 1.524 . S
C1765 C1762 1.403 . S
C1765 C1766 1.392 1_554 S
C1765 C1769 1.495 . S
C1766 C1765 1.392 1_556 S
C1766 C1767 1.385 . S
C1766 C1768 1.478 . S
C1767 H1761 0.930 . S
C1767 C1763 1.400 . S
C1767 C1766 1.385 . S
C1768 C1766 1.478 . S
C1768 C1770 1.381 . S
C1768 C1774 1.383 . S
C1769 C1765 1.495 . S
C1769 H1775 0.959 . S
C1769 H1776 0.961 . S
C1769 H1777 0.960 . S
C1770 C1768 1.381 . S
C1770 C1771 1.394 . S
C1770 H1778 0.930 . S
C1771 C1770 1.394 . S
C1771 C1772 1.383 . S
C1771 H1779 0.929 . S
C1772 C1771 1.383 . S
C1772 C1773 1.377 . S
C1773 H1757 0.930 . S
C1773 C1772 1.377 . S
C1773 C1774 1.379 . S
C1774 H1758 0.931 . S
C1774 C1768 1.383 . S
C1774 C1773 1.379 . S
H1775 C1769 0.959 . S
H1776 C1769 0.961 . S
H1777 C1769 0.960 . S
H1778 C1770 0.930 . S
H1779 C1771 0.929 . S
H1780 C1788 0.929 . S
H1781 C1790 0.930 . S
H1782 C1792 0.930 . S
H1783 C1795 0.929 . S
H1784 C1798 0.930 . S
H1785 C1800 0.960 . S
H1786 C1800 0.960 . S
H1787 C1800 0.960 . S
C1788 H1780 0.929 . S
C1788 C1789 1.377 . S
C1788 C1790 1.384 . S
C1789 C1788 1.377 . S
C1789 C1795 1.390 . S
C1790 H1781 0.930 . S
C1790 C1788 1.384 . S
C1790 C1791 1.372 . S
C1791 C1790 1.372 . S
C1791 C1792 1.400 . S
C1791 C1796 1.490 . S
C1792 H1782 0.930 . S
C1792 C1791 1.400 . S
C1792 C1795 1.386 . S
H1793 C1809 0.930 . S
H1794 C1810 0.931 . S
C1795 H1783 0.929 . S
C1795 C1789 1.390 . S
C1795 C1792 1.386 . S
C1796 C1791 1.490 . S
C1796 C1798 1.395 . S
C1796 C1799 1.403 . S
H1797 C1803 0.930 . S
C1798 H1784 0.930 . S
C1798 C1796 1.395 . S
C1798 C1801 1.403 . S
C1799 C1796 1.403 . S
C1799 C1800 1.524 . S
C1799 C1803 1.400 . S
C1800 H1785 0.960 . S
C1800 H1786 0.960 . S
C1800 H1787 0.960 . S
C1800 C1799 1.524 . S
C1801 C1798 1.403 . S
C1801 C1802 1.392 . S
C1801 C1805 1.495 . S
C1802 C1801 1.392 . S
C1802 C1803 1.385 . S
C1802 C1804 1.478 . S
C1803 H1797 0.930 . S
C1803 C1799 1.400 . S
C1803 C1802 1.385 . S
C1804 C1802 1.478 . S
C1804 C1806 1.381 . S
C1804 C1810 1.383 . S
C1805 C1801 1.495 . S
C1805 H1811 0.959 . S
C1805 H1812 0.961 . S
C1805 H1813 0.960 . S
C1806 C1804 1.381 . S
C1806 C1807 1.394 . S
C1806 H1814 0.930 . S
C1807 C1806 1.394 . S
C1807 C1808 1.383 . S
C1807 H1815 0.929 . S
C1808 C1807 1.383 . S
C1808 C1809 1.377 . S
C1809 H1793 0.930 . S
C1809 C1808 1.377 . S
C1809 C1810 1.379 . S
C1810 H1794 0.931 . S
C1810 C1804 1.383 . S
C1810 C1809 1.379 . S
H1811 C1805 0.959 . S
H1812 C1805 0.961 . S
H1813 C1805 0.960 . S
H1814 C1806 0.930 . S
H1815 C1807 0.929 . S
H1816 C1824 0.929 . S
H1817 C1826 0.930 . S
H1818 C1828 0.930 . S
H1819 C1831 0.929 . S
H1820 C1834 0.930 . S
H1821 C1836 0.960 . S
H1822 C1836 0.960 . S
H1823 C1836 0.960 . S
C1824 H1816 0.929 . S
C1824 C1825 1.377 . S
C1824 C1826 1.384 . S
C1825 C1824 1.377 . S
C1825 C1831 1.390 . S
C1826 H1817 0.930 . S
C1826 C1824 1.384 . S
C1826 C1827 1.372 . S
C1827 C1826 1.372 . S
C1827 C1828 1.400 . S
C1827 C1832 1.490 . S
C1828 H1818 0.930 . S
C1828 C1827 1.400 . S
C1828 C1831 1.386 . S
H1829 C1845 0.930 . S
H1830 C1846 0.931 . S
C1831 H1819 0.929 . S
C1831 C1825 1.390 . S
C1831 C1828 1.386 . S
C1832 C1827 1.490 . S
C1832 C1834 1.395 . S
C1832 C1835 1.403 . S
H1833 C1839 0.930 . S
C1834 H1820 0.930 . S
C1834 C1832 1.395 . S
C1834 C1837 1.403 . S
C1835 C1832 1.403 . S
C1835 C1836 1.524 . S
C1835 C1839 1.400 . S
C1836 H1821 0.960 . S
C1836 H1822 0.960 . S
C1836 H1823 0.960 . S
C1836 C1835 1.524 . S
C1837 C1834 1.403 . S
C1837 C1838 1.392 . S
C1837 C1841 1.495 . S
C1838 C1837 1.392 . S
C1838 C1839 1.385 . S
C1838 C1840 1.478 . S
C1839 H1833 0.930 . S
C1839 C1835 1.400 . S
C1839 C1838 1.385 . S
C1840 C1838 1.478 . S
C1840 C1842 1.381 . S
C1840 C1846 1.383 . S
C1841 C1837 1.495 . S
C1841 H1847 0.959 . S
C1841 H1848 0.961 . S
C1841 H1849 0.960 . S
C1842 C1840 1.381 . S
C1842 C1843 1.394 . S
C1842 H1850 0.930 . S
C1843 C1842 1.394 . S
C1843 C1844 1.383 . S
C1843 H1851 0.929 . S
C1844 C1843 1.383 . S
C1844 C1845 1.377 . S
C1845 H1829 0.930 . S
C1845 C1844 1.377 . S
C1845 C1846 1.379 . S
C1846 H1830 0.931 . S
C1846 C1840 1.383 . S
C1846 C1845 1.379 . S
H1847 C1841 0.959 . S
H1848 C1841 0.961 . S
H1849 C1841 0.960 . S
H1850 C1842 0.930 . S
H1851 C1843 0.929 . S
H1852 C1860 0.929 . S
H1853 C1862 0.930 . S
H1854 C1864 0.930 . S
H1855 C1867 0.929 . S
H1856 C1870 0.930 . S
H1857 C1872 0.960 . S
H1858 C1872 0.960 . S
H1859 C1872 0.960 . S
C1860 H1852 0.929 . S
C1860 C1861 1.377 . S
C1860 C1862 1.384 . S
C1861 C1860 1.377 . S
C1861 C1867 1.390 . S
C1862 H1853 0.930 . S
C1862 C1860 1.384 . S
C1862 C1863 1.372 . S
C1863 C1862 1.372 . S
C1863 C1864 1.400 . S
C1863 C1868 1.490 . S
C1864 H1854 0.930 . S
C1864 C1863 1.400 . S
C1864 C1867 1.386 . S
H1865 C1881 0.930 . S
H1866 C1882 0.931 . S
C1867 H1855 0.929 . S
C1867 C1861 1.390 . S
C1867 C1864 1.386 . S
C1868 C1863 1.490 . S
C1868 C1870 1.395 . S
C1868 C1871 1.403 . S
H1869 C1875 0.930 . S
C1870 H1856 0.930 . S
C1870 C1868 1.395 . S
C1870 C1873 1.403 . S
C1871 C1868 1.403 . S
C1871 C1872 1.524 . S
C1871 C1875 1.400 . S
C1872 H1857 0.960 . S
C1872 H1858 0.960 . S
C1872 H1859 0.960 . S
C1872 C1871 1.524 . S
C1873 C1870 1.403 . S
C1873 C1874 1.392 . S
C1873 C1877 1.495 . S
C1874 C1873 1.392 . S
C1874 C1875 1.385 . S
C1874 C1876 1.478 . S
C1875 H1869 0.930 . S
C1875 C1871 1.400 . S
C1875 C1874 1.385 . S
C1876 C1874 1.478 . S
C1876 C1878 1.381 . S
C1876 C1882 1.383 . S
C1877 C1873 1.495 . S
C1877 H1883 0.959 . S
C1877 H1884 0.961 . S
C1877 H1885 0.960 . S
C1878 C1876 1.381 . S
C1878 C1879 1.394 . S
C1878 H1886 0.930 . S
C1879 C1878 1.394 . S
C1879 C1880 1.383 . S
C1879 H1887 0.929 . S
C1880 C1879 1.383 . S
C1880 C1881 1.377 . S
C1881 H1865 0.930 . S
C1881 C1880 1.377 . S
C1881 C1882 1.379 . S
C1882 H1866 0.931 . S
C1882 C1876 1.383 . S
C1882 C1881 1.379 . S
H1883 C1877 0.959 . S
H1884 C1877 0.961 . S
H1885 C1877 0.960 . S
H1886 C1878 0.930 . S
H1887 C1879 0.929 . S
H1888 C1896 0.929 . S
H1889 C1898 0.930 . S
H1890 C1900 0.930 . S
H1891 C1903 0.929 . S
H1892 C1906 0.930 . S
H1893 C1908 0.960 1_565 S
H1894 C1908 0.960 . S
H1895 C1908 0.960 . S
C1896 H1888 0.929 . S
C1896 C1897 1.377 . S
C1896 C1898 1.384 . S
C1897 C1896 1.377 . S
C1897 C1903 1.390 . S
C1898 H1889 0.930 . S
C1898 C1896 1.384 . S
C1898 C1899 1.372 . S
C1899 C1898 1.372 . S
C1899 C1900 1.400 . S
C1899 C1904 1.490 . S
C1900 H1890 0.930 . S
C1900 C1899 1.400 . S
C1900 C1903 1.386 . S
H1901 C1917 0.930 . S
H1902 C1918 0.931 . S
C1903 H1891 0.929 . S
C1903 C1897 1.390 . S
C1903 C1900 1.386 . S
C1904 C1899 1.490 . S
C1904 C1906 1.395 . S
C1904 C1907 1.403 . S
H1905 C1911 0.930 . S
C1906 H1892 0.930 . S
C1906 C1904 1.395 . S
C1906 C1909 1.403 1_545 S
C1907 C1904 1.403 . S
C1907 C1908 1.524 . S
C1907 C1911 1.400 1_545 S
C1908 H1893 0.960 1_545 S
C1908 H1894 0.960 . S
C1908 H1895 0.960 . S
C1908 C1907 1.524 . S
C1909 C1906 1.403 1_565 S
C1909 C1910 1.392 . S
C1909 C1913 1.495 . S
C1910 C1909 1.392 . S
C1910 C1911 1.385 . S
C1910 C1912 1.478 . S
C1911 H1905 0.930 . S
C1911 C1907 1.400 1_565 S
C1911 C1910 1.385 . S
C1912 C1910 1.478 . S
C1912 C1914 1.381 . S
C1912 C1918 1.383 . S
C1913 C1909 1.495 . S
C1913 H1919 0.959 1_565 S
C1913 H1920 0.961 . S
C1913 H1921 0.960 . S
C1914 C1912 1.381 . S
C1914 C1915 1.394 . S
C1914 H1922 0.930 . S
C1915 C1914 1.394 . S
C1915 C1916 1.383 . S
C1915 H1923 0.929 . S
C1916 C1915 1.383 . S
C1916 C1917 1.377 . S
C1917 H1901 0.930 . S
C1917 C1916 1.377 . S
C1917 C1918 1.379 . S
C1918 H1902 0.931 . S
C1918 C1912 1.383 . S
C1918 C1917 1.379 . S
H1919 C1913 0.959 1_545 S
H1920 C1913 0.961 . S
H1921 C1913 0.960 . S
H1922 C1914 0.930 . S
H1923 C1915 0.929 . S
H1924 C1932 0.929 . S
H1925 C1934 0.930 . S
H1926 C1936 0.930 . S
H1927 C1939 0.929 . S
H1928 C1942 0.930 . S
H1929 C1944 0.960 . S
H1930 C1944 0.960 . S
H1931 C1944 0.960 . S
C1932 H1924 0.929 . S
C1932 C1933 1.377 . S
C1932 C1934 1.384 . S
C1933 C1932 1.377 . S
C1933 C1939 1.390 . S
C1934 H1925 0.930 . S
C1934 C1932 1.384 . S
C1934 C1935 1.372 . S
C1935 C1934 1.372 . S
C1935 C1936 1.400 . S
C1935 C1940 1.490 . S
C1936 H1926 0.930 . S
C1936 C1935 1.400 . S
C1936 C1939 1.386 . S
H1937 C1953 0.930 . S
H1938 C1954 0.931 . S
C1939 H1927 0.929 . S
C1939 C1933 1.390 . S
C1939 C1936 1.386 . S
C1940 C1935 1.490 . S
C1940 C1942 1.395 . S
C1940 C1943 1.403 . S
H1941 C1947 0.930 . S
C1942 H1928 0.930 . S
C1942 C1940 1.395 . S
C1942 C1945 1.403 . S
C1943 C1940 1.403 . S
C1943 C1944 1.524 . S
C1943 C1947 1.400 . S
C1944 H1929 0.960 . S
C1944 H1930 0.960 . S
C1944 H1931 0.960 . S
C1944 C1943 1.524 . S
C1945 C1942 1.403 . S
C1945 C1946 1.392 . S
C1945 C1949 1.495 . S
C1946 C1945 1.392 . S
C1946 C1947 1.385 . S
C1946 C1948 1.478 . S
C1947 H1941 0.930 . S
C1947 C1943 1.400 . S
C1947 C1946 1.385 . S
C1948 C1946 1.478 . S
C1948 C1950 1.381 . S
C1948 C1954 1.383 . S
C1949 C1945 1.495 . S
C1949 H1955 0.959 . S
C1949 H1956 0.961 . S
C1949 H1957 0.960 . S
C1950 C1948 1.381 . S
C1950 C1951 1.394 . S
C1950 H1958 0.930 . S
C1951 C1950 1.394 . S
C1951 C1952 1.383 . S
C1951 H1959 0.929 . S
C1952 C1951 1.383 . S
C1952 C1953 1.377 . S
C1953 H1937 0.930 . S
C1953 C1952 1.377 . S
C1953 C1954 1.379 . S
C1954 H1938 0.931 . S
C1954 C1948 1.383 . S
C1954 C1953 1.379 . S
H1955 C1949 0.959 . S
H1956 C1949 0.961 . S
H1957 C1949 0.960 . S
H1958 C1950 0.930 . S
H1959 C1951 0.929 . S
H1960 C1968 0.929 . S
H1961 C1970 0.930 . S
H1962 C1972 0.930 . S
H1963 C1975 0.929 . S
H1964 C1978 0.929 1_565 S
H1965 C1980 0.960 . S
H1966 C1980 0.960 . S
H1967 C1980 0.960 1_554 S
C1968 H1960 0.929 . S
C1968 C1969 1.377 . S
C1968 C1970 1.384 . S
C1969 C1968 1.377 . S
C1969 C1975 1.390 . S
C1970 H1961 0.930 . S
C1970 C1968 1.384 . S
C1970 C1971 1.372 . S
C1971 C1970 1.372 . S
C1971 C1972 1.400 . S
C1971 C1976 1.490 . S
C1972 H1962 0.930 . S
C1972 C1971 1.400 . S
C1972 C1975 1.386 . S
H1973 C1989 0.930 . S
H1974 C1990 0.931 . S
C1975 H1963 0.929 . S
C1975 C1969 1.390 . S
C1975 C1972 1.386 . S
C1976 C1971 1.490 . S
C1976 C1978 1.389 1_565 S
C1976 C1979 1.403 1_554 S
H1977 C1983 0.930 . S
C1978 H1964 0.929 1_545 S
C1978 C1976 1.389 1_545 S
C1978 C1981 1.409 . S
C1979 C1976 1.403 1_556 S
C1979 C1980 1.524 . S
C1979 C1983 1.400 1_565 S
C1980 H1965 0.960 . S
C1980 H1966 0.960 . S
C1980 H1967 0.960 1_556 S
C1980 C1979 1.524 . S
C1981 C1978 1.409 . S
C1981 C1982 1.392 1_554 S
C1981 C1985 1.495 . S
C1982 C1981 1.392 1_556 S
C1982 C1983 1.385 . S
C1982 C1984 1.478 . S
C1983 H1977 0.930 . S
C1983 C1979 1.400 1_545 S
C1983 C1982 1.385 . S
C1984 C1982 1.478 . S
C1984 C1986 1.381 . S
C1984 C1990 1.383 . S
C1985 C1981 1.495 . S
C1985 H1991 0.959 . S
C1985 H1992 0.961 . S
C1985 H1993 0.960 1_554 S
C1986 C1984 1.381 . S
C1986 C1987 1.394 . S
C1986 H1994 0.930 . S
C1987 C1986 1.394 . S
C1987 C1988 1.383 . S
C1987 H1995 0.929 . S
C1988 C1987 1.383 . S
C1988 C1989 1.377 . S
C1989 H1973 0.930 . S
C1989 C1988 1.377 . S
C1989 C1990 1.379 . S
C1990 H1974 0.931 . S
C1990 C1984 1.383 . S
C1990 C1989 1.379 . S
H1991 C1985 0.959 . S
H1992 C1985 0.961 . S
H1993 C1985 0.960 1_556 S
H1994 C1986 0.930 . S
H1995 C1987 0.929 . S
H1996 C2004 0.929 . S
H1997 C2006 0.930 . S
H1998 C2008 0.930 . S
H1999 C2011 0.929 . S
H2000 C2014 0.930 . S
H2001 C2016 0.960 . S
H2002 C2016 0.960 . S
H2003 C2016 0.960 . S
C2004 H1996 0.929 . S
C2004 C2005 1.377 . S
C2004 C2006 1.384 . S
C2005 C2004 1.377 . S
C2005 C2011 1.390 . S
C2006 H1997 0.930 . S
C2006 C2004 1.384 . S
C2006 C2007 1.372 . S
C2007 C2006 1.372 . S
C2007 C2008 1.400 . S
C2007 C2012 1.490 . S
C2008 H1998 0.930 . S
C2008 C2007 1.400 . S
C2008 C2011 1.386 . S
H2009 C2025 0.930 . S
H2010 C2026 0.931 . S
C2011 H1999 0.929 . S
C2011 C2005 1.390 . S
C2011 C2008 1.386 . S
C2012 C2007 1.490 . S
C2012 C2014 1.395 . S
C2012 C2015 1.403 . S
H2013 C2019 0.930 . S
C2014 H2000 0.930 . S
C2014 C2012 1.395 . S
C2014 C2017 1.403 . S
C2015 C2012 1.403 . S
C2015 C2016 1.524 . S
C2015 C2019 1.400 . S
C2016 H2001 0.960 . S
C2016 H2002 0.960 . S
C2016 H2003 0.960 . S
C2016 C2015 1.524 . S
C2017 C2014 1.403 . S
C2017 C2018 1.392 . S
C2017 C2021 1.495 . S
C2018 C2017 1.392 . S
C2018 C2019 1.385 . S
C2018 C2020 1.478 . S
C2019 H2013 0.930 . S
C2019 C2015 1.400 . S
C2019 C2018 1.385 . S
C2020 C2018 1.478 . S
C2020 C2022 1.381 . S
C2020 C2026 1.383 . S
C2021 C2017 1.495 . S
C2021 H2027 0.959 . S
C2021 H2028 0.961 . S
C2021 H2029 0.960 . S
C2022 C2020 1.381 . S
C2022 C2023 1.394 . S
C2022 H2030 0.930 . S
C2023 C2022 1.394 . S
C2023 C2024 1.383 . S
C2023 H2031 0.929 . S
C2024 C2023 1.383 . S
C2024 C2025 1.377 . S
C2025 H2009 0.930 . S
C2025 C2024 1.377 . S
C2025 C2026 1.379 . S
C2026 H2010 0.931 . S
C2026 C2020 1.383 . S
C2026 C2025 1.379 . S
H2027 C2021 0.959 . S
H2028 C2021 0.961 . S
H2029 C2021 0.960 . S
H2030 C2022 0.930 . S
H2031 C2023 0.929 . S
H2032 C2040 0.929 . S
H2033 C2042 0.930 . S
H2034 C2044 0.930 . S
H2035 C2047 0.929 . S
H2036 C2050 0.930 . S
H2037 C2052 0.960 . S
H2038 C2052 0.960 . S
H2039 C2052 0.960 . S
C2040 H2032 0.929 . S
C2040 C2041 1.377 . S
C2040 C2042 1.384 . S
C2041 C2040 1.377 . S
C2041 C2047 1.390 . S
C2042 H2033 0.930 . S
C2042 C2040 1.384 . S
C2042 C2043 1.372 . S
C2043 C2042 1.372 . S
C2043 C2044 1.400 . S
C2043 C2048 1.490 . S
C2044 H2034 0.930 . S
C2044 C2043 1.400 . S
C2044 C2047 1.386 . S
H2045 C2061 0.930 . S
H2046 C2062 0.931 . S
C2047 H2035 0.929 . S
C2047 C2041 1.390 . S
C2047 C2044 1.386 . S
C2048 C2043 1.490 . S
C2048 C2050 1.395 1_545 S
C2048 C2051 1.403 . S
H2049 C2055 0.930 . S
C2050 H2036 0.930 . S
C2050 C2048 1.395 1_565 S
C2050 C2053 1.403 . S
C2051 C2048 1.403 . S
C2051 C2052 1.524 . S
C2051 C2055 1.400 . S
C2052 H2037 0.960 . S
C2052 H2038 0.960 . S
C2052 H2039 0.960 . S
C2052 C2051 1.524 . S
C2053 C2050 1.403 . S
C2053 C2054 1.392 . S
C2053 C2057 1.495 . S
C2054 C2053 1.392 . S
C2054 C2055 1.385 1_565 S
C2054 C2056 1.478 . S
C2055 H2049 0.930 . S
C2055 C2051 1.400 . S
C2055 C2054 1.385 1_545 S
C2056 C2054 1.478 . S
C2056 C2058 1.381 . S
C2056 C2062 1.383 . S
C2057 C2053 1.495 . S
C2057 H2063 0.959 . S
C2057 H2064 0.961 . S
C2057 H2065 0.960 . S
C2058 C2056 1.381 . S
C2058 C2059 1.394 . S
C2058 H2066 0.930 . S
C2059 C2058 1.394 . S
C2059 C2060 1.383 . S
C2059 H2067 0.929 . S
C2060 C2059 1.383 . S
C2060 C2061 1.377 . S
C2061 H2045 0.930 . S
C2061 C2060 1.377 . S
C2061 C2062 1.379 . S
C2062 H2046 0.931 . S
C2062 C2056 1.383 . S
C2062 C2061 1.379 . S
H2063 C2057 0.959 . S
H2064 C2057 0.961 . S
H2065 C2057 0.960 . S
H2066 C2058 0.930 . S
H2067 C2059 0.929 . S
H2068 C2076 0.929 . S
H2069 C2078 0.930 . S
H2070 C2080 0.930 . S
H2071 C2083 0.929 . S
H2072 C2086 0.930 . S
H2073 C2088 0.960 . S
H2074 C2088 0.960 . S
H2075 C2088 0.960 . S
C2076 H2068 0.929 . S
C2076 C2077 1.377 . S
C2076 C2078 1.384 . S
C2077 C2076 1.377 . S
C2077 C2083 1.390 . S
C2078 H2069 0.930 . S
C2078 C2076 1.384 . S
C2078 C2079 1.372 . S
C2079 C2078 1.372 . S
C2079 C2080 1.400 . S
C2079 C2084 1.490 . S
C2080 H2070 0.930 . S
C2080 C2079 1.400 . S
C2080 C2083 1.386 . S
H2081 C2097 0.930 . S
H2082 C2098 0.931 . S
C2083 H2071 0.929 . S
C2083 C2077 1.390 . S
C2083 C2080 1.386 . S
C2084 C2079 1.490 . S
C2084 C2086 1.395 . S
C2084 C2087 1.403 . S
H2085 C2091 0.930 . S
C2086 H2072 0.930 . S
C2086 C2084 1.395 . S
C2086 C2089 1.403 . S
C2087 C2084 1.403 . S
C2087 C2088 1.524 . S
C2087 C2091 1.400 . S
C2088 H2073 0.960 . S
C2088 H2074 0.960 . S
C2088 H2075 0.960 . S
C2088 C2087 1.524 . S
C2089 C2086 1.403 . S
C2089 C2090 1.392 . S
C2089 C2093 1.495 . S
C2090 C2089 1.392 . S
C2090 C2091 1.385 . S
C2090 C2092 1.478 . S
C2091 H2085 0.930 . S
C2091 C2087 1.400 . S
C2091 C2090 1.385 . S
C2092 C2090 1.478 . S
C2092 C2094 1.381 . S
C2092 C2098 1.383 . S
C2093 C2089 1.495 . S
C2093 H2099 0.959 . S
C2093 H2100 0.961 . S
C2093 H2101 0.960 . S
C2094 C2092 1.381 . S
C2094 C2095 1.394 . S
C2094 H2102 0.930 . S
C2095 C2094 1.394 . S
C2095 C2096 1.383 . S
C2095 H2103 0.929 . S
C2096 C2095 1.383 . S
C2096 C2097 1.377 . S
C2097 H2081 0.930 . S
C2097 C2096 1.377 . S
C2097 C2098 1.379 . S
C2098 H2082 0.931 . S
C2098 C2092 1.383 . S
C2098 C2097 1.379 . S
H2099 C2093 0.959 . S
H2100 C2093 0.961 . S
H2101 C2093 0.960 . S
H2102 C2094 0.930 . S
H2103 C2095 0.929 . S
H2104 C2112 0.929 . S
H2105 C2114 0.930 . S
H2106 C2116 0.930 . S
H2107 C2119 0.929 . S
H2108 C2122 0.930 . S
H2109 C2124 0.960 1_545 S
H2110 C2124 0.957 1_545 S
H2111 C2124 0.960 . S
C2112 H2104 0.929 . S
C2112 C2113 1.377 . S
C2112 C2114 1.384 . S
C2113 C2112 1.377 . S
C2113 C2119 1.390 . S
C2114 H2105 0.930 . S
C2114 C2112 1.384 . S
C2114 C2115 1.372 . S
C2115 C2114 1.372 . S
C2115 C2116 1.400 . S
C2115 C2120 1.490 . S
C2116 H2106 0.930 . S
C2116 C2115 1.400 . S
C2116 C2119 1.386 . S
H2117 C2133 0.930 . S
H2118 C2134 0.931 . S
C2119 H2107 0.929 . S
C2119 C2113 1.390 . S
C2119 C2116 1.386 . S
C2120 C2115 1.490 . S
C2120 C2122 1.395 . S
C2120 C2123 1.403 . S
H2121 C2127 0.930 . S
C2122 H2108 0.930 . S
C2122 C2120 1.395 . S
C2122 C2125 1.403 1_564 S
C2123 C2120 1.403 . S
C2123 C2124 1.524 . S
C2123 C2127 1.400 1_564 S
C2124 H2109 0.960 1_565 S
C2124 H2110 0.957 1_565 S
C2124 H2111 0.960 . S
C2124 C2123 1.524 . S
C2125 C2122 1.403 1_546 S
C2125 C2126 1.392 . S
C2125 C2129 1.495 . S
C2126 C2125 1.392 . S
C2126 C2127 1.385 . S
C2126 C2128 1.478 . S
C2127 H2121 0.930 . S
C2127 C2123 1.400 1_546 S
C2127 C2126 1.385 . S
C2128 C2126 1.478 . S
C2128 C2130 1.381 . S
C2128 C2134 1.383 . S
C2129 C2125 1.495 . S
C2129 H2135 0.959 1_545 S
C2129 H2136 0.961 . S
C2129 H2137 0.960 . S
C2130 C2128 1.381 . S
C2130 C2131 1.394 . S
C2130 H2138 0.930 . S
C2131 C2130 1.394 . S
C2131 C2132 1.383 . S
C2131 H2139 0.929 . S
C2132 C2131 1.383 . S
C2132 C2133 1.377 . S
C2133 H2117 0.930 . S
C2133 C2132 1.377 . S
C2133 C2134 1.379 . S
C2134 H2118 0.931 . S
C2134 C2128 1.383 . S
C2134 C2133 1.379 . S
H2135 C2129 0.959 1_565 S
H2136 C2129 0.961 . S
H2137 C2129 0.960 . S
H2138 C2130 0.930 . S
H2139 C2131 0.929 . S
H2140 C2148 0.929 . S
H2141 C2150 0.930 . S
H2142 C2152 0.930 . S
H2143 C2155 0.929 . S
H2144 C2158 0.930 . S
H2145 C2160 0.960 . S
H2146 C2160 0.960 . S
H2147 C2160 0.960 . S
C2148 H2140 0.929 . S
C2148 C2149 1.377 . S
C2148 C2150 1.384 . S
C2149 C2148 1.377 . S
C2149 C2155 1.390 . S
C2150 H2141 0.930 . S
C2150 C2148 1.384 . S
C2150 C2151 1.372 . S
C2151 C2150 1.372 . S
C2151 C2152 1.400 . S
C2151 C2156 1.490 . S
C2152 H2142 0.930 . S
C2152 C2151 1.400 . S
C2152 C2155 1.386 . S
H2153 C2169 0.930 . S
H2154 C2170 0.931 . S
C2155 H2143 0.929 . S
C2155 C2149 1.390 . S
C2155 C2152 1.386 . S
C2156 C2151 1.490 . S
C2156 C2158 1.395 . S
C2156 C2159 1.403 . S
H2157 C2163 0.930 . S
C2158 H2144 0.930 . S
C2158 C2156 1.395 . S
C2158 C2161 1.403 . S
C2159 C2156 1.403 . S
C2159 C2160 1.524 . S
C2159 C2163 1.400 . S
C2160 H2145 0.960 . S
C2160 H2146 0.960 . S
C2160 H2147 0.960 . S
C2160 C2159 1.524 . S
C2161 C2158 1.403 . S
C2161 C2162 1.392 . S
C2161 C2165 1.495 . S
C2162 C2161 1.392 . S
C2162 C2163 1.385 . S
C2162 C2164 1.478 . S
C2163 H2157 0.930 . S
C2163 C2159 1.400 . S
C2163 C2162 1.385 . S
C2164 C2162 1.478 . S
C2164 C2166 1.381 . S
C2164 C2170 1.383 . S
C2165 C2161 1.495 . S
C2165 H2171 0.959 . S
C2165 H2172 0.961 . S
C2165 H2173 0.960 . S
C2166 C2164 1.381 . S
C2166 C2167 1.394 . S
C2166 H2174 0.930 . S
C2167 C2166 1.394 . S
C2167 C2168 1.383 . S
C2167 H2175 0.929 . S
C2168 C2167 1.383 . S
C2168 C2169 1.377 . S
C2169 H2153 0.930 . S
C2169 C2168 1.377 . S
C2169 C2170 1.379 . S
C2170 H2154 0.931 . S
C2170 C2164 1.383 . S
C2170 C2169 1.379 . S
H2171 C2165 0.959 . S
H2172 C2165 0.961 . S
H2173 C2165 0.960 . S
H2174 C2166 0.930 . S
H2175 C2167 0.929 . S
H2176 C2184 0.929 . S
H2177 C2186 0.930 . S
H2178 C2188 0.930 . S
H2179 C2191 0.929 . S
H2180 C2194 0.930 . S
H2181 C2196 0.960 . S
H2182 C2196 0.960 . S
H2183 C2196 0.960 . S
C2184 H2176 0.929 . S
C2184 C2185 1.377 . S
C2184 C2186 1.384 . S
C2185 C2184 1.377 . S
C2185 C2191 1.390 . S
C2186 H2177 0.930 . S
C2186 C2184 1.384 . S
C2186 C2187 1.372 . S
C2187 C2186 1.372 . S
C2187 C2188 1.400 . S
C2187 C2192 1.490 . S
C2188 H2178 0.930 . S
C2188 C2187 1.400 . S
C2188 C2191 1.386 . S
H2189 C2205 0.930 . S
H2190 C2206 0.931 . S
C2191 H2179 0.929 . S
C2191 C2185 1.390 . S
C2191 C2188 1.386 . S
C2192 C2187 1.490 . S
C2192 C2194 1.395 . S
C2192 C2195 1.403 . S
H2193 C2199 0.930 . S
C2194 H2180 0.930 . S
C2194 C2192 1.395 . S
C2194 C2197 1.403 . S
C2195 C2192 1.403 . S
C2195 C2196 1.524 . S
C2195 C2199 1.400 . S
C2196 H2181 0.960 . S
C2196 H2182 0.960 . S
C2196 H2183 0.960 . S
C2196 C2195 1.524 . S
C2197 C2194 1.403 . S
C2197 C2198 1.392 . S
C2197 C2201 1.495 . S
C2198 C2197 1.392 . S
C2198 C2199 1.385 . S
C2198 C2200 1.478 . S
C2199 H2193 0.930 . S
C2199 C2195 1.400 . S
C2199 C2198 1.385 . S
C2200 C2198 1.478 . S
C2200 C2202 1.381 . S
C2200 C2206 1.383 . S
C2201 C2197 1.495 . S
C2201 H2207 0.959 . S
C2201 H2208 0.961 . S
C2201 H2209 0.960 . S
C2202 C2200 1.381 . S
C2202 C2203 1.394 . S
C2202 H2210 0.930 . S
C2203 C2202 1.394 . S
C2203 C2204 1.383 . S
C2203 H2211 0.929 . S
C2204 C2203 1.383 . S
C2204 C2205 1.377 . S
C2205 H2189 0.930 . S
C2205 C2204 1.377 . S
C2205 C2206 1.379 . S
C2206 H2190 0.931 . S
C2206 C2200 1.383 . S
C2206 C2205 1.379 . S
H2207 C2201 0.959 . S
H2208 C2201 0.961 . S
H2209 C2201 0.960 . S
H2210 C2202 0.930 . S
H2211 C2203 0.929 . S
H2212 C2220 0.929 . S
H2213 C2222 0.930 . S
H2214 C2224 0.930 . S
H2215 C2227 0.929 . S
H2216 C2230 0.930 . S
H2217 C2232 0.960 . S
H2218 C2232 0.960 . S
H2219 C2232 0.960 . S
C2220 H2212 0.929 . S
C2220 C2221 1.377 . S
C2220 C2222 1.384 . S
C2221 C2220 1.377 . S
C2221 C2227 1.390 . S
C2222 H2213 0.930 . S
C2222 C2220 1.384 . S
C2222 C2223 1.372 . S
C2223 C2222 1.372 . S
C2223 C2224 1.400 . S
C2223 C2228 1.490 . S
C2224 H2214 0.930 . S
C2224 C2223 1.400 . S
C2224 C2227 1.386 . S
H2225 C2241 0.930 . S
H2226 C2242 0.931 . S
C2227 H2215 0.929 . S
C2227 C2221 1.390 . S
C2227 C2224 1.386 . S
C2228 C2223 1.490 . S
C2228 C2230 1.395 . S
C2228 C2231 1.403 . S
H2229 C2235 0.930 . S
C2230 H2216 0.930 . S
C2230 C2228 1.395 . S
C2230 C2233 1.403 . S
C2231 C2228 1.403 . S
C2231 C2232 1.524 . S
C2231 C2235 1.400 . S
C2232 H2217 0.960 . S
C2232 H2218 0.960 . S
C2232 H2219 0.960 . S
C2232 C2231 1.524 . S
C2233 C2230 1.403 . S
C2233 C2234 1.392 . S
C2233 C2237 1.495 . S
C2234 C2233 1.392 . S
C2234 C2235 1.385 . S
C2234 C2236 1.478 . S
C2235 H2229 0.930 . S
C2235 C2231 1.400 . S
C2235 C2234 1.385 . S
C2236 C2234 1.478 . S
C2236 C2238 1.381 . S
C2236 C2242 1.383 . S
C2237 C2233 1.495 . S
C2237 H2243 0.959 . S
C2237 H2244 0.961 . S
C2237 H2245 0.960 . S
C2238 C2236 1.381 . S
C2238 C2239 1.394 . S
C2238 H2246 0.930 . S
C2239 C2238 1.394 . S
C2239 C2240 1.383 . S
C2239 H2247 0.929 . S
C2240 C2239 1.383 . S
C2240 C2241 1.377 . S
C2241 H2225 0.930 . S
C2241 C2240 1.377 . S
C2241 C2242 1.379 . S
C2242 H2226 0.931 . S
C2242 C2236 1.383 . S
C2242 C2241 1.379 . S
H2243 C2237 0.959 . S
H2244 C2237 0.961 . S
H2245 C2237 0.960 . S
H2246 C2238 0.930 . S
H2247 C2239 0.929 . S
H2248 C2256 0.929 . S
H2249 C2258 0.930 . S
H2250 C2260 0.930 . S
H2251 C2263 0.929 . S
H2252 C2266 0.930 . S
H2253 C2268 0.960 . S
H2254 C2268 0.960 . S
H2255 C2268 0.960 . S
C2256 H2248 0.929 . S
C2256 C2257 1.377 . S
C2256 C2258 1.384 . S
C2257 C2256 1.377 . S
C2257 C2263 1.390 . S
C2258 H2249 0.930 . S
C2258 C2256 1.384 . S
C2258 C2259 1.372 . S
C2259 C2258 1.372 . S
C2259 C2260 1.400 . S
C2259 C2264 1.490 . S
C2260 H2250 0.930 . S
C2260 C2259 1.400 . S
C2260 C2263 1.386 . S
H2261 C2277 0.930 . S
H2262 C2278 0.931 . S
C2263 H2251 0.929 . S
C2263 C2257 1.390 . S
C2263 C2260 1.386 . S
C2264 C2259 1.490 . S
C2264 C2266 1.395 . S
C2264 C2267 1.403 . S
H2265 C2271 0.930 . S
C2266 H2252 0.930 . S
C2266 C2264 1.395 . S
C2266 C2269 1.403 . S
C2267 C2264 1.403 . S
C2267 C2268 1.524 . S
C2267 C2271 1.400 . S
C2268 H2253 0.960 . S
C2268 H2254 0.960 . S
C2268 H2255 0.960 . S
C2268 C2267 1.524 . S
C2269 C2266 1.403 . S
C2269 C2270 1.392 . S
C2269 C2273 1.495 . S
C2270 C2269 1.392 . S
C2270 C2271 1.385 . S
C2270 C2272 1.478 . S
C2271 H2265 0.930 . S
C2271 C2267 1.400 . S
C2271 C2270 1.385 . S
C2272 C2270 1.478 . S
C2272 C2274 1.381 . S
C2272 C2278 1.383 . S
C2273 C2269 1.495 . S
C2273 H2279 0.959 . S
C2273 H2280 0.961 . S
C2273 H2281 0.960 . S
C2274 C2272 1.381 . S
C2274 C2275 1.394 . S
C2274 H2282 0.930 . S
C2275 C2274 1.394 . S
C2275 C2276 1.383 . S
C2275 H2283 0.929 . S
C2276 C2275 1.383 . S
C2276 C2277 1.377 . S
C2277 H2261 0.930 . S
C2277 C2276 1.377 . S
C2277 C2278 1.379 . S
C2278 H2262 0.931 . S
C2278 C2272 1.383 . S
C2278 C2277 1.379 . S
H2279 C2273 0.959 . S
H2280 C2273 0.961 . S
H2281 C2273 0.960 . S
H2282 C2274 0.930 . S
H2283 C2275 0.929 . S
H2284 C2292 0.929 . S
H2285 C2294 0.930 . S
H2286 C2296 0.930 . S
H2287 C2299 0.929 . S
H2288 C2302 0.930 . S
H2289 C2304 0.960 . S
H2290 C2304 0.960 . S
H2291 C2304 0.960 . S
C2292 H2284 0.929 . S
C2292 C2293 1.377 . S
C2292 C2294 1.384 . S
C2293 C2292 1.377 . S
C2293 C2299 1.390 . S
C2294 H2285 0.930 . S
C2294 C2292 1.384 . S
C2294 C2295 1.372 . S
C2295 C2294 1.372 . S
C2295 C2296 1.400 . S
C2295 C2300 1.490 . S
C2296 H2286 0.930 . S
C2296 C2295 1.400 . S
C2296 C2299 1.386 . S
H2297 C2313 0.930 . S
H2298 C2314 0.931 . S
C2299 H2287 0.929 . S
C2299 C2293 1.390 . S
C2299 C2296 1.386 . S
C2300 C2295 1.490 . S
C2300 C2302 1.395 . S
C2300 C2303 1.403 . S
H2301 C2307 0.930 . S
C2302 H2288 0.930 . S
C2302 C2300 1.395 . S
C2302 C2305 1.403 1_655 S
C2303 C2300 1.403 . S
C2303 C2304 1.524 . S
C2303 C2307 1.400 1_655 S
C2304 H2289 0.960 . S
C2304 H2290 0.960 . S
C2304 H2291 0.960 . S
C2304 C2303 1.524 . S
C2305 C2302 1.403 1_455 S
C2305 C2306 1.392 . S
C2305 C2309 1.495 . S
C2306 C2305 1.392 . S
C2306 C2307 1.385 . S
C2306 C2308 1.478 . S
C2307 H2301 0.930 . S
C2307 C2303 1.400 1_455 S
C2307 C2306 1.385 . S
C2308 C2306 1.478 . S
C2308 C2310 1.381 . S
C2308 C2314 1.383 . S
C2309 C2305 1.495 . S
C2309 H2315 0.959 . S
C2309 H2316 0.961 . S
C2309 H2317 0.960 . S
C2310 C2308 1.381 . S
C2310 C2311 1.394 . S
C2310 H2318 0.930 . S
C2311 C2310 1.394 . S
C2311 C2312 1.383 . S
C2311 H2319 0.929 . S
C2312 C2311 1.383 . S
C2312 C2313 1.377 . S
C2313 H2297 0.930 . S
C2313 C2312 1.377 . S
C2313 C2314 1.379 . S
C2314 H2298 0.931 . S
C2314 C2308 1.383 . S
C2314 C2313 1.379 . S
H2315 C2309 0.959 . S
H2316 C2309 0.961 . S
H2317 C2309 0.960 . S
H2318 C2310 0.930 . S
H2319 C2311 0.929 . S
H2320 C2328 0.929 . S
H2321 C2330 0.930 . S
H2322 C2332 0.930 . S
H2323 C2335 0.929 . S
H2324 C2338 0.930 . S
H2325 C2340 0.960 . S
H2326 C2340 0.960 . S
H2327 C2340 0.960 . S
C2328 H2320 0.929 . S
C2328 C2329 1.377 . S
C2328 C2330 1.384 . S
C2329 C2328 1.377 . S
C2329 C2335 1.390 . S
C2330 H2321 0.930 . S
C2330 C2328 1.384 . S
C2330 C2331 1.372 . S
C2331 C2330 1.372 . S
C2331 C2332 1.400 . S
C2331 C2336 1.490 . S
C2332 H2322 0.930 . S
C2332 C2331 1.400 . S
C2332 C2335 1.386 . S
H2333 C2349 0.930 . S
H2334 C2350 0.931 . S
C2335 H2323 0.929 . S
C2335 C2329 1.390 . S
C2335 C2332 1.386 . S
C2336 C2331 1.490 . S
C2336 C2338 1.395 . S
C2336 C2339 1.403 . S
H2337 C2343 0.930 . S
C2338 H2324 0.930 . S
C2338 C2336 1.395 . S
C2338 C2341 1.403 . S
C2339 C2336 1.403 . S
C2339 C2340 1.524 . S
C2339 C2343 1.400 . S
C2340 H2325 0.960 . S
C2340 H2326 0.960 . S
C2340 H2327 0.960 . S
C2340 C2339 1.524 . S
C2341 C2338 1.403 . S
C2341 C2342 1.392 . S
C2341 C2345 1.495 . S
C2342 C2341 1.392 . S
C2342 C2343 1.385 . S
C2342 C2344 1.478 . S
C2343 H2337 0.930 . S
C2343 C2339 1.400 . S
C2343 C2342 1.385 . S
C2344 C2342 1.478 . S
C2344 C2346 1.381 . S
C2344 C2350 1.383 . S
C2345 C2341 1.495 . S
C2345 H2351 0.959 . S
C2345 H2352 0.961 . S
C2345 H2353 0.960 . S
C2346 C2344 1.381 . S
C2346 C2347 1.394 . S
C2346 H2354 0.930 . S
C2347 C2346 1.394 . S
C2347 C2348 1.383 . S
C2347 H2355 0.929 . S
C2348 C2347 1.383 . S
C2348 C2349 1.377 . S
C2349 H2333 0.930 . S
C2349 C2348 1.377 . S
C2349 C2350 1.379 . S
C2350 H2334 0.931 . S
C2350 C2344 1.383 . S
C2350 C2349 1.379 . S
H2351 C2345 0.959 . S
H2352 C2345 0.961 . S
H2353 C2345 0.960 . S
H2354 C2346 0.930 . S
H2355 C2347 0.929 . S
H2356 C2364 0.929 . S
H2357 C2366 0.930 . S
H2358 C2368 0.930 . S
H2359 C2371 0.929 . S
H2360 C2374 0.930 . S
H2361 C2376 0.960 . S
H2362 C2376 0.960 . S
H2363 C2376 0.960 . S
C2364 H2356 0.929 . S
C2364 C2365 1.377 . S
C2364 C2366 1.384 . S
C2365 C2364 1.377 . S
C2365 C2371 1.390 . S
C2366 H2357 0.930 . S
C2366 C2364 1.384 . S
C2366 C2367 1.372 . S
C2367 C2366 1.372 . S
C2367 C2368 1.400 . S
C2367 C2372 1.490 . S
C2368 H2358 0.930 . S
C2368 C2367 1.400 . S
C2368 C2371 1.386 . S
H2369 C2385 0.930 . S
H2370 C2386 0.931 . S
C2371 H2359 0.929 . S
C2371 C2365 1.390 . S
C2371 C2368 1.386 . S
C2372 C2367 1.490 . S
C2372 C2374 1.395 . S
C2372 C2375 1.403 . S
H2373 C2379 0.930 . S
C2374 H2360 0.930 . S
C2374 C2372 1.395 . S
C2374 C2377 1.403 1_655 S
C2375 C2372 1.403 . S
C2375 C2376 1.524 . S
C2375 C2379 1.400 1_655 S
C2376 H2361 0.960 . S
C2376 H2362 0.960 . S
C2376 H2363 0.960 . S
C2376 C2375 1.524 . S
C2377 C2374 1.403 1_455 S
C2377 C2378 1.392 . S
C2377 C2381 1.495 . S
C2378 C2377 1.392 . S
C2378 C2379 1.385 . S
C2378 C2380 1.478 . S
C2379 H2373 0.930 . S
C2379 C2375 1.400 1_455 S
C2379 C2378 1.385 . S
C2380 C2378 1.478 . S
C2380 C2382 1.381 . S
C2380 C2386 1.383 . S
C2381 C2377 1.495 . S
C2381 H2387 0.959 . S
C2381 H2388 0.961 . S
C2381 H2389 0.960 . S
C2382 C2380 1.381 . S
C2382 C2383 1.394 . S
C2382 H2390 0.930 . S
C2383 C2382 1.394 . S
C2383 C2384 1.383 . S
C2383 H2391 0.929 . S
C2384 C2383 1.383 . S
C2384 C2385 1.377 . S
C2385 H2369 0.930 . S
C2385 C2384 1.377 . S
C2385 C2386 1.379 . S
C2386 H2370 0.931 . S
C2386 C2380 1.383 . S
C2386 C2385 1.379 . S
H2387 C2381 0.959 . S
H2388 C2381 0.961 . S
H2389 C2381 0.960 . S
H2390 C2382 0.930 . S
H2391 C2383 0.929 . S
H2392 C2400 0.929 . S
H2393 C2402 0.930 . S
H2394 C2404 0.930 . S
H2395 C2407 0.929 . S
H2396 C2410 0.930 . S
H2397 C2412 0.960 . S
H2398 C2412 0.960 . S
H2399 C2412 0.960 . S
C2400 H2392 0.929 . S
C2400 C2401 1.377 . S
C2400 C2402 1.384 . S
C2401 C2400 1.377 . S
C2401 C2407 1.390 . S
C2402 H2393 0.930 . S
C2402 C2400 1.384 . S
C2402 C2403 1.372 . S
C2403 C2402 1.372 . S
C2403 C2404 1.400 . S
C2403 C2408 1.490 . S
C2404 H2394 0.930 . S
C2404 C2403 1.400 . S
C2404 C2407 1.386 . S
H2405 C2421 0.930 . S
H2406 C2422 0.931 . S
C2407 H2395 0.929 . S
C2407 C2401 1.390 . S
C2407 C2404 1.386 . S
C2408 C2403 1.490 . S
C2408 C2410 1.395 . S
C2408 C2411 1.403 . S
H2409 C2415 0.930 . S
C2410 H2396 0.930 . S
C2410 C2408 1.395 . S
C2410 C2413 1.403 . S
C2411 C2408 1.403 . S
C2411 C2412 1.524 . S
C2411 C2415 1.400 . S
C2412 H2397 0.960 . S
C2412 H2398 0.960 . S
C2412 H2399 0.960 . S
C2412 C2411 1.524 . S
C2413 C2410 1.403 . S
C2413 C2414 1.392 . S
C2413 C2417 1.495 . S
C2414 C2413 1.392 . S
C2414 C2415 1.385 . S
C2414 C2416 1.478 . S
C2415 H2409 0.930 . S
C2415 C2411 1.400 . S
C2415 C2414 1.385 . S
C2416 C2414 1.478 . S
C2416 C2418 1.381 . S
C2416 C2422 1.383 . S
C2417 C2413 1.495 . S
C2417 H2423 0.959 . S
C2417 H2424 0.961 . S
C2417 H2425 0.960 . S
C2418 C2416 1.381 . S
C2418 C2419 1.394 . S
C2418 H2426 0.930 . S
C2419 C2418 1.394 . S
C2419 C2420 1.383 . S
C2419 H2427 0.929 . S
C2420 C2419 1.383 . S
C2420 C2421 1.377 . S
C2421 H2405 0.930 . S
C2421 C2420 1.377 . S
C2421 C2422 1.379 . S
C2422 H2406 0.931 . S
C2422 C2416 1.383 . S
C2422 C2421 1.379 . S
H2423 C2417 0.959 . S
H2424 C2417 0.961 . S
H2425 C2417 0.960 . S
H2426 C2418 0.930 . S
H2427 C2419 0.929 . S
H2428 C2436 0.929 . S
H2429 C2438 0.930 . S
H2430 C2440 0.930 . S
H2431 C2443 0.929 . S
H2432 C2446 0.930 . S
H2433 C2448 0.960 . S
H2434 C2448 0.960 . S
H2435 C2448 0.960 . S
C2436 H2428 0.929 . S
C2436 C2437 1.377 . S
C2436 C2438 1.384 . S
C2437 C2436 1.377 . S
C2437 C2443 1.390 . S
C2438 H2429 0.930 . S
C2438 C2436 1.384 . S
C2438 C2439 1.372 . S
C2439 C2438 1.372 . S
C2439 C2440 1.400 . S
C2439 C2444 1.490 . S
C2440 H2430 0.930 . S
C2440 C2439 1.400 . S
C2440 C2443 1.386 . S
H2441 C2457 0.930 . S
H2442 C2458 0.931 . S
C2443 H2431 0.929 . S
C2443 C2437 1.390 . S
C2443 C2440 1.386 . S
C2444 C2439 1.490 . S
C2444 C2446 1.395 . S
C2444 C2447 1.403 . S
H2445 C2451 0.930 . S
C2446 H2432 0.930 . S
C2446 C2444 1.395 . S
C2446 C2449 1.403 . S
C2447 C2444 1.403 . S
C2447 C2448 1.524 . S
C2447 C2451 1.400 . S
C2448 H2433 0.960 . S
C2448 H2434 0.960 . S
C2448 H2435 0.960 . S
C2448 C2447 1.524 . S
C2449 C2446 1.403 . S
C2449 C2450 1.392 . S
C2449 C2453 1.495 . S
C2450 C2449 1.392 . S
C2450 C2451 1.385 . S
C2450 C2452 1.478 . S
C2451 H2445 0.930 . S
C2451 C2447 1.400 . S
C2451 C2450 1.385 . S
C2452 C2450 1.478 . S
C2452 C2454 1.381 . S
C2452 C2458 1.383 . S
C2453 C2449 1.495 . S
C2453 H2459 0.959 . S
C2453 H2460 0.961 . S
C2453 H2461 0.960 . S
C2454 C2452 1.381 . S
C2454 C2455 1.394 . S
C2454 H2462 0.930 . S
C2455 C2454 1.394 . S
C2455 C2456 1.383 . S
C2455 H2463 0.929 . S
C2456 C2455 1.383 . S
C2456 C2457 1.377 . S
C2457 H2441 0.930 . S
C2457 C2456 1.377 . S
C2457 C2458 1.379 . S
C2458 H2442 0.931 . S
C2458 C2452 1.383 . S
C2458 C2457 1.379 . S
H2459 C2453 0.959 . S
H2460 C2453 0.961 . S
H2461 C2453 0.960 . S
H2462 C2454 0.930 . S
H2463 C2455 0.929 . S
H2464 C2472 0.929 . S
H2465 C2474 0.930 . S
H2466 C2476 0.930 . S
H2467 C2479 0.929 . S
H2468 C2482 0.930 . S
H2469 C2484 0.960 . S
H2470 C2484 0.960 . S
H2471 C2484 0.960 . S
C2472 H2464 0.929 . S
C2472 C2473 1.377 . S
C2472 C2474 1.384 . S
C2473 C2472 1.377 . S
C2473 C2479 1.390 . S
C2474 H2465 0.930 . S
C2474 C2472 1.384 . S
C2474 C2475 1.372 . S
C2475 C2474 1.372 . S
C2475 C2476 1.400 . S
C2475 C2480 1.490 . S
C2476 H2466 0.930 . S
C2476 C2475 1.400 . S
C2476 C2479 1.386 . S
H2477 C2493 0.930 . S
H2478 C2494 0.931 . S
C2479 H2467 0.929 . S
C2479 C2473 1.390 . S
C2479 C2476 1.386 . S
C2480 C2475 1.490 . S
C2480 C2482 1.395 . S
C2480 C2483 1.403 . S
H2481 C2487 0.930 . S
C2482 H2468 0.930 . S
C2482 C2480 1.395 . S
C2482 C2485 1.403 . S
C2483 C2480 1.403 . S
C2483 C2484 1.524 . S
C2483 C2487 1.400 . S
C2484 H2469 0.960 . S
C2484 H2470 0.960 . S
C2484 H2471 0.960 . S
C2484 C2483 1.524 . S
C2485 C2482 1.403 . S
C2485 C2486 1.392 . S
C2485 C2489 1.495 . S
C2486 C2485 1.392 . S
C2486 C2487 1.385 . S
C2486 C2488 1.478 . S
C2487 H2481 0.930 . S
C2487 C2483 1.400 . S
C2487 C2486 1.385 . S
C2488 C2486 1.478 . S
C2488 C2490 1.381 . S
C2488 C2494 1.383 . S
C2489 C2485 1.495 . S
C2489 H2495 0.959 . S
C2489 H2496 0.961 . S
C2489 H2497 0.960 . S
C2490 C2488 1.381 . S
C2490 C2491 1.394 . S
C2490 H2498 0.930 . S
C2491 C2490 1.394 . S
C2491 C2492 1.383 . S
C2491 H2499 0.929 . S
C2492 C2491 1.383 . S
C2492 C2493 1.377 . S
C2493 H2477 0.930 . S
C2493 C2492 1.377 . S
C2493 C2494 1.379 . S
C2494 H2478 0.931 . S
C2494 C2488 1.383 . S
C2494 C2493 1.379 . S
H2495 C2489 0.959 . S
H2496 C2489 0.961 . S
H2497 C2489 0.960 . S
H2498 C2490 0.930 . S
H2499 C2491 0.929 . S
H2500 C2508 0.929 . S
H2501 C2510 0.930 . S
H2502 C2512 0.930 . S
H2503 C2515 0.929 . S
H2504 C2518 0.930 . S
H2505 C2520 0.960 . S
H2506 C2520 0.960 . S
H2507 C2520 0.960 . S
C2508 H2500 0.929 . S
C2508 C2509 1.377 . S
C2508 C2510 1.384 . S
C2509 C2508 1.377 . S
C2509 C2515 1.390 . S
C2510 H2501 0.930 . S
C2510 C2508 1.384 . S
C2510 C2511 1.372 . S
C2511 C2510 1.372 . S
C2511 C2512 1.400 . S
C2511 C2516 1.490 . S
C2512 H2502 0.930 . S
C2512 C2511 1.400 . S
C2512 C2515 1.386 . S
H2513 C2529 0.930 . S
H2514 C2530 0.931 . S
C2515 H2503 0.929 . S
C2515 C2509 1.390 . S
C2515 C2512 1.386 . S
C2516 C2511 1.490 . S
C2516 C2518 1.395 . S
C2516 C2519 1.403 . S
H2517 C2523 0.930 . S
C2518 H2504 0.930 . S
C2518 C2516 1.395 . S
C2518 C2521 1.403 . S
C2519 C2516 1.403 . S
C2519 C2520 1.524 . S
C2519 C2523 1.400 . S
C2520 H2505 0.960 . S
C2520 H2506 0.960 . S
C2520 H2507 0.960 . S
C2520 C2519 1.524 . S
C2521 C2518 1.403 . S
C2521 C2522 1.392 . S
C2521 C2525 1.495 . S
C2522 C2521 1.392 . S
C2522 C2523 1.385 . S
C2522 C2524 1.478 . S
C2523 H2517 0.930 . S
C2523 C2519 1.400 . S
C2523 C2522 1.385 . S
C2524 C2522 1.478 . S
C2524 C2526 1.381 . S
C2524 C2530 1.383 . S
C2525 C2521 1.495 . S
C2525 H2531 0.959 . S
C2525 H2532 0.961 . S
C2525 H2533 0.960 . S
C2526 C2524 1.381 . S
C2526 C2527 1.394 . S
C2526 H2534 0.930 . S
C2527 C2526 1.394 . S
C2527 C2528 1.383 . S
C2527 H2535 0.929 . S
C2528 C2527 1.383 . S
C2528 C2529 1.377 . S
C2529 H2513 0.930 . S
C2529 C2528 1.377 . S
C2529 C2530 1.379 . S
C2530 H2514 0.931 . S
C2530 C2524 1.383 . S
C2530 C2529 1.379 . S
H2531 C2525 0.959 . S
H2532 C2525 0.961 . S
H2533 C2525 0.960 . S
H2534 C2526 0.930 . S
H2535 C2527 0.929 . S
H2536 C2544 0.929 . S
H2537 C2546 0.930 . S
H2538 C2548 0.930 . S
H2539 C2551 0.929 . S
H2540 C2554 0.930 . S
H2541 C2556 0.960 . S
H2542 C2556 0.960 . S
H2543 C2556 0.960 . S
C2544 H2536 0.929 . S
C2544 C2545 1.377 . S
C2544 C2546 1.384 . S
C2545 C2544 1.377 . S
C2545 C2551 1.390 . S
C2546 H2537 0.930 . S
C2546 C2544 1.384 . S
C2546 C2547 1.372 . S
C2547 C2546 1.372 . S
C2547 C2548 1.400 . S
C2547 C2552 1.490 . S
C2548 H2538 0.930 . S
C2548 C2547 1.400 . S
C2548 C2551 1.386 . S
H2549 C2565 0.930 . S
H2550 C2566 0.931 . S
C2551 H2539 0.929 . S
C2551 C2545 1.390 . S
C2551 C2548 1.386 . S
C2552 C2547 1.490 . S
C2552 C2554 1.395 . S
C2552 C2555 1.403 . S
H2553 C2559 0.930 . S
C2554 H2540 0.930 . S
C2554 C2552 1.395 . S
C2554 C2557 1.403 . S
C2555 C2552 1.403 . S
C2555 C2556 1.524 . S
C2555 C2559 1.400 . S
C2556 H2541 0.960 . S
C2556 H2542 0.960 . S
C2556 H2543 0.960 . S
C2556 C2555 1.524 . S
C2557 C2554 1.403 . S
C2557 C2558 1.392 . S
C2557 C2561 1.495 . S
C2558 C2557 1.392 . S
C2558 C2559 1.385 . S
C2558 C2560 1.478 . S
C2559 H2553 0.930 . S
C2559 C2555 1.400 . S
C2559 C2558 1.385 . S
C2560 C2558 1.478 . S
C2560 C2562 1.381 . S
C2560 C2566 1.383 . S
C2561 C2557 1.495 . S
C2561 H2567 0.959 . S
C2561 H2568 0.961 . S
C2561 H2569 0.960 . S
C2562 C2560 1.381 . S
C2562 C2563 1.394 . S
C2562 H2570 0.930 . S
C2563 C2562 1.394 . S
C2563 C2564 1.383 . S
C2563 H2571 0.929 . S
C2564 C2563 1.383 . S
C2564 C2565 1.377 . S
C2565 H2549 0.930 . S
C2565 C2564 1.377 . S
C2565 C2566 1.379 . S
C2566 H2550 0.931 . S
C2566 C2560 1.383 . S
C2566 C2565 1.379 . S
H2567 C2561 0.959 . S
H2568 C2561 0.961 . S
H2569 C2561 0.960 . S
H2570 C2562 0.930 . S
H2571 C2563 0.929 . S
H2572 C2580 0.929 . S
H2573 C2582 0.930 . S
H2574 C2584 0.930 . S
H2575 C2587 0.929 . S
H2576 C2590 0.930 . S
H2577 C2592 0.960 . S
H2578 C2592 0.960 . S
H2579 C2592 0.960 . S
C2580 H2572 0.929 . S
C2580 C2581 1.377 . S
C2580 C2582 1.384 . S
C2581 C2580 1.377 . S
C2581 C2587 1.390 . S
C2582 H2573 0.930 . S
C2582 C2580 1.384 . S
C2582 C2583 1.372 . S
C2583 C2582 1.372 . S
C2583 C2584 1.400 . S
C2583 C2588 1.490 . S
C2584 H2574 0.930 . S
C2584 C2583 1.400 . S
C2584 C2587 1.386 . S
H2585 C2601 0.930 . S
H2586 C2602 0.931 . S
C2587 H2575 0.929 . S
C2587 C2581 1.390 . S
C2587 C2584 1.386 . S
C2588 C2583 1.490 . S
C2588 C2590 1.395 . S
C2588 C2591 1.403 . S
H2589 C2595 0.930 . S
C2590 H2576 0.930 . S
C2590 C2588 1.395 . S
C2590 C2593 1.403 . S
C2591 C2588 1.403 . S
C2591 C2592 1.524 . S
C2591 C2595 1.400 . S
C2592 H2577 0.960 . S
C2592 H2578 0.960 . S
C2592 H2579 0.960 . S
C2592 C2591 1.524 . S
C2593 C2590 1.403 . S
C2593 C2594 1.392 . S
C2593 C2597 1.495 . S
C2594 C2593 1.392 . S
C2594 C2595 1.385 . S
C2594 C2596 1.478 . S
C2595 H2589 0.930 . S
C2595 C2591 1.400 . S
C2595 C2594 1.385 . S
C2596 C2594 1.478 . S
C2596 C2598 1.381 . S
C2596 C2602 1.383 . S
C2597 C2593 1.495 . S
C2597 H2603 0.959 . S
C2597 H2604 0.961 . S
C2597 H2605 0.960 . S
C2598 C2596 1.381 . S
C2598 C2599 1.394 . S
C2598 H2606 0.930 . S
C2599 C2598 1.394 . S
C2599 C2600 1.383 . S
C2599 H2607 0.929 . S
C2600 C2599 1.383 . S
C2600 C2601 1.377 . S
C2601 H2585 0.930 . S
C2601 C2600 1.377 . S
C2601 C2602 1.379 . S
C2602 H2586 0.931 . S
C2602 C2596 1.383 . S
C2602 C2601 1.379 . S
H2603 C2597 0.959 . S
H2604 C2597 0.961 . S
H2605 C2597 0.960 . S
H2606 C2598 0.930 . S
H2607 C2599 0.929 . S
H2608 C2616 0.929 . S
H2609 C2618 0.930 . S
H2610 C2620 0.930 . S
H2611 C2623 0.929 . S
H2612 C2626 0.930 . S
H2613 C2628 0.960 . S
H2614 C2628 0.960 . S
H2615 C2628 0.960 . S
C2616 H2608 0.929 . S
C2616 C2617 1.377 . S
C2616 C2618 1.384 . S
C2617 C2616 1.377 . S
C2617 C2623 1.390 . S
C2618 H2609 0.930 . S
C2618 C2616 1.384 . S
C2618 C2619 1.372 . S
C2619 C2618 1.372 . S
C2619 C2620 1.400 . S
C2619 C2624 1.490 . S
C2620 H2610 0.930 . S
C2620 C2619 1.400 . S
C2620 C2623 1.386 . S
H2621 C2637 0.930 . S
H2622 C2638 0.931 . S
C2623 H2611 0.929 . S
C2623 C2617 1.390 . S
C2623 C2620 1.386 . S
C2624 C2619 1.490 . S
C2624 C2626 1.395 . S
C2624 C2627 1.403 . S
H2625 C2631 0.930 . S
C2626 H2612 0.930 . S
C2626 C2624 1.395 . S
C2626 C2629 1.403 1_655 S
C2627 C2624 1.403 . S
C2627 C2628 1.524 . S
C2627 C2631 1.400 1_655 S
C2628 H2613 0.960 . S
C2628 H2614 0.960 . S
C2628 H2615 0.960 . S
C2628 C2627 1.524 . S
C2629 C2626 1.403 1_455 S
C2629 C2630 1.392 . S
C2629 C2633 1.495 . S
C2630 C2629 1.392 . S
C2630 C2631 1.385 . S
C2630 C2632 1.478 . S
C2631 H2625 0.930 . S
C2631 C2627 1.400 1_455 S
C2631 C2630 1.385 . S
C2632 C2630 1.478 . S
C2632 C2634 1.381 . S
C2632 C2638 1.383 . S
C2633 C2629 1.495 . S
C2633 H2639 0.959 . S
C2633 H2640 0.961 . S
C2633 H2641 0.960 . S
C2634 C2632 1.381 . S
C2634 C2635 1.394 . S
C2634 H2642 0.930 . S
C2635 C2634 1.394 . S
C2635 C2636 1.383 . S
C2635 H2643 0.929 . S
C2636 C2635 1.383 . S
C2636 C2637 1.377 . S
C2637 H2621 0.930 . S
C2637 C2636 1.377 . S
C2637 C2638 1.379 . S
C2638 H2622 0.931 . S
C2638 C2632 1.383 . S
C2638 C2637 1.379 . S
H2639 C2633 0.959 . S
H2640 C2633 0.961 . S
H2641 C2633 0.960 . S
H2642 C2634 0.930 . S
H2643 C2635 0.929 . S
H2644 C2652 0.929 . S
H2645 C2654 0.930 . S
H2646 C2656 0.930 . S
H2647 C2659 0.929 . S
H2648 C2662 0.930 . S
H2649 C2664 0.960 . S
H2650 C2664 0.960 . S
H2651 C2664 0.960 . S
C2652 H2644 0.929 . S
C2652 C2653 1.377 . S
C2652 C2654 1.384 . S
C2653 C2652 1.377 . S
C2653 C2659 1.390 . S
C2654 H2645 0.930 . S
C2654 C2652 1.384 . S
C2654 C2655 1.372 . S
C2655 C2654 1.372 . S
C2655 C2656 1.400 . S
C2655 C2660 1.490 . S
C2656 H2646 0.930 . S
C2656 C2655 1.400 . S
C2656 C2659 1.386 . S
H2657 C2673 0.930 . S
H2658 C2674 0.931 . S
C2659 H2647 0.929 . S
C2659 C2653 1.390 . S
C2659 C2656 1.386 . S
C2660 C2655 1.490 . S
C2660 C2662 1.395 . S
C2660 C2663 1.403 . S
H2661 C2667 0.930 . S
C2662 H2648 0.930 . S
C2662 C2660 1.395 . S
C2662 C2665 1.403 . S
C2663 C2660 1.403 . S
C2663 C2664 1.524 . S
C2663 C2667 1.400 . S
C2664 H2649 0.960 . S
C2664 H2650 0.960 . S
C2664 H2651 0.960 . S
C2664 C2663 1.524 . S
C2665 C2662 1.403 . S
C2665 C2666 1.392 . S
C2665 C2669 1.495 . S
C2666 C2665 1.392 . S
C2666 C2667 1.385 . S
C2666 C2668 1.478 . S
C2667 H2661 0.930 . S
C2667 C2663 1.400 . S
C2667 C2666 1.385 . S
C2668 C2666 1.478 . S
C2668 C2670 1.381 . S
C2668 C2674 1.383 . S
C2669 C2665 1.495 . S
C2669 H2675 0.959 . S
C2669 H2676 0.961 . S
C2669 H2677 0.960 . S
C2670 C2668 1.381 . S
C2670 C2671 1.394 . S
C2670 H2678 0.930 . S
C2671 C2670 1.394 . S
C2671 C2672 1.383 . S
C2671 H2679 0.929 . S
C2672 C2671 1.383 . S
C2672 C2673 1.377 . S
C2673 H2657 0.930 . S
C2673 C2672 1.377 . S
C2673 C2674 1.379 . S
C2674 H2658 0.931 . S
C2674 C2668 1.383 . S
C2674 C2673 1.379 . S
H2675 C2669 0.959 . S
H2676 C2669 0.961 . S
H2677 C2669 0.960 . S
H2678 C2670 0.930 . S
H2679 C2671 0.929 . S
H2680 C2688 0.929 . S
H2681 C2690 0.930 . S
H2682 C2692 0.930 . S
H2683 C2695 0.929 . S
H2684 C2698 0.930 . S
H2685 C2700 0.960 . S
H2686 C2700 0.960 . S
H2687 C2700 0.960 . S
C2688 H2680 0.929 . S
C2688 C2689 1.377 . S
C2688 C2690 1.384 . S
C2689 C2688 1.377 . S
C2689 C2695 1.390 . S
C2690 H2681 0.930 . S
C2690 C2688 1.384 . S
C2690 C2691 1.372 . S
C2691 C2690 1.372 . S
C2691 C2692 1.400 . S
C2691 C2696 1.490 . S
C2692 H2682 0.930 . S
C2692 C2691 1.400 . S
C2692 C2695 1.386 . S
H2693 C2709 0.930 . S
H2694 C2710 0.931 . S
C2695 H2683 0.929 . S
C2695 C2689 1.390 . S
C2695 C2692 1.386 . S
C2696 C2691 1.490 . S
C2696 C2698 1.395 . S
C2696 C2699 1.403 . S
H2697 C2703 0.930 . S
C2698 H2684 0.930 . S
C2698 C2696 1.395 . S
C2698 C2701 1.403 . S
C2699 C2696 1.403 . S
C2699 C2700 1.524 . S
C2699 C2703 1.400 . S
C2700 H2685 0.960 . S
C2700 H2686 0.960 . S
C2700 H2687 0.960 . S
C2700 C2699 1.524 . S
C2701 C2698 1.403 . S
C2701 C2702 1.392 . S
C2701 C2705 1.495 . S
C2702 C2701 1.392 . S
C2702 C2703 1.385 . S
C2702 C2704 1.478 . S
C2703 H2697 0.930 . S
C2703 C2699 1.400 . S
C2703 C2702 1.385 . S
C2704 C2702 1.478 . S
C2704 C2706 1.381 . S
C2704 C2710 1.383 . S
C2705 C2701 1.495 . S
C2705 H2711 0.959 . S
C2705 H2712 0.961 . S
C2705 H2713 0.960 . S
C2706 C2704 1.381 . S
C2706 C2707 1.394 . S
C2706 H2714 0.930 . S
C2707 C2706 1.394 . S
C2707 C2708 1.383 . S
C2707 H2715 0.929 . S
C2708 C2707 1.383 . S
C2708 C2709 1.377 . S
C2709 H2693 0.930 . S
C2709 C2708 1.377 . S
C2709 C2710 1.379 . S
C2710 H2694 0.931 . S
C2710 C2704 1.383 . S
C2710 C2709 1.379 . S
H2711 C2705 0.959 . S
H2712 C2705 0.961 . S
H2713 C2705 0.960 . S
H2714 C2706 0.930 . S
H2715 C2707 0.929 . S
H2716 C2724 0.929 . S
H2717 C2726 0.930 . S
H2718 C2728 0.930 . S
H2719 C2731 0.929 . S
H2720 C2734 0.930 . S
H2721 C2736 0.960 . S
H2722 C2736 0.960 . S
H2723 C2736 0.960 . S
C2724 H2716 0.929 . S
C2724 C2725 1.377 . S
C2724 C2726 1.384 . S
C2725 C2724 1.377 . S
C2725 C2731 1.390 . S
C2726 H2717 0.930 . S
C2726 C2724 1.384 . S
C2726 C2727 1.372 . S
C2727 C2726 1.372 . S
C2727 C2728 1.400 . S
C2727 C2732 1.490 . S
C2728 H2718 0.930 . S
C2728 C2727 1.400 . S
C2728 C2731 1.386 . S
H2729 C2745 0.930 . S
H2730 C2746 0.931 . S
C2731 H2719 0.929 . S
C2731 C2725 1.390 . S
C2731 C2728 1.386 . S
C2732 C2727 1.490 . S
C2732 C2734 1.395 . S
C2732 C2735 1.403 . S
H2733 C2739 0.930 . S
C2734 H2720 0.930 . S
C2734 C2732 1.395 . S
C2734 C2737 1.403 1_655 S
C2735 C2732 1.403 . S
C2735 C2736 1.524 . S
C2735 C2739 1.400 1_655 S
C2736 H2721 0.960 . S
C2736 H2722 0.960 . S
C2736 H2723 0.960 . S
C2736 C2735 1.524 . S
C2737 C2734 1.403 1_455 S
C2737 C2738 1.392 . S
C2737 C2741 1.495 . S
C2738 C2737 1.392 . S
C2738 C2739 1.385 . S
C2738 C2740 1.478 . S
C2739 H2733 0.930 . S
C2739 C2735 1.400 1_455 S
C2739 C2738 1.385 . S
C2740 C2738 1.478 . S
C2740 C2742 1.381 . S
C2740 C2746 1.383 . S
C2741 C2737 1.495 . S
C2741 H2747 0.959 . S
C2741 H2748 0.961 . S
C2741 H2749 0.960 . S
C2742 C2740 1.381 . S
C2742 C2743 1.394 . S
C2742 H2750 0.930 . S
C2743 C2742 1.394 . S
C2743 C2744 1.383 . S
C2743 H2751 0.929 . S
C2744 C2743 1.383 . S
C2744 C2745 1.377 . S
C2745 H2729 0.930 . S
C2745 C2744 1.377 . S
C2745 C2746 1.379 . S
C2746 H2730 0.931 . S
C2746 C2740 1.383 . S
C2746 C2745 1.379 . S
H2747 C2741 0.959 . S
H2748 C2741 0.961 . S
H2749 C2741 0.960 . S
H2750 C2742 0.930 . S
H2751 C2743 0.929 . S
C457 C333 1.276 . S
C476 C11 1.244 . S
C493 C291 1.283 . S
C512 C25 1.275 . S
C529 C305 1.277 . S
C548 C39 1.242 . S
C565 C319 1.283 . S
C584 C53 1.241 . S
C601 C67 1.280 . S
C620 C249 1.294 . S
C637 C263 1.283 . S
C656 C81 1.240 . S
C673 C95 1.270 . S
C692 C277 1.307 . S
C709 C109 1.284 . S
C728 C235 1.260 . S
C745 C445 1.285 . S
C764 C123 1.263 . S
C781 C137 1.281 . S
C800 C403 1.293 . S
C817 C151 1.281 . S
C836 C417 1.291 . S
C853 C165 1.283 . S
C872 C431 1.240 . S
C889 C179 1.271 . S
C908 C361 1.267 . S
C925 C193 1.273 . S
C944 C375 1.255 . S
C961 C207 1.283 . S
C980 C389 1.241 . S
C997 C221 1.277 . S
C1016 C347 1.307 . S
C1033 C4 1.619 . S
C1052 C172 1.624 . S
C1069 C410 1.629 . S
C1088 C18 1.608 . S
C1105 C32 1.622 . S
C1124 C200 1.603 . S
C1141 C438 1.626 . S
C1160 C46 1.597 . S
C1177 C116 1.619 . S
C1196 C60 1.629 . S
C1213 C74 1.626 . S
C1232 C354 1.633 . S
C1249 C88 1.625 . S
C1268 C144 1.639 . S
C1285 C102 1.626 . S
C1304 C382 1.597 . S
C1321 C298 1.620 . S
C1340 C130 1.620 . S
C1357 C326 1.628 . S
C1376 C158 1.600 . S
C1393 C186 1.619 . S
C1412 C242 1.634 . S
C1429 C270 1.628 . S
C1448 C214 1.620 . S
C1465 C396 1.624 . S
C1484 C228 1.599 . S
C1501 C256 1.627 . S
C1520 C424 1.629 . S
C1537 C340 1.621 . S
C1556 C284 1.643 . S
C1573 C368 1.623 . S
C1592 C312 1.601 . S
C1609 C61 0.932 . S
C1628 C5 0.938 . S
C1645 C75 0.924 . S
C1664 C19 0.972 . S
C1681 C33 0.934 . S
C1700 C89 0.874 . S
C1717 C47 0.925 . S
C1736 C103 0.865 . S
C1753 C173 0.935 . S
C1772 C117 0.900 . S
C1789 C187 0.920 . S
C1808 C131 0.978 . S
C1825 C201 0.935 . S
C1844 C145 0.900 . S
C1861 C159 0.935 . S
C1880 C215 0.883 . S
C1897 C229 0.921 . S
C1916 C285 0.978 . S
C1933 C243 0.932 . S
C1952 C299 0.937 . S
C1969 C257 0.919 . S
C1988 C313 0.881 . S
C2005 C271 0.912 . S
C2024 C327 0.969 . S
C2041 C397 0.935 . S
C2060 C341 0.910 . S
C2077 C411 0.935 . S
C2096 C355 0.879 . S
C2113 C425 0.923 . S
C2132 C369 0.869 . S
C2149 C439 0.935 . S
C2168 C383 0.899 . S
C2185 C432 1.089 . S
C2204 C12 1.068 . S
C2221 C26 1.085 . S
C2240 C222 1.100 . S
C2257 C404 1.085 . S
C2276 C40 1.100 . S
C2293 C54 1.086 . S
C2312 C194 1.107 . S
C2329 C376 1.092 . S
C2348 C68 1.067 . S
C2365 C82 1.085 . S
C2384 C166 1.102 . S
C2401 C96 1.087 . S
C2420 C348 1.077 . S
C2437 C138 1.086 . S
C2456 C110 1.107 . S
C2473 C124 1.091 . S
C2492 C320 1.066 . S
C2509 C292 1.093 . S
C2528 C152 1.085 . S
C2545 C180 1.086 . S
C2564 C264 1.084 . S
C2581 C208 1.090 . S
C2600 C236 1.104 . S
C2617 C446 1.087 . S
C2636 C250 1.074 . S
C2653 C278 1.091 . S
C2672 C418 1.066 . S
C2689 C306 1.085 . S
C2708 C390 1.099 . S
C2725 C362 1.089 . S
C2744 C334 1.068 . S
