# Generated by pormake.
# Topology wkb, (5)-cn, num edge types: 1
# Building blocks:
#     Node 0, Type 0, BuildingBlock: BEQFEK_clean_sbu_0, # of connection points: 5
#     Node 1, Type 0, BuildingBlock: BEQFEK_clean_sbu_0, # of connection points: 5
#     Node 2, Type 0, BuildingBlock: BEQFEK_clean_sbu_0, # of connection points: 5
#     Node 3, Type 0, BuildingBlock: BEQFEK_clean_sbu_0, # of connection points: 5
#     Node 4, Type 0, BuildingBlock: BEQFEK_clean_sbu_0, # of connection points: 5
#     Node 5, Type 0, BuildingBlock: BEQFEK_clean_sbu_0, # of connection points: 5
#     Node 6, Type 0, BuildingBlock: BEQFEK_clean_sbu_0, # of connection points: 5
#     Node 7, Type 0, BuildingBlock: BEQFEK_clean_sbu_0, # of connection points: 5
#     Node 8, Type 0, BuildingBlock: BEQFEK_clean_sbu_0, # of connection points: 5
#     Node 9, Type 0, BuildingBlock: BEQFEK_clean_sbu_0, # of connection points: 5
#     Node 10, Type 0, BuildingBlock: BEQFEK_clean_sbu_0, # of connection points: 5
#     Node 11, Type 0, BuildingBlock: BEQFEK_clean_sbu_0, # of connection points: 5
#     Edge 12, Type (0, 0), BuildingBlock: ZUJKAS_clean_linker_0, # of connection points: 2
#     Edge 13, Type (0, 0), BuildingBlock: ZUJKAS_clean_linker_0, # of connection points: 2
#     Edge 14, Type (0, 0), BuildingBlock: ZUJKAS_clean_linker_0, # of connection points: 2
#     Edge 15, Type (0, 0), BuildingBlock: ZUJKAS_clean_linker_0, # of connection points: 2
#     Edge 16, Type (0, 0), BuildingBlock: ZUJKAS_clean_linker_0, # of connection points: 2
#     Edge 17, Type (0, 0), BuildingBlock: ZUJKAS_clean_linker_0, # of connection points: 2
#     Edge 18, Type (0, 0), BuildingBlock: ZUJKAS_clean_linker_0, # of connection points: 2
#     Edge 19, Type (0, 0), BuildingBlock: ZUJKAS_clean_linker_0, # of connection points: 2
#     Edge 20, Type (0, 0), BuildingBlock: ZUJKAS_clean_linker_0, # of connection points: 2
#     Edge 21, Type (0, 0), BuildingBlock: ZUJKAS_clean_linker_0, # of connection points: 2
#     Edge 22, Type (0, 0), BuildingBlock: ZUJKAS_clean_linker_0, # of connection points: 2
#     Edge 23, Type (0, 0), BuildingBlock: ZUJKAS_clean_linker_0, # of connection points: 2
#     Edge 24, Type (0, 0), BuildingBlock: ZUJKAS_clean_linker_0, # of connection points: 2
#     Edge 25, Type (0, 0), BuildingBlock: ZUJKAS_clean_linker_0, # of connection points: 2
#     Edge 26, Type (0, 0), BuildingBlock: ZUJKAS_clean_linker_0, # of connection points: 2
#     Edge 27, Type (0, 0), BuildingBlock: ZUJKAS_clean_linker_0, # of connection points: 2
#     Edge 28, Type (0, 0), BuildingBlock: ZUJKAS_clean_linker_0, # of connection points: 2
#     Edge 29, Type (0, 0), BuildingBlock: ZUJKAS_clean_linker_0, # of connection points: 2
#     Edge 30, Type (0, 0), BuildingBlock: ZUJKAS_clean_linker_0, # of connection points: 2
#     Edge 31, Type (0, 0), BuildingBlock: ZUJKAS_clean_linker_0, # of connection points: 2
#     Edge 32, Type (0, 0), BuildingBlock: ZUJKAS_clean_linker_0, # of connection points: 2
#     Edge 33, Type (0, 0), BuildingBlock: ZUJKAS_clean_linker_0, # of connection points: 2
#     Edge 34, Type (0, 0), BuildingBlock: ZUJKAS_clean_linker_0, # of connection points: 2
#     Edge 35, Type (0, 0), BuildingBlock: ZUJKAS_clean_linker_0, # of connection points: 2
#     Edge 36, Type (0, 0), BuildingBlock: ZUJKAS_clean_linker_0, # of connection points: 2
#     Edge 37, Type (0, 0), BuildingBlock: ZUJKAS_clean_linker_0, # of connection points: 2
#     Edge 38, Type (0, 0), BuildingBlock: ZUJKAS_clean_linker_0, # of connection points: 2
#     Edge 39, Type (0, 0), BuildingBlock: ZUJKAS_clean_linker_0, # of connection points: 2
#     Edge 40, Type (0, 0), BuildingBlock: ZUJKAS_clean_linker_0, # of connection points: 2
#     Edge 41, Type (0, 0), BuildingBlock: ZUJKAS_clean_linker_0, # of connection points: 2
# Relax obj value: 0.101
# Max RMSD: 0.135
# Mean RMSD: 0.135
data_MOF--net-wkb--node1-BEQFEK_clean_sbu_0--edge1-ZUJKAS_clean_linker_0
_symmetry_space_group_name_H-M    P1
_symmetry_Int_Tables_number       1
_symmetry_cell_setting            triclinic
loop_
_symmetry_equiv_pos_as_xyz
'x, y, z'
_cell_length_a     56.816564
_cell_length_b     56.840211
_cell_length_c     50.919637
_cell_angle_alpha  90.059503
_cell_angle_beta   89.971326
_cell_angle_gamma 120.04185
loop_
_atom_site_label
_atom_site_type_symbol
_atom_site_fract_x
_atom_site_fract_y
_atom_site_fract_z
_atom_type_partial_charge
Co0 Co 0.03956 0.35281 0.0233 0.0
Co1 Co 0.0684 0.36056 0.07766 0.0
C2 C 0.01121 0.31637 0.06999 0.0
O3 O 0.01165 0.32359 0.04617 0.0
O4 O 0.03199 0.32883 0.0848 0.0
C5 C 0.01897 0.35912 0.97308 0.0
O6 O 0.01778 0.37933 0.98428 0.0
C7 C 0.09254 0.35299 0.1263 0.0
C8 C 0.12913 0.39371 0.12962 0.0
C9 C 0.11586 0.36825 0.14115 0.0
N10 N 0.09228 0.36877 0.10675 0.0
N11 N 0.11403 0.39314 0.10908 0.0
C12 C 0.07225 0.32338 0.12902 0.0
H13 H 0.05513 0.32101 0.14143 0.0
H14 H 0.06402 0.31434 0.10949 0.0
H15 H 0.08154 0.31239 0.13847 0.0
C16 C 0.08771 0.34951 0.00569 0.0
N17 N 0.07283 0.35256 0.02462 0.0
N18 N 0.08433 0.3545 0.04752 0.0
C19 C 0.1066 0.35214 0.04398 0.0
C20 C 0.10959 0.34903 0.01731 0.0
C21 C 0.08171 0.34842 0.97696 0.0
H22 H 0.07605 0.36395 0.97208 0.0
H23 H 0.06426 0.3281 0.97211 0.0
H24 H 0.09946 0.35212 0.96482 0.0
O25 O 0.04489 0.38875 0.03441 0.0
O26 O 0.06483 0.39328 0.07297 0.0
H27 H 0.1367 0.37162 0.07384 0.0
H28 H 0.13644 0.34254 0.05921 0.0
C29 C 0.1235 0.35089 0.06588 0.0
H30 H 0.11009 0.3378 0.08181 0.0
H31 H 0.11894 0.40918 0.09615 0.0
O32 O 0.02651 0.34522 0.98649 0.0
C33 C 0.05538 0.40219 0.05538 0.0
Co34 Co 0.68806 0.03537 0.19049 0.0
Co35 Co 0.71092 0.0639 0.24466 0.0
C36 C 0.6977 0.00664 0.23544 0.0
O37 O 0.68996 0.00698 0.21199 0.0
O38 O 0.7065 0.0274 0.25034 0.0
C39 C 0.69066 0.0112 0.14174 0.0
O40 O 0.70772 0.00619 0.15461 0.0
C41 C 0.74555 0.08686 0.2918 0.0
C42 C 0.73919 0.12144 0.30022 0.0
C43 C 0.75341 0.10889 0.30853 0.0
N44 N 0.72768 0.08665 0.27434 0.0
N45 N 0.72374 0.10717 0.27972 0.0
C46 C 0.75667 0.06794 0.29069 0.0
H47 H 0.75492 0.05984 0.27052 0.0
H48 H 0.77828 0.07843 0.29698 0.0
H49 H 0.74476 0.05061 0.30415 0.0
C50 C 0.73939 0.0841 0.17211 0.0
N51 N 0.72184 0.06889 0.19119 0.0
N52 N 0.73189 0.08026 0.21408 0.0
C53 C 0.75637 0.10269 0.21034 0.0
C54 C 0.76194 0.10594 0.1836 0.0
C55 C 0.73413 0.07872 0.14332 0.0
H56 H 0.71238 0.07114 0.139 0.0
H57 H 0.73927 0.06307 0.1373 0.0
H58 H 0.7467 0.0974 0.13165 0.0
O59 O 0.65788 0.04016 0.2037 0.0
O60 O 0.67463 0.06089 0.24175 0.0
H61 H 0.76627 0.13085 0.242 0.0
H62 H 0.79564 0.13397 0.22501 0.0
C63 C 0.7749 0.11945 0.23213 0.0
H64 H 0.77649 0.10592 0.24672 0.0
H65 H 0.71102 0.11184 0.2689 0.0
O66 O 0.67943 0.02267 0.15366 0.0
C67 C 0.65564 0.05096 0.22477 0.0
Co68 Co 0.6577 0.68583 0.35755 0.0
Co69 Co 0.65137 0.70784 0.41198 0.0
C70 C 0.69606 0.69548 0.4025 0.0
O71 O 0.68803 0.68771 0.37902 0.0
O72 O 0.6839 0.70408 0.41737 0.0
C73 C 0.68446 0.68674 0.30897 0.0
O74 O 0.70699 0.70094 0.32244 0.0
C75 C 0.66304 0.74286 0.4587 0.0
C76 C 0.62159 0.73402 0.469 0.0
C77 C 0.64865 0.74974 0.47615 0.0
N78 N 0.64521 0.72407 0.44194 0.0
N79 N 0.62048 0.71866 0.44844 0.0
C80 C 0.69323 0.75555 0.45634 0.0
H81 H 0.69895 0.75367 0.43593 0.0
H82 H 0.70352 0.77729 0.46212 0.0
H83 H 0.70022 0.74481 0.46962 0.0
C84 C 0.6611 0.73753 0.33982 0.0
N85 N 0.65801 0.71953 0.3587 0.0
N86 N 0.65533 0.72879 0.38155 0.0
C87 C 0.65655 0.7529 0.3779 0.0
C88 C 0.66032 0.75923 0.35137 0.0
C89 C 0.66405 0.73378 0.31116 0.0
H90 H 0.64884 0.71282 0.30514 0.0
H91 H 0.68467 0.73694 0.30745 0.0
H92 H 0.66123 0.74842 0.29907 0.0
O93 O 0.62239 0.65542 0.3704 0.0
O94 O 0.61881 0.67128 0.40907 0.0
H95 H 0.6361 0.75898 0.41019 0.0
H96 H 0.65803 0.78965 0.39213 0.0
C97 C 0.6557 0.77027 0.39957 0.0
H98 H 0.67236 0.77499 0.41362 0.0
H99 H 0.60289 0.70497 0.43836 0.0
O100 O 0.6617 0.67779 0.32047 0.0
C101 C 0.60959 0.6526 0.39178 0.0
Co102 Co 0.97826 0.6565 0.52124 0.0
Co103 Co 0.95003 0.64808 0.57612 0.0
C104 C 1.00804 0.69246 0.56669 0.0
O105 O 1.00737 0.68609 0.54256 0.0
O106 O 0.98745 0.67932 0.58159 0.0
C107 C 1.00526 0.68265 0.47252 0.0
O108 O 0.0163 0.70531 0.48619 0.0
C109 C 0.9269 0.6595 0.62365 0.0
C110 C 0.89886 0.61755 0.63697 0.0
C111 C 0.90793 0.64453 0.64303 0.0
N112 N 0.92861 0.64201 0.60695 0.0
N113 N 0.91183 0.61702 0.61513 0.0
C114 C 0.94394 0.68976 0.62153 0.0
H115 H 0.96226 0.69565 0.60948 0.0
H116 H 0.93198 0.69785 0.61186 0.0
H117 H 0.95008 0.69907 0.64133 0.0
C118 C 0.93061 0.66189 0.50532 0.0
N119 N 0.94529 0.65765 0.52359 0.0
N120 N 0.93323 0.65381 0.54654 0.0
C121 C 0.91029 0.65506 0.54353 0.0
C122 C 0.90792 0.66038 0.51733 0.0
C123 C 0.93933 0.66921 0.47735 0.0
H124 H 0.95967 0.68775 0.47694 0.0
H125 H 0.92516 0.67332 0.46599 0.0
H126 H 0.94094 0.65249 0.46785 0.0
O127 O 0.97301 0.62068 0.53305 0.0
O128 O 0.95184 0.61461 0.57117 0.0
H129 H 0.87048 0.64606 0.55713 0.0
H130 H 0.89857 0.66742 0.57844 0.0
C131 C 0.89022 0.64969 0.56501 0.0
H132 H 0.88667 0.63161 0.57639 0.0
H133 H 0.90915 0.59954 0.6057 0.0
O134 O 0.98936 0.66032 0.48388 0.0
C135 C 0.96176 0.60641 0.5534 0.0
Co136 Co 0.32872 0.97394 0.69012 0.0
Co137 Co 0.30574 0.9462 0.74455 0.0
C138 C 0.31945 1.00342 0.73498 0.0
O139 O 0.32733 1.00276 0.71164 0.0
O140 O 0.3102 0.98272 0.74997 0.0
C141 C 0.32557 0.99759 0.6414 0.0
O142 O 0.30848 1.00245 0.65441 0.0
C143 C 0.27343 0.92483 0.79327 0.0
C144 C 0.27838 0.88922 0.8007 0.0
C145 C 0.26611 0.90323 0.81038 0.0
N146 N 0.28907 0.92338 0.77421 0.0
N147 N 0.29199 0.90211 0.77884 0.0
C148 C 0.26767 0.94769 0.7958 0.0
H149 H 0.28726 0.967 0.79755 0.0
H150 H 0.25741 0.94891 0.77774 0.0
H151 H 0.25516 0.94556 0.81329 0.0
C152 C 0.27718 0.92531 0.67211 0.0
N153 N 0.29479 0.94069 0.69108 0.0
N154 N 0.28466 0.92973 0.71406 0.0
C155 C 0.25999 0.90751 0.71052 0.0
C156 C 0.25443 0.90388 0.68378 0.0
C157 C 0.28265 0.93004 0.64328 0.0
H158 H 0.30446 0.93769 0.63921 0.0
H159 H 0.27736 0.9454 0.63663 0.0
H160 H 0.27029 0.91106 0.63194 0.0
O161 O 0.35859 0.9685 0.70306 0.0
O162 O 0.34212 0.94944 0.74172 0.0
H163 H 0.24868 0.8784 0.74141 0.0
H164 H 0.22016 0.87821 0.72552 0.0
C165 C 0.24133 0.89133 0.73245 0.0
H166 H 0.24142 0.90526 0.74772 0.0
H167 H 0.30326 0.89637 0.767 0.0
O168 O 0.33711 0.9864 0.65322 0.0
C169 C 0.36094 0.95844 0.72456 0.0
Co170 Co 0.36113 0.32365 0.85875 0.0
Co171 Co 0.36755 0.30276 0.91377 0.0
C172 C 0.32327 0.31608 0.90284 0.0
O173 O 0.33064 0.32259 0.87903 0.0
O174 O 0.33584 0.30824 0.91801 0.0
C175 C 0.33677 0.32645 0.80959 0.0
O176 O 0.31399 0.31615 0.82301 0.0
C177 C 0.35326 0.26594 0.95957 0.0
C178 C 0.39358 0.28227 0.97824 0.0
C179 C 0.36648 0.26254 0.98095 0.0
N180 N 0.37183 0.28668 0.94493 0.0
N181 N 0.39586 0.29626 0.95622 0.0
C182 C 0.32339 0.25091 0.95395 0.0
H183 H 0.31797 0.26228 0.93989 0.0
H184 H 0.31759 0.23091 0.94509 0.0
H185 H 0.3117 0.24727 0.97244 0.0
C186 C 0.35663 0.27126 0.84231 0.0
N187 N 0.36009 0.28965 0.86089 0.0
N188 N 0.36355 0.28112 0.88381 0.0
C189 C 0.36299 0.25729 0.88042 0.0
C190 C 0.35842 0.25014 0.85403 0.0
C191 C 0.34968 0.27304 0.81429 0.0
H192 H 0.33172 0.2758 0.81374 0.0
H193 H 0.34481 0.2545 0.80295 0.0
H194 H 0.36696 0.29097 0.80488 0.0
O195 O 0.39654 0.35398 0.87195 0.0
O196 O 0.40077 0.33862 0.91062 0.0
H197 H 0.37451 0.22824 0.89346 0.0
H198 H 0.34969 0.23068 0.91351 0.0
C199 C 0.3684 0.24247 0.9017 0.0
H200 H 0.38478 0.25715 0.91477 0.0
H201 H 0.41383 0.31253 0.94897 0.0
O202 O 0.3586 0.33152 0.82124 0.0
C203 C 0.40976 0.35701 0.8931 0.0
Co204 Co 0.65846 0.97296 0.81072 0.0
Co205 Co 0.65155 0.94544 0.75568 0.0
C206 C 0.69548 1.00334 0.76606 0.0
O207 O 0.68802 1.00262 0.78983 0.0
O208 O 0.6833 0.98268 0.75106 0.0
C209 C 0.6831 1.00089 0.85971 0.0
O210 O 0.70566 0.01417 0.84608 0.0
C211 C 0.6647 0.92211 0.70962 0.0
C212 C 0.62382 0.8975 0.6922 0.0
C213 C 0.65082 0.90479 0.68881 0.0
N214 N 0.64658 0.92469 0.7246 0.0
N215 N 0.62222 0.90991 0.71403 0.0
C216 C 0.69472 0.9371 0.71446 0.0
H217 H 0.70057 0.95453 0.72784 0.0
H218 H 0.70069 0.92327 0.72383 0.0
H219 H 0.70592 0.94429 0.69562 0.0
C220 C 0.66405 0.92561 0.82678 0.0
N221 N 0.66007 0.94029 0.80834 0.0
N222 N 0.65616 0.92808 0.78547 0.0
C223 C 0.65685 0.90488 0.78876 0.0
C224 C 0.66208 0.90261 0.81502 0.0
C225 C 0.6715 0.93459 0.85469 0.0
H226 H 0.68897 0.95564 0.85498 0.0
H227 H 0.6773 0.92146 0.86569 0.0
H228 H 0.65409 0.93454 0.86462 0.0
O229 O 0.62262 0.96714 0.7984 0.0
O230 O 0.61822 0.94791 0.75947 0.0
H231 H 0.64462 0.86403 0.77596 0.0
H232 H 0.66916 0.8909 0.75539 0.0
C233 C 0.65076 0.88432 0.76759 0.0
H234 H 0.63415 0.8826 0.75488 0.0
H235 H 0.60446 0.90834 0.72171 0.0
O236 O 0.66145 0.98348 0.84823 0.0
C237 C 0.60921 0.95696 0.77735 0.0
Co238 Co 0.69182 0.65643 0.9783 0.0
Co239 Co 0.71265 0.64903 0.92353 0.0
C240 C 0.69887 0.69304 0.93291 0.0
O241 O 0.69218 0.68593 0.95675 0.0
O242 O 0.70723 0.68059 0.91816 0.0
C243 C 0.69141 0.68295 0.02685 0.0
O244 O 0.70413 0.70555 0.01321 0.0
C245 C 0.74764 0.66023 0.87634 0.0
C246 C 0.7334 0.6182 0.86302 0.0
C247 C 0.75156 0.64514 0.85703 0.0
N248 N 0.72823 0.64285 0.89292 0.0
N249 N 0.71984 0.61782 0.88476 0.0
C250 C 0.76114 0.69051 0.87848 0.0
H251 H 0.74898 0.69655 0.89076 0.0
H252 H 0.7813 0.69849 0.88793 0.0
H253 H 0.76415 0.69979 0.8587 0.0
C254 C 0.74466 0.6616 0.99489 0.0
N255 N 0.72602 0.65765 0.97638 0.0
N256 N 0.73459 0.65413 0.95348 0.0
C257 C 0.75877 0.65542 0.95674 0.0
C258 C 0.76608 0.66036 0.98306 0.0
C259 C 0.7428 0.66839 0.02295 0.0
H260 H 0.72386 0.6519 0.0318 0.0
H261 H 0.7419 0.68741 0.02364 0.0
H262 H 0.7605 0.67149 0.03473 0.0
O263 O 0.66151 0.62051 0.96623 0.0
O264 O 0.67674 0.61602 0.92757 0.0
H265 H 0.75966 0.63259 0.92364 0.0
H266 H 0.79009 0.64711 0.94328 0.0
C267 C 0.77392 0.65059 0.93532 0.0
H268 H 0.78331 0.6685 0.92216 0.0
H269 H 0.70483 0.6004 0.8941 0.0
O270 O 0.68414 0.66038 0.01554 0.0
C271 C 0.65846 0.60708 0.94523 0.0
Co272 Co 0.04219 0.68579 0.14203 0.0
Co273 Co 0.07035 0.707 0.08753 0.0
C274 C 0.01313 0.69463 0.09717 0.0
O275 O 0.01347 0.68713 0.12072 0.0
O276 O 0.03388 0.70311 0.08229 0.0
C277 C 0.01438 0.68415 0.1903 0.0
O278 O 1.00329 0.69549 0.17633 0.0
C279 C 0.09489 0.74383 0.04249 0.0
C280 C 0.12344 0.73099 0.02807 0.0
C281 C 0.11491 0.74963 0.02382 0.0
N282 N 0.09201 0.72289 0.05716 0.0
N283 N 0.10887 0.71511 0.04822 0.0
C284 C 0.08041 0.75921 0.04797 0.0
H285 H 0.07295 0.75586 0.06854 0.0
H286 H 0.09405 0.78126 0.04438 0.0
H287 H 0.06264 0.75179 0.03465 0.0
C288 C 0.08992 0.73823 0.15921 0.0
N289 N 0.07542 0.71972 0.14052 0.0
N290 N 0.08771 0.7284 0.11775 0.0
C291 C 0.1107 0.75249 0.12132 0.0
C292 C 0.11279 0.75965 0.14766 0.0
C293 C 0.08069 0.73639 0.18706 0.0
H294 H 0.0604 0.73468 0.18722 0.0
H295 H 0.0947 0.75445 0.19881 0.0
H296 H 0.07882 0.71787 0.19631 0.0
O297 O 0.04717 0.65528 0.1294 0.0
O298 O 0.06654 0.67063 0.09065 0.0
H299 H 0.15097 0.78295 0.10858 0.0
H300 H 0.12338 0.77862 0.08783 0.0
C301 C 0.13101 0.76782 0.1002 0.0
H302 H 0.13393 0.75355 0.08768 0.0
H303 H 0.111 0.69944 0.05637 0.0
O304 O 0.03062 0.67796 0.17925 0.0
C305 C 0.05712 0.65219 0.10812 0.0
Co306 Co 0.35756 0.03689 0.31062 0.0
Co307 Co 0.36591 0.06534 0.25605 0.0
C308 C 0.32114 0.00758 0.26521 0.0
O309 O 0.32798 0.00797 0.28914 0.0
O310 O 0.33397 0.02833 0.25044 0.0
C311 C 0.33222 0.00852 0.35934 0.0
O312 O 0.30969 0.99551 0.34563 0.0
C313 C 0.35349 0.0887 0.21012 0.0
C314 C 0.39489 0.11781 0.19606 0.0
C315 C 0.36762 0.10845 0.1912 0.0
N316 N 0.37168 0.08672 0.22546 0.0
N317 N 0.39635 0.10395 0.21676 0.0
C318 C 0.32352 0.07356 0.21508 0.0
H319 H 0.31925 0.06662 0.2358 0.0
H320 H 0.31456 0.08655 0.21061 0.0
H321 H 0.31384 0.05542 0.20215 0.0
C322 C 0.352 0.08424 0.32707 0.0
N323 N 0.35652 0.06989 0.30863 0.0
N324 N 0.36062 0.08226 0.28586 0.0
C325 C 0.35933 0.10516 0.28918 0.0
C326 C 0.35366 0.10712 0.31539 0.0
C327 C 0.34414 0.07494 0.35483 0.0
H328 H 0.32644 0.05402 0.35478 0.0
H329 H 0.33854 0.08816 0.36598 0.0
H330 H 0.36126 0.07449 0.36483 0.0
O331 O 0.39321 0.04194 0.29854 0.0
O332 O 0.39917 0.06289 0.26034 0.0
H333 H 0.38248 0.12863 0.25609 0.0
H334 H 0.36925 0.14538 0.27626 0.0
C335 C 0.36484 0.12552 0.268 0.0
H336 H 0.34681 0.11779 0.25501 0.0
H337 H 0.41423 0.10672 0.22538 0.0
O338 O 0.35399 0.02587 0.34799 0.0
C339 C 0.40733 0.05288 0.27803 0.0
Co340 Co 0.32762 0.35452 0.4795 0.0
Co341 Co 0.30548 0.36266 0.42604 0.0
C342 C 0.31791 0.31766 0.43322 0.0
O343 O 0.3257 0.32492 0.45685 0.0
O344 O 0.30926 0.33027 0.41906 0.0
C345 C 0.32922 0.32772 0.52754 0.0
O346 O 0.31552 0.30498 0.51425 0.0
C347 C 0.26915 0.35302 0.38075 0.0
C348 C 0.27921 0.39517 0.37213 0.0
C349 C 0.26221 0.3684 0.36485 0.0
N350 N 0.28919 0.37003 0.39697 0.0
N351 N 0.29539 0.39519 0.39138 0.0
C352 C 0.25548 0.32272 0.38217 0.0
H353 H 0.25789 0.31623 0.40206 0.0
H354 H 0.23358 0.31335 0.37721 0.0
H355 H 0.26512 0.31553 0.36772 0.0
C356 C 0.27564 0.34985 0.49844 0.0
N357 N 0.29377 0.35398 0.47929 0.0
N358 N 0.28454 0.35761 0.45685 0.0
C359 C 0.26035 0.35607 0.46105 0.0
C360 C 0.25381 0.35094 0.4875 0.0
C361 C 0.27831 0.3429 0.52622 0.0
H362 H 0.29782 0.35901 0.53455 0.0
H363 H 0.27849 0.32351 0.52642 0.0
H364 H 0.26128 0.34045 0.53876 0.0
O365 O 0.35793 0.39021 0.46729 0.0
O366 O 0.34195 0.39516 0.42932 0.0
H367 H 0.25772 0.37934 0.42937 0.0
H368 H 0.22743 0.36257 0.44892 0.0
C369 C 0.24427 0.36053 0.44037 0.0
H370 H 0.2357 0.34317 0.42649 0.0
H371 H 0.31 0.41233 0.40141 0.0
O372 O 0.33649 0.35023 0.51617 0.0
C373 C 0.36069 0.40377 0.44649 0.0
Co374 Co 0.97565 0.32458 0.6428 0.0
Co375 Co 0.94765 0.30185 0.58833 0.0
C376 C 1.00543 0.31561 0.59911 0.0
O377 O 1.00477 0.32295 0.62265 0.0
O378 O 0.98486 0.30713 0.584 0.0
C379 C 1.00102 0.32651 0.69276 0.0
O380 O 0.00999 0.31193 0.68101 0.0
C381 C 0.92457 0.26492 0.54227 0.0
C382 C 0.89734 0.27882 0.52655 0.0
C383 C 0.90621 0.26047 0.52221 0.0
N384 N 0.92625 0.2849 0.55781 0.0
N385 N 0.90989 0.29304 0.54825 0.0
C386 C 0.94122 0.25143 0.54582 0.0
H387 H 0.95872 0.26348 0.55895 0.0
H388 H 0.9285 0.23114 0.55483 0.0
H389 H 0.94847 0.24851 0.5265 0.0
C390 C 0.92758 0.27266 0.66061 0.0
N391 N 0.94251 0.29053 0.64166 0.0
N392 N 0.93048 0.28117 0.61885 0.0
C393 C 0.90733 0.2573 0.62267 0.0
C394 C 0.90487 0.25105 0.64921 0.0
C395 C 0.93447 0.27647 0.68923 0.0
H396 H 0.93928 0.29712 0.69541 0.0
H397 H 0.95265 0.27445 0.69264 0.0
H398 H 0.91746 0.26123 0.70141 0.0
O399 O 0.97079 0.35449 0.62866 0.0
O400 O 0.95014 0.3378 0.5906 0.0
H401 H 0.88266 0.253 0.58923 0.0
H402 H 0.86982 0.22258 0.60898 0.0
C403 C 0.88844 0.24038 0.60119 0.0
H404 H 0.89902 0.23297 0.58827 0.0
H405 H 0.90735 0.30843 0.55652 0.0
O406 O 0.98688 0.33412 0.67984 0.0
C407 C 0.96007 0.35678 0.60757 0.0
H408 H 0.2242 0.38347 0.36238 0.0
H409 H 0.19167 0.37432 0.32703 0.0
H410 H 0.21952 0.32557 0.28734 0.0
H411 H 0.25126 0.33373 0.32351 0.0
H412 H 0.20732 0.39223 0.27999 0.0
H413 H 0.1395 0.28082 0.27334 0.0
H414 H 0.16085 0.29699 0.30154 0.0
H415 H 0.17474 0.29038 0.27252 0.0
C416 C 0.22281 0.37021 0.34641 0.0
C417 C 0.2401 0.35928 0.34551 0.0
C418 C 0.20423 0.36496 0.32626 0.0
C419 C 0.20298 0.34913 0.30454 0.0
C420 C 0.21957 0.33727 0.30415 0.0
H421 H 0.1678 0.3808 0.14937 0.0
H422 H 0.18702 0.37272 0.18893 0.0
C423 C 0.23782 0.34207 0.3247 0.0
C424 C 0.1873 0.34847 0.28097 0.0
H425 H 0.14082 0.30683 0.23545 0.0
C426 C 0.19254 0.37348 0.27051 0.0
C427 C 0.16788 0.32405 0.26862 0.0
C428 C 0.16019 0.29655 0.27975 0.0
C429 C 0.17937 0.37483 0.24786 0.0
C430 C 0.16109 0.35054 0.23469 0.0
C431 C 0.15518 0.32542 0.24542 0.0
C432 C 0.14859 0.35131 0.20947 0.0
C433 C 0.18515 0.40238 0.23831 0.0
C434 C 0.1204 0.34068 0.20745 0.0
C435 C 0.1093 0.345 0.18465 0.0
C436 C 0.12633 0.36002 0.16372 0.0
C437 C 0.1543 0.36938 0.16536 0.0
C438 C 0.16528 0.3648 0.18791 0.0
H439 H 0.19315 0.41774 0.25431 0.0
H440 H 0.20074 0.40947 0.22257 0.0
H441 H 0.16656 0.4014 0.23015 0.0
H442 H 0.10721 0.3302 0.22392 0.0
H443 H 0.08771 0.33785 0.18396 0.0
H444 H 0.7891 0.16151 0.31957 0.0
H445 H 0.8213 0.17975 0.35588 0.0
H446 H 0.79659 0.09839 0.38174 0.0
H447 H 0.76377 0.07988 0.34545 0.0
H448 H 0.79581 0.13241 0.42109 0.0
H449 H 0.89414 0.18344 0.36873 0.0
H450 H 0.87033 0.192 0.35499 0.0
H451 H 0.8632 0.15738 0.35363 0.0
C452 C 0.79074 0.14746 0.33279 0.0
C453 C 0.77418 0.11928 0.3295 0.0
C454 C 0.80936 0.15792 0.35336 0.0
C455 C 0.81178 0.14042 0.37113 0.0
C456 C 0.79535 0.1122 0.36792 0.0
H457 H 0.89512 0.20738 0.52251 0.0
H458 H 0.87581 0.17441 0.48655 0.0
C459 C 0.77675 0.10167 0.34712 0.0
C460 C 0.82956 0.15208 0.39437 0.0
H461 H 0.89337 0.20173 0.41164 0.0
C462 C 0.81733 0.14701 0.41924 0.0
C463 C 0.85762 0.171 0.39183 0.0
C464 C 0.87215 0.17607 0.36586 0.0
C465 C 0.83192 0.16213 0.44128 0.0
C466 C 0.85948 0.18251 0.4383 0.0
C467 C 0.87219 0.18617 0.41381 0.0
C468 C 0.87415 0.20267 0.45924 0.0
C469 C 0.81723 0.15763 0.46711 0.0
C470 C 0.88037 0.2296 0.45545 0.0
C471 C 0.89162 0.24847 0.47577 0.0
C472 C 0.89715 0.24087 0.50021 0.0
C473 C 0.89177 0.21408 0.50373 0.0
C474 C 0.8804 0.19511 0.48332 0.0
H475 H 0.79501 0.14337 0.46525 0.0
H476 H 0.82552 0.14905 0.48155 0.0
H477 H 0.82046 0.17722 0.47508 0.0
H478 H 0.87564 0.2358 0.43701 0.0
H479 H 0.89554 0.26896 0.47251 0.0
H480 H 0.62993 0.78381 0.48788 0.0
H481 H 0.64383 0.81636 0.52394 0.0
H482 H 0.70372 0.79527 0.54795 0.0
H483 H 0.68965 0.76227 0.51178 0.0
H484 H 0.66761 0.79302 0.58829 0.0
H485 H 0.71315 0.89085 0.53503 0.0
H486 H 0.68102 0.8659 0.52154 0.0
H487 H 0.70938 0.86011 0.52048 0.0
C488 C 0.64631 0.78634 0.50062 0.0
C489 C 0.65893 0.77076 0.49687 0.0
C490 C 0.65439 0.80511 0.52106 0.0
C491 C 0.67517 0.8086 0.53826 0.0
C492 C 0.68796 0.79317 0.53457 0.0
H493 H 0.69158 0.89178 0.68967 0.0
H494 H 0.70487 0.87207 0.65385 0.0
C495 C 0.68002 0.77447 0.51386 0.0
C496 C 0.6813 0.82651 0.56139 0.0
H497 H 0.69528 0.89031 0.57828 0.0
C498 C 0.67438 0.81448 0.58633 0.0
C499 C 0.69017 0.85446 0.55864 0.0
C500 C 0.69912 0.86867 0.53249 0.0
C501 C 0.67388 0.82917 0.6083 0.0
C502 C 0.68098 0.85669 0.60519 0.0
C503 C 0.68976 0.86918 0.58058 0.0
C504 C 0.67577 0.87158 0.62614 0.0
C505 C 0.66381 0.81458 0.63419 0.0
C506 C 0.65574 0.87872 0.6221 0.0
C507 C 0.64843 0.89033 0.64232 0.0
C508 C 0.66115 0.89527 0.66697 0.0
C509 C 0.68187 0.88893 0.67076 0.0
C510 C 0.68922 0.87727 0.65042 0.0
H511 H 0.65528 0.79229 0.63225 0.0
H512 H 0.68094 0.82246 0.64835 0.0
H513 H 0.64791 0.81831 0.64255 0.0
H514 H 0.64509 0.87446 0.60351 0.0
H515 H 0.6324 0.895 0.6388 0.0
H516 H 0.88988 0.61866 0.68953 0.0
H517 H 0.86896 0.62986 0.72547 0.0
H518 H 0.88318 0.70226 0.68459 0.0
H519 H 0.90253 0.69023 0.64769 0.0
H520 H 0.88648 0.67211 0.75855 0.0
H521 H 0.80244 0.66482 0.69655 0.0
H522 H 0.82581 0.65447 0.68485 0.0
H523 H 0.83608 0.68993 0.68648 0.0
C524 C 0.88867 0.63704 0.68815 0.0
C525 C 0.89819 0.65365 0.66574 0.0
C526 C 0.87684 0.64351 0.70882 0.0
C527 C 0.87423 0.66674 0.70762 0.0
C528 C 0.88462 0.684 0.68577 0.0
H529 H 0.80287 0.6907 0.85237 0.0
H530 H 0.83423 0.70251 0.8155 0.0
C531 C 0.89622 0.67735 0.66484 0.0
C532 C 0.85933 0.67168 0.72885 0.0
H533 H 0.80059 0.67219 0.74158 0.0
C534 C 0.86787 0.67249 0.75488 0.0
C535 C 0.83499 0.67203 0.72394 0.0
C536 C 0.82408 0.67005 0.6965 0.0
C537 C 0.85199 0.67209 0.77618 0.0
C538 C 0.82731 0.67177 0.77127 0.0
C539 C 0.81957 0.67254 0.74525 0.0
C540 C 0.80752 0.66695 0.7925 0.0
C541 C 0.86094 0.67016 0.80363 0.0
C542 C 0.7816 0.64375 0.79132 0.0
C543 C 0.76331 0.63741 0.81198 0.0
C544 C 0.77047 0.6541 0.83435 0.0
C545 C 0.79622 0.67775 0.83524 0.0
C546 C 0.81447 0.68428 0.81433 0.0
H547 H 0.87731 0.66488 0.80358 0.0
H548 H 0.8689 0.69006 0.81363 0.0
H549 H 0.84359 0.65463 0.81529 0.0
H550 H 0.77576 0.63005 0.77469 0.0
H551 H 0.74365 0.61907 0.81059 0.0
H552 H 0.2752 0.88639 0.85691 0.0
H553 H 0.24429 0.86813 0.89439 0.0
H554 H 0.18618 0.8829 0.85407 0.0
H555 H 0.21683 0.90054 0.8161 0.0
H556 H 0.2193 0.89123 0.92661 0.0
H557 H 0.14448 0.80041 0.86973 0.0
H558 H 0.17867 0.82246 0.85812 0.0
H559 H 0.15403 0.83337 0.8566 0.0
C560 C 0.25597 0.88604 0.85619 0.0
C561 C 0.24856 0.89525 0.83385 0.0
C562 C 0.2384 0.87572 0.8776 0.0
C563 C 0.21295 0.8741 0.87692 0.0
C564 C 0.20571 0.88391 0.8549 0.0
H565 H 0.08944 0.7701 0.99314 0.0
H566 H 0.11036 0.80502 0.95891 0.0
C567 C 0.22336 0.8943 0.83341 0.0
C568 C 0.19367 0.86045 0.89875 0.0
H569 H 0.13754 0.80025 0.91502 0.0
C570 C 0.20111 0.87157 0.92405 0.0
C571 C 0.16987 0.83491 0.89529 0.0
C572 C 0.16121 0.82188 0.86854 0.0
C573 C 0.18617 0.85713 0.94617 0.0
C574 C 0.16352 0.83077 0.94286 0.0
C575 C 0.15495 0.82047 0.91745 0.0
C576 C 0.15104 0.81207 0.96532 0.0
C577 C 0.19531 0.8698 0.97296 0.0
C578 C 0.16696 0.80444 0.98008 0.0
C579 C 0.15513 0.7846 0.99946 0.0
C580 C 0.12713 0.77203 0.00456 0.0
C581 C 0.11118 0.77992 0.99007 0.0
C582 C 0.12305 0.79973 0.97044 0.0
H583 H 0.20626 0.89235 0.97179 0.0
H584 H 0.17782 0.86296 0.98659 0.0
H585 H 0.20953 0.86373 0.98129 0.0
H586 H 0.18845 0.81318 0.976 0.0
H587 H 0.16789 0.77884 0.01025 0.0
H588 H 0.32644 0.20859 0.97947 0.0
H589 H 0.31188 0.1758 0.01556 0.0
H590 H 0.36873 0.23882 0.06727 0.0
H591 H 0.38268 0.27173 0.03166 0.0
H592 H 0.34508 0.16166 0.04084 0.0
H593 H 0.30207 0.20174 0.11356 0.0
H594 H 0.3068 0.21203 0.07951 0.0
H595 H 0.33464 0.22805 0.10242 0.0
C596 C 0.33507 0.21568 0.99875 0.0
C597 C 0.35534 0.24288 0.00286 0.0
C598 C 0.32691 0.19685 0.0193 0.0
C599 C 0.33877 0.20498 0.04427 0.0
C600 C 0.35868 0.23223 0.04842 0.0
H601 H 0.39027 0.16088 0.17609 0.0
H602 H 0.37605 0.17962 0.14039 0.0
C603 C 0.36686 0.25096 0.02796 0.0
C604 C 0.33305 0.18479 0.06527 0.0
H605 H 0.32188 0.17561 0.13129 0.0
C606 C 0.33918 0.16412 0.06046 0.0
C607 C 0.32521 0.18795 0.09081 0.0
C608 C 0.31653 0.20848 0.0968 0.0
C609 C 0.34005 0.14814 0.08102 0.0
C610 C 0.33443 0.1529 0.1069 0.0
C611 C 0.32632 0.17215 0.1114 0.0
C612 C 0.34094 0.1412 0.12976 0.0
C613 C 0.34895 0.1277 0.0753 0.0
C614 C 0.32563 0.11342 0.13577 0.0
C615 C 0.33372 0.10262 0.15628 0.0
C616 C 0.35723 0.11951 0.17092 0.0
C617 C 0.3721 0.14738 0.1651 0.0
C618 C 0.36394 0.15814 0.14482 0.0
H619 H 0.35438 0.1278 0.05432 0.0
H620 H 0.3668 0.13202 0.08761 0.0
H621 H 0.33228 0.10701 0.08035 0.0
H622 H 0.30782 0.10007 0.12428 0.0
H623 H 0.32218 0.08098 0.15998 0.0
H624 H 0.03487 0.42707 0.02408 0.0
H625 H 0.03577 0.46999 0.03243 0.0
H626 H 0.07815 0.47925 0.10532 0.0
H627 H 0.07764 0.43671 0.09713 0.0
H628 H 0.01385 0.48379 0.07558 0.0
H629 H 0.12548 0.55227 0.06828 0.0
H630 H 0.1086 0.51772 0.05632 0.0
H631 H 0.11541 0.52454 0.09079 0.0
C632 C 0.04454 0.43832 0.04181 0.0
C633 C 0.05628 0.42845 0.05987 0.0
C634 C 0.04498 0.4628 0.04657 0.0
C635 C 0.05733 0.47796 0.06933 0.0
C636 C 0.06895 0.46814 0.0874 0.0
H637 H 0.03682 0.60666 0.13928 0.0
H638 H 0.03655 0.56423 0.13001 0.0
C639 C 0.06851 0.4437 0.08271 0.0
C640 C 0.05755 0.50375 0.07456 0.0
H641 H 0.09989 0.57164 0.085 0.0
C642 C 0.03264 0.50303 0.07755 0.0
C643 C 0.0821 0.52884 0.07688 0.0
C644 C 0.10943 0.53106 0.07267 0.0
C645 C 0.03163 0.5267 0.08323 0.0
C646 C 0.05619 0.55165 0.08634 0.0
C647 C 0.08109 0.55243 0.08292 0.0
C648 C 0.05654 0.57738 0.09232 0.0
C649 C 1.00428 0.52489 0.08542 0.0
C650 C 0.0685 0.59909 0.07454 0.0
C651 C 0.06884 0.62337 0.07982 0.0
C652 C 0.05734 0.62656 0.10311 0.0
C653 C 0.04575 0.60489 0.12112 0.0
C654 C 0.04541 0.58055 0.11578 0.0
H655 H 0.98787 0.50597 0.07636 0.0
H656 H 0.99923 0.5249 0.10648 0.0
H657 H 1.0046 0.54261 0.07587 0.0
H658 H 0.07733 0.59713 0.05638 0.0
H659 H 0.07802 0.63961 0.06551 0.0
H660 H 0.4503 0.08801 0.24782 0.0
H661 H 0.49253 0.08775 0.23973 0.0
H662 H 0.46499 0.01779 0.29008 0.0
H663 H 0.42324 0.01886 0.29933 0.0
H664 H 0.51612 0.05085 0.29854 0.0
H665 H 0.50208 0.03881 0.19099 0.0
H666 H 0.50277 0.06908 0.20203 0.0
H667 H 0.47579 0.03631 0.2126 0.0
C668 C 0.45327 0.0726 0.25722 0.0
C669 C 0.43336 0.05333 0.27407 0.0
C670 C 0.47734 0.07232 0.25238 0.0
C671 C 0.48167 0.05225 0.26364 0.0
C672 C 0.46206 0.03335 0.28098 0.0
H673 H 0.60507 0.01746 0.20449 0.0
H674 H 0.56278 0.01693 0.21493 0.0
C675 C 0.43821 0.03398 0.28627 0.0
C676 C 0.50675 0.05116 0.2576 0.0
H677 H 0.54617 0.05086 0.20709 0.0
C678 C 0.52257 0.05064 0.27853 0.0
C679 C 0.51497 0.05032 0.2315 0.0
C680 C 0.49783 0.04835 0.20803 0.0
C681 C 0.54654 0.04977 0.27413 0.0
C682 C 0.5556 0.05058 0.24803 0.0
C683 C 0.53952 0.05064 0.22711 0.0
C684 C 0.58141 0.05097 0.24189 0.0
C685 C 0.5614 0.04726 0.29756 0.0
C686 C 0.60613 0.07052 0.25319 0.0
C687 C 0.63022 0.0705 0.24765 0.0
C688 C 0.63025 0.05142 0.23007 0.0
C689 C 0.6057 0.03245 0.21808 0.0
C690 C 0.58151 0.03212 0.22405 0.0
H691 H 0.5475 0.03783 0.31454 0.0
H692 H 0.57099 0.03488 0.29288 0.0
H693 H 0.57752 0.06782 0.30372 0.0
H694 H 0.60685 0.08591 0.26624 0.0
H695 H 0.64889 0.0856 0.25694 0.0
H696 H 0.5774 0.63981 0.43541 0.0
H697 H 0.53558 0.59743 0.4449 0.0
H698 H 0.54093 0.56512 0.3699 0.0
H699 H 0.58314 0.60741 0.3603 0.0
H700 H 0.48686 0.57287 0.41785 0.0
H701 H 0.53177 0.50577 0.42138 0.0
H702 H 0.55225 0.54237 0.42216 0.0
H703 H 0.53857 0.52501 0.39159 0.0
C704 C 0.56979 0.62372 0.42089 0.0
C705 C 0.58377 0.62702 0.39711 0.0
C706 C 0.54584 0.59949 0.42637 0.0
C707 C 0.53537 0.57798 0.4083 0.0
C708 C 0.54897 0.58127 0.38437 0.0
H709 H 0.3723 0.43888 0.40543 0.0
H710 H 0.41454 0.48117 0.3969 0.0
C711 C 0.573 0.60554 0.37884 0.0
C712 C 0.50992 0.55235 0.41443 0.0
H713 H 0.48362 0.48415 0.4234 0.0
C714 C 0.48615 0.55347 0.4191 0.0
C715 C 0.50915 0.52714 0.41643 0.0
C716 C 0.53432 0.52491 0.41288 0.0
C717 C 0.46151 0.52999 0.42531 0.0
C718 C 0.46055 0.50467 0.42652 0.0
C719 C 0.4844 0.50358 0.42228 0.0
C720 C 0.43489 0.47902 0.43193 0.0
C721 C 0.4368 0.53255 0.43089 0.0
C722 C 0.43249 0.46348 0.45424 0.0
C723 C 0.40833 0.43915 0.45919 0.0
C724 C 0.38621 0.42982 0.44177 0.0
C725 C 0.38883 0.44544 0.41935 0.0
C726 C 0.41294 0.46974 0.41447 0.0
H727 H 0.44244 0.55378 0.43585 0.0
H728 H 0.42367 0.52642 0.41318 0.0
H729 H 0.42473 0.51908 0.44734 0.0
H730 H 0.44928 0.47025 0.46788 0.0
H731 H 0.40707 0.4276 0.47657 0.0
H732 H 0.99556 0.58985 0.53265 0.0
H733 H 0.99499 0.54721 0.54127 0.0
H734 H 0.92397 0.52037 0.59012 0.0
H735 H 0.92535 0.56346 0.58268 0.0
H736 H 0.95769 0.51008 0.61365 0.0
H737 H 0.94889 0.47367 0.51138 0.0
H738 H 0.97854 0.50639 0.51583 0.0
H739 H 0.94524 0.5025 0.51978 0.0
C740 C 0.97969 0.57471 0.54502 0.0
C741 C 0.96047 0.57996 0.55695 0.0
C742 C 0.97926 0.55025 0.54981 0.0
C743 C 0.95911 0.53025 0.56597 0.0
C744 C 0.9397 0.5354 0.57756 0.0
H745 H 0.92591 0.36354 0.5748 0.0
H746 H 0.92519 0.40539 0.56579 0.0
C747 C 0.94048 0.56003 0.57326 0.0
C748 C 0.95888 0.50448 0.57189 0.0
H749 H 0.96005 0.45052 0.54376 0.0
C750 C 0.958 0.49697 0.59832 0.0
C751 C 0.95888 0.48709 0.55196 0.0
C752 C 0.95764 0.49266 0.52317 0.0
C753 C 0.95727 0.47274 0.60538 0.0
C754 C 0.95865 0.45603 0.58549 0.0
C755 C 0.95932 0.46343 0.55906 0.0
C756 C 0.95889 0.43055 0.59158 0.0
C757 C 0.95422 0.46504 0.63406 0.0
C758 C 0.97814 0.43066 0.60897 0.0
C759 C 0.97819 0.4066 0.61461 0.0
C760 C 0.95948 0.38209 0.60236 0.0
C761 C 0.94059 0.3821 0.58455 0.0
C762 C 0.94019 0.40604 0.57935 0.0
H763 H 0.94458 0.47478 0.64527 0.0
H764 H 0.94178 0.4427 0.63673 0.0
H765 H 0.97463 0.47215 0.64267 0.0
H766 H 0.99337 0.4494 0.618 0.0
H767 H 0.99327 0.40732 0.6281 0.0
H768 H 0.3727 0.93797 0.76807 0.0
H769 H 0.41468 0.93776 0.77781 0.0
H770 H 0.4482 0.97629 0.70347 0.0
H771 H 0.40638 0.97692 0.6936 0.0
H772 H 0.43952 0.91365 0.75009 0.0
H773 H 0.50682 0.02556 0.75644 0.0
H774 H 0.4702 0.00944 0.75695 0.0
H775 H 0.48782 0.01391 0.72641 0.0
C776 C 0.38898 0.94646 0.75376 0.0
C777 C 0.38617 0.95762 0.73009 0.0
C778 C 0.41296 0.94628 0.75937 0.0
C779 C 0.4347 0.95737 0.74155 0.0
C780 C 0.43187 0.96811 0.71773 0.0
H781 H 0.57398 0.93414 0.73616 0.0
H782 H 0.53138 0.93375 0.7285 0.0
C783 C 0.40786 0.9683 0.71206 0.0
C784 C 0.46017 0.95732 0.74781 0.0
H785 H 0.52836 0.99896 0.75739 0.0
C786 C 0.45894 0.93229 0.75176 0.0
C787 C 0.48541 0.98169 0.75034 0.0
C788 C 0.48773 0.00921 0.74756 0.0
C789 C 0.48239 0.93095 0.75765 0.0
C790 C 0.50775 0.95528 0.75933 0.0
C791 C 0.50891 0.98033 0.7559 0.0
C792 C 0.53339 0.95515 0.76434 0.0
C793 C 0.47977 0.90353 0.76232 0.0
C794 C 0.54891 0.96772 0.78685 0.0
C795 C 0.57338 0.96805 0.79131 0.0
C796 C 0.5829 0.95602 0.77318 0.0
C797 C 0.56727 0.94352 0.7506 0.0
C798 C 0.5428 0.94314 0.74623 0.0
H799 H 0.4585 0.88779 0.76697 0.0
H800 H 0.48603 0.89707 0.74432 0.0
H801 H 0.49315 0.90449 0.77868 0.0
H802 H 0.54204 0.97723 0.80099 0.0
H803 H 0.58492 0.97795 0.80883 0.0
H804 H 0.43488 0.40241 0.86181 0.0
H805 H 0.47753 0.44463 0.87052 0.0
H806 H 0.48592 0.41185 0.94395 0.0
H807 H 0.44363 0.36961 0.93541 0.0
H808 H 0.49052 0.48041 0.91355 0.0
H809 H 0.55954 0.43786 0.90789 0.0
H810 H 0.52515 0.41998 0.89551 0.0
H811 H 0.53151 0.42016 0.93011 0.0
C812 C 0.44588 0.4041 0.87974 0.0
C813 C 0.43584 0.38252 0.89783 0.0
C814 C 0.47021 0.42827 0.8847 0.0
C815 C 0.48505 0.43122 0.90771 0.0
C816 C 0.47505 0.40981 0.92584 0.0
H817 H 0.61312 0.58191 0.97671 0.0
H818 H 0.57085 0.5393 0.96802 0.0
C819 C 0.45076 0.3857 0.92095 0.0
C820 C 0.5107 0.4569 0.91311 0.0
H821 H 0.57858 0.48296 0.92409 0.0
C822 C 0.50981 0.48103 0.91578 0.0
C823 C 0.53584 0.45764 0.91578 0.0
C824 C 0.53824 0.43259 0.91195 0.0
C825 C 0.53337 0.50585 0.92142 0.0
C826 C 0.55838 0.50645 0.92482 0.0
C827 C 0.55932 0.48238 0.92178 0.0
C828 C 0.58404 0.53202 0.93054 0.0
C829 C 0.5314 0.53131 0.92322 0.0
C830 C 0.60571 0.54166 0.9127 0.0
C831 C 0.62989 0.56585 0.91765 0.0
C832 C 0.633 0.5809 0.94067 0.0
C833 C 0.61139 0.57093 0.95876 0.0
C834 C 0.58715 0.54667 0.95375 0.0
H835 H 0.51241 0.52854 0.91409 0.0
H836 H 0.5314 0.53663 0.94419 0.0
H837 H 0.54906 0.54865 0.91351 0.0
H838 H 0.60379 0.5306 0.89474 0.0
H839 H 0.64608 0.57281 0.90329 0.0
H840 H 0.02457 0.30805 0.72794 0.0
H841 H 0.02674 0.31339 0.77576 0.0
H842 H 0.98755 0.36146 0.77016 0.0
H843 H 0.9849 0.35592 0.72253 0.0
H844 H 0.05097 0.3599 0.8069 0.0
H845 H 0.93926 0.30223 0.82223 0.0
H846 H 0.95488 0.30149 0.79161 0.0
H847 H 0.95033 0.32982 0.79939 0.0
C848 C 0.01651 0.31985 0.73687 0.0
C849 C 1.00439 0.33139 0.72143 0.0
C850 C 0.01773 0.32285 0.76419 0.0
C851 C 1.00679 0.33734 0.77651 0.0
C852 C 0.99551 0.34963 0.76109 0.0
H853 H 1.00264 0.38469 0.93803 0.0
H854 H 0.99909 0.37908 0.89017 0.0
C855 C 0.99421 0.3466 0.73383 0.0
C856 C 1.00726 0.33973 0.8055 0.0
H857 H 0.96637 0.32575 0.85929 0.0
C858 C 0.03248 0.35232 0.81837 0.0
C859 C 0.98306 0.32977 0.82039 0.0
C860 C 0.95533 0.31484 0.80777 0.0
C861 C 0.03418 0.35561 0.84575 0.0
C862 C 0.01003 0.34588 0.86055 0.0
C863 C 0.98481 0.33329 0.84776 0.0
C864 C 0.01067 0.34818 0.88946 0.0
C865 C 0.06176 0.36974 0.85872 0.0
C866 C 0.01769 0.33216 0.90477 0.0
C867 C 0.01952 0.33512 0.93203 0.0
C868 C 0.01451 0.35431 0.94446 0.0
C869 C 1.00672 0.36981 0.92907 0.0
C870 C 1.0047 0.36666 0.90176 0.0
H871 H 0.07848 0.38011 0.84422 0.0
H872 H 0.063 0.38497 0.87319 0.0
H873 H 0.06487 0.35456 0.8695 0.0
H874 H 0.02208 0.31758 0.89556 0.0
H875 H 0.02541 0.32273 0.94326 0.0
H876 H 0.64015 0.97522 0.89337 0.0
H877 H 0.64089 0.97726 0.94127 0.0
H878 H 0.7272 0.0337 0.9397 0.0
H879 H 0.72663 0.03212 0.89164 0.0
H880 H 0.66993 0.96291 0.97488 0.0
H881 H 0.69872 0.07097 0.98869 0.0
H882 H 0.68673 0.05355 0.95769 0.0
H883 H 0.72129 0.06592 0.96778 0.0
C884 C 0.65927 0.98834 0.90315 0.0
C885 C 0.68334 1.00361 0.88865 0.0
C886 C 0.65965 0.9894 0.93055 0.0
C887 C 0.68403 1.00581 0.94402 0.0
C888 C 0.70807 0.02127 0.92966 0.0
H889 H 0.71635 0.99303 0.10888 0.0
H890 H 0.71408 0.99061 0.0609 0.0
C891 C 0.70772 0.02027 0.9022 0.0
C892 C 0.68436 1.00587 0.97312 0.0
H893 H 0.69848 0.04683 0.02679 0.0
C894 C 0.67612 0.98123 0.98626 0.0
C895 C 0.69216 0.02975 0.98788 0.0
C896 C 0.7 0.05652 0.97485 0.0
C897 C 0.67572 0.97988 0.01379 0.0
C898 C 0.68419 1.00389 0.02854 0.0
C899 C 0.69217 0.02848 0.01541 0.0
C900 C 0.68461 1.00399 0.05764 0.0
C901 C 0.66576 0.95269 0.02684 0.0
C902 C 0.66897 0.01251 0.0717 0.0
C903 C 0.6703 0.01404 0.09908 0.0
C904 C 0.68745 0.00719 0.11295 0.0
C905 C 0.70279 0.99825 0.09883 0.0
C906 C 0.70146 0.99676 0.0714 0.0
H907 H 0.65358 0.93557 0.01317 0.0
H908 H 0.68351 0.95104 0.03338 0.0
H909 H 0.65317 0.95052 0.04435 0.0
H910 H 0.65588 0.01823 0.06143 0.0
H911 H 0.65827 0.02109 0.10932 0.0
H912 H 0.6643 0.63998 0.06017 0.0
H913 H 0.66264 0.64096 0.10806 0.0
H914 H 0.71169 0.72839 0.10696 0.0
H915 H 0.71304 0.72766 0.05895 0.0
H916 H 0.70586 0.66035 0.14216 0.0
H917 H 0.64939 0.71587 0.15535 0.0
H918 H 0.65093 0.70144 0.12425 0.0
H919 H 0.67914 0.73317 0.1351 0.0
C920 C 0.67447 0.65947 0.07006 0.0
C921 C 0.68871 0.68377 0.05571 0.0
C922 C 0.67355 0.65997 0.09745 0.0
C923 C 0.68681 0.68475 0.11107 0.0
C924 C 0.70085 0.70907 0.09683 0.0
H925 H 0.72935 0.70548 0.27735 0.0
H926 H 0.73047 0.70459 0.22929 0.0
C927 C 0.70168 0.70861 0.06938 0.0
C928 C 0.6868 0.68489 0.14019 0.0
H929 H 0.66812 0.70797 0.19372 0.0
C930 C 0.69757 0.67073 0.15345 0.0
C931 C 0.67579 0.69827 0.15485 0.0
C932 C 0.66292 0.71285 0.14172 0.0
C933 C 0.69777 0.66971 0.18099 0.0
C934 C 0.68725 0.68351 0.19562 0.0
C935 C 0.67634 0.69755 0.1824 0.0
C936 C 0.68673 0.68313 0.22471 0.0
C937 C 0.70872 0.65341 0.1942 0.0
C938 C 0.66179 0.67148 0.23801 0.0
C939 C 0.66107 0.67194 0.26541 0.0
C940 C 0.68533 0.68428 0.28006 0.0
C941 C 0.71031 0.69568 0.26667 0.0
C942 C 0.711 0.69514 0.23922 0.0
H943 H 0.71031 0.63916 0.18034 0.0
H944 H 0.72934 0.66746 0.20201 0.0
H945 H 0.69557 0.64159 0.21093 0.0
H946 H 0.64285 0.66216 0.22714 0.0
H947 H 0.64147 0.66309 0.27505 0.0
H948 H 0.03002 0.72724 0.44043 0.0
H949 H 0.03103 0.7278 0.39234 0.0
H950 H 0.98841 0.64018 0.39119 0.0
H951 H 0.98682 0.63938 0.43911 0.0
H952 H 0.05265 0.70742 0.35677 0.0
H953 H 0.94086 0.65733 0.34452 0.0
H954 H 0.95746 0.6706 0.37565 0.0
H955 H 0.95131 0.63803 0.36426 0.0
C956 C 0.02098 0.70809 0.42995 0.0
C957 C 1.00816 0.68327 0.4436 0.0
C958 C 0.02154 0.70845 0.40248 0.0
C959 C 0.00926 0.68402 0.38821 0.0
C960 C 0.99737 0.65925 0.4018 0.0
H961 H 0.03443 0.66158 0.22461 0.0
H962 H 0.03271 0.66175 0.27252 0.0
C963 C 0.99667 0.65886 0.42921 0.0
C964 C 1.00897 0.68439 0.3591 0.0
H965 H 0.96658 0.66169 0.30599 0.0
C966 C 0.03384 0.69754 0.34565 0.0
C967 C 0.98437 0.67188 0.34465 0.0
C968 C 0.95698 0.6589 0.35798 0.0
C969 C 0.03483 0.69793 0.3181 0.0
C970 C 0.01027 0.68433 0.30367 0.0
C971 C 0.98537 0.67178 0.31711 0.0
C972 C 0.01003 0.68297 0.27459 0.0
C973 C 0.06214 0.71323 0.30472 0.0
C974 C 0.99681 0.69378 0.25984 0.0
C975 C 0.99747 0.69344 0.23238 0.0
C976 C 0.01132 0.68221 0.21922 0.0
C977 C 0.02374 0.67056 0.2341 0.0
C978 C 0.02297 0.67083 0.26151 0.0
H979 H 0.07787 0.72859 0.31798 0.0
H980 H 0.06885 0.69869 0.29888 0.0
H981 H 0.06098 0.72368 0.28677 0.0
H982 H 0.9865 0.70305 0.26957 0.0
H983 H 0.98768 0.70256 0.22152 0.0
H984 H 0.35766 0.98759 0.60859 0.0
H985 H 0.35965 0.99033 0.56069 0.0
H986 H 0.30138 0.01786 0.56087 0.0
H987 H 0.29951 0.01555 0.60886 0.0
H988 H 0.31672 0.96172 0.52616 0.0
H989 H 0.36173 0.07304 0.51309 0.0
H990 H 0.36233 0.05801 0.54412 0.0
H991 H 0.33194 0.05753 0.53347 0.0
C992 C 0.34553 0.99459 0.5985 0.0
C993 C 0.3285 1.00146 0.61258 0.0
C994 C 0.34663 0.99604 0.57111 0.0
C995 C 0.33085 1.00452 0.55725 0.0
C996 C 0.31409 0.01173 0.57122 0.0
H997 H 0.28855 0.97727 0.39112 0.0
H998 H 0.2879 0.97537 0.43918 0.0
C999 C 0.31299 0.01032 0.59865 0.0
C1000 C 0.33112 1.00466 0.52815 0.0
H1001 H 0.34529 0.04582 0.47471 0.0
C1002 C 0.32302 0.9801 0.51488 0.0
C1003 C 0.33958 0.02873 0.51353 0.0
C1004 C 0.34963 0.05589 0.52672 0.0
C1005 C 0.32293 0.97891 0.48734 0.0
C1006 C 0.33076 1.00285 0.47272 0.0
C1007 C 0.33909 0.02745 0.48599 0.0
C1008 C 0.33111 1.00302 0.44362 0.0
C1009 C 0.31497 0.95216 0.47414 0.0
C1010 C 0.35554 0.01938 0.43021 0.0
C1011 C 0.35597 0.02061 0.40282 0.0
C1012 C 0.3319 1.00558 0.38826 0.0
C1013 C 0.30746 0.98895 0.40173 0.0
C1014 C 0.30707 0.98776 0.42919 0.0
H1015 H 0.3161 0.93758 0.48788 0.0
H1016 H 0.29372 0.94292 0.46701 0.0
H1017 H 0.32827 0.95515 0.45699 0.0
H1018 H 0.37431 0.03136 0.44098 0.0
H1019 H 0.37514 0.03369 0.39311 0.0
H1020 H 0.3585 0.37105 0.55995 0.0
H1021 H 0.36125 0.37095 0.60779 0.0
H1022 H 0.30998 0.28373 0.60829 0.0
H1023 H 0.30752 0.28357 0.5603 0.0
H1024 H 0.31906 0.3539 0.64228 0.0
H1025 H 0.37187 0.29502 0.65641 0.0
H1026 H 0.37046 0.30898 0.62502 0.0
H1027 H 0.34178 0.27797 0.63658 0.0
C1028 C 0.3481 0.35177 0.57018 0.0
C1029 C 0.33284 0.32729 0.55629 0.0
C1030 C 0.34964 0.35178 0.59754 0.0
C1031 C 0.33603 0.32733 0.6116 0.0
C1032 C 0.3211 0.30279 0.59781 0.0
H1033 H 0.29296 0.3117 0.77733 0.0
H1034 H 0.29265 0.31253 0.7293 0.0
C1035 C 0.31964 0.30274 0.57038 0.0
C1036 C 0.3364 0.3278 0.64072 0.0
H1037 H 0.35347 0.30388 0.69461 0.0
C1038 C 0.32666 0.34304 0.65373 0.0
C1039 C 0.34657 0.31383 0.6556 0.0
C1040 C 0.35851 0.29823 0.64273 0.0
C1041 C 0.3266 0.34449 0.68125 0.0
C1042 C 0.33605 0.3299 0.69614 0.0
C1043 C 0.34603 0.31488 0.68313 0.0
C1044 C 0.3362 0.33026 0.72525 0.0
C1045 C 0.31692 0.36207 0.69409 0.0
C1046 C 0.36074 0.33964 0.73891 0.0
C1047 C 0.36098 0.33904 0.76632 0.0
C1048 C 0.33663 0.32893 0.78064 0.0
C1049 C 0.31209 0.31981 0.76692 0.0
C1050 C 0.31188 0.32036 0.73946 0.0
H1051 H 0.31726 0.37731 0.6802 0.0
H1052 H 0.29566 0.34904 0.70088 0.0
H1053 H 0.32964 0.37292 0.7114 0.0
H1054 H 0.37973 0.3473 0.72832 0.0
H1055 H 0.38023 0.34614 0.77625 0.0
H1056 H 0.28877 0.32827 0.87611 0.0
H1057 H 0.2515 0.33313 0.89415 0.0
H1058 H 0.26846 0.31447 0.97149 0.0
H1059 H 0.30523 0.30889 0.95362 0.0
H1060 H 0.21461 0.28788 0.96138 0.0
H1061 H 0.25925 0.39698 0.93635 0.0
H1062 H 0.25506 0.3758 0.90854 0.0
H1063 H 0.27838 0.37953 0.93427 0.0
C1064 C 0.28458 0.32519 0.89697 0.0
C1065 C 0.30015 0.31837 0.91343 0.0
C1066 C 0.26336 0.32815 0.90727 0.0
C1067 C 0.25752 0.3247 0.93426 0.0
C1068 C 0.27269 0.31739 0.95063 0.0
H1069 H 0.16441 0.37951 0.02425 0.0
H1070 H 0.19976 0.3728 0.00397 0.0
C1071 C 0.29375 0.31424 0.94035 0.0
C1072 C 0.2355 0.32845 0.94556 0.0
H1073 H 0.21421 0.37461 0.95299 0.0
C1074 C 0.21452 0.30685 0.95956 0.0
C1075 C 0.23562 0.35334 0.9435 0.0
C1076 C 0.25841 0.37784 0.93009 0.0
C1077 C 0.19358 0.30939 0.97143 0.0
C1078 C 0.19326 0.33401 0.96871 0.0
C1079 C 0.21432 0.35566 0.95484 0.0
C1080 C 0.17171 0.33803 0.98075 0.0
C1081 C 0.17246 0.28593 0.9874 0.0
C1082 C 0.14423 0.32095 0.97421 0.0
C1083 C 0.12404 0.32455 0.98604 0.0
C1084 C 0.13099 0.34552 0.00436 0.0
C1085 C 0.15851 0.36297 0.01045 0.0
C1086 C 0.17869 0.35925 0.99876 0.0
H1087 H 0.17973 0.2719 0.99355 0.0
H1088 H 0.1668 0.29324 0.00523 0.0
H1089 H 0.15391 0.27416 0.9753 0.0
H1090 H 0.13839 0.30482 0.95994 0.0
H1091 H 0.10295 0.31076 0.98109 0.0
H1092 H 0.96416 0.2822 0.04369 0.0
H1093 H 0.92174 0.2458 0.06201 0.0
H1094 H 0.95775 0.26277 0.13922 0.0
H1095 H 1.0005 0.29879 0.12101 0.0
H1096 H 0.92886 0.20865 0.12943 0.0
H1097 H 0.86712 0.25612 0.10404 0.0
H1098 H 0.88364 0.25129 0.07621 0.0
H1099 H 0.90374 0.27429 0.10197 0.0
C1100 C 0.96312 0.27821 0.06457 0.0
C1101 C 0.98573 0.2936 0.08089 0.0
C1102 C 0.93875 0.25748 0.07504 0.0
C1103 C 0.93637 0.25193 0.10207 0.0
C1104 C 0.95907 0.26682 0.11832 0.0
H1105 H 0.78668 0.1608 0.19044 0.0
H1106 H 0.82924 0.19581 0.1706 0.0
C1107 C 0.98351 0.28743 0.10786 0.0
C1108 C 0.9103 0.23051 0.11344 0.0
H1109 H 0.84306 0.21079 0.11998 0.0
C1110 C 0.91011 0.20913 0.12741 0.0
C1111 C 0.88591 0.23137 0.11113 0.0
C1112 C 0.88507 0.25463 0.09776 0.0
C1113 C 0.88617 0.18846 0.1389 0.0
C1114 C 0.86159 0.18883 0.13581 0.0
C1115 C 0.86184 0.21035 0.12207 0.0
C1116 C 0.83556 0.16753 0.14735 0.0
C1117 C 0.88762 0.16681 0.15478 0.0
C1118 C 0.82468 0.14007 0.14051 0.0
C1119 C 0.80059 0.12006 0.15208 0.0
C1120 C 0.7868 0.12721 0.17046 0.0
C1121 C 0.79719 0.15475 0.17664 0.0
C1122 C 0.82138 0.17473 0.16521 0.0
H1123 H 0.90872 0.17353 0.16127 0.0
H1124 H 0.87436 0.16122 0.1724 0.0
H1125 H 0.88063 0.14836 0.1425 0.0
H1126 H 0.83489 0.13408 0.1263 0.0
H1127 H 0.79298 0.09896 0.14699 0.0
H1128 H 0.70446 0.7959 0.32381 0.0
H1129 H 0.71203 0.83841 0.30383 0.0
H1130 H 0.63217 0.82045 0.32906 0.0
H1131 H 0.62513 0.7785 0.34988 0.0
H1132 H 0.68745 0.84899 0.26576 0.0
H1133 H 0.67696 0.89581 0.35709 0.0
H1134 H 0.67918 0.86527 0.35727 0.0
H1135 H 0.64728 0.86363 0.35051 0.0
C1136 C 0.68863 0.80119 0.32508 0.0
C1137 C 0.66436 0.78427 0.33852 0.0
C1138 C 0.69292 0.8254 0.31369 0.0
C1139 C 0.67292 0.83298 0.31541 0.0
C1140 C 0.64826 0.81553 0.32816 0.0
H1141 H 0.66693 0.95486 0.21658 0.0
H1142 H 0.6616 0.91298 0.23547 0.0
C1143 C 0.64414 0.79151 0.33987 0.0
C1144 C 0.67777 0.85895 0.30358 0.0
H1145 H 0.67696 0.91741 0.317 0.0
C1146 C 0.68532 0.86403 0.27701 0.0
C1147 C 0.6755 0.87885 0.31834 0.0
C1148 C 0.66958 0.87578 0.34744 0.0
C1149 C 0.69023 0.8882 0.26471 0.0
C1150 C 0.6866 0.90747 0.27914 0.0
C1151 C 0.67946 0.90256 0.30581 0.0
C1152 C 0.69027 0.93297 0.26716 0.0
C1153 C 0.69987 0.89302 0.23657 0.0
C1154 C 0.70752 0.95818 0.27905 0.0
C1155 C 0.71012 0.98212 0.26863 0.0
C1156 C 0.69568 0.98138 0.24593 0.0
C1157 C 0.67861 0.95617 0.23389 0.0
C1158 C 0.67568 0.93219 0.24458 0.0
H1159 H 0.70999 0.88122 0.2314 0.0
H1160 H 0.68211 0.88624 0.22335 0.0
H1161 H 0.71432 0.91487 0.23282 0.0
H1162 H 0.71894 0.95935 0.29652 0.0
H1163 H 0.72347 1.0012 0.27836 0.0
H1164 H 0.7228 0.71573 0.44903 0.0
H1165 H 0.76001 0.71107 0.4673 0.0
H1166 H 0.75873 0.66554 0.39897 0.0
H1167 H 0.72199 0.67069 0.3802 0.0
H1168 H 0.76013 0.66533 0.4807 0.0
H1169 H 0.8387 0.71991 0.40453 0.0
H1170 H 0.80796 0.72176 0.4064 0.0
H1171 H 0.80754 0.69287 0.39142 0.0
C1172 C 0.73059 0.70494 0.43773 0.0
C1173 C 0.71943 0.69366 0.41308 0.0
C1174 C 0.75187 0.70228 0.44824 0.0
C1175 C 0.76246 0.68829 0.43436 0.0
C1176 C 0.75139 0.67701 0.40976 0.0
H1177 H 0.87768 0.63538 0.47376 0.0
H1178 H 0.84232 0.64225 0.45357 0.0
C1179 C 0.73024 0.67984 0.39912 0.0
C1180 C 0.7842 0.68447 0.44625 0.0
H1181 H 0.84807 0.69457 0.43589 0.0
C1182 C 0.77942 0.6719 0.47096 0.0
C1183 C 0.80938 0.693 0.43353 0.0
C1184 C 0.81636 0.70787 0.40763 0.0
C1185 C 0.79893 0.6673 0.4831 0.0
C1186 C 0.82395 0.67563 0.47028 0.0
C1187 C 0.82878 0.68813 0.44559 0.0
C1188 C 0.84545 0.67171 0.48235 0.0
C1189 C 0.79252 0.65316 0.50937 0.0
C1190 C 0.85903 0.68621 0.50502 0.0
C1191 C 0.87936 0.68252 0.51636 0.0
C1192 C 0.88641 0.66428 0.50522 0.0
C1193 C 0.8728 0.64978 0.48253 0.0
C1194 C 0.85259 0.65361 0.47107 0.0
H1195 H 0.77051 0.64319 0.51412 0.0
H1196 H 0.7989 0.63761 0.50976 0.0
H1197 H 0.80395 0.6683 0.52496 0.0
H1198 H 0.85403 0.70051 0.51382 0.0
H1199 H 0.88975 0.6941 0.53373 0.0
H1200 H 0.2287 0.84913 0.69203 0.0
H1201 H 0.18703 0.81392 0.67102 0.0
H1202 H 0.18306 0.8752 0.62444 0.0
H1203 H 0.22415 0.91052 0.64616 0.0
H1204 H 0.13396 0.83932 0.64592 0.0
H1205 H 0.17879 0.78356 0.59727 0.0
H1206 H 0.18467 0.78727 0.63205 0.0
H1207 H 0.19933 0.81692 0.6114 0.0
C1208 C 0.21883 0.85503 0.67738 0.0
C1209 C 0.22961 0.88249 0.67066 0.0
C1210 C 0.19522 0.8349 0.66518 0.0
C1211 C 0.18217 0.84187 0.64583 0.0
C1212 C 0.19289 0.86934 0.63918 0.0
H1213 H 0.05554 0.7266 0.54095 0.0
H1214 H 0.09738 0.7637 0.55964 0.0
C1215 C 0.21643 0.88946 0.65146 0.0
C1216 C 0.15689 0.82063 0.63307 0.0
H1217 H 0.13043 0.76183 0.59752 0.0
C1218 C 0.13321 0.82245 0.63522 0.0
C1219 C 0.15603 0.79884 0.61879 0.0
C1220 C 0.18111 0.7966 0.61447 0.0
C1221 C 0.10856 0.80277 0.62396 0.0
C1222 C 0.10743 0.78037 0.61061 0.0
C1223 C 0.13125 0.77886 0.60798 0.0
C1224 C 0.08176 0.75824 0.59928 0.0
C1225 C 0.08407 0.80638 0.62615 0.0
C1226 C 0.05912 0.74269 0.61538 0.0
C1227 C 0.03512 0.72155 0.60476 0.0
C1228 C 0.03334 0.7153 0.57781 0.0
C1229 C 0.05614 0.73084 0.56176 0.0
C1230 C 0.08011 0.75204 0.57241 0.0
H1231 H 0.09006 0.82791 0.63 0.0
H1232 H 0.07163 0.7996 0.60796 0.0
H1233 H 0.07121 0.794 0.64277 0.0
H1234 H 0.06011 0.74668 0.63627 0.0
H1235 H 0.01807 0.70993 0.61776 0.0
H1236 H 0.32574 0.1977 0.86953 0.0
H1237 H 0.31986 0.15637 0.84824 0.0
H1238 H 0.37722 0.20518 0.78821 0.0
H1239 H 0.38395 0.24654 0.81009 0.0
H1240 H 0.30109 0.13735 0.79893 0.0
H1241 H 0.40627 0.15612 0.80996 0.0
H1242 H 0.39412 0.17548 0.82763 0.0
H1243 H 0.40446 0.18324 0.79386 0.0
C1244 C 0.33737 0.19955 0.85201 0.0
C1245 C 0.35529 0.22523 0.84142 0.0
C1246 C 0.33388 0.17597 0.83978 0.0
C1247 C 0.34834 0.17767 0.8168 0.0
C1248 C 0.36625 0.20336 0.80619 0.0
H1249 H 0.34711 0.05442 0.71333 0.0
H1250 H 0.35324 0.09692 0.73195 0.0
C1251 C 0.36985 0.22694 0.81852 0.0
C1252 C 0.34401 0.15251 0.80355 0.0
H1253 H 0.37655 0.11899 0.78285 0.0
C1254 C 0.31758 0.13331 0.7955 0.0
C1255 C 0.36556 0.14728 0.79901 0.0
C1256 C 0.39415 0.16648 0.80827 0.0
C1257 C 0.31215 0.10912 0.78287 0.0
C1258 C 0.33367 0.10389 0.7784 0.0
C1259 C 0.36013 0.12316 0.7862 0.0
C1260 C 0.32897 0.07806 0.76655 0.0
C1261 C 0.28348 0.08945 0.77416 0.0
C1262 C 0.31334 0.05343 0.77988 0.0
C1263 C 0.30985 0.02917 0.76938 0.0
C1264 C 0.32199 0.02902 0.74532 0.0
C1265 C 0.33738 0.05375 0.73184 0.0
C1266 C 0.34099 0.07807 0.74247 0.0
H1267 H 0.27083 0.09929 0.77315 0.0
H1268 H 0.28338 0.08073 0.7546 0.0
H1269 H 0.27391 0.07249 0.78845 0.0
H1270 H 0.3042 0.05303 0.79868 0.0
H1271 H 0.2978 0.01057 0.78026 0.0
H1272 H 0.67461 0.71954 0.95522 0.0
H1273 H 0.66779 0.75491 0.93544 0.0
H1274 H 0.71048 0.75353 0.86594 0.0
H1275 H 0.71679 0.71777 0.88519 0.0
H1276 H 0.70352 0.80584 0.91828 0.0
H1277 H 0.64068 0.74332 0.83482 0.0
H1278 H 0.64874 0.72884 0.8625 0.0
H1279 H 0.6731 0.74518 0.83653 0.0
C1280 C 0.68256 0.72675 0.93572 0.0
C1281 C 0.69602 0.71559 0.92171 0.0
C1282 C 0.67863 0.74697 0.92444 0.0
C1283 C 0.68808 0.75644 0.89897 0.0
C1284 C 0.70231 0.74599 0.8853 0.0
H1285 H 0.69366 0.88197 0.79828 0.0
H1286 H 0.69956 0.84634 0.81913 0.0
C1287 C 0.70607 0.72565 0.89645 0.0
C1288 C 0.68332 0.77744 0.88677 0.0
H1289 H 0.65623 0.79076 0.83274 0.0
C1290 C 0.69301 0.80247 0.89968 0.0
C1291 C 0.66951 0.77299 0.86251 0.0
C1292 C 0.65717 0.74604 0.8484 0.0
C1293 C 0.68982 0.82337 0.88869 0.0
C1294 C 0.67645 0.81904 0.86426 0.0
C1295 C 0.66661 0.79401 0.85142 0.0
C1296 C 0.67258 0.84033 0.85163 0.0
C1297 C 0.70124 0.85014 0.90297 0.0
C1298 C 0.65511 0.84835 0.8628 0.0
C1299 C 0.65149 0.86843 0.85078 0.0
C1300 C 0.6654 0.88089 0.82748 0.0
C1301 C 0.68262 0.87259 0.81617 0.0
C1302 C 0.68608 0.85237 0.82809 0.0
H1303 H 0.71537 0.85202 0.91898 0.0
H1304 H 0.71219 0.86736 0.88913 0.0
H1305 H 0.68429 0.85187 0.91177 0.0
H1306 H 0.64415 0.83895 0.88073 0.0
H1307 H 0.63773 0.87415 0.85962 0.0
H1308 H 0.77108 0.63459 0.02606 0.0
H1309 H 0.81319 0.64194 0.04685 0.0
H1310 H 0.86015 0.7013 0.98756 0.0
H1311 H 0.81812 0.69482 0.96748 0.0
H1312 H 0.85307 0.63426 0.02757 0.0
H1313 H 0.89624 0.74287 0.05363 0.0
H1314 H 0.86143 0.72181 0.0432 0.0
H1315 H 0.88841 0.73631 0.01935 0.0
C1316 C 0.79045 0.64949 0.01776 0.0
C1317 C 0.79145 0.6644 0.99541 0.0
C1318 C 0.81445 0.65356 0.02952 0.0
C1319 C 0.83988 0.67258 0.01909 0.0
C1320 C 0.84084 0.68707 0.99639 0.0
H1321 H 1.00627 0.71426 0.0504 0.0
H1322 H 0.96403 0.70896 0.03213 0.0
C1323 C 0.81684 0.68314 0.98476 0.0
C1324 C 0.86532 0.67661 0.03147 0.0
H1325 H 0.92597 0.7248 0.05759 0.0
C1326 C 0.86891 0.65402 0.03431 0.0
C1327 C 0.88599 0.70241 0.04031 0.0
C1328 C 0.88276 0.72718 0.03923 0.0
C1329 C 0.89279 0.65663 0.04525 0.0
C1330 C 0.91355 0.68247 0.05368 0.0
C1331 C 0.91001 0.70504 0.05097 0.0
C1332 C 0.93918 0.68639 0.06526 0.0
C1333 C 0.89594 0.63187 0.0473 0.0
C1334 C 0.93921 0.67584 0.09014 0.0
C1335 C 0.96331 0.67895 0.10074 0.0
C1336 C 0.98784 0.69258 0.08657 0.0
C1337 C 0.98776 0.70353 0.0618 0.0
C1338 C 0.96366 0.70057 0.05132 0.0
H1339 H 0.88016 0.61443 0.03587 0.0
H1340 H 0.91632 0.63656 0.04021 0.0
H1341 H 0.89417 0.62566 0.06819 0.0
H1342 H 0.92052 0.66507 0.1013 0.0
H1343 H 0.96261 0.67029 0.11986 0.0
H1344 H 0.14241 0.76504 0.19176 0.0
H1345 H 0.17647 0.80731 0.21292 0.0
H1346 H 0.16578 0.85374 0.15187 0.0
H1347 H 0.13085 0.81157 0.13146 0.0
H1348 H 0.22456 0.84717 0.19501 0.0
H1349 H 0.15797 0.89014 0.21643 0.0
H1350 H 0.14467 0.85533 0.20626 0.0
H1351 H 0.15804 0.88225 0.18233 0.0
C1352 C 0.1471 0.78432 0.18314 0.0
C1353 C 0.13382 0.78512 0.16019 0.0
C1354 C 0.16664 0.80842 0.19511 0.0
C1355 C 0.17331 0.83375 0.1843 0.0
C1356 C 0.16048 0.83451 0.161 0.0
H1357 H 0.2966 1.0005 0.21723 0.0
H1358 H 0.26051 0.95814 0.19818 0.0
C1359 C 0.14078 0.81042 0.14917 0.0
C1360 C 0.19425 0.85931 0.19697 0.0
H1361 H 0.20564 0.92004 0.22184 0.0
C1362 C 0.22034 0.863 0.20105 0.0
C1363 C 0.18875 0.87998 0.20491 0.0
C1364 C 0.16077 0.87667 0.20251 0.0
C1365 C 0.24118 0.88697 0.21234 0.0
C1366 C 0.23575 0.90773 0.21986 0.0
C1367 C 0.20971 0.90408 0.21591 0.0
C1368 C 0.25696 0.93342 0.23184 0.0
C1369 C 0.26903 0.89021 0.21575 0.0
C1370 C 0.26654 0.93355 0.25725 0.0
C1371 C 0.28703 0.95772 0.26829 0.0
C1372 C 0.29843 0.98221 0.25405 0.0
C1373 C 0.2884 0.98202 0.22871 0.0
C1374 C 0.26776 0.95786 0.21779 0.0
H1375 H 0.27117 0.87444 0.20486 0.0
H1376 H 0.28499 0.91058 0.20892 0.0
H1377 H 0.27264 0.88851 0.2369 0.0
H1378 H 0.25823 0.91491 0.26849 0.0
H1379 H 0.29421 0.9571 0.28784 0.0
H1380 H 0.34236 0.2909 0.45423 0.0
H1381 H 0.34783 0.25492 0.43397 0.0
H1382 H 0.30288 0.25591 0.36617 0.0
H1383 H 0.2979 0.29237 0.38594 0.0
H1384 H 0.31116 0.204 0.4181 0.0
H1385 H 0.37101 0.26455 0.33238 0.0
H1386 H 0.3642 0.27973 0.36035 0.0
H1387 H 0.33871 0.2628 0.33542 0.0
C1388 C 0.33362 0.28349 0.435 0.0
C1389 C 0.31991 0.29475 0.42162 0.0
C1390 C 0.33677 0.2629 0.42345 0.0
C1391 C 0.32628 0.2531 0.39831 0.0
C1392 C 0.31183 0.26366 0.38526 0.0
H1393 H 0.32079 0.12619 0.29856 0.0
H1394 H 0.31397 0.16146 0.31898 0.0
C1395 C 0.30884 0.2844 0.39669 0.0
C1396 C 0.33031 0.23169 0.38589 0.0
H1397 H 0.35616 0.21733 0.33148 0.0
C1398 C 0.32111 0.20697 0.39922 0.0
C1399 C 0.34339 0.2356 0.36127 0.0
C1400 C 0.35514 0.26219 0.34662 0.0
C1401 C 0.32423 0.18594 0.38841 0.0
C1402 C 0.33704 0.1898 0.36373 0.0
C1403 C 0.34623 0.21444 0.35037 0.0
C1404 C 0.34124 0.16852 0.35148 0.0
C1405 C 0.31342 0.15956 0.40325 0.0
C1406 C 0.35913 0.16112 0.36281 0.0
C1407 C 0.36326 0.14123 0.35103 0.0
C1408 C 0.34949 0.12835 0.3278 0.0
C1409 C 0.33174 0.13592 0.31639 0.0
C1410 C 0.32776 0.15594 0.32807 0.0
H1411 H 0.29928 0.15776 0.41922 0.0
H1412 H 0.30266 0.14194 0.38977 0.0
H1413 H 0.33067 0.15849 0.41219 0.0
H1414 H 0.37008 0.17093 0.38063 0.0
H1415 H 0.37737 0.13605 0.35995 0.0
H1416 H 0.05586 0.34062 0.62202 0.0
H1417 H 0.09824 0.34637 0.60374 0.0
H1418 H 0.05499 0.3007 0.53508 0.0
H1419 H 0.01271 0.29551 0.55281 0.0
H1420 H 0.1138 0.31034 0.58976 0.0
H1421 H 0.11506 0.3687 0.50211 0.0
H1422 H 0.09201 0.36182 0.52917 0.0
H1423 H 0.08455 0.33629 0.50453 0.0
C1424 C 0.05534 0.33179 0.60302 0.0
C1425 C 0.03089 0.31783 0.58878 0.0
C1426 C 0.0796 0.3351 0.5926 0.0
C1427 C 0.07993 0.32449 0.56778 0.0
C1428 C 0.05541 0.30975 0.55393 0.0
H1429 H 0.20172 0.31529 0.47314 0.0
H1430 H 0.15974 0.30879 0.49356 0.0
C1431 C 0.03119 0.30664 0.5642 0.0
C1432 C 0.10588 0.32871 0.55647 0.0
H1433 H 0.14717 0.35341 0.50267 0.0
C1434 C 0.12118 0.31992 0.5708 0.0
C1435 C 0.1156 0.34136 0.53177 0.0
C1436 C 0.10111 0.35284 0.51612 0.0
C1437 C 0.14559 0.32288 0.56082 0.0
C1438 C 0.15493 0.335 0.53595 0.0
C1439 C 0.13979 0.34396 0.52169 0.0
C1440 C 0.18033 0.33848 0.52425 0.0
C1441 C 0.16102 0.31259 0.57665 0.0
C1442 C 0.20574 0.35744 0.5347 0.0
C1443 C 0.22969 0.36138 0.5229 0.0
C1444 C 0.22855 0.34632 0.50057 0.0
C1445 C 0.2031 0.32722 0.49028 0.0
C1446 C 0.17918 0.32345 0.50194 0.0
H1447 H 0.1489 0.29979 0.59345 0.0
H1448 H 0.16709 0.30057 0.56403 0.0
H1449 H 0.17986 0.33015 0.5845 0.0
H1450 H 0.20702 0.36949 0.55171 0.0
H1451 H 0.24911 0.37649 0.53094 0.0
H1452 H 0.85089 0.23385 0.65287 0.0
H1453 H 0.81564 0.19267 0.67465 0.0
H1454 H 0.876 0.17099 0.69548 0.0
H1455 H 0.91129 0.21273 0.67464 0.0
H1456 H 0.7972 0.14129 0.66453 0.0
H1457 H 0.8401 0.16169 0.76493 0.0
H1458 H 0.85321 0.18719 0.73953 0.0
H1459 H 0.86365 0.16207 0.74127 0.0
C1460 C 0.85651 0.2203 0.66232 0.0
C1461 C 0.88364 0.2263 0.66229 0.0
C1462 C 0.83645 0.19682 0.67472 0.0
C1463 C 0.84319 0.1789 0.68717 0.0
C1464 C 0.87036 0.18483 0.68676 0.0
H1465 H 0.72484 0.00995 0.72133 0.0
H1466 H 0.76088 0.05236 0.70268 0.0
C1467 C 0.89046 0.20851 0.67468 0.0
C1468 C 0.82162 0.15355 0.69965 0.0
H1469 H 0.80444 0.11636 0.75626 0.0
C1470 C 0.79872 0.13595 0.68466 0.0
C1471 C 0.82331 0.14671 0.72606 0.0
C1472 C 0.84625 0.16556 0.74396 0.0
C1473 C 0.77772 0.1116 0.69514 0.0
C1474 C 0.78009 0.10408 0.7211 0.0
C1475 C 0.80277 0.12188 0.73625 0.0
C1476 C 0.75907 0.07809 0.73307 0.0
C1477 C 0.75294 0.09456 0.67841 0.0
C1478 C 0.74691 0.07819 0.75707 0.0
C1479 C 0.7267 0.05386 0.76812 0.0
C1480 C 0.71809 0.02894 0.75528 0.0
C1481 C 0.73074 0.02882 0.73156 0.0
C1482 C 0.75122 0.05311 0.72074 0.0
H1483 H 0.75045 0.10696 0.66299 0.0
H1484 H 0.75528 0.07851 0.66839 0.0
H1485 H 0.73415 0.08466 0.69047 0.0
H1486 H 0.75273 0.09716 0.76707 0.0
H1487 H 0.7174 0.05468 0.78641 0.0
loop_
_geom_bond_atom_site_label_1
_geom_bond_atom_site_label_2
_geom_bond_distance
_geom_bond_site_symmetry_2
_ccdc_geom_bond_type
Co0 O3 1.970 . S
Co0 N17 1.989 . S
Co0 O25 1.967 . S
Co0 O32 1.920 1_554 S
Co1 O4 1.966 . S
Co1 N10 2.022 . S
Co1 N18 1.993 . S
Co1 O26 1.941 . S
C2 O3 1.258 . S
C2 O4 1.263 . S
O3 Co0 1.970 . S
O3 C2 1.258 . S
O4 Co1 1.966 . S
O4 C2 1.263 . S
C5 O6 1.235 . S
C5 O32 1.289 . S
O6 C5 1.235 . S
C7 C9 1.400 . S
C7 N10 1.351 . S
C7 C12 1.501 . S
C8 C9 1.387 . S
C8 N11 1.341 . S
C9 C7 1.400 . S
C9 C8 1.387 . S
N10 Co1 2.022 . S
N10 C7 1.351 . S
N10 N11 1.365 . S
N11 C8 1.341 . S
N11 N10 1.365 . S
N11 H31 0.862 . S
C12 C7 1.501 . S
C12 H13 0.961 . S
C12 H14 0.961 . S
C12 H15 0.960 . S
H13 C12 0.961 . S
H14 C12 0.961 . S
H15 C12 0.960 . S
C16 N17 1.342 . S
C16 C20 1.401 . S
C16 C21 1.499 1_554 S
N17 Co0 1.989 . S
N17 C16 1.342 . S
N17 N18 1.388 . S
N18 Co1 1.993 . S
N18 N17 1.388 . S
N18 C19 1.346 . S
C19 N18 1.346 . S
C19 C20 1.396 . S
C19 C29 1.510 . S
C20 C16 1.401 . S
C20 C19 1.396 . S
C21 C16 1.499 1_556 S
C21 H22 0.959 . S
C21 H23 0.960 . S
C21 H24 0.961 . S
H22 C21 0.959 . S
H23 C21 0.960 . S
H24 C21 0.961 . S
O25 Co0 1.967 . S
O25 C33 1.258 . S
O26 Co1 1.941 . S
O26 C33 1.266 . S
H27 C29 0.959 . S
H28 C29 0.961 . S
C29 C19 1.510 . S
C29 H27 0.959 . S
C29 H28 0.961 . S
C29 H30 0.960 . S
H30 C29 0.960 . S
H31 N11 0.862 . S
O32 Co0 1.920 1_556 S
O32 C5 1.289 . S
C33 O25 1.258 . S
C33 O26 1.266 . S
Co34 O37 1.970 . S
Co34 N51 1.989 . S
Co34 O59 1.967 . S
Co34 O66 1.920 . S
Co35 O38 1.966 . S
Co35 N44 2.022 . S
Co35 N52 1.993 . S
Co35 O60 1.941 . S
C36 O37 1.258 . S
C36 O38 1.263 . S
O37 Co34 1.970 . S
O37 C36 1.258 . S
O38 Co35 1.966 . S
O38 C36 1.263 . S
C39 O40 1.235 . S
C39 O66 1.289 . S
O40 C39 1.235 . S
C41 C43 1.400 . S
C41 N44 1.351 . S
C41 C46 1.501 . S
C42 C43 1.387 . S
C42 N45 1.341 . S
C43 C41 1.400 . S
C43 C42 1.387 . S
N44 Co35 2.022 . S
N44 C41 1.351 . S
N44 N45 1.365 . S
N45 C42 1.341 . S
N45 N44 1.365 . S
N45 H65 0.862 . S
C46 C41 1.501 . S
C46 H47 0.961 . S
C46 H48 0.961 . S
C46 H49 0.960 . S
H47 C46 0.961 . S
H48 C46 0.961 . S
H49 C46 0.960 . S
C50 N51 1.342 . S
C50 C54 1.401 . S
C50 C55 1.499 . S
N51 Co34 1.989 . S
N51 C50 1.342 . S
N51 N52 1.388 . S
N52 Co35 1.993 . S
N52 N51 1.388 . S
N52 C53 1.346 . S
C53 N52 1.346 . S
C53 C54 1.396 . S
C53 C63 1.510 . S
C54 C50 1.401 . S
C54 C53 1.396 . S
C55 C50 1.499 . S
C55 H56 0.959 . S
C55 H57 0.960 . S
C55 H58 0.961 . S
H56 C55 0.959 . S
H57 C55 0.960 . S
H58 C55 0.961 . S
O59 Co34 1.967 . S
O59 C67 1.258 . S
O60 Co35 1.941 . S
O60 C67 1.266 . S
H61 C63 0.959 . S
H62 C63 0.961 . S
C63 C53 1.510 . S
C63 H61 0.959 . S
C63 H62 0.961 . S
C63 H64 0.960 . S
H64 C63 0.960 . S
H65 N45 0.862 . S
O66 Co34 1.920 . S
O66 C39 1.289 . S
C67 O59 1.258 . S
C67 O60 1.266 . S
Co68 O71 1.970 . S
Co68 N85 1.989 . S
Co68 O93 1.967 . S
Co68 O100 1.920 . S
Co69 O72 1.966 . S
Co69 N78 2.022 . S
Co69 N86 1.993 . S
Co69 O94 1.941 . S
C70 O71 1.258 . S
C70 O72 1.263 . S
O71 Co68 1.970 . S
O71 C70 1.258 . S
O72 Co69 1.966 . S
O72 C70 1.263 . S
C73 O74 1.235 . S
C73 O100 1.289 . S
O74 C73 1.235 . S
C75 C77 1.400 . S
C75 N78 1.351 . S
C75 C80 1.501 . S
C76 C77 1.387 . S
C76 N79 1.341 . S
C77 C75 1.400 . S
C77 C76 1.387 . S
N78 Co69 2.022 . S
N78 C75 1.351 . S
N78 N79 1.365 . S
N79 C76 1.341 . S
N79 N78 1.365 . S
N79 H99 0.862 . S
C80 C75 1.501 . S
C80 H81 0.961 . S
C80 H82 0.961 . S
C80 H83 0.960 . S
H81 C80 0.961 . S
H82 C80 0.961 . S
H83 C80 0.960 . S
C84 N85 1.342 . S
C84 C88 1.401 . S
C84 C89 1.499 . S
N85 Co68 1.989 . S
N85 C84 1.342 . S
N85 N86 1.388 . S
N86 Co69 1.993 . S
N86 N85 1.388 . S
N86 C87 1.346 . S
C87 N86 1.346 . S
C87 C88 1.396 . S
C87 C97 1.510 . S
C88 C84 1.401 . S
C88 C87 1.396 . S
C89 C84 1.499 . S
C89 H90 0.959 . S
C89 H91 0.960 . S
C89 H92 0.961 . S
H90 C89 0.959 . S
H91 C89 0.960 . S
H92 C89 0.961 . S
O93 Co68 1.967 . S
O93 C101 1.258 . S
O94 Co69 1.941 . S
O94 C101 1.266 . S
H95 C97 0.959 . S
H96 C97 0.961 . S
C97 C87 1.510 . S
C97 H95 0.959 . S
C97 H96 0.961 . S
C97 H98 0.960 . S
H98 C97 0.960 . S
H99 N79 0.862 . S
O100 Co68 1.920 . S
O100 C73 1.289 . S
C101 O93 1.258 . S
C101 O94 1.266 . S
Co102 O105 1.970 . S
Co102 N119 1.989 . S
Co102 O127 1.967 . S
Co102 O134 1.920 . S
Co103 O106 1.966 . S
Co103 N112 2.022 . S
Co103 N120 1.993 . S
Co103 O128 1.941 . S
C104 O105 1.258 . S
C104 O106 1.263 . S
O105 Co102 1.970 . S
O105 C104 1.258 . S
O106 Co103 1.966 . S
O106 C104 1.263 . S
C107 O108 1.235 . S
C107 O134 1.289 . S
O108 C107 1.235 . S
C109 C111 1.400 . S
C109 N112 1.351 . S
C109 C114 1.501 . S
C110 C111 1.387 . S
C110 N113 1.341 . S
C111 C109 1.400 . S
C111 C110 1.387 . S
N112 Co103 2.022 . S
N112 C109 1.351 . S
N112 N113 1.365 . S
N113 C110 1.341 . S
N113 N112 1.365 . S
N113 H133 0.862 . S
C114 C109 1.501 . S
C114 H115 0.961 . S
C114 H116 0.961 . S
C114 H117 0.960 . S
H115 C114 0.961 . S
H116 C114 0.961 . S
H117 C114 0.960 . S
C118 N119 1.342 . S
C118 C122 1.401 . S
C118 C123 1.499 . S
N119 Co102 1.989 . S
N119 C118 1.342 . S
N119 N120 1.388 . S
N120 Co103 1.993 . S
N120 N119 1.388 . S
N120 C121 1.346 . S
C121 N120 1.346 . S
C121 C122 1.396 . S
C121 C131 1.510 . S
C122 C118 1.401 . S
C122 C121 1.396 . S
C123 C118 1.499 . S
C123 H124 0.959 . S
C123 H125 0.960 . S
C123 H126 0.961 . S
H124 C123 0.959 . S
H125 C123 0.960 . S
H126 C123 0.961 . S
O127 Co102 1.967 . S
O127 C135 1.258 . S
O128 Co103 1.941 . S
O128 C135 1.266 . S
H129 C131 0.959 . S
H130 C131 0.961 . S
C131 C121 1.510 . S
C131 H129 0.959 . S
C131 H130 0.961 . S
C131 H132 0.960 . S
H132 C131 0.960 . S
H133 N113 0.862 . S
O134 Co102 1.920 . S
O134 C107 1.289 . S
C135 O127 1.258 . S
C135 O128 1.266 . S
Co136 O139 1.970 . S
Co136 N153 1.989 . S
Co136 O161 1.967 . S
Co136 O168 1.920 . S
Co137 O140 1.966 . S
Co137 N146 2.022 . S
Co137 N154 1.993 . S
Co137 O162 1.941 . S
C138 O139 1.258 . S
C138 O140 1.263 . S
O139 Co136 1.970 . S
O139 C138 1.258 . S
O140 Co137 1.966 . S
O140 C138 1.263 . S
C141 O142 1.235 . S
C141 O168 1.289 . S
O142 C141 1.235 . S
C143 C145 1.400 . S
C143 N146 1.351 . S
C143 C148 1.501 . S
C144 C145 1.387 . S
C144 N147 1.341 . S
C145 C143 1.400 . S
C145 C144 1.387 . S
N146 Co137 2.022 . S
N146 C143 1.351 . S
N146 N147 1.365 . S
N147 C144 1.341 . S
N147 N146 1.365 . S
N147 H167 0.862 . S
C148 C143 1.501 . S
C148 H149 0.961 . S
C148 H150 0.961 . S
C148 H151 0.960 . S
H149 C148 0.961 . S
H150 C148 0.961 . S
H151 C148 0.960 . S
C152 N153 1.342 . S
C152 C156 1.401 . S
C152 C157 1.499 . S
N153 Co136 1.989 . S
N153 C152 1.342 . S
N153 N154 1.388 . S
N154 Co137 1.993 . S
N154 N153 1.388 . S
N154 C155 1.346 . S
C155 N154 1.346 . S
C155 C156 1.396 . S
C155 C165 1.510 . S
C156 C152 1.401 . S
C156 C155 1.396 . S
C157 C152 1.499 . S
C157 H158 0.959 . S
C157 H159 0.960 . S
C157 H160 0.961 . S
H158 C157 0.959 . S
H159 C157 0.960 . S
H160 C157 0.961 . S
O161 Co136 1.967 . S
O161 C169 1.258 . S
O162 Co137 1.941 . S
O162 C169 1.266 . S
H163 C165 0.959 . S
H164 C165 0.961 . S
C165 C155 1.510 . S
C165 H163 0.959 . S
C165 H164 0.961 . S
C165 H166 0.960 . S
H166 C165 0.960 . S
H167 N147 0.862 . S
O168 Co136 1.920 . S
O168 C141 1.289 . S
C169 O161 1.258 . S
C169 O162 1.266 . S
Co170 O173 1.970 . S
Co170 N187 1.989 . S
Co170 O195 1.967 . S
Co170 O202 1.920 . S
Co171 O174 1.966 . S
Co171 N180 2.022 . S
Co171 N188 1.993 . S
Co171 O196 1.941 . S
C172 O173 1.258 . S
C172 O174 1.263 . S
O173 Co170 1.970 . S
O173 C172 1.258 . S
O174 Co171 1.966 . S
O174 C172 1.263 . S
C175 O176 1.235 . S
C175 O202 1.289 . S
O176 C175 1.235 . S
C177 C179 1.400 . S
C177 N180 1.351 . S
C177 C182 1.501 . S
C178 C179 1.387 . S
C178 N181 1.341 . S
C179 C177 1.400 . S
C179 C178 1.387 . S
N180 Co171 2.022 . S
N180 C177 1.351 . S
N180 N181 1.365 . S
N181 C178 1.341 . S
N181 N180 1.365 . S
N181 H201 0.862 . S
C182 C177 1.501 . S
C182 H183 0.961 . S
C182 H184 0.961 . S
C182 H185 0.960 . S
H183 C182 0.961 . S
H184 C182 0.961 . S
H185 C182 0.960 . S
C186 N187 1.342 . S
C186 C190 1.401 . S
C186 C191 1.499 . S
N187 Co170 1.989 . S
N187 C186 1.342 . S
N187 N188 1.388 . S
N188 Co171 1.993 . S
N188 N187 1.388 . S
N188 C189 1.346 . S
C189 N188 1.346 . S
C189 C190 1.396 . S
C189 C199 1.510 . S
C190 C186 1.401 . S
C190 C189 1.396 . S
C191 C186 1.499 . S
C191 H192 0.959 . S
C191 H193 0.960 . S
C191 H194 0.961 . S
H192 C191 0.959 . S
H193 C191 0.960 . S
H194 C191 0.961 . S
O195 Co170 1.967 . S
O195 C203 1.258 . S
O196 Co171 1.941 . S
O196 C203 1.266 . S
H197 C199 0.959 . S
H198 C199 0.961 . S
C199 C189 1.510 . S
C199 H197 0.959 . S
C199 H198 0.961 . S
C199 H200 0.960 . S
H200 C199 0.960 . S
H201 N181 0.862 . S
O202 Co170 1.920 . S
O202 C175 1.289 . S
C203 O195 1.258 . S
C203 O196 1.266 . S
Co204 O207 1.970 . S
Co204 N221 1.989 . S
Co204 O229 1.967 . S
Co204 O236 1.920 . S
Co205 O208 1.966 . S
Co205 N214 2.022 . S
Co205 N222 1.993 . S
Co205 O230 1.941 . S
C206 O207 1.258 . S
C206 O208 1.263 . S
O207 Co204 1.970 . S
O207 C206 1.258 . S
O208 Co205 1.966 . S
O208 C206 1.263 . S
C209 O210 1.235 . S
C209 O236 1.289 . S
O210 C209 1.235 . S
C211 C213 1.400 . S
C211 N214 1.351 . S
C211 C216 1.501 . S
C212 C213 1.387 . S
C212 N215 1.341 . S
C213 C211 1.400 . S
C213 C212 1.387 . S
N214 Co205 2.022 . S
N214 C211 1.351 . S
N214 N215 1.365 . S
N215 C212 1.341 . S
N215 N214 1.365 . S
N215 H235 0.862 . S
C216 C211 1.501 . S
C216 H217 0.961 . S
C216 H218 0.961 . S
C216 H219 0.960 . S
H217 C216 0.961 . S
H218 C216 0.961 . S
H219 C216 0.960 . S
C220 N221 1.342 . S
C220 C224 1.401 . S
C220 C225 1.499 . S
N221 Co204 1.989 . S
N221 C220 1.342 . S
N221 N222 1.388 . S
N222 Co205 1.993 . S
N222 N221 1.388 . S
N222 C223 1.346 . S
C223 N222 1.346 . S
C223 C224 1.396 . S
C223 C233 1.510 . S
C224 C220 1.401 . S
C224 C223 1.396 . S
C225 C220 1.499 . S
C225 H226 0.959 . S
C225 H227 0.960 . S
C225 H228 0.961 . S
H226 C225 0.959 . S
H227 C225 0.960 . S
H228 C225 0.961 . S
O229 Co204 1.967 . S
O229 C237 1.258 . S
O230 Co205 1.941 . S
O230 C237 1.266 . S
H231 C233 0.959 . S
H232 C233 0.961 . S
C233 C223 1.510 . S
C233 H231 0.959 . S
C233 H232 0.961 . S
C233 H234 0.960 . S
H234 C233 0.960 . S
H235 N215 0.862 . S
O236 Co204 1.920 . S
O236 C209 1.289 . S
C237 O229 1.258 . S
C237 O230 1.266 . S
Co238 O241 1.970 . S
Co238 N255 1.989 . S
Co238 O263 1.967 . S
Co238 O270 1.920 1_556 S
Co239 O242 1.966 . S
Co239 N248 2.022 . S
Co239 N256 1.993 . S
Co239 O264 1.941 . S
C240 O241 1.258 . S
C240 O242 1.263 . S
O241 Co238 1.970 . S
O241 C240 1.258 . S
O242 Co239 1.966 . S
O242 C240 1.263 . S
C243 O244 1.235 . S
C243 O270 1.289 . S
O244 C243 1.235 . S
C245 C247 1.400 . S
C245 N248 1.351 . S
C245 C250 1.501 . S
C246 C247 1.387 . S
C246 N249 1.341 . S
C247 C245 1.400 . S
C247 C246 1.387 . S
N248 Co239 2.022 . S
N248 C245 1.351 . S
N248 N249 1.365 . S
N249 C246 1.341 . S
N249 N248 1.365 . S
N249 H269 0.862 . S
C250 C245 1.501 . S
C250 H251 0.961 . S
C250 H252 0.961 . S
C250 H253 0.960 . S
H251 C250 0.961 . S
H252 C250 0.961 . S
H253 C250 0.960 . S
C254 N255 1.342 . S
C254 C258 1.401 . S
C254 C259 1.499 1_556 S
N255 Co238 1.989 . S
N255 C254 1.342 . S
N255 N256 1.388 . S
N256 Co239 1.993 . S
N256 N255 1.388 . S
N256 C257 1.346 . S
C257 N256 1.346 . S
C257 C258 1.396 . S
C257 C267 1.510 . S
C258 C254 1.401 . S
C258 C257 1.396 . S
C259 C254 1.499 1_554 S
C259 H260 0.959 . S
C259 H261 0.960 . S
C259 H262 0.961 . S
H260 C259 0.959 . S
H261 C259 0.960 . S
H262 C259 0.961 . S
O263 Co238 1.967 . S
O263 C271 1.258 . S
O264 Co239 1.941 . S
O264 C271 1.266 . S
H265 C267 0.959 . S
H266 C267 0.961 . S
C267 C257 1.510 . S
C267 H265 0.959 . S
C267 H266 0.961 . S
C267 H268 0.960 . S
H268 C267 0.960 . S
H269 N249 0.862 . S
O270 Co238 1.920 1_554 S
O270 C243 1.289 . S
C271 O263 1.258 . S
C271 O264 1.266 . S
Co272 O275 1.970 . S
Co272 N289 1.989 . S
Co272 O297 1.967 . S
Co272 O304 1.920 . S
Co273 O276 1.966 . S
Co273 N282 2.022 . S
Co273 N290 1.993 . S
Co273 O298 1.941 . S
C274 O275 1.258 . S
C274 O276 1.263 . S
O275 Co272 1.970 . S
O275 C274 1.258 . S
O276 Co273 1.966 . S
O276 C274 1.263 . S
C277 O278 1.235 . S
C277 O304 1.289 . S
O278 C277 1.235 . S
C279 C281 1.400 . S
C279 N282 1.351 . S
C279 C284 1.501 . S
C280 C281 1.387 . S
C280 N283 1.341 . S
C281 C279 1.400 . S
C281 C280 1.387 . S
N282 Co273 2.022 . S
N282 C279 1.351 . S
N282 N283 1.365 . S
N283 C280 1.341 . S
N283 N282 1.365 . S
N283 H303 0.862 . S
C284 C279 1.501 . S
C284 H285 0.961 . S
C284 H286 0.961 . S
C284 H287 0.960 . S
H285 C284 0.961 . S
H286 C284 0.961 . S
H287 C284 0.960 . S
C288 N289 1.342 . S
C288 C292 1.401 . S
C288 C293 1.499 . S
N289 Co272 1.989 . S
N289 C288 1.342 . S
N289 N290 1.388 . S
N290 Co273 1.993 . S
N290 N289 1.388 . S
N290 C291 1.346 . S
C291 N290 1.346 . S
C291 C292 1.396 . S
C291 C301 1.510 . S
C292 C288 1.401 . S
C292 C291 1.396 . S
C293 C288 1.499 . S
C293 H294 0.959 . S
C293 H295 0.960 . S
C293 H296 0.961 . S
H294 C293 0.959 . S
H295 C293 0.960 . S
H296 C293 0.961 . S
O297 Co272 1.967 . S
O297 C305 1.258 . S
O298 Co273 1.941 . S
O298 C305 1.266 . S
H299 C301 0.959 . S
H300 C301 0.961 . S
C301 C291 1.510 . S
C301 H299 0.959 . S
C301 H300 0.961 . S
C301 H302 0.960 . S
H302 C301 0.960 . S
H303 N283 0.862 . S
O304 Co272 1.920 . S
O304 C277 1.289 . S
C305 O297 1.258 . S
C305 O298 1.266 . S
Co306 O309 1.970 . S
Co306 N323 1.989 . S
Co306 O331 1.967 . S
Co306 O338 1.920 . S
Co307 O310 1.966 . S
Co307 N316 2.022 . S
Co307 N324 1.993 . S
Co307 O332 1.941 . S
C308 O309 1.258 . S
C308 O310 1.263 . S
O309 Co306 1.970 . S
O309 C308 1.258 . S
O310 Co307 1.966 . S
O310 C308 1.263 . S
C311 O312 1.235 . S
C311 O338 1.289 . S
O312 C311 1.235 . S
C313 C315 1.400 . S
C313 N316 1.351 . S
C313 C318 1.501 . S
C314 C315 1.387 . S
C314 N317 1.341 . S
C315 C313 1.400 . S
C315 C314 1.387 . S
N316 Co307 2.022 . S
N316 C313 1.351 . S
N316 N317 1.365 . S
N317 C314 1.341 . S
N317 N316 1.365 . S
N317 H337 0.862 . S
C318 C313 1.501 . S
C318 H319 0.961 . S
C318 H320 0.961 . S
C318 H321 0.960 . S
H319 C318 0.961 . S
H320 C318 0.961 . S
H321 C318 0.960 . S
C322 N323 1.342 . S
C322 C326 1.401 . S
C322 C327 1.499 . S
N323 Co306 1.989 . S
N323 C322 1.342 . S
N323 N324 1.388 . S
N324 Co307 1.993 . S
N324 N323 1.388 . S
N324 C325 1.346 . S
C325 N324 1.346 . S
C325 C326 1.396 . S
C325 C335 1.510 . S
C326 C322 1.401 . S
C326 C325 1.396 . S
C327 C322 1.499 . S
C327 H328 0.959 . S
C327 H329 0.960 . S
C327 H330 0.961 . S
H328 C327 0.959 . S
H329 C327 0.960 . S
H330 C327 0.961 . S
O331 Co306 1.967 . S
O331 C339 1.258 . S
O332 Co307 1.941 . S
O332 C339 1.266 . S
H333 C335 0.959 . S
H334 C335 0.961 . S
C335 C325 1.510 . S
C335 H333 0.959 . S
C335 H334 0.961 . S
C335 H336 0.960 . S
H336 C335 0.960 . S
H337 N317 0.862 . S
O338 Co306 1.920 . S
O338 C311 1.289 . S
C339 O331 1.258 . S
C339 O332 1.266 . S
Co340 O343 1.970 . S
Co340 N357 1.989 . S
Co340 O365 1.967 . S
Co340 O372 1.920 . S
Co341 O344 1.966 . S
Co341 N350 2.022 . S
Co341 N358 1.993 . S
Co341 O366 1.941 . S
C342 O343 1.258 . S
C342 O344 1.263 . S
O343 Co340 1.970 . S
O343 C342 1.258 . S
O344 Co341 1.966 . S
O344 C342 1.263 . S
C345 O346 1.235 . S
C345 O372 1.289 . S
O346 C345 1.235 . S
C347 C349 1.400 . S
C347 N350 1.351 . S
C347 C352 1.501 . S
C348 C349 1.387 . S
C348 N351 1.341 . S
C349 C347 1.400 . S
C349 C348 1.387 . S
N350 Co341 2.022 . S
N350 C347 1.351 . S
N350 N351 1.365 . S
N351 C348 1.341 . S
N351 N350 1.365 . S
N351 H371 0.862 . S
C352 C347 1.501 . S
C352 H353 0.961 . S
C352 H354 0.961 . S
C352 H355 0.960 . S
H353 C352 0.961 . S
H354 C352 0.961 . S
H355 C352 0.960 . S
C356 N357 1.342 . S
C356 C360 1.401 . S
C356 C361 1.499 . S
N357 Co340 1.989 . S
N357 C356 1.342 . S
N357 N358 1.388 . S
N358 Co341 1.993 . S
N358 N357 1.388 . S
N358 C359 1.346 . S
C359 N358 1.346 . S
C359 C360 1.396 . S
C359 C369 1.510 . S
C360 C356 1.401 . S
C360 C359 1.396 . S
C361 C356 1.499 . S
C361 H362 0.959 . S
C361 H363 0.960 . S
C361 H364 0.961 . S
H362 C361 0.959 . S
H363 C361 0.960 . S
H364 C361 0.961 . S
O365 Co340 1.967 . S
O365 C373 1.258 . S
O366 Co341 1.941 . S
O366 C373 1.266 . S
H367 C369 0.959 . S
H368 C369 0.961 . S
C369 C359 1.510 . S
C369 H367 0.959 . S
C369 H368 0.961 . S
C369 H370 0.960 . S
H370 C369 0.960 . S
H371 N351 0.862 . S
O372 Co340 1.920 . S
O372 C345 1.289 . S
C373 O365 1.258 . S
C373 O366 1.266 . S
Co374 O377 1.970 . S
Co374 N391 1.989 . S
Co374 O399 1.967 . S
Co374 O406 1.920 . S
Co375 O378 1.966 . S
Co375 N384 2.022 . S
Co375 N392 1.993 . S
Co375 O400 1.941 . S
C376 O377 1.258 . S
C376 O378 1.263 . S
O377 Co374 1.970 . S
O377 C376 1.258 . S
O378 Co375 1.966 . S
O378 C376 1.263 . S
C379 O380 1.235 . S
C379 O406 1.289 . S
O380 C379 1.235 . S
C381 C383 1.400 . S
C381 N384 1.351 . S
C381 C386 1.501 . S
C382 C383 1.387 . S
C382 N385 1.341 . S
C383 C381 1.400 . S
C383 C382 1.387 . S
N384 Co375 2.022 . S
N384 C381 1.351 . S
N384 N385 1.365 . S
N385 C382 1.341 . S
N385 N384 1.365 . S
N385 H405 0.862 . S
C386 C381 1.501 . S
C386 H387 0.961 . S
C386 H388 0.961 . S
C386 H389 0.960 . S
H387 C386 0.961 . S
H388 C386 0.961 . S
H389 C386 0.960 . S
C390 N391 1.342 . S
C390 C394 1.401 . S
C390 C395 1.499 . S
N391 Co374 1.989 . S
N391 C390 1.342 . S
N391 N392 1.388 . S
N392 Co375 1.993 . S
N392 N391 1.388 . S
N392 C393 1.346 . S
C393 N392 1.346 . S
C393 C394 1.396 . S
C393 C403 1.510 . S
C394 C390 1.401 . S
C394 C393 1.396 . S
C395 C390 1.499 . S
C395 H396 0.959 . S
C395 H397 0.960 . S
C395 H398 0.961 . S
H396 C395 0.959 . S
H397 C395 0.960 . S
H398 C395 0.961 . S
O399 Co374 1.967 . S
O399 C407 1.258 . S
O400 Co375 1.941 . S
O400 C407 1.266 . S
H401 C403 0.959 . S
H402 C403 0.961 . S
C403 C393 1.510 . S
C403 H401 0.959 . S
C403 H402 0.961 . S
C403 H404 0.960 . S
H404 C403 0.960 . S
H405 N385 0.862 . S
O406 Co374 1.920 . S
O406 C379 1.289 . S
C407 O399 1.258 . S
C407 O400 1.266 . S
H408 C416 0.929 . S
H409 C418 0.930 . S
H410 C420 0.930 . S
H411 C423 0.929 . S
H412 C426 0.930 . S
H413 C428 0.960 . S
H414 C428 0.960 . S
H415 C428 0.960 . S
C416 H408 0.929 . S
C416 C417 1.377 . S
C416 C418 1.384 . S
C417 C416 1.377 . S
C417 C423 1.390 . S
C418 H409 0.930 . S
C418 C416 1.384 . S
C418 C419 1.372 . S
C419 C418 1.372 . S
C419 C420 1.400 . S
C419 C424 1.490 . S
C420 H410 0.930 . S
C420 C419 1.400 . S
C420 C423 1.386 . S
H421 C437 0.930 . S
H422 C438 0.931 . S
C423 H411 0.929 . S
C423 C417 1.390 . S
C423 C420 1.386 . S
C424 C419 1.490 . S
C424 C426 1.395 . S
C424 C427 1.403 . S
H425 C431 0.930 . S
C426 H412 0.930 . S
C426 C424 1.395 . S
C426 C429 1.403 . S
C427 C424 1.403 . S
C427 C428 1.524 . S
C427 C431 1.400 . S
C428 H413 0.960 . S
C428 H414 0.960 . S
C428 H415 0.960 . S
C428 C427 1.524 . S
C429 C426 1.403 . S
C429 C430 1.392 . S
C429 C433 1.495 . S
C430 C429 1.392 . S
C430 C431 1.385 . S
C430 C432 1.478 . S
C431 H425 0.930 . S
C431 C427 1.400 . S
C431 C430 1.385 . S
C432 C430 1.478 . S
C432 C434 1.381 . S
C432 C438 1.383 . S
C433 C429 1.495 . S
C433 H439 0.959 . S
C433 H440 0.961 . S
C433 H441 0.960 . S
C434 C432 1.381 . S
C434 C435 1.394 . S
C434 H442 0.930 . S
C435 C434 1.394 . S
C435 C436 1.383 . S
C435 H443 0.929 . S
C436 C435 1.383 . S
C436 C437 1.377 . S
C437 H421 0.930 . S
C437 C436 1.377 . S
C437 C438 1.379 . S
C438 H422 0.931 . S
C438 C432 1.383 . S
C438 C437 1.379 . S
H439 C433 0.959 . S
H440 C433 0.961 . S
H441 C433 0.960 . S
H442 C434 0.930 . S
H443 C435 0.929 . S
H444 C452 0.929 . S
H445 C454 0.930 . S
H446 C456 0.930 . S
H447 C459 0.929 . S
H448 C462 0.930 . S
H449 C464 0.960 . S
H450 C464 0.960 . S
H451 C464 0.960 . S
C452 H444 0.929 . S
C452 C453 1.377 . S
C452 C454 1.384 . S
C453 C452 1.377 . S
C453 C459 1.390 . S
C454 H445 0.930 . S
C454 C452 1.384 . S
C454 C455 1.372 . S
C455 C454 1.372 . S
C455 C456 1.400 . S
C455 C460 1.490 . S
C456 H446 0.930 . S
C456 C455 1.400 . S
C456 C459 1.386 . S
H457 C473 0.930 . S
H458 C474 0.931 . S
C459 H447 0.929 . S
C459 C453 1.390 . S
C459 C456 1.386 . S
C460 C455 1.490 . S
C460 C462 1.395 . S
C460 C463 1.403 . S
H461 C467 0.930 . S
C462 H448 0.930 . S
C462 C460 1.395 . S
C462 C465 1.403 . S
C463 C460 1.403 . S
C463 C464 1.524 . S
C463 C467 1.400 . S
C464 H449 0.960 . S
C464 H450 0.960 . S
C464 H451 0.960 . S
C464 C463 1.524 . S
C465 C462 1.403 . S
C465 C466 1.392 . S
C465 C469 1.495 . S
C466 C465 1.392 . S
C466 C467 1.385 . S
C466 C468 1.478 . S
C467 H461 0.930 . S
C467 C463 1.400 . S
C467 C466 1.385 . S
C468 C466 1.478 . S
C468 C470 1.381 . S
C468 C474 1.383 . S
C469 C465 1.495 . S
C469 H475 0.959 . S
C469 H476 0.961 . S
C469 H477 0.960 . S
C470 C468 1.381 . S
C470 C471 1.394 . S
C470 H478 0.930 . S
C471 C470 1.394 . S
C471 C472 1.383 . S
C471 H479 0.929 . S
C472 C471 1.383 . S
C472 C473 1.377 . S
C473 H457 0.930 . S
C473 C472 1.377 . S
C473 C474 1.379 . S
C474 H458 0.931 . S
C474 C468 1.383 . S
C474 C473 1.379 . S
H475 C469 0.959 . S
H476 C469 0.961 . S
H477 C469 0.960 . S
H478 C470 0.930 . S
H479 C471 0.929 . S
H480 C488 0.929 . S
H481 C490 0.930 . S
H482 C492 0.930 . S
H483 C495 0.929 . S
H484 C498 0.930 . S
H485 C500 0.960 . S
H486 C500 0.960 . S
H487 C500 0.960 . S
C488 H480 0.929 . S
C488 C489 1.377 . S
C488 C490 1.384 . S
C489 C488 1.377 . S
C489 C495 1.390 . S
C490 H481 0.930 . S
C490 C488 1.384 . S
C490 C491 1.372 . S
C491 C490 1.372 . S
C491 C492 1.400 . S
C491 C496 1.490 . S
C492 H482 0.930 . S
C492 C491 1.400 . S
C492 C495 1.386 . S
H493 C509 0.930 . S
H494 C510 0.931 . S
C495 H483 0.929 . S
C495 C489 1.390 . S
C495 C492 1.386 . S
C496 C491 1.490 . S
C496 C498 1.395 . S
C496 C499 1.403 . S
H497 C503 0.930 . S
C498 H484 0.930 . S
C498 C496 1.395 . S
C498 C501 1.403 . S
C499 C496 1.403 . S
C499 C500 1.524 . S
C499 C503 1.400 . S
C500 H485 0.960 . S
C500 H486 0.960 . S
C500 H487 0.960 . S
C500 C499 1.524 . S
C501 C498 1.403 . S
C501 C502 1.392 . S
C501 C505 1.495 . S
C502 C501 1.392 . S
C502 C503 1.385 . S
C502 C504 1.478 . S
C503 H497 0.930 . S
C503 C499 1.400 . S
C503 C502 1.385 . S
C504 C502 1.478 . S
C504 C506 1.381 . S
C504 C510 1.383 . S
C505 C501 1.495 . S
C505 H511 0.959 . S
C505 H512 0.961 . S
C505 H513 0.960 . S
C506 C504 1.381 . S
C506 C507 1.394 . S
C506 H514 0.930 . S
C507 C506 1.394 . S
C507 C508 1.383 . S
C507 H515 0.929 . S
C508 C507 1.383 . S
C508 C509 1.377 . S
C509 H493 0.930 . S
C509 C508 1.377 . S
C509 C510 1.379 . S
C510 H494 0.931 . S
C510 C504 1.383 . S
C510 C509 1.379 . S
H511 C505 0.959 . S
H512 C505 0.961 . S
H513 C505 0.960 . S
H514 C506 0.930 . S
H515 C507 0.929 . S
H516 C524 0.929 . S
H517 C526 0.930 . S
H518 C528 0.930 . S
H519 C531 0.929 . S
H520 C534 0.930 . S
H521 C536 0.960 . S
H522 C536 0.960 . S
H523 C536 0.960 . S
C524 H516 0.929 . S
C524 C525 1.377 . S
C524 C526 1.384 . S
C525 C524 1.377 . S
C525 C531 1.390 . S
C526 H517 0.930 . S
C526 C524 1.384 . S
C526 C527 1.372 . S
C527 C526 1.372 . S
C527 C528 1.400 . S
C527 C532 1.490 . S
C528 H518 0.930 . S
C528 C527 1.400 . S
C528 C531 1.386 . S
H529 C545 0.930 . S
H530 C546 0.931 . S
C531 H519 0.929 . S
C531 C525 1.390 . S
C531 C528 1.386 . S
C532 C527 1.490 . S
C532 C534 1.395 . S
C532 C535 1.403 . S
H533 C539 0.930 . S
C534 H520 0.930 . S
C534 C532 1.395 . S
C534 C537 1.403 . S
C535 C532 1.403 . S
C535 C536 1.524 . S
C535 C539 1.400 . S
C536 H521 0.960 . S
C536 H522 0.960 . S
C536 H523 0.960 . S
C536 C535 1.524 . S
C537 C534 1.403 . S
C537 C538 1.392 . S
C537 C541 1.495 . S
C538 C537 1.392 . S
C538 C539 1.385 . S
C538 C540 1.478 . S
C539 H533 0.930 . S
C539 C535 1.400 . S
C539 C538 1.385 . S
C540 C538 1.478 . S
C540 C542 1.381 . S
C540 C546 1.383 . S
C541 C537 1.495 . S
C541 H547 0.959 . S
C541 H548 0.961 . S
C541 H549 0.960 . S
C542 C540 1.381 . S
C542 C543 1.394 . S
C542 H550 0.930 . S
C543 C542 1.394 . S
C543 C544 1.383 . S
C543 H551 0.929 . S
C544 C543 1.383 . S
C544 C545 1.377 . S
C545 H529 0.930 . S
C545 C544 1.377 . S
C545 C546 1.379 . S
C546 H530 0.931 . S
C546 C540 1.383 . S
C546 C545 1.379 . S
H547 C541 0.959 . S
H548 C541 0.961 . S
H549 C541 0.960 . S
H550 C542 0.930 . S
H551 C543 0.929 . S
H552 C560 0.929 . S
H553 C562 0.930 . S
H554 C564 0.930 . S
H555 C567 0.929 . S
H556 C570 0.930 . S
H557 C572 0.960 . S
H558 C572 0.960 . S
H559 C572 0.960 . S
C560 H552 0.929 . S
C560 C561 1.377 . S
C560 C562 1.384 . S
C561 C560 1.377 . S
C561 C567 1.390 . S
C562 H553 0.930 . S
C562 C560 1.384 . S
C562 C563 1.372 . S
C563 C562 1.372 . S
C563 C564 1.400 . S
C563 C568 1.490 . S
C564 H554 0.930 . S
C564 C563 1.400 . S
C564 C567 1.386 . S
H565 C581 0.930 . S
H566 C582 0.931 . S
C567 H555 0.929 . S
C567 C561 1.390 . S
C567 C564 1.386 . S
C568 C563 1.490 . S
C568 C570 1.395 . S
C568 C571 1.403 . S
H569 C575 0.930 . S
C570 H556 0.930 . S
C570 C568 1.395 . S
C570 C573 1.403 . S
C571 C568 1.403 . S
C571 C572 1.524 . S
C571 C575 1.400 . S
C572 H557 0.960 . S
C572 H558 0.960 . S
C572 H559 0.960 . S
C572 C571 1.524 . S
C573 C570 1.403 . S
C573 C574 1.392 . S
C573 C577 1.495 . S
C574 C573 1.392 . S
C574 C575 1.385 . S
C574 C576 1.478 . S
C575 H569 0.930 . S
C575 C571 1.400 . S
C575 C574 1.385 . S
C576 C574 1.478 . S
C576 C578 1.381 . S
C576 C582 1.383 . S
C577 C573 1.495 . S
C577 H583 0.959 . S
C577 H584 0.961 . S
C577 H585 0.960 . S
C578 C576 1.381 . S
C578 C579 1.394 1_556 S
C578 H586 0.930 . S
C579 C578 1.394 1_554 S
C579 C580 1.383 . S
C579 H587 0.929 . S
C580 C579 1.383 . S
C580 C581 1.377 1_554 S
C581 H565 0.930 . S
C581 C580 1.377 1_556 S
C581 C582 1.379 . S
C582 H566 0.931 . S
C582 C576 1.383 . S
C582 C581 1.379 . S
H583 C577 0.959 . S
H584 C577 0.961 . S
H585 C577 0.960 . S
H586 C578 0.930 . S
H587 C579 0.929 . S
H588 C596 0.929 . S
H589 C598 0.930 . S
H590 C600 0.930 . S
H591 C603 0.929 . S
H592 C606 0.930 . S
H593 C608 0.960 . S
H594 C608 0.960 . S
H595 C608 0.960 . S
C596 H588 0.929 . S
C596 C597 1.377 . S
C596 C598 1.384 1_556 S
C597 C596 1.377 . S
C597 C603 1.390 1_556 S
C598 H589 0.930 . S
C598 C596 1.384 1_554 S
C598 C599 1.372 . S
C599 C598 1.372 . S
C599 C600 1.400 . S
C599 C604 1.490 . S
C600 H590 0.930 . S
C600 C599 1.400 . S
C600 C603 1.386 . S
H601 C617 0.930 . S
H602 C618 0.931 . S
C603 H591 0.929 . S
C603 C597 1.390 1_554 S
C603 C600 1.386 . S
C604 C599 1.490 . S
C604 C606 1.395 . S
C604 C607 1.403 . S
H605 C611 0.930 . S
C606 H592 0.930 . S
C606 C604 1.395 . S
C606 C609 1.403 . S
C607 C604 1.403 . S
C607 C608 1.524 . S
C607 C611 1.400 . S
C608 H593 0.960 . S
C608 H594 0.960 . S
C608 H595 0.960 . S
C608 C607 1.524 . S
C609 C606 1.403 . S
C609 C610 1.392 . S
C609 C613 1.495 . S
C610 C609 1.392 . S
C610 C611 1.385 . S
C610 C612 1.478 . S
C611 H605 0.930 . S
C611 C607 1.400 . S
C611 C610 1.385 . S
C612 C610 1.478 . S
C612 C614 1.381 . S
C612 C618 1.383 . S
C613 C609 1.495 . S
C613 H619 0.959 . S
C613 H620 0.961 . S
C613 H621 0.960 . S
C614 C612 1.381 . S
C614 C615 1.394 . S
C614 H622 0.930 . S
C615 C614 1.394 . S
C615 C616 1.383 . S
C615 H623 0.929 . S
C616 C615 1.383 . S
C616 C617 1.377 . S
C617 H601 0.930 . S
C617 C616 1.377 . S
C617 C618 1.379 . S
C618 H602 0.931 . S
C618 C612 1.383 . S
C618 C617 1.379 . S
H619 C613 0.959 . S
H620 C613 0.961 . S
H621 C613 0.960 . S
H622 C614 0.930 . S
H623 C615 0.929 . S
H624 C632 0.929 . S
H625 C634 0.930 . S
H626 C636 0.930 . S
H627 C639 0.929 . S
H628 C642 0.930 . S
H629 C644 0.960 . S
H630 C644 0.960 . S
H631 C644 0.960 . S
C632 H624 0.929 . S
C632 C633 1.377 . S
C632 C634 1.384 . S
C633 C632 1.377 . S
C633 C639 1.390 . S
C634 H625 0.930 . S
C634 C632 1.384 . S
C634 C635 1.372 . S
C635 C634 1.372 . S
C635 C636 1.400 . S
C635 C640 1.490 . S
C636 H626 0.930 . S
C636 C635 1.400 . S
C636 C639 1.386 . S
H637 C653 0.930 . S
H638 C654 0.931 . S
C639 H627 0.929 . S
C639 C633 1.390 . S
C639 C636 1.386 . S
C640 C635 1.490 . S
C640 C642 1.395 . S
C640 C643 1.403 . S
H641 C647 0.930 . S
C642 H628 0.930 . S
C642 C640 1.395 . S
C642 C645 1.403 . S
C643 C640 1.403 . S
C643 C644 1.524 . S
C643 C647 1.400 . S
C644 H629 0.960 . S
C644 H630 0.960 . S
C644 H631 0.960 . S
C644 C643 1.524 . S
C645 C642 1.403 . S
C645 C646 1.392 . S
C645 C649 1.495 . S
C646 C645 1.392 . S
C646 C647 1.385 . S
C646 C648 1.478 . S
C647 H641 0.930 . S
C647 C643 1.400 . S
C647 C646 1.385 . S
C648 C646 1.478 . S
C648 C650 1.381 . S
C648 C654 1.383 . S
C649 C645 1.495 . S
C649 H655 0.959 . S
C649 H656 0.961 . S
C649 H657 0.960 . S
C650 C648 1.381 . S
C650 C651 1.394 . S
C650 H658 0.930 . S
C651 C650 1.394 . S
C651 C652 1.383 . S
C651 H659 0.929 . S
C652 C651 1.383 . S
C652 C653 1.377 . S
C653 H637 0.930 . S
C653 C652 1.377 . S
C653 C654 1.379 . S
C654 H638 0.931 . S
C654 C648 1.383 . S
C654 C653 1.379 . S
H655 C649 0.959 . S
H656 C649 0.961 . S
H657 C649 0.960 . S
H658 C650 0.930 . S
H659 C651 0.929 . S
H660 C668 0.929 . S
H661 C670 0.930 . S
H662 C672 0.930 . S
H663 C675 0.929 . S
H664 C678 0.930 . S
H665 C680 0.960 . S
H666 C680 0.960 . S
H667 C680 0.960 . S
C668 H660 0.929 . S
C668 C669 1.377 . S
C668 C670 1.384 . S
C669 C668 1.377 . S
C669 C675 1.390 . S
C670 H661 0.930 . S
C670 C668 1.384 . S
C670 C671 1.372 . S
C671 C670 1.372 . S
C671 C672 1.400 . S
C671 C676 1.490 . S
C672 H662 0.930 . S
C672 C671 1.400 . S
C672 C675 1.386 . S
H673 C689 0.930 . S
H674 C690 0.931 . S
C675 H663 0.929 . S
C675 C669 1.390 . S
C675 C672 1.386 . S
C676 C671 1.490 . S
C676 C678 1.395 . S
C676 C679 1.403 . S
H677 C683 0.930 . S
C678 H664 0.930 . S
C678 C676 1.395 . S
C678 C681 1.403 . S
C679 C676 1.403 . S
C679 C680 1.524 . S
C679 C683 1.400 . S
C680 H665 0.960 . S
C680 H666 0.960 . S
C680 H667 0.960 . S
C680 C679 1.524 . S
C681 C678 1.403 . S
C681 C682 1.392 . S
C681 C685 1.495 . S
C682 C681 1.392 . S
C682 C683 1.385 . S
C682 C684 1.478 . S
C683 H677 0.930 . S
C683 C679 1.400 . S
C683 C682 1.385 . S
C684 C682 1.478 . S
C684 C686 1.381 . S
C684 C690 1.383 . S
C685 C681 1.495 . S
C685 H691 0.959 . S
C685 H692 0.961 . S
C685 H693 0.960 . S
C686 C684 1.381 . S
C686 C687 1.394 . S
C686 H694 0.930 . S
C687 C686 1.394 . S
C687 C688 1.383 . S
C687 H695 0.929 . S
C688 C687 1.383 . S
C688 C689 1.377 . S
C689 H673 0.930 . S
C689 C688 1.377 . S
C689 C690 1.379 . S
C690 H674 0.931 . S
C690 C684 1.383 . S
C690 C689 1.379 . S
H691 C685 0.959 . S
H692 C685 0.961 . S
H693 C685 0.960 . S
H694 C686 0.930 . S
H695 C687 0.929 . S
H696 C704 0.929 . S
H697 C706 0.930 . S
H698 C708 0.930 . S
H699 C711 0.929 . S
H700 C714 0.930 . S
H701 C716 0.960 . S
H702 C716 0.960 . S
H703 C716 0.960 . S
C704 H696 0.929 . S
C704 C705 1.377 . S
C704 C706 1.384 . S
C705 C704 1.377 . S
C705 C711 1.390 . S
C706 H697 0.930 . S
C706 C704 1.384 . S
C706 C707 1.372 . S
C707 C706 1.372 . S
C707 C708 1.400 . S
C707 C712 1.490 . S
C708 H698 0.930 . S
C708 C707 1.400 . S
C708 C711 1.386 . S
H709 C725 0.930 . S
H710 C726 0.931 . S
C711 H699 0.929 . S
C711 C705 1.390 . S
C711 C708 1.386 . S
C712 C707 1.490 . S
C712 C714 1.395 . S
C712 C715 1.403 . S
H713 C719 0.930 . S
C714 H700 0.930 . S
C714 C712 1.395 . S
C714 C717 1.403 . S
C715 C712 1.403 . S
C715 C716 1.524 . S
C715 C719 1.400 . S
C716 H701 0.960 . S
C716 H702 0.960 . S
C716 H703 0.960 . S
C716 C715 1.524 . S
C717 C714 1.403 . S
C717 C718 1.392 . S
C717 C721 1.495 . S
C718 C717 1.392 . S
C718 C719 1.385 . S
C718 C720 1.478 . S
C719 H713 0.930 . S
C719 C715 1.400 . S
C719 C718 1.385 . S
C720 C718 1.478 . S
C720 C722 1.381 . S
C720 C726 1.383 . S
C721 C717 1.495 . S
C721 H727 0.959 . S
C721 H728 0.961 . S
C721 H729 0.960 . S
C722 C720 1.381 . S
C722 C723 1.394 . S
C722 H730 0.930 . S
C723 C722 1.394 . S
C723 C724 1.383 . S
C723 H731 0.929 . S
C724 C723 1.383 . S
C724 C725 1.377 . S
C725 H709 0.930 . S
C725 C724 1.377 . S
C725 C726 1.379 . S
C726 H710 0.931 . S
C726 C720 1.383 . S
C726 C725 1.379 . S
H727 C721 0.959 . S
H728 C721 0.961 . S
H729 C721 0.960 . S
H730 C722 0.930 . S
H731 C723 0.929 . S
H732 C740 0.929 . S
H733 C742 0.930 . S
H734 C744 0.930 . S
H735 C747 0.929 . S
H736 C750 0.930 . S
H737 C752 0.960 . S
H738 C752 0.960 . S
H739 C752 0.960 . S
C740 H732 0.929 . S
C740 C741 1.377 . S
C740 C742 1.384 . S
C741 C740 1.377 . S
C741 C747 1.390 . S
C742 H733 0.930 . S
C742 C740 1.384 . S
C742 C743 1.372 . S
C743 C742 1.372 . S
C743 C744 1.400 . S
C743 C748 1.490 . S
C744 H734 0.930 . S
C744 C743 1.400 . S
C744 C747 1.386 . S
H745 C761 0.930 . S
H746 C762 0.931 . S
C747 H735 0.929 . S
C747 C741 1.390 . S
C747 C744 1.386 . S
C748 C743 1.490 . S
C748 C750 1.395 . S
C748 C751 1.403 . S
H749 C755 0.930 . S
C750 H736 0.930 . S
C750 C748 1.395 . S
C750 C753 1.403 . S
C751 C748 1.403 . S
C751 C752 1.524 . S
C751 C755 1.400 . S
C752 H737 0.960 . S
C752 H738 0.960 . S
C752 H739 0.960 . S
C752 C751 1.524 . S
C753 C750 1.403 . S
C753 C754 1.392 . S
C753 C757 1.495 . S
C754 C753 1.392 . S
C754 C755 1.385 . S
C754 C756 1.478 . S
C755 H749 0.930 . S
C755 C751 1.400 . S
C755 C754 1.385 . S
C756 C754 1.478 . S
C756 C758 1.381 . S
C756 C762 1.383 . S
C757 C753 1.495 . S
C757 H763 0.959 . S
C757 H764 0.961 . S
C757 H765 0.960 . S
C758 C756 1.381 . S
C758 C759 1.394 . S
C758 H766 0.930 . S
C759 C758 1.394 . S
C759 C760 1.383 . S
C759 H767 0.929 . S
C760 C759 1.383 . S
C760 C761 1.377 . S
C761 H745 0.930 . S
C761 C760 1.377 . S
C761 C762 1.379 . S
C762 H746 0.931 . S
C762 C756 1.383 . S
C762 C761 1.379 . S
H763 C757 0.959 . S
H764 C757 0.961 . S
H765 C757 0.960 . S
H766 C758 0.930 . S
H767 C759 0.929 . S
H768 C776 0.929 . S
H769 C778 0.930 . S
H770 C780 0.930 . S
H771 C783 0.929 . S
H772 C786 0.930 . S
H773 C788 0.960 . S
H774 C788 0.960 . S
H775 C788 0.960 . S
C776 H768 0.929 . S
C776 C777 1.377 . S
C776 C778 1.384 . S
C777 C776 1.377 . S
C777 C783 1.390 . S
C778 H769 0.930 . S
C778 C776 1.384 . S
C778 C779 1.372 . S
C779 C778 1.372 . S
C779 C780 1.400 . S
C779 C784 1.490 . S
C780 H770 0.930 . S
C780 C779 1.400 . S
C780 C783 1.386 . S
H781 C797 0.930 . S
H782 C798 0.931 . S
C783 H771 0.929 . S
C783 C777 1.390 . S
C783 C780 1.386 . S
C784 C779 1.490 . S
C784 C786 1.395 . S
C784 C787 1.403 . S
H785 C791 0.930 . S
C786 H772 0.930 . S
C786 C784 1.395 . S
C786 C789 1.403 . S
C787 C784 1.403 . S
C787 C788 1.524 . S
C787 C791 1.400 . S
C788 H773 0.960 . S
C788 H774 0.960 . S
C788 H775 0.960 . S
C788 C787 1.524 . S
C789 C786 1.403 . S
C789 C790 1.392 . S
C789 C793 1.495 . S
C790 C789 1.392 . S
C790 C791 1.385 . S
C790 C792 1.478 . S
C791 H785 0.930 . S
C791 C787 1.400 . S
C791 C790 1.385 . S
C792 C790 1.478 . S
C792 C794 1.381 . S
C792 C798 1.383 . S
C793 C789 1.495 . S
C793 H799 0.959 . S
C793 H800 0.961 . S
C793 H801 0.960 . S
C794 C792 1.381 . S
C794 C795 1.394 . S
C794 H802 0.930 . S
C795 C794 1.394 . S
C795 C796 1.383 . S
C795 H803 0.929 . S
C796 C795 1.383 . S
C796 C797 1.377 . S
C797 H781 0.930 . S
C797 C796 1.377 . S
C797 C798 1.379 . S
C798 H782 0.931 . S
C798 C792 1.383 . S
C798 C797 1.379 . S
H799 C793 0.959 . S
H800 C793 0.961 . S
H801 C793 0.960 . S
H802 C794 0.930 . S
H803 C795 0.929 . S
H804 C812 0.929 . S
H805 C814 0.930 . S
H806 C816 0.930 . S
H807 C819 0.929 . S
H808 C822 0.930 . S
H809 C824 0.960 . S
H810 C824 0.960 . S
H811 C824 0.960 . S
C812 H804 0.929 . S
C812 C813 1.377 . S
C812 C814 1.384 . S
C813 C812 1.377 . S
C813 C819 1.390 . S
C814 H805 0.930 . S
C814 C812 1.384 . S
C814 C815 1.372 . S
C815 C814 1.372 . S
C815 C816 1.400 . S
C815 C820 1.490 . S
C816 H806 0.930 . S
C816 C815 1.400 . S
C816 C819 1.386 . S
H817 C833 0.930 . S
H818 C834 0.931 . S
C819 H807 0.929 . S
C819 C813 1.390 . S
C819 C816 1.386 . S
C820 C815 1.490 . S
C820 C822 1.395 . S
C820 C823 1.403 . S
H821 C827 0.930 . S
C822 H808 0.930 . S
C822 C820 1.395 . S
C822 C825 1.403 . S
C823 C820 1.403 . S
C823 C824 1.524 . S
C823 C827 1.400 . S
C824 H809 0.960 . S
C824 H810 0.960 . S
C824 H811 0.960 . S
C824 C823 1.524 . S
C825 C822 1.403 . S
C825 C826 1.392 . S
C825 C829 1.495 . S
C826 C825 1.392 . S
C826 C827 1.385 . S
C826 C828 1.478 . S
C827 H821 0.930 . S
C827 C823 1.400 . S
C827 C826 1.385 . S
C828 C826 1.478 . S
C828 C830 1.381 . S
C828 C834 1.383 . S
C829 C825 1.495 . S
C829 H835 0.959 . S
C829 H836 0.961 . S
C829 H837 0.960 . S
C830 C828 1.381 . S
C830 C831 1.394 . S
C830 H838 0.930 . S
C831 C830 1.394 . S
C831 C832 1.383 . S
C831 H839 0.929 . S
C832 C831 1.383 . S
C832 C833 1.377 . S
C833 H817 0.930 . S
C833 C832 1.377 . S
C833 C834 1.379 . S
C834 H818 0.931 . S
C834 C828 1.383 . S
C834 C833 1.379 . S
H835 C829 0.959 . S
H836 C829 0.961 . S
H837 C829 0.960 . S
H838 C830 0.930 . S
H839 C831 0.929 . S
H840 C848 0.929 1_455 S
H841 C850 0.930 . S
H842 C852 0.930 . S
H843 C855 0.929 . S
H844 C858 0.930 . S
H845 C860 0.960 . S
H846 C860 0.960 . S
H847 C860 0.960 . S
C848 H840 0.929 1_655 S
C848 C849 1.377 . S
C848 C850 1.384 1_655 S
C849 C848 1.377 . S
C849 C855 1.390 . S
C850 H841 0.930 . S
C850 C848 1.384 1_455 S
C850 C851 1.372 1_455 S
C851 C850 1.372 1_655 S
C851 C852 1.400 . S
C851 C856 1.490 . S
C852 H842 0.930 . S
C852 C851 1.400 . S
C852 C855 1.386 . S
H853 C869 0.930 1_655 S
H854 C870 0.931 1_655 S
C855 H843 0.929 . S
C855 C849 1.390 . S
C855 C852 1.386 . S
C856 C851 1.490 . S
C856 C858 1.395 1_655 S
C856 C859 1.403 . S
H857 C863 0.930 . S
C858 H844 0.930 . S
C858 C856 1.395 1_455 S
C858 C861 1.403 . S
C859 C856 1.403 . S
C859 C860 1.524 . S
C859 C863 1.400 . S
C860 H845 0.960 . S
C860 H846 0.960 . S
C860 H847 0.960 . S
C860 C859 1.524 . S
C861 C858 1.403 . S
C861 C862 1.392 . S
C861 C865 1.495 . S
C862 C861 1.392 . S
C862 C863 1.385 1_455 S
C862 C864 1.478 . S
C863 H857 0.930 . S
C863 C859 1.400 . S
C863 C862 1.385 1_655 S
C864 C862 1.478 . S
C864 C866 1.381 . S
C864 C870 1.383 . S
C865 C861 1.495 . S
C865 H871 0.959 . S
C865 H872 0.961 . S
C865 H873 0.960 . S
C866 C864 1.381 . S
C866 C867 1.394 . S
C866 H874 0.930 . S
C867 C866 1.394 . S
C867 C868 1.383 . S
C867 H875 0.929 . S
C868 C867 1.383 . S
C868 C869 1.377 . S
C869 H853 0.930 1_455 S
C869 C868 1.377 . S
C869 C870 1.379 . S
C870 H854 0.931 1_455 S
C870 C864 1.383 . S
C870 C869 1.379 . S
H871 C865 0.959 . S
H872 C865 0.961 . S
H873 C865 0.960 . S
H874 C866 0.930 . S
H875 C867 0.929 . S
H876 C884 0.929 . S
H877 C886 0.930 . S
H878 C888 0.930 . S
H879 C891 0.929 . S
H880 C894 0.930 . S
H881 C896 0.960 . S
H882 C896 0.960 . S
H883 C896 0.960 . S
C884 H876 0.929 . S
C884 C885 1.377 . S
C884 C886 1.384 . S
C885 C884 1.377 . S
C885 C891 1.390 . S
C886 H877 0.930 . S
C886 C884 1.384 . S
C886 C887 1.372 . S
C887 C886 1.372 . S
C887 C888 1.400 . S
C887 C892 1.490 . S
C888 H878 0.930 . S
C888 C887 1.400 . S
C888 C891 1.386 . S
H889 C905 0.930 . S
H890 C906 0.931 . S
C891 H879 0.929 . S
C891 C885 1.390 . S
C891 C888 1.386 . S
C892 C887 1.490 . S
C892 C894 1.395 . S
C892 C895 1.403 1_565 S
H893 C899 0.930 . S
C894 H880 0.930 . S
C894 C892 1.395 . S
C894 C897 1.403 1_556 S
C895 C892 1.403 1_545 S
C895 C896 1.524 . S
C895 C899 1.400 1_556 S
C896 H881 0.960 . S
C896 H882 0.960 . S
C896 H883 0.960 . S
C896 C895 1.524 . S
C897 C894 1.403 1_554 S
C897 C898 1.392 1_565 S
C897 C901 1.495 . S
C898 C897 1.392 1_545 S
C898 C899 1.385 . S
C898 C900 1.478 . S
C899 H893 0.930 . S
C899 C895 1.400 1_554 S
C899 C898 1.385 . S
C900 C898 1.478 . S
C900 C902 1.381 . S
C900 C906 1.383 . S
C901 C897 1.495 . S
C901 H907 0.959 . S
C901 H908 0.961 . S
C901 H909 0.960 . S
C902 C900 1.381 . S
C902 C903 1.394 . S
C902 H910 0.930 . S
C903 C902 1.394 . S
C903 C904 1.383 . S
C903 H911 0.929 . S
C904 C903 1.383 . S
C904 C905 1.377 . S
C905 H889 0.930 . S
C905 C904 1.377 . S
C905 C906 1.379 . S
C906 H890 0.931 . S
C906 C900 1.383 . S
C906 C905 1.379 . S
H907 C901 0.959 . S
H908 C901 0.961 . S
H909 C901 0.960 . S
H910 C902 0.930 . S
H911 C903 0.929 . S
H912 C920 0.929 . S
H913 C922 0.930 . S
H914 C924 0.930 . S
H915 C927 0.929 . S
H916 C930 0.930 . S
H917 C932 0.960 . S
H918 C932 0.960 . S
H919 C932 0.960 . S
C920 H912 0.929 . S
C920 C921 1.377 . S
C920 C922 1.384 . S
C921 C920 1.377 . S
C921 C927 1.390 . S
C922 H913 0.930 . S
C922 C920 1.384 . S
C922 C923 1.372 . S
C923 C922 1.372 . S
C923 C924 1.400 . S
C923 C928 1.490 . S
C924 H914 0.930 . S
C924 C923 1.400 . S
C924 C927 1.386 . S
H925 C941 0.930 . S
H926 C942 0.931 . S
C927 H915 0.929 . S
C927 C921 1.390 . S
C927 C924 1.386 . S
C928 C923 1.490 . S
C928 C930 1.395 . S
C928 C931 1.403 . S
H929 C935 0.930 . S
C930 H916 0.930 . S
C930 C928 1.395 . S
C930 C933 1.403 . S
C931 C928 1.403 . S
C931 C932 1.524 . S
C931 C935 1.400 . S
C932 H917 0.960 . S
C932 H918 0.960 . S
C932 H919 0.960 . S
C932 C931 1.524 . S
C933 C930 1.403 . S
C933 C934 1.392 . S
C933 C937 1.495 . S
C934 C933 1.392 . S
C934 C935 1.385 . S
C934 C936 1.478 . S
C935 H929 0.930 . S
C935 C931 1.400 . S
C935 C934 1.385 . S
C936 C934 1.478 . S
C936 C938 1.381 . S
C936 C942 1.383 . S
C937 C933 1.495 . S
C937 H943 0.959 . S
C937 H944 0.961 . S
C937 H945 0.960 . S
C938 C936 1.381 . S
C938 C939 1.394 . S
C938 H946 0.930 . S
C939 C938 1.394 . S
C939 C940 1.383 . S
C939 H947 0.929 . S
C940 C939 1.383 . S
C940 C941 1.377 . S
C941 H925 0.930 . S
C941 C940 1.377 . S
C941 C942 1.379 . S
C942 H926 0.931 . S
C942 C936 1.383 . S
C942 C941 1.379 . S
H943 C937 0.959 . S
H944 C937 0.961 . S
H945 C937 0.960 . S
H946 C938 0.930 . S
H947 C939 0.929 . S
H948 C956 0.929 . S
H949 C958 0.930 . S
H950 C960 0.930 . S
H951 C963 0.929 . S
H952 C966 0.930 . S
H953 C968 0.960 . S
H954 C968 0.960 . S
H955 C968 0.960 . S
C956 H948 0.929 . S
C956 C957 1.377 . S
C956 C958 1.384 . S
C957 C956 1.377 . S
C957 C963 1.390 . S
C958 H949 0.930 . S
C958 C956 1.384 . S
C958 C959 1.372 . S
C959 C958 1.372 . S
C959 C960 1.400 . S
C959 C964 1.490 . S
C960 H950 0.930 . S
C960 C959 1.400 . S
C960 C963 1.386 . S
H961 C977 0.930 . S
H962 C978 0.931 . S
C963 H951 0.929 . S
C963 C957 1.390 . S
C963 C960 1.386 . S
C964 C959 1.490 . S
C964 C966 1.395 1_655 S
C964 C967 1.403 . S
H965 C971 0.930 . S
C966 H952 0.930 . S
C966 C964 1.395 1_455 S
C966 C969 1.403 . S
C967 C964 1.403 . S
C967 C968 1.524 . S
C967 C971 1.400 . S
C968 H953 0.960 . S
C968 H954 0.960 . S
C968 H955 0.960 . S
C968 C967 1.524 . S
C969 C966 1.403 . S
C969 C970 1.392 . S
C969 C973 1.495 . S
C970 C969 1.392 . S
C970 C971 1.385 1_455 S
C970 C972 1.478 . S
C971 H965 0.930 . S
C971 C967 1.400 . S
C971 C970 1.385 1_655 S
C972 C970 1.478 . S
C972 C974 1.381 . S
C972 C978 1.383 . S
C973 C969 1.495 . S
C973 H979 0.959 . S
C973 H980 0.961 . S
C973 H981 0.960 . S
C974 C972 1.381 . S
C974 C975 1.394 . S
C974 H982 0.930 . S
C975 C974 1.394 . S
C975 C976 1.383 . S
C975 H983 0.929 . S
C976 C975 1.383 . S
C976 C977 1.377 . S
C977 H961 0.930 . S
C977 C976 1.377 . S
C977 C978 1.379 . S
C978 H962 0.931 . S
C978 C972 1.383 . S
C978 C977 1.379 . S
H979 C973 0.959 . S
H980 C973 0.961 . S
H981 C973 0.960 . S
H982 C974 0.930 . S
H983 C975 0.929 . S
H984 C992 0.929 . S
H985 C994 0.930 . S
H986 C996 0.930 . S
H987 C999 0.929 . S
H988 C1002 0.930 . S
H989 C1004 0.960 . S
H990 C1004 0.960 . S
H991 C1004 0.960 . S
C992 H984 0.929 . S
C992 C993 1.377 . S
C992 C994 1.384 . S
C993 C992 1.377 . S
C993 C999 1.390 . S
C994 H985 0.930 . S
C994 C992 1.384 . S
C994 C995 1.372 . S
C995 C994 1.372 . S
C995 C996 1.400 . S
C995 C1000 1.490 . S
C996 H986 0.930 . S
C996 C995 1.400 . S
C996 C999 1.386 . S
H997 C1013 0.930 . S
H998 C1014 0.931 . S
C999 H987 0.929 . S
C999 C993 1.390 . S
C999 C996 1.386 . S
C1000 C995 1.490 . S
C1000 C1002 1.395 . S
C1000 C1003 1.403 1_565 S
H1001 C1007 0.930 . S
C1002 H988 0.930 . S
C1002 C1000 1.395 . S
C1002 C1005 1.403 . S
C1003 C1000 1.403 1_545 S
C1003 C1004 1.524 . S
C1003 C1007 1.400 . S
C1004 H989 0.960 . S
C1004 H990 0.960 . S
C1004 H991 0.960 . S
C1004 C1003 1.524 . S
C1005 C1002 1.403 . S
C1005 C1006 1.392 1_565 S
C1005 C1009 1.495 . S
C1006 C1005 1.392 1_545 S
C1006 C1007 1.385 . S
C1006 C1008 1.478 . S
C1007 H1001 0.930 . S
C1007 C1003 1.400 . S
C1007 C1006 1.385 . S
C1008 C1006 1.478 . S
C1008 C1010 1.381 . S
C1008 C1014 1.383 . S
C1009 C1005 1.495 . S
C1009 H1015 0.959 . S
C1009 H1016 0.961 . S
C1009 H1017 0.960 . S
C1010 C1008 1.381 . S
C1010 C1011 1.394 . S
C1010 H1018 0.930 . S
C1011 C1010 1.394 . S
C1011 C1012 1.383 . S
C1011 H1019 0.929 . S
C1012 C1011 1.383 . S
C1012 C1013 1.377 . S
C1013 H997 0.930 . S
C1013 C1012 1.377 . S
C1013 C1014 1.379 . S
C1014 H998 0.931 . S
C1014 C1008 1.383 . S
C1014 C1013 1.379 . S
H1015 C1009 0.959 . S
H1016 C1009 0.961 . S
H1017 C1009 0.960 . S
H1018 C1010 0.930 . S
H1019 C1011 0.929 . S
H1020 C1028 0.929 . S
H1021 C1030 0.930 . S
H1022 C1032 0.930 . S
H1023 C1035 0.929 . S
H1024 C1038 0.930 . S
H1025 C1040 0.960 . S
H1026 C1040 0.960 . S
H1027 C1040 0.960 . S
C1028 H1020 0.929 . S
C1028 C1029 1.377 . S
C1028 C1030 1.384 . S
C1029 C1028 1.377 . S
C1029 C1035 1.390 . S
C1030 H1021 0.930 . S
C1030 C1028 1.384 . S
C1030 C1031 1.372 . S
C1031 C1030 1.372 . S
C1031 C1032 1.400 . S
C1031 C1036 1.490 . S
C1032 H1022 0.930 . S
C1032 C1031 1.400 . S
C1032 C1035 1.386 . S
H1033 C1049 0.930 . S
H1034 C1050 0.931 . S
C1035 H1023 0.929 . S
C1035 C1029 1.390 . S
C1035 C1032 1.386 . S
C1036 C1031 1.490 . S
C1036 C1038 1.395 . S
C1036 C1039 1.403 . S
H1037 C1043 0.930 . S
C1038 H1024 0.930 . S
C1038 C1036 1.395 . S
C1038 C1041 1.403 . S
C1039 C1036 1.403 . S
C1039 C1040 1.524 . S
C1039 C1043 1.400 . S
C1040 H1025 0.960 . S
C1040 H1026 0.960 . S
C1040 H1027 0.960 . S
C1040 C1039 1.524 . S
C1041 C1038 1.403 . S
C1041 C1042 1.392 . S
C1041 C1045 1.495 . S
C1042 C1041 1.392 . S
C1042 C1043 1.385 . S
C1042 C1044 1.478 . S
C1043 H1037 0.930 . S
C1043 C1039 1.400 . S
C1043 C1042 1.385 . S
C1044 C1042 1.478 . S
C1044 C1046 1.381 . S
C1044 C1050 1.383 . S
C1045 C1041 1.495 . S
C1045 H1051 0.959 . S
C1045 H1052 0.961 . S
C1045 H1053 0.960 . S
C1046 C1044 1.381 . S
C1046 C1047 1.394 . S
C1046 H1054 0.930 . S
C1047 C1046 1.394 . S
C1047 C1048 1.383 . S
C1047 H1055 0.929 . S
C1048 C1047 1.383 . S
C1048 C1049 1.377 . S
C1049 H1033 0.930 . S
C1049 C1048 1.377 . S
C1049 C1050 1.379 . S
C1050 H1034 0.931 . S
C1050 C1044 1.383 . S
C1050 C1049 1.379 . S
H1051 C1045 0.959 . S
H1052 C1045 0.961 . S
H1053 C1045 0.960 . S
H1054 C1046 0.930 . S
H1055 C1047 0.929 . S
H1056 C1064 0.929 . S
H1057 C1066 0.930 . S
H1058 C1068 0.930 . S
H1059 C1071 0.929 . S
H1060 C1074 0.930 . S
H1061 C1076 0.960 . S
H1062 C1076 0.960 . S
H1063 C1076 0.960 . S
C1064 H1056 0.929 . S
C1064 C1065 1.377 . S
C1064 C1066 1.384 . S
C1065 C1064 1.377 . S
C1065 C1071 1.390 . S
C1066 H1057 0.930 . S
C1066 C1064 1.384 . S
C1066 C1067 1.372 . S
C1067 C1066 1.372 . S
C1067 C1068 1.400 . S
C1067 C1072 1.490 . S
C1068 H1058 0.930 . S
C1068 C1067 1.400 . S
C1068 C1071 1.386 . S
H1069 C1085 0.930 . S
H1070 C1086 0.931 . S
C1071 H1059 0.929 . S
C1071 C1065 1.390 . S
C1071 C1068 1.386 . S
C1072 C1067 1.490 . S
C1072 C1074 1.395 . S
C1072 C1075 1.403 . S
H1073 C1079 0.930 . S
C1074 H1060 0.930 . S
C1074 C1072 1.395 . S
C1074 C1077 1.403 . S
C1075 C1072 1.403 . S
C1075 C1076 1.524 . S
C1075 C1079 1.400 . S
C1076 H1061 0.960 . S
C1076 H1062 0.960 . S
C1076 H1063 0.960 . S
C1076 C1075 1.524 . S
C1077 C1074 1.403 . S
C1077 C1078 1.392 . S
C1077 C1081 1.495 . S
C1078 C1077 1.392 . S
C1078 C1079 1.385 . S
C1078 C1080 1.478 . S
C1079 H1073 0.930 . S
C1079 C1075 1.400 . S
C1079 C1078 1.385 . S
C1080 C1078 1.478 . S
C1080 C1082 1.381 . S
C1080 C1086 1.383 1_556 S
C1081 C1077 1.495 . S
C1081 H1087 0.959 . S
C1081 H1088 0.961 . S
C1081 H1089 0.960 . S
C1082 C1080 1.381 . S
C1082 C1083 1.394 . S
C1082 H1090 0.930 . S
C1083 C1082 1.394 . S
C1083 C1084 1.365 1_556 S
C1083 H1091 0.929 . S
C1084 C1083 1.365 1_554 S
C1084 C1085 1.387 . S
C1085 H1069 0.930 . S
C1085 C1084 1.387 . S
C1085 C1086 1.379 . S
C1086 H1070 0.931 . S
C1086 C1080 1.383 1_554 S
C1086 C1085 1.379 . S
H1087 C1081 0.959 . S
H1088 C1081 0.961 . S
H1089 C1081 0.960 . S
H1090 C1082 0.930 . S
H1091 C1083 0.929 . S
H1092 C1100 0.929 . S
H1093 C1102 0.930 . S
H1094 C1104 0.930 . S
H1095 C1107 0.929 1_455 S
H1096 C1110 0.930 . S
H1097 C1112 0.960 . S
H1098 C1112 0.960 . S
H1099 C1112 0.960 . S
C1100 H1092 0.929 . S
C1100 C1101 1.369 1_655 S
C1100 C1102 1.384 . S
C1101 C1100 1.369 1_455 S
C1101 C1107 1.374 1_455 S
C1102 H1093 0.930 . S
C1102 C1100 1.384 . S
C1102 C1103 1.372 . S
C1103 C1102 1.372 . S
C1103 C1104 1.400 . S
C1103 C1108 1.490 . S
C1104 H1094 0.930 . S
C1104 C1103 1.400 . S
C1104 C1107 1.386 . S
H1105 C1121 0.930 . S
H1106 C1122 0.931 . S
C1107 H1095 0.929 1_655 S
C1107 C1101 1.374 1_655 S
C1107 C1104 1.386 . S
C1108 C1103 1.490 . S
C1108 C1110 1.395 . S
C1108 C1111 1.403 . S
H1109 C1115 0.930 . S
C1110 H1096 0.930 . S
C1110 C1108 1.395 . S
C1110 C1113 1.403 . S
C1111 C1108 1.403 . S
C1111 C1112 1.524 . S
C1111 C1115 1.400 . S
C1112 H1097 0.960 . S
C1112 H1098 0.960 . S
C1112 H1099 0.960 . S
C1112 C1111 1.524 . S
C1113 C1110 1.403 . S
C1113 C1114 1.392 . S
C1113 C1117 1.495 . S
C1114 C1113 1.392 . S
C1114 C1115 1.385 . S
C1114 C1116 1.478 . S
C1115 H1109 0.930 . S
C1115 C1111 1.400 . S
C1115 C1114 1.385 . S
C1116 C1114 1.478 . S
C1116 C1118 1.381 . S
C1116 C1122 1.383 . S
C1117 C1113 1.495 . S
C1117 H1123 0.959 . S
C1117 H1124 0.961 . S
C1117 H1125 0.960 . S
C1118 C1116 1.381 . S
C1118 C1119 1.394 . S
C1118 H1126 0.930 . S
C1119 C1118 1.394 . S
C1119 C1120 1.383 . S
C1119 H1127 0.929 . S
C1120 C1119 1.383 . S
C1120 C1121 1.377 . S
C1121 H1105 0.930 . S
C1121 C1120 1.377 . S
C1121 C1122 1.379 . S
C1122 H1106 0.931 . S
C1122 C1116 1.383 . S
C1122 C1121 1.379 . S
H1123 C1117 0.959 . S
H1124 C1117 0.961 . S
H1125 C1117 0.960 . S
H1126 C1118 0.930 . S
H1127 C1119 0.929 . S
H1128 C1136 0.929 . S
H1129 C1138 0.930 . S
H1130 C1140 0.930 . S
H1131 C1143 0.929 . S
H1132 C1146 0.930 . S
H1133 C1148 0.960 . S
H1134 C1148 0.960 . S
H1135 C1148 0.960 . S
C1136 H1128 0.929 . S
C1136 C1137 1.377 . S
C1136 C1138 1.384 . S
C1137 C1136 1.377 . S
C1137 C1143 1.390 . S
C1138 H1129 0.930 . S
C1138 C1136 1.384 . S
C1138 C1139 1.372 . S
C1139 C1138 1.372 . S
C1139 C1140 1.400 . S
C1139 C1144 1.490 . S
C1140 H1130 0.930 . S
C1140 C1139 1.400 . S
C1140 C1143 1.386 . S
H1141 C1157 0.930 . S
H1142 C1158 0.931 . S
C1143 H1131 0.929 . S
C1143 C1137 1.390 . S
C1143 C1140 1.386 . S
C1144 C1139 1.490 . S
C1144 C1146 1.395 . S
C1144 C1147 1.403 . S
H1145 C1151 0.930 . S
C1146 H1132 0.930 . S
C1146 C1144 1.395 . S
C1146 C1149 1.403 . S
C1147 C1144 1.403 . S
C1147 C1148 1.524 . S
C1147 C1151 1.400 . S
C1148 H1133 0.960 . S
C1148 H1134 0.960 . S
C1148 H1135 0.960 . S
C1148 C1147 1.524 . S
C1149 C1146 1.403 . S
C1149 C1150 1.392 . S
C1149 C1153 1.495 . S
C1150 C1149 1.392 . S
C1150 C1151 1.385 . S
C1150 C1152 1.478 . S
C1151 H1145 0.930 . S
C1151 C1147 1.400 . S
C1151 C1150 1.385 . S
C1152 C1150 1.478 . S
C1152 C1154 1.381 . S
C1152 C1158 1.383 . S
C1153 C1149 1.495 . S
C1153 H1159 0.959 . S
C1153 H1160 0.961 . S
C1153 H1161 0.960 . S
C1154 C1152 1.381 . S
C1154 C1155 1.394 . S
C1154 H1162 0.930 . S
C1155 C1154 1.394 . S
C1155 C1156 1.364 1_565 S
C1155 H1163 0.929 1_565 S
C1156 C1155 1.364 1_545 S
C1156 C1157 1.365 1_545 S
C1157 H1141 0.930 . S
C1157 C1156 1.365 1_565 S
C1157 C1158 1.379 . S
C1158 H1142 0.931 . S
C1158 C1152 1.383 . S
C1158 C1157 1.379 . S
H1159 C1153 0.959 . S
H1160 C1153 0.961 . S
H1161 C1153 0.960 . S
H1162 C1154 0.930 . S
H1163 C1155 0.929 1_545 S
H1164 C1172 0.929 . S
H1165 C1174 0.930 . S
H1166 C1176 0.930 . S
H1167 C1179 0.929 . S
H1168 C1182 0.930 . S
H1169 C1184 0.960 . S
H1170 C1184 0.960 . S
H1171 C1184 0.960 . S
C1172 H1164 0.929 . S
C1172 C1173 1.377 . S
C1172 C1174 1.384 . S
C1173 C1172 1.377 . S
C1173 C1179 1.390 . S
C1174 H1165 0.930 . S
C1174 C1172 1.384 . S
C1174 C1175 1.372 . S
C1175 C1174 1.372 . S
C1175 C1176 1.400 . S
C1175 C1180 1.490 . S
C1176 H1166 0.930 . S
C1176 C1175 1.400 . S
C1176 C1179 1.386 . S
H1177 C1193 0.930 . S
H1178 C1194 0.931 . S
C1179 H1167 0.929 . S
C1179 C1173 1.390 . S
C1179 C1176 1.386 . S
C1180 C1175 1.490 . S
C1180 C1182 1.395 . S
C1180 C1183 1.403 . S
H1181 C1187 0.930 . S
C1182 H1168 0.930 . S
C1182 C1180 1.395 . S
C1182 C1185 1.403 . S
C1183 C1180 1.403 . S
C1183 C1184 1.524 . S
C1183 C1187 1.400 . S
C1184 H1169 0.960 . S
C1184 H1170 0.960 . S
C1184 H1171 0.960 . S
C1184 C1183 1.524 . S
C1185 C1182 1.403 . S
C1185 C1186 1.392 . S
C1185 C1189 1.495 . S
C1186 C1185 1.392 . S
C1186 C1187 1.385 . S
C1186 C1188 1.478 . S
C1187 H1181 0.930 . S
C1187 C1183 1.400 . S
C1187 C1186 1.385 . S
C1188 C1186 1.478 . S
C1188 C1190 1.381 . S
C1188 C1194 1.383 . S
C1189 C1185 1.495 . S
C1189 H1195 0.959 . S
C1189 H1196 0.961 . S
C1189 H1197 0.960 . S
C1190 C1188 1.381 . S
C1190 C1191 1.394 . S
C1190 H1198 0.930 . S
C1191 C1190 1.394 . S
C1191 C1192 1.383 . S
C1191 H1199 0.929 . S
C1192 C1191 1.383 . S
C1192 C1193 1.377 . S
C1193 H1177 0.930 . S
C1193 C1192 1.377 . S
C1193 C1194 1.379 . S
C1194 H1178 0.931 . S
C1194 C1188 1.383 . S
C1194 C1193 1.379 . S
H1195 C1189 0.959 . S
H1196 C1189 0.961 . S
H1197 C1189 0.960 . S
H1198 C1190 0.930 . S
H1199 C1191 0.929 . S
H1200 C1208 0.929 . S
H1201 C1210 0.930 . S
H1202 C1212 0.930 . S
H1203 C1215 0.929 . S
H1204 C1218 0.930 . S
H1205 C1220 0.960 . S
H1206 C1220 0.960 . S
H1207 C1220 0.960 . S
C1208 H1200 0.929 . S
C1208 C1209 1.377 . S
C1208 C1210 1.384 . S
C1209 C1208 1.377 . S
C1209 C1215 1.390 . S
C1210 H1201 0.930 . S
C1210 C1208 1.384 . S
C1210 C1211 1.372 . S
C1211 C1210 1.372 . S
C1211 C1212 1.400 . S
C1211 C1216 1.490 . S
C1212 H1202 0.930 . S
C1212 C1211 1.400 . S
C1212 C1215 1.386 . S
H1213 C1229 0.930 . S
H1214 C1230 0.931 . S
C1215 H1203 0.929 . S
C1215 C1209 1.390 . S
C1215 C1212 1.386 . S
C1216 C1211 1.490 . S
C1216 C1218 1.395 . S
C1216 C1219 1.403 . S
H1217 C1223 0.930 . S
C1218 H1204 0.930 . S
C1218 C1216 1.395 . S
C1218 C1221 1.403 . S
C1219 C1216 1.403 . S
C1219 C1220 1.524 . S
C1219 C1223 1.400 . S
C1220 H1205 0.960 . S
C1220 H1206 0.960 . S
C1220 H1207 0.960 . S
C1220 C1219 1.524 . S
C1221 C1218 1.403 . S
C1221 C1222 1.392 . S
C1221 C1225 1.495 . S
C1222 C1221 1.392 . S
C1222 C1223 1.385 . S
C1222 C1224 1.478 . S
C1223 H1217 0.930 . S
C1223 C1219 1.400 . S
C1223 C1222 1.385 . S
C1224 C1222 1.478 . S
C1224 C1226 1.381 . S
C1224 C1230 1.383 . S
C1225 C1221 1.495 . S
C1225 H1231 0.959 . S
C1225 H1232 0.961 . S
C1225 H1233 0.960 . S
C1226 C1224 1.381 . S
C1226 C1227 1.394 . S
C1226 H1234 0.930 . S
C1227 C1226 1.394 . S
C1227 C1228 1.383 1_455 S
C1227 H1235 0.929 1_455 S
C1228 C1227 1.383 1_655 S
C1228 C1229 1.377 1_655 S
C1229 H1213 0.930 . S
C1229 C1228 1.377 1_455 S
C1229 C1230 1.379 . S
C1230 H1214 0.931 . S
C1230 C1224 1.383 . S
C1230 C1229 1.379 . S
H1231 C1225 0.959 . S
H1232 C1225 0.961 . S
H1233 C1225 0.960 . S
H1234 C1226 0.930 . S
H1235 C1227 0.929 1_655 S
H1236 C1244 0.929 . S
H1237 C1246 0.930 . S
H1238 C1248 0.930 . S
H1239 C1251 0.929 . S
H1240 C1254 0.930 . S
H1241 C1256 0.960 . S
H1242 C1256 0.960 . S
H1243 C1256 0.960 . S
C1244 H1236 0.929 . S
C1244 C1245 1.377 . S
C1244 C1246 1.384 . S
C1245 C1244 1.377 . S
C1245 C1251 1.390 . S
C1246 H1237 0.930 . S
C1246 C1244 1.384 . S
C1246 C1247 1.372 . S
C1247 C1246 1.372 . S
C1247 C1248 1.400 . S
C1247 C1252 1.490 . S
C1248 H1238 0.930 . S
C1248 C1247 1.400 . S
C1248 C1251 1.386 . S
H1249 C1265 0.930 . S
H1250 C1266 0.931 . S
C1251 H1239 0.929 . S
C1251 C1245 1.390 . S
C1251 C1248 1.386 . S
C1252 C1247 1.490 . S
C1252 C1254 1.395 . S
C1252 C1255 1.403 . S
H1253 C1259 0.930 . S
C1254 H1240 0.930 . S
C1254 C1252 1.395 . S
C1254 C1257 1.403 . S
C1255 C1252 1.403 . S
C1255 C1256 1.524 . S
C1255 C1259 1.400 . S
C1256 H1241 0.960 . S
C1256 H1242 0.960 . S
C1256 H1243 0.960 . S
C1256 C1255 1.524 . S
C1257 C1254 1.403 . S
C1257 C1258 1.392 . S
C1257 C1261 1.495 . S
C1258 C1257 1.392 . S
C1258 C1259 1.385 . S
C1258 C1260 1.478 . S
C1259 H1253 0.930 . S
C1259 C1255 1.400 . S
C1259 C1258 1.385 . S
C1260 C1258 1.478 . S
C1260 C1262 1.381 . S
C1260 C1266 1.383 . S
C1261 C1257 1.495 . S
C1261 H1267 0.959 . S
C1261 H1268 0.961 . S
C1261 H1269 0.960 . S
C1262 C1260 1.381 . S
C1262 C1263 1.358 1_545 S
C1262 H1270 0.930 . S
C1263 C1262 1.358 1_565 S
C1263 C1264 1.392 . S
C1263 H1271 0.958 . S
C1264 C1263 1.392 . S
C1264 C1265 1.377 1_565 S
C1265 H1249 0.930 . S
C1265 C1264 1.377 1_545 S
C1265 C1266 1.379 . S
C1266 H1250 0.931 . S
C1266 C1260 1.383 . S
C1266 C1265 1.379 . S
H1267 C1261 0.959 . S
H1268 C1261 0.961 . S
H1269 C1261 0.960 . S
H1270 C1262 0.930 . S
H1271 C1263 0.958 . S
H1272 C1280 0.929 . S
H1273 C1282 0.930 . S
H1274 C1284 0.930 . S
H1275 C1287 0.929 . S
H1276 C1290 0.930 . S
H1277 C1292 0.960 . S
H1278 C1292 0.960 . S
H1279 C1292 0.960 . S
C1280 H1272 0.929 . S
C1280 C1281 1.377 . S
C1280 C1282 1.384 . S
C1281 C1280 1.377 . S
C1281 C1287 1.390 . S
C1282 H1273 0.930 . S
C1282 C1280 1.384 . S
C1282 C1283 1.372 . S
C1283 C1282 1.372 . S
C1283 C1284 1.400 . S
C1283 C1288 1.490 . S
C1284 H1274 0.930 . S
C1284 C1283 1.400 . S
C1284 C1287 1.386 . S
H1285 C1301 0.930 . S
H1286 C1302 0.931 . S
C1287 H1275 0.929 . S
C1287 C1281 1.390 . S
C1287 C1284 1.386 . S
C1288 C1283 1.490 . S
C1288 C1290 1.395 . S
C1288 C1291 1.403 . S
H1289 C1295 0.930 . S
C1290 H1276 0.930 . S
C1290 C1288 1.395 . S
C1290 C1293 1.403 . S
C1291 C1288 1.403 . S
C1291 C1292 1.524 . S
C1291 C1295 1.400 . S
C1292 H1277 0.960 . S
C1292 H1278 0.960 . S
C1292 H1279 0.960 . S
C1292 C1291 1.524 . S
C1293 C1290 1.403 . S
C1293 C1294 1.392 . S
C1293 C1297 1.495 . S
C1294 C1293 1.392 . S
C1294 C1295 1.385 . S
C1294 C1296 1.478 . S
C1295 H1289 0.930 . S
C1295 C1291 1.400 . S
C1295 C1294 1.385 . S
C1296 C1294 1.478 . S
C1296 C1298 1.381 . S
C1296 C1302 1.383 . S
C1297 C1293 1.495 . S
C1297 H1303 0.959 . S
C1297 H1304 0.961 . S
C1297 H1305 0.960 . S
C1298 C1296 1.381 . S
C1298 C1299 1.394 . S
C1298 H1306 0.930 . S
C1299 C1298 1.394 . S
C1299 C1300 1.383 . S
C1299 H1307 0.929 . S
C1300 C1299 1.383 . S
C1300 C1301 1.377 . S
C1301 H1285 0.930 . S
C1301 C1300 1.377 . S
C1301 C1302 1.379 . S
C1302 H1286 0.931 . S
C1302 C1296 1.383 . S
C1302 C1301 1.379 . S
H1303 C1297 0.959 . S
H1304 C1297 0.961 . S
H1305 C1297 0.960 . S
H1306 C1298 0.930 . S
H1307 C1299 0.929 . S
H1308 C1316 0.929 . S
H1309 C1318 0.930 . S
H1310 C1320 0.930 . S
H1311 C1323 0.929 . S
H1312 C1326 0.930 . S
H1313 C1328 0.960 . S
H1314 C1328 0.960 . S
H1315 C1328 0.960 . S
C1316 H1308 0.929 . S
C1316 C1317 1.388 . S
C1316 C1318 1.384 . S
C1317 C1316 1.388 . S
C1317 C1323 1.384 1_554 S
C1318 H1309 0.930 . S
C1318 C1316 1.384 . S
C1318 C1319 1.372 . S
C1319 C1318 1.372 . S
C1319 C1320 1.400 1_554 S
C1319 C1324 1.490 . S
C1320 H1310 0.930 . S
C1320 C1319 1.400 1_556 S
C1320 C1323 1.386 . S
H1321 C1337 0.930 1_455 S
H1322 C1338 0.931 . S
C1323 H1311 0.929 . S
C1323 C1317 1.384 1_556 S
C1323 C1320 1.386 . S
C1324 C1319 1.490 . S
C1324 C1326 1.395 . S
C1324 C1327 1.403 . S
H1325 C1331 0.930 . S
C1326 H1312 0.930 . S
C1326 C1324 1.395 . S
C1326 C1329 1.403 . S
C1327 C1324 1.403 . S
C1327 C1328 1.524 . S
C1327 C1331 1.400 . S
C1328 H1313 0.960 . S
C1328 H1314 0.960 . S
C1328 H1315 0.960 . S
C1328 C1327 1.524 . S
C1329 C1326 1.403 . S
C1329 C1330 1.392 . S
C1329 C1333 1.495 . S
C1330 C1329 1.392 . S
C1330 C1331 1.385 . S
C1330 C1332 1.478 . S
C1331 H1325 0.930 . S
C1331 C1327 1.400 . S
C1331 C1330 1.385 . S
C1332 C1330 1.478 . S
C1332 C1334 1.381 . S
C1332 C1338 1.383 . S
C1333 C1329 1.495 . S
C1333 H1339 0.959 . S
C1333 H1340 0.961 . S
C1333 H1341 0.960 . S
C1334 C1332 1.381 . S
C1334 C1335 1.394 . S
C1334 H1342 0.930 . S
C1335 C1334 1.394 . S
C1335 C1336 1.366 1_655 S
C1335 H1343 0.929 . S
C1336 C1335 1.366 1_455 S
C1336 C1337 1.370 1_455 S
C1337 H1321 0.930 1_655 S
C1337 C1336 1.370 1_655 S
C1337 C1338 1.379 . S
C1338 H1322 0.931 . S
C1338 C1332 1.383 . S
C1338 C1337 1.379 . S
H1339 C1333 0.959 . S
H1340 C1333 0.961 . S
H1341 C1333 0.960 . S
H1342 C1334 0.930 . S
H1343 C1335 0.929 . S
H1344 C1352 0.929 . S
H1345 C1354 0.930 . S
H1346 C1356 0.930 . S
H1347 C1359 0.929 . S
H1348 C1362 0.930 . S
H1349 C1364 0.960 . S
H1350 C1364 0.960 . S
H1351 C1364 0.960 . S
C1352 H1344 0.929 . S
C1352 C1353 1.377 . S
C1352 C1354 1.384 . S
C1353 C1352 1.377 . S
C1353 C1359 1.390 . S
C1354 H1345 0.930 . S
C1354 C1352 1.384 . S
C1354 C1355 1.372 . S
C1355 C1354 1.372 . S
C1355 C1356 1.400 . S
C1355 C1360 1.490 . S
C1356 H1346 0.930 . S
C1356 C1355 1.400 . S
C1356 C1359 1.386 . S
H1357 C1373 0.930 1_545 S
H1358 C1374 0.931 . S
C1359 H1347 0.929 . S
C1359 C1353 1.390 . S
C1359 C1356 1.386 . S
C1360 C1355 1.490 . S
C1360 C1362 1.395 . S
C1360 C1363 1.403 . S
H1361 C1367 0.930 . S
C1362 H1348 0.930 . S
C1362 C1360 1.395 . S
C1362 C1365 1.403 . S
C1363 C1360 1.403 . S
C1363 C1364 1.524 . S
C1363 C1367 1.400 . S
C1364 H1349 0.960 . S
C1364 H1350 0.960 . S
C1364 H1351 0.960 . S
C1364 C1363 1.524 . S
C1365 C1362 1.403 . S
C1365 C1366 1.392 . S
C1365 C1369 1.495 . S
C1366 C1365 1.392 . S
C1366 C1367 1.385 . S
C1366 C1368 1.478 . S
C1367 H1361 0.930 . S
C1367 C1363 1.400 . S
C1367 C1366 1.385 . S
C1368 C1366 1.478 . S
C1368 C1370 1.381 . S
C1368 C1374 1.383 . S
C1369 C1365 1.495 . S
C1369 H1375 0.959 . S
C1369 H1376 0.961 . S
C1369 H1377 0.960 . S
C1370 C1368 1.381 . S
C1370 C1371 1.394 . S
C1370 H1378 0.930 . S
C1371 C1370 1.394 . S
C1371 C1372 1.363 1_565 S
C1371 H1379 0.929 . S
C1372 C1371 1.363 1_545 S
C1372 C1373 1.379 1_545 S
C1373 H1357 0.930 1_565 S
C1373 C1372 1.379 1_565 S
C1373 C1374 1.379 . S
C1374 H1358 0.931 . S
C1374 C1368 1.383 . S
C1374 C1373 1.379 . S
H1375 C1369 0.959 . S
H1376 C1369 0.961 . S
H1377 C1369 0.960 . S
H1378 C1370 0.930 . S
H1379 C1371 0.929 . S
H1380 C1388 0.929 . S
H1381 C1390 0.930 . S
H1382 C1392 0.930 . S
H1383 C1395 0.929 . S
H1384 C1398 0.930 . S
H1385 C1400 0.960 . S
H1386 C1400 0.960 . S
H1387 C1400 0.960 . S
C1388 H1380 0.929 . S
C1388 C1389 1.377 . S
C1388 C1390 1.384 . S
C1389 C1388 1.377 . S
C1389 C1395 1.390 . S
C1390 H1381 0.930 . S
C1390 C1388 1.384 . S
C1390 C1391 1.372 . S
C1391 C1390 1.372 . S
C1391 C1392 1.400 . S
C1391 C1396 1.490 . S
C1392 H1382 0.930 . S
C1392 C1391 1.400 . S
C1392 C1395 1.386 . S
H1393 C1409 0.930 . S
H1394 C1410 0.931 . S
C1395 H1383 0.929 . S
C1395 C1389 1.390 . S
C1395 C1392 1.386 . S
C1396 C1391 1.490 . S
C1396 C1398 1.395 . S
C1396 C1399 1.403 . S
H1397 C1403 0.930 . S
C1398 H1384 0.930 . S
C1398 C1396 1.395 . S
C1398 C1401 1.403 . S
C1399 C1396 1.403 . S
C1399 C1400 1.524 . S
C1399 C1403 1.400 . S
C1400 H1385 0.960 . S
C1400 H1386 0.960 . S
C1400 H1387 0.960 . S
C1400 C1399 1.524 . S
C1401 C1398 1.403 . S
C1401 C1402 1.392 . S
C1401 C1405 1.495 . S
C1402 C1401 1.392 . S
C1402 C1403 1.385 . S
C1402 C1404 1.478 . S
C1403 H1397 0.930 . S
C1403 C1399 1.400 . S
C1403 C1402 1.385 . S
C1404 C1402 1.478 . S
C1404 C1406 1.381 . S
C1404 C1410 1.383 . S
C1405 C1401 1.495 . S
C1405 H1411 0.959 . S
C1405 H1412 0.961 . S
C1405 H1413 0.960 . S
C1406 C1404 1.381 . S
C1406 C1407 1.394 . S
C1406 H1414 0.930 . S
C1407 C1406 1.394 . S
C1407 C1408 1.383 . S
C1407 H1415 0.929 . S
C1408 C1407 1.383 . S
C1408 C1409 1.377 . S
C1409 H1393 0.930 . S
C1409 C1408 1.377 . S
C1409 C1410 1.379 . S
C1410 H1394 0.931 . S
C1410 C1404 1.383 . S
C1410 C1409 1.379 . S
H1411 C1405 0.959 . S
H1412 C1405 0.961 . S
H1413 C1405 0.960 . S
H1414 C1406 0.930 . S
H1415 C1407 0.929 . S
H1416 C1424 0.929 . S
H1417 C1426 0.930 . S
H1418 C1428 0.930 . S
H1419 C1431 0.929 1_655 S
H1420 C1434 0.930 . S
H1421 C1436 0.960 . S
H1422 C1436 0.960 . S
H1423 C1436 0.960 . S
C1424 H1416 0.929 . S
C1424 C1425 1.352 1_455 S
C1424 C1426 1.384 . S
C1425 C1424 1.352 1_655 S
C1425 C1431 1.378 1_655 S
C1426 H1417 0.930 . S
C1426 C1424 1.384 . S
C1426 C1427 1.372 . S
C1427 C1426 1.372 . S
C1427 C1428 1.400 . S
C1427 C1432 1.490 . S
C1428 H1418 0.930 . S
C1428 C1427 1.400 . S
C1428 C1431 1.386 . S
H1429 C1445 0.930 . S
H1430 C1446 0.931 . S
C1431 H1419 0.929 1_455 S
C1431 C1425 1.378 1_455 S
C1431 C1428 1.386 . S
C1432 C1427 1.490 . S
C1432 C1434 1.395 . S
C1432 C1435 1.403 . S
H1433 C1439 0.930 . S
C1434 H1420 0.930 . S
C1434 C1432 1.395 . S
C1434 C1437 1.403 . S
C1435 C1432 1.403 . S
C1435 C1436 1.524 . S
C1435 C1439 1.400 . S
C1436 H1421 0.960 . S
C1436 H1422 0.960 . S
C1436 H1423 0.960 . S
C1436 C1435 1.524 . S
C1437 C1434 1.403 . S
C1437 C1438 1.392 . S
C1437 C1441 1.495 . S
C1438 C1437 1.392 . S
C1438 C1439 1.385 . S
C1438 C1440 1.478 . S
C1439 H1433 0.930 . S
C1439 C1435 1.400 . S
C1439 C1438 1.385 . S
C1440 C1438 1.478 . S
C1440 C1442 1.381 . S
C1440 C1446 1.383 . S
C1441 C1437 1.495 . S
C1441 H1447 0.959 . S
C1441 H1448 0.961 . S
C1441 H1449 0.960 . S
C1442 C1440 1.381 . S
C1442 C1443 1.394 . S
C1442 H1450 0.930 . S
C1443 C1442 1.394 . S
C1443 C1444 1.383 . S
C1443 H1451 0.929 . S
C1444 C1443 1.383 . S
C1444 C1445 1.377 . S
C1445 H1429 0.930 . S
C1445 C1444 1.377 . S
C1445 C1446 1.379 . S
C1446 H1430 0.931 . S
C1446 C1440 1.383 . S
C1446 C1445 1.379 . S
H1447 C1441 0.959 . S
H1448 C1441 0.961 . S
H1449 C1441 0.960 . S
H1450 C1442 0.930 . S
H1451 C1443 0.929 . S
H1452 C1460 0.929 . S
H1453 C1462 0.930 . S
H1454 C1464 0.930 . S
H1455 C1467 0.929 . S
H1456 C1470 0.930 . S
H1457 C1472 0.960 . S
H1458 C1472 0.960 . S
H1459 C1472 0.960 . S
C1460 H1452 0.929 . S
C1460 C1461 1.377 . S
C1460 C1462 1.384 . S
C1461 C1460 1.377 . S
C1461 C1467 1.390 . S
C1462 H1453 0.930 . S
C1462 C1460 1.384 . S
C1462 C1463 1.372 . S
C1463 C1462 1.372 . S
C1463 C1464 1.400 . S
C1463 C1468 1.490 . S
C1464 H1454 0.930 . S
C1464 C1463 1.400 . S
C1464 C1467 1.386 . S
H1465 C1481 0.930 1_565 S
H1466 C1482 0.931 . S
C1467 H1455 0.929 . S
C1467 C1461 1.390 . S
C1467 C1464 1.386 . S
C1468 C1463 1.490 . S
C1468 C1470 1.395 . S
C1468 C1471 1.403 . S
H1469 C1475 0.930 . S
C1470 H1456 0.930 . S
C1470 C1468 1.395 . S
C1470 C1473 1.403 . S
C1471 C1468 1.403 . S
C1471 C1472 1.524 . S
C1471 C1475 1.400 . S
C1472 H1457 0.960 . S
C1472 H1458 0.960 . S
C1472 H1459 0.960 . S
C1472 C1471 1.524 . S
C1473 C1470 1.403 . S
C1473 C1474 1.392 . S
C1473 C1477 1.495 . S
C1474 C1473 1.392 . S
C1474 C1475 1.385 . S
C1474 C1476 1.478 . S
C1475 H1469 0.930 . S
C1475 C1471 1.400 . S
C1475 C1474 1.385 . S
C1476 C1474 1.478 . S
C1476 C1478 1.381 . S
C1476 C1482 1.383 . S
C1477 C1473 1.495 . S
C1477 H1483 0.959 . S
C1477 H1484 0.961 . S
C1477 H1485 0.960 . S
C1478 C1476 1.381 . S
C1478 C1479 1.394 . S
C1478 H1486 0.930 . S
C1479 C1478 1.394 . S
C1479 C1480 1.383 1_545 S
C1479 H1487 0.929 . S
C1480 C1479 1.383 1_565 S
C1480 C1481 1.377 1_565 S
C1481 H1465 0.930 1_545 S
C1481 C1480 1.377 1_545 S
C1481 C1482 1.379 . S
C1482 H1466 0.931 . S
C1482 C1476 1.383 . S
C1482 C1481 1.379 . S
H1483 C1477 0.959 . S
H1484 C1477 0.961 . S
H1485 C1477 0.960 . S
H1486 C1478 0.930 . S
H1487 C1479 0.929 . S
C417 C349 0.866 . S
C436 C9 0.811 . S
C453 C43 0.864 . S
C472 C383 0.813 . S
C489 C77 0.863 . S
C508 C213 0.815 . S
C525 C111 0.857 . S
C544 C247 0.834 . S
C561 C145 0.853 . S
C580 C281 0.869 . S
C597 C179 0.872 . S
C616 C315 0.822 . S
C633 C33 1.233 . S
C652 C305 1.229 . S
C669 C339 1.227 . S
C688 C67 1.214 . S
C705 C101 1.230 . S
C724 C373 1.244 . S
C741 C135 1.232 . S
C760 C407 1.243 . S
C777 C169 1.229 . S
C796 C237 1.241 . S
C813 C203 1.232 . S
C832 C271 1.222 . S
C849 C379 1.609 . S
C868 C5 1.618 . S
C885 C209 1.615 . S
C904 C39 1.612 . S
C921 C243 1.612 . S
C940 C73 1.622 . S
C957 C107 1.610 . S
C976 C277 1.597 . S
C993 C141 1.614 . S
C1012 C311 1.617 . S
C1029 C345 1.611 . S
C1048 C175 1.622 . S
C1065 C172 2.053 . S
C1084 C20 2.033 . S
C1101 C2 2.079 . S
C1120 C54 2.024 . S
C1137 C88 2.037 . S
C1156 C36 2.075 . S
C1173 C70 2.053 . S
C1192 C122 2.041 . S
C1209 C156 2.041 . S
C1228 C104 2.049 . S
C1245 C190 2.039 . S
C1264 C138 2.046 . S
C1281 C240 2.054 . S
C1300 C224 2.027 . S
C1317 C258 2.033 1_554 S
C1336 C274 2.076 . S
C1353 C292 2.038 . S
C1372 C308 2.072 . S
C1389 C342 2.054 . S
C1408 C326 2.031 . S
C1425 C376 2.091 . S
C1444 C360 2.029 . S
C1461 C394 2.040 . S
C1480 C206 2.053 . S
