# Generated by pormake.
# Topology atn, (4)-cn, num edge types: 1
# Building blocks:
#     Node 0, Type 0, BuildingBlock: CEKHIL_clean_sbu_0, # of connection points: 4
#     Node 1, Type 0, BuildingBlock: CEKHIL_clean_sbu_0, # of connection points: 4
#     Node 2, Type 0, BuildingBlock: CEKHIL_clean_sbu_0, # of connection points: 4
#     Node 3, Type 0, BuildingBlock: CEKHIL_clean_sbu_0, # of connection points: 4
#     Node 4, Type 0, BuildingBlock: CEKHIL_clean_sbu_0, # of connection points: 4
#     Node 5, Type 0, BuildingBlock: CEKHIL_clean_sbu_0, # of connection points: 4
#     Node 6, Type 0, BuildingBlock: CEKHIL_clean_sbu_0, # of connection points: 4
#     Node 7, Type 0, BuildingBlock: CEKHIL_clean_sbu_0, # of connection points: 4
#     Node 8, Type 0, BuildingBlock: CEKHIL_clean_sbu_0, # of connection points: 4
#     Node 9, Type 0, BuildingBlock: CEKHIL_clean_sbu_0, # of connection points: 4
#     Node 10, Type 0, BuildingBlock: CEKHIL_clean_sbu_0, # of connection points: 4
#     Node 11, Type 0, BuildingBlock: CEKHIL_clean_sbu_0, # of connection points: 4
#     Node 12, Type 0, BuildingBlock: CEKHIL_clean_sbu_0, # of connection points: 4
#     Node 13, Type 0, BuildingBlock: CEKHIL_clean_sbu_0, # of connection points: 4
#     Node 14, Type 0, BuildingBlock: CEKHIL_clean_sbu_0, # of connection points: 4
#     Node 15, Type 0, BuildingBlock: CEKHIL_clean_sbu_0, # of connection points: 4
#     Edge 16, Type (0, 0), BuildingBlock: CIFDUS_clean_linker_0, # of connection points: 2
#     Edge 17, Type (0, 0), BuildingBlock: CIFDUS_clean_linker_0, # of connection points: 2
#     Edge 18, Type (0, 0), BuildingBlock: CIFDUS_clean_linker_0, # of connection points: 2
#     Edge 19, Type (0, 0), BuildingBlock: CIFDUS_clean_linker_0, # of connection points: 2
#     Edge 20, Type (0, 0), BuildingBlock: CIFDUS_clean_linker_0, # of connection points: 2
#     Edge 21, Type (0, 0), BuildingBlock: CIFDUS_clean_linker_0, # of connection points: 2
#     Edge 22, Type (0, 0), BuildingBlock: CIFDUS_clean_linker_0, # of connection points: 2
#     Edge 23, Type (0, 0), BuildingBlock: CIFDUS_clean_linker_0, # of connection points: 2
#     Edge 24, Type (0, 0), BuildingBlock: CIFDUS_clean_linker_0, # of connection points: 2
#     Edge 25, Type (0, 0), BuildingBlock: CIFDUS_clean_linker_0, # of connection points: 2
#     Edge 26, Type (0, 0), BuildingBlock: CIFDUS_clean_linker_0, # of connection points: 2
#     Edge 27, Type (0, 0), BuildingBlock: CIFDUS_clean_linker_0, # of connection points: 2
#     Edge 28, Type (0, 0), BuildingBlock: CIFDUS_clean_linker_0, # of connection points: 2
#     Edge 29, Type (0, 0), BuildingBlock: CIFDUS_clean_linker_0, # of connection points: 2
#     Edge 30, Type (0, 0), BuildingBlock: CIFDUS_clean_linker_0, # of connection points: 2
#     Edge 31, Type (0, 0), BuildingBlock: CIFDUS_clean_linker_0, # of connection points: 2
#     Edge 32, Type (0, 0), BuildingBlock: CIFDUS_clean_linker_0, # of connection points: 2
#     Edge 33, Type (0, 0), BuildingBlock: CIFDUS_clean_linker_0, # of connection points: 2
#     Edge 34, Type (0, 0), BuildingBlock: CIFDUS_clean_linker_0, # of connection points: 2
#     Edge 35, Type (0, 0), BuildingBlock: CIFDUS_clean_linker_0, # of connection points: 2
#     Edge 36, Type (0, 0), BuildingBlock: CIFDUS_clean_linker_0, # of connection points: 2
#     Edge 37, Type (0, 0), BuildingBlock: CIFDUS_clean_linker_0, # of connection points: 2
#     Edge 38, Type (0, 0), BuildingBlock: CIFDUS_clean_linker_0, # of connection points: 2
#     Edge 39, Type (0, 0), BuildingBlock: CIFDUS_clean_linker_0, # of connection points: 2
#     Edge 40, Type (0, 0), BuildingBlock: CIFDUS_clean_linker_0, # of connection points: 2
#     Edge 41, Type (0, 0), BuildingBlock: CIFDUS_clean_linker_0, # of connection points: 2
#     Edge 42, Type (0, 0), BuildingBlock: CIFDUS_clean_linker_0, # of connection points: 2
#     Edge 43, Type (0, 0), BuildingBlock: CIFDUS_clean_linker_0, # of connection points: 2
#     Edge 44, Type (0, 0), BuildingBlock: CIFDUS_clean_linker_0, # of connection points: 2
#     Edge 45, Type (0, 0), BuildingBlock: CIFDUS_clean_linker_0, # of connection points: 2
#     Edge 46, Type (0, 0), BuildingBlock: CIFDUS_clean_linker_0, # of connection points: 2
#     Edge 47, Type (0, 0), BuildingBlock: CIFDUS_clean_linker_0, # of connection points: 2
# Relax obj value: 0.034
# Max RMSD: 0.063
# Mean RMSD: 0.063
data_MOF--net-atn--node1-CEKHIL_clean_sbu_0--edge1-CIFDUS_clean_linker_0
_symmetry_space_group_name_H-M    P1
_symmetry_Int_Tables_number       1
_symmetry_cell_setting            triclinic
loop_
_symmetry_equiv_pos_as_xyz
'x, y, z'
_cell_length_a     52.038278
_cell_length_b     52.016211
_cell_length_c     23.617203
_cell_angle_alpha  89.989284
_cell_angle_beta   89.953081
_cell_angle_gamma 89.971542
loop_
_atom_site_label
_atom_site_type_symbol
_atom_site_fract_x
_atom_site_fract_y
_atom_site_fract_z
_atom_type_partial_charge
Co0 Co 0.19904 0.38108 0.99924 0.0
O1 O 0.18089 0.41348 0.99469 0.0
O2 O 0.22085 0.40898 0.02469 0.0
C3 C 0.18701 0.36714 0.91307 0.0
O4 O 0.22506 0.35171 0.00744 0.0
Co5 Co 0.17192 0.32762 0.9892 0.0
O6 O 0.20738 0.31498 0.97584 0.0
C7 C 0.16645 0.3592 0.09309 0.0
C8 C 0.20191 0.4243 0.01234 0.0
C9 C 0.22678 0.32801 0.9919 0.0
O10 O 0.1847 0.37453 0.07756 0.0
O11 O 0.15737 0.34145 0.06132 0.0
O12 O 0.20635 0.38286 0.91766 0.0
O13 O 0.17517 0.36183 0.95924 0.0
Co14 Co 0.63096 0.2133 0.98799 0.0
O15 O 0.59849 0.19575 0.98158 0.0
O16 O 0.60266 0.23635 0.00703 0.0
C17 C 0.64683 0.19891 0.90494 0.0
O18 O 0.66149 0.23817 0.9966 0.0
Co19 Co 0.68226 0.18202 0.99125 0.0
O20 O 0.69749 0.21616 0.97512 0.0
C21 C 0.64826 0.18334 0.09156 0.0
C22 C 0.58745 0.21715 0.99568 0.0
C23 C 0.68578 0.23721 0.98525 0.0
O24 O 0.6345 0.20133 0.06917 0.0
O25 O 0.66641 0.17183 0.06511 0.0
O26 O 0.63156 0.2187 0.90577 0.0
O27 O 0.65019 0.18764 0.95281 0.0
Co28 Co 0.80682 0.625 0.99769 0.0
O29 O 0.82754 0.59407 0.99699 0.0
O30 O 0.78798 0.59624 0.03023 0.0
C31 C 0.81521 0.63598 0.9064 0.0
O32 O 0.77882 0.65281 0.0029 0.0
Co33 Co 0.83068 0.67887 0.9774 0.0
O34 O 0.79445 0.68941 0.96538 0.0
C35 C 0.83672 0.65387 0.08953 0.0
C36 C 0.8079 0.58211 0.01823 0.0
C37 C 0.77591 0.67596 0.98434 0.0
O38 O 0.82142 0.63551 0.07441 0.0
O39 O 0.84408 0.67159 0.05549 0.0
O40 O 0.79762 0.61914 0.91837 0.0
O41 O 0.82835 0.64412 0.94914 0.0
Co42 Co 0.3824 0.80858 0.99304 0.0
O43 O 0.4146 0.82732 0.99169 0.0
O44 O 0.40984 0.78818 0.02608 0.0
C45 C 0.37184 0.81732 0.90151 0.0
O46 O 0.35328 0.78216 0.99961 0.0
Co47 Co 0.32967 0.83447 0.97217 0.0
O48 O 0.31749 0.79867 0.96088 0.0
C49 C 0.35473 0.83981 0.08455 0.0
C50 C 0.42523 0.80704 0.01356 0.0
C51 C 0.33007 0.77982 0.98132 0.0
O52 O 0.37274 0.82406 0.0695 0.0
O53 O 0.33719 0.84753 0.05048 0.0
O54 O 0.38763 0.7988 0.9137 0.0
O55 O 0.36435 0.83095 0.94415 0.0
Co56 Co 0.19397 0.62137 0.01527 0.0
O57 O 0.17357 0.59076 0.02346 0.0
O58 O 0.21302 0.59131 0.98884 0.0
C59 C 0.18606 0.63643 0.10394 0.0
O60 O 0.22084 0.64968 0.00173 0.0
Co61 Co 0.16675 0.67404 0.02035 0.0
O62 O 0.20215 0.68797 0.01941 0.0
C63 C 0.16393 0.64398 0.91471 0.0
C64 C 0.19284 0.57799 0.00318 0.0
C65 C 0.22173 0.67437 0.0071 0.0
O66 O 0.17928 0.6273 0.93679 0.0
O67 O 0.15509 0.66318 0.9426 0.0
O68 O 0.20397 0.61959 0.09471 0.0
O69 O 0.17202 0.64198 0.06036 0.0
Co70 Co 0.39113 0.19917 0.00545 0.0
O71 O 0.42312 0.18078 0.00968 0.0
O72 O 0.41947 0.22057 0.97809 0.0
C73 C 0.37795 0.18917 0.09465 0.0
O74 O 0.36081 0.22409 0.99626 0.0
Co75 Co 0.34067 0.16763 0.01352 0.0
O76 O 0.32437 0.20201 0.01422 0.0
C77 C 0.36835 0.16938 0.90444 0.0
C78 C 0.43431 0.20113 0.99 0.0
C79 C 0.3362 0.22279 0.00254 0.0
O80 O 0.38464 0.18526 0.92625 0.0
O81 O 0.35052 0.15868 0.93351 0.0
O82 O 0.39355 0.20817 0.08562 0.0
O83 O 0.37283 0.17536 0.05053 0.0
Co84 Co 0.83047 0.38549 0.01987 0.0
O85 O 0.84924 0.4171 0.03112 0.0
O86 O 0.80997 0.41503 0.99608 0.0
C87 C 0.83958 0.36847 0.10531 0.0
O88 O 0.80475 0.35635 0.00367 0.0
Co89 Co 0.85969 0.33267 0.02369 0.0
O90 O 0.82471 0.31817 0.01573 0.0
C91 C 0.86589 0.36737 0.92614 0.0
C92 C 0.82927 0.42921 0.012 0.0
C93 C 0.80474 0.33152 0.00491 0.0
O94 O 0.84656 0.3812 0.94228 0.0
O95 O 0.87583 0.34968 0.95676 0.0
O96 O 0.82082 0.38486 0.10037 0.0
O97 O 0.85303 0.36486 0.06049 0.0
Co98 Co 0.62265 0.8141 0.0246 0.0
O99 O 0.59275 0.83606 0.02267 0.0
O100 O 0.59201 0.79437 0.00516 0.0
C101 C 0.63776 0.82942 0.10731 0.0
O102 O 0.64964 0.78506 0.02461 0.0
Co103 Co 0.67817 0.83726 0.02612 0.0
O104 O 0.68783 0.80203 0.04978 0.0
C105 C 0.64718 0.83786 0.92087 0.0
C106 C 0.57931 0.81581 0.01062 0.0
C107 C 0.67336 0.7828 0.04 0.0
O108 O 0.63027 0.82264 0.94279 0.0
O109 O 0.66601 0.84729 0.9489 0.0
O110 O 0.62003 0.81181 0.10728 0.0
O111 O 0.64424 0.83813 0.05843 0.0
Co112 Co 0.70028 0.89107 0.49288 0.0
O113 O 0.68441 0.92449 0.49613 0.0
O114 O 0.72549 0.91733 0.51301 0.0
C115 C 0.68231 0.87956 0.40989 0.0
O116 O 0.72349 0.85898 0.4907 0.0
Co117 Co 0.66592 0.84159 0.49058 0.0
O118 O 0.69844 0.82566 0.4647 0.0
C119 C 0.67325 0.87036 0.59737 0.0
C120 C 0.70682 0.93388 0.508 0.0
C121 C 0.72049 0.83553 0.47381 0.0
O122 O 0.69097 0.88445 0.57489 0.0
O123 O 0.65981 0.8542 0.56923 0.0
O124 O 0.70287 0.89374 0.41016 0.0
O125 O 0.67247 0.87489 0.45871 0.0
Co126 Co 0.11745 0.70107 0.48554 0.0
O127 O 0.08416 0.68549 0.47675 0.0
O128 O 0.09046 0.72407 0.51289 0.0
C129 C 0.13139 0.69178 0.39658 0.0
O130 O 0.14949 0.72329 0.49941 0.0
Co131 Co 0.16506 0.6654 0.47917 0.0
O132 O 0.18424 0.69812 0.48511 0.0
C133 C 0.13589 0.66798 0.586 0.0
C134 C 0.07427 0.70627 0.49756 0.0
C135 C 0.17404 0.71976 0.49679 0.0
O136 O 0.12133 0.68536 0.56384 0.0
O137 O 0.15332 0.6562 0.55779 0.0
O138 O 0.11717 0.71177 0.40633 0.0
O139 O 0.13459 0.67668 0.43958 0.0
Co140 Co 0.31103 0.11974 0.47389 0.0
O141 O 0.33226 0.08943 0.47457 0.0
O142 O 0.29148 0.09001 0.50052 0.0
C143 C 0.32219 0.13245 0.38526 0.0
O144 O 0.28314 0.14782 0.47632 0.0
Co145 Co 0.33733 0.17282 0.46672 0.0
O146 O 0.30218 0.18422 0.44605 0.0
C147 C 0.3373 0.14548 0.57597 0.0
C148 C 0.3124 0.07676 0.49219 0.0
C149 C 0.28218 0.17138 0.45905 0.0
O150 O 0.32243 0.12833 0.55397 0.0
O151 O 0.34692 0.16396 0.54704 0.0
O152 O 0.30449 0.11529 0.39326 0.0
O153 O 0.33432 0.13955 0.43052 0.0
Co154 Co 0.89143 0.31626 0.50393 0.0
O155 O 0.92403 0.33421 0.49801 0.0
O156 O 0.91932 0.2948 0.53106 0.0
C157 C 0.8775 0.32688 0.41668 0.0
O158 O 0.86187 0.29044 0.5141 0.0
Co159 Co 0.83801 0.34321 0.4917 0.0
O160 O 0.82558 0.30767 0.47903 0.0
C161 C 0.86914 0.34997 0.59589 0.0
C162 C 0.93477 0.31342 0.51728 0.0
C163 C 0.83836 0.2885 0.49729 0.0
O164 O 0.8849 0.33189 0.58125 0.0
O165 O 0.85121 0.35832 0.56367 0.0
O166 O 0.89327 0.30766 0.42292 0.0
O167 O 0.87219 0.33952 0.46184 0.0
Co168 Co 0.70022 0.13176 0.51694 0.0
O169 O 0.67948 0.10141 0.52575 0.0
O170 O 0.71987 0.10096 0.49718 0.0
C171 C 0.68894 0.14966 0.60043 0.0
O172 O 0.72763 0.15964 0.50425 0.0
Co173 Co 0.67341 0.18578 0.5141 0.0
O174 O 0.70922 0.19859 0.51668 0.0
C175 C 0.67083 0.15149 0.41449 0.0
C176 C 0.69921 0.08804 0.50987 0.0
C177 C 0.72881 0.1844 0.50799 0.0
O178 O 0.68753 0.13608 0.43649 0.0
O179 O 0.66106 0.17053 0.44131 0.0
O180 O 0.70701 0.1324 0.5988 0.0
O181 O 0.67727 0.15369 0.55336 0.0
Co182 Co 0.87791 0.69824 0.51867 0.0
O183 O 0.90818 0.67684 0.51988 0.0
O184 O 0.90725 0.71667 0.48737 0.0
C185 C 0.86606 0.68994 0.60956 0.0
O186 O 0.85073 0.72669 0.51268 0.0
Co187 Co 0.82386 0.6743 0.53572 0.0
O188 O 0.81181 0.71042 0.53446 0.0
C189 C 0.85025 0.66781 0.42582 0.0
C190 C 0.92065 0.6962 0.49886 0.0
C191 C 0.82638 0.72917 0.52134 0.0
O192 O 0.86784 0.6839 0.44133 0.0
O193 O 0.83265 0.65983 0.45942 0.0
O194 O 0.88328 0.70724 0.59823 0.0
O195 O 0.85814 0.67688 0.56647 0.0
Co196 Co 0.30932 0.88004 0.51341 0.0
O197 O 0.32717 0.91267 0.51419 0.0
O198 O 0.288 0.90687 0.48081 0.0
C199 C 0.31865 0.86964 0.60473 0.0
O200 O 0.28364 0.85029 0.50793 0.0
Co201 Co 0.33714 0.82819 0.53318 0.0
O202 O 0.30182 0.81464 0.54355 0.0
C203 C 0.34125 0.85361 0.42112 0.0
C204 C 0.30649 0.92274 0.49288 0.0
C205 C 0.28229 0.82679 0.52498 0.0
O206 O 0.32469 0.87082 0.43648 0.0
O207 O 0.34992 0.83644 0.45505 0.0
O208 O 0.29973 0.885 0.5929 0.0
O209 O 0.33238 0.86262 0.56185 0.0
Co210 Co 0.1322 0.31408 0.51733 0.0
O211 O 0.10337 0.33749 0.52256 0.0
O212 O 0.1006 0.29726 0.49339 0.0
C213 C 0.1485 0.32371 0.60293 0.0
O214 O 0.15723 0.28363 0.50846 0.0
Co215 Co 0.1892 0.33327 0.52414 0.0
O216 O 0.19749 0.29625 0.53034 0.0
C217 C 0.15719 0.34409 0.42341 0.0
C218 C 0.08894 0.3187 0.50544 0.0
C219 C 0.18119 0.27887 0.51814 0.0
O220 O 0.14023 0.3273 0.43871 0.0
O221 O 0.17606 0.35086 0.45478 0.0
O222 O 0.1298 0.30722 0.59889 0.0
O223 O 0.15532 0.33461 0.55658 0.0
H224 H 0.23167 0.54271 0.01465 0.0
H225 H 0.15031 0.54965 0.98372 0.0
H226 H 0.14584 0.50298 0.98431 0.0
H227 H 0.16464 0.46012 0.99572 0.0
H228 H 0.24555 0.45246 0.03132 0.0
H229 H 0.25055 0.49923 0.02759 0.0
C230 C 0.21308 0.53391 0.00734 0.0
C231 C 0.19139 0.54961 0.99865 0.0
C232 C 0.21048 0.5069 0.00939 0.0
C233 C 0.16731 0.53799 0.99035 0.0
C234 C 0.16471 0.51129 0.99087 0.0
C235 C 0.18337 0.46865 0.00291 0.0
C236 C 0.20466 0.45274 0.01389 0.0
C237 C 0.18608 0.49554 1.00091 0.0
C238 C 0.22878 0.46421 0.02311 0.0
C239 C 0.23169 0.49099 0.02067 0.0
H240 H 0.46762 0.24204 1.00032 0.0
H241 H 0.46471 0.16054 0.96705 0.0
H242 H 0.51144 0.15847 0.96579 0.0
H243 H 0.55311 0.17905 0.97741 0.0
H244 H 0.55752 0.26013 0.01408 0.0
H245 H 0.51045 0.2631 0.01136 0.0
C246 C 0.4773 0.22397 0.99199 0.0
C247 C 0.46267 0.20149 0.98346 0.0
C248 C 0.50447 0.22275 0.99275 0.0
C249 C 0.47547 0.17811 0.9737 0.0
C250 C 0.50224 0.17687 0.97315 0.0
C251 C 0.54386 0.19743 0.98488 0.0
C252 C 0.55891 0.21931 0.99611 0.0
C253 C 0.51692 0.19895 0.98335 0.0
C254 C 0.54645 0.24293 0.00564 0.0
C255 C 0.51951 0.24465 0.00385 0.0
H256 H 0.78784 0.46159 0.02242 0.0
H257 H 0.87005 0.46101 0.99933 0.0
H258 H 0.87084 0.50793 1.00072 0.0
H259 H 0.84838 0.54928 0.0084 0.0
H260 H 0.76652 0.55055 0.03664 0.0
H261 H 0.76542 0.50348 0.03426 0.0
C262 C 0.80585 0.4718 0.01724 0.0
C263 C 0.82883 0.45779 0.01015 0.0
C264 C 0.80629 0.49896 0.01971 0.0
C265 C 0.85209 0.47129 0.00463 0.0
C266 C 0.85258 0.49815 0.00556 0.0
C267 C 0.8303 0.53929 0.01447 0.0
C268 C 0.80757 0.55353 0.02269 0.0
C269 C 0.82984 0.51221 0.01328 0.0
C270 C 0.78435 0.54015 0.0306 0.0
C271 C 0.78368 0.51319 0.02885 0.0
H272 H 0.54362 0.77793 0.02934 0.0
H273 H 0.55105 0.85783 0.98344 0.0
H274 H 0.50438 0.86237 0.98157 0.0
H275 H 0.46128 0.84394 0.99368 0.0
H276 H 0.4533 0.76456 0.04338 0.0
H277 H 0.50007 0.75964 0.04383 0.0
C278 C 0.53497 0.79623 0.0184 0.0
C279 C 0.55085 0.81745 0.00606 0.0
C280 C 0.50794 0.79892 0.01879 0.0
C281 C 0.53932 0.84117 0.99297 0.0
C282 C 0.51259 0.84382 0.99204 0.0
C283 C 0.46974 0.82559 0.005 0.0
C284 C 0.45368 0.80468 0.01857 0.0
C285 C 0.49669 0.8229 0.00523 0.0
C286 C 0.4651 0.78105 0.03305 0.0
C287 C 0.49191 0.77817 0.03301 0.0
H288 H 0.73841 0.05214 0.51153 0.0
H289 H 0.65587 0.05972 0.50335 0.0
H290 H 0.65118 0.01324 0.50364 0.0
H291 H 0.66993 0.97043 0.50659 0.0
H292 H 0.75213 0.96117 0.51676 0.0
H293 H 0.7575 0.00809 0.51606 0.0
C294 C 0.71946 0.04355 0.50942 0.0
C295 C 0.69753 0.05951 0.50723 0.0
C296 C 0.71678 0.01647 0.51053 0.0
C297 C 0.67309 0.04803 0.50517 0.0
C298 C 0.67034 0.02137 0.5054 0.0
C299 C 0.68908 0.97858 0.5089 0.0
C300 C 0.71058 0.96221 0.51175 0.0
C301 C 0.69198 1.00542 0.50833 0.0
C302 C 0.73521 0.97327 0.51481 0.0
C303 C 0.73828 1.00013 0.51412 0.0
H304 H 0.95565 0.73535 0.50838 0.0
H305 H 0.94919 0.65396 0.47652 0.0
H306 H 0.9959 0.65008 0.47356 0.0
H307 H 0.03849 0.66927 0.48238 0.0
H308 H 0.04614 0.75011 0.5191 0.0
H309 H 0.99917 0.75472 0.51862 0.0
C310 C 0.96454 0.71688 0.50005 0.0
C311 C 0.94897 0.69499 0.49206 0.0
C312 C 0.99161 0.71462 0.50011 0.0
C313 C 0.96073 0.67108 0.48253 0.0
C314 C 0.98745 0.66883 0.48104 0.0
C315 C 0.02996 0.68795 0.49039 0.0
C316 C 0.04588 0.70932 0.50075 0.0
C317 C 1.00307 0.69038 0.49033 0.0
C318 C 0.03437 0.73331 0.5113 0.0
C319 C 0.0075 0.73596 0.51072 0.0
H320 H 0.27489 0.04053 0.4749 0.0
H321 H 0.35418 0.04954 0.52387 0.0
H322 H 0.35951 1.00297 0.52739 0.0
H323 H 0.34219 0.9596 0.51448 0.0
H324 H 0.26349 0.94978 0.46167 0.0
H325 H 0.25751 0.99647 0.46087 0.0
C326 C 0.29318 0.03222 0.4871 0.0
C327 C 0.31404 0.04848 0.49965 0.0
C328 C 0.29636 1.00523 0.48744 0.0
C329 C 0.3378 0.03746 0.51424 0.0
C330 C 0.34091 0.0108 0.51603 0.0
C331 C 0.32375 0.96763 0.50245 0.0
C332 C 0.30337 0.95111 0.48797 0.0
C333 C 0.32044 0.99449 0.50211 0.0
C334 C 0.2796 0.96198 0.47266 0.0
C335 C 0.2761 0.98872 0.47252 0.0
H336 H 0.05248 0.28127 0.51738 0.0
H337 H 0.06159 0.36274 0.49049 0.0
H338 H 0.01495 0.36845 0.49221 0.0
H339 H 0.9714 0.35042 0.50232 0.0
H340 H 0.96224 0.26933 0.53479 0.0
H341 H 0.00881 0.26343 0.53063 0.0
C342 C 0.04421 0.30022 0.51136 0.0
C343 C 0.06052 0.32151 0.50319 0.0
C344 C 0.01729 0.30349 0.51406 0.0
C345 C 0.0495 0.34601 0.4966 0.0
C346 C 0.02281 0.34931 0.49774 0.0
C347 C 0.97958 0.33147 0.50878 0.0
C348 C 0.96323 0.31037 0.51887 0.0
C349 C 0.00649 0.32822 0.50677 0.0
C350 C 0.97428 0.28597 0.52726 0.0
C351 C 1.00096 0.28253 0.52458 0.0
H352 H 0.24411 0.29047 0.92312 0.0
H353 H 0.26553 0.33523 0.06911 0.0
H354 H 0.30385 0.30835 0.08238 0.0
H355 H 0.32851 0.2686 0.05816 0.0
H356 H 0.30605 0.22474 0.91154 0.0
H357 H 0.27127 0.2549 0.89216 0.0
C358 C 0.25734 0.29453 0.95747 0.0
C359 C 0.25182 0.31452 0.99555 0.0
C360 C 0.27921 0.2791 0.96465 0.0
C361 C 0.26934 0.31988 0.03928 0.0
C362 C 0.2912 0.30443 0.04701 0.0
C363 C 0.3164 0.26622 0.02118 0.0
C364 C 0.31977 0.24462 0.98609 0.0
C365 C 0.29601 0.28353 0.01076 0.0
C366 C 0.30379 0.24136 0.9388 0.0
C367 C 0.28381 0.25848 0.92793 0.0
H368 H 0.75526 0.33305 0.04748 0.0
H369 H 0.80336 0.29648 0.92236 0.0
H370 H 0.76931 0.26602 0.90032 0.0
H371 H 0.72833 0.24649 0.924 0.0
H372 H 0.67959 0.28074 0.05081 0.0
H373 H 0.71101 0.31551 0.06423 0.0
C374 C 0.75792 0.31876 0.01457 0.0
C375 C 0.78181 0.31689 0.98666 0.0
C376 C 0.73826 0.3007 0.0029 0.0
C377 C 0.78518 0.29816 0.94451 0.0
C378 C 0.76575 0.28069 0.93198 0.0
C379 C 0.72437 0.26175 0.95412 0.0
C380 C 0.70182 0.26084 0.98687 0.0
C381 C 0.7426 0.28125 0.96212 0.0
C382 C 0.69681 0.28098 0.02503 0.0
C383 C 0.71488 0.30076 0.03298 0.0
H384 H 0.75274 0.69426 0.07849 0.0
H385 H 0.74395 0.68794 0.89786 0.0
H386 H 0.70724 0.71747 0.90062 0.0
H387 H 0.68213 0.75018 0.95268 0.0
H388 H 0.69447 0.75994 0.13159 0.0
H389 H 0.72475 0.72391 0.13197 0.0
C390 C 0.74218 0.69877 0.04016 0.0
C391 C 0.75063 0.68873 0.98817 0.0
C392 C 0.72182 0.71664 0.0419 0.0
C393 C 0.73743 0.69522 0.93839 0.0
C394 C 0.71659 0.71224 0.93996 0.0
C395 C 0.69079 0.74372 0.99196 0.0
C396 C 0.68581 0.7573 0.04225 0.0
C397 C 0.70916 0.72377 0.9912 0.0
C398 C 0.69776 0.74943 0.09264 0.0
C399 C 0.71524 0.72899 0.09272 0.0
H400 H 0.26624 0.68389 0.06568 0.0
H401 H 0.22725 0.69846 0.90805 0.0
H402 H 0.259 0.73111 0.88316 0.0
H403 H 0.29437 0.75931 0.91158 0.0
H404 H 0.33442 0.74514 0.06811 0.0
H405 H 0.30615 0.70849 0.08789 0.0
C406 C 0.26531 0.69369 0.0252 0.0
C407 C 0.24464 0.68873 0.98841 0.0
C408 C 0.28357 0.71281 0.01142 0.0
C409 C 0.24321 0.70185 0.93657 0.0
C410 C 0.26122 0.72066 0.92256 0.0
C411 C 0.29717 0.74792 0.94958 0.0
C412 C 0.31623 0.7551 0.98863 0.0
C413 C 0.28094 0.72691 0.96047 0.0
C414 C 0.31988 0.73999 0.03735 0.0
C415 C 0.30361 0.71911 0.04882 0.0
H416 H 0.79133 0.73938 0.44206 0.0
H417 H 0.83258 0.7743 0.57982 0.0
H418 H 0.80512 0.81275 0.57326 0.0
H419 H 0.76557 0.83381 0.53517 0.0
H420 H 0.72516 0.79743 0.39723 0.0
H421 H 0.7563 0.76258 0.39608 0.0
C422 C 0.79461 0.7557 0.46979 0.0
C423 C 0.81376 0.75416 0.51137 0.0
C424 C 0.77876 0.77744 0.46585 0.0
C425 C 0.81797 0.77526 0.54723 0.0
C426 C 0.80217 0.79712 0.54366 0.0
C427 C 0.76403 0.81859 0.50402 0.0
C428 C 0.74283 0.81806 0.46686 0.0
C429 C 0.78196 0.79813 0.5041 0.0
C430 C 0.74106 0.79812 0.42683 0.0
C431 C 0.75883 0.77811 0.42615 0.0
H432 H 0.26901 0.78308 0.57964 0.0
H433 H 0.24016 0.83809 0.45874 0.0
H434 H 0.20211 0.81121 0.443 0.0
H435 H 0.17904 0.7695 0.45732 0.0
H436 H 0.20988 0.71496 0.57687 0.0
H437 H 0.24482 0.74424 0.59979 0.0
C438 C 0.25435 0.78937 0.55008 0.0
C439 C 0.25767 0.81242 0.5199 0.0
C440 C 0.23277 0.77377 0.54091 0.0
C441 C 0.23818 0.82039 0.48249 0.0
C442 C 0.21643 0.80495 0.47329 0.0
C443 C 0.19315 0.76441 0.48915 0.0
C444 C 0.192 0.7401 0.51527 0.0
C445 C 0.21376 0.78126 0.50138 0.0
C446 C 0.21051 0.73353 0.55606 0.0
C447 C 0.23054 0.75022 0.56909 0.0
H448 H 0.24713 0.17887 0.54359 0.0
H449 H 0.26327 0.19699 0.36917 0.0
H450 H 0.22945 0.22957 0.3693 0.0
H451 H 0.20059 0.25779 0.42343 0.0
H452 H 0.1866 0.24245 0.59976 0.0
H453 H 0.21377 0.20392 0.59481 0.0
C454 C 0.24252 0.18935 0.5052 0.0
C455 C 0.25749 0.18545 0.45627 0.0
C456 C 0.22363 0.20887 0.50631 0.0
C457 C 0.25185 0.19958 0.40713 0.0
C458 C 0.23264 0.21834 0.40733 0.0
C459 C 0.20281 0.24542 0.46011 0.0
C460 C 0.19138 0.25257 0.51161 0.0
C461 C 0.21915 0.22388 0.45726 0.0
C462 C 0.19489 0.23695 0.55945 0.0
C463 C 0.21062 0.21508 0.55668 0.0
H464 H 0.8051 0.26804 0.42255 0.0
H465 H 0.84025 0.25382 0.5846 0.0
H466 H 0.81121 0.21729 0.60031 0.0
H467 H 0.77173 0.19313 0.57252 0.0
H468 H 0.73772 0.20787 0.40945 0.0
H469 H 0.77056 0.24005 0.38896 0.0
C470 C 0.8067 0.25662 0.46085 0.0
C471 C 0.82453 0.26374 0.50264 0.0
C472 C 0.79006 0.23573 0.46936 0.0
C473 C 0.82666 0.24866 0.55179 0.0
C474 C 0.80995 0.22788 0.5609 0.0
C475 C 0.77216 0.20282 0.53187 0.0
C476 C 0.75255 0.19809 0.49222 0.0
C477 C 0.79103 0.22168 0.52066 0.0
C478 C 0.75285 0.21108 0.44015 0.0
C479 C 0.77148 0.22962 0.42865 0.0
H480 H 0.1266 0.33017 0.33456 0.0
H481 H 0.1872 0.3827 0.38177 0.0
H482 H 0.19311 0.3949 0.28348 0.0
H483 H 0.18569 0.38591 0.18304 0.0
H484 H 0.12502 0.33351 0.13569 0.0
H485 H 0.11442 0.32655 0.23463 0.0
C486 C 0.14076 0.34462 0.3235 0.0
C487 C 0.15688 0.35484 0.3654 0.0
C488 C 0.14434 0.3515 0.26656 0.0
C489 C 0.17487 0.37393 0.35031 0.0
C490 C 0.17832 0.38102 0.29397 0.0
C491 C 0.16981 0.3734 0.19427 0.0
C492 C 0.15675 0.35974 0.15198 0.0
C493 C 0.1639 0.36915 0.2515 0.0
C494 C 0.13591 0.34387 0.16738 0.0
C495 C 0.12976 0.33981 0.22408 0.0
H496 H 0.63575 0.17955 0.35566 0.0
H497 H 0.69178 0.11887 0.33553 0.0
H498 H 0.68701 0.12141 0.23283 0.0
H499 H 0.67132 0.14457 0.14968 0.0
H500 H 0.61723 0.20698 0.16998 0.0
H501 H 0.61676 0.19978 0.27218 0.0
C502 C 0.64674 0.16659 0.32903 0.0
C503 C 0.6645 0.14936 0.35346 0.0
C504 C 0.64446 0.16866 0.2701 0.0
C505 C 0.67816 0.13247 0.31806 0.0
C506 C 0.67553 0.13401 0.25926 0.0
C507 C 0.65919 0.15651 0.17621 0.0
C508 C 0.64471 0.17667 0.15211 0.0
C509 C 0.65945 0.15266 0.23493 0.0
C510 C 0.62877 0.19153 0.18728 0.0
C511 C 0.62855 0.18746 0.24578 0.0
H512 H 0.87546 0.68718 0.33275 0.0
H513 H 0.82086 0.62896 0.38275 0.0
H514 H 0.81328 0.61805 0.28403 0.0
H515 H 0.8192 0.62735 0.18262 0.0
H516 H 0.87346 0.68589 0.1326 0.0
H517 H 0.88407 0.69397 0.23127 0.0
C518 C 0.86219 0.67185 0.32217 0.0
C519 C 0.84862 0.6592 0.36559 0.0
C520 C 0.85759 0.66575 0.26482 0.0
C521 C 0.83147 0.63934 0.35059 0.0
C522 C 0.82705 0.63302 0.29389 0.0
C523 C 0.8336 0.64162 0.19317 0.0
C524 C 0.84521 0.65611 0.14975 0.0
C525 C 0.83954 0.64648 0.2505 0.0
C526 C 0.86389 0.67454 0.16474 0.0
C527 C 0.87004 0.67924 0.22142 0.0
H528 H 0.32167 0.8787 0.32805 0.0
H529 H 0.38006 0.82417 0.37763 0.0
H530 H 0.39081 0.81651 0.27887 0.0
H531 H 0.38138 0.82234 0.17751 0.0
H532 H 0.32282 0.87669 0.12788 0.0
H533 H 0.31481 0.8873 0.22659 0.0
C534 C 0.33699 0.86542 0.31738 0.0
C535 C 0.34973 0.85189 0.36075 0.0
C536 C 0.34305 0.8608 0.25997 0.0
C537 C 0.3696 0.83475 0.34557 0.0
C538 C 0.37583 0.83028 0.28882 0.0
C539 C 0.36712 0.83676 0.18814 0.0
C540 C 0.35261 0.84838 0.1448 0.0
C541 C 0.36232 0.84274 0.24551 0.0
C542 C 0.33421 0.86711 0.15993 0.0
C543 C 0.32953 0.87326 0.21665 0.0
H544 H 0.16162 0.6318 0.64841 0.0
H545 H 0.10712 0.69402 0.66477 0.0
H546 H 0.10957 0.69084 0.76769 0.0
H547 H 0.13003 0.67308 0.85312 0.0
H548 H 0.18459 0.61093 0.83655 0.0
H549 H 0.17903 0.61139 0.73405 0.0
C550 C 0.14998 0.64449 0.67432 0.0
C551 C 0.13438 0.6633 0.64834 0.0
C552 C 0.15163 0.64274 0.73375 0.0
C553 C 0.11936 0.67937 0.68311 0.0
C554 C 0.12083 0.67766 0.7422 0.0
C555 C 0.14053 0.65941 0.82728 0.0
C556 C 0.15794 0.64217 0.853 0.0
C557 C 0.13736 0.65983 0.76801 0.0
C558 C 0.17113 0.62451 0.81839 0.0
C559 C 0.16803 0.6248 0.75952 0.0
H560 H 0.3722 0.17375 0.63661 0.0
H561 H 0.31394 0.1153 0.65604 0.0
H562 H 0.3197 0.11626 0.75852 0.0
H563 H 0.33922 0.13553 0.84318 0.0
H564 H 0.39763 0.19384 0.82404 0.0
H565 H 0.39401 0.19078 0.72122 0.0
C566 C 0.36084 0.16108 0.66311 0.0
C567 C 0.34246 0.14464 0.63817 0.0
C568 C 0.36424 0.16169 0.72233 0.0
C569 C 0.32818 0.12822 0.67361 0.0
C570 C 0.33142 0.12878 0.73244 0.0
C571 C 0.3514 0.14742 0.81669 0.0
C572 C 0.36857 0.16505 0.84188 0.0
C573 C 0.34911 0.14571 0.75735 0.0
C574 C 0.38423 0.1801 0.80633 0.0
C575 C 0.38208 0.17846 0.7473 0.0
H576 H 0.8438 0.39267 0.83759 0.0
H577 H 0.90855 0.34459 0.8809 0.0
H578 H 0.91718 0.33688 0.78116 0.0
H579 H 0.90221 0.33824 0.68247 0.0
H580 H 0.8375 0.38668 0.64004 0.0
H581 H 0.83336 0.39977 0.73798 0.0
C582 C 0.86019 0.38104 0.82528 0.0
C583 C 0.87498 0.3687 0.8668 0.0
C584 C 0.86488 0.37626 0.76773 0.0
C585 C 0.8964 0.35395 0.84989 0.0
C586 C 0.90136 0.34939 0.79273 0.0
C587 C 0.88746 0.35194 0.69447 0.0
C588 C 0.86983 0.36078 0.65394 0.0
C589 C 0.885 0.35949 0.75136 0.0
C590 C 0.85112 0.37899 0.67027 0.0
C591 C 0.84867 0.38662 0.72649 0.0
H592 H 0.67775 0.87117 0.8632 0.0
H593 H 0.61389 0.81902 0.8409 0.0
H594 H 0.61489 0.82683 0.73892 0.0
H595 H 0.63601 0.84553 0.65642 0.0
H596 H 0.70106 0.89621 0.67819 0.0
H597 H 0.69712 0.89209 0.78094 0.0
C598 C 0.66389 0.86154 0.83628 0.0
C599 C 0.64596 0.8442 0.85979 0.0
C600 C 0.66481 0.86582 0.77778 0.0
C601 C 0.628 0.83228 0.82406 0.0
C602 C 0.62859 0.83672 0.76573 0.0
C603 C 0.64929 0.8559 0.68341 0.0
C604 C 0.66907 0.87091 0.6594 0.0
C605 C 0.64726 0.85301 0.74216 0.0
C606 C 0.68577 0.88443 0.69536 0.0
C607 C 0.68359 0.88198 0.75411 0.0
H608 H 0.82946 0.65581 0.644 0.0
H609 H 0.8838 0.71145 0.70722 0.0
H610 H 0.87231 0.70034 0.80446 0.0
H611 H 0.84821 0.67347 0.87182 0.0
H612 H 0.7936 0.61806 0.80885 0.0
H613 H 0.80371 0.63048 0.71155 0.0
C614 C 0.83867 0.66562 0.67906 0.0
C615 C 0.85757 0.68435 0.66827 0.0
C616 C 0.83198 0.6591 0.73504 0.0
C617 C 0.86922 0.69694 0.71423 0.0
C618 C 0.8627 0.69056 0.76994 0.0
C619 C 0.83842 0.6642 0.83682 0.0
C620 C 0.82029 0.64474 0.84766 0.0
C621 C 0.84433 0.67145 0.78089 0.0
C622 C 0.80768 0.63305 0.80178 0.0
C623 C 0.81348 0.64012 0.74605 0.0
H624 H 0.35323 0.83337 0.63897 0.0
H625 H 0.29717 0.88723 0.70271 0.0
H626 H 0.30816 0.87543 0.79987 0.0
H627 H 0.33477 0.85089 0.86707 0.0
H628 H 0.39019 0.79634 0.80353 0.0
H629 H 0.37832 0.80721 0.70627 0.0
C630 C 0.34334 0.84244 0.67412 0.0
C631 C 0.32449 0.86128 0.66348 0.0
C632 C 0.34969 0.83546 0.73005 0.0
C633 C 0.31176 0.8727 0.70958 0.0
C634 C 0.31807 0.86599 0.76524 0.0
C635 C 0.34418 0.84129 0.83195 0.0
C636 C 0.36346 0.82291 0.84266 0.0
C637 C 0.33717 0.84757 0.77603 0.0
C638 C 0.37531 0.81055 0.79659 0.0
C639 C 0.36856 0.81681 0.74088 0.0
H640 H 0.13419 0.31022 0.70938 0.0
H641 H 0.19109 0.35322 0.61611 0.0
H642 H 0.20936 0.36933 0.70401 0.0
H643 H 0.20708 0.374 0.80746 0.0
H644 H 0.14921 0.33186 0.9 0.0
H645 H 0.13367 0.31268 0.81286 0.0
C646 C 0.15079 0.32281 0.70845 0.0
C647 C 0.16112 0.33062 0.65651 0.0
C648 C 0.16098 0.33242 0.75914 0.0
C649 C 0.18265 0.347 0.65572 0.0
C650 C 0.19312 0.35631 0.70596 0.0
C651 C 0.19124 0.36046 0.80844 0.0
C652 C 0.17927 0.35454 0.85995 0.0
C653 C 0.18209 0.34962 0.75792 0.0
C654 C 0.15877 0.33688 0.86079 0.0
C655 C 0.14978 0.32585 0.81094 0.0
H656 H 0.63843 0.21417 0.79653 0.0
H657 H 0.6839 0.1622 0.89772 0.0
H658 H 0.7027 0.14368 0.81245 0.0
H659 H 0.70395 0.14006 0.70871 0.0
H660 H 0.65701 0.19084 0.60781 0.0
H661 H 0.64133 0.21203 0.69297 0.0
C662 C 0.65266 0.19899 0.79984 0.0
C663 C 0.65964 0.1895 0.85323 0.0
C664 C 0.66309 0.18808 0.75057 0.0
C665 C 0.67807 0.16978 0.857 0.0
C666 C 0.68885 0.15913 0.80825 0.0
C667 C 0.69053 0.15595 0.70545 0.0
C668 C 0.6816 0.16376 0.65213 0.0
C669 C 0.68115 0.1678 0.75476 0.0
C670 C 0.66413 0.18435 0.64843 0.0
C671 C 0.65509 0.1965 0.69713 0.0
H672 H 0.88896 0.30952 0.31069 0.0
H673 H 0.83797 0.36019 0.40213 0.0
H674 H 0.81966 0.37554 0.31397 0.0
H675 H 0.82077 0.37777 0.2105 0.0
H676 H 0.87316 0.32889 0.11844 0.0
H677 H 0.88794 0.30963 0.20653 0.0
C678 C 0.87362 0.32365 0.31117 0.0
C679 C 0.86501 0.33375 0.3628 0.0
C680 C 0.86345 0.33293 0.26002 0.0
C681 C 0.84511 0.35211 0.36294 0.0
C682 C 0.83458 0.361 0.31247 0.0
C683 C 0.83513 0.36266 0.20978 0.0
C684 C 0.84596 0.35494 0.15823 0.0
C685 C 0.84401 0.35202 0.26071 0.0
C686 C 0.8646 0.33533 0.15775 0.0
C687 C 0.87314 0.32429 0.20813 0.0
H688 H 0.62358 0.82062 0.21625 0.0
H689 H 0.67986 0.86013 0.11403 0.0
H690 H 0.69924 0.87856 0.19857 0.0
H691 H 0.69924 0.88492 0.30157 0.0
H692 H 0.64194 0.84662 0.40338 0.0
H693 H 0.62404 0.82637 0.31934 0.0
C694 C 0.64021 0.83308 0.21264 0.0
C695 C 0.65024 0.83899 0.15911 0.0
C696 C 0.65103 0.84402 0.26139 0.0
C697 C 0.67172 0.85529 0.15486 0.0
C698 C 0.68283 0.86591 0.20317 0.0
C699 C 0.68288 0.8721 0.30526 0.0
C700 C 0.67195 0.86732 0.3585 0.0
C701 C 0.67246 0.86066 0.25663 0.0
C702 C 0.65075 0.85066 0.36279 0.0
C703 C 0.64046 0.83902 0.31475 0.0
H704 H 0.1671 0.65593 0.36513 0.0
H705 H 0.11642 0.714 0.29779 0.0
H706 H 0.12915 0.70268 0.20154 0.0
H707 H 0.15342 0.67502 0.13567 0.0
H708 H 0.20542 0.61814 0.20305 0.0
H709 H 0.19364 0.63031 0.29937 0.0
C710 C 0.15896 0.66615 0.32937 0.0
C711 C 0.14069 0.68562 0.33873 0.0
C712 C 0.16658 0.65973 0.27385 0.0
C713 C 0.13051 0.69889 0.2919 0.0
C714 C 0.13773 0.6924 0.2367 0.0
C715 C 0.16226 0.66542 0.17146 0.0
C716 C 0.18012 0.64557 0.16203 0.0
C717 C 0.15555 0.67267 0.22705 0.0
C718 C 0.19158 0.63347 0.20895 0.0
C719 C 0.18481 0.64036 0.2642 0.0
H720 H 0.35527 0.17106 0.35512 0.0
H721 H 0.30395 0.11419 0.28529 0.0
H722 H 0.31601 0.12694 0.18958 0.0
H723 H 0.3423 0.1532 0.12501 0.0
H724 H 0.39285 0.21084 0.19433 0.0
H725 H 0.37989 0.19898 0.2902 0.0
C726 C 0.34668 0.16155 0.31893 0.0
C727 C 0.32888 0.14157 0.32752 0.0
C728 C 0.3536 0.16908 0.26362 0.0
C729 C 0.31776 0.12959 0.28007 0.0
C730 C 0.32467 0.13684 0.22515 0.0
C731 C 0.35038 0.16323 0.16109 0.0
C732 C 0.36864 0.18276 0.15239 0.0
C733 C 0.34275 0.15639 0.21633 0.0
C734 C 0.37878 0.19569 0.19969 0.0
C735 C 0.37142 0.18889 0.25467 0.0
loop_
_geom_bond_atom_site_label_1
_geom_bond_atom_site_label_2
_geom_bond_distance
_geom_bond_site_symmetry_2
_ccdc_geom_bond_type
Co0 O1 2.216 . S
Co0 O2 2.091 1_556 S
Co0 O4 2.004 . S
Co0 O10 2.021 1_556 S
Co0 O12 2.137 . S
Co0 O13 2.244 . S
O1 Co0 2.216 . S
O1 C8 1.247 1_556 S
O2 Co0 2.091 1_554 S
O2 C8 1.261 . S
C3 O12 1.247 . S
C3 O13 1.272 . S
O4 Co0 2.004 . S
O4 C9 1.259 . S
Co5 O6 2.061 . S
Co5 O11 2.051 . S
Co5 O13 2.135 1_554 S
O6 Co5 2.061 . S
O6 C9 1.235 1_554 S
C7 O10 1.238 . S
C7 O11 1.241 . S
C8 O1 1.247 1_554 S
C8 O2 1.261 . S
C9 O4 1.259 . S
C9 O6 1.235 1_556 S
O10 Co0 2.021 1_554 S
O10 C7 1.238 . S
O11 Co5 2.051 . S
O11 C7 1.241 . S
O12 Co0 2.137 . S
O12 C3 1.247 . S
O13 Co0 2.244 . S
O13 C3 1.272 . S
O13 Co5 2.135 1_556 S
Co14 O15 2.216 . S
Co14 O16 2.091 1_556 S
Co14 O18 2.004 . S
Co14 O24 2.021 1_556 S
Co14 O26 2.137 . S
Co14 O27 2.244 . S
O15 Co14 2.216 . S
O15 C22 1.247 1_556 S
O16 Co14 2.091 1_554 S
O16 C22 1.261 . S
C17 O26 1.247 . S
C17 O27 1.272 . S
O18 Co14 2.004 . S
O18 C23 1.259 . S
Co19 O20 2.061 . S
Co19 O25 2.051 . S
Co19 O27 2.135 1_554 S
O20 Co19 2.061 . S
O20 C23 1.235 1_554 S
C21 O24 1.238 . S
C21 O25 1.241 . S
C22 O15 1.247 1_554 S
C22 O16 1.261 . S
C23 O18 1.259 . S
C23 O20 1.235 1_556 S
O24 Co14 2.021 1_554 S
O24 C21 1.238 . S
O25 Co19 2.051 . S
O25 C21 1.241 . S
O26 Co14 2.137 . S
O26 C17 1.247 . S
O27 Co14 2.244 . S
O27 C17 1.272 . S
O27 Co19 2.135 1_556 S
Co28 O29 2.216 . S
Co28 O30 2.091 1_556 S
Co28 O32 2.004 . S
Co28 O38 2.021 1_556 S
Co28 O40 2.137 . S
Co28 O41 2.244 . S
O29 Co28 2.216 . S
O29 C36 1.247 1_556 S
O30 Co28 2.091 1_554 S
O30 C36 1.261 . S
C31 O40 1.247 . S
C31 O41 1.272 . S
O32 Co28 2.004 . S
O32 C37 1.259 . S
Co33 O34 2.061 . S
Co33 O39 2.051 . S
Co33 O41 2.135 1_554 S
O34 Co33 2.061 . S
O34 C37 1.235 1_554 S
C35 O38 1.238 . S
C35 O39 1.241 . S
C36 O29 1.247 1_554 S
C36 O30 1.261 . S
C37 O32 1.259 . S
C37 O34 1.235 1_556 S
O38 Co28 2.021 1_554 S
O38 C35 1.238 . S
O39 Co33 2.051 . S
O39 C35 1.241 . S
O40 Co28 2.137 . S
O40 C31 1.247 . S
O41 Co28 2.244 . S
O41 C31 1.272 . S
O41 Co33 2.135 1_556 S
Co42 O43 2.216 . S
Co42 O44 2.091 1_556 S
Co42 O46 2.004 . S
Co42 O52 2.021 1_556 S
Co42 O54 2.137 . S
Co42 O55 2.244 . S
O43 Co42 2.216 . S
O43 C50 1.247 1_556 S
O44 Co42 2.091 1_554 S
O44 C50 1.261 . S
C45 O54 1.247 . S
C45 O55 1.272 . S
O46 Co42 2.004 . S
O46 C51 1.259 . S
Co47 O48 2.061 . S
Co47 O53 2.051 . S
Co47 O55 2.135 1_554 S
O48 Co47 2.061 . S
O48 C51 1.235 1_554 S
C49 O52 1.238 . S
C49 O53 1.241 . S
C50 O43 1.247 1_554 S
C50 O44 1.261 . S
C51 O46 1.259 . S
C51 O48 1.235 1_556 S
O52 Co42 2.021 1_554 S
O52 C49 1.238 . S
O53 Co47 2.051 . S
O53 C49 1.241 . S
O54 Co42 2.137 . S
O54 C45 1.247 . S
O55 Co42 2.244 . S
O55 C45 1.272 . S
O55 Co47 2.135 1_556 S
Co56 O57 2.216 . S
Co56 O58 2.092 . S
Co56 O60 2.004 . S
Co56 O66 2.021 1_554 S
Co56 O68 2.137 . S
Co56 O69 2.244 . S
O57 Co56 2.216 . S
O57 C64 1.247 . S
O58 Co56 2.092 . S
O58 C64 1.262 . S
C59 O68 1.247 . S
C59 O69 1.272 . S
O60 Co56 2.004 . S
O60 C65 1.259 . S
Co61 O62 2.061 1_554 S
Co61 O67 2.052 1_554 S
Co61 O69 2.135 . S
O62 Co61 2.061 1_556 S
O62 C65 1.235 1_556 S
C63 O66 1.238 . S
C63 O67 1.241 . S
C64 O57 1.247 . S
C64 O58 1.262 . S
C65 O60 1.259 . S
C65 O62 1.235 1_554 S
O66 Co56 2.021 1_556 S
O66 C63 1.238 . S
O67 Co61 2.052 1_556 S
O67 C63 1.241 . S
O68 Co56 2.137 . S
O68 C59 1.247 . S
O69 Co56 2.244 . S
O69 C59 1.272 . S
O69 Co61 2.135 . S
Co70 O71 2.216 . S
Co70 O72 2.092 . S
Co70 O74 2.004 . S
Co70 O80 2.021 1_554 S
Co70 O82 2.137 . S
Co70 O83 2.244 . S
O71 Co70 2.216 . S
O71 C78 1.247 . S
O72 Co70 2.092 . S
O72 C78 1.262 . S
C73 O82 1.247 . S
C73 O83 1.272 . S
O74 Co70 2.004 . S
O74 C79 1.259 . S
Co75 O76 2.061 1_554 S
Co75 O81 2.052 1_554 S
Co75 O83 2.135 . S
O76 Co75 2.061 1_556 S
O76 C79 1.235 1_556 S
C77 O80 1.238 . S
C77 O81 1.241 . S
C78 O71 1.247 . S
C78 O72 1.262 . S
C79 O74 1.259 . S
C79 O76 1.235 1_554 S
O80 Co70 2.021 1_556 S
O80 C77 1.238 . S
O81 Co75 2.052 1_556 S
O81 C77 1.241 . S
O82 Co70 2.137 . S
O82 C73 1.247 . S
O83 Co70 2.244 . S
O83 C73 1.272 . S
O83 Co75 2.135 . S
Co84 O85 2.216 . S
Co84 O86 2.092 . S
Co84 O88 2.004 . S
Co84 O94 2.021 1_554 S
Co84 O96 2.137 . S
Co84 O97 2.244 . S
O85 Co84 2.216 . S
O85 C92 1.247 . S
O86 Co84 2.092 . S
O86 C92 1.262 . S
C87 O96 1.247 . S
C87 O97 1.272 . S
O88 Co84 2.004 . S
O88 C93 1.259 . S
Co89 O90 2.061 1_554 S
Co89 O95 2.052 1_554 S
Co89 O97 2.135 . S
O90 Co89 2.061 1_556 S
O90 C93 1.235 1_556 S
C91 O94 1.238 . S
C91 O95 1.241 . S
C92 O85 1.247 . S
C92 O86 1.262 . S
C93 O88 1.259 . S
C93 O90 1.235 1_554 S
O94 Co84 2.021 1_556 S
O94 C91 1.238 . S
O95 Co89 2.052 1_556 S
O95 C91 1.241 . S
O96 Co84 2.137 . S
O96 C87 1.247 . S
O97 Co84 2.244 . S
O97 C87 1.272 . S
O97 Co89 2.135 . S
Co98 O99 2.216 . S
Co98 O100 2.092 . S
Co98 O102 2.004 . S
Co98 O108 2.021 1_554 S
Co98 O110 2.137 . S
Co98 O111 2.244 . S
O99 Co98 2.216 . S
O99 C106 1.247 . S
O100 Co98 2.092 . S
O100 C106 1.262 . S
C101 O110 1.247 . S
C101 O111 1.272 . S
O102 Co98 2.004 . S
O102 C107 1.259 . S
Co103 O104 2.061 1_554 S
Co103 O109 2.052 1_554 S
Co103 O111 2.135 . S
O104 Co103 2.061 1_556 S
O104 C107 1.235 1_556 S
C105 O108 1.238 . S
C105 O109 1.241 . S
C106 O99 1.247 . S
C106 O100 1.262 . S
C107 O102 1.259 . S
C107 O104 1.235 1_554 S
O108 Co98 2.021 1_556 S
O108 C105 1.238 . S
O109 Co103 2.052 1_556 S
O109 C105 1.241 . S
O110 Co98 2.137 . S
O110 C101 1.247 . S
O111 Co98 2.244 . S
O111 C101 1.272 . S
O111 Co103 2.135 . S
Co112 O113 2.216 . S
Co112 O114 2.091 . S
Co112 O116 2.004 . S
Co112 O122 2.021 . S
Co112 O124 2.137 . S
Co112 O125 2.244 . S
O113 Co112 2.216 . S
O113 C120 1.247 . S
O114 Co112 2.091 . S
O114 C120 1.261 . S
C115 O124 1.247 . S
C115 O125 1.272 . S
O116 Co112 2.004 . S
O116 C121 1.259 . S
Co117 O118 2.061 . S
Co117 O123 2.052 . S
Co117 O125 2.135 . S
O118 Co117 2.061 . S
O118 C121 1.235 . S
C119 O122 1.238 . S
C119 O123 1.241 . S
C120 O113 1.247 . S
C120 O114 1.261 . S
C121 O116 1.259 . S
C121 O118 1.235 . S
O122 Co112 2.021 . S
O122 C119 1.238 . S
O123 Co117 2.052 . S
O123 C119 1.241 . S
O124 Co112 2.137 . S
O124 C115 1.247 . S
O125 Co112 2.244 . S
O125 C115 1.272 . S
O125 Co117 2.135 . S
Co126 O127 2.216 . S
Co126 O128 2.091 . S
Co126 O130 2.004 . S
Co126 O136 2.021 . S
Co126 O138 2.137 . S
Co126 O139 2.244 . S
O127 Co126 2.216 . S
O127 C134 1.247 . S
O128 Co126 2.091 . S
O128 C134 1.261 . S
C129 O138 1.247 . S
C129 O139 1.272 . S
O130 Co126 2.004 . S
O130 C135 1.259 . S
Co131 O132 2.061 . S
Co131 O137 2.052 . S
Co131 O139 2.135 . S
O132 Co131 2.061 . S
O132 C135 1.235 . S
C133 O136 1.238 . S
C133 O137 1.241 . S
C134 O127 1.247 . S
C134 O128 1.261 . S
C135 O130 1.259 . S
C135 O132 1.235 . S
O136 Co126 2.021 . S
O136 C133 1.238 . S
O137 Co131 2.052 . S
O137 C133 1.241 . S
O138 Co126 2.137 . S
O138 C129 1.247 . S
O139 Co126 2.244 . S
O139 C129 1.272 . S
O139 Co131 2.135 . S
Co140 O141 2.216 . S
Co140 O142 2.091 . S
Co140 O144 2.004 . S
Co140 O150 2.021 . S
Co140 O152 2.137 . S
Co140 O153 2.244 . S
O141 Co140 2.216 . S
O141 C148 1.247 . S
O142 Co140 2.091 . S
O142 C148 1.261 . S
C143 O152 1.247 . S
C143 O153 1.272 . S
O144 Co140 2.004 . S
O144 C149 1.259 . S
Co145 O146 2.061 . S
Co145 O151 2.052 . S
Co145 O153 2.135 . S
O146 Co145 2.061 . S
O146 C149 1.235 . S
C147 O150 1.238 . S
C147 O151 1.241 . S
C148 O141 1.247 . S
C148 O142 1.261 . S
C149 O144 1.259 . S
C149 O146 1.235 . S
O150 Co140 2.021 . S
O150 C147 1.238 . S
O151 Co145 2.052 . S
O151 C147 1.241 . S
O152 Co140 2.137 . S
O152 C143 1.247 . S
O153 Co140 2.244 . S
O153 C143 1.272 . S
O153 Co145 2.135 . S
Co154 O155 2.216 . S
Co154 O156 2.091 . S
Co154 O158 2.004 . S
Co154 O164 2.021 . S
Co154 O166 2.137 . S
Co154 O167 2.244 . S
O155 Co154 2.216 . S
O155 C162 1.247 . S
O156 Co154 2.091 . S
O156 C162 1.261 . S
C157 O166 1.247 . S
C157 O167 1.272 . S
O158 Co154 2.004 . S
O158 C163 1.259 . S
Co159 O160 2.061 . S
Co159 O165 2.052 . S
Co159 O167 2.135 . S
O160 Co159 2.061 . S
O160 C163 1.235 . S
C161 O164 1.238 . S
C161 O165 1.241 . S
C162 O155 1.247 . S
C162 O156 1.261 . S
C163 O158 1.259 . S
C163 O160 1.235 . S
O164 Co154 2.021 . S
O164 C161 1.238 . S
O165 Co159 2.052 . S
O165 C161 1.241 . S
O166 Co154 2.137 . S
O166 C157 1.247 . S
O167 Co154 2.244 . S
O167 C157 1.272 . S
O167 Co159 2.135 . S
Co168 O169 2.216 . S
Co168 O170 2.091 . S
Co168 O172 2.004 . S
Co168 O178 2.021 . S
Co168 O180 2.137 . S
Co168 O181 2.244 . S
O169 Co168 2.216 . S
O169 C176 1.247 . S
O170 Co168 2.091 . S
O170 C176 1.261 . S
C171 O180 1.247 . S
C171 O181 1.272 . S
O172 Co168 2.004 . S
O172 C177 1.259 . S
Co173 O174 2.061 . S
Co173 O179 2.052 . S
Co173 O181 2.135 . S
O174 Co173 2.061 . S
O174 C177 1.235 . S
C175 O178 1.238 . S
C175 O179 1.241 . S
C176 O169 1.247 . S
C176 O170 1.261 . S
C177 O172 1.259 . S
C177 O174 1.235 . S
O178 Co168 2.021 . S
O178 C175 1.238 . S
O179 Co173 2.052 . S
O179 C175 1.241 . S
O180 Co168 2.137 . S
O180 C171 1.247 . S
O181 Co168 2.244 . S
O181 C171 1.272 . S
O181 Co173 2.135 . S
Co182 O183 2.216 . S
Co182 O184 2.091 . S
Co182 O186 2.004 . S
Co182 O192 2.021 . S
Co182 O194 2.137 . S
Co182 O195 2.244 . S
O183 Co182 2.216 . S
O183 C190 1.247 . S
O184 Co182 2.091 . S
O184 C190 1.261 . S
C185 O194 1.247 . S
C185 O195 1.272 . S
O186 Co182 2.004 . S
O186 C191 1.259 . S
Co187 O188 2.061 . S
Co187 O193 2.052 . S
Co187 O195 2.135 . S
O188 Co187 2.061 . S
O188 C191 1.235 . S
C189 O192 1.238 . S
C189 O193 1.241 . S
C190 O183 1.247 . S
C190 O184 1.261 . S
C191 O186 1.259 . S
C191 O188 1.235 . S
O192 Co182 2.021 . S
O192 C189 1.238 . S
O193 Co187 2.052 . S
O193 C189 1.241 . S
O194 Co182 2.137 . S
O194 C185 1.247 . S
O195 Co182 2.244 . S
O195 C185 1.272 . S
O195 Co187 2.135 . S
Co196 O197 2.216 . S
Co196 O198 2.091 . S
Co196 O200 2.004 . S
Co196 O206 2.021 . S
Co196 O208 2.137 . S
Co196 O209 2.244 . S
O197 Co196 2.216 . S
O197 C204 1.247 . S
O198 Co196 2.091 . S
O198 C204 1.261 . S
C199 O208 1.247 . S
C199 O209 1.272 . S
O200 Co196 2.004 . S
O200 C205 1.259 . S
Co201 O202 2.061 . S
Co201 O207 2.052 . S
Co201 O209 2.135 . S
O202 Co201 2.061 . S
O202 C205 1.235 . S
C203 O206 1.238 . S
C203 O207 1.241 . S
C204 O197 1.247 . S
C204 O198 1.261 . S
C205 O200 1.259 . S
C205 O202 1.235 . S
O206 Co196 2.021 . S
O206 C203 1.238 . S
O207 Co201 2.052 . S
O207 C203 1.241 . S
O208 Co196 2.137 . S
O208 C199 1.247 . S
O209 Co196 2.244 . S
O209 C199 1.272 . S
O209 Co201 2.135 . S
Co210 O211 2.216 . S
Co210 O212 2.091 . S
Co210 O214 2.004 . S
Co210 O220 2.021 . S
Co210 O222 2.137 . S
Co210 O223 2.244 . S
O211 Co210 2.216 . S
O211 C218 1.247 . S
O212 Co210 2.091 . S
O212 C218 1.261 . S
C213 O222 1.247 . S
C213 O223 1.272 . S
O214 Co210 2.004 . S
O214 C219 1.259 . S
Co215 O216 2.061 . S
Co215 O221 2.052 . S
Co215 O223 2.135 . S
O216 Co215 2.061 . S
O216 C219 1.235 . S
C217 O220 1.238 . S
C217 O221 1.241 . S
C218 O211 1.247 . S
C218 O212 1.261 . S
C219 O214 1.259 . S
C219 O216 1.235 . S
O220 Co210 2.021 . S
O220 C217 1.238 . S
O221 Co215 2.052 . S
O221 C217 1.241 . S
O222 Co210 2.137 . S
O222 C213 1.247 . S
O223 Co210 2.244 . S
O223 C213 1.272 . S
O223 Co215 2.135 . S
H224 C230 0.930 . S
H225 C233 0.930 . S
H226 C234 0.930 . S
H227 C235 0.930 . S
H228 C238 0.930 . S
H229 C239 0.930 . S
C230 H224 0.930 . S
C230 C231 1.355 1_554 S
C230 C232 1.415 . S
C231 C230 1.355 1_556 S
C231 C233 1.419 . S
C232 C230 1.415 . S
C232 C237 1.425 1_554 S
C232 C239 1.409 . S
C233 H225 0.930 . S
C233 C231 1.419 . S
C233 C234 1.362 . S
C234 H226 0.930 . S
C234 C233 1.362 . S
C234 C237 1.409 . S
C235 H227 0.930 . S
C235 C236 1.355 1_556 S
C235 C237 1.415 . S
C236 C235 1.355 1_554 S
C236 C238 1.419 . S
C237 C232 1.425 1_556 S
C237 C234 1.409 . S
C237 C235 1.415 . S
C238 H228 0.930 . S
C238 C236 1.419 . S
C238 C239 1.362 . S
C239 H229 0.930 . S
C239 C232 1.409 . S
C239 C238 1.362 . S
H240 C246 0.930 . S
H241 C249 0.930 . S
H242 C250 0.930 . S
H243 C251 0.930 . S
H244 C254 0.930 . S
H245 C255 0.930 . S
C246 H240 0.930 . S
C246 C247 1.355 1_554 S
C246 C248 1.415 . S
C247 C246 1.355 1_556 S
C247 C249 1.419 . S
C248 C246 1.415 . S
C248 C253 1.425 1_554 S
C248 C255 1.409 . S
C249 H241 0.930 . S
C249 C247 1.419 . S
C249 C250 1.362 . S
C250 H242 0.930 . S
C250 C249 1.362 . S
C250 C253 1.409 . S
C251 H243 0.930 . S
C251 C252 1.355 1_556 S
C251 C253 1.415 . S
C252 C251 1.355 1_554 S
C252 C254 1.419 . S
C253 C248 1.425 1_556 S
C253 C250 1.409 . S
C253 C251 1.415 . S
C254 H244 0.930 . S
C254 C252 1.419 . S
C254 C255 1.362 . S
C255 H245 0.930 . S
C255 C248 1.409 . S
C255 C254 1.362 . S
H256 C262 0.930 . S
H257 C265 0.930 . S
H258 C266 0.930 . S
H259 C267 0.930 . S
H260 C270 0.930 . S
H261 C271 0.930 . S
C262 H256 0.930 . S
C262 C263 1.355 1_554 S
C262 C264 1.415 . S
C263 C262 1.355 1_556 S
C263 C265 1.419 . S
C264 C262 1.415 . S
C264 C269 1.425 1_554 S
C264 C271 1.409 . S
C265 H257 0.930 . S
C265 C263 1.419 . S
C265 C266 1.362 . S
C266 H258 0.930 . S
C266 C265 1.362 . S
C266 C269 1.409 . S
C267 H259 0.930 . S
C267 C268 1.355 1_556 S
C267 C269 1.415 . S
C268 C267 1.355 1_554 S
C268 C270 1.419 . S
C269 C264 1.425 1_556 S
C269 C266 1.409 . S
C269 C267 1.415 . S
C270 H260 0.930 . S
C270 C268 1.419 . S
C270 C271 1.362 . S
C271 H261 0.930 . S
C271 C264 1.409 . S
C271 C270 1.362 . S
H272 C278 0.930 . S
H273 C281 0.930 . S
H274 C282 0.930 . S
H275 C283 0.930 . S
H276 C286 0.930 . S
H277 C287 0.930 . S
C278 H272 0.930 . S
C278 C279 1.349 1_556 S
C278 C280 1.415 . S
C279 C278 1.349 1_554 S
C279 C281 1.426 . S
C280 C278 1.415 . S
C280 C285 1.425 1_556 S
C280 C287 1.409 . S
C281 H273 0.930 . S
C281 C279 1.426 . S
C281 C282 1.362 . S
C282 H274 0.930 . S
C282 C281 1.362 . S
C282 C285 1.409 . S
C283 H275 0.930 . S
C283 C284 1.355 . S
C283 C285 1.415 . S
C284 C283 1.355 . S
C284 C286 1.419 1_554 S
C285 C280 1.425 1_554 S
C285 C282 1.409 . S
C285 C283 1.415 . S
C286 H276 0.930 . S
C286 C284 1.419 1_556 S
C286 C287 1.362 . S
C287 H277 0.930 . S
C287 C280 1.409 . S
C287 C286 1.362 . S
H288 C294 0.930 . S
H289 C297 0.930 . S
H290 C298 0.930 . S
H291 C299 0.930 . S
H292 C302 0.930 . S
H293 C303 0.930 . S
C294 H288 0.930 . S
C294 C295 1.355 . S
C294 C296 1.415 . S
C295 C294 1.355 . S
C295 C297 1.419 . S
C296 C294 1.415 . S
C296 C301 1.425 1_545 S
C296 C303 1.409 1_545 S
C297 H289 0.930 . S
C297 C295 1.419 . S
C297 C298 1.362 . S
C298 H290 0.930 . S
C298 C297 1.362 . S
C298 C301 1.409 1_545 S
C299 H291 0.930 . S
C299 C300 1.355 . S
C299 C301 1.415 . S
C300 C299 1.355 . S
C300 C302 1.419 . S
C301 C296 1.425 1_565 S
C301 C298 1.409 1_565 S
C301 C299 1.415 . S
C302 H292 0.930 . S
C302 C300 1.419 . S
C302 C303 1.362 . S
C303 H293 0.930 . S
C303 C296 1.409 1_565 S
C303 C302 1.362 . S
H304 C310 0.930 . S
H305 C313 0.930 . S
H306 C314 0.930 . S
H307 C315 0.930 . S
H308 C318 0.930 . S
H309 C319 0.930 . S
C310 H304 0.930 . S
C310 C311 1.355 . S
C310 C312 1.415 . S
C311 C310 1.355 . S
C311 C313 1.419 . S
C312 C310 1.415 . S
C312 C317 1.425 1_655 S
C312 C319 1.409 1_655 S
C313 H305 0.930 . S
C313 C311 1.419 . S
C313 C314 1.362 . S
C314 H306 0.930 . S
C314 C313 1.362 . S
C314 C317 1.409 1_655 S
C315 H307 0.930 . S
C315 C316 1.355 . S
C315 C317 1.415 . S
C316 C315 1.355 . S
C316 C318 1.419 . S
C317 C312 1.425 1_455 S
C317 C314 1.409 1_455 S
C317 C315 1.415 . S
C318 H308 0.930 . S
C318 C316 1.419 . S
C318 C319 1.362 . S
C319 H309 0.930 . S
C319 C312 1.409 1_455 S
C319 C318 1.362 . S
H320 C326 0.930 . S
H321 C329 0.930 . S
H322 C330 0.930 . S
H323 C331 0.930 . S
H324 C334 0.930 . S
H325 C335 0.930 . S
C326 H320 0.930 . S
C326 C327 1.355 . S
C326 C328 1.415 . S
C327 C326 1.355 . S
C327 C329 1.419 . S
C328 C326 1.415 . S
C328 C333 1.425 1_545 S
C328 C335 1.409 1_545 S
C329 H321 0.930 . S
C329 C327 1.419 . S
C329 C330 1.362 . S
C330 H322 0.930 . S
C330 C329 1.362 . S
C330 C333 1.409 1_545 S
C331 H323 0.930 . S
C331 C332 1.355 . S
C331 C333 1.415 . S
C332 C331 1.355 . S
C332 C334 1.419 . S
C333 C328 1.425 1_565 S
C333 C330 1.409 1_565 S
C333 C331 1.415 . S
C334 H324 0.930 . S
C334 C332 1.419 . S
C334 C335 1.362 . S
C335 H325 0.930 . S
C335 C328 1.409 1_565 S
C335 C334 1.362 . S
H336 C342 0.930 . S
H337 C345 0.930 . S
H338 C346 0.930 . S
H339 C347 0.930 . S
H340 C350 0.930 . S
H341 C351 0.930 . S
C342 H336 0.930 . S
C342 C343 1.355 . S
C342 C344 1.415 . S
C343 C342 1.355 . S
C343 C345 1.419 . S
C344 C342 1.415 . S
C344 C349 1.425 1_455 S
C344 C351 1.409 1_455 S
C345 H337 0.930 . S
C345 C343 1.419 . S
C345 C346 1.362 . S
C346 H338 0.930 . S
C346 C345 1.362 . S
C346 C349 1.409 1_455 S
C347 H339 0.930 . S
C347 C348 1.355 . S
C347 C349 1.415 . S
C348 C347 1.355 . S
C348 C350 1.419 . S
C349 C344 1.425 1_655 S
C349 C346 1.409 1_655 S
C349 C347 1.415 . S
C350 H340 0.930 . S
C350 C348 1.419 . S
C350 C351 1.362 . S
C351 H341 0.930 . S
C351 C344 1.409 1_655 S
C351 C350 1.362 . S
H352 C358 0.930 . S
H353 C361 0.930 . S
H354 C362 0.930 . S
H355 C363 0.930 . S
H356 C366 0.930 . S
H357 C367 0.930 . S
C358 H352 0.930 . S
C358 C359 1.355 1_556 S
C358 C360 1.415 . S
C359 C358 1.355 1_554 S
C359 C361 1.419 . S
C360 C358 1.415 . S
C360 C365 1.425 1_556 S
C360 C367 1.409 . S
C361 H353 0.930 . S
C361 C359 1.419 . S
C361 C362 1.362 . S
C362 H354 0.930 . S
C362 C361 1.362 . S
C362 C365 1.409 . S
C363 H355 0.930 . S
C363 C364 1.355 1_554 S
C363 C365 1.415 . S
C364 C363 1.355 1_556 S
C364 C366 1.419 . S
C365 C360 1.425 1_554 S
C365 C362 1.409 . S
C365 C363 1.415 . S
C366 H356 0.930 . S
C366 C364 1.419 . S
C366 C367 1.362 . S
C367 H357 0.930 . S
C367 C360 1.409 . S
C367 C366 1.362 . S
H368 C374 0.930 . S
H369 C377 0.930 . S
H370 C378 0.930 . S
H371 C379 0.930 . S
H372 C382 0.930 . S
H373 C383 0.930 . S
C374 H368 0.930 . S
C374 C375 1.355 . S
C374 C376 1.415 . S
C375 C374 1.355 . S
C375 C377 1.419 1_554 S
C376 C374 1.415 . S
C376 C381 1.425 1_554 S
C376 C383 1.409 . S
C377 H369 0.930 . S
C377 C375 1.419 1_556 S
C377 C378 1.362 . S
C378 H370 0.930 . S
C378 C377 1.362 . S
C378 C381 1.409 . S
C379 H371 0.930 . S
C379 C380 1.353 1_556 S
C379 C381 1.415 . S
C380 C379 1.353 1_554 S
C380 C382 1.422 . S
C381 C376 1.425 1_556 S
C381 C378 1.409 . S
C381 C379 1.415 . S
C382 H372 0.930 . S
C382 C380 1.422 . S
C382 C383 1.362 . S
C383 H373 0.930 . S
C383 C376 1.409 . S
C383 C382 1.362 . S
H384 C390 0.930 . S
H385 C393 0.930 . S
H386 C394 0.930 . S
H387 C395 0.930 . S
H388 C398 0.930 . S
H389 C399 0.930 . S
C390 H384 0.930 . S
C390 C391 1.355 . S
C390 C392 1.415 . S
C391 C390 1.355 . S
C391 C393 1.419 1_554 S
C392 C390 1.415 . S
C392 C397 1.425 1_554 S
C392 C399 1.409 . S
C393 H385 0.930 . S
C393 C391 1.419 1_556 S
C393 C394 1.362 . S
C394 H386 0.930 . S
C394 C393 1.362 . S
C394 C397 1.409 . S
C395 H387 0.930 . S
C395 C396 1.355 1_556 S
C395 C397 1.415 . S
C396 C395 1.355 1_554 S
C396 C398 1.419 . S
C397 C392 1.425 1_556 S
C397 C394 1.409 . S
C397 C395 1.415 . S
C398 H388 0.930 . S
C398 C396 1.419 . S
C398 C399 1.362 . S
C399 H389 0.930 . S
C399 C392 1.409 . S
C399 C398 1.362 . S
H400 C406 0.930 . S
H401 C409 0.930 1_556 S
H402 C410 0.930 . S
H403 C411 0.930 . S
H404 C414 0.930 . S
H405 C415 0.930 . S
C406 H400 0.930 . S
C406 C407 1.355 . S
C406 C408 1.415 . S
C407 C406 1.355 . S
C407 C409 1.419 . S
C408 C406 1.415 . S
C408 C413 1.424 1_554 S
C408 C415 1.409 . S
C409 H401 0.930 1_554 S
C409 C407 1.419 . S
C409 C410 1.362 1_554 S
C410 H402 0.930 . S
C410 C409 1.362 1_556 S
C410 C413 1.409 . S
C411 H403 0.930 . S
C411 C412 1.355 . S
C411 C413 1.415 . S
C412 C411 1.355 . S
C412 C414 1.419 1_556 S
C413 C408 1.424 1_556 S
C413 C410 1.409 . S
C413 C411 1.415 . S
C414 H404 0.930 . S
C414 C412 1.419 1_554 S
C414 C415 1.362 . S
C415 H405 0.930 . S
C415 C408 1.409 . S
C415 C414 1.362 . S
H416 C422 0.930 . S
H417 C425 0.930 . S
H418 C426 0.930 . S
H419 C427 0.930 . S
H420 C430 0.930 . S
H421 C431 0.930 . S
C422 H416 0.930 . S
C422 C423 1.355 . S
C422 C424 1.415 . S
C423 C422 1.355 . S
C423 C425 1.419 . S
C424 C422 1.415 . S
C424 C429 1.425 . S
C424 C431 1.409 . S
C425 H417 0.930 . S
C425 C423 1.419 . S
C425 C426 1.362 . S
C426 H418 0.930 . S
C426 C425 1.362 . S
C426 C429 1.409 . S
C427 H419 0.930 . S
C427 C428 1.355 . S
C427 C429 1.415 . S
C428 C427 1.355 . S
C428 C430 1.419 . S
C429 C424 1.425 . S
C429 C426 1.409 . S
C429 C427 1.415 . S
C430 H420 0.930 . S
C430 C428 1.419 . S
C430 C431 1.362 . S
C431 H421 0.930 . S
C431 C424 1.409 . S
C431 C430 1.362 . S
H432 C438 0.930 . S
H433 C441 0.930 . S
H434 C442 0.930 . S
H435 C443 0.930 . S
H436 C446 0.930 . S
H437 C447 0.930 . S
C438 H432 0.930 . S
C438 C439 1.355 . S
C438 C440 1.415 . S
C439 C438 1.355 . S
C439 C441 1.419 . S
C440 C438 1.415 . S
C440 C445 1.425 . S
C440 C447 1.409 . S
C441 H433 0.930 . S
C441 C439 1.419 . S
C441 C442 1.362 . S
C442 H434 0.930 . S
C442 C441 1.362 . S
C442 C445 1.409 . S
C443 H435 0.930 . S
C443 C444 1.355 . S
C443 C445 1.415 . S
C444 C443 1.355 . S
C444 C446 1.419 . S
C445 C440 1.425 . S
C445 C442 1.409 . S
C445 C443 1.415 . S
C446 H436 0.930 . S
C446 C444 1.419 . S
C446 C447 1.362 . S
C447 H437 0.930 . S
C447 C440 1.409 . S
C447 C446 1.362 . S
H448 C454 0.930 . S
H449 C457 0.930 . S
H450 C458 0.930 . S
H451 C459 0.930 . S
H452 C462 0.930 . S
H453 C463 0.930 . S
C454 H448 0.930 . S
C454 C455 1.355 . S
C454 C456 1.415 . S
C455 C454 1.355 . S
C455 C457 1.419 . S
C456 C454 1.415 . S
C456 C461 1.425 . S
C456 C463 1.409 . S
C457 H449 0.930 . S
C457 C455 1.419 . S
C457 C458 1.362 . S
C458 H450 0.930 . S
C458 C457 1.362 . S
C458 C461 1.409 . S
C459 H451 0.930 . S
C459 C460 1.355 . S
C459 C461 1.415 . S
C460 C459 1.355 . S
C460 C462 1.419 . S
C461 C456 1.425 . S
C461 C458 1.409 . S
C461 C459 1.415 . S
C462 H452 0.930 . S
C462 C460 1.419 . S
C462 C463 1.362 . S
C463 H453 0.930 . S
C463 C456 1.409 . S
C463 C462 1.362 . S
H464 C470 0.930 . S
H465 C473 0.930 . S
H466 C474 0.930 . S
H467 C475 0.930 . S
H468 C478 0.930 . S
H469 C479 0.930 . S
C470 H464 0.930 . S
C470 C471 1.355 . S
C470 C472 1.415 . S
C471 C470 1.355 . S
C471 C473 1.419 . S
C472 C470 1.415 . S
C472 C477 1.425 . S
C472 C479 1.409 . S
C473 H465 0.930 . S
C473 C471 1.419 . S
C473 C474 1.362 . S
C474 H466 0.930 . S
C474 C473 1.362 . S
C474 C477 1.409 . S
C475 H467 0.930 . S
C475 C476 1.355 . S
C475 C477 1.415 . S
C476 C475 1.355 . S
C476 C478 1.419 . S
C477 C472 1.425 . S
C477 C474 1.409 . S
C477 C475 1.415 . S
C478 H468 0.930 . S
C478 C476 1.419 . S
C478 C479 1.362 . S
C479 H469 0.930 . S
C479 C472 1.409 . S
C479 C478 1.362 . S
H480 C486 0.930 . S
H481 C489 0.930 . S
H482 C490 0.930 . S
H483 C491 0.930 . S
H484 C494 0.930 . S
H485 C495 0.930 . S
C486 H480 0.930 . S
C486 C487 1.355 . S
C486 C488 1.415 . S
C487 C486 1.355 . S
C487 C489 1.419 . S
C488 C486 1.415 . S
C488 C493 1.425 . S
C488 C495 1.409 . S
C489 H481 0.930 . S
C489 C487 1.419 . S
C489 C490 1.362 . S
C490 H482 0.930 . S
C490 C489 1.362 . S
C490 C493 1.409 . S
C491 H483 0.930 . S
C491 C492 1.355 . S
C491 C493 1.415 . S
C492 C491 1.355 . S
C492 C494 1.419 . S
C493 C488 1.425 . S
C493 C490 1.409 . S
C493 C491 1.415 . S
C494 H484 0.930 . S
C494 C492 1.419 . S
C494 C495 1.362 . S
C495 H485 0.930 . S
C495 C488 1.409 . S
C495 C494 1.362 . S
H496 C502 0.930 . S
H497 C505 0.930 . S
H498 C506 0.930 . S
H499 C507 0.930 . S
H500 C510 0.930 . S
H501 C511 0.930 . S
C502 H496 0.930 . S
C502 C503 1.355 . S
C502 C504 1.415 . S
C503 C502 1.355 . S
C503 C505 1.419 . S
C504 C502 1.415 . S
C504 C509 1.425 . S
C504 C511 1.409 . S
C505 H497 0.930 . S
C505 C503 1.419 . S
C505 C506 1.362 . S
C506 H498 0.930 . S
C506 C505 1.362 . S
C506 C509 1.409 . S
C507 H499 0.930 . S
C507 C508 1.355 . S
C507 C509 1.415 . S
C508 C507 1.355 . S
C508 C510 1.419 . S
C509 C504 1.425 . S
C509 C506 1.409 . S
C509 C507 1.415 . S
C510 H500 0.930 . S
C510 C508 1.419 . S
C510 C511 1.362 . S
C511 H501 0.930 . S
C511 C504 1.409 . S
C511 C510 1.362 . S
H512 C518 0.930 . S
H513 C521 0.930 . S
H514 C522 0.930 . S
H515 C523 0.930 . S
H516 C526 0.930 . S
H517 C527 0.930 . S
C518 H512 0.930 . S
C518 C519 1.355 . S
C518 C520 1.415 . S
C519 C518 1.355 . S
C519 C521 1.419 . S
C520 C518 1.415 . S
C520 C525 1.425 . S
C520 C527 1.409 . S
C521 H513 0.930 . S
C521 C519 1.419 . S
C521 C522 1.362 . S
C522 H514 0.930 . S
C522 C521 1.362 . S
C522 C525 1.409 . S
C523 H515 0.930 . S
C523 C524 1.355 . S
C523 C525 1.415 . S
C524 C523 1.355 . S
C524 C526 1.419 . S
C525 C520 1.425 . S
C525 C522 1.409 . S
C525 C523 1.415 . S
C526 H516 0.930 . S
C526 C524 1.419 . S
C526 C527 1.362 . S
C527 H517 0.930 . S
C527 C520 1.409 . S
C527 C526 1.362 . S
H528 C534 0.930 . S
H529 C537 0.930 . S
H530 C538 0.930 . S
H531 C539 0.930 . S
H532 C542 0.930 . S
H533 C543 0.930 . S
C534 H528 0.930 . S
C534 C535 1.355 . S
C534 C536 1.415 . S
C535 C534 1.355 . S
C535 C537 1.419 . S
C536 C534 1.415 . S
C536 C541 1.425 . S
C536 C543 1.409 . S
C537 H529 0.930 . S
C537 C535 1.419 . S
C537 C538 1.362 . S
C538 H530 0.930 . S
C538 C537 1.362 . S
C538 C541 1.409 . S
C539 H531 0.930 . S
C539 C540 1.355 . S
C539 C541 1.415 . S
C540 C539 1.355 . S
C540 C542 1.419 . S
C541 C536 1.425 . S
C541 C538 1.409 . S
C541 C539 1.415 . S
C542 H532 0.930 . S
C542 C540 1.419 . S
C542 C543 1.362 . S
C543 H533 0.930 . S
C543 C536 1.409 . S
C543 C542 1.362 . S
H544 C550 0.930 . S
H545 C553 0.930 . S
H546 C554 0.930 . S
H547 C555 0.930 . S
H548 C558 0.930 . S
H549 C559 0.930 . S
C550 H544 0.930 . S
C550 C551 1.355 . S
C550 C552 1.415 . S
C551 C550 1.355 . S
C551 C553 1.419 . S
C552 C550 1.415 . S
C552 C557 1.425 . S
C552 C559 1.409 . S
C553 H545 0.930 . S
C553 C551 1.419 . S
C553 C554 1.362 . S
C554 H546 0.930 . S
C554 C553 1.362 . S
C554 C557 1.409 . S
C555 H547 0.930 . S
C555 C556 1.355 . S
C555 C557 1.415 . S
C556 C555 1.355 . S
C556 C558 1.419 . S
C557 C552 1.425 . S
C557 C554 1.409 . S
C557 C555 1.415 . S
C558 H548 0.930 . S
C558 C556 1.419 . S
C558 C559 1.362 . S
C559 H549 0.930 . S
C559 C552 1.409 . S
C559 C558 1.362 . S
H560 C566 0.930 . S
H561 C569 0.930 . S
H562 C570 0.930 . S
H563 C571 0.930 . S
H564 C574 0.930 . S
H565 C575 0.930 . S
C566 H560 0.930 . S
C566 C567 1.355 . S
C566 C568 1.415 . S
C567 C566 1.355 . S
C567 C569 1.419 . S
C568 C566 1.415 . S
C568 C573 1.425 . S
C568 C575 1.409 . S
C569 H561 0.930 . S
C569 C567 1.419 . S
C569 C570 1.362 . S
C570 H562 0.930 . S
C570 C569 1.362 . S
C570 C573 1.409 . S
C571 H563 0.930 . S
C571 C572 1.355 . S
C571 C573 1.415 . S
C572 C571 1.355 . S
C572 C574 1.419 . S
C573 C568 1.425 . S
C573 C570 1.409 . S
C573 C571 1.415 . S
C574 H564 0.930 . S
C574 C572 1.419 . S
C574 C575 1.362 . S
C575 H565 0.930 . S
C575 C568 1.409 . S
C575 C574 1.362 . S
H576 C582 0.930 . S
H577 C585 0.930 . S
H578 C586 0.930 . S
H579 C587 0.930 . S
H580 C590 0.930 . S
H581 C591 0.930 . S
C582 H576 0.930 . S
C582 C583 1.355 . S
C582 C584 1.415 . S
C583 C582 1.355 . S
C583 C585 1.419 . S
C584 C582 1.415 . S
C584 C589 1.425 . S
C584 C591 1.409 . S
C585 H577 0.930 . S
C585 C583 1.419 . S
C585 C586 1.362 . S
C586 H578 0.930 . S
C586 C585 1.362 . S
C586 C589 1.409 . S
C587 H579 0.930 . S
C587 C588 1.355 . S
C587 C589 1.415 . S
C588 C587 1.355 . S
C588 C590 1.419 . S
C589 C584 1.425 . S
C589 C586 1.409 . S
C589 C587 1.415 . S
C590 H580 0.930 . S
C590 C588 1.419 . S
C590 C591 1.362 . S
C591 H581 0.930 . S
C591 C584 1.409 . S
C591 C590 1.362 . S
H592 C598 0.930 . S
H593 C601 0.930 . S
H594 C602 0.930 . S
H595 C603 0.930 . S
H596 C606 0.930 . S
H597 C607 0.930 . S
C598 H592 0.930 . S
C598 C599 1.355 . S
C598 C600 1.415 . S
C599 C598 1.355 . S
C599 C601 1.419 . S
C600 C598 1.415 . S
C600 C605 1.425 . S
C600 C607 1.409 . S
C601 H593 0.930 . S
C601 C599 1.419 . S
C601 C602 1.362 . S
C602 H594 0.930 . S
C602 C601 1.362 . S
C602 C605 1.409 . S
C603 H595 0.930 . S
C603 C604 1.355 . S
C603 C605 1.415 . S
C604 C603 1.355 . S
C604 C606 1.419 . S
C605 C600 1.425 . S
C605 C602 1.409 . S
C605 C603 1.415 . S
C606 H596 0.930 . S
C606 C604 1.419 . S
C606 C607 1.362 . S
C607 H597 0.930 . S
C607 C600 1.409 . S
C607 C606 1.362 . S
H608 C614 0.930 . S
H609 C617 0.930 . S
H610 C618 0.930 . S
H611 C619 0.930 . S
H612 C622 0.930 . S
H613 C623 0.930 . S
C614 H608 0.930 . S
C614 C615 1.355 . S
C614 C616 1.415 . S
C615 C614 1.355 . S
C615 C617 1.419 . S
C616 C614 1.415 . S
C616 C621 1.425 . S
C616 C623 1.409 . S
C617 H609 0.930 . S
C617 C615 1.419 . S
C617 C618 1.362 . S
C618 H610 0.930 . S
C618 C617 1.362 . S
C618 C621 1.409 . S
C619 H611 0.930 . S
C619 C620 1.355 . S
C619 C621 1.415 . S
C620 C619 1.355 . S
C620 C622 1.419 . S
C621 C616 1.425 . S
C621 C618 1.409 . S
C621 C619 1.415 . S
C622 H612 0.930 . S
C622 C620 1.419 . S
C622 C623 1.362 . S
C623 H613 0.930 . S
C623 C616 1.409 . S
C623 C622 1.362 . S
H624 C630 0.930 . S
H625 C633 0.930 . S
H626 C634 0.930 . S
H627 C635 0.930 . S
H628 C638 0.930 . S
H629 C639 0.930 . S
C630 H624 0.930 . S
C630 C631 1.355 . S
C630 C632 1.415 . S
C631 C630 1.355 . S
C631 C633 1.419 . S
C632 C630 1.415 . S
C632 C637 1.425 . S
C632 C639 1.409 . S
C633 H625 0.930 . S
C633 C631 1.419 . S
C633 C634 1.362 . S
C634 H626 0.930 . S
C634 C633 1.362 . S
C634 C637 1.409 . S
C635 H627 0.930 . S
C635 C636 1.355 . S
C635 C637 1.415 . S
C636 C635 1.355 . S
C636 C638 1.419 . S
C637 C632 1.425 . S
C637 C634 1.409 . S
C637 C635 1.415 . S
C638 H628 0.930 . S
C638 C636 1.419 . S
C638 C639 1.362 . S
C639 H629 0.930 . S
C639 C632 1.409 . S
C639 C638 1.362 . S
H640 C646 0.930 . S
H641 C649 0.930 . S
H642 C650 0.930 . S
H643 C651 0.930 . S
H644 C654 0.930 . S
H645 C655 0.930 . S
C646 H640 0.930 . S
C646 C647 1.355 . S
C646 C648 1.415 . S
C647 C646 1.355 . S
C647 C649 1.419 . S
C648 C646 1.415 . S
C648 C653 1.425 . S
C648 C655 1.409 . S
C649 H641 0.930 . S
C649 C647 1.419 . S
C649 C650 1.362 . S
C650 H642 0.930 . S
C650 C649 1.362 . S
C650 C653 1.409 . S
C651 H643 0.930 . S
C651 C652 1.355 . S
C651 C653 1.415 . S
C652 C651 1.355 . S
C652 C654 1.419 . S
C653 C648 1.425 . S
C653 C650 1.409 . S
C653 C651 1.415 . S
C654 H644 0.930 . S
C654 C652 1.419 . S
C654 C655 1.362 . S
C655 H645 0.930 . S
C655 C648 1.409 . S
C655 C654 1.362 . S
H656 C662 0.930 . S
H657 C665 0.930 . S
H658 C666 0.930 . S
H659 C667 0.930 . S
H660 C670 0.930 . S
H661 C671 0.930 . S
C662 H656 0.930 . S
C662 C663 1.355 . S
C662 C664 1.415 . S
C663 C662 1.355 . S
C663 C665 1.419 . S
C664 C662 1.415 . S
C664 C669 1.425 . S
C664 C671 1.409 . S
C665 H657 0.930 . S
C665 C663 1.419 . S
C665 C666 1.362 . S
C666 H658 0.930 . S
C666 C665 1.362 . S
C666 C669 1.409 . S
C667 H659 0.930 . S
C667 C668 1.355 . S
C667 C669 1.415 . S
C668 C667 1.355 . S
C668 C670 1.419 . S
C669 C664 1.425 . S
C669 C666 1.409 . S
C669 C667 1.415 . S
C670 H660 0.930 . S
C670 C668 1.419 . S
C670 C671 1.362 . S
C671 H661 0.930 . S
C671 C664 1.409 . S
C671 C670 1.362 . S
H672 C678 0.930 . S
H673 C681 0.930 . S
H674 C682 0.930 . S
H675 C683 0.930 . S
H676 C686 0.930 . S
H677 C687 0.930 . S
C678 H672 0.930 . S
C678 C679 1.355 . S
C678 C680 1.415 . S
C679 C678 1.355 . S
C679 C681 1.419 . S
C680 C678 1.415 . S
C680 C685 1.425 . S
C680 C687 1.409 . S
C681 H673 0.930 . S
C681 C679 1.419 . S
C681 C682 1.362 . S
C682 H674 0.930 . S
C682 C681 1.362 . S
C682 C685 1.409 . S
C683 H675 0.930 . S
C683 C684 1.355 . S
C683 C685 1.415 . S
C684 C683 1.355 . S
C684 C686 1.419 . S
C685 C680 1.425 . S
C685 C682 1.409 . S
C685 C683 1.415 . S
C686 H676 0.930 . S
C686 C684 1.419 . S
C686 C687 1.362 . S
C687 H677 0.930 . S
C687 C680 1.409 . S
C687 C686 1.362 . S
H688 C694 0.930 . S
H689 C697 0.930 . S
H690 C698 0.930 . S
H691 C699 0.930 . S
H692 C702 0.930 . S
H693 C703 0.930 . S
C694 H688 0.930 . S
C694 C695 1.355 . S
C694 C696 1.415 . S
C695 C694 1.355 . S
C695 C697 1.419 . S
C696 C694 1.415 . S
C696 C701 1.425 . S
C696 C703 1.409 . S
C697 H689 0.930 . S
C697 C695 1.419 . S
C697 C698 1.362 . S
C698 H690 0.930 . S
C698 C697 1.362 . S
C698 C701 1.409 . S
C699 H691 0.930 . S
C699 C700 1.355 . S
C699 C701 1.415 . S
C700 C699 1.355 . S
C700 C702 1.419 . S
C701 C696 1.425 . S
C701 C698 1.409 . S
C701 C699 1.415 . S
C702 H692 0.930 . S
C702 C700 1.419 . S
C702 C703 1.362 . S
C703 H693 0.930 . S
C703 C696 1.409 . S
C703 C702 1.362 . S
H704 C710 0.930 . S
H705 C713 0.930 . S
H706 C714 0.930 . S
H707 C715 0.930 . S
H708 C718 0.930 . S
H709 C719 0.930 . S
C710 H704 0.930 . S
C710 C711 1.355 . S
C710 C712 1.415 . S
C711 C710 1.355 . S
C711 C713 1.419 . S
C712 C710 1.415 . S
C712 C717 1.425 . S
C712 C719 1.409 . S
C713 H705 0.930 . S
C713 C711 1.419 . S
C713 C714 1.362 . S
C714 H706 0.930 . S
C714 C713 1.362 . S
C714 C717 1.409 . S
C715 H707 0.930 . S
C715 C716 1.355 . S
C715 C717 1.415 . S
C716 C715 1.355 . S
C716 C718 1.419 . S
C717 C712 1.425 . S
C717 C714 1.409 . S
C717 C715 1.415 . S
C718 H708 0.930 . S
C718 C716 1.419 . S
C718 C719 1.362 . S
C719 H709 0.930 . S
C719 C712 1.409 . S
C719 C718 1.362 . S
H720 C726 0.930 . S
H721 C729 0.930 . S
H722 C730 0.930 . S
H723 C731 0.930 . S
H724 C734 0.930 . S
H725 C735 0.930 . S
C726 H720 0.930 . S
C726 C727 1.355 . S
C726 C728 1.415 . S
C727 C726 1.355 . S
C727 C729 1.419 . S
C728 C726 1.415 . S
C728 C733 1.425 . S
C728 C735 1.409 . S
C729 H721 0.930 . S
C729 C727 1.419 . S
C729 C730 1.362 . S
C730 H722 0.930 . S
C730 C729 1.362 . S
C730 C733 1.409 . S
C731 H723 0.930 . S
C731 C732 1.355 . S
C731 C733 1.415 . S
C732 C731 1.355 . S
C732 C734 1.419 . S
C733 C728 1.425 . S
C733 C730 1.409 . S
C733 C731 1.415 . S
C734 H724 0.930 . S
C734 C732 1.419 . S
C734 C735 1.362 . S
C735 H725 0.930 . S
C735 C728 1.409 . S
C735 C734 1.362 . S
C231 C64 1.432 1_556 S
C236 C8 1.425 . S
C247 C78 1.432 1_556 S
C252 C22 1.427 . S
C263 C92 1.432 1_556 S
C268 C36 1.424 . S
C279 C106 1.428 . S
C284 C50 1.416 . S
C295 C176 1.430 . S
C300 C120 1.419 . S
C311 C190 1.418 . S
C316 C134 1.415 . S
C327 C148 1.430 . S
C332 C204 1.430 . S
C343 C218 1.429 . S
C348 C162 1.431 . S
C359 C9 1.480 1_554 S
C364 C79 1.449 1_556 S
C375 C93 1.440 . S
C380 C23 1.486 1_554 S
C391 C37 1.486 1_554 S
C396 C107 1.441 . S
C407 C65 1.440 . S
C412 C51 1.485 . S
C423 C191 1.478 . S
C428 C121 1.445 . S
C439 C205 1.476 . S
C444 C135 1.454 . S
C455 C149 1.443 . S
C460 C219 1.480 . S
C471 C163 1.479 . S
C476 C177 1.450 . S
C487 C217 1.394 . S
C492 C7 1.364 . S
C503 C175 1.391 . S
C508 C21 1.420 . S
C519 C189 1.375 . S
C524 C35 1.377 . S
C535 C203 1.366 . S
C540 C49 1.388 . S
C551 C133 1.403 . S
C556 C63 1.414 . S
C567 C147 1.416 . S
C572 C77 1.366 . S
C583 C91 1.368 . S
C588 C161 1.385 . S
C599 C105 1.422 . S
C604 C119 1.383 . S
C615 C185 1.371 . S
C620 C31 1.371 . S
C631 C199 1.370 . S
C636 C45 1.385 . S
C647 C213 1.388 . S
C652 C3 1.404 . S
C663 C17 1.385 . S
C668 C171 1.402 . S
C679 C157 1.405 . S
C684 C87 1.401 . S
C695 C101 1.395 . S
C700 C115 1.406 . S
C711 C129 1.369 . S
C716 C59 1.376 . S
C727 C143 1.369 . S
C732 C73 1.375 . S
