# Generated by pormake.
# Topology wfs, (7)-cn, num edge types: 1
# Building blocks:
#     Node 0, Type 0, BuildingBlock: NUHQUE_clean_sbu_2, # of connection points: 7
#     Node 1, Type 0, BuildingBlock: NUHQUE_clean_sbu_2, # of connection points: 7
#     Node 2, Type 0, BuildingBlock: NUHQUE_clean_sbu_2, # of connection points: 7
#     Node 3, Type 0, BuildingBlock: NUHQUE_clean_sbu_2, # of connection points: 7
#     Node 4, Type 0, BuildingBlock: NUHQUE_clean_sbu_2, # of connection points: 7
#     Node 5, Type 0, BuildingBlock: NUHQUE_clean_sbu_2, # of connection points: 7
#     Node 6, Type 0, BuildingBlock: NUHQUE_clean_sbu_2, # of connection points: 7
#     Node 7, Type 0, BuildingBlock: NUHQUE_clean_sbu_2, # of connection points: 7
#     Edge 8, Type (0, 0), BuildingBlock: OJICUG_clean_linker_0, # of connection points: 2
#     Edge 9, Type (0, 0), BuildingBlock: OJICUG_clean_linker_0, # of connection points: 2
#     Edge 10, Type (0, 0), BuildingBlock: OJICUG_clean_linker_0, # of connection points: 2
#     Edge 11, Type (0, 0), BuildingBlock: OJICUG_clean_linker_0, # of connection points: 2
#     Edge 12, Type (0, 0), BuildingBlock: OJICUG_clean_linker_0, # of connection points: 2
#     Edge 13, Type (0, 0), BuildingBlock: OJICUG_clean_linker_0, # of connection points: 2
#     Edge 14, Type (0, 0), BuildingBlock: OJICUG_clean_linker_0, # of connection points: 2
#     Edge 15, Type (0, 0), BuildingBlock: OJICUG_clean_linker_0, # of connection points: 2
#     Edge 16, Type (0, 0), BuildingBlock: OJICUG_clean_linker_0, # of connection points: 2
#     Edge 17, Type (0, 0), BuildingBlock: OJICUG_clean_linker_0, # of connection points: 2
#     Edge 18, Type (0, 0), BuildingBlock: OJICUG_clean_linker_0, # of connection points: 2
#     Edge 19, Type (0, 0), BuildingBlock: OJICUG_clean_linker_0, # of connection points: 2
#     Edge 20, Type (0, 0), BuildingBlock: OJICUG_clean_linker_0, # of connection points: 2
#     Edge 21, Type (0, 0), BuildingBlock: OJICUG_clean_linker_0, # of connection points: 2
#     Edge 22, Type (0, 0), BuildingBlock: OJICUG_clean_linker_0, # of connection points: 2
#     Edge 23, Type (0, 0), BuildingBlock: OJICUG_clean_linker_0, # of connection points: 2
#     Edge 24, Type (0, 0), BuildingBlock: OJICUG_clean_linker_0, # of connection points: 2
#     Edge 25, Type (0, 0), BuildingBlock: OJICUG_clean_linker_0, # of connection points: 2
#     Edge 26, Type (0, 0), BuildingBlock: OJICUG_clean_linker_0, # of connection points: 2
#     Edge 27, Type (0, 0), BuildingBlock: OJICUG_clean_linker_0, # of connection points: 2
#     Edge 28, Type (0, 0), BuildingBlock: OJICUG_clean_linker_0, # of connection points: 2
#     Edge 29, Type (0, 0), BuildingBlock: OJICUG_clean_linker_0, # of connection points: 2
#     Edge 30, Type (0, 0), BuildingBlock: OJICUG_clean_linker_0, # of connection points: 2
#     Edge 31, Type (0, 0), BuildingBlock: OJICUG_clean_linker_0, # of connection points: 2
#     Edge 32, Type (0, 0), BuildingBlock: OJICUG_clean_linker_0, # of connection points: 2
#     Edge 33, Type (0, 0), BuildingBlock: OJICUG_clean_linker_0, # of connection points: 2
#     Edge 34, Type (0, 0), BuildingBlock: OJICUG_clean_linker_0, # of connection points: 2
#     Edge 35, Type (0, 0), BuildingBlock: OJICUG_clean_linker_0, # of connection points: 2
# Relax obj value: 0.250
# Max RMSD: 0.185
# Mean RMSD: 0.185
data_MOF--net-wfs--node1-NUHQUE_clean_sbu_2--edge1-OJICUG_clean_linker_0
_symmetry_space_group_name_H-M    P1
_symmetry_Int_Tables_number       1
_symmetry_cell_setting            triclinic
loop_
_symmetry_equiv_pos_as_xyz
'x, y, z'
_cell_length_a     23.145992
_cell_length_b     29.487268
_cell_length_c     23.505579
_cell_angle_alpha  89.905359
_cell_angle_beta   89.440969
_cell_angle_gamma 90.058856
loop_
_atom_site_label
_atom_site_type_symbol
_atom_site_fract_x
_atom_site_fract_y
_atom_site_fract_z
_atom_type_partial_charge
O0 O 0.26408 0.04757 0.26648 0.0
Tb1 Tb 0.24241 0.09114 0.19591 0.0
Eu2 Eu 0.25238 0.18617 0.11407 0.0
C3 C 0.30018 0.01363 0.26014 0.0
O4 O 0.3338 0.01252 0.21486 0.0
C5 C 0.29644 0.08869 0.0803 0.0
O6 O 0.18506 0.21926 0.05892 0.0
C7 C 0.35097 0.22808 0.11937 0.0
C8 C 0.13025 0.21182 0.07171 0.0
O9 O 0.11724 0.18534 0.11488 0.0
C10 C 0.18935 0.18224 0.23988 0.0
C11 C 0.3785 0.26913 0.14268 0.0
C12 C 0.43805 0.26897 0.15501 0.0
C13 C 0.46574 0.30884 0.17345 0.0
C14 C 0.43296 0.3486 0.17949 0.0
C15 C 0.3734 0.34888 0.1688 0.0
C16 C 0.34627 0.30899 0.15069 0.0
O17 O 0.31176 0.08642 0.13382 0.0
O18 O 0.26049 0.12073 0.06503 0.0
O19 O 0.19021 0.03174 0.17712 0.0
O20 O 0.16067 0.09644 0.14998 0.0
C21 C 0.14947 0.05309 0.15068 0.0
O22 O 0.19448 0.20159 0.18963 0.0
O23 O 0.21931 0.14595 0.25369 0.0
O24 O 0.31335 0.23451 0.07843 0.0
O25 O 0.33528 0.19626 0.15587 0.0
H26 H 0.46285 0.23808 0.14967 0.0
H27 H 0.45338 0.37908 0.1955 0.0
H28 H 0.30029 0.30911 0.14228 0.0
O29 O 0.24977 0.96996 0.74333 0.0
Tb30 Tb 0.22984 0.92889 0.81736 0.0
Eu31 Eu 0.24341 0.83532 0.9022 0.0
C32 C 0.28436 1.00513 0.74723 0.0
O33 O 0.31697 0.00904 0.79235 0.0
C34 C 0.28945 0.93382 0.93071 0.0
O35 O 0.18354 0.8028 0.96585 0.0
C36 C 0.33985 0.7927 0.88327 0.0
C37 C 0.15234 0.76685 0.95376 0.0
O38 O 0.16581 0.74201 0.90927 0.0
C39 C 0.17192 0.83801 0.78405 0.0
C40 C 0.36591 0.75195 0.85727 0.0
C41 C 0.42544 0.75183 0.84377 0.0
C42 C 0.45251 0.71208 0.82388 0.0
C43 C 0.41918 0.67272 0.81736 0.0
C44 C 0.35959 0.67268 0.82909 0.0
C45 C 0.33296 0.71249 0.8488 0.0
O46 O 0.30098 0.93625 0.876 0.0
O47 O 0.2565 0.90083 0.94987 0.0
O48 O 0.17771 0.98886 0.8335 0.0
O49 O 0.1477 0.92535 0.86475 0.0
C50 C 0.13644 0.96859 0.86128 0.0
O51 O 0.17398 0.82334 0.83687 0.0
O52 O 0.20686 0.87034 0.76577 0.0
O53 O 0.30717 0.78608 0.92874 0.0
O54 O 0.31998 0.82433 0.84889 0.0
H55 H 0.45082 0.78236 0.84965 0.0
H56 H 0.4393 0.64232 0.80045 0.0
H57 H 0.28703 0.71256 0.85831 0.0
O58 O 0.81105 0.96994 0.24912 0.0
Tb59 Tb 0.83613 0.92697 0.17854 0.0
Eu60 Eu 0.82791 0.83332 0.0947 0.0
C61 C 0.78256 1.00766 0.23931 0.0
O62 O 0.75895 0.01336 0.18919 0.0
C63 C 0.78213 0.93032 0.0632 0.0
O64 O 0.88716 0.79975 0.03154 0.0
C65 C 0.72967 0.79272 0.11287 0.0
C66 C 0.92066 0.76549 0.04514 0.0
O67 O 0.90973 0.74206 0.09157 0.0
C68 C 0.89583 0.8372 0.21495 0.0
C69 C 0.70299 0.75236 0.13963 0.0
C70 C 0.6434 0.75251 0.15306 0.0
C71 C 0.61605 0.71297 0.17365 0.0
C72 C 0.64914 0.67361 0.18096 0.0
C73 C 0.70874 0.67335 0.16936 0.0
C74 C 0.73565 0.71291 0.14899 0.0
O75 O 0.76685 0.93144 0.11702 0.0
O76 O 0.81932 0.89935 0.04709 0.0
O77 O 0.88883 0.98703 0.16361 0.0
O78 O 0.9197 0.92358 0.13364 0.0
C79 C 0.93103 0.96677 0.13748 0.0
O80 O 0.89502 0.82193 0.16239 0.0
O81 O 0.86034 0.86958 0.23203 0.0
O82 O 0.76271 0.78529 0.06791 0.0
O83 O 0.74995 0.82443 0.14679 0.0
H84 H 0.61822 0.78302 0.14655 0.0
H85 H 0.62882 0.64338 0.19832 0.0
H86 H 0.78161 0.71277 0.13958 0.0
O87 O 0.79609 0.04561 0.74261 0.0
Tb88 Tb 0.82381 0.09183 0.80807 0.0
Eu89 Eu 0.81781 0.18913 0.88461 0.0
C90 C 0.76738 0.0087 0.75639 0.0
O91 O 0.74496 1.00544 0.80781 0.0
C92 C 0.77696 0.09294 0.92499 0.0
O93 O 0.88649 0.22345 0.93681 0.0
C94 C 0.7179 0.22918 0.88164 0.0
C95 C 0.941 0.21661 0.92235 0.0
O96 O 0.95293 0.19114 0.87807 0.0
C97 C 0.87755 0.18161 0.75749 0.0
C98 C 0.68954 0.26962 0.85742 0.0
C99 C 0.62998 0.26882 0.84496 0.0
C100 C 0.60188 0.30833 0.82576 0.0
C101 C 0.63425 0.3483 0.81905 0.0
C102 C 0.69378 0.34915 0.82979 0.0
C103 C 0.72128 0.30968 0.84863 0.0
O104 O 0.75691 0.09094 0.87315 0.0
O105 O 0.81517 0.12451 0.93567 0.0
O106 O 0.87592 0.03259 0.82816 0.0
O107 O 0.90682 0.09767 0.85176 0.0
C108 C 0.91759 0.0543 0.85264 0.0
O109 O 0.87183 0.2033 0.80609 0.0
O110 O 0.84919 0.1438 0.74654 0.0
O111 O 0.75678 0.23684 0.92109 0.0
O112 O 0.73286 0.19672 0.84594 0.0
H113 H 0.6055 0.23777 0.85083 0.0
H114 H 0.61352 0.37851 0.80259 0.0
H115 H 0.76725 0.31032 0.85708 0.0
O116 O 0.75622 0.54989 0.74875 0.0
Tb117 Tb 0.73271 0.59364 0.6788 0.0
Eu118 Eu 0.74186 0.6883 0.59546 0.0
C119 C 0.78605 0.51283 0.73863 0.0
O120 O 0.81177 0.5084 0.68886 0.0
C121 C 0.78833 0.59221 0.56438 0.0
O122 O 0.68236 0.72195 0.53317 0.0
C123 C 0.84146 0.72631 0.61348 0.0
C124 C 0.6488 0.75629 0.547 0.0
O125 O 0.65932 0.77966 0.59325 0.0
C126 C 0.67332 0.68337 0.71674 0.0
C127 C 0.86774 0.76625 0.64072 0.0
C128 C 0.92682 0.76616 0.65551 0.0
C129 C 0.95308 0.80581 0.67672 0.0
C130 C 0.91942 0.84503 0.68311 0.0
C131 C 0.86036 0.8449 0.67024 0.0
C132 C 0.83458 0.80543 0.6495 0.0
O133 O 0.8036 0.59191 0.61786 0.0
O134 O 0.75034 0.62241 0.5486 0.0
O135 O 0.68163 0.53336 0.66084 0.0
O136 O 0.65027 0.59725 0.63334 0.0
C137 C 0.63979 0.55382 0.63505 0.0
O138 O 0.67507 0.69952 0.66452 0.0
O139 O 0.70779 0.6503 0.73312 0.0
O140 O 0.80962 0.73455 0.56843 0.0
O141 O 0.8192 0.69505 0.64735 0.0
H142 H 0.95239 0.73573 0.64956 0.0
H143 H 0.93877 0.87548 0.7005 0.0
H144 H 0.78901 0.80549 0.63917 0.0
O145 O 0.76579 0.47272 0.25326 0.0
Tb146 Tb 0.74079 0.42722 0.3217 0.0
Eu147 Eu 0.74807 0.32911 0.40437 0.0
C148 C 0.79472 0.50998 0.2646 0.0
O149 O 0.81794 0.51433 0.3151 0.0
C150 C 0.79348 0.4258 0.43637 0.0
O151 O 0.68278 0.29948 0.46544 0.0
C152 C 0.84656 0.28736 0.39455 0.0
C153 C 0.64901 0.26519 0.45241 0.0
O154 O 0.66101 0.24022 0.40764 0.0
C155 C 0.68442 0.33669 0.28096 0.0
C156 C 0.87549 0.2476 0.36894 0.0
C157 C 0.93571 0.24844 0.35858 0.0
C158 C 0.96465 0.20937 0.33884 0.0
C159 C 0.93239 0.16981 0.32926 0.0
C160 C 0.87227 0.16893 0.33792 0.0
C161 C 0.84397 0.208 0.35751 0.0
O162 O 0.81007 0.42669 0.38299 0.0
O163 O 0.75612 0.39471 0.45187 0.0
O164 O 0.68958 0.48694 0.34269 0.0
O165 O 0.65661 0.42219 0.36538 0.0
C166 C 0.64653 0.46567 0.36627 0.0
O167 O 0.68585 0.31857 0.33222 0.0
O168 O 0.71794 0.37107 0.26599 0.0
O169 O 0.80856 0.27898 0.43536 0.0
O170 O 0.83078 0.32034 0.36009 0.0
H171 H 0.96007 0.27912 0.36678 0.0
H172 H 0.95388 0.13998 0.31241 0.0
H173 H 0.79762 0.20735 0.36466 0.0
O174 O 0.30213 0.47203 0.74644 0.0
Tb175 Tb 0.32714 0.42684 0.67788 0.0
Eu176 Eu 0.31922 0.32924 0.59469 0.0
C177 C 0.27302 0.50921 0.73517 0.0
O178 O 0.2496 0.51356 0.68475 0.0
C179 C 0.27481 0.42622 0.56302 0.0
O180 O 0.38462 0.29962 0.53393 0.0
C181 C 0.22004 0.28803 0.60298 0.0
C182 C 0.41806 0.26516 0.54699 0.0
O183 O 0.40564 0.23996 0.59157 0.0
C184 C 0.38305 0.3359 0.71822 0.0
C185 C 0.19058 0.2477 0.62687 0.0
C186 C 0.13035 0.24846 0.63734 0.0
C187 C 0.10108 0.20895 0.65562 0.0
C188 C 0.13315 0.16908 0.66363 0.0
C189 C 0.19321 0.16816 0.6545 0.0
C190 C 0.22172 0.20765 0.63637 0.0
O191 O 0.25803 0.42701 0.61636 0.0
O192 O 0.31225 0.39525 0.54774 0.0
O193 O 0.37868 0.48666 0.65753 0.0
O194 O 0.4113 0.42206 0.63414 0.0
C195 C 0.42159 0.46554 0.6337 0.0
O196 O 0.38117 0.31783 0.66701 0.0
O197 O 0.34982 0.37034 0.73332 0.0
O198 O 0.25791 0.28053 0.56184 0.0
O199 O 0.23642 0.31981 0.6388 0.0
H200 H 0.10627 0.27946 0.63042 0.0
H201 H 0.11158 0.13893 0.67968 0.0
H202 H 0.26802 0.20702 0.62886 0.0
O203 O 0.31233 0.54945 0.24943 0.0
Tb204 Tb 0.33586 0.59345 0.31906 0.0
Eu205 Eu 0.32626 0.68848 0.40218 0.0
C206 C 0.28226 0.51246 0.25979 0.0
O207 O 0.25663 0.5081 0.30964 0.0
C208 C 0.28015 0.59214 0.43334 0.0
O209 O 0.38564 0.72198 0.4647 0.0
C210 C 0.22629 0.72631 0.38556 0.0
C211 C 0.4205 0.75559 0.45075 0.0
O212 O 0.41147 0.77868 0.40386 0.0
C213 C 0.39517 0.68357 0.28083 0.0
C214 C 0.19942 0.76683 0.36015 0.0
C215 C 0.14054 0.76648 0.34459 0.0
C216 C 0.11359 0.80657 0.32545 0.0
C217 C 0.1465 0.8465 0.32189 0.0
C218 C 0.20534 0.84678 0.33579 0.0
C219 C 0.23168 0.80686 0.35445 0.0
O220 O 0.26486 0.59174 0.37988 0.0
O221 O 0.31823 0.62236 0.44885 0.0
O222 O 0.38679 0.53322 0.33754 0.0
O223 O 0.41808 0.59714 0.36492 0.0
C224 C 0.42849 0.55372 0.36349 0.0
O225 O 0.39283 0.7001 0.33282 0.0
O226 O 0.36116 0.65014 0.26457 0.0
O227 O 0.25813 0.73352 0.43085 0.0
O228 O 0.24884 0.69618 0.35044 0.0
H229 H 0.11563 0.73547 0.34839 0.0
H230 H 0.12678 0.87728 0.30586 0.0
H231 H 0.27704 0.80719 0.36563 0.0
C232 C 0.24284 0.97081 0.33262 0.0
C233 C 0.28795 0.97145 0.29209 0.0
H234 H 0.18101 0.93027 0.3781 0.0
C235 C 0.31266 0.93013 0.27464 0.0
H236 H 0.2233 1.002 0.3476 0.0
C237 C 0.28847 0.889 0.29258 0.0
C238 C 0.23923 0.88877 0.32792 0.0
H239 H 0.34767 0.92946 0.24374 0.0
H240 H 0.30543 0.85762 0.27531 0.0
C241 C 0.21837 0.92981 0.34997 0.0
C242 C 0.08734 0.7864 0.76482 0.0
C243 C 0.12243 0.82335 0.74817 0.0
H244 H 1.0067 0.75123 0.75429 0.0
C245 C 0.10469 0.85003 0.70186 0.0
H246 H 0.09954 0.76508 0.80029 0.0
C247 C 0.05125 0.84226 0.67602 0.0
C248 C 1.01458 0.80719 0.69512 0.0
H249 H 0.13024 0.87884 0.68792 0.0
H250 H 0.03722 0.86515 0.6428 0.0
C251 C 1.03419 0.77824 0.73832 0.0
C252 C 0.79345 0.12993 0.28473 0.0
C253 C 0.83952 0.12755 0.32304 0.0
H254 H 0.7383 0.09329 0.22842 0.0
C255 C 0.85881 0.0849 0.34138 0.0
H256 H 0.77778 0.16246 0.27 0.0
C257 C 0.83593 0.04532 0.31813 0.0
C258 C 0.79391 0.04771 0.27541 0.0
H259 H 0.89376 0.08225 0.37153 0.0
H260 H 0.85434 0.0131 0.33067 0.0
C261 C 0.77093 0.0903 0.26093 0.0
C262 C 0.94782 0.16559 0.67761 0.0
C263 C 0.92642 0.19559 0.71924 0.0
H264 H 1.01953 0.14664 0.62434 0.0
C265 C 0.95937 0.23458 0.73173 0.0
H266 H 0.92403 0.13523 0.66669 0.0
C267 C 1.01441 0.24106 0.70737 0.0
C268 C 0.03799 0.20862 0.67012 0.0
H269 H 0.94447 0.25859 0.76345 0.0
H270 H 0.0402 0.26962 0.72111 0.0
C271 C 1.00293 0.17195 0.65357 0.0
C272 C 0.22794 0.04397 0.67145 0.0
C273 C 0.27223 0.04553 0.71192 0.0
H274 H 0.16835 0.08193 0.62117 0.0
C275 C 0.29702 0.0877 0.72539 0.0
H276 H 0.20829 0.01205 0.65957 0.0
C277 C 0.27398 0.12778 0.70327 0.0
C278 C 0.2258 0.12627 0.66746 0.0
H279 H 0.33141 0.09008 0.75616 0.0
H280 H 0.29113 0.15997 0.71753 0.0
C281 C 0.20478 0.08398 0.64966 0.0
C282 C 1.03304 0.77827 0.26346 0.0
C283 C 0.05225 0.80774 0.3062 0.0
H284 H 0.96829 0.76419 0.20128 0.0
C285 C 1.01516 0.8428 0.32437 0.0
H286 H 0.06071 0.75119 0.24824 0.0
C287 C 0.96194 0.85014 0.29787 0.0
C288 C 0.94473 0.82295 0.25193 0.0
H289 H 1.02867 0.86599 0.3574 0.0
H290 H 0.93618 0.879 0.31099 0.0
C291 C 0.98008 0.78594 0.2364 0.0
C292 C 0.81947 0.96791 0.6786 0.0
C293 C 0.77828 0.96711 0.72301 0.0
H294 H 0.87829 0.92917 0.62732 0.0
C295 C 0.75662 0.92508 0.74195 0.0
H296 H 0.83674 0.99965 0.66256 0.0
C297 C 0.78014 0.88468 0.72105 0.0
C298 C 0.82582 0.88593 0.68141 0.0
H299 H 0.72461 0.92335 0.7758 0.0
H300 H 0.76582 0.85271 0.73913 0.0
C301 C 0.84349 0.92763 0.65845 0.0
C302 C 0.05106 0.24115 0.28641 0.0
C303 C 1.02769 0.20925 0.32468 0.0
H304 H 0.12117 0.25815 0.23006 0.0
C305 C 0.06287 0.17312 0.34255 0.0
H306 H 1.02501 0.26922 0.27163 0.0
C307 C 0.11825 0.16688 0.3192 0.0
C308 C 0.13962 0.19632 0.27676 0.0
H309 H 0.0462 0.14816 0.37236 0.0
H310 H 0.14231 0.13696 0.33133 0.0
C311 C 0.10629 0.23466 0.26252 0.0
C312 C 0.73037 0.4732 0.81548 0.0
C313 C 0.77399 0.47199 0.77342 0.0
H314 H 0.67062 0.43478 0.86638 0.0
C315 C 0.79789 0.42988 0.758 0.0
H316 H 0.71126 0.50503 0.82876 0.0
C317 C 0.77469 0.38962 0.77997 0.0
C318 C 0.72706 0.39092 0.81737 0.0
H319 H 0.83178 0.4278 0.726 0.0
H320 H 0.79111 0.35751 0.76439 0.0
C321 C 0.70683 0.43301 0.83689 0.0
C322 C 0.56391 0.3455 0.17376 0.0
C323 C 0.52761 0.30947 0.19064 0.0
H324 H 0.64265 0.3818 0.18787 0.0
C325 C 0.54829 0.27806 0.23052 0.0
H326 H 0.54934 0.37006 0.14273 0.0
C327 C 0.60181 0.28486 0.25669 0.0
C328 C 0.6361 0.32302 0.24316 0.0
H329 H 0.52131 0.2501 0.24459 0.0
H330 H 0.61465 0.26164 0.28998 0.0
C331 C 0.61764 0.35207 0.19946 0.0
C332 C 0.34494 0.58907 0.83721 0.0
C333 C 0.32589 0.63121 0.81684 0.0
H334 H 0.34164 0.51704 0.82862 0.0
C335 C 0.28081 0.63249 0.77738 0.0
H336 H 0.37936 0.58731 0.86806 0.0
C337 C 0.2594 0.59219 0.75423 0.0
C338 C 0.28257 0.55005 0.77053 0.0
H339 H 0.26546 0.66462 0.76101 0.0
H340 H 0.22775 0.59429 0.72069 0.0
C341 C 0.32319 0.54884 0.81461 0.0
C342 C 0.46384 0.6693 0.19931 0.0
C343 C 0.44458 0.69766 0.24364 0.0
H344 H 0.53322 0.65217 0.14214 0.0
C345 C 0.4787 0.73553 0.25799 0.0
H346 H 0.43901 0.63977 0.18714 0.0
C347 C 0.53263 0.74281 0.23173 0.0
C348 C 0.55393 0.71211 0.19104 0.0
H349 H 0.46524 0.75819 0.29181 0.0
H350 H 0.5594 0.77056 0.24623 0.0
C351 C 0.51802 0.67627 0.17363 0.0
C352 C 0.74472 0.54955 0.18493 0.0
C353 C 0.78521 0.55083 0.22912 0.0
H354 H 0.68878 0.58791 0.13107 0.0
C355 C 0.80834 0.593 0.2453 0.0
H356 H 0.7263 0.51771 0.17102 0.0
C357 C 0.78707 0.63326 0.22185 0.0
C358 C 0.74215 0.63189 0.18221 0.0
H359 H 0.83988 0.59515 0.27893 0.0
H360 H 0.80241 0.66543 0.23805 0.0
C361 C 0.72308 0.58973 0.16204 0.0
C362 C 0.46613 0.28426 0.74197 0.0
C363 C 0.43147 0.32204 0.75592 0.0
H364 H 0.54691 0.24986 0.75385 0.0
C365 C 0.44961 0.35066 0.80012 0.0
H366 H 0.45359 0.26136 0.70828 0.0
C367 C 0.50331 0.34412 0.8259 0.0
C368 C 0.53995 0.30851 0.80866 0.0
H369 H 0.42435 0.3801 0.81209 0.0
H370 H 0.51764 0.36844 0.85727 0.0
C371 C 0.51963 0.27746 0.76824 0.0
C372 C 0.33659 0.47282 0.18222 0.0
C373 C 0.29366 0.47161 0.22497 0.0
H374 H 0.39556 0.43439 0.13072 0.0
C375 C 0.26989 0.42948 0.24091 0.0
H376 H 0.35554 0.50465 0.1685 0.0
C377 C 0.29272 0.3892 0.21884 0.0
C378 C 0.33982 0.39051 0.18079 0.0
H379 H 0.23651 0.42739 0.27343 0.0
H380 H 0.27657 0.3571 0.23492 0.0
C381 C 0.35974 0.43261 0.16067 0.0
C382 C 0.53591 0.74208 0.76578 0.0
C383 C 0.51454 0.71114 0.80631 0.0
H384 H 0.60341 0.75788 0.7059 0.0
C385 C 0.55039 0.67526 0.82367 0.0
H386 H 0.5092 0.76989 0.75134 0.0
C387 C 0.60463 0.66852 0.79809 0.0
C388 C 0.62394 0.69716 0.75393 0.0
H389 H 0.53515 0.65102 0.85509 0.0
H390 H 0.62944 0.63898 0.81018 0.0
C391 C 0.58988 0.73503 0.73962 0.0
C392 C 0.09153 0.9841 0.12991 0.0
C393 C 0.09503 0.03161 0.13347 0.0
H394 H 0.03596 0.92596 0.12661 0.0
C395 C 0.04466 0.05755 0.12809 0.0
H396 H 0.13 0.96343 0.13354 0.0
C397 C 0.99093 0.0361 0.1249 0.0
C398 C 0.9871 0.98853 0.126 0.0
H399 H 0.04634 0.09422 0.13055 0.0
H400 H 0.95219 0.0567 0.1249 0.0
C401 C 0.03787 0.96267 0.12565 0.0
C402 C 1.02295 0.05917 0.8723 0.0
C403 C 0.97246 0.03308 0.86898 0.0
H404 H 0.11548 0.05858 0.87266 0.0
C405 C 0.9761 0.98563 0.87356 0.0
H406 H 1.02117 0.09581 0.86905 0.0
C407 C 1.02993 0.96435 0.87663 0.0
C408 C 0.08067 0.99031 0.87412 0.0
H409 H 0.93754 0.96485 0.87156 0.0
H410 H 1.03186 0.92763 0.87643 0.0
C411 C 0.07679 0.03788 0.87433 0.0
C412 C 0.58183 0.4839 0.61923 0.0
C413 C 0.58495 0.53151 0.62049 0.0
H414 H 0.52686 0.4253 0.62095 0.0
C415 C 0.534 0.55691 0.61612 0.0
H416 H 0.62069 0.4636 0.62214 0.0
C417 C 0.48039 0.53499 0.61617 0.0
C418 C 0.47715 0.48744 0.61967 0.0
H419 H 0.53532 0.59363 0.6169 0.0
H420 H 0.44143 0.55533 0.61673 0.0
C421 C 0.52825 0.46197 0.61836 0.0
C422 C 0.53981 0.46196 0.38113 0.0
C423 C 0.59094 0.48748 0.38012 0.0
H424 H 0.44741 0.4635 0.37673 0.0
C425 C 0.58772 0.53501 0.3836 0.0
H426 H 0.54118 0.42529 0.37857 0.0
C427 C 0.53413 0.55688 0.38324 0.0
C428 C 0.4832 0.53145 0.37851 0.0
H429 H 0.6267 0.5554 0.38326 0.0
H430 H 0.53286 0.5936 0.38239 0.0
C431 C 0.48626 0.48384 0.37989 0.0
C432 C 0.30614 1.00481 0.06407 0.0
C433 C 0.30482 0.04915 0.04203 0.0
H434 H 0.30203 0.93354 0.04609 0.0
C435 C 0.30424 0.05502 0.98268 0.0
H436 H 0.30542 0.99905 0.1095 0.0
C437 C 0.30316 0.01743 0.94625 0.0
C438 C 0.30132 0.97311 0.96839 0.0
H439 H 0.30273 0.08876 0.96444 0.0
H440 H 0.30028 0.02326 0.90095 0.0
C441 C 0.30381 0.96723 0.02769 0.0
C442 C 0.06657 0.72326 0.99189 0.0
C443 C 0.09344 0.76458 0.97778 0.0
H444 H 0.99008 0.69098 0.02592 0.0
C445 C 0.06232 0.80511 0.98364 0.0
H446 H 0.08974 0.69157 0.98709 0.0
C447 C 1.00552 0.80462 0.00328 0.0
C448 C 0.97875 0.76368 0.01896 0.0
H449 H 0.08162 0.83739 0.9721 0.0
H450 H 0.98314 0.8367 0.00775 0.0
C451 C 1.00978 0.7229 0.01362 0.0
C452 C 0.72602 0.02508 0.96835 0.0
C453 C 0.77602 0.05179 0.96142 0.0
H454 H 0.68808 0.96587 0.0079 0.0
C455 C 0.82704 0.03818 0.98851 0.0
H456 H 0.68625 0.03468 0.94765 0.0
C457 C 0.82841 0.99863 0.02113 0.0
C458 C 0.77847 0.97234 0.02906 0.0
H459 H 0.8666 0.0575 0.9833 0.0
H460 H 0.86879 0.98849 0.04008 0.0
C461 C 0.72701 0.98593 0.00276 0.0
C462 C 0.09258 0.22962 0.97526 0.0
C463 C 0.08326 0.22618 0.03408 0.0
H464 H 0.05358 0.22958 0.89309 0.0
C465 C 1.02657 0.22899 0.05593 0.0
H466 H 0.13583 0.22759 0.95741 0.0
C467 C 0.97954 0.23072 0.01927 0.0
C468 C 0.98867 0.22888 0.96032 0.0
H469 H 1.01841 0.22687 0.10133 0.0
H470 H 0.93623 0.22946 0.03712 0.0
C471 C 0.0455 0.23059 0.93856 0.0
C472 C 0.74139 0.48736 0.48662 0.0
C473 C 0.79417 0.46831 0.46921 0.0
H474 H 0.69866 0.5423 0.52841 0.0
C475 C 0.846 0.49028 0.48325 0.0
H476 H 0.70084 0.4711 0.47636 0.0
C477 C 0.84478 0.53042 0.51545 0.0
C478 C 0.79166 0.5497 0.53174 0.0
H479 H 0.88715 0.47606 0.4702 0.0
H480 H 0.885 0.54675 0.52672 0.0
C481 C 0.74013 0.52803 0.51655 0.0
C482 C 0.50513 0.22227 0.5108 0.0
C483 C 0.4765 0.26347 0.52141 0.0
H484 H 0.58263 0.19029 0.47894 0.0
C485 C 0.50556 0.30442 0.51059 0.0
H486 H 0.48365 0.19028 0.51927 0.0
C487 C 0.56217 0.30441 0.49006 0.0
C488 C 0.5907 0.26346 0.47831 0.0
H489 H 0.48492 0.3367 0.5192 0.0
H490 H 0.58318 0.3367 0.48209 0.0
C491 C 0.56157 0.22227 0.48813 0.0
C492 C 0.22232 0.49017 0.51491 0.0
C493 C 0.27414 0.46872 0.53001 0.0
H494 H 0.1834 0.54608 0.47014 0.0
C495 C 0.32697 0.48808 0.51309 0.0
H496 H 0.18112 0.47566 0.52751 0.0
C497 C 0.32826 0.52856 0.4826 0.0
C498 C 0.27675 0.54973 0.46638 0.0
H499 H 0.36752 0.47218 0.52407 0.0
H500 H 0.36977 0.54306 0.47109 0.0
C501 C 0.22361 0.53013 0.48219 0.0
C502 C 0.56421 0.79888 0.5064 0.0
C503 C 0.59068 0.75789 0.52195 0.0
H504 H 0.48911 0.83041 0.47003 0.0
C505 C 0.55991 0.71717 0.51629 0.0
H506 H 0.58707 0.83072 0.51097 0.0
C507 C 0.50381 0.71717 0.49545 0.0
C508 C 0.47756 0.75778 0.47827 0.0
H509 H 0.57896 0.68516 0.52886 0.0
H510 H 0.48164 0.68498 0.4912 0.0
C511 C 0.50833 0.79872 0.48344 0.0
loop_
_geom_bond_atom_site_label_1
_geom_bond_atom_site_label_2
_geom_bond_distance
_geom_bond_site_symmetry_2
_ccdc_geom_bond_type
O0 Tb1 2.292 . S
O0 C3 1.255 . S
Tb1 O0 2.292 . S
Tb1 O17 2.326 . S
Tb1 O19 2.500 . S
Tb1 O20 2.473 . S
Tb1 O23 2.324 . S
Eu2 O6 2.292 . S
Eu2 C7 2.852 . S
Eu2 O18 2.324 . S
Eu2 O22 2.326 . S
Eu2 O24 2.500 . S
Eu2 O25 2.473 . S
C3 O0 1.255 . S
C3 O4 1.247 . S
O4 C3 1.247 . S
C5 O17 1.242 . S
C5 O18 1.258 . S
O6 Eu2 2.292 . S
O6 C8 1.255 . S
C7 Eu2 2.852 . S
C7 C11 1.503 . S
C7 O24 1.273 . S
C7 O25 1.257 . S
C8 O6 1.255 . S
C8 O9 1.247 1_455 S
O9 C8 1.247 1_655 S
C10 O22 1.242 . S
C10 O23 1.258 . S
C11 C7 1.503 . S
C11 C12 1.379 . S
C11 C16 1.392 . S
C12 C11 1.379 . S
C12 C13 1.404 . S
C12 H26 0.929 . S
C13 C12 1.404 . S
C13 C14 1.389 . S
C14 C13 1.389 . S
C14 C15 1.399 . S
C14 H27 0.931 . S
C15 C14 1.399 . S
C15 C16 1.390 . S
C16 C11 1.392 . S
C16 C15 1.390 . S
C16 H28 0.929 . S
O17 Tb1 2.326 . S
O17 C5 1.242 . S
O18 Eu2 2.324 . S
O18 C5 1.258 . S
O19 Tb1 2.500 . S
O19 C21 1.273 . S
O20 Tb1 2.473 . S
O20 C21 1.257 . S
C21 O19 1.273 . S
C21 O20 1.257 . S
O22 Eu2 2.326 . S
O22 C10 1.242 . S
O23 Tb1 2.324 . S
O23 C10 1.258 . S
O24 Eu2 2.500 . S
O24 C7 1.273 . S
O25 Eu2 2.473 . S
O25 C7 1.257 . S
H26 C12 0.929 . S
H27 C14 0.931 . S
H28 C16 0.929 . S
O29 Tb30 2.292 . S
O29 C32 1.255 . S
Tb30 O29 2.292 . S
Tb30 O46 2.326 . S
Tb30 O48 2.500 . S
Tb30 O49 2.473 . S
Tb30 O52 2.324 . S
Eu31 O35 2.292 . S
Eu31 C36 2.852 . S
Eu31 O47 2.324 . S
Eu31 O51 2.326 . S
Eu31 O53 2.500 . S
Eu31 O54 2.473 . S
C32 O29 1.255 . S
C32 O33 1.247 . S
O33 C32 1.247 . S
C34 O46 1.242 . S
C34 O47 1.258 . S
O35 Eu31 2.292 . S
O35 C37 1.255 . S
C36 Eu31 2.852 . S
C36 C40 1.503 . S
C36 O53 1.273 . S
C36 O54 1.257 . S
C37 O35 1.255 . S
C37 O38 1.247 1_455 S
O38 C37 1.247 1_655 S
C39 O51 1.242 . S
C39 O52 1.258 . S
C40 C36 1.503 . S
C40 C41 1.379 . S
C40 C45 1.392 . S
C41 C40 1.379 . S
C41 C42 1.404 . S
C41 H55 0.929 . S
C42 C41 1.404 . S
C42 C43 1.389 . S
C43 C42 1.389 . S
C43 C44 1.399 . S
C43 H56 0.931 . S
C44 C43 1.399 . S
C44 C45 1.390 . S
C45 C40 1.392 . S
C45 C44 1.390 . S
C45 H57 0.929 . S
O46 Tb30 2.326 . S
O46 C34 1.242 . S
O47 Eu31 2.324 . S
O47 C34 1.258 . S
O48 Tb30 2.500 . S
O48 C50 1.273 . S
O49 Tb30 2.473 . S
O49 C50 1.257 . S
C50 O48 1.273 . S
C50 O49 1.257 . S
O51 Eu31 2.326 . S
O51 C39 1.242 . S
O52 Tb30 2.324 . S
O52 C39 1.258 . S
O53 Eu31 2.500 . S
O53 C36 1.273 . S
O54 Eu31 2.473 . S
O54 C36 1.257 . S
H55 C41 0.929 . S
H56 C43 0.931 . S
H57 C45 0.929 . S
O58 Tb59 2.292 . S
O58 C61 1.255 . S
Tb59 O58 2.292 . S
Tb59 O75 2.326 . S
Tb59 O77 2.500 . S
Tb59 O78 2.473 . S
Tb59 O81 2.324 . S
Eu60 O64 2.292 . S
Eu60 C65 2.852 . S
Eu60 O76 2.324 . S
Eu60 O80 2.326 . S
Eu60 O82 2.500 . S
Eu60 O83 2.473 . S
C61 O58 1.255 . S
C61 O62 1.247 . S
O62 C61 1.247 . S
C63 O75 1.242 . S
C63 O76 1.258 . S
O64 Eu60 2.292 . S
O64 C66 1.255 . S
C65 Eu60 2.852 . S
C65 C69 1.503 . S
C65 O82 1.273 . S
C65 O83 1.257 . S
C66 O64 1.255 . S
C66 O67 1.247 1_655 S
O67 C66 1.247 1_455 S
C68 O80 1.242 . S
C68 O81 1.258 . S
C69 C65 1.503 . S
C69 C70 1.379 . S
C69 C74 1.392 . S
C70 C69 1.379 . S
C70 C71 1.404 . S
C70 H84 0.929 . S
C71 C70 1.404 . S
C71 C72 1.389 . S
C72 C71 1.389 . S
C72 C73 1.399 . S
C72 H85 0.931 . S
C73 C72 1.399 . S
C73 C74 1.390 . S
C74 C69 1.392 . S
C74 C73 1.390 . S
C74 H86 0.929 . S
O75 Tb59 2.326 . S
O75 C63 1.242 . S
O76 Eu60 2.324 . S
O76 C63 1.258 . S
O77 Tb59 2.500 . S
O77 C79 1.273 . S
O78 Tb59 2.473 . S
O78 C79 1.257 . S
C79 O77 1.273 . S
C79 O78 1.257 . S
O80 Eu60 2.326 . S
O80 C68 1.242 . S
O81 Tb59 2.324 . S
O81 C68 1.258 . S
O82 Eu60 2.500 . S
O82 C65 1.273 . S
O83 Eu60 2.473 . S
O83 C65 1.257 . S
H84 C70 0.929 . S
H85 C72 0.931 . S
H86 C74 0.929 . S
O87 Tb88 2.292 . S
O87 C90 1.255 . S
Tb88 O87 2.292 . S
Tb88 O104 2.326 . S
Tb88 O106 2.500 . S
Tb88 O107 2.473 . S
Tb88 O110 2.324 . S
Eu89 O93 2.292 . S
Eu89 C94 2.852 . S
Eu89 O105 2.324 . S
Eu89 O109 2.326 . S
Eu89 O111 2.500 . S
Eu89 O112 2.473 . S
C90 O87 1.255 . S
C90 O91 1.247 . S
O91 C90 1.247 . S
C92 O104 1.242 . S
C92 O105 1.258 . S
O93 Eu89 2.292 . S
O93 C95 1.255 . S
C94 Eu89 2.852 . S
C94 C98 1.503 . S
C94 O111 1.273 . S
C94 O112 1.257 . S
C95 O93 1.255 . S
C95 O96 1.247 1_655 S
O96 C95 1.247 1_455 S
C97 O109 1.242 . S
C97 O110 1.258 . S
C98 C94 1.503 . S
C98 C99 1.379 . S
C98 C103 1.392 . S
C99 C98 1.379 . S
C99 C100 1.404 . S
C99 H113 0.929 . S
C100 C99 1.404 . S
C100 C101 1.389 . S
C101 C100 1.389 . S
C101 C102 1.399 . S
C101 H114 0.931 . S
C102 C101 1.399 . S
C102 C103 1.390 . S
C103 C98 1.392 . S
C103 C102 1.390 . S
C103 H115 0.929 . S
O104 Tb88 2.326 . S
O104 C92 1.242 . S
O105 Eu89 2.324 . S
O105 C92 1.258 . S
O106 Tb88 2.500 . S
O106 C108 1.273 . S
O107 Tb88 2.473 . S
O107 C108 1.257 . S
C108 O106 1.273 . S
C108 O107 1.257 . S
O109 Eu89 2.326 . S
O109 C97 1.242 . S
O110 Tb88 2.324 . S
O110 C97 1.258 . S
O111 Eu89 2.500 . S
O111 C94 1.273 . S
O112 Eu89 2.473 . S
O112 C94 1.257 . S
H113 C99 0.929 . S
H114 C101 0.931 . S
H115 C103 0.929 . S
O116 Tb117 2.292 . S
O116 C119 1.255 . S
Tb117 O116 2.292 . S
Tb117 O133 2.326 . S
Tb117 O135 2.500 . S
Tb117 O136 2.473 . S
Tb117 O139 2.324 . S
Eu118 O122 2.292 . S
Eu118 C123 2.852 . S
Eu118 O134 2.324 . S
Eu118 O138 2.326 . S
Eu118 O140 2.500 . S
Eu118 O141 2.473 . S
C119 O116 1.255 . S
C119 O120 1.247 . S
O120 C119 1.247 . S
C121 O133 1.242 . S
C121 O134 1.258 . S
O122 Eu118 2.292 . S
O122 C124 1.255 . S
C123 Eu118 2.852 . S
C123 C127 1.503 . S
C123 O140 1.273 . S
C123 O141 1.257 . S
C124 O122 1.255 . S
C124 O125 1.247 . S
O125 C124 1.247 . S
C126 O138 1.242 . S
C126 O139 1.258 . S
C127 C123 1.503 . S
C127 C128 1.379 . S
C127 C132 1.392 . S
C128 C127 1.379 . S
C128 C129 1.404 . S
C128 H142 0.929 . S
C129 C128 1.404 . S
C129 C130 1.389 . S
C130 C129 1.389 . S
C130 C131 1.399 . S
C130 H143 0.931 . S
C131 C130 1.399 . S
C131 C132 1.390 . S
C132 C127 1.392 . S
C132 C131 1.390 . S
C132 H144 0.929 . S
O133 Tb117 2.326 . S
O133 C121 1.242 . S
O134 Eu118 2.324 . S
O134 C121 1.258 . S
O135 Tb117 2.500 . S
O135 C137 1.273 . S
O136 Tb117 2.473 . S
O136 C137 1.257 . S
C137 O135 1.273 . S
C137 O136 1.257 . S
O138 Eu118 2.326 . S
O138 C126 1.242 . S
O139 Tb117 2.324 . S
O139 C126 1.258 . S
O140 Eu118 2.500 . S
O140 C123 1.273 . S
O141 Eu118 2.473 . S
O141 C123 1.257 . S
H142 C128 0.929 . S
H143 C130 0.931 . S
H144 C132 0.929 . S
O145 Tb146 2.292 . S
O145 C148 1.255 . S
Tb146 O145 2.292 . S
Tb146 O162 2.326 . S
Tb146 O164 2.500 . S
Tb146 O165 2.473 . S
Tb146 O168 2.324 . S
Eu147 O151 2.292 . S
Eu147 C152 2.852 . S
Eu147 O163 2.324 . S
Eu147 O167 2.326 . S
Eu147 O169 2.500 . S
Eu147 O170 2.473 . S
C148 O145 1.255 . S
C148 O149 1.247 . S
O149 C148 1.247 . S
C150 O162 1.242 . S
C150 O163 1.258 . S
O151 Eu147 2.292 . S
O151 C153 1.255 . S
C152 Eu147 2.852 . S
C152 C156 1.503 . S
C152 O169 1.273 . S
C152 O170 1.257 . S
C153 O151 1.255 . S
C153 O154 1.247 . S
O154 C153 1.247 . S
C155 O167 1.242 . S
C155 O168 1.258 . S
C156 C152 1.503 . S
C156 C157 1.379 . S
C156 C161 1.392 . S
C157 C156 1.379 . S
C157 C158 1.404 . S
C157 H171 0.929 . S
C158 C157 1.404 . S
C158 C159 1.389 . S
C159 C158 1.389 . S
C159 C160 1.399 . S
C159 H172 0.931 . S
C160 C159 1.399 . S
C160 C161 1.390 . S
C161 C156 1.392 . S
C161 C160 1.390 . S
C161 H173 0.929 . S
O162 Tb146 2.326 . S
O162 C150 1.242 . S
O163 Eu147 2.324 . S
O163 C150 1.258 . S
O164 Tb146 2.500 . S
O164 C166 1.273 . S
O165 Tb146 2.473 . S
O165 C166 1.257 . S
C166 O164 1.273 . S
C166 O165 1.257 . S
O167 Eu147 2.326 . S
O167 C155 1.242 . S
O168 Tb146 2.324 . S
O168 C155 1.258 . S
O169 Eu147 2.500 . S
O169 C152 1.273 . S
O170 Eu147 2.473 . S
O170 C152 1.257 . S
H171 C157 0.929 . S
H172 C159 0.931 . S
H173 C161 0.929 . S
O174 Tb175 2.292 . S
O174 C177 1.255 . S
Tb175 O174 2.292 . S
Tb175 O191 2.326 . S
Tb175 O193 2.500 . S
Tb175 O194 2.473 . S
Tb175 O197 2.324 . S
Eu176 O180 2.292 . S
Eu176 C181 2.852 . S
Eu176 O192 2.324 . S
Eu176 O196 2.326 . S
Eu176 O198 2.500 . S
Eu176 O199 2.473 . S
C177 O174 1.255 . S
C177 O178 1.247 . S
O178 C177 1.247 . S
C179 O191 1.242 . S
C179 O192 1.258 . S
O180 Eu176 2.292 . S
O180 C182 1.255 . S
C181 Eu176 2.852 . S
C181 C185 1.503 . S
C181 O198 1.273 . S
C181 O199 1.257 . S
C182 O180 1.255 . S
C182 O183 1.247 . S
O183 C182 1.247 . S
C184 O196 1.242 . S
C184 O197 1.258 . S
C185 C181 1.503 . S
C185 C186 1.379 . S
C185 C190 1.392 . S
C186 C185 1.379 . S
C186 C187 1.404 . S
C186 H200 0.929 . S
C187 C186 1.404 . S
C187 C188 1.389 . S
C188 C187 1.389 . S
C188 C189 1.399 . S
C188 H201 0.931 . S
C189 C188 1.399 . S
C189 C190 1.390 . S
C190 C185 1.392 . S
C190 C189 1.390 . S
C190 H202 0.929 . S
O191 Tb175 2.326 . S
O191 C179 1.242 . S
O192 Eu176 2.324 . S
O192 C179 1.258 . S
O193 Tb175 2.500 . S
O193 C195 1.273 . S
O194 Tb175 2.473 . S
O194 C195 1.257 . S
C195 O193 1.273 . S
C195 O194 1.257 . S
O196 Eu176 2.326 . S
O196 C184 1.242 . S
O197 Tb175 2.324 . S
O197 C184 1.258 . S
O198 Eu176 2.500 . S
O198 C181 1.273 . S
O199 Eu176 2.473 . S
O199 C181 1.257 . S
H200 C186 0.929 . S
H201 C188 0.931 . S
H202 C190 0.929 . S
O203 Tb204 2.292 . S
O203 C206 1.255 . S
Tb204 O203 2.292 . S
Tb204 O220 2.326 . S
Tb204 O222 2.500 . S
Tb204 O223 2.473 . S
Tb204 O226 2.324 . S
Eu205 O209 2.292 . S
Eu205 C210 2.852 . S
Eu205 O221 2.324 . S
Eu205 O225 2.326 . S
Eu205 O227 2.500 . S
Eu205 O228 2.473 . S
C206 O203 1.255 . S
C206 O207 1.247 . S
O207 C206 1.247 . S
C208 O220 1.242 . S
C208 O221 1.258 . S
O209 Eu205 2.292 . S
O209 C211 1.255 . S
C210 Eu205 2.852 . S
C210 C214 1.503 . S
C210 O227 1.273 . S
C210 O228 1.257 . S
C211 O209 1.255 . S
C211 O212 1.247 . S
O212 C211 1.247 . S
C213 O225 1.242 . S
C213 O226 1.258 . S
C214 C210 1.503 . S
C214 C215 1.379 . S
C214 C219 1.392 . S
C215 C214 1.379 . S
C215 C216 1.404 . S
C215 H229 0.929 . S
C216 C215 1.404 . S
C216 C217 1.389 . S
C217 C216 1.389 . S
C217 C218 1.399 . S
C217 H230 0.931 . S
C218 C217 1.399 . S
C218 C219 1.390 . S
C219 C214 1.392 . S
C219 C218 1.390 . S
C219 H231 0.929 . S
O220 Tb204 2.326 . S
O220 C208 1.242 . S
O221 Eu205 2.324 . S
O221 C208 1.258 . S
O222 Tb204 2.500 . S
O222 C224 1.273 . S
O223 Tb204 2.473 . S
O223 C224 1.257 . S
C224 O222 1.273 . S
C224 O223 1.257 . S
O225 Eu205 2.326 . S
O225 C213 1.242 . S
O226 Tb204 2.324 . S
O226 C213 1.258 . S
O227 Eu205 2.500 . S
O227 C210 1.273 . S
O228 Eu205 2.473 . S
O228 C210 1.257 . S
H229 C215 0.929 . S
H230 C217 0.931 . S
H231 C219 0.929 . S
C232 C233 1.387 . S
C232 H236 0.950 . S
C232 C241 1.390 . S
C233 C232 1.387 . S
C233 C235 1.387 . S
H234 C241 0.950 . S
C235 C233 1.387 . S
C235 C237 1.390 . S
C235 H239 0.950 . S
H236 C232 0.950 . S
C237 C235 1.390 . S
C237 C238 1.387 . S
C237 H240 0.950 . S
C238 C237 1.387 . S
C238 C241 1.387 . S
H239 C235 0.950 . S
H240 C237 0.950 . S
C241 C232 1.390 . S
C241 H234 0.950 . S
C241 C238 1.387 . S
C242 C243 1.387 1_655 S
C242 H246 0.950 1_655 S
C242 C251 1.390 . S
C243 C242 1.387 1_455 S
C243 C245 1.387 1_455 S
H244 C251 0.950 . S
C245 C243 1.387 1_655 S
C245 C247 1.390 . S
C245 H249 0.950 . S
H246 C242 0.950 1_455 S
C247 C245 1.390 . S
C247 C248 1.387 . S
C247 H250 0.950 . S
C248 C247 1.387 . S
C248 C251 1.387 . S
H249 C245 0.950 . S
H250 C247 0.950 . S
C251 C242 1.390 . S
C251 H244 0.950 . S
C251 C248 1.387 . S
C252 C253 1.387 . S
C252 H256 0.950 . S
C252 C261 1.390 . S
C253 C252 1.387 . S
C253 C255 1.387 . S
H254 C261 0.950 . S
C255 C253 1.387 . S
C255 C257 1.390 . S
C255 H259 0.950 . S
H256 C252 0.950 . S
C257 C255 1.390 . S
C257 C258 1.387 . S
C257 H260 0.950 1_545 S
C258 C257 1.387 . S
C258 C261 1.387 . S
H259 C255 0.950 . S
H260 C257 0.950 1_565 S
C261 C252 1.390 . S
C261 H254 0.950 . S
C261 C258 1.387 . S
C262 C263 1.391 . S
C262 H266 0.962 . S
C262 C271 1.374 1_655 S
C263 C262 1.391 . S
C263 C265 1.387 1_655 S
H264 C271 0.950 . S
C265 C263 1.387 1_455 S
C265 C267 1.390 . S
C265 H269 0.950 . S
H266 C262 0.962 . S
C267 C265 1.390 . S
C267 C268 1.387 . S
C267 H270 0.950 . S
C268 C267 1.387 . S
C268 C271 1.387 . S
H269 C265 0.950 . S
H270 C267 0.950 . S
C271 C262 1.374 1_455 S
C271 H264 0.950 . S
C271 C268 1.387 . S
C272 C273 1.387 . S
C272 H276 0.950 . S
C272 C281 1.390 . S
C273 C272 1.387 . S
C273 C275 1.387 . S
H274 C281 0.950 . S
C275 C273 1.387 . S
C275 C277 1.390 . S
C275 H279 0.950 . S
H276 C272 0.950 . S
C277 C275 1.390 . S
C277 C278 1.387 . S
C277 H280 0.950 . S
C278 C277 1.387 . S
C278 C281 1.387 . S
H279 C275 0.950 . S
H280 C277 0.950 . S
C281 C272 1.390 . S
C281 H274 0.950 . S
C281 C278 1.387 . S
C282 C283 1.387 . S
C282 H286 0.950 . S
C282 C291 1.390 . S
C283 C282 1.387 . S
C283 C285 1.387 . S
H284 C291 0.950 1_655 S
C285 C283 1.387 . S
C285 C287 1.390 . S
C285 H289 0.950 . S
H286 C282 0.950 . S
C287 C285 1.390 . S
C287 C288 1.387 1_455 S
C287 H290 0.950 . S
C288 C287 1.387 1_655 S
C288 C291 1.387 1_655 S
H289 C285 0.950 . S
H290 C287 0.950 . S
C291 C282 1.390 . S
C291 H284 0.950 1_455 S
C291 C288 1.387 1_455 S
C292 C293 1.387 . S
C292 H296 0.950 1_565 S
C292 C301 1.390 . S
C293 C292 1.387 . S
C293 C295 1.387 . S
H294 C301 0.950 . S
C295 C293 1.387 . S
C295 C297 1.390 . S
C295 H299 0.950 . S
H296 C292 0.950 1_545 S
C297 C295 1.390 . S
C297 C298 1.387 . S
C297 H300 0.950 . S
C298 C297 1.387 . S
C298 C301 1.387 . S
H299 C295 0.950 . S
H300 C297 0.950 . S
C301 C292 1.390 . S
C301 H294 0.950 . S
C301 C298 1.387 . S
C302 C303 1.387 . S
C302 H306 0.950 . S
C302 C311 1.390 . S
C303 C302 1.387 . S
C303 C305 1.387 . S
H304 C311 0.950 1_455 S
C305 C303 1.387 . S
C305 C307 1.390 . S
C305 H309 0.950 . S
H306 C302 0.950 . S
C307 C305 1.390 . S
C307 C308 1.387 1_655 S
C307 H310 0.950 1_655 S
C308 C307 1.387 1_455 S
C308 C311 1.387 1_455 S
H309 C305 0.950 . S
H310 C307 0.950 1_455 S
C311 C302 1.390 . S
C311 H304 0.950 1_655 S
C311 C308 1.387 1_655 S
C312 C313 1.387 . S
C312 H316 0.950 . S
C312 C321 1.390 . S
C313 C312 1.387 . S
C313 C315 1.387 . S
H314 C321 0.950 . S
C315 C313 1.387 . S
C315 C317 1.390 . S
C315 H319 0.950 . S
H316 C312 0.950 . S
C317 C315 1.390 . S
C317 C318 1.387 . S
C317 H320 0.950 . S
C318 C317 1.387 . S
C318 C321 1.387 . S
H319 C315 0.950 . S
H320 C317 0.950 . S
C321 C312 1.390 . S
C321 H314 0.950 . S
C321 C318 1.387 . S
C322 C323 1.387 . S
C322 H326 0.950 . S
C322 C331 1.390 . S
C323 C322 1.387 . S
C323 C325 1.387 . S
H324 C331 0.950 . S
C325 C323 1.387 . S
C325 C327 1.390 . S
C325 H329 0.950 . S
H326 C322 0.950 . S
C327 C325 1.390 . S
C327 C328 1.387 . S
C327 H330 0.950 . S
C328 C327 1.387 . S
C328 C331 1.387 . S
H329 C325 0.950 . S
H330 C327 0.950 . S
C331 C322 1.390 . S
C331 H324 0.950 . S
C331 C328 1.387 . S
C332 C333 1.387 . S
C332 H336 0.950 . S
C332 C341 1.390 . S
C333 C332 1.387 . S
C333 C335 1.387 . S
H334 C341 0.950 . S
C335 C333 1.387 . S
C335 C337 1.390 . S
C335 H339 0.950 . S
H336 C332 0.950 . S
C337 C335 1.390 . S
C337 C338 1.387 . S
C337 H340 0.950 . S
C338 C337 1.387 . S
C338 C341 1.387 . S
H339 C335 0.950 . S
H340 C337 0.950 . S
C341 C332 1.390 . S
C341 H334 0.950 . S
C341 C338 1.387 . S
C342 C343 1.387 . S
C342 H346 0.950 . S
C342 C351 1.390 . S
C343 C342 1.387 . S
C343 C345 1.387 . S
H344 C351 0.950 . S
C345 C343 1.387 . S
C345 C347 1.390 . S
C345 H349 0.950 . S
H346 C342 0.950 . S
C347 C345 1.390 . S
C347 C348 1.387 . S
C347 H350 0.950 . S
C348 C347 1.387 . S
C348 C351 1.387 . S
H349 C345 0.950 . S
H350 C347 0.950 . S
C351 C342 1.390 . S
C351 H344 0.950 . S
C351 C348 1.387 . S
C352 C353 1.387 . S
C352 H356 0.950 . S
C352 C361 1.390 . S
C353 C352 1.387 . S
C353 C355 1.387 . S
H354 C361 0.950 . S
C355 C353 1.387 . S
C355 C357 1.390 . S
C355 H359 0.950 . S
H356 C352 0.950 . S
C357 C355 1.390 . S
C357 C358 1.387 . S
C357 H360 0.950 . S
C358 C357 1.387 . S
C358 C361 1.387 . S
H359 C355 0.950 . S
H360 C357 0.950 . S
C361 C352 1.390 . S
C361 H354 0.950 . S
C361 C358 1.387 . S
C362 C363 1.387 . S
C362 H366 0.950 . S
C362 C371 1.390 . S
C363 C362 1.387 . S
C363 C365 1.387 . S
H364 C371 0.950 . S
C365 C363 1.387 . S
C365 C367 1.390 . S
C365 H369 0.950 . S
H366 C362 0.950 . S
C367 C365 1.390 . S
C367 C368 1.387 . S
C367 H370 0.950 . S
C368 C367 1.387 . S
C368 C371 1.387 . S
H369 C365 0.950 . S
H370 C367 0.950 . S
C371 C362 1.390 . S
C371 H364 0.950 . S
C371 C368 1.387 . S
C372 C373 1.387 . S
C372 H376 0.950 . S
C372 C381 1.390 . S
C373 C372 1.387 . S
C373 C375 1.387 . S
H374 C381 0.950 . S
C375 C373 1.387 . S
C375 C377 1.390 . S
C375 H379 0.950 . S
H376 C372 0.950 . S
C377 C375 1.390 . S
C377 C378 1.387 . S
C377 H380 0.950 . S
C378 C377 1.387 . S
C378 C381 1.387 . S
H379 C375 0.950 . S
H380 C377 0.950 . S
C381 C372 1.390 . S
C381 H374 0.950 . S
C381 C378 1.387 . S
C382 C383 1.387 . S
C382 H386 0.950 . S
C382 C391 1.390 . S
C383 C382 1.387 . S
C383 C385 1.387 . S
H384 C391 0.950 . S
C385 C383 1.387 . S
C385 C387 1.390 . S
C385 H389 0.950 . S
H386 C382 0.950 . S
C387 C385 1.390 . S
C387 C388 1.387 . S
C387 H390 0.950 . S
C388 C387 1.387 . S
C388 C391 1.387 . S
H389 C385 0.950 . S
H390 C387 0.950 . S
C391 C382 1.390 . S
C391 H384 0.950 . S
C391 C388 1.387 . S
C392 C393 1.387 1_565 S
C392 H396 0.950 . S
C392 C401 1.390 . S
C393 C392 1.387 1_545 S
C393 C395 1.387 1_455 S
H394 C401 0.950 . S
C395 C393 1.387 1_655 S
C395 C397 1.390 . S
C395 H399 0.950 . S
H396 C392 0.950 . S
C397 C395 1.390 . S
C397 C398 1.387 1_545 S
C397 H400 0.950 . S
C398 C397 1.387 1_565 S
C398 C401 1.387 1_655 S
H399 C395 0.950 . S
H400 C397 0.950 . S
C401 C392 1.390 . S
C401 H394 0.950 . S
C401 C398 1.387 1_455 S
C402 C403 1.387 . S
C402 H406 0.950 . S
C402 C411 1.390 1_645 S
C403 C402 1.387 . S
C403 C405 1.387 . S
H404 C411 0.950 . S
C405 C403 1.387 . S
C405 C407 1.390 1_645 S
C405 H409 0.950 . S
H406 C402 0.950 . S
C407 C405 1.390 1_465 S
C407 C408 1.387 . S
C407 H410 0.950 . S
C408 C407 1.387 . S
C408 C411 1.387 . S
H409 C405 0.950 . S
H410 C407 0.950 . S
C411 C402 1.390 1_465 S
C411 H404 0.950 . S
C411 C408 1.387 . S
C412 C413 1.387 . S
C412 H416 0.950 . S
C412 C421 1.390 . S
C413 C412 1.387 . S
C413 C415 1.387 . S
H414 C421 0.950 . S
C415 C413 1.387 . S
C415 C417 1.390 . S
C415 H419 0.950 . S
H416 C412 0.950 . S
C417 C415 1.390 . S
C417 C418 1.387 . S
C417 H420 0.950 . S
C418 C417 1.387 . S
C418 C421 1.387 . S
H419 C415 0.950 . S
H420 C417 0.950 . S
C421 C412 1.390 . S
C421 H414 0.950 . S
C421 C418 1.387 . S
C422 C423 1.387 . S
C422 H426 0.950 . S
C422 C431 1.390 . S
C423 C422 1.387 . S
C423 C425 1.387 . S
H424 C431 0.950 . S
C425 C423 1.387 . S
C425 C427 1.390 . S
C425 H429 0.950 . S
H426 C422 0.950 . S
C427 C425 1.390 . S
C427 C428 1.387 . S
C427 H430 0.950 . S
C428 C427 1.387 . S
C428 C431 1.387 . S
H429 C425 0.950 . S
H430 C427 0.950 . S
C431 C422 1.390 . S
C431 H424 0.950 . S
C431 C428 1.387 . S
C432 C433 1.387 . S
C432 H436 0.950 . S
C432 C441 1.390 1_544 S
C433 C432 1.387 . S
C433 C435 1.387 . S
H434 C441 0.950 . S
C435 C433 1.387 . S
C435 C437 1.390 1_544 S
C435 H439 0.950 . S
H436 C432 0.950 . S
C437 C435 1.390 1_566 S
C437 C438 1.387 . S
C437 H440 0.950 . S
C438 C437 1.387 . S
C438 C441 1.387 . S
H439 C435 0.950 . S
H440 C437 0.950 . S
C441 C432 1.390 1_566 S
C441 H434 0.950 . S
C441 C438 1.387 . S
C442 C443 1.387 . S
C442 H446 0.950 . S
C442 C451 1.390 1_456 S
C443 C442 1.387 . S
C443 C445 1.387 . S
H444 C451 0.950 . S
C445 C443 1.387 . S
C445 C447 1.390 1_456 S
C445 H449 0.950 . S
H446 C442 0.950 . S
C447 C445 1.390 1_654 S
C447 C448 1.387 . S
C447 H450 0.950 . S
C448 C447 1.387 . S
C448 C451 1.387 . S
H449 C445 0.950 . S
H450 C447 0.950 . S
C451 C442 1.390 1_654 S
C451 H444 0.950 . S
C451 C448 1.387 . S
C452 C453 1.387 . S
C452 H456 0.950 . S
C452 C461 1.390 1_546 S
C453 C452 1.387 . S
C453 C455 1.387 . S
H454 C461 0.950 . S
C455 C453 1.387 . S
C455 C457 1.390 1_546 S
C455 H459 0.950 . S
H456 C452 0.950 . S
C457 C455 1.390 1_564 S
C457 C458 1.387 . S
C457 H460 0.950 . S
C458 C457 1.387 . S
C458 C461 1.387 . S
H459 C455 0.950 . S
H460 C457 0.950 . S
C461 C452 1.390 1_564 S
C461 H454 0.950 . S
C461 C458 1.387 . S
C462 C463 1.387 1_556 S
C462 H466 0.950 . S
C462 C471 1.390 . S
C463 C462 1.387 1_554 S
C463 C465 1.387 1_455 S
H464 C471 0.950 . S
C465 C463 1.387 1_655 S
C465 C467 1.390 . S
C465 H469 0.950 . S
H466 C462 0.950 . S
C467 C465 1.390 . S
C467 C468 1.387 1_554 S
C467 H470 0.950 . S
C468 C467 1.387 1_556 S
C468 C471 1.387 1_655 S
H469 C465 0.950 . S
H470 C467 0.950 . S
C471 C462 1.390 . S
C471 H464 0.950 . S
C471 C468 1.387 1_455 S
C472 C473 1.387 . S
C472 H476 0.950 . S
C472 C481 1.390 . S
C473 C472 1.387 . S
C473 C475 1.387 . S
H474 C481 0.950 . S
C475 C473 1.387 . S
C475 C477 1.390 . S
C475 H479 0.950 . S
H476 C472 0.950 . S
C477 C475 1.390 . S
C477 C478 1.387 . S
C477 H480 0.950 . S
C478 C477 1.387 . S
C478 C481 1.387 . S
H479 C475 0.950 . S
H480 C477 0.950 . S
C481 C472 1.390 . S
C481 H474 0.950 . S
C481 C478 1.387 . S
C482 C483 1.387 . S
C482 H486 0.950 . S
C482 C491 1.390 . S
C483 C482 1.387 . S
C483 C485 1.387 . S
H484 C491 0.950 . S
C485 C483 1.387 . S
C485 C487 1.390 . S
C485 H489 0.950 . S
H486 C482 0.950 . S
C487 C485 1.390 . S
C487 C488 1.387 . S
C487 H490 0.950 . S
C488 C487 1.387 . S
C488 C491 1.387 . S
H489 C485 0.950 . S
H490 C487 0.950 . S
C491 C482 1.390 . S
C491 H484 0.950 . S
C491 C488 1.387 . S
C492 C493 1.387 . S
C492 H496 0.950 . S
C492 C501 1.390 . S
C493 C492 1.387 . S
C493 C495 1.387 . S
H494 C501 0.950 . S
C495 C493 1.387 . S
C495 C497 1.390 . S
C495 H499 0.950 . S
H496 C492 0.950 . S
C497 C495 1.390 . S
C497 C498 1.387 . S
C497 H500 0.950 . S
C498 C497 1.387 . S
C498 C501 1.387 . S
H499 C495 0.950 . S
H500 C497 0.950 . S
C501 C492 1.390 . S
C501 H494 0.950 . S
C501 C498 1.387 . S
C502 C503 1.387 . S
C502 H506 0.950 . S
C502 C511 1.390 . S
C503 C502 1.387 . S
C503 C505 1.387 . S
H504 C511 0.950 . S
C505 C503 1.387 . S
C505 C507 1.390 . S
C505 H509 0.950 . S
H506 C502 0.950 . S
C507 C505 1.390 . S
C507 C508 1.387 . S
C507 H510 0.950 . S
C508 C507 1.387 . S
C508 C511 1.387 . S
H509 C505 0.950 . S
H510 C507 0.950 . S
C511 C502 1.390 . S
C511 H504 0.950 . S
C511 C508 1.387 . S
C233 C3 1.731 1_565 S
C238 C218 1.789 . S
C243 C39 2.108 . S
C248 C129 2.150 . S
C253 C160 1.790 . S
C258 C61 1.730 1_545 S
C263 C97 2.107 . S
C268 C187 2.150 . S
C273 C32 1.731 1_545 S
C278 C189 1.789 . S
C283 C216 2.150 . S
C288 C68 2.108 . S
C293 C90 1.733 1_565 S
C298 C131 1.790 . S
C303 C158 2.149 . S
C308 C10 2.109 . S
C313 C119 1.731 . S
C318 C102 1.789 . S
C323 C13 2.148 . S
C328 C155 2.107 . S
C333 C44 1.789 . S
C338 C177 1.731 . S
C343 C213 2.107 . S
C348 C71 2.148 . S
C353 C148 1.731 . S
C358 C73 1.789 . S
C363 C184 2.108 . S
C368 C100 2.150 . S
C373 C206 1.733 . S
C378 C15 1.790 . S
C383 C42 2.150 . S
C388 C126 2.108 . S
C393 C21 0.586 . S
C398 C79 0.577 . S
C403 C108 0.581 . S
C408 C50 0.581 . S
C413 C137 0.581 . S
C418 C195 0.581 . S
C423 C166 0.581 . S
C428 C224 0.581 . S
C433 C5 1.835 . S
C438 C34 1.835 . S
C443 C37 0.828 . S
C448 C66 0.828 . S
C453 C92 1.835 . S
C458 C63 1.835 . S
C463 C8 0.832 . S
C468 C95 0.822 . S
C473 C150 1.836 . S
C478 C121 1.836 . S
C483 C182 0.828 . S
C488 C153 0.828 . S
C493 C179 1.835 . S
C498 C208 1.835 . S
C503 C124 0.828 . S
C508 C211 0.828 . S
