# Generated by pormake.
# Topology umd, (4)-cn, num edge types: 1
# Building blocks:
#     Node 0, Type 0, BuildingBlock: NAWXER_clean_sbu_0, # of connection points: 4
#     Node 1, Type 0, BuildingBlock: NAWXER_clean_sbu_0, # of connection points: 4
#     Node 2, Type 0, BuildingBlock: NAWXER_clean_sbu_0, # of connection points: 4
#     Node 3, Type 0, BuildingBlock: NAWXER_clean_sbu_0, # of connection points: 4
#     Node 4, Type 0, BuildingBlock: NAWXER_clean_sbu_0, # of connection points: 4
#     Node 5, Type 0, BuildingBlock: NAWXER_clean_sbu_0, # of connection points: 4
#     Node 6, Type 0, BuildingBlock: NAWXER_clean_sbu_0, # of connection points: 4
#     Node 7, Type 0, BuildingBlock: NAWXER_clean_sbu_0, # of connection points: 4
#     Node 8, Type 0, BuildingBlock: NAWXER_clean_sbu_0, # of connection points: 4
#     Node 9, Type 0, BuildingBlock: NAWXER_clean_sbu_0, # of connection points: 4
#     Node 10, Type 0, BuildingBlock: NAWXER_clean_sbu_0, # of connection points: 4
#     Node 11, Type 0, BuildingBlock: NAWXER_clean_sbu_0, # of connection points: 4
#     Node 12, Type 0, BuildingBlock: NAWXER_clean_sbu_0, # of connection points: 4
#     Node 13, Type 0, BuildingBlock: NAWXER_clean_sbu_0, # of connection points: 4
#     Node 14, Type 0, BuildingBlock: NAWXER_clean_sbu_0, # of connection points: 4
#     Node 15, Type 0, BuildingBlock: NAWXER_clean_sbu_0, # of connection points: 4
#     Edge 16, Type (0, 0), BuildingBlock: MIFKUJ_clean_linker_0, # of connection points: 2
#     Edge 17, Type (0, 0), BuildingBlock: MIFKUJ_clean_linker_0, # of connection points: 2
#     Edge 18, Type (0, 0), BuildingBlock: MIFKUJ_clean_linker_0, # of connection points: 2
#     Edge 19, Type (0, 0), BuildingBlock: MIFKUJ_clean_linker_0, # of connection points: 2
#     Edge 20, Type (0, 0), BuildingBlock: MIFKUJ_clean_linker_0, # of connection points: 2
#     Edge 21, Type (0, 0), BuildingBlock: MIFKUJ_clean_linker_0, # of connection points: 2
#     Edge 22, Type (0, 0), BuildingBlock: MIFKUJ_clean_linker_0, # of connection points: 2
#     Edge 23, Type (0, 0), BuildingBlock: MIFKUJ_clean_linker_0, # of connection points: 2
#     Edge 24, Type (0, 0), BuildingBlock: MIFKUJ_clean_linker_0, # of connection points: 2
#     Edge 25, Type (0, 0), BuildingBlock: MIFKUJ_clean_linker_0, # of connection points: 2
#     Edge 26, Type (0, 0), BuildingBlock: MIFKUJ_clean_linker_0, # of connection points: 2
#     Edge 27, Type (0, 0), BuildingBlock: MIFKUJ_clean_linker_0, # of connection points: 2
#     Edge 28, Type (0, 0), BuildingBlock: MIFKUJ_clean_linker_0, # of connection points: 2
#     Edge 29, Type (0, 0), BuildingBlock: MIFKUJ_clean_linker_0, # of connection points: 2
#     Edge 30, Type (0, 0), BuildingBlock: MIFKUJ_clean_linker_0, # of connection points: 2
#     Edge 31, Type (0, 0), BuildingBlock: MIFKUJ_clean_linker_0, # of connection points: 2
#     Edge 32, Type (0, 0), BuildingBlock: MIFKUJ_clean_linker_0, # of connection points: 2
#     Edge 33, Type (0, 0), BuildingBlock: MIFKUJ_clean_linker_0, # of connection points: 2
#     Edge 34, Type (0, 0), BuildingBlock: MIFKUJ_clean_linker_0, # of connection points: 2
#     Edge 35, Type (0, 0), BuildingBlock: MIFKUJ_clean_linker_0, # of connection points: 2
#     Edge 36, Type (0, 0), BuildingBlock: MIFKUJ_clean_linker_0, # of connection points: 2
#     Edge 37, Type (0, 0), BuildingBlock: MIFKUJ_clean_linker_0, # of connection points: 2
#     Edge 38, Type (0, 0), BuildingBlock: MIFKUJ_clean_linker_0, # of connection points: 2
#     Edge 39, Type (0, 0), BuildingBlock: MIFKUJ_clean_linker_0, # of connection points: 2
#     Edge 40, Type (0, 0), BuildingBlock: MIFKUJ_clean_linker_0, # of connection points: 2
#     Edge 41, Type (0, 0), BuildingBlock: MIFKUJ_clean_linker_0, # of connection points: 2
#     Edge 42, Type (0, 0), BuildingBlock: MIFKUJ_clean_linker_0, # of connection points: 2
#     Edge 43, Type (0, 0), BuildingBlock: MIFKUJ_clean_linker_0, # of connection points: 2
#     Edge 44, Type (0, 0), BuildingBlock: MIFKUJ_clean_linker_0, # of connection points: 2
#     Edge 45, Type (0, 0), BuildingBlock: MIFKUJ_clean_linker_0, # of connection points: 2
#     Edge 46, Type (0, 0), BuildingBlock: MIFKUJ_clean_linker_0, # of connection points: 2
#     Edge 47, Type (0, 0), BuildingBlock: MIFKUJ_clean_linker_0, # of connection points: 2
# Relax obj value: 0.021
# Max RMSD: 0.190
# Mean RMSD: 0.190
data_MOF--net-umd--node1-NAWXER_clean_sbu_0--edge1-MIFKUJ_clean_linker_0
_symmetry_space_group_name_H-M    P1
_symmetry_Int_Tables_number       1
_symmetry_cell_setting            triclinic
loop_
_symmetry_equiv_pos_as_xyz
'x, y, z'
_cell_length_a     52.618479
_cell_length_b     52.615156
_cell_length_c     75.773444
_cell_angle_alpha  89.922433
_cell_angle_beta   89.979341
_cell_angle_gamma 89.995558
loop_
_atom_site_label
_atom_site_type_symbol
_atom_site_fract_x
_atom_site_fract_y
_atom_site_fract_z
_atom_type_partial_charge
C0 C 0.12635 0.44566 0.13598 0.0
C1 C 0.20451 0.39648 0.13926 0.0
O2 O 0.12916 0.42185 0.13789 0.0
Zn3 Zn 0.16558 0.42143 0.13767 0.0
O4 O 0.14607 0.45992 0.13458 0.0
Zn5 Zn 0.18698 0.45477 0.13445 0.0
O6 O 0.19644 0.46683 0.11132 0.0
O7 O 0.17414 0.43139 0.11066 0.0
O8 O 0.20911 0.42026 0.13712 0.0
O9 O 0.18164 0.38898 0.14034 0.0
O10 O 0.17513 0.44091 0.16188 0.0
O11 O 0.19762 0.47461 0.15447 0.0
C12 C 0.18602 0.44918 0.10249 0.0
C13 C 0.1874 0.46098 0.16636 0.0
C14 C 0.54879 0.18595 0.60161 0.0
C15 C 0.53688 0.18869 0.66525 0.0
O16 O 0.53142 0.1968 0.61045 0.0
Zn17 Zn 0.54359 0.18759 0.63342 0.0
O18 O 0.56664 0.17408 0.60976 0.0
Zn19 Zn 0.57686 0.1666 0.63705 0.0
O20 O 0.57709 0.13033 0.63819 0.0
O21 O 0.53889 0.14637 0.63357 0.0
O22 O 0.55704 0.17637 0.66107 0.0
O23 O 0.52347 0.19866 0.65317 0.0
O24 O 0.57787 0.21018 0.63571 0.0
O25 O 0.60918 0.18296 0.63953 0.0
C26 C 0.55349 0.127 0.63565 0.0
C27 C 0.60164 0.20575 0.63799 0.0
C28 C 0.81381 0.53821 0.16536 0.0
C29 C 0.81541 0.54999 0.10162 0.0
O30 O 0.80337 0.52484 0.15346 0.0
Zn31 Zn 0.81437 0.54461 0.13352 0.0
O32 O 0.8263 0.5582 0.16095 0.0
Zn33 Zn 0.83566 0.5779 0.13674 0.0
O34 O 0.81951 0.61031 0.13949 0.0
O35 O 0.79213 0.57906 0.13592 0.0
O36 O 0.82714 0.56794 0.10968 0.0
O37 O 0.80516 0.53229 0.11053 0.0
O38 O 0.85534 0.53953 0.13375 0.0
O39 O 0.87205 0.57768 0.13701 0.0
C40 C 0.79668 0.60281 0.13818 0.0
C41 C 0.87499 0.55389 0.13515 0.0
C42 C 0.4498 0.81641 0.59915 0.0
C43 C 0.46114 0.81346 0.66291 0.0
O44 O 0.46701 0.80535 0.60804 0.0
Zn45 Zn 0.45488 0.81466 0.63106 0.0
O46 O 0.43215 0.82856 0.60726 0.0
Zn47 Zn 0.42202 0.83655 0.63442 0.0
O48 O 0.42289 0.8729 0.6352 0.0
O49 O 0.4607 0.85561 0.63143 0.0
O50 O 0.4414 0.82638 0.65859 0.0
O51 O 0.47438 0.803 0.65095 0.0
O52 O 0.42006 0.79302 0.63336 0.0
O53 O 0.38926 0.82091 0.63687 0.0
C54 C 0.4467 0.87547 0.63315 0.0
C55 C 0.39637 0.79795 0.63552 0.0
C56 C 0.18989 0.53959 0.34838 0.0
C57 C 0.18728 0.55177 0.41216 0.0
O58 O 0.20008 0.52621 0.36042 0.0
Zn59 Zn 0.189 0.5462 0.38022 0.0
O60 O 0.17748 0.55968 0.35264 0.0
Zn61 Zn 0.16768 0.57945 0.37674 0.0
O62 O 0.18373 0.61184 0.37398 0.0
O63 O 0.21123 0.58071 0.37772 0.0
O64 O 0.17569 0.56965 0.40388 0.0
O65 O 0.1978 0.53408 0.40342 0.0
O66 O 0.14808 0.54106 0.3796 0.0
O67 O 0.13129 0.5792 0.3763 0.0
C68 C 0.20659 0.60443 0.37537 0.0
C69 C 0.12842 0.55538 0.3781 0.0
C70 C 0.45255 0.18428 0.91174 0.0
C71 C 0.46265 0.18748 0.84794 0.0
O72 O 0.46993 0.19484 0.90272 0.0
Zn73 Zn 0.45708 0.18606 0.87978 0.0
O74 O 0.43444 0.17265 0.90378 0.0
Zn75 Zn 0.4238 0.16472 0.87678 0.0
O76 O 0.42407 0.12837 0.87619 0.0
O77 O 0.46231 0.14507 0.87893 0.0
O78 O 0.44287 0.17472 0.85241 0.0
O79 O 0.47626 0.19772 0.85979 0.0
O80 O 0.42252 0.20824 0.87787 0.0
O81 O 0.39127 0.1808 0.87455 0.0
C82 C 0.44793 0.12543 0.87758 0.0
C83 C 0.39873 0.20365 0.87586 0.0
C84 C 0.81753 0.45124 0.41175 0.0
C85 C 0.81555 0.46282 0.34802 0.0
O86 O 0.80676 0.46859 0.40281 0.0
Zn87 Zn 0.81626 0.45642 0.37985 0.0
O88 O 0.82963 0.4335 0.40371 0.0
Zn89 Zn 0.83802 0.42348 0.37662 0.0
O90 O 0.87431 0.42407 0.37616 0.0
O91 O 0.85726 0.46203 0.37966 0.0
O92 O 0.82835 0.44302 0.3524 0.0
O93 O 0.80494 0.47603 0.35993 0.0
O94 O 0.7945 0.42166 0.37743 0.0
O95 O 0.82239 0.39084 0.374 0.0
C96 C 0.87704 0.44786 0.37815 0.0
C97 C 0.79944 0.39798 0.37524 0.0
C98 C 0.538 0.81182 0.84521 0.0
C99 C 0.55088 0.81425 0.90887 0.0
O100 O 0.52488 0.80147 0.8573 0.0
Zn101 Zn 0.54507 0.8126 0.87701 0.0
O102 O 0.5581 0.8243 0.84934 0.0
Zn103 Zn 0.5783 0.8338 0.87328 0.0
O104 O 0.61059 0.81753 0.87038 0.0
O105 O 0.57943 0.7902 0.8745 0.0
O106 O 0.56869 0.82587 0.90053 0.0
O107 O 0.53314 0.8037 0.9002 0.0
O108 O 0.54015 0.85367 0.87664 0.0
O109 O 0.57828 0.87015 0.87271 0.0
C110 C 0.60314 0.79471 0.87198 0.0
C111 C 0.55457 0.87324 0.87492 0.0
C112 C 0.81687 0.54951 0.91172 0.0
C113 C 0.81476 0.53829 0.84801 0.0
O114 O 0.82829 0.56772 0.90368 0.0
Zn115 Zn 0.83658 0.57794 0.87659 0.0
O116 O 0.80695 0.5317 0.90278 0.0
Zn117 Zn 0.81596 0.5443 0.87982 0.0
O118 O 0.85688 0.53979 0.87943 0.0
O119 O 0.87302 0.57812 0.876 0.0
O120 O 0.80558 0.52415 0.86001 0.0
O121 O 0.82651 0.55876 0.85231 0.0
O122 O 0.82028 0.61016 0.87412 0.0
O123 O 0.79311 0.57859 0.87735 0.0
C124 C 0.87631 0.55438 0.87788 0.0
C125 C 0.79749 0.60243 0.87525 0.0
C126 C 0.46379 0.81742 0.34527 0.0
C127 C 0.45119 0.81732 0.40902 0.0
O128 O 0.44309 0.82873 0.34957 0.0
Zn129 Zn 0.42334 0.83776 0.37377 0.0
O130 O 0.47772 0.80794 0.35726 0.0
Zn131 Zn 0.45699 0.81715 0.37721 0.0
O132 O 0.42287 0.79423 0.37442 0.0
O133 O 0.39127 0.8213 0.37096 0.0
O134 O 0.46904 0.80727 0.40016 0.0
O135 O 0.43323 0.82904 0.40091 0.0
O136 O 0.42287 0.87419 0.37371 0.0
O137 O 0.46104 0.85811 0.37813 0.0
C138 C 0.39905 0.79854 0.37219 0.0
C139 C 0.44639 0.87751 0.3766 0.0
C140 C 0.18673 0.45001 0.91221 0.0
C141 C 0.19018 0.46291 0.84852 0.0
O142 O 0.17509 0.4323 0.90383 0.0
Zn143 Zn 0.16739 0.42282 0.87657 0.0
O144 O 0.19741 0.46773 0.90357 0.0
Zn145 Zn 0.18866 0.45601 0.8803 0.0
O146 O 0.14782 0.4613 0.87954 0.0
O147 O 0.13096 0.42336 0.87567 0.0
O148 O 0.19969 0.47647 0.86069 0.0
O149 O 0.17799 0.44258 0.85258 0.0
O150 O 0.18329 0.39036 0.87389 0.0
O151 O 0.21087 0.42143 0.87761 0.0
C152 C 0.12813 0.44714 0.87768 0.0
C153 C 0.20618 0.39772 0.87524 0.0
C154 C 0.55099 0.18806 0.41169 0.0
C155 C 0.5402 0.19058 0.3479 0.0
O156 O 0.56856 0.17569 0.40369 0.0
Zn157 Zn 0.57891 0.16747 0.37669 0.0
O158 O 0.53407 0.19942 0.40271 0.0
Zn159 Zn 0.54632 0.18979 0.37974 0.0
O160 O 0.54006 0.14884 0.37941 0.0
O161 O 0.57791 0.13124 0.37647 0.0
O162 O 0.52712 0.20148 0.35976 0.0
O163 O 0.55972 0.17739 0.35235 0.0
O164 O 0.61183 0.18258 0.37429 0.0
O165 O 0.58141 0.21097 0.37747 0.0
C166 C 0.55403 0.12887 0.37818 0.0
C167 C 0.60505 0.20565 0.37545 0.0
C168 C 0.81059 0.46402 0.6655 0.0
C169 C 0.81534 0.45236 0.60187 0.0
O170 O 0.82263 0.44362 0.66145 0.0
Zn171 Zn 0.83372 0.42429 0.63746 0.0
O172 O 0.80163 0.47799 0.65333 0.0
Zn173 Zn 0.81286 0.45771 0.63374 0.0
O174 O 0.79025 0.42323 0.63587 0.0
O175 O 0.81756 0.39192 0.63962 0.0
O176 O 0.80461 0.46999 0.61053 0.0
O177 O 0.8267 0.4344 0.61021 0.0
O178 O 0.87012 0.42444 0.63882 0.0
O179 O 0.85378 0.46258 0.63481 0.0
C180 C 0.79476 0.39942 0.63805 0.0
C181 C 0.87327 0.44818 0.63683 0.0
C182 C 0.60396 0.79635 0.13575 0.0
C183 C 0.55661 0.87557 0.13297 0.0
O184 O 0.5801 0.79216 0.13357 0.0
Zn185 Zn 0.54601 0.81526 0.13098 0.0
O186 O 0.61185 0.81907 0.13688 0.0
Zn187 Zn 0.57979 0.83564 0.13433 0.0
O188 O 0.56026 0.82564 0.15853 0.0
O189 O 0.52557 0.80496 0.15077 0.0
O190 O 0.5803 0.87206 0.13496 0.0
O191 O 0.54186 0.85627 0.13136 0.0
O192 O 0.53365 0.80641 0.10792 0.0
O193 O 0.5697 0.82771 0.1072 0.0
C194 C 0.53969 0.81402 0.1628 0.0
C195 C 0.55153 0.81641 0.09906 0.0
C196 C 0.18437 0.55094 0.60231 0.0
C197 C 0.18764 0.53928 0.66607 0.0
O198 O 0.17287 0.56894 0.61049 0.0
Zn199 Zn 0.16492 0.57885 0.63766 0.0
O200 O 0.19461 0.53315 0.61113 0.0
Zn201 Zn 0.18585 0.54544 0.63426 0.0
O202 O 0.145 0.54044 0.63502 0.0
O203 O 0.12846 0.57857 0.63853 0.0
O204 O 0.19669 0.52522 0.65401 0.0
O205 O 0.17569 0.55969 0.66186 0.0
O206 O 0.18086 0.61126 0.63997 0.0
O207 O 0.20835 0.58002 0.63656 0.0
C208 C 0.12542 0.5548 0.63672 0.0
C209 C 0.20372 0.60381 0.63867 0.0
C210 C 0.45007 0.1277 0.13554 0.0
C211 C 0.39987 0.20517 0.13835 0.0
O212 O 0.46414 0.14754 0.13399 0.0
Zn213 Zn 0.45836 0.18846 0.13358 0.0
O214 O 0.42626 0.13032 0.13754 0.0
Zn215 Zn 0.42548 0.16665 0.13705 0.0
O216 O 0.43522 0.1749 0.10992 0.0
O217 O 0.47036 0.19769 0.11048 0.0
O218 O 0.39279 0.1822 0.13969 0.0
O219 O 0.42354 0.21016 0.13607 0.0
O220 O 0.47808 0.2 0.15335 0.0
O221 O 0.4451 0.17671 0.16115 0.0
C222 C 0.45289 0.18688 0.10171 0.0
C223 C 0.46491 0.18957 0.16538 0.0
H224 H 0.08069 0.42078 0.13519 0.0
H225 H 0.03817 0.4395 0.13444 0.0
H226 H 0.07099 0.51461 0.13479 0.0
H227 H 0.11361 0.49608 0.13559 0.0
H228 H 0.03161 0.50985 0.15836 0.0
H229 H 0.04738 0.49135 0.09734 0.0
H230 H 0.05909 0.46446 0.07199 0.0
H231 H 0.99624 0.41488 0.08301 0.0
H232 H 0.98436 0.44128 0.10861 0.0
H233 H 0.9205 0.57896 0.13649 0.0
H234 H 0.9631 0.56055 0.13618 0.0
H235 H 0.9308 0.48536 0.1328 0.0
H236 H 0.88807 0.50364 0.1328 0.0
H237 H 0.97011 0.49023 0.11064 0.0
H238 H 0.95446 0.50802 0.17172 0.0
H239 H 0.94265 0.53441 0.19731 0.0
H240 H 0.00512 0.58461 0.18656 0.0
H241 H 0.01709 0.55871 0.16074 0.0
C242 C 0.07889 0.44129 0.13508 0.0
C243 C 0.10056 0.45694 0.13542 0.0
C244 C 0.05457 0.45195 0.13459 0.0
C245 C 0.05144 0.47844 0.13441 0.0
C246 C 0.073 0.49412 0.1349 0.0
C247 C 0.09734 0.48348 0.13529 0.0
C248 C 0.02565 0.48979 0.13396 0.0
C249 C 0.01827 0.50586 0.1478 0.0
C250 C 0.00807 0.48405 0.12041 0.0
C251 C 0.01514 0.46816 0.105 0.0
C252 C 0.03618 0.47459 0.09446 0.0
C253 C 0.04283 0.45946 0.08002 0.0
C254 C 0.02846 0.43793 0.07592 0.0
C255 C 0.00737 0.43153 0.08622 0.0
C256 C 1.00066 0.44659 0.10069 0.0
C257 C 0.92242 0.5585 0.13567 0.0
C258 C 0.90085 0.54277 0.13475 0.0
C259 C 0.94681 0.548 0.13556 0.0
C260 C 0.95015 0.52155 0.1347 0.0
C261 C 0.92868 0.50582 0.13351 0.0
C262 C 0.90426 0.5163 0.13356 0.0
C263 C 0.97603 0.51031 0.13506 0.0
C264 C 0.98344 0.49425 0.1212 0.0
C265 C 0.99362 0.51598 0.14864 0.0
C266 C 0.98652 0.53156 0.16419 0.0
C267 C 0.96556 0.5248 0.17473 0.0
C268 C 0.95886 0.53965 0.18929 0.0
C269 C 0.97309 0.56121 0.19353 0.0
C270 C 0.99409 0.56793 0.18324 0.0
C271 C 1.00086 0.55315 0.16865 0.0
H272 H 0.96787 0.57269 0.20481 0.0
H273 H 0.03363 0.42625 0.06474 0.0
H274 H 0.49536 0.8885 0.6241 0.0
H275 H 0.51446 0.93095 0.62431 0.0
H276 H 0.44337 0.9629 0.6419 0.0
H277 H 0.42409 0.92062 0.64168 0.0
H278 H 0.50117 0.97521 0.60616 0.0
H279 H 0.45826 0.00984 0.67207 0.0
H280 H 0.44318 0.99197 0.70032 0.0
H281 H 0.49319 0.92811 0.6941 0.0
H282 H 0.50883 0.94579 0.66596 0.0
H283 H 0.50999 0.11073 0.61947 0.0
H284 H 0.49316 0.06722 0.61854 0.0
H285 H 0.55601 0.04127 0.6503 0.0
H286 H 0.57332 0.08448 0.65089 0.0
H287 H 0.50479 0.02511 0.66166 0.0
H288 H 0.56099 0.02706 0.61178 0.0
H289 H 0.57842 0.0434 0.58378 0.0
H290 H 0.50631 0.03178 0.55854 0.0
H291 H 0.48828 0.01589 0.58652 0.0
C292 C 0.48378 0.90456 0.628 0.0
C293 C 0.45823 0.90116 0.63293 0.0
C294 C 0.49469 0.9288 0.62803 0.0
C295 C 0.48037 0.95001 0.63322 0.0
C296 C 0.45481 0.94673 0.63799 0.0
C297 C 0.44382 0.92255 0.63781 0.0
C298 C 0.49223 0.97555 0.6339 0.0
C299 C 0.50191 0.98614 0.61828 0.0
C300 C 0.49348 0.98965 0.64977 0.0
C301 C 0.4845 0.97903 0.66682 0.0
C302 C 0.4661 0.99204 0.67677 0.0
C303 C 0.45745 0.98194 0.69276 0.0
C304 C 0.46716 0.95888 0.69897 0.0
C305 C 0.48561 0.94592 0.68924 0.0
C306 C 0.49435 0.95596 0.67326 0.0
C307 C 0.52019 0.09573 0.62625 0.0
C308 C 0.54298 0.10096 0.63523 0.0
C309 C 0.51061 0.07094 0.62567 0.0
C310 C 0.5234 0.05113 0.63434 0.0
C311 C 0.5459 0.05636 0.64354 0.0
C312 C 0.55579 0.081 0.6438 0.0
C313 C 0.51327 0.0249 0.63387 0.0
C314 C 0.5039 0.01421 0.64953 0.0
C315 C 0.51253 0.01063 0.61808 0.0
C316 C 0.52319 0.02059 0.60131 0.0
C317 C 0.54874 0.02833 0.60033 0.0
C318 C 0.55875 0.03745 0.58445 0.0
C319 C 0.54347 0.0387 0.56941 0.0
C320 C 0.51812 0.03086 0.57022 0.0
C321 C 0.50798 0.02181 0.58609 0.0
H322 H 0.55131 0.04565 0.5571 0.0
H323 H 0.46042 0.95108 0.71134 0.0
H324 H 0.08312 0.58014 0.3821 0.0
H325 H 0.04051 0.56155 0.38266 0.0
H326 H 0.07264 0.48693 0.37519 0.0
H327 H 0.11538 0.50532 0.37475 0.0
H328 H 0.03119 0.4973 0.35296 0.0
H329 H 0.05257 0.50151 0.41434 0.0
H330 H 0.06713 0.52215 0.44172 0.0
H331 H 0.00445 0.57428 0.43916 0.0
H332 H 0.98972 0.55418 0.41159 0.0
H333 H 0.92245 0.42365 0.37325 0.0
H334 H 0.96495 0.44226 0.37353 0.0
H335 H 0.93275 0.51605 0.3842 0.0
H336 H 0.89006 0.49755 0.38407 0.0
H337 H 0.9743 0.50634 0.40484 0.0
H338 H 0.95282 0.50214 0.3435 0.0
H339 H 0.93839 0.48172 0.316 0.0
H340 H 0.00135 0.4299 0.3183 0.0
H341 H 0.01596 0.44977 0.34597 0.0
C342 C 0.08114 0.55977 0.38058 0.0
C343 C 0.10263 0.54419 0.37842 0.0
C344 C 0.05679 0.54919 0.38097 0.0
C345 C 0.05348 0.52287 0.37907 0.0
C346 C 0.07484 0.50729 0.3767 0.0
C347 C 0.09923 0.51782 0.37652 0.0
C348 C 0.02766 0.51166 0.37944 0.0
C349 C 0.01885 0.49895 0.36438 0.0
C350 C 0.01143 0.51441 0.3942 0.0
C351 C 0.0202 0.52651 0.41079 0.0
C352 C 0.04202 0.51753 0.41952 0.0
C353 C 0.05028 0.5291 0.4351 0.0
C354 C 0.03676 0.54956 0.44215 0.0
C355 C 0.01492 0.55845 0.43366 0.0
C356 C 0.0066 0.54697 0.41807 0.0
C357 C 0.92436 0.44384 0.37568 0.0
C358 C 0.90283 0.45913 0.37856 0.0
C359 C 0.94868 0.45446 0.37577 0.0
C360 C 0.95199 0.48058 0.37869 0.0
C361 C 0.9306 0.49585 0.38188 0.0
C362 C 0.90622 0.48525 0.38174 0.0
C363 C 0.97779 0.49192 0.37835 0.0
C364 C 0.98661 0.50468 0.39341 0.0
C365 C 0.99404 0.48925 0.36357 0.0
C366 C 0.98533 0.47727 0.34691 0.0
C367 C 0.96347 0.48624 0.33822 0.0
C368 C 0.95528 0.47479 0.32259 0.0
C369 C 0.9689 0.45448 0.31543 0.0
C370 C 0.99079 0.44561 0.32387 0.0
C371 C 0.99904 0.45697 0.33953 0.0
H372 H 0.96254 0.44565 0.30332 0.0
H373 H 0.04318 0.55849 0.45421 0.0
H374 H 0.50471 0.88672 0.87935 0.0
H375 H 0.48681 0.92958 0.88006 0.0
H376 H 0.56158 0.9613 0.87231 0.0
H377 H 0.57971 0.91854 0.8718 0.0
H378 H 0.53572 0.98663 0.89761 0.0
H379 H 0.51958 0.95812 0.83838 0.0
H380 H 0.50334 0.92872 0.81571 0.0
H381 H 0.42757 0.9377 0.83582 0.0
H382 H 0.44342 0.96689 0.85878 0.0
H383 H 0.49816 0.11226 0.87549 0.0
H384 H 0.5163 0.0695 0.87518 0.0
H385 H 0.44112 0.03738 0.87975 0.0
H386 H 0.42281 0.08004 0.87957 0.0
H387 H 0.46733 0.0121 0.85614 0.0
H388 H 0.48298 0.04036 0.91536 0.0
H389 H 0.49889 0.06939 0.93837 0.0
H390 H 0.57497 0.06058 0.91881 0.0
H391 H 0.55947 0.03175 0.89552 0.0
C392 C 0.51737 0.9028 0.87779 0.0
C393 C 0.54364 0.89918 0.87545 0.0
C394 C 0.50709 0.92729 0.87815 0.0
C395 C 0.52283 0.94864 0.87604 0.0
C396 C 0.54909 0.9451 0.87394 0.0
C397 C 0.55939 0.92063 0.87359 0.0
C398 C 0.51195 0.97467 0.87604 0.0
C399 C 0.52099 0.99233 0.8884 0.0
C400 C 0.49232 0.98189 0.86429 0.0
C401 C 0.48273 0.9645 0.85041 0.0
C402 C 0.49948 0.95368 0.83805 0.0
C403 C 0.49035 0.93708 0.82514 0.0
C404 C 0.46445 0.9313 0.82435 0.0
C405 C 0.44763 0.94217 0.83646 0.0
C406 C 0.45667 0.95876 0.84941 0.0
C407 C 0.48548 0.0961 0.87647 0.0
C408 C 0.45904 0.09957 0.8776 0.0
C409 C 0.4959 0.07165 0.87637 0.0
C410 C 0.48011 0.05019 0.87769 0.0
C411 C 0.45369 0.05362 0.87873 0.0
C412 C 0.44326 0.07805 0.87866 0.0
C413 C 0.49105 0.02414 0.87775 0.0
C414 C 0.48203 0.00645 0.86538 0.0
C415 C 0.51064 0.01687 0.88954 0.0
C416 C 0.52002 0.03409 0.90359 0.0
C417 C 0.50308 0.04476 0.91589 0.0
C418 C 0.51203 0.06115 0.92899 0.0
C419 C 0.53791 0.06687 0.93003 0.0
C420 C 0.55492 0.05615 0.91798 0.0
C421 C 0.54607 0.03977 0.90484 0.0
H422 H 0.5448 0.07957 0.94018 0.0
H423 H 0.45742 0.91844 0.81435 0.0
H424 H 0.92154 0.58005 0.87703 0.0
H425 H 0.96437 0.56213 0.8772 0.0
H426 H 0.93291 0.48647 0.87924 0.0
H427 H 0.88998 0.50425 0.87941 0.0
H428 H 0.97178 0.49101 0.90171 0.0
H429 H 0.95689 0.5114 0.84069 0.0
H430 H 0.9454 0.53914 0.81568 0.0
H431 H 0.00744 0.58898 0.82815 0.0
H432 H 0.01911 0.5617 0.85339 0.0
H433 H 0.08238 0.42242 0.87725 0.0
H434 H 0.03992 0.44128 0.87746 0.0
H435 H 0.07296 0.51627 0.87849 0.0
H436 H 0.11555 0.4976 0.87823 0.0
H437 H 0.03373 0.51258 0.85461 0.0
H438 H 0.04895 0.49258 0.91519 0.0
H439 H 0.06113 0.46514 0.94011 0.0
H440 H 0.99881 0.41508 0.92869 0.0
H441 H 0.98652 0.44207 0.90343 0.0
C442 C 0.9237 0.55959 0.87751 0.0
C443 C 0.90232 0.54358 0.87813 0.0
C444 C 0.94822 0.54937 0.87754 0.0
C445 C 0.95186 0.52294 0.87799 0.0
C446 C 0.93056 0.50692 0.87885 0.0
C447 C 0.90603 0.51712 0.8789 0.0
C448 C 0.97786 0.51197 0.87762 0.0
C449 C 0.98519 0.49545 0.89127 0.0
C450 C 0.99561 0.51828 0.86426 0.0
C451 C 0.98872 0.53463 0.84903 0.0
C452 C 0.96797 0.52837 0.83817 0.0
C453 C 0.96144 0.544 0.82394 0.0
C454 C 0.97564 0.56584 0.82035 0.0
C455 C 0.99644 0.57207 0.83096 0.0
C456 C 0.00304 0.55652 0.84522 0.0
C457 C 0.08065 0.44293 0.87752 0.0
C458 C 0.10237 0.4585 0.87779 0.0
C459 C 0.05636 0.45367 0.87768 0.0
C460 C 0.0533 0.48017 0.87812 0.0
C461 C 0.07492 0.49578 0.87815 0.0
C462 C 0.09923 0.48506 0.87808 0.0
C463 C 0.02753 0.49155 0.87862 0.0
C464 C 0.02027 0.50815 0.86502 0.0
C465 C 0.00986 0.48536 0.89203 0.0
C466 C 0.01697 0.46921 0.90731 0.0
C467 C 0.03795 0.47561 0.9179 0.0
C468 C 0.04486 0.46014 0.93211 0.0
C469 C 0.03079 0.43832 0.93599 0.0
C470 C 0.00972 0.43197 0.92567 0.0
C471 C 0.00276 0.44735 0.9114 0.0
H472 H 0.03617 0.42635 0.947 0.0
H473 H 0.97056 0.57792 0.80933 0.0
H474 H 0.50399 0.11612 0.37396 0.0
H475 H 0.48529 0.07359 0.37468 0.0
H476 H 0.55918 0.04138 0.38531 0.0
H477 H 0.57807 0.08369 0.38393 0.0
H478 H 0.53683 0.01386 0.36212 0.0
H479 H 0.51165 0.04821 0.41789 0.0
H480 H 0.49248 0.07939 0.43819 0.0
H481 H 0.41986 0.06893 0.41341 0.0
H482 H 0.43867 0.03792 0.39279 0.0
H483 H 0.49443 0.89122 0.38647 0.0
H484 H 0.51203 0.93409 0.3884 0.0
H485 H 0.44 0.96547 0.37212 0.0
H486 H 0.42204 0.92266 0.37052 0.0
H487 H 0.46129 0.99312 0.3986 0.0
H488 H 0.48852 0.95704 0.34315 0.0
H489 H 0.50862 0.92356 0.3253 0.0
H490 H 0.57976 0.93644 0.35157 0.0
H491 H 0.55982 0.9695 0.37002 0.0
C492 C 0.51622 0.09997 0.37649 0.0
C493 C 0.5425 0.10326 0.3789 0.0
C494 C 0.5055 0.07566 0.37699 0.0
C495 C 0.52075 0.05425 0.38031 0.0
C496 C 0.547 0.05756 0.38272 0.0
C497 C 0.55778 0.08178 0.38195 0.0
C498 C 0.50957 0.02831 0.38084 0.0
C499 C 0.52052 0.0093 0.3703 0.0
C500 C 0.48802 0.02234 0.39127 0.0
C501 C 0.47663 0.04093 0.40368 0.0
C502 C 0.49163 0.0527 0.41668 0.0
C503 C 0.48082 0.07032 0.42826 0.0
C504 C 0.45498 0.07618 0.42706 0.0
C505 C 0.43988 0.06439 0.41431 0.0
C506 C 0.4506 0.04678 0.40268 0.0
C507 C 0.48229 0.90723 0.38334 0.0
C508 C 0.45689 0.90351 0.37818 0.0
C509 C 0.49239 0.93173 0.38445 0.0
C510 C 0.47742 0.95295 0.38016 0.0
C511 C 0.45189 0.94935 0.37546 0.0
C512 C 0.4417 0.92486 0.37447 0.0
C513 C 0.48863 0.97883 0.37995 0.0
C514 C 0.47762 0.99778 0.39048 0.0
C515 C 0.51036 0.98468 0.3697 0.0
C516 C 0.52261 0.96559 0.35808 0.0
C517 C 0.50842 0.95267 0.34518 0.0
C518 C 0.51979 0.93373 0.33496 0.0
C519 C 0.54547 0.92785 0.33728 0.0
C520 C 0.55986 0.94099 0.34979 0.0
C521 C 0.54852 0.9598 0.36016 0.0
H522 H 0.55424 0.91312 0.3294 0.0
H523 H 0.44665 0.08983 0.43604 0.0
H524 H 0.91861 0.423 0.63971 0.0
H525 H 0.9613 0.44121 0.63978 0.0
H526 H 0.92949 0.51639 0.63442 0.0
H527 H 0.88669 0.4983 0.63404 0.0
H528 H 0.96896 0.51046 0.61274 0.0
H529 H 0.95287 0.49544 0.67413 0.0
H530 H 0.94078 0.47037 0.70034 0.0
H531 H 0.00259 0.41894 0.6908 0.0
H532 H 0.01494 0.44358 0.66442 0.0
H533 H 0.07993 0.57998 0.63599 0.0
H534 H 0.03727 0.56157 0.63589 0.0
H535 H 0.06952 0.48625 0.63728 0.0
H536 H 0.11231 0.50448 0.63739 0.0
H537 H 0.03003 0.49226 0.66102 0.0
H538 H 0.04617 0.50816 0.59963 0.0
H539 H 0.05825 0.53399 0.57378 0.0
H540 H 0.99591 0.58465 0.58374 0.0
H541 H 0.98367 0.55931 0.60982 0.0
C542 C 0.92066 0.44342 0.63856 0.0
C543 C 0.8992 0.4592 0.63691 0.0
C544 C 0.9451 0.45381 0.63868 0.0
C545 C 0.9486 0.4802 0.63733 0.0
C546 C 0.92724 0.49598 0.63552 0.0
C547 C 0.90278 0.4856 0.63534 0.0
C548 C 0.97456 0.49131 0.63758 0.0
C549 C 0.98218 0.50677 0.62342 0.0
C550 C 0.99202 0.48605 0.65133 0.0
C551 C 0.98467 0.47121 0.6672 0.0
C552 C 0.96377 0.47867 0.67754 0.0
C553 C 0.95688 0.46456 0.69244 0.0
C554 C 0.97083 0.44302 0.69719 0.0
C555 C 0.99177 0.4356 0.68709 0.0
C556 C 0.99875 0.44965 0.67217 0.0
C557 C 0.07798 0.55949 0.63626 0.0
C558 C 0.09955 0.5437 0.63664 0.0
C559 C 0.05358 0.54901 0.63615 0.0
C560 C 0.05025 0.52254 0.63644 0.0
C561 C 0.07169 0.50672 0.63703 0.0
C562 C 0.09612 0.51718 0.63703 0.0
C563 C 0.02435 0.51139 0.63619 0.0
C564 C 0.01677 0.49594 0.65035 0.0
C565 C 0.00689 0.51675 0.62249 0.0
C566 C 0.01416 0.53198 0.60679 0.0
C567 C 0.03517 0.52493 0.5964 0.0
C568 C 0.04202 0.53946 0.58169 0.0
C569 C 0.0279 0.56098 0.57715 0.0
C570 C 0.00685 0.56799 0.58729 0.0
C571 C 0.99994 0.55354 0.60203 0.0
H572 H 0.03323 0.5722 0.56575 0.0
H573 H 0.96546 0.43213 0.70873 0.0
H574 H 0.50054 0.1151 0.13421 0.0
H575 H 0.51913 0.07253 0.13342 0.0
H576 H 0.44407 0.03956 0.13439 0.0
H577 H 0.42536 0.08199 0.13558 0.0
H578 H 0.47418 0.01525 0.15653 0.0
H579 H 0.4801 0.04255 0.09612 0.0
H580 H 0.49219 0.0711 0.07168 0.0
H581 H 0.57094 0.06265 0.08532 0.0
H582 H 0.55929 0.03432 0.11 0.0
H583 H 0.50663 0.88972 0.13131 0.0
H584 H 0.48927 0.93281 0.13139 0.0
H585 H 0.56513 0.9636 0.13408 0.0
H586 H 0.58271 0.92056 0.13389 0.0
H587 H 0.53544 0.98911 0.11019 0.0
H588 H 0.52936 0.96166 0.17047 0.0
H589 H 0.51723 0.93277 0.19469 0.0
H590 H 0.43851 0.94138 0.18102 0.0
H591 H 0.45021 0.97005 0.15653 0.0
C592 C 0.48798 0.09879 0.13423 0.0
C593 C 0.46146 0.10196 0.13493 0.0
C594 C 0.49864 0.07446 0.13369 0.0
C595 C 0.48299 0.05283 0.13362 0.0
C596 C 0.45652 0.05596 0.13442 0.0
C597 C 0.44586 0.08025 0.13506 0.0
C598 C 0.49413 0.02689 0.13303 0.0
C599 C 0.4873 0.00945 0.14625 0.0
C600 C 0.51176 0.01948 0.11987 0.0
C601 C 0.51879 0.03651 0.10502 0.0
C602 C 0.49998 0.04695 0.09399 0.0
C603 C 0.50676 0.06307 0.08008 0.0
C604 C 0.53231 0.06874 0.07698 0.0
C605 C 0.55115 0.05827 0.08776 0.0
C606 C 0.54447 0.04216 0.1017 0.0
C607 C 0.51965 0.90563 0.13188 0.0
C608 C 0.54606 0.90168 0.13268 0.0
C609 C 0.50968 0.93025 0.13198 0.0
C610 C 0.52591 0.9514 0.13292 0.0
C611 C 0.55228 0.94755 0.13337 0.0
C612 C 0.56227 0.92292 0.13334 0.0
C613 C 0.51532 0.97751 0.1336 0.0
C614 C 0.5223 0.99496 0.12044 0.0
C615 C 0.49779 0.98494 0.14678 0.0
C616 C 0.49069 0.96781 0.16156 0.0
C617 C 0.50948 0.95724 0.17254 0.0
C618 C 0.50268 0.94092 0.18633 0.0
C619 C 0.47712 0.93518 0.18936 0.0
C620 C 0.4583 0.94581 0.17864 0.0
C621 C 0.465 0.96211 0.16481 0.0
H622 H 0.47189 0.92255 0.20005 0.0
H623 H 0.53755 0.08119 0.06619 0.0
H624 H 0.16883 0.56304 0.31965 0.0
H625 H 0.16992 0.54903 0.28894 0.0
H626 H 0.21541 0.48427 0.30384 0.0
H627 H 0.21466 0.49828 0.33461 0.0
H628 H 0.23271 0.50547 0.2736 0.0
H629 H 0.15277 0.47722 0.29668 0.0
H630 H 0.11146 0.48188 0.31171 0.0
H631 H 0.08703 0.53477 0.27198 0.0
H632 H 0.12837 0.53071 0.25685 0.0
H633 H 0.16645 0.43667 0.19476 0.0
H634 H 0.16851 0.44909 0.22577 0.0
H635 H 0.2137 0.51447 0.21176 0.0
H636 H 0.21198 0.50203 0.18068 0.0
H637 H 0.15139 0.49047 0.24215 0.0
H638 H 0.25511 0.52699 0.24557 0.0
H639 H 0.29654 0.51878 0.23141 0.0
H640 H 0.27342 0.44244 0.21951 0.0
H641 H 0.23202 0.45008 0.2338 0.0
C642 C 0.17919 0.54588 0.31642 0.0
C643 C 0.19155 0.53171 0.32963 0.0
C644 C 0.17972 0.53785 0.29885 0.0
C645 C 0.1925 0.51544 0.29413 0.0
C646 C 0.20541 0.50161 0.30719 0.0
C647 C 0.20489 0.50961 0.32479 0.0
C648 C 0.19189 0.50615 0.27563 0.0
C649 C 0.21494 0.50224 0.26671 0.0
C650 C 0.1687 0.50147 0.26673 0.0
C651 C 0.14376 0.50383 0.27573 0.0
C652 C 0.13866 0.48999 0.29122 0.0
C653 C 0.11523 0.4925 0.29975 0.0
C654 C 0.09665 0.50866 0.29283 0.0
C655 C 0.10145 0.52228 0.27734 0.0
C656 C 0.12487 0.51987 0.26878 0.0
C657 C 0.17694 0.45364 0.19825 0.0
C658 C 0.1891 0.46832 0.18521 0.0
C659 C 0.17802 0.46076 0.21599 0.0
C660 C 0.19139 0.48261 0.22112 0.0
C661 C 0.20355 0.49734 0.20815 0.0
C662 C 0.20247 0.49024 0.19037 0.0
C663 C 0.19222 0.49017 0.24 0.0
C664 C 0.16918 0.49378 0.249 0.0
C665 C 0.21542 0.4941 0.24906 0.0
C666 C 0.24037 0.48921 0.2406 0.0
C667 C 0.25891 0.50843 0.23998 0.0
C668 C 0.28239 0.50388 0.23193 0.0
C669 C 0.28758 0.48014 0.22451 0.0
C670 C 0.26934 0.46086 0.22519 0.0
C671 C 0.24585 0.4653 0.23325 0.0
H672 H 0.30575 0.47666 0.21828 0.0
H673 H 0.07852 0.51057 0.29944 0.0
H674 H 0.50183 0.2211 0.67961 0.0
H675 H 0.48936 0.22462 0.71062 0.0
H676 H 0.54109 0.16393 0.72402 0.0
H677 H 0.55431 0.16101 0.69322 0.0
H678 H 0.46688 0.19487 0.7323 0.0
H679 H 0.56431 0.17021 0.76469 0.0
H680 H 0.60998 0.17618 0.7586 0.0
H681 H 0.59304 0.24095 0.72615 0.0
H682 H 0.54731 0.2356 0.73223 0.0
H683 H 0.4472 0.1577 0.82052 0.0
H684 H 0.45958 0.16103 0.78955 0.0
H685 H 0.50562 0.22664 0.80168 0.0
H686 H 0.49417 0.22264 0.83284 0.0
H687 H 0.53051 0.19902 0.78051 0.0
H688 H 0.44607 0.23084 0.78004 0.0
H689 H 0.40004 0.23122 0.7862 0.0
H690 H 0.39035 0.16404 0.7548 0.0
H691 H 0.43638 0.16304 0.74865 0.0
C692 C 0.51064 0.2086 0.68919 0.0
C693 C 0.52919 0.1909 0.68398 0.0
C694 C 0.50344 0.21059 0.70691 0.0
C695 C 0.51451 0.1948 0.71975 0.0
C696 C 0.5327 0.17678 0.71448 0.0
C697 C 0.54017 0.17505 0.69683 0.0
C698 C 0.50677 0.1968 0.73859 0.0
C699 C 0.4808 0.19586 0.74284 0.0
C700 C 0.52484 0.19882 0.75238 0.0
C701 C 0.55235 0.20234 0.7488 0.0
C702 C 0.57034 0.18579 0.75632 0.0
C703 C 0.59623 0.18906 0.75285 0.0
C704 C 0.6044 0.20888 0.74195 0.0
C705 C 0.58668 0.22555 0.73454 0.0
C706 C 0.56077 0.22239 0.73797 0.0
C707 C 0.45989 0.17289 0.81657 0.0
C708 C 0.46966 0.18995 0.82911 0.0
C709 C 0.46686 0.17488 0.79883 0.0
C710 C 0.48321 0.19437 0.79315 0.0
C711 C 0.49297 0.21144 0.80569 0.0
C712 C 0.48638 0.20917 0.8235 0.0
C713 C 0.49064 0.19651 0.77425 0.0
C714 C 0.51656 0.19819 0.76999 0.0
C715 C 0.47247 0.19615 0.76045 0.0
C716 C 0.44472 0.19676 0.764 0.0
C717 C 0.43415 0.21605 0.77454 0.0
C718 C 0.40805 0.21639 0.77802 0.0
C719 C 0.39229 0.19764 0.77092 0.0
C720 C 0.40258 0.17854 0.7603 0.0
C721 C 0.42867 0.1781 0.75679 0.0
H722 H 0.37209 0.19793 0.77364 0.0
H723 H 0.62445 0.21136 0.73928 0.0
H724 H 0.78126 0.50378 0.18028 0.0
H725 H 0.77838 0.49148 0.21135 0.0
H726 H 0.84019 0.54231 0.22377 0.0
H727 H 0.84249 0.55537 0.19289 0.0
H728 H 0.80863 0.46857 0.23251 0.0
H729 H 0.83541 0.56528 0.26474 0.0
H730 H 0.83031 0.6111 0.25877 0.0
H731 H 0.76454 0.59568 0.22701 0.0
H732 H 0.76904 0.54982 0.23299 0.0
H733 H 0.84568 0.44771 0.32065 0.0
H734 H 0.84288 0.46066 0.28977 0.0
H735 H 0.77757 0.50713 0.3019 0.0
H736 H 0.78099 0.49507 0.33299 0.0
H737 H 0.80591 0.53201 0.28084 0.0
H738 H 0.7729 0.44779 0.28019 0.0
H739 H 0.77211 0.40171 0.28616 0.0
H740 H 0.83927 0.39173 0.25471 0.0
H741 H 0.84066 0.43782 0.24874 0.0
C742 C 0.79414 0.51243 0.18966 0.0
C743 C 0.81199 0.53067 0.18415 0.0
C744 C 0.79252 0.50533 0.20742 0.0
C745 C 0.80883 0.51619 0.22 0.0
C746 C 0.82696 0.5341 0.21444 0.0
C747 C 0.82834 0.54147 0.19674 0.0
C748 C 0.80725 0.50845 0.23887 0.0
C749 C 0.80797 0.48246 0.24306 0.0
C750 C 0.80575 0.52649 0.25269 0.0
C751 C 0.80272 0.55408 0.24919 0.0
C752 C 0.8198 0.57168 0.25655 0.0
C753 C 0.81702 0.59765 0.25315 0.0
C754 C 0.79716 0.60629 0.24247 0.0
C755 C 0.77997 0.58896 0.23522 0.0
C756 C 0.78264 0.56297 0.2386 0.0
C757 C 0.83066 0.46063 0.31673 0.0
C758 C 0.81349 0.47029 0.32924 0.0
C759 C 0.829 0.46793 0.29903 0.0
C760 C 0.80973 0.48455 0.29338 0.0
C761 C 0.7926 0.49428 0.3059 0.0
C762 C 0.79453 0.48732 0.32366 0.0
C763 C 0.80776 0.49214 0.27449 0.0
C764 C 0.80644 0.51811 0.27029 0.0
C765 C 0.80782 0.47405 0.26066 0.0
C766 C 0.807 0.44629 0.26414 0.0
C767 C 0.7876 0.43579 0.27464 0.0
C768 C 0.78703 0.40967 0.27801 0.0
C769 C 0.80566 0.39381 0.27085 0.0
C770 C 0.82487 0.40404 0.26026 0.0
C771 C 0.82554 0.43016 0.25687 0.0
H772 H 0.80519 0.37359 0.27348 0.0
H773 H 0.79506 0.6264 0.23984 0.0
H774 H 0.50341 0.77905 0.83073 0.0
H775 H 0.49062 0.77595 0.79977 0.0
H776 H 0.54085 0.83803 0.78669 0.0
H777 H 0.5544 0.84054 0.81743 0.0
H778 H 0.46726 0.8056 0.77848 0.0
H779 H 0.56358 0.83319 0.74573 0.0
H780 H 0.60947 0.82841 0.75152 0.0
H781 H 0.5947 0.76266 0.78354 0.0
H782 H 0.54878 0.76683 0.77776 0.0
H783 H 0.44568 0.84299 0.69048 0.0
H784 H 0.45864 0.83989 0.72134 0.0
H785 H 0.50571 0.77518 0.70881 0.0
H786 H 0.49361 0.7789 0.67775 0.0
H787 H 0.53041 0.80353 0.72988 0.0
H788 H 0.44675 0.76959 0.73081 0.0
H789 H 0.40067 0.76815 0.72496 0.0
H790 H 0.3898 0.83497 0.75655 0.0
H791 H 0.43588 0.83702 0.76239 0.0
C792 C 0.51182 0.79195 0.82122 0.0
C793 C 0.53007 0.80991 0.82651 0.0
C794 C 0.50444 0.7902 0.80353 0.0
C795 C 0.51501 0.8065 0.79079 0.0
C796 C 0.53286 0.82479 0.79614 0.0
C797 C 0.54053 0.82629 0.81376 0.0
C798 C 0.50712 0.80469 0.77196 0.0
C799 C 0.48109 0.80508 0.76787 0.0
C800 C 0.52507 0.80331 0.75805 0.0
C801 C 0.55271 0.80048 0.76143 0.0
C802 C 0.57013 0.81765 0.75394 0.0
C803 C 0.59615 0.81506 0.75724 0.0
C804 C 0.60499 0.79529 0.76794 0.0
C805 C 0.58783 0.77801 0.77531 0.0
C806 C 0.5618 0.7805 0.77205 0.0
C807 C 0.45872 0.82804 0.69431 0.0
C808 C 0.46855 0.81113 0.68169 0.0
C809 C 0.46603 0.82619 0.712 0.0
C810 C 0.48284 0.80702 0.71753 0.0
C811 C 0.49271 0.79013 0.70491 0.0
C812 C 0.48573 0.79223 0.68716 0.0
C813 C 0.49056 0.80498 0.73639 0.0
C814 C 0.51657 0.80391 0.74049 0.0
C815 C 0.47257 0.8048 0.7503 0.0
C816 C 0.44481 0.80357 0.74692 0.0
C817 C 0.43455 0.78407 0.73642 0.0
C818 C 0.40843 0.78314 0.73312 0.0
C819 C 0.39233 0.80149 0.74035 0.0
C820 C 0.40231 0.82078 0.75094 0.0
C821 C 0.42842 0.82182 0.75427 0.0
H822 H 0.37211 0.80074 0.73778 0.0
H823 H 0.62513 0.79333 0.77048 0.0
H824 H 0.8199 0.56879 0.81901 0.0
H825 H 0.81701 0.55633 0.78791 0.0
H826 H 0.80236 0.47887 0.80348 0.0
H827 H 0.80469 0.49121 0.8346 0.0
H828 H 0.84291 0.48758 0.77669 0.0
H829 H 0.75496 0.50872 0.78995 0.0
H830 H 0.72149 0.53752 0.80088 0.0
H831 H 0.74224 0.59302 0.76186 0.0
H832 H 0.7761 0.5647 0.75088 0.0
H833 H 0.81392 0.43366 0.6946 0.0
H834 H 0.81219 0.44652 0.72554 0.0
H835 H 0.80127 0.52457 0.70961 0.0
H836 H 0.80175 0.51156 0.67863 0.0
H837 H 0.77386 0.5167 0.7369 0.0
H838 H 0.8603 0.50051 0.72331 0.0
H839 H 0.89715 0.47667 0.71205 0.0
H840 H 0.88463 0.41842 0.75084 0.0
H841 H 0.84732 0.44172 0.76214 0.0
C842 C 0.81597 0.54912 0.81581 0.0
C843 C 0.81249 0.53098 0.82924 0.0
C844 C 0.81428 0.54207 0.79806 0.0
C845 C 0.80944 0.51671 0.79347 0.0
C846 C 0.80609 0.49853 0.80681 0.0
C847 C 0.80733 0.50564 0.82456 0.0
C848 C 0.80825 0.50906 0.77471 0.0
C849 C 0.82764 0.49357 0.76801 0.0
C850 C 0.7889 0.51788 0.76332 0.0
C851 C 0.76822 0.53468 0.7697 0.0
C852 C 0.75251 0.52714 0.78379 0.0
C853 C 0.73345 0.54337 0.78998 0.0
C854 C 0.72979 0.56711 0.7821 0.0
C855 C 0.74512 0.57464 0.76797 0.0
C856 C 0.76423 0.55849 0.76174 0.0
C857 C 0.81098 0.45354 0.69771 0.0
C858 C 0.80815 0.47163 0.6842 0.0
C859 C 0.81013 0.46091 0.7154 0.0
C860 C 0.80719 0.48664 0.71997 0.0
C861 C 0.80363 0.50463 0.70648 0.0
C862 C 0.80396 0.49718 0.68876 0.0
C863 C 0.80843 0.49479 0.73876 0.0
C864 C 0.78914 0.51051 0.74551 0.0
C865 C 0.82834 0.48681 0.7501 0.0
C866 C 0.85085 0.47274 0.74345 0.0
C867 C 0.86528 0.48252 0.72936 0.0
C868 C 0.88628 0.46911 0.72298 0.0
C869 C 0.89324 0.44601 0.73071 0.0
C870 C 0.87921 0.4363 0.74485 0.0
C871 C 0.85812 0.4496 0.75125 0.0
H872 H 0.90953 0.43567 0.72575 0.0
H873 H 0.71505 0.57966 0.78692 0.0
H874 H 0.51162 0.81051 0.33206 0.0
H875 H 0.5245 0.80921 0.30097 0.0
H876 H 0.44648 0.81909 0.28506 0.0
H877 H 0.43349 0.82109 0.31612 0.0
H878 H 0.47569 0.7775 0.26758 0.0
H879 H 0.4786 0.8674 0.28028 0.0
H880 H 0.49145 0.90679 0.29542 0.0
H881 H 0.56996 0.88947 0.28572 0.0
H882 H 0.55757 0.84984 0.27062 0.0
H883 H 0.49258 0.80371 0.17628 0.0
H884 H 0.47996 0.80251 0.2073 0.0
H885 H 0.55749 0.81733 0.2228 0.0
H886 H 0.56995 0.81966 0.19178 0.0
H887 H 0.52848 0.84564 0.24102 0.0
H888 H 0.52706 0.75697 0.22746 0.0
H889 H 0.51536 0.71834 0.21095 0.0
H890 H 0.43653 0.73155 0.22238 0.0
H891 H 0.44772 0.77045 0.23877 0.0
C892 C 0.4972 0.81236 0.32194 0.0
C893 C 0.47154 0.81591 0.32652 0.0
C894 C 0.5046 0.8117 0.30421 0.0
C895 C 0.48643 0.81411 0.29077 0.0
C896 C 0.46075 0.81721 0.29527 0.0
C897 C 0.4534 0.81841 0.313 0.0
C898 C 0.49426 0.81335 0.272 0.0
C899 C 0.48701 0.79248 0.26166 0.0
C900 C 0.50964 0.83254 0.26451 0.0
C901 C 0.51717 0.85552 0.27451 0.0
C902 C 0.49862 0.87178 0.28163 0.0
C903 C 0.50582 0.89422 0.29012 0.0
C904 C 0.53151 0.90063 0.29152 0.0
C905 C 0.55007 0.88448 0.28461 0.0
C906 C 0.54297 0.86205 0.27607 0.0
C907 C 0.50697 0.80653 0.18631 0.0
C908 C 0.53227 0.8118 0.18158 0.0
C909 C 0.49976 0.80568 0.20407 0.0
C910 C 0.51781 0.80947 0.21748 0.0
C911 C 0.54317 0.81437 0.21274 0.0
C912 C 0.5503 0.81565 0.19499 0.0
C913 C 0.51011 0.80963 0.23641 0.0
C914 C 0.51734 0.83044 0.24685 0.0
C915 C 0.49502 0.79017 0.24403 0.0
C916 C 0.48822 0.76676 0.2342 0.0
C917 C 0.50721 0.75174 0.22634 0.0
C918 C 0.50067 0.72978 0.21703 0.0
C919 C 0.47521 0.72253 0.21558 0.0
C920 C 0.45624 0.7372 0.22349 0.0
C921 C 0.46267 0.7592 0.23281 0.0
H922 H 0.47019 0.70552 0.20837 0.0
H923 H 0.53705 0.9182 0.29783 0.0
H924 H 0.18277 0.43381 0.81912 0.0
H925 H 0.18477 0.44736 0.78821 0.0
H926 H 0.20373 0.52343 0.80467 0.0
H927 H 0.20219 0.50997 0.83563 0.0
H928 H 0.16247 0.5191 0.77919 0.0
H929 H 0.24889 0.49089 0.78851 0.0
H930 H 0.28161 0.45994 0.79753 0.0
H931 H 0.25428 0.40703 0.75885 0.0
H932 H 0.22115 0.43754 0.74976 0.0
H933 H 0.18741 0.57029 0.69489 0.0
H934 H 0.19037 0.5579 0.72592 0.0
H935 H 0.19488 0.479 0.7106 0.0
H936 H 0.19347 0.49152 0.67953 0.0
H937 H 0.22485 0.48507 0.73617 0.0
H938 H 0.13821 0.50917 0.72713 0.0
H939 H 0.1027 0.53686 0.71809 0.0
H940 H 0.12605 0.59306 0.75579 0.0
H941 H 0.16191 0.56583 0.7649 0.0
C942 C 0.1875 0.4534 0.81616 0.0
C943 C 0.19235 0.47082 0.82982 0.0
C944 C 0.18869 0.46108 0.79851 0.0
C945 C 0.19445 0.48637 0.7942 0.0
C946 C 0.19927 0.50382 0.80776 0.0
C947 C 0.19849 0.49607 0.82542 0.0
C948 C 0.19484 0.49472 0.77551 0.0
C949 C 0.17631 0.512 0.76979 0.0
C950 C 0.21235 0.48468 0.76321 0.0
C951 C 0.23239 0.46642 0.76857 0.0
C952 C 0.24972 0.47258 0.78203 0.0
C953 C 0.26837 0.45513 0.78713 0.0
C954 C 0.26998 0.43151 0.7788 0.0
C955 C 0.25299 0.42532 0.7653 0.0
C956 C 0.2343 0.44269 0.76016 0.0
C957 C 0.18914 0.55031 0.69817 0.0
C958 C 0.19009 0.53185 0.68481 0.0
C959 C 0.19066 0.54321 0.71592 0.0
C960 C 0.19225 0.51742 0.72072 0.0
C961 C 0.19362 0.49901 0.70732 0.0
C962 C 0.19276 0.50617 0.68955 0.0
C963 C 0.19237 0.50959 0.73964 0.0
C964 C 0.21097 0.49233 0.74547 0.0
C965 C 0.17449 0.51918 0.75198 0.0
C966 C 0.1529 0.53557 0.74657 0.0
C967 C 0.13587 0.52751 0.73341 0.0
C968 C 0.11567 0.54311 0.72828 0.0
C969 C 0.11216 0.56673 0.73632 0.0
C970 C 0.12881 0.57477 0.74955 0.0
C971 C 0.14907 0.55926 0.75471 0.0
H972 H 0.09651 0.57879 0.73234 0.0
H973 H 0.28443 0.41802 0.78277 0.0
H974 H 0.55537 0.16049 0.32053 0.0
H975 H 0.54245 0.16331 0.28965 0.0
H976 H 0.49605 0.22867 0.30174 0.0
H977 H 0.5081 0.22525 0.33282 0.0
H978 H 0.4711 0.20035 0.28073 0.0
H979 H 0.55503 0.2335 0.27986 0.0
H980 H 0.60108 0.23467 0.28585 0.0
H981 H 0.61165 0.16735 0.25473 0.0
H982 H 0.5656 0.16557 0.24875 0.0
H983 H 0.49928 0.22263 0.17977 0.0
H984 H 0.51159 0.22643 0.21077 0.0
H985 H 0.46088 0.16488 0.2242 0.0
H986 H 0.44783 0.16165 0.19338 0.0
H987 H 0.53457 0.19693 0.23236 0.0
H988 H 0.43766 0.17094 0.26503 0.0
H989 H 0.39189 0.17605 0.25892 0.0
H990 H 0.4077 0.24089 0.22625 0.0
H991 H 0.45351 0.2364 0.23236 0.0
C992 C 0.54248 0.17552 0.3166 0.0
C993 C 0.53283 0.19271 0.3291 0.0
C994 C 0.53519 0.1772 0.29891 0.0
C995 C 0.51858 0.19647 0.29324 0.0
C996 C 0.50888 0.21363 0.30574 0.0
C997 C 0.51584 0.21171 0.3235 0.0
C998 C 0.51098 0.19839 0.27436 0.0
C999 C 0.485 0.19967 0.27017 0.0
C1000 C 0.52908 0.19823 0.26051 0.0
C1001 C 0.55682 0.19929 0.26398 0.0
C1002 C 0.56715 0.21885 0.27439 0.0
C1003 C 0.59326 0.21964 0.27777 0.0
C1004 C 0.60927 0.20107 0.27071 0.0
C1005 C 0.59922 0.18171 0.26021 0.0
C1006 C 0.57312 0.18082 0.2568 0.0
C1007 C 0.49066 0.21 0.18935 0.0
C1008 C 0.47246 0.19194 0.18413 0.0
C1009 C 0.49776 0.21214 0.20707 0.0
C1010 C 0.48694 0.19618 0.21991 0.0
C1011 C 0.46907 0.17785 0.21465 0.0
C1012 C 0.4617 0.17594 0.19699 0.0
C1013 C 0.49468 0.19831 0.23875 0.0
C1014 C 0.52068 0.19775 0.24293 0.0
C1015 C 0.47664 0.2001 0.25257 0.0
C1016 C 0.44905 0.20317 0.24904 0.0
C1017 C 0.43136 0.18636 0.25661 0.0
C1018 C 0.40541 0.18914 0.25313 0.0
C1019 C 0.3969 0.20873 0.24216 0.0
C1020 C 0.41432 0.22566 0.2347 0.0
C1021 C 0.44028 0.22299 0.23815 0.0
H1022 H 0.37681 0.21083 0.23947 0.0
H1023 H 0.62948 0.20171 0.27334 0.0
H1024 H 0.16708 0.41416 0.93456 0.0
H1025 H 0.16773 0.41411 0.96679 0.0
H1026 H 0.20822 0.48539 0.96651 0.0
H1027 H 0.20803 0.48539 0.93422 0.0
H1028 H 0.22833 0.45301 0.9902 0.0
H1029 H 0.14398 0.48223 0.9754 0.0
H1030 H 0.10168 0.48015 0.96144 0.0
H1031 H 0.08597 0.41034 0.98874 0.0
H1032 H 0.1283 0.41179 1.00266 0.0
H1033 H 0.2085 0.48427 0.08068 0.0
H1034 H 0.20952 0.48422 0.0484 0.0
H1035 H 0.16758 0.41378 0.04779 0.0
H1036 H 0.16614 0.41387 0.07999 0.0
H1037 H 0.14835 0.44611 0.02455 0.0
H1038 H 0.23116 0.41523 0.03887 0.0
H1039 H 0.27304 0.41554 0.05342 0.0
H1040 H 0.29176 0.48558 0.02733 0.0
H1041 H 0.24979 0.48589 0.01282 0.0
C1042 C 0.17614 0.42984 0.94133 0.0
C1043 C 0.18741 0.44984 0.93178 0.0
C1044 C 0.1764 0.42983 0.95978 0.0
C1045 C 0.18771 0.44993 0.96909 0.0
C1046 C 0.19932 0.46972 0.95961 0.0
C1047 C 0.19914 0.46972 0.94114 0.0
C1048 C 0.18753 0.45025 0.98871 0.0
C1049 C 0.21081 0.45187 0.99771 0.0
C1050 C 0.16474 0.44802 0.99854 0.0
C1051 C 0.13941 0.44701 0.98996 0.0
C1052 C 0.1316 0.46631 0.9783 0.0
C1053 C 0.10759 0.46526 0.97042 0.0
C1054 C 0.09117 0.44511 0.9742 0.0
C1055 C 0.09872 0.42593 0.98583 0.0
C1056 C 0.1227 0.42686 0.99372 0.0
C1057 C 0.19955 0.46873 0.07368 0.0
C1058 C 0.18724 0.44907 0.08294 0.0
C1059 C 0.20025 0.46867 0.05522 0.0
C1060 C 0.18881 0.44888 0.04566 0.0
C1061 C 0.17652 0.42926 0.05487 0.0
C1062 C 0.17578 0.42932 0.0733 0.0
C1063 C 0.18912 0.44884 0.02604 0.0
C1064 C 0.16587 0.44729 0.01704 0.0
C1065 C 0.21193 0.45085 0.01623 0.0
C1066 C 0.23721 0.45072 0.0249 0.0
C1067 C 0.24412 0.43082 0.03635 0.0
C1068 C 0.26789 0.43086 0.04457 0.0
C1069 C 0.28503 0.4506 0.04134 0.0
C1070 C 0.27845 0.47032 0.02985 0.0
C1071 C 0.25467 0.47039 0.02161 0.0
H1072 H 0.30344 0.45059 0.04772 0.0
H1073 H 0.07254 0.44437 0.9682 0.0
H1074 H 0.51953 0.21598 0.43303 0.0
H1075 H 0.51842 0.2164 0.46533 0.0
H1076 H 0.57967 0.16197 0.46684 0.0
H1077 H 0.58091 0.16137 0.43461 0.0
H1078 H 0.54054 0.14943 0.4894 0.0
H1079 H 0.59138 0.22307 0.47553 0.0
H1080 H 0.60046 0.26405 0.46101 0.0
H1081 H 0.53582 0.2976 0.48657 0.0
H1082 H 0.52614 0.25669 0.50105 0.0
H1083 H 0.5788 0.15937 0.57866 0.0
H1084 H 0.57778 0.16047 0.54642 0.0
H1085 H 0.51709 0.21552 0.54804 0.0
H1086 H 0.51794 0.21454 0.58033 0.0
H1087 H 0.55407 0.22836 0.52393 0.0
H1088 H 0.50285 0.15668 0.53795 0.0
H1089 H 0.49146 0.11607 0.55214 0.0
H1090 H 0.55401 0.07928 0.52625 0.0
H1091 H 0.56601 0.11981 0.51206 0.0
C1092 C 0.5328 0.20413 0.44023 0.0
C1093 C 0.55036 0.18869 0.43123 0.0
C1094 C 0.53219 0.20446 0.45869 0.0
C1095 C 0.54908 0.18934 0.46847 0.0
C1096 C 0.56648 0.17378 0.45953 0.0
C1097 C 0.56721 0.17355 0.44111 0.0
C1098 C 0.54855 0.18953 0.48804 0.0
C1099 C 0.54384 0.16662 0.49696 0.0
C1100 C 0.55203 0.21212 0.49787 0.0
C1101 C 0.55788 0.23675 0.48923 0.0
C1102 C 0.57897 0.23913 0.47793 0.0
C1103 C 0.58425 0.26235 0.46973 0.0
C1104 C 0.56868 0.28339 0.47282 0.0
C1105 C 0.54784 0.28127 0.48416 0.0
C1106 C 0.54246 0.25808 0.49238 0.0
C1107 C 0.56524 0.17174 0.57218 0.0
C1108 C 0.5484 0.18681 0.58208 0.0
C1109 C 0.56463 0.17228 0.55375 0.0
C1110 C 0.54723 0.18793 0.54485 0.0
C1111 C 0.53065 0.20329 0.55466 0.0
C1112 C 0.53111 0.20262 0.57311 0.0
C1113 C 0.54637 0.1882 0.52528 0.0
C1114 C 0.55077 0.21118 0.51637 0.0
C1115 C 0.54238 0.16572 0.51544 0.0
C1116 C 0.53547 0.14134 0.52408 0.0
C1117 C 0.51434 0.14 0.53542 0.0
C1118 C 0.50774 0.11699 0.54343 0.0
C1119 C 0.52202 0.09514 0.54011 0.0
C1120 C 0.54298 0.09625 0.5288 0.0
C1121 C 0.54968 0.11923 0.52076 0.0
H1122 H 0.51675 0.07734 0.54623 0.0
H1123 H 0.5728 0.30136 0.46646 0.0
H1124 H 0.79731 0.51231 0.08012 0.0
H1125 H 0.79623 0.51191 0.04784 0.0
H1126 H 0.82953 0.58679 0.04665 0.0
H1127 H 0.83064 0.58741 0.0789 0.0
H1128 H 0.78973 0.58222 0.02346 0.0
H1129 H 0.86571 0.5364 0.03831 0.0
H1130 H 0.89099 0.50328 0.05323 0.0
H1131 H 0.84696 0.44525 0.02775 0.0
H1132 H 0.82116 0.47805 0.01287 0.0
H1133 H 0.83177 0.58685 0.93454 0.0
H1134 H 0.82966 0.58633 0.96676 0.0
H1135 H 0.79672 0.51131 0.96539 0.0
H1136 H 0.79881 0.5116 0.93312 0.0
H1137 H 0.83488 0.51507 0.98986 0.0
H1138 H 0.75976 0.56105 0.97419 0.0
H1139 H 0.73474 0.59427 0.95919 0.0
H1140 H 0.77722 0.6521 0.98611 0.0
H1141 H 0.80277 0.61921 1.00109 0.0
C1142 C 0.80435 0.52873 0.073 0.0
C1143 C 0.81416 0.54985 0.08209 0.0
C1144 C 0.80379 0.52843 0.05456 0.0
C1145 C 0.813 0.54924 0.04486 0.0
C1146 C 0.82235 0.57053 0.05389 0.0
C1147 C 0.82305 0.57079 0.07232 0.0
C1148 C 0.81313 0.54874 0.02529 0.0
C1149 C 0.79984 0.56772 0.0161 0.0
C1150 C 0.82582 0.52945 0.01571 0.0
C1151 C 0.84131 0.50969 0.02463 0.0
C1152 C 0.86126 0.51658 0.03601 0.0
C1153 C 0.87572 0.49786 0.04444 0.0
C1154 C 0.87054 0.47218 0.04148 0.0
C1155 C 0.85092 0.46515 0.03005 0.0
C1156 C 0.83639 0.4838 0.02161 0.0
C1157 C 0.82404 0.57023 0.94107 0.0
C1158 C 0.81541 0.54928 0.93125 0.0
C1159 C 0.82275 0.57002 0.95949 0.0
C1160 C 0.81283 0.54887 0.96845 0.0
C1161 C 0.8044 0.52783 0.95872 0.0
C1162 C 0.80555 0.52808 0.94028 0.0
C1163 C 0.81158 0.54863 0.98801 0.0
C1164 C 0.82468 0.52952 0.99721 0.0
C1165 C 0.79872 0.5678 0.99759 0.0
C1166 C 0.78336 0.58765 0.98863 0.0
C1167 C 0.76392 0.58085 0.9768 0.0
C1168 C 0.74961 0.59962 0.96832 0.0
C1169 C 0.75443 0.62528 0.97165 0.0
C1170 C 0.77353 0.63222 0.98352 0.0
C1171 C 0.78792 0.61351 0.99202 0.0
H1172 H 0.74333 0.63979 0.96508 0.0
H1173 H 0.88176 0.45771 0.04801 0.0
H1174 H 0.48347 0.79133 0.57776 0.0
H1175 H 0.48394 0.79009 0.54551 0.0
H1176 H 0.41761 0.83824 0.54401 0.0
H1177 H 0.41675 0.83926 0.57624 0.0
H1178 H 0.41321 0.79988 0.52104 0.0
H1179 H 0.4771 0.86188 0.53551 0.0
H1180 H 0.51575 0.87776 0.55023 0.0
H1181 H 0.5602 0.82005 0.52472 0.0
H1182 H 0.52174 0.8036 0.51002 0.0
H1183 H 0.41758 0.83941 0.43185 0.0
H1184 H 0.41783 0.83767 0.46403 0.0
H1185 H 0.48464 0.79018 0.46274 0.0
H1186 H 0.48483 0.79221 0.43048 0.0
H1187 H 0.48941 0.82644 0.48712 0.0
H1188 H 0.42575 0.76525 0.47186 0.0
H1189 H 0.38714 0.7495 0.45704 0.0
H1190 H 0.34226 0.80552 0.48396 0.0
H1191 H 0.38067 0.82185 0.49877 0.0
C1192 C 0.46897 0.80166 0.57058 0.0
C1193 C 0.45011 0.81547 0.5796 0.0
C1194 C 0.46933 0.80101 0.55214 0.0
C1195 C 0.45098 0.81431 0.54233 0.0
C1196 C 0.43197 0.82785 0.5513 0.0
C1197 C 0.43155 0.82846 0.56974 0.0
C1198 C 0.45151 0.81411 0.52273 0.0
C1199 C 0.42977 0.80597 0.51361 0.0
C1200 C 0.47334 0.82143 0.51304 0.0
C1201 C 0.4965 0.83135 0.52181 0.0
C1202 C 0.49509 0.85245 0.53315 0.0
C1203 C 0.51696 0.86158 0.54147 0.0
C1204 C 0.5404 0.84988 0.53845 0.0
C1205 C 0.54203 0.82907 0.52707 0.0
C1206 C 0.5202 0.81985 0.51873 0.0
C1207 C 0.43231 0.82851 0.43838 0.0
C1208 C 0.45114 0.81587 0.42856 0.0
C1209 C 0.43235 0.82746 0.4568 0.0
C1210 C 0.45105 0.81351 0.46582 0.0
C1211 C 0.46999 0.80101 0.45607 0.0
C1212 C 0.47002 0.80214 0.43762 0.0
C1213 C 0.45105 0.81237 0.48541 0.0
C1214 C 0.47288 0.82025 0.49453 0.0
C1215 C 0.4293 0.8048 0.49511 0.0
C1216 C 0.40614 0.79491 0.48631 0.0
C1217 C 0.40768 0.77433 0.47453 0.0
C1218 C 0.38582 0.76528 0.46614 0.0
C1219 C 0.36227 0.77654 0.46952 0.0
C1220 C 0.36052 0.79683 0.48134 0.0
C1221 C 0.38232 0.80598 0.48975 0.0
H1222 H 0.34537 0.76951 0.46302 0.0
H1223 H 0.55732 0.85698 0.5449 0.0
H1224 H 0.20619 0.51487 0.43409 0.0
H1225 H 0.20643 0.51466 0.46638 0.0
H1226 H 0.17015 0.58816 0.4668 0.0
H1227 H 0.16994 0.58861 0.43455 0.0
H1228 H 0.20906 0.58574 0.49038 0.0
H1229 H 0.13594 0.53594 0.47541 0.0
H1230 H 0.11249 0.50155 0.4605 0.0
H1231 H 0.15917 0.44588 0.48638 0.0
H1232 H 0.18314 0.47999 0.50127 0.0
H1233 H 0.16765 0.58785 0.57965 0.0
H1234 H 0.16945 0.58778 0.54742 0.0
H1235 H 0.2056 0.51421 0.54839 0.0
H1236 H 0.20376 0.51404 0.58066 0.0
H1237 H 0.16756 0.51628 0.52409 0.0
H1238 H 0.24001 0.56671 0.53971 0.0
H1239 H 0.26346 0.60152 0.55415 0.0
H1240 H 0.21754 0.65649 0.52696 0.0
H1241 H 0.19355 0.622 0.51254 0.0
C1242 C 0.19831 0.53102 0.44104 0.0
C1243 C 0.18797 0.55172 0.43172 0.0
C1244 C 0.19837 0.53082 0.4595 0.0
C1245 C 0.1881 0.5513 0.469 0.0
C1246 C 0.17816 0.57216 0.45974 0.0
C1247 C 0.17798 0.57233 0.44129 0.0
C1248 C 0.18764 0.55097 0.48859 0.0
C1249 C 0.19971 0.57072 0.49777 0.0
C1250 C 0.17591 0.53109 0.49821 0.0
C1251 C 0.16151 0.51053 0.48931 0.0
C1252 C 0.14135 0.51637 0.47781 0.0
C1253 C 0.12794 0.49693 0.46938 0.0
C1254 C 0.13439 0.47155 0.47246 0.0
C1255 C 0.15422 0.46556 0.484 0.0
C1256 C 0.16771 0.48494 0.49244 0.0
C1257 C 0.17603 0.57165 0.57303 0.0
C1258 C 0.18561 0.55096 0.58275 0.0
C1259 C 0.17714 0.57169 0.5546 0.0
C1260 C 0.18788 0.5511 0.5455 0.0
C1261 C 0.19727 0.53033 0.55514 0.0
C1262 C 0.19626 0.5303 0.57359 0.0
C1263 C 0.18896 0.55108 0.52591 0.0
C1264 C 0.17697 0.53127 0.51673 0.0
C1265 C 0.20068 0.57097 0.51629 0.0
C1266 C 0.21482 0.59175 0.52516 0.0
C1267 C 0.23473 0.58622 0.53694 0.0
C1268 C 0.24816 0.60589 0.54509 0.0
C1269 C 0.24198 0.63119 0.54147 0.0
C1270 C 0.2223 0.63688 0.52975 0.0
C1271 C 0.20879 0.61727 0.52157 0.0
H1272 H 0.25253 0.64639 0.54769 0.0
H1273 H 0.12398 0.45652 0.46593 0.0
H1274 H 0.41695 0.166 0.93476 0.0
H1275 H 0.41773 0.16768 0.96696 0.0
H1276 H 0.48991 0.20643 0.96527 0.0
H1277 H 0.4894 0.20469 0.93299 0.0
H1278 H 0.48921 0.16823 0.98997 0.0
H1279 H 0.43692 0.23935 0.97395 0.0
H1280 H 0.40152 0.26096 0.95879 0.0
H1281 H 0.34788 0.21357 0.98606 0.0
H1282 H 0.38299 0.19141 1.00121 0.0
H1283 H 0.48939 0.20688 0.07994 0.0
H1284 H 0.48972 0.20735 0.04766 0.0
H1285 H 0.41715 0.16925 0.04696 0.0
H1286 H 0.41658 0.1688 0.07921 0.0
H1287 H 0.41876 0.20835 0.02343 0.0
H1288 H 0.47003 0.13647 0.03873 0.0
H1289 H 0.50476 0.11388 0.0539 0.0
H1290 H 0.55966 0.16137 0.02795 0.0
H1291 H 0.52517 0.18457 0.01283 0.0
C1292 C 0.43301 0.1749 0.94121 0.0
C1293 C 0.45308 0.1853 0.93128 0.0
C1294 C 0.43337 0.17592 0.95963 0.0
C1295 C 0.45375 0.18742 0.9685 0.0
C1296 C 0.47398 0.19752 0.95867 0.0
C1297 C 0.47361 0.19658 0.94022 0.0
C1298 C 0.45392 0.1888 0.98806 0.0
C1299 C 0.47403 0.17736 0.99729 0.0
C1300 C 0.43378 0.20016 0.99759 0.0
C1301 C 0.41261 0.21357 0.98859 0.0
C1302 C 0.41758 0.23341 0.97662 0.0
C1303 C 0.39757 0.24578 0.96804 0.0
C1304 C 0.37247 0.2386 0.97143 0.0
C1305 C 0.36733 0.21909 0.98344 0.0
C1306 C 0.38728 0.20663 0.99203 0.0
C1307 C 0.47347 0.19865 0.07293 0.0
C1308 C 0.45299 0.18772 0.08216 0.0
C1309 C 0.47373 0.19886 0.05448 0.0
C1310 C 0.45356 0.18814 0.04492 0.0
C1311 C 0.43291 0.17762 0.05409 0.0
C1312 C 0.43267 0.1773 0.07252 0.0
C1313 C 0.45402 0.18773 0.02534 0.0
C1314 C 0.43402 0.19934 0.01611 0.0
C1315 C 0.47419 0.17641 0.01581 0.0
C1316 C 0.495 0.16244 0.0248 0.0
C1317 C 0.48949 0.14225 0.03637 0.0
C1318 C 0.50914 0.1293 0.04494 0.0
C1319 C 0.53441 0.13621 0.04193 0.0
C1320 C 0.54008 0.15606 0.0303 0.0
C1321 C 0.52048 0.16911 0.02172 0.0
H1322 H 0.5496 0.12616 0.04857 0.0
H1323 H 0.35699 0.2482 0.96477 0.0
H1324 H 0.79506 0.48674 0.4331 0.0
H1325 H 0.79442 0.48767 0.46538 0.0
H1326 H 0.83643 0.41729 0.46689 0.0
H1327 H 0.8375 0.4164 0.43468 0.0
H1328 H 0.77492 0.45565 0.48957 0.0
H1329 H 0.8767 0.41763 0.50186 0.0
H1330 H 0.91865 0.41776 0.4873 0.0
H1331 H 0.89949 0.48691 0.46025 0.0
H1332 H 0.85759 0.48739 0.47483 0.0
H1333 H 0.83618 0.41737 0.57948 0.0
H1334 H 0.83558 0.4176 0.54724 0.0
H1335 H 0.79356 0.48799 0.54767 0.0
H1336 H 0.79375 0.48775 0.57994 0.0
H1337 H 0.85498 0.45082 0.52399 0.0
H1338 H 0.75364 0.48939 0.51201 0.0
H1339 H 0.71163 0.48942 0.52649 0.0
H1340 H 0.72993 0.41952 0.55289 0.0
H1341 H 0.77189 0.41889 0.53839 0.0
C1342 C 0.80417 0.47146 0.44029 0.0
C1343 C 0.81647 0.45157 0.43129 0.0
C1344 C 0.80373 0.47199 0.45875 0.0
C1345 C 0.81565 0.45273 0.46855 0.0
C1346 C 0.82749 0.4326 0.4596 0.0
C1347 C 0.828 0.43208 0.44117 0.0
C1348 C 0.81575 0.45367 0.48814 0.0
C1349 C 0.79244 0.45496 0.4971 0.0
C1350 C 0.83859 0.45227 0.49797 0.0
C1351 C 0.8639 0.45238 0.48931 0.0
C1352 C 0.88148 0.43291 0.49286 0.0
C1353 C 0.90524 0.43288 0.48459 0.0
C1354 C 0.91169 0.45229 0.47281 0.0
C1355 C 0.89443 0.47184 0.46932 0.0
C1356 C 0.87066 0.47198 0.47757 0.0
C1357 C 0.82673 0.43288 0.57274 0.0
C1358 C 0.81493 0.45251 0.58231 0.0
C1359 C 0.82648 0.43301 0.5543 0.0
C1360 C 0.81434 0.45268 0.54503 0.0
C1361 C 0.80271 0.47241 0.55454 0.0
C1362 C 0.80292 0.47229 0.57299 0.0
C1363 C 0.81414 0.45263 0.52544 0.0
C1364 C 0.83746 0.45155 0.51646 0.0
C1365 C 0.79131 0.45426 0.51561 0.0
C1366 C 0.76601 0.45427 0.52426 0.0
C1367 C 0.74866 0.47399 0.52086 0.0
C1368 C 0.72486 0.47411 0.52908 0.0
C1369 C 0.71815 0.45453 0.54065 0.0
C1370 C 0.73519 0.43473 0.54398 0.0
C1371 C 0.759 0.4345 0.53579 0.0
H1372 H 0.69973 0.45467 0.54701 0.0
H1373 H 0.93009 0.45221 0.46641 0.0
H1374 H 0.58786 0.83404 0.07632 0.0
H1375 H 0.58734 0.83286 0.04411 0.0
H1376 H 0.51435 0.79556 0.04524 0.0
H1377 H 0.51491 0.79625 0.07752 0.0
H1378 H 0.5451 0.77389 0.02135 0.0
H1379 H 0.5193 0.85886 0.03561 0.0
H1380 H 0.52285 0.9007 0.05002 0.0
H1381 H 0.59346 0.91438 0.02322 0.0
H1382 H 0.59052 0.87244 0.00883 0.0
H1383 H 0.51466 0.79422 0.93085 0.0
H1384 H 0.51458 0.79392 0.96312 0.0
H1385 H 0.58719 0.83197 0.96343 0.0
H1386 H 0.58722 0.83278 0.9312 0.0
H1387 H 0.55579 0.8532 0.98664 0.0
H1388 H 0.58179 0.76802 0.97261 0.0
H1389 H 0.5783 0.72611 0.95828 0.0
H1390 H 0.50726 0.71284 0.98463 0.0
H1391 H 0.51016 0.75484 0.99894 0.0
C1392 C 0.57168 0.82556 0.06974 0.0
C1393 C 0.55137 0.81534 0.07951 0.0
C1394 C 0.57137 0.82499 0.05131 0.0
C1395 C 0.55064 0.81444 0.04224 0.0
C1396 C 0.53052 0.80385 0.05195 0.0
C1397 C 0.53085 0.80433 0.07041 0.0
C1398 C 0.54996 0.81449 0.02264 0.0
C1399 C 0.54708 0.79127 0.01375 0.0
C1400 C 0.55307 0.8371 0.01272 0.0
C1401 C 0.5548 0.86241 0.02127 0.0
C1402 C 0.53568 0.87071 0.03288 0.0
C1403 C 0.53757 0.89446 0.04103 0.0
C1404 C 0.5584 0.91016 0.03757 0.0
C1405 C 0.57735 0.90218 0.02591 0.0
C1406 C 0.57557 0.87843 0.01774 0.0
C1407 C 0.53066 0.80246 0.93778 0.0
C1408 C 0.55097 0.81349 0.92843 0.0
C1409 C 0.53063 0.80218 0.95623 0.0
C1410 C 0.55101 0.81269 0.96571 0.0
C1411 C 0.57126 0.82375 0.95641 0.0
C1412 C 0.57127 0.82413 0.93797 0.0
C1413 C 0.55107 0.81258 0.98533 0.0
C1414 C 0.55379 0.83581 0.99422 0.0
C1415 C 0.5478 0.78998 0.99525 0.0
C1416 C 0.54607 0.76468 0.98671 0.0
C1417 C 0.56533 0.75625 0.97524 0.0
C1418 C 0.56347 0.73246 0.96715 0.0
C1419 C 0.54254 0.71685 0.97051 0.0
C1420 C 0.52345 0.72496 0.98202 0.0
C1421 C 0.5252 0.74875 0.99014 0.0
H1422 H 0.54114 0.69844 0.96423 0.0
H1423 H 0.55982 0.92854 0.0439 0.0
H1424 H 0.25567 0.40613 0.13848 0.0
H1425 H 0.2904 0.37526 0.13943 0.0
H1426 H 0.23602 0.31408 0.14276 0.0
H1427 H 0.20123 0.34478 0.14213 0.0
H1428 H 0.27432 0.30692 0.16551 0.0
H1429 H 0.26633 0.32922 0.10383 0.0
H1430 H 0.26517 0.35874 0.07852 0.0
H1431 H 0.34094 0.38365 0.09046 0.0
H1432 H 0.34241 0.35453 0.116 0.0
H1433 H 0.34829 0.20093 0.14141 0.0
H1434 H 0.317 0.2351 0.14256 0.0
H1435 H 0.37698 0.29069 0.13861 0.0
H1436 H 0.4085 0.25652 0.13713 0.0
H1437 H 0.33816 0.30288 0.11739 0.0
H1438 H 0.34748 0.27955 0.17792 0.0
H1439 H 0.34926 0.25037 0.20339 0.0
H1440 H 0.27189 0.22814 0.19411 0.0
H1441 H 0.26976 0.25693 0.16842 0.0
C1442 C 0.25109 0.3861 0.13945 0.0
C1443 C 0.22565 0.37792 0.14017 0.0
C1444 C 0.27097 0.36848 0.13992 0.0
C1445 C 0.26581 0.34233 0.14095 0.0
C1446 C 0.24046 0.33416 0.14195 0.0
C1447 C 0.22058 0.35175 0.14154 0.0
C1448 C 0.28672 0.32337 0.14093 0.0
C1449 C 0.28812 0.30587 0.15489 0.0
C1450 C 0.30521 0.32249 0.12735 0.0
C1451 C 0.30438 0.33989 0.11193 0.0
C1452 C 0.28267 0.34113 0.10114 0.0
C1453 C 0.28197 0.35777 0.08674 0.0
C1454 C 0.30294 0.3731 0.08292 0.0
C1455 C 0.32469 0.37179 0.09346 0.0
C1456 C 0.32547 0.35521 0.10789 0.0
C1457 C 0.35489 0.22041 0.14082 0.0
C1458 C 0.38093 0.22598 0.13924 0.0
C1459 C 0.33695 0.23995 0.14156 0.0
C1460 C 0.34466 0.26548 0.14092 0.0
C1461 C 0.37062 0.27113 0.13918 0.0
C1462 C 0.3886 0.25157 0.13838 0.0
C1463 C 0.32551 0.28618 0.14183 0.0
C1464 C 0.32446 0.30402 0.12806 0.0
C1465 C 0.3074 0.28746 0.15563 0.0
C1466 C 0.30853 0.27026 0.17115 0.0
C1467 C 0.3309 0.26831 0.18124 0.0
C1468 C 0.33197 0.25186 0.19572 0.0
C1469 C 0.31072 0.23737 0.20034 0.0
C1470 C 0.28834 0.23936 0.19051 0.0
C1471 C 0.28719 0.25576 0.176 0.0
H1472 H 0.31158 0.22464 0.21156 0.0
H1473 H 0.30239 0.38596 0.07176 0.0
H1474 H 0.74352 0.40864 0.63578 0.0
H1475 H 0.70904 0.37737 0.63575 0.0
H1476 H 0.76377 0.31683 0.64115 0.0
H1477 H 0.79827 0.34781 0.64105 0.0
H1478 H 0.72914 0.30628 0.61595 0.0
H1479 H 0.72822 0.33615 0.67607 0.0
H1480 H 0.72574 0.36851 0.69951 0.0
H1481 H 0.65182 0.39095 0.68124 0.0
H1482 H 0.65401 0.35893 0.65752 0.0
H1483 H 0.65324 0.20255 0.64138 0.0
H1484 H 0.68403 0.23722 0.64121 0.0
H1485 H 0.62325 0.29158 0.63536 0.0
H1486 H 0.59215 0.25692 0.63567 0.0
H1487 H 0.65864 0.30734 0.65945 0.0
H1488 H 0.65848 0.27636 0.60026 0.0
H1489 H 0.66071 0.24411 0.57673 0.0
H1490 H 0.73635 0.22422 0.59289 0.0
H1491 H 0.73444 0.25611 0.61669 0.0
C1492 C 0.74821 0.38867 0.63701 0.0
C1493 C 0.77367 0.38074 0.63843 0.0
C1494 C 0.72847 0.37083 0.63705 0.0
C1495 C 0.73382 0.34477 0.63856 0.0
C1496 C 0.7592 0.33684 0.63995 0.0
C1497 C 0.77891 0.35461 0.63995 0.0
C1498 C 0.71313 0.32558 0.6384 0.0
C1499 C 0.71388 0.30636 0.62558 0.0
C1500 C 0.69278 0.32614 0.65062 0.0
C1501 C 0.69141 0.34534 0.6649 0.0
C1502 C 0.71153 0.34813 0.67695 0.0
C1503 C 0.71016 0.36638 0.69031 0.0
C1504 C 0.68867 0.38183 0.69183 0.0
C1505 C 0.66847 0.379 0.68003 0.0
C1506 C 0.66976 0.3608 0.66663 0.0
C1507 C 0.64635 0.22186 0.6401 0.0
C1508 C 0.62021 0.22693 0.63844 0.0
C1509 C 0.66401 0.24167 0.63994 0.0
C1510 C 0.65596 0.26696 0.63804 0.0
C1511 C 0.62987 0.27219 0.63679 0.0
C1512 C 0.61214 0.25234 0.63692 0.0
C1513 C 0.67494 0.28782 0.63719 0.0
C1514 C 0.67383 0.30736 0.64977 0.0
C1515 C 0.69496 0.28763 0.62471 0.0
C1516 C 0.69623 0.26848 0.61036 0.0
C1517 C 0.67552 0.26497 0.59889 0.0
C1518 C 0.67673 0.24678 0.58548 0.0
C1519 C 0.69864 0.23209 0.58334 0.0
C1520 C 0.71939 0.2356 0.59458 0.0
C1521 C 0.71826 0.25375 0.60802 0.0
H1522 H 0.69954 0.21801 0.57296 0.0
H1523 H 0.68764 0.39595 0.70219 0.0
H1524 H 0.74572 0.59357 0.13444 0.0
H1525 H 0.71101 0.6245 0.1351 0.0
H1526 H 0.76494 0.68482 0.14418 0.0
H1527 H 0.7997 0.65406 0.14372 0.0
H1528 H 0.72385 0.68934 0.16541 0.0
H1529 H 0.73976 0.67508 0.10352 0.0
H1530 H 0.74447 0.64909 0.07666 0.0
H1531 H 0.66762 0.62276 0.08214 0.0
H1532 H 0.66258 0.64834 0.1092 0.0
H1533 H 0.6551 0.79894 0.1416 0.0
H1534 H 0.68538 0.76393 0.14317 0.0
H1535 H 0.62482 0.71029 0.13405 0.0
H1536 H 0.59426 0.74536 0.13229 0.0
H1537 H 0.6664 0.69975 0.11399 0.0
H1538 H 0.64946 0.71632 0.17475 0.0
H1539 H 0.64469 0.74247 0.20152 0.0
H1540 H 0.72317 0.76433 0.1983 0.0
H1541 H 0.72834 0.7386 0.17135 0.0
C1542 C 0.7502 0.61341 0.13662 0.0
C1543 C 0.77551 0.62135 0.13896 0.0
C1544 C 0.73034 0.63107 0.13693 0.0
C1545 C 0.73541 0.657 0.13952 0.0
C1546 C 0.76059 0.6649 0.14216 0.0
C1547 C 0.78045 0.64729 0.14183 0.0
C1548 C 0.71458 0.67603 0.13934 0.0
C1549 C 0.71144 0.69178 0.15411 0.0
C1550 C 0.69792 0.6787 0.12479 0.0
C1551 C 0.70089 0.6634 0.10849 0.0
C1552 C 0.72394 0.66358 0.09908 0.0
C1553 C 0.72666 0.64896 0.08381 0.0
C1554 C 0.70638 0.63422 0.07773 0.0
C1555 C 0.68333 0.63415 0.08689 0.0
C1556 C 0.68052 0.64871 0.10218 0.0
C1557 C 0.64814 0.77971 0.13997 0.0
C1558 C 0.62221 0.77496 0.13687 0.0
C1559 C 0.66549 0.75969 0.14094 0.0
C1560 C 0.65732 0.73447 0.13894 0.0
C1561 C 0.63151 0.72962 0.13569 0.0
C1562 C 0.61407 0.74967 0.13474 0.0
C1563 C 0.67594 0.71333 0.13996 0.0
C1564 C 0.67866 0.69717 0.12536 0.0
C1565 C 0.69222 0.71025 0.15468 0.0
C1566 C 0.68923 0.72568 0.17094 0.0
C1567 C 0.66566 0.72686 0.17967 0.0
C1568 C 0.66289 0.74158 0.19489 0.0
C1569 C 0.6836 0.75509 0.20159 0.0
C1570 C 0.70714 0.75386 0.19309 0.0
C1571 C 0.71001 0.73919 0.17785 0.0
H1572 H 0.68141 0.76648 0.21338 0.0
H1573 H 0.70852 0.62291 0.0659 0.0
H1574 H 0.19997 0.65538 0.64181 0.0
H1575 H 0.23426 0.68656 0.64145 0.0
H1576 H 0.28933 0.62634 0.63617 0.0
H1577 H 0.25503 0.59483 0.63665 0.0
H1578 H 0.30457 0.66303 0.65997 0.0
H1579 H 0.27286 0.65949 0.60109 0.0
H1580 H 0.23992 0.66003 0.578 0.0
H1581 H 0.2205 0.73677 0.59169 0.0
H1582 H 0.25284 0.73645 0.61525 0.0
H1583 H 0.40521 0.74667 0.63418 0.0
H1584 H 0.37382 0.71238 0.63488 0.0
H1585 H 0.31352 0.76756 0.63916 0.0
H1586 H 0.3447 0.80195 0.63833 0.0
H1587 H 0.30268 0.73144 0.61484 0.0
H1588 H 0.33273 0.73387 0.67484 0.0
H1589 H 0.36525 0.73298 0.69826 0.0
H1590 H 0.38822 0.65829 0.682 0.0
H1591 H 0.35607 0.65888 0.6583 0.0
C1592 C 0.21936 0.64868 0.64064 0.0
C1593 C 0.22473 0.62258 0.63915 0.0
C1594 C 0.23894 0.66657 0.64039 0.0
C1595 C 0.26432 0.65879 0.63856 0.0
C1596 C 0.26986 0.63274 0.63755 0.0
C1597 C 0.25023 0.61478 0.63776 0.0
C1598 C 0.28488 0.67803 0.63733 0.0
C1599 C 0.3044 0.67777 0.64995 0.0
C1600 C 0.28441 0.69746 0.62439 0.0
C1601 C 0.26515 0.69786 0.61006 0.0
C1602 C 0.26143 0.67642 0.59929 0.0
C1603 C 0.24288 0.67669 0.58609 0.0
C1604 C 0.22815 0.69843 0.58335 0.0
C1605 C 0.23193 0.71994 0.59382 0.0
C1606 C 0.25035 0.71971 0.60712 0.0
C1607 C 0.38527 0.75153 0.63531 0.0
C1608 C 0.37748 0.77707 0.63623 0.0
C1609 C 0.36736 0.73189 0.63576 0.0
C1610 C 0.34134 0.7374 0.63721 0.0
C1611 C 0.3335 0.76287 0.63804 0.0
C1612 C 0.35138 0.78251 0.63762 0.0
C1613 C 0.32216 0.71671 0.63765 0.0
C1614 C 0.30292 0.71665 0.62483 0.0
C1615 C 0.32294 0.69698 0.65037 0.0
C1616 C 0.34217 0.69653 0.66468 0.0
C1617 C 0.34485 0.71734 0.67617 0.0
C1618 C 0.3632 0.71688 0.68951 0.0
C1619 C 0.37884 0.69562 0.69158 0.0
C1620 C 0.37612 0.67475 0.68035 0.0
C1621 C 0.35783 0.67513 0.66697 0.0
H1622 H 0.39303 0.6953 0.70192 0.0
H1623 H 0.21381 0.6986 0.57311 0.0
H1624 H 0.40845 0.74757 0.37627 0.0
H1625 H 0.37739 0.71293 0.3767 0.0
H1626 H 0.31701 0.76673 0.36725 0.0
H1627 H 0.34777 0.8014 0.36704 0.0
H1628 H 0.30498 0.73477 0.39348 0.0
H1629 H 0.33902 0.72743 0.33455 0.0
H1630 H 0.37304 0.72248 0.31243 0.0
H1631 H 0.39413 0.65088 0.33542 0.0
H1632 H 0.36043 0.65558 0.35784 0.0
H1633 H 0.20318 0.65561 0.3697 0.0
H1634 H 0.23762 0.68663 0.36917 0.0
H1635 H 0.29207 0.62694 0.37888 0.0
H1636 H 0.25766 0.59559 0.37918 0.0
H1637 H 0.30909 0.65976 0.35397 0.0
H1638 H 0.27429 0.66588 0.41203 0.0
H1639 H 0.24054 0.67048 0.43438 0.0
H1640 H 0.22149 0.74401 0.41359 0.0
H1641 H 0.25491 0.7397 0.39094 0.0
C1642 C 0.38858 0.75201 0.37418 0.0
C1643 C 0.3806 0.77728 0.37162 0.0
C1644 C 0.37086 0.73217 0.37437 0.0
C1645 C 0.34488 0.73722 0.3719 0.0
C1646 C 0.33694 0.76239 0.36922 0.0
C1647 C 0.35459 0.7822 0.36905 0.0
C1648 C 0.32576 0.7165 0.37255 0.0
C1649 C 0.30573 0.71852 0.3847 0.0
C1650 C 0.3272 0.69487 0.3615 0.0
C1651 C 0.34739 0.69199 0.34799 0.0
C1652 C 0.35105 0.71073 0.33498 0.0
C1653 C 0.37025 0.70795 0.32237 0.0
C1654 C 0.38578 0.68641 0.32255 0.0
C1655 C 0.38211 0.66757 0.33531 0.0
C1656 C 0.36295 0.67027 0.34796 0.0
C1657 C 0.22246 0.64901 0.3717 0.0
C1658 C 0.22763 0.62312 0.37459 0.0
C1659 C 0.24214 0.66681 0.37145 0.0
C1660 C 0.26738 0.65916 0.37424 0.0
C1661 C 0.27271 0.63327 0.37675 0.0
C1662 C 0.25301 0.6154 0.37696 0.0
C1663 C 0.28807 0.67833 0.37467 0.0
C1664 C 0.30842 0.67597 0.36279 0.0
C1665 C 0.28701 0.69964 0.38603 0.0
C1666 C 0.26697 0.70237 0.39969 0.0
C1667 C 0.26278 0.68295 0.41214 0.0
C1668 C 0.24373 0.68552 0.42487 0.0
C1669 C 0.22884 0.7075 0.42538 0.0
C1670 C 0.23302 0.72699 0.41317 0.0
C1671 C 0.25203 0.7245 0.40039 0.0
H1672 H 0.2141 0.70945 0.43525 0.0
H1673 H 0.40064 0.6843 0.31277 0.0
H1674 H 0.34735 0.20049 0.87093 0.0
H1675 H 0.31669 0.23526 0.86979 0.0
H1676 H 0.37709 0.28944 0.87783 0.0
H1677 H 0.40796 0.25468 0.87919 0.0
H1678 H 0.33634 0.30006 0.89834 0.0
H1679 H 0.35126 0.28238 0.83745 0.0
H1680 H 0.35513 0.25558 0.81091 0.0
H1681 H 0.27671 0.23401 0.81559 0.0
H1682 H 0.27247 0.26038 0.84232 0.0
H1683 H 0.25734 0.40656 0.87829 0.0
H1684 H 0.29176 0.3753 0.87732 0.0
H1685 H 0.23704 0.31537 0.86931 0.0
H1686 H 0.20261 0.34644 0.87003 0.0
H1687 H 0.2774 0.30991 0.84768 0.0
H1688 H 0.26358 0.32568 0.90968 0.0
H1689 H 0.26002 0.35233 0.93632 0.0
H1690 H 0.33691 0.37775 0.92933 0.0
H1691 H 0.34081 0.3515 0.90249 0.0
C1692 C 0.35418 0.21979 0.87243 0.0
C1693 C 0.38015 0.22479 0.8751 0.0
C1694 C 0.33661 0.23967 0.8717 0.0
C1695 C 0.34464 0.26497 0.87351 0.0
C1696 C 0.3705 0.27005 0.87636 0.0
C1697 C 0.38812 0.25016 0.87708 0.0
C1698 C 0.3259 0.28604 0.87265 0.0
C1699 C 0.32373 0.3025 0.88713 0.0
C1700 C 0.30919 0.28895 0.85815 0.0
C1701 C 0.31161 0.27321 0.84199 0.0
C1702 C 0.33489 0.27178 0.8329 0.0
C1703 C 0.33714 0.25669 0.81781 0.0
C1704 C 0.3162 0.24306 0.81159 0.0
C1705 C 0.29293 0.24456 0.82043 0.0
C1706 C 0.29058 0.2596 0.83554 0.0
C1707 C 0.25263 0.38673 0.87628 0.0
C1708 C 0.22719 0.379 0.87431 0.0
C1709 C 0.27233 0.36888 0.87578 0.0
C1710 C 0.26695 0.34296 0.87342 0.0
C1711 C 0.24163 0.33527 0.87115 0.0
C1712 C 0.22195 0.35307 0.87163 0.0
C1713 C 0.2876 0.32371 0.87348 0.0
C1714 C 0.29013 0.30759 0.85883 0.0
C1715 C 0.30468 0.32115 0.88781 0.0
C1716 C 0.30239 0.33685 0.90398 0.0
C1717 C 0.27966 0.33711 0.91375 0.0
C1718 C 0.27759 0.35211 0.92889 0.0
C1719 C 0.2982 0.36678 0.93448 0.0
C1720 C 0.32095 0.36642 0.92497 0.0
C1721 C 0.3231 0.35147 0.90979 0.0
H1722 H 0.29656 0.37838 0.94621 0.0
H1723 H 0.31798 0.23139 0.79991 0.0
H1724 H 0.59713 0.2571 0.37659 0.0
H1725 H 0.6292 0.29076 0.37608 0.0
H1726 H 0.68846 0.23438 0.37221 0.0
H1727 H 0.65661 0.20064 0.37286 0.0
H1728 H 0.69946 0.26996 0.39677 0.0
H1729 H 0.67094 0.2687 0.3365 0.0
H1730 H 0.63916 0.27032 0.31261 0.0
H1731 H 0.61707 0.34533 0.32878 0.0
H1732 H 0.64847 0.344 0.35294 0.0
H1733 H 0.8036 0.34639 0.37218 0.0
H1734 H 0.76939 0.31507 0.37188 0.0
H1735 H 0.71395 0.37509 0.37642 0.0
H1736 H 0.74812 0.40669 0.37659 0.0
H1737 H 0.69973 0.33911 0.35216 0.0
H1738 H 0.72877 0.3408 0.412 0.0
H1739 H 0.76039 0.33921 0.43598 0.0
H1740 H 0.78122 0.26342 0.42078 0.0
H1741 H 0.74996 0.2647 0.39653 0.0
C1742 C 0.61698 0.25185 0.37558 0.0
C1743 C 0.6243 0.22616 0.37475 0.0
C1744 C 0.63528 0.27113 0.37522 0.0
C1745 C 0.66121 0.26508 0.37398 0.0
C1746 C 0.66855 0.23947 0.37318 0.0
C1747 C 0.6503 0.22021 0.3735 0.0
C1748 C 0.6808 0.28535 0.37383 0.0
C1749 C 0.6997 0.2849 0.38688 0.0
C1750 C 0.68067 0.30524 0.36123 0.0
C1751 C 0.66187 0.30614 0.34665 0.0
C1752 C 0.65916 0.28546 0.33506 0.0
C1753 C 0.64124 0.28634 0.32145 0.0
C1754 C 0.62606 0.30789 0.31921 0.0
C1755 C 0.62882 0.32863 0.33055 0.0
C1756 C 0.64668 0.32783 0.34419 0.0
C1757 C 0.78414 0.35299 0.37307 0.0
C1758 C 0.77861 0.37906 0.37451 0.0
C1759 C 0.76461 0.33504 0.37295 0.0
C1760 C 0.73915 0.34273 0.37435 0.0
C1761 C 0.73348 0.36875 0.37537 0.0
C1762 C 0.75304 0.38677 0.37553 0.0
C1763 C 0.71854 0.32351 0.37498 0.0
C1764 C 0.69944 0.3242 0.36206 0.0
C1765 C 0.71843 0.30382 0.38772 0.0
C1766 C 0.73718 0.30294 0.40234 0.0
C1767 C 0.74023 0.32387 0.41368 0.0
C1768 C 0.75806 0.32301 0.42734 0.0
C1769 C 0.77285 0.30125 0.42988 0.0
C1770 C 0.76978 0.28027 0.41879 0.0
C1771 C 0.75199 0.28105 0.40509 0.0
H1772 H 0.78664 0.30062 0.44046 0.0
H1773 H 0.6122 0.30853 0.30867 0.0
H1774 H 0.74638 0.59301 0.87827 0.0
H1775 H 0.71166 0.62398 0.87745 0.0
H1776 H 0.76581 0.6844 0.86924 0.0
H1777 H 0.80055 0.65375 0.87028 0.0
H1778 H 0.73204 0.69684 0.89415 0.0
H1779 H 0.72902 0.66138 0.83547 0.0
H1780 H 0.72582 0.62668 0.81372 0.0
H1781 H 0.65265 0.60606 0.83436 0.0
H1782 H 0.65558 0.64041 0.85641 0.0
H1783 H 0.65443 0.79793 0.8668 0.0
H1784 H 0.68543 0.76345 0.86708 0.0
H1785 H 0.62541 0.70921 0.87631 0.0
H1786 H 0.59409 0.74366 0.87584 0.0
H1787 H 0.65989 0.69166 0.85215 0.0
H1788 H 0.66199 0.72762 0.91003 0.0
H1789 H 0.66495 0.76193 0.93207 0.0
H1790 H 0.73961 0.78098 0.91337 0.0
H1791 H 0.73695 0.74701 0.89104 0.0
C1792 C 0.75089 0.61288 0.87623 0.0
C1793 C 0.77626 0.62089 0.87434 0.0
C1794 C 0.73101 0.63054 0.8757 0.0
C1795 C 0.73613 0.65649 0.87315 0.0
C1796 C 0.76142 0.66449 0.87124 0.0
C1797 C 0.78126 0.6469 0.8718 0.0
C1798 C 0.71531 0.67555 0.87286 0.0
C1799 C 0.71643 0.69585 0.88482 0.0
C1800 C 0.6945 0.67382 0.86107 0.0
C1801 C 0.69264 0.6533 0.84771 0.0
C1802 C 0.71234 0.64932 0.83546 0.0
C1803 C 0.71056 0.62974 0.82307 0.0
C1804 C 0.68908 0.61413 0.8227 0.0
C1805 C 0.6693 0.61814 0.83468 0.0
C1806 C 0.671 0.63767 0.84712 0.0
C1807 C 0.64774 0.77868 0.86882 0.0
C1808 C 0.62177 0.77359 0.87142 0.0
C1809 C 0.66552 0.75898 0.86903 0.0
C1810 C 0.65777 0.7338 0.87197 0.0
C1811 C 0.6318 0.72852 0.87407 0.0
C1812 C 0.61395 0.74825 0.87386 0.0
C1813 C 0.67696 0.71318 0.87321 0.0
C1814 C 0.67548 0.69257 0.8615 0.0
C1815 C 0.69744 0.71454 0.88527 0.0
C1816 C 0.69918 0.7349 0.89876 0.0
C1817 C 0.67897 0.73925 0.91053 0.0
C1818 C 0.6806 0.75861 0.92309 0.0
C1819 C 0.70243 0.77366 0.9241 0.0
C1820 C 0.7227 0.76932 0.91257 0.0
C1821 C 0.72115 0.75 0.89997 0.0
H1822 H 0.70366 0.78864 0.93383 0.0
H1823 H 0.68774 0.59897 0.8131 0.0
loop_
_geom_bond_atom_site_label_1
_geom_bond_atom_site_label_2
_geom_bond_distance
_geom_bond_site_symmetry_2
_ccdc_geom_bond_type
C0 O2 1.247 . S
C0 O4 1.258 . S
C1 O8 1.247 . S
C1 O9 1.258 . S
O2 C0 1.247 . S
O2 Zn3 2.028 . S
Zn3 O2 2.028 . S
Zn3 O7 2.035 . S
Zn3 O9 2.035 . S
Zn3 O10 2.028 . S
O4 C0 1.258 . S
O4 Zn5 2.035 . S
Zn5 O4 2.035 . S
Zn5 O6 2.028 . S
Zn5 O8 2.028 . S
Zn5 O11 2.035 . S
O6 Zn5 2.028 . S
O6 C12 1.247 . S
O7 Zn3 2.035 . S
O7 C12 1.258 . S
O8 C1 1.247 . S
O8 Zn5 2.028 . S
O9 C1 1.258 . S
O9 Zn3 2.035 . S
O10 Zn3 2.028 . S
O10 C13 1.247 . S
O11 Zn5 2.035 . S
O11 C13 1.258 . S
C12 O6 1.247 . S
C12 O7 1.258 . S
C13 O10 1.247 . S
C13 O11 1.258 . S
C14 O16 1.247 . S
C14 O18 1.258 . S
C15 O22 1.247 . S
C15 O23 1.258 . S
O16 C14 1.247 . S
O16 Zn17 2.028 . S
Zn17 O16 2.028 . S
Zn17 O21 2.035 . S
Zn17 O23 2.035 . S
Zn17 O24 2.028 . S
O18 C14 1.258 . S
O18 Zn19 2.035 . S
Zn19 O18 2.035 . S
Zn19 O20 2.028 . S
Zn19 O22 2.028 . S
Zn19 O25 2.035 . S
O20 Zn19 2.028 . S
O20 C26 1.247 . S
O21 Zn17 2.035 . S
O21 C26 1.258 . S
O22 C15 1.247 . S
O22 Zn19 2.028 . S
O23 C15 1.258 . S
O23 Zn17 2.035 . S
O24 Zn17 2.028 . S
O24 C27 1.247 . S
O25 Zn19 2.035 . S
O25 C27 1.258 . S
C26 O20 1.247 . S
C26 O21 1.258 . S
C27 O24 1.247 . S
C27 O25 1.258 . S
C28 O30 1.247 . S
C28 O32 1.258 . S
C29 O36 1.247 . S
C29 O37 1.258 . S
O30 C28 1.247 . S
O30 Zn31 2.028 . S
Zn31 O30 2.028 . S
Zn31 O35 2.035 . S
Zn31 O37 2.035 . S
Zn31 O38 2.028 . S
O32 C28 1.258 . S
O32 Zn33 2.035 . S
Zn33 O32 2.035 . S
Zn33 O34 2.028 . S
Zn33 O36 2.028 . S
Zn33 O39 2.035 . S
O34 Zn33 2.028 . S
O34 C40 1.247 . S
O35 Zn31 2.035 . S
O35 C40 1.258 . S
O36 C29 1.247 . S
O36 Zn33 2.028 . S
O37 C29 1.258 . S
O37 Zn31 2.035 . S
O38 Zn31 2.028 . S
O38 C41 1.247 . S
O39 Zn33 2.035 . S
O39 C41 1.258 . S
C40 O34 1.247 . S
C40 O35 1.258 . S
C41 O38 1.247 . S
C41 O39 1.258 . S
C42 O44 1.247 . S
C42 O46 1.258 . S
C43 O50 1.247 . S
C43 O51 1.258 . S
O44 C42 1.247 . S
O44 Zn45 2.028 . S
Zn45 O44 2.028 . S
Zn45 O49 2.035 . S
Zn45 O51 2.035 . S
Zn45 O52 2.028 . S
O46 C42 1.258 . S
O46 Zn47 2.035 . S
Zn47 O46 2.035 . S
Zn47 O48 2.028 . S
Zn47 O50 2.028 . S
Zn47 O53 2.035 . S
O48 Zn47 2.028 . S
O48 C54 1.247 . S
O49 Zn45 2.035 . S
O49 C54 1.258 . S
O50 C43 1.247 . S
O50 Zn47 2.028 . S
O51 C43 1.258 . S
O51 Zn45 2.035 . S
O52 Zn45 2.028 . S
O52 C55 1.247 . S
O53 Zn47 2.035 . S
O53 C55 1.258 . S
C54 O48 1.247 . S
C54 O49 1.258 . S
C55 O52 1.247 . S
C55 O53 1.258 . S
C56 O58 1.247 . S
C56 O60 1.258 . S
C57 O64 1.247 . S
C57 O65 1.258 . S
O58 C56 1.247 . S
O58 Zn59 2.028 . S
Zn59 O58 2.028 . S
Zn59 O63 2.035 . S
Zn59 O65 2.035 . S
Zn59 O66 2.028 . S
O60 C56 1.258 . S
O60 Zn61 2.035 . S
Zn61 O60 2.035 . S
Zn61 O62 2.028 . S
Zn61 O64 2.028 . S
Zn61 O67 2.035 . S
O62 Zn61 2.028 . S
O62 C68 1.247 . S
O63 Zn59 2.035 . S
O63 C68 1.258 . S
O64 C57 1.247 . S
O64 Zn61 2.028 . S
O65 C57 1.258 . S
O65 Zn59 2.035 . S
O66 Zn59 2.028 . S
O66 C69 1.247 . S
O67 Zn61 2.035 . S
O67 C69 1.258 . S
C68 O62 1.247 . S
C68 O63 1.258 . S
C69 O66 1.247 . S
C69 O67 1.258 . S
C70 O72 1.247 . S
C70 O74 1.258 . S
C71 O78 1.247 . S
C71 O79 1.258 . S
O72 C70 1.247 . S
O72 Zn73 2.028 . S
Zn73 O72 2.028 . S
Zn73 O77 2.035 . S
Zn73 O79 2.035 . S
Zn73 O80 2.028 . S
O74 C70 1.258 . S
O74 Zn75 2.035 . S
Zn75 O74 2.035 . S
Zn75 O76 2.028 . S
Zn75 O78 2.028 . S
Zn75 O81 2.035 . S
O76 Zn75 2.028 . S
O76 C82 1.247 . S
O77 Zn73 2.035 . S
O77 C82 1.258 . S
O78 C71 1.247 . S
O78 Zn75 2.028 . S
O79 C71 1.258 . S
O79 Zn73 2.035 . S
O80 Zn73 2.028 . S
O80 C83 1.247 . S
O81 Zn75 2.035 . S
O81 C83 1.258 . S
C82 O76 1.247 . S
C82 O77 1.258 . S
C83 O80 1.247 . S
C83 O81 1.258 . S
C84 O86 1.247 . S
C84 O88 1.258 . S
C85 O92 1.247 . S
C85 O93 1.258 . S
O86 C84 1.247 . S
O86 Zn87 2.028 . S
Zn87 O86 2.028 . S
Zn87 O91 2.035 . S
Zn87 O93 2.035 . S
Zn87 O94 2.028 . S
O88 C84 1.258 . S
O88 Zn89 2.035 . S
Zn89 O88 2.035 . S
Zn89 O90 2.028 . S
Zn89 O92 2.028 . S
Zn89 O95 2.035 . S
O90 Zn89 2.028 . S
O90 C96 1.247 . S
O91 Zn87 2.035 . S
O91 C96 1.258 . S
O92 C85 1.247 . S
O92 Zn89 2.028 . S
O93 C85 1.258 . S
O93 Zn87 2.035 . S
O94 Zn87 2.028 . S
O94 C97 1.247 . S
O95 Zn89 2.035 . S
O95 C97 1.258 . S
C96 O90 1.247 . S
C96 O91 1.258 . S
C97 O94 1.247 . S
C97 O95 1.258 . S
C98 O100 1.247 . S
C98 O102 1.258 . S
C99 O106 1.247 . S
C99 O107 1.258 . S
O100 C98 1.247 . S
O100 Zn101 2.028 . S
Zn101 O100 2.028 . S
Zn101 O105 2.035 . S
Zn101 O107 2.035 . S
Zn101 O108 2.028 . S
O102 C98 1.258 . S
O102 Zn103 2.035 . S
Zn103 O102 2.035 . S
Zn103 O104 2.028 . S
Zn103 O106 2.028 . S
Zn103 O109 2.035 . S
O104 Zn103 2.028 . S
O104 C110 1.247 . S
O105 Zn101 2.035 . S
O105 C110 1.258 . S
O106 C99 1.247 . S
O106 Zn103 2.028 . S
O107 C99 1.258 . S
O107 Zn101 2.035 . S
O108 Zn101 2.028 . S
O108 C111 1.247 . S
O109 Zn103 2.035 . S
O109 C111 1.258 . S
C110 O104 1.247 . S
C110 O105 1.258 . S
C111 O108 1.247 . S
C111 O109 1.258 . S
C112 O114 1.247 . S
C112 O116 1.258 . S
C113 O120 1.247 . S
C113 O121 1.258 . S
O114 C112 1.247 . S
O114 Zn115 2.028 . S
Zn115 O114 2.028 . S
Zn115 O119 2.035 . S
Zn115 O121 2.035 . S
Zn115 O122 2.028 . S
O116 C112 1.258 . S
O116 Zn117 2.035 . S
Zn117 O116 2.035 . S
Zn117 O118 2.028 . S
Zn117 O120 2.028 . S
Zn117 O123 2.035 . S
O118 Zn117 2.028 . S
O118 C124 1.247 . S
O119 Zn115 2.035 . S
O119 C124 1.258 . S
O120 C113 1.247 . S
O120 Zn117 2.028 . S
O121 C113 1.258 . S
O121 Zn115 2.035 . S
O122 Zn115 2.028 . S
O122 C125 1.247 . S
O123 Zn117 2.035 . S
O123 C125 1.258 . S
C124 O118 1.247 . S
C124 O119 1.258 . S
C125 O122 1.247 . S
C125 O123 1.258 . S
C126 O128 1.247 . S
C126 O130 1.258 . S
C127 O134 1.247 . S
C127 O135 1.258 . S
O128 C126 1.247 . S
O128 Zn129 2.028 . S
Zn129 O128 2.028 . S
Zn129 O133 2.035 . S
Zn129 O135 2.035 . S
Zn129 O136 2.028 . S
O130 C126 1.258 . S
O130 Zn131 2.035 . S
Zn131 O130 2.035 . S
Zn131 O132 2.028 . S
Zn131 O134 2.028 . S
Zn131 O137 2.035 . S
O132 Zn131 2.028 . S
O132 C138 1.247 . S
O133 Zn129 2.035 . S
O133 C138 1.258 . S
O134 C127 1.247 . S
O134 Zn131 2.028 . S
O135 C127 1.258 . S
O135 Zn129 2.035 . S
O136 Zn129 2.028 . S
O136 C139 1.247 . S
O137 Zn131 2.035 . S
O137 C139 1.258 . S
C138 O132 1.247 . S
C138 O133 1.258 . S
C139 O136 1.247 . S
C139 O137 1.258 . S
C140 O142 1.247 . S
C140 O144 1.258 . S
C141 O148 1.247 . S
C141 O149 1.258 . S
O142 C140 1.247 . S
O142 Zn143 2.028 . S
Zn143 O142 2.028 . S
Zn143 O147 2.035 . S
Zn143 O149 2.035 . S
Zn143 O150 2.028 . S
O144 C140 1.258 . S
O144 Zn145 2.035 . S
Zn145 O144 2.035 . S
Zn145 O146 2.028 . S
Zn145 O148 2.028 . S
Zn145 O151 2.035 . S
O146 Zn145 2.028 . S
O146 C152 1.247 . S
O147 Zn143 2.035 . S
O147 C152 1.258 . S
O148 C141 1.247 . S
O148 Zn145 2.028 . S
O149 C141 1.258 . S
O149 Zn143 2.035 . S
O150 Zn143 2.028 . S
O150 C153 1.247 . S
O151 Zn145 2.035 . S
O151 C153 1.258 . S
C152 O146 1.247 . S
C152 O147 1.258 . S
C153 O150 1.247 . S
C153 O151 1.258 . S
C154 O156 1.247 . S
C154 O158 1.258 . S
C155 O162 1.247 . S
C155 O163 1.258 . S
O156 C154 1.247 . S
O156 Zn157 2.028 . S
Zn157 O156 2.028 . S
Zn157 O161 2.035 . S
Zn157 O163 2.035 . S
Zn157 O164 2.028 . S
O158 C154 1.258 . S
O158 Zn159 2.035 . S
Zn159 O158 2.035 . S
Zn159 O160 2.028 . S
Zn159 O162 2.028 . S
Zn159 O165 2.035 . S
O160 Zn159 2.028 . S
O160 C166 1.247 . S
O161 Zn157 2.035 . S
O161 C166 1.258 . S
O162 C155 1.247 . S
O162 Zn159 2.028 . S
O163 C155 1.258 . S
O163 Zn157 2.035 . S
O164 Zn157 2.028 . S
O164 C167 1.247 . S
O165 Zn159 2.035 . S
O165 C167 1.258 . S
C166 O160 1.247 . S
C166 O161 1.258 . S
C167 O164 1.247 . S
C167 O165 1.258 . S
C168 O170 1.247 . S
C168 O172 1.258 . S
C169 O176 1.247 . S
C169 O177 1.258 . S
O170 C168 1.247 . S
O170 Zn171 2.028 . S
Zn171 O170 2.028 . S
Zn171 O175 2.035 . S
Zn171 O177 2.035 . S
Zn171 O178 2.028 . S
O172 C168 1.258 . S
O172 Zn173 2.035 . S
Zn173 O172 2.035 . S
Zn173 O174 2.028 . S
Zn173 O176 2.028 . S
Zn173 O179 2.035 . S
O174 Zn173 2.028 . S
O174 C180 1.247 . S
O175 Zn171 2.035 . S
O175 C180 1.258 . S
O176 C169 1.247 . S
O176 Zn173 2.028 . S
O177 C169 1.258 . S
O177 Zn171 2.035 . S
O178 Zn171 2.028 . S
O178 C181 1.247 . S
O179 Zn173 2.035 . S
O179 C181 1.258 . S
C180 O174 1.247 . S
C180 O175 1.258 . S
C181 O178 1.247 . S
C181 O179 1.258 . S
C182 O184 1.247 . S
C182 O186 1.258 . S
C183 O190 1.247 . S
C183 O191 1.258 . S
O184 C182 1.247 . S
O184 Zn185 2.028 . S
Zn185 O184 2.028 . S
Zn185 O189 2.035 . S
Zn185 O191 2.035 . S
Zn185 O192 2.028 . S
O186 C182 1.258 . S
O186 Zn187 2.035 . S
Zn187 O186 2.035 . S
Zn187 O188 2.028 . S
Zn187 O190 2.028 . S
Zn187 O193 2.035 . S
O188 Zn187 2.028 . S
O188 C194 1.247 . S
O189 Zn185 2.035 . S
O189 C194 1.258 . S
O190 C183 1.247 . S
O190 Zn187 2.028 . S
O191 C183 1.258 . S
O191 Zn185 2.035 . S
O192 Zn185 2.028 . S
O192 C195 1.247 . S
O193 Zn187 2.035 . S
O193 C195 1.258 . S
C194 O188 1.247 . S
C194 O189 1.258 . S
C195 O192 1.247 . S
C195 O193 1.258 . S
C196 O198 1.247 . S
C196 O200 1.258 . S
C197 O204 1.247 . S
C197 O205 1.258 . S
O198 C196 1.247 . S
O198 Zn199 2.028 . S
Zn199 O198 2.028 . S
Zn199 O203 2.035 . S
Zn199 O205 2.035 . S
Zn199 O206 2.028 . S
O200 C196 1.258 . S
O200 Zn201 2.035 . S
Zn201 O200 2.035 . S
Zn201 O202 2.028 . S
Zn201 O204 2.028 . S
Zn201 O207 2.035 . S
O202 Zn201 2.028 . S
O202 C208 1.247 . S
O203 Zn199 2.035 . S
O203 C208 1.258 . S
O204 C197 1.247 . S
O204 Zn201 2.028 . S
O205 C197 1.258 . S
O205 Zn199 2.035 . S
O206 Zn199 2.028 . S
O206 C209 1.247 . S
O207 Zn201 2.035 . S
O207 C209 1.258 . S
C208 O202 1.247 . S
C208 O203 1.258 . S
C209 O206 1.247 . S
C209 O207 1.258 . S
C210 O212 1.247 . S
C210 O214 1.258 . S
C211 O218 1.247 . S
C211 O219 1.258 . S
O212 C210 1.247 . S
O212 Zn213 2.028 . S
Zn213 O212 2.028 . S
Zn213 O217 2.035 . S
Zn213 O219 2.035 . S
Zn213 O220 2.028 . S
O214 C210 1.258 . S
O214 Zn215 2.035 . S
Zn215 O214 2.035 . S
Zn215 O216 2.028 . S
Zn215 O218 2.028 . S
Zn215 O221 2.035 . S
O216 Zn215 2.028 . S
O216 C222 1.247 . S
O217 Zn213 2.035 . S
O217 C222 1.258 . S
O218 C211 1.247 . S
O218 Zn215 2.028 . S
O219 C211 1.258 . S
O219 Zn213 2.035 . S
O220 Zn213 2.028 . S
O220 C223 1.247 . S
O221 Zn215 2.035 . S
O221 C223 1.258 . S
C222 O216 1.247 . S
C222 O217 1.258 . S
C223 O220 1.247 . S
C223 O221 1.258 . S
H224 C242 0.951 . S
H225 C244 0.951 . S
H226 C246 0.950 . S
H227 C247 0.950 . S
H228 C249 0.950 . S
H229 C252 0.950 . S
H230 C253 0.950 . S
H231 C255 0.950 . S
H232 C256 0.950 1_655 S
H233 C257 0.951 . S
H234 C259 0.951 . S
H235 C261 0.950 . S
H236 C262 0.950 . S
H237 C264 0.950 . S
H238 C267 0.950 . S
H239 C268 0.950 . S
H240 C270 0.950 . S
H241 C271 0.950 1_455 S
C242 H224 0.951 . S
C242 C243 1.366 . S
C242 C244 1.388 . S
C243 C242 1.366 . S
C243 C247 1.385 . S
C244 H225 0.951 . S
C244 C242 1.388 . S
C244 C245 1.366 . S
C245 C244 1.366 . S
C245 C246 1.414 . S
C245 C248 1.499 . S
C246 H226 0.950 . S
C246 C245 1.414 . S
C246 C247 1.374 . S
C247 H227 0.950 . S
C247 C243 1.385 . S
C247 C246 1.374 . S
C248 C245 1.499 . S
C248 C249 1.373 . S
C248 C250 1.389 . S
C249 H228 0.950 . S
C249 C248 1.373 . S
C249 C265 1.377 1_455 S
C250 C248 1.389 . S
C250 C251 1.524 . S
C250 C264 1.377 1_455 S
C251 C250 1.524 . S
C251 C252 1.397 . S
C251 C256 1.363 . S
C252 H229 0.950 . S
C252 C251 1.397 . S
C252 C253 1.334 . S
C253 H230 0.950 . S
C253 C252 1.334 . S
C253 C254 1.287 . S
C254 C253 1.287 . S
C254 C255 1.524 . S
C254 H273 0.913 . S
C255 H231 0.950 . S
C255 C254 1.524 . S
C255 C256 1.415 . S
C256 H232 0.950 1_455 S
C256 C251 1.363 . S
C256 C255 1.415 . S
C257 H233 0.951 . S
C257 C258 1.366 . S
C257 C259 1.388 . S
C258 C257 1.366 . S
C258 C262 1.385 . S
C259 H234 0.951 . S
C259 C257 1.388 . S
C259 C260 1.366 . S
C260 C259 1.366 . S
C260 C261 1.414 . S
C260 C263 1.499 . S
C261 H235 0.950 . S
C261 C260 1.414 . S
C261 C262 1.374 . S
C262 H236 0.950 . S
C262 C258 1.385 . S
C262 C261 1.374 . S
C263 C260 1.499 . S
C263 C264 1.373 . S
C263 C265 1.389 . S
C264 H237 0.950 . S
C264 C250 1.377 1_655 S
C264 C263 1.373 . S
C265 C249 1.377 1_655 S
C265 C263 1.389 . S
C265 C266 1.524 . S
C266 C265 1.524 . S
C266 C267 1.397 . S
C266 C271 1.363 . S
C267 H238 0.950 . S
C267 C266 1.397 . S
C267 C268 1.334 . S
C268 H239 0.950 . S
C268 C267 1.334 . S
C268 C269 1.287 . S
C269 C268 1.287 . S
C269 C270 1.524 . S
C269 H272 0.999 . S
C270 H240 0.950 . S
C270 C269 1.524 . S
C270 C271 1.415 . S
C271 H241 0.950 1_655 S
C271 C266 1.363 . S
C271 C270 1.415 . S
H272 C269 0.999 . S
H273 C254 0.913 . S
H274 C292 0.951 . S
H275 C294 0.951 . S
H276 C296 0.950 . S
H277 C297 0.950 . S
H278 C299 0.950 . S
H279 C302 0.950 . S
H280 C303 0.950 . S
H281 C305 0.950 . S
H282 C306 0.950 . S
H283 C307 0.951 . S
H284 C309 0.951 . S
H285 C311 0.950 . S
H286 C312 0.950 . S
H287 C314 0.950 . S
H288 C317 0.950 . S
H289 C318 0.950 . S
H290 C320 0.950 . S
H291 C321 0.950 . S
C292 H274 0.951 . S
C292 C293 1.366 . S
C292 C294 1.388 . S
C293 C292 1.366 . S
C293 C297 1.385 . S
C294 H275 0.951 . S
C294 C292 1.388 . S
C294 C295 1.366 . S
C295 C294 1.366 . S
C295 C296 1.414 . S
C295 C298 1.499 . S
C296 H276 0.950 . S
C296 C295 1.414 . S
C296 C297 1.374 . S
C297 H277 0.950 . S
C297 C293 1.385 . S
C297 C296 1.374 . S
C298 C295 1.499 . S
C298 C299 1.373 . S
C298 C300 1.389 . S
C299 H278 0.950 . S
C299 C298 1.373 . S
C299 C315 1.377 1_565 S
C300 C298 1.389 . S
C300 C301 1.524 . S
C300 C314 1.377 1_565 S
C301 C300 1.524 . S
C301 C302 1.397 . S
C301 C306 1.363 . S
C302 H279 0.950 . S
C302 C301 1.397 . S
C302 C303 1.334 . S
C303 H280 0.950 . S
C303 C302 1.334 . S
C303 C304 1.287 . S
C304 C303 1.287 . S
C304 C305 1.524 . S
C304 H323 0.913 . S
C305 H281 0.950 . S
C305 C304 1.524 . S
C305 C306 1.415 . S
C306 H282 0.950 . S
C306 C301 1.363 . S
C306 C305 1.415 . S
C307 H283 0.951 . S
C307 C308 1.366 . S
C307 C309 1.388 . S
C308 C307 1.366 . S
C308 C312 1.385 . S
C309 H284 0.951 . S
C309 C307 1.388 . S
C309 C310 1.366 . S
C310 C309 1.366 . S
C310 C311 1.414 . S
C310 C313 1.499 . S
C311 H285 0.950 . S
C311 C310 1.414 . S
C311 C312 1.374 . S
C312 H286 0.950 . S
C312 C308 1.385 . S
C312 C311 1.374 . S
C313 C310 1.499 . S
C313 C314 1.373 . S
C313 C315 1.389 . S
C314 H287 0.950 . S
C314 C300 1.377 1_545 S
C314 C313 1.373 . S
C315 C299 1.377 1_545 S
C315 C313 1.389 . S
C315 C316 1.524 . S
C316 C315 1.524 . S
C316 C317 1.397 . S
C316 C321 1.363 . S
C317 H288 0.950 . S
C317 C316 1.397 . S
C317 C318 1.334 . S
C318 H289 0.950 . S
C318 C317 1.334 . S
C318 C319 1.287 . S
C319 C318 1.287 . S
C319 C320 1.524 . S
C319 H322 0.999 . S
C320 H290 0.950 . S
C320 C319 1.524 . S
C320 C321 1.415 . S
C321 H291 0.950 . S
C321 C316 1.363 . S
C321 C320 1.415 . S
H322 C319 0.999 . S
H323 C304 0.913 . S
H324 C342 0.951 . S
H325 C344 0.951 . S
H326 C346 0.950 . S
H327 C347 0.950 . S
H328 C349 0.950 . S
H329 C352 0.950 . S
H330 C353 0.950 . S
H331 C355 0.950 . S
H332 C356 0.950 . S
H333 C357 0.951 . S
H334 C359 0.951 . S
H335 C361 0.950 . S
H336 C362 0.950 . S
H337 C364 0.950 . S
H338 C367 0.950 . S
H339 C368 0.950 . S
H340 C370 0.950 . S
H341 C371 0.950 . S
C342 H324 0.951 . S
C342 C343 1.366 . S
C342 C344 1.388 . S
C343 C342 1.366 . S
C343 C347 1.385 . S
C344 H325 0.951 . S
C344 C342 1.388 . S
C344 C345 1.366 . S
C345 C344 1.366 . S
C345 C346 1.414 . S
C345 C348 1.499 . S
C346 H326 0.950 . S
C346 C345 1.414 . S
C346 C347 1.374 . S
C347 H327 0.950 . S
C347 C343 1.385 . S
C347 C346 1.374 . S
C348 C345 1.499 . S
C348 C349 1.373 . S
C348 C350 1.389 . S
C349 H328 0.950 . S
C349 C348 1.373 . S
C349 C365 1.377 1_455 S
C350 C348 1.389 . S
C350 C351 1.524 . S
C350 C364 1.377 1_455 S
C351 C350 1.524 . S
C351 C352 1.397 . S
C351 C356 1.363 . S
C352 H329 0.950 . S
C352 C351 1.397 . S
C352 C353 1.334 . S
C353 H330 0.950 . S
C353 C352 1.334 . S
C353 C354 1.287 . S
C354 C353 1.287 . S
C354 C355 1.524 . S
C354 H373 0.913 . S
C355 H331 0.950 . S
C355 C354 1.524 . S
C355 C356 1.415 . S
C356 H332 0.950 . S
C356 C351 1.363 . S
C356 C355 1.415 . S
C357 H333 0.951 . S
C357 C358 1.366 . S
C357 C359 1.388 . S
C358 C357 1.366 . S
C358 C362 1.385 . S
C359 H334 0.951 . S
C359 C357 1.388 . S
C359 C360 1.366 . S
C360 C359 1.366 . S
C360 C361 1.414 . S
C360 C363 1.499 . S
C361 H335 0.950 . S
C361 C360 1.414 . S
C361 C362 1.374 . S
C362 H336 0.950 . S
C362 C358 1.385 . S
C362 C361 1.374 . S
C363 C360 1.499 . S
C363 C364 1.373 . S
C363 C365 1.389 . S
C364 H337 0.950 . S
C364 C350 1.377 1_655 S
C364 C363 1.373 . S
C365 C349 1.377 1_655 S
C365 C363 1.389 . S
C365 C366 1.524 . S
C366 C365 1.524 . S
C366 C367 1.397 . S
C366 C371 1.363 . S
C367 H338 0.950 . S
C367 C366 1.397 . S
C367 C368 1.334 . S
C368 H339 0.950 . S
C368 C367 1.334 . S
C368 C369 1.287 . S
C369 C368 1.287 . S
C369 C370 1.524 . S
C369 H372 0.999 . S
C370 H340 0.950 . S
C370 C369 1.524 . S
C370 C371 1.415 . S
C371 H341 0.950 . S
C371 C366 1.363 . S
C371 C370 1.415 . S
H372 C369 0.999 . S
H373 C354 0.913 . S
H374 C392 0.951 . S
H375 C394 0.951 . S
H376 C396 0.950 . S
H377 C397 0.950 . S
H378 C399 0.950 . S
H379 C402 0.950 . S
H380 C403 0.950 . S
H381 C405 0.950 . S
H382 C406 0.950 . S
H383 C407 0.951 . S
H384 C409 0.951 . S
H385 C411 0.950 . S
H386 C412 0.950 . S
H387 C414 0.950 . S
H388 C417 0.950 . S
H389 C418 0.950 . S
H390 C420 0.950 . S
H391 C421 0.950 . S
C392 H374 0.951 . S
C392 C393 1.366 . S
C392 C394 1.388 . S
C393 C392 1.366 . S
C393 C397 1.385 . S
C394 H375 0.951 . S
C394 C392 1.388 . S
C394 C395 1.366 . S
C395 C394 1.366 . S
C395 C396 1.414 . S
C395 C398 1.499 . S
C396 H376 0.950 . S
C396 C395 1.414 . S
C396 C397 1.374 . S
C397 H377 0.950 . S
C397 C393 1.385 . S
C397 C396 1.374 . S
C398 C395 1.499 . S
C398 C399 1.373 . S
C398 C400 1.389 . S
C399 H378 0.950 . S
C399 C398 1.373 . S
C399 C415 1.377 1_565 S
C400 C398 1.389 . S
C400 C401 1.524 . S
C400 C414 1.377 1_565 S
C401 C400 1.524 . S
C401 C402 1.397 . S
C401 C406 1.363 . S
C402 H379 0.950 . S
C402 C401 1.397 . S
C402 C403 1.334 . S
C403 H380 0.950 . S
C403 C402 1.334 . S
C403 C404 1.287 . S
C404 C403 1.287 . S
C404 C405 1.524 . S
C404 H423 0.913 . S
C405 H381 0.950 . S
C405 C404 1.524 . S
C405 C406 1.415 . S
C406 H382 0.950 . S
C406 C401 1.363 . S
C406 C405 1.415 . S
C407 H383 0.951 . S
C407 C408 1.366 . S
C407 C409 1.388 . S
C408 C407 1.366 . S
C408 C412 1.385 . S
C409 H384 0.951 . S
C409 C407 1.388 . S
C409 C410 1.366 . S
C410 C409 1.366 . S
C410 C411 1.414 . S
C410 C413 1.499 . S
C411 H385 0.950 . S
C411 C410 1.414 . S
C411 C412 1.374 . S
C412 H386 0.950 . S
C412 C408 1.385 . S
C412 C411 1.374 . S
C413 C410 1.499 . S
C413 C414 1.373 . S
C413 C415 1.389 . S
C414 H387 0.950 . S
C414 C400 1.377 1_545 S
C414 C413 1.373 . S
C415 C399 1.377 1_545 S
C415 C413 1.389 . S
C415 C416 1.524 . S
C416 C415 1.524 . S
C416 C417 1.397 . S
C416 C421 1.363 . S
C417 H388 0.950 . S
C417 C416 1.397 . S
C417 C418 1.334 . S
C418 H389 0.950 . S
C418 C417 1.334 . S
C418 C419 1.287 . S
C419 C418 1.287 . S
C419 C420 1.524 . S
C419 H422 0.999 . S
C420 H390 0.950 . S
C420 C419 1.524 . S
C420 C421 1.415 . S
C421 H391 0.950 . S
C421 C416 1.363 . S
C421 C420 1.415 . S
H422 C419 0.999 . S
H423 C404 0.913 . S
H424 C442 0.951 . S
H425 C444 0.951 . S
H426 C446 0.950 . S
H427 C447 0.950 . S
H428 C449 0.950 . S
H429 C452 0.950 . S
H430 C453 0.950 . S
H431 C455 0.950 . S
H432 C456 0.950 1_455 S
H433 C457 0.951 . S
H434 C459 0.951 . S
H435 C461 0.950 . S
H436 C462 0.950 . S
H437 C464 0.950 . S
H438 C467 0.950 . S
H439 C468 0.950 . S
H440 C470 0.950 . S
H441 C471 0.950 1_655 S
C442 H424 0.951 . S
C442 C443 1.366 . S
C442 C444 1.388 . S
C443 C442 1.366 . S
C443 C447 1.385 . S
C444 H425 0.951 . S
C444 C442 1.388 . S
C444 C445 1.366 . S
C445 C444 1.366 . S
C445 C446 1.414 . S
C445 C448 1.499 . S
C446 H426 0.950 . S
C446 C445 1.414 . S
C446 C447 1.374 . S
C447 H427 0.950 . S
C447 C443 1.385 . S
C447 C446 1.374 . S
C448 C445 1.499 . S
C448 C449 1.373 . S
C448 C450 1.389 . S
C449 H428 0.950 . S
C449 C448 1.373 . S
C449 C465 1.377 1_655 S
C450 C448 1.389 . S
C450 C451 1.524 . S
C450 C464 1.377 1_655 S
C451 C450 1.524 . S
C451 C452 1.397 . S
C451 C456 1.363 . S
C452 H429 0.950 . S
C452 C451 1.397 . S
C452 C453 1.334 . S
C453 H430 0.950 . S
C453 C452 1.334 . S
C453 C454 1.287 . S
C454 C453 1.287 . S
C454 C455 1.524 . S
C454 H473 0.913 . S
C455 H431 0.950 . S
C455 C454 1.524 . S
C455 C456 1.415 . S
C456 H432 0.950 1_655 S
C456 C451 1.363 . S
C456 C455 1.415 . S
C457 H433 0.951 . S
C457 C458 1.366 . S
C457 C459 1.388 . S
C458 C457 1.366 . S
C458 C462 1.385 . S
C459 H434 0.951 . S
C459 C457 1.388 . S
C459 C460 1.366 . S
C460 C459 1.366 . S
C460 C461 1.414 . S
C460 C463 1.499 . S
C461 H435 0.950 . S
C461 C460 1.414 . S
C461 C462 1.374 . S
C462 H436 0.950 . S
C462 C458 1.385 . S
C462 C461 1.374 . S
C463 C460 1.499 . S
C463 C464 1.373 . S
C463 C465 1.389 . S
C464 H437 0.950 . S
C464 C450 1.377 1_455 S
C464 C463 1.373 . S
C465 C449 1.377 1_455 S
C465 C463 1.389 . S
C465 C466 1.524 . S
C466 C465 1.524 . S
C466 C467 1.397 . S
C466 C471 1.363 . S
C467 H438 0.950 . S
C467 C466 1.397 . S
C467 C468 1.334 . S
C468 H439 0.950 . S
C468 C467 1.334 . S
C468 C469 1.287 . S
C469 C468 1.287 . S
C469 C470 1.524 . S
C469 H472 0.999 . S
C470 H440 0.950 . S
C470 C469 1.524 . S
C470 C471 1.415 . S
C471 H441 0.950 1_455 S
C471 C466 1.363 . S
C471 C470 1.415 . S
H472 C469 0.999 . S
H473 C454 0.913 . S
H474 C492 0.951 . S
H475 C494 0.951 . S
H476 C496 0.950 . S
H477 C497 0.950 . S
H478 C499 0.950 . S
H479 C502 0.950 . S
H480 C503 0.950 . S
H481 C505 0.950 . S
H482 C506 0.950 . S
H483 C507 0.951 . S
H484 C509 0.951 . S
H485 C511 0.950 . S
H486 C512 0.950 . S
H487 C514 0.950 . S
H488 C517 0.950 . S
H489 C518 0.950 . S
H490 C520 0.950 . S
H491 C521 0.950 . S
C492 H474 0.951 . S
C492 C493 1.366 . S
C492 C494 1.388 . S
C493 C492 1.366 . S
C493 C497 1.385 . S
C494 H475 0.951 . S
C494 C492 1.388 . S
C494 C495 1.366 . S
C495 C494 1.366 . S
C495 C496 1.414 . S
C495 C498 1.499 . S
C496 H476 0.950 . S
C496 C495 1.414 . S
C496 C497 1.374 . S
C497 H477 0.950 . S
C497 C493 1.385 . S
C497 C496 1.374 . S
C498 C495 1.499 . S
C498 C499 1.373 . S
C498 C500 1.389 . S
C499 H478 0.950 . S
C499 C498 1.373 . S
C499 C515 1.377 1_545 S
C500 C498 1.389 . S
C500 C501 1.524 . S
C500 C514 1.377 1_545 S
C501 C500 1.524 . S
C501 C502 1.397 . S
C501 C506 1.363 . S
C502 H479 0.950 . S
C502 C501 1.397 . S
C502 C503 1.334 . S
C503 H480 0.950 . S
C503 C502 1.334 . S
C503 C504 1.287 . S
C504 C503 1.287 . S
C504 C505 1.524 . S
C504 H523 0.913 . S
C505 H481 0.950 . S
C505 C504 1.524 . S
C505 C506 1.415 . S
C506 H482 0.950 . S
C506 C501 1.363 . S
C506 C505 1.415 . S
C507 H483 0.951 . S
C507 C508 1.366 . S
C507 C509 1.388 . S
C508 C507 1.366 . S
C508 C512 1.385 . S
C509 H484 0.951 . S
C509 C507 1.388 . S
C509 C510 1.366 . S
C510 C509 1.366 . S
C510 C511 1.414 . S
C510 C513 1.499 . S
C511 H485 0.950 . S
C511 C510 1.414 . S
C511 C512 1.374 . S
C512 H486 0.950 . S
C512 C508 1.385 . S
C512 C511 1.374 . S
C513 C510 1.499 . S
C513 C514 1.373 . S
C513 C515 1.389 . S
C514 H487 0.950 . S
C514 C500 1.377 1_565 S
C514 C513 1.373 . S
C515 C499 1.377 1_565 S
C515 C513 1.389 . S
C515 C516 1.524 . S
C516 C515 1.524 . S
C516 C517 1.397 . S
C516 C521 1.363 . S
C517 H488 0.950 . S
C517 C516 1.397 . S
C517 C518 1.334 . S
C518 H489 0.950 . S
C518 C517 1.334 . S
C518 C519 1.287 . S
C519 C518 1.287 . S
C519 C520 1.524 . S
C519 H522 0.999 . S
C520 H490 0.950 . S
C520 C519 1.524 . S
C520 C521 1.415 . S
C521 H491 0.950 . S
C521 C516 1.363 . S
C521 C520 1.415 . S
H522 C519 0.999 . S
H523 C504 0.913 . S
H524 C542 0.951 . S
H525 C544 0.951 . S
H526 C546 0.950 . S
H527 C547 0.950 . S
H528 C549 0.950 . S
H529 C552 0.950 . S
H530 C553 0.950 . S
H531 C555 0.950 . S
H532 C556 0.950 1_455 S
H533 C557 0.951 . S
H534 C559 0.951 . S
H535 C561 0.950 . S
H536 C562 0.950 . S
H537 C564 0.950 . S
H538 C567 0.950 . S
H539 C568 0.950 . S
H540 C570 0.950 . S
H541 C571 0.950 1_655 S
C542 H524 0.951 . S
C542 C543 1.366 . S
C542 C544 1.388 . S
C543 C542 1.366 . S
C543 C547 1.385 . S
C544 H525 0.951 . S
C544 C542 1.388 . S
C544 C545 1.366 . S
C545 C544 1.366 . S
C545 C546 1.414 . S
C545 C548 1.499 . S
C546 H526 0.950 . S
C546 C545 1.414 . S
C546 C547 1.374 . S
C547 H527 0.950 . S
C547 C543 1.385 . S
C547 C546 1.374 . S
C548 C545 1.499 . S
C548 C549 1.373 . S
C548 C550 1.389 . S
C549 H528 0.950 . S
C549 C548 1.373 . S
C549 C565 1.377 1_655 S
C550 C548 1.389 . S
C550 C551 1.524 . S
C550 C564 1.377 1_655 S
C551 C550 1.524 . S
C551 C552 1.397 . S
C551 C556 1.363 . S
C552 H529 0.950 . S
C552 C551 1.397 . S
C552 C553 1.334 . S
C553 H530 0.950 . S
C553 C552 1.334 . S
C553 C554 1.287 . S
C554 C553 1.287 . S
C554 C555 1.524 . S
C554 H573 0.913 . S
C555 H531 0.950 . S
C555 C554 1.524 . S
C555 C556 1.415 . S
C556 H532 0.950 1_655 S
C556 C551 1.363 . S
C556 C555 1.415 . S
C557 H533 0.951 . S
C557 C558 1.366 . S
C557 C559 1.388 . S
C558 C557 1.366 . S
C558 C562 1.385 . S
C559 H534 0.951 . S
C559 C557 1.388 . S
C559 C560 1.366 . S
C560 C559 1.366 . S
C560 C561 1.414 . S
C560 C563 1.499 . S
C561 H535 0.950 . S
C561 C560 1.414 . S
C561 C562 1.374 . S
C562 H536 0.950 . S
C562 C558 1.385 . S
C562 C561 1.374 . S
C563 C560 1.499 . S
C563 C564 1.373 . S
C563 C565 1.389 . S
C564 H537 0.950 . S
C564 C550 1.377 1_455 S
C564 C563 1.373 . S
C565 C549 1.377 1_455 S
C565 C563 1.389 . S
C565 C566 1.524 . S
C566 C565 1.524 . S
C566 C567 1.397 . S
C566 C571 1.363 . S
C567 H538 0.950 . S
C567 C566 1.397 . S
C567 C568 1.334 . S
C568 H539 0.950 . S
C568 C567 1.334 . S
C568 C569 1.287 . S
C569 C568 1.287 . S
C569 C570 1.524 . S
C569 H572 0.999 . S
C570 H540 0.950 . S
C570 C569 1.524 . S
C570 C571 1.415 . S
C571 H541 0.950 1_455 S
C571 C566 1.363 . S
C571 C570 1.415 . S
H572 C569 0.999 . S
H573 C554 0.913 . S
H574 C592 0.951 . S
H575 C594 0.951 . S
H576 C596 0.950 . S
H577 C597 0.950 . S
H578 C599 0.950 . S
H579 C602 0.950 . S
H580 C603 0.950 . S
H581 C605 0.950 . S
H582 C606 0.950 . S
H583 C607 0.951 . S
H584 C609 0.951 . S
H585 C611 0.950 . S
H586 C612 0.950 . S
H587 C614 0.950 . S
H588 C617 0.950 . S
H589 C618 0.950 . S
H590 C620 0.950 . S
H591 C621 0.950 . S
C592 H574 0.951 . S
C592 C593 1.366 . S
C592 C594 1.388 . S
C593 C592 1.366 . S
C593 C597 1.385 . S
C594 H575 0.951 . S
C594 C592 1.388 . S
C594 C595 1.366 . S
C595 C594 1.366 . S
C595 C596 1.414 . S
C595 C598 1.499 . S
C596 H576 0.950 . S
C596 C595 1.414 . S
C596 C597 1.374 . S
C597 H577 0.950 . S
C597 C593 1.385 . S
C597 C596 1.374 . S
C598 C595 1.499 . S
C598 C599 1.373 . S
C598 C600 1.389 . S
C599 H578 0.950 . S
C599 C598 1.373 . S
C599 C615 1.377 1_545 S
C600 C598 1.389 . S
C600 C601 1.524 . S
C600 C614 1.377 1_545 S
C601 C600 1.524 . S
C601 C602 1.397 . S
C601 C606 1.363 . S
C602 H579 0.950 . S
C602 C601 1.397 . S
C602 C603 1.334 . S
C603 H580 0.950 . S
C603 C602 1.334 . S
C603 C604 1.287 . S
C604 C603 1.287 . S
C604 C605 1.524 . S
C604 H623 0.913 . S
C605 H581 0.950 . S
C605 C604 1.524 . S
C605 C606 1.415 . S
C606 H582 0.950 . S
C606 C601 1.363 . S
C606 C605 1.415 . S
C607 H583 0.951 . S
C607 C608 1.366 . S
C607 C609 1.388 . S
C608 C607 1.366 . S
C608 C612 1.385 . S
C609 H584 0.951 . S
C609 C607 1.388 . S
C609 C610 1.366 . S
C610 C609 1.366 . S
C610 C611 1.414 . S
C610 C613 1.499 . S
C611 H585 0.950 . S
C611 C610 1.414 . S
C611 C612 1.374 . S
C612 H586 0.950 . S
C612 C608 1.385 . S
C612 C611 1.374 . S
C613 C610 1.499 . S
C613 C614 1.373 . S
C613 C615 1.389 . S
C614 H587 0.950 . S
C614 C600 1.377 1_565 S
C614 C613 1.373 . S
C615 C599 1.377 1_565 S
C615 C613 1.389 . S
C615 C616 1.524 . S
C616 C615 1.524 . S
C616 C617 1.397 . S
C616 C621 1.363 . S
C617 H588 0.950 . S
C617 C616 1.397 . S
C617 C618 1.334 . S
C618 H589 0.950 . S
C618 C617 1.334 . S
C618 C619 1.287 . S
C619 C618 1.287 . S
C619 C620 1.524 . S
C619 H622 0.999 . S
C620 H590 0.950 . S
C620 C619 1.524 . S
C620 C621 1.415 . S
C621 H591 0.950 . S
C621 C616 1.363 . S
C621 C620 1.415 . S
H622 C619 0.999 . S
H623 C604 0.913 . S
H624 C642 0.951 . S
H625 C644 0.951 . S
H626 C646 0.950 . S
H627 C647 0.950 . S
H628 C649 0.950 . S
H629 C652 0.950 . S
H630 C653 0.950 . S
H631 C655 0.950 . S
H632 C656 0.950 . S
H633 C657 0.951 . S
H634 C659 0.951 . S
H635 C661 0.950 . S
H636 C662 0.950 . S
H637 C664 0.950 . S
H638 C667 0.950 . S
H639 C668 0.950 . S
H640 C670 0.950 . S
H641 C671 0.950 . S
C642 H624 0.951 . S
C642 C643 1.366 . S
C642 C644 1.388 . S
C643 C642 1.366 . S
C643 C647 1.385 . S
C644 H625 0.951 . S
C644 C642 1.388 . S
C644 C645 1.366 . S
C645 C644 1.366 . S
C645 C646 1.414 . S
C645 C648 1.499 . S
C646 H626 0.950 . S
C646 C645 1.414 . S
C646 C647 1.374 . S
C647 H627 0.950 . S
C647 C643 1.385 . S
C647 C646 1.374 . S
C648 C645 1.499 . S
C648 C649 1.373 . S
C648 C650 1.389 . S
C649 H628 0.950 . S
C649 C648 1.373 . S
C649 C665 1.377 . S
C650 C648 1.389 . S
C650 C651 1.524 . S
C650 C664 1.377 . S
C651 C650 1.524 . S
C651 C652 1.397 . S
C651 C656 1.363 . S
C652 H629 0.950 . S
C652 C651 1.397 . S
C652 C653 1.334 . S
C653 H630 0.950 . S
C653 C652 1.334 . S
C653 C654 1.287 . S
C654 C653 1.287 . S
C654 C655 1.524 . S
C654 H673 0.913 . S
C655 H631 0.950 . S
C655 C654 1.524 . S
C655 C656 1.415 . S
C656 H632 0.950 . S
C656 C651 1.363 . S
C656 C655 1.415 . S
C657 H633 0.951 . S
C657 C658 1.366 . S
C657 C659 1.388 . S
C658 C657 1.366 . S
C658 C662 1.385 . S
C659 H634 0.951 . S
C659 C657 1.388 . S
C659 C660 1.366 . S
C660 C659 1.366 . S
C660 C661 1.414 . S
C660 C663 1.499 . S
C661 H635 0.950 . S
C661 C660 1.414 . S
C661 C662 1.374 . S
C662 H636 0.950 . S
C662 C658 1.385 . S
C662 C661 1.374 . S
C663 C660 1.499 . S
C663 C664 1.373 . S
C663 C665 1.389 . S
C664 H637 0.950 . S
C664 C650 1.377 . S
C664 C663 1.373 . S
C665 C649 1.377 . S
C665 C663 1.389 . S
C665 C666 1.524 . S
C666 C665 1.524 . S
C666 C667 1.397 . S
C666 C671 1.363 . S
C667 H638 0.950 . S
C667 C666 1.397 . S
C667 C668 1.334 . S
C668 H639 0.950 . S
C668 C667 1.334 . S
C668 C669 1.287 . S
C669 C668 1.287 . S
C669 C670 1.524 . S
C669 H672 0.999 . S
C670 H640 0.950 . S
C670 C669 1.524 . S
C670 C671 1.415 . S
C671 H641 0.950 . S
C671 C666 1.363 . S
C671 C670 1.415 . S
H672 C669 0.999 . S
H673 C654 0.913 . S
H674 C692 0.951 . S
H675 C694 0.951 . S
H676 C696 0.950 . S
H677 C697 0.950 . S
H678 C699 0.950 . S
H679 C702 0.950 . S
H680 C703 0.950 . S
H681 C705 0.950 . S
H682 C706 0.950 . S
H683 C707 0.951 . S
H684 C709 0.951 . S
H685 C711 0.950 . S
H686 C712 0.950 . S
H687 C714 0.950 . S
H688 C717 0.950 . S
H689 C718 0.950 . S
H690 C720 0.950 . S
H691 C721 0.950 . S
C692 H674 0.951 . S
C692 C693 1.366 . S
C692 C694 1.388 . S
C693 C692 1.366 . S
C693 C697 1.385 . S
C694 H675 0.951 . S
C694 C692 1.388 . S
C694 C695 1.366 . S
C695 C694 1.366 . S
C695 C696 1.414 . S
C695 C698 1.499 . S
C696 H676 0.950 . S
C696 C695 1.414 . S
C696 C697 1.374 . S
C697 H677 0.950 . S
C697 C693 1.385 . S
C697 C696 1.374 . S
C698 C695 1.499 . S
C698 C699 1.373 . S
C698 C700 1.389 . S
C699 H678 0.950 . S
C699 C698 1.373 . S
C699 C715 1.377 . S
C700 C698 1.389 . S
C700 C701 1.524 . S
C700 C714 1.377 . S
C701 C700 1.524 . S
C701 C702 1.397 . S
C701 C706 1.363 . S
C702 H679 0.950 . S
C702 C701 1.397 . S
C702 C703 1.334 . S
C703 H680 0.950 . S
C703 C702 1.334 . S
C703 C704 1.287 . S
C704 C703 1.287 . S
C704 C705 1.524 . S
C704 H723 0.913 . S
C705 H681 0.950 . S
C705 C704 1.524 . S
C705 C706 1.415 . S
C706 H682 0.950 . S
C706 C701 1.363 . S
C706 C705 1.415 . S
C707 H683 0.951 . S
C707 C708 1.366 . S
C707 C709 1.388 . S
C708 C707 1.366 . S
C708 C712 1.385 . S
C709 H684 0.951 . S
C709 C707 1.388 . S
C709 C710 1.366 . S
C710 C709 1.366 . S
C710 C711 1.414 . S
C710 C713 1.499 . S
C711 H685 0.950 . S
C711 C710 1.414 . S
C711 C712 1.374 . S
C712 H686 0.950 . S
C712 C708 1.385 . S
C712 C711 1.374 . S
C713 C710 1.499 . S
C713 C714 1.373 . S
C713 C715 1.389 . S
C714 H687 0.950 . S
C714 C700 1.377 . S
C714 C713 1.373 . S
C715 C699 1.377 . S
C715 C713 1.389 . S
C715 C716 1.524 . S
C716 C715 1.524 . S
C716 C717 1.397 . S
C716 C721 1.363 . S
C717 H688 0.950 . S
C717 C716 1.397 . S
C717 C718 1.334 . S
C718 H689 0.950 . S
C718 C717 1.334 . S
C718 C719 1.287 . S
C719 C718 1.287 . S
C719 C720 1.524 . S
C719 H722 0.999 . S
C720 H690 0.950 . S
C720 C719 1.524 . S
C720 C721 1.415 . S
C721 H691 0.950 . S
C721 C716 1.363 . S
C721 C720 1.415 . S
H722 C719 0.999 . S
H723 C704 0.913 . S
H724 C742 0.951 . S
H725 C744 0.951 . S
H726 C746 0.950 . S
H727 C747 0.950 . S
H728 C749 0.950 . S
H729 C752 0.950 . S
H730 C753 0.950 . S
H731 C755 0.950 . S
H732 C756 0.950 . S
H733 C757 0.951 . S
H734 C759 0.951 . S
H735 C761 0.950 . S
H736 C762 0.950 . S
H737 C764 0.950 . S
H738 C767 0.950 . S
H739 C768 0.950 . S
H740 C770 0.950 . S
H741 C771 0.950 . S
C742 H724 0.951 . S
C742 C743 1.366 . S
C742 C744 1.388 . S
C743 C742 1.366 . S
C743 C747 1.385 . S
C744 H725 0.951 . S
C744 C742 1.388 . S
C744 C745 1.366 . S
C745 C744 1.366 . S
C745 C746 1.414 . S
C745 C748 1.499 . S
C746 H726 0.950 . S
C746 C745 1.414 . S
C746 C747 1.374 . S
C747 H727 0.950 . S
C747 C743 1.385 . S
C747 C746 1.374 . S
C748 C745 1.499 . S
C748 C749 1.373 . S
C748 C750 1.389 . S
C749 H728 0.950 . S
C749 C748 1.373 . S
C749 C765 1.377 . S
C750 C748 1.389 . S
C750 C751 1.524 . S
C750 C764 1.377 . S
C751 C750 1.524 . S
C751 C752 1.397 . S
C751 C756 1.363 . S
C752 H729 0.950 . S
C752 C751 1.397 . S
C752 C753 1.334 . S
C753 H730 0.950 . S
C753 C752 1.334 . S
C753 C754 1.287 . S
C754 C753 1.287 . S
C754 C755 1.524 . S
C754 H773 0.913 . S
C755 H731 0.950 . S
C755 C754 1.524 . S
C755 C756 1.415 . S
C756 H732 0.950 . S
C756 C751 1.363 . S
C756 C755 1.415 . S
C757 H733 0.951 . S
C757 C758 1.366 . S
C757 C759 1.388 . S
C758 C757 1.366 . S
C758 C762 1.385 . S
C759 H734 0.951 . S
C759 C757 1.388 . S
C759 C760 1.366 . S
C760 C759 1.366 . S
C760 C761 1.414 . S
C760 C763 1.499 . S
C761 H735 0.950 . S
C761 C760 1.414 . S
C761 C762 1.374 . S
C762 H736 0.950 . S
C762 C758 1.385 . S
C762 C761 1.374 . S
C763 C760 1.499 . S
C763 C764 1.373 . S
C763 C765 1.389 . S
C764 H737 0.950 . S
C764 C750 1.377 . S
C764 C763 1.373 . S
C765 C749 1.377 . S
C765 C763 1.389 . S
C765 C766 1.524 . S
C766 C765 1.524 . S
C766 C767 1.397 . S
C766 C771 1.363 . S
C767 H738 0.950 . S
C767 C766 1.397 . S
C767 C768 1.334 . S
C768 H739 0.950 . S
C768 C767 1.334 . S
C768 C769 1.287 . S
C769 C768 1.287 . S
C769 C770 1.524 . S
C769 H772 0.999 . S
C770 H740 0.950 . S
C770 C769 1.524 . S
C770 C771 1.415 . S
C771 H741 0.950 . S
C771 C766 1.363 . S
C771 C770 1.415 . S
H772 C769 0.999 . S
H773 C754 0.913 . S
H774 C792 0.951 . S
H775 C794 0.951 . S
H776 C796 0.950 . S
H777 C797 0.950 . S
H778 C799 0.950 . S
H779 C802 0.950 . S
H780 C803 0.950 . S
H781 C805 0.950 . S
H782 C806 0.950 . S
H783 C807 0.951 . S
H784 C809 0.951 . S
H785 C811 0.950 . S
H786 C812 0.950 . S
H787 C814 0.950 . S
H788 C817 0.950 . S
H789 C818 0.950 . S
H790 C820 0.950 . S
H791 C821 0.950 . S
C792 H774 0.951 . S
C792 C793 1.366 . S
C792 C794 1.388 . S
C793 C792 1.366 . S
C793 C797 1.385 . S
C794 H775 0.951 . S
C794 C792 1.388 . S
C794 C795 1.366 . S
C795 C794 1.366 . S
C795 C796 1.414 . S
C795 C798 1.499 . S
C796 H776 0.950 . S
C796 C795 1.414 . S
C796 C797 1.374 . S
C797 H777 0.950 . S
C797 C793 1.385 . S
C797 C796 1.374 . S
C798 C795 1.499 . S
C798 C799 1.373 . S
C798 C800 1.389 . S
C799 H778 0.950 . S
C799 C798 1.373 . S
C799 C815 1.377 . S
C800 C798 1.389 . S
C800 C801 1.524 . S
C800 C814 1.377 . S
C801 C800 1.524 . S
C801 C802 1.397 . S
C801 C806 1.363 . S
C802 H779 0.950 . S
C802 C801 1.397 . S
C802 C803 1.334 . S
C803 H780 0.950 . S
C803 C802 1.334 . S
C803 C804 1.287 . S
C804 C803 1.287 . S
C804 C805 1.524 . S
C804 H823 0.913 . S
C805 H781 0.950 . S
C805 C804 1.524 . S
C805 C806 1.415 . S
C806 H782 0.950 . S
C806 C801 1.363 . S
C806 C805 1.415 . S
C807 H783 0.951 . S
C807 C808 1.366 . S
C807 C809 1.388 . S
C808 C807 1.366 . S
C808 C812 1.385 . S
C809 H784 0.951 . S
C809 C807 1.388 . S
C809 C810 1.366 . S
C810 C809 1.366 . S
C810 C811 1.414 . S
C810 C813 1.499 . S
C811 H785 0.950 . S
C811 C810 1.414 . S
C811 C812 1.374 . S
C812 H786 0.950 . S
C812 C808 1.385 . S
C812 C811 1.374 . S
C813 C810 1.499 . S
C813 C814 1.373 . S
C813 C815 1.389 . S
C814 H787 0.950 . S
C814 C800 1.377 . S
C814 C813 1.373 . S
C815 C799 1.377 . S
C815 C813 1.389 . S
C815 C816 1.524 . S
C816 C815 1.524 . S
C816 C817 1.397 . S
C816 C821 1.363 . S
C817 H788 0.950 . S
C817 C816 1.397 . S
C817 C818 1.334 . S
C818 H789 0.950 . S
C818 C817 1.334 . S
C818 C819 1.287 . S
C819 C818 1.287 . S
C819 C820 1.524 . S
C819 H822 0.999 . S
C820 H790 0.950 . S
C820 C819 1.524 . S
C820 C821 1.415 . S
C821 H791 0.950 . S
C821 C816 1.363 . S
C821 C820 1.415 . S
H822 C819 0.999 . S
H823 C804 0.913 . S
H824 C842 0.951 . S
H825 C844 0.951 . S
H826 C846 0.950 . S
H827 C847 0.950 . S
H828 C849 0.950 . S
H829 C852 0.950 . S
H830 C853 0.950 . S
H831 C855 0.950 . S
H832 C856 0.950 . S
H833 C857 0.951 . S
H834 C859 0.951 . S
H835 C861 0.950 . S
H836 C862 0.950 . S
H837 C864 0.950 . S
H838 C867 0.950 . S
H839 C868 0.950 . S
H840 C870 0.950 . S
H841 C871 0.950 . S
C842 H824 0.951 . S
C842 C843 1.366 . S
C842 C844 1.388 . S
C843 C842 1.366 . S
C843 C847 1.385 . S
C844 H825 0.951 . S
C844 C842 1.388 . S
C844 C845 1.366 . S
C845 C844 1.366 . S
C845 C846 1.414 . S
C845 C848 1.499 . S
C846 H826 0.950 . S
C846 C845 1.414 . S
C846 C847 1.374 . S
C847 H827 0.950 . S
C847 C843 1.385 . S
C847 C846 1.374 . S
C848 C845 1.499 . S
C848 C849 1.373 . S
C848 C850 1.389 . S
C849 H828 0.950 . S
C849 C848 1.373 . S
C849 C865 1.377 . S
C850 C848 1.389 . S
C850 C851 1.524 . S
C850 C864 1.377 . S
C851 C850 1.524 . S
C851 C852 1.397 . S
C851 C856 1.363 . S
C852 H829 0.950 . S
C852 C851 1.397 . S
C852 C853 1.334 . S
C853 H830 0.950 . S
C853 C852 1.334 . S
C853 C854 1.287 . S
C854 C853 1.287 . S
C854 C855 1.524 . S
C854 H873 0.913 . S
C855 H831 0.950 . S
C855 C854 1.524 . S
C855 C856 1.415 . S
C856 H832 0.950 . S
C856 C851 1.363 . S
C856 C855 1.415 . S
C857 H833 0.951 . S
C857 C858 1.366 . S
C857 C859 1.388 . S
C858 C857 1.366 . S
C858 C862 1.385 . S
C859 H834 0.951 . S
C859 C857 1.388 . S
C859 C860 1.366 . S
C860 C859 1.366 . S
C860 C861 1.414 . S
C860 C863 1.499 . S
C861 H835 0.950 . S
C861 C860 1.414 . S
C861 C862 1.374 . S
C862 H836 0.950 . S
C862 C858 1.385 . S
C862 C861 1.374 . S
C863 C860 1.499 . S
C863 C864 1.373 . S
C863 C865 1.389 . S
C864 H837 0.950 . S
C864 C850 1.377 . S
C864 C863 1.373 . S
C865 C849 1.377 . S
C865 C863 1.389 . S
C865 C866 1.524 . S
C866 C865 1.524 . S
C866 C867 1.397 . S
C866 C871 1.363 . S
C867 H838 0.950 . S
C867 C866 1.397 . S
C867 C868 1.334 . S
C868 H839 0.950 . S
C868 C867 1.334 . S
C868 C869 1.287 . S
C869 C868 1.287 . S
C869 C870 1.524 . S
C869 H872 0.999 . S
C870 H840 0.950 . S
C870 C869 1.524 . S
C870 C871 1.415 . S
C871 H841 0.950 . S
C871 C866 1.363 . S
C871 C870 1.415 . S
H872 C869 0.999 . S
H873 C854 0.913 . S
H874 C892 0.951 . S
H875 C894 0.951 . S
H876 C896 0.950 . S
H877 C897 0.950 . S
H878 C899 0.950 . S
H879 C902 0.950 . S
H880 C903 0.950 . S
H881 C905 0.950 . S
H882 C906 0.950 . S
H883 C907 0.951 . S
H884 C909 0.951 . S
H885 C911 0.950 . S
H886 C912 0.950 . S
H887 C914 0.950 . S
H888 C917 0.950 . S
H889 C918 0.950 . S
H890 C920 0.950 . S
H891 C921 0.950 . S
C892 H874 0.951 . S
C892 C893 1.366 . S
C892 C894 1.388 . S
C893 C892 1.366 . S
C893 C897 1.385 . S
C894 H875 0.951 . S
C894 C892 1.388 . S
C894 C895 1.366 . S
C895 C894 1.366 . S
C895 C896 1.414 . S
C895 C898 1.499 . S
C896 H876 0.950 . S
C896 C895 1.414 . S
C896 C897 1.374 . S
C897 H877 0.950 . S
C897 C893 1.385 . S
C897 C896 1.374 . S
C898 C895 1.499 . S
C898 C899 1.373 . S
C898 C900 1.389 . S
C899 H878 0.950 . S
C899 C898 1.373 . S
C899 C915 1.377 . S
C900 C898 1.389 . S
C900 C901 1.524 . S
C900 C914 1.377 . S
C901 C900 1.524 . S
C901 C902 1.397 . S
C901 C906 1.363 . S
C902 H879 0.950 . S
C902 C901 1.397 . S
C902 C903 1.334 . S
C903 H880 0.950 . S
C903 C902 1.334 . S
C903 C904 1.287 . S
C904 C903 1.287 . S
C904 C905 1.524 . S
C904 H923 0.913 . S
C905 H881 0.950 . S
C905 C904 1.524 . S
C905 C906 1.415 . S
C906 H882 0.950 . S
C906 C901 1.363 . S
C906 C905 1.415 . S
C907 H883 0.951 . S
C907 C908 1.366 . S
C907 C909 1.388 . S
C908 C907 1.366 . S
C908 C912 1.385 . S
C909 H884 0.951 . S
C909 C907 1.388 . S
C909 C910 1.366 . S
C910 C909 1.366 . S
C910 C911 1.414 . S
C910 C913 1.499 . S
C911 H885 0.950 . S
C911 C910 1.414 . S
C911 C912 1.374 . S
C912 H886 0.950 . S
C912 C908 1.385 . S
C912 C911 1.374 . S
C913 C910 1.499 . S
C913 C914 1.373 . S
C913 C915 1.389 . S
C914 H887 0.950 . S
C914 C900 1.377 . S
C914 C913 1.373 . S
C915 C899 1.377 . S
C915 C913 1.389 . S
C915 C916 1.524 . S
C916 C915 1.524 . S
C916 C917 1.397 . S
C916 C921 1.363 . S
C917 H888 0.950 . S
C917 C916 1.397 . S
C917 C918 1.334 . S
C918 H889 0.950 . S
C918 C917 1.334 . S
C918 C919 1.287 . S
C919 C918 1.287 . S
C919 C920 1.524 . S
C919 H922 0.999 . S
C920 H890 0.950 . S
C920 C919 1.524 . S
C920 C921 1.415 . S
C921 H891 0.950 . S
C921 C916 1.363 . S
C921 C920 1.415 . S
H922 C919 0.999 . S
H923 C904 0.913 . S
H924 C942 0.951 . S
H925 C944 0.951 . S
H926 C946 0.950 . S
H927 C947 0.950 . S
H928 C949 0.950 . S
H929 C952 0.950 . S
H930 C953 0.950 . S
H931 C955 0.950 . S
H932 C956 0.950 . S
H933 C957 0.951 . S
H934 C959 0.951 . S
H935 C961 0.950 . S
H936 C962 0.950 . S
H937 C964 0.950 . S
H938 C967 0.950 . S
H939 C968 0.950 . S
H940 C970 0.950 . S
H941 C971 0.950 . S
C942 H924 0.951 . S
C942 C943 1.366 . S
C942 C944 1.388 . S
C943 C942 1.366 . S
C943 C947 1.385 . S
C944 H925 0.951 . S
C944 C942 1.388 . S
C944 C945 1.366 . S
C945 C944 1.366 . S
C945 C946 1.414 . S
C945 C948 1.499 . S
C946 H926 0.950 . S
C946 C945 1.414 . S
C946 C947 1.374 . S
C947 H927 0.950 . S
C947 C943 1.385 . S
C947 C946 1.374 . S
C948 C945 1.499 . S
C948 C949 1.373 . S
C948 C950 1.389 . S
C949 H928 0.950 . S
C949 C948 1.373 . S
C949 C965 1.377 . S
C950 C948 1.389 . S
C950 C951 1.524 . S
C950 C964 1.377 . S
C951 C950 1.524 . S
C951 C952 1.397 . S
C951 C956 1.363 . S
C952 H929 0.950 . S
C952 C951 1.397 . S
C952 C953 1.334 . S
C953 H930 0.950 . S
C953 C952 1.334 . S
C953 C954 1.287 . S
C954 C953 1.287 . S
C954 C955 1.524 . S
C954 H973 0.913 . S
C955 H931 0.950 . S
C955 C954 1.524 . S
C955 C956 1.415 . S
C956 H932 0.950 . S
C956 C951 1.363 . S
C956 C955 1.415 . S
C957 H933 0.951 . S
C957 C958 1.366 . S
C957 C959 1.388 . S
C958 C957 1.366 . S
C958 C962 1.385 . S
C959 H934 0.951 . S
C959 C957 1.388 . S
C959 C960 1.366 . S
C960 C959 1.366 . S
C960 C961 1.414 . S
C960 C963 1.499 . S
C961 H935 0.950 . S
C961 C960 1.414 . S
C961 C962 1.374 . S
C962 H936 0.950 . S
C962 C958 1.385 . S
C962 C961 1.374 . S
C963 C960 1.499 . S
C963 C964 1.373 . S
C963 C965 1.389 . S
C964 H937 0.950 . S
C964 C950 1.377 . S
C964 C963 1.373 . S
C965 C949 1.377 . S
C965 C963 1.389 . S
C965 C966 1.524 . S
C966 C965 1.524 . S
C966 C967 1.397 . S
C966 C971 1.363 . S
C967 H938 0.950 . S
C967 C966 1.397 . S
C967 C968 1.334 . S
C968 H939 0.950 . S
C968 C967 1.334 . S
C968 C969 1.287 . S
C969 C968 1.287 . S
C969 C970 1.524 . S
C969 H972 0.999 . S
C970 H940 0.950 . S
C970 C969 1.524 . S
C970 C971 1.415 . S
C971 H941 0.950 . S
C971 C966 1.363 . S
C971 C970 1.415 . S
H972 C969 0.999 . S
H973 C954 0.913 . S
H974 C992 0.951 . S
H975 C994 0.951 . S
H976 C996 0.950 . S
H977 C997 0.950 . S
H978 C999 0.950 . S
H979 C1002 0.950 . S
H980 C1003 0.950 . S
H981 C1005 0.950 . S
H982 C1006 0.950 . S
H983 C1007 0.951 . S
H984 C1009 0.951 . S
H985 C1011 0.950 . S
H986 C1012 0.950 . S
H987 C1014 0.950 . S
H988 C1017 0.950 . S
H989 C1018 0.950 . S
H990 C1020 0.950 . S
H991 C1021 0.950 . S
C992 H974 0.951 . S
C992 C993 1.366 . S
C992 C994 1.388 . S
C993 C992 1.366 . S
C993 C997 1.385 . S
C994 H975 0.951 . S
C994 C992 1.388 . S
C994 C995 1.366 . S
C995 C994 1.366 . S
C995 C996 1.414 . S
C995 C998 1.499 . S
C996 H976 0.950 . S
C996 C995 1.414 . S
C996 C997 1.374 . S
C997 H977 0.950 . S
C997 C993 1.385 . S
C997 C996 1.374 . S
C998 C995 1.499 . S
C998 C999 1.373 . S
C998 C1000 1.389 . S
C999 H978 0.950 . S
C999 C998 1.373 . S
C999 C1015 1.377 . S
C1000 C998 1.389 . S
C1000 C1001 1.524 . S
C1000 C1014 1.377 . S
C1001 C1000 1.524 . S
C1001 C1002 1.397 . S
C1001 C1006 1.363 . S
C1002 H979 0.950 . S
C1002 C1001 1.397 . S
C1002 C1003 1.334 . S
C1003 H980 0.950 . S
C1003 C1002 1.334 . S
C1003 C1004 1.287 . S
C1004 C1003 1.287 . S
C1004 C1005 1.524 . S
C1004 H1023 0.913 . S
C1005 H981 0.950 . S
C1005 C1004 1.524 . S
C1005 C1006 1.415 . S
C1006 H982 0.950 . S
C1006 C1001 1.363 . S
C1006 C1005 1.415 . S
C1007 H983 0.951 . S
C1007 C1008 1.366 . S
C1007 C1009 1.388 . S
C1008 C1007 1.366 . S
C1008 C1012 1.385 . S
C1009 H984 0.951 . S
C1009 C1007 1.388 . S
C1009 C1010 1.366 . S
C1010 C1009 1.366 . S
C1010 C1011 1.414 . S
C1010 C1013 1.499 . S
C1011 H985 0.950 . S
C1011 C1010 1.414 . S
C1011 C1012 1.374 . S
C1012 H986 0.950 . S
C1012 C1008 1.385 . S
C1012 C1011 1.374 . S
C1013 C1010 1.499 . S
C1013 C1014 1.373 . S
C1013 C1015 1.389 . S
C1014 H987 0.950 . S
C1014 C1000 1.377 . S
C1014 C1013 1.373 . S
C1015 C999 1.377 . S
C1015 C1013 1.389 . S
C1015 C1016 1.524 . S
C1016 C1015 1.524 . S
C1016 C1017 1.397 . S
C1016 C1021 1.363 . S
C1017 H988 0.950 . S
C1017 C1016 1.397 . S
C1017 C1018 1.334 . S
C1018 H989 0.950 . S
C1018 C1017 1.334 . S
C1018 C1019 1.287 . S
C1019 C1018 1.287 . S
C1019 C1020 1.524 . S
C1019 H1022 0.999 . S
C1020 H990 0.950 . S
C1020 C1019 1.524 . S
C1020 C1021 1.415 . S
C1021 H991 0.950 . S
C1021 C1016 1.363 . S
C1021 C1020 1.415 . S
H1022 C1019 0.999 . S
H1023 C1004 0.913 . S
H1024 C1042 0.951 . S
H1025 C1044 0.951 . S
H1026 C1046 0.950 . S
H1027 C1047 0.950 . S
H1028 C1049 0.950 . S
H1029 C1052 0.950 . S
H1030 C1053 0.950 . S
H1031 C1055 0.950 . S
H1032 C1056 0.950 . S
H1033 C1057 0.951 . S
H1034 C1059 0.951 . S
H1035 C1061 0.950 . S
H1036 C1062 0.950 . S
H1037 C1064 0.950 . S
H1038 C1067 0.950 . S
H1039 C1068 0.950 . S
H1040 C1070 0.950 . S
H1041 C1071 0.950 . S
C1042 H1024 0.951 . S
C1042 C1043 1.366 . S
C1042 C1044 1.388 . S
C1043 C1042 1.366 . S
C1043 C1047 1.385 . S
C1044 H1025 0.951 . S
C1044 C1042 1.388 . S
C1044 C1045 1.366 . S
C1045 C1044 1.366 . S
C1045 C1046 1.414 . S
C1045 C1048 1.499 . S
C1046 H1026 0.950 . S
C1046 C1045 1.414 . S
C1046 C1047 1.374 . S
C1047 H1027 0.950 . S
C1047 C1043 1.385 . S
C1047 C1046 1.374 . S
C1048 C1045 1.499 . S
C1048 C1049 1.373 . S
C1048 C1050 1.389 . S
C1049 H1028 0.950 . S
C1049 C1048 1.373 . S
C1049 C1065 1.377 1_556 S
C1050 C1048 1.389 . S
C1050 C1051 1.524 . S
C1050 C1064 1.377 1_556 S
C1051 C1050 1.524 . S
C1051 C1052 1.397 . S
C1051 C1056 1.363 . S
C1052 H1029 0.950 . S
C1052 C1051 1.397 . S
C1052 C1053 1.334 . S
C1053 H1030 0.950 . S
C1053 C1052 1.334 . S
C1053 C1054 1.287 . S
C1054 C1053 1.287 . S
C1054 C1055 1.524 . S
C1054 H1073 0.913 . S
C1055 H1031 0.950 . S
C1055 C1054 1.524 . S
C1055 C1056 1.415 . S
C1056 H1032 0.950 . S
C1056 C1051 1.363 . S
C1056 C1055 1.415 . S
C1057 H1033 0.951 . S
C1057 C1058 1.366 . S
C1057 C1059 1.388 . S
C1058 C1057 1.366 . S
C1058 C1062 1.385 . S
C1059 H1034 0.951 . S
C1059 C1057 1.388 . S
C1059 C1060 1.366 . S
C1060 C1059 1.366 . S
C1060 C1061 1.414 . S
C1060 C1063 1.499 . S
C1061 H1035 0.950 . S
C1061 C1060 1.414 . S
C1061 C1062 1.374 . S
C1062 H1036 0.950 . S
C1062 C1058 1.385 . S
C1062 C1061 1.374 . S
C1063 C1060 1.499 . S
C1063 C1064 1.373 . S
C1063 C1065 1.389 . S
C1064 H1037 0.950 . S
C1064 C1050 1.377 1_554 S
C1064 C1063 1.373 . S
C1065 C1049 1.377 1_554 S
C1065 C1063 1.389 . S
C1065 C1066 1.524 . S
C1066 C1065 1.524 . S
C1066 C1067 1.397 . S
C1066 C1071 1.363 . S
C1067 H1038 0.950 . S
C1067 C1066 1.397 . S
C1067 C1068 1.334 . S
C1068 H1039 0.950 . S
C1068 C1067 1.334 . S
C1068 C1069 1.287 . S
C1069 C1068 1.287 . S
C1069 C1070 1.524 . S
C1069 H1072 0.999 . S
C1070 H1040 0.950 . S
C1070 C1069 1.524 . S
C1070 C1071 1.415 . S
C1071 H1041 0.950 . S
C1071 C1066 1.363 . S
C1071 C1070 1.415 . S
H1072 C1069 0.999 . S
H1073 C1054 0.913 . S
H1074 C1092 0.951 . S
H1075 C1094 0.951 . S
H1076 C1096 0.950 . S
H1077 C1097 0.950 . S
H1078 C1099 0.950 . S
H1079 C1102 0.950 . S
H1080 C1103 0.950 . S
H1081 C1105 0.950 . S
H1082 C1106 0.950 . S
H1083 C1107 0.951 . S
H1084 C1109 0.951 . S
H1085 C1111 0.950 . S
H1086 C1112 0.950 . S
H1087 C1114 0.950 . S
H1088 C1117 0.950 . S
H1089 C1118 0.950 . S
H1090 C1120 0.950 . S
H1091 C1121 0.950 . S
C1092 H1074 0.951 . S
C1092 C1093 1.366 . S
C1092 C1094 1.388 . S
C1093 C1092 1.366 . S
C1093 C1097 1.385 . S
C1094 H1075 0.951 . S
C1094 C1092 1.388 . S
C1094 C1095 1.366 . S
C1095 C1094 1.366 . S
C1095 C1096 1.414 . S
C1095 C1098 1.499 . S
C1096 H1076 0.950 . S
C1096 C1095 1.414 . S
C1096 C1097 1.374 . S
C1097 H1077 0.950 . S
C1097 C1093 1.385 . S
C1097 C1096 1.374 . S
C1098 C1095 1.499 . S
C1098 C1099 1.373 . S
C1098 C1100 1.389 . S
C1099 H1078 0.950 . S
C1099 C1098 1.373 . S
C1099 C1115 1.377 . S
C1100 C1098 1.389 . S
C1100 C1101 1.524 . S
C1100 C1114 1.377 . S
C1101 C1100 1.524 . S
C1101 C1102 1.397 . S
C1101 C1106 1.363 . S
C1102 H1079 0.950 . S
C1102 C1101 1.397 . S
C1102 C1103 1.334 . S
C1103 H1080 0.950 . S
C1103 C1102 1.334 . S
C1103 C1104 1.287 . S
C1104 C1103 1.287 . S
C1104 C1105 1.524 . S
C1104 H1123 0.913 . S
C1105 H1081 0.950 . S
C1105 C1104 1.524 . S
C1105 C1106 1.415 . S
C1106 H1082 0.950 . S
C1106 C1101 1.363 . S
C1106 C1105 1.415 . S
C1107 H1083 0.951 . S
C1107 C1108 1.366 . S
C1107 C1109 1.388 . S
C1108 C1107 1.366 . S
C1108 C1112 1.385 . S
C1109 H1084 0.951 . S
C1109 C1107 1.388 . S
C1109 C1110 1.366 . S
C1110 C1109 1.366 . S
C1110 C1111 1.414 . S
C1110 C1113 1.499 . S
C1111 H1085 0.950 . S
C1111 C1110 1.414 . S
C1111 C1112 1.374 . S
C1112 H1086 0.950 . S
C1112 C1108 1.385 . S
C1112 C1111 1.374 . S
C1113 C1110 1.499 . S
C1113 C1114 1.373 . S
C1113 C1115 1.389 . S
C1114 H1087 0.950 . S
C1114 C1100 1.377 . S
C1114 C1113 1.373 . S
C1115 C1099 1.377 . S
C1115 C1113 1.389 . S
C1115 C1116 1.524 . S
C1116 C1115 1.524 . S
C1116 C1117 1.397 . S
C1116 C1121 1.363 . S
C1117 H1088 0.950 . S
C1117 C1116 1.397 . S
C1117 C1118 1.334 . S
C1118 H1089 0.950 . S
C1118 C1117 1.334 . S
C1118 C1119 1.287 . S
C1119 C1118 1.287 . S
C1119 C1120 1.524 . S
C1119 H1122 0.999 . S
C1120 H1090 0.950 . S
C1120 C1119 1.524 . S
C1120 C1121 1.415 . S
C1121 H1091 0.950 . S
C1121 C1116 1.363 . S
C1121 C1120 1.415 . S
H1122 C1119 0.999 . S
H1123 C1104 0.913 . S
H1124 C1142 0.951 . S
H1125 C1144 0.951 . S
H1126 C1146 0.950 . S
H1127 C1147 0.950 . S
H1128 C1149 0.950 . S
H1129 C1152 0.950 . S
H1130 C1153 0.950 . S
H1131 C1155 0.950 . S
H1132 C1156 0.950 . S
H1133 C1157 0.951 . S
H1134 C1159 0.951 . S
H1135 C1161 0.950 . S
H1136 C1162 0.950 . S
H1137 C1164 0.950 . S
H1138 C1167 0.950 . S
H1139 C1168 0.950 . S
H1140 C1170 0.950 . S
H1141 C1171 0.950 . S
C1142 H1124 0.951 . S
C1142 C1143 1.366 . S
C1142 C1144 1.388 . S
C1143 C1142 1.366 . S
C1143 C1147 1.385 . S
C1144 H1125 0.951 . S
C1144 C1142 1.388 . S
C1144 C1145 1.366 . S
C1145 C1144 1.366 . S
C1145 C1146 1.414 . S
C1145 C1148 1.499 . S
C1146 H1126 0.950 . S
C1146 C1145 1.414 . S
C1146 C1147 1.374 . S
C1147 H1127 0.950 . S
C1147 C1143 1.385 . S
C1147 C1146 1.374 . S
C1148 C1145 1.499 . S
C1148 C1149 1.373 . S
C1148 C1150 1.389 . S
C1149 H1128 0.950 . S
C1149 C1148 1.373 . S
C1149 C1165 1.377 1_554 S
C1150 C1148 1.389 . S
C1150 C1151 1.524 . S
C1150 C1164 1.377 1_554 S
C1151 C1150 1.524 . S
C1151 C1152 1.397 . S
C1151 C1156 1.363 . S
C1152 H1129 0.950 . S
C1152 C1151 1.397 . S
C1152 C1153 1.334 . S
C1153 H1130 0.950 . S
C1153 C1152 1.334 . S
C1153 C1154 1.287 . S
C1154 C1153 1.287 . S
C1154 C1155 1.524 . S
C1154 H1173 0.913 . S
C1155 H1131 0.950 . S
C1155 C1154 1.524 . S
C1155 C1156 1.415 . S
C1156 H1132 0.950 . S
C1156 C1151 1.363 . S
C1156 C1155 1.415 . S
C1157 H1133 0.951 . S
C1157 C1158 1.366 . S
C1157 C1159 1.388 . S
C1158 C1157 1.366 . S
C1158 C1162 1.385 . S
C1159 H1134 0.951 . S
C1159 C1157 1.388 . S
C1159 C1160 1.366 . S
C1160 C1159 1.366 . S
C1160 C1161 1.414 . S
C1160 C1163 1.499 . S
C1161 H1135 0.950 . S
C1161 C1160 1.414 . S
C1161 C1162 1.374 . S
C1162 H1136 0.950 . S
C1162 C1158 1.385 . S
C1162 C1161 1.374 . S
C1163 C1160 1.499 . S
C1163 C1164 1.373 . S
C1163 C1165 1.389 . S
C1164 H1137 0.950 . S
C1164 C1150 1.377 1_556 S
C1164 C1163 1.373 . S
C1165 C1149 1.377 1_556 S
C1165 C1163 1.389 . S
C1165 C1166 1.524 . S
C1166 C1165 1.524 . S
C1166 C1167 1.397 . S
C1166 C1171 1.363 . S
C1167 H1138 0.950 . S
C1167 C1166 1.397 . S
C1167 C1168 1.334 . S
C1168 H1139 0.950 . S
C1168 C1167 1.334 . S
C1168 C1169 1.287 . S
C1169 C1168 1.287 . S
C1169 C1170 1.524 . S
C1169 H1172 0.999 . S
C1170 H1140 0.950 . S
C1170 C1169 1.524 . S
C1170 C1171 1.415 . S
C1171 H1141 0.950 . S
C1171 C1166 1.363 . S
C1171 C1170 1.415 . S
H1172 C1169 0.999 . S
H1173 C1154 0.913 . S
H1174 C1192 0.951 . S
H1175 C1194 0.951 . S
H1176 C1196 0.950 . S
H1177 C1197 0.950 . S
H1178 C1199 0.950 . S
H1179 C1202 0.950 . S
H1180 C1203 0.950 . S
H1181 C1205 0.950 . S
H1182 C1206 0.950 . S
H1183 C1207 0.951 . S
H1184 C1209 0.951 . S
H1185 C1211 0.950 . S
H1186 C1212 0.950 . S
H1187 C1214 0.950 . S
H1188 C1217 0.950 . S
H1189 C1218 0.950 . S
H1190 C1220 0.950 . S
H1191 C1221 0.950 . S
C1192 H1174 0.951 . S
C1192 C1193 1.366 . S
C1192 C1194 1.388 . S
C1193 C1192 1.366 . S
C1193 C1197 1.385 . S
C1194 H1175 0.951 . S
C1194 C1192 1.388 . S
C1194 C1195 1.366 . S
C1195 C1194 1.366 . S
C1195 C1196 1.414 . S
C1195 C1198 1.499 . S
C1196 H1176 0.950 . S
C1196 C1195 1.414 . S
C1196 C1197 1.374 . S
C1197 H1177 0.950 . S
C1197 C1193 1.385 . S
C1197 C1196 1.374 . S
C1198 C1195 1.499 . S
C1198 C1199 1.373 . S
C1198 C1200 1.389 . S
C1199 H1178 0.950 . S
C1199 C1198 1.373 . S
C1199 C1215 1.377 . S
C1200 C1198 1.389 . S
C1200 C1201 1.524 . S
C1200 C1214 1.377 . S
C1201 C1200 1.524 . S
C1201 C1202 1.397 . S
C1201 C1206 1.363 . S
C1202 H1179 0.950 . S
C1202 C1201 1.397 . S
C1202 C1203 1.334 . S
C1203 H1180 0.950 . S
C1203 C1202 1.334 . S
C1203 C1204 1.287 . S
C1204 C1203 1.287 . S
C1204 C1205 1.524 . S
C1204 H1223 0.913 . S
C1205 H1181 0.950 . S
C1205 C1204 1.524 . S
C1205 C1206 1.415 . S
C1206 H1182 0.950 . S
C1206 C1201 1.363 . S
C1206 C1205 1.415 . S
C1207 H1183 0.951 . S
C1207 C1208 1.366 . S
C1207 C1209 1.388 . S
C1208 C1207 1.366 . S
C1208 C1212 1.385 . S
C1209 H1184 0.951 . S
C1209 C1207 1.388 . S
C1209 C1210 1.366 . S
C1210 C1209 1.366 . S
C1210 C1211 1.414 . S
C1210 C1213 1.499 . S
C1211 H1185 0.950 . S
C1211 C1210 1.414 . S
C1211 C1212 1.374 . S
C1212 H1186 0.950 . S
C1212 C1208 1.385 . S
C1212 C1211 1.374 . S
C1213 C1210 1.499 . S
C1213 C1214 1.373 . S
C1213 C1215 1.389 . S
C1214 H1187 0.950 . S
C1214 C1200 1.377 . S
C1214 C1213 1.373 . S
C1215 C1199 1.377 . S
C1215 C1213 1.389 . S
C1215 C1216 1.524 . S
C1216 C1215 1.524 . S
C1216 C1217 1.397 . S
C1216 C1221 1.363 . S
C1217 H1188 0.950 . S
C1217 C1216 1.397 . S
C1217 C1218 1.334 . S
C1218 H1189 0.950 . S
C1218 C1217 1.334 . S
C1218 C1219 1.287 . S
C1219 C1218 1.287 . S
C1219 C1220 1.524 . S
C1219 H1222 0.999 . S
C1220 H1190 0.950 . S
C1220 C1219 1.524 . S
C1220 C1221 1.415 . S
C1221 H1191 0.950 . S
C1221 C1216 1.363 . S
C1221 C1220 1.415 . S
H1222 C1219 0.999 . S
H1223 C1204 0.913 . S
H1224 C1242 0.951 . S
H1225 C1244 0.951 . S
H1226 C1246 0.950 . S
H1227 C1247 0.950 . S
H1228 C1249 0.950 . S
H1229 C1252 0.950 . S
H1230 C1253 0.950 . S
H1231 C1255 0.950 . S
H1232 C1256 0.950 . S
H1233 C1257 0.951 . S
H1234 C1259 0.951 . S
H1235 C1261 0.950 . S
H1236 C1262 0.950 . S
H1237 C1264 0.950 . S
H1238 C1267 0.950 . S
H1239 C1268 0.950 . S
H1240 C1270 0.950 . S
H1241 C1271 0.950 . S
C1242 H1224 0.951 . S
C1242 C1243 1.366 . S
C1242 C1244 1.388 . S
C1243 C1242 1.366 . S
C1243 C1247 1.385 . S
C1244 H1225 0.951 . S
C1244 C1242 1.388 . S
C1244 C1245 1.366 . S
C1245 C1244 1.366 . S
C1245 C1246 1.414 . S
C1245 C1248 1.499 . S
C1246 H1226 0.950 . S
C1246 C1245 1.414 . S
C1246 C1247 1.374 . S
C1247 H1227 0.950 . S
C1247 C1243 1.385 . S
C1247 C1246 1.374 . S
C1248 C1245 1.499 . S
C1248 C1249 1.373 . S
C1248 C1250 1.389 . S
C1249 H1228 0.950 . S
C1249 C1248 1.373 . S
C1249 C1265 1.377 . S
C1250 C1248 1.389 . S
C1250 C1251 1.524 . S
C1250 C1264 1.377 . S
C1251 C1250 1.524 . S
C1251 C1252 1.397 . S
C1251 C1256 1.363 . S
C1252 H1229 0.950 . S
C1252 C1251 1.397 . S
C1252 C1253 1.334 . S
C1253 H1230 0.950 . S
C1253 C1252 1.334 . S
C1253 C1254 1.287 . S
C1254 C1253 1.287 . S
C1254 C1255 1.524 . S
C1254 H1273 0.913 . S
C1255 H1231 0.950 . S
C1255 C1254 1.524 . S
C1255 C1256 1.415 . S
C1256 H1232 0.950 . S
C1256 C1251 1.363 . S
C1256 C1255 1.415 . S
C1257 H1233 0.951 . S
C1257 C1258 1.366 . S
C1257 C1259 1.388 . S
C1258 C1257 1.366 . S
C1258 C1262 1.385 . S
C1259 H1234 0.951 . S
C1259 C1257 1.388 . S
C1259 C1260 1.366 . S
C1260 C1259 1.366 . S
C1260 C1261 1.414 . S
C1260 C1263 1.499 . S
C1261 H1235 0.950 . S
C1261 C1260 1.414 . S
C1261 C1262 1.374 . S
C1262 H1236 0.950 . S
C1262 C1258 1.385 . S
C1262 C1261 1.374 . S
C1263 C1260 1.499 . S
C1263 C1264 1.373 . S
C1263 C1265 1.389 . S
C1264 H1237 0.950 . S
C1264 C1250 1.377 . S
C1264 C1263 1.373 . S
C1265 C1249 1.377 . S
C1265 C1263 1.389 . S
C1265 C1266 1.524 . S
C1266 C1265 1.524 . S
C1266 C1267 1.397 . S
C1266 C1271 1.363 . S
C1267 H1238 0.950 . S
C1267 C1266 1.397 . S
C1267 C1268 1.334 . S
C1268 H1239 0.950 . S
C1268 C1267 1.334 . S
C1268 C1269 1.287 . S
C1269 C1268 1.287 . S
C1269 C1270 1.524 . S
C1269 H1272 0.999 . S
C1270 H1240 0.950 . S
C1270 C1269 1.524 . S
C1270 C1271 1.415 . S
C1271 H1241 0.950 . S
C1271 C1266 1.363 . S
C1271 C1270 1.415 . S
H1272 C1269 0.999 . S
H1273 C1254 0.913 . S
H1274 C1292 0.951 . S
H1275 C1294 0.951 . S
H1276 C1296 0.950 . S
H1277 C1297 0.950 . S
H1278 C1299 0.950 . S
H1279 C1302 0.950 . S
H1280 C1303 0.950 . S
H1281 C1305 0.950 . S
H1282 C1306 0.950 . S
H1283 C1307 0.951 . S
H1284 C1309 0.951 . S
H1285 C1311 0.950 . S
H1286 C1312 0.950 . S
H1287 C1314 0.950 . S
H1288 C1317 0.950 . S
H1289 C1318 0.950 . S
H1290 C1320 0.950 . S
H1291 C1321 0.950 . S
C1292 H1274 0.951 . S
C1292 C1293 1.366 . S
C1292 C1294 1.388 . S
C1293 C1292 1.366 . S
C1293 C1297 1.385 . S
C1294 H1275 0.951 . S
C1294 C1292 1.388 . S
C1294 C1295 1.366 . S
C1295 C1294 1.366 . S
C1295 C1296 1.414 . S
C1295 C1298 1.499 . S
C1296 H1276 0.950 . S
C1296 C1295 1.414 . S
C1296 C1297 1.374 . S
C1297 H1277 0.950 . S
C1297 C1293 1.385 . S
C1297 C1296 1.374 . S
C1298 C1295 1.499 . S
C1298 C1299 1.373 . S
C1298 C1300 1.389 . S
C1299 H1278 0.950 . S
C1299 C1298 1.373 . S
C1299 C1315 1.377 1_556 S
C1300 C1298 1.389 . S
C1300 C1301 1.524 . S
C1300 C1314 1.377 1_556 S
C1301 C1300 1.524 . S
C1301 C1302 1.397 . S
C1301 C1306 1.363 . S
C1302 H1279 0.950 . S
C1302 C1301 1.397 . S
C1302 C1303 1.334 . S
C1303 H1280 0.950 . S
C1303 C1302 1.334 . S
C1303 C1304 1.287 . S
C1304 C1303 1.287 . S
C1304 C1305 1.524 . S
C1304 H1323 0.913 . S
C1305 H1281 0.950 . S
C1305 C1304 1.524 . S
C1305 C1306 1.415 . S
C1306 H1282 0.950 . S
C1306 C1301 1.363 . S
C1306 C1305 1.415 . S
C1307 H1283 0.951 . S
C1307 C1308 1.366 . S
C1307 C1309 1.388 . S
C1308 C1307 1.366 . S
C1308 C1312 1.385 . S
C1309 H1284 0.951 . S
C1309 C1307 1.388 . S
C1309 C1310 1.366 . S
C1310 C1309 1.366 . S
C1310 C1311 1.414 . S
C1310 C1313 1.499 . S
C1311 H1285 0.950 . S
C1311 C1310 1.414 . S
C1311 C1312 1.374 . S
C1312 H1286 0.950 . S
C1312 C1308 1.385 . S
C1312 C1311 1.374 . S
C1313 C1310 1.499 . S
C1313 C1314 1.373 . S
C1313 C1315 1.389 . S
C1314 H1287 0.950 . S
C1314 C1300 1.377 1_554 S
C1314 C1313 1.373 . S
C1315 C1299 1.377 1_554 S
C1315 C1313 1.389 . S
C1315 C1316 1.524 . S
C1316 C1315 1.524 . S
C1316 C1317 1.397 . S
C1316 C1321 1.363 . S
C1317 H1288 0.950 . S
C1317 C1316 1.397 . S
C1317 C1318 1.334 . S
C1318 H1289 0.950 . S
C1318 C1317 1.334 . S
C1318 C1319 1.287 . S
C1319 C1318 1.287 . S
C1319 C1320 1.524 . S
C1319 H1322 0.999 . S
C1320 H1290 0.950 . S
C1320 C1319 1.524 . S
C1320 C1321 1.415 . S
C1321 H1291 0.950 . S
C1321 C1316 1.363 . S
C1321 C1320 1.415 . S
H1322 C1319 0.999 . S
H1323 C1304 0.913 . S
H1324 C1342 0.951 . S
H1325 C1344 0.951 . S
H1326 C1346 0.950 . S
H1327 C1347 0.950 . S
H1328 C1349 0.950 . S
H1329 C1352 0.950 . S
H1330 C1353 0.950 . S
H1331 C1355 0.950 . S
H1332 C1356 0.950 . S
H1333 C1357 0.951 . S
H1334 C1359 0.951 . S
H1335 C1361 0.950 . S
H1336 C1362 0.950 . S
H1337 C1364 0.950 . S
H1338 C1367 0.950 . S
H1339 C1368 0.950 . S
H1340 C1370 0.950 . S
H1341 C1371 0.950 . S
C1342 H1324 0.951 . S
C1342 C1343 1.366 . S
C1342 C1344 1.388 . S
C1343 C1342 1.366 . S
C1343 C1347 1.385 . S
C1344 H1325 0.951 . S
C1344 C1342 1.388 . S
C1344 C1345 1.366 . S
C1345 C1344 1.366 . S
C1345 C1346 1.414 . S
C1345 C1348 1.499 . S
C1346 H1326 0.950 . S
C1346 C1345 1.414 . S
C1346 C1347 1.374 . S
C1347 H1327 0.950 . S
C1347 C1343 1.385 . S
C1347 C1346 1.374 . S
C1348 C1345 1.499 . S
C1348 C1349 1.373 . S
C1348 C1350 1.389 . S
C1349 H1328 0.950 . S
C1349 C1348 1.373 . S
C1349 C1365 1.377 . S
C1350 C1348 1.389 . S
C1350 C1351 1.524 . S
C1350 C1364 1.377 . S
C1351 C1350 1.524 . S
C1351 C1352 1.397 . S
C1351 C1356 1.363 . S
C1352 H1329 0.950 . S
C1352 C1351 1.397 . S
C1352 C1353 1.334 . S
C1353 H1330 0.950 . S
C1353 C1352 1.334 . S
C1353 C1354 1.287 . S
C1354 C1353 1.287 . S
C1354 C1355 1.524 . S
C1354 H1373 0.913 . S
C1355 H1331 0.950 . S
C1355 C1354 1.524 . S
C1355 C1356 1.415 . S
C1356 H1332 0.950 . S
C1356 C1351 1.363 . S
C1356 C1355 1.415 . S
C1357 H1333 0.951 . S
C1357 C1358 1.366 . S
C1357 C1359 1.388 . S
C1358 C1357 1.366 . S
C1358 C1362 1.385 . S
C1359 H1334 0.951 . S
C1359 C1357 1.388 . S
C1359 C1360 1.366 . S
C1360 C1359 1.366 . S
C1360 C1361 1.414 . S
C1360 C1363 1.499 . S
C1361 H1335 0.950 . S
C1361 C1360 1.414 . S
C1361 C1362 1.374 . S
C1362 H1336 0.950 . S
C1362 C1358 1.385 . S
C1362 C1361 1.374 . S
C1363 C1360 1.499 . S
C1363 C1364 1.373 . S
C1363 C1365 1.389 . S
C1364 H1337 0.950 . S
C1364 C1350 1.377 . S
C1364 C1363 1.373 . S
C1365 C1349 1.377 . S
C1365 C1363 1.389 . S
C1365 C1366 1.524 . S
C1366 C1365 1.524 . S
C1366 C1367 1.397 . S
C1366 C1371 1.363 . S
C1367 H1338 0.950 . S
C1367 C1366 1.397 . S
C1367 C1368 1.334 . S
C1368 H1339 0.950 . S
C1368 C1367 1.334 . S
C1368 C1369 1.287 . S
C1369 C1368 1.287 . S
C1369 C1370 1.524 . S
C1369 H1372 0.999 . S
C1370 H1340 0.950 . S
C1370 C1369 1.524 . S
C1370 C1371 1.415 . S
C1371 H1341 0.950 . S
C1371 C1366 1.363 . S
C1371 C1370 1.415 . S
H1372 C1369 0.999 . S
H1373 C1354 0.913 . S
H1374 C1392 0.951 . S
H1375 C1394 0.951 . S
H1376 C1396 0.950 . S
H1377 C1397 0.950 . S
H1378 C1399 0.950 . S
H1379 C1402 0.950 . S
H1380 C1403 0.950 . S
H1381 C1405 0.950 . S
H1382 C1406 0.950 . S
H1383 C1407 0.951 . S
H1384 C1409 0.951 . S
H1385 C1411 0.950 . S
H1386 C1412 0.950 . S
H1387 C1414 0.950 . S
H1388 C1417 0.950 . S
H1389 C1418 0.950 . S
H1390 C1420 0.950 . S
H1391 C1421 0.950 . S
C1392 H1374 0.951 . S
C1392 C1393 1.366 . S
C1392 C1394 1.388 . S
C1393 C1392 1.366 . S
C1393 C1397 1.385 . S
C1394 H1375 0.951 . S
C1394 C1392 1.388 . S
C1394 C1395 1.366 . S
C1395 C1394 1.366 . S
C1395 C1396 1.414 . S
C1395 C1398 1.499 . S
C1396 H1376 0.950 . S
C1396 C1395 1.414 . S
C1396 C1397 1.374 . S
C1397 H1377 0.950 . S
C1397 C1393 1.385 . S
C1397 C1396 1.374 . S
C1398 C1395 1.499 . S
C1398 C1399 1.373 . S
C1398 C1400 1.389 . S
C1399 H1378 0.950 . S
C1399 C1398 1.373 . S
C1399 C1415 1.377 1_554 S
C1400 C1398 1.389 . S
C1400 C1401 1.524 . S
C1400 C1414 1.377 1_554 S
C1401 C1400 1.524 . S
C1401 C1402 1.397 . S
C1401 C1406 1.363 . S
C1402 H1379 0.950 . S
C1402 C1401 1.397 . S
C1402 C1403 1.334 . S
C1403 H1380 0.950 . S
C1403 C1402 1.334 . S
C1403 C1404 1.287 . S
C1404 C1403 1.287 . S
C1404 C1405 1.524 . S
C1404 H1423 0.913 . S
C1405 H1381 0.950 . S
C1405 C1404 1.524 . S
C1405 C1406 1.415 . S
C1406 H1382 0.950 . S
C1406 C1401 1.363 . S
C1406 C1405 1.415 . S
C1407 H1383 0.951 . S
C1407 C1408 1.366 . S
C1407 C1409 1.388 . S
C1408 C1407 1.366 . S
C1408 C1412 1.385 . S
C1409 H1384 0.951 . S
C1409 C1407 1.388 . S
C1409 C1410 1.366 . S
C1410 C1409 1.366 . S
C1410 C1411 1.414 . S
C1410 C1413 1.499 . S
C1411 H1385 0.950 . S
C1411 C1410 1.414 . S
C1411 C1412 1.374 . S
C1412 H1386 0.950 . S
C1412 C1408 1.385 . S
C1412 C1411 1.374 . S
C1413 C1410 1.499 . S
C1413 C1414 1.373 . S
C1413 C1415 1.389 . S
C1414 H1387 0.950 . S
C1414 C1400 1.377 1_556 S
C1414 C1413 1.373 . S
C1415 C1399 1.377 1_556 S
C1415 C1413 1.389 . S
C1415 C1416 1.524 . S
C1416 C1415 1.524 . S
C1416 C1417 1.397 . S
C1416 C1421 1.363 . S
C1417 H1388 0.950 . S
C1417 C1416 1.397 . S
C1417 C1418 1.334 . S
C1418 H1389 0.950 . S
C1418 C1417 1.334 . S
C1418 C1419 1.287 . S
C1419 C1418 1.287 . S
C1419 C1420 1.524 . S
C1419 H1422 0.999 . S
C1420 H1390 0.950 . S
C1420 C1419 1.524 . S
C1420 C1421 1.415 . S
C1421 H1391 0.950 . S
C1421 C1416 1.363 . S
C1421 C1420 1.415 . S
H1422 C1419 0.999 . S
H1423 C1404 0.913 . S
H1424 C1442 0.951 . S
H1425 C1444 0.951 . S
H1426 C1446 0.950 . S
H1427 C1447 0.950 . S
H1428 C1449 0.950 . S
H1429 C1452 0.950 . S
H1430 C1453 0.950 . S
H1431 C1455 0.950 . S
H1432 C1456 0.950 . S
H1433 C1457 0.951 . S
H1434 C1459 0.951 . S
H1435 C1461 0.950 . S
H1436 C1462 0.950 . S
H1437 C1464 0.950 . S
H1438 C1467 0.950 . S
H1439 C1468 0.950 . S
H1440 C1470 0.950 . S
H1441 C1471 0.950 . S
C1442 H1424 0.951 . S
C1442 C1443 1.366 . S
C1442 C1444 1.388 . S
C1443 C1442 1.366 . S
C1443 C1447 1.385 . S
C1444 H1425 0.951 . S
C1444 C1442 1.388 . S
C1444 C1445 1.366 . S
C1445 C1444 1.366 . S
C1445 C1446 1.414 . S
C1445 C1448 1.499 . S
C1446 H1426 0.950 . S
C1446 C1445 1.414 . S
C1446 C1447 1.374 . S
C1447 H1427 0.950 . S
C1447 C1443 1.385 . S
C1447 C1446 1.374 . S
C1448 C1445 1.499 . S
C1448 C1449 1.373 . S
C1448 C1450 1.389 . S
C1449 H1428 0.950 . S
C1449 C1448 1.373 . S
C1449 C1465 1.377 . S
C1450 C1448 1.389 . S
C1450 C1451 1.524 . S
C1450 C1464 1.377 . S
C1451 C1450 1.524 . S
C1451 C1452 1.397 . S
C1451 C1456 1.363 . S
C1452 H1429 0.950 . S
C1452 C1451 1.397 . S
C1452 C1453 1.334 . S
C1453 H1430 0.950 . S
C1453 C1452 1.334 . S
C1453 C1454 1.287 . S
C1454 C1453 1.287 . S
C1454 C1455 1.524 . S
C1454 H1473 0.913 . S
C1455 H1431 0.950 . S
C1455 C1454 1.524 . S
C1455 C1456 1.415 . S
C1456 H1432 0.950 . S
C1456 C1451 1.363 . S
C1456 C1455 1.415 . S
C1457 H1433 0.951 . S
C1457 C1458 1.366 . S
C1457 C1459 1.388 . S
C1458 C1457 1.366 . S
C1458 C1462 1.385 . S
C1459 H1434 0.951 . S
C1459 C1457 1.388 . S
C1459 C1460 1.366 . S
C1460 C1459 1.366 . S
C1460 C1461 1.414 . S
C1460 C1463 1.499 . S
C1461 H1435 0.950 . S
C1461 C1460 1.414 . S
C1461 C1462 1.374 . S
C1462 H1436 0.950 . S
C1462 C1458 1.385 . S
C1462 C1461 1.374 . S
C1463 C1460 1.499 . S
C1463 C1464 1.373 . S
C1463 C1465 1.389 . S
C1464 H1437 0.950 . S
C1464 C1450 1.377 . S
C1464 C1463 1.373 . S
C1465 C1449 1.377 . S
C1465 C1463 1.389 . S
C1465 C1466 1.524 . S
C1466 C1465 1.524 . S
C1466 C1467 1.397 . S
C1466 C1471 1.363 . S
C1467 H1438 0.950 . S
C1467 C1466 1.397 . S
C1467 C1468 1.334 . S
C1468 H1439 0.950 . S
C1468 C1467 1.334 . S
C1468 C1469 1.287 . S
C1469 C1468 1.287 . S
C1469 C1470 1.524 . S
C1469 H1472 0.999 . S
C1470 H1440 0.950 . S
C1470 C1469 1.524 . S
C1470 C1471 1.415 . S
C1471 H1441 0.950 . S
C1471 C1466 1.363 . S
C1471 C1470 1.415 . S
H1472 C1469 0.999 . S
H1473 C1454 0.913 . S
H1474 C1492 0.951 . S
H1475 C1494 0.951 . S
H1476 C1496 0.950 . S
H1477 C1497 0.950 . S
H1478 C1499 0.950 . S
H1479 C1502 0.950 . S
H1480 C1503 0.950 . S
H1481 C1505 0.950 . S
H1482 C1506 0.950 . S
H1483 C1507 0.951 . S
H1484 C1509 0.951 . S
H1485 C1511 0.950 . S
H1486 C1512 0.950 . S
H1487 C1514 0.950 . S
H1488 C1517 0.950 . S
H1489 C1518 0.950 . S
H1490 C1520 0.950 . S
H1491 C1521 0.950 . S
C1492 H1474 0.951 . S
C1492 C1493 1.366 . S
C1492 C1494 1.388 . S
C1493 C1492 1.366 . S
C1493 C1497 1.385 . S
C1494 H1475 0.951 . S
C1494 C1492 1.388 . S
C1494 C1495 1.366 . S
C1495 C1494 1.366 . S
C1495 C1496 1.414 . S
C1495 C1498 1.499 . S
C1496 H1476 0.950 . S
C1496 C1495 1.414 . S
C1496 C1497 1.374 . S
C1497 H1477 0.950 . S
C1497 C1493 1.385 . S
C1497 C1496 1.374 . S
C1498 C1495 1.499 . S
C1498 C1499 1.373 . S
C1498 C1500 1.389 . S
C1499 H1478 0.950 . S
C1499 C1498 1.373 . S
C1499 C1515 1.377 . S
C1500 C1498 1.389 . S
C1500 C1501 1.524 . S
C1500 C1514 1.377 . S
C1501 C1500 1.524 . S
C1501 C1502 1.397 . S
C1501 C1506 1.363 . S
C1502 H1479 0.950 . S
C1502 C1501 1.397 . S
C1502 C1503 1.334 . S
C1503 H1480 0.950 . S
C1503 C1502 1.334 . S
C1503 C1504 1.287 . S
C1504 C1503 1.287 . S
C1504 C1505 1.524 . S
C1504 H1523 0.913 . S
C1505 H1481 0.950 . S
C1505 C1504 1.524 . S
C1505 C1506 1.415 . S
C1506 H1482 0.950 . S
C1506 C1501 1.363 . S
C1506 C1505 1.415 . S
C1507 H1483 0.951 . S
C1507 C1508 1.366 . S
C1507 C1509 1.388 . S
C1508 C1507 1.366 . S
C1508 C1512 1.385 . S
C1509 H1484 0.951 . S
C1509 C1507 1.388 . S
C1509 C1510 1.366 . S
C1510 C1509 1.366 . S
C1510 C1511 1.414 . S
C1510 C1513 1.499 . S
C1511 H1485 0.950 . S
C1511 C1510 1.414 . S
C1511 C1512 1.374 . S
C1512 H1486 0.950 . S
C1512 C1508 1.385 . S
C1512 C1511 1.374 . S
C1513 C1510 1.499 . S
C1513 C1514 1.373 . S
C1513 C1515 1.389 . S
C1514 H1487 0.950 . S
C1514 C1500 1.377 . S
C1514 C1513 1.373 . S
C1515 C1499 1.377 . S
C1515 C1513 1.389 . S
C1515 C1516 1.524 . S
C1516 C1515 1.524 . S
C1516 C1517 1.397 . S
C1516 C1521 1.363 . S
C1517 H1488 0.950 . S
C1517 C1516 1.397 . S
C1517 C1518 1.334 . S
C1518 H1489 0.950 . S
C1518 C1517 1.334 . S
C1518 C1519 1.287 . S
C1519 C1518 1.287 . S
C1519 C1520 1.524 . S
C1519 H1522 0.999 . S
C1520 H1490 0.950 . S
C1520 C1519 1.524 . S
C1520 C1521 1.415 . S
C1521 H1491 0.950 . S
C1521 C1516 1.363 . S
C1521 C1520 1.415 . S
H1522 C1519 0.999 . S
H1523 C1504 0.913 . S
H1524 C1542 0.951 . S
H1525 C1544 0.951 . S
H1526 C1546 0.950 . S
H1527 C1547 0.950 . S
H1528 C1549 0.950 . S
H1529 C1552 0.950 . S
H1530 C1553 0.950 . S
H1531 C1555 0.950 . S
H1532 C1556 0.950 . S
H1533 C1557 0.951 . S
H1534 C1559 0.951 . S
H1535 C1561 0.950 . S
H1536 C1562 0.950 . S
H1537 C1564 0.950 . S
H1538 C1567 0.950 . S
H1539 C1568 0.950 . S
H1540 C1570 0.950 . S
H1541 C1571 0.950 . S
C1542 H1524 0.951 . S
C1542 C1543 1.366 . S
C1542 C1544 1.388 . S
C1543 C1542 1.366 . S
C1543 C1547 1.385 . S
C1544 H1525 0.951 . S
C1544 C1542 1.388 . S
C1544 C1545 1.366 . S
C1545 C1544 1.366 . S
C1545 C1546 1.414 . S
C1545 C1548 1.499 . S
C1546 H1526 0.950 . S
C1546 C1545 1.414 . S
C1546 C1547 1.374 . S
C1547 H1527 0.950 . S
C1547 C1543 1.385 . S
C1547 C1546 1.374 . S
C1548 C1545 1.499 . S
C1548 C1549 1.373 . S
C1548 C1550 1.389 . S
C1549 H1528 0.950 . S
C1549 C1548 1.373 . S
C1549 C1565 1.377 . S
C1550 C1548 1.389 . S
C1550 C1551 1.524 . S
C1550 C1564 1.377 . S
C1551 C1550 1.524 . S
C1551 C1552 1.397 . S
C1551 C1556 1.363 . S
C1552 H1529 0.950 . S
C1552 C1551 1.397 . S
C1552 C1553 1.334 . S
C1553 H1530 0.950 . S
C1553 C1552 1.334 . S
C1553 C1554 1.287 . S
C1554 C1553 1.287 . S
C1554 C1555 1.524 . S
C1554 H1573 0.913 . S
C1555 H1531 0.950 . S
C1555 C1554 1.524 . S
C1555 C1556 1.415 . S
C1556 H1532 0.950 . S
C1556 C1551 1.363 . S
C1556 C1555 1.415 . S
C1557 H1533 0.951 . S
C1557 C1558 1.366 . S
C1557 C1559 1.388 . S
C1558 C1557 1.366 . S
C1558 C1562 1.385 . S
C1559 H1534 0.951 . S
C1559 C1557 1.388 . S
C1559 C1560 1.366 . S
C1560 C1559 1.366 . S
C1560 C1561 1.414 . S
C1560 C1563 1.499 . S
C1561 H1535 0.950 . S
C1561 C1560 1.414 . S
C1561 C1562 1.374 . S
C1562 H1536 0.950 . S
C1562 C1558 1.385 . S
C1562 C1561 1.374 . S
C1563 C1560 1.499 . S
C1563 C1564 1.373 . S
C1563 C1565 1.389 . S
C1564 H1537 0.950 . S
C1564 C1550 1.377 . S
C1564 C1563 1.373 . S
C1565 C1549 1.377 . S
C1565 C1563 1.389 . S
C1565 C1566 1.524 . S
C1566 C1565 1.524 . S
C1566 C1567 1.397 . S
C1566 C1571 1.363 . S
C1567 H1538 0.950 . S
C1567 C1566 1.397 . S
C1567 C1568 1.334 . S
C1568 H1539 0.950 . S
C1568 C1567 1.334 . S
C1568 C1569 1.287 . S
C1569 C1568 1.287 . S
C1569 C1570 1.524 . S
C1569 H1572 0.999 . S
C1570 H1540 0.950 . S
C1570 C1569 1.524 . S
C1570 C1571 1.415 . S
C1571 H1541 0.950 . S
C1571 C1566 1.363 . S
C1571 C1570 1.415 . S
H1572 C1569 0.999 . S
H1573 C1554 0.913 . S
H1574 C1592 0.951 . S
H1575 C1594 0.951 . S
H1576 C1596 0.950 . S
H1577 C1597 0.950 . S
H1578 C1599 0.950 . S
H1579 C1602 0.950 . S
H1580 C1603 0.950 . S
H1581 C1605 0.950 . S
H1582 C1606 0.950 . S
H1583 C1607 0.951 . S
H1584 C1609 0.951 . S
H1585 C1611 0.950 . S
H1586 C1612 0.950 . S
H1587 C1614 0.950 . S
H1588 C1617 0.950 . S
H1589 C1618 0.950 . S
H1590 C1620 0.950 . S
H1591 C1621 0.950 . S
C1592 H1574 0.951 . S
C1592 C1593 1.366 . S
C1592 C1594 1.388 . S
C1593 C1592 1.366 . S
C1593 C1597 1.385 . S
C1594 H1575 0.951 . S
C1594 C1592 1.388 . S
C1594 C1595 1.366 . S
C1595 C1594 1.366 . S
C1595 C1596 1.414 . S
C1595 C1598 1.499 . S
C1596 H1576 0.950 . S
C1596 C1595 1.414 . S
C1596 C1597 1.374 . S
C1597 H1577 0.950 . S
C1597 C1593 1.385 . S
C1597 C1596 1.374 . S
C1598 C1595 1.499 . S
C1598 C1599 1.373 . S
C1598 C1600 1.389 . S
C1599 H1578 0.950 . S
C1599 C1598 1.373 . S
C1599 C1615 1.377 . S
C1600 C1598 1.389 . S
C1600 C1601 1.524 . S
C1600 C1614 1.377 . S
C1601 C1600 1.524 . S
C1601 C1602 1.397 . S
C1601 C1606 1.363 . S
C1602 H1579 0.950 . S
C1602 C1601 1.397 . S
C1602 C1603 1.334 . S
C1603 H1580 0.950 . S
C1603 C1602 1.334 . S
C1603 C1604 1.287 . S
C1604 C1603 1.287 . S
C1604 C1605 1.524 . S
C1604 H1623 0.913 . S
C1605 H1581 0.950 . S
C1605 C1604 1.524 . S
C1605 C1606 1.415 . S
C1606 H1582 0.950 . S
C1606 C1601 1.363 . S
C1606 C1605 1.415 . S
C1607 H1583 0.951 . S
C1607 C1608 1.366 . S
C1607 C1609 1.388 . S
C1608 C1607 1.366 . S
C1608 C1612 1.385 . S
C1609 H1584 0.951 . S
C1609 C1607 1.388 . S
C1609 C1610 1.366 . S
C1610 C1609 1.366 . S
C1610 C1611 1.414 . S
C1610 C1613 1.499 . S
C1611 H1585 0.950 . S
C1611 C1610 1.414 . S
C1611 C1612 1.374 . S
C1612 H1586 0.950 . S
C1612 C1608 1.385 . S
C1612 C1611 1.374 . S
C1613 C1610 1.499 . S
C1613 C1614 1.373 . S
C1613 C1615 1.389 . S
C1614 H1587 0.950 . S
C1614 C1600 1.377 . S
C1614 C1613 1.373 . S
C1615 C1599 1.377 . S
C1615 C1613 1.389 . S
C1615 C1616 1.524 . S
C1616 C1615 1.524 . S
C1616 C1617 1.397 . S
C1616 C1621 1.363 . S
C1617 H1588 0.950 . S
C1617 C1616 1.397 . S
C1617 C1618 1.334 . S
C1618 H1589 0.950 . S
C1618 C1617 1.334 . S
C1618 C1619 1.287 . S
C1619 C1618 1.287 . S
C1619 C1620 1.524 . S
C1619 H1622 0.999 . S
C1620 H1590 0.950 . S
C1620 C1619 1.524 . S
C1620 C1621 1.415 . S
C1621 H1591 0.950 . S
C1621 C1616 1.363 . S
C1621 C1620 1.415 . S
H1622 C1619 0.999 . S
H1623 C1604 0.913 . S
H1624 C1642 0.951 . S
H1625 C1644 0.951 . S
H1626 C1646 0.950 . S
H1627 C1647 0.950 . S
H1628 C1649 0.950 . S
H1629 C1652 0.950 . S
H1630 C1653 0.950 . S
H1631 C1655 0.950 . S
H1632 C1656 0.950 . S
H1633 C1657 0.951 . S
H1634 C1659 0.951 . S
H1635 C1661 0.950 . S
H1636 C1662 0.950 . S
H1637 C1664 0.950 . S
H1638 C1667 0.950 . S
H1639 C1668 0.950 . S
H1640 C1670 0.950 . S
H1641 C1671 0.950 . S
C1642 H1624 0.951 . S
C1642 C1643 1.366 . S
C1642 C1644 1.388 . S
C1643 C1642 1.366 . S
C1643 C1647 1.385 . S
C1644 H1625 0.951 . S
C1644 C1642 1.388 . S
C1644 C1645 1.366 . S
C1645 C1644 1.366 . S
C1645 C1646 1.414 . S
C1645 C1648 1.499 . S
C1646 H1626 0.950 . S
C1646 C1645 1.414 . S
C1646 C1647 1.374 . S
C1647 H1627 0.950 . S
C1647 C1643 1.385 . S
C1647 C1646 1.374 . S
C1648 C1645 1.499 . S
C1648 C1649 1.373 . S
C1648 C1650 1.389 . S
C1649 H1628 0.950 . S
C1649 C1648 1.373 . S
C1649 C1665 1.377 . S
C1650 C1648 1.389 . S
C1650 C1651 1.524 . S
C1650 C1664 1.377 . S
C1651 C1650 1.524 . S
C1651 C1652 1.397 . S
C1651 C1656 1.363 . S
C1652 H1629 0.950 . S
C1652 C1651 1.397 . S
C1652 C1653 1.334 . S
C1653 H1630 0.950 . S
C1653 C1652 1.334 . S
C1653 C1654 1.287 . S
C1654 C1653 1.287 . S
C1654 C1655 1.524 . S
C1654 H1673 0.913 . S
C1655 H1631 0.950 . S
C1655 C1654 1.524 . S
C1655 C1656 1.415 . S
C1656 H1632 0.950 . S
C1656 C1651 1.363 . S
C1656 C1655 1.415 . S
C1657 H1633 0.951 . S
C1657 C1658 1.366 . S
C1657 C1659 1.388 . S
C1658 C1657 1.366 . S
C1658 C1662 1.385 . S
C1659 H1634 0.951 . S
C1659 C1657 1.388 . S
C1659 C1660 1.366 . S
C1660 C1659 1.366 . S
C1660 C1661 1.414 . S
C1660 C1663 1.499 . S
C1661 H1635 0.950 . S
C1661 C1660 1.414 . S
C1661 C1662 1.374 . S
C1662 H1636 0.950 . S
C1662 C1658 1.385 . S
C1662 C1661 1.374 . S
C1663 C1660 1.499 . S
C1663 C1664 1.373 . S
C1663 C1665 1.389 . S
C1664 H1637 0.950 . S
C1664 C1650 1.377 . S
C1664 C1663 1.373 . S
C1665 C1649 1.377 . S
C1665 C1663 1.389 . S
C1665 C1666 1.524 . S
C1666 C1665 1.524 . S
C1666 C1667 1.397 . S
C1666 C1671 1.363 . S
C1667 H1638 0.950 . S
C1667 C1666 1.397 . S
C1667 C1668 1.334 . S
C1668 H1639 0.950 . S
C1668 C1667 1.334 . S
C1668 C1669 1.287 . S
C1669 C1668 1.287 . S
C1669 C1670 1.524 . S
C1669 H1672 0.999 . S
C1670 H1640 0.950 . S
C1670 C1669 1.524 . S
C1670 C1671 1.415 . S
C1671 H1641 0.950 . S
C1671 C1666 1.363 . S
C1671 C1670 1.415 . S
H1672 C1669 0.999 . S
H1673 C1654 0.913 . S
H1674 C1692 0.951 . S
H1675 C1694 0.951 . S
H1676 C1696 0.950 . S
H1677 C1697 0.950 . S
H1678 C1699 0.950 . S
H1679 C1702 0.950 . S
H1680 C1703 0.950 . S
H1681 C1705 0.950 . S
H1682 C1706 0.950 . S
H1683 C1707 0.951 . S
H1684 C1709 0.951 . S
H1685 C1711 0.950 . S
H1686 C1712 0.950 . S
H1687 C1714 0.950 . S
H1688 C1717 0.950 . S
H1689 C1718 0.950 . S
H1690 C1720 0.950 . S
H1691 C1721 0.950 . S
C1692 H1674 0.951 . S
C1692 C1693 1.366 . S
C1692 C1694 1.388 . S
C1693 C1692 1.366 . S
C1693 C1697 1.385 . S
C1694 H1675 0.951 . S
C1694 C1692 1.388 . S
C1694 C1695 1.366 . S
C1695 C1694 1.366 . S
C1695 C1696 1.414 . S
C1695 C1698 1.499 . S
C1696 H1676 0.950 . S
C1696 C1695 1.414 . S
C1696 C1697 1.374 . S
C1697 H1677 0.950 . S
C1697 C1693 1.385 . S
C1697 C1696 1.374 . S
C1698 C1695 1.499 . S
C1698 C1699 1.373 . S
C1698 C1700 1.389 . S
C1699 H1678 0.950 . S
C1699 C1698 1.373 . S
C1699 C1715 1.377 . S
C1700 C1698 1.389 . S
C1700 C1701 1.524 . S
C1700 C1714 1.377 . S
C1701 C1700 1.524 . S
C1701 C1702 1.397 . S
C1701 C1706 1.363 . S
C1702 H1679 0.950 . S
C1702 C1701 1.397 . S
C1702 C1703 1.334 . S
C1703 H1680 0.950 . S
C1703 C1702 1.334 . S
C1703 C1704 1.287 . S
C1704 C1703 1.287 . S
C1704 C1705 1.524 . S
C1704 H1723 0.913 . S
C1705 H1681 0.950 . S
C1705 C1704 1.524 . S
C1705 C1706 1.415 . S
C1706 H1682 0.950 . S
C1706 C1701 1.363 . S
C1706 C1705 1.415 . S
C1707 H1683 0.951 . S
C1707 C1708 1.366 . S
C1707 C1709 1.388 . S
C1708 C1707 1.366 . S
C1708 C1712 1.385 . S
C1709 H1684 0.951 . S
C1709 C1707 1.388 . S
C1709 C1710 1.366 . S
C1710 C1709 1.366 . S
C1710 C1711 1.414 . S
C1710 C1713 1.499 . S
C1711 H1685 0.950 . S
C1711 C1710 1.414 . S
C1711 C1712 1.374 . S
C1712 H1686 0.950 . S
C1712 C1708 1.385 . S
C1712 C1711 1.374 . S
C1713 C1710 1.499 . S
C1713 C1714 1.373 . S
C1713 C1715 1.389 . S
C1714 H1687 0.950 . S
C1714 C1700 1.377 . S
C1714 C1713 1.373 . S
C1715 C1699 1.377 . S
C1715 C1713 1.389 . S
C1715 C1716 1.524 . S
C1716 C1715 1.524 . S
C1716 C1717 1.397 . S
C1716 C1721 1.363 . S
C1717 H1688 0.950 . S
C1717 C1716 1.397 . S
C1717 C1718 1.334 . S
C1718 H1689 0.950 . S
C1718 C1717 1.334 . S
C1718 C1719 1.287 . S
C1719 C1718 1.287 . S
C1719 C1720 1.524 . S
C1719 H1722 0.999 . S
C1720 H1690 0.950 . S
C1720 C1719 1.524 . S
C1720 C1721 1.415 . S
C1721 H1691 0.950 . S
C1721 C1716 1.363 . S
C1721 C1720 1.415 . S
H1722 C1719 0.999 . S
H1723 C1704 0.913 . S
H1724 C1742 0.951 . S
H1725 C1744 0.951 . S
H1726 C1746 0.950 . S
H1727 C1747 0.950 . S
H1728 C1749 0.950 . S
H1729 C1752 0.950 . S
H1730 C1753 0.950 . S
H1731 C1755 0.950 . S
H1732 C1756 0.950 . S
H1733 C1757 0.951 . S
H1734 C1759 0.951 . S
H1735 C1761 0.950 . S
H1736 C1762 0.950 . S
H1737 C1764 0.950 . S
H1738 C1767 0.950 . S
H1739 C1768 0.950 . S
H1740 C1770 0.950 . S
H1741 C1771 0.950 . S
C1742 H1724 0.951 . S
C1742 C1743 1.366 . S
C1742 C1744 1.388 . S
C1743 C1742 1.366 . S
C1743 C1747 1.385 . S
C1744 H1725 0.951 . S
C1744 C1742 1.388 . S
C1744 C1745 1.366 . S
C1745 C1744 1.366 . S
C1745 C1746 1.414 . S
C1745 C1748 1.499 . S
C1746 H1726 0.950 . S
C1746 C1745 1.414 . S
C1746 C1747 1.374 . S
C1747 H1727 0.950 . S
C1747 C1743 1.385 . S
C1747 C1746 1.374 . S
C1748 C1745 1.499 . S
C1748 C1749 1.373 . S
C1748 C1750 1.389 . S
C1749 H1728 0.950 . S
C1749 C1748 1.373 . S
C1749 C1765 1.377 . S
C1750 C1748 1.389 . S
C1750 C1751 1.524 . S
C1750 C1764 1.377 . S
C1751 C1750 1.524 . S
C1751 C1752 1.397 . S
C1751 C1756 1.363 . S
C1752 H1729 0.950 . S
C1752 C1751 1.397 . S
C1752 C1753 1.334 . S
C1753 H1730 0.950 . S
C1753 C1752 1.334 . S
C1753 C1754 1.287 . S
C1754 C1753 1.287 . S
C1754 C1755 1.524 . S
C1754 H1773 0.913 . S
C1755 H1731 0.950 . S
C1755 C1754 1.524 . S
C1755 C1756 1.415 . S
C1756 H1732 0.950 . S
C1756 C1751 1.363 . S
C1756 C1755 1.415 . S
C1757 H1733 0.951 . S
C1757 C1758 1.366 . S
C1757 C1759 1.388 . S
C1758 C1757 1.366 . S
C1758 C1762 1.385 . S
C1759 H1734 0.951 . S
C1759 C1757 1.388 . S
C1759 C1760 1.366 . S
C1760 C1759 1.366 . S
C1760 C1761 1.414 . S
C1760 C1763 1.499 . S
C1761 H1735 0.950 . S
C1761 C1760 1.414 . S
C1761 C1762 1.374 . S
C1762 H1736 0.950 . S
C1762 C1758 1.385 . S
C1762 C1761 1.374 . S
C1763 C1760 1.499 . S
C1763 C1764 1.373 . S
C1763 C1765 1.389 . S
C1764 H1737 0.950 . S
C1764 C1750 1.377 . S
C1764 C1763 1.373 . S
C1765 C1749 1.377 . S
C1765 C1763 1.389 . S
C1765 C1766 1.524 . S
C1766 C1765 1.524 . S
C1766 C1767 1.397 . S
C1766 C1771 1.363 . S
C1767 H1738 0.950 . S
C1767 C1766 1.397 . S
C1767 C1768 1.334 . S
C1768 H1739 0.950 . S
C1768 C1767 1.334 . S
C1768 C1769 1.287 . S
C1769 C1768 1.287 . S
C1769 C1770 1.524 . S
C1769 H1772 0.999 . S
C1770 H1740 0.950 . S
C1770 C1769 1.524 . S
C1770 C1771 1.415 . S
C1771 H1741 0.950 . S
C1771 C1766 1.363 . S
C1771 C1770 1.415 . S
H1772 C1769 0.999 . S
H1773 C1754 0.913 . S
H1774 C1792 0.951 . S
H1775 C1794 0.951 . S
H1776 C1796 0.950 . S
H1777 C1797 0.950 . S
H1778 C1799 0.950 . S
H1779 C1802 0.950 . S
H1780 C1803 0.950 . S
H1781 C1805 0.950 . S
H1782 C1806 0.950 . S
H1783 C1807 0.951 . S
H1784 C1809 0.951 . S
H1785 C1811 0.950 . S
H1786 C1812 0.950 . S
H1787 C1814 0.950 . S
H1788 C1817 0.950 . S
H1789 C1818 0.950 . S
H1790 C1820 0.950 . S
H1791 C1821 0.950 . S
C1792 H1774 0.951 . S
C1792 C1793 1.366 . S
C1792 C1794 1.388 . S
C1793 C1792 1.366 . S
C1793 C1797 1.385 . S
C1794 H1775 0.951 . S
C1794 C1792 1.388 . S
C1794 C1795 1.366 . S
C1795 C1794 1.366 . S
C1795 C1796 1.414 . S
C1795 C1798 1.499 . S
C1796 H1776 0.950 . S
C1796 C1795 1.414 . S
C1796 C1797 1.374 . S
C1797 H1777 0.950 . S
C1797 C1793 1.385 . S
C1797 C1796 1.374 . S
C1798 C1795 1.499 . S
C1798 C1799 1.373 . S
C1798 C1800 1.389 . S
C1799 H1778 0.950 . S
C1799 C1798 1.373 . S
C1799 C1815 1.377 . S
C1800 C1798 1.389 . S
C1800 C1801 1.524 . S
C1800 C1814 1.377 . S
C1801 C1800 1.524 . S
C1801 C1802 1.397 . S
C1801 C1806 1.363 . S
C1802 H1779 0.950 . S
C1802 C1801 1.397 . S
C1802 C1803 1.334 . S
C1803 H1780 0.950 . S
C1803 C1802 1.334 . S
C1803 C1804 1.287 . S
C1804 C1803 1.287 . S
C1804 C1805 1.524 . S
C1804 H1823 0.913 . S
C1805 H1781 0.950 . S
C1805 C1804 1.524 . S
C1805 C1806 1.415 . S
C1806 H1782 0.950 . S
C1806 C1801 1.363 . S
C1806 C1805 1.415 . S
C1807 H1783 0.951 . S
C1807 C1808 1.366 . S
C1807 C1809 1.388 . S
C1808 C1807 1.366 . S
C1808 C1812 1.385 . S
C1809 H1784 0.951 . S
C1809 C1807 1.388 . S
C1809 C1810 1.366 . S
C1810 C1809 1.366 . S
C1810 C1811 1.414 . S
C1810 C1813 1.499 . S
C1811 H1785 0.950 . S
C1811 C1810 1.414 . S
C1811 C1812 1.374 . S
C1812 H1786 0.950 . S
C1812 C1808 1.385 . S
C1812 C1811 1.374 . S
C1813 C1810 1.499 . S
C1813 C1814 1.373 . S
C1813 C1815 1.389 . S
C1814 H1787 0.950 . S
C1814 C1800 1.377 . S
C1814 C1813 1.373 . S
C1815 C1799 1.377 . S
C1815 C1813 1.389 . S
C1815 C1816 1.524 . S
C1816 C1815 1.524 . S
C1816 C1817 1.397 . S
C1816 C1821 1.363 . S
C1817 H1788 0.950 . S
C1817 C1816 1.397 . S
C1817 C1818 1.334 . S
C1818 H1789 0.950 . S
C1818 C1817 1.334 . S
C1818 C1819 1.287 . S
C1819 C1818 1.287 . S
C1819 C1820 1.524 . S
C1819 H1822 0.999 . S
C1820 H1790 0.950 . S
C1820 C1819 1.524 . S
C1820 C1821 1.415 . S
C1821 H1791 0.950 . S
C1821 C1816 1.363 . S
C1821 C1820 1.415 . S
H1822 C1819 0.999 . S
H1823 C1804 0.913 . S
C243 C0 1.764 . S
C258 C41 1.766 . S
C293 C54 1.764 . S
C308 C26 1.765 . S
C343 C69 1.766 . S
C358 C96 1.764 . S
C393 C111 1.766 . S
C408 C82 1.764 . S
C443 C124 1.766 . S
C458 C152 1.766 . S
C493 C166 1.766 . S
C508 C139 1.764 . S
C543 C181 1.764 . S
C558 C208 1.766 . S
C593 C210 1.766 . S
C608 C183 1.764 . S
C643 C56 1.620 . S
C658 C13 1.621 . S
C693 C15 1.621 . S
C708 C71 1.621 . S
C743 C28 1.620 . S
C758 C85 1.621 . S
C793 C98 1.620 . S
C808 C43 1.621 . S
C843 C113 1.620 . S
C858 C168 1.621 . S
C893 C126 1.621 . S
C908 C194 1.621 . S
C943 C141 1.620 . S
C958 C197 1.620 . S
C993 C155 1.620 . S
C1008 C223 1.620 . S
C1043 C140 1.606 . S
C1058 C12 1.605 . S
C1093 C154 1.606 . S
C1108 C14 1.605 . S
C1143 C29 1.606 . S
C1158 C112 1.606 . S
C1193 C42 1.605 . S
C1208 C127 1.605 . S
C1243 C57 1.606 . S
C1258 C196 1.606 . S
C1293 C70 1.605 . S
C1308 C222 1.606 . S
C1343 C84 1.605 . S
C1358 C169 1.605 . S
C1393 C195 1.605 . S
C1408 C99 1.606 . S
C1443 C1 1.732 . S
C1458 C211 1.732 . S
C1493 C180 1.733 . S
C1508 C27 1.733 . S
C1543 C40 1.731 . S
C1558 C182 1.733 . S
C1593 C209 1.731 . S
C1608 C55 1.733 . S
C1643 C138 1.733 . S
C1658 C68 1.731 . S
C1693 C83 1.733 . S
C1708 C153 1.731 . S
C1743 C167 1.731 . S
C1758 C97 1.733 . S
C1793 C125 1.731 . S
C1808 C110 1.731 . S
