# Generated by pormake.
# Topology hbo, (4)-cn, num edge types: 1
# Building blocks:
#     Node 0, Type 0, BuildingBlock: GALJAG_clean_sbu_0, # of connection points: 4
#     Node 1, Type 0, BuildingBlock: GALJAG_clean_sbu_0, # of connection points: 4
#     Node 2, Type 0, BuildingBlock: GALJAG_clean_sbu_0, # of connection points: 4
#     Node 3, Type 0, BuildingBlock: GALJAG_clean_sbu_0, # of connection points: 4
#     Node 4, Type 0, BuildingBlock: GALJAG_clean_sbu_0, # of connection points: 4
#     Node 5, Type 0, BuildingBlock: GALJAG_clean_sbu_0, # of connection points: 4
#     Node 6, Type 0, BuildingBlock: GALJAG_clean_sbu_0, # of connection points: 4
#     Node 7, Type 0, BuildingBlock: GALJAG_clean_sbu_0, # of connection points: 4
#     Node 8, Type 0, BuildingBlock: GALJAG_clean_sbu_0, # of connection points: 4
#     Node 9, Type 0, BuildingBlock: GALJAG_clean_sbu_0, # of connection points: 4
#     Node 10, Type 0, BuildingBlock: GALJAG_clean_sbu_0, # of connection points: 4
#     Node 11, Type 0, BuildingBlock: GALJAG_clean_sbu_0, # of connection points: 4
#     Node 12, Type 0, BuildingBlock: GALJAG_clean_sbu_0, # of connection points: 4
#     Node 13, Type 0, BuildingBlock: GALJAG_clean_sbu_0, # of connection points: 4
#     Node 14, Type 0, BuildingBlock: GALJAG_clean_sbu_0, # of connection points: 4
#     Node 15, Type 0, BuildingBlock: GALJAG_clean_sbu_0, # of connection points: 4
#     Node 16, Type 0, BuildingBlock: GALJAG_clean_sbu_0, # of connection points: 4
#     Node 17, Type 0, BuildingBlock: GALJAG_clean_sbu_0, # of connection points: 4
#     Node 18, Type 0, BuildingBlock: GALJAG_clean_sbu_0, # of connection points: 4
#     Node 19, Type 0, BuildingBlock: GALJAG_clean_sbu_0, # of connection points: 4
#     Node 20, Type 0, BuildingBlock: GALJAG_clean_sbu_0, # of connection points: 4
#     Node 21, Type 0, BuildingBlock: GALJAG_clean_sbu_0, # of connection points: 4
#     Node 22, Type 0, BuildingBlock: GALJAG_clean_sbu_0, # of connection points: 4
#     Node 23, Type 0, BuildingBlock: GALJAG_clean_sbu_0, # of connection points: 4
#     Edge 24, Type (0, 0), BuildingBlock: XIVTED_clean_linker_0, # of connection points: 2
#     Edge 25, Type (0, 0), BuildingBlock: XIVTED_clean_linker_0, # of connection points: 2
#     Edge 26, Type (0, 0), BuildingBlock: XIVTED_clean_linker_0, # of connection points: 2
#     Edge 27, Type (0, 0), BuildingBlock: XIVTED_clean_linker_0, # of connection points: 2
#     Edge 28, Type (0, 0), BuildingBlock: XIVTED_clean_linker_0, # of connection points: 2
#     Edge 29, Type (0, 0), BuildingBlock: XIVTED_clean_linker_0, # of connection points: 2
#     Edge 30, Type (0, 0), BuildingBlock: XIVTED_clean_linker_0, # of connection points: 2
#     Edge 31, Type (0, 0), BuildingBlock: XIVTED_clean_linker_0, # of connection points: 2
#     Edge 32, Type (0, 0), BuildingBlock: XIVTED_clean_linker_0, # of connection points: 2
#     Edge 33, Type (0, 0), BuildingBlock: XIVTED_clean_linker_0, # of connection points: 2
#     Edge 34, Type (0, 0), BuildingBlock: XIVTED_clean_linker_0, # of connection points: 2
#     Edge 35, Type (0, 0), BuildingBlock: XIVTED_clean_linker_0, # of connection points: 2
#     Edge 36, Type (0, 0), BuildingBlock: XIVTED_clean_linker_0, # of connection points: 2
#     Edge 37, Type (0, 0), BuildingBlock: XIVTED_clean_linker_0, # of connection points: 2
#     Edge 38, Type (0, 0), BuildingBlock: XIVTED_clean_linker_0, # of connection points: 2
#     Edge 39, Type (0, 0), BuildingBlock: XIVTED_clean_linker_0, # of connection points: 2
#     Edge 40, Type (0, 0), BuildingBlock: XIVTED_clean_linker_0, # of connection points: 2
#     Edge 41, Type (0, 0), BuildingBlock: XIVTED_clean_linker_0, # of connection points: 2
#     Edge 42, Type (0, 0), BuildingBlock: XIVTED_clean_linker_0, # of connection points: 2
#     Edge 43, Type (0, 0), BuildingBlock: XIVTED_clean_linker_0, # of connection points: 2
#     Edge 44, Type (0, 0), BuildingBlock: XIVTED_clean_linker_0, # of connection points: 2
#     Edge 45, Type (0, 0), BuildingBlock: XIVTED_clean_linker_0, # of connection points: 2
#     Edge 46, Type (0, 0), BuildingBlock: XIVTED_clean_linker_0, # of connection points: 2
#     Edge 47, Type (0, 0), BuildingBlock: XIVTED_clean_linker_0, # of connection points: 2
#     Edge 48, Type (0, 0), BuildingBlock: XIVTED_clean_linker_0, # of connection points: 2
#     Edge 49, Type (0, 0), BuildingBlock: XIVTED_clean_linker_0, # of connection points: 2
#     Edge 50, Type (0, 0), BuildingBlock: XIVTED_clean_linker_0, # of connection points: 2
#     Edge 51, Type (0, 0), BuildingBlock: XIVTED_clean_linker_0, # of connection points: 2
#     Edge 52, Type (0, 0), BuildingBlock: XIVTED_clean_linker_0, # of connection points: 2
#     Edge 53, Type (0, 0), BuildingBlock: XIVTED_clean_linker_0, # of connection points: 2
#     Edge 54, Type (0, 0), BuildingBlock: XIVTED_clean_linker_0, # of connection points: 2
#     Edge 55, Type (0, 0), BuildingBlock: XIVTED_clean_linker_0, # of connection points: 2
#     Edge 56, Type (0, 0), BuildingBlock: XIVTED_clean_linker_0, # of connection points: 2
#     Edge 57, Type (0, 0), BuildingBlock: XIVTED_clean_linker_0, # of connection points: 2
#     Edge 58, Type (0, 0), BuildingBlock: XIVTED_clean_linker_0, # of connection points: 2
#     Edge 59, Type (0, 0), BuildingBlock: XIVTED_clean_linker_0, # of connection points: 2
#     Edge 60, Type (0, 0), BuildingBlock: XIVTED_clean_linker_0, # of connection points: 2
#     Edge 61, Type (0, 0), BuildingBlock: XIVTED_clean_linker_0, # of connection points: 2
#     Edge 62, Type (0, 0), BuildingBlock: XIVTED_clean_linker_0, # of connection points: 2
#     Edge 63, Type (0, 0), BuildingBlock: XIVTED_clean_linker_0, # of connection points: 2
#     Edge 64, Type (0, 0), BuildingBlock: XIVTED_clean_linker_0, # of connection points: 2
#     Edge 65, Type (0, 0), BuildingBlock: XIVTED_clean_linker_0, # of connection points: 2
#     Edge 66, Type (0, 0), BuildingBlock: XIVTED_clean_linker_0, # of connection points: 2
#     Edge 67, Type (0, 0), BuildingBlock: XIVTED_clean_linker_0, # of connection points: 2
#     Edge 68, Type (0, 0), BuildingBlock: XIVTED_clean_linker_0, # of connection points: 2
#     Edge 69, Type (0, 0), BuildingBlock: XIVTED_clean_linker_0, # of connection points: 2
#     Edge 70, Type (0, 0), BuildingBlock: XIVTED_clean_linker_0, # of connection points: 2
#     Edge 71, Type (0, 0), BuildingBlock: XIVTED_clean_linker_0, # of connection points: 2
# Relax obj value: 0.092
# Max RMSD: 0.160
# Mean RMSD: 0.160
data_MOF--net-hbo--node1-GALJAG_clean_sbu_0--edge1-XIVTED_clean_linker_0
_symmetry_space_group_name_H-M    P1
_symmetry_Int_Tables_number       1
_symmetry_cell_setting            triclinic
loop_
_symmetry_equiv_pos_as_xyz
'x, y, z'
_cell_length_a     53.998474
_cell_length_b     53.835026
_cell_length_c     53.886927
_cell_angle_alpha  90.017672
_cell_angle_beta   90.199313
_cell_angle_gamma 89.882523
loop_
_atom_site_label
_atom_site_type_symbol
_atom_site_fract_x
_atom_site_fract_y
_atom_site_fract_z
_atom_type_partial_charge
In0 In 0.13038 0.35546 0.23769 0.0
O1 O 0.13587 0.39004 0.26182 0.0
O2 O 0.11639 0.39357 0.22753 0.0
C3 C 0.146 0.31877 0.26771 0.0
C4 C 0.08219 0.34417 0.23419 0.0
C5 C 0.16628 0.35402 0.2031 0.0
O6 O 0.14756 0.34137 0.27391 0.0
O7 O 0.13665 0.31492 0.24659 0.0
O8 O 0.14532 0.34424 0.19964 0.0
O9 O 0.1688 0.3649 0.22365 0.0
C10 C 0.1244 0.40407 0.24687 0.0
O11 O 0.09567 0.34641 0.21517 0.0
O12 O 0.09316 0.3474 0.25466 0.0
In13 In 0.13052 0.63175 0.73638 0.0
O14 O 0.1365 0.59558 0.71473 0.0
O15 O 0.12203 0.59397 0.7515 0.0
C16 C 0.13621 0.6695 0.7046 0.0
C17 C 0.08195 0.63926 0.74185 0.0
C18 C 0.17013 0.63678 0.76626 0.0
O19 O 0.13991 0.64723 0.69796 0.0
O20 O 0.13085 0.67241 0.72719 0.0
O21 O 0.14852 0.64252 0.77324 0.0
O22 O 0.17162 0.62885 0.74428 0.0
C23 C 0.12859 0.58224 0.73235 0.0
O24 O 0.09672 0.64134 0.76005 0.0
O25 O 0.09178 0.63309 0.72155 0.0
In26 In 0.85414 0.63749 0.25817 0.0
O27 O 0.85117 0.59979 0.278 0.0
O28 O 0.855 0.60044 0.23872 0.0
C29 C 0.84732 0.67088 0.29477 0.0
C30 C 0.9024 0.64335 0.24858 0.0
C31 C 0.81549 0.65091 0.22952 0.0
O32 O 0.83958 0.6488 0.29657 0.0
O33 O 0.85858 0.6757 0.27491 0.0
O34 O 0.83751 0.65661 0.22418 0.0
O35 O 0.81312 0.63833 0.24909 0.0
C36 C 0.85277 0.58749 0.25806 0.0
O37 O 0.88602 0.64628 0.23201 0.0
O38 O 0.89436 0.63722 0.26969 0.0
In39 In 0.84798 0.34874 0.74152 0.0
O40 O 0.84324 0.38497 0.71951 0.0
O41 O 0.8525 0.38712 0.75787 0.0
C42 C 0.83108 0.31651 0.70698 0.0
C43 C 0.89725 0.34244 0.7443 0.0
C44 C 0.81662 0.33594 0.77818 0.0
O45 O 0.82213 0.33807 0.70932 0.0
O46 O 0.84882 0.31169 0.72143 0.0
O47 O 0.83766 0.32601 0.77579 0.0
O48 O 0.81174 0.3526 0.76249 0.0
C49 C 0.84795 0.39866 0.738 0.0
O50 O 0.88351 0.34104 0.76319 0.0
O51 O 0.88609 0.34703 0.72418 0.0
In52 In 0.26447 0.14193 0.36198 0.0
O53 O 0.23967 0.10813 0.35614 0.0
O54 O 0.27773 0.10238 0.36526 0.0
C55 C 0.23304 0.17908 0.35091 0.0
C56 C 0.27107 0.14634 0.41107 0.0
C57 C 0.29584 0.14828 0.32398 0.0
O58 O 0.22743 0.15653 0.34761 0.0
O59 O 0.25428 0.18271 0.36001 0.0
O60 O 0.30016 0.15739 0.34519 0.0
O61 O 0.2761 0.13596 0.32231 0.0
C62 C 0.25704 0.0928 0.36006 0.0
O63 O 0.28917 0.14615 0.39626 0.0
O64 O 0.25003 0.14449 0.401 0.0
In65 In 0.35258 0.73771 0.85065 0.0
O66 O 0.38925 0.71882 0.84152 0.0
O67 O 0.3879 0.75846 0.84324 0.0
C68 C 0.31892 0.70104 0.84759 0.0
C69 C 0.3586 0.74578 0.89935 0.0
C70 C 0.33441 0.76609 0.81396 0.0
O71 O 0.34002 0.69927 0.83767 0.0
O72 O 0.31539 0.72074 0.85972 0.0
O73 O 0.33054 0.7713 0.83653 0.0
O74 O 0.34746 0.74702 0.81028 0.0
C75 C 0.4008 0.73918 0.83973 0.0
O76 O 0.34721 0.76118 0.8857 0.0
O77 O 0.36631 0.72653 0.88845 0.0
In78 In 0.75105 0.86545 0.36593 0.0
O79 O 0.72495 0.88403 0.39383 0.0
O80 O 0.73575 0.84652 0.40006 0.0
C81 C 0.72285 0.86682 0.32434 0.0
C82 C 0.77851 0.90731 0.3682 0.0
C83 C 0.7776 0.82285 0.36478 0.0
O84 O 0.71356 0.8679 0.34576 0.0
O85 O 0.7461 0.86519 0.32403 0.0
O86 O 0.7878 0.84377 0.36744 0.0
O87 O 0.75438 0.82359 0.36281 0.0
C88 C 0.72367 0.86509 0.40761 0.0
O89 O 0.77293 0.89506 0.38732 0.0
O90 O 0.77109 0.89789 0.34811 0.0
In91 In 0.63143 0.22495 0.85882 0.0
O92 O 0.65 0.21185 0.89429 0.0
O93 O 0.61214 0.20229 0.88885 0.0
C94 C 0.62699 0.1927 0.82056 0.0
C95 C 0.59165 0.2553 0.86051 0.0
C96 C 0.67367 0.25115 0.85276 0.0
O97 O 0.63179 0.18559 0.84234 0.0
O98 O 0.62424 0.2158 0.81825 0.0
O99 O 0.65314 0.2614 0.85702 0.0
O100 O 0.67289 0.22783 0.85155 0.0
C101 C 0.63096 0.2014 0.90283 0.0
O102 O 0.60462 0.25051 0.87943 0.0
O103 O 0.5989 0.245 0.8408 0.0
In104 In 0.21994 0.85737 0.63012 0.0
O105 O 0.24649 0.85135 0.5978 0.0
O106 O 0.21446 0.87393 0.59211 0.0
C107 C 0.24494 0.83846 0.66877 0.0
C108 C 0.22024 0.90473 0.64503 0.0
C109 C 0.18478 0.82237 0.62622 0.0
O110 O 0.25426 0.8396 0.64727 0.0
O111 O 0.22301 0.84641 0.67047 0.0
O112 O 0.18066 0.843 0.6367 0.0
O113 O 0.20611 0.82009 0.61709 0.0
C114 C 0.23387 0.86458 0.58304 0.0
O115 O 0.20031 0.89435 0.63819 0.0
O116 O 0.2393 0.89121 0.64416 0.0
In117 In 0.63228 0.76621 0.14238 0.0
O118 O 0.63224 0.78845 0.10595 0.0
O119 O 0.62997 0.74907 0.10425 0.0
C120 C 0.64216 0.80266 0.17526 0.0
C121 C 0.58462 0.75459 0.14983 0.0
C122 C 0.67028 0.73577 0.15381 0.0
O123 O 0.65032 0.80319 0.15333 0.0
O124 O 0.62877 0.7842 0.18021 0.0
O125 O 0.64864 0.73231 0.16182 0.0
O126 O 0.67267 0.75445 0.13994 0.0
C127 C 0.63062 0.76928 0.09251 0.0
O128 O 0.60162 0.73845 0.15047 0.0
O129 O 0.59172 0.77649 0.14539 0.0
In130 In 0.71853 0.12708 0.63023 0.0
O131 O 0.69445 0.11147 0.59891 0.0
O132 O 0.71033 0.14739 0.59442 0.0
C133 C 0.68473 0.12217 0.66695 0.0
C134 C 0.74759 0.08617 0.6278 0.0
C135 C 0.74486 0.16909 0.63861 0.0
O136 O 0.67935 0.13117 0.64604 0.0
O137 O 0.70679 0.11487 0.66896 0.0
O138 O 0.75488 0.14919 0.63142 0.0
O139 O 0.7218 0.16772 0.6416 0.0
C140 C 0.69722 0.13031 0.5852 0.0
O141 O 0.74361 0.09765 0.64781 0.0
O142 O 0.73727 0.09556 0.60899 0.0
In143 In 0.35347 0.24911 0.12519 0.0
O144 O 0.38869 0.27298 0.12711 0.0
O145 O 0.39189 0.23374 0.12279 0.0
C146 C 0.3151 0.28008 0.13161 0.0
C147 C 0.34617 0.2379 0.07745 0.0
C148 C 0.34898 0.22242 0.16686 0.0
O149 O 0.33724 0.28728 0.13453 0.0
O150 O 0.31264 0.25749 0.12584 0.0
O151 O 0.34264 0.21387 0.14592 0.0
O152 O 0.35697 0.24441 0.16664 0.0
C153 C 0.40279 0.25425 0.12536 0.0
O154 O 0.34695 0.22118 0.09391 0.0
O155 O 0.3495 0.25979 0.08512 0.0
In156 In 0.84871 0.63473 0.74452 0.0
O157 O 0.88421 0.64278 0.76622 0.0
O158 O 0.88659 0.63564 0.72734 0.0
C159 C 0.8132 0.64366 0.77823 0.0
C160 C 0.84851 0.58488 0.74063 0.0
C161 C 0.83783 0.67128 0.71212 0.0
O162 O 0.8355 0.64978 0.78184 0.0
O163 O 0.80905 0.63288 0.75786 0.0
O164 O 0.83178 0.64895 0.70802 0.0
O165 O 0.84906 0.67488 0.73234 0.0
C166 C 0.89782 0.64084 0.74726 0.0
O167 O 0.84229 0.59868 0.72265 0.0
O168 O 0.85456 0.59629 0.76017 0.0
In169 In 0.84878 0.35234 0.23801 0.0
O170 O 0.84312 0.38689 0.2622 0.0
O171 O 0.85428 0.39175 0.22468 0.0
C172 C 0.83656 0.31555 0.26948 0.0
C173 C 0.89791 0.34541 0.23519 0.0
C174 C 0.81381 0.34532 0.20292 0.0
O175 O 0.8309 0.33795 0.27371 0.0
O176 O 0.84801 0.3119 0.24946 0.0
O177 O 0.83596 0.33841 0.19997 0.0
O178 O 0.80949 0.35582 0.22338 0.0
C179 C 0.84879 0.40184 0.24506 0.0
O180 O 0.88425 0.34513 0.21609 0.0
O181 O 0.88677 0.34941 0.25533 0.0
In182 In 0.131 0.34803 0.74946 0.0
O183 O 0.09512 0.34065 0.77063 0.0
O184 O 0.09387 0.34261 0.7311 0.0
C185 C 0.16721 0.34314 0.78358 0.0
C186 C 0.12792 0.39706 0.74209 0.0
C187 C 0.14769 0.3119 0.71962 0.0
O188 O 0.1466 0.33229 0.78585 0.0
O189 O 0.16889 0.35709 0.76491 0.0
O190 O 0.1514 0.33458 0.71481 0.0
O191 O 0.13508 0.30781 0.73882 0.0
C192 C 0.0821 0.33965 0.75107 0.0
O193 O 0.13535 0.3825 0.72523 0.0
O194 O 0.12228 0.38678 0.76236 0.0
In195 In 0.13264 0.63499 0.22818 0.0
O196 O 0.13883 0.6023 0.25462 0.0
O197 O 0.11706 0.59679 0.22196 0.0
C198 C 0.14726 0.67482 0.25424 0.0
C199 C 0.08462 0.64717 0.22585 0.0
C200 C 0.16895 0.63084 0.19436 0.0
O201 O 0.14714 0.65325 0.26356 0.0
O202 O 0.14091 0.67595 0.23171 0.0
O203 O 0.14835 0.64083 0.18914 0.0
O204 O 0.17092 0.62302 0.21632 0.0
C205 C 0.12609 0.58755 0.24152 0.0
O206 O 0.09684 0.64257 0.20633 0.0
O207 O 0.09673 0.64565 0.24584 0.0
In208 In 0.74357 0.86499 0.62949 0.0
O209 O 0.75834 0.90006 0.64745 0.0
O210 O 0.76723 0.89424 0.60956 0.0
C211 C 0.77105 0.82321 0.63428 0.0
C212 C 0.7188 0.86398 0.58603 0.0
C213 C 0.71384 0.86441 0.66965 0.0
O214 O 0.7809 0.84444 0.63318 0.0
O215 O 0.74781 0.82327 0.63266 0.0
O216 O 0.7053 0.86291 0.64787 0.0
O217 O 0.73701 0.86651 0.67094 0.0
C218 C 0.76864 0.90835 0.62824 0.0
O219 O 0.71744 0.88234 0.60059 0.0
O220 O 0.73223 0.84636 0.59361 0.0
In221 In 0.63428 0.23202 0.12782 0.0
O222 O 0.64688 0.204 0.09838 0.0
O223 O 0.61783 0.22903 0.08914 0.0
C224 C 0.64444 0.20552 0.16908 0.0
C225 C 0.58636 0.24287 0.13499 0.0
C226 C 0.67026 0.26689 0.12664 0.0
O227 O 0.64453 0.19587 0.14773 0.0
O228 O 0.63951 0.2284 0.16949 0.0
O229 O 0.64887 0.27127 0.13483 0.0
O230 O 0.67327 0.24519 0.11847 0.0
C231 C 0.63142 0.21128 0.08234 0.0
O232 O 0.60124 0.25852 0.12594 0.0
O233 O 0.59576 0.22203 0.14032 0.0
In234 In 0.2765 0.13071 0.64541 0.0
O235 O 0.29751 0.13136 0.60845 0.0
O236 O 0.25843 0.13608 0.60807 0.0
C237 C 0.31461 0.13564 0.67731 0.0
C238 C 0.26173 0.08336 0.64959 0.0
C239 C 0.2483 0.16921 0.66002 0.0
O240 O 0.31532 0.14425 0.65553 0.0
O241 O 0.29483 0.12458 0.68279 0.0
O242 O 0.2432 0.14699 0.66536 0.0
O243 O 0.26799 0.17206 0.64786 0.0
C244 C 0.27815 0.13505 0.59575 0.0
O245 O 0.24692 0.10136 0.65174 0.0
O246 O 0.28387 0.08926 0.64503 0.0
In247 In 0.35602 0.72588 0.13025 0.0
O248 O 0.39281 0.70608 0.13862 0.0
O249 O 0.39043 0.74542 0.14287 0.0
C250 C 0.32148 0.69009 0.12653 0.0
C251 C 0.36235 0.73944 0.08284 0.0
C252 C 0.33794 0.75163 0.16876 0.0
O253 O 0.34194 0.68638 0.13743 0.0
O254 O 0.31896 0.71142 0.11725 0.0
O255 O 0.33879 0.76067 0.14711 0.0
O256 O 0.34558 0.72954 0.17066 0.0
C257 C 0.40362 0.72614 0.1444 0.0
O258 O 0.34923 0.75208 0.09759 0.0
O259 O 0.37209 0.72021 0.0921 0.0
In260 In 0.73979 0.12842 0.36343 0.0
O261 O 0.76634 0.10134 0.38309 0.0
O262 O 0.75175 0.09128 0.34781 0.0
C263 C 0.7678 0.16938 0.35644 0.0
C264 C 0.71511 0.12935 0.40669 0.0
C265 C 0.70983 0.13085 0.32329 0.0
O266 O 0.77684 0.14778 0.35559 0.0
O267 O 0.74505 0.17017 0.36131 0.0
O268 O 0.70211 0.13532 0.34491 0.0
O269 O 0.73224 0.12451 0.32214 0.0
C270 C 0.7654 0.08542 0.3659 0.0
O271 O 0.71172 0.11228 0.39094 0.0
O272 O 0.73084 0.14548 0.40056 0.0
In273 In 0.37219 0.25515 0.85205 0.0
O274 O 0.37107 0.2274 0.88408 0.0
O275 O 0.3521 0.26201 0.8879 0.0
C276 C 0.38149 0.22067 0.81698 0.0
C277 C 0.41589 0.27838 0.85951 0.0
C278 C 0.3299 0.2778 0.83786 0.0
O279 O 0.37363 0.21511 0.83826 0.0
O280 O 0.38493 0.24355 0.81355 0.0
O281 O 0.34892 0.28996 0.84413 0.0
O282 O 0.33267 0.25454 0.8379 0.0
C283 C 0.35754 0.24124 0.89732 0.0
O284 O 0.4071 0.26272 0.8744 0.0
O285 O 0.40233 0.28294 0.84096 0.0
In286 In 0.24104 0.85931 0.35034 0.0
O287 O 0.22167 0.89642 0.34353 0.0
O288 O 0.26101 0.89573 0.34793 0.0
C289 C 0.20611 0.8248 0.34223 0.0
C290 C 0.24597 0.86144 0.39967 0.0
C291 C 0.27148 0.84392 0.31427 0.0
O292 O 0.20451 0.8464 0.33314 0.0
O293 O 0.22455 0.82126 0.35619 0.0
O294 O 0.2751 0.83802 0.33673 0.0
O295 O 0.25316 0.85797 0.31045 0.0
C296 C 0.2417 0.90859 0.34459 0.0
O297 O 0.26311 0.85292 0.3861 0.0
O298 O 0.22657 0.86805 0.38831 0.0
In299 In 0.63227 0.76053 0.85722 0.0
O300 O 0.63577 0.78422 0.89249 0.0
O301 O 0.62608 0.74609 0.89597 0.0
C302 C 0.64261 0.79258 0.8204 0.0
C303 C 0.58389 0.7539 0.84829 0.0
C304 C 0.66969 0.72795 0.85144 0.0
O305 O 0.64768 0.79747 0.8428 0.0
O306 O 0.63265 0.77172 0.81684 0.0
O307 O 0.64761 0.72276 0.84575 0.0
O308 O 0.67282 0.7495 0.86005 0.0
C309 C 0.63038 0.76641 0.90676 0.0
O310 O 0.59929 0.73623 0.84702 0.0
O311 O 0.59294 0.77465 0.85434 0.0
H312 H 0.15106 0.55939 0.27607 0.0
H313 H 0.09157 0.43431 0.22371 0.0
H314 H 0.09318 0.55577 0.22078 0.0
H315 H 0.14941 0.43464 0.27915 0.0
H316 H 0.08844 0.47922 0.22705 0.0
H317 H 0.14752 0.51427 0.282 0.0
C318 C 0.13742 0.54914 0.26544 0.0
C319 C 0.12264 0.56116 0.24765 0.0
C320 C 0.10175 0.46957 0.23867 0.0
C321 C 0.1185 0.50992 0.25428 0.0
C322 C 0.10355 0.4439 0.23672 0.0
C323 C 0.12101 0.43087 0.25092 0.0
C324 C 0.11779 0.48244 0.25468 0.0
C325 C 0.13581 0.44413 0.26775 0.0
C326 C 0.13543 0.52346 0.2688 0.0
C327 C 0.1052 0.54715 0.23442 0.0
N328 N 0.13412 0.46932 0.26895 0.0
N329 N 0.10375 0.52229 0.23788 0.0
H330 H 0.92825 0.64575 0.78799 0.0
H331 H 0.0498 0.64512 0.70376 0.0
H332 H 0.92876 0.64363 0.70792 0.0
H333 H 0.05317 0.64315 0.78377 0.0
H334 H 0.00513 0.64921 0.70584 0.0
H335 H 0.97367 0.649 0.78776 0.0
C336 C 0.93791 0.64613 0.77041 0.0
C337 C 0.92485 0.64416 0.74794 0.0
C338 C 0.01552 0.64796 0.72303 0.0
C339 C 0.97638 0.64795 0.74754 0.0
C340 C 0.04107 0.64559 0.72183 0.0
C341 C 0.05511 0.64347 0.74363 0.0
C342 C 0.00374 0.64797 0.7462 0.0
C343 C 0.04289 0.64458 0.76654 0.0
C344 C 0.96375 0.64797 0.77029 0.0
C345 C 0.93813 0.64483 0.72568 0.0
N346 N 0.01776 0.64651 0.76726 0.0
N347 N 0.96312 0.64657 0.72607 0.0
H348 H 0.83942 0.42898 0.28727 0.0
H349 H 0.85823 0.55864 0.21719 0.0
H350 H 0.85897 0.43659 0.21006 0.0
H351 H 0.84592 0.55408 0.29616 0.0
H352 H 0.85713 0.51362 0.21468 0.0
H353 H 0.84033 0.47444 0.29142 0.0
C354 C 0.84388 0.44021 0.27123 0.0
C355 C 0.84911 0.42905 0.24828 0.0
C356 C 0.85469 0.52235 0.23262 0.0
C357 C 0.85017 0.48079 0.25286 0.0
C358 C 0.85529 0.54812 0.23406 0.0
C359 C 0.85217 0.56011 0.25693 0.0
C360 C 0.85086 0.50829 0.25419 0.0
C361 C 0.84843 0.5455 0.27816 0.0
C362 C 0.84444 0.46609 0.27361 0.0
C363 C 0.85481 0.4444 0.2281 0.0
N364 N 0.84784 0.52028 0.27629 0.0
N365 N 0.85516 0.46941 0.23086 0.0
H366 H 0.05092 0.33687 0.79118 0.0
H367 H 0.92955 0.34082 0.7057 0.0
H368 H 0.05158 0.33563 0.7111 0.0
H369 H 0.92654 0.33694 0.78563 0.0
H370 H 0.97448 0.33723 0.70775 0.0
H371 H 0.0055 0.33499 0.79011 0.0
C372 C 0.04152 0.336 0.77342 0.0
C373 C 0.05497 0.33658 0.7512 0.0
C374 C 0.96405 0.33705 0.72489 0.0
C375 C 0.00327 0.33456 0.74981 0.0
C376 C 0.93838 0.33915 0.72371 0.0
C377 C 0.92435 0.33932 0.74553 0.0
C378 C 0.97588 0.33528 0.74808 0.0
C379 C 0.93674 0.33696 0.76835 0.0
C380 C 0.01565 0.33496 0.7728 0.0
C381 C 0.04193 0.33539 0.72868 0.0
N382 N 0.96186 0.33518 0.76907 0.0
N383 N 0.01685 0.33458 0.72857 0.0
H384 H 0.1077 0.43028 0.77397 0.0
H385 H 0.14536 0.55068 0.69577 0.0
H386 H 0.14412 0.4254 0.70295 0.0
H387 H 0.10828 0.5518 0.76661 0.0
H388 H 0.14369 0.50502 0.69627 0.0
H389 H 0.1062 0.47515 0.76984 0.0
C390 C 0.11536 0.4387 0.75744 0.0
C391 C 0.12619 0.42415 0.73884 0.0
C392 C 0.13585 0.51535 0.7116 0.0
C393 C 0.12466 0.47573 0.73398 0.0
C394 C 0.13679 0.54133 0.71132 0.0
C395 C 0.1271 0.55496 0.73126 0.0
C396 C 0.12511 0.50314 0.73195 0.0
C397 C 0.11616 0.54204 0.75093 0.0
C398 C 0.11449 0.46437 0.75506 0.0
C399 C 0.13566 0.43604 0.71774 0.0
N400 N 0.11553 0.51692 0.75079 0.0
N401 N 0.13482 0.46124 0.71591 0.0
H402 H 0.93875 0.64846 0.28298 0.0
H403 H 0.0506 0.64129 0.18806 0.0
H404 H 0.9263 0.64705 0.20384 0.0
H405 H 0.05769 0.66398 0.26459 0.0
H406 H 0.00527 0.64379 0.19209 0.0
H407 H 0.98283 0.65377 0.27573 0.0
C408 C 0.94535 0.64929 0.26403 0.0
C409 C 0.92895 0.64717 0.24397 0.0
C410 C 0.01685 0.64855 0.20784 0.0
C411 C 0.9795 0.65319 0.23545 0.0
C412 C 0.04263 0.64718 0.20553 0.0
C413 C 0.0578 0.65207 0.22614 0.0
C414 C 0.00644 0.65471 0.23092 0.0
C415 C 0.04665 0.65965 0.24834 0.0
C416 C 0.97052 0.65247 0.25987 0.0
C417 C 0.93845 0.64857 0.21979 0.0
N418 N 0.02169 0.66047 0.2502 0.0
N419 N 0.96322 0.65125 0.21615 0.0
H420 H 0.86261 0.55283 0.7769 0.0
H421 H 0.83668 0.42908 0.69845 0.0
H422 H 0.83537 0.55461 0.70152 0.0
H423 H 0.85996 0.43058 0.77513 0.0
H424 H 0.83714 0.47474 0.69801 0.0
H425 H 0.86297 0.50773 0.77541 0.0
C426 C 0.85668 0.54369 0.75998 0.0
C427 C 0.84886 0.55749 0.73933 0.0
C428 C 0.84215 0.46501 0.71489 0.0
C429 C 0.84919 0.50558 0.73746 0.0
C430 C 0.8419 0.43901 0.71514 0.0
C431 C 0.84824 0.42606 0.73688 0.0
C432 C 0.84885 0.47803 0.73651 0.0
C433 C 0.85488 0.43978 0.75798 0.0
C434 C 0.85688 0.51787 0.75913 0.0
C435 C 0.84148 0.54462 0.71788 0.0
N436 N 0.855 0.46494 0.75725 0.0
N437 N 0.84178 0.51932 0.71749 0.0
H438 H 0.92915 0.3395 0.27431 0.0
H439 H 0.05238 0.34251 0.19285 0.0
H440 H 0.92798 0.34248 0.19428 0.0
H441 H 0.05091 0.33594 0.27265 0.0
H442 H 0.00705 0.33931 0.19213 0.0
H443 H 0.97396 0.33516 0.27333 0.0
C444 C 0.93837 0.33918 0.25649 0.0
C445 C 0.9249 0.34158 0.23435 0.0
C446 C 0.01671 0.33834 0.20975 0.0
C447 C 0.97635 0.33671 0.23304 0.0
C448 C 0.04253 0.34013 0.21016 0.0
C449 C 0.05532 0.33974 0.23286 0.0
C450 C 0.00374 0.3362 0.23221 0.0
C451 C 0.04176 0.33657 0.25475 0.0
C452 C 0.96398 0.33664 0.25592 0.0
C453 C 0.93776 0.3408 0.21178 0.0
N454 N 0.01673 0.33509 0.25388 0.0
N455 N 0.96286 0.33863 0.21169 0.0
H456 H 0.23873 0.14591 0.56649 0.0
H457 H 0.31377 0.14301 0.4388 0.0
H458 H 0.31745 0.13212 0.56349 0.0
H459 H 0.23462 0.15235 0.44498 0.0
H460 H 0.31677 0.14206 0.48431 0.0
H461 H 0.23807 0.15124 0.5218 0.0
C462 C 0.25593 0.14397 0.55637 0.0
C463 C 0.27816 0.1384 0.56865 0.0
C464 C 0.2988 0.14445 0.47563 0.0
C465 C 0.27757 0.14448 0.51726 0.0
C466 C 0.29709 0.14506 0.44974 0.0
C467 C 0.27389 0.14758 0.4382 0.0
C468 C 0.27714 0.14647 0.48988 0.0
C469 C 0.25286 0.15018 0.45312 0.0
C470 C 0.25556 0.14707 0.5308 0.0
C471 C 0.2999 0.1363 0.55462 0.0
N472 N 0.25499 0.14947 0.47814 0.0
N473 N 0.29907 0.13925 0.52955 0.0
H474 H 0.39163 0.72165 0.92859 0.0
H475 H 0.33678 0.77411 0.05547 0.0
H476 H 0.33485 0.77811 0.93089 0.0
H477 H 0.39428 0.7186 0.05006 0.0
H478 H 0.33889 0.78009 0.01035 0.0
H479 H 0.3961 0.72458 0.97336 0.0
C480 C 0.38014 0.73476 0.93859 0.0
C481 C 0.36258 0.74939 0.92614 0.0
C482 C 0.35122 0.76683 0.01913 0.0
C483 C 0.36741 0.75272 0.97759 0.0
C484 C 0.35005 0.76344 0.04482 0.0
C485 C 0.36513 0.74559 0.05638 0.0
C486 C 0.36762 0.75226 0.00507 0.0
C487 C 0.38206 0.73232 0.04184 0.0
C488 C 0.38273 0.73649 0.96418 0.0
C489 C 0.34848 0.76637 0.93991 0.0
N490 N 0.3827 0.73579 0.01696 0.0
N491 N 0.35095 0.76736 0.96504 0.0
H492 H 0.70805 0.90529 0.43471 0.0
H493 H 0.709 0.82391 0.5571 0.0
H494 H 0.71276 0.82531 0.43656 0.0
H495 H 0.70507 0.90392 0.55756 0.0
H496 H 0.70002 0.82405 0.51278 0.0
H497 H 0.69694 0.90518 0.47879 0.0
C498 C 0.70617 0.88769 0.44425 0.0
C499 C 0.71182 0.8653 0.4322 0.0
C500 C 0.70069 0.84162 0.52255 0.0
C501 C 0.69935 0.86502 0.48244 0.0
C502 C 0.7058 0.84151 0.54788 0.0
C503 C 0.70821 0.86395 0.56082 0.0
C504 C 0.69852 0.86435 0.50993 0.0
C505 C 0.70357 0.88622 0.54812 0.0
C506 C 0.6999 0.88763 0.46941 0.0
C507 C 0.709 0.84303 0.44532 0.0
N508 N 0.69947 0.88592 0.5232 0.0
N509 N 0.70332 0.84348 0.4698 0.0
H510 H 0.667 0.18542 0.05705 0.0
H511 H 0.5899 0.19101 0.93036 0.0
H512 H 0.59251 0.21383 0.05038 0.0
H513 H 0.66974 0.19161 0.9339 0.0
H514 H 0.58864 0.18498 0.97538 0.0
H515 H 0.66584 0.1739 0.01293 0.0
C516 C 0.65027 0.18879 0.0464 0.0
C517 C 0.62998 0.20097 0.0571 0.0
C518 C 0.60642 0.18593 0.96619 0.0
C519 C 0.62844 0.18768 0.00711 0.0
C520 C 0.60716 0.18925 0.94053 0.0
C521 C 0.62996 0.19227 0.92856 0.0
C522 C 0.62863 0.18546 0.97981 0.0
C523 C 0.65178 0.18976 0.94255 0.0
C524 C 0.64964 0.18227 0.02131 0.0
C525 C 0.6087 0.20485 0.04263 0.0
N526 N 0.65059 0.1868 0.96754 0.0
N527 N 0.60854 0.19839 0.0183 0.0
H528 H 0.28058 0.84076 0.43114 0.0
H529 H 0.2138 0.89761 0.55072 0.0
H530 H 0.2164 0.88866 0.42964 0.0
H531 H 0.26833 0.83908 0.55562 0.0
H532 H 0.22061 0.89991 0.50618 0.0
H533 H 0.28175 0.84462 0.47664 0.0
C534 C 0.26688 0.85218 0.44038 0.0
C535 C 0.24817 0.86415 0.42675 0.0
C536 C 0.23123 0.88662 0.51695 0.0
C537 C 0.24954 0.86884 0.47831 0.0
C538 C 0.22735 0.88533 0.54239 0.0
C539 C 0.24024 0.86786 0.55673 0.0
C540 C 0.24794 0.87015 0.50566 0.0
C541 C 0.25787 0.85267 0.54509 0.0
C542 C 0.26755 0.85437 0.46625 0.0
C543 C 0.23093 0.87883 0.43948 0.0
N544 N 0.26102 0.85394 0.52008 0.0
N545 N 0.23201 0.88069 0.4645 0.0
H546 H 0.62239 0.73048 0.06155 0.0
H547 H 0.63999 0.80739 0.93583 0.0
H548 H 0.63636 0.80939 0.06133 0.0
H549 H 0.61852 0.7303 0.93968 0.0
H550 H 0.63913 0.80934 0.98142 0.0
H551 H 0.62135 0.73079 0.01652 0.0
C552 C 0.62523 0.74794 0.05197 0.0
C553 C 0.62954 0.76994 0.06517 0.0
C554 C 0.63453 0.79207 0.9722 0.0
C555 C 0.62843 0.77045 0.01335 0.0
C556 C 0.63504 0.79094 0.94625 0.0
C557 C 0.62942 0.76863 0.93401 0.0
C558 C 0.62843 0.7707 0.98584 0.0
C559 C 0.62308 0.74788 0.94833 0.0
C560 C 0.6246 0.74812 0.0262 0.0
C561 C 0.633 0.79202 0.05178 0.0
N562 N 0.62284 0.74941 0.97341 0.0
N563 N 0.63247 0.79172 0.02651 0.0
H564 H 0.69222 0.17117 0.55611 0.0
H565 H 0.69276 0.09117 0.43189 0.0
H566 H 0.68384 0.09151 0.55511 0.0
H567 H 0.71011 0.16919 0.43696 0.0
H568 H 0.67899 0.09208 0.47532 0.0
H569 H 0.68742 0.17188 0.51114 0.0
C570 C 0.68893 0.15385 0.5464 0.0
C571 C 0.6889 0.13121 0.55918 0.0
C572 C 0.68541 0.10907 0.46674 0.0
C573 C 0.684 0.13175 0.50766 0.0
C574 C 0.69321 0.10856 0.44201 0.0
C575 C 0.703 0.13004 0.4311 0.0
C576 C 0.68732 0.13125 0.4804 0.0
C577 C 0.70311 0.15211 0.44487 0.0
C578 C 0.68624 0.15423 0.52072 0.0
C579 C 0.68421 0.10935 0.54581 0.0
N580 N 0.69565 0.15208 0.46884 0.0
N581 N 0.68246 0.11007 0.52064 0.0
H582 H 0.35838 0.19612 0.05093 0.0
H583 H 0.32099 0.26287 0.92397 0.0
H584 H 0.32399 0.2682 0.04435 0.0
H585 H 0.37577 0.2045 0.92769 0.0
H586 H 0.31182 0.25641 0.96769 0.0
H587 H 0.35546 0.19128 0.00551 0.0
C588 C 0.34983 0.21066 0.03994 0.0
C589 C 0.34178 0.23276 0.0511 0.0
C590 C 0.32568 0.24481 0.95892 0.0
C591 C 0.33809 0.22728 -0.00015 0.0
C592 C 0.33093 0.24851 0.934 0.0
C593 C 0.34958 0.2346 0.92249 0.0
C594 C 0.33939 0.2273 0.97253 0.0
C595 C 0.3615 0.21584 0.93611 0.0
C596 C 0.34822 0.20793 0.01417 0.0
C597 C 0.3308 0.25108 0.03629 0.0
N598 N 0.35652 0.213 0.96067 0.0
N599 N 0.32938 0.24798 0.01142 0.0
H600 H 0.55242 0.21285 0.15651 0.0
H601 H 0.43356 0.29516 0.12348 0.0
H602 H 0.55954 0.28343 0.11922 0.0
H603 H 0.43359 0.21561 0.13361 0.0
H604 H 0.479 0.29499 0.12873 0.0
H605 H 0.50767 0.21802 0.15658 0.0
C606 C 0.54454 0.22956 0.14848 0.0
C607 C 0.55962 0.24757 0.1375 0.0
C608 C 0.46889 0.27767 0.12979 0.0
C609 C 0.50835 0.25352 0.13733 0.0
C610 C 0.4431 0.27775 0.12681 0.0
C611 C 0.42991 0.25534 0.12796 0.0
C612 C 0.48121 0.25511 0.13442 0.0
C613 C 0.44302 0.23329 0.13238 0.0
C614 C 0.51899 0.23247 0.14845 0.0
C615 C 0.54844 0.26901 0.12767 0.0
N616 N 0.46786 0.23376 0.13552 0.0
N617 N 0.52334 0.27135 0.1276 0.0
H618 H 0.55849 0.71061 0.8401 0.0
H619 H 0.42806 0.78074 0.8318 0.0
H620 H 0.54893 0.7901 0.84466 0.0
H621 H 0.43462 0.7011 0.83849 0.0
H622 H 0.47297 0.78384 0.82979 0.0
H623 H 0.51374 0.70619 0.83346 0.0
C624 C 0.54698 0.72711 0.83958 0.0
C625 C 0.5573 0.75073 0.84319 0.0
C626 C 0.46464 0.76564 0.83154 0.0
C627 C 0.50641 0.74586 0.83549 0.0
C628 C 0.43899 0.76386 0.83265 0.0
C629 C 0.42768 0.74066 0.83563 0.0
C630 C 0.47915 0.74408 0.83357 0.0
C631 C 0.44269 0.71937 0.83635 0.0
C632 C 0.52151 0.72458 0.83579 0.0
C633 C 0.54167 0.77152 0.84221 0.0
N634 N 0.46775 0.7216 0.83558 0.0
N635 N 0.51702 0.76858 0.83855 0.0
H636 H 0.79514 0.93531 0.32966 0.0
H637 H 0.78185 0.06054 0.40726 0.0
H638 H 0.78445 0.93721 0.40895 0.0
H639 H 0.77629 0.05461 0.32761 0.0
H640 H 0.79519 0.0169 0.40905 0.0
H641 H 0.80164 0.98013 0.32992 0.0
C642 C 0.79471 0.94511 0.34722 0.0
C643 C 0.78871 0.93267 0.36923 0.0
C644 C 0.7915 0.02534 0.39117 0.0
C645 C 0.79564 0.98401 0.36961 0.0
C646 C 0.78397 0.0502 0.39014 0.0
C647 C 0.77756 0.06094 0.36729 0.0
C648 C 0.7928 0.01138 0.36916 0.0
C649 C 0.78064 0.04685 0.34565 0.0
C650 C 0.79833 0.97071 0.34735 0.0
C651 C 0.78872 0.9462 0.39151 0.0
N652 N 0.7878 0.02275 0.34714 0.0
N653 N 0.79159 0.97129 0.39108 0.0
H654 H 0.44476 0.29929 0.82356 0.0
H655 H 0.56694 0.27093 0.90188 0.0
H656 H 0.44559 0.2769 0.90043 0.0
H657 H 0.5632 0.2717 0.82189 0.0
H658 H 0.52462 0.28727 0.90339 0.0
H659 H 0.48989 0.30367 0.82506 0.0
C660 C 0.45437 0.29597 0.84093 0.0
C661 C 0.4416 0.2872 0.86176 0.0
C662 C 0.53327 0.28431 0.88552 0.0
C663 C 0.49297 0.29201 0.86355 0.0
C664 C 0.5574 0.27503 0.88464 0.0
C665 C 0.56831 0.26947 0.86172 0.0
C666 C 0.52008 0.28807 0.86331 0.0
C667 C 0.55524 0.27531 0.83995 0.0
C668 C 0.4801 0.29835 0.84174 0.0
C669 C 0.45487 0.28327 0.88383 0.0
N670 N 0.53166 0.28398 0.84127 0.0
N671 N 0.47991 0.28533 0.88405 0.0
H672 H 0.20302 0.94184 0.34233 0.0
H673 H 0.2926 0.05753 0.36534 0.0
H674 H 0.28279 0.93741 0.34585 0.0
H675 H 0.21477 0.06661 0.34907 0.0
H676 H 0.2883 0.01295 0.35986 0.0
H677 H 0.20591 0.98728 0.3454 0.0
C678 C 0.2211 0.95044 0.34349 0.0
C679 C 0.2427 0.9359 0.34396 0.0
C680 C 0.27211 0.02462 0.35742 0.0
C681 C 0.24611 0.98749 0.34773 0.0
C682 C 0.27454 0.05009 0.36067 0.0
C683 C 0.254 0.06575 0.35764 0.0
C684 C 0.24893 0.01459 0.35119 0.0
C685 C 0.23106 0.05511 0.35157 0.0
C686 C 0.22274 0.9763 0.34531 0.0
C687 C 0.26565 0.94789 0.34555 0.0
N688 N 0.2291 0.0301 0.34855 0.0
N689 N 0.26673 0.97293 0.34751 0.0
H690 H 0.56309 0.70853 0.15038 0.0
H691 H 0.42718 0.76556 0.16472 0.0
H692 H 0.54651 0.78665 0.15759 0.0
H693 H 0.44003 0.69066 0.13919 0.0
H694 H 0.4715 0.77084 0.17068 0.0
H695 H 0.5187 0.69934 0.15386 0.0
C696 C 0.55012 0.7237 0.15291 0.0
C697 C 0.55836 0.74841 0.15346 0.0
C698 C 0.46469 0.75316 0.16392 0.0
C699 C 0.50793 0.73805 0.15763 0.0
C700 C 0.43937 0.75012 0.16055 0.0
C701 C 0.43002 0.72777 0.15105 0.0
C702 C 0.48089 0.73379 0.15762 0.0
C703 C 0.4466 0.70825 0.14636 0.0
C704 C 0.52487 0.71844 0.15485 0.0
C705 C 0.5409 0.76737 0.15682 0.0
N706 N 0.47138 0.7118 0.14941 0.0
N707 N 0.51652 0.76179 0.15871 0.0
H708 H 0.77757 0.93636 0.58679 0.0
H709 H 0.76871 0.06067 0.6663 0.0
H710 H 0.77893 0.93936 0.66679 0.0
H711 H 0.75632 0.05695 0.58724 0.0
H712 H 0.78392 0.01788 0.6655 0.0
H713 H 0.78157 0.98167 0.58556 0.0
C714 C 0.77941 0.94649 0.60407 0.0
C715 C 0.77745 0.93422 0.62694 0.0
C716 C 0.77825 0.02655 0.64825 0.0
C717 C 0.78169 0.98589 0.62569 0.0
C718 C 0.76959 0.05098 0.6487 0.0
C719 C 0.76079 0.06216 0.62689 0.0
C720 C 0.77797 0.01318 0.62584 0.0
C721 C 0.76259 0.04886 0.60456 0.0
C722 C 0.78153 0.97235 0.60337 0.0
C723 C 0.77996 0.94819 0.64876 0.0
N724 N 0.77062 0.02492 0.60466 0.0
N725 N 0.78157 0.97332 0.64762 0.0
H726 H 0.29125 0.04335 0.65758 0.0
H727 H 0.18696 0.94256 0.63612 0.0
H728 H 0.21463 0.06453 0.64853 0.0
H729 H 0.25827 0.92679 0.66899 0.0
H730 H 0.19513 0.98724 0.64117 0.0
H731 H 0.27863 0.00017 0.66151 0.0
C732 C 0.27173 0.03885 0.65644 0.0
C733 C 0.25396 0.0574 0.65256 0.0
C734 C 0.20874 0.97391 0.64764 0.0
C735 C 0.23929 0.008 0.65695 0.0
C736 C 0.20407 0.9485 0.64482 0.0
C737 C 0.22219 0.93111 0.65173 0.0
C738 C 0.23169 0.98167 0.65727 0.0
C739 C 0.24401 0.93964 0.66296 0.0
C740 C 0.26448 0.01423 0.65886 0.0
C741 C 0.22888 0.05064 0.65145 0.0
N742 N 0.24828 0.9643 0.66508 0.0
N743 N 0.22225 0.02636 0.65335 0.0
H744 H 0.13783 0.26935 0.26135 0.0
H745 H 0.2393 0.22847 0.3602 0.0
H746 H 0.17503 0.32154 0.30942 0.0
H747 H 0.19033 0.17672 0.32365 0.0
H748 H 0.21497 0.26287 0.34326 0.0
H749 H 0.15578 0.23519 0.28513 0.0
C750 C 0.14967 0.2736 0.27705 0.0
C751 C 0.15516 0.29826 0.28333 0.0
C752 C 0.20936 0.24399 0.33918 0.0
C753 C 0.17591 0.25928 0.31053 0.0
C754 C 0.22325 0.22436 0.3488 0.0
C755 C 0.21691 0.19976 0.3431 0.0
C756 C 0.18917 0.23896 0.3235 0.0
C757 C 0.1959 0.19545 0.32839 0.0
C758 C 0.15985 0.2541 0.29067 0.0
C759 C 0.17043 0.30275 0.30393 0.0
N760 N 0.18293 0.21488 0.31884 0.0
N761 N 0.18054 0.28341 0.31666 0.0
H762 H 0.27317 0.69993 0.86877 0.0
H763 H 0.21757 0.62279 0.75606 0.0
H764 H 0.31787 0.66355 0.81331 0.0
H765 H 0.17295 0.65777 0.81249 0.0
H766 H 0.25461 0.6316 0.78059 0.0
H767 H 0.23678 0.67822 0.8529 0.0
C768 C 0.2754 0.68696 0.85356 0.0
C769 C 0.29845 0.68383 0.84203 0.0
C770 C 0.23671 0.63712 0.78777 0.0
C771 C 0.25683 0.6593 0.82349 0.0
C772 C 0.21556 0.63217 0.77374 0.0
C773 C 0.19222 0.63994 0.7821 0.0
C774 C 0.23455 0.65015 0.81024 0.0
C775 C 0.19065 0.65172 0.80525 0.0
C776 C 0.2546 0.67463 0.84444 0.0
C777 C 0.30036 0.66666 0.82257 0.0
N778 N 0.21157 0.65675 0.81838 0.0
N779 N 0.27972 0.65535 0.8136 0.0
H780 H 0.81175 0.67079 0.33093 0.0
H781 H 0.82722 0.81644 0.35622 0.0
H782 H 0.86968 0.71586 0.29949 0.0
H783 H 0.75939 0.77585 0.36757 0.0
H784 H 0.84816 0.77727 0.34602 0.0
H785 H 0.79786 0.70678 0.35517 0.0
C786 C 0.82186 0.6881 0.32955 0.0
C787 C 0.84161 0.69054 0.31293 0.0
C788 C 0.82878 0.77695 0.35111 0.0
C789 C 0.82588 0.73159 0.34041 0.0
C790 C 0.81687 0.79924 0.35698 0.0
C791 C 0.79148 0.79936 0.3623 0.0
C792 C 0.8152 0.75469 0.35078 0.0
C793 C 0.77892 0.77658 0.36316 0.0
C794 C 0.81387 0.70862 0.34327 0.0
C795 C 0.85411 0.71334 0.31184 0.0
N796 N 0.79085 0.75518 0.35723 0.0
N797 N 0.84589 0.73307 0.32519 0.0
H798 H 0.77215 0.3571 0.78955 0.0
H799 H 0.72069 0.23308 0.84872 0.0
H800 H 0.81854 0.29401 0.80672 0.0
H801 H 0.67859 0.30125 0.84617 0.0
H802 H 0.75769 0.25605 0.83661 0.0
H803 H 0.73874 0.33844 0.81358 0.0
C804 C 0.77541 0.33947 0.79871 0.0
C805 C 0.79799 0.32689 0.79591 0.0
C806 C 0.74044 0.26607 0.83899 0.0
C807 C 0.75978 0.30527 0.82311 0.0
C808 C 0.71931 0.25295 0.84582 0.0
C809 C 0.69653 0.26526 0.8481 0.0
C810 C 0.73869 0.29163 0.83406 0.0
C811 C 0.6958 0.29103 0.8444 0.0
C812 C 0.75634 0.32883 0.81243 0.0
C813 C 0.80132 0.30422 0.80829 0.0
N814 N 0.71651 0.30333 0.83721 0.0
N815 N 0.78227 0.29393 0.82104 0.0
H816 H 0.14247 0.81865 0.65375 0.0
H817 H 0.1552 0.67128 0.65736 0.0
H818 H 0.19014 0.77666 0.60513 0.0
H819 H 0.11877 0.71601 0.71284 0.0
H820 H 0.15905 0.70835 0.63108 0.0
H821 H 0.12341 0.77987 0.66739 0.0
C822 C 0.14845 0.80133 0.64545 0.0
C823 C 0.16834 0.80074 0.62884 0.0
C824 C 0.14993 0.70991 0.64889 0.0
C825 C 0.1471 0.7564 0.64469 0.0
C826 C 0.14783 0.68883 0.66387 0.0
C827 C 0.1372 0.69079 0.68748 0.0
C828 C 0.14118 0.73293 0.65761 0.0
C829 C 0.12762 0.71383 0.69496 0.0
C830 C 0.13771 0.77918 0.65335 0.0
C831 C 0.17519 0.77783 0.61843 0.0
N832 N 0.13003 0.73402 0.68018 0.0
N833 N 0.16496 0.75648 0.62692 0.0
H834 H 0.71833 0.73963 0.13873 0.0
H835 H 0.76691 0.6395 0.23679 0.0
H836 H 0.67033 0.69632 0.18568 0.0
H837 H 0.81516 0.68201 0.18938 0.0
H838 H 0.73113 0.65699 0.21517 0.0
H839 H 0.75379 0.71572 0.15392 0.0
C840 C 0.71525 0.72494 0.1521 0.0
C841 C 0.69143 0.72007 0.16117 0.0
C842 C 0.74953 0.66236 0.20933 0.0
C843 C 0.73186 0.69276 0.17871 0.0
C844 C 0.76996 0.65238 0.22167 0.0
C845 C 0.79398 0.65953 0.215 0.0
C846 C 0.75315 0.67976 0.19028 0.0
C847 C 0.7969 0.67613 0.19519 0.0
C848 C 0.73548 0.7113 0.16076 0.0
C849 C 0.68843 0.70077 0.17834 0.0
N850 N 0.7767 0.68588 0.18366 0.0
N851 N 0.70845 0.68795 0.18672 0.0
H852 H 0.79516 0.17512 0.6407 0.0
H853 H 0.7863 0.31757 0.68297 0.0
H854 H 0.72633 0.21523 0.64829 0.0
H855 H 0.8508 0.27155 0.69469 0.0
H856 H 0.76609 0.28279 0.66169 0.0
H857 H 0.81768 0.21288 0.65236 0.0
C858 C 0.78482 0.19193 0.64462 0.0
C859 C 0.75886 0.19202 0.64382 0.0
C860 C 0.78479 0.28043 0.66867 0.0
C861 C 0.78442 0.23519 0.65699 0.0
C862 C 0.79636 0.3003 0.68067 0.0
C863 C 0.82014 0.29731 0.69079 0.0
C864 C 0.79718 0.25754 0.66666 0.0
C865 C 0.83234 0.27454 0.68734 0.0
C866 C 0.79765 0.21343 0.65129 0.0
C867 C 0.74636 0.21431 0.64895 0.0
N868 N 0.82067 0.25546 0.67571 0.0
N869 N 0.75924 0.23497 0.65542 0.0
H870 H 0.21265 0.37388 0.20655 0.0
H871 H 0.26776 0.27155 0.11685 0.0
H872 H 0.16789 0.32518 0.16137 0.0
H873 H 0.31307 0.32505 0.1555 0.0
H874 H 0.23096 0.2952 0.12807 0.0
H875 H 0.24924 0.36102 0.18327 0.0
C876 C 0.21047 0.3608 0.19142 0.0
C877 C 0.18731 0.3502 0.18615 0.0
C878 C 0.24894 0.30202 0.13387 0.0
C879 C 0.2291 0.33519 0.15968 0.0
C880 C 0.26995 0.28846 0.12753 0.0
C881 C 0.2934 0.29616 0.13566 0.0
C882 C 0.25131 0.32324 0.14882 0.0
C883 C 0.29525 0.31838 0.14909 0.0
C884 C 0.23136 0.35346 0.17814 0.0
C885 C 0.18547 0.33357 0.16623 0.0
N886 N 0.2744 0.33096 0.15564 0.0
N887 N 0.20617 0.32625 0.15398 0.0
H888 H 0.36485 0.236 0.21291 0.0
H889 H 0.29364 0.12557 0.27899 0.0
H890 H 0.32863 0.17639 0.17348 0.0
H891 H 0.3316 0.18385 0.31872 0.0
H892 H 0.31231 0.13997 0.24049 0.0
H893 H 0.35841 0.2138 0.2518 0.0
C894 C 0.35566 0.21813 0.21244 0.0
C895 C 0.34686 0.20817 0.19004 0.0
C896 C 0.31688 0.14942 0.25765 0.0
C897 C 0.33942 0.18269 0.23445 0.0
C898 C 0.30625 0.14119 0.27964 0.0
C899 C 0.31079 0.15385 0.30193 0.0
C900 C 0.33189 0.17067 0.25792 0.0
C901 C 0.32748 0.17374 0.30183 0.0
C902 C 0.35207 0.20543 0.23464 0.0
C903 C 0.33542 0.18484 0.19042 0.0
N904 N 0.33712 0.18183 0.28004 0.0
N905 N 0.33176 0.173 0.21235 0.0
H906 H 0.34812 0.76421 0.76562 0.0
H907 H 0.2302 0.83886 0.71711 0.0
H908 H 0.29582 0.79926 0.81492 0.0
H909 H 0.29124 0.81784 0.66998 0.0
H910 H 0.25347 0.82401 0.75316 0.0
H911 H 0.32746 0.78375 0.73037 0.0
C912 C 0.33237 0.77622 0.76901 0.0
C913 C 0.32354 0.78006 0.79315 0.0
C914 C 0.26182 0.82276 0.73495 0.0
C915 C 0.29961 0.80223 0.75288 0.0
C916 C 0.24851 0.83109 0.71436 0.0
C917 C 0.2588 0.82942 0.69054 0.0
C918 C 0.28549 0.8125 0.73166 0.0
C919 C 0.28261 0.81936 0.68803 0.0
C920 C 0.3206 0.78738 0.74889 0.0
C921 C 0.30318 0.79587 0.79655 0.0
N922 N 0.29511 0.81115 0.70834 0.0
N923 N 0.29169 0.8062 0.77656 0.0
H924 H 0.67268 0.86087 0.31998 0.0
H925 H 0.68054 0.83581 0.17396 0.0
H926 H 0.73914 0.86947 0.2766 0.0
H927 H 0.62167 0.80927 0.22088 0.0
H928 H 0.6976 0.85883 0.20934 0.0
H929 H 0.64948 0.85246 0.28173 0.0
C930 C 0.68229 0.86138 0.30237 0.0
C931 C 0.70791 0.86542 0.30144 0.0
C932 C 0.68071 0.84829 0.21175 0.0
C933 C 0.6816 0.85586 0.25777 0.0
C934 C 0.67092 0.83527 0.19156 0.0
C935 C 0.64992 0.82033 0.19467 0.0
C936 C 0.6693 0.84641 0.23508 0.0
C937 C 0.63813 0.8203 0.21783 0.0
C938 C 0.66908 0.85654 0.28058 0.0
C939 C 0.71944 0.86605 0.27815 0.0
N940 N 0.64813 0.8329 0.23723 0.0
N941 N 0.70626 0.86105 0.25725 0.0
H942 H 0.64039 0.14656 0.67002 0.0
H943 H 0.64451 0.14499 0.81799 0.0
H944 H 0.69174 0.10272 0.71325 0.0
H945 H 0.6102 0.20247 0.77386 0.0
H946 H 0.6515 0.12078 0.78009 0.0
H947 H 0.61877 0.15792 0.70822 0.0
C948 C 0.64674 0.13882 0.68748 0.0
C949 C 0.66818 0.12411 0.68859 0.0
C950 C 0.64203 0.13849 0.77881 0.0
C951 C 0.64372 0.13716 0.73224 0.0
C952 C 0.63798 0.15227 0.8004 0.0
C953 C 0.6272 0.17594 0.79892 0.0
C954 C 0.63507 0.14846 0.75571 0.0
C955 C 0.61897 0.18446 0.77572 0.0
C956 C 0.63447 0.1454 0.70927 0.0
C957 C 0.67551 0.11446 0.71166 0.0
N958 N 0.62333 0.17086 0.75498 0.0
N959 N 0.66353 0.12147 0.73266 0.0
H960 H 0.81868 0.81823 0.65139 0.0
H961 H 0.80505 0.67162 0.6731 0.0
H962 H 0.75475 0.77573 0.62897 0.0
H963 H 0.85643 0.71819 0.71313 0.0
H964 H 0.79211 0.70788 0.64863 0.0
H965 H 0.83853 0.77975 0.66568 0.0
C966 C 0.80903 0.80076 0.64908 0.0
C967 C 0.78495 0.80014 0.63932 0.0
C968 C 0.80641 0.71005 0.66261 0.0
C969 C 0.80739 0.75624 0.6556 0.0
C970 C 0.81381 0.68939 0.6765 0.0
C971 C 0.83157 0.69203 0.69535 0.0
C972 C 0.81703 0.73338 0.6675 0.0
C973 C 0.84242 0.71543 0.69897 0.0
C974 C 0.82028 0.77885 0.65733 0.0
C975 C 0.77324 0.77702 0.6367 0.0
N976 N 0.83488 0.73523 0.68529 0.0
N977 N 0.78449 0.75601 0.64497 0.0
H978 H 0.66932 0.3131 0.14762 0.0
H979 H 0.81634 0.31638 0.16118 0.0
H980 H 0.71852 0.2603 0.11299 0.0
H981 H 0.76598 0.36149 0.20396 0.0
H982 H 0.78148 0.30249 0.13553 0.0
H983 H 0.70516 0.33788 0.16001 0.0
C984 C 0.68764 0.30697 0.14222 0.0
C985 C 0.69103 0.28439 0.12971 0.0
C986 C 0.77813 0.31572 0.15031 0.0
C987 C 0.73208 0.31243 0.14406 0.0
C988 C 0.79801 0.32366 0.16491 0.0
C989 C 0.79391 0.33972 0.18498 0.0
C990 C 0.75406 0.32394 0.15586 0.0
C991 C 0.76986 0.34875 0.1889 0.0
C992 C 0.7081 0.32107 0.14936 0.0
C993 C 0.71514 0.27743 0.12297 0.0
N994 N 0.7508 0.34052 0.17467 0.0
N995 N 0.7348 0.2912 0.13056 0.0
H996 H 0.1845 0.31459 0.68482 0.0
H997 H 0.20442 0.16725 0.68474 0.0
H998 H 0.13773 0.26265 0.72357 0.0
H999 H 0.25493 0.21854 0.65003 0.0
H1000 H 0.17739 0.20199 0.6954 0.0
H1001 H 0.20778 0.27956 0.66742 0.0
C1002 C 0.17889 0.29582 0.68931 0.0
C1003 C 0.15936 0.29144 0.7058 0.0
C1004 C 0.19437 0.20569 0.6854 0.0
C1005 C 0.18591 0.25148 0.68631 0.0
C1006 C 0.20982 0.18586 0.6794 0.0
C1007 C 0.23201 0.1901 0.66669 0.0
C1008 C 0.20115 0.22995 0.67869 0.0
C1009 C 0.23803 0.21453 0.66002 0.0
C1010 C 0.19224 0.27586 0.67952 0.0
C1011 C 0.15284 0.26682 0.71109 0.0
N1012 N 0.22272 0.23359 0.66618 0.0
N1013 N 0.1662 0.24778 0.70153 0.0
H1014 H 0.21288 0.60659 0.20036 0.0
H1015 H 0.27781 0.69275 0.10123 0.0
H1016 H 0.17361 0.6548 0.14974 0.0
H1017 H 0.31714 0.64819 0.15503 0.0
H1018 H 0.23983 0.67035 0.11095 0.0
H1019 H 0.25068 0.61295 0.17655 0.0
C1020 C 0.21213 0.61821 0.18396 0.0
C1021 C 0.19025 0.63068 0.17731 0.0
C1022 C 0.25685 0.6651 0.12031 0.0
C1023 C 0.23351 0.63825 0.15015 0.0
C1024 C 0.27855 0.67786 0.11473 0.0
C1025 C 0.30048 0.67268 0.1278 0.0
C1026 C 0.25703 0.64726 0.1393 0.0
C1027 C 0.30052 0.65299 0.1448 0.0
C1028 C 0.23373 0.62182 0.17036 0.0
C1029 C 0.19021 0.64514 0.15569 0.0
N1030 N 0.27897 0.64131 0.15044 0.0
N1031 N 0.21165 0.64892 0.14312 0.0
H1032 H 0.85337 0.26789 0.26775 0.0
H1033 H 0.75379 0.21758 0.36289 0.0
H1034 H 0.8049 0.31628 0.30914 0.0
H1035 H 0.81309 0.1723 0.33402 0.0
H1036 H 0.77371 0.25438 0.34563 0.0
H1037 H 0.84028 0.23306 0.29349 0.0
C1038 C 0.84005 0.2712 0.28238 0.0
C1039 C 0.82998 0.29493 0.28618 0.0
C1040 C 0.78258 0.23646 0.34336 0.0
C1041 C 0.81482 0.25511 0.31565 0.0
C1042 C 0.77122 0.21545 0.35321 0.0
C1043 C 0.78171 0.19187 0.34962 0.0
C1044 C 0.80439 0.23381 0.32951 0.0
C1045 C 0.80435 0.19015 0.33709 0.0
C1046 C 0.83267 0.25132 0.29715 0.0
C1047 C 0.81299 0.29823 0.30553 0.0
N1048 N 0.81477 0.21082 0.32715 0.0
N1049 N 0.80571 0.27845 0.31938 0.0
H1050 H 0.17397 0.30314 0.81413 0.0
H1051 H 0.31938 0.3272 0.83089 0.0
H1052 H 0.21063 0.36866 0.78659 0.0
H1053 H 0.28525 0.25486 0.83404 0.0
H1054 H 0.27847 0.34569 0.82305 0.0
H1055 H 0.21351 0.28869 0.83132 0.0
C1056 C 0.19021 0.31476 0.81224 0.0
C1057 C 0.18915 0.33697 0.79872 0.0
C1058 C 0.28001 0.32578 0.82556 0.0
C1059 C 0.23432 0.32049 0.81798 0.0
C1060 C 0.30329 0.31525 0.82994 0.0
C1061 C 0.30569 0.28947 0.8328 0.0
C1062 C 0.25903 0.31041 0.8244 0.0
C1063 C 0.28426 0.27481 0.83163 0.0
C1064 C 0.21279 0.30642 0.82183 0.0
C1065 C 0.21075 0.35129 0.79671 0.0
N1066 N 0.26184 0.28548 0.82752 0.0
N1067 N 0.23254 0.3427 0.80603 0.0
H1068 H 0.20367 0.7783 0.36199 0.0
H1069 H 0.14336 0.72294 0.23921 0.0
H1070 H 0.17403 0.82364 0.30289 0.0
H1071 H 0.16334 0.67787 0.30243 0.0
H1072 H 0.15214 0.76018 0.26343 0.0
H1073 H 0.18555 0.74164 0.34245 0.0
C1074 C 0.19289 0.78059 0.34515 0.0
C1075 C 0.19057 0.80395 0.33385 0.0
C1076 C 0.15449 0.74217 0.27209 0.0
C1077 C 0.17027 0.76207 0.31112 0.0
C1078 C 0.14965 0.7209 0.25821 0.0
C1079 C 0.15289 0.6973 0.26878 0.0
C1080 C 0.16283 0.73988 0.29668 0.0
C1081 C 0.16081 0.69573 0.29354 0.0
C1082 C 0.18265 0.75965 0.33394 0.0
C1083 C 0.17634 0.80593 0.31214 0.0
N1084 N 0.16569 0.71676 0.30662 0.0
N1085 N 0.16706 0.78517 0.30124 0.0
H1086 H 0.8156 0.67379 0.81911 0.0
H1087 H 0.66829 0.68226 0.82934 0.0
H1088 H 0.76484 0.62956 0.77573 0.0
H1089 H 0.71849 0.73489 0.86283 0.0
H1090 H 0.70375 0.65679 0.81708 0.0
H1091 H 0.78053 0.69015 0.84276 0.0
C1092 C 0.79712 0.66723 0.81484 0.0
C1093 C 0.79301 0.65066 0.79519 0.0
C1094 C 0.70699 0.67377 0.82736 0.0
C1095 C 0.75293 0.6693 0.82198 0.0
C1096 C 0.68677 0.68829 0.83437 0.0
C1097 C 0.69054 0.7109 0.84672 0.0
C1098 C 0.73111 0.68196 0.83272 0.0
C1099 C 0.71482 0.71773 0.853 0.0
C1100 C 0.77712 0.67661 0.82828 0.0
C1101 C 0.76875 0.64262 0.79052 0.0
N1102 N 0.73422 0.70345 0.84569 0.0
N1103 N 0.74958 0.65223 0.80363 0.0
H1104 H 0.66619 0.84746 0.67278 0.0
H1105 H 0.67347 0.83297 0.82043 0.0
H1106 H 0.72717 0.87379 0.71749 0.0
H1107 H 0.62555 0.78977 0.77297 0.0
H1108 H 0.6868 0.85687 0.78408 0.0
H1109 H 0.64445 0.83543 0.71076 0.0
C1110 C 0.67477 0.85114 0.6906 0.0
C1111 C 0.69864 0.86122 0.69206 0.0
C1112 C 0.67313 0.84235 0.78174 0.0
C1113 C 0.67406 0.84749 0.73538 0.0
C1114 C 0.66551 0.82877 0.80243 0.0
C1115 C 0.64871 0.80916 0.79957 0.0
C1116 C 0.66368 0.83633 0.75815 0.0
C1117 C 0.63885 0.80452 0.7759 0.0
C1118 C 0.66244 0.84419 0.71223 0.0
C1119 C 0.70892 0.8657 0.71559 0.0
N1120 N 0.64661 0.81788 0.75606 0.0
N1121 N 0.69668 0.85857 0.73634 0.0
H1122 H 0.71922 0.11527 0.27613 0.0
H1123 H 0.63573 0.21964 0.21676 0.0
H1124 H 0.66753 0.15848 0.31925 0.0
H1125 H 0.66533 0.15932 0.17317 0.0
H1126 H 0.64698 0.19723 0.25457 0.0
H1127 H 0.69918 0.13008 0.23813 0.0
C1128 C 0.70336 0.12755 0.27758 0.0
C1129 C 0.69512 0.13588 0.30079 0.0
C1130 C 0.65076 0.18875 0.23674 0.0
C1131 C 0.6725 0.15324 0.2575 0.0
C1132 C 0.6445 0.20159 0.21518 0.0
C1133 C 0.64984 0.19138 0.19186 0.0
C1134 C 0.66286 0.16572 0.23499 0.0
C1135 C 0.66101 0.16786 0.19084 0.0
C1136 C 0.69194 0.13597 0.25591 0.0
C1137 C 0.67447 0.15168 0.30168 0.0
N1138 N 0.66748 0.15594 0.21213 0.0
N1139 N 0.66412 0.16022 0.2803 0.0
H1140 H 0.31971 0.11449 0.72295 0.0
H1141 H 0.39791 0.22829 0.76972 0.0
H1142 H 0.35321 0.1683 0.67425 0.0
H1143 H 0.36801 0.1718 0.8178 0.0
H1144 H 0.3909 0.2011 0.73414 0.0
H1145 H 0.34597 0.1292 0.75679 0.0
C1146 C 0.33295 0.12913 0.71929 0.0
C1147 C 0.3339 0.14067 0.696 0.0
C1148 C 0.38633 0.19441 0.75252 0.0
C1149 C 0.36369 0.15788 0.73468 0.0
C1150 C 0.39034 0.20994 0.77283 0.0
C1151 C 0.38288 0.2025 0.7966 0.0
C1152 C 0.37447 0.17148 0.75601 0.0
C1153 C 0.37357 0.17843 0.79968 0.0
C1154 C 0.34797 0.13751 0.7386 0.0
C1155 C 0.35164 0.15921 0.69209 0.0
N1156 N 0.36912 0.16395 0.77953 0.0
N1157 N 0.36549 0.16764 0.71141 0.0
H1158 H 0.27152 0.85938 0.26627 0.0
H1159 H 0.33907 0.73733 0.21726 0.0
H1160 H 0.30297 0.80398 0.31498 0.0
H1161 H 0.31885 0.79873 0.1698 0.0
H1162 H 0.32635 0.7616 0.25334 0.0
H1163 H 0.28989 0.83812 0.23083 0.0
C1164 C 0.28259 0.84288 0.26951 0.0
C1165 C 0.28564 0.8333 0.29353 0.0
C1166 C 0.32478 0.76982 0.23505 0.0
C1167 C 0.30637 0.80865 0.25304 0.0
C1168 C 0.3319 0.75593 0.21444 0.0
C1169 C 0.32985 0.76602 0.19052 0.0
C1170 C 0.31538 0.79391 0.23171 0.0
C1171 C 0.32061 0.79023 0.18793 0.0
C1172 C 0.29304 0.83073 0.24928 0.0
C1173 C 0.3002 0.81196 0.29672 0.0
N1174 N 0.3136 0.80333 0.20828 0.0
N1175 N 0.30981 0.80014 0.27664 0.0
loop_
_geom_bond_atom_site_label_1
_geom_bond_atom_site_label_2
_geom_bond_distance
_geom_bond_site_symmetry_2
_ccdc_geom_bond_type
In0 O1 2.294 . S
In0 O2 2.326 . S
In0 O6 2.266 . S
In0 O7 2.326 . S
In0 O8 2.266 . S
In0 O9 2.326 . S
In0 O11 2.294 . S
In0 O12 2.326 . S
O1 In0 2.294 . S
O1 C10 1.240 . S
O2 In0 2.326 . S
O2 C10 1.252 . S
C3 O6 1.252 . S
C3 O7 1.260 . S
C4 O11 1.240 . S
C4 O12 1.252 . S
C5 O8 1.252 . S
C5 O9 1.260 . S
O6 In0 2.266 . S
O6 C3 1.252 . S
O7 In0 2.326 . S
O7 C3 1.260 . S
O8 In0 2.266 . S
O8 C5 1.252 . S
O9 In0 2.326 . S
O9 C5 1.260 . S
C10 O1 1.240 . S
C10 O2 1.252 . S
O11 In0 2.294 . S
O11 C4 1.240 . S
O12 In0 2.326 . S
O12 C4 1.252 . S
In13 O14 2.294 . S
In13 O15 2.326 . S
In13 O19 2.266 . S
In13 O20 2.326 . S
In13 O21 2.266 . S
In13 O22 2.326 . S
In13 O24 2.294 . S
In13 O25 2.326 . S
O14 In13 2.294 . S
O14 C23 1.240 . S
O15 In13 2.326 . S
O15 C23 1.252 . S
C16 O19 1.252 . S
C16 O20 1.260 . S
C17 O24 1.240 . S
C17 O25 1.252 . S
C18 O21 1.252 . S
C18 O22 1.260 . S
O19 In13 2.266 . S
O19 C16 1.252 . S
O20 In13 2.326 . S
O20 C16 1.260 . S
O21 In13 2.266 . S
O21 C18 1.252 . S
O22 In13 2.326 . S
O22 C18 1.260 . S
C23 O14 1.240 . S
C23 O15 1.252 . S
O24 In13 2.294 . S
O24 C17 1.240 . S
O25 In13 2.326 . S
O25 C17 1.252 . S
In26 O27 2.294 . S
In26 O28 2.326 . S
In26 O32 2.266 . S
In26 O33 2.326 . S
In26 O34 2.266 . S
In26 O35 2.326 . S
In26 O37 2.294 . S
In26 O38 2.326 . S
O27 In26 2.294 . S
O27 C36 1.240 . S
O28 In26 2.326 . S
O28 C36 1.252 . S
C29 O32 1.252 . S
C29 O33 1.260 . S
C30 O37 1.240 . S
C30 O38 1.252 . S
C31 O34 1.252 . S
C31 O35 1.260 . S
O32 In26 2.266 . S
O32 C29 1.252 . S
O33 In26 2.326 . S
O33 C29 1.260 . S
O34 In26 2.266 . S
O34 C31 1.252 . S
O35 In26 2.326 . S
O35 C31 1.260 . S
C36 O27 1.240 . S
C36 O28 1.252 . S
O37 In26 2.294 . S
O37 C30 1.240 . S
O38 In26 2.326 . S
O38 C30 1.252 . S
In39 O40 2.294 . S
In39 O41 2.326 . S
In39 O45 2.266 . S
In39 O46 2.326 . S
In39 O47 2.266 . S
In39 O48 2.326 . S
In39 O50 2.294 . S
In39 O51 2.326 . S
O40 In39 2.294 . S
O40 C49 1.240 . S
O41 In39 2.326 . S
O41 C49 1.252 . S
C42 O45 1.252 . S
C42 O46 1.260 . S
C43 O50 1.240 . S
C43 O51 1.252 . S
C44 O47 1.252 . S
C44 O48 1.260 . S
O45 In39 2.266 . S
O45 C42 1.252 . S
O46 In39 2.326 . S
O46 C42 1.260 . S
O47 In39 2.266 . S
O47 C44 1.252 . S
O48 In39 2.326 . S
O48 C44 1.260 . S
C49 O40 1.240 . S
C49 O41 1.252 . S
O50 In39 2.294 . S
O50 C43 1.240 . S
O51 In39 2.326 . S
O51 C43 1.252 . S
In52 O53 2.294 . S
In52 O54 2.326 . S
In52 O58 2.266 . S
In52 O59 2.326 . S
In52 O60 2.266 . S
In52 O61 2.326 . S
In52 O63 2.294 . S
In52 O64 2.326 . S
O53 In52 2.294 . S
O53 C62 1.240 . S
O54 In52 2.326 . S
O54 C62 1.252 . S
C55 O58 1.252 . S
C55 O59 1.260 . S
C56 O63 1.240 . S
C56 O64 1.252 . S
C57 O60 1.252 . S
C57 O61 1.260 . S
O58 In52 2.266 . S
O58 C55 1.252 . S
O59 In52 2.326 . S
O59 C55 1.260 . S
O60 In52 2.266 . S
O60 C57 1.252 . S
O61 In52 2.326 . S
O61 C57 1.260 . S
C62 O53 1.240 . S
C62 O54 1.252 . S
O63 In52 2.294 . S
O63 C56 1.240 . S
O64 In52 2.326 . S
O64 C56 1.252 . S
In65 O66 2.294 . S
In65 O67 2.326 . S
In65 O71 2.266 . S
In65 O72 2.326 . S
In65 O73 2.266 . S
In65 O74 2.326 . S
In65 O76 2.294 . S
In65 O77 2.326 . S
O66 In65 2.294 . S
O66 C75 1.240 . S
O67 In65 2.326 . S
O67 C75 1.252 . S
C68 O71 1.252 . S
C68 O72 1.260 . S
C69 O76 1.240 . S
C69 O77 1.252 . S
C70 O73 1.252 . S
C70 O74 1.260 . S
O71 In65 2.266 . S
O71 C68 1.252 . S
O72 In65 2.326 . S
O72 C68 1.260 . S
O73 In65 2.266 . S
O73 C70 1.252 . S
O74 In65 2.326 . S
O74 C70 1.260 . S
C75 O66 1.240 . S
C75 O67 1.252 . S
O76 In65 2.294 . S
O76 C69 1.240 . S
O77 In65 2.326 . S
O77 C69 1.252 . S
In78 O79 2.294 . S
In78 O80 2.326 . S
In78 O84 2.266 . S
In78 O85 2.326 . S
In78 O86 2.266 . S
In78 O87 2.326 . S
In78 O89 2.294 . S
In78 O90 2.326 . S
O79 In78 2.294 . S
O79 C88 1.240 . S
O80 In78 2.326 . S
O80 C88 1.252 . S
C81 O84 1.252 . S
C81 O85 1.260 . S
C82 O89 1.240 . S
C82 O90 1.252 . S
C83 O86 1.252 . S
C83 O87 1.260 . S
O84 In78 2.266 . S
O84 C81 1.252 . S
O85 In78 2.326 . S
O85 C81 1.260 . S
O86 In78 2.266 . S
O86 C83 1.252 . S
O87 In78 2.326 . S
O87 C83 1.260 . S
C88 O79 1.240 . S
C88 O80 1.252 . S
O89 In78 2.294 . S
O89 C82 1.240 . S
O90 In78 2.326 . S
O90 C82 1.252 . S
In91 O92 2.294 . S
In91 O93 2.326 . S
In91 O97 2.266 . S
In91 O98 2.326 . S
In91 O99 2.266 . S
In91 O100 2.326 . S
In91 O102 2.294 . S
In91 O103 2.326 . S
O92 In91 2.294 . S
O92 C101 1.240 . S
O93 In91 2.326 . S
O93 C101 1.252 . S
C94 O97 1.252 . S
C94 O98 1.260 . S
C95 O102 1.240 . S
C95 O103 1.252 . S
C96 O99 1.252 . S
C96 O100 1.260 . S
O97 In91 2.266 . S
O97 C94 1.252 . S
O98 In91 2.326 . S
O98 C94 1.260 . S
O99 In91 2.266 . S
O99 C96 1.252 . S
O100 In91 2.326 . S
O100 C96 1.260 . S
C101 O92 1.240 . S
C101 O93 1.252 . S
O102 In91 2.294 . S
O102 C95 1.240 . S
O103 In91 2.326 . S
O103 C95 1.252 . S
In104 O105 2.294 . S
In104 O106 2.326 . S
In104 O110 2.266 . S
In104 O111 2.326 . S
In104 O112 2.266 . S
In104 O113 2.326 . S
In104 O115 2.294 . S
In104 O116 2.326 . S
O105 In104 2.294 . S
O105 C114 1.240 . S
O106 In104 2.326 . S
O106 C114 1.252 . S
C107 O110 1.252 . S
C107 O111 1.260 . S
C108 O115 1.240 . S
C108 O116 1.252 . S
C109 O112 1.252 . S
C109 O113 1.260 . S
O110 In104 2.266 . S
O110 C107 1.252 . S
O111 In104 2.326 . S
O111 C107 1.260 . S
O112 In104 2.266 . S
O112 C109 1.252 . S
O113 In104 2.326 . S
O113 C109 1.260 . S
C114 O105 1.240 . S
C114 O106 1.252 . S
O115 In104 2.294 . S
O115 C108 1.240 . S
O116 In104 2.326 . S
O116 C108 1.252 . S
In117 O118 2.294 . S
In117 O119 2.326 . S
In117 O123 2.266 . S
In117 O124 2.326 . S
In117 O125 2.266 . S
In117 O126 2.326 . S
In117 O128 2.294 . S
In117 O129 2.326 . S
O118 In117 2.294 . S
O118 C127 1.240 . S
O119 In117 2.326 . S
O119 C127 1.252 . S
C120 O123 1.252 . S
C120 O124 1.260 . S
C121 O128 1.240 . S
C121 O129 1.252 . S
C122 O125 1.252 . S
C122 O126 1.260 . S
O123 In117 2.266 . S
O123 C120 1.252 . S
O124 In117 2.326 . S
O124 C120 1.260 . S
O125 In117 2.266 . S
O125 C122 1.252 . S
O126 In117 2.326 . S
O126 C122 1.260 . S
C127 O118 1.240 . S
C127 O119 1.252 . S
O128 In117 2.294 . S
O128 C121 1.240 . S
O129 In117 2.326 . S
O129 C121 1.252 . S
In130 O131 2.294 . S
In130 O132 2.326 . S
In130 O136 2.266 . S
In130 O137 2.326 . S
In130 O138 2.266 . S
In130 O139 2.326 . S
In130 O141 2.294 . S
In130 O142 2.326 . S
O131 In130 2.294 . S
O131 C140 1.240 . S
O132 In130 2.326 . S
O132 C140 1.252 . S
C133 O136 1.252 . S
C133 O137 1.260 . S
C134 O141 1.240 . S
C134 O142 1.252 . S
C135 O138 1.252 . S
C135 O139 1.260 . S
O136 In130 2.266 . S
O136 C133 1.252 . S
O137 In130 2.326 . S
O137 C133 1.260 . S
O138 In130 2.266 . S
O138 C135 1.252 . S
O139 In130 2.326 . S
O139 C135 1.260 . S
C140 O131 1.240 . S
C140 O132 1.252 . S
O141 In130 2.294 . S
O141 C134 1.240 . S
O142 In130 2.326 . S
O142 C134 1.252 . S
In143 O144 2.294 . S
In143 O145 2.326 . S
In143 O149 2.266 . S
In143 O150 2.326 . S
In143 O151 2.266 . S
In143 O152 2.326 . S
In143 O154 2.294 . S
In143 O155 2.326 . S
O144 In143 2.294 . S
O144 C153 1.240 . S
O145 In143 2.326 . S
O145 C153 1.252 . S
C146 O149 1.252 . S
C146 O150 1.260 . S
C147 O154 1.240 . S
C147 O155 1.252 . S
C148 O151 1.252 . S
C148 O152 1.260 . S
O149 In143 2.266 . S
O149 C146 1.252 . S
O150 In143 2.326 . S
O150 C146 1.260 . S
O151 In143 2.266 . S
O151 C148 1.252 . S
O152 In143 2.326 . S
O152 C148 1.260 . S
C153 O144 1.240 . S
C153 O145 1.252 . S
O154 In143 2.294 . S
O154 C147 1.240 . S
O155 In143 2.326 . S
O155 C147 1.252 . S
In156 O157 2.294 . S
In156 O158 2.326 . S
In156 O162 2.266 . S
In156 O163 2.326 . S
In156 O164 2.266 . S
In156 O165 2.326 . S
In156 O167 2.294 . S
In156 O168 2.326 . S
O157 In156 2.294 . S
O157 C166 1.240 . S
O158 In156 2.326 . S
O158 C166 1.252 . S
C159 O162 1.252 . S
C159 O163 1.260 . S
C160 O167 1.240 . S
C160 O168 1.252 . S
C161 O164 1.252 . S
C161 O165 1.260 . S
O162 In156 2.266 . S
O162 C159 1.252 . S
O163 In156 2.326 . S
O163 C159 1.260 . S
O164 In156 2.266 . S
O164 C161 1.252 . S
O165 In156 2.326 . S
O165 C161 1.260 . S
C166 O157 1.240 . S
C166 O158 1.252 . S
O167 In156 2.294 . S
O167 C160 1.240 . S
O168 In156 2.326 . S
O168 C160 1.252 . S
In169 O170 2.294 . S
In169 O171 2.326 . S
In169 O175 2.266 . S
In169 O176 2.326 . S
In169 O177 2.266 . S
In169 O178 2.326 . S
In169 O180 2.294 . S
In169 O181 2.326 . S
O170 In169 2.294 . S
O170 C179 1.240 . S
O171 In169 2.326 . S
O171 C179 1.252 . S
C172 O175 1.252 . S
C172 O176 1.260 . S
C173 O180 1.240 . S
C173 O181 1.252 . S
C174 O177 1.252 . S
C174 O178 1.260 . S
O175 In169 2.266 . S
O175 C172 1.252 . S
O176 In169 2.326 . S
O176 C172 1.260 . S
O177 In169 2.266 . S
O177 C174 1.252 . S
O178 In169 2.326 . S
O178 C174 1.260 . S
C179 O170 1.240 . S
C179 O171 1.252 . S
O180 In169 2.294 . S
O180 C173 1.240 . S
O181 In169 2.326 . S
O181 C173 1.252 . S
In182 O183 2.294 . S
In182 O184 2.326 . S
In182 O188 2.266 . S
In182 O189 2.326 . S
In182 O190 2.266 . S
In182 O191 2.326 . S
In182 O193 2.294 . S
In182 O194 2.326 . S
O183 In182 2.294 . S
O183 C192 1.240 . S
O184 In182 2.326 . S
O184 C192 1.252 . S
C185 O188 1.252 . S
C185 O189 1.260 . S
C186 O193 1.240 . S
C186 O194 1.252 . S
C187 O190 1.252 . S
C187 O191 1.260 . S
O188 In182 2.266 . S
O188 C185 1.252 . S
O189 In182 2.326 . S
O189 C185 1.260 . S
O190 In182 2.266 . S
O190 C187 1.252 . S
O191 In182 2.326 . S
O191 C187 1.260 . S
C192 O183 1.240 . S
C192 O184 1.252 . S
O193 In182 2.294 . S
O193 C186 1.240 . S
O194 In182 2.326 . S
O194 C186 1.252 . S
In195 O196 2.294 . S
In195 O197 2.326 . S
In195 O201 2.266 . S
In195 O202 2.326 . S
In195 O203 2.266 . S
In195 O204 2.326 . S
In195 O206 2.294 . S
In195 O207 2.326 . S
O196 In195 2.294 . S
O196 C205 1.240 . S
O197 In195 2.326 . S
O197 C205 1.252 . S
C198 O201 1.252 . S
C198 O202 1.260 . S
C199 O206 1.240 . S
C199 O207 1.252 . S
C200 O203 1.252 . S
C200 O204 1.260 . S
O201 In195 2.266 . S
O201 C198 1.252 . S
O202 In195 2.326 . S
O202 C198 1.260 . S
O203 In195 2.266 . S
O203 C200 1.252 . S
O204 In195 2.326 . S
O204 C200 1.260 . S
C205 O196 1.240 . S
C205 O197 1.252 . S
O206 In195 2.294 . S
O206 C199 1.240 . S
O207 In195 2.326 . S
O207 C199 1.252 . S
In208 O209 2.294 . S
In208 O210 2.326 . S
In208 O214 2.266 . S
In208 O215 2.326 . S
In208 O216 2.266 . S
In208 O217 2.326 . S
In208 O219 2.294 . S
In208 O220 2.326 . S
O209 In208 2.294 . S
O209 C218 1.240 . S
O210 In208 2.326 . S
O210 C218 1.252 . S
C211 O214 1.252 . S
C211 O215 1.260 . S
C212 O219 1.240 . S
C212 O220 1.252 . S
C213 O216 1.252 . S
C213 O217 1.260 . S
O214 In208 2.266 . S
O214 C211 1.252 . S
O215 In208 2.326 . S
O215 C211 1.260 . S
O216 In208 2.266 . S
O216 C213 1.252 . S
O217 In208 2.326 . S
O217 C213 1.260 . S
C218 O209 1.240 . S
C218 O210 1.252 . S
O219 In208 2.294 . S
O219 C212 1.240 . S
O220 In208 2.326 . S
O220 C212 1.252 . S
In221 O222 2.294 . S
In221 O223 2.326 . S
In221 O227 2.266 . S
In221 O228 2.326 . S
In221 O229 2.266 . S
In221 O230 2.326 . S
In221 O232 2.294 . S
In221 O233 2.326 . S
O222 In221 2.294 . S
O222 C231 1.240 . S
O223 In221 2.326 . S
O223 C231 1.252 . S
C224 O227 1.252 . S
C224 O228 1.260 . S
C225 O232 1.240 . S
C225 O233 1.252 . S
C226 O229 1.252 . S
C226 O230 1.260 . S
O227 In221 2.266 . S
O227 C224 1.252 . S
O228 In221 2.326 . S
O228 C224 1.260 . S
O229 In221 2.266 . S
O229 C226 1.252 . S
O230 In221 2.326 . S
O230 C226 1.260 . S
C231 O222 1.240 . S
C231 O223 1.252 . S
O232 In221 2.294 . S
O232 C225 1.240 . S
O233 In221 2.326 . S
O233 C225 1.252 . S
In234 O235 2.294 . S
In234 O236 2.326 . S
In234 O240 2.266 . S
In234 O241 2.326 . S
In234 O242 2.266 . S
In234 O243 2.326 . S
In234 O245 2.294 . S
In234 O246 2.326 . S
O235 In234 2.294 . S
O235 C244 1.240 . S
O236 In234 2.326 . S
O236 C244 1.252 . S
C237 O240 1.252 . S
C237 O241 1.260 . S
C238 O245 1.240 . S
C238 O246 1.252 . S
C239 O242 1.252 . S
C239 O243 1.260 . S
O240 In234 2.266 . S
O240 C237 1.252 . S
O241 In234 2.326 . S
O241 C237 1.260 . S
O242 In234 2.266 . S
O242 C239 1.252 . S
O243 In234 2.326 . S
O243 C239 1.260 . S
C244 O235 1.240 . S
C244 O236 1.252 . S
O245 In234 2.294 . S
O245 C238 1.240 . S
O246 In234 2.326 . S
O246 C238 1.252 . S
In247 O248 2.294 . S
In247 O249 2.326 . S
In247 O253 2.266 . S
In247 O254 2.326 . S
In247 O255 2.266 . S
In247 O256 2.326 . S
In247 O258 2.294 . S
In247 O259 2.326 . S
O248 In247 2.294 . S
O248 C257 1.240 . S
O249 In247 2.326 . S
O249 C257 1.252 . S
C250 O253 1.252 . S
C250 O254 1.260 . S
C251 O258 1.240 . S
C251 O259 1.252 . S
C252 O255 1.252 . S
C252 O256 1.260 . S
O253 In247 2.266 . S
O253 C250 1.252 . S
O254 In247 2.326 . S
O254 C250 1.260 . S
O255 In247 2.266 . S
O255 C252 1.252 . S
O256 In247 2.326 . S
O256 C252 1.260 . S
C257 O248 1.240 . S
C257 O249 1.252 . S
O258 In247 2.294 . S
O258 C251 1.240 . S
O259 In247 2.326 . S
O259 C251 1.252 . S
In260 O261 2.294 . S
In260 O262 2.326 . S
In260 O266 2.266 . S
In260 O267 2.326 . S
In260 O268 2.266 . S
In260 O269 2.326 . S
In260 O271 2.294 . S
In260 O272 2.326 . S
O261 In260 2.294 . S
O261 C270 1.240 . S
O262 In260 2.326 . S
O262 C270 1.252 . S
C263 O266 1.252 . S
C263 O267 1.260 . S
C264 O271 1.240 . S
C264 O272 1.252 . S
C265 O268 1.252 . S
C265 O269 1.260 . S
O266 In260 2.266 . S
O266 C263 1.252 . S
O267 In260 2.326 . S
O267 C263 1.260 . S
O268 In260 2.266 . S
O268 C265 1.252 . S
O269 In260 2.326 . S
O269 C265 1.260 . S
C270 O261 1.240 . S
C270 O262 1.252 . S
O271 In260 2.294 . S
O271 C264 1.240 . S
O272 In260 2.326 . S
O272 C264 1.252 . S
In273 O274 2.294 . S
In273 O275 2.326 . S
In273 O279 2.266 . S
In273 O280 2.326 . S
In273 O281 2.266 . S
In273 O282 2.326 . S
In273 O284 2.294 . S
In273 O285 2.326 . S
O274 In273 2.294 . S
O274 C283 1.240 . S
O275 In273 2.326 . S
O275 C283 1.252 . S
C276 O279 1.252 . S
C276 O280 1.260 . S
C277 O284 1.240 . S
C277 O285 1.252 . S
C278 O281 1.252 . S
C278 O282 1.260 . S
O279 In273 2.266 . S
O279 C276 1.252 . S
O280 In273 2.326 . S
O280 C276 1.260 . S
O281 In273 2.266 . S
O281 C278 1.252 . S
O282 In273 2.326 . S
O282 C278 1.260 . S
C283 O274 1.240 . S
C283 O275 1.252 . S
O284 In273 2.294 . S
O284 C277 1.240 . S
O285 In273 2.326 . S
O285 C277 1.252 . S
In286 O287 2.294 . S
In286 O288 2.326 . S
In286 O292 2.266 . S
In286 O293 2.326 . S
In286 O294 2.266 . S
In286 O295 2.326 . S
In286 O297 2.294 . S
In286 O298 2.326 . S
O287 In286 2.294 . S
O287 C296 1.240 . S
O288 In286 2.326 . S
O288 C296 1.252 . S
C289 O292 1.252 . S
C289 O293 1.260 . S
C290 O297 1.240 . S
C290 O298 1.252 . S
C291 O294 1.252 . S
C291 O295 1.260 . S
O292 In286 2.266 . S
O292 C289 1.252 . S
O293 In286 2.326 . S
O293 C289 1.260 . S
O294 In286 2.266 . S
O294 C291 1.252 . S
O295 In286 2.326 . S
O295 C291 1.260 . S
C296 O287 1.240 . S
C296 O288 1.252 . S
O297 In286 2.294 . S
O297 C290 1.240 . S
O298 In286 2.326 . S
O298 C290 1.252 . S
In299 O300 2.294 . S
In299 O301 2.326 . S
In299 O305 2.266 . S
In299 O306 2.326 . S
In299 O307 2.266 . S
In299 O308 2.326 . S
In299 O310 2.294 . S
In299 O311 2.326 . S
O300 In299 2.294 . S
O300 C309 1.240 . S
O301 In299 2.326 . S
O301 C309 1.252 . S
C302 O305 1.252 . S
C302 O306 1.260 . S
C303 O310 1.240 . S
C303 O311 1.252 . S
C304 O307 1.252 . S
C304 O308 1.260 . S
O305 In299 2.266 . S
O305 C302 1.252 . S
O306 In299 2.326 . S
O306 C302 1.260 . S
O307 In299 2.266 . S
O307 C304 1.252 . S
O308 In299 2.326 . S
O308 C304 1.260 . S
C309 O300 1.240 . S
C309 O301 1.252 . S
O310 In299 2.294 . S
O310 C303 1.240 . S
O311 In299 2.326 . S
O311 C303 1.252 . S
H312 C318 0.930 . S
H313 C322 0.930 . S
H314 C327 0.929 . S
H315 C325 0.929 . S
H316 C320 0.929 . S
H317 C326 0.929 . S
C318 H312 0.930 . S
C318 C319 1.367 . S
C318 C326 1.378 . S
C319 C318 1.367 . S
C319 C327 1.433 . S
C320 H316 0.929 . S
C320 C322 1.378 . S
C320 C324 1.350 . S
C321 C324 1.463 . S
C321 C326 1.350 . S
C321 N329 1.427 . S
C322 H313 0.930 . S
C322 C320 1.378 . S
C322 C323 1.367 . S
C323 C322 1.367 . S
C323 C325 1.433 . S
C324 C320 1.350 . S
C324 C321 1.463 . S
C324 N328 1.427 . S
C325 H315 0.929 . S
C325 C323 1.433 . S
C325 N328 1.384 . S
C326 H317 0.929 . S
C326 C318 1.378 . S
C326 C321 1.350 . S
C327 H314 0.929 . S
C327 C319 1.433 . S
C327 N329 1.384 . S
N328 C324 1.427 . S
N328 C325 1.384 . S
N329 C321 1.427 . S
N329 C327 1.384 . S
H330 C336 0.930 . S
H331 C340 0.930 . S
H332 C345 0.929 . S
H333 C343 0.929 . S
H334 C338 0.929 . S
H335 C344 0.929 . S
C336 H330 0.930 . S
C336 C337 1.367 . S
C336 C344 1.378 . S
C337 C336 1.367 . S
C337 C345 1.433 . S
C338 H334 0.929 . S
C338 C340 1.378 . S
C338 C342 1.350 . S
C339 C342 1.463 1_655 S
C339 C344 1.350 . S
C339 N347 1.427 . S
C340 H331 0.930 . S
C340 C338 1.378 . S
C340 C341 1.367 . S
C341 C340 1.367 . S
C341 C343 1.433 . S
C342 C338 1.350 . S
C342 C339 1.463 1_455 S
C342 N346 1.427 . S
C343 H333 0.929 . S
C343 C341 1.433 . S
C343 N346 1.384 . S
C344 H335 0.929 . S
C344 C336 1.378 . S
C344 C339 1.350 . S
C345 H332 0.929 . S
C345 C337 1.433 . S
C345 N347 1.384 . S
N346 C342 1.427 . S
N346 C343 1.384 . S
N347 C339 1.427 . S
N347 C345 1.384 . S
H348 C354 0.930 . S
H349 C358 0.930 . S
H350 C363 0.929 . S
H351 C361 0.929 . S
H352 C356 0.929 . S
H353 C362 0.929 . S
C354 H348 0.930 . S
C354 C355 1.367 . S
C354 C362 1.378 . S
C355 C354 1.367 . S
C355 C363 1.433 . S
C356 H352 0.929 . S
C356 C358 1.378 . S
C356 C360 1.350 . S
C357 C360 1.463 . S
C357 C362 1.350 . S
C357 N365 1.427 . S
C358 H349 0.930 . S
C358 C356 1.378 . S
C358 C359 1.367 . S
C359 C358 1.367 . S
C359 C361 1.433 . S
C360 C356 1.350 . S
C360 C357 1.463 . S
C360 N364 1.427 . S
C361 H351 0.929 . S
C361 C359 1.433 . S
C361 N364 1.384 . S
C362 H353 0.929 . S
C362 C354 1.378 . S
C362 C357 1.350 . S
C363 H350 0.929 . S
C363 C355 1.433 . S
C363 N365 1.384 . S
N364 C360 1.427 . S
N364 C361 1.384 . S
N365 C357 1.427 . S
N365 C363 1.384 . S
H366 C372 0.930 . S
H367 C376 0.930 . S
H368 C381 0.929 . S
H369 C379 0.929 . S
H370 C374 0.929 . S
H371 C380 0.929 . S
C372 H366 0.930 . S
C372 C373 1.367 . S
C372 C380 1.378 . S
C373 C372 1.367 . S
C373 C381 1.433 . S
C374 H370 0.929 . S
C374 C376 1.378 . S
C374 C378 1.350 . S
C375 C378 1.463 1_455 S
C375 C380 1.350 . S
C375 N383 1.427 . S
C376 H367 0.930 . S
C376 C374 1.378 . S
C376 C377 1.367 . S
C377 C376 1.367 . S
C377 C379 1.433 . S
C378 C374 1.350 . S
C378 C375 1.463 1_655 S
C378 N382 1.427 . S
C379 H369 0.929 . S
C379 C377 1.433 . S
C379 N382 1.384 . S
C380 H371 0.929 . S
C380 C372 1.378 . S
C380 C375 1.350 . S
C381 H368 0.929 . S
C381 C373 1.433 . S
C381 N383 1.384 . S
N382 C378 1.427 . S
N382 C379 1.384 . S
N383 C375 1.427 . S
N383 C381 1.384 . S
H384 C390 0.930 . S
H385 C394 0.930 . S
H386 C399 0.929 . S
H387 C397 0.929 . S
H388 C392 0.929 . S
H389 C398 0.929 . S
C390 H384 0.930 . S
C390 C391 1.367 . S
C390 C398 1.378 . S
C391 C390 1.367 . S
C391 C399 1.433 . S
C392 H388 0.929 . S
C392 C394 1.378 . S
C392 C396 1.350 . S
C393 C396 1.463 . S
C393 C398 1.350 . S
C393 N401 1.427 . S
C394 H385 0.930 . S
C394 C392 1.378 . S
C394 C395 1.367 . S
C395 C394 1.367 . S
C395 C397 1.433 . S
C396 C392 1.350 . S
C396 C393 1.463 . S
C396 N400 1.427 . S
C397 H387 0.929 . S
C397 C395 1.433 . S
C397 N400 1.384 . S
C398 H389 0.929 . S
C398 C390 1.378 . S
C398 C393 1.350 . S
C399 H386 0.929 . S
C399 C391 1.433 . S
C399 N401 1.384 . S
N400 C396 1.427 . S
N400 C397 1.384 . S
N401 C393 1.427 . S
N401 C399 1.384 . S
H402 C408 0.930 . S
H403 C412 0.930 . S
H404 C417 0.929 . S
H405 C415 0.929 . S
H406 C410 0.929 . S
H407 C416 0.929 . S
C408 H402 0.930 . S
C408 C409 1.367 . S
C408 C416 1.378 . S
C409 C408 1.367 . S
C409 C417 1.433 . S
C410 H406 0.929 . S
C410 C412 1.378 . S
C410 C414 1.350 . S
C411 C414 1.463 1_655 S
C411 C416 1.350 . S
C411 N419 1.427 . S
C412 H403 0.930 . S
C412 C410 1.378 . S
C412 C413 1.367 . S
C413 C412 1.367 . S
C413 C415 1.433 . S
C414 C410 1.350 . S
C414 C411 1.463 1_455 S
C414 N418 1.427 . S
C415 H405 0.929 . S
C415 C413 1.433 . S
C415 N418 1.384 . S
C416 H407 0.929 . S
C416 C408 1.378 . S
C416 C411 1.350 . S
C417 H404 0.929 . S
C417 C409 1.433 . S
C417 N419 1.384 . S
N418 C414 1.427 . S
N418 C415 1.384 . S
N419 C411 1.427 . S
N419 C417 1.384 . S
H420 C426 0.930 . S
H421 C430 0.930 . S
H422 C435 0.929 . S
H423 C433 0.929 . S
H424 C428 0.929 . S
H425 C434 0.929 . S
C426 H420 0.930 . S
C426 C427 1.367 . S
C426 C434 1.378 . S
C427 C426 1.367 . S
C427 C435 1.433 . S
C428 H424 0.929 . S
C428 C430 1.378 . S
C428 C432 1.350 . S
C429 C432 1.463 . S
C429 C434 1.350 . S
C429 N437 1.427 . S
C430 H421 0.930 . S
C430 C428 1.378 . S
C430 C431 1.367 . S
C431 C430 1.367 . S
C431 C433 1.433 . S
C432 C428 1.350 . S
C432 C429 1.463 . S
C432 N436 1.427 . S
C433 H423 0.929 . S
C433 C431 1.433 . S
C433 N436 1.384 . S
C434 H425 0.929 . S
C434 C426 1.378 . S
C434 C429 1.350 . S
C435 H422 0.929 . S
C435 C427 1.433 . S
C435 N437 1.384 . S
N436 C432 1.427 . S
N436 C433 1.384 . S
N437 C429 1.427 . S
N437 C435 1.384 . S
H438 C444 0.930 . S
H439 C448 0.930 . S
H440 C453 0.929 . S
H441 C451 0.929 . S
H442 C446 0.929 . S
H443 C452 0.929 . S
C444 H438 0.930 . S
C444 C445 1.367 . S
C444 C452 1.378 . S
C445 C444 1.367 . S
C445 C453 1.433 . S
C446 H442 0.929 . S
C446 C448 1.378 . S
C446 C450 1.350 . S
C447 C450 1.463 1_655 S
C447 C452 1.350 . S
C447 N455 1.427 . S
C448 H439 0.930 . S
C448 C446 1.378 . S
C448 C449 1.367 . S
C449 C448 1.367 . S
C449 C451 1.433 . S
C450 C446 1.350 . S
C450 C447 1.463 1_455 S
C450 N454 1.427 . S
C451 H441 0.929 . S
C451 C449 1.433 . S
C451 N454 1.384 . S
C452 H443 0.929 . S
C452 C444 1.378 . S
C452 C447 1.350 . S
C453 H440 0.929 . S
C453 C445 1.433 . S
C453 N455 1.384 . S
N454 C450 1.427 . S
N454 C451 1.384 . S
N455 C447 1.427 . S
N455 C453 1.384 . S
H456 C462 0.930 . S
H457 C466 0.930 . S
H458 C471 0.929 . S
H459 C469 0.929 . S
H460 C464 0.929 . S
H461 C470 0.929 . S
C462 H456 0.930 . S
C462 C463 1.367 . S
C462 C470 1.378 . S
C463 C462 1.367 . S
C463 C471 1.433 . S
C464 H460 0.929 . S
C464 C466 1.378 . S
C464 C468 1.350 . S
C465 C468 1.463 . S
C465 C470 1.350 . S
C465 N473 1.427 . S
C466 H457 0.930 . S
C466 C464 1.378 . S
C466 C467 1.367 . S
C467 C466 1.367 . S
C467 C469 1.433 . S
C468 C464 1.350 . S
C468 C465 1.463 . S
C468 N472 1.427 . S
C469 H459 0.929 . S
C469 C467 1.433 . S
C469 N472 1.384 . S
C470 H461 0.929 . S
C470 C462 1.378 . S
C470 C465 1.350 . S
C471 H458 0.929 . S
C471 C463 1.433 . S
C471 N473 1.384 . S
N472 C468 1.427 . S
N472 C469 1.384 . S
N473 C465 1.427 . S
N473 C471 1.384 . S
H474 C480 0.930 . S
H475 C484 0.930 . S
H476 C489 0.929 . S
H477 C487 0.929 . S
H478 C482 0.929 . S
H479 C488 0.929 . S
C480 H474 0.930 . S
C480 C481 1.367 . S
C480 C488 1.378 . S
C481 C480 1.367 . S
C481 C489 1.433 . S
C482 H478 0.929 . S
C482 C484 1.378 . S
C482 C486 1.350 . S
C483 C486 1.463 1_556 S
C483 C488 1.350 . S
C483 N491 1.427 . S
C484 H475 0.930 . S
C484 C482 1.378 . S
C484 C485 1.367 . S
C485 C484 1.367 . S
C485 C487 1.433 . S
C486 C482 1.350 . S
C486 C483 1.463 1_554 S
C486 N490 1.427 . S
C487 H477 0.929 . S
C487 C485 1.433 . S
C487 N490 1.384 . S
C488 H479 0.929 . S
C488 C480 1.378 . S
C488 C483 1.350 . S
C489 H476 0.929 . S
C489 C481 1.433 . S
C489 N491 1.384 . S
N490 C486 1.427 . S
N490 C487 1.384 . S
N491 C483 1.427 . S
N491 C489 1.384 . S
H492 C498 0.930 . S
H493 C502 0.930 . S
H494 C507 0.929 . S
H495 C505 0.929 . S
H496 C500 0.929 . S
H497 C506 0.929 . S
C498 H492 0.930 . S
C498 C499 1.367 . S
C498 C506 1.378 . S
C499 C498 1.367 . S
C499 C507 1.433 . S
C500 H496 0.929 . S
C500 C502 1.378 . S
C500 C504 1.350 . S
C501 C504 1.463 . S
C501 C506 1.350 . S
C501 N509 1.427 . S
C502 H493 0.930 . S
C502 C500 1.378 . S
C502 C503 1.367 . S
C503 C502 1.367 . S
C503 C505 1.433 . S
C504 C500 1.350 . S
C504 C501 1.463 . S
C504 N508 1.427 . S
C505 H495 0.929 . S
C505 C503 1.433 . S
C505 N508 1.384 . S
C506 H497 0.929 . S
C506 C498 1.378 . S
C506 C501 1.350 . S
C507 H494 0.929 . S
C507 C499 1.433 . S
C507 N509 1.384 . S
N508 C504 1.427 . S
N508 C505 1.384 . S
N509 C501 1.427 . S
N509 C507 1.384 . S
H510 C516 0.930 . S
H511 C520 0.930 . S
H512 C525 0.929 . S
H513 C523 0.929 . S
H514 C518 0.929 . S
H515 C524 0.929 . S
C516 H510 0.930 . S
C516 C517 1.367 . S
C516 C524 1.378 . S
C517 C516 1.367 . S
C517 C525 1.433 . S
C518 H514 0.929 . S
C518 C520 1.378 . S
C518 C522 1.350 . S
C519 C522 1.463 1_554 S
C519 C524 1.350 . S
C519 N527 1.427 . S
C520 H511 0.930 . S
C520 C518 1.378 . S
C520 C521 1.367 . S
C521 C520 1.367 . S
C521 C523 1.433 . S
C522 C518 1.350 . S
C522 C519 1.463 1_556 S
C522 N526 1.427 . S
C523 H513 0.929 . S
C523 C521 1.433 . S
C523 N526 1.384 . S
C524 H515 0.929 . S
C524 C516 1.378 . S
C524 C519 1.350 . S
C525 H512 0.929 . S
C525 C517 1.433 . S
C525 N527 1.384 . S
N526 C522 1.427 . S
N526 C523 1.384 . S
N527 C519 1.427 . S
N527 C525 1.384 . S
H528 C534 0.930 . S
H529 C538 0.930 . S
H530 C543 0.929 . S
H531 C541 0.929 . S
H532 C536 0.929 . S
H533 C542 0.929 . S
C534 H528 0.930 . S
C534 C535 1.367 . S
C534 C542 1.378 . S
C535 C534 1.367 . S
C535 C543 1.433 . S
C536 H532 0.929 . S
C536 C538 1.378 . S
C536 C540 1.350 . S
C537 C540 1.463 . S
C537 C542 1.350 . S
C537 N545 1.427 . S
C538 H529 0.930 . S
C538 C536 1.378 . S
C538 C539 1.367 . S
C539 C538 1.367 . S
C539 C541 1.433 . S
C540 C536 1.350 . S
C540 C537 1.463 . S
C540 N544 1.427 . S
C541 H531 0.929 . S
C541 C539 1.433 . S
C541 N544 1.384 . S
C542 H533 0.929 . S
C542 C534 1.378 . S
C542 C537 1.350 . S
C543 H530 0.929 . S
C543 C535 1.433 . S
C543 N545 1.384 . S
N544 C540 1.427 . S
N544 C541 1.384 . S
N545 C537 1.427 . S
N545 C543 1.384 . S
H546 C552 0.930 . S
H547 C556 0.930 . S
H548 C561 0.929 . S
H549 C559 0.929 . S
H550 C554 0.929 . S
H551 C560 0.929 . S
C552 H546 0.930 . S
C552 C553 1.367 . S
C552 C560 1.378 . S
C553 C552 1.367 . S
C553 C561 1.433 . S
C554 H550 0.929 . S
C554 C556 1.378 . S
C554 C558 1.350 . S
C555 C558 1.463 1_554 S
C555 C560 1.350 . S
C555 N563 1.427 . S
C556 H547 0.930 . S
C556 C554 1.378 . S
C556 C557 1.367 . S
C557 C556 1.367 . S
C557 C559 1.433 . S
C558 C554 1.350 . S
C558 C555 1.463 1_556 S
C558 N562 1.427 . S
C559 H549 0.929 . S
C559 C557 1.433 . S
C559 N562 1.384 . S
C560 H551 0.929 . S
C560 C552 1.378 . S
C560 C555 1.350 . S
C561 H548 0.929 . S
C561 C553 1.433 . S
C561 N563 1.384 . S
N562 C558 1.427 . S
N562 C559 1.384 . S
N563 C555 1.427 . S
N563 C561 1.384 . S
H564 C570 0.930 . S
H565 C574 0.930 . S
H566 C579 0.929 . S
H567 C577 0.929 . S
H568 C572 0.929 . S
H569 C578 0.929 . S
C570 H564 0.930 . S
C570 C571 1.367 . S
C570 C578 1.378 . S
C571 C570 1.367 . S
C571 C579 1.433 . S
C572 H568 0.929 . S
C572 C574 1.378 . S
C572 C576 1.350 . S
C573 C576 1.463 . S
C573 C578 1.350 . S
C573 N581 1.427 . S
C574 H565 0.930 . S
C574 C572 1.378 . S
C574 C575 1.367 . S
C575 C574 1.367 . S
C575 C577 1.433 . S
C576 C572 1.350 . S
C576 C573 1.463 . S
C576 N580 1.427 . S
C577 H567 0.929 . S
C577 C575 1.433 . S
C577 N580 1.384 . S
C578 H569 0.929 . S
C578 C570 1.378 . S
C578 C573 1.350 . S
C579 H566 0.929 . S
C579 C571 1.433 . S
C579 N581 1.384 . S
N580 C576 1.427 . S
N580 C577 1.384 . S
N581 C573 1.427 . S
N581 C579 1.384 . S
H582 C588 0.930 . S
H583 C592 0.930 . S
H584 C597 0.929 . S
H585 C595 0.929 . S
H586 C590 0.929 . S
H587 C596 0.929 . S
C588 H582 0.930 . S
C588 C589 1.367 . S
C588 C596 1.378 . S
C589 C588 1.367 . S
C589 C597 1.433 . S
C590 H586 0.929 . S
C590 C592 1.378 . S
C590 C594 1.350 . S
C591 C594 1.463 1_554 S
C591 C596 1.350 . S
C591 N599 1.427 . S
C592 H583 0.930 . S
C592 C590 1.378 . S
C592 C593 1.367 . S
C593 C592 1.367 . S
C593 C595 1.433 . S
C594 C590 1.350 . S
C594 C591 1.463 1_556 S
C594 N598 1.427 . S
C595 H585 0.929 . S
C595 C593 1.433 . S
C595 N598 1.384 . S
C596 H587 0.929 . S
C596 C588 1.378 . S
C596 C591 1.350 . S
C597 H584 0.929 . S
C597 C589 1.433 . S
C597 N599 1.384 . S
N598 C594 1.427 . S
N598 C595 1.384 . S
N599 C591 1.427 . S
N599 C597 1.384 . S
H600 C606 0.930 . S
H601 C610 0.930 . S
H602 C615 0.929 . S
H603 C613 0.929 . S
H604 C608 0.929 . S
H605 C614 0.929 . S
C606 H600 0.930 . S
C606 C607 1.367 . S
C606 C614 1.378 . S
C607 C606 1.367 . S
C607 C615 1.433 . S
C608 H604 0.929 . S
C608 C610 1.378 . S
C608 C612 1.350 . S
C609 C612 1.463 . S
C609 C614 1.350 . S
C609 N617 1.427 . S
C610 H601 0.930 . S
C610 C608 1.378 . S
C610 C611 1.367 . S
C611 C610 1.367 . S
C611 C613 1.433 . S
C612 C608 1.350 . S
C612 C609 1.463 . S
C612 N616 1.427 . S
C613 H603 0.929 . S
C613 C611 1.433 . S
C613 N616 1.384 . S
C614 H605 0.929 . S
C614 C606 1.378 . S
C614 C609 1.350 . S
C615 H602 0.929 . S
C615 C607 1.433 . S
C615 N617 1.384 . S
N616 C612 1.427 . S
N616 C613 1.384 . S
N617 C609 1.427 . S
N617 C615 1.384 . S
H618 C624 0.930 . S
H619 C628 0.930 . S
H620 C633 0.929 . S
H621 C631 0.929 . S
H622 C626 0.929 . S
H623 C632 0.929 . S
C624 H618 0.930 . S
C624 C625 1.367 . S
C624 C632 1.378 . S
C625 C624 1.367 . S
C625 C633 1.433 . S
C626 H622 0.929 . S
C626 C628 1.378 . S
C626 C630 1.350 . S
C627 C630 1.463 . S
C627 C632 1.350 . S
C627 N635 1.427 . S
C628 H619 0.930 . S
C628 C626 1.378 . S
C628 C629 1.367 . S
C629 C628 1.367 . S
C629 C631 1.433 . S
C630 C626 1.350 . S
C630 C627 1.463 . S
C630 N634 1.427 . S
C631 H621 0.929 . S
C631 C629 1.433 . S
C631 N634 1.384 . S
C632 H623 0.929 . S
C632 C624 1.378 . S
C632 C627 1.350 . S
C633 H620 0.929 . S
C633 C625 1.433 . S
C633 N635 1.384 . S
N634 C630 1.427 . S
N634 C631 1.384 . S
N635 C627 1.427 . S
N635 C633 1.384 . S
H636 C642 0.930 . S
H637 C646 0.930 . S
H638 C651 0.929 . S
H639 C649 0.929 . S
H640 C644 0.929 . S
H641 C650 0.929 . S
C642 H636 0.930 . S
C642 C643 1.367 . S
C642 C650 1.378 . S
C643 C642 1.367 . S
C643 C651 1.433 . S
C644 H640 0.929 . S
C644 C646 1.378 . S
C644 C648 1.350 . S
C645 C648 1.463 1_565 S
C645 C650 1.350 . S
C645 N653 1.427 . S
C646 H637 0.930 . S
C646 C644 1.378 . S
C646 C647 1.367 . S
C647 C646 1.367 . S
C647 C649 1.433 . S
C648 C644 1.350 . S
C648 C645 1.463 1_545 S
C648 N652 1.427 . S
C649 H639 0.929 . S
C649 C647 1.433 . S
C649 N652 1.384 . S
C650 H641 0.929 . S
C650 C642 1.378 . S
C650 C645 1.350 . S
C651 H638 0.929 . S
C651 C643 1.433 . S
C651 N653 1.384 . S
N652 C648 1.427 . S
N652 C649 1.384 . S
N653 C645 1.427 . S
N653 C651 1.384 . S
H654 C660 0.930 . S
H655 C664 0.930 . S
H656 C669 0.929 . S
H657 C667 0.929 . S
H658 C662 0.929 . S
H659 C668 0.929 . S
C660 H654 0.930 . S
C660 C661 1.367 . S
C660 C668 1.378 . S
C661 C660 1.367 . S
C661 C669 1.433 . S
C662 H658 0.929 . S
C662 C664 1.378 . S
C662 C666 1.350 . S
C663 C666 1.463 . S
C663 C668 1.350 . S
C663 N671 1.427 . S
C664 H655 0.930 . S
C664 C662 1.378 . S
C664 C665 1.367 . S
C665 C664 1.367 . S
C665 C667 1.433 . S
C666 C662 1.350 . S
C666 C663 1.463 . S
C666 N670 1.427 . S
C667 H657 0.929 . S
C667 C665 1.433 . S
C667 N670 1.384 . S
C668 H659 0.929 . S
C668 C660 1.378 . S
C668 C663 1.350 . S
C669 H656 0.929 . S
C669 C661 1.433 . S
C669 N671 1.384 . S
N670 C666 1.427 . S
N670 C667 1.384 . S
N671 C663 1.427 . S
N671 C669 1.384 . S
H672 C678 0.930 . S
H673 C682 0.930 . S
H674 C687 0.929 . S
H675 C685 0.929 . S
H676 C680 0.929 . S
H677 C686 0.929 . S
C678 H672 0.930 . S
C678 C679 1.367 . S
C678 C686 1.378 . S
C679 C678 1.367 . S
C679 C687 1.433 . S
C680 H676 0.929 . S
C680 C682 1.378 . S
C680 C684 1.350 . S
C681 C684 1.463 1_565 S
C681 C686 1.350 . S
C681 N689 1.427 . S
C682 H673 0.930 . S
C682 C680 1.378 . S
C682 C683 1.367 . S
C683 C682 1.367 . S
C683 C685 1.433 . S
C684 C680 1.350 . S
C684 C681 1.463 1_545 S
C684 N688 1.427 . S
C685 H675 0.929 . S
C685 C683 1.433 . S
C685 N688 1.384 . S
C686 H677 0.929 . S
C686 C678 1.378 . S
C686 C681 1.350 . S
C687 H674 0.929 . S
C687 C679 1.433 . S
C687 N689 1.384 . S
N688 C684 1.427 . S
N688 C685 1.384 . S
N689 C681 1.427 . S
N689 C687 1.384 . S
H690 C696 0.930 . S
H691 C700 0.930 . S
H692 C705 0.929 . S
H693 C703 0.929 . S
H694 C698 0.929 . S
H695 C704 0.929 . S
C696 H690 0.930 . S
C696 C697 1.367 . S
C696 C704 1.378 . S
C697 C696 1.367 . S
C697 C705 1.433 . S
C698 H694 0.929 . S
C698 C700 1.378 . S
C698 C702 1.350 . S
C699 C702 1.463 . S
C699 C704 1.350 . S
C699 N707 1.427 . S
C700 H691 0.930 . S
C700 C698 1.378 . S
C700 C701 1.367 . S
C701 C700 1.367 . S
C701 C703 1.433 . S
C702 C698 1.350 . S
C702 C699 1.463 . S
C702 N706 1.427 . S
C703 H693 0.929 . S
C703 C701 1.433 . S
C703 N706 1.384 . S
C704 H695 0.929 . S
C704 C696 1.378 . S
C704 C699 1.350 . S
C705 H692 0.929 . S
C705 C697 1.433 . S
C705 N707 1.384 . S
N706 C702 1.427 . S
N706 C703 1.384 . S
N707 C699 1.427 . S
N707 C705 1.384 . S
H708 C714 0.930 . S
H709 C718 0.930 . S
H710 C723 0.929 . S
H711 C721 0.929 . S
H712 C716 0.929 . S
H713 C722 0.929 . S
C714 H708 0.930 . S
C714 C715 1.367 . S
C714 C722 1.378 . S
C715 C714 1.367 . S
C715 C723 1.433 . S
C716 H712 0.929 . S
C716 C718 1.378 . S
C716 C720 1.350 . S
C717 C720 1.463 1_565 S
C717 C722 1.350 . S
C717 N725 1.427 . S
C718 H709 0.930 . S
C718 C716 1.378 . S
C718 C719 1.367 . S
C719 C718 1.367 . S
C719 C721 1.433 . S
C720 C716 1.350 . S
C720 C717 1.463 1_545 S
C720 N724 1.427 . S
C721 H711 0.929 . S
C721 C719 1.433 . S
C721 N724 1.384 . S
C722 H713 0.929 . S
C722 C714 1.378 . S
C722 C717 1.350 . S
C723 H710 0.929 . S
C723 C715 1.433 . S
C723 N725 1.384 . S
N724 C720 1.427 . S
N724 C721 1.384 . S
N725 C717 1.427 . S
N725 C723 1.384 . S
H726 C732 0.930 . S
H727 C736 0.930 . S
H728 C741 0.929 . S
H729 C739 0.929 . S
H730 C734 0.929 . S
H731 C740 0.929 . S
C732 H726 0.930 . S
C732 C733 1.367 . S
C732 C740 1.378 . S
C733 C732 1.367 . S
C733 C741 1.433 . S
C734 H730 0.929 . S
C734 C736 1.378 . S
C734 C738 1.350 . S
C735 C738 1.463 1_545 S
C735 C740 1.350 . S
C735 N743 1.427 . S
C736 H727 0.930 . S
C736 C734 1.378 . S
C736 C737 1.367 . S
C737 C736 1.367 . S
C737 C739 1.433 . S
C738 C734 1.350 . S
C738 C735 1.463 1_565 S
C738 N742 1.427 . S
C739 H729 0.929 . S
C739 C737 1.433 . S
C739 N742 1.384 . S
C740 H731 0.929 . S
C740 C732 1.378 . S
C740 C735 1.350 . S
C741 H728 0.929 . S
C741 C733 1.433 . S
C741 N743 1.384 . S
N742 C738 1.427 . S
N742 C739 1.384 . S
N743 C735 1.427 . S
N743 C741 1.384 . S
H744 C750 0.930 . S
H745 C754 0.930 . S
H746 C759 0.929 . S
H747 C757 0.929 . S
H748 C752 0.929 . S
H749 C758 0.929 . S
C750 H744 0.930 . S
C750 C751 1.367 . S
C750 C758 1.378 . S
C751 C750 1.367 . S
C751 C759 1.433 . S
C752 H748 0.929 . S
C752 C754 1.378 . S
C752 C756 1.350 . S
C753 C756 1.463 . S
C753 C758 1.350 . S
C753 N761 1.427 . S
C754 H745 0.930 . S
C754 C752 1.378 . S
C754 C755 1.367 . S
C755 C754 1.367 . S
C755 C757 1.433 . S
C756 C752 1.350 . S
C756 C753 1.463 . S
C756 N760 1.427 . S
C757 H747 0.929 . S
C757 C755 1.433 . S
C757 N760 1.384 . S
C758 H749 0.929 . S
C758 C750 1.378 . S
C758 C753 1.350 . S
C759 H746 0.929 . S
C759 C751 1.433 . S
C759 N761 1.384 . S
N760 C756 1.427 . S
N760 C757 1.384 . S
N761 C753 1.427 . S
N761 C759 1.384 . S
H762 C768 0.930 . S
H763 C772 0.930 . S
H764 C777 0.929 . S
H765 C775 0.929 . S
H766 C770 0.929 . S
H767 C776 0.929 . S
C768 H762 0.930 . S
C768 C769 1.367 . S
C768 C776 1.378 . S
C769 C768 1.367 . S
C769 C777 1.433 . S
C770 H766 0.929 . S
C770 C772 1.378 . S
C770 C774 1.350 . S
C771 C774 1.463 . S
C771 C776 1.350 . S
C771 N779 1.427 . S
C772 H763 0.930 . S
C772 C770 1.378 . S
C772 C773 1.367 . S
C773 C772 1.367 . S
C773 C775 1.433 . S
C774 C770 1.350 . S
C774 C771 1.463 . S
C774 N778 1.427 . S
C775 H765 0.929 . S
C775 C773 1.433 . S
C775 N778 1.384 . S
C776 H767 0.929 . S
C776 C768 1.378 . S
C776 C771 1.350 . S
C777 H764 0.929 . S
C777 C769 1.433 . S
C777 N779 1.384 . S
N778 C774 1.427 . S
N778 C775 1.384 . S
N779 C771 1.427 . S
N779 C777 1.384 . S
H780 C786 0.930 . S
H781 C790 0.930 . S
H782 C795 0.929 . S
H783 C793 0.929 . S
H784 C788 0.929 . S
H785 C794 0.929 . S
C786 H780 0.930 . S
C786 C787 1.367 . S
C786 C794 1.378 . S
C787 C786 1.367 . S
C787 C795 1.433 . S
C788 H784 0.929 . S
C788 C790 1.378 . S
C788 C792 1.350 . S
C789 C792 1.463 . S
C789 C794 1.350 . S
C789 N797 1.427 . S
C790 H781 0.930 . S
C790 C788 1.378 . S
C790 C791 1.367 . S
C791 C790 1.367 . S
C791 C793 1.433 . S
C792 C788 1.350 . S
C792 C789 1.463 . S
C792 N796 1.427 . S
C793 H783 0.929 . S
C793 C791 1.433 . S
C793 N796 1.384 . S
C794 H785 0.929 . S
C794 C786 1.378 . S
C794 C789 1.350 . S
C795 H782 0.929 . S
C795 C787 1.433 . S
C795 N797 1.384 . S
N796 C792 1.427 . S
N796 C793 1.384 . S
N797 C789 1.427 . S
N797 C795 1.384 . S
H798 C804 0.930 . S
H799 C808 0.930 . S
H800 C813 0.929 . S
H801 C811 0.929 . S
H802 C806 0.929 . S
H803 C812 0.929 . S
C804 H798 0.930 . S
C804 C805 1.367 . S
C804 C812 1.378 . S
C805 C804 1.367 . S
C805 C813 1.433 . S
C806 H802 0.929 . S
C806 C808 1.378 . S
C806 C810 1.350 . S
C807 C810 1.463 . S
C807 C812 1.350 . S
C807 N815 1.427 . S
C808 H799 0.930 . S
C808 C806 1.378 . S
C808 C809 1.367 . S
C809 C808 1.367 . S
C809 C811 1.433 . S
C810 C806 1.350 . S
C810 C807 1.463 . S
C810 N814 1.427 . S
C811 H801 0.929 . S
C811 C809 1.433 . S
C811 N814 1.384 . S
C812 H803 0.929 . S
C812 C804 1.378 . S
C812 C807 1.350 . S
C813 H800 0.929 . S
C813 C805 1.433 . S
C813 N815 1.384 . S
N814 C810 1.427 . S
N814 C811 1.384 . S
N815 C807 1.427 . S
N815 C813 1.384 . S
H816 C822 0.930 . S
H817 C826 0.930 . S
H818 C831 0.929 . S
H819 C829 0.929 . S
H820 C824 0.929 . S
H821 C830 0.929 . S
C822 H816 0.930 . S
C822 C823 1.367 . S
C822 C830 1.378 . S
C823 C822 1.367 . S
C823 C831 1.433 . S
C824 H820 0.929 . S
C824 C826 1.378 . S
C824 C828 1.350 . S
C825 C828 1.463 . S
C825 C830 1.350 . S
C825 N833 1.427 . S
C826 H817 0.930 . S
C826 C824 1.378 . S
C826 C827 1.367 . S
C827 C826 1.367 . S
C827 C829 1.433 . S
C828 C824 1.350 . S
C828 C825 1.463 . S
C828 N832 1.427 . S
C829 H819 0.929 . S
C829 C827 1.433 . S
C829 N832 1.384 . S
C830 H821 0.929 . S
C830 C822 1.378 . S
C830 C825 1.350 . S
C831 H818 0.929 . S
C831 C823 1.433 . S
C831 N833 1.384 . S
N832 C828 1.427 . S
N832 C829 1.384 . S
N833 C825 1.427 . S
N833 C831 1.384 . S
H834 C840 0.930 . S
H835 C844 0.930 . S
H836 C849 0.929 . S
H837 C847 0.929 . S
H838 C842 0.929 . S
H839 C848 0.929 . S
C840 H834 0.930 . S
C840 C841 1.367 . S
C840 C848 1.378 . S
C841 C840 1.367 . S
C841 C849 1.433 . S
C842 H838 0.929 . S
C842 C844 1.378 . S
C842 C846 1.350 . S
C843 C846 1.463 . S
C843 C848 1.350 . S
C843 N851 1.427 . S
C844 H835 0.930 . S
C844 C842 1.378 . S
C844 C845 1.367 . S
C845 C844 1.367 . S
C845 C847 1.433 . S
C846 C842 1.350 . S
C846 C843 1.463 . S
C846 N850 1.427 . S
C847 H837 0.929 . S
C847 C845 1.433 . S
C847 N850 1.384 . S
C848 H839 0.929 . S
C848 C840 1.378 . S
C848 C843 1.350 . S
C849 H836 0.929 . S
C849 C841 1.433 . S
C849 N851 1.384 . S
N850 C846 1.427 . S
N850 C847 1.384 . S
N851 C843 1.427 . S
N851 C849 1.384 . S
H852 C858 0.930 . S
H853 C862 0.930 . S
H854 C867 0.929 . S
H855 C865 0.929 . S
H856 C860 0.929 . S
H857 C866 0.929 . S
C858 H852 0.930 . S
C858 C859 1.367 . S
C858 C866 1.378 . S
C859 C858 1.367 . S
C859 C867 1.433 . S
C860 H856 0.929 . S
C860 C862 1.378 . S
C860 C864 1.350 . S
C861 C864 1.463 . S
C861 C866 1.350 . S
C861 N869 1.427 . S
C862 H853 0.930 . S
C862 C860 1.378 . S
C862 C863 1.367 . S
C863 C862 1.367 . S
C863 C865 1.433 . S
C864 C860 1.350 . S
C864 C861 1.463 . S
C864 N868 1.427 . S
C865 H855 0.929 . S
C865 C863 1.433 . S
C865 N868 1.384 . S
C866 H857 0.929 . S
C866 C858 1.378 . S
C866 C861 1.350 . S
C867 H854 0.929 . S
C867 C859 1.433 . S
C867 N869 1.384 . S
N868 C864 1.427 . S
N868 C865 1.384 . S
N869 C861 1.427 . S
N869 C867 1.384 . S
H870 C876 0.930 . S
H871 C880 0.930 . S
H872 C885 0.929 . S
H873 C883 0.929 . S
H874 C878 0.929 . S
H875 C884 0.929 . S
C876 H870 0.930 . S
C876 C877 1.367 . S
C876 C884 1.378 . S
C877 C876 1.367 . S
C877 C885 1.433 . S
C878 H874 0.929 . S
C878 C880 1.378 . S
C878 C882 1.350 . S
C879 C882 1.463 . S
C879 C884 1.350 . S
C879 N887 1.427 . S
C880 H871 0.930 . S
C880 C878 1.378 . S
C880 C881 1.367 . S
C881 C880 1.367 . S
C881 C883 1.433 . S
C882 C878 1.350 . S
C882 C879 1.463 . S
C882 N886 1.427 . S
C883 H873 0.929 . S
C883 C881 1.433 . S
C883 N886 1.384 . S
C884 H875 0.929 . S
C884 C876 1.378 . S
C884 C879 1.350 . S
C885 H872 0.929 . S
C885 C877 1.433 . S
C885 N887 1.384 . S
N886 C882 1.427 . S
N886 C883 1.384 . S
N887 C879 1.427 . S
N887 C885 1.384 . S
H888 C894 0.930 . S
H889 C898 0.930 . S
H890 C903 0.929 . S
H891 C901 0.929 . S
H892 C896 0.929 . S
H893 C902 0.929 . S
C894 H888 0.930 . S
C894 C895 1.367 . S
C894 C902 1.378 . S
C895 C894 1.367 . S
C895 C903 1.433 . S
C896 H892 0.929 . S
C896 C898 1.378 . S
C896 C900 1.350 . S
C897 C900 1.463 . S
C897 C902 1.350 . S
C897 N905 1.427 . S
C898 H889 0.930 . S
C898 C896 1.378 . S
C898 C899 1.367 . S
C899 C898 1.367 . S
C899 C901 1.433 . S
C900 C896 1.350 . S
C900 C897 1.463 . S
C900 N904 1.427 . S
C901 H891 0.929 . S
C901 C899 1.433 . S
C901 N904 1.384 . S
C902 H893 0.929 . S
C902 C894 1.378 . S
C902 C897 1.350 . S
C903 H890 0.929 . S
C903 C895 1.433 . S
C903 N905 1.384 . S
N904 C900 1.427 . S
N904 C901 1.384 . S
N905 C897 1.427 . S
N905 C903 1.384 . S
H906 C912 0.930 . S
H907 C916 0.930 . S
H908 C921 0.929 . S
H909 C919 0.929 . S
H910 C914 0.929 . S
H911 C920 0.929 . S
C912 H906 0.930 . S
C912 C913 1.367 . S
C912 C920 1.378 . S
C913 C912 1.367 . S
C913 C921 1.433 . S
C914 H910 0.929 . S
C914 C916 1.378 . S
C914 C918 1.350 . S
C915 C918 1.463 . S
C915 C920 1.350 . S
C915 N923 1.427 . S
C916 H907 0.930 . S
C916 C914 1.378 . S
C916 C917 1.367 . S
C917 C916 1.367 . S
C917 C919 1.433 . S
C918 C914 1.350 . S
C918 C915 1.463 . S
C918 N922 1.427 . S
C919 H909 0.929 . S
C919 C917 1.433 . S
C919 N922 1.384 . S
C920 H911 0.929 . S
C920 C912 1.378 . S
C920 C915 1.350 . S
C921 H908 0.929 . S
C921 C913 1.433 . S
C921 N923 1.384 . S
N922 C918 1.427 . S
N922 C919 1.384 . S
N923 C915 1.427 . S
N923 C921 1.384 . S
H924 C930 0.930 . S
H925 C934 0.930 . S
H926 C939 0.929 . S
H927 C937 0.929 . S
H928 C932 0.929 . S
H929 C938 0.929 . S
C930 H924 0.930 . S
C930 C931 1.367 . S
C930 C938 1.378 . S
C931 C930 1.367 . S
C931 C939 1.433 . S
C932 H928 0.929 . S
C932 C934 1.378 . S
C932 C936 1.350 . S
C933 C936 1.463 . S
C933 C938 1.350 . S
C933 N941 1.427 . S
C934 H925 0.930 . S
C934 C932 1.378 . S
C934 C935 1.367 . S
C935 C934 1.367 . S
C935 C937 1.433 . S
C936 C932 1.350 . S
C936 C933 1.463 . S
C936 N940 1.427 . S
C937 H927 0.929 . S
C937 C935 1.433 . S
C937 N940 1.384 . S
C938 H929 0.929 . S
C938 C930 1.378 . S
C938 C933 1.350 . S
C939 H926 0.929 . S
C939 C931 1.433 . S
C939 N941 1.384 . S
N940 C936 1.427 . S
N940 C937 1.384 . S
N941 C933 1.427 . S
N941 C939 1.384 . S
H942 C948 0.930 . S
H943 C952 0.930 . S
H944 C957 0.929 . S
H945 C955 0.929 . S
H946 C950 0.929 . S
H947 C956 0.929 . S
C948 H942 0.930 . S
C948 C949 1.367 . S
C948 C956 1.378 . S
C949 C948 1.367 . S
C949 C957 1.433 . S
C950 H946 0.929 . S
C950 C952 1.378 . S
C950 C954 1.350 . S
C951 C954 1.463 . S
C951 C956 1.350 . S
C951 N959 1.427 . S
C952 H943 0.930 . S
C952 C950 1.378 . S
C952 C953 1.367 . S
C953 C952 1.367 . S
C953 C955 1.433 . S
C954 C950 1.350 . S
C954 C951 1.463 . S
C954 N958 1.427 . S
C955 H945 0.929 . S
C955 C953 1.433 . S
C955 N958 1.384 . S
C956 H947 0.929 . S
C956 C948 1.378 . S
C956 C951 1.350 . S
C957 H944 0.929 . S
C957 C949 1.433 . S
C957 N959 1.384 . S
N958 C954 1.427 . S
N958 C955 1.384 . S
N959 C951 1.427 . S
N959 C957 1.384 . S
H960 C966 0.930 . S
H961 C970 0.930 . S
H962 C975 0.929 . S
H963 C973 0.929 . S
H964 C968 0.929 . S
H965 C974 0.929 . S
C966 H960 0.930 . S
C966 C967 1.367 . S
C966 C974 1.378 . S
C967 C966 1.367 . S
C967 C975 1.433 . S
C968 H964 0.929 . S
C968 C970 1.378 . S
C968 C972 1.350 . S
C969 C972 1.463 . S
C969 C974 1.350 . S
C969 N977 1.427 . S
C970 H961 0.930 . S
C970 C968 1.378 . S
C970 C971 1.367 . S
C971 C970 1.367 . S
C971 C973 1.433 . S
C972 C968 1.350 . S
C972 C969 1.463 . S
C972 N976 1.427 . S
C973 H963 0.929 . S
C973 C971 1.433 . S
C973 N976 1.384 . S
C974 H965 0.929 . S
C974 C966 1.378 . S
C974 C969 1.350 . S
C975 H962 0.929 . S
C975 C967 1.433 . S
C975 N977 1.384 . S
N976 C972 1.427 . S
N976 C973 1.384 . S
N977 C969 1.427 . S
N977 C975 1.384 . S
H978 C984 0.930 . S
H979 C988 0.930 . S
H980 C993 0.929 . S
H981 C991 0.929 . S
H982 C986 0.929 . S
H983 C992 0.929 . S
C984 H978 0.930 . S
C984 C985 1.367 . S
C984 C992 1.378 . S
C985 C984 1.367 . S
C985 C993 1.433 . S
C986 H982 0.929 . S
C986 C988 1.378 . S
C986 C990 1.350 . S
C987 C990 1.463 . S
C987 C992 1.350 . S
C987 N995 1.427 . S
C988 H979 0.930 . S
C988 C986 1.378 . S
C988 C989 1.367 . S
C989 C988 1.367 . S
C989 C991 1.433 . S
C990 C986 1.350 . S
C990 C987 1.463 . S
C990 N994 1.427 . S
C991 H981 0.929 . S
C991 C989 1.433 . S
C991 N994 1.384 . S
C992 H983 0.929 . S
C992 C984 1.378 . S
C992 C987 1.350 . S
C993 H980 0.929 . S
C993 C985 1.433 . S
C993 N995 1.384 . S
N994 C990 1.427 . S
N994 C991 1.384 . S
N995 C987 1.427 . S
N995 C993 1.384 . S
H996 C1002 0.930 . S
H997 C1006 0.930 . S
H998 C1011 0.929 . S
H999 C1009 0.929 . S
H1000 C1004 0.929 . S
H1001 C1010 0.929 . S
C1002 H996 0.930 . S
C1002 C1003 1.367 . S
C1002 C1010 1.378 . S
C1003 C1002 1.367 . S
C1003 C1011 1.433 . S
C1004 H1000 0.929 . S
C1004 C1006 1.378 . S
C1004 C1008 1.350 . S
C1005 C1008 1.463 . S
C1005 C1010 1.350 . S
C1005 N1013 1.427 . S
C1006 H997 0.930 . S
C1006 C1004 1.378 . S
C1006 C1007 1.367 . S
C1007 C1006 1.367 . S
C1007 C1009 1.433 . S
C1008 C1004 1.350 . S
C1008 C1005 1.463 . S
C1008 N1012 1.427 . S
C1009 H999 0.929 . S
C1009 C1007 1.433 . S
C1009 N1012 1.384 . S
C1010 H1001 0.929 . S
C1010 C1002 1.378 . S
C1010 C1005 1.350 . S
C1011 H998 0.929 . S
C1011 C1003 1.433 . S
C1011 N1013 1.384 . S
N1012 C1008 1.427 . S
N1012 C1009 1.384 . S
N1013 C1005 1.427 . S
N1013 C1011 1.384 . S
H1014 C1020 0.930 . S
H1015 C1024 0.930 . S
H1016 C1029 0.929 . S
H1017 C1027 0.929 . S
H1018 C1022 0.929 . S
H1019 C1028 0.929 . S
C1020 H1014 0.930 . S
C1020 C1021 1.367 . S
C1020 C1028 1.378 . S
C1021 C1020 1.367 . S
C1021 C1029 1.433 . S
C1022 H1018 0.929 . S
C1022 C1024 1.378 . S
C1022 C1026 1.350 . S
C1023 C1026 1.463 . S
C1023 C1028 1.350 . S
C1023 N1031 1.427 . S
C1024 H1015 0.930 . S
C1024 C1022 1.378 . S
C1024 C1025 1.367 . S
C1025 C1024 1.367 . S
C1025 C1027 1.433 . S
C1026 C1022 1.350 . S
C1026 C1023 1.463 . S
C1026 N1030 1.427 . S
C1027 H1017 0.929 . S
C1027 C1025 1.433 . S
C1027 N1030 1.384 . S
C1028 H1019 0.929 . S
C1028 C1020 1.378 . S
C1028 C1023 1.350 . S
C1029 H1016 0.929 . S
C1029 C1021 1.433 . S
C1029 N1031 1.384 . S
N1030 C1026 1.427 . S
N1030 C1027 1.384 . S
N1031 C1023 1.427 . S
N1031 C1029 1.384 . S
H1032 C1038 0.930 . S
H1033 C1042 0.930 . S
H1034 C1047 0.929 . S
H1035 C1045 0.929 . S
H1036 C1040 0.929 . S
H1037 C1046 0.929 . S
C1038 H1032 0.930 . S
C1038 C1039 1.367 . S
C1038 C1046 1.378 . S
C1039 C1038 1.367 . S
C1039 C1047 1.433 . S
C1040 H1036 0.929 . S
C1040 C1042 1.378 . S
C1040 C1044 1.350 . S
C1041 C1044 1.463 . S
C1041 C1046 1.350 . S
C1041 N1049 1.427 . S
C1042 H1033 0.930 . S
C1042 C1040 1.378 . S
C1042 C1043 1.367 . S
C1043 C1042 1.367 . S
C1043 C1045 1.433 . S
C1044 C1040 1.350 . S
C1044 C1041 1.463 . S
C1044 N1048 1.427 . S
C1045 H1035 0.929 . S
C1045 C1043 1.433 . S
C1045 N1048 1.384 . S
C1046 H1037 0.929 . S
C1046 C1038 1.378 . S
C1046 C1041 1.350 . S
C1047 H1034 0.929 . S
C1047 C1039 1.433 . S
C1047 N1049 1.384 . S
N1048 C1044 1.427 . S
N1048 C1045 1.384 . S
N1049 C1041 1.427 . S
N1049 C1047 1.384 . S
H1050 C1056 0.930 . S
H1051 C1060 0.930 . S
H1052 C1065 0.929 . S
H1053 C1063 0.929 . S
H1054 C1058 0.929 . S
H1055 C1064 0.929 . S
C1056 H1050 0.930 . S
C1056 C1057 1.367 . S
C1056 C1064 1.378 . S
C1057 C1056 1.367 . S
C1057 C1065 1.433 . S
C1058 H1054 0.929 . S
C1058 C1060 1.378 . S
C1058 C1062 1.350 . S
C1059 C1062 1.463 . S
C1059 C1064 1.350 . S
C1059 N1067 1.427 . S
C1060 H1051 0.930 . S
C1060 C1058 1.378 . S
C1060 C1061 1.367 . S
C1061 C1060 1.367 . S
C1061 C1063 1.433 . S
C1062 C1058 1.350 . S
C1062 C1059 1.463 . S
C1062 N1066 1.427 . S
C1063 H1053 0.929 . S
C1063 C1061 1.433 . S
C1063 N1066 1.384 . S
C1064 H1055 0.929 . S
C1064 C1056 1.378 . S
C1064 C1059 1.350 . S
C1065 H1052 0.929 . S
C1065 C1057 1.433 . S
C1065 N1067 1.384 . S
N1066 C1062 1.427 . S
N1066 C1063 1.384 . S
N1067 C1059 1.427 . S
N1067 C1065 1.384 . S
H1068 C1074 0.930 . S
H1069 C1078 0.930 . S
H1070 C1083 0.929 . S
H1071 C1081 0.929 . S
H1072 C1076 0.929 . S
H1073 C1082 0.929 . S
C1074 H1068 0.930 . S
C1074 C1075 1.367 . S
C1074 C1082 1.378 . S
C1075 C1074 1.367 . S
C1075 C1083 1.433 . S
C1076 H1072 0.929 . S
C1076 C1078 1.378 . S
C1076 C1080 1.350 . S
C1077 C1080 1.463 . S
C1077 C1082 1.350 . S
C1077 N1085 1.427 . S
C1078 H1069 0.930 . S
C1078 C1076 1.378 . S
C1078 C1079 1.367 . S
C1079 C1078 1.367 . S
C1079 C1081 1.433 . S
C1080 C1076 1.350 . S
C1080 C1077 1.463 . S
C1080 N1084 1.427 . S
C1081 H1071 0.929 . S
C1081 C1079 1.433 . S
C1081 N1084 1.384 . S
C1082 H1073 0.929 . S
C1082 C1074 1.378 . S
C1082 C1077 1.350 . S
C1083 H1070 0.929 . S
C1083 C1075 1.433 . S
C1083 N1085 1.384 . S
N1084 C1080 1.427 . S
N1084 C1081 1.384 . S
N1085 C1077 1.427 . S
N1085 C1083 1.384 . S
H1086 C1092 0.930 . S
H1087 C1096 0.930 . S
H1088 C1101 0.929 . S
H1089 C1099 0.929 . S
H1090 C1094 0.929 . S
H1091 C1100 0.929 . S
C1092 H1086 0.930 . S
C1092 C1093 1.367 . S
C1092 C1100 1.378 . S
C1093 C1092 1.367 . S
C1093 C1101 1.433 . S
C1094 H1090 0.929 . S
C1094 C1096 1.378 . S
C1094 C1098 1.350 . S
C1095 C1098 1.463 . S
C1095 C1100 1.350 . S
C1095 N1103 1.427 . S
C1096 H1087 0.930 . S
C1096 C1094 1.378 . S
C1096 C1097 1.367 . S
C1097 C1096 1.367 . S
C1097 C1099 1.433 . S
C1098 C1094 1.350 . S
C1098 C1095 1.463 . S
C1098 N1102 1.427 . S
C1099 H1089 0.929 . S
C1099 C1097 1.433 . S
C1099 N1102 1.384 . S
C1100 H1091 0.929 . S
C1100 C1092 1.378 . S
C1100 C1095 1.350 . S
C1101 H1088 0.929 . S
C1101 C1093 1.433 . S
C1101 N1103 1.384 . S
N1102 C1098 1.427 . S
N1102 C1099 1.384 . S
N1103 C1095 1.427 . S
N1103 C1101 1.384 . S
H1104 C1110 0.930 . S
H1105 C1114 0.930 . S
H1106 C1119 0.929 . S
H1107 C1117 0.929 . S
H1108 C1112 0.929 . S
H1109 C1118 0.929 . S
C1110 H1104 0.930 . S
C1110 C1111 1.367 . S
C1110 C1118 1.378 . S
C1111 C1110 1.367 . S
C1111 C1119 1.433 . S
C1112 H1108 0.929 . S
C1112 C1114 1.378 . S
C1112 C1116 1.350 . S
C1113 C1116 1.463 . S
C1113 C1118 1.350 . S
C1113 N1121 1.427 . S
C1114 H1105 0.930 . S
C1114 C1112 1.378 . S
C1114 C1115 1.367 . S
C1115 C1114 1.367 . S
C1115 C1117 1.433 . S
C1116 C1112 1.350 . S
C1116 C1113 1.463 . S
C1116 N1120 1.427 . S
C1117 H1107 0.929 . S
C1117 C1115 1.433 . S
C1117 N1120 1.384 . S
C1118 H1109 0.929 . S
C1118 C1110 1.378 . S
C1118 C1113 1.350 . S
C1119 H1106 0.929 . S
C1119 C1111 1.433 . S
C1119 N1121 1.384 . S
N1120 C1116 1.427 . S
N1120 C1117 1.384 . S
N1121 C1113 1.427 . S
N1121 C1119 1.384 . S
H1122 C1128 0.930 . S
H1123 C1132 0.930 . S
H1124 C1137 0.929 . S
H1125 C1135 0.929 . S
H1126 C1130 0.929 . S
H1127 C1136 0.929 . S
C1128 H1122 0.930 . S
C1128 C1129 1.367 . S
C1128 C1136 1.378 . S
C1129 C1128 1.367 . S
C1129 C1137 1.433 . S
C1130 H1126 0.929 . S
C1130 C1132 1.378 . S
C1130 C1134 1.350 . S
C1131 C1134 1.463 . S
C1131 C1136 1.350 . S
C1131 N1139 1.427 . S
C1132 H1123 0.930 . S
C1132 C1130 1.378 . S
C1132 C1133 1.367 . S
C1133 C1132 1.367 . S
C1133 C1135 1.433 . S
C1134 C1130 1.350 . S
C1134 C1131 1.463 . S
C1134 N1138 1.427 . S
C1135 H1125 0.929 . S
C1135 C1133 1.433 . S
C1135 N1138 1.384 . S
C1136 H1127 0.929 . S
C1136 C1128 1.378 . S
C1136 C1131 1.350 . S
C1137 H1124 0.929 . S
C1137 C1129 1.433 . S
C1137 N1139 1.384 . S
N1138 C1134 1.427 . S
N1138 C1135 1.384 . S
N1139 C1131 1.427 . S
N1139 C1137 1.384 . S
H1140 C1146 0.930 . S
H1141 C1150 0.930 . S
H1142 C1155 0.929 . S
H1143 C1153 0.929 . S
H1144 C1148 0.929 . S
H1145 C1154 0.929 . S
C1146 H1140 0.930 . S
C1146 C1147 1.367 . S
C1146 C1154 1.378 . S
C1147 C1146 1.367 . S
C1147 C1155 1.433 . S
C1148 H1144 0.929 . S
C1148 C1150 1.378 . S
C1148 C1152 1.350 . S
C1149 C1152 1.463 . S
C1149 C1154 1.350 . S
C1149 N1157 1.427 . S
C1150 H1141 0.930 . S
C1150 C1148 1.378 . S
C1150 C1151 1.367 . S
C1151 C1150 1.367 . S
C1151 C1153 1.433 . S
C1152 C1148 1.350 . S
C1152 C1149 1.463 . S
C1152 N1156 1.427 . S
C1153 H1143 0.929 . S
C1153 C1151 1.433 . S
C1153 N1156 1.384 . S
C1154 H1145 0.929 . S
C1154 C1146 1.378 . S
C1154 C1149 1.350 . S
C1155 H1142 0.929 . S
C1155 C1147 1.433 . S
C1155 N1157 1.384 . S
N1156 C1152 1.427 . S
N1156 C1153 1.384 . S
N1157 C1149 1.427 . S
N1157 C1155 1.384 . S
H1158 C1164 0.930 . S
H1159 C1168 0.930 . S
H1160 C1173 0.929 . S
H1161 C1171 0.929 . S
H1162 C1166 0.929 . S
H1163 C1172 0.929 . S
C1164 H1158 0.930 . S
C1164 C1165 1.367 . S
C1164 C1172 1.378 . S
C1165 C1164 1.367 . S
C1165 C1173 1.433 . S
C1166 H1162 0.929 . S
C1166 C1168 1.378 . S
C1166 C1170 1.350 . S
C1167 C1170 1.463 . S
C1167 C1172 1.350 . S
C1167 N1175 1.427 . S
C1168 H1159 0.930 . S
C1168 C1166 1.378 . S
C1168 C1169 1.367 . S
C1169 C1168 1.367 . S
C1169 C1171 1.433 . S
C1170 C1166 1.350 . S
C1170 C1167 1.463 . S
C1170 N1174 1.427 . S
C1171 H1161 0.929 . S
C1171 C1169 1.433 . S
C1171 N1174 1.384 . S
C1172 H1163 0.929 . S
C1172 C1164 1.378 . S
C1172 C1167 1.350 . S
C1173 H1160 0.929 . S
C1173 C1165 1.433 . S
C1173 N1175 1.384 . S
N1174 C1170 1.427 . S
N1174 C1171 1.384 . S
N1175 C1167 1.427 . S
N1175 C1173 1.384 . S
C319 C205 1.412 . S
C323 C10 1.410 . S
C337 C166 1.411 . S
C341 C17 1.410 . S
C355 C179 1.411 . S
C359 C36 1.410 . S
C373 C192 1.410 . S
C377 C43 1.411 . S
C391 C186 1.410 . S
C395 C23 1.411 . S
C409 C30 1.410 . S
C413 C199 1.412 . S
C427 C160 1.410 . S
C431 C49 1.412 . S
C445 C173 1.410 . S
C449 C4 1.411 . S
C463 C244 1.410 . S
C467 C56 1.412 . S
C481 C69 1.410 . S
C485 C251 1.412 . S
C499 C88 1.411 . S
C503 C212 1.411 . S
C517 C231 1.411 . S
C521 C101 1.410 . S
C535 C290 1.412 . S
C539 C114 1.410 . S
C553 C127 1.410 . S
C557 C309 1.411 . S
C571 C140 1.411 . S
C575 C264 1.411 . S
C589 C147 1.410 . S
C593 C283 1.411 . S
C607 C225 1.410 . S
C611 C153 1.411 . S
C625 C303 1.411 . S
C629 C75 1.410 . S
C643 C82 1.411 . S
C647 C270 1.410 . S
C661 C277 1.411 . S
C665 C95 1.410 . S
C679 C296 1.412 . S
C683 C62 1.410 . S
C697 C121 1.412 . S
C701 C257 1.410 . S
C715 C218 1.410 . S
C719 C134 1.412 . S
C733 C238 1.410 . S
C737 C108 1.412 . S
C751 C3 1.103 . S
C755 C55 1.099 . S
C769 C68 1.106 . S
C773 C18 1.098 . S
C787 C29 1.109 . S
C791 C83 1.100 . S
C805 C44 1.098 . S
C809 C96 1.107 . S
C823 C109 1.106 . S
C827 C16 1.108 . S
C841 C122 1.109 . S
C845 C31 1.099 . S
C859 C135 1.109 . S
C863 C42 1.099 . S
C877 C5 1.106 . S
C881 C146 1.098 . S
C895 C148 1.099 . S
C899 C57 1.103 . S
C913 C70 1.109 . S
C917 C107 1.099 . S
C931 C81 1.107 . S
C935 C120 1.107 . S
C949 C133 1.105 . S
C953 C94 1.108 . S
C967 C211 1.099 . S
C971 C161 1.109 . S
C985 C226 1.108 . S
C989 C174 1.106 . S
C1003 C187 1.104 . S
C1007 C239 1.109 . S
C1021 C200 1.099 . S
C1025 C250 1.104 . S
C1039 C172 1.102 . S
C1043 C263 1.099 . S
C1057 C185 1.100 . S
C1061 C278 1.110 . S
C1075 C289 1.108 . S
C1079 C198 1.098 . S
C1093 C159 1.110 . S
C1097 C304 1.102 . S
C1111 C213 1.107 . S
C1115 C302 1.107 . S
C1129 C265 1.107 . S
C1133 C224 1.098 . S
C1147 C237 1.098 . S
C1151 C276 1.107 . S
C1165 C291 1.107 . S
C1169 C252 1.098 . S
