# Generated by pormake.
# Topology ukv, (4)-cn, num edge types: 1
# Building blocks:
#     Node 0, Type 0, BuildingBlock: NAHDIM_clean_sbu_0, # of connection points: 4
#     Node 1, Type 0, BuildingBlock: NAHDIM_clean_sbu_0, # of connection points: 4
#     Node 2, Type 0, BuildingBlock: NAHDIM_clean_sbu_0, # of connection points: 4
#     Node 3, Type 0, BuildingBlock: NAHDIM_clean_sbu_0, # of connection points: 4
#     Node 4, Type 0, BuildingBlock: NAHDIM_clean_sbu_0, # of connection points: 4
#     Node 5, Type 0, BuildingBlock: NAHDIM_clean_sbu_0, # of connection points: 4
#     Node 6, Type 0, BuildingBlock: NAHDIM_clean_sbu_0, # of connection points: 4
#     Node 7, Type 0, BuildingBlock: NAHDIM_clean_sbu_0, # of connection points: 4
#     Node 8, Type 0, BuildingBlock: NAHDIM_clean_sbu_0, # of connection points: 4
#     Node 9, Type 0, BuildingBlock: NAHDIM_clean_sbu_0, # of connection points: 4
#     Node 10, Type 0, BuildingBlock: NAHDIM_clean_sbu_0, # of connection points: 4
#     Node 11, Type 0, BuildingBlock: NAHDIM_clean_sbu_0, # of connection points: 4
#     Node 12, Type 0, BuildingBlock: NAHDIM_clean_sbu_0, # of connection points: 4
#     Node 13, Type 0, BuildingBlock: NAHDIM_clean_sbu_0, # of connection points: 4
#     Node 14, Type 0, BuildingBlock: NAHDIM_clean_sbu_0, # of connection points: 4
#     Node 15, Type 0, BuildingBlock: NAHDIM_clean_sbu_0, # of connection points: 4
#     Node 16, Type 0, BuildingBlock: NAHDIM_clean_sbu_0, # of connection points: 4
#     Node 17, Type 0, BuildingBlock: NAHDIM_clean_sbu_0, # of connection points: 4
#     Node 18, Type 0, BuildingBlock: NAHDIM_clean_sbu_0, # of connection points: 4
#     Node 19, Type 0, BuildingBlock: NAHDIM_clean_sbu_0, # of connection points: 4
#     Node 20, Type 0, BuildingBlock: NAHDIM_clean_sbu_0, # of connection points: 4
#     Node 21, Type 0, BuildingBlock: NAHDIM_clean_sbu_0, # of connection points: 4
#     Node 22, Type 0, BuildingBlock: NAHDIM_clean_sbu_0, # of connection points: 4
#     Node 23, Type 0, BuildingBlock: NAHDIM_clean_sbu_0, # of connection points: 4
#     Node 24, Type 0, BuildingBlock: NAHDIM_clean_sbu_0, # of connection points: 4
#     Node 25, Type 0, BuildingBlock: NAHDIM_clean_sbu_0, # of connection points: 4
#     Node 26, Type 0, BuildingBlock: NAHDIM_clean_sbu_0, # of connection points: 4
#     Node 27, Type 0, BuildingBlock: NAHDIM_clean_sbu_0, # of connection points: 4
#     Node 28, Type 0, BuildingBlock: NAHDIM_clean_sbu_0, # of connection points: 4
#     Node 29, Type 0, BuildingBlock: NAHDIM_clean_sbu_0, # of connection points: 4
#     Node 30, Type 0, BuildingBlock: NAHDIM_clean_sbu_0, # of connection points: 4
#     Node 31, Type 0, BuildingBlock: NAHDIM_clean_sbu_0, # of connection points: 4
#     Node 32, Type 0, BuildingBlock: NAHDIM_clean_sbu_0, # of connection points: 4
#     Node 33, Type 0, BuildingBlock: NAHDIM_clean_sbu_0, # of connection points: 4
#     Node 34, Type 0, BuildingBlock: NAHDIM_clean_sbu_0, # of connection points: 4
#     Node 35, Type 0, BuildingBlock: NAHDIM_clean_sbu_0, # of connection points: 4
#     Edge 36, Type (0, 0), BuildingBlock: OJICUG_clean_linker_0, # of connection points: 2
#     Edge 37, Type (0, 0), BuildingBlock: OJICUG_clean_linker_0, # of connection points: 2
#     Edge 38, Type (0, 0), BuildingBlock: OJICUG_clean_linker_0, # of connection points: 2
#     Edge 39, Type (0, 0), BuildingBlock: OJICUG_clean_linker_0, # of connection points: 2
#     Edge 40, Type (0, 0), BuildingBlock: OJICUG_clean_linker_0, # of connection points: 2
#     Edge 41, Type (0, 0), BuildingBlock: OJICUG_clean_linker_0, # of connection points: 2
#     Edge 42, Type (0, 0), BuildingBlock: OJICUG_clean_linker_0, # of connection points: 2
#     Edge 43, Type (0, 0), BuildingBlock: OJICUG_clean_linker_0, # of connection points: 2
#     Edge 44, Type (0, 0), BuildingBlock: OJICUG_clean_linker_0, # of connection points: 2
#     Edge 45, Type (0, 0), BuildingBlock: OJICUG_clean_linker_0, # of connection points: 2
#     Edge 46, Type (0, 0), BuildingBlock: OJICUG_clean_linker_0, # of connection points: 2
#     Edge 47, Type (0, 0), BuildingBlock: OJICUG_clean_linker_0, # of connection points: 2
#     Edge 48, Type (0, 0), BuildingBlock: OJICUG_clean_linker_0, # of connection points: 2
#     Edge 49, Type (0, 0), BuildingBlock: OJICUG_clean_linker_0, # of connection points: 2
#     Edge 50, Type (0, 0), BuildingBlock: OJICUG_clean_linker_0, # of connection points: 2
#     Edge 51, Type (0, 0), BuildingBlock: OJICUG_clean_linker_0, # of connection points: 2
#     Edge 52, Type (0, 0), BuildingBlock: OJICUG_clean_linker_0, # of connection points: 2
#     Edge 53, Type (0, 0), BuildingBlock: OJICUG_clean_linker_0, # of connection points: 2
#     Edge 54, Type (0, 0), BuildingBlock: OJICUG_clean_linker_0, # of connection points: 2
#     Edge 55, Type (0, 0), BuildingBlock: OJICUG_clean_linker_0, # of connection points: 2
#     Edge 56, Type (0, 0), BuildingBlock: OJICUG_clean_linker_0, # of connection points: 2
#     Edge 57, Type (0, 0), BuildingBlock: OJICUG_clean_linker_0, # of connection points: 2
#     Edge 58, Type (0, 0), BuildingBlock: OJICUG_clean_linker_0, # of connection points: 2
#     Edge 59, Type (0, 0), BuildingBlock: OJICUG_clean_linker_0, # of connection points: 2
#     Edge 60, Type (0, 0), BuildingBlock: OJICUG_clean_linker_0, # of connection points: 2
#     Edge 61, Type (0, 0), BuildingBlock: OJICUG_clean_linker_0, # of connection points: 2
#     Edge 62, Type (0, 0), BuildingBlock: OJICUG_clean_linker_0, # of connection points: 2
#     Edge 63, Type (0, 0), BuildingBlock: OJICUG_clean_linker_0, # of connection points: 2
#     Edge 64, Type (0, 0), BuildingBlock: OJICUG_clean_linker_0, # of connection points: 2
#     Edge 65, Type (0, 0), BuildingBlock: OJICUG_clean_linker_0, # of connection points: 2
#     Edge 66, Type (0, 0), BuildingBlock: OJICUG_clean_linker_0, # of connection points: 2
#     Edge 67, Type (0, 0), BuildingBlock: OJICUG_clean_linker_0, # of connection points: 2
#     Edge 68, Type (0, 0), BuildingBlock: OJICUG_clean_linker_0, # of connection points: 2
#     Edge 69, Type (0, 0), BuildingBlock: OJICUG_clean_linker_0, # of connection points: 2
#     Edge 70, Type (0, 0), BuildingBlock: OJICUG_clean_linker_0, # of connection points: 2
#     Edge 71, Type (0, 0), BuildingBlock: OJICUG_clean_linker_0, # of connection points: 2
#     Edge 72, Type (0, 0), BuildingBlock: OJICUG_clean_linker_0, # of connection points: 2
#     Edge 73, Type (0, 0), BuildingBlock: OJICUG_clean_linker_0, # of connection points: 2
#     Edge 74, Type (0, 0), BuildingBlock: OJICUG_clean_linker_0, # of connection points: 2
#     Edge 75, Type (0, 0), BuildingBlock: OJICUG_clean_linker_0, # of connection points: 2
#     Edge 76, Type (0, 0), BuildingBlock: OJICUG_clean_linker_0, # of connection points: 2
#     Edge 77, Type (0, 0), BuildingBlock: OJICUG_clean_linker_0, # of connection points: 2
#     Edge 78, Type (0, 0), BuildingBlock: OJICUG_clean_linker_0, # of connection points: 2
#     Edge 79, Type (0, 0), BuildingBlock: OJICUG_clean_linker_0, # of connection points: 2
#     Edge 80, Type (0, 0), BuildingBlock: OJICUG_clean_linker_0, # of connection points: 2
#     Edge 81, Type (0, 0), BuildingBlock: OJICUG_clean_linker_0, # of connection points: 2
#     Edge 82, Type (0, 0), BuildingBlock: OJICUG_clean_linker_0, # of connection points: 2
#     Edge 83, Type (0, 0), BuildingBlock: OJICUG_clean_linker_0, # of connection points: 2
#     Edge 84, Type (0, 0), BuildingBlock: OJICUG_clean_linker_0, # of connection points: 2
#     Edge 85, Type (0, 0), BuildingBlock: OJICUG_clean_linker_0, # of connection points: 2
#     Edge 86, Type (0, 0), BuildingBlock: OJICUG_clean_linker_0, # of connection points: 2
#     Edge 87, Type (0, 0), BuildingBlock: OJICUG_clean_linker_0, # of connection points: 2
#     Edge 88, Type (0, 0), BuildingBlock: OJICUG_clean_linker_0, # of connection points: 2
#     Edge 89, Type (0, 0), BuildingBlock: OJICUG_clean_linker_0, # of connection points: 2
#     Edge 90, Type (0, 0), BuildingBlock: OJICUG_clean_linker_0, # of connection points: 2
#     Edge 91, Type (0, 0), BuildingBlock: OJICUG_clean_linker_0, # of connection points: 2
#     Edge 92, Type (0, 0), BuildingBlock: OJICUG_clean_linker_0, # of connection points: 2
#     Edge 93, Type (0, 0), BuildingBlock: OJICUG_clean_linker_0, # of connection points: 2
#     Edge 94, Type (0, 0), BuildingBlock: OJICUG_clean_linker_0, # of connection points: 2
#     Edge 95, Type (0, 0), BuildingBlock: OJICUG_clean_linker_0, # of connection points: 2
#     Edge 96, Type (0, 0), BuildingBlock: OJICUG_clean_linker_0, # of connection points: 2
#     Edge 97, Type (0, 0), BuildingBlock: OJICUG_clean_linker_0, # of connection points: 2
#     Edge 98, Type (0, 0), BuildingBlock: OJICUG_clean_linker_0, # of connection points: 2
#     Edge 99, Type (0, 0), BuildingBlock: OJICUG_clean_linker_0, # of connection points: 2
#     Edge 100, Type (0, 0), BuildingBlock: OJICUG_clean_linker_0, # of connection points: 2
#     Edge 101, Type (0, 0), BuildingBlock: OJICUG_clean_linker_0, # of connection points: 2
#     Edge 102, Type (0, 0), BuildingBlock: OJICUG_clean_linker_0, # of connection points: 2
#     Edge 103, Type (0, 0), BuildingBlock: OJICUG_clean_linker_0, # of connection points: 2
#     Edge 104, Type (0, 0), BuildingBlock: OJICUG_clean_linker_0, # of connection points: 2
#     Edge 105, Type (0, 0), BuildingBlock: OJICUG_clean_linker_0, # of connection points: 2
#     Edge 106, Type (0, 0), BuildingBlock: OJICUG_clean_linker_0, # of connection points: 2
#     Edge 107, Type (0, 0), BuildingBlock: OJICUG_clean_linker_0, # of connection points: 2
# Relax obj value: 0.247
# Max RMSD: 0.180
# Mean RMSD: 0.179
data_MOF--net-ukv--node1-NAHDIM_clean_sbu_0--edge1-OJICUG_clean_linker_0
_symmetry_space_group_name_H-M    P1
_symmetry_Int_Tables_number       1
_symmetry_cell_setting            triclinic
loop_
_symmetry_equiv_pos_as_xyz
'x, y, z'
_cell_length_a     70.767638
_cell_length_b     70.80243
_cell_length_c     14.841145
_cell_angle_alpha  89.900231
_cell_angle_beta   90.073127
_cell_angle_gamma 119.95048
loop_
_atom_site_label
_atom_site_type_symbol
_atom_site_fract_x
_atom_site_fract_y
_atom_site_fract_z
_atom_type_partial_charge
C0 C 0.2276 0.03175 0.03494 0.0
O1 O 0.23929 0.03278 0.96443 0.0
O2 O 0.26772 0.08971 0.95417 0.0
Zn3 Zn 0.23567 0.07555 0.98229 0.0
O4 O 0.2307 0.0957 0.06003 0.0
C5 C 0.23027 0.07545 0.79173 0.0
O6 O 0.24637 0.07125 0.79119 0.0
O7 O 0.22398 0.04729 0.05049 0.0
C8 C 0.23399 0.11396 0.0305 0.0
O9 O 0.24173 0.12017 0.94869 0.0
C10 C 0.28246 0.08721 0.99174 0.0
O11 O 0.27747 0.07397 0.06096 0.0
O12 O 0.2207 0.07419 0.86578 0.0
C13 C 0.96798 0.19819 0.05563 0.0
O14 O 0.96704 0.20766 0.98091 0.0
O15 O 0.91168 0.18048 0.96336 0.0
Zn16 Zn 0.92483 0.16241 0.00392 0.0
O17 O 0.90336 0.13786 0.08082 0.0
C18 C 0.92902 0.15609 0.81685 0.0
O19 O 0.93451 0.17672 0.81082 0.0
O20 O 0.95238 0.17937 0.07544 0.0
C21 C 0.88463 0.12406 0.05082 0.0
O22 O 0.87879 0.12667 0.96977 0.0
C23 C 0.91288 0.19707 0.00156 0.0
O24 O 0.92367 0.20411 0.07762 0.0
O25 O 0.92786 0.1479 0.89423 0.0
C26 C 0.80606 0.76598 0.15919 0.0
O27 O 0.81364 0.75537 0.20566 0.0
O28 O 0.8038 0.71981 0.01086 0.0
Zn29 Zn 0.8238 0.75247 0.02065 0.0
O30 O 0.85018 0.76018 0.09781 0.0
C31 C 0.82785 0.75244 0.82695 0.0
O32 O 0.80828 0.73517 0.83052 0.0
O33 O 0.80807 0.76691 0.07388 0.0
C34 C 0.86692 0.76026 0.06607 0.0
O35 O 0.86659 0.75389 0.98274 0.0
C36 C 0.80937 0.70621 0.0374 0.0
O37 O 0.82802 0.71337 0.07965 0.0
O38 O 0.83606 0.76361 0.89788 0.0
C39 C 0.04208 0.24025 0.29565 0.0
O40 O 0.06058 0.25645 0.26572 0.0
O41 O 0.08405 0.27837 0.45048 0.0
Zn42 Zn 0.07042 0.24563 0.43794 0.0
O43 O 0.08979 0.23831 0.36506 0.0
C44 C 0.07487 0.24538 0.62931 0.0
O45 O 0.07561 0.26424 0.62275 0.0
O46 O 0.04159 0.23262 0.37382 0.0
C47 C 0.10644 0.2386 0.3992 0.0
O48 O 0.11164 0.24457 0.48353 0.0
C49 C 0.10263 0.29186 0.4183 0.0
O50 O 0.11281 0.28468 0.36713 0.0
O51 O 0.06934 0.23304 0.56068 0.0
C52 C 0.76963 0.81235 0.344 0.0
O53 O 0.75903 0.82012 0.29868 0.0
O54 O 0.72817 0.81651 0.49984 0.0
Zn55 Zn 0.76069 0.83395 0.48298 0.0
O56 O 0.76729 0.85935 0.40275 0.0
C57 C 0.76596 0.8401 0.67718 0.0
O58 O 0.75041 0.81966 0.68319 0.0
O59 O 0.77255 0.81603 0.42817 0.0
C60 C 0.76257 0.87338 0.43177 0.0
O61 O 0.75294 0.87026 0.51044 0.0
C62 C 0.71774 0.79688 0.52706 0.0
O63 O 0.72831 0.7863 0.54176 0.0
O64 O 0.77423 0.84789 0.60072 0.0
C65 C 0.19779 0.96068 0.29081 0.0
O66 O 0.19718 0.94249 0.26764 0.0
O67 O 0.20063 0.92885 0.49988 0.0
Zn68 Zn 0.17804 0.93505 0.44672 0.0
O69 O 0.15673 0.90937 0.37355 0.0
C70 C 0.16707 0.93727 0.63048 0.0
O71 O 0.18806 0.9453 0.6437 0.0
O72 O 0.19079 0.96194 0.36826 0.0
C73 C 0.13951 0.90898 0.34605 0.0
O74 O 0.1369 0.92578 0.36215 0.0
C75 C 0.20678 0.91663 0.46324 0.0
O76 O 0.19977 0.90898 0.382 0.0
O77 O 0.16005 0.93534 0.55025 0.0
C78 C 0.76235 0.97426 0.91106 0.0
O79 O 0.74482 0.96958 0.95804 0.0
O80 O 0.72662 0.92318 0.02171 0.0
Zn81 Zn 0.75841 0.93461 0.99085 0.0
O82 O 0.76128 0.91305 0.91242 0.0
C83 C 0.76746 0.93721 0.18124 0.0
O84 O 0.75236 0.94278 0.18731 0.0
O85 O 0.77107 0.96242 0.91927 0.0
C86 C 0.76411 0.89781 0.94265 0.0
O87 O 0.76431 0.89484 0.02989 0.0
C88 C 0.71671 0.9056 0.06698 0.0
O89 O 0.72724 0.89542 0.08949 0.0
O90 O 0.77474 0.93648 0.10395 0.0
C91 C 0.027 0.80111 0.89773 0.0
O92 O 0.02487 0.79742 0.98494 0.0
O93 O 0.08901 0.81178 0.94311 0.0
Zn94 Zn 0.07455 0.83005 0.92916 0.0
O95 O 0.09359 0.85591 0.85155 0.0
C96 C 0.08086 0.83784 0.11981 0.0
O97 O 0.08242 0.82014 0.11824 0.0
O98 O 0.04573 0.81379 0.86501 0.0
C99 C 0.1105 0.87238 0.88307 0.0
O100 O 0.11626 0.87206 0.96699 0.0
C101 C 0.07916 0.79167 0.96427 0.0
O102 O 0.05782 0.78115 0.97205 0.0
O103 O 0.07417 0.84309 0.04969 0.0
C104 C 0.20161 0.2522 0.81613 0.0
O105 O 0.20592 0.27244 0.80714 0.0
O106 O 0.19562 0.283 0.00635 0.0
Zn107 Zn 0.17485 0.25289 0.95883 0.0
O108 O 0.15188 0.25473 0.88686 0.0
C109 C 0.16586 0.23749 0.14308 0.0
O110 O 0.1867 0.25121 0.15632 0.0
O111 O 0.18916 0.24062 0.8797 0.0
C112 C 0.13457 0.23728 0.86553 0.0
O113 O 0.13262 0.21838 0.88709 0.0
C114 C 0.18697 0.29107 0.05713 0.0
O115 O 0.16591 0.27966 0.07293 0.0
O116 O 0.15859 0.23361 0.06297 0.0
C117 C 0.95247 0.76085 0.65842 0.0
O118 O 0.93327 0.74627 0.68968 0.0
O119 O 0.91733 0.72363 0.45807 0.0
Zn120 Zn 0.92622 0.75403 0.50417 0.0
O121 O 0.9031 0.75338 0.58501 0.0
C122 C 0.9321 0.7702 0.32 0.0
O123 O 0.94186 0.7588 0.30633 0.0
O124 O 0.95408 0.76681 0.57646 0.0
C125 C 0.88552 0.75208 0.55648 0.0
O126 O 0.88101 0.74969 0.47004 0.0
C127 C 0.90349 0.71562 0.3943 0.0
O128 O 0.89466 0.72678 0.36287 0.0
O129 O 0.9276 0.77279 0.4002 0.0
C130 C 0.23437 0.21453 0.55737 0.0
O131 O 0.25329 0.22672 0.51796 0.0
O132 O 0.2687 0.19715 0.4476 0.0
Zn133 Zn 0.23702 0.17798 0.48001 0.0
O134 O 0.23334 0.15358 0.56044 0.0
C135 C 0.22984 0.17149 0.29022 0.0
O136 O 0.24554 0.19192 0.28639 0.0
O137 O 0.22446 0.19401 0.54604 0.0
C138 C 0.23665 0.13855 0.53206 0.0
O139 O 0.24391 0.13962 0.44969 0.0
C140 C 0.28466 0.20139 0.49916 0.0
O141 O 0.28084 0.19398 0.58226 0.0
O142 O 0.22145 0.16336 0.36621 0.0
C143 C 0.79575 0.04287 0.64367 0.0
O144 O 0.79587 0.06113 0.66081 0.0
O145 O 0.80688 0.08513 0.47584 0.0
Zn146 Zn 0.82346 0.06927 0.50307 0.0
O147 O 0.84967 0.08822 0.57933 0.0
C148 C 0.82615 0.06397 0.31172 0.0
O149 O 0.80594 0.06005 0.31083 0.0
O150 O 0.80566 0.04177 0.57417 0.0
C151 C 0.86835 0.1019 0.54829 0.0
O152 O 0.87126 0.10494 0.46098 0.0
C153 C 0.81604 0.10169 0.42424 0.0
O154 O 0.83575 0.10801 0.39418 0.0
O155 O 0.83509 0.0648 0.387 0.0
C156 C 0.91534 0.3633 0.45073 0.0
O157 O 0.93601 0.37235 0.42843 0.0
O158 O 0.94703 0.4044 0.29047 0.0
Zn159 Zn 0.91684 0.39639 0.33291 0.0
O160 O 0.9188 0.42152 0.40227 0.0
C161 C 0.90306 0.39198 0.14645 0.0
O162 O 0.91795 0.3864 0.13228 0.0
O163 O 0.90361 0.37023 0.41499 0.0
C164 C 0.90106 0.42101 0.42169 0.0
O165 O 0.88244 0.40382 0.39936 0.0
C166 C 0.95763 0.42208 0.24655 0.0
O167 O 0.94848 0.434 0.23123 0.0
O168 O 0.89822 0.39391 0.22691 0.0
C169 C 0.62735 0.53701 0.46467 0.0
O170 O 0.62022 0.54909 0.42704 0.0
O171 O 0.57381 0.5201 0.38001 0.0
Zn172 Zn 0.58684 0.50055 0.39658 0.0
O173 O 0.56765 0.47514 0.47746 0.0
C174 C 0.58456 0.49622 0.20304 0.0
O175 O 0.58825 0.51633 0.20455 0.0
O176 O 0.61639 0.51642 0.45586 0.0
C177 C 0.55332 0.45661 0.44736 0.0
O178 O 0.55002 0.45371 0.36018 0.0
C179 C 0.55403 0.51132 0.35478 0.0
O180 O 0.54263 0.49004 0.3466 0.0
O181 O 0.58651 0.48776 0.27556 0.0
C182 C 0.45669 0.0963 0.47074 0.0
O183 O 0.44319 0.08036 0.41788 0.0
O184 O 0.46316 0.05553 0.36016 0.0
Zn185 Zn 0.48773 0.08392 0.40804 0.0
O186 O 0.50815 0.08044 0.49183 0.0
C187 C 0.512 0.08387 0.27123 0.0
O188 O 0.50413 0.06512 0.31361 0.0
O189 O 0.47667 0.10153 0.47257 0.0
C190 C 0.52404 0.0985 0.51842 0.0
O191 O 0.52421 0.11667 0.49839 0.0
C192 C 0.45289 0.0368 0.39636 0.0
O193 O 0.45674 0.03436 0.48097 0.0
O194 O 0.50685 0.0977 0.29942 0.0
C195 C 0.70288 0.57615 0.69851 0.0
O196 O 0.71884 0.59602 0.68205 0.0
O197 O 0.74489 0.6088 0.87136 0.0
Zn198 Zn 0.73449 0.57851 0.82222 0.0
O199 O 0.75638 0.58197 0.72911 0.0
C200 C 0.73752 0.56563 0.00228 0.0
O201 O 0.73144 0.57981 0.02342 0.0
O202 O 0.70523 0.56517 0.76098 0.0
C203 C 0.76316 0.56855 0.71791 0.0
O204 O 0.75501 0.55075 0.76706 0.0
C205 C 0.764 0.61775 0.90486 0.0
O206 O 0.77466 0.60696 0.90372 0.0
O207 O 0.73667 0.56008 0.92044 0.0
C208 C 0.4222 0.13267 0.72737 0.0
O209 O 0.40493 0.13408 0.70564 0.0
O210 O 0.38615 0.13499 0.89515 0.0
Zn211 Zn 0.41822 0.15543 0.87137 0.0
O212 O 0.42283 0.18074 0.79476 0.0
C213 C 0.42233 0.16047 0.06326 0.0
O214 O 0.40589 0.14037 0.06335 0.0
O215 O 0.43144 0.14036 0.80273 0.0
C216 C 0.42098 0.19654 0.82485 0.0
O217 O 0.4145 0.19598 0.90823 0.0
C218 C 0.37093 0.13688 0.85871 0.0
O219 O 0.3758 0.15203 0.79738 0.0
O220 O 0.43224 0.16871 0.98967 0.0
C221 C 0.87956 0.29614 0.72365 0.0
O222 O 0.88517 0.28104 0.72338 0.0
O223 O 0.86727 0.25375 0.88268 0.0
Zn224 Zn 0.84801 0.26606 0.8464 0.0
O225 O 0.82341 0.24509 0.76775 0.0
C226 C 0.84126 0.26811 0.03545 0.0
O227 O 0.86152 0.2723 0.0412 0.0
O228 O 0.86441 0.29402 0.77606 0.0
C229 C 0.80823 0.2269 0.7968 0.0
O230 O 0.80916 0.2208 0.87956 0.0
C231 C 0.86703 0.23762 0.84417 0.0
O232 O 0.85456 0.2289 0.7732 0.0
O233 O 0.83346 0.26815 0.95836 0.0
C234 C 0.42483 0.29864 0.29589 0.0
O235 O 0.40711 0.29404 0.34125 0.0
O236 O 0.38816 0.24731 0.40733 0.0
Zn237 Zn 0.41951 0.2582 0.37342 0.0
O238 O 0.42168 0.2365 0.29431 0.0
C239 C 0.42702 0.25888 0.56311 0.0
O240 O 0.41191 0.26447 0.56738 0.0
O241 O 0.43313 0.28643 0.30417 0.0
C242 C 0.41792 0.21803 0.32324 0.0
O243 O 0.41096 0.21216 0.40618 0.0
C244 C 0.37217 0.24184 0.35433 0.0
O245 O 0.37553 0.24365 0.2669 0.0
O246 O 0.43507 0.2587 0.48684 0.0
C247 C 0.70517 0.13161 0.26215 0.0
O248 O 0.71263 0.11956 0.29736 0.0
O249 O 0.7568 0.14723 0.35726 0.0
Zn250 Zn 0.74424 0.16715 0.34079 0.0
O251 O 0.76433 0.19297 0.26521 0.0
C252 C 0.7462 0.17095 0.53348 0.0
O253 O 0.74282 0.15096 0.53023 0.0
O254 O 0.7153 0.15202 0.27666 0.0
C255 C 0.7823 0.20813 0.29609 0.0
O256 O 0.78829 0.20652 0.37827 0.0
C257 C 0.77318 0.14931 0.31373 0.0
O258 O 0.78186 0.16426 0.25056 0.0
O259 O 0.74415 0.17962 0.46181 0.0
C260 C 0.86087 0.56444 0.15662 0.0
O261 O 0.85582 0.57673 0.10742 0.0
O262 O 0.87042 0.61434 0.30608 0.0
Zn263 Zn 0.84692 0.58277 0.29222 0.0
O264 O 0.82271 0.58062 0.2142 0.0
C265 C 0.82574 0.58627 0.43601 0.0
O266 O 0.83046 0.60307 0.38386 0.0
O267 O 0.8586 0.56422 0.24171 0.0
C268 C 0.80614 0.56238 0.1947 0.0
O269 O 0.80566 0.54423 0.2177 0.0
C270 C 0.87079 0.62887 0.25452 0.0
O271 O 0.85779 0.62278 0.18415 0.0
O272 O 0.8323 0.5732 0.41295 0.0
C273 C 0.6332 0.09337 0.01056 0.0
O274 O 0.61755 0.07313 0.02254 0.0
O275 O 0.59457 0.06008 0.83545 0.0
Zn276 Zn 0.60225 0.08974 0.88437 0.0
O277 O 0.57973 0.08531 0.97574 0.0
C278 C 0.59657 0.10071 0.70372 0.0
O279 O 0.60374 0.08746 0.68111 0.0
O280 O 0.63114 0.10461 0.94838 0.0
C281 C 0.57623 0.10066 0.99748 0.0
O282 O 0.58802 0.12 0.9608 0.0
C283 C 0.57569 0.04972 0.80019 0.0
O284 O 0.56303 0.05836 0.80268 0.0
O285 O 0.59837 0.10694 0.78507 0.0
C286 C 0.89272 0.51239 0.98525 0.0
O287 O 0.90179 0.50352 0.03392 0.0
O288 O 0.93664 0.50883 0.84746 0.0
Zn289 Zn 0.9038 0.49179 0.84871 0.0
O290 O 0.89532 0.4653 0.92497 0.0
C291 C 0.90596 0.48742 0.65671 0.0
O292 O 0.92445 0.50583 0.66477 0.0
O293 O 0.89143 0.5096 0.90034 0.0
C294 C 0.89942 0.45098 0.89398 0.0
O295 O 0.90861 0.45406 0.81436 0.0
C296 C 0.94813 0.5291 0.83085 0.0
O297 O 0.93842 0.54056 0.81741 0.0
O298 O 0.89315 0.48019 0.72388 0.0
C299 C 0.45963 0.36819 0.03227 0.0
O300 O 0.45719 0.38521 0.04462 0.0
O301 O 0.46468 0.40484 0.84741 0.0
Zn302 Zn 0.48601 0.39602 0.89398 0.0
O303 O 0.50861 0.4189 0.97421 0.0
C304 C 0.49633 0.39465 0.70846 0.0
O305 O 0.47553 0.38787 0.69592 0.0
O306 O 0.47112 0.36823 0.96628 0.0
C307 C 0.52247 0.43771 0.94517 0.0
O308 O 0.52094 0.44325 0.86209 0.0
C309 C 0.46209 0.41978 0.88198 0.0
O310 O 0.4728 0.4295 0.95573 0.0
O311 O 0.5033 0.39564 0.78818 0.0
C312 C 0.58585 0.7033 0.84576 0.0
O313 O 0.60677 0.7177 0.84807 0.0
O314 O 0.61801 0.74425 0.68291 0.0
Zn315 Zn 0.58638 0.73321 0.71559 0.0
O316 O 0.58388 0.7551 0.79283 0.0
C317 C 0.57651 0.72978 0.5257 0.0
O318 O 0.59143 0.72399 0.51914 0.0
O319 O 0.57368 0.70571 0.78927 0.0
C320 C 0.58114 0.77037 0.76225 0.0
O321 O 0.58101 0.77331 0.67496 0.0
C322 C 0.62789 0.76155 0.63595 0.0
O323 O 0.6174 0.77171 0.6123 0.0
O324 O 0.56966 0.73098 0.60331 0.0
C325 C 0.2973 0.87073 0.75099 0.0
O326 O 0.29323 0.88401 0.70391 0.0
O327 O 0.25074 0.86365 0.63585 0.0
Zn328 Zn 0.2549 0.83933 0.68485 0.0
O329 O 0.2314 0.82026 0.77191 0.0
C330 C 0.22911 0.81383 0.55381 0.0
O331 O 0.21877 0.82218 0.59691 0.0
O332 O 0.28386 0.85038 0.74797 0.0
C333 C 0.23221 0.80352 0.79737 0.0
O334 O 0.24911 0.8016 0.77459 0.0
C335 C 0.24314 0.87427 0.67577 0.0
O336 O 0.23859 0.87101 0.76214 0.0
O337 O 0.24841 0.81924 0.57865 0.0
C338 C 0.14366 0.43033 0.80354 0.0
O339 O 0.15267 0.42093 0.849 0.0
O340 O 0.14061 0.38772 0.60605 0.0
Zn341 Zn 0.16078 0.41814 0.65218 0.0
O342 O 0.18313 0.41685 0.7313 0.0
C343 C 0.17087 0.43241 0.46701 0.0
O344 O 0.14997 0.41904 0.45317 0.0
O345 O 0.14486 0.43095 0.71796 0.0
C346 C 0.20079 0.4341 0.75113 0.0
O347 O 0.20367 0.4531 0.72504 0.0
C348 C 0.14978 0.37952 0.55919 0.0
O349 O 0.17097 0.39094 0.54677 0.0
O350 O 0.17796 0.4364 0.54736 0.0
C351 C 0.36818 0.90808 0.00814 0.0
O352 O 0.38406 0.92812 0.9942 0.0
O353 O 0.40161 0.94263 0.19602 0.0
Zn354 Zn 0.39881 0.91562 0.13651 0.0
O355 O 0.42109 0.923 0.03868 0.0
C356 C 0.4277 0.91559 0.25191 0.0
O357 O 0.43676 0.93458 0.21092 0.0
O358 O 0.36962 0.89763 0.07524 0.0
C359 C 0.4247 0.90777 0.01588 0.0
O360 O 0.41341 0.88856 0.05421 0.0
C361 C 0.41303 0.96175 0.16434 0.0
O362 O 0.42167 0.96431 0.08379 0.0
O363 O 0.40797 0.90163 0.23302 0.0
C364 C 0.10264 0.47216 0.99004 0.0
O365 O 0.09151 0.47926 0.94433 0.0
O366 O 0.05898 0.47501 0.12809 0.0
Zn367 Zn 0.09183 0.49258 0.127 0.0
O368 O 0.09983 0.51899 0.0507 0.0
C369 C 0.08966 0.4973 0.31881 0.0
O370 O 0.07115 0.47891 0.31112 0.0
O371 O 0.1051 0.47567 0.07441 0.0
C372 C 0.09569 0.5333 0.08149 0.0
O373 O 0.08662 0.53031 0.16132 0.0
C374 C 0.04757 0.45483 0.14652 0.0
O375 O 0.05737 0.44354 0.16229 0.0
O376 O 0.10247 0.5044 0.25159 0.0
C377 C 0.54814 0.6346 0.11133 0.0
O378 O 0.55641 0.62172 0.1203 0.0
O379 O 0.52741 0.58264 0.21493 0.0
Zn380 Zn 0.51097 0.59891 0.1966 0.0
O381 O 0.48796 0.58301 0.10343 0.0
C382 C 0.50403 0.59301 0.38305 0.0
O383 O 0.52482 0.59888 0.38219 0.0
O384 O 0.5297 0.62906 0.14632 0.0
C385 C 0.46745 0.57179 0.11552 0.0
O386 O 0.45936 0.56932 0.1971 0.0
C387 C 0.51576 0.5626 0.23568 0.0
O388 O 0.49445 0.55385 0.23718 0.0
O389 O 0.49585 0.59663 0.31344 0.0
C390 C 0.07828 0.61479 0.50171 0.0
O391 O 0.05791 0.59886 0.49947 0.0
O392 O 0.04851 0.57997 0.686 0.0
Zn393 Zn 0.07869 0.58827 0.64295 0.0
O394 O 0.07691 0.56333 0.57279 0.0
C395 C 0.09243 0.59261 0.82913 0.0
O396 O 0.07744 0.59806 0.84311 0.0
O397 O 0.09101 0.61445 0.56144 0.0
C398 C 0.09466 0.56393 0.55284 0.0
O399 O 0.11328 0.58116 0.57494 0.0
C400 C 0.03798 0.56215 0.72907 0.0
O401 O 0.0472 0.55025 0.74316 0.0
O402 O 0.09748 0.59092 0.74869 0.0
C403 C 0.37409 0.4711 0.53408 0.0
O404 O 0.39303 0.47797 0.49466 0.0
O405 O 0.4131 0.46975 0.72806 0.0
Zn406 Zn 0.40267 0.4898 0.68217 0.0
O407 O 0.42446 0.51291 0.59805 0.0
C408 C 0.42276 0.5167 0.82049 0.0
O409 O 0.43705 0.51272 0.78171 0.0
O410 O 0.37359 0.47382 0.61865 0.0
C411 C 0.44374 0.51676 0.58324 0.0
O412 O 0.45019 0.50379 0.61764 0.0
C413 C 0.41493 0.45463 0.69078 0.0
O414 O 0.40879 0.44938 0.60663 0.0
O415 O 0.40322 0.5071 0.79165 0.0
C416 C 0.5395 0.90558 0.52167 0.0
O417 O 0.53923 0.92101 0.47331 0.0
O418 O 0.54176 0.95175 0.66045 0.0
Zn419 Zn 0.51852 0.92061 0.63337 0.0
O420 O 0.49992 0.9196 0.52932 0.0
C421 C 0.4906 0.92331 0.75157 0.0
O422 O 0.49683 0.93999 0.69693 0.0
O423 O 0.5316 0.90201 0.6009 0.0
C424 C 0.48049 0.90407 0.51811 0.0
O425 O 0.4723 0.88755 0.5745 0.0
C426 C 0.54232 0.96749 0.61684 0.0
O427 O 0.52962 0.96323 0.54623 0.0
O428 O 0.49828 0.91061 0.74005 0.0
C429 C 0.29536 0.43457 0.31946 0.0
O430 O 0.27621 0.42357 0.35862 0.0
O431 O 0.25326 0.39232 0.15992 0.0
Zn432 Zn 0.26703 0.42503 0.17235 0.0
O433 O 0.24774 0.43231 0.24606 0.0
C434 C 0.26103 0.42503 0.98189 0.0
O435 O 0.25985 0.40596 0.98783 0.0
O436 O 0.29614 0.43759 0.23465 0.0
C437 C 0.23062 0.43114 0.21262 0.0
O438 O 0.2251 0.42441 0.12924 0.0
C439 C 0.23541 0.37869 0.19719 0.0
O440 O 0.22604 0.38573 0.25369 0.0
O441 O 0.26758 0.43762 0.04984 0.0
C442 C 0.57089 0.85202 0.36164 0.0
O443 O 0.57638 0.84032 0.41254 0.0
O444 O 0.61657 0.85023 0.20536 0.0
Zn445 Zn 0.58405 0.83305 0.223 0.0
O446 O 0.57714 0.80752 0.30283 0.0
C447 C 0.57856 0.82741 0.02868 0.0
O448 O 0.59394 0.84793 0.0232 0.0
O449 O 0.57263 0.85149 0.27649 0.0
C450 C 0.58136 0.79317 0.27335 0.0
O451 O 0.5907 0.796 0.19417 0.0
C452 C 0.62699 0.86992 0.17874 0.0
O453 O 0.61646 0.8806 0.1658 0.0
O454 O 0.57046 0.81937 0.10508 0.0
C455 C 0.10945 0.68532 0.2443 0.0
O456 O 0.09689 0.69346 0.22383 0.0
O457 O 0.12128 0.73448 0.12513 0.0
Zn458 Zn 0.14296 0.72539 0.16534 0.0
O459 O 0.16123 0.74613 0.26184 0.0
C460 C 0.15939 0.73436 0.98466 0.0
O461 O 0.13928 0.72918 0.96486 0.0
O462 O 0.12933 0.69545 0.22021 0.0
C463 C 0.18048 0.75013 0.27942 0.0
O464 O 0.18868 0.73988 0.2348 0.0
C465 C 0.12987 0.75444 0.10259 0.0
O466 O 0.15111 0.76699 0.10999 0.0
O467 O 0.16376 0.73076 0.06368 0.0
C468 C 0.21523 0.97824 0.14387 0.0
C469 C 0.20565 0.97898 0.22586 0.0
H470 H 0.22968 0.99427 0.01927 0.0
C471 C 0.20322 0.99711 0.24405 0.0
H472 H 0.21733 0.96448 0.12773 0.0
C473 C 0.21013 0.01407 0.18154 0.0
C474 C 0.21977 0.01338 0.09962 0.0
H475 H 0.19584 0.99815 0.30634 0.0
H476 H 0.20801 0.0278 0.19787 0.0
C477 C 0.22229 0.99529 0.08157 0.0
C478 C 0.00526 0.22907 0.09324 0.0
C479 C 0.98675 0.20934 0.11779 0.0
H480 H 0.03722 0.25434 0.13028 0.0
C481 C 0.98629 0.20027 0.20276 0.0
H482 H 0.0061 0.23652 0.02843 0.0
C483 C 0.00403 0.21056 0.26142 0.0
C484 C 0.02271 0.23008 0.23621 0.0
H485 H 0.97222 0.18514 0.22407 0.0
H486 H 0.00323 0.20301 0.32591 0.0
C487 C 0.02308 0.2393 0.15172 0.0
C488 C 0.78798 0.78989 0.34572 0.0
C489 C 0.77846 0.80002 0.29693 0.0
H490 H 0.80401 0.77109 0.34054 0.0
C491 C 0.77768 0.7985 0.20238 0.0
H492 H 0.78879 0.79071 0.4186 0.0
C493 C 0.78651 0.78733 0.15751 0.0
C494 C 0.79616 0.77733 0.20629 0.0
H495 H 0.77046 0.80613 0.16276 0.0
H496 H 0.78582 0.78662 0.0846 0.0
C497 C 0.79667 0.7786 0.3009 0.0
C498 C 0.76457 0.00786 0.84396 0.0
C499 C 0.77081 0.99189 0.84298 0.0
H500 H 0.76761 0.03658 0.78163 0.0
C501 C 0.78474 0.99244 0.77428 0.0
H502 H 0.7538 0.00782 0.89585 0.0
C503 C 0.7923 0.00862 0.70804 0.0
C504 C 0.78638 0.02482 0.7098 0.0
H505 H 0.7897 0.98024 0.7711 0.0
H506 H 0.80314 0.00866 0.65648 0.0
C507 C 0.77243 0.02428 0.77843 0.0
C508 C 0.01029 0.79564 0.74422 0.0
C509 C 0.00789 0.79058 0.83677 0.0
H510 H 0.99478 0.79026 0.61545 0.0
C511 C 0.98716 0.77542 0.86982 0.0
H512 H 0.02603 0.80725 0.71637 0.0
C513 C 0.96923 0.7656 0.81165 0.0
C514 C 0.97163 0.77079 0.71924 0.0
H515 H 0.98475 0.77113 0.94063 0.0
H516 H 0.95346 0.75406 0.83941 0.0
C517 C 0.99236 0.78589 0.68618 0.0
C518 C 0.2345 0.24695 0.62614 0.0
C519 C 0.22561 0.22425 0.62141 0.0
H520 H 0.23384 0.27361 0.69123 0.0
C521 C 0.20881 0.21086 0.68134 0.0
H522 H 0.24747 0.2577 0.581 0.0
C523 C 0.20124 0.21997 0.74528 0.0
C524 C 0.2101 0.24266 0.74999 0.0
H525 H 0.20168 0.19331 0.6799 0.0
H526 H 0.18832 0.20919 0.79055 0.0
C527 C 0.22671 0.25606 0.68939 0.0
C528 C 0.87852 0.32559 0.63387 0.0
C529 C 0.88921 0.31405 0.65706 0.0
H530 H 0.87818 0.34993 0.54913 0.0
C531 C 0.90858 0.31888 0.6121 0.0
H532 H 0.86347 0.32211 0.66687 0.0
C533 C 0.91709 0.33492 0.54521 0.0
C534 C 0.9062 0.34618 0.52084 0.0
H535 H 0.91717 0.31024 0.62845 0.0
H536 H 0.93207 0.33831 0.51186 0.0
C537 C 0.88683 0.34138 0.56588 0.0
C538 C 0.65117 0.53405 0.5823 0.0
C539 C 0.64689 0.54704 0.52332 0.0
H540 H 0.67195 0.53307 0.68496 0.0
C541 C 0.66098 0.56972 0.52355 0.0
H542 H 0.64055 0.51654 0.58431 0.0
C543 C 0.67907 0.57919 0.58097 0.0
C544 C 0.68328 0.5662 0.64026 0.0
H545 H 0.6581 0.58017 0.47909 0.0
H546 H 0.68973 0.5967 0.57903 0.0
C547 C 0.66908 0.54354 0.64055 0.0
C548 C 0.41868 0.11156 0.58747 0.0
C549 C 0.43114 0.12334 0.66244 0.0
H550 H 0.41698 0.09384 0.46816 0.0
C551 C 0.45232 0.12666 0.67261 0.0
H552 H 0.40231 0.10875 0.57758 0.0
C553 C 0.46087 0.11839 0.60897 0.0
C554 C 0.44828 0.10637 0.53459 0.0
H555 H 0.46238 0.13581 0.72928 0.0
H556 H 0.4772 0.1211 0.61896 0.0
C557 C 0.4271 0.10305 0.52458 0.0
C558 C 0.44936 0.31823 0.16547 0.0
C559 C 0.43399 0.31667 0.2295 0.0
H560 H 0.46924 0.33548 0.05204 0.0
C561 C 0.42688 0.33197 0.22704 0.0
H562 H 0.45507 0.3066 0.16506 0.0
C563 C 0.4351 0.34858 0.16245 0.0
C564 C 0.45039 0.35008 0.09823 0.0
H565 H 0.41502 0.33118 0.2752 0.0
H566 H 0.42941 0.36022 0.16277 0.0
C567 C 0.45737 0.33468 0.1002 0.0
C568 C 0.67317 0.09914 0.1931 0.0
C569 C 0.68646 0.12188 0.19921 0.0
H570 H 0.64594 0.07234 0.12868 0.0
C571 C 0.68231 0.1352 0.14164 0.0
H572 H 0.67598 0.08844 0.23631 0.0
C573 C 0.66531 0.12596 0.07889 0.0
C574 C 0.65193 0.10322 0.0733 0.0
H575 H 0.69237 0.15278 0.14417 0.0
H576 H 0.66249 0.13664 0.03564 0.0
C577 C 0.656 0.08992 0.13125 0.0
C578 C 0.86926 0.54969 0.01857 0.0
C579 C 0.86892 0.55101 0.11305 0.0
H580 H 0.87692 0.53641 0.90409 0.0
C581 C 0.87633 0.5394 0.16506 0.0
H582 H 0.86361 0.5584 0.97649 0.0
C583 C 0.88404 0.52686 0.12346 0.0
C584 C 0.88439 0.52555 0.02898 0.0
H585 H 0.87628 0.54008 0.23796 0.0
H586 H 0.8897 0.51817 0.16551 0.0
C587 C 0.87685 0.53705 0.97699 0.0
C588 C 0.58935 0.67891 0.95866 0.0
C589 C 0.5763 0.68577 0.91395 0.0
H590 H 0.59061 0.6572 0.0563 0.0
C591 C 0.55421 0.67639 0.93767 0.0
H592 H 0.60646 0.68594 0.94197 0.0
C593 C 0.54532 0.66042 0.00467 0.0
C594 C 0.55822 0.65316 0.04795 0.0
H595 H 0.54383 0.68155 0.90512 0.0
H596 H 0.52817 0.65332 0.0207 0.0
C597 C 0.58032 0.66255 0.02431 0.0
C598 C 0.33446 0.87568 0.94569 0.0
C599 C 0.34987 0.89805 0.94323 0.0
H600 H 0.30584 0.84932 0.88571 0.0
C601 C 0.34822 0.91103 0.8753 0.0
H602 H 0.3354 0.86524 0.99678 0.0
C603 C 0.33145 0.90198 0.81196 0.0
C604 C 0.31593 0.87968 0.81447 0.0
H605 H 0.35986 0.92831 0.87108 0.0
H606 H 0.3306 0.91257 0.76133 0.0
C607 C 0.31766 0.86655 0.88162 0.0
C608 C 0.13343 0.44198 0.94616 0.0
C609 C 0.13272 0.44054 0.85158 0.0
H610 H 0.12455 0.45313 0.06421 0.0
C611 C 0.1217 0.44921 0.80331 0.0
H612 H 0.1418 0.43547 0.9854 0.0
C613 C 0.11174 0.45924 0.8485 0.0
C614 C 0.11268 0.46093 0.94298 0.0
H615 H 0.1208 0.44834 0.73045 0.0
H616 H 0.1035 0.46585 0.80911 0.0
C617 C 0.12357 0.45212 0.99138 0.0
C618 C 0.07146 0.63592 0.38349 0.0
C619 C 0.08627 0.63246 0.43405 0.0
H620 H 0.06718 0.65539 0.28379 0.0
C621 C 0.10872 0.64585 0.41852 0.0
H622 H 0.05404 0.62582 0.3938 0.0
C623 C 0.11621 0.66251 0.35431 0.0
C624 C 0.10142 0.66635 0.30543 0.0
H625 H 0.12052 0.64345 0.45587 0.0
H626 H 0.13364 0.67275 0.34479 0.0
C627 C 0.07896 0.65282 0.32037 0.0
C628 C 0.33332 0.45176 0.52097 0.0
C629 C 0.35388 0.46125 0.47952 0.0
H630 H 0.29874 0.4358 0.50292 0.0
C631 C 0.35504 0.46165 0.38484 0.0
H632 H 0.33187 0.45118 0.5937 0.0
C633 C 0.33607 0.45299 0.33272 0.0
C634 C 0.31551 0.44356 0.37415 0.0
H635 H 0.37064 0.46888 0.35072 0.0
H636 H 0.33753 0.45368 0.25999 0.0
C637 C 0.31434 0.44293 0.46884 0.0
C638 C 0.55307 0.89393 0.38972 0.0
C639 C 0.54789 0.89206 0.48194 0.0
H640 H 0.56421 0.88269 0.27936 0.0
C641 C 0.55042 0.87695 0.53452 0.0
H642 H 0.55123 0.90536 0.34718 0.0
C643 C 0.55801 0.86401 0.49554 0.0
C644 C 0.56299 0.86577 0.4031 0.0
H645 H 0.54657 0.87514 0.60573 0.0
H646 H 0.55979 0.8525 0.53777 0.0
C647 C 0.56044 0.88087 0.35066 0.0
C648 C 0.21982 0.11607 0.66974 0.0
C649 C 0.23265 0.12026 0.59214 0.0
H650 H 0.20827 0.09801 0.79208 0.0
C651 C 0.24213 0.10731 0.57446 0.0
H652 H 0.21199 0.12553 0.6844 0.0
C653 C 0.2401 0.09153 0.63666 0.0
C654 C 0.22831 0.08823 0.71696 0.0
H655 H 0.25194 0.11004 0.51469 0.0
H656 H 0.24858 0.08262 0.62372 0.0
C657 C 0.21751 0.10011 0.73107 0.0
C658 C 0.90242 0.13626 0.58964 0.0
C659 C 0.88636 0.11483 0.61104 0.0
H660 H 0.92887 0.16637 0.63888 0.0
C661 C 0.88677 0.1062 0.69562 0.0
H662 H 0.90249 0.14321 0.52448 0.0
C663 C 0.90216 0.11917 0.75988 0.0
C664 C 0.91707 0.14122 0.74163 0.0
H665 H 0.87474 0.0896 0.71315 0.0
H666 H 0.90131 0.11224 0.82591 0.0
C667 C 0.91755 0.14946 0.65489 0.0
C668 C 0.84808 0.74305 0.60504 0.0
C669 C 0.87068 0.75397 0.6204 0.0
H670 H 0.81658 0.73395 0.65914 0.0
C671 C 0.8791 0.76647 0.69872 0.0
H672 H 0.84124 0.73343 0.54464 0.0
C673 C 0.86515 0.76737 0.76251 0.0
C674 C 0.84241 0.75521 0.7506 0.0
H675 H 0.89651 0.77536 0.71129 0.0
H676 H 0.87222 0.77672 0.82329 0.0
C677 C 0.83401 0.74344 0.67025 0.0
C678 C 0.1165 0.25778 0.81154 0.0
C679 C 0.11719 0.23831 0.81462 0.0
H680 H 0.10196 0.27503 0.75289 0.0
C681 C 0.10165 0.22016 0.76593 0.0
H682 H 0.12806 0.27193 0.84957 0.0
C683 C 0.08671 0.22195 0.70996 0.0
C684 C 0.08687 0.24183 0.70277 0.0
H685 H 0.10168 0.20488 0.76767 0.0
H686 H 0.07572 0.20806 0.66926 0.0
C687 C 0.10137 0.25947 0.75679 0.0
C688 C 0.77748 0.87761 0.73116 0.0
C689 C 0.76907 0.85538 0.75085 0.0
H690 H 0.78203 0.90828 0.77606 0.0
C691 C 0.76083 0.84766 0.83754 0.0
H692 H 0.78394 0.88414 0.66507 0.0
C693 C 0.76008 0.86171 0.90181 0.0
C694 C 0.76705 0.8835 0.87942 0.0
H695 H 0.75425 0.83063 0.85458 0.0
H696 H 0.75306 0.85527 0.96733 0.0
C697 C 0.77621 0.89144 0.7944 0.0
C698 C 0.12954 0.90967 0.68042 0.0
C699 C 0.15151 0.92408 0.70218 0.0
H700 H 0.09946 0.88187 0.72017 0.0
C701 C 0.15909 0.92297 0.78856 0.0
H702 H 0.12309 0.9101 0.61469 0.0
C703 C 0.14544 0.90674 0.84927 0.0
C704 C 0.12405 0.89123 0.82432 0.0
H705 H 0.17589 0.93389 0.8076 0.0
H706 H 0.15201 0.9057 0.91387 0.0
C707 C 0.11601 0.89332 0.7406 0.0
C708 C 0.78217 0.91406 0.24065 0.0
C709 C 0.77023 0.92478 0.25537 0.0
H710 H 0.78883 0.88915 0.28415 0.0
C711 C 0.75796 0.92037 0.33493 0.0
H712 H 0.792 0.91722 0.1806 0.0
C713 C 0.75628 0.90432 0.3947 0.0
C714 C 0.76668 0.89228 0.37556 0.0
H715 H 0.74864 0.92839 0.34857 0.0
H716 H 0.74592 0.90058 0.45338 0.0
C717 C 0.78025 0.89784 0.29968 0.0
C718 C 0.10771 0.8525 0.24611 0.0
C719 C 0.09295 0.85459 0.18918 0.0
H720 H 0.13424 0.86818 0.33905 0.0
C721 C 0.09242 0.87417 0.19019 0.0
H722 H 0.10861 0.83767 0.24699 0.0
C723 C 0.10709 0.89166 0.24356 0.0
C724 C 0.12276 0.88997 0.29586 0.0
H725 H 0.08125 0.8763 0.14707 0.0
H726 H 0.10673 0.90676 0.24096 0.0
C727 C 0.12258 0.87006 0.29826 0.0
C728 C 0.1277 0.22288 0.19717 0.0
C729 C 0.1501 0.23288 0.2169 0.0
H730 H 0.09637 0.21709 0.23927 0.0
C731 C 0.1574 0.24187 0.30299 0.0
H732 H 0.12144 0.2156 0.13188 0.0
C733 C 0.14289 0.24258 0.36496 0.0
C734 C 0.12094 0.23449 0.34139 0.0
H735 H 0.17452 0.2496 0.32051 0.0
H736 H 0.14916 0.25067 0.42893 0.0
C737 C 0.11331 0.22386 0.25848 0.0
C738 C 0.88821 0.77683 0.20651 0.0
C739 C 0.886 0.76615 0.12433 0.0
H740 H 0.90525 0.78746 0.33138 0.0
C741 C 0.90161 0.76029 0.10058 0.0
H742 H 0.87669 0.78194 0.22587 0.0
C743 C 0.91803 0.76337 0.1614 0.0
C744 C 0.91919 0.77252 0.24666 0.0
H745 H 0.90047 0.75226 0.0371 0.0
H746 H 0.92892 0.75735 0.14368 0.0
C747 C 0.90474 0.78016 0.26667 0.0
C748 C 0.23972 0.15079 0.07111 0.0
C749 C 0.2301 0.1284 0.0897 0.0
H750 H 0.24694 0.18214 0.12001 0.0
C751 C 0.21759 0.12003 0.16824 0.0
H752 H 0.24928 0.15767 0.01057 0.0
C753 C 0.21591 0.13393 0.22998 0.0
C754 C 0.22701 0.15658 0.21517 0.0
H755 H 0.20966 0.10278 0.18359 0.0
H756 H 0.20699 0.127 0.29187 0.0
C757 C 0.23828 0.16479 0.13359 0.0
C758 C 0.83245 0.08019 0.15681 0.0
C759 C 0.84055 0.07498 0.23382 0.0
H760 H 0.84016 0.09993 0.03787 0.0
C761 C 0.86321 0.08388 0.24293 0.0
H762 H 0.81509 0.07357 0.14756 0.0
C763 C 0.87749 0.09928 0.18144 0.0
C764 C 0.86943 0.10576 0.10843 0.0
H765 H 0.87004 0.08005 0.30078 0.0
H766 H 0.89488 0.10665 0.19286 0.0
C767 C 0.8468 0.09539 0.09428 0.0
C768 C 0.88605 0.41369 0.09484 0.0
C769 C 0.89744 0.40268 0.07394 0.0
H770 H 0.87784 0.43772 0.05437 0.0
C771 C 0.90656 0.40528 0.98765 0.0
H772 H 0.87863 0.41192 0.16042 0.0
C773 C 0.90603 0.42007 0.92666 0.0
C774 C 0.89647 0.4326 0.95114 0.0
H775 H 0.91532 0.39695 0.96916 0.0
H776 H 0.91424 0.42258 0.86251 0.0
C777 C 0.88568 0.42859 0.03425 0.0
C778 C 0.56273 0.45896 0.13727 0.0
C779 C 0.572 0.48164 0.12769 0.0
H780 H 0.5395 0.42738 0.08815 0.0
C781 C 0.56634 0.48981 0.05211 0.0
H782 H 0.56686 0.45207 0.19399 0.0
C783 C 0.55077 0.47554 0.9905 0.0
C784 C 0.54037 0.45291 0.00439 0.0
H785 H 0.57322 0.50719 0.0426 0.0
H786 H 0.54618 0.48222 0.93445 0.0
C787 C 0.54691 0.44477 0.07695 0.0
C788 C 0.55587 0.1136 0.09482 0.0
C789 C 0.5591 0.09663 0.06392 0.0
H790 H 0.53823 0.12294 0.18503 0.0
C791 C 0.54591 0.07552 0.09798 0.0
H792 H 0.56575 0.13004 0.06938 0.0
C793 C 0.53027 0.07151 0.16319 0.0
C794 C 0.52739 0.08849 0.19631 0.0
H795 H 0.54779 0.06203 0.07508 0.0
H796 H 0.52062 0.05503 0.18858 0.0
C797 C 0.5401 0.10955 0.16065 0.0
C798 C 0.76545 0.57915 0.12371 0.0
C799 C 0.75228 0.56254 0.06291 0.0
H800 H 0.79316 0.59232 0.21122 0.0
C801 C 0.75605 0.54501 0.0503 0.0
H802 H 0.76317 0.59303 0.13391 0.0
C803 C 0.77315 0.5445 0.09557 0.0
C804 C 0.78708 0.56182 0.15195 0.0
H805 H 0.74623 0.5321 0.00318 0.0
H806 H 0.77604 0.53107 0.08343 0.0
C807 C 0.78283 0.57892 0.16694 0.0
C808 C 0.43622 0.19792 0.12476 0.0
C809 C 0.42465 0.17522 0.13825 0.0
H810 H 0.44283 0.22913 0.17195 0.0
C811 C 0.41259 0.1669 0.21812 0.0
H812 H 0.44571 0.20493 0.06418 0.0
C813 C 0.41107 0.18089 0.28047 0.0
C814 C 0.42132 0.20338 0.26326 0.0
H815 H 0.40353 0.1495 0.23058 0.0
H816 H 0.40106 0.17398 0.3399 0.0
C817 C 0.4344 0.21181 0.18615 0.0
C818 C 0.80339 0.24554 0.09458 0.0
C819 C 0.826 0.25676 0.11055 0.0
H820 H 0.77188 0.2212 0.14052 0.0
C821 C 0.83379 0.25392 0.19374 0.0
H822 H 0.79678 0.2474 0.03146 0.0
C823 C 0.81941 0.23891 0.25667 0.0
C824 C 0.79706 0.22634 0.23693 0.0
H825 H 0.8511 0.26239 0.20827 0.0
H826 H 0.82598 0.23629 0.31838 0.0
C827 C 0.7891 0.23037 0.15681 0.0
C828 C 0.43945 0.23393 0.62291 0.0
C829 C 0.42938 0.24646 0.63821 0.0
H830 H 0.4444 0.20815 0.66948 0.0
C831 C 0.41861 0.24413 0.72057 0.0
H832 H 0.44794 0.23532 0.56041 0.0
C833 C 0.41669 0.22854 0.78359 0.0
C834 C 0.42528 0.21487 0.76468 0.0
H835 H 0.41074 0.25357 0.7345 0.0
H836 H 0.40756 0.22647 0.84488 0.0
C837 C 0.43725 0.21819 0.68511 0.0
C838 C 0.78537 0.22152 0.66093 0.0
C839 C 0.79007 0.21264 0.73653 0.0
H840 H 0.76716 0.21538 0.53924 0.0
C841 C 0.77789 0.19005 0.75143 0.0
H842 H 0.79425 0.23893 0.64856 0.0
C843 C 0.76242 0.17642 0.68811 0.0
C844 C 0.75863 0.18523 0.60969 0.0
H845 H 0.78107 0.1828 0.80962 0.0
H846 H 0.75414 0.15896 0.69862 0.0
C847 C 0.76967 0.208 0.59867 0.0
C848 C 0.78641 0.55774 0.62853 0.0
C849 C 0.78014 0.57319 0.64993 0.0
H850 H 0.80599 0.54975 0.54377 0.0
C851 C 0.7901 0.5933 0.60482 0.0
H852 H 0.77908 0.54214 0.66263 0.0
C853 C 0.80547 0.59766 0.53785 0.0
C854 C 0.81124 0.58201 0.51397 0.0
H855 H 0.78586 0.60567 0.62034 0.0
H856 H 0.81251 0.61324 0.50354 0.0
C857 C 0.80185 0.56212 0.56088 0.0
C858 C 0.56693 0.08448 0.58881 0.0
C859 C 0.57998 0.1018 0.64718 0.0
H860 H 0.53855 0.06949 0.50463 0.0
C861 C 0.57476 0.11828 0.66109 0.0
H862 H 0.57036 0.07137 0.57769 0.0
C863 C 0.55665 0.11728 0.61855 0.0
C864 C 0.5431 0.09948 0.56332 0.0
H865 H 0.58441 0.13169 0.70641 0.0
H866 H 0.55292 0.13015 0.63074 0.0
C867 C 0.54851 0.08319 0.54814 0.0
C868 C 0.88269 0.436 0.51805 0.0
C869 C 0.90136 0.4391 0.47198 0.0
H870 H 0.8694 0.4491 0.61245 0.0
C871 C 0.92059 0.4594 0.47732 0.0
H872 H 0.86758 0.42057 0.51452 0.0
C873 C 0.9215 0.47588 0.53184 0.0
C874 C 0.90332 0.47223 0.58333 0.0
H875 H 0.93513 0.46236 0.44133 0.0
H876 H 0.93688 0.49098 0.53763 0.0
C877 C 0.8837 0.45237 0.57377 0.0
C878 C 0.54716 0.43892 0.59817 0.0
C879 C 0.53975 0.43882 0.51037 0.0
H880 H 0.53952 0.42441 0.72886 0.0
C881 C 0.51894 0.42212 0.48469 0.0
H882 H 0.56326 0.45142 0.61932 0.0
C883 C 0.50515 0.40671 0.54782 0.0
C884 C 0.51213 0.40751 0.63711 0.0
H885 H 0.51288 0.42159 0.41712 0.0
H886 H 0.48873 0.39476 0.52773 0.0
C887 C 0.53359 0.42327 0.66063 0.0
C888 C 0.58716 0.76193 0.31049 0.0
C889 C 0.57708 0.77426 0.32983 0.0
H890 H 0.5946 0.73775 0.35703 0.0
C891 C 0.56378 0.76906 0.4064 0.0
H892 H 0.59731 0.76539 0.25127 0.0
C893 C 0.56186 0.75294 0.46598 0.0
C894 C 0.57356 0.74197 0.45111 0.0
H895 H 0.55544 0.77798 0.42208 0.0
H896 H 0.55228 0.75009 0.52658 0.0
C897 C 0.58549 0.74598 0.37082 0.0
C898 C 0.22658 0.78664 0.43803 0.0
C899 C 0.21756 0.79795 0.48116 0.0
H900 H 0.22183 0.76242 0.33987 0.0
C901 C 0.19657 0.79358 0.45641 0.0
H902 H 0.2427 0.78966 0.45587 0.0
C903 C 0.18471 0.7781 0.39106 0.0
C904 C 0.19349 0.76657 0.34835 0.0
H905 H 0.1891 0.80202 0.48793 0.0
H906 H 0.16857 0.77519 0.37428 0.0
C907 C 0.21461 0.77104 0.37194 0.0
C908 C 0.20908 0.44674 0.41415 0.0
C909 C 0.1867 0.43677 0.39386 0.0
H910 H 0.24046 0.45258 0.37283 0.0
C911 C 0.1795 0.42772 0.30782 0.0
H912 H 0.21525 0.45406 0.47946 0.0
C913 C 0.19408 0.42698 0.24634 0.0
C914 C 0.21602 0.43513 0.27029 0.0
H915 H 0.1624 0.42 0.28991 0.0
H916 H 0.18788 0.41888 0.18234 0.0
C917 C 0.22354 0.44577 0.35326 0.0
C918 C 0.44453 0.89023 0.43855 0.0
C919 C 0.46688 0.90567 0.44637 0.0
H920 H 0.41436 0.88114 0.37032 0.0
C921 C 0.47613 0.92349 0.38717 0.0
H922 H 0.43695 0.87628 0.48328 0.0
C923 C 0.46331 0.92625 0.32349 0.0
C924 C 0.44086 0.91126 0.31701 0.0
H925 H 0.49329 0.93561 0.39083 0.0
H926 H 0.47108 0.9404 0.2799 0.0
C927 C 0.43159 0.89299 0.37409 0.0
C928 C 0.11298 0.54895 0.45603 0.0
C929 C 0.09437 0.54583 0.50262 0.0
H930 H 0.12619 0.53581 0.36151 0.0
C931 C 0.07519 0.52548 0.49803 0.0
H932 H 0.12806 0.56443 0.459 0.0
C933 C 0.07425 0.50896 0.44377 0.0
C934 C 0.09237 0.51261 0.3918 0.0
H935 H 0.06069 0.5225 0.53445 0.0
H936 H 0.0589 0.49381 0.43862 0.0
C937 C 0.11195 0.53253 0.40057 0.0
C938 C 0.48179 0.54414 0.53732 0.0
C939 C 0.45937 0.53699 0.53598 0.0
H940 H 0.51362 0.56791 0.4925 0.0
C941 C 0.45207 0.54972 0.4915 0.0
H942 H 0.48796 0.53486 0.57202 0.0
C943 C 0.4668 0.56875 0.44619 0.0
C944 C 0.48915 0.57555 0.44511 0.0
H945 H 0.4349 0.54475 0.48995 0.0
H946 H 0.46059 0.57777 0.4096 0.0
C947 C 0.49655 0.56329 0.49282 0.0
C948 C 0.10914 0.57059 0.88045 0.0
C949 C 0.09789 0.58172 0.90147 0.0
H950 H 0.11716 0.54642 0.92079 0.0
C951 C 0.08875 0.57913 0.98774 0.0
H952 H 0.11655 0.57233 0.81487 0.0
C953 C 0.08917 0.56426 0.04864 0.0
C954 C 0.09863 0.55165 0.02413 0.0
H955 H 0.08009 0.58756 0.00632 0.0
H956 H 0.08098 0.56179 0.11282 0.0
C957 C 0.1094 0.55561 0.94097 0.0
C958 C 0.43228 0.54198 0.05059 0.0
C959 C 0.45337 0.55996 0.03831 0.0
H960 H 0.40545 0.51385 0.9888 0.0
C961 C 0.46198 0.56545 0.95092 0.0
H962 H 0.4252 0.53747 0.11728 0.0
C963 C 0.45075 0.55212 0.87858 0.0
C964 C 0.43061 0.53315 0.89181 0.0
H965 H 0.47798 0.57942 0.9389 0.0
H966 H 0.45846 0.55596 0.81282 0.0
C967 C 0.4209 0.52858 0.97733 0.0
C968 C 0.46853 0.93532 0.83936 0.0
C969 C 0.4743 0.91934 0.82181 0.0
H970 H 0.4484 0.94422 0.91428 0.0
C971 C 0.46384 0.89958 0.86947 0.0
H972 H 0.47634 0.95077 0.80395 0.0
C973 C 0.44765 0.89578 0.93253 0.0
C974 C 0.44178 0.91173 0.94939 0.0
H975 H 0.46792 0.88696 0.85714 0.0
H976 H 0.43974 0.88033 0.96797 0.0
C977 C 0.4525 0.93159 0.90263 0.0
C978 C 0.23394 0.45076 0.84989 0.0
C979 C 0.21791 0.43267 0.80246 0.0
H980 H 0.26045 0.46263 0.94381 0.0
C981 C 0.21809 0.41294 0.80574 0.0
H982 H 0.23429 0.46623 0.84797 0.0
C983 C 0.23333 0.41102 0.85874 0.0
C984 C 0.24849 0.42867 0.91099 0.0
H985 H 0.20615 0.39882 0.76864 0.0
H986 H 0.23243 0.3953 0.86236 0.0
C987 C 0.24899 0.44874 0.9043 0.0
C988 C 0.56835 0.77635 0.90939 0.0
C989 C 0.57796 0.78454 0.82526 0.0
H990 H 0.56009 0.78329 0.03827 0.0
C991 C 0.58513 0.80641 0.80373 0.0
H992 H 0.56236 0.75943 0.92695 0.0
C993 C 0.58417 0.8203 0.86824 0.0
C994 C 0.57555 0.81234 0.95427 0.0
H995 H 0.59247 0.81303 0.73882 0.0
H996 H 0.59094 0.8374 0.85204 0.0
C997 C 0.56688 0.79002 0.97281 0.0
C998 C 0.21629 0.77025 0.89452 0.0
C999 C 0.21347 0.78535 0.84307 0.0
H1000 H 0.20118 0.74205 0.97983 0.0
C1001 C 0.19245 0.78239 0.83243 0.0
H1002 H 0.23232 0.77209 0.90318 0.0
C1003 C 0.1746 0.76486 0.87383 0.0
C1004 C 0.17751 0.75023 0.92815 0.0
H1005 H 0.18979 0.7936 0.79194 0.0
H1006 H 0.15867 0.76336 0.86643 0.0
C1007 C 0.19849 0.75299 0.93765 0.0
C1008 C 0.3432 0.109 0.96373 0.0
C1009 C 0.34816 0.1233 0.8902 0.0
H1010 H 0.31859 0.08643 0.05386 0.0
C1011 C 0.33128 0.1252 0.84941 0.0
H1012 H 0.35586 0.10719 0.99687 0.0
C1013 C 0.30998 0.11334 0.8821 0.0
C1014 C 0.30504 0.09931 0.95656 0.0
H1015 H 0.33452 0.13603 0.79264 0.0
H1016 H 0.29741 0.11534 0.84923 0.0
C1017 C 0.32186 0.09714 0.99662 0.0
C1018 C 0.89025 0.20018 0.87896 0.0
C1019 C 0.90183 0.20804 0.96021 0.0
H1020 H 0.87031 0.20338 0.77855 0.0
C1021 C 0.90249 0.22621 0.00142 0.0
H1022 H 0.88946 0.18626 0.84513 0.0
C1023 C 0.89152 0.23608 0.96291 0.0
C1024 C 0.87965 0.22798 0.88241 0.0
H1025 H 0.91131 0.2327 0.06387 0.0
H1026 H 0.89212 0.24989 0.99696 0.0
C1027 C 0.87928 0.21002 0.84058 0.0
C1028 C 0.7935 0.64743 0.99597 0.0
C1029 C 0.77437 0.63984 0.94454 0.0
H1030 H 0.81929 0.67413 0.06669 0.0
C1031 C 0.76589 0.65377 0.92942 0.0
H1032 H 0.80032 0.63702 0.00978 0.0
C1033 C 0.77687 0.67519 0.962 0.0
C1034 C 0.79641 0.68299 0.01093 0.0
H1035 H 0.75115 0.64835 0.89028 0.0
H1036 H 0.7703 0.68577 0.94703 0.0
C1037 C 0.80434 0.66871 0.02902 0.0
C1038 C 0.1151 0.34369 0.54188 0.0
C1039 C 0.13707 0.35757 0.51889 0.0
H1040 H 0.08689 0.31202 0.52782 0.0
C1041 C 0.14709 0.35013 0.45788 0.0
H1042 H 0.10689 0.34898 0.58841 0.0
C1043 C 0.13562 0.32907 0.42265 0.0
C1044 C 0.11389 0.31489 0.44797 0.0
H1045 H 0.16394 0.36049 0.43802 0.0
H1046 H 0.14402 0.32375 0.37729 0.0
C1047 C 0.10363 0.32253 0.50697 0.0
C1048 C 0.68307 0.7981 0.53055 0.0
C1049 C 0.69439 0.78702 0.55072 0.0
H1050 H 0.65333 0.79878 0.5415 0.0
C1051 C 0.68349 0.76711 0.5976 0.0
H1052 H 0.69095 0.81346 0.49442 0.0
C1053 C 0.66184 0.75872 0.62529 0.0
C1054 C 0.65067 0.77003 0.60619 0.0
H1055 H 0.69178 0.7582 0.61441 0.0
H1056 H 0.65392 0.74347 0.66209 0.0
C1057 C 0.66147 0.78969 0.55776 0.0
C1058 C 0.22006 0.91058 0.61136 0.0
C1059 C 0.21883 0.90842 0.51692 0.0
H1060 H 0.22866 0.90142 0.73593 0.0
C1061 C 0.22755 0.89669 0.47519 0.0
H1062 H 0.21347 0.91951 0.64565 0.0
C1063 C 0.23643 0.88652 0.52688 0.0
C1064 C 0.23655 0.88762 0.6216 0.0
H1065 H 0.22696 0.89482 0.40264 0.0
H1066 H 0.24238 0.87703 0.49246 0.0
C1067 C 0.22871 0.90016 0.66322 0.0
C1068 C 0.68278 0.9084 0.08027 0.0
C1069 C 0.69391 0.89694 0.09686 0.0
H1070 H 0.65293 0.90898 0.094 0.0
C1071 C 0.68309 0.87699 0.14336 0.0
H1072 H 0.69071 0.92387 0.04502 0.0
C1073 C 0.66154 0.8685 0.17136 0.0
C1074 C 0.65028 0.87977 0.1539 0.0
H1075 H 0.6912 0.86777 0.15764 0.0
H1076 H 0.65365 0.85295 0.20605 0.0
C1077 C 0.66117 0.89992 0.10873 0.0
C1078 C 0.09377 0.75086 0.06048 0.0
C1079 C 0.11665 0.76337 0.06407 0.0
H1080 H 0.06391 0.74992 0.02547 0.0
C1081 C 0.12702 0.78476 0.03 0.0
H1082 H 0.08531 0.73429 0.08576 0.0
C1083 C 0.11484 0.79362 0.99498 0.0
C1084 C 0.09195 0.78137 0.9934 0.0
H1085 H 0.14462 0.7948 0.03089 0.0
H1086 H 0.12342 0.81029 0.97078 0.0
C1087 C 0.08153 0.75979 0.02562 0.0
C1088 C 0.23348 0.34812 0.10471 0.0
C1089 C 0.22392 0.35563 0.16783 0.0
H1090 H 0.22935 0.32179 0.02029 0.0
C1091 C 0.2026 0.34131 0.19763 0.0
H1092 H 0.2499 0.35874 0.0804 0.0
C1093 C 0.19081 0.32024 0.16268 0.0
C1094 C 0.2001 0.31295 0.09752 0.0
H1095 H 0.19474 0.34654 0.24622 0.0
H1096 H 0.17426 0.30977 0.18594 0.0
C1097 C 0.22171 0.32696 0.07012 0.0
C1098 C 0.87826 0.6671 0.23775 0.0
C1099 C 0.88193 0.65192 0.28409 0.0
H1100 H 0.88209 0.699 0.23652 0.0
C1101 C 0.8943 0.65844 0.36402 0.0
H1102 H 0.86885 0.66269 0.17598 0.0
C1103 C 0.90198 0.6794 0.39884 0.0
C1104 C 0.89724 0.69412 0.35478 0.0
H1105 H 0.89745 0.64713 0.40132 0.0
H1106 H 0.91094 0.68378 0.46176 0.0
C1107 C 0.88573 0.68791 0.27289 0.0
C1108 C 0.31088 0.21764 0.37038 0.0
C1109 C 0.30717 0.21301 0.46305 0.0
H1110 H 0.33426 0.2303 0.26324 0.0
C1111 C 0.3251 0.21872 0.51992 0.0
H1112 H 0.29742 0.21343 0.32458 0.0
C1113 C 0.34621 0.22847 0.48472 0.0
C1114 C 0.34988 0.2326 0.39172 0.0
H1115 H 0.32282 0.21542 0.59157 0.0
H1116 H 0.35963 0.2324 0.5304 0.0
C1117 C 0.332 0.22727 0.33506 0.0
C1118 C 0.81372 0.12936 0.32742 0.0
C1119 C 0.80458 0.11332 0.39496 0.0
H1120 H 0.8109 0.15307 0.24819 0.0
C1121 C 0.78456 0.10861 0.43341 0.0
H1122 H 0.82905 0.13327 0.29584 0.0
C1123 C 0.77414 0.12004 0.40603 0.0
C1124 C 0.78346 0.13629 0.33924 0.0
H1125 H 0.77708 0.0963 0.4854 0.0
H1126 H 0.75888 0.11628 0.43785 0.0
C1127 C 0.80326 0.14066 0.29971 0.0
C1128 C 0.99013 0.41696 0.23045 0.0
C1129 C 0.98012 0.42954 0.21508 0.0
H1130 H 0.01926 0.41493 0.21982 0.0
C1131 C 0.99202 0.44973 0.17117 0.0
H1132 H 0.98135 0.40126 0.26367 0.0
C1133 C 0.01367 0.45754 0.14609 0.0
C1134 C 0.02395 0.44531 0.16401 0.0
H1135 H 0.98477 0.45979 0.15775 0.0
H1136 H 0.0225 0.47342 0.11436 0.0
C1137 C 0.01183 0.42475 0.20496 0.0
C1138 C 0.51272 0.52715 0.27988 0.0
C1139 C 0.52584 0.54968 0.26518 0.0
H1140 H 0.51132 0.49748 0.31993 0.0
C1141 C 0.54835 0.55968 0.28226 0.0
H1142 H 0.49531 0.51895 0.26778 0.0
C1143 C 0.55753 0.54735 0.31332 0.0
C1144 C 0.54439 0.52477 0.32708 0.0
H1145 H 0.55886 0.57704 0.27226 0.0
H1146 H 0.57494 0.55545 0.32535 0.0
C1147 C 0.5219 0.51483 0.31004 0.0
C1148 C 0.41827 0.97831 0.31814 0.0
C1149 C 0.41997 0.98085 0.22386 0.0
H1150 H 0.42741 0.99402 0.44701 0.0
C1151 C 0.43049 0.00197 0.18751 0.0
H1152 H 0.41029 0.96222 0.34831 0.0
C1153 C 0.44009 0.02014 0.244 0.0
C1154 C 0.43966 0.01762 0.33825 0.0
H1155 H 0.43196 0.00447 0.11524 0.0
H1156 H 0.44873 0.03616 0.21336 0.0
C1157 C 0.42815 0.99652 0.3748 0.0
C1158 C 0.55318 0.02357 0.68048 0.0
C1159 C 0.56864 0.02935 0.74966 0.0
H1160 H 0.53331 -0.00013 0.58251 0.0
C1161 C 0.57686 0.01542 0.77006 0.0
H1162 H 0.54673 0.03411 0.66258 0.0
C1163 C 0.56889 0.99551 0.72483 0.0
C1164 C 0.553 0.98953 0.65702 0.0
H1165 H 0.58886 0.01957 0.82293 0.0
H1166 H 0.57483 0.98464 0.74404 0.0
C1167 C 0.54563 0.00401 0.63399 0.0
C1168 C 0.00359 0.53414 0.80322 0.0
C1169 C 0.01551 0.55455 0.76101 0.0
H1170 H 0.97308 0.51021 0.85909 0.0
C1171 C 0.00555 0.56725 0.74777 0.0
H1172 H 0.0108 0.52398 0.81496 0.0
C1173 C 0.98387 0.55938 0.7737 0.0
C1174 C 0.97172 0.53862 0.81293 0.0
H1175 H 0.01435 0.58311 0.71591 0.0
H1176 H 0.97648 0.56931 0.76053 0.0
C1177 C 0.98194 0.52625 0.82872 0.0
C1178 C 0.4287 0.42811 0.7022 0.0
C1179 C 0.42559 0.44441 0.7413 0.0
H1180 H 0.44255 0.4074 0.7162 0.0
C1181 C 0.43358 0.45164 0.82886 0.0
H1182 H 0.42272 0.42216 0.63502 0.0
C1183 C 0.44497 0.44326 0.87519 0.0
C1184 C 0.44857 0.42737 0.83537 0.0
H1185 H 0.43145 0.46414 0.8613 0.0
H1186 H 0.45124 0.44952 0.94175 0.0
C1187 C 0.44004 0.41964 0.74886 0.0
loop_
_geom_bond_atom_site_label_1
_geom_bond_atom_site_label_2
_geom_bond_distance
_geom_bond_site_symmetry_2
_ccdc_geom_bond_type
C0 O1 1.160 . S
C0 O7 1.185 . S
O1 C0 1.160 . S
O2 Zn3 1.899 1_556 S
O2 C10 1.284 1_556 S
Zn3 O2 1.899 1_554 S
Zn3 O4 2.032 . S
Zn3 O7 2.086 . S
Zn3 O12 1.977 1_554 S
O4 Zn3 2.032 . S
O4 C8 1.278 . S
C5 O6 1.203 . S
C5 O12 1.267 . S
O6 C5 1.203 . S
O7 C0 1.185 . S
O7 Zn3 2.086 . S
C8 O4 1.278 . S
C8 O9 1.211 . S
O9 C8 1.211 . S
C10 O2 1.284 1_554 S
C10 O11 1.273 . S
O11 C10 1.273 . S
O12 Zn3 1.977 1_556 S
O12 C5 1.267 . S
C13 O14 1.160 . S
C13 O20 1.185 . S
O14 C13 1.160 . S
O15 Zn16 1.899 1_556 S
O15 C23 1.284 1_556 S
Zn16 O15 1.899 1_554 S
Zn16 O17 2.032 . S
Zn16 O20 2.086 . S
Zn16 O25 1.977 1_554 S
O17 Zn16 2.032 . S
O17 C21 1.278 . S
C18 O19 1.203 . S
C18 O25 1.267 . S
O19 C18 1.203 . S
O20 C13 1.185 . S
O20 Zn16 2.086 . S
C21 O17 1.278 . S
C21 O22 1.211 . S
O22 C21 1.211 . S
C23 O15 1.284 1_554 S
C23 O24 1.273 . S
O24 C23 1.273 . S
O25 Zn16 1.977 1_556 S
O25 C18 1.267 . S
C26 O27 1.160 . S
C26 O33 1.185 . S
O27 C26 1.160 . S
O28 Zn29 1.899 1_556 S
O28 C36 1.284 1_556 S
Zn29 O28 1.899 1_554 S
Zn29 O30 2.032 . S
Zn29 O33 2.086 . S
Zn29 O38 1.977 1_554 S
O30 Zn29 2.032 . S
O30 C34 1.278 . S
C31 O32 1.203 . S
C31 O38 1.267 . S
O32 C31 1.203 . S
O33 C26 1.185 . S
O33 Zn29 2.086 . S
C34 O30 1.278 . S
C34 O35 1.211 . S
O35 C34 1.211 . S
C36 O28 1.284 1_554 S
C36 O37 1.273 . S
O37 C36 1.273 . S
O38 Zn29 1.977 1_556 S
O38 C31 1.267 . S
C39 O40 1.160 . S
C39 O46 1.185 . S
O40 C39 1.160 . S
O41 Zn42 1.899 . S
O41 C49 1.284 . S
Zn42 O41 1.899 . S
Zn42 O43 2.032 . S
Zn42 O46 2.086 . S
Zn42 O51 1.977 . S
O43 Zn42 2.032 . S
O43 C47 1.278 . S
C44 O45 1.203 . S
C44 O51 1.267 . S
O45 C44 1.203 . S
O46 C39 1.185 . S
O46 Zn42 2.086 . S
C47 O43 1.278 . S
C47 O48 1.211 . S
O48 C47 1.211 . S
C49 O41 1.284 . S
C49 O50 1.273 . S
O50 C49 1.273 . S
O51 Zn42 1.977 . S
O51 C44 1.267 . S
C52 O53 1.160 . S
C52 O59 1.185 . S
O53 C52 1.160 . S
O54 Zn55 1.899 . S
O54 C62 1.284 . S
Zn55 O54 1.899 . S
Zn55 O56 2.032 . S
Zn55 O59 2.086 . S
Zn55 O64 1.977 . S
O56 Zn55 2.032 . S
O56 C60 1.278 . S
C57 O58 1.203 . S
C57 O64 1.267 . S
O58 C57 1.203 . S
O59 C52 1.185 . S
O59 Zn55 2.086 . S
C60 O56 1.278 . S
C60 O61 1.211 . S
O61 C60 1.211 . S
C62 O54 1.284 . S
C62 O63 1.273 . S
O63 C62 1.273 . S
O64 Zn55 1.977 . S
O64 C57 1.267 . S
C65 O66 1.160 . S
C65 O72 1.185 . S
O66 C65 1.160 . S
O67 Zn68 1.899 . S
O67 C75 1.284 . S
Zn68 O67 1.899 . S
Zn68 O69 2.032 . S
Zn68 O72 2.086 . S
Zn68 O77 1.977 . S
O69 Zn68 2.032 . S
O69 C73 1.278 . S
C70 O71 1.203 . S
C70 O77 1.267 . S
O71 C70 1.203 . S
O72 C65 1.185 . S
O72 Zn68 2.086 . S
C73 O69 1.278 . S
C73 O74 1.211 . S
O74 C73 1.211 . S
C75 O67 1.284 . S
C75 O76 1.273 . S
O76 C75 1.273 . S
O77 Zn68 1.977 . S
O77 C70 1.267 . S
C78 O79 1.160 . S
C78 O85 1.185 . S
O79 C78 1.160 . S
O80 Zn81 1.899 1_554 S
O80 C88 1.284 1_554 S
Zn81 O80 1.899 1_556 S
Zn81 O82 2.032 . S
Zn81 O85 2.086 . S
Zn81 O90 1.977 1_556 S
O82 Zn81 2.032 . S
O82 C86 1.278 . S
C83 O84 1.203 . S
C83 O90 1.267 . S
O84 C83 1.203 . S
O85 C78 1.185 . S
O85 Zn81 2.086 . S
C86 O82 1.278 . S
C86 O87 1.211 . S
O87 C86 1.211 . S
C88 O80 1.284 1_556 S
C88 O89 1.273 . S
O89 C88 1.273 . S
O90 Zn81 1.977 1_554 S
O90 C83 1.267 . S
C91 O92 1.160 . S
C91 O98 1.185 . S
O92 C91 1.160 . S
O93 Zn94 1.899 1_554 S
O93 C101 1.284 1_554 S
Zn94 O93 1.899 1_556 S
Zn94 O95 2.032 . S
Zn94 O98 2.086 . S
Zn94 O103 1.977 1_556 S
O95 Zn94 2.032 . S
O95 C99 1.278 . S
C96 O97 1.203 . S
C96 O103 1.267 . S
O97 C96 1.203 . S
O98 C91 1.185 . S
O98 Zn94 2.086 . S
C99 O95 1.278 . S
C99 O100 1.211 . S
O100 C99 1.211 . S
C101 O93 1.284 1_556 S
C101 O102 1.273 . S
O102 C101 1.273 . S
O103 Zn94 1.977 1_554 S
O103 C96 1.267 . S
C104 O105 1.160 . S
C104 O111 1.185 . S
O105 C104 1.160 . S
O106 Zn107 1.899 1_554 S
O106 C114 1.284 1_554 S
Zn107 O106 1.899 1_556 S
Zn107 O108 2.032 . S
Zn107 O111 2.086 . S
Zn107 O116 1.977 1_556 S
O108 Zn107 2.032 . S
O108 C112 1.278 . S
C109 O110 1.203 . S
C109 O116 1.267 . S
O110 C109 1.203 . S
O111 C104 1.185 . S
O111 Zn107 2.086 . S
C112 O108 1.278 . S
C112 O113 1.211 . S
O113 C112 1.211 . S
C114 O106 1.284 1_556 S
C114 O115 1.273 . S
O115 C114 1.273 . S
O116 Zn107 1.977 1_554 S
O116 C109 1.267 . S
C117 O118 1.160 . S
C117 O124 1.185 . S
O118 C117 1.160 . S
O119 Zn120 1.899 . S
O119 C127 1.284 . S
Zn120 O119 1.899 . S
Zn120 O121 2.032 . S
Zn120 O124 2.086 . S
Zn120 O129 1.977 . S
O121 Zn120 2.032 . S
O121 C125 1.278 . S
C122 O123 1.203 . S
C122 O129 1.267 . S
O123 C122 1.203 . S
O124 C117 1.185 . S
O124 Zn120 2.086 . S
C125 O121 1.278 . S
C125 O126 1.211 . S
O126 C125 1.211 . S
C127 O119 1.284 . S
C127 O128 1.273 . S
O128 C127 1.273 . S
O129 Zn120 1.977 . S
O129 C122 1.267 . S
C130 O131 1.160 . S
C130 O137 1.185 . S
O131 C130 1.160 . S
O132 Zn133 1.899 . S
O132 C140 1.284 . S
Zn133 O132 1.899 . S
Zn133 O134 2.032 . S
Zn133 O137 2.086 . S
Zn133 O142 1.977 . S
O134 Zn133 2.032 . S
O134 C138 1.278 . S
C135 O136 1.203 . S
C135 O142 1.267 . S
O136 C135 1.203 . S
O137 C130 1.185 . S
O137 Zn133 2.086 . S
C138 O134 1.278 . S
C138 O139 1.211 . S
O139 C138 1.211 . S
C140 O132 1.284 . S
C140 O141 1.273 . S
O141 C140 1.273 . S
O142 Zn133 1.977 . S
O142 C135 1.267 . S
C143 O144 1.160 . S
C143 O150 1.185 . S
O144 C143 1.160 . S
O145 Zn146 1.899 . S
O145 C153 1.284 . S
Zn146 O145 1.899 . S
Zn146 O147 2.032 . S
Zn146 O150 2.086 . S
Zn146 O155 1.977 . S
O147 Zn146 2.032 . S
O147 C151 1.278 . S
C148 O149 1.203 . S
C148 O155 1.267 . S
O149 C148 1.203 . S
O150 C143 1.185 . S
O150 Zn146 2.086 . S
C151 O147 1.278 . S
C151 O152 1.211 . S
O152 C151 1.211 . S
C153 O145 1.284 . S
C153 O154 1.273 . S
O154 C153 1.273 . S
O155 Zn146 1.977 . S
O155 C148 1.267 . S
C156 O157 1.160 . S
C156 O163 1.185 . S
O157 C156 1.160 . S
O158 Zn159 1.899 . S
O158 C166 1.284 . S
Zn159 O158 1.899 . S
Zn159 O160 2.032 . S
Zn159 O163 2.086 . S
Zn159 O168 1.977 . S
O160 Zn159 2.032 . S
O160 C164 1.278 . S
C161 O162 1.203 . S
C161 O168 1.267 . S
O162 C161 1.203 . S
O163 C156 1.185 . S
O163 Zn159 2.086 . S
C164 O160 1.278 . S
C164 O165 1.211 . S
O165 C164 1.211 . S
C166 O158 1.284 . S
C166 O167 1.273 . S
O167 C166 1.273 . S
O168 Zn159 1.977 . S
O168 C161 1.267 . S
C169 O170 1.160 . S
C169 O176 1.185 . S
O170 C169 1.160 . S
O171 Zn172 1.899 . S
O171 C179 1.284 . S
Zn172 O171 1.899 . S
Zn172 O173 2.032 . S
Zn172 O176 2.086 . S
Zn172 O181 1.977 . S
O173 Zn172 2.032 . S
O173 C177 1.278 . S
C174 O175 1.203 . S
C174 O181 1.267 . S
O175 C174 1.203 . S
O176 C169 1.185 . S
O176 Zn172 2.086 . S
C177 O173 1.278 . S
C177 O178 1.211 . S
O178 C177 1.211 . S
C179 O171 1.284 . S
C179 O180 1.273 . S
O180 C179 1.273 . S
O181 Zn172 1.977 . S
O181 C174 1.267 . S
C182 O183 1.160 . S
C182 O189 1.185 . S
O183 C182 1.160 . S
O184 Zn185 1.899 . S
O184 C192 1.284 . S
Zn185 O184 1.899 . S
Zn185 O186 2.032 . S
Zn185 O189 2.086 . S
Zn185 O194 1.977 . S
O186 Zn185 2.032 . S
O186 C190 1.278 . S
C187 O188 1.203 . S
C187 O194 1.267 . S
O188 C187 1.203 . S
O189 C182 1.185 . S
O189 Zn185 2.086 . S
C190 O186 1.278 . S
C190 O191 1.211 . S
O191 C190 1.211 . S
C192 O184 1.284 . S
C192 O193 1.273 . S
O193 C192 1.273 . S
O194 Zn185 1.977 . S
O194 C187 1.267 . S
C195 O196 1.160 . S
C195 O202 1.185 . S
O196 C195 1.160 . S
O197 Zn198 1.899 . S
O197 C205 1.284 . S
Zn198 O197 1.899 . S
Zn198 O199 2.032 . S
Zn198 O202 2.086 . S
Zn198 O207 1.977 . S
O199 Zn198 2.032 . S
O199 C203 1.278 . S
C200 O201 1.203 . S
C200 O207 1.267 . S
O201 C200 1.203 . S
O202 C195 1.185 . S
O202 Zn198 2.086 . S
C203 O199 1.278 . S
C203 O204 1.211 . S
O204 C203 1.211 . S
C205 O197 1.284 . S
C205 O206 1.273 . S
O206 C205 1.273 . S
O207 Zn198 1.977 . S
O207 C200 1.267 . S
C208 O209 1.160 . S
C208 O215 1.185 . S
O209 C208 1.160 . S
O210 Zn211 1.899 . S
O210 C218 1.284 . S
Zn211 O210 1.899 . S
Zn211 O212 2.032 . S
Zn211 O215 2.086 . S
Zn211 O220 1.977 . S
O212 Zn211 2.032 . S
O212 C216 1.278 . S
C213 O214 1.203 . S
C213 O220 1.267 . S
O214 C213 1.203 . S
O215 C208 1.185 . S
O215 Zn211 2.086 . S
C216 O212 1.278 . S
C216 O217 1.211 . S
O217 C216 1.211 . S
C218 O210 1.284 . S
C218 O219 1.273 . S
O219 C218 1.273 . S
O220 Zn211 1.977 . S
O220 C213 1.267 . S
C221 O222 1.160 . S
C221 O228 1.185 . S
O222 C221 1.160 . S
O223 Zn224 1.899 . S
O223 C231 1.284 . S
Zn224 O223 1.899 . S
Zn224 O225 2.032 . S
Zn224 O228 2.086 . S
Zn224 O233 1.977 . S
O225 Zn224 2.032 . S
O225 C229 1.278 . S
C226 O227 1.203 . S
C226 O233 1.267 . S
O227 C226 1.203 . S
O228 C221 1.185 . S
O228 Zn224 2.086 . S
C229 O225 1.278 . S
C229 O230 1.211 . S
O230 C229 1.211 . S
C231 O223 1.284 . S
C231 O232 1.273 . S
O232 C231 1.273 . S
O233 Zn224 1.977 . S
O233 C226 1.267 . S
C234 O235 1.160 . S
C234 O241 1.185 . S
O235 C234 1.160 . S
O236 Zn237 1.899 . S
O236 C244 1.284 . S
Zn237 O236 1.899 . S
Zn237 O238 2.032 . S
Zn237 O241 2.086 . S
Zn237 O246 1.977 . S
O238 Zn237 2.032 . S
O238 C242 1.278 . S
C239 O240 1.203 . S
C239 O246 1.267 . S
O240 C239 1.203 . S
O241 C234 1.185 . S
O241 Zn237 2.086 . S
C242 O238 1.278 . S
C242 O243 1.211 . S
O243 C242 1.211 . S
C244 O236 1.284 . S
C244 O245 1.273 . S
O245 C244 1.273 . S
O246 Zn237 1.977 . S
O246 C239 1.267 . S
C247 O248 1.160 . S
C247 O254 1.185 . S
O248 C247 1.160 . S
O249 Zn250 1.899 . S
O249 C257 1.284 . S
Zn250 O249 1.899 . S
Zn250 O251 2.032 . S
Zn250 O254 2.086 . S
Zn250 O259 1.977 . S
O251 Zn250 2.032 . S
O251 C255 1.278 . S
C252 O253 1.203 . S
C252 O259 1.267 . S
O253 C252 1.203 . S
O254 C247 1.185 . S
O254 Zn250 2.086 . S
C255 O251 1.278 . S
C255 O256 1.211 . S
O256 C255 1.211 . S
C257 O249 1.284 . S
C257 O258 1.273 . S
O258 C257 1.273 . S
O259 Zn250 1.977 . S
O259 C252 1.267 . S
C260 O261 1.160 . S
C260 O267 1.185 . S
O261 C260 1.160 . S
O262 Zn263 1.899 . S
O262 C270 1.284 . S
Zn263 O262 1.899 . S
Zn263 O264 2.032 . S
Zn263 O267 2.086 . S
Zn263 O272 1.977 . S
O264 Zn263 2.032 . S
O264 C268 1.278 . S
C265 O266 1.203 . S
C265 O272 1.267 . S
O266 C265 1.203 . S
O267 C260 1.185 . S
O267 Zn263 2.086 . S
C268 O264 1.278 . S
C268 O269 1.211 . S
O269 C268 1.211 . S
C270 O262 1.284 . S
C270 O271 1.273 . S
O271 C270 1.273 . S
O272 Zn263 1.977 . S
O272 C265 1.267 . S
C273 O274 1.160 . S
C273 O280 1.185 . S
O274 C273 1.160 . S
O275 Zn276 1.899 . S
O275 C283 1.284 . S
Zn276 O275 1.899 . S
Zn276 O277 2.032 . S
Zn276 O280 2.086 . S
Zn276 O285 1.977 . S
O277 Zn276 2.032 . S
O277 C281 1.278 1_556 S
C278 O279 1.203 . S
C278 O285 1.267 . S
O279 C278 1.203 . S
O280 C273 1.185 . S
O280 Zn276 2.086 . S
C281 O277 1.278 1_554 S
C281 O282 1.211 1_554 S
O282 C281 1.211 1_556 S
C283 O275 1.284 . S
C283 O284 1.273 . S
O284 C283 1.273 . S
O285 Zn276 1.977 . S
O285 C278 1.267 . S
C286 O287 1.160 . S
C286 O293 1.185 . S
O287 C286 1.160 . S
O288 Zn289 1.899 . S
O288 C296 1.284 . S
Zn289 O288 1.899 . S
Zn289 O290 2.032 . S
Zn289 O293 2.086 . S
Zn289 O298 1.977 . S
O290 Zn289 2.032 . S
O290 C294 1.276 1_556 S
C291 O292 1.203 . S
C291 O298 1.267 . S
O292 C291 1.203 . S
O293 C286 1.185 . S
O293 Zn289 2.086 . S
C294 O290 1.276 1_554 S
C294 O295 1.202 1_554 S
O295 C294 1.202 1_556 S
C296 O288 1.284 . S
C296 O297 1.273 . S
O297 C296 1.273 . S
O298 Zn289 1.977 . S
O298 C291 1.267 . S
C299 O300 1.160 . S
C299 O306 1.185 . S
O300 C299 1.160 . S
O301 Zn302 1.899 . S
O301 C309 1.284 . S
Zn302 O301 1.899 . S
Zn302 O303 2.032 . S
Zn302 O306 2.086 . S
Zn302 O311 1.977 . S
O303 Zn302 2.032 . S
O303 C307 1.278 1_556 S
C304 O305 1.203 . S
C304 O311 1.267 . S
O305 C304 1.203 . S
O306 C299 1.185 . S
O306 Zn302 2.086 . S
C307 O303 1.278 1_554 S
C307 O308 1.211 1_554 S
O308 C307 1.211 1_556 S
C309 O301 1.284 . S
C309 O310 1.273 . S
O310 C309 1.273 . S
O311 Zn302 1.977 . S
O311 C304 1.267 . S
C312 O313 1.160 . S
C312 O319 1.185 . S
O313 C312 1.160 . S
O314 Zn315 1.899 . S
O314 C322 1.284 . S
Zn315 O314 1.899 . S
Zn315 O316 2.032 . S
Zn315 O319 2.086 . S
Zn315 O324 1.977 . S
O316 Zn315 2.032 . S
O316 C320 1.278 . S
C317 O318 1.203 . S
C317 O324 1.267 . S
O318 C317 1.203 . S
O319 C312 1.185 . S
O319 Zn315 2.086 . S
C320 O316 1.278 . S
C320 O321 1.211 . S
O321 C320 1.211 . S
C322 O314 1.284 . S
C322 O323 1.273 . S
O323 C322 1.273 . S
O324 Zn315 1.977 . S
O324 C317 1.267 . S
C325 O326 1.160 . S
C325 O332 1.185 . S
O326 C325 1.160 . S
O327 Zn328 1.899 . S
O327 C335 1.284 . S
Zn328 O327 1.899 . S
Zn328 O329 2.032 . S
Zn328 O332 2.086 . S
Zn328 O337 1.977 . S
O329 Zn328 2.032 . S
O329 C333 1.278 . S
C330 O331 1.203 . S
C330 O337 1.267 . S
O331 C330 1.203 . S
O332 C325 1.185 . S
O332 Zn328 2.086 . S
C333 O329 1.278 . S
C333 O334 1.211 . S
O334 C333 1.211 . S
C335 O327 1.284 . S
C335 O336 1.273 . S
O336 C335 1.273 . S
O337 Zn328 1.977 . S
O337 C330 1.267 . S
C338 O339 1.160 . S
C338 O345 1.185 . S
O339 C338 1.160 . S
O340 Zn341 1.899 . S
O340 C348 1.284 . S
Zn341 O340 1.899 . S
Zn341 O342 2.032 . S
Zn341 O345 2.086 . S
Zn341 O350 1.977 . S
O342 Zn341 2.032 . S
O342 C346 1.278 . S
C343 O344 1.203 . S
C343 O350 1.267 . S
O344 C343 1.203 . S
O345 C338 1.185 . S
O345 Zn341 2.086 . S
C346 O342 1.278 . S
C346 O347 1.211 . S
O347 C346 1.211 . S
C348 O340 1.284 . S
C348 O349 1.273 . S
O349 C348 1.273 . S
O350 Zn341 1.977 . S
O350 C343 1.267 . S
C351 O352 1.160 . S
C351 O358 1.185 . S
O352 C351 1.160 . S
O353 Zn354 1.899 . S
O353 C361 1.284 . S
Zn354 O353 1.899 . S
Zn354 O355 2.032 . S
Zn354 O358 2.086 . S
Zn354 O363 1.977 . S
O355 Zn354 2.032 . S
O355 C359 1.278 1_554 S
C356 O357 1.203 . S
C356 O363 1.267 . S
O357 C356 1.203 . S
O358 C351 1.185 . S
O358 Zn354 2.086 . S
C359 O355 1.278 1_556 S
C359 O360 1.211 1_556 S
O360 C359 1.211 1_554 S
C361 O353 1.284 . S
C361 O362 1.273 . S
O362 C361 1.273 . S
O363 Zn354 1.977 . S
O363 C356 1.267 . S
C364 O365 1.160 . S
C364 O371 1.185 . S
O365 C364 1.160 . S
O366 Zn367 1.899 . S
O366 C374 1.284 . S
Zn367 O366 1.899 . S
Zn367 O368 2.032 . S
Zn367 O371 2.086 . S
Zn367 O376 1.977 . S
O368 Zn367 2.032 . S
O368 C372 1.276 1_554 S
C369 O370 1.203 . S
C369 O376 1.267 . S
O370 C369 1.203 . S
O371 C364 1.185 . S
O371 Zn367 2.086 . S
C372 O368 1.276 1_556 S
C372 O373 1.202 1_556 S
O373 C372 1.202 1_554 S
C374 O366 1.284 . S
C374 O375 1.273 . S
O375 C374 1.273 . S
O376 Zn367 1.977 . S
O376 C369 1.267 . S
C377 O378 1.160 . S
C377 O384 1.185 . S
O378 C377 1.160 . S
O379 Zn380 1.899 . S
O379 C387 1.284 . S
Zn380 O379 1.899 . S
Zn380 O381 2.032 . S
Zn380 O384 2.086 . S
Zn380 O389 1.977 . S
O381 Zn380 2.032 . S
O381 C385 1.278 1_554 S
C382 O383 1.203 . S
C382 O389 1.267 . S
O383 C382 1.203 . S
O384 C377 1.185 . S
O384 Zn380 2.086 . S
C385 O381 1.278 1_556 S
C385 O386 1.211 1_556 S
O386 C385 1.211 1_554 S
C387 O379 1.284 . S
C387 O388 1.273 . S
O388 C387 1.273 . S
O389 Zn380 1.977 . S
O389 C382 1.267 . S
C390 O391 1.160 . S
C390 O397 1.185 . S
O391 C390 1.160 . S
O392 Zn393 1.899 . S
O392 C400 1.284 . S
Zn393 O392 1.899 . S
Zn393 O394 2.032 . S
Zn393 O397 2.086 . S
Zn393 O402 1.977 . S
O394 Zn393 2.032 . S
O394 C398 1.278 . S
C395 O396 1.203 . S
C395 O402 1.267 . S
O396 C395 1.203 . S
O397 C390 1.185 . S
O397 Zn393 2.086 . S
C398 O394 1.278 . S
C398 O399 1.211 . S
O399 C398 1.211 . S
C400 O392 1.284 . S
C400 O401 1.273 . S
O401 C400 1.273 . S
O402 Zn393 1.977 . S
O402 C395 1.267 . S
C403 O404 1.160 . S
C403 O410 1.185 . S
O404 C403 1.160 . S
O405 Zn406 1.899 . S
O405 C413 1.284 . S
Zn406 O405 1.899 . S
Zn406 O407 2.032 . S
Zn406 O410 2.086 . S
Zn406 O415 1.977 . S
O407 Zn406 2.032 . S
O407 C411 1.278 . S
C408 O409 1.203 . S
C408 O415 1.267 . S
O409 C408 1.203 . S
O410 C403 1.185 . S
O410 Zn406 2.086 . S
C411 O407 1.278 . S
C411 O412 1.211 . S
O412 C411 1.211 . S
C413 O405 1.284 . S
C413 O414 1.273 . S
O414 C413 1.273 . S
O415 Zn406 1.977 . S
O415 C408 1.267 . S
C416 O417 1.160 . S
C416 O423 1.185 . S
O417 C416 1.160 . S
O418 Zn419 1.899 . S
O418 C426 1.284 . S
Zn419 O418 1.899 . S
Zn419 O420 2.032 . S
Zn419 O423 2.086 . S
Zn419 O428 1.977 . S
O420 Zn419 2.032 . S
O420 C424 1.278 . S
C421 O422 1.203 . S
C421 O428 1.267 . S
O422 C421 1.203 . S
O423 C416 1.185 . S
O423 Zn419 2.086 . S
C424 O420 1.278 . S
C424 O425 1.211 . S
O425 C424 1.211 . S
C426 O418 1.284 . S
C426 O427 1.273 . S
O427 C426 1.273 . S
O428 Zn419 1.977 . S
O428 C421 1.267 . S
C429 O430 1.160 . S
C429 O436 1.185 . S
O430 C429 1.160 . S
O431 Zn432 1.899 . S
O431 C439 1.284 . S
Zn432 O431 1.899 . S
Zn432 O433 2.032 . S
Zn432 O436 2.086 . S
Zn432 O441 1.977 . S
O433 Zn432 2.032 . S
O433 C437 1.278 . S
C434 O435 1.203 . S
C434 O441 1.267 . S
O435 C434 1.203 . S
O436 C429 1.185 . S
O436 Zn432 2.086 . S
C437 O433 1.278 . S
C437 O438 1.211 . S
O438 C437 1.211 . S
C439 O431 1.284 . S
C439 O440 1.273 . S
O440 C439 1.273 . S
O441 Zn432 1.977 . S
O441 C434 1.267 . S
C442 O443 1.160 . S
C442 O449 1.185 . S
O443 C442 1.160 . S
O444 Zn445 1.899 . S
O444 C452 1.284 . S
Zn445 O444 1.899 . S
Zn445 O446 2.032 . S
Zn445 O449 2.086 . S
Zn445 O454 1.977 . S
O446 Zn445 2.032 . S
O446 C450 1.278 . S
C447 O448 1.203 . S
C447 O454 1.267 . S
O448 C447 1.203 . S
O449 C442 1.185 . S
O449 Zn445 2.086 . S
C450 O446 1.278 . S
C450 O451 1.211 . S
O451 C450 1.211 . S
C452 O444 1.284 . S
C452 O453 1.273 . S
O453 C452 1.273 . S
O454 Zn445 1.977 . S
O454 C447 1.267 . S
C455 O456 1.160 . S
C455 O462 1.185 . S
O456 C455 1.160 . S
O457 Zn458 1.899 . S
O457 C465 1.284 . S
Zn458 O457 1.899 . S
Zn458 O459 2.032 . S
Zn458 O462 2.086 . S
Zn458 O467 1.977 . S
O459 Zn458 2.032 . S
O459 C463 1.278 . S
C460 O461 1.203 . S
C460 O467 1.267 . S
O461 C460 1.203 . S
O462 C455 1.185 . S
O462 Zn458 2.086 . S
C463 O459 1.278 . S
C463 O464 1.211 . S
O464 C463 1.211 . S
C465 O457 1.284 . S
C465 O466 1.273 . S
O466 C465 1.273 . S
O467 Zn458 1.977 . S
O467 C460 1.267 . S
C468 C469 1.387 . S
C468 H472 0.950 . S
C468 C477 1.390 1_565 S
C469 C468 1.387 . S
C469 C471 1.387 . S
H470 C477 0.950 . S
C471 C469 1.387 . S
C471 C473 1.390 1_565 S
C471 H475 0.950 . S
H472 C468 0.950 . S
C473 C471 1.390 1_545 S
C473 C474 1.387 . S
C473 H476 0.950 . S
C474 C473 1.387 . S
C474 C477 1.387 . S
H475 C471 0.950 . S
H476 C473 0.950 . S
C477 C468 1.390 1_545 S
C477 H470 0.950 . S
C477 C474 1.387 . S
C478 C479 1.387 . S
C478 H482 0.950 . S
C478 C487 1.390 1_655 S
C479 C478 1.387 . S
C479 C481 1.387 . S
H480 C487 0.950 . S
C481 C479 1.387 . S
C481 C483 1.390 1_655 S
C481 H485 0.950 . S
H482 C478 0.950 . S
C483 C481 1.390 1_455 S
C483 C484 1.387 . S
C483 H486 0.950 . S
C484 C483 1.387 . S
C484 C487 1.387 . S
H485 C481 0.950 . S
H486 C483 0.950 . S
C487 C478 1.390 1_455 S
C487 H480 0.950 . S
C487 C484 1.387 . S
C488 C489 1.387 . S
C488 H492 0.950 . S
C488 C497 1.390 . S
C489 C488 1.387 . S
C489 C491 1.387 . S
H490 C497 0.950 . S
C491 C489 1.387 . S
C491 C493 1.390 . S
C491 H495 0.950 . S
H492 C488 0.950 . S
C493 C491 1.390 . S
C493 C494 1.387 . S
C493 H496 0.950 . S
C494 C493 1.387 . S
C494 C497 1.387 . S
H495 C491 0.950 . S
H496 C493 0.950 . S
C497 C488 1.390 . S
C497 H490 0.950 . S
C497 C494 1.387 . S
C498 C499 1.387 . S
C498 H502 0.950 . S
C498 C507 1.390 1_565 S
C499 C498 1.387 . S
C499 C501 1.387 . S
H500 C507 0.950 . S
C501 C499 1.387 . S
C501 C503 1.390 1_565 S
C501 H505 0.950 . S
H502 C498 0.950 . S
C503 C501 1.390 1_545 S
C503 C504 1.387 . S
C503 H506 0.950 . S
C504 C503 1.387 . S
C504 C507 1.387 . S
H505 C501 0.950 . S
H506 C503 0.950 . S
C507 C498 1.390 1_545 S
C507 H500 0.950 . S
C507 C504 1.387 . S
C508 C509 1.387 . S
C508 H512 0.950 . S
C508 C517 1.390 1_455 S
C509 C508 1.387 . S
C509 C511 1.387 . S
H510 C517 0.950 . S
C511 C509 1.387 . S
C511 C513 1.390 1_455 S
C511 H515 0.950 . S
H512 C508 0.950 . S
C513 C511 1.390 1_655 S
C513 C514 1.387 . S
C513 H516 0.950 . S
C514 C513 1.387 . S
C514 C517 1.387 . S
H515 C511 0.950 . S
H516 C513 0.950 . S
C517 C508 1.390 1_655 S
C517 H510 0.950 . S
C517 C514 1.387 . S
C518 C519 1.387 . S
C518 H522 0.950 . S
C518 C527 1.390 . S
C519 C518 1.387 . S
C519 C521 1.387 . S
H520 C527 0.950 . S
C521 C519 1.387 . S
C521 C523 1.390 . S
C521 H525 0.950 . S
H522 C518 0.950 . S
C523 C521 1.390 . S
C523 C524 1.387 . S
C523 H526 0.950 . S
C524 C523 1.387 . S
C524 C527 1.387 . S
H525 C521 0.950 . S
H526 C523 0.950 . S
C527 C518 1.390 . S
C527 H520 0.950 . S
C527 C524 1.387 . S
C528 C529 1.387 . S
C528 H532 0.950 . S
C528 C537 1.390 . S
C529 C528 1.387 . S
C529 C531 1.387 . S
H530 C537 0.950 . S
C531 C529 1.387 . S
C531 C533 1.390 . S
C531 H535 0.950 . S
H532 C528 0.950 . S
C533 C531 1.390 . S
C533 C534 1.387 . S
C533 H536 0.950 . S
C534 C533 1.387 . S
C534 C537 1.387 . S
H535 C531 0.950 . S
H536 C533 0.950 . S
C537 C528 1.390 . S
C537 H530 0.950 . S
C537 C534 1.387 . S
C538 C539 1.387 . S
C538 H542 0.950 . S
C538 C547 1.390 . S
C539 C538 1.387 . S
C539 C541 1.387 . S
H540 C547 0.950 . S
C541 C539 1.387 . S
C541 C543 1.390 . S
C541 H545 0.950 . S
H542 C538 0.950 . S
C543 C541 1.390 . S
C543 C544 1.387 . S
C543 H546 0.950 . S
C544 C543 1.387 . S
C544 C547 1.387 . S
H545 C541 0.950 . S
H546 C543 0.950 . S
C547 C538 1.390 . S
C547 H540 0.950 . S
C547 C544 1.387 . S
C548 C549 1.387 . S
C548 H552 0.950 . S
C548 C557 1.390 . S
C549 C548 1.387 . S
C549 C551 1.387 . S
H550 C557 0.950 . S
C551 C549 1.387 . S
C551 C553 1.390 . S
C551 H555 0.950 . S
H552 C548 0.950 . S
C553 C551 1.390 . S
C553 C554 1.387 . S
C553 H556 0.950 . S
C554 C553 1.387 . S
C554 C557 1.387 . S
H555 C551 0.950 . S
H556 C553 0.950 . S
C557 C548 1.390 . S
C557 H550 0.950 . S
C557 C554 1.387 . S
C558 C559 1.387 . S
C558 H562 0.950 . S
C558 C567 1.390 . S
C559 C558 1.387 . S
C559 C561 1.387 . S
H560 C567 0.950 . S
C561 C559 1.387 . S
C561 C563 1.390 . S
C561 H565 0.950 . S
H562 C558 0.950 . S
C563 C561 1.390 . S
C563 C564 1.387 . S
C563 H566 0.950 . S
C564 C563 1.387 . S
C564 C567 1.387 . S
H565 C561 0.950 . S
H566 C563 0.950 . S
C567 C558 1.390 . S
C567 H560 0.950 . S
C567 C564 1.387 . S
C568 C569 1.387 . S
C568 H572 0.950 . S
C568 C577 1.390 . S
C569 C568 1.387 . S
C569 C571 1.387 . S
H570 C577 0.950 . S
C571 C569 1.387 . S
C571 C573 1.390 . S
C571 H575 0.950 . S
H572 C568 0.950 . S
C573 C571 1.390 . S
C573 C574 1.387 . S
C573 H576 0.950 1_554 S
C574 C573 1.387 . S
C574 C577 1.387 . S
H575 C571 0.950 . S
H576 C573 0.950 1_556 S
C577 C568 1.390 . S
C577 H570 0.950 . S
C577 C574 1.387 . S
C578 C579 1.387 . S
C578 H582 0.950 . S
C578 C587 1.390 . S
C579 C578 1.387 . S
C579 C581 1.387 . S
H580 C587 0.950 1_556 S
C581 C579 1.387 . S
C581 C583 1.390 . S
C581 H585 0.950 . S
H582 C578 0.950 . S
C583 C581 1.390 . S
C583 C584 1.387 . S
C583 H586 0.950 . S
C584 C583 1.387 . S
C584 C587 1.387 . S
H585 C581 0.950 . S
H586 C583 0.950 . S
C587 C578 1.390 . S
C587 H580 0.950 1_554 S
C587 C584 1.387 . S
C588 C589 1.387 . S
C588 H592 0.950 . S
C588 C597 1.390 . S
C589 C588 1.387 . S
C589 C591 1.387 . S
H590 C597 0.950 . S
C591 C589 1.387 . S
C591 C593 1.390 . S
C591 H595 0.950 . S
H592 C588 0.950 . S
C593 C591 1.390 . S
C593 C594 1.387 . S
C593 H596 0.950 . S
C594 C593 1.387 . S
C594 C597 1.387 . S
H595 C591 0.950 . S
H596 C593 0.950 . S
C597 C588 1.390 . S
C597 H590 0.950 . S
C597 C594 1.387 . S
C598 C599 1.387 . S
C598 H602 0.950 1_556 S
C598 C607 1.390 . S
C599 C598 1.387 . S
C599 C601 1.387 . S
H600 C607 0.950 . S
C601 C599 1.387 . S
C601 C603 1.390 . S
C601 H605 0.950 . S
H602 C598 0.950 1_554 S
C603 C601 1.390 . S
C603 C604 1.387 . S
C603 H606 0.950 . S
C604 C603 1.387 . S
C604 C607 1.387 . S
H605 C601 0.950 . S
H606 C603 0.950 . S
C607 C598 1.390 . S
C607 H600 0.950 . S
C607 C604 1.387 . S
C608 C609 1.387 . S
C608 H612 0.950 . S
C608 C617 1.390 . S
C609 C608 1.387 . S
C609 C611 1.387 . S
H610 C617 0.950 1_554 S
C611 C609 1.387 . S
C611 C613 1.390 . S
C611 H615 0.950 . S
H612 C608 0.950 . S
C613 C611 1.390 . S
C613 C614 1.387 . S
C613 H616 0.950 . S
C614 C613 1.387 . S
C614 C617 1.387 . S
H615 C611 0.950 . S
H616 C613 0.950 . S
C617 C608 1.390 . S
C617 H610 0.950 1_556 S
C617 C614 1.387 . S
C618 C619 1.387 . S
C618 H622 0.950 . S
C618 C627 1.390 . S
C619 C618 1.387 . S
C619 C621 1.387 . S
H620 C627 0.950 . S
C621 C619 1.387 . S
C621 C623 1.390 . S
C621 H625 0.950 . S
H622 C618 0.950 . S
C623 C621 1.390 . S
C623 C624 1.387 . S
C623 H626 0.950 . S
C624 C623 1.387 . S
C624 C627 1.387 . S
H625 C621 0.950 . S
H626 C623 0.950 . S
C627 C618 1.390 . S
C627 H620 0.950 . S
C627 C624 1.387 . S
C628 C629 1.387 . S
C628 H632 0.950 . S
C628 C637 1.390 . S
C629 C628 1.387 . S
C629 C631 1.387 . S
H630 C637 0.950 . S
C631 C629 1.387 . S
C631 C633 1.390 . S
C631 H635 0.950 . S
H632 C628 0.950 . S
C633 C631 1.390 . S
C633 C634 1.387 . S
C633 H636 0.950 . S
C634 C633 1.387 . S
C634 C637 1.387 . S
H635 C631 0.950 . S
H636 C633 0.950 . S
C637 C628 1.390 . S
C637 H630 0.950 . S
C637 C634 1.387 . S
C638 C639 1.387 . S
C638 H642 0.950 . S
C638 C647 1.390 . S
C639 C638 1.387 . S
C639 C641 1.387 . S
H640 C647 0.950 . S
C641 C639 1.387 . S
C641 C643 1.390 . S
C641 H645 0.950 . S
H642 C638 0.950 . S
C643 C641 1.390 . S
C643 C644 1.387 . S
C643 H646 0.950 . S
C644 C643 1.387 . S
C644 C647 1.387 . S
H645 C641 0.950 . S
H646 C643 0.950 . S
C647 C638 1.390 . S
C647 H640 0.950 . S
C647 C644 1.387 . S
C648 C649 1.387 . S
C648 H652 0.950 . S
C648 C657 1.390 . S
C649 C648 1.387 . S
C649 C651 1.387 . S
H650 C657 0.950 . S
C651 C649 1.387 . S
C651 C653 1.390 . S
C651 H655 0.950 . S
H652 C648 0.950 . S
C653 C651 1.390 . S
C653 C654 1.387 . S
C653 H656 0.950 . S
C654 C653 1.387 . S
C654 C657 1.387 . S
H655 C651 0.950 . S
H656 C653 0.950 . S
C657 C648 1.390 . S
C657 H650 0.950 . S
C657 C654 1.387 . S
C658 C659 1.387 . S
C658 H662 0.950 . S
C658 C667 1.390 . S
C659 C658 1.387 . S
C659 C661 1.387 . S
H660 C667 0.950 . S
C661 C659 1.387 . S
C661 C663 1.390 . S
C661 H665 0.950 . S
H662 C658 0.950 . S
C663 C661 1.390 . S
C663 C664 1.387 . S
C663 H666 0.950 . S
C664 C663 1.387 . S
C664 C667 1.387 . S
H665 C661 0.950 . S
H666 C663 0.950 . S
C667 C658 1.390 . S
C667 H660 0.950 . S
C667 C664 1.387 . S
C668 C669 1.387 . S
C668 H672 0.950 . S
C668 C677 1.390 . S
C669 C668 1.387 . S
C669 C671 1.387 . S
H670 C677 0.950 . S
C671 C669 1.387 . S
C671 C673 1.390 . S
C671 H675 0.950 . S
H672 C668 0.950 . S
C673 C671 1.390 . S
C673 C674 1.387 . S
C673 H676 0.950 . S
C674 C673 1.387 . S
C674 C677 1.387 . S
H675 C671 0.950 . S
H676 C673 0.950 . S
C677 C668 1.390 . S
C677 H670 0.950 . S
C677 C674 1.387 . S
C678 C679 1.387 . S
C678 H682 0.950 . S
C678 C687 1.390 . S
C679 C678 1.387 . S
C679 C681 1.387 . S
H680 C687 0.950 . S
C681 C679 1.387 . S
C681 C683 1.390 . S
C681 H685 0.950 . S
H682 C678 0.950 . S
C683 C681 1.390 . S
C683 C684 1.387 . S
C683 H686 0.950 . S
C684 C683 1.387 . S
C684 C687 1.387 . S
H685 C681 0.950 . S
H686 C683 0.950 . S
C687 C678 1.390 . S
C687 H680 0.950 . S
C687 C684 1.387 . S
C688 C689 1.387 . S
C688 H692 0.950 . S
C688 C697 1.390 . S
C689 C688 1.387 . S
C689 C691 1.387 . S
H690 C697 0.950 . S
C691 C689 1.387 . S
C691 C693 1.390 . S
C691 H695 0.950 . S
H692 C688 0.950 . S
C693 C691 1.390 . S
C693 C694 1.387 . S
C693 H696 0.950 . S
C694 C693 1.387 . S
C694 C697 1.387 . S
H695 C691 0.950 . S
H696 C693 0.950 . S
C697 C688 1.390 . S
C697 H690 0.950 . S
C697 C694 1.387 . S
C698 C699 1.387 . S
C698 H702 0.950 . S
C698 C707 1.390 . S
C699 C698 1.387 . S
C699 C701 1.387 . S
H700 C707 0.950 . S
C701 C699 1.387 . S
C701 C703 1.390 . S
C701 H705 0.950 . S
H702 C698 0.950 . S
C703 C701 1.390 . S
C703 C704 1.387 . S
C703 H706 0.950 . S
C704 C703 1.387 . S
C704 C707 1.387 . S
H705 C701 0.950 . S
H706 C703 0.950 . S
C707 C698 1.390 . S
C707 H700 0.950 . S
C707 C704 1.387 . S
C708 C709 1.387 . S
C708 H712 0.950 . S
C708 C717 1.390 . S
C709 C708 1.387 . S
C709 C711 1.387 . S
H710 C717 0.950 . S
C711 C709 1.387 . S
C711 C713 1.390 . S
C711 H715 0.950 . S
H712 C708 0.950 . S
C713 C711 1.390 . S
C713 C714 1.387 . S
C713 H716 0.950 . S
C714 C713 1.387 . S
C714 C717 1.387 . S
H715 C711 0.950 . S
H716 C713 0.950 . S
C717 C708 1.390 . S
C717 H710 0.950 . S
C717 C714 1.387 . S
C718 C719 1.387 . S
C718 H722 0.950 . S
C718 C727 1.390 . S
C719 C718 1.387 . S
C719 C721 1.387 . S
H720 C727 0.950 . S
C721 C719 1.387 . S
C721 C723 1.390 . S
C721 H725 0.950 . S
H722 C718 0.950 . S
C723 C721 1.390 . S
C723 C724 1.387 . S
C723 H726 0.950 . S
C724 C723 1.387 . S
C724 C727 1.387 . S
H725 C721 0.950 . S
H726 C723 0.950 . S
C727 C718 1.390 . S
C727 H720 0.950 . S
C727 C724 1.387 . S
C728 C729 1.387 . S
C728 H732 0.950 . S
C728 C737 1.390 . S
C729 C728 1.387 . S
C729 C731 1.387 . S
H730 C737 0.950 . S
C731 C729 1.387 . S
C731 C733 1.390 . S
C731 H735 0.950 . S
H732 C728 0.950 . S
C733 C731 1.390 . S
C733 C734 1.387 . S
C733 H736 0.950 . S
C734 C733 1.387 . S
C734 C737 1.387 . S
H735 C731 0.950 . S
H736 C733 0.950 . S
C737 C728 1.390 . S
C737 H730 0.950 . S
C737 C734 1.387 . S
C738 C739 1.387 . S
C738 H742 0.950 . S
C738 C747 1.390 . S
C739 C738 1.387 . S
C739 C741 1.387 . S
H740 C747 0.950 . S
C741 C739 1.387 . S
C741 C743 1.390 . S
C741 H745 0.950 . S
H742 C738 0.950 . S
C743 C741 1.390 . S
C743 C744 1.387 . S
C743 H746 0.950 . S
C744 C743 1.387 . S
C744 C747 1.387 . S
H745 C741 0.950 . S
H746 C743 0.950 . S
C747 C738 1.390 . S
C747 H740 0.950 . S
C747 C744 1.387 . S
C748 C749 1.387 . S
C748 H752 0.950 . S
C748 C757 1.390 . S
C749 C748 1.387 . S
C749 C751 1.387 . S
H750 C757 0.950 . S
C751 C749 1.387 . S
C751 C753 1.390 . S
C751 H755 0.950 . S
H752 C748 0.950 . S
C753 C751 1.390 . S
C753 C754 1.387 . S
C753 H756 0.950 . S
C754 C753 1.387 . S
C754 C757 1.387 . S
H755 C751 0.950 . S
H756 C753 0.950 . S
C757 C748 1.390 . S
C757 H750 0.950 . S
C757 C754 1.387 . S
C758 C759 1.387 . S
C758 H762 0.950 . S
C758 C767 1.390 . S
C759 C758 1.387 . S
C759 C761 1.387 . S
H760 C767 0.950 . S
C761 C759 1.387 . S
C761 C763 1.390 . S
C761 H765 0.950 . S
H762 C758 0.950 . S
C763 C761 1.390 . S
C763 C764 1.387 . S
C763 H766 0.950 . S
C764 C763 1.387 . S
C764 C767 1.387 . S
H765 C761 0.950 . S
H766 C763 0.950 . S
C767 C758 1.390 . S
C767 H760 0.950 . S
C767 C764 1.387 . S
C768 C769 1.387 . S
C768 H772 0.950 . S
C768 C777 1.390 . S
C769 C768 1.387 . S
C769 C771 1.387 . S
H770 C777 0.950 . S
C771 C769 1.387 . S
C771 C773 1.390 . S
C771 H775 0.950 . S
H772 C768 0.950 . S
C773 C771 1.390 . S
C773 C774 1.387 . S
C773 H776 0.950 . S
C774 C773 1.387 . S
C774 C777 1.387 . S
H775 C771 0.950 . S
H776 C773 0.950 . S
C777 C768 1.390 . S
C777 H770 0.950 . S
C777 C774 1.387 . S
C778 C779 1.387 . S
C778 H782 0.950 . S
C778 C787 1.390 . S
C779 C778 1.387 . S
C779 C781 1.387 . S
H780 C787 0.950 . S
C781 C779 1.387 . S
C781 C783 1.390 . S
C781 H785 0.950 . S
H782 C778 0.950 . S
C783 C781 1.390 . S
C783 C784 1.387 . S
C783 H786 0.950 . S
C784 C783 1.387 . S
C784 C787 1.387 . S
H785 C781 0.950 . S
H786 C783 0.950 . S
C787 C778 1.390 . S
C787 H780 0.950 . S
C787 C784 1.387 . S
C788 C789 1.387 . S
C788 H792 0.950 1_554 S
C788 C797 1.390 . S
C789 C788 1.387 . S
C789 C791 1.387 . S
H790 C797 0.950 . S
C791 C789 1.387 . S
C791 C793 1.390 . S
C791 H795 0.950 . S
H792 C788 0.950 1_556 S
C793 C791 1.390 . S
C793 C794 1.387 . S
C793 H796 0.950 . S
C794 C793 1.387 . S
C794 C797 1.387 . S
H795 C791 0.950 . S
H796 C793 0.950 . S
C797 C788 1.390 . S
C797 H790 0.950 . S
C797 C794 1.387 . S
C798 C799 1.388 . S
C798 H802 0.950 . S
C798 C807 1.390 1_556 S
C799 C798 1.388 . S
C799 C801 1.383 1_556 S
H800 C807 0.950 . S
C801 C799 1.383 1_554 S
C801 C803 1.390 . S
C801 H805 0.950 . S
H802 C798 0.950 . S
C803 C801 1.390 . S
C803 C804 1.387 . S
C803 H806 0.950 . S
C804 C803 1.387 . S
C804 C807 1.387 . S
H805 C801 0.950 . S
H806 C803 0.950 . S
C807 C798 1.390 1_554 S
C807 H800 0.950 . S
C807 C804 1.387 . S
C808 C809 1.387 . S
C808 H812 0.950 . S
C808 C817 1.390 . S
C809 C808 1.387 . S
C809 C811 1.388 1_554 S
H810 C817 0.950 . S
C811 C809 1.388 1_556 S
C811 C813 1.390 1_556 S
C811 H815 0.950 . S
H812 C808 0.950 . S
C813 C811 1.390 1_554 S
C813 C814 1.387 . S
C813 H816 0.950 . S
C814 C813 1.387 . S
C814 C817 1.387 . S
H815 C811 0.950 . S
H816 C813 0.950 . S
C817 C808 1.390 . S
C817 H810 0.950 . S
C817 C814 1.387 . S
C818 C819 1.387 . S
C818 H822 0.950 . S
C818 C827 1.390 1_556 S
C819 C818 1.387 . S
C819 C821 1.388 1_556 S
H820 C827 0.950 . S
C821 C819 1.388 1_554 S
C821 C823 1.390 . S
C821 H825 0.950 . S
H822 C818 0.950 . S
C823 C821 1.390 . S
C823 C824 1.387 . S
C823 H826 0.950 . S
C824 C823 1.387 . S
C824 C827 1.387 . S
H825 C821 0.950 . S
H826 C823 0.950 . S
C827 C818 1.390 1_554 S
C827 H820 0.950 . S
C827 C824 1.387 . S
C828 C829 1.387 . S
C828 H832 0.950 . S
C828 C837 1.390 . S
C829 C828 1.387 . S
C829 C831 1.387 . S
H830 C837 0.950 . S
C831 C829 1.387 . S
C831 C833 1.390 . S
C831 H835 0.950 . S
H832 C828 0.950 . S
C833 C831 1.390 . S
C833 C834 1.387 . S
C833 H836 0.950 . S
C834 C833 1.387 . S
C834 C837 1.387 . S
H835 C831 0.950 . S
H836 C833 0.950 . S
C837 C828 1.390 . S
C837 H830 0.950 . S
C837 C834 1.387 . S
C838 C839 1.387 . S
C838 H842 0.950 . S
C838 C847 1.390 . S
C839 C838 1.387 . S
C839 C841 1.387 . S
H840 C847 0.950 . S
C841 C839 1.387 . S
C841 C843 1.390 . S
C841 H845 0.950 . S
H842 C838 0.950 . S
C843 C841 1.390 . S
C843 C844 1.387 . S
C843 H846 0.950 . S
C844 C843 1.387 . S
C844 C847 1.387 . S
H845 C841 0.950 . S
H846 C843 0.950 . S
C847 C838 1.390 . S
C847 H840 0.950 . S
C847 C844 1.387 . S
C848 C849 1.387 . S
C848 H852 0.950 . S
C848 C857 1.390 . S
C849 C848 1.387 . S
C849 C851 1.387 . S
H850 C857 0.950 . S
C851 C849 1.387 . S
C851 C853 1.390 . S
C851 H855 0.950 . S
H852 C848 0.950 . S
C853 C851 1.390 . S
C853 C854 1.387 . S
C853 H856 0.950 . S
C854 C853 1.387 . S
C854 C857 1.387 . S
H855 C851 0.950 . S
H856 C853 0.950 . S
C857 C848 1.390 . S
C857 H850 0.950 . S
C857 C854 1.387 . S
C858 C859 1.387 . S
C858 H862 0.950 . S
C858 C867 1.390 . S
C859 C858 1.387 . S
C859 C861 1.387 . S
H860 C867 0.950 . S
C861 C859 1.387 . S
C861 C863 1.390 . S
C861 H865 0.950 . S
H862 C858 0.950 . S
C863 C861 1.390 . S
C863 C864 1.387 . S
C863 H866 0.950 . S
C864 C863 1.387 . S
C864 C867 1.387 . S
H865 C861 0.950 . S
H866 C863 0.950 . S
C867 C858 1.390 . S
C867 H860 0.950 . S
C867 C864 1.387 . S
C868 C869 1.387 . S
C868 H872 0.950 . S
C868 C877 1.390 . S
C869 C868 1.387 . S
C869 C871 1.387 . S
H870 C877 0.950 . S
C871 C869 1.387 . S
C871 C873 1.390 . S
C871 H875 0.950 . S
H872 C868 0.950 . S
C873 C871 1.390 . S
C873 C874 1.387 . S
C873 H876 0.950 . S
C874 C873 1.387 . S
C874 C877 1.387 . S
H875 C871 0.950 . S
H876 C873 0.950 . S
C877 C868 1.390 . S
C877 H870 0.950 . S
C877 C874 1.387 . S
C878 C879 1.387 . S
C878 H882 0.950 . S
C878 C887 1.390 . S
C879 C878 1.387 . S
C879 C881 1.387 . S
H880 C887 0.950 . S
C881 C879 1.387 . S
C881 C883 1.390 . S
C881 H885 0.950 . S
H882 C878 0.950 . S
C883 C881 1.390 . S
C883 C884 1.387 . S
C883 H886 0.950 . S
C884 C883 1.387 . S
C884 C887 1.387 . S
H885 C881 0.950 . S
H886 C883 0.950 . S
C887 C878 1.390 . S
C887 H880 0.950 . S
C887 C884 1.387 . S
C888 C889 1.387 . S
C888 H892 0.950 . S
C888 C897 1.390 . S
C889 C888 1.387 . S
C889 C891 1.387 . S
H890 C897 0.950 . S
C891 C889 1.387 . S
C891 C893 1.390 . S
C891 H895 0.950 . S
H892 C888 0.950 . S
C893 C891 1.390 . S
C893 C894 1.387 . S
C893 H896 0.950 . S
C894 C893 1.387 . S
C894 C897 1.387 . S
H895 C891 0.950 . S
H896 C893 0.950 . S
C897 C888 1.390 . S
C897 H890 0.950 . S
C897 C894 1.387 . S
C898 C899 1.387 . S
C898 H902 0.950 . S
C898 C907 1.390 . S
C899 C898 1.387 . S
C899 C901 1.387 . S
H900 C907 0.950 . S
C901 C899 1.387 . S
C901 C903 1.390 . S
C901 H905 0.950 . S
H902 C898 0.950 . S
C903 C901 1.390 . S
C903 C904 1.387 . S
C903 H906 0.950 . S
C904 C903 1.387 . S
C904 C907 1.387 . S
H905 C901 0.950 . S
H906 C903 0.950 . S
C907 C898 1.390 . S
C907 H900 0.950 . S
C907 C904 1.387 . S
C908 C909 1.387 . S
C908 H912 0.950 . S
C908 C917 1.390 . S
C909 C908 1.387 . S
C909 C911 1.387 . S
H910 C917 0.950 . S
C911 C909 1.387 . S
C911 C913 1.390 . S
C911 H915 0.950 . S
H912 C908 0.950 . S
C913 C911 1.390 . S
C913 C914 1.387 . S
C913 H916 0.950 . S
C914 C913 1.387 . S
C914 C917 1.387 . S
H915 C911 0.950 . S
H916 C913 0.950 . S
C917 C908 1.390 . S
C917 H910 0.950 . S
C917 C914 1.387 . S
C918 C919 1.387 . S
C918 H922 0.950 . S
C918 C927 1.390 . S
C919 C918 1.387 . S
C919 C921 1.387 . S
H920 C927 0.950 . S
C921 C919 1.387 . S
C921 C923 1.390 . S
C921 H925 0.950 . S
H922 C918 0.950 . S
C923 C921 1.390 . S
C923 C924 1.387 . S
C923 H926 0.950 . S
C924 C923 1.387 . S
C924 C927 1.387 . S
H925 C921 0.950 . S
H926 C923 0.950 . S
C927 C918 1.390 . S
C927 H920 0.950 . S
C927 C924 1.387 . S
C928 C929 1.387 . S
C928 H932 0.950 . S
C928 C937 1.390 . S
C929 C928 1.387 . S
C929 C931 1.387 . S
H930 C937 0.950 . S
C931 C929 1.387 . S
C931 C933 1.390 . S
C931 H935 0.950 . S
H932 C928 0.950 . S
C933 C931 1.390 . S
C933 C934 1.387 . S
C933 H936 0.950 . S
C934 C933 1.387 . S
C934 C937 1.387 . S
H935 C931 0.950 . S
H936 C933 0.950 . S
C937 C928 1.390 . S
C937 H930 0.950 . S
C937 C934 1.387 . S
C938 C939 1.387 . S
C938 H942 0.950 . S
C938 C947 1.390 . S
C939 C938 1.387 . S
C939 C941 1.387 . S
H940 C947 0.950 . S
C941 C939 1.387 . S
C941 C943 1.390 . S
C941 H945 0.950 . S
H942 C938 0.950 . S
C943 C941 1.390 . S
C943 C944 1.387 . S
C943 H946 0.950 . S
C944 C943 1.387 . S
C944 C947 1.387 . S
H945 C941 0.950 . S
H946 C943 0.950 . S
C947 C938 1.390 . S
C947 H940 0.950 . S
C947 C944 1.387 . S
C948 C949 1.387 . S
C948 H952 0.950 . S
C948 C957 1.390 . S
C949 C948 1.387 . S
C949 C951 1.387 . S
H950 C957 0.950 1_554 S
C951 C949 1.387 . S
C951 C953 1.390 . S
C951 H955 0.950 . S
H952 C948 0.950 . S
C953 C951 1.390 . S
C953 C954 1.387 . S
C953 H956 0.950 . S
C954 C953 1.387 . S
C954 C957 1.387 . S
H955 C951 0.950 . S
H956 C953 0.950 . S
C957 C948 1.390 . S
C957 H950 0.950 1_556 S
C957 C954 1.387 . S
C958 C959 1.387 . S
C958 H962 0.950 . S
C958 C967 1.390 . S
C959 C958 1.387 . S
C959 C961 1.387 . S
H960 C967 0.950 . S
C961 C959 1.387 . S
C961 C963 1.390 . S
C961 H965 0.950 . S
H962 C958 0.950 . S
C963 C961 1.390 . S
C963 C964 1.387 . S
C963 H966 0.950 . S
C964 C963 1.387 . S
C964 C967 1.387 . S
H965 C961 0.950 . S
H966 C963 0.950 . S
C967 C958 1.390 . S
C967 H960 0.950 . S
C967 C964 1.387 . S
C968 C969 1.387 . S
C968 H972 0.950 . S
C968 C977 1.390 . S
C969 C968 1.387 . S
C969 C971 1.387 . S
H970 C977 0.950 . S
C971 C969 1.387 . S
C971 C973 1.390 . S
C971 H975 0.950 . S
H972 C968 0.950 . S
C973 C971 1.390 . S
C973 C974 1.387 . S
C973 H976 0.950 1_556 S
C974 C973 1.387 . S
C974 C977 1.387 . S
H975 C971 0.950 . S
H976 C973 0.950 1_554 S
C977 C968 1.390 . S
C977 H970 0.950 . S
C977 C974 1.387 . S
C978 C979 1.387 . S
C978 H982 0.950 . S
C978 C987 1.390 . S
C979 C978 1.387 . S
C979 C981 1.387 . S
H980 C987 0.950 . S
C981 C979 1.387 . S
C981 C983 1.390 . S
C981 H985 0.950 . S
H982 C978 0.950 . S
C983 C981 1.390 . S
C983 C984 1.387 1_556 S
C983 H986 0.950 1_556 S
C984 C983 1.387 1_554 S
C984 C987 1.384 1_554 S
H985 C981 0.950 . S
H986 C983 0.950 1_554 S
C987 C978 1.390 . S
C987 H980 0.950 . S
C987 C984 1.384 1_556 S
C988 C989 1.387 . S
C988 H992 0.950 1_556 S
C988 C997 1.390 1_556 S
C989 C988 1.387 . S
C989 C991 1.387 . S
H990 C997 0.950 . S
C991 C989 1.387 . S
C991 C993 1.390 . S
C991 H995 0.950 . S
H992 C988 0.950 1_554 S
C993 C991 1.390 . S
C993 C994 1.384 1_556 S
C993 H996 0.950 . S
C994 C993 1.384 1_554 S
C994 C997 1.389 . S
H995 C991 0.950 . S
H996 C993 0.950 . S
C997 C988 1.390 1_554 S
C997 H990 0.950 . S
C997 C994 1.389 . S
C998 C999 1.387 . S
C998 H1002 0.950 . S
C998 C1007 1.390 . S
C999 C998 1.387 . S
C999 C1001 1.387 . S
H1000 C1007 0.950 . S
C1001 C999 1.387 . S
C1001 C1003 1.397 . S
C1001 H1005 0.950 . S
H1002 C998 0.950 . S
C1003 C1001 1.397 . S
C1003 C1004 1.387 1_556 S
C1003 H1006 0.943 1_556 S
C1004 C1003 1.387 1_554 S
C1004 C1007 1.384 1_554 S
H1005 C1001 0.950 . S
H1006 C1003 0.943 1_554 S
C1007 C998 1.390 . S
C1007 H1000 0.950 . S
C1007 C1004 1.384 1_556 S
C1008 C1009 1.387 . S
C1008 H1012 0.950 . S
C1008 C1017 1.390 . S
C1009 C1008 1.387 . S
C1009 C1011 1.387 . S
H1010 C1017 0.950 1_554 S
C1011 C1009 1.387 . S
C1011 C1013 1.390 . S
C1011 H1015 0.950 . S
H1012 C1008 0.950 . S
C1013 C1011 1.390 . S
C1013 C1014 1.387 . S
C1013 H1016 0.950 . S
C1014 C1013 1.387 . S
C1014 C1017 1.387 . S
H1015 C1011 0.950 . S
H1016 C1013 0.950 . S
C1017 C1008 1.390 . S
C1017 H1010 0.950 1_556 S
C1017 C1014 1.387 . S
C1018 C1019 1.387 . S
C1018 H1022 0.950 . S
C1018 C1027 1.390 . S
C1019 C1018 1.387 . S
C1019 C1021 1.387 . S
H1020 C1027 0.950 . S
C1021 C1019 1.387 . S
C1021 C1023 1.390 . S
C1021 H1025 0.950 1_556 S
H1022 C1018 0.950 . S
C1023 C1021 1.390 . S
C1023 C1024 1.387 . S
C1023 H1026 0.950 . S
C1024 C1023 1.387 . S
C1024 C1027 1.387 . S
H1025 C1021 0.950 1_554 S
H1026 C1023 0.950 . S
C1027 C1018 1.390 . S
C1027 H1020 0.950 . S
C1027 C1024 1.387 . S
C1028 C1029 1.387 . S
C1028 H1032 0.950 . S
C1028 C1037 1.390 . S
C1029 C1028 1.387 . S
C1029 C1031 1.387 . S
H1030 C1037 0.950 . S
C1031 C1029 1.387 . S
C1031 C1033 1.390 . S
C1031 H1035 0.950 . S
H1032 C1028 0.950 . S
C1033 C1031 1.390 . S
C1033 C1034 1.387 . S
C1033 H1036 0.950 . S
C1034 C1033 1.387 . S
C1034 C1037 1.387 . S
H1035 C1031 0.950 . S
H1036 C1033 0.950 . S
C1037 C1028 1.390 . S
C1037 H1030 0.950 . S
C1037 C1034 1.387 . S
C1038 C1039 1.387 . S
C1038 H1042 0.950 . S
C1038 C1047 1.390 . S
C1039 C1038 1.387 . S
C1039 C1041 1.387 . S
H1040 C1047 0.950 . S
C1041 C1039 1.387 . S
C1041 C1043 1.390 . S
C1041 H1045 0.950 . S
H1042 C1038 0.950 . S
C1043 C1041 1.390 . S
C1043 C1044 1.387 . S
C1043 H1046 0.950 . S
C1044 C1043 1.387 . S
C1044 C1047 1.387 . S
H1045 C1041 0.950 . S
H1046 C1043 0.950 . S
C1047 C1038 1.390 . S
C1047 H1040 0.950 . S
C1047 C1044 1.387 . S
C1048 C1049 1.387 . S
C1048 H1052 0.950 . S
C1048 C1057 1.390 . S
C1049 C1048 1.387 . S
C1049 C1051 1.387 . S
H1050 C1057 0.950 . S
C1051 C1049 1.387 . S
C1051 C1053 1.390 . S
C1051 H1055 0.950 . S
H1052 C1048 0.950 . S
C1053 C1051 1.390 . S
C1053 C1054 1.387 . S
C1053 H1056 0.950 . S
C1054 C1053 1.387 . S
C1054 C1057 1.387 . S
H1055 C1051 0.950 . S
H1056 C1053 0.950 . S
C1057 C1048 1.390 . S
C1057 H1050 0.950 . S
C1057 C1054 1.387 . S
C1058 C1059 1.387 . S
C1058 H1062 0.950 . S
C1058 C1067 1.390 . S
C1059 C1058 1.387 . S
C1059 C1061 1.387 . S
H1060 C1067 0.950 . S
C1061 C1059 1.387 . S
C1061 C1063 1.390 . S
C1061 H1065 0.950 . S
H1062 C1058 0.950 . S
C1063 C1061 1.390 . S
C1063 C1064 1.387 . S
C1063 H1066 0.950 . S
C1064 C1063 1.387 . S
C1064 C1067 1.387 . S
H1065 C1061 0.950 . S
H1066 C1063 0.950 . S
C1067 C1058 1.390 . S
C1067 H1060 0.950 . S
C1067 C1064 1.387 . S
C1068 C1069 1.387 . S
C1068 H1072 0.950 . S
C1068 C1077 1.390 . S
C1069 C1068 1.387 . S
C1069 C1071 1.387 1_554 S
H1070 C1077 0.950 . S
C1071 C1069 1.387 1_556 S
C1071 C1073 1.390 1_556 S
C1071 H1075 0.950 . S
H1072 C1068 0.950 . S
C1073 C1071 1.390 1_554 S
C1073 C1074 1.387 . S
C1073 H1076 0.950 . S
C1074 C1073 1.387 . S
C1074 C1077 1.387 . S
H1075 C1071 0.950 . S
H1076 C1073 0.950 . S
C1077 C1068 1.390 . S
C1077 H1070 0.950 . S
C1077 C1074 1.387 . S
C1078 C1079 1.387 . S
C1078 H1082 0.950 . S
C1078 C1087 1.390 . S
C1079 C1078 1.387 . S
C1079 C1081 1.387 . S
H1080 C1087 0.950 1_556 S
C1081 C1079 1.387 . S
C1081 C1083 1.390 . S
C1081 H1085 0.950 . S
H1082 C1078 0.950 . S
C1083 C1081 1.390 . S
C1083 C1084 1.387 . S
C1083 H1086 0.950 . S
C1084 C1083 1.387 . S
C1084 C1087 1.387 . S
H1085 C1081 0.950 . S
H1086 C1083 0.950 . S
C1087 C1078 1.390 . S
C1087 H1080 0.950 1_554 S
C1087 C1084 1.387 . S
C1088 C1089 1.387 . S
C1088 H1092 0.950 . S
C1088 C1097 1.390 . S
C1089 C1088 1.387 . S
C1089 C1091 1.387 . S
H1090 C1097 0.950 . S
C1091 C1089 1.387 . S
C1091 C1093 1.390 . S
C1091 H1095 0.950 . S
H1092 C1088 0.950 . S
C1093 C1091 1.390 . S
C1093 C1094 1.387 . S
C1093 H1096 0.950 . S
C1094 C1093 1.387 . S
C1094 C1097 1.387 . S
H1095 C1091 0.950 . S
H1096 C1093 0.950 . S
C1097 C1088 1.390 . S
C1097 H1090 0.950 . S
C1097 C1094 1.387 . S
C1098 C1099 1.387 . S
C1098 H1102 0.950 . S
C1098 C1107 1.390 . S
C1099 C1098 1.387 . S
C1099 C1101 1.387 . S
H1100 C1107 0.950 . S
C1101 C1099 1.387 . S
C1101 C1103 1.390 . S
C1101 H1105 0.950 . S
H1102 C1098 0.950 . S
C1103 C1101 1.390 . S
C1103 C1104 1.387 . S
C1103 H1106 0.950 . S
C1104 C1103 1.387 . S
C1104 C1107 1.387 . S
H1105 C1101 0.950 . S
H1106 C1103 0.950 . S
C1107 C1098 1.390 . S
C1107 H1100 0.950 . S
C1107 C1104 1.387 . S
C1108 C1109 1.387 . S
C1108 H1112 0.950 . S
C1108 C1117 1.390 . S
C1109 C1108 1.387 . S
C1109 C1111 1.387 . S
H1110 C1117 0.950 . S
C1111 C1109 1.387 . S
C1111 C1113 1.390 . S
C1111 H1115 0.950 . S
H1112 C1108 0.950 . S
C1113 C1111 1.390 . S
C1113 C1114 1.387 . S
C1113 H1116 0.950 . S
C1114 C1113 1.387 . S
C1114 C1117 1.387 . S
H1115 C1111 0.950 . S
H1116 C1113 0.950 . S
C1117 C1108 1.390 . S
C1117 H1110 0.950 . S
C1117 C1114 1.387 . S
C1118 C1119 1.387 . S
C1118 H1122 0.950 . S
C1118 C1127 1.390 . S
C1119 C1118 1.387 . S
C1119 C1121 1.387 . S
H1120 C1127 0.950 . S
C1121 C1119 1.387 . S
C1121 C1123 1.390 . S
C1121 H1125 0.950 . S
H1122 C1118 0.950 . S
C1123 C1121 1.390 . S
C1123 C1124 1.387 . S
C1123 H1126 0.950 . S
C1124 C1123 1.387 . S
C1124 C1127 1.387 . S
H1125 C1121 0.950 . S
H1126 C1123 0.950 . S
C1127 C1118 1.390 . S
C1127 H1120 0.950 . S
C1127 C1124 1.387 . S
C1128 C1129 1.387 . S
C1128 H1132 0.950 . S
C1128 C1137 1.390 1_655 S
C1129 C1128 1.387 . S
C1129 C1131 1.387 . S
H1130 C1137 0.950 . S
C1131 C1129 1.387 . S
C1131 C1133 1.390 1_655 S
C1131 H1135 0.950 . S
H1132 C1128 0.950 . S
C1133 C1131 1.390 1_455 S
C1133 C1134 1.387 . S
C1133 H1136 0.950 . S
C1134 C1133 1.387 . S
C1134 C1137 1.387 . S
H1135 C1131 0.950 . S
H1136 C1133 0.950 . S
C1137 C1128 1.390 1_455 S
C1137 H1130 0.950 . S
C1137 C1134 1.387 . S
C1138 C1139 1.387 . S
C1138 H1142 0.950 . S
C1138 C1147 1.390 . S
C1139 C1138 1.387 . S
C1139 C1141 1.387 . S
H1140 C1147 0.950 . S
C1141 C1139 1.387 . S
C1141 C1143 1.390 . S
C1141 H1145 0.950 . S
H1142 C1138 0.950 . S
C1143 C1141 1.390 . S
C1143 C1144 1.387 . S
C1143 H1146 0.950 . S
C1144 C1143 1.387 . S
C1144 C1147 1.387 . S
H1145 C1141 0.950 . S
H1146 C1143 0.950 . S
C1147 C1138 1.390 . S
C1147 H1140 0.950 . S
C1147 C1144 1.387 . S
C1148 C1149 1.387 . S
C1148 H1152 0.950 . S
C1148 C1157 1.390 1_565 S
C1149 C1148 1.387 . S
C1149 C1151 1.387 . S
H1150 C1157 0.950 . S
C1151 C1149 1.387 . S
C1151 C1153 1.390 1_565 S
C1151 H1155 0.950 . S
H1152 C1148 0.950 . S
C1153 C1151 1.390 1_545 S
C1153 C1154 1.387 . S
C1153 H1156 0.950 . S
C1154 C1153 1.387 . S
C1154 C1157 1.387 . S
H1155 C1151 0.950 . S
H1156 C1153 0.950 . S
C1157 C1148 1.390 1_545 S
C1157 H1150 0.950 . S
C1157 C1154 1.387 . S
C1158 C1159 1.387 . S
C1158 H1162 0.950 . S
C1158 C1167 1.390 1_545 S
C1159 C1158 1.387 . S
C1159 C1161 1.387 . S
H1160 C1167 0.950 . S
C1161 C1159 1.387 . S
C1161 C1163 1.390 1_545 S
C1161 H1165 0.950 . S
H1162 C1158 0.950 . S
C1163 C1161 1.390 1_565 S
C1163 C1164 1.387 . S
C1163 H1166 0.950 . S
C1164 C1163 1.387 . S
C1164 C1167 1.387 . S
H1165 C1161 0.950 . S
H1166 C1163 0.950 . S
C1167 C1158 1.390 1_565 S
C1167 H1160 0.950 . S
C1167 C1164 1.387 . S
C1168 C1169 1.387 . S
C1168 H1172 0.950 . S
C1168 C1177 1.390 1_455 S
C1169 C1168 1.387 . S
C1169 C1171 1.387 . S
H1170 C1177 0.950 . S
C1171 C1169 1.387 . S
C1171 C1173 1.390 1_455 S
C1171 H1175 0.950 . S
H1172 C1168 0.950 . S
C1173 C1171 1.390 1_655 S
C1173 C1174 1.387 . S
C1173 H1176 0.950 . S
C1174 C1173 1.387 . S
C1174 C1177 1.387 . S
H1175 C1171 0.950 . S
H1176 C1173 0.950 . S
C1177 C1168 1.390 1_655 S
C1177 H1170 0.950 . S
C1177 C1174 1.387 . S
C1178 C1179 1.387 . S
C1178 H1182 0.950 . S
C1178 C1187 1.390 . S
C1179 C1178 1.387 . S
C1179 C1181 1.387 . S
H1180 C1187 0.950 . S
C1181 C1179 1.387 . S
C1181 C1183 1.390 . S
C1181 H1185 0.950 . S
H1182 C1178 0.950 . S
C1183 C1181 1.390 . S
C1183 C1184 1.387 . S
C1183 H1186 0.950 . S
C1184 C1183 1.387 . S
C1184 C1187 1.387 . S
H1185 C1181 0.950 . S
H1186 C1183 0.950 . S
C1187 C1178 1.390 . S
C1187 H1180 0.950 . S
C1187 C1184 1.387 . S
C469 C65 1.476 . S
C474 C0 1.476 . S
C479 C13 1.475 . S
C484 C39 1.476 . S
C489 C52 1.474 . S
C494 C26 1.473 . S
C499 C78 1.473 . S
C504 C143 1.473 . S
C509 C91 1.476 . S
C514 C117 1.476 . S
C519 C130 1.473 . S
C524 C104 1.473 . S
C529 C221 1.473 . S
C534 C156 1.473 . S
C539 C169 1.472 . S
C544 C195 1.474 . S
C549 C208 1.475 . S
C554 C182 1.477 . S
C559 C234 1.476 . S
C564 C299 1.476 1_554 S
C569 C247 1.472 . S
C574 C273 1.473 1_554 S
C579 C260 1.476 . S
C584 C286 1.474 1_554 S
C589 C312 1.476 . S
C594 C377 1.476 1_556 S
C599 C351 1.473 1_556 S
C604 C325 1.472 . S
C609 C338 1.475 . S
C614 C364 1.476 1_556 S
C619 C390 1.473 . S
C624 C455 1.473 . S
C629 C403 1.472 . S
C634 C429 1.475 . S
C639 C416 1.476 . S
C644 C442 1.474 . S
C649 C138 1.210 . S
C654 C5 1.111 . S
C659 C151 1.208 . S
C664 C18 1.105 . S
C669 C125 1.207 . S
C674 C31 1.106 . S
C679 C112 1.207 . S
C684 C44 1.106 . S
C689 C57 1.112 . S
C694 C86 1.210 . S
C699 C70 1.110 . S
C704 C99 1.212 . S
C709 C83 1.105 . S
C714 C60 1.206 . S
C719 C96 1.105 . S
C724 C73 1.207 . S
C729 C109 1.109 . S
C734 C47 1.208 . S
C739 C34 1.207 . S
C744 C122 1.108 . S
C749 C8 1.210 . S
C754 C135 1.112 . S
C759 C148 1.112 . S
C764 C21 1.211 . S
C769 C161 1.109 . S
C774 C294 1.222 . S
C779 C174 1.111 . S
C784 C307 1.212 . S
C789 C281 1.210 . S
C794 C187 1.107 . S
C799 C200 1.113 . S
C804 C268 1.207 . S
C809 C213 1.108 1_554 S
C814 C242 1.211 . S
C819 C226 1.111 . S
C824 C255 1.211 . S
C829 C239 1.106 . S
C834 C216 1.207 . S
C839 C229 1.207 . S
C844 C252 1.105 . S
C849 C203 1.209 . S
C854 C265 1.110 . S
C859 C278 1.109 . S
C864 C190 1.211 . S
C869 C164 1.211 . S
C874 C291 1.112 . S
C879 C177 1.207 . S
C884 C304 1.105 . S
C889 C450 1.207 . S
C894 C317 1.105 . S
C899 C330 1.105 . S
C904 C463 1.207 . S
C909 C343 1.110 . S
C914 C437 1.212 . S
C919 C424 1.210 . S
C924 C356 1.107 . S
C929 C398 1.208 . S
C934 C369 1.105 . S
C939 C411 1.208 . S
C944 C382 1.108 . S
C949 C395 1.109 . S
C954 C372 1.218 . S
C959 C385 1.211 . S
C964 C408 1.112 . S
C969 C421 1.108 . S
C974 C359 1.210 . S
C979 C346 1.207 . S
C984 C434 1.113 . S
C989 C320 1.208 . S
C994 C447 1.108 . S
C999 C333 1.207 . S
C1004 C460 1.113 . S
C1009 C218 1.465 . S
C1014 C10 1.464 1_556 S
C1019 C23 1.465 1_556 S
C1024 C231 1.465 . S
C1029 C205 1.465 . S
C1034 C36 1.465 1_556 S
C1039 C348 1.465 . S
C1044 C49 1.465 . S
C1049 C62 1.466 . S
C1054 C322 1.464 . S
C1059 C75 1.466 . S
C1064 C335 1.465 . S
C1069 C88 1.464 1_554 S
C1074 C452 1.466 . S
C1079 C465 1.464 . S
C1084 C101 1.466 1_554 S
C1089 C439 1.465 . S
C1094 C114 1.465 1_554 S
C1099 C270 1.465 . S
C1104 C127 1.465 . S
C1109 C140 1.464 . S
C1114 C244 1.466 . S
C1119 C153 1.465 . S
C1124 C257 1.466 . S
C1129 C166 1.466 . S
C1134 C374 1.464 . S
C1139 C387 1.465 . S
C1144 C179 1.465 . S
C1149 C361 1.465 . S
C1154 C192 1.465 . S
C1159 C283 1.465 . S
C1164 C426 1.465 . S
C1169 C400 1.466 . S
C1174 C296 1.465 . S
C1179 C413 1.466 . S
C1184 C309 1.464 . S
