# Generated by pormake.
# Topology vmf, (6)-cn, num edge types: 1
# Building blocks:
#     Node 0, Type 0, BuildingBlock: OJICUG_clean_sbu_0, # of connection points: 6
#     Node 1, Type 0, BuildingBlock: OJICUG_clean_sbu_0, # of connection points: 6
#     Node 2, Type 0, BuildingBlock: OJICUG_clean_sbu_0, # of connection points: 6
#     Node 3, Type 0, BuildingBlock: OJICUG_clean_sbu_0, # of connection points: 6
#     Node 4, Type 0, BuildingBlock: OJICUG_clean_sbu_0, # of connection points: 6
#     Node 5, Type 0, BuildingBlock: OJICUG_clean_sbu_0, # of connection points: 6
#     Node 6, Type 0, BuildingBlock: OJICUG_clean_sbu_0, # of connection points: 6
#     Node 7, Type 0, BuildingBlock: OJICUG_clean_sbu_0, # of connection points: 6
#     Edge 8, Type (0, 0), BuildingBlock: TEMPAE_clean_linker_10, # of connection points: 2
#     Edge 9, Type (0, 0), BuildingBlock: TEMPAE_clean_linker_10, # of connection points: 2
#     Edge 10, Type (0, 0), BuildingBlock: TEMPAE_clean_linker_10, # of connection points: 2
#     Edge 11, Type (0, 0), BuildingBlock: TEMPAE_clean_linker_10, # of connection points: 2
#     Edge 12, Type (0, 0), BuildingBlock: TEMPAE_clean_linker_10, # of connection points: 2
#     Edge 13, Type (0, 0), BuildingBlock: TEMPAE_clean_linker_10, # of connection points: 2
#     Edge 14, Type (0, 0), BuildingBlock: TEMPAE_clean_linker_10, # of connection points: 2
#     Edge 15, Type (0, 0), BuildingBlock: TEMPAE_clean_linker_10, # of connection points: 2
#     Edge 16, Type (0, 0), BuildingBlock: TEMPAE_clean_linker_10, # of connection points: 2
#     Edge 17, Type (0, 0), BuildingBlock: TEMPAE_clean_linker_10, # of connection points: 2
#     Edge 18, Type (0, 0), BuildingBlock: TEMPAE_clean_linker_10, # of connection points: 2
#     Edge 19, Type (0, 0), BuildingBlock: TEMPAE_clean_linker_10, # of connection points: 2
#     Edge 20, Type (0, 0), BuildingBlock: TEMPAE_clean_linker_10, # of connection points: 2
#     Edge 21, Type (0, 0), BuildingBlock: TEMPAE_clean_linker_10, # of connection points: 2
#     Edge 22, Type (0, 0), BuildingBlock: TEMPAE_clean_linker_10, # of connection points: 2
#     Edge 23, Type (0, 0), BuildingBlock: TEMPAE_clean_linker_10, # of connection points: 2
#     Edge 24, Type (0, 0), BuildingBlock: TEMPAE_clean_linker_10, # of connection points: 2
#     Edge 25, Type (0, 0), BuildingBlock: TEMPAE_clean_linker_10, # of connection points: 2
#     Edge 26, Type (0, 0), BuildingBlock: TEMPAE_clean_linker_10, # of connection points: 2
#     Edge 27, Type (0, 0), BuildingBlock: TEMPAE_clean_linker_10, # of connection points: 2
#     Edge 28, Type (0, 0), BuildingBlock: TEMPAE_clean_linker_10, # of connection points: 2
#     Edge 29, Type (0, 0), BuildingBlock: TEMPAE_clean_linker_10, # of connection points: 2
#     Edge 30, Type (0, 0), BuildingBlock: TEMPAE_clean_linker_10, # of connection points: 2
#     Edge 31, Type (0, 0), BuildingBlock: TEMPAE_clean_linker_10, # of connection points: 2
# Relax obj value: 0.306
# Max RMSD: 0.281
# Mean RMSD: 0.281
data_MOF--net-vmf--node1-OJICUG_clean_sbu_0--edge1-TEMPAE_clean_linker_10
_symmetry_space_group_name_H-M    P1
_symmetry_Int_Tables_number       1
_symmetry_cell_setting            triclinic
loop_
_symmetry_equiv_pos_as_xyz
'x, y, z'
_cell_length_a     29.533938
_cell_length_b     43.940586
_cell_length_c     29.020926
_cell_angle_alpha  90.069508
_cell_angle_beta   99.893658
_cell_angle_gamma 90.050421
loop_
_atom_site_label
_atom_site_type_symbol
_atom_site_fract_x
_atom_site_fract_y
_atom_site_fract_z
_atom_type_partial_charge
Sc0 Sc 0.19982 0.33836 0.1908 0.0
Sc1 Sc 0.19494 0.27188 0.25748 0.0
Sc2 Sc 0.10597 0.32645 0.24844 0.0
O3 O 0.16691 0.3122 0.23233 0.0
C4 C 0.16139 0.38903 0.25199 0.0
C5 C 0.28564 0.31284 0.26048 0.0
C6 C 0.161 0.30035 0.3457 0.0
C7 C 0.213 0.27083 0.15395 0.0
C8 C 0.09502 0.34374 0.13956 0.0
C9 C 0.08804 0.25518 0.24034 0.0
O10 O 0.19075 0.37951 0.22813 0.0
O11 O 0.26422 0.28947 0.2711 0.0
O12 O 0.12882 0.31666 0.32301 0.0
O13 O 0.21263 0.29964 0.14964 0.0
O14 O 0.07743 0.3362 0.17517 0.0
O15 O 0.1301 0.24743 0.24834 0.0
O16 O 0.13811 0.34623 0.14115 0.0
O17 O 0.20539 0.25692 0.19015 0.0
O18 O 0.07505 0.28266 0.23772 0.0
O19 O 0.26611 0.33361 0.23395 0.0
O20 O 0.12847 0.37275 0.26101 0.0
O21 O 0.1878 0.28394 0.32658 0.0
Sc22 Sc 0.8647 0.32636 0.71907 0.0
Sc23 Sc 0.79654 0.27425 0.76556 0.0
Sc24 Sc 0.79528 0.35118 0.79687 0.0
O25 O 0.8179 0.31718 0.75998 0.0
C26 C 0.90234 0.35798 0.81552 0.0
C27 C 0.89722 0.26016 0.75442 0.0
C28 C 0.80817 0.29825 0.87057 0.0
C29 C 0.79343 0.28435 0.65536 0.0
C30 C 0.80578 0.38814 0.7098 0.0
C31 C 0.70472 0.31094 0.76822 0.0
O32 O 0.91038 0.34039 0.78274 0.0
O33 O 0.86452 0.25531 0.77645 0.0
O34 O 0.80979 0.32627 0.86063 0.0
O35 O 0.81772 0.30879 0.65802 0.0
O36 O 0.77865 0.37909 0.73631 0.0
O37 O 0.72618 0.28798 0.75635 0.0
O38 O 0.84083 0.3728 0.70378 0.0
O39 O 0.78863 0.26862 0.69113 0.0
O40 O 0.72499 0.33511 0.78491 0.0
O41 O 0.89845 0.28291 0.7279 0.0
O42 O 0.86342 0.37074 0.81406 0.0
O43 O 0.80172 0.27724 0.83996 0.0
Sc44 Sc 0.86994 0.67483 0.71438 0.0
Sc45 Sc 0.79764 0.71939 0.76642 0.0
Sc46 Sc 0.80547 0.64152 0.7897 0.0
O47 O 0.82299 0.67856 0.75635 0.0
C48 C 0.82135 0.61011 0.70012 0.0
C49 C 0.79318 0.713 0.65499 0.0
C50 C 0.7105 0.67684 0.76367 0.0
C51 C 0.89314 0.7411 0.75287 0.0
C52 C 0.91269 0.64427 0.80861 0.0
C53 C 0.81385 0.69094 0.86909 0.0
O54 O 0.85637 0.6268 0.69937 0.0
O55 O 0.78895 0.72797 0.6919 0.0
O56 O 0.73328 0.65342 0.77961 0.0
O57 O 0.89304 0.72141 0.72098 0.0
O58 O 0.87712 0.62721 0.80431 0.0
O59 O 0.80449 0.71306 0.84079 0.0
O60 O 0.91784 0.6639 0.77744 0.0
O61 O 0.86432 0.74045 0.7804 0.0
O62 O 0.81705 0.66356 0.85617 0.0
O63 O 0.81859 0.68923 0.6557 0.0
O64 O 0.79162 0.61668 0.72517 0.0
O65 O 0.72901 0.70175 0.7546 0.0
Sc66 Sc 0.20709 0.66702 0.18603 0.0
Sc67 Sc 0.20274 0.73003 0.25664 0.0
Sc68 Sc 0.11414 0.67681 0.24382 0.0
O69 O 0.17436 0.69119 0.2288 0.0
C70 C 0.10543 0.66363 0.13253 0.0
C71 C 0.22542 0.73611 0.15915 0.0
C72 C 0.09562 0.74632 0.24045 0.0
C73 C 0.29116 0.6872 0.25622 0.0
C74 C 0.16402 0.61446 0.24095 0.0
C75 C 0.17049 0.70127 0.34247 0.0
O76 O 0.14792 0.66801 0.132 0.0
O77 O 0.20468 0.74851 0.18907 0.0
O78 O 0.08308 0.71989 0.22612 0.0
O79 O 0.26838 0.66453 0.23748 0.0
O80 O 0.14047 0.63201 0.26237 0.0
O81 O 0.20286 0.7127 0.32461 0.0
O82 O 0.18575 0.62369 0.20944 0.0
O83 O 0.27241 0.713 0.26026 0.0
O84 O 0.13356 0.69051 0.31808 0.0
O85 O 0.23298 0.70764 0.15765 0.0
O86 O 0.08871 0.66326 0.17052 0.0
O87 O 0.13715 0.75269 0.25778 0.0
Sc88 Sc 0.70295 0.83637 0.19079 0.0
Sc89 Sc 0.7022 0.76928 0.25634 0.0
Sc90 Sc 0.60765 0.81932 0.24404 0.0
O91 O 0.67088 0.80833 0.23035 0.0
C92 C 0.65787 0.88375 0.25268 0.0
C93 C 0.7895 0.81361 0.26129 0.0
C94 C 0.66259 0.79448 0.34252 0.0
C95 C 0.72296 0.76972 0.15414 0.0
C96 C 0.59911 0.83915 0.13628 0.0
C97 C 0.59703 0.74804 0.23506 0.0
O98 O 0.6877 0.87631 0.22796 0.0
O99 O 0.77002 0.78894 0.26965 0.0
O100 O 0.62765 0.80748 0.31831 0.0
O101 O 0.72165 0.79861 0.1507 0.0
O102 O 0.58089 0.83115 0.17122 0.0
O103 O 0.6395 0.74258 0.24827 0.0
O104 O 0.64227 0.84198 0.13887 0.0
O105 O 0.71384 0.75497 0.18903 0.0
O106 O 0.58106 0.77469 0.22798 0.0
O107 O 0.76835 0.83455 0.23637 0.0
O108 O 0.62657 0.86582 0.2612 0.0
O109 O 0.69401 0.78153 0.325 0.0
Sc110 Sc 0.36776 0.82838 0.71831 0.0
Sc111 Sc 0.30365 0.7754 0.76896 0.0
Sc112 Sc 0.29979 0.85285 0.7976 0.0
O113 O 0.32267 0.81872 0.76099 0.0
C114 C 0.40642 0.86082 0.81355 0.0
C115 C 0.40398 0.76284 0.75339 0.0
C116 C 0.32036 0.80079 0.87345 0.0
C117 C 0.2958 0.78498 0.65751 0.0
C118 C 0.30667 0.88932 0.70906 0.0
C119 C 0.21081 0.81078 0.77471 0.0
O120 O 0.41417 0.84349 0.78044 0.0
O121 O 0.37166 0.75701 0.77545 0.0
O122 O 0.317 0.82857 0.86156 0.0
O123 O 0.3203 0.8093 0.6591 0.0
O124 O 0.28072 0.88016 0.73668 0.0
O125 O 0.23311 0.78771 0.76474 0.0
O126 O 0.34174 0.87426 0.70231 0.0
O127 O 0.29105 0.76981 0.69396 0.0
O128 O 0.22998 0.836 0.78776 0.0
O129 O 0.40407 0.78595 0.72743 0.0
O130 O 0.36745 0.87338 0.81274 0.0
O131 O 0.31475 0.77894 0.84412 0.0
Sc132 Sc 0.36671 0.17609 0.71696 0.0
Sc133 Sc 0.29331 0.22014 0.76841 0.0
Sc134 Sc 0.29902 0.1418 0.78853 0.0
O135 O 0.31843 0.1793 0.75754 0.0
C136 C 0.3186 0.11134 0.69932 0.0
C137 C 0.29233 0.21589 0.6572 0.0
C138 C 0.20493 0.17788 0.76013 0.0
C139 C 0.38947 0.24184 0.75819 0.0
C140 C 0.40705 0.1439 0.81112 0.0
C141 C 0.30431 0.18997 0.86954 0.0
O142 O 0.35349 0.12831 0.69973 0.0
O143 O 0.28721 0.23004 0.69455 0.0
O144 O 0.22687 0.15388 0.77489 0.0
O145 O 0.39016 0.22248 0.72601 0.0
O146 O 0.37066 0.12755 0.80681 0.0
O147 O 0.29754 0.21271 0.84217 0.0
O148 O 0.41297 0.16379 0.78052 0.0
O149 O 0.36018 0.24076 0.78517 0.0
O150 O 0.30696 0.16278 0.85568 0.0
O151 O 0.31704 0.19179 0.65755 0.0
O152 O 0.28798 0.1175 0.72344 0.0
O153 O 0.22438 0.20301 0.75388 0.0
Sc154 Sc 0.7024 0.15958 0.19044 0.0
Sc155 Sc 0.69817 0.22362 0.25902 0.0
Sc156 Sc 0.60841 0.17128 0.24625 0.0
O157 O 0.66942 0.18468 0.23195 0.0
C158 C 0.60101 0.15702 0.13541 0.0
C159 C 0.72321 0.22804 0.16243 0.0
C160 C 0.59139 0.24093 0.24119 0.0
C161 C 0.78607 0.17995 0.26115 0.0
C162 C 0.65683 0.10823 0.24552 0.0
C163 C 0.66408 0.19642 0.34478 0.0
O164 O 0.64381 0.16052 0.13554 0.0
O165 O 0.7016 0.24103 0.19114 0.0
O166 O 0.57847 0.2145 0.22721 0.0
O167 O 0.76341 0.15722 0.24242 0.0
O168 O 0.63316 0.12627 0.266 0.0
O169 O 0.69696 0.20726 0.32712 0.0
O170 O 0.67973 0.1169 0.21465 0.0
O171 O 0.76753 0.20589 0.26443 0.0
O172 O 0.6272 0.18566 0.32029 0.0
O173 O 0.72966 0.19941 0.16162 0.0
O174 O 0.58364 0.15739 0.17302 0.0
O175 O 0.63295 0.24706 0.25869 0.0
C176 C 0.51359 0.26099 0.21084 0.0
C177 C 0.55475 0.26356 0.2428 0.0
C178 C 0.47381 0.27604 0.21839 0.0
C179 C 0.47523 0.29423 0.25896 0.0
C180 C 0.5177 0.29922 0.28907 0.0
C181 C 0.55717 0.28374 0.28062 0.0
C182 C 0.42941 0.27032 0.18492 0.0
C183 C 0.52091 0.31883 0.33221 0.0
C184 C 0.36223 0.33525 0.25312 0.0
C185 C 0.3366 0.31317 0.27252 0.0
C186 C 0.40931 0.33108 0.25276 0.0
C187 C 0.43107 0.30424 0.27213 0.0
C188 C 0.40674 0.28382 0.29669 0.0
C189 C 0.35981 0.28858 0.29672 0.0
C190 C 0.43444 0.3539 0.2276 0.0
C191 C 0.42891 0.25517 0.3187 0.0
H192 H 0.5118 0.24563 0.18128 0.0
H193 H 0.58889 0.28569 0.30557 0.0
H194 H 0.40577 0.25675 0.2027 0.0
H195 H 0.41202 0.29214 0.17393 0.0
H196 H 0.43497 0.25775 0.15312 0.0
H197 H 0.55664 0.32688 0.34437 0.0
H198 H 0.49781 0.33884 0.32577 0.0
H199 H 0.51023 0.3053 0.36077 0.0
H200 H 0.34497 0.35471 0.23509 0.0
H201 H 0.34068 0.2717 0.31271 0.0
H202 H 0.43626 0.34525 0.19202 0.0
H203 H 0.47018 0.35726 0.2462 0.0
H204 H 0.41663 0.37625 0.22401 0.0
H205 H 0.43387 0.23886 0.29075 0.0
H206 H 0.40758 0.24397 0.34182 0.0
H207 H 0.46323 0.26024 0.33945 0.0
C208 C 0.62799 0.33224 0.77856 0.0
C209 C 0.65443 0.30799 0.76609 0.0
C210 C 0.58101 0.32838 0.78013 0.0
C211 C 0.56041 0.29956 0.76955 0.0
C212 C 0.58681 0.27518 0.75642 0.0
C213 C 0.63323 0.27977 0.7545 0.0
C214 C 0.5536 0.35492 0.7936 0.0
C215 C 0.56621 0.24398 0.74492 0.0
C216 C 0.45541 0.26692 0.80843 0.0
C217 C 0.42617 0.26469 0.76523 0.0
C218 C 0.4982 0.28145 0.81184 0.0
C219 C 0.51113 0.29422 0.77116 0.0
C220 C 0.47905 0.29523 0.72896 0.0
C221 C 0.43708 0.27998 0.72632 0.0
C222 C 0.53148 0.27976 0.85744 0.0
C223 C 0.49104 0.3092 0.68509 0.0
H224 H 0.64406 0.35413 0.7876 0.0
H225 H 0.65317 0.26082 0.74489 0.0
H226 H 0.52257 0.35857 0.76667 0.0
H227 H 0.54161 0.34989 0.82697 0.0
H228 H 0.57399 0.37631 0.79791 0.0
H229 H 0.59185 0.22731 0.73647 0.0
H230 H 0.55148 0.2351 0.77495 0.0
H231 H 0.53783 0.24544 0.71453 0.0
H232 H 0.44686 0.25485 0.83838 0.0
H233 H 0.41404 0.27831 0.693 0.0
H234 H 0.55156 0.30111 0.86421 0.0
H235 H 0.55615 0.26095 0.8555 0.0
H236 H 0.51354 0.27528 0.88742 0.0
H237 H 0.51055 0.33069 0.69312 0.0
H238 H 0.45982 0.31394 0.65879 0.0
H239 H 0.51311 0.29322 0.66928 0.0
C240 C 0.48788 0.75687 0.77466 0.0
C241 C 0.44489 0.74344 0.76019 0.0
C242 C 0.52816 0.7398 0.77755 0.0
C243 C 0.52529 0.70876 0.76405 0.0
C244 C 0.48172 0.69479 0.75091 0.0
C245 C 0.44174 0.71234 0.74969 0.0
C246 C 0.57386 0.75542 0.79308 0.0
C247 C 0.47738 0.66194 0.73564 0.0
C248 C 0.63373 0.68936 0.71924 0.0
C249 C 0.66028 0.67673 0.75916 0.0
C250 C 0.58757 0.69681 0.71861 0.0
C251 C 0.56822 0.69239 0.75949 0.0
C252 C 0.59389 0.6773 0.79855 0.0
C253 C 0.63977 0.66931 0.79772 0.0
C254 C 0.56103 0.71212 0.67577 0.0
C255 C 0.57471 0.6725 0.84295 0.0
H256 H 0.48994 0.78094 0.78312 0.0
H257 H 0.40821 0.70215 0.73836 0.0
H258 H 0.59573 0.74179 0.82041 0.0
H259 H 0.59231 0.75743 0.76298 0.0
H260 H 0.56982 0.77859 0.8072 0.0
H261 H 0.44161 0.65339 0.73301 0.0
H262 H 0.48779 0.65966 0.70083 0.0
H263 H 0.50062 0.64729 0.76029 0.0
H264 H 0.64982 0.69495 0.68941 0.0
H265 H 0.66065 0.65977 0.82873 0.0
H266 H 0.55861 0.73687 0.68257 0.0
H267 H 0.52552 0.703 0.66758 0.0
H268 H 0.57791 0.70907 0.64468 0.0
H269 H 0.57585 0.69437 0.86231 0.0
H270 H 0.59488 0.65541 0.86609 0.0
H271 H 0.53831 0.66505 0.83516 0.0
C272 C 0.36496 0.65997 0.25114 0.0
C273 C 0.34209 0.68528 0.26592 0.0
C274 C 0.41231 0.66104 0.24988 0.0
C275 C 0.43706 0.68811 0.2633 0.0
C276 C 0.41508 0.71249 0.28267 0.0
C277 C 0.36798 0.71069 0.28394 0.0
C278 C 0.43462 0.63409 0.23062 0.0
C279 C 0.44018 0.74178 0.29786 0.0
C280 C 0.56359 0.70579 0.27505 0.0
C281 C 0.56304 0.72357 0.23488 0.0
C282 C 0.52356 0.69078 0.28294 0.0
C283 C 0.48267 0.69372 0.24973 0.0
C284 C 0.48409 0.70816 0.2064 0.0
C285 C 0.52421 0.72325 0.19971 0.0
C286 C 0.52391 0.67464 0.32881 0.0
C287 C 0.44181 0.71051 0.1691 0.0
H288 H 0.34552 0.63996 0.23777 0.0
H289 H 0.3509 0.73015 0.29627 0.0
H290 H 0.43203 0.63674 0.19225 0.0
H291 H 0.47154 0.63223 0.2462 0.0
H292 H 0.41698 0.61256 0.23703 0.0
H293 H 0.41957 0.7572 0.31647 0.0
H294 H 0.47322 0.73698 0.32121 0.0
H295 H 0.44815 0.75388 0.26665 0.0
H296 H 0.59368 0.70613 0.30237 0.0
H297 H 0.5241 0.73683 0.16849 0.0
H298 H 0.50128 0.65429 0.32415 0.0
H299 H 0.51079 0.69024 0.35357 0.0
H300 H 0.55922 0.66755 0.3448 0.0
H301 H 0.42734 0.68755 0.16011 0.0
H302 H 0.44926 0.72142 0.13672 0.0
H303 H 0.41507 0.72396 0.18252 0.0
C304 C 0.06128 0.78908 0.27997 0.0
C305 C 0.05868 0.76867 0.2424 0.0
C306 C 0.02179 0.8044 0.28871 0.0
C307 C 0.9791 0.79897 0.25921 0.0
C308 C 0.97745 0.78059 0.2188 0.0
C309 C 0.01728 0.76575 0.21091 0.0
C310 C 0.02527 0.82427 0.33159 0.0
C311 C 0.9328 0.77436 0.18597 0.0
C312 C 0.86483 0.79153 0.29848 0.0
C313 C 0.84033 0.81544 0.27372 0.0
C314 C 0.9119 0.78772 0.29832 0.0
C315 C 0.93504 0.80845 0.2731 0.0
C316 C 0.91198 0.83481 0.25347 0.0
C317 C 0.86474 0.83801 0.25391 0.0
C318 C 0.93546 0.75959 0.32068 0.0
C319 C 0.93591 0.85802 0.22781 0.0
H320 H 0.09322 0.79136 0.30451 0.0
H321 H 0.01535 0.75027 0.18148 0.0
H322 H 0.00114 0.84376 0.32554 0.0
H323 H 0.01628 0.81065 0.3609 0.0
H324 H 0.06076 0.8331 0.3425 0.0
H325 H 0.93815 0.76172 0.15415 0.0
H326 H 0.90977 0.76066 0.20429 0.0
H327 H 0.91484 0.79598 0.17494 0.0
H328 H 0.8466 0.77435 0.31491 0.0
H329 H 0.84643 0.85696 0.23545 0.0
H330 H 0.96968 0.76537 0.34103 0.0
H331 H 0.94082 0.74323 0.29294 0.0
H332 H 0.91487 0.74813 0.34426 0.0
H333 H 0.9717 0.86191 0.24593 0.0
H334 H 0.91731 0.88009 0.22444 0.0
H335 H 0.93748 0.84946 0.19214 0.0
C336 C 0.95512 0.76952 0.80432 0.0
C337 C 0.93061 0.76353 0.75952 0.0
C338 C -0.00193 0.78406 0.80995 0.0
C339 C 0.01609 0.79298 0.76979 0.0
C340 C 0.98875 0.79015 0.72491 0.0
C341 C 0.94646 0.7751 0.72028 0.0
C342 C 0.0262 0.7867 0.85838 0.0
C343 C 0.00633 0.79976 0.68125 0.0
C344 C 0.13235 0.83202 0.77851 0.0
C345 C 0.16078 0.80705 0.77354 0.0
C346 C 0.08505 0.82796 0.77829 0.0
C347 C 0.06615 0.79829 0.77328 0.0
C348 C 0.09485 0.77304 0.76901 0.0
C349 C 0.14159 0.77776 0.76896 0.0
C350 C 0.05527 0.85535 0.78261 0.0
C351 C 0.07616 0.74091 0.76393 0.0
H352 H 0.94276 0.76047 0.83465 0.0
H353 H 0.92705 0.77073 0.68566 0.0
H354 H 0.05303 0.76876 0.86316 0.0
H355 H 0.04395 0.80903 0.86314 0.0
H356 H 0.00473 0.78388 0.88599 0.0
H357 H 0.97809 0.80156 0.65069 0.0
H358 H 0.02436 0.82196 0.68649 0.0
H359 H 0.03137 0.78265 0.67295 0.0
H360 H 0.14692 0.85471 0.78221 0.0
H361 H 0.16321 0.75823 0.76565 0.0
H362 H 0.03468 0.85174 0.8107 0.0
H363 H 0.0307 0.85857 0.7495 0.0
H364 H 0.07582 0.87651 0.79025 0.0
H365 H 0.05829 0.73534 0.7935 0.0
H366 H 0.10354 0.72373 0.7629 0.0
H367 H 0.05063 0.73889 0.73122 0.0
C368 C 0.97935 0.25149 0.78404 0.0
C369 C 0.9372 0.24 0.76155 0.0
C370 C 0.01983 0.23485 0.78495 0.0
C371 C 0.01802 0.20636 0.76177 0.0
C372 C 0.97503 0.19397 0.74098 0.0
C373 C 0.93482 0.21101 0.7413 0.0
C374 C 0.06487 0.24868 0.80824 0.0
C375 C 0.97179 0.16383 0.71569 0.0
C376 C 0.12949 0.19544 0.71788 0.0
C377 C 0.15446 0.17807 0.75391 0.0
C378 C 0.08314 0.20221 0.71748 0.0
C379 C 0.06174 0.19193 0.75471 0.0
C380 C 0.08574 0.1722 0.78901 0.0
C381 C 0.13197 0.16526 0.78799 0.0
C382 C 0.05851 0.22276 0.67961 0.0
C383 C 0.06416 0.16083 0.82925 0.0
H384 H 0.98076 0.274 0.79957 0.0
H385 H 0.90196 0.20244 0.72356 0.0
H386 H 0.08449 0.23214 0.83276 0.0
H387 H 0.08615 0.25432 0.7814 0.0
H388 H 0.05986 0.26978 0.82783 0.0
H389 H 0.93598 0.15504 0.70863 0.0
H390 H 0.98383 0.16664 0.68177 0.0
H391 H 0.99422 0.14663 0.73619 0.0
H392 H 0.14693 0.2051 0.6913 0.0
H393 H 0.15145 0.15192 0.816 0.0
H394 H 0.05506 0.24581 0.69427 0.0
H395 H 0.0234 0.21411 0.66634 0.0
H396 H 0.07735 0.22486 0.64975 0.0
H397 H 0.06418 0.17944 0.85514 0.0
H398 H 0.08336 0.14123 0.84718 0.0
H399 H 0.02791 0.15395 0.81718 0.0
C400 C 0.05625 0.20813 0.27135 0.0
C401 C 0.05159 0.23209 0.239 0.0
C402 C 0.01752 0.19151 0.27921 0.0
C403 C 0.97358 0.19918 0.25401 0.0
C404 C 0.96967 0.22155 0.21844 0.0
C405 C 0.00871 0.23767 0.2114 0.0
C406 C 0.02326 0.16771 0.31715 0.0
C407 C 0.92363 0.23044 0.19051 0.0
C408 C 0.86019 0.15829 0.2454 0.0
C409 C 0.83687 0.17829 0.27096 0.0
C410 C 0.90697 0.16262 0.2435 0.0
C411 C 0.93074 0.18733 0.268 0.0
C412 C 0.9088 0.20501 0.29855 0.0
C413 C 0.862 0.2004 0.29943 0.0
C414 C 0.92931 0.14294 0.21117 0.0
C415 C 0.93323 0.23109 0.32632 0.0
H416 H 0.08937 0.20395 0.29304 0.0
H417 H 0.00518 0.25609 0.18617 0.0
H418 H 0.01541 0.17798 0.34982 0.0
H419 H -0.00069 0.14835 0.30766 0.0
H420 H 0.05904 0.15892 0.32445 0.0
H421 H 0.92721 0.24578 0.16096 0.0
H422 H 0.90413 0.2099 0.1765 0.0
H423 H 0.90304 0.24238 0.21356 0.0
H424 H 0.84112 0.14096 0.22351 0.0
H425 H 0.84435 0.21555 0.31996 0.0
H426 H 0.96563 0.13807 0.22646 0.0
H427 H 0.92909 0.15518 0.1777 0.0
H428 H 0.91065 0.12106 0.20334 0.0
H429 H 0.96834 0.22427 0.3431 0.0
H430 H 0.91422 0.23924 0.35384 0.0
H431 H 0.93661 0.25035 0.30243 0.0
C432 C 0.92791 0.38045 0.89546 0.0
C433 C 0.93592 0.36011 0.86027 0.0
C434 C 0.95348 0.379 0.94103 0.0
C435 C 0.98806 0.3566 0.95217 0.0
C436 C 0.99745 0.33665 0.91653 0.0
C437 C 0.9715 0.33873 0.87106 0.0
C438 C 0.94233 0.40081 0.97773 0.0
C439 C 0.0339 0.31237 0.92684 0.0
C440 C 0.08082 0.36739 0.05988 0.0
C441 C 0.0652 0.34874 0.09323 0.0
C442 C 0.05582 0.37045 0.01431 0.0
C443 C 0.01429 0.3541 0.00111 0.0
C444 C -0.00206 0.33549 0.03474 0.0
C445 C 0.02336 0.33323 0.08048 0.0
C446 C 0.0742 0.39096 0.98008 0.0
C447 C 0.95433 0.31718 0.02196 0.0
H448 H 0.90046 0.397 0.88786 0.0
H449 H 0.97778 0.32266 0.84455 0.0
H450 H 0.92887 0.38796 0.00539 0.0
H451 H 0.9739 0.41281 0.99473 0.0
H452 H 0.91635 0.41803 0.96294 0.0
H453 H 0.0371 0.29864 0.89542 0.0
H454 H 0.06768 0.32293 0.94045 0.0
H455 H 0.02558 0.29688 0.95438 0.0
H456 H 0.11301 0.37958 0.06937 0.0
H457 H 0.01132 0.31844 0.10571 0.0
H458 H 0.04812 0.40833 0.96634 0.0
H459 H 0.08126 0.37744 0.94979 0.0
H460 H 0.10633 0.40279 0.99614 0.0
H461 H 0.94377 0.30623 0.05294 0.0
H462 H 0.95953 0.29915 0.9966 0.0
H463 H 0.92594 0.33185 0.00463 0.0
C464 C 0.09435 0.64608 0.04934 0.0
C465 C 0.07526 0.6584 0.0864 0.0
C466 C 0.06826 0.64257 0.0044 0.0
C467 C 0.02179 0.65204 0.9956 0.0
C468 C 0.00192 0.66418 0.03292 0.0
C469 C 0.02877 0.66693 0.07801 0.0
C470 C 0.09073 0.62901 0.96612 0.0
C471 C 0.95266 0.67497 0.02492 0.0
C472 C 0.97133 0.67053 0.86851 0.0
C473 C 0.94469 0.64457 0.8544 0.0
C474 C 0.99591 0.67344 0.91439 0.0
C475 C 0.99461 0.64962 0.94706 0.0
C476 C 0.96881 0.62301 0.93269 0.0
C477 C 0.94393 0.62092 0.8868 0.0
C478 C 0.02249 0.70236 0.92816 0.0
C479 C 0.96711 0.59683 0.96598 0.0
H480 H 0.1301 0.63914 0.05546 0.0
H481 H 0.01382 0.67667 0.10628 0.0
H482 H 0.07058 0.60916 0.95021 0.0
H483 H 0.09127 0.646 0.93798 0.0
H484 H 0.12656 0.62152 0.97911 0.0
H485 H 0.942 0.68336 0.05757 0.0
H486 H 0.9481 0.69361 0.99878 0.0
H487 H 0.9293 0.65621 0.01042 0.0
H488 H 0.97154 0.68924 0.84422 0.0
H489 H 0.92323 0.60087 0.8765 0.0
H490 H 0.0594 0.69707 0.93975 0.0
H491 H 0.0099 0.71323 0.95809 0.0
H492 H 0.01936 0.71897 0.89895 0.0
H493 H 0.00241 0.58857 0.97933 0.0
H494 H 0.94622 0.57749 0.94923 0.0
H495 H 0.95231 0.60459 0.99661 0.0
C496 C 0.52639 0.83132 0.07731 0.0
C497 C 0.56979 0.84493 0.08988 0.0
C498 C 0.5007 0.83485 0.0319 0.0
C499 C 0.51834 0.85294 0.99852 0.0
C500 C 0.56147 0.86742 0.01155 0.0
C501 C 0.58671 0.86305 0.05671 0.0
C502 C 0.45495 0.81887 0.01944 0.0
C503 C 0.58122 0.8874 0.97759 0.0
C504 C 0.47414 0.83956 0.86842 0.0
C505 C 0.44012 0.86205 0.8582 0.0
C506 C 0.49991 0.83643 0.91373 0.0
C507 C 0.49209 0.85653 0.94982 0.0
C508 C 0.45924 0.88009 0.93926 0.0
C509 C 0.43357 0.88245 0.89381 0.0
C510 C 0.53423 0.81079 0.92342 0.0
C511 C 0.45018 0.90231 0.97633 0.0
H512 H 0.51309 0.81716 0.1025 0.0
H513 H 0.62 0.8739 0.06606 0.0
H514 H 0.42711 0.83595 0.01143 0.0
H515 H 0.45426 0.80476 0.98758 0.0
H516 H 0.44745 0.80405 0.04816 0.0
H517 H 0.61437 0.89799 0.99365 0.0
H518 H 0.58688 0.8738 0.94686 0.0
H519 H 0.55654 0.90574 0.9645 0.0
H520 H 0.47912 0.82334 0.84159 0.0
H521 H 0.40726 0.89981 0.88657 0.0
H522 H 0.5241 0.79527 0.95004 0.0
H523 H 0.56874 0.81995 0.93799 0.0
H524 H 0.53679 0.79736 0.8915 0.0
H525 H 0.43478 0.89013 0.00333 0.0
H526 H 0.42644 0.92083 0.96167 0.0
H527 H 0.48288 0.91263 0.99408 0.0
C528 C 0.52498 0.16176 0.08025 0.0
C529 C 0.57107 0.15232 0.08896 0.0
C530 C 0.49839 0.15966 0.03494 0.0
C531 C 0.51803 0.14726 0.99765 0.0
C532 C 0.56404 0.13685 0.00675 0.0
C533 C 0.58996 0.13974 0.05194 0.0
C534 C 0.44966 0.17145 0.0267 0.0
C535 C 0.58624 0.12297 0.96852 0.0
C536 C 0.43815 0.11883 0.88812 0.0
C537 C 0.43982 0.14281 0.85646 0.0
C538 C 0.46365 0.11983 0.93385 0.0
C539 C 0.49106 0.14566 0.94888 0.0
C540 C 0.49351 0.16972 0.91686 0.0
C541 C 0.46824 0.16791 0.87111 0.0
C542 C 0.4607 0.09339 0.96637 0.0
C543 C 0.52184 0.19785 0.9313 0.0
H544 H 0.51018 0.17173 0.10844 0.0
H545 H 0.62539 0.13213 0.05827 0.0
H546 H 0.44622 0.19026 0.00085 0.0
H547 H 0.42554 0.15321 0.01173 0.0
H548 H 0.4391 0.17995 0.05934 0.0
H549 H 0.62156 0.1146 0.98175 0.0
H550 H 0.56517 0.10368 0.95198 0.0
H551 H 0.58801 0.14009 0.94082 0.0
H552 H 0.41616 0.09941 0.87743 0.0
H553 H 0.46927 0.18686 0.84744 0.0
H554 H 0.44589 0.10112 0.99701 0.0
H555 H 0.49561 0.08449 0.97982 0.0
H556 H 0.43919 0.07452 0.94896 0.0
H557 H 0.50918 0.2092 0.96081 0.0
H558 H 0.52051 0.21441 0.90221 0.0
H559 H 0.55823 0.19153 0.94378 0.0
C560 C 0.16422 0.56112 0.21355 0.0
C561 C 0.16407 0.58158 0.25051 0.0
C562 C 0.16358 0.52972 0.22093 0.0
C563 C 0.16416 0.51849 0.26674 0.0
C564 C 0.16453 0.53904 0.30443 0.0
C565 C 0.16375 0.57051 0.29571 0.0
C566 C 0.16198 0.50857 0.17955 0.0
C567 C 0.1664 0.52779 0.35383 0.0
C568 C 0.122 0.43737 0.26581 0.0
C569 C 0.16301 0.42138 0.26558 0.0
C570 C 0.12205 0.46917 0.26951 0.0
C571 C 0.16426 0.48512 0.27425 0.0
C572 C 0.20609 0.46882 0.27847 0.0
C573 C 0.20492 0.4371 0.27334 0.0
C574 C 0.07666 0.48573 0.26391 0.0
C575 C 0.25185 0.48501 0.28494 0.0
H576 H 0.16389 0.56973 0.17848 0.0
H577 H 0.16388 0.58644 0.3243 0.0
H578 H 0.19331 0.49422 0.18421 0.0
H579 H 0.13196 0.49308 0.17709 0.0
H580 H 0.15957 0.52108 0.14597 0.0
H581 H 0.16665 0.54675 0.37922 0.0
H582 H 0.13645 0.51291 0.35585 0.0
H583 H 0.19775 0.51383 0.36441 0.0
H584 H 0.08951 0.42526 0.25969 0.0
H585 H 0.23672 0.42468 0.27382 0.0
H586 H 0.06957 0.4965 0.22883 0.0
H587 H 0.07777 0.50413 0.29025 0.0
H588 H 0.04773 0.47016 0.26719 0.0
H589 H 0.25646 0.49572 0.25145 0.0
H590 H 0.28097 0.46915 0.29596 0.0
H591 H 0.25321 0.50339 0.31139 0.0
C592 C 0.7793 0.56628 0.65796 0.0
C593 C 0.82048 0.57903 0.68108 0.0
C594 C 0.77571 0.53483 0.64941 0.0
C595 C 0.81338 0.51574 0.66679 0.0
C596 C 0.85604 0.52889 0.68696 0.0
C597 C 0.85926 0.56053 0.69307 0.0
C598 C 0.73056 0.52182 0.62516 0.0
C599 C 0.89685 0.50944 0.70681 0.0
C600 C 0.78613 0.44187 0.72274 0.0
C601 C 0.80157 0.42008 0.69375 0.0
C602 C 0.78889 0.47298 0.71354 0.0
C603 C 0.80575 0.48265 0.67312 0.0
C604 C 0.81839 0.46069 0.64182 0.0
C605 C 0.81728 0.42958 0.65316 0.0
C606 C 0.77629 0.49547 0.74875 0.0
C607 C 0.8346 0.46991 0.59731 0.0
H608 H 0.74942 0.58072 0.64833 0.0
H609 H 0.89102 0.57045 0.71123 0.0
H610 H 0.73639 0.50295 0.6014 0.0
H611 H 0.71131 0.51245 0.65157 0.0
H612 H 0.70888 0.53945 0.60468 0.0
H613 H 0.92848 0.52318 0.71775 0.0
H614 H 0.88923 0.49686 0.73776 0.0
H615 H 0.90369 0.49235 0.68076 0.0
H616 H 0.77449 0.4347 0.7545 0.0
H617 H 0.82916 0.41276 0.63061 0.0
H618 H 0.7483 0.51061 0.73187 0.0
H619 H 0.80637 0.51005 0.76226 0.0
H620 H 0.76479 0.4841 0.77892 0.0
H621 H 0.81664 0.49066 0.58197 0.0
H622 H 0.82906 0.45134 0.57091 0.0
H623 H 0.87195 0.47488 0.60498 0.0
C624 C 0.69847 0.93195 0.279 0.0
C625 C 0.6573 0.91558 0.26835 0.0
C626 C 0.69809 0.96354 0.28543 0.0
C627 C 0.6555 0.97905 0.27953 0.0
C628 C 0.61389 0.96231 0.27234 0.0
C629 C 0.61534 0.9306 0.26738 0.0
C630 C 0.74321 0.98052 0.29448 0.0
C631 C 0.56778 0.97802 0.26505 0.0
C632 C 0.65296 0.0645 0.30006 0.0
C633 C 0.65562 0.07541 0.25524 0.0
C634 C 0.65305 0.03305 0.30892 0.0
C635 C 0.65452 0.01238 0.27173 0.0
C636 C 0.65598 0.02345 0.22622 0.0
C637 C 0.65712 0.05481 0.21872 0.0
C638 C 0.6526 0.02196 0.35802 0.0
C639 C 0.65651 0.00219 0.1853 0.0
H640 H 0.73097 0.92021 0.28046 0.0
H641 H 0.58346 0.91791 0.25909 0.0
H642 H 0.74926 0.99146 0.26163 0.0
H643 H 0.74246 -0.00123 0.32078 0.0
H644 H 0.77257 0.96511 0.30697 0.0
H645 H 0.53933 0.96191 0.26774 0.0
H646 H 0.56728 0.99658 0.29087 0.0
H647 H 0.56124 0.98843 0.22971 0.0
H648 H 0.65198 0.08053 0.3283 0.0
H649 H 0.65851 0.06327 0.1839 0.0
H650 H 0.68466 0.00916 0.37082 0.0
H651 H 0.62351 0.00604 0.35843 0.0
H652 H 0.64976 0.04095 0.38266 0.0
H653 H 0.68828 0.98826 0.19133 0.0
H654 H 0.65501 0.01459 0.15173 0.0
H655 H 0.62687 0.98631 0.18184 0.0
C656 C 0.31874 0.9309 0.6528 0.0
C657 C 0.30113 0.92111 0.6922 0.0
C658 C 0.31953 0.96203 0.6415 0.0
C659 C 0.30441 0.98378 0.67161 0.0
C660 C 0.28515 0.97382 0.71045 0.0
C661 C 0.28291 0.94267 0.71962 0.0
C662 C 0.33828 0.97156 0.59853 0.0
C663 C 0.26966 0.99611 0.74433 0.0
C664 C 0.35712 0.06174 0.69487 0.0
C665 C 0.31885 0.08028 0.68033 0.0
C666 C 0.35414 0.03008 0.68885 0.0
C667 C 0.31235 0.01694 0.66614 0.0
C668 C 0.27548 0.03605 0.64648 0.0
C669 C 0.27868 0.06753 0.65498 0.0
C670 C 0.39398 0.01063 0.71133 0.0
C671 C 0.23141 0.02307 0.61963 0.0
H672 H 0.33267 0.91431 0.63134 0.0
H673 H 0.26961 0.93535 0.75038 0.0
H674 H 0.31982 0.99175 0.58178 0.0
H675 H 0.3751 0.97766 0.60856 0.0
H676 H 0.33567 0.95281 0.57248 0.0
H677 H 0.2559 0.98456 0.77304 0.0
H678 H 0.29898 0.01071 0.76005 0.0
H679 H 0.24257 0.01126 0.72573 0.0
H680 H 0.38803 0.07166 0.71487 0.0
H681 H 0.24916 0.08199 0.64352 0.0
H682 H 0.40262 0.99349 0.68619 0.0
H683 H 0.38418 0.9981 0.74135 0.0
H684 H 0.42519 0.02436 0.72429 0.0
H685 H 0.23869 0.00403 0.5968 0.0
H686 H 0.21102 0.04066 0.59775 0.0
H687 H 0.21016 0.01394 0.64447 0.0
C688 C 0.23669 0.25301 0.61362 0.0
C689 C 0.2681 0.22902 0.61241 0.0
C690 C 0.21435 0.26698 0.5726 0.0
C691 C 0.22331 0.2568 0.52892 0.0
C692 C 0.2541 0.2322 0.52709 0.0
C693 C 0.27614 0.21856 0.56889 0.0
C694 C 0.18179 0.29305 0.57612 0.0
C695 C 0.26429 0.22062 0.48097 0.0
C696 C 0.14233 0.27509 0.41575 0.0
C697 C 0.16726 0.29754 0.39672 0.0
C698 C 0.15912 0.26244 0.45984 0.0
C699 C 0.20177 0.27262 0.48523 0.0
C700 C 0.22512 0.29701 0.4676 0.0
C701 C 0.20773 0.30899 0.4233 0.0
C702 C 0.1331 0.23656 0.4774 0.0
C703 C 0.27025 0.3089 0.49387 0.0
H704 H 0.22958 0.2612 0.64687 0.0
H705 H 0.30011 0.20006 0.56748 0.0
H706 H 0.19502 0.31407 0.56192 0.0
H707 H 0.14766 0.28818 0.55478 0.0
H708 H 0.17721 0.2975 0.61273 0.0
H709 H 0.28761 0.20061 0.48532 0.0
H710 H 0.23186 0.21415 0.4577 0.0
H711 H 0.28051 0.23894 0.46312 0.0
H712 H 0.11185 0.26554 0.39442 0.0
H713 H 0.22763 0.32571 0.40785 0.0
H714 H 0.12966 0.24033 0.51444 0.0
H715 H 0.1525 0.21507 0.47589 0.0
H716 H 0.09826 0.23365 0.45624 0.0
H717 H 0.26743 0.31395 0.53074 0.0
H718 H 0.2816 0.32985 0.4777 0.0
H719 H 0.29718 0.29126 0.49435 0.0
C720 C 0.73319 0.25098 0.61008 0.0
C721 C 0.76802 0.2729 0.60981 0.0
C722 C 0.71034 0.23759 0.56876 0.0
C723 C 0.72215 0.24629 0.52557 0.0
C724 C 0.75587 0.26926 0.52453 0.0
C725 C 0.77843 0.28237 0.56673 0.0
C726 C 0.67468 0.21329 0.57159 0.0
C727 C 0.76906 0.27931 0.47894 0.0
C728 C 0.70712 0.19011 0.42459 0.0
C729 C 0.66827 0.20162 0.39533 0.0
C730 C 0.72386 0.2037 0.46794 0.0
C731 C 0.70154 0.22976 0.48204 0.0
C732 C 0.66039 0.2402 0.45402 0.0
C733 C 0.64413 0.22589 0.41092 0.0
C734 C 0.76726 0.1914 0.4971 0.0
C735 C 0.63544 0.26781 0.46782 0.0
H736 H 0.72398 0.24377 0.64296 0.0
H737 H 0.80496 0.29934 0.56606 0.0
H738 H 0.6422 0.21876 0.54773 0.0
H739 H 0.68699 0.19114 0.56011 0.0
H740 H 0.66716 0.2106 0.60758 0.0
H741 H 0.79338 0.29882 0.4836 0.0
H742 H 0.78538 0.2601 0.46312 0.0
H743 H 0.73795 0.28591 0.4538 0.0
H744 H 0.72644 0.17186 0.41188 0.0
H745 H 0.61501 0.23546 0.38756 0.0
H746 H 0.76211 0.18756 0.53362 0.0
H747 H 0.79538 0.2083 0.49823 0.0
H748 H 0.77841 0.16968 0.48294 0.0
H749 H 0.6299 0.26587 0.50454 0.0
H750 H 0.60166 0.27114 0.4448 0.0
H751 H 0.65678 0.28839 0.46563 0.0
C752 C 0.64218 0.76764 0.41067 0.0
C753 C 0.66668 0.79102 0.39328 0.0
C754 C 0.65781 0.75514 0.45512 0.0
C755 C 0.69874 0.76648 0.48251 0.0
C756 C 0.72126 0.79184 0.4665 0.0
C757 C 0.70512 0.80363 0.42184 0.0
C758 C 0.63272 0.7282 0.47095 0.0
C759 C 0.76452 0.80498 0.49488 0.0
C760 C 0.73295 0.74693 0.61095 0.0
C761 C 0.76713 0.72471 0.61011 0.0
C762 C 0.7094 0.75999 0.56969 0.0
C763 C 0.72008 0.75068 0.52625 0.0
C764 C 0.75334 0.72755 0.52482 0.0
C765 C 0.77645 0.71478 0.56681 0.0
C766 C 0.67409 0.78443 0.57276 0.0
C767 C 0.76544 0.71691 0.47897 0.0
H768 H 0.61328 0.75729 0.38788 0.0
H769 H 0.72463 0.82122 0.40774 0.0
H770 H 0.65349 0.70733 0.46927 0.0
H771 H 0.628 0.73111 0.5078 0.0
H772 H 0.59853 0.72472 0.44873 0.0
H773 H 0.77507 0.82652 0.4797 0.0
H774 H 0.75961 0.80943 0.53134 0.0
H775 H 0.79295 0.78832 0.49641 0.0
H776 H 0.72478 0.75453 0.6441 0.0
H777 H 0.80253 0.69758 0.56573 0.0
H778 H 0.64123 0.7788 0.54959 0.0
H779 H 0.68625 0.8064 0.56051 0.0
H780 H 0.66735 0.78753 0.60897 0.0
H781 H 0.73391 0.70982 0.45478 0.0
H782 H 0.78997 0.69756 0.48356 0.0
H783 H 0.78105 0.73595 0.46206 0.0
C784 C 0.23903 0.74913 0.61187 0.0
C785 C 0.27096 0.77299 0.612 0.0
C786 C 0.21671 0.7359 0.57009 0.0
C787 C 0.22626 0.74667 0.52695 0.0
C788 C 0.25723 0.77137 0.52649 0.0
C789 C 0.2792 0.78427 0.56902 0.0
C790 C 0.18397 0.70971 0.57225 0.0
C791 C 0.2681 0.78361 0.48106 0.0
C792 C 0.21558 0.69439 0.42143 0.0
C793 C 0.17543 0.70516 0.39343 0.0
C794 C 0.23121 0.70667 0.46596 0.0
C795 C 0.20643 0.73071 0.4826 0.0
C796 C 0.16411 0.74024 0.45574 0.0
C797 C 0.14901 0.72725 0.41137 0.0
C798 C 0.27601 0.69539 0.49371 0.0
C799 C 0.13657 0.76573 0.47219 0.0
H800 H 0.2317 0.74033 0.64467 0.0
H801 H 0.30351 0.80271 0.56859 0.0
H802 H 0.15052 0.71427 0.54943 0.0
H803 H 0.1982 0.68869 0.55904 0.0
H804 H 0.17776 0.7054 0.60836 0.0
H805 H 0.29055 0.80406 0.48638 0.0
H806 H 0.28565 0.76581 0.46349 0.0
H807 H 0.23589 0.78959 0.45711 0.0
H808 H 0.23651 0.6778 0.40703 0.0
H809 H 0.11873 0.73626 0.3891 0.0
H810 H 0.27185 0.68991 0.53005 0.0
H811 H 0.30243 0.71354 0.49568 0.0
H812 H 0.2889 0.67483 0.47779 0.0
H813 H 0.13213 0.76197 0.50894 0.0
H814 H 0.10213 0.76805 0.45002 0.0
H815 H 0.15539 0.78751 0.47114 0.0
C816 C 0.26445 0.23279 0.12769 0.0
C817 C 0.22754 0.25298 0.11683 0.0
C818 C 0.28322 0.21865 0.09208 0.0
C819 C 0.26348 0.22441 0.04503 0.0
C820 C 0.22475 0.24376 0.03414 0.0
C821 C 0.20772 0.25832 0.07038 0.0
C822 C 0.3254 0.19895 0.10472 0.0
C823 C 0.20214 0.24982 0.98421 0.0
C824 C 0.32287 0.22153 0.94101 0.0
C825 C 0.3035 0.1951 0.9191 0.0
C826 C 0.3141 0.22975 0.98517 0.0
C827 C 0.28403 0.21155 0.00653 0.0
C828 C 0.2676 0.18352 0.98624 0.0
C829 C 0.27812 0.17539 0.94274 0.0
C830 C 0.33368 0.25921 0.0069 0.0
C831 C 0.23509 0.16373 0.00788 0.0
H832 H 0.28006 0.2293 0.16395 0.0
H833 H 0.17922 0.27409 0.0625 0.0
H834 H 0.3211 0.17712 0.08523 0.0
H835 H 0.35545 0.21076 0.09464 0.0
H836 H 0.3332 0.19399 0.14279 0.0
H837 H 0.17015 0.26343 0.98214 0.0
H838 H 0.22623 0.2624 0.96574 0.0
H839 H 0.1936 0.22804 0.96531 0.0
H840 H 0.34316 0.2364 0.92275 0.0
H841 H 0.26323 0.1549 0.92553 0.0
H842 H 0.34591 0.25637 0.04498 0.0
H843 H 0.30643 0.27686 0.00238 0.0
H844 H 0.36264 0.26758 0.99046 0.0
H845 H 0.24691 0.16135 0.04609 0.0
H846 H 0.23142 0.14068 0.99187 0.0
H847 H 0.20067 0.17459 0.00271 0.0
C848 C 0.78796 0.23851 0.12167 0.0
C849 C 0.74421 0.24646 0.13007 0.0
C850 C 0.80571 0.25177 0.08493 0.0
C851 C 0.77867 0.27319 0.0562 0.0
C852 C 0.73638 0.2834 0.06741 0.0
C853 C 0.71966 0.26994 0.10482 0.0
C854 C 0.85145 0.24102 0.0744 0.0
C855 C 0.70645 0.30592 0.0369 0.0
C856 C 0.82374 0.31031 0.95575 0.0
C857 C 0.80664 0.29024 0.91923 0.0
C858 C 0.81556 0.30497 0.00116 0.0
C859 C 0.78935 0.27929 0.00947 0.0
C860 C 0.77319 0.25857 0.97296 0.0
C861 C 0.78258 0.26413 0.92836 0.0
C862 C 0.8342 0.32688 0.03992 0.0
C863 C 0.74508 0.23082 0.9807 0.0
H864 H 0.80735 0.22088 0.14252 0.0
H865 H 0.68598 0.27609 0.11195 0.0
H866 H 0.84794 0.23285 0.03777 0.0
H867 H 0.87611 0.2603 0.07841 0.0
H868 H 0.86609 0.22219 0.09769 0.0
H869 H 0.67909 0.31536 0.05467 0.0
H870 H 0.72725 0.32497 0.02663 0.0
H871 H 0.68979 0.29433 0.00435 0.0
H872 H 0.84264 0.33044 0.9486 0.0
H873 H 0.76901 0.24873 0.90012 0.0
H874 H 0.85987 0.31507 0.06625 0.0
H875 H 0.8063 0.3348 0.05816 0.0
H876 H 0.85076 0.34707 0.02683 0.0
H877 H 0.7656 0.2155 0.00661 0.0
H878 H 0.73375 0.21771 0.94799 0.0
H879 H 0.71414 0.23773 0.99506 0.0
C880 C 0.83184 0.725 0.93797 0.0
C881 C 0.81588 0.69693 0.919 0.0
C882 C 0.82478 0.73351 0.98261 0.0
C883 C 0.79996 0.71377 0.00764 0.0
C884 C 0.78784 0.68422 0.99049 0.0
C885 C 0.7965 0.67597 0.94631 0.0
C886 C 0.83991 0.76473 0.00088 0.0
C887 C 0.76119 0.66262 0.01623 0.0
C888 C 0.78113 0.73648 0.12858 0.0
C889 C 0.74011 0.75289 0.11758 0.0
C890 C 0.80131 0.7233 0.09313 0.0
C891 C 0.77895 0.72613 0.04621 0.0
C892 C 0.73651 0.74181 0.03535 0.0
C893 C 0.71798 0.75554 0.07133 0.0
C894 C 0.84732 0.70768 0.10565 0.0
C895 C 0.71121 0.74474 0.98565 0.0
H896 H 0.84779 0.74087 0.91702 0.0
H897 H 0.78445 0.65413 0.93159 0.0
H898 H 0.8098 0.78021 0.99614 0.0
H899 H 0.85414 0.76388 0.0388 0.0
H900 H 0.86623 0.77457 0.98208 0.0
H901 H 0.76128 0.63905 0.00237 0.0
H902 H 0.77546 0.66232 0.05415 0.0
H903 H 0.72501 0.67045 0.01229 0.0
H904 H 0.79839 0.73518 0.16468 0.0
H905 H 0.68636 0.7685 0.06341 0.0
H906 H 0.87412 0.72172 0.09336 0.0
H907 H 0.84693 0.68527 0.08797 0.0
H908 H 0.85733 0.7043 0.14398 0.0
H909 H 0.73194 0.75845 0.96483 0.0
H910 H 0.67713 0.75581 0.98379 0.0
H911 H 0.70603 0.72195 0.96904 0.0
C912 C 0.21957 0.7697 0.09036 0.0
C913 C 0.24662 0.75531 0.12814 0.0
C914 C 0.24 0.78194 0.05444 0.0
C915 C 0.28832 0.77976 0.0573 0.0
C916 C 0.31593 0.76827 0.09809 0.0
C917 C 0.29456 0.75561 0.13292 0.0
C918 C 0.20954 0.79445 0.01152 0.0
C919 C 0.36754 0.7666 0.10327 0.0
C920 C 0.31607 0.76443 0.93809 0.0
C921 C 0.32452 0.79395 0.92363 0.0
C922 C 0.30777 0.75912 0.98333 0.0
C923 C 0.30815 0.78396 0.0145 0.0
C924 C 0.32209 0.81308 0.002 0.0
C925 C 0.33026 0.81777 0.9565 0.0
C926 C 0.29477 0.72739 0.99637 0.0
C927 C 0.32485 0.83971 0.03526 0.0
H928 H 0.18245 0.76931 0.08724 0.0
H929 H 0.31521 0.74455 0.16278 0.0
H930 H 0.22339 0.81632 0.00084 0.0
H931 H 0.20871 0.77819 0.98207 0.0
H932 H 0.17374 0.79814 0.01734 0.0
H933 H 0.3838 0.76885 0.14056 0.0
H934 H 0.37721 0.74415 0.09037 0.0
H935 H 0.38162 0.78455 0.08295 0.0
H936 H 0.31265 0.74579 0.91321 0.0
H937 H 0.33833 0.84053 0.94597 0.0
H938 H 0.25807 0.727 0.0004 0.0
H939 H 0.3155 0.7206 0.03035 0.0
H940 H 0.29987 0.71025 0.96957 0.0
H941 H 0.2896 0.84745 0.03771 0.0
H942 H 0.34395 0.85917 0.02339 0.0
H943 H 0.34182 0.83298 0.07089 0.0
loop_
_geom_bond_atom_site_label_1
_geom_bond_atom_site_label_2
_geom_bond_distance
_geom_bond_site_symmetry_2
_ccdc_geom_bond_type
Sc0 O3 2.025 . S
Sc0 O10 2.105 . S
Sc0 O13 2.105 . S
Sc0 O16 2.105 . S
Sc0 O19 2.105 . S
Sc1 O3 2.025 . S
Sc1 O11 2.105 . S
Sc1 O15 2.105 . S
Sc1 O17 2.105 . S
Sc1 O21 2.105 . S
Sc2 O3 2.025 . S
Sc2 O12 2.105 . S
Sc2 O14 2.105 . S
Sc2 O18 2.105 . S
Sc2 O20 2.105 . S
O3 Sc0 2.025 . S
O3 Sc1 2.025 . S
O3 Sc2 2.025 . S
C4 O10 1.268 . S
C4 O20 1.268 . S
C5 O11 1.268 . S
C5 O19 1.268 . S
C6 O12 1.268 . S
C6 O21 1.268 . S
C7 O13 1.268 . S
C7 O17 1.268 . S
C8 O14 1.268 . S
C8 O16 1.268 . S
C9 O15 1.268 . S
C9 O18 1.268 . S
O10 Sc0 2.105 . S
O10 C4 1.268 . S
O11 Sc1 2.105 . S
O11 C5 1.268 . S
O12 Sc2 2.105 . S
O12 C6 1.268 . S
O13 Sc0 2.105 . S
O13 C7 1.268 . S
O14 Sc2 2.105 . S
O14 C8 1.268 . S
O15 Sc1 2.105 . S
O15 C9 1.268 . S
O16 Sc0 2.105 . S
O16 C8 1.268 . S
O17 Sc1 2.105 . S
O17 C7 1.268 . S
O18 Sc2 2.105 . S
O18 C9 1.268 . S
O19 Sc0 2.105 . S
O19 C5 1.268 . S
O20 Sc2 2.105 . S
O20 C4 1.268 . S
O21 Sc1 2.105 . S
O21 C6 1.268 . S
Sc22 O25 2.025 . S
Sc22 O32 2.105 . S
Sc22 O35 2.105 . S
Sc22 O38 2.105 . S
Sc22 O41 2.105 . S
Sc23 O25 2.025 . S
Sc23 O33 2.105 . S
Sc23 O37 2.105 . S
Sc23 O39 2.105 . S
Sc23 O43 2.105 . S
Sc24 O25 2.025 . S
Sc24 O34 2.105 . S
Sc24 O36 2.105 . S
Sc24 O40 2.105 . S
Sc24 O42 2.105 . S
O25 Sc22 2.025 . S
O25 Sc23 2.025 . S
O25 Sc24 2.025 . S
C26 O32 1.268 . S
C26 O42 1.268 . S
C27 O33 1.268 . S
C27 O41 1.268 . S
C28 O34 1.268 . S
C28 O43 1.268 . S
C29 O35 1.268 . S
C29 O39 1.268 . S
C30 O36 1.268 . S
C30 O38 1.268 . S
C31 O37 1.268 . S
C31 O40 1.268 . S
O32 Sc22 2.105 . S
O32 C26 1.268 . S
O33 Sc23 2.105 . S
O33 C27 1.268 . S
O34 Sc24 2.105 . S
O34 C28 1.268 . S
O35 Sc22 2.105 . S
O35 C29 1.268 . S
O36 Sc24 2.105 . S
O36 C30 1.268 . S
O37 Sc23 2.105 . S
O37 C31 1.268 . S
O38 Sc22 2.105 . S
O38 C30 1.268 . S
O39 Sc23 2.105 . S
O39 C29 1.268 . S
O40 Sc24 2.105 . S
O40 C31 1.268 . S
O41 Sc22 2.105 . S
O41 C27 1.268 . S
O42 Sc24 2.105 . S
O42 C26 1.268 . S
O43 Sc23 2.105 . S
O43 C28 1.268 . S
Sc44 O47 2.025 . S
Sc44 O54 2.105 . S
Sc44 O57 2.105 . S
Sc44 O60 2.105 . S
Sc44 O63 2.105 . S
Sc45 O47 2.025 . S
Sc45 O55 2.105 . S
Sc45 O59 2.105 . S
Sc45 O61 2.105 . S
Sc45 O65 2.105 . S
Sc46 O47 2.025 . S
Sc46 O56 2.105 . S
Sc46 O58 2.105 . S
Sc46 O62 2.105 . S
Sc46 O64 2.105 . S
O47 Sc44 2.025 . S
O47 Sc45 2.025 . S
O47 Sc46 2.025 . S
C48 O54 1.268 . S
C48 O64 1.268 . S
C49 O55 1.268 . S
C49 O63 1.268 . S
C50 O56 1.268 . S
C50 O65 1.268 . S
C51 O57 1.268 . S
C51 O61 1.268 . S
C52 O58 1.268 . S
C52 O60 1.268 . S
C53 O59 1.268 . S
C53 O62 1.268 . S
O54 Sc44 2.105 . S
O54 C48 1.268 . S
O55 Sc45 2.105 . S
O55 C49 1.268 . S
O56 Sc46 2.105 . S
O56 C50 1.268 . S
O57 Sc44 2.105 . S
O57 C51 1.268 . S
O58 Sc46 2.105 . S
O58 C52 1.268 . S
O59 Sc45 2.105 . S
O59 C53 1.268 . S
O60 Sc44 2.105 . S
O60 C52 1.268 . S
O61 Sc45 2.105 . S
O61 C51 1.268 . S
O62 Sc46 2.105 . S
O62 C53 1.268 . S
O63 Sc44 2.105 . S
O63 C49 1.268 . S
O64 Sc46 2.105 . S
O64 C48 1.268 . S
O65 Sc45 2.105 . S
O65 C50 1.268 . S
Sc66 O69 2.025 . S
Sc66 O76 2.105 . S
Sc66 O79 2.105 . S
Sc66 O82 2.105 . S
Sc66 O85 2.105 . S
Sc67 O69 2.025 . S
Sc67 O77 2.105 . S
Sc67 O81 2.105 . S
Sc67 O83 2.105 . S
Sc67 O87 2.105 . S
Sc68 O69 2.025 . S
Sc68 O78 2.105 . S
Sc68 O80 2.105 . S
Sc68 O84 2.105 . S
Sc68 O86 2.105 . S
O69 Sc66 2.025 . S
O69 Sc67 2.025 . S
O69 Sc68 2.025 . S
C70 O76 1.268 . S
C70 O86 1.268 . S
C71 O77 1.268 . S
C71 O85 1.268 . S
C72 O78 1.268 . S
C72 O87 1.268 . S
C73 O79 1.268 . S
C73 O83 1.268 . S
C74 O80 1.268 . S
C74 O82 1.268 . S
C75 O81 1.268 . S
C75 O84 1.268 . S
O76 Sc66 2.105 . S
O76 C70 1.268 . S
O77 Sc67 2.105 . S
O77 C71 1.268 . S
O78 Sc68 2.105 . S
O78 C72 1.268 . S
O79 Sc66 2.105 . S
O79 C73 1.268 . S
O80 Sc68 2.105 . S
O80 C74 1.268 . S
O81 Sc67 2.105 . S
O81 C75 1.268 . S
O82 Sc66 2.105 . S
O82 C74 1.268 . S
O83 Sc67 2.105 . S
O83 C73 1.268 . S
O84 Sc68 2.105 . S
O84 C75 1.268 . S
O85 Sc66 2.105 . S
O85 C71 1.268 . S
O86 Sc68 2.105 . S
O86 C70 1.268 . S
O87 Sc67 2.105 . S
O87 C72 1.268 . S
Sc88 O91 2.025 . S
Sc88 O98 2.105 . S
Sc88 O101 2.105 . S
Sc88 O104 2.105 . S
Sc88 O107 2.105 . S
Sc89 O91 2.025 . S
Sc89 O99 2.105 . S
Sc89 O103 2.105 . S
Sc89 O105 2.105 . S
Sc89 O109 2.105 . S
Sc90 O91 2.025 . S
Sc90 O100 2.105 . S
Sc90 O102 2.105 . S
Sc90 O106 2.105 . S
Sc90 O108 2.105 . S
O91 Sc88 2.025 . S
O91 Sc89 2.025 . S
O91 Sc90 2.025 . S
C92 O98 1.268 . S
C92 O108 1.268 . S
C93 O99 1.268 . S
C93 O107 1.268 . S
C94 O100 1.268 . S
C94 O109 1.268 . S
C95 O101 1.268 . S
C95 O105 1.268 . S
C96 O102 1.268 . S
C96 O104 1.268 . S
C97 O103 1.268 . S
C97 O106 1.268 . S
O98 Sc88 2.105 . S
O98 C92 1.268 . S
O99 Sc89 2.105 . S
O99 C93 1.268 . S
O100 Sc90 2.105 . S
O100 C94 1.268 . S
O101 Sc88 2.105 . S
O101 C95 1.268 . S
O102 Sc90 2.105 . S
O102 C96 1.268 . S
O103 Sc89 2.105 . S
O103 C97 1.268 . S
O104 Sc88 2.105 . S
O104 C96 1.268 . S
O105 Sc89 2.105 . S
O105 C95 1.268 . S
O106 Sc90 2.105 . S
O106 C97 1.268 . S
O107 Sc88 2.105 . S
O107 C93 1.268 . S
O108 Sc90 2.105 . S
O108 C92 1.268 . S
O109 Sc89 2.105 . S
O109 C94 1.268 . S
Sc110 O113 2.025 . S
Sc110 O120 2.105 . S
Sc110 O123 2.105 . S
Sc110 O126 2.105 . S
Sc110 O129 2.105 . S
Sc111 O113 2.025 . S
Sc111 O121 2.105 . S
Sc111 O125 2.105 . S
Sc111 O127 2.105 . S
Sc111 O131 2.105 . S
Sc112 O113 2.025 . S
Sc112 O122 2.105 . S
Sc112 O124 2.105 . S
Sc112 O128 2.105 . S
Sc112 O130 2.105 . S
O113 Sc110 2.025 . S
O113 Sc111 2.025 . S
O113 Sc112 2.025 . S
C114 O120 1.268 . S
C114 O130 1.268 . S
C115 O121 1.268 . S
C115 O129 1.268 . S
C116 O122 1.268 . S
C116 O131 1.268 . S
C117 O123 1.268 . S
C117 O127 1.268 . S
C118 O124 1.268 . S
C118 O126 1.268 . S
C119 O125 1.268 . S
C119 O128 1.268 . S
O120 Sc110 2.105 . S
O120 C114 1.268 . S
O121 Sc111 2.105 . S
O121 C115 1.268 . S
O122 Sc112 2.105 . S
O122 C116 1.268 . S
O123 Sc110 2.105 . S
O123 C117 1.268 . S
O124 Sc112 2.105 . S
O124 C118 1.268 . S
O125 Sc111 2.105 . S
O125 C119 1.268 . S
O126 Sc110 2.105 . S
O126 C118 1.268 . S
O127 Sc111 2.105 . S
O127 C117 1.268 . S
O128 Sc112 2.105 . S
O128 C119 1.268 . S
O129 Sc110 2.105 . S
O129 C115 1.268 . S
O130 Sc112 2.105 . S
O130 C114 1.268 . S
O131 Sc111 2.105 . S
O131 C116 1.268 . S
Sc132 O135 2.025 . S
Sc132 O142 2.105 . S
Sc132 O145 2.105 . S
Sc132 O148 2.105 . S
Sc132 O151 2.105 . S
Sc133 O135 2.025 . S
Sc133 O143 2.105 . S
Sc133 O147 2.105 . S
Sc133 O149 2.105 . S
Sc133 O153 2.105 . S
Sc134 O135 2.025 . S
Sc134 O144 2.105 . S
Sc134 O146 2.105 . S
Sc134 O150 2.105 . S
Sc134 O152 2.105 . S
O135 Sc132 2.025 . S
O135 Sc133 2.025 . S
O135 Sc134 2.025 . S
C136 O142 1.268 . S
C136 O152 1.268 . S
C137 O143 1.268 . S
C137 O151 1.268 . S
C138 O144 1.268 . S
C138 O153 1.268 . S
C139 O145 1.268 . S
C139 O149 1.268 . S
C140 O146 1.268 . S
C140 O148 1.268 . S
C141 O147 1.268 . S
C141 O150 1.268 . S
O142 Sc132 2.105 . S
O142 C136 1.268 . S
O143 Sc133 2.105 . S
O143 C137 1.268 . S
O144 Sc134 2.105 . S
O144 C138 1.268 . S
O145 Sc132 2.105 . S
O145 C139 1.268 . S
O146 Sc134 2.105 . S
O146 C140 1.268 . S
O147 Sc133 2.105 . S
O147 C141 1.268 . S
O148 Sc132 2.105 . S
O148 C140 1.268 . S
O149 Sc133 2.105 . S
O149 C139 1.268 . S
O150 Sc134 2.105 . S
O150 C141 1.268 . S
O151 Sc132 2.105 . S
O151 C137 1.268 . S
O152 Sc134 2.105 . S
O152 C136 1.268 . S
O153 Sc133 2.105 . S
O153 C138 1.268 . S
Sc154 O157 2.025 . S
Sc154 O164 2.105 . S
Sc154 O167 2.105 . S
Sc154 O170 2.105 . S
Sc154 O173 2.105 . S
Sc155 O157 2.025 . S
Sc155 O165 2.105 . S
Sc155 O169 2.105 . S
Sc155 O171 2.105 . S
Sc155 O175 2.105 . S
Sc156 O157 2.025 . S
Sc156 O166 2.105 . S
Sc156 O168 2.105 . S
Sc156 O172 2.105 . S
Sc156 O174 2.105 . S
O157 Sc154 2.025 . S
O157 Sc155 2.025 . S
O157 Sc156 2.025 . S
C158 O164 1.268 . S
C158 O174 1.268 . S
C159 O165 1.268 . S
C159 O173 1.268 . S
C160 O166 1.268 . S
C160 O175 1.268 . S
C161 O167 1.268 . S
C161 O171 1.268 . S
C162 O168 1.268 . S
C162 O170 1.268 . S
C163 O169 1.268 . S
C163 O172 1.268 . S
O164 Sc154 2.105 . S
O164 C158 1.268 . S
O165 Sc155 2.105 . S
O165 C159 1.268 . S
O166 Sc156 2.105 . S
O166 C160 1.268 . S
O167 Sc154 2.105 . S
O167 C161 1.268 . S
O168 Sc156 2.105 . S
O168 C162 1.268 . S
O169 Sc155 2.105 . S
O169 C163 1.268 . S
O170 Sc154 2.105 . S
O170 C162 1.268 . S
O171 Sc155 2.105 . S
O171 C161 1.268 . S
O172 Sc156 2.105 . S
O172 C163 1.268 . S
O173 Sc154 2.105 . S
O173 C159 1.268 . S
O174 Sc156 2.105 . S
O174 C158 1.268 . S
O175 Sc155 2.105 . S
O175 C160 1.268 . S
C176 C177 1.391 . S
C176 C178 1.394 . S
C176 H192 0.931 . S
C177 C176 1.391 . S
C177 C181 1.376 . S
C178 C176 1.394 . S
C178 C179 1.369 . S
C178 C182 1.531 . S
C179 C178 1.369 . S
C179 C180 1.410 . S
C179 C187 1.503 . S
C180 C179 1.410 . S
C180 C181 1.392 . S
C180 C183 1.511 . S
C181 C177 1.376 . S
C181 C180 1.392 . S
C181 H193 0.929 . S
C182 C178 1.531 . S
C182 H194 0.960 . S
C182 H195 0.962 . S
C182 H196 0.960 . S
C183 C180 1.511 . S
C183 H197 0.961 . S
C183 H198 0.961 . S
C183 H199 0.961 . S
C184 C185 1.370 . S
C184 C186 1.363 . S
C184 H200 0.931 . S
C185 C184 1.370 . S
C185 C189 1.408 . S
C186 C184 1.363 . S
C186 C187 1.370 . S
C186 C190 1.524 . S
C187 C179 1.503 . S
C187 C186 1.370 . S
C187 C188 1.403 . S
C188 C187 1.403 . S
C188 C189 1.404 . S
C188 C191 1.539 . S
C189 C185 1.408 . S
C189 C188 1.404 . S
C189 H201 0.930 . S
C190 C186 1.524 . S
C190 H202 0.956 . S
C190 H203 0.961 . S
C190 H204 0.961 . S
C191 C188 1.539 . S
C191 H205 0.958 . S
C191 H206 0.961 . S
C191 H207 0.960 . S
H192 C176 0.931 . S
H193 C181 0.929 . S
H194 C182 0.960 . S
H195 C182 0.962 . S
H196 C182 0.960 . S
H197 C183 0.961 . S
H198 C183 0.961 . S
H199 C183 0.961 . S
H200 C184 0.931 . S
H201 C189 0.930 . S
H202 C190 0.956 . S
H203 C190 0.961 . S
H204 C190 0.961 . S
H205 C191 0.958 . S
H206 C191 0.961 . S
H207 C191 0.960 . S
C208 C209 1.391 . S
C208 C210 1.394 . S
C208 H224 0.931 . S
C209 C208 1.391 . S
C209 C213 1.376 . S
C210 C208 1.394 . S
C210 C211 1.369 . S
C210 C214 1.531 . S
C211 C210 1.369 . S
C211 C212 1.410 . S
C211 C219 1.503 . S
C212 C211 1.410 . S
C212 C213 1.392 . S
C212 C215 1.511 . S
C213 C209 1.376 . S
C213 C212 1.392 . S
C213 H225 0.929 . S
C214 C210 1.531 . S
C214 H226 0.960 . S
C214 H227 0.962 . S
C214 H228 0.960 . S
C215 C212 1.511 . S
C215 H229 0.961 . S
C215 H230 0.961 . S
C215 H231 0.961 . S
C216 C217 1.370 . S
C216 C218 1.363 . S
C216 H232 0.931 . S
C217 C216 1.370 . S
C217 C221 1.408 . S
C218 C216 1.363 . S
C218 C219 1.370 . S
C218 C222 1.524 . S
C219 C211 1.503 . S
C219 C218 1.370 . S
C219 C220 1.403 . S
C220 C219 1.403 . S
C220 C221 1.404 . S
C220 C223 1.539 . S
C221 C217 1.408 . S
C221 C220 1.404 . S
C221 H233 0.930 . S
C222 C218 1.524 . S
C222 H234 0.956 . S
C222 H235 0.961 . S
C222 H236 0.961 . S
C223 C220 1.539 . S
C223 H237 0.958 . S
C223 H238 0.961 . S
C223 H239 0.960 . S
H224 C208 0.931 . S
H225 C213 0.929 . S
H226 C214 0.960 . S
H227 C214 0.962 . S
H228 C214 0.960 . S
H229 C215 0.961 . S
H230 C215 0.961 . S
H231 C215 0.961 . S
H232 C216 0.931 . S
H233 C221 0.930 . S
H234 C222 0.956 . S
H235 C222 0.961 . S
H236 C222 0.961 . S
H237 C223 0.958 . S
H238 C223 0.961 . S
H239 C223 0.960 . S
C240 C241 1.391 . S
C240 C242 1.394 . S
C240 H256 0.931 . S
C241 C240 1.391 . S
C241 C245 1.376 . S
C242 C240 1.394 . S
C242 C243 1.369 . S
C242 C246 1.531 . S
C243 C242 1.369 . S
C243 C244 1.410 . S
C243 C251 1.503 . S
C244 C243 1.410 . S
C244 C245 1.392 . S
C244 C247 1.511 . S
C245 C241 1.376 . S
C245 C244 1.392 . S
C245 H257 0.929 . S
C246 C242 1.531 . S
C246 H258 0.960 . S
C246 H259 0.962 . S
C246 H260 0.960 . S
C247 C244 1.511 . S
C247 H261 0.961 . S
C247 H262 0.961 . S
C247 H263 0.961 . S
C248 C249 1.370 . S
C248 C250 1.363 . S
C248 H264 0.931 . S
C249 C248 1.370 . S
C249 C253 1.408 . S
C250 C248 1.363 . S
C250 C251 1.370 . S
C250 C254 1.524 . S
C251 C243 1.503 . S
C251 C250 1.370 . S
C251 C252 1.403 . S
C252 C251 1.403 . S
C252 C253 1.404 . S
C252 C255 1.539 . S
C253 C249 1.408 . S
C253 C252 1.404 . S
C253 H265 0.930 . S
C254 C250 1.524 . S
C254 H266 0.956 . S
C254 H267 0.961 . S
C254 H268 0.961 . S
C255 C252 1.539 . S
C255 H269 0.958 . S
C255 H270 0.961 . S
C255 H271 0.960 . S
H256 C240 0.931 . S
H257 C245 0.929 . S
H258 C246 0.960 . S
H259 C246 0.962 . S
H260 C246 0.960 . S
H261 C247 0.961 . S
H262 C247 0.961 . S
H263 C247 0.961 . S
H264 C248 0.931 . S
H265 C253 0.930 . S
H266 C254 0.956 . S
H267 C254 0.961 . S
H268 C254 0.961 . S
H269 C255 0.958 . S
H270 C255 0.961 . S
H271 C255 0.960 . S
C272 C273 1.391 . S
C272 C274 1.394 . S
C272 H288 0.931 . S
C273 C272 1.391 . S
C273 C277 1.376 . S
C274 C272 1.394 . S
C274 C275 1.369 . S
C274 C278 1.531 . S
C275 C274 1.369 . S
C275 C276 1.410 . S
C275 C283 1.503 . S
C276 C275 1.410 . S
C276 C277 1.392 . S
C276 C279 1.511 . S
C277 C273 1.376 . S
C277 C276 1.392 . S
C277 H289 0.929 . S
C278 C274 1.531 . S
C278 H290 0.960 . S
C278 H291 0.962 . S
C278 H292 0.960 . S
C279 C276 1.511 . S
C279 H293 0.961 . S
C279 H294 0.961 . S
C279 H295 0.961 . S
C280 C281 1.370 . S
C280 C282 1.363 . S
C280 H296 0.931 . S
C281 C280 1.370 . S
C281 C285 1.408 . S
C282 C280 1.363 . S
C282 C283 1.370 . S
C282 C286 1.524 . S
C283 C275 1.503 . S
C283 C282 1.370 . S
C283 C284 1.403 . S
C284 C283 1.403 . S
C284 C285 1.404 . S
C284 C287 1.539 . S
C285 C281 1.408 . S
C285 C284 1.404 . S
C285 H297 0.930 . S
C286 C282 1.524 . S
C286 H298 0.956 . S
C286 H299 0.961 . S
C286 H300 0.961 . S
C287 C284 1.539 . S
C287 H301 0.958 . S
C287 H302 0.961 . S
C287 H303 0.960 . S
H288 C272 0.931 . S
H289 C277 0.929 . S
H290 C278 0.960 . S
H291 C278 0.962 . S
H292 C278 0.960 . S
H293 C279 0.961 . S
H294 C279 0.961 . S
H295 C279 0.961 . S
H296 C280 0.931 . S
H297 C285 0.930 . S
H298 C286 0.956 . S
H299 C286 0.961 . S
H300 C286 0.961 . S
H301 C287 0.958 . S
H302 C287 0.961 . S
H303 C287 0.960 . S
C304 C305 1.391 . S
C304 C306 1.394 . S
C304 H320 0.931 . S
C305 C304 1.391 . S
C305 C309 1.376 . S
C306 C304 1.394 . S
C306 C307 1.369 . S
C306 C310 1.531 . S
C307 C306 1.369 . S
C307 C308 1.410 . S
C307 C315 1.503 1_455 S
C308 C307 1.410 . S
C308 C309 1.392 . S
C308 C311 1.511 1_455 S
C309 C305 1.376 . S
C309 C308 1.392 . S
C309 H321 0.929 . S
C310 C306 1.531 . S
C310 H322 0.960 . S
C310 H323 0.962 . S
C310 H324 0.960 . S
C311 C308 1.511 1_655 S
C311 H325 0.961 . S
C311 H326 0.961 . S
C311 H327 0.961 . S
C312 C313 1.370 . S
C312 C314 1.363 . S
C312 H328 0.931 . S
C313 C312 1.370 . S
C313 C317 1.408 . S
C314 C312 1.363 . S
C314 C315 1.370 . S
C314 C318 1.524 . S
C315 C307 1.503 1_655 S
C315 C314 1.370 . S
C315 C316 1.403 . S
C316 C315 1.403 . S
C316 C317 1.404 . S
C316 C319 1.539 . S
C317 C313 1.408 . S
C317 C316 1.404 . S
C317 H329 0.930 . S
C318 C314 1.524 . S
C318 H330 0.956 . S
C318 H331 0.961 . S
C318 H332 0.961 . S
C319 C316 1.539 . S
C319 H333 0.958 . S
C319 H334 0.961 . S
C319 H335 0.960 . S
H320 C304 0.931 . S
H321 C309 0.929 . S
H322 C310 0.960 . S
H323 C310 0.962 . S
H324 C310 0.960 . S
H325 C311 0.961 . S
H326 C311 0.961 . S
H327 C311 0.961 . S
H328 C312 0.931 . S
H329 C317 0.930 . S
H330 C318 0.956 . S
H331 C318 0.961 . S
H332 C318 0.961 . S
H333 C319 0.958 . S
H334 C319 0.961 . S
H335 C319 0.960 . S
C336 C337 1.391 . S
C336 C338 1.394 . S
C336 H352 0.931 . S
C337 C336 1.391 . S
C337 C341 1.376 . S
C338 C336 1.394 . S
C338 C339 1.369 1_655 S
C338 C342 1.531 1_655 S
C339 C338 1.369 1_455 S
C339 C340 1.410 1_455 S
C339 C347 1.503 . S
C340 C339 1.410 1_655 S
C340 C341 1.392 . S
C340 C343 1.511 . S
C341 C337 1.376 . S
C341 C340 1.392 . S
C341 H353 0.929 . S
C342 C338 1.531 1_455 S
C342 H354 0.960 . S
C342 H355 0.962 . S
C342 H356 0.960 . S
C343 C340 1.511 . S
C343 H357 0.961 . S
C343 H358 0.961 . S
C343 H359 0.961 . S
C344 C345 1.370 . S
C344 C346 1.363 . S
C344 H360 0.931 . S
C345 C344 1.370 . S
C345 C349 1.408 . S
C346 C344 1.363 . S
C346 C347 1.370 . S
C346 C350 1.524 . S
C347 C339 1.503 . S
C347 C346 1.370 . S
C347 C348 1.403 . S
C348 C347 1.403 . S
C348 C349 1.404 . S
C348 C351 1.539 . S
C349 C345 1.408 . S
C349 C348 1.404 . S
C349 H361 0.930 . S
C350 C346 1.524 . S
C350 H362 0.956 . S
C350 H363 0.945 1_455 S
C350 H364 0.961 . S
C351 C348 1.539 . S
C351 H365 0.958 . S
C351 H366 0.961 . S
C351 H367 0.960 . S
H352 C336 0.931 . S
H353 C341 0.929 . S
H354 C342 0.960 . S
H355 C342 0.962 . S
H356 C342 0.960 . S
H357 C343 0.961 . S
H358 C343 0.961 . S
H359 C343 0.961 . S
H360 C344 0.931 . S
H361 C349 0.930 . S
H362 C350 0.956 . S
H363 C350 0.945 1_655 S
H364 C350 0.961 . S
H365 C351 0.958 . S
H366 C351 0.961 . S
H367 C351 0.960 . S
C368 C369 1.391 . S
C368 C370 1.394 . S
C368 H384 0.931 . S
C369 C368 1.391 . S
C369 C373 1.376 . S
C370 C368 1.394 . S
C370 C371 1.369 1_655 S
C370 C374 1.531 1_655 S
C371 C370 1.369 1_455 S
C371 C372 1.410 1_455 S
C371 C379 1.503 . S
C372 C371 1.410 1_655 S
C372 C373 1.392 . S
C372 C375 1.511 . S
C373 C369 1.376 . S
C373 C372 1.392 . S
C373 H385 0.929 . S
C374 C370 1.531 1_455 S
C374 H386 0.960 . S
C374 H387 0.962 . S
C374 H388 0.960 . S
C375 C372 1.511 . S
C375 H389 0.961 . S
C375 H390 0.961 . S
C375 H391 0.961 . S
C376 C377 1.370 . S
C376 C378 1.363 . S
C376 H392 0.931 . S
C377 C376 1.370 . S
C377 C381 1.408 . S
C378 C376 1.363 . S
C378 C379 1.370 . S
C378 C382 1.524 . S
C379 C371 1.503 . S
C379 C378 1.370 . S
C379 C380 1.403 . S
C380 C379 1.403 . S
C380 C381 1.404 . S
C380 C383 1.539 . S
C381 C377 1.408 . S
C381 C380 1.404 . S
C381 H393 0.930 . S
C382 C378 1.524 . S
C382 H394 0.956 . S
C382 H395 0.972 . S
C382 H396 0.961 . S
C383 C380 1.539 . S
C383 H397 0.958 . S
C383 H398 0.961 . S
C383 H399 0.960 . S
H384 C368 0.931 . S
H385 C373 0.929 . S
H386 C374 0.960 . S
H387 C374 0.962 . S
H388 C374 0.960 . S
H389 C375 0.961 . S
H390 C375 0.961 . S
H391 C375 0.961 . S
H392 C376 0.931 . S
H393 C381 0.930 . S
H394 C382 0.956 . S
H395 C382 0.972 . S
H396 C382 0.961 . S
H397 C383 0.958 . S
H398 C383 0.961 . S
H399 C383 0.960 . S
C400 C401 1.391 . S
C400 C402 1.394 . S
C400 H416 0.931 . S
C401 C400 1.391 . S
C401 C405 1.376 . S
C402 C400 1.394 . S
C402 C403 1.368 . S
C402 C406 1.531 . S
C403 C402 1.368 . S
C403 C404 1.409 . S
C403 C411 1.504 1_455 S
C404 C403 1.409 . S
C404 C405 1.392 . S
C404 C407 1.511 1_455 S
C405 C401 1.376 . S
C405 C404 1.392 . S
C405 H417 0.929 . S
C406 C402 1.531 . S
C406 H418 0.960 . S
C406 H419 0.962 . S
C406 H420 0.960 . S
C407 C404 1.511 1_655 S
C407 H421 0.961 . S
C407 H422 0.961 . S
C407 H423 0.961 . S
C408 C409 1.370 . S
C408 C410 1.363 . S
C408 H424 0.931 . S
C409 C408 1.370 . S
C409 C413 1.408 . S
C410 C408 1.363 . S
C410 C411 1.370 . S
C410 C414 1.524 . S
C411 C403 1.504 1_655 S
C411 C410 1.370 . S
C411 C412 1.403 . S
C412 C411 1.403 . S
C412 C413 1.404 . S
C412 C415 1.539 . S
C413 C409 1.408 . S
C413 C412 1.404 . S
C413 H425 0.930 . S
C414 C410 1.524 . S
C414 H426 0.956 . S
C414 H427 0.961 . S
C414 H428 0.961 . S
C415 C412 1.539 . S
C415 H429 0.958 . S
C415 H430 0.961 . S
C415 H431 0.960 . S
H416 C400 0.931 . S
H417 C405 0.929 . S
H418 C406 0.960 . S
H419 C406 0.962 . S
H420 C406 0.960 . S
H421 C407 0.961 . S
H422 C407 0.961 . S
H423 C407 0.961 . S
H424 C408 0.931 . S
H425 C413 0.930 . S
H426 C414 0.956 . S
H427 C414 0.961 . S
H428 C414 0.961 . S
H429 C415 0.958 . S
H430 C415 0.961 . S
H431 C415 0.960 . S
C432 C433 1.391 . S
C432 C434 1.394 . S
C432 H448 0.931 . S
C433 C432 1.391 . S
C433 C437 1.376 . S
C434 C432 1.394 . S
C434 C435 1.369 . S
C434 C438 1.531 1_556 S
C435 C434 1.369 . S
C435 C436 1.410 . S
C435 C443 1.503 1_656 S
C436 C435 1.410 . S
C436 C437 1.392 . S
C436 C439 1.511 1_655 S
C437 C433 1.376 . S
C437 C436 1.392 . S
C437 H449 0.929 . S
C438 C434 1.531 1_554 S
C438 H450 0.960 . S
C438 H451 0.962 . S
C438 H452 0.960 . S
C439 C436 1.511 1_455 S
C439 H453 0.961 . S
C439 H454 0.961 . S
C439 H455 0.961 . S
C440 C441 1.370 . S
C440 C442 1.363 . S
C440 H456 0.931 . S
C441 C440 1.370 . S
C441 C445 1.408 . S
C442 C440 1.363 . S
C442 C443 1.370 . S
C442 C446 1.524 1_554 S
C443 C435 1.503 1_454 S
C443 C442 1.370 . S
C443 C444 1.403 . S
C444 C443 1.403 . S
C444 C445 1.404 . S
C444 C447 1.539 1_455 S
C445 C441 1.408 . S
C445 C444 1.404 . S
C445 H457 0.930 . S
C446 C442 1.524 1_556 S
C446 H458 0.956 . S
C446 H459 0.961 . S
C446 H460 0.959 1_556 S
C447 C444 1.539 1_655 S
C447 H461 0.958 . S
C447 H462 0.961 1_655 S
C447 H463 0.960 . S
H448 C432 0.931 . S
H449 C437 0.929 . S
H450 C438 0.960 . S
H451 C438 0.962 . S
H452 C438 0.960 . S
H453 C439 0.961 . S
H454 C439 0.961 . S
H455 C439 0.961 . S
H456 C440 0.931 . S
H457 C445 0.930 . S
H458 C446 0.956 . S
H459 C446 0.961 . S
H460 C446 0.959 1_554 S
H461 C447 0.958 . S
H462 C447 0.961 1_455 S
H463 C447 0.960 . S
C464 C465 1.391 . S
C464 C466 1.394 . S
C464 H480 0.931 . S
C465 C464 1.391 . S
C465 C469 1.376 . S
C466 C464 1.394 . S
C466 C467 1.369 . S
C466 C470 1.531 . S
C467 C466 1.369 . S
C467 C468 1.410 . S
C467 C475 1.503 1_454 S
C468 C467 1.410 . S
C468 C469 1.392 . S
C468 C471 1.511 . S
C469 C465 1.376 . S
C469 C468 1.392 . S
C469 H481 0.929 . S
C470 C466 1.531 . S
C470 H482 0.960 1_455 S
C470 H483 0.959 1_554 S
C470 H484 0.960 . S
C471 C468 1.511 . S
C471 H485 0.961 . S
C471 H486 0.961 1_454 S
C471 H487 0.961 1_455 S
C472 C473 1.370 . S
C472 C474 1.363 . S
C472 H488 0.931 . S
C473 C472 1.370 . S
C473 C477 1.408 . S
C474 C472 1.363 . S
C474 C475 1.370 . S
C474 C478 1.524 1_655 S
C475 C467 1.503 1_656 S
C475 C474 1.370 . S
C475 C476 1.403 . S
C476 C475 1.403 . S
C476 C477 1.404 . S
C476 C479 1.539 1_556 S
C477 C473 1.408 . S
C477 C476 1.404 . S
C477 H489 0.930 . S
C478 C474 1.524 1_455 S
C478 H490 0.956 . S
C478 H491 0.961 . S
C478 H492 0.961 . S
C479 C476 1.539 1_554 S
C479 H493 0.958 . S
C479 H494 0.961 . S
C479 H495 0.960 . S
H480 C464 0.931 . S
H481 C469 0.929 . S
H482 C470 0.960 1_655 S
H483 C470 0.959 1_556 S
H484 C470 0.960 . S
H485 C471 0.961 . S
H486 C471 0.961 1_656 S
H487 C471 0.961 1_655 S
H488 C472 0.931 . S
H489 C477 0.930 . S
H490 C478 0.956 . S
H491 C478 0.961 . S
H492 C478 0.961 . S
H493 C479 0.958 . S
H494 C479 0.961 . S
H495 C479 0.960 . S
C496 C497 1.391 . S
C496 C498 1.394 . S
C496 H512 0.931 . S
C497 C496 1.391 . S
C497 C501 1.376 . S
C498 C496 1.394 . S
C498 C499 1.369 . S
C498 C502 1.531 . S
C499 C498 1.369 . S
C499 C500 1.410 . S
C499 C507 1.503 1_554 S
C500 C499 1.410 . S
C500 C501 1.392 . S
C500 C503 1.511 1_554 S
C501 C497 1.376 . S
C501 C500 1.392 . S
C501 H513 0.929 . S
C502 C498 1.531 . S
C502 H514 0.960 . S
C502 H515 0.962 . S
C502 H516 0.960 . S
C503 C500 1.511 1_556 S
C503 H517 0.961 . S
C503 H518 0.961 . S
C503 H519 0.961 . S
C504 C505 1.370 . S
C504 C506 1.363 . S
C504 H520 0.931 . S
C505 C504 1.370 . S
C505 C509 1.408 . S
C506 C504 1.363 . S
C506 C507 1.370 . S
C506 C510 1.524 1_556 S
C507 C499 1.503 1_556 S
C507 C506 1.370 . S
C507 C508 1.403 . S
C508 C507 1.403 . S
C508 C509 1.404 . S
C508 C511 1.539 . S
C509 C505 1.408 . S
C509 C508 1.404 . S
C509 H521 0.930 . S
C510 C506 1.524 1_554 S
C510 H522 0.956 . S
C510 H523 0.961 . S
C510 H524 0.961 . S
C511 C508 1.539 . S
C511 H525 0.958 . S
C511 H526 0.961 . S
C511 H527 0.960 . S
H512 C496 0.931 . S
H513 C501 0.929 . S
H514 C502 0.960 . S
H515 C502 0.962 . S
H516 C502 0.960 . S
H517 C503 0.961 . S
H518 C503 0.961 . S
H519 C503 0.961 . S
H520 C504 0.931 . S
H521 C509 0.930 . S
H522 C510 0.956 . S
H523 C510 0.961 . S
H524 C510 0.961 . S
H525 C511 0.958 . S
H526 C511 0.961 . S
H527 C511 0.960 . S
C528 C529 1.391 . S
C528 C530 1.394 . S
C528 H544 0.931 . S
C529 C528 1.391 . S
C529 C533 1.376 . S
C530 C528 1.394 . S
C530 C531 1.369 . S
C530 C534 1.531 . S
C531 C530 1.369 . S
C531 C532 1.410 . S
C531 C539 1.503 1_554 S
C532 C531 1.410 . S
C532 C533 1.392 . S
C532 C535 1.511 1_554 S
C533 C529 1.376 . S
C533 C532 1.392 . S
C533 H545 0.929 . S
C534 C530 1.531 . S
C534 H546 0.960 . S
C534 H547 0.962 . S
C534 H548 0.960 . S
C535 C532 1.511 1_556 S
C535 H549 0.961 . S
C535 H550 0.961 . S
C535 H551 0.961 . S
C536 C537 1.370 . S
C536 C538 1.363 . S
C536 H552 0.931 . S
C537 C536 1.370 . S
C537 C541 1.408 . S
C538 C536 1.363 . S
C538 C539 1.370 . S
C538 C542 1.524 1_556 S
C539 C531 1.503 1_556 S
C539 C538 1.370 . S
C539 C540 1.403 . S
C540 C539 1.403 . S
C540 C541 1.404 . S
C540 C543 1.539 . S
C541 C537 1.408 . S
C541 C540 1.404 . S
C541 H553 0.930 . S
C542 C538 1.524 1_554 S
C542 H554 0.956 . S
C542 H555 0.961 . S
C542 H556 0.960 1_554 S
C543 C540 1.539 . S
C543 H557 0.958 . S
C543 H558 0.961 . S
C543 H559 0.960 . S
H544 C528 0.931 . S
H545 C533 0.929 . S
H546 C534 0.960 . S
H547 C534 0.962 . S
H548 C534 0.960 . S
H549 C535 0.961 . S
H550 C535 0.961 . S
H551 C535 0.961 . S
H552 C536 0.931 . S
H553 C541 0.930 . S
H554 C542 0.956 . S
H555 C542 0.961 . S
H556 C542 0.960 1_556 S
H557 C543 0.958 . S
H558 C543 0.961 . S
H559 C543 0.960 . S
C560 C561 1.391 . S
C560 C562 1.394 . S
C560 H576 0.931 . S
C561 C560 1.391 . S
C561 C565 1.376 . S
C562 C560 1.394 . S
C562 C563 1.369 . S
C562 C566 1.531 . S
C563 C562 1.369 . S
C563 C564 1.410 . S
C563 C571 1.503 . S
C564 C563 1.410 . S
C564 C565 1.392 . S
C564 C567 1.511 . S
C565 C561 1.376 . S
C565 C564 1.392 . S
C565 H577 0.929 . S
C566 C562 1.531 . S
C566 H578 0.960 . S
C566 H579 0.962 . S
C566 H580 0.960 . S
C567 C564 1.511 . S
C567 H581 0.961 . S
C567 H582 0.961 . S
C567 H583 0.961 . S
C568 C569 1.370 . S
C568 C570 1.363 . S
C568 H584 0.931 . S
C569 C568 1.370 . S
C569 C573 1.408 . S
C570 C568 1.363 . S
C570 C571 1.370 . S
C570 C574 1.524 . S
C571 C563 1.503 . S
C571 C570 1.370 . S
C571 C572 1.403 . S
C572 C571 1.403 . S
C572 C573 1.404 . S
C572 C575 1.539 . S
C573 C569 1.408 . S
C573 C572 1.404 . S
C573 H585 0.930 . S
C574 C570 1.524 . S
C574 H586 0.956 . S
C574 H587 0.961 . S
C574 H588 0.961 . S
C575 C572 1.539 . S
C575 H589 0.958 . S
C575 H590 0.961 . S
C575 H591 0.960 . S
H576 C560 0.931 . S
H577 C565 0.929 . S
H578 C566 0.960 . S
H579 C566 0.962 . S
H580 C566 0.960 . S
H581 C567 0.961 . S
H582 C567 0.961 . S
H583 C567 0.961 . S
H584 C568 0.931 . S
H585 C573 0.930 . S
H586 C574 0.956 . S
H587 C574 0.961 . S
H588 C574 0.961 . S
H589 C575 0.958 . S
H590 C575 0.961 . S
H591 C575 0.960 . S
C592 C593 1.391 . S
C592 C594 1.394 . S
C592 H608 0.931 . S
C593 C592 1.391 . S
C593 C597 1.376 . S
C594 C592 1.394 . S
C594 C595 1.369 . S
C594 C598 1.531 . S
C595 C594 1.369 . S
C595 C596 1.410 . S
C595 C603 1.503 . S
C596 C595 1.410 . S
C596 C597 1.392 . S
C596 C599 1.511 . S
C597 C593 1.376 . S
C597 C596 1.392 . S
C597 H609 0.929 . S
C598 C594 1.531 . S
C598 H610 0.960 . S
C598 H611 0.962 . S
C598 H612 0.960 . S
C599 C596 1.511 . S
C599 H613 0.961 . S
C599 H614 0.961 . S
C599 H615 0.961 . S
C600 C601 1.370 . S
C600 C602 1.363 . S
C600 H616 0.931 . S
C601 C600 1.370 . S
C601 C605 1.408 . S
C602 C600 1.363 . S
C602 C603 1.370 . S
C602 C606 1.524 . S
C603 C595 1.503 . S
C603 C602 1.370 . S
C603 C604 1.403 . S
C604 C603 1.403 . S
C604 C605 1.404 . S
C604 C607 1.539 . S
C605 C601 1.408 . S
C605 C604 1.404 . S
C605 H617 0.930 . S
C606 C602 1.524 . S
C606 H618 0.956 . S
C606 H619 0.961 . S
C606 H620 0.961 . S
C607 C604 1.539 . S
C607 H621 0.958 . S
C607 H622 0.961 . S
C607 H623 0.960 . S
H608 C592 0.931 . S
H609 C597 0.929 . S
H610 C598 0.960 . S
H611 C598 0.962 . S
H612 C598 0.960 . S
H613 C599 0.961 . S
H614 C599 0.961 . S
H615 C599 0.961 . S
H616 C600 0.931 . S
H617 C605 0.930 . S
H618 C606 0.956 . S
H619 C606 0.961 . S
H620 C606 0.961 . S
H621 C607 0.958 . S
H622 C607 0.961 . S
H623 C607 0.960 . S
C624 C625 1.391 . S
C624 C626 1.394 . S
C624 H640 0.931 . S
C625 C624 1.391 . S
C625 C629 1.376 . S
C626 C624 1.394 . S
C626 C627 1.369 . S
C626 C630 1.531 . S
C627 C626 1.369 . S
C627 C628 1.410 . S
C627 C635 1.503 1_565 S
C628 C627 1.410 . S
C628 C629 1.392 . S
C628 C631 1.511 . S
C629 C625 1.376 . S
C629 C628 1.392 . S
C629 H641 0.929 . S
C630 C626 1.531 . S
C630 H642 0.960 1_565 S
C630 H643 0.962 . S
C630 H644 0.960 . S
C631 C628 1.511 . S
C631 H645 0.961 . S
C631 H646 0.961 1_565 S
C631 H647 0.961 . S
C632 C633 1.370 . S
C632 C634 1.363 . S
C632 H648 0.931 . S
C633 C632 1.370 . S
C633 C637 1.408 . S
C634 C632 1.363 . S
C634 C635 1.370 . S
C634 C638 1.524 . S
C635 C627 1.503 1_545 S
C635 C634 1.370 . S
C635 C636 1.403 . S
C636 C635 1.403 . S
C636 C637 1.404 . S
C636 C639 1.539 . S
C637 C633 1.408 . S
C637 C636 1.404 . S
C637 H649 0.930 . S
C638 C634 1.524 . S
C638 H650 0.956 . S
C638 H651 0.961 1_545 S
C638 H652 0.961 . S
C639 C636 1.539 . S
C639 H653 0.958 . S
C639 H654 0.961 . S
C639 H655 0.971 . S
H640 C624 0.931 . S
H641 C629 0.929 . S
H642 C630 0.960 1_545 S
H643 C630 0.962 . S
H644 C630 0.960 . S
H645 C631 0.961 . S
H646 C631 0.961 1_545 S
H647 C631 0.961 . S
H648 C632 0.931 . S
H649 C637 0.930 . S
H650 C638 0.956 . S
H651 C638 0.961 1_565 S
H652 C638 0.961 . S
H653 C639 0.958 . S
H654 C639 0.961 . S
H655 C639 0.971 . S
C656 C657 1.391 . S
C656 C658 1.394 . S
C656 H672 0.931 . S
C657 C656 1.391 . S
C657 C661 1.376 . S
C658 C656 1.394 . S
C658 C659 1.369 . S
C658 C662 1.531 . S
C659 C658 1.369 . S
C659 C660 1.410 . S
C659 C667 1.503 1_565 S
C660 C659 1.410 . S
C660 C661 1.392 . S
C660 C663 1.511 . S
C661 C657 1.376 . S
C661 C660 1.392 . S
C661 H673 0.929 . S
C662 C658 1.531 . S
C662 H674 0.960 1_565 S
C662 H675 0.962 . S
C662 H676 0.960 . S
C663 C660 1.511 . S
C663 H677 0.961 . S
C663 H678 0.961 1_565 S
C663 H679 0.961 . S
C664 C665 1.370 . S
C664 C666 1.363 . S
C664 H680 0.931 . S
C665 C664 1.370 . S
C665 C669 1.408 . S
C666 C664 1.363 . S
C666 C667 1.370 . S
C666 C670 1.524 . S
C667 C659 1.503 1_545 S
C667 C666 1.370 . S
C667 C668 1.403 . S
C668 C667 1.403 . S
C668 C669 1.404 . S
C668 C671 1.539 . S
C669 C665 1.408 . S
C669 C668 1.404 . S
C669 H681 0.930 . S
C670 C666 1.524 . S
C670 H682 0.956 . S
C670 H683 0.961 1_545 S
C670 H684 0.961 . S
C671 C668 1.539 . S
C671 H685 0.958 . S
C671 H686 0.961 . S
C671 H687 0.971 . S
H672 C656 0.931 . S
H673 C661 0.929 . S
H674 C662 0.960 1_545 S
H675 C662 0.962 . S
H676 C662 0.960 . S
H677 C663 0.961 . S
H678 C663 0.961 1_545 S
H679 C663 0.961 . S
H680 C664 0.931 . S
H681 C669 0.930 . S
H682 C670 0.956 . S
H683 C670 0.961 1_565 S
H684 C670 0.961 . S
H685 C671 0.958 . S
H686 C671 0.961 . S
H687 C671 0.971 . S
C688 C689 1.391 . S
C688 C690 1.394 . S
C688 H704 0.931 . S
C689 C688 1.391 . S
C689 C693 1.376 . S
C690 C688 1.394 . S
C690 C691 1.369 . S
C690 C694 1.531 . S
C691 C690 1.369 . S
C691 C692 1.410 . S
C691 C699 1.503 . S
C692 C691 1.410 . S
C692 C693 1.392 . S
C692 C695 1.511 . S
C693 C689 1.376 . S
C693 C692 1.392 . S
C693 H705 0.929 . S
C694 C690 1.531 . S
C694 H706 0.960 . S
C694 H707 0.962 . S
C694 H708 0.960 . S
C695 C692 1.511 . S
C695 H709 0.961 . S
C695 H710 0.961 . S
C695 H711 0.961 . S
C696 C697 1.370 . S
C696 C698 1.363 . S
C696 H712 0.931 . S
C697 C696 1.370 . S
C697 C701 1.408 . S
C698 C696 1.363 . S
C698 C699 1.370 . S
C698 C702 1.524 . S
C699 C691 1.503 . S
C699 C698 1.370 . S
C699 C700 1.403 . S
C700 C699 1.403 . S
C700 C701 1.404 . S
C700 C703 1.539 . S
C701 C697 1.408 . S
C701 C700 1.404 . S
C701 H713 0.930 . S
C702 C698 1.524 . S
C702 H714 0.956 . S
C702 H715 0.961 . S
C702 H716 0.961 . S
C703 C700 1.539 . S
C703 H717 0.958 . S
C703 H718 0.961 . S
C703 H719 0.960 . S
H704 C688 0.931 . S
H705 C693 0.929 . S
H706 C694 0.960 . S
H707 C694 0.962 . S
H708 C694 0.960 . S
H709 C695 0.961 . S
H710 C695 0.961 . S
H711 C695 0.961 . S
H712 C696 0.931 . S
H713 C701 0.930 . S
H714 C702 0.956 . S
H715 C702 0.961 . S
H716 C702 0.961 . S
H717 C703 0.958 . S
H718 C703 0.961 . S
H719 C703 0.960 . S
C720 C721 1.391 . S
C720 C722 1.394 . S
C720 H736 0.931 . S
C721 C720 1.391 . S
C721 C725 1.376 . S
C722 C720 1.394 . S
C722 C723 1.369 . S
C722 C726 1.531 . S
C723 C722 1.369 . S
C723 C724 1.410 . S
C723 C731 1.503 . S
C724 C723 1.410 . S
C724 C725 1.392 . S
C724 C727 1.511 . S
C725 C721 1.376 . S
C725 C724 1.392 . S
C725 H737 0.929 . S
C726 C722 1.531 . S
C726 H738 0.960 . S
C726 H739 0.962 . S
C726 H740 0.960 . S
C727 C724 1.511 . S
C727 H741 0.961 . S
C727 H742 0.961 . S
C727 H743 0.961 . S
C728 C729 1.370 . S
C728 C730 1.363 . S
C728 H744 0.931 . S
C729 C728 1.370 . S
C729 C733 1.408 . S
C730 C728 1.363 . S
C730 C731 1.370 . S
C730 C734 1.524 . S
C731 C723 1.503 . S
C731 C730 1.370 . S
C731 C732 1.403 . S
C732 C731 1.403 . S
C732 C733 1.404 . S
C732 C735 1.539 . S
C733 C729 1.408 . S
C733 C732 1.404 . S
C733 H745 0.930 . S
C734 C730 1.524 . S
C734 H746 0.956 . S
C734 H747 0.961 . S
C734 H748 0.961 . S
C735 C732 1.539 . S
C735 H749 0.958 . S
C735 H750 0.961 . S
C735 H751 0.960 . S
H736 C720 0.931 . S
H737 C725 0.929 . S
H738 C726 0.960 . S
H739 C726 0.962 . S
H740 C726 0.960 . S
H741 C727 0.961 . S
H742 C727 0.961 . S
H743 C727 0.961 . S
H744 C728 0.931 . S
H745 C733 0.930 . S
H746 C734 0.956 . S
H747 C734 0.961 . S
H748 C734 0.961 . S
H749 C735 0.958 . S
H750 C735 0.961 . S
H751 C735 0.960 . S
C752 C753 1.391 . S
C752 C754 1.394 . S
C752 H768 0.931 . S
C753 C752 1.391 . S
C753 C757 1.376 . S
C754 C752 1.394 . S
C754 C755 1.369 . S
C754 C758 1.531 . S
C755 C754 1.369 . S
C755 C756 1.410 . S
C755 C763 1.503 . S
C756 C755 1.410 . S
C756 C757 1.392 . S
C756 C759 1.511 . S
C757 C753 1.376 . S
C757 C756 1.392 . S
C757 H769 0.929 . S
C758 C754 1.531 . S
C758 H770 0.960 . S
C758 H771 0.962 . S
C758 H772 0.960 . S
C759 C756 1.511 . S
C759 H773 0.961 . S
C759 H774 0.961 . S
C759 H775 0.961 . S
C760 C761 1.370 . S
C760 C762 1.363 . S
C760 H776 0.931 . S
C761 C760 1.370 . S
C761 C765 1.408 . S
C762 C760 1.363 . S
C762 C763 1.370 . S
C762 C766 1.524 . S
C763 C755 1.503 . S
C763 C762 1.370 . S
C763 C764 1.403 . S
C764 C763 1.403 . S
C764 C765 1.404 . S
C764 C767 1.539 . S
C765 C761 1.408 . S
C765 C764 1.404 . S
C765 H777 0.930 . S
C766 C762 1.524 . S
C766 H778 0.956 . S
C766 H779 0.961 . S
C766 H780 0.961 . S
C767 C764 1.539 . S
C767 H781 0.958 . S
C767 H782 0.961 . S
C767 H783 0.960 . S
H768 C752 0.931 . S
H769 C757 0.929 . S
H770 C758 0.960 . S
H771 C758 0.962 . S
H772 C758 0.960 . S
H773 C759 0.961 . S
H774 C759 0.961 . S
H775 C759 0.961 . S
H776 C760 0.931 . S
H777 C765 0.930 . S
H778 C766 0.956 . S
H779 C766 0.961 . S
H780 C766 0.961 . S
H781 C767 0.958 . S
H782 C767 0.961 . S
H783 C767 0.960 . S
C784 C785 1.391 . S
C784 C786 1.394 . S
C784 H800 0.931 . S
C785 C784 1.391 . S
C785 C789 1.376 . S
C786 C784 1.394 . S
C786 C787 1.369 . S
C786 C790 1.531 . S
C787 C786 1.369 . S
C787 C788 1.410 . S
C787 C795 1.503 . S
C788 C787 1.410 . S
C788 C789 1.392 . S
C788 C791 1.511 . S
C789 C785 1.376 . S
C789 C788 1.392 . S
C789 H801 0.929 . S
C790 C786 1.531 . S
C790 H802 0.960 . S
C790 H803 0.962 . S
C790 H804 0.960 . S
C791 C788 1.511 . S
C791 H805 0.961 . S
C791 H806 0.961 . S
C791 H807 0.961 . S
C792 C793 1.370 . S
C792 C794 1.363 . S
C792 H808 0.931 . S
C793 C792 1.370 . S
C793 C797 1.408 . S
C794 C792 1.363 . S
C794 C795 1.370 . S
C794 C798 1.524 . S
C795 C787 1.503 . S
C795 C794 1.370 . S
C795 C796 1.403 . S
C796 C795 1.403 . S
C796 C797 1.404 . S
C796 C799 1.539 . S
C797 C793 1.408 . S
C797 C796 1.404 . S
C797 H809 0.930 . S
C798 C794 1.524 . S
C798 H810 0.956 . S
C798 H811 0.961 . S
C798 H812 0.961 . S
C799 C796 1.539 . S
C799 H813 0.958 . S
C799 H814 0.961 . S
C799 H815 0.960 . S
H800 C784 0.931 . S
H801 C789 0.929 . S
H802 C790 0.960 . S
H803 C790 0.962 . S
H804 C790 0.960 . S
H805 C791 0.961 . S
H806 C791 0.961 . S
H807 C791 0.961 . S
H808 C792 0.931 . S
H809 C797 0.930 . S
H810 C798 0.956 . S
H811 C798 0.961 . S
H812 C798 0.961 . S
H813 C799 0.958 . S
H814 C799 0.961 . S
H815 C799 0.960 . S
C816 C817 1.391 . S
C816 C818 1.394 . S
C816 H832 0.931 . S
C817 C816 1.391 . S
C817 C821 1.376 . S
C818 C816 1.394 . S
C818 C819 1.369 . S
C818 C822 1.531 . S
C819 C818 1.369 . S
C819 C820 1.410 . S
C819 C827 1.503 1_554 S
C820 C819 1.410 . S
C820 C821 1.392 . S
C820 C823 1.511 1_554 S
C821 C817 1.376 . S
C821 C820 1.392 . S
C821 H833 0.929 . S
C822 C818 1.531 . S
C822 H834 0.960 . S
C822 H835 0.962 . S
C822 H836 0.960 . S
C823 C820 1.511 1_556 S
C823 H837 0.961 . S
C823 H838 0.961 . S
C823 H839 0.961 . S
C824 C825 1.370 . S
C824 C826 1.363 . S
C824 H840 0.931 . S
C825 C824 1.370 . S
C825 C829 1.408 . S
C826 C824 1.363 . S
C826 C827 1.370 . S
C826 C830 1.524 . S
C827 C819 1.503 1_556 S
C827 C826 1.370 . S
C827 C828 1.403 . S
C828 C827 1.403 . S
C828 C829 1.404 . S
C828 C831 1.539 . S
C829 C825 1.408 . S
C829 C828 1.404 . S
C829 H841 0.930 . S
C830 C826 1.524 . S
C830 H842 0.956 1_556 S
C830 H843 0.961 . S
C830 H844 0.961 . S
C831 C828 1.539 . S
C831 H845 0.958 . S
C831 H846 0.961 . S
C831 H847 0.960 . S
H832 C816 0.931 . S
H833 C821 0.929 . S
H834 C822 0.960 . S
H835 C822 0.962 . S
H836 C822 0.960 . S
H837 C823 0.961 . S
H838 C823 0.961 . S
H839 C823 0.961 . S
H840 C824 0.931 . S
H841 C829 0.930 . S
H842 C830 0.956 1_554 S
H843 C830 0.961 . S
H844 C830 0.961 . S
H845 C831 0.958 . S
H846 C831 0.961 . S
H847 C831 0.960 . S
C848 C849 1.391 . S
C848 C850 1.394 . S
C848 H864 0.931 . S
C849 C848 1.391 . S
C849 C853 1.376 . S
C850 C848 1.394 . S
C850 C851 1.369 . S
C850 C854 1.531 . S
C851 C850 1.369 . S
C851 C852 1.410 . S
C851 C859 1.503 1_554 S
C852 C851 1.410 . S
C852 C853 1.392 . S
C852 C855 1.511 1_554 S
C853 C849 1.376 . S
C853 C852 1.392 . S
C853 H865 0.929 . S
C854 C850 1.531 . S
C854 H866 0.960 . S
C854 H867 0.962 . S
C854 H868 0.960 . S
C855 C852 1.511 1_556 S
C855 H869 0.961 1_556 S
C855 H870 0.961 . S
C855 H871 0.961 . S
C856 C857 1.370 . S
C856 C858 1.363 . S
C856 H872 0.931 . S
C857 C856 1.370 . S
C857 C861 1.408 . S
C858 C856 1.363 . S
C858 C859 1.370 . S
C858 C862 1.524 1_556 S
C859 C851 1.503 1_556 S
C859 C858 1.370 . S
C859 C860 1.403 . S
C860 C859 1.403 . S
C860 C861 1.404 . S
C860 C863 1.539 . S
C861 C857 1.408 . S
C861 C860 1.404 . S
C861 H873 0.930 . S
C862 C858 1.524 1_554 S
C862 H874 0.956 . S
C862 H875 0.961 . S
C862 H876 0.961 1_554 S
C863 C860 1.539 . S
C863 H877 0.958 . S
C863 H878 0.961 . S
C863 H879 0.960 . S
H864 C848 0.931 . S
H865 C853 0.929 . S
H866 C854 0.960 . S
H867 C854 0.962 . S
H868 C854 0.960 . S
H869 C855 0.961 1_554 S
H870 C855 0.961 . S
H871 C855 0.961 . S
H872 C856 0.931 . S
H873 C861 0.930 . S
H874 C862 0.956 . S
H875 C862 0.961 . S
H876 C862 0.961 1_556 S
H877 C863 0.958 . S
H878 C863 0.961 . S
H879 C863 0.960 . S
C880 C881 1.391 . S
C880 C882 1.394 . S
C880 H896 0.931 . S
C881 C880 1.391 . S
C881 C885 1.376 . S
C882 C880 1.394 . S
C882 C883 1.369 . S
C882 C886 1.531 . S
C883 C882 1.369 . S
C883 C884 1.410 . S
C883 C891 1.503 1_556 S
C884 C883 1.410 . S
C884 C885 1.392 . S
C884 C887 1.511 . S
C885 C881 1.376 . S
C885 C884 1.392 . S
C885 H897 0.929 . S
C886 C882 1.531 . S
C886 H898 0.960 1_556 S
C886 H899 0.962 1_556 S
C886 H900 0.960 . S
C887 C884 1.511 . S
C887 H901 0.961 . S
C887 H902 0.961 . S
C887 H903 0.961 . S
C888 C889 1.370 . S
C888 C890 1.363 . S
C888 H904 0.931 . S
C889 C888 1.370 . S
C889 C893 1.408 . S
C890 C888 1.363 . S
C890 C891 1.370 . S
C890 C894 1.524 . S
C891 C883 1.503 1_554 S
C891 C890 1.370 . S
C891 C892 1.403 . S
C892 C891 1.403 . S
C892 C893 1.404 . S
C892 C895 1.539 . S
C893 C889 1.408 . S
C893 C892 1.404 . S
C893 H905 0.930 . S
C894 C890 1.524 . S
C894 H906 0.956 . S
C894 H907 0.961 . S
C894 H908 0.961 . S
C895 C892 1.539 . S
C895 H909 0.958 . S
C895 H910 0.961 . S
C895 H911 0.960 1_554 S
H896 C880 0.931 . S
H897 C885 0.929 . S
H898 C886 0.960 1_554 S
H899 C886 0.962 1_554 S
H900 C886 0.960 . S
H901 C887 0.961 . S
H902 C887 0.961 . S
H903 C887 0.961 . S
H904 C888 0.931 . S
H905 C893 0.930 . S
H906 C894 0.956 . S
H907 C894 0.961 . S
H908 C894 0.961 . S
H909 C895 0.958 . S
H910 C895 0.961 . S
H911 C895 0.960 1_556 S
C912 C913 1.391 . S
C912 C914 1.394 . S
C912 H928 0.931 . S
C913 C912 1.391 . S
C913 C917 1.376 . S
C914 C912 1.394 . S
C914 C915 1.369 . S
C914 C918 1.531 1_554 S
C915 C914 1.369 . S
C915 C916 1.410 . S
C915 C923 1.503 1_554 S
C916 C915 1.410 . S
C916 C917 1.392 . S
C916 C919 1.511 . S
C917 C913 1.376 . S
C917 C916 1.392 . S
C917 H929 0.929 . S
C918 C914 1.531 1_556 S
C918 H930 0.960 . S
C918 H931 0.962 . S
C918 H932 0.960 1_556 S
C919 C916 1.511 . S
C919 H933 0.961 . S
C919 H934 0.961 . S
C919 H935 0.961 . S
C920 C921 1.370 . S
C920 C922 1.363 . S
C920 H936 0.931 . S
C921 C920 1.370 . S
C921 C925 1.408 . S
C922 C920 1.363 . S
C922 C923 1.370 . S
C922 C926 1.524 . S
C923 C915 1.503 1_556 S
C923 C922 1.370 . S
C923 C924 1.403 . S
C924 C923 1.403 . S
C924 C925 1.404 . S
C924 C927 1.539 . S
C925 C921 1.408 . S
C925 C924 1.404 . S
C925 H937 0.930 . S
C926 C922 1.524 . S
C926 H938 0.956 . S
C926 H939 0.961 . S
C926 H940 0.961 . S
C927 C924 1.539 . S
C927 H941 0.958 . S
C927 H942 0.961 . S
C927 H943 0.960 1_556 S
H928 C912 0.931 . S
H929 C917 0.929 . S
H930 C918 0.960 . S
H931 C918 0.962 . S
H932 C918 0.960 1_554 S
H933 C919 0.961 . S
H934 C919 0.961 . S
H935 C919 0.961 . S
H936 C920 0.931 . S
H937 C925 0.930 . S
H938 C926 0.956 . S
H939 C926 0.961 . S
H940 C926 0.961 . S
H941 C927 0.958 . S
H942 C927 0.961 . S
H943 C927 0.960 1_554 S
C177 C160 1.249 . S
C185 C5 1.236 . S
C209 C31 1.250 . S
C217 C139 1.268 . S
C241 C115 1.284 . S
C249 C50 1.216 . S
C273 C73 1.185 . S
C281 C97 1.278 . S
C305 C72 1.304 . S
C313 C93 1.230 . S
C337 C51 1.249 . S
C345 C119 1.235 . S
C369 C27 1.299 . S
C377 C138 1.225 . S
C401 C9 1.249 . S
C409 C161 1.234 . S
C433 C26 1.841 . S
C441 C8 1.848 . S
C465 C70 1.847 . S
C473 C52 1.849 . S
C497 C96 1.849 . S
C505 C114 1.852 . S
C529 C158 1.841 . S
C537 C140 1.849 . S
C561 C74 1.447 . S
C569 C4 1.452 . S
C593 C48 1.453 . S
C601 C30 1.450 . S
C625 C92 1.413 . S
C633 C162 1.434 . S
C657 C118 1.478 . S
C665 C136 1.463 . S
C689 C137 1.747 . S
C697 C6 1.786 . S
C721 C29 1.763 . S
C729 C163 1.776 . S
C753 C94 1.764 . S
C761 C49 1.776 . S
C785 C117 1.799 . S
C793 C75 1.762 . S
C817 C7 0.857 . S
C825 C141 0.763 . S
C849 C159 0.761 . S
C857 C28 0.801 . S
C881 C53 0.819 . S
C889 C95 0.786 . S
C913 C71 0.835 . S
C921 C116 0.778 . S
