# Generated by pormake.
# Topology wlh, (5)-cn, num edge types: 1
# Building blocks:
#     Node 0, Type 0, BuildingBlock: XOMCOT_clean_sbu_1, # of connection points: 5
#     Node 1, Type 0, BuildingBlock: XOMCOT_clean_sbu_1, # of connection points: 5
#     Node 2, Type 0, BuildingBlock: XOMCOT_clean_sbu_1, # of connection points: 5
#     Node 3, Type 0, BuildingBlock: XOMCOT_clean_sbu_1, # of connection points: 5
#     Node 4, Type 0, BuildingBlock: XOMCOT_clean_sbu_1, # of connection points: 5
#     Node 5, Type 0, BuildingBlock: XOMCOT_clean_sbu_1, # of connection points: 5
#     Node 6, Type 0, BuildingBlock: XOMCOT_clean_sbu_1, # of connection points: 5
#     Node 7, Type 0, BuildingBlock: XOMCOT_clean_sbu_1, # of connection points: 5
#     Node 8, Type 0, BuildingBlock: XOMCOT_clean_sbu_1, # of connection points: 5
#     Node 9, Type 0, BuildingBlock: XOMCOT_clean_sbu_1, # of connection points: 5
#     Node 10, Type 0, BuildingBlock: XOMCOT_clean_sbu_1, # of connection points: 5
#     Node 11, Type 0, BuildingBlock: XOMCOT_clean_sbu_1, # of connection points: 5
#     Node 12, Type 0, BuildingBlock: XOMCOT_clean_sbu_1, # of connection points: 5
#     Node 13, Type 0, BuildingBlock: XOMCOT_clean_sbu_1, # of connection points: 5
#     Node 14, Type 0, BuildingBlock: XOMCOT_clean_sbu_1, # of connection points: 5
#     Node 15, Type 0, BuildingBlock: XOMCOT_clean_sbu_1, # of connection points: 5
#     Node 16, Type 0, BuildingBlock: XOMCOT_clean_sbu_1, # of connection points: 5
#     Node 17, Type 0, BuildingBlock: XOMCOT_clean_sbu_1, # of connection points: 5
#     Node 18, Type 0, BuildingBlock: XOMCOT_clean_sbu_1, # of connection points: 5
#     Node 19, Type 0, BuildingBlock: XOMCOT_clean_sbu_1, # of connection points: 5
#     Node 20, Type 0, BuildingBlock: XOMCOT_clean_sbu_1, # of connection points: 5
#     Node 21, Type 0, BuildingBlock: XOMCOT_clean_sbu_1, # of connection points: 5
#     Node 22, Type 0, BuildingBlock: XOMCOT_clean_sbu_1, # of connection points: 5
#     Node 23, Type 0, BuildingBlock: XOMCOT_clean_sbu_1, # of connection points: 5
#     Node 24, Type 0, BuildingBlock: XOMCOT_clean_sbu_1, # of connection points: 5
#     Node 25, Type 0, BuildingBlock: XOMCOT_clean_sbu_1, # of connection points: 5
#     Node 26, Type 0, BuildingBlock: XOMCOT_clean_sbu_1, # of connection points: 5
#     Node 27, Type 0, BuildingBlock: XOMCOT_clean_sbu_1, # of connection points: 5
#     Node 28, Type 0, BuildingBlock: XOMCOT_clean_sbu_1, # of connection points: 5
#     Node 29, Type 0, BuildingBlock: XOMCOT_clean_sbu_1, # of connection points: 5
#     Node 30, Type 0, BuildingBlock: XOMCOT_clean_sbu_1, # of connection points: 5
#     Node 31, Type 0, BuildingBlock: XOMCOT_clean_sbu_1, # of connection points: 5
#     Node 32, Type 0, BuildingBlock: XOMCOT_clean_sbu_1, # of connection points: 5
#     Node 33, Type 0, BuildingBlock: XOMCOT_clean_sbu_1, # of connection points: 5
#     Node 34, Type 0, BuildingBlock: XOMCOT_clean_sbu_1, # of connection points: 5
#     Node 35, Type 0, BuildingBlock: XOMCOT_clean_sbu_1, # of connection points: 5
#     Edge 36, Type (0, 0), BuildingBlock: UVAHIK_clean_linker_0, # of connection points: 2
#     Edge 37, Type (0, 0), BuildingBlock: UVAHIK_clean_linker_0, # of connection points: 2
#     Edge 38, Type (0, 0), BuildingBlock: UVAHIK_clean_linker_0, # of connection points: 2
#     Edge 39, Type (0, 0), BuildingBlock: UVAHIK_clean_linker_0, # of connection points: 2
#     Edge 40, Type (0, 0), BuildingBlock: UVAHIK_clean_linker_0, # of connection points: 2
#     Edge 41, Type (0, 0), BuildingBlock: UVAHIK_clean_linker_0, # of connection points: 2
#     Edge 42, Type (0, 0), BuildingBlock: UVAHIK_clean_linker_0, # of connection points: 2
#     Edge 43, Type (0, 0), BuildingBlock: UVAHIK_clean_linker_0, # of connection points: 2
#     Edge 44, Type (0, 0), BuildingBlock: UVAHIK_clean_linker_0, # of connection points: 2
#     Edge 45, Type (0, 0), BuildingBlock: UVAHIK_clean_linker_0, # of connection points: 2
#     Edge 46, Type (0, 0), BuildingBlock: UVAHIK_clean_linker_0, # of connection points: 2
#     Edge 47, Type (0, 0), BuildingBlock: UVAHIK_clean_linker_0, # of connection points: 2
#     Edge 48, Type (0, 0), BuildingBlock: UVAHIK_clean_linker_0, # of connection points: 2
#     Edge 49, Type (0, 0), BuildingBlock: UVAHIK_clean_linker_0, # of connection points: 2
#     Edge 50, Type (0, 0), BuildingBlock: UVAHIK_clean_linker_0, # of connection points: 2
#     Edge 51, Type (0, 0), BuildingBlock: UVAHIK_clean_linker_0, # of connection points: 2
#     Edge 52, Type (0, 0), BuildingBlock: UVAHIK_clean_linker_0, # of connection points: 2
#     Edge 53, Type (0, 0), BuildingBlock: UVAHIK_clean_linker_0, # of connection points: 2
#     Edge 54, Type (0, 0), BuildingBlock: UVAHIK_clean_linker_0, # of connection points: 2
#     Edge 55, Type (0, 0), BuildingBlock: UVAHIK_clean_linker_0, # of connection points: 2
#     Edge 56, Type (0, 0), BuildingBlock: UVAHIK_clean_linker_0, # of connection points: 2
#     Edge 57, Type (0, 0), BuildingBlock: UVAHIK_clean_linker_0, # of connection points: 2
#     Edge 58, Type (0, 0), BuildingBlock: UVAHIK_clean_linker_0, # of connection points: 2
#     Edge 59, Type (0, 0), BuildingBlock: UVAHIK_clean_linker_0, # of connection points: 2
#     Edge 60, Type (0, 0), BuildingBlock: UVAHIK_clean_linker_0, # of connection points: 2
#     Edge 61, Type (0, 0), BuildingBlock: UVAHIK_clean_linker_0, # of connection points: 2
#     Edge 62, Type (0, 0), BuildingBlock: UVAHIK_clean_linker_0, # of connection points: 2
#     Edge 63, Type (0, 0), BuildingBlock: UVAHIK_clean_linker_0, # of connection points: 2
#     Edge 64, Type (0, 0), BuildingBlock: UVAHIK_clean_linker_0, # of connection points: 2
#     Edge 65, Type (0, 0), BuildingBlock: UVAHIK_clean_linker_0, # of connection points: 2
#     Edge 66, Type (0, 0), BuildingBlock: UVAHIK_clean_linker_0, # of connection points: 2
#     Edge 67, Type (0, 0), BuildingBlock: UVAHIK_clean_linker_0, # of connection points: 2
#     Edge 68, Type (0, 0), BuildingBlock: UVAHIK_clean_linker_0, # of connection points: 2
#     Edge 69, Type (0, 0), BuildingBlock: UVAHIK_clean_linker_0, # of connection points: 2
#     Edge 70, Type (0, 0), BuildingBlock: UVAHIK_clean_linker_0, # of connection points: 2
#     Edge 71, Type (0, 0), BuildingBlock: UVAHIK_clean_linker_0, # of connection points: 2
#     Edge 72, Type (0, 0), BuildingBlock: UVAHIK_clean_linker_0, # of connection points: 2
#     Edge 73, Type (0, 0), BuildingBlock: UVAHIK_clean_linker_0, # of connection points: 2
#     Edge 74, Type (0, 0), BuildingBlock: UVAHIK_clean_linker_0, # of connection points: 2
#     Edge 75, Type (0, 0), BuildingBlock: UVAHIK_clean_linker_0, # of connection points: 2
#     Edge 76, Type (0, 0), BuildingBlock: UVAHIK_clean_linker_0, # of connection points: 2
#     Edge 77, Type (0, 0), BuildingBlock: UVAHIK_clean_linker_0, # of connection points: 2
#     Edge 78, Type (0, 0), BuildingBlock: UVAHIK_clean_linker_0, # of connection points: 2
#     Edge 79, Type (0, 0), BuildingBlock: UVAHIK_clean_linker_0, # of connection points: 2
#     Edge 80, Type (0, 0), BuildingBlock: UVAHIK_clean_linker_0, # of connection points: 2
#     Edge 81, Type (0, 0), BuildingBlock: UVAHIK_clean_linker_0, # of connection points: 2
#     Edge 82, Type (0, 0), BuildingBlock: UVAHIK_clean_linker_0, # of connection points: 2
#     Edge 83, Type (0, 0), BuildingBlock: UVAHIK_clean_linker_0, # of connection points: 2
#     Edge 84, Type (0, 0), BuildingBlock: UVAHIK_clean_linker_0, # of connection points: 2
#     Edge 85, Type (0, 0), BuildingBlock: UVAHIK_clean_linker_0, # of connection points: 2
#     Edge 86, Type (0, 0), BuildingBlock: UVAHIK_clean_linker_0, # of connection points: 2
#     Edge 87, Type (0, 0), BuildingBlock: UVAHIK_clean_linker_0, # of connection points: 2
#     Edge 88, Type (0, 0), BuildingBlock: UVAHIK_clean_linker_0, # of connection points: 2
#     Edge 89, Type (0, 0), BuildingBlock: UVAHIK_clean_linker_0, # of connection points: 2
#     Edge 90, Type (0, 0), BuildingBlock: UVAHIK_clean_linker_0, # of connection points: 2
#     Edge 91, Type (0, 0), BuildingBlock: UVAHIK_clean_linker_0, # of connection points: 2
#     Edge 92, Type (0, 0), BuildingBlock: UVAHIK_clean_linker_0, # of connection points: 2
#     Edge 93, Type (0, 0), BuildingBlock: UVAHIK_clean_linker_0, # of connection points: 2
#     Edge 94, Type (0, 0), BuildingBlock: UVAHIK_clean_linker_0, # of connection points: 2
#     Edge 95, Type (0, 0), BuildingBlock: UVAHIK_clean_linker_0, # of connection points: 2
#     Edge 96, Type (0, 0), BuildingBlock: UVAHIK_clean_linker_0, # of connection points: 2
#     Edge 97, Type (0, 0), BuildingBlock: UVAHIK_clean_linker_0, # of connection points: 2
#     Edge 98, Type (0, 0), BuildingBlock: UVAHIK_clean_linker_0, # of connection points: 2
#     Edge 99, Type (0, 0), BuildingBlock: UVAHIK_clean_linker_0, # of connection points: 2
#     Edge 100, Type (0, 0), BuildingBlock: UVAHIK_clean_linker_0, # of connection points: 2
#     Edge 101, Type (0, 0), BuildingBlock: UVAHIK_clean_linker_0, # of connection points: 2
#     Edge 102, Type (0, 0), BuildingBlock: UVAHIK_clean_linker_0, # of connection points: 2
#     Edge 103, Type (0, 0), BuildingBlock: UVAHIK_clean_linker_0, # of connection points: 2
#     Edge 104, Type (0, 0), BuildingBlock: UVAHIK_clean_linker_0, # of connection points: 2
#     Edge 105, Type (0, 0), BuildingBlock: UVAHIK_clean_linker_0, # of connection points: 2
#     Edge 106, Type (0, 0), BuildingBlock: UVAHIK_clean_linker_0, # of connection points: 2
#     Edge 107, Type (0, 0), BuildingBlock: UVAHIK_clean_linker_0, # of connection points: 2
#     Edge 108, Type (0, 0), BuildingBlock: UVAHIK_clean_linker_0, # of connection points: 2
#     Edge 109, Type (0, 0), BuildingBlock: UVAHIK_clean_linker_0, # of connection points: 2
#     Edge 110, Type (0, 0), BuildingBlock: UVAHIK_clean_linker_0, # of connection points: 2
#     Edge 111, Type (0, 0), BuildingBlock: UVAHIK_clean_linker_0, # of connection points: 2
#     Edge 112, Type (0, 0), BuildingBlock: UVAHIK_clean_linker_0, # of connection points: 2
#     Edge 113, Type (0, 0), BuildingBlock: UVAHIK_clean_linker_0, # of connection points: 2
#     Edge 114, Type (0, 0), BuildingBlock: UVAHIK_clean_linker_0, # of connection points: 2
#     Edge 115, Type (0, 0), BuildingBlock: UVAHIK_clean_linker_0, # of connection points: 2
#     Edge 116, Type (0, 0), BuildingBlock: UVAHIK_clean_linker_0, # of connection points: 2
#     Edge 117, Type (0, 0), BuildingBlock: UVAHIK_clean_linker_0, # of connection points: 2
#     Edge 118, Type (0, 0), BuildingBlock: UVAHIK_clean_linker_0, # of connection points: 2
#     Edge 119, Type (0, 0), BuildingBlock: UVAHIK_clean_linker_0, # of connection points: 2
#     Edge 120, Type (0, 0), BuildingBlock: UVAHIK_clean_linker_0, # of connection points: 2
#     Edge 121, Type (0, 0), BuildingBlock: UVAHIK_clean_linker_0, # of connection points: 2
#     Edge 122, Type (0, 0), BuildingBlock: UVAHIK_clean_linker_0, # of connection points: 2
#     Edge 123, Type (0, 0), BuildingBlock: UVAHIK_clean_linker_0, # of connection points: 2
#     Edge 124, Type (0, 0), BuildingBlock: UVAHIK_clean_linker_0, # of connection points: 2
#     Edge 125, Type (0, 0), BuildingBlock: UVAHIK_clean_linker_0, # of connection points: 2
# Relax obj value: 0.341
# Max RMSD: 0.232
# Mean RMSD: 0.232
data_MOF--net-wlh--node1-XOMCOT_clean_sbu_1--edge1-UVAHIK_clean_linker_0
_symmetry_space_group_name_H-M    P1
_symmetry_Int_Tables_number       1
_symmetry_cell_setting            triclinic
loop_
_symmetry_equiv_pos_as_xyz
'x, y, z'
_cell_length_a     49.49999
_cell_length_b     49.49577
_cell_length_c     191.69593
_cell_angle_alpha  90.01722
_cell_angle_beta   90.00423
_cell_angle_gamma 120.00953
loop_
_atom_site_label
_atom_site_type_symbol
_atom_site_fract_x
_atom_site_fract_y
_atom_site_fract_z
_atom_type_partial_charge
C0 C 0.15231 0.26521 0.19482 0.0
C1 C 0.16816 0.249 0.19425 0.0
N2 N 0.1555 0.22841 0.18896 0.0
N3 N 0.12965 0.25462 0.18996 0.0
C4 C 0.13237 0.23253 0.18644 0.0
H5 H 0.15671 0.28325 0.19858 0.0
Co6 Co 0.10097 0.26763 0.18844 0.0
C7 C 0.05689 0.21881 0.17887 0.0
O8 O 0.06056 0.23988 0.17422 0.0
N9 N 0.07229 0.28095 0.18688 0.0
C10 C 0.02862 0.28305 0.18617 0.0
C11 C 0.04111 0.26454 0.18781 0.0
C12 C 0.07826 0.30942 0.18478 0.0
N13 N 0.05205 0.31137 0.18426 0.0
O14 O 0.1192 0.28252 0.1795 0.0
H15 H 0.02825 0.24057 0.18957 0.0
H16 H 0.1015 0.32843 0.18373 0.0
O17 O 0.07178 0.22722 0.18462 0.0
C18 C 0.14429 0.3088 0.17959 0.0
O19 O 0.15354 0.32395 0.18554 0.0
N20 N 0.0846 0.25411 0.19736 0.0
C21 C 0.06163 0.23731 0.21084 0.0
C22 C 0.06237 0.21538 0.20634 0.0
C23 C 0.07391 0.22425 0.19959 0.0
C24 C 0.08511 0.27601 0.20175 0.0
C25 C 0.07321 0.26796 0.2085 0.0
H26 H 0.07466 0.20722 0.19619 0.0
H27 H 0.0946 0.29981 0.19998 0.0
H28 H 0.11708 0.2191 0.18221 0.0
H29 H 0.18738 0.25209 0.1975 0.0
H30 H 0.00408 0.27586 0.18625 0.0
H31 H 0.05381 0.19155 0.20801 0.0
H32 H 0.0735 0.28562 0.21189 0.0
C33 C 0.73594 0.88795 0.18842 0.0
C34 C 0.75773 0.91831 0.18691 0.0
N35 N 0.78554 0.92 0.18606 0.0
N36 N 0.74986 0.87053 0.18847 0.0
C37 C 0.78023 0.89074 0.18709 0.0
H38 H 0.71127 0.87886 0.18925 0.0
Co39 Co 0.72707 0.82775 0.18948 0.0
C40 C 0.76992 0.80259 0.18703 0.0
O41 O 0.75192 0.77814 0.19087 0.0
N42 N 0.70197 0.78377 0.19048 0.0
C43 C 0.67144 0.73541 0.19448 0.0
C44 C 0.68959 0.76629 0.19629 0.0
C45 C 0.69073 0.76267 0.18522 0.0
N46 N 0.67205 0.73326 0.18751 0.0
O47 O 0.71294 0.82534 0.18014 0.0
H48 H 0.69303 0.77492 0.20157 0.0
H49 H 0.69631 0.76865 0.17978 0.0
O50 O 0.76265 0.82382 0.18609 0.0
C51 C 0.68534 0.82049 0.17932 0.0
O52 O 0.667 0.81323 0.18479 0.0
N53 N 0.7403 0.83243 0.19877 0.0
C54 C 0.75327 0.83976 0.21301 0.0
C55 C 0.77509 0.84038 0.20825 0.0
C56 C 0.76843 0.83732 0.20113 0.0
C57 C 0.71995 0.83431 0.20326 0.0
C58 C 0.72571 0.83747 0.21042 0.0
H59 H 0.78625 0.83934 0.19761 0.0
H60 H 0.69858 0.83229 0.20125 0.0
H61 H 0.79788 0.88409 0.18661 0.0
H62 H 0.75344 0.93764 0.18642 0.0
H63 H 0.65805 0.71618 0.19801 0.0
H64 H 0.79693 0.84264 0.20999 0.0
H65 H 0.70865 0.8379 0.21388 0.0
C66 C 0.12372 0.85273 0.18883 0.0
C67 C 0.09171 0.83842 0.18877 0.0
N68 N 0.08349 0.8594 0.18671 0.0
N69 N 0.13581 0.88255 0.18676 0.0
C70 C 0.1108 0.88598 0.18554 0.0
H71 H 0.13733 0.84207 0.19031 0.0
Co72 Co 0.1782 0.91093 0.18598 0.0
C73 C 0.18007 0.95799 0.1763 0.0
O74 O 0.20023 0.95558 0.17226 0.0
N75 N 0.22107 0.93948 0.18531 0.0
C76 C 0.26691 0.9833 0.18598 0.0
C77 C 0.23528 0.97021 0.18685 0.0
C78 C 0.24464 0.93443 0.18359 0.0
N79 N 0.2728 0.96073 0.18392 0.0
O80 O 0.17793 0.89383 0.17705 0.0
H81 H 0.22338 0.98245 0.1885 0.0
H82 H 0.24141 0.91186 0.18222 0.0
O83 O 0.16948 0.94096 0.18172 0.0
C84 C 0.18221 0.87053 0.17709 0.0
O85 O 0.18938 0.86226 0.18301 0.0
N86 N 0.17792 0.92587 0.19487 0.0
C87 C 0.18287 0.94667 0.20852 0.0
C88 C 0.16926 0.95617 0.20338 0.0
C89 C 0.16657 0.94513 0.19658 0.0
C90 C 0.19043 0.91574 0.19983 0.0
C91 C 0.19307 0.92579 0.20672 0.0
H92 H 0.15565 0.95241 0.19272 0.0
H93 H 0.19887 0.90013 0.19838 0.0
H94 H 0.1126 0.90773 0.18395 0.0
H95 H 0.07588 0.81432 0.19012 0.0
H96 H 0.28412 0.00767 0.18668 0.0
H97 H 0.16069 0.9719 0.20463 0.0
H98 H 0.20373 0.918 0.21057 0.0
C99 C 0.2671 0.14339 0.29787 0.0
C100 C 0.25017 0.15831 0.29879 0.0
N101 N 0.22606 0.14088 0.30311 0.0
N102 N 0.25364 0.11665 0.30155 0.0
C103 C 0.22889 0.11585 0.30471 0.0
H104 H 0.28792 0.15148 0.29474 0.0
Co105 Co 0.26764 0.08837 0.30223 0.0
C106 C 0.21784 0.03838 0.31063 0.0
O107 O 0.23822 0.04068 0.31533 0.0
N108 N 0.28186 0.05985 0.30289 0.0
C109 C 0.28506 0.01688 0.30173 0.0
C110 C 0.26692 0.03019 0.30052 0.0
C111 C 0.30905 0.06405 0.30549 0.0
N112 N 0.31163 0.0382 0.30488 0.0
O113 O 0.27982 0.10184 0.31158 0.0
H114 H 0.24432 0.019 0.29801 0.0
H115 H 0.32649 0.08556 0.30785 0.0
O116 O 0.22691 0.05621 0.30531 0.0
C117 C 0.30654 0.12608 0.31223 0.0
O118 O 0.32443 0.13728 0.30669 0.0
N119 N 0.2568 0.07711 0.29292 0.0
C120 C 0.24433 0.06056 0.27895 0.0
C121 C 0.22009 0.05488 0.28356 0.0
C122 C 0.22689 0.06382 0.29052 0.0
C123 C 0.28082 0.08393 0.28847 0.0
C124 C 0.27509 0.0758 0.28143 0.0
H125 H 0.20811 0.06019 0.29395 0.0
H126 H 0.30449 0.09531 0.29043 0.0
H127 H 0.21302 0.09701 0.30806 0.0
H128 H 0.25546 0.18041 0.29651 0.0
H129 H 0.27915 0.99341 0.30031 0.0
H130 H 0.19613 0.04386 0.28177 0.0
H131 H 0.2944 0.0807 0.278 0.0
C132 C 0.86225 0.12565 0.29892 0.0
C133 C 0.84661 0.09384 0.29995 0.0
N134 N 0.86217 0.08713 0.3048 0.0
N135 N 0.8876 0.13888 0.30306 0.0
C136 C 0.88682 0.11496 0.3066 0.0
H137 H 0.85559 0.13838 0.29539 0.0
Co138 Co 0.91614 0.18111 0.30384 0.0
C139 C 0.96361 0.18129 0.31308 0.0
O140 O 0.96083 0.20034 0.31741 0.0
N141 N 0.94483 0.22379 0.30464 0.0
C142 C 0.98842 0.26976 0.30406 0.0
C143 C 0.97552 0.2382 0.30308 0.0
C144 C 0.93956 0.24707 0.30648 0.0
N145 N 0.96574 0.27535 0.3062 0.0
O146 O 0.9001 0.18026 0.31291 0.0
H147 H 0.98774 0.22649 0.30128 0.0
H148 H 0.91685 0.24346 0.30787 0.0
O149 O 0.94685 0.17192 0.30759 0.0
C150 C 0.87571 0.18269 0.31286 0.0
O151 O 0.86666 0.18881 0.30692 0.0
N152 N 0.93005 0.18129 0.2948 0.0
C153 C 0.94994 0.18446 0.28112 0.0
C154 C 0.95125 0.16354 0.28584 0.0
C155 C 0.94121 0.16234 0.2927 0.0
C156 C 0.92728 0.2007 0.29019 0.0
C157 C 0.93762 0.20307 0.28334 0.0
H158 H 0.94221 0.14607 0.29629 0.0
H159 H 0.91739 0.21477 0.29188 0.0
H160 H 0.90429 0.11792 0.31038 0.0
H161 H 0.82531 0.07709 0.29737 0.0
H162 H 0.01272 0.28713 0.30334 0.0
H163 H 0.96044 0.14866 0.28428 0.0
H164 H 0.93578 0.21908 0.27978 0.0
C165 C 0.86651 0.74573 0.29721 0.0
C166 C 0.89858 0.76282 0.29737 0.0
N167 N 0.90738 0.78202 0.30295 0.0
N168 N 0.85513 0.75424 0.30263 0.0
C169 C 0.88047 0.77608 0.30607 0.0
H170 H 0.85232 0.72868 0.29331 0.0
Co171 Co 0.81334 0.73907 0.30454 0.0
C172 C 0.81589 0.78392 0.31504 0.0
O173 O 0.79768 0.76138 0.31932 0.0
N174 N 0.77117 0.72351 0.3064 0.0
C175 C 0.72433 0.71876 0.30745 0.0
C176 C 0.75514 0.73888 0.3059 0.0
C177 C 0.74962 0.69406 0.30814 0.0
N178 N 0.72083 0.69048 0.30886 0.0
O179 O 0.81829 0.72224 0.31304 0.0
H180 H 0.76523 0.76319 0.30449 0.0
H181 H 0.7549 0.6755 0.30876 0.0
O182 O 0.82346 0.77752 0.30918 0.0
C183 C 0.81831 0.69664 0.31252 0.0
O184 O 0.81251 0.68284 0.3064 0.0
N185 N 0.80897 0.75478 0.29604 0.0
C186 C 0.80102 0.77406 0.28296 0.0
C187 C 0.82044 0.79596 0.28793 0.0
C188 C 0.8244 0.78582 0.29443 0.0
C189 C 0.79041 0.73311 0.29125 0.0
C190 C 0.78601 0.74225 0.28466 0.0
H191 H 0.84031 0.80295 0.2981 0.0
H192 H 0.77897 0.70858 0.29256 0.0
H193 H 0.87913 0.78741 0.31077 0.0
H194 H 0.91407 0.76181 0.29353 0.0
H195 H 0.70611 0.72475 0.30763 0.0
H196 H 0.83302 0.82067 0.28675 0.0
H197 H 0.77084 0.72463 0.28096 0.0
C198 C 0.85066 0.73464 0.79755 0.0
C199 C 0.8377 0.75355 0.79806 0.0
N200 N 0.85491 0.77682 0.80258 0.0
N201 N 0.87596 0.74602 0.8017 0.0
C202 C 0.87782 0.77152 0.80473 0.0
H203 H 0.8424 0.71408 0.79432 0.0
Co204 Co 0.90183 0.72927 0.80268 0.0
C205 C 0.9501 0.7729 0.8124 0.0
O206 O 0.94638 0.74977 0.81641 0.0
N207 N 0.92786 0.71215 0.80359 0.0
C208 C 0.96965 0.70653 0.80346 0.0
C209 C 0.95859 0.72647 0.80209 0.0
C210 C 0.92068 0.68336 0.80575 0.0
N211 N 0.94577 0.67931 0.80579 0.0
O212 O 0.88355 0.71356 0.81157 0.0
H213 H 0.97226 0.75017 0.80021 0.0
H214 H 0.89747 0.66568 0.80726 0.0
O215 O 0.93357 0.76741 0.80692 0.0
C216 C 0.85826 0.68748 0.81145 0.0
O217 O 0.84862 0.67256 0.80549 0.0
N218 N 0.91796 0.74369 0.79382 0.0
C219 C 0.93921 0.75992 0.78021 0.0
C220 C 0.94726 0.78301 0.7853 0.0
C221 C 0.936 0.77444 0.79208 0.0
C222 C 0.90934 0.72097 0.78891 0.0
C223 C 0.91971 0.72857 0.78204 0.0
H224 H 0.94171 0.7926 0.79589 0.0
H225 H 0.89448 0.69679 0.79036 0.0
H226 H 0.89608 0.78638 0.80832 0.0
H227 H 0.81721 0.75033 0.79531 0.0
H228 H 0.99368 0.71215 0.80298 0.0
H229 H 0.96177 0.80749 0.78402 0.0
H230 H 0.91301 0.71012 0.77823 0.0
C231 C 0.26193 0.11247 0.80049 0.0
C232 C 0.24351 0.08064 0.80126 0.0
N233 N 0.2171 0.07484 0.80455 0.0
N234 N 0.24724 0.12656 0.80332 0.0
C235 C 0.21997 0.10299 0.80575 0.0
H236 H 0.28463 0.12464 0.79804 0.0
Co237 Co 0.26329 0.16935 0.8039 0.0
C238 C 0.21823 0.17324 0.81338 0.0
O239 O 0.24056 0.19132 0.81772 0.0
N240 N 0.27953 0.2125 0.80444 0.0
C241 C 0.28383 0.25926 0.80358 0.0
C242 C 0.26432 0.2278 0.80268 0.0
C243 C 0.30832 0.2352 0.80634 0.0
N244 N 0.31155 0.26394 0.80588 0.0
O245 O 0.27908 0.16872 0.81293 0.0
H246 H 0.24045 0.21674 0.80086 0.0
H247 H 0.3267 0.23085 0.80795 0.0
O248 O 0.22475 0.16311 0.80789 0.0
C249 C 0.30541 0.17002 0.81288 0.0
O250 O 0.32016 0.17484 0.80691 0.0
N251 N 0.24896 0.16929 0.7949 0.0
C252 C 0.23194 0.17459 0.78138 0.0
C253 C 0.20913 0.15725 0.78638 0.0
C254 C 0.21815 0.15447 0.7931 0.0
C255 C 0.2715 0.18505 0.79003 0.0
C256 C 0.26349 0.18805 0.78321 0.0
H257 H 0.20033 0.14054 0.79685 0.0
H258 H 0.29582 0.19599 0.79151 0.0
H259 H 0.20263 0.10623 0.80845 0.0
H260 H 0.24889 0.06312 0.79947 0.0
H261 H 0.27777 0.27721 0.80274 0.0
H262 H 0.18454 0.14591 0.78509 0.0
H263 H 0.28176 0.20154 0.77947 0.0
C264 C 0.88299 0.14704 0.79813 0.0
C265 C 0.91488 0.16179 0.79893 0.0
N266 N 0.92145 0.14895 0.80443 0.0
N267 N 0.86949 0.12484 0.80305 0.0
C268 C 0.89334 0.12687 0.80686 0.0
H269 H 0.87044 0.15143 0.79408 0.0
Co270 Co 0.82737 0.09621 0.80402 0.0
C271 C 0.82891 0.04893 0.81308 0.0
O272 O 0.81012 0.05111 0.8176 0.0
N273 N 0.78492 0.06737 0.80499 0.0
C274 C 0.7391 0.02363 0.80442 0.0
C275 C 0.77066 0.03665 0.80345 0.0
C276 C 0.76155 0.07254 0.80682 0.0
N277 N 0.73336 0.04625 0.80653 0.0
O278 O 0.82876 0.11209 0.81313 0.0
H279 H 0.78245 0.02454 0.80164 0.0
H280 H 0.76507 0.09527 0.80818 0.0
O281 O 0.83733 0.06586 0.80762 0.0
C282 C 0.82716 0.13694 0.81325 0.0
O283 O 0.82209 0.14726 0.80736 0.0
N284 N 0.82639 0.0821 0.79493 0.0
C285 C 0.82147 0.0609 0.78131 0.0
C286 C 0.84315 0.06026 0.78591 0.0
C287 C 0.84522 0.07095 0.79273 0.0
C288 C 0.80629 0.08431 0.79043 0.0
C289 C 0.80306 0.07331 0.78361 0.0
H290 H 0.86206 0.07041 0.79623 0.0
H291 H 0.79228 0.09416 0.79219 0.0
H292 H 0.88997 0.112 0.81129 0.0
H293 H 0.93178 0.17968 0.79553 0.0
H294 H 0.7218 0.99931 0.80369 0.0
H295 H 0.85791 0.05103 0.78428 0.0
H296 H 0.78647 0.07466 0.78015 0.0
C297 C 0.73235 0.85352 0.69441 0.0
C298 C 0.74827 0.83741 0.69379 0.0
N299 N 0.77049 0.8515 0.68887 0.0
N300 N 0.74467 0.87776 0.68995 0.0
C301 C 0.76757 0.87573 0.6866 0.0
H302 H 0.71331 0.84823 0.69795 0.0
Co303 Co 0.73263 0.90743 0.68877 0.0
C304 C 0.78248 0.95295 0.67963 0.0
O305 O 0.7619 0.9504 0.67496 0.0
N306 N 0.72041 0.9373 0.68758 0.0
C307 C 0.72031 0.98212 0.68776 0.0
C308 C 0.73778 0.9681 0.68898 0.0
C309 C 0.69241 0.93312 0.68559 0.0
N310 N 0.6917 0.96008 0.68564 0.0
O311 O 0.71804 0.891 0.67969 0.0
H312 H 0.7616 0.97961 0.69084 0.0
H313 H 0.6727 0.91064 0.68428 0.0
O314 O 0.77345 0.93677 0.68519 0.0
C315 C 0.69084 0.86712 0.67971 0.0
O316 O 0.67522 0.85879 0.68561 0.0
N317 N 0.74571 0.92181 0.69784 0.0
C318 C 0.76191 0.94291 0.71147 0.0
C319 C 0.7839 0.94234 0.70697 0.0
C320 C 0.77533 0.93171 0.70014 0.0
C321 C 0.72366 0.92085 0.70225 0.0
C322 C 0.73141 0.93183 0.70907 0.0
H323 H 0.79244 0.93125 0.69672 0.0
H324 H 0.70002 0.91192 0.70042 0.0
H325 H 0.78244 0.89228 0.6827 0.0
H326 H 0.74388 0.81703 0.69676 0.0
H327 H 0.72829 0.00674 0.68832 0.0
H328 H 0.80761 0.95051 0.70868 0.0
H329 H 0.7137 0.93143 0.71246 0.0
C330 C 0.14396 0.88165 0.69138 0.0
C331 C 0.15802 0.91365 0.6909 0.0
N332 N 0.13856 0.92056 0.68744 0.0
N333 N 0.11595 0.86858 0.68819 0.0
C334 C 0.11331 0.89289 0.68585 0.0
H335 H 0.15355 0.86869 0.69387 0.0
Co336 Co 0.08894 0.82603 0.68719 0.0
C337 C 0.04069 0.82363 0.67771 0.0
O338 O 0.04362 0.80453 0.67343 0.0
N339 N 0.06182 0.78303 0.68625 0.0
C340 C 0.01924 0.73613 0.68632 0.0
C341 C 0.03099 0.76729 0.68769 0.0
C342 C 0.06833 0.76086 0.68416 0.0
N343 N 0.04278 0.73204 0.68409 0.0
O344 O 0.1066 0.82811 0.67823 0.0
H345 H 0.01777 0.77787 0.68953 0.0
H346 H 0.09142 0.76571 0.68276 0.0
O347 O 0.05771 0.83362 0.68314 0.0
C348 C 0.13116 0.82599 0.67854 0.0
O349 O 0.13944 0.82 0.6846 0.0
N350 N 0.07364 0.82464 0.69611 0.0
C351 C 0.05414 0.81991 0.70987 0.0
C352 C 0.04531 0.83471 0.70488 0.0
C353 C 0.0557 0.83725 0.69802 0.0
C354 C 0.08291 0.8107 0.70092 0.0
C355 C 0.07344 0.80809 0.70785 0.0
H356 H 0.04941 0.84952 0.6943 0.0
H357 H 0.09764 0.80142 0.69932 0.0
H358 H 0.0936 0.89057 0.68292 0.0
H359 H 0.18055 0.9305 0.693 0.0
H360 H 0.99503 0.71814 0.68678 0.0
H361 H 0.03088 0.84461 0.7063 0.0
H362 H 0.0807 0.7965 0.71157 0.0
C363 C 0.11942 0.27047 0.69239 0.0
C364 C 0.08763 0.25173 0.69168 0.0
N365 N 0.08194 0.22605 0.68805 0.0
N366 N 0.13369 0.25664 0.68926 0.0
C367 C 0.11032 0.22976 0.68663 0.0
H368 H 0.13144 0.29263 0.69508 0.0
Co369 Co 0.17642 0.27253 0.68902 0.0
C370 C 0.18364 0.22759 0.68038 0.0
O371 O 0.20473 0.2504 0.67654 0.0
N372 N 0.21979 0.28884 0.68887 0.0
C373 C 0.26656 0.29391 0.69053 0.0
C374 C 0.23514 0.27533 0.69168 0.0
C375 C 0.24248 0.31567 0.68605 0.0
N376 N 0.27123 0.31932 0.68695 0.0
O377 O 0.17676 0.28693 0.6798 0.0
H378 H 0.22417 0.25312 0.69436 0.0
H379 H 0.23799 0.33188 0.68323 0.0
O380 O 0.17058 0.23357 0.6854 0.0
C381 C 0.1787 0.31349 0.67941 0.0
O382 O 0.18395 0.33 0.68514 0.0
N383 N 0.17497 0.25941 0.69819 0.0
C384 C 0.17615 0.24531 0.71221 0.0
C385 C 0.16254 0.22148 0.7072 0.0
C386 C 0.16177 0.22898 0.70022 0.0
C387 C 0.18736 0.28283 0.70297 0.0
C388 C 0.18819 0.27633 0.71002 0.0
H389 H 0.15073 0.21024 0.69648 0.0
H390 H 0.19689 0.30674 0.70128 0.0
H391 H 0.11393 0.2128 0.68387 0.0
H392 H 0.07013 0.25669 0.69369 0.0
H393 H 0.28447 0.28891 0.6922 0.0
H394 H 0.15306 0.19721 0.7086 0.0
H395 H 0.19815 0.29547 0.71371 0.0
C396 C 0.79776 0.59144 0.52479 0.0
C397 C 0.81374 0.5753 0.52478 0.0
N398 N 0.79975 0.55144 0.52021 0.0
N399 N 0.77374 0.57774 0.52029 0.0
C400 C 0.77568 0.55365 0.51754 0.0
H401 H 0.80315 0.61177 0.5279 0.0
Co402 Co 0.74512 0.59063 0.51842 0.0
C403 C 0.70052 0.53906 0.50939 0.0
O404 O 0.70578 0.5583 0.50417 0.0
N405 N 0.71658 0.60391 0.51654 0.0
C406 C 0.67311 0.60634 0.51573 0.0
C407 C 0.6853 0.58749 0.51729 0.0
C408 C 0.72289 0.63271 0.51462 0.0
N409 N 0.69681 0.63491 0.51407 0.0
O410 O 0.76294 0.60321 0.50938 0.0
H411 H 0.67217 0.56346 0.51898 0.0
H412 H 0.74628 0.65193 0.51385 0.0
O413 O 0.71522 0.54938 0.51512 0.0
C414 C 0.78758 0.62987 0.50935 0.0
O415 O 0.79608 0.646 0.51519 0.0
N416 N 0.72935 0.57964 0.52747 0.0
C417 C 0.70847 0.56677 0.54119 0.0
C418 C 0.70916 0.54379 0.53705 0.0
C419 C 0.71966 0.5507 0.53018 0.0
C420 C 0.7298 0.60256 0.5315 0.0
C421 C 0.71891 0.59646 0.53835 0.0
H422 H 0.72066 0.533 0.52708 0.0
H423 H 0.73867 0.62573 0.52938 0.0
H424 H 0.75933 0.53765 0.51375 0.0
H425 H 0.83415 0.58087 0.52788 0.0
H426 H 0.64862 0.59935 0.5158 0.0
H427 H 0.7015 0.52068 0.5391 0.0
H428 H 0.71925 0.61492 0.54145 0.0
C429 C 0.40607 0.2006 0.52681 0.0
C430 C 0.41757 0.23223 0.52629 0.0
N431 N 0.43143 0.24181 0.52001 0.0
N432 N 0.41353 0.19043 0.52099 0.0
C433 C 0.42738 0.21577 0.51682 0.0
H434 H 0.39429 0.18627 0.5313 0.0
Co435 Co 0.40623 0.15013 0.51915 0.0
C436 C 0.47722 0.18935 0.51657 0.0
O437 O 0.4813 0.21596 0.51897 0.0
N438 N 0.39778 0.10969 0.51728 0.0
C439 C 0.39954 0.06572 0.51736 0.0
C440 C 0.41574 0.09711 0.51884 0.0
C441 C 0.37076 0.08555 0.51494 0.0
N442 N 0.37114 0.05843 0.51494 0.0
O443 O 0.39796 0.15523 0.50969 0.0
H444 H 0.43845 0.10956 0.52127 0.0
H445 H 0.3509 0.0877 0.51343 0.0
O446 O 0.45014 0.16488 0.51666 0.0
C447 C 0.37095 0.15097 0.50834 0.0
O448 O 0.34962 0.13977 0.51326 0.0
N449 N 0.41322 0.14479 0.52857 0.0
C450 C 0.41932 0.13367 0.54255 0.0
C451 C 0.44373 0.1588 0.53904 0.0
C452 C 0.44024 0.16394 0.53204 0.0
C453 C 0.38878 0.12086 0.53198 0.0
C454 C 0.39152 0.11452 0.53896 0.0
H455 H 0.45903 0.18381 0.52953 0.0
H456 H 0.36708 0.10645 0.52925 0.0
H457 H 0.43719 0.21572 0.51178 0.0
H458 H 0.41729 0.24727 0.53035 0.0
H459 H 0.40754 0.04933 0.51833 0.0
H460 H 0.46549 0.17421 0.54167 0.0
H461 H 0.37199 0.09515 0.54155 0.0
C462 C 0.80417 0.19446 0.52516 0.0
C463 C 0.77229 0.1803 0.52431 0.0
N464 N 0.76624 0.19802 0.51997 0.0
N465 N 0.81798 0.22091 0.52137 0.0
C466 C 0.79433 0.22226 0.51821 0.0
H467 H 0.81651 0.18634 0.52841 0.0
Co468 Co 0.86039 0.24898 0.52082 0.0
C469 C 0.86169 0.29931 0.51222 0.0
O470 O 0.88176 0.29874 0.50782 0.0
N471 N 0.90313 0.27709 0.52035 0.0
C472 C 0.94945 0.31985 0.52148 0.0
C473 C 0.91784 0.30741 0.52224 0.0
C474 C 0.92626 0.27153 0.51853 0.0
N475 N 0.95478 0.29724 0.51915 0.0
O476 O 0.86006 0.23506 0.51156 0.0
H477 H 0.90631 0.31967 0.52412 0.0
H478 H 0.92228 0.2489 0.51693 0.0
O479 O 0.85208 0.28081 0.51741 0.0
C480 C 0.86083 0.2098 0.51118 0.0
O481 O 0.8657 0.19841 0.51693 0.0
N482 N 0.85997 0.26085 0.53003 0.0
C483 C 0.86127 0.27579 0.54408 0.0
C484 C 0.84528 0.28377 0.5392 0.0
C485 C 0.84453 0.27571 0.53221 0.0
C486 C 0.87506 0.25226 0.53468 0.0
C487 C 0.87603 0.25951 0.54174 0.0
H488 H 0.83135 0.28133 0.5286 0.0
H489 H 0.88638 0.23968 0.53287 0.0
H490 H 0.79755 0.24066 0.51468 0.0
H491 H 0.75493 0.15921 0.52687 0.0
H492 H 0.96704 0.34384 0.52248 0.0
H493 H 0.83367 0.29647 0.54073 0.0
H494 H 0.888 0.25215 0.54533 0.0
C495 C 0.93377 0.47943 0.63457 0.0
C496 C 0.91474 0.49221 0.6352 0.0
N497 N 0.88682 0.46992 0.63758 0.0
N498 N 0.91797 0.44936 0.63663 0.0
C499 C 0.88939 0.44424 0.6384 0.0
H500 H 0.95761 0.49128 0.63273 0.0
Co501 Co 0.9342 0.42273 0.63697 0.0
C502 C 0.89133 0.37194 0.64625 0.0
O503 O 0.91489 0.37422 0.64989 0.0
N504 N 0.95086 0.39593 0.6372 0.0
C505 C 0.9562 0.35428 0.63572 0.0
C506 C 0.93685 0.36637 0.63476 0.0
C507 C 0.97875 0.40121 0.6396 0.0
N508 N 0.98263 0.3762 0.63879 0.0
O509 O 0.95083 0.43915 0.64595 0.0
H510 H 0.91384 0.3542 0.63246 0.0
H511 H 0.99569 0.42273 0.64204 0.0
O512 O 0.89626 0.39034 0.64115 0.0
C513 C 0.97754 0.46373 0.64582 0.0
O514 O 0.99242 0.47264 0.63984 0.0
N515 N 0.91898 0.40874 0.62802 0.0
C516 C 0.90253 0.38862 0.61435 0.0
C517 C 0.87959 0.37926 0.61953 0.0
C518 C 0.88826 0.38996 0.62635 0.0
C519 C 0.94144 0.41904 0.62301 0.0
C520 C 0.93372 0.40925 0.61611 0.0
H521 H 0.87023 0.38277 0.63025 0.0
H522 H 0.96558 0.43438 0.62443 0.0
H523 H 0.8708 0.42229 0.64035 0.0
H524 H 0.92076 0.51584 0.63388 0.0
H525 H 0.95106 0.3311 0.63423 0.0
H526 H 0.85519 0.36378 0.61831 0.0
H527 H 0.95207 0.41694 0.61225 0.0
C528 C 0.51557 0.45283 0.63096 0.0
C529 C 0.50203 0.42077 0.63121 0.0
N530 N 0.52211 0.41394 0.6344 0.0
N531 N 0.54387 0.46593 0.63402 0.0
C532 C 0.54703 0.4416 0.6361 0.0
H533 H 0.50553 0.4658 0.62868 0.0
Co534 Co 0.57138 0.50839 0.6352 0.0
C535 C 0.62036 0.509 0.64404 0.0
O536 O 0.61796 0.52768 0.64855 0.0
N537 N 0.59901 0.55122 0.63637 0.0
C538 C 0.64195 0.59782 0.63639 0.0
C539 C 0.62964 0.56685 0.63475 0.0
C540 C 0.59316 0.57329 0.63887 0.0
N541 N 0.61896 0.60194 0.639 0.0
O542 O 0.55526 0.50513 0.64437 0.0
H543 H 0.64232 0.5563 0.63256 0.0
H544 H 0.57035 0.56846 0.64053 0.0
O545 O 0.60308 0.49995 0.63864 0.0
C546 C 0.53081 0.50741 0.64472 0.0
O547 O 0.52074 0.51438 0.63904 0.0
N548 N 0.58545 0.51089 0.62607 0.0
C549 C 0.60486 0.51707 0.61227 0.0
C550 C 0.60791 0.49638 0.61674 0.0
C551 C 0.59811 0.49367 0.62366 0.0
C552 C 0.58125 0.53024 0.62172 0.0
C553 C 0.5913 0.53409 0.6148 0.0
H554 H 0.60053 0.47759 0.62705 0.0
H555 H 0.57036 0.54302 0.62365 0.0
H556 H 0.56705 0.44386 0.63888 0.0
H557 H 0.47957 0.40386 0.62908 0.0
H558 H 0.66617 0.61566 0.63584 0.0
H559 H 0.61816 0.48277 0.61494 0.0
H560 H 0.58815 0.54991 0.61145 0.0
C561 C 0.55056 0.06474 0.63196 0.0
C562 C 0.5825 0.08254 0.6327 0.0
N563 N 0.58892 0.10808 0.63645 0.0
N564 N 0.53709 0.07903 0.63526 0.0
C565 C 0.56104 0.10529 0.63796 0.0
H566 H 0.53791 0.04269 0.62925 0.0
Co567 Co 0.49459 0.06378 0.63622 0.0
C568 C 0.49249 0.1132 0.64429 0.0
O569 O 0.47396 0.09264 0.6489 0.0
N570 N 0.45167 0.04826 0.63717 0.0
C571 C 0.40474 0.04363 0.63657 0.0
C572 C 0.43588 0.06265 0.63517 0.0
C573 C 0.42957 0.02033 0.63964 0.0
N574 N 0.40068 0.01688 0.63939 0.0
O575 O 0.49748 0.05284 0.6456 0.0
H576 H 0.44638 0.08562 0.63285 0.0
H577 H 0.43458 0.00273 0.64151 0.0
O578 O 0.50237 0.10449 0.6391 0.0
C579 C 0.49649 0.02673 0.6461 0.0
O580 O 0.49082 0.00969 0.64045 0.0
N581 N 0.49227 0.07312 0.62692 0.0
C582 C 0.48316 0.0825 0.61304 0.0
C583 C 0.50391 0.10767 0.61721 0.0
C584 C 0.50818 0.10248 0.62418 0.0
C585 C 0.47348 0.04818 0.62283 0.0
C586 C 0.46819 0.0524 0.61588 0.0
H587 H 0.52403 0.12205 0.62737 0.0
H588 H 0.46186 0.02497 0.62504 0.0
H589 H 0.55823 0.1218 0.64113 0.0
H590 H 0.59965 0.0773 0.63059 0.0
H591 H 0.3867 0.04949 0.63569 0.0
H592 H 0.51604 0.13121 0.61516 0.0
H593 H 0.45248 0.03235 0.61277 0.0
C594 C 0.52557 0.0692 0.134 0.0
C595 C 0.51174 0.08726 0.13474 0.0
N596 N 0.53173 0.11344 0.13819 0.0
N597 N 0.55397 0.08391 0.13701 0.0
C598 C 0.557 0.11076 0.13953 0.0
H599 H 0.51563 0.04681 0.13142 0.0
Co600 Co 0.58127 0.06854 0.13757 0.0
C601 C 0.63082 0.11365 0.14692 0.0
O602 O 0.62894 0.0913 0.15095 0.0
N603 N 0.60861 0.05279 0.13808 0.0
C604 C 0.65075 0.04808 0.13703 0.0
C605 C 0.63877 0.06754 0.13607 0.0
C606 C 0.60277 0.02439 0.14022 0.0
N607 N 0.62808 0.02085 0.13967 0.0
O608 O 0.56482 0.0524 0.14657 0.0
H609 H 0.65126 0.09097 0.13398 0.0
H610 H 0.58047 0.00677 0.14223 0.0
O611 O 0.61288 0.10699 0.14166 0.0
C612 C 0.53965 0.0262 0.14661 0.0
O613 O 0.5294 0.01104 0.14068 0.0
N614 N 0.59588 0.08373 0.12862 0.0
C615 C 0.61981 0.10334 0.11528 0.0
C616 C 0.62299 0.12504 0.12038 0.0
C617 C 0.61061 0.11474 0.12701 0.0
C618 C 0.59107 0.06213 0.12364 0.0
C619 C 0.60305 0.07145 0.11692 0.0
H620 H 0.61311 0.13182 0.13084 0.0
H621 H 0.57869 0.03759 0.12496 0.0
H622 H 0.57715 0.12802 0.14237 0.0
H623 H 0.48909 0.08191 0.13277 0.0
H624 H 0.6743 0.05362 0.1358 0.0
H625 H 0.63498 0.1498 0.11925 0.0
H626 H 0.60002 0.05393 0.11313 0.0
C627 C 0.93748 0.45306 0.13032 0.0
C628 C 0.92063 0.42105 0.1309 0.0
N629 N 0.89821 0.41351 0.13575 0.0
N630 N 0.92558 0.46557 0.13474 0.0
C631 C 0.90191 0.44099 0.13801 0.0
H632 H 0.95703 0.46642 0.12688 0.0
Co633 Co 0.93984 0.50769 0.13592 0.0
C634 C 0.89218 0.50702 0.14532 0.0
O635 O 0.91347 0.52613 0.14975 0.0
N636 N 0.95445 0.55025 0.13703 0.0
C637 C 0.9578 0.59668 0.13709 0.0
C638 C 0.93865 0.56542 0.1358 0.0
C639 C 0.98325 0.57279 0.13894 0.0
N640 N 0.98597 0.60137 0.13907 0.0
O641 O 0.9549 0.50532 0.1449 0.0
H642 H 0.91464 0.55444 0.13408 0.0
H643 H 0.00199 0.56833 0.14011 0.0
O644 O 0.90025 0.49836 0.13984 0.0
C645 C 0.98151 0.50728 0.14476 0.0
O646 O 0.99644 0.51333 0.13878 0.0
N647 N 0.92626 0.50948 0.12697 0.0
C648 C 0.9113 0.51546 0.11331 0.0
C649 C 0.88771 0.49846 0.11818 0.0
C650 C 0.89568 0.49533 0.12498 0.0
C651 C 0.9495 0.52544 0.12226 0.0
C652 C 0.94254 0.52871 0.11537 0.0
H653 H 0.87721 0.4814 0.12861 0.0
H654 H 0.97358 0.53589 0.1239 0.0
H655 H 0.88721 0.44317 0.14188 0.0
H656 H 0.92466 0.40468 0.12799 0.0
H657 H 0.95111 0.61436 0.13672 0.0
H658 H 0.86333 0.4874 0.11671 0.0
H659 H 0.96136 0.54196 0.11173 0.0
C660 C 0.55365 0.47722 0.12875 0.0
C661 C 0.58558 0.49092 0.12928 0.0
N662 N 0.59218 0.47506 0.13406 0.0
N663 N 0.54021 0.45279 0.13315 0.0
C664 C 0.5642 0.45218 0.13634 0.0
H665 H 0.54097 0.48442 0.12535 0.0
Co666 Co 0.49769 0.42651 0.1343 0.0
C667 C 0.49432 0.3795 0.14414 0.0
O668 O 0.47504 0.38351 0.14814 0.0
N669 N 0.45466 0.39995 0.13539 0.0
C670 C 0.40769 0.35751 0.13511 0.0
C671 C 0.43879 0.36934 0.13373 0.0
C672 C 0.43264 0.40623 0.13774 0.0
N673 N 0.4038 0.38073 0.13763 0.0
O674 O 0.50065 0.4455 0.14312 0.0
H675 H 0.44923 0.3563 0.13169 0.0
H676 H 0.43758 0.42906 0.13945 0.0
O677 O 0.505 0.39548 0.13858 0.0
C678 C 0.50062 0.4711 0.1426 0.0
O679 O 0.49493 0.47901 0.13646 0.0
N680 N 0.49554 0.4099 0.12547 0.0
C681 C 0.48844 0.38707 0.11192 0.0
C682 C 0.50506 0.38039 0.11691 0.0
C683 C 0.50864 0.39232 0.12366 0.0
C684 C 0.4803 0.41756 0.12066 0.0
C685 C 0.47641 0.40635 0.11385 0.0
H686 H 0.52183 0.38726 0.1274 0.0
H687 H 0.47088 0.43228 0.12216 0.0
H688 H 0.56121 0.43487 0.14017 0.0
H689 H 0.60253 0.51101 0.12637 0.0
H690 H 0.38951 0.33345 0.13447 0.0
H691 H 0.51477 0.36564 0.11566 0.0
H692 H 0.46417 0.41286 0.11014 0.0
C693 C 0.39639 0.17812 0.02113 0.0
C694 C 0.41432 0.16406 0.02094 0.0
N695 N 0.44364 0.18557 0.01907 0.0
N696 N 0.41411 0.20832 0.01935 0.0
C697 C 0.44275 0.21221 0.01816 0.0
H698 H 0.37196 0.16701 0.0225 0.0
Co699 Co 0.40005 0.23673 0.01877 0.0
C700 C 0.44628 0.28529 0.00954 0.0
O701 O 0.42412 0.28312 0.0054 0.0
N702 N 0.38576 0.26536 0.01831 0.0
C703 C 0.38386 0.30914 0.01931 0.0
C704 C 0.40219 0.29579 0.02012 0.0
C705 C 0.35737 0.26073 0.0165 0.0
N706 N 0.35559 0.28703 0.01703 0.0
O707 O 0.38429 0.22121 0.00968 0.0
H708 H 0.42613 0.30763 0.02191 0.0
H709 H 0.33814 0.23845 0.01493 0.0
O710 O 0.43934 0.26768 0.01487 0.0
C711 C 0.35668 0.19796 0.00955 0.0
O712 O 0.34084 0.18893 0.01542 0.0
N713 N 0.41404 0.24994 0.02782 0.0
C714 C 0.42792 0.26782 0.04173 0.0
C715 C 0.45183 0.27749 0.03676 0.0
C716 C 0.44443 0.26804 0.02982 0.0
C717 C 0.3906 0.23949 0.03259 0.0
C718 C 0.39699 0.24811 0.03958 0.0
H719 H 0.46318 0.27562 0.0261 0.0
H720 H 0.36674 0.22461 0.03091 0.0
H721 H 0.46271 0.23431 0.01676 0.0
H722 H 0.40609 0.13976 0.02206 0.0
H723 H 0.39106 0.3334 0.02022 0.0
H724 H 0.47602 0.29277 0.03816 0.0
H725 H 0.37782 0.23938 0.04325 0.0
C726 C 0.82289 0.22519 0.02288 0.0
C727 C 0.83131 0.25526 0.02112 0.0
N728 N 0.80525 0.25604 0.0195 0.0
N729 N 0.79172 0.20699 0.02232 0.0
C730 C 0.78146 0.22651 0.02033 0.0
H731 H 0.83857 0.21687 0.02434 0.0
Co732 Co 0.77253 0.16429 0.02355 0.0
C733 C 0.70507 0.13621 0.01948 0.0
O734 O 0.69819 0.10974 0.02249 0.0
N735 N 0.75479 0.12056 0.02488 0.0
C736 C 0.73562 0.07298 0.02946 0.0
C737 C 0.74664 0.10396 0.0309 0.0
C738 C 0.74867 0.09883 0.01989 0.0
N739 N 0.73696 0.06982 0.02253 0.0
O740 O 0.78656 0.16136 0.01448 0.0
H741 H 0.74819 0.11323 0.03606 0.0
H742 H 0.75177 0.10392 0.01437 0.0
O743 O 0.7333 0.15891 0.01951 0.0
C744 C 0.81143 0.15979 0.01429 0.0
O745 O 0.82307 0.15658 0.0202 0.0
N746 N 0.76136 0.16933 0.03259 0.0
C747 C 0.75052 0.17526 0.04661 0.0
C748 C 0.7296 0.17357 0.04146 0.0
C749 C 0.73564 0.17104 0.03446 0.0
C750 C 0.78314 0.17335 0.03746 0.0
C751 C 0.778 0.17593 0.04452 0.0
H752 H 0.71944 0.17048 0.03065 0.0
H753 H 0.80405 0.17329 0.03584 0.0
H754 H 0.75731 0.21923 0.01931 0.0
H755 H 0.8548 0.27505 0.02102 0.0
H756 H 0.72762 0.05431 0.03325 0.0
H757 H 0.70823 0.1733 0.04282 0.0
H758 H 0.79518 0.17801 0.04831 0.0
C759 C 0.78097 0.5959 0.02742 0.0
C760 C 0.74893 0.57851 0.02693 0.0
N761 N 0.74153 0.55737 0.02178 0.0
N762 N 0.79361 0.58557 0.02264 0.0
C763 C 0.7691 0.56236 0.01925 0.0
H764 H 0.79423 0.6147 0.03105 0.0
Co765 Co 0.83566 0.60059 0.0211 0.0
C766 C 0.8338 0.55396 0.01119 0.0
O767 O 0.85185 0.57579 0.00675 0.0
N768 N 0.87811 0.61584 0.0196 0.0
C769 C 0.92474 0.61979 0.01894 0.0
C770 C 0.89388 0.60045 0.0206 0.0
C771 C 0.89991 0.64458 0.01746 0.0
N772 N 0.92854 0.64761 0.01696 0.0
O773 O 0.83177 0.61623 0.01231 0.0
H774 H 0.88353 0.57653 0.02234 0.0
H775 H 0.89492 0.66301 0.01634 0.0
O776 O 0.8262 0.56136 0.01693 0.0
C777 C 0.83333 0.64261 0.0128 0.0
O778 O 0.8395 0.65639 0.01893 0.0
N779 N 0.83908 0.58672 0.02989 0.0
C780 C 0.84701 0.57235 0.04347 0.0
C781 C 0.83104 0.54857 0.03856 0.0
C782 C 0.82689 0.55622 0.0318 0.0
C783 C 0.85427 0.61009 0.03462 0.0
C784 C 0.85845 0.60341 0.04147 0.0
H785 H 0.81373 0.53756 0.02815 0.0
H786 H 0.86323 0.63405 0.03303 0.0
H787 H 0.77141 0.54889 0.0151 0.0
H788 H 0.73246 0.58128 0.03012 0.0
H789 H 0.94272 0.61346 0.01903 0.0
H790 H 0.82145 0.52428 0.03998 0.0
H791 H 0.87089 0.62236 0.04513 0.0
C792 C 0.48361 0.93113 0.85617 0.0
C793 C 0.49708 0.91279 0.85535 0.0
N794 N 0.47598 0.8858 0.85233 0.0
N795 N 0.45431 0.91584 0.85362 0.0
C796 C 0.45033 0.88827 0.85134 0.0
H797 H 0.49443 0.95412 0.85848 0.0
Co798 Co 0.42714 0.93144 0.85341 0.0
C799 C 0.37654 0.88726 0.84427 0.0
O800 O 0.37894 0.91034 0.84043 0.0
N801 N 0.39985 0.94736 0.85329 0.0
C802 C 0.35734 0.95127 0.85463 0.0
C803 C 0.36984 0.93219 0.85543 0.0
C804 C 0.40513 0.97577 0.85129 0.0
N805 N 0.37956 0.97874 0.85202 0.0
O806 O 0.44217 0.94751 0.84433 0.0
H807 H 0.35762 0.90851 0.85738 0.0
H808 H 0.42731 0.99402 0.84937 0.0
O809 O 0.39471 0.8929 0.84945 0.0
C810 C 0.46693 0.97408 0.84428 0.0
O811 O 0.47738 0.98894 0.85022 0.0
N812 N 0.41443 0.91696 0.86244 0.0
C813 C 0.3974 0.90184 0.87635 0.0
C814 C 0.3871 0.87841 0.87124 0.0
C815 C 0.39621 0.88642 0.86431 0.0
C816 C 0.42555 0.93993 0.86733 0.0
C817 C 0.41738 0.93291 0.87433 0.0
H818 H 0.38829 0.86802 0.86048 0.0
H819 H 0.44062 0.9639 0.86576 0.0
H820 H 0.42924 0.87038 0.8489 0.0
H821 H 0.52032 0.91859 0.85697 0.0
H822 H 0.33345 0.945 0.85572 0.0
H823 H 0.3716 0.85413 0.87253 0.0
H824 H 0.42666 0.95172 0.8781 0.0
C825 C 0.06336 0.55004 0.85818 0.0
C826 C 0.08176 0.5818 0.85726 0.0
N827 N 0.10849 0.58736 0.85417 0.0
N828 N 0.07837 0.53575 0.85562 0.0
C829 C 0.10582 0.55914 0.85323 0.0
H830 H 0.04044 0.53807 0.86053 0.0
Co831 Co 0.06256 0.49295 0.85533 0.0
C832 C 0.10575 0.48672 0.84583 0.0
O833 O 0.08228 0.46629 0.84204 0.0
N834 N 0.04651 0.44967 0.85513 0.0
C835 C 0.04282 0.40324 0.85626 0.0
C836 C 0.06188 0.43481 0.85711 0.0
C837 C 0.018 0.42655 0.85317 0.0
N838 N 0.01516 0.39802 0.85378 0.0
O839 O 0.0456 0.49218 0.84636 0.0
H840 H 0.08572 0.44625 0.85895 0.0
H841 H 0.99958 0.43043 0.85136 0.0
O842 O 0.10067 0.499 0.85115 0.0
C843 C 0.01878 0.48975 0.84656 0.0
O844 O 0.00467 0.48489 0.85263 0.0
N845 N 0.07775 0.49442 0.86428 0.0
C846 C 0.09328 0.49091 0.87808 0.0
C847 C 0.11649 0.50394 0.87292 0.0
C848 C 0.10829 0.50584 0.86604 0.0
C849 C 0.05507 0.48285 0.86923 0.0
C850 C 0.06229 0.48093 0.87617 0.0
H851 H 0.12649 0.51605 0.86216 0.0
H852 H 0.03112 0.47464 0.86774 0.0
H853 H 0.1234 0.55572 0.85071 0.0
H854 H 0.07612 0.59943 0.85882 0.0
H855 H 0.04924 0.38564 0.85722 0.0
H856 H 0.1407 0.51192 0.87412 0.0
H857 H 0.04368 0.47158 0.87999 0.0
C858 C 0.4428 0.50918 0.85706 0.0
C859 C 0.41121 0.49637 0.85598 0.0
N860 N 0.4064 0.51813 0.85294 0.0
N861 N 0.45774 0.53873 0.85466 0.0
C862 C 0.43491 0.54351 0.85219 0.0
H863 H 0.4542 0.49773 0.85945 0.0
Co864 Co 0.50065 0.56508 0.85474 0.0
C865 C 0.5103 0.61735 0.84577 0.0
O866 O 0.53165 0.61503 0.84218 0.0
N867 N 0.54417 0.59164 0.85488 0.0
C868 C 0.59107 0.63294 0.85671 0.0
C869 C 0.5596 0.6204 0.85775 0.0
C870 C 0.56686 0.58728 0.85214 0.0
N871 N 0.59571 0.61215 0.85314 0.0
O872 O 0.5023 0.55033 0.84565 0.0
H873 H 0.54866 0.63184 0.86035 0.0
H874 H 0.56228 0.56666 0.84928 0.0
O875 O 0.49619 0.59849 0.85077 0.0
C876 C 0.50328 0.52512 0.8456 0.0
O877 O 0.50701 0.51426 0.85157 0.0
N878 N 0.49792 0.57746 0.86377 0.0
C879 C 0.49856 0.59541 0.87753 0.0
C880 C 0.48481 0.60436 0.87231 0.0
C881 C 0.48434 0.59477 0.86545 0.0
C882 C 0.51014 0.56738 0.86882 0.0
C883 C 0.51076 0.57615 0.87576 0.0
H884 H 0.47329 0.60155 0.86151 0.0
H885 H 0.52014 0.55307 0.8674 0.0
H886 H 0.43896 0.56497 0.84979 0.0
H887 H 0.39317 0.47311 0.85743 0.0
H888 H 0.60898 0.65576 0.85843 0.0
H889 H 0.47458 0.6187 0.87352 0.0
H890 H 0.52158 0.56879 0.87966 0.0
C891 C 0.58888 0.81429 0.96338 0.0
C892 C 0.57067 0.82793 0.96413 0.0
N893 N 0.54923 0.81245 0.96914 0.0
N894 N 0.57893 0.79029 0.96788 0.0
C895 C 0.55498 0.78987 0.97134 0.0
H896 H 0.60811 0.82132 0.95979 0.0
Co897 Co 0.59572 0.76446 0.96896 0.0
C898 C 0.55265 0.71714 0.97893 0.0
O899 O 0.57588 0.72026 0.98283 0.0
N900 N 0.61275 0.73843 0.96998 0.0
C901 C 0.6181 0.6965 0.97 0.0
C902 C 0.59828 0.70761 0.96855 0.0
C903 C 0.64148 0.7456 0.97219 0.0
N904 N 0.64535 0.72041 0.97229 0.0
O905 O 0.61249 0.78391 0.97771 0.0
H906 H 0.57455 0.69392 0.9667 0.0
H907 H 0.6592 0.76885 0.97369 0.0
O908 O 0.558 0.73353 0.97344 0.0
C909 C 0.63777 0.80986 0.97717 0.0
O910 O 0.6506 0.81865 0.97097 0.0
N911 N 0.58039 0.74712 0.96022 0.0
C912 C 0.56347 0.72225 0.94684 0.0
C913 C 0.54067 0.71543 0.95197 0.0
C914 C 0.54958 0.72842 0.95862 0.0
C915 C 0.60277 0.75494 0.95527 0.0
C916 C 0.59486 0.74278 0.94854 0.0
H917 H 0.53166 0.72316 0.96246 0.0
H918 H 0.62699 0.77045 0.9566 0.0
H919 H 0.54172 0.773 0.97533 0.0
H920 H 0.57325 0.84779 0.96122 0.0
H921 H 0.61238 0.67241 0.96959 0.0
H922 H 0.51617 0.69974 0.95092 0.0
H923 H 0.61322 0.74951 0.94472 0.0
C924 C 0.18222 0.78165 0.96282 0.0
C925 C 0.16764 0.74971 0.96347 0.0
N926 N 0.18365 0.74279 0.96815 0.0
N927 N 0.20734 0.79478 0.96703 0.0
C928 C 0.20752 0.7706 0.97024 0.0
H929 H 0.17517 0.79455 0.95945 0.0
Co930 Co 0.23467 0.83723 0.96786 0.0
C931 C 0.28023 0.84029 0.97813 0.0
O932 O 0.2761 0.85986 0.982 0.0
N933 N 0.26212 0.88017 0.9686 0.0
C934 C 0.30516 0.92664 0.96854 0.0
C935 C 0.29313 0.8953 0.9674 0.0
C936 C 0.25578 0.90285 0.97033 0.0
N937 N 0.28163 0.93147 0.9704 0.0
O938 O 0.21579 0.83656 0.97654 0.0
H939 H 0.30627 0.88416 0.96589 0.0
H940 H 0.2326 0.89842 0.97151 0.0
O941 O 0.26475 0.82959 0.97251 0.0
C942 C 0.19105 0.83827 0.9761 0.0
O943 O 0.1825 0.8431 0.96995 0.0
N944 N 0.25148 0.83718 0.95917 0.0
C945 C 0.27448 0.84011 0.94581 0.0
C946 C 0.28034 0.82431 0.95112 0.0
C947 C 0.26823 0.82272 0.95778 0.0
C948 C 0.24487 0.85195 0.95403 0.0
C949 C 0.25617 0.85372 0.94729 0.0
H950 H 0.27228 0.80974 0.96176 0.0
H951 H 0.23097 0.86265 0.95521 0.0
H952 H 0.22523 0.77325 0.97392 0.0
H953 H 0.14688 0.73295 0.96072 0.0
H954 H 0.32956 0.94425 0.96821 0.0
H955 H 0.29387 0.813 0.95012 0.0
H956 H 0.25119 0.86614 0.94331 0.0
C957 C 0.21645 0.40174 0.96677 0.0
C958 C 0.24816 0.42095 0.96762 0.0
N959 N 0.25288 0.44615 0.97129 0.0
N960 N 0.20142 0.41479 0.96992 0.0
C961 C 0.22424 0.44173 0.97265 0.0
H962 H 0.20503 0.37979 0.96398 0.0
Co963 Co 0.15852 0.39806 0.97031 0.0
C964 C 0.15234 0.44314 0.97938 0.0
O965 O 0.13216 0.42098 0.98349 0.0
N966 N 0.11525 0.38104 0.97065 0.0
C967 C 0.0679 0.37519 0.96963 0.0
C968 C 0.09924 0.39522 0.96865 0.0
C969 C 0.09313 0.35233 0.97274 0.0
N970 N 0.06405 0.34817 0.97221 0.0
O971 O 0.1588 0.38267 0.97939 0.0
H972 H 0.10973 0.4188 0.96667 0.0
H973 H 0.09817 0.33471 0.97458 0.0
O974 O 0.16387 0.43632 0.9742 0.0
C975 C 0.15858 0.35685 0.97941 0.0
O976 O 0.1548 0.34223 0.97345 0.0
N977 N 0.15909 0.41229 0.96127 0.0
C978 C 0.15571 0.42933 0.94762 0.0
C979 C 0.17183 0.45215 0.95271 0.0
C980 C 0.17362 0.44314 0.9595 0.0
C981 C 0.14441 0.38977 0.95633 0.0
C982 C 0.14238 0.39779 0.94945 0.0
H983 H 0.18664 0.46106 0.96332 0.0
H984 H 0.13368 0.36545 0.9578 0.0
H985 H 0.22015 0.45787 0.97563 0.0
H986 H 0.26631 0.41713 0.96554 0.0
H987 H 0.0495 0.3805 0.96868 0.0
H988 H 0.18303 0.47675 0.95144 0.0
H989 H 0.12978 0.37951 0.94565 0.0
C990 C 0.19543 0.40012 0.4719 0.0
C991 C 0.18269 0.41914 0.4727 0.0
N992 N 0.20623 0.44855 0.47361 0.0
N993 N 0.22676 0.41748 0.47241 0.0
C994 C 0.23256 0.44691 0.47341 0.0
H995 H 0.18261 0.37523 0.471 0.0
Co996 Co 0.25474 0.40278 0.47204 0.0
C997 C 0.30796 0.44877 0.48039 0.0
O998 O 0.30796 0.42642 0.48409 0.0
N999 N 0.28295 0.38784 0.47159 0.0
C1000 C 0.32464 0.38382 0.46896 0.0
C1001 C 0.31089 0.40189 0.46831 0.0
C1002 C 0.28046 0.36141 0.47426 0.0
N1003 N 0.30547 0.35847 0.47273 0.0
O1004 O 0.2428 0.38749 0.48132 0.0
H1005 H 0.32091 0.42412 0.46566 0.0
H1006 H 0.2608 0.34445 0.47725 0.0
O1007 O 0.28776 0.44202 0.47559 0.0
C1008 C 0.21904 0.36027 0.48176 0.0
O1009 O 0.20816 0.34377 0.47602 0.0
N1010 N 0.26427 0.41659 0.46284 0.0
C1011 C 0.27792 0.43092 0.4488 0.0
C1012 C 0.28912 0.45467 0.45382 0.0
C1013 C 0.28172 0.44706 0.46083 0.0
C1014 C 0.25211 0.3933 0.45801 0.0
C1015 C 0.25866 0.39995 0.45093 0.0
H1016 H 0.29052 0.46572 0.4646 0.0
H1017 H 0.23789 0.36936 0.4597 0.0
H1018 H 0.25559 0.46688 0.47405 0.0
H1019 H 0.15817 0.41204 0.47249 0.0
H1020 H 0.34733 0.38929 0.467 0.0
H1021 H 0.30361 0.47891 0.45234 0.0
H1022 H 0.24963 0.38097 0.4472 0.0
C1023 C 0.59721 0.80019 0.46585 0.0
C1024 C 0.58093 0.7682 0.46644 0.0
N1025 N 0.55737 0.76011 0.47101 0.0
N1026 N 0.58396 0.81225 0.47 0.0
C1027 C 0.55989 0.78737 0.4731 0.0
H1028 H 0.61762 0.81389 0.46266 0.0
Co1029 Co 0.59846 0.8544 0.47124 0.0
C1030 C 0.55045 0.85487 0.48026 0.0
O1031 O 0.57174 0.87417 0.48466 0.0
N1032 N 0.61348 0.8971 0.47239 0.0
C1033 C 0.6177 0.94392 0.47197 0.0
C1034 C 0.5982 0.91257 0.47087 0.0
C1035 C 0.64233 0.91959 0.47431 0.0
N1036 N 0.64554 0.94836 0.47413 0.0
O1037 O 0.61229 0.85128 0.48031 0.0
H1038 H 0.57442 0.90176 0.469 0.0
H1039 H 0.66091 0.91509 0.47564 0.0
O1040 O 0.55848 0.84532 0.47491 0.0
C1041 C 0.63882 0.85301 0.48024 0.0
O1042 O 0.65447 0.8602 0.47435 0.0
N1043 N 0.58629 0.85684 0.4622 0.0
C1044 C 0.57453 0.86326 0.44826 0.0
C1045 C 0.54988 0.84791 0.45303 0.0
C1046 C 0.55622 0.84456 0.45996 0.0
C1047 C 0.6105 0.87133 0.45765 0.0
C1048 C 0.60518 0.87475 0.45066 0.0
H1049 H 0.53687 0.83206 0.46349 0.0
H1050 H 0.63412 0.88021 0.4595 0.0
H1051 H 0.54446 0.78925 0.47681 0.0
H1052 H 0.58645 0.75228 0.46378 0.0
H1053 H 0.61166 0.96196 0.47128 0.0
H1054 H 0.52586 0.83879 0.45145 0.0
H1055 H 0.62494 0.88601 0.44716 0.0
C1056 C 0.20687 0.82225 0.46686 0.0
C1057 C 0.23885 0.83764 0.46775 0.0
N1058 N 0.24667 0.81707 0.47027 0.0
N1059 N 0.19482 0.79221 0.46881 0.0
C1060 C 0.21961 0.78998 0.47095 0.0
H1061 H 0.19325 0.83223 0.46492 0.0
Co1062 Co 0.15294 0.76112 0.46909 0.0
C1063 C 0.16713 0.70895 0.46627 0.0
O1064 O 0.1579 0.70474 0.45975 0.0
N1065 N 0.11042 0.72989 0.4697 0.0
C1066 C 0.06484 0.68567 0.46904 0.0
C1067 C 0.09632 0.69941 0.4679 0.0
C1068 C 0.08671 0.73392 0.47192 0.0
N1069 N 0.05872 0.70741 0.47155 0.0
O1070 O 0.15493 0.7659 0.47894 0.0
H1071 H 0.10757 0.68743 0.46581 0.0
H1072 H 0.08975 0.75612 0.47358 0.0
O1073 O 0.16498 0.72891 0.47012 0.0
C1074 C 0.15113 0.78817 0.48103 0.0
O1075 O 0.14198 0.80187 0.4765 0.0
N1076 N 0.15164 0.75898 0.45918 0.0
C1077 C 0.14589 0.75263 0.44471 0.0
C1078 C 0.1737 0.75894 0.44801 0.0
C1079 C 0.17632 0.76263 0.45524 0.0
C1080 C 0.12602 0.75673 0.45593 0.0
C1081 C 0.12236 0.75282 0.44873 0.0
H1082 H 0.19747 0.76609 0.45769 0.0
H1083 H 0.10787 0.75739 0.45891 0.0
H1084 H 0.218 0.76899 0.47307 0.0
H1085 H 0.2551 0.8618 0.46651 0.0
H1086 H 0.04786 0.66136 0.46815 0.0
H1087 H 0.19266 0.75939 0.44509 0.0
H1088 H 0.10107 0.74947 0.44634 0.0
C1089 C 0.06278 0.52396 0.3582 0.0
C1090 C 0.07986 0.50898 0.35768 0.0
N1091 N 0.10599 0.52748 0.35404 0.0
N1092 N 0.07806 0.55159 0.35487 0.0
C1093 C 0.10424 0.55301 0.35238 0.0
H1094 H 0.04052 0.51522 0.36079 0.0
Co1095 Co 0.06396 0.57966 0.35366 0.0
C1096 C 0.11321 0.62789 0.34484 0.0
O1097 O 0.09262 0.62553 0.34019 0.0
N1098 N 0.04958 0.6078 0.35246 0.0
C1099 C 0.0462 0.65087 0.35287 0.0
C1100 C 0.06506 0.63843 0.35413 0.0
C1101 C 0.02132 0.60213 0.35025 0.0
N1102 N 0.01865 0.62798 0.35044 0.0
O1103 O 0.0511 0.56376 0.34449 0.0
H1104 H 0.08851 0.65087 0.3562 0.0
H1105 H 0.00279 0.57935 0.3487 0.0
O1106 O 0.10436 0.61077 0.35027 0.0
C1107 C 0.02468 0.53894 0.34413 0.0
O1108 O 0.00779 0.52864 0.34983 0.0
N1109 N 0.07554 0.59372 0.36279 0.0
C1110 C 0.08945 0.61778 0.37627 0.0
C1111 C 0.11298 0.61947 0.37189 0.0
C1112 C 0.10551 0.60717 0.36516 0.0
C1113 C 0.05208 0.59006 0.36709 0.0
C1114 C 0.05855 0.60227 0.37383 0.0
H1115 H 0.1239 0.60875 0.36185 0.0
H1116 H 0.02833 0.57861 0.36518 0.0
H1117 H 0.1215 0.57201 0.34926 0.0
H1118 H 0.07376 0.48646 0.35987 0.0
H1119 H 0.05245 0.67498 0.35362 0.0
H1120 H 0.13699 0.63036 0.37362 0.0
H1121 H 0.0396 0.60045 0.377 0.0
C1122 C 0.46592 0.53612 0.35922 0.0
C1123 C 0.48044 0.56809 0.35868 0.0
N1124 N 0.46305 0.57539 0.35452 0.0
N1125 N 0.43948 0.52331 0.35543 0.0
C1126 C 0.43843 0.54774 0.35259 0.0
H1127 H 0.47397 0.52296 0.3622 0.0
Co1128 Co 0.41193 0.48088 0.35463 0.0
C1129 C 0.36318 0.47715 0.34528 0.0
O1130 O 0.36514 0.45636 0.34138 0.0
N1131 N 0.38422 0.43784 0.35392 0.0
C1132 C 0.34171 0.39116 0.35488 0.0
C1133 C 0.35421 0.42253 0.35606 0.0
C1134 C 0.38942 0.41522 0.3515 0.0
N1135 N 0.36388 0.38649 0.352 0.0
O1136 O 0.42885 0.48198 0.34564 0.0
H1137 H 0.34211 0.4335 0.35834 0.0
H1138 H 0.41141 0.41975 0.34933 0.0
O1139 O 0.38086 0.48871 0.35057 0.0
C1140 C 0.45354 0.48008 0.3458 0.0
O1141 O 0.46229 0.47391 0.35178 0.0
N1142 N 0.39739 0.48068 0.36359 0.0
C1143 C 0.37899 0.47779 0.37739 0.0
C1144 C 0.37021 0.4924 0.37234 0.0
C1145 C 0.38006 0.49403 0.36545 0.0
C1146 C 0.40662 0.46692 0.36845 0.0
C1147 C 0.39768 0.46522 0.3754 0.0
H1148 H 0.37383 0.50614 0.36168 0.0
H1149 H 0.42088 0.45706 0.36688 0.0
H1150 H 0.41966 0.54536 0.3493 0.0
H1151 H 0.50216 0.58459 0.36116 0.0
H1152 H 0.31815 0.37325 0.35613 0.0
H1153 H 0.35626 0.50286 0.37373 0.0
H1154 H 0.4049 0.45376 0.37917 0.0
C1155 C 0.45881 0.93262 0.35935 0.0
C1156 C 0.42672 0.91593 0.359 0.0
N1157 N 0.41827 0.89198 0.35452 0.0
N1158 N 0.47047 0.91914 0.35515 0.0
C1159 C 0.4453 0.89465 0.35224 0.0
H1160 H 0.47281 0.95322 0.36247 0.0
Co1161 Co 0.5123 0.93271 0.35372 0.0
C1162 C 0.50907 0.8824 0.34481 0.0
O1163 O 0.52711 0.90244 0.34006 0.0
N1164 N 0.55457 0.94669 0.35234 0.0
C1165 C 0.60089 0.94982 0.35214 0.0
C1166 C 0.56973 0.93087 0.35357 0.0
C1167 C 0.57702 0.9753 0.3503 0.0
N1168 N 0.60553 0.97789 0.35008 0.0
O1169 O 0.5085 0.94531 0.34457 0.0
H1170 H 0.55885 0.90707 0.35542 0.0
H1171 H 0.57258 0.99405 0.34914 0.0
O1172 O 0.50198 0.892 0.3503 0.0
C1173 C 0.51089 0.97207 0.34417 0.0
O1174 O 0.51838 0.98948 0.34981 0.0
N1175 N 0.51547 0.92153 0.36282 0.0
C1176 C 0.52253 0.91035 0.37671 0.0
C1177 C 0.50531 0.88545 0.37214 0.0
C1178 C 0.50164 0.89154 0.36521 0.0
C1179 C 0.53186 0.94602 0.36722 0.0
C1180 C 0.53566 0.94096 0.37421 0.0
H1181 H 0.48743 0.8721 0.36183 0.0
H1182 H 0.54206 0.96961 0.36525 0.0
H1183 H 0.44676 0.87874 0.34861 0.0
H1184 H 0.41095 0.92119 0.36181 0.0
H1185 H 0.61856 0.94312 0.3525 0.0
H1186 H 0.49434 0.86152 0.37394 0.0
H1187 H 0.54908 0.96074 0.37761 0.0
C1188 C 0.17629 0.19323 0.19152 0.0
C1189 C 0.16276 0.20481 0.18681 0.0
C1190 C 0.18024 0.16811 0.18967 0.0
C1191 C 0.18004 0.12011 0.17472 0.0
H1192 H 0.15647 0.05685 0.18901 0.0
C1193 C 0.19708 0.01238 0.17232 0.0
C1194 C 0.17479 0.98469 0.17558 0.0
C1195 C 0.19514 0.03956 0.1729 0.0
C1196 C 0.1628 0.07409 0.18493 0.0
H1197 H 0.14477 0.2003 0.17629 0.0
H1198 H 0.15079 0.156 0.17316 0.0
H1199 H 0.15602 0.10455 0.19166 0.0
H1200 H 0.13158 0.96298 0.18146 0.0
H1201 H 0.12772 0.00993 0.1823 0.0
H1202 H 0.18603 0.08902 0.16794 0.0
C1203 C 0.15849 0.1664 0.17826 0.0
C1204 C 0.16307 0.10173 0.18649 0.0
C1205 C 0.15464 0.19159 0.1801 0.0
C1206 C 0.14935 0.98407 0.17897 0.0
C1207 C 0.14727 0.01106 0.1795 0.0
C1208 C 0.17972 0.09232 0.17315 0.0
C1209 C 0.17069 0.15392 0.18308 0.0
C1210 C 0.17166 0.12509 0.18141 0.0
C1211 C 0.17076 0.03941 0.1767 0.0
C1212 C 0.17091 0.06892 0.17823 0.0
H1213 H 0.18276 0.20273 0.19673 0.0
H1214 H 0.19027 0.15943 0.19346 0.0
H1215 H 0.18699 0.13774 0.1707 0.0
H1216 H 0.21703 0.01359 0.1697 0.0
H1217 H 0.21365 0.06102 0.1707 0.0
C1218 C 0.00801 0.17747 0.17318 0.0
C1219 C 0.0324 0.18581 0.17797 0.0
C1220 C 0.98273 0.14696 0.17301 0.0
C1221 C 0.95521 0.06566 0.17846 0.0
H1222 H 0.87465 0.06055 0.17979 0.0
C1223 C 0.84288 0.95291 0.18692 0.0
C1224 C 0.81433 0.9473 0.18412 0.0
C1225 C 0.87046 0.98073 0.18541 0.0
C1226 C 0.89682 0.06134 0.17928 0.0
H1227 H 0.05041 0.1683 0.18603 0.0
H1228 H 0.00639 0.11508 0.1857 0.0
H1229 H 0.9213 0.11099 0.17817 0.0
H1230 H 0.7924 0.96521 0.1772 0.0
H1231 H 0.84035 0.01311 0.17438 0.0
H1232 H 0.9307 0.01594 0.17957 0.0
C1233 C 0.00673 0.13211 0.1821 0.0
C1234 C 0.92361 0.09036 0.17836 0.0
C1235 C 0.03183 0.16265 0.18232 0.0
C1236 C 0.81402 0.9693 0.17955 0.0
C1237 C 0.84153 0.9968 0.17796 0.0
C1238 C 0.92831 0.03649 0.17931 0.0
C1239 C 0.98154 0.12414 0.17757 0.0
C1240 C 0.95311 0.09289 0.178 0.0
C1241 C 0.87004 0.00327 0.18099 0.0
C1242 C 0.89876 0.03399 0.17979 0.0
H1243 H 0.00779 0.19476 0.16975 0.0
H1244 H 0.96376 0.14137 0.16941 0.0
H1245 H 0.97767 0.06693 0.17816 0.0
H1246 H 0.84367 0.93633 0.19047 0.0
H1247 H 0.89186 0.98497 0.1879 0.0
C1248 C 0.82446 0.8369 0.18239 0.0
C1249 C 0.80148 0.80829 0.18521 0.0
C1250 C 0.85542 0.8435 0.18177 0.0
C1251 C 0.90861 0.82335 0.19037 0.0
H1252 H 0.96202 0.85716 0.17416 0.0
C1253 C 0.02679 0.82865 0.18919 0.0
C1254 C 0.05225 0.85462 0.18607 0.0
C1255 C 0.99669 0.82416 0.18868 0.0
C1256 C 0.94755 0.84814 0.17876 0.0
H1257 H 0.79266 0.76333 0.18908 0.0
H1258 H 0.84626 0.77493 0.18802 0.0
H1259 H 0.90839 0.84747 0.17373 0.0
H1260 H 0.06527 0.89595 0.1798 0.0
H1261 H 0.013 0.88866 0.17914 0.0
H1262 H 0.9474 0.8244 0.19548 0.0
C1263 C 0.84052 0.79244 0.18641 0.0
C1264 C 0.91685 0.84252 0.1785 0.0
C1265 C 0.80974 0.78579 0.18698 0.0
C1266 C 0.04654 0.87588 0.18237 0.0
C1267 C 0.01637 0.87149 0.18191 0.0
C1268 C 0.93922 0.82922 0.19066 0.0
C1269 C 0.86385 0.82164 0.18399 0.0
C1270 C 0.89695 0.82954 0.18426 0.0
C1271 C 0.99108 0.84567 0.1851 0.0
C1272 C 0.95898 0.84116 0.18483 0.0
H1273 H 0.81884 0.85461 0.18091 0.0
H1274 H 0.87299 0.86617 0.17986 0.0
H1275 H 0.89398 0.81395 0.19494 0.0
H1276 H 0.02994 0.8118 0.19213 0.0
H1277 H 0.97774 0.80365 0.1911 0.0
C1278 C 0.98913 0.15027 0.31002 0.0
C1279 C 0.9893 0.17448 0.31389 0.0
C1280 C 0.01499 0.14606 0.31009 0.0
C1281 C 0.09935 0.19048 0.31216 0.0
H1282 H 0.09267 0.109 0.31247 0.0
C1283 C 0.1948 0.16693 0.3015 0.0
C1284 C 0.20162 0.14684 0.30533 0.0
C1285 C 0.17005 0.17133 0.30344 0.0
C1286 C 0.09497 0.13194 0.31245 0.0
H1287 H 0.01624 0.21256 0.32106 0.0
H1288 H 0.06163 0.20529 0.32113 0.0
H1289 H 0.04635 0.11343 0.31457 0.0
H1290 H 0.18831 0.11676 0.31445 0.0
H1291 H 0.14483 0.12396 0.31771 0.0
H1292 H 0.14784 0.20891 0.30989 0.0
C1293 C 0.04145 0.18966 0.31804 0.0
C1294 C 0.06842 0.13444 0.3136 0.0
C1295 C 0.0154 0.19366 0.31804 0.0
C1296 C 0.18344 0.13184 0.31126 0.0
C1297 C 0.15853 0.13603 0.31316 0.0
C1298 C 0.12583 0.18794 0.31094 0.0
C1299 C 0.04169 0.16615 0.31397 0.0
C1300 C 0.07027 0.16369 0.31339 0.0
C1301 C 0.1514 0.15559 0.30923 0.0
C1302 C 0.12384 0.15861 0.31099 0.0
H1303 H 0.9693 0.13501 0.3068 0.0
H1304 H 0.01457 0.12788 0.30686 0.0
H1305 H 0.10142 0.2133 0.3119 0.0
H1306 H 0.20796 0.17863 0.29687 0.0
H1307 H 0.16488 0.18629 0.30027 0.0
C1308 C 0.8039 0.82277 0.32047 0.0
C1309 C 0.82347 0.81636 0.31634 0.0
C1310 C 0.80828 0.85297 0.32072 0.0
C1311 C 0.86431 0.93577 0.31694 0.0
H1312 H 0.7909 0.94099 0.31215 0.0
C1313 C 0.86826 0.05369 0.31357 0.0
C1314 C 0.85506 0.05673 0.30732 0.0
C1315 C 0.86319 0.02457 0.31575 0.0
C1316 C 0.81156 0.93988 0.31352 0.0
H1317 H 0.86413 0.83674 0.30961 0.0
H1318 H 0.87201 0.88941 0.31013 0.0
H1319 H 0.78593 0.89006 0.31437 0.0
H1320 H 0.82539 0.03094 0.29858 0.0
H1321 H 0.81618 0.98023 0.30245 0.0
H1322 H 0.89008 0.9855 0.31589 0.0
C1323 C 0.85321 0.87118 0.31314 0.0
C1324 C 0.80868 0.91079 0.31486 0.0
C1325 C 0.84859 0.84099 0.31281 0.0
C1326 C 0.83573 0.02964 0.30344 0.0
C1327 C 0.83044 0.00049 0.30566 0.0
C1328 C 0.86714 0.96488 0.31567 0.0
C1329 C 0.8326 0.87732 0.31694 0.0
C1330 C 0.83513 0.9084 0.31644 0.0
C1331 C 0.8445 0.99773 0.31178 0.0
C1332 C 0.84089 0.96717 0.3138 0.0
H1333 H 0.78428 0.8042 0.32322 0.0
H1334 H 0.7922 0.85714 0.32373 0.0
H1335 H 0.88506 0.9346 0.31817 0.0
H1336 H 0.88266 0.07375 0.3168 0.0
H1337 H 0.87399 0.02306 0.32054 0.0
C1338 C 0.1633 0.01098 0.30601 0.0
C1339 C 0.18493 0.01291 0.31102 0.0
C1340 C 0.13315 0.98536 0.30584 0.0
C1341 C 0.08211 0.91836 0.3036 0.0
H1342 H 0.02789 0.88588 0.31973 0.0
C1343 C 0.96457 0.80384 0.30233 0.0
C1344 C 0.93874 0.8055 0.30485 0.0
C1345 C 0.99495 0.82773 0.30372 0.0
C1346 C 0.04285 0.89472 0.31519 0.0
H1347 H 0.19119 0.99014 0.32004 0.0
H1348 H 0.13806 0.94536 0.31979 0.0
H1349 H 0.08026 0.93151 0.321 0.0
H1350 H 0.92503 0.83359 0.31099 0.0
H1351 H 0.97799 0.87488 0.31349 0.0
H1352 H 0.04489 0.88193 0.29776 0.0
C1353 C 0.14476 0.96371 0.31596 0.0
C1354 C 0.0728 0.92065 0.31593 0.0
C1355 C 0.17515 0.98932 0.31609 0.0
C1356 C 0.94417 0.83118 0.30902 0.0
C1357 C 0.97459 0.85494 0.31046 0.0
C1358 C 0.05243 0.8923 0.30288 0.0
C1359 C 0.12375 0.96118 0.31072 0.0
C1360 C 0.09252 0.93293 0.31011 0.0
C1361 C 1.00026 0.85373 0.30772 0.0
C1362 C 0.03237 0.88036 0.30865 0.0
H1363 H 0.16974 0.02898 0.30211 0.0
H1364 H 0.11723 0.98429 0.30183 0.0
H1365 H 0.09697 0.92715 0.29904 0.0
H1366 H 0.96142 0.7842 0.29923 0.0
H1367 H 0.01434 0.82598 0.30162 0.0
C1368 C 0.81715 0.99656 0.81754 0.0
C1369 C 0.83606 0.02338 0.81358 0.0
C1370 C 0.82094 0.97042 0.81708 0.0
C1371 C 0.8506 0.93436 0.80471 0.0
H1372 H 0.83759 0.87794 0.82002 0.0
C1373 C 0.83548 0.81301 0.79987 0.0
C1374 C 0.85112 0.80305 0.80439 0.0
C1375 C 0.83346 0.83953 0.80141 0.0
C1376 C 0.8415 0.89358 0.8157 0.0
H1377 H 0.87533 0.04482 0.80646 0.0
H1378 H 0.8824 0.99963 0.80578 0.0
H1379 H 0.8371 0.92631 0.82224 0.0
H1380 H 0.87579 0.81267 0.81426 0.0
H1381 H 0.87295 0.85932 0.81685 0.0
H1382 H 0.85558 0.90212 0.79819 0.0
C1383 C 0.86399 0.99832 0.80907 0.0
C1384 C 0.84094 0.92116 0.81696 0.0
C1385 C 0.86006 0.02429 0.80949 0.0
C1386 C 0.86401 0.81988 0.81059 0.0
C1387 C 0.86204 0.84646 0.81213 0.0
C1388 C 0.85121 0.90691 0.80346 0.0
C1389 C 0.84385 0.97072 0.81268 0.0
C1390 C 0.84545 0.94186 0.81148 0.0
C1391 C 0.84709 0.85683 0.80751 0.0
C1392 C 0.84651 0.88609 0.80892 0.0
H1393 H 0.79839 0.99514 0.82072 0.0
H1394 H 0.80492 0.94951 0.8199 0.0
H1395 H 0.85366 0.94947 0.80034 0.0
H1396 H 0.82545 0.80084 0.79503 0.0
H1397 H 0.82132 0.84657 0.79779 0.0
C1398 C 0.16048 0.03994 0.80599 0.0
C1399 C 0.19095 0.04492 0.80634 0.0
C1400 C 0.13497 0.01084 0.80763 0.0
C1401 C 0.1123 0.92733 0.80966 0.0
H1402 H 0.03745 0.92151 0.81758 0.0
C1403 C 0.0037 0.80954 0.81692 0.0
C1404 C 0.97651 0.80475 0.81352 0.0
C1405 C 0.03025 0.83926 0.81709 0.0
C1406 C 0.05827 0.92286 0.81539 0.0
H1407 H 0.21881 0.02374 0.80885 0.0
H1408 H 0.17442 0.9731 0.81197 0.0
H1409 H 0.08374 0.97264 0.81595 0.0
H1410 H 0.95519 0.82744 0.80794 0.0
H1411 H 0.00126 0.87945 0.80842 0.0
H1412 H 0.08666 0.87737 0.80922 0.0
C1413 C 0.17 0.99132 0.81022 0.0
C1414 C 0.08474 0.95213 0.81439 0.0
C1415 C 0.19549 0.02033 0.80845 0.0
C1416 C 0.97584 0.83045 0.8106 0.0
C1417 C 0.00214 0.86021 0.81089 0.0
C1418 C 0.08598 0.89806 0.81078 0.0
C1419 C 0.13933 0.98608 0.80979 0.0
C1420 C 0.11195 0.95482 0.81138 0.0
C1421 C 0.0298 0.86475 0.81399 0.0
C1422 C 0.05858 0.89559 0.81354 0.0
H1423 H 0.15633 0.05841 0.80428 0.0
H1424 H 0.11179 0.00765 0.80707 0.0
H1425 H 0.13251 0.92832 0.80723 0.0
H1426 H 0.00494 0.79011 0.81917 0.0
H1427 H 0.05132 0.84224 0.81953 0.0
C1428 C 0.16255 0.14817 0.80961 0.0
C1429 C 0.18644 0.16869 0.81413 0.0
C1430 C 0.13393 0.1472 0.80948 0.0
C1431 C 0.09014 0.17225 0.80654 0.0
H1432 H 0.03674 0.15878 0.82251 0.0
C1433 C 0.97923 0.18163 0.80436 0.0
C1434 C 0.95189 0.15511 0.80673 0.0
C1435 C 0.00863 0.18601 0.80605 0.0
C1436 C 0.05156 0.16273 0.81802 0.0
H1437 H 0.19809 0.20259 0.82242 0.0
H1438 H 0.14743 0.20028 0.82228 0.0
H1439 H 0.08645 0.15966 0.82409 0.0
H1440 H 0.93477 0.11306 0.81302 0.0
H1441 H 0.98588 0.12124 0.81604 0.0
H1442 H 0.05548 0.17517 0.80045 0.0
C1443 C 0.1513 0.18537 0.81878 0.0
C1444 C 0.07995 0.16334 0.81893 0.0
C1445 C 0.18023 0.18664 0.81886 0.0
C1446 C 0.95496 0.13392 0.81111 0.0
C1447 C 0.98438 0.13855 0.81286 0.0
C1448 C 0.06212 0.17214 0.80565 0.0
C1449 C 0.12831 0.16635 0.81393 0.0
C1450 C 0.09918 0.16756 0.81317 0.0
C1451 C 0.01147 0.16426 0.81022 0.0
C1452 C 0.04234 0.16697 0.81136 0.0
H1453 H 0.16617 0.1334 0.80603 0.0
H1454 H 0.11632 0.13187 0.80579 0.0
H1455 H 0.10473 0.17584 0.80203 0.0
H1456 H 0.97809 0.19888 0.80111 0.0
H1457 H 0.02921 0.20625 0.80401 0.0
C1458 C 0.01421 0.85357 0.68084 0.0
C1459 C 0.01403 0.82908 0.67709 0.0
C1460 C 0.98734 0.85591 0.68129 0.0
C1461 C 0.90821 0.82742 0.67399 0.0
H1462 H 0.89181 0.84626 0.69262 0.0
C1463 C 0.80966 0.85442 0.6804 0.0
C1464 C 0.79435 0.84436 0.68686 0.0
C1465 C 0.83486 0.8503 0.67874 0.0
C1466 C 0.89579 0.8406 0.68741 0.0
H1467 H 0.98602 0.78885 0.67055 0.0
H1468 H 0.9388 0.79274 0.67139 0.0
H1469 H 0.93932 0.84485 0.69036 0.0
H1470 H 0.79289 0.82081 0.69652 0.0
H1471 H 0.83625 0.81294 0.69356 0.0
H1472 H 0.86417 0.82259 0.67109 0.0
C1473 C 0.95984 0.81027 0.67394 0.0
C1474 C 0.92333 0.8403 0.68608 0.0
C1475 C 0.9869 0.80804 0.67346 0.0
C1476 C 0.804 0.8288 0.69149 0.0
C1477 C 0.82915 0.82462 0.68983 0.0
C1478 C 0.88054 0.82771 0.67532 0.0
C1479 C 0.95953 0.83369 0.67805 0.0
C1480 C 0.93003 0.83393 0.67935 0.0
C1481 C 0.84533 0.83593 0.6835 0.0
C1482 C 0.87405 0.83437 0.68205 0.0
H1483 H 0.03489 0.87044 0.68362 0.0
H1484 H 0.98816 0.87474 0.68434 0.0
H1485 H 0.9127 0.82251 0.66875 0.0
H1486 H 0.80251 0.86594 0.67665 0.0
H1487 H 0.84683 0.8594 0.67383 0.0
C1488 C 0.17319 0.97563 0.68416 0.0
C1489 C 0.14337 0.95105 0.68585 0.0
C1490 C 0.1778 0.00526 0.68262 0.0
C1491 C 0.13444 0.04707 0.6783 0.0
H1492 H 0.21096 0.11955 0.68451 0.0
C1493 C 0.15048 0.17013 0.68224 0.0
C1494 C 0.17778 0.19545 0.67952 0.0
C1495 C 0.14616 0.14001 0.68204 0.0
C1496 C 0.18965 0.0995 0.68267 0.0
H1497 H 0.09507 0.93815 0.68737 0.0
H1498 H 0.1031 0.98996 0.68498 0.0
H1499 H 0.20382 0.06763 0.68624 0.0
H1500 H 0.22171 0.20904 0.67435 0.0
H1501 H 0.2144 0.1563 0.67415 0.0
H1502 H 0.11983 0.07927 0.67506 0.0
C1503 C 0.12288 0.98635 0.68458 0.0
C1504 C 0.18554 0.06969 0.68364 0.0
C1505 C 0.11823 0.95663 0.68599 0.0
C1506 C 0.20036 0.18995 0.67645 0.0
C1507 C 0.19629 0.15987 0.67637 0.0
C1508 C 0.13837 0.07687 0.67745 0.0
C1509 C 0.15274 0.01112 0.68286 0.0
C1510 C 0.15776 0.043 0.68152 0.0
C1511 C 0.16929 0.13472 0.67923 0.0
C1512 C 0.16592 0.10332 0.67967 0.0
H1513 H 0.19286 0.97178 0.68392 0.0
H1514 H 0.201 0.02348 0.68119 0.0
H1515 H 0.11304 0.02723 0.67645 0.0
H1516 H 0.13267 0.17365 0.68464 0.0
H1517 H 0.12523 0.12103 0.68432 0.0
C1518 C 0.8242 0.00342 0.67455 0.0
C1519 C 0.8154 0.97812 0.6791 0.0
C1520 C 0.85431 0.02938 0.67485 0.0
C1521 C 0.91862 0.06967 0.68739 0.0
H1522 H 0.96512 0.11857 0.67136 0.0
C1523 C 0.02573 0.19196 0.69056 0.0
C1524 C 0.052 0.19927 0.68644 0.0
C1525 C 0.99716 0.16509 0.68925 0.0
C1526 C 0.9525 0.10504 0.67588 0.0
H1527 H 0.83194 0.95914 0.68715 0.0
H1528 H 0.88441 0.00406 0.6876 0.0
H1529 H 0.91578 0.07001 0.66962 0.0
H1530 H 0.06833 0.18447 0.67751 0.0
H1531 H 0.01863 0.13727 0.67531 0.0
H1532 H 0.95534 0.10428 0.69365 0.0
C1533 C 0.86787 0.00431 0.68393 0.0
C1534 C 0.92412 0.07737 0.67489 0.0
C1535 C 0.83782 0.97849 0.68366 0.0
C1536 C 0.04875 0.17937 0.68086 0.0
C1537 C 0.02014 0.15246 0.67954 0.0
C1538 C 0.94688 0.09725 0.68838 0.0
C1539 C 0.87621 0.03046 0.67968 0.0
C1540 C 0.90685 0.05938 0.68063 0.0
C1541 C 0.99411 0.14481 0.68378 0.0
C1542 C 0.96411 0.11536 0.68265 0.0
H1543 H 0.80744 0.00386 0.67099 0.0
H1544 H 0.85992 0.04919 0.67152 0.0
H1545 H 0.90572 0.05666 0.69194 0.0
H1546 H 0.02735 0.20655 0.69493 0.0
H1547 H 0.97744 0.16013 0.69254 0.0
C1548 C 0.79802 0.51024 0.51254 0.0
C1549 C 0.80766 0.52757 0.51877 0.0
C1550 C 0.80429 0.48604 0.51131 0.0
C1551 C 0.82208 0.43186 0.52079 0.0
H1552 H 0.8443 0.4157 0.50249 0.0
C1553 C 0.82716 0.32057 0.51553 0.0
C1554 C 0.85288 0.32374 0.51174 0.0
C1555 C 0.8207 0.34494 0.5158 0.0
C1556 C 0.83828 0.42001 0.50764 0.0
H1557 H 0.83205 0.53314 0.52854 0.0
H1558 H 0.84361 0.49164 0.52634 0.0
H1559 H 0.83677 0.46044 0.5042 0.0
H1560 H 0.89122 0.35449 0.505 0.0
H1561 H 0.88019 0.39738 0.50555 0.0
H1562 H 0.8243 0.39207 0.5243 0.0
C1563 C 0.83071 0.49641 0.52244 0.0
C1564 C 0.83366 0.44547 0.5086 0.0
C1565 C 0.8244 0.52054 0.52367 0.0
C1566 C 0.8712 0.35133 0.50796 0.0
C1567 C 0.86483 0.37588 0.50826 0.0
C1568 C 0.82671 0.40652 0.51983 0.0
C1569 C 0.82039 0.47858 0.51629 0.0
C1570 C 0.82555 0.45172 0.5152 0.0
C1571 C 0.83991 0.37322 0.51232 0.0
C1572 C 0.83478 0.40019 0.51324 0.0
H1573 H 0.78552 0.51524 0.50859 0.0
H1574 H 0.79583 0.47268 0.50654 0.0
H1575 H 0.81544 0.43568 0.52592 0.0
H1576 H 0.81225 0.29939 0.5184 0.0
H1577 H 0.80084 0.34177 0.51883 0.0
C1578 C 0.45972 0.28188 0.51097 0.0
C1579 C 0.45411 0.27322 0.51804 0.0
C1580 C 0.48533 0.31058 0.50902 0.0
C1581 C 0.56382 0.36277 0.51457 0.0
H1582 H 0.5624 0.42947 0.50429 0.0
C1583 C 0.6678 0.48681 0.51489 0.0
C1584 C 0.67436 0.50642 0.50908 0.0
C1585 C 0.64139 0.4572 0.51501 0.0
C1586 C 0.56332 0.41083 0.50703 0.0
H1587 H 0.47041 0.28828 0.52861 0.0
H1588 H 0.51506 0.33802 0.5252 0.0
H1589 H 0.51367 0.38037 0.50629 0.0
H1590 H 0.65881 0.50966 0.4987 0.0
H1591 H 0.61287 0.45736 0.49883 0.0
H1592 H 0.61315 0.39251 0.51529 0.0
C1593 C 0.49954 0.32271 0.52118 0.0
C1594 C 0.53539 0.38285 0.5082 0.0
C1595 C 0.47378 0.29438 0.52313 0.0
C1596 C 0.65441 0.49517 0.50327 0.0
C1597 C 0.62793 0.4653 0.50337 0.0
C1598 C 0.59168 0.39039 0.51331 0.0
C1599 C 0.50595 0.33072 0.51411 0.0
C1600 C 0.5354 0.359 0.51215 0.0
C1601 C 0.62089 0.4461 0.50929 0.0
C1602 C 0.59174 0.41519 0.50972 0.0
H1603 H 0.44487 0.26599 0.50696 0.0
H1604 H 0.48987 0.31636 0.50354 0.0
H1605 H 0.5644 0.34442 0.51753 0.0
H1606 H 0.68257 0.49456 0.51946 0.0
H1607 H 0.63657 0.44345 0.51972 0.0
C1608 C 0.73263 0.21962 0.5167 0.0
C1609 C 0.73618 0.19367 0.51805 0.0
C1610 C 0.7034 0.21573 0.51511 0.0
C1611 C 0.61951 0.16013 0.51733 0.0
H1612 H 0.61172 0.21773 0.50491 0.0
C1613 C 0.50267 0.15796 0.51341 0.0
C1614 C 0.505 0.18704 0.51468 0.0
C1615 C 0.52955 0.15578 0.51247 0.0
C1616 C 0.61354 0.20141 0.50837 0.0
H1617 H 0.71197 0.14322 0.51861 0.0
H1618 H 0.66073 0.13628 0.51575 0.0
H1619 H 0.66143 0.21881 0.50576 0.0
H1620 H 0.53731 0.23686 0.51546 0.0
H1621 H 0.58394 0.23302 0.51374 0.0
H1622 H 0.57165 0.14309 0.52 0.0
C1623 C 0.68055 0.15971 0.51603 0.0
C1624 C 0.64202 0.2021 0.50889 0.0
C1625 C 0.70986 0.16365 0.51767 0.0
C1626 C 0.53463 0.21404 0.51456 0.0
C1627 C 0.56139 0.21189 0.51353 0.0
C1628 C 0.59094 0.15927 0.51676 0.0
C1629 C 0.67694 0.18576 0.51479 0.0
C1630 C 0.64562 0.1821 0.51353 0.0
C1631 C 0.55918 0.18269 0.51264 0.0
C1632 C 0.58793 0.18047 0.51242 0.0
H1633 H 0.7523 0.24309 0.51708 0.0
H1634 H 0.70146 0.23637 0.51435 0.0
H1635 H 0.62148 0.14461 0.52101 0.0
H1636 H 0.48023 0.13678 0.51332 0.0
H1637 H 0.5272 0.13301 0.51171 0.0
C1638 C 0.67322 0.52156 0.6483 0.0
C1639 C 0.64577 0.50169 0.64463 0.0
C1640 C 0.69869 0.51662 0.64812 0.0
C1641 C 0.73041 0.47624 0.63736 0.0
H1642 H 0.78927 0.49878 0.65262 0.0
C1643 C 0.8297 0.44726 0.63752 0.0
C1644 C 0.85962 0.47259 0.63886 0.0
C1645 C 0.80327 0.44999 0.6386 0.0
C1646 C 0.77302 0.4925 0.64832 0.0
H1647 H 0.62275 0.46008 0.63823 0.0
H1648 H 0.66629 0.45049 0.6382 0.0
H1649 H 0.74286 0.5037 0.65407 0.0
H1650 H 0.88536 0.52029 0.64255 0.0
H1651 H 0.83893 0.52496 0.64455 0.0
H1652 H 0.76032 0.46439 0.63169 0.0
C1653 C 0.66887 0.47067 0.64099 0.0
C1654 C 0.7465 0.49543 0.64913 0.0
C1655 C 0.6437 0.47596 0.64106 0.0
C1656 C 0.86257 0.50054 0.64142 0.0
C1657 C 0.83607 0.50311 0.64262 0.0
C1658 C 0.7566 0.47285 0.63661 0.0
C1659 C 0.69703 0.49139 0.64435 0.0
C1660 C 0.72487 0.48744 0.64364 0.0
C1661 C 0.80621 0.47794 0.64115 0.0
C1662 C 0.77821 0.48108 0.64206 0.0
H1663 H 0.67556 0.54173 0.65106 0.0
H1664 H 0.72002 0.53331 0.65071 0.0
H1665 H 0.71486 0.47061 0.63295 0.0
H1666 H 0.82681 0.42554 0.63549 0.0
H1667 H 0.78048 0.43022 0.63745 0.0
C1668 C 0.52356 0.16923 0.64085 0.0
C1669 C 0.49787 0.14534 0.64437 0.0
C1670 C 0.52693 0.19888 0.64024 0.0
C1671 C 0.49577 0.24927 0.6468 0.0
H1672 H 0.53037 0.29284 0.62938 0.0
C1673 C 0.48974 0.35812 0.63743 0.0
C1674 C 0.51871 0.38368 0.63555 0.0
C1675 C 0.48691 0.32898 0.63874 0.0
C1676 C 0.52076 0.28095 0.63428 0.0
H1677 H 0.4558 0.13379 0.65014 0.0
H1678 H 0.4609 0.18508 0.64885 0.0
H1679 H 0.52636 0.24243 0.63138 0.0
H1680 H 0.56717 0.39879 0.63339 0.0
H1681 H 0.56207 0.34773 0.63551 0.0
H1682 H 0.48922 0.2877 0.64951 0.0
C1683 C 0.47904 0.18139 0.64672 0.0
C1684 C 0.51869 0.25215 0.63547 0.0
C1685 C 0.47602 0.15188 0.64745 0.0
C1686 C 0.54465 0.3795 0.63489 0.0
C1687 C 0.5417 0.35032 0.63606 0.0
C1688 C 0.49734 0.27787 0.64554 0.0
C1689 C 0.50429 0.20518 0.643 0.0
C1690 C 0.50642 0.23597 0.64177 0.0
C1691 C 0.51287 0.32484 0.63803 0.0
C1692 C 0.51006 0.29404 0.63929 0.0
H1693 H 0.54091 0.1649 0.63848 0.0
H1694 H 0.54717 0.21674 0.63752 0.0
H1695 H 0.48661 0.23786 0.65176 0.0
H1696 H 0.46948 0.36087 0.63801 0.0
H1697 H 0.4644 0.3096 0.64022 0.0
C1698 C 0.62437 0.16399 0.63873 0.0
C1699 C 0.61909 0.1334 0.63841 0.0
C1700 C 0.65363 0.18873 0.64058 0.0
C1701 C 0.73701 0.21036 0.64201 0.0
H1702 H 0.74332 0.28219 0.65167 0.0
C1703 C 0.85527 0.31688 0.65003 0.0
C1704 C 0.85961 0.34503 0.64724 0.0
C1705 C 0.82565 0.29015 0.65003 0.0
C1706 C 0.74185 0.26221 0.64899 0.0
H1707 H 0.63998 0.1045 0.63995 0.0
H1708 H 0.69095 0.14751 0.64342 0.0
H1709 H 0.69211 0.23655 0.64965 0.0
H1710 H 0.83615 0.36765 0.64257 0.0
H1711 H 0.78442 0.3213 0.64276 0.0
H1712 H 0.78695 0.23619 0.64145 0.0
C1713 C 0.67279 0.15265 0.64203 0.0
C1714 C 0.71253 0.23612 0.64778 0.0
C1715 C 0.64359 0.12795 0.64006 0.0
C1716 C 0.83356 0.34633 0.64476 0.0
C1717 C 0.80393 0.31983 0.64489 0.0
C1718 C 0.76636 0.23626 0.64334 0.0
C1719 C 0.67827 0.18344 0.64229 0.0
C1720 C 0.70964 0.21009 0.64413 0.0
C1721 C 0.79981 0.29133 0.64737 0.0
C1722 C 0.76899 0.26264 0.64671 0.0
H1723 H 0.606 0.16889 0.63738 0.0
H1724 H 0.65701 0.2121 0.64054 0.0
H1725 H 0.73585 0.19106 0.63911 0.0
H1726 H 0.87495 0.31511 0.65192 0.0
H1727 H 0.82301 0.26843 0.65199 0.0
C1728 C 0.49841 0.13495 0.14181 0.0
C1729 C 0.52772 0.13954 0.13986 0.0
C1730 C 0.49463 0.16044 0.14341 0.0
C1731 C 0.54014 0.24609 0.14729 0.0
H1732 H 0.4635 0.24318 0.14165 0.0
C1733 C 0.52639 0.35394 0.14253 0.0
C1734 C 0.50004 0.35339 0.14542 0.0
C1735 C 0.53012 0.32784 0.14301 0.0
C1736 C 0.48486 0.24414 0.14334 0.0
H1737 H 0.57593 0.17421 0.13792 0.0
H1738 H 0.5693 0.21873 0.1404 0.0
H1739 H 0.469 0.19736 0.14004 0.0
H1740 H 0.45727 0.32542 0.15121 0.0
H1741 H 0.46347 0.27938 0.1519 0.0
H1742 H 0.55644 0.29364 0.15021 0.0
C1743 C 0.54933 0.19555 0.14098 0.0
C1744 C 0.48803 0.21784 0.14244 0.0
C1745 C 0.55317 0.17004 0.13951 0.0
C1746 C 0.47791 0.32656 0.14898 0.0
C1747 C 0.48133 0.3002 0.14934 0.0
C1748 C 0.53714 0.27255 0.14806 0.0
C1749 C 0.52001 0.19115 0.14296 0.0
C1750 C 0.51586 0.21853 0.14434 0.0
C1751 C 0.50727 0.30052 0.14628 0.0
C1752 C 0.50958 0.27187 0.14604 0.0
H1753 H 0.47852 0.1116 0.1422 0.0
H1754 H 0.47183 0.156 0.14504 0.0
H1755 H 0.56163 0.24737 0.14898 0.0
H1756 H 0.54381 0.37433 0.13976 0.0
H1757 H 0.55022 0.32857 0.14057 0.0
C1758 C 0.86406 0.35742 0.13314 0.0
C1759 C 0.87391 0.38272 0.13775 0.0
C1760 C 0.83892 0.32816 0.13485 0.0
C1761 C 0.78872 0.27984 0.14941 0.0
H1762 H 0.72908 0.23781 0.13454 0.0
C1763 C 0.68464 0.15237 0.15108 0.0
C1764 C 0.65702 0.14597 0.14762 0.0
C1765 C 0.71118 0.18208 0.15065 0.0
C1766 C 0.74532 0.24935 0.13877 0.0
H1767 H 0.86596 0.39651 0.14795 0.0
H1768 H 0.82164 0.34565 0.15084 0.0
H1769 H 0.77593 0.28728 0.13221 0.0
H1770 H 0.63473 0.16628 0.14152 0.0
H1771 H 0.68059 0.21796 0.14089 0.0
H1772 H 0.75754 0.2419 0.156 0.0
C1773 C 0.83349 0.34844 0.14592 0.0
C1774 C 0.77245 0.27752 0.13741 0.0
C1775 C 0.85867 0.37772 0.14422 0.0
C1776 C 0.65581 0.17031 0.14414 0.0
C1777 C 0.68216 0.19992 0.14375 0.0
C1778 C 0.76148 0.25151 0.15078 0.0
C1779 C 0.82297 0.32347 0.1412 0.0
C1780 C 0.7945 0.29313 0.1427 0.0
C1781 C 0.71045 0.20587 0.14679 0.0
C1782 C 0.7394 0.23606 0.14547 0.0
H1783 H 0.87509 0.36037 0.12811 0.0
H1784 H 0.83171 0.30927 0.13114 0.0
H1785 H 0.80536 0.29121 0.15359 0.0
H1786 H 0.6863 0.13405 0.15379 0.0
H1787 H 0.73264 0.18591 0.15304 0.0
C1788 C 0.64803 0.49527 0.13144 0.0
C1789 C 0.62252 0.47999 0.13601 0.0
C1790 C 0.67688 0.49832 0.13312 0.0
C1791 C 0.72389 0.49396 0.14769 0.0
H1792 H 0.76741 0.47928 0.13267 0.0
C1793 C 0.83605 0.47475 0.14211 0.0
C1794 C 0.85945 0.49974 0.14593 0.0
C1795 C 0.80609 0.47062 0.14168 0.0
C1796 C 0.75543 0.48309 0.13695 0.0
H1797 H 0.60799 0.45718 0.14608 0.0
H1798 H 0.65808 0.4618 0.14892 0.0
H1799 H 0.71784 0.47642 0.13035 0.0
H1800 H 0.86939 0.53898 0.15261 0.0
H1801 H 0.81702 0.53204 0.15178 0.0
H1802 H 0.76145 0.50006 0.15432 0.0
C1803 C 0.65578 0.4716 0.14406 0.0
C1804 C 0.7272 0.48193 0.13559 0.0
C1805 C 0.6269 0.46861 0.14238 0.0
C1806 C 0.85179 0.51945 0.14964 0.0
C1807 C 0.82176 0.51544 0.14917 0.0
C1808 C 0.75224 0.4951 0.14906 0.0
C1809 C 0.68099 0.4861 0.1394 0.0
C1810 C 0.71111 0.48746 0.14093 0.0
C1811 C 0.79885 0.49154 0.145 0.0
C1812 C 0.76832 0.48964 0.1437 0.0
H1813 H 0.64559 0.50419 0.12648 0.0
H1814 H 0.69596 0.51008 0.12946 0.0
H1815 H 0.71219 0.49854 0.15191 0.0
H1816 H 0.84113 0.45886 0.13928 0.0
H1817 H 0.78877 0.45146 0.13858 0.0
C1818 C 0.64808 0.11753 0.01874 0.0
C1819 C 0.67898 0.14142 0.01756 0.0
C1820 C 0.62337 0.12329 0.01813 0.0
C1821 C 0.59668 0.17428 0.01097 0.0
H1822 H 0.54392 0.14884 0.02741 0.0
C1823 C 0.4979 0.20384 0.01506 0.0
C1824 C 0.47038 0.18125 0.01838 0.0
C1825 C 0.52399 0.19997 0.01458 0.0
C1826 C 0.55805 0.15568 0.02272 0.0
H1827 H 0.70766 0.18944 0.01421 0.0
H1828 H 0.66409 0.19947 0.0131 0.0
H1829 H 0.58791 0.13996 0.02686 0.0
H1830 H 0.44916 0.13648 0.02369 0.0
H1831 H 0.49378 0.12929 0.02261 0.0
H1832 H 0.56632 0.18939 0.00676 0.0
C1833 C 0.65933 0.17638 0.01459 0.0
C1834 C 0.58337 0.15072 0.02243 0.0
C1835 C 0.68426 0.17067 0.01526 0.0
C1836 C 0.46961 0.15443 0.02107 0.0
C1837 C 0.49554 0.15045 0.02053 0.0
C1838 C 0.57101 0.17896 0.01122 0.0
C1839 C 0.6288 0.15298 0.01626 0.0
C1840 C 0.60276 0.15965 0.01653 0.0
C1841 C 0.52322 0.17332 0.01736 0.0
C1842 C 0.55117 0.16941 0.01708 0.0
H1843 H 0.64294 0.09457 0.02044 0.0
H1844 H 0.59998 0.10466 0.01931 0.0
H1845 H 0.61126 0.18132 0.00635 0.0
H1846 H 0.49953 0.22462 0.01281 0.0
H1847 H 0.54494 0.21818 0.01214 0.0
C1848 C 0.84323 0.51363 0.0056 0.0
C1849 C 0.82555 0.52114 0.0101 0.0
C1850 C 0.83807 0.48314 0.00535 0.0
C1851 C 0.78263 0.40096 0.00998 0.0
H1852 H 0.85752 0.39595 0.01282 0.0
C1853 C 0.77981 0.28814 0.01934 0.0
C1854 C 0.80384 0.28289 0.01714 0.0
C1855 C 0.78031 0.31581 0.01753 0.0
C1856 C 0.83634 0.39671 0.01188 0.0
H1857 H 0.78722 0.50227 0.01749 0.0
H1858 H 0.77815 0.44915 0.01701 0.0
H1859 H 0.86174 0.44644 0.011 0.0
H1860 H 0.84591 0.30116 0.01094 0.0
H1861 H 0.84633 0.34877 0.00758 0.0
H1862 H 0.75718 0.35116 0.01088 0.0
C1863 C 0.79607 0.46676 0.01371 0.0
C1864 C 0.83882 0.42577 0.01084 0.0
C1865 C 0.80144 0.49725 0.01402 0.0
C1866 C 0.82748 0.305 0.01283 0.0
C1867 C 0.82774 0.33233 0.01093 0.0
C1868 C 0.78014 0.37176 0.01094 0.0
C1869 C 0.81488 0.45956 0.00952 0.0
C1870 C 0.81201 0.42828 0.00996 0.0
C1871 C 0.80463 0.33855 0.0134 0.0
C1872 C 0.80698 0.36928 0.01198 0.0
H1873 H 0.86196 0.53152 0.00252 0.0
H1874 H 0.85272 0.47816 0.00202 0.0
H1875 H 0.76157 0.40221 0.00927 0.0
H1876 H 0.76141 0.27145 0.02269 0.0
H1877 H 0.76226 0.31984 0.01959 0.0
C1878 C 0.70604 0.51885 0.0131 0.0
C1879 C 0.71092 0.53289 0.01972 0.0
C1880 C 0.67718 0.49321 0.01134 0.0
C1881 C 0.60766 0.42926 0.01971 0.0
H1882 H 0.57232 0.415 0.0011 0.0
C1883 C 0.50281 0.3114 0.01254 0.0
C1884 C 0.47837 0.31198 0.00896 0.0
C1885 C 0.532 0.33826 0.01307 0.0
C1886 C 0.58182 0.41873 0.00633 0.0
H1887 H 0.6886 0.53159 0.02955 0.0
H1888 H 0.6381 0.48752 0.02642 0.0
H1889 H 0.62027 0.46373 0.00373 0.0
H1890 H 0.46583 0.34071 0.00277 0.0
H1891 H 0.5168 0.38791 0.00377 0.0
H1892 H 0.56903 0.38482 0.0224 0.0
C1893 C 0.65687 0.49593 0.02264 0.0
C1894 C 0.60942 0.44652 0.00782 0.0
C1895 C 0.68577 0.52149 0.02441 0.0
C1896 C 0.48426 0.33952 0.00555 0.0
C1897 C 0.51348 0.36657 0.00612 0.0
C1898 C 0.58014 0.40161 0.01823 0.0
C1899 C 0.65242 0.48107 0.01614 0.0
C1900 C 0.62265 0.45208 0.01454 0.0
C1901 C 0.53737 0.36645 0.01008 0.0
C1902 C 0.56695 0.3959 0.01152 0.0
H1903 H 0.72465 0.52735 0.0093 0.0
H1904 H 0.67463 0.48227 0.00631 0.0
H1905 H 0.6174 0.43252 0.02491 0.0
H1906 H 0.49914 0.29042 0.01515 0.0
H1907 H 0.55014 0.33714 0.01599 0.0
C1908 C 0.52861 0.67174 0.84158 0.0
C1909 C 0.50546 0.64422 0.84474 0.0
C1910 C 0.52558 0.69836 0.84137 0.0
C1911 C 0.46932 0.72596 0.84251 0.0
H1912 H 0.53767 0.80095 0.85055 0.0
C1913 C 0.45417 0.82898 0.85119 0.0
C1914 C 0.47963 0.85944 0.85068 0.0
C1915 C 0.45777 0.8033 0.84974 0.0
C1916 C 0.51857 0.78049 0.84816 0.0
H1917 H 0.46036 0.62258 0.84987 0.0
H1918 H 0.4548 0.66879 0.84935 0.0
H1919 H 0.54294 0.755 0.84892 0.0
H1920 H 0.5286 0.887 0.84804 0.0
H1921 H 0.53484 0.84228 0.84529 0.0
H1922 H 0.44495 0.75129 0.84167 0.0
C1923 C 0.47536 0.66984 0.84708 0.0
C1924 C 0.52161 0.75412 0.84724 0.0
C1925 C 0.47862 0.64343 0.84741 0.0
C1926 C 0.5087 0.86374 0.84857 0.0
C1927 C 0.51223 0.83806 0.84702 0.0
C1928 C 0.46641 0.75246 0.84333 0.0
C1929 C 0.49908 0.69773 0.84419 0.0
C1930 C 0.49684 0.72646 0.84452 0.0
C1931 C 0.48685 0.80745 0.84763 0.0
C1932 C 0.49079 0.77994 0.84628 0.0
H1933 H 0.54962 0.67311 0.83951 0.0
H1934 H 0.54412 0.71957 0.83907 0.0
H1935 H 0.44998 0.70498 0.84034 0.0
H1936 H 0.43161 0.82497 0.8529 0.0
H1937 H 0.43783 0.78017 0.85043 0.0
C1938 C 0.35062 0.82981 0.84632 0.0
C1939 C 0.34976 0.85539 0.84339 0.0
C1940 C 0.3241 0.80016 0.84627 0.0
C1941 C 0.24009 0.76309 0.84688 0.0
H1942 H 0.24124 0.68745 0.84222 0.0
C1943 C 0.13018 0.64146 0.84995 0.0
C1944 C 0.13467 0.6171 0.85228 0.0
C1945 C 0.15569 0.6702 0.84803 0.0
C1946 C 0.24056 0.70829 0.84363 0.0
H1947 H 0.32071 0.86982 0.83793 0.0
H1948 H 0.27406 0.81793 0.83796 0.0
H1949 H 0.28759 0.73811 0.84019 0.0
H1950 H 0.16928 0.60382 0.85456 0.0
H1951 H 0.21383 0.65409 0.85147 0.0
H1952 H 0.19378 0.73361 0.85065 0.0
C1953 C 0.2954 0.82093 0.84025 0.0
C1954 C 0.26707 0.73729 0.84241 0.0
C1955 C 0.32212 0.85053 0.84019 0.0
C1956 C 0.16514 0.62207 0.85269 0.0
C1957 C 0.19065 0.65089 0.85087 0.0
C1958 C 0.21373 0.7341 0.84821 0.0
C1959 C 0.29605 0.79559 0.84338 0.0
C1960 C 0.26717 0.76494 0.84408 0.0
C1961 C 0.18632 0.67536 0.84849 0.0
C1962 C 0.21371 0.70627 0.84668 0.0
H1963 H 0.37157 0.83281 0.84882 0.0
H1964 H 0.32517 0.78107 0.84876 0.0
H1965 H 0.23972 0.78408 0.8483 0.0
H1966 H 0.10689 0.63808 0.8495 0.0
H1967 H 0.15132 0.68823 0.84611 0.0
C1968 C 0.35243 0.48683 0.84858 0.0
C1969 C 0.37695 0.51527 0.85105 0.0
C1970 C 0.32368 0.48398 0.84684 0.0
C1971 C 0.28496 0.53117 0.84351 0.0
H1972 H 0.20998 0.45364 0.84811 0.0
C1973 C 0.16342 0.51826 0.84763 0.0
C1974 C 0.13759 0.49213 0.84466 0.0
C1975 C 0.19314 0.5217 0.84723 0.0
C1976 C 0.23073 0.47527 0.84671 0.0
H1977 H 0.39068 0.56295 0.8537 0.0
H1978 H 0.34034 0.55786 0.85094 0.0
H1979 H 0.26079 0.45818 0.84987 0.0
H1980 H 0.12279 0.44954 0.83878 0.0
H1981 H 0.17483 0.4553 0.83821 0.0
H1982 H 0.25453 0.54859 0.8407 0.0
C1983 C 0.3434 0.53792 0.8501 0.0
C1984 C 0.25992 0.47791 0.84769 0.0
C1985 C 0.37226 0.54086 0.85172 0.0
C1986 C 0.14226 0.46999 0.84109 0.0
C1987 C 0.17196 0.47317 0.8408 0.0
C1988 C 0.25575 0.52866 0.84263 0.0
C1989 C 0.31864 0.50941 0.84765 0.0
C1990 C 0.28749 0.50601 0.84618 0.0
C1991 C 0.19757 0.49883 0.84395 0.0
C1992 C 0.22839 0.50078 0.84428 0.0
H1993 H 0.35563 0.46688 0.84793 0.0
H1994 H 0.30548 0.46184 0.84485 0.0
H1995 H 0.30556 0.55295 0.84213 0.0
H1996 H 0.16058 0.53573 0.85041 0.0
H1997 H 0.21245 0.54158 0.84974 0.0
C1998 C 0.30734 0.80981 0.9763 0.0
C1999 C 0.30653 0.83492 0.97951 0.0
C2000 C 0.33407 0.80714 0.97669 0.0
C2001 C 0.41813 0.8562 0.97799 0.0
H2002 H 0.41694 0.77763 0.97999 0.0
C2003 C 0.51463 0.83465 0.96727 0.0
C2004 C 0.52438 0.81767 0.97143 0.0
C2005 C 0.48949 0.83823 0.96931 0.0
C2006 C 0.41772 0.79981 0.9795 0.0
H2007 H 0.33256 0.87618 0.98591 0.0
H2008 H 0.37951 0.87163 0.98655 0.0
H2009 H 0.36931 0.77975 0.98209 0.0
H2010 H 0.51575 0.79233 0.9812 0.0
H2011 H 0.47152 0.79798 0.98463 0.0
H2012 H 0.4663 0.87608 0.97521 0.0
C2013 C 0.3594 0.85407 0.98372 0.0
C2014 C 0.39043 0.80097 0.98065 0.0
C2015 C 0.33247 0.85652 0.9834 0.0
C2016 C 0.50866 0.80497 0.97777 0.0
C2017 C 0.48332 0.80829 0.97976 0.0
C2018 C 0.44532 0.85497 0.97676 0.0
C2019 C 0.36067 0.82971 0.98025 0.0
C2020 C 0.39026 0.82908 0.97981 0.0
C2021 C 0.47332 0.82473 0.97553 0.0
C2022 C 0.44527 0.82668 0.9774 0.0
H2023 H 0.28764 0.79272 0.97329 0.0
H2024 H 0.33443 0.78825 0.97392 0.0
H2025 H 0.41861 0.87813 0.97723 0.0
H2026 H 0.52576 0.8445 0.96234 0.0
H2027 H 0.48205 0.85071 0.9659 0.0
C2028 C 0.18919 0.70767 0.97651 0.0
C2029 C 0.17794 0.71224 0.97013 0.0
C2030 C 0.18544 0.67851 0.97821 0.0
C2031 C 0.17445 0.60707 0.96975 0.0
H2032 H 0.15486 0.57194 0.98839 0.0
C2033 C 0.1837 0.49968 0.97644 0.0
C2034 C 0.15828 0.47545 0.97998 0.0
C2035 C 0.18699 0.52929 0.97602 0.0
C2036 C 0.16023 0.58142 0.98315 0.0
H2037 H 0.1532 0.68932 0.96064 0.0
H2038 H 0.14617 0.6385 0.96366 0.0
H2039 H 0.1567 0.62146 0.98601 0.0
H2040 H 0.11735 0.46378 0.98622 0.0
H2041 H 0.12297 0.5157 0.98544 0.0
H2042 H 0.17752 0.56707 0.96683 0.0
C2043 C 0.15829 0.65759 0.9673 0.0
C2044 C 0.16152 0.60987 0.98181 0.0
C2045 C 0.16202 0.6867 0.9656 0.0
C2046 C 0.1372 0.48199 0.98346 0.0
C2047 C 0.14044 0.51173 0.98302 0.0
C2048 C 0.17325 0.57882 0.97109 0.0
C2049 C 0.17039 0.65327 0.97357 0.0
C2050 C 0.16859 0.62295 0.97508 0.0
C2051 C 0.16486 0.53541 0.97911 0.0
C2052 C 0.16625 0.56568 0.97781 0.0
H2053 H 0.20113 0.72667 0.98017 0.0
H2054 H 0.19515 0.67599 0.98306 0.0
H2055 H 0.18036 0.61668 0.96453 0.0
H2056 H 0.20067 0.49558 0.9738 0.0
H2057 H 0.20652 0.54724 0.97313 0.0
C2058 C 0.49517 0.69349 0.97769 0.0
C2059 C 0.52069 0.69115 0.9801 0.0
C2060 C 0.4652 0.66752 0.97777 0.0
C2061 C 0.41774 0.58511 0.98404 0.0
H2062 H 0.36804 0.57817 0.96778 0.0
C2063 C 0.3085 0.47058 0.97459 0.0
C2064 C 0.28222 0.47326 0.97301 0.0
C2065 C 0.33709 0.49715 0.97614 0.0
C2066 C 0.38156 0.57991 0.97237 0.0
H2067 H 0.5349 0.66024 0.98469 0.0
H2068 H 0.48274 0.61445 0.98458 0.0
H2069 H 0.41857 0.62471 0.96939 0.0
H2070 H 0.26523 0.50572 0.97178 0.0
H2071 H 0.31523 0.55212 0.97437 0.0
H2072 H 0.38078 0.53934 0.9868 0.0
C2073 C 0.48558 0.63648 0.98281 0.0
C2074 C 0.41048 0.60671 0.97334 0.0
C2075 C 0.51554 0.66271 0.98287 0.0
C2076 C 0.28502 0.50294 0.97304 0.0
C2077 C 0.31363 0.52948 0.97448 0.0
C2078 C 0.38892 0.558 0.983 0.0
C2079 C 0.46013 0.63836 0.98008 0.0
C2080 C 0.42895 0.60983 0.97921 0.0
C2081 C 0.33996 0.52686 0.97601 0.0
C2082 C 0.37055 0.55527 0.97717 0.0
H2083 H 0.49849 0.71525 0.97558 0.0
H2084 H 0.44612 0.67021 0.97584 0.0
H2085 H 0.43108 0.58675 0.98866 0.0
H2086 H 0.30686 0.44793 0.97465 0.0
H2087 H 0.35713 0.49458 0.97727 0.0
C2088 C 0.19572 0.67995 0.46522 0.0
C2089 C 0.17713 0.68802 0.46924 0.0
C2090 C 0.20209 0.65701 0.46753 0.0
C2091 C 0.16537 0.58422 0.47605 0.0
H2092 H 0.24736 0.59226 0.47668 0.0
C2093 C 0.17981 0.4757 0.47834 0.0
C2094 C 0.20412 0.47628 0.47445 0.0
C2095 C 0.17802 0.50285 0.47917 0.0
C2096 C 0.22425 0.58949 0.47646 0.0
H2097 H 0.15117 0.67928 0.47887 0.0
H2098 H 0.16131 0.63782 0.4828 0.0
H2099 H 0.24265 0.63886 0.47559 0.0
H2100 H 0.24527 0.50531 0.4683 0.0
H2101 H 0.24153 0.55222 0.46943 0.0
H2102 H 0.14671 0.53492 0.47634 0.0
C2103 C 0.17146 0.64987 0.47795 0.0
C2104 C 0.22165 0.61624 0.47592 0.0
C2105 C 0.16579 0.67353 0.47572 0.0
C2106 C 0.22653 0.50439 0.4714 0.0
C2107 C 0.22447 0.53134 0.47211 0.0
C2108 C 0.16792 0.55739 0.47643 0.0
C2109 C 0.18931 0.6412 0.47381 0.0
C2110 C 0.1922 0.61374 0.47558 0.0
C2111 C 0.20021 0.53102 0.47601 0.0
C2112 C 0.19742 0.55961 0.47647 0.0
H2113 H 0.20468 0.69088 0.46021 0.0
H2114 H 0.21568 0.65049 0.46423 0.0
H2115 H 0.1424 0.58178 0.4757 0.0
H2116 H 0.16249 0.45435 0.48082 0.0
H2117 H 0.1593 0.50172 0.4823 0.0
C2118 C 0.51692 0.72395 0.47932 0.0
C2119 C 0.53414 0.72897 0.47313 0.0
C2120 C 0.49368 0.69391 0.48122 0.0
C2121 C 0.46563 0.61034 0.47813 0.0
H2122 H 0.38489 0.59873 0.48344 0.0
C2123 C 0.36092 0.48877 0.48479 0.0
C2124 C 0.33333 0.48153 0.48119 0.0
C2125 C 0.38602 0.51943 0.48491 0.0
C2126 C 0.40735 0.60164 0.48199 0.0
H2127 H 0.54023 0.70584 0.46414 0.0
H2128 H 0.50012 0.65364 0.46751 0.0
H2129 H 0.42847 0.65134 0.48142 0.0
H2130 H 0.31011 0.50111 0.47517 0.0
H2131 H 0.35357 0.55428 0.47543 0.0
H2132 H 0.44424 0.56056 0.4785 0.0
C2133 C 0.50483 0.67299 0.47091 0.0
C2134 C 0.43235 0.63176 0.48089 0.0
C2135 C 0.52789 0.70301 0.46898 0.0
C2136 C 0.33097 0.50576 0.47797 0.0
C2137 C 0.35586 0.53636 0.47815 0.0
C2138 C 0.44068 0.58023 0.47928 0.0
C2139 C 0.48729 0.66813 0.47702 0.0
C2140 C 0.4616 0.6364 0.47881 0.0
C2141 C 0.38385 0.54347 0.48152 0.0
C2142 C 0.41112 0.57553 0.48109 0.0
H2143 H 0.52137 0.74315 0.48273 0.0
H2144 H 0.48077 0.69084 0.486 0.0
H2145 H 0.48799 0.61323 0.4766 0.0
H2146 H 0.36351 0.47063 0.48732 0.0
H2147 H 0.40726 0.52429 0.48758 0.0
C2148 C 0.28385 0.79776 0.47034 0.0
C2149 C 0.27737 0.82189 0.47163 0.0
C2150 C 0.31342 0.80198 0.47166 0.0
C2151 C 0.38384 0.84613 0.48208 0.0
H2152 H 0.42255 0.82206 0.46764 0.0
C2153 C 0.51122 0.87 0.48392 0.0
C2154 C 0.51803 0.84863 0.48069 0.0
C2155 C 0.48146 0.86657 0.48332 0.0
C2156 C 0.41193 0.82839 0.47179 0.0
H2157 H 0.29661 0.86924 0.47539 0.0
H2158 H 0.34867 0.87662 0.4778 0.0
H2159 H 0.37191 0.81725 0.46552 0.0
H2160 H 0.49861 0.8058 0.4747 0.0
H2161 H 0.44653 0.79901 0.4739 0.0
H2162 H 0.42355 0.85661 0.48842 0.0
C2163 C 0.33071 0.85448 0.47574 0.0
C2164 C 0.38297 0.82584 0.47054 0.0
C2165 C 0.30111 0.85038 0.47431 0.0
C2166 C 0.49411 0.82283 0.47719 0.0
C2167 C 0.46432 0.81914 0.47667 0.0
C2168 C 0.41275 0.84835 0.48337 0.0
C2169 C 0.33715 0.83034 0.47438 0.0
C2170 C 0.36855 0.8345 0.47568 0.0
C2171 C 0.45783 0.84148 0.47953 0.0
C2172 C 0.42708 0.83929 0.47825 0.0
H2173 H 0.2661 0.77568 0.46821 0.0
H2174 H 0.31767 0.78292 0.47061 0.0
H2175 H 0.37308 0.85274 0.48614 0.0
H2176 H 0.52928 0.89026 0.48661 0.0
H2177 H 0.47746 0.88435 0.48555 0.0
C2178 C 0.30923 0.46131 0.3412 0.0
C2179 C 0.33742 0.48367 0.34428 0.0
C2180 C 0.2834 0.46567 0.34117 0.0
C2181 C 0.25873 0.52383 0.34251 0.0
H2182 H 0.18516 0.45922 0.35183 0.0
C2183 C 0.16187 0.54634 0.35223 0.0
C2184 C 0.1309 0.52169 0.35231 0.0
C2185 C 0.18621 0.54095 0.35054 0.0
C2186 C 0.20516 0.47726 0.34908 0.0
H2187 H 0.36123 0.52875 0.3494 0.0
H2188 H 0.31639 0.53676 0.34914 0.0
H2189 H 0.22927 0.45143 0.34963 0.0
H2190 H 0.1009 0.47222 0.35054 0.0
H2191 H 0.14322 0.46276 0.34734 0.0
H2192 H 0.23477 0.54959 0.34183 0.0
C2193 C 0.3142 0.51577 0.34683 0.0
C2194 C 0.23048 0.47277 0.34785 0.0
C2195 C 0.33979 0.51113 0.347 0.0
C2196 C 0.12465 0.49153 0.3506 0.0
C2197 C 0.14896 0.48617 0.34879 0.0
C2198 C 0.23322 0.52812 0.34363 0.0
C2199 C 0.28558 0.49276 0.34407 0.0
C2200 C 0.25768 0.49625 0.34467 0.0
C2201 C 0.18013 0.51082 0.34876 0.0
C2202 C 0.20631 0.50517 0.34706 0.0
H2203 H 0.30668 0.43982 0.33911 0.0
H2204 H 0.26156 0.44766 0.33899 0.0
H2205 H 0.2794 0.54217 0.34 0.0
H2206 H 0.16733 0.56974 0.35362 0.0
H2207 H 0.20985 0.56042 0.35077 0.0
C2208 C 0.47653 0.82713 0.34868 0.0
C2209 C 0.50041 0.8492 0.3444 0.0
C2210 C 0.47085 0.79658 0.34906 0.0
C2211 C 0.48704 0.73855 0.34066 0.0
H2212 H 0.47419 0.70528 0.35945 0.0
C2213 C 0.45496 0.61106 0.34684 0.0
C2214 C 0.46854 0.60615 0.35281 0.0
C2215 C 0.45904 0.64056 0.34539 0.0
C2216 C 0.47802 0.71428 0.35417 0.0
H2217 H 0.53602 0.85617 0.33688 0.0
H2218 H 0.52638 0.80275 0.3376 0.0
H2219 H 0.47998 0.75638 0.35751 0.0
H2220 H 0.49755 0.62885 0.36184 0.0
H2221 H 0.50522 0.68023 0.35923 0.0
H2222 H 0.48583 0.69655 0.33738 0.0
C2223 C 0.51186 0.80903 0.34063 0.0
C2224 C 0.48087 0.74344 0.35304 0.0
C2225 C 0.51743 0.83965 0.34022 0.0
C2226 C 0.48689 0.63168 0.35718 0.0
C2227 C 0.49099 0.66114 0.35573 0.0
C2228 C 0.48417 0.70928 0.3418 0.0
C2229 C 0.48904 0.78738 0.34519 0.0
C2230 C 0.48539 0.75596 0.34628 0.0
C2231 C 0.47679 0.66587 0.34986 0.0
C2232 C 0.47975 0.69687 0.34857 0.0
H2233 H 0.46262 0.83363 0.35187 0.0
H2234 H 0.45256 0.78029 0.35249 0.0
H2235 H 0.49033 0.74745 0.33538 0.0
H2236 H 0.44107 0.5921 0.34329 0.0
H2237 H 0.44764 0.64336 0.34085 0.0
C2238 C 0.3813 0.85001 0.34665 0.0
C2239 C 0.38709 0.86755 0.35281 0.0
C2240 C 0.35159 0.82489 0.34523 0.0
C2241 C 0.27919 0.76893 0.35427 0.0
H2242 H 0.24485 0.74859 0.33556 0.0
C2243 C 0.15426 0.68011 0.34038 0.0
C2244 C 0.14595 0.65347 0.34444 0.0
C2245 C 0.18431 0.70607 0.34083 0.0
C2246 C 0.25404 0.75406 0.34082 0.0
H2247 H 0.36565 0.87281 0.36219 0.0
H2248 H 0.31378 0.82968 0.35963 0.0
H2249 H 0.29504 0.79581 0.33754 0.0
H2250 H 0.16317 0.63222 0.35178 0.0
H2251 H 0.21559 0.67703 0.35244 0.0
H2252 H 0.23803 0.7278 0.3576 0.0
C2253 C 0.33241 0.83495 0.35596 0.0
C2254 C 0.28294 0.78096 0.34195 0.0
C2255 C 0.36214 0.85999 0.35739 0.0
C2256 C 0.16872 0.6526 0.34866 0.0
C2257 C 0.19872 0.67838 0.34907 0.0
C2258 C 0.25037 0.74218 0.35315 0.0
C2259 C 0.32689 0.81677 0.34992 0.0
C2260 C 0.29586 0.78868 0.34869 0.0
C2261 C 0.20664 0.70576 0.34532 0.0
C2262 C 0.23748 0.73429 0.34641 0.0
H2263 H 0.39974 0.85545 0.34292 0.0
H2264 H 0.34823 0.8113 0.34055 0.0
H2265 H 0.2886 0.77388 0.35951 0.0
H2266 H 0.13717 0.68149 0.3371 0.0
H2267 H 0.18959 0.72683 0.3379 0.0
C2268 C 0.37496 0.39751 0.1454 0.0
C2269 C 0.37497 0.37792 0.14009 0.0
C2270 C 0.34685 0.39258 0.14826 0.0
C2271 C 0.26698 0.32917 0.15115 0.0
H2272 H 0.25268 0.39554 0.15735 0.0
C2273 C 0.15877 0.30154 0.16746 0.0
C2274 C 0.16514 0.32016 0.17345 0.0
C2275 C 0.18093 0.31052 0.16213 0.0
C2276 C 0.25634 0.37673 0.15566 0.0
H2277 H 0.34537 0.33922 0.13329 0.0
H2278 H 0.29645 0.33052 0.13831 0.0
H2279 H 0.29879 0.40814 0.15036 0.0
H2280 H 0.19888 0.3637 0.17833 0.0
H2281 H 0.23749 0.379 0.16915 0.0
H2282 H 0.22543 0.29787 0.15666 0.0
C2283 C 0.31817 0.34931 0.14035 0.0
C2284 C 0.28274 0.38397 0.15166 0.0
C2285 C 0.34622 0.35426 0.13749 0.0
C2286 C 0.19328 0.34873 0.17381 0.0
C2287 C 0.21539 0.35765 0.1685 0.0
C2288 C 0.24071 0.32195 0.15517 0.0
C2289 C 0.31818 0.36797 0.14587 0.0
C2290 C 0.28864 0.36031 0.14948 0.0
C2291 C 0.20987 0.33828 0.16268 0.0
C2292 C 0.23539 0.34569 0.1576 0.0
H2293 H 0.39665 0.41577 0.14756 0.0
H2294 H 0.34765 0.40717 0.15256 0.0
H2295 H 0.27106 0.31043 0.14963 0.0
H2296 H 0.13722 0.27946 0.16701 0.0
H2297 H 0.17573 0.2953 0.15766 0.0
C2298 C 0.69886 0.85197 0.16839 0.0
C2299 C 0.67612 0.82914 0.17275 0.0
C2300 C 0.69019 0.86552 0.1631 0.0
C2301 C 0.62616 0.88099 0.15944 0.0
H2302 H 0.67576 0.92176 0.14304 0.0
C2303 C 0.60396 0.96481 0.14278 0.0
C2304 C 0.63074 0.99418 0.14172 0.0
C2305 C 0.60658 0.93959 0.14521 0.0
C2306 C 0.66163 0.91037 0.14759 0.0
H2307 H 0.62648 0.80026 0.17457 0.0
H2308 H 0.6112 0.82288 0.16514 0.0
H2309 H 0.68492 0.88446 0.14947 0.0
H2310 H 0.6814 0.01939 0.14225 0.0
H2311 H 0.68581 0.97543 0.14637 0.0
H2312 H 0.60329 0.9073 0.15762 0.0
C2313 C 0.63579 0.83128 0.16597 0.0
C2314 C 0.66691 0.88908 0.15129 0.0
C2315 C 0.64449 0.81812 0.17133 0.0
C2316 C 0.66021 0.99723 0.14291 0.0
C2317 C 0.66281 0.97195 0.14528 0.0
C2318 C 0.62068 0.90197 0.1557 0.0
C2319 C 0.65858 0.85618 0.162 0.0
C2320 C 0.64983 0.87479 0.15738 0.0
C2321 C 0.63603 0.94303 0.14656 0.0
C2322 C 0.63892 0.91751 0.14986 0.0
H2323 H 0.72346 0.86105 0.1694 0.0
H2324 H 0.70847 0.88477 0.1602 0.0
H2325 H 0.61289 0.871 0.16416 0.0
H2326 H 0.58089 0.96122 0.14179 0.0
H2327 H 0.58555 0.91744 0.1461 0.0
C2328 C 0.18192 0.82616 0.17091 0.0
C2329 C 0.17371 0.84951 0.17101 0.0
C2330 C 0.16861 0.80203 0.16604 0.0
C2331 C 0.11958 0.77283 0.15012 0.0
H2332 H 0.08481 0.6934 0.15972 0.0
C2333 C 0.01461 0.65918 0.13969 0.0
C2334 C 0.01269 0.63047 0.14124 0.0
C2335 C 0.03905 0.68712 0.1423 0.0
C2336 C 0.09483 0.71523 0.15689 0.0
H2337 H 0.14715 0.86741 0.16573 0.0
H2338 H 0.1235 0.82491 0.15726 0.0
H2339 H 0.12033 0.74092 0.16584 0.0
H2340 H 0.03631 0.60924 0.14652 0.0
H2341 H 0.07925 0.6578 0.15081 0.0
H2342 H 0.09339 0.7469 0.14119 0.0
C2343 C 0.14041 0.82538 0.16092 0.0
C2344 C 0.11525 0.74257 0.16041 0.0
C2345 C 0.1539 0.8497 0.16578 0.0
C2346 C 0.03677 0.63068 0.14518 0.0
C2347 C 0.06135 0.65863 0.14773 0.0
C2348 C 0.09921 0.74533 0.14656 0.0
C2349 C 0.14665 0.80062 0.1612 0.0
C2350 C 0.12756 0.77171 0.15711 0.0
C2351 C 0.06239 0.68711 0.14647 0.0
C2352 C 0.08625 0.71623 0.14995 0.0
H2353 H 0.19749 0.82566 0.17482 0.0
H2354 H 0.1744 0.78363 0.16628 0.0
H2355 H 0.12887 0.79495 0.14743 0.0
H2356 H 0.99698 0.6602 0.13656 0.0
H2357 H 0.03895 0.70857 0.14126 0.0
C2358 C 0.38699 0.35418 0.34844 0.0
C2359 C 0.36058 0.35719 0.34969 0.0
C2360 C 0.38374 0.32634 0.34582 0.0
C2361 C 0.32767 0.24243 0.34332 0.0
H2362 H 0.37631 0.25156 0.32674 0.0
C2363 C 0.2919 0.14505 0.32285 0.0
C2364 C 0.31509 0.14501 0.31865 0.0
C2365 C 0.29993 0.16792 0.32798 0.0
C2366 C 0.36303 0.24836 0.33146 0.0
H2367 H 0.30991 0.33254 0.34926 0.0
H2368 H 0.30441 0.28412 0.34481 0.0
H2369 H 0.386 0.29757 0.33327 0.0
H2370 H 0.36486 0.16673 0.3169 0.0
H2371 H 0.37905 0.20569 0.32606 0.0
H2372 H 0.30439 0.19318 0.34147 0.0
C2373 C 0.32761 0.30331 0.34591 0.0
C2374 C 0.36856 0.27487 0.33519 0.0
C2375 C 0.33083 0.3312 0.34846 0.0
C2376 C 0.34652 0.1665 0.32003 0.0
C2377 C 0.35459 0.18899 0.32524 0.0
C2378 C 0.32233 0.2158 0.33963 0.0
C2379 C 0.35402 0.30074 0.34446 0.0
C2380 C 0.3505 0.27225 0.34106 0.0
C2381 C 0.33134 0.19089 0.32906 0.0
C2382 C 0.33949 0.21849 0.33356 0.0
H2383 H 0.41025 0.37331 0.34944 0.0
H2384 H 0.40451 0.32488 0.34482 0.0
H2385 H 0.31364 0.23974 0.34789 0.0
H2386 H 0.26744 0.12887 0.32185 0.0
H2387 H 0.28132 0.16872 0.33077 0.0
C2388 C 0.63463 0.02855 0.34391 0.0
C2389 C 0.63456 0.00454 0.34786 0.0
C2390 C 0.66252 0.05327 0.34139 0.0
C2391 C 0.74919 0.09208 0.34275 0.0
H2392 H 0.74534 0.11482 0.32358 0.0
C2393 C 0.85499 0.15251 0.32395 0.0
C2394 C 0.85433 0.1727 0.31889 0.0
C2395 C 0.83034 0.13745 0.32869 0.0
C2396 C 0.74681 0.10924 0.32898 0.0
H2397 H 0.66447 0.98897 0.35251 0.0
H2398 H 0.71276 0.03123 0.34785 0.0
H2399 H 0.69778 0.07777 0.32948 0.0
H2400 H 0.8292 0.19543 0.31525 0.0
H2401 H 0.78662 0.16966 0.32358 0.0
H2402 H 0.7987 0.1229 0.34208 0.0
C2403 C 0.69123 0.03117 0.3468 0.0
C2404 C 0.71946 0.08795 0.33238 0.0
C2405 C 0.66334 0.00656 0.34938 0.0
C2406 C 0.8301 0.17965 0.31904 0.0
C2407 C 0.80564 0.16478 0.32378 0.0
C2408 C 0.77671 0.11334 0.33932 0.0
C2409 C 0.6911 0.05454 0.34266 0.0
C2410 C 0.72026 0.07888 0.33929 0.0
C2411 C 0.80478 0.14248 0.32845 0.0
C2412 C 0.77579 0.12198 0.33238 0.0
H2413 H 0.61313 0.02798 0.34258 0.0
H2414 H 0.66159 0.07117 0.33832 0.0
H2415 H 0.75061 0.08587 0.3481 0.0
H2416 H 0.87335 0.14666 0.32395 0.0
H2417 H 0.8303 0.12032 0.33221 0.0
C2418 C 0.83009 0.65717 0.31755 0.0
C2419 C 0.82919 0.68493 0.31834 0.0
C2420 C 0.84468 0.64832 0.32254 0.0
C2421 C 0.90763 0.6844 0.33534 0.0
H2422 H 0.88332 0.59857 0.33957 0.0
C2423 C 0.97159 0.61127 0.34319 0.0
C2424 C 0.9923 0.63095 0.34834 0.0
C2425 C 0.94747 0.61575 0.34078 0.0
C2426 C 0.89041 0.62265 0.33843 0.0
H2427 H 0.84102 0.72412 0.32522 0.0
H2428 H 0.86628 0.70844 0.33399 0.0
H2429 H 0.84725 0.61003 0.33329 0.0
H2430 H 0.00272 0.66953 0.35529 0.0
H2431 H 0.96072 0.67739 0.35108 0.0
H2432 H 0.95107 0.69702 0.34027 0.0
C2433 C 0.85614 0.69381 0.32944 0.0
C2434 C 0.86976 0.62921 0.33484 0.0
C2435 C 0.84151 0.70269 0.32444 0.0
C2436 C 0.98761 0.65442 0.35121 0.0
C2437 C 0.96349 0.65887 0.34881 0.0
C2438 C 0.92821 0.67785 0.33893 0.0
C2439 C 0.85868 0.667 0.32845 0.0
C2440 C 0.87843 0.66013 0.33312 0.0
C2441 C 0.94351 0.63997 0.34347 0.0
C2442 C 0.92012 0.64686 0.34038 0.0
H2443 H 0.82069 0.64288 0.31292 0.0
H2444 H 0.84644 0.6277 0.32157 0.0
H2445 H 0.91529 0.70843 0.334 0.0
H2446 H 0.97472 0.59317 0.34082 0.0
H2447 H 0.93273 0.60103 0.3366 0.0
C2448 C 0.83791 0.69707 0.82256 0.0
C2449 C 0.83751 0.67608 0.81758 0.0
C2450 C 0.81438 0.68698 0.8276 0.0
C2451 C 0.73258 0.62428 0.82999 0.0
H2452 H 0.74227 0.66309 0.84808 0.0
C2453 C 0.62756 0.59103 0.84807 0.0
C2454 C 0.62498 0.61656 0.85047 0.0
C2455 C 0.6552 0.59565 0.84501 0.0
C2456 C 0.73928 0.65203 0.84305 0.0
H2457 H 0.81399 0.62771 0.81431 0.0
H2458 H 0.77382 0.60977 0.82327 0.0
H2459 H 0.7885 0.67534 0.84117 0.0
H2460 H 0.65038 0.66703 0.85165 0.0
H2461 H 0.69839 0.67478 0.84645 0.0
H2462 H 0.68341 0.6012 0.83185 0.0
C2463 C 0.79143 0.63426 0.82314 0.0
C2464 C 0.76572 0.65911 0.83907 0.0
C2465 C 0.8146 0.64445 0.81804 0.0
C2466 C 0.65128 0.64667 0.84996 0.0
C2467 C 0.67897 0.6512 0.84697 0.0
C2468 C 0.70625 0.61697 0.83399 0.0
C2469 C 0.79028 0.65559 0.82782 0.0
C2470 C 0.76267 0.64575 0.83243 0.0
C2471 C 0.68104 0.62582 0.84435 0.0
C2472 C 0.70928 0.63118 0.8405 0.0
H2473 H 0.85522 0.72165 0.82229 0.0
H2474 H 0.8142 0.70418 0.83106 0.0
H2475 H 0.72912 0.614 0.82485 0.0
H2476 H 0.60822 0.56744 0.84849 0.0
H2477 H 0.65628 0.5756 0.84311 0.0
C2478 C 0.34596 0.16244 0.8188 0.0
C2479 C 0.31698 0.16116 0.81909 0.0
C2480 C 0.3549 0.14912 0.82408 0.0
C2481 C 0.3187 0.0858 0.83683 0.0
H2482 H 0.40481 0.11354 0.84163 0.0
C2483 C 0.3521 0.00884 0.85297 0.0
C2484 C 0.3759 0.00484 0.85002 0.0
C2485 C 0.34668 0.0324 0.8506 0.0
C2486 C 0.38066 0.10554 0.84034 0.0
H2487 H 0.27563 0.14694 0.82538 0.0
H2488 H 0.29149 0.124 0.83468 0.0
H2489 H 0.3921 0.14838 0.83522 0.0
H2490 H 0.41331 0.02336 0.84239 0.0
H2491 H 0.40396 0.06451 0.8383 0.0
H2492 H 0.30736 0.04272 0.84179 0.0
C2493 C 0.30702 0.1348 0.83029 0.0
C2494 C 0.37336 0.12546 0.83667 0.0
C2495 C 0.29804 0.14815 0.825 0.0
C2496 C 0.395 0.02587 0.84484 0.0
C2497 C 0.38965 0.04952 0.84249 0.0
C2498 C 0.32599 0.06599 0.84053 0.0
C2499 C 0.33512 0.13425 0.82978 0.0
C2500 C 0.34238 0.11549 0.83469 0.0
C2501 C 0.36504 0.05264 0.84525 0.0
C2502 C 0.35712 0.07532 0.84217 0.0
H2503 H 0.3612 0.17245 0.81434 0.0
H2504 H 0.37653 0.1489 0.82345 0.0
H2505 H 0.29467 0.07711 0.83531 0.0
H2506 H 0.33738 0.99356 0.85707 0.0
H2507 H 0.32782 0.03452 0.85289 0.0
C2508 C 0.83429 0.18428 0.81949 0.0
C2509 C 0.83578 0.15667 0.81957 0.0
C2510 C 0.84714 0.2058 0.82492 0.0
C2511 C 0.9096 0.23157 0.83785 0.0
H2512 H 0.88067 0.2885 0.84311 0.0
C2513 C 0.98532 0.34039 0.85454 0.0
C2514 C 0.98909 0.36833 0.85172 0.0
C2515 C 0.96191 0.31152 0.85207 0.0
C2516 C 0.88899 0.27274 0.8417 0.0
H2517 H 0.8499 0.1289 0.82566 0.0
H2518 H 0.87203 0.16641 0.83523 0.0
H2519 H 0.84657 0.24171 0.83638 0.0
H2520 H 0.97027 0.38758 0.84427 0.0
H2521 H 0.9294 0.3373 0.84001 0.0
H2522 H 0.9523 0.26298 0.843 0.0
C2523 C 0.86142 0.17165 0.83088 0.0
C2524 C 0.8695 0.24596 0.83784 0.0
C2525 C 0.84855 0.15006 0.82543 0.0
C2526 C 0.96794 0.36664 0.84661 0.0
C2527 C 0.94444 0.33776 0.84417 0.0
C2528 C 0.92899 0.25822 0.84174 0.0
C2529 C 0.86171 0.20021 0.83058 0.0
C2530 C 0.87994 0.22554 0.83569 0.0
C2531 C 0.94159 0.3099 0.84677 0.0
C2532 C 0.91924 0.27954 0.84353 0.0
H2533 H 0.82446 0.19001 0.81507 0.0
H2534 H 0.84719 0.22763 0.82446 0.0
H2535 H 0.91863 0.21667 0.8362 0.0
H2536 H 0.00072 0.34077 0.85859 0.0
H2537 H 0.95999 0.29043 0.85425 0.0
C2538 C 0.64825 0.65959 0.64019 0.0
C2539 C 0.6219 0.63052 0.64174 0.0
C2540 C 0.65236 0.68695 0.64329 0.0
C2541 C 0.62765 0.71252 0.65891 0.0
H2542 H 0.66984 0.79347 0.64988 0.0
C2543 C 0.64804 0.82105 0.67366 0.0
C2544 C 0.67907 0.84568 0.67368 0.0
C2545 C 0.63809 0.79704 0.66878 0.0
C2546 C 0.65805 0.771 0.65246 0.0
H2547 H 0.57851 0.60808 0.6476 0.0
H2548 H 0.58511 0.65568 0.65276 0.0
H2549 H 0.6573 0.74654 0.64317 0.0
H2550 H 0.72345 0.8657 0.66828 0.0
H2551 H 0.70605 0.82347 0.65975 0.0
H2552 H 0.62862 0.7368 0.6682 0.0
C2553 C 0.60307 0.65721 0.64928 0.0
C2554 C 0.65094 0.74413 0.64863 0.0
C2555 C 0.5991 0.62982 0.64624 0.0
C2556 C 0.69937 0.84702 0.66839 0.0
C2557 C 0.6894 0.82286 0.6635 0.0
C2558 C 0.63452 0.73923 0.6627 0.0
C2559 C 0.63008 0.68603 0.64798 0.0
C2560 C 0.6359 0.71457 0.65184 0.0
C2561 C 0.65898 0.79705 0.66382 0.0
C2562 C 0.64999 0.7688 0.65954 0.0
H2563 H 0.66607 0.66133 0.63666 0.0
H2564 H 0.67356 0.70866 0.6422 0.0
H2565 H 0.61676 0.69033 0.66161 0.0
H2566 H 0.63172 0.81957 0.67762 0.0
H2567 H 0.61433 0.77778 0.66906 0.0
C2568 C 0.15215 0.85331 0.66712 0.0
C2569 C 0.15283 0.83472 0.67258 0.0
C2570 C 0.17672 0.86681 0.66232 0.0
C2571 C 0.26012 0.89488 0.66217 0.0
H2572 H 0.25573 0.90939 0.64245 0.0
C2573 C 0.37196 0.96895 0.64653 0.0
C2574 C 0.37179 0.9909 0.6419 0.0
C2575 C 0.34415 0.94528 0.64937 0.0
C2576 C 0.25732 0.90569 0.64796 0.0
H2577 H 0.17799 0.81317 0.6769 0.0
H2578 H 0.22048 0.83633 0.6685 0.0
H2579 H 0.2078 0.87539 0.64889 0.0
H2580 H 0.34153 0.00361 0.63632 0.0
H2581 H 0.29349 0.96343 0.64151 0.0
H2582 H 0.30913 0.92595 0.66141 0.0
C2583 C 0.20147 0.84113 0.66802 0.0
C2584 C 0.22989 0.88616 0.65164 0.0
C2585 C 0.17708 0.82779 0.67281 0.0
C2586 C 0.34287 0.98771 0.63998 0.0
C2587 C 0.31509 0.96423 0.64288 0.0
C2588 C 0.28738 0.91451 0.65854 0.0
C2589 C 0.20222 0.8618 0.66291 0.0
C2590 C 0.23105 0.88069 0.65879 0.0
C2591 C 0.31544 0.94309 0.64772 0.0
C2592 C 0.28638 0.92037 0.6514 0.0
H2593 H 0.13374 0.85906 0.66683 0.0
H2594 H 0.17672 0.88271 0.65844 0.0
H2595 H 0.26173 0.8917 0.66772 0.0
H2596 H 0.39355 0.97043 0.64817 0.0
H2597 H 0.34526 0.92901 0.65297 0.0
C2598 C 0.14817 0.30132 0.66835 0.0
C2599 C 0.16988 0.32351 0.67298 0.0
C2600 C 0.1346 0.3104 0.66313 0.0
C2601 C 0.11705 0.37358 0.65998 0.0
H2602 H 0.08107 0.32793 0.64285 0.0
C2603 C 0.03769 0.39947 0.64266 0.0
C2604 C 0.00873 0.37301 0.64108 0.0
C2605 C 0.06218 0.39624 0.64534 0.0
C2606 C 0.0911 0.34094 0.64761 0.0
H2607 H 0.19672 0.37278 0.67542 0.0
H2608 H 0.17424 0.38889 0.66613 0.0
H2609 H 0.11726 0.31792 0.64951 0.0
H2610 H 0.98355 0.3223 0.64093 0.0
H2611 H 0.02631 0.31685 0.64549 0.0
H2612 H 0.0906 0.39626 0.65812 0.0
C2613 C 0.16663 0.36433 0.66667 0.0
C2614 C 0.11174 0.33516 0.65144 0.0
C2615 C 0.17973 0.35517 0.67196 0.0
C2616 C 0.00543 0.34328 0.642 0.0
C2617 C 0.03001 0.34009 0.64461 0.0
C2618 C 0.09675 0.37958 0.65611 0.0
C2619 C 0.14285 0.34193 0.66239 0.0
C2620 C 0.12441 0.35088 0.65777 0.0
C2621 C 0.05843 0.3665 0.64643 0.0
C2622 C 0.08301 0.36283 0.64998 0.0
H2623 H 0.14001 0.2767 0.66906 0.0
H2624 H 0.11622 0.29241 0.65999 0.0
H2625 H 0.12571 0.38573 0.66489 0.0
H2626 H 0.0415 0.42276 0.64188 0.0
H2627 H 0.08399 0.41702 0.64663 0.0
C2628 C 0.83605 0.67028 0.50353 0.0
C2629 C 0.80901 0.64075 0.50331 0.0
C2630 C 0.8591 0.67907 0.49845 0.0
C2631 C 0.88977 0.64299 0.48654 0.0
H2632 H 0.946 0.72895 0.48121 0.0
C2633 C 0.00115 0.67796 0.47069 0.0
C2634 C 0.02857 0.70279 0.47353 0.0
C2635 C 0.97187 0.67179 0.473 0.0
C2636 C 0.93046 0.70485 0.48266 0.0
H2637 H 0.78387 0.59807 0.49732 0.0
H2638 H 0.82404 0.61366 0.48834 0.0
H2639 H 0.8975 0.71538 0.48731 0.0
H2640 H 0.0465 0.74125 0.48088 0.0
H2641 H 0.99534 0.73058 0.48489 0.0
H2642 H 0.92299 0.63257 0.48201 0.0
C2643 C 0.82766 0.62978 0.49253 0.0
C2644 C 0.9027 0.69705 0.48615 0.0
C2645 C 0.80455 0.62093 0.49765 0.0
C2646 C 0.02594 0.72211 0.47854 0.0
C2647 C 0.9966 0.71601 0.48083 0.0
C2648 C 0.91738 0.65075 0.483 0.0
C2649 C 0.85563 0.65859 0.493 0.0
C2650 C 0.88243 0.66615 0.4883 0.0
C2651 C 0.96928 0.69041 0.47818 0.0
C2652 C 0.93838 0.68188 0.48118 0.0
H2653 H 0.84015 0.6862 0.50781 0.0
H2654 H 0.88039 0.70127 0.49904 0.0
H2655 H 0.87503 0.61906 0.4882 0.0
H2656 H 0.00224 0.66305 0.46671 0.0
H2657 H 0.95121 0.65219 0.47079 0.0
C2658 C 0.30359 0.3225 0.48183 0.0
C2659 C 0.31153 0.33439 0.47503 0.0
C2660 C 0.31133 0.3006 0.48423 0.0
C2661 C 0.32155 0.237 0.48008 0.0
H2662 H 0.38258 0.26407 0.49502 0.0
C2663 C 0.39118 0.19 0.49865 0.0
C2664 C 0.36578 0.1653 0.50211 0.0
C2665 C 0.38625 0.20852 0.4939 0.0
C2666 C 0.36584 0.25631 0.49078 0.0
H2667 H 0.33267 0.3321 0.46532 0.0
H2668 H 0.34541 0.2928 0.4695 0.0
H2669 H 0.36952 0.30117 0.48978 0.0
H2670 H 0.31532 0.13867 0.50278 0.0
H2671 H 0.30674 0.17053 0.49433 0.0
H2672 H 0.31664 0.19163 0.48136 0.0
C2673 C 0.33365 0.30089 0.47296 0.0
C2674 C 0.35827 0.27743 0.48784 0.0
C2675 C 0.32651 0.32334 0.4706 0.0
C2676 C 0.33533 0.15767 0.50023 0.0
C2677 C 0.3304 0.17582 0.49538 0.0
C2678 C 0.32867 0.21562 0.48314 0.0
C2679 C 0.32649 0.28977 0.47982 0.0
C2680 C 0.33587 0.26784 0.48253 0.0
C2681 C 0.35586 0.20217 0.4924 0.0
C2682 C 0.3507 0.22509 0.48855 0.0
H2683 H 0.29231 0.3309 0.48535 0.0
H2684 H 0.30566 0.29224 0.48955 0.0
H2685 H 0.30414 0.22924 0.476 0.0
H2686 H 0.41492 0.19639 0.49996 0.0
H2687 H 0.40623 0.22864 0.49163 0.0
C2688 C 0.6955 0.97859 0.48047 0.0
C2689 C 0.67278 0.97767 0.47592 0.0
C2690 C 0.72095 0.0071 0.48251 0.0
C2691 C 0.74267 0.08863 0.485 0.0
H2692 H 0.82547 0.10058 0.48791 0.0
C2693 C 0.83531 0.19703 0.4994 0.0
C2694 C 0.84979 0.19006 0.50486 0.0
C2695 C 0.81914 0.175 0.49418 0.0
C2696 C 0.80248 0.09763 0.48713 0.0
H2697 H 0.66004 0.00618 0.46967 0.0
H2698 H 0.70416 0.05585 0.47333 0.0
H2699 H 0.78586 0.05355 0.48203 0.0
H2700 H 0.86099 0.15573 0.50879 0.0
H2701 H 0.8326 0.11738 0.4998 0.0
H2702 H 0.75859 0.13178 0.49037 0.0
C2703 C 0.70203 0.03446 0.47537 0.0
C2704 C 0.77982 0.07069 0.48376 0.0
C2705 C 0.67666 0.00596 0.4733 0.0
C2706 C 0.84988 0.16174 0.50468 0.0
C2707 C 0.83374 0.13977 0.49948 0.0
C2708 C 0.76524 0.11544 0.4884 0.0
C2709 C 0.72423 0.03536 0.48007 0.0
C2710 C 0.74945 0.06557 0.48282 0.0
C2711 C 0.81719 0.14564 0.49431 0.0
C2712 C 0.79519 0.1199 0.48966 0.0
H2713 H 0.69316 0.95737 0.48265 0.0
H2714 H 0.73741 0.00703 0.48622 0.0
H2715 H 0.7194 0.08522 0.48442 0.0
H2716 H 0.83496 0.21874 0.49937 0.0
H2717 H 0.80712 0.18049 0.49019 0.0
C2718 C 0.02014 0.51013 0.6518 0.0
C2719 C 0.98924 0.48525 0.65183 0.0
C2720 C 0.02977 0.53455 0.65656 0.0
C2721 C 0.00844 0.56218 0.67249 0.0
H2722 H 0.04879 0.6414 0.66272 0.0
C2723 C 0.01447 0.67424 0.68334 0.0
C2724 C 0.04064 0.70331 0.68171 0.0
C2725 C 0.01123 0.64664 0.68057 0.0
C2726 C 0.03815 0.61965 0.6656 0.0
H2727 H 0.94483 0.46515 0.65722 0.0
H2728 H 0.96161 0.50809 0.66552 0.0
H2729 H 0.03837 0.59429 0.65661 0.0
H2730 H 0.08459 0.72556 0.67605 0.0
H2731 H 0.07946 0.67761 0.67148 0.0
H2732 H 0.00787 0.58774 0.68146 0.0
C2733 C 0.97845 0.5086 0.66184 0.0
C2734 C 0.03213 0.59256 0.66208 0.0
C2735 C 0.96882 0.48401 0.65708 0.0
C2736 C 0.06412 0.70383 0.67747 0.0
C2737 C 0.061 0.67623 0.67476 0.0
C2738 C 0.01466 0.58944 0.67604 0.0
C2739 C 0.00865 0.53472 0.66143 0.0
C2740 C 0.017 0.56348 0.66546 0.0
C2741 C 0.0342 0.64735 0.67614 0.0
C2742 C 0.02934 0.61848 0.67261 0.0
H2743 H 0.03653 0.51152 0.64787 0.0
H2744 H 0.05339 0.55403 0.65623 0.0
H2745 H 0.99687 0.54011 0.67524 0.0
H2746 H 0.99614 0.67269 0.68668 0.0
H2747 H 0.99016 0.62487 0.68172 0.0
C2748 C 0.51117 0.47584 0.65564 0.0
C2749 C 0.51118 0.49787 0.65103 0.0
C2750 C 0.48826 0.46228 0.66081 0.0
C2751 C 0.40787 0.44576 0.66401 0.0
H2752 H 0.41784 0.41237 0.6815 0.0
C2753 C 0.30355 0.3727 0.68216 0.0
C2754 C 0.30048 0.34403 0.68425 0.0
C2755 C 0.33122 0.39575 0.67911 0.0
C2756 C 0.41477 0.42162 0.67663 0.0
H2757 H 0.48918 0.5251 0.64858 0.0
H2758 H 0.45008 0.50251 0.65776 0.0
H2759 H 0.46384 0.44651 0.67453 0.0
H2760 H 0.32484 0.31778 0.68489 0.0
H2761 H 0.37293 0.35803 0.67969 0.0
H2762 H 0.35885 0.42061 0.66606 0.0
C2763 C 0.46689 0.49471 0.65724 0.0
C2764 C 0.44108 0.44109 0.67263 0.0
C2765 C 0.48944 0.50785 0.65201 0.0
C2766 C 0.32624 0.33955 0.68344 0.0
C2767 C 0.35395 0.36269 0.68045 0.0
C2768 C 0.38169 0.42658 0.66803 0.0
C2769 C 0.4652 0.47084 0.66152 0.0
C2770 C 0.4379 0.45296 0.6662 0.0
C2771 C 0.35655 0.39081 0.67815 0.0
C2772 C 0.38478 0.41384 0.67432 0.0
H2773 H 0.52758 0.46759 0.65497 0.0
H2774 H 0.48761 0.44383 0.66397 0.0
H2775 H 0.40433 0.45383 0.65903 0.0
H2776 H 0.28458 0.37738 0.68282 0.0
H2777 H 0.33271 0.41739 0.67746 0.0
C2778 C 0.50374 0.98813 0.65296 0.0
C2779 C 0.50643 0.0177 0.65254 0.0
C2780 C 0.51796 0.98106 0.65838 0.0
C2781 C 0.58564 0.02121 0.66986 0.0
H2782 H 0.55626 0.93744 0.6768 0.0
C2783 C 0.66483 0.99089 0.68607 0.0
C2784 C 0.66618 0.96473 0.68366 0.0
C2785 C 0.64146 0.9967 0.68375 0.0
C2786 C 0.56473 0.96096 0.67491 0.0
H2787 H 0.5242 0.06233 0.65773 0.0
H2788 H 0.54885 0.04982 0.66729 0.0
H2789 H 0.52061 0.94903 0.67038 0.0
H2790 H 0.64327 0.92371 0.67705 0.0
H2791 H 0.60246 0.93376 0.67305 0.0
H2792 H 0.62995 0.03294 0.67422 0.0
C2793 C 0.53614 0.03228 0.66335 0.0
C2794 C 0.54435 0.96762 0.67124 0.0
C2795 C 0.52183 0.03937 0.65791 0.0
C2796 C 0.64284 0.94389 0.67908 0.0
C2797 C 0.61938 0.94964 0.67679 0.0
C2798 C 0.60594 0.0146 0.67356 0.0
C2799 C 0.53521 0.00339 0.66352 0.0
C2800 C 0.55484 0.9976 0.66849 0.0
C2801 C 0.61877 0.9764 0.679 0.0
C2802 C 0.59596 0.9842 0.67595 0.0
H2803 H 0.49185 0.97083 0.64893 0.0
H2804 H 0.51697 0.9587 0.65829 0.0
H2805 H 0.59469 0.04443 0.66774 0.0
H2806 H 0.68196 0.00707 0.68972 0.0
H2807 H 0.64133 0.01729 0.68563 0.0
C2808 C 0.30508 0.94382 0.17746 0.0
C2809 C 0.30279 0.96436 0.18217 0.0
C2810 C 0.33423 0.94866 0.17539 0.0
C2811 C 0.41467 0.01186 0.17323 0.0
H2812 H 0.43063 0.94424 0.16932 0.0
C2813 C 0.52527 0.03551 0.15855 0.0
C2814 C 0.51925 0.01557 0.15282 0.0
C2815 C 0.50282 0.02766 0.16378 0.0
C2816 C 0.42655 0.96339 0.17039 0.0
H2817 H 0.32948 0.00515 0.18868 0.0
H2818 H 0.38033 0.01376 0.185 0.0
H2819 H 0.38284 0.93337 0.17538 0.0
H2820 H 0.48614 0.97071 0.14836 0.0
H2821 H 0.44706 0.95726 0.15738 0.0
H2822 H 0.45753 0.04168 0.16798 0.0
C2823 C 0.35952 0.99414 0.18285 0.0
C2824 C 0.39918 0.95715 0.17386 0.0
C2825 C 0.33036 0.98925 0.18493 0.0
C2826 C 0.49142 0.98669 0.15269 0.0
C2827 C 0.46905 0.97885 0.1579 0.0
C2828 C 0.44195 0.01808 0.16975 0.0
C2829 C 0.36178 0.97419 0.17797 0.0
C2830 C 0.39257 0.98121 0.17516 0.0
C2831 C 0.474 0.99971 0.16338 0.0
C2832 C 0.44782 0.99379 0.16812 0.0
H2833 H 0.28441 0.92463 0.17516 0.0
H2834 H 0.33517 0.93313 0.17154 0.0
H2835 H 0.41012 0.03087 0.17408 0.0
H2836 H 0.54658 0.05788 0.15882 0.0
H2837 H 0.50756 0.044 0.168 0.0
C2838 C 0.97304 0.47862 0.15604 0.0
C2839 C 0.99337 0.49783 0.15079 0.0
C2840 C 0.98313 0.46452 0.16092 0.0
C2841 C 0.0392 0.43713 0.16168 0.0
H2842 H 0.01332 0.41779 0.18098 0.0
C2843 C 0.07312 0.3611 0.17774 0.0
C2844 C 0.04935 0.33751 0.1818 0.0
C2845 C 0.06948 0.3851 0.17493 0.0
C2846 C 0.0206 0.4229 0.17558 0.0
H2847 H 0.04084 0.51981 0.14692 0.0
H2848 H 0.05854 0.49577 0.15549 0.0
H2849 H 0.00124 0.45297 0.17446 0.0
H2850 H 0.00377 0.32196 0.18637 0.0
H2851 H 0.99696 0.36303 0.18124 0.0
H2852 H 0.05753 0.40643 0.16265 0.0
C2853 C 0.03464 0.49085 0.15574 0.0
C2854 C 0.01374 0.44308 0.17187 0.0
C2855 C 0.02454 0.50473 0.15085 0.0
C2856 C 0.02234 0.33928 0.18317 0.0
C2857 C 0.01861 0.36318 0.18031 0.0
C2858 C 0.04591 0.41695 0.16537 0.0
C2859 C 0.01372 0.46957 0.16064 0.0
C2860 C 0.02281 0.45023 0.16485 0.0
C2861 C 0.04189 0.38603 0.17604 0.0
C2862 C 0.0365 0.40935 0.17235 0.0
H2863 H 0.94885 0.47286 0.15611 0.0
H2864 H 0.96642 0.44816 0.16462 0.0
H2865 H 0.04589 0.44155 0.15624 0.0
H2866 H 0.09422 0.36064 0.17653 0.0
H2867 H 0.08814 0.40265 0.17176 0.0
C2868 C 0.52503 0.48945 0.15442 0.0
C2869 C 0.51212 0.4942 0.14833 0.0
C2870 C 0.54047 0.51369 0.15926 0.0
C2871 C 0.58538 0.59842 0.1595 0.0
H2872 H 0.57483 0.59252 0.17958 0.0
C2873 C 0.64319 0.70766 0.17676 0.0
C2874 C 0.65457 0.70567 0.18333 0.0
C2875 C 0.62544 0.68086 0.17278 0.0
C2876 C 0.5784 0.59444 0.17399 0.0
H2877 H 0.50341 0.52732 0.14277 0.0
H2878 H 0.53034 0.56933 0.15116 0.0
H2879 H 0.54321 0.54661 0.17231 0.0
H2880 H 0.65664 0.67416 0.19086 0.0
H2881 H 0.62624 0.62726 0.18384 0.0
H2882 H 0.62087 0.64577 0.16109 0.0
C2883 C 0.52891 0.5471 0.15216 0.0
C2884 C 0.56019 0.56818 0.16984 0.0
C2885 C 0.51336 0.52295 0.14737 0.0
C2886 C 0.64793 0.6763 0.18584 0.0
C2887 C 0.63041 0.64946 0.18182 0.0
C2888 C 0.60376 0.62447 0.16363 0.0
C2889 C 0.54338 0.54303 0.15803 0.0
C2890 C 0.56322 0.57012 0.16255 0.0
C2891 C 0.61892 0.65141 0.17524 0.0
C2892 C 0.60023 0.62301 0.17092 0.0
H2893 H 0.52444 0.46755 0.15531 0.0
H2894 H 0.55144 0.50999 0.16376 0.0
H2895 H 0.58865 0.60037 0.15389 0.0
H2896 H 0.6474 0.72989 0.17476 0.0
H2897 H 0.61641 0.68324 0.16782 0.0
C2898 C 0.31126 0.98927 0.97109 0.0
C2899 C 0.28414 0.96066 0.97254 0.0
C2900 C 0.31508 0.01722 0.97378 0.0
C2901 C 0.28742 0.04485 0.98847 0.0
H2902 H 0.33554 0.12543 0.97948 0.0
C2903 C 0.31268 0.15499 0.00305 0.0
C2904 C 0.34442 0.17778 0.00334 0.0
C2905 C 0.30184 0.13141 -0.00196 0.0
C2906 C 0.32203 0.10307 0.98204 0.0
H2907 H 0.23896 0.93974 0.97768 0.0
H2908 H 0.24517 0.98834 0.9821 0.0
H2909 H 0.32224 0.07778 0.97298 0.0
H2910 H 0.38928 0.19532 -0.00173 0.0
H2911 H 0.37037 0.15375 0.98955 0.0
H2912 H 0.28763 0.06989 -0.00246 0.0
C2913 C 0.26392 0.98904 0.97905 0.0
C2914 C 0.31448 0.07579 0.97833 0.0
C2915 C 0.26022 0.96106 0.97643 0.0
C2916 C 0.36467 0.17804 -0.00183 0.0
C2917 C 0.35382 0.15426 0.99317 0.0
C2918 C 0.29476 0.07198 0.99213 0.0
C2919 C 0.29175 0.01736 0.97793 0.0
C2920 C 0.29744 0.04636 0.98154 0.0
C2921 C 0.32255 0.12998 0.99325 0.0
C2922 C 0.31246 0.10142 0.989 0.0
H2923 H 0.32995 0.99018 0.968 0.0
H2924 H 0.33691 0.03852 0.97283 0.0
H2925 H 0.27493 0.02275 0.99118 0.0
H2926 H 0.29643 0.15447 0.00691 0.0
H2927 H 0.27747 0.11341 -0.00186 0.0
C2928 C 0.85813 0.16654 0.00782 0.0
C2929 C 0.8299 0.16684 0.00781 0.0
C2930 C 0.87867 0.17869 0.0022 0.0
C2931 C 0.90011 0.23829 0.98875 0.0
H2932 H 0.95976 0.21265 0.98362 0.0
C2933 C 0.03484 0.30125 0.97958 0.0
C2934 C 0.03511 0.32145 0.97439 0.0
C2935 C 0.00664 0.27706 0.98214 0.0
C2936 C 0.94321 0.22004 0.98499 0.0
H2937 H 0.79988 0.17775 0.00163 0.0
H2938 H 0.83564 0.19861 0.99174 0.0
H2939 H 0.91426 0.17797 0.99065 0.0
H2940 H 0.00584 0.33069 0.96752 0.0
H2941 H 0.95665 0.28869 0.97205 0.0
H2942 H 0.92948 0.28072 0.98328 0.0
C2943 C 0.84216 0.18955 -0.00382 0.0
C2944 C 0.91717 0.2002 0.98901 0.0
C2945 C 0.82157 0.1774 0.00182 0.0
C2946 C 0.0065 0.31603 0.97162 0.0
C2947 C 0.9783 0.29189 0.9742 0.0
C2948 C 0.92603 0.25802 0.9847 0.0
C2949 C 0.87143 0.19135 -0.00358 0.0
C2950 C 0.89582 0.20952 0.99112 0.0
C2951 C 0.97806 0.27252 0.97958 0.0
C2952 C 0.94834 0.24951 0.98295 0.0
H2953 H 0.86517 0.15839 0.01234 0.0
H2954 H 0.90107 0.1799 0.00261 0.0
H2955 H 0.88447 0.24648 0.99035 0.0
H2956 H 0.05633 0.30487 0.9819 0.0
H2957 H 0.00725 0.26281 0.98636 0.0
C2958 C 0.80713 0.63739 0.00128 0.0
C2959 C 0.82449 0.65597 0.00695 0.0
C2960 C 0.79418 0.64882 -0.00358 0.0
C2961 C 0.76564 0.70401 -0.004 0.0
H2962 H 0.75495 0.68624 0.97618 0.0
C2963 C 0.69322 0.74114 0.9795 0.0
C2964 C 0.67182 0.71856 0.97486 0.0
C2965 C 0.71695 0.7376 0.98252 0.0
C2966 C 0.75763 0.69126 0.98171 0.0
H2967 H 0.84422 0.70186 0.01165 0.0
H2968 H 0.82205 0.72184 0.00315 0.0
H2969 H 0.78787 0.67219 0.98301 0.0
H2970 H 0.66019 0.67562 0.96941 0.0
H2971 H 0.70059 0.66882 0.97488 0.0
H2972 H 0.73464 0.7219 0.99484 0.0
C2973 C 0.81776 0.69825 0.00254 0.0
C2974 C 0.77651 0.68326 0.98562 0.0
C2975 C 0.83054 0.68683 0.00739 0.0
C2976 C 0.67573 0.69315 0.97308 0.0
C2977 C 0.69929 0.68947 0.97614 0.0
C2978 C 0.74669 0.71182 0.99213 0.0
C2979 C 0.79849 0.67902 -0.00285 0.0
C2980 C 0.78049 0.68935 0.99281 0.0
C2981 C 0.71975 0.71128 0.98103 0.0
C2982 C 0.74217 0.70529 0.98495 0.0
H2983 H 0.80208 0.6135 0.00081 0.0
H2984 H 0.77934 0.63341 0.99234 0.0
H2985 H 0.76768 0.70844 0.00156 0.0
H2986 H 0.69107 0.76102 0.98103 0.0
H2987 H 0.73269 0.75517 0.98617 0.0
C2988 C 0.67593 0.01808 0.80535 0.0
C2989 C 0.70337 0.04264 0.80824 0.0
C2990 C 0.6467 0.01291 0.80744 0.0
C2991 C 0.60622 0.04808 0.8168 0.0
H2992 H 0.54888 0.96267 0.82228 0.0
C2993 C 0.51411 0.01494 0.83814 0.0
C2994 C 0.48677 0.98563 0.83799 0.0
C2995 C 0.53626 0.02373 0.83285 0.0
C2996 C 0.56414 0.98651 0.82063 0.0
H2997 H 0.72151 0.08169 0.81543 0.0
H2998 H 0.67051 0.07265 0.81908 0.0
H2999 H 0.59647 0.97487 0.81611 0.0
H3000 H 0.45993 0.94361 0.83187 0.0
H3001 H 0.49853 0.95918 0.82254 0.0
H3002 H 0.57424 0.05982 0.82153 0.0
C3003 C 0.67163 0.05758 0.81514 0.0
C3004 C 0.59155 0.99353 0.8171 0.0
C3005 C 0.7009 0.06273 0.81305 0.0
C3006 C 0.48088 0.96627 0.83215 0.0
C3007 C 0.5031 0.9751 0.82684 0.0
C3008 C 0.57869 0.04103 0.82031 0.0
C3009 C 0.64421 0.03223 0.81245 0.0
C3010 C 0.6133 0.0245 0.81532 0.0
C3011 C 0.53155 0.00344 0.82726 0.0
C3012 C 0.55777 0.01028 0.82244 0.0
H3013 H 0.67698 0.00261 0.80151 0.0
H3014 H 0.62599 0.99349 0.80519 0.0
H3015 H 0.62231 0.07209 0.81539 0.0
H3016 H 0.51925 0.03051 0.84254 0.0
H3017 H 0.55795 0.0456 0.83339 0.0
C3018 C 0.97315 0.649 0.80666 0.0
C3019 C 0.94743 0.65264 0.8083 0.0
C3020 C 0.9764 0.62505 0.80965 0.0
C3021 C 0.95131 0.57527 0.82529 0.0
H3022 H 0.99274 0.53558 0.81632 0.0
C3023 C 0.97458 0.49058 0.84059 0.0
C3024 C 0.00574 0.49742 0.84045 0.0
C3025 C 0.96355 0.50317 0.8356 0.0
C3026 C 0.98112 0.54649 0.81888 0.0
H3027 H 0.90402 0.6324 0.81414 0.0
H3028 H 0.90913 0.5902 0.81913 0.0
H3029 H 0.9799 0.56949 0.80952 0.0
H3030 H 0.04915 0.52079 0.83467 0.0
H3031 H 0.02993 0.54317 0.82595 0.0
H3032 H 0.95296 0.55288 0.83466 0.0
C3033 C 0.92729 0.60646 0.81566 0.0
C3034 C 0.97383 0.56596 0.815 0.0
C3035 C 0.92418 0.63058 0.81272 0.0
C3036 C 0.025 0.51511 0.8349 0.0
C3037 C 0.01397 0.52788 0.8299 0.0
C3038 C 0.95839 0.55574 0.82914 0.0
C3039 C 0.95385 0.60389 0.81432 0.0
C3040 C 0.95919 0.58092 0.81819 0.0
C3041 C 0.9835 0.52303 0.83037 0.0
C3042 C 0.97369 0.54139 0.82601 0.0
H3043 H 0.99123 0.66501 0.80316 0.0
H3044 H 0.99725 0.62395 0.80852 0.0
H3045 H 0.94073 0.5869 0.82798 0.0
H3046 H 0.95905 0.47665 0.84476 0.0
H3047 H 0.93975 0.49845 0.836 0.0
C3048 C 0.48318 0.5124 0.83333 0.0
C3049 C 0.49534 0.50559 0.83927 0.0
C3050 C 0.47028 0.4907 0.82789 0.0
C3051 C 0.46022 0.41513 0.82123 0.0
H3052 H 0.37794 0.39976 0.81611 0.0
C3053 C 0.3425 0.32142 0.80493 0.0
C3054 C 0.33823 0.2934 0.80781 0.0
C3055 C 0.36658 0.35018 0.80727 0.0
C3056 C 0.40109 0.40403 0.81736 0.0
H3057 H 0.5058 0.4719 0.84391 0.0
H3058 H 0.48303 0.43411 0.83456 0.0
H3059 H 0.41265 0.44631 0.8227 0.0
H3060 H 0.35679 0.27376 0.81523 0.0
H3061 H 0.39879 0.3239 0.8193 0.0
H3062 H 0.44783 0.37187 0.81614 0.0
C3063 C 0.48354 0.45614 0.83402 0.0
C3064 C 0.42109 0.43083 0.82113 0.0
C3065 C 0.49642 0.47777 0.83943 0.0
C3066 C 0.35952 0.29482 0.81285 0.0
C3067 C 0.38366 0.3236 0.81519 0.0
C3068 C 0.44011 0.3882 0.81748 0.0
C3069 C 0.46934 0.46184 0.8283 0.0
C3070 C 0.45058 0.4363 0.82327 0.0
C3071 C 0.38703 0.3516 0.81253 0.0
C3072 C 0.41004 0.38199 0.81566 0.0
H3073 H 0.48217 0.53373 0.83303 0.0
H3074 H 0.46 0.49604 0.8235 0.0
H3075 H 0.48298 0.4189 0.82269 0.0
H3076 H 0.32699 0.32119 0.80093 0.0
H3077 H 0.36889 0.37135 0.80505 0.0
C3078 C 0.67852 0.86021 0.98228 0.0
C3079 C 0.65061 0.83173 0.98311 0.0
C3080 C 0.68897 0.8829 0.98749 0.0
C3081 C 0.65901 0.90897 0.00197 0.0
H3082 H 0.74701 0.96599 0.00529 0.0
C3083 C 0.70381 0.01266 0.02128 0.0
C3084 C 0.72776 0.04138 0.01874 0.0
C3085 C 0.69483 0.98507 0.0176 0.0
C3086 C 0.72235 0.9503 0.0044 0.0
H3087 H 0.61251 0.80408 0.99021 0.0
H3088 H 0.63107 0.8437 -0.00061 0.0
H3089 H 0.73103 0.92009 -0.00202 0.0
H3090 H 0.7614 0.06358 0.01042 0.0
H3091 H 0.74561 0.01544 0.00396 0.0
H3092 H 0.65043 0.93945 0.00834 0.0
C3093 C 0.64459 0.84862 0.99464 0.0
C3094 C 0.71318 0.924 0.00022 0.0
C3095 C 0.63408 0.82584 0.98941 0.0
C3096 C 0.74267 0.04188 0.01247 0.0
C3097 C 0.73387 0.01427 0.00882 0.0
C3098 C 0.66819 0.93518 0.00619 0.0
C3099 C 0.67184 0.87768 0.99368 0.0
C3100 C 0.68142 0.90337 -0.00117 0.0
C3101 C 0.70981 0.98558 0.01133 0.0
C3102 C 0.69998 0.95645 0.00733 0.0
H3103 H 0.69186 0.8655 0.9775 0.0
H3104 H 0.70981 0.9051 0.98651 0.0
H3105 H 0.63438 0.89385 0.00094 0.0
H3106 H 0.6917 0.01157 0.02606 0.0
H3107 H 0.6763 0.96329 0.01968 0.0
C3108 C 0.9861 0.6774 0.01583 0.0
C3109 C 0.95674 0.6741 0.01437 0.0
C3110 C 0.01315 0.70142 0.0128 0.0
C3111 C 0.03707 0.75137 -0.00275 0.0
H3112 H 0.11836 0.79215 0.00614 0.0
C3113 C 0.14458 0.8359 0.98173 0.0
C3114 C 0.16954 0.83005 0.98207 0.0
C3115 C 0.12079 0.82319 0.98669 0.0
C3116 C 0.0958 0.78092 0.0036 0.0
H3117 H 0.93327 0.69465 0.00877 0.0
H3118 H 0.98036 0.73689 0.00367 0.0
H3119 H 0.07191 0.75783 0.01299 0.0
H3120 H 0.19038 0.80822 0.98814 0.0
H3121 H 0.14847 0.7855 -0.00325 0.0
H3122 H 0.06072 0.77361 0.98784 0.0
C3123 C 0.98239 0.72046 0.00706 0.0
C3124 C 0.06922 0.76125 0.00751 0.0
C3125 C 0.95534 0.69636 0.01006 0.0
C3126 C 0.17141 0.81312 0.98775 0.0
C3127 C 0.14743 0.80017 0.9927 0.0
C3128 C 0.06351 0.771 0.99336 0.0
C3129 C 0.01152 0.72284 0.00825 0.0
C3130 C 0.03959 0.74593 0.00435 0.0
C3131 C 0.1213 0.80412 0.99206 0.0
C3132 C 0.09323 0.78574 -0.00354 0.0
H3133 H 0.98823 0.66112 0.01922 0.0
H3134 H 0.03516 0.70242 0.0138 0.0
H3135 H 0.01476 0.73946 0.9946 0.0
H3136 H 0.14275 0.84925 0.97747 0.0
H3137 H 0.10133 0.82726 0.98615 0.0
C3138 C 0.18144 0.36577 0.99144 0.0
C3139 C 0.16775 0.34599 0.98568 0.0
C3140 C 0.19549 0.35757 -0.00326 0.0
C3141 C 0.2061 0.29247 0.00341 0.0
H3142 H 0.29017 0.35909 0.00734 0.0
C3143 C 0.3069 0.2712 0.01045 0.0
C3144 C 0.32952 0.29113 0.01527 0.0
C3145 C 0.28289 0.27652 0.00838 0.0
C3146 C 0.26657 0.34032 0.00642 0.0
H3147 H 0.15577 0.30108 0.98122 0.0
H3148 H 0.18041 0.28702 0.99034 0.0
H3149 H 0.25428 0.37076 0.00119 0.0
H3150 H 0.34348 0.3313 0.02199 0.0
H3151 H 0.30183 0.34078 0.01829 0.0
H3152 H 0.21908 0.26183 0.00836 0.0
C3153 C 0.18029 0.30875 0.99084 0.0
C3154 C 0.2459 0.34703 0.00291 0.0
C3155 C 0.16633 0.31694 0.98557 0.0
C3156 C 0.3269 0.31588 0.01815 0.0
C3157 C 0.30295 0.32126 0.01606 0.0
C3158 C 0.22684 0.28575 0.00689 0.0
C3159 C 0.19599 0.32942 -0.00363 0.0
C3160 C 0.21571 0.32305 0.00118 0.0
C3161 C 0.28096 0.30192 0.01107 0.0
C3162 C 0.25756 0.30948 0.00827 0.0
H3163 H 0.18279 0.38828 0.99169 0.0
H3164 H 0.20697 0.37379 0.00098 0.0
H3165 H 0.18283 0.27355 0.00226 0.0
H3166 H 0.30832 0.25215 0.00806 0.0
H3167 H 0.26658 0.26146 0.00444 0.0
C3168 C 0.01225 0.32466 0.52041 0.0
C3169 C 0.98465 0.30034 0.5175 0.0
C3170 C 0.04136 0.32922 0.51839 0.0
C3171 C 0.08106 0.29227 0.50951 0.0
H3172 H 0.1392 0.37654 0.50344 0.0
C3173 C 0.17282 0.32046 0.48835 0.0
C3174 C 0.2 0.3499 0.48818 0.0
C3175 C 0.15096 0.31284 0.49367 0.0
C3176 C 0.12374 0.35302 0.50527 0.0
H3177 H 0.96625 0.26111 0.51034 0.0
H3178 H 0.01698 0.26897 0.50688 0.0
H3179 H 0.09182 0.36591 0.50951 0.0
H3180 H 0.22699 0.39336 0.49382 0.0
H3181 H 0.18902 0.37978 0.50321 0.0
H3182 H 0.11265 0.27924 0.50512 0.0
C3183 C 0.01602 0.28437 0.51076 0.0
C3184 C 0.09645 0.34691 0.50873 0.0
C3185 C 0.98689 0.2799 0.51274 0.0
C3186 C 0.20615 0.37056 0.49377 0.0
C3187 C 0.18426 0.36288 0.49912 0.0
C3188 C 0.10852 0.29841 0.5061 0.0
C3189 C 0.04358 0.30944 0.51346 0.0
C3190 C 0.07439 0.31634 0.51071 0.0
C3191 C 0.15582 0.33443 0.49898 0.0
C3192 C 0.12973 0.32871 0.50374 0.0
H3193 H 0.01146 0.34042 0.5242 0.0
H3194 H 0.0622 0.34849 0.52064 0.0
H3195 H 0.06468 0.26855 0.51108 0.0
H3196 H 0.16747 0.30389 0.48415 0.0
H3197 H 0.1293 0.29082 0.49333 0.0
C3198 C 0.68012 0.84717 0.48625 0.0
C3199 C 0.64913 0.84082 0.48606 0.0
C3200 C 0.68872 0.83036 0.49066 0.0
C3201 C 0.66353 0.77377 0.50527 0.0
H3202 H 0.70741 0.74067 0.49473 0.0
C3203 C 0.66773 0.66364 0.5136 0.0
C3204 C 0.69465 0.66192 0.51207 0.0
C3205 C 0.66491 0.68895 0.51133 0.0
C3206 C 0.69573 0.75009 0.49782 0.0
H3207 H 0.60335 0.81366 0.49074 0.0
H3208 H 0.61834 0.78398 0.49843 0.0
H3209 H 0.6982 0.77995 0.48952 0.0
H3210 H 0.74015 0.68638 0.50711 0.0
H3211 H 0.73565 0.7308 0.50339 0.0
H3212 H 0.66072 0.74339 0.51355 0.0
C3213 C 0.63604 0.80212 0.4952 0.0
C3214 C 0.69042 0.77267 0.49482 0.0
C3215 C 0.62745 0.81912 0.49079 0.0
C3216 C 0.71911 0.68677 0.50843 0.0
C3217 C 0.71638 0.71219 0.50621 0.0
C3218 C 0.66903 0.75122 0.5083 0.0
C3219 C 0.66646 0.80668 0.49495 0.0
C3220 C 0.67403 0.78459 0.49848 0.0
C3221 C 0.68903 0.71334 0.50753 0.0
C3222 C 0.68493 0.73888 0.50458 0.0
H3223 H 0.69742 0.86404 0.48271 0.0
H3224 H 0.7125 0.83489 0.49047 0.0
H3225 H 0.65098 0.78266 0.50823 0.0
H3226 H 0.6486 0.64533 0.5165 0.0
H3227 H 0.64339 0.68888 0.51239 0.0
C3228 C 0.19391 0.80808 0.48982 0.0
C3229 C 0.16537 0.80469 0.48758 0.0
C3230 C 0.21235 0.83135 0.49463 0.0
C3231 C 0.22494 0.90846 0.49962 0.0
H3232 H 0.28755 0.90953 0.51194 0.0
C3233 C 0.31474 0.02092 0.51351 0.0
C3234 C 0.34592 0.0278 0.51314 0.0
C3235 C 0.29038 0.99144 0.51164 0.0
C3236 C 0.27019 0.90954 0.5085 0.0
H3237 H 0.13204 0.8203 0.48913 0.0
H3238 H 0.16336 0.85978 0.49779 0.0
H3239 H 0.24739 0.86005 0.50697 0.0
H3240 H 0.37579 0.00879 0.51058 0.0
H3241 H 0.33329 0.95737 0.50731 0.0
H3242 H 0.24797 0.95787 0.50101 0.0
C3243 C 0.17221 0.84547 0.49565 0.0
C3244 C 0.24718 0.88122 0.50567 0.0
C3245 C 0.15408 0.82263 0.49076 0.0
C3246 C 0.35207 0.00423 0.51099 0.0
C3247 C 0.3277 0.97471 0.50913 0.0
C3248 C 0.24775 0.93663 0.50247 0.0
C3249 C 0.20232 0.85131 0.49734 0.0
C3250 C 0.22454 0.88041 0.5011 0.0
C3251 C 0.2966 0.96809 0.50937 0.0
C3252 C 0.27093 0.9376 0.50686 0.0
H3253 H 0.20332 0.79478 0.48739 0.0
H3254 H 0.23543 0.8352 0.49578 0.0
H3255 H 0.20845 0.909 0.49599 0.0
H3256 H 0.30903 0.03822 0.51528 0.0
H3257 H 0.26663 0.98691 0.51197 0.0
C3258 C 0.94812 0.30709 0.31265 0.0
C3259 C 0.96911 0.30518 0.30801 0.0
C3260 C 0.95262 0.33607 0.31476 0.0
C3261 C 0.96063 0.40088 0.31628 0.0
H3262 H 0.04418 0.45859 0.32286 0.0
C3263 C 0.98647 0.49122 0.33769 0.0
C3264 C 0.01541 0.51899 0.33785 0.0
C3265 C 0.97961 0.46933 0.33241 0.0
C3266 C 0.02088 0.44322 0.3209 0.0
H3267 H 0.01036 0.33244 0.30167 0.0
H3268 H 0.01842 0.38296 0.30545 0.0
H3269 H 0.0343 0.41173 0.31663 0.0
H3270 H 0.05894 0.54672 0.33229 0.0
H3271 H 0.04676 0.50856 0.32299 0.0
H3272 H 0.94705 0.43199 0.32073 0.0
C3273 C 0.99869 0.36196 0.3075 0.0
C3274 C 0.0152 0.41625 0.31734 0.0
C3275 C 0.99412 0.33299 0.30536 0.0
C3276 C 0.03649 0.52543 0.33233 0.0
C3277 C 0.02961 0.50348 0.32703 0.0
C3278 C 0.96635 0.42797 0.31981 0.0
C3279 C 0.97825 0.36381 0.31231 0.0
C3280 C 0.98486 0.39437 0.31517 0.0
C3281 C 0.00151 0.47471 0.32715 0.0
C3282 C 0.99636 0.44899 0.32234 0.0
H3283 H 0.92883 0.28626 0.31486 0.0
H3284 H 0.93672 0.33671 0.31855 0.0
H3285 H 0.93711 0.38467 0.31457 0.0
H3286 H 0.96962 0.48562 0.34184 0.0
H3287 H 0.95788 0.44736 0.33272 0.0
C3288 C 0.47418 0.50983 0.33466 0.0
C3289 C 0.47524 0.49027 0.33983 0.0
C3290 C 0.49884 0.525 0.32993 0.0
C3291 C 0.58281 0.55454 0.32964 0.0
H3292 H 0.57784 0.57772 0.31057 0.0
C3293 C 0.69372 0.63887 0.31467 0.0
C3294 C 0.69252 0.66275 0.31095 0.0
C3295 C 0.66641 0.61315 0.31714 0.0
C3296 C 0.57959 0.57152 0.3159 0.0
H3297 H 0.50123 0.46878 0.34368 0.0
H3298 H 0.54382 0.49468 0.33536 0.0
H3299 H 0.53031 0.53977 0.31661 0.0
H3300 H 0.6612 0.67716 0.3066 0.0
H3301 H 0.61384 0.63303 0.31113 0.0
H3302 H 0.63165 0.58693 0.32909 0.0
C3303 C 0.52447 0.49903 0.33507 0.0
C3304 C 0.55238 0.54976 0.31935 0.0
C3305 C 0.5 0.48408 0.33981 0.0
C3306 C 0.66317 0.65961 0.30956 0.0
C3307 C 0.63588 0.63398 0.31206 0.0
C3308 C 0.60988 0.5763 0.32622 0.0
C3309 C 0.52485 0.5207 0.33028 0.0
C3310 C 0.55368 0.54131 0.32629 0.0
C3311 C 0.63721 0.61072 0.316 0.0
C3312 C 0.6086 0.5854 0.31934 0.0
H3313 H 0.45542 0.5151 0.33456 0.0
H3314 H 0.49847 0.54164 0.32632 0.0
H3315 H 0.5846 0.54911 0.33503 0.0
H3316 H 0.71579 0.64042 0.31588 0.0
H3317 H 0.66826 0.59541 0.32006 0.0
C3318 C 0.33238 0.00375 0.3083 0.0
C3319 C 0.33694 0.03392 0.30726 0.0
C3320 C 0.35637 0.99954 0.3109 0.0
C3321 C 0.42484 0.03785 0.322 0.0
H3322 H 0.44173 0.97387 0.31526 0.0
C3323 C 0.51016 0.01303 0.33679 0.0
C3324 C 0.50012 0.98141 0.33794 0.0
C3325 C 0.49579 0.02182 0.33172 0.0
C3326 C 0.4372 0.99173 0.31723 0.0
H3327 H 0.3712 0.08332 0.3079 0.0
H3328 H 0.41269 0.07585 0.31261 0.0
H3329 H 0.40532 0.98464 0.30891 0.0
H3330 H 0.46842 0.93421 0.33448 0.0
H3331 H 0.44251 0.94934 0.3258 0.0
H3332 H 0.4552 0.04404 0.33049 0.0
C3333 C 0.39037 0.05551 0.31142 0.0
C3334 C 0.41643 0.99794 0.31358 0.0
C3335 C 0.36645 0.05975 0.30875 0.0
C3336 C 0.47675 0.95879 0.33366 0.0
C3337 C 0.46196 0.96754 0.32867 0.0
C3338 C 0.4453 0.03145 0.32568 0.0
C3339 C 0.38545 0.02537 0.31258 0.0
C3340 C 0.40972 0.02076 0.31599 0.0
C3341 C 0.47059 0.99912 0.32781 0.0
C3342 C 0.45144 0.008 0.32341 0.0
H3343 H 0.31 0.98324 0.30731 0.0
H3344 H 0.35176 0.97603 0.31184 0.0
H3345 H 0.41977 0.05525 0.32404 0.0
H3346 H 0.5284 0.03095 0.33998 0.0
H3347 H 0.50367 0.0464 0.33107 0.0
C3348 C 0.98339 0.21655 0.27126 0.0
C3349 C 0.96165 0.18719 0.27393 0.0
C3350 C 0.99442 0.21936 0.26445 0.0
C3351 C 0.97285 0.18453 0.24738 0.0
H3352 H 0.06168 0.22987 0.24346 0.0
C3353 C 0.0264 0.23516 0.22041 0.0
C3354 C 0.04911 0.22839 0.21798 0.0
C3355 C 0.01488 0.2272 0.22719 0.0
C3356 C 0.03684 0.21699 0.24449 0.0
H3357 H 0.93418 0.13779 0.27165 0.0
H3358 H 0.95297 0.14284 0.25961 0.0
H3359 H 0.04349 0.22156 0.25557 0.0
H3360 H 0.07772 0.20816 0.22067 0.0
H3361 H 0.05806 0.19489 0.23265 0.0
H3362 H 0.96621 0.18088 0.23629 0.0
C3363 C 0.96164 0.16354 0.26283 0.0
C3364 C 0.02648 0.2124 0.25139 0.0
C3365 C 0.95105 0.16064 0.26969 0.0
C3366 C 0.06009 0.21346 0.22243 0.0
C3367 C 0.04899 0.20602 0.22926 0.0
C3368 C 0.98322 0.18963 0.24047 0.0
C3369 C 0.98347 0.19292 0.26016 0.0
C3370 C 0.99441 0.19628 0.25289 0.0
C3371 C 0.0263 0.21285 0.23169 0.0
C3372 C 0.01529 0.20603 0.23898 0.0
H3373 H 0.99199 0.2373 0.27445 0.0
H3374 H 0.01109 0.24228 0.26248 0.0
H3375 H 0.94801 0.17219 0.24841 0.0
H3376 H 0.01749 0.24651 0.21704 0.0
H3377 H 0.99754 0.23288 0.22898 0.0
C3378 C 0.78883 0.85841 0.22344 0.0
C3379 C 0.75873 0.8401 0.22063 0.0
C3380 C 0.79449 0.85601 0.23048 0.0
C3381 C 0.75666 0.82768 0.2476 0.0
H3382 H 0.82601 0.81393 0.25118 0.0
C3383 C 0.7917 0.80962 0.27531 0.0
C3384 C 0.79701 0.78438 0.27599 0.0
C3385 C 0.78809 0.81943 0.26872 0.0
C3386 C 0.80659 0.81776 0.25025 0.0
H3387 H 0.71081 0.8057 0.22311 0.0
H3388 H 0.72067 0.80185 0.2354 0.0
H3389 H 0.81752 0.82699 0.23941 0.0
H3390 H 0.80312 0.74988 0.27033 0.0
H3391 H 0.79674 0.76697 0.25881 0.0
H3392 H 0.74533 0.81766 0.25843 0.0
C3393 C 0.73982 0.81818 0.23216 0.0
C3394 C 0.80192 0.82557 0.24355 0.0
C3395 C 0.73418 0.82043 0.22511 0.0
C3396 C 0.79877 0.76922 0.26996 0.0
C3397 C 0.79545 0.7792 0.26338 0.0
C3398 C 0.76148 0.82011 0.25434 0.0
C3399 C 0.77015 0.83543 0.23487 0.0
C3400 C 0.77665 0.83014 0.24213 0.0
C3401 C 0.79007 0.80438 0.26269 0.0
C3402 C 0.78619 0.81457 0.25569 0.0
H3403 H 0.80813 0.87425 0.22016 0.0
H3404 H 0.81802 0.86991 0.23247 0.0
H3405 H 0.73711 0.83128 0.24666 0.0
H3406 H 0.79004 0.82158 0.27988 0.0
H3407 H 0.7841 0.83899 0.26833 0.0
C3408 C 0.17748 0.93885 0.22144 0.0
C3409 C 0.18718 0.9591 0.21569 0.0
C3410 C 0.18241 0.95076 0.22821 0.0
C3411 C 0.23438 0.01845 0.23845 0.0
H3412 H 0.1672 0.98737 0.25197 0.0
C3413 C 0.2533 0.07062 0.26614 0.0
C3414 C 0.23734 0.05004 0.27163 0.0
C3415 C 0.24642 0.06051 0.25922 0.0
C3416 C 0.18636 0.99601 0.2483 0.0
H3417 H 0.2097 0.00749 0.21245 0.0
H3418 H 0.21894 0.0284 0.22434 0.0
H3419 H 0.15645 0.9673 0.24007 0.0
H3420 H 0.20227 0.00275 0.27428 0.0
H3421 H 0.19105 0.98464 0.26226 0.0
H3422 H 0.26464 0.04622 0.24668 0.0
C3423 C 0.20727 0.00336 0.22359 0.0
C3424 C 0.1801 0.98462 0.24148 0.0
C3425 C 0.20184 0.99143 0.21681 0.0
C3426 C 0.2146 0.01915 0.27012 0.0
C3427 C 0.20808 0.00888 0.26322 0.0
C3428 C 0.24079 0.02948 0.2453 0.0
C3429 C 0.19763 0.98312 0.22934 0.0
C3430 C 0.20406 0.99571 0.23651 0.0
C3431 C 0.2238 0.02944 0.25767 0.0
C3432 C 0.21687 0.01834 0.25033 0.0
H3433 H 0.16603 0.91382 0.22069 0.0
H3434 H 0.17495 0.93473 0.23258 0.0
H3435 H 0.2533 0.0271 0.23471 0.0
H3436 H 0.27075 0.09465 0.26719 0.0
H3437 H 0.25863 0.07717 0.2551 0.0
C3438 C 0.98329 0.78869 0.77186 0.0
C3439 C 0.95131 0.76847 0.77302 0.0
C3440 C 0.99494 0.79605 0.76507 0.0
C3441 C 0.97343 0.80079 0.74713 0.0
H3442 H 0.04264 0.78889 0.74209 0.0
C3443 C 0.01126 0.80457 0.71855 0.0
C3444 C 0.04305 0.81656 0.71714 0.0
C3445 C 0.00055 0.80028 0.72542 0.0
C3446 C 0.02369 0.79292 0.74342 0.0
H3447 H 0.90631 0.74065 0.76806 0.0
H3448 H 0.92668 0.75393 0.75615 0.0
H3449 H 0.02324 0.77915 0.75404 0.0
H3450 H 0.0888 0.83443 0.72176 0.0
H3451 H 0.0704 0.82799 0.73377 0.0
H3452 H 0.97414 0.81518 0.73659 0.0
C3453 C 0.94267 0.7639 0.7605 0.0
C3454 C 0.01252 0.78718 0.75026 0.0
C3455 C 0.93109 0.75615 0.76728 0.0
C3456 C 0.06409 0.82478 0.72272 0.0
C3457 C 0.05348 0.82093 0.72959 0.0
C3458 C 0.98489 0.80699 0.74031 0.0
C3459 C 0.97473 0.78369 0.75934 0.0
C3460 C 0.98715 0.79083 0.75215 0.0
C3461 C 0.02152 0.80831 0.73104 0.0
C3462 C 0.01001 0.80288 0.73835 0.0
H3463 H 0.99935 0.79833 0.77621 0.0
H3464 H 0.01973 0.81148 0.7643 0.0
H3465 H 0.95402 0.80408 0.74849 0.0
H3466 H 0.99455 0.79777 0.71432 0.0
H3467 H 0.97574 0.78998 0.72631 0.0
C3468 C 0.23632 0.17472 0.76837 0.0
C3469 C 0.22285 0.17945 0.77435 0.0
C3470 C 0.2283 0.18024 0.76175 0.0
C3471 C 0.19143 0.17695 0.74856 0.0
H3472 H 0.19939 0.25798 0.74525 0.0
C3473 C 0.15497 0.21027 0.72272 0.0
C3474 C 0.17851 0.23788 0.71963 0.0
C3475 C 0.15816 0.20253 0.72956 0.0
C3476 C 0.19698 0.23525 0.74612 0.0
H3477 H 0.19064 0.19371 0.77816 0.0
H3478 H 0.17702 0.2039 0.76656 0.0
H3479 H 0.20893 0.24461 0.75694 0.0
H3480 H 0.22379 0.27906 0.72141 0.0
H3481 H 0.22864 0.26598 0.73341 0.0
H3482 H 0.17955 0.16764 0.73773 0.0
C3483 C 0.19353 0.19568 0.767 0.0
C3484 C 0.20225 0.22755 0.75279 0.0
C3485 C 0.20116 0.18968 0.77361 0.0
C3486 C 0.2049 0.25792 0.72363 0.0
C3487 C 0.20781 0.25039 0.7305 0.0
C3488 C 0.18566 0.18445 0.74191 0.0
C3489 C 0.20709 0.19108 0.76102 0.0
C3490 C 0.19989 0.19849 0.75404 0.0
C3491 C 0.18466 0.22248 0.73349 0.0
C3492 C 0.18877 0.21381 0.74062 0.0
H3493 H 0.253 0.16671 0.76882 0.0
H3494 H 0.23922 0.17674 0.75721 0.0
H3495 H 0.18932 0.15434 0.74941 0.0
H3496 H 0.13402 0.19459 0.71986 0.0
H3497 H 0.13985 0.181 0.73179 0.0
C3498 C 0.788 0.02634 0.77171 0.0
C3499 C 0.81773 0.04832 0.77417 0.0
C3500 C 0.78428 0.01437 0.76497 0.0
C3501 C 0.8173 0.03367 0.74769 0.0
H3502 H 0.77052 0.94445 0.74425 0.0
C3503 C 0.7643 0.97826 0.72103 0.0
C3504 C 0.77073 0.95527 0.71863 0.0
C3505 C 0.77256 0.99003 0.72779 0.0
C3506 C 0.78379 0.96939 0.74515 0.0
H3507 H 0.86684 0.07523 0.77158 0.0
H3508 H 0.86017 0.05479 0.75965 0.0
H3509 H 0.78024 0.964 0.75627 0.0
H3510 H 0.79054 0.92632 0.72135 0.0
H3511 H 0.80432 0.94643 0.7333 0.0
H3512 H 0.81997 0.03908 0.73657 0.0
C3513 C 0.8399 0.04665 0.76298 0.0
C3514 C 0.78918 0.98053 0.752 0.0
C3515 C 0.84371 0.0582 0.76979 0.0
C3516 C 0.78548 0.94415 0.72309 0.0
C3517 C 0.79322 0.95551 0.72991 0.0
C3518 C 0.81141 0.02254 0.74084 0.0
C3519 C 0.81015 0.0246 0.76054 0.0
C3520 C 0.80584 0.01276 0.75331 0.0
C3521 C 0.78688 0.9786 0.73229 0.0
C3522 C 0.79447 0.99033 0.73952 0.0
H3523 H 0.76768 0.01825 0.77503 0.0
H3524 H 0.76109 0.99754 0.76317 0.0
H3525 H 0.83005 0.05863 0.74859 0.0
H3526 H 0.7531 0.98728 0.71765 0.0
H3527 H 0.76725 0.00767 0.72954 0.0
C3528 C 0.60616 0.49484 0.60064 0.0
C3529 C 0.61582 0.52095 0.60498 0.0
C3530 C 0.61613 0.49865 0.59371 0.0
C3531 C 0.67872 0.55021 0.58211 0.0
H3532 H 0.6174 0.51475 0.56726 0.0
C3533 C 0.70989 0.54713 0.55311 0.0
C3534 C 0.69742 0.56 0.54847 0.0
C3535 C 0.69994 0.54141 0.56004 0.0
C3536 C 0.63471 0.52469 0.57137 0.0
H3537 H 0.64381 0.57131 0.60559 0.0
H3538 H 0.66187 0.57794 0.59348 0.0
H3539 H 0.60019 0.50632 0.57946 0.0
H3540 H 0.6645 0.57644 0.54733 0.0
H3541 H 0.64651 0.56572 0.55946 0.0
H3542 H 0.71325 0.56835 0.57402 0.0
C3543 C 0.64638 0.55464 0.59543 0.0
C3544 C 0.62491 0.51974 0.57832 0.0
C3545 C 0.63594 0.55088 0.60232 0.0
C3546 C 0.67452 0.56664 0.55084 0.0
C3547 C 0.66415 0.56036 0.55773 0.0
C3548 C 0.68855 0.55465 0.57517 0.0
C3549 C 0.63639 0.52858 0.59107 0.0
C3550 C 0.64683 0.53272 0.58373 0.0
C3551 C 0.67694 0.54791 0.5624 0.0
C3552 C 0.66659 0.54217 0.56974 0.0
H3553 H 0.59053 0.47156 0.60259 0.0
H3554 H 0.60824 0.47824 0.59043 0.0
H3555 H 0.69601 0.56031 0.58621 0.0
H3556 H 0.72771 0.542 0.5514 0.0
H3557 H 0.71003 0.5317 0.56355 0.0
C3558 C 0.44532 0.07467 0.60359 0.0
C3559 C 0.47635 0.08758 0.60582 0.0
C3560 C 0.43861 0.07958 0.59679 0.0
C3561 C 0.47432 0.1308 0.5814 0.0
H3562 H 0.40227 0.06481 0.57193 0.0
C3563 C 0.4343 0.15182 0.55483 0.0
C3564 C 0.42314 0.12758 0.54992 0.0
C3565 C 0.4396 0.14658 0.56171 0.0
C3566 C 0.42268 0.08339 0.57446 0.0
H3567 H 0.52475 0.11535 0.60273 0.0
H3568 H 0.51318 0.12313 0.59076 0.0
H3569 H 0.41504 0.05599 0.58363 0.0
H3570 H 0.40861 0.07891 0.54829 0.0
H3571 H 0.41879 0.06983 0.56026 0.0
H3572 H 0.48286 0.15767 0.57211 0.0
C3573 C 0.49394 0.10993 0.5943 0.0
C3574 C 0.42975 0.0785 0.58123 0.0
C3575 C 0.50062 0.10538 0.60113 0.0
C3576 C 0.41694 0.09788 0.55201 0.0
C3577 C 0.42269 0.09271 0.55888 0.0
C3578 C 0.4675 0.13554 0.5746 0.0
C3579 C 0.46282 0.09715 0.59205 0.0
C3580 C 0.45559 0.10219 0.5848 0.0
C3581 C 0.43432 0.11708 0.5638 0.0
C3582 C 0.44151 0.11195 0.57105 0.0
H3583 H 0.4262 0.0612 0.60714 0.0
H3584 H 0.41441 0.06995 0.59531 0.0
H3585 H 0.49416 0.14975 0.58401 0.0
H3586 H 0.43891 0.17486 0.55334 0.0
H3587 H 0.44783 0.1657 0.56539 0.0
C3588 C 0.90563 0.3959 0.6014 0.0
C3589 C 0.89419 0.37597 0.6072 0.0
C3590 C 0.89905 0.38366 0.59465 0.0
C3591 C 0.86546 0.35002 0.58116 0.0
H3592 H 0.88535 0.28518 0.57699 0.0
C3593 C 0.83729 0.28491 0.55475 0.0
C3594 C 0.86277 0.28471 0.55154 0.0
C3595 C 0.83927 0.29467 0.56166 0.0
C3596 C 0.87965 0.30322 0.5781 0.0
H3597 H 0.86692 0.32781 0.61054 0.0
H3598 H 0.85581 0.30634 0.5987 0.0
H3599 H 0.89154 0.30526 0.58891 0.0
H3600 H 0.91028 0.29451 0.55316 0.0
H3601 H 0.9132 0.3105 0.56529 0.0
H3602 H 0.85363 0.348 0.57035 0.0
C3603 C 0.86963 0.33138 0.59939 0.0
C3604 C 0.88298 0.31453 0.58491 0.0
C3605 C 0.87579 0.34365 0.60614 0.0
C3606 C 0.89 0.29382 0.55548 0.0
C3607 C 0.89178 0.30313 0.56241 0.0
C3608 C 0.86166 0.33835 0.57438 0.0
C3609 C 0.88137 0.35128 0.5936 0.0
C3610 C 0.87623 0.33825 0.58647 0.0
C3611 C 0.86656 0.30393 0.56554 0.0
C3612 C 0.86905 0.3151 0.57278 0.0
H3613 H 0.91976 0.42092 0.6021 0.0
H3614 H 0.90851 0.39944 0.59025 0.0
H3615 H 0.86 0.36823 0.58226 0.0
H3616 H 0.81571 0.27741 0.55195 0.0
H3617 H 0.81939 0.29477 0.56399 0.0
C3618 C 0.74788 0.15572 0.05878 0.0
C3619 C 0.74268 0.17451 0.0541 0.0
C3620 C 0.73737 0.15212 0.06566 0.0
C3621 C 0.67669 0.15462 0.07601 0.0
H3622 H 0.72297 0.14908 0.09174 0.0
C3623 C 0.61861 0.09881 0.10223 0.0
C3624 C 0.63462 0.11406 0.10835 0.0
C3625 C 0.6329 0.10877 0.09573 0.0
C3626 C 0.70987 0.15084 0.08741 0.0
H3627 H 0.724 0.20571 0.05309 0.0
H3628 H 0.70547 0.19925 0.06511 0.0
H3629 H 0.7477 0.16375 0.08028 0.0
H3630 H 0.67821 0.15146 0.11246 0.0
H3631 H 0.70304 0.16899 0.10108 0.0
H3632 H 0.63883 0.14157 0.08313 0.0
C3633 C 0.71726 0.18694 0.06341 0.0
C3634 C 0.72393 0.15898 0.08085 0.0
C3635 C 0.72785 0.19062 0.05653 0.0
C3636 C 0.66517 0.13947 0.10782 0.0
C3637 C 0.6795 0.14931 0.10132 0.0
C3638 C 0.66258 0.14633 0.08257 0.0
C3639 C 0.72138 0.16718 0.068 0.0
C3640 C 0.70739 0.1607 0.07507 0.0
C3641 C 0.66353 0.13404 0.09521 0.0
C3642 C 0.67893 0.14408 0.08832 0.0
H3643 H 0.75884 0.14265 0.05705 0.0
H3644 H 0.74058 0.13645 0.06906 0.0
H3645 H 0.66323 0.15542 0.07165 0.0
H3646 H 0.59498 0.0793 0.10248 0.0
H3647 H 0.62013 0.09635 0.0911 0.0
C3648 C 0.84406 0.57732 0.05637 0.0
C3649 C 0.85179 0.56483 0.05065 0.0
C3650 C 0.84912 0.5707 0.06316 0.0
C3651 C 0.86576 0.51674 0.07342 0.0
H3652 H 0.89258 0.58193 0.08738 0.0
C3653 C 0.91696 0.51341 0.10038 0.0
C3654 C 0.90333 0.51968 0.10612 0.0
C3655 C 0.90959 0.51776 0.0936 0.0
C3656 C 0.88491 0.56349 0.08354 0.0
H3657 H 0.871 0.53591 0.04747 0.0
H3658 H 0.881 0.52521 0.05932 0.0
H3659 H 0.88218 0.59197 0.07553 0.0
H3660 H 0.87163 0.53558 0.10933 0.0
H3661 H 0.8592 0.54381 0.09743 0.0
H3662 H 0.86969 0.48876 0.08146 0.0
C3663 C 0.87014 0.53933 0.05861 0.0
C3664 C 0.87876 0.56911 0.07675 0.0
C3665 C 0.86459 0.54555 0.05182 0.0
C3666 C 0.88228 0.53042 0.10498 0.0
C3667 C 0.87532 0.53528 0.0982 0.0
C3668 C 0.87242 0.51133 0.08019 0.0
C3669 C 0.86253 0.55187 0.06437 0.0
C3670 C 0.86899 0.54578 0.07161 0.0
C3671 C 0.88891 0.52897 0.09246 0.0
C3672 C 0.88192 0.53462 0.0853 0.0
H3673 H 0.83382 0.59197 0.05558 0.0
H3674 H 0.84231 0.58021 0.06746 0.0
H3675 H 0.85776 0.49802 0.06964 0.0
H3676 H 0.93315 0.50496 0.10115 0.0
H3677 H 0.92046 0.5129 0.08924 0.0
C3678 C 0.46202 0.28237 0.05241 0.0
C3679 C 0.43503 0.27867 0.04908 0.0
C3680 C 0.46872 0.293 0.0593 0.0
C3681 C 0.48502 0.3353 0.07219 0.0
H3682 H 0.41902 0.29906 0.086 0.0
C3683 C 0.50662 0.37071 0.1013 0.0
C3684 C 0.48323 0.3737 0.10477 0.0
C3685 C 0.50143 0.35792 0.0946 0.0
C3686 C 0.43763 0.3097 0.08219 0.0
H3687 H 0.3943 0.28391 0.05038 0.0
H3688 H 0.40564 0.30164 0.06243 0.0
H3689 H 0.40871 0.27914 0.07409 0.0
H3690 H 0.43585 0.36515 0.10393 0.0
H3691 H 0.42729 0.34411 0.09219 0.0
H3692 H 0.51374 0.36648 0.08022 0.0
C3693 C 0.42144 0.29606 0.05971 0.0
C3694 C 0.43172 0.29818 0.07539 0.0
C3695 C 0.41491 0.28578 0.05282 0.0
C3696 C 0.45457 0.36363 0.10138 0.0
C3697 C 0.44947 0.35108 0.09468 0.0
C3698 C 0.49087 0.34706 0.07899 0.0
C3699 C 0.4484 0.2998 0.06302 0.0
C3700 C 0.45527 0.31104 0.07031 0.0
C3701 C 0.47278 0.34795 0.09121 0.0
C3702 C 0.46714 0.33459 0.08406 0.0
H3703 H 0.47781 0.27671 0.04973 0.0
H3704 H 0.48955 0.29545 0.06176 0.0
H3705 H 0.5035 0.3458 0.06835 0.0
H3706 H 0.5291 0.37853 0.10373 0.0
H3707 H 0.51979 0.35559 0.09211 0.0
C3708 C 0.31967 0.85278 0.93798 0.0
C3709 C 0.28785 0.84291 0.93877 0.0
C3710 C 0.33273 0.85708 0.93134 0.0
C3711 C 0.35495 0.88615 0.91689 0.0
H3712 H 0.31574 0.82468 0.90219 0.0
C3713 C 0.3808 0.91438 0.8877 0.0
C3714 C 0.38679 0.89408 0.88371 0.0
C3715 C 0.37036 0.90703 0.89457 0.0
C3716 C 0.32702 0.84191 0.90627 0.0
H3717 H 0.2445 0.82878 0.93329 0.0
H3718 H 0.26733 0.83597 0.92164 0.0
H3719 H 0.29389 0.81283 0.914 0.0
H3720 H 0.38678 0.85018 0.88391 0.0
H3721 H 0.36746 0.83694 0.89586 0.0
H3722 H 0.38758 0.91554 0.90913 0.0
C3723 C 0.28212 0.84048 0.92616 0.0
C3724 C 0.31445 0.83523 0.91299 0.0
C3725 C 0.26914 0.83662 0.93281 0.0
C3726 C 0.38195 0.86615 0.88677 0.0
C3727 C 0.37104 0.85859 0.89362 0.0
C3728 C 0.36723 0.89299 0.91016 0.0
C3729 C 0.3141 0.85113 0.92537 0.0
C3730 C 0.32821 0.85738 0.91835 0.0
C3731 C 0.36523 0.87902 0.89757 0.0
C3732 C 0.35325 0.87102 0.90478 0.0
H3733 H 0.3346 0.85796 0.9425 0.0
H3734 H 0.35743 0.86518 0.93085 0.0
H3735 H 0.36584 0.90369 0.92093 0.0
H3736 H 0.38355 0.93573 0.88548 0.0
H3737 H 0.3656 0.92295 0.89748 0.0
C3738 C 0.08032 0.46048 0.88925 0.0
C3739 C 0.10109 0.48693 0.88536 0.0
C3740 C 0.08753 0.45643 0.89606 0.0
C3741 C 0.15222 0.47575 0.90779 0.0
H3742 H 0.09066 0.45418 0.92244 0.0
C3743 C 0.14222 0.46035 0.93952 0.0
C3744 C 0.15204 0.43845 0.94049 0.0
C3745 C 0.13749 0.46815 0.93282 0.0
C3746 C 0.10812 0.46036 0.9184 0.0
H3747 H 0.14577 0.52995 0.88567 0.0
H3748 H 0.15872 0.52219 0.89752 0.0
H3749 H 0.07925 0.46447 0.91064 0.0
H3750 H 0.16537 0.4081 0.93525 0.0
H3751 H 0.15741 0.42205 0.92347 0.0
H3752 H 0.18083 0.47101 0.91554 0.0
C3753 C 0.13682 0.50476 0.89525 0.0
C3754 C 0.10152 0.46604 0.91166 0.0
C3755 C 0.12942 0.50908 0.88845 0.0
C3756 C 0.15762 0.42491 0.93463 0.0
C3757 C 0.15331 0.43305 0.92791 0.0
C3758 C 0.15864 0.4696 0.91451 0.0
C3759 C 0.11586 0.47845 0.89911 0.0
C3760 C 0.12346 0.47367 0.9063 0.0
C3761 C 0.14288 0.45449 0.92696 0.0
C3762 C 0.1366 0.46179 0.91987 0.0
H3763 H 0.05865 0.44253 0.887 0.0
H3764 H 0.07119 0.43571 0.89891 0.0
H3765 H 0.16941 0.48141 0.90372 0.0
H3766 H 0.13754 0.47094 0.94396 0.0
H3767 H 0.12959 0.48486 0.93221 0.0
C3768 C 0.57417 0.69928 0.93624 0.0
C3769 C 0.55474 0.7079 0.93979 0.0
C3770 C 0.56646 0.68641 0.92957 0.0
C3771 C 0.50173 0.64334 0.91758 0.0
H3772 H 0.56505 0.6798 0.90317 0.0
C3773 C 0.51324 0.63933 0.88588 0.0
C3774 C 0.50151 0.60735 0.88473 0.0
C3775 C 0.51803 0.65115 0.89265 0.0
C3776 C 0.54713 0.66949 0.90714 0.0
H3777 H 0.51171 0.7094 0.93906 0.0
H3778 H 0.49788 0.686 0.92746 0.0
H3779 H 0.57697 0.70112 0.91499 0.0
H3780 H 0.48465 0.56246 0.88972 0.0
H3781 H 0.49268 0.58318 0.90163 0.0
H3782 H 0.47204 0.61141 0.90972 0.0
C3783 C 0.51912 0.68938 0.92989 0.0
C3784 C 0.55401 0.68151 0.9139 0.0
C3785 C 0.52703 0.70268 0.93654 0.0
C3786 C 0.49388 0.58724 0.89048 0.0
C3787 C 0.49826 0.59903 0.89727 0.0
C3788 C 0.49499 0.63097 0.91083 0.0
C3789 C 0.53894 0.68143 0.92632 0.0
C3790 C 0.53137 0.66858 0.91918 0.0
C3791 C 0.51082 0.63115 0.89841 0.0
C3792 C 0.51763 0.64405 0.90556 0.0
H3793 H 0.59529 0.70222 0.93864 0.0
H3794 H 0.58191 0.68006 0.92696 0.0
H3795 H 0.48396 0.6329 0.92158 0.0
H3796 H 0.51954 0.65535 0.88153 0.0
H3797 H 0.52757 0.67599 0.8934 0.0
C3798 C 0.39017 0.48403 0.39018 0.0
C3799 C 0.36863 0.47553 0.3847 0.0
C3800 C 0.38028 0.48104 0.3971 0.0
C3801 C 0.31338 0.46937 0.40815 0.0
H3802 H 0.35306 0.44253 0.42176 0.0
C3803 C 0.26563 0.42531 0.43601 0.0
C3804 C 0.2876 0.43829 0.44143 0.0
C3805 C 0.27522 0.43139 0.42905 0.0
C3806 C 0.34195 0.45026 0.41802 0.0
H3807 H 0.31998 0.45728 0.3821 0.0
H3808 H 0.30239 0.45103 0.39418 0.0
H3809 H 0.37025 0.44988 0.40966 0.0
H3810 H 0.33669 0.46769 0.44384 0.0
H3811 H 0.35348 0.47799 0.43167 0.0
H3812 H 0.2844 0.46866 0.41655 0.0
C3813 C 0.32706 0.46082 0.39317 0.0
C3814 C 0.35187 0.45465 0.41109 0.0
C3815 C 0.33706 0.46425 0.38625 0.0
C3816 C 0.31926 0.45762 0.43977 0.0
C3817 C 0.32888 0.46332 0.43282 0.0
C3818 C 0.30316 0.46454 0.41507 0.0
C3819 C 0.34853 0.46902 0.39869 0.0
C3820 C 0.33784 0.46441 0.40607 0.0
C3821 C 0.30698 0.45011 0.4274 0.0
C3822 C 0.31748 0.4551 0.42006 0.0
H3823 H 0.41472 0.49318 0.38911 0.0
H3824 H 0.3976 0.48828 0.40119 0.0
H3825 H 0.30234 0.47735 0.40445 0.0
H3826 H 0.24107 0.41044 0.43717 0.0
H3827 H 0.25793 0.42083 0.42496 0.0
C3828 C 0.53731 0.88352 0.3857 0.0
C3829 C 0.52677 0.90435 0.38406 0.0
C3830 C 0.54188 0.87825 0.39264 0.0
C3831 C 0.56944 0.89133 0.40743 0.0
H3832 H 0.50391 0.86929 0.42112 0.0
C3833 C 0.58912 0.89447 0.43717 0.0
C3834 C 0.56839 0.86727 0.44085 0.0
C3835 C 0.58361 0.89815 0.43019 0.0
C3836 C 0.52232 0.87534 0.41734 0.0
H3837 H 0.51214 0.93553 0.38833 0.0
H3838 H 0.51962 0.92583 0.40052 0.0
H3839 H 0.49482 0.87729 0.40892 0.0
H3840 H 0.52561 0.82254 0.43999 0.0
H3841 H 0.51551 0.82968 0.42786 0.0
H3842 H 0.59715 0.88996 0.41587 0.0
C3843 C 0.52453 0.91382 0.39643 0.0
C3844 C 0.51721 0.88008 0.41039 0.0
C3845 C 0.52046 0.9195 0.38948 0.0
C3846 C 0.5418 0.84403 0.43738 0.0
C3847 C 0.53605 0.84798 0.43042 0.0
C3848 C 0.57474 0.88713 0.41439 0.0
C3849 C 0.53548 0.89332 0.39805 0.0
C3850 C 0.54072 0.88806 0.40539 0.0
C3851 C 0.55701 0.87499 0.42677 0.0
C3852 C 0.55122 0.87908 0.4194 0.0
H3853 H 0.54246 0.87169 0.3816 0.0
H3854 H 0.55022 0.86223 0.39378 0.0
H3855 H 0.58796 0.89764 0.40366 0.0
H3856 H 0.60946 0.91317 0.43969 0.0
H3857 H 0.59991 0.91936 0.42749 0.0
C3858 C 0.16404 0.75876 0.43226 0.0
C3859 C 0.14044 0.74344 0.43727 0.0
C3860 C 0.15931 0.74817 0.42536 0.0
C3861 C 0.09714 0.69676 0.41288 0.0
H3862 H 0.16437 0.69212 0.40362 0.0
C3863 C 0.07677 0.61922 0.3889 0.0
C3864 C 0.09713 0.63302 0.38323 0.0
C3865 C 0.08304 0.63452 0.39532 0.0
C3866 C 0.14551 0.69357 0.40612 0.0
H3867 H 0.09352 0.705 0.43898 0.0
H3868 H 0.08541 0.68638 0.42703 0.0
H3869 H 0.17332 0.71672 0.41508 0.0
H3870 H 0.14026 0.67368 0.3799 0.0
H3871 H 0.1515 0.69996 0.39118 0.0
H3872 H 0.06912 0.67276 0.40401 0.0
C3873 C 0.10727 0.70702 0.42835 0.0
C3874 C 0.15064 0.70777 0.41267 0.0
C3875 C 0.11192 0.71769 0.43521 0.0
C3876 C 0.12432 0.66214 0.38418 0.0
C3877 C 0.13072 0.67729 0.39063 0.0
C3878 C 0.09195 0.68233 0.40638 0.0
C3879 C 0.13098 0.72194 0.42335 0.0
C3880 C 0.12638 0.70918 0.41616 0.0
C3881 C 0.10993 0.66379 0.39622 0.0
C3882 C 0.11597 0.68027 0.40298 0.0
H3883 H 0.18617 0.77883 0.43369 0.0
H3884 H 0.17789 0.76045 0.42161 0.0
H3885 H 0.07813 0.69801 0.41536 0.0
H3886 H 0.05596 0.59657 0.3884 0.0
H3887 H 0.0669 0.62336 0.39959 0.0
loop_
_geom_bond_atom_site_label_1
_geom_bond_atom_site_label_2
_geom_bond_distance
_geom_bond_site_symmetry_2
_ccdc_geom_bond_type
C0 C1 1.351 . S
C0 N3 1.368 . S
C0 H5 0.931 . S
C1 C0 1.351 . S
C1 N2 1.373 . S
C1 H29 0.930 . S
N2 C1 1.373 . S
N2 C4 1.340 . S
N3 C0 1.368 . S
N3 C4 1.321 . S
N3 Co6 2.135 . S
C4 N2 1.340 . S
C4 N3 1.321 . S
C4 H28 0.930 . S
H5 C0 0.931 . S
Co6 N3 2.135 . S
Co6 N9 2.121 . S
Co6 O14 2.055 . S
Co6 O17 2.039 . S
Co6 N20 2.140 . S
C7 O8 1.227 . S
C7 O17 1.265 . S
O8 C7 1.227 . S
N9 Co6 2.121 . S
N9 C11 1.375 . S
N9 C12 1.313 . S
C10 C11 1.338 . S
C10 N13 1.377 . S
C10 H30 0.930 . S
C11 N9 1.375 . S
C11 C10 1.338 . S
C11 H15 0.931 . S
C12 N9 1.313 . S
C12 N13 1.344 . S
C12 H16 0.930 . S
N13 C10 1.377 . S
N13 C12 1.344 . S
O14 Co6 2.055 . S
O14 C18 1.253 . S
H15 C11 0.931 . S
H16 C12 0.930 . S
O17 Co6 2.039 . S
O17 C7 1.265 . S
C18 O14 1.253 . S
C18 O19 1.227 . S
O19 C18 1.227 . S
N20 Co6 2.140 . S
N20 C23 1.346 . S
N20 C24 1.345 . S
C21 C22 1.387 . S
C21 C25 1.391 . S
C22 C21 1.387 . S
C22 C23 1.369 . S
C22 H31 0.929 . S
C23 N20 1.346 . S
C23 C22 1.369 . S
C23 H26 0.928 . S
C24 N20 1.345 . S
C24 C25 1.371 . S
C24 H27 0.931 . S
C25 C21 1.391 . S
C25 C24 1.371 . S
C25 H32 0.930 . S
H26 C23 0.928 . S
H27 C24 0.931 . S
H28 C4 0.930 . S
H29 C1 0.930 . S
H30 C10 0.930 . S
H31 C22 0.929 . S
H32 C25 0.930 . S
C33 C34 1.351 . S
C33 N36 1.368 . S
C33 H38 0.931 . S
C34 C33 1.351 . S
C34 N35 1.373 . S
C34 H62 0.930 . S
N35 C34 1.373 . S
N35 C37 1.340 . S
N36 C33 1.368 . S
N36 C37 1.321 . S
N36 Co39 2.135 . S
C37 N35 1.340 . S
C37 N36 1.321 . S
C37 H61 0.930 . S
H38 C33 0.931 . S
Co39 N36 2.135 . S
Co39 N42 2.121 . S
Co39 O47 2.055 . S
Co39 O50 2.039 . S
Co39 N53 2.140 . S
C40 O41 1.227 . S
C40 O50 1.265 . S
O41 C40 1.227 . S
N42 Co39 2.121 . S
N42 C44 1.375 . S
N42 C45 1.313 . S
C43 C44 1.338 . S
C43 N46 1.377 . S
C43 H63 0.930 . S
C44 N42 1.375 . S
C44 C43 1.338 . S
C44 H48 0.931 . S
C45 N42 1.313 . S
C45 N46 1.344 . S
C45 H49 0.930 . S
N46 C43 1.377 . S
N46 C45 1.344 . S
O47 Co39 2.055 . S
O47 C51 1.253 . S
H48 C44 0.931 . S
H49 C45 0.930 . S
O50 Co39 2.039 . S
O50 C40 1.265 . S
C51 O47 1.253 . S
C51 O52 1.227 . S
O52 C51 1.227 . S
N53 Co39 2.140 . S
N53 C56 1.346 . S
N53 C57 1.345 . S
C54 C55 1.387 . S
C54 C58 1.391 . S
C55 C54 1.387 . S
C55 C56 1.369 . S
C55 H64 0.929 . S
C56 N53 1.346 . S
C56 C55 1.369 . S
C56 H59 0.928 . S
C57 N53 1.345 . S
C57 C58 1.371 . S
C57 H60 0.931 . S
C58 C54 1.391 . S
C58 C57 1.371 . S
C58 H65 0.930 . S
H59 C56 0.928 . S
H60 C57 0.931 . S
H61 C37 0.930 . S
H62 C34 0.930 . S
H63 C43 0.930 . S
H64 C55 0.929 . S
H65 C58 0.930 . S
C66 C67 1.351 . S
C66 N69 1.368 . S
C66 H71 0.931 . S
C67 C66 1.351 . S
C67 N68 1.373 . S
C67 H95 0.930 . S
N68 C67 1.373 . S
N68 C70 1.340 . S
N69 C66 1.368 . S
N69 C70 1.321 . S
N69 Co72 2.135 . S
C70 N68 1.340 . S
C70 N69 1.321 . S
C70 H94 0.930 . S
H71 C66 0.931 . S
Co72 N69 2.135 . S
Co72 N75 2.121 . S
Co72 O80 2.055 . S
Co72 O83 2.039 . S
Co72 N86 2.140 . S
C73 O74 1.227 . S
C73 O83 1.265 . S
O74 C73 1.227 . S
N75 Co72 2.121 . S
N75 C77 1.375 . S
N75 C78 1.313 . S
C76 C77 1.338 . S
C76 N79 1.377 . S
C76 H96 0.930 . S
C77 N75 1.375 . S
C77 C76 1.338 . S
C77 H81 0.931 . S
C78 N75 1.313 . S
C78 N79 1.344 . S
C78 H82 0.930 . S
N79 C76 1.377 . S
N79 C78 1.344 . S
O80 Co72 2.055 . S
O80 C84 1.253 . S
H81 C77 0.931 . S
H82 C78 0.930 . S
O83 Co72 2.039 . S
O83 C73 1.265 . S
C84 O80 1.253 . S
C84 O85 1.227 . S
O85 C84 1.227 . S
N86 Co72 2.140 . S
N86 C89 1.346 . S
N86 C90 1.345 . S
C87 C88 1.387 . S
C87 C91 1.391 . S
C88 C87 1.387 . S
C88 C89 1.369 . S
C88 H97 0.929 . S
C89 N86 1.346 . S
C89 C88 1.369 . S
C89 H92 0.928 . S
C90 N86 1.345 . S
C90 C91 1.371 . S
C90 H93 0.931 . S
C91 C87 1.391 . S
C91 C90 1.371 . S
C91 H98 0.930 . S
H92 C89 0.928 . S
H93 C90 0.931 . S
H94 C70 0.930 . S
H95 C67 0.930 . S
H96 C76 0.930 . S
H97 C88 0.929 . S
H98 C91 0.930 . S
C99 C100 1.351 . S
C99 N102 1.368 . S
C99 H104 0.931 . S
C100 C99 1.351 . S
C100 N101 1.373 . S
C100 H128 0.930 . S
N101 C100 1.373 . S
N101 C103 1.340 . S
N102 C99 1.368 . S
N102 C103 1.321 . S
N102 Co105 2.135 . S
C103 N101 1.340 . S
C103 N102 1.321 . S
C103 H127 0.930 . S
H104 C99 0.931 . S
Co105 N102 2.135 . S
Co105 N108 2.121 . S
Co105 O113 2.055 . S
Co105 O116 2.039 . S
Co105 N119 2.140 . S
C106 O107 1.227 . S
C106 O116 1.265 . S
O107 C106 1.227 . S
N108 Co105 2.121 . S
N108 C110 1.375 . S
N108 C111 1.313 . S
C109 C110 1.338 . S
C109 N112 1.377 . S
C109 H129 0.930 . S
C110 N108 1.375 . S
C110 C109 1.338 . S
C110 H114 0.931 . S
C111 N108 1.313 . S
C111 N112 1.344 . S
C111 H115 0.930 . S
N112 C109 1.377 . S
N112 C111 1.344 . S
O113 Co105 2.055 . S
O113 C117 1.253 . S
H114 C110 0.931 . S
H115 C111 0.930 . S
O116 Co105 2.039 . S
O116 C106 1.265 . S
C117 O113 1.253 . S
C117 O118 1.227 . S
O118 C117 1.227 . S
N119 Co105 2.140 . S
N119 C122 1.346 . S
N119 C123 1.345 . S
C120 C121 1.387 . S
C120 C124 1.391 . S
C121 C120 1.387 . S
C121 C122 1.369 . S
C121 H130 0.929 . S
C122 N119 1.346 . S
C122 C121 1.369 . S
C122 H125 0.928 . S
C123 N119 1.345 . S
C123 C124 1.371 . S
C123 H126 0.931 . S
C124 C120 1.391 . S
C124 C123 1.371 . S
C124 H131 0.930 . S
H125 C122 0.928 . S
H126 C123 0.931 . S
H127 C103 0.930 . S
H128 C100 0.930 . S
H129 C109 0.930 . S
H130 C121 0.929 . S
H131 C124 0.930 . S
C132 C133 1.351 . S
C132 N135 1.368 . S
C132 H137 0.931 . S
C133 C132 1.351 . S
C133 N134 1.373 . S
C133 H161 0.930 . S
N134 C133 1.373 . S
N134 C136 1.340 . S
N135 C132 1.368 . S
N135 C136 1.321 . S
N135 Co138 2.135 . S
C136 N134 1.340 . S
C136 N135 1.321 . S
C136 H160 0.930 . S
H137 C132 0.931 . S
Co138 N135 2.135 . S
Co138 N141 2.121 . S
Co138 O146 2.055 . S
Co138 O149 2.039 . S
Co138 N152 2.140 . S
C139 O140 1.227 . S
C139 O149 1.265 . S
O140 C139 1.227 . S
N141 Co138 2.121 . S
N141 C143 1.375 . S
N141 C144 1.313 . S
C142 C143 1.338 . S
C142 N145 1.377 . S
C142 H162 0.930 . S
C143 N141 1.375 . S
C143 C142 1.338 . S
C143 H147 0.931 . S
C144 N141 1.313 . S
C144 N145 1.344 . S
C144 H148 0.930 . S
N145 C142 1.377 . S
N145 C144 1.344 . S
O146 Co138 2.055 . S
O146 C150 1.253 . S
H147 C143 0.931 . S
H148 C144 0.930 . S
O149 Co138 2.039 . S
O149 C139 1.265 . S
C150 O146 1.253 . S
C150 O151 1.227 . S
O151 C150 1.227 . S
N152 Co138 2.140 . S
N152 C155 1.346 . S
N152 C156 1.345 . S
C153 C154 1.387 . S
C153 C157 1.391 . S
C154 C153 1.387 . S
C154 C155 1.369 . S
C154 H163 0.929 . S
C155 N152 1.346 . S
C155 C154 1.369 . S
C155 H158 0.928 . S
C156 N152 1.345 . S
C156 C157 1.371 . S
C156 H159 0.931 . S
C157 C153 1.391 . S
C157 C156 1.371 . S
C157 H164 0.930 . S
H158 C155 0.928 . S
H159 C156 0.931 . S
H160 C136 0.930 . S
H161 C133 0.930 . S
H162 C142 0.930 . S
H163 C154 0.929 . S
H164 C157 0.930 . S
C165 C166 1.351 . S
C165 N168 1.368 . S
C165 H170 0.931 . S
C166 C165 1.351 . S
C166 N167 1.373 . S
C166 H194 0.930 . S
N167 C166 1.373 . S
N167 C169 1.340 . S
N168 C165 1.368 . S
N168 C169 1.321 . S
N168 Co171 2.135 . S
C169 N167 1.340 . S
C169 N168 1.321 . S
C169 H193 0.930 . S
H170 C165 0.931 . S
Co171 N168 2.135 . S
Co171 N174 2.121 . S
Co171 O179 2.055 . S
Co171 O182 2.039 . S
Co171 N185 2.140 . S
C172 O173 1.227 . S
C172 O182 1.265 . S
O173 C172 1.227 . S
N174 Co171 2.121 . S
N174 C176 1.375 . S
N174 C177 1.313 . S
C175 C176 1.338 . S
C175 N178 1.377 . S
C175 H195 0.930 . S
C176 N174 1.375 . S
C176 C175 1.338 . S
C176 H180 0.931 . S
C177 N174 1.313 . S
C177 N178 1.344 . S
C177 H181 0.930 . S
N178 C175 1.377 . S
N178 C177 1.344 . S
O179 Co171 2.055 . S
O179 C183 1.253 . S
H180 C176 0.931 . S
H181 C177 0.930 . S
O182 Co171 2.039 . S
O182 C172 1.265 . S
C183 O179 1.253 . S
C183 O184 1.227 . S
O184 C183 1.227 . S
N185 Co171 2.140 . S
N185 C188 1.346 . S
N185 C189 1.345 . S
C186 C187 1.387 . S
C186 C190 1.391 . S
C187 C186 1.387 . S
C187 C188 1.369 . S
C187 H196 0.929 . S
C188 N185 1.346 . S
C188 C187 1.369 . S
C188 H191 0.928 . S
C189 N185 1.345 . S
C189 C190 1.371 . S
C189 H192 0.931 . S
C190 C186 1.391 . S
C190 C189 1.371 . S
C190 H197 0.930 . S
H191 C188 0.928 . S
H192 C189 0.931 . S
H193 C169 0.930 . S
H194 C166 0.930 . S
H195 C175 0.930 . S
H196 C187 0.929 . S
H197 C190 0.930 . S
C198 C199 1.351 . S
C198 N201 1.368 . S
C198 H203 0.931 . S
C199 C198 1.351 . S
C199 N200 1.373 . S
C199 H227 0.930 . S
N200 C199 1.373 . S
N200 C202 1.340 . S
N201 C198 1.368 . S
N201 C202 1.321 . S
N201 Co204 2.135 . S
C202 N200 1.340 . S
C202 N201 1.321 . S
C202 H226 0.930 . S
H203 C198 0.931 . S
Co204 N201 2.135 . S
Co204 N207 2.121 . S
Co204 O212 2.055 . S
Co204 O215 2.039 . S
Co204 N218 2.140 . S
C205 O206 1.227 . S
C205 O215 1.265 . S
O206 C205 1.227 . S
N207 Co204 2.121 . S
N207 C209 1.375 . S
N207 C210 1.313 . S
C208 C209 1.338 . S
C208 N211 1.377 . S
C208 H228 0.930 . S
C209 N207 1.375 . S
C209 C208 1.338 . S
C209 H213 0.931 . S
C210 N207 1.313 . S
C210 N211 1.344 . S
C210 H214 0.930 . S
N211 C208 1.377 . S
N211 C210 1.344 . S
O212 Co204 2.055 . S
O212 C216 1.253 . S
H213 C209 0.931 . S
H214 C210 0.930 . S
O215 Co204 2.039 . S
O215 C205 1.265 . S
C216 O212 1.253 . S
C216 O217 1.227 . S
O217 C216 1.227 . S
N218 Co204 2.140 . S
N218 C221 1.346 . S
N218 C222 1.345 . S
C219 C220 1.387 . S
C219 C223 1.391 . S
C220 C219 1.387 . S
C220 C221 1.369 . S
C220 H229 0.929 . S
C221 N218 1.346 . S
C221 C220 1.369 . S
C221 H224 0.928 . S
C222 N218 1.345 . S
C222 C223 1.371 . S
C222 H225 0.931 . S
C223 C219 1.391 . S
C223 C222 1.371 . S
C223 H230 0.930 . S
H224 C221 0.928 . S
H225 C222 0.931 . S
H226 C202 0.930 . S
H227 C199 0.930 . S
H228 C208 0.930 . S
H229 C220 0.929 . S
H230 C223 0.930 . S
C231 C232 1.351 . S
C231 N234 1.368 . S
C231 H236 0.931 . S
C232 C231 1.351 . S
C232 N233 1.373 . S
C232 H260 0.930 . S
N233 C232 1.373 . S
N233 C235 1.340 . S
N234 C231 1.368 . S
N234 C235 1.321 . S
N234 Co237 2.135 . S
C235 N233 1.340 . S
C235 N234 1.321 . S
C235 H259 0.930 . S
H236 C231 0.931 . S
Co237 N234 2.135 . S
Co237 N240 2.121 . S
Co237 O245 2.055 . S
Co237 O248 2.039 . S
Co237 N251 2.140 . S
C238 O239 1.227 . S
C238 O248 1.265 . S
O239 C238 1.227 . S
N240 Co237 2.121 . S
N240 C242 1.375 . S
N240 C243 1.313 . S
C241 C242 1.338 . S
C241 N244 1.377 . S
C241 H261 0.930 . S
C242 N240 1.375 . S
C242 C241 1.338 . S
C242 H246 0.931 . S
C243 N240 1.313 . S
C243 N244 1.344 . S
C243 H247 0.930 . S
N244 C241 1.377 . S
N244 C243 1.344 . S
O245 Co237 2.055 . S
O245 C249 1.253 . S
H246 C242 0.931 . S
H247 C243 0.930 . S
O248 Co237 2.039 . S
O248 C238 1.265 . S
C249 O245 1.253 . S
C249 O250 1.227 . S
O250 C249 1.227 . S
N251 Co237 2.140 . S
N251 C254 1.346 . S
N251 C255 1.345 . S
C252 C253 1.387 . S
C252 C256 1.391 . S
C253 C252 1.387 . S
C253 C254 1.369 . S
C253 H262 0.929 . S
C254 N251 1.346 . S
C254 C253 1.369 . S
C254 H257 0.928 . S
C255 N251 1.345 . S
C255 C256 1.371 . S
C255 H258 0.931 . S
C256 C252 1.391 . S
C256 C255 1.371 . S
C256 H263 0.930 . S
H257 C254 0.928 . S
H258 C255 0.931 . S
H259 C235 0.930 . S
H260 C232 0.930 . S
H261 C241 0.930 . S
H262 C253 0.929 . S
H263 C256 0.930 . S
C264 C265 1.351 . S
C264 N267 1.368 . S
C264 H269 0.931 . S
C265 C264 1.351 . S
C265 N266 1.373 . S
C265 H293 0.930 . S
N266 C265 1.373 . S
N266 C268 1.340 . S
N267 C264 1.368 . S
N267 C268 1.321 . S
N267 Co270 2.135 . S
C268 N266 1.340 . S
C268 N267 1.321 . S
C268 H292 0.930 . S
H269 C264 0.931 . S
Co270 N267 2.135 . S
Co270 N273 2.121 . S
Co270 O278 2.055 . S
Co270 O281 2.039 . S
Co270 N284 2.140 . S
C271 O272 1.227 . S
C271 O281 1.265 . S
O272 C271 1.227 . S
N273 Co270 2.121 . S
N273 C275 1.375 . S
N273 C276 1.313 . S
C274 C275 1.338 . S
C274 N277 1.377 . S
C274 H294 0.930 . S
C275 N273 1.375 . S
C275 C274 1.338 . S
C275 H279 0.931 . S
C276 N273 1.313 . S
C276 N277 1.344 . S
C276 H280 0.930 . S
N277 C274 1.377 . S
N277 C276 1.344 . S
O278 Co270 2.055 . S
O278 C282 1.253 . S
H279 C275 0.931 . S
H280 C276 0.930 . S
O281 Co270 2.039 . S
O281 C271 1.265 . S
C282 O278 1.253 . S
C282 O283 1.227 . S
O283 C282 1.227 . S
N284 Co270 2.140 . S
N284 C287 1.346 . S
N284 C288 1.345 . S
C285 C286 1.387 . S
C285 C289 1.391 . S
C286 C285 1.387 . S
C286 C287 1.369 . S
C286 H295 0.929 . S
C287 N284 1.346 . S
C287 C286 1.369 . S
C287 H290 0.928 . S
C288 N284 1.345 . S
C288 C289 1.371 . S
C288 H291 0.931 . S
C289 C285 1.391 . S
C289 C288 1.371 . S
C289 H296 0.930 . S
H290 C287 0.928 . S
H291 C288 0.931 . S
H292 C268 0.930 . S
H293 C265 0.930 . S
H294 C274 0.930 . S
H295 C286 0.929 . S
H296 C289 0.930 . S
C297 C298 1.351 . S
C297 N300 1.368 . S
C297 H302 0.931 . S
C298 C297 1.351 . S
C298 N299 1.373 . S
C298 H326 0.930 . S
N299 C298 1.373 . S
N299 C301 1.340 . S
N300 C297 1.368 . S
N300 C301 1.321 . S
N300 Co303 2.135 . S
C301 N299 1.340 . S
C301 N300 1.321 . S
C301 H325 0.930 . S
H302 C297 0.931 . S
Co303 N300 2.135 . S
Co303 N306 2.121 . S
Co303 O311 2.055 . S
Co303 O314 2.039 . S
Co303 N317 2.140 . S
C304 O305 1.227 . S
C304 O314 1.265 . S
O305 C304 1.227 . S
N306 Co303 2.121 . S
N306 C308 1.375 . S
N306 C309 1.313 . S
C307 C308 1.338 . S
C307 N310 1.377 . S
C307 H327 0.930 . S
C308 N306 1.375 . S
C308 C307 1.338 . S
C308 H312 0.931 . S
C309 N306 1.313 . S
C309 N310 1.344 . S
C309 H313 0.930 . S
N310 C307 1.377 . S
N310 C309 1.344 . S
O311 Co303 2.055 . S
O311 C315 1.253 . S
H312 C308 0.931 . S
H313 C309 0.930 . S
O314 Co303 2.039 . S
O314 C304 1.265 . S
C315 O311 1.253 . S
C315 O316 1.227 . S
O316 C315 1.227 . S
N317 Co303 2.140 . S
N317 C320 1.346 . S
N317 C321 1.345 . S
C318 C319 1.387 . S
C318 C322 1.391 . S
C319 C318 1.387 . S
C319 C320 1.369 . S
C319 H328 0.929 . S
C320 N317 1.346 . S
C320 C319 1.369 . S
C320 H323 0.928 . S
C321 N317 1.345 . S
C321 C322 1.371 . S
C321 H324 0.931 . S
C322 C318 1.391 . S
C322 C321 1.371 . S
C322 H329 0.930 . S
H323 C320 0.928 . S
H324 C321 0.931 . S
H325 C301 0.930 . S
H326 C298 0.930 . S
H327 C307 0.930 . S
H328 C319 0.929 . S
H329 C322 0.930 . S
C330 C331 1.351 . S
C330 N333 1.368 . S
C330 H335 0.931 . S
C331 C330 1.351 . S
C331 N332 1.373 . S
C331 H359 0.930 . S
N332 C331 1.373 . S
N332 C334 1.340 . S
N333 C330 1.368 . S
N333 C334 1.321 . S
N333 Co336 2.135 . S
C334 N332 1.340 . S
C334 N333 1.321 . S
C334 H358 0.930 . S
H335 C330 0.931 . S
Co336 N333 2.135 . S
Co336 N339 2.121 . S
Co336 O344 2.055 . S
Co336 O347 2.039 . S
Co336 N350 2.140 . S
C337 O338 1.227 . S
C337 O347 1.265 . S
O338 C337 1.227 . S
N339 Co336 2.121 . S
N339 C341 1.375 . S
N339 C342 1.313 . S
C340 C341 1.338 . S
C340 N343 1.377 . S
C340 H360 0.930 . S
C341 N339 1.375 . S
C341 C340 1.338 . S
C341 H345 0.931 . S
C342 N339 1.313 . S
C342 N343 1.344 . S
C342 H346 0.930 . S
N343 C340 1.377 . S
N343 C342 1.344 . S
O344 Co336 2.055 . S
O344 C348 1.253 . S
H345 C341 0.931 . S
H346 C342 0.930 . S
O347 Co336 2.039 . S
O347 C337 1.265 . S
C348 O344 1.253 . S
C348 O349 1.227 . S
O349 C348 1.227 . S
N350 Co336 2.140 . S
N350 C353 1.346 . S
N350 C354 1.345 . S
C351 C352 1.387 . S
C351 C355 1.391 . S
C352 C351 1.387 . S
C352 C353 1.369 . S
C352 H361 0.929 . S
C353 N350 1.346 . S
C353 C352 1.369 . S
C353 H356 0.928 . S
C354 N350 1.345 . S
C354 C355 1.371 . S
C354 H357 0.931 . S
C355 C351 1.391 . S
C355 C354 1.371 . S
C355 H362 0.930 . S
H356 C353 0.928 . S
H357 C354 0.931 . S
H358 C334 0.930 . S
H359 C331 0.930 . S
H360 C340 0.930 . S
H361 C352 0.929 . S
H362 C355 0.930 . S
C363 C364 1.351 . S
C363 N366 1.368 . S
C363 H368 0.931 . S
C364 C363 1.351 . S
C364 N365 1.373 . S
C364 H392 0.930 . S
N365 C364 1.373 . S
N365 C367 1.340 . S
N366 C363 1.368 . S
N366 C367 1.321 . S
N366 Co369 2.135 . S
C367 N365 1.340 . S
C367 N366 1.321 . S
C367 H391 0.930 . S
H368 C363 0.931 . S
Co369 N366 2.135 . S
Co369 N372 2.121 . S
Co369 O377 2.055 . S
Co369 O380 2.039 . S
Co369 N383 2.140 . S
C370 O371 1.227 . S
C370 O380 1.265 . S
O371 C370 1.227 . S
N372 Co369 2.121 . S
N372 C374 1.375 . S
N372 C375 1.313 . S
C373 C374 1.338 . S
C373 N376 1.377 . S
C373 H393 0.930 . S
C374 N372 1.375 . S
C374 C373 1.338 . S
C374 H378 0.931 . S
C375 N372 1.313 . S
C375 N376 1.344 . S
C375 H379 0.930 . S
N376 C373 1.377 . S
N376 C375 1.344 . S
O377 Co369 2.055 . S
O377 C381 1.253 . S
H378 C374 0.931 . S
H379 C375 0.930 . S
O380 Co369 2.039 . S
O380 C370 1.265 . S
C381 O377 1.253 . S
C381 O382 1.227 . S
O382 C381 1.227 . S
N383 Co369 2.140 . S
N383 C386 1.346 . S
N383 C387 1.345 . S
C384 C385 1.387 . S
C384 C388 1.391 . S
C385 C384 1.387 . S
C385 C386 1.369 . S
C385 H394 0.929 . S
C386 N383 1.346 . S
C386 C385 1.369 . S
C386 H389 0.928 . S
C387 N383 1.345 . S
C387 C388 1.371 . S
C387 H390 0.931 . S
C388 C384 1.391 . S
C388 C387 1.371 . S
C388 H395 0.930 . S
H389 C386 0.928 . S
H390 C387 0.931 . S
H391 C367 0.930 . S
H392 C364 0.930 . S
H393 C373 0.930 . S
H394 C385 0.929 . S
H395 C388 0.930 . S
C396 C397 1.351 . S
C396 N399 1.368 . S
C396 H401 0.931 . S
C397 C396 1.351 . S
C397 N398 1.373 . S
C397 H425 0.930 . S
N398 C397 1.373 . S
N398 C400 1.340 . S
N399 C396 1.368 . S
N399 C400 1.321 . S
N399 Co402 2.135 . S
C400 N398 1.340 . S
C400 N399 1.321 . S
C400 H424 0.930 . S
H401 C396 0.931 . S
Co402 N399 2.135 . S
Co402 N405 2.121 . S
Co402 O410 2.055 . S
Co402 O413 2.039 . S
Co402 N416 2.140 . S
C403 O404 1.227 . S
C403 O413 1.265 . S
O404 C403 1.227 . S
N405 Co402 2.121 . S
N405 C407 1.375 . S
N405 C408 1.313 . S
C406 C407 1.338 . S
C406 N409 1.377 . S
C406 H426 0.930 . S
C407 N405 1.375 . S
C407 C406 1.338 . S
C407 H411 0.931 . S
C408 N405 1.313 . S
C408 N409 1.344 . S
C408 H412 0.930 . S
N409 C406 1.377 . S
N409 C408 1.344 . S
O410 Co402 2.055 . S
O410 C414 1.253 . S
H411 C407 0.931 . S
H412 C408 0.930 . S
O413 Co402 2.039 . S
O413 C403 1.265 . S
C414 O410 1.253 . S
C414 O415 1.227 . S
O415 C414 1.227 . S
N416 Co402 2.140 . S
N416 C419 1.346 . S
N416 C420 1.345 . S
C417 C418 1.387 . S
C417 C421 1.391 . S
C418 C417 1.387 . S
C418 C419 1.369 . S
C418 H427 0.929 . S
C419 N416 1.346 . S
C419 C418 1.369 . S
C419 H422 0.928 . S
C420 N416 1.345 . S
C420 C421 1.371 . S
C420 H423 0.931 . S
C421 C417 1.391 . S
C421 C420 1.371 . S
C421 H428 0.930 . S
H422 C419 0.928 . S
H423 C420 0.931 . S
H424 C400 0.930 . S
H425 C397 0.930 . S
H426 C406 0.930 . S
H427 C418 0.929 . S
H428 C421 0.930 . S
C429 C430 1.351 . S
C429 N432 1.368 . S
C429 H434 0.931 . S
C430 C429 1.351 . S
C430 N431 1.373 . S
C430 H458 0.930 . S
N431 C430 1.373 . S
N431 C433 1.340 . S
N432 C429 1.368 . S
N432 C433 1.321 . S
N432 Co435 2.135 . S
C433 N431 1.340 . S
C433 N432 1.321 . S
C433 H457 0.930 . S
H434 C429 0.931 . S
Co435 N432 2.135 . S
Co435 N438 2.121 . S
Co435 O443 2.055 . S
Co435 O446 2.039 . S
Co435 N449 2.140 . S
C436 O437 1.227 . S
C436 O446 1.265 . S
O437 C436 1.227 . S
N438 Co435 2.121 . S
N438 C440 1.375 . S
N438 C441 1.313 . S
C439 C440 1.338 . S
C439 N442 1.377 . S
C439 H459 0.930 . S
C440 N438 1.375 . S
C440 C439 1.338 . S
C440 H444 0.931 . S
C441 N438 1.313 . S
C441 N442 1.344 . S
C441 H445 0.930 . S
N442 C439 1.377 . S
N442 C441 1.344 . S
O443 Co435 2.055 . S
O443 C447 1.253 . S
H444 C440 0.931 . S
H445 C441 0.930 . S
O446 Co435 2.039 . S
O446 C436 1.265 . S
C447 O443 1.253 . S
C447 O448 1.227 . S
O448 C447 1.227 . S
N449 Co435 2.140 . S
N449 C452 1.346 . S
N449 C453 1.345 . S
C450 C451 1.387 . S
C450 C454 1.391 . S
C451 C450 1.387 . S
C451 C452 1.369 . S
C451 H460 0.929 . S
C452 N449 1.346 . S
C452 C451 1.369 . S
C452 H455 0.928 . S
C453 N449 1.345 . S
C453 C454 1.371 . S
C453 H456 0.931 . S
C454 C450 1.391 . S
C454 C453 1.371 . S
C454 H461 0.930 . S
H455 C452 0.928 . S
H456 C453 0.931 . S
H457 C433 0.930 . S
H458 C430 0.930 . S
H459 C439 0.930 . S
H460 C451 0.929 . S
H461 C454 0.930 . S
C462 C463 1.351 . S
C462 N465 1.368 . S
C462 H467 0.931 . S
C463 C462 1.351 . S
C463 N464 1.373 . S
C463 H491 0.930 . S
N464 C463 1.373 . S
N464 C466 1.340 . S
N465 C462 1.368 . S
N465 C466 1.321 . S
N465 Co468 2.135 . S
C466 N464 1.340 . S
C466 N465 1.321 . S
C466 H490 0.930 . S
H467 C462 0.931 . S
Co468 N465 2.135 . S
Co468 N471 2.121 . S
Co468 O476 2.055 . S
Co468 O479 2.039 . S
Co468 N482 2.140 . S
C469 O470 1.227 . S
C469 O479 1.265 . S
O470 C469 1.227 . S
N471 Co468 2.121 . S
N471 C473 1.375 . S
N471 C474 1.313 . S
C472 C473 1.338 . S
C472 N475 1.377 . S
C472 H492 0.930 . S
C473 N471 1.375 . S
C473 C472 1.338 . S
C473 H477 0.931 . S
C474 N471 1.313 . S
C474 N475 1.344 . S
C474 H478 0.930 . S
N475 C472 1.377 . S
N475 C474 1.344 . S
O476 Co468 2.055 . S
O476 C480 1.253 . S
H477 C473 0.931 . S
H478 C474 0.930 . S
O479 Co468 2.039 . S
O479 C469 1.265 . S
C480 O476 1.253 . S
C480 O481 1.227 . S
O481 C480 1.227 . S
N482 Co468 2.140 . S
N482 C485 1.346 . S
N482 C486 1.345 . S
C483 C484 1.387 . S
C483 C487 1.391 . S
C484 C483 1.387 . S
C484 C485 1.369 . S
C484 H493 0.929 . S
C485 N482 1.346 . S
C485 C484 1.369 . S
C485 H488 0.928 . S
C486 N482 1.345 . S
C486 C487 1.371 . S
C486 H489 0.931 . S
C487 C483 1.391 . S
C487 C486 1.371 . S
C487 H494 0.930 . S
H488 C485 0.928 . S
H489 C486 0.931 . S
H490 C466 0.930 . S
H491 C463 0.930 . S
H492 C472 0.930 . S
H493 C484 0.929 . S
H494 C487 0.930 . S
C495 C496 1.351 . S
C495 N498 1.368 . S
C495 H500 0.931 . S
C496 C495 1.351 . S
C496 N497 1.373 . S
C496 H524 0.930 . S
N497 C496 1.373 . S
N497 C499 1.340 . S
N498 C495 1.368 . S
N498 C499 1.321 . S
N498 Co501 2.135 . S
C499 N497 1.340 . S
C499 N498 1.321 . S
C499 H523 0.930 . S
H500 C495 0.931 . S
Co501 N498 2.135 . S
Co501 N504 2.121 . S
Co501 O509 2.055 . S
Co501 O512 2.039 . S
Co501 N515 2.140 . S
C502 O503 1.227 . S
C502 O512 1.265 . S
O503 C502 1.227 . S
N504 Co501 2.121 . S
N504 C506 1.375 . S
N504 C507 1.313 . S
C505 C506 1.338 . S
C505 N508 1.377 . S
C505 H525 0.930 . S
C506 N504 1.375 . S
C506 C505 1.338 . S
C506 H510 0.931 . S
C507 N504 1.313 . S
C507 N508 1.344 . S
C507 H511 0.930 . S
N508 C505 1.377 . S
N508 C507 1.344 . S
O509 Co501 2.055 . S
O509 C513 1.253 . S
H510 C506 0.931 . S
H511 C507 0.930 . S
O512 Co501 2.039 . S
O512 C502 1.265 . S
C513 O509 1.253 . S
C513 O514 1.227 . S
O514 C513 1.227 . S
N515 Co501 2.140 . S
N515 C518 1.346 . S
N515 C519 1.345 . S
C516 C517 1.387 . S
C516 C520 1.391 . S
C517 C516 1.387 . S
C517 C518 1.369 . S
C517 H526 0.929 . S
C518 N515 1.346 . S
C518 C517 1.369 . S
C518 H521 0.928 . S
C519 N515 1.345 . S
C519 C520 1.371 . S
C519 H522 0.931 . S
C520 C516 1.391 . S
C520 C519 1.371 . S
C520 H527 0.930 . S
H521 C518 0.928 . S
H522 C519 0.931 . S
H523 C499 0.930 . S
H524 C496 0.930 . S
H525 C505 0.930 . S
H526 C517 0.929 . S
H527 C520 0.930 . S
C528 C529 1.351 . S
C528 N531 1.368 . S
C528 H533 0.931 . S
C529 C528 1.351 . S
C529 N530 1.373 . S
C529 H557 0.930 . S
N530 C529 1.373 . S
N530 C532 1.340 . S
N531 C528 1.368 . S
N531 C532 1.321 . S
N531 Co534 2.135 . S
C532 N530 1.340 . S
C532 N531 1.321 . S
C532 H556 0.930 . S
H533 C528 0.931 . S
Co534 N531 2.135 . S
Co534 N537 2.121 . S
Co534 O542 2.055 . S
Co534 O545 2.039 . S
Co534 N548 2.140 . S
C535 O536 1.227 . S
C535 O545 1.265 . S
O536 C535 1.227 . S
N537 Co534 2.121 . S
N537 C539 1.375 . S
N537 C540 1.313 . S
C538 C539 1.338 . S
C538 N541 1.377 . S
C538 H558 0.930 . S
C539 N537 1.375 . S
C539 C538 1.338 . S
C539 H543 0.931 . S
C540 N537 1.313 . S
C540 N541 1.344 . S
C540 H544 0.930 . S
N541 C538 1.377 . S
N541 C540 1.344 . S
O542 Co534 2.055 . S
O542 C546 1.253 . S
H543 C539 0.931 . S
H544 C540 0.930 . S
O545 Co534 2.039 . S
O545 C535 1.265 . S
C546 O542 1.253 . S
C546 O547 1.227 . S
O547 C546 1.227 . S
N548 Co534 2.140 . S
N548 C551 1.346 . S
N548 C552 1.345 . S
C549 C550 1.387 . S
C549 C553 1.391 . S
C550 C549 1.387 . S
C550 C551 1.369 . S
C550 H559 0.929 . S
C551 N548 1.346 . S
C551 C550 1.369 . S
C551 H554 0.928 . S
C552 N548 1.345 . S
C552 C553 1.371 . S
C552 H555 0.931 . S
C553 C549 1.391 . S
C553 C552 1.371 . S
C553 H560 0.930 . S
H554 C551 0.928 . S
H555 C552 0.931 . S
H556 C532 0.930 . S
H557 C529 0.930 . S
H558 C538 0.930 . S
H559 C550 0.929 . S
H560 C553 0.930 . S
C561 C562 1.351 . S
C561 N564 1.368 . S
C561 H566 0.931 . S
C562 C561 1.351 . S
C562 N563 1.373 . S
C562 H590 0.930 . S
N563 C562 1.373 . S
N563 C565 1.340 . S
N564 C561 1.368 . S
N564 C565 1.321 . S
N564 Co567 2.135 . S
C565 N563 1.340 . S
C565 N564 1.321 . S
C565 H589 0.930 . S
H566 C561 0.931 . S
Co567 N564 2.135 . S
Co567 N570 2.121 . S
Co567 O575 2.055 . S
Co567 O578 2.039 . S
Co567 N581 2.140 . S
C568 O569 1.227 . S
C568 O578 1.265 . S
O569 C568 1.227 . S
N570 Co567 2.121 . S
N570 C572 1.375 . S
N570 C573 1.313 . S
C571 C572 1.338 . S
C571 N574 1.377 . S
C571 H591 0.930 . S
C572 N570 1.375 . S
C572 C571 1.338 . S
C572 H576 0.931 . S
C573 N570 1.313 . S
C573 N574 1.344 . S
C573 H577 0.930 . S
N574 C571 1.377 . S
N574 C573 1.344 . S
O575 Co567 2.055 . S
O575 C579 1.253 . S
H576 C572 0.931 . S
H577 C573 0.930 . S
O578 Co567 2.039 . S
O578 C568 1.265 . S
C579 O575 1.253 . S
C579 O580 1.227 . S
O580 C579 1.227 . S
N581 Co567 2.140 . S
N581 C584 1.346 . S
N581 C585 1.345 . S
C582 C583 1.387 . S
C582 C586 1.391 . S
C583 C582 1.387 . S
C583 C584 1.369 . S
C583 H592 0.929 . S
C584 N581 1.346 . S
C584 C583 1.369 . S
C584 H587 0.928 . S
C585 N581 1.345 . S
C585 C586 1.371 . S
C585 H588 0.931 . S
C586 C582 1.391 . S
C586 C585 1.371 . S
C586 H593 0.930 . S
H587 C584 0.928 . S
H588 C585 0.931 . S
H589 C565 0.930 . S
H590 C562 0.930 . S
H591 C571 0.930 . S
H592 C583 0.929 . S
H593 C586 0.930 . S
C594 C595 1.351 . S
C594 N597 1.368 . S
C594 H599 0.931 . S
C595 C594 1.351 . S
C595 N596 1.373 . S
C595 H623 0.930 . S
N596 C595 1.373 . S
N596 C598 1.340 . S
N597 C594 1.368 . S
N597 C598 1.321 . S
N597 Co600 2.135 . S
C598 N596 1.340 . S
C598 N597 1.321 . S
C598 H622 0.930 . S
H599 C594 0.931 . S
Co600 N597 2.135 . S
Co600 N603 2.121 . S
Co600 O608 2.055 . S
Co600 O611 2.039 . S
Co600 N614 2.140 . S
C601 O602 1.227 . S
C601 O611 1.265 . S
O602 C601 1.227 . S
N603 Co600 2.121 . S
N603 C605 1.375 . S
N603 C606 1.313 . S
C604 C605 1.338 . S
C604 N607 1.377 . S
C604 H624 0.930 . S
C605 N603 1.375 . S
C605 C604 1.338 . S
C605 H609 0.931 . S
C606 N603 1.313 . S
C606 N607 1.344 . S
C606 H610 0.930 . S
N607 C604 1.377 . S
N607 C606 1.344 . S
O608 Co600 2.055 . S
O608 C612 1.253 . S
H609 C605 0.931 . S
H610 C606 0.930 . S
O611 Co600 2.039 . S
O611 C601 1.265 . S
C612 O608 1.253 . S
C612 O613 1.227 . S
O613 C612 1.227 . S
N614 Co600 2.140 . S
N614 C617 1.346 . S
N614 C618 1.345 . S
C615 C616 1.387 . S
C615 C619 1.391 . S
C616 C615 1.387 . S
C616 C617 1.369 . S
C616 H625 0.929 . S
C617 N614 1.346 . S
C617 C616 1.369 . S
C617 H620 0.928 . S
C618 N614 1.345 . S
C618 C619 1.371 . S
C618 H621 0.931 . S
C619 C615 1.391 . S
C619 C618 1.371 . S
C619 H626 0.930 . S
H620 C617 0.928 . S
H621 C618 0.931 . S
H622 C598 0.930 . S
H623 C595 0.930 . S
H624 C604 0.930 . S
H625 C616 0.929 . S
H626 C619 0.930 . S
C627 C628 1.351 . S
C627 N630 1.368 . S
C627 H632 0.931 . S
C628 C627 1.351 . S
C628 N629 1.373 . S
C628 H656 0.930 . S
N629 C628 1.373 . S
N629 C631 1.340 . S
N630 C627 1.368 . S
N630 C631 1.321 . S
N630 Co633 2.135 . S
C631 N629 1.340 . S
C631 N630 1.321 . S
C631 H655 0.930 . S
H632 C627 0.931 . S
Co633 N630 2.135 . S
Co633 N636 2.121 . S
Co633 O641 2.055 . S
Co633 O644 2.039 . S
Co633 N647 2.140 . S
C634 O635 1.227 . S
C634 O644 1.265 . S
O635 C634 1.227 . S
N636 Co633 2.121 . S
N636 C638 1.375 . S
N636 C639 1.313 . S
C637 C638 1.338 . S
C637 N640 1.377 . S
C637 H657 0.930 . S
C638 N636 1.375 . S
C638 C637 1.338 . S
C638 H642 0.931 . S
C639 N636 1.313 . S
C639 N640 1.344 . S
C639 H643 0.930 . S
N640 C637 1.377 . S
N640 C639 1.344 . S
O641 Co633 2.055 . S
O641 C645 1.253 . S
H642 C638 0.931 . S
H643 C639 0.930 . S
O644 Co633 2.039 . S
O644 C634 1.265 . S
C645 O641 1.253 . S
C645 O646 1.227 . S
O646 C645 1.227 . S
N647 Co633 2.140 . S
N647 C650 1.346 . S
N647 C651 1.345 . S
C648 C649 1.387 . S
C648 C652 1.391 . S
C649 C648 1.387 . S
C649 C650 1.369 . S
C649 H658 0.929 . S
C650 N647 1.346 . S
C650 C649 1.369 . S
C650 H653 0.928 . S
C651 N647 1.345 . S
C651 C652 1.371 . S
C651 H654 0.931 . S
C652 C648 1.391 . S
C652 C651 1.371 . S
C652 H659 0.930 . S
H653 C650 0.928 . S
H654 C651 0.931 . S
H655 C631 0.930 . S
H656 C628 0.930 . S
H657 C637 0.930 . S
H658 C649 0.929 . S
H659 C652 0.930 . S
C660 C661 1.351 . S
C660 N663 1.368 . S
C660 H665 0.931 . S
C661 C660 1.351 . S
C661 N662 1.373 . S
C661 H689 0.930 . S
N662 C661 1.373 . S
N662 C664 1.340 . S
N663 C660 1.368 . S
N663 C664 1.321 . S
N663 Co666 2.135 . S
C664 N662 1.340 . S
C664 N663 1.321 . S
C664 H688 0.930 . S
H665 C660 0.931 . S
Co666 N663 2.135 . S
Co666 N669 2.121 . S
Co666 O674 2.055 . S
Co666 O677 2.039 . S
Co666 N680 2.140 . S
C667 O668 1.227 . S
C667 O677 1.265 . S
O668 C667 1.227 . S
N669 Co666 2.121 . S
N669 C671 1.375 . S
N669 C672 1.313 . S
C670 C671 1.338 . S
C670 N673 1.377 . S
C670 H690 0.930 . S
C671 N669 1.375 . S
C671 C670 1.338 . S
C671 H675 0.931 . S
C672 N669 1.313 . S
C672 N673 1.344 . S
C672 H676 0.930 . S
N673 C670 1.377 . S
N673 C672 1.344 . S
O674 Co666 2.055 . S
O674 C678 1.253 . S
H675 C671 0.931 . S
H676 C672 0.930 . S
O677 Co666 2.039 . S
O677 C667 1.265 . S
C678 O674 1.253 . S
C678 O679 1.227 . S
O679 C678 1.227 . S
N680 Co666 2.140 . S
N680 C683 1.346 . S
N680 C684 1.345 . S
C681 C682 1.387 . S
C681 C685 1.391 . S
C682 C681 1.387 . S
C682 C683 1.369 . S
C682 H691 0.929 . S
C683 N680 1.346 . S
C683 C682 1.369 . S
C683 H686 0.928 . S
C684 N680 1.345 . S
C684 C685 1.371 . S
C684 H687 0.931 . S
C685 C681 1.391 . S
C685 C684 1.371 . S
C685 H692 0.930 . S
H686 C683 0.928 . S
H687 C684 0.931 . S
H688 C664 0.930 . S
H689 C661 0.930 . S
H690 C670 0.930 . S
H691 C682 0.929 . S
H692 C685 0.930 . S
C693 C694 1.351 . S
C693 N696 1.368 . S
C693 H698 0.931 . S
C694 C693 1.351 . S
C694 N695 1.373 . S
C694 H722 0.930 . S
N695 C694 1.373 . S
N695 C697 1.340 . S
N696 C693 1.368 . S
N696 C697 1.321 . S
N696 Co699 2.135 . S
C697 N695 1.340 . S
C697 N696 1.321 . S
C697 H721 0.930 . S
H698 C693 0.931 . S
Co699 N696 2.135 . S
Co699 N702 2.121 . S
Co699 O707 2.055 . S
Co699 O710 2.039 . S
Co699 N713 2.140 . S
C700 O701 1.227 . S
C700 O710 1.265 . S
O701 C700 1.227 . S
N702 Co699 2.121 . S
N702 C704 1.375 . S
N702 C705 1.313 . S
C703 C704 1.338 . S
C703 N706 1.377 . S
C703 H723 0.930 . S
C704 N702 1.375 . S
C704 C703 1.338 . S
C704 H708 0.931 . S
C705 N702 1.313 . S
C705 N706 1.344 . S
C705 H709 0.930 . S
N706 C703 1.377 . S
N706 C705 1.344 . S
O707 Co699 2.055 . S
O707 C711 1.253 . S
H708 C704 0.931 . S
H709 C705 0.930 . S
O710 Co699 2.039 . S
O710 C700 1.265 . S
C711 O707 1.253 . S
C711 O712 1.227 . S
O712 C711 1.227 . S
N713 Co699 2.140 . S
N713 C716 1.346 . S
N713 C717 1.345 . S
C714 C715 1.387 . S
C714 C718 1.391 . S
C715 C714 1.387 . S
C715 C716 1.369 . S
C715 H724 0.929 . S
C716 N713 1.346 . S
C716 C715 1.369 . S
C716 H719 0.928 . S
C717 N713 1.345 . S
C717 C718 1.371 . S
C717 H720 0.931 . S
C718 C714 1.391 . S
C718 C717 1.371 . S
C718 H725 0.930 . S
H719 C716 0.928 . S
H720 C717 0.931 . S
H721 C697 0.930 . S
H722 C694 0.930 . S
H723 C703 0.930 . S
H724 C715 0.929 . S
H725 C718 0.930 . S
C726 C727 1.351 . S
C726 N729 1.368 . S
C726 H731 0.931 . S
C727 C726 1.351 . S
C727 N728 1.373 . S
C727 H755 0.930 . S
N728 C727 1.373 . S
N728 C730 1.340 . S
N729 C726 1.368 . S
N729 C730 1.321 . S
N729 Co732 2.135 . S
C730 N728 1.340 . S
C730 N729 1.321 . S
C730 H754 0.930 . S
H731 C726 0.931 . S
Co732 N729 2.135 . S
Co732 N735 2.121 . S
Co732 O740 2.055 . S
Co732 O743 2.039 . S
Co732 N746 2.140 . S
C733 O734 1.227 . S
C733 O743 1.265 . S
O734 C733 1.227 . S
N735 Co732 2.121 . S
N735 C737 1.375 . S
N735 C738 1.313 . S
C736 C737 1.338 . S
C736 N739 1.377 . S
C736 H756 0.930 . S
C737 N735 1.375 . S
C737 C736 1.338 . S
C737 H741 0.931 . S
C738 N735 1.313 . S
C738 N739 1.344 . S
C738 H742 0.930 . S
N739 C736 1.377 . S
N739 C738 1.344 . S
O740 Co732 2.055 . S
O740 C744 1.253 . S
H741 C737 0.931 . S
H742 C738 0.930 . S
O743 Co732 2.039 . S
O743 C733 1.265 . S
C744 O740 1.253 . S
C744 O745 1.227 . S
O745 C744 1.227 . S
N746 Co732 2.140 . S
N746 C749 1.346 . S
N746 C750 1.345 . S
C747 C748 1.387 . S
C747 C751 1.391 . S
C748 C747 1.387 . S
C748 C749 1.369 . S
C748 H757 0.929 . S
C749 N746 1.346 . S
C749 C748 1.369 . S
C749 H752 0.928 . S
C750 N746 1.345 . S
C750 C751 1.371 . S
C750 H753 0.931 . S
C751 C747 1.391 . S
C751 C750 1.371 . S
C751 H758 0.930 . S
H752 C749 0.928 . S
H753 C750 0.931 . S
H754 C730 0.930 . S
H755 C727 0.930 . S
H756 C736 0.930 . S
H757 C748 0.929 . S
H758 C751 0.930 . S
C759 C760 1.351 . S
C759 N762 1.368 . S
C759 H764 0.931 . S
C760 C759 1.351 . S
C760 N761 1.373 . S
C760 H788 0.930 . S
N761 C760 1.373 . S
N761 C763 1.340 . S
N762 C759 1.368 . S
N762 C763 1.321 . S
N762 Co765 2.135 . S
C763 N761 1.340 . S
C763 N762 1.321 . S
C763 H787 0.930 . S
H764 C759 0.931 . S
Co765 N762 2.135 . S
Co765 N768 2.121 . S
Co765 O773 2.055 . S
Co765 O776 2.039 . S
Co765 N779 2.140 . S
C766 O767 1.227 . S
C766 O776 1.265 . S
O767 C766 1.227 . S
N768 Co765 2.121 . S
N768 C770 1.375 . S
N768 C771 1.313 . S
C769 C770 1.338 . S
C769 N772 1.377 . S
C769 H789 0.930 . S
C770 N768 1.375 . S
C770 C769 1.338 . S
C770 H774 0.931 . S
C771 N768 1.313 . S
C771 N772 1.344 . S
C771 H775 0.930 . S
N772 C769 1.377 . S
N772 C771 1.344 . S
O773 Co765 2.055 . S
O773 C777 1.253 . S
H774 C770 0.931 . S
H775 C771 0.930 . S
O776 Co765 2.039 . S
O776 C766 1.265 . S
C777 O773 1.253 . S
C777 O778 1.227 . S
O778 C777 1.227 . S
N779 Co765 2.140 . S
N779 C782 1.346 . S
N779 C783 1.345 . S
C780 C781 1.387 . S
C780 C784 1.391 . S
C781 C780 1.387 . S
C781 C782 1.369 . S
C781 H790 0.929 . S
C782 N779 1.346 . S
C782 C781 1.369 . S
C782 H785 0.928 . S
C783 N779 1.345 . S
C783 C784 1.371 . S
C783 H786 0.931 . S
C784 C780 1.391 . S
C784 C783 1.371 . S
C784 H791 0.930 . S
H785 C782 0.928 . S
H786 C783 0.931 . S
H787 C763 0.930 . S
H788 C760 0.930 . S
H789 C769 0.930 . S
H790 C781 0.929 . S
H791 C784 0.930 . S
C792 C793 1.351 . S
C792 N795 1.368 . S
C792 H797 0.931 . S
C793 C792 1.351 . S
C793 N794 1.373 . S
C793 H821 0.930 . S
N794 C793 1.373 . S
N794 C796 1.340 . S
N795 C792 1.368 . S
N795 C796 1.321 . S
N795 Co798 2.135 . S
C796 N794 1.340 . S
C796 N795 1.321 . S
C796 H820 0.930 . S
H797 C792 0.931 . S
Co798 N795 2.135 . S
Co798 N801 2.121 . S
Co798 O806 2.055 . S
Co798 O809 2.039 . S
Co798 N812 2.140 . S
C799 O800 1.227 . S
C799 O809 1.265 . S
O800 C799 1.227 . S
N801 Co798 2.121 . S
N801 C803 1.375 . S
N801 C804 1.313 . S
C802 C803 1.338 . S
C802 N805 1.377 . S
C802 H822 0.930 . S
C803 N801 1.375 . S
C803 C802 1.338 . S
C803 H807 0.931 . S
C804 N801 1.313 . S
C804 N805 1.344 . S
C804 H808 0.930 . S
N805 C802 1.377 . S
N805 C804 1.344 . S
O806 Co798 2.055 . S
O806 C810 1.253 . S
H807 C803 0.931 . S
H808 C804 0.930 . S
O809 Co798 2.039 . S
O809 C799 1.265 . S
C810 O806 1.253 . S
C810 O811 1.227 . S
O811 C810 1.227 . S
N812 Co798 2.140 . S
N812 C815 1.346 . S
N812 C816 1.345 . S
C813 C814 1.387 . S
C813 C817 1.391 . S
C814 C813 1.387 . S
C814 C815 1.369 . S
C814 H823 0.929 . S
C815 N812 1.346 . S
C815 C814 1.369 . S
C815 H818 0.928 . S
C816 N812 1.345 . S
C816 C817 1.371 . S
C816 H819 0.931 . S
C817 C813 1.391 . S
C817 C816 1.371 . S
C817 H824 0.930 . S
H818 C815 0.928 . S
H819 C816 0.931 . S
H820 C796 0.930 . S
H821 C793 0.930 . S
H822 C802 0.930 . S
H823 C814 0.929 . S
H824 C817 0.930 . S
C825 C826 1.351 . S
C825 N828 1.368 . S
C825 H830 0.931 . S
C826 C825 1.351 . S
C826 N827 1.373 . S
C826 H854 0.930 . S
N827 C826 1.373 . S
N827 C829 1.340 . S
N828 C825 1.368 . S
N828 C829 1.321 . S
N828 Co831 2.135 . S
C829 N827 1.340 . S
C829 N828 1.321 . S
C829 H853 0.930 . S
H830 C825 0.931 . S
Co831 N828 2.135 . S
Co831 N834 2.121 . S
Co831 O839 2.055 . S
Co831 O842 2.039 . S
Co831 N845 2.140 . S
C832 O833 1.227 . S
C832 O842 1.265 . S
O833 C832 1.227 . S
N834 Co831 2.121 . S
N834 C836 1.375 . S
N834 C837 1.313 . S
C835 C836 1.338 . S
C835 N838 1.377 . S
C835 H855 0.930 . S
C836 N834 1.375 . S
C836 C835 1.338 . S
C836 H840 0.931 . S
C837 N834 1.313 . S
C837 N838 1.344 . S
C837 H841 0.930 . S
N838 C835 1.377 . S
N838 C837 1.344 . S
O839 Co831 2.055 . S
O839 C843 1.253 . S
H840 C836 0.931 . S
H841 C837 0.930 . S
O842 Co831 2.039 . S
O842 C832 1.265 . S
C843 O839 1.253 . S
C843 O844 1.227 . S
O844 C843 1.227 . S
N845 Co831 2.140 . S
N845 C848 1.346 . S
N845 C849 1.345 . S
C846 C847 1.387 . S
C846 C850 1.391 . S
C847 C846 1.387 . S
C847 C848 1.369 . S
C847 H856 0.929 . S
C848 N845 1.346 . S
C848 C847 1.369 . S
C848 H851 0.928 . S
C849 N845 1.345 . S
C849 C850 1.371 . S
C849 H852 0.931 . S
C850 C846 1.391 . S
C850 C849 1.371 . S
C850 H857 0.930 . S
H851 C848 0.928 . S
H852 C849 0.931 . S
H853 C829 0.930 . S
H854 C826 0.930 . S
H855 C835 0.930 . S
H856 C847 0.929 . S
H857 C850 0.930 . S
C858 C859 1.351 . S
C858 N861 1.368 . S
C858 H863 0.931 . S
C859 C858 1.351 . S
C859 N860 1.373 . S
C859 H887 0.930 . S
N860 C859 1.373 . S
N860 C862 1.340 . S
N861 C858 1.368 . S
N861 C862 1.321 . S
N861 Co864 2.135 . S
C862 N860 1.340 . S
C862 N861 1.321 . S
C862 H886 0.930 . S
H863 C858 0.931 . S
Co864 N861 2.135 . S
Co864 N867 2.121 . S
Co864 O872 2.055 . S
Co864 O875 2.039 . S
Co864 N878 2.140 . S
C865 O866 1.227 . S
C865 O875 1.265 . S
O866 C865 1.227 . S
N867 Co864 2.121 . S
N867 C869 1.375 . S
N867 C870 1.313 . S
C868 C869 1.338 . S
C868 N871 1.377 . S
C868 H888 0.930 . S
C869 N867 1.375 . S
C869 C868 1.338 . S
C869 H873 0.931 . S
C870 N867 1.313 . S
C870 N871 1.344 . S
C870 H874 0.930 . S
N871 C868 1.377 . S
N871 C870 1.344 . S
O872 Co864 2.055 . S
O872 C876 1.253 . S
H873 C869 0.931 . S
H874 C870 0.930 . S
O875 Co864 2.039 . S
O875 C865 1.265 . S
C876 O872 1.253 . S
C876 O877 1.227 . S
O877 C876 1.227 . S
N878 Co864 2.140 . S
N878 C881 1.346 . S
N878 C882 1.345 . S
C879 C880 1.387 . S
C879 C883 1.391 . S
C880 C879 1.387 . S
C880 C881 1.369 . S
C880 H889 0.929 . S
C881 N878 1.346 . S
C881 C880 1.369 . S
C881 H884 0.928 . S
C882 N878 1.345 . S
C882 C883 1.371 . S
C882 H885 0.931 . S
C883 C879 1.391 . S
C883 C882 1.371 . S
C883 H890 0.930 . S
H884 C881 0.928 . S
H885 C882 0.931 . S
H886 C862 0.930 . S
H887 C859 0.930 . S
H888 C868 0.930 . S
H889 C880 0.929 . S
H890 C883 0.930 . S
C891 C892 1.351 . S
C891 N894 1.368 . S
C891 H896 0.931 . S
C892 C891 1.351 . S
C892 N893 1.373 . S
C892 H920 0.930 . S
N893 C892 1.373 . S
N893 C895 1.340 . S
N894 C891 1.368 . S
N894 C895 1.321 . S
N894 Co897 2.135 . S
C895 N893 1.340 . S
C895 N894 1.321 . S
C895 H919 0.930 . S
H896 C891 0.931 . S
Co897 N894 2.135 . S
Co897 N900 2.121 . S
Co897 O905 2.055 . S
Co897 O908 2.039 . S
Co897 N911 2.140 . S
C898 O899 1.227 . S
C898 O908 1.265 . S
O899 C898 1.227 . S
N900 Co897 2.121 . S
N900 C902 1.375 . S
N900 C903 1.313 . S
C901 C902 1.338 . S
C901 N904 1.377 . S
C901 H921 0.930 . S
C902 N900 1.375 . S
C902 C901 1.338 . S
C902 H906 0.931 . S
C903 N900 1.313 . S
C903 N904 1.344 . S
C903 H907 0.930 . S
N904 C901 1.377 . S
N904 C903 1.344 . S
O905 Co897 2.055 . S
O905 C909 1.253 . S
H906 C902 0.931 . S
H907 C903 0.930 . S
O908 Co897 2.039 . S
O908 C898 1.265 . S
C909 O905 1.253 . S
C909 O910 1.227 . S
O910 C909 1.227 . S
N911 Co897 2.140 . S
N911 C914 1.346 . S
N911 C915 1.345 . S
C912 C913 1.387 . S
C912 C916 1.391 . S
C913 C912 1.387 . S
C913 C914 1.369 . S
C913 H922 0.929 . S
C914 N911 1.346 . S
C914 C913 1.369 . S
C914 H917 0.928 . S
C915 N911 1.345 . S
C915 C916 1.371 . S
C915 H918 0.931 . S
C916 C912 1.391 . S
C916 C915 1.371 . S
C916 H923 0.930 . S
H917 C914 0.928 . S
H918 C915 0.931 . S
H919 C895 0.930 . S
H920 C892 0.930 . S
H921 C901 0.930 . S
H922 C913 0.929 . S
H923 C916 0.930 . S
C924 C925 1.351 . S
C924 N927 1.368 . S
C924 H929 0.931 . S
C925 C924 1.351 . S
C925 N926 1.373 . S
C925 H953 0.930 . S
N926 C925 1.373 . S
N926 C928 1.340 . S
N927 C924 1.368 . S
N927 C928 1.321 . S
N927 Co930 2.135 . S
C928 N926 1.340 . S
C928 N927 1.321 . S
C928 H952 0.930 . S
H929 C924 0.931 . S
Co930 N927 2.135 . S
Co930 N933 2.121 . S
Co930 O938 2.055 . S
Co930 O941 2.039 . S
Co930 N944 2.140 . S
C931 O932 1.227 . S
C931 O941 1.265 . S
O932 C931 1.227 . S
N933 Co930 2.121 . S
N933 C935 1.375 . S
N933 C936 1.313 . S
C934 C935 1.338 . S
C934 N937 1.377 . S
C934 H954 0.930 . S
C935 N933 1.375 . S
C935 C934 1.338 . S
C935 H939 0.931 . S
C936 N933 1.313 . S
C936 N937 1.344 . S
C936 H940 0.930 . S
N937 C934 1.377 . S
N937 C936 1.344 . S
O938 Co930 2.055 . S
O938 C942 1.253 . S
H939 C935 0.931 . S
H940 C936 0.930 . S
O941 Co930 2.039 . S
O941 C931 1.265 . S
C942 O938 1.253 . S
C942 O943 1.227 . S
O943 C942 1.227 . S
N944 Co930 2.140 . S
N944 C947 1.346 . S
N944 C948 1.345 . S
C945 C946 1.387 . S
C945 C949 1.391 . S
C946 C945 1.387 . S
C946 C947 1.369 . S
C946 H955 0.929 . S
C947 N944 1.346 . S
C947 C946 1.369 . S
C947 H950 0.928 . S
C948 N944 1.345 . S
C948 C949 1.371 . S
C948 H951 0.931 . S
C949 C945 1.391 . S
C949 C948 1.371 . S
C949 H956 0.930 . S
H950 C947 0.928 . S
H951 C948 0.931 . S
H952 C928 0.930 . S
H953 C925 0.930 . S
H954 C934 0.930 . S
H955 C946 0.929 . S
H956 C949 0.930 . S
C957 C958 1.351 . S
C957 N960 1.368 . S
C957 H962 0.931 . S
C958 C957 1.351 . S
C958 N959 1.373 . S
C958 H986 0.930 . S
N959 C958 1.373 . S
N959 C961 1.340 . S
N960 C957 1.368 . S
N960 C961 1.321 . S
N960 Co963 2.135 . S
C961 N959 1.340 . S
C961 N960 1.321 . S
C961 H985 0.930 . S
H962 C957 0.931 . S
Co963 N960 2.135 . S
Co963 N966 2.121 . S
Co963 O971 2.055 . S
Co963 O974 2.039 . S
Co963 N977 2.140 . S
C964 O965 1.227 . S
C964 O974 1.265 . S
O965 C964 1.227 . S
N966 Co963 2.121 . S
N966 C968 1.375 . S
N966 C969 1.313 . S
C967 C968 1.338 . S
C967 N970 1.377 . S
C967 H987 0.930 . S
C968 N966 1.375 . S
C968 C967 1.338 . S
C968 H972 0.931 . S
C969 N966 1.313 . S
C969 N970 1.344 . S
C969 H973 0.930 . S
N970 C967 1.377 . S
N970 C969 1.344 . S
O971 Co963 2.055 . S
O971 C975 1.253 . S
H972 C968 0.931 . S
H973 C969 0.930 . S
O974 Co963 2.039 . S
O974 C964 1.265 . S
C975 O971 1.253 . S
C975 O976 1.227 . S
O976 C975 1.227 . S
N977 Co963 2.140 . S
N977 C980 1.346 . S
N977 C981 1.345 . S
C978 C979 1.387 . S
C978 C982 1.391 . S
C979 C978 1.387 . S
C979 C980 1.369 . S
C979 H988 0.929 . S
C980 N977 1.346 . S
C980 C979 1.369 . S
C980 H983 0.928 . S
C981 N977 1.345 . S
C981 C982 1.371 . S
C981 H984 0.931 . S
C982 C978 1.391 . S
C982 C981 1.371 . S
C982 H989 0.930 . S
H983 C980 0.928 . S
H984 C981 0.931 . S
H985 C961 0.930 . S
H986 C958 0.930 . S
H987 C967 0.930 . S
H988 C979 0.929 . S
H989 C982 0.930 . S
C990 C991 1.351 . S
C990 N993 1.368 . S
C990 H995 0.931 . S
C991 C990 1.351 . S
C991 N992 1.373 . S
C991 H1019 0.930 . S
N992 C991 1.373 . S
N992 C994 1.340 . S
N993 C990 1.368 . S
N993 C994 1.321 . S
N993 Co996 2.135 . S
C994 N992 1.340 . S
C994 N993 1.321 . S
C994 H1018 0.930 . S
H995 C990 0.931 . S
Co996 N993 2.135 . S
Co996 N999 2.121 . S
Co996 O1004 2.055 . S
Co996 O1007 2.039 . S
Co996 N1010 2.140 . S
C997 O998 1.227 . S
C997 O1007 1.265 . S
O998 C997 1.227 . S
N999 Co996 2.121 . S
N999 C1001 1.375 . S
N999 C1002 1.313 . S
C1000 C1001 1.338 . S
C1000 N1003 1.377 . S
C1000 H1020 0.930 . S
C1001 N999 1.375 . S
C1001 C1000 1.338 . S
C1001 H1005 0.931 . S
C1002 N999 1.313 . S
C1002 N1003 1.344 . S
C1002 H1006 0.930 . S
N1003 C1000 1.377 . S
N1003 C1002 1.344 . S
O1004 Co996 2.055 . S
O1004 C1008 1.253 . S
H1005 C1001 0.931 . S
H1006 C1002 0.930 . S
O1007 Co996 2.039 . S
O1007 C997 1.265 . S
C1008 O1004 1.253 . S
C1008 O1009 1.227 . S
O1009 C1008 1.227 . S
N1010 Co996 2.140 . S
N1010 C1013 1.346 . S
N1010 C1014 1.345 . S
C1011 C1012 1.387 . S
C1011 C1015 1.391 . S
C1012 C1011 1.387 . S
C1012 C1013 1.369 . S
C1012 H1021 0.929 . S
C1013 N1010 1.346 . S
C1013 C1012 1.369 . S
C1013 H1016 0.928 . S
C1014 N1010 1.345 . S
C1014 C1015 1.371 . S
C1014 H1017 0.931 . S
C1015 C1011 1.391 . S
C1015 C1014 1.371 . S
C1015 H1022 0.930 . S
H1016 C1013 0.928 . S
H1017 C1014 0.931 . S
H1018 C994 0.930 . S
H1019 C991 0.930 . S
H1020 C1000 0.930 . S
H1021 C1012 0.929 . S
H1022 C1015 0.930 . S
C1023 C1024 1.351 . S
C1023 N1026 1.368 . S
C1023 H1028 0.931 . S
C1024 C1023 1.351 . S
C1024 N1025 1.373 . S
C1024 H1052 0.930 . S
N1025 C1024 1.373 . S
N1025 C1027 1.340 . S
N1026 C1023 1.368 . S
N1026 C1027 1.321 . S
N1026 Co1029 2.135 . S
C1027 N1025 1.340 . S
C1027 N1026 1.321 . S
C1027 H1051 0.930 . S
H1028 C1023 0.931 . S
Co1029 N1026 2.135 . S
Co1029 N1032 2.121 . S
Co1029 O1037 2.055 . S
Co1029 O1040 2.039 . S
Co1029 N1043 2.140 . S
C1030 O1031 1.227 . S
C1030 O1040 1.265 . S
O1031 C1030 1.227 . S
N1032 Co1029 2.121 . S
N1032 C1034 1.375 . S
N1032 C1035 1.313 . S
C1033 C1034 1.338 . S
C1033 N1036 1.377 . S
C1033 H1053 0.930 . S
C1034 N1032 1.375 . S
C1034 C1033 1.338 . S
C1034 H1038 0.931 . S
C1035 N1032 1.313 . S
C1035 N1036 1.344 . S
C1035 H1039 0.930 . S
N1036 C1033 1.377 . S
N1036 C1035 1.344 . S
O1037 Co1029 2.055 . S
O1037 C1041 1.253 . S
H1038 C1034 0.931 . S
H1039 C1035 0.930 . S
O1040 Co1029 2.039 . S
O1040 C1030 1.265 . S
C1041 O1037 1.253 . S
C1041 O1042 1.227 . S
O1042 C1041 1.227 . S
N1043 Co1029 2.140 . S
N1043 C1046 1.346 . S
N1043 C1047 1.345 . S
C1044 C1045 1.387 . S
C1044 C1048 1.391 . S
C1045 C1044 1.387 . S
C1045 C1046 1.369 . S
C1045 H1054 0.929 . S
C1046 N1043 1.346 . S
C1046 C1045 1.369 . S
C1046 H1049 0.928 . S
C1047 N1043 1.345 . S
C1047 C1048 1.371 . S
C1047 H1050 0.931 . S
C1048 C1044 1.391 . S
C1048 C1047 1.371 . S
C1048 H1055 0.930 . S
H1049 C1046 0.928 . S
H1050 C1047 0.931 . S
H1051 C1027 0.930 . S
H1052 C1024 0.930 . S
H1053 C1033 0.930 . S
H1054 C1045 0.929 . S
H1055 C1048 0.930 . S
C1056 C1057 1.351 . S
C1056 N1059 1.368 . S
C1056 H1061 0.931 . S
C1057 C1056 1.351 . S
C1057 N1058 1.373 . S
C1057 H1085 0.930 . S
N1058 C1057 1.373 . S
N1058 C1060 1.340 . S
N1059 C1056 1.368 . S
N1059 C1060 1.321 . S
N1059 Co1062 2.135 . S
C1060 N1058 1.340 . S
C1060 N1059 1.321 . S
C1060 H1084 0.930 . S
H1061 C1056 0.931 . S
Co1062 N1059 2.135 . S
Co1062 N1065 2.121 . S
Co1062 O1070 2.055 . S
Co1062 O1073 2.039 . S
Co1062 N1076 2.140 . S
C1063 O1064 1.227 . S
C1063 O1073 1.265 . S
O1064 C1063 1.227 . S
N1065 Co1062 2.121 . S
N1065 C1067 1.375 . S
N1065 C1068 1.313 . S
C1066 C1067 1.338 . S
C1066 N1069 1.377 . S
C1066 H1086 0.930 . S
C1067 N1065 1.375 . S
C1067 C1066 1.338 . S
C1067 H1071 0.931 . S
C1068 N1065 1.313 . S
C1068 N1069 1.344 . S
C1068 H1072 0.930 . S
N1069 C1066 1.377 . S
N1069 C1068 1.344 . S
O1070 Co1062 2.055 . S
O1070 C1074 1.253 . S
H1071 C1067 0.931 . S
H1072 C1068 0.930 . S
O1073 Co1062 2.039 . S
O1073 C1063 1.265 . S
C1074 O1070 1.253 . S
C1074 O1075 1.227 . S
O1075 C1074 1.227 . S
N1076 Co1062 2.140 . S
N1076 C1079 1.346 . S
N1076 C1080 1.345 . S
C1077 C1078 1.387 . S
C1077 C1081 1.391 . S
C1078 C1077 1.387 . S
C1078 C1079 1.369 . S
C1078 H1087 0.929 . S
C1079 N1076 1.346 . S
C1079 C1078 1.369 . S
C1079 H1082 0.928 . S
C1080 N1076 1.345 . S
C1080 C1081 1.371 . S
C1080 H1083 0.931 . S
C1081 C1077 1.391 . S
C1081 C1080 1.371 . S
C1081 H1088 0.930 . S
H1082 C1079 0.928 . S
H1083 C1080 0.931 . S
H1084 C1060 0.930 . S
H1085 C1057 0.930 . S
H1086 C1066 0.930 . S
H1087 C1078 0.929 . S
H1088 C1081 0.930 . S
C1089 C1090 1.351 . S
C1089 N1092 1.368 . S
C1089 H1094 0.931 . S
C1090 C1089 1.351 . S
C1090 N1091 1.373 . S
C1090 H1118 0.930 . S
N1091 C1090 1.373 . S
N1091 C1093 1.340 . S
N1092 C1089 1.368 . S
N1092 C1093 1.321 . S
N1092 Co1095 2.135 . S
C1093 N1091 1.340 . S
C1093 N1092 1.321 . S
C1093 H1117 0.930 . S
H1094 C1089 0.931 . S
Co1095 N1092 2.135 . S
Co1095 N1098 2.121 . S
Co1095 O1103 2.055 . S
Co1095 O1106 2.039 . S
Co1095 N1109 2.140 . S
C1096 O1097 1.227 . S
C1096 O1106 1.265 . S
O1097 C1096 1.227 . S
N1098 Co1095 2.121 . S
N1098 C1100 1.375 . S
N1098 C1101 1.313 . S
C1099 C1100 1.338 . S
C1099 N1102 1.377 . S
C1099 H1119 0.930 . S
C1100 N1098 1.375 . S
C1100 C1099 1.338 . S
C1100 H1104 0.931 . S
C1101 N1098 1.313 . S
C1101 N1102 1.344 . S
C1101 H1105 0.930 . S
N1102 C1099 1.377 . S
N1102 C1101 1.344 . S
O1103 Co1095 2.055 . S
O1103 C1107 1.253 . S
H1104 C1100 0.931 . S
H1105 C1101 0.930 . S
O1106 Co1095 2.039 . S
O1106 C1096 1.265 . S
C1107 O1103 1.253 . S
C1107 O1108 1.227 . S
O1108 C1107 1.227 . S
N1109 Co1095 2.140 . S
N1109 C1112 1.346 . S
N1109 C1113 1.345 . S
C1110 C1111 1.387 . S
C1110 C1114 1.391 . S
C1111 C1110 1.387 . S
C1111 C1112 1.369 . S
C1111 H1120 0.929 . S
C1112 N1109 1.346 . S
C1112 C1111 1.369 . S
C1112 H1115 0.928 . S
C1113 N1109 1.345 . S
C1113 C1114 1.371 . S
C1113 H1116 0.931 . S
C1114 C1110 1.391 . S
C1114 C1113 1.371 . S
C1114 H1121 0.930 . S
H1115 C1112 0.928 . S
H1116 C1113 0.931 . S
H1117 C1093 0.930 . S
H1118 C1090 0.930 . S
H1119 C1099 0.930 . S
H1120 C1111 0.929 . S
H1121 C1114 0.930 . S
C1122 C1123 1.351 . S
C1122 N1125 1.368 . S
C1122 H1127 0.931 . S
C1123 C1122 1.351 . S
C1123 N1124 1.373 . S
C1123 H1151 0.930 . S
N1124 C1123 1.373 . S
N1124 C1126 1.340 . S
N1125 C1122 1.368 . S
N1125 C1126 1.321 . S
N1125 Co1128 2.135 . S
C1126 N1124 1.340 . S
C1126 N1125 1.321 . S
C1126 H1150 0.930 . S
H1127 C1122 0.931 . S
Co1128 N1125 2.135 . S
Co1128 N1131 2.121 . S
Co1128 O1136 2.055 . S
Co1128 O1139 2.039 . S
Co1128 N1142 2.140 . S
C1129 O1130 1.227 . S
C1129 O1139 1.265 . S
O1130 C1129 1.227 . S
N1131 Co1128 2.121 . S
N1131 C1133 1.375 . S
N1131 C1134 1.313 . S
C1132 C1133 1.338 . S
C1132 N1135 1.377 . S
C1132 H1152 0.930 . S
C1133 N1131 1.375 . S
C1133 C1132 1.338 . S
C1133 H1137 0.931 . S
C1134 N1131 1.313 . S
C1134 N1135 1.344 . S
C1134 H1138 0.930 . S
N1135 C1132 1.377 . S
N1135 C1134 1.344 . S
O1136 Co1128 2.055 . S
O1136 C1140 1.253 . S
H1137 C1133 0.931 . S
H1138 C1134 0.930 . S
O1139 Co1128 2.039 . S
O1139 C1129 1.265 . S
C1140 O1136 1.253 . S
C1140 O1141 1.227 . S
O1141 C1140 1.227 . S
N1142 Co1128 2.140 . S
N1142 C1145 1.346 . S
N1142 C1146 1.345 . S
C1143 C1144 1.387 . S
C1143 C1147 1.391 . S
C1144 C1143 1.387 . S
C1144 C1145 1.369 . S
C1144 H1153 0.929 . S
C1145 N1142 1.346 . S
C1145 C1144 1.369 . S
C1145 H1148 0.928 . S
C1146 N1142 1.345 . S
C1146 C1147 1.371 . S
C1146 H1149 0.931 . S
C1147 C1143 1.391 . S
C1147 C1146 1.371 . S
C1147 H1154 0.930 . S
H1148 C1145 0.928 . S
H1149 C1146 0.931 . S
H1150 C1126 0.930 . S
H1151 C1123 0.930 . S
H1152 C1132 0.930 . S
H1153 C1144 0.929 . S
H1154 C1147 0.930 . S
C1155 C1156 1.351 . S
C1155 N1158 1.368 . S
C1155 H1160 0.931 . S
C1156 C1155 1.351 . S
C1156 N1157 1.373 . S
C1156 H1184 0.930 . S
N1157 C1156 1.373 . S
N1157 C1159 1.340 . S
N1158 C1155 1.368 . S
N1158 C1159 1.321 . S
N1158 Co1161 2.135 . S
C1159 N1157 1.340 . S
C1159 N1158 1.321 . S
C1159 H1183 0.930 . S
H1160 C1155 0.931 . S
Co1161 N1158 2.135 . S
Co1161 N1164 2.121 . S
Co1161 O1169 2.055 . S
Co1161 O1172 2.039 . S
Co1161 N1175 2.140 . S
C1162 O1163 1.227 . S
C1162 O1172 1.265 . S
O1163 C1162 1.227 . S
N1164 Co1161 2.121 . S
N1164 C1166 1.375 . S
N1164 C1167 1.313 . S
C1165 C1166 1.338 . S
C1165 N1168 1.377 . S
C1165 H1185 0.930 . S
C1166 N1164 1.375 . S
C1166 C1165 1.338 . S
C1166 H1170 0.931 . S
C1167 N1164 1.313 . S
C1167 N1168 1.344 . S
C1167 H1171 0.930 . S
N1168 C1165 1.377 . S
N1168 C1167 1.344 . S
O1169 Co1161 2.055 . S
O1169 C1173 1.253 . S
H1170 C1166 0.931 . S
H1171 C1167 0.930 . S
O1172 Co1161 2.039 . S
O1172 C1162 1.265 . S
C1173 O1169 1.253 . S
C1173 O1174 1.227 . S
O1174 C1173 1.227 . S
N1175 Co1161 2.140 . S
N1175 C1178 1.346 . S
N1175 C1179 1.345 . S
C1176 C1177 1.387 . S
C1176 C1180 1.391 . S
C1177 C1176 1.387 . S
C1177 C1178 1.369 . S
C1177 H1186 0.929 . S
C1178 N1175 1.346 . S
C1178 C1177 1.369 . S
C1178 H1181 0.928 . S
C1179 N1175 1.345 . S
C1179 C1180 1.371 . S
C1179 H1182 0.931 . S
C1180 C1176 1.391 . S
C1180 C1179 1.371 . S
C1180 H1187 0.930 . S
H1181 C1178 0.928 . S
H1182 C1179 0.931 . S
H1183 C1159 0.930 . S
H1184 C1156 0.930 . S
H1185 C1165 0.930 . S
H1186 C1177 0.929 . S
H1187 C1180 0.930 . S
C1188 C1189 1.349 . S
C1188 C1190 1.327 . S
C1188 H1213 0.950 . S
C1189 C1188 1.349 . S
C1189 C1205 1.349 . S
C1190 C1188 1.327 . S
C1190 C1209 1.429 . S
C1190 H1214 0.950 . S
C1191 C1208 1.574 . S
C1191 C1210 1.368 . S
C1191 H1215 0.949 . S
H1192 C1196 0.949 . S
C1193 C1194 1.349 1_545 S
C1193 C1195 1.327 . S
C1193 H1216 0.950 . S
C1194 C1193 1.349 1_565 S
C1194 C1206 1.349 . S
C1195 C1193 1.327 . S
C1195 C1211 1.429 . S
C1195 H1217 0.950 . S
C1196 H1192 0.949 . S
C1196 C1204 1.574 . S
C1196 C1212 1.368 . S
H1197 C1205 0.950 . S
H1198 C1203 0.950 . S
H1199 C1204 0.949 . S
H1200 C1206 0.950 . S
H1201 C1207 0.950 . S
H1202 C1208 0.949 . S
C1203 H1198 0.950 . S
C1203 C1205 1.327 . S
C1203 C1209 1.429 . S
C1204 C1196 1.574 . S
C1204 H1199 0.949 . S
C1204 C1210 1.368 . S
C1205 C1189 1.349 . S
C1205 H1197 0.950 . S
C1205 C1203 1.327 . S
C1206 C1194 1.349 . S
C1206 H1200 0.950 . S
C1206 C1207 1.327 1_565 S
C1207 H1201 0.950 . S
C1207 C1206 1.327 1_545 S
C1207 C1211 1.429 . S
C1208 C1191 1.574 . S
C1208 H1202 0.949 . S
C1208 C1212 1.368 . S
C1209 C1190 1.429 . S
C1209 C1203 1.429 . S
C1209 C1210 1.523 . S
C1210 C1191 1.368 . S
C1210 C1204 1.368 . S
C1210 C1209 1.523 . S
C1211 C1195 1.429 . S
C1211 C1207 1.429 . S
C1211 C1212 1.523 . S
C1212 C1196 1.368 . S
C1212 C1208 1.368 . S
C1212 C1211 1.523 . S
H1213 C1188 0.950 . S
H1214 C1190 0.950 . S
H1215 C1191 0.949 . S
H1216 C1193 0.950 . S
H1217 C1195 0.950 . S
C1218 C1219 1.349 1_655 S
C1218 C1220 1.327 . S
C1218 H1243 0.950 . S
C1219 C1218 1.349 1_455 S
C1219 C1235 1.349 . S
C1220 C1218 1.327 . S
C1220 C1239 1.429 . S
C1220 H1244 0.950 . S
C1221 C1238 1.574 . S
C1221 C1240 1.368 . S
C1221 H1245 0.949 . S
H1222 C1226 0.949 . S
C1223 C1224 1.349 . S
C1223 C1225 1.327 . S
C1223 H1246 0.950 . S
C1224 C1223 1.349 . S
C1224 C1236 1.349 . S
C1225 C1223 1.327 . S
C1225 C1241 1.429 . S
C1225 H1247 0.950 . S
C1226 H1222 0.949 . S
C1226 C1234 1.574 . S
C1226 C1242 1.368 . S
H1227 C1235 0.950 . S
H1228 C1233 0.950 . S
H1229 C1234 0.949 . S
H1230 C1236 0.950 . S
H1231 C1237 0.950 1_545 S
H1232 C1238 0.949 . S
C1233 H1228 0.950 . S
C1233 C1235 1.327 1_655 S
C1233 C1239 1.429 . S
C1234 C1226 1.574 . S
C1234 H1229 0.949 . S
C1234 C1240 1.368 . S
C1235 C1219 1.349 . S
C1235 H1227 0.950 . S
C1235 C1233 1.327 1_455 S
C1236 C1224 1.349 . S
C1236 H1230 0.950 . S
C1236 C1237 1.327 . S
C1237 H1231 0.950 1_565 S
C1237 C1236 1.327 . S
C1237 C1241 1.429 . S
C1238 C1221 1.574 . S
C1238 H1232 0.949 . S
C1238 C1242 1.368 . S
C1239 C1220 1.429 . S
C1239 C1233 1.429 . S
C1239 C1240 1.523 . S
C1240 C1221 1.368 . S
C1240 C1234 1.368 . S
C1240 C1239 1.523 . S
C1241 C1225 1.429 . S
C1241 C1237 1.429 . S
C1241 C1242 1.523 1_565 S
C1242 C1226 1.368 . S
C1242 C1238 1.368 . S
C1242 C1241 1.523 1_545 S
H1243 C1218 0.950 . S
H1244 C1220 0.950 . S
H1245 C1221 0.949 . S
H1246 C1223 0.950 . S
H1247 C1225 0.950 . S
C1248 C1249 1.349 . S
C1248 C1250 1.327 . S
C1248 H1273 0.950 . S
C1249 C1248 1.349 . S
C1249 C1265 1.349 . S
C1250 C1248 1.327 . S
C1250 C1269 1.429 . S
C1250 H1274 0.950 . S
C1251 C1268 1.574 . S
C1251 C1270 1.368 . S
C1251 H1275 0.949 . S
H1252 C1256 0.949 . S
C1253 C1254 1.349 . S
C1253 C1255 1.327 . S
C1253 H1276 0.950 . S
C1254 C1253 1.349 . S
C1254 C1266 1.349 . S
C1255 C1253 1.327 . S
C1255 C1271 1.429 . S
C1255 H1277 0.931 1_455 S
C1256 H1252 0.949 . S
C1256 C1264 1.574 . S
C1256 C1272 1.368 . S
H1257 C1265 0.950 . S
H1258 C1263 0.950 . S
H1259 C1264 0.949 . S
H1260 C1266 0.950 . S
H1261 C1267 0.950 . S
H1262 C1268 0.949 . S
C1263 H1258 0.950 . S
C1263 C1265 1.327 . S
C1263 C1269 1.429 . S
C1264 C1256 1.574 . S
C1264 H1259 0.949 . S
C1264 C1270 1.368 . S
C1265 C1249 1.349 . S
C1265 H1257 0.950 . S
C1265 C1263 1.327 . S
C1266 C1254 1.349 . S
C1266 H1260 0.950 . S
C1266 C1267 1.327 . S
C1267 H1261 0.950 . S
C1267 C1266 1.327 . S
C1267 C1271 1.429 . S
C1268 C1251 1.574 . S
C1268 H1262 0.949 . S
C1268 C1272 1.368 . S
C1269 C1250 1.429 . S
C1269 C1263 1.429 . S
C1269 C1270 1.523 . S
C1270 C1251 1.368 . S
C1270 C1264 1.368 . S
C1270 C1269 1.523 . S
C1271 C1255 1.429 . S
C1271 C1267 1.429 . S
C1271 C1272 1.523 1_455 S
C1272 C1256 1.368 . S
C1272 C1268 1.368 . S
C1272 C1271 1.523 1_655 S
H1273 C1248 0.950 . S
H1274 C1250 0.950 . S
H1275 C1251 0.949 . S
H1276 C1253 0.950 . S
H1277 C1255 0.931 1_655 S
C1278 C1279 1.349 . S
C1278 C1280 1.327 1_655 S
C1278 H1303 0.950 . S
C1279 C1278 1.349 . S
C1279 C1295 1.349 1_655 S
C1280 C1278 1.327 1_455 S
C1280 C1299 1.429 . S
C1280 H1304 0.950 . S
C1281 C1298 1.574 . S
C1281 C1300 1.368 . S
C1281 H1305 0.949 . S
H1282 C1286 0.949 . S
C1283 C1284 1.349 . S
C1283 C1285 1.327 . S
C1283 H1306 0.950 . S
C1284 C1283 1.349 . S
C1284 C1296 1.349 . S
C1285 C1283 1.327 . S
C1285 C1301 1.429 . S
C1285 H1307 0.950 . S
C1286 H1282 0.949 . S
C1286 C1294 1.574 . S
C1286 C1302 1.368 . S
H1287 C1295 0.950 . S
H1288 C1293 0.950 . S
H1289 C1294 0.949 . S
H1290 C1296 0.950 . S
H1291 C1297 0.950 . S
H1292 C1298 0.949 . S
C1293 H1288 0.950 . S
C1293 C1295 1.327 . S
C1293 C1299 1.429 . S
C1294 C1286 1.574 . S
C1294 H1289 0.949 . S
C1294 C1300 1.368 . S
C1295 C1279 1.349 1_455 S
C1295 H1287 0.950 . S
C1295 C1293 1.327 . S
C1296 C1284 1.349 . S
C1296 H1290 0.950 . S
C1296 C1297 1.327 . S
C1297 H1291 0.950 . S
C1297 C1296 1.327 . S
C1297 C1301 1.429 . S
C1298 C1281 1.574 . S
C1298 H1292 0.949 . S
C1298 C1302 1.368 . S
C1299 C1280 1.429 . S
C1299 C1293 1.429 . S
C1299 C1300 1.523 . S
C1300 C1281 1.368 . S
C1300 C1294 1.368 . S
C1300 C1299 1.523 . S
C1301 C1285 1.429 . S
C1301 C1297 1.429 . S
C1301 C1302 1.523 . S
C1302 C1286 1.368 . S
C1302 C1298 1.368 . S
C1302 C1301 1.523 . S
H1303 C1278 0.950 . S
H1304 C1280 0.950 . S
H1305 C1281 0.949 . S
H1306 C1283 0.950 . S
H1307 C1285 0.950 . S
C1308 C1309 1.349 . S
C1308 C1310 1.327 . S
C1308 H1333 0.950 . S
C1309 C1308 1.349 . S
C1309 C1325 1.349 . S
C1310 C1308 1.327 . S
C1310 C1329 1.429 . S
C1310 H1334 0.950 . S
C1311 C1328 1.574 . S
C1311 C1330 1.368 . S
C1311 H1335 0.949 . S
H1312 C1316 0.949 . S
C1313 C1314 1.349 . S
C1313 C1315 1.327 . S
C1313 H1336 0.950 . S
C1314 C1313 1.349 . S
C1314 C1326 1.349 . S
C1315 C1313 1.327 . S
C1315 C1331 1.429 . S
C1315 H1337 0.950 . S
C1316 H1312 0.949 . S
C1316 C1324 1.574 . S
C1316 C1332 1.368 . S
H1317 C1325 0.950 . S
H1318 C1323 0.950 . S
H1319 C1324 0.949 . S
H1320 C1326 0.950 . S
H1321 C1327 0.950 1_565 S
H1322 C1328 0.949 . S
C1323 H1318 0.950 . S
C1323 C1325 1.327 . S
C1323 C1329 1.429 . S
C1324 C1316 1.574 . S
C1324 H1319 0.949 . S
C1324 C1330 1.368 . S
C1325 C1309 1.349 . S
C1325 H1317 0.950 . S
C1325 C1323 1.327 . S
C1326 C1314 1.349 . S
C1326 H1320 0.950 . S
C1326 C1327 1.327 . S
C1327 H1321 0.950 1_545 S
C1327 C1326 1.327 . S
C1327 C1331 1.429 . S
C1328 C1311 1.574 . S
C1328 H1322 0.949 . S
C1328 C1332 1.368 . S
C1329 C1310 1.429 . S
C1329 C1323 1.429 . S
C1329 C1330 1.523 . S
C1330 C1311 1.368 . S
C1330 C1324 1.368 . S
C1330 C1329 1.523 . S
C1331 C1315 1.429 . S
C1331 C1327 1.429 . S
C1331 C1332 1.523 1_545 S
C1332 C1316 1.368 . S
C1332 C1328 1.368 . S
C1332 C1331 1.523 1_565 S
H1333 C1308 0.950 . S
H1334 C1310 0.950 . S
H1335 C1311 0.949 . S
H1336 C1313 0.950 . S
H1337 C1315 0.950 . S
C1338 C1339 1.349 . S
C1338 C1340 1.327 1_545 S
C1338 H1363 0.950 . S
C1339 C1338 1.349 . S
C1339 C1355 1.349 1_545 S
C1340 C1338 1.327 1_565 S
C1340 C1359 1.429 . S
C1340 H1364 0.950 . S
C1341 C1358 1.574 . S
C1341 C1360 1.368 . S
C1341 H1365 0.949 . S
H1342 C1346 0.949 . S
C1343 C1344 1.349 . S
C1343 C1345 1.327 . S
C1343 H1366 0.950 . S
C1344 C1343 1.349 . S
C1344 C1356 1.349 . S
C1345 C1343 1.327 . S
C1345 C1361 1.429 . S
C1345 H1367 0.950 1_655 S
C1346 H1342 0.949 . S
C1346 C1354 1.574 . S
C1346 C1362 1.368 . S
H1347 C1355 0.950 . S
H1348 C1353 0.950 . S
H1349 C1354 0.949 . S
H1350 C1356 0.950 . S
H1351 C1357 0.950 . S
H1352 C1358 0.949 . S
C1353 H1348 0.950 . S
C1353 C1355 1.327 . S
C1353 C1359 1.429 . S
C1354 C1346 1.574 . S
C1354 H1349 0.949 . S
C1354 C1360 1.368 . S
C1355 C1339 1.349 1_565 S
C1355 H1347 0.950 . S
C1355 C1353 1.327 . S
C1356 C1344 1.349 . S
C1356 H1350 0.950 . S
C1356 C1357 1.327 . S
C1357 H1351 0.950 . S
C1357 C1356 1.327 . S
C1357 C1361 1.429 . S
C1358 C1341 1.574 . S
C1358 H1352 0.949 . S
C1358 C1362 1.368 . S
C1359 C1340 1.429 . S
C1359 C1353 1.429 . S
C1359 C1360 1.523 . S
C1360 C1341 1.368 . S
C1360 C1354 1.368 . S
C1360 C1359 1.523 . S
C1361 C1345 1.429 . S
C1361 C1357 1.429 . S
C1361 C1362 1.523 1_655 S
C1362 C1346 1.368 . S
C1362 C1358 1.368 . S
C1362 C1361 1.523 1_455 S
H1363 C1338 0.950 . S
H1364 C1340 0.950 . S
H1365 C1341 0.949 . S
H1366 C1343 0.950 . S
H1367 C1345 0.950 1_455 S
C1368 C1369 1.349 1_565 S
C1368 C1370 1.327 . S
C1368 H1393 0.950 . S
C1369 C1368 1.349 1_545 S
C1369 C1385 1.349 . S
C1370 C1368 1.327 . S
C1370 C1389 1.429 . S
C1370 H1394 0.950 . S
C1371 C1388 1.574 . S
C1371 C1390 1.368 . S
C1371 H1395 0.949 . S
H1372 C1376 0.949 . S
C1373 C1374 1.349 . S
C1373 C1375 1.327 . S
C1373 H1396 0.950 . S
C1374 C1373 1.349 . S
C1374 C1386 1.349 . S
C1375 C1373 1.327 . S
C1375 C1391 1.429 . S
C1375 H1397 0.950 . S
C1376 H1372 0.949 . S
C1376 C1384 1.574 . S
C1376 C1392 1.368 . S
H1377 C1385 0.950 . S
H1378 C1383 0.950 . S
H1379 C1384 0.949 . S
H1380 C1386 0.950 . S
H1381 C1387 0.950 . S
H1382 C1388 0.949 . S
C1383 H1378 0.950 . S
C1383 C1385 1.327 1_565 S
C1383 C1389 1.429 . S
C1384 C1376 1.574 . S
C1384 H1379 0.949 . S
C1384 C1390 1.368 . S
C1385 C1369 1.349 . S
C1385 H1377 0.950 . S
C1385 C1383 1.327 1_545 S
C1386 C1374 1.349 . S
C1386 H1380 0.950 . S
C1386 C1387 1.327 . S
C1387 H1381 0.950 . S
C1387 C1386 1.327 . S
C1387 C1391 1.429 . S
C1388 C1371 1.574 . S
C1388 H1382 0.949 . S
C1388 C1392 1.368 . S
C1389 C1370 1.429 . S
C1389 C1383 1.429 . S
C1389 C1390 1.523 . S
C1390 C1371 1.368 . S
C1390 C1384 1.368 . S
C1390 C1389 1.523 . S
C1391 C1375 1.429 . S
C1391 C1387 1.429 . S
C1391 C1392 1.523 . S
C1392 C1376 1.368 . S
C1392 C1388 1.368 . S
C1392 C1391 1.523 . S
H1393 C1368 0.950 . S
H1394 C1370 0.950 . S
H1395 C1371 0.949 . S
H1396 C1373 0.950 . S
H1397 C1375 0.950 . S
C1398 C1399 1.349 . S
C1398 C1400 1.327 . S
C1398 H1423 0.950 . S
C1399 C1398 1.349 . S
C1399 C1415 1.349 . S
C1400 C1398 1.327 . S
C1400 C1419 1.429 . S
C1400 H1424 0.950 . S
C1401 C1418 1.574 . S
C1401 C1420 1.368 . S
C1401 H1425 0.949 . S
H1402 C1406 0.949 . S
C1403 C1404 1.349 1_455 S
C1403 C1405 1.327 . S
C1403 H1426 0.950 . S
C1404 C1403 1.349 1_655 S
C1404 C1416 1.349 . S
C1405 C1403 1.327 . S
C1405 C1421 1.429 . S
C1405 H1427 0.950 . S
C1406 H1402 0.949 . S
C1406 C1414 1.574 . S
C1406 C1422 1.368 . S
H1407 C1415 0.950 . S
H1408 C1413 0.950 1_565 S
H1409 C1414 0.949 . S
H1410 C1416 0.950 . S
H1411 C1417 0.950 . S
H1412 C1418 0.949 . S
C1413 H1408 0.950 1_545 S
C1413 C1415 1.327 . S
C1413 C1419 1.429 . S
C1414 C1406 1.574 . S
C1414 H1409 0.949 . S
C1414 C1420 1.368 . S
C1415 C1399 1.349 . S
C1415 H1407 0.950 . S
C1415 C1413 1.327 . S
C1416 C1404 1.349 . S
C1416 H1410 0.950 . S
C1416 C1417 1.327 1_655 S
C1417 H1411 0.950 . S
C1417 C1416 1.327 1_455 S
C1417 C1421 1.429 . S
C1418 C1401 1.574 . S
C1418 H1412 0.949 . S
C1418 C1422 1.368 . S
C1419 C1400 1.429 . S
C1419 C1413 1.429 . S
C1419 C1420 1.523 1_545 S
C1420 C1401 1.368 . S
C1420 C1414 1.368 . S
C1420 C1419 1.523 1_565 S
C1421 C1405 1.429 . S
C1421 C1417 1.429 . S
C1421 C1422 1.523 . S
C1422 C1406 1.368 . S
C1422 C1418 1.368 . S
C1422 C1421 1.523 . S
H1423 C1398 0.950 . S
H1424 C1400 0.950 . S
H1425 C1401 0.949 . S
H1426 C1403 0.950 . S
H1427 C1405 0.950 . S
C1428 C1429 1.349 . S
C1428 C1430 1.327 . S
C1428 H1453 0.950 . S
C1429 C1428 1.349 . S
C1429 C1445 1.349 . S
C1430 C1428 1.327 . S
C1430 C1449 1.429 . S
C1430 H1454 0.950 . S
C1431 C1448 1.574 . S
C1431 C1450 1.368 . S
C1431 H1455 0.949 . S
H1432 C1436 0.949 . S
C1433 C1434 1.349 . S
C1433 C1435 1.327 . S
C1433 H1456 0.950 . S
C1434 C1433 1.349 . S
C1434 C1446 1.349 . S
C1435 C1433 1.327 . S
C1435 C1451 1.429 . S
C1435 H1457 0.950 1_655 S
C1436 H1432 0.949 . S
C1436 C1444 1.574 . S
C1436 C1452 1.368 . S
H1437 C1445 0.950 . S
H1438 C1443 0.950 . S
H1439 C1444 0.949 . S
H1440 C1446 0.950 . S
H1441 C1447 0.950 . S
H1442 C1448 0.949 . S
C1443 H1438 0.950 . S
C1443 C1445 1.327 . S
C1443 C1449 1.429 . S
C1444 C1436 1.574 . S
C1444 H1439 0.949 . S
C1444 C1450 1.368 . S
C1445 C1429 1.349 . S
C1445 H1437 0.950 . S
C1445 C1443 1.327 . S
C1446 C1434 1.349 . S
C1446 H1440 0.950 . S
C1446 C1447 1.327 . S
C1447 H1441 0.950 . S
C1447 C1446 1.327 . S
C1447 C1451 1.429 . S
C1448 C1431 1.574 . S
C1448 H1442 0.949 . S
C1448 C1452 1.368 . S
C1449 C1430 1.429 . S
C1449 C1443 1.429 . S
C1449 C1450 1.523 . S
C1450 C1431 1.368 . S
C1450 C1444 1.368 . S
C1450 C1449 1.523 . S
C1451 C1435 1.429 . S
C1451 C1447 1.429 . S
C1451 C1452 1.523 1_655 S
C1452 C1436 1.368 . S
C1452 C1448 1.368 . S
C1452 C1451 1.523 1_455 S
H1453 C1428 0.950 . S
H1454 C1430 0.950 . S
H1455 C1431 0.949 . S
H1456 C1433 0.950 . S
H1457 C1435 0.950 1_455 S
C1458 C1459 1.349 . S
C1458 C1460 1.327 1_455 S
C1458 H1483 0.950 . S
C1459 C1458 1.349 . S
C1459 C1475 1.349 1_455 S
C1460 C1458 1.327 1_655 S
C1460 C1479 1.429 . S
C1460 H1484 0.950 . S
C1461 C1478 1.574 . S
C1461 C1480 1.368 . S
C1461 H1485 0.949 . S
H1462 C1466 0.949 . S
C1463 C1464 1.349 . S
C1463 C1465 1.327 . S
C1463 H1486 0.950 . S
C1464 C1463 1.349 . S
C1464 C1476 1.349 . S
C1465 C1463 1.327 . S
C1465 C1481 1.429 . S
C1465 H1487 0.950 . S
C1466 H1462 0.949 . S
C1466 C1474 1.574 . S
C1466 C1482 1.368 . S
H1467 C1475 0.962 . S
H1468 C1473 0.950 . S
H1469 C1474 0.949 . S
H1470 C1476 0.950 . S
H1471 C1477 0.950 . S
H1472 C1478 0.949 . S
C1473 H1468 0.950 . S
C1473 C1475 1.327 . S
C1473 C1479 1.429 . S
C1474 C1466 1.574 . S
C1474 H1469 0.949 . S
C1474 C1480 1.368 . S
C1475 C1459 1.349 1_655 S
C1475 H1467 0.962 . S
C1475 C1473 1.327 . S
C1476 C1464 1.349 . S
C1476 H1470 0.950 . S
C1476 C1477 1.327 . S
C1477 H1471 0.950 . S
C1477 C1476 1.327 . S
C1477 C1481 1.429 . S
C1478 C1461 1.574 . S
C1478 H1472 0.949 . S
C1478 C1482 1.368 . S
C1479 C1460 1.429 . S
C1479 C1473 1.429 . S
C1479 C1480 1.523 . S
C1480 C1461 1.368 . S
C1480 C1474 1.368 . S
C1480 C1479 1.523 . S
C1481 C1465 1.429 . S
C1481 C1477 1.429 . S
C1481 C1482 1.523 . S
C1482 C1466 1.368 . S
C1482 C1478 1.368 . S
C1482 C1481 1.523 . S
H1483 C1458 0.950 . S
H1484 C1460 0.950 . S
H1485 C1461 0.949 . S
H1486 C1463 0.950 . S
H1487 C1465 0.950 . S
C1488 C1489 1.349 . S
C1488 C1490 1.327 . S
C1488 H1513 0.950 . S
C1489 C1488 1.349 . S
C1489 C1505 1.349 . S
C1490 C1488 1.327 . S
C1490 C1509 1.429 . S
C1490 H1514 0.950 1_565 S
C1491 C1508 1.574 . S
C1491 C1510 1.368 . S
C1491 H1515 0.949 . S
H1492 C1496 0.949 . S
C1493 C1494 1.349 . S
C1493 C1495 1.327 . S
C1493 H1516 0.950 . S
C1494 C1493 1.349 . S
C1494 C1506 1.349 . S
C1495 C1493 1.327 . S
C1495 C1511 1.429 . S
C1495 H1517 0.950 . S
C1496 H1492 0.949 . S
C1496 C1504 1.574 . S
C1496 C1512 1.368 . S
H1497 C1505 0.950 . S
H1498 C1503 0.950 . S
H1499 C1504 0.949 . S
H1500 C1506 0.950 . S
H1501 C1507 0.950 . S
H1502 C1508 0.949 . S
C1503 H1498 0.950 . S
C1503 C1505 1.327 . S
C1503 C1509 1.429 . S
C1504 C1496 1.574 . S
C1504 H1499 0.949 . S
C1504 C1510 1.368 . S
C1505 C1489 1.349 . S
C1505 H1497 0.950 . S
C1505 C1503 1.327 . S
C1506 C1494 1.349 . S
C1506 H1500 0.950 . S
C1506 C1507 1.327 . S
C1507 H1501 0.950 . S
C1507 C1506 1.327 . S
C1507 C1511 1.429 . S
C1508 C1491 1.574 . S
C1508 H1502 0.949 . S
C1508 C1512 1.368 . S
C1509 C1490 1.429 . S
C1509 C1503 1.429 . S
C1509 C1510 1.523 1_565 S
C1510 C1491 1.368 . S
C1510 C1504 1.368 . S
C1510 C1509 1.523 1_545 S
C1511 C1495 1.429 . S
C1511 C1507 1.429 . S
C1511 C1512 1.523 . S
C1512 C1496 1.368 . S
C1512 C1508 1.368 . S
C1512 C1511 1.523 . S
H1513 C1488 0.950 . S
H1514 C1490 0.950 1_545 S
H1515 C1491 0.949 . S
H1516 C1493 0.950 . S
H1517 C1495 0.950 . S
C1518 C1519 1.349 1_545 S
C1518 C1520 1.327 . S
C1518 H1543 0.950 . S
C1519 C1518 1.349 1_565 S
C1519 C1535 1.349 . S
C1520 C1518 1.327 . S
C1520 C1539 1.429 . S
C1520 H1544 0.950 . S
C1521 C1538 1.574 . S
C1521 C1540 1.368 . S
C1521 H1545 0.949 . S
H1522 C1526 0.949 . S
C1523 C1524 1.349 . S
C1523 C1525 1.327 . S
C1523 H1546 0.950 . S
C1524 C1523 1.349 . S
C1524 C1536 1.349 . S
C1525 C1523 1.327 . S
C1525 C1541 1.429 . S
C1525 H1547 0.950 . S
C1526 H1522 0.949 . S
C1526 C1534 1.574 . S
C1526 C1542 1.368 . S
H1527 C1535 0.950 . S
H1528 C1533 0.950 . S
H1529 C1534 0.949 . S
H1530 C1536 0.950 . S
H1531 C1537 0.950 . S
H1532 C1538 0.949 . S
C1533 H1528 0.950 . S
C1533 C1535 1.327 1_545 S
C1533 C1539 1.429 . S
C1534 C1526 1.574 . S
C1534 H1529 0.949 . S
C1534 C1540 1.368 . S
C1535 C1519 1.349 . S
C1535 H1527 0.950 . S
C1535 C1533 1.327 1_565 S
C1536 C1524 1.349 . S
C1536 H1530 0.950 . S
C1536 C1537 1.327 . S
C1537 H1531 0.950 . S
C1537 C1536 1.327 . S
C1537 C1541 1.429 . S
C1538 C1521 1.574 . S
C1538 H1532 0.949 . S
C1538 C1542 1.368 . S
C1539 C1520 1.429 . S
C1539 C1533 1.429 . S
C1539 C1540 1.523 . S
C1540 C1521 1.368 . S
C1540 C1534 1.368 . S
C1540 C1539 1.523 . S
C1541 C1525 1.429 . S
C1541 C1537 1.429 . S
C1541 C1542 1.523 1_455 S
C1542 C1526 1.368 . S
C1542 C1538 1.368 . S
C1542 C1541 1.523 1_655 S
H1543 C1518 0.950 . S
H1544 C1520 0.950 . S
H1545 C1521 0.949 . S
H1546 C1523 0.950 . S
H1547 C1525 0.950 . S
C1548 C1549 1.349 . S
C1548 C1550 1.327 . S
C1548 H1573 0.950 . S
C1549 C1548 1.349 . S
C1549 C1565 1.349 . S
C1550 C1548 1.327 . S
C1550 C1569 1.429 . S
C1550 H1574 0.950 . S
C1551 C1568 1.574 . S
C1551 C1570 1.368 . S
C1551 H1575 0.949 . S
H1552 C1556 0.949 . S
C1553 C1554 1.349 . S
C1553 C1555 1.327 . S
C1553 H1576 0.950 . S
C1554 C1553 1.349 . S
C1554 C1566 1.349 . S
C1555 C1553 1.327 . S
C1555 C1571 1.429 . S
C1555 H1577 0.950 . S
C1556 H1552 0.949 . S
C1556 C1564 1.574 . S
C1556 C1572 1.368 . S
H1557 C1565 0.950 . S
H1558 C1563 0.950 . S
H1559 C1564 0.949 . S
H1560 C1566 0.950 . S
H1561 C1567 0.950 . S
H1562 C1568 0.949 . S
C1563 H1558 0.950 . S
C1563 C1565 1.327 . S
C1563 C1569 1.429 . S
C1564 C1556 1.574 . S
C1564 H1559 0.949 . S
C1564 C1570 1.368 . S
C1565 C1549 1.349 . S
C1565 H1557 0.950 . S
C1565 C1563 1.327 . S
C1566 C1554 1.349 . S
C1566 H1560 0.950 . S
C1566 C1567 1.327 . S
C1567 H1561 0.950 . S
C1567 C1566 1.327 . S
C1567 C1571 1.429 . S
C1568 C1551 1.574 . S
C1568 H1562 0.949 . S
C1568 C1572 1.368 . S
C1569 C1550 1.429 . S
C1569 C1563 1.429 . S
C1569 C1570 1.523 . S
C1570 C1551 1.368 . S
C1570 C1564 1.368 . S
C1570 C1569 1.523 . S
C1571 C1555 1.429 . S
C1571 C1567 1.429 . S
C1571 C1572 1.523 . S
C1572 C1556 1.368 . S
C1572 C1568 1.368 . S
C1572 C1571 1.523 . S
H1573 C1548 0.950 . S
H1574 C1550 0.950 . S
H1575 C1551 0.949 . S
H1576 C1553 0.950 . S
H1577 C1555 0.950 . S
C1578 C1579 1.349 . S
C1578 C1580 1.327 . S
C1578 H1603 0.950 . S
C1579 C1578 1.349 . S
C1579 C1595 1.349 . S
C1580 C1578 1.327 . S
C1580 C1599 1.429 . S
C1580 H1604 0.950 . S
C1581 C1598 1.574 . S
C1581 C1600 1.368 . S
C1581 H1605 0.949 . S
H1582 C1586 0.949 . S
C1583 C1584 1.349 . S
C1583 C1585 1.327 . S
C1583 H1606 0.950 . S
C1584 C1583 1.349 . S
C1584 C1596 1.349 . S
C1585 C1583 1.327 . S
C1585 C1601 1.429 . S
C1585 H1607 0.950 . S
C1586 H1582 0.949 . S
C1586 C1594 1.574 . S
C1586 C1602 1.368 . S
H1587 C1595 0.950 . S
H1588 C1593 0.950 . S
H1589 C1594 0.949 . S
H1590 C1596 0.950 . S
H1591 C1597 0.950 . S
H1592 C1598 0.949 . S
C1593 H1588 0.950 . S
C1593 C1595 1.327 . S
C1593 C1599 1.429 . S
C1594 C1586 1.574 . S
C1594 H1589 0.949 . S
C1594 C1600 1.368 . S
C1595 C1579 1.349 . S
C1595 H1587 0.950 . S
C1595 C1593 1.327 . S
C1596 C1584 1.349 . S
C1596 H1590 0.950 . S
C1596 C1597 1.327 . S
C1597 H1591 0.950 . S
C1597 C1596 1.327 . S
C1597 C1601 1.429 . S
C1598 C1581 1.574 . S
C1598 H1592 0.949 . S
C1598 C1602 1.368 . S
C1599 C1580 1.429 . S
C1599 C1593 1.429 . S
C1599 C1600 1.523 . S
C1600 C1581 1.368 . S
C1600 C1594 1.368 . S
C1600 C1599 1.523 . S
C1601 C1585 1.429 . S
C1601 C1597 1.429 . S
C1601 C1602 1.523 . S
C1602 C1586 1.368 . S
C1602 C1598 1.368 . S
C1602 C1601 1.523 . S
H1603 C1578 0.950 . S
H1604 C1580 0.950 . S
H1605 C1581 0.949 . S
H1606 C1583 0.950 . S
H1607 C1585 0.950 . S
C1608 C1609 1.349 . S
C1608 C1610 1.327 . S
C1608 H1633 0.950 . S
C1609 C1608 1.349 . S
C1609 C1625 1.349 . S
C1610 C1608 1.327 . S
C1610 C1629 1.429 . S
C1610 H1634 0.950 . S
C1611 C1628 1.574 . S
C1611 C1630 1.368 . S
C1611 H1635 0.949 . S
H1612 C1616 0.949 . S
C1613 C1614 1.349 . S
C1613 C1615 1.327 . S
C1613 H1636 0.950 . S
C1614 C1613 1.349 . S
C1614 C1626 1.349 . S
C1615 C1613 1.327 . S
C1615 C1631 1.429 . S
C1615 H1637 0.950 . S
C1616 H1612 0.949 . S
C1616 C1624 1.574 . S
C1616 C1632 1.368 . S
H1617 C1625 0.950 . S
H1618 C1623 0.950 . S
H1619 C1624 0.949 . S
H1620 C1626 0.950 . S
H1621 C1627 0.950 . S
H1622 C1628 0.949 . S
C1623 H1618 0.950 . S
C1623 C1625 1.327 . S
C1623 C1629 1.429 . S
C1624 C1616 1.574 . S
C1624 H1619 0.949 . S
C1624 C1630 1.368 . S
C1625 C1609 1.349 . S
C1625 H1617 0.950 . S
C1625 C1623 1.327 . S
C1626 C1614 1.349 . S
C1626 H1620 0.950 . S
C1626 C1627 1.327 . S
C1627 H1621 0.950 . S
C1627 C1626 1.327 . S
C1627 C1631 1.429 . S
C1628 C1611 1.574 . S
C1628 H1622 0.949 . S
C1628 C1632 1.368 . S
C1629 C1610 1.429 . S
C1629 C1623 1.429 . S
C1629 C1630 1.523 . S
C1630 C1611 1.368 . S
C1630 C1624 1.368 . S
C1630 C1629 1.523 . S
C1631 C1615 1.429 . S
C1631 C1627 1.429 . S
C1631 C1632 1.523 . S
C1632 C1616 1.368 . S
C1632 C1628 1.368 . S
C1632 C1631 1.523 . S
H1633 C1608 0.950 . S
H1634 C1610 0.950 . S
H1635 C1611 0.949 . S
H1636 C1613 0.950 . S
H1637 C1615 0.950 . S
C1638 C1639 1.349 . S
C1638 C1640 1.327 . S
C1638 H1663 0.950 . S
C1639 C1638 1.349 . S
C1639 C1655 1.349 . S
C1640 C1638 1.327 . S
C1640 C1659 1.429 . S
C1640 H1664 0.950 . S
C1641 C1658 1.574 . S
C1641 C1660 1.368 . S
C1641 H1665 0.949 . S
H1642 C1646 0.949 . S
C1643 C1644 1.349 . S
C1643 C1645 1.327 . S
C1643 H1666 0.950 . S
C1644 C1643 1.349 . S
C1644 C1656 1.349 . S
C1645 C1643 1.327 . S
C1645 C1661 1.429 . S
C1645 H1667 0.950 . S
C1646 H1642 0.949 . S
C1646 C1654 1.574 . S
C1646 C1662 1.368 . S
H1647 C1655 0.950 . S
H1648 C1653 0.950 . S
H1649 C1654 0.949 . S
H1650 C1656 0.950 . S
H1651 C1657 0.950 . S
H1652 C1658 0.949 . S
C1653 H1648 0.950 . S
C1653 C1655 1.327 . S
C1653 C1659 1.429 . S
C1654 C1646 1.574 . S
C1654 H1649 0.949 . S
C1654 C1660 1.368 . S
C1655 C1639 1.349 . S
C1655 H1647 0.950 . S
C1655 C1653 1.327 . S
C1656 C1644 1.349 . S
C1656 H1650 0.950 . S
C1656 C1657 1.327 . S
C1657 H1651 0.950 . S
C1657 C1656 1.327 . S
C1657 C1661 1.429 . S
C1658 C1641 1.574 . S
C1658 H1652 0.949 . S
C1658 C1662 1.368 . S
C1659 C1640 1.429 . S
C1659 C1653 1.429 . S
C1659 C1660 1.523 . S
C1660 C1641 1.368 . S
C1660 C1654 1.368 . S
C1660 C1659 1.523 . S
C1661 C1645 1.429 . S
C1661 C1657 1.429 . S
C1661 C1662 1.523 . S
C1662 C1646 1.368 . S
C1662 C1658 1.368 . S
C1662 C1661 1.523 . S
H1663 C1638 0.950 . S
H1664 C1640 0.950 . S
H1665 C1641 0.949 . S
H1666 C1643 0.950 . S
H1667 C1645 0.950 . S
C1668 C1669 1.349 . S
C1668 C1670 1.327 . S
C1668 H1693 0.950 . S
C1669 C1668 1.349 . S
C1669 C1685 1.349 . S
C1670 C1668 1.327 . S
C1670 C1689 1.429 . S
C1670 H1694 0.950 . S
C1671 C1688 1.574 . S
C1671 C1690 1.368 . S
C1671 H1695 0.949 . S
H1672 C1676 0.949 . S
C1673 C1674 1.349 . S
C1673 C1675 1.327 . S
C1673 H1696 0.950 . S
C1674 C1673 1.349 . S
C1674 C1686 1.349 . S
C1675 C1673 1.327 . S
C1675 C1691 1.429 . S
C1675 H1697 0.950 . S
C1676 H1672 0.949 . S
C1676 C1684 1.574 . S
C1676 C1692 1.368 . S
H1677 C1685 0.950 . S
H1678 C1683 0.950 . S
H1679 C1684 0.949 . S
H1680 C1686 0.950 . S
H1681 C1687 0.950 . S
H1682 C1688 0.949 . S
C1683 H1678 0.950 . S
C1683 C1685 1.327 . S
C1683 C1689 1.429 . S
C1684 C1676 1.574 . S
C1684 H1679 0.949 . S
C1684 C1690 1.368 . S
C1685 C1669 1.349 . S
C1685 H1677 0.950 . S
C1685 C1683 1.327 . S
C1686 C1674 1.349 . S
C1686 H1680 0.950 . S
C1686 C1687 1.327 . S
C1687 H1681 0.950 . S
C1687 C1686 1.327 . S
C1687 C1691 1.429 . S
C1688 C1671 1.574 . S
C1688 H1682 0.949 . S
C1688 C1692 1.368 . S
C1689 C1670 1.429 . S
C1689 C1683 1.429 . S
C1689 C1690 1.523 . S
C1690 C1671 1.368 . S
C1690 C1684 1.368 . S
C1690 C1689 1.523 . S
C1691 C1675 1.429 . S
C1691 C1687 1.429 . S
C1691 C1692 1.523 . S
C1692 C1676 1.368 . S
C1692 C1688 1.368 . S
C1692 C1691 1.523 . S
H1693 C1668 0.950 . S
H1694 C1670 0.950 . S
H1695 C1671 0.949 . S
H1696 C1673 0.950 . S
H1697 C1675 0.950 . S
C1698 C1699 1.349 . S
C1698 C1700 1.327 . S
C1698 H1723 0.950 . S
C1699 C1698 1.349 . S
C1699 C1715 1.349 . S
C1700 C1698 1.327 . S
C1700 C1719 1.429 . S
C1700 H1724 0.950 . S
C1701 C1718 1.574 . S
C1701 C1720 1.368 . S
C1701 H1725 0.949 . S
H1702 C1706 0.949 . S
C1703 C1704 1.349 . S
C1703 C1705 1.327 . S
C1703 H1726 0.950 . S
C1704 C1703 1.349 . S
C1704 C1716 1.349 . S
C1705 C1703 1.327 . S
C1705 C1721 1.429 . S
C1705 H1727 0.950 . S
C1706 H1702 0.949 . S
C1706 C1714 1.574 . S
C1706 C1722 1.368 . S
H1707 C1715 0.950 . S
H1708 C1713 0.950 . S
H1709 C1714 0.949 . S
H1710 C1716 0.950 . S
H1711 C1717 0.950 . S
H1712 C1718 0.949 . S
C1713 H1708 0.950 . S
C1713 C1715 1.327 . S
C1713 C1719 1.429 . S
C1714 C1706 1.574 . S
C1714 H1709 0.949 . S
C1714 C1720 1.368 . S
C1715 C1699 1.349 . S
C1715 H1707 0.950 . S
C1715 C1713 1.327 . S
C1716 C1704 1.349 . S
C1716 H1710 0.950 . S
C1716 C1717 1.327 . S
C1717 H1711 0.950 . S
C1717 C1716 1.327 . S
C1717 C1721 1.429 . S
C1718 C1701 1.574 . S
C1718 H1712 0.949 . S
C1718 C1722 1.368 . S
C1719 C1700 1.429 . S
C1719 C1713 1.429 . S
C1719 C1720 1.523 . S
C1720 C1701 1.368 . S
C1720 C1714 1.368 . S
C1720 C1719 1.523 . S
C1721 C1705 1.429 . S
C1721 C1717 1.429 . S
C1721 C1722 1.523 . S
C1722 C1706 1.368 . S
C1722 C1718 1.368 . S
C1722 C1721 1.523 . S
H1723 C1698 0.950 . S
H1724 C1700 0.950 . S
H1725 C1701 0.949 . S
H1726 C1703 0.950 . S
H1727 C1705 0.950 . S
C1728 C1729 1.349 . S
C1728 C1730 1.327 . S
C1728 H1753 0.950 . S
C1729 C1728 1.349 . S
C1729 C1745 1.349 . S
C1730 C1728 1.327 . S
C1730 C1749 1.429 . S
C1730 H1754 0.950 . S
C1731 C1748 1.574 . S
C1731 C1750 1.368 . S
C1731 H1755 0.949 . S
H1732 C1736 0.949 . S
C1733 C1734 1.349 . S
C1733 C1735 1.327 . S
C1733 H1756 0.950 . S
C1734 C1733 1.349 . S
C1734 C1746 1.349 . S
C1735 C1733 1.327 . S
C1735 C1751 1.429 . S
C1735 H1757 0.950 . S
C1736 H1732 0.949 . S
C1736 C1744 1.574 . S
C1736 C1752 1.368 . S
H1737 C1745 0.950 . S
H1738 C1743 0.950 . S
H1739 C1744 0.949 . S
H1740 C1746 0.950 . S
H1741 C1747 0.950 . S
H1742 C1748 0.949 . S
C1743 H1738 0.950 . S
C1743 C1745 1.327 . S
C1743 C1749 1.429 . S
C1744 C1736 1.574 . S
C1744 H1739 0.949 . S
C1744 C1750 1.368 . S
C1745 C1729 1.349 . S
C1745 H1737 0.950 . S
C1745 C1743 1.327 . S
C1746 C1734 1.349 . S
C1746 H1740 0.950 . S
C1746 C1747 1.327 . S
C1747 H1741 0.950 . S
C1747 C1746 1.327 . S
C1747 C1751 1.429 . S
C1748 C1731 1.574 . S
C1748 H1742 0.949 . S
C1748 C1752 1.368 . S
C1749 C1730 1.429 . S
C1749 C1743 1.429 . S
C1749 C1750 1.523 . S
C1750 C1731 1.368 . S
C1750 C1744 1.368 . S
C1750 C1749 1.523 . S
C1751 C1735 1.429 . S
C1751 C1747 1.429 . S
C1751 C1752 1.523 . S
C1752 C1736 1.368 . S
C1752 C1748 1.368 . S
C1752 C1751 1.523 . S
H1753 C1728 0.950 . S
H1754 C1730 0.950 . S
H1755 C1731 0.949 . S
H1756 C1733 0.950 . S
H1757 C1735 0.950 . S
C1758 C1759 1.349 . S
C1758 C1760 1.327 . S
C1758 H1783 0.950 . S
C1759 C1758 1.349 . S
C1759 C1775 1.349 . S
C1760 C1758 1.327 . S
C1760 C1779 1.429 . S
C1760 H1784 0.950 . S
C1761 C1778 1.574 . S
C1761 C1780 1.368 . S
C1761 H1785 0.949 . S
H1762 C1766 0.949 . S
C1763 C1764 1.349 . S
C1763 C1765 1.327 . S
C1763 H1786 0.950 . S
C1764 C1763 1.349 . S
C1764 C1776 1.349 . S
C1765 C1763 1.327 . S
C1765 C1781 1.429 . S
C1765 H1787 0.950 . S
C1766 H1762 0.949 . S
C1766 C1774 1.574 . S
C1766 C1782 1.368 . S
H1767 C1775 0.950 . S
H1768 C1773 0.950 . S
H1769 C1774 0.949 . S
H1770 C1776 0.950 . S
H1771 C1777 0.950 . S
H1772 C1778 0.949 . S
C1773 H1768 0.950 . S
C1773 C1775 1.327 . S
C1773 C1779 1.429 . S
C1774 C1766 1.574 . S
C1774 H1769 0.949 . S
C1774 C1780 1.368 . S
C1775 C1759 1.349 . S
C1775 H1767 0.950 . S
C1775 C1773 1.327 . S
C1776 C1764 1.349 . S
C1776 H1770 0.950 . S
C1776 C1777 1.327 . S
C1777 H1771 0.950 . S
C1777 C1776 1.327 . S
C1777 C1781 1.429 . S
C1778 C1761 1.574 . S
C1778 H1772 0.949 . S
C1778 C1782 1.368 . S
C1779 C1760 1.429 . S
C1779 C1773 1.429 . S
C1779 C1780 1.523 . S
C1780 C1761 1.368 . S
C1780 C1774 1.368 . S
C1780 C1779 1.523 . S
C1781 C1765 1.429 . S
C1781 C1777 1.429 . S
C1781 C1782 1.523 . S
C1782 C1766 1.368 . S
C1782 C1778 1.368 . S
C1782 C1781 1.523 . S
H1783 C1758 0.950 . S
H1784 C1760 0.950 . S
H1785 C1761 0.949 . S
H1786 C1763 0.950 . S
H1787 C1765 0.950 . S
C1788 C1789 1.349 . S
C1788 C1790 1.327 . S
C1788 H1813 0.950 . S
C1789 C1788 1.349 . S
C1789 C1805 1.349 . S
C1790 C1788 1.327 . S
C1790 C1809 1.429 . S
C1790 H1814 0.950 . S
C1791 C1808 1.574 . S
C1791 C1810 1.368 . S
C1791 H1815 0.949 . S
H1792 C1796 0.949 . S
C1793 C1794 1.349 . S
C1793 C1795 1.327 . S
C1793 H1816 0.950 . S
C1794 C1793 1.349 . S
C1794 C1806 1.349 . S
C1795 C1793 1.327 . S
C1795 C1811 1.429 . S
C1795 H1817 0.950 . S
C1796 H1792 0.949 . S
C1796 C1804 1.574 . S
C1796 C1812 1.368 . S
H1797 C1805 0.950 . S
H1798 C1803 0.950 . S
H1799 C1804 0.949 . S
H1800 C1806 0.950 . S
H1801 C1807 0.950 . S
H1802 C1808 0.949 . S
C1803 H1798 0.950 . S
C1803 C1805 1.327 . S
C1803 C1809 1.429 . S
C1804 C1796 1.574 . S
C1804 H1799 0.949 . S
C1804 C1810 1.368 . S
C1805 C1789 1.349 . S
C1805 H1797 0.950 . S
C1805 C1803 1.327 . S
C1806 C1794 1.349 . S
C1806 H1800 0.950 . S
C1806 C1807 1.327 . S
C1807 H1801 0.950 . S
C1807 C1806 1.327 . S
C1807 C1811 1.429 . S
C1808 C1791 1.574 . S
C1808 H1802 0.949 . S
C1808 C1812 1.368 . S
C1809 C1790 1.429 . S
C1809 C1803 1.429 . S
C1809 C1810 1.523 . S
C1810 C1791 1.368 . S
C1810 C1804 1.368 . S
C1810 C1809 1.523 . S
C1811 C1795 1.429 . S
C1811 C1807 1.429 . S
C1811 C1812 1.523 . S
C1812 C1796 1.368 . S
C1812 C1808 1.368 . S
C1812 C1811 1.523 . S
H1813 C1788 0.950 . S
H1814 C1790 0.950 . S
H1815 C1791 0.949 . S
H1816 C1793 0.950 . S
H1817 C1795 0.950 . S
C1818 C1819 1.349 . S
C1818 C1820 1.327 . S
C1818 H1843 0.950 . S
C1819 C1818 1.349 . S
C1819 C1835 1.349 . S
C1820 C1818 1.327 . S
C1820 C1839 1.429 . S
C1820 H1844 0.950 . S
C1821 C1838 1.574 . S
C1821 C1840 1.368 . S
C1821 H1845 0.949 . S
H1822 C1826 0.949 . S
C1823 C1824 1.349 . S
C1823 C1825 1.327 . S
C1823 H1846 0.950 . S
C1824 C1823 1.349 . S
C1824 C1836 1.349 . S
C1825 C1823 1.327 . S
C1825 C1841 1.429 . S
C1825 H1847 0.950 . S
C1826 H1822 0.949 . S
C1826 C1834 1.574 . S
C1826 C1842 1.368 . S
H1827 C1835 0.950 . S
H1828 C1833 0.950 . S
H1829 C1834 0.949 . S
H1830 C1836 0.950 . S
H1831 C1837 0.950 . S
H1832 C1838 0.949 . S
C1833 H1828 0.950 . S
C1833 C1835 1.327 . S
C1833 C1839 1.429 . S
C1834 C1826 1.574 . S
C1834 H1829 0.949 . S
C1834 C1840 1.368 . S
C1835 C1819 1.349 . S
C1835 H1827 0.950 . S
C1835 C1833 1.327 . S
C1836 C1824 1.349 . S
C1836 H1830 0.950 . S
C1836 C1837 1.327 . S
C1837 H1831 0.950 . S
C1837 C1836 1.327 . S
C1837 C1841 1.429 . S
C1838 C1821 1.574 . S
C1838 H1832 0.949 . S
C1838 C1842 1.368 . S
C1839 C1820 1.429 . S
C1839 C1833 1.429 . S
C1839 C1840 1.523 . S
C1840 C1821 1.368 . S
C1840 C1834 1.368 . S
C1840 C1839 1.523 . S
C1841 C1825 1.429 . S
C1841 C1837 1.429 . S
C1841 C1842 1.523 . S
C1842 C1826 1.368 . S
C1842 C1838 1.368 . S
C1842 C1841 1.523 . S
H1843 C1818 0.950 . S
H1844 C1820 0.950 . S
H1845 C1821 0.949 . S
H1846 C1823 0.950 . S
H1847 C1825 0.950 . S
C1848 C1849 1.349 . S
C1848 C1850 1.327 . S
C1848 H1873 0.950 . S
C1849 C1848 1.349 . S
C1849 C1865 1.349 . S
C1850 C1848 1.327 . S
C1850 C1869 1.429 . S
C1850 H1874 0.950 . S
C1851 C1868 1.574 . S
C1851 C1870 1.368 . S
C1851 H1875 0.949 . S
H1852 C1856 0.949 . S
C1853 C1854 1.349 . S
C1853 C1855 1.327 . S
C1853 H1876 0.950 . S
C1854 C1853 1.349 . S
C1854 C1866 1.349 . S
C1855 C1853 1.327 . S
C1855 C1871 1.429 . S
C1855 H1877 0.950 . S
C1856 H1852 0.949 . S
C1856 C1864 1.574 . S
C1856 C1872 1.368 . S
H1857 C1865 0.950 . S
H1858 C1863 0.950 . S
H1859 C1864 0.949 . S
H1860 C1866 0.950 . S
H1861 C1867 0.950 . S
H1862 C1868 0.949 . S
C1863 H1858 0.950 . S
C1863 C1865 1.327 . S
C1863 C1869 1.429 . S
C1864 C1856 1.574 . S
C1864 H1859 0.949 . S
C1864 C1870 1.368 . S
C1865 C1849 1.349 . S
C1865 H1857 0.950 . S
C1865 C1863 1.327 . S
C1866 C1854 1.349 . S
C1866 H1860 0.950 . S
C1866 C1867 1.327 . S
C1867 H1861 0.950 . S
C1867 C1866 1.327 . S
C1867 C1871 1.429 . S
C1868 C1851 1.574 . S
C1868 H1862 0.949 . S
C1868 C1872 1.368 . S
C1869 C1850 1.429 . S
C1869 C1863 1.429 . S
C1869 C1870 1.523 . S
C1870 C1851 1.368 . S
C1870 C1864 1.368 . S
C1870 C1869 1.523 . S
C1871 C1855 1.429 . S
C1871 C1867 1.429 . S
C1871 C1872 1.523 . S
C1872 C1856 1.368 . S
C1872 C1868 1.368 . S
C1872 C1871 1.523 . S
H1873 C1848 0.950 . S
H1874 C1850 0.950 . S
H1875 C1851 0.949 . S
H1876 C1853 0.950 . S
H1877 C1855 0.950 . S
C1878 C1879 1.349 . S
C1878 C1880 1.327 . S
C1878 H1903 0.950 . S
C1879 C1878 1.349 . S
C1879 C1895 1.349 . S
C1880 C1878 1.327 . S
C1880 C1899 1.429 . S
C1880 H1904 0.950 . S
C1881 C1898 1.574 . S
C1881 C1900 1.368 . S
C1881 H1905 0.949 . S
H1882 C1886 0.949 . S
C1883 C1884 1.349 . S
C1883 C1885 1.327 . S
C1883 H1906 0.950 . S
C1884 C1883 1.349 . S
C1884 C1896 1.349 . S
C1885 C1883 1.327 . S
C1885 C1901 1.429 . S
C1885 H1907 0.950 . S
C1886 H1882 0.949 . S
C1886 C1894 1.574 . S
C1886 C1902 1.368 . S
H1887 C1895 0.950 . S
H1888 C1893 0.950 . S
H1889 C1894 0.949 . S
H1890 C1896 0.950 . S
H1891 C1897 0.950 . S
H1892 C1898 0.949 . S
C1893 H1888 0.950 . S
C1893 C1895 1.327 . S
C1893 C1899 1.429 . S
C1894 C1886 1.574 . S
C1894 H1889 0.949 . S
C1894 C1900 1.368 . S
C1895 C1879 1.349 . S
C1895 H1887 0.950 . S
C1895 C1893 1.327 . S
C1896 C1884 1.349 . S
C1896 H1890 0.950 . S
C1896 C1897 1.327 . S
C1897 H1891 0.950 . S
C1897 C1896 1.327 . S
C1897 C1901 1.429 . S
C1898 C1881 1.574 . S
C1898 H1892 0.949 . S
C1898 C1902 1.368 . S
C1899 C1880 1.429 . S
C1899 C1893 1.429 . S
C1899 C1900 1.523 . S
C1900 C1881 1.368 . S
C1900 C1894 1.368 . S
C1900 C1899 1.523 . S
C1901 C1885 1.429 . S
C1901 C1897 1.429 . S
C1901 C1902 1.523 . S
C1902 C1886 1.368 . S
C1902 C1898 1.368 . S
C1902 C1901 1.523 . S
H1903 C1878 0.950 . S
H1904 C1880 0.950 . S
H1905 C1881 0.949 . S
H1906 C1883 0.950 . S
H1907 C1885 0.950 . S
C1908 C1909 1.349 . S
C1908 C1910 1.327 . S
C1908 H1933 0.950 . S
C1909 C1908 1.349 . S
C1909 C1925 1.349 . S
C1910 C1908 1.327 . S
C1910 C1929 1.429 . S
C1910 H1934 0.950 . S
C1911 C1928 1.574 . S
C1911 C1930 1.368 . S
C1911 H1935 0.949 . S
H1912 C1916 0.949 . S
C1913 C1914 1.349 . S
C1913 C1915 1.327 . S
C1913 H1936 0.950 . S
C1914 C1913 1.349 . S
C1914 C1926 1.349 . S
C1915 C1913 1.327 . S
C1915 C1931 1.429 . S
C1915 H1937 0.950 . S
C1916 H1912 0.949 . S
C1916 C1924 1.574 . S
C1916 C1932 1.368 . S
H1917 C1925 0.950 . S
H1918 C1923 0.950 . S
H1919 C1924 0.949 . S
H1920 C1926 0.950 . S
H1921 C1927 0.950 . S
H1922 C1928 0.949 . S
C1923 H1918 0.950 . S
C1923 C1925 1.327 . S
C1923 C1929 1.429 . S
C1924 C1916 1.574 . S
C1924 H1919 0.949 . S
C1924 C1930 1.368 . S
C1925 C1909 1.349 . S
C1925 H1917 0.950 . S
C1925 C1923 1.327 . S
C1926 C1914 1.349 . S
C1926 H1920 0.950 . S
C1926 C1927 1.327 . S
C1927 H1921 0.950 . S
C1927 C1926 1.327 . S
C1927 C1931 1.429 . S
C1928 C1911 1.574 . S
C1928 H1922 0.949 . S
C1928 C1932 1.368 . S
C1929 C1910 1.429 . S
C1929 C1923 1.429 . S
C1929 C1930 1.523 . S
C1930 C1911 1.368 . S
C1930 C1924 1.368 . S
C1930 C1929 1.523 . S
C1931 C1915 1.429 . S
C1931 C1927 1.429 . S
C1931 C1932 1.523 . S
C1932 C1916 1.368 . S
C1932 C1928 1.368 . S
C1932 C1931 1.523 . S
H1933 C1908 0.950 . S
H1934 C1910 0.950 . S
H1935 C1911 0.949 . S
H1936 C1913 0.950 . S
H1937 C1915 0.950 . S
C1938 C1939 1.349 . S
C1938 C1940 1.327 . S
C1938 H1963 0.950 . S
C1939 C1938 1.349 . S
C1939 C1955 1.349 . S
C1940 C1938 1.327 . S
C1940 C1959 1.429 . S
C1940 H1964 0.950 . S
C1941 C1958 1.574 . S
C1941 C1960 1.368 . S
C1941 H1965 0.949 . S
H1942 C1946 0.949 . S
C1943 C1944 1.349 . S
C1943 C1945 1.327 . S
C1943 H1966 0.950 . S
C1944 C1943 1.349 . S
C1944 C1956 1.349 . S
C1945 C1943 1.327 . S
C1945 C1961 1.429 . S
C1945 H1967 0.950 . S
C1946 H1942 0.949 . S
C1946 C1954 1.574 . S
C1946 C1962 1.368 . S
H1947 C1955 0.950 . S
H1948 C1953 0.950 . S
H1949 C1954 0.949 . S
H1950 C1956 0.950 . S
H1951 C1957 0.950 . S
H1952 C1958 0.949 . S
C1953 H1948 0.950 . S
C1953 C1955 1.327 . S
C1953 C1959 1.429 . S
C1954 C1946 1.574 . S
C1954 H1949 0.949 . S
C1954 C1960 1.368 . S
C1955 C1939 1.349 . S
C1955 H1947 0.950 . S
C1955 C1953 1.327 . S
C1956 C1944 1.349 . S
C1956 H1950 0.950 . S
C1956 C1957 1.327 . S
C1957 H1951 0.950 . S
C1957 C1956 1.327 . S
C1957 C1961 1.429 . S
C1958 C1941 1.574 . S
C1958 H1952 0.949 . S
C1958 C1962 1.368 . S
C1959 C1940 1.429 . S
C1959 C1953 1.429 . S
C1959 C1960 1.523 . S
C1960 C1941 1.368 . S
C1960 C1954 1.368 . S
C1960 C1959 1.523 . S
C1961 C1945 1.429 . S
C1961 C1957 1.429 . S
C1961 C1962 1.523 . S
C1962 C1946 1.368 . S
C1962 C1958 1.368 . S
C1962 C1961 1.523 . S
H1963 C1938 0.950 . S
H1964 C1940 0.950 . S
H1965 C1941 0.949 . S
H1966 C1943 0.950 . S
H1967 C1945 0.950 . S
C1968 C1969 1.349 . S
C1968 C1970 1.327 . S
C1968 H1993 0.950 . S
C1969 C1968 1.349 . S
C1969 C1985 1.349 . S
C1970 C1968 1.327 . S
C1970 C1989 1.429 . S
C1970 H1994 0.950 . S
C1971 C1988 1.574 . S
C1971 C1990 1.368 . S
C1971 H1995 0.949 . S
H1972 C1976 0.949 . S
C1973 C1974 1.349 . S
C1973 C1975 1.327 . S
C1973 H1996 0.950 . S
C1974 C1973 1.349 . S
C1974 C1986 1.349 . S
C1975 C1973 1.327 . S
C1975 C1991 1.429 . S
C1975 H1997 0.950 . S
C1976 H1972 0.949 . S
C1976 C1984 1.574 . S
C1976 C1992 1.368 . S
H1977 C1985 0.950 . S
H1978 C1983 0.950 . S
H1979 C1984 0.949 . S
H1980 C1986 0.950 . S
H1981 C1987 0.950 . S
H1982 C1988 0.949 . S
C1983 H1978 0.950 . S
C1983 C1985 1.327 . S
C1983 C1989 1.429 . S
C1984 C1976 1.574 . S
C1984 H1979 0.949 . S
C1984 C1990 1.368 . S
C1985 C1969 1.349 . S
C1985 H1977 0.950 . S
C1985 C1983 1.327 . S
C1986 C1974 1.349 . S
C1986 H1980 0.950 . S
C1986 C1987 1.327 . S
C1987 H1981 0.950 . S
C1987 C1986 1.327 . S
C1987 C1991 1.429 . S
C1988 C1971 1.574 . S
C1988 H1982 0.949 . S
C1988 C1992 1.368 . S
C1989 C1970 1.429 . S
C1989 C1983 1.429 . S
C1989 C1990 1.523 . S
C1990 C1971 1.368 . S
C1990 C1984 1.368 . S
C1990 C1989 1.523 . S
C1991 C1975 1.429 . S
C1991 C1987 1.429 . S
C1991 C1992 1.523 . S
C1992 C1976 1.368 . S
C1992 C1988 1.368 . S
C1992 C1991 1.523 . S
H1993 C1968 0.950 . S
H1994 C1970 0.950 . S
H1995 C1971 0.949 . S
H1996 C1973 0.950 . S
H1997 C1975 0.950 . S
C1998 C1999 1.349 . S
C1998 C2000 1.327 . S
C1998 H2023 0.950 . S
C1999 C1998 1.349 . S
C1999 C2015 1.349 . S
C2000 C1998 1.327 . S
C2000 C2019 1.429 . S
C2000 H2024 0.950 . S
C2001 C2018 1.574 . S
C2001 C2020 1.368 . S
C2001 H2025 0.949 . S
H2002 C2006 0.949 . S
C2003 C2004 1.349 . S
C2003 C2005 1.327 . S
C2003 H2026 0.950 . S
C2004 C2003 1.349 . S
C2004 C2016 1.349 . S
C2005 C2003 1.327 . S
C2005 C2021 1.429 . S
C2005 H2027 0.950 . S
C2006 H2002 0.949 . S
C2006 C2014 1.574 . S
C2006 C2022 1.368 . S
H2007 C2015 0.950 . S
H2008 C2013 0.950 . S
H2009 C2014 0.949 . S
H2010 C2016 0.950 . S
H2011 C2017 0.950 . S
H2012 C2018 0.949 . S
C2013 H2008 0.950 . S
C2013 C2015 1.327 . S
C2013 C2019 1.429 . S
C2014 C2006 1.574 . S
C2014 H2009 0.949 . S
C2014 C2020 1.368 . S
C2015 C1999 1.349 . S
C2015 H2007 0.950 . S
C2015 C2013 1.327 . S
C2016 C2004 1.349 . S
C2016 H2010 0.950 . S
C2016 C2017 1.327 . S
C2017 H2011 0.950 . S
C2017 C2016 1.327 . S
C2017 C2021 1.429 . S
C2018 C2001 1.574 . S
C2018 H2012 0.949 . S
C2018 C2022 1.368 . S
C2019 C2000 1.429 . S
C2019 C2013 1.429 . S
C2019 C2020 1.523 . S
C2020 C2001 1.368 . S
C2020 C2014 1.368 . S
C2020 C2019 1.523 . S
C2021 C2005 1.429 . S
C2021 C2017 1.429 . S
C2021 C2022 1.523 . S
C2022 C2006 1.368 . S
C2022 C2018 1.368 . S
C2022 C2021 1.523 . S
H2023 C1998 0.950 . S
H2024 C2000 0.950 . S
H2025 C2001 0.949 . S
H2026 C2003 0.950 . S
H2027 C2005 0.950 . S
C2028 C2029 1.349 . S
C2028 C2030 1.327 . S
C2028 H2053 0.950 . S
C2029 C2028 1.349 . S
C2029 C2045 1.349 . S
C2030 C2028 1.327 . S
C2030 C2049 1.429 . S
C2030 H2054 0.950 . S
C2031 C2048 1.574 . S
C2031 C2050 1.368 . S
C2031 H2055 0.949 . S
H2032 C2036 0.949 . S
C2033 C2034 1.349 . S
C2033 C2035 1.327 . S
C2033 H2056 0.950 . S
C2034 C2033 1.349 . S
C2034 C2046 1.349 . S
C2035 C2033 1.327 . S
C2035 C2051 1.429 . S
C2035 H2057 0.950 . S
C2036 H2032 0.949 . S
C2036 C2044 1.574 . S
C2036 C2052 1.368 . S
H2037 C2045 0.950 . S
H2038 C2043 0.950 . S
H2039 C2044 0.949 . S
H2040 C2046 0.950 . S
H2041 C2047 0.950 . S
H2042 C2048 0.949 . S
C2043 H2038 0.950 . S
C2043 C2045 1.327 . S
C2043 C2049 1.429 . S
C2044 C2036 1.574 . S
C2044 H2039 0.949 . S
C2044 C2050 1.368 . S
C2045 C2029 1.349 . S
C2045 H2037 0.950 . S
C2045 C2043 1.327 . S
C2046 C2034 1.349 . S
C2046 H2040 0.950 . S
C2046 C2047 1.327 . S
C2047 H2041 0.950 . S
C2047 C2046 1.327 . S
C2047 C2051 1.429 . S
C2048 C2031 1.574 . S
C2048 H2042 0.949 . S
C2048 C2052 1.368 . S
C2049 C2030 1.429 . S
C2049 C2043 1.429 . S
C2049 C2050 1.523 . S
C2050 C2031 1.368 . S
C2050 C2044 1.368 . S
C2050 C2049 1.523 . S
C2051 C2035 1.429 . S
C2051 C2047 1.429 . S
C2051 C2052 1.523 . S
C2052 C2036 1.368 . S
C2052 C2048 1.368 . S
C2052 C2051 1.523 . S
H2053 C2028 0.950 . S
H2054 C2030 0.950 . S
H2055 C2031 0.949 . S
H2056 C2033 0.950 . S
H2057 C2035 0.950 . S
C2058 C2059 1.349 . S
C2058 C2060 1.327 . S
C2058 H2083 0.950 . S
C2059 C2058 1.349 . S
C2059 C2075 1.349 . S
C2060 C2058 1.327 . S
C2060 C2079 1.429 . S
C2060 H2084 0.950 . S
C2061 C2078 1.574 . S
C2061 C2080 1.368 . S
C2061 H2085 0.949 . S
H2062 C2066 0.949 . S
C2063 C2064 1.349 . S
C2063 C2065 1.327 . S
C2063 H2086 0.950 . S
C2064 C2063 1.349 . S
C2064 C2076 1.349 . S
C2065 C2063 1.327 . S
C2065 C2081 1.429 . S
C2065 H2087 0.950 . S
C2066 H2062 0.949 . S
C2066 C2074 1.574 . S
C2066 C2082 1.368 . S
H2067 C2075 0.950 . S
H2068 C2073 0.950 . S
H2069 C2074 0.949 . S
H2070 C2076 0.950 . S
H2071 C2077 0.950 . S
H2072 C2078 0.949 . S
C2073 H2068 0.950 . S
C2073 C2075 1.327 . S
C2073 C2079 1.429 . S
C2074 C2066 1.574 . S
C2074 H2069 0.949 . S
C2074 C2080 1.368 . S
C2075 C2059 1.349 . S
C2075 H2067 0.950 . S
C2075 C2073 1.327 . S
C2076 C2064 1.349 . S
C2076 H2070 0.950 . S
C2076 C2077 1.327 . S
C2077 H2071 0.950 . S
C2077 C2076 1.327 . S
C2077 C2081 1.429 . S
C2078 C2061 1.574 . S
C2078 H2072 0.949 . S
C2078 C2082 1.368 . S
C2079 C2060 1.429 . S
C2079 C2073 1.429 . S
C2079 C2080 1.523 . S
C2080 C2061 1.368 . S
C2080 C2074 1.368 . S
C2080 C2079 1.523 . S
C2081 C2065 1.429 . S
C2081 C2077 1.429 . S
C2081 C2082 1.523 . S
C2082 C2066 1.368 . S
C2082 C2078 1.368 . S
C2082 C2081 1.523 . S
H2083 C2058 0.950 . S
H2084 C2060 0.950 . S
H2085 C2061 0.949 . S
H2086 C2063 0.950 . S
H2087 C2065 0.950 . S
C2088 C2089 1.349 . S
C2088 C2090 1.327 . S
C2088 H2113 0.950 . S
C2089 C2088 1.349 . S
C2089 C2105 1.349 . S
C2090 C2088 1.327 . S
C2090 C2109 1.429 . S
C2090 H2114 0.950 . S
C2091 C2108 1.574 . S
C2091 C2110 1.368 . S
C2091 H2115 0.949 . S
H2092 C2096 0.949 . S
C2093 C2094 1.349 . S
C2093 C2095 1.327 . S
C2093 H2116 0.950 . S
C2094 C2093 1.349 . S
C2094 C2106 1.349 . S
C2095 C2093 1.327 . S
C2095 C2111 1.429 . S
C2095 H2117 0.950 . S
C2096 H2092 0.949 . S
C2096 C2104 1.574 . S
C2096 C2112 1.368 . S
H2097 C2105 0.950 . S
H2098 C2103 0.950 . S
H2099 C2104 0.949 . S
H2100 C2106 0.950 . S
H2101 C2107 0.950 . S
H2102 C2108 0.949 . S
C2103 H2098 0.950 . S
C2103 C2105 1.327 . S
C2103 C2109 1.429 . S
C2104 C2096 1.574 . S
C2104 H2099 0.949 . S
C2104 C2110 1.368 . S
C2105 C2089 1.349 . S
C2105 H2097 0.950 . S
C2105 C2103 1.327 . S
C2106 C2094 1.349 . S
C2106 H2100 0.950 . S
C2106 C2107 1.327 . S
C2107 H2101 0.950 . S
C2107 C2106 1.327 . S
C2107 C2111 1.429 . S
C2108 C2091 1.574 . S
C2108 H2102 0.949 . S
C2108 C2112 1.368 . S
C2109 C2090 1.429 . S
C2109 C2103 1.429 . S
C2109 C2110 1.523 . S
C2110 C2091 1.368 . S
C2110 C2104 1.368 . S
C2110 C2109 1.523 . S
C2111 C2095 1.429 . S
C2111 C2107 1.429 . S
C2111 C2112 1.523 . S
C2112 C2096 1.368 . S
C2112 C2108 1.368 . S
C2112 C2111 1.523 . S
H2113 C2088 0.950 . S
H2114 C2090 0.950 . S
H2115 C2091 0.949 . S
H2116 C2093 0.950 . S
H2117 C2095 0.950 . S
C2118 C2119 1.349 . S
C2118 C2120 1.327 . S
C2118 H2143 0.950 . S
C2119 C2118 1.349 . S
C2119 C2135 1.349 . S
C2120 C2118 1.327 . S
C2120 C2139 1.429 . S
C2120 H2144 0.950 . S
C2121 C2138 1.574 . S
C2121 C2140 1.368 . S
C2121 H2145 0.949 . S
H2122 C2126 0.949 . S
C2123 C2124 1.349 . S
C2123 C2125 1.327 . S
C2123 H2146 0.950 . S
C2124 C2123 1.349 . S
C2124 C2136 1.349 . S
C2125 C2123 1.327 . S
C2125 C2141 1.429 . S
C2125 H2147 0.950 . S
C2126 H2122 0.949 . S
C2126 C2134 1.574 . S
C2126 C2142 1.368 . S
H2127 C2135 0.950 . S
H2128 C2133 0.950 . S
H2129 C2134 0.949 . S
H2130 C2136 0.950 . S
H2131 C2137 0.950 . S
H2132 C2138 0.949 . S
C2133 H2128 0.950 . S
C2133 C2135 1.327 . S
C2133 C2139 1.429 . S
C2134 C2126 1.574 . S
C2134 H2129 0.949 . S
C2134 C2140 1.368 . S
C2135 C2119 1.349 . S
C2135 H2127 0.950 . S
C2135 C2133 1.327 . S
C2136 C2124 1.349 . S
C2136 H2130 0.950 . S
C2136 C2137 1.327 . S
C2137 H2131 0.950 . S
C2137 C2136 1.327 . S
C2137 C2141 1.429 . S
C2138 C2121 1.574 . S
C2138 H2132 0.949 . S
C2138 C2142 1.368 . S
C2139 C2120 1.429 . S
C2139 C2133 1.429 . S
C2139 C2140 1.523 . S
C2140 C2121 1.368 . S
C2140 C2134 1.368 . S
C2140 C2139 1.523 . S
C2141 C2125 1.429 . S
C2141 C2137 1.429 . S
C2141 C2142 1.523 . S
C2142 C2126 1.368 . S
C2142 C2138 1.368 . S
C2142 C2141 1.523 . S
H2143 C2118 0.950 . S
H2144 C2120 0.950 . S
H2145 C2121 0.949 . S
H2146 C2123 0.950 . S
H2147 C2125 0.950 . S
C2148 C2149 1.349 . S
C2148 C2150 1.327 . S
C2148 H2173 0.950 . S
C2149 C2148 1.349 . S
C2149 C2165 1.349 . S
C2150 C2148 1.327 . S
C2150 C2169 1.429 . S
C2150 H2174 0.950 . S
C2151 C2168 1.574 . S
C2151 C2170 1.368 . S
C2151 H2175 0.949 . S
H2152 C2156 0.949 . S
C2153 C2154 1.349 . S
C2153 C2155 1.327 . S
C2153 H2176 0.950 . S
C2154 C2153 1.349 . S
C2154 C2166 1.349 . S
C2155 C2153 1.327 . S
C2155 C2171 1.429 . S
C2155 H2177 0.950 . S
C2156 H2152 0.949 . S
C2156 C2164 1.574 . S
C2156 C2172 1.368 . S
H2157 C2165 0.950 . S
H2158 C2163 0.950 . S
H2159 C2164 0.949 . S
H2160 C2166 0.950 . S
H2161 C2167 0.950 . S
H2162 C2168 0.949 . S
C2163 H2158 0.950 . S
C2163 C2165 1.327 . S
C2163 C2169 1.429 . S
C2164 C2156 1.574 . S
C2164 H2159 0.949 . S
C2164 C2170 1.368 . S
C2165 C2149 1.349 . S
C2165 H2157 0.950 . S
C2165 C2163 1.327 . S
C2166 C2154 1.349 . S
C2166 H2160 0.950 . S
C2166 C2167 1.327 . S
C2167 H2161 0.950 . S
C2167 C2166 1.327 . S
C2167 C2171 1.429 . S
C2168 C2151 1.574 . S
C2168 H2162 0.949 . S
C2168 C2172 1.368 . S
C2169 C2150 1.429 . S
C2169 C2163 1.429 . S
C2169 C2170 1.523 . S
C2170 C2151 1.368 . S
C2170 C2164 1.368 . S
C2170 C2169 1.523 . S
C2171 C2155 1.429 . S
C2171 C2167 1.429 . S
C2171 C2172 1.523 . S
C2172 C2156 1.368 . S
C2172 C2168 1.368 . S
C2172 C2171 1.523 . S
H2173 C2148 0.950 . S
H2174 C2150 0.950 . S
H2175 C2151 0.949 . S
H2176 C2153 0.950 . S
H2177 C2155 0.950 . S
C2178 C2179 1.349 . S
C2178 C2180 1.327 . S
C2178 H2203 0.950 . S
C2179 C2178 1.349 . S
C2179 C2195 1.349 . S
C2180 C2178 1.327 . S
C2180 C2199 1.429 . S
C2180 H2204 0.950 . S
C2181 C2198 1.574 . S
C2181 C2200 1.368 . S
C2181 H2205 0.949 . S
H2182 C2186 0.949 . S
C2183 C2184 1.349 . S
C2183 C2185 1.327 . S
C2183 H2206 0.950 . S
C2184 C2183 1.349 . S
C2184 C2196 1.349 . S
C2185 C2183 1.327 . S
C2185 C2201 1.429 . S
C2185 H2207 0.950 . S
C2186 H2182 0.949 . S
C2186 C2194 1.574 . S
C2186 C2202 1.368 . S
H2187 C2195 0.950 . S
H2188 C2193 0.950 . S
H2189 C2194 0.949 . S
H2190 C2196 0.950 . S
H2191 C2197 0.950 . S
H2192 C2198 0.949 . S
C2193 H2188 0.950 . S
C2193 C2195 1.327 . S
C2193 C2199 1.429 . S
C2194 C2186 1.574 . S
C2194 H2189 0.949 . S
C2194 C2200 1.368 . S
C2195 C2179 1.349 . S
C2195 H2187 0.950 . S
C2195 C2193 1.327 . S
C2196 C2184 1.349 . S
C2196 H2190 0.950 . S
C2196 C2197 1.327 . S
C2197 H2191 0.950 . S
C2197 C2196 1.327 . S
C2197 C2201 1.429 . S
C2198 C2181 1.574 . S
C2198 H2192 0.949 . S
C2198 C2202 1.368 . S
C2199 C2180 1.429 . S
C2199 C2193 1.429 . S
C2199 C2200 1.523 . S
C2200 C2181 1.368 . S
C2200 C2194 1.368 . S
C2200 C2199 1.523 . S
C2201 C2185 1.429 . S
C2201 C2197 1.429 . S
C2201 C2202 1.523 . S
C2202 C2186 1.368 . S
C2202 C2198 1.368 . S
C2202 C2201 1.523 . S
H2203 C2178 0.950 . S
H2204 C2180 0.950 . S
H2205 C2181 0.949 . S
H2206 C2183 0.950 . S
H2207 C2185 0.950 . S
C2208 C2209 1.349 . S
C2208 C2210 1.327 . S
C2208 H2233 0.950 . S
C2209 C2208 1.349 . S
C2209 C2225 1.349 . S
C2210 C2208 1.327 . S
C2210 C2229 1.429 . S
C2210 H2234 0.950 . S
C2211 C2228 1.574 . S
C2211 C2230 1.368 . S
C2211 H2235 0.949 . S
H2212 C2216 0.949 . S
C2213 C2214 1.349 . S
C2213 C2215 1.327 . S
C2213 H2236 0.950 . S
C2214 C2213 1.349 . S
C2214 C2226 1.349 . S
C2215 C2213 1.327 . S
C2215 C2231 1.429 . S
C2215 H2237 0.950 . S
C2216 H2212 0.949 . S
C2216 C2224 1.574 . S
C2216 C2232 1.368 . S
H2217 C2225 0.950 . S
H2218 C2223 0.950 . S
H2219 C2224 0.949 . S
H2220 C2226 0.950 . S
H2221 C2227 0.950 . S
H2222 C2228 0.949 . S
C2223 H2218 0.950 . S
C2223 C2225 1.327 . S
C2223 C2229 1.429 . S
C2224 C2216 1.574 . S
C2224 H2219 0.949 . S
C2224 C2230 1.368 . S
C2225 C2209 1.349 . S
C2225 H2217 0.950 . S
C2225 C2223 1.327 . S
C2226 C2214 1.349 . S
C2226 H2220 0.950 . S
C2226 C2227 1.327 . S
C2227 H2221 0.950 . S
C2227 C2226 1.327 . S
C2227 C2231 1.429 . S
C2228 C2211 1.574 . S
C2228 H2222 0.949 . S
C2228 C2232 1.368 . S
C2229 C2210 1.429 . S
C2229 C2223 1.429 . S
C2229 C2230 1.523 . S
C2230 C2211 1.368 . S
C2230 C2224 1.368 . S
C2230 C2229 1.523 . S
C2231 C2215 1.429 . S
C2231 C2227 1.429 . S
C2231 C2232 1.523 . S
C2232 C2216 1.368 . S
C2232 C2228 1.368 . S
C2232 C2231 1.523 . S
H2233 C2208 0.950 . S
H2234 C2210 0.950 . S
H2235 C2211 0.949 . S
H2236 C2213 0.950 . S
H2237 C2215 0.950 . S
C2238 C2239 1.349 . S
C2238 C2240 1.327 . S
C2238 H2263 0.950 . S
C2239 C2238 1.349 . S
C2239 C2255 1.349 . S
C2240 C2238 1.327 . S
C2240 C2259 1.429 . S
C2240 H2264 0.950 . S
C2241 C2258 1.574 . S
C2241 C2260 1.368 . S
C2241 H2265 0.949 . S
H2242 C2246 0.949 . S
C2243 C2244 1.349 . S
C2243 C2245 1.327 . S
C2243 H2266 0.950 . S
C2244 C2243 1.349 . S
C2244 C2256 1.349 . S
C2245 C2243 1.327 . S
C2245 C2261 1.429 . S
C2245 H2267 0.950 . S
C2246 H2242 0.949 . S
C2246 C2254 1.574 . S
C2246 C2262 1.368 . S
H2247 C2255 0.950 . S
H2248 C2253 0.950 . S
H2249 C2254 0.949 . S
H2250 C2256 0.950 . S
H2251 C2257 0.950 . S
H2252 C2258 0.949 . S
C2253 H2248 0.950 . S
C2253 C2255 1.327 . S
C2253 C2259 1.429 . S
C2254 C2246 1.574 . S
C2254 H2249 0.949 . S
C2254 C2260 1.368 . S
C2255 C2239 1.349 . S
C2255 H2247 0.950 . S
C2255 C2253 1.327 . S
C2256 C2244 1.349 . S
C2256 H2250 0.950 . S
C2256 C2257 1.327 . S
C2257 H2251 0.950 . S
C2257 C2256 1.327 . S
C2257 C2261 1.429 . S
C2258 C2241 1.574 . S
C2258 H2252 0.949 . S
C2258 C2262 1.368 . S
C2259 C2240 1.429 . S
C2259 C2253 1.429 . S
C2259 C2260 1.523 . S
C2260 C2241 1.368 . S
C2260 C2254 1.368 . S
C2260 C2259 1.523 . S
C2261 C2245 1.429 . S
C2261 C2257 1.429 . S
C2261 C2262 1.523 . S
C2262 C2246 1.368 . S
C2262 C2258 1.368 . S
C2262 C2261 1.523 . S
H2263 C2238 0.950 . S
H2264 C2240 0.950 . S
H2265 C2241 0.949 . S
H2266 C2243 0.950 . S
H2267 C2245 0.950 . S
C2268 C2269 1.349 . S
C2268 C2270 1.327 . S
C2268 H2293 0.950 . S
C2269 C2268 1.349 . S
C2269 C2285 1.349 . S
C2270 C2268 1.327 . S
C2270 C2289 1.429 . S
C2270 H2294 0.950 . S
C2271 C2288 1.574 . S
C2271 C2290 1.368 . S
C2271 H2295 0.949 . S
H2272 C2276 0.949 . S
C2273 C2274 1.349 . S
C2273 C2275 1.327 . S
C2273 H2296 0.950 . S
C2274 C2273 1.349 . S
C2274 C2286 1.349 . S
C2275 C2273 1.327 . S
C2275 C2291 1.429 . S
C2275 H2297 0.950 . S
C2276 H2272 0.949 . S
C2276 C2284 1.574 . S
C2276 C2292 1.368 . S
H2277 C2285 0.950 . S
H2278 C2283 0.950 . S
H2279 C2284 0.949 . S
H2280 C2286 0.950 . S
H2281 C2287 0.950 . S
H2282 C2288 0.949 . S
C2283 H2278 0.950 . S
C2283 C2285 1.327 . S
C2283 C2289 1.429 . S
C2284 C2276 1.574 . S
C2284 H2279 0.949 . S
C2284 C2290 1.368 . S
C2285 C2269 1.349 . S
C2285 H2277 0.950 . S
C2285 C2283 1.327 . S
C2286 C2274 1.349 . S
C2286 H2280 0.950 . S
C2286 C2287 1.327 . S
C2287 H2281 0.950 . S
C2287 C2286 1.327 . S
C2287 C2291 1.429 . S
C2288 C2271 1.574 . S
C2288 H2282 0.949 . S
C2288 C2292 1.368 . S
C2289 C2270 1.429 . S
C2289 C2283 1.429 . S
C2289 C2290 1.523 . S
C2290 C2271 1.368 . S
C2290 C2284 1.368 . S
C2290 C2289 1.523 . S
C2291 C2275 1.429 . S
C2291 C2287 1.429 . S
C2291 C2292 1.523 . S
C2292 C2276 1.368 . S
C2292 C2288 1.368 . S
C2292 C2291 1.523 . S
H2293 C2268 0.950 . S
H2294 C2270 0.950 . S
H2295 C2271 0.949 . S
H2296 C2273 0.950 . S
H2297 C2275 0.950 . S
C2298 C2299 1.349 . S
C2298 C2300 1.327 . S
C2298 H2323 0.950 . S
C2299 C2298 1.349 . S
C2299 C2315 1.349 . S
C2300 C2298 1.327 . S
C2300 C2319 1.429 . S
C2300 H2324 0.950 . S
C2301 C2318 1.574 . S
C2301 C2320 1.368 . S
C2301 H2325 0.949 . S
H2302 C2306 0.949 . S
C2303 C2304 1.349 . S
C2303 C2305 1.327 . S
C2303 H2326 0.950 . S
C2304 C2303 1.349 . S
C2304 C2316 1.349 1_565 S
C2305 C2303 1.327 . S
C2305 C2321 1.429 . S
C2305 H2327 0.950 . S
C2306 H2302 0.949 . S
C2306 C2314 1.574 . S
C2306 C2322 1.368 . S
H2307 C2315 0.950 . S
H2308 C2313 0.950 . S
H2309 C2314 0.949 . S
H2310 C2316 0.950 . S
H2311 C2317 0.949 . S
H2312 C2318 0.949 . S
C2313 H2308 0.950 . S
C2313 C2315 1.327 . S
C2313 C2319 1.429 . S
C2314 C2306 1.574 . S
C2314 H2309 0.949 . S
C2314 C2320 1.368 . S
C2315 C2299 1.349 . S
C2315 H2307 0.950 . S
C2315 C2313 1.327 . S
C2316 C2304 1.349 1_545 S
C2316 H2310 0.950 . S
C2316 C2317 1.327 1_545 S
C2317 H2311 0.949 . S
C2317 C2316 1.327 1_565 S
C2317 C2321 1.429 . S
C2318 C2301 1.574 . S
C2318 H2312 0.949 . S
C2318 C2322 1.368 . S
C2319 C2300 1.429 . S
C2319 C2313 1.429 . S
C2319 C2320 1.523 . S
C2320 C2301 1.368 . S
C2320 C2314 1.368 . S
C2320 C2319 1.523 . S
C2321 C2305 1.429 . S
C2321 C2317 1.429 . S
C2321 C2322 1.523 . S
C2322 C2306 1.368 . S
C2322 C2318 1.368 . S
C2322 C2321 1.523 . S
H2323 C2298 0.950 . S
H2324 C2300 0.950 . S
H2325 C2301 0.949 . S
H2326 C2303 0.950 . S
H2327 C2305 0.950 . S
C2328 C2329 1.349 . S
C2328 C2330 1.327 . S
C2328 H2353 0.950 . S
C2329 C2328 1.349 . S
C2329 C2345 1.349 . S
C2330 C2328 1.327 . S
C2330 C2349 1.429 . S
C2330 H2354 0.950 . S
C2331 C2348 1.574 . S
C2331 C2350 1.368 . S
C2331 H2355 0.949 . S
H2332 C2336 0.949 . S
C2333 C2334 1.349 . S
C2333 C2335 1.327 . S
C2333 H2356 0.950 . S
C2334 C2333 1.349 . S
C2334 C2346 1.349 1_455 S
C2335 C2333 1.327 . S
C2335 C2351 1.429 . S
C2335 H2357 0.950 . S
C2336 H2332 0.949 . S
C2336 C2344 1.574 . S
C2336 C2352 1.368 . S
H2337 C2345 0.950 . S
H2338 C2343 0.950 . S
H2339 C2344 0.949 . S
H2340 C2346 0.950 . S
H2341 C2347 0.950 . S
H2342 C2348 0.949 . S
C2343 H2338 0.950 . S
C2343 C2345 1.327 . S
C2343 C2349 1.429 . S
C2344 C2336 1.574 . S
C2344 H2339 0.949 . S
C2344 C2350 1.368 . S
C2345 C2329 1.349 . S
C2345 H2337 0.950 . S
C2345 C2343 1.327 . S
C2346 C2334 1.349 1_655 S
C2346 H2340 0.950 . S
C2346 C2347 1.327 1_655 S
C2347 H2341 0.950 . S
C2347 C2346 1.327 1_455 S
C2347 C2351 1.429 . S
C2348 C2331 1.574 . S
C2348 H2342 0.949 . S
C2348 C2352 1.368 . S
C2349 C2330 1.429 . S
C2349 C2343 1.429 . S
C2349 C2350 1.523 . S
C2350 C2331 1.368 . S
C2350 C2344 1.368 . S
C2350 C2349 1.523 . S
C2351 C2335 1.429 . S
C2351 C2347 1.429 . S
C2351 C2352 1.523 . S
C2352 C2336 1.368 . S
C2352 C2348 1.368 . S
C2352 C2351 1.523 . S
H2353 C2328 0.950 . S
H2354 C2330 0.950 . S
H2355 C2331 0.949 . S
H2356 C2333 0.950 . S
H2357 C2335 0.950 . S
C2358 C2359 1.349 . S
C2358 C2360 1.327 . S
C2358 H2383 0.950 . S
C2359 C2358 1.349 . S
C2359 C2375 1.349 . S
C2360 C2358 1.327 . S
C2360 C2379 1.429 . S
C2360 H2384 0.950 . S
C2361 C2378 1.574 . S
C2361 C2380 1.368 . S
C2361 H2385 0.949 . S
H2362 C2366 0.949 . S
C2363 C2364 1.349 . S
C2363 C2365 1.327 . S
C2363 H2386 0.950 . S
C2364 C2363 1.349 . S
C2364 C2376 1.349 . S
C2365 C2363 1.327 . S
C2365 C2381 1.429 . S
C2365 H2387 0.950 . S
C2366 H2362 0.949 . S
C2366 C2374 1.574 . S
C2366 C2382 1.368 . S
H2367 C2375 0.950 . S
H2368 C2373 0.950 . S
H2369 C2374 0.949 . S
H2370 C2376 0.950 . S
H2371 C2377 0.950 . S
H2372 C2378 0.949 . S
C2373 H2368 0.950 . S
C2373 C2375 1.327 . S
C2373 C2379 1.429 . S
C2374 C2366 1.574 . S
C2374 H2369 0.949 . S
C2374 C2380 1.368 . S
C2375 C2359 1.349 . S
C2375 H2367 0.950 . S
C2375 C2373 1.327 . S
C2376 C2364 1.349 . S
C2376 H2370 0.950 . S
C2376 C2377 1.327 . S
C2377 H2371 0.950 . S
C2377 C2376 1.327 . S
C2377 C2381 1.429 . S
C2378 C2361 1.574 . S
C2378 H2372 0.949 . S
C2378 C2382 1.368 . S
C2379 C2360 1.429 . S
C2379 C2373 1.429 . S
C2379 C2380 1.523 . S
C2380 C2361 1.368 . S
C2380 C2374 1.368 . S
C2380 C2379 1.523 . S
C2381 C2365 1.429 . S
C2381 C2377 1.429 . S
C2381 C2382 1.523 . S
C2382 C2366 1.368 . S
C2382 C2378 1.368 . S
C2382 C2381 1.523 . S
H2383 C2358 0.950 . S
H2384 C2360 0.950 . S
H2385 C2361 0.949 . S
H2386 C2363 0.950 . S
H2387 C2365 0.950 . S
C2388 C2389 1.349 1_565 S
C2388 C2390 1.327 1_565 S
C2388 H2413 0.950 . S
C2389 C2388 1.349 1_545 S
C2389 C2405 1.349 . S
C2390 C2388 1.327 1_545 S
C2390 C2409 1.429 . S
C2390 H2414 0.950 . S
C2391 C2408 1.574 . S
C2391 C2410 1.368 . S
C2391 H2415 0.949 . S
H2392 C2396 0.949 . S
C2393 C2394 1.349 . S
C2393 C2395 1.327 . S
C2393 H2416 0.950 . S
C2394 C2393 1.349 . S
C2394 C2406 1.349 . S
C2395 C2393 1.327 . S
C2395 C2411 1.429 . S
C2395 H2417 0.950 . S
C2396 H2392 0.949 . S
C2396 C2404 1.574 . S
C2396 C2412 1.368 . S
H2397 C2405 0.950 . S
H2398 C2403 0.950 . S
H2399 C2404 0.949 . S
H2400 C2406 0.950 . S
H2401 C2407 0.950 . S
H2402 C2408 0.949 . S
C2403 H2398 0.950 . S
C2403 C2405 1.327 . S
C2403 C2409 1.429 . S
C2404 C2396 1.574 . S
C2404 H2399 0.949 . S
C2404 C2410 1.368 . S
C2405 C2389 1.349 . S
C2405 H2397 0.950 . S
C2405 C2403 1.327 . S
C2406 C2394 1.349 . S
C2406 H2400 0.950 . S
C2406 C2407 1.327 . S
C2407 H2401 0.950 . S
C2407 C2406 1.327 . S
C2407 C2411 1.429 . S
C2408 C2391 1.574 . S
C2408 H2402 0.949 . S
C2408 C2412 1.368 . S
C2409 C2390 1.429 . S
C2409 C2403 1.429 . S
C2409 C2410 1.523 . S
C2410 C2391 1.368 . S
C2410 C2404 1.368 . S
C2410 C2409 1.523 . S
C2411 C2395 1.429 . S
C2411 C2407 1.429 . S
C2411 C2412 1.523 . S
C2412 C2396 1.368 . S
C2412 C2408 1.368 . S
C2412 C2411 1.523 . S
H2413 C2388 0.950 . S
H2414 C2390 0.950 . S
H2415 C2391 0.949 . S
H2416 C2393 0.950 . S
H2417 C2395 0.950 . S
C2418 C2419 1.349 . S
C2418 C2420 1.327 . S
C2418 H2443 0.950 . S
C2419 C2418 1.349 . S
C2419 C2435 1.349 . S
C2420 C2418 1.327 . S
C2420 C2439 1.429 . S
C2420 H2444 0.950 . S
C2421 C2438 1.574 . S
C2421 C2440 1.368 . S
C2421 H2445 0.949 . S
H2422 C2426 0.949 . S
C2423 C2424 1.349 1_455 S
C2423 C2425 1.327 1_455 S
C2423 H2446 0.950 . S
C2424 C2423 1.349 1_655 S
C2424 C2436 1.349 . S
C2425 C2423 1.327 1_655 S
C2425 C2441 1.429 . S
C2425 H2447 0.950 1_655 S
C2426 H2422 0.949 . S
C2426 C2434 1.574 . S
C2426 C2442 1.368 . S
H2427 C2435 0.950 . S
H2428 C2433 0.950 . S
H2429 C2434 0.949 . S
H2430 C2436 0.950 . S
H2431 C2437 0.950 . S
H2432 C2438 0.949 . S
C2433 H2428 0.950 . S
C2433 C2435 1.327 . S
C2433 C2439 1.429 . S
C2434 C2426 1.574 . S
C2434 H2429 0.949 . S
C2434 C2440 1.368 . S
C2435 C2419 1.349 . S
C2435 H2427 0.950 . S
C2435 C2433 1.327 . S
C2436 C2424 1.349 . S
C2436 H2430 0.950 . S
C2436 C2437 1.327 . S
C2437 H2431 0.950 . S
C2437 C2436 1.327 . S
C2437 C2441 1.429 . S
C2438 C2421 1.574 . S
C2438 H2432 0.949 . S
C2438 C2442 1.368 . S
C2439 C2420 1.429 . S
C2439 C2433 1.429 . S
C2439 C2440 1.523 . S
C2440 C2421 1.368 . S
C2440 C2434 1.368 . S
C2440 C2439 1.523 . S
C2441 C2425 1.429 . S
C2441 C2437 1.429 . S
C2441 C2442 1.523 . S
C2442 C2426 1.368 . S
C2442 C2438 1.368 . S
C2442 C2441 1.523 . S
H2443 C2418 0.950 . S
H2444 C2420 0.950 . S
H2445 C2421 0.949 . S
H2446 C2423 0.950 . S
H2447 C2425 0.950 1_455 S
C2448 C2449 1.349 . S
C2448 C2450 1.327 . S
C2448 H2473 0.950 . S
C2449 C2448 1.349 . S
C2449 C2465 1.349 . S
C2450 C2448 1.327 . S
C2450 C2469 1.429 . S
C2450 H2474 0.950 . S
C2451 C2468 1.574 . S
C2451 C2470 1.368 . S
C2451 H2475 0.949 . S
H2452 C2456 0.949 . S
C2453 C2454 1.349 . S
C2453 C2455 1.327 . S
C2453 H2476 0.950 . S
C2454 C2453 1.349 . S
C2454 C2466 1.349 . S
C2455 C2453 1.327 . S
C2455 C2471 1.429 . S
C2455 H2477 0.950 . S
C2456 H2452 0.949 . S
C2456 C2464 1.574 . S
C2456 C2472 1.368 . S
H2457 C2465 0.950 . S
H2458 C2463 0.950 . S
H2459 C2464 0.949 . S
H2460 C2466 0.950 . S
H2461 C2467 0.950 . S
H2462 C2468 0.949 . S
C2463 H2458 0.950 . S
C2463 C2465 1.327 . S
C2463 C2469 1.429 . S
C2464 C2456 1.574 . S
C2464 H2459 0.949 . S
C2464 C2470 1.368 . S
C2465 C2449 1.349 . S
C2465 H2457 0.950 . S
C2465 C2463 1.327 . S
C2466 C2454 1.349 . S
C2466 H2460 0.950 . S
C2466 C2467 1.327 . S
C2467 H2461 0.950 . S
C2467 C2466 1.327 . S
C2467 C2471 1.429 . S
C2468 C2451 1.574 . S
C2468 H2462 0.949 . S
C2468 C2472 1.368 . S
C2469 C2450 1.429 . S
C2469 C2463 1.429 . S
C2469 C2470 1.523 . S
C2470 C2451 1.368 . S
C2470 C2464 1.368 . S
C2470 C2469 1.523 . S
C2471 C2455 1.429 . S
C2471 C2467 1.429 . S
C2471 C2472 1.523 . S
C2472 C2456 1.368 . S
C2472 C2468 1.368 . S
C2472 C2471 1.523 . S
H2473 C2448 0.950 . S
H2474 C2450 0.950 . S
H2475 C2451 0.949 . S
H2476 C2453 0.950 . S
H2477 C2455 0.950 . S
C2478 C2479 1.349 . S
C2478 C2480 1.327 . S
C2478 H2503 0.950 . S
C2479 C2478 1.349 . S
C2479 C2495 1.349 . S
C2480 C2478 1.327 . S
C2480 C2499 1.429 . S
C2480 H2504 0.950 . S
C2481 C2498 1.574 . S
C2481 C2500 1.368 . S
C2481 H2505 0.949 . S
H2482 C2486 0.949 . S
C2483 C2484 1.349 . S
C2483 C2485 1.327 . S
C2483 H2506 0.950 . S
C2484 C2483 1.349 . S
C2484 C2496 1.349 . S
C2485 C2483 1.327 . S
C2485 C2501 1.429 . S
C2485 H2507 0.950 . S
C2486 H2482 0.949 . S
C2486 C2494 1.574 . S
C2486 C2502 1.368 . S
H2487 C2495 0.950 . S
H2488 C2493 0.950 . S
H2489 C2494 0.949 . S
H2490 C2496 0.950 . S
H2491 C2497 0.950 . S
H2492 C2498 0.949 . S
C2493 H2488 0.950 . S
C2493 C2495 1.327 . S
C2493 C2499 1.429 . S
C2494 C2486 1.574 . S
C2494 H2489 0.949 . S
C2494 C2500 1.368 . S
C2495 C2479 1.349 . S
C2495 H2487 0.950 . S
C2495 C2493 1.327 . S
C2496 C2484 1.349 . S
C2496 H2490 0.950 . S
C2496 C2497 1.327 . S
C2497 H2491 0.950 . S
C2497 C2496 1.327 . S
C2497 C2501 1.429 . S
C2498 C2481 1.574 . S
C2498 H2492 0.949 . S
C2498 C2502 1.368 . S
C2499 C2480 1.429 . S
C2499 C2493 1.429 . S
C2499 C2500 1.523 . S
C2500 C2481 1.368 . S
C2500 C2494 1.368 . S
C2500 C2499 1.523 . S
C2501 C2485 1.429 . S
C2501 C2497 1.429 . S
C2501 C2502 1.523 . S
C2502 C2486 1.368 . S
C2502 C2498 1.368 . S
C2502 C2501 1.523 . S
H2503 C2478 0.950 . S
H2504 C2480 0.950 . S
H2505 C2481 0.949 . S
H2506 C2483 0.950 . S
H2507 C2485 0.950 . S
C2508 C2509 1.349 . S
C2508 C2510 1.327 . S
C2508 H2533 0.950 . S
C2509 C2508 1.349 . S
C2509 C2525 1.349 . S
C2510 C2508 1.327 . S
C2510 C2529 1.429 . S
C2510 H2534 0.950 . S
C2511 C2528 1.574 . S
C2511 C2530 1.368 . S
C2511 H2535 0.949 . S
H2512 C2516 0.949 . S
C2513 C2514 1.349 . S
C2513 C2515 1.327 . S
C2513 H2536 0.950 1_655 S
C2514 C2513 1.349 . S
C2514 C2526 1.349 . S
C2515 C2513 1.327 . S
C2515 C2531 1.429 . S
C2515 H2537 0.950 . S
C2516 H2512 0.949 . S
C2516 C2524 1.574 . S
C2516 C2532 1.368 . S
H2517 C2525 0.950 . S
H2518 C2523 0.950 . S
H2519 C2524 0.949 . S
H2520 C2526 0.950 . S
H2521 C2527 0.950 . S
H2522 C2528 0.949 . S
C2523 H2518 0.950 . S
C2523 C2525 1.327 . S
C2523 C2529 1.429 . S
C2524 C2516 1.574 . S
C2524 H2519 0.949 . S
C2524 C2530 1.368 . S
C2525 C2509 1.349 . S
C2525 H2517 0.950 . S
C2525 C2523 1.327 . S
C2526 C2514 1.349 . S
C2526 H2520 0.950 . S
C2526 C2527 1.327 . S
C2527 H2521 0.950 . S
C2527 C2526 1.327 . S
C2527 C2531 1.429 . S
C2528 C2511 1.574 . S
C2528 H2522 0.949 . S
C2528 C2532 1.368 . S
C2529 C2510 1.429 . S
C2529 C2523 1.429 . S
C2529 C2530 1.523 . S
C2530 C2511 1.368 . S
C2530 C2524 1.368 . S
C2530 C2529 1.523 . S
C2531 C2515 1.429 . S
C2531 C2527 1.429 . S
C2531 C2532 1.523 . S
C2532 C2516 1.368 . S
C2532 C2528 1.368 . S
C2532 C2531 1.523 . S
H2533 C2508 0.950 . S
H2534 C2510 0.950 . S
H2535 C2511 0.949 . S
H2536 C2513 0.950 1_455 S
H2537 C2515 0.950 . S
C2538 C2539 1.349 . S
C2538 C2540 1.327 . S
C2538 H2563 0.950 . S
C2539 C2538 1.349 . S
C2539 C2555 1.349 . S
C2540 C2538 1.327 . S
C2540 C2559 1.429 . S
C2540 H2564 0.950 . S
C2541 C2558 1.574 . S
C2541 C2560 1.368 . S
C2541 H2565 0.949 . S
H2542 C2546 0.949 . S
C2543 C2544 1.349 . S
C2543 C2545 1.327 . S
C2543 H2566 0.950 . S
C2544 C2543 1.349 . S
C2544 C2556 1.349 . S
C2545 C2543 1.327 . S
C2545 C2561 1.429 . S
C2545 H2567 0.950 . S
C2546 H2542 0.949 . S
C2546 C2554 1.574 . S
C2546 C2562 1.368 . S
H2547 C2555 0.950 . S
H2548 C2553 0.950 . S
H2549 C2554 0.949 . S
H2550 C2556 0.950 . S
H2551 C2557 0.950 . S
H2552 C2558 0.949 . S
C2553 H2548 0.950 . S
C2553 C2555 1.327 . S
C2553 C2559 1.429 . S
C2554 C2546 1.574 . S
C2554 H2549 0.949 . S
C2554 C2560 1.368 . S
C2555 C2539 1.349 . S
C2555 H2547 0.950 . S
C2555 C2553 1.327 . S
C2556 C2544 1.349 . S
C2556 H2550 0.950 . S
C2556 C2557 1.327 . S
C2557 H2551 0.950 . S
C2557 C2556 1.327 . S
C2557 C2561 1.429 . S
C2558 C2541 1.574 . S
C2558 H2552 0.949 . S
C2558 C2562 1.368 . S
C2559 C2540 1.429 . S
C2559 C2553 1.429 . S
C2559 C2560 1.523 . S
C2560 C2541 1.368 . S
C2560 C2554 1.368 . S
C2560 C2559 1.523 . S
C2561 C2545 1.429 . S
C2561 C2557 1.429 . S
C2561 C2562 1.523 . S
C2562 C2546 1.368 . S
C2562 C2558 1.368 . S
C2562 C2561 1.523 . S
H2563 C2538 0.950 . S
H2564 C2540 0.950 . S
H2565 C2541 0.949 . S
H2566 C2543 0.950 . S
H2567 C2545 0.950 . S
C2568 C2569 1.349 . S
C2568 C2570 1.327 . S
C2568 H2593 0.950 . S
C2569 C2568 1.349 . S
C2569 C2585 1.349 . S
C2570 C2568 1.327 . S
C2570 C2589 1.429 . S
C2570 H2594 0.950 . S
C2571 C2588 1.574 . S
C2571 C2590 1.368 . S
C2571 H2595 0.949 . S
H2572 C2576 0.949 . S
C2573 C2574 1.349 . S
C2573 C2575 1.327 . S
C2573 H2596 0.950 1_565 S
C2574 C2573 1.349 . S
C2574 C2586 1.349 . S
C2575 C2573 1.327 . S
C2575 C2591 1.429 . S
C2575 H2597 0.950 . S
C2576 H2572 0.949 . S
C2576 C2584 1.574 . S
C2576 C2592 1.368 . S
H2577 C2585 0.950 . S
H2578 C2583 0.950 . S
H2579 C2584 0.949 . S
H2580 C2586 0.950 . S
H2581 C2587 0.950 . S
H2582 C2588 0.949 . S
C2583 H2578 0.950 . S
C2583 C2585 1.327 . S
C2583 C2589 1.429 . S
C2584 C2576 1.574 . S
C2584 H2579 0.949 . S
C2584 C2590 1.368 . S
C2585 C2569 1.349 . S
C2585 H2577 0.950 . S
C2585 C2583 1.327 . S
C2586 C2574 1.349 . S
C2586 H2580 0.950 . S
C2586 C2587 1.327 . S
C2587 H2581 0.950 . S
C2587 C2586 1.327 . S
C2587 C2591 1.429 . S
C2588 C2571 1.574 . S
C2588 H2582 0.949 . S
C2588 C2592 1.368 . S
C2589 C2570 1.429 . S
C2589 C2583 1.429 . S
C2589 C2590 1.523 . S
C2590 C2571 1.368 . S
C2590 C2584 1.368 . S
C2590 C2589 1.523 . S
C2591 C2575 1.429 . S
C2591 C2587 1.429 . S
C2591 C2592 1.523 . S
C2592 C2576 1.368 . S
C2592 C2588 1.368 . S
C2592 C2591 1.523 . S
H2593 C2568 0.950 . S
H2594 C2570 0.950 . S
H2595 C2571 0.949 . S
H2596 C2573 0.950 1_545 S
H2597 C2575 0.950 . S
C2598 C2599 1.349 . S
C2598 C2600 1.327 . S
C2598 H2623 0.950 . S
C2599 C2598 1.349 . S
C2599 C2615 1.349 . S
C2600 C2598 1.327 . S
C2600 C2619 1.429 . S
C2600 H2624 0.950 . S
C2601 C2618 1.574 . S
C2601 C2620 1.368 . S
C2601 H2625 0.949 . S
H2602 C2606 0.949 . S
C2603 C2604 1.349 . S
C2603 C2605 1.327 . S
C2603 H2626 0.950 . S
C2604 C2603 1.349 . S
C2604 C2616 1.349 1_455 S
C2605 C2603 1.327 . S
C2605 C2621 1.429 . S
C2605 H2627 0.950 . S
C2606 H2602 0.949 . S
C2606 C2614 1.574 . S
C2606 C2622 1.368 . S
H2607 C2615 0.950 . S
H2608 C2613 0.950 . S
H2609 C2614 0.949 . S
H2610 C2616 0.950 . S
H2611 C2617 0.950 . S
H2612 C2618 0.949 . S
C2613 H2608 0.950 . S
C2613 C2615 1.327 . S
C2613 C2619 1.429 . S
C2614 C2606 1.574 . S
C2614 H2609 0.949 . S
C2614 C2620 1.368 . S
C2615 C2599 1.349 . S
C2615 H2607 0.950 . S
C2615 C2613 1.327 . S
C2616 C2604 1.349 1_655 S
C2616 H2610 0.950 . S
C2616 C2617 1.327 1_655 S
C2617 H2611 0.950 . S
C2617 C2616 1.327 1_455 S
C2617 C2621 1.429 . S
C2618 C2601 1.574 . S
C2618 H2612 0.949 . S
C2618 C2622 1.368 . S
C2619 C2600 1.429 . S
C2619 C2613 1.429 . S
C2619 C2620 1.523 . S
C2620 C2601 1.368 . S
C2620 C2614 1.368 . S
C2620 C2619 1.523 . S
C2621 C2605 1.429 . S
C2621 C2617 1.429 . S
C2621 C2622 1.523 . S
C2622 C2606 1.368 . S
C2622 C2618 1.368 . S
C2622 C2621 1.523 . S
H2623 C2598 0.950 . S
H2624 C2600 0.950 . S
H2625 C2601 0.949 . S
H2626 C2603 0.950 . S
H2627 C2605 0.950 . S
C2628 C2629 1.349 . S
C2628 C2630 1.327 . S
C2628 H2653 0.950 . S
C2629 C2628 1.349 . S
C2629 C2645 1.349 . S
C2630 C2628 1.327 . S
C2630 C2649 1.429 . S
C2630 H2654 0.950 . S
C2631 C2648 1.574 . S
C2631 C2650 1.368 . S
C2631 H2655 0.949 . S
H2632 C2636 0.949 . S
C2633 C2634 1.349 . S
C2633 C2635 1.327 1_455 S
C2633 H2656 0.950 . S
C2634 C2633 1.349 . S
C2634 C2646 1.349 . S
C2635 C2633 1.327 1_655 S
C2635 C2651 1.429 . S
C2635 H2657 0.950 . S
C2636 H2632 0.949 . S
C2636 C2644 1.574 . S
C2636 C2652 1.368 . S
H2637 C2645 0.950 . S
H2638 C2643 0.950 . S
H2639 C2644 0.949 . S
H2640 C2646 0.950 . S
H2641 C2647 0.950 . S
H2642 C2648 0.949 . S
C2643 H2638 0.950 . S
C2643 C2645 1.327 . S
C2643 C2649 1.429 . S
C2644 C2636 1.574 . S
C2644 H2639 0.949 . S
C2644 C2650 1.368 . S
C2645 C2629 1.349 . S
C2645 H2637 0.950 . S
C2645 C2643 1.327 . S
C2646 C2634 1.349 . S
C2646 H2640 0.950 . S
C2646 C2647 1.327 . S
C2647 H2641 0.950 . S
C2647 C2646 1.327 . S
C2647 C2651 1.429 1_455 S
C2648 C2631 1.574 . S
C2648 H2642 0.949 . S
C2648 C2652 1.368 . S
C2649 C2630 1.429 . S
C2649 C2643 1.429 . S
C2649 C2650 1.523 . S
C2650 C2631 1.368 . S
C2650 C2644 1.368 . S
C2650 C2649 1.523 . S
C2651 C2635 1.429 . S
C2651 C2647 1.429 1_655 S
C2651 C2652 1.523 . S
C2652 C2636 1.368 . S
C2652 C2648 1.368 . S
C2652 C2651 1.523 . S
H2653 C2628 0.950 . S
H2654 C2630 0.950 . S
H2655 C2631 0.949 . S
H2656 C2633 0.950 . S
H2657 C2635 0.950 . S
C2658 C2659 1.349 . S
C2658 C2660 1.327 . S
C2658 H2683 0.950 . S
C2659 C2658 1.349 . S
C2659 C2675 1.349 . S
C2660 C2658 1.327 . S
C2660 C2679 1.429 . S
C2660 H2684 0.950 . S
C2661 C2678 1.574 . S
C2661 C2680 1.368 . S
C2661 H2685 0.949 . S
H2662 C2666 0.949 . S
C2663 C2664 1.349 . S
C2663 C2665 1.327 . S
C2663 H2686 0.950 . S
C2664 C2663 1.349 . S
C2664 C2676 1.349 . S
C2665 C2663 1.327 . S
C2665 C2681 1.429 . S
C2665 H2687 0.950 . S
C2666 H2662 0.949 . S
C2666 C2674 1.574 . S
C2666 C2682 1.368 . S
H2667 C2675 0.950 . S
H2668 C2673 0.950 . S
H2669 C2674 0.949 . S
H2670 C2676 0.950 . S
H2671 C2677 0.950 . S
H2672 C2678 0.949 . S
C2673 H2668 0.950 . S
C2673 C2675 1.327 . S
C2673 C2679 1.429 . S
C2674 C2666 1.574 . S
C2674 H2669 0.949 . S
C2674 C2680 1.368 . S
C2675 C2659 1.349 . S
C2675 H2667 0.950 . S
C2675 C2673 1.327 . S
C2676 C2664 1.349 . S
C2676 H2670 0.950 . S
C2676 C2677 1.327 . S
C2677 H2671 0.950 . S
C2677 C2676 1.327 . S
C2677 C2681 1.429 . S
C2678 C2661 1.574 . S
C2678 H2672 0.949 . S
C2678 C2682 1.368 . S
C2679 C2660 1.429 . S
C2679 C2673 1.429 . S
C2679 C2680 1.523 . S
C2680 C2661 1.368 . S
C2680 C2674 1.368 . S
C2680 C2679 1.523 . S
C2681 C2665 1.429 . S
C2681 C2677 1.429 . S
C2681 C2682 1.523 . S
C2682 C2666 1.368 . S
C2682 C2678 1.368 . S
C2682 C2681 1.523 . S
H2683 C2658 0.950 . S
H2684 C2660 0.950 . S
H2685 C2661 0.949 . S
H2686 C2663 0.950 . S
H2687 C2665 0.950 . S
C2688 C2689 1.349 . S
C2688 C2690 1.327 . S
C2688 H2713 0.950 . S
C2689 C2688 1.349 . S
C2689 C2705 1.349 . S
C2690 C2688 1.327 . S
C2690 C2709 1.429 1_565 S
C2690 H2714 0.950 . S
C2691 C2708 1.574 . S
C2691 C2710 1.368 . S
C2691 H2715 0.949 . S
H2692 C2696 0.949 . S
C2693 C2694 1.349 . S
C2693 C2695 1.327 . S
C2693 H2716 0.950 . S
C2694 C2693 1.349 . S
C2694 C2706 1.349 . S
C2695 C2693 1.327 . S
C2695 C2711 1.429 . S
C2695 H2717 0.950 . S
C2696 H2692 0.949 . S
C2696 C2704 1.574 . S
C2696 C2712 1.368 . S
H2697 C2705 0.950 . S
H2698 C2703 0.950 . S
H2699 C2704 0.949 . S
H2700 C2706 0.950 . S
H2701 C2707 0.950 . S
H2702 C2708 0.949 . S
C2703 H2698 0.950 . S
C2703 C2705 1.327 1_545 S
C2703 C2709 1.429 . S
C2704 C2696 1.574 . S
C2704 H2699 0.949 . S
C2704 C2710 1.368 . S
C2705 C2689 1.349 . S
C2705 H2697 0.950 . S
C2705 C2703 1.327 1_565 S
C2706 C2694 1.349 . S
C2706 H2700 0.950 . S
C2706 C2707 1.327 . S
C2707 H2701 0.950 . S
C2707 C2706 1.327 . S
C2707 C2711 1.429 . S
C2708 C2691 1.574 . S
C2708 H2702 0.949 . S
C2708 C2712 1.368 . S
C2709 C2690 1.429 1_545 S
C2709 C2703 1.429 . S
C2709 C2710 1.523 . S
C2710 C2691 1.368 . S
C2710 C2704 1.368 . S
C2710 C2709 1.523 . S
C2711 C2695 1.429 . S
C2711 C2707 1.429 . S
C2711 C2712 1.523 . S
C2712 C2696 1.368 . S
C2712 C2708 1.368 . S
C2712 C2711 1.523 . S
H2713 C2688 0.950 . S
H2714 C2690 0.950 . S
H2715 C2691 0.949 . S
H2716 C2693 0.950 . S
H2717 C2695 0.950 . S
C2718 C2719 1.349 . S
C2718 C2720 1.327 . S
C2718 H2743 0.950 . S
C2719 C2718 1.349 . S
C2719 C2735 1.349 . S
C2720 C2718 1.327 . S
C2720 C2739 1.429 . S
C2720 H2744 0.954 1_655 S
C2721 C2738 1.574 . S
C2721 C2740 1.368 . S
C2721 H2745 0.949 . S
H2722 C2726 0.949 . S
C2723 C2724 1.349 . S
C2723 C2725 1.327 . S
C2723 H2746 0.950 . S
C2724 C2723 1.349 . S
C2724 C2736 1.349 . S
C2725 C2723 1.327 . S
C2725 C2741 1.429 . S
C2725 H2747 0.950 . S
C2726 H2722 0.949 . S
C2726 C2734 1.574 . S
C2726 C2742 1.368 . S
H2727 C2735 0.950 . S
H2728 C2733 0.950 . S
H2729 C2734 0.949 . S
H2730 C2736 0.950 . S
H2731 C2737 0.950 . S
H2732 C2738 0.949 . S
C2733 H2728 0.950 . S
C2733 C2735 1.327 . S
C2733 C2739 1.429 . S
C2734 C2726 1.574 . S
C2734 H2729 0.949 . S
C2734 C2740 1.368 . S
C2735 C2719 1.349 . S
C2735 H2727 0.950 . S
C2735 C2733 1.327 . S
C2736 C2724 1.349 . S
C2736 H2730 0.950 . S
C2736 C2737 1.327 . S
C2737 H2731 0.950 . S
C2737 C2736 1.327 . S
C2737 C2741 1.429 . S
C2738 C2721 1.574 . S
C2738 H2732 0.949 . S
C2738 C2742 1.368 . S
C2739 C2720 1.429 . S
C2739 C2733 1.429 . S
C2739 C2740 1.523 1_655 S
C2740 C2721 1.368 . S
C2740 C2734 1.368 . S
C2740 C2739 1.523 1_455 S
C2741 C2725 1.429 . S
C2741 C2737 1.429 . S
C2741 C2742 1.523 . S
C2742 C2726 1.368 . S
C2742 C2738 1.368 . S
C2742 C2741 1.523 . S
H2743 C2718 0.950 . S
H2744 C2720 0.954 1_455 S
H2745 C2721 0.949 . S
H2746 C2723 0.950 . S
H2747 C2725 0.950 . S
C2748 C2749 1.349 . S
C2748 C2750 1.327 . S
C2748 H2773 0.950 . S
C2749 C2748 1.349 . S
C2749 C2765 1.349 . S
C2750 C2748 1.327 . S
C2750 C2769 1.429 . S
C2750 H2774 0.950 . S
C2751 C2768 1.574 . S
C2751 C2770 1.368 . S
C2751 H2775 0.949 . S
H2752 C2756 0.949 . S
C2753 C2754 1.349 . S
C2753 C2755 1.327 . S
C2753 H2776 0.950 . S
C2754 C2753 1.349 . S
C2754 C2766 1.349 . S
C2755 C2753 1.327 . S
C2755 C2771 1.429 . S
C2755 H2777 0.950 . S
C2756 H2752 0.949 . S
C2756 C2764 1.574 . S
C2756 C2772 1.368 . S
H2757 C2765 0.950 . S
H2758 C2763 0.950 . S
H2759 C2764 0.949 . S
H2760 C2766 0.950 . S
H2761 C2767 0.950 . S
H2762 C2768 0.949 . S
C2763 H2758 0.950 . S
C2763 C2765 1.327 . S
C2763 C2769 1.429 . S
C2764 C2756 1.574 . S
C2764 H2759 0.949 . S
C2764 C2770 1.368 . S
C2765 C2749 1.349 . S
C2765 H2757 0.950 . S
C2765 C2763 1.327 . S
C2766 C2754 1.349 . S
C2766 H2760 0.950 . S
C2766 C2767 1.327 . S
C2767 H2761 0.950 . S
C2767 C2766 1.327 . S
C2767 C2771 1.429 . S
C2768 C2751 1.574 . S
C2768 H2762 0.949 . S
C2768 C2772 1.368 . S
C2769 C2750 1.429 . S
C2769 C2763 1.429 . S
C2769 C2770 1.523 . S
C2770 C2751 1.368 . S
C2770 C2764 1.368 . S
C2770 C2769 1.523 . S
C2771 C2755 1.429 . S
C2771 C2767 1.429 . S
C2771 C2772 1.523 . S
C2772 C2756 1.368 . S
C2772 C2768 1.368 . S
C2772 C2771 1.523 . S
H2773 C2748 0.950 . S
H2774 C2750 0.950 . S
H2775 C2751 0.949 . S
H2776 C2753 0.950 . S
H2777 C2755 0.950 . S
C2778 C2779 1.349 1_565 S
C2778 C2780 1.327 . S
C2778 H2803 0.950 . S
C2779 C2778 1.349 1_545 S
C2779 C2795 1.349 . S
C2780 C2778 1.327 . S
C2780 C2799 1.429 1_565 S
C2780 H2804 0.950 . S
C2781 C2798 1.574 . S
C2781 C2800 1.368 1_545 S
C2781 H2805 0.949 . S
H2782 C2786 0.949 . S
C2783 C2784 1.349 . S
C2783 C2785 1.327 . S
C2783 H2806 0.950 . S
C2784 C2783 1.349 . S
C2784 C2796 1.349 . S
C2785 C2783 1.327 . S
C2785 C2801 1.429 . S
C2785 H2807 0.950 1_565 S
C2786 H2782 0.949 . S
C2786 C2794 1.574 . S
C2786 C2802 1.368 . S
H2787 C2795 0.950 . S
H2788 C2793 0.950 . S
H2789 C2794 0.949 . S
H2790 C2796 0.950 . S
H2791 C2797 0.950 . S
H2792 C2798 0.949 . S
C2793 H2788 0.950 . S
C2793 C2795 1.327 . S
C2793 C2799 1.429 . S
C2794 C2786 1.574 . S
C2794 H2789 0.949 . S
C2794 C2800 1.368 . S
C2795 C2779 1.349 . S
C2795 H2787 0.950 . S
C2795 C2793 1.327 . S
C2796 C2784 1.349 . S
C2796 H2790 0.950 . S
C2796 C2797 1.327 . S
C2797 H2791 0.950 . S
C2797 C2796 1.327 . S
C2797 C2801 1.429 . S
C2798 C2781 1.574 . S
C2798 H2792 0.949 . S
C2798 C2802 1.368 1_545 S
C2799 C2780 1.429 1_545 S
C2799 C2793 1.429 . S
C2799 C2800 1.523 1_545 S
C2800 C2781 1.368 1_565 S
C2800 C2794 1.368 . S
C2800 C2799 1.523 1_565 S
C2801 C2785 1.429 . S
C2801 C2797 1.429 . S
C2801 C2802 1.523 . S
C2802 C2786 1.368 . S
C2802 C2798 1.368 1_565 S
C2802 C2801 1.523 . S
H2803 C2778 0.950 . S
H2804 C2780 0.950 . S
H2805 C2781 0.949 . S
H2806 C2783 0.950 . S
H2807 C2785 0.950 1_545 S
C2808 C2809 1.349 . S
C2808 C2810 1.327 . S
C2808 H2833 0.950 . S
C2809 C2808 1.349 . S
C2809 C2825 1.349 . S
C2810 C2808 1.327 . S
C2810 C2829 1.429 . S
C2810 H2834 0.950 . S
C2811 C2828 1.574 . S
C2811 C2830 1.368 1_545 S
C2811 H2835 0.949 . S
H2812 C2816 0.949 . S
C2813 C2814 1.349 . S
C2813 C2815 1.327 . S
C2813 H2836 0.950 . S
C2814 C2813 1.349 . S
C2814 C2826 1.349 1_545 S
C2815 C2813 1.327 . S
C2815 C2831 1.429 . S
C2815 H2837 0.950 . S
C2816 H2812 0.949 . S
C2816 C2824 1.574 . S
C2816 C2832 1.368 . S
H2817 C2825 0.950 . S
H2818 C2823 0.950 1_545 S
H2819 C2824 0.949 . S
H2820 C2826 0.950 . S
H2821 C2827 0.950 . S
H2822 C2828 0.949 . S
C2823 H2818 0.950 1_565 S
C2823 C2825 1.327 . S
C2823 C2829 1.429 . S
C2824 C2816 1.574 . S
C2824 H2819 0.949 . S
C2824 C2830 1.368 . S
C2825 C2809 1.349 . S
C2825 H2817 0.950 . S
C2825 C2823 1.327 . S
C2826 C2814 1.349 1_565 S
C2826 H2820 0.950 . S
C2826 C2827 1.327 . S
C2827 H2821 0.950 . S
C2827 C2826 1.327 . S
C2827 C2831 1.429 1_565 S
C2828 C2811 1.574 . S
C2828 H2822 0.949 . S
C2828 C2832 1.368 1_545 S
C2829 C2810 1.429 . S
C2829 C2823 1.429 . S
C2829 C2830 1.523 . S
C2830 C2811 1.368 1_565 S
C2830 C2824 1.368 . S
C2830 C2829 1.523 . S
C2831 C2815 1.429 . S
C2831 C2827 1.429 1_545 S
C2831 C2832 1.523 1_545 S
C2832 C2816 1.368 . S
C2832 C2828 1.368 1_565 S
C2832 C2831 1.523 1_565 S
H2833 C2808 0.950 . S
H2834 C2810 0.950 . S
H2835 C2811 0.949 . S
H2836 C2813 0.950 . S
H2837 C2815 0.950 . S
C2838 C2839 1.349 . S
C2838 C2840 1.327 . S
C2838 H2863 0.950 . S
C2839 C2838 1.349 . S
C2839 C2855 1.349 . S
C2840 C2838 1.327 . S
C2840 C2859 1.429 . S
C2840 H2864 0.950 . S
C2841 C2858 1.574 . S
C2841 C2860 1.368 . S
C2841 H2865 0.949 . S
H2842 C2846 0.949 . S
C2843 C2844 1.349 . S
C2843 C2845 1.327 . S
C2843 H2866 0.950 . S
C2844 C2843 1.349 . S
C2844 C2856 1.349 . S
C2845 C2843 1.327 . S
C2845 C2861 1.429 . S
C2845 H2867 0.950 . S
C2846 H2842 0.949 . S
C2846 C2854 1.574 . S
C2846 C2862 1.368 . S
H2847 C2855 0.950 . S
H2848 C2853 0.950 . S
H2849 C2854 0.949 . S
H2850 C2856 0.950 . S
H2851 C2857 0.950 . S
H2852 C2858 0.949 . S
C2853 H2848 0.950 . S
C2853 C2855 1.327 . S
C2853 C2859 1.429 . S
C2854 C2846 1.574 . S
C2854 H2849 0.949 . S
C2854 C2860 1.368 . S
C2855 C2839 1.349 . S
C2855 H2847 0.950 . S
C2855 C2853 1.327 . S
C2856 C2844 1.349 . S
C2856 H2850 0.950 . S
C2856 C2857 1.327 . S
C2857 H2851 0.950 . S
C2857 C2856 1.327 . S
C2857 C2861 1.429 . S
C2858 C2841 1.574 . S
C2858 H2852 0.949 . S
C2858 C2862 1.368 . S
C2859 C2840 1.429 . S
C2859 C2853 1.429 . S
C2859 C2860 1.523 1_655 S
C2860 C2841 1.368 . S
C2860 C2854 1.368 . S
C2860 C2859 1.523 1_455 S
C2861 C2845 1.429 . S
C2861 C2857 1.429 . S
C2861 C2862 1.523 . S
C2862 C2846 1.368 . S
C2862 C2858 1.368 . S
C2862 C2861 1.523 . S
H2863 C2838 0.950 . S
H2864 C2840 0.950 . S
H2865 C2841 0.949 . S
H2866 C2843 0.950 . S
H2867 C2845 0.950 . S
C2868 C2869 1.349 . S
C2868 C2870 1.327 . S
C2868 H2893 0.950 . S
C2869 C2868 1.349 . S
C2869 C2885 1.349 . S
C2870 C2868 1.327 . S
C2870 C2889 1.429 . S
C2870 H2894 0.950 . S
C2871 C2888 1.574 . S
C2871 C2890 1.368 . S
C2871 H2895 0.949 . S
H2872 C2876 0.949 . S
C2873 C2874 1.349 . S
C2873 C2875 1.327 . S
C2873 H2896 0.950 . S
C2874 C2873 1.349 . S
C2874 C2886 1.349 . S
C2875 C2873 1.327 . S
C2875 C2891 1.429 . S
C2875 H2897 0.950 . S
C2876 H2872 0.949 . S
C2876 C2884 1.574 . S
C2876 C2892 1.368 . S
H2877 C2885 0.950 . S
H2878 C2883 0.950 . S
H2879 C2884 0.949 . S
H2880 C2886 0.950 . S
H2881 C2887 0.950 . S
H2882 C2888 0.949 . S
C2883 H2878 0.950 . S
C2883 C2885 1.327 . S
C2883 C2889 1.429 . S
C2884 C2876 1.574 . S
C2884 H2879 0.949 . S
C2884 C2890 1.368 . S
C2885 C2869 1.349 . S
C2885 H2877 0.950 . S
C2885 C2883 1.327 . S
C2886 C2874 1.349 . S
C2886 H2880 0.950 . S
C2886 C2887 1.327 . S
C2887 H2881 0.950 . S
C2887 C2886 1.327 . S
C2887 C2891 1.429 . S
C2888 C2871 1.574 . S
C2888 H2882 0.949 . S
C2888 C2892 1.368 . S
C2889 C2870 1.429 . S
C2889 C2883 1.429 . S
C2889 C2890 1.523 . S
C2890 C2871 1.368 . S
C2890 C2884 1.368 . S
C2890 C2889 1.523 . S
C2891 C2875 1.429 . S
C2891 C2887 1.429 . S
C2891 C2892 1.523 . S
C2892 C2876 1.368 . S
C2892 C2888 1.368 . S
C2892 C2891 1.523 . S
H2893 C2868 0.950 . S
H2894 C2870 0.950 . S
H2895 C2871 0.949 . S
H2896 C2873 0.950 . S
H2897 C2875 0.950 . S
C2898 C2899 1.349 . S
C2898 C2900 1.327 1_565 S
C2898 H2923 0.950 . S
C2899 C2898 1.349 . S
C2899 C2915 1.349 . S
C2900 C2898 1.327 1_545 S
C2900 C2919 1.429 . S
C2900 H2924 0.950 . S
C2901 C2918 1.574 . S
C2901 C2920 1.368 1_554 S
C2901 H2925 0.949 . S
H2902 C2906 0.949 . S
C2903 C2904 1.349 . S
C2903 C2905 1.327 . S
C2903 H2926 0.950 . S
C2904 C2903 1.349 . S
C2904 C2916 1.349 . S
C2905 C2903 1.327 . S
C2905 C2921 1.429 . S
C2905 H2927 0.950 . S
C2906 H2902 0.949 . S
C2906 C2914 1.574 . S
C2906 C2922 1.368 1_556 S
H2907 C2915 0.950 . S
H2908 C2913 1.039 . S
H2909 C2914 0.949 . S
H2910 C2916 0.950 . S
H2911 C2917 1.079 . S
H2912 C2918 0.949 . S
C2913 H2908 1.039 . S
C2913 C2915 1.327 . S
C2913 C2919 1.429 1_565 S
C2914 C2906 1.574 . S
C2914 H2909 0.949 . S
C2914 C2920 1.368 . S
C2915 C2899 1.349 . S
C2915 H2907 0.950 . S
C2915 C2913 1.327 . S
C2916 C2904 1.349 . S
C2916 H2910 0.950 . S
C2916 C2917 1.327 . S
C2917 H2911 1.079 . S
C2917 C2916 1.327 . S
C2917 C2921 1.429 . S
C2918 C2901 1.574 . S
C2918 H2912 0.949 . S
C2918 C2922 1.368 . S
C2919 C2900 1.429 . S
C2919 C2913 1.429 1_545 S
C2919 C2920 1.523 . S
C2920 C2901 1.368 1_556 S
C2920 C2914 1.368 . S
C2920 C2919 1.523 . S
C2921 C2905 1.429 . S
C2921 C2917 1.429 . S
C2921 C2922 1.523 . S
C2922 C2906 1.368 1_554 S
C2922 C2918 1.368 . S
C2922 C2921 1.523 . S
H2923 C2898 0.950 . S
H2924 C2900 0.950 . S
H2925 C2901 0.949 . S
H2926 C2903 0.950 . S
H2927 C2905 0.950 . S
C2928 C2929 1.349 . S
C2928 C2930 1.327 . S
C2928 H2953 0.950 . S
C2929 C2928 1.349 . S
C2929 C2945 1.349 . S
C2930 C2928 1.327 . S
C2930 C2949 1.429 . S
C2930 H2954 0.950 . S
C2931 C2948 1.507 1_554 S
C2931 C2950 1.368 . S
C2931 H2955 0.949 . S
H2932 C2936 0.949 . S
C2933 C2934 1.349 . S
C2933 C2935 1.327 . S
C2933 H2956 0.950 . S
C2934 C2933 1.349 . S
C2934 C2946 1.349 . S
C2935 C2933 1.327 . S
C2935 C2951 1.429 1_455 S
C2935 H2957 0.950 1_455 S
C2936 H2932 0.949 . S
C2936 C2944 1.488 1_556 S
C2936 C2952 1.368 . S
H2937 C2945 0.950 . S
H2938 C2943 0.950 . S
H2939 C2944 0.983 . S
H2940 C2946 0.950 . S
H2941 C2947 0.950 1_655 S
H2942 C2948 0.973 . S
C2943 H2938 0.950 . S
C2943 C2945 1.327 . S
C2943 C2949 1.429 . S
C2944 C2936 1.488 1_554 S
C2944 H2939 0.983 . S
C2944 C2950 1.445 . S
C2945 C2929 1.349 . S
C2945 H2937 0.950 . S
C2945 C2943 1.327 . S
C2946 C2934 1.349 . S
C2946 H2940 0.950 . S
C2946 C2947 1.327 . S
C2947 H2941 0.950 1_455 S
C2947 C2946 1.327 . S
C2947 C2951 1.429 1_455 S
C2948 C2931 1.507 1_556 S
C2948 H2942 0.973 . S
C2948 C2952 1.426 . S
C2949 C2930 1.429 . S
C2949 C2943 1.429 . S
C2949 C2950 1.523 . S
C2950 C2931 1.368 . S
C2950 C2944 1.445 . S
C2950 C2949 1.523 . S
C2951 C2935 1.429 1_655 S
C2951 C2947 1.429 1_655 S
C2951 C2952 1.523 . S
C2952 C2936 1.368 . S
C2952 C2948 1.426 . S
C2952 C2951 1.523 . S
H2953 C2928 0.950 . S
H2954 C2930 0.950 . S
H2955 C2931 0.949 . S
H2956 C2933 0.950 . S
H2957 C2935 0.950 1_655 S
C2958 C2959 1.349 . S
C2958 C2960 1.327 . S
C2958 H2983 0.950 . S
C2959 C2958 1.349 . S
C2959 C2975 1.349 . S
C2960 C2958 1.327 . S
C2960 C2979 1.429 . S
C2960 H2984 0.950 . S
C2961 C2978 1.574 1_554 S
C2961 C2980 1.368 . S
C2961 H2985 0.949 . S
H2962 C2966 0.949 . S
C2963 C2964 1.349 . S
C2963 C2965 1.327 . S
C2963 H2986 0.950 . S
C2964 C2963 1.349 . S
C2964 C2976 1.349 . S
C2965 C2963 1.327 . S
C2965 C2981 1.429 . S
C2965 H2987 0.950 . S
C2966 H2962 0.949 . S
C2966 C2974 1.574 1_556 S
C2966 C2982 1.368 . S
H2967 C2975 0.950 . S
H2968 C2973 0.950 . S
H2969 C2974 0.949 . S
H2970 C2976 0.950 . S
H2971 C2977 0.950 . S
H2972 C2978 0.949 . S
C2973 H2968 0.950 . S
C2973 C2975 1.327 . S
C2973 C2979 1.429 . S
C2974 C2966 1.574 1_554 S
C2974 H2969 0.949 . S
C2974 C2980 1.368 . S
C2975 C2959 1.349 . S
C2975 H2967 0.950 . S
C2975 C2973 1.327 . S
C2976 C2964 1.349 . S
C2976 H2970 0.950 . S
C2976 C2977 1.327 . S
C2977 H2971 0.950 . S
C2977 C2976 1.327 . S
C2977 C2981 1.429 . S
C2978 C2961 1.574 1_556 S
C2978 H2972 0.949 . S
C2978 C2982 1.368 . S
C2979 C2960 1.429 . S
C2979 C2973 1.429 . S
C2979 C2980 1.523 . S
C2980 C2961 1.368 . S
C2980 C2974 1.368 . S
C2980 C2979 1.523 . S
C2981 C2965 1.429 . S
C2981 C2977 1.429 . S
C2981 C2982 1.523 . S
C2982 C2966 1.368 . S
C2982 C2978 1.368 . S
C2982 C2981 1.523 . S
H2983 C2958 0.950 . S
H2984 C2960 0.950 . S
H2985 C2961 0.949 . S
H2986 C2963 0.950 . S
H2987 C2965 0.950 . S
C2988 C2989 1.349 . S
C2988 C2990 1.327 . S
C2988 H3013 0.950 . S
C2989 C2988 1.349 . S
C2989 C3005 1.349 . S
C2990 C2988 1.327 . S
C2990 C3009 1.429 . S
C2990 H3014 0.950 1_545 S
C2991 C3008 1.574 . S
C2991 C3010 1.368 . S
C2991 H3015 0.949 . S
H2992 C2996 0.949 . S
C2993 C2994 1.349 1_545 S
C2993 C2995 1.327 . S
C2993 H3016 0.950 . S
C2994 C2993 1.349 1_565 S
C2994 C3006 1.349 . S
C2995 C2993 1.327 . S
C2995 C3011 1.429 1_545 S
C2995 H3017 0.950 . S
C2996 H2992 0.949 . S
C2996 C3004 1.574 . S
C2996 C3012 1.368 1_565 S
H2997 C3005 0.950 . S
H2998 C3003 0.950 . S
H2999 C3004 0.949 . S
H3000 C3006 0.950 . S
H3001 C3007 0.950 . S
H3002 C3008 0.949 . S
C3003 H2998 0.950 . S
C3003 C3005 1.327 . S
C3003 C3009 1.429 . S
C3004 C2996 1.574 . S
C3004 H2999 0.949 . S
C3004 C3010 1.368 1_565 S
C3005 C2989 1.349 . S
C3005 H2997 0.950 . S
C3005 C3003 1.327 . S
C3006 C2994 1.349 . S
C3006 H3000 0.950 . S
C3006 C3007 1.327 . S
C3007 H3001 0.950 . S
C3007 C3006 1.327 . S
C3007 C3011 1.429 . S
C3008 C2991 1.574 . S
C3008 H3002 0.949 . S
C3008 C3012 1.368 . S
C3009 C2990 1.429 . S
C3009 C3003 1.429 . S
C3009 C3010 1.523 . S
C3010 C2991 1.368 . S
C3010 C3004 1.368 1_545 S
C3010 C3009 1.523 . S
C3011 C2995 1.429 1_565 S
C3011 C3007 1.429 . S
C3011 C3012 1.523 1_565 S
C3012 C2996 1.368 1_545 S
C3012 C3008 1.368 . S
C3012 C3011 1.523 1_545 S
H3013 C2988 0.950 . S
H3014 C2990 0.950 1_565 S
H3015 C2991 0.949 . S
H3016 C2993 0.950 . S
H3017 C2995 0.950 . S
C3018 C3019 1.349 . S
C3018 C3020 1.327 . S
C3018 H3043 0.950 . S
C3019 C3018 1.349 . S
C3019 C3035 1.349 . S
C3020 C3018 1.327 . S
C3020 C3039 1.429 . S
C3020 H3044 0.950 . S
C3021 C3038 1.574 . S
C3021 C3040 1.368 . S
C3021 H3045 0.949 . S
H3022 C3026 0.949 . S
C3023 C3024 1.349 . S
C3023 C3025 1.327 . S
C3023 H3046 0.950 . S
C3024 C3023 1.349 . S
C3024 C3036 1.349 . S
C3025 C3023 1.327 . S
C3025 C3041 1.429 . S
C3025 H3047 0.950 . S
C3026 H3022 0.949 . S
C3026 C3034 1.574 . S
C3026 C3042 1.368 . S
H3027 C3035 0.950 . S
H3028 C3033 0.950 . S
H3029 C3034 0.949 . S
H3030 C3036 0.950 . S
H3031 C3037 0.950 . S
H3032 C3038 0.949 . S
C3033 H3028 0.950 . S
C3033 C3035 1.327 . S
C3033 C3039 1.429 . S
C3034 C3026 1.574 . S
C3034 H3029 0.949 . S
C3034 C3040 1.368 . S
C3035 C3019 1.349 . S
C3035 H3027 0.950 . S
C3035 C3033 1.327 . S
C3036 C3024 1.349 . S
C3036 H3030 0.950 . S
C3036 C3037 1.327 . S
C3037 H3031 0.950 . S
C3037 C3036 1.327 . S
C3037 C3041 1.429 . S
C3038 C3021 1.574 . S
C3038 H3032 0.949 . S
C3038 C3042 1.368 . S
C3039 C3020 1.429 . S
C3039 C3033 1.429 . S
C3039 C3040 1.523 . S
C3040 C3021 1.368 . S
C3040 C3034 1.368 . S
C3040 C3039 1.523 . S
C3041 C3025 1.429 . S
C3041 C3037 1.429 . S
C3041 C3042 1.523 1_455 S
C3042 C3026 1.368 . S
C3042 C3038 1.368 . S
C3042 C3041 1.523 1_655 S
H3043 C3018 0.950 . S
H3044 C3020 0.950 . S
H3045 C3021 0.949 . S
H3046 C3023 0.950 . S
H3047 C3025 0.950 . S
C3048 C3049 1.349 . S
C3048 C3050 1.327 . S
C3048 H3073 0.950 . S
C3049 C3048 1.349 . S
C3049 C3065 1.349 . S
C3050 C3048 1.327 . S
C3050 C3069 1.429 . S
C3050 H3074 0.950 . S
C3051 C3068 1.574 . S
C3051 C3070 1.368 . S
C3051 H3075 0.949 . S
H3052 C3056 0.949 . S
C3053 C3054 1.349 . S
C3053 C3055 1.327 . S
C3053 H3076 0.950 . S
C3054 C3053 1.349 . S
C3054 C3066 1.349 . S
C3055 C3053 1.327 . S
C3055 C3071 1.429 . S
C3055 H3077 0.950 . S
C3056 H3052 0.949 . S
C3056 C3064 1.574 . S
C3056 C3072 1.368 . S
H3057 C3065 0.950 . S
H3058 C3063 0.950 . S
H3059 C3064 0.949 . S
H3060 C3066 0.950 . S
H3061 C3067 0.950 . S
H3062 C3068 0.949 . S
C3063 H3058 0.950 . S
C3063 C3065 1.327 . S
C3063 C3069 1.429 . S
C3064 C3056 1.574 . S
C3064 H3059 0.949 . S
C3064 C3070 1.368 . S
C3065 C3049 1.349 . S
C3065 H3057 0.950 . S
C3065 C3063 1.327 . S
C3066 C3054 1.349 . S
C3066 H3060 0.950 . S
C3066 C3067 1.327 . S
C3067 H3061 0.950 . S
C3067 C3066 1.327 . S
C3067 C3071 1.429 . S
C3068 C3051 1.574 . S
C3068 H3062 0.949 . S
C3068 C3072 1.368 . S
C3069 C3050 1.429 . S
C3069 C3063 1.429 . S
C3069 C3070 1.523 . S
C3070 C3051 1.368 . S
C3070 C3064 1.368 . S
C3070 C3069 1.523 . S
C3071 C3055 1.429 . S
C3071 C3067 1.429 . S
C3071 C3072 1.523 . S
C3072 C3056 1.368 . S
C3072 C3068 1.368 . S
C3072 C3071 1.523 . S
H3073 C3048 0.950 . S
H3074 C3050 0.950 . S
H3075 C3051 0.949 . S
H3076 C3053 0.950 . S
H3077 C3055 0.950 . S
C3078 C3079 1.349 . S
C3078 C3080 1.327 . S
C3078 H3103 0.950 . S
C3079 C3078 1.349 . S
C3079 C3095 1.349 . S
C3080 C3078 1.327 . S
C3080 C3099 1.429 . S
C3080 H3104 0.950 . S
C3081 C3098 1.574 . S
C3081 C3100 1.368 1_554 S
C3081 H3105 0.949 . S
H3082 C3086 0.949 . S
C3083 C3084 1.349 . S
C3083 C3085 1.327 1_545 S
C3083 H3106 0.950 . S
C3084 C3083 1.349 . S
C3084 C3096 1.349 . S
C3085 C3083 1.327 1_565 S
C3085 C3101 1.429 . S
C3085 H3107 0.950 . S
C3086 H3082 0.949 . S
C3086 C3094 1.574 . S
C3086 C3102 1.368 1_556 S
H3087 C3095 0.950 . S
H3088 C3093 0.950 . S
H3089 C3094 0.949 . S
H3090 C3096 0.950 . S
H3091 C3097 1.097 . S
H3092 C3098 0.949 . S
C3093 H3088 0.950 . S
C3093 C3095 1.327 . S
C3093 C3099 1.429 . S
C3094 C3086 1.574 . S
C3094 H3089 0.949 . S
C3094 C3100 1.368 . S
C3095 C3079 1.349 . S
C3095 H3087 0.950 . S
C3095 C3093 1.327 . S
C3096 C3084 1.349 . S
C3096 H3090 0.950 . S
C3096 C3097 1.327 . S
C3097 H3091 1.097 . S
C3097 C3096 1.327 . S
C3097 C3101 1.429 1_545 S
C3098 C3081 1.574 . S
C3098 H3092 0.949 . S
C3098 C3102 1.368 . S
C3099 C3080 1.429 . S
C3099 C3093 1.429 . S
C3099 C3100 1.523 . S
C3100 C3081 1.368 1_556 S
C3100 C3094 1.368 . S
C3100 C3099 1.523 . S
C3101 C3085 1.429 . S
C3101 C3097 1.429 1_565 S
C3101 C3102 1.523 . S
C3102 C3086 1.368 1_554 S
C3102 C3098 1.368 . S
C3102 C3101 1.523 . S
H3103 C3078 0.950 . S
H3104 C3080 0.950 . S
H3105 C3081 0.949 . S
H3106 C3083 0.950 . S
H3107 C3085 0.950 . S
C3108 C3109 1.349 . S
C3108 C3110 1.327 . S
C3108 H3133 0.950 . S
C3109 C3108 1.349 . S
C3109 C3125 1.349 . S
C3110 C3108 1.327 . S
C3110 C3129 1.429 1_655 S
C3110 H3134 0.950 . S
C3111 C3128 1.628 . S
C3111 C3130 1.368 . S
C3111 H3135 0.949 . S
H3112 C3116 0.949 . S
C3113 C3114 1.349 . S
C3113 C3115 1.327 . S
C3113 H3136 0.950 . S
C3114 C3113 1.349 . S
C3114 C3126 1.349 . S
C3115 C3113 1.327 . S
C3115 C3131 1.429 . S
C3115 H3137 0.950 . S
C3116 H3112 0.949 . S
C3116 C3124 1.651 . S
C3116 C3132 1.368 . S
H3117 C3125 0.950 . S
H3118 C3123 0.950 1_455 S
H3119 C3124 0.967 . S
H3120 C3126 0.950 . S
H3121 C3127 0.950 . S
H3122 C3128 0.947 . S
C3123 H3118 0.950 1_655 S
C3123 C3125 1.336 . S
C3123 C3129 1.420 1_655 S
C3124 C3116 1.651 . S
C3124 H3119 0.967 . S
C3124 C3130 1.289 1_556 S
C3125 C3109 1.349 . S
C3125 H3117 0.950 . S
C3125 C3123 1.336 . S
C3126 C3114 1.349 . S
C3126 H3120 0.950 . S
C3126 C3127 1.327 . S
C3127 H3121 0.950 . S
C3127 C3126 1.327 . S
C3127 C3131 1.429 . S
C3128 C3111 1.628 . S
C3128 H3122 0.947 . S
C3128 C3132 1.311 1_554 S
C3129 C3110 1.429 1_455 S
C3129 C3123 1.420 1_455 S
C3129 C3130 1.523 . S
C3130 C3111 1.368 . S
C3130 C3124 1.289 1_554 S
C3130 C3129 1.523 . S
C3131 C3115 1.429 . S
C3131 C3127 1.429 . S
C3131 C3132 1.523 . S
C3132 C3116 1.368 . S
C3132 C3128 1.311 1_556 S
C3132 C3131 1.523 . S
H3133 C3108 0.950 . S
H3134 C3110 0.950 . S
H3135 C3111 0.949 . S
H3136 C3113 0.950 . S
H3137 C3115 0.950 . S
C3138 C3139 1.349 . S
C3138 C3140 1.327 . S
C3138 H3163 0.950 . S
C3139 C3138 1.349 . S
C3139 C3155 1.349 . S
C3140 C3138 1.327 . S
C3140 C3159 1.429 . S
C3140 H3164 0.950 . S
C3141 C3158 1.574 . S
C3141 C3160 1.368 . S
C3141 H3165 0.949 . S
H3142 C3146 0.949 . S
C3143 C3144 1.349 . S
C3143 C3145 1.327 . S
C3143 H3166 0.950 . S
C3144 C3143 1.349 . S
C3144 C3156 1.349 . S
C3145 C3143 1.327 . S
C3145 C3161 1.429 . S
C3145 H3167 0.950 . S
C3146 H3142 0.949 . S
C3146 C3154 1.574 . S
C3146 C3162 1.368 . S
H3147 C3155 0.950 . S
H3148 C3153 0.950 . S
H3149 C3154 0.949 . S
H3150 C3156 0.950 . S
H3151 C3157 0.950 . S
H3152 C3158 0.949 . S
C3153 H3148 0.950 . S
C3153 C3155 1.327 . S
C3153 C3159 1.429 . S
C3154 C3146 1.574 . S
C3154 H3149 0.949 . S
C3154 C3160 1.368 1_554 S
C3155 C3139 1.349 . S
C3155 H3147 0.950 . S
C3155 C3153 1.327 . S
C3156 C3144 1.349 . S
C3156 H3150 0.950 . S
C3156 C3157 1.327 . S
C3157 H3151 0.950 . S
C3157 C3156 1.327 . S
C3157 C3161 1.429 . S
C3158 C3141 1.574 . S
C3158 H3152 0.949 . S
C3158 C3162 1.368 1_556 S
C3159 C3140 1.429 . S
C3159 C3153 1.429 . S
C3159 C3160 1.523 . S
C3160 C3141 1.368 . S
C3160 C3154 1.368 1_556 S
C3160 C3159 1.523 . S
C3161 C3145 1.429 . S
C3161 C3157 1.429 . S
C3161 C3162 1.523 . S
C3162 C3146 1.368 . S
C3162 C3158 1.368 1_554 S
C3162 C3161 1.523 . S
H3163 C3138 0.950 . S
H3164 C3140 0.950 . S
H3165 C3141 0.949 . S
H3166 C3143 0.950 . S
H3167 C3145 0.950 . S
C3168 C3169 1.349 . S
C3168 C3170 1.327 1_655 S
C3168 H3193 0.950 . S
C3169 C3168 1.349 . S
C3169 C3185 1.349 . S
C3170 C3168 1.327 1_455 S
C3170 C3189 1.429 . S
C3170 H3194 0.950 . S
C3171 C3188 1.574 . S
C3171 C3190 1.368 . S
C3171 H3195 0.949 . S
H3172 C3176 0.949 . S
C3173 C3174 1.349 . S
C3173 C3175 1.327 . S
C3173 H3196 0.950 . S
C3174 C3173 1.349 . S
C3174 C3186 1.349 . S
C3175 C3173 1.327 . S
C3175 C3191 1.429 . S
C3175 H3197 0.950 . S
C3176 H3172 0.949 . S
C3176 C3184 1.574 . S
C3176 C3192 1.368 . S
H3177 C3185 0.950 . S
H3178 C3183 0.950 . S
H3179 C3184 0.949 . S
H3180 C3186 0.950 . S
H3181 C3187 0.950 . S
H3182 C3188 0.949 . S
C3183 H3178 0.950 . S
C3183 C3185 1.327 . S
C3183 C3189 1.429 1_655 S
C3184 C3176 1.574 . S
C3184 H3179 0.949 . S
C3184 C3190 1.368 . S
C3185 C3169 1.349 . S
C3185 H3177 0.950 . S
C3185 C3183 1.327 . S
C3186 C3174 1.349 . S
C3186 H3180 0.950 . S
C3186 C3187 1.327 . S
C3187 H3181 0.950 . S
C3187 C3186 1.327 . S
C3187 C3191 1.429 . S
C3188 C3171 1.574 . S
C3188 H3182 0.949 . S
C3188 C3192 1.368 . S
C3189 C3170 1.429 . S
C3189 C3183 1.429 1_455 S
C3189 C3190 1.523 . S
C3190 C3171 1.368 . S
C3190 C3184 1.368 . S
C3190 C3189 1.523 . S
C3191 C3175 1.429 . S
C3191 C3187 1.429 . S
C3191 C3192 1.523 . S
C3192 C3176 1.368 . S
C3192 C3188 1.368 . S
C3192 C3191 1.523 . S
H3193 C3168 0.950 . S
H3194 C3170 0.950 . S
H3195 C3171 0.949 . S
H3196 C3173 0.950 . S
H3197 C3175 0.950 . S
C3198 C3199 1.349 . S
C3198 C3200 1.327 . S
C3198 H3223 0.950 . S
C3199 C3198 1.349 . S
C3199 C3215 1.349 . S
C3200 C3198 1.327 . S
C3200 C3219 1.429 . S
C3200 H3224 0.950 . S
C3201 C3218 1.574 . S
C3201 C3220 1.368 . S
C3201 H3225 0.949 . S
H3202 C3206 0.949 . S
C3203 C3204 1.349 . S
C3203 C3205 1.327 . S
C3203 H3226 0.950 . S
C3204 C3203 1.349 . S
C3204 C3216 1.349 . S
C3205 C3203 1.327 . S
C3205 C3221 1.429 . S
C3205 H3227 0.950 . S
C3206 H3202 0.949 . S
C3206 C3214 1.574 . S
C3206 C3222 1.368 . S
H3207 C3215 0.950 . S
H3208 C3213 0.950 . S
H3209 C3214 0.949 . S
H3210 C3216 0.950 . S
H3211 C3217 0.950 . S
H3212 C3218 0.949 . S
C3213 H3208 0.950 . S
C3213 C3215 1.327 . S
C3213 C3219 1.429 . S
C3214 C3206 1.574 . S
C3214 H3209 0.949 . S
C3214 C3220 1.368 . S
C3215 C3199 1.349 . S
C3215 H3207 0.950 . S
C3215 C3213 1.327 . S
C3216 C3204 1.349 . S
C3216 H3210 0.950 . S
C3216 C3217 1.327 . S
C3217 H3211 0.950 . S
C3217 C3216 1.327 . S
C3217 C3221 1.429 . S
C3218 C3201 1.574 . S
C3218 H3212 0.949 . S
C3218 C3222 1.368 . S
C3219 C3200 1.429 . S
C3219 C3213 1.429 . S
C3219 C3220 1.523 . S
C3220 C3201 1.368 . S
C3220 C3214 1.368 . S
C3220 C3219 1.523 . S
C3221 C3205 1.429 . S
C3221 C3217 1.429 . S
C3221 C3222 1.523 . S
C3222 C3206 1.368 . S
C3222 C3218 1.368 . S
C3222 C3221 1.523 . S
H3223 C3198 0.950 . S
H3224 C3200 0.950 . S
H3225 C3201 0.949 . S
H3226 C3203 0.950 . S
H3227 C3205 0.950 . S
C3228 C3229 1.349 . S
C3228 C3230 1.327 . S
C3228 H3253 0.950 . S
C3229 C3228 1.349 . S
C3229 C3245 1.349 . S
C3230 C3228 1.327 . S
C3230 C3249 1.429 . S
C3230 H3254 0.950 . S
C3231 C3248 1.574 . S
C3231 C3250 1.368 . S
C3231 H3255 0.949 . S
H3232 C3236 0.949 . S
C3233 C3234 1.349 . S
C3233 C3235 1.327 . S
C3233 H3256 0.950 . S
C3234 C3233 1.349 . S
C3234 C3246 1.349 . S
C3235 C3233 1.327 . S
C3235 C3251 1.429 1_545 S
C3235 H3257 0.950 . S
C3236 H3232 0.949 . S
C3236 C3244 1.574 . S
C3236 C3252 1.368 . S
H3237 C3245 0.950 . S
H3238 C3243 0.950 . S
H3239 C3244 0.949 . S
H3240 C3246 0.950 . S
H3241 C3247 0.950 . S
H3242 C3248 0.949 . S
C3243 H3238 0.950 . S
C3243 C3245 1.327 . S
C3243 C3249 1.429 . S
C3244 C3236 1.574 . S
C3244 H3239 0.949 . S
C3244 C3250 1.368 . S
C3245 C3229 1.349 . S
C3245 H3237 0.950 . S
C3245 C3243 1.327 . S
C3246 C3234 1.349 . S
C3246 H3240 0.950 . S
C3246 C3247 1.327 1_545 S
C3247 H3241 0.950 . S
C3247 C3246 1.327 1_565 S
C3247 C3251 1.429 . S
C3248 C3231 1.574 . S
C3248 H3242 0.949 . S
C3248 C3252 1.368 . S
C3249 C3230 1.429 . S
C3249 C3243 1.429 . S
C3249 C3250 1.523 . S
C3250 C3231 1.368 . S
C3250 C3244 1.368 . S
C3250 C3249 1.523 . S
C3251 C3235 1.429 1_565 S
C3251 C3247 1.429 . S
C3251 C3252 1.523 . S
C3252 C3236 1.368 . S
C3252 C3248 1.368 . S
C3252 C3251 1.523 . S
H3253 C3228 0.950 . S
H3254 C3230 0.950 . S
H3255 C3231 0.949 . S
H3256 C3233 0.950 . S
H3257 C3235 0.950 . S
C3258 C3259 1.349 . S
C3258 C3260 1.327 . S
C3258 H3283 0.950 . S
C3259 C3258 1.349 . S
C3259 C3275 1.349 . S
C3260 C3258 1.327 . S
C3260 C3279 1.429 . S
C3260 H3284 0.950 1_655 S
C3261 C3278 1.574 . S
C3261 C3280 1.368 . S
C3261 H3285 0.949 . S
H3262 C3266 0.949 . S
C3263 C3264 1.349 1_655 S
C3263 C3265 1.327 . S
C3263 H3286 0.950 . S
C3264 C3263 1.349 1_455 S
C3264 C3276 1.349 . S
C3265 C3263 1.327 . S
C3265 C3281 1.429 1_655 S
C3265 H3287 0.950 . S
C3266 H3262 0.949 . S
C3266 C3274 1.574 . S
C3266 C3282 1.368 1_455 S
H3267 C3275 0.950 . S
H3268 C3273 0.950 . S
H3269 C3274 0.949 . S
H3270 C3276 0.950 . S
H3271 C3277 0.950 . S
H3272 C3278 0.949 . S
C3273 H3268 0.950 . S
C3273 C3275 1.327 . S
C3273 C3279 1.429 . S
C3274 C3266 1.574 . S
C3274 H3269 0.949 . S
C3274 C3280 1.368 1_455 S
C3275 C3259 1.349 . S
C3275 H3267 0.950 . S
C3275 C3273 1.327 . S
C3276 C3264 1.349 . S
C3276 H3270 0.950 . S
C3276 C3277 1.327 . S
C3277 H3271 0.950 . S
C3277 C3276 1.327 . S
C3277 C3281 1.429 . S
C3278 C3261 1.574 . S
C3278 H3272 0.949 . S
C3278 C3282 1.368 . S
C3279 C3260 1.429 . S
C3279 C3273 1.429 . S
C3279 C3280 1.523 . S
C3280 C3261 1.368 . S
C3280 C3274 1.368 1_655 S
C3280 C3279 1.523 . S
C3281 C3265 1.429 1_455 S
C3281 C3277 1.429 . S
C3281 C3282 1.523 1_455 S
C3282 C3266 1.368 1_655 S
C3282 C3278 1.368 . S
C3282 C3281 1.523 1_655 S
H3283 C3258 0.950 . S
H3284 C3260 0.950 1_455 S
H3285 C3261 0.949 . S
H3286 C3263 0.950 . S
H3287 C3265 0.950 . S
C3288 C3289 1.349 . S
C3288 C3290 1.327 . S
C3288 H3313 0.950 . S
C3289 C3288 1.349 . S
C3289 C3305 1.349 . S
C3290 C3288 1.327 . S
C3290 C3309 1.429 . S
C3290 H3314 0.950 . S
C3291 C3308 1.574 . S
C3291 C3310 1.368 . S
C3291 H3315 0.949 . S
H3292 C3296 0.949 . S
C3293 C3294 1.349 . S
C3293 C3295 1.327 . S
C3293 H3316 0.950 . S
C3294 C3293 1.349 . S
C3294 C3306 1.349 . S
C3295 C3293 1.327 . S
C3295 C3311 1.429 . S
C3295 H3317 0.950 . S
C3296 H3292 0.949 . S
C3296 C3304 1.574 . S
C3296 C3312 1.368 . S
H3297 C3305 0.950 . S
H3298 C3303 0.950 . S
H3299 C3304 0.949 . S
H3300 C3306 0.950 . S
H3301 C3307 0.950 . S
H3302 C3308 0.949 . S
C3303 H3298 0.950 . S
C3303 C3305 1.327 . S
C3303 C3309 1.429 . S
C3304 C3296 1.574 . S
C3304 H3299 0.949 . S
C3304 C3310 1.368 . S
C3305 C3289 1.349 . S
C3305 H3297 0.950 . S
C3305 C3303 1.327 . S
C3306 C3294 1.349 . S
C3306 H3300 0.950 . S
C3306 C3307 1.327 . S
C3307 H3301 0.950 . S
C3307 C3306 1.327 . S
C3307 C3311 1.429 . S
C3308 C3291 1.574 . S
C3308 H3302 0.949 . S
C3308 C3312 1.368 . S
C3309 C3290 1.429 . S
C3309 C3303 1.429 . S
C3309 C3310 1.523 . S
C3310 C3291 1.368 . S
C3310 C3304 1.368 . S
C3310 C3309 1.523 . S
C3311 C3295 1.429 . S
C3311 C3307 1.429 . S
C3311 C3312 1.523 . S
C3312 C3296 1.368 . S
C3312 C3308 1.368 . S
C3312 C3311 1.523 . S
H3313 C3288 0.950 . S
H3314 C3290 0.950 . S
H3315 C3291 0.949 . S
H3316 C3293 0.950 . S
H3317 C3295 0.950 . S
C3318 C3319 1.349 . S
C3318 C3320 1.327 . S
C3318 H3343 0.950 . S
C3319 C3318 1.349 . S
C3319 C3335 1.349 . S
C3320 C3318 1.327 . S
C3320 C3339 1.429 . S
C3320 H3344 0.950 1_545 S
C3321 C3338 1.574 . S
C3321 C3340 1.368 . S
C3321 H3345 0.949 . S
H3322 C3326 0.949 . S
C3323 C3324 1.349 1_545 S
C3323 C3325 1.327 . S
C3323 H3346 0.950 . S
C3324 C3323 1.349 1_565 S
C3324 C3336 1.349 . S
C3325 C3323 1.327 . S
C3325 C3341 1.429 1_545 S
C3325 H3347 0.950 . S
C3326 H3322 0.949 . S
C3326 C3334 1.574 . S
C3326 C3342 1.368 1_565 S
H3327 C3335 0.950 . S
H3328 C3333 0.950 . S
H3329 C3334 0.949 . S
H3330 C3336 0.950 . S
H3331 C3337 0.950 . S
H3332 C3338 0.949 . S
C3333 H3328 0.950 . S
C3333 C3335 1.327 . S
C3333 C3339 1.429 . S
C3334 C3326 1.574 . S
C3334 H3329 0.949 . S
C3334 C3340 1.368 1_565 S
C3335 C3319 1.349 . S
C3335 H3327 0.950 . S
C3335 C3333 1.327 . S
C3336 C3324 1.349 . S
C3336 H3330 0.950 . S
C3336 C3337 1.327 . S
C3337 H3331 0.950 . S
C3337 C3336 1.327 . S
C3337 C3341 1.429 . S
C3338 C3321 1.574 . S
C3338 H3332 0.949 . S
C3338 C3342 1.368 . S
C3339 C3320 1.429 . S
C3339 C3333 1.429 . S
C3339 C3340 1.523 . S
C3340 C3321 1.368 . S
C3340 C3334 1.368 1_545 S
C3340 C3339 1.523 . S
C3341 C3325 1.429 1_565 S
C3341 C3337 1.429 . S
C3341 C3342 1.523 1_565 S
C3342 C3326 1.368 1_545 S
C3342 C3338 1.368 . S
C3342 C3341 1.523 1_545 S
H3343 C3318 0.950 . S
H3344 C3320 0.950 1_565 S
H3345 C3321 0.949 . S
H3346 C3323 0.950 . S
H3347 C3325 0.950 . S
C3348 C3349 1.349 . S
C3348 C3350 1.327 . S
C3348 H3373 0.950 . S
C3349 C3348 1.349 . S
C3349 C3365 1.349 . S
C3350 C3348 1.327 . S
C3350 C3369 1.429 . S
C3350 H3374 0.927 1_655 S
C3351 C3368 1.574 . S
C3351 C3370 1.368 . S
C3351 H3375 0.949 . S
H3352 C3356 0.949 . S
C3353 C3354 1.349 . S
C3353 C3355 1.327 . S
C3353 H3376 0.950 . S
C3354 C3353 1.349 . S
C3354 C3366 1.349 . S
C3355 C3353 1.327 . S
C3355 C3371 1.429 . S
C3355 H3377 0.926 1_455 S
C3356 H3352 0.949 . S
C3356 C3364 1.574 . S
C3356 C3372 1.368 . S
H3357 C3365 0.950 . S
H3358 C3363 0.950 . S
H3359 C3364 0.949 . S
H3360 C3366 0.950 . S
H3361 C3367 0.950 . S
H3362 C3368 0.949 . S
C3363 H3358 0.950 . S
C3363 C3365 1.327 . S
C3363 C3369 1.429 . S
C3364 C3356 1.574 . S
C3364 H3359 0.949 . S
C3364 C3370 1.368 1_455 S
C3365 C3349 1.349 . S
C3365 H3357 0.950 . S
C3365 C3363 1.327 . S
C3366 C3354 1.349 . S
C3366 H3360 0.950 . S
C3366 C3367 1.327 . S
C3367 H3361 0.950 . S
C3367 C3366 1.327 . S
C3367 C3371 1.429 . S
C3368 C3351 1.574 . S
C3368 H3362 0.949 . S
C3368 C3372 1.368 1_655 S
C3369 C3350 1.429 . S
C3369 C3363 1.429 . S
C3369 C3370 1.523 . S
C3370 C3351 1.368 . S
C3370 C3364 1.368 1_655 S
C3370 C3369 1.523 . S
C3371 C3355 1.429 . S
C3371 C3367 1.429 . S
C3371 C3372 1.523 . S
C3372 C3356 1.368 . S
C3372 C3368 1.368 1_455 S
C3372 C3371 1.523 . S
H3373 C3348 0.950 . S
H3374 C3350 0.927 1_455 S
H3375 C3351 0.949 . S
H3376 C3353 0.950 . S
H3377 C3355 0.926 1_655 S
C3378 C3379 1.349 . S
C3378 C3380 1.327 . S
C3378 H3403 0.950 . S
C3379 C3378 1.349 . S
C3379 C3395 1.349 . S
C3380 C3378 1.327 . S
C3380 C3399 1.429 . S
C3380 H3404 0.950 . S
C3381 C3398 1.574 . S
C3381 C3400 1.368 . S
C3381 H3405 0.949 . S
H3382 C3386 0.949 . S
C3383 C3384 1.349 . S
C3383 C3385 1.327 . S
C3383 H3406 0.950 . S
C3384 C3383 1.349 . S
C3384 C3396 1.349 . S
C3385 C3383 1.327 . S
C3385 C3401 1.429 . S
C3385 H3407 0.950 . S
C3386 H3382 0.949 . S
C3386 C3394 1.574 . S
C3386 C3402 1.368 . S
H3387 C3395 0.950 . S
H3388 C3393 0.950 . S
H3389 C3394 0.949 . S
H3390 C3396 0.950 . S
H3391 C3397 0.950 . S
H3392 C3398 0.949 . S
C3393 H3388 0.950 . S
C3393 C3395 1.327 . S
C3393 C3399 1.429 . S
C3394 C3386 1.574 . S
C3394 H3389 0.949 . S
C3394 C3400 1.368 . S
C3395 C3379 1.349 . S
C3395 H3387 0.950 . S
C3395 C3393 1.327 . S
C3396 C3384 1.349 . S
C3396 H3390 0.950 . S
C3396 C3397 1.327 . S
C3397 H3391 0.950 . S
C3397 C3396 1.327 . S
C3397 C3401 1.429 . S
C3398 C3381 1.574 . S
C3398 H3392 0.949 . S
C3398 C3402 1.368 . S
C3399 C3380 1.429 . S
C3399 C3393 1.429 . S
C3399 C3400 1.523 . S
C3400 C3381 1.368 . S
C3400 C3394 1.368 . S
C3400 C3399 1.523 . S
C3401 C3385 1.429 . S
C3401 C3397 1.429 . S
C3401 C3402 1.523 . S
C3402 C3386 1.368 . S
C3402 C3398 1.368 . S
C3402 C3401 1.523 . S
H3403 C3378 0.950 . S
H3404 C3380 0.950 . S
H3405 C3381 0.949 . S
H3406 C3383 0.950 . S
H3407 C3385 0.950 . S
C3408 C3409 1.349 . S
C3408 C3410 1.327 . S
C3408 H3433 0.950 . S
C3409 C3408 1.349 . S
C3409 C3425 1.349 . S
C3410 C3408 1.327 . S
C3410 C3429 1.429 . S
C3410 H3434 0.950 . S
C3411 C3428 1.574 . S
C3411 C3430 1.368 1_545 S
C3411 H3435 0.949 . S
H3412 C3416 0.949 . S
C3413 C3414 1.349 . S
C3413 C3415 1.327 . S
C3413 H3436 0.950 . S
C3414 C3413 1.349 . S
C3414 C3426 1.349 . S
C3415 C3413 1.327 . S
C3415 C3431 1.429 . S
C3415 H3437 0.950 . S
C3416 H3412 0.949 . S
C3416 C3424 1.574 . S
C3416 C3432 1.368 1_565 S
H3417 C3425 0.950 . S
H3418 C3423 0.950 . S
H3419 C3424 0.949 . S
H3420 C3426 0.950 . S
H3421 C3427 0.950 . S
H3422 C3428 0.949 . S
C3423 H3418 0.950 . S
C3423 C3425 1.327 . S
C3423 C3429 1.429 . S
C3424 C3416 1.574 . S
C3424 H3419 0.949 . S
C3424 C3430 1.368 . S
C3425 C3409 1.349 . S
C3425 H3417 0.950 . S
C3425 C3423 1.327 . S
C3426 C3414 1.349 . S
C3426 H3420 0.950 . S
C3426 C3427 1.327 . S
C3427 H3421 0.950 . S
C3427 C3426 1.327 . S
C3427 C3431 1.429 . S
C3428 C3411 1.574 . S
C3428 H3422 0.949 . S
C3428 C3432 1.368 . S
C3429 C3410 1.429 . S
C3429 C3423 1.429 . S
C3429 C3430 1.523 . S
C3430 C3411 1.368 1_565 S
C3430 C3424 1.368 . S
C3430 C3429 1.523 . S
C3431 C3415 1.429 . S
C3431 C3427 1.429 . S
C3431 C3432 1.523 . S
C3432 C3416 1.368 1_545 S
C3432 C3428 1.368 . S
C3432 C3431 1.523 . S
H3433 C3408 0.950 . S
H3434 C3410 0.950 . S
H3435 C3411 0.949 . S
H3436 C3413 0.950 . S
H3437 C3415 0.950 . S
C3438 C3439 1.349 . S
C3438 C3440 1.327 . S
C3438 H3463 0.950 . S
C3439 C3438 1.349 . S
C3439 C3455 1.349 . S
C3440 C3438 1.327 . S
C3440 C3459 1.429 . S
C3440 H3464 0.950 . S
C3441 C3458 1.574 . S
C3441 C3460 1.368 . S
C3441 H3465 0.949 . S
H3442 C3446 0.949 . S
C3443 C3444 1.349 . S
C3443 C3445 1.327 . S
C3443 H3466 0.950 . S
C3444 C3443 1.349 . S
C3444 C3456 1.349 . S
C3445 C3443 1.327 . S
C3445 C3461 1.429 . S
C3445 H3467 0.950 . S
C3446 H3442 0.949 . S
C3446 C3454 1.574 . S
C3446 C3462 1.368 . S
H3447 C3455 0.950 . S
H3448 C3453 0.950 . S
H3449 C3454 0.949 . S
H3450 C3456 0.950 . S
H3451 C3457 0.950 . S
H3452 C3458 0.949 . S
C3453 H3448 0.950 . S
C3453 C3455 1.327 . S
C3453 C3459 1.429 . S
C3454 C3446 1.574 . S
C3454 H3449 0.949 . S
C3454 C3460 1.368 1_455 S
C3455 C3439 1.349 . S
C3455 H3447 0.950 . S
C3455 C3453 1.327 . S
C3456 C3444 1.349 . S
C3456 H3450 0.950 . S
C3456 C3457 1.327 . S
C3457 H3451 0.950 . S
C3457 C3456 1.327 . S
C3457 C3461 1.429 . S
C3458 C3441 1.574 . S
C3458 H3452 0.949 . S
C3458 C3462 1.368 1_655 S
C3459 C3440 1.429 . S
C3459 C3453 1.429 . S
C3459 C3460 1.523 . S
C3460 C3441 1.368 . S
C3460 C3454 1.368 1_655 S
C3460 C3459 1.523 . S
C3461 C3445 1.429 . S
C3461 C3457 1.429 . S
C3461 C3462 1.523 . S
C3462 C3446 1.368 . S
C3462 C3458 1.368 1_455 S
C3462 C3461 1.523 . S
H3463 C3438 0.950 . S
H3464 C3440 0.950 . S
H3465 C3441 0.949 . S
H3466 C3443 0.950 . S
H3467 C3445 0.950 . S
C3468 C3469 1.349 . S
C3468 C3470 1.327 . S
C3468 H3493 0.950 . S
C3469 C3468 1.349 . S
C3469 C3485 1.349 . S
C3470 C3468 1.327 . S
C3470 C3489 1.429 . S
C3470 H3494 0.950 . S
C3471 C3488 1.574 . S
C3471 C3490 1.368 . S
C3471 H3495 0.949 . S
H3472 C3476 0.949 . S
C3473 C3474 1.349 . S
C3473 C3475 1.327 . S
C3473 H3496 0.950 . S
C3474 C3473 1.349 . S
C3474 C3486 1.349 . S
C3475 C3473 1.327 . S
C3475 C3491 1.429 . S
C3475 H3497 0.950 . S
C3476 H3472 0.949 . S
C3476 C3484 1.574 . S
C3476 C3492 1.368 . S
H3477 C3485 0.950 . S
H3478 C3483 0.950 . S
H3479 C3484 0.949 . S
H3480 C3486 0.950 . S
H3481 C3487 0.950 . S
H3482 C3488 0.949 . S
C3483 H3478 0.950 . S
C3483 C3485 1.327 . S
C3483 C3489 1.429 . S
C3484 C3476 1.574 . S
C3484 H3479 0.949 . S
C3484 C3490 1.368 . S
C3485 C3469 1.349 . S
C3485 H3477 0.950 . S
C3485 C3483 1.327 . S
C3486 C3474 1.349 . S
C3486 H3480 0.950 . S
C3486 C3487 1.327 . S
C3487 H3481 0.950 . S
C3487 C3486 1.327 . S
C3487 C3491 1.429 . S
C3488 C3471 1.574 . S
C3488 H3482 0.949 . S
C3488 C3492 1.368 . S
C3489 C3470 1.429 . S
C3489 C3483 1.429 . S
C3489 C3490 1.523 . S
C3490 C3471 1.368 . S
C3490 C3484 1.368 . S
C3490 C3489 1.523 . S
C3491 C3475 1.429 . S
C3491 C3487 1.429 . S
C3491 C3492 1.523 . S
C3492 C3476 1.368 . S
C3492 C3488 1.368 . S
C3492 C3491 1.523 . S
H3493 C3468 0.950 . S
H3494 C3470 0.950 . S
H3495 C3471 0.949 . S
H3496 C3473 0.950 . S
H3497 C3475 0.950 . S
C3498 C3499 1.349 . S
C3498 C3500 1.327 . S
C3498 H3523 0.950 . S
C3499 C3498 1.349 . S
C3499 C3515 1.349 . S
C3500 C3498 1.327 . S
C3500 C3519 1.429 . S
C3500 H3524 0.917 1_545 S
C3501 C3518 1.574 . S
C3501 C3520 1.368 . S
C3501 H3525 0.949 . S
H3502 C3506 0.949 . S
C3503 C3504 1.349 . S
C3503 C3505 1.327 . S
C3503 H3526 0.950 . S
C3504 C3503 1.349 . S
C3504 C3516 1.349 . S
C3505 C3503 1.327 . S
C3505 C3521 1.429 . S
C3505 H3527 0.915 1_565 S
C3506 H3502 0.949 . S
C3506 C3514 1.574 . S
C3506 C3522 1.368 . S
H3507 C3515 0.950 . S
H3508 C3513 0.950 . S
H3509 C3514 0.949 . S
H3510 C3516 0.950 . S
H3511 C3517 0.950 . S
H3512 C3518 0.949 . S
C3513 H3508 0.950 . S
C3513 C3515 1.327 . S
C3513 C3519 1.429 . S
C3514 C3506 1.574 . S
C3514 H3509 0.949 . S
C3514 C3520 1.368 1_565 S
C3515 C3499 1.349 . S
C3515 H3507 0.950 . S
C3515 C3513 1.327 . S
C3516 C3504 1.349 . S
C3516 H3510 0.950 . S
C3516 C3517 1.327 . S
C3517 H3511 0.950 . S
C3517 C3516 1.327 . S
C3517 C3521 1.429 . S
C3518 C3501 1.574 . S
C3518 H3512 0.949 . S
C3518 C3522 1.368 1_545 S
C3519 C3500 1.429 . S
C3519 C3513 1.429 . S
C3519 C3520 1.523 . S
C3520 C3501 1.368 . S
C3520 C3514 1.368 1_545 S
C3520 C3519 1.523 . S
C3521 C3505 1.429 . S
C3521 C3517 1.429 . S
C3521 C3522 1.523 . S
C3522 C3506 1.368 . S
C3522 C3518 1.368 1_565 S
C3522 C3521 1.523 . S
H3523 C3498 0.950 . S
H3524 C3500 0.917 1_565 S
H3525 C3501 0.949 . S
H3526 C3503 0.950 . S
H3527 C3505 0.915 1_545 S
C3528 C3529 1.349 . S
C3528 C3530 1.327 . S
C3528 H3553 0.950 . S
C3529 C3528 1.349 . S
C3529 C3545 1.349 . S
C3530 C3528 1.327 . S
C3530 C3549 1.429 . S
C3530 H3554 0.950 . S
C3531 C3548 1.574 . S
C3531 C3550 1.368 . S
C3531 H3555 0.949 . S
H3532 C3536 0.949 . S
C3533 C3534 1.349 . S
C3533 C3535 1.327 . S
C3533 H3556 0.950 . S
C3534 C3533 1.349 . S
C3534 C3546 1.349 . S
C3535 C3533 1.327 . S
C3535 C3551 1.429 . S
C3535 H3557 0.950 . S
C3536 H3532 0.949 . S
C3536 C3544 1.574 . S
C3536 C3552 1.368 . S
H3537 C3545 0.950 . S
H3538 C3543 0.950 . S
H3539 C3544 0.949 . S
H3540 C3546 0.950 . S
H3541 C3547 0.950 . S
H3542 C3548 0.949 . S
C3543 H3538 0.950 . S
C3543 C3545 1.327 . S
C3543 C3549 1.429 . S
C3544 C3536 1.574 . S
C3544 H3539 0.949 . S
C3544 C3550 1.368 . S
C3545 C3529 1.349 . S
C3545 H3537 0.950 . S
C3545 C3543 1.327 . S
C3546 C3534 1.349 . S
C3546 H3540 0.950 . S
C3546 C3547 1.327 . S
C3547 H3541 0.950 . S
C3547 C3546 1.327 . S
C3547 C3551 1.429 . S
C3548 C3531 1.574 . S
C3548 H3542 0.949 . S
C3548 C3552 1.368 . S
C3549 C3530 1.429 . S
C3549 C3543 1.429 . S
C3549 C3550 1.523 . S
C3550 C3531 1.368 . S
C3550 C3544 1.368 . S
C3550 C3549 1.523 . S
C3551 C3535 1.429 . S
C3551 C3547 1.429 . S
C3551 C3552 1.523 . S
C3552 C3536 1.368 . S
C3552 C3548 1.368 . S
C3552 C3551 1.523 . S
H3553 C3528 0.950 . S
H3554 C3530 0.950 . S
H3555 C3531 0.949 . S
H3556 C3533 0.950 . S
H3557 C3535 0.950 . S
C3558 C3559 1.349 . S
C3558 C3560 1.327 . S
C3558 H3583 0.950 . S
C3559 C3558 1.349 . S
C3559 C3575 1.349 . S
C3560 C3558 1.327 . S
C3560 C3579 1.429 . S
C3560 H3584 0.950 . S
C3561 C3578 1.574 . S
C3561 C3580 1.368 . S
C3561 H3585 0.949 . S
H3562 C3566 0.949 . S
C3563 C3564 1.349 . S
C3563 C3565 1.327 . S
C3563 H3586 0.950 . S
C3564 C3563 1.349 . S
C3564 C3576 1.349 . S
C3565 C3563 1.327 . S
C3565 C3581 1.429 . S
C3565 H3587 0.950 . S
C3566 H3562 0.949 . S
C3566 C3574 1.574 . S
C3566 C3582 1.368 . S
H3567 C3575 0.950 . S
H3568 C3573 0.950 . S
H3569 C3574 0.949 . S
H3570 C3576 0.950 . S
H3571 C3577 0.950 . S
H3572 C3578 0.949 . S
C3573 H3568 0.950 . S
C3573 C3575 1.327 . S
C3573 C3579 1.429 . S
C3574 C3566 1.574 . S
C3574 H3569 0.949 . S
C3574 C3580 1.368 . S
C3575 C3559 1.349 . S
C3575 H3567 0.950 . S
C3575 C3573 1.327 . S
C3576 C3564 1.349 . S
C3576 H3570 0.950 . S
C3576 C3577 1.327 . S
C3577 H3571 0.950 . S
C3577 C3576 1.327 . S
C3577 C3581 1.429 . S
C3578 C3561 1.574 . S
C3578 H3572 0.949 . S
C3578 C3582 1.368 . S
C3579 C3560 1.429 . S
C3579 C3573 1.429 . S
C3579 C3580 1.523 . S
C3580 C3561 1.368 . S
C3580 C3574 1.368 . S
C3580 C3579 1.523 . S
C3581 C3565 1.429 . S
C3581 C3577 1.429 . S
C3581 C3582 1.523 . S
C3582 C3566 1.368 . S
C3582 C3578 1.368 . S
C3582 C3581 1.523 . S
H3583 C3558 0.950 . S
H3584 C3560 0.950 . S
H3585 C3561 0.949 . S
H3586 C3563 0.950 . S
H3587 C3565 0.950 . S
C3588 C3589 1.349 . S
C3588 C3590 1.327 . S
C3588 H3613 0.950 . S
C3589 C3588 1.349 . S
C3589 C3605 1.349 . S
C3590 C3588 1.327 . S
C3590 C3609 1.429 . S
C3590 H3614 0.950 . S
C3591 C3608 1.574 . S
C3591 C3610 1.368 . S
C3591 H3615 0.949 . S
H3592 C3596 0.949 . S
C3593 C3594 1.349 . S
C3593 C3595 1.327 . S
C3593 H3616 0.950 . S
C3594 C3593 1.349 . S
C3594 C3606 1.349 . S
C3595 C3593 1.327 . S
C3595 C3611 1.429 . S
C3595 H3617 0.950 . S
C3596 H3592 0.949 . S
C3596 C3604 1.574 . S
C3596 C3612 1.368 . S
H3597 C3605 0.950 . S
H3598 C3603 0.950 . S
H3599 C3604 0.949 . S
H3600 C3606 0.950 . S
H3601 C3607 0.950 . S
H3602 C3608 0.949 . S
C3603 H3598 0.950 . S
C3603 C3605 1.327 . S
C3603 C3609 1.429 . S
C3604 C3596 1.574 . S
C3604 H3599 0.949 . S
C3604 C3610 1.368 . S
C3605 C3589 1.349 . S
C3605 H3597 0.950 . S
C3605 C3603 1.327 . S
C3606 C3594 1.349 . S
C3606 H3600 0.950 . S
C3606 C3607 1.327 . S
C3607 H3601 0.950 . S
C3607 C3606 1.327 . S
C3607 C3611 1.429 . S
C3608 C3591 1.574 . S
C3608 H3602 0.949 . S
C3608 C3612 1.368 . S
C3609 C3590 1.429 . S
C3609 C3603 1.429 . S
C3609 C3610 1.523 . S
C3610 C3591 1.368 . S
C3610 C3604 1.368 . S
C3610 C3609 1.523 . S
C3611 C3595 1.429 . S
C3611 C3607 1.429 . S
C3611 C3612 1.523 . S
C3612 C3596 1.368 . S
C3612 C3608 1.368 . S
C3612 C3611 1.523 . S
H3613 C3588 0.950 . S
H3614 C3590 0.950 . S
H3615 C3591 0.949 . S
H3616 C3593 0.950 . S
H3617 C3595 0.950 . S
C3618 C3619 1.349 . S
C3618 C3620 1.327 . S
C3618 H3643 0.950 . S
C3619 C3618 1.349 . S
C3619 C3635 1.349 . S
C3620 C3618 1.327 . S
C3620 C3639 1.429 . S
C3620 H3644 0.950 . S
C3621 C3638 1.574 . S
C3621 C3640 1.368 . S
C3621 H3645 0.949 . S
H3622 C3626 0.949 . S
C3623 C3624 1.349 . S
C3623 C3625 1.327 . S
C3623 H3646 0.950 . S
C3624 C3623 1.349 . S
C3624 C3636 1.349 . S
C3625 C3623 1.327 . S
C3625 C3641 1.429 . S
C3625 H3647 0.950 . S
C3626 H3622 0.949 . S
C3626 C3634 1.574 . S
C3626 C3642 1.368 . S
H3627 C3635 0.950 . S
H3628 C3633 0.950 . S
H3629 C3634 0.949 . S
H3630 C3636 0.950 . S
H3631 C3637 0.950 . S
H3632 C3638 0.949 . S
C3633 H3628 0.950 . S
C3633 C3635 1.327 . S
C3633 C3639 1.429 . S
C3634 C3626 1.574 . S
C3634 H3629 0.949 . S
C3634 C3640 1.368 . S
C3635 C3619 1.349 . S
C3635 H3627 0.950 . S
C3635 C3633 1.327 . S
C3636 C3624 1.349 . S
C3636 H3630 0.950 . S
C3636 C3637 1.327 . S
C3637 H3631 0.950 . S
C3637 C3636 1.327 . S
C3637 C3641 1.429 . S
C3638 C3621 1.574 . S
C3638 H3632 0.949 . S
C3638 C3642 1.368 . S
C3639 C3620 1.429 . S
C3639 C3633 1.429 . S
C3639 C3640 1.523 . S
C3640 C3621 1.368 . S
C3640 C3634 1.368 . S
C3640 C3639 1.523 . S
C3641 C3625 1.429 . S
C3641 C3637 1.429 . S
C3641 C3642 1.523 . S
C3642 C3626 1.368 . S
C3642 C3638 1.368 . S
C3642 C3641 1.523 . S
H3643 C3618 0.950 . S
H3644 C3620 0.950 . S
H3645 C3621 0.949 . S
H3646 C3623 0.950 . S
H3647 C3625 0.950 . S
C3648 C3649 1.349 . S
C3648 C3650 1.327 . S
C3648 H3673 0.950 . S
C3649 C3648 1.349 . S
C3649 C3665 1.349 . S
C3650 C3648 1.327 . S
C3650 C3669 1.429 . S
C3650 H3674 0.950 . S
C3651 C3668 1.574 . S
C3651 C3670 1.368 . S
C3651 H3675 0.949 . S
H3652 C3656 0.949 . S
C3653 C3654 1.349 . S
C3653 C3655 1.327 . S
C3653 H3676 0.950 . S
C3654 C3653 1.349 . S
C3654 C3666 1.349 . S
C3655 C3653 1.327 . S
C3655 C3671 1.429 . S
C3655 H3677 0.950 . S
C3656 H3652 0.949 . S
C3656 C3664 1.574 . S
C3656 C3672 1.368 . S
H3657 C3665 0.950 . S
H3658 C3663 0.950 . S
H3659 C3664 0.949 . S
H3660 C3666 0.950 . S
H3661 C3667 0.950 . S
H3662 C3668 0.949 . S
C3663 H3658 0.950 . S
C3663 C3665 1.327 . S
C3663 C3669 1.429 . S
C3664 C3656 1.574 . S
C3664 H3659 0.949 . S
C3664 C3670 1.368 . S
C3665 C3649 1.349 . S
C3665 H3657 0.950 . S
C3665 C3663 1.327 . S
C3666 C3654 1.349 . S
C3666 H3660 0.950 . S
C3666 C3667 1.327 . S
C3667 H3661 0.950 . S
C3667 C3666 1.327 . S
C3667 C3671 1.429 . S
C3668 C3651 1.574 . S
C3668 H3662 0.949 . S
C3668 C3672 1.368 . S
C3669 C3650 1.429 . S
C3669 C3663 1.429 . S
C3669 C3670 1.523 . S
C3670 C3651 1.368 . S
C3670 C3664 1.368 . S
C3670 C3669 1.523 . S
C3671 C3655 1.429 . S
C3671 C3667 1.429 . S
C3671 C3672 1.523 . S
C3672 C3656 1.368 . S
C3672 C3668 1.368 . S
C3672 C3671 1.523 . S
H3673 C3648 0.950 . S
H3674 C3650 0.950 . S
H3675 C3651 0.949 . S
H3676 C3653 0.950 . S
H3677 C3655 0.950 . S
C3678 C3679 1.349 . S
C3678 C3680 1.327 . S
C3678 H3703 0.950 . S
C3679 C3678 1.349 . S
C3679 C3695 1.349 . S
C3680 C3678 1.327 . S
C3680 C3699 1.429 . S
C3680 H3704 0.950 . S
C3681 C3698 1.574 . S
C3681 C3700 1.368 . S
C3681 H3705 0.949 . S
H3682 C3686 0.949 . S
C3683 C3684 1.349 . S
C3683 C3685 1.327 . S
C3683 H3706 0.950 . S
C3684 C3683 1.349 . S
C3684 C3696 1.349 . S
C3685 C3683 1.327 . S
C3685 C3701 1.429 . S
C3685 H3707 0.950 . S
C3686 H3682 0.949 . S
C3686 C3694 1.574 . S
C3686 C3702 1.368 . S
H3687 C3695 0.950 . S
H3688 C3693 0.950 . S
H3689 C3694 0.949 . S
H3690 C3696 0.950 . S
H3691 C3697 0.950 . S
H3692 C3698 0.949 . S
C3693 H3688 0.950 . S
C3693 C3695 1.327 . S
C3693 C3699 1.429 . S
C3694 C3686 1.574 . S
C3694 H3689 0.949 . S
C3694 C3700 1.368 . S
C3695 C3679 1.349 . S
C3695 H3687 0.950 . S
C3695 C3693 1.327 . S
C3696 C3684 1.349 . S
C3696 H3690 0.950 . S
C3696 C3697 1.327 . S
C3697 H3691 0.950 . S
C3697 C3696 1.327 . S
C3697 C3701 1.429 . S
C3698 C3681 1.574 . S
C3698 H3692 0.949 . S
C3698 C3702 1.368 . S
C3699 C3680 1.429 . S
C3699 C3693 1.429 . S
C3699 C3700 1.523 . S
C3700 C3681 1.368 . S
C3700 C3694 1.368 . S
C3700 C3699 1.523 . S
C3701 C3685 1.429 . S
C3701 C3697 1.429 . S
C3701 C3702 1.523 . S
C3702 C3686 1.368 . S
C3702 C3698 1.368 . S
C3702 C3701 1.523 . S
H3703 C3678 0.950 . S
H3704 C3680 0.950 . S
H3705 C3681 0.949 . S
H3706 C3683 0.950 . S
H3707 C3685 0.950 . S
C3708 C3709 1.349 . S
C3708 C3710 1.327 . S
C3708 H3733 0.950 . S
C3709 C3708 1.349 . S
C3709 C3725 1.349 . S
C3710 C3708 1.327 . S
C3710 C3729 1.429 . S
C3710 H3734 0.950 . S
C3711 C3728 1.574 . S
C3711 C3730 1.368 . S
C3711 H3735 0.949 . S
H3712 C3716 0.949 . S
C3713 C3714 1.349 . S
C3713 C3715 1.327 . S
C3713 H3736 0.950 . S
C3714 C3713 1.349 . S
C3714 C3726 1.349 . S
C3715 C3713 1.327 . S
C3715 C3731 1.429 . S
C3715 H3737 0.950 . S
C3716 H3712 0.949 . S
C3716 C3724 1.574 . S
C3716 C3732 1.368 . S
H3717 C3725 0.950 . S
H3718 C3723 0.950 . S
H3719 C3724 0.949 . S
H3720 C3726 0.950 . S
H3721 C3727 0.950 . S
H3722 C3728 0.949 . S
C3723 H3718 0.950 . S
C3723 C3725 1.327 . S
C3723 C3729 1.429 . S
C3724 C3716 1.574 . S
C3724 H3719 0.949 . S
C3724 C3730 1.368 . S
C3725 C3709 1.349 . S
C3725 H3717 0.950 . S
C3725 C3723 1.327 . S
C3726 C3714 1.349 . S
C3726 H3720 0.950 . S
C3726 C3727 1.327 . S
C3727 H3721 0.950 . S
C3727 C3726 1.327 . S
C3727 C3731 1.429 . S
C3728 C3711 1.574 . S
C3728 H3722 0.949 . S
C3728 C3732 1.368 . S
C3729 C3710 1.429 . S
C3729 C3723 1.429 . S
C3729 C3730 1.523 . S
C3730 C3711 1.368 . S
C3730 C3724 1.368 . S
C3730 C3729 1.523 . S
C3731 C3715 1.429 . S
C3731 C3727 1.429 . S
C3731 C3732 1.523 . S
C3732 C3716 1.368 . S
C3732 C3728 1.368 . S
C3732 C3731 1.523 . S
H3733 C3708 0.950 . S
H3734 C3710 0.950 . S
H3735 C3711 0.949 . S
H3736 C3713 0.950 . S
H3737 C3715 0.950 . S
C3738 C3739 1.349 . S
C3738 C3740 1.327 . S
C3738 H3763 0.950 . S
C3739 C3738 1.349 . S
C3739 C3755 1.349 . S
C3740 C3738 1.327 . S
C3740 C3759 1.429 . S
C3740 H3764 0.950 . S
C3741 C3758 1.574 . S
C3741 C3760 1.368 . S
C3741 H3765 0.949 . S
H3742 C3746 0.949 . S
C3743 C3744 1.349 . S
C3743 C3745 1.327 . S
C3743 H3766 0.950 . S
C3744 C3743 1.349 . S
C3744 C3756 1.349 . S
C3745 C3743 1.327 . S
C3745 C3761 1.429 . S
C3745 H3767 0.950 . S
C3746 H3742 0.949 . S
C3746 C3754 1.574 . S
C3746 C3762 1.368 . S
H3747 C3755 0.950 . S
H3748 C3753 0.950 . S
H3749 C3754 0.949 . S
H3750 C3756 0.950 . S
H3751 C3757 0.950 . S
H3752 C3758 0.949 . S
C3753 H3748 0.950 . S
C3753 C3755 1.327 . S
C3753 C3759 1.429 . S
C3754 C3746 1.574 . S
C3754 H3749 0.949 . S
C3754 C3760 1.368 . S
C3755 C3739 1.349 . S
C3755 H3747 0.950 . S
C3755 C3753 1.327 . S
C3756 C3744 1.349 . S
C3756 H3750 0.950 . S
C3756 C3757 1.327 . S
C3757 H3751 0.950 . S
C3757 C3756 1.327 . S
C3757 C3761 1.429 . S
C3758 C3741 1.574 . S
C3758 H3752 0.949 . S
C3758 C3762 1.368 . S
C3759 C3740 1.429 . S
C3759 C3753 1.429 . S
C3759 C3760 1.523 . S
C3760 C3741 1.368 . S
C3760 C3754 1.368 . S
C3760 C3759 1.523 . S
C3761 C3745 1.429 . S
C3761 C3757 1.429 . S
C3761 C3762 1.523 . S
C3762 C3746 1.368 . S
C3762 C3758 1.368 . S
C3762 C3761 1.523 . S
H3763 C3738 0.950 . S
H3764 C3740 0.950 . S
H3765 C3741 0.949 . S
H3766 C3743 0.950 . S
H3767 C3745 0.950 . S
C3768 C3769 1.349 . S
C3768 C3770 1.327 . S
C3768 H3793 0.950 . S
C3769 C3768 1.349 . S
C3769 C3785 1.349 . S
C3770 C3768 1.327 . S
C3770 C3789 1.429 . S
C3770 H3794 0.950 . S
C3771 C3788 1.574 . S
C3771 C3790 1.368 . S
C3771 H3795 0.949 . S
H3772 C3776 0.949 . S
C3773 C3774 1.349 . S
C3773 C3775 1.327 . S
C3773 H3796 0.950 . S
C3774 C3773 1.349 . S
C3774 C3786 1.349 . S
C3775 C3773 1.327 . S
C3775 C3791 1.429 . S
C3775 H3797 0.950 . S
C3776 H3772 0.949 . S
C3776 C3784 1.574 . S
C3776 C3792 1.368 . S
H3777 C3785 0.950 . S
H3778 C3783 0.950 . S
H3779 C3784 0.949 . S
H3780 C3786 0.950 . S
H3781 C3787 0.950 . S
H3782 C3788 0.949 . S
C3783 H3778 0.950 . S
C3783 C3785 1.327 . S
C3783 C3789 1.429 . S
C3784 C3776 1.574 . S
C3784 H3779 0.949 . S
C3784 C3790 1.368 . S
C3785 C3769 1.349 . S
C3785 H3777 0.950 . S
C3785 C3783 1.327 . S
C3786 C3774 1.349 . S
C3786 H3780 0.950 . S
C3786 C3787 1.327 . S
C3787 H3781 0.950 . S
C3787 C3786 1.327 . S
C3787 C3791 1.429 . S
C3788 C3771 1.574 . S
C3788 H3782 0.949 . S
C3788 C3792 1.368 . S
C3789 C3770 1.429 . S
C3789 C3783 1.429 . S
C3789 C3790 1.523 . S
C3790 C3771 1.368 . S
C3790 C3784 1.368 . S
C3790 C3789 1.523 . S
C3791 C3775 1.429 . S
C3791 C3787 1.429 . S
C3791 C3792 1.523 . S
C3792 C3776 1.368 . S
C3792 C3788 1.368 . S
C3792 C3791 1.523 . S
H3793 C3768 0.950 . S
H3794 C3770 0.950 . S
H3795 C3771 0.949 . S
H3796 C3773 0.950 . S
H3797 C3775 0.950 . S
C3798 C3799 1.349 . S
C3798 C3800 1.327 . S
C3798 H3823 0.950 . S
C3799 C3798 1.349 . S
C3799 C3815 1.349 . S
C3800 C3798 1.327 . S
C3800 C3819 1.429 . S
C3800 H3824 0.950 . S
C3801 C3818 1.574 . S
C3801 C3820 1.368 . S
C3801 H3825 0.949 . S
H3802 C3806 0.949 . S
C3803 C3804 1.349 . S
C3803 C3805 1.327 . S
C3803 H3826 0.950 . S
C3804 C3803 1.349 . S
C3804 C3816 1.349 . S
C3805 C3803 1.327 . S
C3805 C3821 1.429 . S
C3805 H3827 0.950 . S
C3806 H3802 0.949 . S
C3806 C3814 1.574 . S
C3806 C3822 1.368 . S
H3807 C3815 0.950 . S
H3808 C3813 0.950 . S
H3809 C3814 0.949 . S
H3810 C3816 0.950 . S
H3811 C3817 0.950 . S
H3812 C3818 0.949 . S
C3813 H3808 0.950 . S
C3813 C3815 1.327 . S
C3813 C3819 1.429 . S
C3814 C3806 1.574 . S
C3814 H3809 0.949 . S
C3814 C3820 1.368 . S
C3815 C3799 1.349 . S
C3815 H3807 0.950 . S
C3815 C3813 1.327 . S
C3816 C3804 1.349 . S
C3816 H3810 0.950 . S
C3816 C3817 1.327 . S
C3817 H3811 0.950 . S
C3817 C3816 1.327 . S
C3817 C3821 1.429 . S
C3818 C3801 1.574 . S
C3818 H3812 0.949 . S
C3818 C3822 1.368 . S
C3819 C3800 1.429 . S
C3819 C3813 1.429 . S
C3819 C3820 1.523 . S
C3820 C3801 1.368 . S
C3820 C3814 1.368 . S
C3820 C3819 1.523 . S
C3821 C3805 1.429 . S
C3821 C3817 1.429 . S
C3821 C3822 1.523 . S
C3822 C3806 1.368 . S
C3822 C3818 1.368 . S
C3822 C3821 1.523 . S
H3823 C3798 0.950 . S
H3824 C3800 0.950 . S
H3825 C3801 0.949 . S
H3826 C3803 0.950 . S
H3827 C3805 0.950 . S
C3828 C3829 1.349 . S
C3828 C3830 1.327 . S
C3828 H3853 0.950 . S
C3829 C3828 1.349 . S
C3829 C3845 1.349 . S
C3830 C3828 1.327 . S
C3830 C3849 1.429 . S
C3830 H3854 0.950 . S
C3831 C3848 1.574 . S
C3831 C3850 1.368 . S
C3831 H3855 0.949 . S
H3832 C3836 0.949 . S
C3833 C3834 1.349 . S
C3833 C3835 1.327 . S
C3833 H3856 0.950 . S
C3834 C3833 1.349 . S
C3834 C3846 1.349 . S
C3835 C3833 1.327 . S
C3835 C3851 1.429 . S
C3835 H3857 0.950 . S
C3836 H3832 0.949 . S
C3836 C3844 1.574 . S
C3836 C3852 1.368 . S
H3837 C3845 0.950 . S
H3838 C3843 0.950 . S
H3839 C3844 0.949 . S
H3840 C3846 0.950 . S
H3841 C3847 0.950 . S
H3842 C3848 0.949 . S
C3843 H3838 0.950 . S
C3843 C3845 1.327 . S
C3843 C3849 1.429 . S
C3844 C3836 1.574 . S
C3844 H3839 0.949 . S
C3844 C3850 1.368 . S
C3845 C3829 1.349 . S
C3845 H3837 0.950 . S
C3845 C3843 1.327 . S
C3846 C3834 1.349 . S
C3846 H3840 0.950 . S
C3846 C3847 1.327 . S
C3847 H3841 0.950 . S
C3847 C3846 1.327 . S
C3847 C3851 1.429 . S
C3848 C3831 1.574 . S
C3848 H3842 0.949 . S
C3848 C3852 1.368 . S
C3849 C3830 1.429 . S
C3849 C3843 1.429 . S
C3849 C3850 1.523 . S
C3850 C3831 1.368 . S
C3850 C3844 1.368 . S
C3850 C3849 1.523 . S
C3851 C3835 1.429 . S
C3851 C3847 1.429 . S
C3851 C3852 1.523 . S
C3852 C3836 1.368 . S
C3852 C3848 1.368 . S
C3852 C3851 1.523 . S
H3853 C3828 0.950 . S
H3854 C3830 0.950 . S
H3855 C3831 0.949 . S
H3856 C3833 0.950 . S
H3857 C3835 0.950 . S
C3858 C3859 1.349 . S
C3858 C3860 1.327 . S
C3858 H3883 0.950 . S
C3859 C3858 1.349 . S
C3859 C3875 1.349 . S
C3860 C3858 1.327 . S
C3860 C3879 1.429 . S
C3860 H3884 0.950 . S
C3861 C3878 1.574 . S
C3861 C3880 1.368 . S
C3861 H3885 0.949 . S
H3862 C3866 0.949 . S
C3863 C3864 1.349 . S
C3863 C3865 1.327 . S
C3863 H3886 0.950 . S
C3864 C3863 1.349 . S
C3864 C3876 1.349 . S
C3865 C3863 1.327 . S
C3865 C3881 1.429 . S
C3865 H3887 0.950 . S
C3866 H3862 0.949 . S
C3866 C3874 1.574 . S
C3866 C3882 1.368 . S
H3867 C3875 0.950 . S
H3868 C3873 0.950 . S
H3869 C3874 0.949 . S
H3870 C3876 0.950 . S
H3871 C3877 0.950 . S
H3872 C3878 0.949 . S
C3873 H3868 0.950 . S
C3873 C3875 1.327 . S
C3873 C3879 1.429 . S
C3874 C3866 1.574 . S
C3874 H3869 0.949 . S
C3874 C3880 1.368 . S
C3875 C3859 1.349 . S
C3875 H3867 0.950 . S
C3875 C3873 1.327 . S
C3876 C3864 1.349 . S
C3876 H3870 0.950 . S
C3876 C3877 1.327 . S
C3877 H3871 0.950 . S
C3877 C3876 1.327 . S
C3877 C3881 1.429 . S
C3878 C3861 1.574 . S
C3878 H3872 0.949 . S
C3878 C3882 1.368 . S
C3879 C3860 1.429 . S
C3879 C3873 1.429 . S
C3879 C3880 1.523 . S
C3880 C3861 1.368 . S
C3880 C3874 1.368 . S
C3880 C3879 1.523 . S
C3881 C3865 1.429 . S
C3881 C3877 1.429 . S
C3881 C3882 1.523 . S
C3882 C3866 1.368 . S
C3882 C3878 1.368 . S
C3882 C3881 1.523 . S
H3883 C3858 0.950 . S
H3884 C3860 0.950 . S
H3885 C3861 0.949 . S
H3886 C3863 0.950 . S
H3887 C3865 0.950 . S
C1189 N2 0.914 . S
C1194 C73 0.914 . S
C1219 C7 0.914 . S
C1224 N35 0.914 . S
C1249 C40 0.914 . S
C1254 N68 0.914 . S
C1279 C139 0.914 . S
C1284 N101 0.914 . S
C1309 C172 0.914 . S
C1314 N134 0.914 . S
C1339 C106 0.914 . S
C1344 N167 0.914 . S
C1369 C271 0.914 . S
C1374 N200 0.914 . S
C1399 N233 0.914 . S
C1404 C205 0.914 . S
C1429 C238 0.914 . S
C1434 N266 0.914 . S
C1459 C337 0.914 . S
C1464 N299 0.914 . S
C1489 N332 0.914 . S
C1494 C370 0.914 . S
C1519 C304 0.914 . S
C1524 N365 0.914 . S
C1549 N398 0.914 . S
C1554 C469 0.914 . S
C1579 N431 0.914 . S
C1584 C403 0.914 . S
C1609 N464 0.914 . S
C1614 C436 0.914 . S
C1639 C535 0.914 . S
C1644 N497 0.914 . S
C1669 C568 0.914 . S
C1674 N530 0.914 . S
C1699 N563 0.914 . S
C1704 C502 0.914 . S
C1729 N596 0.914 . S
C1734 C667 0.914 . S
C1759 N629 0.914 . S
C1764 C601 0.914 . S
C1789 N662 0.914 . S
C1794 C634 0.914 . S
C1819 C733 0.914 . S
C1824 N695 0.914 . S
C1849 C766 0.914 . S
C1854 N728 0.914 . S
C1879 N761 0.914 . S
C1884 C700 0.914 . S
C1909 C865 0.914 . S
C1914 N794 0.914 . S
C1939 C799 0.914 . S
C1944 N827 0.914 . S
C1969 N860 0.914 . S
C1974 C832 0.914 . S
C1999 C931 0.914 . S
C2004 N893 0.914 . S
C2029 N926 0.914 . S
C2034 C964 0.914 . S
C2059 C898 0.914 . S
C2064 N959 0.914 . S
C2089 C1063 0.914 . S
C2094 N992 0.914 . S
C2119 N1025 0.914 . S
C2124 C997 0.914 . S
C2149 N1058 0.914 . S
C2154 C1030 0.914 . S
C2179 C1129 0.914 . S
C2184 N1091 0.914 . S
C2209 C1162 0.914 . S
C2214 N1124 0.914 . S
C2239 N1157 0.914 . S
C2244 C1096 0.914 . S
C2269 N673 1.369 . S
C2274 C18 1.384 . S
C2299 C51 1.384 . S
C2304 N607 1.369 1_565 S
C2329 C84 1.384 . S
C2334 N640 1.369 1_455 S
C2359 N1135 1.368 . S
C2364 C117 1.384 . S
C2389 N1168 1.369 1_545 S
C2394 C150 1.384 . S
C2419 C183 1.384 . S
C2424 N1102 1.369 1_655 S
C2449 C216 1.384 . S
C2454 N871 1.368 . S
C2479 C249 1.384 . S
C2484 N805 1.369 1_545 S
C2509 C282 1.384 . S
C2514 N838 1.369 1_655 S
C2539 N541 1.369 . S
C2544 C315 1.384 . S
C2569 C348 1.384 . S
C2574 N574 1.369 1_565 S
C2599 C381 1.384 . S
C2604 N508 1.369 1_455 S
C2629 C414 1.384 . S
C2634 N1069 1.368 . S
C2659 N1003 1.369 . S
C2664 C447 1.384 . S
C2689 N1036 1.369 . S
C2694 C480 1.384 . S
C2719 C513 1.384 . S
C2724 N343 1.368 . S
C2749 C546 1.384 . S
C2754 N376 1.369 . S
C2779 C579 1.384 . S
C2784 N310 1.369 . S
C2809 N79 1.368 . S
C2814 C612 1.383 . S
C2839 C645 1.384 . S
C2844 N13 1.369 . S
C2869 C678 1.384 . S
C2874 N46 1.369 . S
C2899 N937 1.369 . S
C2904 C711 1.384 . S
C2929 C744 1.384 . S
C2934 N970 1.369 . S
C2959 C777 1.384 . S
C2964 N904 1.369 . S
C2989 N277 1.368 . S
C2994 C810 1.384 . S
C3019 N211 1.369 . S
C3024 C843 1.384 . S
C3049 C876 1.384 . S
C3054 N244 1.369 . S
C3079 C909 1.383 . S
C3084 N739 1.368 . S
C3109 N772 1.369 . S
C3114 C942 1.384 . S
C3139 C975 1.384 . S
C3144 N706 1.369 . S
C3169 N475 1.368 . S
C3174 C1008 1.383 . S
C3199 C1041 1.384 . S
C3204 N409 1.369 . S
C3229 C1074 1.384 . S
C3234 N442 1.369 . S
C3259 N145 1.369 . S
C3264 C1107 1.384 . S
C3289 C1140 1.384 . S
C3294 N178 1.369 . S
C3319 N112 1.369 . S
C3324 C1173 1.384 . S
C3349 C153 1.365 . S
C3354 C21 1.365 . S
C3379 C54 1.365 . S
C3384 C186 1.365 . S
C3409 C87 1.365 . S
C3414 C120 1.365 . S
C3439 C219 1.365 . S
C3444 C351 1.365 . S
C3469 C252 1.365 . S
C3474 C384 1.365 . S
C3499 C285 1.365 . S
C3504 C318 1.365 . S
C3529 C549 1.365 . S
C3534 C417 1.365 . S
C3559 C582 1.365 . S
C3564 C450 1.365 . S
C3589 C516 1.365 . S
C3594 C483 1.365 . S
C3619 C747 1.365 . S
C3624 C615 1.365 . S
C3649 C780 1.365 . S
C3654 C648 1.365 . S
C3679 C714 1.365 . S
C3684 C681 1.365 . S
C3709 C945 1.365 . S
C3714 C813 1.365 . S
C3739 C846 1.365 . S
C3744 C978 1.365 . S
C3769 C912 1.365 . S
C3774 C879 1.365 . S
C3799 C1143 1.365 . S
C3804 C1011 1.365 . S
C3829 C1176 1.365 . S
C3834 C1044 1.365 . S
C3859 C1077 1.365 . S
C3864 C1110 1.365 . S
