# Generated by pormake.
# Topology noz, (5)-cn, num edge types: 1
# Building blocks:
#     Node 0, Type 0, BuildingBlock: XOMCOT_clean_sbu_1, # of connection points: 5
#     Node 1, Type 0, BuildingBlock: XOMCOT_clean_sbu_1, # of connection points: 5
#     Node 2, Type 0, BuildingBlock: XOMCOT_clean_sbu_1, # of connection points: 5
#     Node 3, Type 0, BuildingBlock: XOMCOT_clean_sbu_1, # of connection points: 5
#     Node 4, Type 0, BuildingBlock: XOMCOT_clean_sbu_1, # of connection points: 5
#     Node 5, Type 0, BuildingBlock: XOMCOT_clean_sbu_1, # of connection points: 5
#     Node 6, Type 0, BuildingBlock: XOMCOT_clean_sbu_1, # of connection points: 5
#     Node 7, Type 0, BuildingBlock: XOMCOT_clean_sbu_1, # of connection points: 5
#     Edge 8, Type (0, 0), BuildingBlock: MIFKUJ_clean_linker_0, # of connection points: 2
#     Edge 9, Type (0, 0), BuildingBlock: MIFKUJ_clean_linker_0, # of connection points: 2
#     Edge 10, Type (0, 0), BuildingBlock: MIFKUJ_clean_linker_0, # of connection points: 2
#     Edge 11, Type (0, 0), BuildingBlock: MIFKUJ_clean_linker_0, # of connection points: 2
#     Edge 12, Type (0, 0), BuildingBlock: MIFKUJ_clean_linker_0, # of connection points: 2
#     Edge 13, Type (0, 0), BuildingBlock: MIFKUJ_clean_linker_0, # of connection points: 2
#     Edge 14, Type (0, 0), BuildingBlock: MIFKUJ_clean_linker_0, # of connection points: 2
#     Edge 15, Type (0, 0), BuildingBlock: MIFKUJ_clean_linker_0, # of connection points: 2
#     Edge 16, Type (0, 0), BuildingBlock: MIFKUJ_clean_linker_0, # of connection points: 2
#     Edge 17, Type (0, 0), BuildingBlock: MIFKUJ_clean_linker_0, # of connection points: 2
#     Edge 18, Type (0, 0), BuildingBlock: MIFKUJ_clean_linker_0, # of connection points: 2
#     Edge 19, Type (0, 0), BuildingBlock: MIFKUJ_clean_linker_0, # of connection points: 2
#     Edge 20, Type (0, 0), BuildingBlock: MIFKUJ_clean_linker_0, # of connection points: 2
#     Edge 21, Type (0, 0), BuildingBlock: MIFKUJ_clean_linker_0, # of connection points: 2
#     Edge 22, Type (0, 0), BuildingBlock: MIFKUJ_clean_linker_0, # of connection points: 2
#     Edge 23, Type (0, 0), BuildingBlock: MIFKUJ_clean_linker_0, # of connection points: 2
#     Edge 24, Type (0, 0), BuildingBlock: MIFKUJ_clean_linker_0, # of connection points: 2
#     Edge 25, Type (0, 0), BuildingBlock: MIFKUJ_clean_linker_0, # of connection points: 2
#     Edge 26, Type (0, 0), BuildingBlock: MIFKUJ_clean_linker_0, # of connection points: 2
#     Edge 27, Type (0, 0), BuildingBlock: MIFKUJ_clean_linker_0, # of connection points: 2
# Relax obj value: 0.078
# Max RMSD: 0.164
# Mean RMSD: 0.164
data_MOF--net-noz--node1-XOMCOT_clean_sbu_1--edge1-MIFKUJ_clean_linker_0
_symmetry_space_group_name_H-M    P1
_symmetry_Int_Tables_number       1
_symmetry_cell_setting            triclinic
loop_
_symmetry_equiv_pos_as_xyz
'x, y, z'
_cell_length_a     30.296674
_cell_length_b     63.223059
_cell_length_c     46.381946
_cell_angle_alpha  90.203375
_cell_angle_beta   90.013655
_cell_angle_gamma 89.982952
loop_
_atom_site_label
_atom_site_type_symbol
_atom_site_fract_x
_atom_site_fract_y
_atom_site_fract_z
_atom_type_partial_charge
C0 C 0.11443 0.35826 0.35285 0.0
C1 C 0.08012 0.3596 0.33362 0.0
N2 N 0.04536 0.34906 0.34455 0.0
N3 N 0.10155 0.34704 0.37598 0.0
C4 C 0.0592 0.34147 0.37029 0.0
H5 H 0.14666 0.36539 0.35046 0.0
Co6 Co 0.13902 0.34385 0.40749 0.0
C7 C 0.09142 0.31805 0.45135 0.0
O8 O 0.11313 0.32807 0.47176 0.0
N9 N 0.17924 0.34104 0.43895 0.0
C10 C 0.22645 0.34828 0.47445 0.0
C11 C 0.19567 0.35655 0.45596 0.0
C12 C 0.20131 0.32344 0.44754 0.0
N13 N 0.23016 0.3274 0.46925 0.0
O14 O 0.17021 0.3219 0.38678 0.0
H15 H 0.18714 0.37306 0.4549 0.0
H16 H 0.19624 0.30801 0.43795 0.0
O17 O 0.09814 0.32293 0.42487 0.0
C18 C 0.20759 0.32852 0.37782 0.0
O19 O 0.22016 0.34776 0.38475 0.0
N20 N 0.11084 0.36713 0.42521 0.0
C21 C 0.08251 0.406 0.44744 0.0
C22 C 0.05983 0.38725 0.45402 0.0
C23 C 0.07391 0.36798 0.44212 0.0
C24 C 0.13112 0.38538 0.417 0.0
C25 C 0.11792 0.40491 0.42806 0.0
H26 H 0.05466 0.35406 0.44645 0.0
H27 H 0.15917 0.3846 0.4026 0.0
H28 H 0.03845 0.33274 0.38503 0.0
H29 H 0.08059 0.36776 0.31313 0.0
H30 H 0.24576 0.35726 0.48984 0.0
H31 H 0.03127 0.38751 0.46806 0.0
H32 H 0.13636 0.41893 0.42223 0.0
C33 C 0.57864 0.65632 0.85581 0.0
C34 C 0.61059 0.65644 0.83484 0.0
N35 N 0.64437 0.66864 0.84393 0.0
N36 N 0.59192 0.66834 0.87818 0.0
C37 C 0.63225 0.67563 0.87045 0.0
H38 H 0.54746 0.64802 0.85488 0.0
Co39 Co 0.55574 0.67237 0.91005 0.0
C40 C 0.60759 0.69585 0.95398 0.0
O41 O 0.58746 0.68477 0.97393 0.0
N42 N 0.51649 0.67629 0.9422 0.0
C43 C 0.47198 0.67068 0.97975 0.0
C44 C 0.50387 0.66207 0.96237 0.0
C45 C 0.4918 0.69369 0.94848 0.0
N46 N 0.46404 0.69051 0.97089 0.0
O47 O 0.52677 0.69489 0.8896 0.0
H48 H 0.51647 0.64628 0.96492 0.0
H49 H 0.49289 0.70821 0.93624 0.0
O50 O 0.59866 0.69242 0.92733 0.0
C51 C 0.48942 0.68902 0.87967 0.0
O52 O 0.47462 0.6701 0.88615 0.0
N53 N 0.58211 0.64852 0.92721 0.0
C54 C 0.608 0.60976 0.95007 0.0
C55 C 0.63601 0.62737 0.95195 0.0
C56 C 0.62265 0.64669 0.93995 0.0
C57 C 0.55707 0.63093 0.92247 0.0
C58 C 0.56869 0.61153 0.93446 0.0
H59 H 0.64502 0.65993 0.94087 0.0
H60 H 0.52643 0.63233 0.91065 0.0
H61 H 0.65199 0.68606 0.88374 0.0
H62 H 0.6092 0.6479 0.8146 0.0
H63 H 0.45564 0.66285 0.9975 0.0
H64 H 0.66738 0.6263 0.96306 0.0
H65 H 0.54686 0.59808 0.93191 0.0
C66 C 0.11984 0.66135 0.6777 0.0
C67 C 0.08752 0.66192 0.69841 0.0
N68 N 0.05072 0.67025 0.68669 0.0
N69 N 0.10385 0.66935 0.65295 0.0
C70 C 0.06142 0.6745 0.65894 0.0
H71 H 0.15318 0.6556 0.68053 0.0
Co72 Co 0.13938 0.67215 0.62051 0.0
C73 C 0.09056 0.69891 0.57789 0.0
O74 O 0.11294 0.69017 0.55675 0.0
N75 N 0.17767 0.67468 0.58814 0.0
C76 C 0.2203 0.66781 0.55006 0.0
C77 C 0.19011 0.65957 0.56909 0.0
C78 C 0.20142 0.69192 0.58026 0.0
N79 N 0.22754 0.68815 0.55717 0.0
O80 O 0.1713 0.69428 0.64026 0.0
H81 H 0.17878 0.6434 0.56896 0.0
H82 H 0.19938 0.70705 0.59114 0.0
O83 O 0.09741 0.69296 0.60394 0.0
C84 C 0.20917 0.68803 0.64881 0.0
O85 O 0.22239 0.66894 0.64155 0.0
N86 N 0.11042 0.64883 0.60372 0.0
C87 C 0.08208 0.60977 0.58231 0.0
C88 C 0.06077 0.62854 0.57414 0.0
C89 C 0.07489 0.64796 0.58557 0.0
C90 C 0.12989 0.63063 0.61295 0.0
C91 C 0.11641 0.61097 0.60248 0.0
H92 H 0.05702 0.66198 0.57967 0.0
H93 H 0.1573 0.63153 0.62786 0.0
H94 H 0.03911 0.68156 0.64351 0.0
H95 H 0.09084 0.65643 0.72038 0.0
H96 H 0.23672 0.65925 0.53288 0.0
H97 H 0.03335 0.62819 0.55916 0.0
H98 H 0.13382 0.5969 0.60937 0.0
C99 C 0.57954 0.36192 0.16776 0.0
C100 C 0.61246 0.36386 0.188 0.0
N101 N 0.64443 0.3498 0.18166 0.0
N102 N 0.59076 0.34687 0.1485 0.0
C103 C 0.6304 0.33956 0.15767 0.0
H104 H 0.54953 0.37117 0.16678 0.0
Co105 Co 0.55571 0.34074 0.11652 0.0
C106 C 0.61372 0.31901 0.07449 0.0
O107 O 0.59493 0.33024 0.05416 0.0
N108 N 0.51806 0.33454 0.08388 0.0
C109 C 0.47916 0.33662 0.04301 0.0
C110 C 0.50849 0.3468 0.06076 0.0
C111 C 0.49358 0.31681 0.07921 0.0
N112 N 0.46952 0.31778 0.05465 0.0
O113 O 0.52927 0.31805 0.13803 0.0
H114 H 0.52232 0.3621 0.05612 0.0
H115 H 0.49335 0.3033 0.09343 0.0
O116 O 0.60175 0.32164 0.10077 0.0
C117 C 0.4914 0.32372 0.14737 0.0
O118 O 0.47558 0.34214 0.13934 0.0
N119 N 0.57907 0.36492 0.09849 0.0
C120 C 0.60329 0.40503 0.07844 0.0
C121 C 0.63377 0.38822 0.07852 0.0
C122 C 0.62125 0.36835 0.08919 0.0
C123 C 0.55023 0.3814 0.10044 0.0
C124 C 0.56109 0.40132 0.08984 0.0
H125 H 0.64585 0.35605 0.09065 0.0
H126 H 0.51785 0.37881 0.1096 0.0
H127 H 0.6493 0.3275 0.14658 0.0
H128 H 0.61294 0.37482 0.20599 0.0
H129 H 0.46523 0.34286 0.02329 0.0
H130 H 0.66732 0.3905 0.07114 0.0
H131 H 0.53618 0.41359 0.09035 0.0
C132 C 0.61545 0.86018 0.35916 0.0
C133 C 0.58181 0.86277 0.33959 0.0
N134 N 0.54672 0.85147 0.34856 0.0
N135 N 0.6018 0.84739 0.38051 0.0
C136 C 0.55975 0.84219 0.37342 0.0
H137 H 0.64768 0.86751 0.35826 0.0
Co138 Co 0.63683 0.84162 0.41257 0.0
C139 C 0.5795 0.81897 0.45393 0.0
O140 O 0.59835 0.82964 0.47489 0.0
N141 N 0.67421 0.83583 0.44531 0.0
C142 C 0.7119 0.83818 0.48665 0.0
C143 C 0.6833 0.84831 0.46841 0.0
C144 C 0.6984 0.81809 0.45037 0.0
N145 N 0.72159 0.8192 0.47527 0.0
O146 O 0.66436 0.81904 0.3912 0.0
H147 H 0.66959 0.86372 0.47268 0.0
H148 H 0.69896 0.80445 0.43624 0.0
O149 O 0.59138 0.82225 0.42782 0.0
C150 C 0.70205 0.82487 0.38184 0.0
O151 O 0.71718 0.84357 0.38931 0.0
N152 N 0.61248 0.8656 0.4306 0.0
C153 C 0.58766 0.90554 0.45119 0.0
C154 C 0.55794 0.88844 0.45189 0.0
C155 C 0.57073 0.86863 0.44097 0.0
C156 C 0.64048 0.88233 0.42797 0.0
C157 C 0.62932 0.9022 0.43876 0.0
H158 H 0.54666 0.85608 0.44024 0.0
H159 H 0.67251 0.87996 0.41815 0.0
H160 H 0.53853 0.83246 0.38663 0.0
H161 H 0.58303 0.87229 0.32026 0.0
H162 H 0.72533 0.84451 0.50652 0.0
H163 H 0.52478 0.89043 0.46016 0.0
H164 H 0.65365 0.9147 0.43768 0.0
C165 C 0.07364 0.15584 0.8508 0.0
C166 C 0.10615 0.15571 0.83017 0.0
N167 N 0.14292 0.16435 0.84157 0.0
N168 N 0.0895 0.16459 0.8752 0.0
C169 C 0.132 0.16951 0.86905 0.0
H170 H 0.04029 0.15004 0.84818 0.0
Co171 Co 0.05413 0.16842 0.90764 0.0
C172 C 0.10797 0.19123 0.95126 0.0
O173 O 0.08779 0.18032 0.97136 0.0
N174 N 0.01609 0.1723 0.94035 0.0
C175 C 0.97383 0.16745 0.97922 0.0
C176 C 1.00332 0.15816 0.96058 0.0
C177 C 0.99349 0.19013 0.9475 0.0
N178 N 0.96739 0.18755 0.97088 0.0
O179 O 0.02479 0.19131 0.88792 0.0
H180 H 1.01418 0.14198 0.96215 0.0
H181 H 0.99594 0.20482 0.93571 0.0
O182 O 0.09822 0.188 0.92469 0.0
C183 C 0.98673 0.18547 0.87908 0.0
O184 O 0.97257 0.16654 0.88613 0.0
N185 N 0.08021 0.14424 0.92402 0.0
C186 C 0.10626 0.10426 0.94349 0.0
C187 C 0.13379 0.12198 0.94723 0.0
C188 C 0.12054 0.14181 0.93681 0.0
C189 C 0.05474 0.12697 0.91835 0.0
C190 C 0.06654 0.107 0.92838 0.0
H191 H 0.14314 0.1549 0.93865 0.0
H192 H 0.02397 0.12894 0.90683 0.0
H193 H 0.15422 0.17704 0.88418 0.0
H194 H 0.10299 0.1495 0.80848 0.0
H195 H 0.95725 0.15974 0.99698 0.0
H196 H 0.16559 0.12049 0.95767 0.0
H197 H 0.04402 0.09396 0.92484 0.0
C198 C 0.62023 0.15731 0.67368 0.0
C199 C 0.58853 0.15606 0.69481 0.0
N200 N 0.55275 0.16702 0.68615 0.0
N201 N 0.60482 0.16902 0.6517 0.0
C202 C 0.56351 0.1747 0.65982 0.0
H203 H 0.65257 0.15007 0.67422 0.0
Co204 Co 0.63855 0.17469 0.61899 0.0
C205 C 0.57689 0.19494 0.57782 0.0
O206 O 0.5936 0.18286 0.55753 0.0
N207 N 0.6749 0.18055 0.58552 0.0
C208 C 0.71056 0.17836 0.54334 0.0
C209 C 0.68071 0.1688 0.56127 0.0
C210 C 0.70217 0.19738 0.58127 0.0
N211 N 0.72434 0.1963 0.55597 0.0
O212 O 0.66561 0.1977 0.63976 0.0
H213 H 0.66369 0.15434 0.55594 0.0
H214 H 0.70578 0.21038 0.59628 0.0
O215 O 0.59162 0.19349 0.60367 0.0
C216 C 0.70304 0.19182 0.64957 0.0
O217 O 0.71824 0.17311 0.64222 0.0
N218 N 0.61474 0.15021 0.60178 0.0
C219 C 0.59071 0.11077 0.57974 0.0
C220 C 0.55906 0.1268 0.58307 0.0
C221 C 0.57167 0.14644 0.59459 0.0
C222 C 0.64454 0.13405 0.60147 0.0
C223 C 0.63366 0.11443 0.5897 0.0
H224 H 0.54675 0.15841 0.59791 0.0
H225 H 0.67766 0.13677 0.60939 0.0
H226 H 0.54188 0.18443 0.64688 0.0
H227 H 0.59142 0.1474 0.71481 0.0
H228 H 0.72191 0.1723 0.52278 0.0
H229 H 0.52515 0.12427 0.5765 0.0
H230 H 0.65862 0.10218 0.58845 0.0
C231 C 0.0823 0.87002 0.16697 0.0
C232 C 0.1134 0.87355 0.18814 0.0
N233 N 0.14079 0.85675 0.18908 0.0
N234 N 0.09016 0.85115 0.15442 0.0
C235 C 0.12568 0.84332 0.16856 0.0
H236 H 0.0563 0.88075 0.16057 0.0
Co237 Co 0.05955 0.84015 0.12271 0.0
C238 C 0.11188 0.80234 0.10937 0.0
O239 O 0.07658 0.79073 0.11375 0.0
N240 N 0.02899 0.82886 0.09042 0.0
C241 C 0.01631 0.81758 0.04564 0.0
C242 C 0.04699 0.82623 0.064 0.0
C243 C 0.98706 0.82165 0.08744 0.0
N244 N 0.9785 0.81468 0.06035 0.0
O245 O 0.0336 0.81926 0.14764 0.0
H246 H 0.08065 0.83021 0.05845 0.0
H247 H 0.96302 0.82162 0.10463 0.0
O248 O 0.10977 0.82232 0.11302 0.0
C249 C 0.99795 0.82698 0.1579 0.0
O250 O 0.98588 0.84598 0.14959 0.0
N251 N 0.0816 0.86212 0.09976 0.0
C252 C 0.10558 0.89865 0.06998 0.0
C253 C 0.13796 0.88533 0.08179 0.0
C254 C 0.12525 0.86699 0.09656 0.0
C255 C 0.04983 0.87503 0.08873 0.0
C256 C 0.06108 0.89317 0.07339 0.0
H257 H 0.15031 0.85715 0.10627 0.0
H258 H 0.01539 0.87139 0.09234 0.0
H259 H 0.14129 0.82843 0.16321 0.0
H260 H 0.1159 0.88753 0.20158 0.0
H261 H 0.02186 0.81332 0.02332 0.0
H262 H 0.17267 0.88915 0.07981 0.0
H263 H 0.03508 0.90325 0.06515 0.0
H264 H 0.18605 0.31012 0.32636 0.0
H265 H 0.23826 0.29912 0.2888 0.0
H266 H 0.34645 0.30863 0.34807 0.0
H267 H 0.29439 0.32065 0.38489 0.0
H268 H 0.36417 0.3287 0.3032 0.0
H269 H 0.31588 0.25806 0.31788 0.0
H270 H 0.26317 0.22868 0.32353 0.0
H271 H 0.21474 0.239 0.23772 0.0
H272 H 0.26674 0.26867 0.23167 0.0
H273 H 0.52218 0.30548 0.19678 0.0
H274 H 0.47692 0.29528 0.23849 0.0
H275 H 0.35877 0.30536 0.18854 0.0
H276 H 0.40374 0.31593 0.14722 0.0
H277 H 0.35257 0.27094 0.23095 0.0
H278 H 0.39413 0.34533 0.22173 0.0
H279 H 0.44963 0.37353 0.21595 0.0
H280 H 0.51366 0.35386 0.294 0.0
H281 H 0.4589 0.32528 0.29993 0.0
C282 C 0.22085 0.30907 0.33157 0.0
C283 C 0.23629 0.31605 0.3585 0.0
C284 C 0.25082 0.30281 0.31009 0.0
C285 C 0.29664 0.30299 0.31542 0.0
C286 C 0.31148 0.30846 0.34318 0.0
C287 C 0.2817 0.31515 0.36434 0.0
C288 C 0.32919 0.30018 0.29142 0.0
C289 C 0.36205 0.31569 0.28795 0.0
C290 C 0.32641 0.28353 0.2709 0.0
C291 C 0.29501 0.26572 0.27441 0.0
C292 C 0.29376 0.25419 0.30029 0.0
C293 C 0.26404 0.23745 0.30355 0.0
C294 C 0.23556 0.232 0.28103 0.0
C295 C 0.2368 0.24325 0.25516 0.0
C296 C 0.26643 0.26001 0.25179 0.0
C297 C 0.48665 0.30462 0.19441 0.0
C298 C 0.46634 0.31147 0.16888 0.0
C299 C 0.46081 0.2989 0.21825 0.0
C300 C 0.41443 0.2997 0.21666 0.0
C301 C 0.3944 0.30453 0.19023 0.0
C302 C 0.42012 0.31061 0.16666 0.0
C303 C 0.38698 0.29931 0.24324 0.0
C304 C 0.35496 0.2835 0.24686 0.0
C305 C 0.39067 0.31551 0.2642 0.0
C306 C 0.42278 0.33305 0.26109 0.0
C307 C 0.42021 0.34695 0.23755 0.0
C308 C 0.45152 0.363 0.23425 0.0
C309 C 0.48524 0.36545 0.25455 0.0
C310 C 0.48758 0.35191 0.27826 0.0
C311 C 0.45643 0.33579 0.2816 0.0
H312 H 0.50948 0.37787 0.25194 0.0
H313 H 0.21259 0.21904 0.28359 0.0
H314 H 0.5131 0.69902 0.82509 0.0
H315 H 0.46314 0.70986 0.78646 0.0
H316 H 0.35798 0.7175 0.84851 0.0
H317 H 0.40753 0.70528 0.88671 0.0
H318 H 0.32836 0.69522 0.80904 0.0
H319 H 0.4059 0.7604 0.80584 0.0
H320 H 0.47003 0.78436 0.80421 0.0
H321 H 0.50862 0.75804 0.72256 0.0
H322 H 0.44508 0.73371 0.72386 0.0
H323 H 0.18205 0.71354 0.69336 0.0
H324 H 0.22815 0.72579 0.73377 0.0
H325 H 0.34401 0.70167 0.69079 0.0
H326 H 0.29826 0.68934 0.65076 0.0
H327 H 0.36079 0.73913 0.72323 0.0
H328 H 0.28986 0.66996 0.73344 0.0
H329 H 0.22371 0.64723 0.73443 0.0
H330 H 0.17088 0.68383 0.80456 0.0
H331 H 0.23644 0.70702 0.8036 0.0
C332 C 0.47979 0.70384 0.83052 0.0
C333 C 0.46421 0.70169 0.85882 0.0
C334 C 0.45108 0.71006 0.80842 0.0
C335 C 0.40649 0.71473 0.81436 0.0
C336 C 0.392 0.71396 0.84316 0.0
C337 C 0.4204 0.70721 0.86508 0.0
C338 C 0.37396 0.71759 0.79037 0.0
C339 C 0.33515 0.70536 0.79076 0.0
C340 C 0.38255 0.73047 0.766 0.0
C341 C 0.4208 0.74513 0.76505 0.0
C342 C 0.42821 0.75962 0.78762 0.0
C343 C 0.46445 0.77329 0.78674 0.0
C344 C 0.49341 0.7727 0.76331 0.0
C345 C 0.48615 0.75848 0.74069 0.0
C346 C 0.44998 0.74477 0.74146 0.0
C347 C 0.21752 0.7116 0.69212 0.0
C348 C 0.23664 0.70039 0.66909 0.0
C349 C 0.24381 0.7185 0.71524 0.0
C350 C 0.2895 0.71443 0.71542 0.0
C351 C 0.30893 0.70501 0.69113 0.0
C352 C 0.28271 0.69789 0.66832 0.0
C353 C 0.31611 0.71673 0.74221 0.0
C354 C 0.35381 0.72964 0.74212 0.0
C355 C 0.3064 0.7047 0.76705 0.0
C356 C 0.26775 0.69034 0.76824 0.0
C357 C 0.26403 0.67321 0.74897 0.0
C358 C 0.22664 0.66026 0.74951 0.0
C359 C 0.19304 0.66412 0.76948 0.0
C360 C 0.19688 0.68089 0.78905 0.0
C361 C 0.23413 0.69394 0.78852 0.0
H362 H 0.16409 0.65411 0.76983 0.0
H363 H 0.52145 0.78329 0.76268 0.0
H364 H 0.96802 0.66984 0.66369 0.0
H365 H 0.89807 0.67319 0.69003 0.0
H366 H 0.97002 0.68241 0.76937 0.0
H367 H 0.03947 0.67897 0.74332 0.0
H368 H 0.90854 0.65413 0.77716 0.0
H369 H 0.91547 0.72242 0.73355 0.0
H370 H 0.92091 0.74823 0.69403 0.0
H371 H 0.79935 0.72522 0.65821 0.0
H372 H 0.79399 0.69868 0.69688 0.0
H373 H 0.72499 0.67861 0.86614 0.0
H374 H 0.79411 0.68289 0.83933 0.0
H375 H 0.72473 0.67185 0.75949 0.0
H376 H 0.65565 0.6683 0.78593 0.0
H377 H 0.78503 0.70227 0.75252 0.0
H378 H 0.78241 0.63211 0.79313 0.0
H379 H 0.77658 0.60611 0.83246 0.0
H380 H 0.88961 0.63359 0.87403 0.0
H381 H 0.89574 0.65994 0.83511 0.0
C382 C 0.96884 0.67285 0.68667 0.0
C383 C 1.00936 0.67389 0.70143 0.0
C384 C 0.92883 0.67478 0.70174 0.0
C385 C 0.92864 0.67806 0.73178 0.0
C386 C 0.96915 0.6797 0.7463 0.0
C387 C 1.00893 0.67766 0.73135 0.0
C388 C 0.88662 0.67878 0.74854 0.0
C389 C 0.88186 0.66492 0.77196 0.0
C390 C 0.85122 0.6925 0.74147 0.0
C391 C 0.85466 0.70832 0.71797 0.0
C392 C 0.89022 0.72262 0.71702 0.0
C393 C 0.8933 0.73739 0.69475 0.0
C394 C 0.86066 0.73826 0.67351 0.0
C395 C 0.82478 0.72442 0.67457 0.0
C396 C 0.82178 0.70946 0.69661 0.0
C397 C 0.72433 0.67742 0.84286 0.0
C398 C 0.68475 0.67279 0.82829 0.0
C399 C 0.76396 0.67971 0.82755 0.0
C400 C 0.76484 0.67734 0.79737 0.0
C401 C 0.72506 0.67364 0.78273 0.0
C402 C 0.68556 0.67137 0.79797 0.0
C403 C 0.80724 0.67767 0.78104 0.0
C404 C 0.81195 0.69162 0.75771 0.0
C405 C 0.8427 0.66405 0.78808 0.0
C406 C 0.83924 0.64812 0.81137 0.0
C407 C 0.80583 0.63269 0.81076 0.0
C408 C 0.8025 0.61788 0.83296 0.0
C409 C 0.83263 0.61823 0.85577 0.0
C410 C 0.86625 0.63336 0.85638 0.0
C411 C 0.86968 0.64823 0.83425 0.0
H412 H 0.83 0.60675 0.87294 0.0
H413 H 0.86306 0.74972 0.65629 0.0
H414 H 0.68702 0.3132 0.19419 0.0
H415 H 0.75547 0.30941 0.22254 0.0
H416 H 0.76357 0.37722 0.23108 0.0
H417 H 0.69507 0.38097 0.20351 0.0
H418 H 0.84522 0.35483 0.21301 0.0
H419 H 0.72822 0.35369 0.28504 0.0
H420 H 0.66036 0.33928 0.30677 0.0
H421 H 0.72334 0.27892 0.31709 0.0
H422 H 0.79139 0.2929 0.29497 0.0
H423 H 1.00135 0.37988 0.31698 0.0
H424 H 0.93264 0.3766 0.28989 0.0
H425 H 0.92396 0.3108 0.31364 0.0
H426 H 0.99245 0.31442 0.34192 0.0
H427 H 0.84427 0.3268 0.31283 0.0
H428 H 0.96206 0.3267 0.24563 0.0
H429 H 0.03074 0.33877 0.22243 0.0
H430 H 0.96865 0.39751 0.20002 0.0
H431 H 0.89975 0.38593 0.22347 0.0
C432 C 0.70368 0.32723 0.20203 0.0
C433 C 0.68573 0.34737 0.19679 0.0
C434 C 0.74255 0.32507 0.2183 0.0
C435 C 0.76447 0.34305 0.22901 0.0
C436 C 0.74715 0.36315 0.22309 0.0
C437 C 0.70797 0.36527 0.20745 0.0
C438 C 0.80544 0.3412 0.2465 0.0
C439 C 0.84505 0.34881 0.23489 0.0
C440 C 0.80549 0.33261 0.27464 0.0
C441 C 0.76466 0.32426 0.288 0.0
C442 C 0.72744 0.33728 0.29165 0.0
C443 C 0.68898 0.32921 0.30411 0.0
C444 C 0.68749 0.30818 0.31322 0.0
C445 C 0.72451 0.2952 0.30997 0.0
C446 C 0.76302 0.30319 0.29748 0.0
C447 C 0.98461 0.36476 0.31657 0.0
C448 C 1.00246 0.34734 0.33124 0.0
C449 C 0.94543 0.36283 0.30093 0.0
C450 C 0.92362 0.34327 0.29884 0.0
C451 C 0.94029 0.32602 0.31462 0.0
C452 C 0.97932 0.32808 0.3308 0.0
C453 C 0.88419 0.34101 0.27966 0.0
C454 C 0.84483 0.33259 0.29085 0.0
C455 C 0.88452 0.34847 0.25082 0.0
C456 C 0.92581 0.35549 0.2365 0.0
C457 C 0.96312 0.34225 0.23591 0.0
C458 C 1.00209 0.34899 0.2227 0.0
C459 C 1.00408 0.36891 0.2098 0.0
C460 C 0.96706 0.3821 0.21003 0.0
C461 C 0.92802 0.37543 0.22325 0.0
H462 H 0.03429 0.37411 0.19959 0.0
H463 H 0.65769 0.30196 0.32287 0.0
H464 H 0.68265 0.81693 0.32584 0.0
H465 H 0.73532 0.80644 0.28849 0.0
H466 H 0.83388 0.79497 0.35391 0.0
H467 H 0.78173 0.8068 0.39094 0.0
H468 H 0.86839 0.81821 0.31725 0.0
H469 H 0.78758 0.75435 0.3064 0.0
H470 H 0.72232 0.73145 0.30058 0.0
H471 H 0.69281 0.76097 0.2196 0.0
H472 H 0.75754 0.78426 0.2251 0.0
H473 H 0.02242 0.80182 0.20349 0.0
H474 H 0.97402 0.78994 0.24296 0.0
H475 H 0.86111 0.81528 0.19815 0.0
H476 H 0.90903 0.82724 0.15921 0.0
H477 H 0.84126 0.7777 0.22726 0.0
H478 H 0.91408 0.84551 0.24496 0.0
H479 H 0.97993 0.86807 0.25076 0.0
H480 H 0.0251 0.82892 0.32026 0.0
H481 H 0.95976 0.80594 0.31455 0.0
C482 C 0.715 0.81132 0.33222 0.0
C483 C 0.72801 0.81224 0.3612 0.0
C484 C 0.74527 0.80531 0.31085 0.0
C485 C 0.78887 0.79968 0.31817 0.0
C486 C 0.80067 0.79925 0.34751 0.0
C487 C 0.77073 0.80574 0.36875 0.0
C488 C 0.82339 0.79711 0.2953 0.0
C489 C 0.86274 0.80879 0.29802 0.0
C490 C 0.81629 0.78518 0.26974 0.0
C491 C 0.77735 0.77115 0.26626 0.0
C492 C 0.76703 0.75606 0.28743 0.0
C493 C 0.73014 0.74299 0.28418 0.0
C494 C 0.7034 0.74477 0.25976 0.0
C495 C 0.71356 0.7596 0.23851 0.0
C496 C 0.7504 0.77272 0.24166 0.0
C497 C 0.98712 0.80423 0.20177 0.0
C498 C 0.96942 0.81555 0.17847 0.0
C499 C 0.95953 0.79755 0.22433 0.0
C500 C 0.91392 0.8019 0.22362 0.0
C501 C 0.89606 0.81171 0.1992 0.0
C502 C 0.92354 0.81863 0.17702 0.0
C503 C 0.88534 0.79889 0.2494 0.0
C504 C 0.84712 0.78644 0.24705 0.0
C505 C 0.89349 0.80992 0.27545 0.0
C506 C 0.9324 0.82388 0.27909 0.0
C507 C 0.93823 0.84164 0.26134 0.0
C508 C 0.97542 0.85451 0.26462 0.0
C509 C 1.00676 0.84989 0.2858 0.0
C510 C 1.00086 0.83244 0.30381 0.0
C511 C 0.96377 0.81949 0.30056 0.0
H512 H 0.03553 0.85987 0.28831 0.0
H513 H 0.67485 0.73464 0.25728 0.0
H514 H 0.67989 0.201 0.70467 0.0
H515 H 0.73058 0.21073 0.74356 0.0
H516 H 0.8351 0.21921 0.68136 0.0
H517 H 0.7848 0.20817 0.64283 0.0
H518 H 0.86426 0.19548 0.71952 0.0
H519 H 0.78907 0.26132 0.72638 0.0
H520 H 0.72561 0.28563 0.72973 0.0
H521 H 0.68791 0.25784 0.81038 0.0
H522 H 0.75079 0.23316 0.80735 0.0
H523 H 1.01424 0.21055 0.83436 0.0
H524 H 0.9678 0.22344 0.79458 0.0
H525 H 0.85172 0.20096 0.83869 0.0
H526 H 0.89778 0.18807 0.8781 0.0
H527 H 0.83546 0.23821 0.8074 0.0
H528 H 0.90342 0.1688 0.79415 0.0
H529 H 0.96819 0.14521 0.79147 0.0
H530 H 0.02051 0.18181 0.72155 0.0
H531 H 0.95635 0.20584 0.72418 0.0
C532 C 0.7132 0.20582 0.69929 0.0
C533 C 0.72834 0.20425 0.67079 0.0
C534 C 0.74235 0.21137 0.72155 0.0
C535 C 0.78699 0.2159 0.71562 0.0
C536 C 0.80105 0.21576 0.6867 0.0
C537 C 0.77219 0.20972 0.66459 0.0
C538 C 0.81999 0.21794 0.73953 0.0
C539 C 0.85829 0.20535 0.7383 0.0
C540 C 0.81237 0.23042 0.76454 0.0
C541 C 0.77455 0.24529 0.76653 0.0
C542 C 0.76709 0.26029 0.74475 0.0
C543 C 0.73124 0.27416 0.7466 0.0
C544 C 0.70271 0.27326 0.77023 0.0
C545 C 0.71004 0.25852 0.79209 0.0
C546 C 0.74583 0.24461 0.79034 0.0
C547 C 0.97871 0.20911 0.83598 0.0
C548 C 0.95956 0.19823 0.85917 0.0
C549 C 0.95221 0.21635 0.8132 0.0
C550 C 0.90627 0.21293 0.81349 0.0
C551 C 0.88697 0.2038 0.83794 0.0
C552 C 0.91337 0.19636 0.86042 0.0
C553 C 0.87894 0.21577 0.78709 0.0
C554 C 0.84167 0.22897 0.78807 0.0
C555 C 0.88753 0.20402 0.76169 0.0
C556 C 0.92541 0.18924 0.75958 0.0
C557 C 0.92887 0.17187 0.77831 0.0
C558 C 0.96546 0.15843 0.77681 0.0
C559 C 0.99852 0.16205 0.75641 0.0
C560 C 0.99493 0.17906 0.73738 0.0
C561 C 0.95848 0.1926 0.73887 0.0
H562 H 0.02685 0.15165 0.75531 0.0
H563 H 0.67496 0.284 0.77162 0.0
H564 H 0.15539 0.17092 0.78451 0.0
H565 H 0.22543 0.17343 0.75891 0.0
H566 H 0.29572 0.16712 0.83929 0.0
H567 H 0.22521 0.16474 0.86519 0.0
H568 H 0.335 0.19601 0.80557 0.0
H569 H 0.28427 0.12494 0.79281 0.0
H570 H 0.23119 0.09687 0.78002 0.0
H571 H 0.22625 0.11966 0.69297 0.0
H572 H 0.27886 0.14806 0.70535 0.0
H573 H 0.54139 0.16607 0.74415 0.0
H574 H 0.47193 0.16784 0.77064 0.0
H575 H 0.40106 0.17566 0.69074 0.0
H576 H 0.47066 0.17336 0.66394 0.0
H577 H 0.36235 0.14633 0.72446 0.0
H578 H 0.41579 0.21707 0.73774 0.0
H579 H 0.46971 0.24456 0.75132 0.0
H580 H 0.471 0.22158 0.83832 0.0
H581 H 0.41758 0.19374 0.82516 0.0
C582 C 0.18569 0.16997 0.7968 0.0
C583 C 0.1846 0.16731 0.82691 0.0
C584 C 0.22582 0.17144 0.78209 0.0
C585 C 0.26604 0.17001 0.79702 0.0
C586 C 0.26518 0.16816 0.82723 0.0
C587 C 0.22485 0.16683 0.84205 0.0
C588 C 0.3087 0.17001 0.78088 0.0
C589 C 0.34121 0.18496 0.78809 0.0
C590 C 0.31665 0.15588 0.75765 0.0
C591 C 0.28519 0.13875 0.75008 0.0
C592 C 0.27162 0.12406 0.77099 0.0
C593 C 0.24166 0.10808 0.76381 0.0
C594 C 0.22528 0.10651 0.73572 0.0
C595 C 0.23893 0.1209 0.71473 0.0
C596 C 0.26884 0.13694 0.72181 0.0
C597 C 0.51109 0.16811 0.73213 0.0
C598 C 0.51173 0.16946 0.70182 0.0
C599 C 0.47133 0.16935 0.74738 0.0
C600 C 0.43114 0.17207 0.73278 0.0
C601 C 0.43163 0.17362 0.70254 0.0
C602 C 0.4715 0.17246 0.68723 0.0
C603 C 0.3886 0.1724 0.74901 0.0
C604 C 0.35613 0.15744 0.74187 0.0
C605 C 0.38089 0.18642 0.7724 0.0
C606 C 0.41299 0.20318 0.78038 0.0
C607 C 0.42785 0.21776 0.75971 0.0
C608 C 0.45828 0.23343 0.76734 0.0
C609 C 0.47386 0.23478 0.79564 0.0
C610 C 0.45896 0.2205 0.8164 0.0
C611 C 0.42857 0.20478 0.80887 0.0
H612 H 0.49741 0.24693 0.80151 0.0
H613 H 0.20208 0.09413 0.7302 0.0
H614 H 0.19436 0.88806 0.20833 0.0
H615 H 0.262 0.88432 0.23657 0.0
H616 H 0.24484 0.81665 0.23773 0.0
H617 H 0.17672 0.82031 0.20937 0.0
H618 H 0.27039 0.83465 0.29249 0.0
H619 H 0.31701 0.83461 0.19378 0.0
H620 H 0.32036 0.84796 0.14394 0.0
H621 H 0.37571 0.90643 0.17439 0.0
H622 H 0.37206 0.89355 0.22448 0.0
H623 H 0.49107 0.81785 0.34559 0.0
H624 H 0.42082 0.81594 0.31928 0.0
H625 H 0.43514 0.88138 0.29476 0.0
H626 H 0.50564 0.883 0.32008 0.0
H627 H 0.4106 0.86069 0.25036 0.0
H628 H 0.35996 0.86225 0.34906 0.0
H629 H 0.35562 0.84971 0.39928 0.0
H630 H 0.30724 0.78957 0.36983 0.0
H631 H 0.31182 0.80168 0.31939 0.0
C632 C 0.20461 0.87239 0.21483 0.0
C633 C 0.18006 0.85448 0.20655 0.0
C634 C 0.24347 0.87026 0.23086 0.0
C635 C 0.25866 0.8502 0.23916 0.0
C636 C 0.23377 0.83228 0.23155 0.0
C637 C 0.19505 0.83439 0.21517 0.0
C638 C 0.30123 0.8481 0.255 0.0
C639 C 0.30123 0.84004 0.28318 0.0
C640 C 0.34133 0.85543 0.24304 0.0
C641 C 0.3439 0.86317 0.21291 0.0
C642 C 0.32957 0.85038 0.18987 0.0
C643 C 0.33158 0.85785 0.16157 0.0
C644 C 0.34815 0.87805 0.15601 0.0
C645 C 0.36285 0.8908 0.17873 0.0
C646 C 0.36085 0.88341 0.20708 0.0
C647 C 0.4789 0.83183 0.33476 0.0
C648 C 0.50399 0.85054 0.33477 0.0
C649 C 0.43866 0.83077 0.31976 0.0
C650 C 0.42219 0.84857 0.30507 0.0
C651 C 0.44701 0.86735 0.30564 0.0
C652 C 0.4874 0.86828 0.32016 0.0
C653 C 0.37993 0.84776 0.28836 0.0
C654 C 0.37995 0.85521 0.25982 0.0
C655 C 0.33987 0.84001 0.30013 0.0
C656 C 0.33668 0.83279 0.33045 0.0
C657 C 0.34867 0.84631 0.35329 0.0
C658 C 0.34613 0.83929 0.38179 0.0
C659 C 0.3313 0.81884 0.38774 0.0
C660 C 0.3188 0.80539 0.36519 0.0
C661 C 0.32132 0.81233 0.33665 0.0
H662 H 0.32939 0.81342 0.40982 0.0
H663 H 0.34967 0.88381 0.13408 0.0
H664 H 0.06808 0.57217 0.60971 0.0
H665 H 0.05756 0.53731 0.58769 0.0
H666 H 0.06068 0.5656 0.50318 0.0
H667 H 0.07004 0.60059 0.52523 0.0
H668 H 1.00251 0.53453 0.5036 0.0
H669 H 0.15319 0.5422 0.53372 0.0
H670 H 0.21365 0.54947 0.56796 0.0
H671 H 0.17123 0.49774 0.62091 0.0
H672 H 0.1101 0.49035 0.58717 0.0
H673 H 0.07647 0.44507 0.42233 0.0
H674 H 0.06605 0.47921 0.44634 0.0
H675 H 0.052 0.44757 0.52805 0.0
H676 H 0.06313 0.41335 0.5042 0.0
H677 H 0.11194 0.4796 0.53042 0.0
H678 H 0.96365 0.47065 0.49639 0.0
H679 H 0.90581 0.4637 0.46018 0.0
H680 H 0.94718 0.51807 0.41202 0.0
H681 H 1.0057 0.52519 0.44774 0.0
C682 C 0.06605 0.57095 0.58644 0.0
C683 C 0.07027 0.58906 0.56917 0.0
C684 C 0.06016 0.55103 0.57386 0.0
C685 C 0.05934 0.54872 0.54371 0.0
C686 C 0.06136 0.56693 0.52647 0.0
C687 C 0.06666 0.58692 0.53908 0.0
C688 C 0.0588 0.5273 0.5302 0.0
C689 C 0.02667 0.52258 0.50929 0.0
C690 C 0.08991 0.51154 0.53786 0.0
C691 C 0.1268 0.51587 0.55808 0.0
C692 C 0.15657 0.53247 0.55277 0.0
C693 C 0.19098 0.5366 0.57207 0.0
C694 C 0.1962 0.52411 0.59663 0.0
C695 C 0.1671 0.50743 0.6019 0.0
C696 C 0.13258 0.50325 0.58269 0.0
C697 C 0.07081 0.44536 0.44538 0.0
C698 C 0.07079 0.42649 0.46138 0.0
C699 C 0.06451 0.46489 0.45905 0.0
C700 C 0.05803 0.46596 0.48899 0.0
C701 C 0.05684 0.44711 0.50491 0.0
C702 C 0.06287 0.42756 0.49122 0.0
C703 C 0.05563 0.48681 0.50389 0.0
C704 C 0.08745 0.49146 0.52496 0.0
C705 C 0.02462 0.50254 0.49608 0.0
C706 C 0.98931 0.49835 0.47463 0.0
C707 C 0.96064 0.48103 0.47796 0.0
C708 C 0.92769 0.47708 0.45754 0.0
C709 C 0.92288 0.49041 0.43378 0.0
C710 C 0.95096 0.50775 0.43043 0.0
C711 C 0.984 0.51177 0.45077 0.0
H712 H 0.89735 0.48731 0.418 0.0
H713 H 0.22286 0.52734 0.61155 0.0
H714 H 0.67523 0.58195 0.93907 0.0
H715 H 0.6868 0.54707 0.96148 0.0
H716 H 0.57505 0.55803 0.01715 0.0
H717 H 0.56286 0.59248 0.99435 0.0
H718 H 0.65357 0.54034 0.04513 0.0
H719 H 0.55712 0.53003 0.96212 0.0
H720 H 0.53904 0.53241 0.91039 0.0
H721 H 0.65308 0.49501 0.88956 0.0
H722 H 0.67219 0.49269 0.9412 0.0
H723 H 0.57652 0.44394 0.09841 0.0
H724 H 0.58887 0.47831 0.0768 0.0
H725 H 0.67149 0.44965 1.01174 0.0
H726 H 0.65641 0.41474 0.03206 0.0
H727 H 0.62105 0.47625 0.98686 0.0
H728 H 0.71345 0.48191 0.06901 0.0
H729 H 0.73486 0.47958 0.12018 0.0
H730 H 0.63608 0.52553 0.14242 0.0
H731 H 0.61363 0.52793 0.09143 0.0
C732 C 0.6536 0.57692 0.95632 0.0
C733 C 0.61821 0.58976 0.96509 0.0
C734 C 0.66012 0.55706 0.96903 0.0
C735 C 0.63173 0.55 0.99096 0.0
C736 C 0.5974 0.56322 1.00037 0.0
C737 C 0.5904 0.58282 0.98733 0.0
C738 C 0.63595 0.52844 1.00321 0.0
C739 C 0.64639 0.52628 0.0325 0.0
C740 C 0.62802 0.51011 0.98644 0.0
C741 C 0.61639 0.51142 0.95546 0.0
C742 C 0.57857 0.52249 0.94648 0.0
C743 C 0.56809 0.52379 0.91719 0.0
C744 C 0.59498 0.51393 0.89669 0.0
C745 C 0.63234 0.50268 0.90546 0.0
C746 C 0.643 0.50137 0.93473 0.0
C747 C 0.59704 0.44479 0.07935 0.0
C748 C 0.61498 0.42636 0.06687 0.0
C749 C 0.60479 0.46464 0.06727 0.0
C750 C 0.63177 0.46679 0.04283 0.0
C751 C 0.65067 0.44851 0.03066 0.0
C752 C 0.64237 0.42852 0.04251 0.0
C753 C 0.63788 0.48796 0.02921 0.0
C754 C 0.62922 0.49013 0.99958 0.0
C755 C 0.64817 0.50628 0.04565 0.0
C756 C 0.66168 0.505 0.07637 0.0
C757 C 0.6961 0.49142 0.08482 0.0
C758 C 0.70845 0.4901 0.11381 0.0
C759 C 0.6868 0.50237 0.13455 0.0
C760 C 0.65282 0.51603 0.12633 0.0
C761 C 0.64032 0.5174 0.09738 0.0
H762 H 0.6964 0.50132 0.15697 0.0
H763 H 0.58681 0.51495 0.87402 0.0
H764 H 0.63287 0.09229 0.53465 0.0
H765 H 0.61834 0.05761 0.51295 0.0
H766 H 0.51053 0.04803 0.57215 0.0
H767 H 0.52447 0.0831 0.59364 0.0
H768 H 0.57728 0.01359 0.56753 0.0
H769 H 0.481 0.05574 0.50889 0.0
H770 H 0.46197 0.08612 0.4781 0.0
H771 H 0.56081 0.06727 0.41685 0.0
H772 H 0.58091 0.03694 0.44749 0.0
H773 H 0.53711 0.91483 0.49903 0.0
H774 H 0.52338 0.94955 0.52059 0.0
H775 H 0.6002 0.97888 0.45338 0.0
H776 H 0.61111 0.94463 0.4306 0.0
H777 H 0.53642 1.0034 0.46483 0.0
H778 H 0.64197 0.96627 0.5238 0.0
H779 H 0.66921 0.93707 0.55413 0.0
H780 H 0.56305 0.94743 0.61388 0.0
H781 H 0.53488 0.97654 0.58368 0.0
C782 C 0.60586 0.08284 0.54287 0.0
C783 C 0.57977 0.09031 0.56579 0.0
C784 C 0.59752 0.0631 0.53043 0.0
C785 C 0.56332 0.05031 0.54091 0.0
C786 C 0.53701 0.05772 0.56375 0.0
C787 C 0.54483 0.07772 0.57588 0.0
C788 C 0.55657 0.02891 0.52847 0.0
C789 C 0.56736 0.01125 0.54526 0.0
C790 C 0.54492 0.02601 0.49921 0.0
C791 C 0.53266 0.04414 0.4806 0.0
C792 C 0.49892 0.05816 0.48896 0.0
C793 C 0.48789 0.07536 0.47152 0.0
C794 C 0.51021 0.07864 0.44556 0.0
C795 C 0.54355 0.06471 0.43697 0.0
C796 C 0.55473 0.04749 0.45435 0.0
C797 C 0.55029 0.9287 0.48847 0.0
C798 C 0.57594 0.92676 0.46327 0.0
C799 C 0.54289 0.94857 0.50107 0.0
C800 C 0.56167 0.96689 0.48909 0.0
C801 C 0.58559 0.96506 0.46328 0.0
C802 C 0.59236 0.94532 0.45044 0.0
C803 C 0.55812 0.9879 0.50368 0.0
C804 C 0.54553 1.00556 0.48727 0.0
C805 C 0.56915 0.99086 0.53315 0.0
C806 C 0.58601 0.97338 0.55131 0.0
C807 C 0.62426 0.96221 0.5433 0.0
C808 C 0.63989 0.9457 0.56048 0.0
C809 C 0.61779 0.94035 0.58587 0.0
C810 C 0.58007 0.95155 0.59417 0.0
C811 C 0.56427 0.96806 0.57704 0.0
H812 H 0.62995 0.92757 0.59914 0.0
H813 H 0.50164 0.09197 0.43208 0.0
H814 H 0.16051 0.92994 0.08942 0.0
H815 H 0.17257 0.9649 0.06786 0.0
H816 H 0.08875 0.94771 0.99638 0.0
H817 H 0.07628 0.91289 0.01795 0.0
H818 H 0.1673 0.9702 0.98026 0.0
H819 H 0.04523 0.97491 0.04778 0.0
H820 H 1.01066 0.97108 0.09561 0.0
H821 H 0.10629 0.01354 0.13214 0.0
H822 H 0.14185 0.01736 0.08456 0.0
H823 H 0.09179 0.06516 0.91927 0.0
H824 H 0.10301 0.03065 0.94106 0.0
H825 H 0.16072 0.06032 0.01602 0.0
H826 H 0.14705 0.09515 0.995 0.0
H827 H 0.10559 0.03192 0.03294 0.0
H828 H 0.22335 0.03091 0.96549 0.0
H829 H 0.26019 0.03482 0.91842 0.0
H830 H 0.17821 0.98594 0.88268 0.0
H831 H 0.14041 0.98192 0.92943 0.0
C832 C 0.14534 0.93351 0.06886 0.0
C833 C 0.11736 0.91875 0.05538 0.0
C834 C 0.15207 0.9535 0.05665 0.0
C835 C 0.13134 0.95893 0.0306 0.0
C836 C 0.10508 0.94384 0.01647 0.0
C837 C 0.09783 0.92401 0.02886 0.0
C838 C 0.13458 0.98072 0.01887 0.0
C839 C 0.15367 0.98372 0.99164 0.0
C840 C 0.11801 0.99842 0.03417 0.0
C841 C 0.09652 0.99621 0.06271 0.0
C842 C 0.05913 0.98327 0.06607 0.0
C843 C 0.03931 0.98113 0.09311 0.0
C844 C 0.05635 0.99201 0.11692 0.0
C845 C 0.09318 1.00509 0.11369 0.0
C846 C 0.11318 0.00725 0.0867 0.0
C847 C 0.10675 0.06444 0.94045 0.0
C848 C 0.11808 0.08308 0.95544 0.0
C849 C 0.1138 0.04458 0.95275 0.0
C850 C 0.13326 0.04273 0.98012 0.0
C851 C 0.14575 0.06126 0.99485 0.0
C852 C 0.1383 0.0812 0.98265 0.0
C853 C 0.13785 0.02155 0.99392 0.0
C854 C 0.12004 0.01857 0.02159 0.0
C855 C 0.15611 1.00393 0.97912 0.0
C856 C 0.17883 1.00622 0.95095 0.0
C857 C 0.21295 0.02109 0.94755 0.0
C858 C 0.23404 0.02331 0.92092 0.0
C859 C 0.22149 0.01066 0.89756 0.0
C860 C 0.18788 0.99573 0.90079 0.0
C861 C 0.16666 0.99345 0.92736 0.0
H862 H 0.23785 0.01241 0.87697 0.0
H863 H 0.04095 0.99034 0.13784 0.0
H864 H 0.26137 0.2898 0.44853 0.0
H865 H 0.31609 0.26675 0.47124 0.0
H866 H 0.32401 0.30932 0.54385 0.0
H867 H 0.26873 0.3321 0.52182 0.0
H868 H 0.40589 0.29845 0.52376 0.0
H869 H 0.27296 0.26326 0.55142 0.0
H870 H 0.20034 0.24656 0.54371 0.0
H871 H 0.26007 0.19936 0.48955 0.0
H872 H 0.333 0.21597 0.49657 0.0
H873 H 0.54145 0.2285 0.60836 0.0
H874 H 0.47863 0.25089 0.59404 0.0
H875 H 0.4618 0.21343 0.51695 0.0
H876 H 0.52407 0.19138 0.53077 0.0
H877 H 0.38215 0.22222 0.54342 0.0
H878 H 0.51286 0.25892 0.51217 0.0
H879 H 0.58565 0.27576 0.51844 0.0
H880 H 0.5298 0.32013 0.57852 0.0
H881 H 0.45673 0.30333 0.5729 0.0
C882 C 0.27412 0.29412 0.46952 0.0
C883 C 0.2606 0.31298 0.48315 0.0
C884 C 0.3056 0.28094 0.48246 0.0
C885 C 0.32422 0.2863 0.50928 0.0
C886 C 0.31039 0.30492 0.52308 0.0
C887 C 0.27879 0.318 0.5103 0.0
C888 C 0.35898 0.27285 0.52264 0.0
C889 C 0.40042 0.28187 0.52852 0.0
C890 C 0.35217 0.25112 0.52843 0.0
C891 C 0.30841 0.24099 0.52431 0.0
C892 C 0.27057 0.24942 0.53767 0.0
C893 C 0.22936 0.23995 0.53346 0.0
C894 C 0.22558 0.22195 0.51609 0.0
C895 C 0.26304 0.21333 0.50297 0.0
C896 C 0.30434 0.22275 0.50708 0.0
C897 C 0.52419 0.22504 0.58845 0.0
C898 C 0.53809 0.20829 0.57061 0.0
C899 C 0.48837 0.23783 0.58026 0.0
C900 C 0.46558 0.23386 0.55433 0.0
C901 C 0.47873 0.21678 0.53704 0.0
C902 C 0.51466 0.20427 0.54494 0.0
C903 C 0.42907 0.2478 0.54435 0.0
C904 C 0.38737 0.23887 0.539 0.0
C905 C 0.43563 0.26959 0.53896 0.0
C906 C 0.47948 0.2797 0.54241 0.0
C907 C 0.51619 0.27213 0.52694 0.0
C908 C 0.55748 0.2817 0.53032 0.0
C909 C 0.56238 0.29895 0.54895 0.0
C910 C 0.52597 0.30672 0.56416 0.0
C911 C 0.48461 0.29719 0.56088 0.0
H912 H 0.59436 0.30635 0.55153 0.0
H913 H 0.19364 0.21465 0.51285 0.0
H914 H 0.46648 0.73341 0.97528 0.0
H915 H 0.40925 0.75638 0.99648 0.0
H916 H 0.32786 0.70168 1.01231 0.0
H917 H 0.3843 0.67894 0.99116 0.0
H918 H 0.28033 0.7348 0.98985 0.0
H919 H 0.38849 0.72294 0.06575 0.0
H920 H 0.46348 0.7245 0.08637 0.0
H921 H 0.46483 0.79199 0.07624 0.0
H922 H 0.38999 0.79078 0.05522 0.0
H923 H 0.1256 0.76079 0.09554 0.0
H924 H 0.18858 0.74541 0.07028 0.0
H925 H 0.25191 0.80646 0.06807 0.0
H926 H 0.18908 0.82201 0.09375 0.0
H927 H 0.31127 0.77532 0.07944 0.0
H928 H 0.2009 0.78834 1.00905 0.0
H929 H 0.12628 0.78766 0.98788 0.0
H930 H 0.12961 0.71979 0.98541 0.0
H931 H 0.20399 0.72003 1.00707 0.0
C932 C 0.43617 0.7264 0.98308 0.0
C933 C 0.43007 0.70436 0.98186 0.0
C934 C 0.40365 0.73948 0.9953 0.0
C935 C 0.36439 0.73071 1.0062 0.0
C936 C 0.35785 0.7088 1.00413 0.0
C937 C 0.39033 0.69579 0.99225 0.0
C938 C 0.33019 0.74396 0.02052 0.0
C939 C 0.28704 0.74359 1.0095 0.0
C940 C 0.33922 0.756 0.04564 0.0
C941 C 0.3839 0.75675 0.05861 0.0
C942 C 0.40492 0.7381 0.06774 0.0
C943 C 0.44736 0.73892 0.07952 0.0
C944 C 0.46897 0.75833 0.08252 0.0
C945 C 0.44809 0.77696 0.07385 0.0
C946 C 0.40565 0.77622 0.06202 0.0
C947 C 0.15303 0.77097 0.08996 0.0
C948 C 0.15202 0.79269 0.0965 0.0
C949 C 0.18898 0.76215 0.07536 0.0
C950 C 0.22465 0.77485 0.06677 0.0
C951 C 0.22467 0.79637 0.07431 0.0
C952 C 0.18865 0.80523 0.08897 0.0
C953 C 0.26108 0.76561 0.04924 0.0
C954 C 0.3046 0.76679 0.05958 0.0
C955 C 0.25251 0.75446 0.02329 0.0
C956 C 0.20794 0.75421 1.00991 0.0
C957 C 0.18562 0.77326 1.00419 0.0
C958 C 0.14336 0.77295 0.99208 0.0
C959 C 0.12317 0.75369 0.98535 0.0
C960 C 0.14528 0.7347 0.99066 0.0
C961 C 0.18751 0.73491 1.00283 0.0
H962 H 0.09044 0.75349 0.97599 0.0
H963 H 0.50186 0.75893 0.09161 0.0
H964 H 0.27357 0.71971 0.583 0.0
H965 H 0.32921 0.74246 0.56091 0.0
H966 H 0.30807 0.71155 0.47897 0.0
H967 H 0.25285 0.68854 0.50117 0.0
H968 H 0.39259 0.71569 0.48756 0.0
H969 H 0.27015 0.76284 0.49302 0.0
H970 H 0.20797 0.78169 0.51584 0.0
H971 H 0.29729 0.81176 0.57503 0.0
H972 H 0.35996 0.79287 0.55282 0.0
H973 H 0.52945 0.79415 0.41725 0.0
H974 H 0.46541 0.77219 0.43006 0.0
H975 H 0.47952 0.79087 0.51909 0.0
H976 H 0.54288 0.81256 0.50671 0.0
H977 H 0.39366 0.79359 0.50064 0.0
H978 H 0.51456 0.74327 0.49715 0.0
H979 H 0.57609 0.72444 0.47353 0.0
H980 H 0.48755 0.70081 0.40869 0.0
H981 H 0.42556 0.71975 0.43174 0.0
C982 C 0.28031 0.71797 0.5602 0.0
C983 C 0.25868 0.70236 0.54383 0.0
C984 C 0.31216 0.731 0.54754 0.0
C985 C 0.32257 0.72896 0.5181 0.0
C986 C 0.30075 0.71345 0.50169 0.0
C987 C 0.26919 0.70029 0.51441 0.0
C988 C 0.35722 0.74252 0.50477 0.0
C989 C 0.3923 0.73277 0.48997 0.0
C990 C 0.3573 0.76481 0.50804 0.0
C991 C 0.31972 0.7763 0.52138 0.0
C992 C 0.2765 0.77336 0.51103 0.0
C993 C 0.24117 0.78407 0.52384 0.0
C994 C 0.24867 0.79788 0.54691 0.0
C995 C 0.29153 0.80105 0.55717 0.0
C996 C 0.32698 0.79036 0.54445 0.0
C997 C 0.51895 0.79349 0.43955 0.0
C998 C 0.54145 0.8051 0.46093 0.0
C999 C 0.48238 0.78095 0.44684 0.0
C1000 C 0.46769 0.77989 0.47557 0.0
C1001 C 0.49007 0.79151 0.49679 0.0
C1002 C 0.52655 0.80386 0.48962 0.0
C1003 C 0.42924 0.76669 0.48406 0.0
C1004 C 0.39347 0.77653 0.49791 0.0
C1005 C 0.42837 0.74454 0.47973 0.0
C1006 C 0.46556 0.73312 0.46595 0.0
C1007 C 0.5083 0.73421 0.47771 0.0
C1008 C 0.54323 0.72349 0.46446 0.0
C1009 C 0.53577 0.71149 0.43957 0.0
C1010 C 0.4933 0.71014 0.42793 0.0
C1011 C 0.45826 0.72086 0.44108 0.0
H1012 H 0.56286 0.7032 0.42935 0.0
H1013 H 0.22127 0.80615 0.5568 0.0
H1014 H 0.13468 0.20061 1.0058 0.0
H1015 H 0.1974 0.22174 0.02109 0.0
H1016 H 0.22931 0.23489 0.93234 0.0
H1017 H 0.1664 0.21312 0.9166 0.0
H1018 H 0.30285 0.22531 0.96298 0.0
H1019 H 0.18153 0.27269 0.97519 0.0
H1020 H 0.10763 0.28381 0.99155 0.0
H1021 H 0.14626 0.27442 0.07965 0.0
H1022 H 0.22023 0.26294 0.06381 0.0
H1023 H 0.4503 0.30975 0.99876 0.0
H1024 H 0.39068 0.28756 0.98007 0.0
H1025 H 0.35589 0.26983 0.06685 0.0
H1026 H 0.41544 0.29232 0.0857 0.0
H1027 H 0.28393 0.28257 0.03538 0.0
H1028 H 0.40543 0.23487 0.02261 0.0
H1029 H 0.47925 0.22397 1.00584 0.0
H1030 H 0.44025 0.23457 0.91806 0.0
H1031 H 0.36637 0.24588 0.93434 0.0
C1032 C 0.15476 0.20802 0.98937 0.0
C1033 C 0.14523 0.2052 0.95989 0.0
C1034 C 0.19067 0.22022 0.99824 0.0
C1035 C 0.21785 0.2302 0.97795 0.0
C1036 C 0.2087 0.22741 0.94842 0.0
C1037 C 0.1726 0.21507 0.93946 0.0
C1038 C 0.25594 0.24326 0.98794 0.0
C1039 C 0.29863 0.23808 0.97841 0.0
C1040 C 0.25067 0.25963 1.00862 0.0
C1041 C 0.20635 0.26679 0.01828 0.0
C1042 C 0.17419 0.27286 0.99805 0.0
C1043 C 0.13229 0.27925 1.00723 0.0
C1044 C 0.12221 0.27977 0.03662 0.0
C1045 C 0.15409 0.27399 0.05689 0.0
C1046 C 0.19604 0.26757 0.04782 0.0
C1047 C 0.43013 0.30102 1.01386 0.0
C1048 C 0.43752 0.30284 0.04372 0.0
C1049 C 0.39621 0.28823 1.00313 0.0
C1050 C 0.36882 0.27695 0.02202 0.0
C1051 C 0.37663 0.27838 0.05185 0.0
C1052 C 0.41088 0.29107 0.0626 0.0
C1053 C 0.33084 0.26449 1.01063 0.0
C1054 C 0.28814 0.26984 0.01987 0.0
C1055 C 0.33614 0.24838 0.9896 0.0
C1056 C 0.38048 0.24144 0.97973 0.0
C1057 C 0.41269 0.23506 0.99974 0.0
C1058 C 0.45454 0.22877 0.99032 0.0
C1059 C 0.46448 0.22864 0.96091 0.0
C1060 C 0.43253 0.23472 0.94085 0.0
C1061 C 0.39065 0.24106 0.95016 0.0
H1062 H 0.4969 0.22377 0.95367 0.0
H1063 H 0.08973 0.28469 0.04368 0.0
H1064 H 0.02477 0.71465 0.61329 0.0
H1065 H 0.95983 0.73524 0.59862 0.0
H1066 H 1.00633 0.73498 0.5107 0.0
H1067 H 0.07111 0.71502 0.52515 0.0
H1068 H 0.97475 0.77212 0.52263 0.0
H1069 H 0.92572 0.70085 0.53442 0.0
H1070 H 0.915 0.66732 0.56045 0.0
H1071 H 0.83452 0.6991 0.62316 0.0
H1072 H 0.84566 0.73305 0.59794 0.0
H1073 H 0.77927 0.795 0.4451 0.0
H1074 H 0.83964 0.77363 0.46505 0.0
H1075 H 0.79599 0.7886 0.55121 0.0
H1076 H 0.73591 0.81007 0.53134 0.0
H1077 H 0.82432 0.7449 0.54285 0.0
H1078 H 0.87426 0.81669 0.52712 0.0
H1079 H 0.88551 0.8487 0.4978 0.0
H1080 H 0.96442 0.81313 0.43792 0.0
H1081 H 0.95307 0.78082 0.46669 0.0
C1082 C 0.02133 0.71919 0.59092 0.0
C1083 C 0.05305 0.71301 0.57039 0.0
C1084 C 0.98406 0.73085 0.5825 0.0
C1085 C 0.97778 0.73644 0.55342 0.0
C1086 C 1.01024 0.73089 0.53323 0.0
C1087 C 0.04732 0.71935 0.54157 0.0
C1088 C 0.93718 0.74761 0.54352 0.0
C1089 C 0.94194 0.76602 0.52693 0.0
C1090 C 0.89417 0.73986 0.54927 0.0
C1091 C 0.88697 0.71954 0.56447 0.0
C1092 C 0.90607 0.70075 0.55393 0.0
C1093 C 0.89994 0.68169 0.56855 0.0
C1094 C 0.87431 0.68114 0.59356 0.0
C1095 C 0.85461 0.69965 0.60392 0.0
C1096 C 0.86082 0.7188 0.58947 0.0
C1097 C 0.78205 0.79335 0.46825 0.0
C1098 C 0.75312 0.80431 0.48667 0.0
C1099 C 0.81661 0.78124 0.47964 0.0
C1100 C 0.82248 0.77966 0.50964 0.0
C1101 C 0.7921 0.7896 0.52803 0.0
C1102 C 0.75799 0.80195 0.51666 0.0
C1103 C 0.86222 0.76914 0.52177 0.0
C1104 C 0.85721 0.75096 0.53878 0.0
C1105 C 0.90514 0.77685 0.51602 0.0
C1106 C 0.91246 0.79631 0.49891 0.0
C1107 C 0.89373 0.81566 0.50759 0.0
C1108 C 0.90017 0.83386 0.49109 0.0
C1109 C 0.92558 0.83294 0.46598 0.0
C1110 C 0.94471 0.81382 0.45736 0.0
C1111 C 0.93831 0.79556 0.47377 0.0
H1112 H 0.93052 0.84705 0.45323 0.0
H1113 H 0.86955 0.66636 0.60485 0.0
H1114 H 0.64888 0.31332 0.0211 0.0
H1115 H 0.71015 0.29092 1.00683 0.0
H1116 H 0.7254 0.26995 0.09464 0.0
H1117 H 0.66387 0.29299 0.10947 0.0
H1118 H 0.8051 0.27785 0.06978 0.0
H1119 H 0.6773 0.23787 0.04432 0.0
H1120 H 0.60415 0.23156 0.02261 0.0
H1121 H 0.65644 0.24528 0.93871 0.0
H1122 H 0.72979 0.25199 0.95995 0.0
H1123 H 0.94215 0.19056 0.02672 0.0
H1124 H 0.88398 0.21314 0.04667 0.0
H1125 H 0.8626 0.24034 0.96268 0.0
H1126 H 0.92054 0.21758 0.94256 0.0
H1127 H 0.78531 0.22759 0.98837 0.0
H1128 H 0.91268 0.26859 1.01452 0.0
H1129 H 0.98569 0.27475 0.0365 0.0
H1130 H 0.93394 0.25833 0.11963 0.0
H1131 H 0.86073 0.25176 0.09807 0.0
C1132 C 0.66498 0.30396 0.03754 0.0
C1133 C 0.65106 0.30488 0.06648 0.0
C1134 C 0.70009 0.29105 0.02924 0.0
C1135 C 0.72201 0.27841 0.0495 0.0
C1136 C 0.70883 0.27947 0.07857 0.0
C1137 C 0.67356 0.29257 0.087 0.0
C1138 C 0.75858 0.26426 0.03989 0.0
C1139 C 0.80058 0.26657 0.05235 0.0
C1140 C 0.75301 0.24982 0.01671 0.0
C1141 C 0.70901 0.24558 1.00378 0.0
C1142 C 0.67315 0.23968 0.02126 0.0
C1143 C 0.63165 0.23601 1.00903 0.0
C1144 C 0.62563 0.23806 0.97931 0.0
C1145 C 0.66115 0.24371 0.96173 0.0
C1146 C 0.70271 0.24742 0.97385 0.0
C1147 C 0.92521 0.20143 1.01254 0.0
C1148 C 0.93596 0.20226 0.98305 0.0
C1149 C 0.89214 0.21442 0.02401 0.0
C1150 C 0.86897 0.22851 1.00622 0.0
C1151 C 0.88007 0.22961 0.97684 0.0
C1152 C 0.91345 0.21674 0.9654 0.0
C1153 C 0.83191 0.24139 0.01798 0.0
C1154 C 0.78976 0.23878 1.00593 0.0
C1155 C 0.83736 0.25544 0.04159 0.0
C1156 C 0.88132 0.25946 0.05462 0.0
C1157 C 0.91695 0.26611 0.03745 0.0
C1158 C 0.95836 0.26971 0.04983 0.0
C1159 C 0.96448 0.26688 0.07943 0.0
C1160 C 0.92917 0.26049 0.0967 0.0
C1161 C 0.8877 0.25684 0.08441 0.0
H1162 H 0.99657 0.26967 0.08897 0.0
H1163 H 0.59347 0.23522 0.96989 0.0
H1164 H 0.07033 0.30534 0.5056 0.0
H1165 H 1.0075 0.28446 0.52111 0.0
H1166 H 0.96579 0.27717 0.43271 0.0
H1167 H 0.02875 0.29871 0.41686 0.0
H1168 H 0.89685 0.28684 0.46675 0.0
H1169 H 1.0129 0.23589 0.47008 0.0
H1170 H 0.08652 0.22208 0.48271 0.0
H1171 H 0.05577 0.22792 0.57274 0.0
H1172 H 0.98219 0.24207 0.56068 0.0
H1173 H 0.74124 0.20547 0.50015 0.0
H1174 H 0.80274 0.22628 0.48125 0.0
H1175 H 0.84601 0.23962 0.56801 0.0
H1176 H 0.78449 0.21859 0.58705 0.0
H1177 H 0.91401 0.22584 0.53283 0.0
H1178 H 0.79853 0.27765 0.529 0.0
H1179 H 0.72525 0.29168 0.51605 0.0
H1180 H 0.75517 0.28373 0.42618 0.0
H1181 H 0.82842 0.26934 0.43861 0.0
C1182 C 0.04811 0.29923 0.48929 0.0
C1183 C 0.05477 0.30374 0.4599 0.0
C1184 C 1.01215 0.28715 0.49826 0.0
C1185 C 0.98206 0.27896 0.47812 0.0
C1186 C 0.98863 0.28326 0.44868 0.0
C1187 C 0.02476 0.29548 0.43962 0.0
C1188 C 0.94329 0.26646 0.48822 0.0
C1189 C 0.90065 0.27326 0.48076 0.0
C1190 C 0.94808 0.24901 0.50709 0.0
C1191 C 0.99211 0.2402 0.51446 0.0
C1192 C 0.02192 0.23435 0.49258 0.0
C1193 C 0.06365 0.22646 0.49964 0.0
C1194 C 0.07586 0.22418 0.52851 0.0
C1195 C 0.04629 0.22972 0.55039 0.0
C1196 C 1.00454 0.23765 0.54345 0.0
C1197 C 0.76372 0.21292 0.51521 0.0
C1198 C 0.75804 0.21034 0.54511 0.0
C1199 C 0.79874 0.22492 0.50438 0.0
C1200 C 0.829 0.23457 0.52319 0.0
C1201 C 0.82306 0.23232 0.55308 0.0
C1202 C 0.7877 0.22046 0.56396 0.0
C1203 C 0.86766 0.24633 0.51154 0.0
C1204 C 0.91026 0.23936 0.5187 0.0
C1205 C 0.86282 0.26353 0.49229 0.0
C1206 C 0.8188 0.2722 0.48476 0.0
C1207 C 0.78934 0.27871 0.50648 0.0
C1208 C 0.74783 0.28676 0.49924 0.0
C1209 C 0.73551 0.28854 0.47032 0.0
C1210 C 0.76473 0.28231 0.44858 0.0
C1211 C 0.80626 0.27422 0.45571 0.0
H1212 H 0.70336 0.29479 0.46475 0.0
H1213 H 0.1082 0.21809 0.53393 0.0
H1214 H 0.63605 0.70382 1.0086 0.0
H1215 H 0.69661 0.72622 0.0242 0.0
H1216 H 0.72215 0.74372 0.93597 0.0
H1217 H 0.66158 0.72063 0.9199 0.0
H1218 H 0.79768 0.73524 0.96358 0.0
H1219 H 0.67193 0.77841 0.98422 0.0
H1220 H 0.59826 0.78635 1.0041 0.0
H1221 H 0.64551 0.77367 0.08959 0.0
H1222 H 0.71933 0.76536 0.07019 0.0
H1223 H 0.94942 0.81506 1.00505 0.0
H1224 H 0.88449 0.79725 0.98551 0.0
H1225 H 0.85076 0.77521 0.07059 0.0
H1226 H 0.91591 0.79308 0.09034 0.0
H1227 H 0.77815 0.78806 0.04196 0.0
H1228 H 0.90178 0.74278 0.02132 0.0
H1229 H 0.97543 0.7342 1.00189 0.0
H1230 H 0.93185 0.75047 0.91671 0.0
H1231 H 0.8581 0.75947 0.93571 0.0
C1232 C 0.65423 0.71247 0.99236 0.0
C1233 C 0.64366 0.71044 0.96292 0.0
C1234 C 0.68887 0.72543 1.00142 0.0
C1235 C 0.71361 0.73703 0.98139 0.0
C1236 C 0.70339 0.73503 0.95189 0.0
C1237 C 0.66865 0.72189 0.94272 0.0
C1238 C 0.75079 0.75065 0.99151 0.0
C1239 C 0.7932 0.74709 0.9803 0.0
C1240 C 0.74533 0.76578 1.01389 0.0
C1241 C 0.70112 0.77112 0.0257 0.0
C1242 C 0.66656 0.7772 1.00724 0.0
C1243 C 0.62477 0.78178 0.01843 0.0
C1244 C 0.61718 0.78047 0.04808 0.0
C1245 C 0.65143 0.77466 0.06662 0.0
C1246 C 0.69327 0.77005 0.05554 0.0
C1247 C 0.92836 0.80637 0.01965 0.0
C1248 C 0.93831 0.80533 0.04927 0.0
C1249 C 0.89112 0.7962 1.00841 0.0
C1250 C 0.86304 0.78454 0.02645 0.0
C1251 C 0.87196 0.78405 0.05619 0.0
C1252 C 0.90921 0.79433 0.0675 0.0
C1253 C 0.82501 0.77252 1.01418 0.0
C1254 C 0.78249 0.77636 0.02503 0.0
C1255 C 0.83037 0.75763 0.9915 0.0
C1256 C 0.87456 0.75201 0.97999 0.0
C1257 C 0.908 0.74467 0.99848 0.0
C1258 C 0.94975 0.73972 0.98754 0.0
C1259 C 0.95836 0.74185 0.9581 0.0
C1260 C 0.92517 0.74887 0.93952 0.0
C1261 C 0.88337 0.75389 0.95036 0.0
H1262 H 0.99071 0.73802 0.94968 0.0
H1263 H 0.58478 0.78398 0.0567 0.0
loop_
_geom_bond_atom_site_label_1
_geom_bond_atom_site_label_2
_geom_bond_distance
_geom_bond_site_symmetry_2
_ccdc_geom_bond_type
C0 C1 1.351 . S
C0 N3 1.368 . S
C0 H5 0.931 . S
C1 C0 1.351 . S
C1 N2 1.373 . S
C1 H29 0.930 . S
N2 C1 1.373 . S
N2 C4 1.340 . S
N3 C0 1.368 . S
N3 C4 1.321 . S
N3 Co6 2.135 . S
C4 N2 1.340 . S
C4 N3 1.321 . S
C4 H28 0.930 . S
H5 C0 0.931 . S
Co6 N3 2.135 . S
Co6 N9 2.121 . S
Co6 O14 2.055 . S
Co6 O17 2.039 . S
Co6 N20 2.140 . S
C7 O8 1.227 . S
C7 O17 1.265 . S
O8 C7 1.227 . S
N9 Co6 2.121 . S
N9 C11 1.375 . S
N9 C12 1.313 . S
C10 C11 1.338 . S
C10 N13 1.377 . S
C10 H30 0.930 . S
C11 N9 1.375 . S
C11 C10 1.338 . S
C11 H15 0.931 . S
C12 N9 1.313 . S
C12 N13 1.344 . S
C12 H16 0.930 . S
N13 C10 1.377 . S
N13 C12 1.344 . S
O14 Co6 2.055 . S
O14 C18 1.253 . S
H15 C11 0.931 . S
H16 C12 0.930 . S
O17 Co6 2.039 . S
O17 C7 1.265 . S
C18 O14 1.253 . S
C18 O19 1.227 . S
O19 C18 1.227 . S
N20 Co6 2.140 . S
N20 C23 1.346 . S
N20 C24 1.345 . S
C21 C22 1.387 . S
C21 C25 1.391 . S
C22 C21 1.387 . S
C22 C23 1.369 . S
C22 H31 0.929 . S
C23 N20 1.346 . S
C23 C22 1.369 . S
C23 H26 0.928 . S
C24 N20 1.345 . S
C24 C25 1.371 . S
C24 H27 0.931 . S
C25 C21 1.391 . S
C25 C24 1.371 . S
C25 H32 0.930 . S
H26 C23 0.928 . S
H27 C24 0.931 . S
H28 C4 0.930 . S
H29 C1 0.930 . S
H30 C10 0.930 . S
H31 C22 0.929 . S
H32 C25 0.930 . S
C33 C34 1.351 . S
C33 N36 1.368 . S
C33 H38 0.931 . S
C34 C33 1.351 . S
C34 N35 1.373 . S
C34 H62 0.930 . S
N35 C34 1.373 . S
N35 C37 1.340 . S
N36 C33 1.368 . S
N36 C37 1.321 . S
N36 Co39 2.135 . S
C37 N35 1.340 . S
C37 N36 1.321 . S
C37 H61 0.930 . S
H38 C33 0.931 . S
Co39 N36 2.135 . S
Co39 N42 2.121 . S
Co39 O47 2.055 . S
Co39 O50 2.039 . S
Co39 N53 2.140 . S
C40 O41 1.227 . S
C40 O50 1.265 . S
O41 C40 1.227 . S
N42 Co39 2.121 . S
N42 C44 1.375 . S
N42 C45 1.313 . S
C43 C44 1.338 . S
C43 N46 1.377 . S
C43 H63 0.930 . S
C44 N42 1.375 . S
C44 C43 1.338 . S
C44 H48 0.931 . S
C45 N42 1.313 . S
C45 N46 1.344 . S
C45 H49 0.930 . S
N46 C43 1.377 . S
N46 C45 1.344 . S
O47 Co39 2.055 . S
O47 C51 1.253 . S
H48 C44 0.931 . S
H49 C45 0.930 . S
O50 Co39 2.039 . S
O50 C40 1.265 . S
C51 O47 1.253 . S
C51 O52 1.227 . S
O52 C51 1.227 . S
N53 Co39 2.140 . S
N53 C56 1.346 . S
N53 C57 1.345 . S
C54 C55 1.387 . S
C54 C58 1.391 . S
C55 C54 1.387 . S
C55 C56 1.369 . S
C55 H64 0.929 . S
C56 N53 1.346 . S
C56 C55 1.369 . S
C56 H59 0.928 . S
C57 N53 1.345 . S
C57 C58 1.371 . S
C57 H60 0.931 . S
C58 C54 1.391 . S
C58 C57 1.371 . S
C58 H65 0.930 . S
H59 C56 0.928 . S
H60 C57 0.931 . S
H61 C37 0.930 . S
H62 C34 0.930 . S
H63 C43 0.930 . S
H64 C55 0.929 . S
H65 C58 0.930 . S
C66 C67 1.351 . S
C66 N69 1.368 . S
C66 H71 0.931 . S
C67 C66 1.351 . S
C67 N68 1.373 . S
C67 H95 0.930 . S
N68 C67 1.373 . S
N68 C70 1.340 . S
N69 C66 1.368 . S
N69 C70 1.321 . S
N69 Co72 2.135 . S
C70 N68 1.340 . S
C70 N69 1.321 . S
C70 H94 0.930 . S
H71 C66 0.931 . S
Co72 N69 2.135 . S
Co72 N75 2.121 . S
Co72 O80 2.055 . S
Co72 O83 2.039 . S
Co72 N86 2.140 . S
C73 O74 1.227 . S
C73 O83 1.265 . S
O74 C73 1.227 . S
N75 Co72 2.121 . S
N75 C77 1.375 . S
N75 C78 1.313 . S
C76 C77 1.338 . S
C76 N79 1.377 . S
C76 H96 0.930 . S
C77 N75 1.375 . S
C77 C76 1.338 . S
C77 H81 0.931 . S
C78 N75 1.313 . S
C78 N79 1.344 . S
C78 H82 0.930 . S
N79 C76 1.377 . S
N79 C78 1.344 . S
O80 Co72 2.055 . S
O80 C84 1.253 . S
H81 C77 0.931 . S
H82 C78 0.930 . S
O83 Co72 2.039 . S
O83 C73 1.265 . S
C84 O80 1.253 . S
C84 O85 1.227 . S
O85 C84 1.227 . S
N86 Co72 2.140 . S
N86 C89 1.346 . S
N86 C90 1.345 . S
C87 C88 1.387 . S
C87 C91 1.391 . S
C88 C87 1.387 . S
C88 C89 1.369 . S
C88 H97 0.929 . S
C89 N86 1.346 . S
C89 C88 1.369 . S
C89 H92 0.928 . S
C90 N86 1.345 . S
C90 C91 1.371 . S
C90 H93 0.931 . S
C91 C87 1.391 . S
C91 C90 1.371 . S
C91 H98 0.930 . S
H92 C89 0.928 . S
H93 C90 0.931 . S
H94 C70 0.930 . S
H95 C67 0.930 . S
H96 C76 0.930 . S
H97 C88 0.929 . S
H98 C91 0.930 . S
C99 C100 1.351 . S
C99 N102 1.368 . S
C99 H104 0.931 . S
C100 C99 1.351 . S
C100 N101 1.373 . S
C100 H128 0.930 . S
N101 C100 1.373 . S
N101 C103 1.340 . S
N102 C99 1.368 . S
N102 C103 1.321 . S
N102 Co105 2.135 . S
C103 N101 1.340 . S
C103 N102 1.321 . S
C103 H127 0.930 . S
H104 C99 0.931 . S
Co105 N102 2.135 . S
Co105 N108 2.121 . S
Co105 O113 2.055 . S
Co105 O116 2.039 . S
Co105 N119 2.140 . S
C106 O107 1.227 . S
C106 O116 1.265 . S
O107 C106 1.227 . S
N108 Co105 2.121 . S
N108 C110 1.375 . S
N108 C111 1.313 . S
C109 C110 1.338 . S
C109 N112 1.377 . S
C109 H129 0.930 . S
C110 N108 1.375 . S
C110 C109 1.338 . S
C110 H114 0.931 . S
C111 N108 1.313 . S
C111 N112 1.344 . S
C111 H115 0.930 . S
N112 C109 1.377 . S
N112 C111 1.344 . S
O113 Co105 2.055 . S
O113 C117 1.253 . S
H114 C110 0.931 . S
H115 C111 0.930 . S
O116 Co105 2.039 . S
O116 C106 1.265 . S
C117 O113 1.253 . S
C117 O118 1.227 . S
O118 C117 1.227 . S
N119 Co105 2.140 . S
N119 C122 1.346 . S
N119 C123 1.345 . S
C120 C121 1.387 . S
C120 C124 1.391 . S
C121 C120 1.387 . S
C121 C122 1.369 . S
C121 H130 0.929 . S
C122 N119 1.346 . S
C122 C121 1.369 . S
C122 H125 0.928 . S
C123 N119 1.345 . S
C123 C124 1.371 . S
C123 H126 0.931 . S
C124 C120 1.391 . S
C124 C123 1.371 . S
C124 H131 0.930 . S
H125 C122 0.928 . S
H126 C123 0.931 . S
H127 C103 0.930 . S
H128 C100 0.930 . S
H129 C109 0.930 . S
H130 C121 0.929 . S
H131 C124 0.930 . S
C132 C133 1.351 . S
C132 N135 1.368 . S
C132 H137 0.931 . S
C133 C132 1.351 . S
C133 N134 1.373 . S
C133 H161 0.930 . S
N134 C133 1.373 . S
N134 C136 1.340 . S
N135 C132 1.368 . S
N135 C136 1.321 . S
N135 Co138 2.135 . S
C136 N134 1.340 . S
C136 N135 1.321 . S
C136 H160 0.930 . S
H137 C132 0.931 . S
Co138 N135 2.135 . S
Co138 N141 2.121 . S
Co138 O146 2.055 . S
Co138 O149 2.039 . S
Co138 N152 2.140 . S
C139 O140 1.227 . S
C139 O149 1.265 . S
O140 C139 1.227 . S
N141 Co138 2.121 . S
N141 C143 1.375 . S
N141 C144 1.313 . S
C142 C143 1.338 . S
C142 N145 1.377 . S
C142 H162 0.930 . S
C143 N141 1.375 . S
C143 C142 1.338 . S
C143 H147 0.931 . S
C144 N141 1.313 . S
C144 N145 1.344 . S
C144 H148 0.930 . S
N145 C142 1.377 . S
N145 C144 1.344 . S
O146 Co138 2.055 . S
O146 C150 1.253 . S
H147 C143 0.931 . S
H148 C144 0.930 . S
O149 Co138 2.039 . S
O149 C139 1.265 . S
C150 O146 1.253 . S
C150 O151 1.227 . S
O151 C150 1.227 . S
N152 Co138 2.140 . S
N152 C155 1.346 . S
N152 C156 1.345 . S
C153 C154 1.387 . S
C153 C157 1.391 . S
C154 C153 1.387 . S
C154 C155 1.369 . S
C154 H163 0.929 . S
C155 N152 1.346 . S
C155 C154 1.369 . S
C155 H158 0.928 . S
C156 N152 1.345 . S
C156 C157 1.371 . S
C156 H159 0.931 . S
C157 C153 1.391 . S
C157 C156 1.371 . S
C157 H164 0.930 . S
H158 C155 0.928 . S
H159 C156 0.931 . S
H160 C136 0.930 . S
H161 C133 0.930 . S
H162 C142 0.930 . S
H163 C154 0.929 . S
H164 C157 0.930 . S
C165 C166 1.351 . S
C165 N168 1.368 . S
C165 H170 0.931 . S
C166 C165 1.351 . S
C166 N167 1.373 . S
C166 H194 0.930 . S
N167 C166 1.373 . S
N167 C169 1.340 . S
N168 C165 1.368 . S
N168 C169 1.321 . S
N168 Co171 2.135 . S
C169 N167 1.340 . S
C169 N168 1.321 . S
C169 H193 0.930 . S
H170 C165 0.931 . S
Co171 N168 2.135 . S
Co171 N174 2.121 . S
Co171 O179 2.055 . S
Co171 O182 2.039 . S
Co171 N185 2.140 . S
C172 O173 1.227 . S
C172 O182 1.265 . S
O173 C172 1.227 . S
N174 Co171 2.121 . S
N174 C176 1.375 . S
N174 C177 1.313 1_455 S
C175 C176 1.338 1_655 S
C175 N178 1.377 . S
C175 H195 0.930 . S
C176 N174 1.375 . S
C176 C175 1.338 1_455 S
C176 H180 0.931 . S
C177 N174 1.313 1_655 S
C177 N178 1.344 . S
C177 H181 0.930 . S
N178 C175 1.377 . S
N178 C177 1.344 . S
O179 Co171 2.055 . S
O179 C183 1.253 1_455 S
H180 C176 0.931 . S
H181 C177 0.930 . S
O182 Co171 2.039 . S
O182 C172 1.265 . S
C183 O179 1.253 1_655 S
C183 O184 1.227 . S
O184 C183 1.227 . S
N185 Co171 2.140 . S
N185 C188 1.346 . S
N185 C189 1.345 . S
C186 C187 1.387 . S
C186 C190 1.391 . S
C187 C186 1.387 . S
C187 C188 1.369 . S
C187 H196 0.929 . S
C188 N185 1.346 . S
C188 C187 1.369 . S
C188 H191 0.928 . S
C189 N185 1.345 . S
C189 C190 1.371 . S
C189 H192 0.931 1_455 S
C190 C186 1.391 . S
C190 C189 1.371 . S
C190 H197 0.930 1_455 S
H191 C188 0.928 . S
H192 C189 0.931 1_655 S
H193 C169 0.930 . S
H194 C166 0.930 . S
H195 C175 0.930 . S
H196 C187 0.929 . S
H197 C190 0.930 1_655 S
C198 C199 1.351 . S
C198 N201 1.368 . S
C198 H203 0.931 . S
C199 C198 1.351 . S
C199 N200 1.373 . S
C199 H227 0.930 . S
N200 C199 1.373 . S
N200 C202 1.340 . S
N201 C198 1.368 . S
N201 C202 1.321 . S
N201 Co204 2.135 . S
C202 N200 1.340 . S
C202 N201 1.321 . S
C202 H226 0.930 . S
H203 C198 0.931 . S
Co204 N201 2.135 . S
Co204 N207 2.121 . S
Co204 O212 2.055 . S
Co204 O215 2.039 . S
Co204 N218 2.140 . S
C205 O206 1.227 . S
C205 O215 1.265 . S
O206 C205 1.227 . S
N207 Co204 2.121 . S
N207 C209 1.375 . S
N207 C210 1.313 . S
C208 C209 1.338 . S
C208 N211 1.377 . S
C208 H228 0.930 . S
C209 N207 1.375 . S
C209 C208 1.338 . S
C209 H213 0.931 . S
C210 N207 1.313 . S
C210 N211 1.344 . S
C210 H214 0.930 . S
N211 C208 1.377 . S
N211 C210 1.344 . S
O212 Co204 2.055 . S
O212 C216 1.253 . S
H213 C209 0.931 . S
H214 C210 0.930 . S
O215 Co204 2.039 . S
O215 C205 1.265 . S
C216 O212 1.253 . S
C216 O217 1.227 . S
O217 C216 1.227 . S
N218 Co204 2.140 . S
N218 C221 1.346 . S
N218 C222 1.345 . S
C219 C220 1.387 . S
C219 C223 1.391 . S
C220 C219 1.387 . S
C220 C221 1.369 . S
C220 H229 0.929 . S
C221 N218 1.346 . S
C221 C220 1.369 . S
C221 H224 0.928 . S
C222 N218 1.345 . S
C222 C223 1.371 . S
C222 H225 0.931 . S
C223 C219 1.391 . S
C223 C222 1.371 . S
C223 H230 0.930 . S
H224 C221 0.928 . S
H225 C222 0.931 . S
H226 C202 0.930 . S
H227 C199 0.930 . S
H228 C208 0.930 . S
H229 C220 0.929 . S
H230 C223 0.930 . S
C231 C232 1.351 . S
C231 N234 1.368 . S
C231 H236 0.931 . S
C232 C231 1.351 . S
C232 N233 1.373 . S
C232 H260 0.930 . S
N233 C232 1.373 . S
N233 C235 1.340 . S
N234 C231 1.368 . S
N234 C235 1.321 . S
N234 Co237 2.135 . S
C235 N233 1.340 . S
C235 N234 1.321 . S
C235 H259 0.930 . S
H236 C231 0.931 . S
Co237 N234 2.135 . S
Co237 N240 2.121 . S
Co237 O245 2.055 . S
Co237 O248 2.039 . S
Co237 N251 2.140 . S
C238 O239 1.227 . S
C238 O248 1.265 . S
O239 C238 1.227 . S
N240 Co237 2.121 . S
N240 C242 1.375 . S
N240 C243 1.313 1_455 S
C241 C242 1.338 1_655 S
C241 N244 1.377 . S
C241 H261 0.930 . S
C242 N240 1.375 . S
C242 C241 1.338 1_455 S
C242 H246 0.931 . S
C243 N240 1.313 1_655 S
C243 N244 1.344 . S
C243 H247 0.930 . S
N244 C241 1.377 . S
N244 C243 1.344 . S
O245 Co237 2.055 . S
O245 C249 1.253 1_455 S
H246 C242 0.931 . S
H247 C243 0.930 . S
O248 Co237 2.039 . S
O248 C238 1.265 . S
C249 O245 1.253 1_655 S
C249 O250 1.227 . S
O250 C249 1.227 . S
N251 Co237 2.140 . S
N251 C254 1.346 . S
N251 C255 1.345 . S
C252 C253 1.387 . S
C252 C256 1.391 . S
C253 C252 1.387 . S
C253 C254 1.369 . S
C253 H262 0.929 . S
C254 N251 1.346 . S
C254 C253 1.369 . S
C254 H257 0.928 . S
C255 N251 1.345 . S
C255 C256 1.371 . S
C255 H258 0.931 1_455 S
C256 C252 1.391 . S
C256 C255 1.371 . S
C256 H263 0.930 1_455 S
H257 C254 0.928 . S
H258 C255 0.931 1_655 S
H259 C235 0.930 . S
H260 C232 0.930 . S
H261 C241 0.930 . S
H262 C253 0.929 . S
H263 C256 0.930 1_655 S
H264 C282 0.951 . S
H265 C284 0.951 . S
H266 C286 0.950 . S
H267 C287 0.950 . S
H268 C289 0.950 . S
H269 C292 0.950 . S
H270 C293 0.950 . S
H271 C295 0.950 . S
H272 C296 0.950 . S
H273 C297 0.951 . S
H274 C299 0.951 . S
H275 C301 0.950 . S
H276 C302 0.950 . S
H277 C304 0.950 . S
H278 C307 0.950 . S
H279 C308 0.950 . S
H280 C310 0.950 . S
H281 C311 0.950 . S
C282 H264 0.951 . S
C282 C283 1.366 . S
C282 C284 1.388 . S
C283 C282 1.366 . S
C283 C287 1.385 . S
C284 H265 0.951 . S
C284 C282 1.388 . S
C284 C285 1.366 . S
C285 C284 1.366 . S
C285 C286 1.414 . S
C285 C288 1.499 . S
C286 H266 0.950 . S
C286 C285 1.414 . S
C286 C287 1.374 . S
C287 H267 0.950 . S
C287 C283 1.385 . S
C287 C286 1.374 . S
C288 C285 1.499 . S
C288 C289 1.373 . S
C288 C290 1.389 . S
C289 H268 0.950 . S
C289 C288 1.373 . S
C289 C305 1.377 . S
C290 C288 1.389 . S
C290 C291 1.524 . S
C290 C304 1.377 . S
C291 C290 1.524 . S
C291 C292 1.397 . S
C291 C296 1.363 . S
C292 H269 0.950 . S
C292 C291 1.397 . S
C292 C293 1.334 . S
C293 H270 0.950 . S
C293 C292 1.334 . S
C293 C294 1.287 . S
C294 C293 1.287 . S
C294 C295 1.524 . S
C294 H313 0.913 . S
C295 H271 0.950 . S
C295 C294 1.524 . S
C295 C296 1.415 . S
C296 H272 0.950 . S
C296 C291 1.363 . S
C296 C295 1.415 . S
C297 H273 0.951 . S
C297 C298 1.366 . S
C297 C299 1.388 . S
C298 C297 1.366 . S
C298 C302 1.385 . S
C299 H274 0.951 . S
C299 C297 1.388 . S
C299 C300 1.366 . S
C300 C299 1.366 . S
C300 C301 1.414 . S
C300 C303 1.499 . S
C301 H275 0.950 . S
C301 C300 1.414 . S
C301 C302 1.374 . S
C302 H276 0.950 . S
C302 C298 1.385 . S
C302 C301 1.374 . S
C303 C300 1.499 . S
C303 C304 1.373 . S
C303 C305 1.389 . S
C304 H277 0.950 . S
C304 C290 1.377 . S
C304 C303 1.373 . S
C305 C289 1.377 . S
C305 C303 1.389 . S
C305 C306 1.524 . S
C306 C305 1.524 . S
C306 C307 1.397 . S
C306 C311 1.363 . S
C307 H278 0.950 . S
C307 C306 1.397 . S
C307 C308 1.334 . S
C308 H279 0.950 . S
C308 C307 1.334 . S
C308 C309 1.287 . S
C309 C308 1.287 . S
C309 C310 1.524 . S
C309 H312 0.999 . S
C310 H280 0.950 . S
C310 C309 1.524 . S
C310 C311 1.415 . S
C311 H281 0.950 . S
C311 C306 1.363 . S
C311 C310 1.415 . S
H312 C309 0.999 . S
H313 C294 0.913 . S
H314 C332 0.951 . S
H315 C334 0.951 . S
H316 C336 0.950 . S
H317 C337 0.950 . S
H318 C339 0.950 . S
H319 C342 0.950 . S
H320 C343 0.950 . S
H321 C345 0.950 . S
H322 C346 0.950 . S
H323 C347 0.951 . S
H324 C349 0.951 . S
H325 C351 0.950 . S
H326 C352 0.950 . S
H327 C354 0.950 . S
H328 C357 0.950 . S
H329 C358 0.950 . S
H330 C360 0.950 . S
H331 C361 0.950 . S
C332 H314 0.951 . S
C332 C333 1.366 . S
C332 C334 1.388 . S
C333 C332 1.366 . S
C333 C337 1.385 . S
C334 H315 0.951 . S
C334 C332 1.388 . S
C334 C335 1.366 . S
C335 C334 1.366 . S
C335 C336 1.414 . S
C335 C338 1.499 . S
C336 H316 0.950 . S
C336 C335 1.414 . S
C336 C337 1.374 . S
C337 H317 0.950 . S
C337 C333 1.385 . S
C337 C336 1.374 . S
C338 C335 1.499 . S
C338 C339 1.373 . S
C338 C340 1.389 . S
C339 H318 0.950 . S
C339 C338 1.373 . S
C339 C355 1.377 . S
C340 C338 1.389 . S
C340 C341 1.524 . S
C340 C354 1.377 . S
C341 C340 1.524 . S
C341 C342 1.397 . S
C341 C346 1.363 . S
C342 H319 0.950 . S
C342 C341 1.397 . S
C342 C343 1.334 . S
C343 H320 0.950 . S
C343 C342 1.334 . S
C343 C344 1.287 . S
C344 C343 1.287 . S
C344 C345 1.524 . S
C344 H363 0.913 . S
C345 H321 0.950 . S
C345 C344 1.524 . S
C345 C346 1.415 . S
C346 H322 0.950 . S
C346 C341 1.363 . S
C346 C345 1.415 . S
C347 H323 0.951 . S
C347 C348 1.366 . S
C347 C349 1.388 . S
C348 C347 1.366 . S
C348 C352 1.385 . S
C349 H324 0.951 . S
C349 C347 1.388 . S
C349 C350 1.366 . S
C350 C349 1.366 . S
C350 C351 1.414 . S
C350 C353 1.499 . S
C351 H325 0.950 . S
C351 C350 1.414 . S
C351 C352 1.374 . S
C352 H326 0.950 . S
C352 C348 1.385 . S
C352 C351 1.374 . S
C353 C350 1.499 . S
C353 C354 1.373 . S
C353 C355 1.389 . S
C354 H327 0.950 . S
C354 C340 1.377 . S
C354 C353 1.373 . S
C355 C339 1.377 . S
C355 C353 1.389 . S
C355 C356 1.524 . S
C356 C355 1.524 . S
C356 C357 1.397 . S
C356 C361 1.363 . S
C357 H328 0.950 . S
C357 C356 1.397 . S
C357 C358 1.334 . S
C358 H329 0.950 . S
C358 C357 1.334 . S
C358 C359 1.287 . S
C359 C358 1.287 . S
C359 C360 1.524 . S
C359 H362 0.999 . S
C360 H330 0.950 . S
C360 C359 1.524 . S
C360 C361 1.415 . S
C361 H331 0.950 . S
C361 C356 1.363 . S
C361 C360 1.415 . S
H362 C359 0.999 . S
H363 C344 0.913 . S
H364 C382 0.951 . S
H365 C384 0.951 . S
H366 C386 0.950 . S
H367 C387 0.950 1_455 S
H368 C389 0.950 . S
H369 C392 0.950 . S
H370 C393 0.950 . S
H371 C395 0.950 . S
H372 C396 0.950 . S
H373 C397 0.951 . S
H374 C399 0.951 . S
H375 C401 0.950 . S
H376 C402 0.950 . S
H377 C404 0.950 . S
H378 C407 0.950 . S
H379 C408 0.950 . S
H380 C410 0.950 . S
H381 C411 0.950 . S
C382 H364 0.951 . S
C382 C383 1.366 . S
C382 C384 1.388 . S
C383 C382 1.366 . S
C383 C387 1.385 . S
C384 H365 0.951 . S
C384 C382 1.388 . S
C384 C385 1.366 . S
C385 C384 1.366 . S
C385 C386 1.414 . S
C385 C388 1.499 . S
C386 H366 0.950 . S
C386 C385 1.414 . S
C386 C387 1.374 . S
C387 H367 0.950 1_655 S
C387 C383 1.385 . S
C387 C386 1.374 . S
C388 C385 1.499 . S
C388 C389 1.373 . S
C388 C390 1.389 . S
C389 H368 0.950 . S
C389 C388 1.373 . S
C389 C405 1.377 . S
C390 C388 1.389 . S
C390 C391 1.524 . S
C390 C404 1.377 . S
C391 C390 1.524 . S
C391 C392 1.397 . S
C391 C396 1.363 . S
C392 H369 0.950 . S
C392 C391 1.397 . S
C392 C393 1.334 . S
C393 H370 0.950 . S
C393 C392 1.334 . S
C393 C394 1.287 . S
C394 C393 1.287 . S
C394 C395 1.524 . S
C394 H413 0.913 . S
C395 H371 0.950 . S
C395 C394 1.524 . S
C395 C396 1.415 . S
C396 H372 0.950 . S
C396 C391 1.363 . S
C396 C395 1.415 . S
C397 H373 0.951 . S
C397 C398 1.366 . S
C397 C399 1.388 . S
C398 C397 1.366 . S
C398 C402 1.385 . S
C399 H374 0.951 . S
C399 C397 1.388 . S
C399 C400 1.366 . S
C400 C399 1.366 . S
C400 C401 1.414 . S
C400 C403 1.499 . S
C401 H375 0.950 . S
C401 C400 1.414 . S
C401 C402 1.374 . S
C402 H376 0.950 . S
C402 C398 1.385 . S
C402 C401 1.374 . S
C403 C400 1.499 . S
C403 C404 1.373 . S
C403 C405 1.389 . S
C404 H377 0.950 . S
C404 C390 1.377 . S
C404 C403 1.373 . S
C405 C389 1.377 . S
C405 C403 1.389 . S
C405 C406 1.524 . S
C406 C405 1.524 . S
C406 C407 1.397 . S
C406 C411 1.363 . S
C407 H378 0.950 . S
C407 C406 1.397 . S
C407 C408 1.334 . S
C408 H379 0.950 . S
C408 C407 1.334 . S
C408 C409 1.287 . S
C409 C408 1.287 . S
C409 C410 1.524 . S
C409 H412 0.999 . S
C410 H380 0.950 . S
C410 C409 1.524 . S
C410 C411 1.415 . S
C411 H381 0.950 . S
C411 C406 1.363 . S
C411 C410 1.415 . S
H412 C409 0.999 . S
H413 C394 0.913 . S
H414 C432 0.951 . S
H415 C434 0.951 . S
H416 C436 0.950 . S
H417 C437 0.950 . S
H418 C439 0.950 . S
H419 C442 0.950 . S
H420 C443 0.950 . S
H421 C445 0.950 . S
H422 C446 0.950 . S
H423 C447 0.951 . S
H424 C449 0.951 . S
H425 C451 0.950 . S
H426 C452 0.950 . S
H427 C454 0.950 . S
H428 C457 0.950 . S
H429 C458 0.950 1_455 S
H430 C460 0.950 . S
H431 C461 0.950 . S
C432 H414 0.951 . S
C432 C433 1.366 . S
C432 C434 1.388 . S
C433 C432 1.366 . S
C433 C437 1.385 . S
C434 H415 0.951 . S
C434 C432 1.388 . S
C434 C435 1.366 . S
C435 C434 1.366 . S
C435 C436 1.414 . S
C435 C438 1.499 . S
C436 H416 0.950 . S
C436 C435 1.414 . S
C436 C437 1.374 . S
C437 H417 0.950 . S
C437 C433 1.385 . S
C437 C436 1.374 . S
C438 C435 1.499 . S
C438 C439 1.373 . S
C438 C440 1.389 . S
C439 H418 0.950 . S
C439 C438 1.373 . S
C439 C455 1.377 . S
C440 C438 1.389 . S
C440 C441 1.524 . S
C440 C454 1.377 . S
C441 C440 1.524 . S
C441 C442 1.397 . S
C441 C446 1.363 . S
C442 H419 0.950 . S
C442 C441 1.397 . S
C442 C443 1.334 . S
C443 H420 0.950 . S
C443 C442 1.334 . S
C443 C444 1.287 . S
C444 C443 1.287 . S
C444 C445 1.524 . S
C444 H463 0.913 . S
C445 H421 0.950 . S
C445 C444 1.524 . S
C445 C446 1.415 . S
C446 H422 0.950 . S
C446 C441 1.363 . S
C446 C445 1.415 . S
C447 H423 0.951 . S
C447 C448 1.366 . S
C447 C449 1.388 . S
C448 C447 1.366 . S
C448 C452 1.385 . S
C449 H424 0.951 . S
C449 C447 1.388 . S
C449 C450 1.366 . S
C450 C449 1.366 . S
C450 C451 1.414 . S
C450 C453 1.499 . S
C451 H425 0.950 . S
C451 C450 1.414 . S
C451 C452 1.374 . S
C452 H426 0.950 . S
C452 C448 1.385 . S
C452 C451 1.374 . S
C453 C450 1.499 . S
C453 C454 1.373 . S
C453 C455 1.389 . S
C454 H427 0.950 . S
C454 C440 1.377 . S
C454 C453 1.373 . S
C455 C439 1.377 . S
C455 C453 1.389 . S
C455 C456 1.524 . S
C456 C455 1.524 . S
C456 C457 1.397 . S
C456 C461 1.363 . S
C457 H428 0.950 . S
C457 C456 1.397 . S
C457 C458 1.334 . S
C458 H429 0.950 1_655 S
C458 C457 1.334 . S
C458 C459 1.287 . S
C459 C458 1.287 . S
C459 C460 1.524 . S
C459 H462 0.999 1_655 S
C460 H430 0.950 . S
C460 C459 1.524 . S
C460 C461 1.415 . S
C461 H431 0.950 . S
C461 C456 1.363 . S
C461 C460 1.415 . S
H462 C459 0.999 1_455 S
H463 C444 0.913 . S
H464 C482 0.951 . S
H465 C484 0.951 . S
H466 C486 0.950 . S
H467 C487 0.950 . S
H468 C489 0.950 . S
H469 C492 0.950 . S
H470 C493 0.950 . S
H471 C495 0.950 . S
H472 C496 0.950 . S
H473 C497 0.951 . S
H474 C499 0.951 . S
H475 C501 0.950 . S
H476 C502 0.950 . S
H477 C504 0.950 . S
H478 C507 0.950 . S
H479 C508 0.950 . S
H480 C510 0.950 . S
H481 C511 0.950 . S
C482 H464 0.951 . S
C482 C483 1.366 . S
C482 C484 1.388 . S
C483 C482 1.366 . S
C483 C487 1.385 . S
C484 H465 0.951 . S
C484 C482 1.388 . S
C484 C485 1.366 . S
C485 C484 1.366 . S
C485 C486 1.414 . S
C485 C488 1.499 . S
C486 H466 0.950 . S
C486 C485 1.414 . S
C486 C487 1.374 . S
C487 H467 0.950 . S
C487 C483 1.385 . S
C487 C486 1.374 . S
C488 C485 1.499 . S
C488 C489 1.373 . S
C488 C490 1.389 . S
C489 H468 0.950 . S
C489 C488 1.373 . S
C489 C505 1.377 . S
C490 C488 1.389 . S
C490 C491 1.524 . S
C490 C504 1.377 . S
C491 C490 1.524 . S
C491 C492 1.397 . S
C491 C496 1.363 . S
C492 H469 0.950 . S
C492 C491 1.397 . S
C492 C493 1.334 . S
C493 H470 0.950 . S
C493 C492 1.334 . S
C493 C494 1.287 . S
C494 C493 1.287 . S
C494 C495 1.524 . S
C494 H513 0.913 . S
C495 H471 0.950 . S
C495 C494 1.524 . S
C495 C496 1.415 . S
C496 H472 0.950 . S
C496 C491 1.363 . S
C496 C495 1.415 . S
C497 H473 0.951 . S
C497 C498 1.366 . S
C497 C499 1.388 . S
C498 C497 1.366 . S
C498 C502 1.385 . S
C499 H474 0.951 . S
C499 C497 1.388 . S
C499 C500 1.366 . S
C500 C499 1.366 . S
C500 C501 1.414 . S
C500 C503 1.499 . S
C501 H475 0.950 . S
C501 C500 1.414 . S
C501 C502 1.374 . S
C502 H476 0.950 . S
C502 C498 1.385 . S
C502 C501 1.374 . S
C503 C500 1.499 . S
C503 C504 1.373 . S
C503 C505 1.389 . S
C504 H477 0.950 . S
C504 C490 1.377 . S
C504 C503 1.373 . S
C505 C489 1.377 . S
C505 C503 1.389 . S
C505 C506 1.524 . S
C506 C505 1.524 . S
C506 C507 1.397 . S
C506 C511 1.363 . S
C507 H478 0.950 . S
C507 C506 1.397 . S
C507 C508 1.334 . S
C508 H479 0.950 . S
C508 C507 1.334 . S
C508 C509 1.287 . S
C509 C508 1.287 . S
C509 C510 1.524 . S
C509 H512 0.999 1_655 S
C510 H480 0.950 . S
C510 C509 1.524 . S
C510 C511 1.415 . S
C511 H481 0.950 . S
C511 C506 1.363 . S
C511 C510 1.415 . S
H512 C509 0.999 1_455 S
H513 C494 0.913 . S
H514 C532 0.951 . S
H515 C534 0.951 . S
H516 C536 0.950 . S
H517 C537 0.950 . S
H518 C539 0.950 . S
H519 C542 0.950 . S
H520 C543 0.950 . S
H521 C545 0.950 . S
H522 C546 0.950 . S
H523 C547 0.951 . S
H524 C549 0.951 . S
H525 C551 0.950 . S
H526 C552 0.950 . S
H527 C554 0.950 . S
H528 C557 0.950 . S
H529 C558 0.950 . S
H530 C560 0.950 . S
H531 C561 0.950 . S
C532 H514 0.951 . S
C532 C533 1.366 . S
C532 C534 1.388 . S
C533 C532 1.366 . S
C533 C537 1.385 . S
C534 H515 0.951 . S
C534 C532 1.388 . S
C534 C535 1.366 . S
C535 C534 1.366 . S
C535 C536 1.414 . S
C535 C538 1.499 . S
C536 H516 0.950 . S
C536 C535 1.414 . S
C536 C537 1.374 . S
C537 H517 0.950 . S
C537 C533 1.385 . S
C537 C536 1.374 . S
C538 C535 1.499 . S
C538 C539 1.373 . S
C538 C540 1.389 . S
C539 H518 0.950 . S
C539 C538 1.373 . S
C539 C555 1.377 . S
C540 C538 1.389 . S
C540 C541 1.524 . S
C540 C554 1.377 . S
C541 C540 1.524 . S
C541 C542 1.397 . S
C541 C546 1.363 . S
C542 H519 0.950 . S
C542 C541 1.397 . S
C542 C543 1.334 . S
C543 H520 0.950 . S
C543 C542 1.334 . S
C543 C544 1.287 . S
C544 C543 1.287 . S
C544 C545 1.524 . S
C544 H563 0.913 . S
C545 H521 0.950 . S
C545 C544 1.524 . S
C545 C546 1.415 . S
C546 H522 0.950 . S
C546 C541 1.363 . S
C546 C545 1.415 . S
C547 H523 0.951 . S
C547 C548 1.366 . S
C547 C549 1.388 . S
C548 C547 1.366 . S
C548 C552 1.385 . S
C549 H524 0.951 . S
C549 C547 1.388 . S
C549 C550 1.366 . S
C550 C549 1.366 . S
C550 C551 1.414 . S
C550 C553 1.499 . S
C551 H525 0.950 . S
C551 C550 1.414 . S
C551 C552 1.374 . S
C552 H526 0.950 . S
C552 C548 1.385 . S
C552 C551 1.374 . S
C553 C550 1.499 . S
C553 C554 1.373 . S
C553 C555 1.389 . S
C554 H527 0.950 . S
C554 C540 1.377 . S
C554 C553 1.373 . S
C555 C539 1.377 . S
C555 C553 1.389 . S
C555 C556 1.524 . S
C556 C555 1.524 . S
C556 C557 1.397 . S
C556 C561 1.363 . S
C557 H528 0.950 . S
C557 C556 1.397 . S
C557 C558 1.334 . S
C558 H529 0.950 . S
C558 C557 1.334 . S
C558 C559 1.287 . S
C559 C558 1.287 . S
C559 C560 1.524 . S
C559 H562 0.999 1_655 S
C560 H530 0.950 . S
C560 C559 1.524 . S
C560 C561 1.415 . S
C561 H531 0.950 . S
C561 C556 1.363 . S
C561 C560 1.415 . S
H562 C559 0.999 1_455 S
H563 C544 0.913 . S
H564 C582 0.951 . S
H565 C584 0.951 . S
H566 C586 0.950 . S
H567 C587 0.950 . S
H568 C589 0.950 . S
H569 C592 0.950 . S
H570 C593 0.950 . S
H571 C595 0.950 . S
H572 C596 0.950 . S
H573 C597 0.951 . S
H574 C599 0.951 . S
H575 C601 0.950 . S
H576 C602 0.950 . S
H577 C604 0.950 . S
H578 C607 0.950 . S
H579 C608 0.950 . S
H580 C610 0.950 . S
H581 C611 0.950 . S
C582 H564 0.951 . S
C582 C583 1.366 . S
C582 C584 1.388 . S
C583 C582 1.366 . S
C583 C587 1.385 . S
C584 H565 0.951 . S
C584 C582 1.388 . S
C584 C585 1.366 . S
C585 C584 1.366 . S
C585 C586 1.414 . S
C585 C588 1.499 . S
C586 H566 0.950 . S
C586 C585 1.414 . S
C586 C587 1.374 . S
C587 H567 0.950 . S
C587 C583 1.385 . S
C587 C586 1.374 . S
C588 C585 1.499 . S
C588 C589 1.373 . S
C588 C590 1.389 . S
C589 H568 0.950 . S
C589 C588 1.373 . S
C589 C605 1.377 . S
C590 C588 1.389 . S
C590 C591 1.524 . S
C590 C604 1.377 . S
C591 C590 1.524 . S
C591 C592 1.397 . S
C591 C596 1.363 . S
C592 H569 0.950 . S
C592 C591 1.397 . S
C592 C593 1.334 . S
C593 H570 0.950 . S
C593 C592 1.334 . S
C593 C594 1.287 . S
C594 C593 1.287 . S
C594 C595 1.524 . S
C594 H613 0.913 . S
C595 H571 0.950 . S
C595 C594 1.524 . S
C595 C596 1.415 . S
C596 H572 0.950 . S
C596 C591 1.363 . S
C596 C595 1.415 . S
C597 H573 0.951 . S
C597 C598 1.366 . S
C597 C599 1.388 . S
C598 C597 1.366 . S
C598 C602 1.385 . S
C599 H574 0.951 . S
C599 C597 1.388 . S
C599 C600 1.366 . S
C600 C599 1.366 . S
C600 C601 1.414 . S
C600 C603 1.499 . S
C601 H575 0.950 . S
C601 C600 1.414 . S
C601 C602 1.374 . S
C602 H576 0.950 . S
C602 C598 1.385 . S
C602 C601 1.374 . S
C603 C600 1.499 . S
C603 C604 1.373 . S
C603 C605 1.389 . S
C604 H577 0.950 . S
C604 C590 1.377 . S
C604 C603 1.373 . S
C605 C589 1.377 . S
C605 C603 1.389 . S
C605 C606 1.524 . S
C606 C605 1.524 . S
C606 C607 1.397 . S
C606 C611 1.363 . S
C607 H578 0.950 . S
C607 C606 1.397 . S
C607 C608 1.334 . S
C608 H579 0.950 . S
C608 C607 1.334 . S
C608 C609 1.287 . S
C609 C608 1.287 . S
C609 C610 1.524 . S
C609 H612 0.999 . S
C610 H580 0.950 . S
C610 C609 1.524 . S
C610 C611 1.415 . S
C611 H581 0.950 . S
C611 C606 1.363 . S
C611 C610 1.415 . S
H612 C609 0.999 . S
H613 C594 0.913 . S
H614 C632 0.951 . S
H615 C634 0.951 . S
H616 C636 0.950 . S
H617 C637 0.950 . S
H618 C639 0.950 . S
H619 C642 0.950 . S
H620 C643 0.950 . S
H621 C645 0.950 . S
H622 C646 0.950 . S
H623 C647 0.951 . S
H624 C649 0.951 . S
H625 C651 0.950 . S
H626 C652 0.950 . S
H627 C654 0.950 . S
H628 C657 0.950 . S
H629 C658 0.950 . S
H630 C660 0.950 . S
H631 C661 0.950 . S
C632 H614 0.951 . S
C632 C633 1.366 . S
C632 C634 1.388 . S
C633 C632 1.366 . S
C633 C637 1.385 . S
C634 H615 0.951 . S
C634 C632 1.388 . S
C634 C635 1.366 . S
C635 C634 1.366 . S
C635 C636 1.414 . S
C635 C638 1.499 . S
C636 H616 0.950 . S
C636 C635 1.414 . S
C636 C637 1.374 . S
C637 H617 0.950 . S
C637 C633 1.385 . S
C637 C636 1.374 . S
C638 C635 1.499 . S
C638 C639 1.373 . S
C638 C640 1.389 . S
C639 H618 0.950 . S
C639 C638 1.373 . S
C639 C655 1.377 . S
C640 C638 1.389 . S
C640 C641 1.524 . S
C640 C654 1.377 . S
C641 C640 1.524 . S
C641 C642 1.397 . S
C641 C646 1.363 . S
C642 H619 0.950 . S
C642 C641 1.397 . S
C642 C643 1.334 . S
C643 H620 0.950 . S
C643 C642 1.334 . S
C643 C644 1.287 . S
C644 C643 1.287 . S
C644 C645 1.524 . S
C644 H663 0.913 . S
C645 H621 0.950 . S
C645 C644 1.524 . S
C645 C646 1.415 . S
C646 H622 0.950 . S
C646 C641 1.363 . S
C646 C645 1.415 . S
C647 H623 0.951 . S
C647 C648 1.366 . S
C647 C649 1.388 . S
C648 C647 1.366 . S
C648 C652 1.385 . S
C649 H624 0.951 . S
C649 C647 1.388 . S
C649 C650 1.366 . S
C650 C649 1.366 . S
C650 C651 1.414 . S
C650 C653 1.499 . S
C651 H625 0.950 . S
C651 C650 1.414 . S
C651 C652 1.374 . S
C652 H626 0.950 . S
C652 C648 1.385 . S
C652 C651 1.374 . S
C653 C650 1.499 . S
C653 C654 1.373 . S
C653 C655 1.389 . S
C654 H627 0.950 . S
C654 C640 1.377 . S
C654 C653 1.373 . S
C655 C639 1.377 . S
C655 C653 1.389 . S
C655 C656 1.524 . S
C656 C655 1.524 . S
C656 C657 1.397 . S
C656 C661 1.363 . S
C657 H628 0.950 . S
C657 C656 1.397 . S
C657 C658 1.334 . S
C658 H629 0.950 . S
C658 C657 1.334 . S
C658 C659 1.287 . S
C659 C658 1.287 . S
C659 C660 1.524 . S
C659 H662 0.999 . S
C660 H630 0.950 . S
C660 C659 1.524 . S
C660 C661 1.415 . S
C661 H631 0.950 . S
C661 C656 1.363 . S
C661 C660 1.415 . S
H662 C659 0.999 . S
H663 C644 0.913 . S
H664 C682 0.951 . S
H665 C684 0.951 . S
H666 C686 0.950 . S
H667 C687 0.950 . S
H668 C689 0.950 . S
H669 C692 0.950 . S
H670 C693 0.950 . S
H671 C695 0.950 . S
H672 C696 0.950 . S
H673 C697 0.951 . S
H674 C699 0.951 . S
H675 C701 0.950 . S
H676 C702 0.950 . S
H677 C704 0.950 . S
H678 C707 0.950 . S
H679 C708 0.950 . S
H680 C710 0.950 . S
H681 C711 0.950 . S
C682 H664 0.951 . S
C682 C683 1.366 . S
C682 C684 1.388 . S
C683 C682 1.366 . S
C683 C687 1.385 . S
C684 H665 0.951 . S
C684 C682 1.388 . S
C684 C685 1.366 . S
C685 C684 1.366 . S
C685 C686 1.414 . S
C685 C688 1.499 . S
C686 H666 0.950 . S
C686 C685 1.414 . S
C686 C687 1.374 . S
C687 H667 0.950 . S
C687 C683 1.385 . S
C687 C686 1.374 . S
C688 C685 1.499 . S
C688 C689 1.373 . S
C688 C690 1.389 . S
C689 H668 0.950 . S
C689 C688 1.373 . S
C689 C705 1.377 . S
C690 C688 1.389 . S
C690 C691 1.524 . S
C690 C704 1.377 . S
C691 C690 1.524 . S
C691 C692 1.397 . S
C691 C696 1.363 . S
C692 H669 0.950 . S
C692 C691 1.397 . S
C692 C693 1.334 . S
C693 H670 0.950 . S
C693 C692 1.334 . S
C693 C694 1.287 . S
C694 C693 1.287 . S
C694 C695 1.524 . S
C694 H713 0.913 . S
C695 H671 0.950 . S
C695 C694 1.524 . S
C695 C696 1.415 . S
C696 H672 0.950 . S
C696 C691 1.363 . S
C696 C695 1.415 . S
C697 H673 0.951 . S
C697 C698 1.366 . S
C697 C699 1.388 . S
C698 C697 1.366 . S
C698 C702 1.385 . S
C699 H674 0.951 . S
C699 C697 1.388 . S
C699 C700 1.366 . S
C700 C699 1.366 . S
C700 C701 1.414 . S
C700 C703 1.499 . S
C701 H675 0.950 . S
C701 C700 1.414 . S
C701 C702 1.374 . S
C702 H676 0.950 . S
C702 C698 1.385 . S
C702 C701 1.374 . S
C703 C700 1.499 . S
C703 C704 1.373 . S
C703 C705 1.389 . S
C704 H677 0.950 . S
C704 C690 1.377 . S
C704 C703 1.373 . S
C705 C689 1.377 . S
C705 C703 1.389 . S
C705 C706 1.524 . S
C706 C705 1.524 . S
C706 C707 1.397 . S
C706 C711 1.363 . S
C707 H678 0.950 . S
C707 C706 1.397 . S
C707 C708 1.334 . S
C708 H679 0.950 . S
C708 C707 1.334 . S
C708 C709 1.287 . S
C709 C708 1.287 . S
C709 C710 1.524 . S
C709 H712 0.999 . S
C710 H680 0.950 . S
C710 C709 1.524 . S
C710 C711 1.415 . S
C711 H681 0.950 . S
C711 C706 1.363 . S
C711 C710 1.415 . S
H712 C709 0.999 . S
H713 C694 0.913 . S
H714 C732 0.951 . S
H715 C734 0.951 . S
H716 C736 0.950 1_554 S
H717 C737 0.950 . S
H718 C739 0.950 . S
H719 C742 0.950 . S
H720 C743 0.950 . S
H721 C745 0.950 . S
H722 C746 0.950 . S
H723 C747 0.951 . S
H724 C749 0.951 . S
H725 C751 0.950 1_556 S
H726 C752 0.950 . S
H727 C754 0.950 . S
H728 C757 0.950 . S
H729 C758 0.950 . S
H730 C760 0.950 . S
H731 C761 0.950 . S
C732 H714 0.951 . S
C732 C733 1.366 . S
C732 C734 1.388 . S
C733 C732 1.366 . S
C733 C737 1.385 . S
C734 H715 0.951 . S
C734 C732 1.388 . S
C734 C735 1.366 . S
C735 C734 1.366 . S
C735 C736 1.414 . S
C735 C738 1.499 . S
C736 H716 0.950 1_556 S
C736 C735 1.414 . S
C736 C737 1.374 . S
C737 H717 0.950 . S
C737 C733 1.385 . S
C737 C736 1.374 . S
C738 C735 1.499 . S
C738 C739 1.373 1_556 S
C738 C740 1.389 . S
C739 H718 0.950 . S
C739 C738 1.373 1_554 S
C739 C755 1.377 . S
C740 C738 1.389 . S
C740 C741 1.524 . S
C740 C754 1.377 . S
C741 C740 1.524 . S
C741 C742 1.397 . S
C741 C746 1.363 . S
C742 H719 0.950 . S
C742 C741 1.397 . S
C742 C743 1.334 . S
C743 H720 0.950 . S
C743 C742 1.334 . S
C743 C744 1.287 . S
C744 C743 1.287 . S
C744 C745 1.524 . S
C744 H763 0.913 . S
C745 H721 0.950 . S
C745 C744 1.524 . S
C745 C746 1.415 . S
C746 H722 0.950 . S
C746 C741 1.363 . S
C746 C745 1.415 . S
C747 H723 0.951 . S
C747 C748 1.366 . S
C747 C749 1.388 . S
C748 C747 1.366 . S
C748 C752 1.385 . S
C749 H724 0.951 . S
C749 C747 1.388 . S
C749 C750 1.366 . S
C750 C749 1.366 . S
C750 C751 1.414 . S
C750 C753 1.499 . S
C751 H725 0.950 1_554 S
C751 C750 1.414 . S
C751 C752 1.374 . S
C752 H726 0.950 . S
C752 C748 1.385 . S
C752 C751 1.374 . S
C753 C750 1.499 . S
C753 C754 1.373 1_554 S
C753 C755 1.389 . S
C754 H727 0.950 . S
C754 C740 1.377 . S
C754 C753 1.373 1_556 S
C755 C739 1.377 . S
C755 C753 1.389 . S
C755 C756 1.524 . S
C756 C755 1.524 . S
C756 C757 1.397 . S
C756 C761 1.363 . S
C757 H728 0.950 . S
C757 C756 1.397 . S
C757 C758 1.334 . S
C758 H729 0.950 . S
C758 C757 1.334 . S
C758 C759 1.287 . S
C759 C758 1.287 . S
C759 C760 1.524 . S
C759 H762 0.999 . S
C760 H730 0.950 . S
C760 C759 1.524 . S
C760 C761 1.415 . S
C761 H731 0.950 . S
C761 C756 1.363 . S
C761 C760 1.415 . S
H762 C759 0.999 . S
H763 C744 0.913 . S
H764 C782 0.951 . S
H765 C784 0.951 . S
H766 C786 0.950 . S
H767 C787 0.950 . S
H768 C789 0.950 . S
H769 C792 0.950 . S
H770 C793 0.950 . S
H771 C795 0.950 . S
H772 C796 0.950 . S
H773 C797 0.951 . S
H774 C799 0.951 . S
H775 C801 0.950 . S
H776 C802 0.950 . S
H777 C804 0.950 . S
H778 C807 0.950 . S
H779 C808 0.950 . S
H780 C810 0.950 . S
H781 C811 0.950 . S
C782 H764 0.951 . S
C782 C783 1.366 . S
C782 C784 1.388 . S
C783 C782 1.366 . S
C783 C787 1.385 . S
C784 H765 0.951 . S
C784 C782 1.388 . S
C784 C785 1.366 . S
C785 C784 1.366 . S
C785 C786 1.414 . S
C785 C788 1.499 . S
C786 H766 0.950 . S
C786 C785 1.414 . S
C786 C787 1.374 . S
C787 H767 0.950 . S
C787 C783 1.385 . S
C787 C786 1.374 . S
C788 C785 1.499 . S
C788 C789 1.373 . S
C788 C790 1.389 . S
C789 H768 0.950 . S
C789 C788 1.373 . S
C789 C805 1.377 1_545 S
C790 C788 1.389 . S
C790 C791 1.524 . S
C790 C804 1.377 1_545 S
C791 C790 1.524 . S
C791 C792 1.397 . S
C791 C796 1.363 . S
C792 H769 0.950 . S
C792 C791 1.397 . S
C792 C793 1.334 . S
C793 H770 0.950 . S
C793 C792 1.334 . S
C793 C794 1.287 . S
C794 C793 1.287 . S
C794 C795 1.524 . S
C794 H813 0.913 . S
C795 H771 0.950 . S
C795 C794 1.524 . S
C795 C796 1.415 . S
C796 H772 0.950 . S
C796 C791 1.363 . S
C796 C795 1.415 . S
C797 H773 0.951 . S
C797 C798 1.366 . S
C797 C799 1.388 . S
C798 C797 1.366 . S
C798 C802 1.385 . S
C799 H774 0.951 . S
C799 C797 1.388 . S
C799 C800 1.366 . S
C800 C799 1.366 . S
C800 C801 1.414 . S
C800 C803 1.499 . S
C801 H775 0.950 . S
C801 C800 1.414 . S
C801 C802 1.374 . S
C802 H776 0.950 . S
C802 C798 1.385 . S
C802 C801 1.374 . S
C803 C800 1.499 . S
C803 C804 1.373 . S
C803 C805 1.389 . S
C804 H777 0.950 . S
C804 C790 1.377 1_565 S
C804 C803 1.373 . S
C805 C789 1.377 1_565 S
C805 C803 1.389 . S
C805 C806 1.524 . S
C806 C805 1.524 . S
C806 C807 1.397 . S
C806 C811 1.363 . S
C807 H778 0.950 . S
C807 C806 1.397 . S
C807 C808 1.334 . S
C808 H779 0.950 . S
C808 C807 1.334 . S
C808 C809 1.287 . S
C809 C808 1.287 . S
C809 C810 1.524 . S
C809 H812 0.999 . S
C810 H780 0.950 . S
C810 C809 1.524 . S
C810 C811 1.415 . S
C811 H781 0.950 . S
C811 C806 1.363 . S
C811 C810 1.415 . S
H812 C809 0.999 . S
H813 C794 0.913 . S
H814 C832 0.951 . S
H815 C834 0.951 . S
H816 C836 0.950 1_556 S
H817 C837 0.950 . S
H818 C839 0.950 . S
H819 C842 0.950 . S
H820 C843 0.950 . S
H821 C845 0.950 . S
H822 C846 0.950 . S
H823 C847 0.951 . S
H824 C849 0.951 . S
H825 C851 0.950 1_554 S
H826 C852 0.950 . S
H827 C854 0.950 . S
H828 C857 0.950 . S
H829 C858 0.950 . S
H830 C860 0.950 . S
H831 C861 0.950 . S
C832 H814 0.951 . S
C832 C833 1.366 . S
C832 C834 1.388 . S
C833 C832 1.366 . S
C833 C837 1.385 . S
C834 H815 0.951 . S
C834 C832 1.388 . S
C834 C835 1.366 . S
C835 C834 1.366 . S
C835 C836 1.414 . S
C835 C838 1.499 . S
C836 H816 0.950 1_554 S
C836 C835 1.414 . S
C836 C837 1.374 . S
C837 H817 0.950 . S
C837 C833 1.385 . S
C837 C836 1.374 . S
C838 C835 1.499 . S
C838 C839 1.373 1_554 S
C838 C840 1.389 . S
C839 H818 0.950 . S
C839 C838 1.373 1_556 S
C839 C855 1.377 1_565 S
C840 C838 1.389 . S
C840 C841 1.524 . S
C840 C854 1.377 1_565 S
C841 C840 1.524 . S
C841 C842 1.397 1_455 S
C841 C846 1.363 1_565 S
C842 H819 0.950 . S
C842 C841 1.397 1_655 S
C842 C843 1.334 . S
C843 H820 0.950 . S
C843 C842 1.334 . S
C843 C844 1.287 . S
C844 C843 1.287 . S
C844 C845 1.524 1_565 S
C844 H863 0.913 . S
C845 H821 0.950 . S
C845 C844 1.524 1_545 S
C845 C846 1.415 1_655 S
C846 H822 0.950 . S
C846 C841 1.363 1_545 S
C846 C845 1.415 1_455 S
C847 H823 0.951 . S
C847 C848 1.366 . S
C847 C849 1.388 . S
C848 C847 1.366 . S
C848 C852 1.385 . S
C849 H824 0.951 . S
C849 C847 1.388 . S
C849 C850 1.366 . S
C850 C849 1.366 . S
C850 C851 1.414 . S
C850 C853 1.499 . S
C851 H825 0.950 1_556 S
C851 C850 1.414 . S
C851 C852 1.374 . S
C852 H826 0.950 . S
C852 C848 1.385 . S
C852 C851 1.374 . S
C853 C850 1.499 . S
C853 C854 1.373 1_556 S
C853 C855 1.389 . S
C854 H827 0.950 . S
C854 C840 1.377 1_545 S
C854 C853 1.373 1_554 S
C855 C839 1.377 1_545 S
C855 C853 1.389 . S
C855 C856 1.524 . S
C856 C855 1.524 . S
C856 C857 1.397 . S
C856 C861 1.363 1_545 S
C857 H828 0.950 . S
C857 C856 1.397 . S
C857 C858 1.334 . S
C858 H829 0.950 . S
C858 C857 1.334 . S
C858 C859 1.287 . S
C859 C858 1.287 . S
C859 C860 1.524 1_545 S
C859 H862 0.999 . S
C860 H830 0.950 . S
C860 C859 1.524 1_565 S
C860 C861 1.415 . S
C861 H831 0.950 . S
C861 C856 1.363 1_565 S
C861 C860 1.415 . S
H862 C859 0.999 . S
H863 C844 0.913 . S
H864 C882 0.951 . S
H865 C884 0.951 . S
H866 C886 0.950 . S
H867 C887 0.950 . S
H868 C889 0.950 . S
H869 C892 0.950 . S
H870 C893 0.950 . S
H871 C895 0.950 . S
H872 C896 0.950 . S
H873 C897 0.951 . S
H874 C899 0.951 . S
H875 C901 0.950 . S
H876 C902 0.950 . S
H877 C904 0.950 . S
H878 C907 0.950 . S
H879 C908 0.950 . S
H880 C910 0.950 . S
H881 C911 0.950 . S
C882 H864 0.951 . S
C882 C883 1.366 . S
C882 C884 1.388 . S
C883 C882 1.366 . S
C883 C887 1.385 . S
C884 H865 0.951 . S
C884 C882 1.388 . S
C884 C885 1.366 . S
C885 C884 1.366 . S
C885 C886 1.414 . S
C885 C888 1.499 . S
C886 H866 0.950 . S
C886 C885 1.414 . S
C886 C887 1.374 . S
C887 H867 0.950 . S
C887 C883 1.385 . S
C887 C886 1.374 . S
C888 C885 1.499 . S
C888 C889 1.373 . S
C888 C890 1.389 . S
C889 H868 0.950 . S
C889 C888 1.373 . S
C889 C905 1.377 . S
C890 C888 1.389 . S
C890 C891 1.524 . S
C890 C904 1.377 . S
C891 C890 1.524 . S
C891 C892 1.397 . S
C891 C896 1.363 . S
C892 H869 0.950 . S
C892 C891 1.397 . S
C892 C893 1.334 . S
C893 H870 0.950 . S
C893 C892 1.334 . S
C893 C894 1.287 . S
C894 C893 1.287 . S
C894 C895 1.524 . S
C894 H913 0.913 . S
C895 H871 0.950 . S
C895 C894 1.524 . S
C895 C896 1.415 . S
C896 H872 0.950 . S
C896 C891 1.363 . S
C896 C895 1.415 . S
C897 H873 0.951 . S
C897 C898 1.366 . S
C897 C899 1.388 . S
C898 C897 1.366 . S
C898 C902 1.385 . S
C899 H874 0.951 . S
C899 C897 1.388 . S
C899 C900 1.366 . S
C900 C899 1.366 . S
C900 C901 1.414 . S
C900 C903 1.499 . S
C901 H875 0.950 . S
C901 C900 1.414 . S
C901 C902 1.374 . S
C902 H876 0.950 . S
C902 C898 1.385 . S
C902 C901 1.374 . S
C903 C900 1.499 . S
C903 C904 1.373 . S
C903 C905 1.389 . S
C904 H877 0.950 . S
C904 C890 1.377 . S
C904 C903 1.373 . S
C905 C889 1.377 . S
C905 C903 1.389 . S
C905 C906 1.524 . S
C906 C905 1.524 . S
C906 C907 1.397 . S
C906 C911 1.363 . S
C907 H878 0.950 . S
C907 C906 1.397 . S
C907 C908 1.334 . S
C908 H879 0.950 . S
C908 C907 1.334 . S
C908 C909 1.287 . S
C909 C908 1.287 . S
C909 C910 1.524 . S
C909 H912 0.999 . S
C910 H880 0.950 . S
C910 C909 1.524 . S
C910 C911 1.415 . S
C911 H881 0.950 . S
C911 C906 1.363 . S
C911 C910 1.415 . S
H912 C909 0.999 . S
H913 C894 0.913 . S
H914 C932 0.951 . S
H915 C934 0.951 . S
H916 C936 0.950 . S
H917 C937 0.950 . S
H918 C939 0.950 . S
H919 C942 0.950 . S
H920 C943 0.950 . S
H921 C945 0.950 . S
H922 C946 0.950 . S
H923 C947 0.951 . S
H924 C949 0.951 . S
H925 C951 0.950 . S
H926 C952 0.950 . S
H927 C954 0.950 . S
H928 C957 0.950 . S
H929 C958 0.950 . S
H930 C960 0.950 . S
H931 C961 0.950 . S
C932 H914 0.951 . S
C932 C933 1.366 . S
C932 C934 1.388 . S
C933 C932 1.366 . S
C933 C937 1.385 . S
C934 H915 0.951 . S
C934 C932 1.388 . S
C934 C935 1.366 . S
C935 C934 1.366 . S
C935 C936 1.414 . S
C935 C938 1.508 . S
C936 H916 0.950 . S
C936 C935 1.414 . S
C936 C937 1.374 . S
C937 H917 0.950 . S
C937 C933 1.385 . S
C937 C936 1.374 . S
C938 C935 1.508 . S
C938 C939 1.384 . S
C938 C940 1.370 1_556 S
C939 H918 0.950 . S
C939 C938 1.384 . S
C939 C955 1.377 . S
C940 C938 1.370 1_554 S
C940 C941 1.524 . S
C940 C954 1.377 . S
C941 C940 1.524 . S
C941 C942 1.397 . S
C941 C946 1.363 . S
C942 H919 0.950 . S
C942 C941 1.397 . S
C942 C943 1.334 . S
C943 H920 0.950 . S
C943 C942 1.334 . S
C943 C944 1.287 . S
C944 C943 1.287 . S
C944 C945 1.524 . S
C944 H963 0.913 . S
C945 H921 0.950 . S
C945 C944 1.524 . S
C945 C946 1.415 . S
C946 H922 0.950 . S
C946 C941 1.363 . S
C946 C945 1.415 . S
C947 H923 0.951 . S
C947 C948 1.366 . S
C947 C949 1.388 . S
C948 C947 1.366 . S
C948 C952 1.385 . S
C949 H924 0.951 . S
C949 C947 1.388 . S
C949 C950 1.366 . S
C950 C949 1.366 . S
C950 C951 1.414 . S
C950 C953 1.499 . S
C951 H925 0.950 . S
C951 C950 1.414 . S
C951 C952 1.374 . S
C952 H926 0.950 . S
C952 C948 1.385 . S
C952 C951 1.374 . S
C953 C950 1.499 . S
C953 C954 1.373 . S
C953 C955 1.389 1_554 S
C954 H927 0.950 . S
C954 C940 1.377 . S
C954 C953 1.373 . S
C955 C939 1.377 . S
C955 C953 1.389 1_556 S
C955 C956 1.524 . S
C956 C955 1.524 . S
C956 C957 1.397 . S
C956 C961 1.363 . S
C957 H928 0.950 . S
C957 C956 1.397 . S
C957 C958 1.334 . S
C958 H929 0.950 . S
C958 C957 1.334 . S
C958 C959 1.287 . S
C959 C958 1.287 . S
C959 C960 1.524 . S
C959 H962 0.999 . S
C960 H930 0.950 . S
C960 C959 1.524 . S
C960 C961 1.415 . S
C961 H931 0.950 . S
C961 C956 1.363 . S
C961 C960 1.415 . S
H962 C959 0.999 . S
H963 C944 0.913 . S
H964 C982 0.951 . S
H965 C984 0.951 . S
H966 C986 0.950 . S
H967 C987 0.950 . S
H968 C989 0.950 . S
H969 C992 0.950 . S
H970 C993 0.950 . S
H971 C995 0.950 . S
H972 C996 0.950 . S
H973 C997 0.951 . S
H974 C999 0.951 . S
H975 C1001 0.950 . S
H976 C1002 0.950 . S
H977 C1004 0.950 . S
H978 C1007 0.950 . S
H979 C1008 0.950 . S
H980 C1010 0.950 . S
H981 C1011 0.950 . S
C982 H964 0.951 . S
C982 C983 1.366 . S
C982 C984 1.388 . S
C983 C982 1.366 . S
C983 C987 1.385 . S
C984 H965 0.951 . S
C984 C982 1.388 . S
C984 C985 1.366 . S
C985 C984 1.366 . S
C985 C986 1.414 . S
C985 C988 1.499 . S
C986 H966 0.950 . S
C986 C985 1.414 . S
C986 C987 1.374 . S
C987 H967 0.950 . S
C987 C983 1.385 . S
C987 C986 1.374 . S
C988 C985 1.499 . S
C988 C989 1.373 . S
C988 C990 1.389 . S
C989 H968 0.950 . S
C989 C988 1.373 . S
C989 C1005 1.377 . S
C990 C988 1.389 . S
C990 C991 1.524 . S
C990 C1004 1.377 . S
C991 C990 1.524 . S
C991 C992 1.397 . S
C991 C996 1.363 . S
C992 H969 0.950 . S
C992 C991 1.397 . S
C992 C993 1.334 . S
C993 H970 0.950 . S
C993 C992 1.334 . S
C993 C994 1.287 . S
C994 C993 1.287 . S
C994 C995 1.524 . S
C994 H1013 0.913 . S
C995 H971 0.950 . S
C995 C994 1.524 . S
C995 C996 1.415 . S
C996 H972 0.950 . S
C996 C991 1.363 . S
C996 C995 1.415 . S
C997 H973 0.951 . S
C997 C998 1.366 . S
C997 C999 1.388 . S
C998 C997 1.366 . S
C998 C1002 1.385 . S
C999 H974 0.951 . S
C999 C997 1.388 . S
C999 C1000 1.366 . S
C1000 C999 1.366 . S
C1000 C1001 1.414 . S
C1000 C1003 1.499 . S
C1001 H975 0.950 . S
C1001 C1000 1.414 . S
C1001 C1002 1.374 . S
C1002 H976 0.950 . S
C1002 C998 1.385 . S
C1002 C1001 1.374 . S
C1003 C1000 1.499 . S
C1003 C1004 1.373 . S
C1003 C1005 1.389 . S
C1004 H977 0.950 . S
C1004 C990 1.377 . S
C1004 C1003 1.373 . S
C1005 C989 1.377 . S
C1005 C1003 1.389 . S
C1005 C1006 1.524 . S
C1006 C1005 1.524 . S
C1006 C1007 1.397 . S
C1006 C1011 1.363 . S
C1007 H978 0.950 . S
C1007 C1006 1.397 . S
C1007 C1008 1.334 . S
C1008 H979 0.950 . S
C1008 C1007 1.334 . S
C1008 C1009 1.287 . S
C1009 C1008 1.287 . S
C1009 C1010 1.524 . S
C1009 H1012 0.999 . S
C1010 H980 0.950 . S
C1010 C1009 1.524 . S
C1010 C1011 1.415 . S
C1011 H981 0.950 . S
C1011 C1006 1.363 . S
C1011 C1010 1.415 . S
H1012 C1009 0.999 . S
H1013 C994 0.913 . S
H1014 C1032 0.951 . S
H1015 C1034 0.951 . S
H1016 C1036 0.950 . S
H1017 C1037 0.950 . S
H1018 C1039 0.950 . S
H1019 C1042 0.950 . S
H1020 C1043 0.950 . S
H1021 C1045 0.950 . S
H1022 C1046 0.950 1_554 S
H1023 C1047 0.951 . S
H1024 C1049 0.951 1_556 S
H1025 C1051 0.950 . S
H1026 C1052 0.950 . S
H1027 C1054 0.950 1_554 S
H1028 C1057 0.950 . S
H1029 C1058 0.950 . S
H1030 C1060 0.950 . S
H1031 C1061 0.950 . S
C1032 H1014 0.951 . S
C1032 C1033 1.366 . S
C1032 C1034 1.388 . S
C1033 C1032 1.366 . S
C1033 C1037 1.385 . S
C1034 H1015 0.951 . S
C1034 C1032 1.388 . S
C1034 C1035 1.366 . S
C1035 C1034 1.366 . S
C1035 C1036 1.414 . S
C1035 C1038 1.499 . S
C1036 H1016 0.950 . S
C1036 C1035 1.414 . S
C1036 C1037 1.374 . S
C1037 H1017 0.950 . S
C1037 C1033 1.385 . S
C1037 C1036 1.374 . S
C1038 C1035 1.499 . S
C1038 C1039 1.373 . S
C1038 C1040 1.389 . S
C1039 H1018 0.950 . S
C1039 C1038 1.373 . S
C1039 C1055 1.377 . S
C1040 C1038 1.389 . S
C1040 C1041 1.524 . S
C1040 C1054 1.377 . S
C1041 C1040 1.524 . S
C1041 C1042 1.397 . S
C1041 C1046 1.363 . S
C1042 H1019 0.950 . S
C1042 C1041 1.397 . S
C1042 C1043 1.334 . S
C1043 H1020 0.950 . S
C1043 C1042 1.334 . S
C1043 C1044 1.287 . S
C1044 C1043 1.287 . S
C1044 C1045 1.524 . S
C1044 H1063 0.913 . S
C1045 H1021 0.950 . S
C1045 C1044 1.524 . S
C1045 C1046 1.415 . S
C1046 H1022 0.950 1_556 S
C1046 C1041 1.363 . S
C1046 C1045 1.415 . S
C1047 H1023 0.951 . S
C1047 C1048 1.366 . S
C1047 C1049 1.388 . S
C1048 C1047 1.366 . S
C1048 C1052 1.385 . S
C1049 H1024 0.951 1_554 S
C1049 C1047 1.388 . S
C1049 C1050 1.366 . S
C1050 C1049 1.366 . S
C1050 C1051 1.414 . S
C1050 C1053 1.499 . S
C1051 H1025 0.950 . S
C1051 C1050 1.414 . S
C1051 C1052 1.374 . S
C1052 H1026 0.950 . S
C1052 C1048 1.385 . S
C1052 C1051 1.374 . S
C1053 C1050 1.499 . S
C1053 C1054 1.373 1_554 S
C1053 C1055 1.389 1_554 S
C1054 H1027 0.950 1_556 S
C1054 C1040 1.377 . S
C1054 C1053 1.373 1_556 S
C1055 C1039 1.377 . S
C1055 C1053 1.389 1_556 S
C1055 C1056 1.524 1_556 S
C1056 C1055 1.524 1_554 S
C1056 C1057 1.397 . S
C1056 C1061 1.363 1_554 S
C1057 H1028 0.950 . S
C1057 C1056 1.397 . S
C1057 C1058 1.334 . S
C1058 H1029 0.950 . S
C1058 C1057 1.334 . S
C1058 C1059 1.287 . S
C1059 C1058 1.287 . S
C1059 C1060 1.524 1_554 S
C1059 H1062 0.999 . S
C1060 H1030 0.950 . S
C1060 C1059 1.524 1_556 S
C1060 C1061 1.415 . S
C1061 H1031 0.950 . S
C1061 C1056 1.363 1_556 S
C1061 C1060 1.415 . S
H1062 C1059 0.999 . S
H1063 C1044 0.913 . S
H1064 C1082 0.951 . S
H1065 C1084 0.951 . S
H1066 C1086 0.950 . S
H1067 C1087 0.950 . S
H1068 C1089 0.950 . S
H1069 C1092 0.950 . S
H1070 C1093 0.950 . S
H1071 C1095 0.950 . S
H1072 C1096 0.950 . S
H1073 C1097 0.951 . S
H1074 C1099 0.951 . S
H1075 C1101 0.950 . S
H1076 C1102 0.950 . S
H1077 C1104 0.950 . S
H1078 C1107 0.950 . S
H1079 C1108 0.950 . S
H1080 C1110 0.950 . S
H1081 C1111 0.950 . S
C1082 H1064 0.951 . S
C1082 C1083 1.366 1_655 S
C1082 C1084 1.388 . S
C1083 C1082 1.366 1_455 S
C1083 C1087 1.385 . S
C1084 H1065 0.951 . S
C1084 C1082 1.388 . S
C1084 C1085 1.366 . S
C1085 C1084 1.366 . S
C1085 C1086 1.414 1_655 S
C1085 C1088 1.499 . S
C1086 H1066 0.950 . S
C1086 C1085 1.414 1_455 S
C1086 C1087 1.374 . S
C1087 H1067 0.950 . S
C1087 C1083 1.385 . S
C1087 C1086 1.374 . S
C1088 C1085 1.499 . S
C1088 C1089 1.373 . S
C1088 C1090 1.389 . S
C1089 H1068 0.950 . S
C1089 C1088 1.373 . S
C1089 C1105 1.377 . S
C1090 C1088 1.389 . S
C1090 C1091 1.524 . S
C1090 C1104 1.377 . S
C1091 C1090 1.524 . S
C1091 C1092 1.397 . S
C1091 C1096 1.363 . S
C1092 H1069 0.950 . S
C1092 C1091 1.397 . S
C1092 C1093 1.334 . S
C1093 H1070 0.950 . S
C1093 C1092 1.334 . S
C1093 C1094 1.287 . S
C1094 C1093 1.287 . S
C1094 C1095 1.524 . S
C1094 H1113 0.913 . S
C1095 H1071 0.950 . S
C1095 C1094 1.524 . S
C1095 C1096 1.415 . S
C1096 H1072 0.950 . S
C1096 C1091 1.363 . S
C1096 C1095 1.415 . S
C1097 H1073 0.951 . S
C1097 C1098 1.366 . S
C1097 C1099 1.388 . S
C1098 C1097 1.366 . S
C1098 C1102 1.385 . S
C1099 H1074 0.951 . S
C1099 C1097 1.388 . S
C1099 C1100 1.366 . S
C1100 C1099 1.366 . S
C1100 C1101 1.414 . S
C1100 C1103 1.499 . S
C1101 H1075 0.950 . S
C1101 C1100 1.414 . S
C1101 C1102 1.374 . S
C1102 H1076 0.950 . S
C1102 C1098 1.385 . S
C1102 C1101 1.374 . S
C1103 C1100 1.499 . S
C1103 C1104 1.373 . S
C1103 C1105 1.389 . S
C1104 H1077 0.950 . S
C1104 C1090 1.377 . S
C1104 C1103 1.373 . S
C1105 C1089 1.377 . S
C1105 C1103 1.389 . S
C1105 C1106 1.524 . S
C1106 C1105 1.524 . S
C1106 C1107 1.397 . S
C1106 C1111 1.363 . S
C1107 H1078 0.950 . S
C1107 C1106 1.397 . S
C1107 C1108 1.334 . S
C1108 H1079 0.950 . S
C1108 C1107 1.334 . S
C1108 C1109 1.287 . S
C1109 C1108 1.287 . S
C1109 C1110 1.524 . S
C1109 H1112 0.999 . S
C1110 H1080 0.950 . S
C1110 C1109 1.524 . S
C1110 C1111 1.415 . S
C1111 H1081 0.950 . S
C1111 C1106 1.363 . S
C1111 C1110 1.415 . S
H1112 C1109 0.999 . S
H1113 C1094 0.913 . S
H1114 C1132 0.951 . S
H1115 C1134 0.951 . S
H1116 C1136 0.950 . S
H1117 C1137 0.950 . S
H1118 C1139 0.950 . S
H1119 C1142 0.950 . S
H1120 C1143 0.950 . S
H1121 C1145 0.950 . S
H1122 C1146 0.950 . S
H1123 C1147 0.951 . S
H1124 C1149 0.951 1_554 S
H1125 C1151 0.950 . S
H1126 C1152 0.950 . S
H1127 C1154 0.950 . S
H1128 C1157 0.950 . S
H1129 C1158 0.950 . S
H1130 C1160 0.950 . S
H1131 C1161 0.950 . S
C1132 H1114 0.951 . S
C1132 C1133 1.366 . S
C1132 C1134 1.388 . S
C1133 C1132 1.366 . S
C1133 C1137 1.385 . S
C1134 H1115 0.951 . S
C1134 C1132 1.388 . S
C1134 C1135 1.366 . S
C1135 C1134 1.366 . S
C1135 C1136 1.414 . S
C1135 C1138 1.499 . S
C1136 H1116 0.950 . S
C1136 C1135 1.414 . S
C1136 C1137 1.374 . S
C1137 H1117 0.950 . S
C1137 C1133 1.385 . S
C1137 C1136 1.374 . S
C1138 C1135 1.499 . S
C1138 C1139 1.373 . S
C1138 C1140 1.389 1_554 S
C1139 H1118 0.950 . S
C1139 C1138 1.373 . S
C1139 C1155 1.377 . S
C1140 C1138 1.389 1_556 S
C1140 C1141 1.524 . S
C1140 C1154 1.377 . S
C1141 C1140 1.524 . S
C1141 C1142 1.397 . S
C1141 C1146 1.363 . S
C1142 H1119 0.950 . S
C1142 C1141 1.397 . S
C1142 C1143 1.334 . S
C1143 H1120 0.950 . S
C1143 C1142 1.334 . S
C1143 C1144 1.287 . S
C1144 C1143 1.287 . S
C1144 C1145 1.524 . S
C1144 H1163 0.913 . S
C1145 H1121 0.950 . S
C1145 C1144 1.524 . S
C1145 C1146 1.415 . S
C1146 H1122 0.950 . S
C1146 C1141 1.363 . S
C1146 C1145 1.415 . S
C1147 H1123 0.951 . S
C1147 C1148 1.366 . S
C1147 C1149 1.388 . S
C1148 C1147 1.366 . S
C1148 C1152 1.385 . S
C1149 H1124 0.951 1_556 S
C1149 C1147 1.388 . S
C1149 C1150 1.366 . S
C1150 C1149 1.366 . S
C1150 C1151 1.414 . S
C1150 C1153 1.499 . S
C1151 H1125 0.950 . S
C1151 C1150 1.414 . S
C1151 C1152 1.374 . S
C1152 H1126 0.950 . S
C1152 C1148 1.385 . S
C1152 C1151 1.374 . S
C1153 C1150 1.499 . S
C1153 C1154 1.373 . S
C1153 C1155 1.389 1_556 S
C1154 H1127 0.950 . S
C1154 C1140 1.377 . S
C1154 C1153 1.373 . S
C1155 C1139 1.377 . S
C1155 C1153 1.389 1_554 S
C1155 C1156 1.524 . S
C1156 C1155 1.524 . S
C1156 C1157 1.397 . S
C1156 C1161 1.363 . S
C1157 H1128 0.950 . S
C1157 C1156 1.397 . S
C1157 C1158 1.334 . S
C1158 H1129 0.950 . S
C1158 C1157 1.334 . S
C1158 C1159 1.287 . S
C1159 C1158 1.287 . S
C1159 C1160 1.524 . S
C1159 H1162 0.999 . S
C1160 H1130 0.950 . S
C1160 C1159 1.524 . S
C1160 C1161 1.415 . S
C1161 H1131 0.950 . S
C1161 C1156 1.363 . S
C1161 C1160 1.415 . S
H1162 C1159 0.999 . S
H1163 C1144 0.913 . S
H1164 C1182 0.951 . S
H1165 C1184 0.951 . S
H1166 C1186 0.950 . S
H1167 C1187 0.950 . S
H1168 C1189 0.950 . S
H1169 C1192 0.950 . S
H1170 C1193 0.952 . S
H1171 C1195 0.950 . S
H1172 C1196 0.950 . S
H1173 C1197 0.951 . S
H1174 C1199 0.951 . S
H1175 C1201 0.950 . S
H1176 C1202 0.950 . S
H1177 C1204 0.950 . S
H1178 C1207 0.950 . S
H1179 C1208 0.950 . S
H1180 C1210 0.950 . S
H1181 C1211 0.950 . S
C1182 H1164 0.951 . S
C1182 C1183 1.366 . S
C1182 C1184 1.388 . S
C1183 C1182 1.366 . S
C1183 C1187 1.385 1_455 S
C1184 H1165 0.951 . S
C1184 C1182 1.388 . S
C1184 C1185 1.366 1_455 S
C1185 C1184 1.366 1_655 S
C1185 C1186 1.414 . S
C1185 C1188 1.499 . S
C1186 H1166 0.950 . S
C1186 C1185 1.414 . S
C1186 C1187 1.374 . S
C1187 H1167 0.950 . S
C1187 C1183 1.385 1_655 S
C1187 C1186 1.374 . S
C1188 C1185 1.499 . S
C1188 C1189 1.373 . S
C1188 C1190 1.389 . S
C1189 H1168 0.950 . S
C1189 C1188 1.373 . S
C1189 C1205 1.377 . S
C1190 C1188 1.389 . S
C1190 C1191 1.524 . S
C1190 C1204 1.377 . S
C1191 C1190 1.524 . S
C1191 C1192 1.397 . S
C1191 C1196 1.363 . S
C1192 H1169 0.950 . S
C1192 C1191 1.397 . S
C1192 C1193 1.328 1_655 S
C1193 H1170 0.952 . S
C1193 C1192 1.328 1_455 S
C1193 C1194 1.291 . S
C1194 C1193 1.291 . S
C1194 C1195 1.524 . S
C1194 H1213 0.913 . S
C1195 H1171 0.950 . S
C1195 C1194 1.524 . S
C1195 C1196 1.415 1_455 S
C1196 H1172 0.950 . S
C1196 C1191 1.363 . S
C1196 C1195 1.415 1_655 S
C1197 H1173 0.951 . S
C1197 C1198 1.366 . S
C1197 C1199 1.388 . S
C1198 C1197 1.366 . S
C1198 C1202 1.385 . S
C1199 H1174 0.951 . S
C1199 C1197 1.388 . S
C1199 C1200 1.366 . S
C1200 C1199 1.366 . S
C1200 C1201 1.414 . S
C1200 C1203 1.499 . S
C1201 H1175 0.950 . S
C1201 C1200 1.414 . S
C1201 C1202 1.374 . S
C1202 H1176 0.950 . S
C1202 C1198 1.385 . S
C1202 C1201 1.374 . S
C1203 C1200 1.499 . S
C1203 C1204 1.373 . S
C1203 C1205 1.389 . S
C1204 H1177 0.950 . S
C1204 C1190 1.377 . S
C1204 C1203 1.373 . S
C1205 C1189 1.377 . S
C1205 C1203 1.389 . S
C1205 C1206 1.524 . S
C1206 C1205 1.524 . S
C1206 C1207 1.397 . S
C1206 C1211 1.363 . S
C1207 H1178 0.950 . S
C1207 C1206 1.397 . S
C1207 C1208 1.334 . S
C1208 H1179 0.950 . S
C1208 C1207 1.334 . S
C1208 C1209 1.287 . S
C1209 C1208 1.287 . S
C1209 C1210 1.524 . S
C1209 H1212 0.999 . S
C1210 H1180 0.950 . S
C1210 C1209 1.524 . S
C1210 C1211 1.415 . S
C1211 H1181 0.950 . S
C1211 C1206 1.363 . S
C1211 C1210 1.415 . S
H1212 C1209 0.999 . S
H1213 C1194 0.913 . S
H1214 C1232 0.951 . S
H1215 C1234 0.951 . S
H1216 C1236 0.950 . S
H1217 C1237 0.950 . S
H1218 C1239 0.950 . S
H1219 C1242 0.950 . S
H1220 C1243 0.950 . S
H1221 C1245 0.950 . S
H1222 C1246 0.950 . S
H1223 C1247 0.951 . S
H1224 C1249 0.932 1_556 S
H1225 C1251 0.950 . S
H1226 C1252 0.950 . S
H1227 C1254 0.950 . S
H1228 C1257 0.950 . S
H1229 C1258 0.950 . S
H1230 C1260 0.950 . S
H1231 C1261 0.950 . S
C1232 H1214 0.951 . S
C1232 C1233 1.366 . S
C1232 C1234 1.388 . S
C1233 C1232 1.366 . S
C1233 C1237 1.385 . S
C1234 H1215 0.951 . S
C1234 C1232 1.388 . S
C1234 C1235 1.366 . S
C1235 C1234 1.366 . S
C1235 C1236 1.414 . S
C1235 C1238 1.499 . S
C1236 H1216 0.950 . S
C1236 C1235 1.414 . S
C1236 C1237 1.374 . S
C1237 H1217 0.950 . S
C1237 C1233 1.385 . S
C1237 C1236 1.374 . S
C1238 C1235 1.499 . S
C1238 C1239 1.373 . S
C1238 C1240 1.389 1_556 S
C1239 H1218 0.950 . S
C1239 C1238 1.373 . S
C1239 C1255 1.377 . S
C1240 C1238 1.389 1_554 S
C1240 C1241 1.524 . S
C1240 C1254 1.377 . S
C1241 C1240 1.524 . S
C1241 C1242 1.397 . S
C1241 C1246 1.363 . S
C1242 H1219 0.950 . S
C1242 C1241 1.397 . S
C1242 C1243 1.334 . S
C1243 H1220 0.950 . S
C1243 C1242 1.334 . S
C1243 C1244 1.287 . S
C1244 C1243 1.287 . S
C1244 C1245 1.524 . S
C1244 H1263 0.913 . S
C1245 H1221 0.950 . S
C1245 C1244 1.524 . S
C1245 C1246 1.415 . S
C1246 H1222 0.950 . S
C1246 C1241 1.363 . S
C1246 C1245 1.415 . S
C1247 H1223 0.951 . S
C1247 C1248 1.366 . S
C1247 C1249 1.388 . S
C1248 C1247 1.366 . S
C1248 C1252 1.385 . S
C1249 H1224 0.932 1_554 S
C1249 C1247 1.388 . S
C1249 C1250 1.366 . S
C1250 C1249 1.366 . S
C1250 C1251 1.414 . S
C1250 C1253 1.513 . S
C1251 H1225 0.950 . S
C1251 C1250 1.414 . S
C1251 C1252 1.374 . S
C1252 H1226 0.950 . S
C1252 C1248 1.385 . S
C1252 C1251 1.374 . S
C1253 C1250 1.513 . S
C1253 C1254 1.392 . S
C1253 C1255 1.357 1_554 S
C1254 H1227 0.950 . S
C1254 C1240 1.377 . S
C1254 C1253 1.392 . S
C1255 C1239 1.377 . S
C1255 C1253 1.357 1_556 S
C1255 C1256 1.524 . S
C1256 C1255 1.524 . S
C1256 C1257 1.397 . S
C1256 C1261 1.363 . S
C1257 H1228 0.950 . S
C1257 C1256 1.397 . S
C1257 C1258 1.334 . S
C1258 H1229 0.950 . S
C1258 C1257 1.334 . S
C1258 C1259 1.287 . S
C1259 C1258 1.287 . S
C1259 C1260 1.524 . S
C1259 H1262 0.999 . S
C1260 H1230 0.950 . S
C1260 C1259 1.524 . S
C1260 C1261 1.415 . S
C1261 H1231 0.950 . S
C1261 C1256 1.363 . S
C1261 C1260 1.415 . S
H1262 C1259 0.999 . S
H1263 C1244 0.913 . S
C283 C18 1.234 . S
C298 C117 1.234 . S
C333 C51 1.233 . S
C348 C84 1.234 . S
C383 N68 1.616 1_655 S
C398 N35 1.616 . S
C433 N101 1.617 . S
C448 N2 1.617 1_655 S
C483 C150 1.233 . S
C498 C249 1.234 . S
C533 C216 1.233 . S
C548 C183 1.234 . S
C583 N167 1.616 . S
C598 N200 1.617 . S
C633 N233 1.616 . S
C648 N134 1.616 . S
C683 C87 1.498 . S
C698 C21 1.498 . S
C733 C54 1.497 . S
C748 C120 1.497 . S
C783 C219 1.498 . S
C798 C153 1.498 . S
C833 C252 1.497 . S
C848 C186 1.497 . S
C883 N13 1.429 . S
C898 C205 1.459 . S
C933 N46 1.429 . S
C948 C238 1.459 . S
C983 N79 1.429 . S
C998 C139 1.459 . S
C1033 C172 1.459 . S
C1048 N112 1.430 . S
C1083 C73 1.459 . S
C1098 N145 1.429 . S
C1133 C106 1.459 . S
C1148 N178 1.430 . S
C1183 C7 1.459 . S
C1198 N211 1.429 . S
C1233 C40 1.459 . S
C1248 N244 1.430 . S
