# Generated by pormake.
# Topology qtz-x, (6)-cn, num edge types: 1
# Building blocks:
#     Node 0, Type 0, BuildingBlock: KUMJIN_clean_sbu_0, # of connection points: 6
#     Node 1, Type 0, BuildingBlock: KUMJIN_clean_sbu_0, # of connection points: 6
#     Node 2, Type 0, BuildingBlock: KUMJIN_clean_sbu_0, # of connection points: 6
#     Edge 3, Type (0, 0), BuildingBlock: ZUJKAS_clean_linker_0, # of connection points: 2
#     Edge 4, Type (0, 0), BuildingBlock: ZUJKAS_clean_linker_0, # of connection points: 2
#     Edge 5, Type (0, 0), BuildingBlock: ZUJKAS_clean_linker_0, # of connection points: 2
#     Edge 6, Type (0, 0), BuildingBlock: ZUJKAS_clean_linker_0, # of connection points: 2
#     Edge 7, Type (0, 0), BuildingBlock: ZUJKAS_clean_linker_0, # of connection points: 2
#     Edge 8, Type (0, 0), BuildingBlock: ZUJKAS_clean_linker_0, # of connection points: 2
#     Edge 9, Type (0, 0), BuildingBlock: ZUJKAS_clean_linker_0, # of connection points: 2
#     Edge 10, Type (0, 0), BuildingBlock: ZUJKAS_clean_linker_0, # of connection points: 2
#     Edge 11, Type (0, 0), BuildingBlock: ZUJKAS_clean_linker_0, # of connection points: 2
# Relax obj value: 0.168
# Max RMSD: 0.276
# Mean RMSD: 0.276
data_MOF--net-qtz-x--node1-KUMJIN_clean_sbu_0--edge1-ZUJKAS_clean_linker_0
_symmetry_space_group_name_H-M    P1
_symmetry_Int_Tables_number       1
_symmetry_cell_setting            triclinic
loop_
_symmetry_equiv_pos_as_xyz
'x, y, z'
_cell_length_a     19.581645
_cell_length_b     19.524845
_cell_length_c     62.26994
_cell_angle_alpha  89.812154
_cell_angle_beta   90.062034
_cell_angle_gamma 119.99088
loop_
_atom_site_label
_atom_site_type_symbol
_atom_site_fract_x
_atom_site_fract_y
_atom_site_fract_z
_atom_type_partial_charge
Eu0 Eu 0.24396 0.50278 0.19182 0.0
C1 C 0.89697 0.4409 0.18481 0.0
C2 C 0.81973 0.33192 0.20906 0.0
C3 C 0.77971 0.42915 0.20176 0.0
C4 C 0.88552 0.37377 0.19546 0.0
C5 C 0.84335 0.46854 0.1875 0.0
C6 C 0.76792 0.36094 0.21253 0.0
C7 C 0.91579 0.56796 0.16047 0.0
N8 N 0.95857 0.4771 0.17103 0.0
C9 C 0.96713 0.53808 0.15831 0.0
C10 C 0.85415 0.53365 0.17533 0.0
Eu11 Eu 0.04414 0.42464 0.16854 0.0
N12 N 0.93632 0.34701 0.19163 0.0
C13 C 0.92168 0.27586 0.19974 0.0
C14 C 0.80666 0.26088 0.21825 0.0
C15 C 0.85746 0.23236 0.21339 0.0
H16 H 0.01488 0.56508 0.14687 0.0
H17 H 0.8472 0.17685 0.22014 0.0
H18 H 0.71754 0.33004 0.2231 0.0
H19 H 0.9239 0.61748 0.15073 0.0
H20 H 0.96043 0.25315 0.19616 0.0
H21 H 0.43662 0.74393 0.1378 0.0
H22 H 0.75652 0.22669 0.22867 0.0
H23 H 0.27594 0.36572 0.2147 0.0
H24 H 0.3269 0.67204 0.16321 0.0
H25 H 0.36575 0.31199 0.21075 0.0
H26 H 0.73824 0.44985 0.20418 0.0
H27 H 0.52436 0.691 0.12872 0.0
H28 H 0.56345 0.58801 0.13495 0.0
H29 H 0.81429 0.55672 0.17693 0.0
H30 H 0.54446 0.47065 0.15488 0.0
N31 N 0.35018 0.57774 0.168 0.0
C32 C 0.3646 0.64822 0.15944 0.0
C33 C 0.47595 0.65895 0.13983 0.0
C34 C 0.46363 0.58906 0.14962 0.0
C35 C 0.42679 0.68918 0.14498 0.0
C36 C 0.3997 0.5496 0.16394 0.0
H37 H 0.47171 0.36811 0.18342 0.0
N38 N 0.32928 0.4499 0.18951 0.0
C39 C 0.37278 0.36009 0.20055 0.0
C40 C 0.38901 0.48365 0.17508 0.0
C41 C 0.3221 0.39072 0.20277 0.0
C42 C 0.43235 0.39176 0.18506 0.0
C43 C 0.44187 0.45513 0.17231 0.0
O44 O 0.27392 0.51148 0.22588 0.0
O45 O 0.11544 0.45012 0.19835 0.0
O46 O 0.07335 0.53472 0.18711 0.0
O47 O 0.21085 0.59835 0.18625 0.0
O48 O 0.1744 0.40798 0.21672 0.0
O49 O 0.32044 0.61784 0.20662 0.0
O50 O 0.01326 0.41921 0.13464 0.0
O51 O 0.17238 0.47663 0.16204 0.0
O52 O 0.21445 0.39137 0.17392 0.0
O53 O 0.07679 0.32854 0.17381 0.0
O54 O 0.11434 0.51959 0.14371 0.0
O55 O 0.97062 0.31075 0.15292 0.0
C56 C 0.10727 0.40348 0.21347 0.0
C57 C 0.39748 0.61694 0.2359 0.0
C58 C 0.47837 0.6647 0.26835 0.0
C59 C 0.40639 0.63985 0.25756 0.0
C60 C 0.54109 0.66588 0.25696 0.0
C61 C 0.4609 0.61913 0.22487 0.0
C62 C 0.53231 0.6435 0.23539 0.0
C63 C 0.1437 0.59886 0.18852 0.0
C64 C 0.32068 0.58774 0.22534 0.0
C65 C 0.50363 0.49209 0.15738 0.0
C66 C 0.51444 0.55891 0.14603 0.0
C67 C 0.18102 0.52293 0.14679 0.0
C68 C 0.89067 0.31228 0.12429 0.0
C69 C 0.88741 0.32004 0.10191 0.0
C70 C 0.81474 0.29329 0.0914 0.0
C71 C 0.74509 0.25791 0.1037 0.0
C72 C 0.82057 0.27756 0.13627 0.0
C73 C 0.7482 0.25026 0.12596 0.0
C74 C 0.14395 0.32768 0.17206 0.0
C75 C 0.96806 0.34266 0.13469 0.0
H76 H 0.35731 0.63879 0.2659 0.0
H77 H 0.59679 0.68313 0.26477 0.0
H78 H 0.45509 0.60161 0.20821 0.0
H79 H 0.58092 0.64455 0.22684 0.0
H80 H 0.94169 0.34679 0.0927 0.0
H81 H 0.68828 0.23762 0.09619 0.0
H82 H 0.82169 0.27178 0.15356 0.0
H83 H 0.6943 0.22363 0.13528 0.0
Eu84 Eu 0.62387 0.92163 0.52656 0.0
C85 C 0.89998 0.26083 0.51267 0.0
C86 C 0.89362 0.33278 0.54342 0.0
C87 C 0.02026 0.3711 0.52697 0.0
C88 C 0.85639 0.27079 0.52844 0.0
C89 C 0.98217 0.31226 0.51134 0.0
C90 C 0.97601 0.38138 0.54299 0.0
C91 C 0.98117 0.25035 0.47773 0.0
N92 N 0.86111 0.20433 0.49766 0.0
C93 C 0.89953 0.20135 0.47968 0.0
C94 C 0.02296 0.30512 0.49384 0.0
Eu95 Eu 0.72319 0.12122 0.50221 0.0
N96 N 0.77689 0.22361 0.52815 0.0
C97 C 0.73063 0.23913 0.54135 0.0
C98 C 0.84668 0.34612 0.55778 0.0
C99 C 0.76474 0.29987 0.5565 0.0
H100 H 0.86744 0.15963 0.46707 0.0
H101 H 0.72775 0.31076 0.56722 0.0
H102 H 0.00574 0.4287 0.55453 0.0
H103 H 0.0117 0.24605 0.46378 0.0
H104 H 0.66727 0.20379 0.54063 0.0
H105 H 0.77227 0.75318 0.54233 0.0
H106 H 0.87302 0.39348 0.56942 0.0
H107 H 0.45906 0.86502 0.4973 0.0
H108 H 0.73331 0.85402 0.54911 0.0
H109 H 0.38028 0.76609 0.47002 0.0
H110 H 0.08347 0.41066 0.52637 0.0
H111 H 0.71547 0.66241 0.51141 0.0
H112 H 0.61804 0.61174 0.48093 0.0
H113 H 0.08611 0.34348 0.49223 0.0
H114 H 0.51013 0.61466 0.46139 0.0
N115 N 0.66083 0.82436 0.5214 0.0
C116 C 0.70976 0.81548 0.53537 0.0
C117 C 0.69929 0.70724 0.51416 0.0
C118 C 0.64346 0.71196 0.50114 0.0
C119 C 0.73141 0.75828 0.53164 0.0
C120 C 0.62446 0.77134 0.50545 0.0
H121 H 0.41959 0.6705 0.45764 0.0
N122 N 0.54327 0.82683 0.50053 0.0
C123 C 0.43185 0.76733 0.47677 0.0
C124 C 0.56342 0.77242 0.4947 0.0
C125 C 0.4769 0.82349 0.49234 0.0
C126 C 0.45438 0.71369 0.46977 0.0
C127 C 0.52007 0.71481 0.47901 0.0
O128 O 0.50995 0.83993 0.54124 0.0
O129 O 0.68097 0.05218 0.53275 0.0
O130 O 0.81522 0.08707 0.50962 0.0
O131 O 0.74345 0.94847 0.51397 0.0
O132 O 0.71916 0.98804 0.55101 0.0
O133 O 0.61392 0.89307 0.56089 0.0
O134 O 0.70566 0.14208 0.46856 0.0
O135 O 0.63805 0.99178 0.49683 0.0
O136 O 0.53527 0.96251 0.52353 0.0
O137 O 0.60564 0.09685 0.51515 0.0
O138 O 0.73036 0.04994 0.47499 0.0
O139 O 0.69717 0.21415 0.49318 0.0
C140 C 0.72681 0.05677 0.54777 0.0
C141 C 0.51745 0.76319 0.56987 0.0
C142 C 0.50445 0.6849 0.60204 0.0
C143 C 0.52248 0.7574 0.5923 0.0
C144 C 0.48116 0.61834 0.58888 0.0
C145 C 0.49446 0.69594 0.55712 0.0
C146 C 0.47622 0.624 0.56663 0.0
C147 C 0.8096 0.01675 0.51115 0.0
C148 C 0.53971 0.84037 0.55996 0.0
C149 C 0.54205 0.65872 0.4736 0.0
C150 C 0.6036 0.65718 0.48468 0.0
C151 C 0.66884 0.98369 0.47981 0.0
C152 C 0.75357 0.27614 0.45973 0.0
C153 C 0.75942 0.26974 0.43734 0.0
C154 C 0.81007 0.33646 0.42485 0.0
C155 C 0.85434 0.40994 0.43511 0.0
C156 C 0.79879 0.3503 0.46954 0.0
C157 C 0.84857 0.41661 0.45725 0.0
C158 C 0.54029 0.0318 0.52061 0.0
C159 C 0.70155 0.20499 0.47264 0.0
H160 H 0.54032 0.80938 0.60212 0.0
H161 H 0.46824 0.56204 0.59572 0.0
H162 H 0.49113 0.69903 0.53981 0.0
H163 H 0.45889 0.5725 0.5567 0.0
H164 H 0.72447 0.21278 0.42967 0.0
H165 H 0.89486 0.46214 0.42609 0.0
H166 H 0.79624 0.3572 0.48673 0.0
H167 H 0.88346 0.47338 0.46497 0.0
Eu168 Eu 0.63252 0.55458 0.85731 0.0
C169 C 0.69655 0.27019 0.85121 0.0
C170 C 0.79984 0.29966 0.87713 0.0
C171 C 0.70492 0.16294 0.86862 0.0
C172 C 0.7612 0.32492 0.86272 0.0
C173 C 0.66854 0.18858 0.8537 0.0
C174 C 0.7704 0.2184 0.88033 0.0
C175 C 0.57453 0.1641 0.82539 0.0
N176 N 0.66299 0.29692 0.8369 0.0
C177 C 0.6046 0.24562 0.82347 0.0
C178 C 0.60602 0.13535 0.84075 0.0
Eu179 Eu 0.71533 0.43533 0.83491 0.0
N180 N 0.78843 0.40293 0.85912 0.0
C181 C 0.85739 0.45873 0.86824 0.0
C182 C 0.86801 0.35684 0.8875 0.0
C183 C 0.89749 0.4367 0.88279 0.0
H184 H 0.57977 0.26754 0.81166 0.0
H185 H 0.95096 0.48137 0.89042 0.0
H186 H 0.79891 0.19787 0.89147 0.0
H187 H 0.52702 0.12354 0.81507 0.0
H188 H 0.88066 0.52063 0.86485 0.0
H189 H 0.39718 0.5093 0.80176 0.0
H190 H 0.89923 0.33991 0.89876 0.0
H191 H 0.76694 0.72218 0.88095 0.0
H192 H 0.46675 0.46978 0.82751 0.0
H193 H 0.82016 0.8662 0.87749 0.0
H194 H 0.68388 0.10047 0.87089 0.0
H195 H 0.44988 0.65075 0.79321 0.0
H196 H 0.55075 0.79271 0.80041 0.0
H197 H 0.58276 0.07219 0.84218 0.0
H198 H 0.66552 0.8899 0.82112 0.0
N199 N 0.55944 0.58732 0.83317 0.0
C200 C 0.49039 0.53168 0.82405 0.0
C201 C 0.48074 0.63372 0.80456 0.0
C202 C 0.54898 0.69076 0.81493 0.0
C203 C 0.45071 0.55386 0.80939 0.0
C204 C 0.58716 0.66535 0.82945 0.0
H205 H 0.76565 0.91787 0.85011 0.0
N206 N 0.68455 0.69301 0.85549 0.0
C207 C 0.77294 0.82574 0.86707 0.0
C208 C 0.65166 0.71994 0.84102 0.0
C209 C 0.74257 0.74419 0.86902 0.0
C210 C 0.74216 0.85468 0.85156 0.0
C211 C 0.67999 0.80159 0.8385 0.0
O212 O 0.62014 0.5758 0.89113 0.0
O213 O 0.6841 0.47788 0.86434 0.0
O214 O 0.60229 0.35245 0.85199 0.0
O215 O 0.53855 0.42644 0.85058 0.0
O216 O 0.72264 0.57677 0.88332 0.0
O217 O 0.51589 0.51127 0.87146 0.0
O218 O 0.72833 0.41072 0.80143 0.0
O219 O 0.66379 0.51191 0.82787 0.0
O220 O 0.74574 0.63788 0.84035 0.0
O221 O 0.80941 0.56368 0.84133 0.0
O222 O 0.62653 0.41418 0.80855 0.0
O223 O 0.83228 0.48004 0.82094 0.0
C224 C 0.72742 0.51414 0.88012 0.0
C225 C 0.50972 0.58683 0.90038 0.0
C226 C 0.46211 0.6198 0.93282 0.0
C227 C 0.49405 0.57796 0.92254 0.0
C228 C 0.44648 0.67103 0.92053 0.0
C229 C 0.49424 0.63858 0.88844 0.0
C230 C 0.46269 0.68037 0.89851 0.0
C231 C 0.53808 0.35859 0.85286 0.0
C232 C 0.54373 0.54281 0.89019 0.0
C233 C 0.6442 0.8274 0.82343 0.0
C234 C 0.57886 0.77206 0.81165 0.0
C235 C 0.62118 0.4764 0.81192 0.0
C236 C 0.8398 0.39914 0.79363 0.0
C237 C 0.8355 0.38567 0.77139 0.0
C238 C 0.86777 0.34227 0.76224 0.0
C239 C 0.9049 0.31279 0.77573 0.0
C240 C 0.87628 0.36841 0.80685 0.0
C241 C 0.90884 0.3257 0.79787 0.0
C242 C 0.80986 0.63162 0.83929 0.0
C243 C 0.80483 0.44438 0.80261 0.0
H244 H 0.50583 0.53767 0.9317 0.0
H245 H 0.42267 0.70467 0.92798 0.0
H246 H 0.50654 0.64668 0.87138 0.0
H247 H 0.45089 0.72031 0.88924 0.0
H248 H 0.80741 0.40953 0.7612 0.0
H249 H 0.92955 0.27845 0.76921 0.0
H250 H 0.87958 0.37725 0.82407 0.0
H251 H 0.93688 0.30211 0.80813 0.0
H252 H 0.02494 0.62664 0.19984 0.0
H253 H 0.02513 0.75154 0.19665 0.0
H254 H 0.27017 0.87002 0.17815 0.0
H255 H 0.2702 0.7453 0.1807 0.0
H256 H 0.12267 0.90219 0.21637 0.0
H257 H 0.15705 0.91102 0.12761 0.0
H258 H 0.12815 0.82269 0.14327 0.0
H259 H 0.2296 0.89992 0.1425 0.0
C260 C 0.0789 0.67926 0.19509 0.0
C261 C 0.14697 0.67573 0.18996 0.0
C262 C 0.07895 0.7505 0.1934 0.0
C263 C 0.14714 0.81914 0.18667 0.0
C264 C 0.21654 0.81697 0.18289 0.0
H265 H 0.26304 0.29964 0.16138 0.0
H266 H 0.26187 0.17423 0.1644 0.0
C267 C 0.21652 0.74576 0.18451 0.0
C268 C 0.14505 0.89257 0.18301 0.0
H269 H 0.16289 0.02333 0.1439 0.0
C270 C 0.13114 0.92868 0.20055 0.0
C271 C 0.15599 0.92635 0.16228 0.0
C272 C 0.16788 0.88781 0.14277 0.0
C273 C 0.12939 -0.00094 0.19798 0.0
C274 C 0.14053 0.03293 0.17727 0.0
C275 C 0.15433 -0.00321 0.15972 0.0
C276 C 0.13907 0.10668 0.17365 0.0
C277 C 0.11725 0.03754 0.21747 0.0
C278 C 0.06959 0.10905 0.17708 0.0
C279 C 0.07014 0.18055 0.17553 0.0
C280 C 0.1403 0.25065 0.17054 0.0
C281 C 0.20857 0.24697 0.16578 0.0
C282 C 0.20797 0.17544 0.16737 0.0
H283 H 0.12682 0.01355 0.23267 0.0
H284 H 0.15778 0.10253 0.21711 0.0
H285 H 0.05588 0.02646 0.2175 0.0
H286 H 0.01549 0.05594 0.1815 0.0
H287 H 0.0163 0.1811 0.17902 0.0
H288 H 0.39596 0.91448 0.53385 0.0
H289 H 0.27296 0.91742 0.53384 0.0
H290 H 0.39723 0.16046 0.51268 0.0
H291 H 0.52115 0.15892 0.51277 0.0
H292 H 0.2772 0.11964 0.5461 0.0
H293 H 0.17526 0.92391 0.47445 0.0
H294 H 0.20733 0.88829 0.49673 0.0
H295 H 0.27712 0.97665 0.48286 0.0
C296 C 0.39749 0.96891 0.52939 0.0
C297 C 0.46801 0.03612 0.52296 0.0
C298 C 0.32724 0.97032 0.52941 0.0
C299 C 0.32665 0.03868 0.52291 0.0
C300 C 0.3972 0.10718 0.51761 0.0
H301 H 0.92265 0.0703 0.48052 0.0
H302 H 0.05239 0.08032 0.48336 0.0
C303 C 0.46767 0.10599 0.51763 0.0
C304 C 0.25158 0.03699 0.52034 0.0
H305 H 0.08272 0.95184 0.4908 0.0
C306 C 0.23457 0.08327 0.53402 0.0
C307 C 0.19744 0.99029 0.50426 0.0
C308 C 0.21519 0.94241 0.48858 0.0
C309 C 0.16295 0.08243 0.53236 0.0
C310 C 0.10767 0.03344 0.5168 0.0
C311 C 0.12555 0.98872 0.50279 0.0
C312 C 0.03016 0.02689 0.51498 0.0
C313 C 0.14696 0.13399 0.54712 0.0
C314 C 0.97534 -0.0078 0.53165 0.0
C315 C 0.90206 0.98691 0.53007 0.0
C316 C 0.88307 0.01564 0.51174 0.0
C317 C 0.93716 0.04874 0.49485 0.0
C318 C 0.01056 0.0541 0.49643 0.0
H319 H 0.20192 0.181 0.55465 0.0
H320 H 0.11809 0.16216 0.53827 0.0
H321 H 0.1065 0.09695 0.56012 0.0
H322 H -0.01037 0.9701 0.54594 0.0
H323 H 0.86147 0.96299 0.54343 0.0
H324 H 0.83737 0.77853 0.828 0.0
H325 H 0.96266 0.90276 0.82984 0.0
H326 H 0.08038 0.77554 0.84901 0.0
H327 H 0.95567 0.65116 0.84729 0.0
H328 H 0.05406 0.9595 0.86758 0.0
H329 H 0.22189 0.92297 0.80105 0.0
H330 H 0.11594 0.86374 0.8033 0.0
H331 H 0.17821 0.84151 0.8196 0.0
C332 C 0.88998 0.77689 0.8325 0.0
C333 C 0.88646 0.70518 0.83782 0.0
C334 C 0.96141 0.84782 0.83345 0.0
C335 C 0.03045 0.84792 0.83944 0.0
C336 C 0.02774 0.7763 0.84403 0.0
H337 H 0.51076 0.21205 0.86449 0.0
H338 H 0.38563 0.08763 0.86275 0.0
C339 C 0.95633 0.70534 0.84311 0.0
C340 C 0.10434 0.92336 0.84234 0.0
H341 H 0.29425 0.03033 0.82484 0.0
C342 C 0.10655 0.97539 0.85817 0.0
C343 C 0.17243 0.94312 0.8301 0.0
C344 C 0.17215 0.89029 0.81242 0.0
C345 C 0.17587 0.04671 0.86231 0.0
C346 C 0.24393 0.06649 0.85006 0.0
C347 C 0.24175 0.01443 0.83424 0.0
C348 C 0.31771 0.14205 0.85291 0.0
C349 C 0.17618 0.09959 0.87998 0.0
C350 C 0.32028 0.21349 0.84814 0.0
C351 C 0.39162 0.28455 0.84898 0.0
C352 C 0.46153 0.28498 0.85438 0.0
C353 C 0.45813 0.21346 0.8599 0.0
C354 C 0.38678 0.14243 0.85901 0.0
H355 H 0.12634 0.06701 0.89133 0.0
H356 H 0.23233 0.12601 0.88913 0.0
H357 H 0.17034 0.14848 0.87278 0.0
H358 H 0.26758 0.21401 0.84309 0.0
H359 H 0.39219 0.33857 0.84466 0.0
H360 H 0.5541 0.61532 0.96546 0.0
H361 H 0.52422 0.59852 1.00405 0.0
H362 H 0.30156 0.58589 0.99169 0.0
H363 H 0.33046 0.60179 0.95319 0.0
H364 H 0.48602 0.69682 0.03163 0.0
H365 H 0.24667 0.38339 0.0277 0.0
H366 H 0.31875 0.43024 1.00657 0.0
H367 H 0.2373 0.44784 1.00874 0.0
C368 C 0.49849 0.60831 0.97097 0.0
C369 C 0.44453 0.60969 0.95625 0.0
C370 C 0.48177 0.59919 0.993 0.0
C371 C 0.41039 0.59022 1.00068 0.0
C372 C 0.35663 0.59188 0.98607 0.0
H373 H 0.224 0.64181 0.11828 0.0
H374 H 0.29503 0.66145 0.08445 0.0
C375 C 0.37351 0.60159 0.96409 0.0
C376 C 0.39183 0.57989 0.02397 0.0
H377 H 0.25679 0.45239 0.06012 0.0
C378 C 0.43654 0.64307 0.03795 0.0
C379 C 0.32801 0.50934 0.03222 0.0
C380 C 0.28021 0.43844 0.0181 0.0
C381 C 0.41652 0.63886 0.05979 0.0
C382 C 0.34992 0.56991 0.06776 0.0
C383 C 0.3077 0.50536 0.05399 0.0
C384 C 0.31859 0.56558 0.08973 0.0
C385 C 0.46607 0.70854 0.07411 0.0
C386 C 0.30872 0.50554 0.10406 0.0
C387 C 0.26808 0.49427 0.12343 0.0
C388 C 0.23648 0.54277 0.1287 0.0
C389 C 0.24871 0.60434 0.11468 0.0
C390 C 0.28962 0.61584 0.09542 0.0
H391 H 0.52649 0.74572 0.06754 0.0
H392 H 0.43827 0.7459 0.0753 0.0
H393 H 0.47039 0.68881 0.09054 0.0
H394 H 0.33 0.46565 0.0999 0.0
H395 H 0.25818 0.44539 0.13373 0.0
H396 H 0.82117 0.21959 0.40355 0.0
H397 H 0.84983 0.21584 0.36543 0.0
H398 H 0.8513 0.43487 0.35489 0.0
H399 H 0.82075 0.43819 0.39285 0.0
H400 H 0.77449 0.3165 0.3213 0.0
H401 H 0.07423 0.37256 0.34233 0.0
H402 H -0.00605 0.28937 0.35556 0.0
H403 H 0.01299 0.38755 0.36117 0.0
C404 C 0.82603 0.26618 0.39306 0.0
C405 C 0.8195 0.32967 0.40133 0.0
C406 C 0.84299 0.26424 0.37131 0.0
C407 C 0.85381 0.32569 0.35741 0.0
C408 C 0.84357 0.38708 0.36536 0.0
H409 H 0.02631 0.47593 0.2275 0.0
H410 H 0.95299 0.44928 0.26125 0.0
C411 C 0.82676 0.38918 0.3871 0.0
C412 C 0.8811 0.32894 0.33499 0.0
H413 H 0.03902 0.35279 0.30584 0.0
C414 C 0.83221 0.32421 0.31785 0.0
C415 C 0.95656 0.33943 0.33057 0.0
C416 C 0.01296 0.34822 0.34832 0.0
C417 C 0.85645 0.32845 0.29636 0.0
C418 C 0.93213 0.3392 0.29197 0.0
C419 C 0.98076 0.34391 0.30917 0.0
C420 C 0.96381 0.34745 0.2698 0.0
C421 C 0.80031 0.31968 0.27859 0.0
C422 C -0.00628 0.29885 0.26318 0.0
C423 C 0.03638 0.31468 0.24408 0.0
C424 C 0.04917 0.37879 0.23105 0.0
C425 C 0.01591 0.42514 0.23703 0.0
C426 C 0.97374 0.40973 0.25631 0.0
H427 H 0.73832 0.29039 0.28434 0.0
H428 H 0.81589 0.37906 0.27237 0.0
H429 H 0.80429 0.28479 0.26512 0.0
H430 H -0.01295 0.25063 0.2733 0.0
H431 H 0.06198 0.27851 0.23986 0.0
H432 H 0.50461 0.40215 0.78289 0.0
H433 H 0.48262 0.45768 0.75 0.0
H434 H 0.67282 0.68858 0.76729 0.0
H435 H 0.69548 0.633 0.80015 0.0
H436 H 0.45523 0.59223 0.7422 0.0
H437 H 0.73606 0.63239 0.70819 0.0
H438 H 0.68855 0.56946 0.7311 0.0
H439 H 0.74066 0.67492 0.73412 0.0
C440 C 0.54073 0.46502 0.77983 0.0
C441 C 0.60111 0.51342 0.79414 0.0
C442 C 0.52807 0.49667 0.76109 0.0
C443 C 0.57649 0.57705 0.75612 0.0
C444 C 0.63514 0.62626 0.77077 0.0
H445 H 0.62013 0.79075 0.62901 0.0
H446 H 0.63609 0.77517 0.66742 0.0
C447 C 0.64763 0.59461 0.78961 0.0
C448 C 0.56918 0.60709 0.73482 0.0
H449 H 0.65845 0.66251 0.68574 0.0
C450 C 0.49991 0.6084 0.72988 0.0
C451 C 0.62767 0.62826 0.71882 0.0
C452 C 0.70236 0.62594 0.72313 0.0
C453 C 0.48708 0.62929 0.70924 0.0
C454 C 0.54425 0.64749 0.69297 0.0
C455 C 0.61462 0.64859 0.69816 0.0
C456 C 0.53051 0.66058 0.67017 0.0
C457 C 0.4124 0.63169 0.70509 0.0
C458 C 0.4658 0.60156 0.65888 0.0
C459 C 0.45621 0.61056 0.63698 0.0
C460 C 0.51162 0.67847 0.62574 0.0
C461 C 0.57577 0.73816 0.63717 0.0
C462 C 0.58525 0.72913 0.65912 0.0
H463 H 0.38903 0.64286 0.72013 0.0
H464 H 0.42217 0.67815 0.69317 0.0
H465 H 0.36673 0.57363 0.69872 0.0
H466 H 0.42368 0.54733 0.66686 0.0
H467 H 0.4057 0.56372 0.62878 0.0
H468 H 0.65384 0.3574 0.89167 0.0
H469 H 0.67454 0.30192 0.92478 0.0
H470 H 0.86129 0.53352 0.94299 0.0
H471 H 0.84184 0.58885 0.9097 0.0
H472 H 0.89154 0.40615 0.95265 0.0
H473 H 0.59955 0.35038 0.98202 0.0
H474 H 0.59989 0.30647 0.95672 0.0
H475 H 0.64773 0.41214 0.95899 0.0
C476 C 0.70064 0.39599 0.90245 0.0
C477 C 0.74681 0.47732 0.89807 0.0
C478 C 0.71196 0.36439 0.92145 0.0
C479 C 0.76874 0.41386 0.93647 0.0
C480 C 0.81717 0.49435 0.93162 0.0
H481 H 0.91205 0.42335 0.06717 0.0
H482 H 0.90277 0.44401 0.02881 0.0
C483 C 0.80592 0.52589 0.91267 0.0
C484 C 0.77363 0.38398 0.95802 0.0
H485 H 0.67458 0.32061 1.00561 0.0
C486 C 0.84393 0.38676 0.9642 0.0
C487 C 0.7114 0.3588 0.97305 0.0
C488 C 0.63548 0.35712 0.96753 0.0
C489 C 0.85396 0.36574 0.98511 0.0
C490 C 0.79262 0.34295 1.00034 0.0
C491 C 0.72154 0.33805 0.99394 0.0
C492 C 0.80194 0.32787 0.02329 0.0
C493 C 0.93008 0.36802 0.99065 0.0
C494 C 0.74756 0.25621 0.03312 0.0
C495 C 0.75244 0.24439 0.05512 0.0
C496 C 0.81167 0.30417 0.06779 0.0
C497 C 0.86658 0.37555 0.05784 0.0
C498 C 0.8615 0.38738 0.03586 0.0
H499 H 0.95915 0.36161 0.97609 0.0
H500 H 0.97118 0.4259 0.99806 0.0
H501 H 0.92005 0.32054 1.00224 0.0
H502 H 0.70083 0.2096 0.02378 0.0
H503 H 0.70971 0.18844 0.06222 0.0
H504 H 0.60884 0.78557 0.28759 0.0
H505 H 0.62684 0.82433 0.32526 0.0
H506 H 0.38784 0.64264 0.33886 0.0
H507 H 0.37053 0.60054 0.30133 0.0
H508 H 0.55202 0.88065 0.34877 0.0
H509 H 0.50631 0.60148 0.38557 0.0
H510 H 0.51973 0.62012 0.35705 0.0
H511 H 0.4256 0.58986 0.36924 0.0
C512 C 0.5604 0.75272 0.29861 0.0
C513 C 0.4884 0.68937 0.29134 0.0
C514 C 0.57062 0.77546 0.32016 0.0
C515 C 0.50917 0.73568 0.33502 0.0
C516 C 0.43676 0.67316 0.32783 0.0
H517 H 0.53688 0.95897 0.45904 0.0
H518 H 0.48646 0.88894 0.42491 0.0
C519 C 0.42659 0.64994 0.30625 0.0
C520 C 0.52083 0.76201 0.3578 0.0
H521 H 0.52098 0.70218 0.40951 0.0
C522 C 0.54498 0.8415 0.36204 0.0
C523 C 0.51235 0.71109 0.37513 0.0
C524 C 0.4903 0.62607 0.37158 0.0
C525 C 0.56178 0.87179 0.38299 0.0
C526 C 0.55205 0.82065 0.40036 0.0
C527 C 0.52735 0.74097 0.3962 0.0
C528 C 0.57259 0.85059 0.4227 0.0
C529 C 0.59272 0.95909 0.3862 0.0
C530 C 0.63481 0.84852 0.43335 0.0
C531 C 0.66264 0.88734 0.45297 0.0
C532 C 0.62742 0.92705 0.46248 0.0
C533 C 0.56321 0.92649 0.45228 0.0
C534 C 0.53517 0.88745 0.4327 0.0
H535 H 0.61471 -0.00706 0.37097 0.0
H536 H 0.54445 0.96794 0.39229 0.0
H537 H 0.64135 0.98407 0.39813 0.0
H538 H 0.66468 0.82064 0.42591 0.0
H539 H 0.71372 0.88913 0.46031 0.0
H540 H 0.7389 0.29613 0.73647 0.0
H541 H 0.72673 0.26468 0.69815 0.0
H542 H 0.96988 0.32208 0.69653 0.0
H543 H 0.98219 0.35279 0.73492 0.0
H544 H 0.80488 0.35309 0.66264 0.0
H545 H 0.85789 0.1005 0.67205 0.0
H546 H 0.83951 0.14663 0.69464 0.0
H547 H 0.93556 0.19226 0.6824 0.0
C548 C 0.78995 0.30261 0.72792 0.0
C549 C 0.86136 0.32635 0.73877 0.0
C550 C 0.78286 0.28445 0.70603 0.0
C551 C 0.84696 0.28966 0.69454 0.0
C552 C 0.91904 0.31567 0.70518 0.0
H553 H 0.87437 0.14341 0.56383 0.0
H554 H 0.91116 0.21386 0.59831 0.0
C555 C 0.92602 0.3333 0.72711 0.0
C556 C 0.8377 0.26674 0.67153 0.0
H557 H 0.84558 0.13627 0.63663 0.0
C558 C 0.8139 0.30578 0.65693 0.0
C559 C 0.84953 0.205 0.66409 0.0
C560 C 0.87132 0.1581 0.67911 0.0
C561 C 0.80154 0.28468 0.63512 0.0
C562 C 0.81264 0.22248 0.62775 0.0
C563 C 0.83776 0.18443 0.64227 0.0
C564 C 0.79369 0.19192 0.60544 0.0
C565 C 0.77734 0.3295 0.62011 0.0
C566 C 0.71583 0.15723 0.59789 0.0
C567 C 0.69512 0.11767 0.57821 0.0
C568 C 0.75207 0.11274 0.5657 0.0
C569 C 0.83018 0.14863 0.57299 0.0
C570 C 0.851 0.18842 0.59266 0.0
H571 H 0.7914 0.38775 0.62683 0.0
H572 H 0.80721 0.33916 0.60437 0.0
H573 H 0.71276 0.29464 0.6174 0.0
H574 H 0.67015 0.15706 0.60771 0.0
H575 H 0.63394 0.08785 0.5732 0.0
loop_
_geom_bond_atom_site_label_1
_geom_bond_atom_site_label_2
_geom_bond_distance
_geom_bond_site_symmetry_2
_ccdc_geom_bond_type
Eu0 N31 2.657 . S
Eu0 N38 2.609 . S
Eu0 O44 2.558 . S
Eu0 O45 2.612 1_455 S
Eu0 O47 2.339 . S
Eu0 O48 2.565 . S
Eu0 O49 2.419 . S
Eu0 O51 2.380 . S
Eu0 O52 2.432 . S
Eu0 C64 2.848 . S
C1 C4 1.429 . S
C1 C5 1.411 . S
C1 N8 1.377 . S
C2 C4 1.420 . S
C2 C6 1.423 . S
C2 C14 1.392 . S
C3 C5 1.420 . S
C3 C6 1.351 . S
C3 H26 0.931 . S
C4 C1 1.429 . S
C4 C2 1.420 . S
C4 N12 1.362 . S
C5 C1 1.411 . S
C5 C3 1.420 . S
C5 C10 1.395 . S
C6 C2 1.423 . S
C6 C3 1.351 . S
C6 H18 0.930 . S
C7 C9 1.400 . S
C7 C10 1.386 . S
C7 H19 0.930 . S
N8 C1 1.377 . S
N8 C9 1.321 . S
N8 Eu11 2.609 . S
C9 C7 1.400 . S
C9 N8 1.321 . S
C9 H16 0.930 . S
C10 C5 1.395 . S
C10 C7 1.386 . S
C10 H29 0.930 . S
Eu11 N8 2.609 . S
Eu11 N12 2.657 . S
Eu11 O45 2.380 . S
Eu11 O46 2.432 . S
Eu11 O50 2.558 . S
Eu11 O51 2.612 1_655 S
Eu11 O53 2.339 . S
Eu11 O54 2.562 1_655 S
Eu11 O55 2.419 . S
Eu11 C75 2.848 . S
N12 C4 1.362 . S
N12 Eu11 2.657 . S
N12 C13 1.334 . S
C13 N12 1.334 . S
C13 C15 1.413 . S
C13 H20 0.929 . S
C14 C2 1.392 . S
C14 C15 1.367 . S
C14 H22 0.930 . S
C15 C13 1.413 . S
C15 C14 1.367 . S
C15 H17 0.930 . S
H16 C9 0.930 . S
H17 C15 0.930 . S
H18 C6 0.930 . S
H19 C7 0.930 . S
H20 C13 0.929 . S
H21 C35 0.930 . S
H22 C14 0.930 . S
H23 C41 0.930 . S
H24 C32 0.929 . S
H25 C39 0.930 . S
H26 C3 0.931 . S
H27 C33 0.930 . S
H28 C66 0.930 . S
H29 C10 0.930 . S
H30 C65 0.931 . S
N31 Eu0 2.657 . S
N31 C32 1.334 . S
N31 C36 1.362 . S
C32 H24 0.929 . S
C32 N31 1.334 . S
C32 C35 1.413 . S
C33 H27 0.930 . S
C33 C34 1.392 . S
C33 C35 1.367 . S
C34 C33 1.392 . S
C34 C36 1.420 . S
C34 C66 1.423 . S
C35 H21 0.930 . S
C35 C32 1.413 . S
C35 C33 1.367 . S
C36 N31 1.362 . S
C36 C34 1.420 . S
C36 C40 1.429 . S
H37 C42 0.930 . S
N38 Eu0 2.609 . S
N38 C40 1.377 . S
N38 C41 1.321 . S
C39 H25 0.930 . S
C39 C41 1.400 . S
C39 C42 1.386 . S
C40 C36 1.429 . S
C40 N38 1.377 . S
C40 C43 1.411 . S
C41 H23 0.930 . S
C41 N38 1.321 . S
C41 C39 1.400 . S
C42 H37 0.930 . S
C42 C39 1.386 . S
C42 C43 1.395 . S
C43 C40 1.411 . S
C43 C42 1.395 . S
C43 C65 1.420 . S
O44 Eu0 2.558 . S
O44 C64 1.257 . S
O45 Eu0 2.612 1_655 S
O45 Eu11 2.380 . S
O45 C56 1.276 . S
O46 Eu11 2.432 . S
O46 C63 1.264 1_655 S
O47 Eu0 2.339 . S
O47 C63 1.254 . S
O48 Eu0 2.565 . S
O48 C56 1.233 1_455 S
O49 Eu0 2.419 . S
O49 C64 1.249 . S
O50 Eu11 2.558 . S
O50 C75 1.257 . S
O51 Eu0 2.380 . S
O51 Eu11 2.612 1_455 S
O51 C67 1.276 . S
O52 Eu0 2.432 . S
O52 C74 1.264 1_455 S
O53 Eu11 2.339 . S
O53 C74 1.254 . S
O54 Eu11 2.562 1_455 S
O54 C67 1.237 . S
O55 Eu11 2.419 . S
O55 C75 1.249 . S
C56 O45 1.276 . S
C56 O48 1.233 1_655 S
C57 C59 1.393 . S
C57 C61 1.395 . S
C57 C64 1.492 . S
C58 C59 1.392 . S
C58 C60 1.386 . S
C59 C57 1.393 . S
C59 C58 1.392 . S
C59 H76 0.930 . S
C60 C58 1.386 . S
C60 C62 1.395 . S
C60 H77 0.930 . S
C61 C57 1.395 . S
C61 C62 1.379 . S
C61 H78 0.930 . S
C62 C60 1.395 . S
C62 C61 1.379 . S
C62 H79 0.930 . S
C63 O46 1.264 1_455 S
C63 O47 1.254 . S
C64 Eu0 2.848 . S
C64 O44 1.257 . S
C64 O49 1.249 . S
C64 C57 1.492 . S
C65 H30 0.931 . S
C65 C43 1.420 . S
C65 C66 1.351 . S
C66 H28 0.930 . S
C66 C34 1.423 . S
C66 C65 1.351 . S
C67 O51 1.276 . S
C67 O54 1.237 . S
C68 C69 1.393 . S
C68 C72 1.395 . S
C68 C75 1.492 . S
C69 C68 1.393 . S
C69 C70 1.392 . S
C69 H80 0.930 . S
C70 C69 1.392 . S
C70 C71 1.386 . S
C71 C70 1.386 . S
C71 C73 1.395 . S
C71 H81 0.930 . S
C72 C68 1.395 . S
C72 C73 1.379 . S
C72 H82 0.930 . S
C73 C71 1.395 . S
C73 C72 1.379 . S
C73 H83 0.930 . S
C74 O52 1.264 1_655 S
C74 O53 1.254 . S
C75 Eu11 2.848 . S
C75 O50 1.257 . S
C75 O55 1.249 . S
C75 C68 1.492 . S
H76 C59 0.930 . S
H77 C60 0.930 . S
H78 C61 0.930 . S
H79 C62 0.930 . S
H80 C69 0.930 . S
H81 C71 0.930 . S
H82 C72 0.930 . S
H83 C73 0.930 . S
Eu84 N115 2.657 1_545 S
Eu84 N122 2.609 1_545 S
Eu84 O128 2.558 . S
Eu84 O129 2.612 . S
Eu84 O131 2.339 . S
Eu84 O132 2.563 . S
Eu84 O133 2.419 . S
Eu84 O135 2.380 . S
Eu84 O136 2.432 . S
Eu84 C148 2.848 1_545 S
C85 C88 1.429 . S
C85 C89 1.411 1_655 S
C85 N92 1.377 . S
C86 C88 1.420 . S
C86 C90 1.423 1_655 S
C86 C98 1.392 . S
C87 C89 1.420 . S
C87 C90 1.351 . S
C87 H110 0.931 . S
C88 C85 1.429 . S
C88 C86 1.420 . S
C88 N96 1.362 . S
C89 C85 1.411 1_455 S
C89 C87 1.420 . S
C89 C94 1.395 . S
C90 C86 1.423 1_455 S
C90 C87 1.351 . S
C90 H102 0.930 . S
C91 C93 1.400 . S
C91 C94 1.386 . S
C91 H103 0.930 . S
N92 C85 1.377 . S
N92 C93 1.321 1_655 S
N92 Eu95 2.609 . S
C93 C91 1.400 . S
C93 N92 1.321 1_455 S
C93 H100 0.930 . S
C94 C89 1.395 . S
C94 C91 1.386 . S
C94 H113 0.930 . S
Eu95 N92 2.609 . S
Eu95 N96 2.657 . S
Eu95 O129 2.380 . S
Eu95 O130 2.432 . S
Eu95 O134 2.558 . S
Eu95 O135 2.612 . S
Eu95 O137 2.339 . S
Eu95 O138 2.563 . S
Eu95 O139 2.419 . S
Eu95 C159 2.848 . S
N96 C88 1.362 . S
N96 Eu95 2.657 . S
N96 C97 1.334 . S
C97 N96 1.334 . S
C97 C99 1.413 . S
C97 H104 0.929 . S
C98 C86 1.392 . S
C98 C99 1.367 . S
C98 H106 0.930 . S
C99 C97 1.413 . S
C99 C98 1.367 . S
C99 H101 0.930 . S
H100 C93 0.930 . S
H101 C99 0.930 . S
H102 C90 0.930 . S
H103 C91 0.930 . S
H104 C97 0.929 . S
H105 C119 0.930 . S
H106 C98 0.930 . S
H107 C125 0.930 1_545 S
H108 C116 0.928 1_545 S
H109 C123 0.930 . S
H110 C87 0.931 . S
H111 C117 0.930 . S
H112 C150 0.930 . S
H113 C94 0.930 . S
H114 C149 0.931 . S
N115 Eu84 2.657 1_565 S
N115 C116 1.334 . S
N115 C120 1.362 . S
C116 H108 0.928 1_565 S
C116 N115 1.334 . S
C116 C119 1.413 . S
C117 H111 0.930 . S
C117 C118 1.392 . S
C117 C119 1.367 . S
C118 C117 1.392 . S
C118 C120 1.420 . S
C118 C150 1.423 . S
C119 H105 0.930 . S
C119 C116 1.413 . S
C119 C117 1.367 . S
C120 N115 1.362 . S
C120 C118 1.420 . S
C120 C124 1.429 . S
H121 C126 0.930 . S
N122 Eu84 2.609 1_565 S
N122 C124 1.377 . S
N122 C125 1.321 . S
C123 H109 0.930 . S
C123 C125 1.400 . S
C123 C126 1.386 . S
C124 C120 1.429 . S
C124 N122 1.377 . S
C124 C127 1.411 . S
C125 H107 0.930 1_565 S
C125 N122 1.321 . S
C125 C123 1.400 . S
C126 H121 0.930 . S
C126 C123 1.386 . S
C126 C127 1.395 . S
C127 C124 1.411 . S
C127 C126 1.395 . S
C127 C149 1.420 . S
O128 Eu84 2.558 . S
O128 C148 1.257 1_545 S
O129 Eu84 2.612 . S
O129 Eu95 2.380 . S
O129 C140 1.276 . S
O130 Eu95 2.432 . S
O130 C147 1.264 . S
O131 Eu84 2.339 . S
O131 C147 1.254 . S
O132 Eu84 2.563 . S
O132 C140 1.235 . S
O133 Eu84 2.419 . S
O133 C148 1.249 1_545 S
O134 Eu95 2.558 . S
O134 C159 1.257 . S
O135 Eu84 2.380 . S
O135 Eu95 2.612 . S
O135 C151 1.276 . S
O136 Eu84 2.432 . S
O136 C158 1.264 . S
O137 Eu95 2.339 . S
O137 C158 1.254 . S
O138 Eu95 2.563 . S
O138 C151 1.235 . S
O139 Eu95 2.419 . S
O139 C159 1.249 . S
C140 O129 1.276 . S
C140 O132 1.235 . S
C141 C143 1.393 . S
C141 C145 1.395 . S
C141 C148 1.492 . S
C142 C143 1.392 . S
C142 C144 1.386 . S
C143 C141 1.393 . S
C143 C142 1.392 . S
C143 H160 0.930 . S
C144 C142 1.386 . S
C144 C146 1.395 . S
C144 H161 0.930 . S
C145 C141 1.395 . S
C145 C146 1.379 . S
C145 H162 0.930 . S
C146 C144 1.395 . S
C146 C145 1.379 . S
C146 H163 0.930 . S
C147 O130 1.264 . S
C147 O131 1.254 . S
C148 Eu84 2.848 1_565 S
C148 O128 1.257 1_565 S
C148 O133 1.249 1_565 S
C148 C141 1.492 . S
C149 H114 0.931 . S
C149 C127 1.420 . S
C149 C150 1.351 . S
C150 H112 0.930 . S
C150 C118 1.423 . S
C150 C149 1.351 . S
C151 O135 1.276 . S
C151 O138 1.235 . S
C152 C153 1.393 . S
C152 C156 1.395 . S
C152 C159 1.492 . S
C153 C152 1.393 . S
C153 C154 1.392 . S
C153 H164 0.930 . S
C154 C153 1.392 . S
C154 C155 1.386 . S
C155 C154 1.386 . S
C155 C157 1.395 . S
C155 H165 0.930 . S
C156 C152 1.395 . S
C156 C157 1.379 . S
C156 H166 0.930 1_655 S
C157 C155 1.395 . S
C157 C156 1.379 . S
C157 H167 0.930 1_655 S
C158 O136 1.264 . S
C158 O137 1.254 . S
C159 Eu95 2.848 . S
C159 O134 1.257 . S
C159 O139 1.249 . S
C159 C152 1.492 . S
H160 C143 0.930 . S
H161 C144 0.930 . S
H162 C145 0.930 . S
H163 C146 0.930 . S
H164 C153 0.930 . S
H165 C155 0.930 . S
H166 C156 0.930 1_455 S
H167 C157 0.930 1_455 S
Eu168 N199 2.657 . S
Eu168 N206 2.609 . S
Eu168 O212 2.558 . S
Eu168 O213 2.612 . S
Eu168 O215 2.339 . S
Eu168 O216 2.563 . S
Eu168 O217 2.419 . S
Eu168 O219 2.380 . S
Eu168 O220 2.432 . S
Eu168 C232 2.848 . S
C169 C172 1.429 . S
C169 C173 1.411 . S
C169 N176 1.377 . S
C170 C172 1.420 . S
C170 C174 1.423 . S
C170 C182 1.392 1_655 S
C171 C173 1.420 . S
C171 C174 1.351 . S
C171 H194 0.931 . S
C172 C169 1.429 . S
C172 C170 1.420 . S
C172 N180 1.362 . S
C173 C169 1.411 . S
C173 C171 1.420 . S
C173 C178 1.395 . S
C174 C170 1.423 . S
C174 C171 1.351 . S
C174 H186 0.930 . S
C175 C177 1.400 . S
C175 C178 1.386 . S
C175 H187 0.930 . S
N176 C169 1.377 . S
N176 C177 1.321 . S
N176 Eu179 2.609 . S
C177 C175 1.400 . S
C177 N176 1.321 . S
C177 H184 0.930 . S
C178 C173 1.395 . S
C178 C175 1.386 . S
C178 H197 0.930 1_545 S
Eu179 N176 2.609 . S
Eu179 N180 2.657 . S
Eu179 O213 2.380 . S
Eu179 O214 2.432 . S
Eu179 O218 2.558 . S
Eu179 O219 2.612 . S
Eu179 O221 2.339 . S
Eu179 O222 2.563 . S
Eu179 O223 2.419 . S
Eu179 C243 2.848 . S
N180 C172 1.362 . S
N180 Eu179 2.657 . S
N180 C181 1.334 . S
C181 N180 1.334 . S
C181 C183 1.413 1_655 S
C181 H188 0.929 . S
C182 C170 1.392 1_455 S
C182 C183 1.367 . S
C182 H190 0.930 . S
C183 C181 1.413 1_455 S
C183 C182 1.367 . S
C183 H185 0.930 . S
H184 C177 0.930 . S
H185 C183 0.930 . S
H186 C174 0.930 . S
H187 C175 0.930 . S
H188 C181 0.929 . S
H189 C203 0.930 . S
H190 C182 0.930 . S
H191 C209 0.930 . S
H192 C200 0.929 . S
H193 C207 0.930 . S
H194 C171 0.931 . S
H195 C201 0.930 . S
H196 C234 0.930 . S
H197 C178 0.930 1_565 S
H198 C233 0.931 . S
N199 Eu168 2.657 . S
N199 C200 1.334 . S
N199 C204 1.362 . S
C200 H192 0.929 . S
C200 N199 1.334 . S
C200 C203 1.413 . S
C201 H195 0.930 . S
C201 C202 1.392 . S
C201 C203 1.367 . S
C202 C201 1.392 . S
C202 C204 1.420 . S
C202 C234 1.423 . S
C203 H189 0.930 . S
C203 C200 1.413 . S
C203 C201 1.367 . S
C204 N199 1.362 . S
C204 C202 1.420 . S
C204 C208 1.429 . S
H205 C210 0.930 . S
N206 Eu168 2.609 . S
N206 C208 1.377 . S
N206 C209 1.321 . S
C207 H193 0.930 . S
C207 C209 1.400 . S
C207 C210 1.386 . S
C208 C204 1.429 . S
C208 N206 1.377 . S
C208 C211 1.411 . S
C209 H191 0.930 . S
C209 N206 1.321 . S
C209 C207 1.400 . S
C210 H205 0.930 . S
C210 C207 1.386 . S
C210 C211 1.395 . S
C211 C208 1.411 . S
C211 C210 1.395 . S
C211 C233 1.420 . S
O212 Eu168 2.558 . S
O212 C232 1.257 . S
O213 Eu168 2.612 . S
O213 Eu179 2.380 . S
O213 C224 1.276 . S
O214 Eu179 2.432 . S
O214 C231 1.264 . S
O215 Eu168 2.339 . S
O215 C231 1.254 . S
O216 Eu168 2.563 . S
O216 C224 1.235 . S
O217 Eu168 2.419 . S
O217 C232 1.249 . S
O218 Eu179 2.558 . S
O218 C243 1.257 . S
O219 Eu168 2.380 . S
O219 Eu179 2.612 . S
O219 C235 1.276 . S
O220 Eu168 2.432 . S
O220 C242 1.264 . S
O221 Eu179 2.339 . S
O221 C242 1.254 . S
O222 Eu179 2.563 . S
O222 C235 1.235 . S
O223 Eu179 2.419 . S
O223 C243 1.249 . S
C224 O213 1.276 . S
C224 O216 1.235 . S
C225 C227 1.393 . S
C225 C229 1.395 . S
C225 C232 1.492 . S
C226 C227 1.392 . S
C226 C228 1.386 . S
C227 C225 1.393 . S
C227 C226 1.392 . S
C227 H244 0.930 . S
C228 C226 1.386 . S
C228 C230 1.395 . S
C228 H245 0.930 . S
C229 C225 1.395 . S
C229 C230 1.379 . S
C229 H246 0.930 . S
C230 C228 1.395 . S
C230 C229 1.379 . S
C230 H247 0.930 . S
C231 O214 1.264 . S
C231 O215 1.254 . S
C232 Eu168 2.848 . S
C232 O212 1.257 . S
C232 O217 1.249 . S
C232 C225 1.492 . S
C233 H198 0.931 . S
C233 C211 1.420 . S
C233 C234 1.351 . S
C234 H196 0.930 . S
C234 C202 1.423 . S
C234 C233 1.351 . S
C235 O219 1.276 . S
C235 O222 1.235 . S
C236 C237 1.393 . S
C236 C240 1.395 . S
C236 C243 1.492 . S
C237 C236 1.393 . S
C237 C238 1.392 . S
C237 H248 0.930 . S
C238 C237 1.392 . S
C238 C239 1.386 . S
C239 C238 1.386 . S
C239 C241 1.395 . S
C239 H249 0.930 . S
C240 C236 1.395 . S
C240 C241 1.379 . S
C240 H250 0.930 . S
C241 C239 1.395 . S
C241 C240 1.379 . S
C241 H251 0.930 . S
C242 O220 1.264 . S
C242 O221 1.254 . S
C243 Eu179 2.848 . S
C243 O218 1.257 . S
C243 O223 1.249 . S
C243 C236 1.492 . S
H244 C227 0.930 . S
H245 C228 0.930 . S
H246 C229 0.930 . S
H247 C230 0.930 . S
H248 C237 0.930 . S
H249 C239 0.930 . S
H250 C240 0.930 . S
H251 C241 0.930 . S
H252 C260 0.929 . S
H253 C262 0.930 . S
H254 C264 0.930 . S
H255 C267 0.929 . S
H256 C270 0.930 . S
H257 C272 0.960 . S
H258 C272 0.960 . S
H259 C272 0.960 . S
C260 H252 0.929 . S
C260 C261 1.377 1_655 S
C260 C262 1.384 . S
C261 C260 1.377 1_455 S
C261 C267 1.390 . S
C262 H253 0.930 . S
C262 C260 1.384 . S
C262 C263 1.372 1_655 S
C263 C262 1.372 1_455 S
C263 C264 1.400 . S
C263 C268 1.490 1_455 S
C264 H254 0.930 . S
C264 C263 1.400 . S
C264 C267 1.386 . S
H265 C281 0.930 . S
H266 C282 0.931 . S
C267 H255 0.929 . S
C267 C261 1.390 . S
C267 C264 1.386 . S
C268 C263 1.490 1_655 S
C268 C270 1.395 . S
C268 C271 1.403 1_655 S
H269 C275 0.930 1_545 S
C270 H256 0.930 . S
C270 C268 1.395 . S
C270 C273 1.403 . S
C271 C268 1.403 1_455 S
C271 C272 1.524 . S
C271 C275 1.400 . S
C272 H257 0.960 . S
C272 H258 0.960 . S
C272 H259 0.960 . S
C272 C271 1.524 . S
C273 C270 1.403 . S
C273 C274 1.392 . S
C273 C277 1.495 . S
C274 C273 1.392 . S
C274 C275 1.385 1_655 S
C274 C276 1.478 1_565 S
C275 H269 0.930 1_565 S
C275 C271 1.400 . S
C275 C274 1.385 1_455 S
C276 C274 1.478 1_545 S
C276 C278 1.381 . S
C276 C282 1.383 1_655 S
C277 C273 1.495 . S
C277 H283 0.959 . S
C277 H284 0.961 . S
C277 H285 0.960 . S
C278 C276 1.381 . S
C278 C279 1.394 . S
C278 H286 0.930 . S
C279 C278 1.394 . S
C279 C280 1.383 . S
C279 H287 0.929 . S
C280 C279 1.383 . S
C280 C281 1.377 1_655 S
C281 H265 0.930 . S
C281 C280 1.377 1_455 S
C281 C282 1.379 . S
C282 H266 0.931 . S
C282 C276 1.383 1_455 S
C282 C281 1.379 . S
H283 C277 0.959 . S
H284 C277 0.961 . S
H285 C277 0.960 . S
H286 C278 0.930 . S
H287 C279 0.929 . S
H288 C296 0.929 . S
H289 C298 0.930 . S
H290 C300 0.930 . S
H291 C303 0.929 . S
H292 C306 0.930 . S
H293 C308 0.960 . S
H294 C308 0.960 . S
H295 C308 0.960 . S
C296 H288 0.929 . S
C296 C297 1.377 . S
C296 C298 1.384 . S
C297 C296 1.377 . S
C297 C303 1.390 . S
C298 H289 0.930 . S
C298 C296 1.384 . S
C298 C299 1.372 . S
C299 C298 1.372 . S
C299 C300 1.400 . S
C299 C304 1.490 . S
C300 H290 0.930 . S
C300 C299 1.400 . S
C300 C303 1.386 . S
H301 C317 0.930 . S
H302 C318 0.931 . S
C303 H291 0.929 . S
C303 C297 1.390 . S
C303 C300 1.386 . S
C304 C299 1.490 . S
C304 C306 1.395 . S
C304 C307 1.403 . S
H305 C311 0.930 . S
C306 H292 0.930 . S
C306 C304 1.395 . S
C306 C309 1.403 . S
C307 C304 1.403 . S
C307 C308 1.524 . S
C307 C311 1.400 . S
C308 H293 0.960 . S
C308 H294 0.960 . S
C308 H295 0.960 . S
C308 C307 1.524 . S
C309 C306 1.403 . S
C309 C310 1.392 . S
C309 C313 1.495 . S
C310 C309 1.392 . S
C310 C311 1.385 . S
C310 C312 1.478 . S
C311 H305 0.930 . S
C311 C307 1.400 . S
C311 C310 1.385 . S
C312 C310 1.478 . S
C312 C314 1.381 . S
C312 C318 1.383 . S
C313 C309 1.495 . S
C313 H319 0.959 . S
C313 H320 0.961 . S
C313 H321 0.960 . S
C314 C312 1.381 . S
C314 C315 1.394 1_455 S
C314 H322 0.930 . S
C315 C314 1.394 1_655 S
C315 C316 1.383 . S
C315 H323 0.929 . S
C316 C315 1.383 . S
C316 C317 1.377 1_655 S
C317 H301 0.930 . S
C317 C316 1.377 1_455 S
C317 C318 1.379 . S
C318 H302 0.931 . S
C318 C312 1.383 . S
C318 C317 1.379 . S
H319 C313 0.959 . S
H320 C313 0.961 . S
H321 C313 0.960 . S
H322 C314 0.930 . S
H323 C315 0.929 . S
H324 C332 0.929 . S
H325 C334 0.930 . S
H326 C336 0.930 . S
H327 C339 0.929 . S
H328 C342 0.930 . S
H329 C344 0.960 . S
H330 C344 0.960 . S
H331 C344 0.960 . S
C332 H324 0.929 . S
C332 C333 1.377 . S
C332 C334 1.384 1_655 S
C333 C332 1.377 . S
C333 C339 1.390 1_655 S
C334 H325 0.930 . S
C334 C332 1.384 1_455 S
C334 C335 1.372 . S
C335 C334 1.372 . S
C335 C336 1.400 . S
C335 C340 1.490 . S
C336 H326 0.930 . S
C336 C335 1.400 . S
C336 C339 1.386 . S
H337 C353 0.930 . S
H338 C354 0.931 . S
C339 H327 0.929 . S
C339 C333 1.390 1_455 S
C339 C336 1.386 . S
C340 C335 1.490 . S
C340 C342 1.395 . S
C340 C343 1.403 . S
H341 C347 0.930 . S
C342 H328 0.930 . S
C342 C340 1.395 . S
C342 C345 1.403 . S
C343 C340 1.403 . S
C343 C344 1.524 . S
C343 C347 1.400 . S
C344 H329 0.960 . S
C344 H330 0.960 . S
C344 H331 0.960 . S
C344 C343 1.524 . S
C345 C342 1.403 . S
C345 C346 1.392 . S
C345 C349 1.495 1_565 S
C346 C345 1.392 . S
C346 C347 1.385 . S
C346 C348 1.478 1_565 S
C347 H341 0.930 . S
C347 C343 1.400 . S
C347 C346 1.385 . S
C348 C346 1.478 1_545 S
C348 C350 1.381 . S
C348 C354 1.383 . S
C349 C345 1.495 1_545 S
C349 H355 0.959 1_545 S
C349 H356 0.961 . S
C349 H357 0.960 . S
C350 C348 1.381 . S
C350 C351 1.394 . S
C350 H358 0.930 . S
C351 C350 1.394 . S
C351 C352 1.383 . S
C351 H359 0.929 . S
C352 C351 1.383 . S
C352 C353 1.377 . S
C353 H337 0.930 . S
C353 C352 1.377 . S
C353 C354 1.379 . S
C354 H338 0.931 . S
C354 C348 1.383 . S
C354 C353 1.379 . S
H355 C349 0.959 1_565 S
H356 C349 0.961 . S
H357 C349 0.960 . S
H358 C350 0.930 . S
H359 C351 0.929 . S
H360 C368 0.929 . S
H361 C370 0.883 1_554 S
H362 C372 0.930 . S
H363 C375 0.929 . S
H364 C378 0.930 . S
H365 C380 0.962 . S
H366 C380 0.959 1_556 S
H367 C380 0.954 1_556 S
C368 H360 0.929 . S
C368 C369 1.377 . S
C368 C370 1.429 . S
C369 C368 1.377 . S
C369 C375 1.390 . S
C370 H361 0.883 1_556 S
C370 C368 1.429 . S
C370 C371 1.374 . S
C371 C370 1.374 . S
C371 C372 1.400 . S
C371 C376 1.490 1_556 S
C372 H362 0.930 . S
C372 C371 1.400 . S
C372 C375 1.386 . S
H373 C389 0.930 . S
H374 C390 0.931 . S
C375 H363 0.929 . S
C375 C369 1.390 . S
C375 C372 1.386 . S
C376 C371 1.490 1_554 S
C376 C378 1.395 . S
C376 C379 1.403 . S
H377 C383 0.930 . S
C378 H364 0.930 . S
C378 C376 1.395 . S
C378 C381 1.403 . S
C379 C376 1.403 . S
C379 C380 1.529 . S
C379 C383 1.400 . S
C380 H365 0.962 . S
C380 H366 0.959 1_554 S
C380 H367 0.954 1_554 S
C380 C379 1.529 . S
C381 C378 1.403 . S
C381 C382 1.392 . S
C381 C385 1.495 . S
C382 C381 1.392 . S
C382 C383 1.385 . S
C382 C384 1.478 . S
C383 H377 0.930 . S
C383 C379 1.400 . S
C383 C382 1.385 . S
C384 C382 1.478 . S
C384 C386 1.381 . S
C384 C390 1.383 . S
C385 C381 1.495 . S
C385 H391 0.959 . S
C385 H392 0.961 . S
C385 H393 0.960 . S
C386 C384 1.381 . S
C386 C387 1.394 . S
C386 H394 0.930 . S
C387 C386 1.394 . S
C387 C388 1.383 . S
C387 H395 0.929 . S
C388 C387 1.383 . S
C388 C389 1.377 . S
C389 H373 0.930 . S
C389 C388 1.377 . S
C389 C390 1.379 . S
C390 H374 0.931 . S
C390 C384 1.383 . S
C390 C389 1.379 . S
H391 C385 0.959 . S
H392 C385 0.961 . S
H393 C385 0.960 . S
H394 C386 0.930 . S
H395 C387 0.929 . S
H396 C404 0.929 . S
H397 C406 0.930 . S
H398 C408 0.930 . S
H399 C411 0.929 . S
H400 C414 0.930 . S
H401 C416 0.960 . S
H402 C416 0.960 . S
H403 C416 0.960 . S
C404 H396 0.929 . S
C404 C405 1.377 . S
C404 C406 1.384 . S
C405 C404 1.377 . S
C405 C411 1.390 . S
C406 H397 0.930 . S
C406 C404 1.384 . S
C406 C407 1.372 . S
C407 C406 1.372 . S
C407 C408 1.400 . S
C407 C412 1.490 . S
C408 H398 0.930 . S
C408 C407 1.400 . S
C408 C411 1.386 . S
H409 C425 0.930 1_455 S
H410 C426 0.931 . S
C411 H399 0.929 . S
C411 C405 1.390 . S
C411 C408 1.386 . S
C412 C407 1.490 . S
C412 C414 1.395 . S
C412 C415 1.403 . S
H413 C419 0.930 . S
C414 H400 0.930 . S
C414 C412 1.395 . S
C414 C417 1.403 . S
C415 C412 1.403 . S
C415 C416 1.524 . S
C415 C419 1.400 . S
C416 H401 0.960 . S
C416 H402 0.960 . S
C416 H403 0.960 . S
C416 C415 1.524 . S
C417 C414 1.403 . S
C417 C418 1.392 . S
C417 C421 1.495 . S
C418 C417 1.392 . S
C418 C419 1.385 . S
C418 C420 1.478 . S
C419 H413 0.930 . S
C419 C415 1.400 . S
C419 C418 1.385 . S
C420 C418 1.478 . S
C420 C422 1.381 . S
C420 C426 1.383 . S
C421 C417 1.495 . S
C421 H427 0.959 . S
C421 H428 0.961 . S
C421 H429 0.960 . S
C422 C420 1.381 . S
C422 C423 1.394 . S
C422 H430 0.930 . S
C423 C422 1.394 . S
C423 C424 1.383 . S
C423 H431 0.929 . S
C424 C423 1.383 . S
C424 C425 1.377 . S
C425 H409 0.930 1_655 S
C425 C424 1.377 . S
C425 C426 1.379 . S
C426 H410 0.931 . S
C426 C420 1.383 . S
C426 C425 1.379 . S
H427 C421 0.959 . S
H428 C421 0.961 . S
H429 C421 0.960 . S
H430 C422 0.930 . S
H431 C423 0.929 . S
H432 C440 0.929 . S
H433 C442 0.930 . S
H434 C444 0.930 . S
H435 C447 0.929 . S
H436 C450 0.930 . S
H437 C452 0.960 . S
H438 C452 0.960 . S
H439 C452 0.960 . S
C440 H432 0.929 . S
C440 C441 1.377 . S
C440 C442 1.384 . S
C441 C440 1.377 . S
C441 C447 1.390 . S
C442 H433 0.930 . S
C442 C440 1.384 . S
C442 C443 1.372 . S
C443 C442 1.372 . S
C443 C444 1.400 . S
C443 C448 1.490 . S
C444 H434 0.930 . S
C444 C443 1.400 . S
C444 C447 1.386 . S
H445 C461 0.930 . S
H446 C462 0.931 . S
C447 H435 0.929 . S
C447 C441 1.390 . S
C447 C444 1.386 . S
C448 C443 1.490 . S
C448 C450 1.395 . S
C448 C451 1.403 . S
H449 C455 0.930 . S
C450 H436 0.930 . S
C450 C448 1.395 . S
C450 C453 1.403 . S
C451 C448 1.403 . S
C451 C452 1.524 . S
C451 C455 1.400 . S
C452 H437 0.960 . S
C452 H438 0.960 . S
C452 H439 0.960 . S
C452 C451 1.524 . S
C453 C450 1.403 . S
C453 C454 1.392 . S
C453 C457 1.495 . S
C454 C453 1.392 . S
C454 C455 1.385 . S
C454 C456 1.478 . S
C455 H449 0.930 . S
C455 C451 1.400 . S
C455 C454 1.385 . S
C456 C454 1.478 . S
C456 C458 1.381 . S
C456 C462 1.383 . S
C457 C453 1.495 . S
C457 H463 0.959 . S
C457 H464 0.961 . S
C457 H465 0.960 . S
C458 C456 1.381 . S
C458 C459 1.394 . S
C458 H466 0.930 . S
C459 C458 1.394 . S
C459 C460 1.383 . S
C459 H467 0.929 . S
C460 C459 1.383 . S
C460 C461 1.377 . S
C461 H445 0.930 . S
C461 C460 1.377 . S
C461 C462 1.379 . S
C462 H446 0.931 . S
C462 C456 1.383 . S
C462 C461 1.379 . S
H463 C457 0.959 . S
H464 C457 0.961 . S
H465 C457 0.960 . S
H466 C458 0.930 . S
H467 C459 0.929 . S
H468 C476 0.929 . S
H469 C478 0.930 . S
H470 C480 0.930 . S
H471 C483 0.929 . S
H472 C486 0.930 . S
H473 C488 0.960 . S
H474 C488 0.960 . S
H475 C488 0.960 . S
C476 H468 0.929 . S
C476 C477 1.377 . S
C476 C478 1.384 . S
C477 C476 1.377 . S
C477 C483 1.390 . S
C478 H469 0.930 . S
C478 C476 1.384 . S
C478 C479 1.372 . S
C479 C478 1.372 . S
C479 C480 1.400 . S
C479 C484 1.490 . S
C480 H470 0.930 . S
C480 C479 1.400 . S
C480 C483 1.386 . S
H481 C497 0.930 . S
H482 C498 0.931 . S
C483 H471 0.929 . S
C483 C477 1.390 . S
C483 C480 1.386 . S
C484 C479 1.490 . S
C484 C486 1.395 . S
C484 C487 1.403 . S
H485 C491 0.930 . S
C486 H472 0.930 . S
C486 C484 1.395 . S
C486 C489 1.403 . S
C487 C484 1.403 . S
C487 C488 1.524 . S
C487 C491 1.400 . S
C488 H473 0.960 . S
C488 H474 0.960 . S
C488 H475 0.960 . S
C488 C487 1.524 . S
C489 C486 1.403 . S
C489 C490 1.392 . S
C489 C493 1.495 . S
C490 C489 1.392 . S
C490 C491 1.385 . S
C490 C492 1.478 1_556 S
C491 H485 0.930 . S
C491 C487 1.400 . S
C491 C490 1.385 . S
C492 C490 1.478 1_554 S
C492 C494 1.381 . S
C492 C498 1.383 . S
C493 C489 1.495 . S
C493 H499 0.959 . S
C493 H500 0.961 . S
C493 H501 0.960 . S
C494 C492 1.381 . S
C494 C495 1.394 . S
C494 H502 0.930 . S
C495 C494 1.394 . S
C495 C496 1.383 . S
C495 H503 0.929 . S
C496 C495 1.383 . S
C496 C497 1.377 . S
C497 H481 0.930 . S
C497 C496 1.377 . S
C497 C498 1.379 . S
C498 H482 0.931 . S
C498 C492 1.383 . S
C498 C497 1.379 . S
H499 C493 0.959 . S
H500 C493 0.961 . S
H501 C493 0.960 . S
H502 C494 0.930 . S
H503 C495 0.929 . S
H504 C512 0.929 . S
H505 C514 0.930 . S
H506 C516 0.930 . S
H507 C519 0.929 . S
H508 C522 0.930 . S
H509 C524 0.960 . S
H510 C524 0.960 . S
H511 C524 0.960 . S
C512 H504 0.929 . S
C512 C513 1.377 . S
C512 C514 1.384 . S
C513 C512 1.377 . S
C513 C519 1.390 . S
C514 H505 0.930 . S
C514 C512 1.384 . S
C514 C515 1.372 . S
C515 C514 1.372 . S
C515 C516 1.400 . S
C515 C520 1.490 . S
C516 H506 0.930 . S
C516 C515 1.400 . S
C516 C519 1.386 . S
H517 C533 0.930 . S
H518 C534 0.931 . S
C519 H507 0.929 . S
C519 C513 1.390 . S
C519 C516 1.386 . S
C520 C515 1.490 . S
C520 C522 1.395 . S
C520 C523 1.403 . S
H521 C527 0.930 . S
C522 H508 0.930 . S
C522 C520 1.395 . S
C522 C525 1.403 . S
C523 C520 1.403 . S
C523 C524 1.524 . S
C523 C527 1.400 . S
C524 H509 0.960 . S
C524 H510 0.960 . S
C524 H511 0.960 . S
C524 C523 1.524 . S
C525 C522 1.403 . S
C525 C526 1.392 . S
C525 C529 1.495 1_565 S
C526 C525 1.392 . S
C526 C527 1.385 . S
C526 C528 1.478 . S
C527 H521 0.930 . S
C527 C523 1.400 . S
C527 C526 1.385 . S
C528 C526 1.478 . S
C528 C530 1.381 . S
C528 C534 1.383 . S
C529 C525 1.495 1_545 S
C529 H535 0.959 . S
C529 H536 0.961 . S
C529 H537 0.960 . S
C530 C528 1.381 . S
C530 C531 1.394 1_565 S
C530 H538 0.930 . S
C531 C530 1.394 1_545 S
C531 C532 1.383 . S
C531 H539 0.929 . S
C532 C531 1.383 . S
C532 C533 1.377 . S
C533 H517 0.930 . S
C533 C532 1.377 . S
C533 C534 1.379 1_545 S
C534 H518 0.931 . S
C534 C528 1.383 . S
C534 C533 1.379 1_565 S
H535 C529 0.959 . S
H536 C529 0.961 . S
H537 C529 0.960 . S
H538 C530 0.930 . S
H539 C531 0.929 . S
H540 C548 0.929 . S
H541 C550 0.930 . S
H542 C552 0.930 . S
H543 C555 0.929 . S
H544 C558 0.930 . S
H545 C560 0.960 . S
H546 C560 0.960 . S
H547 C560 0.960 1_455 S
C548 H540 0.929 . S
C548 C549 1.377 1_655 S
C548 C550 1.384 . S
C549 C548 1.377 1_455 S
C549 C555 1.390 . S
C550 H541 0.930 . S
C550 C548 1.384 . S
C550 C551 1.372 . S
C551 C550 1.372 . S
C551 C552 1.400 1_655 S
C551 C556 1.490 . S
C552 H542 0.930 . S
C552 C551 1.400 1_455 S
C552 C555 1.386 . S
H553 C569 0.930 . S
H554 C570 0.931 . S
C555 H543 0.929 . S
C555 C549 1.390 . S
C555 C552 1.386 . S
C556 C551 1.490 . S
C556 C558 1.395 . S
C556 C559 1.403 . S
H557 C563 0.930 . S
C558 H544 0.930 . S
C558 C556 1.395 . S
C558 C561 1.403 . S
C559 C556 1.403 . S
C559 C560 1.524 . S
C559 C563 1.400 . S
C560 H545 0.960 . S
C560 H546 0.960 . S
C560 H547 0.960 1_655 S
C560 C559 1.524 . S
C561 C558 1.403 . S
C561 C562 1.392 . S
C561 C565 1.495 . S
C562 C561 1.392 . S
C562 C563 1.385 . S
C562 C564 1.478 . S
C563 H557 0.930 . S
C563 C559 1.400 . S
C563 C562 1.385 . S
C564 C562 1.478 . S
C564 C566 1.381 . S
C564 C570 1.383 . S
C565 C561 1.495 . S
C565 H571 0.959 . S
C565 H572 0.961 . S
C565 H573 0.960 . S
C566 C564 1.381 . S
C566 C567 1.394 . S
C566 H574 0.930 . S
C567 C566 1.394 . S
C567 C568 1.383 . S
C567 H575 0.929 . S
C568 C567 1.383 . S
C568 C569 1.377 . S
C569 H553 0.930 . S
C569 C568 1.377 . S
C569 C570 1.379 . S
C570 H554 0.931 . S
C570 C564 1.383 . S
C570 C569 1.379 . S
H571 C565 0.959 . S
H572 C565 0.961 . S
H573 C565 0.960 . S
H574 C566 0.930 . S
H575 C567 0.929 . S
C261 C63 1.306 . S
C280 C74 1.301 . S
C297 C158 1.320 . S
C316 C147 1.343 . S
C333 C242 1.321 . S
C352 C231 1.336 . S
C369 C226 1.988 . S
C388 C67 2.154 . S
C405 C154 0.854 . S
C424 C56 0.964 . S
C441 C235 2.142 . S
C460 C142 1.980 . S
C477 C224 0.911 . S
C496 C70 0.933 . S
C513 C58 1.975 . S
C532 C151 2.121 . S
C549 C238 0.835 1_455 S
C568 C140 0.950 . S
