# Generated by pormake.
# Topology umg, (4)-cn, num edge types: 1
# Building blocks:
#     Node 0, Type 0, BuildingBlock: QUQFOY_clean_sbu_1, # of connection points: 4
#     Node 1, Type 0, BuildingBlock: QUQFOY_clean_sbu_1, # of connection points: 4
#     Node 2, Type 0, BuildingBlock: QUQFOY_clean_sbu_1, # of connection points: 4
#     Node 3, Type 0, BuildingBlock: QUQFOY_clean_sbu_1, # of connection points: 4
#     Node 4, Type 0, BuildingBlock: QUQFOY_clean_sbu_1, # of connection points: 4
#     Node 5, Type 0, BuildingBlock: QUQFOY_clean_sbu_1, # of connection points: 4
#     Node 6, Type 0, BuildingBlock: QUQFOY_clean_sbu_1, # of connection points: 4
#     Node 7, Type 0, BuildingBlock: QUQFOY_clean_sbu_1, # of connection points: 4
#     Node 8, Type 0, BuildingBlock: QUQFOY_clean_sbu_1, # of connection points: 4
#     Node 9, Type 0, BuildingBlock: QUQFOY_clean_sbu_1, # of connection points: 4
#     Node 10, Type 0, BuildingBlock: QUQFOY_clean_sbu_1, # of connection points: 4
#     Node 11, Type 0, BuildingBlock: QUQFOY_clean_sbu_1, # of connection points: 4
#     Edge 12, Type (0, 0), BuildingBlock: UVAHIK_clean_linker_0, # of connection points: 2
#     Edge 13, Type (0, 0), BuildingBlock: UVAHIK_clean_linker_0, # of connection points: 2
#     Edge 14, Type (0, 0), BuildingBlock: UVAHIK_clean_linker_0, # of connection points: 2
#     Edge 15, Type (0, 0), BuildingBlock: UVAHIK_clean_linker_0, # of connection points: 2
#     Edge 16, Type (0, 0), BuildingBlock: UVAHIK_clean_linker_0, # of connection points: 2
#     Edge 17, Type (0, 0), BuildingBlock: UVAHIK_clean_linker_0, # of connection points: 2
#     Edge 18, Type (0, 0), BuildingBlock: UVAHIK_clean_linker_0, # of connection points: 2
#     Edge 19, Type (0, 0), BuildingBlock: UVAHIK_clean_linker_0, # of connection points: 2
#     Edge 20, Type (0, 0), BuildingBlock: UVAHIK_clean_linker_0, # of connection points: 2
#     Edge 21, Type (0, 0), BuildingBlock: UVAHIK_clean_linker_0, # of connection points: 2
#     Edge 22, Type (0, 0), BuildingBlock: UVAHIK_clean_linker_0, # of connection points: 2
#     Edge 23, Type (0, 0), BuildingBlock: UVAHIK_clean_linker_0, # of connection points: 2
#     Edge 24, Type (0, 0), BuildingBlock: UVAHIK_clean_linker_0, # of connection points: 2
#     Edge 25, Type (0, 0), BuildingBlock: UVAHIK_clean_linker_0, # of connection points: 2
#     Edge 26, Type (0, 0), BuildingBlock: UVAHIK_clean_linker_0, # of connection points: 2
#     Edge 27, Type (0, 0), BuildingBlock: UVAHIK_clean_linker_0, # of connection points: 2
#     Edge 28, Type (0, 0), BuildingBlock: UVAHIK_clean_linker_0, # of connection points: 2
#     Edge 29, Type (0, 0), BuildingBlock: UVAHIK_clean_linker_0, # of connection points: 2
#     Edge 30, Type (0, 0), BuildingBlock: UVAHIK_clean_linker_0, # of connection points: 2
#     Edge 31, Type (0, 0), BuildingBlock: UVAHIK_clean_linker_0, # of connection points: 2
#     Edge 32, Type (0, 0), BuildingBlock: UVAHIK_clean_linker_0, # of connection points: 2
#     Edge 33, Type (0, 0), BuildingBlock: UVAHIK_clean_linker_0, # of connection points: 2
#     Edge 34, Type (0, 0), BuildingBlock: UVAHIK_clean_linker_0, # of connection points: 2
#     Edge 35, Type (0, 0), BuildingBlock: UVAHIK_clean_linker_0, # of connection points: 2
# Relax obj value: 0.072
# Max RMSD: 0.291
# Mean RMSD: 0.197
data_MOF--net-umg--node1-QUQFOY_clean_sbu_1--edge1-UVAHIK_clean_linker_0
_symmetry_space_group_name_H-M    P1
_symmetry_Int_Tables_number       1
_symmetry_cell_setting            triclinic
loop_
_symmetry_equiv_pos_as_xyz
'x, y, z'
_cell_length_a     37.676898
_cell_length_b     37.694133
_cell_length_c     110.40897
_cell_angle_alpha  89.978097
_cell_angle_beta   90.057185
_cell_angle_gamma 120.04814
loop_
_atom_site_label
_atom_site_type_symbol
_atom_site_fract_x
_atom_site_fract_y
_atom_site_fract_z
_atom_type_partial_charge
O0 O 0.2811 0.65837 0.05725 0.0
Cd1 Cd 0.27024 0.63963 0.07515 0.0
Cd2 Cd 0.28361 0.7205 0.07672 0.0
O3 O 0.29839 0.7238 0.05859 0.0
O4 O 0.28178 0.59257 0.07686 0.0
O5 O 0.32051 0.65369 0.08488 0.0
C6 C 0.31466 0.61765 0.08269 0.0
C7 C 0.3288 0.75501 0.09252 0.0
C8 C 0.29309 0.69314 0.05233 0.0
C9 C 0.19937 0.65068 0.08321 0.0
O10 O 0.22234 0.68856 0.08085 0.0
O11 O 0.21319 0.62593 0.08242 0.0
O12 O 0.31251 0.77281 0.08654 0.0
O13 O 0.32069 0.71914 0.08904 0.0
O14 O 0.82044 0.35185 0.40482 0.0
Cd15 Cd 0.83874 0.32964 0.41918 0.0
Cd16 Cd 0.77866 0.33876 0.42994 0.0
O17 O 0.77831 0.36776 0.41408 0.0
O18 O 0.8963 0.34295 0.41506 0.0
O19 O 0.88164 0.37165 0.43019 0.0
C20 C 0.90897 0.36982 0.42365 0.0
C21 C 0.79362 0.36864 0.4491 0.0
C22 C 0.79703 0.36713 0.40457 0.0
C23 C 0.76321 0.25252 0.42708 0.0
O24 O 0.74869 0.27579 0.42945 0.0
O25 O 0.80041 0.26783 0.42366 0.0
O26 O 0.7581 0.35618 0.44422 0.0
O27 O 0.82091 0.36587 0.44279 0.0
O28 O 0.35907 0.63055 0.72284 0.0
Cd29 Cd 0.37998 0.63806 0.74052 0.0
Cd30 Cd 0.2992 0.57396 0.74293 0.0
O31 O 0.29332 0.58433 0.72488 0.0
O32 O 0.42849 0.69589 0.74132 0.0
O33 O 0.37045 0.67587 0.75105 0.0
C34 C 0.40619 0.70513 0.74802 0.0
C35 C 0.26613 0.58483 0.75906 0.0
C36 C 0.32351 0.60859 0.71828 0.0
C37 C 0.36705 0.55566 0.74848 0.0
O38 O 0.32908 0.54224 0.74663 0.0
O39 O 0.39303 0.59384 0.74737 0.0
O40 O 0.24742 0.55132 0.75284 0.0
O41 O 0.30226 0.61229 0.75563 0.0
O42 O 0.67019 0.46964 0.06953 0.0
Cd43 Cd 0.69111 0.5096 0.084 0.0
Cd44 Cd 0.67965 0.44097 0.09559 0.0
O45 O 0.65011 0.41212 0.0797 0.0
O46 O 0.67634 0.55356 0.08101 0.0
O47 O 0.64626 0.50474 0.09475 0.0
C48 C 0.64792 0.5354 0.08905 0.0
C49 C 0.65047 0.42384 0.11488 0.0
C50 C 0.65275 0.43072 0.06982 0.0
C51 C 0.7667 0.50977 0.09276 0.0
O52 O 0.74259 0.47209 0.0951 0.0
O53 O 0.75234 0.53233 0.0892 0.0
O54 O 0.66177 0.40086 0.10939 0.0
O55 O 0.65404 0.45525 0.10915 0.0
O56 O 0.39189 0.73551 0.39265 0.0
Cd57 Cd 0.38808 0.74862 0.41064 0.0
Cd58 Cd 0.45472 0.73464 0.41062 0.0
O59 O 0.44075 0.7192 0.39262 0.0
O60 O 0.33064 0.73987 0.41225 0.0
O61 O 0.35106 0.70122 0.42138 0.0
C62 C 0.32172 0.70803 0.41877 0.0
C63 C 0.44425 0.68962 0.42639 0.0
C64 C 0.41362 0.72363 0.38706 0.0
C65 C 0.47178 0.81963 0.41726 0.0
O66 O 0.48576 0.79609 0.4146 0.0
O67 O 0.43319 0.80628 0.41705 0.0
O68 O 0.47747 0.70451 0.42002 0.0
O69 O 0.41696 0.69893 0.42329 0.0
O70 O 0.54176 0.20979 0.7366 0.0
Cd71 Cd 0.50209 0.18615 0.75106 0.0
Cd72 Cd 0.56985 0.24157 0.76257 0.0
O73 O 0.60003 0.24433 0.74662 0.0
O74 O 0.46004 0.12814 0.74667 0.0
O75 O 0.50582 0.14413 0.76124 0.0
C76 C 0.47661 0.11629 0.75478 0.0
C77 C 0.58902 0.23013 0.78165 0.0
C78 C 0.58071 0.23119 0.73667 0.0
C79 C 0.49914 0.25813 0.76043 0.0
O80 O 0.53701 0.27194 0.76258 0.0
O81 O 0.47674 0.22136 0.75676 0.0
O82 O 0.6094 0.26536 0.77641 0.0
O83 O 0.55909 0.20091 0.77576 0.0
O84 O 0.46834 0.65987 0.59676 0.0
Cd85 Cd 0.51226 0.6833 0.5833 0.0
Cd86 Cd 0.44622 0.6744 0.57057 0.0
O87 O 0.41324 0.6451 0.58594 0.0
O88 O 0.55502 0.66857 0.58804 0.0
O89 O 0.51418 0.64216 0.57222 0.0
C90 C 0.54196 0.64273 0.57917 0.0
C91 C 0.43284 0.64507 0.55131 0.0
C92 C 0.42973 0.64485 0.59598 0.0
C93 C 0.51604 0.7607 0.57467 0.0
O94 O 0.47922 0.73733 0.57126 0.0
O95 O 0.53687 0.74546 0.57906 0.0
O96 O 0.40993 0.65813 0.55589 0.0
O97 O 0.46199 0.64707 0.55793 0.0
O98 O 0.63114 0.35691 0.94188 0.0
Cd99 Cd 0.63909 0.37451 0.92389 0.0
Cd100 Cd 0.57352 0.29463 0.92224 0.0
O101 O 0.58358 0.29129 0.9405 0.0
O102 O 0.69792 0.42031 0.92188 0.0
O103 O 0.67381 0.35823 0.91433 0.0
C104 C 0.70468 0.39419 0.91627 0.0
C105 C 0.57887 0.25489 0.90703 0.0
C106 C 0.60838 0.32215 0.94681 0.0
C107 C 0.55818 0.36377 0.91548 0.0
O108 O 0.54385 0.32597 0.91777 0.0
O109 O 0.59658 0.38898 0.91646 0.0
O110 O 0.54553 0.24081 0.91329 0.0
O111 O 0.6093 0.2902 0.9099 0.0
O112 O 0.35072 0.81607 0.26273 0.0
Cd113 Cd 0.32857 0.83336 0.24815 0.0
Cd114 Cd 0.33989 0.7749 0.23755 0.0
O115 O 0.36936 0.77604 0.25349 0.0
O116 O 0.34136 0.89094 0.25189 0.0
O117 O 0.37098 0.87566 0.23715 0.0
C118 C 0.36874 0.90324 0.24346 0.0
C119 C 0.36954 0.78813 0.21837 0.0
C120 C 0.36744 0.79397 0.26301 0.0
C121 C 0.25275 0.75689 0.24018 0.0
O122 O 0.27687 0.74322 0.238 0.0
O123 O 0.26711 0.79408 0.24348 0.0
O124 O 0.35833 0.7536 0.22371 0.0
O125 O 0.36565 0.81559 0.22421 0.0
O126 O 0.65982 0.27681 0.60863 0.0
Cd127 Cd 0.64257 0.26392 0.59069 0.0
Cd128 Cd 0.72335 0.27899 0.59045 0.0
O129 O 0.72593 0.29688 0.60827 0.0
O130 O 0.59365 0.27236 0.58919 0.0
O131 O 0.65274 0.31161 0.58012 0.0
C132 C 0.61652 0.30451 0.58277 0.0
C133 C 0.75668 0.32239 0.57423 0.0
C134 C 0.69413 0.29081 0.61403 0.0
C135 C 0.65568 0.19329 0.58431 0.0
O136 O 0.69312 0.21701 0.5871 0.0
O137 O 0.63041 0.20658 0.58421 0.0
O138 O 0.77571 0.30868 0.58078 0.0
O139 O 0.72 0.31271 0.57735 0.0
O140 O 0.20958 0.54485 0.92964 0.0
Cd141 Cd 0.19014 0.50407 0.91534 0.0
Cd142 Cd 0.24839 0.57285 0.90365 0.0
O143 O 0.24878 0.60211 0.91953 0.0
O144 O 0.1316 0.45984 0.91866 0.0
O145 O 0.14918 0.50731 0.90457 0.0
C146 C 0.12064 0.47694 0.91047 0.0
C147 C 0.23405 0.58883 0.8845 0.0
C148 C 0.23206 0.5837 0.92937 0.0
C149 C 0.26527 0.50314 0.90653 0.0
O150 O 0.2792 0.54076 0.90403 0.0
O151 O 0.22843 0.48107 0.91025 0.0
O152 O 0.26935 0.61171 0.88951 0.0
O153 O 0.20671 0.55822 0.89062 0.0
O154 O 0.73463 0.3868 0.27509 0.0
Cd155 Cd 0.7484 0.38162 0.25725 0.0
Cd156 Cd 0.73571 0.44984 0.25686 0.0
O157 O 0.72047 0.4372 0.27491 0.0
O158 O 0.73951 0.32396 0.25615 0.0
O159 O 0.70173 0.34403 0.24634 0.0
C160 C 0.70825 0.3148 0.24932 0.0
C161 C 0.69035 0.43619 0.24094 0.0
C162 C 0.72376 0.40955 0.28057 0.0
C163 C 0.82021 0.46466 0.25037 0.0
O164 O 0.79712 0.47936 0.25281 0.0
O165 O 0.80637 0.42602 0.25086 0.0
O166 O 0.7055 0.47076 0.24664 0.0
O167 O 0.6996 0.40961 0.2448 0.0
C168 C 0.21335 0.59015 0.95063 0.0
C169 C 0.24036 0.60706 0.94079 0.0
C170 C 0.22282 0.61013 0.96181 0.0
C171 C 0.3097 0.6744 0.98066 0.0
H172 H 0.22993 0.68355 0.00061 0.0
C173 C 0.29034 0.72388 0.03244 0.0
C174 C 0.29804 0.6965 0.03902 0.0
C175 C 0.28897 0.72242 0.01976 0.0
C176 C 0.25277 0.68182 0.99508 0.0
H177 H 0.29802 0.65868 0.93486 0.0
H178 H 0.31509 0.69315 0.95459 0.0
H179 H 0.21418 0.66319 0.97935 0.0
H180 H 0.31287 0.64803 0.03754 0.0
H181 H 0.31152 0.64625 0.01546 0.0
H182 H 0.34734 0.69081 0.99658 0.0
C183 C 0.28641 0.66462 0.95355 0.0
C184 C 0.24364 0.66992 0.98297 0.0
C185 C 0.27655 0.64499 0.94227 0.0
C186 C 0.30671 0.66939 0.0327 0.0
C187 C 0.30617 0.66852 0.02007 0.0
C188 C 0.31854 0.68564 0.99283 0.0
C189 C 0.25982 0.6471 0.96345 0.0
C190 C 0.27168 0.66529 0.97572 0.0
C191 C 0.29623 0.69424 0.01348 0.0
C192 C 0.28981 0.68863 0.00022 0.0
H193 H 0.18517 0.56104 0.94975 0.0
H194 H 0.20196 0.59577 0.96933 0.0
H195 H 0.33172 0.67076 0.97529 0.0
H196 H 0.28335 0.74495 0.03708 0.0
H197 H 0.28131 0.74261 0.01487 0.0
C198 C 0.81706 0.38954 0.38319 0.0
C199 C 0.78962 0.38121 0.39281 0.0
C200 C 0.80768 0.3969 0.37157 0.0
C201 C 0.7381 0.41894 0.35332 0.0
H202 H 0.76242 0.36091 0.3287 0.0
C203 C 0.70847 0.36793 0.29937 0.0
C204 C 0.71866 0.40543 0.29387 0.0
C205 C 0.71114 0.36527 0.3119 0.0
C206 C 0.75485 0.3769 0.33545 0.0
H207 H 0.73182 0.37638 0.39793 0.0
H208 H 0.71495 0.38848 0.37748 0.0
H209 H 0.78052 0.35819 0.34957 0.0
H210 H 0.73703 0.46898 0.29722 0.0
H211 H 0.74278 0.46464 0.31919 0.0
H212 H 0.71166 0.43696 0.33904 0.0
C213 C 0.74396 0.38973 0.37898 0.0
C214 C 0.76592 0.37593 0.34743 0.0
C215 C 0.75358 0.38272 0.39069 0.0
C216 C 0.7289 0.43965 0.30123 0.0
C217 C 0.73215 0.43713 0.31382 0.0
C218 C 0.72691 0.41991 0.34125 0.0
C219 C 0.77036 0.3956 0.36923 0.0
C220 C 0.75803 0.39714 0.35651 0.0
C221 C 0.7248 0.40023 0.31923 0.0
C222 C 0.73513 0.39879 0.33218 0.0
H223 H 0.84539 0.38925 0.38456 0.0
H224 H 0.82925 0.40247 0.36434 0.0
H225 H 0.73167 0.43568 0.36011 0.0
H226 H 0.69988 0.34088 0.29393 0.0
H227 H 0.70403 0.33607 0.31579 0.0
C228 C 0.28935 0.57435 0.69878 0.0
C229 C 0.31867 0.60939 0.70501 0.0
C230 C 0.28949 0.57317 0.6861 0.0
C231 C 0.32777 0.63677 0.65855 0.0
H232 H 0.34248 0.54913 0.64577 0.0
C233 C 0.3681 0.63083 0.60829 0.0
C234 C 0.4047 0.62974 0.60711 0.0
C235 C 0.34769 0.62199 0.61944 0.0
C236 C 0.33787 0.57346 0.64919 0.0
H237 H 0.36927 0.67149 0.7029 0.0
H238 H 0.36885 0.66975 0.68082 0.0
H239 H 0.32331 0.5476 0.66701 0.0
H240 H 0.44726 0.61623 0.61642 0.0
H241 H 0.41118 0.59993 0.63574 0.0
H242 H 0.34384 0.6634 0.64083 0.0
C243 C 0.34602 0.64311 0.6857 0.0
C244 C 0.32665 0.57247 0.6613 0.0
C245 C 0.3464 0.64402 0.69834 0.0
C246 C 0.41921 0.61747 0.61707 0.0
C247 C 0.39843 0.6079 0.62811 0.0
C248 C 0.33839 0.63745 0.64638 0.0
C249 C 0.31836 0.60732 0.67946 0.0
C250 C 0.32275 0.60476 0.66619 0.0
C251 C 0.36305 0.61105 0.6295 0.0
C252 C 0.34479 0.60646 0.64169 0.0
H253 H 0.26774 0.54714 0.70369 0.0
H254 H 0.26778 0.54525 0.68149 0.0
H255 H 0.32484 0.66198 0.66209 0.0
H256 H 0.3563 0.64037 0.60079 0.0
H257 H 0.32041 0.62454 0.62028 0.0
C258 C 0.6353 0.36926 0.05695 0.0
C259 C 0.63769 0.40746 0.05838 0.0
C260 C 0.62576 0.34976 0.04565 0.0
C261 C 0.57937 0.34539 0.016 0.0
H262 H 0.66234 0.32411 0.00282 0.0
C263 C 0.64485 0.34623 0.96658 0.0
C264 C 0.60935 0.31895 0.96013 0.0
C265 C 0.64463 0.3471 0.97921 0.0
C266 C 0.63866 0.32938 0.00645 0.0
H267 H 0.62987 0.45412 0.0493 0.0
H268 H 0.61226 0.4196 0.02969 0.0
H269 H 0.66593 0.34383 0.02412 0.0
H270 H 0.54614 0.27028 0.96185 0.0
H271 H 0.54547 0.27264 0.98406 0.0
H272 H 0.5528 0.33215 0.99823 0.0
C273 C 0.6181 0.40493 0.03726 0.0
C274 C 0.64058 0.34043 0.01862 0.0
C275 C 0.62841 0.42478 0.04846 0.0
C276 C 0.57399 0.29147 0.96659 0.0
C277 C 0.57352 0.29294 0.97927 0.0
C278 C 0.57705 0.33365 0.00388 0.0
C279 C 0.61754 0.36769 0.03568 0.0
C280 C 0.61162 0.34968 0.02341 0.0
C281 C 0.60869 0.32122 0.98567 0.0
C282 C 0.60734 0.32669 0.99891 0.0
H283 H 0.64247 0.35526 0.06442 0.0
H284 H 0.62545 0.32102 0.04465 0.0
H285 H 0.55661 0.35225 0.01949 0.0
H286 H 0.67256 0.36768 0.96183 0.0
H287 H 0.67204 0.36943 0.98391 0.0
C288 C 0.38402 0.75152 0.27696 0.0
C289 C 0.38179 0.78711 0.27479 0.0
C290 C 0.3913 0.74231 0.28869 0.0
C291 C 0.37772 0.76484 0.32026 0.0
H292 H 0.43909 0.71087 0.32859 0.0
C293 C 0.44278 0.72824 0.36631 0.0
C294 C 0.40895 0.71855 0.37379 0.0
C295 C 0.43984 0.73138 0.35374 0.0
C296 C 0.42197 0.72607 0.3264 0.0
H297 H 0.38881 0.84258 0.28296 0.0
H298 H 0.40269 0.82729 0.3032 0.0
H299 H 0.43732 0.73048 0.30752 0.0
H300 H 0.34461 0.70068 0.37394 0.0
H301 H 0.33899 0.70449 0.3521 0.0
H302 H 0.36324 0.76182 0.339 0.0
C303 C 0.39738 0.80566 0.296 0.0
C304 C 0.4207 0.73701 0.31432 0.0
C305 C 0.38968 0.81458 0.28437 0.0
C306 C 0.37137 0.70883 0.36841 0.0
C307 C 0.36826 0.71133 0.3559 0.0
C308 C 0.37906 0.75408 0.33224 0.0
C309 C 0.39679 0.76873 0.29841 0.0
C310 C 0.39874 0.75679 0.31114 0.0
C311 C 0.40288 0.72442 0.34845 0.0
C312 C 0.40107 0.73447 0.3355 0.0
H313 H 0.37801 0.72974 0.26975 0.0
H314 H 0.39057 0.71358 0.29022 0.0
H315 H 0.35983 0.77928 0.31813 0.0
H316 H 0.47217 0.73601 0.37023 0.0
H317 H 0.46712 0.74159 0.34828 0.0
C318 C 0.64543 0.2594 0.72422 0.0
C319 C 0.60275 0.24323 0.72495 0.0
C320 C 0.66567 0.27228 0.71305 0.0
C321 C 0.65784 0.31279 0.68403 0.0
H322 H 0.71072 0.25845 0.66895 0.0
C323 C 0.66244 0.29814 0.63297 0.0
C324 C 0.69565 0.29793 0.62727 0.0
C325 C 0.66098 0.30045 0.64553 0.0
C326 C 0.69704 0.27475 0.67312 0.0
H327 H 0.548 0.22792 0.71452 0.0
H328 H 0.58334 0.25111 0.69525 0.0
H329 H 0.69004 0.24486 0.69026 0.0
H330 H 0.75423 0.3015 0.63031 0.0
H331 H 0.75166 0.30563 0.65244 0.0
H332 H 0.66366 0.34194 0.66696 0.0
C333 C 0.60106 0.25358 0.70327 0.0
C334 C 0.68514 0.26685 0.6853 0.0
C335 C 0.58083 0.24005 0.71431 0.0
C336 C 0.72823 0.30162 0.63444 0.0
C337 C 0.72664 0.30373 0.6471 0.0
C338 C 0.67007 0.32103 0.67195 0.0
C339 C 0.6436 0.27004 0.70253 0.0
C340 C 0.66399 0.28459 0.69067 0.0
C341 C 0.69269 0.30265 0.65279 0.0
C342 C 0.68815 0.30073 0.66619 0.0
H343 H 0.66311 0.26217 0.73227 0.0
H344 H 0.69853 0.28477 0.71265 0.0
H345 H 0.64196 0.32718 0.68805 0.0
H346 H 0.63686 0.29547 0.62774 0.0
H347 H 0.63401 0.29882 0.64957 0.0
C348 C 0.39199 0.76739 0.19963 0.0
C349 C 0.38264 0.79463 0.20555 0.0
C350 C 0.39867 0.77021 0.18712 0.0
C351 C 0.41134 0.83466 0.15972 0.0
H352 H 0.35837 0.7288 0.1438 0.0
C353 C 0.3496 0.80312 0.11024 0.0
C354 C 0.35217 0.77226 0.10384 0.0
C355 C 0.36406 0.81256 0.12218 0.0
C356 C 0.37396 0.75868 0.14808 0.0
H357 H 0.37494 0.84749 0.20311 0.0
H358 H 0.38494 0.85146 0.18131 0.0
H359 H 0.36377 0.73211 0.16567 0.0
H360 H 0.37552 0.73004 0.10447 0.0
H361 H 0.40086 0.74674 0.12515 0.0
H362 H 0.41934 0.8608 0.14194 0.0
C363 C 0.38814 0.82845 0.18628 0.0
C364 C 0.37724 0.76063 0.16067 0.0
C365 C 0.38214 0.82602 0.19881 0.0
C366 C 0.37256 0.75359 0.10921 0.0
C367 C 0.38697 0.76302 0.12108 0.0
C368 C 0.40759 0.83264 0.14708 0.0
C369 C 0.39537 0.79986 0.18021 0.0
C370 C 0.39561 0.79859 0.1667 0.0
C371 C 0.38131 0.79129 0.12787 0.0
C372 C 0.38859 0.79456 0.14114 0.0
H373 H 0.39306 0.74316 0.2046 0.0
H374 H 0.40529 0.74834 0.18283 0.0
H375 H 0.42618 0.86448 0.16402 0.0
H376 H 0.33404 0.81801 0.10634 0.0
H377 H 0.35923 0.83446 0.1272 0.0
C378 C 0.77155 0.38369 0.46894 0.0
C379 C 0.8017 0.38193 0.46191 0.0
C380 C 0.77686 0.39022 0.48144 0.0
C381 C 0.82648 0.36941 0.50649 0.0
H382 H 0.78956 0.43152 0.52535 0.0
C383 C 0.81141 0.35081 0.55821 0.0
C384 C 0.77419 0.34516 0.56282 0.0
C385 C 0.82415 0.36639 0.54651 0.0
C386 C 0.79992 0.41392 0.52023 0.0
H387 H 0.86215 0.38809 0.46238 0.0
H388 H 0.87117 0.39921 0.4842 0.0
H389 H 0.79381 0.43845 0.50333 0.0
H390 H 0.72254 0.35396 0.55909 0.0
H391 H 0.74404 0.37996 0.53877 0.0
H392 H 0.83044 0.34305 0.52319 0.0
C393 C 0.84335 0.39525 0.48005 0.0
C394 C 0.80244 0.41801 0.50762 0.0
C395 C 0.8382 0.38905 0.46754 0.0
C396 C 0.75132 0.35773 0.5558 0.0
C397 C 0.76388 0.37304 0.54413 0.0
C398 C 0.82359 0.365 0.51907 0.0
C399 C 0.81229 0.39484 0.48718 0.0
C400 C 0.81485 0.39508 0.5006 0.0
C401 C 0.79984 0.37648 0.53918 0.0
C402 C 0.80925 0.38639 0.52609 0.0
H403 H 0.74313 0.3784 0.46488 0.0
H404 H 0.75223 0.38945 0.48671 0.0
H405 H 0.8357 0.35094 0.50132 0.0
H406 H 0.82985 0.34164 0.56343 0.0
H407 H 0.85242 0.36935 0.54307 0.0
C408 C 0.27251 0.62564 0.77756 0.0
C409 C 0.24916 0.59026 0.77055 0.0
C410 C 0.26071 0.62822 0.78934 0.0
C411 C 0.20232 0.55956 0.81444 0.0
H412 H 0.23407 0.66227 0.83081 0.0
C413 C 0.18936 0.56626 0.86608 0.0
C414 C 0.22613 0.59494 0.87175 0.0
C415 C 0.18408 0.56821 0.85362 0.0
C416 C 0.22492 0.63335 0.82634 0.0
H417 H 0.1933 0.53118 0.77007 0.0
H418 H 0.17198 0.5361 0.7906 0.0
H419 H 0.23708 0.66064 0.80872 0.0
H420 H 0.28512 0.64965 0.86892 0.0
H421 H 0.2758 0.65314 0.84714 0.0
H422 H 0.19083 0.53246 0.83206 0.0
C423 C 0.20011 0.56143 0.78708 0.0
C424 C 0.22672 0.63238 0.8137 0.0
C425 C 0.21213 0.55872 0.77528 0.0
C426 C 0.25649 0.62706 0.86482 0.0
C427 C 0.25107 0.62916 0.85235 0.0
C428 C 0.20011 0.56048 0.82705 0.0
C429 C 0.22503 0.59562 0.79441 0.0
C430 C 0.2166 0.59567 0.8076 0.0
C431 C 0.2153 0.59906 0.84657 0.0
C432 C 0.21241 0.59755 0.83316 0.0
H433 H 0.30118 0.65063 0.77418 0.0
H434 H 0.28099 0.65486 0.79469 0.0
H435 H 0.19493 0.53085 0.81014 0.0
H436 H 0.16523 0.54124 0.87117 0.0
H437 H 0.15601 0.54488 0.84944 0.0
C438 C 0.63643 0.44792 0.13443 0.0
C439 C 0.63755 0.41681 0.12772 0.0
C440 C 0.63036 0.44415 0.14695 0.0
C441 C 0.6442 0.38964 0.17269 0.0
H442 H 0.59728 0.44371 0.19114 0.0
C443 C 0.64889 0.38919 0.22423 0.0
C444 C 0.66711 0.42839 0.2295 0.0
C445 C 0.63465 0.38308 0.21232 0.0
C446 C 0.61039 0.42842 0.18609 0.0
H447 H 0.63008 0.35604 0.12872 0.0
H448 H 0.61789 0.34867 0.1505 0.0
H449 H 0.59071 0.43989 0.16906 0.0
H450 H 0.68157 0.49117 0.22676 0.0
H451 H 0.65666 0.48046 0.20585 0.0
H452 H 0.66421 0.37851 0.18964 0.0
C453 C 0.62318 0.3767 0.14618 0.0
C454 C 0.60679 0.42632 0.17344 0.0
C455 C 0.62985 0.38074 0.13367 0.0
C456 C 0.6677 0.46063 0.22294 0.0
C457 C 0.65338 0.45448 0.21097 0.0
C458 C 0.64737 0.39134 0.18529 0.0
C459 C 0.62473 0.40893 0.15305 0.0
C460 C 0.62428 0.40747 0.16656 0.0
C461 C 0.63829 0.41599 0.2054 0.0
C462 C 0.63105 0.41123 0.19212 0.0
H463 H 0.64231 0.47617 0.13011 0.0
H464 H 0.63222 0.46983 0.15189 0.0
H465 H 0.65896 0.37575 0.16776 0.0
H466 H 0.64749 0.36354 0.22909 0.0
H467 H 0.62242 0.35291 0.20834 0.0
C468 C 0.39653 0.62943 0.5313 0.0
C469 C 0.42837 0.63175 0.53851 0.0
C470 C 0.39571 0.6225 0.51884 0.0
C471 C 0.4668 0.64323 0.49406 0.0
H472 H 0.36822 0.57902 0.47509 0.0
C473 C 0.47085 0.6613 0.44236 0.0
C474 C 0.43891 0.66623 0.43767 0.0
C475 C 0.46802 0.6456 0.45404 0.0
C476 C 0.39606 0.5972 0.48024 0.0
H477 H 0.48308 0.62633 0.53841 0.0
H478 H 0.48176 0.61459 0.51664 0.0
H479 H 0.36532 0.57286 0.49714 0.0
H480 H 0.37777 0.65584 0.44123 0.0
H481 H 0.37327 0.62966 0.46152 0.0
H482 H 0.49716 0.66947 0.47736 0.0
C483 C 0.45758 0.61834 0.52063 0.0
C484 C 0.39436 0.59354 0.49287 0.0
C485 C 0.4582 0.62491 0.5331 0.0
C486 C 0.40308 0.65265 0.44458 0.0
C487 C 0.40034 0.63724 0.45624 0.0
C488 C 0.46842 0.64722 0.48147 0.0
C489 C 0.42689 0.61805 0.51332 0.0
C490 C 0.42951 0.61727 0.49992 0.0
C491 C 0.43327 0.6347 0.46129 0.0
C492 C 0.43284 0.62509 0.4744 0.0
H493 H 0.37306 0.63449 0.5352 0.0
H494 H 0.37185 0.62276 0.51343 0.0
H495 H 0.49432 0.66228 0.49925 0.0
H496 H 0.49876 0.67124 0.43723 0.0
H497 H 0.49365 0.64331 0.45755 0.0
C498 C 0.61909 0.24139 0.89167 0.0
C499 C 0.58102 0.23441 0.89591 0.0
C500 C 0.62296 0.23002 0.87991 0.0
C501 C 0.56294 0.17875 0.85161 0.0
H502 H 0.66249 0.26165 0.83616 0.0
C503 C 0.57863 0.18511 0.79958 0.0
C504 C 0.59697 0.22445 0.79442 0.0
C505 C 0.58163 0.1802 0.81203 0.0
C506 C 0.63433 0.23832 0.84028 0.0
H507 H 0.51672 0.20808 0.8915 0.0
H508 H 0.52352 0.19015 0.87085 0.0
H509 H 0.65611 0.26214 0.85791 0.0
H510 H 0.63392 0.28942 0.7982 0.0
H511 H 0.63789 0.2812 0.81984 0.0
H512 H 0.53983 0.15728 0.83383 0.0
C513 C 0.55039 0.2031 0.8766 0.0
C514 C 0.63092 0.23805 0.85287 0.0
C515 C 0.54637 0.21349 0.88848 0.0
C516 C 0.6197 0.25867 0.80188 0.0
C517 C 0.62215 0.25384 0.81434 0.0
C518 C 0.56603 0.17955 0.83897 0.0
C519 C 0.58907 0.21263 0.87199 0.0
C520 C 0.59476 0.20888 0.85874 0.0
C521 C 0.6025 0.21458 0.81965 0.0
C522 C 0.60138 0.21006 0.83311 0.0
H523 H 0.64625 0.25719 0.89727 0.0
H524 H 0.65297 0.23658 0.8769 0.0
H525 H 0.53498 0.15515 0.85574 0.0
H526 H 0.56111 0.1581 0.79403 0.0
H527 H 0.56686 0.14945 0.81571 0.0
C528 C 0.84026 0.56719 0.09086 0.0
C529 C 0.81172 0.52607 0.09357 0.0
C530 C 0.88249 0.58102 0.09088 0.0
C531 C 0.95489 0.54279 0.08728 0.0
H532 H 0.03467 0.6468 0.10134 0.0
C533 C 0.12794 0.59411 0.08863 0.0
C534 C 0.15557 0.63567 0.0862 0.0
C535 C 0.0862 0.58038 0.09059 0.0
C536 C 0.01289 0.61783 0.09724 0.0
H537 H 0.80563 0.46765 0.09876 0.0
H538 H 0.87867 0.49172 0.09875 0.0
H539 H 0.96182 0.62479 0.10241 0.0
H540 H 0.16071 0.69541 0.08414 0.0
H541 H 0.08866 0.67153 0.08725 0.0
H542 H 1.00569 0.53609 0.08183 0.0
C543 C 0.86851 0.51319 0.09649 0.0
C544 C 0.97109 0.60525 0.09788 0.0
C545 C 0.82653 0.49949 0.09656 0.0
C546 C 0.14053 0.66317 0.08603 0.0
C547 C 0.099 0.64947 0.08791 0.0
C548 C 0.99667 0.5555 0.08655 0.0
C549 C 0.89703 0.55396 0.09352 0.0
C550 C 0.94158 0.56759 0.09289 0.0
C551 C 0.07108 0.60785 0.09012 0.0
C552 C 0.02634 0.5933 0.09147 0.0
H553 H 0.82999 0.5885 0.08851 0.0
H554 H 0.9037 0.61261 0.0885 0.0
H555 H 0.93298 0.51382 0.0832 0.0
H556 H 0.1384 0.57209 0.08887 0.0
H557 H 0.06579 0.54818 0.09245 0.0
C558 C 0.69371 0.19135 0.43065 0.0
C559 C 0.73535 0.20734 0.42773 0.0
C560 C 0.66632 0.14915 0.4305 0.0
C561 C 0.65301 0.0524 0.41762 0.0
H562 H 0.56217 1.00243 0.44023 0.0
C563 C 0.54394 0.87771 0.41942 0.0
C564 C 0.50154 0.86341 0.41998 0.0
C565 C 0.57255 0.91915 0.42109 0.0
C566 C 0.58717 0.016 0.43379 0.0
H567 H 0.78089 0.19097 0.42267 0.0
H568 H 0.73316 0.11705 0.42265 0.0
H569 H 0.61308 0.07504 0.44216 0.0
H570 H 0.45623 0.8818 0.4231 0.0
H571 H 0.50647 0.95451 0.42611 0.0
H572 H 0.62719 0.99324 0.40933 0.0
C573 C 0.72156 0.13738 0.42483 0.0
C574 C 0.61642 0.05768 0.43488 0.0
C575 C 0.74905 0.1798 0.42493 0.0
C576 C 0.48858 0.89167 0.4226 0.0
C577 C 0.51737 0.93331 0.42436 0.0
C578 C 0.62395 0.01071 0.4166 0.0
C579 C 0.67968 0.1215 0.42749 0.0
C580 C 0.64964 0.07657 0.42675 0.0
C581 C 0.55971 0.94759 0.42344 0.0
C582 C 0.59057 0.99201 0.42464 0.0
H583 H 0.68186 0.21149 0.43281 0.0
H584 H 0.63432 0.13835 0.4324 0.0
H585 H 0.67759 0.06586 0.41105 0.0
H586 H 0.55527 0.85698 0.41748 0.0
H587 H 0.60487 0.92895 0.42053 0.0
C588 C 0.50904 0.32807 0.76422 0.0
C589 C 0.48259 0.28655 0.76133 0.0
C590 C 0.49522 0.35622 0.76394 0.0
C591 C 0.41326 0.37113 0.75057 0.0
H592 H 0.45705 0.46438 0.77236 0.0
C593 C 0.35154 0.48335 0.75133 0.0
C594 C 0.38047 0.52558 0.75137 0.0
C595 C 0.3636 0.45431 0.75327 0.0
C596 C 0.44482 0.43868 0.76615 0.0
H597 H 0.4202 0.24194 0.75633 0.0
H598 H 0.39566 0.29092 0.75616 0.0
H599 H 0.47677 0.41221 0.77491 0.0
H600 H 0.44487 0.57018 0.75382 0.0
H601 H 0.46595 0.51912 0.75735 0.0
H602 H 0.38099 0.39747 0.74191 0.0
C603 C 0.42751 0.30189 0.75836 0.0
C604 C 0.45611 0.40871 0.7676 0.0
C605 C 0.44146 0.27367 0.75856 0.0
C606 C 0.42179 0.53798 0.75372 0.0
C607 C 0.43383 0.50874 0.75578 0.0
C608 C 0.40172 0.40088 0.7492 0.0
C609 C 0.4544 0.34373 0.76086 0.0
C610 C 0.44068 0.3746 0.75978 0.0
C611 C 0.40489 0.46654 0.75541 0.0
C612 C 0.41746 0.43509 0.75694 0.0
H613 H 0.54098 0.33929 0.76636 0.0
H614 H 0.51708 0.38812 0.76575 0.0
H615 H 0.40137 0.34591 0.74421 0.0
H616 H 0.31941 0.47247 0.7496 0.0
H617 H 0.34045 0.42212 0.75311 0.0
C618 C 0.66892 0.13446 0.58335 0.0
C619 C 0.64166 0.14942 0.58177 0.0
C620 C 0.65591 0.09298 0.58168 0.0
C621 C 0.5618 0.99053 0.58077 0.0
H622 H 0.63606 0.9566 0.56797 0.0
C623 C 0.50826 0.82155 0.57006 0.0
C624 C 0.53314 0.80586 0.57412 0.0
C625 C 0.52236 0.86357 0.57034 0.0
C626 C 0.6151 0.96561 0.57165 0.0
H627 H 0.57934 0.13221 0.5769 0.0
H628 H 0.55676 0.05979 0.57368 0.0
H629 H 0.65805 0.0294 0.56917 0.0
H630 H 0.59309 0.82266 0.58133 0.0
H631 H 0.61794 0.89648 0.58172 0.0
H632 H 0.51874 0.92665 0.58312 0.0
C633 C 0.58812 0.08015 0.57648 0.0
C634 C 0.62767 0.00738 0.57236 0.0
C635 C 0.60112 0.12178 0.57823 0.0
C636 C 0.5731 0.83361 0.57814 0.0
C637 C 0.58737 0.87591 0.57833 0.0
C638 C 0.54915 0.9488 0.57997 0.0
C639 C 0.61528 0.0651 0.57828 0.0
C640 C 0.60128 0.02048 0.577 0.0
C641 C 0.56186 0.89127 0.57461 0.0
C642 C 0.57566 0.93581 0.57543 0.0
H643 H 0.70034 0.15467 0.58614 0.0
H644 H 0.6776 0.08266 0.58337 0.0
H645 H 0.54086 0.99925 0.58462 0.0
H646 H 0.47737 0.80128 0.56684 0.0
H647 H 0.50218 0.8744 0.56722 0.0
C648 C 0.33521 0.51262 0.903 0.0
C649 C 0.2935 0.48631 0.90571 0.0
C650 C 0.36294 0.49826 0.903 0.0
C651 C 0.37636 0.41355 0.9149 0.0
H652 H 0.46935 0.4591 0.893 0.0
C653 C 0.48643 0.34955 0.91221 0.0
C654 C 0.52879 0.37802 0.91247 0.0
C655 C 0.45786 0.3624 0.91054 0.0
C656 C 0.44372 0.44634 0.89923 0.0
H657 H 0.2482 0.4237 0.9102 0.0
H658 H 0.29646 0.39822 0.90989 0.0
H659 H 0.41801 0.48029 0.89131 0.0
H660 H 0.57416 0.44246 0.91074 0.0
H661 H 0.52393 0.46496 0.90768 0.0
H662 H 0.40191 0.37924 0.9227 0.0
C663 C 0.3079 0.43036 0.90804 0.0
C664 C 0.41423 0.45849 0.89829 0.0
C665 C 0.28008 0.44486 0.90813 0.0
C666 C 0.54184 0.4197 0.91059 0.0
C667 C 0.51307 0.43257 0.90881 0.0
C668 C 0.40561 0.40114 0.91576 0.0
C669 C 0.34986 0.457 0.9056 0.0
C670 C 0.38023 0.44247 0.90617 0.0
C671 C 0.47071 0.40408 0.909 0.0
C672 C 0.43973 0.41749 0.90797 0.0
H673 H 0.34687 0.54481 0.90115 0.0
H674 H 0.39496 0.51997 0.90129 0.0
H675 H 0.35121 0.4011 0.92129 0.0
H676 H 0.47504 0.31715 0.91355 0.0
H677 H 0.42554 0.3396 0.91052 0.0
C678 C 0.19286 0.6866 0.23659 0.0
C679 C 0.20774 0.72808 0.23949 0.0
C680 C 0.15088 0.6583 0.23676 0.0
C681 C 0.04827 0.64792 0.2357 0.0
H682 H 0.01406 0.54397 0.25162 0.0
C683 C 0.87921 0.5362 0.24798 0.0
C684 C 0.86409 0.49367 0.24754 0.0
C685 C 0.92073 0.56412 0.2461 0.0
C686 C 0.02298 0.57247 0.24695 0.0
H687 H 0.18961 0.77233 0.24454 0.0
H688 H 0.11595 0.72269 0.24477 0.0
H689 H 0.08675 0.59439 0.25007 0.0
H690 H 0.88111 0.44734 0.24445 0.0
H691 H 0.95369 0.49621 0.2409 0.0
H692 H 0.98457 0.62599 0.2325 0.0
C693 C 0.13707 0.71226 0.24235 0.0
C694 C 0.06474 0.60152 0.24611 0.0
C695 C 0.17929 0.74069 0.24225 0.0
C696 C 0.89164 0.47983 0.2449 0.0
C697 C 0.93335 0.50791 0.24294 0.0
C698 C 1.00647 0.61874 0.23647 0.0
C699 C 0.12245 0.6706 0.23978 0.0
C700 C 0.07792 0.63969 0.24053 0.0
C701 C 0.94852 0.55048 0.24363 0.0
C702 C 0.99319 0.5807 0.24219 0.0
H703 H 0.2137 0.67565 0.23436 0.0
H704 H 0.14066 0.62662 0.23454 0.0
H705 H 0.0574 0.67676 0.2312 0.0
H706 H 0.85909 0.54818 0.25004 0.0
H707 H 0.93116 0.59651 0.24691 0.0
C708 C 0.6205 0.58375 0.08664 0.0
C709 C 0.61551 0.54629 0.09084 0.0
C710 C 0.58798 0.59176 0.0873 0.0
C711 C 0.47898 0.54233 0.0849 0.0
H712 H 0.48315 0.63286 0.10271 0.0
C713 C 0.3391 0.56693 0.08544 0.0
C714 C 0.34686 0.60743 0.08577 0.0
C715 C 0.37094 0.55845 0.08738 0.0
C716 C 0.4815 0.60779 0.09749 0.0
H717 H 0.5726 0.4881 0.09912 0.0
H718 H 0.51567 0.5017 0.09987 0.0
H719 H 0.54181 0.62208 0.10319 0.0
H720 H 0.39414 0.6708 0.08844 0.0
H721 H 0.44947 0.65654 0.09116 0.0
H722 H 0.41999 0.52898 0.07859 0.0
C723 C 0.5449 0.52498 0.09626 0.0
C724 C 0.51514 0.60155 0.09787 0.0
C725 C 0.57759 0.51738 0.09588 0.0
C726 C 0.38694 0.63914 0.08825 0.0
C727 C 0.41883 0.63083 0.0899 0.0
C728 C 0.44573 0.5491 0.08426 0.0
C729 C 0.54967 0.56205 0.09188 0.0
C730 C 0.51413 0.56876 0.09158 0.0
C731 C 0.41154 0.59039 0.08941 0.0
C732 C 0.4464 0.58203 0.09053 0.0
H733 H 0.64928 0.60657 0.08269 0.0
H734 H 0.59228 0.62055 0.08384 0.0
H735 H 0.47765 0.51694 0.07991 0.0
H736 H 0.3085 0.5418 0.08361 0.0
H737 H 0.36359 0.52678 0.0872 0.0
C738 C 0.98186 0.40448 0.41636 0.0
C739 C 0.95312 0.40056 0.42514 0.0
C740 C 0.02221 0.43733 0.41678 0.0
C741 C 0.09993 0.51884 0.43652 0.0
H742 H 0.14381 0.57565 0.40612 0.0
C743 C 0.27036 0.64399 0.42945 0.0
C744 C 0.27875 0.67749 0.42195 0.0
C745 C 0.23017 0.61161 0.43094 0.0
C746 C 0.13191 0.56038 0.41471 0.0
H747 H 0.94487 0.42707 0.44159 0.0
H748 H 0.01531 0.48408 0.44237 0.0
H749 H 0.07582 0.51479 0.40659 0.0
H750 H 0.25112 0.70403 0.41058 0.0
H751 H 0.18093 0.64755 0.41321 0.0
H752 H 0.15616 0.56465 0.44463 0.0
C753 C 1.00665 0.4618 0.43515 0.0
C754 C 0.09313 0.52514 0.41495 0.0
C755 C 0.96622 0.42913 0.43468 0.0
C756 C 0.24576 0.67874 0.41642 0.0
C757 C 0.20557 0.64618 0.41784 0.0
C758 C 0.13895 0.55396 0.43626 0.0
C759 C 0.03487 0.46687 0.42604 0.0
C760 C 0.07663 0.50388 0.42585 0.0
C761 C 0.1974 0.61179 0.42489 0.0
C762 C 0.15538 0.57521 0.42535 0.0
H763 H 0.97283 0.38307 0.40889 0.0
H764 H 0.04337 0.43998 0.40973 0.0
H765 H 0.08819 0.50312 0.44505 0.0
H766 H 0.29505 0.642 0.43383 0.0
H767 H 0.22503 0.58555 0.43638 0.0
C768 C 0.43968 0.04363 0.74728 0.0
C769 C 0.46529 0.0726 0.75591 0.0
C770 C 0.43333 1.0037 0.74742 0.0
C771 C 0.44144 0.92716 0.76646 0.0
H772 H 0.44968 0.88291 0.73556 0.0
C773 C 0.39494 0.75684 0.75901 0.0
C774 C 0.41889 0.74822 0.75109 0.0
C775 C 0.40301 0.79705 0.76059 0.0
C776 C 0.44767 0.89494 0.74428 0.0
H777 H 0.50295 0.08174 0.77178 0.0
H778 H 0.49152 0.01203 0.77208 0.0
H779 H 0.45666 0.95077 0.73641 0.0
H780 H 0.47121 0.77544 0.739 0.0
H781 H 0.48536 0.84571 0.74178 0.0
H782 H 0.43246 0.87119 0.77432 0.0
C783 C 0.47639 0.02018 0.76519 0.0
C784 C 0.45111 0.93363 0.74475 0.0
C785 C 0.483 0.0602 0.765 0.0
C786 C 0.45221 0.781 0.74518 0.0
C787 C 0.46008 0.82122 0.74669 0.0
C788 C 0.43763 0.88824 0.76599 0.0
C789 C 0.45217 0.9917 0.75625 0.0
C790 C 0.44796 0.95022 0.75583 0.0
C791 C 0.43504 0.82962 0.75422 0.0
C792 C 0.4407 0.87166 0.75488 0.0
H793 H 0.42557 0.05211 0.74016 0.0
H794 H 0.41398 0.98232 0.74052 0.0
H795 H 0.43871 0.93897 0.77514 0.0
H796 H 0.369 0.73232 0.7637 0.0
H797 H 0.38298 0.80235 0.7664 0.0
C798 C 0.54054 0.58413 0.56795 0.0
C799 C 0.55505 0.61178 0.57773 0.0
C800 C 0.5481 0.55138 0.56741 0.0
C801 C 0.56932 0.48614 0.58747 0.0
H802 H 0.59511 0.44931 0.5577 0.0
C803 C 0.56946 0.33325 0.58526 0.0
C804 C 0.60396 0.33505 0.57976 0.0
C805 C 0.56169 0.36574 0.58401 0.0
C806 C 0.58796 0.45923 0.56609 0.0
H807 H 0.59032 0.62752 0.59437 0.0
H808 H 0.60368 0.57052 0.5934 0.0
H809 H 0.58865 0.51073 0.55757 0.0
H810 H 0.65609 0.37151 0.56808 0.0
H811 H 0.64235 0.42785 0.56584 0.0
H812 H 0.56902 0.43503 0.59604 0.0
C813 C 0.58602 0.57391 0.58621 0.0
C814 C 0.58402 0.49429 0.566 0.0
C815 C 0.57868 0.60682 0.58671 0.0
C816 C 0.62922 0.36908 0.57245 0.0
C817 C 0.62129 0.4014 0.57113 0.0
C818 C 0.57294 0.45097 0.58754 0.0
C819 C 0.57013 0.5453 0.57668 0.0
C820 C 0.57486 0.50831 0.57671 0.0
C821 C 0.58805 0.40065 0.57715 0.0
C822 C 0.58243 0.4371 0.57687 0.0
H823 H 0.52218 0.58699 0.56087 0.0
H824 H 0.53523 0.52985 0.55998 0.0
H825 H 0.56169 0.49571 0.59585 0.0
H826 H 0.54942 0.30754 0.59096 0.0
H827 H 0.53544 0.36389 0.58861 0.0
C828 C 0.04503 0.42813 0.91331 0.0
C829 C 0.07705 0.46518 0.9087 0.0
C830 C 1.00426 0.41946 0.91262 0.0
C831 C 0.94406 0.46853 0.91398 0.0
H832 H 0.8567 0.37425 0.89761 0.0
C833 C 0.77974 0.44386 0.9129 0.0
C834 C 0.74679 0.40342 0.9132 0.0
C835 C 0.81989 0.45177 0.91105 0.0
C836 C 0.88042 0.40041 0.90243 0.0
H837 H 0.09125 0.52188 0.89962 0.0
H838 H 0.02035 0.50718 0.89882 0.0
H839 H 0.92632 0.38536 0.89726 0.0
H840 H 0.73011 0.33957 0.91173 0.0
H841 H 0.79958 0.35299 0.90916 0.0
H842 H 0.89864 0.48281 0.91977 0.0
C843 C 0.02681 0.48471 0.90278 0.0
C844 C 0.9204 0.40681 0.90213 0.0
C845 C 0.06733 0.49295 0.9032 0.0
C846 C 0.75476 0.37115 0.91142 0.0
C847 C 0.79487 0.37896 0.90986 0.0
C848 C 0.904 0.46166 0.91454 0.0
C849 C 0.99497 0.44811 0.90759 0.0
C850 C 0.95254 0.44098 0.90787 0.0
C851 C 0.82824 0.4194 0.90975 0.0
C852 C 0.87141 0.42747 0.90877 0.0
H853 H 0.05153 0.40618 0.91761 0.0
H854 H 0.98014 0.39106 0.91642 0.0
H855 H 0.96839 0.49498 0.91856 0.0
H856 H 0.77454 0.46939 0.91418 0.0
H857 H 0.84433 0.48339 0.91071 0.0
C858 C 0.42919 0.95993 0.23268 0.0
C859 C 0.39972 0.94727 0.24195 0.0
C860 C 0.46215 1.0002 0.2323 0.0
C861 C 0.524 0.08689 0.25263 0.0
H862 H 0.56727 0.14896 0.22297 0.0
C863 C 0.67835 0.23891 0.25202 0.0
C864 C 0.67794 0.27177 0.24613 0.0
C865 C 0.6458 0.19875 0.25051 0.0
C866 C 0.55553 0.13202 0.23134 0.0
H867 H 0.3809 0.96766 0.25779 0.0
H868 H 0.43829 0.03793 0.2571 0.0
H869 H 0.50535 0.08135 0.22228 0.0
H870 H 0.64409 0.28789 0.23352 0.0
H871 H 0.58769 0.21799 0.23082 0.0
H872 H 0.5738 0.13753 0.26172 0.0
C873 C 0.43614 0.01653 0.2502 0.0
C874 C 0.52019 0.0932 0.23093 0.0
C875 C 0.40302 0.97633 0.25053 0.0
C876 C 0.64539 0.2633 0.23819 0.0
C877 C 0.61305 0.22316 0.23661 0.0
C878 C 0.55945 0.12549 0.25303 0.0
C879 C 0.4666 0.02872 0.24124 0.0
C880 C 0.50386 0.07026 0.24159 0.0
C881 C 0.61231 0.19052 0.243 0.0
C882 C 0.57562 0.14862 0.2424 0.0
H883 H 0.42763 0.93833 0.22593 0.0
H884 H 0.48512 0.00849 0.22531 0.0
H885 H 0.5126 0.06984 0.26099 0.0
H886 H 0.70289 0.24436 0.25821 0.0
H887 H 0.64646 0.17421 0.25542 0.0
loop_
_geom_bond_atom_site_label_1
_geom_bond_atom_site_label_2
_geom_bond_distance
_geom_bond_site_symmetry_2
_ccdc_geom_bond_type
O0 Cd1 2.223 . S
O0 C8 1.315 . S
Cd1 O0 2.223 . S
Cd1 O4 2.297 . S
Cd1 O5 2.439 . S
Cd1 O11 2.240 . S
Cd2 O3 2.240 . S
Cd2 O10 2.223 . S
Cd2 O12 2.297 . S
Cd2 O13 2.439 . S
O3 Cd2 2.240 . S
O3 C8 1.279 . S
O4 Cd1 2.297 . S
O4 C6 1.247 . S
O5 Cd1 2.439 . S
O5 C6 1.208 . S
C6 O4 1.247 . S
C6 O5 1.208 . S
C7 O12 1.247 . S
C7 O13 1.208 . S
C8 O0 1.315 . S
C8 O3 1.279 . S
C9 O10 1.315 . S
C9 O11 1.279 . S
O10 Cd2 2.223 . S
O10 C9 1.315 . S
O11 Cd1 2.240 . S
O11 C9 1.279 . S
O12 Cd2 2.297 . S
O12 C7 1.247 . S
O13 Cd2 2.439 . S
O13 C7 1.208 . S
O14 Cd15 2.223 . S
O14 C22 1.315 . S
Cd15 O14 2.223 . S
Cd15 O18 2.297 . S
Cd15 O19 2.439 . S
Cd15 O25 2.240 . S
Cd16 O17 2.240 . S
Cd16 O24 2.223 . S
Cd16 O26 2.297 . S
Cd16 O27 2.439 . S
O17 Cd16 2.240 . S
O17 C22 1.279 . S
O18 Cd15 2.297 . S
O18 C20 1.247 . S
O19 Cd15 2.439 . S
O19 C20 1.208 . S
C20 O18 1.247 . S
C20 O19 1.208 . S
C21 O26 1.247 . S
C21 O27 1.208 . S
C22 O14 1.315 . S
C22 O17 1.279 . S
C23 O24 1.315 . S
C23 O25 1.279 . S
O24 Cd16 2.223 . S
O24 C23 1.315 . S
O25 Cd15 2.240 . S
O25 C23 1.279 . S
O26 Cd16 2.297 . S
O26 C21 1.247 . S
O27 Cd16 2.439 . S
O27 C21 1.208 . S
O28 Cd29 2.223 . S
O28 C36 1.315 . S
Cd29 O28 2.223 . S
Cd29 O32 2.297 . S
Cd29 O33 2.439 . S
Cd29 O39 2.240 . S
Cd30 O31 2.240 . S
Cd30 O38 2.223 . S
Cd30 O40 2.297 . S
Cd30 O41 2.439 . S
O31 Cd30 2.240 . S
O31 C36 1.279 . S
O32 Cd29 2.297 . S
O32 C34 1.247 . S
O33 Cd29 2.439 . S
O33 C34 1.208 . S
C34 O32 1.247 . S
C34 O33 1.208 . S
C35 O40 1.247 . S
C35 O41 1.208 . S
C36 O28 1.315 . S
C36 O31 1.279 . S
C37 O38 1.315 . S
C37 O39 1.279 . S
O38 Cd30 2.223 . S
O38 C37 1.315 . S
O39 Cd29 2.240 . S
O39 C37 1.279 . S
O40 Cd30 2.297 . S
O40 C35 1.247 . S
O41 Cd30 2.439 . S
O41 C35 1.208 . S
O42 Cd43 2.223 . S
O42 C50 1.315 . S
Cd43 O42 2.223 . S
Cd43 O46 2.297 . S
Cd43 O47 2.439 . S
Cd43 O53 2.240 . S
Cd44 O45 2.240 . S
Cd44 O52 2.223 . S
Cd44 O54 2.297 . S
Cd44 O55 2.439 . S
O45 Cd44 2.240 . S
O45 C50 1.279 . S
O46 Cd43 2.297 . S
O46 C48 1.247 . S
O47 Cd43 2.439 . S
O47 C48 1.208 . S
C48 O46 1.247 . S
C48 O47 1.208 . S
C49 O54 1.247 . S
C49 O55 1.208 . S
C50 O42 1.315 . S
C50 O45 1.279 . S
C51 O52 1.315 . S
C51 O53 1.279 . S
O52 Cd44 2.223 . S
O52 C51 1.315 . S
O53 Cd43 2.240 . S
O53 C51 1.279 . S
O54 Cd44 2.297 . S
O54 C49 1.247 . S
O55 Cd44 2.439 . S
O55 C49 1.208 . S
O56 Cd57 2.223 . S
O56 C64 1.315 . S
Cd57 O56 2.223 . S
Cd57 O60 2.297 . S
Cd57 O61 2.439 . S
Cd57 O67 2.240 . S
Cd58 O59 2.240 . S
Cd58 O66 2.223 . S
Cd58 O68 2.297 . S
Cd58 O69 2.439 . S
O59 Cd58 2.240 . S
O59 C64 1.279 . S
O60 Cd57 2.297 . S
O60 C62 1.247 . S
O61 Cd57 2.439 . S
O61 C62 1.208 . S
C62 O60 1.247 . S
C62 O61 1.208 . S
C63 O68 1.247 . S
C63 O69 1.208 . S
C64 O56 1.315 . S
C64 O59 1.279 . S
C65 O66 1.315 . S
C65 O67 1.279 . S
O66 Cd58 2.223 . S
O66 C65 1.315 . S
O67 Cd57 2.240 . S
O67 C65 1.279 . S
O68 Cd58 2.297 . S
O68 C63 1.247 . S
O69 Cd58 2.439 . S
O69 C63 1.208 . S
O70 Cd71 2.223 . S
O70 C78 1.315 . S
Cd71 O70 2.223 . S
Cd71 O74 2.297 . S
Cd71 O75 2.439 . S
Cd71 O81 2.240 . S
Cd72 O73 2.240 . S
Cd72 O80 2.223 . S
Cd72 O82 2.297 . S
Cd72 O83 2.439 . S
O73 Cd72 2.240 . S
O73 C78 1.279 . S
O74 Cd71 2.297 . S
O74 C76 1.247 . S
O75 Cd71 2.439 . S
O75 C76 1.208 . S
C76 O74 1.247 . S
C76 O75 1.208 . S
C77 O82 1.247 . S
C77 O83 1.208 . S
C78 O70 1.315 . S
C78 O73 1.279 . S
C79 O80 1.315 . S
C79 O81 1.279 . S
O80 Cd72 2.223 . S
O80 C79 1.315 . S
O81 Cd71 2.240 . S
O81 C79 1.279 . S
O82 Cd72 2.297 . S
O82 C77 1.247 . S
O83 Cd72 2.439 . S
O83 C77 1.208 . S
O84 Cd85 2.223 . S
O84 C92 1.315 . S
Cd85 O84 2.223 . S
Cd85 O88 2.297 . S
Cd85 O89 2.439 . S
Cd85 O95 2.240 . S
Cd86 O87 2.240 . S
Cd86 O94 2.223 . S
Cd86 O96 2.297 . S
Cd86 O97 2.439 . S
O87 Cd86 2.240 . S
O87 C92 1.279 . S
O88 Cd85 2.297 . S
O88 C90 1.247 . S
O89 Cd85 2.439 . S
O89 C90 1.208 . S
C90 O88 1.247 . S
C90 O89 1.208 . S
C91 O96 1.247 . S
C91 O97 1.208 . S
C92 O84 1.315 . S
C92 O87 1.279 . S
C93 O94 1.315 . S
C93 O95 1.279 . S
O94 Cd86 2.223 . S
O94 C93 1.315 . S
O95 Cd85 2.240 . S
O95 C93 1.279 . S
O96 Cd86 2.297 . S
O96 C91 1.247 . S
O97 Cd86 2.439 . S
O97 C91 1.208 . S
O98 Cd99 2.223 . S
O98 C106 1.315 . S
Cd99 O98 2.223 . S
Cd99 O102 2.297 . S
Cd99 O103 2.439 . S
Cd99 O109 2.240 . S
Cd100 O101 2.240 . S
Cd100 O108 2.223 . S
Cd100 O110 2.297 . S
Cd100 O111 2.439 . S
O101 Cd100 2.240 . S
O101 C106 1.279 . S
O102 Cd99 2.297 . S
O102 C104 1.247 . S
O103 Cd99 2.439 . S
O103 C104 1.208 . S
C104 O102 1.247 . S
C104 O103 1.208 . S
C105 O110 1.247 . S
C105 O111 1.208 . S
C106 O98 1.315 . S
C106 O101 1.279 . S
C107 O108 1.315 . S
C107 O109 1.279 . S
O108 Cd100 2.223 . S
O108 C107 1.315 . S
O109 Cd99 2.240 . S
O109 C107 1.279 . S
O110 Cd100 2.297 . S
O110 C105 1.247 . S
O111 Cd100 2.439 . S
O111 C105 1.208 . S
O112 Cd113 2.223 . S
O112 C120 1.315 . S
Cd113 O112 2.223 . S
Cd113 O116 2.297 . S
Cd113 O117 2.439 . S
Cd113 O123 2.240 . S
Cd114 O115 2.240 . S
Cd114 O122 2.223 . S
Cd114 O124 2.297 . S
Cd114 O125 2.439 . S
O115 Cd114 2.240 . S
O115 C120 1.279 . S
O116 Cd113 2.297 . S
O116 C118 1.247 . S
O117 Cd113 2.439 . S
O117 C118 1.208 . S
C118 O116 1.247 . S
C118 O117 1.208 . S
C119 O124 1.247 . S
C119 O125 1.208 . S
C120 O112 1.315 . S
C120 O115 1.279 . S
C121 O122 1.315 . S
C121 O123 1.279 . S
O122 Cd114 2.223 . S
O122 C121 1.315 . S
O123 Cd113 2.240 . S
O123 C121 1.279 . S
O124 Cd114 2.297 . S
O124 C119 1.247 . S
O125 Cd114 2.439 . S
O125 C119 1.208 . S
O126 Cd127 2.223 . S
O126 C134 1.315 . S
Cd127 O126 2.223 . S
Cd127 O130 2.297 . S
Cd127 O131 2.439 . S
Cd127 O137 2.240 . S
Cd128 O129 2.240 . S
Cd128 O136 2.223 . S
Cd128 O138 2.297 . S
Cd128 O139 2.439 . S
O129 Cd128 2.240 . S
O129 C134 1.279 . S
O130 Cd127 2.297 . S
O130 C132 1.247 . S
O131 Cd127 2.439 . S
O131 C132 1.208 . S
C132 O130 1.247 . S
C132 O131 1.208 . S
C133 O138 1.247 . S
C133 O139 1.208 . S
C134 O126 1.315 . S
C134 O129 1.279 . S
C135 O136 1.315 . S
C135 O137 1.279 . S
O136 Cd128 2.223 . S
O136 C135 1.315 . S
O137 Cd127 2.240 . S
O137 C135 1.279 . S
O138 Cd128 2.297 . S
O138 C133 1.247 . S
O139 Cd128 2.439 . S
O139 C133 1.208 . S
O140 Cd141 2.223 . S
O140 C148 1.315 . S
Cd141 O140 2.223 . S
Cd141 O144 2.297 . S
Cd141 O145 2.439 . S
Cd141 O151 2.240 . S
Cd142 O143 2.240 . S
Cd142 O150 2.223 . S
Cd142 O152 2.297 . S
Cd142 O153 2.439 . S
O143 Cd142 2.240 . S
O143 C148 1.279 . S
O144 Cd141 2.297 . S
O144 C146 1.247 . S
O145 Cd141 2.439 . S
O145 C146 1.208 . S
C146 O144 1.247 . S
C146 O145 1.208 . S
C147 O152 1.247 . S
C147 O153 1.208 . S
C148 O140 1.315 . S
C148 O143 1.279 . S
C149 O150 1.315 . S
C149 O151 1.279 . S
O150 Cd142 2.223 . S
O150 C149 1.315 . S
O151 Cd141 2.240 . S
O151 C149 1.279 . S
O152 Cd142 2.297 . S
O152 C147 1.247 . S
O153 Cd142 2.439 . S
O153 C147 1.208 . S
O154 Cd155 2.223 . S
O154 C162 1.315 . S
Cd155 O154 2.223 . S
Cd155 O158 2.297 . S
Cd155 O159 2.439 . S
Cd155 O165 2.240 . S
Cd156 O157 2.240 . S
Cd156 O164 2.223 . S
Cd156 O166 2.297 . S
Cd156 O167 2.439 . S
O157 Cd156 2.240 . S
O157 C162 1.279 . S
O158 Cd155 2.297 . S
O158 C160 1.247 . S
O159 Cd155 2.439 . S
O159 C160 1.208 . S
C160 O158 1.247 . S
C160 O159 1.208 . S
C161 O166 1.247 . S
C161 O167 1.208 . S
C162 O154 1.315 . S
C162 O157 1.279 . S
C163 O164 1.315 . S
C163 O165 1.279 . S
O164 Cd156 2.223 . S
O164 C163 1.315 . S
O165 Cd155 2.240 . S
O165 C163 1.279 . S
O166 Cd156 2.297 . S
O166 C161 1.247 . S
O167 Cd156 2.439 . S
O167 C161 1.208 . S
C168 C169 1.349 . S
C168 C170 1.327 . S
C168 H193 0.950 . S
C169 C168 1.349 . S
C169 C185 1.349 . S
C170 C168 1.327 . S
C170 C189 1.429 . S
C170 H194 0.950 . S
C171 C188 1.574 . S
C171 C190 1.368 . S
C171 H195 0.949 . S
H172 C176 0.949 . S
C173 C174 1.349 . S
C173 C175 1.327 . S
C173 H196 0.950 . S
C174 C173 1.349 . S
C174 C186 1.349 . S
C175 C173 1.327 . S
C175 C191 1.429 . S
C175 H197 0.950 . S
C176 H172 0.949 . S
C176 C184 1.574 1_554 S
C176 C192 1.368 . S
H177 C185 0.950 . S
H178 C183 0.950 . S
H179 C184 0.949 . S
H180 C186 0.950 . S
H181 C187 0.950 . S
H182 C188 0.949 . S
C183 H178 0.950 . S
C183 C185 1.327 . S
C183 C189 1.429 . S
C184 C176 1.574 1_556 S
C184 H179 0.949 . S
C184 C190 1.368 . S
C185 C169 1.349 . S
C185 H177 0.950 . S
C185 C183 1.327 . S
C186 C174 1.349 . S
C186 H180 0.950 . S
C186 C187 1.327 . S
C187 H181 0.950 . S
C187 C186 1.327 . S
C187 C191 1.429 . S
C188 C171 1.574 . S
C188 H182 0.949 . S
C188 C192 1.368 1_556 S
C189 C170 1.429 . S
C189 C183 1.429 . S
C189 C190 1.523 . S
C190 C171 1.368 . S
C190 C184 1.368 . S
C190 C189 1.523 . S
C191 C175 1.429 . S
C191 C187 1.429 . S
C191 C192 1.523 . S
C192 C176 1.368 . S
C192 C188 1.368 1_554 S
C192 C191 1.523 . S
H193 C168 0.950 . S
H194 C170 0.950 . S
H195 C171 0.949 . S
H196 C173 0.950 . S
H197 C175 0.950 . S
C198 C199 1.349 . S
C198 C200 1.327 . S
C198 H223 0.950 . S
C199 C198 1.349 . S
C199 C215 1.349 . S
C200 C198 1.327 . S
C200 C219 1.429 . S
C200 H224 0.950 . S
C201 C218 1.574 . S
C201 C220 1.368 . S
C201 H225 0.949 . S
H202 C206 0.949 . S
C203 C204 1.349 . S
C203 C205 1.327 . S
C203 H226 0.950 . S
C204 C203 1.349 . S
C204 C216 1.349 . S
C205 C203 1.327 . S
C205 C221 1.429 . S
C205 H227 0.950 . S
C206 H202 0.949 . S
C206 C214 1.574 . S
C206 C222 1.368 . S
H207 C215 0.950 . S
H208 C213 0.950 . S
H209 C214 0.949 . S
H210 C216 0.950 . S
H211 C217 0.950 . S
H212 C218 0.949 . S
C213 H208 0.950 . S
C213 C215 1.327 . S
C213 C219 1.429 . S
C214 C206 1.574 . S
C214 H209 0.949 . S
C214 C220 1.368 . S
C215 C199 1.349 . S
C215 H207 0.950 . S
C215 C213 1.327 . S
C216 C204 1.349 . S
C216 H210 0.950 . S
C216 C217 1.327 . S
C217 H211 0.950 . S
C217 C216 1.327 . S
C217 C221 1.429 . S
C218 C201 1.574 . S
C218 H212 0.949 . S
C218 C222 1.368 . S
C219 C200 1.429 . S
C219 C213 1.429 . S
C219 C220 1.523 . S
C220 C201 1.368 . S
C220 C214 1.368 . S
C220 C219 1.523 . S
C221 C205 1.429 . S
C221 C217 1.429 . S
C221 C222 1.523 . S
C222 C206 1.368 . S
C222 C218 1.368 . S
C222 C221 1.523 . S
H223 C198 0.950 . S
H224 C200 0.950 . S
H225 C201 0.949 . S
H226 C203 0.950 . S
H227 C205 0.950 . S
C228 C229 1.349 . S
C228 C230 1.327 . S
C228 H253 0.950 . S
C229 C228 1.349 . S
C229 C245 1.349 . S
C230 C228 1.327 . S
C230 C249 1.429 . S
C230 H254 0.950 . S
C231 C248 1.574 . S
C231 C250 1.368 . S
C231 H255 0.949 . S
H232 C236 0.949 . S
C233 C234 1.349 . S
C233 C235 1.327 . S
C233 H256 0.950 . S
C234 C233 1.349 . S
C234 C246 1.349 . S
C235 C233 1.327 . S
C235 C251 1.429 . S
C235 H257 0.950 . S
C236 H232 0.949 . S
C236 C244 1.574 . S
C236 C252 1.368 . S
H237 C245 0.950 . S
H238 C243 0.950 . S
H239 C244 0.949 . S
H240 C246 0.950 . S
H241 C247 0.950 . S
H242 C248 0.949 . S
C243 H238 0.950 . S
C243 C245 1.327 . S
C243 C249 1.429 . S
C244 C236 1.574 . S
C244 H239 0.949 . S
C244 C250 1.368 . S
C245 C229 1.349 . S
C245 H237 0.950 . S
C245 C243 1.327 . S
C246 C234 1.349 . S
C246 H240 0.950 . S
C246 C247 1.327 . S
C247 H241 0.950 . S
C247 C246 1.327 . S
C247 C251 1.429 . S
C248 C231 1.574 . S
C248 H242 0.949 . S
C248 C252 1.368 . S
C249 C230 1.429 . S
C249 C243 1.429 . S
C249 C250 1.523 . S
C250 C231 1.368 . S
C250 C244 1.368 . S
C250 C249 1.523 . S
C251 C235 1.429 . S
C251 C247 1.429 . S
C251 C252 1.523 . S
C252 C236 1.368 . S
C252 C248 1.368 . S
C252 C251 1.523 . S
H253 C228 0.950 . S
H254 C230 0.950 . S
H255 C231 0.949 . S
H256 C233 0.950 . S
H257 C235 0.950 . S
C258 C259 1.349 . S
C258 C260 1.327 . S
C258 H283 0.950 . S
C259 C258 1.349 . S
C259 C275 1.349 . S
C260 C258 1.327 . S
C260 C279 1.429 . S
C260 H284 0.950 . S
C261 C278 1.574 1_554 S
C261 C280 1.368 . S
C261 H285 0.949 . S
H262 C266 0.949 . S
C263 C264 1.349 . S
C263 C265 1.327 . S
C263 H286 0.950 . S
C264 C263 1.349 . S
C264 C276 1.349 . S
C265 C263 1.327 . S
C265 C281 1.429 . S
C265 H287 0.950 . S
C266 H262 0.949 . S
C266 C274 1.574 . S
C266 C282 1.368 1_554 S
H267 C275 0.950 . S
H268 C273 0.950 . S
H269 C274 0.949 . S
H270 C276 0.950 . S
H271 C277 0.950 . S
H272 C278 0.949 . S
C273 H268 0.950 . S
C273 C275 1.327 . S
C273 C279 1.429 . S
C274 C266 1.574 . S
C274 H269 0.949 . S
C274 C280 1.368 . S
C275 C259 1.349 . S
C275 H267 0.950 . S
C275 C273 1.327 . S
C276 C264 1.349 . S
C276 H270 0.950 . S
C276 C277 1.327 . S
C277 H271 0.950 . S
C277 C276 1.327 . S
C277 C281 1.429 . S
C278 C261 1.574 1_556 S
C278 H272 0.949 . S
C278 C282 1.368 . S
C279 C260 1.429 . S
C279 C273 1.429 . S
C279 C280 1.523 . S
C280 C261 1.368 . S
C280 C274 1.368 . S
C280 C279 1.523 . S
C281 C265 1.429 . S
C281 C277 1.429 . S
C281 C282 1.523 . S
C282 C266 1.368 1_556 S
C282 C278 1.368 . S
C282 C281 1.523 . S
H283 C258 0.950 . S
H284 C260 0.950 . S
H285 C261 0.949 . S
H286 C263 0.950 . S
H287 C265 0.950 . S
C288 C289 1.349 . S
C288 C290 1.327 . S
C288 H313 0.950 . S
C289 C288 1.349 . S
C289 C305 1.349 . S
C290 C288 1.327 . S
C290 C309 1.429 . S
C290 H314 0.950 . S
C291 C308 1.574 . S
C291 C310 1.368 . S
C291 H315 0.949 . S
H292 C296 0.949 . S
C293 C294 1.349 . S
C293 C295 1.327 . S
C293 H316 0.950 . S
C294 C293 1.349 . S
C294 C306 1.349 . S
C295 C293 1.327 . S
C295 C311 1.429 . S
C295 H317 0.950 . S
C296 H292 0.949 . S
C296 C304 1.574 . S
C296 C312 1.368 . S
H297 C305 0.950 . S
H298 C303 0.950 . S
H299 C304 0.949 . S
H300 C306 0.950 . S
H301 C307 0.950 . S
H302 C308 0.949 . S
C303 H298 0.950 . S
C303 C305 1.327 . S
C303 C309 1.429 . S
C304 C296 1.574 . S
C304 H299 0.949 . S
C304 C310 1.368 . S
C305 C289 1.349 . S
C305 H297 0.950 . S
C305 C303 1.327 . S
C306 C294 1.349 . S
C306 H300 0.950 . S
C306 C307 1.327 . S
C307 H301 0.950 . S
C307 C306 1.327 . S
C307 C311 1.429 . S
C308 C291 1.574 . S
C308 H302 0.949 . S
C308 C312 1.368 . S
C309 C290 1.429 . S
C309 C303 1.429 . S
C309 C310 1.523 . S
C310 C291 1.368 . S
C310 C304 1.368 . S
C310 C309 1.523 . S
C311 C295 1.429 . S
C311 C307 1.429 . S
C311 C312 1.523 . S
C312 C296 1.368 . S
C312 C308 1.368 . S
C312 C311 1.523 . S
H313 C288 0.950 . S
H314 C290 0.950 . S
H315 C291 0.949 . S
H316 C293 0.950 . S
H317 C295 0.950 . S
C318 C319 1.349 . S
C318 C320 1.327 . S
C318 H343 0.950 . S
C319 C318 1.349 . S
C319 C335 1.349 . S
C320 C318 1.327 . S
C320 C339 1.429 . S
C320 H344 0.950 . S
C321 C338 1.574 . S
C321 C340 1.368 . S
C321 H345 0.949 . S
H322 C326 0.949 . S
C323 C324 1.349 . S
C323 C325 1.327 . S
C323 H346 0.950 . S
C324 C323 1.349 . S
C324 C336 1.349 . S
C325 C323 1.327 . S
C325 C341 1.429 . S
C325 H347 0.950 . S
C326 H322 0.949 . S
C326 C334 1.574 . S
C326 C342 1.368 . S
H327 C335 0.950 . S
H328 C333 0.950 . S
H329 C334 0.949 . S
H330 C336 0.950 . S
H331 C337 0.950 . S
H332 C338 0.949 . S
C333 H328 0.950 . S
C333 C335 1.327 . S
C333 C339 1.429 . S
C334 C326 1.574 . S
C334 H329 0.949 . S
C334 C340 1.368 . S
C335 C319 1.349 . S
C335 H327 0.950 . S
C335 C333 1.327 . S
C336 C324 1.349 . S
C336 H330 0.950 . S
C336 C337 1.327 . S
C337 H331 0.950 . S
C337 C336 1.327 . S
C337 C341 1.429 . S
C338 C321 1.574 . S
C338 H332 0.949 . S
C338 C342 1.368 . S
C339 C320 1.429 . S
C339 C333 1.429 . S
C339 C340 1.523 . S
C340 C321 1.368 . S
C340 C334 1.368 . S
C340 C339 1.523 . S
C341 C325 1.429 . S
C341 C337 1.429 . S
C341 C342 1.523 . S
C342 C326 1.368 . S
C342 C338 1.368 . S
C342 C341 1.523 . S
H343 C318 0.950 . S
H344 C320 0.950 . S
H345 C321 0.949 . S
H346 C323 0.950 . S
H347 C325 0.950 . S
C348 C349 1.349 . S
C348 C350 1.327 . S
C348 H373 0.950 . S
C349 C348 1.349 . S
C349 C365 1.349 . S
C350 C348 1.327 . S
C350 C369 1.429 . S
C350 H374 0.950 . S
C351 C368 1.574 . S
C351 C370 1.368 . S
C351 H375 0.949 . S
H352 C356 0.949 . S
C353 C354 1.349 . S
C353 C355 1.327 . S
C353 H376 0.950 . S
C354 C353 1.349 . S
C354 C366 1.349 . S
C355 C353 1.327 . S
C355 C371 1.429 . S
C355 H377 0.950 . S
C356 H352 0.949 . S
C356 C364 1.574 . S
C356 C372 1.368 . S
H357 C365 0.950 . S
H358 C363 0.950 . S
H359 C364 0.949 . S
H360 C366 0.950 . S
H361 C367 0.950 . S
H362 C368 0.949 . S
C363 H358 0.950 . S
C363 C365 1.327 . S
C363 C369 1.429 . S
C364 C356 1.574 . S
C364 H359 0.949 . S
C364 C370 1.368 . S
C365 C349 1.349 . S
C365 H357 0.950 . S
C365 C363 1.327 . S
C366 C354 1.349 . S
C366 H360 0.950 . S
C366 C367 1.327 . S
C367 H361 0.950 . S
C367 C366 1.327 . S
C367 C371 1.429 . S
C368 C351 1.574 . S
C368 H362 0.949 . S
C368 C372 1.368 . S
C369 C350 1.429 . S
C369 C363 1.429 . S
C369 C370 1.523 . S
C370 C351 1.368 . S
C370 C364 1.368 . S
C370 C369 1.523 . S
C371 C355 1.429 . S
C371 C367 1.429 . S
C371 C372 1.523 . S
C372 C356 1.368 . S
C372 C368 1.368 . S
C372 C371 1.523 . S
H373 C348 0.950 . S
H374 C350 0.950 . S
H375 C351 0.949 . S
H376 C353 0.950 . S
H377 C355 0.950 . S
C378 C379 1.349 . S
C378 C380 1.327 . S
C378 H403 0.950 . S
C379 C378 1.349 . S
C379 C395 1.349 . S
C380 C378 1.327 . S
C380 C399 1.429 . S
C380 H404 0.950 . S
C381 C398 1.574 . S
C381 C400 1.368 . S
C381 H405 0.949 . S
H382 C386 0.949 . S
C383 C384 1.349 . S
C383 C385 1.327 . S
C383 H406 0.950 . S
C384 C383 1.349 . S
C384 C396 1.349 . S
C385 C383 1.327 . S
C385 C401 1.429 . S
C385 H407 0.950 . S
C386 H382 0.949 . S
C386 C394 1.574 . S
C386 C402 1.368 . S
H387 C395 0.950 . S
H388 C393 0.950 . S
H389 C394 0.949 . S
H390 C396 0.950 . S
H391 C397 0.950 . S
H392 C398 0.949 . S
C393 H388 0.950 . S
C393 C395 1.327 . S
C393 C399 1.429 . S
C394 C386 1.574 . S
C394 H389 0.949 . S
C394 C400 1.368 . S
C395 C379 1.349 . S
C395 H387 0.950 . S
C395 C393 1.327 . S
C396 C384 1.349 . S
C396 H390 0.950 . S
C396 C397 1.327 . S
C397 H391 0.950 . S
C397 C396 1.327 . S
C397 C401 1.429 . S
C398 C381 1.574 . S
C398 H392 0.949 . S
C398 C402 1.368 . S
C399 C380 1.429 . S
C399 C393 1.429 . S
C399 C400 1.523 . S
C400 C381 1.368 . S
C400 C394 1.368 . S
C400 C399 1.523 . S
C401 C385 1.429 . S
C401 C397 1.429 . S
C401 C402 1.523 . S
C402 C386 1.368 . S
C402 C398 1.368 . S
C402 C401 1.523 . S
H403 C378 0.950 . S
H404 C380 0.950 . S
H405 C381 0.949 . S
H406 C383 0.950 . S
H407 C385 0.950 . S
C408 C409 1.349 . S
C408 C410 1.327 . S
C408 H433 0.950 . S
C409 C408 1.349 . S
C409 C425 1.349 . S
C410 C408 1.327 . S
C410 C429 1.429 . S
C410 H434 0.950 . S
C411 C428 1.574 . S
C411 C430 1.368 . S
C411 H435 0.949 . S
H412 C416 0.949 . S
C413 C414 1.349 . S
C413 C415 1.327 . S
C413 H436 0.950 . S
C414 C413 1.349 . S
C414 C426 1.349 . S
C415 C413 1.327 . S
C415 C431 1.429 . S
C415 H437 0.950 . S
C416 H412 0.949 . S
C416 C424 1.574 . S
C416 C432 1.368 . S
H417 C425 0.950 . S
H418 C423 0.950 . S
H419 C424 0.949 . S
H420 C426 0.950 . S
H421 C427 0.950 . S
H422 C428 0.949 . S
C423 H418 0.950 . S
C423 C425 1.327 . S
C423 C429 1.429 . S
C424 C416 1.574 . S
C424 H419 0.949 . S
C424 C430 1.368 . S
C425 C409 1.349 . S
C425 H417 0.950 . S
C425 C423 1.327 . S
C426 C414 1.349 . S
C426 H420 0.950 . S
C426 C427 1.327 . S
C427 H421 0.950 . S
C427 C426 1.327 . S
C427 C431 1.429 . S
C428 C411 1.574 . S
C428 H422 0.949 . S
C428 C432 1.368 . S
C429 C410 1.429 . S
C429 C423 1.429 . S
C429 C430 1.523 . S
C430 C411 1.368 . S
C430 C424 1.368 . S
C430 C429 1.523 . S
C431 C415 1.429 . S
C431 C427 1.429 . S
C431 C432 1.523 . S
C432 C416 1.368 . S
C432 C428 1.368 . S
C432 C431 1.523 . S
H433 C408 0.950 . S
H434 C410 0.950 . S
H435 C411 0.949 . S
H436 C413 0.950 . S
H437 C415 0.950 . S
C438 C439 1.349 . S
C438 C440 1.327 . S
C438 H463 0.950 . S
C439 C438 1.349 . S
C439 C455 1.349 . S
C440 C438 1.327 . S
C440 C459 1.429 . S
C440 H464 0.950 . S
C441 C458 1.574 . S
C441 C460 1.368 . S
C441 H465 0.949 . S
H442 C446 0.949 . S
C443 C444 1.349 . S
C443 C445 1.327 . S
C443 H466 0.950 . S
C444 C443 1.349 . S
C444 C456 1.349 . S
C445 C443 1.327 . S
C445 C461 1.429 . S
C445 H467 0.950 . S
C446 H442 0.949 . S
C446 C454 1.574 . S
C446 C462 1.368 . S
H447 C455 0.950 . S
H448 C453 0.950 . S
H449 C454 0.949 . S
H450 C456 0.950 . S
H451 C457 0.950 . S
H452 C458 0.949 . S
C453 H448 0.950 . S
C453 C455 1.327 . S
C453 C459 1.429 . S
C454 C446 1.574 . S
C454 H449 0.949 . S
C454 C460 1.368 . S
C455 C439 1.349 . S
C455 H447 0.950 . S
C455 C453 1.327 . S
C456 C444 1.349 . S
C456 H450 0.950 . S
C456 C457 1.327 . S
C457 H451 0.950 . S
C457 C456 1.327 . S
C457 C461 1.429 . S
C458 C441 1.574 . S
C458 H452 0.949 . S
C458 C462 1.368 . S
C459 C440 1.429 . S
C459 C453 1.429 . S
C459 C460 1.523 . S
C460 C441 1.368 . S
C460 C454 1.368 . S
C460 C459 1.523 . S
C461 C445 1.429 . S
C461 C457 1.429 . S
C461 C462 1.523 . S
C462 C446 1.368 . S
C462 C458 1.368 . S
C462 C461 1.523 . S
H463 C438 0.950 . S
H464 C440 0.950 . S
H465 C441 0.949 . S
H466 C443 0.950 . S
H467 C445 0.950 . S
C468 C469 1.349 . S
C468 C470 1.327 . S
C468 H493 0.950 . S
C469 C468 1.349 . S
C469 C485 1.349 . S
C470 C468 1.327 . S
C470 C489 1.429 . S
C470 H494 0.950 . S
C471 C488 1.574 . S
C471 C490 1.368 . S
C471 H495 0.949 . S
H472 C476 0.949 . S
C473 C474 1.349 . S
C473 C475 1.327 . S
C473 H496 0.950 . S
C474 C473 1.349 . S
C474 C486 1.349 . S
C475 C473 1.327 . S
C475 C491 1.429 . S
C475 H497 0.950 . S
C476 H472 0.949 . S
C476 C484 1.574 . S
C476 C492 1.368 . S
H477 C485 0.950 . S
H478 C483 0.950 . S
H479 C484 0.949 . S
H480 C486 0.950 . S
H481 C487 0.950 . S
H482 C488 0.949 . S
C483 H478 0.950 . S
C483 C485 1.327 . S
C483 C489 1.429 . S
C484 C476 1.574 . S
C484 H479 0.949 . S
C484 C490 1.368 . S
C485 C469 1.349 . S
C485 H477 0.950 . S
C485 C483 1.327 . S
C486 C474 1.349 . S
C486 H480 0.950 . S
C486 C487 1.327 . S
C487 H481 0.950 . S
C487 C486 1.327 . S
C487 C491 1.429 . S
C488 C471 1.574 . S
C488 H482 0.949 . S
C488 C492 1.368 . S
C489 C470 1.429 . S
C489 C483 1.429 . S
C489 C490 1.523 . S
C490 C471 1.368 . S
C490 C484 1.368 . S
C490 C489 1.523 . S
C491 C475 1.429 . S
C491 C487 1.429 . S
C491 C492 1.523 . S
C492 C476 1.368 . S
C492 C488 1.368 . S
C492 C491 1.523 . S
H493 C468 0.950 . S
H494 C470 0.950 . S
H495 C471 0.949 . S
H496 C473 0.950 . S
H497 C475 0.950 . S
C498 C499 1.349 . S
C498 C500 1.327 . S
C498 H523 0.950 . S
C499 C498 1.349 . S
C499 C515 1.349 . S
C500 C498 1.327 . S
C500 C519 1.429 . S
C500 H524 0.950 . S
C501 C518 1.574 . S
C501 C520 1.368 . S
C501 H525 0.949 . S
H502 C506 0.949 . S
C503 C504 1.349 . S
C503 C505 1.327 . S
C503 H526 0.950 . S
C504 C503 1.349 . S
C504 C516 1.349 . S
C505 C503 1.327 . S
C505 C521 1.429 . S
C505 H527 0.950 . S
C506 H502 0.949 . S
C506 C514 1.574 . S
C506 C522 1.368 . S
H507 C515 0.950 . S
H508 C513 0.950 . S
H509 C514 0.949 . S
H510 C516 0.950 . S
H511 C517 0.950 . S
H512 C518 0.949 . S
C513 H508 0.950 . S
C513 C515 1.327 . S
C513 C519 1.429 . S
C514 C506 1.574 . S
C514 H509 0.949 . S
C514 C520 1.368 . S
C515 C499 1.349 . S
C515 H507 0.950 . S
C515 C513 1.327 . S
C516 C504 1.349 . S
C516 H510 0.950 . S
C516 C517 1.327 . S
C517 H511 0.950 . S
C517 C516 1.327 . S
C517 C521 1.429 . S
C518 C501 1.574 . S
C518 H512 0.949 . S
C518 C522 1.368 . S
C519 C500 1.429 . S
C519 C513 1.429 . S
C519 C520 1.523 . S
C520 C501 1.368 . S
C520 C514 1.368 . S
C520 C519 1.523 . S
C521 C505 1.429 . S
C521 C517 1.429 . S
C521 C522 1.523 . S
C522 C506 1.368 . S
C522 C518 1.368 . S
C522 C521 1.523 . S
H523 C498 0.950 . S
H524 C500 0.950 . S
H525 C501 0.949 . S
H526 C503 0.950 . S
H527 C505 0.950 . S
C528 C529 1.349 . S
C528 C530 1.327 . S
C528 H553 0.950 . S
C529 C528 1.349 . S
C529 C545 1.349 . S
C530 C528 1.327 . S
C530 C549 1.429 . S
C530 H554 0.950 . S
C531 C548 1.574 1_655 S
C531 C550 1.368 . S
C531 H555 0.949 . S
H532 C536 0.949 . S
C533 C534 1.349 . S
C533 C535 1.327 . S
C533 H556 0.950 . S
C534 C533 1.349 . S
C534 C546 1.349 . S
C535 C533 1.327 . S
C535 C551 1.429 . S
C535 H557 0.950 . S
C536 H532 0.949 . S
C536 C544 1.574 1_455 S
C536 C552 1.368 . S
H537 C545 0.950 . S
H538 C543 0.950 . S
H539 C544 0.949 . S
H540 C546 0.950 . S
H541 C547 0.950 . S
H542 C548 0.949 . S
C543 H538 0.950 . S
C543 C545 1.327 . S
C543 C549 1.429 . S
C544 C536 1.574 1_655 S
C544 H539 0.949 . S
C544 C550 1.368 . S
C545 C529 1.349 . S
C545 H537 0.950 . S
C545 C543 1.327 . S
C546 C534 1.349 . S
C546 H540 0.950 . S
C546 C547 1.327 . S
C547 H541 0.950 . S
C547 C546 1.327 . S
C547 C551 1.429 . S
C548 C531 1.574 1_455 S
C548 H542 0.949 . S
C548 C552 1.368 . S
C549 C530 1.429 . S
C549 C543 1.429 . S
C549 C550 1.523 . S
C550 C531 1.368 . S
C550 C544 1.368 . S
C550 C549 1.523 . S
C551 C535 1.429 . S
C551 C547 1.429 . S
C551 C552 1.523 . S
C552 C536 1.368 . S
C552 C548 1.368 . S
C552 C551 1.523 . S
H553 C528 0.950 . S
H554 C530 0.950 . S
H555 C531 0.949 . S
H556 C533 0.950 . S
H557 C535 0.950 . S
C558 C559 1.349 . S
C558 C560 1.327 . S
C558 H583 0.950 . S
C559 C558 1.349 . S
C559 C575 1.349 . S
C560 C558 1.327 . S
C560 C579 1.429 . S
C560 H584 0.950 . S
C561 C578 1.574 1_545 S
C561 C580 1.368 . S
C561 H585 0.949 . S
H562 C566 0.949 . S
C563 C564 1.349 . S
C563 C565 1.327 . S
C563 H586 0.950 . S
C564 C563 1.349 . S
C564 C576 1.349 . S
C565 C563 1.327 . S
C565 C581 1.429 . S
C565 H587 0.950 . S
C566 H562 0.949 . S
C566 C574 1.574 1_565 S
C566 C582 1.368 . S
H567 C575 0.950 . S
H568 C573 0.950 . S
H569 C574 0.949 . S
H570 C576 0.950 . S
H571 C577 0.950 . S
H572 C578 0.949 . S
C573 H568 0.950 . S
C573 C575 1.327 . S
C573 C579 1.429 . S
C574 C566 1.574 1_545 S
C574 H569 0.949 . S
C574 C580 1.368 . S
C575 C559 1.349 . S
C575 H567 0.950 . S
C575 C573 1.327 . S
C576 C564 1.349 . S
C576 H570 0.950 . S
C576 C577 1.327 . S
C577 H571 0.950 . S
C577 C576 1.327 . S
C577 C581 1.429 . S
C578 C561 1.574 1_565 S
C578 H572 0.949 . S
C578 C582 1.368 . S
C579 C560 1.429 . S
C579 C573 1.429 . S
C579 C580 1.523 . S
C580 C561 1.368 . S
C580 C574 1.368 . S
C580 C579 1.523 . S
C581 C565 1.429 . S
C581 C577 1.429 . S
C581 C582 1.523 . S
C582 C566 1.368 . S
C582 C578 1.368 . S
C582 C581 1.523 . S
H583 C558 0.950 . S
H584 C560 0.950 . S
H585 C561 0.949 . S
H586 C563 0.950 . S
H587 C565 0.950 . S
C588 C589 1.349 . S
C588 C590 1.327 . S
C588 H613 0.950 . S
C589 C588 1.349 . S
C589 C605 1.349 . S
C590 C588 1.327 . S
C590 C609 1.429 . S
C590 H614 0.950 . S
C591 C608 1.574 . S
C591 C610 1.368 . S
C591 H615 0.949 . S
H592 C596 0.949 . S
C593 C594 1.349 . S
C593 C595 1.327 . S
C593 H616 0.950 . S
C594 C593 1.349 . S
C594 C606 1.349 . S
C595 C593 1.327 . S
C595 C611 1.429 . S
C595 H617 0.950 . S
C596 H592 0.949 . S
C596 C604 1.574 . S
C596 C612 1.368 . S
H597 C605 0.950 . S
H598 C603 0.950 . S
H599 C604 0.949 . S
H600 C606 0.950 . S
H601 C607 0.950 . S
H602 C608 0.949 . S
C603 H598 0.950 . S
C603 C605 1.327 . S
C603 C609 1.429 . S
C604 C596 1.574 . S
C604 H599 0.949 . S
C604 C610 1.368 . S
C605 C589 1.349 . S
C605 H597 0.950 . S
C605 C603 1.327 . S
C606 C594 1.349 . S
C606 H600 0.950 . S
C606 C607 1.327 . S
C607 H601 0.950 . S
C607 C606 1.327 . S
C607 C611 1.429 . S
C608 C591 1.574 . S
C608 H602 0.949 . S
C608 C612 1.368 . S
C609 C590 1.429 . S
C609 C603 1.429 . S
C609 C610 1.523 . S
C610 C591 1.368 . S
C610 C604 1.368 . S
C610 C609 1.523 . S
C611 C595 1.429 . S
C611 C607 1.429 . S
C611 C612 1.523 . S
C612 C596 1.368 . S
C612 C608 1.368 . S
C612 C611 1.523 . S
H613 C588 0.950 . S
H614 C590 0.950 . S
H615 C591 0.949 . S
H616 C593 0.950 . S
H617 C595 0.950 . S
C618 C619 1.349 . S
C618 C620 1.327 . S
C618 H643 0.950 . S
C619 C618 1.349 . S
C619 C635 1.349 . S
C620 C618 1.327 . S
C620 C639 1.429 . S
C620 H644 0.950 . S
C621 C638 1.574 1_545 S
C621 C640 1.368 . S
C621 H645 0.949 . S
H622 C626 0.949 . S
C623 C624 1.349 . S
C623 C625 1.327 . S
C623 H646 0.950 . S
C624 C623 1.349 . S
C624 C636 1.349 . S
C625 C623 1.327 . S
C625 C641 1.429 . S
C625 H647 0.950 . S
C626 H622 0.949 . S
C626 C634 1.574 1_565 S
C626 C642 1.368 . S
H627 C635 0.950 . S
H628 C633 0.950 . S
H629 C634 0.949 . S
H630 C636 0.950 . S
H631 C637 0.950 . S
H632 C638 0.949 . S
C633 H628 0.950 . S
C633 C635 1.327 . S
C633 C639 1.429 . S
C634 C626 1.574 1_545 S
C634 H629 0.949 . S
C634 C640 1.368 . S
C635 C619 1.349 . S
C635 H627 0.950 . S
C635 C633 1.327 . S
C636 C624 1.349 . S
C636 H630 0.950 . S
C636 C637 1.327 . S
C637 H631 0.950 . S
C637 C636 1.327 . S
C637 C641 1.429 . S
C638 C621 1.574 1_565 S
C638 H632 0.949 . S
C638 C642 1.368 . S
C639 C620 1.429 . S
C639 C633 1.429 . S
C639 C640 1.523 . S
C640 C621 1.368 . S
C640 C634 1.368 . S
C640 C639 1.523 . S
C641 C625 1.429 . S
C641 C637 1.429 . S
C641 C642 1.523 . S
C642 C626 1.368 . S
C642 C638 1.368 . S
C642 C641 1.523 . S
H643 C618 0.950 . S
H644 C620 0.950 . S
H645 C621 0.949 . S
H646 C623 0.950 . S
H647 C625 0.950 . S
C648 C649 1.349 . S
C648 C650 1.327 . S
C648 H673 0.950 . S
C649 C648 1.349 . S
C649 C665 1.349 . S
C650 C648 1.327 . S
C650 C669 1.429 . S
C650 H674 0.950 . S
C651 C668 1.574 . S
C651 C670 1.368 . S
C651 H675 0.949 . S
H652 C656 0.949 . S
C653 C654 1.349 . S
C653 C655 1.327 . S
C653 H676 0.950 . S
C654 C653 1.349 . S
C654 C666 1.349 . S
C655 C653 1.327 . S
C655 C671 1.429 . S
C655 H677 0.950 . S
C656 H652 0.949 . S
C656 C664 1.574 . S
C656 C672 1.368 . S
H657 C665 0.950 . S
H658 C663 0.950 . S
H659 C664 0.949 . S
H660 C666 0.950 . S
H661 C667 0.950 . S
H662 C668 0.949 . S
C663 H658 0.950 . S
C663 C665 1.327 . S
C663 C669 1.429 . S
C664 C656 1.574 . S
C664 H659 0.949 . S
C664 C670 1.368 . S
C665 C649 1.349 . S
C665 H657 0.950 . S
C665 C663 1.327 . S
C666 C654 1.349 . S
C666 H660 0.950 . S
C666 C667 1.327 . S
C667 H661 0.950 . S
C667 C666 1.327 . S
C667 C671 1.429 . S
C668 C651 1.574 . S
C668 H662 0.949 . S
C668 C672 1.368 . S
C669 C650 1.429 . S
C669 C663 1.429 . S
C669 C670 1.523 . S
C670 C651 1.368 . S
C670 C664 1.368 . S
C670 C669 1.523 . S
C671 C655 1.429 . S
C671 C667 1.429 . S
C671 C672 1.523 . S
C672 C656 1.368 . S
C672 C668 1.368 . S
C672 C671 1.523 . S
H673 C648 0.950 . S
H674 C650 0.950 . S
H675 C651 0.949 . S
H676 C653 0.950 . S
H677 C655 0.950 . S
C678 C679 1.349 . S
C678 C680 1.327 . S
C678 H703 0.950 . S
C679 C678 1.349 . S
C679 C695 1.349 . S
C680 C678 1.327 . S
C680 C699 1.429 . S
C680 H704 0.950 . S
C681 C698 1.574 1_455 S
C681 C700 1.368 . S
C681 H705 0.949 . S
H682 C686 0.949 . S
C683 C684 1.349 . S
C683 C685 1.327 . S
C683 H706 0.950 . S
C684 C683 1.349 . S
C684 C696 1.349 . S
C685 C683 1.327 . S
C685 C701 1.429 . S
C685 H707 0.950 . S
C686 H682 0.949 . S
C686 C694 1.574 1_655 S
C686 C702 1.368 . S
H687 C695 0.950 . S
H688 C693 0.950 . S
H689 C694 0.949 . S
H690 C696 0.950 . S
H691 C697 0.950 . S
H692 C698 0.949 . S
C693 H688 0.950 . S
C693 C695 1.327 . S
C693 C699 1.429 . S
C694 C686 1.574 1_455 S
C694 H689 0.949 . S
C694 C700 1.368 . S
C695 C679 1.349 . S
C695 H687 0.950 . S
C695 C693 1.327 . S
C696 C684 1.349 . S
C696 H690 0.950 . S
C696 C697 1.327 . S
C697 H691 0.950 . S
C697 C696 1.327 . S
C697 C701 1.429 . S
C698 C681 1.574 1_655 S
C698 H692 0.949 . S
C698 C702 1.368 . S
C699 C680 1.429 . S
C699 C693 1.429 . S
C699 C700 1.523 . S
C700 C681 1.368 . S
C700 C694 1.368 . S
C700 C699 1.523 . S
C701 C685 1.429 . S
C701 C697 1.429 . S
C701 C702 1.523 . S
C702 C686 1.368 . S
C702 C698 1.368 . S
C702 C701 1.523 . S
H703 C678 0.950 . S
H704 C680 0.950 . S
H705 C681 0.949 . S
H706 C683 0.950 . S
H707 C685 0.950 . S
C708 C709 1.349 . S
C708 C710 1.327 . S
C708 H733 0.950 . S
C709 C708 1.349 . S
C709 C725 1.349 . S
C710 C708 1.327 . S
C710 C729 1.429 . S
C710 H734 0.950 . S
C711 C728 1.574 . S
C711 C730 1.368 . S
C711 H735 0.949 . S
H712 C716 0.949 . S
C713 C714 1.349 . S
C713 C715 1.327 . S
C713 H736 0.950 . S
C714 C713 1.349 . S
C714 C726 1.349 . S
C715 C713 1.327 . S
C715 C731 1.429 . S
C715 H737 0.950 . S
C716 H712 0.949 . S
C716 C724 1.574 . S
C716 C732 1.368 . S
H717 C725 0.950 . S
H718 C723 0.950 . S
H719 C724 0.949 . S
H720 C726 0.950 . S
H721 C727 0.950 . S
H722 C728 0.949 . S
C723 H718 0.950 . S
C723 C725 1.327 . S
C723 C729 1.429 . S
C724 C716 1.574 . S
C724 H719 0.949 . S
C724 C730 1.368 . S
C725 C709 1.349 . S
C725 H717 0.950 . S
C725 C723 1.327 . S
C726 C714 1.349 . S
C726 H720 0.950 . S
C726 C727 1.327 . S
C727 H721 0.950 . S
C727 C726 1.327 . S
C727 C731 1.429 . S
C728 C711 1.574 . S
C728 H722 0.949 . S
C728 C732 1.368 . S
C729 C710 1.429 . S
C729 C723 1.429 . S
C729 C730 1.523 . S
C730 C711 1.368 . S
C730 C724 1.368 . S
C730 C729 1.523 . S
C731 C715 1.429 . S
C731 C727 1.429 . S
C731 C732 1.523 . S
C732 C716 1.368 . S
C732 C728 1.368 . S
C732 C731 1.523 . S
H733 C708 0.950 . S
H734 C710 0.950 . S
H735 C711 0.949 . S
H736 C713 0.950 . S
H737 C715 0.950 . S
C738 C739 1.349 . S
C738 C740 1.327 1_655 S
C738 H763 0.950 . S
C739 C738 1.349 . S
C739 C755 1.349 . S
C740 C738 1.327 1_455 S
C740 C759 1.429 . S
C740 H764 0.950 . S
C741 C758 1.574 . S
C741 C760 1.368 . S
C741 H765 0.949 . S
H742 C746 0.949 . S
C743 C744 1.349 . S
C743 C745 1.327 . S
C743 H766 0.950 . S
C744 C743 1.349 . S
C744 C756 1.349 . S
C745 C743 1.327 . S
C745 C761 1.429 . S
C745 H767 0.950 . S
C746 H742 0.949 . S
C746 C754 1.574 . S
C746 C762 1.368 . S
H747 C755 0.950 . S
H748 C753 0.950 . S
H749 C754 0.949 . S
H750 C756 0.950 . S
H751 C757 0.950 . S
H752 C758 0.949 . S
C753 H748 0.950 . S
C753 C755 1.327 1_455 S
C753 C759 1.429 . S
C754 C746 1.574 . S
C754 H749 0.949 . S
C754 C760 1.368 . S
C755 C739 1.349 . S
C755 H747 0.950 . S
C755 C753 1.327 1_655 S
C756 C744 1.349 . S
C756 H750 0.950 . S
C756 C757 1.327 . S
C757 H751 0.950 . S
C757 C756 1.327 . S
C757 C761 1.429 . S
C758 C741 1.574 . S
C758 H752 0.949 . S
C758 C762 1.368 . S
C759 C740 1.429 . S
C759 C753 1.429 . S
C759 C760 1.523 . S
C760 C741 1.368 . S
C760 C754 1.368 . S
C760 C759 1.523 . S
C761 C745 1.429 . S
C761 C757 1.429 . S
C761 C762 1.523 . S
C762 C746 1.368 . S
C762 C758 1.368 . S
C762 C761 1.523 . S
H763 C738 0.950 . S
H764 C740 0.950 . S
H765 C741 0.949 . S
H766 C743 0.950 . S
H767 C745 0.950 . S
C768 C769 1.349 . S
C768 C770 1.327 1_545 S
C768 H793 0.950 . S
C769 C768 1.349 . S
C769 C785 1.349 . S
C770 C768 1.327 1_565 S
C770 C789 1.429 . S
C770 H794 0.950 . S
C771 C788 1.574 . S
C771 C790 1.368 . S
C771 H795 0.949 . S
H772 C776 0.949 . S
C773 C774 1.349 . S
C773 C775 1.327 . S
C773 H796 0.950 . S
C774 C773 1.349 . S
C774 C786 1.349 . S
C775 C773 1.327 . S
C775 C791 1.429 . S
C775 H797 0.950 . S
C776 H772 0.949 . S
C776 C784 1.574 . S
C776 C792 1.368 . S
H777 C785 0.950 . S
H778 C783 0.950 . S
H779 C784 0.949 . S
H780 C786 0.950 . S
H781 C787 0.950 . S
H782 C788 0.949 . S
C783 H778 0.950 . S
C783 C785 1.327 1_565 S
C783 C789 1.429 . S
C784 C776 1.574 . S
C784 H779 0.949 . S
C784 C790 1.368 . S
C785 C769 1.349 . S
C785 H777 0.950 . S
C785 C783 1.327 1_545 S
C786 C774 1.349 . S
C786 H780 0.950 . S
C786 C787 1.327 . S
C787 H781 0.950 . S
C787 C786 1.327 . S
C787 C791 1.429 . S
C788 C771 1.574 . S
C788 H782 0.949 . S
C788 C792 1.368 . S
C789 C770 1.429 . S
C789 C783 1.429 . S
C789 C790 1.523 . S
C790 C771 1.368 . S
C790 C784 1.368 . S
C790 C789 1.523 . S
C791 C775 1.429 . S
C791 C787 1.429 . S
C791 C792 1.523 . S
C792 C776 1.368 . S
C792 C788 1.368 . S
C792 C791 1.523 . S
H793 C768 0.950 . S
H794 C770 0.950 . S
H795 C771 0.949 . S
H796 C773 0.950 . S
H797 C775 0.950 . S
C798 C799 1.349 . S
C798 C800 1.327 . S
C798 H823 0.950 . S
C799 C798 1.349 . S
C799 C815 1.349 . S
C800 C798 1.327 . S
C800 C819 1.429 . S
C800 H824 0.950 . S
C801 C818 1.574 . S
C801 C820 1.368 . S
C801 H825 0.949 . S
H802 C806 0.949 . S
C803 C804 1.349 . S
C803 C805 1.327 . S
C803 H826 0.950 . S
C804 C803 1.349 . S
C804 C816 1.349 . S
C805 C803 1.327 . S
C805 C821 1.429 . S
C805 H827 0.950 . S
C806 H802 0.949 . S
C806 C814 1.574 . S
C806 C822 1.368 . S
H807 C815 0.950 . S
H808 C813 0.950 . S
H809 C814 0.949 . S
H810 C816 0.950 . S
H811 C817 0.950 . S
H812 C818 0.949 . S
C813 H808 0.950 . S
C813 C815 1.327 . S
C813 C819 1.429 . S
C814 C806 1.574 . S
C814 H809 0.949 . S
C814 C820 1.368 . S
C815 C799 1.349 . S
C815 H807 0.950 . S
C815 C813 1.327 . S
C816 C804 1.349 . S
C816 H810 0.950 . S
C816 C817 1.327 . S
C817 H811 0.950 . S
C817 C816 1.327 . S
C817 C821 1.429 . S
C818 C801 1.574 . S
C818 H812 0.949 . S
C818 C822 1.368 . S
C819 C800 1.429 . S
C819 C813 1.429 . S
C819 C820 1.523 . S
C820 C801 1.368 . S
C820 C814 1.368 . S
C820 C819 1.523 . S
C821 C805 1.429 . S
C821 C817 1.429 . S
C821 C822 1.523 . S
C822 C806 1.368 . S
C822 C818 1.368 . S
C822 C821 1.523 . S
H823 C798 0.950 . S
H824 C800 0.950 . S
H825 C801 0.949 . S
H826 C803 0.950 . S
H827 C805 0.950 . S
C828 C829 1.349 . S
C828 C830 1.327 1_455 S
C828 H853 0.950 . S
C829 C828 1.349 . S
C829 C845 1.349 . S
C830 C828 1.327 1_655 S
C830 C849 1.429 . S
C830 H854 0.950 . S
C831 C848 1.574 . S
C831 C850 1.368 . S
C831 H855 0.949 . S
H832 C836 0.949 . S
C833 C834 1.349 . S
C833 C835 1.327 . S
C833 H856 0.950 . S
C834 C833 1.349 . S
C834 C846 1.349 . S
C835 C833 1.327 . S
C835 C851 1.429 . S
C835 H857 0.950 . S
C836 H832 0.949 . S
C836 C844 1.574 . S
C836 C852 1.368 . S
H837 C845 0.950 . S
H838 C843 0.950 . S
H839 C844 0.949 . S
H840 C846 0.950 . S
H841 C847 0.950 . S
H842 C848 0.949 . S
C843 H838 0.950 . S
C843 C845 1.327 1_655 S
C843 C849 1.429 . S
C844 C836 1.574 . S
C844 H839 0.949 . S
C844 C850 1.368 . S
C845 C829 1.349 . S
C845 H837 0.950 . S
C845 C843 1.327 1_455 S
C846 C834 1.349 . S
C846 H840 0.950 . S
C846 C847 1.327 . S
C847 H841 0.950 . S
C847 C846 1.327 . S
C847 C851 1.429 . S
C848 C831 1.574 . S
C848 H842 0.949 . S
C848 C852 1.368 . S
C849 C830 1.429 . S
C849 C843 1.429 . S
C849 C850 1.523 . S
C850 C831 1.368 . S
C850 C844 1.368 . S
C850 C849 1.523 . S
C851 C835 1.429 . S
C851 C847 1.429 . S
C851 C852 1.523 . S
C852 C836 1.368 . S
C852 C848 1.368 . S
C852 C851 1.523 . S
H853 C828 0.950 . S
H854 C830 0.950 . S
H855 C831 0.949 . S
H856 C833 0.950 . S
H857 C835 0.950 . S
C858 C859 1.349 . S
C858 C860 1.327 1_565 S
C858 H883 0.950 . S
C859 C858 1.349 . S
C859 C875 1.349 . S
C860 C858 1.327 1_545 S
C860 C879 1.429 . S
C860 H884 0.950 . S
C861 C878 1.574 . S
C861 C880 1.368 . S
C861 H885 0.949 . S
H862 C866 0.949 . S
C863 C864 1.349 . S
C863 C865 1.327 . S
C863 H886 0.950 . S
C864 C863 1.349 . S
C864 C876 1.349 . S
C865 C863 1.327 . S
C865 C881 1.429 . S
C865 H887 0.950 . S
C866 H862 0.949 . S
C866 C874 1.574 . S
C866 C882 1.368 . S
H867 C875 0.950 . S
H868 C873 0.950 . S
H869 C874 0.949 . S
H870 C876 0.950 . S
H871 C877 0.950 . S
H872 C878 0.949 . S
C873 H868 0.950 . S
C873 C875 1.327 1_545 S
C873 C879 1.429 . S
C874 C866 1.574 . S
C874 H869 0.949 . S
C874 C880 1.368 . S
C875 C859 1.349 . S
C875 H867 0.950 . S
C875 C873 1.327 1_565 S
C876 C864 1.349 . S
C876 H870 0.950 . S
C876 C877 1.327 . S
C877 H871 0.950 . S
C877 C876 1.327 . S
C877 C881 1.429 . S
C878 C861 1.574 . S
C878 H872 0.949 . S
C878 C882 1.368 . S
C879 C860 1.429 . S
C879 C873 1.429 . S
C879 C880 1.523 . S
C880 C861 1.368 . S
C880 C874 1.368 . S
C880 C879 1.523 . S
C881 C865 1.429 . S
C881 C877 1.429 . S
C881 C882 1.523 . S
C882 C866 1.368 . S
C882 C878 1.368 . S
C882 C881 1.523 . S
H883 C858 0.950 . S
H884 C860 0.950 . S
H885 C861 0.949 . S
H886 C863 0.950 . S
H887 C865 0.950 . S
C169 C148 1.416 . S
C174 C8 1.269 . S
C199 C22 1.412 . S
C204 C162 1.266 . S
C229 C36 1.269 . S
C234 C92 1.416 . S
C259 C50 1.416 . S
C264 C106 1.269 . S
C289 C120 1.412 . S
C294 C64 1.266 . S
C319 C78 1.416 . S
C324 C134 1.269 . S
C349 C119 1.601 . S
C354 C7 1.580 . S
C379 C21 1.601 . S
C384 C133 1.580 . S
C409 C35 1.580 . S
C414 C147 1.601 . S
C439 C49 1.598 . S
C444 C161 1.578 . S
C469 C91 1.598 . S
C474 C63 1.578 . S
C499 C105 1.580 . S
C504 C77 1.601 . S
C529 C51 1.596 . S
C534 C9 1.592 . S
C559 C23 1.596 . S
C564 C65 1.592 . S
C589 C79 1.596 . S
C594 C37 1.592 . S
C619 C135 1.592 . S
C624 C93 1.596 . S
C649 C149 1.596 . S
C654 C107 1.592 . S
C679 C121 1.596 . S
C684 C163 1.593 . S
C709 C48 1.144 . S
C714 C6 1.144 . S
C739 C20 1.145 . S
C744 C62 1.145 . S
C769 C76 1.146 . S
C774 C34 1.145 . S
C799 C90 1.145 . S
C804 C132 1.144 . S
C829 C146 1.145 . S
C834 C104 1.145 . S
C859 C118 1.145 . S
C864 C160 1.145 . S
