# Generated by pormake.
# Topology gme, (4)-cn, num edge types: 1
# Building blocks:
#     Node 0, Type 0, BuildingBlock: NAHDIM_clean_sbu_0, # of connection points: 4
#     Node 1, Type 0, BuildingBlock: NAHDIM_clean_sbu_0, # of connection points: 4
#     Node 2, Type 0, BuildingBlock: NAHDIM_clean_sbu_0, # of connection points: 4
#     Node 3, Type 0, BuildingBlock: NAHDIM_clean_sbu_0, # of connection points: 4
#     Node 4, Type 0, BuildingBlock: NAHDIM_clean_sbu_0, # of connection points: 4
#     Node 5, Type 0, BuildingBlock: NAHDIM_clean_sbu_0, # of connection points: 4
#     Node 6, Type 0, BuildingBlock: NAHDIM_clean_sbu_0, # of connection points: 4
#     Node 7, Type 0, BuildingBlock: NAHDIM_clean_sbu_0, # of connection points: 4
#     Node 8, Type 0, BuildingBlock: NAHDIM_clean_sbu_0, # of connection points: 4
#     Node 9, Type 0, BuildingBlock: NAHDIM_clean_sbu_0, # of connection points: 4
#     Node 10, Type 0, BuildingBlock: NAHDIM_clean_sbu_0, # of connection points: 4
#     Node 11, Type 0, BuildingBlock: NAHDIM_clean_sbu_0, # of connection points: 4
#     Node 12, Type 0, BuildingBlock: NAHDIM_clean_sbu_0, # of connection points: 4
#     Node 13, Type 0, BuildingBlock: NAHDIM_clean_sbu_0, # of connection points: 4
#     Node 14, Type 0, BuildingBlock: NAHDIM_clean_sbu_0, # of connection points: 4
#     Node 15, Type 0, BuildingBlock: NAHDIM_clean_sbu_0, # of connection points: 4
#     Node 16, Type 0, BuildingBlock: NAHDIM_clean_sbu_0, # of connection points: 4
#     Node 17, Type 0, BuildingBlock: NAHDIM_clean_sbu_0, # of connection points: 4
#     Node 18, Type 0, BuildingBlock: NAHDIM_clean_sbu_0, # of connection points: 4
#     Node 19, Type 0, BuildingBlock: NAHDIM_clean_sbu_0, # of connection points: 4
#     Node 20, Type 0, BuildingBlock: NAHDIM_clean_sbu_0, # of connection points: 4
#     Node 21, Type 0, BuildingBlock: NAHDIM_clean_sbu_0, # of connection points: 4
#     Node 22, Type 0, BuildingBlock: NAHDIM_clean_sbu_0, # of connection points: 4
#     Node 23, Type 0, BuildingBlock: NAHDIM_clean_sbu_0, # of connection points: 4
#     Edge 24, Type (0, 0), BuildingBlock: AJUNOK_clean_linker_0, # of connection points: 2
#     Edge 25, Type (0, 0), BuildingBlock: AJUNOK_clean_linker_0, # of connection points: 2
#     Edge 26, Type (0, 0), BuildingBlock: AJUNOK_clean_linker_0, # of connection points: 2
#     Edge 27, Type (0, 0), BuildingBlock: AJUNOK_clean_linker_0, # of connection points: 2
#     Edge 28, Type (0, 0), BuildingBlock: AJUNOK_clean_linker_0, # of connection points: 2
#     Edge 29, Type (0, 0), BuildingBlock: AJUNOK_clean_linker_0, # of connection points: 2
#     Edge 30, Type (0, 0), BuildingBlock: AJUNOK_clean_linker_0, # of connection points: 2
#     Edge 31, Type (0, 0), BuildingBlock: AJUNOK_clean_linker_0, # of connection points: 2
#     Edge 32, Type (0, 0), BuildingBlock: AJUNOK_clean_linker_0, # of connection points: 2
#     Edge 33, Type (0, 0), BuildingBlock: AJUNOK_clean_linker_0, # of connection points: 2
#     Edge 34, Type (0, 0), BuildingBlock: AJUNOK_clean_linker_0, # of connection points: 2
#     Edge 35, Type (0, 0), BuildingBlock: AJUNOK_clean_linker_0, # of connection points: 2
#     Edge 36, Type (0, 0), BuildingBlock: AJUNOK_clean_linker_0, # of connection points: 2
#     Edge 37, Type (0, 0), BuildingBlock: AJUNOK_clean_linker_0, # of connection points: 2
#     Edge 38, Type (0, 0), BuildingBlock: AJUNOK_clean_linker_0, # of connection points: 2
#     Edge 39, Type (0, 0), BuildingBlock: AJUNOK_clean_linker_0, # of connection points: 2
#     Edge 40, Type (0, 0), BuildingBlock: AJUNOK_clean_linker_0, # of connection points: 2
#     Edge 41, Type (0, 0), BuildingBlock: AJUNOK_clean_linker_0, # of connection points: 2
#     Edge 42, Type (0, 0), BuildingBlock: AJUNOK_clean_linker_0, # of connection points: 2
#     Edge 43, Type (0, 0), BuildingBlock: AJUNOK_clean_linker_0, # of connection points: 2
#     Edge 44, Type (0, 0), BuildingBlock: AJUNOK_clean_linker_0, # of connection points: 2
#     Edge 45, Type (0, 0), BuildingBlock: AJUNOK_clean_linker_0, # of connection points: 2
#     Edge 46, Type (0, 0), BuildingBlock: AJUNOK_clean_linker_0, # of connection points: 2
#     Edge 47, Type (0, 0), BuildingBlock: AJUNOK_clean_linker_0, # of connection points: 2
#     Edge 48, Type (0, 0), BuildingBlock: AJUNOK_clean_linker_0, # of connection points: 2
#     Edge 49, Type (0, 0), BuildingBlock: AJUNOK_clean_linker_0, # of connection points: 2
#     Edge 50, Type (0, 0), BuildingBlock: AJUNOK_clean_linker_0, # of connection points: 2
#     Edge 51, Type (0, 0), BuildingBlock: AJUNOK_clean_linker_0, # of connection points: 2
#     Edge 52, Type (0, 0), BuildingBlock: AJUNOK_clean_linker_0, # of connection points: 2
#     Edge 53, Type (0, 0), BuildingBlock: AJUNOK_clean_linker_0, # of connection points: 2
#     Edge 54, Type (0, 0), BuildingBlock: AJUNOK_clean_linker_0, # of connection points: 2
#     Edge 55, Type (0, 0), BuildingBlock: AJUNOK_clean_linker_0, # of connection points: 2
#     Edge 56, Type (0, 0), BuildingBlock: AJUNOK_clean_linker_0, # of connection points: 2
#     Edge 57, Type (0, 0), BuildingBlock: AJUNOK_clean_linker_0, # of connection points: 2
#     Edge 58, Type (0, 0), BuildingBlock: AJUNOK_clean_linker_0, # of connection points: 2
#     Edge 59, Type (0, 0), BuildingBlock: AJUNOK_clean_linker_0, # of connection points: 2
#     Edge 60, Type (0, 0), BuildingBlock: AJUNOK_clean_linker_0, # of connection points: 2
#     Edge 61, Type (0, 0), BuildingBlock: AJUNOK_clean_linker_0, # of connection points: 2
#     Edge 62, Type (0, 0), BuildingBlock: AJUNOK_clean_linker_0, # of connection points: 2
#     Edge 63, Type (0, 0), BuildingBlock: AJUNOK_clean_linker_0, # of connection points: 2
#     Edge 64, Type (0, 0), BuildingBlock: AJUNOK_clean_linker_0, # of connection points: 2
#     Edge 65, Type (0, 0), BuildingBlock: AJUNOK_clean_linker_0, # of connection points: 2
#     Edge 66, Type (0, 0), BuildingBlock: AJUNOK_clean_linker_0, # of connection points: 2
#     Edge 67, Type (0, 0), BuildingBlock: AJUNOK_clean_linker_0, # of connection points: 2
#     Edge 68, Type (0, 0), BuildingBlock: AJUNOK_clean_linker_0, # of connection points: 2
#     Edge 69, Type (0, 0), BuildingBlock: AJUNOK_clean_linker_0, # of connection points: 2
#     Edge 70, Type (0, 0), BuildingBlock: AJUNOK_clean_linker_0, # of connection points: 2
#     Edge 71, Type (0, 0), BuildingBlock: AJUNOK_clean_linker_0, # of connection points: 2
# Relax obj value: 0.157
# Max RMSD: 0.149
# Mean RMSD: 0.149
data_MOF--net-gme--node1-NAHDIM_clean_sbu_0--edge1-AJUNOK_clean_linker_0
_symmetry_space_group_name_H-M    P1
_symmetry_Int_Tables_number       1
_symmetry_cell_setting            triclinic
loop_
_symmetry_equiv_pos_as_xyz
'x, y, z'
_cell_length_a     46.107379
_cell_length_b     46.074132
_cell_length_c     38.037594
_cell_angle_alpha  89.891555
_cell_angle_beta   90.063168
_cell_angle_gamma 120.04439
loop_
_atom_site_label
_atom_site_type_symbol
_atom_site_fract_x
_atom_site_fract_y
_atom_site_fract_z
_atom_type_partial_charge
C0 C 0.38668 0.06128 0.04692 0.0
O1 O 0.39622 0.09189 0.03622 0.0
O2 O 0.43358 0.13853 0.09232 0.0
Zn3 Zn 0.42983 0.09485 0.1069 0.0
O4 O 0.47465 0.09717 0.10476 0.0
C5 C 0.40102 0.10058 0.1725 0.0
O6 O 0.39504 0.12122 0.1542 0.0
O7 O 0.39746 0.05709 0.07615 0.0
C8 C 0.49373 0.10732 0.13152 0.0
O9 O 0.48459 0.11796 0.15906 0.0
C10 C 0.46011 0.16408 0.08136 0.0
O11 O 0.48746 0.16228 0.07753 0.0
O12 O 0.4142 0.0855 0.1572 0.0
C13 C 0.33283 0.38882 0.53969 0.0
O14 O 0.32519 0.41009 0.5253 0.0
O15 O 0.2798 0.41458 0.58225 0.0
Zn16 Zn 0.32222 0.41751 0.60023 0.0
O17 O 0.36129 0.46411 0.59411 0.0
C18 C 0.29363 0.40634 0.66956 0.0
O19 O 0.27222 0.41235 0.65293 0.0
O20 O 0.33236 0.38644 0.57298 0.0
C21 C 0.36512 0.48837 0.6132 0.0
O22 O 0.34238 0.483 0.63707 0.0
C23 C 0.27831 0.43717 0.5645 0.0
O24 O 0.30623 0.46409 0.55506 0.0
O25 O 0.31725 0.40644 0.6522 0.0
C26 C 0.93691 0.33625 0.04398 0.0
O27 O 0.90844 0.32767 0.02803 0.0
O28 O 0.85644 0.28373 0.08498 0.0
Zn29 Zn 0.89563 0.32631 0.10343 0.0
O30 O 0.88835 0.36551 0.09669 0.0
C31 C 0.87729 0.29687 0.1726 0.0
O32 O 0.85055 0.27494 0.1554 0.0
O33 O 0.9376 0.33662 0.07738 0.0
C34 C 0.86874 0.37012 0.11631 0.0
O35 O 0.85194 0.34804 0.14101 0.0
C36 C 0.83212 0.28209 0.06758 0.0
O37 O 0.83297 0.31 0.0584 0.0
O38 O 0.9007 0.32117 0.15571 0.0
C39 C 0.59383 0.93271 0.54551 0.0
O40 O 0.57266 0.90322 0.53231 0.0
O41 O 0.56354 0.85543 0.59599 0.0
Zn42 Zn 0.56358 0.89773 0.60906 0.0
O43 O 0.51766 0.89182 0.60288 0.0
C44 C 0.59243 0.89665 0.67654 0.0
O45 O 0.60372 0.87979 0.65906 0.0
O46 O 0.59532 0.93635 0.57869 0.0
C47 C 0.49398 0.87378 0.6239 0.0
O48 O 0.49964 0.85803 0.64947 0.0
C49 C 0.54103 0.83219 0.57735 0.0
O50 O 0.51667 0.836 0.56453 0.0
O51 O 0.57583 0.90765 0.66017 0.0
C52 C 0.66613 0.6124 0.03886 0.0
O53 O 0.67723 0.59334 0.02596 0.0
O54 O 0.71066 0.58135 0.09206 0.0
Zn55 Zn 0.66725 0.57991 0.10239 0.0
O56 O 0.62842 0.53334 0.09544 0.0
C57 C 0.69327 0.61093 0.17002 0.0
O58 O 0.72216 0.62569 0.15346 0.0
O59 O 0.66081 0.61156 0.07167 0.0
C60 C 0.62397 0.51046 0.11712 0.0
O61 O 0.64562 0.51782 0.14282 0.0
C62 C 0.71272 0.55935 0.0739 0.0
O63 O 0.68541 0.53478 0.05986 0.0
O64 O 0.66688 0.59142 0.15303 0.0
C65 C 0.0566 0.6611 0.54108 0.0
O66 O 0.08668 0.6766 0.52712 0.0
O67 O 0.1341 0.70568 0.58813 0.0
Zn68 Zn 0.09387 0.66182 0.60163 0.0
O69 O 0.10218 0.62352 0.59382 0.0
C70 C 0.09534 0.68944 0.67063 0.0
O71 O 0.11141 0.71834 0.65412 0.0
O72 O 0.05356 0.65305 0.57339 0.0
C73 C 0.12114 0.61884 0.61445 0.0
O74 O 0.13644 0.6404 0.63997 0.0
C75 C 0.15841 0.70862 0.56976 0.0
O76 O 0.15766 0.68155 0.5577 0.0
O77 O 0.08488 0.66253 0.65319 0.0
C78 C 0.93782 0.60029 0.45295 0.0
O79 O 0.90893 0.57871 0.46712 0.0
O80 O 0.86072 0.57458 0.40071 0.0
Zn81 Zn 0.90116 0.57049 0.39017 0.0
O82 O 0.89173 0.52353 0.39875 0.0
C83 C 0.90799 0.60174 0.32223 0.0
O84 O 0.89657 0.61886 0.33904 0.0
O85 O 0.94033 0.60195 0.41969 0.0
C86 C 0.87247 0.50002 0.37816 0.0
O87 O 0.85796 0.50682 0.35221 0.0
C88 C 0.83648 0.55411 0.41986 0.0
O89 O 0.8378 0.52904 0.43473 0.0
O90 O 0.91249 0.58051 0.33911 0.0
C91 C 0.32213 0.94511 0.95559 0.0
O92 O 0.31763 0.91659 0.96824 0.0
O93 O 0.27475 0.86591 0.91214 0.0
Zn94 Zn 0.31473 0.90845 0.89474 0.0
O95 O 0.35738 0.90745 0.9014 0.0
C96 C 0.28788 0.88819 0.82531 0.0
O97 O 0.26887 0.86001 0.84213 0.0
O98 O 0.32027 0.94787 0.92254 0.0
C99 C 0.36353 0.88631 0.88692 0.0
O100 O 0.34051 0.86268 0.86707 0.0
C101 C 0.27536 0.84278 0.92978 0.0
O102 O 0.30427 0.84676 0.94027 0.0
O103 O 0.30945 0.91349 0.84258 0.0
C104 C 0.39443 0.33223 0.4508 0.0
O105 O 0.41067 0.31819 0.4643 0.0
O106 O 0.42724 0.28843 0.40195 0.0
Zn107 Zn 0.42926 0.33161 0.3887 0.0
O108 O 0.47579 0.37068 0.39486 0.0
C109 C 0.39798 0.30243 0.32186 0.0
O110 O 0.38291 0.27455 0.34025 0.0
O111 O 0.39787 0.3395 0.41826 0.0
C112 C 0.49923 0.3741 0.37465 0.0
O113 O 0.4927 0.35093 0.35093 0.0
C114 C 0.44906 0.28625 0.4204 0.0
O115 O 0.4748 0.31373 0.43268 0.0
O116 O 0.41776 0.32968 0.33746 0.0
C117 C 0.05794 0.39393 0.95881 0.0
O118 O 0.08733 0.41408 0.97289 0.0
O119 O 0.13559 0.41766 0.9135 0.0
Zn120 Zn 0.09648 0.42211 0.89708 0.0
O121 O 0.10573 0.46932 0.90324 0.0
C122 C 0.11161 0.4114 0.82643 0.0
O123 O 0.13978 0.41772 0.84161 0.0
O124 O 0.05546 0.39215 0.9255 0.0
C125 C 0.1261 0.49327 0.8837 0.0
O126 O 0.14263 0.4873 0.85936 0.0
C127 C 0.16005 0.43946 0.93145 0.0
O128 O 0.15985 0.46653 0.94186 0.0
O129 O 0.08857 0.41093 0.84522 0.0
C130 C 0.65556 0.05128 0.45647 0.0
O131 O 0.66664 0.08062 0.47151 0.0
O132 O 0.70562 0.13081 0.41413 0.0
Zn133 Zn 0.66417 0.09072 0.39526 0.0
O134 O 0.62462 0.09791 0.39787 0.0
C135 C 0.69492 0.1084 0.32671 0.0
O136 O 0.71513 0.13652 0.34303 0.0
O137 O 0.65317 0.04943 0.42318 0.0
C138 C 0.62255 0.11903 0.37801 0.0
O139 O 0.64733 0.13711 0.35635 0.0
C140 C 0.70597 0.15471 0.43109 0.0
O141 O 0.67745 0.15297 0.43916 0.0
O142 O 0.67152 0.08454 0.34404 0.0
C143 C 0.60651 0.66694 0.94463 0.0
O144 O 0.59461 0.686 0.9554 0.0
O145 O 0.56571 0.70056 0.88774 0.0
Zn146 Zn 0.56528 0.65712 0.88304 0.0
O147 O 0.51909 0.61826 0.89165 0.0
C148 C 0.59882 0.6824 0.81813 0.0
O149 O 0.61553 0.70938 0.83751 0.0
O150 O 0.59804 0.65331 0.91455 0.0
C151 C 0.49413 0.61637 0.87534 0.0
O152 O 0.49903 0.64083 0.85395 0.0
C153 C 0.54932 0.70829 0.90875 0.0
O154 O 0.53107 0.6872 0.93361 0.0
O155 O 0.57677 0.65548 0.83269 0.0
C156 C 0.58867 0.93048 0.95541 0.0
O157 O 0.5777 0.90028 0.96829 0.0
O158 O 0.55459 0.85295 0.90742 0.0
Zn159 Zn 0.55294 0.89405 0.89293 0.0
O160 O 0.50514 0.88355 0.8949 0.0
C161 C 0.5903 0.89995 0.82924 0.0
O162 O 0.6064 0.88968 0.84964 0.0
O163 O 0.58162 0.93355 0.92383 0.0
C164 C 0.49858 0.90712 0.89765 0.0
O165 O 0.52348 0.9381 0.90049 0.0
C166 C 0.54217 0.82896 0.88553 0.0
O167 O 0.52851 0.83209 0.8565 0.0
O168 O 0.56781 0.90483 0.84251 0.0
C169 C 0.66164 0.60652 0.45097 0.0
O170 O 0.67696 0.59162 0.46467 0.0
O171 O 0.70789 0.57625 0.40012 0.0
Zn172 Zn 0.66371 0.57262 0.38848 0.0
O173 O 0.62601 0.52529 0.39448 0.0
C174 C 0.69077 0.60661 0.32245 0.0
O175 O 0.71881 0.62243 0.34043 0.0
O176 O 0.65442 0.60265 0.41847 0.0
C177 C 0.62381 0.50228 0.37438 0.0
O178 O 0.6473 0.50983 0.35075 0.0
C179 C 0.71106 0.5554 0.41928 0.0
O180 O 0.68427 0.53042 0.43368 0.0
O181 O 0.66431 0.58488 0.33789 0.0
C182 C 0.05503 0.65625 0.95113 0.0
O183 O 0.08441 0.67181 0.96666 0.0
O184 O 0.13358 0.70513 0.90668 0.0
Zn185 Zn 0.09545 0.66029 0.89218 0.0
O186 O 0.1057 0.6234 0.90124 0.0
C187 C 0.09556 0.68801 0.82364 0.0
O188 O 0.10891 0.7165 0.84091 0.0
O189 O 0.05368 0.64943 0.91864 0.0
C190 C 0.1252 0.61901 0.88124 0.0
O191 O 0.14005 0.6401 0.85518 0.0
C192 C 0.15819 0.70977 0.92571 0.0
O193 O 0.1595 0.68372 0.93777 0.0
O194 O 0.08746 0.66111 0.84035 0.0
C195 C 0.39546 0.05694 0.45372 0.0
O196 O 0.41545 0.08615 0.46826 0.0
O197 O 0.4259 0.13529 0.40629 0.0
Zn198 Zn 0.42728 0.09418 0.39163 0.0
O199 O 0.47364 0.10094 0.3969 0.0
C200 C 0.39886 0.09815 0.32532 0.0
O201 O 0.38789 0.11446 0.34428 0.0
O202 O 0.39558 0.0544 0.42049 0.0
C203 C 0.49687 0.12048 0.37614 0.0
O204 O 0.49027 0.13704 0.3523 0.0
C205 C 0.44866 0.16013 0.42295 0.0
O206 O 0.47543 0.15933 0.43335 0.0
O207 O 0.41508 0.08601 0.34036 0.0
C208 C 0.33433 0.3837 0.9496 0.0
O209 O 0.3193 0.39801 0.96515 0.0
O210 O 0.28571 0.41518 0.91023 0.0
Zn211 Zn 0.32778 0.41842 0.89058 0.0
O212 O 0.36676 0.46535 0.89502 0.0
C213 C 0.29695 0.40743 0.82246 0.0
O214 O 0.27671 0.41437 0.84007 0.0
O215 O 0.33971 0.38787 0.91673 0.0
C216 C 0.3678 0.48985 0.8785 0.0
O217 O 0.3421 0.4845 0.85891 0.0
C218 C 0.28443 0.4371 0.92933 0.0
O219 O 0.31247 0.46351 0.93945 0.0
O220 O 0.32084 0.40697 0.83875 0.0
C221 C 0.93141 0.3342 0.45567 0.0
O222 O 0.90188 0.32433 0.46968 0.0
O223 O 0.85382 0.28457 0.41281 0.0
Zn224 Zn 0.89339 0.32689 0.39458 0.0
O225 O 0.88642 0.36632 0.40026 0.0
C226 C 0.87635 0.29711 0.32563 0.0
O227 O 0.84935 0.27526 0.34258 0.0
O228 O 0.93434 0.33672 0.42242 0.0
C229 C 0.86753 0.37133 0.37985 0.0
O230 O 0.85111 0.34942 0.35495 0.0
C231 C 0.82901 0.28273 0.42929 0.0
O232 O 0.82874 0.31041 0.4368 0.0
O233 O 0.8995 0.3215 0.34263 0.0
C234 C 0.05085 0.39226 0.54319 0.0
O235 O 0.07962 0.41294 0.52822 0.0
O236 O 0.12996 0.41697 0.58538 0.0
Zn237 Zn 0.09117 0.42098 0.60349 0.0
O238 O 0.09959 0.46785 0.59693 0.0
C239 C 0.10892 0.41103 0.67333 0.0
O240 O 0.13655 0.41732 0.65697 0.0
O241 O 0.04949 0.3903 0.57653 0.0
C242 C 0.12025 0.49216 0.61585 0.0
O243 O 0.1374 0.48673 0.63999 0.0
C244 C 0.15373 0.43892 0.56678 0.0
O245 O 0.15296 0.46588 0.55697 0.0
O246 O 0.08518 0.41035 0.65558 0.0
C247 C 0.64979 0.04958 0.04379 0.0
O248 O 0.65292 0.07749 0.03088 0.0
O249 O 0.70966 0.12976 0.08571 0.0
Zn250 Zn 0.66854 0.08954 0.1052 0.0
O251 O 0.62935 0.09785 0.10551 0.0
C252 C 0.69481 0.10898 0.17404 0.0
O253 O 0.70654 0.13853 0.15918 0.0
O254 O 0.65605 0.04861 0.07615 0.0
C255 C 0.6107 0.09065 0.13249 0.0
O256 O 0.6166 0.07695 0.15983 0.0
C257 C 0.70889 0.15359 0.06964 0.0
O258 O 0.67976 0.15107 0.06303 0.0
O259 O 0.67833 0.08289 0.15533 0.0
C260 C 0.59624 0.65993 0.53825 0.0
O261 O 0.57751 0.67056 0.52338 0.0
O262 O 0.56191 0.70319 0.58994 0.0
Zn263 Zn 0.5607 0.65984 0.60027 0.0
O264 O 0.51475 0.62038 0.59233 0.0
C265 C 0.59462 0.68607 0.66584 0.0
O266 O 0.61162 0.71348 0.64707 0.0
O267 O 0.59366 0.6544 0.57109 0.0
C268 C 0.49082 0.61539 0.61262 0.0
O269 O 0.49649 0.63717 0.63773 0.0
C270 C 0.54026 0.70559 0.57141 0.0
O271 O 0.51615 0.67856 0.55647 0.0
O272 O 0.57198 0.65976 0.65099 0.0
C273 C 0.93565 0.59573 0.03854 0.0
O274 O 0.90625 0.5737 0.02581 0.0
O275 O 0.86041 0.57317 0.09198 0.0
Zn276 Zn 0.90055 0.56848 0.10235 0.0
O277 O 0.8906 0.52125 0.09465 0.0
C278 C 0.90806 0.60082 0.16951 0.0
O279 O 0.89639 0.61753 0.15224 0.0
O280 O 0.93926 0.59889 0.07167 0.0
C281 C 0.87201 0.49803 0.1159 0.0
O282 O 0.85809 0.50511 0.14215 0.0
C283 C 0.83526 0.55244 0.07409 0.0
O284 O 0.83515 0.52625 0.06033 0.0
O285 O 0.91264 0.57944 0.15314 0.0
C286 C 0.33182 0.9387 0.54295 0.0
O287 O 0.32068 0.90882 0.52927 0.0
O288 O 0.28298 0.86096 0.5866 0.0
Zn289 Zn 0.3245 0.90133 0.60496 0.0
O290 O 0.36417 0.89453 0.60147 0.0
C291 C 0.29249 0.88505 0.67276 0.0
O292 O 0.27138 0.85777 0.65577 0.0
O293 O 0.33488 0.94195 0.57614 0.0
C294 C 0.36849 0.87545 0.62231 0.0
O295 O 0.34594 0.85904 0.64671 0.0
C296 C 0.28223 0.83639 0.57067 0.0
O297 O 0.31055 0.83749 0.56311 0.0
O298 O 0.31743 0.90806 0.65623 0.0
C299 C 0.40204 0.33338 0.03846 0.0
O300 O 0.42482 0.32709 0.02577 0.0
O301 O 0.43518 0.29023 0.09162 0.0
Zn302 Zn 0.43309 0.33177 0.10268 0.0
O303 O 0.47802 0.37314 0.09603 0.0
C304 C 0.40033 0.30261 0.16887 0.0
O305 O 0.38597 0.27477 0.15047 0.0
O306 O 0.40004 0.33555 0.07156 0.0
C307 C 0.50137 0.38049 0.1181 0.0
O308 O 0.49594 0.35996 0.14453 0.0
C309 C 0.45988 0.29012 0.07693 0.0
O310 O 0.48559 0.31864 0.06665 0.0
O311 O 0.4204 0.32994 0.1535 0.0
C312 C 0.40431 0.07626 0.26713 0.0
C313 C 0.39551 0.09671 0.28647 0.0
C314 C 0.40471 0.07677 0.23034 0.0
C315 C 0.39645 0.09784 0.21124 0.0
H316 H 0.41169 0.06017 0.28047 0.0
H317 H 0.41248 0.0611 0.21686 0.0
S318 S 0.36984 0.15507 0.24926 0.0
N319 N 0.37682 0.13761 0.28371 0.0
N320 N 0.37763 0.13861 0.21457 0.0
C321 C 0.38639 0.11755 0.2302 0.0
C322 C 0.3859 0.11697 0.26777 0.0
C323 C 0.3193 0.40422 0.72696 0.0
C324 C 0.29226 0.40301 0.70845 0.0
C325 C 0.32011 0.40448 0.76382 0.0
C326 C 0.2939 0.40356 0.78367 0.0
H327 H 0.34058 0.40601 0.71294 0.0
H328 H 0.34197 0.40646 0.77676 0.0
S329 S 0.21547 0.39632 0.74802 0.0
N330 N 0.23725 0.39803 0.71291 0.0
N331 N 0.23877 0.39853 0.78199 0.0
C332 C 0.26599 0.40079 0.76551 0.0
C333 C 0.26517 0.40052 0.72799 0.0
C334 C 0.90304 0.32251 0.23074 0.0
C335 C 0.87859 0.295 0.21152 0.0
C336 C 0.90282 0.32256 0.26763 0.0
C337 C 0.87816 0.29511 0.28679 0.0
H338 H 0.92196 0.34466 0.21726 0.0
H339 H 0.92159 0.34476 0.28114 0.0
S340 S 0.81072 0.21526 0.24911 0.0
N341 N 0.83063 0.2384 0.21457 0.0
N342 N 0.83024 0.23849 0.28367 0.0
C343 C 0.85445 0.26683 0.26791 0.0
C344 C 0.85466 0.26678 0.23037 0.0
C345 C 0.58277 0.91766 0.73337 0.0
C346 C 0.5958 0.9 0.71539 0.0
C347 C 0.58227 0.91847 0.77013 0.0
C348 C 0.59494 0.90184 0.79057 0.0
H349 H 0.572 0.93032 0.71901 0.0
H350 H 0.57117 0.93172 0.78261 0.0
S351 S 0.6334 0.8533 0.75666 0.0
N352 N 0.62302 0.86653 0.72103 0.0
N353 N 0.62213 0.86818 0.79015 0.0
C354 C 0.60925 0.88514 0.77305 0.0
C355 C 0.60965 0.88419 0.73549 0.0
C356 C 0.72119 0.62723 0.26531 0.0
C357 C 0.69071 0.61115 0.28388 0.0
C358 C 0.72179 0.62831 0.22849 0.0
C359 C 0.69194 0.61341 0.20878 0.0
H360 H 0.74486 0.63799 0.2792 0.0
H361 H 0.74591 0.63987 0.21544 0.0
S362 S 0.60548 0.57232 0.24492 0.0
N363 N 0.6299 0.58298 0.27988 0.0
N364 N 0.63099 0.58506 0.21079 0.0
C365 C 0.66128 0.59895 0.22709 0.0
C366 C 0.66068 0.5978 0.26458 0.0
C367 C 0.10815 0.71832 0.729 0.0
C368 C 0.09234 0.68833 0.70954 0.0
C369 C 0.10823 0.71798 0.76583 0.0
C370 C 0.09257 0.68764 0.78477 0.0
H371 H 0.12133 0.74235 0.71576 0.0
H372 H 0.12148 0.74175 0.77948 0.0
S373 S 0.0451 0.60215 0.74651 0.0
N374 N 0.0587 0.62741 0.71214 0.0
N375 N 0.05892 0.6268 0.78126 0.0
C376 C 0.07563 0.65748 0.76569 0.0
C377 C 0.07549 0.65782 0.72816 0.0
C378 C 0.8998 0.62178 0.22716 0.0
C379 C 0.91205 0.60392 0.20827 0.0
C380 C 0.89976 0.62198 0.264 0.0
C381 C 0.91197 0.60434 0.28345 0.0
H382 H 0.88907 0.63484 0.21348 0.0
H383 H 0.88901 0.6352 0.27723 0.0
S384 S 0.95067 0.55703 0.24665 0.0
N385 N 0.93955 0.57061 0.21186 0.0
N386 N 0.93948 0.57099 0.28098 0.0
C387 C 0.92589 0.58779 0.2649 0.0
C388 C 0.92593 0.58758 0.22738 0.0
C389 C 0.31375 0.91449 0.76746 0.0
C390 C 0.28668 0.88911 0.78639 0.0
C391 C 0.31492 0.91362 0.73065 0.0
C392 C 0.28903 0.8874 0.71131 0.0
H393 H 0.33483 0.93458 0.78118 0.0
H394 H 0.33683 0.93316 0.7174 0.0
S395 S 0.21048 0.81708 0.74818 0.0
N396 N 0.23192 0.83863 0.78287 0.0
N397 N 0.234 0.83702 0.71388 0.0
C398 C 0.26099 0.86278 0.72986 0.0
C399 C 0.25986 0.86363 0.76732 0.0
C400 C 0.41458 0.3317 0.26377 0.0
C401 C 0.39509 0.30195 0.28293 0.0
C402 C 0.41516 0.33174 0.227 0.0
C403 C 0.39627 0.30204 0.20765 0.0
H404 H 0.43034 0.35517 0.27721 0.0
H405 H 0.43133 0.35524 0.21373 0.0
S406 S 0.33839 0.21786 0.24497 0.0
N407 N 0.35445 0.24228 0.27966 0.0
N408 N 0.35552 0.24236 0.21047 0.0
C409 C 0.3755 0.2723 0.22637 0.0
C410 C 0.37492 0.27226 0.26397 0.0
C411 C 0.13463 0.41035 0.73093 0.0
C412 C 0.10711 0.40789 0.71226 0.0
C413 C 0.13527 0.41042 0.7677 0.0
C414 C 0.10842 0.40804 0.78756 0.0
H415 H 0.15634 0.41298 0.71711 0.0
H416 H 0.15745 0.41312 0.78056 0.0
S417 S 0.02912 0.39841 0.75163 0.0
N418 N 0.05132 0.40101 0.71653 0.0
N419 N 0.05253 0.40115 0.78573 0.0
C420 C 0.08013 0.40429 0.76933 0.0
C421 C 0.07948 0.40422 0.73171 0.0
C422 C 0.71831 0.13562 0.26877 0.0
C423 C 0.69704 0.10639 0.28793 0.0
C424 C 0.7183 0.13575 0.23199 0.0
C425 C 0.69722 0.10662 0.21272 0.0
H426 H 0.73438 0.15902 0.28217 0.0
H427 H 0.7344 0.15921 0.2186 0.0
S428 S 0.63918 0.02257 0.25016 0.0
N429 N 0.65608 0.04682 0.28482 0.0
N430 N 0.65619 0.04703 0.2156 0.0
C431 C 0.67706 0.07675 0.23147 0.0
C432 C 0.67691 0.07665 0.26906 0.0
C433 C 0.58421 0.65546 0.72277 0.0
C434 C 0.59958 0.68608 0.70433 0.0
C435 C 0.5854 0.65454 0.75947 0.0
C436 C 0.60197 0.6842 0.77932 0.0
H437 H 0.57043 0.6319 0.70885 0.0
H438 H 0.5724 0.63032 0.77236 0.0
S439 S 0.6478 0.77097 0.74373 0.0
N440 N 0.63326 0.74685 0.70863 0.0
N441 N 0.63546 0.74516 0.77767 0.0
C442 C 0.61865 0.715 0.7612 0.0
C443 C 0.61745 0.71593 0.7237 0.0
C444 C 0.43117 0.19756 0.08342 0.0
C445 C 0.46045 0.19622 0.07643 0.0
C446 C 0.43112 0.22786 0.08243 0.0
C447 C 0.46031 0.25822 0.07426 0.0
H448 H 0.4081 0.17513 0.09063 0.0
H449 H 0.40802 0.22745 0.08883 0.0
S450 S 0.54313 0.26829 0.05122 0.0
N451 N 0.51911 0.2278 0.05905 0.0
N452 N 0.51898 0.28486 0.0571 0.0
C453 C 0.4895 0.25718 0.06578 0.0
C454 C 0.48958 0.22619 0.0669 0.0
C455 C 0.21433 0.46488 0.55085 0.0
C456 C 0.18409 0.43632 0.56078 0.0
C457 C 0.2445 0.46445 0.55026 0.0
C458 C 0.24558 0.43542 0.55955 0.0
H459 H 0.21508 0.48828 0.54506 0.0
H460 H 0.26732 0.48753 0.54404 0.0
S461 S 0.17244 0.35236 0.5817 0.0
N462 N 0.15645 0.37703 0.57588 0.0
N463 N 0.21305 0.37619 0.57473 0.0
C464 C 0.21514 0.40602 0.56709 0.0
C465 C 0.18444 0.40647 0.56772 0.0
C466 C 0.80076 0.21984 0.07481 0.0
C467 C 0.80139 0.249 0.06254 0.0
C468 C 0.77106 0.18886 0.07529 0.0
C469 C 0.74061 0.18559 0.06356 0.0
H470 H 0.82315 0.22104 0.0854 0.0
H471 H 0.7719 0.16757 0.08626 0.0
S472 S 0.72941 0.25328 0.02442 0.0
N473 N 0.76948 0.27195 0.03502 0.0
N474 N 0.71359 0.21363 0.03593 0.0
C475 C 0.74121 0.21408 0.04912 0.0
C476 C 0.77159 0.24576 0.04861 0.0
C477 C 0.56682 0.76629 0.58669 0.0
C478 C 0.54099 0.73814 0.56954 0.0
C479 C 0.56698 0.79668 0.58816 0.0
C480 C 0.5413 0.80036 0.57257 0.0
H481 H 0.5869 0.76479 0.59982 0.0
H482 H 0.58716 0.81725 0.60236 0.0
S483 S 0.46899 0.73507 0.52219 0.0
N484 N 0.48987 0.71642 0.53491 0.0
N485 N 0.49017 0.77364 0.53768 0.0
C486 C 0.51588 0.7728 0.55423 0.0
C487 C 0.51572 0.74171 0.55271 0.0
C488 C 0.7458 0.53193 0.05713 0.0
C489 C 0.74501 0.55974 0.07127 0.0
C490 C 0.77532 0.53025 0.05719 0.0
C491 C 0.80526 0.5563 0.0714 0.0
H492 H 0.72325 0.51079 0.04674 0.0
H493 H 0.77432 0.50788 0.04684 0.0
S494 S 0.81748 0.63626 0.10845 0.0
N495 N 0.77749 0.61511 0.09754 0.0
N496 N 0.83287 0.61197 0.09765 0.0
C497 C 0.80518 0.58491 0.08431 0.0
C498 C 0.77511 0.58661 0.08425 0.0
C499 C 0.24928 0.77532 0.55581 0.0
C500 C 0.24977 0.80503 0.56555 0.0
C501 C 0.21935 0.7444 0.55569 0.0
C502 C 0.18878 0.74198 0.5654 0.0
H503 H 0.27234 0.77563 0.54955 0.0
H504 H 0.22052 0.7221 0.54935 0.0
S505 S 0.17559 0.81291 0.58801 0.0
N506 N 0.21631 0.83049 0.58139 0.0
N507 N 0.16023 0.77245 0.58129 0.0
C508 C 0.18858 0.77174 0.57312 0.0
C509 C 0.21901 0.80323 0.57314 0.0
C510 C 0.77645 0.53019 0.43735 0.0
C511 C 0.80577 0.55672 0.42262 0.0
C512 C 0.74621 0.53051 0.43723 0.0
C513 C 0.74408 0.55739 0.42239 0.0
H514 H 0.77648 0.50844 0.44817 0.0
H515 H 0.72416 0.509 0.44795 0.0
S516 S 0.81454 0.63486 0.38398 0.0
N517 N 0.83139 0.61196 0.39536 0.0
N518 N 0.77469 0.61258 0.39516 0.0
C519 C 0.77358 0.58481 0.40902 0.0
C520 C 0.80437 0.58449 0.40913 0.0
C521 C 0.21783 0.74922 0.94249 0.0
C522 C 0.18661 0.74423 0.93112 0.0
C523 C 0.24613 0.7814 0.94365 0.0
C524 C 0.24427 0.80984 0.93354 0.0
H525 H 0.22086 0.72802 0.94921 0.0
H526 H 0.26988 0.78376 0.95116 0.0
S527 S 0.16722 0.81081 0.90683 0.0
N528 N 0.15471 0.77082 0.91324 0.0
N529 N 0.20774 0.83118 0.91548 0.0
C530 C 0.21272 0.80538 0.92423 0.0
C531 C 0.18395 0.77263 0.92299 0.0
C532 C 0.47535 0.22138 0.43652 0.0
C533 C 0.44678 0.1912 0.42651 0.0
C534 C 0.47547 0.25186 0.43581 0.0
C535 C 0.44704 0.25335 0.425 0.0
H536 H 0.49827 0.22177 0.44375 0.0
H537 H 0.49846 0.27456 0.44255 0.0
S538 S 0.36433 0.18084 0.40082 0.0
N539 N 0.38816 0.16428 0.40889 0.0
N540 N 0.38847 0.22148 0.40744 0.0
C541 C 0.41772 0.22311 0.41678 0.0
C542 C 0.41757 0.19208 0.41758 0.0
C543 C 0.25092 0.46407 0.94605 0.0
C544 C 0.2518 0.43533 0.93523 0.0
C545 C 0.22082 0.46466 0.94648 0.0
C546 C 0.19043 0.43653 0.93611 0.0
H547 H 0.27384 0.48686 0.95272 0.0
H548 H 0.22173 0.48788 0.95351 0.0
S549 S 0.17831 0.35328 0.91105 0.0
N550 N 0.21897 0.37672 0.91795 0.0
N551 N 0.1625 0.37782 0.91874 0.0
C552 C 0.1906 0.4069 0.92756 0.0
C553 C 0.22124 0.4063 0.92712 0.0
C554 C 0.73815 0.21626 0.4436 0.0
C555 C 0.73812 0.18629 0.4364 0.0
C556 C 0.76795 0.24729 0.44308 0.0
C557 C 0.79884 0.24952 0.43535 0.0
H558 H 0.71483 0.21603 0.44803 0.0
H559 H 0.76644 0.26976 0.44716 0.0
S560 S 0.81307 0.17793 0.4206 0.0
N561 N 0.77215 0.16044 0.42565 0.0
N562 N 0.82808 0.21864 0.4247 0.0
C563 C 0.79945 0.21953 0.43059 0.0
C564 C 0.76912 0.18796 0.43112 0.0
C565 C 0.54166 0.75527 0.93065 0.0
C566 C 0.54857 0.73962 0.90277 0.0
C567 C 0.54032 0.7847 0.92511 0.0
C568 C 0.54489 0.79881 0.89135 0.0
H569 H 0.53749 0.74484 0.95694 0.0
H570 H 0.53495 0.79607 0.94721 0.0
S571 S 0.56428 0.76808 0.80967 0.0
N572 N 0.56084 0.74107 0.84025 0.0
N573 N 0.55744 0.79575 0.82992 0.0
C574 C 0.55189 0.78353 0.86332 0.0
C575 C 0.55397 0.75408 0.86901 0.0
C576 C 0.34078 0.97152 0.01458 0.0
C577 C 0.33417 0.97461 0.97907 0.0
C578 C 0.35654 -0.00048 0.03653 0.0
C579 C 0.36631 0.0319 0.024 0.0
H580 H 0.33487 0.9474 0.0254 0.0
H581 H 0.36196 0.99573 0.06331 0.0
S582 S 0.35084 0.05317 0.93427 0.0
N583 N 0.33574 0.01227 0.93319 0.0
N584 N 0.36533 0.06503 0.97453 0.0
C585 C 0.35806 0.03518 0.98911 0.0
C586 C 0.34201 0.00653 0.96664 0.0
C587 C 0.36313 0.36295 0.45951 0.0
C588 C 0.37547 0.34298 0.47365 0.0
C589 C 0.34833 0.37659 0.48094 0.0
C590 C 0.34516 0.37083 0.51745 0.0
H591 H 0.36579 0.36904 0.43176 0.0
H592 H 0.34018 0.39257 0.46876 0.0
S593 S 0.36988 0.31708 0.56709 0.0
N594 N 0.38093 0.31575 0.52613 0.0
N595 N 0.35309 0.3414 0.56643 0.0
C596 C 0.35584 0.34952 0.53175 0.0
C597 C 0.37099 0.33562 0.50986 0.0
C598 C -0.0044 0.36157 0.96564 0.0
C599 C 0.02757 0.37642 0.98118 0.0
C600 C 0.9665 0.34781 0.98618 0.0
C601 C 0.96808 0.34815 0.02315 0.0
H602 H 0.99294 0.36141 0.93733 0.0
H603 H 0.94261 0.33749 0.97283 0.0
S604 S 0.04556 0.38105 0.07687 0.0
N605 N 0.05901 0.38848 0.03585 0.0
N606 N 0.00435 0.36255 0.07445 0.0
C607 C -0.00017 0.36159 0.03906 0.0
C608 C 0.02953 0.37574 0.0181 0.0
C609 C 0.64379 0.02321 0.51521 0.0
C610 C 0.64291 0.02055 0.47832 0.0
C611 C 0.62902 0.99468 0.53669 0.0
C612 C 0.61263 0.96222 0.5222 0.0
H613 H 0.65518 0.04755 0.52777 0.0
H614 H 0.62957 -0.00177 0.56487 0.0
S615 S 0.6065 0.94131 0.42723 0.0
N616 N 0.62667 0.98268 0.42827 0.0
N617 N 0.59887 0.92907 0.46865 0.0
C618 C 0.61294 0.95913 0.4854 0.0
C619 C 0.62809 0.98825 0.46348 0.0
C620 C 0.65278 0.62403 0.9787 0.0
C621 C 0.65543 0.63074 0.01497 0.0
C622 C 0.63832 0.63715 0.956 0.0
C623 C 0.62601 0.65767 0.96856 0.0
H624 H 0.66065 0.60736 0.96781 0.0
H625 H 0.63579 0.63014 0.92852 0.0
S626 S 0.63143 0.68683 0.06056 0.0
N627 N 0.64783 0.66218 0.0619 0.0
N628 N 0.62068 0.68694 0.01918 0.0
C629 C 0.63051 0.66641 0.0044 0.0
C630 C 0.64517 0.6529 0.02761 0.0
C631 C 0.99455 0.62702 0.53284 0.0
C632 C 0.02634 0.64935 0.5188 0.0
C633 C 0.96592 0.61235 0.51159 0.0
C634 C 0.96785 0.61939 0.47539 0.0
H635 H 0.99177 0.61983 0.5603 0.0
H636 H 0.9423 0.59448 0.52355 0.0
S637 S 0.04437 0.67962 0.42647 0.0
N638 N 0.05753 0.68031 0.467 0.0
N639 N 0.00371 0.65276 0.42704 0.0
C640 C -0.00083 0.6431 0.46133 0.0
C641 C 0.02839 0.65806 0.48302 0.0
C642 C 0.61299 0.99199 0.96511 0.0
C643 C 0.60665 0.96067 0.97795 0.0
C644 C 0.62766 0.0206 0.98635 0.0
C645 C 0.63671 0.01922 0.02139 0.0
H646 H 0.60591 0.99445 0.93859 0.0
H647 H 0.63129 0.04386 0.97526 0.0
S648 S 0.62811 0.94391 0.067 0.0
N649 N 0.61247 0.93039 0.02743 0.0
N650 N 0.64009 0.9842 0.0674 0.0
C651 C 0.63161 0.98831 0.03428 0.0
C652 C 0.61658 0.95907 0.01258 0.0
C653 C 0.62899 0.636 0.45868 0.0
C654 C 0.64905 0.62406 0.47354 0.0
C655 C 0.61323 0.64893 0.4797 0.0
C656 C 0.61682 0.65043 0.51646 0.0
H657 H 0.62441 0.63436 0.43062 0.0
H658 H 0.59712 0.65662 0.46699 0.0
S659 S 0.67033 0.62678 0.56812 0.0
N660 N 0.67435 0.61776 0.52709 0.0
N661 N 0.64474 0.64208 0.56661 0.0
C662 C 0.63838 0.64043 0.53155 0.0
C663 C 0.65448 0.62726 0.51009 0.0
C664 C -0.00281 0.63369 0.02979 0.0
C665 C 0.9651 0.6139 0.0151 0.0
C666 C 0.02594 0.64826 0.00873 0.0
C667 C 0.02386 0.64368 0.97207 0.0
H668 H 0.00036 0.63724 0.05797 0.0
H669 H 0.05005 0.66242 0.02156 0.0
S670 S 0.94552 0.59719 0.92 0.0
N671 N 0.93274 0.59277 0.96118 0.0
N672 N 0.98675 0.62016 0.92158 0.0
C673 C 0.99181 0.62533 0.95678 0.0
C674 C 0.96247 0.61045 0.97828 0.0
C675 C 0.36446 0.00086 0.53429 0.0
C676 C 0.34441 0.96866 0.51998 0.0
C677 C 0.37986 0.02932 0.51274 0.0
C678 C 0.37582 0.02681 0.47599 0.0
H679 H 0.3693 0.0041 0.56229 0.0
H680 H 0.39588 0.05336 0.52505 0.0
S681 S 0.32233 0.94873 0.42575 0.0
N682 N 0.31882 0.93625 0.46701 0.0
N683 N 0.3477 0.98972 0.42651 0.0
C684 C 0.35441 0.99496 0.46147 0.0
C685 C 0.33875 0.96592 0.48345 0.0
C686 C 0.3611 0.35322 0.02917 0.0
C687 C 0.38179 0.34192 0.01475 0.0
C688 C 0.34478 0.36531 0.00774 0.0
C689 C 0.34839 0.36663 0.97095 0.0
H690 H 0.35826 0.35381 0.05738 0.0
H691 H 0.33006 0.3747 0.02037 0.0
S692 S 0.39635 0.33614 0.91963 0.0
N693 N 0.40251 0.32993 0.96105 0.0
N694 N 0.37181 0.35266 0.92076 0.0
C695 C 0.36748 0.35366 0.95599 0.0
C696 C 0.38417 0.34133 0.97788 0.0
C697 C 0.02233 0.37787 0.48467 0.0
C698 C 0.02009 0.37415 0.52149 0.0
C699 C 0.9936 0.36383 0.46354 0.0
C700 C 0.96139 0.3456 0.47833 0.0
H701 H 0.04644 0.39244 0.47197 0.0
H702 H -0.00325 0.36827 0.43546 0.0
S703 S 0.94175 0.32558 0.57302 0.0
N704 N 0.98298 0.34863 0.57161 0.0
N705 N 0.92901 0.32233 0.5319 0.0
C706 C 0.95878 0.34041 0.51496 0.0
C707 C 0.9881 0.35464 0.53652 0.0
C708 C 0.53905 0.10231 0.10087 0.0
C709 C 0.52468 0.10506 0.13242 0.0
C710 C 0.56738 0.09849 0.10107 0.0
C711 C 0.58204 0.09667 0.13284 0.0
H712 H 0.52827 0.10297 0.07577 0.0
H713 H 0.57735 0.09614 0.07613 0.0
S714 S 0.55482 0.10374 0.22271 0.0
N715 N 0.52799 0.10676 0.19634 0.0
N716 N 0.58086 0.09915 0.19668 0.0
C717 C 0.56824 0.09988 0.16457 0.0
C718 C 0.53969 0.10423 0.16437 0.0
C719 C 0.4333 0.57679 0.63596 0.0
C720 C 0.45784 0.58409 0.6101 0.0
C721 C 0.40305 0.54621 0.63612 0.0
C722 C 0.39606 0.52161 0.61045 0.0
H723 H 0.43771 0.59446 0.65687 0.0
H724 H 0.38542 0.54157 0.65715 0.0
S725 S 0.45049 0.52955 0.53479 0.0
N726 N 0.47202 0.56505 0.55654 0.0
N727 N 0.41523 0.50764 0.55686 0.0
C728 C 0.41979 0.52909 0.58358 0.0
C729 C 0.45063 0.56028 0.58339 0.0
C730 C 0.85141 0.40974 0.14015 0.0
C731 C 0.86717 0.40145 0.11352 0.0
C732 C 0.8522 0.44054 0.14004 0.0
C733 C 0.86873 0.46435 0.11327 0.0
H734 H 0.83914 0.39275 0.16191 0.0
H735 H 0.84047 0.44599 0.16172 0.0
S736 S 0.9108 0.45345 0.03528 0.0
N737 N 0.89756 0.41855 0.05807 0.0
N738 N 0.899 0.47635 0.05783 0.0
C739 C 0.88331 0.45578 0.0856 0.0
C740 C 0.88255 0.4244 0.08574 0.0
C741 C 0.40687 0.85702 0.64748 0.0
C742 C 0.39956 0.87335 0.62053 0.0
C743 C 0.43705 0.8566 0.64784 0.0
C744 C 0.46121 0.87247 0.62126 0.0
H745 H 0.38951 0.84504 0.669 0.0
H746 H 0.44171 0.8443 0.66964 0.0
S747 S 0.45302 0.91615 0.54291 0.0
N748 N 0.41811 0.90395 0.56523 0.0
N749 N 0.47474 0.90315 0.5659 0.0
C750 C 0.45373 0.88789 0.59344 0.0
C751 C 0.42297 0.88833 0.59309 0.0
C752 C 0.58683 0.45339 0.14235 0.0
C753 C 0.59369 0.47666 0.11509 0.0
C754 C 0.55735 0.42214 0.14259 0.0
C755 C 0.53344 0.41276 0.11558 0.0
H756 H 0.60401 0.45955 0.1642 0.0
H757 H 0.55306 0.40552 0.16461 0.0
S758 S 0.54055 0.46342 0.03651 0.0
N759 N 0.57494 0.48732 0.05919 0.0
N760 N 0.51958 0.42861 0.05961 0.0
C761 C 0.54046 0.43532 0.0875 0.0
C762 C 0.57053 0.46722 0.08727 0.0
C763 C 0.1397 0.54986 0.6389 0.0
C764 C 0.12282 0.52549 0.6128 0.0
C765 C 0.13993 0.58038 0.63854 0.0
C766 C 0.12333 0.58784 0.61202 0.0
H767 H 0.15208 0.54502 0.66047 0.0
H768 H 0.15249 0.59782 0.65984 0.0
S769 S 0.07858 0.53409 0.53528 0.0
N770 N 0.09135 0.51202 0.55803 0.0
N771 N 0.0918 0.56933 0.55731 0.0
C772 C 0.10763 0.56433 0.58483 0.0
C773 C 0.10736 0.53319 0.58523 0.0
C774 C 0.85217 0.44229 0.35471 0.0
C775 C 0.86887 0.46624 0.38125 0.0
C776 C 0.85096 0.4113 0.35511 0.0
C777 C 0.86642 0.40293 0.38207 0.0
H778 H 0.84063 0.44778 0.33281 0.0
H779 H 0.83856 0.39419 0.33351 0.0
S780 S 0.91035 0.4553 0.45989 0.0
N781 N 0.89901 0.47835 0.4368 0.0
N782 N 0.89675 0.42016 0.43756 0.0
C783 C 0.88198 0.42604 0.40962 0.0
C784 C 0.8832 0.45764 0.40922 0.0
C785 C 0.45652 0.92563 0.90524 0.0
C786 C 0.46352 0.90018 0.89625 0.0
C787 C 0.42403 0.92057 0.90279 0.0
C788 C 0.39717 0.88995 0.89086 0.0
H789 H 0.47633 0.94985 0.9141 0.0
H790 H 0.42015 0.94118 0.90967 0.0
S791 S 0.40171 0.81461 0.86532 0.0
N792 N 0.44056 0.84266 0.876 0.0
N793 N 0.37948 0.8333 0.87112 0.0
C794 C 0.40362 0.86403 0.88228 0.0
C795 C 0.43676 0.86908 0.88509 0.0
C796 C 0.53754 0.43111 0.39925 0.0
C797 C 0.53246 0.40523 0.37601 0.0
C798 C 0.56748 0.46192 0.39917 0.0
C799 C 0.59371 0.46827 0.37585 0.0
H800 H 0.51795 0.42794 0.4172 0.0
H801 H 0.56967 0.48117 0.41708 0.0
S802 S 0.59438 0.40784 0.31178 0.0
N803 N 0.55717 0.38725 0.33056 0.0
N804 N 0.61345 0.44518 0.33041 0.0
C805 C 0.58954 0.44218 0.35339 0.0
C806 C 0.55895 0.4107 0.35347 0.0
C807 C 0.14493 0.55041 0.85912 0.0
C808 C 0.12863 0.52662 0.88596 0.0
C809 C 0.14472 0.58071 0.85854 0.0
C810 C 0.12824 0.58853 0.8848 0.0
H811 H 0.15708 0.54522 0.83767 0.0
H812 H 0.15674 0.59764 0.83667 0.0
S813 S 0.08528 0.5366 0.96332 0.0
N814 N 0.09808 0.51428 0.94122 0.0
N815 N 0.0977 0.57118 0.94017 0.0
C816 C 0.11327 0.56571 0.91277 0.0
C817 C 0.11346 0.5348 0.91334 0.0
C818 C 0.56552 0.10179 0.40155 0.0
C819 C 0.59179 0.12178 0.37828 0.0
C820 C 0.53536 0.10219 0.40116 0.0
C821 C 0.53007 0.12257 0.37743 0.0
H822 H 0.56796 0.08519 0.42001 0.0
H823 H 0.51584 0.08586 0.41928 0.0
S824 S 0.59156 0.18119 0.31223 0.0
N825 N 0.61103 0.16373 0.33175 0.0
N826 N 0.55435 0.16447 0.33099 0.0
C827 C 0.55644 0.14341 0.35461 0.0
C828 C 0.58726 0.14303 0.35503 0.0
C829 C 0.45751 0.55763 0.8967 0.0
C830 C 0.46077 0.58553 0.87806 0.0
C831 C 0.42716 0.52721 0.89739 0.0
C832 C 0.39868 0.52331 0.87952 0.0
H833 H 0.47879 0.55891 0.91025 0.0
H834 H 0.42637 0.50637 0.91149 0.0
S835 S 0.3929 0.58961 0.82959 0.0
N836 N 0.43212 0.60799 0.84327 0.0
N837 N 0.37506 0.5508 0.84459 0.0
C838 C 0.40115 0.55138 0.86189 0.0
C839 C 0.43216 0.58245 0.86117 0.0
loop_
_geom_bond_atom_site_label_1
_geom_bond_atom_site_label_2
_geom_bond_distance
_geom_bond_site_symmetry_2
_ccdc_geom_bond_type
C0 O1 1.160 . S
C0 O7 1.185 . S
O1 C0 1.160 . S
O2 Zn3 1.899 . S
O2 C10 1.284 . S
Zn3 O2 1.899 . S
Zn3 O4 2.032 . S
Zn3 O7 2.086 . S
Zn3 O12 1.977 . S
O4 Zn3 2.032 . S
O4 C8 1.278 . S
C5 O6 1.203 . S
C5 O12 1.267 . S
O6 C5 1.203 . S
O7 C0 1.185 . S
O7 Zn3 2.086 . S
C8 O4 1.278 . S
C8 O9 1.211 . S
O9 C8 1.211 . S
C10 O2 1.284 . S
C10 O11 1.273 . S
O11 C10 1.273 . S
O12 Zn3 1.977 . S
O12 C5 1.267 . S
C13 O14 1.160 . S
C13 O20 1.185 . S
O14 C13 1.160 . S
O15 Zn16 1.899 . S
O15 C23 1.284 . S
Zn16 O15 1.899 . S
Zn16 O17 2.032 . S
Zn16 O20 2.086 . S
Zn16 O25 1.977 . S
O17 Zn16 2.032 . S
O17 C21 1.278 . S
C18 O19 1.203 . S
C18 O25 1.267 . S
O19 C18 1.203 . S
O20 C13 1.185 . S
O20 Zn16 2.086 . S
C21 O17 1.278 . S
C21 O22 1.211 . S
O22 C21 1.211 . S
C23 O15 1.284 . S
C23 O24 1.273 . S
O24 C23 1.273 . S
O25 Zn16 1.977 . S
O25 C18 1.267 . S
C26 O27 1.160 . S
C26 O33 1.185 . S
O27 C26 1.160 . S
O28 Zn29 1.899 . S
O28 C36 1.284 . S
Zn29 O28 1.899 . S
Zn29 O30 2.032 . S
Zn29 O33 2.086 . S
Zn29 O38 1.977 . S
O30 Zn29 2.032 . S
O30 C34 1.278 . S
C31 O32 1.203 . S
C31 O38 1.267 . S
O32 C31 1.203 . S
O33 C26 1.185 . S
O33 Zn29 2.086 . S
C34 O30 1.278 . S
C34 O35 1.211 . S
O35 C34 1.211 . S
C36 O28 1.284 . S
C36 O37 1.273 . S
O37 C36 1.273 . S
O38 Zn29 1.977 . S
O38 C31 1.267 . S
C39 O40 1.160 . S
C39 O46 1.185 . S
O40 C39 1.160 . S
O41 Zn42 1.899 . S
O41 C49 1.284 . S
Zn42 O41 1.899 . S
Zn42 O43 2.032 . S
Zn42 O46 2.086 . S
Zn42 O51 1.977 . S
O43 Zn42 2.032 . S
O43 C47 1.278 . S
C44 O45 1.203 . S
C44 O51 1.267 . S
O45 C44 1.203 . S
O46 C39 1.185 . S
O46 Zn42 2.086 . S
C47 O43 1.278 . S
C47 O48 1.211 . S
O48 C47 1.211 . S
C49 O41 1.284 . S
C49 O50 1.273 . S
O50 C49 1.273 . S
O51 Zn42 1.977 . S
O51 C44 1.267 . S
C52 O53 1.160 . S
C52 O59 1.185 . S
O53 C52 1.160 . S
O54 Zn55 1.899 . S
O54 C62 1.284 . S
Zn55 O54 1.899 . S
Zn55 O56 2.032 . S
Zn55 O59 2.086 . S
Zn55 O64 1.977 . S
O56 Zn55 2.032 . S
O56 C60 1.278 . S
C57 O58 1.203 . S
C57 O64 1.267 . S
O58 C57 1.203 . S
O59 C52 1.185 . S
O59 Zn55 2.086 . S
C60 O56 1.278 . S
C60 O61 1.211 . S
O61 C60 1.211 . S
C62 O54 1.284 . S
C62 O63 1.273 . S
O63 C62 1.273 . S
O64 Zn55 1.977 . S
O64 C57 1.267 . S
C65 O66 1.160 . S
C65 O72 1.185 . S
O66 C65 1.160 . S
O67 Zn68 1.899 . S
O67 C75 1.284 . S
Zn68 O67 1.899 . S
Zn68 O69 2.032 . S
Zn68 O72 2.086 . S
Zn68 O77 1.977 . S
O69 Zn68 2.032 . S
O69 C73 1.278 . S
C70 O71 1.203 . S
C70 O77 1.267 . S
O71 C70 1.203 . S
O72 C65 1.185 . S
O72 Zn68 2.086 . S
C73 O69 1.278 . S
C73 O74 1.211 . S
O74 C73 1.211 . S
C75 O67 1.284 . S
C75 O76 1.273 . S
O76 C75 1.273 . S
O77 Zn68 1.977 . S
O77 C70 1.267 . S
C78 O79 1.160 . S
C78 O85 1.185 . S
O79 C78 1.160 . S
O80 Zn81 1.899 . S
O80 C88 1.284 . S
Zn81 O80 1.899 . S
Zn81 O82 2.032 . S
Zn81 O85 2.086 . S
Zn81 O90 1.977 . S
O82 Zn81 2.032 . S
O82 C86 1.278 . S
C83 O84 1.203 . S
C83 O90 1.267 . S
O84 C83 1.203 . S
O85 C78 1.185 . S
O85 Zn81 2.086 . S
C86 O82 1.278 . S
C86 O87 1.211 . S
O87 C86 1.211 . S
C88 O80 1.284 . S
C88 O89 1.273 . S
O89 C88 1.273 . S
O90 Zn81 1.977 . S
O90 C83 1.267 . S
C91 O92 1.160 . S
C91 O98 1.185 . S
O92 C91 1.160 . S
O93 Zn94 1.899 . S
O93 C101 1.284 . S
Zn94 O93 1.899 . S
Zn94 O95 2.032 . S
Zn94 O98 2.086 . S
Zn94 O103 1.977 . S
O95 Zn94 2.032 . S
O95 C99 1.278 . S
C96 O97 1.203 . S
C96 O103 1.267 . S
O97 C96 1.203 . S
O98 C91 1.185 . S
O98 Zn94 2.086 . S
C99 O95 1.278 . S
C99 O100 1.211 . S
O100 C99 1.211 . S
C101 O93 1.284 . S
C101 O102 1.273 . S
O102 C101 1.273 . S
O103 Zn94 1.977 . S
O103 C96 1.267 . S
C104 O105 1.160 . S
C104 O111 1.185 . S
O105 C104 1.160 . S
O106 Zn107 1.899 . S
O106 C114 1.284 . S
Zn107 O106 1.899 . S
Zn107 O108 2.032 . S
Zn107 O111 2.086 . S
Zn107 O116 1.977 . S
O108 Zn107 2.032 . S
O108 C112 1.278 . S
C109 O110 1.203 . S
C109 O116 1.267 . S
O110 C109 1.203 . S
O111 C104 1.185 . S
O111 Zn107 2.086 . S
C112 O108 1.278 . S
C112 O113 1.211 . S
O113 C112 1.211 . S
C114 O106 1.284 . S
C114 O115 1.273 . S
O115 C114 1.273 . S
O116 Zn107 1.977 . S
O116 C109 1.267 . S
C117 O118 1.160 . S
C117 O124 1.185 . S
O118 C117 1.160 . S
O119 Zn120 1.899 . S
O119 C127 1.284 . S
Zn120 O119 1.899 . S
Zn120 O121 2.032 . S
Zn120 O124 2.086 . S
Zn120 O129 1.977 . S
O121 Zn120 2.032 . S
O121 C125 1.278 . S
C122 O123 1.203 . S
C122 O129 1.267 . S
O123 C122 1.203 . S
O124 C117 1.185 . S
O124 Zn120 2.086 . S
C125 O121 1.278 . S
C125 O126 1.211 . S
O126 C125 1.211 . S
C127 O119 1.284 . S
C127 O128 1.273 . S
O128 C127 1.273 . S
O129 Zn120 1.977 . S
O129 C122 1.267 . S
C130 O131 1.160 . S
C130 O137 1.185 . S
O131 C130 1.160 . S
O132 Zn133 1.899 . S
O132 C140 1.284 . S
Zn133 O132 1.899 . S
Zn133 O134 2.032 . S
Zn133 O137 2.086 . S
Zn133 O142 1.977 . S
O134 Zn133 2.032 . S
O134 C138 1.278 . S
C135 O136 1.203 . S
C135 O142 1.267 . S
O136 C135 1.203 . S
O137 C130 1.185 . S
O137 Zn133 2.086 . S
C138 O134 1.278 . S
C138 O139 1.211 . S
O139 C138 1.211 . S
C140 O132 1.284 . S
C140 O141 1.273 . S
O141 C140 1.273 . S
O142 Zn133 1.977 . S
O142 C135 1.267 . S
C143 O144 1.160 . S
C143 O150 1.185 . S
O144 C143 1.160 . S
O145 Zn146 1.899 . S
O145 C153 1.284 . S
Zn146 O145 1.899 . S
Zn146 O147 2.032 . S
Zn146 O150 2.086 . S
Zn146 O155 1.977 . S
O147 Zn146 2.032 . S
O147 C151 1.278 . S
C148 O149 1.203 . S
C148 O155 1.267 . S
O149 C148 1.203 . S
O150 C143 1.185 . S
O150 Zn146 2.086 . S
C151 O147 1.278 . S
C151 O152 1.211 . S
O152 C151 1.211 . S
C153 O145 1.284 . S
C153 O154 1.273 . S
O154 C153 1.273 . S
O155 Zn146 1.977 . S
O155 C148 1.267 . S
C156 O157 1.160 . S
C156 O163 1.185 . S
O157 C156 1.160 . S
O158 Zn159 1.899 . S
O158 C166 1.284 . S
Zn159 O158 1.899 . S
Zn159 O160 2.032 . S
Zn159 O163 2.086 . S
Zn159 O168 1.977 . S
O160 Zn159 2.032 . S
O160 C164 1.278 . S
C161 O162 1.203 . S
C161 O168 1.267 . S
O162 C161 1.203 . S
O163 C156 1.185 . S
O163 Zn159 2.086 . S
C164 O160 1.278 . S
C164 O165 1.211 . S
O165 C164 1.211 . S
C166 O158 1.284 . S
C166 O167 1.273 . S
O167 C166 1.273 . S
O168 Zn159 1.977 . S
O168 C161 1.267 . S
C169 O170 1.160 . S
C169 O176 1.185 . S
O170 C169 1.160 . S
O171 Zn172 1.899 . S
O171 C179 1.284 . S
Zn172 O171 1.899 . S
Zn172 O173 2.032 . S
Zn172 O176 2.086 . S
Zn172 O181 1.977 . S
O173 Zn172 2.032 . S
O173 C177 1.278 . S
C174 O175 1.203 . S
C174 O181 1.267 . S
O175 C174 1.203 . S
O176 C169 1.185 . S
O176 Zn172 2.086 . S
C177 O173 1.278 . S
C177 O178 1.211 . S
O178 C177 1.211 . S
C179 O171 1.284 . S
C179 O180 1.273 . S
O180 C179 1.273 . S
O181 Zn172 1.977 . S
O181 C174 1.267 . S
C182 O183 1.160 . S
C182 O189 1.185 . S
O183 C182 1.160 . S
O184 Zn185 1.899 . S
O184 C192 1.284 . S
Zn185 O184 1.899 . S
Zn185 O186 2.032 . S
Zn185 O189 2.086 . S
Zn185 O194 1.977 . S
O186 Zn185 2.032 . S
O186 C190 1.278 . S
C187 O188 1.203 . S
C187 O194 1.267 . S
O188 C187 1.203 . S
O189 C182 1.185 . S
O189 Zn185 2.086 . S
C190 O186 1.278 . S
C190 O191 1.211 . S
O191 C190 1.211 . S
C192 O184 1.284 . S
C192 O193 1.273 . S
O193 C192 1.273 . S
O194 Zn185 1.977 . S
O194 C187 1.267 . S
C195 O196 1.160 . S
C195 O202 1.185 . S
O196 C195 1.160 . S
O197 Zn198 1.899 . S
O197 C205 1.284 . S
Zn198 O197 1.899 . S
Zn198 O199 2.032 . S
Zn198 O202 2.086 . S
Zn198 O207 1.977 . S
O199 Zn198 2.032 . S
O199 C203 1.278 . S
C200 O201 1.203 . S
C200 O207 1.267 . S
O201 C200 1.203 . S
O202 C195 1.185 . S
O202 Zn198 2.086 . S
C203 O199 1.278 . S
C203 O204 1.211 . S
O204 C203 1.211 . S
C205 O197 1.284 . S
C205 O206 1.273 . S
O206 C205 1.273 . S
O207 Zn198 1.977 . S
O207 C200 1.267 . S
C208 O209 1.160 . S
C208 O215 1.185 . S
O209 C208 1.160 . S
O210 Zn211 1.899 . S
O210 C218 1.284 . S
Zn211 O210 1.899 . S
Zn211 O212 2.032 . S
Zn211 O215 2.086 . S
Zn211 O220 1.977 . S
O212 Zn211 2.032 . S
O212 C216 1.278 . S
C213 O214 1.203 . S
C213 O220 1.267 . S
O214 C213 1.203 . S
O215 C208 1.185 . S
O215 Zn211 2.086 . S
C216 O212 1.278 . S
C216 O217 1.211 . S
O217 C216 1.211 . S
C218 O210 1.284 . S
C218 O219 1.273 . S
O219 C218 1.273 . S
O220 Zn211 1.977 . S
O220 C213 1.267 . S
C221 O222 1.160 . S
C221 O228 1.185 . S
O222 C221 1.160 . S
O223 Zn224 1.899 . S
O223 C231 1.284 . S
Zn224 O223 1.899 . S
Zn224 O225 2.032 . S
Zn224 O228 2.086 . S
Zn224 O233 1.977 . S
O225 Zn224 2.032 . S
O225 C229 1.278 . S
C226 O227 1.203 . S
C226 O233 1.267 . S
O227 C226 1.203 . S
O228 C221 1.185 . S
O228 Zn224 2.086 . S
C229 O225 1.278 . S
C229 O230 1.211 . S
O230 C229 1.211 . S
C231 O223 1.284 . S
C231 O232 1.273 . S
O232 C231 1.273 . S
O233 Zn224 1.977 . S
O233 C226 1.267 . S
C234 O235 1.160 . S
C234 O241 1.185 . S
O235 C234 1.160 . S
O236 Zn237 1.899 . S
O236 C244 1.284 . S
Zn237 O236 1.899 . S
Zn237 O238 2.032 . S
Zn237 O241 2.086 . S
Zn237 O246 1.977 . S
O238 Zn237 2.032 . S
O238 C242 1.278 . S
C239 O240 1.203 . S
C239 O246 1.267 . S
O240 C239 1.203 . S
O241 C234 1.185 . S
O241 Zn237 2.086 . S
C242 O238 1.278 . S
C242 O243 1.211 . S
O243 C242 1.211 . S
C244 O236 1.284 . S
C244 O245 1.273 . S
O245 C244 1.273 . S
O246 Zn237 1.977 . S
O246 C239 1.267 . S
C247 O248 1.160 . S
C247 O254 1.185 . S
O248 C247 1.160 . S
O249 Zn250 1.899 . S
O249 C257 1.284 . S
Zn250 O249 1.899 . S
Zn250 O251 2.032 . S
Zn250 O254 2.086 . S
Zn250 O259 1.977 . S
O251 Zn250 2.032 . S
O251 C255 1.278 . S
C252 O253 1.203 . S
C252 O259 1.267 . S
O253 C252 1.203 . S
O254 C247 1.185 . S
O254 Zn250 2.086 . S
C255 O251 1.278 . S
C255 O256 1.211 . S
O256 C255 1.211 . S
C257 O249 1.284 . S
C257 O258 1.273 . S
O258 C257 1.273 . S
O259 Zn250 1.977 . S
O259 C252 1.267 . S
C260 O261 1.160 . S
C260 O267 1.185 . S
O261 C260 1.160 . S
O262 Zn263 1.899 . S
O262 C270 1.284 . S
Zn263 O262 1.899 . S
Zn263 O264 2.032 . S
Zn263 O267 2.086 . S
Zn263 O272 1.977 . S
O264 Zn263 2.032 . S
O264 C268 1.278 . S
C265 O266 1.203 . S
C265 O272 1.267 . S
O266 C265 1.203 . S
O267 C260 1.185 . S
O267 Zn263 2.086 . S
C268 O264 1.278 . S
C268 O269 1.211 . S
O269 C268 1.211 . S
C270 O262 1.284 . S
C270 O271 1.273 . S
O271 C270 1.273 . S
O272 Zn263 1.977 . S
O272 C265 1.267 . S
C273 O274 1.160 . S
C273 O280 1.185 . S
O274 C273 1.160 . S
O275 Zn276 1.899 . S
O275 C283 1.284 . S
Zn276 O275 1.899 . S
Zn276 O277 2.032 . S
Zn276 O280 2.086 . S
Zn276 O285 1.977 . S
O277 Zn276 2.032 . S
O277 C281 1.278 . S
C278 O279 1.203 . S
C278 O285 1.267 . S
O279 C278 1.203 . S
O280 C273 1.185 . S
O280 Zn276 2.086 . S
C281 O277 1.278 . S
C281 O282 1.211 . S
O282 C281 1.211 . S
C283 O275 1.284 . S
C283 O284 1.273 . S
O284 C283 1.273 . S
O285 Zn276 1.977 . S
O285 C278 1.267 . S
C286 O287 1.160 . S
C286 O293 1.185 . S
O287 C286 1.160 . S
O288 Zn289 1.899 . S
O288 C296 1.284 . S
Zn289 O288 1.899 . S
Zn289 O290 2.032 . S
Zn289 O293 2.086 . S
Zn289 O298 1.977 . S
O290 Zn289 2.032 . S
O290 C294 1.278 . S
C291 O292 1.203 . S
C291 O298 1.267 . S
O292 C291 1.203 . S
O293 C286 1.185 . S
O293 Zn289 2.086 . S
C294 O290 1.278 . S
C294 O295 1.211 . S
O295 C294 1.211 . S
C296 O288 1.284 . S
C296 O297 1.273 . S
O297 C296 1.273 . S
O298 Zn289 1.977 . S
O298 C291 1.267 . S
C299 O300 1.160 . S
C299 O306 1.185 . S
O300 C299 1.160 . S
O301 Zn302 1.899 . S
O301 C309 1.284 . S
Zn302 O301 1.899 . S
Zn302 O303 2.032 . S
Zn302 O306 2.086 . S
Zn302 O311 1.977 . S
O303 Zn302 2.032 . S
O303 C307 1.278 . S
C304 O305 1.203 . S
C304 O311 1.267 . S
O305 C304 1.203 . S
O306 C299 1.185 . S
O306 Zn302 2.086 . S
C307 O303 1.278 . S
C307 O308 1.211 . S
O308 C307 1.211 . S
C309 O301 1.284 . S
C309 O310 1.273 . S
O310 C309 1.273 . S
O311 Zn302 1.977 . S
O311 C304 1.267 . S
C312 C313 1.369 . S
C312 C314 1.419 . S
C312 H316 0.930 . S
C313 C312 1.369 . S
C313 C322 1.429 . S
C314 C312 1.419 . S
C314 C315 1.363 . S
C314 H317 0.929 . S
C315 C314 1.363 . S
C315 C321 1.428 . S
H316 C312 0.930 . S
H317 C314 0.929 . S
S318 N319 1.613 . S
S318 N320 1.610 . S
N319 S318 1.613 . S
N319 C322 1.350 . S
N320 S318 1.610 . S
N320 C321 1.351 . S
C321 C315 1.428 . S
C321 N320 1.351 . S
C321 C322 1.434 . S
C322 C313 1.429 . S
C322 N319 1.350 . S
C322 C321 1.434 . S
C323 C324 1.369 . S
C323 C325 1.419 . S
C323 H327 0.930 . S
C324 C323 1.369 . S
C324 C333 1.429 . S
C325 C323 1.419 . S
C325 C326 1.363 . S
C325 H328 0.929 . S
C326 C325 1.363 . S
C326 C332 1.428 . S
H327 C323 0.930 . S
H328 C325 0.929 . S
S329 N330 1.613 . S
S329 N331 1.610 . S
N330 S329 1.613 . S
N330 C333 1.350 . S
N331 S329 1.610 . S
N331 C332 1.351 . S
C332 C326 1.428 . S
C332 N331 1.351 . S
C332 C333 1.434 . S
C333 C324 1.429 . S
C333 N330 1.350 . S
C333 C332 1.434 . S
C334 C335 1.369 . S
C334 C336 1.419 . S
C334 H338 0.930 . S
C335 C334 1.369 . S
C335 C344 1.429 . S
C336 C334 1.419 . S
C336 C337 1.363 . S
C336 H339 0.929 . S
C337 C336 1.363 . S
C337 C343 1.428 . S
H338 C334 0.930 . S
H339 C336 0.929 . S
S340 N341 1.613 . S
S340 N342 1.610 . S
N341 S340 1.613 . S
N341 C344 1.350 . S
N342 S340 1.610 . S
N342 C343 1.351 . S
C343 C337 1.428 . S
C343 N342 1.351 . S
C343 C344 1.434 . S
C344 C335 1.429 . S
C344 N341 1.350 . S
C344 C343 1.434 . S
C345 C346 1.369 . S
C345 C347 1.419 . S
C345 H349 0.930 . S
C346 C345 1.369 . S
C346 C355 1.429 . S
C347 C345 1.419 . S
C347 C348 1.363 . S
C347 H350 0.929 . S
C348 C347 1.363 . S
C348 C354 1.428 . S
H349 C345 0.930 . S
H350 C347 0.929 . S
S351 N352 1.613 . S
S351 N353 1.610 . S
N352 S351 1.613 . S
N352 C355 1.350 . S
N353 S351 1.610 . S
N353 C354 1.351 . S
C354 C348 1.428 . S
C354 N353 1.351 . S
C354 C355 1.434 . S
C355 C346 1.429 . S
C355 N352 1.350 . S
C355 C354 1.434 . S
C356 C357 1.369 . S
C356 C358 1.419 . S
C356 H360 0.930 . S
C357 C356 1.369 . S
C357 C366 1.429 . S
C358 C356 1.419 . S
C358 C359 1.363 . S
C358 H361 0.929 . S
C359 C358 1.363 . S
C359 C365 1.428 . S
H360 C356 0.930 . S
H361 C358 0.929 . S
S362 N363 1.613 . S
S362 N364 1.610 . S
N363 S362 1.613 . S
N363 C366 1.350 . S
N364 S362 1.610 . S
N364 C365 1.351 . S
C365 C359 1.428 . S
C365 N364 1.351 . S
C365 C366 1.434 . S
C366 C357 1.429 . S
C366 N363 1.350 . S
C366 C365 1.434 . S
C367 C368 1.369 . S
C367 C369 1.419 . S
C367 H371 0.930 . S
C368 C367 1.369 . S
C368 C377 1.429 . S
C369 C367 1.419 . S
C369 C370 1.363 . S
C369 H372 0.929 . S
C370 C369 1.363 . S
C370 C376 1.428 . S
H371 C367 0.930 . S
H372 C369 0.929 . S
S373 N374 1.613 . S
S373 N375 1.610 . S
N374 S373 1.613 . S
N374 C377 1.350 . S
N375 S373 1.610 . S
N375 C376 1.351 . S
C376 C370 1.428 . S
C376 N375 1.351 . S
C376 C377 1.434 . S
C377 C368 1.429 . S
C377 N374 1.350 . S
C377 C376 1.434 . S
C378 C379 1.369 . S
C378 C380 1.419 . S
C378 H382 0.930 . S
C379 C378 1.369 . S
C379 C388 1.429 . S
C380 C378 1.419 . S
C380 C381 1.363 . S
C380 H383 0.929 . S
C381 C380 1.363 . S
C381 C387 1.428 . S
H382 C378 0.930 . S
H383 C380 0.929 . S
S384 N385 1.613 . S
S384 N386 1.610 . S
N385 S384 1.613 . S
N385 C388 1.350 . S
N386 S384 1.610 . S
N386 C387 1.351 . S
C387 C381 1.428 . S
C387 N386 1.351 . S
C387 C388 1.434 . S
C388 C379 1.429 . S
C388 N385 1.350 . S
C388 C387 1.434 . S
C389 C390 1.369 . S
C389 C391 1.419 . S
C389 H393 0.930 . S
C390 C389 1.369 . S
C390 C399 1.429 . S
C391 C389 1.419 . S
C391 C392 1.363 . S
C391 H394 0.929 . S
C392 C391 1.363 . S
C392 C398 1.428 . S
H393 C389 0.930 . S
H394 C391 0.929 . S
S395 N396 1.613 . S
S395 N397 1.610 . S
N396 S395 1.613 . S
N396 C399 1.350 . S
N397 S395 1.610 . S
N397 C398 1.351 . S
C398 C392 1.428 . S
C398 N397 1.351 . S
C398 C399 1.434 . S
C399 C390 1.429 . S
C399 N396 1.350 . S
C399 C398 1.434 . S
C400 C401 1.369 . S
C400 C402 1.419 . S
C400 H404 0.930 . S
C401 C400 1.369 . S
C401 C410 1.429 . S
C402 C400 1.419 . S
C402 C403 1.363 . S
C402 H405 0.929 . S
C403 C402 1.363 . S
C403 C409 1.428 . S
H404 C400 0.930 . S
H405 C402 0.929 . S
S406 N407 1.613 . S
S406 N408 1.610 . S
N407 S406 1.613 . S
N407 C410 1.350 . S
N408 S406 1.610 . S
N408 C409 1.351 . S
C409 C403 1.428 . S
C409 N408 1.351 . S
C409 C410 1.434 . S
C410 C401 1.429 . S
C410 N407 1.350 . S
C410 C409 1.434 . S
C411 C412 1.369 . S
C411 C413 1.419 . S
C411 H415 0.930 . S
C412 C411 1.369 . S
C412 C421 1.429 . S
C413 C411 1.419 . S
C413 C414 1.363 . S
C413 H416 0.929 . S
C414 C413 1.363 . S
C414 C420 1.428 . S
H415 C411 0.930 . S
H416 C413 0.929 . S
S417 N418 1.613 . S
S417 N419 1.610 . S
N418 S417 1.613 . S
N418 C421 1.350 . S
N419 S417 1.610 . S
N419 C420 1.351 . S
C420 C414 1.428 . S
C420 N419 1.351 . S
C420 C421 1.434 . S
C421 C412 1.429 . S
C421 N418 1.350 . S
C421 C420 1.434 . S
C422 C423 1.369 . S
C422 C424 1.419 . S
C422 H426 0.930 . S
C423 C422 1.369 . S
C423 C432 1.429 . S
C424 C422 1.419 . S
C424 C425 1.363 . S
C424 H427 0.929 . S
C425 C424 1.363 . S
C425 C431 1.428 . S
H426 C422 0.930 . S
H427 C424 0.929 . S
S428 N429 1.613 . S
S428 N430 1.610 . S
N429 S428 1.613 . S
N429 C432 1.350 . S
N430 S428 1.610 . S
N430 C431 1.351 . S
C431 C425 1.428 . S
C431 N430 1.351 . S
C431 C432 1.434 . S
C432 C423 1.429 . S
C432 N429 1.350 . S
C432 C431 1.434 . S
C433 C434 1.369 . S
C433 C435 1.419 . S
C433 H437 0.930 . S
C434 C433 1.369 . S
C434 C443 1.429 . S
C435 C433 1.419 . S
C435 C436 1.363 . S
C435 H438 0.929 . S
C436 C435 1.363 . S
C436 C442 1.428 . S
H437 C433 0.930 . S
H438 C435 0.929 . S
S439 N440 1.613 . S
S439 N441 1.610 . S
N440 S439 1.613 . S
N440 C443 1.350 . S
N441 S439 1.610 . S
N441 C442 1.351 . S
C442 C436 1.428 . S
C442 N441 1.351 . S
C442 C443 1.434 . S
C443 C434 1.429 . S
C443 N440 1.350 . S
C443 C442 1.434 . S
C444 C445 1.369 . S
C444 C446 1.419 . S
C444 H448 0.930 . S
C445 C444 1.369 . S
C445 C454 1.429 . S
C446 C444 1.419 . S
C446 C447 1.363 . S
C446 H449 0.929 . S
C447 C446 1.363 . S
C447 C453 1.428 . S
H448 C444 0.930 . S
H449 C446 0.929 . S
S450 N451 1.613 . S
S450 N452 1.610 . S
N451 S450 1.613 . S
N451 C454 1.350 . S
N452 S450 1.610 . S
N452 C453 1.351 . S
C453 C447 1.428 . S
C453 N452 1.351 . S
C453 C454 1.434 . S
C454 C445 1.429 . S
C454 N451 1.350 . S
C454 C453 1.434 . S
C455 C456 1.369 . S
C455 C457 1.419 . S
C455 H459 0.930 . S
C456 C455 1.369 . S
C456 C465 1.429 . S
C457 C455 1.419 . S
C457 C458 1.363 . S
C457 H460 0.929 . S
C458 C457 1.363 . S
C458 C464 1.428 . S
H459 C455 0.930 . S
H460 C457 0.929 . S
S461 N462 1.613 . S
S461 N463 1.610 . S
N462 S461 1.613 . S
N462 C465 1.350 . S
N463 S461 1.610 . S
N463 C464 1.351 . S
C464 C458 1.428 . S
C464 N463 1.351 . S
C464 C465 1.434 . S
C465 C456 1.429 . S
C465 N462 1.350 . S
C465 C464 1.434 . S
C466 C467 1.369 . S
C466 C468 1.419 . S
C466 H470 0.930 . S
C467 C466 1.369 . S
C467 C476 1.429 . S
C468 C466 1.419 . S
C468 C469 1.363 . S
C468 H471 0.929 . S
C469 C468 1.363 . S
C469 C475 1.428 . S
H470 C466 0.930 . S
H471 C468 0.929 . S
S472 N473 1.613 . S
S472 N474 1.610 . S
N473 S472 1.613 . S
N473 C476 1.350 . S
N474 S472 1.610 . S
N474 C475 1.351 . S
C475 C469 1.428 . S
C475 N474 1.351 . S
C475 C476 1.434 . S
C476 C467 1.429 . S
C476 N473 1.350 . S
C476 C475 1.434 . S
C477 C478 1.369 . S
C477 C479 1.419 . S
C477 H481 0.930 . S
C478 C477 1.369 . S
C478 C487 1.429 . S
C479 C477 1.419 . S
C479 C480 1.363 . S
C479 H482 0.929 . S
C480 C479 1.363 . S
C480 C486 1.428 . S
H481 C477 0.930 . S
H482 C479 0.929 . S
S483 N484 1.613 . S
S483 N485 1.610 . S
N484 S483 1.613 . S
N484 C487 1.350 . S
N485 S483 1.610 . S
N485 C486 1.351 . S
C486 C480 1.428 . S
C486 N485 1.351 . S
C486 C487 1.434 . S
C487 C478 1.429 . S
C487 N484 1.350 . S
C487 C486 1.434 . S
C488 C489 1.369 . S
C488 C490 1.419 . S
C488 H492 0.930 . S
C489 C488 1.369 . S
C489 C498 1.429 . S
C490 C488 1.419 . S
C490 C491 1.363 . S
C490 H493 0.929 . S
C491 C490 1.363 . S
C491 C497 1.428 . S
H492 C488 0.930 . S
H493 C490 0.929 . S
S494 N495 1.613 . S
S494 N496 1.610 . S
N495 S494 1.613 . S
N495 C498 1.350 . S
N496 S494 1.610 . S
N496 C497 1.351 . S
C497 C491 1.428 . S
C497 N496 1.351 . S
C497 C498 1.434 . S
C498 C489 1.429 . S
C498 N495 1.350 . S
C498 C497 1.434 . S
C499 C500 1.369 . S
C499 C501 1.419 . S
C499 H503 0.930 . S
C500 C499 1.369 . S
C500 C509 1.429 . S
C501 C499 1.419 . S
C501 C502 1.363 . S
C501 H504 0.929 . S
C502 C501 1.363 . S
C502 C508 1.428 . S
H503 C499 0.930 . S
H504 C501 0.929 . S
S505 N506 1.613 . S
S505 N507 1.610 . S
N506 S505 1.613 . S
N506 C509 1.350 . S
N507 S505 1.610 . S
N507 C508 1.351 . S
C508 C502 1.428 . S
C508 N507 1.351 . S
C508 C509 1.434 . S
C509 C500 1.429 . S
C509 N506 1.350 . S
C509 C508 1.434 . S
C510 C511 1.369 . S
C510 C512 1.419 . S
C510 H514 0.930 . S
C511 C510 1.369 . S
C511 C520 1.429 . S
C512 C510 1.419 . S
C512 C513 1.363 . S
C512 H515 0.929 . S
C513 C512 1.363 . S
C513 C519 1.428 . S
H514 C510 0.930 . S
H515 C512 0.929 . S
S516 N517 1.613 . S
S516 N518 1.610 . S
N517 S516 1.613 . S
N517 C520 1.350 . S
N518 S516 1.610 . S
N518 C519 1.351 . S
C519 C513 1.428 . S
C519 N518 1.351 . S
C519 C520 1.434 . S
C520 C511 1.429 . S
C520 N517 1.350 . S
C520 C519 1.434 . S
C521 C522 1.369 . S
C521 C523 1.419 . S
C521 H525 0.930 . S
C522 C521 1.369 . S
C522 C531 1.429 . S
C523 C521 1.419 . S
C523 C524 1.363 . S
C523 H526 0.929 . S
C524 C523 1.363 . S
C524 C530 1.428 . S
H525 C521 0.930 . S
H526 C523 0.929 . S
S527 N528 1.613 . S
S527 N529 1.610 . S
N528 S527 1.613 . S
N528 C531 1.350 . S
N529 S527 1.610 . S
N529 C530 1.351 . S
C530 C524 1.428 . S
C530 N529 1.351 . S
C530 C531 1.434 . S
C531 C522 1.429 . S
C531 N528 1.350 . S
C531 C530 1.434 . S
C532 C533 1.369 . S
C532 C534 1.419 . S
C532 H536 0.930 . S
C533 C532 1.369 . S
C533 C542 1.429 . S
C534 C532 1.419 . S
C534 C535 1.363 . S
C534 H537 0.929 . S
C535 C534 1.363 . S
C535 C541 1.428 . S
H536 C532 0.930 . S
H537 C534 0.929 . S
S538 N539 1.613 . S
S538 N540 1.610 . S
N539 S538 1.613 . S
N539 C542 1.350 . S
N540 S538 1.610 . S
N540 C541 1.351 . S
C541 C535 1.428 . S
C541 N540 1.351 . S
C541 C542 1.434 . S
C542 C533 1.429 . S
C542 N539 1.350 . S
C542 C541 1.434 . S
C543 C544 1.369 . S
C543 C545 1.419 . S
C543 H547 0.930 . S
C544 C543 1.369 . S
C544 C553 1.429 . S
C545 C543 1.419 . S
C545 C546 1.363 . S
C545 H548 0.929 . S
C546 C545 1.363 . S
C546 C552 1.428 . S
H547 C543 0.930 . S
H548 C545 0.929 . S
S549 N550 1.613 . S
S549 N551 1.610 . S
N550 S549 1.613 . S
N550 C553 1.350 . S
N551 S549 1.610 . S
N551 C552 1.351 . S
C552 C546 1.428 . S
C552 N551 1.351 . S
C552 C553 1.434 . S
C553 C544 1.429 . S
C553 N550 1.350 . S
C553 C552 1.434 . S
C554 C555 1.369 . S
C554 C556 1.419 . S
C554 H558 0.930 . S
C555 C554 1.369 . S
C555 C564 1.429 . S
C556 C554 1.419 . S
C556 C557 1.363 . S
C556 H559 0.929 . S
C557 C556 1.363 . S
C557 C563 1.428 . S
H558 C554 0.930 . S
H559 C556 0.929 . S
S560 N561 1.613 . S
S560 N562 1.610 . S
N561 S560 1.613 . S
N561 C564 1.350 . S
N562 S560 1.610 . S
N562 C563 1.351 . S
C563 C557 1.428 . S
C563 N562 1.351 . S
C563 C564 1.434 . S
C564 C555 1.429 . S
C564 N561 1.350 . S
C564 C563 1.434 . S
C565 C566 1.369 . S
C565 C567 1.419 . S
C565 H569 0.930 . S
C566 C565 1.369 . S
C566 C575 1.429 . S
C567 C565 1.419 . S
C567 C568 1.363 . S
C567 H570 0.929 . S
C568 C567 1.363 . S
C568 C574 1.428 . S
H569 C565 0.930 . S
H570 C567 0.929 . S
S571 N572 1.613 . S
S571 N573 1.610 . S
N572 S571 1.613 . S
N572 C575 1.350 . S
N573 S571 1.610 . S
N573 C574 1.351 . S
C574 C568 1.428 . S
C574 N573 1.351 . S
C574 C575 1.434 . S
C575 C566 1.429 . S
C575 N572 1.350 . S
C575 C574 1.434 . S
C576 C577 1.369 . S
C576 C578 1.419 1_566 S
C576 H580 0.930 . S
C577 C576 1.369 . S
C577 C586 1.429 . S
C578 C576 1.419 1_544 S
C578 C579 1.363 . S
C578 H581 0.929 . S
C579 C578 1.363 . S
C579 C585 1.428 . S
H580 C576 0.930 . S
H581 C578 0.929 . S
S582 N583 1.613 1_545 S
S582 N584 1.610 1_556 S
N583 S582 1.613 1_565 S
N583 C586 1.350 . S
N584 S582 1.610 1_554 S
N584 C585 1.351 . S
C585 C579 1.428 . S
C585 N584 1.351 . S
C585 C586 1.434 1_544 S
C586 C577 1.429 . S
C586 N583 1.350 . S
C586 C585 1.434 1_566 S
C587 C588 1.369 . S
C587 C589 1.419 . S
C587 H591 0.930 . S
C588 C587 1.369 . S
C588 C597 1.429 . S
C589 C587 1.419 . S
C589 C590 1.363 . S
C589 H592 0.929 . S
C590 C589 1.363 . S
C590 C596 1.428 . S
H591 C587 0.930 . S
H592 C589 0.929 . S
S593 N594 1.613 . S
S593 N595 1.610 . S
N594 S593 1.613 . S
N594 C597 1.350 . S
N595 S593 1.610 . S
N595 C596 1.351 . S
C596 C590 1.428 . S
C596 N595 1.351 . S
C596 C597 1.434 . S
C597 C588 1.429 . S
C597 N594 1.350 . S
C597 C596 1.434 . S
C598 C599 1.369 . S
C598 C600 1.419 1_456 S
C598 H602 0.930 . S
C599 C598 1.369 . S
C599 C608 1.429 . S
C600 C598 1.419 1_654 S
C600 C601 1.363 . S
C600 H603 0.929 . S
C601 C600 1.363 . S
C601 C607 1.428 . S
H602 C598 0.930 . S
H603 C600 0.929 . S
S604 N605 1.594 1_554 S
S604 N606 1.610 . S
N605 S604 1.594 1_556 S
N605 C608 1.351 . S
N606 S604 1.610 . S
N606 C607 1.351 1_455 S
C607 C601 1.428 . S
C607 N606 1.351 1_655 S
C607 C608 1.434 1_654 S
C608 C599 1.429 . S
C608 N605 1.351 . S
C608 C607 1.434 1_456 S
C609 C610 1.369 . S
C609 C611 1.419 . S
C609 H613 0.930 . S
C610 C609 1.369 . S
C610 C619 1.429 1_545 S
C611 C609 1.419 . S
C611 C612 1.363 1_545 S
C611 H614 0.929 . S
C612 C611 1.363 1_565 S
C612 C618 1.428 . S
H613 C609 0.930 . S
H614 C611 0.929 . S
S615 N616 1.613 . S
S615 N617 1.610 . S
N616 S615 1.613 . S
N616 C619 1.350 . S
N617 S615 1.610 . S
N617 C618 1.351 . S
C618 C612 1.428 . S
C618 N617 1.351 . S
C618 C619 1.434 . S
C619 C610 1.429 1_565 S
C619 N616 1.350 . S
C619 C618 1.434 . S
C620 C621 1.369 . S
C620 C622 1.419 1_554 S
C620 H624 0.930 . S
C621 C620 1.369 . S
C621 C630 1.429 . S
C622 C620 1.419 1_556 S
C622 C623 1.363 . S
C622 H625 0.929 . S
C623 C622 1.363 . S
C623 C629 1.428 . S
H624 C620 0.930 . S
H625 C622 0.929 . S
S626 N627 1.613 . S
S626 N628 1.610 . S
N627 S626 1.613 . S
N627 C630 1.350 . S
N628 S626 1.610 . S
N628 C629 1.351 1_554 S
C629 C623 1.428 . S
C629 N628 1.351 1_556 S
C629 C630 1.434 1_556 S
C630 C621 1.429 . S
C630 N627 1.350 . S
C630 C629 1.434 1_554 S
C631 C632 1.369 1_655 S
C631 C633 1.419 . S
C631 H635 0.930 . S
C632 C631 1.369 1_455 S
C632 C641 1.429 . S
C633 C631 1.419 . S
C633 C634 1.363 . S
C633 H636 0.929 . S
C634 C633 1.363 . S
C634 C640 1.428 1_655 S
H635 C631 0.930 . S
H636 C633 0.929 . S
S637 N638 1.613 . S
S637 N639 1.610 . S
N638 S637 1.613 . S
N638 C641 1.350 . S
N639 S637 1.610 . S
N639 C640 1.351 . S
C640 C634 1.428 1_455 S
C640 N639 1.351 . S
C640 C641 1.434 . S
C641 C632 1.429 . S
C641 N638 1.350 . S
C641 C640 1.434 . S
C642 C643 1.332 1_545 S
C642 C644 1.443 . S
C642 H646 0.946 . S
C643 C642 1.332 1_565 S
C643 C652 1.429 1_556 S
C644 C642 1.443 . S
C644 C645 1.362 1_556 S
C644 H647 0.929 . S
C645 C644 1.362 1_554 S
C645 C651 1.428 1_545 S
H646 C642 0.946 . S
H647 C644 0.929 . S
S648 N649 1.613 . S
S648 N650 1.610 . S
N649 S648 1.613 . S
N649 C652 1.350 . S
N650 S648 1.610 . S
N650 C651 1.351 . S
C651 C645 1.428 1_565 S
C651 N650 1.351 . S
C651 C652 1.434 . S
C652 C643 1.429 1_554 S
C652 N649 1.350 . S
C652 C651 1.434 . S
C653 C654 1.369 . S
C653 C655 1.419 . S
C653 H657 0.930 . S
C654 C653 1.369 . S
C654 C663 1.429 . S
C655 C653 1.419 . S
C655 C656 1.363 . S
C655 H658 0.929 . S
C656 C655 1.363 . S
C656 C662 1.428 . S
H657 C653 0.930 . S
H658 C655 0.929 . S
S659 N660 1.613 . S
S659 N661 1.610 . S
N660 S659 1.613 . S
N660 C663 1.350 . S
N661 S659 1.610 . S
N661 C662 1.351 . S
C662 C656 1.428 . S
C662 N661 1.351 . S
C662 C663 1.434 . S
C663 C654 1.429 . S
C663 N660 1.350 . S
C663 C662 1.434 . S
C664 C665 1.369 . S
C664 C666 1.419 1_654 S
C664 H668 0.930 . S
C665 C664 1.369 . S
C665 C674 1.429 . S
C666 C664 1.419 1_456 S
C666 C667 1.363 . S
C666 H669 0.929 . S
C667 C666 1.363 . S
C667 C673 1.428 . S
H668 C664 0.930 . S
H669 C666 0.929 . S
S670 N671 1.608 1_455 S
S670 N672 1.606 1_554 S
N671 S670 1.608 1_655 S
N671 C674 1.350 . S
N672 S670 1.606 1_556 S
N672 C673 1.351 . S
C673 C667 1.428 . S
C673 N672 1.351 . S
C673 C674 1.434 1_456 S
C674 C665 1.429 . S
C674 N671 1.350 . S
C674 C673 1.434 1_654 S
C675 C676 1.369 1_545 S
C675 C677 1.419 . S
C675 H679 0.930 . S
C676 C675 1.369 1_565 S
C676 C685 1.429 . S
C677 C675 1.419 . S
C677 C678 1.363 . S
C677 H680 0.929 . S
C678 C677 1.363 . S
C678 C684 1.428 1_545 S
H679 C675 0.930 . S
H680 C677 0.929 . S
S681 N682 1.613 . S
S681 N683 1.610 . S
N682 S681 1.613 . S
N682 C685 1.350 . S
N683 S681 1.610 . S
N683 C684 1.351 . S
C684 C678 1.428 1_565 S
C684 N683 1.351 . S
C684 C685 1.434 . S
C685 C676 1.429 . S
C685 N682 1.350 . S
C685 C684 1.434 . S
C686 C687 1.369 . S
C686 C688 1.419 . S
C686 H690 0.930 . S
C687 C686 1.369 . S
C687 C696 1.429 1_554 S
C688 C686 1.419 . S
C688 C689 1.363 1_554 S
C688 H691 0.929 . S
C689 C688 1.363 1_556 S
C689 C695 1.428 . S
H690 C686 0.930 . S
H691 C688 0.929 . S
S692 N693 1.613 . S
S692 N694 1.610 . S
N693 S692 1.613 . S
N693 C696 1.350 . S
N694 S692 1.610 . S
N694 C695 1.351 . S
C695 C689 1.428 . S
C695 N694 1.351 . S
C695 C696 1.434 . S
C696 C687 1.429 1_556 S
C696 N693 1.350 . S
C696 C695 1.434 . S
C697 C698 1.369 . S
C697 C699 1.401 1_455 S
C697 H701 0.930 . S
C698 C697 1.369 . S
C698 C707 1.393 1_455 S
C699 C697 1.401 1_655 S
C699 C700 1.392 . S
C699 H702 0.919 . S
C700 C699 1.392 . S
C700 C706 1.428 . S
H701 C697 0.930 . S
H702 C699 0.919 . S
S703 N704 1.613 . S
S703 N705 1.610 . S
N704 S703 1.613 . S
N704 C707 1.368 . S
N705 S703 1.610 . S
N705 C706 1.351 . S
C706 C700 1.428 . S
C706 N705 1.351 . S
C706 C707 1.456 . S
C707 C698 1.393 1_655 S
C707 N704 1.368 . S
C707 C706 1.456 . S
C708 C709 1.369 . S
C708 C710 1.419 . S
C708 H712 0.930 . S
C709 C708 1.369 . S
C709 C718 1.429 . S
C710 C708 1.419 . S
C710 C711 1.363 . S
C710 H713 0.929 . S
C711 C710 1.363 . S
C711 C717 1.428 . S
H712 C708 0.930 . S
H713 C710 0.929 . S
S714 N715 1.613 . S
S714 N716 1.610 . S
N715 S714 1.613 . S
N715 C718 1.350 . S
N716 S714 1.610 . S
N716 C717 1.351 . S
C717 C711 1.428 . S
C717 N716 1.351 . S
C717 C718 1.434 . S
C718 C709 1.429 . S
C718 N715 1.350 . S
C718 C717 1.434 . S
C719 C720 1.369 . S
C719 C721 1.419 . S
C719 H723 0.930 . S
C720 C719 1.369 . S
C720 C729 1.429 . S
C721 C719 1.419 . S
C721 C722 1.363 . S
C721 H724 0.929 . S
C722 C721 1.363 . S
C722 C728 1.428 . S
H723 C719 0.930 . S
H724 C721 0.929 . S
S725 N726 1.613 . S
S725 N727 1.610 . S
N726 S725 1.613 . S
N726 C729 1.350 . S
N727 S725 1.610 . S
N727 C728 1.351 . S
C728 C722 1.428 . S
C728 N727 1.351 . S
C728 C729 1.434 . S
C729 C720 1.429 . S
C729 N726 1.350 . S
C729 C728 1.434 . S
C730 C731 1.369 . S
C730 C732 1.419 . S
C730 H734 0.930 . S
C731 C730 1.369 . S
C731 C740 1.429 . S
C732 C730 1.419 . S
C732 C733 1.363 . S
C732 H735 0.929 . S
C733 C732 1.363 . S
C733 C739 1.428 . S
H734 C730 0.930 . S
H735 C732 0.929 . S
S736 N737 1.613 . S
S736 N738 1.610 . S
N737 S736 1.613 . S
N737 C740 1.350 . S
N738 S736 1.610 . S
N738 C739 1.351 . S
C739 C733 1.428 . S
C739 N738 1.351 . S
C739 C740 1.434 . S
C740 C731 1.429 . S
C740 N737 1.350 . S
C740 C739 1.434 . S
C741 C742 1.369 . S
C741 C743 1.419 . S
C741 H745 0.930 . S
C742 C741 1.369 . S
C742 C751 1.429 . S
C743 C741 1.419 . S
C743 C744 1.363 . S
C743 H746 0.929 . S
C744 C743 1.363 . S
C744 C750 1.428 . S
H745 C741 0.930 . S
H746 C743 0.929 . S
S747 N748 1.613 . S
S747 N749 1.610 . S
N748 S747 1.613 . S
N748 C751 1.350 . S
N749 S747 1.610 . S
N749 C750 1.351 . S
C750 C744 1.428 . S
C750 N749 1.351 . S
C750 C751 1.434 . S
C751 C742 1.429 . S
C751 N748 1.350 . S
C751 C750 1.434 . S
C752 C753 1.369 . S
C752 C754 1.419 . S
C752 H756 0.930 . S
C753 C752 1.369 . S
C753 C762 1.429 . S
C754 C752 1.419 . S
C754 C755 1.363 . S
C754 H757 0.929 . S
C755 C754 1.363 . S
C755 C761 1.428 . S
H756 C752 0.930 . S
H757 C754 0.929 . S
S758 N759 1.613 . S
S758 N760 1.610 . S
N759 S758 1.613 . S
N759 C762 1.350 . S
N760 S758 1.610 . S
N760 C761 1.351 . S
C761 C755 1.428 . S
C761 N760 1.351 . S
C761 C762 1.434 . S
C762 C753 1.429 . S
C762 N759 1.350 . S
C762 C761 1.434 . S
C763 C764 1.369 . S
C763 C765 1.419 . S
C763 H767 0.930 . S
C764 C763 1.369 . S
C764 C773 1.429 . S
C765 C763 1.419 . S
C765 C766 1.363 . S
C765 H768 0.929 . S
C766 C765 1.363 . S
C766 C772 1.428 . S
H767 C763 0.930 . S
H768 C765 0.929 . S
S769 N770 1.613 . S
S769 N771 1.610 . S
N770 S769 1.613 . S
N770 C773 1.350 . S
N771 S769 1.610 . S
N771 C772 1.351 . S
C772 C766 1.428 . S
C772 N771 1.351 . S
C772 C773 1.434 . S
C773 C764 1.429 . S
C773 N770 1.350 . S
C773 C772 1.434 . S
C774 C775 1.369 . S
C774 C776 1.419 . S
C774 H778 0.930 . S
C775 C774 1.369 . S
C775 C784 1.429 . S
C776 C774 1.419 . S
C776 C777 1.363 . S
C776 H779 0.929 . S
C777 C776 1.363 . S
C777 C783 1.428 . S
H778 C774 0.930 . S
H779 C776 0.929 . S
S780 N781 1.613 . S
S780 N782 1.610 . S
N781 S780 1.613 . S
N781 C784 1.350 . S
N782 S780 1.610 . S
N782 C783 1.351 . S
C783 C777 1.428 . S
C783 N782 1.351 . S
C783 C784 1.434 . S
C784 C775 1.429 . S
C784 N781 1.350 . S
C784 C783 1.434 . S
C785 C786 1.369 . S
C785 C787 1.419 . S
C785 H789 0.930 . S
C786 C785 1.369 . S
C786 C795 1.429 . S
C787 C785 1.419 . S
C787 C788 1.363 . S
C787 H790 0.929 . S
C788 C787 1.363 . S
C788 C794 1.428 . S
H789 C785 0.930 . S
H790 C787 0.929 . S
S791 N792 1.613 . S
S791 N793 1.610 . S
N792 S791 1.613 . S
N792 C795 1.350 . S
N793 S791 1.610 . S
N793 C794 1.351 . S
C794 C788 1.428 . S
C794 N793 1.351 . S
C794 C795 1.434 . S
C795 C786 1.429 . S
C795 N792 1.350 . S
C795 C794 1.434 . S
C796 C797 1.369 . S
C796 C798 1.419 . S
C796 H800 0.930 . S
C797 C796 1.369 . S
C797 C806 1.429 . S
C798 C796 1.419 . S
C798 C799 1.363 . S
C798 H801 0.929 . S
C799 C798 1.363 . S
C799 C805 1.428 . S
H800 C796 0.930 . S
H801 C798 0.929 . S
S802 N803 1.613 . S
S802 N804 1.610 . S
N803 S802 1.613 . S
N803 C806 1.350 . S
N804 S802 1.610 . S
N804 C805 1.351 . S
C805 C799 1.428 . S
C805 N804 1.351 . S
C805 C806 1.434 . S
C806 C797 1.429 . S
C806 N803 1.350 . S
C806 C805 1.434 . S
C807 C808 1.369 . S
C807 C809 1.419 . S
C807 H811 0.930 . S
C808 C807 1.369 . S
C808 C817 1.429 . S
C809 C807 1.419 . S
C809 C810 1.363 . S
C809 H812 0.929 . S
C810 C809 1.363 . S
C810 C816 1.428 . S
H811 C807 0.930 . S
H812 C809 0.929 . S
S813 N814 1.613 . S
S813 N815 1.610 . S
N814 S813 1.613 . S
N814 C817 1.350 . S
N815 S813 1.610 . S
N815 C816 1.351 . S
C816 C810 1.428 . S
C816 N815 1.351 . S
C816 C817 1.434 . S
C817 C808 1.429 . S
C817 N814 1.350 . S
C817 C816 1.434 . S
C818 C819 1.369 . S
C818 C820 1.419 . S
C818 H822 0.930 . S
C819 C818 1.369 . S
C819 C828 1.429 . S
C820 C818 1.419 . S
C820 C821 1.363 . S
C820 H823 0.929 . S
C821 C820 1.363 . S
C821 C827 1.428 . S
H822 C818 0.930 . S
H823 C820 0.929 . S
S824 N825 1.613 . S
S824 N826 1.610 . S
N825 S824 1.613 . S
N825 C828 1.350 . S
N826 S824 1.610 . S
N826 C827 1.351 . S
C827 C821 1.428 . S
C827 N826 1.351 . S
C827 C828 1.434 . S
C828 C819 1.429 . S
C828 N825 1.350 . S
C828 C827 1.434 . S
C829 C830 1.369 . S
C829 C831 1.419 . S
C829 H833 0.930 . S
C830 C829 1.369 . S
C830 C839 1.429 . S
C831 C829 1.419 . S
C831 C832 1.363 . S
C831 H834 0.929 . S
C832 C831 1.363 . S
C832 C838 1.428 . S
H833 C829 0.930 . S
H834 C831 0.929 . S
S835 N836 1.613 . S
S835 N837 1.610 . S
N836 S835 1.613 . S
N836 C839 1.350 . S
N837 S835 1.610 . S
N837 C838 1.351 . S
C838 C832 1.428 . S
C838 N837 1.351 . S
C838 C839 1.434 . S
C839 C830 1.429 . S
C839 N836 1.350 . S
C839 C838 1.434 . S
C313 C200 1.385 . S
C315 C5 1.386 . S
C324 C18 1.384 . S
C326 C213 1.385 . S
C335 C31 1.384 . S
C337 C226 1.385 . S
C346 C44 1.384 . S
C348 C161 1.385 . S
C357 C174 1.388 . S
C359 C57 1.388 . S
C368 C70 1.389 . S
C370 C187 1.388 . S
C379 C278 1.384 . S
C381 C83 1.385 . S
C390 C96 1.384 . S
C392 C291 1.385 . S
C401 C109 1.385 . S
C403 C304 1.386 . S
C412 C239 1.392 . S
C414 C122 1.391 . S
C423 C135 1.390 . S
C425 C252 1.389 . S
C434 C265 1.389 . S
C436 C148 1.388 . S
C445 C10 1.253 . S
C447 C309 1.254 . S
C456 C244 1.260 . S
C458 C23 1.259 . S
C467 C36 1.254 . S
C469 C257 1.255 . S
C478 C270 1.253 . S
C480 C49 1.254 . S
C489 C62 1.259 . S
C491 C283 1.259 . S
C500 C296 1.258 . S
C502 C75 1.258 . S
C511 C88 1.260 . S
C513 C179 1.259 . S
C522 C192 1.259 . S
C524 C101 1.258 . S
C533 C205 1.260 . S
C535 C114 1.259 . S
C544 C218 1.258 . S
C546 C127 1.258 . S
C555 C140 1.259 . S
C557 C231 1.259 . S
C566 C153 1.255 . S
C568 C166 1.256 . S
C577 C91 1.272 . S
C579 C0 1.269 . S
C588 C104 1.267 . S
C590 C13 1.273 . S
C599 C117 1.268 . S
C601 C26 1.272 . S
C610 C130 1.274 . S
C612 C39 1.268 . S
C621 C52 1.273 . S
C623 C143 1.268 . S
C632 C65 1.268 . S
C634 C78 1.272 . S
C643 C156 1.267 . S
C645 C247 1.273 . S
C654 C169 1.270 . S
C656 C260 1.271 . S
C665 C273 1.272 . S
C667 C182 1.270 . S
C676 C286 1.267 . S
C678 C195 1.273 . S
C687 C299 1.268 . S
C689 C208 1.272 . S
C698 C234 1.273 . S
C700 C221 1.268 . S
C709 C8 1.428 . S
C711 C255 1.429 . S
C720 C268 1.431 . S
C722 C21 1.431 . S
C731 C34 1.433 . S
C733 C281 1.433 . S
C742 C294 1.436 . S
C744 C47 1.435 . S
C753 C60 1.437 . S
C755 C307 1.436 . S
C764 C242 1.436 . S
C766 C73 1.435 . S
C775 C86 1.437 . S
C777 C229 1.436 . S
C786 C164 1.435 . S
C788 C99 1.434 . S
C797 C112 1.436 . S
C799 C177 1.435 . S
C808 C125 1.428 . S
C810 C190 1.429 . S
C819 C138 1.436 . S
C821 C203 1.435 . S
C830 C151 1.436 . S
C832 C216 1.435 . S
