# Generated by pormake.
# Topology ull, (4)-cn, num edge types: 1
# Building blocks:
#     Node 0, Type 0, BuildingBlock: GALJAG_clean_sbu_0, # of connection points: 4
#     Node 1, Type 0, BuildingBlock: GALJAG_clean_sbu_0, # of connection points: 4
#     Node 2, Type 0, BuildingBlock: GALJAG_clean_sbu_0, # of connection points: 4
#     Node 3, Type 0, BuildingBlock: GALJAG_clean_sbu_0, # of connection points: 4
#     Node 4, Type 0, BuildingBlock: GALJAG_clean_sbu_0, # of connection points: 4
#     Node 5, Type 0, BuildingBlock: GALJAG_clean_sbu_0, # of connection points: 4
#     Node 6, Type 0, BuildingBlock: GALJAG_clean_sbu_0, # of connection points: 4
#     Node 7, Type 0, BuildingBlock: GALJAG_clean_sbu_0, # of connection points: 4
#     Node 8, Type 0, BuildingBlock: GALJAG_clean_sbu_0, # of connection points: 4
#     Node 9, Type 0, BuildingBlock: GALJAG_clean_sbu_0, # of connection points: 4
#     Node 10, Type 0, BuildingBlock: GALJAG_clean_sbu_0, # of connection points: 4
#     Node 11, Type 0, BuildingBlock: GALJAG_clean_sbu_0, # of connection points: 4
#     Node 12, Type 0, BuildingBlock: GALJAG_clean_sbu_0, # of connection points: 4
#     Node 13, Type 0, BuildingBlock: GALJAG_clean_sbu_0, # of connection points: 4
#     Node 14, Type 0, BuildingBlock: GALJAG_clean_sbu_0, # of connection points: 4
#     Node 15, Type 0, BuildingBlock: GALJAG_clean_sbu_0, # of connection points: 4
#     Node 16, Type 0, BuildingBlock: GALJAG_clean_sbu_0, # of connection points: 4
#     Node 17, Type 0, BuildingBlock: GALJAG_clean_sbu_0, # of connection points: 4
#     Node 18, Type 0, BuildingBlock: GALJAG_clean_sbu_0, # of connection points: 4
#     Node 19, Type 0, BuildingBlock: GALJAG_clean_sbu_0, # of connection points: 4
#     Node 20, Type 0, BuildingBlock: GALJAG_clean_sbu_0, # of connection points: 4
#     Node 21, Type 0, BuildingBlock: GALJAG_clean_sbu_0, # of connection points: 4
#     Node 22, Type 0, BuildingBlock: GALJAG_clean_sbu_0, # of connection points: 4
#     Node 23, Type 0, BuildingBlock: GALJAG_clean_sbu_0, # of connection points: 4
#     Node 24, Type 0, BuildingBlock: GALJAG_clean_sbu_0, # of connection points: 4
#     Node 25, Type 0, BuildingBlock: GALJAG_clean_sbu_0, # of connection points: 4
#     Node 26, Type 0, BuildingBlock: GALJAG_clean_sbu_0, # of connection points: 4
#     Node 27, Type 0, BuildingBlock: GALJAG_clean_sbu_0, # of connection points: 4
#     Node 28, Type 0, BuildingBlock: GALJAG_clean_sbu_0, # of connection points: 4
#     Node 29, Type 0, BuildingBlock: GALJAG_clean_sbu_0, # of connection points: 4
#     Node 30, Type 0, BuildingBlock: GALJAG_clean_sbu_0, # of connection points: 4
#     Node 31, Type 0, BuildingBlock: GALJAG_clean_sbu_0, # of connection points: 4
#     Node 32, Type 0, BuildingBlock: GALJAG_clean_sbu_0, # of connection points: 4
#     Node 33, Type 0, BuildingBlock: GALJAG_clean_sbu_0, # of connection points: 4
#     Node 34, Type 0, BuildingBlock: GALJAG_clean_sbu_0, # of connection points: 4
#     Node 35, Type 0, BuildingBlock: GALJAG_clean_sbu_0, # of connection points: 4
#     Node 36, Type 0, BuildingBlock: GALJAG_clean_sbu_0, # of connection points: 4
#     Node 37, Type 0, BuildingBlock: GALJAG_clean_sbu_0, # of connection points: 4
#     Node 38, Type 0, BuildingBlock: GALJAG_clean_sbu_0, # of connection points: 4
#     Node 39, Type 0, BuildingBlock: GALJAG_clean_sbu_0, # of connection points: 4
#     Node 40, Type 0, BuildingBlock: GALJAG_clean_sbu_0, # of connection points: 4
#     Node 41, Type 0, BuildingBlock: GALJAG_clean_sbu_0, # of connection points: 4
#     Node 42, Type 0, BuildingBlock: GALJAG_clean_sbu_0, # of connection points: 4
#     Node 43, Type 0, BuildingBlock: GALJAG_clean_sbu_0, # of connection points: 4
#     Node 44, Type 0, BuildingBlock: GALJAG_clean_sbu_0, # of connection points: 4
#     Node 45, Type 0, BuildingBlock: GALJAG_clean_sbu_0, # of connection points: 4
#     Node 46, Type 0, BuildingBlock: GALJAG_clean_sbu_0, # of connection points: 4
#     Node 47, Type 0, BuildingBlock: GALJAG_clean_sbu_0, # of connection points: 4
#     Edge 48, Type (0, 0), BuildingBlock: XUDNAN_clean_linker_2, # of connection points: 2
#     Edge 49, Type (0, 0), BuildingBlock: XUDNAN_clean_linker_2, # of connection points: 2
#     Edge 50, Type (0, 0), BuildingBlock: XUDNAN_clean_linker_2, # of connection points: 2
#     Edge 51, Type (0, 0), BuildingBlock: XUDNAN_clean_linker_2, # of connection points: 2
#     Edge 52, Type (0, 0), BuildingBlock: XUDNAN_clean_linker_2, # of connection points: 2
#     Edge 53, Type (0, 0), BuildingBlock: XUDNAN_clean_linker_2, # of connection points: 2
#     Edge 54, Type (0, 0), BuildingBlock: XUDNAN_clean_linker_2, # of connection points: 2
#     Edge 55, Type (0, 0), BuildingBlock: XUDNAN_clean_linker_2, # of connection points: 2
#     Edge 56, Type (0, 0), BuildingBlock: XUDNAN_clean_linker_2, # of connection points: 2
#     Edge 57, Type (0, 0), BuildingBlock: XUDNAN_clean_linker_2, # of connection points: 2
#     Edge 58, Type (0, 0), BuildingBlock: XUDNAN_clean_linker_2, # of connection points: 2
#     Edge 59, Type (0, 0), BuildingBlock: XUDNAN_clean_linker_2, # of connection points: 2
#     Edge 60, Type (0, 0), BuildingBlock: XUDNAN_clean_linker_2, # of connection points: 2
#     Edge 61, Type (0, 0), BuildingBlock: XUDNAN_clean_linker_2, # of connection points: 2
#     Edge 62, Type (0, 0), BuildingBlock: XUDNAN_clean_linker_2, # of connection points: 2
#     Edge 63, Type (0, 0), BuildingBlock: XUDNAN_clean_linker_2, # of connection points: 2
#     Edge 64, Type (0, 0), BuildingBlock: XUDNAN_clean_linker_2, # of connection points: 2
#     Edge 65, Type (0, 0), BuildingBlock: XUDNAN_clean_linker_2, # of connection points: 2
#     Edge 66, Type (0, 0), BuildingBlock: XUDNAN_clean_linker_2, # of connection points: 2
#     Edge 67, Type (0, 0), BuildingBlock: XUDNAN_clean_linker_2, # of connection points: 2
#     Edge 68, Type (0, 0), BuildingBlock: XUDNAN_clean_linker_2, # of connection points: 2
#     Edge 69, Type (0, 0), BuildingBlock: XUDNAN_clean_linker_2, # of connection points: 2
#     Edge 70, Type (0, 0), BuildingBlock: XUDNAN_clean_linker_2, # of connection points: 2
#     Edge 71, Type (0, 0), BuildingBlock: XUDNAN_clean_linker_2, # of connection points: 2
#     Edge 72, Type (0, 0), BuildingBlock: XUDNAN_clean_linker_2, # of connection points: 2
#     Edge 73, Type (0, 0), BuildingBlock: XUDNAN_clean_linker_2, # of connection points: 2
#     Edge 74, Type (0, 0), BuildingBlock: XUDNAN_clean_linker_2, # of connection points: 2
#     Edge 75, Type (0, 0), BuildingBlock: XUDNAN_clean_linker_2, # of connection points: 2
#     Edge 76, Type (0, 0), BuildingBlock: XUDNAN_clean_linker_2, # of connection points: 2
#     Edge 77, Type (0, 0), BuildingBlock: XUDNAN_clean_linker_2, # of connection points: 2
#     Edge 78, Type (0, 0), BuildingBlock: XUDNAN_clean_linker_2, # of connection points: 2
#     Edge 79, Type (0, 0), BuildingBlock: XUDNAN_clean_linker_2, # of connection points: 2
#     Edge 80, Type (0, 0), BuildingBlock: XUDNAN_clean_linker_2, # of connection points: 2
#     Edge 81, Type (0, 0), BuildingBlock: XUDNAN_clean_linker_2, # of connection points: 2
#     Edge 82, Type (0, 0), BuildingBlock: XUDNAN_clean_linker_2, # of connection points: 2
#     Edge 83, Type (0, 0), BuildingBlock: XUDNAN_clean_linker_2, # of connection points: 2
#     Edge 84, Type (0, 0), BuildingBlock: XUDNAN_clean_linker_2, # of connection points: 2
#     Edge 85, Type (0, 0), BuildingBlock: XUDNAN_clean_linker_2, # of connection points: 2
#     Edge 86, Type (0, 0), BuildingBlock: XUDNAN_clean_linker_2, # of connection points: 2
#     Edge 87, Type (0, 0), BuildingBlock: XUDNAN_clean_linker_2, # of connection points: 2
#     Edge 88, Type (0, 0), BuildingBlock: XUDNAN_clean_linker_2, # of connection points: 2
#     Edge 89, Type (0, 0), BuildingBlock: XUDNAN_clean_linker_2, # of connection points: 2
#     Edge 90, Type (0, 0), BuildingBlock: XUDNAN_clean_linker_2, # of connection points: 2
#     Edge 91, Type (0, 0), BuildingBlock: XUDNAN_clean_linker_2, # of connection points: 2
#     Edge 92, Type (0, 0), BuildingBlock: XUDNAN_clean_linker_2, # of connection points: 2
#     Edge 93, Type (0, 0), BuildingBlock: XUDNAN_clean_linker_2, # of connection points: 2
#     Edge 94, Type (0, 0), BuildingBlock: XUDNAN_clean_linker_2, # of connection points: 2
#     Edge 95, Type (0, 0), BuildingBlock: XUDNAN_clean_linker_2, # of connection points: 2
#     Edge 96, Type (0, 0), BuildingBlock: XUDNAN_clean_linker_2, # of connection points: 2
#     Edge 97, Type (0, 0), BuildingBlock: XUDNAN_clean_linker_2, # of connection points: 2
#     Edge 98, Type (0, 0), BuildingBlock: XUDNAN_clean_linker_2, # of connection points: 2
#     Edge 99, Type (0, 0), BuildingBlock: XUDNAN_clean_linker_2, # of connection points: 2
#     Edge 100, Type (0, 0), BuildingBlock: XUDNAN_clean_linker_2, # of connection points: 2
#     Edge 101, Type (0, 0), BuildingBlock: XUDNAN_clean_linker_2, # of connection points: 2
#     Edge 102, Type (0, 0), BuildingBlock: XUDNAN_clean_linker_2, # of connection points: 2
#     Edge 103, Type (0, 0), BuildingBlock: XUDNAN_clean_linker_2, # of connection points: 2
#     Edge 104, Type (0, 0), BuildingBlock: XUDNAN_clean_linker_2, # of connection points: 2
#     Edge 105, Type (0, 0), BuildingBlock: XUDNAN_clean_linker_2, # of connection points: 2
#     Edge 106, Type (0, 0), BuildingBlock: XUDNAN_clean_linker_2, # of connection points: 2
#     Edge 107, Type (0, 0), BuildingBlock: XUDNAN_clean_linker_2, # of connection points: 2
#     Edge 108, Type (0, 0), BuildingBlock: XUDNAN_clean_linker_2, # of connection points: 2
#     Edge 109, Type (0, 0), BuildingBlock: XUDNAN_clean_linker_2, # of connection points: 2
#     Edge 110, Type (0, 0), BuildingBlock: XUDNAN_clean_linker_2, # of connection points: 2
#     Edge 111, Type (0, 0), BuildingBlock: XUDNAN_clean_linker_2, # of connection points: 2
#     Edge 112, Type (0, 0), BuildingBlock: XUDNAN_clean_linker_2, # of connection points: 2
#     Edge 113, Type (0, 0), BuildingBlock: XUDNAN_clean_linker_2, # of connection points: 2
#     Edge 114, Type (0, 0), BuildingBlock: XUDNAN_clean_linker_2, # of connection points: 2
#     Edge 115, Type (0, 0), BuildingBlock: XUDNAN_clean_linker_2, # of connection points: 2
#     Edge 116, Type (0, 0), BuildingBlock: XUDNAN_clean_linker_2, # of connection points: 2
#     Edge 117, Type (0, 0), BuildingBlock: XUDNAN_clean_linker_2, # of connection points: 2
#     Edge 118, Type (0, 0), BuildingBlock: XUDNAN_clean_linker_2, # of connection points: 2
#     Edge 119, Type (0, 0), BuildingBlock: XUDNAN_clean_linker_2, # of connection points: 2
#     Edge 120, Type (0, 0), BuildingBlock: XUDNAN_clean_linker_2, # of connection points: 2
#     Edge 121, Type (0, 0), BuildingBlock: XUDNAN_clean_linker_2, # of connection points: 2
#     Edge 122, Type (0, 0), BuildingBlock: XUDNAN_clean_linker_2, # of connection points: 2
#     Edge 123, Type (0, 0), BuildingBlock: XUDNAN_clean_linker_2, # of connection points: 2
#     Edge 124, Type (0, 0), BuildingBlock: XUDNAN_clean_linker_2, # of connection points: 2
#     Edge 125, Type (0, 0), BuildingBlock: XUDNAN_clean_linker_2, # of connection points: 2
#     Edge 126, Type (0, 0), BuildingBlock: XUDNAN_clean_linker_2, # of connection points: 2
#     Edge 127, Type (0, 0), BuildingBlock: XUDNAN_clean_linker_2, # of connection points: 2
#     Edge 128, Type (0, 0), BuildingBlock: XUDNAN_clean_linker_2, # of connection points: 2
#     Edge 129, Type (0, 0), BuildingBlock: XUDNAN_clean_linker_2, # of connection points: 2
#     Edge 130, Type (0, 0), BuildingBlock: XUDNAN_clean_linker_2, # of connection points: 2
#     Edge 131, Type (0, 0), BuildingBlock: XUDNAN_clean_linker_2, # of connection points: 2
#     Edge 132, Type (0, 0), BuildingBlock: XUDNAN_clean_linker_2, # of connection points: 2
#     Edge 133, Type (0, 0), BuildingBlock: XUDNAN_clean_linker_2, # of connection points: 2
#     Edge 134, Type (0, 0), BuildingBlock: XUDNAN_clean_linker_2, # of connection points: 2
#     Edge 135, Type (0, 0), BuildingBlock: XUDNAN_clean_linker_2, # of connection points: 2
#     Edge 136, Type (0, 0), BuildingBlock: XUDNAN_clean_linker_2, # of connection points: 2
#     Edge 137, Type (0, 0), BuildingBlock: XUDNAN_clean_linker_2, # of connection points: 2
#     Edge 138, Type (0, 0), BuildingBlock: XUDNAN_clean_linker_2, # of connection points: 2
#     Edge 139, Type (0, 0), BuildingBlock: XUDNAN_clean_linker_2, # of connection points: 2
#     Edge 140, Type (0, 0), BuildingBlock: XUDNAN_clean_linker_2, # of connection points: 2
#     Edge 141, Type (0, 0), BuildingBlock: XUDNAN_clean_linker_2, # of connection points: 2
#     Edge 142, Type (0, 0), BuildingBlock: XUDNAN_clean_linker_2, # of connection points: 2
#     Edge 143, Type (0, 0), BuildingBlock: XUDNAN_clean_linker_2, # of connection points: 2
# Relax obj value: 0.015
# Max RMSD: 0.045
# Mean RMSD: 0.045
data_MOF--net-ull--node1-GALJAG_clean_sbu_0--edge1-XUDNAN_clean_linker_2
_symmetry_space_group_name_H-M    P1
_symmetry_Int_Tables_number       1
_symmetry_cell_setting            triclinic
loop_
_symmetry_equiv_pos_as_xyz
'x, y, z'
_cell_length_a     61.57557
_cell_length_b     61.566129
_cell_length_c     61.564029
_cell_angle_alpha  90.01656
_cell_angle_beta   89.982759
_cell_angle_gamma 89.950437
loop_
_atom_site_label
_atom_site_type_symbol
_atom_site_fract_x
_atom_site_fract_y
_atom_site_fract_z
_atom_type_partial_charge
In0 In 0.02309 0.33543 0.18191 0.0
O1 O 0.01568 0.30246 0.19755 0.0
O2 O 0.00173 0.33094 0.21149 0.0
C3 C 0.05093 0.32701 0.14921 0.0
C4 C 0.05091 0.35596 0.2088 0.0
C5 C 0.9883 0.34656 0.15772 0.0
O6 O 0.04269 0.31204 0.16065 0.0
O7 O 0.04507 0.34598 0.1543 0.0
O8 O 0.99969 0.36068 0.16741 0.0
O9 O 0.99436 0.3272 0.16056 0.0
C10 C 0.00384 0.31055 0.21231 0.0
O11 O 0.03462 0.3657 0.2008 0.0
O12 O 0.05283 0.33634 0.20315 0.0
In13 In 0.66986 0.03311 0.17036 0.0
O14 O 0.64052 0.04076 0.19253 0.0
O15 O 0.66689 0.06303 0.19137 0.0
C16 C 0.65903 0.99563 0.15 0.0
C17 C 0.70274 0.01899 0.19588 0.0
C18 C 0.67323 0.06107 0.13658 0.0
O19 O 0.64538 0.00626 0.16111 0.0
O20 O 0.67772 0.00384 0.14945 0.0
O21 O 0.68913 0.05561 0.1483 0.0
O22 O 0.6554 0.05247 0.14189 0.0
C23 C 0.64859 0.05842 0.19933 0.0
O24 O 0.70586 0.02821 0.17784 0.0
O25 O 0.68303 0.01687 0.20112 0.0
In26 In 0.97828 0.65787 0.17524 0.0
O27 O 0.97291 0.69394 0.18292 0.0
O28 O 0.99043 0.675 0.20581 0.0
C29 C 0.9515 0.65182 0.1408 0.0
C30 C 0.96074 0.62943 0.20359 0.0
C31 C 0.01777 0.6537 0.15625 0.0
O32 O 0.95304 0.66993 0.15032 0.0
O33 O 0.96331 0.63708 0.14866 0.0
O34 O 0.00965 0.63931 0.16832 0.0
O35 O 0.00614 0.6704 0.15397 0.0
C36 C 0.98292 0.69339 0.20082 0.0
O37 O 0.98007 0.62797 0.1969 0.0
O38 O 0.95025 0.64546 0.1962 0.0
In39 In 0.33884 0.97925 0.17209 0.0
O40 O 0.3708 0.97962 0.19122 0.0
O41 O 0.35026 0.95214 0.19447 0.0
C42 C 0.34812 0.01362 0.14668 0.0
C43 C 0.30928 0.99469 0.20076 0.0
C44 C 0.33044 0.95026 0.1401 0.0
O45 O 0.3626 0.00342 0.15709 0.0
O46 O 0.32911 0.00632 0.14896 0.0
O47 O 0.31562 0.95943 0.15092 0.0
O48 O 0.34945 0.95548 0.1456 0.0
C49 C 0.36773 0.96132 0.19991 0.0
O50 O 0.30876 0.97537 0.19391 0.0
O51 O 0.32458 0.00597 0.19326 0.0
In52 In 0.02528 0.66147 0.82554 0.0
O53 O 0.02545 0.62698 0.811 0.0
O54 O 0.05323 0.64705 0.80642 0.0
C55 C 0.98685 0.66541 0.84678 0.0
C56 C 0.01789 0.68787 0.79137 0.0
C57 C 0.05365 0.66697 0.8586 0.0
O58 O 0.99484 0.64697 0.84245 0.0
O59 O 0.99802 0.68119 0.84021 0.0
O60 O 0.05036 0.68131 0.84431 0.0
O61 O 0.04282 0.64977 0.85611 0.0
C62 C 0.04421 0.629 0.80277 0.0
O63 O 0.02859 0.69401 0.80778 0.0
O64 O 0.01105 0.66855 0.79221 0.0
In65 In 0.34265 0.03078 0.82794 0.0
O66 O 0.30585 0.02512 0.82576 0.0
O67 O 0.32444 0.02322 0.79678 0.0
C68 C 0.34088 0.06304 0.85747 0.0
C69 C 0.37439 0.0475 0.80268 0.0
C70 C 0.34889 0.9916 0.84669 0.0
O71 O 0.3275 0.0617 0.84198 0.0
O72 O 0.35477 0.04798 0.85821 0.0
O73 O 0.35122 0.99462 0.82655 0.0
O74 O 0.34398 0.00837 0.85735 0.0
C75 C 0.30602 0.02167 0.80555 0.0
O76 O 0.37752 0.03106 0.81453 0.0
O77 O 0.35543 0.05513 0.80351 0.0
In78 In 0.97529 0.34707 0.83214 0.0
O79 O 0.97213 0.31742 0.8095 0.0
O80 O 0.00213 0.33439 0.81029 0.0
C81 C 0.94476 0.33857 0.86263 0.0
C82 C 0.95905 0.37775 0.80531 0.0
C83 C 0.00886 0.35376 0.85935 0.0
O84 O 0.95369 0.32377 0.85155 0.0
O85 O 0.95102 0.35751 0.85809 0.0
O86 O 0.99883 0.3692 0.85028 0.0
O87 O 0.00185 0.33505 0.85479 0.0
C88 C 0.99136 0.31884 0.80251 0.0
O89 O 0.977 0.37999 0.81493 0.0
O90 O 0.94945 0.36009 0.80919 0.0
In91 In 0.65896 0.97578 0.82863 0.0
O92 O 0.69395 0.97601 0.81562 0.0
O93 O 0.67221 1.00123 0.80578 0.0
C94 C 0.65623 0.94593 0.86064 0.0
C95 C 0.63986 0.95328 0.79621 0.0
C96 C 0.64976 0.01174 0.85179 0.0
O97 O 0.67436 0.95352 0.85459 0.0
O98 O 0.64 0.95348 0.85069 0.0
O99 O 0.63641 0.00393 0.83819 0.0
O100 O 0.66721 1.00115 0.85385 0.0
C101 C 0.69104 0.99317 0.80462 0.0
O102 O 0.62988 0.9684 0.80603 0.0
O103 O 0.65904 0.95005 0.80267 0.0
In104 In 0.16793 0.0299 0.34186 0.0
O105 O 0.18639 0.0254 0.37424 0.0
O106 O 0.18737 0.05615 0.35879 0.0
C107 C 0.14811 0.99068 0.33963 0.0
C108 C 0.19908 0.02842 0.31111 0.0
C109 C 0.13356 0.05698 0.3371 0.0
O110 O 0.15007 1.00078 0.3574 0.0
O111 O 0.156 1.00036 0.32343 0.0
O112 O 0.14547 0.05114 0.3215 0.0
O113 O 0.13872 0.04889 0.3552 0.0
C114 C 0.19347 0.04465 0.37455 0.0
O115 O 0.18608 0.04417 0.31299 0.0
O116 O 0.19648 0.01338 0.32482 0.0
In117 In 0.96709 0.17143 0.35221 0.0
O118 O 0.95876 0.18505 0.31836 0.0
O119 O 0.97073 0.20674 0.34244 0.0
C120 C 0.94076 0.13659 0.35534 0.0
C121 C 0.95365 0.19308 0.38769 0.0
C122 C 0.00649 0.15315 0.34501 0.0
O123 O 0.93929 0.14976 0.33963 0.0
O124 O 0.95559 0.14081 0.3688 0.0
O125 O 1.0001 0.15795 0.3639 0.0
O126 O 0.99333 0.15796 0.33016 0.0
C127 C 0.96428 0.20422 0.3232 0.0
O128 O 0.97344 0.19281 0.38211 0.0
O129 O 0.94092 0.18267 0.37547 0.0
In130 In 0.82678 0.96934 0.34832 0.0
O131 O 0.80271 0.97187 0.37638 0.0
O132 O 0.80371 0.9422 0.35868 0.0
C133 C 0.84641 0.00822 0.35464 0.0
C134 C 0.80426 0.97574 0.31113 0.0
C135 C 0.85994 0.94106 0.35528 0.0
O136 O 0.83545 0.9988 0.36913 0.0
O137 O 0.84724 0.99825 0.3368 0.0
O138 O 0.8507 0.94269 0.33705 0.0
O139 O 0.85241 0.95347 0.36968 0.0
C140 C 0.79536 0.95286 0.37412 0.0
O141 O 0.82246 0.96627 0.31148 0.0
O142 O 0.7974 0.98179 0.32947 0.0
In143 In 0.02772 0.8272 0.34728 0.0
O144 O 0.02239 0.82234 0.31092 0.0
O145 O 0.01769 0.79496 0.3313 0.0
C146 C 0.0582 0.85877 0.34262 0.0
C147 C 0.04462 0.7991 0.37675 0.0
C148 C 0.98995 0.84832 0.35601 0.0
O149 O 0.05656 0.84284 0.32987 0.0
O150 O 0.04461 0.85877 0.35792 0.0
O151 O 0.00266 0.84189 0.37074 0.0
O152 O 0.99615 0.84389 0.33703 0.0
C153 C 0.01737 0.80254 0.31225 0.0
O154 O 0.02513 0.80549 0.37747 0.0
O155 O 0.05547 0.80676 0.36113 0.0
In156 In 0.17127 0.97799 0.6617 0.0
O157 O 0.17792 0.9731 0.69778 0.0
O158 O 0.20293 0.98702 0.67822 0.0
C159 C 0.13287 0.95783 0.65638 0.0
C160 C 0.19579 0.9512 0.6372 0.0
C161 C 0.15859 0.01982 0.65964 0.0
O162 O 0.14335 0.95676 0.67401 0.0
O163 O 0.14151 0.96949 0.64192 0.0
O164 O 0.16518 0.00993 0.64285 0.0
O165 O 0.15855 0.00873 0.6768 0.0
C166 C 0.19682 0.98112 0.69693 0.0
O167 O 0.19503 0.9714 0.63326 0.0
O168 O 0.1847 0.94518 0.65332 0.0
In169 In 0.03643 0.18049 0.66059 0.0
O170 O 0.06078 0.20346 0.64591 0.0
O171 O 0.0326 0.19747 0.62705 0.0
C172 C 0.99984 0.15684 0.66637 0.0
C173 C 0.0313 0.21082 0.69182 0.0
C174 C 0.06718 0.14905 0.66192 0.0
O175 O 0.00503 0.16418 0.64787 0.0
O176 O 0.01306 0.16133 0.68133 0.0
O177 O 0.06378 0.16224 0.6772 0.0
O178 O 0.05473 0.15134 0.64579 0.0
C179 C 0.05051 0.20741 0.62871 0.0
O180 O 0.04761 0.19845 0.69073 0.0
O181 O 0.01729 0.20794 0.67711 0.0
In182 In 0.83425 0.03825 0.66844 0.0
O183 O 0.81669 0.03298 0.6357 0.0
O184 O 0.81511 0.06411 0.65035 0.0
C185 C 0.85501 0.99968 0.6722 0.0
C186 C 0.80256 0.03512 0.69872 0.0
C187 C 0.86879 0.06529 0.67269 0.0
O188 O 0.85002 0.00751 0.65387 0.0
O189 O 0.84973 0.01134 0.68818 0.0
O190 O 0.85606 0.06081 0.68809 0.0
O191 O 0.86416 0.05618 0.65494 0.0
C192 C 0.80956 0.05221 0.63467 0.0
O193 O 0.81384 0.05206 0.69625 0.0
O194 O 0.80699 0.0199 0.68573 0.0
In195 In 0.97173 0.8348 0.65854 0.0
O196 O 0.97467 0.81777 0.69179 0.0
O197 O 0.98806 0.80222 0.66404 0.0
C198 C 0.94155 0.86567 0.66721 0.0
C199 C 0.95303 0.81071 0.62718 0.0
C200 C 0.00744 0.85959 0.65235 0.0
O201 O 0.94746 0.85189 0.68123 0.0
O202 O 0.95053 0.86356 0.64895 0.0
O203 O 0.99579 0.85276 0.637 0.0
O204 O 1.00143 0.85351 0.67096 0.0
C205 C 0.98443 0.80139 0.68416 0.0
O206 O 0.97149 0.81936 0.62501 0.0
O207 O 0.94377 0.81454 0.64511 0.0
In208 In 0.3452 0.17505 0.02375 0.0
O209 O 0.32262 0.20403 0.02767 0.0
O210 O 0.3084 0.17426 0.01779 0.0
C211 C 0.35053 0.1424 0.0526 0.0
C212 C 0.37429 0.20453 0.03785 0.0
C213 C 0.3508 0.1599 0.98287 0.0
O214 O 0.33197 0.15006 0.04824 0.0
O215 O 0.36598 0.15126 0.04256 0.0
O216 O 0.34596 0.17942 0.98676 0.0
O217 O 0.35371 0.1484 0.99952 0.0
C218 C 0.3057 0.1942 0.02175 0.0
O219 O 0.37568 0.19596 0.01922 0.0
O220 O 0.35826 0.19834 0.049 0.0
In221 In 0.33616 0.83429 0.97355 0.0
O222 O 0.30318 0.82101 0.96393 0.0
O223 O 0.3189 0.80646 0.99109 0.0
C224 C 0.3392 0.86478 0.94203 0.0
C225 C 0.36853 0.80685 0.96174 0.0
C226 C 0.33002 0.85772 0.01005 0.0
O227 O 0.32701 0.84844 0.94056 0.0
O228 O 0.3497 0.86606 0.95955 0.0
O229 O 0.34779 0.84808 0.00622 0.0
O230 O 0.31575 0.8556 0.9955 0.0
C231 C 0.30258 0.80676 0.97865 0.0
O232 O 0.37029 0.81895 0.97824 0.0
O233 O 0.35078 0.80867 0.95183 0.0
In234 In 0.16788 0.33702 0.98388 0.0
O235 O 0.17912 0.30329 0.9732 0.0
O236 O 0.19691 0.3194 0.99816 0.0
C237 C 0.13464 0.34621 0.95692 0.0
C238 C 0.19643 0.3675 0.97061 0.0
C239 C 0.14568 0.3301 0.02106 0.0
O240 O 0.14514 0.32859 0.95564 0.0
O241 O 0.14092 0.35892 0.97169 0.0
O242 O 0.1559 0.34762 0.01777 0.0
O243 O 0.14669 0.31658 0.00574 0.0
C244 C 0.19465 0.30257 0.98664 0.0
O245 O 0.18817 0.36778 0.98945 0.0
O246 O 0.19047 0.35181 0.95883 0.0
In247 In 0.66242 0.17637 0.9695 0.0
O248 O 0.63295 0.199 0.9641 0.0
O249 O 0.66028 0.2005 0.9426 0.0
C250 C 0.66522 0.15165 0.00509 0.0
C251 C 0.69299 0.20305 0.98501 0.0
C252 C 0.65488 0.14374 0.94157 0.0
O253 O 0.64829 0.16303 1.00153 0.0
O254 O 0.67961 0.1524 0.99045 0.0
O255 O 0.67376 0.15165 0.9441 0.0
O256 O 0.64016 0.15237 0.95304 0.0
C257 C 0.64171 0.20777 0.94754 0.0
O258 O 0.69619 0.19187 0.96794 0.0
O259 O 0.67448 0.20094 0.99371 0.0
In260 In 0.83119 0.6619 0.97762 0.0
O261 O 0.81015 0.6311 0.98019 0.0
O262 O 0.80876 0.64924 0.951 0.0
C263 C 0.85742 0.65318 0.01167 0.0
C264 C 0.80432 0.69366 0.99243 0.0
C265 C 0.86246 0.66806 0.94716 0.0
O266 O 0.84679 0.63858 0.0019 0.0
O267 O 0.85495 0.67209 0.00413 0.0
O268 O 0.85112 0.6834 0.95472 0.0
O269 O 0.85806 0.64966 0.95495 0.0
C270 C 0.80219 0.63291 0.9614 0.0
O271 O 0.81056 0.69284 0.97292 0.0
O272 O 0.81141 0.67852 0.00421 0.0
In273 In 0.66053 0.83215 0.02897 0.0
O274 O 0.69234 0.81807 0.04217 0.0
O275 O 0.68258 0.80844 0.01057 0.0
C276 C 0.65478 0.86593 0.05683 0.0
C277 C 0.63189 0.80204 0.04333 0.0
C278 C 0.65635 0.85234 0.99012 0.0
O279 O 0.63935 0.855 0.04908 0.0
O280 O 0.67336 0.85993 0.05054 0.0
O281 O 0.64305 0.83832 0.99696 0.0
O282 O 0.67197 0.85616 0.00283 0.0
C283 C 0.69636 0.80666 0.02561 0.0
O284 O 0.64903 0.80683 0.05347 0.0
O285 O 0.62922 0.81231 0.02578 0.0
In286 In 0.17101 0.65945 0.0244 0.0
O287 O 0.1889 0.62699 0.01996 0.0
O288 O 0.19829 0.64777 0.04599 0.0
C289 C 0.1438 0.66339 0.99039 0.0
C290 C 0.19789 0.69164 0.01246 0.0
C291 C 0.14191 0.65483 0.05677 0.0
O292 O 0.15466 0.64617 0.99345 0.0
O293 O 0.14619 0.67781 0.00475 0.0
O294 O 0.1504 0.67302 0.05244 0.0
O295 O 0.148 0.63937 0.04479 0.0
C296 C 0.20114 0.62997 0.03623 0.0
O297 O 0.18947 0.69115 0.03123 0.0
O298 O 0.19317 0.67583 1.00032 0.0
In299 In 0.83052 0.34469 0.02989 0.0
O300 O 0.81414 0.31399 0.04308 0.0
O301 O 0.80219 0.32744 0.01355 0.0
C302 C 0.86595 0.34951 0.05523 0.0
C303 C 0.80648 0.37737 0.04659 0.0
C304 C 0.85178 0.33874 0.99206 0.0
O305 O 0.85466 0.33232 0.0555 0.0
O306 O 0.85962 0.36375 0.04191 0.0
O307 O 0.84253 0.35658 0.99654 0.0
O308 O 0.8503 0.32438 0.00659 0.0
C309 C 0.80081 0.31251 0.02752 0.0
O310 O 0.80978 0.37592 0.02635 0.0
O311 O 0.81467 0.36235 0.05779 0.0
In312 In 0.52709 0.8358 0.67366 0.0
O313 O 0.53418 0.86583 0.6952 0.0
O314 O 0.55939 0.84291 0.68946 0.0
C315 C 0.4892 0.84626 0.65384 0.0
C316 C 0.51412 0.80388 0.70094 0.0
C317 C 0.55374 0.82901 0.6394 0.0
O318 O 0.50121 0.86056 0.66239 0.0
O319 O 0.4962 0.82715 0.65565 0.0
O320 O 0.55033 0.81489 0.65387 0.0
O321 O 0.54355 0.84661 0.64208 0.0
C322 C 0.55379 0.8605 0.69835 0.0
O323 O 0.52096 0.8003 0.68198 0.0
O324 O 0.51414 0.82363 0.70649 0.0
In325 In 0.1701 0.52795 0.68014 0.0
O326 O 0.1373 0.52363 0.69802 0.0
O327 O 0.15285 0.55434 0.69927 0.0
C328 C 0.17343 0.48895 0.65987 0.0
C329 C 0.20011 0.52591 0.71213 0.0
C330 C 0.17483 0.55449 0.64522 0.0
O331 O 0.15528 0.49826 0.6624 0.0
O332 O 0.18934 0.49919 0.66759 0.0
O333 O 0.19043 0.54892 0.65728 0.0
O334 O 0.1567 0.54674 0.65075 0.0
C335 C 0.13692 0.54292 0.70509 0.0
O336 O 0.19857 0.54189 0.69935 0.0
O337 O 0.18645 0.51097 0.70889 0.0
In338 In 0.47933 0.1608 0.67214 0.0
O339 O 0.47332 0.197 0.67852 0.0
O340 O 0.49158 0.17927 0.70182 0.0
C341 C 0.45067 0.15389 0.63939 0.0
C342 C 0.46321 0.1344 0.70305 0.0
C343 C 0.5184 0.15488 0.65266 0.0
O344 O 0.45538 0.17275 0.6459 0.0
O345 O 0.46045 0.13885 0.6492 0.0
O346 O 0.50911 0.14034 0.66362 0.0
O347 O 0.50807 0.1725 0.65152 0.0
C348 C 0.48354 0.19727 0.6963 0.0
O349 O 0.48249 0.1329 0.6962 0.0
O350 O 0.45214 0.14943 0.69448 0.0
In351 In 0.84448 0.48017 0.67444 0.0
O352 O 0.87684 0.4828 0.69291 0.0
O353 O 0.8554 0.45698 0.7008 0.0
C354 C 0.846 0.51902 0.65435 0.0
C355 C 0.8071 0.48269 0.69745 0.0
C356 C 0.85213 0.45237 0.64144 0.0
O357 O 0.85269 0.51637 0.67356 0.0
O358 O 0.8389 0.50212 0.64522 0.0
O359 O 0.83308 0.4568 0.6478 0.0
O360 O 0.86705 0.46204 0.65162 0.0
C361 C 0.87335 0.46611 0.70432 0.0
O362 O 0.81256 0.46572 0.68728 0.0
O363 O 0.82007 0.49834 0.69543 0.0
In364 In 0.53055 0.16132 0.3298 0.0
O365 O 0.54185 0.13126 0.31035 0.0
O366 O 0.56214 0.15924 0.31142 0.0
C367 C 0.49367 0.15048 0.35098 0.0
C368 C 0.51512 0.18804 0.29866 0.0
C369 C 0.55582 0.16835 0.36483 0.0
O370 O 0.50512 0.13642 0.34123 0.0
O371 O 0.50077 0.16963 0.34973 0.0
O372 O 0.54814 0.18372 0.35354 0.0
O373 O 0.5508 0.14955 0.35839 0.0
C374 C 0.55942 0.14018 0.3044 0.0
O375 O 0.52646 0.19507 0.31429 0.0
O376 O 0.51151 0.16787 0.29907 0.0
In377 In 0.84341 0.52365 0.33036 0.0
O378 O 0.87557 0.52226 0.3117 0.0
O379 O 0.85422 0.54859 0.30526 0.0
C380 C 0.84582 0.4844 0.34978 0.0
C381 C 0.80668 0.52068 0.30647 0.0
C382 C 0.85049 0.55035 0.36442 0.0
O383 O 0.85624 0.48889 0.33268 0.0
O384 O 0.83423 0.49969 0.35703 0.0
O385 O 0.86555 0.54091 0.35423 0.0
O386 O 0.8316 0.54631 0.35749 0.0
C387 C 0.87219 0.53961 0.30128 0.0
O388 O 0.81074 0.53684 0.31842 0.0
O389 O 0.82097 0.50602 0.30679 0.0
In390 In 0.46348 0.83711 0.32724 0.0
O391 O 0.46045 0.80716 0.3051 0.0
O392 O 0.48872 0.82697 0.30261 0.0
C393 C 0.43194 0.83367 0.35739 0.0
C394 C 0.44872 0.86963 0.30203 0.0
C395 C 0.4972 0.83167 0.35435 0.0
O396 O 0.4358 0.81879 0.34372 0.0
O397 O 0.4437 0.85035 0.3555 0.0
O398 O 0.49323 0.84997 0.34578 0.0
O399 O 0.48401 0.81678 0.3495 0.0
C400 C 0.47875 0.81024 0.29623 0.0
O401 O 0.4654 0.87185 0.31385 0.0
O402 O 0.43977 0.85124 0.30313 0.0
In403 In 0.16805 0.47311 0.32707 0.0
O404 O 0.20131 0.47677 0.31034 0.0
O405 O 0.17339 0.48995 0.29482 0.0
C406 C 0.177 0.44891 0.36251 0.0
C407 C 0.14442 0.44428 0.30399 0.0
C408 C 0.15739 0.51039 0.34767 0.0
O409 O 0.19172 0.45573 0.3499 0.0
O410 O 0.15795 0.4542 0.35713 0.0
O411 O 0.14317 0.49789 0.33972 0.0
O412 O 0.17671 0.50429 0.34473 0.0
C413 C 0.19362 0.48672 0.2941 0.0
O414 O 0.13692 0.46274 0.3091 0.0
O415 O 0.16346 0.4406 0.31063 0.0
In416 In 0.67335 0.53428 0.84071 0.0
O417 O 0.68791 0.53234 0.87517 0.0
O418 O 0.69931 0.55679 0.8536 0.0
C419 C 0.64461 0.50156 0.8367 0.0
C420 C 0.70188 0.51891 0.81123 0.0
C421 C 0.64475 0.56737 0.83815 0.0
O422 O 0.65487 0.50463 0.85429 0.0
O423 O 0.64866 0.51512 0.82189 0.0
O424 O 0.65775 0.56278 0.82293 0.0
O425 O 0.64639 0.55543 0.85474 0.0
C426 C 0.70044 0.54837 0.87223 0.0
O427 O 0.6936 0.53765 0.80967 0.0
O428 O 0.69628 0.50836 0.82788 0.0
In429 In 0.47426 0.67498 0.85101 0.0
O430 O 0.46364 0.68341 0.81648 0.0
O431 O 0.48398 0.70587 0.83322 0.0
C432 C 0.4494 0.63972 0.85962 0.0
C433 C 0.45862 0.70377 0.88012 0.0
C434 C 0.51433 0.65767 0.84594 0.0
O435 O 0.44871 0.64939 0.84154 0.0
O436 O 0.46267 0.64766 0.87302 0.0
O437 O 0.50788 0.66464 0.86414 0.0
O438 O 0.50066 0.65928 0.83084 0.0
C439 C 0.474 0.70115 0.81593 0.0
O440 O 0.4782 0.69752 0.88052 0.0
O441 O 0.44729 0.69554 0.86514 0.0
In442 In 0.32794 0.47729 0.86274 0.0
O443 O 0.3111 0.47298 0.82955 0.0
O444 O 0.30635 0.50254 0.84684 0.0
C445 C 0.35916 0.44629 0.86425 0.0
C446 C 0.29736 0.46103 0.88977 0.0
C447 C 0.35369 0.51223 0.86882 0.0
O448 O 0.35139 0.45292 0.84642 0.0
O449 O 0.35113 0.45516 0.88083 0.0
O450 O 0.34139 0.50494 0.88357 0.0
O451 O 0.35304 0.50185 0.85114 0.0
C452 C 0.30233 0.49157 0.83002 0.0
O453 O 0.30781 0.47816 0.8941 0.0
O454 O 0.30203 0.45252 0.87171 0.0
In455 In 0.52663 0.33592 0.8383 0.0
O456 O 0.52244 0.32921 0.80218 0.0
O457 O 0.51469 0.3036 0.82392 0.0
C458 C 0.55125 0.37195 0.8334 0.0
C459 C 0.55427 0.31026 0.86095 0.0
C460 C 0.48801 0.35327 0.85066 0.0
O461 O 0.54629 0.35953 0.81788 0.0
O462 O 0.54387 0.36621 0.85165 0.0
O463 O 0.50053 0.34399 0.86401 0.0
O464 O 0.49483 0.35337 0.83141 0.0
C465 C 0.51578 0.31 0.80447 0.0
O466 O 0.53466 0.31262 0.86664 0.0
O467 O 0.55952 0.32058 0.84405 0.0
In468 In 0.67637 0.47428 0.15953 0.0
O469 O 0.69219 0.47499 0.12546 0.0
O470 O 0.7101 0.46199 0.15206 0.0
C471 C 0.64549 0.5054 0.16012 0.0
C472 C 0.69907 0.48831 0.1941 0.0
C473 C 0.65194 0.43809 0.15586 0.0
O474 O 0.66047 0.50554 0.14599 0.0
O475 O 0.64598 0.48945 0.17293 0.0
O476 O 0.65793 0.44533 0.1741 0.0
O477 O 0.65867 0.44874 0.13974 0.0
C478 C 0.70958 0.46619 0.13204 0.0
O479 O 0.69371 0.46857 0.19194 0.0
O480 O 0.69313 0.50068 0.17885 0.0
In481 In 0.5269 0.67073 0.15639 0.0
O482 O 0.52459 0.69191 0.12578 0.0
O483 O 0.555 0.68989 0.14192 0.0
C484 C 0.48949 0.64944 0.1478 0.0
C485 C 0.52146 0.70015 0.18864 0.0
C486 C 0.55227 0.63529 0.16257 0.0
O487 O 0.50137 0.6573 0.13304 0.0
O488 O 0.49628 0.65264 0.16685 0.0
O489 O 0.5419 0.64439 0.17771 0.0
O490 O 0.55015 0.64422 0.14428 0.0
C491 C 0.54423 0.69778 0.12638 0.0
O492 O 0.53899 0.68998 0.18563 0.0
O493 O 0.50648 0.69538 0.17552 0.0
In494 In 0.33099 0.52219 0.14806 0.0
O495 O 0.31796 0.52508 0.18322 0.0
O496 O 0.29854 0.50938 0.15935 0.0
C497 C 0.36394 0.55101 0.14446 0.0
C498 C 0.30445 0.54045 0.11837 0.0
C499 C 0.35239 0.48384 0.14499 0.0
O500 O 0.35401 0.54827 0.16226 0.0
O501 O 0.35738 0.53918 0.12913 0.0
O502 O 0.34132 0.49175 0.12968 0.0
O503 O 0.35232 0.49502 0.16216 0.0
C504 C 0.30024 0.51572 0.17873 0.0
O505 O 0.3118 0.52136 0.11631 0.0
O506 O 0.31054 0.55025 0.13537 0.0
In507 In 0.48323 0.32801 0.15492 0.0
O508 O 0.48054 0.316 0.1905 0.0
O509 O 0.49107 0.29396 0.16609 0.0
C510 C 0.4556 0.36198 0.15068 0.0
C511 C 0.4643 0.3035 0.12413 0.0
C512 C 0.52373 0.34497 0.1525 0.0
O513 O 0.45751 0.35192 0.16849 0.0
O514 O 0.46798 0.35537 0.13581 0.0
O515 O 0.51574 0.33301 0.13794 0.0
O516 O 0.51135 0.34835 0.16847 0.0
C517 C 0.48652 0.29692 0.18579 0.0
O518 O 0.48326 0.31111 0.12197 0.0
O519 O 0.45499 0.30827 0.14182 0.0
In520 In 0.84418 0.67423 0.5247 0.0
O521 O 0.80966 0.68827 0.5247 0.0
O522 O 0.83109 0.69756 0.49928 0.0
C523 C 0.84017 0.64444 0.55671 0.0
C524 C 0.87262 0.70351 0.54111 0.0
C525 C 0.85173 0.64772 0.49086 0.0
O526 O 0.82804 0.66091 0.55555 0.0
O527 O 0.85404 0.64289 0.54175 0.0
O528 O 0.86662 0.65858 0.49994 0.0
O529 O 0.83301 0.65013 0.499 0.0
C530 C 0.81248 0.69922 0.5076 0.0
O531 O 0.87623 0.69333 0.52371 0.0
O532 O 0.85491 0.69882 0.55013 0.0
In533 In 0.84639 0.32947 0.48021 0.0
O534 O 0.81662 0.31399 0.46419 0.0
O535 O 0.82015 0.31057 0.49829 0.0
C536 C 0.84466 0.3576 0.44637 0.0
C537 C 0.8769 0.29811 0.47531 0.0
C538 C 0.85473 0.35393 0.5158 0.0
O539 O 0.85267 0.33882 0.44486 0.0
O540 O 0.83705 0.36211 0.46484 0.0
O541 O 0.86956 0.34427 0.50541 0.0
O542 O 0.83593 0.35116 0.50828 0.0
C543 C 0.80914 0.3062 0.48161 0.0
O544 O 0.87926 0.31703 0.4678 0.0
O545 O 0.85975 0.29542 0.48617 0.0
In546 In 0.66461 0.83175 0.46923 0.0
O547 O 0.6816 0.86489 0.47306 0.0
O548 O 0.68385 0.8485 0.44278 0.0
C549 C 0.64501 0.82832 0.50835 0.0
C550 C 0.69677 0.80219 0.471 0.0
C551 C 0.62934 0.82664 0.44364 0.0
O552 O 0.64841 0.84662 0.49963 0.0
O553 O 0.6516 0.8123 0.49745 0.0
O554 O 0.64165 0.81116 0.44894 0.0
O555 O 0.63488 0.84489 0.45108 0.0
C556 C 0.6891 0.86481 0.45393 0.0
O557 O 0.68452 0.80417 0.45467 0.0
O558 O 0.69289 0.81518 0.4864 0.0
In559 In 0.16192 0.66728 0.47609 0.0
O560 O 0.19338 0.68231 0.4636 0.0
O561 O 0.18107 0.6934 0.49401 0.0
C562 C 0.15492 0.63455 0.44762 0.0
C563 C 0.13208 0.6966 0.46259 0.0
C564 C 0.168 0.64408 0.51287 0.0
O565 O 0.173 0.64413 0.44906 0.0
O566 O 0.14058 0.64138 0.46057 0.0
O567 O 0.15059 0.65455 0.50957 0.0
O568 O 0.18172 0.64526 0.49772 0.0
C569 C 0.19578 0.69476 0.47977 0.0
O570 O 0.13016 0.68676 0.48057 0.0
O571 O 0.14888 0.69172 0.45195 0.0
In572 In 0.33221 0.15261 0.47459 0.0
O573 O 0.31029 0.12263 0.47834 0.0
O574 O 0.30713 0.14168 0.44976 0.0
C575 C 0.35376 0.14827 0.51261 0.0
C576 C 0.30753 0.18884 0.4789 0.0
C577 C 0.36554 0.14654 0.44629 0.0
O578 O 0.34076 0.13408 0.50553 0.0
O579 O 0.35575 0.16477 0.50062 0.0
O580 O 0.35921 0.16521 0.45197 0.0
O581 O 0.35512 0.13116 0.45483 0.0
C582 C 0.30084 0.1253 0.46033 0.0
O583 O 0.31865 0.18486 0.46213 0.0
O584 O 0.30914 0.17477 0.4937 0.0
In585 In 0.17315 0.33325 0.52955 0.0
O586 O 0.20292 0.31094 0.53392 0.0
O587 O 0.18502 0.30897 0.50445 0.0
C588 C 0.17719 0.3629 0.56174 0.0
C589 C 0.13999 0.30821 0.54392 0.0
C590 C 0.17779 0.36071 0.49575 0.0
O591 O 0.19161 0.34883 0.55771 0.0
O592 O 0.1607 0.36195 0.54959 0.0
O593 O 0.15969 0.35191 0.50007 0.0
O594 O 0.19296 0.35594 0.50866 0.0
C595 C 0.20104 0.30236 0.51535 0.0
O596 O 0.13861 0.31884 0.52639 0.0
O597 O 0.15781 0.31031 0.55376 0.0
In598 In 0.67692 0.16046 0.52793 0.0
O599 O 0.6941 0.19313 0.53284 0.0
O600 O 0.69942 0.1756 0.50334 0.0
C601 C 0.64755 0.15525 0.5598 0.0
C602 C 0.70734 0.13229 0.54206 0.0
C603 C 0.64869 0.16444 0.49483 0.0
O604 O 0.65649 0.17343 0.55627 0.0
O605 O 0.65354 0.14004 0.54741 0.0
O606 O 0.6607 0.14776 0.49663 0.0
O607 O 0.65073 0.17824 0.50984 0.0
C608 C 0.70318 0.19248 0.51437 0.0
O609 O 0.69549 0.12804 0.52574 0.0
O610 O 0.70396 0.15063 0.5506 0.0
In611 In 0.32789 0.83926 0.53117 0.0
O612 O 0.31428 0.80476 0.53501 0.0
O613 O 0.3035 0.82441 0.50837 0.0
C614 C 0.36089 0.84618 0.5591 0.0
C615 C 0.2959 0.86125 0.55116 0.0
C616 C 0.34981 0.83827 0.49359 0.0
O617 O 0.35244 0.82757 0.55667 0.0
O618 O 0.35273 0.86095 0.54743 0.0
O619 O 0.3384 0.85469 0.49875 0.0
O620 O 0.35079 0.82344 0.50773 0.0
C621 C 0.30263 0.80634 0.51806 0.0
O622 O 0.30591 0.86948 0.53512 0.0
O623 O 0.30226 0.84257 0.55671 0.0
H624 H 0.10547 0.44941 0.28209 0.0
H625 H 0.15622 0.40251 0.29637 0.0
H626 H 0.1374 0.37524 0.27407 0.0
H627 H 0.06043 0.41105 0.2824 0.0
H628 H 0.04646 0.42383 0.26007 0.0
H629 H 0.06348 0.43979 0.27772 0.0
H630 H 0.08554 0.45307 0.24446 0.0
H631 H 0.06863 0.4371 0.22672 0.0
H632 H 0.09767 0.4334 0.22644 0.0
H633 H 0.11403 0.35321 0.25021 0.0
H634 H 0.08704 0.3372 0.22559 0.0
H635 H 0.05087 0.39782 0.22558 0.0
C636 C 0.11249 0.43334 0.28061 0.0
C637 C 0.1323 0.42807 0.29102 0.0
C638 C 0.14109 0.40694 0.28856 0.0
C639 C 0.13051 0.39131 0.27594 0.0
C640 C 0.11115 0.39701 0.26578 0.0
C641 C 0.10215 0.41746 0.2679 0.0
C642 C 0.08132 0.41927 0.25475 0.0
C643 C 0.06177 0.42375 0.26963 0.0
C644 C 0.08343 0.43675 0.23704 0.0
C645 C 0.08015 0.39665 0.24493 0.0
C646 C 0.09755 0.38416 0.25164 0.0
C647 C 0.1003 0.36279 0.24485 0.0
C648 C 0.08484 0.35385 0.23084 0.0
C649 C 0.06681 0.36623 0.22363 0.0
C650 C 0.06447 0.38796 0.2308 0.0
H651 H 0.60835 0.05374 0.21919 0.0
H652 H 0.66507 0.09556 0.21625 0.0
H653 H 0.64862 0.11989 0.24328 0.0
H654 H 0.56894 0.0969 0.22452 0.0
H655 H 0.55176 0.08235 0.24323 0.0
H656 H 0.568 0.06764 0.22383 0.0
H657 H 0.58557 0.04565 0.25509 0.0
H658 H 0.56941 0.06034 0.2746 0.0
H659 H 0.59857 0.05986 0.27714 0.0
H660 H 0.62659 0.14002 0.26986 0.0
H661 H 0.59946 0.15556 0.29468 0.0
H662 H 0.55619 0.10146 0.28146 0.0
C663 C 0.61727 0.068 0.2243 0.0
C664 C 0.63803 0.07272 0.21558 0.0
C665 C 0.64917 0.09157 0.22264 0.0
C666 C 0.63998 0.10552 0.23804 0.0
C667 C 0.61959 0.10047 0.24631 0.0
C668 C 0.60827 0.08224 0.23976 0.0
C669 C 0.5864 0.08101 0.25119 0.0
C670 C 0.56767 0.08204 0.23471 0.0
C671 C 0.58491 0.0605 0.26535 0.0
C672 C 0.58728 0.10142 0.26507 0.0
C673 C 0.60665 0.11228 0.26193 0.0
C674 C 0.61136 0.13167 0.27251 0.0
C675 C 0.5958 0.14037 0.28659 0.0
C676 C 0.5757 0.12974 0.29006 0.0
C677 C 0.57146 0.10988 0.27923 0.0
H678 H 0.91973 0.62959 0.22104 0.0
H679 H 0.97983 0.59273 0.21969 0.0
H680 H 0.9635 0.56524 0.24392 0.0
H681 H 0.90716 0.61972 0.27724 0.0
H682 H 0.87832 0.61767 0.27268 0.0
H683 H 0.89473 0.63429 0.25509 0.0
H684 H 0.8806 0.61295 0.22166 0.0
H685 H 0.86421 0.59621 0.23917 0.0
H686 H 0.88348 0.58382 0.22092 0.0
H687 H 0.94052 0.54167 0.26825 0.0
H688 H 0.91293 0.52443 0.29181 0.0
H689 H 0.86802 0.57684 0.27737 0.0
C690 C 0.92946 0.61575 0.22586 0.0
C691 C 0.95104 0.61327 0.21848 0.0
C692 C 0.96326 0.59495 0.22517 0.0
C693 C 0.95412 0.57923 0.23889 0.0
C694 C 0.93276 0.5821 0.2458 0.0
C695 C 0.92061 0.59993 0.23958 0.0
C696 C 0.8981 0.59929 0.24948 0.0
C697 C 0.89437 0.61891 0.26452 0.0
C698 C 0.88056 0.59798 0.23175 0.0
C699 C 0.8995 0.57832 0.26226 0.0
C700 C 0.91959 0.5686 0.25987 0.0
C701 C 0.92472 0.54913 0.27024 0.0
C702 C 0.90895 0.53944 0.28354 0.0
C703 C 0.88835 0.54927 0.28638 0.0
C704 C 0.88361 0.5689 0.27547 0.0
H705 H 0.41177 0.86828 0.27786 0.0
H706 H 0.46619 0.90997 0.29402 0.0
H707 H 0.45156 0.93835 0.26946 0.0
H708 H 0.40825 0.88236 0.22173 0.0
H709 H 0.37901 0.88132 0.2211 0.0
H710 H 0.39381 0.86463 0.24001 0.0
H711 H 0.37194 0.88122 0.27197 0.0
H712 H 0.35703 0.89794 0.25316 0.0
H713 H 0.37138 0.91029 0.27548 0.0
H714 H 0.43076 0.96192 0.24241 0.0
H715 H 0.40539 0.97881 0.21613 0.0
H716 H 0.36483 0.92127 0.2186 0.0
C717 C 0.42064 0.88338 0.27628 0.0
C718 C 0.44014 0.88695 0.2878 0.0
C719 C 0.45121 0.90694 0.28533 0.0
C720 C 0.44303 0.92311 0.27141 0.0
C721 C 0.42376 0.91899 0.26021 0.0
C722 C 0.41271 0.89962 0.2626 0.0
C723 C 0.39234 0.89908 0.2489 0.0
C724 C 0.39343 0.88077 0.23193 0.0
C725 C 0.37197 0.89702 0.26324 0.0
C726 C 0.39362 0.92118 0.23832 0.0
C727 C 0.41184 0.93247 0.24497 0.0
C728 C 0.41643 0.95323 0.23716 0.0
C729 C 0.40196 0.96267 0.22223 0.0
C730 C 0.38315 0.95135 0.21537 0.0
C731 C 0.37904 0.93036 0.22356 0.0
H732 H 0.1357 0.58294 0.7239 0.0
H733 H 0.09951 0.52271 0.71923 0.0
H734 H 0.07151 0.53783 0.74402 0.0
H735 H 0.12565 0.59266 0.78028 0.0
H736 H 0.1236 0.62169 0.77705 0.0
H737 H 0.14029 0.60609 0.75877 0.0
H738 H 0.11909 0.62168 0.7259 0.0
H739 H 0.10238 0.63737 0.74407 0.0
H740 H 0.08995 0.61899 0.72498 0.0
H741 H 0.04725 0.56037 0.76961 0.0
H742 H 0.02953 0.58776 0.79332 0.0
H743 H 0.08266 0.63232 0.7811 0.0
C744 C 0.12186 0.57289 0.728 0.0
C745 C 0.11974 0.55166 0.71957 0.0
C746 C 0.10143 0.53905 0.72546 0.0
C747 C 0.08548 0.5475 0.73954 0.0
C748 C 0.08815 0.56854 0.74762 0.0
C749 C 0.10595 0.581 0.74202 0.0
C750 C 0.10531 0.60303 0.75291 0.0
C751 C 0.12487 0.60603 0.76816 0.0
C752 C 0.10411 0.62134 0.73595 0.0
C753 C 0.08434 0.60113 0.76554 0.0
C754 C 0.07457 0.58118 0.76232 0.0
C755 C 0.05484 0.576 0.77225 0.0
C756 C 0.04489 0.59163 0.7857 0.0
C757 C 0.05473 0.61214 0.78914 0.0
C758 C 0.07474 0.61677 0.77892 0.0
H759 H 0.37027 0.08299 0.7766 0.0
H760 H 0.41687 0.03461 0.79801 0.0
H761 H 0.44515 0.05196 0.77523 0.0
H762 H 0.38854 0.08645 0.72156 0.0
H763 H 0.3839 0.1153 0.71963 0.0
H764 H 0.36765 0.0991 0.73774 0.0
H765 H 0.37859 0.12396 0.76992 0.0
H766 H 0.39493 0.14021 0.75192 0.0
H767 H 0.40695 0.12824 0.77578 0.0
H768 H 0.46816 0.07477 0.74977 0.0
H769 H 0.4839 0.10073 0.72345 0.0
H770 H 0.42185 0.13392 0.71919 0.0
C771 C 0.38642 0.076 0.77652 0.0
C772 C 0.39142 0.05745 0.78904 0.0
C773 C 0.41273 0.04882 0.7885 0.0
C774 C 0.42887 0.05858 0.77565 0.0
C775 C 0.42337 0.07691 0.76351 0.0
C776 C 0.40263 0.0855 0.76386 0.0
C777 C 0.40076 0.1052 0.7493 0.0
C778 C 0.38424 0.10127 0.73097 0.0
C779 C 0.39497 0.12561 0.76252 0.0
C780 C 0.42368 0.10637 0.74059 0.0
C781 C 0.43652 0.08996 0.74899 0.0
C782 C 0.45826 0.08769 0.74313 0.0
C783 C 0.46705 0.10251 0.7282 0.0
C784 C 0.45409 0.11933 0.71933 0.0
C785 C 0.43218 0.12127 0.72574 0.0
H786 H 0.86962 0.42864 0.72742 0.0
H787 H 0.91293 0.48305 0.71619 0.0
H788 H 0.9397 0.46677 0.74149 0.0
H789 H 0.88138 0.42137 0.78433 0.0
H790 H 0.87979 0.39218 0.78282 0.0
H791 H 0.86402 0.40864 0.76449 0.0
H792 H 0.88126 0.38866 0.73166 0.0
H793 H 0.89714 0.37219 0.74986 0.0
H794 H 0.91041 0.38784 0.72899 0.0
H795 H 0.96191 0.44378 0.76779 0.0
H796 H 0.97766 0.41613 0.79243 0.0
H797 H 0.91955 0.37695 0.78534 0.0
C798 C 0.88466 0.43726 0.73038 0.0
C799 C 0.8892 0.45715 0.71994 0.0
C800 C 0.90913 0.46781 0.7241 0.0
C801 C 0.9244 0.45869 0.73842 0.0
C802 C 0.91944 0.43892 0.74834 0.0
C803 C 0.90003 0.42837 0.74446 0.0
C804 C 0.8987 0.40709 0.75663 0.0
C805 C 0.87986 0.40735 0.77304 0.0
C806 C 0.89677 0.38781 0.74084 0.0
C807 C 0.92045 0.40721 0.76798 0.0
C808 C 0.9322 0.4257 0.7631 0.0
C809 C 0.95283 0.42926 0.77172 0.0
C810 C 0.96164 0.41349 0.78568 0.0
C811 C 0.94983 0.39442 0.79074 0.0
C812 C 0.92899 0.39135 0.78174 0.0
H813 H 0.5967 0.95034 0.78329 0.0
H814 H 0.66122 0.92487 0.77033 0.0
H815 H 0.64604 0.89979 0.7433 0.0
H816 H 0.56903 0.89967 0.77953 0.0
H817 H 0.54522 0.91027 0.7662 0.0
H818 H 0.561 0.92752 0.78377 0.0
H819 H 0.56567 0.95531 0.75256 0.0
H820 H 0.54981 0.93818 0.73491 0.0
H821 H 0.57672 0.94645 0.72692 0.0
H822 H 0.62451 0.87605 0.71964 0.0
H823 H 0.59741 0.85524 0.69908 0.0
H824 H 0.54597 0.89543 0.72591 0.0
C825 C 0.6076 0.93968 0.7745 0.0
C826 C 0.63018 0.93961 0.77892 0.0
C827 C 0.6439 0.92525 0.76728 0.0
C828 C 0.63544 0.91092 0.75185 0.0
C829 C 0.61318 0.9111 0.7481 0.0
C830 C 0.59937 0.92512 0.75892 0.0
C831 C 0.57595 0.92125 0.75206 0.0
C832 C 0.56198 0.91426 0.77155 0.0
C833 C 0.56648 0.94151 0.74095 0.0
C834 C 0.57885 0.90272 0.73597 0.0
C835 C 0.60053 0.89725 0.73402 0.0
C836 C 0.60749 0.88027 0.72085 0.0
C837 C 0.59192 0.86849 0.70929 0.0
C838 C 0.56957 0.87371 0.71082 0.0
C839 C 0.56296 0.89118 0.72429 0.0
H840 H 0.21375 0.08389 0.37452 0.0
H841 H 0.20728 0.02468 0.41215 0.0
H842 H 0.23326 0.03927 0.43928 0.0
H843 H 0.27039 0.09056 0.38253 0.0
H844 H 0.26904 0.11977 0.38393 0.0
H845 H 0.24921 0.10499 0.36835 0.0
H846 H 0.21823 0.12314 0.39038 0.0
H847 H 0.23797 0.138 0.40603 0.0
H848 H 0.21825 0.12116 0.4196 0.0
H849 H 0.26075 0.06067 0.46199 0.0
H850 H 0.28779 0.08619 0.47741 0.0
H851 H 0.27623 0.13051 0.42388 0.0
C852 C 0.21762 0.07401 0.38856 0.0
C853 C 0.20841 0.05319 0.39132 0.0
C854 C 0.21411 0.04072 0.40978 0.0
C855 C 0.22882 0.04888 0.42526 0.0
C856 C 0.23769 0.06949 0.42194 0.0
C857 C 0.23229 0.08182 0.40398 0.0
C858 C 0.24452 0.10311 0.40361 0.0
C859 C 0.25916 0.10468 0.38341 0.0
C860 C 0.2288 0.12249 0.405 0.0
C861 C 0.25778 0.10088 0.42414 0.0
C862 C 0.25357 0.08148 0.43463 0.0
C863 C 0.26412 0.07591 0.4539 0.0
C864 C 0.27942 0.09049 0.46255 0.0
C865 C 0.28411 0.1103 0.45183 0.0
C866 C 0.27302 0.11549 0.43245 0.0
H867 H 0.91194 0.29867 0.44771 0.0
H868 H 0.87348 0.25598 0.48848 0.0
H869 H 0.89298 0.22429 0.47365 0.0
H870 H 0.91097 0.26696 0.40212 0.0
H871 H 0.93836 0.27232 0.3933 0.0
H872 H 0.92422 0.29197 0.40964 0.0
H873 H 0.95524 0.2911 0.43803 0.0
H874 H 0.96963 0.27152 0.42165 0.0
H875 H 0.96351 0.26552 0.44965 0.0
H876 H 0.9112 0.1973 0.44983 0.0
H877 H 0.92941 0.17679 0.42043 0.0
H878 H 0.95801 0.23632 0.39635 0.0
C879 C 0.90816 0.28271 0.45405 0.0
C880 C 0.89128 0.27979 0.46935 0.0
C881 C 0.88645 0.25862 0.47689 0.0
C882 C 0.89745 0.2405 0.46857 0.0
C883 C 0.91346 0.24383 0.45292 0.0
C884 C 0.9191 0.26442 0.44597 0.0
C885 C 0.93557 0.26338 0.42767 0.0
C886 C 0.92674 0.2743 0.40697 0.0
C887 C 0.95728 0.27348 0.43467 0.0
C888 C 0.93762 0.239 0.42482 0.0
C889 C 0.92477 0.22804 0.43965 0.0
C890 C 0.92187 0.20561 0.4386 0.0
C891 C 0.93219 0.19411 0.42188 0.0
C892 C 0.9455 0.20499 0.40669 0.0
C893 C 0.94855 0.22763 0.40837 0.0
H894 H 0.71183 0.86349 0.41603 0.0
H895 H 0.69958 0.90421 0.47224 0.0
H896 H 0.72479 0.93191 0.45746 0.0
H897 H 0.7684 0.87471 0.41211 0.0
H898 H 0.76878 0.87423 0.38284 0.0
H899 H 0.74909 0.85831 0.39744 0.0
H900 H 0.71798 0.87708 0.37616 0.0
H901 H 0.73758 0.89306 0.36148 0.0
H902 H 0.71603 0.9063 0.37626 0.0
H903 H 0.75171 0.95498 0.43625 0.0
H904 H 0.77893 0.97085 0.41134 0.0
H905 H 0.77403 0.9141 0.36983 0.0
C906 C 0.71429 0.87831 0.42518 0.0
C907 C 0.70365 0.88181 0.44522 0.0
C908 C 0.70753 0.90127 0.45682 0.0
C909 C 0.72178 0.91707 0.44853 0.0
C910 C 0.73207 0.91304 0.42872 0.0
C911 C 0.72854 0.89407 0.41727 0.0
C912 C 0.74208 0.89322 0.39677 0.0
C913 C 0.75803 0.87398 0.39733 0.0
C914 C 0.72755 0.89237 0.37647 0.0
C915 C 0.75387 0.91469 0.39841 0.0
C916 C 0.7478 0.92598 0.41687 0.0
C917 C 0.75656 0.94626 0.42178 0.0
C918 C 0.77199 0.95515 0.40752 0.0
C919 C 0.77861 0.94369 0.38868 0.0
C920 C 0.76933 0.92323 0.38412 0.0
H921 H 0.08502 0.78058 0.37606 0.0
H922 H 0.02557 0.78322 0.41379 0.0
H923 H 0.0416 0.75797 0.44068 0.0
H924 H 0.0956 0.724 0.38434 0.0
H925 H 0.12463 0.7274 0.38586 0.0
H926 H 0.10854 0.74604 0.37008 0.0
H927 H 0.12437 0.77834 0.39196 0.0
H928 H 0.14047 0.75978 0.40785 0.0
H929 H 0.12219 0.7784 0.42116 0.0
H930 H 0.06461 0.73206 0.46357 0.0
H931 H 0.09193 0.70703 0.47944 0.0
H932 H 0.13564 0.72134 0.42606 0.0
C933 C 0.07538 0.7759 0.39 0.0
C934 C 0.05406 0.78391 0.39286 0.0
C935 C 0.04194 0.77729 0.41127 0.0
C936 C 0.05093 0.76298 0.42665 0.0
C937 C 0.07203 0.75539 0.42335 0.0
C938 C 0.08404 0.76159 0.4054 0.0
C939 C 0.10614 0.75083 0.40528 0.0
C940 C 0.10888 0.7362 0.3852 0.0
C941 C 0.12436 0.76785 0.40665 0.0
C942 C 0.10474 0.73756 0.42593 0.0
C943 C 0.08501 0.74044 0.43624 0.0
C944 C 0.08011 0.72971 0.45561 0.0
C945 C 0.09571 0.71556 0.46453 0.0
C946 C 0.11588 0.71222 0.454 0.0
C947 C 0.12036 0.72352 0.43452 0.0
H948 H 0.22715 0.95842 0.6054 0.0
H949 H 0.1921 0.90758 0.63951 0.0
H950 H 0.21229 0.87987 0.61924 0.0
H951 H 0.23082 0.92992 0.55282 0.0
H952 H 0.258 0.93923 0.54724 0.0
H953 H 0.2399 0.95568 0.56335 0.0
H954 H 0.26818 0.9565 0.59447 0.0
H955 H 0.28636 0.94009 0.57845 0.0
H956 H 0.27845 0.93127 0.60522 0.0
H957 H 0.23674 0.85759 0.59756 0.0
H958 H 0.26543 0.84117 0.57526 0.0
H959 H 0.28584 0.90524 0.55398 0.0
C960 C 0.22364 0.94145 0.60837 0.0
C961 C 0.208 0.93519 0.62404 0.0
C962 C 0.204 0.91282 0.62766 0.0
C963 C 0.21533 0.8969 0.61616 0.0
C964 C 0.23069 0.90351 0.60101 0.0
C965 C 0.23498 0.92516 0.597 0.0
C966 C 0.25318 0.92744 0.58042 0.0
C967 C 0.24498 0.93874 0.55973 0.0
C968 C 0.2727 0.93954 0.59023 0.0
C969 C 0.25854 0.9037 0.57612 0.0
C970 C 0.24516 0.89031 0.58816 0.0
C971 C 0.24724 0.86784 0.5879 0.0
C972 C 0.26365 0.85868 0.57521 0.0
C973 C 0.27782 0.87191 0.56285 0.0
C974 C 0.27505 0.89475 0.56306 0.0
H975 H 0.08632 0.23252 0.63295 0.0
H976 H 0.03474 0.21692 0.58761 0.0
H977 H 0.05109 0.24221 0.56067 0.0
H978 H 0.09057 0.28943 0.61936 0.0
H979 H 0.11961 0.28972 0.62296 0.0
H980 H 0.10317 0.27112 0.63841 0.0
H981 H 0.12611 0.23881 0.62404 0.0
H982 H 0.14259 0.25728 0.60855 0.0
H983 H 0.12911 0.23503 0.59515 0.0
H984 H 0.07463 0.26925 0.5384 0.0
H985 H 0.10263 0.29414 0.5234 0.0
H986 H 0.13791 0.2906 0.58424 0.0
C987 C 0.07833 0.2344 0.61739 0.0
C988 C 0.05927 0.22271 0.61234 0.0
C989 C 0.04935 0.22575 0.59181 0.0
C990 C 0.05852 0.24008 0.57645 0.0
C991 C 0.07749 0.25127 0.582 0.0
C992 C 0.08715 0.24854 0.60208 0.0
C993 C 0.10756 0.26194 0.60428 0.0
C994 C 0.10507 0.27907 0.62232 0.0
C995 C 0.12751 0.24739 0.60822 0.0
C996 C 0.10829 0.27239 0.58213 0.0
C997 C 0.09077 0.26633 0.56946 0.0
C998 C 0.08834 0.27408 0.54827 0.0
C999 C 0.10428 0.28822 0.53988 0.0
C1000 C 0.12247 0.29423 0.55263 0.0
C1001 C 0.12427 0.28625 0.57403 0.0
H1002 H 0.79245 0.09282 0.63068 0.0
H1003 H 0.79416 0.02989 0.59904 0.0
H1004 H 0.76914 0.04368 0.57061 0.0
H1005 H 0.73659 0.10335 0.62198 0.0
H1006 H 0.74029 0.13206 0.6176 0.0
H1007 H 0.759 0.11734 0.63457 0.0
H1008 H 0.79113 0.13051 0.61076 0.0
H1009 H 0.77251 0.14528 0.5937 0.0
H1010 H 0.79066 0.12555 0.5819 0.0
H1011 H 0.74249 0.0647 0.54621 0.0
H1012 H 0.71699 0.09058 0.52869 0.0
H1013 H 0.73355 0.13914 0.57698 0.0
C1014 C 0.78773 0.08194 0.61769 0.0
C1015 C 0.7953 0.06029 0.61703 0.0
C1016 C 0.7886 0.04657 0.59982 0.0
C1017 C 0.77441 0.05427 0.58361 0.0
C1018 C 0.76713 0.07573 0.58486 0.0
C1019 C 0.77365 0.08933 0.6015 0.0
C1020 C 0.76318 0.11148 0.59968 0.0
C1021 C 0.74892 0.11633 0.61964 0.0
C1022 C 0.7804 0.12925 0.5963 0.0
C1023 C 0.74958 0.10827 0.5795 0.0
C1024 C 0.75204 0.08762 0.57106 0.0
C1025 C 0.74057 0.08095 0.55266 0.0
C1026 C 0.72614 0.09574 0.5428 0.0
C1027 C 0.72333 0.11689 0.55141 0.0
C1028 C 0.73538 0.12314 0.5699 0.0
H1029 H 0.86811 0.72582 0.57916 0.0
H1030 H 0.91095 0.71799 0.52371 0.0
H1031 H 0.93577 0.74559 0.53915 0.0
H1032 H 0.87486 0.78359 0.58542 0.0
H1033 H 0.87424 0.78259 0.61468 0.0
H1034 H 0.85977 0.76254 0.59905 0.0
H1035 H 0.88052 0.7318 0.61901 0.0
H1036 H 0.89498 0.75175 0.63474 0.0
H1037 H 0.9098 0.73191 0.6191 0.0
H1038 H 0.956 0.77378 0.56099 0.0
H1039 H 0.97065 0.79967 0.58794 0.0
H1040 H 0.91442 0.78874 0.62902 0.0
C1041 C 0.8827 0.72993 0.57022 0.0
C1042 C 0.88764 0.71982 0.55022 0.0
C1043 C 0.90689 0.72557 0.53907 0.0
C1044 C 0.92104 0.74124 0.54768 0.0
C1045 C 0.91565 0.75093 0.56744 0.0
C1046 C 0.89696 0.74545 0.57859 0.0
C1047 C 0.89506 0.75793 0.59969 0.0
C1048 C 0.87478 0.77253 0.5997 0.0
C1049 C 0.8951 0.74242 0.61929 0.0
C1050 C 0.91566 0.77125 0.59876 0.0
C1051 C 0.92728 0.76706 0.58 0.0
C1052 C 0.94702 0.77723 0.5757 0.0
C1053 C 0.95518 0.79192 0.59109 0.0
C1054 C 0.94364 0.79623 0.61053 0.0
C1055 C 0.92356 0.78585 0.61426 0.0
H1056 H 0.42512 0.28299 0.12694 0.0
H1057 H 0.48 0.29285 0.08385 0.0
H1058 H 0.46255 0.26932 0.05631 0.0
H1059 H 0.41686 0.22712 0.11438 0.0
H1060 H 0.38768 0.22875 0.11607 0.0
H1061 H 0.40422 0.24693 0.13188 0.0
H1062 H 0.38439 0.27995 0.11483 0.0
H1063 H 0.36779 0.26186 0.09895 0.0
H1064 H 0.38347 0.28271 0.08569 0.0
H1065 H 0.43904 0.24407 0.03371 0.0
H1066 H 0.41182 0.21874 0.01837 0.0
H1067 H 0.37293 0.22555 0.07677 0.0
C1068 C 0.43343 0.28031 0.11167 0.0
C1069 C 0.45387 0.28977 0.10747 0.0
C1070 C 0.4643 0.28575 0.08736 0.0
C1071 C 0.45451 0.27245 0.07163 0.0
C1072 C 0.43434 0.26331 0.07632 0.0
C1073 C 0.42396 0.26706 0.09588 0.0
C1074 C 0.40265 0.25495 0.09722 0.0
C1075 C 0.40288 0.23846 0.11599 0.0
C1076 C 0.38344 0.27082 0.09929 0.0
C1077 C 0.40266 0.2437 0.07539 0.0
C1078 C 0.421 0.24876 0.06349 0.0
C1079 C 0.4246 0.24004 0.04287 0.0
C1080 C 0.40907 0.2257 0.03429 0.0
C1081 C 0.39029 0.22021 0.04637 0.0
C1082 C 0.38711 0.22946 0.06712 0.0
H1083 H 0.36548 0.7789 0.92787 0.0
H1084 H 0.41021 0.80118 0.9775 0.0
H1085 H 0.43867 0.77675 0.96249 0.0
H1086 H 0.38257 0.72306 0.92717 0.0
H1087 H 0.37895 0.72049 0.89823 0.0
H1088 H 0.36246 0.73931 0.9134 0.0
H1089 H 0.3749 0.77063 0.88815 0.0
H1090 H 0.39148 0.75194 0.87295 0.0
H1091 H 0.40351 0.77586 0.88477 0.0
H1092 H 0.46249 0.74999 0.94063 0.0
H1093 H 0.47876 0.72351 0.91491 0.0
H1094 H 0.41744 0.7197 0.88047 0.0
C1095 C 0.38122 0.77863 0.93572 0.0
C1096 C 0.38566 0.79193 0.95386 0.0
C1097 C 0.40648 0.79107 0.9636 0.0
C1098 C 0.4227 0.77727 0.95517 0.0
C1099 C 0.41775 0.76448 0.93707 0.0
C1100 C 0.39742 0.76507 0.92759 0.0
C1101 C 0.39599 0.75009 0.90821 0.0
C1102 C 0.37899 0.73218 0.91199 0.0
C1103 C 0.39119 0.7629 0.88729 0.0
C1104 C 0.41873 0.74094 0.90809 0.0
C1105 C 0.43115 0.74935 0.9248 0.0
C1106 C 0.45283 0.74329 0.92756 0.0
C1107 C 0.46195 0.72828 0.91289 0.0
C1108 C 0.44935 0.71954 0.89573 0.0
C1109 C 0.4275 0.72603 0.89344 0.0
H1110 H 0.27396 0.42384 0.88364 0.0
H1111 H 0.2857 0.47521 0.93042 0.0
H1112 H 0.26094 0.45709 0.95643 0.0
H1113 H 0.21705 0.41599 0.896 0.0
H1114 H 0.21837 0.38697 0.8923 0.0
H1115 H 0.2365 0.40441 0.87739 0.0
H1116 H 0.26948 0.38306 0.89253 0.0
H1117 H 0.25147 0.36563 0.90758 0.0
H1118 H 0.27269 0.3802 0.9215 0.0
H1119 H 0.23542 0.43244 0.97772 0.0
H1120 H 0.21074 0.40402 0.99193 0.0
H1121 H 0.21613 0.36916 0.9309 0.0
C1122 C 0.27121 0.43139 0.89929 0.0
C1123 C 0.28171 0.45097 0.90501 0.0
C1124 C 0.27776 0.46025 0.92569 0.0
C1125 C 0.26376 0.45006 0.94057 0.0
C1126 C 0.25383 0.43062 0.93449 0.0
C1127 C 0.25734 0.42146 0.91428 0.0
C1128 C 0.24497 0.40038 0.91173 0.0
C1129 C 0.22823 0.40205 0.89326 0.0
C1130 C 0.26059 0.38119 0.90813 0.0
C1131 C 0.234 0.39901 0.93368 0.0
C1132 C 0.23928 0.41658 0.94662 0.0
C1133 C 0.23115 0.41866 0.96768 0.0
C1134 C 0.21718 0.40243 0.97563 0.0
C1135 C 0.21152 0.38439 0.96254 0.0
C1136 C 0.22013 0.38275 0.94132 0.0
H1137 H 0.59875 0.22219 0.94713 0.0
H1138 H 0.66208 0.23282 0.91789 0.0
H1139 H 0.64652 0.26055 0.89393 0.0
H1140 H 0.56826 0.22758 0.89795 0.0
H1141 H 0.54567 0.24177 0.91005 0.0
H1142 H 0.56169 0.22334 0.92617 0.0
H1143 H 0.56923 0.25399 0.95397 0.0
H1144 H 0.55316 0.2725 0.93796 0.0
H1145 H 0.58082 0.27925 0.94476 0.0
H1146 H 0.62479 0.28558 0.87198 0.0
H1147 H 0.59749 0.30777 0.85317 0.0
H1148 H 0.54728 0.28226 0.89566 0.0
C1149 C 0.60931 0.23058 0.93585 0.0
C1150 C 0.63167 0.22529 0.93442 0.0
C1151 C 0.64493 0.23647 0.91929 0.0
C1152 C 0.63626 0.25233 0.90559 0.0
C1153 C 0.61423 0.25696 0.90711 0.0
C1154 C 0.60085 0.24657 0.92183 0.0
C1155 C 0.57754 0.25446 0.91939 0.0
C1156 C 0.5624 0.23567 0.91301 0.0
C1157 C 0.56973 0.26572 0.94026 0.0
C1158 C 0.58005 0.27065 0.90088 0.0
C1159 C 0.60143 0.27176 0.8942 0.0
C1160 C 0.60799 0.285 0.87711 0.0
C1161 C 0.59232 0.29751 0.86649 0.0
C1162 C 0.57025 0.29681 0.87293 0.0
C1163 C 0.56405 0.28322 0.89045 0.0
H1164 H 0.72641 0.58397 0.86893 0.0
H1165 H 0.70736 0.53306 0.91373 0.0
H1166 H 0.73159 0.54888 0.94177 0.0
H1167 H 0.78241 0.58714 0.88482 0.0
H1168 H 0.78367 0.61622 0.88167 0.0
H1169 H 0.76512 0.60057 0.86537 0.0
H1170 H 0.73306 0.62423 0.87902 0.0
H1171 H 0.75149 0.63994 0.89539 0.0
H1172 H 0.7284 0.62694 0.90781 0.0
H1173 H 0.75819 0.57092 0.96494 0.0
H1174 H 0.78426 0.59704 0.98101 0.0
H1175 H 0.78491 0.63327 0.92059 0.0
C1176 C 0.72735 0.57605 0.8846 0.0
C1177 C 0.71504 0.55724 0.88915 0.0
C1178 C 0.71669 0.54746 0.9099 0.0
C1179 C 0.73039 0.55634 0.92591 0.0
C1180 C 0.74226 0.57499 0.92086 0.0
C1181 C 0.74081 0.5847 0.90067 0.0
C1182 C 0.75494 0.60473 0.89924 0.0
C1183 C 0.77258 0.60199 0.88174 0.0
C1184 C 0.74114 0.62516 0.89513 0.0
C1185 C 0.76464 0.60487 0.92179 0.0
C1186 C 0.75722 0.58761 0.93407 0.0
C1187 C 0.76407 0.58448 0.95544 0.0
C1188 C 0.77887 0.59938 0.96443 0.0
C1189 C 0.78658 0.61718 0.95206 0.0
C1190 C 0.7793 0.61986 0.93049 0.0
H1191 H 0.58478 0.71575 0.12759 0.0
H1192 H 0.52557 0.71427 0.08943 0.0
H1193 H 0.54189 0.74006 0.06325 0.0
H1194 H 0.59538 0.77233 0.12096 0.0
H1195 H 0.62443 0.76903 0.1195 0.0
H1196 H 0.60833 0.7499 0.13464 0.0
H1197 H 0.62438 0.71829 0.1119 0.0
H1198 H 0.64053 0.73733 0.09668 0.0
H1199 H 0.62241 0.7191 0.0827 0.0
H1200 H 0.56483 0.76642 0.04142 0.0
H1201 H 0.59199 0.79194 0.0264 0.0
H1202 H 0.6357 0.77645 0.07947 0.0
C1203 C 0.57527 0.72074 0.11366 0.0
C1204 C 0.55393 0.71295 0.11047 0.0
C1205 C 0.54196 0.72002 0.09215 0.0
C1206 C 0.55111 0.73463 0.07719 0.0
C1207 C 0.5722 0.74205 0.08086 0.0
C1208 C 0.58408 0.73537 0.09869 0.0
C1209 C 0.60617 0.74615 0.09929 0.0
C1210 C 0.60871 0.76019 0.11981 0.0
C1211 C 0.62445 0.7292 0.09753 0.0
C1212 C 0.60486 0.76003 0.07904 0.0
C1213 C 0.5852 0.75736 0.06854 0.0
C1214 C 0.58028 0.76861 0.04951 0.0
C1215 C 0.5958 0.78304 0.04109 0.0
C1216 C 0.61593 0.78618 0.05177 0.0
C1217 C 0.62046 0.7744 0.07093 0.0
H1218 H 0.22717 0.63313 0.07188 0.0
H1219 H 0.21071 0.58999 0.01865 0.0
H1220 H 0.23623 0.56246 0.03324 0.0
H1221 H 0.28423 0.61929 0.07515 0.0
H1222 H 0.28483 0.62109 0.10437 0.0
H1223 H 0.26599 0.63748 0.08912 0.0
H1224 H 0.23403 0.62164 0.11147 0.0
H1225 H 0.25275 0.60517 0.12674 0.0
H1226 H 0.23035 0.59262 0.11268 0.0
H1227 H 0.26297 0.53924 0.05468 0.0
H1228 H 0.28845 0.52247 0.08088 0.0
H1229 H 0.28675 0.58115 0.11987 0.0
C1230 C 0.22904 0.61798 0.06315 0.0
C1231 C 0.21702 0.61371 0.04408 0.0
C1232 C 0.21983 0.59361 0.03325 0.0
C1233 C 0.23427 0.5779 0.04142 0.0
C1234 C 0.24574 0.58259 0.06041 0.0
C1235 C 0.24328 0.60219 0.07108 0.0
C1236 C 0.25698 0.60314 0.09146 0.0
C1237 C 0.27402 0.62133 0.08992 0.0
C1238 C 0.24267 0.60579 0.11178 0.0
C1239 C 0.2675 0.58095 0.09073 0.0
C1240 C 0.2609 0.56932 0.07268 0.0
C1241 C 0.26829 0.54825 0.0688 0.0
C1242 C 0.28274 0.53886 0.08377 0.0
C1243 C 0.28959 0.55051 0.10239 0.0
C1244 C 0.28186 0.57184 0.10577 0.0
H1245 H 0.70792 0.44825 0.0911 0.0
H1246 H 0.75214 0.46874 0.14187 0.0
H1247 H 0.78283 0.45273 0.12174 0.0
H1248 H 0.73038 0.39773 0.08423 0.0
H1249 H 0.7271 0.3959 0.0552 0.0
H1250 H 0.70915 0.41283 0.07085 0.0
H1251 H 0.71928 0.44601 0.0471 0.0
H1252 H 0.7372 0.42911 0.03121 0.0
H1253 H 0.74742 0.45343 0.04391 0.0
H1254 H 0.80723 0.42985 0.10029 0.0
H1255 H 0.82452 0.4014 0.07802 0.0
H1256 H 0.76558 0.39477 0.04018 0.0
C1257 C 0.72423 0.45011 0.09741 0.0
C1258 C 0.72784 0.46008 0.11778 0.0
C1259 C 0.74917 0.46141 0.12614 0.0
C1260 C 0.76669 0.45241 0.1148 0.0
C1261 C 0.76261 0.44201 0.09513 0.0
C1262 C 0.74197 0.44085 0.08636 0.0
C1263 C 0.7418 0.42635 0.06634 0.0
C1264 C 0.72619 0.40707 0.06935 0.0
C1265 C 0.73609 0.43952 0.04593 0.0
C1266 C 0.76533 0.41889 0.06583 0.0
C1267 C 0.77703 0.42846 0.08246 0.0
C1268 C 0.79844 0.42268 0.08687 0.0
C1269 C 0.8081 0.40648 0.07421 0.0
C1270 C 0.79648 0.39633 0.05722 0.0
C1271 C 0.77496 0.40286 0.05266 0.0
H1272 H 0.97661 0.20322 0.28044 0.0
H1273 H 0.95389 0.24612 0.33146 0.0
H1274 H 0.95847 0.27767 0.3071 0.0
H1275 H 0.01852 0.23743 0.26325 0.0
H1276 H 0.01637 0.23113 0.23474 0.0
H1277 H 0.00807 0.21146 0.25469 0.0
H1278 H 0.96991 0.20939 0.23709 0.0
H1279 H 0.97816 0.22896 0.21695 0.0
H1280 H 0.9544 0.23395 0.23332 0.0
H1281 H 0.96782 0.3046 0.27858 0.0
H1282 H 0.983 0.32573 0.2482 0.0
H1283 H 0.0022 0.26593 0.21608 0.0
C1284 C 0.97197 0.21921 0.28614 0.0
C1285 C 0.96446 0.22233 0.3076 0.0
C1286 C 0.95939 0.24349 0.31495 0.0
C1287 C 0.96191 0.26146 0.30123 0.0
C1288 C 0.96983 0.25799 0.28032 0.0
C1289 C 0.9749 0.23744 0.27278 0.0
C1290 C 0.98529 0.23853 0.25044 0.0
C1291 C 0.00843 0.22908 0.25082 0.0
C1292 C 0.97109 0.22703 0.23345 0.0
C1293 C 0.98558 0.2629 0.24681 0.0
C1294 C 0.97624 0.27374 0.26412 0.0
C1295 C 0.97504 0.29631 0.26486 0.0
C1296 C 0.98374 0.30817 0.24752 0.0
C1297 C 0.99378 0.29749 0.22978 0.0
C1298 C 0.99457 0.27453 0.2294 0.0
H1299 H 0.76139 0.98675 0.30696 0.0
H1300 H 0.81991 0.97481 0.26957 0.0
H1301 H 0.80019 0.98415 0.23581 0.0
H1302 H 0.72401 0.96396 0.26723 0.0
H1303 H 0.70309 0.98369 0.27282 0.0
H1304 H 0.72182 0.97587 0.2939 0.0
H1305 H 0.73238 0.01623 0.29948 0.0
H1306 H 0.71376 0.02416 0.27837 0.0
H1307 H 0.74194 0.03187 0.27664 0.0
H1308 H 0.77462 0.99721 0.2065 0.0
H1309 H 0.74432 0.00997 0.1834 0.0
H1310 H 0.70191 0.01108 0.23966 0.0
C1311 C 0.77002 0.98601 0.29165 0.0
C1312 C 0.7922 0.98015 0.29084 0.0
C1313 C 0.80291 0.97921 0.27051 0.0
C1314 C 0.79186 0.98454 0.25128 0.0
C1315 C 0.77003 0.99045 0.25266 0.0
C1316 C 0.75915 0.99092 0.27229 0.0
C1317 C 0.73563 0.99757 0.26931 0.0
C1318 C 0.72023 0.97917 0.27622 0.0
C1319 C 0.73065 0.01871 0.28168 0.0
C1320 C 0.73505 1.00107 0.24497 0.0
C1321 C 0.7551 0.99705 0.23568 0.0
C1322 C 0.75879 1.00015 0.21356 0.0
C1323 C 0.74153 0.00746 0.20059 0.0
C1324 C 0.72077 0.01131 0.20973 0.0
C1325 C 0.71754 0.00797 0.2322 0.0
H1326 H 0.99605 0.69453 0.24331 0.0
H1327 H 0.97707 0.73595 0.18955 0.0
H1328 H 0.98383 0.76842 0.21225 0.0
H1329 H 0.9712 0.72736 0.28547 0.0
H1330 H 0.99246 0.72211 0.30489 0.0
H1331 H 0.98619 0.70222 0.28436 0.0
H1332 H 0.02632 0.70258 0.27167 0.0
H1333 H 0.03269 0.72252 0.2921 0.0
H1334 H 0.03872 0.72795 0.26396 0.0
H1335 H 0.99437 0.79632 0.24028 0.0
H1336 H 0.00528 0.8177 0.27245 0.0
H1337 H 0.01551 0.7581 0.30862 0.0
C1338 C 0.99328 0.71045 0.23634 0.0
C1339 C 0.98612 0.71277 0.21464 0.0
C1340 C 0.98252 0.73383 0.20614 0.0
C1341 C 0.98637 0.75234 0.21889 0.0
C1342 C 0.99356 0.74949 0.24018 0.0
C1343 C 0.99674 0.72907 0.24893 0.0
C1344 C 0.00418 0.73047 0.27236 0.0
C1345 C 0.98751 0.71992 0.28767 0.0
C1346 C 0.02682 0.72028 0.27518 0.0
C1347 C 0.00489 0.75488 0.27538 0.0
C1348 C 0.99886 0.76555 0.25657 0.0
C1349 C 0.99894 0.78814 0.25515 0.0
C1350 C 0.00522 0.80013 0.27348 0.0
C1351 C 0.01111 0.78955 0.29303 0.0
C1352 C 0.01089 0.76662 0.29395 0.0
H1353 H 0.21982 0.99247 0.29495 0.0
H1354 H 0.2159 0.06254 0.28856 0.0
H1355 H 0.24389 0.06145 0.2598 0.0
H1356 H 0.27735 0.98696 0.28578 0.0
H1357 H 0.27483 0.96236 0.27009 0.0
H1358 H 0.25499 0.9687 0.29065 0.0
H1359 H 0.22426 0.96557 0.26208 0.0
H1360 H 0.24401 0.95925 0.24142 0.0
H1361 H 0.22559 0.98171 0.23768 0.0
H1362 H 0.27297 0.05292 0.23271 0.0
H1363 H 0.29961 0.0373 0.2071 0.0
H1364 H 0.28297 0.97248 0.22915 0.0
C1365 C 0.22497 0.00757 0.28756 0.0
C1366 C 0.21588 0.02763 0.29404 0.0
C1367 C 0.22272 0.04703 0.28381 0.0
C1368 C 0.23862 0.04657 0.26752 0.0
C1369 C 0.24725 0.02654 0.26144 0.0
C1370 C 0.24054 0.00736 0.27097 0.0
C1371 C 0.25189 0.98796 0.26088 0.0
C1372 C 0.26558 0.97578 0.27786 0.0
C1373 C 0.23545 0.97273 0.24986 0.0
C1374 C 0.26614 0.99925 0.2443 0.0
C1375 C 0.26334 0.02152 0.24507 0.0
C1376 C 0.27519 0.0355 0.23184 0.0
C1377 C 0.2903 0.02649 0.21739 0.0
C1378 C 0.2932 0.00371 0.21608 0.0
C1379 C 0.28088 0.98994 0.22966 0.0
H1380 H 0.01332 0.73226 0.79079 0.0
H1381 H 0.01252 0.67516 0.74951 0.0
H1382 H 0.005 0.6983 0.71759 0.0
H1383 H 0.96851 0.75875 0.76421 0.0
H1384 H 0.97943 0.78574 0.76727 0.0
H1385 H 0.98617 0.76495 0.78672 0.0
H1386 H 0.02713 0.77145 0.77965 0.0
H1387 H 0.02051 0.79227 0.76018 0.0
H1388 H 0.03747 0.76973 0.7523 0.0
H1389 H 0.99853 0.72738 0.69021 0.0
H1390 H 0.99 0.76038 0.66918 0.0
H1391 H 0.99166 0.7987 0.72833 0.0
C1392 C 0.01176 0.72473 0.77497 0.0
C1393 C 0.01372 0.70199 0.77247 0.0
C1394 C 0.01112 0.69257 0.75167 0.0
C1395 C 0.00692 0.70558 0.73348 0.0
C1396 C 0.00497 0.72793 0.73644 0.0
C1397 C 0.00702 0.73745 0.75667 0.0
C1398 C 0.00291 0.76174 0.75546 0.0
C1399 C 0.98307 0.76817 0.76923 0.0
C1400 C 0.02322 0.77455 0.7623 0.0
C1401 C 0.99835 0.76436 0.73139 0.0
C1402 C 0.99995 0.74466 0.72073 0.0
C1403 C 0.99708 0.74288 0.69838 0.0
C1404 C 0.99231 0.76173 0.68657 0.0
C1405 C 0.99008 0.78203 0.69716 0.0
C1406 C 0.9931 0.78334 0.71988 0.0
H1407 H 0.23908 0.99446 0.69838 0.0
H1408 H 0.18478 0.97648 0.73952 0.0
H1409 H 0.2066 0.98528 0.77211 0.0
H1410 H 0.28122 0.97271 0.73319 0.0
H1411 H 0.29996 0.99433 0.72708 0.0
H1412 H 0.28005 0.98623 0.70725 0.0
H1413 H 0.26601 0.02589 0.70521 0.0
H1414 H 0.28574 0.03408 0.72517 0.0
H1415 H 0.25731 0.03937 0.72973 0.0
H1416 H 0.23416 0.99766 0.80017 0.0
H1417 H 0.26603 0.01006 0.82138 0.0
H1418 H 0.30216 0.01891 0.76153 0.0
C1419 C 0.23182 0.99222 0.71425 0.0
C1420 C 0.21025 0.9848 0.71646 0.0
C1421 C 0.20132 0.98207 0.73749 0.0
C1422 C 0.21356 0.9871 0.75607 0.0
C1423 C 0.23471 0.99468 0.7533 0.0
C1424 C 0.24382 0.997 0.7329 0.0
C1425 C 0.26688 0.00533 0.73427 0.0
C1426 C 0.28298 0.98865 0.7249 0.0
C1427 C 0.2691 0.02748 0.72292 0.0
C1428 C 0.26932 0.00746 0.75861 0.0
C1429 C 0.25058 1.00138 0.76935 0.0
C1430 C 0.24896 0.00235 0.79193 0.0
C1431 C 0.26707 0.00948 0.80383 0.0
C1432 C 0.28653 0.01538 0.79308 0.0
C1433 C 0.28753 0.01443 0.7702 0.0
H1434 H 0.99393 0.2298 0.70743 0.0
H1435 H 0.064 0.22922 0.71488 0.0
H1436 H 0.0612 0.25702 0.74363 0.0
H1437 H 0.98553 0.2871 0.71692 0.0
H1438 H 0.96095 0.28337 0.73237 0.0
H1439 H 0.96838 0.26395 0.71178 0.0
H1440 H 0.96642 0.23297 0.74018 0.0
H1441 H 0.959 0.2523 0.76086 0.0
H1442 H 0.98225 0.23492 0.76473 0.0
H1443 H 0.05116 0.28539 0.77055 0.0
H1444 H 0.03426 0.31108 0.79623 0.0
H1445 H 0.97035 0.29183 0.77363 0.0
C1446 C 0.00865 0.23567 0.71507 0.0
C1447 C 0.02921 0.22753 0.70888 0.0
C1448 C 0.04811 0.23527 0.71941 0.0
C1449 C 0.04669 0.25108 0.7357 0.0
C1450 C 0.02621 0.25874 0.7415 0.0
C1451 C 0.00749 0.25118 0.73172 0.0
C1452 C 0.98748 0.2616 0.74171 0.0
C1453 C 0.97484 0.27479 0.72468 0.0
C1454 C 0.97293 0.24442 0.75251 0.0
C1455 C 0.99795 0.2763 0.75848 0.0
C1456 C 0.02031 0.2745 0.75789 0.0
C1457 C 0.03366 0.28685 0.7713 0.0
C1458 C 0.02391 0.30142 0.78578 0.0
C1459 C 1.00103 0.30333 0.78697 0.0
C1460 C 0.98788 0.29052 0.77319 0.0
H1461 H 0.78614 0.99775 0.71642 0.0
H1462 H 0.78136 0.06799 0.71957 0.0
H1463 H 0.75306 0.06479 0.7479 0.0
H1464 H 0.7299 0.98577 0.72427 0.0
H1465 H 0.7347 0.96234 0.74114 0.0
H1466 H 0.75448 0.97016 0.72107 0.0
H1467 H 0.7841 0.97195 0.75089 0.0
H1468 H 0.76439 0.96419 0.77108 0.0
H1469 H 0.77982 0.98883 0.77444 0.0
H1470 H 0.72375 0.05394 0.77395 0.0
H1471 H 0.69696 0.03623 0.79801 0.0
H1472 H 0.72276 0.97307 0.78047 0.0
C1473 C 0.77908 0.01244 0.72307 0.0
C1474 C 0.78576 0.03314 0.71573 0.0
C1475 C 0.77642 0.052 0.72498 0.0
C1476 C 0.76035 0.05033 0.74105 0.0
C1477 C 0.75412 0.02969 0.74795 0.0
C1478 C 0.76335 0.01107 0.73946 0.0
C1479 C 0.75397 0.99089 0.75002 0.0
C1480 C 0.74258 0.97644 0.73312 0.0
C1481 C 0.77163 0.97822 0.76234 0.0
C1482 C 0.73777 1.00106 0.76554 0.0
C1483 C 0.73803 0.02347 0.76393 0.0
C1484 C 0.72362 0.03644 0.7756 0.0
C1485 C 0.70847 0.02626 0.78917 0.0
C1486 C 0.70808 0.00338 0.79127 0.0
C1487 C 0.72309 0.99063 0.77949 0.0
H1488 H 0.23223 0.29969 0.00996 0.0
H1489 H 0.18816 0.26167 0.97028 0.0
H1490 H 0.21047 0.22887 0.97705 0.0
H1491 H 0.28098 0.27379 0.99171 0.0
H1492 H 0.29405 0.2753 0.01786 0.0
H1493 H 0.27411 0.29532 0.01034 0.0
H1494 H 0.25211 0.28633 0.04511 0.0
H1495 H 0.27187 0.26609 0.0526 0.0
H1496 H 0.24366 0.25874 0.05006 0.0
H1497 H 0.23781 0.20018 0.98845 0.0
H1498 H 0.2697 0.17885 1.00053 0.0
H1499 H 0.29593 0.23621 0.03192 0.0
C1500 C 0.22725 0.28446 0.0027 0.0
C1501 C 0.20845 0.28316 0.98965 0.0
C1502 C 0.20256 0.263 0.98029 0.0
C1503 C 0.21504 0.24428 0.98416 0.0
C1504 C 0.23339 0.24608 0.99731 0.0
C1505 C 0.23959 0.26573 0.00623 0.0
C1506 C 0.26046 0.2636 0.01901 0.0
C1507 C 0.27846 0.27784 0.00913 0.0
C1508 C 0.25679 0.26901 0.04313 0.0
C1509 C 0.26514 0.23969 0.01583 0.0
C1510 C 0.24924 0.22977 0.00349 0.0
C1511 C 0.25033 0.20778 0.99816 0.0
C1512 C 0.26843 0.19577 0.00518 0.0
C1513 C 0.28523 0.20587 0.0172 0.0
C1514 C 0.28329 0.22801 0.02285 0.0
H1515 H 0.22811 0.71596 0.03472 0.0
H1516 H 0.19746 0.70793 0.97181 0.0
H1517 H 0.21961 0.73787 0.95703 0.0
H1518 H 0.23485 0.77487 0.03296 0.0
H1519 H 0.26135 0.77432 0.04537 0.0
H1520 H 0.24183 0.75346 0.05168 0.0
H1521 H 0.26947 0.72393 0.04001 0.0
H1522 H 0.28906 0.74468 0.03366 0.0
H1523 H 0.28137 0.72513 0.01327 0.0
H1524 H 0.24462 0.76842 0.94901 0.0
H1525 H 0.2738 0.79579 0.9471 0.0
H1526 H 0.29085 0.78235 0.01417 0.0
C1527 C 0.22595 0.72077 0.01793 0.0
C1528 C 0.211 0.7099 0.00438 0.0
C1529 C 0.20886 0.71616 0.98238 0.0
C1530 C 0.22127 0.73318 0.97389 0.0
C1531 C 0.23602 0.74351 0.98754 0.0
C1532 C 0.23867 0.73743 0.009 0.0
C1533 C 0.25686 0.75023 0.01959 0.0
C1534 C 0.2482 0.76404 0.03852 0.0
C1535 C 0.27528 0.73509 0.02707 0.0
C1536 C 0.26396 0.76437 1.00071 0.0
C1537 C 0.25144 0.76043 0.98251 0.0
C1538 C 0.2546 0.77162 0.96312 0.0
C1539 C 0.27116 0.78716 0.9622 0.0
C1540 C 0.28459 0.79107 0.98044 0.0
C1541 C 0.28089 0.77955 0.99995 0.0
H1542 H 0.78244 0.29689 0.99023 0.0
H1543 H 0.78411 0.28733 0.06 0.0
H1544 H 0.75731 0.25757 0.0565 0.0
H1545 H 0.72607 0.28645 0.98199 0.0
H1546 H 0.72986 0.27196 0.95683 0.0
H1547 H 0.74903 0.29252 0.96486 0.0
H1548 H 0.7804 0.26462 0.96166 0.0
H1549 H 0.76131 0.24396 0.95363 0.0
H1550 H 0.7789 0.23948 0.97659 0.0
H1551 H 0.72843 0.23089 0.04562 0.0
H1552 H 0.70174 0.20671 0.02787 0.0
H1553 H 0.72129 0.23104 0.96478 0.0
C1554 C 0.77712 0.28853 0.00476 0.0
C1555 C 0.78513 0.29449 0.02543 0.0
C1556 C 0.7781 0.283 0.04404 0.0
C1557 C 0.76289 0.26612 0.0422 0.0
C1558 C 0.75525 0.26068 0.02157 0.0
C1559 C 0.76234 0.27131 0.00314 0.0
C1560 C 0.75194 0.26194 0.98286 0.0
C1561 C 0.73842 0.27925 0.97094 0.0
C1562 C 0.76917 0.2519 0.9678 0.0
C1563 C 0.73757 0.2446 0.99279 0.0
C1564 C 0.7396 0.24432 0.01517 0.0
C1565 C 0.72697 0.23072 0.0281 0.0
C1566 C 0.71184 0.21712 0.01791 0.0
C1567 C 0.70976 0.21688 0.99502 0.0
C1568 C 0.72295 0.23063 0.98228 0.0
H1569 H 0.77602 0.72004 0.97002 0.0
H1570 H 0.80072 0.70638 0.03457 0.0
H1571 H 0.77727 0.73522 0.0497 0.0
H1572 H 0.77 0.77853 0.97611 0.0
H1573 H 0.74488 0.77964 0.96112 0.0
H1574 H 0.76463 0.75889 0.95505 0.0
H1575 H 0.73555 0.72918 0.96142 0.0
H1576 H 0.71572 0.74982 0.96744 0.0
H1577 H 0.72099 0.72853 0.98682 0.0
H1578 H 0.75124 0.76549 0.05788 0.0
H1579 H 0.72201 0.79298 0.05907 0.0
H1580 H 0.71238 0.78562 0.98963 0.0
C1581 C 0.7766 0.7233 0.98729 0.0
C1582 C 0.79029 0.71112 1.00113 0.0
C1583 C 0.79035 0.71554 0.0237 0.0
C1584 C 0.77716 0.73195 0.03243 0.0
C1585 C 0.76379 0.74363 0.0184 0.0
C1586 C 0.7632 0.73938 0.99636 0.0
C1587 C 0.74638 0.75344 0.98511 0.0
C1588 C 0.75712 0.76852 0.96836 0.0
C1589 C 0.72861 0.7394 0.97458 0.0
C1590 C 0.73759 0.76619 0.00428 0.0
C1591 C 0.74808 0.76048 0.02328 0.0
C1592 C 0.74288 0.77007 0.04312 0.0
C1593 C 0.7263 0.78571 0.04363 0.0
C1594 C 0.71491 0.7914 0.02447 0.0
C1595 C 0.72078 0.78157 0.00455 0.0
H1596 H 0.48845 0.7431 0.81267 0.0
H1597 H 0.46448 0.68906 0.77432 0.0
H1598 H 0.47135 0.70991 0.74071 0.0
H1599 H 0.46552 0.78598 0.77796 0.0
H1600 H 0.48842 0.80375 0.78196 0.0
H1601 H 0.48072 0.78489 0.80297 0.0
H1602 H 0.51966 0.76892 0.80284 0.0
H1603 H 0.52744 0.78758 0.78173 0.0
H1604 H 0.53098 0.75878 0.7778 0.0
H1605 H 0.48416 0.73516 0.71135 0.0
H1606 H 0.49831 0.76469 0.68815 0.0
H1607 H 0.51171 0.80338 0.74549 0.0
C1608 C 0.48438 0.73578 0.7972 0.0
C1609 C 0.47595 0.71446 0.79605 0.0
C1610 C 0.47084 0.70541 0.77555 0.0
C1611 C 0.47476 0.7171 0.75638 0.0
C1612 C 0.48347 0.73793 0.75805 0.0
C1613 C 0.48786 0.74735 0.77793 0.0
C1614 C 0.49724 0.76996 0.7752 0.0
C1615 C 0.48207 0.78716 0.78511 0.0
C1616 C 0.52019 0.77138 0.78497 0.0
C1617 C 0.49783 0.77161 0.75066 0.0
C1618 C 0.48996 0.75288 0.74109 0.0
C1619 C 0.49004 0.75003 0.71864 0.0
C1620 C 0.49821 0.76682 0.70562 0.0
C1621 C 0.50592 0.78632 0.71505 0.0
C1622 C 0.50562 0.78874 0.73786 0.0
H1623 H 0.27677 0.46919 0.80086 0.0
H1624 H 0.29717 0.53399 0.81948 0.0
H1625 H 0.27416 0.54964 0.79062 0.0
H1626 H 0.27272 0.47862 0.74263 0.0
H1627 H 0.24853 0.46246 0.73951 0.0
H1628 H 0.2677 0.45614 0.7607 0.0
H1629 H 0.23705 0.45913 0.78939 0.0
H1630 H 0.21781 0.4655 0.7683 0.0
H1631 H 0.22117 0.4837 0.79099 0.0
H1632 H 0.24939 0.55834 0.75964 0.0
H1633 H 0.22218 0.55974 0.73018 0.0
H1634 H 0.2154 0.48966 0.73321 0.0
C1635 C 0.27652 0.48664 0.79865 0.0
C1636 C 0.28886 0.50041 0.81223 0.0
C1637 C 0.28784 0.52318 0.8092 0.0
C1638 C 0.27488 0.53221 0.79282 0.0
C1639 C 0.26275 0.51827 0.7798 0.0
C1640 C 0.26324 0.49599 0.78263 0.0
C1641 C 0.24764 0.48483 0.76716 0.0
C1642 C 0.25988 0.46961 0.75158 0.0
C1643 C 0.22986 0.47257 0.77972 0.0
C1644 C 0.23837 0.50431 0.75523 0.0
C1645 C 0.24755 0.52341 0.7626 0.0
C1646 C 0.24199 0.54351 0.7538 0.0
C1647 C 0.22656 0.54415 0.73707 0.0
C1648 C 0.2166 0.52485 0.72955 0.0
C1649 C 0.22261 0.5047 0.7388 0.0
H1650 H 0.51317 0.26553 0.80264 0.0
H1651 H 0.50446 0.32382 0.76403 0.0
H1652 H 0.49392 0.30138 0.73246 0.0
H1653 H 0.53732 0.23401 0.75999 0.0
H1654 H 0.52473 0.2089 0.7682 0.0
H1655 H 0.53037 0.22958 0.78809 0.0
H1656 H 0.4899 0.22967 0.79965 0.0
H1657 H 0.48412 0.209 0.77976 0.0
H1658 H 0.46918 0.23418 0.77946 0.0
H1659 H 0.48385 0.27261 0.70523 0.0
H1660 H 0.47783 0.23938 0.68343 0.0
H1661 H 0.49538 0.19983 0.73904 0.0
C1662 C 0.50888 0.27354 0.78757 0.0
C1663 C 0.50945 0.29639 0.78576 0.0
C1664 C 0.5041 0.30631 0.76572 0.0
C1665 C 0.49803 0.29372 0.74774 0.0
C1666 C 0.49766 0.27121 0.75 0.0
C1667 C 0.50317 0.26118 0.76933 0.0
C1668 C 0.50251 0.23668 0.76711 0.0
C1669 C 0.52508 0.22671 0.77108 0.0
C1670 C 0.48541 0.22681 0.7824 0.0
C1671 C 0.49577 0.23452 0.74354 0.0
C1672 C 0.49279 0.25463 0.73404 0.0
C1673 C 0.48622 0.25677 0.71247 0.0
C1674 C 0.4828 0.23784 0.70023 0.0
C1675 C 0.48626 0.2171 0.70952 0.0
C1676 C 0.49277 0.2155 0.73148 0.0
H1677 H 0.78809 0.51902 0.71443 0.0
H1678 H 0.78428 0.44866 0.71457 0.0
H1679 H 0.75609 0.45035 0.74317 0.0
H1680 H 0.78261 0.527 0.77046 0.0
H1681 H 0.76596 0.55101 0.76847 0.0
H1682 H 0.7847 0.54442 0.74701 0.0
H1683 H 0.75335 0.54517 0.71896 0.0
H1684 H 0.73452 0.55203 0.7403 0.0
H1685 H 0.72963 0.52861 0.72343 0.0
H1686 H 0.73144 0.45967 0.77443 0.0
H1687 H 0.70871 0.47599 0.80323 0.0
H1688 H 0.72687 0.54039 0.78121 0.0
C1689 C 0.78104 0.50399 0.72023 0.0
C1690 C 0.78832 0.48369 0.71233 0.0
C1691 C 0.7788 0.46437 0.72031 0.0
C1692 C 0.76287 0.46518 0.73661 0.0
C1693 C 0.75643 0.48545 0.74444 0.0
C1694 C 0.76491 0.50452 0.73623 0.0
C1695 C 0.75541 0.52419 0.74761 0.0
C1696 C 0.77323 0.53743 0.75907 0.0
C1697 C 0.74245 0.53833 0.73162 0.0
C1698 C 0.7406 0.51319 0.76386 0.0
C1699 C 0.74155 0.49083 0.76185 0.0
C1700 C 0.7303 0.47715 0.77592 0.0
C1701 C 0.71756 0.48656 0.7923 0.0
C1702 C 0.71597 0.50942 0.79431 0.0
C1703 C 0.7276 0.52287 0.77985 0.0
H1704 H 0.51716 0.23278 0.29488 0.0
H1705 H 0.49577 0.17447 0.26146 0.0
H1706 H 0.48437 0.19652 0.23017 0.0
H1707 H 0.47304 0.26796 0.27467 0.0
H1708 H 0.49036 0.2914 0.27198 0.0
H1709 H 0.49607 0.27126 0.29245 0.0
H1710 H 0.53494 0.26651 0.27705 0.0
H1711 H 0.52935 0.2866 0.25655 0.0
H1712 H 0.53849 0.25989 0.24874 0.0
H1713 H 0.47833 0.22372 0.20145 0.0
H1714 H 0.47587 0.25543 0.17717 0.0
H1715 H 0.49879 0.29725 0.22903 0.0
C1716 C 0.50987 0.22473 0.28104 0.0
C1717 C 0.50736 0.20188 0.2806 0.0
C1718 C 0.49781 0.19192 0.26221 0.0
C1719 C 0.49127 0.20431 0.24433 0.0
C1720 C 0.49412 0.22671 0.24515 0.0
C1721 C 0.50297 0.23695 0.26304 0.0
C1722 C 0.5045 0.26131 0.25935 0.0
C1723 C 0.49014 0.27371 0.27558 0.0
C1724 C 0.52823 0.26902 0.26049 0.0
C1725 C 0.49559 0.26301 0.2364 0.0
C1726 C 0.48977 0.24277 0.22861 0.0
C1727 C 0.48249 0.23971 0.20745 0.0
C1728 C 0.48122 0.25779 0.19377 0.0
C1729 C 0.48691 0.27872 0.20134 0.0
C1730 C 0.49393 0.28144 0.22303 0.0
H1731 H 0.79132 0.48507 0.28477 0.0
H1732 H 0.77881 0.55356 0.29582 0.0
H1733 H 0.74838 0.55218 0.26965 0.0
H1734 H 0.7813 0.48469 0.22865 0.0
H1735 H 0.76815 0.45855 0.22824 0.0
H1736 H 0.78798 0.46456 0.24884 0.0
H1737 H 0.75994 0.45532 0.27883 0.0
H1738 H 0.74001 0.44917 0.2583 0.0
H1739 H 0.73402 0.46896 0.27904 0.0
H1740 H 0.72198 0.54419 0.23967 0.0
H1741 H 0.69951 0.52957 0.20981 0.0
H1742 H 0.72763 0.46574 0.21977 0.0
C1743 C 0.78199 0.49971 0.28188 0.0
C1744 C 0.78739 0.51944 0.29227 0.0
C1745 C 0.77485 0.53826 0.28808 0.0
C1746 C 0.75758 0.53763 0.27324 0.0
C1747 C 0.75288 0.51798 0.26301 0.0
C1748 C 0.76452 0.49929 0.26736 0.0
C1749 C 0.75645 0.48037 0.25383 0.0
C1750 C 0.77455 0.47153 0.23901 0.0
C1751 C 0.74704 0.46239 0.26837 0.0
C1752 C 0.73878 0.49147 0.24079 0.0
C1753 C 0.73704 0.51318 0.24632 0.0
C1754 C 0.72292 0.52715 0.23547 0.0
C1755 C 0.7103 0.51873 0.2185 0.0
C1756 C 0.7117 0.49651 0.21272 0.0
C1757 C 0.72596 0.48269 0.22418 0.0
H1758 H 0.48367 0.71613 0.20631 0.0
H1759 H 0.55385 0.72189 0.2093 0.0
H1760 H 0.55028 0.75083 0.23683 0.0
H1761 H 0.47091 0.77259 0.21296 0.0
H1762 H 0.44765 0.76795 0.23011 0.0
H1763 H 0.45555 0.74781 0.2104 0.0
H1764 H 0.45793 0.71879 0.24078 0.0
H1765 H 0.44995 0.73883 0.26057 0.0
H1766 H 0.47482 0.72378 0.26417 0.0
H1767 H 0.53927 0.78014 0.26241 0.0
H1768 H 0.52165 0.80603 0.28737 0.0
H1769 H 0.45851 0.77991 0.27015 0.0
C1770 C 0.49825 0.72351 0.2128 0.0
C1771 C 0.51905 0.7169 0.20563 0.0
C1772 C 0.53778 0.72672 0.21461 0.0
C1773 C 0.53591 0.7432 0.23019 0.0
C1774 C 0.5152 0.74944 0.23685 0.0
C1775 C 0.49669 0.73974 0.2287 0.0
C1776 C 0.47643 0.74912 0.23919 0.0
C1777 C 0.46177 0.76002 0.22215 0.0
C1778 C 0.46406 0.73158 0.25193 0.0
C1779 C 0.48648 0.76577 0.25431 0.0
C1780 C 0.50886 0.76578 0.25248 0.0
C1781 C 0.52178 0.78017 0.26414 0.0
C1782 C 0.51161 0.79487 0.2782 0.0
C1783 C 0.48875 0.79489 0.28073 0.0
C1784 C 0.47603 0.7801 0.26865 0.0
H1785 H 0.30124 0.50793 0.22303 0.0
H1786 H 0.25781 0.51849 0.16856 0.0
H1787 H 0.22622 0.51413 0.19272 0.0
H1788 H 0.26925 0.46568 0.24706 0.0
H1789 H 0.27479 0.4734 0.27475 0.0
H1790 H 0.29429 0.47927 0.25376 0.0
H1791 H 0.29348 0.52 0.26428 0.0
H1792 H 0.27398 0.51424 0.28534 0.0
H1793 H 0.26789 0.53425 0.26485 0.0
H1794 H 0.19946 0.50847 0.22198 0.0
H1795 H 0.17844 0.49893 0.25461 0.0
H1796 H 0.23837 0.48914 0.29047 0.0
C1797 C 0.28505 0.50959 0.21637 0.0
C1798 C 0.28188 0.51373 0.19401 0.0
C1799 C 0.26053 0.51534 0.18567 0.0
C1800 C 0.24249 0.51297 0.19926 0.0
C1801 C 0.24605 0.50867 0.22115 0.0
C1802 C 0.26672 0.50674 0.22971 0.0
C1803 C 0.26572 0.50052 0.25359 0.0
C1804 C 0.27666 0.4784 0.25751 0.0
C1805 C 0.27587 0.51832 0.26785 0.0
C1806 C 0.24131 0.49921 0.25696 0.0
C1807 C 0.23037 0.50431 0.23805 0.0
C1808 C 0.2078 0.50441 0.23691 0.0
C1809 C 0.19601 0.499 0.25556 0.0
C1810 C 0.20675 0.49325 0.27506 0.0
C1811 C 0.22973 0.49341 0.27576 0.0
H1812 H 0.78045 0.72168 0.5287 0.0
H1813 H 0.8068 0.70812 0.4648 0.0
H1814 H 0.77904 0.732 0.44824 0.0
H1815 H 0.72359 0.72575 0.51354 0.0
H1816 H 0.71826 0.7482 0.53157 0.0
H1817 H 0.73909 0.72874 0.5382 0.0
H1818 H 0.76724 0.75985 0.54129 0.0
H1819 H 0.74652 0.7794 0.53462 0.0
H1820 H 0.77106 0.77808 0.51869 0.0
H1821 H 0.74817 0.75688 0.43869 0.0
H1822 H 0.71834 0.78379 0.437 0.0
H1823 H 0.71431 0.78375 0.50734 0.0
C1824 C 0.78013 0.72357 0.51121 0.0
C1825 C 0.79548 0.71294 0.49792 0.0
C1826 C 0.79504 0.71612 0.47517 0.0
C1827 C 0.77933 0.72957 0.46565 0.0
C1828 C 0.76448 0.73999 0.47919 0.0
C1829 C 0.76491 0.73738 0.5015 0.0
C1830 C 0.74807 0.7516 0.51246 0.0
C1831 C 0.73126 0.73774 0.52466 0.0
C1832 C 0.75888 0.76822 0.52766 0.0
C1833 C 0.7381 0.76255 0.49282 0.0
C1834 C 0.74757 0.75538 0.47377 0.0
C1835 C 0.74071 0.76274 0.4535 0.0
C1836 C 0.72377 0.77795 0.45269 0.0
C1837 C 0.71425 0.78589 0.47204 0.0
C1838 C 0.72153 0.77809 0.49232 0.0
H1839 H 0.72653 0.22312 0.53701 0.0
H1840 H 0.71016 0.20174 0.4719 0.0
H1841 H 0.73296 0.23084 0.45649 0.0
H1842 H 0.72972 0.28156 0.5255 0.0
H1843 H 0.75291 0.2856 0.5429 0.0
H1844 H 0.73359 0.26447 0.54896 0.0
H1845 H 0.76459 0.23596 0.54894 0.0
H1846 H 0.78397 0.25699 0.54296 0.0
H1847 H 0.78193 0.23361 0.52545 0.0
H1848 H 0.75836 0.26123 0.44803 0.0
H1849 H 0.78726 0.28901 0.44709 0.0
H1850 H 0.78876 0.28968 0.51757 0.0
C1851 C 0.72755 0.22482 0.51953 0.0
C1852 C 0.71651 0.21034 0.50561 0.0
C1853 C 0.71853 0.2127 0.48282 0.0
C1854 C 0.73132 0.22925 0.47392 0.0
C1855 C 0.74216 0.24318 0.48803 0.0
C1856 C 0.7406 0.24105 0.51034 0.0
C1857 C 0.75535 0.25708 0.52179 0.0
C1858 C 0.74209 0.27313 0.5356 0.0
C1859 C 0.77247 0.2452 0.53559 0.0
C1860 C 0.76561 0.26831 0.50243 0.0
C1861 C 0.75748 0.26028 0.48312 0.0
C1862 C 0.7648 0.26773 0.46303 0.0
C1863 C 0.78118 0.28353 0.46266 0.0
C1864 C 0.79022 0.29149 0.48223 0.0
C1865 C 0.78208 0.28396 0.50234 0.0
H1866 H 0.27525 0.77848 0.53971 0.0
H1867 H 0.30067 0.79431 0.476 0.0
H1868 H 0.27776 0.76574 0.45959 0.0
H1869 H 0.26848 0.71969 0.53143 0.0
H1870 H 0.24309 0.7187 0.54598 0.0
H1871 H 0.26325 0.73867 0.55312 0.0
H1872 H 0.23494 0.76931 0.54748 0.0
H1873 H 0.21474 0.74945 0.54026 0.0
H1874 H 0.22091 0.77136 0.52186 0.0
H1875 H 0.25173 0.73619 0.44995 0.0
H1876 H 0.22198 0.70941 0.44722 0.0
H1877 H 0.21097 0.71465 0.51664 0.0
C1878 C 0.27623 0.77554 0.52239 0.0
C1879 C 0.28987 0.78825 0.50907 0.0
C1880 C 0.29036 0.78455 0.4864 0.0
C1881 C 0.27748 0.76835 0.47697 0.0
C1882 C 0.26393 0.75625 0.49042 0.0
C1883 C 0.26301 0.75975 0.51261 0.0
C1884 C 0.24565 0.74572 0.52302 0.0
C1885 C 0.25573 0.72975 0.53935 0.0
C1886 C 0.22802 0.75981 0.53378 0.0
C1887 C 0.23691 0.73395 0.50322 0.0
C1888 C 0.24796 0.74001 0.48465 0.0
C1889 C 0.24293 0.73131 0.46436 0.0
C1890 C 0.22605 0.71611 0.46297 0.0
C1891 C 0.21415 0.71007 0.48168 0.0
C1892 C 0.21974 0.71909 0.50205 0.0
H1893 H 0.22722 0.27333 0.53725 0.0
H1894 H 0.21055 0.29637 0.47279 0.0
H1895 H 0.23724 0.2711 0.45676 0.0
H1896 H 0.28467 0.26428 0.52792 0.0
H1897 H 0.28569 0.23955 0.54355 0.0
H1898 H 0.26614 0.2603 0.55024 0.0
H1899 H 0.23495 0.23234 0.54648 0.0
H1900 H 0.2544 0.2115 0.53986 0.0
H1901 H 0.23222 0.21712 0.5216 0.0
H1902 H 0.26608 0.24402 0.44766 0.0
H1903 H 0.29262 0.21399 0.44569 0.0
H1904 H 0.2889 0.20619 0.51565 0.0
C1905 C 0.22935 0.27309 0.51979 0.0
C1906 C 0.21697 0.28688 0.50623 0.0
C1907 C 0.21987 0.28591 0.48344 0.0
C1908 C 0.23506 0.27169 0.47419 0.0
C1909 C 0.247 0.25828 0.48793 0.0
C1910 C 0.24414 0.25858 0.51021 0.0
C1911 C 0.25818 0.24149 0.52111 0.0
C1912 C 0.27465 0.25204 0.53662 0.0
C1913 C 0.2441 0.22461 0.53296 0.0
C1914 C 0.2694 0.23164 0.50147 0.0
C1915 C 0.26292 0.24181 0.48255 0.0
C1916 C 0.27122 0.23585 0.46235 0.0
C1917 C 0.28633 0.21883 0.4614 0.0
C1918 C 0.29275 0.20774 0.48048 0.0
C1919 C 0.28421 0.21433 0.50078 0.0
H1920 H 0.07366 0.35699 0.12557 0.0
H1921 H 0.06235 0.2877 0.13181 0.0
H1922 H 0.08674 0.28098 0.10059 0.0
H1923 H 0.0745 0.35893 0.06798 0.0
H1924 H 0.09578 0.37895 0.06638 0.0
H1925 H 0.07815 0.37824 0.0897 0.0
H1926 H 0.11158 0.37474 0.11502 0.0
H1927 H 0.12933 0.37545 0.09176 0.0
H1928 H 0.13081 0.35309 0.11059 0.0
H1929 H 0.11042 0.28202 0.06754 0.0
H1930 H 0.13285 0.29047 0.03544 0.0
H1931 H 0.12997 0.35907 0.05135 0.0
C1932 C 0.07642 0.34038 0.12045 0.0
C1933 C 0.0661 0.32283 0.13107 0.0
C1934 C 0.07012 0.30135 0.12392 0.0
C1935 C 0.08394 0.2974 0.10622 0.0
C1936 C 0.09374 0.31508 0.09603 0.0
C1937 C 0.09029 0.33614 0.10295 0.0
C1938 C 0.10253 0.35228 0.08895 0.0
C1939 C 0.0868 0.36802 0.07758 0.0
C1940 C 0.11958 0.36461 0.10238 0.0
C1941 C 0.11318 0.33702 0.07283 0.0
C1942 C 0.10786 0.31564 0.07723 0.0
C1943 C 0.11488 0.29866 0.06407 0.0
C1944 C 0.12756 0.30364 0.04585 0.0
C1945 C 0.13324 0.3254 0.04102 0.0
C1946 C 0.12612 0.34227 0.05484 0.0
H1947 H 0.64106 0.07827 0.1104 0.0
H1948 H 0.71086 0.07752 0.12046 0.0
H1949 H 0.71568 0.10147 0.08881 0.0
H1950 H 0.64239 0.07748 0.05232 0.0
H1951 H 0.61977 0.09576 0.04883 0.0
H1952 H 0.62144 0.07899 0.07274 0.0
H1953 H 0.61869 0.11319 0.09707 0.0
H1954 H 0.617 0.13009 0.07323 0.0
H1955 H 0.63771 0.13511 0.09328 0.0
H1956 H 0.71354 0.1234 0.05549 0.0
H1957 H 0.70455 0.14387 0.02245 0.0
H1958 H 0.63588 0.13254 0.03368 0.0
C1959 C 0.65732 0.08326 0.10597 0.0
C1960 C 0.67562 0.076 0.11789 0.0
C1961 C 0.69663 0.08288 0.11162 0.0
C1962 C 0.69953 0.09649 0.09366 0.0
C1963 C 0.68126 0.10327 0.0822 0.0
C1964 C 0.66053 0.09708 0.0881 0.0
C1965 C 0.64377 0.10668 0.07269 0.0
C1966 C 0.6311 0.08865 0.06095 0.0
C1967 C 0.62838 0.12219 0.0848 0.0
C1968 C 0.65841 0.11896 0.05708 0.0
C1969 C 0.67995 0.11663 0.06298 0.0
C1970 C 0.69673 0.12552 0.05079 0.0
C1971 C 0.69144 0.13704 0.03199 0.0
C1972 C 0.66953 0.13982 0.02553 0.0
C1973 C 0.65274 0.13085 0.03839 0.0
H1974 H 0.93034 0.68197 0.11537 0.0
H1975 H 0.94055 0.61268 0.12344 0.0
H1976 H 0.91734 0.60551 0.09159 0.0
H1977 H 0.87427 0.67907 0.09783 0.0
H1978 H 0.87701 0.70062 0.07822 0.0
H1979 H 0.89392 0.70035 0.10209 0.0
H1980 H 0.92827 0.70191 0.07782 0.0
H1981 H 0.91147 0.70214 0.05388 0.0
H1982 H 0.93216 0.68164 0.05703 0.0
H1983 H 0.89294 0.60571 0.05902 0.0
H1984 H 0.86979 0.61345 0.02715 0.0
H1985 H 0.87638 0.68258 0.03925 0.0
C1986 C 0.92756 0.6653 0.11049 0.0
C1987 C 0.93717 0.64787 0.12192 0.0
C1988 C 0.93335 0.62629 0.11492 0.0
C1989 C 0.92017 0.62204 0.09686 0.0
C1990 C 0.91102 0.63955 0.08586 0.0
C1991 C 0.91459 0.66076 0.09232 0.0
C1992 C 0.90326 0.67661 0.07725 0.0
C1993 C 0.88609 0.68994 0.08959 0.0
C1994 C 0.91978 0.69145 0.06582 0.0
C1995 C 0.89277 0.66098 0.06137 0.0
C1996 C 0.89736 0.63968 0.06672 0.0
C1997 C 0.88927 0.62233 0.05462 0.0
C1998 C 0.87614 0.62688 0.03657 0.0
C1999 C 0.87137 0.64859 0.03068 0.0
C2000 C 0.87986 0.66582 0.04328 0.0
H2001 H 0.35976 0.87285 0.03985 0.0
H2002 H 0.29087 0.87169 0.02502 0.0
H2003 H 0.28339 0.89372 0.05765 0.0
H2004 H 0.35463 0.87052 0.09882 0.0
H2005 H 0.37677 0.88907 0.1035 0.0
H2006 H 0.3767 0.87212 0.07963 0.0
H2007 H 0.3805 0.90624 0.05529 0.0
H2008 H 0.38059 0.92327 0.07907 0.0
H2009 H 0.36101 0.92796 0.05782 0.0
H2010 H 0.2833 0.91645 0.09131 0.0
H2011 H 0.29085 0.93978 0.12307 0.0
H2012 H 0.35984 0.92727 0.11567 0.0
C2013 C 0.3431 0.87707 0.04362 0.0
C2014 C 0.32587 0.87048 0.02998 0.0
C2015 C 0.30432 0.87657 0.03526 0.0
C2016 C 0.29989 0.88902 0.05379 0.0
C2017 C 0.31721 0.89539 0.06684 0.0
C2018 C 0.3384 0.88973 0.06198 0.0
C2019 C 0.35408 0.89957 0.07821 0.0
C2020 C 0.36626 0.88176 0.09079 0.0
C2021 C 0.36998 0.91519 0.06692 0.0
C2022 C 0.3384 0.91173 0.09282 0.0
C2023 C 0.31719 0.90892 0.08607 0.0
C2024 C 0.29984 0.91874 0.0968 0.0
C2025 C 0.30428 0.93194 0.11483 0.0
C2026 C 0.32591 0.93533 0.12183 0.0
C2027 C 0.34313 0.92494 0.11072 0.0
H2028 H 0.07101 0.63618 0.88586 0.0
H2029 H 0.06922 0.70556 0.87354 0.0
H2030 H 0.0921 0.71186 0.90587 0.0
H2031 H 0.06903 0.63861 0.94375 0.0
H2032 H 0.08787 0.61659 0.94798 0.0
H2033 H 0.07148 0.61733 0.92376 0.0
H2034 H 0.10613 0.61515 0.89999 0.0
H2035 H 0.12264 0.61428 0.92414 0.0
H2036 H 0.12747 0.63481 0.90384 0.0
H2037 H 0.11294 0.71092 0.94047 0.0
H2038 H 0.13374 0.70275 0.97365 0.0
H2039 H 0.12455 0.63372 0.96269 0.0
C2040 C 0.07553 0.65267 0.88996 0.0
C2041 C 0.06829 0.67042 0.87729 0.0
C2042 C 0.07464 0.69175 0.88301 0.0
C2043 C 0.08756 0.69549 0.90137 0.0
C2044 C 0.09427 0.67768 0.91363 0.0
C2045 C 0.08877 0.65667 0.90804 0.0
C2046 C 0.09853 0.64044 0.92385 0.0
C2047 C 0.08066 0.62748 0.93553 0.0
C2048 C 0.11465 0.62528 0.91226 0.0
C2049 C 0.11011 0.65567 0.93936 0.0
C2050 C 0.10722 0.67708 0.9332 0.0
C2051 C 0.11551 0.69423 0.94535 0.0
C2052 C 0.1272 0.68941 0.96422 0.0
C2053 C 0.13079 0.66761 0.97067 0.0
C2054 C 0.12219 0.65052 0.95801 0.0
H2055 H 0.35975 0.06358 0.89748 0.0
H2056 H 0.3218 0.10296 0.85308 0.0
H2057 H 0.32287 0.13348 0.8793 0.0
H2058 H 0.33302 0.08166 0.94555 0.0
H2059 H 0.35721 0.08081 0.96201 0.0
H2060 H 0.35454 0.06285 0.9391 0.0
H2061 H 0.39077 0.07749 0.92344 0.0
H2062 H 0.39344 0.09568 0.94621 0.0
H2063 H 0.39392 0.10625 0.91892 0.0
H2064 H 0.32818 0.15961 0.91059 0.0
H2065 H 0.33356 0.17777 0.94604 0.0
H2066 H 0.36647 0.12039 0.97033 0.0
C2067 C 0.35178 0.07868 0.89323 0.0
C2068 C 0.34082 0.08105 0.87325 0.0
C2069 C 0.33028 0.10088 0.86835 0.0
C2070 C 0.33092 0.11831 0.88306 0.0
C2071 C 0.342 0.11549 0.90261 0.0
C2072 C 0.35199 0.09605 0.90782 0.0
C2073 C 0.3616 0.09666 0.93043 0.0
C2074 C 0.35095 0.07948 0.94513 0.0
C2075 C 0.3864 0.09386 0.92969 0.0
C2076 C 0.35537 0.11943 0.93721 0.0
C2077 C 0.34438 0.13018 0.92084 0.0
C2078 C 0.33678 0.15135 0.92351 0.0
C2079 C 0.34 0.16158 0.94363 0.0
C2080 C 0.35045 0.15047 0.96085 0.0
C2081 C 0.3585 0.12929 0.95741 0.0
H2082 H 0.86786 0.36861 0.96289 0.0
H2083 H 0.86283 0.29943 0.97532 0.0
H2084 H 0.88409 0.29182 0.94223 0.0
H2085 H 0.86533 0.36568 0.9034 0.0
H2086 H 0.88517 0.38687 0.89967 0.0
H2087 H 0.868 0.38693 0.92338 0.0
H2088 H 0.90204 0.38792 0.9481 0.0
H2089 H 0.91929 0.38785 0.92449 0.0
H2090 H 0.92262 0.36729 0.94506 0.0
H2091 H 0.9071 0.29159 0.90873 0.0
H2092 H 0.93157 0.29895 0.87776 0.0
H2093 H 0.92273 0.36823 0.8875 0.0
C2094 C 0.87098 0.35188 0.95842 0.0
C2095 C 0.8636 0.3346 0.97157 0.0
C2096 C 0.86832 0.31292 0.96546 0.0
C2097 C 0.88032 0.30842 0.94665 0.0
C2098 C 0.8876 0.32578 0.93416 0.0
C2099 C 0.8832 0.34709 0.93978 0.0
C2100 C 0.89409 0.36274 0.92421 0.0
C2101 C 0.87713 0.37636 0.91194 0.0
C2102 C 0.91048 0.3773 0.93619 0.0
C2103 C 0.90546 0.34689 0.90915 0.0
C2104 C 0.90131 0.32566 0.91505 0.0
C2105 C 0.91039 0.30816 0.90387 0.0
C2106 C 0.92425 0.31249 0.88631 0.0
C2107 C 0.92902 0.33413 0.88022 0.0
C2108 C 0.91932 0.3515 0.89173 0.0
H2109 H 0.68423 0.88109 0.97011 0.0
H2110 H 0.62178 0.84925 0.96272 0.0
H2111 H 0.61589 0.86878 0.92827 0.0
H2112 H 0.6682 0.93278 0.94937 0.0
H2113 H 0.69335 0.93791 0.93529 0.0
H2114 H 0.69315 0.92093 0.9591 0.0
H2115 H 0.71119 0.88983 0.93721 0.0
H2116 H 0.71146 0.90673 0.91332 0.0
H2117 H 0.69862 0.88044 0.9125 0.0
H2118 H 0.61564 0.89295 0.89601 0.0
H2119 H 0.62155 0.91959 0.86676 0.0
H2120 H 0.6848 0.93524 0.89362 0.0
C2121 C 0.66939 0.87816 0.96115 0.0
C2122 C 0.65343 0.86365 0.9691 0.0
C2123 C 0.63423 0.86024 0.95694 0.0
C2124 C 0.63073 0.87126 0.93734 0.0
C2125 C 0.64668 0.88552 0.93001 0.0
C2126 C 0.66569 0.88893 0.9414 0.0
C2127 C 0.68003 0.90537 0.9299 0.0
C2128 C 0.6839 0.92544 0.94427 0.0
C2129 C 0.7016 0.89497 0.92281 0.0
C2130 C 0.66593 0.91087 0.91043 0.0
C2131 C 0.64676 0.8992 0.91092 0.0
C2132 C 0.63067 0.90203 0.89532 0.0
C2133 C 0.63416 0.91725 0.8788 0.0
C2134 C 0.65367 0.92938 0.87785 0.0
C2135 C 0.66986 0.92598 0.89379 0.0
H2136 H 0.10637 0.0734 0.36857 0.0
H2137 H 0.11988 0.07566 0.29939 0.0
H2138 H 0.09002 0.10191 0.29443 0.0
H2139 H 0.04842 0.07618 0.36416 0.0
H2140 H 0.04497 0.0931 0.38781 0.0
H2141 H 0.06779 0.07488 0.38607 0.0
H2142 H 0.09403 0.10716 0.39238 0.0
H2143 H 0.07127 0.1255 0.39402 0.0
H2144 H 0.09269 0.13046 0.3747 0.0
H2145 H 0.05829 0.12686 0.29661 0.0
H2146 H 0.02594 0.14866 0.30567 0.0
H2147 H 0.03295 0.13106 0.37358 0.0
C2148 C 0.10304 0.07946 0.35239 0.0
C2149 C 0.11543 0.07249 0.33434 0.0
C2150 C 0.1106 0.08076 0.31344 0.0
C2151 C 0.09371 0.09572 0.31046 0.0
C2152 C 0.08185 0.10232 0.32857 0.0
C2153 C 0.08623 0.09448 0.34913 0.0
C2154 C 0.07067 0.10395 0.36574 0.0
C2155 C 0.05716 0.08596 0.37658 0.0
C2156 C 0.0829 0.11758 0.38271 0.0
C2157 C 0.05673 0.11817 0.35124 0.0
C2158 C 0.06355 0.117 0.32987 0.0
C2159 C 0.05287 0.12803 0.31329 0.0
C2160 C 0.03451 0.14037 0.31861 0.0
C2161 C 0.02703 0.14164 0.34033 0.0
C2162 C 0.03848 0.13061 0.35689 0.0
H2163 H 0.91948 0.11165 0.32483 0.0
H2164 H 0.92798 0.1207 0.39419 0.0
H2165 H 0.9029 0.09033 0.40136 0.0
H2166 H 0.86248 0.09527 0.32588 0.0
H2167 H 0.8658 0.07483 0.30517 0.0
H2168 H 0.88306 0.09845 0.30528 0.0
H2169 H 0.9171 0.07369 0.30601 0.0
H2170 H 0.89995 0.05002 0.30586 0.0
H2171 H 0.91978 0.05356 0.3271 0.0
H2172 H 0.87725 0.05919 0.40125 0.0
H2173 H 0.85509 0.02664 0.39388 0.0
H2174 H 0.86497 0.03559 0.32464 0.0
C2175 C 0.91581 0.10732 0.34148 0.0
C2176 C 0.92547 0.11855 0.35899 0.0
C2177 C 0.92072 0.11224 0.38058 0.0
C2178 C 0.90642 0.09511 0.38481 0.0
C2179 C 0.89724 0.08422 0.36726 0.0
C2180 C 0.9019 0.08984 0.34602 0.0
C2181 C 0.89101 0.07437 0.33023 0.0
C2182 C 0.87461 0.08646 0.31579 0.0
C2183 C 0.90797 0.06219 0.3165 0.0
C2184 C 0.87961 0.05921 0.34596 0.0
C2185 C 0.88318 0.06544 0.36722 0.0
C2186 C 0.87435 0.0541 0.38468 0.0
C2187 C 0.86175 0.03567 0.38033 0.0
C2188 C 0.85838 0.02859 0.35872 0.0
C2189 C 0.86733 0.04063 0.34133 0.0
H2190 H 0.88425 0.91766 0.32583 0.0
H2191 H 0.87736 0.93115 0.39469 0.0
H2192 H 0.90881 0.90758 0.40248 0.0
H2193 H 0.90131 0.86108 0.33122 0.0
H2194 H 0.92057 0.86273 0.30923 0.0
H2195 H 0.89671 0.87969 0.30909 0.0
H2196 H 0.92095 0.91389 0.30543 0.0
H2197 H 0.94486 0.89704 0.30558 0.0
H2198 H 0.94209 0.91868 0.32511 0.0
H2199 H 0.94169 0.88355 0.40285 0.0
H2200 H 0.97431 0.86127 0.39554 0.0
H2201 H 0.96039 0.86377 0.32648 0.0
C2202 C 0.88924 0.91544 0.34255 0.0
C2203 C 0.8783 0.92616 0.35967 0.0
C2204 C 0.88548 0.92308 0.38132 0.0
C2205 C 0.9033 0.90969 0.38593 0.0
C2206 C 0.91386 0.8995 0.36871 0.0
C2207 C 0.90715 0.90222 0.34745 0.0
C2208 C 0.92194 0.8901 0.3319 0.0
C2209 C 0.90938 0.87235 0.31964 0.0
C2210 C 0.93312 0.90587 0.31608 0.0
C2211 C 0.93807 0.88032 0.34775 0.0
C2212 C 0.93302 0.88583 0.3689 0.0
C2213 C 0.94576 0.87905 0.38635 0.0
C2214 C 0.96425 0.8664 0.38205 0.0
C2215 C 0.96986 0.86076 0.36048 0.0
C2216 C 0.95647 0.86775 0.34316 0.0
H2217 H 0.11994 0.97056 0.36813 0.0
H2218 H 0.15227 0.9625 0.30599 0.0
H2219 H 0.13406 0.92723 0.30097 0.0
H2220 H 0.12073 0.91337 0.38427 0.0
H2221 H 0.09402 0.91431 0.39624 0.0
H2222 H 0.11067 0.93837 0.39578 0.0
H2223 H 0.07994 0.95934 0.3761 0.0
H2224 H 0.06323 0.93535 0.37648 0.0
H2225 H 0.06904 0.94871 0.35108 0.0
H2226 H 0.11196 0.89341 0.30204 0.0
H2227 H 0.08603 0.86359 0.30852 0.0
H2228 H 0.06667 0.89366 0.36932 0.0
C2229 C 0.12335 0.9612 0.35362 0.0
C2230 C 0.13761 0.96919 0.3375 0.0
C2231 C 0.14141 0.95669 0.31855 0.0
C2232 C 0.1312 0.9366 0.31557 0.0
C2233 C 0.11708 0.92925 0.33162 0.0
C2234 C 0.11303 0.94115 0.35024 0.0
C2235 C 0.09625 0.92992 0.36437 0.0
C2236 C 0.10601 0.92362 0.38648 0.0
C2237 C 0.07591 0.94418 0.36716 0.0
C2238 C 0.09145 0.90998 0.3507 0.0
C2239 C 0.10382 0.90986 0.33198 0.0
C2240 C 0.1022 0.89328 0.31666 0.0
C2241 C 0.08743 0.8764 0.32049 0.0
C2242 C 0.07433 0.87629 0.3394 0.0
C2243 C 0.07649 0.89329 0.35472 0.0
H2244 H 0.03711 0.87407 0.68235 0.0
H2245 H 0.01912 0.87895 0.61435 0.0
H2246 H 0.04862 0.90537 0.60842 0.0
H2247 H 0.05101 0.93014 0.69016 0.0
H2248 H 0.07384 0.92457 0.70761 0.0
H2249 H 0.05129 0.90597 0.70669 0.0
H2250 H 0.07741 0.87445 0.69682 0.0
H2251 H 0.10006 0.89291 0.69788 0.0
H2252 H 0.09515 0.87717 0.67368 0.0
H2253 H 0.0792 0.93176 0.60994 0.0
H2254 H 0.11093 0.95471 0.61814 0.0
H2255 H 0.11002 0.93219 0.68497 0.0
C2256 C 0.03945 0.88066 0.66621 0.0
C2257 C 0.02583 0.87451 0.6488 0.0
C2258 C 0.02941 0.88341 0.6279 0.0
C2259 C 0.04606 0.89849 0.62439 0.0
C2260 C 0.05906 0.90437 0.64192 0.0
C2261 C 0.05613 0.89562 0.66237 0.0
C2262 C 0.0727 0.90447 0.67829 0.0
C2263 C 0.06154 0.91704 0.69678 0.0
C2264 C 0.08719 0.88616 0.68719 0.0
C2265 C 0.08535 0.91959 0.66356 0.0
C2266 C 0.07707 0.91937 0.6427 0.0
C2267 C 0.08589 0.93204 0.62619 0.0
C2268 C 0.10387 0.94506 0.63104 0.0
C2269 C 0.11293 0.94522 0.65218 0.0
C2270 C 0.10342 0.93241 0.66867 0.0
H2271 H 0.13145 0.04027 0.6306 0.0
H2272 H 0.1675 0.0496 0.69033 0.0
H2273 H 0.15036 0.08547 0.69525 0.0
H2274 H 0.13002 0.09892 0.61325 0.0
H2275 H 0.10253 0.09671 0.60344 0.0
H2276 H 0.12035 0.07348 0.60243 0.0
H2277 H 0.09218 0.05111 0.6242 0.0
H2278 H 0.07442 0.07429 0.62552 0.0
H2279 H 0.08294 0.06101 0.65018 0.0
H2280 H 0.12665 0.11762 0.69638 0.0
H2281 H 0.09793 0.14524 0.69329 0.0
H2282 H 0.07575 0.11554 0.63329 0.0
C2283 C 0.13627 0.05032 0.64421 0.0
C2284 C 0.15107 0.04251 0.6599 0.0
C2285 C 0.15639 0.05554 0.67804 0.0
C2286 C 0.14675 0.0759 0.68096 0.0
C2287 C 0.13167 0.08292 0.66566 0.0
C2288 C 0.12646 0.07066 0.64756 0.0
C2289 C 0.10804 0.08114 0.63491 0.0
C2290 C 0.1157 0.08797 0.61216 0.0
C2291 C 0.08823 0.06598 0.63364 0.0
C2292 C 0.1034 0.10081 0.64907 0.0
C2293 C 0.11744 0.10157 0.66656 0.0
C2294 C 0.11575 0.11741 0.68259 0.0
C2295 C 0.09929 0.13297 0.68074 0.0
C2296 C 0.08464 0.13258 0.66303 0.0
C2297 C 0.08685 0.11635 0.6469 0.0
H2298 H 0.97224 0.13652 0.63715 0.0
H2299 H 0.98229 0.1487 0.70588 0.0
H2300 H 0.9496 0.12745 0.71455 0.0
H2301 H 0.91308 0.13862 0.63822 0.0
H2302 H 0.90975 0.11675 0.61903 0.0
H2303 H 0.93356 0.13372 0.61786 0.0
H2304 H 0.95807 0.09964 0.62093 0.0
H2305 H 0.93435 0.08259 0.62214 0.0
H2306 H 0.95439 0.08126 0.64343 0.0
H2307 H 0.91626 0.10505 0.71619 0.0
H2308 H 0.88447 0.08137 0.71073 0.0
H2309 H 0.89594 0.08201 0.64114 0.0
C2310 C 0.96742 0.13481 0.65397 0.0
C2311 C 0.97979 0.14433 0.67084 0.0
C2312 C 0.97311 0.14155 0.69269 0.0
C2313 C 0.95452 0.12954 0.6978 0.0
C2314 C 0.94277 0.12024 0.6809 0.0
C2315 C 0.94892 0.12259 0.65943 0.0
C2316 C 0.93362 0.1102 0.64456 0.0
C2317 C 0.9218 0.12575 0.629 0.0
C2318 C 0.94584 0.09236 0.63203 0.0
C2319 C 0.91806 0.10052 0.66108 0.0
C2320 C 0.92361 0.10672 0.68191 0.0
C2321 C 0.91173 0.10005 0.69996 0.0
C2322 C 0.89369 0.08661 0.69669 0.0
C2323 C 0.88775 0.0798 0.67554 0.0
C2324 C 0.90014 0.08689 0.65751 0.0
H2325 H 0.92597 0.89611 0.63878 0.0
H2326 H 0.92287 0.87595 0.70626 0.0
H2327 H 0.89923 0.90741 0.71447 0.0
H2328 H 0.92889 0.95264 0.64851 0.0
H2329 H 0.91222 0.96018 0.62565 0.0
H2330 H 0.92785 0.93547 0.6248 0.0
H2331 H 0.89292 0.91345 0.61679 0.0
H2332 H 0.87718 0.93812 0.61751 0.0
H2333 H 0.87001 0.91568 0.63489 0.0
H2334 H 0.87803 0.94218 0.71576 0.0
H2335 H 0.85936 0.97715 0.70994 0.0
H2336 H 0.87545 0.97441 0.64135 0.0
C2337 C 0.92012 0.89817 0.65525 0.0
C2338 C 0.92622 0.88358 0.67191 0.0
C2339 C 0.91833 0.88689 0.69325 0.0
C2340 C 0.90493 0.90471 0.69806 0.0
C2341 C 0.89946 0.91895 0.68131 0.0
C2342 C 0.90666 0.9158 0.6603 0.0
C2343 C 0.89883 0.93378 0.64538 0.0
C2344 C 0.9181 0.94625 0.63551 0.0
C2345 C 0.88384 0.92471 0.62759 0.0
C2346 C 0.88634 0.94774 0.66135 0.0
C2347 C 0.88693 0.93886 0.68198 0.0
C2348 C 0.87729 0.94917 0.69965 0.0
C2349 C 0.86679 0.96907 0.69618 0.0
C2350 C 0.86589 0.97845 0.67518 0.0
C2351 C 0.8757 0.96753 0.65753 0.0
H2352 H 0.31903 0.03981 0.12556 0.0
H2353 H 0.38793 0.03107 0.13764 0.0
H2354 H 0.39584 0.06359 0.11549 0.0
H2355 H 0.32376 0.05756 0.07027 0.0
H2356 H 0.30206 0.07712 0.0723 0.0
H2357 H 0.30184 0.05326 0.08921 0.0
H2358 H 0.29904 0.07751 0.1235 0.0
H2359 H 0.29932 0.10147 0.10671 0.0
H2360 H 0.31909 0.09835 0.12807 0.0
H2361 H 0.39629 0.09648 0.09164 0.0
H2362 H 0.38941 0.12776 0.06761 0.0
H2363 H 0.32007 0.11567 0.0715 0.0
C2364 C 0.33579 0.04473 0.12353 0.0
C2365 C 0.3529 0.03292 0.13327 0.0
C2366 C 0.3746 0.03989 0.1303 0.0
C2367 C 0.37923 0.05833 0.11777 0.0
C2368 C 0.36198 0.06964 0.10844 0.0
C2369 C 0.34069 0.06314 0.11117 0.0
C2370 C 0.32517 0.07815 0.09933 0.0
C2371 C 0.31246 0.06578 0.08173 0.0
C2372 C 0.30975 0.08955 0.11536 0.0
C2373 C 0.34107 0.09405 0.08939 0.0
C2374 C 0.36222 0.08881 0.09487 0.0
C2375 C 0.37981 0.10079 0.08731 0.0
C2376 C 0.37572 0.11852 0.07366 0.0
C2377 C 0.35421 0.12417 0.06775 0.0
C2378 C 0.33667 0.11183 0.07588 0.0
H2379 H 0.35466 0.98217 0.88969 0.0
H2380 H 0.34496 0.95227 0.82663 0.0
H2381 H 0.34257 0.91619 0.84414 0.0
H2382 H 0.38815 0.93793 0.91226 0.0
H2383 H 0.37676 0.94091 0.93907 0.0
H2384 H 0.37877 0.96413 0.92138 0.0
H2385 H 0.33748 0.97101 0.92579 0.0
H2386 H 0.3353 0.94771 0.94331 0.0
H2387 H 0.3186 0.94959 0.91934 0.0
H2388 H 0.33712 0.88419 0.86889 0.0
H2389 H 0.3334 0.85764 0.89882 0.0
H2390 H 0.34951 0.90787 0.94549 0.0
C2391 C 0.35235 0.96797 0.87956 0.0
C2392 C 0.34996 0.96992 0.85683 0.0
C2393 C 0.34696 0.95105 0.84406 0.0
C2394 C 0.3455 0.93053 0.85387 0.0
C2395 C 0.34749 0.9292 0.87638 0.0
C2396 C 0.35128 0.94735 0.88904 0.0
C2397 C 0.35271 0.94148 0.91289 0.0
C2398 C 0.37545 0.9464 0.92193 0.0
C2399 C 0.33496 0.95314 0.9261 0.0
C2400 C 0.3486 0.91727 0.91174 0.0
C2401 C 0.34546 0.91054 0.89054 0.0
C2402 C 0.33994 0.88918 0.88551 0.0
C2403 C 0.33775 0.87427 0.90258 0.0
C2404 C 0.3414 0.88074 0.92434 0.0
C2405 C 0.347 0.90247 0.92893 0.0
H2406 H 0.03727 0.32317 0.87454 0.0
H2407 H 0.02258 0.39208 0.87708 0.0
H2408 H 0.05362 0.39769 0.90194 0.0
H2409 H 0.05321 0.31693 0.93002 0.0
H2410 H 0.07484 0.29807 0.92414 0.0
H2411 H 0.05155 0.29953 0.90651 0.0
H2412 H 0.07679 0.30674 0.87361 0.0
H2413 H 0.10017 0.30531 0.89114 0.0
H2414 H 0.0957 0.32906 0.87461 0.0
H2415 H 0.08526 0.39551 0.92752 0.0
H2416 H 0.11638 0.38605 0.95097 0.0
H2417 H 0.11145 0.31876 0.93053 0.0
C2418 C 0.04058 0.33944 0.88035 0.0
C2419 C 0.0275 0.3572 0.87401 0.0
C2420 C 0.03243 0.37826 0.88177 0.0
C2421 C 0.04999 0.3816 0.89589 0.0
C2422 C 0.06255 0.36372 0.90186 0.0
C2423 C 0.05817 0.34308 0.89423 0.0
C2424 C 0.07429 0.32668 0.90299 0.0
C2425 C 0.06278 0.30928 0.91673 0.0
C2426 C 0.08752 0.31634 0.88448 0.0
C2427 C 0.08831 0.34128 0.91694 0.0
C2428 C 0.08119 0.36257 0.91612 0.0
C2429 C 0.09108 0.37894 0.92817 0.0
C2430 C 0.1087 0.37339 0.94147 0.0
C2431 C 0.11635 0.35171 0.94245 0.0
C2432 C 0.10607 0.33551 0.92991 0.0
H2433 H 0.68338 0.11375 0.92467 0.0
H2434 H 0.61541 0.13231 0.92526 0.0
H2435 H 0.60666 0.10115 0.90155 0.0
H2436 H 0.6855 0.09425 0.86894 0.0
H2437 H 0.70321 0.07182 0.87535 0.0
H2438 H 0.70428 0.09633 0.8913 0.0
H2439 H 0.69742 0.07392 0.92626 0.0
H2440 H 0.69625 0.04937 0.91041 0.0
H2441 H 0.67386 0.05661 0.92784 0.0
H2442 H 0.60528 0.06775 0.87773 0.0
H2443 H 0.6113 0.0337 0.85709 0.0
H2444 H 0.67972 0.03593 0.87374 0.0
C2445 C 0.66672 0.11137 0.91958 0.0
C2446 C 0.65009 0.12552 0.92665 0.0
C2447 C 0.6284 0.12167 0.91999 0.0
C2448 C 0.62328 0.10405 0.90649 0.0
C2449 C 0.63999 0.09026 0.89995 0.0
C2450 C 0.66125 0.09363 0.90637 0.0
C2451 C 0.67598 0.07581 0.8979 0.0
C2452 C 0.69326 0.08511 0.88245 0.0
C2453 C 0.68649 0.06318 0.91673 0.0
C2454 C 0.65969 0.06192 0.88577 0.0
C2455 C 0.63904 0.07062 0.88696 0.0
C2456 C 0.62138 0.06075 0.87675 0.0
C2457 C 0.62492 0.04144 0.86507 0.0
C2458 C 0.6459 0.03212 0.86395 0.0
C2459 C 0.66344 0.04257 0.87447 0.0
H2460 H 0.96312 0.6357 0.87085 0.0
H2461 H 0.96491 0.70336 0.85109 0.0
H2462 H 0.93272 0.71091 0.87354 0.0
H2463 H 0.90363 0.63082 0.87282 0.0
H2464 H 0.90391 0.61369 0.89657 0.0
H2465 H 0.92641 0.6131 0.87785 0.0
H2466 H 0.95285 0.62185 0.90937 0.0
H2467 H 0.93044 0.62257 0.92815 0.0
H2468 H 0.94826 0.64567 0.9258 0.0
H2469 H 0.90167 0.71191 0.89936 0.0
H2470 H 0.87296 0.70594 0.9267 0.0
H2471 H 0.89071 0.63778 0.93024 0.0
C2472 C 0.9565 0.652 0.87103 0.0
C2473 C 0.9665 0.66892 0.85915 0.0
C2474 C 0.95755 0.69012 0.86003 0.0
C2475 C 0.93923 0.6946 0.87273 0.0
C2476 C 0.92995 0.67772 0.88452 0.0
C2477 C 0.93816 0.65682 0.88377 0.0
C2478 C 0.92543 0.6419 0.89871 0.0
C2479 C 0.91418 0.62381 0.88571 0.0
C2480 C 0.94012 0.63245 0.91657 0.0
C2481 C 0.909 0.65777 0.90807 0.0
C2482 C 0.9119 0.67832 0.89958 0.0
C2483 C 0.89912 0.69586 0.90604 0.0
C2484 C 0.88288 0.69233 0.92161 0.0
C2485 C 0.87955 0.67142 0.93056 0.0
C2486 C 0.89279 0.65393 0.92361 0.0
H2487 H 0.68702 0.97017 0.12688 0.0
H2488 H 0.61936 0.97555 0.14586 0.0
H2489 H 0.61096 0.94244 0.12457 0.0
H2490 H 0.67781 0.95267 0.07257 0.0
H2491 H 0.70059 0.93428 0.07209 0.0
H2492 H 0.70125 0.95792 0.0893 0.0
H2493 H 0.70864 0.93351 0.12279 0.0
H2494 H 0.70806 0.90978 0.10568 0.0
H2495 H 0.69031 0.91153 0.1289 0.0
H2496 H 0.60996 0.90938 0.10007 0.0
H2497 H 0.61639 0.8786 0.07511 0.0
H2498 H 0.68492 0.89479 0.07268 0.0
C2499 C 0.67043 0.96435 0.12668 0.0
C2500 C 0.65381 0.97543 0.13804 0.0
C2501 C 0.63233 0.96729 0.13732 0.0
C2502 C 0.62743 0.94852 0.12526 0.0
C2503 C 0.64421 0.93808 0.11412 0.0
C2504 C 0.6653 0.94568 0.11482 0.0
C2505 C 0.68037 0.93169 0.10126 0.0
C2506 C 0.6906 0.94493 0.08271 0.0
C2507 C 0.69787 0.92099 0.11551 0.0
C2508 C 0.66446 0.91505 0.09265 0.0
C2509 C 0.64368 0.91902 0.10024 0.0
C2510 C 0.62618 0.90608 0.09413 0.0
C2511 C 0.62999 0.88865 0.07992 0.0
C2512 C 0.65117 0.88426 0.072 0.0
C2513 C 0.66859 0.89766 0.07855 0.0
H2514 H 0.04019 0.68361 0.13191 0.0
H2515 H 0.04215 0.61677 0.15425 0.0
H2516 H 0.07546 0.61057 0.13282 0.0
H2517 H 0.05712 0.67364 0.07822 0.0
H2518 H 0.07358 0.69772 0.07583 0.0
H2519 H 0.05071 0.69745 0.09404 0.0
H2520 H 0.0758 0.70834 0.12601 0.0
H2521 H 0.09877 0.70873 0.10786 0.0
H2522 H 0.09945 0.69211 0.13195 0.0
H2523 H 0.10616 0.61054 0.10646 0.0
H2524 H 0.13394 0.61728 0.07836 0.0
H2525 H 0.11362 0.68464 0.07431 0.0
C2526 C 0.04781 0.66776 0.1325 0.0
C2527 C 0.03861 0.65065 0.14473 0.0
C2528 C 0.04897 0.63012 0.14505 0.0
C2529 C 0.06788 0.62644 0.13293 0.0
C2530 C 0.07638 0.64354 0.1208 0.0
C2531 C 0.06686 0.66387 0.12067 0.0
C2532 C 0.07901 0.67926 0.10576 0.0
C2533 C 0.06422 0.68749 0.08737 0.0
C2534 C 0.08884 0.69823 0.11867 0.0
C2535 C 0.09654 0.66425 0.09716 0.0
C2536 C 0.09467 0.64371 0.10606 0.0
C2537 C 0.10803 0.62663 0.09964 0.0
C2538 C 0.12369 0.63059 0.08363 0.0
C2539 C 0.12602 0.65151 0.07439 0.0
C2540 C 0.11243 0.66861 0.08144 0.0
H2541 H 0.95855 0.31848 0.14066 0.0
H2542 H 0.97649 0.3866 0.14206 0.0
H2543 H 0.94694 0.39479 0.116 0.0
H2544 H 0.94578 0.31531 0.08452 0.0
H2545 H 0.92305 0.29725 0.08813 0.0
H2546 H 0.94515 0.29689 0.10727 0.0
H2547 H 0.91821 0.30396 0.13884 0.0
H2548 H 0.89599 0.3042 0.11981 0.0
H2549 H 0.90026 0.32708 0.13757 0.0
H2550 H 0.9167 0.39504 0.0883 0.0
H2551 H 0.88639 0.38797 0.06303 0.0
H2552 H 0.88742 0.31977 0.08079 0.0
C2553 C 0.95618 0.33516 0.13561 0.0
C2554 C 0.96982 0.35194 0.14334 0.0
C2555 C 0.96617 0.37354 0.13639 0.0
C2556 C 0.94949 0.37831 0.12155 0.0
C2557 C 0.93652 0.36131 0.11404 0.0
C2558 C 0.93953 0.34021 0.12102 0.0
C2559 C 0.92337 0.32489 0.11053 0.0
C2560 C 0.93504 0.30757 0.0968 0.0
C2561 C 0.90858 0.31442 0.12771 0.0
C2562 C 0.91088 0.34063 0.09635 0.0
C2563 C 0.9188 0.36154 0.09853 0.0
C2564 C 0.91028 0.37877 0.08661 0.0
C2565 C 0.89312 0.37456 0.07223 0.0
C2566 C 0.88452 0.35333 0.07 0.0
C2567 C 0.89357 0.33618 0.08225 0.0
H2568 H 0.62045 0.85803 0.53137 0.0
H2569 H 0.64406 0.79158 0.5326 0.0
H2570 H 0.62403 0.78502 0.56659 0.0
H2571 H 0.62167 0.86701 0.59015 0.0
H2572 H 0.59694 0.88269 0.59029 0.0
H2573 H 0.61414 0.8827 0.5666 0.0
H2574 H 0.58163 0.87026 0.54298 0.0
H2575 H 0.56437 0.87011 0.5666 0.0
H2576 H 0.56705 0.84595 0.55027 0.0
H2577 H 0.60083 0.78501 0.59957 0.0
H2578 H 0.57554 0.79166 0.62993 0.0
H2579 H 0.56598 0.85784 0.60749 0.0
C2580 C 0.62159 0.84221 0.53899 0.0
C2581 C 0.63387 0.82533 0.52941 0.0
C2582 C 0.63475 0.80475 0.53966 0.0
C2583 C 0.62346 0.80085 0.55898 0.0
C2584 C 0.61126 0.81768 0.56787 0.0
C2585 C 0.61022 0.83796 0.55829 0.0
C2586 C 0.59522 0.8529 0.57093 0.0
C2587 C 0.60775 0.87249 0.58003 0.0
C2588 C 0.57592 0.86023 0.55685 0.0
C2589 C 0.58793 0.83777 0.58896 0.0
C2590 C 0.5975 0.81758 0.5869 0.0
C2591 C 0.59325 0.80077 0.60143 0.0
C2592 C 0.57885 0.8047 0.6186 0.0
C2593 C 0.56878 0.82523 0.62106 0.0
C2594 C 0.57341 0.84196 0.606 0.0
H2595 H 0.14329 0.57388 0.62 0.0
H2596 H 0.2131 0.56691 0.62693 0.0
H2597 H 0.21859 0.58963 0.5944 0.0
H2598 H 0.14159 0.5721 0.56184 0.0
H2599 H 0.1206 0.59236 0.55925 0.0
H2600 H 0.12197 0.57573 0.58328 0.0
H2601 H 0.12365 0.61028 0.60723 0.0
H2602 H 0.12228 0.62703 0.58326 0.0
H2603 H 0.14439 0.6303 0.60216 0.0
H2604 H 0.21671 0.61138 0.5605 0.0
H2605 H 0.20773 0.63261 0.52782 0.0
H2606 H 0.13911 0.62749 0.5431 0.0
C2607 C 0.15971 0.5772 0.61467 0.0
C2608 C 0.1778 0.56858 0.62596 0.0
C2609 C 0.19903 0.57336 0.61856 0.0
C2610 C 0.20231 0.58623 0.60009 0.0
C2611 C 0.18419 0.59442 0.58929 0.0
C2612 C 0.1633 0.59028 0.59634 0.0
C2613 C 0.14673 0.60124 0.58169 0.0
C2614 C 0.13185 0.58435 0.57087 0.0
C2615 C 0.13348 0.61822 0.59434 0.0
C2616 C 0.16159 0.61195 0.56519 0.0
C2617 C 0.18313 0.60767 0.56992 0.0
C2618 C 0.19993 0.61501 0.55672 0.0
C2619 C 0.19465 0.62701 0.53816 0.0
C2620 C 0.17274 0.63179 0.53298 0.0
C2621 C 0.156 0.62428 0.5468 0.0
H2622 H 0.3788 0.17849 0.53385 0.0
H2623 H 0.35685 0.1116 0.53728 0.0
H2624 H 0.37871 0.10614 0.57046 0.0
H2625 H 0.43315 0.16916 0.55149 0.0
H2626 H 0.43496 0.19371 0.56734 0.0
H2627 H 0.41722 0.1926 0.54412 0.0
H2628 H 0.38467 0.20393 0.56828 0.0
H2629 H 0.40233 0.20513 0.59158 0.0
H2630 H 0.3784 0.1883 0.59224 0.0
H2631 H 0.40436 0.10728 0.60188 0.0
H2632 H 0.43066 0.11547 0.63097 0.0
H2633 H 0.43493 0.18212 0.60843 0.0
C2634 C 0.37852 0.16273 0.54167 0.0
C2635 C 0.36617 0.14543 0.53298 0.0
C2636 C 0.36616 0.12507 0.54368 0.0
C2637 C 0.37855 0.12181 0.56251 0.0
C2638 C 0.39067 0.13913 0.57056 0.0
C2639 C 0.39062 0.15926 0.56063 0.0
C2640 C 0.40512 0.17513 0.57267 0.0
C2641 C 0.42371 0.18311 0.55803 0.0
C2642 C 0.39183 0.19425 0.58173 0.0
C2643 C 0.41352 0.16069 0.59077 0.0
C2644 C 0.40503 0.13997 0.58915 0.0
C2645 C 0.41096 0.12349 0.60345 0.0
C2646 C 0.42596 0.12829 0.61986 0.0
C2647 C 0.43473 0.14944 0.622 0.0
C2648 C 0.42831 0.16586 0.60731 0.0
H2649 H 0.82477 0.37496 0.54099 0.0
H2650 H 0.89406 0.36403 0.53396 0.0
H2651 H 0.90088 0.38773 0.5657 0.0
H2652 H 0.82794 0.43092 0.55609 0.0
H2653 H 0.80592 0.42943 0.57533 0.0
H2654 H 0.80652 0.41133 0.55236 0.0
H2655 H 0.80406 0.37822 0.57823 0.0
H2656 H 0.80342 0.39623 0.60129 0.0
H2657 H 0.82376 0.37521 0.59968 0.0
H2658 H 0.90011 0.41328 0.59761 0.0
H2659 H 0.8919 0.43834 0.62782 0.0
H2660 H 0.823 0.43221 0.61428 0.0
C2661 C 0.84139 0.37749 0.54617 0.0
C2662 C 0.85892 0.36767 0.53503 0.0
C2663 C 0.88041 0.37139 0.54229 0.0
C2664 C 0.88443 0.38481 0.56027 0.0
C2665 C 0.86677 0.39431 0.57083 0.0
C2666 C 0.84567 0.39077 0.56409 0.0
C2667 C 0.82958 0.403 0.57816 0.0
C2668 C 0.81674 0.41966 0.56467 0.0
C2669 C 0.81431 0.38722 0.59005 0.0
C2670 C 0.84493 0.41409 0.59383 0.0
C2671 C 0.86631 0.40888 0.58931 0.0
C2672 C 0.88344 0.41741 0.60135 0.0
C2673 C 0.8786 0.43165 0.61846 0.0
C2674 C 0.85681 0.43718 0.62342 0.0
C2675 C 0.8398 0.42821 0.61093 0.0
H2676 H 0.57994 0.13834 0.38732 0.0
H2677 H 0.56222 0.20659 0.38633 0.0
H2678 H 0.58392 0.21263 0.41953 0.0
H2679 H 0.5788 0.13121 0.44513 0.0
H2680 H 0.60207 0.11345 0.44587 0.0
H2681 H 0.58514 0.11435 0.42203 0.0
H2682 H 0.61869 0.12347 0.39835 0.0
H2683 H 0.63575 0.12253 0.4221 0.0
H2684 H 0.63536 0.14651 0.40531 0.0
H2685 H 0.60621 0.21109 0.45322 0.0
H2686 H 0.6298 0.20281 0.48437 0.0
H2687 H 0.63477 0.13574 0.46309 0.0
C2688 C 0.58065 0.15456 0.3941 0.0
C2689 C 0.56934 0.17202 0.38433 0.0
C2690 C 0.57078 0.19301 0.39355 0.0
C2691 C 0.58302 0.19658 0.41242 0.0
C2692 C 0.59388 0.17902 0.42171 0.0
C2693 C 0.59301 0.15846 0.4128 0.0
C2694 C 0.60654 0.14251 0.42587 0.0
C2695 C 0.59228 0.1243 0.43528 0.0
C2696 C 0.62519 0.13321 0.41208 0.0
C2697 C 0.61503 0.15731 0.44363 0.0
C2698 C 0.60735 0.17826 0.44093 0.0
C2699 C 0.61242 0.19479 0.45544 0.0
C2700 C 0.6258 0.18988 0.47314 0.0
C2701 C 0.63416 0.16863 0.47615 0.0
C2702 C 0.6287 0.15214 0.46114 0.0
H2703 H 0.82094 0.56952 0.3919 0.0
H2704 H 0.89001 0.56405 0.37881 0.0
H2705 H 0.89778 0.58834 0.40971 0.0
H2706 H 0.82116 0.62589 0.40756 0.0
H2707 H 0.80126 0.62246 0.42876 0.0
H2708 H 0.80105 0.60472 0.40549 0.0
H2709 H 0.80359 0.57124 0.43088 0.0
H2710 H 0.80383 0.58888 0.45422 0.0
H2711 H 0.82545 0.56952 0.45028 0.0
H2712 H 0.89815 0.61343 0.44168 0.0
H2713 H 0.89103 0.63724 0.47319 0.0
H2714 H 0.82182 0.62591 0.4661 0.0
C2715 C 0.83768 0.57347 0.39554 0.0
C2716 C 0.85488 0.56494 0.38295 0.0
C2717 C 0.87658 0.5704 0.38825 0.0
C2718 C 0.88117 0.58419 0.40576 0.0
C2719 C 0.86388 0.59231 0.41787 0.0
C2720 C 0.84257 0.58714 0.41306 0.0
C2721 C 0.82704 0.59792 0.42883 0.0
C2722 C 0.81173 0.61369 0.41695 0.0
C2723 C 0.81423 0.58087 0.44182 0.0
C2724 C 0.84295 0.61 0.44319 0.0
C2725 C 0.86411 0.60658 0.43654 0.0
C2726 C 0.88165 0.6162 0.44709 0.0
C2727 C 0.87745 0.62969 0.46495 0.0
C2728 C 0.85591 0.63336 0.4721 0.0
C2729 C 0.83848 0.62332 0.46106 0.0
H2730 H 0.36992 0.86794 0.46649 0.0
H2731 H 0.35067 0.8004 0.47182 0.0
H2732 H 0.36679 0.79276 0.43598 0.0
H2733 H 0.36293 0.87341 0.40727 0.0
H2734 H 0.38692 0.88984 0.40402 0.0
H2735 H 0.37183 0.89078 0.4291 0.0
H2736 H 0.40667 0.88086 0.45053 0.0
H2737 H 0.42184 0.87994 0.42555 0.0
H2738 H 0.42158 0.85669 0.44334 0.0
H2739 H 0.38595 0.79181 0.40053 0.0
H2740 H 0.40973 0.79703 0.36868 0.0
H2741 H 0.41873 0.8646 0.3867 0.0
C2742 C 0.36887 0.85168 0.45986 0.0
C2743 C 0.35899 0.83476 0.47176 0.0
C2744 C 0.35825 0.81354 0.46291 0.0
C2745 C 0.36722 0.80907 0.44253 0.0
C2746 C 0.37712 0.82594 0.43125 0.0
C2747 C 0.37822 0.84679 0.43961 0.0
C2748 C 0.39148 0.86141 0.42487 0.0
C2749 C 0.37745 0.87996 0.41577 0.0
C2750 C 0.41158 0.87024 0.43678 0.0
C2751 C 0.39779 0.84544 0.40716 0.0
C2752 C 0.38901 0.82518 0.41102 0.0
C2753 C 0.39286 0.80762 0.39725 0.0
C2754 C 0.40636 0.81074 0.37918 0.0
C2755 C 0.41605 0.83119 0.37522 0.0
C2756 C 0.41148 0.8488 0.38929 0.0
H2757 H 0.14763 0.4282 0.38874 0.0
H2758 H 0.21658 0.44051 0.38087 0.0
H2759 H 0.22403 0.41972 0.41442 0.0
H2760 H 0.14597 0.43233 0.4469 0.0
H2761 H 0.12661 0.41064 0.45024 0.0
H2762 H 0.12664 0.42656 0.42569 0.0
H2763 H 0.13094 0.39151 0.40278 0.0
H2764 H 0.13084 0.37547 0.42724 0.0
H2765 H 0.15314 0.37325 0.4084 0.0
H2766 H 0.2239 0.39839 0.44904 0.0
H2767 H 0.21661 0.37621 0.48153 0.0
H2768 H 0.14772 0.37668 0.46654 0.0
C2769 C 0.1643 0.42652 0.39408 0.0
C2770 C 0.18156 0.43602 0.38226 0.0
C2771 C 0.20314 0.43335 0.38968 0.0
C2772 C 0.20751 0.42162 0.40873 0.0
C2773 C 0.19013 0.41255 0.42005 0.0
C2774 C 0.16897 0.41471 0.41295 0.0
C2775 C 0.15328 0.40305 0.42795 0.0
C2776 C 0.13718 0.41911 0.43831 0.0
C2777 C 0.14135 0.38473 0.41587 0.0
C2778 C 0.16894 0.39403 0.44467 0.0
C2779 C 0.19009 0.39984 0.43983 0.0
C2780 C 0.20742 0.39368 0.45295 0.0
C2781 C 0.20309 0.38112 0.47141 0.0
C2782 C 0.1816 0.37469 0.47657 0.0
C2783 C 0.16431 0.38131 0.463 0.0
H2784 H 0.61622 0.58128 0.86946 0.0
H2785 H 0.63532 0.59187 0.80242 0.0
H2786 H 0.60556 0.61842 0.7982 0.0
H2787 H 0.55998 0.58299 0.86104 0.0
H2788 H 0.55362 0.59709 0.88591 0.0
H2789 H 0.57753 0.58034 0.88433 0.0
H2790 H 0.60135 0.61297 0.89603 0.0
H2791 H 0.57747 0.62985 0.89771 0.0
H2792 H 0.59999 0.63799 0.88087 0.0
H2793 H 0.57174 0.64052 0.8 0.0
H2794 H 0.53681 0.65841 0.80818 0.0
H2795 H 0.54023 0.63517 0.87459 0.0
C2796 C 0.61434 0.58945 0.854 0.0
C2797 C 0.62809 0.58455 0.83625 0.0
C2798 C 0.62503 0.59544 0.81624 0.0
C2799 C 0.60818 0.61055 0.8137 0.0
C2800 C 0.59471 0.61476 0.8314 0.0
C2801 C 0.5977 0.60472 0.85124 0.0
C2802 C 0.58034 0.61153 0.86737 0.0
C2803 C 0.56709 0.59181 0.8751 0.0
C2804 C 0.59039 0.62382 0.88663 0.0
C2805 C 0.56679 0.62653 0.85331 0.0
C2806 C 0.57543 0.62815 0.83263 0.0
C2807 C 0.56503 0.6397 0.81623 0.0
C2808 C 0.54518 0.64973 0.82101 0.0
C2809 C 0.53604 0.64834 0.84206 0.0
C2810 C 0.54715 0.63686 0.8585 0.0
H2811 H 0.42753 0.61249 0.83174 0.0
H2812 H 0.43979 0.6247 0.90005 0.0
H2813 H 0.41617 0.59384 0.90987 0.0
H2814 H 0.37154 0.59616 0.83686 0.0
H2815 H 0.37347 0.57503 0.81667 0.0
H2816 H 0.39085 0.59849 0.81496 0.0
H2817 H 0.42472 0.57349 0.81448 0.0
H2818 H 0.40744 0.54995 0.81616 0.0
H2819 H 0.42854 0.55403 0.83603 0.0
H2820 H 0.39037 0.56235 0.91236 0.0
H2821 H 0.36634 0.53058 0.90719 0.0
H2822 H 0.37259 0.53732 0.83732 0.0
C2823 C 0.42516 0.60868 0.84874 0.0
C2824 C 0.43539 0.62103 0.86515 0.0
C2825 C 0.43212 0.61542 0.88723 0.0
C2826 C 0.41868 0.59797 0.89297 0.0
C2827 C 0.40883 0.5861 0.87643 0.0
C2828 C 0.41207 0.59104 0.85476 0.0
C2829 C 0.40015 0.57517 0.84019 0.0
C2830 C 0.38298 0.58692 0.82636 0.0
C2831 C 0.41617 0.5624 0.82588 0.0
C2832 C 0.38965 0.56064 0.85706 0.0
C2833 C 0.39468 0.56736 0.87787 0.0
C2834 C 0.38643 0.55683 0.89614 0.0
C2835 C 0.37277 0.53885 0.89306 0.0
C2836 C 0.36775 0.53144 0.8719 0.0
C2837 C 0.37633 0.54251 0.85371 0.0
H2838 H 0.38476 0.42946 0.83155 0.0
H2839 H 0.37346 0.42646 0.90107 0.0
H2840 H 0.4039 0.4007 0.90496 0.0
H2841 H 0.40069 0.37249 0.82444 0.0
H2842 H 0.42134 0.37883 0.80468 0.0
H2843 H 0.39767 0.39589 0.80709 0.0
H2844 H 0.42237 0.42942 0.81308 0.0
H2845 H 0.44608 0.41247 0.81072 0.0
H2846 H 0.44223 0.42897 0.8346 0.0
H2847 H 0.43677 0.37667 0.90169 0.0
H2848 H 0.46994 0.35643 0.89129 0.0
H2849 H 0.46003 0.37521 0.82408 0.0
C2850 C 0.38852 0.42313 0.84752 0.0
C2851 C 0.37668 0.42989 0.86599 0.0
C2852 C 0.38229 0.42149 0.88668 0.0
C2853 C 0.39953 0.4068 0.88906 0.0
C2854 C 0.41106 0.40065 0.87061 0.0
C2855 C 0.4058 0.40851 0.85023 0.0
C2856 C 0.42145 0.40006 0.83321 0.0
C2857 C 0.40957 0.38598 0.81636 0.0
C2858 C 0.43376 0.41885 0.82227 0.0
C2859 C 0.43644 0.38647 0.84725 0.0
C2860 C 0.43009 0.3869 0.86876 0.0
C2861 C 0.44181 0.37607 0.88486 0.0
C2862 C 0.46062 0.36463 0.87883 0.0
C2863 C 0.46752 0.36418 0.85691 0.0
C2864 C 0.4551 0.37513 0.84097 0.0
H2865 H 0.57227 0.39657 0.86435 0.0
H2866 H 0.56012 0.3918 0.79505 0.0
H2867 H 0.58199 0.42474 0.78891 0.0
H2868 H 0.57103 0.45527 0.86807 0.0
H2869 H 0.59295 0.45685 0.88741 0.0
H2870 H 0.57579 0.43317 0.88669 0.0
H2871 H 0.6096 0.40865 0.8815 0.0
H2872 H 0.62687 0.43225 0.88224 0.0
H2873 H 0.628 0.414 0.85935 0.0
H2874 H 0.60436 0.45799 0.79002 0.0
H2875 H 0.62811 0.48906 0.7979 0.0
H2876 H 0.62778 0.4722 0.86641 0.0
C2877 C 0.57416 0.40257 0.84792 0.0
C2878 C 0.56442 0.39172 0.83015 0.0
C2879 C 0.56744 0.39986 0.80887 0.0
C2880 C 0.57978 0.41858 0.80522 0.0
C2881 C 0.58918 0.42888 0.82302 0.0
C2882 C 0.58673 0.42115 0.84393 0.0
C2883 C 0.59925 0.43506 0.86001 0.0
C2884 C 0.58383 0.44572 0.87652 0.0
C2885 C 0.61698 0.42169 0.87145 0.0
C2886 C 0.60905 0.45181 0.8448 0.0
C2887 C 0.60282 0.44794 0.82359 0.0
C2888 C 0.60943 0.46118 0.80655 0.0
C2889 C 0.62289 0.47883 0.81123 0.0
C2890 C 0.62983 0.48305 0.83277 0.0
C2891 C 0.62278 0.46933 0.84979 0.0
H2892 H 0.545 0.37064 0.18216 0.0
H2893 H 0.55146 0.3419 0.11809 0.0
H2894 H 0.58684 0.36009 0.11348 0.0
H2895 H 0.56661 0.42168 0.16892 0.0
H2896 H 0.58077 0.42552 0.19426 0.0
H2897 H 0.55684 0.40879 0.19333 0.0
H2898 H 0.57853 0.37669 0.20981 0.0
H2899 H 0.60258 0.39335 0.21076 0.0
H2900 H 0.60313 0.36766 0.19672 0.0
H2901 H 0.61939 0.38413 0.11419 0.0
H2902 H 0.64762 0.41188 0.12061 0.0
H2903 H 0.62124 0.42397 0.18481 0.0
C2904 C 0.55403 0.36793 0.1673 0.0
C2905 C 0.54552 0.35483 0.15049 0.0
C2906 C 0.5577 0.35181 0.13121 0.0
C2907 C 0.57783 0.36204 0.12845 0.0
C2908 C 0.58567 0.37505 0.14522 0.0
C2909 C 0.57425 0.37792 0.16434 0.0
C2910 C 0.58589 0.39357 0.17938 0.0
C2911 C 0.57168 0.41357 0.18425 0.0
C2912 C 0.59295 0.38213 0.20041 0.0
C2913 C 0.60532 0.39947 0.16548 0.0
C2914 C 0.6049 0.38853 0.14587 0.0
C2915 C 0.62014 0.3925 0.12963 0.0
C2916 C 0.63608 0.40828 0.1334 0.0
C2917 C 0.63675 0.41976 0.1533 0.0
C2918 C 0.62141 0.41501 0.16967 0.0
H2919 H 0.63681 0.54041 0.13311 0.0
H2920 H 0.61838 0.51067 0.19436 0.0
H2921 H 0.59319 0.54078 0.20156 0.0
H2922 H 0.63479 0.59583 0.15117 0.0
H2923 H 0.62313 0.60627 0.12643 0.0
H2924 H 0.63992 0.58231 0.12569 0.0
H2925 H 0.60889 0.5609 0.10705 0.0
H2926 H 0.59204 0.58483 0.10761 0.0
H2927 H 0.58248 0.55994 0.11968 0.0
H2928 H 0.57131 0.57446 0.2033 0.0
H2929 H 0.55134 0.60877 0.19787 0.0
H2930 H 0.58193 0.61653 0.13481 0.0
C2931 C 0.62737 0.54023 0.14794 0.0
C2932 C 0.6296 0.52319 0.16317 0.0
C2933 C 0.61693 0.52349 0.1824 0.0
C2934 C 0.6026 0.54057 0.18671 0.0
C2935 C 0.60088 0.5572 0.17154 0.0
C2936 C 0.61266 0.55712 0.15242 0.0
C2937 C 0.60726 0.57695 0.13878 0.0
C2938 C 0.62748 0.59118 0.13532 0.0
C2939 C 0.59706 0.57025 0.11699 0.0
C2940 C 0.5908 0.58814 0.15335 0.0
C2941 C 0.58755 0.5765 0.17224 0.0
C2942 C 0.57356 0.58368 0.18851 0.0
C2943 C 0.56235 0.60321 0.18531 0.0
C2944 C 0.56503 0.61524 0.16591 0.0
C2945 C 0.57949 0.60759 0.14975 0.0
H2946 H 0.46162 0.63051 0.17707 0.0
H2947 H 0.47291 0.63913 0.108 0.0
H2948 H 0.44116 0.61603 0.09997 0.0
H2949 H 0.44613 0.57506 0.17457 0.0
H2950 H 0.42545 0.57709 0.1952 0.0
H2951 H 0.44834 0.59525 0.19568 0.0
H2952 H 0.42233 0.62833 0.19547 0.0
H2953 H 0.39932 0.61026 0.19507 0.0
H2954 H 0.40222 0.63071 0.17432 0.0
H2955 H 0.4099 0.5905 0.09931 0.0
H2956 H 0.37999 0.56483 0.10586 0.0
H2957 H 0.38794 0.57299 0.17545 0.0
C2958 C 0.45726 0.62772 0.16026 0.0
C2959 C 0.46971 0.63665 0.14312 0.0
C2960 C 0.46358 0.63251 0.12136 0.0
C2961 C 0.44558 0.61941 0.11665 0.0
C2962 C 0.43381 0.61067 0.13388 0.0
C2963 C 0.43927 0.61472 0.15526 0.0
C2964 C 0.42414 0.60285 0.1707 0.0
C2965 C 0.43677 0.5866 0.18487 0.0
C2966 C 0.41123 0.61901 0.18471 0.0
C2967 C 0.40951 0.59126 0.15463 0.0
C2968 C 0.41543 0.59605 0.1335 0.0
C2969 C 0.40498 0.58676 0.11577 0.0
C2970 C 0.38805 0.57214 0.11968 0.0
C2971 C 0.38159 0.56696 0.14116 0.0
C2972 C 0.3924 0.5768 0.15887 0.0
H2973 H 0.43531 0.3894 0.18008 0.0
H2974 H 0.43883 0.37286 0.11163 0.0
H2975 H 0.41136 0.40071 0.10337 0.0
H2976 H 0.37737 0.40179 0.18196 0.0
H2977 H 0.38053 0.42466 0.19997 0.0
H2978 H 0.39958 0.40245 0.20102 0.0
H2979 H 0.43138 0.42926 0.19479 0.0
H2980 H 0.41244 0.45154 0.19379 0.0
H2981 H 0.43088 0.44699 0.17149 0.0
H2982 H 0.38385 0.43 0.10211 0.0
H2983 H 0.35983 0.46157 0.10755 0.0
H2984 H 0.375 0.46128 0.17642 0.0
C2985 C 0.43013 0.3916 0.16342 0.0
C2986 C 0.43911 0.37893 0.14649 0.0
C2987 C 0.43221 0.38244 0.12483 0.0
C2988 C 0.41652 0.39813 0.11997 0.0
C2989 C 0.40802 0.41043 0.13692 0.0
C2990 C 0.41468 0.40759 0.15818 0.0
C2991 C 0.40373 0.42399 0.17302 0.0
C2992 C 0.38946 0.41253 0.19 0.0
C2993 C 0.42062 0.43882 0.18391 0.0
C2994 C 0.39001 0.43644 0.15672 0.0
C2995 C 0.39256 0.42808 0.13606 0.0
C2996 C 0.3817 0.43673 0.11821 0.0
C2997 C 0.36805 0.45464 0.12147 0.0
C2998 C 0.36556 0.4639 0.14238 0.0
C2999 C 0.37659 0.45453 0.16025 0.0
H3000 H 0.85094 0.52761 0.61123 0.0
H3001 H 0.83939 0.55841 0.6735 0.0
H3002 H 0.83542 0.59402 0.65516 0.0
H3003 H 0.88371 0.57153 0.58947 0.0
H3004 H 0.87365 0.56806 0.5622 0.0
H3005 H 0.87497 0.54513 0.58031 0.0
H3006 H 0.83396 0.53796 0.57409 0.0
H3007 H 0.83247 0.56099 0.55612 0.0
H3008 H 0.81465 0.55937 0.5793 0.0
H3009 H 0.83008 0.62572 0.62943 0.0
H3010 H 0.82944 0.65212 0.59902 0.0
H3011 H 0.84824 0.60104 0.55432 0.0
C3012 C 0.84765 0.5419 0.62096 0.0
C3013 C 0.84531 0.5404 0.64369 0.0
C3014 C 0.84129 0.55937 0.65603 0.0
C3015 C 0.83888 0.57958 0.64576 0.0
C3016 C 0.84103 0.58051 0.62322 0.0
C3017 C 0.84581 0.56224 0.61104 0.0
C3018 C 0.84835 0.56775 0.58722 0.0
C3019 C 0.87155 0.56283 0.57935 0.0
C3020 C 0.83134 0.55581 0.57337 0.0
C3021 C 0.844 0.59193 0.58784 0.0
C3022 C 0.83943 0.59894 0.60869 0.0
C3023 C 0.83392 0.62048 0.61309 0.0
C3024 C 0.83346 0.6353 0.59576 0.0
C3025 C 0.83896 0.62854 0.5745 0.0
C3026 C 0.84421 0.6066 0.57053 0.0
H3027 H 0.8295 0.47311 0.38955 0.0
H3028 H 0.865 0.44742 0.33431 0.0
H3029 H 0.86713 0.4116 0.35238 0.0
H3030 H 0.85992 0.44507 0.43018 0.0
H3031 H 0.83686 0.44046 0.44762 0.0
H3032 H 0.83731 0.4637 0.42989 0.0
H3033 H 0.80077 0.45158 0.41292 0.0
H3034 H 0.80023 0.42824 0.43057 0.0
H3035 H 0.79839 0.42469 0.40156 0.0
H3036 H 0.86581 0.3788 0.37672 0.0
H3037 H 0.86257 0.35178 0.40619 0.0
H3038 H 0.82854 0.39915 0.44584 0.0
C3039 C 0.8376 0.45991 0.3812 0.0
C3040 C 0.84702 0.46297 0.3605 0.0
C3041 C 0.85767 0.44538 0.35018 0.0
C3042 C 0.8589 0.42499 0.36028 0.0
C3043 C 0.84947 0.42252 0.38072 0.0
C3044 C 0.83911 0.43952 0.39111 0.0
C3045 C 0.83101 0.4328 0.41335 0.0
C3046 C 0.84193 0.44631 0.43132 0.0
C3047 C 0.80612 0.43442 0.41467 0.0
C3048 C 0.83851 0.40939 0.4139 0.0
C3049 C 0.84899 0.40373 0.39486 0.0
C3050 C 0.8576 0.38304 0.39168 0.0
C3051 C 0.85565 0.3678 0.4085 0.0
C3052 C 0.84529 0.37337 0.42828 0.0
C3053 C 0.83648 0.3944 0.43088 0.0
H3054 H 0.52616 0.86098 0.37215 0.0
H3055 H 0.51147 0.79214 0.36754 0.0
H3056 H 0.54373 0.78366 0.38949 0.0
H3057 H 0.58432 0.85595 0.36912 0.0
H3058 H 0.58964 0.87702 0.38873 0.0
H3059 H 0.56533 0.87799 0.3725 0.0
H3060 H 0.54192 0.87997 0.40743 0.0
H3061 H 0.56618 0.87907 0.42376 0.0
H3062 H 0.54499 0.85933 0.42798 0.0
H3063 H 0.57777 0.7822 0.4108 0.0
H3064 H 0.61097 0.7881 0.43237 0.0
H3065 H 0.60348 0.85782 0.42479 0.0
C3066 C 0.52976 0.84416 0.37582 0.0
C3067 C 0.51633 0.82722 0.36812 0.0
C3068 C 0.52149 0.8054 0.37331 0.0
C3069 C 0.53982 0.80038 0.38572 0.0
C3070 C 0.55277 0.81737 0.39301 0.0
C3071 C 0.54796 0.83882 0.38845 0.0
C3072 C 0.56453 0.8539 0.39868 0.0
C3073 C 0.57667 0.86698 0.38121 0.0
C3074 C 0.55376 0.86895 0.41546 0.0
C3075 C 0.57939 0.83751 0.40954 0.0
C3076 C 0.57232 0.81654 0.4059 0.0
C3077 C 0.58345 0.79854 0.41388 0.0
C3078 C 0.60231 0.80206 0.42606 0.0
C3079 C 0.60973 0.82339 0.43029 0.0
C3080 C 0.5981 0.84133 0.42189 0.0
H3081 H 0.18456 0.61232 0.42281 0.0
H3082 H 0.11574 0.61651 0.43741 0.0
H3083 H 0.1085 0.58651 0.41176 0.0
H3084 H 0.17925 0.59923 0.36546 0.0
H3085 H 0.20174 0.58047 0.36565 0.0
H3086 H 0.20136 0.60305 0.38427 0.0
H3087 H 0.20581 0.57656 0.41668 0.0
H3088 H 0.20627 0.55393 0.39817 0.0
H3089 H 0.18676 0.55459 0.41999 0.0
H3090 H 0.10887 0.55538 0.38505 0.0
H3091 H 0.11716 0.5244 0.36077 0.0
H3092 H 0.18575 0.54014 0.36436 0.0
C3093 C 0.16795 0.60703 0.42046 0.0
C3094 C 0.1507 0.61679 0.43201 0.0
C3095 C 0.12921 0.60926 0.4287 0.0
C3096 C 0.12492 0.59228 0.41412 0.0
C3097 C 0.14231 0.58294 0.40302 0.0
C3098 C 0.16341 0.58998 0.4061 0.0
C3099 C 0.17928 0.57655 0.39294 0.0
C3100 C 0.1911 0.59067 0.37608 0.0
C3101 C 0.19548 0.5647 0.40784 0.0
C3102 C 0.16383 0.56077 0.38212 0.0
C3103 C 0.14256 0.56483 0.38797 0.0
C3104 C 0.12547 0.55209 0.38029 0.0
C3105 C 0.13032 0.53457 0.36648 0.0
C3106 C 0.15207 0.5299 0.36066 0.0
C3107 C 0.16894 0.54335 0.36845 0.0
H3108 H 0.46704 0.17884 0.37232 0.0
H3109 H 0.47562 0.11031 0.35822 0.0
H3110 H 0.44319 0.10186 0.38049 0.0
H3111 H 0.4507 0.17271 0.42738 0.0
H3112 H 0.43118 0.19453 0.42655 0.0
H3113 H 0.45451 0.19513 0.40893 0.0
H3114 H 0.42931 0.19887 0.37543 0.0
H3115 H 0.40589 0.19833 0.39296 0.0
H3116 H 0.40821 0.17907 0.37102 0.0
H3117 H 0.41046 0.10099 0.40538 0.0
H3118 H 0.37976 0.10763 0.43037 0.0
H3119 H 0.39261 0.17688 0.42786 0.0
C3120 C 0.46204 0.16205 0.37378 0.0
C3121 C 0.47383 0.1452 0.36351 0.0
C3122 C 0.46679 0.12345 0.3659 0.0
C3123 C 0.44841 0.11852 0.37852 0.0
C3124 C 0.43725 0.13554 0.38856 0.0
C3125 C 0.44378 0.15687 0.38624 0.0
C3126 C 0.42923 0.17215 0.39895 0.0
C3127 C 0.44218 0.18434 0.41649 0.0
C3128 C 0.41746 0.18804 0.38368 0.0
C3129 C 0.41355 0.15609 0.40895 0.0
C3130 C 0.41843 0.13506 0.40274 0.0
C3131 C 0.40645 0.1174 0.41025 0.0
C3132 C 0.38905 0.12135 0.42446 0.0
C3133 C 0.38376 0.14278 0.43103 0.0
C3134 C 0.39619 0.16033 0.42306 0.0
H3135 H 0.14544 0.46839 0.6314 0.0
H3136 H 0.20855 0.46244 0.66222 0.0
H3137 H 0.21546 0.42869 0.64182 0.0
H3138 H 0.13314 0.41 0.62885 0.0
H3139 H 0.12059 0.41188 0.60247 0.0
H3140 H 0.11974 0.43475 0.62073 0.0
H3141 H 0.13724 0.45901 0.59116 0.0
H3142 H 0.13822 0.43621 0.57285 0.0
H3143 H 0.16272 0.45092 0.57916 0.0
H3144 H 0.21649 0.39664 0.61711 0.0
H3145 H 0.21165 0.36837 0.58908 0.0
H3146 H 0.14831 0.39504 0.57332 0.0
C3147 C 0.16054 0.45975 0.63408 0.0
C3148 C 0.17641 0.46796 0.6485 0.0
C3149 C 0.19614 0.45644 0.65128 0.0
C3150 C 0.20022 0.43722 0.6398 0.0
C3151 C 0.18444 0.42971 0.62547 0.0
C3152 C 0.16499 0.44056 0.62252 0.0
C3153 C 0.15133 0.42949 0.60524 0.0
C3154 C 0.12993 0.42102 0.6149 0.0
C3155 C 0.14714 0.44482 0.58596 0.0
C3156 C 0.16626 0.41091 0.59885 0.0
C3157 C 0.18519 0.41128 0.61087 0.0
C3158 C 0.20168 0.39609 0.60766 0.0
C3159 C 0.1988 0.38011 0.59169 0.0
C3160 C 0.17962 0.37947 0.57903 0.0
C3161 C 0.16312 0.39506 0.58279 0.0
H3162 H 0.6199 0.18541 0.57766 0.0
H3163 H 0.63703 0.11706 0.57909 0.0
H3164 H 0.60729 0.11011 0.60505 0.0
H3165 H 0.60259 0.19027 0.63481 0.0
H3166 H 0.58025 0.20806 0.62833 0.0
H3167 H 0.60434 0.20817 0.6117 0.0
H3168 H 0.5809 0.20039 0.57763 0.0
H3169 H 0.55677 0.20016 0.59415 0.0
H3170 H 0.56325 0.17703 0.57738 0.0
H3171 H 0.57483 0.11008 0.62923 0.0
H3172 H 0.54069 0.11675 0.64916 0.0
H3173 H 0.54331 0.1848 0.63091 0.0
C3174 C 0.61762 0.16909 0.58383 0.0
C3175 C 0.63084 0.15179 0.57661 0.0
C3176 C 0.62709 0.13054 0.58454 0.0
C3177 C 0.6103 0.12644 0.59931 0.0
C3178 C 0.59728 0.14375 0.60586 0.0
C3179 C 0.60066 0.16465 0.59836 0.0
C3180 C 0.58327 0.17997 0.60672 0.0
C3181 C 0.59321 0.19766 0.62126 0.0
C3182 C 0.57028 0.18997 0.58785 0.0
C3183 C 0.56948 0.16435 0.61983 0.0
C3184 C 0.57804 0.14361 0.61932 0.0
C3185 C 0.56802 0.12628 0.62985 0.0
C3186 C 0.54863 0.13022 0.64111 0.0
C3187 C 0.53937 0.15127 0.64156 0.0
C3188 C 0.55004 0.16855 0.63086 0.0
H3189 H 0.46052 0.81715 0.63677 0.0
H3190 H 0.47259 0.88629 0.64305 0.0
H3191 H 0.44015 0.89386 0.62046 0.0
H3192 H 0.44391 0.81782 0.5819 0.0
H3193 H 0.4233 0.79731 0.58517 0.0
H3194 H 0.44664 0.79746 0.60276 0.0
H3195 H 0.42147 0.79893 0.63647 0.0
H3196 H 0.39802 0.79868 0.61898 0.0
H3197 H 0.4014 0.82017 0.63858 0.0
H3198 H 0.40769 0.89359 0.59532 0.0
H3199 H 0.377 0.88577 0.57074 0.0
H3200 H 0.38588 0.81669 0.58154 0.0
C3201 C 0.45624 0.83391 0.6336 0.0
C3202 C 0.46905 0.85117 0.64168 0.0
C3203 C 0.46294 0.87285 0.63709 0.0
C3204 C 0.44458 0.87728 0.62427 0.0
C3205 C 0.43247 0.85984 0.61631 0.0
C3206 C 0.43797 0.83859 0.62095 0.0
C3207 C 0.42262 0.82274 0.61006 0.0
C3208 C 0.43485 0.80797 0.59402 0.0
C3209 C 0.41014 0.80934 0.62704 0.0
C3210 C 0.40772 0.83836 0.59829 0.0
C3211 C 0.41367 0.85969 0.60211 0.0
C3212 C 0.40279 0.87697 0.59238 0.0
C3213 C 0.38541 0.87235 0.5784 0.0
C3214 C 0.37899 0.85062 0.5743 0.0
C3215 C 0.39028 0.83346 0.58451 0.0
loop_
_geom_bond_atom_site_label_1
_geom_bond_atom_site_label_2
_geom_bond_distance
_geom_bond_site_symmetry_2
_ccdc_geom_bond_type
In0 O1 2.294 . S
In0 O2 2.326 . S
In0 O6 2.266 . S
In0 O7 2.326 . S
In0 O8 2.266 1_455 S
In0 O9 2.326 . S
In0 O11 2.294 . S
In0 O12 2.326 . S
O1 In0 2.294 . S
O1 C10 1.240 . S
O2 In0 2.326 . S
O2 C10 1.252 . S
C3 O6 1.252 . S
C3 O7 1.260 . S
C4 O11 1.240 . S
C4 O12 1.252 . S
C5 O8 1.252 . S
C5 O9 1.260 1_655 S
O6 In0 2.266 . S
O6 C3 1.252 . S
O7 In0 2.326 . S
O7 C3 1.260 . S
O8 In0 2.266 1_655 S
O8 C5 1.252 . S
O9 In0 2.326 . S
O9 C5 1.260 1_455 S
C10 O1 1.240 . S
C10 O2 1.252 . S
O11 In0 2.294 . S
O11 C4 1.240 . S
O12 In0 2.326 . S
O12 C4 1.252 . S
In13 O14 2.294 . S
In13 O15 2.326 . S
In13 O19 2.266 1_545 S
In13 O20 2.326 . S
In13 O21 2.266 . S
In13 O22 2.326 . S
In13 O24 2.294 . S
In13 O25 2.326 . S
O14 In13 2.294 . S
O14 C23 1.240 . S
O15 In13 2.326 . S
O15 C23 1.252 . S
C16 O19 1.252 . S
C16 O20 1.260 1_565 S
C17 O24 1.240 . S
C17 O25 1.252 . S
C18 O21 1.252 . S
C18 O22 1.260 . S
O19 In13 2.266 1_565 S
O19 C16 1.252 . S
O20 In13 2.326 . S
O20 C16 1.260 1_545 S
O21 In13 2.266 . S
O21 C18 1.252 . S
O22 In13 2.326 . S
O22 C18 1.260 . S
C23 O14 1.240 . S
C23 O15 1.252 . S
O24 In13 2.294 . S
O24 C17 1.240 . S
O25 In13 2.326 . S
O25 C17 1.252 . S
In26 O27 2.294 . S
In26 O28 2.326 . S
In26 O32 2.266 . S
In26 O33 2.326 . S
In26 O34 2.266 1_655 S
In26 O35 2.326 . S
In26 O37 2.294 . S
In26 O38 2.326 . S
O27 In26 2.294 . S
O27 C36 1.240 . S
O28 In26 2.326 . S
O28 C36 1.252 . S
C29 O32 1.252 . S
C29 O33 1.260 . S
C30 O37 1.240 . S
C30 O38 1.252 . S
C31 O34 1.252 . S
C31 O35 1.260 1_455 S
O32 In26 2.266 . S
O32 C29 1.252 . S
O33 In26 2.326 . S
O33 C29 1.260 . S
O34 In26 2.266 1_455 S
O34 C31 1.252 . S
O35 In26 2.326 . S
O35 C31 1.260 1_655 S
C36 O27 1.240 . S
C36 O28 1.252 . S
O37 In26 2.294 . S
O37 C30 1.240 . S
O38 In26 2.326 . S
O38 C30 1.252 . S
In39 O40 2.294 . S
In39 O41 2.326 . S
In39 O45 2.266 1_565 S
In39 O46 2.326 . S
In39 O47 2.266 . S
In39 O48 2.326 . S
In39 O50 2.294 . S
In39 O51 2.326 . S
O40 In39 2.294 . S
O40 C49 1.240 . S
O41 In39 2.326 . S
O41 C49 1.252 . S
C42 O45 1.252 . S
C42 O46 1.260 1_545 S
C43 O50 1.240 . S
C43 O51 1.252 . S
C44 O47 1.252 . S
C44 O48 1.260 . S
O45 In39 2.266 1_545 S
O45 C42 1.252 . S
O46 In39 2.326 . S
O46 C42 1.260 1_565 S
O47 In39 2.266 . S
O47 C44 1.252 . S
O48 In39 2.326 . S
O48 C44 1.260 . S
C49 O40 1.240 . S
C49 O41 1.252 . S
O50 In39 2.294 . S
O50 C43 1.240 . S
O51 In39 2.326 . S
O51 C43 1.252 . S
In52 O53 2.294 . S
In52 O54 2.326 . S
In52 O58 2.266 1_455 S
In52 O59 2.326 . S
In52 O60 2.266 . S
In52 O61 2.326 . S
In52 O63 2.294 . S
In52 O64 2.326 . S
O53 In52 2.294 . S
O53 C62 1.240 . S
O54 In52 2.326 . S
O54 C62 1.252 . S
C55 O58 1.252 . S
C55 O59 1.260 1_655 S
C56 O63 1.240 . S
C56 O64 1.252 . S
C57 O60 1.252 . S
C57 O61 1.260 . S
O58 In52 2.266 1_655 S
O58 C55 1.252 . S
O59 In52 2.326 . S
O59 C55 1.260 1_455 S
O60 In52 2.266 . S
O60 C57 1.252 . S
O61 In52 2.326 . S
O61 C57 1.260 . S
C62 O53 1.240 . S
C62 O54 1.252 . S
O63 In52 2.294 . S
O63 C56 1.240 . S
O64 In52 2.326 . S
O64 C56 1.252 . S
In65 O66 2.294 . S
In65 O67 2.326 . S
In65 O71 2.266 . S
In65 O72 2.326 . S
In65 O73 2.266 1_545 S
In65 O74 2.326 . S
In65 O76 2.294 . S
In65 O77 2.326 . S
O66 In65 2.294 . S
O66 C75 1.240 . S
O67 In65 2.326 . S
O67 C75 1.252 . S
C68 O71 1.252 . S
C68 O72 1.260 . S
C69 O76 1.240 . S
C69 O77 1.252 . S
C70 O73 1.252 . S
C70 O74 1.260 1_565 S
O71 In65 2.266 . S
O71 C68 1.252 . S
O72 In65 2.326 . S
O72 C68 1.260 . S
O73 In65 2.266 1_565 S
O73 C70 1.252 . S
O74 In65 2.326 . S
O74 C70 1.260 1_545 S
C75 O66 1.240 . S
C75 O67 1.252 . S
O76 In65 2.294 . S
O76 C69 1.240 . S
O77 In65 2.326 . S
O77 C69 1.252 . S
In78 O79 2.294 . S
In78 O80 2.326 . S
In78 O84 2.266 . S
In78 O85 2.326 . S
In78 O86 2.266 1_655 S
In78 O87 2.326 . S
In78 O89 2.294 . S
In78 O90 2.326 . S
O79 In78 2.294 . S
O79 C88 1.240 . S
O80 In78 2.326 . S
O80 C88 1.252 . S
C81 O84 1.252 . S
C81 O85 1.260 . S
C82 O89 1.240 . S
C82 O90 1.252 . S
C83 O86 1.252 . S
C83 O87 1.260 1_455 S
O84 In78 2.266 . S
O84 C81 1.252 . S
O85 In78 2.326 . S
O85 C81 1.260 . S
O86 In78 2.266 1_455 S
O86 C83 1.252 . S
O87 In78 2.326 . S
O87 C83 1.260 1_655 S
C88 O79 1.240 . S
C88 O80 1.252 . S
O89 In78 2.294 . S
O89 C82 1.240 . S
O90 In78 2.326 . S
O90 C82 1.252 . S
In91 O92 2.294 . S
In91 O93 2.326 . S
In91 O97 2.266 . S
In91 O98 2.326 . S
In91 O99 2.266 1_565 S
In91 O100 2.326 . S
In91 O102 2.294 . S
In91 O103 2.326 . S
O92 In91 2.294 . S
O92 C101 1.240 . S
O93 In91 2.326 . S
O93 C101 1.252 . S
C94 O97 1.252 . S
C94 O98 1.260 . S
C95 O102 1.240 . S
C95 O103 1.252 . S
C96 O99 1.252 . S
C96 O100 1.260 1_545 S
O97 In91 2.266 . S
O97 C94 1.252 . S
O98 In91 2.326 . S
O98 C94 1.260 . S
O99 In91 2.266 1_545 S
O99 C96 1.252 . S
O100 In91 2.326 . S
O100 C96 1.260 1_565 S
C101 O92 1.240 . S
C101 O93 1.252 . S
O102 In91 2.294 . S
O102 C95 1.240 . S
O103 In91 2.326 . S
O103 C95 1.252 . S
In104 O105 2.294 . S
In104 O106 2.326 . S
In104 O110 2.266 1_545 S
In104 O111 2.326 . S
In104 O112 2.266 . S
In104 O113 2.326 . S
In104 O115 2.294 . S
In104 O116 2.326 . S
O105 In104 2.294 . S
O105 C114 1.240 . S
O106 In104 2.326 . S
O106 C114 1.252 . S
C107 O110 1.252 . S
C107 O111 1.260 1_565 S
C108 O115 1.240 . S
C108 O116 1.252 . S
C109 O112 1.252 . S
C109 O113 1.260 . S
O110 In104 2.266 1_565 S
O110 C107 1.252 . S
O111 In104 2.326 . S
O111 C107 1.260 1_545 S
O112 In104 2.266 . S
O112 C109 1.252 . S
O113 In104 2.326 . S
O113 C109 1.260 . S
C114 O105 1.240 . S
C114 O106 1.252 . S
O115 In104 2.294 . S
O115 C108 1.240 . S
O116 In104 2.326 . S
O116 C108 1.252 . S
In117 O118 2.294 . S
In117 O119 2.326 . S
In117 O123 2.266 . S
In117 O124 2.326 . S
In117 O125 2.266 1_655 S
In117 O126 2.326 . S
In117 O128 2.294 . S
In117 O129 2.326 . S
O118 In117 2.294 . S
O118 C127 1.240 . S
O119 In117 2.326 . S
O119 C127 1.252 . S
C120 O123 1.252 . S
C120 O124 1.260 . S
C121 O128 1.240 . S
C121 O129 1.252 . S
C122 O125 1.252 . S
C122 O126 1.260 1_455 S
O123 In117 2.266 . S
O123 C120 1.252 . S
O124 In117 2.326 . S
O124 C120 1.260 . S
O125 In117 2.266 1_455 S
O125 C122 1.252 . S
O126 In117 2.326 . S
O126 C122 1.260 1_655 S
C127 O118 1.240 . S
C127 O119 1.252 . S
O128 In117 2.294 . S
O128 C121 1.240 . S
O129 In117 2.326 . S
O129 C121 1.252 . S
In130 O131 2.294 . S
In130 O132 2.326 . S
In130 O136 2.266 1_565 S
In130 O137 2.326 . S
In130 O138 2.266 . S
In130 O139 2.326 . S
In130 O141 2.294 . S
In130 O142 2.326 . S
O131 In130 2.294 . S
O131 C140 1.240 . S
O132 In130 2.326 . S
O132 C140 1.252 . S
C133 O136 1.252 . S
C133 O137 1.260 1_545 S
C134 O141 1.240 . S
C134 O142 1.252 . S
C135 O138 1.252 . S
C135 O139 1.260 . S
O136 In130 2.266 1_545 S
O136 C133 1.252 . S
O137 In130 2.326 . S
O137 C133 1.260 1_565 S
O138 In130 2.266 . S
O138 C135 1.252 . S
O139 In130 2.326 . S
O139 C135 1.260 . S
C140 O131 1.240 . S
C140 O132 1.252 . S
O141 In130 2.294 . S
O141 C134 1.240 . S
O142 In130 2.326 . S
O142 C134 1.252 . S
In143 O144 2.294 . S
In143 O145 2.326 . S
In143 O149 2.266 . S
In143 O150 2.326 . S
In143 O151 2.266 1_455 S
In143 O152 2.326 . S
In143 O154 2.294 . S
In143 O155 2.326 . S
O144 In143 2.294 . S
O144 C153 1.240 . S
O145 In143 2.326 . S
O145 C153 1.252 . S
C146 O149 1.252 . S
C146 O150 1.260 . S
C147 O154 1.240 . S
C147 O155 1.252 . S
C148 O151 1.252 . S
C148 O152 1.260 1_655 S
O149 In143 2.266 . S
O149 C146 1.252 . S
O150 In143 2.326 . S
O150 C146 1.260 . S
O151 In143 2.266 1_655 S
O151 C148 1.252 . S
O152 In143 2.326 . S
O152 C148 1.260 1_455 S
C153 O144 1.240 . S
C153 O145 1.252 . S
O154 In143 2.294 . S
O154 C147 1.240 . S
O155 In143 2.326 . S
O155 C147 1.252 . S
In156 O157 2.294 . S
In156 O158 2.326 . S
In156 O162 2.266 . S
In156 O163 2.326 . S
In156 O164 2.266 1_565 S
In156 O165 2.326 . S
In156 O167 2.294 . S
In156 O168 2.326 . S
O157 In156 2.294 . S
O157 C166 1.240 . S
O158 In156 2.326 . S
O158 C166 1.252 . S
C159 O162 1.252 . S
C159 O163 1.260 . S
C160 O167 1.240 . S
C160 O168 1.252 . S
C161 O164 1.252 . S
C161 O165 1.260 1_545 S
O162 In156 2.266 . S
O162 C159 1.252 . S
O163 In156 2.326 . S
O163 C159 1.260 . S
O164 In156 2.266 1_545 S
O164 C161 1.252 . S
O165 In156 2.326 . S
O165 C161 1.260 1_565 S
C166 O157 1.240 . S
C166 O158 1.252 . S
O167 In156 2.294 . S
O167 C160 1.240 . S
O168 In156 2.326 . S
O168 C160 1.252 . S
In169 O170 2.294 . S
In169 O171 2.326 . S
In169 O175 2.266 1_455 S
In169 O176 2.326 . S
In169 O177 2.266 . S
In169 O178 2.326 . S
In169 O180 2.294 . S
In169 O181 2.326 . S
O170 In169 2.294 . S
O170 C179 1.240 . S
O171 In169 2.326 . S
O171 C179 1.252 . S
C172 O175 1.252 . S
C172 O176 1.260 1_655 S
C173 O180 1.240 . S
C173 O181 1.252 . S
C174 O177 1.252 . S
C174 O178 1.260 . S
O175 In169 2.266 1_655 S
O175 C172 1.252 . S
O176 In169 2.326 . S
O176 C172 1.260 1_455 S
O177 In169 2.266 . S
O177 C174 1.252 . S
O178 In169 2.326 . S
O178 C174 1.260 . S
C179 O170 1.240 . S
C179 O171 1.252 . S
O180 In169 2.294 . S
O180 C173 1.240 . S
O181 In169 2.326 . S
O181 C173 1.252 . S
In182 O183 2.294 . S
In182 O184 2.326 . S
In182 O188 2.266 1_545 S
In182 O189 2.326 . S
In182 O190 2.266 . S
In182 O191 2.326 . S
In182 O193 2.294 . S
In182 O194 2.326 . S
O183 In182 2.294 . S
O183 C192 1.240 . S
O184 In182 2.326 . S
O184 C192 1.252 . S
C185 O188 1.252 . S
C185 O189 1.260 1_565 S
C186 O193 1.240 . S
C186 O194 1.252 . S
C187 O190 1.252 . S
C187 O191 1.260 . S
O188 In182 2.266 1_565 S
O188 C185 1.252 . S
O189 In182 2.326 . S
O189 C185 1.260 1_545 S
O190 In182 2.266 . S
O190 C187 1.252 . S
O191 In182 2.326 . S
O191 C187 1.260 . S
C192 O183 1.240 . S
C192 O184 1.252 . S
O193 In182 2.294 . S
O193 C186 1.240 . S
O194 In182 2.326 . S
O194 C186 1.252 . S
In195 O196 2.294 . S
In195 O197 2.326 . S
In195 O201 2.266 . S
In195 O202 2.326 . S
In195 O203 2.266 1_655 S
In195 O204 2.326 . S
In195 O206 2.294 . S
In195 O207 2.326 . S
O196 In195 2.294 . S
O196 C205 1.240 . S
O197 In195 2.326 . S
O197 C205 1.252 . S
C198 O201 1.252 . S
C198 O202 1.260 . S
C199 O206 1.240 . S
C199 O207 1.252 . S
C200 O203 1.252 . S
C200 O204 1.260 1_455 S
O201 In195 2.266 . S
O201 C198 1.252 . S
O202 In195 2.326 . S
O202 C198 1.260 . S
O203 In195 2.266 1_455 S
O203 C200 1.252 . S
O204 In195 2.326 . S
O204 C200 1.260 1_655 S
C205 O196 1.240 . S
C205 O197 1.252 . S
O206 In195 2.294 . S
O206 C199 1.240 . S
O207 In195 2.326 . S
O207 C199 1.252 . S
In208 O209 2.294 . S
In208 O210 2.326 . S
In208 O214 2.266 . S
In208 O215 2.326 . S
In208 O216 2.266 1_554 S
In208 O217 2.326 . S
In208 O219 2.294 . S
In208 O220 2.326 . S
O209 In208 2.294 . S
O209 C218 1.240 . S
O210 In208 2.326 . S
O210 C218 1.252 . S
C211 O214 1.252 . S
C211 O215 1.260 . S
C212 O219 1.240 . S
C212 O220 1.252 . S
C213 O216 1.252 . S
C213 O217 1.260 1_556 S
O214 In208 2.266 . S
O214 C211 1.252 . S
O215 In208 2.326 . S
O215 C211 1.260 . S
O216 In208 2.266 1_556 S
O216 C213 1.252 . S
O217 In208 2.326 . S
O217 C213 1.260 1_554 S
C218 O209 1.240 . S
C218 O210 1.252 . S
O219 In208 2.294 . S
O219 C212 1.240 . S
O220 In208 2.326 . S
O220 C212 1.252 . S
In221 O222 2.294 . S
In221 O223 2.326 . S
In221 O227 2.266 . S
In221 O228 2.326 . S
In221 O229 2.266 1_556 S
In221 O230 2.326 . S
In221 O232 2.294 . S
In221 O233 2.326 . S
O222 In221 2.294 . S
O222 C231 1.240 . S
O223 In221 2.326 . S
O223 C231 1.252 . S
C224 O227 1.252 . S
C224 O228 1.260 . S
C225 O232 1.240 . S
C225 O233 1.252 . S
C226 O229 1.252 . S
C226 O230 1.260 1_554 S
O227 In221 2.266 . S
O227 C224 1.252 . S
O228 In221 2.326 . S
O228 C224 1.260 . S
O229 In221 2.266 1_554 S
O229 C226 1.252 . S
O230 In221 2.326 . S
O230 C226 1.260 1_556 S
C231 O222 1.240 . S
C231 O223 1.252 . S
O232 In221 2.294 . S
O232 C225 1.240 . S
O233 In221 2.326 . S
O233 C225 1.252 . S
In234 O235 2.294 . S
In234 O236 2.326 . S
In234 O240 2.266 . S
In234 O241 2.326 . S
In234 O242 2.266 1_556 S
In234 O243 2.326 . S
In234 O245 2.294 . S
In234 O246 2.326 . S
O235 In234 2.294 . S
O235 C244 1.240 . S
O236 In234 2.326 . S
O236 C244 1.252 . S
C237 O240 1.252 . S
C237 O241 1.260 . S
C238 O245 1.240 . S
C238 O246 1.252 . S
C239 O242 1.252 . S
C239 O243 1.260 1_554 S
O240 In234 2.266 . S
O240 C237 1.252 . S
O241 In234 2.326 . S
O241 C237 1.260 . S
O242 In234 2.266 1_554 S
O242 C239 1.252 . S
O243 In234 2.326 . S
O243 C239 1.260 1_556 S
C244 O235 1.240 . S
C244 O236 1.252 . S
O245 In234 2.294 . S
O245 C238 1.240 . S
O246 In234 2.326 . S
O246 C238 1.252 . S
In247 O248 2.294 . S
In247 O249 2.326 . S
In247 O253 2.266 1_556 S
In247 O254 2.326 . S
In247 O255 2.266 . S
In247 O256 2.326 . S
In247 O258 2.294 . S
In247 O259 2.326 . S
O248 In247 2.294 . S
O248 C257 1.240 . S
O249 In247 2.326 . S
O249 C257 1.252 . S
C250 O253 1.252 . S
C250 O254 1.260 1_554 S
C251 O258 1.240 . S
C251 O259 1.252 . S
C252 O255 1.252 . S
C252 O256 1.260 . S
O253 In247 2.266 1_554 S
O253 C250 1.252 . S
O254 In247 2.326 . S
O254 C250 1.260 1_556 S
O255 In247 2.266 . S
O255 C252 1.252 . S
O256 In247 2.326 . S
O256 C252 1.260 . S
C257 O248 1.240 . S
C257 O249 1.252 . S
O258 In247 2.294 . S
O258 C251 1.240 . S
O259 In247 2.326 . S
O259 C251 1.252 . S
In260 O261 2.294 . S
In260 O262 2.326 . S
In260 O266 2.266 1_556 S
In260 O267 2.326 . S
In260 O268 2.266 . S
In260 O269 2.326 . S
In260 O271 2.294 . S
In260 O272 2.326 . S
O261 In260 2.294 . S
O261 C270 1.240 . S
O262 In260 2.326 . S
O262 C270 1.252 . S
C263 O266 1.252 . S
C263 O267 1.260 1_554 S
C264 O271 1.240 . S
C264 O272 1.252 . S
C265 O268 1.252 . S
C265 O269 1.260 . S
O266 In260 2.266 1_554 S
O266 C263 1.252 . S
O267 In260 2.326 . S
O267 C263 1.260 1_556 S
O268 In260 2.266 . S
O268 C265 1.252 . S
O269 In260 2.326 . S
O269 C265 1.260 . S
C270 O261 1.240 . S
C270 O262 1.252 . S
O271 In260 2.294 . S
O271 C264 1.240 . S
O272 In260 2.326 . S
O272 C264 1.252 . S
In273 O274 2.294 . S
In273 O275 2.326 . S
In273 O279 2.266 . S
In273 O280 2.326 . S
In273 O281 2.266 1_554 S
In273 O282 2.326 . S
In273 O284 2.294 . S
In273 O285 2.326 . S
O274 In273 2.294 . S
O274 C283 1.240 . S
O275 In273 2.326 . S
O275 C283 1.252 . S
C276 O279 1.252 . S
C276 O280 1.260 . S
C277 O284 1.240 . S
C277 O285 1.252 . S
C278 O281 1.252 . S
C278 O282 1.260 1_556 S
O279 In273 2.266 . S
O279 C276 1.252 . S
O280 In273 2.326 . S
O280 C276 1.260 . S
O281 In273 2.266 1_556 S
O281 C278 1.252 . S
O282 In273 2.326 . S
O282 C278 1.260 1_554 S
C283 O274 1.240 . S
C283 O275 1.252 . S
O284 In273 2.294 . S
O284 C277 1.240 . S
O285 In273 2.326 . S
O285 C277 1.252 . S
In286 O287 2.294 . S
In286 O288 2.326 . S
In286 O292 2.266 1_554 S
In286 O293 2.326 . S
In286 O294 2.266 . S
In286 O295 2.326 . S
In286 O297 2.294 . S
In286 O298 2.326 . S
O287 In286 2.294 . S
O287 C296 1.240 . S
O288 In286 2.326 . S
O288 C296 1.252 . S
C289 O292 1.252 . S
C289 O293 1.260 1_556 S
C290 O297 1.240 . S
C290 O298 1.252 . S
C291 O294 1.252 . S
C291 O295 1.260 . S
O292 In286 2.266 1_556 S
O292 C289 1.252 . S
O293 In286 2.326 . S
O293 C289 1.260 1_554 S
O294 In286 2.266 . S
O294 C291 1.252 . S
O295 In286 2.326 . S
O295 C291 1.260 . S
C296 O287 1.240 . S
C296 O288 1.252 . S
O297 In286 2.294 . S
O297 C290 1.240 . S
O298 In286 2.326 . S
O298 C290 1.252 . S
In299 O300 2.294 . S
In299 O301 2.326 . S
In299 O305 2.266 . S
In299 O306 2.326 . S
In299 O307 2.266 1_554 S
In299 O308 2.326 . S
In299 O310 2.294 . S
In299 O311 2.326 . S
O300 In299 2.294 . S
O300 C309 1.240 . S
O301 In299 2.326 . S
O301 C309 1.252 . S
C302 O305 1.252 . S
C302 O306 1.260 . S
C303 O310 1.240 . S
C303 O311 1.252 . S
C304 O307 1.252 . S
C304 O308 1.260 1_556 S
O305 In299 2.266 . S
O305 C302 1.252 . S
O306 In299 2.326 . S
O306 C302 1.260 . S
O307 In299 2.266 1_556 S
O307 C304 1.252 . S
O308 In299 2.326 . S
O308 C304 1.260 1_554 S
C309 O300 1.240 . S
C309 O301 1.252 . S
O310 In299 2.294 . S
O310 C303 1.240 . S
O311 In299 2.326 . S
O311 C303 1.252 . S
In312 O313 2.294 . S
In312 O314 2.326 . S
In312 O318 2.266 . S
In312 O319 2.326 . S
In312 O320 2.266 . S
In312 O321 2.326 . S
In312 O323 2.294 . S
In312 O324 2.326 . S
O313 In312 2.294 . S
O313 C322 1.240 . S
O314 In312 2.326 . S
O314 C322 1.252 . S
C315 O318 1.252 . S
C315 O319 1.260 . S
C316 O323 1.240 . S
C316 O324 1.252 . S
C317 O320 1.252 . S
C317 O321 1.260 . S
O318 In312 2.266 . S
O318 C315 1.252 . S
O319 In312 2.326 . S
O319 C315 1.260 . S
O320 In312 2.266 . S
O320 C317 1.252 . S
O321 In312 2.326 . S
O321 C317 1.260 . S
C322 O313 1.240 . S
C322 O314 1.252 . S
O323 In312 2.294 . S
O323 C316 1.240 . S
O324 In312 2.326 . S
O324 C316 1.252 . S
In325 O326 2.294 . S
In325 O327 2.326 . S
In325 O331 2.266 . S
In325 O332 2.326 . S
In325 O333 2.266 . S
In325 O334 2.326 . S
In325 O336 2.294 . S
In325 O337 2.326 . S
O326 In325 2.294 . S
O326 C335 1.240 . S
O327 In325 2.326 . S
O327 C335 1.252 . S
C328 O331 1.252 . S
C328 O332 1.260 . S
C329 O336 1.240 . S
C329 O337 1.252 . S
C330 O333 1.252 . S
C330 O334 1.260 . S
O331 In325 2.266 . S
O331 C328 1.252 . S
O332 In325 2.326 . S
O332 C328 1.260 . S
O333 In325 2.266 . S
O333 C330 1.252 . S
O334 In325 2.326 . S
O334 C330 1.260 . S
C335 O326 1.240 . S
C335 O327 1.252 . S
O336 In325 2.294 . S
O336 C329 1.240 . S
O337 In325 2.326 . S
O337 C329 1.252 . S
In338 O339 2.294 . S
In338 O340 2.326 . S
In338 O344 2.266 . S
In338 O345 2.326 . S
In338 O346 2.266 . S
In338 O347 2.326 . S
In338 O349 2.294 . S
In338 O350 2.326 . S
O339 In338 2.294 . S
O339 C348 1.240 . S
O340 In338 2.326 . S
O340 C348 1.252 . S
C341 O344 1.252 . S
C341 O345 1.260 . S
C342 O349 1.240 . S
C342 O350 1.252 . S
C343 O346 1.252 . S
C343 O347 1.260 . S
O344 In338 2.266 . S
O344 C341 1.252 . S
O345 In338 2.326 . S
O345 C341 1.260 . S
O346 In338 2.266 . S
O346 C343 1.252 . S
O347 In338 2.326 . S
O347 C343 1.260 . S
C348 O339 1.240 . S
C348 O340 1.252 . S
O349 In338 2.294 . S
O349 C342 1.240 . S
O350 In338 2.326 . S
O350 C342 1.252 . S
In351 O352 2.294 . S
In351 O353 2.326 . S
In351 O357 2.266 . S
In351 O358 2.326 . S
In351 O359 2.266 . S
In351 O360 2.326 . S
In351 O362 2.294 . S
In351 O363 2.326 . S
O352 In351 2.294 . S
O352 C361 1.240 . S
O353 In351 2.326 . S
O353 C361 1.252 . S
C354 O357 1.252 . S
C354 O358 1.260 . S
C355 O362 1.240 . S
C355 O363 1.252 . S
C356 O359 1.252 . S
C356 O360 1.260 . S
O357 In351 2.266 . S
O357 C354 1.252 . S
O358 In351 2.326 . S
O358 C354 1.260 . S
O359 In351 2.266 . S
O359 C356 1.252 . S
O360 In351 2.326 . S
O360 C356 1.260 . S
C361 O352 1.240 . S
C361 O353 1.252 . S
O362 In351 2.294 . S
O362 C355 1.240 . S
O363 In351 2.326 . S
O363 C355 1.252 . S
In364 O365 2.294 . S
In364 O366 2.326 . S
In364 O370 2.266 . S
In364 O371 2.326 . S
In364 O372 2.266 . S
In364 O373 2.326 . S
In364 O375 2.294 . S
In364 O376 2.326 . S
O365 In364 2.294 . S
O365 C374 1.240 . S
O366 In364 2.326 . S
O366 C374 1.252 . S
C367 O370 1.252 . S
C367 O371 1.260 . S
C368 O375 1.240 . S
C368 O376 1.252 . S
C369 O372 1.252 . S
C369 O373 1.260 . S
O370 In364 2.266 . S
O370 C367 1.252 . S
O371 In364 2.326 . S
O371 C367 1.260 . S
O372 In364 2.266 . S
O372 C369 1.252 . S
O373 In364 2.326 . S
O373 C369 1.260 . S
C374 O365 1.240 . S
C374 O366 1.252 . S
O375 In364 2.294 . S
O375 C368 1.240 . S
O376 In364 2.326 . S
O376 C368 1.252 . S
In377 O378 2.294 . S
In377 O379 2.326 . S
In377 O383 2.266 . S
In377 O384 2.326 . S
In377 O385 2.266 . S
In377 O386 2.326 . S
In377 O388 2.294 . S
In377 O389 2.326 . S
O378 In377 2.294 . S
O378 C387 1.240 . S
O379 In377 2.326 . S
O379 C387 1.252 . S
C380 O383 1.252 . S
C380 O384 1.260 . S
C381 O388 1.240 . S
C381 O389 1.252 . S
C382 O385 1.252 . S
C382 O386 1.260 . S
O383 In377 2.266 . S
O383 C380 1.252 . S
O384 In377 2.326 . S
O384 C380 1.260 . S
O385 In377 2.266 . S
O385 C382 1.252 . S
O386 In377 2.326 . S
O386 C382 1.260 . S
C387 O378 1.240 . S
C387 O379 1.252 . S
O388 In377 2.294 . S
O388 C381 1.240 . S
O389 In377 2.326 . S
O389 C381 1.252 . S
In390 O391 2.294 . S
In390 O392 2.326 . S
In390 O396 2.266 . S
In390 O397 2.326 . S
In390 O398 2.266 . S
In390 O399 2.326 . S
In390 O401 2.294 . S
In390 O402 2.326 . S
O391 In390 2.294 . S
O391 C400 1.240 . S
O392 In390 2.326 . S
O392 C400 1.252 . S
C393 O396 1.252 . S
C393 O397 1.260 . S
C394 O401 1.240 . S
C394 O402 1.252 . S
C395 O398 1.252 . S
C395 O399 1.260 . S
O396 In390 2.266 . S
O396 C393 1.252 . S
O397 In390 2.326 . S
O397 C393 1.260 . S
O398 In390 2.266 . S
O398 C395 1.252 . S
O399 In390 2.326 . S
O399 C395 1.260 . S
C400 O391 1.240 . S
C400 O392 1.252 . S
O401 In390 2.294 . S
O401 C394 1.240 . S
O402 In390 2.326 . S
O402 C394 1.252 . S
In403 O404 2.294 . S
In403 O405 2.326 . S
In403 O409 2.266 . S
In403 O410 2.326 . S
In403 O411 2.266 . S
In403 O412 2.326 . S
In403 O414 2.294 . S
In403 O415 2.326 . S
O404 In403 2.294 . S
O404 C413 1.240 . S
O405 In403 2.326 . S
O405 C413 1.252 . S
C406 O409 1.252 . S
C406 O410 1.260 . S
C407 O414 1.240 . S
C407 O415 1.252 . S
C408 O411 1.252 . S
C408 O412 1.260 . S
O409 In403 2.266 . S
O409 C406 1.252 . S
O410 In403 2.326 . S
O410 C406 1.260 . S
O411 In403 2.266 . S
O411 C408 1.252 . S
O412 In403 2.326 . S
O412 C408 1.260 . S
C413 O404 1.240 . S
C413 O405 1.252 . S
O414 In403 2.294 . S
O414 C407 1.240 . S
O415 In403 2.326 . S
O415 C407 1.252 . S
In416 O417 2.294 . S
In416 O418 2.326 . S
In416 O422 2.266 . S
In416 O423 2.326 . S
In416 O424 2.266 . S
In416 O425 2.326 . S
In416 O427 2.294 . S
In416 O428 2.326 . S
O417 In416 2.294 . S
O417 C426 1.240 . S
O418 In416 2.326 . S
O418 C426 1.252 . S
C419 O422 1.252 . S
C419 O423 1.260 . S
C420 O427 1.240 . S
C420 O428 1.252 . S
C421 O424 1.252 . S
C421 O425 1.260 . S
O422 In416 2.266 . S
O422 C419 1.252 . S
O423 In416 2.326 . S
O423 C419 1.260 . S
O424 In416 2.266 . S
O424 C421 1.252 . S
O425 In416 2.326 . S
O425 C421 1.260 . S
C426 O417 1.240 . S
C426 O418 1.252 . S
O427 In416 2.294 . S
O427 C420 1.240 . S
O428 In416 2.326 . S
O428 C420 1.252 . S
In429 O430 2.294 . S
In429 O431 2.326 . S
In429 O435 2.266 . S
In429 O436 2.326 . S
In429 O437 2.266 . S
In429 O438 2.326 . S
In429 O440 2.294 . S
In429 O441 2.326 . S
O430 In429 2.294 . S
O430 C439 1.240 . S
O431 In429 2.326 . S
O431 C439 1.252 . S
C432 O435 1.252 . S
C432 O436 1.260 . S
C433 O440 1.240 . S
C433 O441 1.252 . S
C434 O437 1.252 . S
C434 O438 1.260 . S
O435 In429 2.266 . S
O435 C432 1.252 . S
O436 In429 2.326 . S
O436 C432 1.260 . S
O437 In429 2.266 . S
O437 C434 1.252 . S
O438 In429 2.326 . S
O438 C434 1.260 . S
C439 O430 1.240 . S
C439 O431 1.252 . S
O440 In429 2.294 . S
O440 C433 1.240 . S
O441 In429 2.326 . S
O441 C433 1.252 . S
In442 O443 2.294 . S
In442 O444 2.326 . S
In442 O448 2.266 . S
In442 O449 2.326 . S
In442 O450 2.266 . S
In442 O451 2.326 . S
In442 O453 2.294 . S
In442 O454 2.326 . S
O443 In442 2.294 . S
O443 C452 1.240 . S
O444 In442 2.326 . S
O444 C452 1.252 . S
C445 O448 1.252 . S
C445 O449 1.260 . S
C446 O453 1.240 . S
C446 O454 1.252 . S
C447 O450 1.252 . S
C447 O451 1.260 . S
O448 In442 2.266 . S
O448 C445 1.252 . S
O449 In442 2.326 . S
O449 C445 1.260 . S
O450 In442 2.266 . S
O450 C447 1.252 . S
O451 In442 2.326 . S
O451 C447 1.260 . S
C452 O443 1.240 . S
C452 O444 1.252 . S
O453 In442 2.294 . S
O453 C446 1.240 . S
O454 In442 2.326 . S
O454 C446 1.252 . S
In455 O456 2.294 . S
In455 O457 2.326 . S
In455 O461 2.266 . S
In455 O462 2.326 . S
In455 O463 2.266 . S
In455 O464 2.326 . S
In455 O466 2.294 . S
In455 O467 2.326 . S
O456 In455 2.294 . S
O456 C465 1.240 . S
O457 In455 2.326 . S
O457 C465 1.252 . S
C458 O461 1.252 . S
C458 O462 1.260 . S
C459 O466 1.240 . S
C459 O467 1.252 . S
C460 O463 1.252 . S
C460 O464 1.260 . S
O461 In455 2.266 . S
O461 C458 1.252 . S
O462 In455 2.326 . S
O462 C458 1.260 . S
O463 In455 2.266 . S
O463 C460 1.252 . S
O464 In455 2.326 . S
O464 C460 1.260 . S
C465 O456 1.240 . S
C465 O457 1.252 . S
O466 In455 2.294 . S
O466 C459 1.240 . S
O467 In455 2.326 . S
O467 C459 1.252 . S
In468 O469 2.294 . S
In468 O470 2.326 . S
In468 O474 2.266 . S
In468 O475 2.326 . S
In468 O476 2.266 . S
In468 O477 2.326 . S
In468 O479 2.294 . S
In468 O480 2.326 . S
O469 In468 2.294 . S
O469 C478 1.240 . S
O470 In468 2.326 . S
O470 C478 1.252 . S
C471 O474 1.252 . S
C471 O475 1.260 . S
C472 O479 1.240 . S
C472 O480 1.252 . S
C473 O476 1.252 . S
C473 O477 1.260 . S
O474 In468 2.266 . S
O474 C471 1.252 . S
O475 In468 2.326 . S
O475 C471 1.260 . S
O476 In468 2.266 . S
O476 C473 1.252 . S
O477 In468 2.326 . S
O477 C473 1.260 . S
C478 O469 1.240 . S
C478 O470 1.252 . S
O479 In468 2.294 . S
O479 C472 1.240 . S
O480 In468 2.326 . S
O480 C472 1.252 . S
In481 O482 2.294 . S
In481 O483 2.326 . S
In481 O487 2.266 . S
In481 O488 2.326 . S
In481 O489 2.266 . S
In481 O490 2.326 . S
In481 O492 2.294 . S
In481 O493 2.326 . S
O482 In481 2.294 . S
O482 C491 1.240 . S
O483 In481 2.326 . S
O483 C491 1.252 . S
C484 O487 1.252 . S
C484 O488 1.260 . S
C485 O492 1.240 . S
C485 O493 1.252 . S
C486 O489 1.252 . S
C486 O490 1.260 . S
O487 In481 2.266 . S
O487 C484 1.252 . S
O488 In481 2.326 . S
O488 C484 1.260 . S
O489 In481 2.266 . S
O489 C486 1.252 . S
O490 In481 2.326 . S
O490 C486 1.260 . S
C491 O482 1.240 . S
C491 O483 1.252 . S
O492 In481 2.294 . S
O492 C485 1.240 . S
O493 In481 2.326 . S
O493 C485 1.252 . S
In494 O495 2.294 . S
In494 O496 2.326 . S
In494 O500 2.266 . S
In494 O501 2.326 . S
In494 O502 2.266 . S
In494 O503 2.326 . S
In494 O505 2.294 . S
In494 O506 2.326 . S
O495 In494 2.294 . S
O495 C504 1.240 . S
O496 In494 2.326 . S
O496 C504 1.252 . S
C497 O500 1.252 . S
C497 O501 1.260 . S
C498 O505 1.240 . S
C498 O506 1.252 . S
C499 O502 1.252 . S
C499 O503 1.260 . S
O500 In494 2.266 . S
O500 C497 1.252 . S
O501 In494 2.326 . S
O501 C497 1.260 . S
O502 In494 2.266 . S
O502 C499 1.252 . S
O503 In494 2.326 . S
O503 C499 1.260 . S
C504 O495 1.240 . S
C504 O496 1.252 . S
O505 In494 2.294 . S
O505 C498 1.240 . S
O506 In494 2.326 . S
O506 C498 1.252 . S
In507 O508 2.294 . S
In507 O509 2.326 . S
In507 O513 2.266 . S
In507 O514 2.326 . S
In507 O515 2.266 . S
In507 O516 2.326 . S
In507 O518 2.294 . S
In507 O519 2.326 . S
O508 In507 2.294 . S
O508 C517 1.240 . S
O509 In507 2.326 . S
O509 C517 1.252 . S
C510 O513 1.252 . S
C510 O514 1.260 . S
C511 O518 1.240 . S
C511 O519 1.252 . S
C512 O515 1.252 . S
C512 O516 1.260 . S
O513 In507 2.266 . S
O513 C510 1.252 . S
O514 In507 2.326 . S
O514 C510 1.260 . S
O515 In507 2.266 . S
O515 C512 1.252 . S
O516 In507 2.326 . S
O516 C512 1.260 . S
C517 O508 1.240 . S
C517 O509 1.252 . S
O518 In507 2.294 . S
O518 C511 1.240 . S
O519 In507 2.326 . S
O519 C511 1.252 . S
In520 O521 2.294 . S
In520 O522 2.326 . S
In520 O526 2.266 . S
In520 O527 2.326 . S
In520 O528 2.266 . S
In520 O529 2.326 . S
In520 O531 2.294 . S
In520 O532 2.326 . S
O521 In520 2.294 . S
O521 C530 1.240 . S
O522 In520 2.326 . S
O522 C530 1.252 . S
C523 O526 1.252 . S
C523 O527 1.260 . S
C524 O531 1.240 . S
C524 O532 1.252 . S
C525 O528 1.252 . S
C525 O529 1.260 . S
O526 In520 2.266 . S
O526 C523 1.252 . S
O527 In520 2.326 . S
O527 C523 1.260 . S
O528 In520 2.266 . S
O528 C525 1.252 . S
O529 In520 2.326 . S
O529 C525 1.260 . S
C530 O521 1.240 . S
C530 O522 1.252 . S
O531 In520 2.294 . S
O531 C524 1.240 . S
O532 In520 2.326 . S
O532 C524 1.252 . S
In533 O534 2.294 . S
In533 O535 2.326 . S
In533 O539 2.266 . S
In533 O540 2.326 . S
In533 O541 2.266 . S
In533 O542 2.326 . S
In533 O544 2.294 . S
In533 O545 2.326 . S
O534 In533 2.294 . S
O534 C543 1.240 . S
O535 In533 2.326 . S
O535 C543 1.252 . S
C536 O539 1.252 . S
C536 O540 1.260 . S
C537 O544 1.240 . S
C537 O545 1.252 . S
C538 O541 1.252 . S
C538 O542 1.260 . S
O539 In533 2.266 . S
O539 C536 1.252 . S
O540 In533 2.326 . S
O540 C536 1.260 . S
O541 In533 2.266 . S
O541 C538 1.252 . S
O542 In533 2.326 . S
O542 C538 1.260 . S
C543 O534 1.240 . S
C543 O535 1.252 . S
O544 In533 2.294 . S
O544 C537 1.240 . S
O545 In533 2.326 . S
O545 C537 1.252 . S
In546 O547 2.294 . S
In546 O548 2.326 . S
In546 O552 2.266 . S
In546 O553 2.326 . S
In546 O554 2.266 . S
In546 O555 2.326 . S
In546 O557 2.294 . S
In546 O558 2.326 . S
O547 In546 2.294 . S
O547 C556 1.240 . S
O548 In546 2.326 . S
O548 C556 1.252 . S
C549 O552 1.252 . S
C549 O553 1.260 . S
C550 O557 1.240 . S
C550 O558 1.252 . S
C551 O554 1.252 . S
C551 O555 1.260 . S
O552 In546 2.266 . S
O552 C549 1.252 . S
O553 In546 2.326 . S
O553 C549 1.260 . S
O554 In546 2.266 . S
O554 C551 1.252 . S
O555 In546 2.326 . S
O555 C551 1.260 . S
C556 O547 1.240 . S
C556 O548 1.252 . S
O557 In546 2.294 . S
O557 C550 1.240 . S
O558 In546 2.326 . S
O558 C550 1.252 . S
In559 O560 2.294 . S
In559 O561 2.326 . S
In559 O565 2.266 . S
In559 O566 2.326 . S
In559 O567 2.266 . S
In559 O568 2.326 . S
In559 O570 2.294 . S
In559 O571 2.326 . S
O560 In559 2.294 . S
O560 C569 1.240 . S
O561 In559 2.326 . S
O561 C569 1.252 . S
C562 O565 1.252 . S
C562 O566 1.260 . S
C563 O570 1.240 . S
C563 O571 1.252 . S
C564 O567 1.252 . S
C564 O568 1.260 . S
O565 In559 2.266 . S
O565 C562 1.252 . S
O566 In559 2.326 . S
O566 C562 1.260 . S
O567 In559 2.266 . S
O567 C564 1.252 . S
O568 In559 2.326 . S
O568 C564 1.260 . S
C569 O560 1.240 . S
C569 O561 1.252 . S
O570 In559 2.294 . S
O570 C563 1.240 . S
O571 In559 2.326 . S
O571 C563 1.252 . S
In572 O573 2.294 . S
In572 O574 2.326 . S
In572 O578 2.266 . S
In572 O579 2.326 . S
In572 O580 2.266 . S
In572 O581 2.326 . S
In572 O583 2.294 . S
In572 O584 2.326 . S
O573 In572 2.294 . S
O573 C582 1.240 . S
O574 In572 2.326 . S
O574 C582 1.252 . S
C575 O578 1.252 . S
C575 O579 1.260 . S
C576 O583 1.240 . S
C576 O584 1.252 . S
C577 O580 1.252 . S
C577 O581 1.260 . S
O578 In572 2.266 . S
O578 C575 1.252 . S
O579 In572 2.326 . S
O579 C575 1.260 . S
O580 In572 2.266 . S
O580 C577 1.252 . S
O581 In572 2.326 . S
O581 C577 1.260 . S
C582 O573 1.240 . S
C582 O574 1.252 . S
O583 In572 2.294 . S
O583 C576 1.240 . S
O584 In572 2.326 . S
O584 C576 1.252 . S
In585 O586 2.294 . S
In585 O587 2.326 . S
In585 O591 2.266 . S
In585 O592 2.326 . S
In585 O593 2.266 . S
In585 O594 2.326 . S
In585 O596 2.294 . S
In585 O597 2.326 . S
O586 In585 2.294 . S
O586 C595 1.240 . S
O587 In585 2.326 . S
O587 C595 1.252 . S
C588 O591 1.252 . S
C588 O592 1.260 . S
C589 O596 1.240 . S
C589 O597 1.252 . S
C590 O593 1.252 . S
C590 O594 1.260 . S
O591 In585 2.266 . S
O591 C588 1.252 . S
O592 In585 2.326 . S
O592 C588 1.260 . S
O593 In585 2.266 . S
O593 C590 1.252 . S
O594 In585 2.326 . S
O594 C590 1.260 . S
C595 O586 1.240 . S
C595 O587 1.252 . S
O596 In585 2.294 . S
O596 C589 1.240 . S
O597 In585 2.326 . S
O597 C589 1.252 . S
In598 O599 2.294 . S
In598 O600 2.326 . S
In598 O604 2.266 . S
In598 O605 2.326 . S
In598 O606 2.266 . S
In598 O607 2.326 . S
In598 O609 2.294 . S
In598 O610 2.326 . S
O599 In598 2.294 . S
O599 C608 1.240 . S
O600 In598 2.326 . S
O600 C608 1.252 . S
C601 O604 1.252 . S
C601 O605 1.260 . S
C602 O609 1.240 . S
C602 O610 1.252 . S
C603 O606 1.252 . S
C603 O607 1.260 . S
O604 In598 2.266 . S
O604 C601 1.252 . S
O605 In598 2.326 . S
O605 C601 1.260 . S
O606 In598 2.266 . S
O606 C603 1.252 . S
O607 In598 2.326 . S
O607 C603 1.260 . S
C608 O599 1.240 . S
C608 O600 1.252 . S
O609 In598 2.294 . S
O609 C602 1.240 . S
O610 In598 2.326 . S
O610 C602 1.252 . S
In611 O612 2.294 . S
In611 O613 2.326 . S
In611 O617 2.266 . S
In611 O618 2.326 . S
In611 O619 2.266 . S
In611 O620 2.326 . S
In611 O622 2.294 . S
In611 O623 2.326 . S
O612 In611 2.294 . S
O612 C621 1.240 . S
O613 In611 2.326 . S
O613 C621 1.252 . S
C614 O617 1.252 . S
C614 O618 1.260 . S
C615 O622 1.240 . S
C615 O623 1.252 . S
C616 O619 1.252 . S
C616 O620 1.260 . S
O617 In611 2.266 . S
O617 C614 1.252 . S
O618 In611 2.326 . S
O618 C614 1.260 . S
O619 In611 2.266 . S
O619 C616 1.252 . S
O620 In611 2.326 . S
O620 C616 1.260 . S
C621 O612 1.240 . S
C621 O613 1.252 . S
O622 In611 2.294 . S
O622 C615 1.240 . S
O623 In611 2.326 . S
O623 C615 1.252 . S
H624 C636 0.930 . S
H625 C638 0.930 . S
H626 C639 0.930 . S
H627 C643 0.959 . S
H628 C643 0.959 . S
H629 C643 0.961 . S
H630 C644 0.960 . S
H631 C644 0.961 . S
H632 C644 0.959 . S
H633 C647 0.929 . S
H634 C648 0.931 . S
H635 C650 0.930 . S
C636 H624 0.930 . S
C636 C637 1.399 . S
C636 C641 1.399 . S
C637 C636 1.399 . S
C637 C638 1.376 . S
C638 H625 0.930 . S
C638 C637 1.376 . S
C638 C639 1.388 . S
C639 H626 0.930 . S
C639 C638 1.388 . S
C639 C640 1.390 . S
C640 C639 1.390 . S
C640 C641 1.394 . S
C640 C646 1.465 . S
C641 C636 1.399 . S
C641 C640 1.394 . S
C641 C642 1.516 . S
C642 C641 1.516 . S
C642 C643 1.502 . S
C642 C644 1.561 . S
C642 C645 1.526 . S
C643 H627 0.959 . S
C643 H628 0.959 . S
C643 H629 0.961 . S
C643 C642 1.502 . S
C644 H630 0.960 . S
C644 H631 0.961 . S
C644 H632 0.959 . S
C644 C642 1.561 . S
C645 C642 1.526 . S
C645 C646 1.396 . S
C645 C650 1.390 . S
C646 C640 1.465 . S
C646 C645 1.396 . S
C646 C647 1.399 . S
C647 H633 0.929 . S
C647 C646 1.399 . S
C647 C648 1.385 . S
C648 H634 0.931 . S
C648 C647 1.385 . S
C648 C649 1.389 . S
C649 C648 1.389 . S
C649 C650 1.387 . S
C650 H635 0.930 . S
C650 C645 1.390 . S
C650 C649 1.387 . S
H651 C663 0.930 . S
H652 C665 0.930 . S
H653 C666 0.930 . S
H654 C670 0.959 . S
H655 C670 0.959 . S
H656 C670 0.961 . S
H657 C671 0.960 . S
H658 C671 0.961 . S
H659 C671 0.959 . S
H660 C674 0.929 . S
H661 C675 0.931 . S
H662 C677 0.930 . S
C663 H651 0.930 . S
C663 C664 1.399 . S
C663 C668 1.399 . S
C664 C663 1.399 . S
C664 C665 1.376 . S
C665 H652 0.930 . S
C665 C664 1.376 . S
C665 C666 1.388 . S
C666 H653 0.930 . S
C666 C665 1.388 . S
C666 C667 1.390 . S
C667 C666 1.390 . S
C667 C668 1.394 . S
C667 C673 1.465 . S
C668 C663 1.399 . S
C668 C667 1.394 . S
C668 C669 1.516 . S
C669 C668 1.516 . S
C669 C670 1.502 . S
C669 C671 1.561 . S
C669 C672 1.526 . S
C670 H654 0.959 . S
C670 H655 0.959 . S
C670 H656 0.961 . S
C670 C669 1.502 . S
C671 H657 0.960 . S
C671 H658 0.961 . S
C671 H659 0.959 . S
C671 C669 1.561 . S
C672 C669 1.526 . S
C672 C673 1.396 . S
C672 C677 1.390 . S
C673 C667 1.465 . S
C673 C672 1.396 . S
C673 C674 1.399 . S
C674 H660 0.929 . S
C674 C673 1.399 . S
C674 C675 1.385 . S
C675 H661 0.931 . S
C675 C674 1.385 . S
C675 C676 1.389 . S
C676 C675 1.389 . S
C676 C677 1.387 . S
C677 H662 0.930 . S
C677 C672 1.390 . S
C677 C676 1.387 . S
H678 C690 0.930 . S
H679 C692 0.930 . S
H680 C693 0.930 . S
H681 C697 0.959 . S
H682 C697 0.959 . S
H683 C697 0.961 . S
H684 C698 0.960 . S
H685 C698 0.961 . S
H686 C698 0.959 . S
H687 C701 0.929 . S
H688 C702 0.931 . S
H689 C704 0.930 . S
C690 H678 0.930 . S
C690 C691 1.399 . S
C690 C695 1.399 . S
C691 C690 1.399 . S
C691 C692 1.376 . S
C692 H679 0.930 . S
C692 C691 1.376 . S
C692 C693 1.388 . S
C693 H680 0.930 . S
C693 C692 1.388 . S
C693 C694 1.390 . S
C694 C693 1.390 . S
C694 C695 1.394 . S
C694 C700 1.465 . S
C695 C690 1.399 . S
C695 C694 1.394 . S
C695 C696 1.516 . S
C696 C695 1.516 . S
C696 C697 1.502 . S
C696 C698 1.561 . S
C696 C699 1.526 . S
C697 H681 0.959 . S
C697 H682 0.959 . S
C697 H683 0.961 . S
C697 C696 1.502 . S
C698 H684 0.960 . S
C698 H685 0.961 . S
C698 H686 0.959 . S
C698 C696 1.561 . S
C699 C696 1.526 . S
C699 C700 1.396 . S
C699 C704 1.390 . S
C700 C694 1.465 . S
C700 C699 1.396 . S
C700 C701 1.399 . S
C701 H687 0.929 . S
C701 C700 1.399 . S
C701 C702 1.385 . S
C702 H688 0.931 . S
C702 C701 1.385 . S
C702 C703 1.389 . S
C703 C702 1.389 . S
C703 C704 1.387 . S
C704 H689 0.930 . S
C704 C699 1.390 . S
C704 C703 1.387 . S
H705 C717 0.930 . S
H706 C719 0.930 . S
H707 C720 0.930 . S
H708 C724 0.959 . S
H709 C724 0.959 . S
H710 C724 0.961 . S
H711 C725 0.960 . S
H712 C725 0.961 . S
H713 C725 0.959 . S
H714 C728 0.929 . S
H715 C729 0.931 . S
H716 C731 0.930 . S
C717 H705 0.930 . S
C717 C718 1.399 . S
C717 C722 1.399 . S
C718 C717 1.399 . S
C718 C719 1.376 . S
C719 H706 0.930 . S
C719 C718 1.376 . S
C719 C720 1.388 . S
C720 H707 0.930 . S
C720 C719 1.388 . S
C720 C721 1.390 . S
C721 C720 1.390 . S
C721 C722 1.394 . S
C721 C727 1.465 . S
C722 C717 1.399 . S
C722 C721 1.394 . S
C722 C723 1.516 . S
C723 C722 1.516 . S
C723 C724 1.502 . S
C723 C725 1.561 . S
C723 C726 1.526 . S
C724 H708 0.959 . S
C724 H709 0.959 . S
C724 H710 0.961 . S
C724 C723 1.502 . S
C725 H711 0.960 . S
C725 H712 0.961 . S
C725 H713 0.959 . S
C725 C723 1.561 . S
C726 C723 1.526 . S
C726 C727 1.396 . S
C726 C731 1.390 . S
C727 C721 1.465 . S
C727 C726 1.396 . S
C727 C728 1.399 . S
C728 H714 0.929 . S
C728 C727 1.399 . S
C728 C729 1.385 . S
C729 H715 0.931 . S
C729 C728 1.385 . S
C729 C730 1.389 . S
C730 C729 1.389 . S
C730 C731 1.387 . S
C731 H716 0.930 . S
C731 C726 1.390 . S
C731 C730 1.387 . S
H732 C744 0.930 . S
H733 C746 0.930 . S
H734 C747 0.930 . S
H735 C751 0.959 . S
H736 C751 0.959 . S
H737 C751 0.961 . S
H738 C752 0.960 . S
H739 C752 0.961 . S
H740 C752 0.959 . S
H741 C755 0.929 . S
H742 C756 0.931 . S
H743 C758 0.930 . S
C744 H732 0.930 . S
C744 C745 1.399 . S
C744 C749 1.399 . S
C745 C744 1.399 . S
C745 C746 1.376 . S
C746 H733 0.930 . S
C746 C745 1.376 . S
C746 C747 1.388 . S
C747 H734 0.930 . S
C747 C746 1.388 . S
C747 C748 1.390 . S
C748 C747 1.390 . S
C748 C749 1.394 . S
C748 C754 1.465 . S
C749 C744 1.399 . S
C749 C748 1.394 . S
C749 C750 1.516 . S
C750 C749 1.516 . S
C750 C751 1.502 . S
C750 C752 1.561 . S
C750 C753 1.526 . S
C751 H735 0.959 . S
C751 H736 0.959 . S
C751 H737 0.961 . S
C751 C750 1.502 . S
C752 H738 0.960 . S
C752 H739 0.961 . S
C752 H740 0.959 . S
C752 C750 1.561 . S
C753 C750 1.526 . S
C753 C754 1.396 . S
C753 C758 1.390 . S
C754 C748 1.465 . S
C754 C753 1.396 . S
C754 C755 1.399 . S
C755 H741 0.929 . S
C755 C754 1.399 . S
C755 C756 1.385 . S
C756 H742 0.931 . S
C756 C755 1.385 . S
C756 C757 1.389 . S
C757 C756 1.389 . S
C757 C758 1.387 . S
C758 H743 0.930 . S
C758 C753 1.390 . S
C758 C757 1.387 . S
H759 C771 0.930 . S
H760 C773 0.930 . S
H761 C774 0.930 . S
H762 C778 0.959 . S
H763 C778 0.959 . S
H764 C778 0.961 . S
H765 C779 0.960 . S
H766 C779 0.961 . S
H767 C779 0.959 . S
H768 C782 0.929 . S
H769 C783 0.931 . S
H770 C785 0.930 . S
C771 H759 0.930 . S
C771 C772 1.399 . S
C771 C776 1.399 . S
C772 C771 1.399 . S
C772 C773 1.376 . S
C773 H760 0.930 . S
C773 C772 1.376 . S
C773 C774 1.388 . S
C774 H761 0.930 . S
C774 C773 1.388 . S
C774 C775 1.390 . S
C775 C774 1.390 . S
C775 C776 1.394 . S
C775 C781 1.465 . S
C776 C771 1.399 . S
C776 C775 1.394 . S
C776 C777 1.516 . S
C777 C776 1.516 . S
C777 C778 1.502 . S
C777 C779 1.561 . S
C777 C780 1.526 . S
C778 H762 0.959 . S
C778 H763 0.959 . S
C778 H764 0.961 . S
C778 C777 1.502 . S
C779 H765 0.960 . S
C779 H766 0.961 . S
C779 H767 0.959 . S
C779 C777 1.561 . S
C780 C777 1.526 . S
C780 C781 1.396 . S
C780 C785 1.390 . S
C781 C775 1.465 . S
C781 C780 1.396 . S
C781 C782 1.399 . S
C782 H768 0.929 . S
C782 C781 1.399 . S
C782 C783 1.385 . S
C783 H769 0.931 . S
C783 C782 1.385 . S
C783 C784 1.389 . S
C784 C783 1.389 . S
C784 C785 1.387 . S
C785 H770 0.930 . S
C785 C780 1.390 . S
C785 C784 1.387 . S
H786 C798 0.930 . S
H787 C800 0.930 . S
H788 C801 0.930 . S
H789 C805 0.959 . S
H790 C805 0.959 . S
H791 C805 0.961 . S
H792 C806 0.960 . S
H793 C806 0.961 . S
H794 C806 0.959 . S
H795 C809 0.929 . S
H796 C810 0.931 . S
H797 C812 0.930 . S
C798 H786 0.930 . S
C798 C799 1.399 . S
C798 C803 1.399 . S
C799 C798 1.399 . S
C799 C800 1.376 . S
C800 H787 0.930 . S
C800 C799 1.376 . S
C800 C801 1.388 . S
C801 H788 0.930 . S
C801 C800 1.388 . S
C801 C802 1.390 . S
C802 C801 1.390 . S
C802 C803 1.394 . S
C802 C808 1.465 . S
C803 C798 1.399 . S
C803 C802 1.394 . S
C803 C804 1.516 . S
C804 C803 1.516 . S
C804 C805 1.502 . S
C804 C806 1.561 . S
C804 C807 1.526 . S
C805 H789 0.959 . S
C805 H790 0.959 . S
C805 H791 0.961 . S
C805 C804 1.502 . S
C806 H792 0.960 . S
C806 H793 0.961 . S
C806 H794 0.959 . S
C806 C804 1.561 . S
C807 C804 1.526 . S
C807 C808 1.396 . S
C807 C812 1.390 . S
C808 C802 1.465 . S
C808 C807 1.396 . S
C808 C809 1.399 . S
C809 H795 0.929 . S
C809 C808 1.399 . S
C809 C810 1.385 . S
C810 H796 0.931 . S
C810 C809 1.385 . S
C810 C811 1.389 . S
C811 C810 1.389 . S
C811 C812 1.387 . S
C812 H797 0.930 . S
C812 C807 1.390 . S
C812 C811 1.387 . S
H813 C825 0.930 . S
H814 C827 0.930 . S
H815 C828 0.930 . S
H816 C832 0.959 . S
H817 C832 0.959 . S
H818 C832 0.961 . S
H819 C833 0.960 . S
H820 C833 0.961 . S
H821 C833 0.959 . S
H822 C836 0.929 . S
H823 C837 0.931 . S
H824 C839 0.930 . S
C825 H813 0.930 . S
C825 C826 1.399 . S
C825 C830 1.399 . S
C826 C825 1.399 . S
C826 C827 1.376 . S
C827 H814 0.930 . S
C827 C826 1.376 . S
C827 C828 1.388 . S
C828 H815 0.930 . S
C828 C827 1.388 . S
C828 C829 1.390 . S
C829 C828 1.390 . S
C829 C830 1.394 . S
C829 C835 1.465 . S
C830 C825 1.399 . S
C830 C829 1.394 . S
C830 C831 1.516 . S
C831 C830 1.516 . S
C831 C832 1.502 . S
C831 C833 1.561 . S
C831 C834 1.526 . S
C832 H816 0.959 . S
C832 H817 0.959 . S
C832 H818 0.961 . S
C832 C831 1.502 . S
C833 H819 0.960 . S
C833 H820 0.961 . S
C833 H821 0.959 . S
C833 C831 1.561 . S
C834 C831 1.526 . S
C834 C835 1.396 . S
C834 C839 1.390 . S
C835 C829 1.465 . S
C835 C834 1.396 . S
C835 C836 1.399 . S
C836 H822 0.929 . S
C836 C835 1.399 . S
C836 C837 1.385 . S
C837 H823 0.931 . S
C837 C836 1.385 . S
C837 C838 1.389 . S
C838 C837 1.389 . S
C838 C839 1.387 . S
C839 H824 0.930 . S
C839 C834 1.390 . S
C839 C838 1.387 . S
H840 C852 0.930 . S
H841 C854 0.930 . S
H842 C855 0.930 . S
H843 C859 0.959 . S
H844 C859 0.959 . S
H845 C859 0.961 . S
H846 C860 0.960 . S
H847 C860 0.961 . S
H848 C860 0.959 . S
H849 C863 0.929 . S
H850 C864 0.931 . S
H851 C866 0.930 . S
C852 H840 0.930 . S
C852 C853 1.399 . S
C852 C857 1.399 . S
C853 C852 1.399 . S
C853 C854 1.376 . S
C854 H841 0.930 . S
C854 C853 1.376 . S
C854 C855 1.388 . S
C855 H842 0.930 . S
C855 C854 1.388 . S
C855 C856 1.390 . S
C856 C855 1.390 . S
C856 C857 1.394 . S
C856 C862 1.465 . S
C857 C852 1.399 . S
C857 C856 1.394 . S
C857 C858 1.516 . S
C858 C857 1.516 . S
C858 C859 1.502 . S
C858 C860 1.561 . S
C858 C861 1.526 . S
C859 H843 0.959 . S
C859 H844 0.959 . S
C859 H845 0.961 . S
C859 C858 1.502 . S
C860 H846 0.960 . S
C860 H847 0.961 . S
C860 H848 0.959 . S
C860 C858 1.561 . S
C861 C858 1.526 . S
C861 C862 1.396 . S
C861 C866 1.390 . S
C862 C856 1.465 . S
C862 C861 1.396 . S
C862 C863 1.399 . S
C863 H849 0.929 . S
C863 C862 1.399 . S
C863 C864 1.385 . S
C864 H850 0.931 . S
C864 C863 1.385 . S
C864 C865 1.389 . S
C865 C864 1.389 . S
C865 C866 1.387 . S
C866 H851 0.930 . S
C866 C861 1.390 . S
C866 C865 1.387 . S
H867 C879 0.930 . S
H868 C881 0.930 . S
H869 C882 0.930 . S
H870 C886 0.959 . S
H871 C886 0.959 . S
H872 C886 0.961 . S
H873 C887 0.960 . S
H874 C887 0.961 . S
H875 C887 0.959 . S
H876 C890 0.929 . S
H877 C891 0.931 . S
H878 C893 0.930 . S
C879 H867 0.930 . S
C879 C880 1.399 . S
C879 C884 1.399 . S
C880 C879 1.399 . S
C880 C881 1.376 . S
C881 H868 0.930 . S
C881 C880 1.376 . S
C881 C882 1.388 . S
C882 H869 0.930 . S
C882 C881 1.388 . S
C882 C883 1.390 . S
C883 C882 1.390 . S
C883 C884 1.394 . S
C883 C889 1.465 . S
C884 C879 1.399 . S
C884 C883 1.394 . S
C884 C885 1.516 . S
C885 C884 1.516 . S
C885 C886 1.502 . S
C885 C887 1.561 . S
C885 C888 1.526 . S
C886 H870 0.959 . S
C886 H871 0.959 . S
C886 H872 0.961 . S
C886 C885 1.502 . S
C887 H873 0.960 . S
C887 H874 0.961 . S
C887 H875 0.959 . S
C887 C885 1.561 . S
C888 C885 1.526 . S
C888 C889 1.396 . S
C888 C893 1.390 . S
C889 C883 1.465 . S
C889 C888 1.396 . S
C889 C890 1.399 . S
C890 H876 0.929 . S
C890 C889 1.399 . S
C890 C891 1.385 . S
C891 H877 0.931 . S
C891 C890 1.385 . S
C891 C892 1.389 . S
C892 C891 1.389 . S
C892 C893 1.387 . S
C893 H878 0.930 . S
C893 C888 1.390 . S
C893 C892 1.387 . S
H894 C906 0.930 . S
H895 C908 0.930 . S
H896 C909 0.930 . S
H897 C913 0.959 . S
H898 C913 0.959 . S
H899 C913 0.961 . S
H900 C914 0.960 . S
H901 C914 0.961 . S
H902 C914 0.959 . S
H903 C917 0.929 . S
H904 C918 0.931 . S
H905 C920 0.930 . S
C906 H894 0.930 . S
C906 C907 1.399 . S
C906 C911 1.399 . S
C907 C906 1.399 . S
C907 C908 1.376 . S
C908 H895 0.930 . S
C908 C907 1.376 . S
C908 C909 1.388 . S
C909 H896 0.930 . S
C909 C908 1.388 . S
C909 C910 1.390 . S
C910 C909 1.390 . S
C910 C911 1.394 . S
C910 C916 1.465 . S
C911 C906 1.399 . S
C911 C910 1.394 . S
C911 C912 1.516 . S
C912 C911 1.516 . S
C912 C913 1.502 . S
C912 C914 1.561 . S
C912 C915 1.526 . S
C913 H897 0.959 . S
C913 H898 0.959 . S
C913 H899 0.961 . S
C913 C912 1.502 . S
C914 H900 0.960 . S
C914 H901 0.961 . S
C914 H902 0.959 . S
C914 C912 1.561 . S
C915 C912 1.526 . S
C915 C916 1.396 . S
C915 C920 1.390 . S
C916 C910 1.465 . S
C916 C915 1.396 . S
C916 C917 1.399 . S
C917 H903 0.929 . S
C917 C916 1.399 . S
C917 C918 1.385 . S
C918 H904 0.931 . S
C918 C917 1.385 . S
C918 C919 1.389 . S
C919 C918 1.389 . S
C919 C920 1.387 . S
C920 H905 0.930 . S
C920 C915 1.390 . S
C920 C919 1.387 . S
H921 C933 0.930 . S
H922 C935 0.930 . S
H923 C936 0.930 . S
H924 C940 0.959 . S
H925 C940 0.959 . S
H926 C940 0.961 . S
H927 C941 0.960 . S
H928 C941 0.961 . S
H929 C941 0.959 . S
H930 C944 0.929 . S
H931 C945 0.931 . S
H932 C947 0.930 . S
C933 H921 0.930 . S
C933 C934 1.399 . S
C933 C938 1.399 . S
C934 C933 1.399 . S
C934 C935 1.376 . S
C935 H922 0.930 . S
C935 C934 1.376 . S
C935 C936 1.388 . S
C936 H923 0.930 . S
C936 C935 1.388 . S
C936 C937 1.390 . S
C937 C936 1.390 . S
C937 C938 1.394 . S
C937 C943 1.465 . S
C938 C933 1.399 . S
C938 C937 1.394 . S
C938 C939 1.516 . S
C939 C938 1.516 . S
C939 C940 1.502 . S
C939 C941 1.561 . S
C939 C942 1.526 . S
C940 H924 0.959 . S
C940 H925 0.959 . S
C940 H926 0.961 . S
C940 C939 1.502 . S
C941 H927 0.960 . S
C941 H928 0.961 . S
C941 H929 0.959 . S
C941 C939 1.561 . S
C942 C939 1.526 . S
C942 C943 1.396 . S
C942 C947 1.390 . S
C943 C937 1.465 . S
C943 C942 1.396 . S
C943 C944 1.399 . S
C944 H930 0.929 . S
C944 C943 1.399 . S
C944 C945 1.385 . S
C945 H931 0.931 . S
C945 C944 1.385 . S
C945 C946 1.389 . S
C946 C945 1.389 . S
C946 C947 1.387 . S
C947 H932 0.930 . S
C947 C942 1.390 . S
C947 C946 1.387 . S
H948 C960 0.930 . S
H949 C962 0.930 . S
H950 C963 0.930 . S
H951 C967 0.959 . S
H952 C967 0.959 . S
H953 C967 0.961 . S
H954 C968 0.960 . S
H955 C968 0.961 . S
H956 C968 0.959 . S
H957 C971 0.929 . S
H958 C972 0.931 . S
H959 C974 0.930 . S
C960 H948 0.930 . S
C960 C961 1.399 . S
C960 C965 1.399 . S
C961 C960 1.399 . S
C961 C962 1.376 . S
C962 H949 0.930 . S
C962 C961 1.376 . S
C962 C963 1.388 . S
C963 H950 0.930 . S
C963 C962 1.388 . S
C963 C964 1.390 . S
C964 C963 1.390 . S
C964 C965 1.394 . S
C964 C970 1.465 . S
C965 C960 1.399 . S
C965 C964 1.394 . S
C965 C966 1.516 . S
C966 C965 1.516 . S
C966 C967 1.502 . S
C966 C968 1.561 . S
C966 C969 1.526 . S
C967 H951 0.959 . S
C967 H952 0.959 . S
C967 H953 0.961 . S
C967 C966 1.502 . S
C968 H954 0.960 . S
C968 H955 0.961 . S
C968 H956 0.959 . S
C968 C966 1.561 . S
C969 C966 1.526 . S
C969 C970 1.396 . S
C969 C974 1.390 . S
C970 C964 1.465 . S
C970 C969 1.396 . S
C970 C971 1.399 . S
C971 H957 0.929 . S
C971 C970 1.399 . S
C971 C972 1.385 . S
C972 H958 0.931 . S
C972 C971 1.385 . S
C972 C973 1.389 . S
C973 C972 1.389 . S
C973 C974 1.387 . S
C974 H959 0.930 . S
C974 C969 1.390 . S
C974 C973 1.387 . S
H975 C987 0.930 . S
H976 C989 0.930 . S
H977 C990 0.930 . S
H978 C994 0.959 . S
H979 C994 0.959 . S
H980 C994 0.961 . S
H981 C995 0.960 . S
H982 C995 0.961 . S
H983 C995 0.959 . S
H984 C998 0.929 . S
H985 C999 0.931 . S
H986 C1001 0.930 . S
C987 H975 0.930 . S
C987 C988 1.399 . S
C987 C992 1.399 . S
C988 C987 1.399 . S
C988 C989 1.376 . S
C989 H976 0.930 . S
C989 C988 1.376 . S
C989 C990 1.388 . S
C990 H977 0.930 . S
C990 C989 1.388 . S
C990 C991 1.390 . S
C991 C990 1.390 . S
C991 C992 1.394 . S
C991 C997 1.465 . S
C992 C987 1.399 . S
C992 C991 1.394 . S
C992 C993 1.516 . S
C993 C992 1.516 . S
C993 C994 1.502 . S
C993 C995 1.561 . S
C993 C996 1.526 . S
C994 H978 0.959 . S
C994 H979 0.959 . S
C994 H980 0.961 . S
C994 C993 1.502 . S
C995 H981 0.960 . S
C995 H982 0.961 . S
C995 H983 0.959 . S
C995 C993 1.561 . S
C996 C993 1.526 . S
C996 C997 1.396 . S
C996 C1001 1.390 . S
C997 C991 1.465 . S
C997 C996 1.396 . S
C997 C998 1.399 . S
C998 H984 0.929 . S
C998 C997 1.399 . S
C998 C999 1.385 . S
C999 H985 0.931 . S
C999 C998 1.385 . S
C999 C1000 1.389 . S
C1000 C999 1.389 . S
C1000 C1001 1.387 . S
C1001 H986 0.930 . S
C1001 C996 1.390 . S
C1001 C1000 1.387 . S
H1002 C1014 0.930 . S
H1003 C1016 0.930 . S
H1004 C1017 0.930 . S
H1005 C1021 0.959 . S
H1006 C1021 0.959 . S
H1007 C1021 0.961 . S
H1008 C1022 0.960 . S
H1009 C1022 0.961 . S
H1010 C1022 0.959 . S
H1011 C1025 0.929 . S
H1012 C1026 0.931 . S
H1013 C1028 0.930 . S
C1014 H1002 0.930 . S
C1014 C1015 1.399 . S
C1014 C1019 1.399 . S
C1015 C1014 1.399 . S
C1015 C1016 1.376 . S
C1016 H1003 0.930 . S
C1016 C1015 1.376 . S
C1016 C1017 1.388 . S
C1017 H1004 0.930 . S
C1017 C1016 1.388 . S
C1017 C1018 1.390 . S
C1018 C1017 1.390 . S
C1018 C1019 1.394 . S
C1018 C1024 1.465 . S
C1019 C1014 1.399 . S
C1019 C1018 1.394 . S
C1019 C1020 1.516 . S
C1020 C1019 1.516 . S
C1020 C1021 1.502 . S
C1020 C1022 1.561 . S
C1020 C1023 1.526 . S
C1021 H1005 0.959 . S
C1021 H1006 0.959 . S
C1021 H1007 0.961 . S
C1021 C1020 1.502 . S
C1022 H1008 0.960 . S
C1022 H1009 0.961 . S
C1022 H1010 0.959 . S
C1022 C1020 1.561 . S
C1023 C1020 1.526 . S
C1023 C1024 1.396 . S
C1023 C1028 1.390 . S
C1024 C1018 1.465 . S
C1024 C1023 1.396 . S
C1024 C1025 1.399 . S
C1025 H1011 0.929 . S
C1025 C1024 1.399 . S
C1025 C1026 1.385 . S
C1026 H1012 0.931 . S
C1026 C1025 1.385 . S
C1026 C1027 1.389 . S
C1027 C1026 1.389 . S
C1027 C1028 1.387 . S
C1028 H1013 0.930 . S
C1028 C1023 1.390 . S
C1028 C1027 1.387 . S
H1029 C1041 0.930 . S
H1030 C1043 0.930 . S
H1031 C1044 0.930 . S
H1032 C1048 0.959 . S
H1033 C1048 0.959 . S
H1034 C1048 0.961 . S
H1035 C1049 0.960 . S
H1036 C1049 0.961 . S
H1037 C1049 0.959 . S
H1038 C1052 0.929 . S
H1039 C1053 0.931 . S
H1040 C1055 0.930 . S
C1041 H1029 0.930 . S
C1041 C1042 1.399 . S
C1041 C1046 1.399 . S
C1042 C1041 1.399 . S
C1042 C1043 1.376 . S
C1043 H1030 0.930 . S
C1043 C1042 1.376 . S
C1043 C1044 1.388 . S
C1044 H1031 0.930 . S
C1044 C1043 1.388 . S
C1044 C1045 1.390 . S
C1045 C1044 1.390 . S
C1045 C1046 1.394 . S
C1045 C1051 1.465 . S
C1046 C1041 1.399 . S
C1046 C1045 1.394 . S
C1046 C1047 1.516 . S
C1047 C1046 1.516 . S
C1047 C1048 1.502 . S
C1047 C1049 1.561 . S
C1047 C1050 1.526 . S
C1048 H1032 0.959 . S
C1048 H1033 0.959 . S
C1048 H1034 0.961 . S
C1048 C1047 1.502 . S
C1049 H1035 0.960 . S
C1049 H1036 0.961 . S
C1049 H1037 0.959 . S
C1049 C1047 1.561 . S
C1050 C1047 1.526 . S
C1050 C1051 1.396 . S
C1050 C1055 1.390 . S
C1051 C1045 1.465 . S
C1051 C1050 1.396 . S
C1051 C1052 1.399 . S
C1052 H1038 0.929 . S
C1052 C1051 1.399 . S
C1052 C1053 1.385 . S
C1053 H1039 0.931 . S
C1053 C1052 1.385 . S
C1053 C1054 1.389 . S
C1054 C1053 1.389 . S
C1054 C1055 1.387 . S
C1055 H1040 0.930 . S
C1055 C1050 1.390 . S
C1055 C1054 1.387 . S
H1056 C1068 0.930 . S
H1057 C1070 0.930 . S
H1058 C1071 0.930 . S
H1059 C1075 0.959 . S
H1060 C1075 0.959 . S
H1061 C1075 0.961 . S
H1062 C1076 0.960 . S
H1063 C1076 0.961 . S
H1064 C1076 0.959 . S
H1065 C1079 0.929 . S
H1066 C1080 0.931 . S
H1067 C1082 0.930 . S
C1068 H1056 0.930 . S
C1068 C1069 1.399 . S
C1068 C1073 1.399 . S
C1069 C1068 1.399 . S
C1069 C1070 1.376 . S
C1070 H1057 0.930 . S
C1070 C1069 1.376 . S
C1070 C1071 1.388 . S
C1071 H1058 0.930 . S
C1071 C1070 1.388 . S
C1071 C1072 1.390 . S
C1072 C1071 1.390 . S
C1072 C1073 1.394 . S
C1072 C1078 1.465 . S
C1073 C1068 1.399 . S
C1073 C1072 1.394 . S
C1073 C1074 1.516 . S
C1074 C1073 1.516 . S
C1074 C1075 1.502 . S
C1074 C1076 1.561 . S
C1074 C1077 1.526 . S
C1075 H1059 0.959 . S
C1075 H1060 0.959 . S
C1075 H1061 0.961 . S
C1075 C1074 1.502 . S
C1076 H1062 0.960 . S
C1076 H1063 0.961 . S
C1076 H1064 0.959 . S
C1076 C1074 1.561 . S
C1077 C1074 1.526 . S
C1077 C1078 1.396 . S
C1077 C1082 1.390 . S
C1078 C1072 1.465 . S
C1078 C1077 1.396 . S
C1078 C1079 1.399 . S
C1079 H1065 0.929 . S
C1079 C1078 1.399 . S
C1079 C1080 1.385 . S
C1080 H1066 0.931 . S
C1080 C1079 1.385 . S
C1080 C1081 1.389 . S
C1081 C1080 1.389 . S
C1081 C1082 1.387 . S
C1082 H1067 0.930 . S
C1082 C1077 1.390 . S
C1082 C1081 1.387 . S
H1083 C1095 0.930 . S
H1084 C1097 0.930 . S
H1085 C1098 0.930 . S
H1086 C1102 0.959 . S
H1087 C1102 0.959 . S
H1088 C1102 0.961 . S
H1089 C1103 0.960 . S
H1090 C1103 0.961 . S
H1091 C1103 0.959 . S
H1092 C1106 0.929 . S
H1093 C1107 0.931 . S
H1094 C1109 0.930 . S
C1095 H1083 0.930 . S
C1095 C1096 1.399 . S
C1095 C1100 1.399 . S
C1096 C1095 1.399 . S
C1096 C1097 1.376 . S
C1097 H1084 0.930 . S
C1097 C1096 1.376 . S
C1097 C1098 1.388 . S
C1098 H1085 0.930 . S
C1098 C1097 1.388 . S
C1098 C1099 1.390 . S
C1099 C1098 1.390 . S
C1099 C1100 1.394 . S
C1099 C1105 1.465 . S
C1100 C1095 1.399 . S
C1100 C1099 1.394 . S
C1100 C1101 1.516 . S
C1101 C1100 1.516 . S
C1101 C1102 1.502 . S
C1101 C1103 1.561 . S
C1101 C1104 1.526 . S
C1102 H1086 0.959 . S
C1102 H1087 0.959 . S
C1102 H1088 0.961 . S
C1102 C1101 1.502 . S
C1103 H1089 0.960 . S
C1103 H1090 0.961 . S
C1103 H1091 0.959 . S
C1103 C1101 1.561 . S
C1104 C1101 1.526 . S
C1104 C1105 1.396 . S
C1104 C1109 1.390 . S
C1105 C1099 1.465 . S
C1105 C1104 1.396 . S
C1105 C1106 1.399 . S
C1106 H1092 0.929 . S
C1106 C1105 1.399 . S
C1106 C1107 1.385 . S
C1107 H1093 0.931 . S
C1107 C1106 1.385 . S
C1107 C1108 1.389 . S
C1108 C1107 1.389 . S
C1108 C1109 1.387 . S
C1109 H1094 0.930 . S
C1109 C1104 1.390 . S
C1109 C1108 1.387 . S
H1110 C1122 0.930 . S
H1111 C1124 0.930 . S
H1112 C1125 0.930 . S
H1113 C1129 0.959 . S
H1114 C1129 0.959 . S
H1115 C1129 0.961 . S
H1116 C1130 0.960 . S
H1117 C1130 0.961 . S
H1118 C1130 0.959 . S
H1119 C1133 0.929 . S
H1120 C1134 0.931 . S
H1121 C1136 0.930 . S
C1122 H1110 0.930 . S
C1122 C1123 1.399 . S
C1122 C1127 1.399 . S
C1123 C1122 1.399 . S
C1123 C1124 1.376 . S
C1124 H1111 0.930 . S
C1124 C1123 1.376 . S
C1124 C1125 1.388 . S
C1125 H1112 0.930 . S
C1125 C1124 1.388 . S
C1125 C1126 1.390 . S
C1126 C1125 1.390 . S
C1126 C1127 1.394 . S
C1126 C1132 1.465 . S
C1127 C1122 1.399 . S
C1127 C1126 1.394 . S
C1127 C1128 1.516 . S
C1128 C1127 1.516 . S
C1128 C1129 1.502 . S
C1128 C1130 1.561 . S
C1128 C1131 1.526 . S
C1129 H1113 0.959 . S
C1129 H1114 0.959 . S
C1129 H1115 0.961 . S
C1129 C1128 1.502 . S
C1130 H1116 0.960 . S
C1130 H1117 0.961 . S
C1130 H1118 0.959 . S
C1130 C1128 1.561 . S
C1131 C1128 1.526 . S
C1131 C1132 1.396 . S
C1131 C1136 1.390 . S
C1132 C1126 1.465 . S
C1132 C1131 1.396 . S
C1132 C1133 1.399 . S
C1133 H1119 0.929 . S
C1133 C1132 1.399 . S
C1133 C1134 1.385 . S
C1134 H1120 0.931 . S
C1134 C1133 1.385 . S
C1134 C1135 1.389 . S
C1135 C1134 1.389 . S
C1135 C1136 1.387 . S
C1136 H1121 0.930 . S
C1136 C1131 1.390 . S
C1136 C1135 1.387 . S
H1137 C1149 0.930 . S
H1138 C1151 0.930 . S
H1139 C1152 0.930 . S
H1140 C1156 0.959 . S
H1141 C1156 0.959 . S
H1142 C1156 0.961 . S
H1143 C1157 0.960 . S
H1144 C1157 0.961 . S
H1145 C1157 0.959 . S
H1146 C1160 0.929 . S
H1147 C1161 0.931 . S
H1148 C1163 0.930 . S
C1149 H1137 0.930 . S
C1149 C1150 1.399 . S
C1149 C1154 1.399 . S
C1150 C1149 1.399 . S
C1150 C1151 1.376 . S
C1151 H1138 0.930 . S
C1151 C1150 1.376 . S
C1151 C1152 1.388 . S
C1152 H1139 0.930 . S
C1152 C1151 1.388 . S
C1152 C1153 1.390 . S
C1153 C1152 1.390 . S
C1153 C1154 1.394 . S
C1153 C1159 1.465 . S
C1154 C1149 1.399 . S
C1154 C1153 1.394 . S
C1154 C1155 1.516 . S
C1155 C1154 1.516 . S
C1155 C1156 1.502 . S
C1155 C1157 1.561 . S
C1155 C1158 1.526 . S
C1156 H1140 0.959 . S
C1156 H1141 0.959 . S
C1156 H1142 0.961 . S
C1156 C1155 1.502 . S
C1157 H1143 0.960 . S
C1157 H1144 0.961 . S
C1157 H1145 0.959 . S
C1157 C1155 1.561 . S
C1158 C1155 1.526 . S
C1158 C1159 1.396 . S
C1158 C1163 1.390 . S
C1159 C1153 1.465 . S
C1159 C1158 1.396 . S
C1159 C1160 1.399 . S
C1160 H1146 0.929 . S
C1160 C1159 1.399 . S
C1160 C1161 1.385 . S
C1161 H1147 0.931 . S
C1161 C1160 1.385 . S
C1161 C1162 1.389 . S
C1162 C1161 1.389 . S
C1162 C1163 1.387 . S
C1163 H1148 0.930 . S
C1163 C1158 1.390 . S
C1163 C1162 1.387 . S
H1164 C1176 0.930 . S
H1165 C1178 0.930 . S
H1166 C1179 0.930 . S
H1167 C1183 0.959 . S
H1168 C1183 0.959 . S
H1169 C1183 0.961 . S
H1170 C1184 0.960 . S
H1171 C1184 0.961 . S
H1172 C1184 0.959 . S
H1173 C1187 0.929 . S
H1174 C1188 0.931 . S
H1175 C1190 0.930 . S
C1176 H1164 0.930 . S
C1176 C1177 1.399 . S
C1176 C1181 1.399 . S
C1177 C1176 1.399 . S
C1177 C1178 1.376 . S
C1178 H1165 0.930 . S
C1178 C1177 1.376 . S
C1178 C1179 1.388 . S
C1179 H1166 0.930 . S
C1179 C1178 1.388 . S
C1179 C1180 1.390 . S
C1180 C1179 1.390 . S
C1180 C1181 1.394 . S
C1180 C1186 1.465 . S
C1181 C1176 1.399 . S
C1181 C1180 1.394 . S
C1181 C1182 1.516 . S
C1182 C1181 1.516 . S
C1182 C1183 1.502 . S
C1182 C1184 1.561 . S
C1182 C1185 1.526 . S
C1183 H1167 0.959 . S
C1183 H1168 0.959 . S
C1183 H1169 0.961 . S
C1183 C1182 1.502 . S
C1184 H1170 0.960 . S
C1184 H1171 0.961 . S
C1184 H1172 0.959 . S
C1184 C1182 1.561 . S
C1185 C1182 1.526 . S
C1185 C1186 1.396 . S
C1185 C1190 1.390 . S
C1186 C1180 1.465 . S
C1186 C1185 1.396 . S
C1186 C1187 1.399 . S
C1187 H1173 0.929 . S
C1187 C1186 1.399 . S
C1187 C1188 1.385 . S
C1188 H1174 0.931 . S
C1188 C1187 1.385 . S
C1188 C1189 1.389 . S
C1189 C1188 1.389 . S
C1189 C1190 1.387 . S
C1190 H1175 0.930 . S
C1190 C1185 1.390 . S
C1190 C1189 1.387 . S
H1191 C1203 0.930 . S
H1192 C1205 0.930 . S
H1193 C1206 0.930 . S
H1194 C1210 0.959 . S
H1195 C1210 0.959 . S
H1196 C1210 0.961 . S
H1197 C1211 0.960 . S
H1198 C1211 0.961 . S
H1199 C1211 0.959 . S
H1200 C1214 0.929 . S
H1201 C1215 0.931 . S
H1202 C1217 0.930 . S
C1203 H1191 0.930 . S
C1203 C1204 1.399 . S
C1203 C1208 1.399 . S
C1204 C1203 1.399 . S
C1204 C1205 1.376 . S
C1205 H1192 0.930 . S
C1205 C1204 1.376 . S
C1205 C1206 1.388 . S
C1206 H1193 0.930 . S
C1206 C1205 1.388 . S
C1206 C1207 1.390 . S
C1207 C1206 1.390 . S
C1207 C1208 1.394 . S
C1207 C1213 1.465 . S
C1208 C1203 1.399 . S
C1208 C1207 1.394 . S
C1208 C1209 1.516 . S
C1209 C1208 1.516 . S
C1209 C1210 1.502 . S
C1209 C1211 1.561 . S
C1209 C1212 1.526 . S
C1210 H1194 0.959 . S
C1210 H1195 0.959 . S
C1210 H1196 0.961 . S
C1210 C1209 1.502 . S
C1211 H1197 0.960 . S
C1211 H1198 0.961 . S
C1211 H1199 0.959 . S
C1211 C1209 1.561 . S
C1212 C1209 1.526 . S
C1212 C1213 1.396 . S
C1212 C1217 1.390 . S
C1213 C1207 1.465 . S
C1213 C1212 1.396 . S
C1213 C1214 1.399 . S
C1214 H1200 0.929 . S
C1214 C1213 1.399 . S
C1214 C1215 1.385 . S
C1215 H1201 0.931 . S
C1215 C1214 1.385 . S
C1215 C1216 1.389 . S
C1216 C1215 1.389 . S
C1216 C1217 1.387 . S
C1217 H1202 0.930 . S
C1217 C1212 1.390 . S
C1217 C1216 1.387 . S
H1218 C1230 0.930 . S
H1219 C1232 0.930 . S
H1220 C1233 0.930 . S
H1221 C1237 0.959 . S
H1222 C1237 0.959 . S
H1223 C1237 0.961 . S
H1224 C1238 0.960 . S
H1225 C1238 0.961 . S
H1226 C1238 0.959 . S
H1227 C1241 0.929 . S
H1228 C1242 0.931 . S
H1229 C1244 0.930 . S
C1230 H1218 0.930 . S
C1230 C1231 1.399 . S
C1230 C1235 1.399 . S
C1231 C1230 1.399 . S
C1231 C1232 1.376 . S
C1232 H1219 0.930 . S
C1232 C1231 1.376 . S
C1232 C1233 1.388 . S
C1233 H1220 0.930 . S
C1233 C1232 1.388 . S
C1233 C1234 1.390 . S
C1234 C1233 1.390 . S
C1234 C1235 1.394 . S
C1234 C1240 1.465 . S
C1235 C1230 1.399 . S
C1235 C1234 1.394 . S
C1235 C1236 1.516 . S
C1236 C1235 1.516 . S
C1236 C1237 1.502 . S
C1236 C1238 1.561 . S
C1236 C1239 1.526 . S
C1237 H1221 0.959 . S
C1237 H1222 0.959 . S
C1237 H1223 0.961 . S
C1237 C1236 1.502 . S
C1238 H1224 0.960 . S
C1238 H1225 0.961 . S
C1238 H1226 0.959 . S
C1238 C1236 1.561 . S
C1239 C1236 1.526 . S
C1239 C1240 1.396 . S
C1239 C1244 1.390 . S
C1240 C1234 1.465 . S
C1240 C1239 1.396 . S
C1240 C1241 1.399 . S
C1241 H1227 0.929 . S
C1241 C1240 1.399 . S
C1241 C1242 1.385 . S
C1242 H1228 0.931 . S
C1242 C1241 1.385 . S
C1242 C1243 1.389 . S
C1243 C1242 1.389 . S
C1243 C1244 1.387 . S
C1244 H1229 0.930 . S
C1244 C1239 1.390 . S
C1244 C1243 1.387 . S
H1245 C1257 0.930 . S
H1246 C1259 0.930 . S
H1247 C1260 0.930 . S
H1248 C1264 0.959 . S
H1249 C1264 0.959 . S
H1250 C1264 0.961 . S
H1251 C1265 0.960 . S
H1252 C1265 0.961 . S
H1253 C1265 0.959 . S
H1254 C1268 0.929 . S
H1255 C1269 0.931 . S
H1256 C1271 0.930 . S
C1257 H1245 0.930 . S
C1257 C1258 1.399 . S
C1257 C1262 1.399 . S
C1258 C1257 1.399 . S
C1258 C1259 1.376 . S
C1259 H1246 0.930 . S
C1259 C1258 1.376 . S
C1259 C1260 1.388 . S
C1260 H1247 0.930 . S
C1260 C1259 1.388 . S
C1260 C1261 1.390 . S
C1261 C1260 1.390 . S
C1261 C1262 1.394 . S
C1261 C1267 1.465 . S
C1262 C1257 1.399 . S
C1262 C1261 1.394 . S
C1262 C1263 1.516 . S
C1263 C1262 1.516 . S
C1263 C1264 1.502 . S
C1263 C1265 1.561 . S
C1263 C1266 1.526 . S
C1264 H1248 0.959 . S
C1264 H1249 0.959 . S
C1264 H1250 0.961 . S
C1264 C1263 1.502 . S
C1265 H1251 0.960 . S
C1265 H1252 0.961 . S
C1265 H1253 0.959 . S
C1265 C1263 1.561 . S
C1266 C1263 1.526 . S
C1266 C1267 1.396 . S
C1266 C1271 1.390 . S
C1267 C1261 1.465 . S
C1267 C1266 1.396 . S
C1267 C1268 1.399 . S
C1268 H1254 0.929 . S
C1268 C1267 1.399 . S
C1268 C1269 1.385 . S
C1269 H1255 0.931 . S
C1269 C1268 1.385 . S
C1269 C1270 1.389 . S
C1270 C1269 1.389 . S
C1270 C1271 1.387 . S
C1271 H1256 0.930 . S
C1271 C1266 1.390 . S
C1271 C1270 1.387 . S
H1272 C1284 0.909 1_455 S
H1273 C1286 0.930 . S
H1274 C1287 0.930 . S
H1275 C1291 0.959 . S
H1276 C1291 0.959 . S
H1277 C1291 0.961 . S
H1278 C1292 0.960 . S
H1279 C1292 0.961 . S
H1280 C1292 0.959 1_655 S
H1281 C1295 0.929 . S
H1282 C1296 0.931 . S
H1283 C1298 0.930 . S
C1284 H1272 0.909 1_655 S
C1284 C1285 1.424 . S
C1284 C1289 1.397 1_655 S
C1285 C1284 1.424 . S
C1285 C1286 1.376 . S
C1286 H1273 0.930 . S
C1286 C1285 1.376 . S
C1286 C1287 1.388 . S
C1287 H1274 0.930 . S
C1287 C1286 1.388 . S
C1287 C1288 1.390 . S
C1288 C1287 1.390 . S
C1288 C1289 1.379 1_655 S
C1288 C1294 1.465 . S
C1289 C1284 1.397 1_455 S
C1289 C1288 1.379 1_455 S
C1289 C1290 1.531 . S
C1290 C1289 1.531 . S
C1290 C1291 1.502 . S
C1290 C1292 1.561 . S
C1290 C1293 1.526 . S
C1291 H1275 0.959 . S
C1291 H1276 0.959 . S
C1291 H1277 0.961 . S
C1291 C1290 1.502 . S
C1292 H1278 0.960 . S
C1292 H1279 0.961 . S
C1292 H1280 0.959 1_455 S
C1292 C1290 1.561 . S
C1293 C1290 1.526 . S
C1293 C1294 1.396 1_455 S
C1293 C1298 1.390 . S
C1294 C1288 1.465 . S
C1294 C1293 1.396 1_655 S
C1294 C1295 1.399 . S
C1295 H1281 0.929 . S
C1295 C1294 1.399 . S
C1295 C1296 1.385 . S
C1296 H1282 0.931 . S
C1296 C1295 1.385 . S
C1296 C1297 1.389 1_655 S
C1297 C1296 1.389 1_455 S
C1297 C1298 1.387 . S
C1298 H1283 0.930 . S
C1298 C1293 1.390 . S
C1298 C1297 1.387 . S
H1299 C1311 0.930 . S
H1300 C1313 0.930 . S
H1301 C1314 0.930 . S
H1302 C1318 0.959 . S
H1303 C1318 0.959 . S
H1304 C1318 0.961 . S
H1305 C1319 0.960 . S
H1306 C1319 0.961 . S
H1307 C1319 0.959 . S
H1308 C1322 0.929 . S
H1309 C1323 0.931 . S
H1310 C1325 0.930 . S
C1311 H1299 0.930 . S
C1311 C1312 1.399 1_545 S
C1311 C1316 1.399 . S
C1312 C1311 1.399 1_565 S
C1312 C1313 1.376 . S
C1313 H1300 0.930 . S
C1313 C1312 1.376 . S
C1313 C1314 1.388 . S
C1314 H1301 0.930 . S
C1314 C1313 1.388 . S
C1314 C1315 1.390 . S
C1315 C1314 1.390 . S
C1315 C1316 1.394 1_565 S
C1315 C1321 1.465 . S
C1316 C1311 1.399 . S
C1316 C1315 1.394 1_545 S
C1316 C1317 1.516 . S
C1317 C1316 1.516 . S
C1317 C1318 1.502 . S
C1317 C1319 1.561 . S
C1317 C1320 1.526 . S
C1318 H1302 0.959 . S
C1318 H1303 0.959 . S
C1318 H1304 0.961 . S
C1318 C1317 1.502 . S
C1319 H1305 0.960 . S
C1319 H1306 0.961 . S
C1319 H1307 0.959 . S
C1319 C1317 1.561 . S
C1320 C1317 1.526 . S
C1320 C1321 1.396 1_545 S
C1320 C1325 1.390 . S
C1321 C1315 1.465 . S
C1321 C1320 1.396 1_565 S
C1321 C1322 1.399 . S
C1322 H1308 0.929 . S
C1322 C1321 1.399 . S
C1322 C1323 1.385 . S
C1323 H1309 0.931 . S
C1323 C1322 1.385 . S
C1323 C1324 1.389 1_565 S
C1324 C1323 1.389 1_545 S
C1324 C1325 1.387 . S
C1325 H1310 0.930 . S
C1325 C1320 1.390 . S
C1325 C1324 1.387 . S
H1326 C1338 0.924 1_455 S
H1327 C1340 0.930 . S
H1328 C1341 0.930 . S
H1329 C1345 0.959 1_655 S
H1330 C1345 0.959 . S
H1331 C1345 0.961 . S
H1332 C1346 0.960 . S
H1333 C1346 0.961 . S
H1334 C1346 0.959 . S
H1335 C1349 0.929 . S
H1336 C1350 0.931 . S
H1337 C1352 0.930 . S
C1338 H1326 0.924 1_655 S
C1338 C1339 1.407 . S
C1338 C1343 1.397 1_655 S
C1339 C1338 1.407 . S
C1339 C1340 1.376 . S
C1340 H1327 0.930 . S
C1340 C1339 1.376 . S
C1340 C1341 1.388 . S
C1341 H1328 0.930 . S
C1341 C1340 1.388 . S
C1341 C1342 1.390 . S
C1342 C1341 1.390 . S
C1342 C1343 1.394 1_655 S
C1342 C1348 1.465 . S
C1343 C1338 1.397 1_455 S
C1343 C1342 1.394 1_455 S
C1343 C1344 1.516 . S
C1344 C1343 1.516 . S
C1344 C1345 1.502 . S
C1344 C1346 1.561 . S
C1344 C1347 1.526 . S
C1345 H1329 0.959 1_455 S
C1345 H1330 0.959 . S
C1345 H1331 0.961 . S
C1345 C1344 1.502 . S
C1346 H1332 0.960 . S
C1346 H1333 0.961 . S
C1346 H1334 0.959 . S
C1346 C1344 1.561 . S
C1347 C1344 1.526 . S
C1347 C1348 1.396 1_455 S
C1347 C1352 1.390 . S
C1348 C1342 1.465 . S
C1348 C1347 1.396 1_655 S
C1348 C1349 1.399 . S
C1349 H1335 0.929 . S
C1349 C1348 1.399 . S
C1349 C1350 1.385 . S
C1350 H1336 0.931 . S
C1350 C1349 1.385 . S
C1350 C1351 1.389 1_655 S
C1351 C1350 1.389 1_455 S
C1351 C1352 1.387 . S
C1352 H1337 0.930 . S
C1352 C1347 1.390 . S
C1352 C1351 1.387 . S
H1353 C1365 0.930 . S
H1354 C1367 0.930 . S
H1355 C1368 0.930 . S
H1356 C1372 0.959 . S
H1357 C1372 0.959 . S
H1358 C1372 0.961 . S
H1359 C1373 0.960 . S
H1360 C1373 0.961 . S
H1361 C1373 0.959 . S
H1362 C1376 0.929 . S
H1363 C1377 0.931 . S
H1364 C1379 0.930 . S
C1365 H1353 0.930 . S
C1365 C1366 1.399 1_565 S
C1365 C1370 1.399 . S
C1366 C1365 1.399 1_545 S
C1366 C1367 1.376 . S
C1367 H1354 0.930 . S
C1367 C1366 1.376 . S
C1367 C1368 1.388 . S
C1368 H1355 0.930 . S
C1368 C1367 1.388 . S
C1368 C1369 1.390 . S
C1369 C1368 1.390 . S
C1369 C1370 1.394 1_545 S
C1369 C1375 1.465 . S
C1370 C1365 1.399 . S
C1370 C1369 1.394 1_565 S
C1370 C1371 1.516 . S
C1371 C1370 1.516 . S
C1371 C1372 1.502 . S
C1371 C1373 1.561 . S
C1371 C1374 1.526 . S
C1372 H1356 0.959 . S
C1372 H1357 0.959 . S
C1372 H1358 0.961 . S
C1372 C1371 1.502 . S
C1373 H1359 0.960 . S
C1373 H1360 0.961 . S
C1373 H1361 0.959 . S
C1373 C1371 1.561 . S
C1374 C1371 1.526 . S
C1374 C1375 1.396 1_565 S
C1374 C1379 1.390 . S
C1375 C1369 1.465 . S
C1375 C1374 1.396 1_545 S
C1375 C1376 1.399 . S
C1376 H1362 0.929 . S
C1376 C1375 1.399 . S
C1376 C1377 1.385 . S
C1377 H1363 0.931 . S
C1377 C1376 1.385 . S
C1377 C1378 1.389 1_545 S
C1378 C1377 1.389 1_565 S
C1378 C1379 1.387 . S
C1379 H1364 0.930 . S
C1379 C1374 1.390 . S
C1379 C1378 1.387 . S
H1380 C1392 0.930 . S
H1381 C1394 0.940 . S
H1382 C1395 0.930 . S
H1383 C1399 0.959 1_655 S
H1384 C1399 0.959 . S
H1385 C1399 0.961 . S
H1386 C1400 0.960 . S
H1387 C1400 0.961 . S
H1388 C1400 0.959 . S
H1389 C1403 0.929 . S
H1390 C1404 0.931 . S
H1391 C1406 0.928 . S
C1392 H1380 0.930 . S
C1392 C1393 1.399 . S
C1392 C1397 1.399 . S
C1393 C1392 1.399 . S
C1393 C1394 1.357 1_455 S
C1394 H1381 0.940 . S
C1394 C1393 1.357 1_655 S
C1394 C1395 1.400 . S
C1395 H1382 0.930 . S
C1395 C1394 1.400 . S
C1395 C1396 1.390 . S
C1396 C1395 1.390 . S
C1396 C1397 1.394 1_655 S
C1396 C1402 1.465 . S
C1397 C1392 1.399 . S
C1397 C1396 1.394 1_455 S
C1397 C1398 1.516 . S
C1398 C1397 1.516 . S
C1398 C1399 1.502 . S
C1398 C1400 1.561 . S
C1398 C1401 1.526 . S
C1399 H1383 0.959 1_455 S
C1399 H1384 0.959 . S
C1399 H1385 0.961 . S
C1399 C1398 1.502 . S
C1400 H1386 0.960 . S
C1400 H1387 0.961 . S
C1400 H1388 0.959 . S
C1400 C1398 1.561 . S
C1401 C1398 1.526 . S
C1401 C1402 1.396 1_455 S
C1401 C1406 1.389 . S
C1402 C1396 1.465 . S
C1402 C1401 1.396 1_655 S
C1402 C1403 1.399 . S
C1403 H1389 0.929 . S
C1403 C1402 1.399 . S
C1403 C1404 1.385 . S
C1404 H1390 0.931 . S
C1404 C1403 1.385 . S
C1404 C1405 1.389 . S
C1405 C1404 1.389 . S
C1405 C1406 1.389 1_655 S
C1406 H1391 0.928 . S
C1406 C1401 1.389 . S
C1406 C1405 1.389 1_455 S
H1407 C1419 0.930 . S
H1408 C1421 0.930 . S
H1409 C1422 0.930 . S
H1410 C1426 0.959 . S
H1411 C1426 0.959 . S
H1412 C1426 0.961 . S
H1413 C1427 0.960 . S
H1414 C1427 0.961 . S
H1415 C1427 0.959 . S
H1416 C1430 0.929 . S
H1417 C1431 0.931 . S
H1418 C1433 0.930 . S
C1419 H1407 0.930 . S
C1419 C1420 1.399 . S
C1419 C1424 1.399 . S
C1420 C1419 1.399 . S
C1420 C1421 1.376 . S
C1421 H1408 0.930 . S
C1421 C1420 1.376 . S
C1421 C1422 1.388 1_565 S
C1422 H1409 0.930 . S
C1422 C1421 1.388 1_545 S
C1422 C1423 1.390 . S
C1423 C1422 1.390 . S
C1423 C1424 1.394 1_545 S
C1423 C1429 1.465 . S
C1424 C1419 1.399 . S
C1424 C1423 1.394 1_565 S
C1424 C1425 1.516 . S
C1425 C1424 1.516 . S
C1425 C1426 1.502 . S
C1425 C1427 1.561 1_565 S
C1425 C1428 1.526 1_565 S
C1426 H1410 0.959 . S
C1426 H1411 0.959 . S
C1426 H1412 0.961 . S
C1426 C1425 1.502 . S
C1427 H1413 0.960 . S
C1427 H1414 0.961 . S
C1427 H1415 0.959 . S
C1427 C1425 1.561 1_545 S
C1428 C1425 1.526 1_545 S
C1428 C1429 1.396 . S
C1428 C1433 1.390 . S
C1429 C1423 1.465 . S
C1429 C1428 1.396 . S
C1429 C1430 1.399 . S
C1430 H1416 0.929 . S
C1430 C1429 1.399 . S
C1430 C1431 1.385 . S
C1431 H1417 0.931 . S
C1431 C1430 1.385 . S
C1431 C1432 1.389 . S
C1432 C1431 1.389 . S
C1432 C1433 1.387 . S
C1433 H1418 0.930 . S
C1433 C1428 1.390 . S
C1433 C1432 1.387 . S
H1434 C1446 0.930 . S
H1435 C1448 0.930 . S
H1436 C1449 0.930 . S
H1437 C1453 0.959 . S
H1438 C1453 0.959 . S
H1439 C1453 0.961 . S
H1440 C1454 0.960 . S
H1441 C1454 0.961 . S
H1442 C1454 0.959 . S
H1443 C1457 0.929 . S
H1444 C1458 0.931 . S
H1445 C1460 0.930 . S
C1446 H1434 0.930 . S
C1446 C1447 1.399 1_655 S
C1446 C1451 1.399 . S
C1447 C1446 1.399 1_455 S
C1447 C1448 1.376 . S
C1448 H1435 0.930 . S
C1448 C1447 1.376 . S
C1448 C1449 1.388 . S
C1449 H1436 0.930 . S
C1449 C1448 1.388 . S
C1449 C1450 1.390 . S
C1450 C1449 1.390 . S
C1450 C1451 1.394 1_455 S
C1450 C1456 1.465 . S
C1451 C1446 1.399 . S
C1451 C1450 1.394 1_655 S
C1451 C1452 1.516 . S
C1452 C1451 1.516 . S
C1452 C1453 1.502 . S
C1452 C1454 1.561 . S
C1452 C1455 1.526 . S
C1453 H1437 0.959 . S
C1453 H1438 0.959 . S
C1453 H1439 0.961 . S
C1453 C1452 1.502 . S
C1454 H1440 0.960 . S
C1454 H1441 0.961 . S
C1454 H1442 0.959 . S
C1454 C1452 1.561 . S
C1455 C1452 1.526 . S
C1455 C1456 1.396 1_655 S
C1455 C1460 1.390 . S
C1456 C1450 1.465 . S
C1456 C1455 1.396 1_455 S
C1456 C1457 1.399 . S
C1457 H1443 0.929 . S
C1457 C1456 1.399 . S
C1457 C1458 1.385 . S
C1458 H1444 0.931 . S
C1458 C1457 1.385 . S
C1458 C1459 1.389 1_455 S
C1459 C1458 1.389 1_655 S
C1459 C1460 1.387 . S
C1460 H1445 0.930 . S
C1460 C1455 1.390 . S
C1460 C1459 1.387 . S
H1461 C1473 0.930 . S
H1462 C1475 0.930 . S
H1463 C1476 0.930 . S
H1464 C1480 0.959 . S
H1465 C1480 0.959 . S
H1466 C1480 0.961 . S
H1467 C1481 0.960 . S
H1468 C1481 0.961 . S
H1469 C1481 0.959 . S
H1470 C1484 0.929 . S
H1471 C1485 0.931 . S
H1472 C1487 0.930 . S
C1473 H1461 0.930 . S
C1473 C1474 1.399 1_565 S
C1473 C1478 1.399 . S
C1474 C1473 1.399 1_545 S
C1474 C1475 1.376 . S
C1475 H1462 0.930 . S
C1475 C1474 1.376 . S
C1475 C1476 1.388 . S
C1476 H1463 0.930 . S
C1476 C1475 1.388 . S
C1476 C1477 1.390 . S
C1477 C1476 1.390 . S
C1477 C1478 1.394 1_545 S
C1477 C1483 1.465 . S
C1478 C1473 1.399 . S
C1478 C1477 1.394 1_565 S
C1478 C1479 1.516 . S
C1479 C1478 1.516 . S
C1479 C1480 1.502 . S
C1479 C1481 1.561 . S
C1479 C1482 1.526 . S
C1480 H1464 0.959 . S
C1480 H1465 0.959 . S
C1480 H1466 0.961 . S
C1480 C1479 1.502 . S
C1481 H1467 0.960 . S
C1481 H1468 0.961 . S
C1481 H1469 0.959 . S
C1481 C1479 1.561 . S
C1482 C1479 1.526 . S
C1482 C1483 1.396 1_565 S
C1482 C1487 1.390 . S
C1483 C1477 1.465 . S
C1483 C1482 1.396 1_545 S
C1483 C1484 1.399 . S
C1484 H1470 0.929 . S
C1484 C1483 1.399 . S
C1484 C1485 1.385 . S
C1485 H1471 0.931 . S
C1485 C1484 1.385 . S
C1485 C1486 1.389 1_545 S
C1486 C1485 1.389 1_565 S
C1486 C1487 1.387 . S
C1487 H1472 0.930 . S
C1487 C1482 1.390 . S
C1487 C1486 1.387 . S
H1488 C1500 0.930 . S
H1489 C1502 0.930 . S
H1490 C1503 0.930 . S
H1491 C1507 0.959 . S
H1492 C1507 0.959 . S
H1493 C1507 0.961 . S
H1494 C1508 0.960 . S
H1495 C1508 0.961 . S
H1496 C1508 0.959 . S
H1497 C1511 0.929 . S
H1498 C1512 0.931 . S
H1499 C1514 0.930 . S
C1500 H1488 0.930 . S
C1500 C1501 1.399 1_554 S
C1500 C1505 1.399 . S
C1501 C1500 1.399 1_556 S
C1501 C1502 1.376 . S
C1502 H1489 0.930 . S
C1502 C1501 1.376 . S
C1502 C1503 1.388 . S
C1503 H1490 0.930 . S
C1503 C1502 1.388 . S
C1503 C1504 1.390 . S
C1504 C1503 1.390 . S
C1504 C1505 1.394 1_556 S
C1504 C1510 1.465 . S
C1505 C1500 1.399 . S
C1505 C1504 1.394 1_554 S
C1505 C1506 1.516 . S
C1506 C1505 1.516 . S
C1506 C1507 1.502 . S
C1506 C1508 1.561 . S
C1506 C1509 1.526 . S
C1507 H1491 0.959 . S
C1507 H1492 0.959 . S
C1507 H1493 0.961 . S
C1507 C1506 1.502 . S
C1508 H1494 0.960 . S
C1508 H1495 0.961 . S
C1508 H1496 0.959 . S
C1508 C1506 1.561 . S
C1509 C1506 1.526 . S
C1509 C1510 1.396 1_554 S
C1509 C1514 1.390 . S
C1510 C1504 1.465 . S
C1510 C1509 1.396 1_556 S
C1510 C1511 1.399 . S
C1511 H1497 0.929 . S
C1511 C1510 1.399 . S
C1511 C1512 1.385 . S
C1512 H1498 0.931 . S
C1512 C1511 1.385 . S
C1512 C1513 1.389 1_556 S
C1513 C1512 1.389 1_554 S
C1513 C1514 1.387 . S
C1514 H1499 0.930 . S
C1514 C1509 1.390 . S
C1514 C1513 1.387 . S
H1515 C1527 0.930 . S
H1516 C1529 0.930 . S
H1517 C1530 0.930 . S
H1518 C1534 0.959 . S
H1519 C1534 0.959 . S
H1520 C1534 0.961 . S
H1521 C1535 0.960 . S
H1522 C1535 0.961 . S
H1523 C1535 0.959 . S
H1524 C1538 0.929 . S
H1525 C1539 0.931 . S
H1526 C1541 0.930 . S
C1527 H1515 0.930 . S
C1527 C1528 1.399 . S
C1527 C1532 1.399 . S
C1528 C1527 1.399 . S
C1528 C1529 1.376 1_554 S
C1529 H1516 0.930 . S
C1529 C1528 1.376 1_556 S
C1529 C1530 1.388 . S
C1530 H1517 0.930 . S
C1530 C1529 1.388 . S
C1530 C1531 1.390 . S
C1531 C1530 1.390 . S
C1531 C1532 1.394 1_556 S
C1531 C1537 1.465 . S
C1532 C1527 1.399 . S
C1532 C1531 1.394 1_554 S
C1532 C1533 1.516 . S
C1533 C1532 1.516 . S
C1533 C1534 1.502 . S
C1533 C1535 1.561 . S
C1533 C1536 1.526 . S
C1534 H1518 0.959 . S
C1534 H1519 0.959 . S
C1534 H1520 0.961 . S
C1534 C1533 1.502 . S
C1535 H1521 0.960 . S
C1535 H1522 0.961 . S
C1535 H1523 0.959 . S
C1535 C1533 1.561 . S
C1536 C1533 1.526 . S
C1536 C1537 1.396 1_554 S
C1536 C1541 1.390 . S
C1537 C1531 1.465 . S
C1537 C1536 1.396 1_556 S
C1537 C1538 1.399 . S
C1538 H1524 0.929 . S
C1538 C1537 1.399 . S
C1538 C1539 1.385 . S
C1539 H1525 0.931 . S
C1539 C1538 1.385 . S
C1539 C1540 1.389 . S
C1540 C1539 1.389 . S
C1540 C1541 1.387 1_556 S
C1541 H1526 0.930 . S
C1541 C1536 1.390 . S
C1541 C1540 1.387 1_554 S
H1542 C1554 0.930 . S
H1543 C1556 0.930 . S
H1544 C1557 0.930 . S
H1545 C1561 0.959 . S
H1546 C1561 0.959 . S
H1547 C1561 0.961 . S
H1548 C1562 0.960 . S
H1549 C1562 0.961 . S
H1550 C1562 0.959 1_554 S
H1551 C1565 0.929 . S
H1552 C1566 0.931 . S
H1553 C1568 0.930 . S
C1554 H1542 0.930 . S
C1554 C1555 1.399 1_556 S
C1554 C1559 1.399 . S
C1555 C1554 1.399 1_554 S
C1555 C1556 1.376 . S
C1556 H1543 0.930 . S
C1556 C1555 1.376 . S
C1556 C1557 1.388 . S
C1557 H1544 0.930 . S
C1557 C1556 1.388 . S
C1557 C1558 1.390 . S
C1558 C1557 1.390 . S
C1558 C1559 1.394 1_554 S
C1558 C1564 1.465 . S
C1559 C1554 1.399 . S
C1559 C1558 1.394 1_556 S
C1559 C1560 1.516 . S
C1560 C1559 1.516 . S
C1560 C1561 1.502 . S
C1560 C1562 1.561 . S
C1560 C1563 1.526 . S
C1561 H1545 0.959 . S
C1561 H1546 0.959 . S
C1561 H1547 0.961 . S
C1561 C1560 1.502 . S
C1562 H1548 0.960 . S
C1562 H1549 0.961 . S
C1562 H1550 0.959 1_556 S
C1562 C1560 1.561 . S
C1563 C1560 1.526 . S
C1563 C1564 1.396 1_556 S
C1563 C1568 1.390 . S
C1564 C1558 1.465 . S
C1564 C1563 1.396 1_554 S
C1564 C1565 1.399 . S
C1565 H1551 0.929 . S
C1565 C1564 1.399 . S
C1565 C1566 1.385 . S
C1566 H1552 0.931 . S
C1566 C1565 1.385 . S
C1566 C1567 1.389 1_554 S
C1567 C1566 1.389 1_556 S
C1567 C1568 1.387 . S
C1568 H1553 0.930 . S
C1568 C1563 1.390 . S
C1568 C1567 1.387 . S
H1569 C1581 0.930 . S
H1570 C1583 0.930 . S
H1571 C1584 0.930 . S
H1572 C1588 0.959 . S
H1573 C1588 0.959 . S
H1574 C1588 0.961 . S
H1575 C1589 0.960 . S
H1576 C1589 0.961 . S
H1577 C1589 0.959 . S
H1578 C1592 0.929 . S
H1579 C1593 0.931 . S
H1580 C1595 0.930 . S
C1581 H1569 0.930 . S
C1581 C1582 1.399 . S
C1581 C1586 1.399 . S
C1582 C1581 1.399 . S
C1582 C1583 1.376 1_556 S
C1583 H1570 0.930 . S
C1583 C1582 1.376 1_554 S
C1583 C1584 1.388 . S
C1584 H1571 0.930 . S
C1584 C1583 1.388 . S
C1584 C1585 1.390 . S
C1585 C1584 1.390 . S
C1585 C1586 1.394 1_554 S
C1585 C1591 1.465 . S
C1586 C1581 1.399 . S
C1586 C1585 1.394 1_556 S
C1586 C1587 1.516 . S
C1587 C1586 1.516 . S
C1587 C1588 1.502 . S
C1587 C1589 1.561 . S
C1587 C1590 1.526 . S
C1588 H1572 0.959 . S
C1588 H1573 0.959 . S
C1588 H1574 0.961 . S
C1588 C1587 1.502 . S
C1589 H1575 0.960 . S
C1589 H1576 0.961 . S
C1589 H1577 0.959 . S
C1589 C1587 1.561 . S
C1590 C1587 1.526 . S
C1590 C1591 1.396 1_556 S
C1590 C1595 1.390 . S
C1591 C1585 1.465 . S
C1591 C1590 1.396 1_554 S
C1591 C1592 1.399 . S
C1592 H1578 0.929 . S
C1592 C1591 1.399 . S
C1592 C1593 1.385 . S
C1593 H1579 0.931 . S
C1593 C1592 1.385 . S
C1593 C1594 1.389 . S
C1594 C1593 1.389 . S
C1594 C1595 1.387 1_554 S
C1595 H1580 0.930 . S
C1595 C1590 1.390 . S
C1595 C1594 1.387 1_556 S
H1596 C1608 0.930 . S
H1597 C1610 0.930 . S
H1598 C1611 0.930 . S
H1599 C1615 0.959 . S
H1600 C1615 0.959 . S
H1601 C1615 0.961 . S
H1602 C1616 0.960 . S
H1603 C1616 0.961 . S
H1604 C1616 0.959 . S
H1605 C1619 0.929 . S
H1606 C1620 0.931 . S
H1607 C1622 0.930 . S
C1608 H1596 0.930 . S
C1608 C1609 1.399 . S
C1608 C1613 1.399 . S
C1609 C1608 1.399 . S
C1609 C1610 1.376 . S
C1610 H1597 0.930 . S
C1610 C1609 1.376 . S
C1610 C1611 1.388 . S
C1611 H1598 0.930 . S
C1611 C1610 1.388 . S
C1611 C1612 1.390 . S
C1612 C1611 1.390 . S
C1612 C1613 1.394 . S
C1612 C1618 1.465 . S
C1613 C1608 1.399 . S
C1613 C1612 1.394 . S
C1613 C1614 1.516 . S
C1614 C1613 1.516 . S
C1614 C1615 1.502 . S
C1614 C1616 1.561 . S
C1614 C1617 1.526 . S
C1615 H1599 0.959 . S
C1615 H1600 0.959 . S
C1615 H1601 0.961 . S
C1615 C1614 1.502 . S
C1616 H1602 0.960 . S
C1616 H1603 0.961 . S
C1616 H1604 0.959 . S
C1616 C1614 1.561 . S
C1617 C1614 1.526 . S
C1617 C1618 1.396 . S
C1617 C1622 1.390 . S
C1618 C1612 1.465 . S
C1618 C1617 1.396 . S
C1618 C1619 1.399 . S
C1619 H1605 0.929 . S
C1619 C1618 1.399 . S
C1619 C1620 1.385 . S
C1620 H1606 0.931 . S
C1620 C1619 1.385 . S
C1620 C1621 1.389 . S
C1621 C1620 1.389 . S
C1621 C1622 1.387 . S
C1622 H1607 0.930 . S
C1622 C1617 1.390 . S
C1622 C1621 1.387 . S
H1623 C1635 0.930 . S
H1624 C1637 0.930 . S
H1625 C1638 0.930 . S
H1626 C1642 0.959 . S
H1627 C1642 0.959 . S
H1628 C1642 0.961 . S
H1629 C1643 0.960 . S
H1630 C1643 0.961 . S
H1631 C1643 0.959 . S
H1632 C1646 0.929 . S
H1633 C1647 0.931 . S
H1634 C1649 0.930 . S
C1635 H1623 0.930 . S
C1635 C1636 1.399 . S
C1635 C1640 1.399 . S
C1636 C1635 1.399 . S
C1636 C1637 1.376 . S
C1637 H1624 0.930 . S
C1637 C1636 1.376 . S
C1637 C1638 1.388 . S
C1638 H1625 0.930 . S
C1638 C1637 1.388 . S
C1638 C1639 1.390 . S
C1639 C1638 1.390 . S
C1639 C1640 1.394 . S
C1639 C1645 1.465 . S
C1640 C1635 1.399 . S
C1640 C1639 1.394 . S
C1640 C1641 1.516 . S
C1641 C1640 1.516 . S
C1641 C1642 1.502 . S
C1641 C1643 1.561 . S
C1641 C1644 1.526 . S
C1642 H1626 0.959 . S
C1642 H1627 0.959 . S
C1642 H1628 0.961 . S
C1642 C1641 1.502 . S
C1643 H1629 0.960 . S
C1643 H1630 0.961 . S
C1643 H1631 0.959 . S
C1643 C1641 1.561 . S
C1644 C1641 1.526 . S
C1644 C1645 1.396 . S
C1644 C1649 1.390 . S
C1645 C1639 1.465 . S
C1645 C1644 1.396 . S
C1645 C1646 1.399 . S
C1646 H1632 0.929 . S
C1646 C1645 1.399 . S
C1646 C1647 1.385 . S
C1647 H1633 0.931 . S
C1647 C1646 1.385 . S
C1647 C1648 1.389 . S
C1648 C1647 1.389 . S
C1648 C1649 1.387 . S
C1649 H1634 0.930 . S
C1649 C1644 1.390 . S
C1649 C1648 1.387 . S
H1650 C1662 0.930 . S
H1651 C1664 0.930 . S
H1652 C1665 0.930 . S
H1653 C1669 0.959 . S
H1654 C1669 0.959 . S
H1655 C1669 0.961 . S
H1656 C1670 0.960 . S
H1657 C1670 0.961 . S
H1658 C1670 0.959 . S
H1659 C1673 0.929 . S
H1660 C1674 0.931 . S
H1661 C1676 0.930 . S
C1662 H1650 0.930 . S
C1662 C1663 1.399 . S
C1662 C1667 1.399 . S
C1663 C1662 1.399 . S
C1663 C1664 1.376 . S
C1664 H1651 0.930 . S
C1664 C1663 1.376 . S
C1664 C1665 1.388 . S
C1665 H1652 0.930 . S
C1665 C1664 1.388 . S
C1665 C1666 1.390 . S
C1666 C1665 1.390 . S
C1666 C1667 1.394 . S
C1666 C1672 1.465 . S
C1667 C1662 1.399 . S
C1667 C1666 1.394 . S
C1667 C1668 1.516 . S
C1668 C1667 1.516 . S
C1668 C1669 1.502 . S
C1668 C1670 1.561 . S
C1668 C1671 1.526 . S
C1669 H1653 0.959 . S
C1669 H1654 0.959 . S
C1669 H1655 0.961 . S
C1669 C1668 1.502 . S
C1670 H1656 0.960 . S
C1670 H1657 0.961 . S
C1670 H1658 0.959 . S
C1670 C1668 1.561 . S
C1671 C1668 1.526 . S
C1671 C1672 1.396 . S
C1671 C1676 1.390 . S
C1672 C1666 1.465 . S
C1672 C1671 1.396 . S
C1672 C1673 1.399 . S
C1673 H1659 0.929 . S
C1673 C1672 1.399 . S
C1673 C1674 1.385 . S
C1674 H1660 0.931 . S
C1674 C1673 1.385 . S
C1674 C1675 1.389 . S
C1675 C1674 1.389 . S
C1675 C1676 1.387 . S
C1676 H1661 0.930 . S
C1676 C1671 1.390 . S
C1676 C1675 1.387 . S
H1677 C1689 0.930 . S
H1678 C1691 0.930 . S
H1679 C1692 0.930 . S
H1680 C1696 0.959 . S
H1681 C1696 0.959 . S
H1682 C1696 0.961 . S
H1683 C1697 0.960 . S
H1684 C1697 0.961 . S
H1685 C1697 0.959 . S
H1686 C1700 0.929 . S
H1687 C1701 0.931 . S
H1688 C1703 0.930 . S
C1689 H1677 0.930 . S
C1689 C1690 1.399 . S
C1689 C1694 1.399 . S
C1690 C1689 1.399 . S
C1690 C1691 1.376 . S
C1691 H1678 0.930 . S
C1691 C1690 1.376 . S
C1691 C1692 1.388 . S
C1692 H1679 0.930 . S
C1692 C1691 1.388 . S
C1692 C1693 1.390 . S
C1693 C1692 1.390 . S
C1693 C1694 1.394 . S
C1693 C1699 1.465 . S
C1694 C1689 1.399 . S
C1694 C1693 1.394 . S
C1694 C1695 1.516 . S
C1695 C1694 1.516 . S
C1695 C1696 1.502 . S
C1695 C1697 1.561 . S
C1695 C1698 1.526 . S
C1696 H1680 0.959 . S
C1696 H1681 0.959 . S
C1696 H1682 0.961 . S
C1696 C1695 1.502 . S
C1697 H1683 0.960 . S
C1697 H1684 0.961 . S
C1697 H1685 0.959 . S
C1697 C1695 1.561 . S
C1698 C1695 1.526 . S
C1698 C1699 1.396 . S
C1698 C1703 1.390 . S
C1699 C1693 1.465 . S
C1699 C1698 1.396 . S
C1699 C1700 1.399 . S
C1700 H1686 0.929 . S
C1700 C1699 1.399 . S
C1700 C1701 1.385 . S
C1701 H1687 0.931 . S
C1701 C1700 1.385 . S
C1701 C1702 1.389 . S
C1702 C1701 1.389 . S
C1702 C1703 1.387 . S
C1703 H1688 0.930 . S
C1703 C1698 1.390 . S
C1703 C1702 1.387 . S
H1704 C1716 0.930 . S
H1705 C1718 0.930 . S
H1706 C1719 0.930 . S
H1707 C1723 0.959 . S
H1708 C1723 0.959 . S
H1709 C1723 0.961 . S
H1710 C1724 0.960 . S
H1711 C1724 0.961 . S
H1712 C1724 0.959 . S
H1713 C1727 0.929 . S
H1714 C1728 0.931 . S
H1715 C1730 0.930 . S
C1716 H1704 0.930 . S
C1716 C1717 1.399 . S
C1716 C1721 1.399 . S
C1717 C1716 1.399 . S
C1717 C1718 1.376 . S
C1718 H1705 0.930 . S
C1718 C1717 1.376 . S
C1718 C1719 1.388 . S
C1719 H1706 0.930 . S
C1719 C1718 1.388 . S
C1719 C1720 1.390 . S
C1720 C1719 1.390 . S
C1720 C1721 1.394 . S
C1720 C1726 1.465 . S
C1721 C1716 1.399 . S
C1721 C1720 1.394 . S
C1721 C1722 1.516 . S
C1722 C1721 1.516 . S
C1722 C1723 1.502 . S
C1722 C1724 1.561 . S
C1722 C1725 1.526 . S
C1723 H1707 0.959 . S
C1723 H1708 0.959 . S
C1723 H1709 0.961 . S
C1723 C1722 1.502 . S
C1724 H1710 0.960 . S
C1724 H1711 0.961 . S
C1724 H1712 0.959 . S
C1724 C1722 1.561 . S
C1725 C1722 1.526 . S
C1725 C1726 1.396 . S
C1725 C1730 1.390 . S
C1726 C1720 1.465 . S
C1726 C1725 1.396 . S
C1726 C1727 1.399 . S
C1727 H1713 0.929 . S
C1727 C1726 1.399 . S
C1727 C1728 1.385 . S
C1728 H1714 0.931 . S
C1728 C1727 1.385 . S
C1728 C1729 1.389 . S
C1729 C1728 1.389 . S
C1729 C1730 1.387 . S
C1730 H1715 0.930 . S
C1730 C1725 1.390 . S
C1730 C1729 1.387 . S
H1731 C1743 0.930 . S
H1732 C1745 0.930 . S
H1733 C1746 0.930 . S
H1734 C1750 0.959 . S
H1735 C1750 0.959 . S
H1736 C1750 0.961 . S
H1737 C1751 0.960 . S
H1738 C1751 0.961 . S
H1739 C1751 0.959 . S
H1740 C1754 0.929 . S
H1741 C1755 0.931 . S
H1742 C1757 0.930 . S
C1743 H1731 0.930 . S
C1743 C1744 1.399 . S
C1743 C1748 1.399 . S
C1744 C1743 1.399 . S
C1744 C1745 1.376 . S
C1745 H1732 0.930 . S
C1745 C1744 1.376 . S
C1745 C1746 1.388 . S
C1746 H1733 0.930 . S
C1746 C1745 1.388 . S
C1746 C1747 1.390 . S
C1747 C1746 1.390 . S
C1747 C1748 1.394 . S
C1747 C1753 1.465 . S
C1748 C1743 1.399 . S
C1748 C1747 1.394 . S
C1748 C1749 1.516 . S
C1749 C1748 1.516 . S
C1749 C1750 1.502 . S
C1749 C1751 1.561 . S
C1749 C1752 1.526 . S
C1750 H1734 0.959 . S
C1750 H1735 0.959 . S
C1750 H1736 0.961 . S
C1750 C1749 1.502 . S
C1751 H1737 0.960 . S
C1751 H1738 0.961 . S
C1751 H1739 0.959 . S
C1751 C1749 1.561 . S
C1752 C1749 1.526 . S
C1752 C1753 1.396 . S
C1752 C1757 1.390 . S
C1753 C1747 1.465 . S
C1753 C1752 1.396 . S
C1753 C1754 1.399 . S
C1754 H1740 0.929 . S
C1754 C1753 1.399 . S
C1754 C1755 1.385 . S
C1755 H1741 0.931 . S
C1755 C1754 1.385 . S
C1755 C1756 1.389 . S
C1756 C1755 1.389 . S
C1756 C1757 1.387 . S
C1757 H1742 0.930 . S
C1757 C1752 1.390 . S
C1757 C1756 1.387 . S
H1758 C1770 0.930 . S
H1759 C1772 0.930 . S
H1760 C1773 0.930 . S
H1761 C1777 0.959 . S
H1762 C1777 0.959 . S
H1763 C1777 0.961 . S
H1764 C1778 0.960 . S
H1765 C1778 0.961 . S
H1766 C1778 0.959 . S
H1767 C1781 0.929 . S
H1768 C1782 0.931 . S
H1769 C1784 0.930 . S
C1770 H1758 0.930 . S
C1770 C1771 1.399 . S
C1770 C1775 1.399 . S
C1771 C1770 1.399 . S
C1771 C1772 1.376 . S
C1772 H1759 0.930 . S
C1772 C1771 1.376 . S
C1772 C1773 1.388 . S
C1773 H1760 0.930 . S
C1773 C1772 1.388 . S
C1773 C1774 1.390 . S
C1774 C1773 1.390 . S
C1774 C1775 1.394 . S
C1774 C1780 1.465 . S
C1775 C1770 1.399 . S
C1775 C1774 1.394 . S
C1775 C1776 1.516 . S
C1776 C1775 1.516 . S
C1776 C1777 1.502 . S
C1776 C1778 1.561 . S
C1776 C1779 1.526 . S
C1777 H1761 0.959 . S
C1777 H1762 0.959 . S
C1777 H1763 0.961 . S
C1777 C1776 1.502 . S
C1778 H1764 0.960 . S
C1778 H1765 0.961 . S
C1778 H1766 0.959 . S
C1778 C1776 1.561 . S
C1779 C1776 1.526 . S
C1779 C1780 1.396 . S
C1779 C1784 1.390 . S
C1780 C1774 1.465 . S
C1780 C1779 1.396 . S
C1780 C1781 1.399 . S
C1781 H1767 0.929 . S
C1781 C1780 1.399 . S
C1781 C1782 1.385 . S
C1782 H1768 0.931 . S
C1782 C1781 1.385 . S
C1782 C1783 1.389 . S
C1783 C1782 1.389 . S
C1783 C1784 1.387 . S
C1784 H1769 0.930 . S
C1784 C1779 1.390 . S
C1784 C1783 1.387 . S
H1785 C1797 0.930 . S
H1786 C1799 0.930 . S
H1787 C1800 0.930 . S
H1788 C1804 0.959 . S
H1789 C1804 0.959 . S
H1790 C1804 0.961 . S
H1791 C1805 0.960 . S
H1792 C1805 0.961 . S
H1793 C1805 0.959 . S
H1794 C1808 0.929 . S
H1795 C1809 0.931 . S
H1796 C1811 0.930 . S
C1797 H1785 0.930 . S
C1797 C1798 1.399 . S
C1797 C1802 1.399 . S
C1798 C1797 1.399 . S
C1798 C1799 1.376 . S
C1799 H1786 0.930 . S
C1799 C1798 1.376 . S
C1799 C1800 1.388 . S
C1800 H1787 0.930 . S
C1800 C1799 1.388 . S
C1800 C1801 1.390 . S
C1801 C1800 1.390 . S
C1801 C1802 1.394 . S
C1801 C1807 1.465 . S
C1802 C1797 1.399 . S
C1802 C1801 1.394 . S
C1802 C1803 1.516 . S
C1803 C1802 1.516 . S
C1803 C1804 1.502 . S
C1803 C1805 1.561 . S
C1803 C1806 1.526 . S
C1804 H1788 0.959 . S
C1804 H1789 0.959 . S
C1804 H1790 0.961 . S
C1804 C1803 1.502 . S
C1805 H1791 0.960 . S
C1805 H1792 0.961 . S
C1805 H1793 0.959 . S
C1805 C1803 1.561 . S
C1806 C1803 1.526 . S
C1806 C1807 1.396 . S
C1806 C1811 1.390 . S
C1807 C1801 1.465 . S
C1807 C1806 1.396 . S
C1807 C1808 1.399 . S
C1808 H1794 0.929 . S
C1808 C1807 1.399 . S
C1808 C1809 1.385 . S
C1809 H1795 0.931 . S
C1809 C1808 1.385 . S
C1809 C1810 1.389 . S
C1810 C1809 1.389 . S
C1810 C1811 1.387 . S
C1811 H1796 0.930 . S
C1811 C1806 1.390 . S
C1811 C1810 1.387 . S
H1812 C1824 0.930 . S
H1813 C1826 0.930 . S
H1814 C1827 0.930 . S
H1815 C1831 0.959 . S
H1816 C1831 0.959 . S
H1817 C1831 0.961 . S
H1818 C1832 0.960 . S
H1819 C1832 0.961 . S
H1820 C1832 0.959 . S
H1821 C1835 0.929 . S
H1822 C1836 0.931 . S
H1823 C1838 0.930 . S
C1824 H1812 0.930 . S
C1824 C1825 1.399 . S
C1824 C1829 1.399 . S
C1825 C1824 1.399 . S
C1825 C1826 1.376 . S
C1826 H1813 0.930 . S
C1826 C1825 1.376 . S
C1826 C1827 1.388 . S
C1827 H1814 0.930 . S
C1827 C1826 1.388 . S
C1827 C1828 1.390 . S
C1828 C1827 1.390 . S
C1828 C1829 1.394 . S
C1828 C1834 1.465 . S
C1829 C1824 1.399 . S
C1829 C1828 1.394 . S
C1829 C1830 1.516 . S
C1830 C1829 1.516 . S
C1830 C1831 1.502 . S
C1830 C1832 1.561 . S
C1830 C1833 1.526 . S
C1831 H1815 0.959 . S
C1831 H1816 0.959 . S
C1831 H1817 0.961 . S
C1831 C1830 1.502 . S
C1832 H1818 0.960 . S
C1832 H1819 0.961 . S
C1832 H1820 0.959 . S
C1832 C1830 1.561 . S
C1833 C1830 1.526 . S
C1833 C1834 1.396 . S
C1833 C1838 1.390 . S
C1834 C1828 1.465 . S
C1834 C1833 1.396 . S
C1834 C1835 1.399 . S
C1835 H1821 0.929 . S
C1835 C1834 1.399 . S
C1835 C1836 1.385 . S
C1836 H1822 0.931 . S
C1836 C1835 1.385 . S
C1836 C1837 1.389 . S
C1837 C1836 1.389 . S
C1837 C1838 1.387 . S
C1838 H1823 0.930 . S
C1838 C1833 1.390 . S
C1838 C1837 1.387 . S
H1839 C1851 0.930 . S
H1840 C1853 0.930 . S
H1841 C1854 0.930 . S
H1842 C1858 0.959 . S
H1843 C1858 0.959 . S
H1844 C1858 0.961 . S
H1845 C1859 0.960 . S
H1846 C1859 0.961 . S
H1847 C1859 0.959 . S
H1848 C1862 0.929 . S
H1849 C1863 0.931 . S
H1850 C1865 0.930 . S
C1851 H1839 0.930 . S
C1851 C1852 1.399 . S
C1851 C1856 1.399 . S
C1852 C1851 1.399 . S
C1852 C1853 1.376 . S
C1853 H1840 0.930 . S
C1853 C1852 1.376 . S
C1853 C1854 1.388 . S
C1854 H1841 0.930 . S
C1854 C1853 1.388 . S
C1854 C1855 1.390 . S
C1855 C1854 1.390 . S
C1855 C1856 1.394 . S
C1855 C1861 1.465 . S
C1856 C1851 1.399 . S
C1856 C1855 1.394 . S
C1856 C1857 1.516 . S
C1857 C1856 1.516 . S
C1857 C1858 1.502 . S
C1857 C1859 1.561 . S
C1857 C1860 1.526 . S
C1858 H1842 0.959 . S
C1858 H1843 0.959 . S
C1858 H1844 0.961 . S
C1858 C1857 1.502 . S
C1859 H1845 0.960 . S
C1859 H1846 0.961 . S
C1859 H1847 0.959 . S
C1859 C1857 1.561 . S
C1860 C1857 1.526 . S
C1860 C1861 1.396 . S
C1860 C1865 1.390 . S
C1861 C1855 1.465 . S
C1861 C1860 1.396 . S
C1861 C1862 1.399 . S
C1862 H1848 0.929 . S
C1862 C1861 1.399 . S
C1862 C1863 1.385 . S
C1863 H1849 0.931 . S
C1863 C1862 1.385 . S
C1863 C1864 1.389 . S
C1864 C1863 1.389 . S
C1864 C1865 1.387 . S
C1865 H1850 0.930 . S
C1865 C1860 1.390 . S
C1865 C1864 1.387 . S
H1866 C1878 0.930 . S
H1867 C1880 0.930 . S
H1868 C1881 0.930 . S
H1869 C1885 0.959 . S
H1870 C1885 0.959 . S
H1871 C1885 0.961 . S
H1872 C1886 0.960 . S
H1873 C1886 0.961 . S
H1874 C1886 0.959 . S
H1875 C1889 0.929 . S
H1876 C1890 0.931 . S
H1877 C1892 0.930 . S
C1878 H1866 0.930 . S
C1878 C1879 1.399 . S
C1878 C1883 1.399 . S
C1879 C1878 1.399 . S
C1879 C1880 1.376 . S
C1880 H1867 0.930 . S
C1880 C1879 1.376 . S
C1880 C1881 1.388 . S
C1881 H1868 0.930 . S
C1881 C1880 1.388 . S
C1881 C1882 1.390 . S
C1882 C1881 1.390 . S
C1882 C1883 1.394 . S
C1882 C1888 1.465 . S
C1883 C1878 1.399 . S
C1883 C1882 1.394 . S
C1883 C1884 1.516 . S
C1884 C1883 1.516 . S
C1884 C1885 1.502 . S
C1884 C1886 1.561 . S
C1884 C1887 1.526 . S
C1885 H1869 0.959 . S
C1885 H1870 0.959 . S
C1885 H1871 0.961 . S
C1885 C1884 1.502 . S
C1886 H1872 0.960 . S
C1886 H1873 0.961 . S
C1886 H1874 0.959 . S
C1886 C1884 1.561 . S
C1887 C1884 1.526 . S
C1887 C1888 1.396 . S
C1887 C1892 1.390 . S
C1888 C1882 1.465 . S
C1888 C1887 1.396 . S
C1888 C1889 1.399 . S
C1889 H1875 0.929 . S
C1889 C1888 1.399 . S
C1889 C1890 1.385 . S
C1890 H1876 0.931 . S
C1890 C1889 1.385 . S
C1890 C1891 1.389 . S
C1891 C1890 1.389 . S
C1891 C1892 1.387 . S
C1892 H1877 0.930 . S
C1892 C1887 1.390 . S
C1892 C1891 1.387 . S
H1893 C1905 0.930 . S
H1894 C1907 0.930 . S
H1895 C1908 0.930 . S
H1896 C1912 0.959 . S
H1897 C1912 0.959 . S
H1898 C1912 0.961 . S
H1899 C1913 0.960 . S
H1900 C1913 0.961 . S
H1901 C1913 0.959 . S
H1902 C1916 0.929 . S
H1903 C1917 0.931 . S
H1904 C1919 0.930 . S
C1905 H1893 0.930 . S
C1905 C1906 1.399 . S
C1905 C1910 1.399 . S
C1906 C1905 1.399 . S
C1906 C1907 1.376 . S
C1907 H1894 0.930 . S
C1907 C1906 1.376 . S
C1907 C1908 1.388 . S
C1908 H1895 0.930 . S
C1908 C1907 1.388 . S
C1908 C1909 1.390 . S
C1909 C1908 1.390 . S
C1909 C1910 1.394 . S
C1909 C1915 1.465 . S
C1910 C1905 1.399 . S
C1910 C1909 1.394 . S
C1910 C1911 1.516 . S
C1911 C1910 1.516 . S
C1911 C1912 1.502 . S
C1911 C1913 1.561 . S
C1911 C1914 1.526 . S
C1912 H1896 0.959 . S
C1912 H1897 0.959 . S
C1912 H1898 0.961 . S
C1912 C1911 1.502 . S
C1913 H1899 0.960 . S
C1913 H1900 0.961 . S
C1913 H1901 0.959 . S
C1913 C1911 1.561 . S
C1914 C1911 1.526 . S
C1914 C1915 1.396 . S
C1914 C1919 1.390 . S
C1915 C1909 1.465 . S
C1915 C1914 1.396 . S
C1915 C1916 1.399 . S
C1916 H1902 0.929 . S
C1916 C1915 1.399 . S
C1916 C1917 1.385 . S
C1917 H1903 0.931 . S
C1917 C1916 1.385 . S
C1917 C1918 1.389 . S
C1918 C1917 1.389 . S
C1918 C1919 1.387 . S
C1919 H1904 0.930 . S
C1919 C1914 1.390 . S
C1919 C1918 1.387 . S
H1920 C1932 0.930 . S
H1921 C1934 0.930 . S
H1922 C1935 0.930 . S
H1923 C1939 0.959 . S
H1924 C1939 0.959 . S
H1925 C1939 0.961 . S
H1926 C1940 0.960 . S
H1927 C1940 0.961 . S
H1928 C1940 0.959 . S
H1929 C1943 0.929 . S
H1930 C1944 0.931 . S
H1931 C1946 0.930 . S
C1932 H1920 0.930 . S
C1932 C1933 1.399 . S
C1932 C1937 1.399 . S
C1933 C1932 1.399 . S
C1933 C1934 1.376 . S
C1934 H1921 0.930 . S
C1934 C1933 1.376 . S
C1934 C1935 1.388 . S
C1935 H1922 0.930 . S
C1935 C1934 1.388 . S
C1935 C1936 1.390 . S
C1936 C1935 1.390 . S
C1936 C1937 1.394 . S
C1936 C1942 1.465 . S
C1937 C1932 1.399 . S
C1937 C1936 1.394 . S
C1937 C1938 1.516 . S
C1938 C1937 1.516 . S
C1938 C1939 1.502 . S
C1938 C1940 1.561 . S
C1938 C1941 1.526 . S
C1939 H1923 0.959 . S
C1939 H1924 0.959 . S
C1939 H1925 0.961 . S
C1939 C1938 1.502 . S
C1940 H1926 0.960 . S
C1940 H1927 0.961 . S
C1940 H1928 0.959 . S
C1940 C1938 1.561 . S
C1941 C1938 1.526 . S
C1941 C1942 1.396 . S
C1941 C1946 1.390 . S
C1942 C1936 1.465 . S
C1942 C1941 1.396 . S
C1942 C1943 1.399 . S
C1943 H1929 0.929 . S
C1943 C1942 1.399 . S
C1943 C1944 1.385 . S
C1944 H1930 0.931 . S
C1944 C1943 1.385 . S
C1944 C1945 1.389 . S
C1945 C1944 1.389 . S
C1945 C1946 1.387 . S
C1946 H1931 0.930 . S
C1946 C1941 1.390 . S
C1946 C1945 1.387 . S
H1947 C1959 0.930 . S
H1948 C1961 0.930 . S
H1949 C1962 0.930 . S
H1950 C1966 0.959 . S
H1951 C1966 0.959 . S
H1952 C1966 0.961 . S
H1953 C1967 0.960 . S
H1954 C1967 0.961 . S
H1955 C1967 0.959 . S
H1956 C1970 0.929 . S
H1957 C1971 0.931 . S
H1958 C1973 0.930 . S
C1959 H1947 0.930 . S
C1959 C1960 1.399 . S
C1959 C1964 1.399 . S
C1960 C1959 1.399 . S
C1960 C1961 1.376 . S
C1961 H1948 0.930 . S
C1961 C1960 1.376 . S
C1961 C1962 1.388 . S
C1962 H1949 0.930 . S
C1962 C1961 1.388 . S
C1962 C1963 1.390 . S
C1963 C1962 1.390 . S
C1963 C1964 1.394 . S
C1963 C1969 1.465 . S
C1964 C1959 1.399 . S
C1964 C1963 1.394 . S
C1964 C1965 1.516 . S
C1965 C1964 1.516 . S
C1965 C1966 1.502 . S
C1965 C1967 1.561 . S
C1965 C1968 1.526 . S
C1966 H1950 0.959 . S
C1966 H1951 0.959 . S
C1966 H1952 0.961 . S
C1966 C1965 1.502 . S
C1967 H1953 0.960 . S
C1967 H1954 0.961 . S
C1967 H1955 0.959 . S
C1967 C1965 1.561 . S
C1968 C1965 1.526 . S
C1968 C1969 1.396 . S
C1968 C1973 1.390 . S
C1969 C1963 1.465 . S
C1969 C1968 1.396 . S
C1969 C1970 1.399 . S
C1970 H1956 0.929 . S
C1970 C1969 1.399 . S
C1970 C1971 1.385 . S
C1971 H1957 0.931 . S
C1971 C1970 1.385 . S
C1971 C1972 1.389 . S
C1972 C1971 1.389 . S
C1972 C1973 1.387 . S
C1973 H1958 0.930 . S
C1973 C1968 1.390 . S
C1973 C1972 1.387 . S
H1974 C1986 0.930 . S
H1975 C1988 0.930 . S
H1976 C1989 0.930 . S
H1977 C1993 0.959 . S
H1978 C1993 0.959 . S
H1979 C1993 0.961 . S
H1980 C1994 0.960 . S
H1981 C1994 0.961 . S
H1982 C1994 0.959 . S
H1983 C1997 0.929 . S
H1984 C1998 0.931 . S
H1985 C2000 0.930 . S
C1986 H1974 0.930 . S
C1986 C1987 1.399 . S
C1986 C1991 1.399 . S
C1987 C1986 1.399 . S
C1987 C1988 1.376 . S
C1988 H1975 0.930 . S
C1988 C1987 1.376 . S
C1988 C1989 1.388 . S
C1989 H1976 0.930 . S
C1989 C1988 1.388 . S
C1989 C1990 1.390 . S
C1990 C1989 1.390 . S
C1990 C1991 1.394 . S
C1990 C1996 1.465 . S
C1991 C1986 1.399 . S
C1991 C1990 1.394 . S
C1991 C1992 1.516 . S
C1992 C1991 1.516 . S
C1992 C1993 1.502 . S
C1992 C1994 1.561 . S
C1992 C1995 1.526 . S
C1993 H1977 0.959 . S
C1993 H1978 0.959 . S
C1993 H1979 0.961 . S
C1993 C1992 1.502 . S
C1994 H1980 0.960 . S
C1994 H1981 0.961 . S
C1994 H1982 0.959 . S
C1994 C1992 1.561 . S
C1995 C1992 1.526 . S
C1995 C1996 1.396 . S
C1995 C2000 1.390 . S
C1996 C1990 1.465 . S
C1996 C1995 1.396 . S
C1996 C1997 1.399 . S
C1997 H1983 0.929 . S
C1997 C1996 1.399 . S
C1997 C1998 1.385 . S
C1998 H1984 0.931 . S
C1998 C1997 1.385 . S
C1998 C1999 1.389 . S
C1999 C1998 1.389 . S
C1999 C2000 1.387 . S
C2000 H1985 0.930 . S
C2000 C1995 1.390 . S
C2000 C1999 1.387 . S
H2001 C2013 0.930 . S
H2002 C2015 0.930 . S
H2003 C2016 0.930 . S
H2004 C2020 0.959 . S
H2005 C2020 0.959 . S
H2006 C2020 0.961 . S
H2007 C2021 0.960 . S
H2008 C2021 0.961 . S
H2009 C2021 0.959 . S
H2010 C2024 0.929 . S
H2011 C2025 0.931 . S
H2012 C2027 0.930 . S
C2013 H2001 0.930 . S
C2013 C2014 1.399 . S
C2013 C2018 1.399 . S
C2014 C2013 1.399 . S
C2014 C2015 1.376 . S
C2015 H2002 0.930 . S
C2015 C2014 1.376 . S
C2015 C2016 1.388 . S
C2016 H2003 0.930 . S
C2016 C2015 1.388 . S
C2016 C2017 1.390 . S
C2017 C2016 1.390 . S
C2017 C2018 1.394 . S
C2017 C2023 1.465 . S
C2018 C2013 1.399 . S
C2018 C2017 1.394 . S
C2018 C2019 1.516 . S
C2019 C2018 1.516 . S
C2019 C2020 1.502 . S
C2019 C2021 1.561 . S
C2019 C2022 1.526 . S
C2020 H2004 0.959 . S
C2020 H2005 0.959 . S
C2020 H2006 0.961 . S
C2020 C2019 1.502 . S
C2021 H2007 0.960 . S
C2021 H2008 0.961 . S
C2021 H2009 0.959 . S
C2021 C2019 1.561 . S
C2022 C2019 1.526 . S
C2022 C2023 1.396 . S
C2022 C2027 1.390 . S
C2023 C2017 1.465 . S
C2023 C2022 1.396 . S
C2023 C2024 1.399 . S
C2024 H2010 0.929 . S
C2024 C2023 1.399 . S
C2024 C2025 1.385 . S
C2025 H2011 0.931 . S
C2025 C2024 1.385 . S
C2025 C2026 1.389 . S
C2026 C2025 1.389 . S
C2026 C2027 1.387 . S
C2027 H2012 0.930 . S
C2027 C2022 1.390 . S
C2027 C2026 1.387 . S
H2028 C2040 0.930 . S
H2029 C2042 0.930 . S
H2030 C2043 0.930 . S
H2031 C2047 0.959 . S
H2032 C2047 0.959 . S
H2033 C2047 0.961 . S
H2034 C2048 0.960 . S
H2035 C2048 0.961 . S
H2036 C2048 0.959 . S
H2037 C2051 0.929 . S
H2038 C2052 0.931 . S
H2039 C2054 0.930 . S
C2040 H2028 0.930 . S
C2040 C2041 1.399 . S
C2040 C2045 1.399 . S
C2041 C2040 1.399 . S
C2041 C2042 1.376 . S
C2042 H2029 0.930 . S
C2042 C2041 1.376 . S
C2042 C2043 1.388 . S
C2043 H2030 0.930 . S
C2043 C2042 1.388 . S
C2043 C2044 1.390 . S
C2044 C2043 1.390 . S
C2044 C2045 1.394 . S
C2044 C2050 1.465 . S
C2045 C2040 1.399 . S
C2045 C2044 1.394 . S
C2045 C2046 1.516 . S
C2046 C2045 1.516 . S
C2046 C2047 1.502 . S
C2046 C2048 1.561 . S
C2046 C2049 1.526 . S
C2047 H2031 0.959 . S
C2047 H2032 0.959 . S
C2047 H2033 0.961 . S
C2047 C2046 1.502 . S
C2048 H2034 0.960 . S
C2048 H2035 0.961 . S
C2048 H2036 0.959 . S
C2048 C2046 1.561 . S
C2049 C2046 1.526 . S
C2049 C2050 1.396 . S
C2049 C2054 1.390 . S
C2050 C2044 1.465 . S
C2050 C2049 1.396 . S
C2050 C2051 1.399 . S
C2051 H2037 0.929 . S
C2051 C2050 1.399 . S
C2051 C2052 1.385 . S
C2052 H2038 0.931 . S
C2052 C2051 1.385 . S
C2052 C2053 1.389 . S
C2053 C2052 1.389 . S
C2053 C2054 1.387 . S
C2054 H2039 0.930 . S
C2054 C2049 1.390 . S
C2054 C2053 1.387 . S
H2055 C2067 0.930 . S
H2056 C2069 0.930 . S
H2057 C2070 0.930 . S
H2058 C2074 0.959 . S
H2059 C2074 0.959 . S
H2060 C2074 0.961 . S
H2061 C2075 0.960 . S
H2062 C2075 0.961 . S
H2063 C2075 0.959 . S
H2064 C2078 0.929 . S
H2065 C2079 0.931 . S
H2066 C2081 0.930 . S
C2067 H2055 0.930 . S
C2067 C2068 1.399 . S
C2067 C2072 1.399 . S
C2068 C2067 1.399 . S
C2068 C2069 1.376 . S
C2069 H2056 0.930 . S
C2069 C2068 1.376 . S
C2069 C2070 1.388 . S
C2070 H2057 0.930 . S
C2070 C2069 1.388 . S
C2070 C2071 1.390 . S
C2071 C2070 1.390 . S
C2071 C2072 1.394 . S
C2071 C2077 1.465 . S
C2072 C2067 1.399 . S
C2072 C2071 1.394 . S
C2072 C2073 1.516 . S
C2073 C2072 1.516 . S
C2073 C2074 1.502 . S
C2073 C2075 1.561 . S
C2073 C2076 1.526 . S
C2074 H2058 0.959 . S
C2074 H2059 0.959 . S
C2074 H2060 0.961 . S
C2074 C2073 1.502 . S
C2075 H2061 0.960 . S
C2075 H2062 0.961 . S
C2075 H2063 0.959 . S
C2075 C2073 1.561 . S
C2076 C2073 1.526 . S
C2076 C2077 1.396 . S
C2076 C2081 1.390 . S
C2077 C2071 1.465 . S
C2077 C2076 1.396 . S
C2077 C2078 1.399 . S
C2078 H2064 0.929 . S
C2078 C2077 1.399 . S
C2078 C2079 1.385 . S
C2079 H2065 0.931 . S
C2079 C2078 1.385 . S
C2079 C2080 1.389 . S
C2080 C2079 1.389 . S
C2080 C2081 1.387 . S
C2081 H2066 0.930 . S
C2081 C2076 1.390 . S
C2081 C2080 1.387 . S
H2082 C2094 0.930 . S
H2083 C2096 0.930 . S
H2084 C2097 0.930 . S
H2085 C2101 0.959 . S
H2086 C2101 0.959 . S
H2087 C2101 0.961 . S
H2088 C2102 0.960 . S
H2089 C2102 0.961 . S
H2090 C2102 0.959 . S
H2091 C2105 0.929 . S
H2092 C2106 0.931 . S
H2093 C2108 0.930 . S
C2094 H2082 0.930 . S
C2094 C2095 1.399 . S
C2094 C2099 1.399 . S
C2095 C2094 1.399 . S
C2095 C2096 1.376 . S
C2096 H2083 0.930 . S
C2096 C2095 1.376 . S
C2096 C2097 1.388 . S
C2097 H2084 0.930 . S
C2097 C2096 1.388 . S
C2097 C2098 1.390 . S
C2098 C2097 1.390 . S
C2098 C2099 1.394 . S
C2098 C2104 1.465 . S
C2099 C2094 1.399 . S
C2099 C2098 1.394 . S
C2099 C2100 1.516 . S
C2100 C2099 1.516 . S
C2100 C2101 1.502 . S
C2100 C2102 1.561 . S
C2100 C2103 1.526 . S
C2101 H2085 0.959 . S
C2101 H2086 0.959 . S
C2101 H2087 0.961 . S
C2101 C2100 1.502 . S
C2102 H2088 0.960 . S
C2102 H2089 0.961 . S
C2102 H2090 0.959 . S
C2102 C2100 1.561 . S
C2103 C2100 1.526 . S
C2103 C2104 1.396 . S
C2103 C2108 1.390 . S
C2104 C2098 1.465 . S
C2104 C2103 1.396 . S
C2104 C2105 1.399 . S
C2105 H2091 0.929 . S
C2105 C2104 1.399 . S
C2105 C2106 1.385 . S
C2106 H2092 0.931 . S
C2106 C2105 1.385 . S
C2106 C2107 1.389 . S
C2107 C2106 1.389 . S
C2107 C2108 1.387 . S
C2108 H2093 0.930 . S
C2108 C2103 1.390 . S
C2108 C2107 1.387 . S
H2109 C2121 0.930 . S
H2110 C2123 0.930 . S
H2111 C2124 0.930 . S
H2112 C2128 0.959 . S
H2113 C2128 0.959 . S
H2114 C2128 0.961 . S
H2115 C2129 0.960 . S
H2116 C2129 0.961 . S
H2117 C2129 0.959 . S
H2118 C2132 0.929 . S
H2119 C2133 0.931 . S
H2120 C2135 0.930 . S
C2121 H2109 0.930 . S
C2121 C2122 1.399 . S
C2121 C2126 1.399 . S
C2122 C2121 1.399 . S
C2122 C2123 1.376 . S
C2123 H2110 0.930 . S
C2123 C2122 1.376 . S
C2123 C2124 1.388 . S
C2124 H2111 0.930 . S
C2124 C2123 1.388 . S
C2124 C2125 1.390 . S
C2125 C2124 1.390 . S
C2125 C2126 1.394 . S
C2125 C2131 1.465 . S
C2126 C2121 1.399 . S
C2126 C2125 1.394 . S
C2126 C2127 1.516 . S
C2127 C2126 1.516 . S
C2127 C2128 1.502 . S
C2127 C2129 1.561 . S
C2127 C2130 1.526 . S
C2128 H2112 0.959 . S
C2128 H2113 0.959 . S
C2128 H2114 0.961 . S
C2128 C2127 1.502 . S
C2129 H2115 0.960 . S
C2129 H2116 0.961 . S
C2129 H2117 0.959 . S
C2129 C2127 1.561 . S
C2130 C2127 1.526 . S
C2130 C2131 1.396 . S
C2130 C2135 1.390 . S
C2131 C2125 1.465 . S
C2131 C2130 1.396 . S
C2131 C2132 1.399 . S
C2132 H2118 0.929 . S
C2132 C2131 1.399 . S
C2132 C2133 1.385 . S
C2133 H2119 0.931 . S
C2133 C2132 1.385 . S
C2133 C2134 1.389 . S
C2134 C2133 1.389 . S
C2134 C2135 1.387 . S
C2135 H2120 0.930 . S
C2135 C2130 1.390 . S
C2135 C2134 1.387 . S
H2136 C2148 0.930 . S
H2137 C2150 0.930 . S
H2138 C2151 0.930 . S
H2139 C2155 0.959 . S
H2140 C2155 0.959 . S
H2141 C2155 0.961 . S
H2142 C2156 0.960 . S
H2143 C2156 0.961 . S
H2144 C2156 0.959 . S
H2145 C2159 0.929 . S
H2146 C2160 0.931 . S
H2147 C2162 0.930 . S
C2148 H2136 0.930 . S
C2148 C2149 1.399 . S
C2148 C2153 1.399 . S
C2149 C2148 1.399 . S
C2149 C2150 1.376 . S
C2150 H2137 0.930 . S
C2150 C2149 1.376 . S
C2150 C2151 1.388 . S
C2151 H2138 0.930 . S
C2151 C2150 1.388 . S
C2151 C2152 1.390 . S
C2152 C2151 1.390 . S
C2152 C2153 1.394 . S
C2152 C2158 1.465 . S
C2153 C2148 1.399 . S
C2153 C2152 1.394 . S
C2153 C2154 1.516 . S
C2154 C2153 1.516 . S
C2154 C2155 1.502 . S
C2154 C2156 1.561 . S
C2154 C2157 1.526 . S
C2155 H2139 0.959 . S
C2155 H2140 0.959 . S
C2155 H2141 0.961 . S
C2155 C2154 1.502 . S
C2156 H2142 0.960 . S
C2156 H2143 0.961 . S
C2156 H2144 0.959 . S
C2156 C2154 1.561 . S
C2157 C2154 1.526 . S
C2157 C2158 1.396 . S
C2157 C2162 1.390 . S
C2158 C2152 1.465 . S
C2158 C2157 1.396 . S
C2158 C2159 1.399 . S
C2159 H2145 0.929 . S
C2159 C2158 1.399 . S
C2159 C2160 1.385 . S
C2160 H2146 0.931 . S
C2160 C2159 1.385 . S
C2160 C2161 1.389 . S
C2161 C2160 1.389 . S
C2161 C2162 1.387 . S
C2162 H2147 0.930 . S
C2162 C2157 1.390 . S
C2162 C2161 1.387 . S
H2163 C2175 0.930 . S
H2164 C2177 0.930 . S
H2165 C2178 0.930 . S
H2166 C2182 0.959 . S
H2167 C2182 0.959 . S
H2168 C2182 0.961 . S
H2169 C2183 0.960 . S
H2170 C2183 0.961 . S
H2171 C2183 0.959 . S
H2172 C2186 0.929 . S
H2173 C2187 0.931 . S
H2174 C2189 0.930 . S
C2175 H2163 0.930 . S
C2175 C2176 1.399 . S
C2175 C2180 1.399 . S
C2176 C2175 1.399 . S
C2176 C2177 1.376 . S
C2177 H2164 0.930 . S
C2177 C2176 1.376 . S
C2177 C2178 1.388 . S
C2178 H2165 0.930 . S
C2178 C2177 1.388 . S
C2178 C2179 1.390 . S
C2179 C2178 1.390 . S
C2179 C2180 1.394 . S
C2179 C2185 1.465 . S
C2180 C2175 1.399 . S
C2180 C2179 1.394 . S
C2180 C2181 1.516 . S
C2181 C2180 1.516 . S
C2181 C2182 1.502 . S
C2181 C2183 1.561 . S
C2181 C2184 1.526 . S
C2182 H2166 0.959 . S
C2182 H2167 0.959 . S
C2182 H2168 0.961 . S
C2182 C2181 1.502 . S
C2183 H2169 0.960 . S
C2183 H2170 0.961 . S
C2183 H2171 0.959 . S
C2183 C2181 1.561 . S
C2184 C2181 1.526 . S
C2184 C2185 1.396 . S
C2184 C2189 1.390 . S
C2185 C2179 1.465 . S
C2185 C2184 1.396 . S
C2185 C2186 1.399 . S
C2186 H2172 0.929 . S
C2186 C2185 1.399 . S
C2186 C2187 1.385 . S
C2187 H2173 0.931 . S
C2187 C2186 1.385 . S
C2187 C2188 1.389 . S
C2188 C2187 1.389 . S
C2188 C2189 1.387 . S
C2189 H2174 0.930 . S
C2189 C2184 1.390 . S
C2189 C2188 1.387 . S
H2190 C2202 0.930 . S
H2191 C2204 0.930 . S
H2192 C2205 0.930 . S
H2193 C2209 0.959 . S
H2194 C2209 0.959 . S
H2195 C2209 0.961 . S
H2196 C2210 0.960 . S
H2197 C2210 0.961 . S
H2198 C2210 0.959 . S
H2199 C2213 0.929 . S
H2200 C2214 0.931 . S
H2201 C2216 0.930 . S
C2202 H2190 0.930 . S
C2202 C2203 1.399 . S
C2202 C2207 1.399 . S
C2203 C2202 1.399 . S
C2203 C2204 1.376 . S
C2204 H2191 0.930 . S
C2204 C2203 1.376 . S
C2204 C2205 1.388 . S
C2205 H2192 0.930 . S
C2205 C2204 1.388 . S
C2205 C2206 1.390 . S
C2206 C2205 1.390 . S
C2206 C2207 1.394 . S
C2206 C2212 1.465 . S
C2207 C2202 1.399 . S
C2207 C2206 1.394 . S
C2207 C2208 1.516 . S
C2208 C2207 1.516 . S
C2208 C2209 1.502 . S
C2208 C2210 1.561 . S
C2208 C2211 1.526 . S
C2209 H2193 0.959 . S
C2209 H2194 0.959 . S
C2209 H2195 0.961 . S
C2209 C2208 1.502 . S
C2210 H2196 0.960 . S
C2210 H2197 0.961 . S
C2210 H2198 0.959 . S
C2210 C2208 1.561 . S
C2211 C2208 1.526 . S
C2211 C2212 1.396 . S
C2211 C2216 1.390 . S
C2212 C2206 1.465 . S
C2212 C2211 1.396 . S
C2212 C2213 1.399 . S
C2213 H2199 0.929 . S
C2213 C2212 1.399 . S
C2213 C2214 1.385 . S
C2214 H2200 0.931 . S
C2214 C2213 1.385 . S
C2214 C2215 1.389 . S
C2215 C2214 1.389 . S
C2215 C2216 1.387 . S
C2216 H2201 0.930 . S
C2216 C2211 1.390 . S
C2216 C2215 1.387 . S
H2217 C2229 0.930 . S
H2218 C2231 0.930 . S
H2219 C2232 0.930 . S
H2220 C2236 0.959 . S
H2221 C2236 0.959 . S
H2222 C2236 0.961 . S
H2223 C2237 0.960 . S
H2224 C2237 0.961 . S
H2225 C2237 0.959 . S
H2226 C2240 0.929 . S
H2227 C2241 0.931 . S
H2228 C2243 0.930 . S
C2229 H2217 0.930 . S
C2229 C2230 1.399 . S
C2229 C2234 1.399 . S
C2230 C2229 1.399 . S
C2230 C2231 1.376 . S
C2231 H2218 0.930 . S
C2231 C2230 1.376 . S
C2231 C2232 1.388 . S
C2232 H2219 0.930 . S
C2232 C2231 1.388 . S
C2232 C2233 1.390 . S
C2233 C2232 1.390 . S
C2233 C2234 1.394 . S
C2233 C2239 1.465 . S
C2234 C2229 1.399 . S
C2234 C2233 1.394 . S
C2234 C2235 1.516 . S
C2235 C2234 1.516 . S
C2235 C2236 1.502 . S
C2235 C2237 1.561 . S
C2235 C2238 1.526 . S
C2236 H2220 0.959 . S
C2236 H2221 0.959 . S
C2236 H2222 0.961 . S
C2236 C2235 1.502 . S
C2237 H2223 0.960 . S
C2237 H2224 0.961 . S
C2237 H2225 0.959 . S
C2237 C2235 1.561 . S
C2238 C2235 1.526 . S
C2238 C2239 1.396 . S
C2238 C2243 1.390 . S
C2239 C2233 1.465 . S
C2239 C2238 1.396 . S
C2239 C2240 1.399 . S
C2240 H2226 0.929 . S
C2240 C2239 1.399 . S
C2240 C2241 1.385 . S
C2241 H2227 0.931 . S
C2241 C2240 1.385 . S
C2241 C2242 1.389 . S
C2242 C2241 1.389 . S
C2242 C2243 1.387 . S
C2243 H2228 0.930 . S
C2243 C2238 1.390 . S
C2243 C2242 1.387 . S
H2244 C2256 0.930 . S
H2245 C2258 0.930 . S
H2246 C2259 0.930 . S
H2247 C2263 0.959 . S
H2248 C2263 0.959 . S
H2249 C2263 0.961 . S
H2250 C2264 0.960 . S
H2251 C2264 0.961 . S
H2252 C2264 0.959 . S
H2253 C2267 0.929 . S
H2254 C2268 0.931 . S
H2255 C2270 0.930 . S
C2256 H2244 0.930 . S
C2256 C2257 1.399 . S
C2256 C2261 1.399 . S
C2257 C2256 1.399 . S
C2257 C2258 1.376 . S
C2258 H2245 0.930 . S
C2258 C2257 1.376 . S
C2258 C2259 1.388 . S
C2259 H2246 0.930 . S
C2259 C2258 1.388 . S
C2259 C2260 1.390 . S
C2260 C2259 1.390 . S
C2260 C2261 1.394 . S
C2260 C2266 1.465 . S
C2261 C2256 1.399 . S
C2261 C2260 1.394 . S
C2261 C2262 1.516 . S
C2262 C2261 1.516 . S
C2262 C2263 1.502 . S
C2262 C2264 1.561 . S
C2262 C2265 1.526 . S
C2263 H2247 0.959 . S
C2263 H2248 0.959 . S
C2263 H2249 0.961 . S
C2263 C2262 1.502 . S
C2264 H2250 0.960 . S
C2264 H2251 0.961 . S
C2264 H2252 0.959 . S
C2264 C2262 1.561 . S
C2265 C2262 1.526 . S
C2265 C2266 1.396 . S
C2265 C2270 1.390 . S
C2266 C2260 1.465 . S
C2266 C2265 1.396 . S
C2266 C2267 1.399 . S
C2267 H2253 0.929 . S
C2267 C2266 1.399 . S
C2267 C2268 1.385 . S
C2268 H2254 0.931 . S
C2268 C2267 1.385 . S
C2268 C2269 1.389 . S
C2269 C2268 1.389 . S
C2269 C2270 1.387 . S
C2270 H2255 0.930 . S
C2270 C2265 1.390 . S
C2270 C2269 1.387 . S
H2271 C2283 0.930 . S
H2272 C2285 0.930 . S
H2273 C2286 0.930 . S
H2274 C2290 0.959 . S
H2275 C2290 0.959 . S
H2276 C2290 0.961 . S
H2277 C2291 0.960 . S
H2278 C2291 0.961 . S
H2279 C2291 0.959 . S
H2280 C2294 0.929 . S
H2281 C2295 0.931 . S
H2282 C2297 0.930 . S
C2283 H2271 0.930 . S
C2283 C2284 1.399 . S
C2283 C2288 1.399 . S
C2284 C2283 1.399 . S
C2284 C2285 1.376 . S
C2285 H2272 0.930 . S
C2285 C2284 1.376 . S
C2285 C2286 1.388 . S
C2286 H2273 0.930 . S
C2286 C2285 1.388 . S
C2286 C2287 1.390 . S
C2287 C2286 1.390 . S
C2287 C2288 1.394 . S
C2287 C2293 1.465 . S
C2288 C2283 1.399 . S
C2288 C2287 1.394 . S
C2288 C2289 1.516 . S
C2289 C2288 1.516 . S
C2289 C2290 1.502 . S
C2289 C2291 1.561 . S
C2289 C2292 1.526 . S
C2290 H2274 0.959 . S
C2290 H2275 0.959 . S
C2290 H2276 0.961 . S
C2290 C2289 1.502 . S
C2291 H2277 0.960 . S
C2291 H2278 0.961 . S
C2291 H2279 0.959 . S
C2291 C2289 1.561 . S
C2292 C2289 1.526 . S
C2292 C2293 1.396 . S
C2292 C2297 1.390 . S
C2293 C2287 1.465 . S
C2293 C2292 1.396 . S
C2293 C2294 1.399 . S
C2294 H2280 0.929 . S
C2294 C2293 1.399 . S
C2294 C2295 1.385 . S
C2295 H2281 0.931 . S
C2295 C2294 1.385 . S
C2295 C2296 1.389 . S
C2296 C2295 1.389 . S
C2296 C2297 1.387 . S
C2297 H2282 0.930 . S
C2297 C2292 1.390 . S
C2297 C2296 1.387 . S
H2298 C2310 0.930 . S
H2299 C2312 0.930 . S
H2300 C2313 0.930 . S
H2301 C2317 0.959 . S
H2302 C2317 0.959 . S
H2303 C2317 0.961 . S
H2304 C2318 0.960 . S
H2305 C2318 0.961 . S
H2306 C2318 0.959 . S
H2307 C2321 0.929 . S
H2308 C2322 0.931 . S
H2309 C2324 0.930 . S
C2310 H2298 0.930 . S
C2310 C2311 1.399 . S
C2310 C2315 1.399 . S
C2311 C2310 1.399 . S
C2311 C2312 1.376 . S
C2312 H2299 0.930 . S
C2312 C2311 1.376 . S
C2312 C2313 1.388 . S
C2313 H2300 0.930 . S
C2313 C2312 1.388 . S
C2313 C2314 1.390 . S
C2314 C2313 1.390 . S
C2314 C2315 1.394 . S
C2314 C2320 1.465 . S
C2315 C2310 1.399 . S
C2315 C2314 1.394 . S
C2315 C2316 1.516 . S
C2316 C2315 1.516 . S
C2316 C2317 1.502 . S
C2316 C2318 1.561 . S
C2316 C2319 1.526 . S
C2317 H2301 0.959 . S
C2317 H2302 0.959 . S
C2317 H2303 0.961 . S
C2317 C2316 1.502 . S
C2318 H2304 0.960 . S
C2318 H2305 0.961 . S
C2318 H2306 0.959 . S
C2318 C2316 1.561 . S
C2319 C2316 1.526 . S
C2319 C2320 1.396 . S
C2319 C2324 1.390 . S
C2320 C2314 1.465 . S
C2320 C2319 1.396 . S
C2320 C2321 1.399 . S
C2321 H2307 0.929 . S
C2321 C2320 1.399 . S
C2321 C2322 1.385 . S
C2322 H2308 0.931 . S
C2322 C2321 1.385 . S
C2322 C2323 1.389 . S
C2323 C2322 1.389 . S
C2323 C2324 1.387 . S
C2324 H2309 0.930 . S
C2324 C2319 1.390 . S
C2324 C2323 1.387 . S
H2325 C2337 0.930 . S
H2326 C2339 0.930 . S
H2327 C2340 0.930 . S
H2328 C2344 0.959 . S
H2329 C2344 0.959 . S
H2330 C2344 0.961 . S
H2331 C2345 0.960 . S
H2332 C2345 0.961 . S
H2333 C2345 0.959 . S
H2334 C2348 0.929 . S
H2335 C2349 0.931 . S
H2336 C2351 0.930 . S
C2337 H2325 0.930 . S
C2337 C2338 1.399 . S
C2337 C2342 1.399 . S
C2338 C2337 1.399 . S
C2338 C2339 1.376 . S
C2339 H2326 0.930 . S
C2339 C2338 1.376 . S
C2339 C2340 1.388 . S
C2340 H2327 0.930 . S
C2340 C2339 1.388 . S
C2340 C2341 1.390 . S
C2341 C2340 1.390 . S
C2341 C2342 1.394 . S
C2341 C2347 1.465 . S
C2342 C2337 1.399 . S
C2342 C2341 1.394 . S
C2342 C2343 1.516 . S
C2343 C2342 1.516 . S
C2343 C2344 1.502 . S
C2343 C2345 1.561 . S
C2343 C2346 1.526 . S
C2344 H2328 0.959 . S
C2344 H2329 0.959 . S
C2344 H2330 0.961 . S
C2344 C2343 1.502 . S
C2345 H2331 0.960 . S
C2345 H2332 0.961 . S
C2345 H2333 0.959 . S
C2345 C2343 1.561 . S
C2346 C2343 1.526 . S
C2346 C2347 1.396 . S
C2346 C2351 1.390 . S
C2347 C2341 1.465 . S
C2347 C2346 1.396 . S
C2347 C2348 1.399 . S
C2348 H2334 0.929 . S
C2348 C2347 1.399 . S
C2348 C2349 1.385 . S
C2349 H2335 0.931 . S
C2349 C2348 1.385 . S
C2349 C2350 1.389 . S
C2350 C2349 1.389 . S
C2350 C2351 1.387 . S
C2351 H2336 0.930 . S
C2351 C2346 1.390 . S
C2351 C2350 1.387 . S
H2352 C2364 0.930 . S
H2353 C2366 0.930 . S
H2354 C2367 0.930 . S
H2355 C2371 0.959 . S
H2356 C2371 0.959 . S
H2357 C2371 0.961 . S
H2358 C2372 0.960 . S
H2359 C2372 0.961 . S
H2360 C2372 0.959 . S
H2361 C2375 0.929 . S
H2362 C2376 0.931 . S
H2363 C2378 0.930 . S
C2364 H2352 0.930 . S
C2364 C2365 1.399 . S
C2364 C2369 1.399 . S
C2365 C2364 1.399 . S
C2365 C2366 1.376 . S
C2366 H2353 0.930 . S
C2366 C2365 1.376 . S
C2366 C2367 1.388 . S
C2367 H2354 0.930 . S
C2367 C2366 1.388 . S
C2367 C2368 1.390 . S
C2368 C2367 1.390 . S
C2368 C2369 1.394 . S
C2368 C2374 1.465 . S
C2369 C2364 1.399 . S
C2369 C2368 1.394 . S
C2369 C2370 1.516 . S
C2370 C2369 1.516 . S
C2370 C2371 1.502 . S
C2370 C2372 1.561 . S
C2370 C2373 1.526 . S
C2371 H2355 0.959 . S
C2371 H2356 0.959 . S
C2371 H2357 0.961 . S
C2371 C2370 1.502 . S
C2372 H2358 0.960 . S
C2372 H2359 0.961 . S
C2372 H2360 0.959 . S
C2372 C2370 1.561 . S
C2373 C2370 1.526 . S
C2373 C2374 1.396 . S
C2373 C2378 1.390 . S
C2374 C2368 1.465 . S
C2374 C2373 1.396 . S
C2374 C2375 1.399 . S
C2375 H2361 0.929 . S
C2375 C2374 1.399 . S
C2375 C2376 1.385 . S
C2376 H2362 0.931 . S
C2376 C2375 1.385 . S
C2376 C2377 1.389 . S
C2377 C2376 1.389 . S
C2377 C2378 1.387 . S
C2378 H2363 0.930 . S
C2378 C2373 1.390 . S
C2378 C2377 1.387 . S
H2379 C2391 0.930 . S
H2380 C2393 0.930 . S
H2381 C2394 0.930 . S
H2382 C2398 0.959 . S
H2383 C2398 0.959 . S
H2384 C2398 0.961 . S
H2385 C2399 0.960 . S
H2386 C2399 0.961 . S
H2387 C2399 0.959 . S
H2388 C2402 0.929 . S
H2389 C2403 0.931 . S
H2390 C2405 0.930 . S
C2391 H2379 0.930 . S
C2391 C2392 1.399 . S
C2391 C2396 1.399 . S
C2392 C2391 1.399 . S
C2392 C2393 1.376 . S
C2393 H2380 0.930 . S
C2393 C2392 1.376 . S
C2393 C2394 1.388 . S
C2394 H2381 0.930 . S
C2394 C2393 1.388 . S
C2394 C2395 1.390 . S
C2395 C2394 1.390 . S
C2395 C2396 1.394 . S
C2395 C2401 1.465 . S
C2396 C2391 1.399 . S
C2396 C2395 1.394 . S
C2396 C2397 1.516 . S
C2397 C2396 1.516 . S
C2397 C2398 1.502 . S
C2397 C2399 1.561 . S
C2397 C2400 1.526 . S
C2398 H2382 0.959 . S
C2398 H2383 0.959 . S
C2398 H2384 0.961 . S
C2398 C2397 1.502 . S
C2399 H2385 0.960 . S
C2399 H2386 0.961 . S
C2399 H2387 0.959 . S
C2399 C2397 1.561 . S
C2400 C2397 1.526 . S
C2400 C2401 1.396 . S
C2400 C2405 1.390 . S
C2401 C2395 1.465 . S
C2401 C2400 1.396 . S
C2401 C2402 1.399 . S
C2402 H2388 0.929 . S
C2402 C2401 1.399 . S
C2402 C2403 1.385 . S
C2403 H2389 0.931 . S
C2403 C2402 1.385 . S
C2403 C2404 1.389 . S
C2404 C2403 1.389 . S
C2404 C2405 1.387 . S
C2405 H2390 0.930 . S
C2405 C2400 1.390 . S
C2405 C2404 1.387 . S
H2406 C2418 0.930 . S
H2407 C2420 0.930 . S
H2408 C2421 0.930 . S
H2409 C2425 0.959 . S
H2410 C2425 0.959 . S
H2411 C2425 0.961 . S
H2412 C2426 0.960 . S
H2413 C2426 0.961 . S
H2414 C2426 0.959 . S
H2415 C2429 0.929 . S
H2416 C2430 0.931 . S
H2417 C2432 0.930 . S
C2418 H2406 0.930 . S
C2418 C2419 1.399 . S
C2418 C2423 1.399 . S
C2419 C2418 1.399 . S
C2419 C2420 1.376 . S
C2420 H2407 0.930 . S
C2420 C2419 1.376 . S
C2420 C2421 1.388 . S
C2421 H2408 0.930 . S
C2421 C2420 1.388 . S
C2421 C2422 1.390 . S
C2422 C2421 1.390 . S
C2422 C2423 1.394 . S
C2422 C2428 1.465 . S
C2423 C2418 1.399 . S
C2423 C2422 1.394 . S
C2423 C2424 1.516 . S
C2424 C2423 1.516 . S
C2424 C2425 1.502 . S
C2424 C2426 1.561 . S
C2424 C2427 1.526 . S
C2425 H2409 0.959 . S
C2425 H2410 0.959 . S
C2425 H2411 0.961 . S
C2425 C2424 1.502 . S
C2426 H2412 0.960 . S
C2426 H2413 0.961 . S
C2426 H2414 0.959 . S
C2426 C2424 1.561 . S
C2427 C2424 1.526 . S
C2427 C2428 1.396 . S
C2427 C2432 1.390 . S
C2428 C2422 1.465 . S
C2428 C2427 1.396 . S
C2428 C2429 1.399 . S
C2429 H2415 0.929 . S
C2429 C2428 1.399 . S
C2429 C2430 1.385 . S
C2430 H2416 0.931 . S
C2430 C2429 1.385 . S
C2430 C2431 1.389 . S
C2431 C2430 1.389 . S
C2431 C2432 1.387 . S
C2432 H2417 0.930 . S
C2432 C2427 1.390 . S
C2432 C2431 1.387 . S
H2433 C2445 0.930 . S
H2434 C2447 0.930 . S
H2435 C2448 0.930 . S
H2436 C2452 0.959 . S
H2437 C2452 0.959 . S
H2438 C2452 0.961 . S
H2439 C2453 0.960 . S
H2440 C2453 0.961 . S
H2441 C2453 0.959 . S
H2442 C2456 0.929 . S
H2443 C2457 0.931 . S
H2444 C2459 0.930 . S
C2445 H2433 0.930 . S
C2445 C2446 1.399 . S
C2445 C2450 1.399 . S
C2446 C2445 1.399 . S
C2446 C2447 1.376 . S
C2447 H2434 0.930 . S
C2447 C2446 1.376 . S
C2447 C2448 1.388 . S
C2448 H2435 0.930 . S
C2448 C2447 1.388 . S
C2448 C2449 1.390 . S
C2449 C2448 1.390 . S
C2449 C2450 1.394 . S
C2449 C2455 1.465 . S
C2450 C2445 1.399 . S
C2450 C2449 1.394 . S
C2450 C2451 1.516 . S
C2451 C2450 1.516 . S
C2451 C2452 1.502 . S
C2451 C2453 1.561 . S
C2451 C2454 1.526 . S
C2452 H2436 0.959 . S
C2452 H2437 0.959 . S
C2452 H2438 0.961 . S
C2452 C2451 1.502 . S
C2453 H2439 0.960 . S
C2453 H2440 0.961 . S
C2453 H2441 0.959 . S
C2453 C2451 1.561 . S
C2454 C2451 1.526 . S
C2454 C2455 1.396 . S
C2454 C2459 1.390 . S
C2455 C2449 1.465 . S
C2455 C2454 1.396 . S
C2455 C2456 1.399 . S
C2456 H2442 0.929 . S
C2456 C2455 1.399 . S
C2456 C2457 1.385 . S
C2457 H2443 0.931 . S
C2457 C2456 1.385 . S
C2457 C2458 1.389 . S
C2458 C2457 1.389 . S
C2458 C2459 1.387 . S
C2459 H2444 0.930 . S
C2459 C2454 1.390 . S
C2459 C2458 1.387 . S
H2460 C2472 0.930 . S
H2461 C2474 0.930 . S
H2462 C2475 0.930 . S
H2463 C2479 0.959 . S
H2464 C2479 0.959 . S
H2465 C2479 0.961 . S
H2466 C2480 0.960 . S
H2467 C2480 0.961 . S
H2468 C2480 0.959 . S
H2469 C2483 0.929 . S
H2470 C2484 0.931 . S
H2471 C2486 0.930 . S
C2472 H2460 0.930 . S
C2472 C2473 1.399 . S
C2472 C2477 1.399 . S
C2473 C2472 1.399 . S
C2473 C2474 1.376 . S
C2474 H2461 0.930 . S
C2474 C2473 1.376 . S
C2474 C2475 1.388 . S
C2475 H2462 0.930 . S
C2475 C2474 1.388 . S
C2475 C2476 1.390 . S
C2476 C2475 1.390 . S
C2476 C2477 1.394 . S
C2476 C2482 1.465 . S
C2477 C2472 1.399 . S
C2477 C2476 1.394 . S
C2477 C2478 1.516 . S
C2478 C2477 1.516 . S
C2478 C2479 1.502 . S
C2478 C2480 1.561 . S
C2478 C2481 1.526 . S
C2479 H2463 0.959 . S
C2479 H2464 0.959 . S
C2479 H2465 0.961 . S
C2479 C2478 1.502 . S
C2480 H2466 0.960 . S
C2480 H2467 0.961 . S
C2480 H2468 0.959 . S
C2480 C2478 1.561 . S
C2481 C2478 1.526 . S
C2481 C2482 1.396 . S
C2481 C2486 1.390 . S
C2482 C2476 1.465 . S
C2482 C2481 1.396 . S
C2482 C2483 1.399 . S
C2483 H2469 0.929 . S
C2483 C2482 1.399 . S
C2483 C2484 1.385 . S
C2484 H2470 0.931 . S
C2484 C2483 1.385 . S
C2484 C2485 1.389 . S
C2485 C2484 1.389 . S
C2485 C2486 1.387 . S
C2486 H2471 0.930 . S
C2486 C2481 1.390 . S
C2486 C2485 1.387 . S
H2487 C2499 0.930 . S
H2488 C2501 0.930 . S
H2489 C2502 0.930 . S
H2490 C2506 0.959 . S
H2491 C2506 0.959 . S
H2492 C2506 0.961 . S
H2493 C2507 0.960 . S
H2494 C2507 0.961 . S
H2495 C2507 0.959 . S
H2496 C2510 0.929 . S
H2497 C2511 0.931 . S
H2498 C2513 0.930 . S
C2499 H2487 0.930 . S
C2499 C2500 1.399 . S
C2499 C2504 1.399 . S
C2500 C2499 1.399 . S
C2500 C2501 1.376 . S
C2501 H2488 0.930 . S
C2501 C2500 1.376 . S
C2501 C2502 1.388 . S
C2502 H2489 0.930 . S
C2502 C2501 1.388 . S
C2502 C2503 1.390 . S
C2503 C2502 1.390 . S
C2503 C2504 1.394 . S
C2503 C2509 1.465 . S
C2504 C2499 1.399 . S
C2504 C2503 1.394 . S
C2504 C2505 1.516 . S
C2505 C2504 1.516 . S
C2505 C2506 1.502 . S
C2505 C2507 1.561 . S
C2505 C2508 1.526 . S
C2506 H2490 0.959 . S
C2506 H2491 0.959 . S
C2506 H2492 0.961 . S
C2506 C2505 1.502 . S
C2507 H2493 0.960 . S
C2507 H2494 0.961 . S
C2507 H2495 0.959 . S
C2507 C2505 1.561 . S
C2508 C2505 1.526 . S
C2508 C2509 1.396 . S
C2508 C2513 1.390 . S
C2509 C2503 1.465 . S
C2509 C2508 1.396 . S
C2509 C2510 1.399 . S
C2510 H2496 0.929 . S
C2510 C2509 1.399 . S
C2510 C2511 1.385 . S
C2511 H2497 0.931 . S
C2511 C2510 1.385 . S
C2511 C2512 1.389 . S
C2512 C2511 1.389 . S
C2512 C2513 1.387 . S
C2513 H2498 0.930 . S
C2513 C2508 1.390 . S
C2513 C2512 1.387 . S
H2514 C2526 0.930 . S
H2515 C2528 0.930 . S
H2516 C2529 0.930 . S
H2517 C2533 0.959 . S
H2518 C2533 0.959 . S
H2519 C2533 0.961 . S
H2520 C2534 0.960 . S
H2521 C2534 0.961 . S
H2522 C2534 0.959 . S
H2523 C2537 0.929 . S
H2524 C2538 0.931 . S
H2525 C2540 0.930 . S
C2526 H2514 0.930 . S
C2526 C2527 1.399 . S
C2526 C2531 1.399 . S
C2527 C2526 1.399 . S
C2527 C2528 1.376 . S
C2528 H2515 0.930 . S
C2528 C2527 1.376 . S
C2528 C2529 1.388 . S
C2529 H2516 0.930 . S
C2529 C2528 1.388 . S
C2529 C2530 1.390 . S
C2530 C2529 1.390 . S
C2530 C2531 1.394 . S
C2530 C2536 1.465 . S
C2531 C2526 1.399 . S
C2531 C2530 1.394 . S
C2531 C2532 1.516 . S
C2532 C2531 1.516 . S
C2532 C2533 1.502 . S
C2532 C2534 1.561 . S
C2532 C2535 1.526 . S
C2533 H2517 0.959 . S
C2533 H2518 0.959 . S
C2533 H2519 0.961 . S
C2533 C2532 1.502 . S
C2534 H2520 0.960 . S
C2534 H2521 0.961 . S
C2534 H2522 0.959 . S
C2534 C2532 1.561 . S
C2535 C2532 1.526 . S
C2535 C2536 1.396 . S
C2535 C2540 1.390 . S
C2536 C2530 1.465 . S
C2536 C2535 1.396 . S
C2536 C2537 1.399 . S
C2537 H2523 0.929 . S
C2537 C2536 1.399 . S
C2537 C2538 1.385 . S
C2538 H2524 0.931 . S
C2538 C2537 1.385 . S
C2538 C2539 1.389 . S
C2539 C2538 1.389 . S
C2539 C2540 1.387 . S
C2540 H2525 0.930 . S
C2540 C2535 1.390 . S
C2540 C2539 1.387 . S
H2541 C2553 0.930 . S
H2542 C2555 0.930 . S
H2543 C2556 0.930 . S
H2544 C2560 0.959 . S
H2545 C2560 0.959 . S
H2546 C2560 0.961 . S
H2547 C2561 0.960 . S
H2548 C2561 0.961 . S
H2549 C2561 0.959 . S
H2550 C2564 0.929 . S
H2551 C2565 0.931 . S
H2552 C2567 0.930 . S
C2553 H2541 0.930 . S
C2553 C2554 1.399 . S
C2553 C2558 1.399 . S
C2554 C2553 1.399 . S
C2554 C2555 1.376 . S
C2555 H2542 0.930 . S
C2555 C2554 1.376 . S
C2555 C2556 1.388 . S
C2556 H2543 0.930 . S
C2556 C2555 1.388 . S
C2556 C2557 1.390 . S
C2557 C2556 1.390 . S
C2557 C2558 1.394 . S
C2557 C2563 1.465 . S
C2558 C2553 1.399 . S
C2558 C2557 1.394 . S
C2558 C2559 1.516 . S
C2559 C2558 1.516 . S
C2559 C2560 1.502 . S
C2559 C2561 1.561 . S
C2559 C2562 1.526 . S
C2560 H2544 0.959 . S
C2560 H2545 0.959 . S
C2560 H2546 0.961 . S
C2560 C2559 1.502 . S
C2561 H2547 0.960 . S
C2561 H2548 0.961 . S
C2561 H2549 0.959 . S
C2561 C2559 1.561 . S
C2562 C2559 1.526 . S
C2562 C2563 1.396 . S
C2562 C2567 1.390 . S
C2563 C2557 1.465 . S
C2563 C2562 1.396 . S
C2563 C2564 1.399 . S
C2564 H2550 0.929 . S
C2564 C2563 1.399 . S
C2564 C2565 1.385 . S
C2565 H2551 0.931 . S
C2565 C2564 1.385 . S
C2565 C2566 1.389 . S
C2566 C2565 1.389 . S
C2566 C2567 1.387 . S
C2567 H2552 0.930 . S
C2567 C2562 1.390 . S
C2567 C2566 1.387 . S
H2568 C2580 0.930 . S
H2569 C2582 0.930 . S
H2570 C2583 0.930 . S
H2571 C2587 0.959 . S
H2572 C2587 0.959 . S
H2573 C2587 0.961 . S
H2574 C2588 0.960 . S
H2575 C2588 0.961 . S
H2576 C2588 0.959 . S
H2577 C2591 0.929 . S
H2578 C2592 0.931 . S
H2579 C2594 0.930 . S
C2580 H2568 0.930 . S
C2580 C2581 1.399 . S
C2580 C2585 1.399 . S
C2581 C2580 1.399 . S
C2581 C2582 1.376 . S
C2582 H2569 0.930 . S
C2582 C2581 1.376 . S
C2582 C2583 1.388 . S
C2583 H2570 0.930 . S
C2583 C2582 1.388 . S
C2583 C2584 1.390 . S
C2584 C2583 1.390 . S
C2584 C2585 1.394 . S
C2584 C2590 1.465 . S
C2585 C2580 1.399 . S
C2585 C2584 1.394 . S
C2585 C2586 1.516 . S
C2586 C2585 1.516 . S
C2586 C2587 1.502 . S
C2586 C2588 1.561 . S
C2586 C2589 1.526 . S
C2587 H2571 0.959 . S
C2587 H2572 0.959 . S
C2587 H2573 0.961 . S
C2587 C2586 1.502 . S
C2588 H2574 0.960 . S
C2588 H2575 0.961 . S
C2588 H2576 0.959 . S
C2588 C2586 1.561 . S
C2589 C2586 1.526 . S
C2589 C2590 1.396 . S
C2589 C2594 1.390 . S
C2590 C2584 1.465 . S
C2590 C2589 1.396 . S
C2590 C2591 1.399 . S
C2591 H2577 0.929 . S
C2591 C2590 1.399 . S
C2591 C2592 1.385 . S
C2592 H2578 0.931 . S
C2592 C2591 1.385 . S
C2592 C2593 1.389 . S
C2593 C2592 1.389 . S
C2593 C2594 1.387 . S
C2594 H2579 0.930 . S
C2594 C2589 1.390 . S
C2594 C2593 1.387 . S
H2595 C2607 0.930 . S
H2596 C2609 0.930 . S
H2597 C2610 0.930 . S
H2598 C2614 0.959 . S
H2599 C2614 0.959 . S
H2600 C2614 0.961 . S
H2601 C2615 0.960 . S
H2602 C2615 0.961 . S
H2603 C2615 0.959 . S
H2604 C2618 0.929 . S
H2605 C2619 0.931 . S
H2606 C2621 0.930 . S
C2607 H2595 0.930 . S
C2607 C2608 1.399 . S
C2607 C2612 1.399 . S
C2608 C2607 1.399 . S
C2608 C2609 1.376 . S
C2609 H2596 0.930 . S
C2609 C2608 1.376 . S
C2609 C2610 1.388 . S
C2610 H2597 0.930 . S
C2610 C2609 1.388 . S
C2610 C2611 1.390 . S
C2611 C2610 1.390 . S
C2611 C2612 1.394 . S
C2611 C2617 1.465 . S
C2612 C2607 1.399 . S
C2612 C2611 1.394 . S
C2612 C2613 1.516 . S
C2613 C2612 1.516 . S
C2613 C2614 1.502 . S
C2613 C2615 1.561 . S
C2613 C2616 1.526 . S
C2614 H2598 0.959 . S
C2614 H2599 0.959 . S
C2614 H2600 0.961 . S
C2614 C2613 1.502 . S
C2615 H2601 0.960 . S
C2615 H2602 0.961 . S
C2615 H2603 0.959 . S
C2615 C2613 1.561 . S
C2616 C2613 1.526 . S
C2616 C2617 1.396 . S
C2616 C2621 1.390 . S
C2617 C2611 1.465 . S
C2617 C2616 1.396 . S
C2617 C2618 1.399 . S
C2618 H2604 0.929 . S
C2618 C2617 1.399 . S
C2618 C2619 1.385 . S
C2619 H2605 0.931 . S
C2619 C2618 1.385 . S
C2619 C2620 1.389 . S
C2620 C2619 1.389 . S
C2620 C2621 1.387 . S
C2621 H2606 0.930 . S
C2621 C2616 1.390 . S
C2621 C2620 1.387 . S
H2622 C2634 0.930 . S
H2623 C2636 0.930 . S
H2624 C2637 0.930 . S
H2625 C2641 0.959 . S
H2626 C2641 0.959 . S
H2627 C2641 0.961 . S
H2628 C2642 0.960 . S
H2629 C2642 0.961 . S
H2630 C2642 0.959 . S
H2631 C2645 0.929 . S
H2632 C2646 0.931 . S
H2633 C2648 0.930 . S
C2634 H2622 0.930 . S
C2634 C2635 1.399 . S
C2634 C2639 1.399 . S
C2635 C2634 1.399 . S
C2635 C2636 1.376 . S
C2636 H2623 0.930 . S
C2636 C2635 1.376 . S
C2636 C2637 1.388 . S
C2637 H2624 0.930 . S
C2637 C2636 1.388 . S
C2637 C2638 1.390 . S
C2638 C2637 1.390 . S
C2638 C2639 1.394 . S
C2638 C2644 1.465 . S
C2639 C2634 1.399 . S
C2639 C2638 1.394 . S
C2639 C2640 1.516 . S
C2640 C2639 1.516 . S
C2640 C2641 1.502 . S
C2640 C2642 1.561 . S
C2640 C2643 1.526 . S
C2641 H2625 0.959 . S
C2641 H2626 0.959 . S
C2641 H2627 0.961 . S
C2641 C2640 1.502 . S
C2642 H2628 0.960 . S
C2642 H2629 0.961 . S
C2642 H2630 0.959 . S
C2642 C2640 1.561 . S
C2643 C2640 1.526 . S
C2643 C2644 1.396 . S
C2643 C2648 1.390 . S
C2644 C2638 1.465 . S
C2644 C2643 1.396 . S
C2644 C2645 1.399 . S
C2645 H2631 0.929 . S
C2645 C2644 1.399 . S
C2645 C2646 1.385 . S
C2646 H2632 0.931 . S
C2646 C2645 1.385 . S
C2646 C2647 1.389 . S
C2647 C2646 1.389 . S
C2647 C2648 1.387 . S
C2648 H2633 0.930 . S
C2648 C2643 1.390 . S
C2648 C2647 1.387 . S
H2649 C2661 0.930 . S
H2650 C2663 0.930 . S
H2651 C2664 0.930 . S
H2652 C2668 0.959 . S
H2653 C2668 0.959 . S
H2654 C2668 0.961 . S
H2655 C2669 0.960 . S
H2656 C2669 0.961 . S
H2657 C2669 0.959 . S
H2658 C2672 0.929 . S
H2659 C2673 0.931 . S
H2660 C2675 0.930 . S
C2661 H2649 0.930 . S
C2661 C2662 1.399 . S
C2661 C2666 1.399 . S
C2662 C2661 1.399 . S
C2662 C2663 1.376 . S
C2663 H2650 0.930 . S
C2663 C2662 1.376 . S
C2663 C2664 1.388 . S
C2664 H2651 0.930 . S
C2664 C2663 1.388 . S
C2664 C2665 1.390 . S
C2665 C2664 1.390 . S
C2665 C2666 1.394 . S
C2665 C2671 1.465 . S
C2666 C2661 1.399 . S
C2666 C2665 1.394 . S
C2666 C2667 1.516 . S
C2667 C2666 1.516 . S
C2667 C2668 1.502 . S
C2667 C2669 1.561 . S
C2667 C2670 1.526 . S
C2668 H2652 0.959 . S
C2668 H2653 0.959 . S
C2668 H2654 0.961 . S
C2668 C2667 1.502 . S
C2669 H2655 0.960 . S
C2669 H2656 0.961 . S
C2669 H2657 0.959 . S
C2669 C2667 1.561 . S
C2670 C2667 1.526 . S
C2670 C2671 1.396 . S
C2670 C2675 1.390 . S
C2671 C2665 1.465 . S
C2671 C2670 1.396 . S
C2671 C2672 1.399 . S
C2672 H2658 0.929 . S
C2672 C2671 1.399 . S
C2672 C2673 1.385 . S
C2673 H2659 0.931 . S
C2673 C2672 1.385 . S
C2673 C2674 1.389 . S
C2674 C2673 1.389 . S
C2674 C2675 1.387 . S
C2675 H2660 0.930 . S
C2675 C2670 1.390 . S
C2675 C2674 1.387 . S
H2676 C2688 0.930 . S
H2677 C2690 0.930 . S
H2678 C2691 0.930 . S
H2679 C2695 0.959 . S
H2680 C2695 0.959 . S
H2681 C2695 0.961 . S
H2682 C2696 0.960 . S
H2683 C2696 0.961 . S
H2684 C2696 0.959 . S
H2685 C2699 0.929 . S
H2686 C2700 0.931 . S
H2687 C2702 0.930 . S
C2688 H2676 0.930 . S
C2688 C2689 1.399 . S
C2688 C2693 1.399 . S
C2689 C2688 1.399 . S
C2689 C2690 1.376 . S
C2690 H2677 0.930 . S
C2690 C2689 1.376 . S
C2690 C2691 1.388 . S
C2691 H2678 0.930 . S
C2691 C2690 1.388 . S
C2691 C2692 1.390 . S
C2692 C2691 1.390 . S
C2692 C2693 1.394 . S
C2692 C2698 1.465 . S
C2693 C2688 1.399 . S
C2693 C2692 1.394 . S
C2693 C2694 1.516 . S
C2694 C2693 1.516 . S
C2694 C2695 1.502 . S
C2694 C2696 1.561 . S
C2694 C2697 1.526 . S
C2695 H2679 0.959 . S
C2695 H2680 0.959 . S
C2695 H2681 0.961 . S
C2695 C2694 1.502 . S
C2696 H2682 0.960 . S
C2696 H2683 0.961 . S
C2696 H2684 0.959 . S
C2696 C2694 1.561 . S
C2697 C2694 1.526 . S
C2697 C2698 1.396 . S
C2697 C2702 1.390 . S
C2698 C2692 1.465 . S
C2698 C2697 1.396 . S
C2698 C2699 1.399 . S
C2699 H2685 0.929 . S
C2699 C2698 1.399 . S
C2699 C2700 1.385 . S
C2700 H2686 0.931 . S
C2700 C2699 1.385 . S
C2700 C2701 1.389 . S
C2701 C2700 1.389 . S
C2701 C2702 1.387 . S
C2702 H2687 0.930 . S
C2702 C2697 1.390 . S
C2702 C2701 1.387 . S
H2703 C2715 0.930 . S
H2704 C2717 0.930 . S
H2705 C2718 0.930 . S
H2706 C2722 0.959 . S
H2707 C2722 0.959 . S
H2708 C2722 0.961 . S
H2709 C2723 0.960 . S
H2710 C2723 0.961 . S
H2711 C2723 0.959 . S
H2712 C2726 0.929 . S
H2713 C2727 0.931 . S
H2714 C2729 0.930 . S
C2715 H2703 0.930 . S
C2715 C2716 1.399 . S
C2715 C2720 1.399 . S
C2716 C2715 1.399 . S
C2716 C2717 1.376 . S
C2717 H2704 0.930 . S
C2717 C2716 1.376 . S
C2717 C2718 1.388 . S
C2718 H2705 0.930 . S
C2718 C2717 1.388 . S
C2718 C2719 1.390 . S
C2719 C2718 1.390 . S
C2719 C2720 1.394 . S
C2719 C2725 1.465 . S
C2720 C2715 1.399 . S
C2720 C2719 1.394 . S
C2720 C2721 1.516 . S
C2721 C2720 1.516 . S
C2721 C2722 1.502 . S
C2721 C2723 1.561 . S
C2721 C2724 1.526 . S
C2722 H2706 0.959 . S
C2722 H2707 0.959 . S
C2722 H2708 0.961 . S
C2722 C2721 1.502 . S
C2723 H2709 0.960 . S
C2723 H2710 0.961 . S
C2723 H2711 0.959 . S
C2723 C2721 1.561 . S
C2724 C2721 1.526 . S
C2724 C2725 1.396 . S
C2724 C2729 1.390 . S
C2725 C2719 1.465 . S
C2725 C2724 1.396 . S
C2725 C2726 1.399 . S
C2726 H2712 0.929 . S
C2726 C2725 1.399 . S
C2726 C2727 1.385 . S
C2727 H2713 0.931 . S
C2727 C2726 1.385 . S
C2727 C2728 1.389 . S
C2728 C2727 1.389 . S
C2728 C2729 1.387 . S
C2729 H2714 0.930 . S
C2729 C2724 1.390 . S
C2729 C2728 1.387 . S
H2730 C2742 0.930 . S
H2731 C2744 0.930 . S
H2732 C2745 0.930 . S
H2733 C2749 0.959 . S
H2734 C2749 0.959 . S
H2735 C2749 0.961 . S
H2736 C2750 0.960 . S
H2737 C2750 0.961 . S
H2738 C2750 0.959 . S
H2739 C2753 0.929 . S
H2740 C2754 0.931 . S
H2741 C2756 0.930 . S
C2742 H2730 0.930 . S
C2742 C2743 1.399 . S
C2742 C2747 1.399 . S
C2743 C2742 1.399 . S
C2743 C2744 1.376 . S
C2744 H2731 0.930 . S
C2744 C2743 1.376 . S
C2744 C2745 1.388 . S
C2745 H2732 0.930 . S
C2745 C2744 1.388 . S
C2745 C2746 1.390 . S
C2746 C2745 1.390 . S
C2746 C2747 1.394 . S
C2746 C2752 1.465 . S
C2747 C2742 1.399 . S
C2747 C2746 1.394 . S
C2747 C2748 1.516 . S
C2748 C2747 1.516 . S
C2748 C2749 1.502 . S
C2748 C2750 1.561 . S
C2748 C2751 1.526 . S
C2749 H2733 0.959 . S
C2749 H2734 0.959 . S
C2749 H2735 0.961 . S
C2749 C2748 1.502 . S
C2750 H2736 0.960 . S
C2750 H2737 0.961 . S
C2750 H2738 0.959 . S
C2750 C2748 1.561 . S
C2751 C2748 1.526 . S
C2751 C2752 1.396 . S
C2751 C2756 1.390 . S
C2752 C2746 1.465 . S
C2752 C2751 1.396 . S
C2752 C2753 1.399 . S
C2753 H2739 0.929 . S
C2753 C2752 1.399 . S
C2753 C2754 1.385 . S
C2754 H2740 0.931 . S
C2754 C2753 1.385 . S
C2754 C2755 1.389 . S
C2755 C2754 1.389 . S
C2755 C2756 1.387 . S
C2756 H2741 0.930 . S
C2756 C2751 1.390 . S
C2756 C2755 1.387 . S
H2757 C2769 0.930 . S
H2758 C2771 0.930 . S
H2759 C2772 0.930 . S
H2760 C2776 0.959 . S
H2761 C2776 0.959 . S
H2762 C2776 0.961 . S
H2763 C2777 0.960 . S
H2764 C2777 0.961 . S
H2765 C2777 0.959 . S
H2766 C2780 0.929 . S
H2767 C2781 0.931 . S
H2768 C2783 0.930 . S
C2769 H2757 0.930 . S
C2769 C2770 1.399 . S
C2769 C2774 1.399 . S
C2770 C2769 1.399 . S
C2770 C2771 1.376 . S
C2771 H2758 0.930 . S
C2771 C2770 1.376 . S
C2771 C2772 1.388 . S
C2772 H2759 0.930 . S
C2772 C2771 1.388 . S
C2772 C2773 1.390 . S
C2773 C2772 1.390 . S
C2773 C2774 1.394 . S
C2773 C2779 1.465 . S
C2774 C2769 1.399 . S
C2774 C2773 1.394 . S
C2774 C2775 1.516 . S
C2775 C2774 1.516 . S
C2775 C2776 1.502 . S
C2775 C2777 1.561 . S
C2775 C2778 1.526 . S
C2776 H2760 0.959 . S
C2776 H2761 0.959 . S
C2776 H2762 0.961 . S
C2776 C2775 1.502 . S
C2777 H2763 0.960 . S
C2777 H2764 0.961 . S
C2777 H2765 0.959 . S
C2777 C2775 1.561 . S
C2778 C2775 1.526 . S
C2778 C2779 1.396 . S
C2778 C2783 1.390 . S
C2779 C2773 1.465 . S
C2779 C2778 1.396 . S
C2779 C2780 1.399 . S
C2780 H2766 0.929 . S
C2780 C2779 1.399 . S
C2780 C2781 1.385 . S
C2781 H2767 0.931 . S
C2781 C2780 1.385 . S
C2781 C2782 1.389 . S
C2782 C2781 1.389 . S
C2782 C2783 1.387 . S
C2783 H2768 0.930 . S
C2783 C2778 1.390 . S
C2783 C2782 1.387 . S
H2784 C2796 0.930 . S
H2785 C2798 0.930 . S
H2786 C2799 0.930 . S
H2787 C2803 0.959 . S
H2788 C2803 0.959 . S
H2789 C2803 0.961 . S
H2790 C2804 0.960 . S
H2791 C2804 0.961 . S
H2792 C2804 0.959 . S
H2793 C2807 0.929 . S
H2794 C2808 0.931 . S
H2795 C2810 0.930 . S
C2796 H2784 0.930 . S
C2796 C2797 1.399 . S
C2796 C2801 1.399 . S
C2797 C2796 1.399 . S
C2797 C2798 1.376 . S
C2798 H2785 0.930 . S
C2798 C2797 1.376 . S
C2798 C2799 1.388 . S
C2799 H2786 0.930 . S
C2799 C2798 1.388 . S
C2799 C2800 1.390 . S
C2800 C2799 1.390 . S
C2800 C2801 1.394 . S
C2800 C2806 1.465 . S
C2801 C2796 1.399 . S
C2801 C2800 1.394 . S
C2801 C2802 1.516 . S
C2802 C2801 1.516 . S
C2802 C2803 1.502 . S
C2802 C2804 1.561 . S
C2802 C2805 1.526 . S
C2803 H2787 0.959 . S
C2803 H2788 0.959 . S
C2803 H2789 0.961 . S
C2803 C2802 1.502 . S
C2804 H2790 0.960 . S
C2804 H2791 0.961 . S
C2804 H2792 0.959 . S
C2804 C2802 1.561 . S
C2805 C2802 1.526 . S
C2805 C2806 1.396 . S
C2805 C2810 1.390 . S
C2806 C2800 1.465 . S
C2806 C2805 1.396 . S
C2806 C2807 1.399 . S
C2807 H2793 0.929 . S
C2807 C2806 1.399 . S
C2807 C2808 1.385 . S
C2808 H2794 0.931 . S
C2808 C2807 1.385 . S
C2808 C2809 1.389 . S
C2809 C2808 1.389 . S
C2809 C2810 1.387 . S
C2810 H2795 0.930 . S
C2810 C2805 1.390 . S
C2810 C2809 1.387 . S
H2811 C2823 0.930 . S
H2812 C2825 0.930 . S
H2813 C2826 0.930 . S
H2814 C2830 0.959 . S
H2815 C2830 0.959 . S
H2816 C2830 0.961 . S
H2817 C2831 0.960 . S
H2818 C2831 0.961 . S
H2819 C2831 0.959 . S
H2820 C2834 0.929 . S
H2821 C2835 0.931 . S
H2822 C2837 0.930 . S
C2823 H2811 0.930 . S
C2823 C2824 1.399 . S
C2823 C2828 1.399 . S
C2824 C2823 1.399 . S
C2824 C2825 1.376 . S
C2825 H2812 0.930 . S
C2825 C2824 1.376 . S
C2825 C2826 1.388 . S
C2826 H2813 0.930 . S
C2826 C2825 1.388 . S
C2826 C2827 1.390 . S
C2827 C2826 1.390 . S
C2827 C2828 1.394 . S
C2827 C2833 1.465 . S
C2828 C2823 1.399 . S
C2828 C2827 1.394 . S
C2828 C2829 1.516 . S
C2829 C2828 1.516 . S
C2829 C2830 1.502 . S
C2829 C2831 1.561 . S
C2829 C2832 1.526 . S
C2830 H2814 0.959 . S
C2830 H2815 0.959 . S
C2830 H2816 0.961 . S
C2830 C2829 1.502 . S
C2831 H2817 0.960 . S
C2831 H2818 0.961 . S
C2831 H2819 0.959 . S
C2831 C2829 1.561 . S
C2832 C2829 1.526 . S
C2832 C2833 1.396 . S
C2832 C2837 1.390 . S
C2833 C2827 1.465 . S
C2833 C2832 1.396 . S
C2833 C2834 1.399 . S
C2834 H2820 0.929 . S
C2834 C2833 1.399 . S
C2834 C2835 1.385 . S
C2835 H2821 0.931 . S
C2835 C2834 1.385 . S
C2835 C2836 1.389 . S
C2836 C2835 1.389 . S
C2836 C2837 1.387 . S
C2837 H2822 0.930 . S
C2837 C2832 1.390 . S
C2837 C2836 1.387 . S
H2838 C2850 0.930 . S
H2839 C2852 0.930 . S
H2840 C2853 0.930 . S
H2841 C2857 0.959 . S
H2842 C2857 0.959 . S
H2843 C2857 0.961 . S
H2844 C2858 0.960 . S
H2845 C2858 0.961 . S
H2846 C2858 0.959 . S
H2847 C2861 0.929 . S
H2848 C2862 0.931 . S
H2849 C2864 0.930 . S
C2850 H2838 0.930 . S
C2850 C2851 1.399 . S
C2850 C2855 1.399 . S
C2851 C2850 1.399 . S
C2851 C2852 1.376 . S
C2852 H2839 0.930 . S
C2852 C2851 1.376 . S
C2852 C2853 1.388 . S
C2853 H2840 0.930 . S
C2853 C2852 1.388 . S
C2853 C2854 1.390 . S
C2854 C2853 1.390 . S
C2854 C2855 1.394 . S
C2854 C2860 1.465 . S
C2855 C2850 1.399 . S
C2855 C2854 1.394 . S
C2855 C2856 1.516 . S
C2856 C2855 1.516 . S
C2856 C2857 1.502 . S
C2856 C2858 1.561 . S
C2856 C2859 1.526 . S
C2857 H2841 0.959 . S
C2857 H2842 0.959 . S
C2857 H2843 0.961 . S
C2857 C2856 1.502 . S
C2858 H2844 0.960 . S
C2858 H2845 0.961 . S
C2858 H2846 0.959 . S
C2858 C2856 1.561 . S
C2859 C2856 1.526 . S
C2859 C2860 1.396 . S
C2859 C2864 1.390 . S
C2860 C2854 1.465 . S
C2860 C2859 1.396 . S
C2860 C2861 1.399 . S
C2861 H2847 0.929 . S
C2861 C2860 1.399 . S
C2861 C2862 1.385 . S
C2862 H2848 0.931 . S
C2862 C2861 1.385 . S
C2862 C2863 1.389 . S
C2863 C2862 1.389 . S
C2863 C2864 1.387 . S
C2864 H2849 0.930 . S
C2864 C2859 1.390 . S
C2864 C2863 1.387 . S
H2865 C2877 0.930 . S
H2866 C2879 0.930 . S
H2867 C2880 0.930 . S
H2868 C2884 0.959 . S
H2869 C2884 0.959 . S
H2870 C2884 0.961 . S
H2871 C2885 0.960 . S
H2872 C2885 0.961 . S
H2873 C2885 0.959 . S
H2874 C2888 0.929 . S
H2875 C2889 0.931 . S
H2876 C2891 0.930 . S
C2877 H2865 0.930 . S
C2877 C2878 1.399 . S
C2877 C2882 1.399 . S
C2878 C2877 1.399 . S
C2878 C2879 1.376 . S
C2879 H2866 0.930 . S
C2879 C2878 1.376 . S
C2879 C2880 1.388 . S
C2880 H2867 0.930 . S
C2880 C2879 1.388 . S
C2880 C2881 1.390 . S
C2881 C2880 1.390 . S
C2881 C2882 1.394 . S
C2881 C2887 1.465 . S
C2882 C2877 1.399 . S
C2882 C2881 1.394 . S
C2882 C2883 1.516 . S
C2883 C2882 1.516 . S
C2883 C2884 1.502 . S
C2883 C2885 1.561 . S
C2883 C2886 1.526 . S
C2884 H2868 0.959 . S
C2884 H2869 0.959 . S
C2884 H2870 0.961 . S
C2884 C2883 1.502 . S
C2885 H2871 0.960 . S
C2885 H2872 0.961 . S
C2885 H2873 0.959 . S
C2885 C2883 1.561 . S
C2886 C2883 1.526 . S
C2886 C2887 1.396 . S
C2886 C2891 1.390 . S
C2887 C2881 1.465 . S
C2887 C2886 1.396 . S
C2887 C2888 1.399 . S
C2888 H2874 0.929 . S
C2888 C2887 1.399 . S
C2888 C2889 1.385 . S
C2889 H2875 0.931 . S
C2889 C2888 1.385 . S
C2889 C2890 1.389 . S
C2890 C2889 1.389 . S
C2890 C2891 1.387 . S
C2891 H2876 0.930 . S
C2891 C2886 1.390 . S
C2891 C2890 1.387 . S
H2892 C2904 0.930 . S
H2893 C2906 0.930 . S
H2894 C2907 0.930 . S
H2895 C2911 0.959 . S
H2896 C2911 0.959 . S
H2897 C2911 0.961 . S
H2898 C2912 0.960 . S
H2899 C2912 0.961 . S
H2900 C2912 0.959 . S
H2901 C2915 0.929 . S
H2902 C2916 0.931 . S
H2903 C2918 0.930 . S
C2904 H2892 0.930 . S
C2904 C2905 1.399 . S
C2904 C2909 1.399 . S
C2905 C2904 1.399 . S
C2905 C2906 1.376 . S
C2906 H2893 0.930 . S
C2906 C2905 1.376 . S
C2906 C2907 1.388 . S
C2907 H2894 0.930 . S
C2907 C2906 1.388 . S
C2907 C2908 1.390 . S
C2908 C2907 1.390 . S
C2908 C2909 1.394 . S
C2908 C2914 1.465 . S
C2909 C2904 1.399 . S
C2909 C2908 1.394 . S
C2909 C2910 1.516 . S
C2910 C2909 1.516 . S
C2910 C2911 1.502 . S
C2910 C2912 1.561 . S
C2910 C2913 1.526 . S
C2911 H2895 0.959 . S
C2911 H2896 0.959 . S
C2911 H2897 0.961 . S
C2911 C2910 1.502 . S
C2912 H2898 0.960 . S
C2912 H2899 0.961 . S
C2912 H2900 0.959 . S
C2912 C2910 1.561 . S
C2913 C2910 1.526 . S
C2913 C2914 1.396 . S
C2913 C2918 1.390 . S
C2914 C2908 1.465 . S
C2914 C2913 1.396 . S
C2914 C2915 1.399 . S
C2915 H2901 0.929 . S
C2915 C2914 1.399 . S
C2915 C2916 1.385 . S
C2916 H2902 0.931 . S
C2916 C2915 1.385 . S
C2916 C2917 1.389 . S
C2917 C2916 1.389 . S
C2917 C2918 1.387 . S
C2918 H2903 0.930 . S
C2918 C2913 1.390 . S
C2918 C2917 1.387 . S
H2919 C2931 0.930 . S
H2920 C2933 0.930 . S
H2921 C2934 0.930 . S
H2922 C2938 0.959 . S
H2923 C2938 0.959 . S
H2924 C2938 0.961 . S
H2925 C2939 0.960 . S
H2926 C2939 0.961 . S
H2927 C2939 0.959 . S
H2928 C2942 0.929 . S
H2929 C2943 0.931 . S
H2930 C2945 0.930 . S
C2931 H2919 0.930 . S
C2931 C2932 1.399 . S
C2931 C2936 1.399 . S
C2932 C2931 1.399 . S
C2932 C2933 1.376 . S
C2933 H2920 0.930 . S
C2933 C2932 1.376 . S
C2933 C2934 1.388 . S
C2934 H2921 0.930 . S
C2934 C2933 1.388 . S
C2934 C2935 1.390 . S
C2935 C2934 1.390 . S
C2935 C2936 1.394 . S
C2935 C2941 1.465 . S
C2936 C2931 1.399 . S
C2936 C2935 1.394 . S
C2936 C2937 1.516 . S
C2937 C2936 1.516 . S
C2937 C2938 1.502 . S
C2937 C2939 1.561 . S
C2937 C2940 1.526 . S
C2938 H2922 0.959 . S
C2938 H2923 0.959 . S
C2938 H2924 0.961 . S
C2938 C2937 1.502 . S
C2939 H2925 0.960 . S
C2939 H2926 0.961 . S
C2939 H2927 0.959 . S
C2939 C2937 1.561 . S
C2940 C2937 1.526 . S
C2940 C2941 1.396 . S
C2940 C2945 1.390 . S
C2941 C2935 1.465 . S
C2941 C2940 1.396 . S
C2941 C2942 1.399 . S
C2942 H2928 0.929 . S
C2942 C2941 1.399 . S
C2942 C2943 1.385 . S
C2943 H2929 0.931 . S
C2943 C2942 1.385 . S
C2943 C2944 1.389 . S
C2944 C2943 1.389 . S
C2944 C2945 1.387 . S
C2945 H2930 0.930 . S
C2945 C2940 1.390 . S
C2945 C2944 1.387 . S
H2946 C2958 0.930 . S
H2947 C2960 0.930 . S
H2948 C2961 0.930 . S
H2949 C2965 0.959 . S
H2950 C2965 0.959 . S
H2951 C2965 0.961 . S
H2952 C2966 0.960 . S
H2953 C2966 0.961 . S
H2954 C2966 0.959 . S
H2955 C2969 0.929 . S
H2956 C2970 0.931 . S
H2957 C2972 0.930 . S
C2958 H2946 0.930 . S
C2958 C2959 1.399 . S
C2958 C2963 1.399 . S
C2959 C2958 1.399 . S
C2959 C2960 1.376 . S
C2960 H2947 0.930 . S
C2960 C2959 1.376 . S
C2960 C2961 1.388 . S
C2961 H2948 0.930 . S
C2961 C2960 1.388 . S
C2961 C2962 1.390 . S
C2962 C2961 1.390 . S
C2962 C2963 1.394 . S
C2962 C2968 1.465 . S
C2963 C2958 1.399 . S
C2963 C2962 1.394 . S
C2963 C2964 1.516 . S
C2964 C2963 1.516 . S
C2964 C2965 1.502 . S
C2964 C2966 1.561 . S
C2964 C2967 1.526 . S
C2965 H2949 0.959 . S
C2965 H2950 0.959 . S
C2965 H2951 0.961 . S
C2965 C2964 1.502 . S
C2966 H2952 0.960 . S
C2966 H2953 0.961 . S
C2966 H2954 0.959 . S
C2966 C2964 1.561 . S
C2967 C2964 1.526 . S
C2967 C2968 1.396 . S
C2967 C2972 1.390 . S
C2968 C2962 1.465 . S
C2968 C2967 1.396 . S
C2968 C2969 1.399 . S
C2969 H2955 0.929 . S
C2969 C2968 1.399 . S
C2969 C2970 1.385 . S
C2970 H2956 0.931 . S
C2970 C2969 1.385 . S
C2970 C2971 1.389 . S
C2971 C2970 1.389 . S
C2971 C2972 1.387 . S
C2972 H2957 0.930 . S
C2972 C2967 1.390 . S
C2972 C2971 1.387 . S
H2973 C2985 0.930 . S
H2974 C2987 0.930 . S
H2975 C2988 0.930 . S
H2976 C2992 0.959 . S
H2977 C2992 0.959 . S
H2978 C2992 0.961 . S
H2979 C2993 0.960 . S
H2980 C2993 0.961 . S
H2981 C2993 0.959 . S
H2982 C2996 0.929 . S
H2983 C2997 0.931 . S
H2984 C2999 0.930 . S
C2985 H2973 0.930 . S
C2985 C2986 1.399 . S
C2985 C2990 1.399 . S
C2986 C2985 1.399 . S
C2986 C2987 1.376 . S
C2987 H2974 0.930 . S
C2987 C2986 1.376 . S
C2987 C2988 1.388 . S
C2988 H2975 0.930 . S
C2988 C2987 1.388 . S
C2988 C2989 1.390 . S
C2989 C2988 1.390 . S
C2989 C2990 1.394 . S
C2989 C2995 1.465 . S
C2990 C2985 1.399 . S
C2990 C2989 1.394 . S
C2990 C2991 1.516 . S
C2991 C2990 1.516 . S
C2991 C2992 1.502 . S
C2991 C2993 1.561 . S
C2991 C2994 1.526 . S
C2992 H2976 0.959 . S
C2992 H2977 0.959 . S
C2992 H2978 0.961 . S
C2992 C2991 1.502 . S
C2993 H2979 0.960 . S
C2993 H2980 0.961 . S
C2993 H2981 0.959 . S
C2993 C2991 1.561 . S
C2994 C2991 1.526 . S
C2994 C2995 1.396 . S
C2994 C2999 1.390 . S
C2995 C2989 1.465 . S
C2995 C2994 1.396 . S
C2995 C2996 1.399 . S
C2996 H2982 0.929 . S
C2996 C2995 1.399 . S
C2996 C2997 1.385 . S
C2997 H2983 0.931 . S
C2997 C2996 1.385 . S
C2997 C2998 1.389 . S
C2998 C2997 1.389 . S
C2998 C2999 1.387 . S
C2999 H2984 0.930 . S
C2999 C2994 1.390 . S
C2999 C2998 1.387 . S
H3000 C3012 0.930 . S
H3001 C3014 0.930 . S
H3002 C3015 0.930 . S
H3003 C3019 0.959 . S
H3004 C3019 0.959 . S
H3005 C3019 0.961 . S
H3006 C3020 0.960 . S
H3007 C3020 0.961 . S
H3008 C3020 0.959 . S
H3009 C3023 0.929 . S
H3010 C3024 0.931 . S
H3011 C3026 0.930 . S
C3012 H3000 0.930 . S
C3012 C3013 1.399 . S
C3012 C3017 1.399 . S
C3013 C3012 1.399 . S
C3013 C3014 1.376 . S
C3014 H3001 0.930 . S
C3014 C3013 1.376 . S
C3014 C3015 1.388 . S
C3015 H3002 0.930 . S
C3015 C3014 1.388 . S
C3015 C3016 1.390 . S
C3016 C3015 1.390 . S
C3016 C3017 1.394 . S
C3016 C3022 1.465 . S
C3017 C3012 1.399 . S
C3017 C3016 1.394 . S
C3017 C3018 1.516 . S
C3018 C3017 1.516 . S
C3018 C3019 1.502 . S
C3018 C3020 1.561 . S
C3018 C3021 1.526 . S
C3019 H3003 0.959 . S
C3019 H3004 0.959 . S
C3019 H3005 0.961 . S
C3019 C3018 1.502 . S
C3020 H3006 0.960 . S
C3020 H3007 0.961 . S
C3020 H3008 0.959 . S
C3020 C3018 1.561 . S
C3021 C3018 1.526 . S
C3021 C3022 1.396 . S
C3021 C3026 1.390 . S
C3022 C3016 1.465 . S
C3022 C3021 1.396 . S
C3022 C3023 1.399 . S
C3023 H3009 0.929 . S
C3023 C3022 1.399 . S
C3023 C3024 1.385 . S
C3024 H3010 0.931 . S
C3024 C3023 1.385 . S
C3024 C3025 1.389 . S
C3025 C3024 1.389 . S
C3025 C3026 1.387 . S
C3026 H3011 0.930 . S
C3026 C3021 1.390 . S
C3026 C3025 1.387 . S
H3027 C3039 0.930 . S
H3028 C3041 0.930 . S
H3029 C3042 0.930 . S
H3030 C3046 0.959 . S
H3031 C3046 0.959 . S
H3032 C3046 0.961 . S
H3033 C3047 0.960 . S
H3034 C3047 0.961 . S
H3035 C3047 0.959 . S
H3036 C3050 0.929 . S
H3037 C3051 0.931 . S
H3038 C3053 0.930 . S
C3039 H3027 0.930 . S
C3039 C3040 1.399 . S
C3039 C3044 1.399 . S
C3040 C3039 1.399 . S
C3040 C3041 1.376 . S
C3041 H3028 0.930 . S
C3041 C3040 1.376 . S
C3041 C3042 1.388 . S
C3042 H3029 0.930 . S
C3042 C3041 1.388 . S
C3042 C3043 1.390 . S
C3043 C3042 1.390 . S
C3043 C3044 1.394 . S
C3043 C3049 1.465 . S
C3044 C3039 1.399 . S
C3044 C3043 1.394 . S
C3044 C3045 1.516 . S
C3045 C3044 1.516 . S
C3045 C3046 1.502 . S
C3045 C3047 1.561 . S
C3045 C3048 1.526 . S
C3046 H3030 0.959 . S
C3046 H3031 0.959 . S
C3046 H3032 0.961 . S
C3046 C3045 1.502 . S
C3047 H3033 0.960 . S
C3047 H3034 0.961 . S
C3047 H3035 0.959 . S
C3047 C3045 1.561 . S
C3048 C3045 1.526 . S
C3048 C3049 1.396 . S
C3048 C3053 1.390 . S
C3049 C3043 1.465 . S
C3049 C3048 1.396 . S
C3049 C3050 1.399 . S
C3050 H3036 0.929 . S
C3050 C3049 1.399 . S
C3050 C3051 1.385 . S
C3051 H3037 0.931 . S
C3051 C3050 1.385 . S
C3051 C3052 1.389 . S
C3052 C3051 1.389 . S
C3052 C3053 1.387 . S
C3053 H3038 0.930 . S
C3053 C3048 1.390 . S
C3053 C3052 1.387 . S
H3054 C3066 0.930 . S
H3055 C3068 0.930 . S
H3056 C3069 0.930 . S
H3057 C3073 0.959 . S
H3058 C3073 0.959 . S
H3059 C3073 0.961 . S
H3060 C3074 0.960 . S
H3061 C3074 0.961 . S
H3062 C3074 0.959 . S
H3063 C3077 0.929 . S
H3064 C3078 0.931 . S
H3065 C3080 0.930 . S
C3066 H3054 0.930 . S
C3066 C3067 1.399 . S
C3066 C3071 1.399 . S
C3067 C3066 1.399 . S
C3067 C3068 1.376 . S
C3068 H3055 0.930 . S
C3068 C3067 1.376 . S
C3068 C3069 1.388 . S
C3069 H3056 0.930 . S
C3069 C3068 1.388 . S
C3069 C3070 1.390 . S
C3070 C3069 1.390 . S
C3070 C3071 1.394 . S
C3070 C3076 1.465 . S
C3071 C3066 1.399 . S
C3071 C3070 1.394 . S
C3071 C3072 1.516 . S
C3072 C3071 1.516 . S
C3072 C3073 1.502 . S
C3072 C3074 1.561 . S
C3072 C3075 1.526 . S
C3073 H3057 0.959 . S
C3073 H3058 0.959 . S
C3073 H3059 0.961 . S
C3073 C3072 1.502 . S
C3074 H3060 0.960 . S
C3074 H3061 0.961 . S
C3074 H3062 0.959 . S
C3074 C3072 1.561 . S
C3075 C3072 1.526 . S
C3075 C3076 1.396 . S
C3075 C3080 1.390 . S
C3076 C3070 1.465 . S
C3076 C3075 1.396 . S
C3076 C3077 1.399 . S
C3077 H3063 0.929 . S
C3077 C3076 1.399 . S
C3077 C3078 1.385 . S
C3078 H3064 0.931 . S
C3078 C3077 1.385 . S
C3078 C3079 1.389 . S
C3079 C3078 1.389 . S
C3079 C3080 1.387 . S
C3080 H3065 0.930 . S
C3080 C3075 1.390 . S
C3080 C3079 1.387 . S
H3081 C3093 0.930 . S
H3082 C3095 0.930 . S
H3083 C3096 0.930 . S
H3084 C3100 0.959 . S
H3085 C3100 0.959 . S
H3086 C3100 0.961 . S
H3087 C3101 0.960 . S
H3088 C3101 0.961 . S
H3089 C3101 0.959 . S
H3090 C3104 0.929 . S
H3091 C3105 0.931 . S
H3092 C3107 0.930 . S
C3093 H3081 0.930 . S
C3093 C3094 1.399 . S
C3093 C3098 1.399 . S
C3094 C3093 1.399 . S
C3094 C3095 1.376 . S
C3095 H3082 0.930 . S
C3095 C3094 1.376 . S
C3095 C3096 1.388 . S
C3096 H3083 0.930 . S
C3096 C3095 1.388 . S
C3096 C3097 1.390 . S
C3097 C3096 1.390 . S
C3097 C3098 1.394 . S
C3097 C3103 1.465 . S
C3098 C3093 1.399 . S
C3098 C3097 1.394 . S
C3098 C3099 1.516 . S
C3099 C3098 1.516 . S
C3099 C3100 1.502 . S
C3099 C3101 1.561 . S
C3099 C3102 1.526 . S
C3100 H3084 0.959 . S
C3100 H3085 0.959 . S
C3100 H3086 0.961 . S
C3100 C3099 1.502 . S
C3101 H3087 0.960 . S
C3101 H3088 0.961 . S
C3101 H3089 0.959 . S
C3101 C3099 1.561 . S
C3102 C3099 1.526 . S
C3102 C3103 1.396 . S
C3102 C3107 1.390 . S
C3103 C3097 1.465 . S
C3103 C3102 1.396 . S
C3103 C3104 1.399 . S
C3104 H3090 0.929 . S
C3104 C3103 1.399 . S
C3104 C3105 1.385 . S
C3105 H3091 0.931 . S
C3105 C3104 1.385 . S
C3105 C3106 1.389 . S
C3106 C3105 1.389 . S
C3106 C3107 1.387 . S
C3107 H3092 0.930 . S
C3107 C3102 1.390 . S
C3107 C3106 1.387 . S
H3108 C3120 0.930 . S
H3109 C3122 0.930 . S
H3110 C3123 0.930 . S
H3111 C3127 0.959 . S
H3112 C3127 0.959 . S
H3113 C3127 0.961 . S
H3114 C3128 0.960 . S
H3115 C3128 0.961 . S
H3116 C3128 0.959 . S
H3117 C3131 0.929 . S
H3118 C3132 0.931 . S
H3119 C3134 0.930 . S
C3120 H3108 0.930 . S
C3120 C3121 1.399 . S
C3120 C3125 1.399 . S
C3121 C3120 1.399 . S
C3121 C3122 1.376 . S
C3122 H3109 0.930 . S
C3122 C3121 1.376 . S
C3122 C3123 1.388 . S
C3123 H3110 0.930 . S
C3123 C3122 1.388 . S
C3123 C3124 1.390 . S
C3124 C3123 1.390 . S
C3124 C3125 1.394 . S
C3124 C3130 1.465 . S
C3125 C3120 1.399 . S
C3125 C3124 1.394 . S
C3125 C3126 1.516 . S
C3126 C3125 1.516 . S
C3126 C3127 1.502 . S
C3126 C3128 1.561 . S
C3126 C3129 1.526 . S
C3127 H3111 0.959 . S
C3127 H3112 0.959 . S
C3127 H3113 0.961 . S
C3127 C3126 1.502 . S
C3128 H3114 0.960 . S
C3128 H3115 0.961 . S
C3128 H3116 0.959 . S
C3128 C3126 1.561 . S
C3129 C3126 1.526 . S
C3129 C3130 1.396 . S
C3129 C3134 1.390 . S
C3130 C3124 1.465 . S
C3130 C3129 1.396 . S
C3130 C3131 1.399 . S
C3131 H3117 0.929 . S
C3131 C3130 1.399 . S
C3131 C3132 1.385 . S
C3132 H3118 0.931 . S
C3132 C3131 1.385 . S
C3132 C3133 1.389 . S
C3133 C3132 1.389 . S
C3133 C3134 1.387 . S
C3134 H3119 0.930 . S
C3134 C3129 1.390 . S
C3134 C3133 1.387 . S
H3135 C3147 0.930 . S
H3136 C3149 0.930 . S
H3137 C3150 0.930 . S
H3138 C3154 0.959 . S
H3139 C3154 0.959 . S
H3140 C3154 0.961 . S
H3141 C3155 0.960 . S
H3142 C3155 0.961 . S
H3143 C3155 0.959 . S
H3144 C3158 0.929 . S
H3145 C3159 0.931 . S
H3146 C3161 0.930 . S
C3147 H3135 0.930 . S
C3147 C3148 1.399 . S
C3147 C3152 1.399 . S
C3148 C3147 1.399 . S
C3148 C3149 1.376 . S
C3149 H3136 0.930 . S
C3149 C3148 1.376 . S
C3149 C3150 1.388 . S
C3150 H3137 0.930 . S
C3150 C3149 1.388 . S
C3150 C3151 1.390 . S
C3151 C3150 1.390 . S
C3151 C3152 1.394 . S
C3151 C3157 1.465 . S
C3152 C3147 1.399 . S
C3152 C3151 1.394 . S
C3152 C3153 1.516 . S
C3153 C3152 1.516 . S
C3153 C3154 1.502 . S
C3153 C3155 1.561 . S
C3153 C3156 1.526 . S
C3154 H3138 0.959 . S
C3154 H3139 0.959 . S
C3154 H3140 0.961 . S
C3154 C3153 1.502 . S
C3155 H3141 0.960 . S
C3155 H3142 0.961 . S
C3155 H3143 0.959 . S
C3155 C3153 1.561 . S
C3156 C3153 1.526 . S
C3156 C3157 1.396 . S
C3156 C3161 1.390 . S
C3157 C3151 1.465 . S
C3157 C3156 1.396 . S
C3157 C3158 1.399 . S
C3158 H3144 0.929 . S
C3158 C3157 1.399 . S
C3158 C3159 1.385 . S
C3159 H3145 0.931 . S
C3159 C3158 1.385 . S
C3159 C3160 1.389 . S
C3160 C3159 1.389 . S
C3160 C3161 1.387 . S
C3161 H3146 0.930 . S
C3161 C3156 1.390 . S
C3161 C3160 1.387 . S
H3162 C3174 0.930 . S
H3163 C3176 0.930 . S
H3164 C3177 0.930 . S
H3165 C3181 0.959 . S
H3166 C3181 0.959 . S
H3167 C3181 0.961 . S
H3168 C3182 0.960 . S
H3169 C3182 0.961 . S
H3170 C3182 0.959 . S
H3171 C3185 0.929 . S
H3172 C3186 0.931 . S
H3173 C3188 0.930 . S
C3174 H3162 0.930 . S
C3174 C3175 1.399 . S
C3174 C3179 1.399 . S
C3175 C3174 1.399 . S
C3175 C3176 1.376 . S
C3176 H3163 0.930 . S
C3176 C3175 1.376 . S
C3176 C3177 1.388 . S
C3177 H3164 0.930 . S
C3177 C3176 1.388 . S
C3177 C3178 1.390 . S
C3178 C3177 1.390 . S
C3178 C3179 1.394 . S
C3178 C3184 1.465 . S
C3179 C3174 1.399 . S
C3179 C3178 1.394 . S
C3179 C3180 1.516 . S
C3180 C3179 1.516 . S
C3180 C3181 1.502 . S
C3180 C3182 1.561 . S
C3180 C3183 1.526 . S
C3181 H3165 0.959 . S
C3181 H3166 0.959 . S
C3181 H3167 0.961 . S
C3181 C3180 1.502 . S
C3182 H3168 0.960 . S
C3182 H3169 0.961 . S
C3182 H3170 0.959 . S
C3182 C3180 1.561 . S
C3183 C3180 1.526 . S
C3183 C3184 1.396 . S
C3183 C3188 1.390 . S
C3184 C3178 1.465 . S
C3184 C3183 1.396 . S
C3184 C3185 1.399 . S
C3185 H3171 0.929 . S
C3185 C3184 1.399 . S
C3185 C3186 1.385 . S
C3186 H3172 0.931 . S
C3186 C3185 1.385 . S
C3186 C3187 1.389 . S
C3187 C3186 1.389 . S
C3187 C3188 1.387 . S
C3188 H3173 0.930 . S
C3188 C3183 1.390 . S
C3188 C3187 1.387 . S
H3189 C3201 0.930 . S
H3190 C3203 0.930 . S
H3191 C3204 0.930 . S
H3192 C3208 0.959 . S
H3193 C3208 0.959 . S
H3194 C3208 0.961 . S
H3195 C3209 0.960 . S
H3196 C3209 0.961 . S
H3197 C3209 0.959 . S
H3198 C3212 0.929 . S
H3199 C3213 0.931 . S
H3200 C3215 0.930 . S
C3201 H3189 0.930 . S
C3201 C3202 1.399 . S
C3201 C3206 1.399 . S
C3202 C3201 1.399 . S
C3202 C3203 1.376 . S
C3203 H3190 0.930 . S
C3203 C3202 1.376 . S
C3203 C3204 1.388 . S
C3204 H3191 0.930 . S
C3204 C3203 1.388 . S
C3204 C3205 1.390 . S
C3205 C3204 1.390 . S
C3205 C3206 1.394 . S
C3205 C3211 1.465 . S
C3206 C3201 1.399 . S
C3206 C3205 1.394 . S
C3206 C3207 1.516 . S
C3207 C3206 1.516 . S
C3207 C3208 1.502 . S
C3207 C3209 1.561 . S
C3207 C3210 1.526 . S
C3208 H3192 0.959 . S
C3208 H3193 0.959 . S
C3208 H3194 0.961 . S
C3208 C3207 1.502 . S
C3209 H3195 0.960 . S
C3209 H3196 0.961 . S
C3209 H3197 0.959 . S
C3209 C3207 1.561 . S
C3210 C3207 1.526 . S
C3210 C3211 1.396 . S
C3210 C3215 1.390 . S
C3211 C3205 1.465 . S
C3211 C3210 1.396 . S
C3211 C3212 1.399 . S
C3212 H3198 0.929 . S
C3212 C3211 1.399 . S
C3212 C3213 1.385 . S
C3213 H3199 0.931 . S
C3213 C3212 1.385 . S
C3213 C3214 1.389 . S
C3214 C3213 1.389 . S
C3214 C3215 1.387 . S
C3215 H3200 0.930 . S
C3215 C3210 1.390 . S
C3215 C3214 1.387 . S
C637 C407 1.392 . S
C649 C4 1.394 . S
C664 C23 1.394 . S
C676 C374 1.392 . S
C691 C30 1.404 . S
C703 C387 1.401 . S
C718 C394 1.398 . S
C730 C49 1.402 . S
C745 C335 1.402 . S
C757 C62 1.399 . S
C772 C69 1.407 . S
C784 C342 1.406 . S
C799 C361 1.396 . S
C811 C82 1.400 . S
C826 C95 1.394 . S
C838 C322 1.392 . S
C853 C114 1.404 . S
C865 C582 1.406 . S
C880 C537 1.393 . S
C892 C121 1.392 . S
C907 C556 1.396 . S
C919 C140 1.400 . S
C934 C147 1.401 . S
C946 C563 1.398 . S
C961 C160 1.392 . S
C973 C615 1.392 . S
C988 C179 1.394 . S
C1000 C589 1.397 . S
C1015 C192 1.406 . S
C1027 C602 1.407 . S
C1042 C524 1.404 . S
C1054 C199 1.406 . S
C1069 C511 1.406 . S
C1081 C212 1.407 . S
C1096 C225 1.406 . S
C1108 C433 1.405 . S
C1123 C446 1.405 . S
C1135 C238 1.407 . S
C1150 C257 1.392 . S
C1162 C459 1.392 . S
C1177 C426 1.405 . S
C1189 C270 1.407 . S
C1204 C491 1.404 . S
C1216 C277 1.401 . S
C1231 C296 1.398 . S
C1243 C498 1.402 . S
C1258 C478 1.396 . S
C1270 C303 1.393 . S
C1285 C127 1.724 . S
C1297 C10 1.725 . S
C1312 C134 1.725 . S
C1324 C17 1.726 . S
C1339 C36 1.725 . S
C1351 C153 1.726 . S
C1366 C108 1.724 . S
C1378 C43 1.726 . S
C1393 C56 1.724 . S
C1405 C205 1.724 . S
C1420 C166 1.725 . S
C1432 C75 1.725 . S
C1447 C173 1.724 . S
C1459 C88 1.726 . S
C1474 C186 1.724 . S
C1486 C101 1.726 . S
C1501 C244 1.724 . S
C1513 C218 1.726 . S
C1528 C290 1.725 . S
C1540 C231 1.724 . S
C1555 C309 1.724 . S
C1567 C251 1.725 . S
C1582 C264 1.725 . S
C1594 C283 1.724 . S
C1609 C439 1.726 . S
C1621 C316 1.725 . S
C1636 C452 1.725 . S
C1648 C329 1.724 . S
C1663 C465 1.725 . S
C1675 C348 1.725 . S
C1690 C355 1.724 . S
C1702 C420 1.726 . S
C1717 C368 1.724 . S
C1729 C517 1.725 . S
C1744 C381 1.724 . S
C1756 C472 1.725 . S
C1771 C485 1.724 . S
C1783 C400 1.725 . S
C1798 C504 1.724 . S
C1810 C413 1.725 . S
C1825 C530 1.725 . S
C1837 C550 1.724 . S
C1852 C608 1.725 . S
C1864 C543 1.724 . S
C1879 C621 1.724 . S
C1891 C569 1.724 . S
C1906 C595 1.725 . S
C1918 C576 1.724 . S
C1933 C3 1.421 . S
C1945 C239 1.404 . S
C1960 C18 1.416 . S
C1972 C250 1.413 . S
C1987 C29 1.419 . S
C1999 C263 1.419 . S
C2014 C226 1.417 . S
C2026 C44 1.420 . S
C2041 C57 1.420 . S
C2053 C289 1.405 . S
C2068 C68 1.414 . S
C2080 C213 1.420 . S
C2095 C304 1.403 . S
C2107 C81 1.423 . S
C2122 C278 1.419 . S
C2134 C94 1.419 . S
C2149 C109 1.419 . S
C2161 C122 1.406 . S
C2176 C120 1.415 . S
C2188 C133 1.425 . S
C2203 C135 1.418 . S
C2215 C148 1.421 . S
C2230 C107 1.403 . S
C2242 C146 1.422 . S
C2257 C200 1.426 . S
C2269 C159 1.414 . S
C2284 C161 1.404 . S
C2296 C174 1.423 . S
C2311 C172 1.408 . S
C2323 C187 1.418 . S
C2338 C198 1.419 . S
C2350 C185 1.406 . S
C2365 C42 1.424 . S
C2377 C211 1.416 . S
C2392 C70 1.414 . S
C2404 C224 1.416 . S
C2419 C83 1.425 . S
C2431 C237 1.413 . S
C2446 C252 1.413 . S
C2458 C96 1.425 . S
C2473 C55 1.405 . S
C2485 C265 1.423 . S
C2500 C16 1.408 . S
C2512 C276 1.418 . S
C2527 C31 1.422 . S
C2539 C291 1.417 . S
C2554 C5 1.425 . S
C2566 C302 1.413 . S
C2581 C549 1.403 . S
C2593 C317 1.422 . S
C2608 C330 1.423 . S
C2620 C564 1.405 . S
C2635 C575 1.424 . S
C2647 C341 1.413 . S
C2662 C538 1.424 . S
C2674 C356 1.413 . S
C2689 C369 1.423 . S
C2701 C603 1.406 . S
C2716 C382 1.414 . S
C2728 C525 1.419 . S
C2743 C616 1.404 . S
C2755 C393 1.423 . S
C2770 C406 1.422 . S
C2782 C590 1.407 . S
C2797 C421 1.418 . S
C2809 C434 1.408 . S
C2824 C432 1.418 . S
C2836 C447 1.420 . S
C2851 C445 1.418 . S
C2863 C460 1.420 . S
C2878 C458 1.419 . S
C2890 C419 1.407 . S
C2905 C512 1.426 . S
C2917 C473 1.414 . S
C2932 C471 1.408 . S
C2944 C486 1.422 . S
C2959 C484 1.424 . S
C2971 C497 1.413 . S
C2986 C510 1.416 . S
C2998 C499 1.423 . S
C3013 C354 1.409 . S
C3025 C523 1.418 . S
C3040 C380 1.410 . S
C3052 C536 1.417 . S
C3067 C395 1.403 . S
C3079 C551 1.423 . S
C3094 C562 1.413 . S
C3106 C408 1.426 . S
C3121 C367 1.425 . S
C3133 C577 1.413 . S
C3148 C328 1.404 . S
C3160 C588 1.421 . S
C3175 C601 1.418 . S
C3187 C343 1.421 . S
C3202 C315 1.425 . S
C3214 C614 1.413 . S
