# Generated by pormake.
# Topology dmp, (4)-cn, num edge types: 1
# Building blocks:
#     Node 0, Type 0, BuildingBlock: NAHDIM_clean_sbu_0, # of connection points: 4
#     Node 1, Type 0, BuildingBlock: NAHDIM_clean_sbu_0, # of connection points: 4
#     Node 2, Type 0, BuildingBlock: NAHDIM_clean_sbu_0, # of connection points: 4
#     Node 3, Type 0, BuildingBlock: NAHDIM_clean_sbu_0, # of connection points: 4
#     Edge 4, Type (0, 0), BuildingBlock: TEMPAE_clean_linker_10, # of connection points: 2
#     Edge 5, Type (0, 0), BuildingBlock: TEMPAE_clean_linker_10, # of connection points: 2
#     Edge 6, Type (0, 0), BuildingBlock: TEMPAE_clean_linker_10, # of connection points: 2
#     Edge 7, Type (0, 0), BuildingBlock: TEMPAE_clean_linker_10, # of connection points: 2
#     Edge 8, Type (0, 0), BuildingBlock: TEMPAE_clean_linker_10, # of connection points: 2
#     Edge 9, Type (0, 0), BuildingBlock: TEMPAE_clean_linker_10, # of connection points: 2
#     Edge 10, Type (0, 0), BuildingBlock: TEMPAE_clean_linker_10, # of connection points: 2
#     Edge 11, Type (0, 0), BuildingBlock: TEMPAE_clean_linker_10, # of connection points: 2
# Relax obj value: 0.248
# Max RMSD: 0.271
# Mean RMSD: 0.271
data_MOF--net-dmp--node1-NAHDIM_clean_sbu_0--edge1-TEMPAE_clean_linker_10
_symmetry_space_group_name_H-M    P1
_symmetry_Int_Tables_number       1
_symmetry_cell_setting            triclinic
loop_
_symmetry_equiv_pos_as_xyz
'x, y, z'
_cell_length_a     37.823997
_cell_length_b     17.45708
_cell_length_c     19.261127
_cell_angle_alpha  90.054322
_cell_angle_beta   90.107152
_cell_angle_gamma 95.440226
loop_
_atom_site_label
_atom_site_type_symbol
_atom_site_fract_x
_atom_site_fract_y
_atom_site_fract_z
_atom_type_partial_charge
C0 C 0.05874 0.31635 0.31383 0.0
O1 O 0.06572 0.33467 0.24881 0.0
O2 O 0.08269 0.14772 0.20293 0.0
Zn3 Zn 0.10649 0.20671 0.28214 0.0
O4 O 0.14273 0.28892 0.24866 0.0
C5 C 0.14913 0.08652 0.30904 0.0
O6 O 0.14239 0.0751 0.24269 0.0
O7 O 0.07216 0.25893 0.34002 0.0
C8 C 0.14723 0.31918 0.18903 0.0
O9 O 0.12595 0.29585 0.13768 0.0
C10 C 0.05219 0.11162 0.21032 0.0
O11 O 0.03551 0.11632 0.26973 0.0
O12 O 0.13404 0.13829 0.34062 0.0
C13 C 0.44632 0.67538 0.28057 0.0
O14 O 0.43468 0.66606 0.21652 0.0
O15 O 0.43013 0.88135 0.20837 0.0
Zn16 Zn 0.40548 0.80381 0.27335 0.0
O17 O 0.36805 0.73762 0.22034 0.0
C18 C 0.38335 0.92522 0.36407 0.0
O19 O 0.40911 0.96988 0.33516 0.0
O20 O 0.43862 0.73379 0.3148 0.0
C21 C 0.33587 0.75311 0.21892 0.0
O22 O 0.32713 0.81546 0.25023 0.0
C23 C 0.41154 0.92595 0.17501 0.0
O24 O 0.37716 0.92175 0.18587 0.0
O25 O 0.37975 0.85415 0.34898 0.0
C26 C 0.94814 0.67168 0.64285 0.0
O27 O 0.96818 0.72567 0.67576 0.0
O28 O 0.92427 0.77786 0.79554 0.0
Zn29 Zn 0.89125 0.71007 0.73561 0.0
O30 O 0.86468 0.6287 0.79289 0.0
C31 C 0.85196 0.84108 0.70632 0.0
O32 O 0.87718 0.87934 0.74279 0.0
O33 O 0.9158 0.65769 0.65995 0.0
C34 C 0.84342 0.64691 0.83977 0.0
O35 O 0.84221 0.71998 0.85514 0.0
C36 C 0.94117 0.75129 0.84567 0.0
O37 O 0.93852 0.67662 0.85629 0.0
O38 O 0.85375 0.77001 0.69449 0.0
C39 C 0.53586 0.26248 0.57393 0.0
O40 O 0.51274 0.21762 0.6097 0.0
O41 O 0.5484 0.17481 0.73913 0.0
Zn42 Zn 0.5871 0.21795 0.67549 0.0
O43 O 0.61878 0.29794 0.72608 0.0
C44 C 0.62367 0.08378 0.6903 0.0
O45 O 0.6056 0.079 0.74856 0.0
O46 O 0.56828 0.26867 0.59201 0.0
C47 C 0.63021 0.29008 0.78753 0.0
O48 O 0.61977 0.22756 0.82265 0.0
C49 C 0.53452 0.21756 0.78274 0.0
O50 O 0.54417 0.29187 0.78288 0.0
O51 O 0.61837 0.13684 0.64752 0.0
C52 C 0.32651 0.91092 0.42973 0.0
C53 C 0.35227 0.95846 0.39371 0.0
C54 C 0.29182 0.93176 0.43701 0.0
C55 C 0.28281 0.00087 0.40639 0.0
C56 C 0.30986 0.05348 0.37826 0.0
C57 C 0.34449 0.03184 0.37285 0.0
C58 C 0.2641 0.87584 0.47043 0.0
C59 C 0.30144 0.12837 0.34585 0.0
C60 C 0.19805 0.00112 0.30309 0.0
C61 C 0.17929 0.05199 0.34157 0.0
C62 C 0.23092 0.98034 0.32605 0.0
C63 C 0.24519 0.01051 0.38959 0.0
C64 C 0.22489 0.05602 0.43185 0.0
C65 C 0.19216 0.07671 0.4071 0.0
C66 C 0.25145 0.93039 0.27977 0.0
C67 C 0.23857 0.08699 0.50099 0.0
H68 H 0.33265 0.85466 0.44726 0.0
H69 H 0.36438 0.06919 0.34562 0.0
H70 H 0.24433 0.90658 0.4992 0.0
H71 H 0.24972 0.84042 0.42957 0.0
H72 H 0.27635 0.83642 0.50664 0.0
H73 H 0.32582 0.16716 0.33509 0.0
H74 H 0.28714 0.1162 0.29608 0.0
H75 H 0.28387 0.15883 0.38014 0.0
H76 H 0.18801 0.98073 0.25297 0.0
H77 H 0.1776 0.11535 0.43764 0.0
H78 H 0.25949 0.8803 0.30921 0.0
H79 H 0.27607 0.96384 0.26136 0.0
H80 H 0.23582 0.90865 0.23374 0.0
H81 H 0.25379 0.04486 0.52843 0.0
H82 H 0.21653 0.10202 0.53494 0.0
H83 H 0.25666 0.13995 0.49248 0.0
C84 C 0.19802 0.4048 0.2359 0.0
C85 C 0.1756 0.38274 0.17982 0.0
C86 C 0.22403 0.46689 0.23061 0.0
C87 C 0.22797 0.50812 0.16747 0.0
C88 C 0.20606 0.48537 0.10995 0.0
C89 C 0.17999 0.42281 0.11683 0.0
C90 C 0.24689 0.48917 0.29327 0.0
C91 C 0.2098 0.52785 0.04177 0.0
C92 C 0.27199 0.70778 0.20034 0.0
C93 C 0.30788 0.69599 0.19175 0.0
C94 C 0.24517 0.64862 0.1868 0.0
C95 C 0.25453 0.57623 0.16377 0.0
C96 C 0.29045 0.56629 0.14898 0.0
C97 C 0.31677 0.62633 0.16336 0.0
C98 C 0.20717 0.66164 0.20311 0.0
C99 C 0.30145 0.49025 0.12357 0.0
H100 H 0.19502 0.37403 0.28471 0.0
H101 H 0.16281 0.40599 0.07325 0.0
H102 H 0.27537 0.48795 0.28006 0.0
H103 H 0.24296 0.5488 0.30942 0.0
H104 H 0.24073 0.4503 0.33816 0.0
H105 H 0.19239 0.49983 0.00073 0.0
H106 H 0.2029 0.58771 0.04884 0.0
H107 H 0.23774 0.53129 0.02373 0.0
H108 H 0.26485 0.7618 0.22139 0.0
H109 H 0.34444 0.61714 0.1556 0.0
H110 H 0.19894 0.6307 0.25163 0.0
H111 H 0.18911 0.63838 0.16113 0.0
H112 H 0.20369 0.72363 0.21038 0.0
H113 H 0.30017 0.44866 0.16724 0.0
H114 H 0.32897 0.49588 0.10287 0.0
H115 H 0.28313 0.46576 0.08247 0.0
C116 C 0.66399 0.98943 0.73396 0.0
C117 C 0.65398 0.03729 0.6804 0.0
C118 C 0.69571 0.95425 0.73026 0.0
C119 C 0.7178 0.96678 0.67133 0.0
C120 C 0.70685 0.01123 0.61526 0.0
C121 C 0.67506 0.0462 0.62053 0.0
C122 C 0.70647 0.90695 0.79107 0.0
C123 C 0.72951 0.02484 0.55119 0.0
C124 C 0.81528 0.95271 0.70836 0.0
C125 C 0.81924 0.87683 0.68828 0.0
C126 C 0.7827 0.98385 0.70027 0.0
C127 C 0.75347 0.93801 0.67121 0.0
C128 C 0.75781 0.86284 0.64737 0.0
C129 C 0.79067 0.83308 0.65623 0.0
C130 C 0.7791 0.06449 0.72606 0.0
C131 C 0.7273 0.81251 0.61567 0.0
H132 H 0.64779 0.98194 0.78026 0.0
H133 H 0.66738 0.0827 0.57869 0.0
H134 H 0.7131 0.84963 0.77315 0.0
H135 H 0.73066 0.93599 0.81585 0.0
H136 H 0.68526 0.89863 0.83093 0.0
H137 H 0.71543 0.05337 0.50922 0.0
H138 H 0.75406 0.06183 0.56459 0.0
H139 H 0.73772 0.96965 0.53114 0.0
H140 H 0.83726 0.98703 0.73278 0.0
H141 H 0.79354 0.77446 0.6402 0.0
H142 H 0.7606 0.06227 0.77082 0.0
H143 H 0.76768 0.09911 0.68488 0.0
H144 H 0.80495 0.09444 0.74273 0.0
H145 H 0.70727 0.79581 0.65625 0.0
H146 H 0.73607 0.75925 0.59238 0.0
H147 H 0.71395 0.84443 0.57503 0.0
C148 C 0.81458 0.51261 0.84025 0.0
C149 C 0.81483 0.58899 0.86297 0.0
C150 C 0.78374 0.46179 0.84481 0.0
C151 C 0.7526 0.48793 0.87342 0.0
C152 C 0.754 0.56178 0.90421 0.0
C153 C 0.78518 0.61178 0.89841 0.0
C154 C 0.78352 0.38306 0.81211 0.0
C155 C 0.72166 0.59073 0.93725 0.0
C156 C 0.67078 0.41004 0.77463 0.0
C157 C 0.65818 0.34682 0.81537 0.0
C158 C 0.70047 0.45872 0.79506 0.0
C159 C 0.71783 0.44439 0.85828 0.0
C160 C 0.70382 0.384 0.9021 0.0
C161 C 0.67419 0.33545 0.87988 0.0
C162 C 0.71444 0.52281 0.74681 0.0
C163 C 0.72109 0.36808 0.9706 0.0
H164 H 0.83766 0.494 0.81414 0.0
H165 H 0.78535 0.67033 0.91729 0.0
H166 H 0.77022 0.33838 0.84654 0.0
H167 H 0.76834 0.38193 0.76268 0.0
H168 H 0.81077 0.36779 0.8007 0.0
H169 H 0.72894 0.64059 0.97201 0.0
H170 H 0.70383 0.60938 0.89603 0.0
H171 H 0.70654 0.54455 0.9675 0.0
H172 H 0.65832 0.41987 0.72511 0.0
H173 H 0.66438 0.28714 0.91203 0.0
H174 H 0.74107 0.5115 0.7274 0.0
H175 H 0.71749 0.57847 0.775 0.0
H176 H 0.69674 0.52869 0.70142 0.0
H177 H 0.74486 0.33694 0.96114 0.0
H178 H 0.70279 0.332 0.00498 0.0
H179 H 0.73002 0.42244 0.99804 0.0
C180 C 0.0015 0.02861 0.15831 0.0
C181 C 0.03676 0.06113 0.1542 0.0
C182 C 0.98692 0.97861 0.10651 0.0
C183 C 0.00824 0.96022 0.04965 0.0
C184 C 0.04382 0.99301 0.04506 0.0
C185 C 0.05761 0.04342 0.09725 0.0
C186 C 0.94872 0.94528 0.1127 0.0
C187 C 0.06739 0.97426 0.9854 0.0
C188 C 0.9785 0.77629 0.95214 0.0
C189 C 0.96075 0.80466 0.89508 0.0
C190 C -0.00518 0.82645 0.00215 0.0
C191 C -0.00683 0.90673 0.99492 0.0
C192 C 0.97608 0.93583 0.93655 0.0
C193 C 0.96015 0.88445 0.88723 0.0
C194 C 0.0131 0.79347 0.06353 0.0
C195 C 0.97379 0.02111 0.92713 0.0
H196 H 0.98523 0.04223 0.20207 0.0
H197 H 0.08496 0.06802 0.09391 0.0
H198 H 0.9335 0.96056 0.06623 0.0
H199 H 0.94738 0.88157 0.11486 0.0
H200 H 0.93559 0.96621 0.15967 0.0
H201 H 0.09448 0.00469 0.98952 0.0
H202 H 0.0697 0.9114 0.98369 0.0
H203 H 0.05543 0.99024 0.93546 0.0
H204 H 0.97917 0.71476 0.95846 0.0
H205 H 0.94653 0.90692 0.84323 0.0
H206 H -0.00078 0.80685 0.11213 0.0
H207 H 0.04081 0.82026 0.06782 0.0
H208 H 0.01358 0.73008 0.05968 0.0
H209 H 0.95856 0.04358 0.97061 0.0
H210 H 0.9607 0.03454 0.8775 0.0
H211 H 0.00074 0.05227 0.92831 0.0
C212 C 0.50446 0.22454 0.89775 0.0
C213 C 0.5115 0.1823 0.83819 0.0
C214 C 0.48631 0.18893 0.95434 0.0
C215 C 0.47474 0.10953 0.95078 0.0
C216 C 0.48032 0.06752 0.88953 0.0
C217 C 0.49876 0.10437 0.83406 0.0
C218 C 0.48087 0.23543 0.01894 0.0
C219 C 0.46796 0.9829 0.88352 0.0
C220 C 0.46488 0.98774 0.1134 0.0
C221 C 0.42791 0.97836 0.12143 0.0
C222 C 0.48054 0.03285 0.0595 0.0
C223 C 0.45865 0.06884 0.01227 0.0
C224 C 0.4214 0.06165 0.0214 0.0
C225 C 0.40645 0.01668 0.07612 0.0
C226 C 0.52045 0.03999 0.05179 0.0
C227 C 0.39725 0.099 0.97186 0.0
H228 H 0.5143 0.28479 0.90131 0.0
H229 H 0.50388 0.07155 0.78794 0.0
H230 H 0.45262 0.22801 0.03511 0.0
H231 H 0.49679 0.21444 0.06219 0.0
H232 H 0.48885 0.29775 0.01134 0.0
H233 H 0.47222 0.95994 0.83069 0.0
H234 H 0.48257 0.94981 0.92138 0.0
H235 H 0.4393 0.97279 0.89625 0.0
H236 H 0.48162 0.9588 0.14859 0.0
H237 H 0.37784 0.00983 0.08208 0.0
H238 H 0.53086 0.10148 0.04862 0.0
H239 H 0.52773 0.01199 0.00278 0.0
H240 H 0.5338 0.01296 0.09562 0.0
H241 H 0.40599 0.16115 0.96627 0.0
H242 H 0.36912 0.09267 0.9892 0.0
H243 H 0.39872 0.07249 0.91969 0.0
C244 C 0.94108 0.56774 0.55342 0.0
C245 C 0.96318 0.62407 0.58883 0.0
C246 C 0.95501 0.51865 0.50518 0.0
C247 C 0.99193 0.52599 0.49208 0.0
C248 C 0.01429 0.58404 0.52612 0.0
C249 C -0.00039 0.63253 0.57413 0.0
C250 C 0.93034 0.45762 0.46961 0.0
C251 C 0.05383 0.59354 0.51319 0.0
C252 C 0.03436 0.3507 0.42893 0.0
C253 C 0.03915 0.36702 0.35811 0.0
C254 C 0.01867 0.40168 0.47292 0.0
C255 C 0.00742 0.47048 0.44535 0.0
C256 C 0.01129 0.48639 0.37362 0.0
C257 C 0.02714 0.43439 0.33079 0.0
C258 C 0.01478 0.38265 0.54919 0.0
C259 C -0.00065 0.559 0.34243 0.0
H260 H 0.91283 0.56105 0.56413 0.0
H261 H 0.01682 0.67602 0.60112 0.0
H262 H 0.93352 0.46183 0.41246 0.0
H263 H 0.93724 0.3997 0.48523 0.0
H264 H 0.90203 0.46236 0.48263 0.0
H265 H 0.06725 0.64383 0.54124 0.0
H266 H 0.06578 0.541 0.53018 0.0
H267 H 0.0592 0.60069 0.45685 0.0
H268 H 0.04352 0.29872 0.45043 0.0
H269 H 0.03072 0.44737 0.27609 0.0
H270 H 0.98655 0.38196 0.56491 0.0
H271 H 0.03014 0.42768 0.58055 0.0
H272 H 0.02422 0.326 0.56208 0.0
H273 H 0.97088 0.56318 0.35399 0.0
H274 H 0.00312 0.56148 0.28526 0.0
H275 H 0.01452 0.61002 0.36605 0.0
C276 C 0.46859 0.54488 0.28076 0.0
C277 C 0.46393 0.61388 0.31554 0.0
C278 C 0.48174 0.48304 0.31576 0.0
C279 C 0.49034 0.49056 0.38711 0.0
C280 C 0.48688 0.56096 0.42182 0.0
C281 C 0.47379 0.6218 0.38557 0.0
C282 C 0.48542 0.40898 0.27703 0.0
C283 C 0.49597 0.57127 0.49789 0.0
C284 C 0.48772 0.31882 0.50753 0.0
C285 C 0.52399 0.31301 0.51871 0.0
C286 C 0.47631 0.37413 0.46198 0.0
C287 C 0.50182 0.42441 0.42672 0.0
C288 C 0.5384 0.41577 0.43464 0.0
C289 C 0.54906 0.36021 0.48065 0.0
C290 C 0.43703 0.38151 0.45453 0.0
C291 C 0.56635 0.46784 0.39738 0.0
H292 H 0.4611 0.53836 0.22658 0.0
H293 H 0.47041 0.675 0.41278 0.0
H294 H 0.51252 0.39084 0.2841 0.0
H295 H 0.46648 0.36255 0.29839 0.0
H296 H 0.48014 0.41436 0.22056 0.0
H297 H 0.49292 0.63053 0.51652 0.0
H298 H 0.47846 0.53017 0.52928 0.0
H299 H 0.52373 0.55847 0.50746 0.0
H300 H 0.46819 0.28231 0.53644 0.0
H301 H 0.57716 0.35555 0.48845 0.0
H302 H 0.42946 0.38255 0.3989 0.0
H303 H 0.43062 0.43667 0.47785 0.0
H304 H 0.42061 0.3337 0.48042 0.0
H305 H 0.55987 0.47124 0.34134 0.0
H306 H 0.59326 0.44797 0.40286 0.0
H307 H 0.56697 0.52694 0.4189 0.0
loop_
_geom_bond_atom_site_label_1
_geom_bond_atom_site_label_2
_geom_bond_distance
_geom_bond_site_symmetry_2
_ccdc_geom_bond_type
C0 O1 1.160 . S
C0 O7 1.185 . S
O1 C0 1.160 . S
O2 Zn3 1.899 . S
O2 C10 1.284 . S
Zn3 O2 1.899 . S
Zn3 O4 2.032 . S
Zn3 O7 2.086 . S
Zn3 O12 1.977 . S
O4 Zn3 2.032 . S
O4 C8 1.278 . S
C5 O6 1.203 . S
C5 O12 1.267 . S
O6 C5 1.203 . S
O7 C0 1.185 . S
O7 Zn3 2.086 . S
C8 O4 1.278 . S
C8 O9 1.211 . S
O9 C8 1.211 . S
C10 O2 1.284 . S
C10 O11 1.273 . S
O11 C10 1.273 . S
O12 Zn3 1.977 . S
O12 C5 1.267 . S
C13 O14 1.160 . S
C13 O20 1.185 . S
O14 C13 1.160 . S
O15 Zn16 1.899 . S
O15 C23 1.284 . S
Zn16 O15 1.899 . S
Zn16 O17 2.032 . S
Zn16 O20 2.086 . S
Zn16 O25 1.977 . S
O17 Zn16 2.032 . S
O17 C21 1.278 . S
C18 O19 1.203 . S
C18 O25 1.267 . S
O19 C18 1.203 . S
O20 C13 1.185 . S
O20 Zn16 2.086 . S
C21 O17 1.278 . S
C21 O22 1.211 . S
O22 C21 1.211 . S
C23 O15 1.284 . S
C23 O24 1.273 . S
O24 C23 1.273 . S
O25 Zn16 1.977 . S
O25 C18 1.267 . S
C26 O27 1.160 . S
C26 O33 1.185 . S
O27 C26 1.160 . S
O28 Zn29 1.899 . S
O28 C36 1.284 . S
Zn29 O28 1.899 . S
Zn29 O30 2.032 . S
Zn29 O33 2.086 . S
Zn29 O38 1.977 . S
O30 Zn29 2.032 . S
O30 C34 1.278 . S
C31 O32 1.203 . S
C31 O38 1.267 . S
O32 C31 1.203 . S
O33 C26 1.185 . S
O33 Zn29 2.086 . S
C34 O30 1.278 . S
C34 O35 1.211 . S
O35 C34 1.211 . S
C36 O28 1.284 . S
C36 O37 1.273 . S
O37 C36 1.273 . S
O38 Zn29 1.977 . S
O38 C31 1.267 . S
C39 O40 1.160 . S
C39 O46 1.185 . S
O40 C39 1.160 . S
O41 Zn42 1.899 . S
O41 C49 1.284 . S
Zn42 O41 1.899 . S
Zn42 O43 2.032 . S
Zn42 O46 2.086 . S
Zn42 O51 1.977 . S
O43 Zn42 2.032 . S
O43 C47 1.278 . S
C44 O45 1.203 . S
C44 O51 1.267 . S
O45 C44 1.203 . S
O46 C39 1.185 . S
O46 Zn42 2.086 . S
C47 O43 1.278 . S
C47 O48 1.211 . S
O48 C47 1.211 . S
C49 O41 1.284 . S
C49 O50 1.273 . S
O50 C49 1.273 . S
O51 Zn42 1.977 . S
O51 C44 1.267 . S
C52 C53 1.391 . S
C52 C54 1.394 . S
C52 H68 0.931 . S
C53 C52 1.391 . S
C53 C57 1.376 . S
C54 C52 1.394 . S
C54 C55 1.369 . S
C54 C58 1.531 . S
C55 C54 1.369 . S
C55 C56 1.410 1_565 S
C55 C63 1.503 1_565 S
C56 C55 1.410 1_545 S
C56 C57 1.392 1_545 S
C56 C59 1.511 . S
C57 C53 1.376 . S
C57 C56 1.392 1_565 S
C57 H69 0.929 1_565 S
C58 C54 1.531 . S
C58 H70 0.960 . S
C58 H71 0.962 . S
C58 H72 0.960 . S
C59 C56 1.511 . S
C59 H73 0.961 . S
C59 H74 0.961 . S
C59 H75 0.961 . S
C60 C61 1.370 . S
C60 C62 1.363 . S
C60 H76 0.931 . S
C61 C60 1.370 . S
C61 C65 1.408 . S
C62 C60 1.363 . S
C62 C63 1.370 . S
C62 C66 1.524 . S
C63 C55 1.503 1_545 S
C63 C62 1.370 . S
C63 C64 1.403 . S
C64 C63 1.403 . S
C64 C65 1.404 . S
C64 C67 1.539 . S
C65 C61 1.408 . S
C65 C64 1.404 . S
C65 H77 0.930 . S
C66 C62 1.524 . S
C66 H78 0.956 1_545 S
C66 H79 0.961 . S
C66 H80 0.961 . S
C67 C64 1.539 . S
C67 H81 0.958 1_545 S
C67 H82 0.961 . S
C67 H83 0.960 . S
H68 C52 0.931 . S
H69 C57 0.929 1_545 S
H70 C58 0.960 . S
H71 C58 0.962 . S
H72 C58 0.960 . S
H73 C59 0.961 . S
H74 C59 0.961 . S
H75 C59 0.961 . S
H76 C60 0.931 . S
H77 C65 0.930 . S
H78 C66 0.956 1_565 S
H79 C66 0.961 . S
H80 C66 0.961 . S
H81 C67 0.958 1_565 S
H82 C67 0.961 . S
H83 C67 0.960 . S
C84 C85 1.391 . S
C84 C86 1.394 . S
C84 H100 0.931 . S
C85 C84 1.391 . S
C85 C89 1.376 . S
C86 C84 1.394 . S
C86 C87 1.369 . S
C86 C90 1.531 . S
C87 C86 1.369 . S
C87 C88 1.410 . S
C87 C95 1.503 . S
C88 C87 1.410 . S
C88 C89 1.392 . S
C88 C91 1.511 . S
C89 C85 1.376 . S
C89 C88 1.392 . S
C89 H101 0.929 . S
C90 C86 1.531 . S
C90 H102 0.960 . S
C90 H103 0.962 . S
C90 H104 0.960 . S
C91 C88 1.511 . S
C91 H105 0.961 . S
C91 H106 0.961 . S
C91 H107 0.961 . S
C92 C93 1.370 . S
C92 C94 1.363 . S
C92 H108 0.931 . S
C93 C92 1.370 . S
C93 C97 1.408 . S
C94 C92 1.363 . S
C94 C95 1.370 . S
C94 C98 1.524 . S
C95 C87 1.503 . S
C95 C94 1.370 . S
C95 C96 1.403 . S
C96 C95 1.403 . S
C96 C97 1.404 . S
C96 C99 1.539 . S
C97 C93 1.408 . S
C97 C96 1.404 . S
C97 H109 0.930 . S
C98 C94 1.524 . S
C98 H110 0.956 . S
C98 H111 0.961 . S
C98 H112 0.961 . S
C99 C96 1.539 . S
C99 H113 0.958 . S
C99 H114 0.961 . S
C99 H115 0.960 . S
H100 C84 0.931 . S
H101 C89 0.929 . S
H102 C90 0.960 . S
H103 C90 0.962 . S
H104 C90 0.960 . S
H105 C91 0.961 . S
H106 C91 0.961 . S
H107 C91 0.961 . S
H108 C92 0.931 . S
H109 C97 0.930 . S
H110 C98 0.956 . S
H111 C98 0.961 . S
H112 C98 0.961 . S
H113 C99 0.958 . S
H114 C99 0.961 . S
H115 C99 0.960 . S
C116 C117 1.391 . S
C116 C118 1.394 . S
C116 H132 0.931 . S
C117 C116 1.391 . S
C117 C121 1.376 . S
C118 C116 1.394 . S
C118 C119 1.369 . S
C118 C122 1.531 . S
C119 C118 1.369 . S
C119 C120 1.410 1_545 S
C119 C127 1.503 1_545 S
C120 C119 1.410 1_565 S
C120 C121 1.392 1_565 S
C120 C123 1.511 . S
C121 C117 1.376 . S
C121 C120 1.392 1_545 S
C121 H133 0.929 . S
C122 C118 1.531 . S
C122 H134 0.960 . S
C122 H135 0.962 . S
C122 H136 0.960 . S
C123 C120 1.511 . S
C123 H137 0.961 . S
C123 H138 0.961 . S
C123 H139 0.961 . S
C124 C125 1.370 . S
C124 C126 1.363 1_565 S
C124 H140 0.931 1_565 S
C125 C124 1.370 . S
C125 C129 1.408 . S
C126 C124 1.363 1_545 S
C126 C127 1.370 1_545 S
C126 C130 1.524 . S
C127 C119 1.503 1_565 S
C127 C126 1.370 1_565 S
C127 C128 1.403 . S
C128 C127 1.403 . S
C128 C129 1.404 . S
C128 C131 1.539 . S
C129 C125 1.408 . S
C129 C128 1.404 . S
C129 H141 0.930 . S
C130 C126 1.524 . S
C130 H142 0.956 . S
C130 H143 0.961 . S
C130 H144 0.961 . S
C131 C128 1.539 . S
C131 H145 0.958 . S
C131 H146 0.961 . S
C131 H147 0.960 . S
H132 C116 0.931 . S
H133 C121 0.929 . S
H134 C122 0.960 . S
H135 C122 0.962 . S
H136 C122 0.960 . S
H137 C123 0.961 . S
H138 C123 0.961 . S
H139 C123 0.961 . S
H140 C124 0.931 1_545 S
H141 C129 0.930 . S
H142 C130 0.956 . S
H143 C130 0.961 . S
H144 C130 0.961 . S
H145 C131 0.958 . S
H146 C131 0.961 . S
H147 C131 0.960 . S
C148 C149 1.391 . S
C148 C150 1.394 . S
C148 H164 0.931 . S
C149 C148 1.391 . S
C149 C153 1.376 . S
C150 C148 1.394 . S
C150 C151 1.369 . S
C150 C154 1.531 . S
C151 C150 1.369 . S
C151 C152 1.410 . S
C151 C159 1.503 . S
C152 C151 1.410 . S
C152 C153 1.392 . S
C152 C155 1.511 . S
C153 C149 1.376 . S
C153 C152 1.392 . S
C153 H165 0.929 . S
C154 C150 1.531 . S
C154 H166 0.960 . S
C154 H167 0.962 . S
C154 H168 0.960 . S
C155 C152 1.511 . S
C155 H169 0.961 . S
C155 H170 0.961 . S
C155 H171 0.961 . S
C156 C157 1.370 . S
C156 C158 1.363 . S
C156 H172 0.931 . S
C157 C156 1.370 . S
C157 C161 1.408 . S
C158 C156 1.363 . S
C158 C159 1.370 . S
C158 C162 1.524 . S
C159 C151 1.503 . S
C159 C158 1.370 . S
C159 C160 1.403 . S
C160 C159 1.403 . S
C160 C161 1.404 . S
C160 C163 1.539 . S
C161 C157 1.408 . S
C161 C160 1.404 . S
C161 H173 0.930 . S
C162 C158 1.524 . S
C162 H174 0.956 . S
C162 H175 0.961 . S
C162 H176 0.961 . S
C163 C160 1.539 . S
C163 H177 0.958 . S
C163 H178 0.961 . S
C163 H179 0.960 . S
H164 C148 0.931 . S
H165 C153 0.929 . S
H166 C154 0.960 . S
H167 C154 0.962 . S
H168 C154 0.960 . S
H169 C155 0.961 . S
H170 C155 0.961 . S
H171 C155 0.961 . S
H172 C156 0.931 . S
H173 C161 0.930 . S
H174 C162 0.956 . S
H175 C162 0.961 . S
H176 C162 0.961 . S
H177 C163 0.958 . S
H178 C163 0.961 . S
H179 C163 0.960 . S
C180 C181 1.391 . S
C180 C182 1.382 1_455 S
C180 H196 0.931 . S
C181 C180 1.391 . S
C181 C185 1.376 . S
C182 C180 1.382 1_655 S
C182 C183 1.357 1_655 S
C182 C186 1.555 . S
C183 C182 1.357 1_455 S
C183 C184 1.410 . S
C183 C191 1.503 1_444 S
C184 C183 1.410 . S
C184 C185 1.392 . S
C184 C187 1.511 1_545 S
C185 C181 1.376 . S
C185 C184 1.392 . S
C185 H197 0.929 . S
C186 C182 1.555 . S
C186 H198 0.960 1_554 S
C186 H199 0.962 . S
C186 H200 0.960 . S
C187 C184 1.511 1_565 S
C187 H201 0.961 . S
C187 H202 0.961 1_554 S
C187 H203 0.961 1_554 S
C188 C189 1.370 . S
C188 C190 1.363 1_556 S
C188 H204 0.931 . S
C189 C188 1.370 . S
C189 C193 1.408 . S
C190 C188 1.363 1_554 S
C190 C191 1.370 1_554 S
C190 C194 1.524 . S
C191 C183 1.503 1_666 S
C191 C190 1.370 1_556 S
C191 C192 1.403 . S
C192 C191 1.403 . S
C192 C193 1.404 . S
C192 C195 1.539 1_665 S
C193 C189 1.408 . S
C193 C192 1.404 . S
C193 H205 0.930 . S
C194 C190 1.524 . S
C194 H206 0.956 . S
C194 H207 0.961 . S
C194 H208 0.961 . S
C195 C192 1.539 1_445 S
C195 H209 0.956 . S
C195 H210 0.961 . S
C195 H211 0.960 . S
H196 C180 0.931 . S
H197 C185 0.929 . S
H198 C186 0.960 1_556 S
H199 C186 0.962 . S
H200 C186 0.960 . S
H201 C187 0.961 . S
H202 C187 0.961 1_556 S
H203 C187 0.961 1_556 S
H204 C188 0.931 . S
H205 C193 0.930 . S
H206 C194 0.956 . S
H207 C194 0.961 . S
H208 C194 0.961 . S
H209 C195 0.956 . S
H210 C195 0.961 . S
H211 C195 0.960 . S
C212 C213 1.391 . S
C212 C214 1.394 . S
C212 H228 0.931 . S
C213 C212 1.391 . S
C213 C217 1.376 . S
C214 C212 1.394 . S
C214 C215 1.369 . S
C214 C218 1.531 1_556 S
C215 C214 1.369 . S
C215 C216 1.410 . S
C215 C223 1.503 1_546 S
C216 C215 1.410 . S
C216 C217 1.392 . S
C216 C219 1.511 1_545 S
C217 C213 1.376 . S
C217 C216 1.392 . S
C217 H229 0.929 . S
C218 C214 1.531 1_554 S
C218 H230 0.960 . S
C218 H231 0.962 . S
C218 H232 0.965 . S
C219 C216 1.511 1_565 S
C219 H233 0.961 . S
C219 H234 0.961 . S
C219 H235 0.961 . S
C220 C221 1.370 . S
C220 C222 1.363 . S
C220 H236 0.931 . S
C221 C220 1.370 . S
C221 C225 1.408 . S
C222 C220 1.363 . S
C222 C223 1.370 . S
C222 C226 1.524 . S
C223 C215 1.503 1_564 S
C223 C222 1.370 . S
C223 C224 1.403 1_554 S
C224 C223 1.403 1_556 S
C224 C225 1.404 1_556 S
C224 C227 1.539 . S
C225 C221 1.408 . S
C225 C224 1.404 1_554 S
C225 H237 0.930 . S
C226 C222 1.524 . S
C226 H238 0.956 1_565 S
C226 H239 0.961 . S
C226 H240 0.961 . S
C227 C224 1.539 . S
C227 H241 0.958 . S
C227 H242 0.961 . S
C227 H243 0.960 . S
H228 C212 0.931 . S
H229 C217 0.929 . S
H230 C218 0.960 . S
H231 C218 0.962 . S
H232 C218 0.965 . S
H233 C219 0.961 . S
H234 C219 0.961 . S
H235 C219 0.961 . S
H236 C220 0.931 . S
H237 C225 0.930 . S
H238 C226 0.956 1_545 S
H239 C226 0.961 . S
H240 C226 0.961 . S
H241 C227 0.958 . S
H242 C227 0.961 . S
H243 C227 0.960 . S
C244 C245 1.391 . S
C244 C246 1.394 . S
C244 H260 0.931 . S
C245 C244 1.391 . S
C245 C249 1.376 . S
C246 C244 1.394 . S
C246 C247 1.369 . S
C246 C250 1.531 . S
C247 C246 1.369 . S
C247 C248 1.410 1_655 S
C247 C255 1.503 1_655 S
C248 C247 1.410 1_455 S
C248 C249 1.392 1_455 S
C248 C251 1.511 . S
C249 C245 1.376 . S
C249 C248 1.392 1_655 S
C249 H261 0.929 1_655 S
C250 C246 1.531 . S
C250 H262 0.960 . S
C250 H263 0.962 . S
C250 H264 0.960 . S
C251 C248 1.511 . S
C251 H265 0.961 . S
C251 H266 0.961 . S
C251 H267 0.961 . S
C252 C253 1.370 . S
C252 C254 1.363 . S
C252 H268 0.931 . S
C253 C252 1.370 . S
C253 C257 1.408 . S
C254 C252 1.363 . S
C254 C255 1.370 . S
C254 C258 1.524 . S
C255 C247 1.503 1_455 S
C255 C254 1.370 . S
C255 C256 1.403 . S
C256 C255 1.403 . S
C256 C257 1.404 . S
C256 C259 1.539 . S
C257 C253 1.408 . S
C257 C256 1.404 . S
C257 H269 0.930 . S
C258 C254 1.524 . S
C258 H270 0.956 1_455 S
C258 H271 0.961 . S
C258 H272 0.961 . S
C259 C256 1.539 . S
C259 H273 0.958 1_455 S
C259 H274 0.961 . S
C259 H275 0.960 . S
H260 C244 0.931 . S
H261 C249 0.929 1_455 S
H262 C250 0.960 . S
H263 C250 0.962 . S
H264 C250 0.960 . S
H265 C251 0.961 . S
H266 C251 0.961 . S
H267 C251 0.961 . S
H268 C252 0.931 . S
H269 C257 0.930 . S
H270 C258 0.956 1_655 S
H271 C258 0.961 . S
H272 C258 0.961 . S
H273 C259 0.958 1_655 S
H274 C259 0.961 . S
H275 C259 0.960 . S
C276 C277 1.391 . S
C276 C278 1.394 . S
C276 H292 0.931 . S
C277 C276 1.391 . S
C277 C281 1.376 . S
C278 C276 1.394 . S
C278 C279 1.369 . S
C278 C282 1.531 . S
C279 C278 1.369 . S
C279 C280 1.410 . S
C279 C287 1.503 . S
C280 C279 1.410 . S
C280 C281 1.392 . S
C280 C283 1.511 . S
C281 C277 1.376 . S
C281 C280 1.392 . S
C281 H293 0.929 . S
C282 C278 1.531 . S
C282 H294 0.960 . S
C282 H295 0.962 . S
C282 H296 0.960 . S
C283 C280 1.511 . S
C283 H297 0.961 . S
C283 H298 0.961 . S
C283 H299 0.961 . S
C284 C285 1.370 . S
C284 C286 1.363 . S
C284 H300 0.931 . S
C285 C284 1.370 . S
C285 C289 1.408 . S
C286 C284 1.363 . S
C286 C287 1.370 . S
C286 C290 1.524 . S
C287 C279 1.503 . S
C287 C286 1.370 . S
C287 C288 1.403 . S
C288 C287 1.403 . S
C288 C289 1.404 . S
C288 C291 1.539 . S
C289 C285 1.408 . S
C289 C288 1.404 . S
C289 H301 0.930 . S
C290 C286 1.524 . S
C290 H302 0.956 . S
C290 H303 0.961 . S
C290 H304 0.961 . S
C291 C288 1.539 . S
C291 H305 0.958 . S
C291 H306 0.961 . S
C291 H307 0.960 . S
H292 C276 0.931 . S
H293 C281 0.929 . S
H294 C282 0.960 . S
H295 C282 0.962 . S
H296 C282 0.960 . S
H297 C283 0.961 . S
H298 C283 0.961 . S
H299 C283 0.961 . S
H300 C284 0.931 . S
H301 C289 0.930 . S
H302 C290 0.956 . S
H303 C290 0.961 . S
H304 C290 0.961 . S
H305 C291 0.958 . S
H306 C291 0.961 . S
H307 C291 0.960 . S
C53 C18 0.928 . S
C61 C5 0.890 . S
C85 C8 0.598 . S
C93 C21 0.727 . S
C117 C44 0.873 . S
C125 C31 0.852 . S
C149 C34 0.778 . S
C157 C47 0.685 . S
C181 C10 1.578 . S
C189 C36 1.577 . S
C213 C49 1.575 . S
C221 C23 1.578 . S
C245 C26 1.568 . S
C253 C0 1.533 . S
C277 C13 1.511 . S
C285 C39 1.555 . S
