# Generated by pormake.
# Topology afw, (4)-cn, num edge types: 1
# Building blocks:
#     Node 0, Type 0, BuildingBlock: ICAMEG_clean_sbu_1, # of connection points: 4
#     Node 1, Type 0, BuildingBlock: ICAMEG_clean_sbu_1, # of connection points: 4
#     Node 2, Type 0, BuildingBlock: ICAMEG_clean_sbu_1, # of connection points: 4
#     Node 3, Type 0, BuildingBlock: ICAMEG_clean_sbu_1, # of connection points: 4
#     Node 4, Type 0, BuildingBlock: ICAMEG_clean_sbu_1, # of connection points: 4
#     Node 5, Type 0, BuildingBlock: ICAMEG_clean_sbu_1, # of connection points: 4
#     Node 6, Type 0, BuildingBlock: ICAMEG_clean_sbu_1, # of connection points: 4
#     Node 7, Type 0, BuildingBlock: ICAMEG_clean_sbu_1, # of connection points: 4
#     Node 8, Type 0, BuildingBlock: ICAMEG_clean_sbu_1, # of connection points: 4
#     Edge 9, Type (0, 0), None
#     Edge 10, Type (0, 0), None
#     Edge 11, Type (0, 0), None
#     Edge 12, Type (0, 0), None
#     Edge 13, Type (0, 0), None
#     Edge 14, Type (0, 0), None
#     Edge 15, Type (0, 0), None
#     Edge 16, Type (0, 0), None
#     Edge 17, Type (0, 0), None
#     Edge 18, Type (0, 0), None
#     Edge 19, Type (0, 0), None
#     Edge 20, Type (0, 0), None
#     Edge 21, Type (0, 0), None
#     Edge 22, Type (0, 0), None
#     Edge 23, Type (0, 0), None
#     Edge 24, Type (0, 0), None
#     Edge 25, Type (0, 0), None
#     Edge 26, Type (0, 0), None
# Relax obj value: 0.090
# Max RMSD: 0.148
# Mean RMSD: 0.148
data_MOF--net-afw--node1-ICAMEG_clean_sbu_1--edge1-none
_symmetry_space_group_name_H-M    P1
_symmetry_Int_Tables_number       1
_symmetry_cell_setting            triclinic
loop_
_symmetry_equiv_pos_as_xyz
'x, y, z'
_cell_length_a     21.801603
_cell_length_b     21.867404
_cell_length_c     17.524054
_cell_angle_alpha  90.020932
_cell_angle_beta   90.052039
_cell_angle_gamma 119.91026
loop_
_atom_site_label
_atom_site_type_symbol
_atom_site_fract_x
_atom_site_fract_y
_atom_site_fract_z
_atom_type_partial_charge
Co0 Co 0.99626 0.17674 0.1118 0.0
Co1 Co 0.99403 0.17908 0.91589 0.0
O2 O 0.99466 0.21809 0.01527 0.0
C3 C 0.86674 0.19037 0.1366 0.0
O4 O 0.83306 0.14164 0.08466 0.0
C5 C 0.12338 0.31835 0.87445 0.0
O6 O 0.16433 0.29701 0.90523 0.0
O7 O 0.07853 0.16748 0.94489 0.0
O8 O 0.06411 0.14856 0.07193 0.0
H9 H 0.88364 0.06586 0.66302 0.0
H10 H 0.0296 0.32564 0.09955 0.0
O11 O 0.93008 0.20805 0.1551 0.0
H12 H 0.23975 0.33632 0.21884 0.0
H13 H 0.01423 0.16678 0.39809 0.0
H14 H 0.99371 0.04667 0.15486 0.0
H15 H 0.13562 0.22175 0.18648 0.0
H16 H 0.00314 0.21942 0.27632 0.0
O17 O 0.05606 0.2795 0.87688 0.0
H18 H 0.8827 0.07712 0.80144 0.0
H19 H 0.10645 0.2037 0.80448 0.0
H20 H 0.00293 0.99488 0.27322 0.0
H21 H 0.13401 0.44088 0.12683 0.0
H22 H 0.00997 0.05319 0.39755 0.0
H23 H 0.23949 0.44729 0.18892 0.0
O24 O 0.91618 0.08155 0.07819 0.0
H25 H 0.85388 0.30243 0.8613 0.0
H26 H 0.83334 0.0745 0.91601 0.0
H27 H 0.72805 0.0829 0.90444 0.0
H28 H 0.73689 0.19804 0.87629 0.0
H29 H 0.96113 0.29607 0.87657 0.0
H30 H 0.1099 0.19224 0.66584 0.0
H31 H 0.99807 0.1235 0.59345 0.0
O32 O 0.93632 0.0796 0.95212 0.0
C33 C 0.09423 0.14969 0.00941 0.0
C34 C 0.93274 0.09753 0.6936 0.0
C35 C 0.05962 0.16791 0.69519 0.0
N36 N 0.9941 0.14591 0.81217 0.0
C37 C 0.93256 0.10502 0.77284 0.0
C38 C 0.05724 0.17452 0.77424 0.0
C39 C 0.99683 0.12963 0.65459 0.0
C40 C 0.07532 0.32762 0.12615 0.0
N41 N 0.07604 0.26687 0.14211 0.0
C42 C 0.13424 0.39322 0.14198 0.0
C43 C 0.1936 0.39664 0.17612 0.0
C44 C 0.19379 0.33445 0.19283 0.0
C45 C 0.1345 0.2697 0.17461 0.0
C46 C 0.00763 0.14035 0.34473 0.0
C47 C 0.9973 0.07351 0.20786 0.0
C48 C 0.00187 0.16935 0.27589 0.0
N49 N 0.99742 0.13581 0.20856 0.0
C50 C 0.00269 0.0437 0.27527 0.0
C51 C 0.00669 0.07656 0.3444 0.0
C52 C 0.90681 0.04872 0.01448 0.0
C53 C 0.85031 0.2529 0.87279 0.0
C54 C 0.84108 0.126 0.90461 0.0
C55 C 0.77931 0.12969 0.89734 0.0
C56 C 0.78411 0.19383 0.8814 0.0
N57 N 0.90726 0.18436 0.89502 0.0
C58 C 0.91139 0.24785 0.88042 0.0
Co59 Co 0.84593 0.84892 0.91156 0.0
Co60 Co 0.84015 0.84064 0.10779 0.0
O61 O 0.80433 0.80228 0.00726 0.0
C62 C 0.72365 0.84592 0.83289 0.0
O63 O 0.76528 0.91353 0.81978 0.0
C64 C 0.83408 0.70037 0.13262 0.0
O65 O 0.88991 0.71938 0.0895 0.0
O66 O 0.93943 0.86289 0.07766 0.0
O67 O 0.94338 0.8861 0.95166 0.0
H68 H 0.83805 0.95669 0.35375 0.0
H69 H 0.74434 0.69274 0.91918 0.0
O70 O 0.74668 0.81119 0.87028 0.0
H71 H 0.96214 0.72062 0.80045 0.0
H72 H 0.87275 0.85767 0.62571 0.0
H73 H 0.96548 0.98688 0.86699 0.0
H74 H 0.95304 0.82431 0.83597 0.0
H75 H 0.81306 0.80453 0.74813 0.0
O76 O 0.80962 0.74176 0.14326 0.0
H77 H 0.8214 0.93622 0.21497 0.0
H78 H 0.92781 0.81817 0.22096 0.0
H79 H 0.02426 0.03967 0.74712 0.0
H80 H 0.75438 0.58719 0.88798 0.0
H81 H 0.97621 0.97725 0.62416 0.0
H82 H 0.86182 0.60079 0.82684 0.0
O83 O 0.85065 0.93864 0.94859 0.0
H84 H 0.62603 0.75456 0.27766 0.0
H85 H 0.73679 0.87561 0.03721 0.0
H86 H 0.62832 0.87186 0.0804 0.0
H87 H 0.57005 0.80868 0.20014 0.0
H88 H 0.73845 0.76496 0.23572 0.0
H89 H 0.94888 0.84036 0.35895 0.0
H90 H 0.90354 0.91007 0.42645 0.0
O91 O 0.8698 0.93967 0.07547 0.0
C92 C 0.97323 0.88628 0.01408 0.0
C93 C 0.85809 0.9264 0.32506 0.0
C94 C 0.92066 0.86145 0.32795 0.0
N95 N 0.87266 0.87501 0.21022 0.0
C96 C 0.84953 0.91526 0.24635 0.0
C97 C 0.90914 0.84951 0.24963 0.0
C98 C 0.89478 0.90005 0.36582 0.0
C99 C 0.79187 0.69904 0.89255 0.0
N100 N 0.84747 0.7648 0.87833 0.0
C101 C 0.7968 0.63921 0.87491 0.0
C102 C 0.85787 0.64679 0.84099 0.0
C103 C 0.91405 0.71388 0.82622 0.0
C104 C 0.90824 0.77247 0.84622 0.0
C105 C 0.89137 0.88663 0.67834 0.0
C106 C 0.94367 0.95858 0.8143 0.0
C107 C 0.85852 0.85715 0.74772 0.0
N108 N 0.88528 0.89319 0.81463 0.0
C109 C 0.97727 0.98904 0.74616 0.0
C110 C 0.95044 0.95357 0.67757 0.0
C111 C 0.8699 0.97049 0.01343 0.0
C112 C 0.65005 0.78122 0.22471 0.0
C113 C 0.71356 0.8498 0.09033 0.0
C114 C 0.65087 0.84645 0.11385 0.0
C115 C 0.61877 0.8117 0.18137 0.0
N116 N 0.74568 0.82253 0.13461 0.0
C117 C 0.71347 0.7866 0.20004 0.0
Co118 Co 0.17975 0.02618 0.1109 0.0
Co119 Co 0.17985 0.02459 0.91548 0.0
O120 O 0.21961 0.0276 0.01339 0.0
C121 C 0.32167 0.15973 0.13553 0.0
O122 O 0.30435 0.19496 0.08792 0.0
C123 C 0.19489 0.89536 0.89998 0.0
O124 O 0.14439 0.863 0.95044 0.0
O125 O 0.08438 0.94336 0.94848 0.0
O126 O 0.08135 0.95889 0.07606 0.0
H127 H 0.17135 0.12529 0.65958 0.0
H128 H 0.30878 0.01153 0.12312 0.0
O129 O 0.2784 0.095 0.14968 0.0
H130 H 0.11112 0.76825 0.14235 0.0
H131 H 0.07392 0.9245 0.36934 0.0
H132 H 0.20019 0.13973 0.214 0.0
H133 H 0.0874 0.86474 0.12958 0.0
H134 H 0.08384 0.91639 0.23196 0.0
O135 O 0.21443 0.95861 0.88014 0.0
H136 H 0.18741 0.13155 0.79806 0.0
H137 H 0.093 0.90872 0.81036 0.0
H138 H 0.1846 0.14994 0.35149 0.0
H139 H 0.33244 0.91576 0.13005 0.0
H140 H 0.12137 0.04121 0.43031 0.0
H141 H 0.2349 0.79219 0.14331 0.0
O142 O 0.15865 0.1033 0.077 0.0
H143 H 0.4423 0.15047 0.85958 0.0
H144 H 0.24113 0.18529 0.9095 0.0
H145 H 0.35746 0.28686 0.89519 0.0
H146 H 0.46058 0.27126 0.87035 0.0
H147 H 0.32658 0.04895 0.87408 0.0
H148 H 0.0683 0.89956 0.67276 0.0
H149 H 0.11043 0.00911 0.59551 0.0
O150 O 0.14126 0.0861 0.94913 0.0
C151 C 0.05171 0.92882 0.01336 0.0
C152 C 0.15381 0.07752 0.69237 0.0
C153 C 0.09642 0.95093 0.69953 0.0
N154 N 0.14446 0.0208 0.81273 0.0
C155 C 0.16377 0.08072 0.77132 0.0
C156 C 0.10933 0.95637 0.77792 0.0
C157 C 0.11996 0.01216 0.65635 0.0
C158 C 0.26438 0.95963 0.13254 0.0
N159 N 0.1963 0.94729 0.13449 0.0
C160 C 0.27883 0.90446 0.13543 0.0
C161 C 0.22394 0.83531 0.14122 0.0
C162 C 0.15474 0.82201 0.14085 0.0
C163 C 0.14189 0.87836 0.13508 0.0
C164 C 0.10164 0.97194 0.33546 0.0
C165 C 0.17152 0.09217 0.2473 0.0
C166 C 0.10902 0.96778 0.25679 0.0
N167 N 0.14605 0.02745 0.21376 0.0
C168 C 0.16373 0.09841 0.32553 0.0
C169 C 0.12877 0.03766 0.36979 0.0
C170 C 0.13767 0.11434 0.01162 0.0
C171 C 0.39789 0.15807 0.86907 0.0
C172 C 0.28348 0.17505 0.89783 0.0
C173 C 0.35043 0.23443 0.88955 0.0
C174 C 0.40812 0.22577 0.87539 0.0
N175 N 0.27269 0.10767 0.89026 0.0
C176 C 0.33027 0.09973 0.87663 0.0
Co177 Co 0.67162 0.51565 0.25046 0.0
Co178 Co 0.67602 0.52504 0.44956 0.0
O179 O 0.66866 0.55783 0.34649 0.0
C180 C 0.7972 0.62982 0.16846 0.0
O181 O 0.81989 0.58511 0.15702 0.0
C182 C 0.54705 0.50973 0.52526 0.0
O183 O 0.53137 0.44538 0.5439 0.0
O184 O 0.60045 0.42325 0.42427 0.0
O185 O 0.59839 0.42117 0.29529 0.0
H186 H 0.76693 0.42714 0.65334 0.0
H187 H 0.63918 0.63226 0.24977 0.0
O188 O 0.74065 0.61137 0.20674 0.0
H189 H 0.43049 0.42836 0.13559 0.0
H190 H 0.66656 0.50157 0.95591 0.0
H191 H 0.67823 0.40754 0.23871 0.0
H192 H 0.53436 0.41936 0.17438 0.0
H193 H 0.66856 0.54401 0.07999 0.0
O194 O 0.60151 0.54824 0.48416 0.0
H195 H 0.71833 0.4264 0.52564 0.0
H196 H 0.66942 0.58188 0.60112 0.0
H197 H 0.67359 0.24697 0.07636 0.0
H198 H 0.53618 0.64362 0.21055 0.0
H199 H 0.67072 0.30871 0.8847 0.0
H200 H 0.43057 0.5408 0.15544 0.0
O201 O 0.75574 0.50631 0.29037 0.0
H202 H 0.78861 0.78785 0.4365 0.0
H203 H 0.82145 0.59039 0.51648 0.0
H204 H 0.9181 0.71207 0.5365 0.0
H205 H 0.90234 0.81211 0.4969 0.0
H206 H 0.69221 0.66603 0.42186 0.0
H207 H 0.70604 0.57422 0.73032 0.0
H208 H 0.75678 0.49713 0.75732 0.0
O209 O 0.74779 0.49886 0.41753 0.0
C210 C 0.57718 0.39057 0.35977 0.0
C211 C 0.74172 0.45789 0.64236 0.0
C212 C 0.70757 0.54045 0.68618 0.0
N213 N 0.68708 0.50141 0.55494 0.0
C214 C 0.71448 0.45839 0.56998 0.0
C215 C 0.68443 0.54265 0.61254 0.0
C216 C 0.73678 0.49798 0.70101 0.0
C217 C 0.59395 0.58788 0.2237 0.0
N218 N 0.59309 0.52554 0.21368 0.0
C219 C 0.53579 0.59452 0.20217 0.0
C220 C 0.47647 0.53678 0.17076 0.0
C221 C 0.47627 0.47359 0.16001 0.0
C222 C 0.53534 0.46887 0.18201 0.0
C223 C 0.67045 0.47009 1.0007 0.0
C224 C 0.67415 0.40967 0.17811 0.0
C225 C 0.67083 0.49572 0.07997 0.0
N226 N 0.67287 0.46968 0.1541 0.0
C227 C 0.67212 0.29643 0.07634 0.0
C228 C 0.67163 0.40627 0.97382 0.0
C229 C 0.77322 0.492 0.35527 0.0
C230 C 0.79653 0.74506 0.45452 0.0
C231 C 0.81354 0.63354 0.49999 0.0
C232 C 0.86879 0.70239 0.51102 0.0
C233 C 0.86002 0.75849 0.48829 0.0
N234 N 0.75059 0.62094 0.46911 0.0
C235 C 0.74166 0.67574 0.44676 0.0
Co236 Co 0.51037 0.18599 0.25177 0.0
Co237 Co 0.50416 0.18096 0.45022 0.0
O238 O 0.46997 0.1415 0.3479 0.0
C239 C 0.39284 0.19399 0.17134 0.0
O240 O 0.43705 0.26123 0.15917 0.0
C241 C 0.51627 0.06546 0.52449 0.0
O242 O 0.58158 0.11266 0.54241 0.0
O243 O 0.60566 0.20525 0.42417 0.0
O244 O 0.60638 0.2086 0.29532 0.0
H245 H 0.60587 0.36648 0.65656 0.0
H246 H 0.39993 0.03551 0.26429 0.0
O247 O 0.41277 0.15687 0.20935 0.0
H248 H 0.60054 0.03629 0.13339 0.0
H249 H 0.51992 0.19527 0.95647 0.0
H250 H 0.61717 0.30011 0.23888 0.0
H251 H 0.60512 0.14793 0.16662 0.0
H252 H 0.47906 0.15432 0.08097 0.0
O253 O 0.47851 0.08273 0.48378 0.0
H254 H 0.60559 0.32026 0.52748 0.0
H255 H 0.44582 0.1172 0.59975 0.0
H256 H 0.77657 0.45594 0.07594 0.0
H257 H 0.39651 0.92318 0.23914 0.0
H258 H 0.71256 0.39201 0.88452 0.0
H259 H 0.49597 0.92244 0.1712 0.0
O260 O 0.51874 0.27901 0.29231 0.0
H261 H 0.23999 0.03811 0.43565 0.0
H262 H 0.4425 0.26345 0.51899 0.0
H263 H 0.32187 0.24242 0.5387 0.0
H264 H 0.21934 0.12935 0.49739 0.0
H265 H 0.3607 0.05911 0.42213 0.0
H266 H 0.45354 0.15939 0.72841 0.0
H267 H 0.53454 0.28597 0.75896 0.0
O268 O 0.53226 0.27912 0.41887 0.0
C269 C 0.63789 0.21636 0.35913 0.0
C270 C 0.5747 0.31101 0.64457 0.0
C271 C 0.48898 0.19495 0.68588 0.0
N272 N 0.52892 0.21453 0.55541 0.0
C273 C 0.57344 0.28424 0.57153 0.0
C274 C 0.48654 0.17055 0.6121 0.0
C275 C 0.53344 0.26576 0.70234 0.0
C276 C 0.44395 0.03597 0.23538 0.0
N277 N 0.50211 0.09833 0.21586 0.0
C278 C 0.44175 0.9721 0.22129 0.0
C279 C 0.49772 0.97183 0.18338 0.0
C280 C 0.55622 0.0356 0.16201 0.0
C281 C 0.558 0.09871 0.17993 0.0
C282 C 0.55208 0.23032 1.00122 0.0
C283 C 0.61471 0.29379 0.17838 0.0
C284 C 0.52736 0.20485 0.08067 0.0
N285 N 0.55439 0.23275 0.15468 0.0
C286 C 0.72703 0.40507 0.07611 0.0
C287 C 0.6158 0.29525 0.97406 0.0
C288 C 0.5359 0.31103 0.35729 0.0
C289 C 0.28388 0.08769 0.45457 0.0
C290 C 0.39822 0.21337 0.50191 0.0
C291 C 0.32997 0.20209 0.51271 0.0
C292 C 0.27245 0.13869 0.48894 0.0
N293 N 0.40884 0.16209 0.4704 0.0
C294 C 0.3526 0.09964 0.44739 0.0
Co295 Co 0.84118 0.35451 0.24842 0.0
Co296 Co 0.84998 0.35415 0.44648 0.0
O297 O 0.8883 0.35976 0.34338 0.0
C298 C 0.83282 0.2284 0.17019 0.0
O299 O 0.76542 0.20547 0.15758 0.0
C300 C 0.97954 0.49411 0.48631 0.0
O301 O 0.94877 0.52978 0.46497 0.0
O302 O 0.82285 0.42898 0.42181 0.0
O303 O 0.8186 0.42723 0.293 0.0
H304 H 0.66542 0.2604 0.65247 0.0
H305 H 0.99273 0.39284 0.24934 0.0
O306 O 0.87039 0.28637 0.20611 0.0
H307 H 0.98638 0.59417 0.13048 0.0
H308 H 0.82759 0.35533 0.95381 0.0
H309 H 0.72534 0.34635 0.23806 0.0
H310 H 0.87616 0.48779 0.16839 0.0
H311 H 0.86969 0.35427 0.07753 0.0
O312 O 0.94852 0.42719 0.47923 0.0
H313 H 0.71059 0.31284 0.52572 0.0
H314 H 0.91844 0.36703 0.5958 0.0
H315 H 0.56704 0.35001 0.07782 0.0
H316 H 0.10456 0.50001 0.21453 0.0
H317 H 0.62901 0.35054 0.88524 0.0
H318 H 0.10184 0.60129 0.15549 0.0
O319 O 0.74885 0.27007 0.29009 0.0
H320 H 0.00928 0.2525 0.44888 0.0
H321 H 0.76981 0.20675 0.50895 0.0
H322 H 0.79903 0.11293 0.53155 0.0
H323 H 0.91954 0.13477 0.5012 0.0
H324 H 0.97748 0.34205 0.42493 0.0
H325 H 0.8756 0.3202 0.72186 0.0
H326 H 0.74773 0.26647 0.75215 0.0
O327 O 0.75114 0.28257 0.41667 0.0
C328 C 0.81127 0.45038 0.35732 0.0
C329 C 0.72133 0.28706 0.64062 0.0
C330 C 0.83929 0.321 0.68045 0.0
N331 N 0.81787 0.3453 0.55213 0.0
C332 C 0.74753 0.31651 0.56874 0.0
C333 C 0.86361 0.34901 0.60814 0.0
C334 C 0.76762 0.28982 0.69679 0.0
C335 C 0.9911 0.43651 0.22243 0.0
N336 N 0.92789 0.43366 0.21015 0.0
C337 C 0.05454 0.49689 0.20296 0.0
C338 C 0.05301 0.55394 0.1697 0.0
C339 C 0.9883 0.55007 0.15597 0.0
C340 C 0.92599 0.48939 0.17714 0.0
C341 C 0.79268 0.35178 0.99911 0.0
C342 C 0.73094 0.35021 0.1774 0.0
C343 C 0.81902 0.35206 0.07809 0.0
N344 N 0.79194 0.35092 0.15258 0.0
C345 C 0.61806 0.35133 0.07703 0.0
C346 C 0.72716 0.35046 0.9731 0.0
C347 C 0.71786 0.25466 0.35553 0.0
C348 C 0.95621 0.24068 0.4617 0.0
C349 C 0.82226 0.21657 0.49528 0.0
C350 C 0.83849 0.16323 0.50841 0.0
C351 C 0.90612 0.17554 0.49145 0.0
N352 N 0.87214 0.28029 0.46629 0.0
C353 C 0.93818 0.29233 0.44907 0.0
Co354 Co 0.34901 0.85471 0.78832 0.0
Co355 Co 0.34817 0.85791 0.59206 0.0
O356 O 0.35272 0.8985 0.69174 0.0
C357 C 0.23001 0.85849 0.86691 0.0
O358 O 0.20446 0.79116 0.88131 0.0
C359 C 0.48193 0.99613 0.56241 0.0
O360 O 0.51803 0.9783 0.60826 0.0
O361 O 0.42639 0.83753 0.62139 0.0
O362 O 0.40969 0.81776 0.74856 0.0
H363 H 0.23631 0.7411 0.33953 0.0
H364 H 0.40074 0.0098 0.77624 0.0
O365 O 0.28736 0.89272 0.82878 0.0
H366 H 0.59397 0.98989 0.89885 0.0
H367 H 0.37014 0.851 0.07431 0.0
H368 H 0.33171 0.71784 0.83567 0.0
H369 H 0.48273 0.88371 0.86373 0.0
H370 H 0.3623 0.90192 0.95096 0.0
O371 O 0.41579 0.95539 0.55258 0.0
H372 H 0.23563 0.75163 0.47757 0.0
H373 H 0.45883 0.8816 0.48092 0.0
H374 H 0.33779 0.66639 0.95692 0.0
H375 H 0.51478 0.11784 0.80578 0.0
H376 H 0.35373 0.73116 0.07839 0.0
H377 H 0.61021 0.10822 0.86991 0.0
O378 O 0.26373 0.76421 0.7534 0.0
H379 H 0.23393 0.00847 0.57587 0.0
H380 H 0.18628 0.76554 0.57318 0.0
H381 H 0.09098 0.78849 0.54396 0.0
H382 H 0.11435 0.91123 0.54018 0.0
H383 H 0.33155 0.98528 0.59075 0.0
H384 H 0.46252 0.86707 0.34233 0.0
H385 H 0.35047 0.79779 0.26999 0.0
O386 O 0.28219 0.76018 0.62725 0.0
C387 C 0.43834 0.81632 0.68576 0.0
C388 C 0.28534 0.77347 0.36995 0.0
C389 C 0.4122 0.8431 0.37169 0.0
N390 N 0.34643 0.82336 0.48828 0.0
C391 C 0.28512 0.78135 0.44911 0.0
C392 C 0.40965 0.85109 0.45055 0.0
C393 C 0.34942 0.8048 0.33104 0.0
C394 C 0.44277 0.00524 0.80357 0.0
N395 N 0.43435 0.94035 0.81944 0.0
C396 C 0.50663 0.06648 0.82055 0.0
C397 C 0.56098 0.06114 0.85586 0.0
C398 C 0.55192 0.99489 0.87208 0.0
C399 C 0.48844 0.93486 0.85234 0.0
C400 C 0.35924 0.82103 0.02236 0.0
C401 C 0.33857 0.74692 0.88785 0.0
C402 C 0.3553 0.84938 0.95239 0.0
N403 N 0.34558 0.81233 0.8862 0.0
C404 C 0.34191 0.71733 0.95667 0.0
C405 C 0.35122 0.754 0.02452 0.0
C406 C 0.25105 0.73114 0.6894 0.0
C407 C 0.22474 0.95566 0.56765 0.0
C408 C 0.20007 0.81967 0.56574 0.0
C409 C 0.14427 0.83211 0.55159 0.0
C410 C 0.15725 0.90092 0.55053 0.0
N411 N 0.26868 0.87422 0.57113 0.0
C412 C 0.28022 0.94168 0.57613 0.0
Co413 Co 0.17107 0.52435 0.59337 0.0
Co414 Co 0.16848 0.52454 0.78926 0.0
O415 O 0.12951 0.48577 0.69079 0.0
C416 C 0.05102 0.53065 0.51966 0.0
O417 O 0.09234 0.59886 0.51028 0.0
C418 C 0.15617 0.38432 0.82966 0.0
O419 O 0.21719 0.4045 0.79639 0.0
O420 O 0.26377 0.53497 0.75884 0.0
O421 O 0.26743 0.55321 0.63133 0.0
H422 H 0.17697 0.63668 0.04543 0.0
H423 H 0.05459 0.37656 0.61083 0.0
O424 O 0.07342 0.49412 0.55399 0.0
H425 H 0.25221 0.35975 0.49604 0.0
H426 H 0.1822 0.51182 0.30817 0.0
H427 H 0.29745 0.65348 0.53777 0.0
H428 H 0.26334 0.47579 0.52112 0.0
H429 H 0.12839 0.47136 0.43487 0.0
O430 O 0.12867 0.4241 0.82904 0.0
H431 H 0.16331 0.62795 0.90799 0.0
H432 H 0.25708 0.49857 0.89763 0.0
H433 H 0.35102 0.6962 0.41237 0.0
H434 H 0.04286 0.26025 0.59055 0.0
H435 H 0.29371 0.62634 0.29563 0.0
H436 H 0.1413 0.25056 0.53122 0.0
O437 O 0.1875 0.62016 0.62554 0.0
H438 H 0.90164 0.40388 0.81528 0.0
H439 H 0.11753 0.6327 0.80062 0.0
H440 H 0.00491 0.62723 0.81027 0.0
H441 H 0.89464 0.51141 0.81841 0.0
H442 H 0.01622 0.40813 0.8072 0.0
H443 H 0.2725 0.50663 0.0364 0.0
H444 H 0.23097 0.57492 0.11225 0.0
O445 O 0.21012 0.6234 0.75207 0.0
C446 C 0.29667 0.55243 0.69391 0.0
C447 C 0.19264 0.60428 0.0137 0.0
C448 C 0.24721 0.53238 0.00843 0.0
N449 N 0.20334 0.55735 0.89309 0.0
C450 C 0.18401 0.59817 0.93451 0.0
C451 C 0.23786 0.5277 0.92929 0.0
C452 C 0.22363 0.57033 0.05098 0.0
C453 C 0.09803 0.37323 0.5855 0.0
N454 N 0.15927 0.433 0.56659 0.0
C455 C 0.09124 0.30703 0.57441 0.0
C456 C 0.14652 0.3018 0.54125 0.0
C457 C 0.20861 0.36297 0.52131 0.0
C458 C 0.2144 0.42852 0.53527 0.0
C459 C 0.20693 0.54396 0.35791 0.0
C460 C 0.27146 0.62267 0.48752 0.0
C461 C 0.17697 0.52132 0.42993 0.0
N462 N 0.20973 0.56036 0.4936 0.0
C463 C 0.30231 0.64696 0.41641 0.0
C464 C 0.26984 0.6077 0.35111 0.0
C465 C 0.21021 0.65328 0.68939 0.0
C466 C 0.94987 0.45333 0.81565 0.0
C467 C 0.0721 0.58107 0.80665 0.0
C468 C 0.00723 0.57894 0.81165 0.0
C469 C 0.94566 0.51441 0.81629 0.0
N470 N 0.07722 0.52075 0.8098 0.0
C471 C 0.01579 0.45697 0.81214 0.0
Co472 Co 0.50771 0.67934 0.78571 0.0
Co473 Co 0.50351 0.67615 0.58994 0.0
O474 O 0.54286 0.6748 0.68742 0.0
C475 C 0.65177 0.80932 0.79971 0.0
O476 O 0.63331 0.84185 0.74973 0.0
C477 C 0.50984 0.54244 0.5625 0.0
O478 O 0.45752 0.50643 0.61008 0.0
O479 O 0.40612 0.59939 0.62506 0.0
O480 O 0.40746 0.61685 0.75325 0.0
H481 H 0.4995 0.77642 0.33048 0.0
H482 H 0.63071 0.65659 0.83189 0.0
O483 O 0.60839 0.74602 0.81941 0.0
H484 H 0.42466 0.41771 0.81476 0.0
H485 H 0.40234 0.58319 0.04384 0.0
H486 H 0.53622 0.79708 0.88822 0.0
H487 H 0.40985 0.51839 0.7922 0.0
H488 H 0.41056 0.57433 0.90559 0.0
O489 O 0.5326 0.60767 0.55088 0.0
H490 H 0.51189 0.78466 0.4688 0.0
H491 H 0.41065 0.56181 0.4866 0.0
H492 H 0.52115 0.80837 0.02557 0.0
H493 H 0.64485 0.55581 0.85456 0.0
H494 H 0.4598 0.7009 0.10603 0.0
H495 H 0.54283 0.43478 0.84744 0.0
O496 O 0.49277 0.75987 0.75177 0.0
H497 H 0.76572 0.78565 0.58415 0.0
H498 H 0.57252 0.83717 0.56575 0.0
H499 H 0.69323 0.93329 0.55473 0.0
H500 H 0.79276 0.9093 0.56431 0.0
H501 H 0.64588 0.69025 0.58505 0.0
H502 H 0.39218 0.55106 0.34771 0.0
H503 H 0.43917 0.65907 0.26808 0.0
O504 O 0.47329 0.74365 0.62448 0.0
C505 C 0.37514 0.58816 0.69102 0.0
C506 C 0.48046 0.72906 0.36437 0.0
C507 C 0.42005 0.6027 0.37401 0.0
N508 N 0.46744 0.67412 0.48696 0.0
C509 C 0.48873 0.73345 0.44371 0.0
C510 C 0.43016 0.60926 0.45302 0.0
C511 C 0.44661 0.6632 0.32932 0.0
C512 C 0.58378 0.60567 0.82986 0.0
N513 N 0.51841 0.59699 0.81294 0.0
C514 C 0.59308 0.54781 0.84257 0.0
C515 C 0.53586 0.47985 0.83779 0.0
C516 C 0.46985 0.4704 0.81939 0.0
C517 C 0.46225 0.52926 0.80618 0.0
C518 C 0.43233 0.63038 0.01028 0.0
C519 C 0.50624 0.74993 0.92183 0.0
C520 C 0.43776 0.62568 0.93131 0.0
N521 N 0.47736 0.68486 0.88852 0.0
C522 C 0.49982 0.75674 1.00019 0.0
C523 C 0.46454 0.69641 0.04506 0.0
C524 C 0.47433 0.77407 0.68692 0.0
C525 C 0.72391 0.79721 0.57402 0.0
C526 C 0.61338 0.82337 0.56236 0.0
C527 C 0.68286 0.87955 0.55861 0.0
C528 C 0.73862 0.86623 0.56442 0.0
N529 N 0.59877 0.75453 0.56591 0.0
C530 C 0.65421 0.74215 0.57321 0.0
loop_
_geom_bond_atom_site_label_1
_geom_bond_atom_site_label_2
_geom_bond_distance
_geom_bond_site_symmetry_2
_ccdc_geom_bond_type
Co0 O2 2.143 . S
Co0 O8 2.074 . S
Co0 O11 2.093 1_455 S
Co0 O24 2.097 1_455 S
Co0 N41 2.151 . S
Co0 N49 2.214 . S
Co1 O2 2.160 1_556 S
Co1 O7 2.058 . S
Co1 O17 2.057 . S
Co1 O32 2.037 1_455 S
Co1 N36 2.145 1_455 S
Co1 N57 2.257 1_455 S
O2 Co0 2.143 . S
O2 Co1 2.160 1_554 S
C3 O4 1.278 . S
C3 O11 1.224 . S
O4 C3 1.278 . S
C5 O6 1.245 . S
C5 O17 1.232 . S
O6 C5 1.245 . S
O7 Co1 2.058 . S
O7 C33 1.269 1_556 S
O8 Co0 2.074 . S
O8 C33 1.257 . S
H9 C34 0.930 1_565 S
H10 C40 0.930 . S
O11 Co0 2.093 1_655 S
O11 C3 1.224 . S
H12 C44 0.929 . S
H13 C46 0.930 . S
H14 C47 0.930 1_655 S
H15 C45 0.929 . S
H16 C48 0.928 . S
O17 Co1 2.057 . S
O17 C5 1.232 . S
H18 C37 0.929 . S
H19 C38 0.930 1_455 S
H20 C50 0.931 1_565 S
H21 C42 0.929 . S
H22 C51 0.930 . S
H23 C43 0.931 . S
O24 Co0 2.097 1_655 S
O24 C52 1.214 . S
H25 C53 0.929 . S
H26 C54 0.929 . S
H27 C55 0.930 . S
H28 C56 0.929 . S
H29 C58 0.930 . S
H30 C35 0.930 1_455 S
H31 C39 0.930 . S
O32 Co1 2.037 1_655 S
O32 C52 1.234 1_556 S
C33 O7 1.269 1_554 S
C33 O8 1.257 . S
C34 H9 0.930 1_545 S
C34 C37 1.388 . S
C34 C39 1.418 . S
C35 H30 0.930 1_655 S
C35 C38 1.403 . S
C35 C39 1.353 . S
N36 Co1 2.145 1_655 S
N36 C37 1.397 . S
N36 C38 1.334 . S
C37 H18 0.929 . S
C37 C34 1.388 . S
C37 N36 1.397 . S
C38 H19 0.930 1_655 S
C38 C35 1.403 . S
C38 N36 1.334 . S
C39 H31 0.930 . S
C39 C34 1.418 . S
C39 C35 1.353 . S
C40 H10 0.930 . S
C40 N41 1.330 . S
C40 C42 1.446 . S
N41 Co0 2.151 . S
N41 C40 1.330 . S
N41 C45 1.418 . S
C42 H21 0.929 . S
C42 C40 1.446 . S
C42 C43 1.332 . S
C43 H23 0.931 . S
C43 C42 1.332 . S
C43 C44 1.267 . S
C44 H12 0.929 . S
C44 C43 1.267 . S
C44 C45 1.251 . S
C45 H15 0.929 . S
C45 N41 1.418 . S
C45 C44 1.251 . S
C46 H13 0.930 . S
C46 C48 1.406 . S
C46 C51 1.261 . S
C47 H14 0.930 1_455 S
C47 N49 1.325 . S
C47 C50 1.357 . S
C48 H16 0.928 . S
C48 C46 1.406 . S
C48 N49 1.261 . S
N49 Co0 2.214 . S
N49 C47 1.325 . S
N49 C48 1.261 . S
C50 H20 0.931 1_545 S
C50 C47 1.357 . S
C50 C51 1.312 . S
C51 H22 0.930 . S
C51 C46 1.261 . S
C51 C50 1.312 . S
C52 O24 1.214 . S
C52 O32 1.234 1_554 S
C53 H25 0.929 . S
C53 C56 1.391 . S
C53 C58 1.391 . S
C54 H26 0.929 . S
C54 C55 1.390 . S
C54 N57 1.391 . S
C55 H27 0.930 . S
C55 C54 1.390 . S
C55 C56 1.392 . S
C56 H28 0.929 . S
C56 C53 1.391 . S
C56 C55 1.392 . S
N57 Co1 2.257 1_655 S
N57 C54 1.391 . S
N57 C58 1.388 . S
C58 H29 0.930 . S
C58 C53 1.391 . S
C58 N57 1.388 . S
Co59 O61 2.143 1_556 S
Co59 O67 2.074 . S
Co59 O70 2.093 . S
Co59 O83 2.097 . S
Co59 N100 2.151 . S
Co59 N108 2.214 . S
Co60 O61 2.160 . S
Co60 O66 2.058 . S
Co60 O76 2.057 . S
Co60 O91 2.037 . S
Co60 N95 2.145 . S
Co60 N116 2.257 . S
O61 Co59 2.143 1_554 S
O61 Co60 2.160 . S
C62 O63 1.278 . S
C62 O70 1.224 . S
O63 C62 1.278 . S
C64 O65 1.245 . S
C64 O76 1.232 . S
O65 C64 1.245 . S
O66 Co60 2.058 . S
O66 C92 1.269 . S
O67 Co59 2.074 . S
O67 C92 1.257 1_556 S
H68 C93 0.930 1_455 S
H69 C99 0.930 . S
O70 Co59 2.093 . S
O70 C62 1.224 . S
H71 C103 0.929 . S
H72 C105 0.930 . S
H73 C106 0.930 1_545 S
H74 C104 0.929 . S
H75 C107 0.928 . S
O76 Co60 2.057 . S
O76 C64 1.232 . S
H77 C96 0.929 1_545 S
H78 C97 0.929 . S
H79 C109 0.931 . S
H80 C101 0.929 . S
H81 C110 0.930 . S
H82 C102 0.931 . S
O83 Co59 2.097 . S
O83 C111 1.214 1_556 S
H84 C112 0.929 . S
H85 C113 0.929 . S
H86 C114 0.930 . S
H87 C115 0.929 . S
H88 C117 0.930 . S
H89 C94 0.930 . S
H90 C98 0.930 1_545 S
O91 Co60 2.037 . S
O91 C111 1.234 . S
C92 O66 1.269 . S
C92 O67 1.257 1_554 S
C93 H68 0.930 1_655 S
C93 C96 1.388 1_545 S
C93 C98 1.418 1_545 S
C94 H89 0.930 . S
C94 C97 1.404 . S
C94 C98 1.353 . S
N95 Co60 2.145 . S
N95 C96 1.397 . S
N95 C97 1.334 . S
C96 H77 0.929 1_565 S
C96 C93 1.388 1_565 S
C96 N95 1.397 . S
C97 H78 0.929 . S
C97 C94 1.404 . S
C97 N95 1.334 . S
C98 H90 0.930 1_565 S
C98 C93 1.418 1_565 S
C98 C94 1.353 . S
C99 H69 0.930 . S
C99 N100 1.330 . S
C99 C101 1.446 . S
N100 Co59 2.151 . S
N100 C99 1.330 . S
N100 C104 1.418 . S
C101 H80 0.929 . S
C101 C99 1.446 . S
C101 C102 1.332 . S
C102 H82 0.931 . S
C102 C101 1.332 . S
C102 C103 1.267 . S
C103 H71 0.929 . S
C103 C102 1.267 . S
C103 C104 1.251 . S
C104 H74 0.929 . S
C104 N100 1.418 . S
C104 C103 1.251 . S
C105 H72 0.930 . S
C105 C107 1.406 . S
C105 C110 1.261 1_665 S
C106 H73 0.930 1_565 S
C106 N108 1.325 . S
C106 C109 1.357 1_665 S
C107 H75 0.928 . S
C107 C105 1.406 . S
C107 N108 1.261 . S
N108 Co59 2.214 . S
N108 C106 1.325 . S
N108 C107 1.261 . S
C109 H79 0.931 . S
C109 C106 1.357 1_445 S
C109 C110 1.312 . S
C110 H81 0.930 . S
C110 C105 1.261 1_445 S
C110 C109 1.312 . S
C111 O83 1.214 1_554 S
C111 O91 1.234 . S
C112 H84 0.929 . S
C112 C115 1.391 . S
C112 C117 1.391 . S
C113 H85 0.929 . S
C113 C114 1.390 . S
C113 N116 1.391 . S
C114 H86 0.930 . S
C114 C113 1.390 . S
C114 C115 1.392 . S
C115 H87 0.929 . S
C115 C112 1.391 . S
C115 C114 1.392 . S
N116 Co60 2.257 . S
N116 C113 1.391 . S
N116 C117 1.388 . S
C117 H88 0.930 . S
C117 C112 1.391 . S
C117 N116 1.388 . S
Co118 O120 2.143 . S
Co118 O126 2.074 1_545 S
Co118 O129 2.093 . S
Co118 O142 2.097 . S
Co118 N159 2.151 1_545 S
Co118 N167 2.214 . S
Co119 O120 2.160 1_556 S
Co119 O125 2.058 1_545 S
Co119 O135 2.057 1_545 S
Co119 O150 2.037 . S
Co119 N154 2.145 . S
Co119 N175 2.257 . S
O120 Co118 2.143 . S
O120 Co119 2.160 1_554 S
C121 O122 1.278 . S
C121 O129 1.224 . S
O122 C121 1.278 . S
C123 O124 1.245 . S
C123 O135 1.232 . S
O124 C123 1.245 . S
O125 Co119 2.058 1_565 S
O125 C151 1.269 1_556 S
O126 Co118 2.074 1_565 S
O126 C151 1.257 . S
H127 C152 0.930 . S
H128 C158 0.930 . S
O129 Co118 2.093 . S
O129 C121 1.224 . S
H130 C162 0.929 . S
H131 C164 0.930 1_565 S
H132 C165 0.930 . S
H133 C163 0.929 . S
H134 C166 0.928 1_565 S
O135 Co119 2.057 1_565 S
O135 C123 1.232 . S
H136 C155 0.929 . S
H137 C156 0.929 . S
H138 C168 0.931 1_655 S
H139 C160 0.929 . S
H140 C169 0.930 1_655 S
H141 C161 0.931 . S
O142 Co118 2.097 . S
O142 C170 1.214 . S
H143 C171 0.929 . S
H144 C172 0.929 . S
H145 C173 0.930 . S
H146 C174 0.929 . S
H147 C176 0.930 . S
H148 C153 0.930 . S
H149 C157 0.930 . S
O150 Co119 2.037 . S
O150 C170 1.234 1_556 S
C151 O125 1.269 1_554 S
C151 O126 1.257 . S
C152 H127 0.930 . S
C152 C155 1.388 . S
C152 C157 1.418 . S
C153 H148 0.930 . S
C153 C156 1.404 . S
C153 C157 1.353 . S
N154 Co119 2.145 . S
N154 C155 1.397 . S
N154 C156 1.334 . S
C155 H136 0.929 . S
C155 C152 1.388 . S
C155 N154 1.397 . S
C156 H137 0.929 . S
C156 C153 1.404 . S
C156 N154 1.334 . S
C157 H149 0.930 . S
C157 C152 1.418 . S
C157 C153 1.353 . S
C158 H128 0.930 . S
C158 N159 1.330 . S
C158 C160 1.446 . S
N159 Co118 2.151 1_565 S
N159 C158 1.330 . S
N159 C163 1.418 . S
C160 H139 0.929 . S
C160 C158 1.446 . S
C160 C161 1.332 . S
C161 H141 0.931 . S
C161 C160 1.332 . S
C161 C162 1.267 . S
C162 H130 0.929 . S
C162 C161 1.267 . S
C162 C163 1.251 . S
C163 H133 0.929 . S
C163 N159 1.418 . S
C163 C162 1.251 . S
C164 H131 0.930 1_545 S
C164 C166 1.406 . S
C164 C169 1.261 . S
C165 H132 0.930 . S
C165 N167 1.325 . S
C165 C168 1.357 . S
C166 H134 0.928 1_545 S
C166 C164 1.406 . S
C166 N167 1.261 . S
N167 Co118 2.214 . S
N167 C165 1.325 . S
N167 C166 1.261 . S
C168 H138 0.931 1_455 S
C168 C165 1.357 . S
C168 C169 1.312 . S
C169 H140 0.930 1_455 S
C169 C164 1.261 . S
C169 C168 1.312 . S
C170 O142 1.214 . S
C170 O150 1.234 1_554 S
C171 H143 0.929 . S
C171 C174 1.391 . S
C171 C176 1.391 . S
C172 H144 0.929 . S
C172 C173 1.390 . S
C172 N175 1.391 . S
C173 H145 0.930 . S
C173 C172 1.390 . S
C173 C174 1.392 . S
C174 H146 0.929 . S
C174 C171 1.391 . S
C174 C173 1.392 . S
N175 Co119 2.257 . S
N175 C172 1.391 . S
N175 C176 1.388 . S
C176 H147 0.930 . S
C176 C171 1.391 . S
C176 N175 1.388 . S
Co177 O179 2.143 . S
Co177 O185 2.074 . S
Co177 O188 2.093 . S
Co177 O201 2.097 . S
Co177 N218 2.151 . S
Co177 N226 2.214 . S
Co178 O179 2.160 . S
Co178 O184 2.058 . S
Co178 O194 2.057 . S
Co178 O209 2.037 . S
Co178 N213 2.145 . S
Co178 N234 2.257 . S
O179 Co177 2.143 . S
O179 Co178 2.160 . S
C180 O181 1.278 . S
C180 O188 1.224 . S
O181 C180 1.278 . S
C182 O183 1.245 . S
C182 O194 1.232 . S
O183 C182 1.245 . S
O184 Co178 2.058 . S
O184 C210 1.269 . S
O185 Co177 2.074 . S
O185 C210 1.257 . S
H186 C211 0.930 . S
H187 C217 0.930 . S
O188 Co177 2.093 . S
O188 C180 1.224 . S
H189 C221 0.929 . S
H190 C223 0.930 1_556 S
H191 C224 0.930 . S
H192 C222 0.929 . S
H193 C225 0.928 . S
O194 Co178 2.057 . S
O194 C182 1.232 . S
H195 C214 0.929 . S
H196 C215 0.929 . S
H197 C227 0.931 . S
H198 C219 0.929 . S
H199 C228 0.930 1_556 S
H200 C220 0.931 . S
O201 Co177 2.097 . S
O201 C229 1.214 . S
H202 C230 0.929 . S
H203 C231 0.929 . S
H204 C232 0.930 . S
H205 C233 0.929 . S
H206 C235 0.930 . S
H207 C212 0.930 . S
H208 C216 0.930 . S
O209 Co178 2.037 . S
O209 C229 1.234 . S
C210 O184 1.269 . S
C210 O185 1.257 . S
C211 H186 0.930 . S
C211 C214 1.388 . S
C211 C216 1.418 . S
C212 H207 0.930 . S
C212 C215 1.404 . S
C212 C216 1.353 . S
N213 Co178 2.145 . S
N213 C214 1.397 . S
N213 C215 1.334 . S
C214 H195 0.929 . S
C214 C211 1.388 . S
C214 N213 1.397 . S
C215 H196 0.929 . S
C215 C212 1.404 . S
C215 N213 1.334 . S
C216 H208 0.930 . S
C216 C211 1.418 . S
C216 C212 1.353 . S
C217 H187 0.930 . S
C217 N218 1.330 . S
C217 C219 1.446 . S
N218 Co177 2.151 . S
N218 C217 1.330 . S
N218 C222 1.418 . S
C219 H198 0.929 . S
C219 C217 1.446 . S
C219 C220 1.332 . S
C220 H200 0.931 . S
C220 C219 1.332 . S
C220 C221 1.267 . S
C221 H189 0.929 . S
C221 C220 1.267 . S
C221 C222 1.251 . S
C222 H192 0.929 . S
C222 N218 1.418 . S
C222 C221 1.251 . S
C223 H190 0.930 1_554 S
C223 C225 1.406 . S
C223 C228 1.261 . S
C224 H191 0.930 . S
C224 N226 1.325 . S
C224 C227 1.357 . S
C225 H193 0.928 . S
C225 C223 1.406 . S
C225 N226 1.261 . S
N226 Co177 2.214 . S
N226 C224 1.325 . S
N226 C225 1.261 . S
C227 H197 0.931 . S
C227 C224 1.357 . S
C227 C228 1.312 . S
C228 H199 0.930 1_554 S
C228 C223 1.261 . S
C228 C227 1.312 . S
C229 O201 1.214 . S
C229 O209 1.234 . S
C230 H202 0.929 . S
C230 C233 1.391 . S
C230 C235 1.391 . S
C231 H203 0.929 . S
C231 C232 1.390 . S
C231 N234 1.391 . S
C232 H204 0.930 . S
C232 C231 1.390 . S
C232 C233 1.392 . S
C233 H205 0.929 . S
C233 C230 1.391 . S
C233 C232 1.392 . S
N234 Co178 2.257 . S
N234 C231 1.391 . S
N234 C235 1.388 . S
C235 H206 0.930 . S
C235 C230 1.391 . S
C235 N234 1.388 . S
Co236 O238 2.143 . S
Co236 O244 2.074 . S
Co236 O247 2.093 . S
Co236 O260 2.097 . S
Co236 N277 2.151 . S
Co236 N285 2.214 . S
Co237 O238 2.160 . S
Co237 O243 2.058 . S
Co237 O253 2.057 . S
Co237 O268 2.037 . S
Co237 N272 2.145 . S
Co237 N293 2.257 . S
O238 Co236 2.143 . S
O238 Co237 2.160 . S
C239 O240 1.278 . S
C239 O247 1.224 . S
O240 C239 1.278 . S
C241 O242 1.245 . S
C241 O253 1.232 . S
O242 C241 1.245 . S
O243 Co237 2.058 . S
O243 C269 1.269 . S
O244 Co236 2.074 . S
O244 C269 1.257 . S
H245 C270 0.930 . S
H246 C276 0.930 . S
O247 Co236 2.093 . S
O247 C239 1.224 . S
H248 C280 0.929 . S
H249 C282 0.930 1_556 S
H250 C283 0.930 . S
H251 C281 0.929 . S
H252 C284 0.928 . S
O253 Co237 2.057 . S
O253 C241 1.232 . S
H254 C273 0.929 . S
H255 C274 0.929 . S
H256 C286 0.931 . S
H257 C278 0.929 . S
H258 C287 0.930 1_556 S
H259 C279 0.931 . S
O260 Co236 2.097 . S
O260 C288 1.214 . S
H261 C289 0.929 . S
H262 C290 0.929 . S
H263 C291 0.930 . S
H264 C292 0.929 . S
H265 C294 0.930 . S
H266 C271 0.930 . S
H267 C275 0.930 . S
O268 Co237 2.037 . S
O268 C288 1.234 . S
C269 O243 1.269 . S
C269 O244 1.257 . S
C270 H245 0.930 . S
C270 C273 1.388 . S
C270 C275 1.418 . S
C271 H266 0.930 . S
C271 C274 1.404 . S
C271 C275 1.353 . S
N272 Co237 2.145 . S
N272 C273 1.397 . S
N272 C274 1.334 . S
C273 H254 0.929 . S
C273 C270 1.388 . S
C273 N272 1.397 . S
C274 H255 0.929 . S
C274 C271 1.404 . S
C274 N272 1.334 . S
C275 H267 0.930 . S
C275 C270 1.418 . S
C275 C271 1.353 . S
C276 H246 0.930 . S
C276 N277 1.330 . S
C276 C278 1.446 1_545 S
N277 Co236 2.151 . S
N277 C276 1.330 . S
N277 C281 1.418 . S
C278 H257 0.929 . S
C278 C276 1.446 1_565 S
C278 C279 1.332 . S
C279 H259 0.931 . S
C279 C278 1.332 . S
C279 C280 1.267 1_565 S
C280 H248 0.929 . S
C280 C279 1.267 1_545 S
C280 C281 1.251 . S
C281 H251 0.929 . S
C281 N277 1.418 . S
C281 C280 1.251 . S
C282 H249 0.930 1_554 S
C282 C284 1.406 . S
C282 C287 1.261 . S
C283 H250 0.930 . S
C283 N285 1.325 . S
C283 C286 1.357 . S
C284 H252 0.928 . S
C284 C282 1.406 . S
C284 N285 1.261 . S
N285 Co236 2.214 . S
N285 C283 1.325 . S
N285 C284 1.261 . S
C286 H256 0.931 . S
C286 C283 1.357 . S
C286 C287 1.312 . S
C287 H258 0.930 1_554 S
C287 C282 1.261 . S
C287 C286 1.312 . S
C288 O260 1.214 . S
C288 O268 1.234 . S
C289 H261 0.929 . S
C289 C292 1.391 . S
C289 C294 1.391 . S
C290 H262 0.929 . S
C290 C291 1.390 . S
C290 N293 1.391 . S
C291 H263 0.930 . S
C291 C290 1.390 . S
C291 C292 1.392 . S
C292 H264 0.929 . S
C292 C289 1.391 . S
C292 C291 1.392 . S
N293 Co237 2.257 . S
N293 C290 1.391 . S
N293 C294 1.388 . S
C294 H265 0.930 . S
C294 C289 1.391 . S
C294 N293 1.388 . S
Co295 O297 2.143 . S
Co295 O303 2.074 . S
Co295 O306 2.093 . S
Co295 O319 2.097 . S
Co295 N336 2.151 . S
Co295 N344 2.214 . S
Co296 O297 2.160 . S
Co296 O302 2.058 . S
Co296 O312 2.057 . S
Co296 O327 2.037 . S
Co296 N331 2.145 . S
Co296 N352 2.257 . S
O297 Co295 2.143 . S
O297 Co296 2.160 . S
C298 O299 1.278 . S
C298 O306 1.224 . S
O299 C298 1.278 . S
C300 O301 1.245 1_655 S
C300 O312 1.232 . S
O301 C300 1.245 1_455 S
O302 Co296 2.058 . S
O302 C328 1.269 . S
O303 Co295 2.074 . S
O303 C328 1.257 . S
H304 C329 0.930 . S
H305 C335 0.930 . S
O306 Co295 2.093 . S
O306 C298 1.224 . S
H307 C339 0.929 . S
H308 C341 0.930 1_556 S
H309 C342 0.930 . S
H310 C340 0.929 . S
H311 C343 0.928 . S
O312 Co296 2.057 . S
O312 C300 1.232 . S
H313 C332 0.929 . S
H314 C333 0.929 . S
H315 C345 0.931 . S
H316 C337 0.929 . S
H317 C346 0.930 1_556 S
H318 C338 0.931 . S
O319 Co295 2.097 . S
O319 C347 1.214 . S
H320 C348 0.929 . S
H321 C349 0.929 . S
H322 C350 0.930 . S
H323 C351 0.929 . S
H324 C353 0.930 . S
H325 C330 0.930 . S
H326 C334 0.930 . S
O327 Co296 2.037 . S
O327 C347 1.234 . S
C328 O302 1.269 . S
C328 O303 1.257 . S
C329 H304 0.930 . S
C329 C332 1.388 . S
C329 C334 1.418 . S
C330 H325 0.930 . S
C330 C333 1.404 . S
C330 C334 1.353 . S
N331 Co296 2.145 . S
N331 C332 1.397 . S
N331 C333 1.334 . S
C332 H313 0.929 . S
C332 C329 1.388 . S
C332 N331 1.397 . S
C333 H314 0.929 . S
C333 C330 1.404 . S
C333 N331 1.334 . S
C334 H326 0.930 . S
C334 C329 1.418 . S
C334 C330 1.353 . S
C335 H305 0.930 . S
C335 N336 1.330 . S
C335 C337 1.446 1_655 S
N336 Co295 2.151 . S
N336 C335 1.330 . S
N336 C340 1.418 . S
C337 H316 0.929 . S
C337 C335 1.446 1_455 S
C337 C338 1.332 . S
C338 H318 0.931 . S
C338 C337 1.332 . S
C338 C339 1.267 1_455 S
C339 H307 0.929 . S
C339 C338 1.267 1_655 S
C339 C340 1.251 . S
C340 H310 0.929 . S
C340 N336 1.418 . S
C340 C339 1.251 . S
C341 H308 0.930 1_554 S
C341 C343 1.406 . S
C341 C346 1.261 . S
C342 H309 0.930 . S
C342 N344 1.325 . S
C342 C345 1.357 . S
C343 H311 0.928 . S
C343 C341 1.406 . S
C343 N344 1.261 . S
N344 Co295 2.214 . S
N344 C342 1.325 . S
N344 C343 1.261 . S
C345 H315 0.931 . S
C345 C342 1.357 . S
C345 C346 1.312 . S
C346 H317 0.930 1_554 S
C346 C341 1.261 . S
C346 C345 1.312 . S
C347 O319 1.214 . S
C347 O327 1.234 . S
C348 H320 0.929 . S
C348 C351 1.391 . S
C348 C353 1.391 . S
C349 H321 0.929 . S
C349 C350 1.390 . S
C349 N352 1.391 . S
C350 H322 0.930 . S
C350 C349 1.390 . S
C350 C351 1.392 . S
C351 H323 0.929 . S
C351 C348 1.391 . S
C351 C350 1.392 . S
N352 Co296 2.257 . S
N352 C349 1.391 . S
N352 C353 1.388 . S
C353 H324 0.930 . S
C353 C348 1.391 . S
C353 N352 1.388 . S
Co354 O356 2.143 . S
Co354 O362 2.074 . S
Co354 O365 2.093 . S
Co354 O378 2.097 . S
Co354 N395 2.151 . S
Co354 N403 2.214 . S
Co355 O356 2.160 . S
Co355 O361 2.058 . S
Co355 O371 2.057 . S
Co355 O386 2.037 . S
Co355 N390 2.145 . S
Co355 N411 2.257 . S
O356 Co354 2.143 . S
O356 Co355 2.160 . S
C357 O358 1.278 . S
C357 O365 1.224 . S
O358 C357 1.278 . S
C359 O360 1.245 1_565 S
C359 O371 1.232 . S
O360 C359 1.245 1_545 S
O361 Co355 2.058 . S
O361 C387 1.269 . S
O362 Co354 2.074 . S
O362 C387 1.257 . S
H363 C388 0.930 . S
H364 C394 0.940 . S
O365 Co354 2.093 . S
O365 C357 1.224 . S
H366 C398 0.929 . S
H367 C400 0.930 . S
H368 C401 0.930 . S
H369 C399 0.929 . S
H370 C402 0.928 . S
O371 Co355 2.057 . S
O371 C359 1.232 . S
H372 C391 0.929 . S
H373 C392 0.929 . S
H374 C404 0.931 . S
H375 C396 0.929 . S
H376 C405 0.930 . S
H377 C397 0.931 . S
O378 Co354 2.097 . S
O378 C406 1.214 . S
H379 C407 0.929 . S
H380 C408 0.929 . S
H381 C409 0.930 . S
H382 C410 0.929 . S
H383 C412 0.930 . S
H384 C389 0.930 . S
H385 C393 0.930 . S
O386 Co355 2.037 . S
O386 C406 1.234 . S
C387 O361 1.269 . S
C387 O362 1.257 . S
C388 H363 0.930 . S
C388 C391 1.388 . S
C388 C393 1.418 . S
C389 H384 0.930 . S
C389 C392 1.404 . S
C389 C393 1.353 . S
N390 Co355 2.145 . S
N390 C391 1.397 . S
N390 C392 1.334 . S
C391 H372 0.929 . S
C391 C388 1.388 . S
C391 N390 1.397 . S
C392 H373 0.929 . S
C392 C389 1.404 . S
C392 N390 1.334 . S
C393 H385 0.930 . S
C393 C388 1.418 . S
C393 C389 1.353 . S
C394 H364 0.940 . S
C394 N395 1.330 . S
C394 C396 1.446 1_565 S
N395 Co354 2.151 . S
N395 C394 1.330 . S
N395 C399 1.418 . S
C396 H375 0.929 . S
C396 C394 1.446 1_545 S
C396 C397 1.332 . S
C397 H377 0.931 . S
C397 C396 1.332 . S
C397 C398 1.267 1_545 S
C398 H366 0.929 . S
C398 C397 1.267 1_565 S
C398 C399 1.251 . S
C399 H369 0.929 . S
C399 N395 1.418 . S
C399 C398 1.251 . S
C400 H367 0.930 . S
C400 C402 1.406 1_554 S
C400 C405 1.261 . S
C401 H368 0.930 . S
C401 N403 1.325 . S
C401 C404 1.357 . S
C402 H370 0.928 . S
C402 C400 1.406 1_556 S
C402 N403 1.261 . S
N403 Co354 2.214 . S
N403 C401 1.325 . S
N403 C402 1.261 . S
C404 H374 0.931 . S
C404 C401 1.357 . S
C404 C405 1.312 1_556 S
C405 H376 0.930 . S
C405 C400 1.261 . S
C405 C404 1.312 1_554 S
C406 O378 1.214 . S
C406 O386 1.234 . S
C407 H379 0.929 . S
C407 C410 1.391 . S
C407 C412 1.391 . S
C408 H380 0.929 . S
C408 C409 1.390 . S
C408 N411 1.391 . S
C409 H381 0.930 . S
C409 C408 1.390 . S
C409 C410 1.392 . S
C410 H382 0.929 . S
C410 C407 1.391 . S
C410 C409 1.392 . S
N411 Co355 2.257 . S
N411 C408 1.391 . S
N411 C412 1.388 . S
C412 H383 0.930 . S
C412 C407 1.391 . S
C412 N411 1.388 . S
Co413 O415 2.143 . S
Co413 O421 2.074 . S
Co413 O424 2.093 . S
Co413 O437 2.097 . S
Co413 N454 2.151 . S
Co413 N462 2.214 . S
Co414 O415 2.160 . S
Co414 O420 2.058 . S
Co414 O430 2.057 . S
Co414 O445 2.037 . S
Co414 N449 2.145 . S
Co414 N470 2.257 . S
O415 Co413 2.143 . S
O415 Co414 2.160 . S
C416 O417 1.278 . S
C416 O424 1.224 . S
O417 C416 1.278 . S
C418 O419 1.245 . S
C418 O430 1.232 . S
O419 C418 1.245 . S
O420 Co414 2.058 . S
O420 C446 1.269 . S
O421 Co413 2.074 . S
O421 C446 1.257 . S
H422 C447 0.930 . S
H423 C453 0.930 . S
O424 Co413 2.093 . S
O424 C416 1.224 . S
H425 C457 0.929 . S
H426 C459 0.930 . S
H427 C460 0.930 . S
H428 C458 0.929 . S
H429 C461 0.928 . S
O430 Co414 2.057 . S
O430 C418 1.232 . S
H431 C450 0.929 . S
H432 C451 0.929 . S
H433 C463 0.931 . S
H434 C455 0.929 . S
H435 C464 0.930 . S
H436 C456 0.931 . S
O437 Co413 2.097 . S
O437 C465 1.214 . S
H438 C466 0.929 . S
H439 C467 0.929 . S
H440 C468 0.930 . S
H441 C469 0.929 . S
H442 C471 0.930 . S
H443 C448 0.930 . S
H444 C452 0.930 . S
O445 Co414 2.037 . S
O445 C465 1.234 . S
C446 O420 1.269 . S
C446 O421 1.257 . S
C447 H422 0.930 . S
C447 C450 1.388 . S
C447 C452 1.418 1_556 S
C448 H443 0.930 . S
C448 C451 1.404 1_554 S
C448 C452 1.353 . S
N449 Co414 2.145 . S
N449 C450 1.397 . S
N449 C451 1.334 . S
C450 H431 0.929 . S
C450 C447 1.388 . S
C450 N449 1.397 . S
C451 H432 0.929 . S
C451 C448 1.404 1_556 S
C451 N449 1.334 . S
C452 H444 0.930 . S
C452 C447 1.418 1_554 S
C452 C448 1.353 . S
C453 H423 0.930 . S
C453 N454 1.330 . S
C453 C455 1.446 . S
N454 Co413 2.151 . S
N454 C453 1.330 . S
N454 C458 1.418 . S
C455 H434 0.929 . S
C455 C453 1.446 . S
C455 C456 1.332 . S
C456 H436 0.931 . S
C456 C455 1.332 . S
C456 C457 1.267 . S
C457 H425 0.929 . S
C457 C456 1.267 . S
C457 C458 1.251 . S
C458 H428 0.929 . S
C458 N454 1.418 . S
C458 C457 1.251 . S
C459 H426 0.930 . S
C459 C461 1.406 . S
C459 C464 1.261 . S
C460 H427 0.930 . S
C460 N462 1.325 . S
C460 C463 1.357 . S
C461 H429 0.928 . S
C461 C459 1.406 . S
C461 N462 1.261 . S
N462 Co413 2.214 . S
N462 C460 1.325 . S
N462 C461 1.261 . S
C463 H433 0.931 . S
C463 C460 1.357 . S
C463 C464 1.312 . S
C464 H435 0.930 . S
C464 C459 1.261 . S
C464 C463 1.312 . S
C465 O437 1.214 . S
C465 O445 1.234 . S
C466 H438 0.929 . S
C466 C469 1.391 . S
C466 C471 1.391 1_655 S
C467 H439 0.929 . S
C467 C468 1.390 . S
C467 N470 1.391 . S
C468 H440 0.930 . S
C468 C467 1.390 . S
C468 C469 1.392 1_455 S
C469 H441 0.929 . S
C469 C466 1.391 . S
C469 C468 1.392 1_655 S
N470 Co414 2.257 . S
N470 C467 1.391 . S
N470 C471 1.388 . S
C471 H442 0.930 . S
C471 C466 1.391 1_455 S
C471 N470 1.388 . S
Co472 O474 2.143 . S
Co472 O480 2.074 . S
Co472 O483 2.093 . S
Co472 O496 2.097 . S
Co472 N513 2.151 . S
Co472 N521 2.214 . S
Co473 O474 2.160 . S
Co473 O479 2.058 . S
Co473 O489 2.057 . S
Co473 O504 2.037 . S
Co473 N508 2.145 . S
Co473 N529 2.257 . S
O474 Co472 2.143 . S
O474 Co473 2.160 . S
C475 O476 1.278 . S
C475 O483 1.224 . S
O476 C475 1.278 . S
C477 O478 1.245 . S
C477 O489 1.232 . S
O478 C477 1.245 . S
O479 Co473 2.058 . S
O479 C505 1.269 . S
O480 Co472 2.074 . S
O480 C505 1.257 . S
H481 C506 0.930 . S
H482 C512 0.930 . S
O483 Co472 2.093 . S
O483 C475 1.224 . S
H484 C516 0.929 . S
H485 C518 0.930 . S
H486 C519 0.930 . S
H487 C517 0.929 . S
H488 C520 0.928 . S
O489 Co473 2.057 . S
O489 C477 1.232 . S
H490 C509 0.929 . S
H491 C510 0.929 . S
H492 C522 0.931 . S
H493 C514 0.929 . S
H494 C523 0.930 . S
H495 C515 0.931 . S
O496 Co472 2.097 . S
O496 C524 1.214 . S
H497 C525 0.929 . S
H498 C526 0.929 . S
H499 C527 0.930 . S
H500 C528 0.929 . S
H501 C530 0.930 . S
H502 C507 0.930 . S
H503 C511 0.930 . S
O504 Co473 2.037 . S
O504 C524 1.234 . S
C505 O479 1.269 . S
C505 O480 1.257 . S
C506 H481 0.930 . S
C506 C509 1.388 . S
C506 C511 1.418 . S
C507 H502 0.930 . S
C507 C510 1.404 . S
C507 C511 1.353 . S
N508 Co473 2.145 . S
N508 C509 1.397 . S
N508 C510 1.334 . S
C509 H490 0.929 . S
C509 C506 1.388 . S
C509 N508 1.397 . S
C510 H491 0.929 . S
C510 C507 1.404 . S
C510 N508 1.334 . S
C511 H503 0.930 . S
C511 C506 1.418 . S
C511 C507 1.353 . S
C512 H482 0.930 . S
C512 N513 1.330 . S
C512 C514 1.446 . S
N513 Co472 2.151 . S
N513 C512 1.330 . S
N513 C517 1.418 . S
C514 H493 0.929 . S
C514 C512 1.446 . S
C514 C515 1.332 . S
C515 H495 0.931 . S
C515 C514 1.332 . S
C515 C516 1.267 . S
C516 H484 0.929 . S
C516 C515 1.267 . S
C516 C517 1.251 . S
C517 H487 0.929 . S
C517 N513 1.418 . S
C517 C516 1.251 . S
C518 H485 0.930 . S
C518 C520 1.406 1_554 S
C518 C523 1.261 . S
C519 H486 0.930 . S
C519 N521 1.325 . S
C519 C522 1.357 . S
C520 H488 0.928 . S
C520 C518 1.406 1_556 S
C520 N521 1.261 . S
N521 Co472 2.214 . S
N521 C519 1.325 . S
N521 C520 1.261 . S
C522 H492 0.931 . S
C522 C519 1.357 . S
C522 C523 1.312 1_556 S
C523 H494 0.930 . S
C523 C518 1.261 . S
C523 C522 1.312 1_554 S
C524 O496 1.214 . S
C524 O504 1.234 . S
C525 H497 0.929 . S
C525 C528 1.391 . S
C525 C530 1.391 . S
C526 H498 0.929 . S
C526 C527 1.390 . S
C526 N529 1.391 . S
C527 H499 0.930 . S
C527 C526 1.390 . S
C527 C528 1.392 . S
C528 H500 0.929 . S
C528 C525 1.391 . S
C528 C527 1.392 . S
N529 Co473 2.257 . S
N529 C526 1.391 . S
N529 C530 1.388 . S
C530 H501 0.930 . S
C530 C525 1.391 . S
C530 N529 1.388 . S
C170 C33 1.368 . S
C111 C52 1.382 1_565 S
C92 C151 1.355 1_655 S
C328 C229 1.369 . S
C288 C210 1.367 . S
C269 C347 1.371 . S
C387 C524 1.370 . S
C406 C465 1.378 . S
C446 C505 1.352 . S
C5 C418 1.510 . S
C62 C475 1.466 . S
C357 C123 1.489 . S
C239 C121 1.464 . S
C3 C298 1.466 . S
C180 C64 1.490 . S
C416 C300 1.490 1_455 S
C182 C477 1.511 . S
C359 C241 1.513 1_565 S
