# Generated by pormake.
# Topology wgm, (5)-cn, num edge types: 1
# Building blocks:
#     Node 0, Type 0, BuildingBlock: BEQFEK_clean_sbu_0, # of connection points: 5
#     Node 1, Type 0, BuildingBlock: BEQFEK_clean_sbu_0, # of connection points: 5
#     Node 2, Type 0, BuildingBlock: BEQFEK_clean_sbu_0, # of connection points: 5
#     Node 3, Type 0, BuildingBlock: BEQFEK_clean_sbu_0, # of connection points: 5
#     Node 4, Type 0, BuildingBlock: BEQFEK_clean_sbu_0, # of connection points: 5
#     Node 5, Type 0, BuildingBlock: BEQFEK_clean_sbu_0, # of connection points: 5
#     Node 6, Type 0, BuildingBlock: BEQFEK_clean_sbu_0, # of connection points: 5
#     Node 7, Type 0, BuildingBlock: BEQFEK_clean_sbu_0, # of connection points: 5
#     Node 8, Type 0, BuildingBlock: BEQFEK_clean_sbu_0, # of connection points: 5
#     Node 9, Type 0, BuildingBlock: BEQFEK_clean_sbu_0, # of connection points: 5
#     Node 10, Type 0, BuildingBlock: BEQFEK_clean_sbu_0, # of connection points: 5
#     Node 11, Type 0, BuildingBlock: BEQFEK_clean_sbu_0, # of connection points: 5
#     Node 12, Type 0, BuildingBlock: BEQFEK_clean_sbu_0, # of connection points: 5
#     Node 13, Type 0, BuildingBlock: BEQFEK_clean_sbu_0, # of connection points: 5
#     Node 14, Type 0, BuildingBlock: BEQFEK_clean_sbu_0, # of connection points: 5
#     Node 15, Type 0, BuildingBlock: BEQFEK_clean_sbu_0, # of connection points: 5
#     Node 16, Type 0, BuildingBlock: BEQFEK_clean_sbu_0, # of connection points: 5
#     Node 17, Type 0, BuildingBlock: BEQFEK_clean_sbu_0, # of connection points: 5
#     Node 18, Type 0, BuildingBlock: BEQFEK_clean_sbu_0, # of connection points: 5
#     Node 19, Type 0, BuildingBlock: BEQFEK_clean_sbu_0, # of connection points: 5
#     Node 20, Type 0, BuildingBlock: BEQFEK_clean_sbu_0, # of connection points: 5
#     Node 21, Type 0, BuildingBlock: BEQFEK_clean_sbu_0, # of connection points: 5
#     Node 22, Type 0, BuildingBlock: BEQFEK_clean_sbu_0, # of connection points: 5
#     Node 23, Type 0, BuildingBlock: BEQFEK_clean_sbu_0, # of connection points: 5
#     Node 24, Type 0, BuildingBlock: BEQFEK_clean_sbu_0, # of connection points: 5
#     Node 25, Type 0, BuildingBlock: BEQFEK_clean_sbu_0, # of connection points: 5
#     Node 26, Type 0, BuildingBlock: BEQFEK_clean_sbu_0, # of connection points: 5
#     Node 27, Type 0, BuildingBlock: BEQFEK_clean_sbu_0, # of connection points: 5
#     Node 28, Type 0, BuildingBlock: BEQFEK_clean_sbu_0, # of connection points: 5
#     Node 29, Type 0, BuildingBlock: BEQFEK_clean_sbu_0, # of connection points: 5
#     Node 30, Type 0, BuildingBlock: BEQFEK_clean_sbu_0, # of connection points: 5
#     Node 31, Type 0, BuildingBlock: BEQFEK_clean_sbu_0, # of connection points: 5
#     Edge 32, Type (0, 0), BuildingBlock: AJUNOK_clean_linker_0, # of connection points: 2
#     Edge 33, Type (0, 0), BuildingBlock: AJUNOK_clean_linker_0, # of connection points: 2
#     Edge 34, Type (0, 0), BuildingBlock: AJUNOK_clean_linker_0, # of connection points: 2
#     Edge 35, Type (0, 0), BuildingBlock: AJUNOK_clean_linker_0, # of connection points: 2
#     Edge 36, Type (0, 0), BuildingBlock: AJUNOK_clean_linker_0, # of connection points: 2
#     Edge 37, Type (0, 0), BuildingBlock: AJUNOK_clean_linker_0, # of connection points: 2
#     Edge 38, Type (0, 0), BuildingBlock: AJUNOK_clean_linker_0, # of connection points: 2
#     Edge 39, Type (0, 0), BuildingBlock: AJUNOK_clean_linker_0, # of connection points: 2
#     Edge 40, Type (0, 0), BuildingBlock: AJUNOK_clean_linker_0, # of connection points: 2
#     Edge 41, Type (0, 0), BuildingBlock: AJUNOK_clean_linker_0, # of connection points: 2
#     Edge 42, Type (0, 0), BuildingBlock: AJUNOK_clean_linker_0, # of connection points: 2
#     Edge 43, Type (0, 0), BuildingBlock: AJUNOK_clean_linker_0, # of connection points: 2
#     Edge 44, Type (0, 0), BuildingBlock: AJUNOK_clean_linker_0, # of connection points: 2
#     Edge 45, Type (0, 0), BuildingBlock: AJUNOK_clean_linker_0, # of connection points: 2
#     Edge 46, Type (0, 0), BuildingBlock: AJUNOK_clean_linker_0, # of connection points: 2
#     Edge 47, Type (0, 0), BuildingBlock: AJUNOK_clean_linker_0, # of connection points: 2
#     Edge 48, Type (0, 0), BuildingBlock: AJUNOK_clean_linker_0, # of connection points: 2
#     Edge 49, Type (0, 0), BuildingBlock: AJUNOK_clean_linker_0, # of connection points: 2
#     Edge 50, Type (0, 0), BuildingBlock: AJUNOK_clean_linker_0, # of connection points: 2
#     Edge 51, Type (0, 0), BuildingBlock: AJUNOK_clean_linker_0, # of connection points: 2
#     Edge 52, Type (0, 0), BuildingBlock: AJUNOK_clean_linker_0, # of connection points: 2
#     Edge 53, Type (0, 0), BuildingBlock: AJUNOK_clean_linker_0, # of connection points: 2
#     Edge 54, Type (0, 0), BuildingBlock: AJUNOK_clean_linker_0, # of connection points: 2
#     Edge 55, Type (0, 0), BuildingBlock: AJUNOK_clean_linker_0, # of connection points: 2
#     Edge 56, Type (0, 0), BuildingBlock: AJUNOK_clean_linker_0, # of connection points: 2
#     Edge 57, Type (0, 0), BuildingBlock: AJUNOK_clean_linker_0, # of connection points: 2
#     Edge 58, Type (0, 0), BuildingBlock: AJUNOK_clean_linker_0, # of connection points: 2
#     Edge 59, Type (0, 0), BuildingBlock: AJUNOK_clean_linker_0, # of connection points: 2
#     Edge 60, Type (0, 0), BuildingBlock: AJUNOK_clean_linker_0, # of connection points: 2
#     Edge 61, Type (0, 0), BuildingBlock: AJUNOK_clean_linker_0, # of connection points: 2
#     Edge 62, Type (0, 0), BuildingBlock: AJUNOK_clean_linker_0, # of connection points: 2
#     Edge 63, Type (0, 0), BuildingBlock: AJUNOK_clean_linker_0, # of connection points: 2
#     Edge 64, Type (0, 0), BuildingBlock: AJUNOK_clean_linker_0, # of connection points: 2
#     Edge 65, Type (0, 0), BuildingBlock: AJUNOK_clean_linker_0, # of connection points: 2
#     Edge 66, Type (0, 0), BuildingBlock: AJUNOK_clean_linker_0, # of connection points: 2
#     Edge 67, Type (0, 0), BuildingBlock: AJUNOK_clean_linker_0, # of connection points: 2
#     Edge 68, Type (0, 0), BuildingBlock: AJUNOK_clean_linker_0, # of connection points: 2
#     Edge 69, Type (0, 0), BuildingBlock: AJUNOK_clean_linker_0, # of connection points: 2
#     Edge 70, Type (0, 0), BuildingBlock: AJUNOK_clean_linker_0, # of connection points: 2
#     Edge 71, Type (0, 0), BuildingBlock: AJUNOK_clean_linker_0, # of connection points: 2
#     Edge 72, Type (0, 0), BuildingBlock: AJUNOK_clean_linker_0, # of connection points: 2
#     Edge 73, Type (0, 0), BuildingBlock: AJUNOK_clean_linker_0, # of connection points: 2
#     Edge 74, Type (0, 0), BuildingBlock: AJUNOK_clean_linker_0, # of connection points: 2
#     Edge 75, Type (0, 0), BuildingBlock: AJUNOK_clean_linker_0, # of connection points: 2
#     Edge 76, Type (0, 0), BuildingBlock: AJUNOK_clean_linker_0, # of connection points: 2
#     Edge 77, Type (0, 0), BuildingBlock: AJUNOK_clean_linker_0, # of connection points: 2
#     Edge 78, Type (0, 0), BuildingBlock: AJUNOK_clean_linker_0, # of connection points: 2
#     Edge 79, Type (0, 0), BuildingBlock: AJUNOK_clean_linker_0, # of connection points: 2
#     Edge 80, Type (0, 0), BuildingBlock: AJUNOK_clean_linker_0, # of connection points: 2
#     Edge 81, Type (0, 0), BuildingBlock: AJUNOK_clean_linker_0, # of connection points: 2
#     Edge 82, Type (0, 0), BuildingBlock: AJUNOK_clean_linker_0, # of connection points: 2
#     Edge 83, Type (0, 0), BuildingBlock: AJUNOK_clean_linker_0, # of connection points: 2
#     Edge 84, Type (0, 0), BuildingBlock: AJUNOK_clean_linker_0, # of connection points: 2
#     Edge 85, Type (0, 0), BuildingBlock: AJUNOK_clean_linker_0, # of connection points: 2
#     Edge 86, Type (0, 0), BuildingBlock: AJUNOK_clean_linker_0, # of connection points: 2
#     Edge 87, Type (0, 0), BuildingBlock: AJUNOK_clean_linker_0, # of connection points: 2
#     Edge 88, Type (0, 0), BuildingBlock: AJUNOK_clean_linker_0, # of connection points: 2
#     Edge 89, Type (0, 0), BuildingBlock: AJUNOK_clean_linker_0, # of connection points: 2
#     Edge 90, Type (0, 0), BuildingBlock: AJUNOK_clean_linker_0, # of connection points: 2
#     Edge 91, Type (0, 0), BuildingBlock: AJUNOK_clean_linker_0, # of connection points: 2
#     Edge 92, Type (0, 0), BuildingBlock: AJUNOK_clean_linker_0, # of connection points: 2
#     Edge 93, Type (0, 0), BuildingBlock: AJUNOK_clean_linker_0, # of connection points: 2
#     Edge 94, Type (0, 0), BuildingBlock: AJUNOK_clean_linker_0, # of connection points: 2
#     Edge 95, Type (0, 0), BuildingBlock: AJUNOK_clean_linker_0, # of connection points: 2
#     Edge 96, Type (0, 0), BuildingBlock: AJUNOK_clean_linker_0, # of connection points: 2
#     Edge 97, Type (0, 0), BuildingBlock: AJUNOK_clean_linker_0, # of connection points: 2
#     Edge 98, Type (0, 0), BuildingBlock: AJUNOK_clean_linker_0, # of connection points: 2
#     Edge 99, Type (0, 0), BuildingBlock: AJUNOK_clean_linker_0, # of connection points: 2
#     Edge 100, Type (0, 0), BuildingBlock: AJUNOK_clean_linker_0, # of connection points: 2
#     Edge 101, Type (0, 0), BuildingBlock: AJUNOK_clean_linker_0, # of connection points: 2
#     Edge 102, Type (0, 0), BuildingBlock: AJUNOK_clean_linker_0, # of connection points: 2
#     Edge 103, Type (0, 0), BuildingBlock: AJUNOK_clean_linker_0, # of connection points: 2
#     Edge 104, Type (0, 0), BuildingBlock: AJUNOK_clean_linker_0, # of connection points: 2
#     Edge 105, Type (0, 0), BuildingBlock: AJUNOK_clean_linker_0, # of connection points: 2
#     Edge 106, Type (0, 0), BuildingBlock: AJUNOK_clean_linker_0, # of connection points: 2
#     Edge 107, Type (0, 0), BuildingBlock: AJUNOK_clean_linker_0, # of connection points: 2
#     Edge 108, Type (0, 0), BuildingBlock: AJUNOK_clean_linker_0, # of connection points: 2
#     Edge 109, Type (0, 0), BuildingBlock: AJUNOK_clean_linker_0, # of connection points: 2
#     Edge 110, Type (0, 0), BuildingBlock: AJUNOK_clean_linker_0, # of connection points: 2
#     Edge 111, Type (0, 0), BuildingBlock: AJUNOK_clean_linker_0, # of connection points: 2
# Relax obj value: 0.071
# Max RMSD: 0.113
# Mean RMSD: 0.113
data_MOF--net-wgm--node1-BEQFEK_clean_sbu_0--edge1-AJUNOK_clean_linker_0
_symmetry_space_group_name_H-M    P1
_symmetry_Int_Tables_number       1
_symmetry_cell_setting            triclinic
loop_
_symmetry_equiv_pos_as_xyz
'x, y, z'
_cell_length_a     36.739864
_cell_length_b     36.714141
_cell_length_c     63.812877
_cell_angle_alpha  90.04141
_cell_angle_beta   89.994532
_cell_angle_gamma 89.991677
loop_
_atom_site_label
_atom_site_type_symbol
_atom_site_fract_x
_atom_site_fract_y
_atom_site_fract_z
_atom_type_partial_charge
Co0 Co 0.21849 0.1078 0.31778 0.0
Co1 Co 0.2146 0.17347 0.34923 0.0
C2 C 0.15483 0.11855 0.34687 0.0
O3 O 0.1723 0.10096 0.33298 0.0
O4 O 0.16711 0.14826 0.35436 0.0
C5 C 0.1915 0.05684 0.28778 0.0
O6 O 0.15981 0.0675 0.29508 0.0
C7 C 0.18912 0.24282 0.36816 0.0
C8 C 0.23762 0.25887 0.38638 0.0
C9 C 0.20233 0.26947 0.38169 0.0
N10 N 0.21542 0.21776 0.36512 0.0
N11 N 0.24432 0.22766 0.37603 0.0
C12 C 0.15172 0.24036 0.35894 0.0
H13 H 0.14568 0.21234 0.35364 0.0
H14 H 0.14997 0.25853 0.34511 0.0
H15 H 0.13103 0.24928 0.37054 0.0
C16 C 0.22983 0.16748 0.28751 0.0
N17 N 0.22299 0.15547 0.30704 0.0
N18 N 0.22245 0.18328 0.32007 0.0
C19 C 0.22952 0.214 0.30915 0.0
C20 C 0.2345 0.20499 0.28815 0.0
C21 C 0.23097 0.14331 0.26862 0.0
H22 H 0.20608 0.12626 0.26819 0.0
H23 H 0.23263 0.1592 0.25387 0.0
H24 H 0.25478 0.12482 0.26978 0.0
O25 O 0.25879 0.09688 0.33713 0.0
O26 O 0.25429 0.14146 0.36052 0.0
H27 H 0.247 0.27034 0.30785 0.0
H28 H 0.20743 0.26139 0.32379 0.0
C29 C 0.23436 0.25076 0.3189 0.0
H30 H 0.25174 0.24845 0.33303 0.0
H31 H 0.26859 0.21292 0.37655 0.0
O32 O 0.22033 0.07123 0.29502 0.0
C33 C 0.26925 0.11222 0.35397 0.0
Co34 Co 0.14828 0.96627 0.56583 0.0
Co35 Co 0.08369 0.96308 0.59784 0.0
C36 C 0.1372 0.90254 0.59503 0.0
O37 O 0.15489 0.92029 0.5813 0.0
O38 O 0.10735 0.91459 0.60245 0.0
C39 C 0.19835 0.93801 0.53562 0.0
O40 O 0.18789 0.90655 0.54334 0.0
C41 C 0.01373 0.94032 0.61661 0.0
C42 C 1.0032 0.98585 0.63838 0.0
C43 C 0.98887 0.95297 0.63149 0.0
N44 N 0.04089 0.96477 0.61487 0.0
N45 N 0.03445 0.99181 0.628 0.0
C46 C 0.01157 0.90651 0.60358 0.0
H47 H 0.02921 0.90901 0.58953 0.0
H48 H 0.98304 0.9012 0.59875 0.0
H49 H 0.02142 0.88303 0.61294 0.0
C50 C 0.08812 0.97901 0.53614 0.0
N51 N 0.10032 0.9716 0.55557 0.0
N52 N 0.07281 0.97164 0.56879 0.0
C53 C 0.0421 0.9798 0.55809 0.0
C54 C 0.05082 0.98475 0.53704 0.0
C55 C 0.11194 0.97982 0.51711 0.0
H56 H 0.12847 0.95458 0.51651 0.0
H57 H 0.09583 0.98195 0.50247 0.0
H58 H 0.1309 1.00326 0.51824 0.0
O59 O 0.16064 0.00673 0.58479 0.0
O60 O 0.11713 1.00192 0.60873 0.0
H61 H 0.98783 1.00257 0.5578 0.0
H62 H 0.99236 0.95917 0.57064 0.0
C63 C 0.00569 0.98586 0.56801 0.0
H64 H 0.00896 0.99967 0.58334 0.0
H65 H 0.05144 0.01433 0.6299 0.0
O66 O 0.18418 0.96711 0.5427 0.0
C67 C 0.1461 0.01695 0.6019 0.0
Co68 Co 0.29214 0.90153 0.81601 0.0
Co69 Co 0.29409 0.83627 0.84784 0.0
C70 C 0.35591 0.88925 0.84439 0.0
O71 O 0.34008 0.90657 0.82975 0.0
O72 O 0.34107 0.86159 0.8528 0.0
C73 C 0.31515 0.94212 0.78011 0.0
O74 O 0.34097 0.91747 0.77887 0.0
C75 C 0.32038 0.76821 0.86843 0.0
C76 C 0.26981 0.74934 0.88364 0.0
C77 C 0.30623 0.74066 0.88098 0.0
N78 N 0.29345 0.79192 0.86386 0.0
N79 N 0.26336 0.78036 0.87306 0.0
C80 C 0.35906 0.7723 0.86141 0.0
H81 H 0.36578 0.80107 0.85827 0.0
H82 H 0.36309 0.75679 0.84666 0.0
H83 H 0.37801 0.76138 0.87341 0.0
C84 C 0.27657 0.84107 0.78612 0.0
N85 N 0.28487 0.85382 0.80537 0.0
N86 N 0.28619 0.82633 0.81863 0.0
C87 C 0.27914 0.7952 0.80809 0.0
C88 C 0.27286 0.80355 0.78716 0.0
C89 C 0.26926 0.86451 0.76741 0.0
H90 H 0.25674 0.89062 0.77232 0.0
H91 H 0.29532 0.87028 0.75932 0.0
H92 H 0.2509 0.85056 0.75617 0.0
O93 O 0.25333 0.91366 0.8361 0.0
O94 O 0.25461 0.86839 0.85918 0.0
H95 H 0.257 0.75673 0.82975 0.0
H96 H 0.27493 0.73637 0.80604 0.0
C97 C 0.27897 0.75816 0.81786 0.0
H98 H 0.30526 0.75349 0.82589 0.0
H99 H 0.23836 0.79375 0.87215 0.0
O100 O 0.29094 0.93963 0.79422 0.0
C101 C 0.2413 0.89836 0.85258 0.0
Co102 Co 0.35781 0.04044 0.06759 0.0
Co103 Co 0.42387 0.04555 0.09854 0.0
C104 C 0.36974 0.10545 0.0959 0.0
O105 O 0.35118 0.0873 0.08269 0.0
O106 O 0.39971 0.0934 0.10313 0.0
C107 C 0.31006 0.06766 0.03614 0.0
O108 O 0.32413 0.09906 0.04179 0.0
C109 C 0.49028 0.07168 0.11984 0.0
C110 C 0.51605 0.01979 0.1292 0.0
C111 C 0.52096 0.05718 0.12942 0.0
N112 N 0.46863 0.04402 0.11383 0.0
N113 N 0.48407 0.01312 0.11964 0.0
C114 C 0.48036 0.11101 0.11752 0.0
H115 H 0.47714 0.11758 0.10064 0.0
H116 H 0.50085 0.12927 0.12474 0.0
H117 H 0.45384 0.11592 0.12531 0.0
C118 C 0.41732 0.02742 0.03717 0.0
N119 N 0.40531 0.03528 0.0566 0.0
N120 N 0.43326 0.03775 0.06941 0.0
C121 C 0.46411 0.0321 0.05839 0.0
C122 C 0.45503 0.02502 0.03761 0.0
C123 C 0.39279 0.01974 0.01896 0.0
H124 H 0.37031 1.00158 0.024 0.0
H125 H 0.3806 0.04569 0.01348 0.0
H126 H 0.40768 0.00679 0.0058 0.0
O127 O 0.34714 1.00046 0.087 0.0
O128 O 0.39189 0.006 0.11017 0.0
H129 H 0.50652 0.01105 0.07783 0.0
H130 H 0.52271 0.03512 0.05495 0.0
C131 C 0.50163 0.0347 0.0674 0.0
H132 H 0.504 0.0599 0.07686 0.0
H133 H 0.47298 0.98741 0.11681 0.0
O134 O 0.32115 0.03873 0.04498 0.0
C135 C 0.36279 0.99053 0.10383 0.0
Co136 Co 0.22034 0.90019 0.19061 0.0
Co137 Co 0.21646 0.83625 0.15816 0.0
C138 C 0.15535 0.88961 0.16251 0.0
O139 O 0.17257 0.90662 0.17677 0.0
O140 O 0.16902 0.86157 0.15376 0.0
C141 C 0.1945 0.94197 0.22487 0.0
O142 O 0.16481 0.92292 0.2215 0.0
C143 C 0.18888 0.77057 0.13672 0.0
C144 C 0.23975 0.74614 0.12471 0.0
C145 C 0.2025 0.7407 0.12589 0.0
N146 N 0.21693 0.79227 0.14203 0.0
N147 N 0.2472 0.77762 0.13465 0.0
C148 C 0.14985 0.77967 0.141 0.0
H149 H 0.14334 0.80635 0.1338 0.0
H150 H 0.14563 0.78226 0.15816 0.0
H151 H 0.13102 0.75903 0.13443 0.0
C152 C 0.23334 0.8392 0.21987 0.0
N153 N 0.22613 0.85227 0.2006 0.0
N154 N 0.22405 0.82505 0.18722 0.0
C155 C 0.2295 0.79358 0.19772 0.0
C156 C 0.23544 0.80154 0.21877 0.0
C157 C 0.24088 0.8626 0.23859 0.0
H158 H 0.25782 0.88626 0.23396 0.0
H159 H 0.21475 0.87299 0.24493 0.0
H160 H 0.25514 0.84716 0.25108 0.0
O161 O 0.25968 0.91232 0.17098 0.0
O162 O 0.25648 0.86822 0.14722 0.0
H163 H 0.25109 0.75375 0.1767 0.0
H164 H 0.22987 0.73462 0.19978 0.0
C165 C 0.22818 0.75659 0.1879 0.0
H166 H 0.2024 0.75354 0.17907 0.0
H167 H 0.27303 0.78892 0.13665 0.0
O168 O 0.22238 0.93589 0.21365 0.0
C169 C 0.27099 0.89736 0.15422 0.0
Co170 Co 0.35782 0.96631 0.43974 0.0
Co171 Co 0.423 0.96463 0.40809 0.0
C172 C 0.37008 0.90275 0.41083 0.0
O173 O 0.35242 0.91876 0.42531 0.0
O174 O 0.39824 0.91726 0.40274 0.0
C175 C 0.31295 0.93918 0.47254 0.0
O176 O 0.32991 0.90857 0.46822 0.0
C177 C 0.48922 0.93759 0.38709 0.0
C178 C 0.51217 0.98834 0.37401 0.0
C179 C 0.5181 0.95113 0.37538 0.0
N180 N 0.46739 0.96558 0.3924 0.0
N181 N 0.48128 0.9958 0.38451 0.0
C182 C 0.48078 0.89866 0.39209 0.0
H183 H 0.47423 0.89606 0.409 0.0
H184 H 0.50332 0.88003 0.38787 0.0
H185 H 0.45632 0.8903 0.38313 0.0
C186 C 0.41742 0.98049 0.46981 0.0
N187 N 0.40527 0.9727 0.45041 0.0
N188 N 0.43295 0.97165 0.43733 0.0
C189 C 0.46382 0.97836 0.44816 0.0
C190 C 0.45497 0.98437 0.4691 0.0
C191 C 0.39309 0.98697 0.48826 0.0
H192 H 0.36967 1.00414 0.48349 0.0
H193 H 0.38232 0.96047 0.49384 0.0
H194 H 0.40773 1.00056 0.5013 0.0
O195 O 0.34593 0.00613 0.42025 0.0
O196 O 0.39109 0.00467 0.39711 0.0
H197 H 0.50363 1.00148 0.4277 0.0
H198 H 0.52262 0.98012 0.45082 0.0
C199 C 0.50108 0.97822 0.43869 0.0
H200 H 0.50503 0.95274 0.42965 0.0
H201 H 0.46961 0.02154 0.38628 0.0
O202 O 0.32136 0.96772 0.46242 0.0
C203 C 0.36139 0.01837 0.40386 0.0
Co204 Co 0.28859 0.10679 0.68912 0.0
Co205 Co 0.29241 0.17179 0.65738 0.0
C206 C 0.35449 0.1201 0.66206 0.0
O207 O 0.33688 0.10247 0.67587 0.0
O208 O 0.3407 0.14802 0.65327 0.0
C209 C 0.31214 0.06665 0.72492 0.0
O210 O 0.33715 0.09208 0.72635 0.0
C211 C 0.31888 0.23822 0.63594 0.0
C212 C 0.2673 0.26203 0.62458 0.0
C213 C 0.30458 0.26776 0.62507 0.0
N214 N 0.29121 0.21631 0.6417 0.0
N215 N 0.26052 0.23068 0.63477 0.0
C216 C 0.3581 0.22948 0.63983 0.0
H217 H 0.36478 0.20324 0.63212 0.0
H218 H 0.36265 0.22603 0.65691 0.0
H219 H 0.37663 0.2506 0.63354 0.0
C220 C 0.27198 0.16699 0.71885 0.0
N221 N 0.28089 0.15428 0.69971 0.0
N222 N 0.2833 0.18178 0.68652 0.0
C223 C 0.27659 0.21298 0.69707 0.0
C224 C 0.26908 0.20459 0.71786 0.0
C225 C 0.26362 0.14349 0.73739 0.0
H226 H 0.25149 0.11735 0.73221 0.0
H227 H 0.28921 0.13771 0.74599 0.0
H228 H 0.24459 0.15742 0.74827 0.0
O229 O 0.25028 0.09453 0.66889 0.0
O230 O 0.25352 0.13917 0.64549 0.0
H231 H 0.25539 0.25375 0.67656 0.0
H232 H 0.27726 0.27183 0.6997 0.0
C233 C 0.27845 0.25019 0.68758 0.0
H234 H 0.30416 0.25306 0.67865 0.0
H235 H 0.23488 0.21917 0.63713 0.0
O236 O 0.28782 0.06865 0.71085 0.0
C237 C 0.2393 0.10962 0.65212 0.0
Co238 Co 0.15081 0.04074 0.9403 0.0
Co239 Co 0.08684 0.04454 0.90809 0.0
C240 C 0.13863 0.10668 0.913 0.0
O241 O 0.1562 0.08909 0.92687 0.0
O242 O 0.11051 0.09304 0.90434 0.0
C243 C 0.19337 0.06652 0.97444 0.0
O244 O 0.17492 0.09661 0.97109 0.0
C245 C 0.01784 0.06888 0.88902 0.0
C246 C 1.00365 0.02111 0.86967 0.0
C247 C 0.99135 0.05545 0.8754 0.0
N248 N 0.04389 0.0434 0.8913 0.0
N249 N 0.03536 0.01507 0.87955 0.0
C250 C 0.01796 0.10432 0.90061 0.0
H251 H 0.03643 0.10284 0.91435 0.0
H252 H 0.99004 0.11147 0.90583 0.0
H253 H 0.02805 0.1261 0.89007 0.0
C254 C 0.09023 0.02466 0.96944 0.0
N255 N 0.10295 0.03332 0.95029 0.0
N256 N 0.07568 0.03453 0.93692 0.0
C257 C 0.0446 0.02641 0.94725 0.0
C258 C 0.05285 0.02002 0.96822 0.0
C259 C 0.11385 0.01855 0.98823 0.0
H260 H 0.13775 1.00179 0.98378 0.0
H261 H 0.12387 0.04522 0.99402 0.0
H262 H 0.09881 0.00471 1.00103 0.0
O263 O 0.1642 1.00224 0.92013 0.0
O264 O 0.11999 0.0063 0.89658 0.0
H265 H 0.00838 0.007 0.92344 0.0
H266 H 0.98647 0.01588 0.94838 0.0
C267 C 0.00773 0.02524 0.9373 0.0
H268 H 1.00032 0.05291 0.93192 0.0
H269 H 0.05105 0.99145 0.87842 0.0
O270 O 0.18659 0.03865 0.96332 0.0
C271 C 0.1495 0.99196 0.90307 0.0
Co272 Co 0.78772 0.90052 0.6909 0.0
Co273 Co 0.79306 0.83656 0.65869 0.0
C274 C 0.85312 0.89042 0.66279 0.0
O275 O 0.83501 0.90776 0.67656 0.0
O276 O 0.84108 0.86096 0.65487 0.0
C277 C 0.81289 0.93816 0.72677 0.0
O278 O 0.8412 0.91686 0.72394 0.0
C279 C 0.81994 0.76923 0.63904 0.0
C280 C 0.77305 0.75333 0.61941 0.0
C281 C 0.80811 0.74288 0.62484 0.0
N282 N 0.79314 0.7938 0.64166 0.0
N283 N 0.76531 0.78427 0.62977 0.0
C284 C 0.85481 0.77032 0.65116 0.0
H285 H 0.85096 0.78539 0.66608 0.0
H286 H 0.86484 0.74238 0.65442 0.0
H287 H 0.87559 0.78528 0.64195 0.0
C288 C 0.77346 0.83912 0.72006 0.0
N289 N 0.78174 0.85221 0.70091 0.0
N290 N 0.78359 0.82497 0.6875 0.0
C291 C 0.77639 0.79361 0.69781 0.0
C292 C 0.77001 0.80162 0.71882 0.0
C293 C 0.76606 0.86225 0.73892 0.0
H294 H 0.75078 0.887 0.7343 0.0
H295 H 0.79231 0.87063 0.74602 0.0
H296 H 0.75014 0.84717 0.75087 0.0
O297 O 0.74844 0.91312 0.67121 0.0
O298 O 0.75422 0.86951 0.64733 0.0
H299 H 0.75763 0.75739 0.67381 0.0
H300 H 0.76619 0.73541 0.69875 0.0
C301 C 0.77563 0.75677 0.68776 0.0
H302 H 0.80339 0.74951 0.68248 0.0
H303 H 0.74093 0.79877 0.62885 0.0
O304 O 0.78614 0.9358 0.71423 0.0
C305 C 0.73893 0.89851 0.65397 0.0
Co306 Co 0.85693 0.04293 0.43982 0.0
Co307 Co 0.921 0.04676 0.40764 0.0
C308 C 0.86788 0.10756 0.41136 0.0
O309 O 0.85038 0.08983 0.4252 0.0
O310 O 0.89735 0.0953 0.40357 0.0
C311 C 0.79067 0.05579 0.46124 0.0
O312 O 0.78167 0.07025 0.44315 0.0
C313 C 0.99121 0.06996 0.38972 0.0
C314 C 1.0025 0.02507 0.36764 0.0
C315 C 0.01675 0.05753 0.37521 0.0
N316 N 0.96379 0.04572 0.3907 0.0
N317 N 0.97061 0.01911 0.37735 0.0
C318 C 0.99311 0.10322 0.40323 0.0
H319 H 0.97466 0.10045 0.41692 0.0
H320 H 0.02142 0.10795 0.40866 0.0
H321 H 0.98413 0.1272 0.39401 0.0
C322 C 0.91747 0.02966 0.46922 0.0
N323 N 0.90493 0.037 0.44985 0.0
N324 N 0.93226 0.03728 0.43651 0.0
C325 C 0.96318 0.02935 0.44707 0.0
C326 C 0.95482 0.02454 0.46818 0.0
C327 C 0.8939 0.02812 0.48833 0.0
H328 H 0.87602 0.05246 0.48882 0.0
H329 H 0.91024 0.02713 0.50294 0.0
H330 H 0.87627 1.00363 0.48746 0.0
O331 O 0.84386 1.00345 0.42027 0.0
O332 O 0.88732 0.00861 0.39629 0.0
H333 H 0.01726 0.00618 0.44709 0.0
H334 H 0.01297 0.04965 0.43435 0.0
C335 C 0.99941 0.02308 0.43697 0.0
H336 H 0.99585 0.00935 0.42164 0.0
H337 H 0.95358 0.99674 0.37496 0.0
O338 O 0.82208 0.04182 0.46336 0.0
C339 C 0.85815 0.99379 0.40297 0.0
Co340 Co 0.71887 0.10841 0.18925 0.0
Co341 Co 0.71813 0.17284 0.15685 0.0
C342 C 0.65543 0.12038 0.16078 0.0
O343 O 0.67103 0.10301 0.1755 0.0
O344 O 0.67064 0.14778 0.15225 0.0
C345 C 0.69306 0.06457 0.22295 0.0
O346 O 0.66225 0.08135 0.21895 0.0
C347 C 0.69201 0.24159 0.13748 0.0
C348 C 0.73994 0.25738 0.11871 0.0
C349 C 0.70473 0.26796 0.12362 0.0
N350 N 0.71851 0.21673 0.1405 0.0
N351 N 0.74706 0.22646 0.12924 0.0
C352 C 0.65487 0.23925 0.14705 0.0
H353 H 0.64884 0.21125 0.15236 0.0
H354 H 0.65362 0.25735 0.16095 0.0
H355 H 0.63387 0.24826 0.13568 0.0
C356 C 0.73308 0.16904 0.21869 0.0
N357 N 0.7259 0.15631 0.19932 0.0
N358 N 0.72629 0.18352 0.1859 0.0
C359 C 0.73407 0.21453 0.19639 0.0
C360 C 0.73871 0.20633 0.2175 0.0
C361 C 0.73323 0.14593 0.23801 0.0
H362 H 0.7062 0.13292 0.2398 0.0
H363 H 0.73886 0.16203 0.25235 0.0
H364 H 0.75389 0.12407 0.23634 0.0
O365 O 0.7578 0.09543 0.16924 0.0
O366 O 0.75721 0.14012 0.14577 0.0
H367 H 0.75211 0.27069 0.19708 0.0
H368 H 0.71257 0.26157 0.18114 0.0
C369 C 0.73936 0.25084 0.18621 0.0
H370 H 0.75678 0.24779 0.17213 0.0
H371 H 0.77139 0.21182 0.12863 0.0
O372 O 0.72117 0.07264 0.21234 0.0
C373 C 0.7701 0.11015 0.15263 0.0
Co374 Co 0.65035 0.97212 0.93969 0.0
Co375 Co 0.58499 0.96677 0.9083 0.0
C376 C 0.63825 0.90616 0.91223 0.0
O377 O 0.65682 0.92434 0.92544 0.0
O378 O 0.6088 0.91861 0.90455 0.0
C379 C 0.69013 0.94725 0.97498 0.0
O380 O 0.66894 0.9187 0.97268 0.0
C381 C 0.51938 0.94008 0.88648 0.0
C382 C 0.49362 0.99168 0.8766 0.0
C383 C 0.48893 0.95426 0.87651 0.0
N384 N 0.54068 0.96795 0.89258 0.0
N385 N 0.52526 0.99868 0.88645 0.0
C386 C 0.52941 0.90083 0.88909 0.0
H387 H 0.5562 0.89592 0.8816 0.0
H388 H 0.5321 0.89452 0.90602 0.0
H389 H 0.50926 0.88236 0.88173 0.0
C390 C 0.58985 0.98627 0.96958 0.0
N391 N 0.60249 0.97832 0.95027 0.0
N392 N 0.57485 0.97553 0.93725 0.0
C393 C 0.54365 0.98095 0.94801 0.0
C394 C 0.55214 0.98791 0.96885 0.0
C395 C 0.61354 0.99497 0.988 0.0
H396 H 0.63765 0.01075 0.98284 0.0
H397 H 0.62306 0.96921 0.99522 0.0
H398 H 0.59848 0.01085 1.0 0.0
O399 O 0.66212 0.01114 0.91977 0.0
O400 O 0.6176 0.00556 0.89646 0.0
H401 H 0.50184 1.0018 0.9281 0.0
H402 H 0.48495 0.9781 0.95091 0.0
C403 C 0.50639 0.97828 0.93867 0.0
H404 H 0.50424 0.95295 0.92931 0.0
H405 H 0.53613 0.02448 0.88926 0.0
O406 O 0.68642 0.97404 0.96259 0.0
C407 C 0.64688 0.02075 0.90275 0.0
Co408 Co 0.79191 0.1078 0.81609 0.0
Co409 Co 0.79522 0.1728 0.84807 0.0
C410 C 0.8552 0.11826 0.84552 0.0
O411 O 0.8381 0.10084 0.83139 0.0
O412 O 0.84264 0.14771 0.8532 0.0
C413 C 0.80398 0.04048 0.79616 0.0
O414 O 0.81507 0.03199 0.81509 0.0
C415 C 0.8217 0.24046 0.8679 0.0
C416 C 0.77159 0.26147 0.88277 0.0
C417 C 0.80807 0.26929 0.87965 0.0
N418 N 0.79431 0.21707 0.86397 0.0
N419 N 0.7645 0.22974 0.87301 0.0
C420 C 0.86041 0.2336 0.8617 0.0
H421 H 0.86238 0.23235 0.84436 0.0
H422 H 0.87909 0.25472 0.8679 0.0
H423 H 0.86916 0.20684 0.86793 0.0
C424 C 0.78128 0.16802 0.78624 0.0
N425 N 0.78761 0.15561 0.80574 0.0
N426 N 0.78847 0.1832 0.81891 0.0
C427 C 0.78253 0.21424 0.80809 0.0
C428 C 0.77782 0.2056 0.78701 0.0
C429 C 0.77887 0.14406 0.76731 0.0
H430 H 0.75446 0.12641 0.76864 0.0
H431 H 0.80313 0.1261 0.76665 0.0
H432 H 0.77732 0.16011 0.75261 0.0
O433 O 0.75116 0.09655 0.83499 0.0
O434 O 0.75498 0.14071 0.85874 0.0
H435 H 0.75897 0.24935 0.83117 0.0
H436 H 0.76867 0.27162 0.80661 0.0
C437 C 0.77851 0.25101 0.81797 0.0
H438 H 0.8052 0.25981 0.82432 0.0
H439 H 0.73924 0.21679 0.87241 0.0
O440 O 0.79152 0.07223 0.79283 0.0
C441 C 0.74001 0.11178 0.85172 0.0
Co442 Co 0.64891 0.04126 0.56637 0.0
Co443 Co 0.58491 0.04483 0.59866 0.0
C444 C 0.63728 0.1068 0.59395 0.0
O445 O 0.65447 0.08967 0.5797 0.0
O446 O 0.60957 0.09279 0.60285 0.0
C447 C 0.68831 0.06479 0.53051 0.0
O448 O 0.66709 0.09347 0.53215 0.0
C449 C 0.51887 0.0713 0.6204 0.0
C450 C 0.496 0.01977 0.6325 0.0
C451 C 0.48978 0.05697 0.63165 0.0
N452 N 0.54098 0.04371 0.61478 0.0
N453 N 0.52721 0.01306 0.62216 0.0
C454 C 0.5269 0.11051 0.61593 0.0
H455 H 0.55368 0.11767 0.62279 0.0
H456 H 0.52882 0.1146 0.59873 0.0
H457 H 0.50614 0.12902 0.62265 0.0
C458 C 0.58812 0.02618 0.53709 0.0
N459 N 0.60111 0.03421 0.55629 0.0
N460 N 0.57385 0.03631 0.56963 0.0
C461 C 0.54248 0.03011 0.55916 0.0
C462 C 0.55052 0.02366 0.53817 0.0
C463 C 0.61144 0.01809 0.51841 0.0
H464 H 0.6359 1.00256 0.52327 0.0
H465 H 0.62034 0.04408 0.51121 0.0
H466 H 0.59632 1.00213 0.50647 0.0
O467 O 0.66174 1.00267 0.58639 0.0
O468 O 0.61742 0.00553 0.60998 0.0
H469 H 0.50295 0.00815 0.58018 0.0
H470 H 0.48361 0.02896 0.55704 0.0
C471 C 0.5055 0.03105 0.56895 0.0
H472 H 0.50212 0.05686 0.57775 0.0
H473 H 0.53899 0.98747 0.61997 0.0
O474 O 0.68459 0.03877 0.54341 0.0
C475 C 0.64689 0.99143 0.60318 0.0
Co476 Co 0.71576 0.89868 0.3154 0.0
Co477 Co 0.71486 0.83626 0.34878 0.0
C478 C 0.65081 0.88576 0.34303 0.0
O479 O 0.66735 0.90291 0.3286 0.0
O480 O 0.6658 0.85897 0.35233 0.0
C481 C 0.69931 0.96258 0.2925 0.0
O482 O 0.68093 0.97021 0.30961 0.0
C483 C 0.69171 0.76699 0.36775 0.0
C484 C 0.73626 0.75672 0.39017 0.0
C485 C 0.70373 0.7423 0.38284 0.0
N486 N 0.71616 0.79416 0.36628 0.0
N487 N 0.74261 0.78793 0.37981 0.0
C488 C 0.65859 0.76455 0.35419 0.0
H489 H 0.66175 0.78199 0.3401 0.0
H490 H 0.65357 0.73593 0.34939 0.0
H491 H 0.63465 0.7745 0.36311 0.0
C492 C 0.73191 0.83733 0.28709 0.0
N493 N 0.72428 0.8506 0.30625 0.0
N494 N 0.72472 0.82393 0.32003 0.0
C495 C 0.73324 0.79267 0.30993 0.0
C496 C 0.73785 0.80015 0.28871 0.0
C497 C 0.73246 0.85997 0.26759 0.0
H498 H 0.75602 0.87885 0.26821 0.0
H499 H 0.70732 0.87666 0.26681 0.0
H500 H 0.73436 0.84297 0.25326 0.0
O501 O 0.75392 0.91413 0.33532 0.0
O502 O 0.75239 0.87092 0.35963 0.0
H503 H 0.75336 0.76109 0.33575 0.0
H504 H 0.75631 0.73854 0.31058 0.0
C505 C 0.73954 0.75686 0.32051 0.0
H506 H 0.71299 0.74347 0.32342 0.0
H507 H 0.76504 0.80497 0.38195 0.0
O508 O 0.71688 0.93283 0.29146 0.0
C509 C 0.76543 0.90056 0.35243 0.0
Co510 Co 0.85929 0.96468 0.06617 0.0
Co511 Co 0.92443 0.9629 0.09815 0.0
C512 C 0.87099 0.90125 0.09503 0.0
O513 O 0.85388 0.91689 0.08022 0.0
O514 O 0.89881 0.91596 0.1034 0.0
C515 C 0.79371 0.94966 0.04401 0.0
O516 O 0.78595 0.93145 0.06115 0.0
C517 C 0.99281 0.93779 0.11864 0.0
C518 C 0.01104 0.98878 0.13371 0.0
C519 C 0.0203 0.95248 0.13103 0.0
N520 N 0.96861 0.9643 0.11419 0.0
N521 N 0.97976 0.99464 0.1233 0.0
C522 C 0.98912 0.89898 0.11171 0.0
H523 H 0.96036 0.89195 0.10872 0.0
H524 H 0.00446 0.89504 0.09691 0.0
H525 H 1.00045 0.88025 0.1237 0.0
C526 C 0.91939 0.97769 0.0364 0.0
N527 N 0.90705 0.97087 0.05587 0.0
N528 N 0.93462 0.97023 0.06903 0.0
C529 C 0.96555 0.97684 0.05823 0.0
C530 C 0.95693 0.98157 0.03718 0.0
C531 C 0.89516 0.98317 0.01781 0.0
H532 H 0.87412 1.00377 0.02169 0.0
H533 H 0.88101 0.95723 0.01415 0.0
H534 H 0.91055 0.99243 0.00384 0.0
O535 O 0.84666 1.00407 0.0861 0.0
O536 O 0.89222 1.00243 0.10899 0.0
H537 H 1.00322 1.00017 0.07996 0.0
H538 H 0.02412 0.98358 0.05609 0.0
C539 C 1.00261 0.9784 0.06791 0.0
H540 H 0.00842 0.95216 0.07577 0.0
H541 H 0.96595 0.01943 0.1224 0.0
O542 O 0.82398 0.96624 0.04277 0.0
C543 C 0.86212 0.01578 0.10266 0.0
Co544 Co 0.71915 0.60934 0.81828 0.0
Co545 Co 0.71407 0.67434 0.84991 0.0
C546 C 0.65429 0.62013 0.84669 0.0
O547 O 0.67262 0.60236 0.83323 0.0
O548 O 0.66587 0.65016 0.85414 0.0
C549 C 0.69178 0.56184 0.7867 0.0
O550 O 0.66045 0.57572 0.7926 0.0
C551 C 0.68787 0.74267 0.8688 0.0
C552 C 0.73468 0.75835 0.88857 0.0
C553 C 0.69984 0.76914 0.88292 0.0
N554 N 0.71437 0.71767 0.8665 0.0
N555 N 0.74216 0.72711 0.87844 0.0
C556 C 0.65316 0.74176 0.85654 0.0
H557 H 0.65708 0.7265 0.84169 0.0
H558 H 0.64342 0.76976 0.85314 0.0
H559 H 0.63213 0.72706 0.86571 0.0
C560 C 0.73099 0.66932 0.78828 0.0
N561 N 0.72407 0.65716 0.80777 0.0
N562 N 0.72303 0.68489 0.82085 0.0
C563 C 0.72976 0.71577 0.80997 0.0
C564 C 0.73461 0.7069 0.78892 0.0
C565 C 0.73664 0.64497 0.76973 0.0
H566 H 0.75568 0.62271 0.77396 0.0
H567 H 0.71026 0.63245 0.7653 0.0
H568 H 0.74775 0.66006 0.75611 0.0
O569 O 0.75901 0.5979 0.83771 0.0
O570 O 0.75296 0.64158 0.86153 0.0
H571 H 0.74816 0.75215 0.83403 0.0
H572 H 0.74299 0.77332 0.80858 0.0
C573 C 0.73149 0.75296 0.81955 0.0
H574 H 0.70366 0.76181 0.82384 0.0
H575 H 0.76631 0.71229 0.8796 0.0
O576 O 0.7208 0.57303 0.79539 0.0
C577 C 0.76847 0.61268 0.8549 0.0
Co578 Co 0.64963 0.46858 0.06587 0.0
Co579 Co 0.58523 0.46282 0.09794 0.0
C580 C 0.63873 0.40213 0.09289 0.0
O581 O 0.65582 0.41995 0.0789 0.0
O582 O 0.61059 0.41532 0.10176 0.0
C583 C 0.6897 0.44542 0.03022 0.0
O584 O 0.6687 0.41663 0.03199 0.0
C585 C 0.5198 0.43497 0.11974 0.0
C586 C 0.49406 0.48626 0.1302 0.0
C587 C 0.48937 0.44884 0.12993 0.0
N588 N 0.54104 0.46306 0.11386 0.0
N589 N 0.5256 0.49358 0.12034 0.0
C590 C 0.52988 0.39583 0.11667 0.0
H591 H 0.55724 0.39091 0.12341 0.0
H592 H 0.5313 0.38977 0.09964 0.0
H593 H 0.51033 0.37718 0.12441 0.0
C594 C 0.58852 0.48287 0.03652 0.0
N595 N 0.60168 0.47493 0.0557 0.0
N596 N 0.5744 0.47175 0.06896 0.0
C597 C 0.54291 0.47708 0.05845 0.0
C598 C 0.55087 0.4844 0.03757 0.0
C599 C 0.61164 0.49117 0.01781 0.0
H600 H 0.6361 0.50673 0.02264 0.0
H601 H 0.62055 0.46523 0.01051 0.0
H602 H 0.59633 0.50713 0.00596 0.0
O603 O 0.66181 0.50679 0.08646 0.0
O604 O 0.61716 0.50204 0.10975 0.0
H605 H 0.50146 0.49701 0.07894 0.0
H606 H 0.48418 0.47411 0.05593 0.0
C607 C 0.50587 0.47392 0.06802 0.0
H608 H 0.50403 0.44823 0.07707 0.0
H609 H 0.53639 0.51948 0.11775 0.0
O610 O 0.68558 0.47169 0.04296 0.0
C611 C 0.64665 0.51676 0.10345 0.0
Co612 Co 0.7921 0.40111 0.31535 0.0
Co613 Co 0.79148 0.33692 0.34754 0.0
C614 C 0.85479 0.38774 0.34462 0.0
O615 O 0.83912 0.40576 0.3302 0.0
O616 O 0.8397 0.35989 0.35269 0.0
C617 C 0.82253 0.44531 0.28345 0.0
O618 O 0.8524 0.42843 0.28922 0.0
C619 C 0.81519 0.2678 0.36626 0.0
C620 C 0.76853 0.25435 0.38662 0.0
C621 C 0.80253 0.24185 0.38041 0.0
N622 N 0.78973 0.29391 0.36422 0.0
N623 N 0.76201 0.2858 0.37652 0.0
C624 C 0.84996 0.26745 0.35406 0.0
H625 H 0.84755 0.285 0.33997 0.0
H626 H 0.85711 0.23924 0.34933 0.0
H627 H 0.87217 0.27845 0.364 0.0
C628 C 0.77865 0.34081 0.28561 0.0
N629 N 0.78506 0.35335 0.3051 0.0
N630 N 0.78419 0.32603 0.31845 0.0
C631 C 0.77687 0.29511 0.30776 0.0
C632 C 0.77334 0.30347 0.2866 0.0
C633 C 0.77858 0.36429 0.26644 0.0
H634 H 0.80558 0.37744 0.2648 0.0
H635 H 0.7729 0.34847 0.25201 0.0
H636 H 0.75792 0.38611 0.26825 0.0
O637 O 0.752 0.41485 0.33442 0.0
O638 O 0.75262 0.37039 0.35798 0.0
H639 H 0.75592 0.24006 0.30699 0.0
H640 H 0.79731 0.24634 0.32168 0.0
C641 C 0.77067 0.25874 0.31772 0.0
H642 H 0.75481 0.26201 0.33238 0.0
H643 H 0.73862 0.30173 0.378 0.0
O644 O 0.79265 0.43691 0.29223 0.0
C645 C 0.73951 0.40015 0.35098 0.0
Co646 Co 0.85609 0.54057 0.56768 0.0
Co647 Co 0.9226 0.54536 0.59832 0.0
C648 C 0.87006 0.60634 0.59517 0.0
O649 O 0.8511 0.58822 0.58213 0.0
O650 O 0.89968 0.59381 0.60256 0.0
C651 C 0.81632 0.56331 0.53142 0.0
O652 O 0.8423 0.58767 0.5296 0.0
C653 C 0.98925 0.57084 0.61989 0.0
C654 C 0.01344 0.51865 0.63004 0.0
C655 C 0.01896 0.55599 0.63033 0.0
N656 N 0.96742 0.54344 0.61362 0.0
N657 N 0.98201 0.51237 0.61983 0.0
C658 C 0.98022 0.61027 0.61698 0.0
H659 H 0.95416 0.61624 0.62505 0.0
H660 H 0.97634 0.61597 0.60005 0.0
H661 H 1.00137 0.6285 0.62353 0.0
C662 C 0.91564 0.52401 0.5372 0.0
N663 N 0.90348 0.53338 0.55642 0.0
N664 N 0.93147 0.53642 0.5692 0.0
C665 C 0.96235 0.53005 0.55833 0.0
C666 C 0.95332 0.52174 0.53773 0.0
C667 C 0.89168 0.51417 0.5191 0.0
H668 H 0.86553 0.50281 0.52476 0.0
H669 H 0.88616 0.53895 0.50971 0.0
H670 H 0.90523 0.49396 0.50876 0.0
O671 O 0.84478 0.50162 0.58759 0.0
O672 O 0.88992 0.50674 0.61054 0.0
H673 H 0.00489 0.50978 0.57794 0.0
H674 H 0.02092 0.53335 0.55487 0.0
C675 C 0.99984 0.53314 0.56733 0.0
H676 H 1.00205 0.5586 0.57657 0.0
H677 H 0.97057 0.48683 0.61699 0.0
O678 O 0.81757 0.54003 0.54609 0.0
C679 C 0.8604 0.49175 0.60443 0.0
Co680 Co 0.71736 0.40067 0.6914 0.0
Co681 Co 0.71475 0.3367 0.65867 0.0
C682 C 0.65273 0.38965 0.6633 0.0
O683 O 0.66948 0.40665 0.67774 0.0
O684 O 0.66704 0.36204 0.65441 0.0
C685 C 0.69174 0.44519 0.72482 0.0
O686 O 0.66101 0.42829 0.72082 0.0
C687 C 0.68864 0.26794 0.63906 0.0
C688 C 0.73654 0.25257 0.62013 0.0
C689 C 0.70142 0.24173 0.62507 0.0
N690 N 0.71501 0.29295 0.6421 0.0
N691 N 0.74354 0.28345 0.63075 0.0
C692 C 0.65158 0.26999 0.64874 0.0
H693 H 0.64545 0.29794 0.65414 0.0
H694 H 0.65058 0.25178 0.66259 0.0
H695 H 0.63054 0.26089 0.63741 0.0
C696 C 0.73238 0.33981 0.72032 0.0
N697 N 0.72402 0.35268 0.70117 0.0
N698 N 0.72349 0.32559 0.68763 0.0
C699 C 0.73183 0.29447 0.69786 0.0
C700 C 0.73783 0.30251 0.71889 0.0
C701 C 0.73443 0.36295 0.73961 0.0
H702 H 0.70801 0.37695 0.7419 0.0
H703 H 0.74042 0.34667 0.75383 0.0
H704 H 0.7557 0.38409 0.73751 0.0
O705 O 0.7564 0.41333 0.67153 0.0
O706 O 0.75427 0.36921 0.64772 0.0
H707 H 0.75417 0.26152 0.67334 0.0
H708 H 0.7495 0.23815 0.69811 0.0
C709 C 0.73681 0.25831 0.68743 0.0
H710 H 0.70992 0.24789 0.68232 0.0
H711 H 0.76779 0.29821 0.63014 0.0
O712 O 0.72 0.43651 0.71449 0.0
C713 C 0.76814 0.39864 0.65478 0.0
Co714 Co 0.8604 0.46649 0.94044 0.0
Co715 Co 0.924 0.46628 0.90765 0.0
C716 C 0.87219 0.40358 0.91098 0.0
O717 O 0.85538 0.41878 0.92608 0.0
O718 O 0.89939 0.41889 0.90233 0.0
C719 C 0.79496 0.45122 0.96216 0.0
O720 O 0.78696 0.43504 0.94438 0.0
C721 C 0.9898 0.44058 0.88588 0.0
C722 C 0.01414 0.49225 0.875 0.0
C723 C 0.01984 0.45498 0.87561 0.0
N724 N 0.96779 0.4682 0.89149 0.0
N725 N 0.98235 0.49897 0.88477 0.0
C726 C 0.98098 0.40126 0.88946 0.0
H727 H 0.95454 0.39489 0.88196 0.0
H728 H 0.9781 0.39618 0.90652 0.0
H729 H 1.00184 0.38288 0.88269 0.0
C730 C 0.92134 0.4808 0.96951 0.0
N731 N 0.90831 0.47351 0.95023 0.0
N732 N 0.93537 0.47268 0.93674 0.0
C733 C 0.96676 0.47895 0.94717 0.0
C734 C 0.95889 0.48458 0.96827 0.0
C735 C 0.89772 0.48669 0.98832 0.0
H736 H 0.87547 0.50587 0.98426 0.0
H737 H 0.88508 0.46042 0.99289 0.0
H738 H 0.91326 0.49782 1.00177 0.0
O739 O 0.84665 0.50624 0.92116 0.0
O740 O 0.89114 0.50607 0.89756 0.0
H741 H 0.00644 0.50191 0.92656 0.0
H742 H 0.02567 0.47922 0.94915 0.0
C743 C 1.00367 0.47829 0.93725 0.0
H744 H 0.00674 0.45304 0.92791 0.0
H745 H 0.97086 0.52464 0.88717 0.0
O746 O 0.82564 0.46682 0.96409 0.0
C747 C 0.86135 0.51903 0.90466 0.0
Co748 Co 0.7921 0.60647 0.18972 0.0
Co749 Co 0.79164 0.67205 0.15818 0.0
C750 C 0.85426 0.61978 0.16016 0.0
O751 O 0.83884 0.60178 0.17466 0.0
O752 O 0.83923 0.64789 0.15233 0.0
C753 C 0.82251 0.56011 0.22055 0.0
O754 O 0.85256 0.57641 0.21455 0.0
C755 C 0.81789 0.73967 0.13853 0.0
C756 C 0.76747 0.76204 0.12473 0.0
C757 C 0.80426 0.76903 0.12727 0.0
N758 N 0.79025 0.71677 0.14276 0.0
N759 N 0.76023 0.73024 0.13437 0.0
C760 C 0.8568 0.73174 0.14383 0.0
H761 H 0.85951 0.72808 0.16103 0.0
H762 H 0.87549 0.75337 0.1383 0.0
H763 H 0.86501 0.70588 0.13623 0.0
C764 C 0.77966 0.66584 0.22022 0.0
N765 N 0.78588 0.65388 0.20059 0.0
N766 N 0.78521 0.68163 0.18755 0.0
C767 C 0.77832 0.71229 0.19858 0.0
C768 C 0.7744 0.70326 0.21966 0.0
C769 C 0.77988 0.64177 0.23914 0.0
H770 H 0.80621 0.62709 0.23992 0.0
H771 H 0.7763 0.65746 0.25386 0.0
H772 H 0.75792 0.62118 0.23771 0.0
O773 O 0.75177 0.59423 0.17046 0.0
O774 O 0.75206 0.63956 0.14738 0.0
H775 H 0.75274 0.74723 0.17621 0.0
H776 H 0.76399 0.76953 0.20056 0.0
C777 C 0.77321 0.74906 0.18893 0.0
H778 H 0.7993 0.75817 0.18193 0.0
H779 H 0.73477 0.71776 0.1353 0.0
O780 O 0.79245 0.56974 0.21239 0.0
C781 C 0.73905 0.60955 0.15413 0.0
Co782 Co 0.65219 0.53933 0.43964 0.0
Co783 Co 0.58615 0.54641 0.40886 0.0
C784 C 0.64026 0.60574 0.41223 0.0
O785 O 0.65788 0.58683 0.42548 0.0
O786 O 0.61025 0.59448 0.40463 0.0
C787 C 0.69254 0.56194 0.47558 0.0
O788 O 0.6667 0.58643 0.47752 0.0
C789 C 0.51939 0.57204 0.3873 0.0
C790 C 0.49585 0.51976 0.37676 0.0
C791 C 0.48993 0.55702 0.37666 0.0
N792 N 0.54144 0.54477 0.39347 0.0
N793 N 0.52722 0.51366 0.38704 0.0
C794 C 0.5279 0.61151 0.39055 0.0
H795 H 0.55455 0.61776 0.38323 0.0
H796 H 0.53038 0.61712 0.40758 0.0
H797 H 0.50708 0.62959 0.38352 0.0
C798 C 0.59248 0.52359 0.46992 0.0
N799 N 0.60481 0.53307 0.45077 0.0
N800 N 0.57694 0.53695 0.43798 0.0
C801 C 0.54594 0.53077 0.44877 0.0
C802 C 0.55479 0.52194 0.46933 0.0
C803 C 0.61631 0.51311 0.48795 0.0
H804 H 0.64216 0.50119 0.4822 0.0
H805 H 0.62253 0.53773 0.49737 0.0
H806 H 0.60237 0.49319 0.49828 0.0
O807 O 0.66299 0.50064 0.41945 0.0
O808 O 0.61837 0.50774 0.39635 0.0
H809 H 0.50353 0.51106 0.42888 0.0
H810 H 0.48737 0.53406 0.45213 0.0
C811 C 0.50853 0.53415 0.43972 0.0
H812 H 0.50644 0.55983 0.43069 0.0
H813 H 0.53891 0.48819 0.38976 0.0
O814 O 0.69078 0.53828 0.46111 0.0
C815 C 0.64747 0.49191 0.40237 0.0
Co816 Co 0.29226 0.39947 0.19099 0.0
Co817 Co 0.29151 0.3354 0.15853 0.0
C818 C 0.35533 0.38579 0.16204 0.0
O819 O 0.3397 0.40387 0.17647 0.0
O820 O 0.33997 0.35819 0.15383 0.0
C821 C 0.32185 0.44603 0.22233 0.0
O822 O 0.35238 0.43068 0.21631 0.0
C823 C 0.31684 0.26695 0.14007 0.0
C824 C 0.27165 0.25261 0.11879 0.0
C825 C 0.30576 0.24113 0.1254 0.0
N826 N 0.29066 0.29238 0.14177 0.0
N827 N 0.26379 0.28374 0.12896 0.0
C828 C 0.35037 0.26683 0.1534 0.0
H829 H 0.34503 0.28092 0.16848 0.0
H830 H 0.3598 0.23859 0.15638 0.0
H831 H 0.3722 0.28219 0.14527 0.0
C832 C 0.27767 0.33901 0.22043 0.0
N833 N 0.28459 0.35165 0.20103 0.0
N834 N 0.28342 0.32448 0.18755 0.0
C835 C 0.2753 0.29359 0.19806 0.0
C836 C 0.27162 0.30177 0.21925 0.0
C837 C 0.2776 0.36234 0.23967 0.0
H838 H 0.30401 0.3768 0.24086 0.0
H839 H 0.27336 0.34614 0.25412 0.0
H840 H 0.25587 0.38319 0.23829 0.0
O841 O 0.25274 0.41338 0.17151 0.0
O842 O 0.25318 0.3691 0.14777 0.0
H843 H 0.25235 0.23936 0.19832 0.0
H844 H 0.29465 0.24414 0.18435 0.0
C845 C 0.26831 0.25752 0.18789 0.0
H846 H 0.25334 0.26142 0.17298 0.0
H847 H 0.24009 0.2991 0.12716 0.0
O848 O 0.29211 0.43558 0.21411 0.0
C849 C 0.24036 0.39897 0.15482 0.0
Co850 Co 0.35647 0.53994 0.93923 0.0
Co851 Co 0.42177 0.54419 0.90787 0.0
C852 C 0.37028 0.60631 0.9125 0.0
O853 O 0.35231 0.5885 0.92609 0.0
O854 O 0.3985 0.59272 0.90395 0.0
C855 C 0.31711 0.56355 0.97531 0.0
O856 O 0.34254 0.58861 0.97639 0.0
C857 C 0.49121 0.56908 0.88939 0.0
C858 C 0.50613 0.52151 0.87006 0.0
C859 C 0.51805 0.55595 0.87586 0.0
N860 N 0.46536 0.54334 0.89154 0.0
N861 N 0.47435 0.51513 0.8798 0.0
C862 C 0.49045 0.60458 0.90091 0.0
H863 H 0.47159 0.60303 0.91448 0.0
H864 H 0.51815 0.61197 0.90639 0.0
H865 H 0.48048 0.62623 0.89023 0.0
C866 C 0.41626 0.52265 0.96911 0.0
N867 N 0.404 0.53178 0.94991 0.0
N868 N 0.43178 0.53399 0.9369 0.0
C869 C 0.46268 0.52656 0.94758 0.0
C870 C 0.45386 0.51954 0.9684 0.0
C871 C 0.39229 0.51396 0.98739 0.0
H872 H 0.36655 0.50137 0.98194 0.0
H873 H 0.38579 0.53949 0.99587 0.0
H874 H 0.40613 0.4952 0.99846 0.0
O875 O 0.3438 0.50187 0.91873 0.0
O876 O 0.38894 0.506 0.89576 0.0
H877 H 0.50022 0.5092 0.92391 0.0
H878 H 0.52103 0.51725 0.94919 0.0
C879 C 0.49993 0.52674 0.93806 0.0
H880 H 0.50687 0.55484 0.93325 0.0
H881 H 0.45888 0.49139 0.87855 0.0
O882 O 0.31852 0.53928 0.96116 0.0
C883 C 0.35915 0.49167 0.90185 0.0
Co884 Co 0.21844 0.6079 0.69014 0.0
Co885 Co 0.21455 0.67187 0.65785 0.0
C886 C 0.15277 0.61981 0.66254 0.0
O887 O 0.17047 0.60228 0.67637 0.0
O888 O 0.16624 0.64808 0.65397 0.0
C889 C 0.1906 0.56642 0.72374 0.0
O890 O 0.16204 0.58705 0.72025 0.0
C891 C 0.18932 0.74065 0.63886 0.0
C892 C 0.23627 0.75501 0.61896 0.0
C893 C 0.20202 0.7671 0.62499 0.0
N894 N 0.2151 0.71483 0.641 0.0
N895 N 0.24294 0.72347 0.62892 0.0
C896 C 0.15421 0.74026 0.65074 0.0
H897 H 0.1562 0.72186 0.6645 0.0
H898 H 0.14694 0.76816 0.65598 0.0
H899 H 0.13227 0.7299 0.64039 0.0
C900 C 0.23289 0.66884 0.7194 0.0
N901 N 0.22523 0.65593 0.70014 0.0
N902 N 0.22401 0.68319 0.68675 0.0
C903 C 0.23115 0.71445 0.69718 0.0
C904 C 0.23662 0.70638 0.71826 0.0
C905 C 0.23896 0.64529 0.73822 0.0
H906 H 0.25545 0.62118 0.7338 0.0
H907 H 0.21228 0.63557 0.74412 0.0
H908 H 0.25302 0.66037 0.75093 0.0
O909 O 0.25732 0.59464 0.6702 0.0
O910 O 0.25314 0.63869 0.64653 0.0
H911 H 0.24929 0.75033 0.67286 0.0
H912 H 0.24301 0.77239 0.69797 0.0
C913 C 0.23227 0.75131 0.68719 0.0
H914 H 0.20433 0.75931 0.68261 0.0
H915 H 0.26662 0.70794 0.62759 0.0
O916 O 0.21935 0.57185 0.71313 0.0
C917 C 0.26763 0.60928 0.65313 0.0
Co918 Co 0.14909 0.46997 0.44024 0.0
Co919 Co 0.08446 0.46503 0.40836 0.0
C920 C 0.13768 0.40406 0.41275 0.0
O921 O 0.15498 0.42166 0.42676 0.0
O922 O 0.10947 0.41745 0.40408 0.0
C923 C 0.19285 0.44456 0.4738 0.0
O924 O 0.17436 0.41446 0.47059 0.0
C925 C 0.01882 0.43762 0.38681 0.0
C926 C 0.9932 0.48896 0.37636 0.0
C927 C 0.9884 0.45155 0.37667 0.0
N928 N 0.04018 0.46565 0.39261 0.0
N929 N 0.02483 0.49621 0.38616 0.0
C930 C 0.02873 0.39845 0.38993 0.0
H931 H 0.0556 0.39316 0.38265 0.0
H932 H 0.0312 0.39274 0.40695 0.0
H933 H 0.00858 0.37979 0.38272 0.0
C934 C 0.08863 0.48358 0.4699 0.0
N935 N 0.10138 0.47616 0.45058 0.0
N936 N 0.07392 0.47332 0.43744 0.0
C937 C 0.04261 0.47836 0.44816 0.0
C938 C 0.05088 0.48499 0.4691 0.0
C939 C 0.11239 0.49165 0.48838 0.0
H940 H 0.13578 0.5087 0.48344 0.0
H941 H 0.12323 0.4657 0.49472 0.0
H942 H 0.09713 0.50597 0.50093 0.0
O943 O 0.16119 0.50851 0.41999 0.0
O944 O 0.11642 0.50439 0.39677 0.0
H945 H 1.00101 0.49894 0.428 0.0
H946 H 0.98385 0.47545 0.45084 0.0
C947 C 0.00545 0.47557 0.4387 0.0
H948 H 1.00345 0.45013 0.42942 0.0
H949 H 0.03574 0.52208 0.3887 0.0
O950 O 0.18549 0.47255 0.46292 0.0
C951 C 0.14599 0.51889 0.40311 0.0
Co952 Co 0.29045 0.60671 0.31613 0.0
Co953 Co 0.2938 0.67166 0.34807 0.0
C954 C 0.35541 0.61904 0.34425 0.0
O955 O 0.33814 0.60141 0.33027 0.0
O956 O 0.34165 0.64732 0.35268 0.0
C957 C 0.31858 0.56503 0.28271 0.0
O958 O 0.34691 0.586 0.28615 0.0
C959 C 0.32025 0.73839 0.36903 0.0
C960 C 0.26891 0.76245 0.3806 0.0
C961 C 0.30609 0.76838 0.37952 0.0
N962 N 0.29256 0.71615 0.36379 0.0
N963 N 0.26201 0.73061 0.3709 0.0
C964 C 0.35945 0.7297 0.36501 0.0
H965 H 0.36395 0.72666 0.3479 0.0
H966 H 0.37792 0.75078 0.37147 0.0
H967 H 0.36621 0.70332 0.3725 0.0
C968 C 0.27597 0.66683 0.28645 0.0
N969 N 0.284 0.65432 0.30574 0.0
N970 N 0.28591 0.68187 0.31891 0.0
C971 C 0.27958 0.71299 0.30823 0.0
C972 C 0.27288 0.70444 0.28734 0.0
C973 C 0.26881 0.64291 0.2679 0.0
H974 H 0.25293 0.61868 0.27279 0.0
H975 H 0.29517 0.63343 0.2614 0.0
H976 H 0.25369 0.65763 0.25547 0.0
O977 O 0.25103 0.59467 0.33577 0.0
O978 O 0.25424 0.63928 0.35926 0.0
H979 H 0.25797 0.75359 0.32877 0.0
H980 H 0.27964 0.77186 0.3056 0.0
C981 C 0.28102 0.75025 0.31772 0.0
H982 H 0.30672 0.75342 0.32662 0.0
H983 H 0.23635 0.71892 0.36891 0.0
O984 O 0.28982 0.57018 0.29337 0.0
C985 C 0.2398 0.60993 0.35247 0.0
Co986 Co 0.15263 0.54174 0.06725 0.0
Co987 Co 0.08598 0.54437 0.0979 0.0
C988 C 0.13796 0.60669 0.09477 0.0
O989 O 0.1563 0.59019 0.08076 0.0
O990 O 0.10974 0.59225 0.10281 0.0
C991 C 0.19415 0.56478 0.03174 0.0
O992 O 0.16892 0.58993 0.02996 0.0
C993 C 0.01827 0.57072 0.11777 0.0
C994 C 0.99446 0.51936 0.12949 0.0
C995 C 0.98823 0.55649 0.12813 0.0
N996 N 0.04084 0.5431 0.11288 0.0
N997 N 0.0265 0.51253 0.12004 0.0
C998 C 0.02679 0.60995 0.1137 0.0
H999 H 0.05274 0.61703 0.12154 0.0
H1000 H 0.03055 0.61423 0.09662 0.0
H1001 H 0.00535 0.62838 0.11977 0.0
C1002 C 0.09381 0.52521 0.03646 0.0
N1003 N 0.10562 0.53376 0.05587 0.0
N1004 N 0.07749 0.53575 0.06863 0.0
C1005 C 0.04683 0.52914 0.05758 0.0
C1006 C 0.05616 0.52232 0.03685 0.0
C1007 C 0.11818 0.51687 0.01829 0.0
H1008 H 0.14372 0.50401 0.02384 0.0
H1009 H 0.12505 0.54255 0.01006 0.0
H1010 H 0.1045 0.49845 0.00695 0.0
O1011 O 0.16437 0.50354 0.08785 0.0
O1012 O 0.11803 0.50577 0.11016 0.0
H1013 H 0.00591 0.50747 0.07783 0.0
H1014 H 0.98809 0.52808 0.05425 0.0
C1015 C 0.00924 0.53025 0.06659 0.0
H1016 H 0.00533 0.55619 0.07518 0.0
H1017 H 0.03853 0.48694 0.11836 0.0
O1018 O 0.19158 0.54074 0.04595 0.0
C1019 C 0.14843 0.49239 0.10434 0.0
Co1020 Co 0.21653 0.40066 0.81501 0.0
Co1021 Co 0.21443 0.33594 0.84733 0.0
C1022 C 0.15348 0.38986 0.84432 0.0
O1023 O 0.16945 0.40693 0.82963 0.0
O1024 O 0.16777 0.36176 0.85258 0.0
C1025 C 0.1879 0.44608 0.78309 0.0
O1026 O 0.15763 0.42934 0.78828 0.0
C1027 C 0.18833 0.26845 0.86858 0.0
C1028 C 0.2395 0.24872 0.88273 0.0
C1029 C 0.20283 0.24058 0.88075 0.0
N1030 N 0.21532 0.2918 0.86354 0.0
N1031 N 0.24575 0.27975 0.87212 0.0
C1032 C 0.14931 0.27316 0.86236 0.0
H1033 H 0.14246 0.30223 0.8604 0.0
H1034 H 0.14458 0.25928 0.84716 0.0
H1035 H 0.13091 0.26103 0.87425 0.0
C1036 C 0.2288 0.33993 0.78542 0.0
N1037 N 0.2221 0.3527 0.80482 0.0
N1038 N 0.22107 0.32534 0.81813 0.0
C1039 C 0.22693 0.29408 0.80747 0.0
C1040 C 0.23186 0.30227 0.78636 0.0
C1041 C 0.23511 0.36379 0.76676 0.0
H1042 H 0.25284 0.38699 0.77121 0.0
H1043 H 0.20866 0.375 0.7614 0.0
H1044 H 0.24801 0.3486 0.75368 0.0
O1045 O 0.25642 0.4128 0.83442 0.0
O1046 O 0.25449 0.3682 0.85793 0.0
H1047 H 0.24995 0.25547 0.82874 0.0
H1048 H 0.23018 0.23513 0.80551 0.0
C1049 C 0.22724 0.25711 0.81732 0.0
H1050 H 0.20145 0.25287 0.82595 0.0
H1051 H 0.27089 0.29275 0.87071 0.0
O1052 O 0.21739 0.43689 0.79206 0.0
C1053 C 0.26832 0.39773 0.85101 0.0
Co1054 Co 0.35868 0.46733 0.56582 0.0
Co1055 Co 0.42266 0.46287 0.59814 0.0
C1056 C 0.3697 0.40156 0.59347 0.0
O1057 O 0.35259 0.4192 0.57941 0.0
O1058 O 0.39786 0.41496 0.60223 0.0
C1059 C 0.31438 0.44242 0.53215 0.0
O1060 O 0.33175 0.41169 0.53544 0.0
C1061 C 0.48896 0.43694 0.62008 0.0
C1062 C 0.51145 0.48894 0.63176 0.0
C1063 C 0.51795 0.45178 0.6312 0.0
N1064 N 0.46663 0.46422 0.61424 0.0
N1065 N 0.48022 0.49516 0.62137 0.0
C1066 C 0.48139 0.39755 0.61584 0.0
H1067 H 0.45391 0.3906 0.62177 0.0
H1068 H 0.48146 0.39274 0.59867 0.0
H1069 H 0.50143 0.3794 0.62353 0.0
C1070 C 0.41945 0.48132 0.53656 0.0
N1071 N 0.40649 0.47364 0.55579 0.0
N1072 N 0.43373 0.47127 0.5691 0.0
C1073 C 0.46514 0.47691 0.55858 0.0
C1074 C 0.45714 0.48338 0.53758 0.0
C1075 C 0.39582 0.48929 0.518 0.0
H1076 H 0.37248 0.50649 0.52287 0.0
H1077 H 0.3849 0.46332 0.51171 0.0
H1078 H 0.41116 0.50348 0.50545 0.0
O1079 O 0.34631 0.50612 0.58575 0.0
O1080 O 0.39012 0.50224 0.60959 0.0
H1081 H 0.5055 0.49836 0.57928 0.0
H1082 H 0.52404 0.47597 0.55639 0.0
C1083 C 0.50212 0.47513 0.56833 0.0
H1084 H 0.50471 0.44956 0.57742 0.0
H1085 H 0.46826 0.5206 0.61898 0.0
O1086 O 0.32263 0.47019 0.54301 0.0
C1087 C 0.36097 0.51686 0.6027 0.0
C1088 C 0.16023 0.32326 0.37772 0.0
C1089 C 0.18375 0.30225 0.39025 0.0
C1090 C 0.14438 0.35545 0.38536 0.0
C1091 C 0.15195 0.36824 0.4057 0.0
H1092 H 0.15498 0.3157 0.36163 0.0
H1093 H 0.12713 0.3711 0.37495 0.0
S1094 S 0.20994 0.3221 0.44528 0.0
N1095 N 0.21226 0.2956 0.42442 0.0
N1096 N 0.18316 0.35625 0.43859 0.0
C1097 C 0.17489 0.34711 0.41851 0.0
C1098 C 0.1907 0.31421 0.41081 0.0
C1099 C 0.94863 0.89889 0.63999 0.0
C1100 C 0.95385 0.93689 0.63889 0.0
C1101 C 0.91594 0.88392 0.64758 0.0
C1102 C 0.8876 0.90635 0.65488 0.0
H1103 H 0.97009 0.88035 0.6355 0.0
H1104 H 0.91315 0.85456 0.64813 0.0
S1105 S 0.88671 0.00746 0.65479 0.0
N1106 N 0.92691 0.9965 0.64514 0.0
N1107 N 0.86637 0.96844 0.65998 0.0
C1108 C 0.89244 0.94431 0.65394 0.0
C1109 C 0.92532 0.95952 0.64588 0.0
C1110 C 0.36586 0.65613 0.88572 0.0
C1111 C 0.35641 0.64237 0.90558 0.0
C1112 C 0.35011 0.68825 0.87796 0.0
C1113 C 0.32474 0.70818 0.88988 0.0
H1114 H 0.38452 0.64128 0.87572 0.0
H1115 H 0.3569 0.69662 0.86219 0.0
S1116 S 0.29311 0.68567 0.94356 0.0
N1117 N 0.32145 0.65241 0.93748 0.0
N1118 N 0.29239 0.71289 0.92298 0.0
C1119 C 0.3159 0.69532 0.90999 0.0
C1120 C 0.33169 0.66252 0.91785 0.0
C1121 C 0.59976 0.08175 0.16489 0.0
C1122 C 0.61971 0.10714 0.15296 0.0
C1123 C 0.56741 0.06645 0.1573 0.0
C1124 C 0.55356 0.07607 0.13756 0.0
H1125 H 0.6094 0.07316 0.18014 0.0
H1126 H 0.55326 0.04666 0.1669 0.0
S1127 S 0.59587 0.13967 0.09958 0.0
N1128 N 0.62323 0.14069 0.12009 0.0
N1129 N 0.56287 0.1111 0.10573 0.0
C1130 C 0.573 0.10139 0.12543 0.0
C1131 C 0.60589 0.1172 0.13318 0.0
C1132 C 0.17462 0.6635 0.08995 0.0
C1133 C 0.15127 0.64239 0.10256 0.0
C1134 C 0.19026 0.69576 0.09749 0.0
C1135 C 0.18308 0.70827 0.11788 0.0
H1136 H 0.18129 0.6548 0.07418 0.0
H1137 H 0.20845 0.71088 0.08734 0.0
S1138 S 0.1262 0.66198 0.1578 0.0
N1139 N 0.12282 0.6359 0.1368 0.0
N1140 N 0.15291 0.69615 0.15103 0.0
C1141 C 0.15992 0.68754 0.13071 0.0
C1142 C 0.14376 0.65476 0.12301 0.0
C1143 C 0.57037 0.90742 0.37845 0.0
C1144 C 0.54959 0.93157 0.36623 0.0
C1145 C 0.6022 0.89133 0.3705 0.0
C1146 C 0.61474 0.8993 0.35015 0.0
H1147 H 0.56284 0.90202 0.39456 0.0
H1148 H 0.61785 0.87375 0.38072 0.0
S1149 S 0.56866 0.95922 0.31145 0.0
N1150 N 0.54266 0.96135 0.33252 0.0
N1151 N 0.60244 0.93154 0.31756 0.0
C1152 C 0.59357 0.92273 0.33761 0.0
C1153 C 0.56114 0.93889 0.34569 0.0
C1154 C 0.34954 0.31915 0.62782 0.0
C1155 C 0.32346 0.29987 0.61609 0.0
C1156 C 0.36535 0.35129 0.62009 0.0
C1157 C 0.3552 0.36571 0.60048 0.0
H1158 H 0.35689 0.31009 0.6434 0.0
H1159 H 0.38471 0.36556 0.62991 0.0
S1160 S 0.28912 0.32434 0.56331 0.0
N1161 N 0.28917 0.29656 0.58364 0.0
N1162 N 0.31829 0.35697 0.56916 0.0
C1163 C 0.32953 0.3462 0.58848 0.0
C1164 C 0.31371 0.31342 0.59631 0.0
C1165 C 0.91915 0.12485 0.8589 0.0
C1166 C 0.88935 0.10253 0.85381 0.0
C1167 C 0.95212 0.10971 0.86593 0.0
C1168 C 0.95613 0.0718 0.86866 0.0
H1169 H 0.91734 0.15408 0.85683 0.0
H1170 H 0.97475 0.1279 0.86862 0.0
S1171 S 0.88471 1.00203 0.85909 0.0
N1172 N 0.86521 0.04099 0.8528 0.0
N1173 N 0.92639 0.01263 0.86656 0.0
C1174 C 0.92603 0.04941 0.86404 0.0
C1175 C 0.89284 0.06475 0.85657 0.0
C1176 C 0.80388 0.67747 0.61483 0.0
C1177 C 0.82576 0.70857 0.61772 0.0
C1178 C 0.81853 0.64471 0.60744 0.0
C1179 C 0.85577 0.64149 0.60286 0.0
H1180 H 0.77505 0.67837 0.61837 0.0
H1181 H 0.80057 0.62153 0.60553 0.0
S1182 S 0.92434 0.7153 0.60533 0.0
N1183 N 0.88618 0.73471 0.61327 0.0
N1184 N 0.91403 0.67232 0.60055 0.0
C1185 C 0.87806 0.67221 0.60548 0.0
C1186 C 0.86298 0.70597 0.6126 0.0
C1187 C 0.05829 0.11116 0.36818 0.0
C1188 C 0.05257 0.07321 0.369 0.0
C1189 C 0.09169 0.1258 0.36147 0.0
C1190 C 0.12026 0.10305 0.35484 0.0
H1191 H 0.03665 0.12988 0.37211 0.0
H1192 H 0.09476 0.15513 0.36088 0.0
S1193 S 0.12012 1.00195 0.35488 0.0
N1194 N 0.07931 0.01331 0.36347 0.0
N1195 N 0.14127 0.04076 0.3503 0.0
C1196 C 0.11503 0.06515 0.35571 0.0
C1197 C 0.08139 0.05028 0.36285 0.0
C1198 C 0.6625 0.32162 0.1278 0.0
C1199 C 0.68585 0.30064 0.11512 0.0
C1200 C 0.64628 0.35366 0.12024 0.0
C1201 C 0.65332 0.36638 0.09983 0.0
H1202 H 0.65766 0.31419 0.14394 0.0
H1203 H 0.62919 0.36928 0.13076 0.0
S1204 S 0.71075 0.32042 0.05989 0.0
N1205 N 0.71367 0.29401 0.08075 0.0
N1206 N 0.68392 0.35447 0.06672 0.0
C1207 C 0.67611 0.34534 0.08687 0.0
C1208 C 0.69228 0.31255 0.09449 0.0
C1209 C 0.41129 0.92838 0.84049 0.0
C1210 C 0.39132 0.90297 0.85239 0.0
C1211 C 0.44326 0.94416 0.84828 0.0
C1212 C 0.45667 0.93502 0.8682 0.0
H1213 H 0.40193 0.93659 0.8251 0.0
H1214 H 0.45748 0.96392 0.83869 0.0
S1215 S 0.41392 0.87177 0.90621 0.0
N1216 N 0.38719 0.87005 0.88544 0.0
N1217 N 0.4468 0.90055 0.90017 0.0
C1218 C 0.43715 0.90975 0.88031 0.0
C1219 C 0.40466 0.89344 0.87235 0.0
C1220 C 0.82167 0.31343 0.90828 0.0
C1221 C 0.82695 0.30225 0.88744 0.0
C1222 C 0.83716 0.34575 0.91587 0.0
C1223 C 0.85851 0.36821 0.90288 0.0
H1224 H 0.8052 0.29715 0.9188 0.0
H1225 H 0.83208 0.35331 0.93202 0.0
S1226 S 0.87773 0.35262 0.84644 0.0
N1227 N 0.85282 0.31727 0.85349 0.0
N1228 N 0.88276 0.37757 0.86779 0.0
C1229 C 0.86396 0.3573 0.88194 0.0
C1230 C 0.8479 0.32448 0.87419 0.0
C1231 C 0.43781 0.10103 0.62835 0.0
C1232 C 0.4574 0.07565 0.6404 0.0
C1233 C 0.40526 0.1164 0.63578 0.0
C1234 C 0.39078 0.10645 0.6554 0.0
H1235 H 0.4469 0.10809 0.61272 0.0
H1236 H 0.39069 0.13513 0.62571 0.0
S1237 S 0.43291 0.04241 0.69341 0.0
N1238 N 0.46097 0.04241 0.6732 0.0
N1239 N 0.39979 0.07076 0.68716 0.0
C1240 C 0.41063 0.08161 0.66777 0.0
C1241 C 0.44381 0.06623 0.66023 0.0
C1242 C 0.63425 0.669 0.39753 0.0
C1243 C 0.65643 0.64038 0.40472 0.0
C1244 C 0.64947 0.70192 0.39048 0.0
C1245 C 0.68747 0.70714 0.38984 0.0
H1246 H 0.6049 0.66624 0.39778 0.0
H1247 H 0.63112 0.72356 0.38602 0.0
S1248 S 0.75751 0.63962 0.40588 0.0
N1249 N 0.71835 0.61905 0.41033 0.0
N1250 N 0.74685 0.68013 0.39653 0.0
C1251 C 0.70987 0.67844 0.39678 0.0
C1252 C 0.69441 0.64527 0.40427 0.0
C1253 C 0.07339 0.90948 0.12784 0.0
C1254 C 0.05321 0.93459 0.1398 0.0
C1255 C 0.10577 0.8942 0.13554 0.0
C1256 C 0.11953 0.90384 0.15539 0.0
H1257 H 0.06493 0.90245 0.11211 0.0
H1258 H 0.12071 0.8756 0.12555 0.0
S1259 S 0.07569 0.96686 0.19337 0.0
N1260 N 0.04835 0.96711 0.17285 0.0
N1261 N 0.10925 0.93894 0.18723 0.0
C1262 C 0.09918 0.92846 0.16764 0.0
C1263 C 0.06614 0.94377 0.15984 0.0
C1264 C 0.70439 0.83457 0.89294 0.0
C1265 C 0.68236 0.80361 0.88995 0.0
C1266 C 0.68986 0.86744 0.9003 0.0
C1267 C 0.65259 0.87087 0.90474 0.0
H1268 H 0.73325 0.8335 0.8895 0.0
H1269 H 0.70792 0.89053 0.90226 0.0
S1270 S 0.58366 0.7974 0.90211 0.0
N1271 N 0.62177 0.7778 0.89426 0.0
N1272 N 0.59417 0.84033 0.90693 0.0
C1273 C 0.63017 0.84025 0.90207 0.0
C1274 C 0.64512 0.80642 0.89499 0.0
C1275 C 0.41141 0.4239 0.16594 0.0
C1276 C 0.39117 0.39858 0.15411 0.0
C1277 C 0.44367 0.43912 0.15817 0.0
C1278 C 0.45715 0.42952 0.13833 0.0
H1279 H 0.40202 0.4326 0.18123 0.0
H1280 H 0.45796 0.45893 0.16769 0.0
S1281 S 0.41404 0.36586 0.10061 0.0
N1282 N 0.38707 0.3649 0.1213 0.0
N1283 N 0.44719 0.3944 0.10655 0.0
C1284 C 0.43748 0.40414 0.12633 0.0
C1285 C 0.40469 0.38838 0.13429 0.0
C1286 C 0.8733 0.17154 0.39765 0.0
C1287 C 0.85157 0.14146 0.40304 0.0
C1288 C 0.85753 0.204 0.39024 0.0
C1289 C 0.81956 0.20716 0.38746 0.0
H1290 H 0.90255 0.1703 0.39969 0.0
H1291 H 0.87523 0.22691 0.38724 0.0
S1292 S 0.75125 0.13466 0.39747 0.0
N1293 N 0.79051 0.11611 0.40405 0.0
N1294 N 0.76105 0.17639 0.38972 0.0
C1295 C 0.79778 0.17681 0.39236 0.0
C1296 C 0.81373 0.14413 0.40016 0.0
C1297 C 0.07003 0.60128 0.62822 0.0
C1298 C 0.05103 0.57449 0.63955 0.0
C1299 C 0.10218 0.61679 0.63611 0.0
C1300 C 0.11687 0.60563 0.65547 0.0
H1301 H 0.06075 0.60943 0.61282 0.0
H1302 H 0.11625 0.63674 0.62659 0.0
S1303 S 0.07616 0.53746 0.6916 0.0
N1304 N 0.04817 0.53849 0.67138 0.0
N1305 N 0.10863 0.56705 0.68617 0.0
C1306 C 0.0976 0.57928 0.6671 0.0
C1307 C 0.06481 0.56375 0.6591 0.0
C1308 C 0.6597 0.18758 0.6291 0.0
C1309 C 0.68276 0.20896 0.61648 0.0
C1310 C 0.64398 0.15531 0.62145 0.0
C1311 C 0.6512 0.14279 0.60101 0.0
H1312 H 0.65477 0.19488 0.64526 0.0
H1313 H 0.62714 0.13937 0.63194 0.0
S1314 S 0.70775 0.18998 0.56115 0.0
N1315 N 0.71033 0.21626 0.5821 0.0
N1316 N 0.68147 0.15547 0.5679 0.0
C1317 C 0.67359 0.16432 0.58809 0.0
C1318 C 0.68928 0.19729 0.5958 0.0
C1319 C 0.09781 0.4284 0.83996 0.0
C1320 C 0.11828 0.40406 0.85231 0.0
C1321 C 0.06565 0.44416 0.84753 0.0
C1322 C 0.05262 0.43611 0.86768 0.0
H1323 H 0.1068 0.43563 0.82434 0.0
H1324 H 0.05093 0.46295 0.83755 0.0
S1325 S 0.09714 0.37649 0.90696 0.0
N1326 N 0.12356 0.37369 0.88609 0.0
N1327 N 0.06365 0.40423 0.90043 0.0
C1328 C 0.07281 0.41213 0.8803 0.0
C1329 C 0.10545 0.39579 0.87256 0.0
C1330 C 0.81777 0.81279 0.09847 0.0
C1331 C 0.82359 0.80152 0.11924 0.0
C1332 C 0.83402 0.84453 0.09064 0.0
C1333 C 0.85673 0.86626 0.10329 0.0
H1334 H 0.80033 0.79703 0.08821 0.0
H1335 H 0.82844 0.85223 0.07457 0.0
S1336 S 0.87803 0.85016 0.1594 0.0
N1337 N 0.85144 0.81577 0.15278 0.0
N1338 N 0.88305 0.87478 0.13795 0.0
C1339 C 0.86279 0.85521 0.12413 0.0
C1340 C 0.84587 0.82307 0.13216 0.0
C1341 C 0.40583 0.61661 0.37085 0.0
C1342 C 0.39138 0.60524 0.35145 0.0
C1343 C 0.43824 0.60167 0.37874 0.0
C1344 C 0.45773 0.57521 0.3674 0.0
H1345 H 0.39138 0.63629 0.38038 0.0
H1346 H 0.44736 0.60996 0.39416 0.0
S1347 S 0.43343 0.53795 0.31522 0.0
N1348 N 0.40043 0.56694 0.32069 0.0
N1349 N 0.46132 0.53939 0.33548 0.0
C1350 C 0.44419 0.5643 0.3478 0.0
C1351 C 0.41116 0.57927 0.3398 0.0
C1352 C 0.30213 0.17589 0.11491 0.0
C1353 C 0.32375 0.20693 0.11846 0.0
C1354 C 0.31734 0.14331 0.10759 0.0
C1355 C 0.35486 0.1403 0.10372 0.0
H1356 H 0.2731 0.17672 0.11785 0.0
H1357 H 0.29956 0.12014 0.10514 0.0
S1358 S 0.42293 0.21436 0.10799 0.0
N1359 N 0.38427 0.2334 0.11539 0.0
N1360 N 0.41308 0.17145 0.10268 0.0
C1361 C 0.37687 0.17105 0.10697 0.0
C1362 C 0.36126 0.20457 0.11406 0.0
C1363 C 0.59009 0.62609 0.85993 0.0
C1364 C 0.61996 0.60403 0.85459 0.0
C1365 C 0.55714 0.61066 0.86681 0.0
C1366 C 0.55321 0.57266 0.86919 0.0
H1367 H 0.59184 0.6554 0.85822 0.0
H1368 H 0.53449 0.62874 0.86969 0.0
S1369 S 0.62475 0.50333 0.85875 0.0
N1370 N 0.64413 0.54251 0.8528 0.0
N1371 N 0.58311 0.51365 0.86642 0.0
C1372 C 0.58336 0.5505 0.86428 0.0
C1373 C 0.6165 0.56613 0.8569 0.0
C1374 C 0.1471 0.80587 0.61595 0.0
C1375 C 0.18512 0.80211 0.61822 0.0
C1376 C 0.13148 0.83864 0.60888 0.0
C1377 C 0.15338 0.86849 0.60329 0.0
H1378 H 0.12916 0.78319 0.61904 0.0
H1379 H 0.10218 0.84026 0.60721 0.0
S1380 S 0.25403 0.87374 0.60726 0.0
N1381 N 0.24394 0.83218 0.61518 0.0
N1382 N 0.21476 0.89287 0.60127 0.0
C1383 C 0.19129 0.86522 0.60557 0.0
C1384 C 0.2071 0.83227 0.61311 0.0
C1385 C 0.91088 0.42572 0.34061 0.0
C1386 C 0.89044 0.40084 0.35261 0.0
C1387 C 0.94303 0.44116 0.34837 0.0
C1388 C 0.95617 0.43222 0.36837 0.0
H1389 H 0.90174 0.43383 0.32517 0.0
H1390 H 0.95754 0.46058 0.3387 0.0
S1391 S 0.91231 0.37015 0.40661 0.0
N1392 N 0.88566 0.36847 0.38579 0.0
N1393 N 0.94565 0.39835 0.4005 0.0
C1394 C 0.93626 0.40736 0.38056 0.0
C1395 C 0.90357 0.39137 0.37263 0.0
C1396 C 0.31748 0.81379 0.40781 0.0
C1397 C 0.32502 0.80116 0.38748 0.0
C1398 C 0.33293 0.84614 0.41537 0.0
C1399 C 0.35641 0.86727 0.40285 0.0
H1400 H 0.29927 0.79863 0.41791 0.0
H1401 H 0.32608 0.85481 0.43111 0.0
S1402 S 0.38229 0.84745 0.34775 0.0
N1403 N 0.35559 0.81322 0.35446 0.0
N1404 N 0.38526 0.87369 0.3687 0.0
C1405 C 0.36416 0.85486 0.38243 0.0
C1406 C 0.34823 0.82196 0.37472 0.0
C1407 C 0.91119 0.58319 0.16436 0.0
C1408 C 0.88972 0.60657 0.15197 0.0
C1409 C 0.9434 0.56786 0.15662 0.0
C1410 C 0.95557 0.57541 0.13622 0.0
H1411 H 0.90288 0.57628 0.18015 0.0
H1412 H 0.95881 0.5497 0.16664 0.0
S1413 S 0.9085 0.63277 0.09683 0.0
N1414 N 0.88264 0.63563 0.11794 0.0
N1415 N 0.94288 0.60608 0.1033 0.0
C1416 C 0.93452 0.59863 0.12359 0.0
C1417 C 0.90174 0.61448 0.13151 0.0
C1418 C 0.1427 0.15654 0.88616 0.0
C1419 C 0.15279 0.14258 0.90588 0.0
C1420 C 0.15841 0.18856 0.87823 0.0
C1421 C 0.18443 0.20819 0.88983 0.0
H1422 H 0.12346 0.14195 0.8764 0.0
H1423 H 0.15102 0.19715 0.86258 0.0
S1424 S 0.21813 0.18514 0.943 0.0
N1425 N 0.18924 0.1522 0.93726 0.0
N1426 N 0.21822 0.21243 0.92245 0.0
C1427 C 0.19401 0.19514 0.90978 0.0
C1428 C 0.17824 0.16246 0.91781 0.0
C1429 C 0.57014 0.40771 0.6287 0.0
C1430 C 0.5503 0.43356 0.6403 0.0
C1431 C 0.60259 0.39271 0.63652 0.0
C1432 C 0.61672 0.40344 0.65612 0.0
H1433 H 0.56126 0.39993 0.61314 0.0
H1434 H 0.61729 0.37348 0.62681 0.0
S1435 S 0.57369 0.46898 0.69303 0.0
N1436 N 0.54605 0.46809 0.67265 0.0
N1437 N 0.60698 0.44049 0.68731 0.0
C1438 C 0.59659 0.4288 0.66801 0.0
C1439 C 0.56353 0.44381 0.66008 0.0
C1440 C 0.1615 0.00918 0.26582 0.0
C1441 C 0.19339 0.02782 0.27165 0.0
C1442 C 0.16227 0.98127 0.25088 0.0
C1443 C 0.19496 0.97091 0.24106 0.0
H1444 H 0.13557 0.01603 0.27288 0.0
H1445 H 0.13688 0.96797 0.2469 0.0
S1446 S 0.28628 0.011 0.25075 0.0
N1447 N 0.25877 0.03385 0.26642 0.0
N1448 N 0.26024 0.98137 0.23835 0.0
C1449 C 0.22715 0.98926 0.24674 0.0
C1450 C 0.22637 0.01769 0.26202 0.0
C1451 C 0.24571 0.90731 0.51376 0.0
C1452 C 0.2271 0.93939 0.51933 0.0
C1453 C 0.2735 0.90765 0.49876 0.0
C1454 C 0.28384 0.94006 0.48864 0.0
H1455 H 0.23897 0.8816 0.52111 0.0
H1456 H 0.28687 0.88214 0.49508 0.0
S1457 S 0.24344 0.03164 0.49737 0.0
N1458 N 0.22082 0.00459 0.51338 0.0
N1459 N 0.27308 0.00527 0.48522 0.0
C1460 C 0.26543 0.97242 0.49401 0.0
C1461 C 0.23708 0.97208 0.50933 0.0
C1462 C 0.31145 0.03924 0.76055 0.0
C1463 C 0.31336 0.03479 0.73874 0.0
C1464 C 0.31155 0.00888 0.77388 0.0
C1465 C 0.31483 0.97339 0.76577 0.0
H1466 H 0.30918 0.06624 0.76729 0.0
H1467 H 0.30956 0.01319 0.79064 0.0
S1468 S 0.32156 0.94767 0.70979 0.0
N1469 N 0.31844 0.99257 0.70956 0.0
N1470 N 0.32041 0.93555 0.73471 0.0
C1471 C 0.31745 0.96872 0.74402 0.0
C1472 C 0.31622 0.99949 0.73045 0.0
C1473 C 0.2639 0.09881 0.01366 0.0
C1474 C 0.2806 0.0663 0.02028 0.0
C1475 C 0.23546 0.0985 0.99906 0.0
C1476 C 0.22271 0.06569 0.99035 0.0
H1477 H 0.27264 0.12484 0.01988 0.0
H1478 H 0.22367 0.12432 0.99444 0.0
S1479 S 0.25719 0.9729 1.00236 0.0
N1480 N 0.28229 1.00025 0.01695 0.0
N1481 N 0.22888 0.99967 0.9895 0.0
C1482 C 0.23916 0.03291 0.9968 0.0
C1483 C 0.26807 0.03322 0.01175 0.0
C1484 C 0.7879 0.994 0.74387 0.0
C1485 C 0.81136 0.96374 0.74466 0.0
C1486 C 0.78583 0.01874 0.76055 0.0
C1487 C 0.80666 0.01381 0.77882 0.0
H1488 H 0.77124 0.9989 0.73015 0.0
H1489 H 0.76752 0.04174 0.75914 0.0
S1490 S 0.87193 0.93857 0.78889 0.0
N1491 N 0.85574 0.93007 0.76526 0.0
N1492 N 0.85154 0.97626 0.79673 0.0
C1493 C 0.83004 0.98348 0.7799 0.0
C1494 C 0.83251 0.95856 0.76278 0.0
C1495 C 0.73522 0.08127 0.47848 0.0
C1496 C 0.76498 0.05716 0.47908 0.0
C1497 C 0.71082 0.08381 0.49527 0.0
C1498 C 0.71493 0.06198 0.5132 0.0
H1499 H 0.73086 0.09868 0.46501 0.0
H1500 H 0.68833 0.10279 0.49405 0.0
S1501 S 0.78823 0.99427 0.52262 0.0
N1502 N 0.79721 0.01098 0.49918 0.0
N1503 N 0.75116 0.0155 0.53065 0.0
C1504 C 0.74447 0.0376 0.514 0.0
C1505 C 0.76955 0.03528 0.49698 0.0
C1506 C 0.66898 0.03853 0.25629 0.0
C1507 C 0.69537 0.03804 0.24034 0.0
C1508 C 0.6707 0.01419 0.27314 0.0
C1509 C 0.69858 0.98804 0.27454 0.0
H1510 H 0.64697 0.05816 0.25594 0.0
H1511 H 0.64975 0.01573 0.28506 0.0
S1512 S 0.77407 0.9749 0.2366 0.0
N1513 N 0.75019 0.00904 0.22689 0.0
N1514 N 0.75315 0.96295 0.25843 0.0
C1515 C 0.72501 0.98699 0.25859 0.0
C1516 C 0.72351 0.01211 0.24155 0.0
C1517 C 0.71404 0.92413 0.00912 0.0
C1518 C 0.71696 0.94867 0.99229 0.0
C1519 C 0.73879 0.92492 0.0258 0.0
C1520 C 0.76773 0.95001 0.02623 0.0
H1521 H 0.69227 0.90425 0.00955 0.0
H1522 H 0.73531 0.9054 0.03837 0.0
S1523 S 0.78771 0.02006 0.98587 0.0
N1524 N 0.75118 0.99886 0.97704 0.0
N1525 N 0.79782 1.00018 0.00832 0.0
C1526 C 0.77107 0.97469 0.00947 0.0
C1527 C 0.74565 0.97409 0.99254 0.0
C1528 C 0.66028 0.51608 0.7641 0.0
C1529 C 0.69291 0.5325 0.77074 0.0
C1530 C 0.66032 0.4877 0.74945 0.0
C1531 C 0.69296 0.47465 0.7407 0.0
H1532 H 0.63436 0.52498 0.77036 0.0
H1533 H 0.63439 0.47614 0.74486 0.0
S1534 S 0.78598 0.50852 0.75261 0.0
N1535 N 0.75891 0.53374 0.76729 0.0
N1536 N 0.75897 0.48041 0.73974 0.0
C1537 C 0.72587 0.49086 0.74713 0.0
C1538 C 0.72584 0.51975 0.76213 0.0
C1539 C 0.73956 0.42566 0.97943 0.0
C1540 C 0.76866 0.45057 0.97976 0.0
C1541 C 0.71437 0.42407 0.99588 0.0
C1542 C 0.71698 0.44765 0.01319 0.0
H1543 H 0.73629 0.40693 0.96645 0.0
H1544 H 0.69248 0.40438 0.99487 0.0
S1545 S 0.78807 0.51806 0.02167 0.0
N1546 N 0.79867 0.4994 0.99893 0.0
N1547 N 0.75115 0.49665 0.02975 0.0
C1548 C 0.74587 0.47283 0.01371 0.0
C1549 C 0.77176 0.4742 0.99704 0.0
C1550 C 0.79082 0.5178 0.2452 0.0
C1551 C 0.8235 0.53089 0.23654 0.0
C1552 C 0.79082 0.49005 0.26024 0.0
C1553 C 0.82351 0.47411 0.26718 0.0
H1554 H 0.76489 0.52917 0.24044 0.0
H1555 H 0.76488 0.4811 0.26645 0.0
S1556 S 0.91663 0.49808 0.24913 0.0
N1557 N 0.88954 0.52543 0.23582 0.0
N1558 N 0.88957 0.47332 0.26405 0.0
C1559 C 0.85644 0.48677 0.25856 0.0
C1560 C 0.85644 0.51516 0.24328 0.0
C1561 C 0.71949 0.56102 0.51134 0.0
C1562 C 0.72425 0.56268 0.48955 0.0
C1563 C 0.74963 0.56072 0.52482 0.0
C1564 C 0.78526 0.56336 0.5169 0.0
H1565 H 0.69238 0.55925 0.51796 0.0
H1566 H 0.74502 0.55894 0.54156 0.0
S1567 S 0.81183 0.56929 0.46101 0.0
N1568 N 0.76692 0.56686 0.46057 0.0
N1569 N 0.82357 0.56811 0.486 0.0
C1570 C 0.79026 0.56573 0.49515 0.0
C1571 C 0.75969 0.56488 0.48143 0.0
C1572 C 0.28812 0.51769 0.26064 0.0
C1573 C 0.32031 0.53508 0.26716 0.0
C1574 C 0.28893 0.48886 0.24626 0.0
C1575 C 0.32201 0.47601 0.23793 0.0
H1576 H 0.26194 0.52649 0.2666 0.0
H1577 H 0.26335 0.47653 0.2417 0.0
S1578 S 0.41419 0.51182 0.2502 0.0
N1579 N 0.38634 0.53712 0.26433 0.0
N1580 N 0.38794 0.4829 0.2374 0.0
C1581 C 0.35449 0.49302 0.24442 0.0
C1582 C 0.35362 0.52257 0.25897 0.0
C1583 C 0.25059 0.56644 0.98219 0.0
C1584 C 0.28632 0.56418 0.98995 0.0
C1585 C 0.22072 0.56735 0.99587 0.0
C1586 C 0.22575 0.56473 0.01763 0.0
H1587 H 0.24578 0.56801 0.96546 0.0
H1588 H 0.19353 0.5694 0.98939 0.0
S1589 S 0.31388 0.55793 0.04563 0.0
N1590 N 0.32519 0.55994 0.0206 0.0
N1591 N 0.26896 0.55975 0.04633 0.0
C1592 C 0.26133 0.56204 0.02553 0.0
C1593 C 0.29172 0.56229 0.01166 0.0
C1594 C 0.22133 0.51909 0.74565 0.0
C1595 C 0.18901 0.53624 0.73912 0.0
C1596 C 0.22065 0.48989 0.75976 0.0
C1597 C 0.1876 0.4764 0.76777 0.0
H1598 H 0.24748 0.52835 0.7399 0.0
H1599 H 0.24631 0.47775 0.76435 0.0
S1600 S 0.09518 0.51147 0.75544 0.0
N1601 N 0.12292 0.53747 0.74167 0.0
N1602 N 0.1216 0.4825 0.76806 0.0
C1603 C 0.15502 0.49317 0.76129 0.0
C1604 C 0.15574 0.52314 0.74704 0.0
C1605 C 0.26813 0.41148 0.50967 0.0
C1606 C 0.28393 0.44399 0.51699 0.0
C1607 C 0.23835 0.41201 0.49599 0.0
C1608 C 0.22341 0.44506 0.4889 0.0
H1609 H 0.27852 0.38531 0.51473 0.0
H1610 H 0.22726 0.38622 0.49077 0.0
S1611 S 0.25487 0.53789 0.50328 0.0
N1612 N 0.28246 0.51027 0.51607 0.0
N1613 N 0.22658 0.51124 0.49028 0.0
C1614 C 0.239 0.47782 0.49602 0.0
C1615 C 0.26921 0.47729 0.51008 0.0
C1616 C 0.34415 0.04638 0.36956 0.0
C1617 C 0.34244 0.04686 0.39156 0.0
C1618 C 0.32154 0.06893 0.35749 0.0
C1619 C 0.29694 0.09336 0.36697 0.0
H1620 H 0.36156 0.02702 0.36156 0.0
H1621 H 0.32254 0.06636 0.34059 0.0
S1622 S 0.28539 0.10821 0.42413 0.0
N1623 N 0.31647 0.07586 0.4224 0.0
N1624 N 0.27459 0.11877 0.39976 0.0
C1625 C 0.29681 0.09585 0.38897 0.0
C1626 C 0.31936 0.07242 0.40125 0.0
C1627 C 0.21335 0.09082 0.61751 0.0
C1628 C 0.21133 0.09056 0.6395 0.0
C1629 C 0.19101 0.06801 0.6054 0.0
C1630 C 0.16534 0.04462 0.6148 0.0
H1631 H 0.23365 0.10726 0.60963 0.0
H1632 H 0.19468 0.06796 0.58855 0.0
S1633 S 0.14635 0.03732 0.6718 0.0
N1634 N 0.17962 0.06741 0.67015 0.0
N1635 N 0.1372 0.02513 0.64746 0.0
C1636 C 0.16145 0.04596 0.63673 0.0
C1637 C 0.18459 0.06874 0.64906 0.0
C1638 C 0.19371 0.94042 0.89935 0.0
C1639 C 0.16867 0.96454 0.89001 0.0
C1640 C 0.21553 0.91725 0.88717 0.0
C1641 C 0.21365 0.9179 0.86518 0.0
H1642 H 0.19718 0.94006 0.91621 0.0
H1643 H 0.23534 0.90017 0.89501 0.0
S1644 S 0.15046 0.97346 0.83302 0.0
N1645 N 0.14136 0.9854 0.85742 0.0
N1646 N 0.18294 0.94249 0.83456 0.0
C1647 C 0.18763 0.94062 0.85567 0.0
C1648 C 0.16496 0.96374 0.86807 0.0
C1649 C 0.29817 0.91491 0.11977 0.0
C1650 C 0.29916 0.91646 0.14177 0.0
C1651 C 0.32021 0.93779 0.1076 0.0
C1652 C 0.34459 0.96259 0.11694 0.0
H1653 H 0.27877 0.89742 0.11188 0.0
H1654 H 0.31724 0.93687 0.09071 0.0
S1655 S 0.36089 0.9737 0.17399 0.0
N1656 N 0.32879 0.94234 0.17244 0.0
N1657 N 0.37068 0.98485 0.14956 0.0
C1658 C 0.34767 0.96253 0.13891 0.0
C1659 C 0.3248 0.93964 0.15132 0.0
C1660 C 0.66459 0.96467 0.63776 0.0
C1661 C 0.66619 0.96354 0.61576 0.0
C1662 C 0.68718 0.94242 0.65002 0.0
C1663 C 0.71171 0.91766 0.64076 0.0
H1664 H 0.64716 0.98421 0.6456 0.0
H1665 H 0.68611 0.94538 0.6669 0.0
S1666 S 0.72314 0.90124 0.58372 0.0
N1667 N 0.6921 0.93367 0.58518 0.0
N1668 N 0.734 0.89138 0.60817 0.0
C1669 C 0.71186 0.91465 0.61877 0.0
C1670 C 0.6893 0.93774 0.6063 0.0
C1671 C 0.79202 0.91934 0.38688 0.0
C1672 C 0.79264 0.92115 0.36487 0.0
C1673 C 0.81425 0.94206 0.39908 0.0
C1674 C 0.83854 0.96691 0.38975 0.0
H1675 H 0.77305 0.90142 0.3948 0.0
H1676 H 0.81179 0.94067 0.41598 0.0
S1677 S 0.85314 0.97957 0.33264 0.0
N1678 N 0.8212 0.94806 0.33419 0.0
N1679 N 0.86351 0.99017 0.35707 0.0
C1680 C 0.84083 0.96755 0.36774 0.0
C1681 C 0.81772 0.94487 0.35532 0.0
C1682 C 0.79631 0.0909 0.11819 0.0
C1683 C 0.79765 0.09009 0.14021 0.0
C1684 C 0.81824 0.06767 0.10611 0.0
C1685 C 0.84293 0.04337 0.11558 0.0
H1686 H 0.77687 0.10825 0.11023 0.0
H1687 H 0.8152 0.06813 0.08922 0.0
S1688 S 0.85936 0.03344 0.17269 0.0
N1689 N 0.82724 0.06476 0.17099 0.0
N1690 N 0.86907 0.02178 0.14833 0.0
C1691 C 0.84601 0.04385 0.13756 0.0
C1692 C 0.82318 0.06699 0.14986 0.0
C1693 C 0.69022 0.0728 0.89858 0.0
C1694 C 0.66564 0.04801 0.88941 0.0
C1695 C 0.71252 0.09517 0.88625 0.0
C1696 C 0.71162 0.09311 0.86425 0.0
H1697 H 0.69309 0.07414 0.91546 0.0
H1698 H 0.73201 0.11269 0.89404 0.0
S1699 S 0.64962 0.03552 0.83243 0.0
N1700 N 0.63959 0.0251 0.85693 0.0
N1701 N 0.68198 0.06664 0.83376 0.0
C1702 C 0.68587 0.06987 0.85486 0.0
C1703 C 0.66273 0.0475 0.86743 0.0
C1704 C 0.84412 0.54784 0.87058 0.0
C1705 C 0.84155 0.54725 0.89257 0.0
C1706 C 0.82143 0.57034 0.85855 0.0
C1707 C 0.79584 0.59369 0.86804 0.0
H1708 H 0.86243 0.52943 0.86252 0.0
H1709 H 0.82326 0.56865 0.84163 0.0
S1710 S 0.78139 0.60542 0.92522 0.0
N1711 N 0.81342 0.57401 0.92345 0.0
N1712 N 0.77134 0.61684 0.90087 0.0
C1713 C 0.79464 0.59504 0.89007 0.0
C1714 C 0.8173 0.57165 0.90231 0.0
C1715 C 0.68955 0.56926 0.10746 0.0
C1716 C 0.66557 0.54404 0.11673 0.0
C1717 C 0.7116 0.59207 0.11971 0.0
C1718 C 0.7111 0.58998 0.14172 0.0
H1719 H 0.69205 0.57072 0.09057 0.0
H1720 H 0.73056 0.61006 0.11185 0.0
S1721 S 0.65102 0.53091 0.17379 0.0
N1722 N 0.64068 0.52042 0.14934 0.0
N1723 N 0.68273 0.56268 0.17233 0.0
C1724 C 0.68611 0.56609 0.15121 0.0
C1725 C 0.66315 0.54333 0.13874 0.0
C1726 C 0.68846 0.43827 0.39769 0.0
C1727 C 0.66581 0.46493 0.38869 0.0
C1728 C 0.71063 0.41592 0.38526 0.0
C1729 C 0.71159 0.41989 0.36335 0.0
H1730 H 0.6899 0.43533 0.41457 0.0
H1731 H 0.72851 0.39671 0.39301 0.0
S1732 S 0.65508 0.48337 0.33186 0.0
N1733 N 0.64357 0.49206 0.35638 0.0
N1734 N 0.68577 0.45057 0.33301 0.0
C1735 C 0.6878 0.44525 0.35405 0.0
C1736 C 0.66473 0.46759 0.36671 0.0
C1737 C 0.81799 0.43895 0.60829 0.0
C1738 C 0.84191 0.46417 0.61765 0.0
C1739 C 0.79583 0.41614 0.62044 0.0
C1740 C 0.7962 0.41818 0.64244 0.0
H1741 H 0.81554 0.43756 0.59139 0.0
H1742 H 0.7769 0.39821 0.6125 0.0
S1743 S 0.85643 0.47691 0.67473 0.0
N1744 N 0.86681 0.48755 0.65031 0.0
N1745 N 0.82468 0.4452 0.67316 0.0
C1746 C 0.8213 0.44192 0.65203 0.0
C1747 C 0.84432 0.46473 0.63964 0.0
C1748 C 0.19145 0.44012 0.10824 0.0
C1749 C 0.16737 0.46517 0.11756 0.0
C1750 C 0.21347 0.41725 0.12044 0.0
C1751 C 0.21285 0.41918 0.14245 0.0
H1752 H 0.19398 0.43877 0.09134 0.0
H1753 H 0.2324 0.39926 0.11254 0.0
S1754 S 0.1527 0.47814 0.17461 0.0
N1755 N 0.1424 0.48872 0.15017 0.0
N1756 N 0.18443 0.44638 0.17311 0.0
C1757 C 0.18787 0.44306 0.15199 0.0
C1758 C 0.16492 0.46584 0.13955 0.0
C1759 C 0.31594 0.43945 0.89785 0.0
C1760 C 0.34047 0.46418 0.88861 0.0
C1761 C 0.29439 0.41621 0.88558 0.0
C1762 C 0.296 0.41735 0.86358 0.0
H1763 H 0.31265 0.43867 0.91472 0.0
H1764 H 0.27494 0.39867 0.89339 0.0
S1765 S 0.35797 0.47469 0.83166 0.0
N1766 N 0.36713 0.48622 0.85611 0.0
N1767 N 0.32603 0.44315 0.83305 0.0
C1768 C 0.32158 0.4407 0.85415 0.0
C1769 C 0.344 0.46391 0.86666 0.0
C1770 C 0.31869 0.56442 0.64949 0.0
C1771 C 0.29514 0.59 0.64014 0.0
C1772 C 0.34175 0.5424 0.63734 0.0
C1773 C 0.34161 0.54463 0.61535 0.0
H1774 H 0.31865 0.56065 0.66633 0.0
H1775 H 0.35833 0.52218 0.64519 0.0
S1776 S 0.28778 0.60937 0.58319 0.0
N1777 N 0.27545 0.61822 0.60755 0.0
N1778 N 0.31819 0.57637 0.58477 0.0
C1779 C 0.31952 0.57124 0.60585 0.0
C1780 C 0.29649 0.59407 0.61822 0.0
C1781 C 0.21282 0.59256 0.38702 0.0
C1782 C 0.21153 0.59117 0.36502 0.0
C1783 C 0.1903 0.57022 0.39925 0.0
C1784 C 0.16512 0.54617 0.38996 0.0
H1785 H 0.23272 0.60956 0.39486 0.0
H1786 H 0.19344 0.57102 0.41613 0.0
S1787 S 0.14805 0.53567 0.33295 0.0
N1788 N 0.181 0.56614 0.33442 0.0
N1789 N 0.13819 0.5247 0.35738 0.0
C1790 C 0.1619 0.54634 0.36799 0.0
C1791 C 0.18526 0.56864 0.35554 0.0
C1792 C 0.23167 0.28319 0.2492 0.0
C1793 C 0.26245 0.27667 0.23663 0.0
C1794 C 0.22286 0.25996 0.26592 0.0
C1795 C 0.24455 0.22949 0.27061 0.0
H1796 H 0.21421 0.30631 0.24599 0.0
H1797 H 0.19877 0.26568 0.27514 0.0
S1798 S 0.32924 0.20198 0.24322 0.0
N1799 N 0.31527 0.23848 0.23041 0.0
N1800 N 0.29905 0.19508 0.26199 0.0
C1801 C 0.27562 0.22299 0.2583 0.0
C1802 C 0.28446 0.2465 0.24124 0.0
C1803 C 0.9954 0.97474 0.51492 0.0
C1804 C 0.02635 0.99569 0.51966 0.0
C1805 C 0.9725 0.98409 0.49814 0.0
C1806 C 0.97973 0.01476 0.48559 0.0
H1807 H 0.98914 0.95073 0.52409 0.0
H1808 H 0.94909 0.96708 0.49486 0.0
S1809 S 0.05567 0.08003 0.49254 0.0
N1810 N 0.0619 0.04951 0.51121 0.0
N1811 N 0.01895 0.06693 0.47965 0.0
C1812 C 0.01028 0.03616 0.49035 0.0
C1813 C 0.03353 0.02671 0.50743 0.0
C1814 C 0.28497 0.77709 0.75173 0.0
C1815 C 0.26312 0.77858 0.7698 0.0
C1816 C 0.27617 0.75381 0.73501 0.0
C1817 C 0.24499 0.73166 0.73574 0.0
H1818 H 0.30924 0.79374 0.75063 0.0
H1819 H 0.29407 0.75284 0.72153 0.0
S1820 S 0.17766 0.72746 0.77892 0.0
N1821 N 0.20828 0.7572 0.78708 0.0
N1822 N 0.19155 0.71368 0.7556 0.0
C1823 C 0.22269 0.73334 0.75359 0.0
C1824 C 0.23176 0.75682 0.77064 0.0
C1825 C 0.47916 0.03479 1.00134 0.0
C1826 C 0.47968 0.01491 0.02016 0.0
C1827 C 0.50243 0.02569 0.98467 0.0
C1828 C 0.52693 0.9964 0.98631 0.0
H1829 H 0.46091 0.05777 0.99959 0.0
H1830 H 0.50162 0.04196 0.97052 0.0
S1831 S 0.53678 0.93409 0.03161 0.0
N1832 N 0.5052 0.96343 0.03901 0.0
N1833 N 0.54903 0.94648 0.00776 0.0
C1834 C 0.52726 0.97598 0.0049 0.0
C1835 C 0.50358 0.98519 0.02182 0.0
C1836 C 0.27393 0.75256 0.23469 0.0
C1837 C 0.24385 0.7761 0.2361 0.0
C1838 C 0.28322 0.72946 0.25138 0.0
C1839 C 0.26279 0.72929 0.27002 0.0
H1840 H 0.29068 0.75241 0.22071 0.0
H1841 H 0.30673 0.71187 0.24979 0.0
S1842 S 0.18002 0.78383 0.28086 0.0
N1843 N 0.19269 0.79657 0.25713 0.0
N1844 N 0.21009 0.75311 0.28846 0.0
C1845 C 0.23233 0.75225 0.27146 0.0
C1846 C 0.22288 0.77569 0.2545 0.0
C1847 C 0.50236 0.98427 0.52206 0.0
C1848 C 0.52528 0.01484 0.52078 0.0
C1849 C 0.47976 0.97448 0.50522 0.0
C1850 C 0.47939 0.99494 0.48658 0.0
H1851 H 0.50238 0.9675 0.53602 0.0
H1852 H 0.46268 0.95057 0.50669 0.0
S1853 S 0.53228 0.07894 0.47613 0.0
N1854 N 0.54498 0.06645 0.49989 0.0
N1855 N 0.50228 0.04827 0.46835 0.0
C1856 C 0.50167 0.02593 0.48531 0.0
C1857 C 0.52469 0.03582 0.5024 0.0
C1858 C 0.27061 0.25356 0.77027 0.0
C1859 C 0.24044 0.27701 0.76891 0.0
C1860 C 0.27967 0.23013 0.75368 0.0
C1861 C 0.25908 0.22969 0.73511 0.0
H1862 H 0.28754 0.25362 0.78417 0.0
H1863 H 0.30318 0.21253 0.75527 0.0
S1864 S 0.17626 0.28409 0.72429 0.0
N1865 N 0.18903 0.29709 0.74796 0.0
N1866 N 0.20634 0.25335 0.71668 0.0
C1867 C 0.22867 0.25269 0.73364 0.0
C1868 C 0.21931 0.27632 0.75057 0.0
C1869 C 1.00272 0.02252 0.02021 0.0
C1870 C 0.98167 0.99057 0.0196 0.0
C1871 C 0.02556 0.03195 0.00344 0.0
C1872 C 0.02794 0.00982 0.9855 0.0
H1873 H 1.00123 0.04048 0.03367 0.0
H1874 H 0.04133 0.05683 0.00443 0.0
S1875 S 0.98019 0.9222 0.97687 0.0
N1876 N 0.96571 0.93611 1.00005 0.0
N1877 N 0.00884 0.95373 0.96857 0.0
C1878 C 0.00743 0.97758 0.98484 0.0
C1879 C 0.98419 0.96801 1.00189 0.0
C1880 C 0.7835 0.77491 0.75397 0.0
C1881 C 0.76085 0.77656 0.73623 0.0
C1882 C 0.77475 0.75253 0.77108 0.0
C1883 C 0.74287 0.73138 0.77108 0.0
H1884 H 0.80823 0.79095 0.75457 0.0
H1885 H 0.79319 0.7515 0.78432 0.0
S1886 S 0.67346 0.72785 0.72898 0.0
N1887 N 0.70453 0.75643 0.72005 0.0
N1888 N 0.68808 0.71432 0.75219 0.0
C1889 C 0.71986 0.7331 0.75352 0.0
C1890 C 0.72881 0.75577 0.7361 0.0
C1891 C 0.73418 0.28444 0.25642 0.0
C1892 C 0.76499 0.27845 0.26904 0.0
C1893 C 0.72608 0.26127 0.23954 0.0
C1894 C 0.74849 0.23135 0.23482 0.0
H1895 H 0.71612 0.30706 0.25972 0.0
H1896 H 0.70189 0.26646 0.2303 0.0
S1897 S 0.83348 0.20535 0.26231 0.0
N1898 N 0.81865 0.24143 0.27523 0.0
N1899 N 0.80362 0.19801 0.24342 0.0
C1900 C 0.77963 0.22544 0.24713 0.0
C1901 C 0.78779 0.24892 0.26432 0.0
C1902 C 0.73659 0.2244 0.75777 0.0
C1903 C 0.76843 0.23034 0.76952 0.0
C1904 C 0.7271 0.24758 0.74116 0.0
C1905 C 0.74913 0.27743 0.73583 0.0
H1906 H 0.71871 0.20191 0.7616 0.0
H1907 H 0.70211 0.24247 0.73264 0.0
S1908 S 0.83659 0.30308 0.76076 0.0
N1909 N 0.82281 0.26704 0.77407 0.0
N1910 N 0.80508 0.31057 0.7428 0.0
C1911 C 0.78137 0.28321 0.7472 0.0
C1912 C 0.79098 0.25969 0.76409 0.0
C1913 C 0.77798 0.78105 0.25894 0.0
C1914 C 0.74727 0.77458 0.27156 0.0
C1915 C 0.78661 0.75789 0.24213 0.0
C1916 C 0.76473 0.72758 0.23738 0.0
H1917 H 0.79546 0.80417 0.26211 0.0
H1918 H 0.81062 0.76361 0.23284 0.0
S1919 S 0.68026 0.70009 0.26494 0.0
N1920 N 0.6944 0.73648 0.27782 0.0
N1921 N 0.7103 0.6932 0.24609 0.0
C1922 C 0.73381 0.72104 0.24978 0.0
C1923 C 0.72518 0.74446 0.26694 0.0
C1924 C 0.50229 0.48097 0.98504 0.0
C1925 C 0.47857 0.51098 0.98612 0.0
C1926 C 0.5255 0.4724 1.00182 0.0
C1927 C 0.52539 0.49328 0.02031 0.0
H1928 H 0.50273 0.4639 0.97119 0.0
H1929 H 0.54351 0.44917 1.00039 0.0
S1930 S 0.46941 0.57529 0.03063 0.0
N1931 N 0.45719 0.56216 0.00688 0.0
N1932 N 0.50042 0.54573 0.03849 0.0
C1933 C 0.50181 0.52327 0.02158 0.0
C1934 C 0.47843 0.53216 0.00447 0.0
C1935 C 1.00039 0.52197 0.48473 0.0
C1936 C 0.02547 0.4932 0.48653 0.0
C1937 C 0.97695 0.5309 0.50134 0.0
C1938 C 0.978 0.51151 0.52032 0.0
H1939 H 0.99927 0.538 0.4705 0.0
H1940 H 0.95826 0.55349 0.49944 0.0
S1941 S 0.03649 0.43193 0.53223 0.0
N1942 N 0.0484 0.444 0.50826 0.0
N1943 N 0.0045 0.46092 0.53949 0.0
C1944 C 1.00243 0.48227 0.52215 0.0
C1945 C 0.02616 0.4731 0.50524 0.0
C1946 C 0.00851 0.48266 0.02051 0.0
C1947 C 0.03169 0.51303 0.01918 0.0
C1948 C 0.98522 0.47344 0.00389 0.0
C1949 C 0.98431 0.49433 0.98543 0.0
H1950 H 0.00857 0.46582 0.03444 0.0
H1951 H 0.96786 0.44974 0.00545 0.0
S1952 S 0.03818 0.57765 0.97477 0.0
N1953 N 0.05156 0.56458 0.99831 0.0
N1954 N 0.00746 0.54756 0.96718 0.0
C1955 C 0.00715 0.52491 0.98401 0.0
C1956 C 0.03096 0.53417 1.00087 0.0
C1957 C 0.53071 0.53058 0.50568 0.0
C1958 C 0.52999 0.51139 0.48661 0.0
C1959 C 0.5073 0.52117 0.52221 0.0
C1960 C 0.48266 0.49205 0.52026 0.0
H1961 H 0.54914 0.55335 0.5077 0.0
H1962 H 0.50811 0.5371 0.5365 0.0
S1963 S 0.47264 0.4312 0.47424 0.0
N1964 N 0.50422 0.46074 0.46715 0.0
N1965 N 0.46053 0.44278 0.49827 0.0
C1966 C 0.48233 0.47216 0.50145 0.0
C1967 C 0.50596 0.48187 0.4846 0.0
loop_
_geom_bond_atom_site_label_1
_geom_bond_atom_site_label_2
_geom_bond_distance
_geom_bond_site_symmetry_2
_ccdc_geom_bond_type
Co0 O3 1.970 . S
Co0 N17 1.989 . S
Co0 O25 1.967 . S
Co0 O32 1.920 . S
Co1 O4 1.966 . S
Co1 N10 2.022 . S
Co1 N18 1.993 . S
Co1 O26 1.941 . S
C2 O3 1.258 . S
C2 O4 1.263 . S
O3 Co0 1.970 . S
O3 C2 1.258 . S
O4 Co1 1.966 . S
O4 C2 1.263 . S
C5 O6 1.235 . S
C5 O32 1.289 . S
O6 C5 1.235 . S
C7 C9 1.400 . S
C7 N10 1.351 . S
C7 C12 1.501 . S
C8 C9 1.387 . S
C8 N11 1.341 . S
C9 C7 1.400 . S
C9 C8 1.387 . S
N10 Co1 2.022 . S
N10 C7 1.351 . S
N10 N11 1.365 . S
N11 C8 1.341 . S
N11 N10 1.365 . S
N11 H31 0.862 . S
C12 C7 1.501 . S
C12 H13 0.961 . S
C12 H14 0.961 . S
C12 H15 0.960 . S
H13 C12 0.961 . S
H14 C12 0.961 . S
H15 C12 0.960 . S
C16 N17 1.342 . S
C16 C20 1.401 . S
C16 C21 1.499 . S
N17 Co0 1.989 . S
N17 C16 1.342 . S
N17 N18 1.388 . S
N18 Co1 1.993 . S
N18 N17 1.388 . S
N18 C19 1.346 . S
C19 N18 1.346 . S
C19 C20 1.396 . S
C19 C29 1.510 . S
C20 C16 1.401 . S
C20 C19 1.396 . S
C21 C16 1.499 . S
C21 H22 0.959 . S
C21 H23 0.960 . S
C21 H24 0.961 . S
H22 C21 0.959 . S
H23 C21 0.960 . S
H24 C21 0.961 . S
O25 Co0 1.967 . S
O25 C33 1.258 . S
O26 Co1 1.941 . S
O26 C33 1.266 . S
H27 C29 0.959 . S
H28 C29 0.961 . S
C29 C19 1.510 . S
C29 H27 0.959 . S
C29 H28 0.961 . S
C29 H30 0.960 . S
H30 C29 0.960 . S
H31 N11 0.862 . S
O32 Co0 1.920 . S
O32 C5 1.289 . S
C33 O25 1.258 . S
C33 O26 1.266 . S
Co34 O37 1.970 . S
Co34 N51 1.989 . S
Co34 O59 1.973 . S
Co34 O66 1.920 . S
Co35 O38 1.966 . S
Co35 N44 2.022 . S
Co35 N52 1.993 . S
Co35 O60 1.941 1_565 S
C36 O37 1.258 . S
C36 O38 1.263 . S
O37 Co34 1.970 . S
O37 C36 1.258 . S
O38 Co35 1.966 . S
O38 C36 1.263 . S
C39 O40 1.235 . S
C39 O66 1.289 . S
O40 C39 1.235 . S
C41 C43 1.400 1_455 S
C41 N44 1.351 . S
C41 C46 1.501 . S
C42 C43 1.387 . S
C42 N45 1.341 1_655 S
C43 C41 1.400 1_655 S
C43 C42 1.387 . S
N44 Co35 2.022 . S
N44 C41 1.351 . S
N44 N45 1.365 . S
N45 C42 1.341 1_455 S
N45 N44 1.365 . S
N45 H65 0.862 1_565 S
C46 C41 1.501 . S
C46 H47 0.961 . S
C46 H48 0.961 . S
C46 H49 0.960 . S
H47 C46 0.961 . S
H48 C46 0.961 . S
H49 C46 0.960 . S
C50 N51 1.342 . S
C50 C54 1.401 . S
C50 C55 1.499 . S
N51 Co34 1.989 . S
N51 C50 1.342 . S
N51 N52 1.388 . S
N52 Co35 1.993 . S
N52 N51 1.388 . S
N52 C53 1.346 . S
C53 N52 1.346 . S
C53 C54 1.396 . S
C53 C63 1.508 1_455 S
C54 C50 1.401 . S
C54 C53 1.396 . S
C55 C50 1.499 . S
C55 H56 0.959 . S
C55 H57 0.960 . S
C55 H58 0.961 1_565 S
H56 C55 0.959 . S
H57 C55 0.960 . S
H58 C55 0.961 1_545 S
O59 Co34 1.973 . S
O59 C67 1.254 1_565 S
O60 Co35 1.941 1_545 S
O60 C67 1.266 . S
H61 C63 0.960 1_545 S
H62 C63 0.962 . S
C63 C53 1.508 1_655 S
C63 H61 0.960 1_565 S
C63 H62 0.962 . S
C63 H64 0.960 1_655 S
H64 C63 0.960 1_455 S
H65 N45 0.862 1_545 S
O66 Co34 1.920 . S
O66 C39 1.289 . S
C67 O59 1.254 1_545 S
C67 O60 1.266 . S
Co68 O71 1.970 . S
Co68 N85 1.989 . S
Co68 O93 1.967 . S
Co68 O100 1.920 . S
Co69 O72 1.966 . S
Co69 N78 2.022 . S
Co69 N86 1.993 . S
Co69 O94 1.941 . S
C70 O71 1.258 . S
C70 O72 1.263 . S
O71 Co68 1.970 . S
O71 C70 1.258 . S
O72 Co69 1.966 . S
O72 C70 1.263 . S
C73 O74 1.235 . S
C73 O100 1.289 . S
O74 C73 1.235 . S
C75 C77 1.400 . S
C75 N78 1.351 . S
C75 C80 1.501 . S
C76 C77 1.387 . S
C76 N79 1.341 . S
C77 C75 1.400 . S
C77 C76 1.387 . S
N78 Co69 2.022 . S
N78 C75 1.351 . S
N78 N79 1.365 . S
N79 C76 1.341 . S
N79 N78 1.365 . S
N79 H99 0.862 . S
C80 C75 1.501 . S
C80 H81 0.961 . S
C80 H82 0.961 . S
C80 H83 0.960 . S
H81 C80 0.961 . S
H82 C80 0.961 . S
H83 C80 0.960 . S
C84 N85 1.342 . S
C84 C88 1.401 . S
C84 C89 1.499 . S
N85 Co68 1.989 . S
N85 C84 1.342 . S
N85 N86 1.388 . S
N86 Co69 1.993 . S
N86 N85 1.388 . S
N86 C87 1.346 . S
C87 N86 1.346 . S
C87 C88 1.396 . S
C87 C97 1.510 . S
C88 C84 1.401 . S
C88 C87 1.396 . S
C89 C84 1.499 . S
C89 H90 0.959 . S
C89 H91 0.960 . S
C89 H92 0.961 . S
H90 C89 0.959 . S
H91 C89 0.960 . S
H92 C89 0.961 . S
O93 Co68 1.967 . S
O93 C101 1.258 . S
O94 Co69 1.941 . S
O94 C101 1.266 . S
H95 C97 0.959 . S
H96 C97 0.961 . S
C97 C87 1.510 . S
C97 H95 0.959 . S
C97 H96 0.961 . S
C97 H98 0.960 . S
H98 C97 0.960 . S
H99 N79 0.862 . S
O100 Co68 1.920 . S
O100 C73 1.289 . S
C101 O93 1.258 . S
C101 O94 1.266 . S
Co102 O105 1.970 . S
Co102 N119 1.989 . S
Co102 O127 1.973 . S
Co102 O134 1.920 . S
Co103 O106 1.966 . S
Co103 N112 2.022 . S
Co103 N120 1.993 . S
Co103 O128 1.941 1_545 S
C104 O105 1.258 . S
C104 O106 1.263 . S
O105 Co102 1.970 . S
O105 C104 1.258 . S
O106 Co103 1.966 . S
O106 C104 1.263 . S
C107 O108 1.235 . S
C107 O134 1.289 . S
O108 C107 1.235 . S
C109 C111 1.400 . S
C109 N112 1.351 . S
C109 C114 1.501 . S
C110 C111 1.387 . S
C110 N113 1.341 . S
C111 C109 1.400 . S
C111 C110 1.387 . S
N112 Co103 2.022 . S
N112 C109 1.351 . S
N112 N113 1.365 . S
N113 C110 1.341 . S
N113 N112 1.365 . S
N113 H133 0.862 1_545 S
C114 C109 1.501 . S
C114 H115 0.961 . S
C114 H116 0.961 . S
C114 H117 0.960 . S
H115 C114 0.961 . S
H116 C114 0.961 . S
H117 C114 0.960 . S
C118 N119 1.342 . S
C118 C122 1.401 . S
C118 C123 1.499 . S
N119 Co102 1.989 . S
N119 C118 1.342 . S
N119 N120 1.388 . S
N120 Co103 1.993 . S
N120 N119 1.388 . S
N120 C121 1.346 . S
C121 N120 1.346 . S
C121 C122 1.396 . S
C121 C131 1.510 . S
C122 C118 1.401 . S
C122 C121 1.396 . S
C123 C118 1.499 . S
C123 H124 0.959 . S
C123 H125 0.960 . S
C123 H126 0.961 1_545 S
H124 C123 0.959 . S
H125 C123 0.960 . S
H126 C123 0.961 1_565 S
O127 Co102 1.973 . S
O127 C135 1.254 1_545 S
O128 Co103 1.941 1_565 S
O128 C135 1.266 . S
H129 C131 0.959 1_565 S
H130 C131 0.961 . S
C131 C121 1.510 . S
C131 H129 0.959 1_545 S
C131 H130 0.961 . S
C131 H132 0.960 . S
H132 C131 0.960 . S
H133 N113 0.862 1_565 S
O134 Co102 1.920 . S
O134 C107 1.289 . S
C135 O127 1.254 1_565 S
C135 O128 1.266 . S
Co136 O139 1.970 . S
Co136 N153 1.989 . S
Co136 O161 1.967 . S
Co136 O168 1.920 . S
Co137 O140 1.966 . S
Co137 N146 2.022 . S
Co137 N154 1.993 . S
Co137 O162 1.941 . S
C138 O139 1.258 . S
C138 O140 1.263 . S
O139 Co136 1.970 . S
O139 C138 1.258 . S
O140 Co137 1.966 . S
O140 C138 1.263 . S
C141 O142 1.235 . S
C141 O168 1.289 . S
O142 C141 1.235 . S
C143 C145 1.400 . S
C143 N146 1.351 . S
C143 C148 1.501 . S
C144 C145 1.387 . S
C144 N147 1.341 . S
C145 C143 1.400 . S
C145 C144 1.387 . S
N146 Co137 2.022 . S
N146 C143 1.351 . S
N146 N147 1.365 . S
N147 C144 1.341 . S
N147 N146 1.365 . S
N147 H167 0.862 . S
C148 C143 1.501 . S
C148 H149 0.961 . S
C148 H150 0.961 . S
C148 H151 0.960 . S
H149 C148 0.961 . S
H150 C148 0.961 . S
H151 C148 0.960 . S
C152 N153 1.342 . S
C152 C156 1.401 . S
C152 C157 1.499 . S
N153 Co136 1.989 . S
N153 C152 1.342 . S
N153 N154 1.388 . S
N154 Co137 1.993 . S
N154 N153 1.388 . S
N154 C155 1.346 . S
C155 N154 1.346 . S
C155 C156 1.396 . S
C155 C165 1.510 . S
C156 C152 1.401 . S
C156 C155 1.396 . S
C157 C152 1.499 . S
C157 H158 0.959 . S
C157 H159 0.960 . S
C157 H160 0.961 . S
H158 C157 0.959 . S
H159 C157 0.960 . S
H160 C157 0.961 . S
O161 Co136 1.967 . S
O161 C169 1.258 . S
O162 Co137 1.941 . S
O162 C169 1.266 . S
H163 C165 0.959 . S
H164 C165 0.961 . S
C165 C155 1.510 . S
C165 H163 0.959 . S
C165 H164 0.961 . S
C165 H166 0.960 . S
H166 C165 0.960 . S
H167 N147 0.862 . S
O168 Co136 1.920 . S
O168 C141 1.289 . S
C169 O161 1.258 . S
C169 O162 1.266 . S
Co170 O173 1.970 . S
Co170 N187 1.989 . S
Co170 O195 1.973 . S
Co170 O202 1.920 . S
Co171 O174 1.966 . S
Co171 N180 2.022 . S
Co171 N188 1.993 . S
Co171 O196 1.941 1_565 S
C172 O173 1.258 . S
C172 O174 1.263 . S
O173 Co170 1.970 . S
O173 C172 1.258 . S
O174 Co171 1.966 . S
O174 C172 1.263 . S
C175 O176 1.235 . S
C175 O202 1.289 . S
O176 C175 1.235 . S
C177 C179 1.400 . S
C177 N180 1.351 . S
C177 C182 1.501 . S
C178 C179 1.387 . S
C178 N181 1.341 . S
C179 C177 1.400 . S
C179 C178 1.387 . S
N180 Co171 2.022 . S
N180 C177 1.351 . S
N180 N181 1.365 . S
N181 C178 1.341 . S
N181 N180 1.365 . S
N181 H201 0.862 1_565 S
C182 C177 1.501 . S
C182 H183 0.961 . S
C182 H184 0.961 . S
C182 H185 0.960 . S
H183 C182 0.961 . S
H184 C182 0.961 . S
H185 C182 0.960 . S
C186 N187 1.342 . S
C186 C190 1.401 . S
C186 C191 1.499 . S
N187 Co170 1.989 . S
N187 C186 1.342 . S
N187 N188 1.388 . S
N188 Co171 1.993 . S
N188 N187 1.388 . S
N188 C189 1.346 . S
C189 N188 1.346 . S
C189 C190 1.396 . S
C189 C199 1.510 . S
C190 C186 1.401 . S
C190 C189 1.396 . S
C191 C186 1.499 . S
C191 H192 0.959 . S
C191 H193 0.960 . S
C191 H194 0.961 1_565 S
H192 C191 0.959 . S
H193 C191 0.960 . S
H194 C191 0.961 1_545 S
O195 Co170 1.973 . S
O195 C203 1.254 1_565 S
O196 Co171 1.941 1_545 S
O196 C203 1.266 . S
H197 C199 0.959 1_545 S
H198 C199 0.961 . S
C199 C189 1.510 . S
C199 H197 0.959 1_565 S
C199 H198 0.961 . S
C199 H200 0.960 . S
H200 C199 0.960 . S
H201 N181 0.862 1_545 S
O202 Co170 1.920 . S
O202 C175 1.289 . S
C203 O195 1.254 1_545 S
C203 O196 1.266 . S
Co204 O207 1.970 . S
Co204 N221 1.989 . S
Co204 O229 1.967 . S
Co204 O236 1.920 . S
Co205 O208 1.966 . S
Co205 N214 2.022 . S
Co205 N222 1.993 . S
Co205 O230 1.941 . S
C206 O207 1.258 . S
C206 O208 1.263 . S
O207 Co204 1.970 . S
O207 C206 1.258 . S
O208 Co205 1.966 . S
O208 C206 1.263 . S
C209 O210 1.235 . S
C209 O236 1.289 . S
O210 C209 1.235 . S
C211 C213 1.400 . S
C211 N214 1.351 . S
C211 C216 1.501 . S
C212 C213 1.387 . S
C212 N215 1.341 . S
C213 C211 1.400 . S
C213 C212 1.387 . S
N214 Co205 2.022 . S
N214 C211 1.351 . S
N214 N215 1.365 . S
N215 C212 1.341 . S
N215 N214 1.365 . S
N215 H235 0.862 . S
C216 C211 1.501 . S
C216 H217 0.961 . S
C216 H218 0.961 . S
C216 H219 0.960 . S
H217 C216 0.961 . S
H218 C216 0.961 . S
H219 C216 0.960 . S
C220 N221 1.342 . S
C220 C224 1.401 . S
C220 C225 1.499 . S
N221 Co204 1.989 . S
N221 C220 1.342 . S
N221 N222 1.388 . S
N222 Co205 1.993 . S
N222 N221 1.388 . S
N222 C223 1.346 . S
C223 N222 1.346 . S
C223 C224 1.396 . S
C223 C233 1.510 . S
C224 C220 1.401 . S
C224 C223 1.396 . S
C225 C220 1.499 . S
C225 H226 0.959 . S
C225 H227 0.960 . S
C225 H228 0.961 . S
H226 C225 0.959 . S
H227 C225 0.960 . S
H228 C225 0.961 . S
O229 Co204 1.967 . S
O229 C237 1.258 . S
O230 Co205 1.941 . S
O230 C237 1.266 . S
H231 C233 0.959 . S
H232 C233 0.961 . S
C233 C223 1.510 . S
C233 H231 0.959 . S
C233 H232 0.961 . S
C233 H234 0.960 . S
H234 C233 0.960 . S
H235 N215 0.862 . S
O236 Co204 1.920 . S
O236 C209 1.289 . S
C237 O229 1.258 . S
C237 O230 1.266 . S
Co238 O241 1.970 . S
Co238 N255 1.989 . S
Co238 O263 1.973 . S
Co238 O270 1.920 . S
Co239 O242 1.966 . S
Co239 N248 2.022 . S
Co239 N256 1.993 . S
Co239 O264 1.941 1_545 S
C240 O241 1.258 . S
C240 O242 1.263 . S
O241 Co238 1.970 . S
O241 C240 1.258 . S
O242 Co239 1.966 . S
O242 C240 1.263 . S
C243 O244 1.235 . S
C243 O270 1.289 . S
O244 C243 1.235 . S
C245 C247 1.400 1_455 S
C245 N248 1.351 . S
C245 C250 1.501 . S
C246 C247 1.387 . S
C246 N249 1.341 1_655 S
C247 C245 1.400 1_655 S
C247 C246 1.387 . S
N248 Co239 2.022 . S
N248 C245 1.351 . S
N248 N249 1.365 . S
N249 C246 1.341 1_455 S
N249 N248 1.365 . S
N249 H269 0.862 1_545 S
C250 C245 1.501 . S
C250 H251 0.961 . S
C250 H252 0.961 . S
C250 H253 0.960 . S
H251 C250 0.961 . S
H252 C250 0.961 . S
H253 C250 0.960 . S
C254 N255 1.342 . S
C254 C258 1.401 . S
C254 C259 1.499 . S
N255 Co238 1.989 . S
N255 C254 1.342 . S
N255 N256 1.388 . S
N256 Co239 1.993 . S
N256 N255 1.388 . S
N256 C257 1.346 . S
C257 N256 1.346 . S
C257 C258 1.396 . S
C257 C267 1.508 1_455 S
C258 C254 1.401 . S
C258 C257 1.396 . S
C259 C254 1.499 . S
C259 H260 0.959 . S
C259 H261 0.960 . S
C259 H262 0.961 1_545 S
H260 C259 0.959 . S
H261 C259 0.960 . S
H262 C259 0.961 1_565 S
O263 Co238 1.973 . S
O263 C271 1.254 1_545 S
O264 Co239 1.941 1_565 S
O264 C271 1.266 . S
H265 C267 0.960 1_565 S
H266 C267 0.962 . S
C267 C257 1.508 1_655 S
C267 H265 0.960 1_545 S
C267 H266 0.962 . S
C267 H268 0.960 1_655 S
H268 C267 0.960 1_455 S
H269 N249 0.862 1_565 S
O270 Co238 1.920 . S
O270 C243 1.289 . S
C271 O263 1.254 1_565 S
C271 O264 1.266 . S
Co272 O275 1.970 . S
Co272 N289 1.989 . S
Co272 O297 1.967 . S
Co272 O304 1.920 . S
Co273 O276 1.966 . S
Co273 N282 2.022 . S
Co273 N290 1.993 . S
Co273 O298 1.941 . S
C274 O275 1.258 . S
C274 O276 1.263 . S
O275 Co272 1.970 . S
O275 C274 1.258 . S
O276 Co273 1.966 . S
O276 C274 1.263 . S
C277 O278 1.235 . S
C277 O304 1.289 . S
O278 C277 1.235 . S
C279 C281 1.400 . S
C279 N282 1.351 . S
C279 C284 1.501 . S
C280 C281 1.387 . S
C280 N283 1.341 . S
C281 C279 1.400 . S
C281 C280 1.387 . S
N282 Co273 2.022 . S
N282 C279 1.351 . S
N282 N283 1.365 . S
N283 C280 1.341 . S
N283 N282 1.365 . S
N283 H303 0.862 . S
C284 C279 1.501 . S
C284 H285 0.961 . S
C284 H286 0.961 . S
C284 H287 0.960 . S
H285 C284 0.961 . S
H286 C284 0.961 . S
H287 C284 0.960 . S
C288 N289 1.342 . S
C288 C292 1.401 . S
C288 C293 1.499 . S
N289 Co272 1.989 . S
N289 C288 1.342 . S
N289 N290 1.388 . S
N290 Co273 1.993 . S
N290 N289 1.388 . S
N290 C291 1.346 . S
C291 N290 1.346 . S
C291 C292 1.396 . S
C291 C301 1.510 . S
C292 C288 1.401 . S
C292 C291 1.396 . S
C293 C288 1.499 . S
C293 H294 0.959 . S
C293 H295 0.960 . S
C293 H296 0.961 . S
H294 C293 0.959 . S
H295 C293 0.960 . S
H296 C293 0.961 . S
O297 Co272 1.967 . S
O297 C305 1.258 . S
O298 Co273 1.941 . S
O298 C305 1.266 . S
H299 C301 0.959 . S
H300 C301 0.961 . S
C301 C291 1.510 . S
C301 H299 0.959 . S
C301 H300 0.961 . S
C301 H302 0.960 . S
H302 C301 0.960 . S
H303 N283 0.862 . S
O304 Co272 1.920 . S
O304 C277 1.289 . S
C305 O297 1.258 . S
C305 O298 1.266 . S
Co306 O309 1.970 . S
Co306 N323 1.989 . S
Co306 O331 1.973 . S
Co306 O338 1.920 . S
Co307 O310 1.966 . S
Co307 N316 2.022 . S
Co307 N324 1.993 . S
Co307 O332 1.941 1_545 S
C308 O309 1.258 . S
C308 O310 1.263 . S
O309 Co306 1.970 . S
O309 C308 1.258 . S
O310 Co307 1.966 . S
O310 C308 1.263 . S
C311 O312 1.235 . S
C311 O338 1.289 . S
O312 C311 1.235 . S
C313 C315 1.400 1_655 S
C313 N316 1.351 . S
C313 C318 1.501 . S
C314 C315 1.387 . S
C314 N317 1.341 1_455 S
C315 C313 1.400 1_455 S
C315 C314 1.387 . S
N316 Co307 2.022 . S
N316 C313 1.351 . S
N316 N317 1.365 . S
N317 C314 1.341 1_655 S
N317 N316 1.365 . S
N317 H337 0.862 1_545 S
C318 C313 1.501 . S
C318 H319 0.961 . S
C318 H320 0.961 . S
C318 H321 0.960 . S
H319 C318 0.961 . S
H320 C318 0.961 . S
H321 C318 0.960 . S
C322 N323 1.342 . S
C322 C326 1.401 . S
C322 C327 1.499 . S
N323 Co306 1.989 . S
N323 C322 1.342 . S
N323 N324 1.388 . S
N324 Co307 1.993 . S
N324 N323 1.388 . S
N324 C325 1.346 . S
C325 N324 1.346 . S
C325 C326 1.396 . S
C325 C335 1.508 1_655 S
C326 C322 1.401 . S
C326 C325 1.396 . S
C327 C322 1.499 . S
C327 H328 0.959 . S
C327 H329 0.960 . S
C327 H330 0.961 1_545 S
H328 C327 0.959 . S
H329 C327 0.960 . S
H330 C327 0.961 1_565 S
O331 Co306 1.973 . S
O331 C339 1.254 1_545 S
O332 Co307 1.941 1_565 S
O332 C339 1.266 . S
H333 C335 0.960 1_565 S
H334 C335 0.962 . S
C335 C325 1.508 1_455 S
C335 H333 0.960 1_545 S
C335 H334 0.962 . S
C335 H336 0.960 1_455 S
H336 C335 0.960 1_655 S
H337 N317 0.862 1_565 S
O338 Co306 1.920 . S
O338 C311 1.289 . S
C339 O331 1.254 1_565 S
C339 O332 1.266 . S
Co340 O343 1.970 . S
Co340 N357 1.989 . S
Co340 O365 1.967 . S
Co340 O372 1.920 . S
Co341 O344 1.966 . S
Co341 N350 2.022 . S
Co341 N358 1.993 . S
Co341 O366 1.941 . S
C342 O343 1.258 . S
C342 O344 1.263 . S
O343 Co340 1.970 . S
O343 C342 1.258 . S
O344 Co341 1.966 . S
O344 C342 1.263 . S
C345 O346 1.235 . S
C345 O372 1.289 . S
O346 C345 1.235 . S
C347 C349 1.400 . S
C347 N350 1.351 . S
C347 C352 1.501 . S
C348 C349 1.387 . S
C348 N351 1.341 . S
C349 C347 1.400 . S
C349 C348 1.387 . S
N350 Co341 2.022 . S
N350 C347 1.351 . S
N350 N351 1.365 . S
N351 C348 1.341 . S
N351 N350 1.365 . S
N351 H371 0.862 . S
C352 C347 1.501 . S
C352 H353 0.961 . S
C352 H354 0.961 . S
C352 H355 0.960 . S
H353 C352 0.961 . S
H354 C352 0.961 . S
H355 C352 0.960 . S
C356 N357 1.342 . S
C356 C360 1.401 . S
C356 C361 1.499 . S
N357 Co340 1.989 . S
N357 C356 1.342 . S
N357 N358 1.388 . S
N358 Co341 1.993 . S
N358 N357 1.388 . S
N358 C359 1.346 . S
C359 N358 1.346 . S
C359 C360 1.396 . S
C359 C369 1.510 . S
C360 C356 1.401 . S
C360 C359 1.396 . S
C361 C356 1.499 . S
C361 H362 0.959 . S
C361 H363 0.960 . S
C361 H364 0.961 . S
H362 C361 0.959 . S
H363 C361 0.960 . S
H364 C361 0.961 . S
O365 Co340 1.967 . S
O365 C373 1.258 . S
O366 Co341 1.941 . S
O366 C373 1.266 . S
H367 C369 0.959 . S
H368 C369 0.961 . S
C369 C359 1.510 . S
C369 H367 0.959 . S
C369 H368 0.961 . S
C369 H370 0.960 . S
H370 C369 0.960 . S
H371 N351 0.862 . S
O372 Co340 1.920 . S
O372 C345 1.289 . S
C373 O365 1.258 . S
C373 O366 1.266 . S
Co374 O377 1.970 . S
Co374 N391 1.989 . S
Co374 O399 1.973 . S
Co374 O406 1.920 . S
Co375 O378 1.966 . S
Co375 N384 2.022 . S
Co375 N392 1.993 . S
Co375 O400 1.941 1_565 S
C376 O377 1.258 . S
C376 O378 1.263 . S
O377 Co374 1.970 . S
O377 C376 1.258 . S
O378 Co375 1.966 . S
O378 C376 1.263 . S
C379 O380 1.235 . S
C379 O406 1.289 . S
O380 C379 1.235 . S
C381 C383 1.400 . S
C381 N384 1.351 . S
C381 C386 1.501 . S
C382 C383 1.387 . S
C382 N385 1.341 . S
C383 C381 1.400 . S
C383 C382 1.387 . S
N384 Co375 2.022 . S
N384 C381 1.351 . S
N384 N385 1.365 . S
N385 C382 1.341 . S
N385 N384 1.365 . S
N385 H405 0.862 1_565 S
C386 C381 1.501 . S
C386 H387 0.961 . S
C386 H388 0.961 . S
C386 H389 0.960 . S
H387 C386 0.961 . S
H388 C386 0.961 . S
H389 C386 0.960 . S
C390 N391 1.342 . S
C390 C394 1.401 . S
C390 C395 1.499 . S
N391 Co374 1.989 . S
N391 C390 1.342 . S
N391 N392 1.388 . S
N392 Co375 1.993 . S
N392 N391 1.388 . S
N392 C393 1.346 . S
C393 N392 1.346 . S
C393 C394 1.396 . S
C393 C403 1.510 . S
C394 C390 1.401 . S
C394 C393 1.396 . S
C395 C390 1.499 . S
C395 H396 0.959 . S
C395 H397 0.960 . S
C395 H398 0.961 1_565 S
H396 C395 0.959 . S
H397 C395 0.960 . S
H398 C395 0.961 1_545 S
O399 Co374 1.973 . S
O399 C407 1.254 1_565 S
O400 Co375 1.941 1_545 S
O400 C407 1.266 . S
H401 C403 0.959 1_545 S
H402 C403 0.961 . S
C403 C393 1.510 . S
C403 H401 0.959 1_565 S
C403 H402 0.961 . S
C403 H404 0.960 . S
H404 C403 0.960 . S
H405 N385 0.862 1_545 S
O406 Co374 1.920 . S
O406 C379 1.289 . S
C407 O399 1.254 1_545 S
C407 O400 1.266 . S
Co408 O411 1.970 . S
Co408 N425 1.989 . S
Co408 O433 1.967 . S
Co408 O440 1.920 . S
Co409 O412 1.966 . S
Co409 N418 2.022 . S
Co409 N426 1.993 . S
Co409 O434 1.941 . S
C410 O411 1.258 . S
C410 O412 1.263 . S
O411 Co408 1.970 . S
O411 C410 1.258 . S
O412 Co409 1.966 . S
O412 C410 1.263 . S
C413 O414 1.235 . S
C413 O440 1.289 . S
O414 C413 1.235 . S
C415 C417 1.400 . S
C415 N418 1.351 . S
C415 C420 1.501 . S
C416 C417 1.387 . S
C416 N419 1.341 . S
C417 C415 1.400 . S
C417 C416 1.387 . S
N418 Co409 2.022 . S
N418 C415 1.351 . S
N418 N419 1.365 . S
N419 C416 1.341 . S
N419 N418 1.365 . S
N419 H439 0.862 . S
C420 C415 1.501 . S
C420 H421 0.961 . S
C420 H422 0.961 . S
C420 H423 0.960 . S
H421 C420 0.961 . S
H422 C420 0.961 . S
H423 C420 0.960 . S
C424 N425 1.342 . S
C424 C428 1.401 . S
C424 C429 1.499 . S
N425 Co408 1.989 . S
N425 C424 1.342 . S
N425 N426 1.388 . S
N426 Co409 1.993 . S
N426 N425 1.388 . S
N426 C427 1.346 . S
C427 N426 1.346 . S
C427 C428 1.396 . S
C427 C437 1.510 . S
C428 C424 1.401 . S
C428 C427 1.396 . S
C429 C424 1.499 . S
C429 H430 0.959 . S
C429 H431 0.960 . S
C429 H432 0.961 . S
H430 C429 0.959 . S
H431 C429 0.960 . S
H432 C429 0.961 . S
O433 Co408 1.967 . S
O433 C441 1.258 . S
O434 Co409 1.941 . S
O434 C441 1.266 . S
H435 C437 0.959 . S
H436 C437 0.961 . S
C437 C427 1.510 . S
C437 H435 0.959 . S
C437 H436 0.961 . S
C437 H438 0.960 . S
H438 C437 0.960 . S
H439 N419 0.862 . S
O440 Co408 1.920 . S
O440 C413 1.289 . S
C441 O433 1.258 . S
C441 O434 1.266 . S
Co442 O445 1.970 . S
Co442 N459 1.989 . S
Co442 O467 1.973 . S
Co442 O474 1.920 . S
Co443 O446 1.966 . S
Co443 N452 2.022 . S
Co443 N460 1.993 . S
Co443 O468 1.941 1_545 S
C444 O445 1.258 . S
C444 O446 1.263 . S
O445 Co442 1.970 . S
O445 C444 1.258 . S
O446 Co443 1.966 . S
O446 C444 1.263 . S
C447 O448 1.235 . S
C447 O474 1.289 . S
O448 C447 1.235 . S
C449 C451 1.400 . S
C449 N452 1.351 . S
C449 C454 1.501 . S
C450 C451 1.387 . S
C450 N453 1.341 . S
C451 C449 1.400 . S
C451 C450 1.387 . S
N452 Co443 2.022 . S
N452 C449 1.351 . S
N452 N453 1.365 . S
N453 C450 1.341 . S
N453 N452 1.365 . S
N453 H473 0.862 1_545 S
C454 C449 1.501 . S
C454 H455 0.961 . S
C454 H456 0.961 . S
C454 H457 0.960 . S
H455 C454 0.961 . S
H456 C454 0.961 . S
H457 C454 0.960 . S
C458 N459 1.342 . S
C458 C462 1.401 . S
C458 C463 1.499 . S
N459 Co442 1.989 . S
N459 C458 1.342 . S
N459 N460 1.388 . S
N460 Co443 1.993 . S
N460 N459 1.388 . S
N460 C461 1.346 . S
C461 N460 1.346 . S
C461 C462 1.396 . S
C461 C471 1.510 . S
C462 C458 1.401 . S
C462 C461 1.396 . S
C463 C458 1.499 . S
C463 H464 0.959 . S
C463 H465 0.960 . S
C463 H466 0.961 1_545 S
H464 C463 0.959 . S
H465 C463 0.960 . S
H466 C463 0.961 1_565 S
O467 Co442 1.973 . S
O467 C475 1.254 1_545 S
O468 Co443 1.941 1_565 S
O468 C475 1.266 . S
H469 C471 0.959 1_565 S
H470 C471 0.961 . S
C471 C461 1.510 . S
C471 H469 0.959 1_545 S
C471 H470 0.961 . S
C471 H472 0.960 . S
H472 C471 0.960 . S
H473 N453 0.862 1_565 S
O474 Co442 1.920 . S
O474 C447 1.289 . S
C475 O467 1.254 1_565 S
C475 O468 1.266 . S
Co476 O479 1.970 . S
Co476 N493 1.989 . S
Co476 O501 1.967 . S
Co476 O508 1.920 . S
Co477 O480 1.966 . S
Co477 N486 2.022 . S
Co477 N494 1.993 . S
Co477 O502 1.941 . S
C478 O479 1.258 . S
C478 O480 1.263 . S
O479 Co476 1.970 . S
O479 C478 1.258 . S
O480 Co477 1.966 . S
O480 C478 1.263 . S
C481 O482 1.235 . S
C481 O508 1.289 . S
O482 C481 1.235 . S
C483 C485 1.400 . S
C483 N486 1.351 . S
C483 C488 1.501 . S
C484 C485 1.387 . S
C484 N487 1.341 . S
C485 C483 1.400 . S
C485 C484 1.387 . S
N486 Co477 2.022 . S
N486 C483 1.351 . S
N486 N487 1.365 . S
N487 C484 1.341 . S
N487 N486 1.365 . S
N487 H507 0.862 . S
C488 C483 1.501 . S
C488 H489 0.961 . S
C488 H490 0.961 . S
C488 H491 0.960 . S
H489 C488 0.961 . S
H490 C488 0.961 . S
H491 C488 0.960 . S
C492 N493 1.342 . S
C492 C496 1.401 . S
C492 C497 1.499 . S
N493 Co476 1.989 . S
N493 C492 1.342 . S
N493 N494 1.388 . S
N494 Co477 1.993 . S
N494 N493 1.388 . S
N494 C495 1.346 . S
C495 N494 1.346 . S
C495 C496 1.396 . S
C495 C505 1.510 . S
C496 C492 1.401 . S
C496 C495 1.396 . S
C497 C492 1.499 . S
C497 H498 0.959 . S
C497 H499 0.960 . S
C497 H500 0.961 . S
H498 C497 0.959 . S
H499 C497 0.960 . S
H500 C497 0.961 . S
O501 Co476 1.967 . S
O501 C509 1.258 . S
O502 Co477 1.941 . S
O502 C509 1.266 . S
H503 C505 0.959 . S
H504 C505 0.961 . S
C505 C495 1.510 . S
C505 H503 0.959 . S
C505 H504 0.961 . S
C505 H506 0.960 . S
H506 C505 0.960 . S
H507 N487 0.862 . S
O508 Co476 1.920 . S
O508 C481 1.289 . S
C509 O501 1.258 . S
C509 O502 1.266 . S
Co510 O513 1.970 . S
Co510 N527 1.989 . S
Co510 O535 1.973 . S
Co510 O542 1.920 . S
Co511 O514 1.966 . S
Co511 N520 2.022 . S
Co511 N528 1.993 . S
Co511 O536 1.941 1_565 S
C512 O513 1.258 . S
C512 O514 1.263 . S
O513 Co510 1.970 . S
O513 C512 1.258 . S
O514 Co511 1.966 . S
O514 C512 1.263 . S
C515 O516 1.235 . S
C515 O542 1.289 . S
O516 C515 1.235 . S
C517 C519 1.400 1_655 S
C517 N520 1.351 . S
C517 C522 1.501 . S
C518 C519 1.387 . S
C518 N521 1.341 1_455 S
C519 C517 1.400 1_455 S
C519 C518 1.387 . S
N520 Co511 2.022 . S
N520 C517 1.351 . S
N520 N521 1.365 . S
N521 C518 1.341 1_655 S
N521 N520 1.365 . S
N521 H541 0.862 1_565 S
C522 C517 1.501 . S
C522 H523 0.961 . S
C522 H524 0.961 . S
C522 H525 0.960 . S
H523 C522 0.961 . S
H524 C522 0.961 . S
H525 C522 0.960 . S
C526 N527 1.342 . S
C526 C530 1.401 . S
C526 C531 1.499 . S
N527 Co510 1.989 . S
N527 C526 1.342 . S
N527 N528 1.388 . S
N528 Co511 1.993 . S
N528 N527 1.388 . S
N528 C529 1.346 . S
C529 N528 1.346 . S
C529 C530 1.396 . S
C529 C539 1.508 1_655 S
C530 C526 1.401 . S
C530 C529 1.396 . S
C531 C526 1.499 . S
C531 H532 0.959 . S
C531 H533 0.960 . S
C531 H534 0.961 1_565 S
H532 C531 0.959 . S
H533 C531 0.960 . S
H534 C531 0.961 1_545 S
O535 Co510 1.973 . S
O535 C543 1.254 1_565 S
O536 Co511 1.941 1_545 S
O536 C543 1.266 . S
H537 C539 0.960 1_545 S
H538 C539 0.962 . S
C539 C529 1.508 1_455 S
C539 H537 0.960 1_565 S
C539 H538 0.962 . S
C539 H540 0.960 1_455 S
H540 C539 0.960 1_655 S
H541 N521 0.862 1_545 S
O542 Co510 1.920 . S
O542 C515 1.289 . S
C543 O535 1.254 1_545 S
C543 O536 1.266 . S
Co544 O547 1.970 . S
Co544 N561 1.989 . S
Co544 O569 1.967 . S
Co544 O576 1.920 . S
Co545 O548 1.966 . S
Co545 N554 2.022 . S
Co545 N562 1.993 . S
Co545 O570 1.941 . S
C546 O547 1.258 . S
C546 O548 1.263 . S
O547 Co544 1.970 . S
O547 C546 1.258 . S
O548 Co545 1.966 . S
O548 C546 1.263 . S
C549 O550 1.235 . S
C549 O576 1.289 . S
O550 C549 1.235 . S
C551 C553 1.400 . S
C551 N554 1.351 . S
C551 C556 1.501 . S
C552 C553 1.387 . S
C552 N555 1.341 . S
C553 C551 1.400 . S
C553 C552 1.387 . S
N554 Co545 2.022 . S
N554 C551 1.351 . S
N554 N555 1.365 . S
N555 C552 1.341 . S
N555 N554 1.365 . S
N555 H575 0.862 . S
C556 C551 1.501 . S
C556 H557 0.961 . S
C556 H558 0.961 . S
C556 H559 0.960 . S
H557 C556 0.961 . S
H558 C556 0.961 . S
H559 C556 0.960 . S
C560 N561 1.342 . S
C560 C564 1.401 . S
C560 C565 1.499 . S
N561 Co544 1.989 . S
N561 C560 1.342 . S
N561 N562 1.388 . S
N562 Co545 1.993 . S
N562 N561 1.388 . S
N562 C563 1.346 . S
C563 N562 1.346 . S
C563 C564 1.396 . S
C563 C573 1.510 . S
C564 C560 1.401 . S
C564 C563 1.396 . S
C565 C560 1.499 . S
C565 H566 0.959 . S
C565 H567 0.960 . S
C565 H568 0.961 . S
H566 C565 0.959 . S
H567 C565 0.960 . S
H568 C565 0.961 . S
O569 Co544 1.967 . S
O569 C577 1.258 . S
O570 Co545 1.941 . S
O570 C577 1.266 . S
H571 C573 0.959 . S
H572 C573 0.961 . S
C573 C563 1.510 . S
C573 H571 0.959 . S
C573 H572 0.961 . S
C573 H574 0.960 . S
H574 C573 0.960 . S
H575 N555 0.862 . S
O576 Co544 1.920 . S
O576 C549 1.289 . S
C577 O569 1.258 . S
C577 O570 1.266 . S
Co578 O581 1.970 . S
Co578 N595 1.989 . S
Co578 O603 1.967 . S
Co578 O610 1.920 . S
Co579 O582 1.966 . S
Co579 N588 2.022 . S
Co579 N596 1.993 . S
Co579 O604 1.941 . S
C580 O581 1.258 . S
C580 O582 1.263 . S
O581 Co578 1.970 . S
O581 C580 1.258 . S
O582 Co579 1.966 . S
O582 C580 1.263 . S
C583 O584 1.235 . S
C583 O610 1.289 . S
O584 C583 1.235 . S
C585 C587 1.400 . S
C585 N588 1.351 . S
C585 C590 1.501 . S
C586 C587 1.387 . S
C586 N589 1.341 . S
C587 C585 1.400 . S
C587 C586 1.387 . S
N588 Co579 2.022 . S
N588 C585 1.351 . S
N588 N589 1.365 . S
N589 C586 1.341 . S
N589 N588 1.365 . S
N589 H609 0.862 . S
C590 C585 1.501 . S
C590 H591 0.961 . S
C590 H592 0.961 . S
C590 H593 0.960 . S
H591 C590 0.961 . S
H592 C590 0.961 . S
H593 C590 0.960 . S
C594 N595 1.342 . S
C594 C598 1.401 . S
C594 C599 1.499 . S
N595 Co578 1.989 . S
N595 C594 1.342 . S
N595 N596 1.388 . S
N596 Co579 1.993 . S
N596 N595 1.388 . S
N596 C597 1.346 . S
C597 N596 1.346 . S
C597 C598 1.396 . S
C597 C607 1.510 . S
C598 C594 1.401 . S
C598 C597 1.396 . S
C599 C594 1.499 . S
C599 H600 0.959 . S
C599 H601 0.960 . S
C599 H602 0.961 . S
H600 C599 0.959 . S
H601 C599 0.960 . S
H602 C599 0.961 . S
O603 Co578 1.967 . S
O603 C611 1.258 . S
O604 Co579 1.941 . S
O604 C611 1.266 . S
H605 C607 0.959 . S
H606 C607 0.961 . S
C607 C597 1.510 . S
C607 H605 0.959 . S
C607 H606 0.961 . S
C607 H608 0.960 . S
H608 C607 0.960 . S
H609 N589 0.862 . S
O610 Co578 1.920 . S
O610 C583 1.289 . S
C611 O603 1.258 . S
C611 O604 1.266 . S
Co612 O615 1.970 . S
Co612 N629 1.989 . S
Co612 O637 1.967 . S
Co612 O644 1.920 . S
Co613 O616 1.966 . S
Co613 N622 2.022 . S
Co613 N630 1.993 . S
Co613 O638 1.941 . S
C614 O615 1.258 . S
C614 O616 1.263 . S
O615 Co612 1.970 . S
O615 C614 1.258 . S
O616 Co613 1.966 . S
O616 C614 1.263 . S
C617 O618 1.235 . S
C617 O644 1.289 . S
O618 C617 1.235 . S
C619 C621 1.400 . S
C619 N622 1.351 . S
C619 C624 1.501 . S
C620 C621 1.387 . S
C620 N623 1.341 . S
C621 C619 1.400 . S
C621 C620 1.387 . S
N622 Co613 2.022 . S
N622 C619 1.351 . S
N622 N623 1.365 . S
N623 C620 1.341 . S
N623 N622 1.365 . S
N623 H643 0.862 . S
C624 C619 1.501 . S
C624 H625 0.961 . S
C624 H626 0.961 . S
C624 H627 0.960 . S
H625 C624 0.961 . S
H626 C624 0.961 . S
H627 C624 0.960 . S
C628 N629 1.342 . S
C628 C632 1.401 . S
C628 C633 1.499 . S
N629 Co612 1.989 . S
N629 C628 1.342 . S
N629 N630 1.388 . S
N630 Co613 1.993 . S
N630 N629 1.388 . S
N630 C631 1.346 . S
C631 N630 1.346 . S
C631 C632 1.396 . S
C631 C641 1.510 . S
C632 C628 1.401 . S
C632 C631 1.396 . S
C633 C628 1.499 . S
C633 H634 0.959 . S
C633 H635 0.960 . S
C633 H636 0.961 . S
H634 C633 0.959 . S
H635 C633 0.960 . S
H636 C633 0.961 . S
O637 Co612 1.967 . S
O637 C645 1.258 . S
O638 Co613 1.941 . S
O638 C645 1.266 . S
H639 C641 0.959 . S
H640 C641 0.961 . S
C641 C631 1.510 . S
C641 H639 0.959 . S
C641 H640 0.961 . S
C641 H642 0.960 . S
H642 C641 0.960 . S
H643 N623 0.862 . S
O644 Co612 1.920 . S
O644 C617 1.289 . S
C645 O637 1.258 . S
C645 O638 1.266 . S
Co646 O649 1.970 . S
Co646 N663 1.989 . S
Co646 O671 1.967 . S
Co646 O678 1.920 . S
Co647 O650 1.966 . S
Co647 N656 2.022 . S
Co647 N664 1.993 . S
Co647 O672 1.941 . S
C648 O649 1.258 . S
C648 O650 1.263 . S
O649 Co646 1.970 . S
O649 C648 1.258 . S
O650 Co647 1.966 . S
O650 C648 1.263 . S
C651 O652 1.235 . S
C651 O678 1.289 . S
O652 C651 1.235 . S
C653 C655 1.400 1_655 S
C653 N656 1.351 . S
C653 C658 1.501 . S
C654 C655 1.387 . S
C654 N657 1.341 1_455 S
C655 C653 1.400 1_455 S
C655 C654 1.387 . S
N656 Co647 2.022 . S
N656 C653 1.351 . S
N656 N657 1.365 . S
N657 C654 1.341 1_655 S
N657 N656 1.365 . S
N657 H677 0.862 . S
C658 C653 1.501 . S
C658 H659 0.961 . S
C658 H660 0.961 . S
C658 H661 0.960 . S
H659 C658 0.961 . S
H660 C658 0.961 . S
H661 C658 0.960 . S
C662 N663 1.342 . S
C662 C666 1.401 . S
C662 C667 1.499 . S
N663 Co646 1.989 . S
N663 C662 1.342 . S
N663 N664 1.388 . S
N664 Co647 1.993 . S
N664 N663 1.388 . S
N664 C665 1.346 . S
C665 N664 1.346 . S
C665 C666 1.396 . S
C665 C675 1.508 1_655 S
C666 C662 1.401 . S
C666 C665 1.396 . S
C667 C662 1.499 . S
C667 H668 0.959 . S
C667 H669 0.960 . S
C667 H670 0.961 . S
H668 C667 0.959 . S
H669 C667 0.960 . S
H670 C667 0.961 . S
O671 Co646 1.967 . S
O671 C679 1.258 . S
O672 Co647 1.941 . S
O672 C679 1.266 . S
H673 C675 0.960 . S
H674 C675 0.962 . S
C675 C665 1.508 1_455 S
C675 H673 0.960 . S
C675 H674 0.962 . S
C675 H676 0.960 1_455 S
H676 C675 0.960 1_655 S
H677 N657 0.862 . S
O678 Co646 1.920 . S
O678 C651 1.289 . S
C679 O671 1.258 . S
C679 O672 1.266 . S
Co680 O683 1.970 . S
Co680 N697 1.989 . S
Co680 O705 1.967 . S
Co680 O712 1.920 . S
Co681 O684 1.966 . S
Co681 N690 2.022 . S
Co681 N698 1.993 . S
Co681 O706 1.941 . S
C682 O683 1.258 . S
C682 O684 1.263 . S
O683 Co680 1.970 . S
O683 C682 1.258 . S
O684 Co681 1.966 . S
O684 C682 1.263 . S
C685 O686 1.235 . S
C685 O712 1.289 . S
O686 C685 1.235 . S
C687 C689 1.400 . S
C687 N690 1.351 . S
C687 C692 1.501 . S
C688 C689 1.387 . S
C688 N691 1.341 . S
C689 C687 1.400 . S
C689 C688 1.387 . S
N690 Co681 2.022 . S
N690 C687 1.351 . S
N690 N691 1.365 . S
N691 C688 1.341 . S
N691 N690 1.365 . S
N691 H711 0.862 . S
C692 C687 1.501 . S
C692 H693 0.961 . S
C692 H694 0.961 . S
C692 H695 0.960 . S
H693 C692 0.961 . S
H694 C692 0.961 . S
H695 C692 0.960 . S
C696 N697 1.342 . S
C696 C700 1.401 . S
C696 C701 1.499 . S
N697 Co680 1.989 . S
N697 C696 1.342 . S
N697 N698 1.388 . S
N698 Co681 1.993 . S
N698 N697 1.388 . S
N698 C699 1.346 . S
C699 N698 1.346 . S
C699 C700 1.396 . S
C699 C709 1.510 . S
C700 C696 1.401 . S
C700 C699 1.396 . S
C701 C696 1.499 . S
C701 H702 0.959 . S
C701 H703 0.960 . S
C701 H704 0.961 . S
H702 C701 0.959 . S
H703 C701 0.960 . S
H704 C701 0.961 . S
O705 Co680 1.967 . S
O705 C713 1.258 . S
O706 Co681 1.941 . S
O706 C713 1.266 . S
H707 C709 0.959 . S
H708 C709 0.961 . S
C709 C699 1.510 . S
C709 H707 0.959 . S
C709 H708 0.961 . S
C709 H710 0.960 . S
H710 C709 0.960 . S
H711 N691 0.862 . S
O712 Co680 1.920 . S
O712 C685 1.289 . S
C713 O705 1.258 . S
C713 O706 1.266 . S
Co714 O717 1.970 . S
Co714 N731 1.989 . S
Co714 O739 1.967 . S
Co714 O746 1.920 . S
Co715 O718 1.966 . S
Co715 N724 2.022 . S
Co715 N732 1.993 . S
Co715 O740 1.941 . S
C716 O717 1.258 . S
C716 O718 1.263 . S
O717 Co714 1.970 . S
O717 C716 1.258 . S
O718 Co715 1.966 . S
O718 C716 1.263 . S
C719 O720 1.235 . S
C719 O746 1.289 . S
O720 C719 1.235 . S
C721 C723 1.400 1_655 S
C721 N724 1.351 . S
C721 C726 1.501 . S
C722 C723 1.387 . S
C722 N725 1.341 1_455 S
C723 C721 1.400 1_455 S
C723 C722 1.387 . S
N724 Co715 2.022 . S
N724 C721 1.351 . S
N724 N725 1.365 . S
N725 C722 1.341 1_655 S
N725 N724 1.365 . S
N725 H745 0.862 . S
C726 C721 1.501 . S
C726 H727 0.961 . S
C726 H728 0.961 . S
C726 H729 0.960 . S
H727 C726 0.961 . S
H728 C726 0.961 . S
H729 C726 0.960 . S
C730 N731 1.342 . S
C730 C734 1.401 . S
C730 C735 1.499 . S
N731 Co714 1.989 . S
N731 C730 1.342 . S
N731 N732 1.388 . S
N732 Co715 1.993 . S
N732 N731 1.388 . S
N732 C733 1.346 . S
C733 N732 1.346 . S
C733 C734 1.396 . S
C733 C743 1.508 1_655 S
C734 C730 1.401 . S
C734 C733 1.396 . S
C735 C730 1.499 . S
C735 H736 0.959 . S
C735 H737 0.960 . S
C735 H738 0.961 . S
H736 C735 0.959 . S
H737 C735 0.960 . S
H738 C735 0.961 . S
O739 Co714 1.967 . S
O739 C747 1.258 . S
O740 Co715 1.941 . S
O740 C747 1.266 . S
H741 C743 0.960 . S
H742 C743 0.962 . S
C743 C733 1.508 1_455 S
C743 H741 0.960 . S
C743 H742 0.962 . S
C743 H744 0.960 1_455 S
H744 C743 0.960 1_655 S
H745 N725 0.862 . S
O746 Co714 1.920 . S
O746 C719 1.289 . S
C747 O739 1.258 . S
C747 O740 1.266 . S
Co748 O751 1.970 . S
Co748 N765 1.989 . S
Co748 O773 1.967 . S
Co748 O780 1.920 . S
Co749 O752 1.966 . S
Co749 N758 2.022 . S
Co749 N766 1.993 . S
Co749 O774 1.941 . S
C750 O751 1.258 . S
C750 O752 1.263 . S
O751 Co748 1.970 . S
O751 C750 1.258 . S
O752 Co749 1.966 . S
O752 C750 1.263 . S
C753 O754 1.235 . S
C753 O780 1.289 . S
O754 C753 1.235 . S
C755 C757 1.400 . S
C755 N758 1.351 . S
C755 C760 1.501 . S
C756 C757 1.387 . S
C756 N759 1.341 . S
C757 C755 1.400 . S
C757 C756 1.387 . S
N758 Co749 2.022 . S
N758 C755 1.351 . S
N758 N759 1.365 . S
N759 C756 1.341 . S
N759 N758 1.365 . S
N759 H779 0.862 . S
C760 C755 1.501 . S
C760 H761 0.961 . S
C760 H762 0.961 . S
C760 H763 0.960 . S
H761 C760 0.961 . S
H762 C760 0.961 . S
H763 C760 0.960 . S
C764 N765 1.342 . S
C764 C768 1.401 . S
C764 C769 1.499 . S
N765 Co748 1.989 . S
N765 C764 1.342 . S
N765 N766 1.388 . S
N766 Co749 1.993 . S
N766 N765 1.388 . S
N766 C767 1.346 . S
C767 N766 1.346 . S
C767 C768 1.396 . S
C767 C777 1.510 . S
C768 C764 1.401 . S
C768 C767 1.396 . S
C769 C764 1.499 . S
C769 H770 0.959 . S
C769 H771 0.960 . S
C769 H772 0.961 . S
H770 C769 0.959 . S
H771 C769 0.960 . S
H772 C769 0.961 . S
O773 Co748 1.967 . S
O773 C781 1.258 . S
O774 Co749 1.941 . S
O774 C781 1.266 . S
H775 C777 0.959 . S
H776 C777 0.961 . S
C777 C767 1.510 . S
C777 H775 0.959 . S
C777 H776 0.961 . S
C777 H778 0.960 . S
H778 C777 0.960 . S
H779 N759 0.862 . S
O780 Co748 1.920 . S
O780 C753 1.289 . S
C781 O773 1.258 . S
C781 O774 1.266 . S
Co782 O785 1.970 . S
Co782 N799 1.989 . S
Co782 O807 1.967 . S
Co782 O814 1.920 . S
Co783 O786 1.966 . S
Co783 N792 2.022 . S
Co783 N800 1.993 . S
Co783 O808 1.941 . S
C784 O785 1.258 . S
C784 O786 1.263 . S
O785 Co782 1.970 . S
O785 C784 1.258 . S
O786 Co783 1.966 . S
O786 C784 1.263 . S
C787 O788 1.235 . S
C787 O814 1.289 . S
O788 C787 1.235 . S
C789 C791 1.400 . S
C789 N792 1.351 . S
C789 C794 1.501 . S
C790 C791 1.387 . S
C790 N793 1.341 . S
C791 C789 1.400 . S
C791 C790 1.387 . S
N792 Co783 2.022 . S
N792 C789 1.351 . S
N792 N793 1.365 . S
N793 C790 1.341 . S
N793 N792 1.365 . S
N793 H813 0.862 . S
C794 C789 1.501 . S
C794 H795 0.961 . S
C794 H796 0.961 . S
C794 H797 0.960 . S
H795 C794 0.961 . S
H796 C794 0.961 . S
H797 C794 0.960 . S
C798 N799 1.342 . S
C798 C802 1.401 . S
C798 C803 1.499 . S
N799 Co782 1.989 . S
N799 C798 1.342 . S
N799 N800 1.388 . S
N800 Co783 1.993 . S
N800 N799 1.388 . S
N800 C801 1.346 . S
C801 N800 1.346 . S
C801 C802 1.396 . S
C801 C811 1.510 . S
C802 C798 1.401 . S
C802 C801 1.396 . S
C803 C798 1.499 . S
C803 H804 0.959 . S
C803 H805 0.960 . S
C803 H806 0.961 . S
H804 C803 0.959 . S
H805 C803 0.960 . S
H806 C803 0.961 . S
O807 Co782 1.967 . S
O807 C815 1.258 . S
O808 Co783 1.941 . S
O808 C815 1.266 . S
H809 C811 0.959 . S
H810 C811 0.961 . S
C811 C801 1.510 . S
C811 H809 0.959 . S
C811 H810 0.961 . S
C811 H812 0.960 . S
H812 C811 0.960 . S
H813 N793 0.862 . S
O814 Co782 1.920 . S
O814 C787 1.289 . S
C815 O807 1.258 . S
C815 O808 1.266 . S
Co816 O819 1.970 . S
Co816 N833 1.989 . S
Co816 O841 1.967 . S
Co816 O848 1.920 . S
Co817 O820 1.966 . S
Co817 N826 2.022 . S
Co817 N834 1.993 . S
Co817 O842 1.941 . S
C818 O819 1.258 . S
C818 O820 1.263 . S
O819 Co816 1.970 . S
O819 C818 1.258 . S
O820 Co817 1.966 . S
O820 C818 1.263 . S
C821 O822 1.235 . S
C821 O848 1.289 . S
O822 C821 1.235 . S
C823 C825 1.400 . S
C823 N826 1.351 . S
C823 C828 1.501 . S
C824 C825 1.387 . S
C824 N827 1.341 . S
C825 C823 1.400 . S
C825 C824 1.387 . S
N826 Co817 2.022 . S
N826 C823 1.351 . S
N826 N827 1.365 . S
N827 C824 1.341 . S
N827 N826 1.365 . S
N827 H847 0.862 . S
C828 C823 1.501 . S
C828 H829 0.961 . S
C828 H830 0.961 . S
C828 H831 0.960 . S
H829 C828 0.961 . S
H830 C828 0.961 . S
H831 C828 0.960 . S
C832 N833 1.342 . S
C832 C836 1.401 . S
C832 C837 1.499 . S
N833 Co816 1.989 . S
N833 C832 1.342 . S
N833 N834 1.388 . S
N834 Co817 1.993 . S
N834 N833 1.388 . S
N834 C835 1.346 . S
C835 N834 1.346 . S
C835 C836 1.396 . S
C835 C845 1.510 . S
C836 C832 1.401 . S
C836 C835 1.396 . S
C837 C832 1.499 . S
C837 H838 0.959 . S
C837 H839 0.960 . S
C837 H840 0.961 . S
H838 C837 0.959 . S
H839 C837 0.960 . S
H840 C837 0.961 . S
O841 Co816 1.967 . S
O841 C849 1.258 . S
O842 Co817 1.941 . S
O842 C849 1.266 . S
H843 C845 0.959 . S
H844 C845 0.961 . S
C845 C835 1.510 . S
C845 H843 0.959 . S
C845 H844 0.961 . S
C845 H846 0.960 . S
H846 C845 0.960 . S
H847 N827 0.862 . S
O848 Co816 1.920 . S
O848 C821 1.289 . S
C849 O841 1.258 . S
C849 O842 1.266 . S
Co850 O853 1.970 . S
Co850 N867 1.989 . S
Co850 O875 1.967 . S
Co850 O882 1.920 . S
Co851 O854 1.966 . S
Co851 N860 2.022 . S
Co851 N868 1.993 . S
Co851 O876 1.941 . S
C852 O853 1.258 . S
C852 O854 1.263 . S
O853 Co850 1.970 . S
O853 C852 1.258 . S
O854 Co851 1.966 . S
O854 C852 1.263 . S
C855 O856 1.235 . S
C855 O882 1.289 . S
O856 C855 1.235 . S
C857 C859 1.400 . S
C857 N860 1.351 . S
C857 C862 1.501 . S
C858 C859 1.387 . S
C858 N861 1.341 . S
C859 C857 1.400 . S
C859 C858 1.387 . S
N860 Co851 2.022 . S
N860 C857 1.351 . S
N860 N861 1.365 . S
N861 C858 1.341 . S
N861 N860 1.365 . S
N861 H881 0.862 . S
C862 C857 1.501 . S
C862 H863 0.961 . S
C862 H864 0.961 . S
C862 H865 0.960 . S
H863 C862 0.961 . S
H864 C862 0.961 . S
H865 C862 0.960 . S
C866 N867 1.342 . S
C866 C870 1.401 . S
C866 C871 1.499 . S
N867 Co850 1.989 . S
N867 C866 1.342 . S
N867 N868 1.388 . S
N868 Co851 1.993 . S
N868 N867 1.388 . S
N868 C869 1.346 . S
C869 N868 1.346 . S
C869 C870 1.396 . S
C869 C879 1.510 . S
C870 C866 1.401 . S
C870 C869 1.396 . S
C871 C866 1.499 . S
C871 H872 0.959 . S
C871 H873 0.960 . S
C871 H874 0.961 . S
H872 C871 0.959 . S
H873 C871 0.960 . S
H874 C871 0.961 . S
O875 Co850 1.967 . S
O875 C883 1.258 . S
O876 Co851 1.941 . S
O876 C883 1.266 . S
H877 C879 0.959 . S
H878 C879 0.961 . S
C879 C869 1.510 . S
C879 H877 0.959 . S
C879 H878 0.961 . S
C879 H880 0.960 . S
H880 C879 0.960 . S
H881 N861 0.862 . S
O882 Co850 1.920 . S
O882 C855 1.289 . S
C883 O875 1.258 . S
C883 O876 1.266 . S
Co884 O887 1.970 . S
Co884 N901 1.989 . S
Co884 O909 1.967 . S
Co884 O916 1.920 . S
Co885 O888 1.966 . S
Co885 N894 2.022 . S
Co885 N902 1.993 . S
Co885 O910 1.941 . S
C886 O887 1.258 . S
C886 O888 1.263 . S
O887 Co884 1.970 . S
O887 C886 1.258 . S
O888 Co885 1.966 . S
O888 C886 1.263 . S
C889 O890 1.235 . S
C889 O916 1.289 . S
O890 C889 1.235 . S
C891 C893 1.400 . S
C891 N894 1.351 . S
C891 C896 1.501 . S
C892 C893 1.387 . S
C892 N895 1.341 . S
C893 C891 1.400 . S
C893 C892 1.387 . S
N894 Co885 2.022 . S
N894 C891 1.351 . S
N894 N895 1.365 . S
N895 C892 1.341 . S
N895 N894 1.365 . S
N895 H915 0.862 . S
C896 C891 1.501 . S
C896 H897 0.961 . S
C896 H898 0.961 . S
C896 H899 0.960 . S
H897 C896 0.961 . S
H898 C896 0.961 . S
H899 C896 0.960 . S
C900 N901 1.342 . S
C900 C904 1.401 . S
C900 C905 1.499 . S
N901 Co884 1.989 . S
N901 C900 1.342 . S
N901 N902 1.388 . S
N902 Co885 1.993 . S
N902 N901 1.388 . S
N902 C903 1.346 . S
C903 N902 1.346 . S
C903 C904 1.396 . S
C903 C913 1.510 . S
C904 C900 1.401 . S
C904 C903 1.396 . S
C905 C900 1.499 . S
C905 H906 0.959 . S
C905 H907 0.960 . S
C905 H908 0.961 . S
H906 C905 0.959 . S
H907 C905 0.960 . S
H908 C905 0.961 . S
O909 Co884 1.967 . S
O909 C917 1.258 . S
O910 Co885 1.941 . S
O910 C917 1.266 . S
H911 C913 0.959 . S
H912 C913 0.961 . S
C913 C903 1.510 . S
C913 H911 0.959 . S
C913 H912 0.961 . S
C913 H914 0.960 . S
H914 C913 0.960 . S
H915 N895 0.862 . S
O916 Co884 1.920 . S
O916 C889 1.289 . S
C917 O909 1.258 . S
C917 O910 1.266 . S
Co918 O921 1.970 . S
Co918 N935 1.989 . S
Co918 O943 1.967 . S
Co918 O950 1.920 . S
Co919 O922 1.966 . S
Co919 N928 2.022 . S
Co919 N936 1.993 . S
Co919 O944 1.941 . S
C920 O921 1.258 . S
C920 O922 1.263 . S
O921 Co918 1.970 . S
O921 C920 1.258 . S
O922 Co919 1.966 . S
O922 C920 1.263 . S
C923 O924 1.235 . S
C923 O950 1.289 . S
O924 C923 1.235 . S
C925 C927 1.400 1_455 S
C925 N928 1.351 . S
C925 C930 1.501 . S
C926 C927 1.387 . S
C926 N929 1.341 1_655 S
C927 C925 1.400 1_655 S
C927 C926 1.387 . S
N928 Co919 2.022 . S
N928 C925 1.351 . S
N928 N929 1.365 . S
N929 C926 1.341 1_455 S
N929 N928 1.365 . S
N929 H949 0.862 . S
C930 C925 1.501 . S
C930 H931 0.961 . S
C930 H932 0.961 . S
C930 H933 0.960 . S
H931 C930 0.961 . S
H932 C930 0.961 . S
H933 C930 0.960 . S
C934 N935 1.342 . S
C934 C938 1.401 . S
C934 C939 1.499 . S
N935 Co918 1.989 . S
N935 C934 1.342 . S
N935 N936 1.388 . S
N936 Co919 1.993 . S
N936 N935 1.388 . S
N936 C937 1.346 . S
C937 N936 1.346 . S
C937 C938 1.396 . S
C937 C947 1.508 1_455 S
C938 C934 1.401 . S
C938 C937 1.396 . S
C939 C934 1.499 . S
C939 H940 0.959 . S
C939 H941 0.960 . S
C939 H942 0.961 . S
H940 C939 0.959 . S
H941 C939 0.960 . S
H942 C939 0.961 . S
O943 Co918 1.967 . S
O943 C951 1.258 . S
O944 Co919 1.941 . S
O944 C951 1.266 . S
H945 C947 0.960 . S
H946 C947 0.962 . S
C947 C937 1.508 1_655 S
C947 H945 0.960 . S
C947 H946 0.962 . S
C947 H948 0.960 1_655 S
H948 C947 0.960 1_455 S
H949 N929 0.862 . S
O950 Co918 1.920 . S
O950 C923 1.289 . S
C951 O943 1.258 . S
C951 O944 1.266 . S
Co952 O955 1.970 . S
Co952 N969 1.989 . S
Co952 O977 1.967 . S
Co952 O984 1.920 . S
Co953 O956 1.966 . S
Co953 N962 2.022 . S
Co953 N970 1.993 . S
Co953 O978 1.941 . S
C954 O955 1.258 . S
C954 O956 1.263 . S
O955 Co952 1.970 . S
O955 C954 1.258 . S
O956 Co953 1.966 . S
O956 C954 1.263 . S
C957 O958 1.235 . S
C957 O984 1.289 . S
O958 C957 1.235 . S
C959 C961 1.400 . S
C959 N962 1.351 . S
C959 C964 1.501 . S
C960 C961 1.387 . S
C960 N963 1.341 . S
C961 C959 1.400 . S
C961 C960 1.387 . S
N962 Co953 2.022 . S
N962 C959 1.351 . S
N962 N963 1.365 . S
N963 C960 1.341 . S
N963 N962 1.365 . S
N963 H983 0.862 . S
C964 C959 1.501 . S
C964 H965 0.961 . S
C964 H966 0.961 . S
C964 H967 0.960 . S
H965 C964 0.961 . S
H966 C964 0.961 . S
H967 C964 0.960 . S
C968 N969 1.342 . S
C968 C972 1.401 . S
C968 C973 1.499 . S
N969 Co952 1.989 . S
N969 C968 1.342 . S
N969 N970 1.388 . S
N970 Co953 1.993 . S
N970 N969 1.388 . S
N970 C971 1.346 . S
C971 N970 1.346 . S
C971 C972 1.396 . S
C971 C981 1.510 . S
C972 C968 1.401 . S
C972 C971 1.396 . S
C973 C968 1.499 . S
C973 H974 0.959 . S
C973 H975 0.960 . S
C973 H976 0.961 . S
H974 C973 0.959 . S
H975 C973 0.960 . S
H976 C973 0.961 . S
O977 Co952 1.967 . S
O977 C985 1.258 . S
O978 Co953 1.941 . S
O978 C985 1.266 . S
H979 C981 0.959 . S
H980 C981 0.961 . S
C981 C971 1.510 . S
C981 H979 0.959 . S
C981 H980 0.961 . S
C981 H982 0.960 . S
H982 C981 0.960 . S
H983 N963 0.862 . S
O984 Co952 1.920 . S
O984 C957 1.289 . S
C985 O977 1.258 . S
C985 O978 1.266 . S
Co986 O989 1.970 . S
Co986 N1003 1.989 . S
Co986 O1011 1.967 . S
Co986 O1018 1.920 . S
Co987 O990 1.966 . S
Co987 N996 2.022 . S
Co987 N1004 1.993 . S
Co987 O1012 1.941 . S
C988 O989 1.258 . S
C988 O990 1.263 . S
O989 Co986 1.970 . S
O989 C988 1.258 . S
O990 Co987 1.966 . S
O990 C988 1.263 . S
C991 O992 1.235 . S
C991 O1018 1.289 . S
O992 C991 1.235 . S
C993 C995 1.400 1_455 S
C993 N996 1.351 . S
C993 C998 1.501 . S
C994 C995 1.387 . S
C994 N997 1.341 1_655 S
C995 C993 1.400 1_655 S
C995 C994 1.387 . S
N996 Co987 2.022 . S
N996 C993 1.351 . S
N996 N997 1.365 . S
N997 C994 1.341 1_455 S
N997 N996 1.365 . S
N997 H1017 0.862 . S
C998 C993 1.501 . S
C998 H999 0.961 . S
C998 H1000 0.961 . S
C998 H1001 0.960 . S
H999 C998 0.961 . S
H1000 C998 0.961 . S
H1001 C998 0.960 . S
C1002 N1003 1.342 . S
C1002 C1006 1.401 . S
C1002 C1007 1.499 . S
N1003 Co986 1.989 . S
N1003 C1002 1.342 . S
N1003 N1004 1.388 . S
N1004 Co987 1.993 . S
N1004 N1003 1.388 . S
N1004 C1005 1.346 . S
C1005 N1004 1.346 . S
C1005 C1006 1.396 . S
C1005 C1015 1.508 1_455 S
C1006 C1002 1.401 . S
C1006 C1005 1.396 . S
C1007 C1002 1.499 . S
C1007 H1008 0.959 . S
C1007 H1009 0.960 . S
C1007 H1010 0.961 . S
H1008 C1007 0.959 . S
H1009 C1007 0.960 . S
H1010 C1007 0.961 . S
O1011 Co986 1.967 . S
O1011 C1019 1.258 . S
O1012 Co987 1.941 . S
O1012 C1019 1.266 . S
H1013 C1015 0.960 . S
H1014 C1015 0.962 . S
C1015 C1005 1.508 1_655 S
C1015 H1013 0.960 . S
C1015 H1014 0.962 . S
C1015 H1016 0.960 1_655 S
H1016 C1015 0.960 1_455 S
H1017 N997 0.862 . S
O1018 Co986 1.920 . S
O1018 C991 1.289 . S
C1019 O1011 1.258 . S
C1019 O1012 1.266 . S
Co1020 O1023 1.970 . S
Co1020 N1037 1.989 . S
Co1020 O1045 1.967 . S
Co1020 O1052 1.920 . S
Co1021 O1024 1.966 . S
Co1021 N1030 2.022 . S
Co1021 N1038 1.993 . S
Co1021 O1046 1.941 . S
C1022 O1023 1.258 . S
C1022 O1024 1.263 . S
O1023 Co1020 1.970 . S
O1023 C1022 1.258 . S
O1024 Co1021 1.966 . S
O1024 C1022 1.263 . S
C1025 O1026 1.235 . S
C1025 O1052 1.289 . S
O1026 C1025 1.235 . S
C1027 C1029 1.400 . S
C1027 N1030 1.351 . S
C1027 C1032 1.501 . S
C1028 C1029 1.387 . S
C1028 N1031 1.341 . S
C1029 C1027 1.400 . S
C1029 C1028 1.387 . S
N1030 Co1021 2.022 . S
N1030 C1027 1.351 . S
N1030 N1031 1.365 . S
N1031 C1028 1.341 . S
N1031 N1030 1.365 . S
N1031 H1051 0.862 . S
C1032 C1027 1.501 . S
C1032 H1033 0.961 . S
C1032 H1034 0.961 . S
C1032 H1035 0.960 . S
H1033 C1032 0.961 . S
H1034 C1032 0.961 . S
H1035 C1032 0.960 . S
C1036 N1037 1.342 . S
C1036 C1040 1.401 . S
C1036 C1041 1.499 . S
N1037 Co1020 1.989 . S
N1037 C1036 1.342 . S
N1037 N1038 1.388 . S
N1038 Co1021 1.993 . S
N1038 N1037 1.388 . S
N1038 C1039 1.346 . S
C1039 N1038 1.346 . S
C1039 C1040 1.396 . S
C1039 C1049 1.510 . S
C1040 C1036 1.401 . S
C1040 C1039 1.396 . S
C1041 C1036 1.499 . S
C1041 H1042 0.959 . S
C1041 H1043 0.960 . S
C1041 H1044 0.961 . S
H1042 C1041 0.959 . S
H1043 C1041 0.960 . S
H1044 C1041 0.961 . S
O1045 Co1020 1.967 . S
O1045 C1053 1.258 . S
O1046 Co1021 1.941 . S
O1046 C1053 1.266 . S
H1047 C1049 0.959 . S
H1048 C1049 0.961 . S
C1049 C1039 1.510 . S
C1049 H1047 0.959 . S
C1049 H1048 0.961 . S
C1049 H1050 0.960 . S
H1050 C1049 0.960 . S
H1051 N1031 0.862 . S
O1052 Co1020 1.920 . S
O1052 C1025 1.289 . S
C1053 O1045 1.258 . S
C1053 O1046 1.266 . S
Co1054 O1057 1.970 . S
Co1054 N1071 1.989 . S
Co1054 O1079 1.967 . S
Co1054 O1086 1.920 . S
Co1055 O1058 1.966 . S
Co1055 N1064 2.022 . S
Co1055 N1072 1.993 . S
Co1055 O1080 1.941 . S
C1056 O1057 1.258 . S
C1056 O1058 1.263 . S
O1057 Co1054 1.970 . S
O1057 C1056 1.258 . S
O1058 Co1055 1.966 . S
O1058 C1056 1.263 . S
C1059 O1060 1.235 . S
C1059 O1086 1.289 . S
O1060 C1059 1.235 . S
C1061 C1063 1.400 . S
C1061 N1064 1.351 . S
C1061 C1066 1.501 . S
C1062 C1063 1.387 . S
C1062 N1065 1.341 . S
C1063 C1061 1.400 . S
C1063 C1062 1.387 . S
N1064 Co1055 2.022 . S
N1064 C1061 1.351 . S
N1064 N1065 1.365 . S
N1065 C1062 1.341 . S
N1065 N1064 1.365 . S
N1065 H1085 0.862 . S
C1066 C1061 1.501 . S
C1066 H1067 0.961 . S
C1066 H1068 0.961 . S
C1066 H1069 0.960 . S
H1067 C1066 0.961 . S
H1068 C1066 0.961 . S
H1069 C1066 0.960 . S
C1070 N1071 1.342 . S
C1070 C1074 1.401 . S
C1070 C1075 1.499 . S
N1071 Co1054 1.989 . S
N1071 C1070 1.342 . S
N1071 N1072 1.388 . S
N1072 Co1055 1.993 . S
N1072 N1071 1.388 . S
N1072 C1073 1.346 . S
C1073 N1072 1.346 . S
C1073 C1074 1.396 . S
C1073 C1083 1.510 . S
C1074 C1070 1.401 . S
C1074 C1073 1.396 . S
C1075 C1070 1.499 . S
C1075 H1076 0.959 . S
C1075 H1077 0.960 . S
C1075 H1078 0.961 . S
H1076 C1075 0.959 . S
H1077 C1075 0.960 . S
H1078 C1075 0.961 . S
O1079 Co1054 1.967 . S
O1079 C1087 1.258 . S
O1080 Co1055 1.941 . S
O1080 C1087 1.266 . S
H1081 C1083 0.959 . S
H1082 C1083 0.961 . S
C1083 C1073 1.510 . S
C1083 H1081 0.959 . S
C1083 H1082 0.961 . S
C1083 H1084 0.960 . S
H1084 C1083 0.960 . S
H1085 N1065 0.862 . S
O1086 Co1054 1.920 . S
O1086 C1059 1.289 . S
C1087 O1079 1.258 . S
C1087 O1080 1.266 . S
C1088 C1089 1.369 . S
C1088 C1090 1.419 . S
C1088 H1092 0.930 . S
C1089 C1088 1.369 . S
C1089 C1098 1.429 . S
C1090 C1088 1.419 . S
C1090 C1091 1.363 . S
C1090 H1093 0.929 . S
C1091 C1090 1.363 . S
C1091 C1097 1.428 . S
H1092 C1088 0.930 . S
H1093 C1090 0.929 . S
S1094 N1095 1.613 . S
S1094 N1096 1.610 . S
N1095 S1094 1.613 . S
N1095 C1098 1.350 . S
N1096 S1094 1.610 . S
N1096 C1097 1.351 . S
C1097 C1091 1.428 . S
C1097 N1096 1.351 . S
C1097 C1098 1.434 . S
C1098 C1089 1.429 . S
C1098 N1095 1.350 . S
C1098 C1097 1.434 . S
C1099 C1100 1.369 . S
C1099 C1101 1.419 . S
C1099 H1103 0.930 . S
C1100 C1099 1.369 . S
C1100 C1109 1.429 . S
C1101 C1099 1.419 . S
C1101 C1102 1.363 . S
C1101 H1104 0.929 . S
C1102 C1101 1.363 . S
C1102 C1108 1.428 . S
H1103 C1099 0.930 . S
H1104 C1101 0.929 . S
S1105 N1106 1.613 . S
S1105 N1107 1.610 . S
N1106 S1105 1.613 . S
N1106 C1109 1.350 . S
N1107 S1105 1.610 . S
N1107 C1108 1.351 . S
C1108 C1102 1.428 . S
C1108 N1107 1.351 . S
C1108 C1109 1.434 . S
C1109 C1100 1.429 . S
C1109 N1106 1.350 . S
C1109 C1108 1.434 . S
C1110 C1111 1.369 . S
C1110 C1112 1.419 . S
C1110 H1114 0.930 . S
C1111 C1110 1.369 . S
C1111 C1120 1.429 . S
C1112 C1110 1.419 . S
C1112 C1113 1.363 . S
C1112 H1115 0.929 . S
C1113 C1112 1.363 . S
C1113 C1119 1.428 . S
H1114 C1110 0.930 . S
H1115 C1112 0.929 . S
S1116 N1117 1.613 . S
S1116 N1118 1.610 . S
N1117 S1116 1.613 . S
N1117 C1120 1.350 . S
N1118 S1116 1.610 . S
N1118 C1119 1.351 . S
C1119 C1113 1.428 . S
C1119 N1118 1.351 . S
C1119 C1120 1.434 . S
C1120 C1111 1.429 . S
C1120 N1117 1.350 . S
C1120 C1119 1.434 . S
C1121 C1122 1.369 . S
C1121 C1123 1.419 . S
C1121 H1125 0.930 . S
C1122 C1121 1.369 . S
C1122 C1131 1.429 . S
C1123 C1121 1.419 . S
C1123 C1124 1.363 . S
C1123 H1126 0.929 . S
C1124 C1123 1.363 . S
C1124 C1130 1.428 . S
H1125 C1121 0.930 . S
H1126 C1123 0.929 . S
S1127 N1128 1.613 . S
S1127 N1129 1.610 . S
N1128 S1127 1.613 . S
N1128 C1131 1.350 . S
N1129 S1127 1.610 . S
N1129 C1130 1.351 . S
C1130 C1124 1.428 . S
C1130 N1129 1.351 . S
C1130 C1131 1.434 . S
C1131 C1122 1.429 . S
C1131 N1128 1.350 . S
C1131 C1130 1.434 . S
C1132 C1133 1.369 . S
C1132 C1134 1.419 . S
C1132 H1136 0.930 . S
C1133 C1132 1.369 . S
C1133 C1142 1.429 . S
C1134 C1132 1.419 . S
C1134 C1135 1.363 . S
C1134 H1137 0.929 . S
C1135 C1134 1.363 . S
C1135 C1141 1.428 . S
H1136 C1132 0.930 . S
H1137 C1134 0.929 . S
S1138 N1139 1.613 . S
S1138 N1140 1.610 . S
N1139 S1138 1.613 . S
N1139 C1142 1.350 . S
N1140 S1138 1.610 . S
N1140 C1141 1.351 . S
C1141 C1135 1.428 . S
C1141 N1140 1.351 . S
C1141 C1142 1.434 . S
C1142 C1133 1.429 . S
C1142 N1139 1.350 . S
C1142 C1141 1.434 . S
C1143 C1144 1.369 . S
C1143 C1145 1.419 . S
C1143 H1147 0.930 . S
C1144 C1143 1.369 . S
C1144 C1153 1.429 . S
C1145 C1143 1.419 . S
C1145 C1146 1.363 . S
C1145 H1148 0.929 . S
C1146 C1145 1.363 . S
C1146 C1152 1.428 . S
H1147 C1143 0.930 . S
H1148 C1145 0.929 . S
S1149 N1150 1.613 . S
S1149 N1151 1.610 . S
N1150 S1149 1.613 . S
N1150 C1153 1.350 . S
N1151 S1149 1.610 . S
N1151 C1152 1.351 . S
C1152 C1146 1.428 . S
C1152 N1151 1.351 . S
C1152 C1153 1.434 . S
C1153 C1144 1.429 . S
C1153 N1150 1.350 . S
C1153 C1152 1.434 . S
C1154 C1155 1.369 . S
C1154 C1156 1.419 . S
C1154 H1158 0.930 . S
C1155 C1154 1.369 . S
C1155 C1164 1.429 . S
C1156 C1154 1.419 . S
C1156 C1157 1.363 . S
C1156 H1159 0.929 . S
C1157 C1156 1.363 . S
C1157 C1163 1.428 . S
H1158 C1154 0.930 . S
H1159 C1156 0.929 . S
S1160 N1161 1.613 . S
S1160 N1162 1.610 . S
N1161 S1160 1.613 . S
N1161 C1164 1.350 . S
N1162 S1160 1.610 . S
N1162 C1163 1.351 . S
C1163 C1157 1.428 . S
C1163 N1162 1.351 . S
C1163 C1164 1.434 . S
C1164 C1155 1.429 . S
C1164 N1161 1.350 . S
C1164 C1163 1.434 . S
C1165 C1166 1.369 . S
C1165 C1167 1.419 . S
C1165 H1169 0.930 . S
C1166 C1165 1.369 . S
C1166 C1175 1.429 . S
C1167 C1165 1.419 . S
C1167 C1168 1.363 . S
C1167 H1170 0.929 . S
C1168 C1167 1.363 . S
C1168 C1174 1.428 . S
H1169 C1165 0.930 . S
H1170 C1167 0.929 . S
S1171 N1172 1.613 . S
S1171 N1173 1.610 . S
N1172 S1171 1.613 . S
N1172 C1175 1.350 . S
N1173 S1171 1.610 . S
N1173 C1174 1.351 . S
C1174 C1168 1.428 . S
C1174 N1173 1.351 . S
C1174 C1175 1.434 . S
C1175 C1166 1.429 . S
C1175 N1172 1.350 . S
C1175 C1174 1.434 . S
C1176 C1177 1.369 . S
C1176 C1178 1.419 . S
C1176 H1180 0.930 . S
C1177 C1176 1.369 . S
C1177 C1186 1.429 . S
C1178 C1176 1.419 . S
C1178 C1179 1.363 . S
C1178 H1181 0.929 . S
C1179 C1178 1.363 . S
C1179 C1185 1.428 . S
H1180 C1176 0.930 . S
H1181 C1178 0.929 . S
S1182 N1183 1.613 . S
S1182 N1184 1.610 . S
N1183 S1182 1.613 . S
N1183 C1186 1.350 . S
N1184 S1182 1.610 . S
N1184 C1185 1.351 . S
C1185 C1179 1.428 . S
C1185 N1184 1.351 . S
C1185 C1186 1.434 . S
C1186 C1177 1.429 . S
C1186 N1183 1.350 . S
C1186 C1185 1.434 . S
C1187 C1188 1.369 . S
C1187 C1189 1.419 . S
C1187 H1191 0.930 . S
C1188 C1187 1.369 . S
C1188 C1197 1.429 . S
C1189 C1187 1.419 . S
C1189 C1190 1.363 . S
C1189 H1192 0.929 . S
C1190 C1189 1.363 . S
C1190 C1196 1.428 . S
H1191 C1187 0.930 . S
H1192 C1189 0.929 . S
S1193 N1194 1.613 . S
S1193 N1195 1.610 . S
N1194 S1193 1.613 . S
N1194 C1197 1.350 . S
N1195 S1193 1.610 . S
N1195 C1196 1.351 . S
C1196 C1190 1.428 . S
C1196 N1195 1.351 . S
C1196 C1197 1.434 . S
C1197 C1188 1.429 . S
C1197 N1194 1.350 . S
C1197 C1196 1.434 . S
C1198 C1199 1.369 . S
C1198 C1200 1.419 . S
C1198 H1202 0.930 . S
C1199 C1198 1.369 . S
C1199 C1208 1.429 . S
C1200 C1198 1.419 . S
C1200 C1201 1.363 . S
C1200 H1203 0.929 . S
C1201 C1200 1.363 . S
C1201 C1207 1.428 . S
H1202 C1198 0.930 . S
H1203 C1200 0.929 . S
S1204 N1205 1.613 . S
S1204 N1206 1.610 . S
N1205 S1204 1.613 . S
N1205 C1208 1.350 . S
N1206 S1204 1.610 . S
N1206 C1207 1.351 . S
C1207 C1201 1.428 . S
C1207 N1206 1.351 . S
C1207 C1208 1.434 . S
C1208 C1199 1.429 . S
C1208 N1205 1.350 . S
C1208 C1207 1.434 . S
C1209 C1210 1.369 . S
C1209 C1211 1.419 . S
C1209 H1213 0.930 . S
C1210 C1209 1.369 . S
C1210 C1219 1.429 . S
C1211 C1209 1.419 . S
C1211 C1212 1.363 . S
C1211 H1214 0.929 . S
C1212 C1211 1.363 . S
C1212 C1218 1.428 . S
H1213 C1209 0.930 . S
H1214 C1211 0.929 . S
S1215 N1216 1.613 . S
S1215 N1217 1.610 . S
N1216 S1215 1.613 . S
N1216 C1219 1.350 . S
N1217 S1215 1.610 . S
N1217 C1218 1.351 . S
C1218 C1212 1.428 . S
C1218 N1217 1.351 . S
C1218 C1219 1.434 . S
C1219 C1210 1.429 . S
C1219 N1216 1.350 . S
C1219 C1218 1.434 . S
C1220 C1221 1.369 . S
C1220 C1222 1.419 . S
C1220 H1224 0.930 . S
C1221 C1220 1.369 . S
C1221 C1230 1.429 . S
C1222 C1220 1.419 . S
C1222 C1223 1.363 . S
C1222 H1225 0.929 . S
C1223 C1222 1.363 . S
C1223 C1229 1.428 . S
H1224 C1220 0.930 . S
H1225 C1222 0.929 . S
S1226 N1227 1.613 . S
S1226 N1228 1.610 . S
N1227 S1226 1.613 . S
N1227 C1230 1.350 . S
N1228 S1226 1.610 . S
N1228 C1229 1.351 . S
C1229 C1223 1.428 . S
C1229 N1228 1.351 . S
C1229 C1230 1.434 . S
C1230 C1221 1.429 . S
C1230 N1227 1.350 . S
C1230 C1229 1.434 . S
C1231 C1232 1.369 . S
C1231 C1233 1.419 . S
C1231 H1235 0.930 . S
C1232 C1231 1.369 . S
C1232 C1241 1.429 . S
C1233 C1231 1.419 . S
C1233 C1234 1.363 . S
C1233 H1236 0.929 . S
C1234 C1233 1.363 . S
C1234 C1240 1.428 . S
H1235 C1231 0.930 . S
H1236 C1233 0.929 . S
S1237 N1238 1.613 . S
S1237 N1239 1.610 . S
N1238 S1237 1.613 . S
N1238 C1241 1.350 . S
N1239 S1237 1.610 . S
N1239 C1240 1.351 . S
C1240 C1234 1.428 . S
C1240 N1239 1.351 . S
C1240 C1241 1.434 . S
C1241 C1232 1.429 . S
C1241 N1238 1.350 . S
C1241 C1240 1.434 . S
C1242 C1243 1.369 . S
C1242 C1244 1.419 . S
C1242 H1246 0.930 . S
C1243 C1242 1.369 . S
C1243 C1252 1.429 . S
C1244 C1242 1.419 . S
C1244 C1245 1.363 . S
C1244 H1247 0.929 . S
C1245 C1244 1.363 . S
C1245 C1251 1.428 . S
H1246 C1242 0.930 . S
H1247 C1244 0.929 . S
S1248 N1249 1.613 . S
S1248 N1250 1.610 . S
N1249 S1248 1.613 . S
N1249 C1252 1.350 . S
N1250 S1248 1.610 . S
N1250 C1251 1.351 . S
C1251 C1245 1.428 . S
C1251 N1250 1.351 . S
C1251 C1252 1.434 . S
C1252 C1243 1.429 . S
C1252 N1249 1.350 . S
C1252 C1251 1.434 . S
C1253 C1254 1.369 . S
C1253 C1255 1.419 . S
C1253 H1257 0.930 . S
C1254 C1253 1.369 . S
C1254 C1263 1.429 . S
C1255 C1253 1.419 . S
C1255 C1256 1.363 . S
C1255 H1258 0.929 . S
C1256 C1255 1.363 . S
C1256 C1262 1.428 . S
H1257 C1253 0.930 . S
H1258 C1255 0.929 . S
S1259 N1260 1.613 . S
S1259 N1261 1.610 . S
N1260 S1259 1.613 . S
N1260 C1263 1.350 . S
N1261 S1259 1.610 . S
N1261 C1262 1.351 . S
C1262 C1256 1.428 . S
C1262 N1261 1.351 . S
C1262 C1263 1.434 . S
C1263 C1254 1.429 . S
C1263 N1260 1.350 . S
C1263 C1262 1.434 . S
C1264 C1265 1.369 . S
C1264 C1266 1.419 . S
C1264 H1268 0.930 . S
C1265 C1264 1.369 . S
C1265 C1274 1.429 . S
C1266 C1264 1.419 . S
C1266 C1267 1.363 . S
C1266 H1269 0.929 . S
C1267 C1266 1.363 . S
C1267 C1273 1.428 . S
H1268 C1264 0.930 . S
H1269 C1266 0.929 . S
S1270 N1271 1.613 . S
S1270 N1272 1.610 . S
N1271 S1270 1.613 . S
N1271 C1274 1.350 . S
N1272 S1270 1.610 . S
N1272 C1273 1.351 . S
C1273 C1267 1.428 . S
C1273 N1272 1.351 . S
C1273 C1274 1.434 . S
C1274 C1265 1.429 . S
C1274 N1271 1.350 . S
C1274 C1273 1.434 . S
C1275 C1276 1.369 . S
C1275 C1277 1.419 . S
C1275 H1279 0.930 . S
C1276 C1275 1.369 . S
C1276 C1285 1.429 . S
C1277 C1275 1.419 . S
C1277 C1278 1.363 . S
C1277 H1280 0.929 . S
C1278 C1277 1.363 . S
C1278 C1284 1.428 . S
H1279 C1275 0.930 . S
H1280 C1277 0.929 . S
S1281 N1282 1.613 . S
S1281 N1283 1.610 . S
N1282 S1281 1.613 . S
N1282 C1285 1.350 . S
N1283 S1281 1.610 . S
N1283 C1284 1.351 . S
C1284 C1278 1.428 . S
C1284 N1283 1.351 . S
C1284 C1285 1.434 . S
C1285 C1276 1.429 . S
C1285 N1282 1.350 . S
C1285 C1284 1.434 . S
C1286 C1287 1.369 . S
C1286 C1288 1.419 . S
C1286 H1290 0.930 . S
C1287 C1286 1.369 . S
C1287 C1296 1.429 . S
C1288 C1286 1.419 . S
C1288 C1289 1.363 . S
C1288 H1291 0.929 . S
C1289 C1288 1.363 . S
C1289 C1295 1.428 . S
H1290 C1286 0.930 . S
H1291 C1288 0.929 . S
S1292 N1293 1.613 . S
S1292 N1294 1.610 . S
N1293 S1292 1.613 . S
N1293 C1296 1.350 . S
N1294 S1292 1.610 . S
N1294 C1295 1.351 . S
C1295 C1289 1.428 . S
C1295 N1294 1.351 . S
C1295 C1296 1.434 . S
C1296 C1287 1.429 . S
C1296 N1293 1.350 . S
C1296 C1295 1.434 . S
C1297 C1298 1.369 . S
C1297 C1299 1.419 . S
C1297 H1301 0.930 . S
C1298 C1297 1.369 . S
C1298 C1307 1.429 . S
C1299 C1297 1.419 . S
C1299 C1300 1.363 . S
C1299 H1302 0.929 . S
C1300 C1299 1.363 . S
C1300 C1306 1.428 . S
H1301 C1297 0.930 . S
H1302 C1299 0.929 . S
S1303 N1304 1.613 . S
S1303 N1305 1.610 . S
N1304 S1303 1.613 . S
N1304 C1307 1.350 . S
N1305 S1303 1.610 . S
N1305 C1306 1.351 . S
C1306 C1300 1.428 . S
C1306 N1305 1.351 . S
C1306 C1307 1.434 . S
C1307 C1298 1.429 . S
C1307 N1304 1.350 . S
C1307 C1306 1.434 . S
C1308 C1309 1.369 . S
C1308 C1310 1.419 . S
C1308 H1312 0.930 . S
C1309 C1308 1.369 . S
C1309 C1318 1.429 . S
C1310 C1308 1.419 . S
C1310 C1311 1.363 . S
C1310 H1313 0.929 . S
C1311 C1310 1.363 . S
C1311 C1317 1.428 . S
H1312 C1308 0.930 . S
H1313 C1310 0.929 . S
S1314 N1315 1.613 . S
S1314 N1316 1.610 . S
N1315 S1314 1.613 . S
N1315 C1318 1.350 . S
N1316 S1314 1.610 . S
N1316 C1317 1.351 . S
C1317 C1311 1.428 . S
C1317 N1316 1.351 . S
C1317 C1318 1.434 . S
C1318 C1309 1.429 . S
C1318 N1315 1.350 . S
C1318 C1317 1.434 . S
C1319 C1320 1.369 . S
C1319 C1321 1.419 . S
C1319 H1323 0.930 . S
C1320 C1319 1.369 . S
C1320 C1329 1.429 . S
C1321 C1319 1.419 . S
C1321 C1322 1.363 . S
C1321 H1324 0.929 . S
C1322 C1321 1.363 . S
C1322 C1328 1.428 . S
H1323 C1319 0.930 . S
H1324 C1321 0.929 . S
S1325 N1326 1.613 . S
S1325 N1327 1.610 . S
N1326 S1325 1.613 . S
N1326 C1329 1.350 . S
N1327 S1325 1.610 . S
N1327 C1328 1.351 . S
C1328 C1322 1.428 . S
C1328 N1327 1.351 . S
C1328 C1329 1.434 . S
C1329 C1320 1.429 . S
C1329 N1326 1.350 . S
C1329 C1328 1.434 . S
C1330 C1331 1.369 . S
C1330 C1332 1.419 . S
C1330 H1334 0.930 . S
C1331 C1330 1.369 . S
C1331 C1340 1.429 . S
C1332 C1330 1.419 . S
C1332 C1333 1.363 . S
C1332 H1335 0.929 . S
C1333 C1332 1.363 . S
C1333 C1339 1.428 . S
H1334 C1330 0.930 . S
H1335 C1332 0.929 . S
S1336 N1337 1.613 . S
S1336 N1338 1.610 . S
N1337 S1336 1.613 . S
N1337 C1340 1.350 . S
N1338 S1336 1.610 . S
N1338 C1339 1.351 . S
C1339 C1333 1.428 . S
C1339 N1338 1.351 . S
C1339 C1340 1.434 . S
C1340 C1331 1.429 . S
C1340 N1337 1.350 . S
C1340 C1339 1.434 . S
C1341 C1342 1.369 . S
C1341 C1343 1.419 . S
C1341 H1345 0.930 . S
C1342 C1341 1.369 . S
C1342 C1351 1.429 . S
C1343 C1341 1.419 . S
C1343 C1344 1.363 . S
C1343 H1346 0.929 . S
C1344 C1343 1.363 . S
C1344 C1350 1.428 . S
H1345 C1341 0.930 . S
H1346 C1343 0.929 . S
S1347 N1348 1.613 . S
S1347 N1349 1.610 . S
N1348 S1347 1.613 . S
N1348 C1351 1.350 . S
N1349 S1347 1.610 . S
N1349 C1350 1.351 . S
C1350 C1344 1.428 . S
C1350 N1349 1.351 . S
C1350 C1351 1.434 . S
C1351 C1342 1.429 . S
C1351 N1348 1.350 . S
C1351 C1350 1.434 . S
C1352 C1353 1.369 . S
C1352 C1354 1.419 . S
C1352 H1356 0.930 . S
C1353 C1352 1.369 . S
C1353 C1362 1.429 . S
C1354 C1352 1.419 . S
C1354 C1355 1.363 . S
C1354 H1357 0.929 . S
C1355 C1354 1.363 . S
C1355 C1361 1.428 . S
H1356 C1352 0.930 . S
H1357 C1354 0.929 . S
S1358 N1359 1.613 . S
S1358 N1360 1.610 . S
N1359 S1358 1.613 . S
N1359 C1362 1.350 . S
N1360 S1358 1.610 . S
N1360 C1361 1.351 . S
C1361 C1355 1.428 . S
C1361 N1360 1.351 . S
C1361 C1362 1.434 . S
C1362 C1353 1.429 . S
C1362 N1359 1.350 . S
C1362 C1361 1.434 . S
C1363 C1364 1.369 . S
C1363 C1365 1.419 . S
C1363 H1367 0.930 . S
C1364 C1363 1.369 . S
C1364 C1373 1.429 . S
C1365 C1363 1.419 . S
C1365 C1366 1.363 . S
C1365 H1368 0.929 . S
C1366 C1365 1.363 . S
C1366 C1372 1.428 . S
H1367 C1363 0.930 . S
H1368 C1365 0.929 . S
S1369 N1370 1.613 . S
S1369 N1371 1.610 . S
N1370 S1369 1.613 . S
N1370 C1373 1.350 . S
N1371 S1369 1.610 . S
N1371 C1372 1.351 . S
C1372 C1366 1.428 . S
C1372 N1371 1.351 . S
C1372 C1373 1.434 . S
C1373 C1364 1.429 . S
C1373 N1370 1.350 . S
C1373 C1372 1.434 . S
C1374 C1375 1.369 . S
C1374 C1376 1.419 . S
C1374 H1378 0.930 . S
C1375 C1374 1.369 . S
C1375 C1384 1.429 . S
C1376 C1374 1.419 . S
C1376 C1377 1.363 . S
C1376 H1379 0.929 . S
C1377 C1376 1.363 . S
C1377 C1383 1.428 . S
H1378 C1374 0.930 . S
H1379 C1376 0.929 . S
S1380 N1381 1.613 . S
S1380 N1382 1.610 . S
N1381 S1380 1.613 . S
N1381 C1384 1.350 . S
N1382 S1380 1.610 . S
N1382 C1383 1.351 . S
C1383 C1377 1.428 . S
C1383 N1382 1.351 . S
C1383 C1384 1.434 . S
C1384 C1375 1.429 . S
C1384 N1381 1.350 . S
C1384 C1383 1.434 . S
C1385 C1386 1.369 . S
C1385 C1387 1.419 . S
C1385 H1389 0.930 . S
C1386 C1385 1.369 . S
C1386 C1395 1.429 . S
C1387 C1385 1.419 . S
C1387 C1388 1.363 . S
C1387 H1390 0.929 . S
C1388 C1387 1.363 . S
C1388 C1394 1.428 . S
H1389 C1385 0.930 . S
H1390 C1387 0.929 . S
S1391 N1392 1.613 . S
S1391 N1393 1.610 . S
N1392 S1391 1.613 . S
N1392 C1395 1.350 . S
N1393 S1391 1.610 . S
N1393 C1394 1.351 . S
C1394 C1388 1.428 . S
C1394 N1393 1.351 . S
C1394 C1395 1.434 . S
C1395 C1386 1.429 . S
C1395 N1392 1.350 . S
C1395 C1394 1.434 . S
C1396 C1397 1.369 . S
C1396 C1398 1.419 . S
C1396 H1400 0.930 . S
C1397 C1396 1.369 . S
C1397 C1406 1.429 . S
C1398 C1396 1.419 . S
C1398 C1399 1.363 . S
C1398 H1401 0.929 . S
C1399 C1398 1.363 . S
C1399 C1405 1.428 . S
H1400 C1396 0.930 . S
H1401 C1398 0.929 . S
S1402 N1403 1.613 . S
S1402 N1404 1.610 . S
N1403 S1402 1.613 . S
N1403 C1406 1.350 . S
N1404 S1402 1.610 . S
N1404 C1405 1.351 . S
C1405 C1399 1.428 . S
C1405 N1404 1.351 . S
C1405 C1406 1.434 . S
C1406 C1397 1.429 . S
C1406 N1403 1.350 . S
C1406 C1405 1.434 . S
C1407 C1408 1.369 . S
C1407 C1409 1.419 . S
C1407 H1411 0.930 . S
C1408 C1407 1.369 . S
C1408 C1417 1.429 . S
C1409 C1407 1.419 . S
C1409 C1410 1.363 . S
C1409 H1412 0.929 . S
C1410 C1409 1.363 . S
C1410 C1416 1.428 . S
H1411 C1407 0.930 . S
H1412 C1409 0.929 . S
S1413 N1414 1.613 . S
S1413 N1415 1.610 . S
N1414 S1413 1.613 . S
N1414 C1417 1.350 . S
N1415 S1413 1.610 . S
N1415 C1416 1.351 . S
C1416 C1410 1.428 . S
C1416 N1415 1.351 . S
C1416 C1417 1.434 . S
C1417 C1408 1.429 . S
C1417 N1414 1.350 . S
C1417 C1416 1.434 . S
C1418 C1419 1.369 . S
C1418 C1420 1.419 . S
C1418 H1422 0.930 . S
C1419 C1418 1.369 . S
C1419 C1428 1.429 . S
C1420 C1418 1.419 . S
C1420 C1421 1.363 . S
C1420 H1423 0.929 . S
C1421 C1420 1.363 . S
C1421 C1427 1.428 . S
H1422 C1418 0.930 . S
H1423 C1420 0.929 . S
S1424 N1425 1.613 . S
S1424 N1426 1.610 . S
N1425 S1424 1.613 . S
N1425 C1428 1.350 . S
N1426 S1424 1.610 . S
N1426 C1427 1.351 . S
C1427 C1421 1.428 . S
C1427 N1426 1.351 . S
C1427 C1428 1.434 . S
C1428 C1419 1.429 . S
C1428 N1425 1.350 . S
C1428 C1427 1.434 . S
C1429 C1430 1.369 . S
C1429 C1431 1.419 . S
C1429 H1433 0.930 . S
C1430 C1429 1.369 . S
C1430 C1439 1.429 . S
C1431 C1429 1.419 . S
C1431 C1432 1.363 . S
C1431 H1434 0.929 . S
C1432 C1431 1.363 . S
C1432 C1438 1.428 . S
H1433 C1429 0.930 . S
H1434 C1431 0.929 . S
S1435 N1436 1.613 . S
S1435 N1437 1.610 . S
N1436 S1435 1.613 . S
N1436 C1439 1.350 . S
N1437 S1435 1.610 . S
N1437 C1438 1.351 . S
C1438 C1432 1.428 . S
C1438 N1437 1.351 . S
C1438 C1439 1.434 . S
C1439 C1430 1.429 . S
C1439 N1436 1.350 . S
C1439 C1438 1.434 . S
C1440 C1441 1.369 . S
C1440 C1442 1.419 . S
C1440 H1444 0.930 . S
C1441 C1440 1.369 . S
C1441 C1450 1.429 1_545 S
C1442 C1440 1.419 . S
C1442 C1443 1.363 1_545 S
C1442 H1445 0.929 . S
C1443 C1442 1.363 1_565 S
C1443 C1449 1.428 . S
H1444 C1440 0.930 . S
H1445 C1442 0.929 . S
S1446 N1447 1.613 . S
S1446 N1448 1.610 . S
N1447 S1446 1.613 . S
N1447 C1450 1.350 . S
N1448 S1446 1.610 . S
N1448 C1449 1.351 . S
C1449 C1443 1.428 . S
C1449 N1448 1.351 . S
C1449 C1450 1.434 . S
C1450 C1441 1.429 1_565 S
C1450 N1447 1.350 . S
C1450 C1449 1.434 . S
C1451 C1452 1.369 . S
C1451 C1453 1.419 . S
C1451 H1455 0.930 . S
C1452 C1451 1.369 . S
C1452 C1461 1.429 . S
C1453 C1451 1.419 . S
C1453 C1454 1.363 . S
C1453 H1456 0.929 . S
C1454 C1453 1.363 . S
C1454 C1460 1.428 . S
H1455 C1451 0.930 . S
H1456 C1453 0.929 . S
S1457 N1458 1.613 . S
S1457 N1459 1.610 . S
N1458 S1457 1.613 . S
N1458 C1461 1.350 1_545 S
N1459 S1457 1.610 . S
N1459 C1460 1.351 1_545 S
C1460 C1454 1.428 . S
C1460 N1459 1.351 1_565 S
C1460 C1461 1.434 . S
C1461 C1452 1.429 . S
C1461 N1458 1.350 1_565 S
C1461 C1460 1.434 . S
C1462 C1463 1.369 . S
C1462 C1464 1.419 . S
C1462 H1466 0.930 . S
C1463 C1462 1.369 . S
C1463 C1472 1.429 1_545 S
C1464 C1462 1.419 . S
C1464 C1465 1.363 1_545 S
C1464 H1467 0.929 . S
C1465 C1464 1.363 1_565 S
C1465 C1471 1.428 . S
H1466 C1462 0.930 . S
H1467 C1464 0.929 . S
S1468 N1469 1.613 . S
S1468 N1470 1.610 . S
N1469 S1468 1.613 . S
N1469 C1472 1.350 . S
N1470 S1468 1.610 . S
N1470 C1471 1.351 . S
C1471 C1465 1.428 . S
C1471 N1470 1.351 . S
C1471 C1472 1.434 . S
C1472 C1463 1.429 1_565 S
C1472 N1469 1.350 . S
C1472 C1471 1.434 . S
C1473 C1474 1.326 1_556 S
C1473 C1475 1.457 . S
C1473 H1477 0.936 . S
C1474 C1473 1.326 1_554 S
C1474 C1483 1.429 . S
C1475 C1473 1.457 . S
C1475 C1476 1.363 . S
C1475 H1478 0.929 . S
C1476 C1475 1.363 . S
C1476 C1482 1.428 1_556 S
H1477 C1473 0.936 . S
H1478 C1475 0.929 . S
S1479 N1480 1.613 . S
S1479 N1481 1.610 . S
N1480 S1479 1.613 . S
N1480 C1483 1.350 1_565 S
N1481 S1479 1.610 . S
N1481 C1482 1.351 1_565 S
C1482 C1476 1.428 1_554 S
C1482 N1481 1.351 1_545 S
C1482 C1483 1.434 . S
C1483 C1474 1.429 . S
C1483 N1480 1.350 1_545 S
C1483 C1482 1.434 . S
C1484 C1485 1.369 1_545 S
C1484 C1486 1.419 . S
C1484 H1488 0.930 . S
C1485 C1484 1.369 1_565 S
C1485 C1494 1.429 . S
C1486 C1484 1.419 . S
C1486 C1487 1.363 . S
C1486 H1489 0.929 . S
C1487 C1486 1.363 . S
C1487 C1493 1.428 1_545 S
H1488 C1484 0.930 . S
H1489 C1486 0.929 . S
S1490 N1491 1.613 . S
S1490 N1492 1.610 . S
N1491 S1490 1.613 . S
N1491 C1494 1.350 . S
N1492 S1490 1.610 . S
N1492 C1493 1.351 . S
C1493 C1487 1.428 1_565 S
C1493 N1492 1.351 . S
C1493 C1494 1.434 . S
C1494 C1485 1.429 . S
C1494 N1491 1.350 . S
C1494 C1493 1.434 . S
C1495 C1496 1.369 . S
C1495 C1497 1.419 . S
C1495 H1499 0.930 . S
C1496 C1495 1.369 . S
C1496 C1505 1.429 . S
C1497 C1495 1.419 . S
C1497 C1498 1.363 . S
C1497 H1500 0.929 . S
C1498 C1497 1.363 . S
C1498 C1504 1.428 . S
H1499 C1495 0.930 . S
H1500 C1497 0.929 . S
S1501 N1502 1.613 . S
S1501 N1503 1.610 . S
N1502 S1501 1.613 . S
N1502 C1505 1.350 . S
N1503 S1501 1.610 . S
N1503 C1504 1.351 . S
C1504 C1498 1.428 . S
C1504 N1503 1.351 . S
C1504 C1505 1.434 . S
C1505 C1496 1.429 . S
C1505 N1502 1.350 . S
C1505 C1504 1.434 . S
C1506 C1507 1.369 . S
C1506 C1508 1.419 . S
C1506 H1510 0.930 . S
C1507 C1506 1.369 . S
C1507 C1516 1.429 1_545 S
C1508 C1506 1.419 . S
C1508 C1509 1.363 1_545 S
C1508 H1511 0.929 . S
C1509 C1508 1.363 1_565 S
C1509 C1515 1.428 . S
H1510 C1506 0.930 . S
H1511 C1508 0.929 . S
S1512 N1513 1.613 . S
S1512 N1514 1.610 . S
N1513 S1512 1.613 . S
N1513 C1516 1.350 . S
N1514 S1512 1.610 . S
N1514 C1515 1.351 . S
C1515 C1509 1.428 . S
C1515 N1514 1.351 . S
C1515 C1516 1.434 . S
C1516 C1507 1.429 1_565 S
C1516 N1513 1.350 . S
C1516 C1515 1.434 . S
C1517 C1518 1.330 1_554 S
C1517 C1519 1.454 . S
C1517 H1521 0.936 . S
C1518 C1517 1.330 1_556 S
C1518 C1527 1.429 . S
C1519 C1517 1.454 . S
C1519 C1520 1.363 . S
C1519 H1522 0.929 . S
C1520 C1519 1.363 . S
C1520 C1526 1.428 1_554 S
H1521 C1517 0.936 . S
H1522 C1519 0.929 . S
S1523 N1524 1.613 . S
S1523 N1525 1.610 . S
N1524 S1523 1.613 . S
N1524 C1527 1.350 1_545 S
N1525 S1523 1.610 . S
N1525 C1526 1.351 1_545 S
C1526 C1520 1.428 1_556 S
C1526 N1525 1.351 1_565 S
C1526 C1527 1.434 . S
C1527 C1518 1.429 . S
C1527 N1524 1.350 1_565 S
C1527 C1526 1.434 . S
C1528 C1529 1.369 . S
C1528 C1530 1.419 . S
C1528 H1532 0.930 . S
C1529 C1528 1.369 . S
C1529 C1538 1.429 . S
C1530 C1528 1.419 . S
C1530 C1531 1.363 . S
C1530 H1533 0.929 . S
C1531 C1530 1.363 . S
C1531 C1537 1.428 . S
H1532 C1528 0.930 . S
H1533 C1530 0.929 . S
S1534 N1535 1.613 . S
S1534 N1536 1.610 . S
N1535 S1534 1.613 . S
N1535 C1538 1.350 . S
N1536 S1534 1.610 . S
N1536 C1537 1.351 . S
C1537 C1531 1.428 . S
C1537 N1536 1.351 . S
C1537 C1538 1.434 . S
C1538 C1529 1.429 . S
C1538 N1535 1.350 . S
C1538 C1537 1.434 . S
C1539 C1540 1.369 . S
C1539 C1541 1.419 . S
C1539 H1543 0.930 . S
C1540 C1539 1.369 . S
C1540 C1549 1.429 1_556 S
C1541 C1539 1.419 . S
C1541 C1542 1.363 1_556 S
C1541 H1544 0.929 . S
C1542 C1541 1.363 1_554 S
C1542 C1548 1.428 . S
H1543 C1539 0.930 . S
H1544 C1541 0.929 . S
S1545 N1546 1.613 . S
S1545 N1547 1.610 . S
N1546 S1545 1.613 . S
N1546 C1549 1.350 . S
N1547 S1545 1.610 . S
N1547 C1548 1.351 . S
C1548 C1542 1.428 . S
C1548 N1547 1.351 . S
C1548 C1549 1.434 . S
C1549 C1540 1.429 1_554 S
C1549 N1546 1.350 . S
C1549 C1548 1.434 . S
C1550 C1551 1.369 . S
C1550 C1552 1.419 . S
C1550 H1554 0.930 . S
C1551 C1550 1.369 . S
C1551 C1560 1.429 . S
C1552 C1550 1.419 . S
C1552 C1553 1.363 . S
C1552 H1555 0.929 . S
C1553 C1552 1.363 . S
C1553 C1559 1.428 . S
H1554 C1550 0.930 . S
H1555 C1552 0.929 . S
S1556 N1557 1.613 . S
S1556 N1558 1.610 . S
N1557 S1556 1.613 . S
N1557 C1560 1.350 . S
N1558 S1556 1.610 . S
N1558 C1559 1.351 . S
C1559 C1553 1.428 . S
C1559 N1558 1.351 . S
C1559 C1560 1.434 . S
C1560 C1551 1.429 . S
C1560 N1557 1.350 . S
C1560 C1559 1.434 . S
C1561 C1562 1.369 . S
C1561 C1563 1.419 . S
C1561 H1565 0.930 . S
C1562 C1561 1.369 . S
C1562 C1571 1.429 . S
C1563 C1561 1.419 . S
C1563 C1564 1.363 . S
C1563 H1566 0.929 . S
C1564 C1563 1.363 . S
C1564 C1570 1.428 . S
H1565 C1561 0.930 . S
H1566 C1563 0.929 . S
S1567 N1568 1.613 . S
S1567 N1569 1.610 . S
N1568 S1567 1.613 . S
N1568 C1571 1.350 . S
N1569 S1567 1.610 . S
N1569 C1570 1.351 . S
C1570 C1564 1.428 . S
C1570 N1569 1.351 . S
C1570 C1571 1.434 . S
C1571 C1562 1.429 . S
C1571 N1568 1.350 . S
C1571 C1570 1.434 . S
C1572 C1573 1.369 . S
C1572 C1574 1.419 . S
C1572 H1576 0.930 . S
C1573 C1572 1.369 . S
C1573 C1582 1.429 . S
C1574 C1572 1.419 . S
C1574 C1575 1.363 . S
C1574 H1577 0.929 . S
C1575 C1574 1.363 . S
C1575 C1581 1.428 . S
H1576 C1572 0.930 . S
H1577 C1574 0.929 . S
S1578 N1579 1.613 . S
S1578 N1580 1.610 . S
N1579 S1578 1.613 . S
N1579 C1582 1.350 . S
N1580 S1578 1.610 . S
N1580 C1581 1.351 . S
C1581 C1575 1.428 . S
C1581 N1580 1.351 . S
C1581 C1582 1.434 . S
C1582 C1573 1.429 . S
C1582 N1579 1.350 . S
C1582 C1581 1.434 . S
C1583 C1584 1.369 . S
C1583 C1585 1.419 . S
C1583 H1587 0.930 . S
C1584 C1583 1.369 . S
C1584 C1593 1.429 1_556 S
C1585 C1583 1.419 . S
C1585 C1586 1.363 1_556 S
C1585 H1588 0.929 . S
C1586 C1585 1.363 1_554 S
C1586 C1592 1.428 . S
H1587 C1583 0.930 . S
H1588 C1585 0.929 . S
S1589 N1590 1.613 . S
S1589 N1591 1.610 . S
N1590 S1589 1.613 . S
N1590 C1593 1.350 . S
N1591 S1589 1.610 . S
N1591 C1592 1.351 . S
C1592 C1586 1.428 . S
C1592 N1591 1.351 . S
C1592 C1593 1.434 . S
C1593 C1584 1.429 1_554 S
C1593 N1590 1.350 . S
C1593 C1592 1.434 . S
C1594 C1595 1.369 . S
C1594 C1596 1.419 . S
C1594 H1598 0.930 . S
C1595 C1594 1.369 . S
C1595 C1604 1.429 . S
C1596 C1594 1.419 . S
C1596 C1597 1.363 . S
C1596 H1599 0.929 . S
C1597 C1596 1.363 . S
C1597 C1603 1.428 . S
H1598 C1594 0.930 . S
H1599 C1596 0.929 . S
S1600 N1601 1.613 . S
S1600 N1602 1.610 . S
N1601 S1600 1.613 . S
N1601 C1604 1.350 . S
N1602 S1600 1.610 . S
N1602 C1603 1.351 . S
C1603 C1597 1.428 . S
C1603 N1602 1.351 . S
C1603 C1604 1.434 . S
C1604 C1595 1.429 . S
C1604 N1601 1.350 . S
C1604 C1603 1.434 . S
C1605 C1606 1.369 . S
C1605 C1607 1.419 . S
C1605 H1609 0.930 . S
C1606 C1605 1.369 . S
C1606 C1615 1.429 . S
C1607 C1605 1.419 . S
C1607 C1608 1.363 . S
C1607 H1610 0.929 . S
C1608 C1607 1.363 . S
C1608 C1614 1.428 . S
H1609 C1605 0.930 . S
H1610 C1607 0.929 . S
S1611 N1612 1.613 . S
S1611 N1613 1.610 . S
N1612 S1611 1.613 . S
N1612 C1615 1.350 . S
N1613 S1611 1.610 . S
N1613 C1614 1.351 . S
C1614 C1608 1.428 . S
C1614 N1613 1.351 . S
C1614 C1615 1.434 . S
C1615 C1606 1.429 . S
C1615 N1612 1.350 . S
C1615 C1614 1.434 . S
C1616 C1617 1.369 . S
C1616 C1618 1.419 . S
C1616 H1620 0.930 . S
C1617 C1616 1.369 . S
C1617 C1626 1.429 . S
C1618 C1616 1.419 . S
C1618 C1619 1.363 . S
C1618 H1621 0.929 . S
C1619 C1618 1.363 . S
C1619 C1625 1.428 . S
H1620 C1616 0.930 . S
H1621 C1618 0.929 . S
S1622 N1623 1.613 . S
S1622 N1624 1.610 . S
N1623 S1622 1.613 . S
N1623 C1626 1.350 . S
N1624 S1622 1.610 . S
N1624 C1625 1.351 . S
C1625 C1619 1.428 . S
C1625 N1624 1.351 . S
C1625 C1626 1.434 . S
C1626 C1617 1.429 . S
C1626 N1623 1.350 . S
C1626 C1625 1.434 . S
C1627 C1628 1.369 . S
C1627 C1629 1.419 . S
C1627 H1631 0.930 . S
C1628 C1627 1.369 . S
C1628 C1637 1.429 . S
C1629 C1627 1.419 . S
C1629 C1630 1.363 . S
C1629 H1632 0.929 . S
C1630 C1629 1.363 . S
C1630 C1636 1.428 . S
H1631 C1627 0.930 . S
H1632 C1629 0.929 . S
S1633 N1634 1.613 . S
S1633 N1635 1.610 . S
N1634 S1633 1.613 . S
N1634 C1637 1.350 . S
N1635 S1633 1.610 . S
N1635 C1636 1.351 . S
C1636 C1630 1.428 . S
C1636 N1635 1.351 . S
C1636 C1637 1.434 . S
C1637 C1628 1.429 . S
C1637 N1634 1.350 . S
C1637 C1636 1.434 . S
C1638 C1639 1.369 . S
C1638 C1640 1.419 . S
C1638 H1642 0.930 . S
C1639 C1638 1.369 . S
C1639 C1648 1.429 . S
C1640 C1638 1.419 . S
C1640 C1641 1.363 . S
C1640 H1643 0.929 . S
C1641 C1640 1.363 . S
C1641 C1647 1.428 . S
H1642 C1638 0.930 . S
H1643 C1640 0.929 . S
S1644 N1645 1.613 . S
S1644 N1646 1.610 . S
N1645 S1644 1.613 . S
N1645 C1648 1.350 . S
N1646 S1644 1.610 . S
N1646 C1647 1.351 . S
C1647 C1641 1.428 . S
C1647 N1646 1.351 . S
C1647 C1648 1.434 . S
C1648 C1639 1.429 . S
C1648 N1645 1.350 . S
C1648 C1647 1.434 . S
C1649 C1650 1.369 . S
C1649 C1651 1.419 . S
C1649 H1653 0.930 . S
C1650 C1649 1.369 . S
C1650 C1659 1.429 . S
C1651 C1649 1.419 . S
C1651 C1652 1.363 . S
C1651 H1654 0.929 . S
C1652 C1651 1.363 . S
C1652 C1658 1.428 . S
H1653 C1649 0.930 . S
H1654 C1651 0.929 . S
S1655 N1656 1.613 . S
S1655 N1657 1.610 . S
N1656 S1655 1.613 . S
N1656 C1659 1.350 . S
N1657 S1655 1.610 . S
N1657 C1658 1.351 . S
C1658 C1652 1.428 . S
C1658 N1657 1.351 . S
C1658 C1659 1.434 . S
C1659 C1650 1.429 . S
C1659 N1656 1.350 . S
C1659 C1658 1.434 . S
C1660 C1661 1.369 . S
C1660 C1662 1.419 . S
C1660 H1664 0.930 . S
C1661 C1660 1.369 . S
C1661 C1670 1.429 . S
C1662 C1660 1.419 . S
C1662 C1663 1.363 . S
C1662 H1665 0.929 . S
C1663 C1662 1.363 . S
C1663 C1669 1.428 . S
H1664 C1660 0.930 . S
H1665 C1662 0.929 . S
S1666 N1667 1.613 . S
S1666 N1668 1.610 . S
N1667 S1666 1.613 . S
N1667 C1670 1.350 . S
N1668 S1666 1.610 . S
N1668 C1669 1.351 . S
C1669 C1663 1.428 . S
C1669 N1668 1.351 . S
C1669 C1670 1.434 . S
C1670 C1661 1.429 . S
C1670 N1667 1.350 . S
C1670 C1669 1.434 . S
C1671 C1672 1.369 . S
C1671 C1673 1.419 . S
C1671 H1675 0.930 . S
C1672 C1671 1.369 . S
C1672 C1681 1.429 . S
C1673 C1671 1.419 . S
C1673 C1674 1.363 . S
C1673 H1676 0.929 . S
C1674 C1673 1.363 . S
C1674 C1680 1.428 . S
H1675 C1671 0.930 . S
H1676 C1673 0.929 . S
S1677 N1678 1.613 1_545 S
S1677 N1679 1.610 . S
N1678 S1677 1.613 1_565 S
N1678 C1681 1.350 . S
N1679 S1677 1.610 . S
N1679 C1680 1.351 1_545 S
C1680 C1674 1.428 . S
C1680 N1679 1.351 1_565 S
C1680 C1681 1.434 . S
C1681 C1672 1.429 . S
C1681 N1678 1.350 . S
C1681 C1680 1.434 . S
C1682 C1683 1.369 . S
C1682 C1684 1.419 . S
C1682 H1686 0.930 . S
C1683 C1682 1.369 . S
C1683 C1692 1.429 . S
C1684 C1682 1.419 . S
C1684 C1685 1.363 . S
C1684 H1687 0.929 . S
C1685 C1684 1.363 . S
C1685 C1691 1.428 . S
H1686 C1682 0.930 . S
H1687 C1684 0.929 . S
S1688 N1689 1.613 1_565 S
S1688 N1690 1.610 . S
N1689 S1688 1.613 1_545 S
N1689 C1692 1.350 . S
N1690 S1688 1.610 . S
N1690 C1691 1.351 1_565 S
C1691 C1685 1.428 . S
C1691 N1690 1.351 1_545 S
C1691 C1692 1.434 . S
C1692 C1683 1.429 . S
C1692 N1689 1.350 . S
C1692 C1691 1.434 . S
C1693 C1694 1.369 . S
C1693 C1695 1.419 . S
C1693 H1697 0.930 . S
C1694 C1693 1.369 . S
C1694 C1703 1.429 . S
C1695 C1693 1.419 . S
C1695 C1696 1.363 . S
C1695 H1698 0.929 . S
C1696 C1695 1.363 . S
C1696 C1702 1.428 . S
H1697 C1693 0.930 . S
H1698 C1695 0.929 . S
S1699 N1700 1.613 . S
S1699 N1701 1.610 1_565 S
N1700 S1699 1.613 . S
N1700 C1703 1.350 1_565 S
N1701 S1699 1.610 1_545 S
N1701 C1702 1.351 . S
C1702 C1696 1.428 . S
C1702 N1701 1.351 . S
C1702 C1703 1.434 . S
C1703 C1694 1.429 . S
C1703 N1700 1.350 1_545 S
C1703 C1702 1.434 . S
C1704 C1705 1.369 . S
C1704 C1706 1.419 . S
C1704 H1708 0.930 . S
C1705 C1704 1.369 . S
C1705 C1714 1.429 . S
C1706 C1704 1.419 . S
C1706 C1707 1.363 . S
C1706 H1709 0.929 . S
C1707 C1706 1.363 . S
C1707 C1713 1.428 . S
H1708 C1704 0.930 . S
H1709 C1706 0.929 . S
S1710 N1711 1.613 . S
S1710 N1712 1.610 . S
N1711 S1710 1.613 . S
N1711 C1714 1.350 . S
N1712 S1710 1.610 . S
N1712 C1713 1.351 . S
C1713 C1707 1.428 . S
C1713 N1712 1.351 . S
C1713 C1714 1.434 . S
C1714 C1705 1.429 . S
C1714 N1711 1.350 . S
C1714 C1713 1.434 . S
C1715 C1716 1.369 . S
C1715 C1717 1.419 . S
C1715 H1719 0.930 . S
C1716 C1715 1.369 . S
C1716 C1725 1.429 . S
C1717 C1715 1.419 . S
C1717 C1718 1.363 . S
C1717 H1720 0.929 . S
C1718 C1717 1.363 . S
C1718 C1724 1.428 . S
H1719 C1715 0.930 . S
H1720 C1717 0.929 . S
S1721 N1722 1.613 . S
S1721 N1723 1.610 . S
N1722 S1721 1.613 . S
N1722 C1725 1.350 . S
N1723 S1721 1.610 . S
N1723 C1724 1.351 . S
C1724 C1718 1.428 . S
C1724 N1723 1.351 . S
C1724 C1725 1.434 . S
C1725 C1716 1.429 . S
C1725 N1722 1.350 . S
C1725 C1724 1.434 . S
C1726 C1727 1.369 . S
C1726 C1728 1.419 . S
C1726 H1730 0.930 . S
C1727 C1726 1.369 . S
C1727 C1736 1.429 . S
C1728 C1726 1.419 . S
C1728 C1729 1.363 . S
C1728 H1731 0.929 . S
C1729 C1728 1.363 . S
C1729 C1735 1.428 . S
H1730 C1726 0.930 . S
H1731 C1728 0.929 . S
S1732 N1733 1.613 . S
S1732 N1734 1.610 . S
N1733 S1732 1.613 . S
N1733 C1736 1.350 . S
N1734 S1732 1.610 . S
N1734 C1735 1.351 . S
C1735 C1729 1.428 . S
C1735 N1734 1.351 . S
C1735 C1736 1.434 . S
C1736 C1727 1.429 . S
C1736 N1733 1.350 . S
C1736 C1735 1.434 . S
C1737 C1738 1.369 . S
C1737 C1739 1.419 . S
C1737 H1741 0.930 . S
C1738 C1737 1.369 . S
C1738 C1747 1.429 . S
C1739 C1737 1.419 . S
C1739 C1740 1.363 . S
C1739 H1742 0.929 . S
C1740 C1739 1.363 . S
C1740 C1746 1.428 . S
H1741 C1737 0.930 . S
H1742 C1739 0.929 . S
S1743 N1744 1.613 . S
S1743 N1745 1.610 . S
N1744 S1743 1.613 . S
N1744 C1747 1.350 . S
N1745 S1743 1.610 . S
N1745 C1746 1.351 . S
C1746 C1740 1.428 . S
C1746 N1745 1.351 . S
C1746 C1747 1.434 . S
C1747 C1738 1.429 . S
C1747 N1744 1.350 . S
C1747 C1746 1.434 . S
C1748 C1749 1.369 . S
C1748 C1750 1.419 . S
C1748 H1752 0.930 . S
C1749 C1748 1.369 . S
C1749 C1758 1.429 . S
C1750 C1748 1.419 . S
C1750 C1751 1.363 . S
C1750 H1753 0.929 . S
C1751 C1750 1.363 . S
C1751 C1757 1.428 . S
H1752 C1748 0.930 . S
H1753 C1750 0.929 . S
S1754 N1755 1.613 . S
S1754 N1756 1.610 . S
N1755 S1754 1.613 . S
N1755 C1758 1.350 . S
N1756 S1754 1.610 . S
N1756 C1757 1.351 . S
C1757 C1751 1.428 . S
C1757 N1756 1.351 . S
C1757 C1758 1.434 . S
C1758 C1749 1.429 . S
C1758 N1755 1.350 . S
C1758 C1757 1.434 . S
C1759 C1760 1.369 . S
C1759 C1761 1.419 . S
C1759 H1763 0.930 . S
C1760 C1759 1.369 . S
C1760 C1769 1.429 . S
C1761 C1759 1.419 . S
C1761 C1762 1.363 . S
C1761 H1764 0.929 . S
C1762 C1761 1.363 . S
C1762 C1768 1.428 . S
H1763 C1759 0.930 . S
H1764 C1761 0.929 . S
S1765 N1766 1.613 . S
S1765 N1767 1.610 . S
N1766 S1765 1.613 . S
N1766 C1769 1.350 . S
N1767 S1765 1.610 . S
N1767 C1768 1.351 . S
C1768 C1762 1.428 . S
C1768 N1767 1.351 . S
C1768 C1769 1.434 . S
C1769 C1760 1.429 . S
C1769 N1766 1.350 . S
C1769 C1768 1.434 . S
C1770 C1771 1.369 . S
C1770 C1772 1.419 . S
C1770 H1774 0.930 . S
C1771 C1770 1.369 . S
C1771 C1780 1.429 . S
C1772 C1770 1.419 . S
C1772 C1773 1.363 . S
C1772 H1775 0.929 . S
C1773 C1772 1.363 . S
C1773 C1779 1.428 . S
H1774 C1770 0.930 . S
H1775 C1772 0.929 . S
S1776 N1777 1.613 . S
S1776 N1778 1.610 . S
N1777 S1776 1.613 . S
N1777 C1780 1.350 . S
N1778 S1776 1.610 . S
N1778 C1779 1.351 . S
C1779 C1773 1.428 . S
C1779 N1778 1.351 . S
C1779 C1780 1.434 . S
C1780 C1771 1.429 . S
C1780 N1777 1.350 . S
C1780 C1779 1.434 . S
C1781 C1782 1.369 . S
C1781 C1783 1.419 . S
C1781 H1785 0.930 . S
C1782 C1781 1.369 . S
C1782 C1791 1.429 . S
C1783 C1781 1.419 . S
C1783 C1784 1.363 . S
C1783 H1786 0.929 . S
C1784 C1783 1.363 . S
C1784 C1790 1.428 . S
H1785 C1781 0.930 . S
H1786 C1783 0.929 . S
S1787 N1788 1.613 . S
S1787 N1789 1.610 . S
N1788 S1787 1.613 . S
N1788 C1791 1.350 . S
N1789 S1787 1.610 . S
N1789 C1790 1.351 . S
C1790 C1784 1.428 . S
C1790 N1789 1.351 . S
C1790 C1791 1.434 . S
C1791 C1782 1.429 . S
C1791 N1788 1.350 . S
C1791 C1790 1.434 . S
C1792 C1793 1.369 . S
C1792 C1794 1.419 . S
C1792 H1796 0.930 . S
C1793 C1792 1.369 . S
C1793 C1802 1.429 . S
C1794 C1792 1.419 . S
C1794 C1795 1.363 . S
C1794 H1797 0.929 . S
C1795 C1794 1.363 . S
C1795 C1801 1.428 . S
H1796 C1792 0.930 . S
H1797 C1794 0.929 . S
S1798 N1799 1.613 . S
S1798 N1800 1.610 . S
N1799 S1798 1.613 . S
N1799 C1802 1.350 . S
N1800 S1798 1.610 . S
N1800 C1801 1.351 . S
C1801 C1795 1.428 . S
C1801 N1800 1.351 . S
C1801 C1802 1.434 . S
C1802 C1793 1.429 . S
C1802 N1799 1.350 . S
C1802 C1801 1.434 . S
C1803 C1804 1.369 1_665 S
C1803 C1805 1.419 . S
C1803 H1807 0.930 . S
C1804 C1803 1.369 1_445 S
C1804 C1813 1.429 . S
C1805 C1803 1.419 . S
C1805 C1806 1.369 . S
C1805 H1808 0.929 . S
C1806 C1805 1.369 . S
C1806 C1812 1.422 1_665 S
H1807 C1803 0.930 . S
H1808 C1805 0.929 . S
S1809 N1810 1.613 . S
S1809 N1811 1.610 . S
N1810 S1809 1.613 . S
N1810 C1813 1.350 . S
N1811 S1809 1.610 . S
N1811 C1812 1.351 . S
C1812 C1806 1.422 1_445 S
C1812 N1811 1.351 . S
C1812 C1813 1.434 . S
C1813 C1804 1.429 . S
C1813 N1810 1.350 . S
C1813 C1812 1.434 . S
C1814 C1815 1.369 . S
C1814 C1816 1.419 . S
C1814 H1818 0.930 . S
C1815 C1814 1.369 . S
C1815 C1824 1.429 . S
C1816 C1814 1.419 . S
C1816 C1817 1.363 . S
C1816 H1819 0.929 . S
C1817 C1816 1.363 . S
C1817 C1823 1.428 . S
H1818 C1814 0.930 . S
H1819 C1816 0.929 . S
S1820 N1821 1.613 . S
S1820 N1822 1.610 . S
N1821 S1820 1.613 . S
N1821 C1824 1.350 . S
N1822 S1820 1.610 . S
N1822 C1823 1.351 . S
C1823 C1817 1.428 . S
C1823 N1822 1.351 . S
C1823 C1824 1.434 . S
C1824 C1815 1.429 . S
C1824 N1821 1.350 . S
C1824 C1823 1.434 . S
C1825 C1826 1.369 1_545 S
C1825 C1827 1.419 1_554 S
C1825 H1829 0.930 . S
C1826 C1825 1.369 1_565 S
C1826 C1835 1.429 . S
C1827 C1825 1.419 1_556 S
C1827 C1828 1.383 . S
C1827 H1830 0.929 . S
C1828 C1827 1.383 . S
C1828 C1834 1.408 1_545 S
H1829 C1825 0.930 . S
H1830 C1827 0.929 . S
S1831 N1832 1.613 . S
S1831 N1833 1.610 1_554 S
N1832 S1831 1.613 . S
N1832 C1835 1.350 . S
N1833 S1831 1.610 1_556 S
N1833 C1834 1.351 . S
C1834 C1828 1.408 1_565 S
C1834 N1833 1.351 . S
C1834 C1835 1.434 1_556 S
C1835 C1826 1.429 . S
C1835 N1832 1.350 . S
C1835 C1834 1.434 1_554 S
C1836 C1837 1.369 . S
C1836 C1838 1.419 . S
C1836 H1840 0.930 . S
C1837 C1836 1.369 . S
C1837 C1846 1.429 . S
C1838 C1836 1.419 . S
C1838 C1839 1.363 . S
C1838 H1841 0.929 . S
C1839 C1838 1.363 . S
C1839 C1845 1.428 . S
H1840 C1836 0.930 . S
H1841 C1838 0.929 . S
S1842 N1843 1.613 . S
S1842 N1844 1.610 . S
N1843 S1842 1.613 . S
N1843 C1846 1.350 . S
N1844 S1842 1.610 . S
N1844 C1845 1.351 . S
C1845 C1839 1.428 . S
C1845 N1844 1.351 . S
C1845 C1846 1.434 . S
C1846 C1837 1.429 . S
C1846 N1843 1.350 . S
C1846 C1845 1.434 . S
C1847 C1848 1.375 . S
C1847 C1849 1.419 . S
C1847 H1851 0.930 . S
C1848 C1847 1.375 . S
C1848 C1857 1.422 1_565 S
C1849 C1847 1.419 . S
C1849 C1850 1.363 1_565 S
C1849 H1852 0.929 . S
C1850 C1849 1.363 1_545 S
C1850 C1856 1.428 . S
H1851 C1847 0.930 . S
H1852 C1849 0.929 . S
S1853 N1854 1.613 . S
S1853 N1855 1.610 . S
N1854 S1853 1.613 . S
N1854 C1857 1.350 . S
N1855 S1853 1.610 . S
N1855 C1856 1.351 . S
C1856 C1850 1.428 . S
C1856 N1855 1.351 . S
C1856 C1857 1.434 . S
C1857 C1848 1.422 1_545 S
C1857 N1854 1.350 . S
C1857 C1856 1.434 . S
C1858 C1859 1.369 . S
C1858 C1860 1.419 . S
C1858 H1862 0.930 . S
C1859 C1858 1.369 . S
C1859 C1868 1.429 . S
C1860 C1858 1.419 . S
C1860 C1861 1.363 . S
C1860 H1863 0.929 . S
C1861 C1860 1.363 . S
C1861 C1867 1.428 . S
H1862 C1858 0.930 . S
H1863 C1860 0.929 . S
S1864 N1865 1.613 . S
S1864 N1866 1.610 . S
N1865 S1864 1.613 . S
N1865 C1868 1.350 . S
N1866 S1864 1.610 . S
N1866 C1867 1.351 . S
C1867 C1861 1.428 . S
C1867 N1866 1.351 . S
C1867 C1868 1.434 . S
C1868 C1859 1.429 . S
C1868 N1865 1.350 . S
C1868 C1867 1.434 . S
C1869 C1870 1.375 1_455 S
C1869 C1871 1.419 . S
C1869 H1873 0.930 . S
C1870 C1869 1.375 1_655 S
C1870 C1879 1.422 1_544 S
C1871 C1869 1.419 . S
C1871 C1872 1.363 1_544 S
C1871 H1874 0.929 . S
C1872 C1871 1.363 1_566 S
C1872 C1878 1.428 1_455 S
H1873 C1869 0.930 . S
H1874 C1871 0.929 . S
S1875 N1876 1.613 . S
S1875 N1877 1.610 . S
N1876 S1875 1.613 . S
N1876 C1879 1.350 . S
N1877 S1875 1.610 . S
N1877 C1878 1.351 . S
C1878 C1872 1.428 1_655 S
C1878 N1877 1.351 . S
C1878 C1879 1.434 . S
C1879 C1870 1.422 1_566 S
C1879 N1876 1.350 . S
C1879 C1878 1.434 . S
C1880 C1881 1.369 . S
C1880 C1882 1.419 . S
C1880 H1884 0.930 . S
C1881 C1880 1.369 . S
C1881 C1890 1.429 . S
C1882 C1880 1.419 . S
C1882 C1883 1.363 . S
C1882 H1885 0.929 . S
C1883 C1882 1.363 . S
C1883 C1889 1.428 . S
H1884 C1880 0.930 . S
H1885 C1882 0.929 . S
S1886 N1887 1.613 . S
S1886 N1888 1.610 . S
N1887 S1886 1.613 . S
N1887 C1890 1.350 . S
N1888 S1886 1.610 . S
N1888 C1889 1.351 . S
C1889 C1883 1.428 . S
C1889 N1888 1.351 . S
C1889 C1890 1.434 . S
C1890 C1881 1.429 . S
C1890 N1887 1.350 . S
C1890 C1889 1.434 . S
C1891 C1892 1.369 . S
C1891 C1893 1.419 . S
C1891 H1895 0.930 . S
C1892 C1891 1.369 . S
C1892 C1901 1.429 . S
C1893 C1891 1.419 . S
C1893 C1894 1.363 . S
C1893 H1896 0.929 . S
C1894 C1893 1.363 . S
C1894 C1900 1.428 . S
H1895 C1891 0.930 . S
H1896 C1893 0.929 . S
S1897 N1898 1.613 . S
S1897 N1899 1.610 . S
N1898 S1897 1.613 . S
N1898 C1901 1.350 . S
N1899 S1897 1.610 . S
N1899 C1900 1.351 . S
C1900 C1894 1.428 . S
C1900 N1899 1.351 . S
C1900 C1901 1.434 . S
C1901 C1892 1.429 . S
C1901 N1898 1.350 . S
C1901 C1900 1.434 . S
C1902 C1903 1.369 . S
C1902 C1904 1.419 . S
C1902 H1906 0.930 . S
C1903 C1902 1.369 . S
C1903 C1912 1.429 . S
C1904 C1902 1.419 . S
C1904 C1905 1.363 . S
C1904 H1907 0.929 . S
C1905 C1904 1.363 . S
C1905 C1911 1.428 . S
H1906 C1902 0.930 . S
H1907 C1904 0.929 . S
S1908 N1909 1.613 . S
S1908 N1910 1.610 . S
N1909 S1908 1.613 . S
N1909 C1912 1.350 . S
N1910 S1908 1.610 . S
N1910 C1911 1.351 . S
C1911 C1905 1.428 . S
C1911 N1910 1.351 . S
C1911 C1912 1.434 . S
C1912 C1903 1.429 . S
C1912 N1909 1.350 . S
C1912 C1911 1.434 . S
C1913 C1914 1.369 . S
C1913 C1915 1.419 . S
C1913 H1917 0.930 . S
C1914 C1913 1.369 . S
C1914 C1923 1.429 . S
C1915 C1913 1.419 . S
C1915 C1916 1.363 . S
C1915 H1918 0.929 . S
C1916 C1915 1.363 . S
C1916 C1922 1.428 . S
H1917 C1913 0.930 . S
H1918 C1915 0.929 . S
S1919 N1920 1.613 . S
S1919 N1921 1.610 . S
N1920 S1919 1.613 . S
N1920 C1923 1.350 . S
N1921 S1919 1.610 . S
N1921 C1922 1.351 . S
C1922 C1916 1.428 . S
C1922 N1921 1.351 . S
C1922 C1923 1.434 . S
C1923 C1914 1.429 . S
C1923 N1920 1.350 . S
C1923 C1922 1.434 . S
C1924 C1925 1.369 . S
C1924 C1926 1.419 . S
C1924 H1928 0.930 . S
C1925 C1924 1.369 . S
C1925 C1934 1.429 1_556 S
C1926 C1924 1.419 . S
C1926 C1927 1.363 1_556 S
C1926 H1929 0.929 . S
C1927 C1926 1.363 1_554 S
C1927 C1933 1.428 . S
H1928 C1924 0.930 . S
H1929 C1926 0.929 . S
S1930 N1931 1.613 . S
S1930 N1932 1.610 . S
N1931 S1930 1.613 . S
N1931 C1934 1.350 . S
N1932 S1930 1.610 . S
N1932 C1933 1.351 . S
C1933 C1927 1.428 . S
C1933 N1932 1.351 . S
C1933 C1934 1.434 . S
C1934 C1925 1.429 1_554 S
C1934 N1931 1.350 . S
C1934 C1933 1.434 . S
C1935 C1936 1.369 . S
C1935 C1937 1.419 1_455 S
C1935 H1939 0.930 . S
C1936 C1935 1.369 . S
C1936 C1945 1.429 . S
C1937 C1935 1.419 1_655 S
C1937 C1938 1.363 . S
C1937 H1940 0.929 . S
C1938 C1937 1.363 . S
C1938 C1944 1.428 . S
H1939 C1935 0.930 . S
H1940 C1937 0.929 . S
S1941 N1942 1.613 . S
S1941 N1943 1.610 1_455 S
N1942 S1941 1.613 . S
N1942 C1945 1.350 . S
N1943 S1941 1.610 1_655 S
N1943 C1944 1.351 . S
C1944 C1938 1.428 . S
C1944 N1943 1.351 . S
C1944 C1945 1.434 1_655 S
C1945 C1936 1.429 . S
C1945 N1942 1.350 . S
C1945 C1944 1.434 1_455 S
C1946 C1947 1.364 1_655 S
C1946 C1948 1.424 1_554 S
C1946 H1950 0.931 . S
C1947 C1946 1.364 1_455 S
C1947 C1956 1.429 . S
C1948 C1946 1.424 1_556 S
C1948 C1949 1.363 . S
C1948 H1951 0.929 . S
C1949 C1948 1.363 . S
C1949 C1955 1.411 1_655 S
H1950 C1946 0.931 . S
H1951 C1948 0.929 . S
S1952 N1953 1.613 1_556 S
S1952 N1954 1.610 . S
N1953 S1952 1.613 1_554 S
N1953 C1956 1.350 . S
N1954 S1952 1.610 . S
N1954 C1955 1.354 . S
C1955 C1949 1.411 1_455 S
C1955 N1954 1.354 . S
C1955 C1956 1.451 1_556 S
C1956 C1947 1.429 . S
C1956 N1953 1.350 . S
C1956 C1955 1.451 1_554 S
C1957 C1958 1.369 . S
C1957 C1959 1.419 . S
C1957 H1961 0.930 . S
C1958 C1957 1.369 . S
C1958 C1967 1.429 . S
C1959 C1957 1.419 . S
C1959 C1960 1.363 . S
C1959 H1962 0.929 . S
C1960 C1959 1.363 . S
C1960 C1966 1.428 . S
H1961 C1957 0.930 . S
H1962 C1959 0.929 . S
S1963 N1964 1.613 . S
S1963 N1965 1.610 . S
N1964 S1963 1.613 . S
N1964 C1967 1.350 . S
N1965 S1963 1.610 . S
N1965 C1966 1.351 . S
C1966 C1960 1.428 . S
C1966 N1965 1.351 . S
C1966 C1967 1.434 . S
C1967 C1958 1.429 . S
C1967 N1964 1.350 . S
C1967 C1966 1.434 . S
C1089 C9 1.515 . S
C1091 C920 1.537 . S
C1100 C43 1.515 . S
C1102 C274 1.538 . S
C1111 C852 1.537 . S
C1113 C77 1.515 . S
C1122 C342 1.538 . S
C1124 C111 1.518 . S
C1133 C988 1.538 . S
C1135 C145 1.519 . S
C1144 C179 1.518 . S
C1146 C478 1.537 . S
C1155 C213 1.515 . S
C1157 C1056 1.537 . S
C1166 C410 1.538 . S
C1168 C247 1.518 . S
C1177 C281 1.519 . S
C1179 C648 1.538 . S
C1188 C315 1.517 . S
C1190 C2 1.538 . S
C1199 C349 1.514 . S
C1201 C580 1.537 . S
C1210 C70 1.538 . S
C1212 C383 1.519 . S
C1221 C417 1.519 . S
C1223 C716 1.538 . S
C1232 C451 1.514 . S
C1234 C206 1.537 . S
C1243 C784 1.537 . S
C1245 C485 1.515 . S
C1254 C519 1.515 . S
C1256 C138 1.537 . S
C1265 C553 1.519 . S
C1267 C376 1.538 . S
C1276 C818 1.539 . S
C1278 C587 1.519 . S
C1287 C308 1.538 . S
C1289 C621 1.515 . S
C1298 C655 1.517 . S
C1300 C886 1.537 . S
C1309 C689 1.518 . S
C1311 C444 1.537 . S
C1320 C1022 1.539 . S
C1322 C723 1.519 . S
C1331 C757 1.517 . S
C1333 C512 1.538 . S
C1342 C954 1.538 . S
C1344 C791 1.515 . S
C1353 C825 1.517 . S
C1355 C104 1.537 . S
C1364 C546 1.538 . S
C1366 C859 1.515 . S
C1375 C893 1.516 . S
C1377 C36 1.538 . S
C1386 C614 1.539 . S
C1388 C927 1.518 . S
C1397 C961 1.518 . S
C1399 C172 1.538 . S
C1408 C750 1.539 . S
C1410 C995 1.519 . S
C1419 C240 1.537 . S
C1421 C1029 1.516 . S
C1430 C1063 1.515 . S
C1432 C682 1.537 . S
C1441 C5 1.519 . S
C1443 C141 1.515 . S
C1452 C39 1.517 . S
C1454 C175 1.518 . S
C1463 C209 1.519 . S
C1465 C73 1.516 . S
C1474 C107 1.519 . S
C1476 C243 1.517 . S
C1485 C277 1.514 . S
C1487 C413 1.518 . S
C1496 C311 1.515 . S
C1498 C447 1.518 . S
C1507 C345 1.519 . S
C1509 C481 1.515 . S
C1518 C379 1.519 . S
C1520 C515 1.515 . S
C1529 C549 1.517 . S
C1531 C685 1.518 . S
C1540 C719 1.514 . S
C1542 C583 1.518 . S
C1551 C753 1.518 . S
C1553 C617 1.514 . S
C1562 C787 1.519 . S
C1564 C651 1.516 . S
C1573 C957 1.515 . S
C1575 C821 1.514 . S
C1584 C855 1.515 . S
C1586 C991 1.519 . S
C1595 C889 1.516 . S
C1597 C1025 1.514 . S
C1606 C1059 1.519 . S
C1608 C923 1.516 . S
C1617 C203 1.468 . S
C1619 C33 1.469 . S
C1628 C237 1.468 . S
C1630 C67 1.469 . S
C1639 C271 1.469 . S
C1641 C101 1.469 . S
C1650 C169 1.468 . S
C1652 C135 1.468 . S
C1661 C475 1.467 . S
C1663 C305 1.468 . S
C1672 C509 1.466 . S
C1674 C339 1.467 . S
C1683 C373 1.466 . S
C1685 C543 1.467 . S
C1694 C407 1.466 . S
C1696 C441 1.466 . S
C1705 C747 1.466 . S
C1707 C577 1.467 . S
C1716 C611 1.469 . S
C1718 C781 1.468 . S
C1727 C815 1.466 . S
C1729 C645 1.466 . S
C1738 C679 1.469 . S
C1740 C713 1.468 . S
C1749 C1019 1.467 . S
C1751 C849 1.466 . S
C1760 C883 1.469 . S
C1762 C1053 1.468 . S
C1771 C917 1.467 . S
C1773 C1087 1.467 . S
C1782 C985 1.469 . S
C1784 C951 1.469 . S
C1793 C836 1.413 . S
C1795 C20 1.414 . S
C1804 C54 1.416 1_545 S
C1806 C326 1.407 1_565 S
C1815 C88 1.414 . S
C1817 C904 1.413 . S
C1826 C122 1.417 1_565 S
C1828 C394 1.407 1_545 S
C1837 C156 1.415 . S
C1839 C972 1.413 . S
C1848 C462 1.406 1_565 S
C1850 C190 1.416 1_545 S
C1859 C1040 1.411 . S
C1861 C224 1.415 . S
C1870 C530 1.407 1_545 S
C1872 C258 1.416 1_565 S
C1881 C292 1.416 . S
C1883 C564 1.412 . S
C1892 C632 1.411 . S
C1894 C360 1.415 . S
C1903 C428 1.412 . S
C1905 C700 1.415 . S
C1914 C496 1.411 . S
C1916 C768 1.415 . S
C1925 C870 1.411 . S
C1927 C598 1.416 . S
C1936 C938 1.410 . S
C1938 C666 1.416 . S
C1947 C1006 1.410 . S
C1949 C734 1.417 . S
C1958 C802 1.414 . S
C1960 C1074 1.413 . S
