# Generated by pormake.
# Topology svx, (7)-cn, num edge types: 1
# Building blocks:
#     Node 0, Type 0, BuildingBlock: NUHQUE_clean_sbu_2, # of connection points: 7
#     Node 1, Type 0, BuildingBlock: NUHQUE_clean_sbu_2, # of connection points: 7
#     Node 2, Type 0, BuildingBlock: NUHQUE_clean_sbu_2, # of connection points: 7
#     Node 3, Type 0, BuildingBlock: NUHQUE_clean_sbu_2, # of connection points: 7
#     Node 4, Type 0, BuildingBlock: NUHQUE_clean_sbu_2, # of connection points: 7
#     Node 5, Type 0, BuildingBlock: NUHQUE_clean_sbu_2, # of connection points: 7
#     Node 6, Type 0, BuildingBlock: NUHQUE_clean_sbu_2, # of connection points: 7
#     Node 7, Type 0, BuildingBlock: NUHQUE_clean_sbu_2, # of connection points: 7
#     Node 8, Type 0, BuildingBlock: NUHQUE_clean_sbu_2, # of connection points: 7
#     Node 9, Type 0, BuildingBlock: NUHQUE_clean_sbu_2, # of connection points: 7
#     Node 10, Type 0, BuildingBlock: NUHQUE_clean_sbu_2, # of connection points: 7
#     Node 11, Type 0, BuildingBlock: NUHQUE_clean_sbu_2, # of connection points: 7
#     Node 12, Type 0, BuildingBlock: NUHQUE_clean_sbu_2, # of connection points: 7
#     Node 13, Type 0, BuildingBlock: NUHQUE_clean_sbu_2, # of connection points: 7
#     Node 14, Type 0, BuildingBlock: NUHQUE_clean_sbu_2, # of connection points: 7
#     Node 15, Type 0, BuildingBlock: NUHQUE_clean_sbu_2, # of connection points: 7
#     Node 16, Type 0, BuildingBlock: NUHQUE_clean_sbu_2, # of connection points: 7
#     Node 17, Type 0, BuildingBlock: NUHQUE_clean_sbu_2, # of connection points: 7
#     Node 18, Type 0, BuildingBlock: NUHQUE_clean_sbu_2, # of connection points: 7
#     Node 19, Type 0, BuildingBlock: NUHQUE_clean_sbu_2, # of connection points: 7
#     Node 20, Type 0, BuildingBlock: NUHQUE_clean_sbu_2, # of connection points: 7
#     Node 21, Type 0, BuildingBlock: NUHQUE_clean_sbu_2, # of connection points: 7
#     Node 22, Type 0, BuildingBlock: NUHQUE_clean_sbu_2, # of connection points: 7
#     Node 23, Type 0, BuildingBlock: NUHQUE_clean_sbu_2, # of connection points: 7
#     Node 24, Type 0, BuildingBlock: NUHQUE_clean_sbu_2, # of connection points: 7
#     Node 25, Type 0, BuildingBlock: NUHQUE_clean_sbu_2, # of connection points: 7
#     Node 26, Type 0, BuildingBlock: NUHQUE_clean_sbu_2, # of connection points: 7
#     Node 27, Type 0, BuildingBlock: NUHQUE_clean_sbu_2, # of connection points: 7
#     Node 28, Type 0, BuildingBlock: NUHQUE_clean_sbu_2, # of connection points: 7
#     Node 29, Type 0, BuildingBlock: NUHQUE_clean_sbu_2, # of connection points: 7
#     Node 30, Type 0, BuildingBlock: NUHQUE_clean_sbu_2, # of connection points: 7
#     Node 31, Type 0, BuildingBlock: NUHQUE_clean_sbu_2, # of connection points: 7
#     Node 32, Type 0, BuildingBlock: NUHQUE_clean_sbu_2, # of connection points: 7
#     Node 33, Type 0, BuildingBlock: NUHQUE_clean_sbu_2, # of connection points: 7
#     Node 34, Type 0, BuildingBlock: NUHQUE_clean_sbu_2, # of connection points: 7
#     Node 35, Type 0, BuildingBlock: NUHQUE_clean_sbu_2, # of connection points: 7
#     Node 36, Type 0, BuildingBlock: NUHQUE_clean_sbu_2, # of connection points: 7
#     Node 37, Type 0, BuildingBlock: NUHQUE_clean_sbu_2, # of connection points: 7
#     Node 38, Type 0, BuildingBlock: NUHQUE_clean_sbu_2, # of connection points: 7
#     Node 39, Type 0, BuildingBlock: NUHQUE_clean_sbu_2, # of connection points: 7
#     Node 40, Type 0, BuildingBlock: NUHQUE_clean_sbu_2, # of connection points: 7
#     Node 41, Type 0, BuildingBlock: NUHQUE_clean_sbu_2, # of connection points: 7
#     Node 42, Type 0, BuildingBlock: NUHQUE_clean_sbu_2, # of connection points: 7
#     Node 43, Type 0, BuildingBlock: NUHQUE_clean_sbu_2, # of connection points: 7
#     Node 44, Type 0, BuildingBlock: NUHQUE_clean_sbu_2, # of connection points: 7
#     Node 45, Type 0, BuildingBlock: NUHQUE_clean_sbu_2, # of connection points: 7
#     Node 46, Type 0, BuildingBlock: NUHQUE_clean_sbu_2, # of connection points: 7
#     Node 47, Type 0, BuildingBlock: NUHQUE_clean_sbu_2, # of connection points: 7
#     Edge 48, Type (0, 0), BuildingBlock: XIVTED_clean_linker_0, # of connection points: 2
#     Edge 49, Type (0, 0), BuildingBlock: XIVTED_clean_linker_0, # of connection points: 2
#     Edge 50, Type (0, 0), BuildingBlock: XIVTED_clean_linker_0, # of connection points: 2
#     Edge 51, Type (0, 0), BuildingBlock: XIVTED_clean_linker_0, # of connection points: 2
#     Edge 52, Type (0, 0), BuildingBlock: XIVTED_clean_linker_0, # of connection points: 2
#     Edge 53, Type (0, 0), BuildingBlock: XIVTED_clean_linker_0, # of connection points: 2
#     Edge 54, Type (0, 0), BuildingBlock: XIVTED_clean_linker_0, # of connection points: 2
#     Edge 55, Type (0, 0), BuildingBlock: XIVTED_clean_linker_0, # of connection points: 2
#     Edge 56, Type (0, 0), BuildingBlock: XIVTED_clean_linker_0, # of connection points: 2
#     Edge 57, Type (0, 0), BuildingBlock: XIVTED_clean_linker_0, # of connection points: 2
#     Edge 58, Type (0, 0), BuildingBlock: XIVTED_clean_linker_0, # of connection points: 2
#     Edge 59, Type (0, 0), BuildingBlock: XIVTED_clean_linker_0, # of connection points: 2
#     Edge 60, Type (0, 0), BuildingBlock: XIVTED_clean_linker_0, # of connection points: 2
#     Edge 61, Type (0, 0), BuildingBlock: XIVTED_clean_linker_0, # of connection points: 2
#     Edge 62, Type (0, 0), BuildingBlock: XIVTED_clean_linker_0, # of connection points: 2
#     Edge 63, Type (0, 0), BuildingBlock: XIVTED_clean_linker_0, # of connection points: 2
#     Edge 64, Type (0, 0), BuildingBlock: XIVTED_clean_linker_0, # of connection points: 2
#     Edge 65, Type (0, 0), BuildingBlock: XIVTED_clean_linker_0, # of connection points: 2
#     Edge 66, Type (0, 0), BuildingBlock: XIVTED_clean_linker_0, # of connection points: 2
#     Edge 67, Type (0, 0), BuildingBlock: XIVTED_clean_linker_0, # of connection points: 2
#     Edge 68, Type (0, 0), BuildingBlock: XIVTED_clean_linker_0, # of connection points: 2
#     Edge 69, Type (0, 0), BuildingBlock: XIVTED_clean_linker_0, # of connection points: 2
#     Edge 70, Type (0, 0), BuildingBlock: XIVTED_clean_linker_0, # of connection points: 2
#     Edge 71, Type (0, 0), BuildingBlock: XIVTED_clean_linker_0, # of connection points: 2
#     Edge 72, Type (0, 0), BuildingBlock: XIVTED_clean_linker_0, # of connection points: 2
#     Edge 73, Type (0, 0), BuildingBlock: XIVTED_clean_linker_0, # of connection points: 2
#     Edge 74, Type (0, 0), BuildingBlock: XIVTED_clean_linker_0, # of connection points: 2
#     Edge 75, Type (0, 0), BuildingBlock: XIVTED_clean_linker_0, # of connection points: 2
#     Edge 76, Type (0, 0), BuildingBlock: XIVTED_clean_linker_0, # of connection points: 2
#     Edge 77, Type (0, 0), BuildingBlock: XIVTED_clean_linker_0, # of connection points: 2
#     Edge 78, Type (0, 0), BuildingBlock: XIVTED_clean_linker_0, # of connection points: 2
#     Edge 79, Type (0, 0), BuildingBlock: XIVTED_clean_linker_0, # of connection points: 2
#     Edge 80, Type (0, 0), BuildingBlock: XIVTED_clean_linker_0, # of connection points: 2
#     Edge 81, Type (0, 0), BuildingBlock: XIVTED_clean_linker_0, # of connection points: 2
#     Edge 82, Type (0, 0), BuildingBlock: XIVTED_clean_linker_0, # of connection points: 2
#     Edge 83, Type (0, 0), BuildingBlock: XIVTED_clean_linker_0, # of connection points: 2
#     Edge 84, Type (0, 0), BuildingBlock: XIVTED_clean_linker_0, # of connection points: 2
#     Edge 85, Type (0, 0), BuildingBlock: XIVTED_clean_linker_0, # of connection points: 2
#     Edge 86, Type (0, 0), BuildingBlock: XIVTED_clean_linker_0, # of connection points: 2
#     Edge 87, Type (0, 0), BuildingBlock: XIVTED_clean_linker_0, # of connection points: 2
#     Edge 88, Type (0, 0), BuildingBlock: XIVTED_clean_linker_0, # of connection points: 2
#     Edge 89, Type (0, 0), BuildingBlock: XIVTED_clean_linker_0, # of connection points: 2
#     Edge 90, Type (0, 0), BuildingBlock: XIVTED_clean_linker_0, # of connection points: 2
#     Edge 91, Type (0, 0), BuildingBlock: XIVTED_clean_linker_0, # of connection points: 2
#     Edge 92, Type (0, 0), BuildingBlock: XIVTED_clean_linker_0, # of connection points: 2
#     Edge 93, Type (0, 0), BuildingBlock: XIVTED_clean_linker_0, # of connection points: 2
#     Edge 94, Type (0, 0), BuildingBlock: XIVTED_clean_linker_0, # of connection points: 2
#     Edge 95, Type (0, 0), BuildingBlock: XIVTED_clean_linker_0, # of connection points: 2
#     Edge 96, Type (0, 0), BuildingBlock: XIVTED_clean_linker_0, # of connection points: 2
#     Edge 97, Type (0, 0), BuildingBlock: XIVTED_clean_linker_0, # of connection points: 2
#     Edge 98, Type (0, 0), BuildingBlock: XIVTED_clean_linker_0, # of connection points: 2
#     Edge 99, Type (0, 0), BuildingBlock: XIVTED_clean_linker_0, # of connection points: 2
#     Edge 100, Type (0, 0), BuildingBlock: XIVTED_clean_linker_0, # of connection points: 2
#     Edge 101, Type (0, 0), BuildingBlock: XIVTED_clean_linker_0, # of connection points: 2
#     Edge 102, Type (0, 0), BuildingBlock: XIVTED_clean_linker_0, # of connection points: 2
#     Edge 103, Type (0, 0), BuildingBlock: XIVTED_clean_linker_0, # of connection points: 2
#     Edge 104, Type (0, 0), BuildingBlock: XIVTED_clean_linker_0, # of connection points: 2
#     Edge 105, Type (0, 0), BuildingBlock: XIVTED_clean_linker_0, # of connection points: 2
#     Edge 106, Type (0, 0), BuildingBlock: XIVTED_clean_linker_0, # of connection points: 2
#     Edge 107, Type (0, 0), BuildingBlock: XIVTED_clean_linker_0, # of connection points: 2
#     Edge 108, Type (0, 0), BuildingBlock: XIVTED_clean_linker_0, # of connection points: 2
#     Edge 109, Type (0, 0), BuildingBlock: XIVTED_clean_linker_0, # of connection points: 2
#     Edge 110, Type (0, 0), BuildingBlock: XIVTED_clean_linker_0, # of connection points: 2
#     Edge 111, Type (0, 0), BuildingBlock: XIVTED_clean_linker_0, # of connection points: 2
#     Edge 112, Type (0, 0), BuildingBlock: XIVTED_clean_linker_0, # of connection points: 2
#     Edge 113, Type (0, 0), BuildingBlock: XIVTED_clean_linker_0, # of connection points: 2
#     Edge 114, Type (0, 0), BuildingBlock: XIVTED_clean_linker_0, # of connection points: 2
#     Edge 115, Type (0, 0), BuildingBlock: XIVTED_clean_linker_0, # of connection points: 2
#     Edge 116, Type (0, 0), BuildingBlock: XIVTED_clean_linker_0, # of connection points: 2
#     Edge 117, Type (0, 0), BuildingBlock: XIVTED_clean_linker_0, # of connection points: 2
#     Edge 118, Type (0, 0), BuildingBlock: XIVTED_clean_linker_0, # of connection points: 2
#     Edge 119, Type (0, 0), BuildingBlock: XIVTED_clean_linker_0, # of connection points: 2
#     Edge 120, Type (0, 0), BuildingBlock: XIVTED_clean_linker_0, # of connection points: 2
#     Edge 121, Type (0, 0), BuildingBlock: XIVTED_clean_linker_0, # of connection points: 2
#     Edge 122, Type (0, 0), BuildingBlock: XIVTED_clean_linker_0, # of connection points: 2
#     Edge 123, Type (0, 0), BuildingBlock: XIVTED_clean_linker_0, # of connection points: 2
#     Edge 124, Type (0, 0), BuildingBlock: XIVTED_clean_linker_0, # of connection points: 2
#     Edge 125, Type (0, 0), BuildingBlock: XIVTED_clean_linker_0, # of connection points: 2
#     Edge 126, Type (0, 0), BuildingBlock: XIVTED_clean_linker_0, # of connection points: 2
#     Edge 127, Type (0, 0), BuildingBlock: XIVTED_clean_linker_0, # of connection points: 2
#     Edge 128, Type (0, 0), BuildingBlock: XIVTED_clean_linker_0, # of connection points: 2
#     Edge 129, Type (0, 0), BuildingBlock: XIVTED_clean_linker_0, # of connection points: 2
#     Edge 130, Type (0, 0), BuildingBlock: XIVTED_clean_linker_0, # of connection points: 2
#     Edge 131, Type (0, 0), BuildingBlock: XIVTED_clean_linker_0, # of connection points: 2
#     Edge 132, Type (0, 0), BuildingBlock: XIVTED_clean_linker_0, # of connection points: 2
#     Edge 133, Type (0, 0), BuildingBlock: XIVTED_clean_linker_0, # of connection points: 2
#     Edge 134, Type (0, 0), BuildingBlock: XIVTED_clean_linker_0, # of connection points: 2
#     Edge 135, Type (0, 0), BuildingBlock: XIVTED_clean_linker_0, # of connection points: 2
#     Edge 136, Type (0, 0), BuildingBlock: XIVTED_clean_linker_0, # of connection points: 2
#     Edge 137, Type (0, 0), BuildingBlock: XIVTED_clean_linker_0, # of connection points: 2
#     Edge 138, Type (0, 0), BuildingBlock: XIVTED_clean_linker_0, # of connection points: 2
#     Edge 139, Type (0, 0), BuildingBlock: XIVTED_clean_linker_0, # of connection points: 2
#     Edge 140, Type (0, 0), BuildingBlock: XIVTED_clean_linker_0, # of connection points: 2
#     Edge 141, Type (0, 0), BuildingBlock: XIVTED_clean_linker_0, # of connection points: 2
#     Edge 142, Type (0, 0), BuildingBlock: XIVTED_clean_linker_0, # of connection points: 2
#     Edge 143, Type (0, 0), BuildingBlock: XIVTED_clean_linker_0, # of connection points: 2
#     Edge 144, Type (0, 0), BuildingBlock: XIVTED_clean_linker_0, # of connection points: 2
#     Edge 145, Type (0, 0), BuildingBlock: XIVTED_clean_linker_0, # of connection points: 2
#     Edge 146, Type (0, 0), BuildingBlock: XIVTED_clean_linker_0, # of connection points: 2
#     Edge 147, Type (0, 0), BuildingBlock: XIVTED_clean_linker_0, # of connection points: 2
#     Edge 148, Type (0, 0), BuildingBlock: XIVTED_clean_linker_0, # of connection points: 2
#     Edge 149, Type (0, 0), BuildingBlock: XIVTED_clean_linker_0, # of connection points: 2
#     Edge 150, Type (0, 0), BuildingBlock: XIVTED_clean_linker_0, # of connection points: 2
#     Edge 151, Type (0, 0), BuildingBlock: XIVTED_clean_linker_0, # of connection points: 2
#     Edge 152, Type (0, 0), BuildingBlock: XIVTED_clean_linker_0, # of connection points: 2
#     Edge 153, Type (0, 0), BuildingBlock: XIVTED_clean_linker_0, # of connection points: 2
#     Edge 154, Type (0, 0), BuildingBlock: XIVTED_clean_linker_0, # of connection points: 2
#     Edge 155, Type (0, 0), BuildingBlock: XIVTED_clean_linker_0, # of connection points: 2
#     Edge 156, Type (0, 0), BuildingBlock: XIVTED_clean_linker_0, # of connection points: 2
#     Edge 157, Type (0, 0), BuildingBlock: XIVTED_clean_linker_0, # of connection points: 2
#     Edge 158, Type (0, 0), BuildingBlock: XIVTED_clean_linker_0, # of connection points: 2
#     Edge 159, Type (0, 0), BuildingBlock: XIVTED_clean_linker_0, # of connection points: 2
#     Edge 160, Type (0, 0), BuildingBlock: XIVTED_clean_linker_0, # of connection points: 2
#     Edge 161, Type (0, 0), BuildingBlock: XIVTED_clean_linker_0, # of connection points: 2
#     Edge 162, Type (0, 0), BuildingBlock: XIVTED_clean_linker_0, # of connection points: 2
#     Edge 163, Type (0, 0), BuildingBlock: XIVTED_clean_linker_0, # of connection points: 2
#     Edge 164, Type (0, 0), BuildingBlock: XIVTED_clean_linker_0, # of connection points: 2
#     Edge 165, Type (0, 0), BuildingBlock: XIVTED_clean_linker_0, # of connection points: 2
#     Edge 166, Type (0, 0), BuildingBlock: XIVTED_clean_linker_0, # of connection points: 2
#     Edge 167, Type (0, 0), BuildingBlock: XIVTED_clean_linker_0, # of connection points: 2
#     Edge 168, Type (0, 0), BuildingBlock: XIVTED_clean_linker_0, # of connection points: 2
#     Edge 169, Type (0, 0), BuildingBlock: XIVTED_clean_linker_0, # of connection points: 2
#     Edge 170, Type (0, 0), BuildingBlock: XIVTED_clean_linker_0, # of connection points: 2
#     Edge 171, Type (0, 0), BuildingBlock: XIVTED_clean_linker_0, # of connection points: 2
#     Edge 172, Type (0, 0), BuildingBlock: XIVTED_clean_linker_0, # of connection points: 2
#     Edge 173, Type (0, 0), BuildingBlock: XIVTED_clean_linker_0, # of connection points: 2
#     Edge 174, Type (0, 0), BuildingBlock: XIVTED_clean_linker_0, # of connection points: 2
#     Edge 175, Type (0, 0), BuildingBlock: XIVTED_clean_linker_0, # of connection points: 2
#     Edge 176, Type (0, 0), BuildingBlock: XIVTED_clean_linker_0, # of connection points: 2
#     Edge 177, Type (0, 0), BuildingBlock: XIVTED_clean_linker_0, # of connection points: 2
#     Edge 178, Type (0, 0), BuildingBlock: XIVTED_clean_linker_0, # of connection points: 2
#     Edge 179, Type (0, 0), BuildingBlock: XIVTED_clean_linker_0, # of connection points: 2
#     Edge 180, Type (0, 0), BuildingBlock: XIVTED_clean_linker_0, # of connection points: 2
#     Edge 181, Type (0, 0), BuildingBlock: XIVTED_clean_linker_0, # of connection points: 2
#     Edge 182, Type (0, 0), BuildingBlock: XIVTED_clean_linker_0, # of connection points: 2
#     Edge 183, Type (0, 0), BuildingBlock: XIVTED_clean_linker_0, # of connection points: 2
#     Edge 184, Type (0, 0), BuildingBlock: XIVTED_clean_linker_0, # of connection points: 2
#     Edge 185, Type (0, 0), BuildingBlock: XIVTED_clean_linker_0, # of connection points: 2
#     Edge 186, Type (0, 0), BuildingBlock: XIVTED_clean_linker_0, # of connection points: 2
#     Edge 187, Type (0, 0), BuildingBlock: XIVTED_clean_linker_0, # of connection points: 2
#     Edge 188, Type (0, 0), BuildingBlock: XIVTED_clean_linker_0, # of connection points: 2
#     Edge 189, Type (0, 0), BuildingBlock: XIVTED_clean_linker_0, # of connection points: 2
#     Edge 190, Type (0, 0), BuildingBlock: XIVTED_clean_linker_0, # of connection points: 2
#     Edge 191, Type (0, 0), BuildingBlock: XIVTED_clean_linker_0, # of connection points: 2
#     Edge 192, Type (0, 0), BuildingBlock: XIVTED_clean_linker_0, # of connection points: 2
#     Edge 193, Type (0, 0), BuildingBlock: XIVTED_clean_linker_0, # of connection points: 2
#     Edge 194, Type (0, 0), BuildingBlock: XIVTED_clean_linker_0, # of connection points: 2
#     Edge 195, Type (0, 0), BuildingBlock: XIVTED_clean_linker_0, # of connection points: 2
#     Edge 196, Type (0, 0), BuildingBlock: XIVTED_clean_linker_0, # of connection points: 2
#     Edge 197, Type (0, 0), BuildingBlock: XIVTED_clean_linker_0, # of connection points: 2
#     Edge 198, Type (0, 0), BuildingBlock: XIVTED_clean_linker_0, # of connection points: 2
#     Edge 199, Type (0, 0), BuildingBlock: XIVTED_clean_linker_0, # of connection points: 2
#     Edge 200, Type (0, 0), BuildingBlock: XIVTED_clean_linker_0, # of connection points: 2
#     Edge 201, Type (0, 0), BuildingBlock: XIVTED_clean_linker_0, # of connection points: 2
#     Edge 202, Type (0, 0), BuildingBlock: XIVTED_clean_linker_0, # of connection points: 2
#     Edge 203, Type (0, 0), BuildingBlock: XIVTED_clean_linker_0, # of connection points: 2
#     Edge 204, Type (0, 0), BuildingBlock: XIVTED_clean_linker_0, # of connection points: 2
#     Edge 205, Type (0, 0), BuildingBlock: XIVTED_clean_linker_0, # of connection points: 2
#     Edge 206, Type (0, 0), BuildingBlock: XIVTED_clean_linker_0, # of connection points: 2
#     Edge 207, Type (0, 0), BuildingBlock: XIVTED_clean_linker_0, # of connection points: 2
#     Edge 208, Type (0, 0), BuildingBlock: XIVTED_clean_linker_0, # of connection points: 2
#     Edge 209, Type (0, 0), BuildingBlock: XIVTED_clean_linker_0, # of connection points: 2
#     Edge 210, Type (0, 0), BuildingBlock: XIVTED_clean_linker_0, # of connection points: 2
#     Edge 211, Type (0, 0), BuildingBlock: XIVTED_clean_linker_0, # of connection points: 2
#     Edge 212, Type (0, 0), BuildingBlock: XIVTED_clean_linker_0, # of connection points: 2
#     Edge 213, Type (0, 0), BuildingBlock: XIVTED_clean_linker_0, # of connection points: 2
#     Edge 214, Type (0, 0), BuildingBlock: XIVTED_clean_linker_0, # of connection points: 2
#     Edge 215, Type (0, 0), BuildingBlock: XIVTED_clean_linker_0, # of connection points: 2
# Relax obj value: 0.282
# Max RMSD: 0.249
# Mean RMSD: 0.249
data_MOF--net-svx--node1-NUHQUE_clean_sbu_2--edge1-XIVTED_clean_linker_0
_symmetry_space_group_name_H-M    P1
_symmetry_Int_Tables_number       1
_symmetry_cell_setting            triclinic
loop_
_symmetry_equiv_pos_as_xyz
'x, y, z'
_cell_length_a     66.310688
_cell_length_b     66.278059
_cell_length_c     66.340768
_cell_angle_alpha  89.984297
_cell_angle_beta   89.957246
_cell_angle_gamma 89.965226
loop_
_atom_site_label
_atom_site_type_symbol
_atom_site_fract_x
_atom_site_fract_y
_atom_site_fract_z
_atom_type_partial_charge
O0 O 0.12721 0.32437 0.34027 0.0
Tb1 Tb 0.10931 0.34621 0.32397 0.0
Eu2 Eu 0.11029 0.36248 0.27706 0.0
C3 C 0.12812 0.30526 0.33522 0.0
O4 O 0.11992 0.29923 0.31826 0.0
C5 C 0.07852 0.32981 0.29075 0.0
O6 O 0.11364 0.38394 0.25053 0.0
C7 C 0.13824 0.335 0.27498 0.0
C8 C 0.12969 0.39575 0.25031 0.0
O9 O 0.14259 0.39428 0.26527 0.0
C10 C 0.12986 0.38561 0.31373 0.0
C11 C 0.15987 0.3301 0.2765 0.0
C12 C 0.16593 0.31643 0.29154 0.0
C13 C 0.18596 0.30998 0.29284 0.0
C14 C 0.20006 0.31742 0.27901 0.0
C15 C 0.19423 0.33061 0.26354 0.0
C16 C 0.17406 0.33696 0.26226 0.0
O17 O 0.09202 0.32565 0.30478 0.0
O18 O 0.08025 0.34603 0.27916 0.0
O19 O 0.09864 0.3478 0.35474 0.0
O20 O 0.0856 0.36755 0.33298 0.0
C21 C 0.08574 0.36223 0.35191 0.0
O22 O 0.11676 0.38805 0.29907 0.0
O23 O 0.13397 0.36728 0.3197 0.0
O24 O 0.13158 0.34485 0.25913 0.0
O25 O 0.12904 0.33997 0.29172 0.0
H26 H 0.15494 0.31037 0.30196 0.0
H27 H 0.21542 0.31178 0.27941 0.0
H28 H 0.16945 0.3468 0.25005 0.0
O29 O 0.57419 0.67213 0.96105 0.0
Tb30 Tb 0.59612 0.69023 0.97698 0.0
Eu31 Eu 0.61257 0.68973 1.02408 0.0
C32 C 0.55503 0.67171 0.96592 0.0
O33 O 0.54899 0.68039 0.98266 0.0
C34 C 0.58003 0.7215 1.00997 0.0
O35 O 0.6339 0.68664 0.05074 0.0
C36 C 0.58503 0.66188 0.02633 0.0
C37 C 0.6458 0.67065 0.05121 0.0
O38 O 0.6446 0.65762 0.03633 0.0
C39 C 0.63563 0.66994 0.98742 0.0
C40 C 0.58006 0.64027 1.02481 0.0
C41 C 0.56647 0.63426 1.00969 0.0
C42 C 0.56013 0.61421 1.00825 0.0
C43 C 0.5675 0.60006 1.02205 0.0
C44 C 0.58052 0.60585 0.03765 0.0
C45 C 0.58682 0.62603 0.03905 0.0
O46 O 0.57575 0.70782 0.99614 0.0
O47 O 0.5962 0.71981 1.02161 0.0
O48 O 0.59744 0.70029 0.94599 0.0
O49 O 0.61715 0.71398 0.96735 0.0
C50 C 0.61171 0.7134 0.94846 0.0
O51 O 0.63808 0.68308 1.00204 0.0
O52 O 0.61731 0.66571 0.98156 0.0
O53 O 0.59497 0.66851 0.04212 0.0
O54 O 0.58997 0.67105 1.00956 0.0
H55 H 0.56043 0.64528 0.99929 0.0
H56 H 0.56193 0.58467 1.02148 0.0
H57 H 0.59656 0.63061 0.05133 0.0
O58 O 0.92582 0.2241 0.34248 0.0
Tb59 Tb 0.94277 0.20349 0.32378 0.0
Eu60 Eu 0.94012 0.18785 0.27671 0.0
C61 C 0.92264 0.24297 0.33745 0.0
O62 O 0.92863 0.24951 0.31975 0.0
C63 C 0.97132 0.22099 0.29004 0.0
O64 O 0.93635 0.16642 0.25021 0.0
C65 C 0.91205 0.21523 0.27524 0.0
C66 C 0.92011 0.15487 0.25 0.0
O67 O 0.90721 0.15657 0.26495 0.0
C68 C 0.92137 0.16434 0.31389 0.0
C69 C 0.89045 0.22033 0.27635 0.0
C70 C 0.88427 0.23398 0.29136 0.0
C71 C 0.8643 0.24065 0.29237 0.0
C72 C 0.85035 0.2334 0.27832 0.0
C73 C 0.85628 0.22019 0.26291 0.0
C74 C 0.87643 0.21367 0.26186 0.0
O75 O 0.95722 0.22503 0.30347 0.0
O76 O 0.97014 0.20452 0.27876 0.0
O77 O 0.95716 0.2012 0.35298 0.0
O78 O 0.96741 0.18203 0.32928 0.0
C79 C 0.96968 0.18693 0.34819 0.0
O80 O 0.9338 0.16207 0.29858 0.0
O81 O 0.91791 0.1825 0.32074 0.0
O82 O 0.91916 0.20617 0.2591 0.0
O83 O 0.92071 0.20939 0.29199 0.0
H84 H 0.89513 0.23983 0.30202 0.0
H85 H 0.83503 0.23916 0.27855 0.0
H86 H 0.88114 0.20381 0.2497 0.0
O87 O 0.47741 0.87842 0.96121 0.0
Tb88 Tb 0.45548 0.86011 0.97692 0.0
Eu89 Eu 0.43886 0.86084 1.02401 0.0
C90 C 0.49649 0.87913 0.96635 0.0
O91 O 0.5024 0.87053 0.98317 0.0
C92 C 0.47152 0.82908 1.01017 0.0
O93 O 0.41731 0.86434 0.05049 0.0
C94 C 0.46631 0.88878 0.02611 0.0
C95 C 0.40537 0.88031 0.05054 0.0
O96 O 0.40669 0.89305 0.03542 0.0
C97 C 0.41587 0.88039 0.98722 0.0
C98 C 0.47107 0.91044 1.02459 0.0
C99 C 0.48474 0.91657 1.00957 0.0
C100 C 0.49083 0.93669 1.00807 0.0
C101 C 0.48312 0.95081 1.02171 0.0
C102 C 0.47002 0.94491 0.03722 0.0
C103 C 0.46398 0.92465 0.0387 0.0
O104 O 0.47579 0.84276 0.99633 0.0
O105 O 0.45529 0.83075 1.02175 0.0
O106 O 0.45475 0.84991 0.94596 0.0
O107 O 0.43456 0.83638 0.96701 0.0
C108 C 0.44038 0.83686 0.94822 0.0
O109 O 0.41343 0.86728 1.00188 0.0
O110 O 0.43417 0.88457 0.98125 0.0
O111 O 0.45651 0.88206 0.04197 0.0
O112 O 0.46133 0.87963 1.00937 0.0
H113 H 0.49103 0.90558 0.99928 0.0
H114 H 0.48845 0.96628 1.02111 0.0
H115 H 0.45416 0.92002 0.05091 0.0
O116 O 0.12867 0.72618 0.21077 0.0
Tb117 Tb 0.11026 0.70431 0.2265 0.0
Eu118 Eu 0.11025 0.68773 0.27354 0.0
C119 C 0.12882 0.7454 0.21548 0.0
O120 O 0.1196 0.7515 0.2319 0.0
C121 C 0.07887 0.72043 0.25931 0.0
O122 O 0.11361 0.66644 0.30022 0.0
C123 C 0.13763 0.71566 0.27587 0.0
C124 C 0.12971 0.65469 0.30068 0.0
O125 O 0.14268 0.65594 0.28574 0.0
C126 C 0.13012 0.66444 0.23691 0.0
C127 C 0.15891 0.7219 0.27526 0.0
C128 C 0.16445 0.73648 0.26091 0.0
C129 C 0.18384 0.74458 0.2608 0.0
C130 C 0.19797 0.73788 0.27486 0.0
C131 C 0.19269 0.72353 0.28947 0.0
C132 C 0.17306 0.71558 0.28978 0.0
O133 O 0.09293 0.72472 0.24587 0.0
O134 O 0.08017 0.70405 0.27073 0.0
O135 O 0.10009 0.70345 0.19556 0.0
O136 O 0.08639 0.68352 0.21676 0.0
C137 C 0.08693 0.68918 0.19793 0.0
O138 O 0.11699 0.66217 0.25159 0.0
O139 O 0.13446 0.68269 0.23084 0.0
O140 O 0.13061 0.70609 0.29175 0.0
O141 O 0.12947 0.70984 0.25889 0.0
H142 H 0.15343 0.74219 0.25033 0.0
H143 H 0.21287 0.74465 0.27509 0.0
H144 H 0.1688 0.70493 0.30143 0.0
O145 O 0.97664 0.6722 0.08973 0.0
Tb146 Tb 0.955 0.69057 0.0737 0.0
Eu147 Eu 0.93894 0.68953 0.0266 0.0
C148 C 0.99577 0.67143 0.08478 0.0
O149 O 1.00189 0.68009 0.06805 0.0
C150 C 0.97126 0.72147 0.04054 0.0
O151 O 0.91742 0.68571 1.00016 0.0
C152 C 0.96666 0.66178 1.02497 0.0
C153 C 0.90571 0.66959 1.0001 0.0
O154 O 0.90734 0.65675 1.01512 0.0
C155 C 0.91537 0.67043 0.06342 0.0
C156 C 0.97172 0.64017 0.02632 0.0
C157 C 0.98561 0.63412 0.04116 0.0
C158 C 0.99185 0.61402 0.04256 0.0
C159 C 0.98409 0.59988 0.02898 0.0
C160 C 0.97079 0.60573 1.01363 0.0
C161 C 0.96458 0.62595 1.01226 0.0
O162 O 0.97552 0.70778 0.05436 0.0
O163 O 0.95512 0.71973 0.02886 0.0
O164 O 0.95404 0.70141 0.10443 0.0
O165 O 0.93383 0.71431 0.08301 0.0
C166 C 0.93954 0.71428 0.10182 0.0
O167 O 0.91321 0.68333 0.04852 0.0
O168 O 0.93357 0.66619 0.06964 0.0
O169 O 0.95726 0.66862 1.00892 0.0
O170 O 0.96104 0.67064 0.04169 0.0
H171 H 0.9919 0.64512 0.0514 0.0
H172 H 0.98952 0.58443 0.0295 0.0
H173 H 0.95459 0.63054 1.00019 0.0
O174 O 0.92242 0.82371 0.21004 0.0
Tb175 Tb 0.94058 0.84573 0.22574 0.0
Eu176 Eu 0.94004 0.86211 0.27265 0.0
C177 C 0.9216 0.80467 0.21534 0.0
O178 O 0.93011 0.79883 0.23222 0.0
C179 C 0.9719 0.82958 0.25869 0.0
O180 O 0.93662 0.88378 0.29899 0.0
C181 C 0.91213 0.83465 0.27493 0.0
C182 C 0.92048 0.89548 0.29915 0.0
O183 O 0.90752 0.89377 0.28428 0.0
C184 C 0.92033 0.88526 0.23607 0.0
C185 C 0.89047 0.82986 0.27356 0.0
C186 C 0.88423 0.81627 0.25853 0.0
C187 C 0.86413 0.81008 0.25727 0.0
C188 C 0.85015 0.81761 0.27115 0.0
C189 C 0.85616 0.83065 0.28668 0.0
C190 C 0.8764 0.8368 0.28789 0.0
O191 O 0.95837 0.82535 0.2447 0.0
O192 O 0.97011 0.84571 0.27038 0.0
O193 O 0.96417 0.86689 0.21608 0.0
O194 O 0.95056 0.8471 0.19473 0.0
C195 C 0.96358 0.86148 0.19719 0.0
O196 O 0.93357 0.88765 0.2506 0.0
O197 O 0.91606 0.86694 0.23022 0.0
O198 O 0.91893 0.84446 0.29074 0.0
O199 O 0.92121 0.83962 0.25813 0.0
H200 H 0.89511 0.8101 0.24807 0.0
H201 H 0.83473 0.81215 0.27075 0.0
H202 H 0.88114 0.84655 0.30011 0.0
O203 O 0.07408 0.87869 0.08941 0.0
Tb204 Tb 0.09587 0.8602 0.07369 0.0
Eu205 Eu 0.11241 0.86079 0.02679 0.0
C206 C 0.05497 0.87941 0.08437 0.0
O207 O 0.04895 0.87066 0.06768 0.0
C208 C 0.07962 0.82918 0.04058 0.0
O209 O 0.13388 0.86405 1.00025 0.0
C210 C 0.08502 0.88883 1.02463 0.0
C211 C 0.1456 0.88016 0.99987 0.0
O212 O 0.14412 0.89317 1.01474 0.0
C213 C 0.13564 0.8802 0.06352 0.0
C214 C 0.08007 0.91046 0.02605 0.0
C215 C 0.06645 0.91655 0.04113 0.0
C216 C 0.06008 0.93661 0.04248 0.0
C217 C 0.06746 0.9507 0.02864 0.0
C218 C 0.08052 0.94483 1.01306 0.0
C219 C 0.08684 0.92464 1.01174 0.0
O220 O 0.07541 0.84289 0.05441 0.0
O221 O 0.09588 0.83077 0.02904 0.0
O222 O 0.09666 0.8499 0.10461 0.0
O223 O 0.11675 0.83637 0.08345 0.0
C224 C 0.111 0.83681 0.10226 0.0
O225 O 0.13799 0.86713 0.04881 0.0
O226 O 0.11735 0.88452 0.06945 0.0
O227 O 0.09483 0.88206 1.00878 0.0
O228 O 0.09004 0.87973 0.0414 0.0
H229 H 0.06038 0.90559 0.05156 0.0
H230 H 0.06188 0.96609 0.02913 0.0
H231 H 0.0966 0.92 0.99948 0.0
O232 O 0.3393 0.12778 0.32401 0.0
Tb233 Tb 0.32331 0.10972 0.34595 0.0
Eu234 Eu 0.27618 0.11124 0.36208 0.0
C235 C 0.33419 0.12847 0.30494 0.0
O236 O 0.31722 0.12014 0.29909 0.0
C237 C 0.28983 0.07899 0.32982 0.0
O238 O 0.2496 0.1149 0.38345 0.0
C239 C 0.27455 0.13905 0.33445 0.0
C240 C 0.24942 0.13097 0.39523 0.0
O241 O 0.26444 0.14381 0.3938 0.0
C242 C 0.31308 0.13016 0.3855 0.0
C243 C 0.27592 0.16067 0.32944 0.0
C244 C 0.29071 0.16673 0.31547 0.0
C245 C 0.29191 0.1868 0.30904 0.0
C246 C 0.27823 0.20089 0.31678 0.0
C247 C 0.26301 0.19504 0.33024 0.0
C248 C 0.26181 0.17487 0.33658 0.0
O249 O 0.3041 0.09223 0.32557 0.0
O250 O 0.27812 0.08106 0.34589 0.0
O251 O 0.35416 0.09916 0.34708 0.0
O252 O 0.33266 0.08587 0.36697 0.0
C253 C 0.35154 0.08611 0.36141 0.0
O254 O 0.29809 0.1174 0.38777 0.0
O255 O 0.31932 0.13424 0.36726 0.0
O256 O 0.25853 0.1323 0.34398 0.0
O257 O 0.29127 0.13003 0.33985 0.0
H258 H 0.30102 0.15573 0.30922 0.0
H259 H 0.27855 0.21629 0.31123 0.0
H260 H 0.2498 0.17027 0.34666 0.0
O261 O 0.37836 0.45836 0.97327 0.0
Tb262 Tb 0.3601 0.47699 0.95377 0.0
Eu263 Eu 0.36106 0.52401 0.93829 0.0
C264 C 0.38051 0.46167 0.99261 0.0
O265 O 0.37281 0.47805 1.00068 0.0
C266 C 0.33044 0.50982 0.97176 0.0
O267 O 0.36432 0.55075 0.91702 0.0
C268 C 0.38923 0.52564 0.96549 0.0
C269 C 0.38037 0.55115 0.9052 0.0
O270 O 0.39339 0.53625 0.90656 0.0
C271 C 0.38022 0.48758 0.91425 0.0
C272 C 0.4108 0.52438 0.97058 0.0
C273 C 0.41684 0.50929 0.98423 0.0
C274 C 0.43685 0.50802 0.99069 0.0
C275 C 0.45092 0.52192 0.98337 0.0
C276 C 0.44509 0.53748 0.97027 0.0
C277 C 0.42494 0.53874 0.96387 0.0
O278 O 0.34466 0.49638 0.97558 0.0
O279 O 0.33133 0.52123 0.95533 0.0
O280 O 0.34744 0.44706 0.95151 0.0
O281 O 0.33555 0.47025 0.93261 0.0
C282 C 0.33457 0.45119 0.9374 0.0
O283 O 0.36722 0.50242 0.91227 0.0
O284 O 0.38446 0.48115 0.93237 0.0
O285 O 0.38222 0.54174 0.95627 0.0
O286 O 0.38048 0.50889 0.95985 0.0
H287 H 0.40587 0.49878 0.99019 0.0
H288 H 0.46628 0.52146 0.98901 0.0
H289 H 0.42031 0.55096 0.95405 0.0
O290 O 0.71029 0.42242 0.32436 0.0
Tb291 Tb 0.72708 0.44037 0.34575 0.0
Eu292 Eu 0.77383 0.43968 0.36216 0.0
C293 C 0.71518 0.42114 0.30524 0.0
O294 O 0.73218 0.42909 0.29894 0.0
C295 C 0.76024 0.47078 0.32902 0.0
O296 O 0.80016 0.43622 0.38378 0.0
C297 C 0.77589 0.41154 0.33491 0.0
C298 C 0.80034 0.42 0.39535 0.0
O299 O 0.78547 0.40703 0.39355 0.0
C300 C 0.73701 0.42045 0.38558 0.0
C301 C 0.77458 0.38991 0.33003 0.0
C302 C 0.75958 0.38378 0.31637 0.0
C303 C 0.75824 0.3637 0.31012 0.0
C304 C 0.772 0.34962 0.31769 0.0
C305 C 0.78747 0.35553 0.33081 0.0
C306 C 0.78881 0.37575 0.33699 0.0
O307 O 0.74678 0.45669 0.32488 0.0
O308 O 0.77152 0.46961 0.34547 0.0
O309 O 0.6966 0.45187 0.34731 0.0
O310 O 0.71887 0.46482 0.36654 0.0
C311 C 0.69989 0.46504 0.36137 0.0
O312 O 0.75177 0.4335 0.38776 0.0
O313 O 0.73089 0.4161 0.36738 0.0
O314 O 0.79182 0.41848 0.34443 0.0
O315 O 0.75909 0.42045 0.34019 0.0
H316 H 0.74917 0.39473 0.31021 0.0
H317 H 0.77151 0.33418 0.31226 0.0
H318 H 0.801 0.38041 0.34681 0.0
O319 O 0.67195 0.09023 0.97642 0.0
Tb320 Tb 0.69031 0.0744 0.95461 0.0
Eu321 Eu 0.68988 0.02749 0.93798 0.0
C322 C 0.67136 0.08527 0.99555 0.0
O323 O 0.68009 0.06855 1.00159 0.0
C324 C 0.72144 0.04127 0.97078 0.0
O325 O 0.6865 1.00106 0.91639 0.0
C326 C 0.66192 1.02522 0.96541 0.0
C327 C 0.67029 1.0008 0.90481 0.0
O328 O 0.6573 1.01568 0.90653 0.0
C329 C 0.67029 0.06429 0.9149 0.0
C330 C 0.6403 0.02663 0.97037 0.0
C331 C 0.6342 0.04174 0.98396 0.0
C332 C 0.61416 0.0431 0.99031 0.0
C333 C 0.60008 0.02923 0.98297 0.0
C334 C 0.60596 1.01362 0.96995 0.0
C335 C 0.62614 1.01229 0.96363 0.0
O336 O 0.70771 0.05509 0.97501 0.0
O337 O 0.71989 0.02975 0.95451 0.0
O338 O 0.71403 0.08413 0.93361 0.0
O339 O 0.70058 0.10534 0.9537 0.0
C340 C 0.71359 0.10297 0.9393 0.0
O341 O 0.68344 0.04964 0.91251 0.0
O342 O 0.66596 0.07015 0.9332 0.0
O343 O 0.66869 1.00939 0.95557 0.0
O344 O 0.67097 0.04203 0.96041 0.0
H345 H 0.64515 0.0522 0.98999 0.0
H346 H 0.5847 0.02973 0.98855 0.0
H347 H 0.63079 1.00001 0.9539 0.0
O348 O 0.34583 0.93122 0.22232 0.0
Tb349 Tb 0.32352 0.94651 0.20431 0.0
Eu350 Eu 0.2769 0.94037 0.18795 0.0
C351 C 0.3416 0.92485 0.24053 0.0
O352 O 0.32331 0.92742 0.2477 0.0
C353 C 0.28795 0.97129 0.22156 0.0
O354 O 0.25067 0.93603 0.1663 0.0
C355 C 0.27594 0.91248 0.21551 0.0
C356 C 0.25078 0.91995 0.15453 0.0
O357 O 0.26601 0.90734 0.15599 0.0
C358 C 0.3158 0.92268 0.16577 0.0
C359 C 0.27689 0.89087 0.22062 0.0
C360 C 0.29183 0.88452 0.23427 0.0
C361 C 0.29264 0.86447 0.24082 0.0
C362 C 0.27846 0.85068 0.2335 0.0
C363 C 0.26306 0.85688 0.22042 0.0
C364 C 0.26225 0.87703 0.21395 0.0
O365 O 0.30073 0.9567 0.22564 0.0
O366 O 0.27767 0.97063 0.20447 0.0
O367 O 0.34594 0.97032 0.20494 0.0
O368 O 0.32771 0.96691 0.17867 0.0
C369 C 0.34218 0.97722 0.18701 0.0
O370 O 0.29956 0.93382 0.16287 0.0
O371 O 0.32326 0.92089 0.18396 0.0
O372 O 0.25963 0.91973 0.20689 0.0
O373 O 0.29263 0.92084 0.20907 0.0
H374 H 0.30256 0.89527 0.24021 0.0
H375 H 0.2785 0.83533 0.2392 0.0
H376 H 0.25008 0.88191 0.2042 0.0
O377 O 0.18789 0.451 0.07953 0.0
Tb378 Tb 0.19595 0.47437 0.1006 0.0
Eu379 Eu 0.19085 0.52288 0.11248 0.0
C380 C 0.17005 0.44995 0.07109 0.0
O381 O 0.15669 0.46422 0.0742 0.0
C382 C 0.22283 0.50783 0.08035 0.0
O383 O 0.18758 0.54971 0.13362 0.0
C384 C 0.16346 0.5251 0.08459 0.0
C385 C 0.17109 0.55057 0.14481 0.0
O386 O 0.15768 0.53611 0.14284 0.0
C387 C 0.17028 0.48657 0.13551 0.0
C388 C 0.14191 0.52416 0.07928 0.0
C389 C 0.13588 0.5095 0.06522 0.0
C390 C 0.11583 0.5083 0.05885 0.0
C391 C 0.10177 0.52209 0.06643 0.0
C392 C 0.10763 0.5374 0.07978 0.0
C393 C 0.12777 0.53844 0.08628 0.0
O394 O 0.20978 0.49308 0.07732 0.0
O395 O 0.22102 0.52006 0.09611 0.0
O396 O 0.20771 0.44753 0.11504 0.0
O397 O 0.22242 0.47555 0.12048 0.0
C398 C 0.22233 0.4563 0.12457 0.0
O399 O 0.1828 0.50168 0.13833 0.0
O400 O 0.16838 0.47943 0.11727 0.0
O401 O 0.17038 0.541 0.09418 0.0
O402 O 0.17206 0.50815 0.09008 0.0
H403 H 0.14693 0.49925 0.05887 0.0
H404 H 0.08641 0.52177 0.06082 0.0
H405 H 0.13239 0.55042 0.09637 0.0
O406 O 0.71461 0.62716 0.23004 0.0
Tb407 Tb 0.72734 0.60988 0.20552 0.0
Eu408 Eu 0.77421 0.61097 0.18883 0.0
C409 C 0.69976 0.6399 0.2268 0.0
O410 O 0.69442 0.64397 0.20817 0.0
C411 C 0.76062 0.57866 0.22098 0.0
O412 O 0.80082 0.61453 0.16747 0.0
C413 C 0.77584 0.63865 0.21658 0.0
C414 C 0.80105 0.63044 0.15547 0.0
O415 O 0.78599 0.64328 0.1566 0.0
C416 C 0.7372 0.63014 0.16571 0.0
C417 C 0.77419 0.66024 0.22157 0.0
C418 C 0.75914 0.6662 0.23532 0.0
C419 C 0.75775 0.68627 0.24172 0.0
C420 C 0.77146 0.70044 0.23418 0.0
C421 C 0.78692 0.69469 0.22094 0.0
C422 C 0.7883 0.67452 0.21463 0.0
O423 O 0.74667 0.59213 0.22555 0.0
O424 O 0.77219 0.58069 0.20481 0.0
O425 O 0.69607 0.60053 0.20435 0.0
O426 O 0.71732 0.58546 0.18551 0.0
C427 C 0.69838 0.58674 0.19068 0.0
O428 O 0.75214 0.61731 0.16336 0.0
O429 O 0.73107 0.63428 0.18397 0.0
O430 O 0.79185 0.6321 0.20688 0.0
O431 O 0.75919 0.62949 0.2113 0.0
H432 H 0.74877 0.6551 0.24142 0.0
H433 H 0.77098 0.71581 0.23978 0.0
H434 H 0.80048 0.66999 0.20471 0.0
O435 O 0.87827 0.09013 0.07362 0.0
Tb436 Tb 0.86 0.07406 0.09532 0.0
Eu437 Eu 0.86076 0.02705 0.11183 0.0
C438 C 0.87917 0.08507 0.05454 0.0
O439 O 0.87069 0.06824 0.04848 0.0
C440 C 0.82905 0.04095 0.07919 0.0
O441 O 0.86426 1.00063 0.13344 0.0
C442 C 0.88869 1.02489 0.08437 0.0
C443 C 0.88049 1.00037 0.14498 0.0
O444 O 0.89347 1.01525 0.14319 0.0
C445 C 0.88026 0.06387 0.13492 0.0
C446 C 0.91032 0.02625 0.0794 0.0
C447 C 0.9164 0.04126 0.0657 0.0
C448 C 0.93643 0.0425 0.05922 0.0
C449 C 0.95049 0.02864 0.06666 0.0
C450 C 0.94465 1.0132 0.07989 0.0
C451 C 0.92447 1.01196 0.08625 0.0
O452 O 0.84278 0.05471 0.07487 0.0
O453 O 0.83069 0.02937 0.09542 0.0
O454 O 0.84922 0.10485 0.09638 0.0
O455 O 0.83628 0.08336 0.11651 0.0
C456 C 0.83633 0.10221 0.11085 0.0
O457 O 0.86721 0.04916 0.13732 0.0
O458 O 0.88446 0.06986 0.11662 0.0
O459 O 0.88189 1.00901 0.0941 0.0
O460 O 0.87967 0.0417 0.08947 0.0
H461 H 0.90544 0.05172 0.05966 0.0
H462 H 0.96586 0.02901 0.06103 0.0
H463 H 0.91984 0.99978 0.09613 0.0
O464 O 0.3253 0.34685 0.11695 0.0
Tb465 Tb 0.3484 0.32605 0.10734 0.0
Eu466 Eu 0.36184 0.27781 0.11058 0.0
C467 C 0.32104 0.35055 0.1359 0.0
O468 O 0.32899 0.3396 0.15034 0.0
C469 C 0.33016 0.29276 0.07815 0.0
O470 O 0.38311 0.25104 0.11396 0.0
C471 C 0.3338 0.27571 0.1379 0.0
C472 C 0.39457 0.25041 0.13025 0.0
O473 O 0.39285 0.26508 0.14347 0.0
C474 C 0.38456 0.31399 0.13137 0.0
C475 C 0.32878 0.27722 0.15949 0.0
C476 C 0.31514 0.29233 0.1655 0.0
C477 C 0.30898 0.29386 0.18561 0.0
C478 C 0.31648 0.28012 0.19976 0.0
C479 C 0.32945 0.26446 0.19393 0.0
C480 C 0.33564 0.263 0.17373 0.0
O481 O 0.32654 0.30739 0.09121 0.0
O482 O 0.34588 0.28053 0.08028 0.0
O483 O 0.3595 0.35546 0.09881 0.0
O484 O 0.36897 0.33002 0.08157 0.0
C485 C 0.37052 0.34953 0.08381 0.0
O486 O 0.38742 0.29932 0.11837 0.0
O487 O 0.36614 0.32042 0.13416 0.0
O488 O 0.34374 0.25983 0.13136 0.0
O489 O 0.33887 0.29248 0.12877 0.0
H490 H 0.30895 0.30267 0.15444 0.0
H491 H 0.31105 0.28076 0.21518 0.0
H492 H 0.3454 0.2507 0.16916 0.0
O493 O 0.32814 0.70696 0.42963 0.0
Tb494 Tb 0.34977 0.72673 0.44377 0.0
Eu495 Eu 0.36361 0.77461 0.44109 0.0
C496 C 0.30947 0.71235 0.426 0.0
O497 O 0.30356 0.73077 0.43021 0.0
C498 C 0.33134 0.75983 0.47301 0.0
O499 O 0.3848 0.80138 0.43765 0.0
C500 C 0.33579 0.7766 0.41358 0.0
C501 C 0.39624 0.80198 0.42134 0.0
O502 O 0.39453 0.78728 0.40816 0.0
C503 C 0.38725 0.73834 0.42111 0.0
C504 C 0.32967 0.77578 0.39225 0.0
C505 C 0.31487 0.76159 0.38689 0.0
C506 C 0.3071 0.7611 0.36737 0.0
C507 C 0.31426 0.77466 0.35298 0.0
C508 C 0.32873 0.78921 0.35806 0.0
C509 C 0.3364 0.78988 0.37781 0.0
O510 O 0.32776 0.74554 0.45961 0.0
O511 O 0.34722 0.77189 0.47124 0.0
O512 O 0.35779 0.69732 0.45566 0.0
O513 O 0.37058 0.72346 0.46929 0.0
C514 C 0.36991 0.7038 0.46955 0.0
O515 O 0.38961 0.75324 0.43396 0.0
O516 O 0.36903 0.73164 0.41787 0.0
O517 O 0.34533 0.79257 0.42043 0.0
O518 O 0.3415 0.75968 0.42206 0.0
H519 H 0.30885 0.75134 0.39806 0.0
H520 H 0.30771 0.77457 0.33798 0.0
H521 H 0.34721 0.80143 0.38191 0.0
O522 O 0.95949 0.47588 0.87742 0.0
Tb523 Tb 0.97742 0.45437 0.86074 0.0
Eu524 Eu 1.02398 0.43842 0.86105 0.0
C525 C 0.9646 0.49485 0.87968 0.0
O526 O 0.98216 0.50114 0.87302 0.0
C527 C 1.01006 0.47186 0.8305 0.0
O528 O 0.05046 0.41688 0.864 0.0
C529 C 0.02615 0.46557 0.88927 0.0
C530 C 0.05083 0.40507 0.88004 0.0
O531 O 0.03608 0.40663 0.89318 0.0
C532 C 0.98763 0.4148 0.88074 0.0
C533 C 1.02487 0.47044 0.91088 0.0
C534 C 1.00989 0.48413 0.91707 0.0
C535 C 1.0087 0.49055 0.9371 0.0
C536 C 1.02256 0.48299 0.95109 0.0
C537 C 0.03795 0.46974 0.94511 0.0
C538 C 0.03916 0.46348 0.92493 0.0
O539 O 0.99681 0.47583 0.84484 0.0
O540 O 1.02131 0.45534 0.8313 0.0
O541 O 0.94722 0.45007 0.84928 0.0
O542 O 0.97148 0.43445 0.835 0.0
C543 C 0.95205 0.43744 0.83516 0.0
O544 O 1.00215 0.41267 0.86742 0.0
O545 O 0.98157 0.43303 0.88516 0.0
O546 O 0.04205 0.45602 0.88225 0.0
O547 O 1.00933 0.46035 0.88043 0.0
H548 H 0.99938 0.4902 0.90619 0.0
H549 H 1.02226 0.48853 0.96647 0.0
H550 H 0.05132 0.45361 0.92022 0.0
O551 O 0.72621 0.84594 0.43296 0.0
Tb552 Tb 0.7028 0.8258 0.44314 0.0
Eu553 Eu 0.68904 0.77766 0.44001 0.0
C554 C 0.7308 0.84878 0.41394 0.0
O555 O 0.72264 0.83763 0.3998 0.0
C556 C 0.72078 0.79232 0.47242 0.0
O557 O 0.66774 0.75094 0.43673 0.0
C558 C 0.71708 0.77539 0.4127 0.0
C559 C 0.65618 0.75037 0.42051 0.0
O560 O 0.65779 0.76507 0.40732 0.0
C561 C 0.66649 0.81397 0.4192 0.0
C562 C 0.7221 0.77695 0.39111 0.0
C563 C 0.73593 0.79189 0.38516 0.0
C564 C 0.74194 0.79358 0.36502 0.0
C565 C 0.73421 0.78006 0.3508 0.0
C566 C 0.72113 0.76448 0.35658 0.0
C567 C 0.715 0.76294 0.3768 0.0
O568 O 0.72444 0.80698 0.4594 0.0
O569 O 0.70498 0.78022 0.4703 0.0
O570 O 0.69284 0.85559 0.45178 0.0
O571 O 0.68191 0.83043 0.46855 0.0
C572 C 0.68125 0.85002 0.46648 0.0
O573 O 0.66356 0.79932 0.43221 0.0
O574 O 0.68493 0.82031 0.4164 0.0
O575 O 0.70701 0.75959 0.41918 0.0
O576 O 0.71214 0.79219 0.42188 0.0
H577 H 0.74236 0.80199 0.39629 0.0
H578 H 0.73955 0.78079 0.33535 0.0
H579 H 0.70512 0.75074 0.38133 0.0
O580 O 0.59277 0.57605 0.37496 0.0
Tb581 Tb 0.57451 0.5969 0.35784 0.0
Eu582 Eu 0.52766 0.61285 0.36015 0.0
C583 C 0.58755 0.55722 0.37801 0.0
O584 O 0.56985 0.55086 0.37184 0.0
C585 C 0.54079 0.57952 0.32909 0.0
O586 O 0.50112 0.63431 0.36368 0.0
C587 C 0.52592 0.58551 0.38824 0.0
C588 C 0.50083 0.64607 0.37975 0.0
O589 O 0.51576 0.64463 0.39268 0.0
C590 C 0.56479 0.63628 0.37899 0.0
C591 C 0.5269 0.58051 0.40986 0.0
C592 C 0.54198 0.567 0.41622 0.0
C593 C 0.54291 0.56054 0.43625 0.0
C594 C 0.52869 0.56778 0.45006 0.0
C595 C 0.51316 0.58075 0.4439 0.0
C596 C 0.51221 0.58711 0.42373 0.0
O597 O 0.55424 0.57548 0.34317 0.0
O598 O 0.52967 0.59611 0.33018 0.0
O599 O 0.60397 0.59888 0.34394 0.0
O600 O 0.58058 0.61814 0.33316 0.0
C601 C 0.59951 0.6131 0.33127 0.0
O602 O 0.54957 0.63857 0.36648 0.0
O603 O 0.5715 0.61808 0.38257 0.0
O604 O 0.50986 0.59467 0.38107 0.0
O605 O 0.54273 0.59123 0.37961 0.0
H606 H 0.55277 0.56112 0.40549 0.0
H607 H 0.52889 0.56218 0.46543 0.0
H608 H 0.49997 0.59679 0.41887 0.0
O609 O 0.22301 0.70865 0.62883 0.0
Tb610 Tb 0.20372 0.72615 0.60921 0.0
Eu611 Eu 0.18595 0.77219 0.60876 0.0
C612 C 0.24247 0.71176 0.63029 0.0
O613 O 0.25058 0.72742 0.62129 0.0
C614 C 0.22201 0.75952 0.58008 0.0
O615 O 0.16364 0.79823 0.61018 0.0
C616 C 0.20894 0.77561 0.63992 0.0
C617 C 0.15132 0.79858 0.62585 0.0
O618 O 0.1524 0.78369 0.63889 0.0
C619 C 0.16286 0.73529 0.62739 0.0
C620 C 0.222 0.77759 0.65767 0.0
C621 C 0.23799 0.76398 0.6608 0.0
C622 C 0.2503 0.76586 0.67782 0.0
C623 C 0.2462 0.78092 0.69201 0.0
C624 C 0.23002 0.79416 0.68927 0.0
C625 C 0.21809 0.79273 0.67197 0.0
O626 O 0.22551 0.74592 0.59421 0.0
O627 O 0.20536 0.7706 0.58041 0.0
O628 O 0.18297 0.71773 0.58483 0.0
O629 O 0.2035 0.69602 0.59678 0.0
C630 C 0.18897 0.699 0.58404 0.0
O631 O 0.1607 0.74946 0.61368 0.0
O632 O 0.18108 0.72983 0.63252 0.0
O633 O 0.19927 0.79106 0.63217 0.0
O634 O 0.20666 0.75847 0.63041 0.0
H635 H 0.24102 0.75217 0.64998 0.0
H636 H 0.25543 0.78211 0.70547 0.0
H637 H 0.20549 0.80297 0.66998 0.0
O638 O 0.95605 0.57286 0.68233 0.0
Tb639 Tb 0.9749 0.59718 0.69289 0.0
Eu640 Eu 1.02269 0.61155 0.69022 0.0
C641 C 0.94822 0.57241 0.66418 0.0
O642 O 0.95424 0.58524 0.65035 0.0
C643 C 1.00835 0.58001 0.72281 0.0
O644 O 0.04889 0.6332 0.68613 0.0
C645 C 1.02479 0.58372 0.66274 0.0
C646 C 0.04908 0.64404 0.66943 0.0
O647 O 0.03441 0.64141 0.65639 0.0
C648 C 0.98637 0.63436 0.66987 0.0
C649 C 1.02337 0.57897 0.64109 0.0
C650 C 1.008 0.56577 0.63487 0.0
C651 C 1.00694 0.55913 0.61488 0.0
C652 C 1.0212 0.56615 0.60097 0.0
C653 C 0.03683 0.57907 0.60692 0.0
C654 C 0.038 0.58542 0.62708 0.0
O655 O 0.99383 0.57606 0.70976 0.0
O656 O 1.02041 0.5958 0.72055 0.0
O657 O 0.94457 0.6057 0.70114 0.0
O658 O 0.96896 0.61782 0.71819 0.0
C659 C 0.9494 0.61756 0.71588 0.0
O660 O 1.00094 0.63703 0.68298 0.0
O661 O 0.98004 0.61598 0.66663 0.0
O662 O 0.0407 0.59344 0.66947 0.0
O663 O 1.008 0.58878 0.67187 0.0
H664 H 0.99717 0.56015 0.64578 0.0
H665 H 1.02102 0.56039 0.58567 0.0
H666 H 0.05039 0.59496 0.63181 0.0
O667 O 0.09012 0.97594 0.67234 0.0
Tb668 Tb 0.07413 0.95424 0.69069 0.0
Eu669 Eu 0.02682 0.93804 0.68965 0.0
C670 C 0.08504 0.99504 0.6714 0.0
O671 O 0.06814 1.00109 0.67977 0.0
C672 C 0.04084 0.97058 0.72138 0.0
O673 O 1.00038 0.91647 0.68608 0.0
C674 C 1.02497 0.96555 0.66176 0.0
C675 C 1.00013 0.90491 0.66985 0.0
O676 O 1.01496 0.90672 0.65682 0.0
C677 C 0.06361 0.91456 0.6703 0.0
C678 C 0.02616 0.97052 0.64014 0.0
C679 C 0.04108 0.98427 0.63395 0.0
C680 C 0.04223 0.99068 0.61391 0.0
C681 C 0.02837 0.98313 0.59993 0.0
C682 C 1.01302 0.96987 0.60589 0.0
C683 C 1.01185 0.96357 0.62608 0.0
O684 O 0.0546 0.97482 0.70761 0.0
O685 O 0.02921 0.95439 0.71975 0.0
O686 O 0.10491 0.95359 0.70147 0.0
O687 O 0.08364 0.93344 0.71469 0.0
C688 C 0.10243 0.93929 0.71457 0.0
O689 O 0.04869 0.91236 0.68317 0.0
O690 O 0.07015 0.93274 0.66634 0.0
O691 O 1.00896 0.95619 0.66876 0.0
O692 O 0.04177 0.96003 0.67054 0.0
H693 H 0.05156 0.99037 0.64484 0.0
H694 H 0.02867 0.98867 0.58454 0.0
H695 H 0.99974 0.95365 0.63078 0.0
O696 O 0.6286 0.82409 0.84021 0.0
Tb697 Tb 0.6103 0.84577 0.82413 0.0
Eu698 Eu 0.6111 0.86247 0.77718 0.0
C699 C 0.62934 0.80494 0.83532 0.0
O700 O 0.62076 0.7988 0.81859 0.0
C701 C 0.57941 0.82978 0.79094 0.0
O702 O 0.61465 0.88415 0.75084 0.0
C703 C 0.63899 0.83494 0.77503 0.0
C704 C 0.63085 0.89574 0.75064 0.0
O705 O 0.64379 0.89398 0.76554 0.0
C706 C 0.63053 0.88549 0.81407 0.0
C707 C 0.6606 0.82996 0.77644 0.0
C708 C 0.66665 0.81635 0.79154 0.0
C709 C 0.6867 0.81001 0.79293 0.0
C710 C 0.70081 0.81738 0.7791 0.0
C711 C 0.69497 0.83043 0.7635 0.0
C712 C 0.67478 0.83673 0.76215 0.0
O713 O 0.5932 0.82537 0.80461 0.0
O714 O 0.58102 0.84608 0.77946 0.0
O715 O 0.59937 0.84653 0.85484 0.0
O716 O 0.58659 0.86694 0.83353 0.0
C717 C 0.58654 0.86108 0.85231 0.0
O718 O 0.61751 0.88791 0.79934 0.0
O719 O 0.63472 0.86717 0.82006 0.0
O720 O 0.63223 0.84471 0.75916 0.0
O721 O 0.62995 0.84006 0.79181 0.0
H722 H 0.65568 0.81031 0.80198 0.0
H723 H 0.71619 0.81181 0.77963 0.0
H724 H 0.67017 0.84649 0.74988 0.0
O725 O 0.06996 0.17311 0.46422 0.0
Tb726 Tb 0.09443 0.19028 0.47717 0.0
Eu727 Eu 0.1116 0.18941 0.52381 0.0
C728 C 0.07326 0.16062 0.44918 0.0
O729 O 0.09192 0.15679 0.44369 0.0
C730 C 0.07905 0.22137 0.51048 0.0
O731 O 0.13308 0.186 0.55032 0.0
C732 C 0.08385 0.16173 0.52578 0.0
C733 C 0.14511 0.1701 0.55056 0.0
O734 O 0.14398 0.15723 0.53554 0.0
C735 C 0.13429 0.16998 0.48667 0.0
C736 C 0.07883 0.14016 0.52399 0.0
C737 C 0.06515 0.13434 0.50886 0.0
C738 C 0.05888 0.11425 0.50722 0.0
C739 C 0.06642 0.09995 0.52077 0.0
C740 C 0.07953 0.10559 0.53635 0.0
C741 C 0.08575 0.12576 0.53798 0.0
O742 O 0.0744 0.20761 0.49687 0.0
O743 O 0.09544 0.21963 0.52178 0.0
O744 O 0.09558 0.20005 0.44603 0.0
O745 O 0.11447 0.2148 0.46741 0.0
C746 C 0.10928 0.21378 0.44848 0.0
O747 O 0.13684 0.1829 0.50147 0.0
O748 O 0.11593 0.16583 0.48081 0.0
O749 O 0.09384 0.16813 0.54165 0.0
O750 O 0.08889 0.17101 0.50913 0.0
H751 H 0.05902 0.14551 0.4986 0.0
H752 H 0.06095 0.08453 0.52005 0.0
H753 H 0.09558 0.13019 0.55024 0.0
O754 O 0.42219 0.72687 0.83933 0.0
Tb755 Tb 0.44071 0.70516 0.82351 0.0
Eu756 Eu 0.44029 0.68872 0.77634 0.0
C757 C 0.42147 0.74602 0.83441 0.0
O758 O 0.42996 0.7521 0.81758 0.0
C759 C 0.47173 0.72143 0.79047 0.0
O760 O 0.43691 0.6675 0.74956 0.0
C761 C 0.41239 0.71626 0.77445 0.0
C762 C 0.42089 0.65565 0.74918 0.0
O763 O 0.40802 0.65684 0.7642 0.0
C764 C 0.42095 0.66521 0.81312 0.0
C765 C 0.3907 0.72102 0.77527 0.0
C766 C 0.38386 0.73402 0.79057 0.0
C767 C 0.3638 0.74056 0.79105 0.0
C768 C 0.35043 0.73382 0.77618 0.0
C769 C 0.35712 0.72138 0.76042 0.0
C770 C 0.37729 0.71494 0.76 0.0
O771 O 0.4578 0.72568 0.80406 0.0
O772 O 0.47032 0.70512 0.77898 0.0
O773 O 0.45099 0.70458 0.85443 0.0
O774 O 0.46467 0.68448 0.83339 0.0
C775 C 0.46417 0.69032 0.85216 0.0
O776 O 0.43389 0.66302 0.79825 0.0
O777 O 0.41661 0.68342 0.81932 0.0
O778 O 0.41974 0.70716 0.75844 0.0
O779 O 0.42091 0.71053 0.79129 0.0
H780 H 0.3943 0.73957 0.8018 0.0
H781 H 0.33512 0.73959 0.77596 0.0
H782 H 0.38258 0.70577 0.74755 0.0
O783 O 0.97649 0.37827 0.4605 0.0
Tb784 Tb 0.9548 0.36019 0.47681 0.0
Eu785 Eu 0.93783 0.36039 0.52344 0.0
C786 C 0.99558 0.3794 0.46553 0.0
O787 O 1.00175 0.37112 0.48242 0.0
C788 C 0.97099 0.32923 0.50978 0.0
O789 O 0.91599 0.36379 0.54964 0.0
C790 C 0.9651 0.38845 0.52577 0.0
C791 C 0.90434 0.37996 0.54971 0.0
O792 O 0.90618 0.39291 0.53482 0.0
C793 C 0.91497 0.38014 0.4867 0.0
C794 C 0.96992 0.41009 0.52433 0.0
C795 C 0.98353 0.41621 0.50927 0.0
C796 C 0.9903 0.43616 0.50821 0.0
C797 C 0.98299 0.45016 0.52224 0.0
C798 C 0.96962 0.4443 0.53756 0.0
C799 C 0.96313 0.42417 0.53866 0.0
O800 O 0.97534 0.3433 0.49636 0.0
O801 O 0.95452 0.33047 0.52107 0.0
O802 O 0.95327 0.34941 0.4461 0.0
O803 O 0.93404 0.33593 0.46808 0.0
C804 C 0.93922 0.33615 0.44911 0.0
O805 O 0.91253 0.36682 0.50117 0.0
O806 O 0.93329 0.38453 0.48093 0.0
O807 O 0.95529 0.38163 0.54159 0.0
O808 O 0.96019 0.37939 0.50898 0.0
H809 H 0.98934 0.40526 0.49868 0.0
H810 H 0.98886 0.46543 0.52218 0.0
H811 H 0.95326 0.4195 0.55082 0.0
O812 O 0.6279 0.22678 0.70974 0.0
Tb813 Tb 0.60981 0.20501 0.72591 0.0
Eu814 Eu 0.61088 0.18866 0.77301 0.0
C815 C 0.62902 0.24583 0.71493 0.0
O816 O 0.62075 0.25185 0.73188 0.0
C817 C 0.57896 0.22121 0.75913 0.0
O818 O 0.61445 0.16711 0.7995 0.0
C819 C 0.63868 0.21626 0.775 0.0
C820 C 0.63065 0.15549 0.79975 0.0
O821 O 0.6436 0.15715 0.78485 0.0
C822 C 0.63034 0.1655 0.73617 0.0
C823 C 0.66028 0.22137 0.77367 0.0
C824 C 0.6663 0.23518 0.75874 0.0
C825 C 0.68629 0.2418 0.75754 0.0
C826 C 0.70037 0.23438 0.77139 0.0
C827 C 0.69457 0.22104 0.78675 0.0
C828 C 0.67445 0.21454 0.78793 0.0
O829 O 0.5926 0.22552 0.74526 0.0
O830 O 0.58073 0.20501 0.77074 0.0
O831 O 0.58609 0.18377 0.71679 0.0
O832 O 0.59901 0.20376 0.69518 0.0
C833 C 0.58613 0.18931 0.69791 0.0
O834 O 0.61739 0.16309 0.75098 0.0
O835 O 0.6344 0.1838 0.73008 0.0
O836 O 0.6319 0.20658 0.79092 0.0
O837 O 0.62973 0.211 0.75823 0.0
H838 H 0.65533 0.24119 0.74829 0.0
H839 H 0.71569 0.24011 0.77107 0.0
H840 H 0.66986 0.20457 0.80004 0.0
O841 O 0.47667 0.17212 0.58936 0.0
Tb842 Tb 0.45486 0.19045 0.57348 0.0
Eu843 Eu 0.43838 0.18993 0.52642 0.0
C844 C 0.49579 0.17134 0.58432 0.0
O845 O 0.50183 0.17991 0.56752 0.0
C846 C 0.47115 0.22147 0.54037 0.0
O847 O 0.41693 0.18666 0.49987 0.0
C848 C 0.46579 0.16192 0.52437 0.0
C849 C 0.40503 0.17067 0.49954 0.0
O850 O 0.40631 0.15771 0.51448 0.0
C851 C 0.41503 0.1706 0.56321 0.0
C852 C 0.4708 0.1403 0.52573 0.0
C853 C 0.48455 0.13425 0.5407 0.0
C854 C 0.49104 0.11422 0.54197 0.0
C855 C 0.48358 0.10012 0.52818 0.0
C856 C 0.47032 0.10596 0.51278 0.0
C857 C 0.46394 0.12613 0.5115 0.0
O858 O 0.47535 0.20766 0.55411 0.0
O859 O 0.4549 0.21994 0.52881 0.0
O860 O 0.45387 0.20077 0.60439 0.0
O861 O 0.43407 0.21443 0.58307 0.0
C862 C 0.43965 0.21396 0.60192 0.0
O863 O 0.4128 0.18364 0.54845 0.0
O864 O 0.43327 0.16622 0.56925 0.0
O865 O 0.45613 0.16874 0.50847 0.0
O866 O 0.46059 0.17091 0.54114 0.0
H867 H 0.49059 0.14523 0.55111 0.0
H868 H 0.48918 0.08474 0.52856 0.0
H869 H 0.45405 0.13073 0.49934 0.0
O870 O 0.42221 0.32479 0.7098 0.0
Tb871 Tb 0.44035 0.34644 0.72608 0.0
Eu872 Eu 0.43971 0.36264 0.77294 0.0
C873 C 0.42125 0.30568 0.71481 0.0
O874 O 0.42952 0.29957 0.73172 0.0
C875 C 0.47119 0.32974 0.75909 0.0
O876 O 0.4365 0.3841 0.79948 0.0
C877 C 0.41166 0.33529 0.77506 0.0
C878 C 0.42047 0.39595 0.79986 0.0
O879 O 0.40744 0.39459 0.78501 0.0
C880 C 0.42028 0.38617 0.73633 0.0
C881 C 0.39005 0.33033 0.77375 0.0
C882 C 0.38394 0.31662 0.75877 0.0
C883 C 0.36388 0.31029 0.75749 0.0
C884 C 0.34982 0.31779 0.7713 0.0
C885 C 0.35571 0.33093 0.78677 0.0
C886 C 0.3759 0.33721 0.78805 0.0
O887 O 0.45742 0.32568 0.7453 0.0
O888 O 0.4697 0.34601 0.77064 0.0
O889 O 0.45117 0.34781 0.69535 0.0
O890 O 0.46427 0.36751 0.71711 0.0
C891 C 0.46417 0.36213 0.6982 0.0
O892 O 0.43337 0.38834 0.75104 0.0
O893 O 0.41598 0.36794 0.73019 0.0
O894 O 0.41852 0.34495 0.79094 0.0
O895 O 0.42063 0.34047 0.75825 0.0
H896 H 0.39488 0.3105 0.74834 0.0
H897 H 0.33442 0.31228 0.77085 0.0
H898 H 0.38054 0.34704 0.80024 0.0
O899 O 0.57378 0.37839 0.59013 0.0
Tb900 Tb 0.59553 0.36034 0.57391 0.0
Eu901 Eu 0.61181 0.36129 0.52695 0.0
C902 C 0.55474 0.37954 0.58495 0.0
O903 O 0.5487 0.37124 0.56803 0.0
C904 C 0.5793 0.3294 0.54085 0.0
O905 O 0.63323 0.36447 0.50035 0.0
C906 C 0.58424 0.38915 0.52483 0.0
C907 C 0.6451 0.38047 0.49992 0.0
O908 O 0.6438 0.39351 0.51478 0.0
C909 C 0.63488 0.38097 0.56361 0.0
C910 C 0.57914 0.41075 0.52628 0.0
C911 C 0.56525 0.41672 0.54117 0.0
C912 C 0.55865 0.43672 0.54243 0.0
C913 C 0.56615 0.45087 0.5287 0.0
C914 C 0.57957 0.44515 0.51338 0.0
C915 C 0.58607 0.42501 0.51213 0.0
O916 O 0.57501 0.34303 0.55473 0.0
O917 O 0.59549 0.33115 0.52923 0.0
O918 O 0.59703 0.34956 0.60465 0.0
O919 O 0.61692 0.33667 0.5829 0.0
C920 C 0.61151 0.3367 0.60181 0.0
O921 O 0.63736 0.3679 0.54893 0.0
O922 O 0.61655 0.38503 0.5696 0.0
O923 O 0.59413 0.3825 0.50899 0.0
O924 O 0.58927 0.38004 0.54159 0.0
H925 H 0.55916 0.40569 0.5515 0.0
H926 H 0.56043 0.46621 0.52906 0.0
H927 H 0.5961 0.42048 0.50004 0.0
O928 O 0.84071 0.62866 0.82547 0.0
Tb929 Tb 0.82375 0.60986 0.84596 0.0
Eu930 Eu 0.777 0.61059 0.86257 0.0
C931 C 0.83654 0.63021 0.80623 0.0
O932 O 0.82019 0.62169 0.79904 0.0
C933 C 0.79075 0.57937 0.8294 0.0
O934 O 0.75062 0.61399 0.88423 0.0
C935 C 0.77478 0.63865 0.83524 0.0
C936 C 0.75036 0.63024 0.89577 0.0
O937 O 0.76519 0.64325 0.89393 0.0
C938 C 0.81381 0.63005 0.88567 0.0
C939 C 0.7762 0.66026 0.83027 0.0
C940 C 0.79133 0.6663 0.81669 0.0
C941 C 0.79276 0.68635 0.81034 0.0
C942 C 0.77893 0.70048 0.8177 0.0
C943 C 0.76331 0.69467 0.83074 0.0
C944 C 0.76192 0.67447 0.83704 0.0
O945 O 0.80422 0.5934 0.82507 0.0
O946 O 0.77942 0.58066 0.84585 0.0
O947 O 0.85411 0.59801 0.84677 0.0
O948 O 0.83242 0.58611 0.86736 0.0
C949 C 0.85119 0.58545 0.86148 0.0
O950 O 0.79911 0.61698 0.88808 0.0
O951 O 0.81975 0.63427 0.86737 0.0
O952 O 0.75892 0.63185 0.845 0.0
O953 O 0.79158 0.62962 0.84031 0.0
H954 H 0.80176 0.6553 0.81066 0.0
H955 H 0.77949 0.71587 0.81214 0.0
H956 H 0.74964 0.66987 0.84679 0.0
O957 O 0.86958 0.95346 0.47139 0.0
Tb958 Tb 0.8565 0.97473 0.45056 0.0
Eu959 Eu 0.86034 1.0226 0.4377 0.0
C960 C 0.87548 0.95858 0.48952 0.0
O961 O 0.87345 0.97732 0.49557 0.0
C962 C 0.8285 1.00799 0.47011 0.0
O963 O 0.86372 0.04951 0.41669 0.0
C964 C 0.88821 1.02423 0.46521 0.0
C965 C 0.87999 0.05013 0.40519 0.0
O966 O 0.89318 0.03542 0.40678 0.0
C967 C 0.88017 0.98648 0.41387 0.0
C968 C 0.90983 1.0232 0.4703 0.0
C969 C 0.91606 1.00837 0.48413 0.0
C970 C 0.93605 1.00752 0.49079 0.0
C971 C 0.94994 1.02156 0.4834 0.0
C972 C 0.94395 0.03684 0.47005 0.0
C973 C 0.92381 0.03771 0.46351 0.0
O974 O 0.84165 0.99337 0.47332 0.0
O975 O 0.83028 1.02013 0.45428 0.0
O976 O 0.84374 0.94625 0.44084 0.0
O977 O 0.83078 0.97351 0.42976 0.0
C978 C 0.82998 0.95386 0.42923 0.0
O979 O 0.86746 1.00151 0.41147 0.0
O980 O 0.88294 0.9795 0.43205 0.0
O981 O 0.88117 0.04031 0.45597 0.0
O982 O 0.87947 1.00742 0.45959 0.0
H983 H 0.90525 0.99775 0.49014 0.0
H984 H 0.96525 1.02147 0.48915 0.0
H985 H 0.91907 0.04977 0.45355 0.0
O986 O 0.2119 0.92249 0.82417 0.0
Tb987 Tb 0.22759 0.9408 0.84613 0.0
Eu988 Eu 0.27464 0.94081 0.86325 0.0
C989 C 0.21683 0.92207 0.80502 0.0
O990 O 0.23357 0.93079 0.79904 0.0
C991 C 0.26061 0.97215 0.83019 0.0
O992 O 0.30079 0.93762 0.88514 0.0
C993 C 0.27742 0.91255 0.83625 0.0
C994 C 0.30099 0.92134 0.89664 0.0
O995 O 0.28618 0.90832 0.89469 0.0
C996 C 0.23773 0.9212 0.88608 0.0
C997 C 0.27597 0.89093 0.83132 0.0
C998 C 0.2612 0.88514 0.81732 0.0
C999 C 0.26002 0.86527 0.81045 0.0
C1000 C 0.27356 0.85096 0.81801 0.0
C1001 C 0.28874 0.85647 0.83164 0.0
C1002 C 0.29004 0.87658 0.83826 0.0
O1003 O 0.24694 0.95832 0.82587 0.0
O1004 O 0.27217 0.97067 0.84645 0.0
O1005 O 0.19652 0.95074 0.84701 0.0
O1006 O 0.21761 0.96472 0.86681 0.0
C1007 C 0.19877 0.964 0.86119 0.0
O1008 O 0.25224 0.93448 0.88845 0.0
O1009 O 0.23202 0.91665 0.86778 0.0
O1010 O 0.29307 0.91931 0.84633 0.0
O1011 O 0.26054 0.92176 0.84076 0.0
H1012 H 0.251 0.8963 0.81116 0.0
H1013 H 0.27329 0.83572 0.81204 0.0
H1014 H 0.30211 0.88101 0.84834 0.0
O1015 O 0.17147 0.58864 0.47756 0.0
Tb1016 Tb 0.19075 0.57224 0.45704 0.0
Eu1017 Eu 0.18976 0.52666 0.43846 0.0
C1018 C 0.17006 0.58414 0.49675 0.0
O1019 O 0.1787 0.56767 0.50357 0.0
C1020 C 0.22003 0.53819 0.47266 0.0
O1021 O 0.18606 0.50053 0.41656 0.0
C1022 C 0.16171 0.52454 0.46585 0.0
C1023 C 0.17004 0.50061 0.40473 0.0
O1024 O 0.15732 0.51574 0.40627 0.0
C1025 C 0.17158 0.56458 0.41578 0.0
C1026 C 0.14015 0.52536 0.47109 0.0
C1027 C 0.13391 0.54011 0.48501 0.0
C1028 C 0.11388 0.5411 0.49147 0.0
C1029 C 0.09997 0.52718 0.48389 0.0
C1030 C 0.10602 0.51192 0.47053 0.0
C1031 C 0.12619 0.51099 0.46411 0.0
O1032 O 0.20545 0.55083 0.47755 0.0
O1033 O 0.21976 0.52892 0.45498 0.0
O1034 O 0.2041 0.60192 0.45873 0.0
O1035 O 0.21559 0.58108 0.43705 0.0
C1036 C 0.21697 0.59935 0.44423 0.0
O1037 O 0.18393 0.54925 0.41334 0.0
O1038 O 0.16742 0.57081 0.43404 0.0
O1039 O 0.16907 0.50855 0.45671 0.0
O1040 O 0.16997 0.54143 0.45994 0.0
H1041 H 0.14474 0.55063 0.49115 0.0
H1042 H 0.0846 0.52737 0.48952 0.0
H1043 H 0.13097 0.49901 0.45407 0.0
O1044 O 0.84783 0.43559 0.71969 0.0
Tb1045 Tb 0.82459 0.44594 0.69952 0.0
Eu1046 Eu 0.77668 0.44073 0.68761 0.0
C1047 C 0.84364 0.42715 0.73704 0.0
O1048 O 0.82478 0.4254 0.74277 0.0
C1049 C 0.79113 0.47214 0.72046 0.0
O1050 O 0.74993 0.4372 0.66645 0.0
C1051 C 0.77505 0.41271 0.71499 0.0
C1052 C 0.74934 0.42066 0.65533 0.0
O1053 O 0.76393 0.40741 0.65747 0.0
C1054 C 0.81295 0.42103 0.66384 0.0
C1055 C 0.77603 0.39105 0.71998 0.0
C1056 C 0.7907 0.38477 0.73395 0.0
C1057 C 0.79174 0.36467 0.74023 0.0
C1058 C 0.77797 0.35074 0.73248 0.0
C1059 C 0.76275 0.3568 0.71912 0.0
C1060 C 0.76175 0.37703 0.71284 0.0
O1061 O 0.80587 0.45902 0.72321 0.0
O1062 O 0.77906 0.47066 0.70456 0.0
O1063 O 0.85128 0.45957 0.68649 0.0
O1064 O 0.82267 0.47269 0.68004 0.0
C1065 C 0.84203 0.4738 0.67679 0.0
O1066 O 0.79773 0.4335 0.66132 0.0
O1067 O 0.82018 0.41885 0.68198 0.0
O1068 O 0.75897 0.41986 0.70587 0.0
O1069 O 0.79187 0.4214 0.7093 0.0
H1070 H 0.80107 0.39562 0.74032 0.0
H1071 H 0.77824 0.3353 0.73793 0.0
H1072 H 0.74978 0.3818 0.7028 0.0
O1073 O 0.67165 0.95907 0.57587 0.0
Tb1074 Tb 0.69065 0.97663 0.59564 0.0
Eu1075 Eu 0.68993 1.02349 0.61207 0.0
C1076 C 0.66975 0.96278 0.55656 0.0
O1077 O 0.67805 0.97902 0.54882 0.0
C1078 C 0.72069 1.00966 0.57855 0.0
O1079 O 0.68656 0.04996 0.63365 0.0
C1080 C 0.66178 1.02557 0.58487 0.0
C1081 C 0.67036 0.05024 0.64527 0.0
O1082 O 0.65739 0.03536 0.64359 0.0
C1083 C 0.67066 0.98669 0.63548 0.0
C1084 C 0.6402 1.02433 0.57984 0.0
C1085 C 0.63415 1.00933 0.56614 0.0
C1086 C 0.61415 1.00812 0.5596 0.0
C1087 C 0.60007 1.022 0.56703 0.0
C1088 C 0.60591 0.03741 0.58027 0.0
C1089 C 0.62605 0.03864 0.58667 0.0
O1090 O 0.70645 0.99637 0.57441 0.0
O1091 O 0.71972 1.02087 0.5951 0.0
O1092 O 0.70312 0.94651 0.59624 0.0
O1093 O 0.71451 0.96826 0.61702 0.0
C1094 C 0.71555 0.94955 0.611 0.0
O1095 O 0.68367 1.00147 0.63773 0.0
O1096 O 0.66641 0.98057 0.61726 0.0
O1097 O 0.66876 0.04151 0.59436 0.0
O1098 O 0.6706 1.00874 0.59021 0.0
H1099 H 0.64513 0.99884 0.56015 0.0
H1100 H 0.58471 1.02166 0.56141 0.0
H1101 H 0.63067 0.0508 0.59656 0.0
O1102 O 0.21091 0.12871 0.7264 0.0
Tb1103 Tb 0.22673 0.1101 0.70477 0.0
Eu1104 Eu 0.27381 0.11073 0.68829 0.0
C1105 C 0.21576 0.12934 0.74555 0.0
O1106 O 0.23241 0.12056 0.7517 0.0
C1107 C 0.25999 0.07926 0.7212 0.0
O1108 O 0.30041 0.114 0.66688 0.0
C1109 C 0.27572 0.13883 0.71559 0.0
C1110 C 0.30074 0.13 0.65499 0.0
O1111 O 0.28577 0.14294 0.65624 0.0
C1112 C 0.23697 0.12983 0.66484 0.0
C1113 C 0.27427 0.16045 0.72054 0.0
C1114 C 0.25918 0.1665 0.73418 0.0
C1115 C 0.25779 0.18654 0.74054 0.0
C1116 C 0.2716 0.20066 0.73315 0.0
C1117 C 0.28718 0.19484 0.72008 0.0
C1118 C 0.28854 0.17465 0.71376 0.0
O1119 O 0.24615 0.09301 0.72531 0.0
O1120 O 0.27156 0.08077 0.70495 0.0
O1121 O 0.19584 0.09967 0.70421 0.0
O1122 O 0.21697 0.08616 0.68407 0.0
C1123 C 0.19818 0.08654 0.68991 0.0
O1124 O 0.25181 0.11686 0.66266 0.0
O1125 O 0.23087 0.13424 0.68305 0.0
O1126 O 0.29166 0.13204 0.70595 0.0
O1127 O 0.25897 0.12977 0.71042 0.0
H1128 H 0.24877 0.15551 0.74024 0.0
H1129 H 0.27107 0.21605 0.73873 0.0
H1130 H 0.3008 0.17004 0.70397 0.0
O1131 O 0.36736 0.59474 0.57246 0.0
Tb1132 Tb 0.35691 0.57502 0.59612 0.0
Eu1133 Eu 0.35987 0.52813 0.61205 0.0
C1134 C 0.38641 0.59728 0.56782 0.0
O1135 O 0.40047 0.58627 0.57635 0.0
C1136 C 0.32851 0.54092 0.57894 0.0
O1137 O 0.36308 0.50161 0.63366 0.0
C1138 C 0.38704 0.52514 0.58391 0.0
C1139 C 0.37931 0.50097 0.6452 0.0
O1140 O 0.39253 0.51564 0.64359 0.0
C1141 C 0.38037 0.56526 0.63379 0.0
C1142 C 0.40854 0.52599 0.57836 0.0
C1143 C 0.41446 0.54041 0.56395 0.0
C1144 C 0.43451 0.54158 0.55752 0.0
C1145 C 0.44865 0.52802 0.56538 0.0
C1146 C 0.44287 0.51298 0.57907 0.0
C1147 C 0.42276 0.51196 0.58563 0.0
O1148 O 0.34205 0.55486 0.57459 0.0
O1149 O 0.32954 0.53074 0.59613 0.0
O1150 O 0.34658 0.60476 0.6044 0.0
O1151 O 0.33105 0.57933 0.61653 0.0
C1152 C 0.33214 0.59901 0.61623 0.0
O1153 O 0.3677 0.55034 0.63696 0.0
O1154 O 0.38322 0.57142 0.61526 0.0
O1155 O 0.38021 0.50951 0.59402 0.0
O1156 O 0.37853 0.54219 0.58909 0.0
H1157 H 0.40337 0.55054 0.5575 0.0
H1158 H 0.46404 0.52834 0.5598 0.0
H1159 H 0.41823 0.50019 0.59602 0.0
O1160 O 0.82505 0.8412 0.62746 0.0
Tb1161 Tb 0.84641 0.82326 0.6106 0.0
Eu1162 Eu 0.86212 0.77651 0.61099 0.0
C1163 C 0.80606 0.83615 0.62965 0.0
O1164 O 0.79973 0.81867 0.62285 0.0
C1165 C 0.82901 0.79082 0.58009 0.0
O1166 O 0.88325 0.74965 0.61358 0.0
C1167 C 0.8349 0.77416 0.63916 0.0
C1168 C 0.89512 0.74895 0.62954 0.0
O1169 O 0.89394 0.76369 0.64273 0.0
C1170 C 0.88559 0.81272 0.63107 0.0
C1171 C 0.83008 0.77556 0.6608 0.0
C1172 C 0.81652 0.79068 0.66697 0.0
C1173 C 0.81026 0.79203 0.68703 0.0
C1174 C 0.81773 0.77817 0.70107 0.0
C1175 C 0.83077 0.76259 0.69513 0.0
C1176 C 0.83694 0.76125 0.67491 0.0
O1177 O 0.82501 0.80423 0.59426 0.0
O1178 O 0.84534 0.7793 0.58116 0.0
O1179 O 0.85048 0.85356 0.59924 0.0
O1180 O 0.86711 0.82964 0.58556 0.0
C1181 C 0.86371 0.84902 0.58557 0.0
O1182 O 0.8879 0.79824 0.61774 0.0
O1183 O 0.8673 0.81869 0.63531 0.0
O1184 O 0.84471 0.75835 0.6323 0.0
O1185 O 0.83983 0.79098 0.6301 0.0
H1186 H 0.81044 0.80117 0.65607 0.0
H1187 H 0.81224 0.77867 0.71647 0.0
H1188 H 0.84668 0.74898 0.67022 0.0
O1189 O 0.82388 0.21108 0.92163 0.0
Tb1190 Tb 0.84569 0.22681 0.94003 0.0
Eu1191 Eu 0.86187 0.27391 0.93952 0.0
C1192 C 0.80476 0.2161 0.92103 0.0
O1193 O 0.79874 0.23281 0.9298 0.0
C1194 C 0.82935 0.25977 0.97126 0.0
O1195 O 0.88328 0.30049 0.93636 0.0
C1196 C 0.83446 0.27598 0.91156 0.0
C1197 C 0.89514 0.30088 0.92035 0.0
O1198 O 0.89377 0.28604 0.9073 0.0
C1199 C 0.88539 0.2373 0.92009 0.0
C1200 C 0.8295 0.27457 0.88995 0.0
C1201 C 0.81596 0.25943 0.88386 0.0
C1202 C 0.8096 0.25808 0.86383 0.0
C1203 C 0.81689 0.272 0.84977 0.0
C1204 C 0.82984 0.28765 0.85564 0.0
C1205 C 0.83617 0.28896 0.8758 0.0
O1206 O 0.8252 0.24585 0.95763 0.0
O1207 O 0.84544 0.27152 0.96955 0.0
O1208 O 0.8468 0.19578 0.95008 0.0
O1209 O 0.86664 0.21706 0.96376 0.0
C1210 C 0.8611 0.19818 0.96318 0.0
O1211 O 0.88757 0.25201 0.93319 0.0
O1212 O 0.86716 0.23125 0.91573 0.0
O1213 O 0.84417 0.29188 0.91832 0.0
O1214 O 0.83959 0.25919 0.92061 0.0
H1215 H 0.80995 0.24894 0.8948 0.0
H1216 H 0.8113 0.27151 0.83441 0.0
H1217 H 0.84585 0.30128 0.88044 0.0
O1218 O 0.46057 0.97651 0.37608 0.0
Tb1219 Tb 0.47818 0.95468 0.35944 0.0
Eu1220 Eu 0.52505 0.9389 0.36037 0.0
C1221 C 0.46573 0.99552 0.37792 0.0
O1222 O 0.48322 1.00165 0.37096 0.0
C1223 C 0.51105 0.97168 0.32884 0.0
O1224 O 0.55167 0.91751 0.36352 0.0
C1225 C 0.5271 0.96629 0.38836 0.0
C1226 C 0.55201 0.90578 0.37962 0.0
O1227 O 0.53716 0.90734 0.39265 0.0
C1228 C 0.48863 0.91555 0.38018 0.0
C1229 C 0.52552 0.97109 0.40999 0.0
C1230 C 0.51048 0.98479 0.41604 0.0
C1231 C 0.50904 0.9911 0.43609 0.0
C1232 C 0.5227 0.98346 0.45023 0.0
C1233 C 0.53814 0.97021 0.44441 0.0
C1234 C 0.53961 0.96404 0.42422 0.0
O1235 O 0.49718 0.97577 0.34256 0.0
O1236 O 0.52265 0.95544 0.33039 0.0
O1237 O 0.44772 0.9505 0.34861 0.0
O1238 O 0.47145 0.93389 0.33457 0.0
C1239 C 0.45207 0.93723 0.33493 0.0
O1240 O 0.50323 0.91321 0.36697 0.0
O1241 O 0.48259 0.93386 0.38428 0.0
O1242 O 0.54298 0.95648 0.38166 0.0
O1243 O 0.51037 0.96133 0.37917 0.0
H1244 H 0.50014 0.99094 0.40503 0.0
H1245 H 0.52219 0.98892 0.46564 0.0
H1246 H 0.5518 0.95416 0.41964 0.0
O1247 O 0.22267 0.34489 0.92819 0.0
Tb1248 Tb 0.20203 0.32414 0.94241 0.0
Eu1249 Eu 0.18848 0.27655 0.93982 0.0
C1250 C 0.24113 0.33997 0.92316 0.0
O1251 O 0.24765 0.32157 0.9265 0.0
C1252 C 0.22148 0.2912 0.9708 0.0
O1253 O 0.16739 0.2497 0.93654 0.0
C1254 C 0.21574 0.27502 0.91166 0.0
C1255 C 0.15587 0.2491 0.9203 0.0
O1256 O 0.1575 0.26382 0.90712 0.0
C1257 C 0.16436 0.31258 0.92019 0.0
C1258 C 0.22067 0.27621 0.89003 0.0
C1259 C 0.2344 0.29114 0.88382 0.0
C1260 C 0.24091 0.29221 0.8638 0.0
C1261 C 0.23342 0.27829 0.84985 0.0
C1262 C 0.22013 0.26295 0.85581 0.0
C1263 C 0.21377 0.26186 0.87599 0.0
O1264 O 0.22474 0.30527 0.95707 0.0
O1265 O 0.20541 0.27932 0.96963 0.0
O1266 O 0.19354 0.353 0.95516 0.0
O1267 O 0.18184 0.32622 0.96857 0.0
C1268 C 0.18198 0.34588 0.96922 0.0
O1269 O 0.16222 0.29774 0.93315 0.0
O1270 O 0.18249 0.3194 0.91674 0.0
O1271 O 0.2066 0.2589 0.91872 0.0
O1272 O 0.21012 0.29178 0.92048 0.0
H1273 H 0.24046 0.30168 0.89467 0.0
H1274 H 0.23905 0.27854 0.83449 0.0
H1275 H 0.20386 0.24975 0.88071 0.0
O1276 O 0.08969 0.07401 0.87816 0.0
Tb1277 Tb 0.07379 0.09575 0.85978 0.0
Eu1278 Eu 0.02671 0.11212 0.86033 0.0
C1279 C 0.08484 0.05484 0.87879 0.0
O1280 O 0.06815 0.04871 0.87009 0.0
C1281 C 0.04072 0.07932 0.82877 0.0
O1282 O 1.00011 0.13358 0.86354 0.0
C1283 C 1.02462 0.08477 0.88838 0.0
C1284 C 0.99971 0.14542 0.87957 0.0
O1285 O 1.01459 0.14407 0.89256 0.0
C1286 C 0.06337 0.13545 0.87977 0.0
C1287 C 0.02611 0.07995 0.91002 0.0
C1288 C 0.04114 0.06628 0.91612 0.0
C1289 C 0.04259 0.0601 0.93621 0.0
C1290 C 0.02889 0.06773 0.95031 0.0
C1291 C 1.01336 0.08083 0.94443 0.0
C1292 C 1.01193 0.08695 0.92421 0.0
O1293 O 0.05463 0.07521 0.84242 0.0
O1294 O 0.02907 0.09552 0.83037 0.0
O1295 O 0.10475 0.09679 0.84958 0.0
O1296 O 0.08348 0.11673 0.83602 0.0
C1297 C 0.10234 0.11113 0.83652 0.0
O1298 O 0.04869 0.13773 0.86667 0.0
O1299 O 0.06937 0.11718 0.88411 0.0
O1300 O 1.00875 0.09455 0.88164 0.0
O1301 O 0.04138 0.08976 0.87923 0.0
H1302 H 0.05148 0.06005 0.90514 0.0
H1303 H 0.02945 0.06233 0.96575 0.0
H1304 H 0.99969 0.09676 0.91958 0.0
O1305 O 0.72695 0.21106 0.12824 0.0
Tb1306 Tb 0.70498 0.22693 0.11011 0.0
Eu1307 Eu 0.68844 0.27401 0.11083 0.0
C1308 C 0.74605 0.21614 0.12889 0.0
O1309 O 0.75198 0.23298 0.12032 0.0
C1310 C 0.72105 0.26014 0.07905 0.0
O1311 O 0.6668 0.30042 0.1144 0.0
C1312 C 0.716 0.27607 0.13866 0.0
C1313 C 0.65518 0.30061 0.13059 0.0
O1314 O 0.65694 0.28569 0.14353 0.0
C1315 C 0.66536 0.23718 0.13032 0.0
C1316 C 0.72102 0.2746 0.16024 0.0
C1317 C 0.73473 0.25954 0.16623 0.0
C1318 C 0.74109 0.25811 0.18626 0.0
C1319 C 0.73364 0.27186 0.20041 0.0
C1320 C 0.7205 0.28741 0.19464 0.0
C1321 C 0.71417 0.2888 0.17448 0.0
O1322 O 0.72533 0.24629 0.09273 0.0
O1323 O 0.70483 0.27173 0.08074 0.0
O1324 O 0.70392 0.19597 0.0999 0.0
O1325 O 0.684 0.2173 0.08637 0.0
C1326 C 0.68959 0.19842 0.08684 0.0
O1327 O 0.66297 0.25188 0.11725 0.0
O1328 O 0.68366 0.23124 0.13456 0.0
O1329 O 0.7062 0.29197 0.13197 0.0
O1330 O 0.71088 0.25931 0.1296 0.0
H1331 H 0.74083 0.24918 0.15522 0.0
H1332 H 0.73921 0.2713 0.21577 0.0
H1333 H 0.70433 0.30103 0.16992 0.0
O1334 O 0.46094 0.07626 0.16925 0.0
Tb1335 Tb 0.47729 0.09517 0.19008 0.0
Eu1336 Eu 0.52374 0.11264 0.18946 0.0
C1337 C 0.46166 0.0565 0.16972 0.0
O1338 O 0.47547 0.04745 0.18066 0.0
C1339 C 0.51062 0.07882 0.21994 0.0
O1340 O 0.55014 0.13422 0.18587 0.0
C1341 C 0.52544 0.08538 0.16132 0.0
C1342 C 0.55022 0.14603 0.16982 0.0
O1343 O 0.53516 0.14455 0.15705 0.0
C1344 C 0.48637 0.13618 0.17122 0.0
C1345 C 0.52426 0.08014 0.13981 0.0
C1346 C 0.50926 0.06638 0.13386 0.0
C1347 C 0.50806 0.05975 0.11389 0.0
C1348 C 0.52196 0.06708 0.09979 0.0
C1349 C 0.53738 0.08036 0.10555 0.0
C1350 C 0.53857 0.08689 0.12565 0.0
O1351 O 0.49785 0.07432 0.20535 0.0
O1352 O 0.52138 0.09566 0.21921 0.0
O1353 O 0.44745 0.09256 0.20292 0.0
O1354 O 0.46686 0.11578 0.21381 0.0
C1355 C 0.44894 0.10775 0.21515 0.0
O1356 O 0.50154 0.13829 0.1838 0.0
O1357 O 0.48012 0.11802 0.16678 0.0
O1358 O 0.54153 0.09454 0.16837 0.0
O1359 O 0.50867 0.09123 0.1699 0.0
H1360 H 0.49875 0.06046 0.14489 0.0
H1361 H 0.52162 0.06134 0.08448 0.0
H1362 H 0.55069 0.09684 0.13022 0.0
O1363 O 0.58959 0.47672 0.17266 0.0
Tb1364 Tb 0.57367 0.45469 0.19067 0.0
Eu1365 Eu 0.52658 0.43831 0.18998 0.0
C1366 C 0.58461 0.49586 0.17216 0.0
O1367 O 0.5678 0.50183 0.18077 0.0
C1368 C 0.5406 0.47074 0.22192 0.0
O1369 O 0.49995 0.41694 0.18683 0.0
C1370 C 0.52439 0.46587 0.16214 0.0
C1371 C 0.49961 0.40512 0.1708 0.0
O1372 O 0.51453 0.4065 0.15783 0.0
C1373 C 0.56328 0.41526 0.17026 0.0
C1374 C 0.52598 0.47078 0.14053 0.0
C1375 C 0.54113 0.48436 0.1345 0.0
C1376 C 0.54262 0.49065 0.11445 0.0
C1377 C 0.52885 0.48326 0.10031 0.0
C1378 C 0.51322 0.47025 0.10611 0.0
C1379 C 0.51176 0.46399 0.1263 0.0
O1380 O 0.55464 0.47504 0.20844 0.0
O1381 O 0.52889 0.45463 0.22006 0.0
O1382 O 0.60467 0.45314 0.20064 0.0
O1383 O 0.58317 0.43355 0.21435 0.0
C1384 C 0.60211 0.43886 0.21375 0.0
O1385 O 0.54864 0.41278 0.18338 0.0
O1386 O 0.56912 0.43361 0.16608 0.0
O1387 O 0.50858 0.45589 0.16873 0.0
O1388 O 0.54113 0.461 0.17138 0.0
H1389 H 0.55151 0.49043 0.1455 0.0
H1390 H 0.52946 0.48879 0.08493 0.0
H1391 H 0.49946 0.45426 0.13088 0.0
H1392 H 0.14211 0.31267 0.37331 0.0
H1393 H 0.10657 0.20501 0.40894 0.0
H1394 H 0.127 0.26409 0.33268 0.0
H1395 H 0.13123 0.24894 0.45003 0.0
H1396 H 0.11804 0.22529 0.38066 0.0
H1397 H 0.14315 0.28861 0.40111 0.0
C1398 C 0.13946 0.29686 0.37013 0.0
C1399 C 0.13393 0.29043 0.35072 0.0
C1400 C 0.12121 0.23047 0.39581 0.0
C1401 C 0.1349 0.26292 0.38251 0.0
C1402 C 0.11454 0.21895 0.41197 0.0
C1403 C 0.11776 0.22553 0.43176 0.0
C1404 C 0.13084 0.24895 0.39943 0.0
C1405 C 0.12838 0.2435 0.43491 0.0
C1406 C 0.14002 0.28314 0.38605 0.0
C1407 C 0.13094 0.26977 0.34746 0.0
N1408 N 0.13429 0.25483 0.41884 0.0
N1409 N 0.13108 0.2568 0.36328 0.0
H1410 H 0.4556 0.69402 0.89164 0.0
H1411 H 0.56249 0.65727 0.92796 0.0
H1412 H 0.49887 0.6675 0.85092 0.0
H1413 H 0.51389 0.67332 0.96826 0.0
H1414 H 0.53856 0.65623 0.90008 0.0
H1415 H 0.47567 0.68268 0.92007 0.0
C1416 C 0.46935 0.68566 0.88872 0.0
C1417 C 0.4758 0.68188 0.86898 0.0
C1418 C 0.53306 0.65955 0.91509 0.0
C1419 C 0.49901 0.66895 0.90151 0.0
C1420 C 0.5467 0.66012 0.93106 0.0
C1421 C 0.54023 0.6659 0.95039 0.0
C1422 C 0.51288 0.66491 0.9185 0.0
C1423 C 0.5196 0.66917 0.95354 0.0
C1424 C 0.48076 0.67908 0.90498 0.0
C1425 C 0.49353 0.67079 0.86599 0.0
N1426 N 0.50672 0.669 0.93767 0.0
N1427 N 0.50477 0.66496 0.88215 0.0
H1428 H 0.94013 0.34463 0.40947 0.0
H1429 H 0.91183 0.23464 0.37638 0.0
H1430 H 0.91857 0.3003 0.45191 0.0
H1431 H 0.91957 0.28402 0.33459 0.0
H1432 H 0.90967 0.25882 0.40399 0.0
H1433 H 0.92885 0.32341 0.38184 0.0
C1434 C 0.93283 0.33042 0.41293 0.0
C1435 C 0.93047 0.32399 0.43289 0.0
C1436 C 0.91141 0.26439 0.38874 0.0
C1437 C 0.91768 0.29947 0.40133 0.0
C1438 C 0.91265 0.2506 0.37294 0.0
C1439 C 0.91644 0.25734 0.35321 0.0
C1440 C 0.91414 0.28499 0.38476 0.0
C1441 C 0.91706 0.27815 0.34962 0.0
C1442 C 0.92628 0.31835 0.39715 0.0
C1443 C 0.92072 0.30564 0.43663 0.0
N1444 N 0.91633 0.29123 0.36532 0.0
N1445 N 0.91498 0.29377 0.42092 0.0
H1446 H 0.5376 0.87886 0.96954 0.0
H1447 H 0.55265 0.88497 0.85021 0.0
H1448 H 0.48939 0.89295 0.92812 0.0
H1449 H 0.59381 0.85687 0.892 0.0
H1450 H 0.53212 0.89651 0.87896 0.0
H1451 H 0.56149 0.88055 0.94162 0.0
C1452 C 0.53209 0.88273 0.95467 0.0
C1453 C 0.51143 0.88522 0.95105 0.0
C1454 C 0.54582 0.88806 0.88176 0.0
C1455 C 0.53859 0.88689 0.91904 0.0
C1456 C 0.55745 0.88148 0.86542 0.0
C1457 C 0.57469 0.86975 0.86885 0.0
C1458 C 0.55175 0.88302 0.90149 0.0
C1459 C 0.58042 0.86564 0.88875 0.0
C1460 C 0.54572 0.88359 0.93871 0.0
C1461 C 0.50517 0.89052 0.93152 0.0
N1462 N 0.56894 0.87218 0.9043 0.0
N1463 N 0.51866 0.89079 0.91612 0.0
H1464 H 0.10764 0.84533 0.14177 0.0
H1465 H 0.1433 0.7379 0.17752 0.0
H1466 H 0.13369 0.80205 0.10079 0.0
H1467 H 0.12792 0.78653 0.21803 0.0
H1468 H 0.14476 0.76201 0.14975 0.0
H1469 H 0.119 0.82509 0.17008 0.0
C1470 C 0.11591 0.83155 0.13877 0.0
C1471 C 0.11954 0.82514 0.119 0.0
C1472 C 0.1415 0.76747 0.16478 0.0
C1473 C 0.13249 0.80171 0.15137 0.0
C1474 C 0.1407 0.75372 0.18069 0.0
C1475 C 0.13495 0.76017 0.20004 0.0
C1476 C 0.13641 0.78771 0.16829 0.0
C1477 C 0.13201 0.78084 0.20329 0.0
C1478 C 0.12251 0.82004 0.15495 0.0
C1479 C 0.13052 0.80735 0.11589 0.0
N1480 N 0.1324 0.79382 0.18749 0.0
N1481 N 0.13635 0.79601 0.13198 0.0
H1482 H 0.98822 0.65707 0.12274 0.0
H1483 H 0.09562 0.69232 0.15843 0.0
H1484 H 0.03691 0.67206 0.08216 0.0
H1485 H 0.05213 0.66664 0.19942 0.0
H1486 H 0.07545 0.6809 0.13012 0.0
H1487 H 1.01227 0.65553 0.15049 0.0
C1488 C 1.00404 0.65958 0.11955 0.0
C1489 C 1.01052 0.66525 0.10019 0.0
C1490 C 0.07034 0.67748 0.14525 0.0
C1491 C 0.03801 0.66369 0.13191 0.0
C1492 C 0.08181 0.68412 0.16143 0.0
C1493 C 0.07531 0.68061 0.1812 0.0
C1494 C 0.05199 0.6676 0.14883 0.0
C1495 C 0.0575 0.66972 0.18432 0.0
C1496 C 1.01776 0.65872 0.13544 0.0
C1497 C 0.03119 0.66804 0.09691 0.0
N1498 N 0.0462 0.66385 0.16823 0.0
N1499 N 0.04416 0.66762 0.1127 0.0
H1500 H 0.92172 0.76355 0.21881 0.0
H1501 H 0.91571 0.7482 0.09957 0.0
H1502 H 0.90764 0.81163 0.17716 0.0
H1503 H 0.94346 0.70695 0.14155 0.0
H1504 H 0.90406 0.76876 0.12824 0.0
H1505 H 0.91986 0.73951 0.19104 0.0
C1506 C 0.91782 0.769 0.20392 0.0
C1507 C 0.9154 0.78966 0.20018 0.0
C1508 C 0.91246 0.75504 0.1311 0.0
C1509 C 0.91354 0.76234 0.16834 0.0
C1510 C 0.91909 0.74338 0.11481 0.0
C1511 C 0.93077 0.72613 0.11832 0.0
C1512 C 0.91738 0.7491 0.15086 0.0
C1513 C 0.93473 0.72037 0.13824 0.0
C1514 C 0.91685 0.75529 0.18805 0.0
C1515 C 0.91004 0.79585 0.18064 0.0
N1516 N 0.92815 0.73188 0.15375 0.0
N1517 N 0.90968 0.78227 0.16533 0.0
H1518 H 0.95472 0.85889 0.15769 0.0
H1519 H 0.0623 0.89408 0.12224 0.0
H1520 H 0.99836 0.88403 0.19878 0.0
H1521 H 1.01384 0.87877 0.08158 0.0
H1522 H 0.0381 0.89576 0.14989 0.0
H1523 H 0.97489 0.87053 0.12942 0.0
C1524 C 0.96856 0.86703 0.16072 0.0
C1525 C 0.97511 0.8703 0.18051 0.0
C1526 C 0.0327 0.89247 0.13485 0.0
C1527 C 0.99844 0.88354 0.14819 0.0
C1528 C 0.0465 0.89153 0.11901 0.0
C1529 C 0.04013 0.88572 0.09967 0.0
C1530 C 1.01247 0.88744 0.13128 0.0
C1531 C 1.01947 0.88289 0.09633 0.0
C1532 C 0.98003 0.87379 0.14456 0.0
C1533 C 0.99295 0.88113 0.18367 0.0
N1534 N 1.00643 0.88339 0.11208 0.0
N1535 N 1.00425 0.8871 0.1676 0.0
H1536 H 0.37203 0.1434 0.31198 0.0
H1537 H 0.40977 0.09917 0.20915 0.0
H1538 H 0.33203 0.12537 0.26391 0.0
H1539 H 0.44922 0.13398 0.24736 0.0
H1540 H 0.381 0.11065 0.22867 0.0
H1541 H 0.40012 0.14331 0.28818 0.0
C1542 C 0.36904 0.1399 0.29632 0.0
C1543 C 0.34974 0.13386 0.29 0.0
C1544 C 0.39587 0.11602 0.23274 0.0
C1545 C 0.38183 0.13352 0.26286 0.0
C1546 C 0.41234 0.10931 0.2217 0.0
C1547 C 0.43184 0.11549 0.22686 0.0
C1548 C 0.39892 0.12871 0.24937 0.0
C1549 C 0.43435 0.12882 0.24305 0.0
C1550 C 0.38512 0.13983 0.28276 0.0
C1551 C 0.34672 0.12975 0.26952 0.0
N1552 N 0.41802 0.13478 0.25401 0.0
N1553 N 0.36269 0.12925 0.25676 0.0
H1554 H 0.38527 0.38571 0.0946 0.0
H1555 H 0.39001 0.42316 0.98126 0.0
H1556 H 0.37946 0.346 0.04349 0.0
H1557 H 0.38775 0.46231 0.03324 0.0
H1558 H 0.39538 0.39436 1.00352 0.0
H1559 H 0.39578 0.41282 0.07218 0.0
C1560 C 0.38664 0.38263 0.07862 0.0
C1561 C 0.38127 0.36378 0.07075 0.0
C1562 C 0.39409 0.4093 1.01002 0.0
C1563 C 0.39277 0.39484 0.04494 0.0
C1564 C 0.39106 0.42579 0.99734 0.0
C1565 C 0.38796 0.44513 1.00548 0.0
C1566 C 0.39406 0.41218 0.03095 0.0
C1567 C 0.38968 0.44762 0.02636 0.0
C1568 C 0.39258 0.39812 0.06582 0.0
C1569 C 0.38344 0.36042 0.05004 0.0
N1570 N 0.39233 0.43128 0.03841 0.0
N1571 N 0.38865 0.376 0.03772 0.0
H1572 H 0.67688 0.40786 0.31312 0.0
H1573 H 0.64165 0.44095 0.20484 0.0
H1574 H 0.71771 0.42097 0.2641 0.0
H1575 H 0.6003 0.41702 0.24898 0.0
H1576 H 0.66983 0.42959 0.22529 0.0
H1577 H 0.64909 0.40624 0.28912 0.0
C1578 C 0.68011 0.40995 0.29725 0.0
C1579 C 0.69957 0.41508 0.29064 0.0
C1580 C 0.65464 0.42653 0.23048 0.0
C1581 C 0.6678 0.41343 0.26319 0.0
C1582 C 0.63854 0.43312 0.21885 0.0
C1583 C 0.61871 0.43011 0.22544 0.0
C1584 C 0.65092 0.4172 0.2491 0.0
C1585 C 0.61545 0.41969 0.24351 0.0
C1586 C 0.66419 0.40905 0.28356 0.0
C1587 C 0.70289 0.41736 0.26991 0.0
N1588 N 0.63147 0.41388 0.25496 0.0
N1589 N 0.68707 0.4169 0.25696 0.0
H1590 H 0.65697 0.12329 0.98815 0.0
H1591 H 0.69247 0.15887 0.09555 0.0
H1592 H 0.67224 0.08263 0.03667 0.0
H1593 H 0.66706 0.20001 0.05205 0.0
H1594 H 0.68095 0.13058 0.07537 0.0
H1595 H 0.65555 0.15105 1.01224 0.0
C1596 C 0.65956 0.12009 1.00394 0.0
C1597 C 0.66527 0.1007 1.01036 0.0
C1598 C 0.67762 0.14574 0.07025 0.0
C1599 C 0.66385 0.13244 0.0379 0.0
C1600 C 0.6843 0.16191 0.08173 0.0
C1601 C 0.6809 0.18172 0.07524 0.0
C1602 C 0.6678 0.14936 0.05188 0.0
C1603 C 0.67005 0.18488 0.05742 0.0
C1604 C 0.65878 0.13599 1.01768 0.0
C1605 C 0.66819 0.0974 0.031 0.0
N1606 N 0.66414 0.16879 0.04611 0.0
N1607 N 0.66782 0.1132 0.04398 0.0
H1608 H 0.38138 0.91982 0.23084 0.0
H1609 H 0.41289 0.93189 0.34387 0.0
H1610 H 0.33951 0.91498 0.28049 0.0
H1611 H 0.45659 0.92179 0.29679 0.0
H1612 H 0.38618 0.92126 0.32116 0.0
H1613 H 0.40931 0.9158 0.2544 0.0
C1614 C 0.37803 0.91754 0.24666 0.0
C1615 C 0.35811 0.91827 0.25382 0.0
C1616 C 0.4016 0.92099 0.31579 0.0
C1617 C 0.38999 0.91379 0.28081 0.0
C1618 C 0.41684 0.92714 0.32874 0.0
C1619 C 0.43682 0.92791 0.322 0.0
C1620 C 0.40633 0.91608 0.29577 0.0
C1621 C 0.44127 0.92144 0.30241 0.0
C1622 C 0.39401 0.9152 0.26009 0.0
C1623 C 0.35465 0.91492 0.27438 0.0
N1624 N 0.42602 0.91617 0.28976 0.0
N1625 N 0.37047 0.9132 0.28721 0.0
H1626 H 0.16801 0.38375 0.96401 0.0
H1627 H 0.18404 0.41182 0.07526 0.0
H1628 H 0.17496 0.33723 1.0089 0.0
H1629 H 0.14593 0.44875 0.03761 0.0
H1630 H 0.1801 0.38394 0.05155 0.0
H1631 H 0.15849 0.40758 0.99047 0.0
C1632 C 0.16707 0.37849 0.97946 0.0
C1633 C 0.17235 0.35865 0.98445 0.0
C1634 C 0.17226 0.39799 0.04866 0.0
C1635 C 0.16205 0.38581 1.01469 0.0
C1636 C 0.17464 0.41394 0.06207 0.0
C1637 C 0.16548 0.43259 0.05815 0.0
C1638 C 0.16112 0.40094 0.03096 0.0
C1639 C 0.15328 0.43456 0.04104 0.0
C1640 C 0.16158 0.39204 0.99451 0.0
C1641 C 0.17094 0.35246 1.00456 0.0
N1642 N 0.15181 0.41901 0.02776 0.0
N1643 N 0.16638 0.36618 1.01911 0.0
H1644 H 0.63993 0.61013 0.3339 0.0
H1645 H 0.6606 0.65308 0.22485 0.0
H1646 H 0.59283 0.63676 0.29781 0.0
H1647 H 0.70731 0.63646 0.267 0.0
H1648 H 0.63589 0.65157 0.25219 0.0
H1649 H 0.66495 0.62306 0.3105 0.0
C1650 C 0.63488 0.61883 0.32102 0.0
C1651 C 0.61433 0.62224 0.31759 0.0
C1652 C 0.65161 0.64869 0.25553 0.0
C1653 C 0.64293 0.63703 0.29055 0.0
C1654 C 0.66576 0.64966 0.23995 0.0
C1655 C 0.68596 0.64448 0.24361 0.0
C1656 C 0.65778 0.64243 0.27478 0.0
C1657 C 0.69181 0.64019 0.26345 0.0
C1658 C 0.64919 0.62633 0.3077 0.0
C1659 C 0.60859 0.63377 0.30085 0.0
N1660 N 0.67773 0.63893 0.27821 0.0
N1661 N 0.62285 0.64054 0.2877 0.0
H1662 H 0.89345 0.1231 0.06195 0.0
H1663 H 0.85808 0.15863 0.95455 0.0
H1664 H 0.87859 0.08235 1.01341 0.0
H1665 H 0.88372 0.19972 0.9979 0.0
H1666 H 0.8696 0.13032 0.97475 0.0
H1667 H 0.89494 0.15082 0.03783 0.0
C1668 C 0.89096 0.11987 0.04615 0.0
C1669 C 0.88533 0.10047 0.03973 0.0
C1670 C 0.87299 0.14547 0.97981 0.0
C1671 C 0.88683 0.13217 1.01215 0.0
C1672 C 0.8663 0.16165 0.96833 0.0
C1673 C 0.86976 0.18145 0.97478 0.0
C1674 C 0.88288 0.14909 0.99814 0.0
C1675 C 0.88067 0.1846 0.99256 0.0
C1676 C 0.89179 0.13575 0.03239 0.0
C1677 C 0.88257 0.09714 1.01908 0.0
N1678 N 0.88659 0.16851 1.00388 0.0
N1679 N 0.88296 0.11293 1.00607 0.0
H1680 H 0.32436 0.38682 0.11791 0.0
H1681 H 0.21755 0.42173 0.14558 0.0
H1682 H 0.29112 0.3554 0.16414 0.0
H1683 H 0.26264 0.46447 0.12649 0.0
H1684 H 0.24424 0.3981 0.15502 0.0
H1685 H 0.30255 0.41611 0.12237 0.0
C1686 C 0.31253 0.38623 0.12917 0.0
C1687 C 0.30925 0.3687 0.14051 0.0
C1688 C 0.24835 0.41287 0.14935 0.0
C1689 C 0.28415 0.402 0.14554 0.0
C1690 C 0.23315 0.42633 0.14396 0.0
C1691 C 0.23803 0.44491 0.13517 0.0
C1692 C 0.26848 0.41786 0.14529 0.0
C1693 C 0.25836 0.45024 0.13328 0.0
C1694 C 0.30022 0.403 0.13184 0.0
C1695 C 0.29396 0.36869 0.15507 0.0
N1696 N 0.27291 0.43651 0.1378 0.0
N1697 N 0.28159 0.385 0.15687 0.0
H1698 H 0.26839 0.71573 0.42497 0.0
H1699 H 0.25093 0.59647 0.4206 0.0
H1700 H 0.31682 0.67307 0.41582 0.0
H1701 H 0.21152 0.63916 0.44996 0.0
H1702 H 0.27251 0.62473 0.40971 0.0
H1703 H 0.24432 0.6879 0.4239 0.0
C1704 C 0.27393 0.70058 0.42234 0.0
C1705 C 0.29464 0.69662 0.42099 0.0
C1706 C 0.25899 0.62782 0.41833 0.0
C1707 C 0.26728 0.66481 0.41989 0.0
C1708 C 0.24677 0.61178 0.42454 0.0
C1709 C 0.22971 0.61561 0.43639 0.0
C1710 C 0.25373 0.64764 0.42377 0.0
C1711 C 0.22477 0.63561 0.44108 0.0
C1712 C 0.26021 0.6847 0.42182 0.0
C1713 C 0.30097 0.67672 0.41734 0.0
N1714 N 0.23675 0.65088 0.4348 0.0
N1715 N 0.28734 0.66146 0.41723 0.0
H1716 H 0.96776 0.53594 0.88182 0.0
H1717 H 0.84825 0.55106 0.8845 0.0
H1718 H 0.92572 0.48704 0.89101 0.0
H1719 H 0.89098 0.59278 0.85869 0.0
H1720 H 0.87662 0.53007 0.89621 0.0
H1721 H 0.93977 0.55978 0.88376 0.0
C1722 C 0.95272 0.53024 0.88464 0.0
C1723 C 0.94897 0.50947 0.88568 0.0
C1724 C 0.87969 0.54399 0.88824 0.0
C1725 C 0.91693 0.53658 0.88771 0.0
C1726 C 0.86358 0.55589 0.88158 0.0
C1727 C 0.86742 0.57339 0.8704 0.0
C1728 C 0.89958 0.54997 0.88388 0.0
C1729 C 0.88744 0.57917 0.86701 0.0
C1730 C 0.93674 0.54384 0.88568 0.0
C1731 C 0.92921 0.50294 0.8897 0.0
N1732 N 0.90277 0.56744 0.87363 0.0
N1733 N 0.91383 0.51644 0.89019 0.0
H1734 H 0.79054 0.96311 0.42168 0.0
H1735 H 0.76355 0.85016 0.38876 0.0
H1736 H 0.83521 0.91645 0.41397 0.0
H1737 H 0.72667 0.88662 0.42803 0.0
H1738 H 0.7873 0.87864 0.38552 0.0
H1739 H 0.76433 0.93905 0.41112 0.0
C1740 C 0.79485 0.948 0.41715 0.0
C1741 C 0.81487 0.94154 0.41885 0.0
C1742 C 0.77373 0.88045 0.39443 0.0
C1743 C 0.78536 0.91432 0.4067 0.0
C1744 C 0.76026 0.86432 0.39624 0.0
C1745 C 0.74345 0.86616 0.40887 0.0
C1746 C 0.7699 0.89848 0.40494 0.0
C1747 C 0.73971 0.88467 0.41836 0.0
C1748 C 0.77997 0.93432 0.41124 0.0
C1749 C 0.81981 0.92183 0.41302 0.0
N1750 N 0.7529 0.90013 0.41628 0.0
N1751 N 0.80511 0.9088 0.40733 0.0
H1752 H 0.70346 0.50028 0.38295 0.0
H1753 H 0.58406 0.51626 0.38164 0.0
H1754 H 0.66001 0.45775 0.35988 0.0
H1755 H 0.62665 0.56506 0.38849 0.0
H1756 H 0.61185 0.49224 0.3841 0.0
H1757 H 0.67544 0.52191 0.39436 0.0
C1758 C 0.68805 0.49541 0.38058 0.0
C1759 C 0.6839 0.47748 0.37024 0.0
C1760 C 0.61506 0.50821 0.38539 0.0
C1761 C 0.65214 0.50166 0.38337 0.0
C1762 C 0.59919 0.52192 0.38406 0.0
C1763 C 0.60313 0.54268 0.38429 0.0
C1764 C 0.63495 0.51535 0.3869 0.0
C1765 C 0.623 0.54916 0.3878 0.0
C1766 C 0.67213 0.50768 0.38707 0.0
C1767 C 0.66378 0.47167 0.36754 0.0
N1768 N 0.63826 0.53553 0.3886 0.0
N1769 N 0.64865 0.48378 0.37396 0.0
H1770 H 0.29281 0.59437 0.62879 0.0
H1771 H 0.28265 0.71328 0.6393 0.0
H1772 H 0.34234 0.63647 0.62768 0.0
H1773 H 0.23172 0.67275 0.63825 0.0
H1774 H 0.30497 0.68438 0.64397 0.0
H1775 H 0.27054 0.62169 0.64053 0.0
C1776 C 0.29904 0.60922 0.63151 0.0
C1777 C 0.31923 0.6134 0.62698 0.0
C1778 C 0.28887 0.6818 0.64305 0.0
C1779 C 0.29418 0.64446 0.64024 0.0
C1780 C 0.27615 0.69833 0.64041 0.0
C1781 C 0.25541 0.69535 0.63787 0.0
C1782 C 0.2808 0.66217 0.64279 0.0
C1783 C 0.2477 0.6757 0.63983 0.0
C1784 C 0.28639 0.6248 0.63814 0.0
C1785 C 0.32671 0.6328 0.63069 0.0
N1786 N 0.26045 0.65978 0.64171 0.0
N1787 N 0.31414 0.64766 0.63687 0.0
H1788 H 0.91641 0.57077 0.6893 0.0
H1789 H 0.87473 0.47055 0.65276 0.0
H1790 H 0.93816 0.5477 0.63254 0.0
H1791 H 0.8345 0.51411 0.67941 0.0
H1792 H 0.89805 0.49783 0.64401 0.0
H1793 H 0.8864 0.54968 0.68616 0.0
C1794 C 0.91473 0.56129 0.67609 0.0
C1795 C 0.92974 0.56067 0.66124 0.0
C1796 C 0.88383 0.5015 0.65118 0.0
C1797 C 0.89564 0.53652 0.65763 0.0
C1798 C 0.87057 0.48599 0.65616 0.0
C1799 C 0.85279 0.49025 0.66675 0.0
C1800 C 0.87955 0.52119 0.65758 0.0
C1801 C 0.84805 0.51036 0.67108 0.0
C1802 C 0.89753 0.54948 0.6742 0.0
C1803 C 0.92686 0.54842 0.6443 0.0
N1804 N 0.86168 0.52512 0.66698 0.0
N1805 N 0.91027 0.53637 0.64315 0.0
H1806 H 0.15861 0.09477 0.69374 0.0
H1807 H 0.12314 0.98768 0.65724 0.0
H1808 H 0.19968 0.052 0.66693 0.0
H1809 H 0.08235 0.03621 0.67232 0.0
H1810 H 0.15087 1.0118 0.65609 0.0
H1811 H 0.13032 0.07454 0.6823 0.0
C1812 C 0.16163 0.0811 0.68529 0.0
C1813 C 0.18143 0.07484 0.68146 0.0
C1814 C 0.13579 1.01724 0.65922 0.0
C1815 C 0.14908 0.05145 0.6684 0.0
C1816 C 0.1199 1.00348 0.65985 0.0
C1817 C 0.10048 1.00988 0.66542 0.0
C1818 C 0.13219 0.03746 0.66432 0.0
C1819 C 0.09715 0.03054 0.66836 0.0
C1820 C 0.14546 0.06961 0.67864 0.0
C1821 C 0.18456 0.0572 0.67026 0.0
N1822 N 0.11294 0.04354 0.66816 0.0
N1823 N 0.16849 0.04587 0.66438 0.0
H1824 H 0.64344 0.81253 0.87336 0.0
H1825 H 0.60917 0.70457 0.90896 0.0
H1826 H 0.62884 0.76377 0.83276 0.0
H1827 H 0.63385 0.74849 0.95006 0.0
H1828 H 0.62051 0.72491 0.88069 0.0
H1829 H 0.64503 0.78845 0.90112 0.0
C1830 C 0.64102 0.79669 0.87017 0.0
C1831 C 0.63547 0.79019 0.85079 0.0
C1832 C 0.62373 0.73008 0.89584 0.0
C1833 C 0.63708 0.76266 0.88254 0.0
C1834 C 0.61715 0.71851 0.91199 0.0
C1835 C 0.62039 0.72507 0.93178 0.0
C1836 C 0.63328 0.74861 0.89946 0.0
C1837 C 0.63099 0.74305 0.93494 0.0
C1838 C 0.6419 0.78295 0.88607 0.0
C1839 C 0.63278 0.7695 0.84752 0.0
N1840 N 0.6368 0.75445 0.91887 0.0
N1841 N 0.63324 0.75651 0.86332 0.0
H1842 H 1.00269 0.16289 0.34067 0.0
H1843 H 0.03305 0.16285 0.45726 0.0
H1844 H 0.96806 0.1899 0.38867 0.0
H1845 H 0.07517 0.14855 0.4097 0.0
H1846 H 1.00597 0.16394 0.43246 0.0
H1847 H 0.02667 0.14992 0.36592 0.0
C1848 C 1.00006 0.16587 0.35651 0.0
C1849 C 0.98362 0.17764 0.36267 0.0
C1850 C 1.02108 0.16024 0.42747 0.0
C1851 C 1.01049 0.16276 0.39139 0.0
C1852 C 0.03652 0.15952 0.44164 0.0
C1853 C 0.05642 0.15601 0.43545 0.0
C1854 C 0.0256 0.1576 0.40695 0.0
C1855 C 0.06003 0.15151 0.41508 0.0
C1856 C 1.01366 0.15849 0.37086 0.0
C1857 C 0.98072 0.18108 0.3833 0.0
N1858 N 0.0448 0.15281 0.40144 0.0
N1859 N 0.99406 0.17375 0.39689 0.0
H1860 H 0.44404 0.84542 0.90873 0.0
H1861 H 0.40725 0.73853 0.87245 0.0
H1862 H 0.41749 0.80223 0.94948 0.0
H1863 H 0.42295 0.78719 0.83209 0.0
H1864 H 0.4063 0.76246 0.90036 0.0
H1865 H 0.43266 0.82534 0.88031 0.0
C1866 C 0.43566 0.83169 0.91165 0.0
C1867 C 0.43188 0.82527 0.9314 0.0
C1868 C 0.40952 0.76797 0.88533 0.0
C1869 C 0.4189 0.80205 0.8989 0.0
C1870 C 0.41003 0.75433 0.86934 0.0
C1871 C 0.41568 0.76081 0.84998 0.0
C1872 C 0.41482 0.78817 0.88191 0.0
C1873 C 0.41889 0.78146 0.84683 0.0
C1874 C 0.42905 0.82028 0.89541 0.0
C1875 C 0.42077 0.80756 0.93441 0.0
N1876 N 0.41878 0.79435 0.86271 0.0
N1877 N 0.41492 0.79631 0.91826 0.0
H1878 H 0.03668 0.38093 0.46882 0.0
H1879 H 0.05127 0.38521 0.3494 0.0
H1880 H 0.98801 0.39237 0.42712 0.0
H1881 H 0.09361 0.35965 0.39164 0.0
H1882 H 0.03057 0.39687 0.37797 0.0
H1883 H 0.06056 0.38327 0.44091 0.0
C1884 C 0.03104 0.38433 0.45388 0.0
C1885 C 1.01031 0.38586 0.45018 0.0
C1886 C 0.04457 0.38897 0.3809 0.0
C1887 C 0.03745 0.3883 0.4182 0.0
C1888 C 0.0563 0.38234 0.36466 0.0
C1889 C 0.0739 0.37123 0.36829 0.0
C1890 C 0.05075 0.38462 0.40072 0.0
C1891 C 0.07993 0.36791 0.38825 0.0
C1892 C 0.04467 0.38559 0.43794 0.0
C1893 C 1.00387 0.39065 0.43057 0.0
N1894 N 0.06832 0.37447 0.40371 0.0
N1895 N 1.01738 0.3913 0.4152 0.0
H1896 H 0.63013 0.28694 0.71846 0.0
H1897 H 0.6347 0.30238 0.59915 0.0
H1898 H 0.6421 0.2386 0.67647 0.0
H1899 H 0.60857 0.3442 0.64159 0.0
H1900 H 0.64634 0.28153 0.62761 0.0
H1901 H 0.63226 0.311 0.6907 0.0
C1902 C 0.63361 0.28142 0.70349 0.0
C1903 C 0.63535 0.26071 0.69967 0.0
C1904 C 0.63832 0.29545 0.63061 0.0
C1905 C 0.63755 0.28807 0.66786 0.0
C1906 C 0.63169 0.30727 0.61444 0.0
C1907 C 0.62045 0.32477 0.61815 0.0
C1908 C 0.63382 0.30146 0.65046 0.0
C1909 C 0.61695 0.33061 0.63814 0.0
C1910 C 0.63474 0.29515 0.68763 0.0
C1911 C 0.64022 0.25443 0.68002 0.0
N1912 N 0.62351 0.31892 0.65353 0.0
N1913 N 0.64076 0.26803 0.66474 0.0
H1914 H 0.55192 0.16597 0.70039 0.0
H1915 H 0.5369 0.1707 0.58101 0.0
H1916 H 0.5936 0.19263 0.65815 0.0
H1917 H 0.48848 0.15821 0.62276 0.0
H1918 H 0.56081 0.16887 0.60889 0.0
H1919 H 0.53121 0.15437 0.67183 0.0
C1920 C 0.5568 0.16911 0.68513 0.0
C1921 C 0.57423 0.18048 0.6815 0.0
C1922 C 0.54497 0.16621 0.61188 0.0
C1923 C 0.55108 0.16714 0.64909 0.0
C1924 C 0.53133 0.16716 0.59595 0.0
C1925 C 0.51063 0.16517 0.59966 0.0
C1926 C 0.53782 0.16332 0.63162 0.0
C1927 C 0.5043 0.16025 0.61929 0.0
C1928 C 0.54506 0.16251 0.66889 0.0
C1929 C 0.58006 0.18415 0.66154 0.0
N1930 N 0.51782 0.15989 0.63464 0.0
N1931 N 0.56846 0.1776 0.6461 0.0
H1932 H 0.44263 0.20546 0.64147 0.0
H1933 H 0.40737 0.31317 0.67667 0.0
H1934 H 0.41718 0.24885 0.60023 0.0
H1935 H 0.42185 0.26452 0.7175 0.0
H1936 H 0.40606 0.28902 0.64897 0.0
H1937 H 0.43114 0.22581 0.66967 0.0
C1938 C 0.43446 0.21929 0.63839 0.0
C1939 C 0.43104 0.22569 0.61858 0.0
C1940 C 0.40909 0.28357 0.66405 0.0
C1941 C 0.41796 0.24923 0.65082 0.0
C1942 C 0.40982 0.29733 0.67992 0.0
C1943 C 0.41526 0.29089 0.69935 0.0
C1944 C 0.41397 0.26329 0.66767 0.0
C1945 C 0.418 0.27021 0.7027 0.0
C1946 C 0.42779 0.23086 0.65451 0.0
C1947 C 0.42019 0.24354 0.61536 0.0
N1948 N 0.4177 0.25719 0.68693 0.0
N1949 N 0.41429 0.25494 0.63139 0.0
H1950 H 0.4985 0.38526 0.70079 0.0
H1951 H 0.51365 0.38072 0.58147 0.0
H1952 H 0.4566 0.35923 0.65844 0.0
H1953 H 0.56203 0.39276 0.62332 0.0
H1954 H 0.48964 0.38294 0.60927 0.0
H1955 H 0.51924 0.39698 0.67228 0.0
C1956 C 0.49358 0.38228 0.68551 0.0
C1957 C 0.47609 0.37105 0.68184 0.0
C1958 C 0.50549 0.38542 0.6123 0.0
C1959 C 0.49927 0.3845 0.64948 0.0
C1960 C 0.51919 0.38423 0.59642 0.0
C1961 C 0.53989 0.38596 0.6002 0.0
C1962 C 0.51261 0.38825 0.63205 0.0
C1963 C 0.5462 0.39089 0.61981 0.0
C1964 C 0.50533 0.38896 0.66931 0.0
C1965 C 0.4702 0.36759 0.66187 0.0
N1966 N 0.53263 0.39146 0.63512 0.0
N1967 N 0.48182 0.37419 0.64645 0.0
H1968 H 0.83404 0.63616 0.76548 0.0
H1969 H 0.95327 0.63254 0.75437 0.0
H1970 H 0.87515 0.64107 0.81568 0.0
H1971 H 0.91101 0.6255 0.7055 0.0
H1972 H 0.9254 0.64373 0.77616 0.0
H1973 H 0.86235 0.64087 0.74244 0.0
C1974 C 0.84896 0.63859 0.77166 0.0
C1975 C 0.85232 0.63767 0.79247 0.0
C1976 C 0.92233 0.64012 0.76054 0.0
C1977 C 0.88483 0.64272 0.76628 0.0
C1978 C 0.93822 0.63381 0.74816 0.0
C1979 C 0.93425 0.62781 0.72833 0.0
C1980 C 0.90253 0.64041 0.75287 0.0
C1981 C 0.91458 0.62968 0.72087 0.0
C1982 C 0.86515 0.64125 0.75852 0.0
C1983 C 0.87191 0.64128 0.79969 0.0
N1984 N 0.89942 0.63558 0.7332 0.0
N1985 N 0.88752 0.64322 0.7866 0.0
H1986 H 0.88468 0.96239 0.52956 0.0
H1987 H 0.88017 0.8434 0.54802 0.0
H1988 H 0.88043 0.91843 0.48169 0.0
H1989 H 0.86751 0.88876 0.59288 0.0
H1990 H 0.89024 0.87027 0.52444 0.0
H1991 H 0.88889 0.9349 0.55373 0.0
C1992 C 0.88492 0.94699 0.5241 0.0
C1993 C 0.88165 0.94264 0.5037 0.0
C1994 C 0.88561 0.87424 0.53959 0.0
C1995 C 0.8864 0.91123 0.53118 0.0
C1996 C 0.87993 0.85896 0.55298 0.0
C1997 C 0.87277 0.86404 0.57217 0.0
C1998 C 0.88427 0.89452 0.54571 0.0
C1999 C 0.87268 0.88433 0.57803 0.0
C2000 C 0.88732 0.93132 0.53788 0.0
C2001 C 0.88247 0.92243 0.49738 0.0
N2002 N 0.87819 0.89886 0.56479 0.0
N2003 N 0.88445 0.90742 0.51113 0.0
H2004 H 0.10039 0.91608 0.74893 0.0
H2005 H 0.21985 0.92229 0.7639 0.0
H2006 H 0.14217 0.94357 0.70732 0.0
H2007 H 0.1784 0.9088 0.8123 0.0
H2008 H 0.19185 0.92074 0.74011 0.0
H2009 H 0.12915 0.90512 0.76974 0.0
C2010 C 0.1156 0.91956 0.7441 0.0
C2011 C 0.11901 0.93093 0.72663 0.0
C2012 C 0.18895 0.91781 0.75591 0.0
C2013 C 0.15168 0.91833 0.7499 0.0
C2014 C 0.20495 0.91861 0.76948 0.0
C2015 C 0.20138 0.91619 0.79016 0.0
C2016 C 0.16925 0.91466 0.7631 0.0
C2017 C 0.18179 0.91113 0.7965 0.0
C2018 C 0.13195 0.91332 0.75589 0.0
C2019 C 0.13892 0.93505 0.72087 0.0
N2020 N 0.16635 0.9109 0.78306 0.0
N2021 N 0.15448 0.92883 0.73252 0.0
H2022 H 0.16719 0.58174 0.53779 0.0
H2023 H 0.16573 0.70157 0.54975 0.0
H2024 H 0.15765 0.62254 0.48792 0.0
H2025 H 0.19121 0.65935 0.59218 0.0
H2026 H 0.15315 0.6729 0.52968 0.0
H2027 H 0.16497 0.61027 0.5609 0.0
C2028 C 0.1642 0.59662 0.53173 0.0
C2029 C 0.16325 0.59987 0.51089 0.0
C2030 C 0.16124 0.67002 0.54356 0.0
C2031 C 0.16099 0.63255 0.53715 0.0
C2032 C 0.16843 0.6863 0.55491 0.0
C2033 C 0.17979 0.68268 0.57232 0.0
C2034 C 0.16524 0.65019 0.55002 0.0
C2035 C 0.18282 0.66273 0.57858 0.0
C2036 C 0.16301 0.61292 0.54491 0.0
C2037 C 0.15894 0.61942 0.50389 0.0
N2038 N 0.17568 0.64725 0.5674 0.0
N2039 N 0.15841 0.63515 0.51698 0.0
H2040 H 0.88393 0.42667 0.72863 0.0
H2041 H 0.91278 0.43089 0.84288 0.0
H2042 H 0.84122 0.41514 0.77643 0.0
H2043 H 0.9577 0.42462 0.79628 0.0
H2044 H 0.88673 0.42163 0.81879 0.0
H2045 H 0.91145 0.42252 0.75262 0.0
C2046 C 0.88034 0.423 0.74413 0.0
C2047 C 0.86025 0.4217 0.75069 0.0
C2048 C 0.90229 0.42188 0.81383 0.0
C2049 C 0.89166 0.41698 0.77815 0.0
C2050 C 0.91714 0.42724 0.82755 0.0
C2051 C 0.93726 0.42869 0.82137 0.0
C2052 C 0.90756 0.41848 0.79364 0.0
C2053 C 0.94226 0.42368 0.8015 0.0
C2054 C 0.89608 0.42053 0.75779 0.0
C2055 C 0.85648 0.41661 0.77083 0.0
N2056 N 0.92738 0.41918 0.78813 0.0
N2057 N 0.87206 0.41477 0.78395 0.0
H2058 H 0.66884 0.84571 0.50584 0.0
H2059 H 0.66163 0.96474 0.51615 0.0
H2060 H 0.66994 0.88756 0.45608 0.0
H2061 H 0.66056 0.92394 0.5669 0.0
H2062 H 0.65629 0.93611 0.49366 0.0
H2063 H 0.65784 0.87329 0.52809 0.0
C2064 C 0.66624 0.86057 0.49955 0.0
C2065 C 0.67058 0.86458 0.47929 0.0
C2066 C 0.6569 0.93343 0.50975 0.0
C2067 C 0.65825 0.89599 0.50437 0.0
C2068 C 0.65994 0.94981 0.52258 0.0
C2069 C 0.66207 0.94665 0.54333 0.0
C2070 C 0.65632 0.91377 0.51775 0.0
C2071 C 0.65936 0.92703 0.55092 0.0
C2072 C 0.66005 0.87631 0.5122 0.0
C2073 C 0.66706 0.88401 0.47176 0.0
N2074 N 0.65706 0.91126 0.53809 0.0
N2075 N 0.66136 0.89905 0.48434 0.0
H2076 H 0.14185 0.10822 0.84529 0.0
H2077 H 0.17777 0.14367 0.73796 0.0
H2078 H 0.10087 0.13373 0.80172 0.0
H2079 H 0.21826 0.1287 0.78668 0.0
H2080 H 0.14993 0.14512 0.76197 0.0
H2081 H 0.17019 0.11978 0.82517 0.0
C2082 C 0.13886 0.11641 0.83147 0.0
C2083 C 0.11908 0.11983 0.82494 0.0
C2084 C 0.16497 0.14195 0.76747 0.0
C2085 C 0.15149 0.13299 0.80167 0.0
C2086 C 0.18092 0.14115 0.75378 0.0
C2087 C 0.20029 0.13551 0.76028 0.0
C2088 C 0.16845 0.13696 0.78772 0.0
C2089 C 0.20351 0.13269 0.78095 0.0
C2090 C 0.15506 0.12313 0.82003 0.0
C2091 C 0.11597 0.13072 0.80712 0.0
N2092 N 0.18766 0.13306 0.79388 0.0
N2093 N 0.13208 0.13665 0.79585 0.0
H2094 H 0.38068 0.71209 0.50845 0.0
H2095 H 0.40829 0.59707 0.53284 0.0
H2096 H 0.38121 0.66508 0.46354 0.0
H2097 H 0.37561 0.63597 0.57342 0.0
H2098 H 0.41085 0.62529 0.5087 0.0
H2099 H 0.39149 0.68723 0.53382 0.0
C2100 C 0.38361 0.69668 0.50387 0.0
C2101 C 0.37989 0.69044 0.48407 0.0
C2102 C 0.40357 0.62769 0.52313 0.0
C2103 C 0.39237 0.66229 0.51261 0.0
C2104 C 0.40219 0.6117 0.53683 0.0
C2105 C 0.39161 0.61438 0.55488 0.0
C2106 C 0.39468 0.64636 0.52791 0.0
C2107 C 0.38376 0.63345 0.55948 0.0
C2108 C 0.38969 0.68255 0.51828 0.0
C2109 C 0.38374 0.67033 0.47879 0.0
N2110 N 0.38537 0.64874 0.54602 0.0
N2111 N 0.38967 0.65688 0.49302 0.0
H2112 H 0.74993 0.95266 0.63402 0.0
H2113 H 0.765 0.83307 0.63194 0.0
H2114 H 0.70835 0.90974 0.60838 0.0
H2115 H 0.81396 0.87509 0.64082 0.0
H2116 H 0.74123 0.86112 0.63383 0.0
H2117 H 0.77094 0.92434 0.64589 0.0
C2118 C 0.74514 0.9373 0.63117 0.0
C2119 C 0.72767 0.93339 0.61999 0.0
C2120 C 0.75717 0.86414 0.63569 0.0
C2121 C 0.75109 0.9013 0.63367 0.0
C2122 C 0.77073 0.84812 0.63469 0.0
C2123 C 0.79149 0.85183 0.63565 0.0
C2124 C 0.76446 0.88394 0.6376 0.0
C2125 C 0.79806 0.87161 0.63957 0.0
C2126 C 0.75704 0.92122 0.63792 0.0
C2127 C 0.72193 0.91333 0.61669 0.0
N2128 N 0.78459 0.88703 0.64002 0.0
N2129 N 0.73366 0.89804 0.62341 0.0
H2130 H 0.81212 0.17819 0.90637 0.0
H2131 H 0.70496 0.14251 0.94254 0.0
H2132 H 0.76363 0.21882 0.922 0.0
H2133 H 0.7482 0.10149 0.91641 0.0
H2134 H 0.72505 0.17085 0.93095 0.0
H2135 H 0.78799 0.15047 0.90492 0.0
C2136 C 0.79632 0.1814 0.90903 0.0
C2137 C 0.78993 0.20076 0.91486 0.0
C2138 C 0.73012 0.15571 0.92747 0.0
C2139 C 0.76236 0.16906 0.91342 0.0
C2140 C 0.7187 0.13951 0.93421 0.0
C2141 C 0.72515 0.11971 0.93062 0.0
C2142 C 0.74839 0.15212 0.91742 0.0
C2143 C 0.74287 0.11661 0.91955 0.0
C2144 C 0.78256 0.16552 0.90824 0.0
C2145 C 0.76928 0.20406 0.91786 0.0
N2146 N 0.75413 0.13271 0.9136 0.0
N2147 N 0.75629 0.18828 0.91749 0.0
H2148 H 0.34926 0.05142 0.38406 0.0
H2149 H 0.46878 0.03668 0.37894 0.0
H2150 H 0.39128 0.0938 0.35814 0.0
H2151 H 0.42708 0.98792 0.39017 0.0
H2152 H 0.44079 0.06051 0.38103 0.0
H2153 H 0.37794 0.0305 0.39505 0.0
C2154 C 0.36451 0.05641 0.38097 0.0
C2155 C 0.36803 0.07411 0.36998 0.0
C2156 C 0.43783 0.04461 0.38335 0.0
C2157 C 0.40059 0.0507 0.38259 0.0
C2158 C 0.45382 0.03101 0.38223 0.0
C2159 C 0.45017 1.01026 0.38384 0.0
C2160 C 0.41809 0.03736 0.38603 0.0
C2161 C 0.43051 1.00379 0.38842 0.0
C2162 C 0.38081 0.04454 0.38721 0.0
C2163 C 0.38797 0.08006 0.36634 0.0
N2164 N 0.41511 1.01727 0.389 0.0
N2165 N 0.40349 0.06833 0.37253 0.0
H2166 H 0.29784 0.45609 0.91882 0.0
H2167 H 0.28154 0.33674 0.91536 0.0
H2168 H 0.34225 0.41146 0.93521 0.0
H2169 H 0.23263 0.3798 0.91671 0.0
H2170 H 0.30532 0.36462 0.91172 0.0
H2171 H 0.27518 0.42872 0.90791 0.0
C2172 C 0.30291 0.44058 0.91973 0.0
C2173 C 0.32167 0.43585 0.92816 0.0
C2174 C 0.28934 0.36792 0.91251 0.0
C2175 C 0.29632 0.40484 0.91564 0.0
C2176 C 0.27578 0.35201 0.91457 0.0
C2177 C 0.25517 0.35601 0.91693 0.0
C2178 C 0.28221 0.38788 0.91286 0.0
C2179 C 0.24848 0.37607 0.91539 0.0
C2180 C 0.29005 0.42503 0.91356 0.0
C2181 C 0.3277 0.41563 0.92907 0.0
N2182 N 0.26201 0.39133 0.91381 0.0
N2183 N 0.31502 0.40085 0.92302 0.0
H2184 H 0.15931 0.95509 0.85801 0.0
H2185 H 0.12272 0.06246 0.8933 0.0
H2186 H 0.19993 0.99897 0.88353 0.0
H2187 H 0.08254 1.01367 0.87769 0.0
H2188 H 0.15064 0.03853 0.89474 0.0
H2189 H 0.13081 0.97519 0.86923 0.0
C2190 C 0.16219 0.96897 0.86613 0.0
C2191 C 0.18192 0.97559 0.86966 0.0
C2192 C 0.13564 0.03299 0.89143 0.0
C2193 C 0.14932 0.99884 0.88244 0.0
C2194 C 0.11965 0.04663 0.89063 0.0
C2195 C 0.10035 0.0401 0.88485 0.0
C2196 C 0.13228 1.01274 0.88629 0.0
C2197 C 0.09723 1.01943 0.88182 0.0
C2198 C 0.1459 0.9804 0.87266 0.0
C2199 C 0.18487 0.99349 0.88045 0.0
N2200 N 0.11312 1.00654 0.88221 0.0
N2201 N 0.16868 1.00475 0.88621 0.0
H2202 H 0.80226 0.09994 0.13443 0.0
H2203 H 0.78716 0.2194 0.12891 0.0
H2204 H 0.84372 0.14198 0.10711 0.0
H2205 H 0.7389 0.17779 0.14242 0.0
H2206 H 0.81108 0.19149 0.13065 0.0
H2207 H 0.78163 0.12863 0.14599 0.0
C2208 C 0.80711 0.11519 0.13113 0.0
C2209 C 0.82445 0.11871 0.1196 0.0
C2210 C 0.79529 0.18853 0.13356 0.0
C2211 C 0.8014 0.15128 0.13288 0.0
C2212 C 0.78164 0.20448 0.13265 0.0
C2213 C 0.76096 0.20081 0.13497 0.0
C2214 C 0.78817 0.16881 0.13671 0.0
C2215 C 0.75469 0.18122 0.14013 0.0
C2216 C 0.79541 0.1315 0.13771 0.0
C2217 C 0.83025 0.13866 0.11573 0.0
N2218 N 0.76821 0.16584 0.14044 0.0
N2219 N 0.81869 0.15418 0.12225 0.0
H2220 H 0.36319 0.97044 0.15257 0.0
H2221 H 0.45813 1.01594 0.16211 0.0
H2222 H 0.35278 1.01465 0.19905 0.0
H2223 H 0.42413 0.07153 0.16286 0.0
H2224 H 0.42632 0.99721 0.15893 0.0
H2225 H 0.39242 0.99024 0.14084 0.0
C2226 C 0.36663 0.98471 0.15975 0.0
C2227 C 0.35569 0.99117 0.17664 0.0
C2228 C 0.42599 1.01354 0.15912 0.0
C2229 C 0.3886 1.0135 0.1635 0.0
C2230 C 0.44407 1.02419 0.16104 0.0
C2231 C 0.44374 0.04526 0.16295 0.0
C2232 C 0.40763 1.0241 0.15962 0.0
C2233 C 0.42511 0.05528 0.16149 0.0
C2234 C 0.38333 0.99578 0.15323 0.0
C2235 C 0.36089 1.00938 0.18588 0.0
N2236 N 0.40774 0.04456 0.16056 0.0
N2237 N 0.37703 1.01998 0.17916 0.0
H2238 H 0.6225 0.48852 0.15747 0.0
H2239 H 0.65889 0.59585 0.19351 0.0
H2240 H 0.58224 0.53702 0.17399 0.0
H2241 H 0.69963 0.55157 0.16873 0.0
H2242 H 0.63043 0.57578 0.18215 0.0
H2243 H 0.65037 0.51247 0.15638 0.0
C2244 C 0.61941 0.50429 0.16042 0.0
C2245 C 0.60009 0.51072 0.16635 0.0
C2246 C 0.64554 0.57047 0.17894 0.0
C2247 C 0.63198 0.5381 0.16532 0.0
C2248 C 0.6618 0.58188 0.18553 0.0
C2249 C 0.68155 0.57514 0.18226 0.0
C2250 C 0.64901 0.55195 0.1693 0.0
C2251 C 0.68455 0.55713 0.17164 0.0
C2252 C 0.63538 0.51795 0.15984 0.0
C2253 C 0.59695 0.53134 0.16973 0.0
N2254 N 0.66839 0.54593 0.16578 0.0
N2255 N 0.61282 0.54424 0.16954 0.0
H2256 H 0.98698 0.24287 0.32038 0.0
H2257 H 0.05703 0.31779 0.25631 0.0
H2258 H 0.99364 0.23394 0.25635 0.0
H2259 H 0.062 0.30714 0.32023 0.0
H2260 H 0.03147 0.29048 0.25445 0.0
H2261 H 1.01198 0.26949 0.31913 0.0
C2262 C 0.99381 0.24645 0.30597 0.0
C2263 C 0.98816 0.23596 0.28847 0.0
C2264 C 0.03821 0.29423 0.26883 0.0
C2265 C 1.01713 0.26715 0.28685 0.0
C2266 C 0.05263 0.30994 0.26993 0.0
C2267 C 0.06171 0.31488 0.28848 0.0
C2268 C 0.03262 0.28371 0.28646 0.0
C2269 C 0.05557 0.30395 0.30557 0.0
C2270 C 1.00818 0.26175 0.30527 0.0
C2271 C 0.99768 0.24143 0.27027 0.0
N2272 N 0.04152 0.28912 0.30414 0.0
N2273 N 1.01161 0.25677 0.26988 0.0
H2274 H 0.4829 0.80656 0.04424 0.0
H2275 H 0.5601 0.73938 0.97951 0.0
H2276 H 0.4948 0.81343 0.98069 0.0
H2277 H 0.56579 0.74209 0.04417 0.0
H2278 H 0.53357 0.76451 0.98091 0.0
H2279 H 0.5102 0.78095 0.04588 0.0
C2280 C 0.49102 0.80258 0.03065 0.0
C2281 C 0.48644 0.81222 1.01228 0.0
C2282 C 0.54059 0.75984 0.99489 0.0
C2283 C 0.51763 0.7831 1.01406 0.0
C2284 C 0.55586 0.74541 0.99409 0.0
C2285 C 0.56539 0.73861 1.01172 0.0
C2286 C 0.53427 0.76767 1.01353 0.0
C2287 C 0.55906 0.74707 0.03016 0.0
C2288 C 0.50672 0.78812 0.03163 0.0
C2289 C 0.49771 0.80658 0.99523 0.0
N2290 N 0.54377 0.76106 0.03063 0.0
N2291 N 0.51254 0.79252 0.99655 0.0
H2292 H 0.9907 0.81047 0.22824 0.0
H2293 H 0.05532 0.73113 0.29292 0.0
H2294 H 0.99149 0.81452 0.29307 0.0
H2295 H 0.06456 0.74483 0.23004 0.0
H2296 H 0.02991 0.75863 0.29447 0.0
H2297 H 1.01576 0.78385 0.2297 0.0
C2298 C 0.99631 0.80585 0.24288 0.0
C2299 C 0.989 0.81496 0.26053 0.0
C2300 C 0.03756 0.75551 0.28039 0.0
C2301 C 1.01793 0.78371 0.26241 0.0
C2302 C 0.0519 0.7397 0.27944 0.0
C2303 C 0.06215 0.73554 0.2613 0.0
C2304 C 0.03324 0.76696 0.26298 0.0
C2305 C 0.05723 0.74738 0.2444 0.0
C2306 C 1.01069 0.79053 0.24371 0.0
C2307 C 0.99689 0.80815 0.27905 0.0
N2308 N 0.04325 0.7623 0.24567 0.0
N2309 N 1.01083 0.7928 0.27954 0.0
H2310 H 0.99106 0.7394 0.07104 0.0
H2311 H 0.06857 0.80639 1.0066 0.0
H2312 H 0.98557 0.74208 1.00636 0.0
H2313 H 0.05586 0.81391 0.06991 0.0
H2314 H 0.04131 0.78078 1.00489 0.0
H2315 H 1.01751 0.7646 0.06969 0.0
C2316 C 0.99533 0.74543 0.05646 0.0
C2317 C 0.98587 0.73861 0.03881 0.0
C2318 C 0.04459 0.7881 1.0191 0.0
C2319 C 1.0169 0.76775 0.03707 0.0
C2320 C 0.06027 0.80256 1.02013 0.0
C2321 C 0.06463 0.81239 0.03844 0.0
C2322 C 0.03349 0.78323 0.03658 0.0
C2323 C 0.05313 0.80693 0.05541 0.0
C2324 C 1.01055 0.7599 0.0557 0.0
C2325 C 0.99223 0.74708 1.02038 0.0
N2326 N 0.03834 0.79284 0.05406 0.0
N2327 N 1.00748 0.76111 1.01995 0.0
H2328 H 0.2557 0.99761 0.22993 0.0
H2329 H 0.32003 0.05853 0.312 0.0
H2330 H 0.31622 0.98268 0.24851 0.0
H2331 H 0.25511 0.06097 0.31378 0.0
H2332 H 0.31824 0.03314 0.28565 0.0
H2333 H 0.25438 1.02326 0.2572 0.0
C2334 C 0.26869 0.99976 0.23957 0.0
C2335 C 0.28609 0.98786 0.23685 0.0
C2336 C 0.30428 0.03901 0.2918 0.0
C2337 C 0.2847 1.01711 0.26791 0.0
C2338 C 0.30531 0.05355 0.30695 0.0
C2339 C 0.28771 0.06181 0.31535 0.0
C2340 C 0.28548 0.03264 0.28442 0.0
C2341 C 0.26907 0.05478 0.30798 0.0
C2342 C 0.26787 1.01427 0.25522 0.0
C2343 C 0.3024 0.99128 0.24996 0.0
N2344 N 0.26842 0.04072 0.29279 0.0
N2345 N 0.30132 1.00549 0.26466 0.0
H2346 H 0.24085 0.47753 0.05996 0.0
H2347 H 0.30568 0.54277 0.98166 0.0
H2348 H 0.24257 0.54229 0.06572 0.0
H2349 H 0.31746 0.48067 0.99718 0.0
H2350 H 0.27991 0.54396 1.00879 0.0
H2351 H 0.26613 0.47936 0.03353 0.0
C2352 C 0.24661 0.49223 0.05571 0.0
C2353 C 0.23953 0.50976 0.06526 0.0
C2354 C 0.28822 0.53014 1.00617 0.0
C2355 C 0.26874 0.51203 0.03432 0.0
C2356 C 0.3028 0.5294 0.9906 0.0
C2357 C 0.31385 0.51159 0.98704 0.0
C2358 C 0.28442 0.51283 1.01795 0.0
C2359 C 0.30953 0.4948 0.99928 0.0
C2360 C 0.26114 0.49325 0.04054 0.0
C2361 C 0.24772 0.52835 0.05896 0.0
N2362 N 0.29523 0.49583 1.01393 0.0
N2363 N 0.26178 0.52903 0.04375 0.0
H2364 H 0.79328 0.49581 0.32007 0.0
H2365 H 0.73009 0.55793 0.23772 0.0
H2366 H 0.73189 0.48338 0.3026 0.0
H2367 H 0.79501 0.56038 0.23745 0.0
H2368 H 0.73129 0.53242 0.26397 0.0
H2369 H 0.79515 0.52136 0.29277 0.0
C2370 C 0.78021 0.4985 0.31068 0.0
C2371 C 0.7624 0.48733 0.31374 0.0
C2372 C 0.74538 0.53829 0.25817 0.0
C2373 C 0.76443 0.51644 0.28257 0.0
C2374 C 0.74469 0.5529 0.24307 0.0
C2375 C 0.76246 0.56122 0.23515 0.0
C2376 C 0.76402 0.5319 0.26597 0.0
C2377 C 0.78094 0.55414 0.24288 0.0
C2378 C 0.78134 0.51295 0.295 0.0
C2379 C 0.74601 0.4914 0.30091 0.0
N2380 N 0.78126 0.53999 0.25801 0.0
N2381 N 0.74743 0.50551 0.28614 0.0
H2382 H 0.74434 1.00727 0.98172 0.0
H2383 H 0.81105 0.07154 0.05951 0.0
H2384 H 0.73658 0.07055 0.99469 0.0
H2385 H 0.80853 1.00677 0.06477 0.0
H2386 H 0.78586 0.07027 0.03306 0.0
H2387 H 0.76992 1.00549 1.00899 0.0
C2388 C 0.74811 1.02077 0.99008 0.0
C2389 C 0.73823 0.0391 0.98579 0.0
C2390 C 0.79059 0.05624 0.03997 0.0
C2391 C 0.76734 0.03717 1.01694 0.0
C2392 C 0.80505 0.05696 0.05519 0.0
C2393 C 0.81191 0.03926 0.06459 0.0
C2394 C 0.7828 0.03761 0.03355 0.0
C2395 C 0.8035 1.02083 0.05816 0.0
C2396 C 0.76255 1.01971 1.00577 0.0
C2397 C 0.74361 0.05604 0.99736 0.0
N2398 N 0.78948 1.02044 0.04291 0.0
N2399 N 0.75768 0.05465 1.01216 0.0
H2400 H 0.31113 0.32313 0.05893 0.0
H2401 H 0.23164 0.25811 0.99528 0.0
H2402 H 0.31495 0.25821 0.05904 0.0
H2403 H 0.24714 0.32023 0.98363 0.0
H2404 H 0.25895 0.25679 1.02081 0.0
H2405 H 0.28481 0.32142 0.03359 0.0
C2406 C 0.30651 0.30842 0.05351 0.0
C2407 C 0.31546 0.29081 0.06114 0.0
C2408 C 0.25629 0.27064 1.01257 0.0
C2409 C 0.28461 0.28866 0.03188 0.0
C2410 C 0.24062 0.27146 0.99811 0.0
C2411 C 0.23698 0.28931 0.98717 0.0
C2412 C 0.26812 0.28792 1.01633 0.0
C2413 C 0.24928 0.30606 0.99146 0.0
C2414 C 0.29138 0.30745 0.03895 0.0
C2415 C 0.30867 0.2722 0.05342 0.0
N2416 N 0.26404 0.30495 1.0056 0.0
N2417 N 0.29352 0.27158 0.03933 0.0
H2418 H 0.23167 0.79268 0.55552 0.0
H2419 H 0.31153 0.7292 0.49102 0.0
H2420 H 0.24878 0.73112 0.56788 0.0
H2421 H 0.31649 0.794 0.49323 0.0
H2422 H 0.28514 0.73051 0.5164 0.0
H2423 H 0.25912 0.79449 0.53013 0.0
C2424 C 0.24105 0.77956 0.55289 0.0
C2425 C 0.23781 0.76172 0.56398 0.0
C2426 C 0.29199 0.74452 0.51153 0.0
C2427 C 0.26907 0.76365 0.5349 0.0
C2428 C 0.30715 0.74379 0.49695 0.0
C2429 C 0.31647 0.76149 0.48998 0.0
C2430 C 0.28552 0.76316 0.51926 0.0
C2431 C 0.30994 0.77994 0.49833 0.0
C2432 C 0.2568 0.78066 0.53851 0.0
C2433 C 0.25062 0.74527 0.55993 0.0
N2434 N 0.29474 0.78033 0.51241 0.0
N2435 N 0.2654 0.74661 0.54578 0.0
H2436 H 0.9781 0.56269 0.74359 0.0
H2437 H 0.0424 0.48043 0.80448 0.0
H2438 H 0.04301 0.56361 0.74052 0.0
H2439 H 0.98168 0.49882 0.81901 0.0
H2440 H 0.04374 0.50767 0.77884 0.0
H2441 H 0.97983 0.53642 0.76907 0.0
C2442 C 0.99281 0.55745 0.74844 0.0
C2443 C 1.01042 0.56556 0.73997 0.0
C2444 C 0.0302 0.50566 0.78774 0.0
C2445 C 1.01258 0.53477 0.76926 0.0
C2446 C 0.02937 0.49003 0.80225 0.0
C2447 C 1.0119 0.48723 0.81402 0.0
C2448 C 1.01333 0.51829 0.78479 0.0
C2449 C 0.99555 0.5003 0.81051 0.0
C2450 C 0.9938 0.54236 0.76303 0.0
C2451 C 0.02905 0.55801 0.74686 0.0
N2452 N 0.99666 0.51501 0.79631 0.0
N2453 N 0.02967 0.54288 0.76099 0.0
H2454 H 0.80649 0.82121 0.56521 0.0
H2455 H 0.73361 0.75755 0.49287 0.0
H2456 H 0.81679 0.75751 0.55686 0.0
H2457 H 0.74261 0.8219 0.48992 0.0
H2458 H 0.76076 0.75556 0.51853 0.0
H2459 H 0.78008 0.82014 0.54003 0.0
C2460 C 0.80325 0.80691 0.558 0.0
C2461 C 0.81406 0.78944 0.56324 0.0
C2462 C 0.75669 0.77006 0.51221 0.0
C2463 C 0.78313 0.78805 0.53402 0.0
C2464 C 0.74107 0.77123 0.49773 0.0
C2465 C 0.73572 0.78994 0.48919 0.0
C2466 C 0.7667 0.78777 0.51841 0.0
C2467 C 0.74615 0.80712 0.49591 0.0
C2468 C 0.78807 0.80632 0.54351 0.0
C2469 C 0.80903 0.7714 0.55318 0.0
N2470 N 0.7609 0.80561 0.51002 0.0
N2471 N 0.7938 0.77112 0.53914 0.0
H2472 H 0.50757 0.57014 0.30448 0.0
H2473 H 0.57117 0.48872 0.24154 0.0
H2474 H 0.5693 0.55337 0.31627 0.0
H2475 H 0.50622 0.4866 0.24087 0.0
H2476 H 0.56987 0.51517 0.26682 0.0
H2477 H 0.50576 0.54271 0.27906 0.0
C2478 C 0.52073 0.56088 0.30167 0.0
C2479 C 0.53862 0.56417 0.31262 0.0
C2480 C 0.5558 0.50893 0.26138 0.0
C2481 C 0.53666 0.53287 0.28365 0.0
C2482 C 0.55654 0.49372 0.24689 0.0
C2483 C 0.5388 0.4852 0.23913 0.0
C2484 C 0.53713 0.51624 0.26824 0.0
C2485 C 0.52029 0.49249 0.24665 0.0
C2486 C 0.51963 0.54512 0.2873 0.0
C2487 C 0.55512 0.5515 0.30841 0.0
N2488 N 0.51991 0.50774 0.26068 0.0
N2489 N 0.55374 0.53667 0.29437 0.0
H2490 H 0.07132 0.99073 0.739 0.0
H2491 H 1.00672 0.06806 0.80612 0.0
H2492 H 1.00667 0.98478 0.74212 0.0
H2493 H 0.07014 0.05566 0.81343 0.0
H2494 H 1.00506 0.04073 0.78058 0.0
H2495 H 0.06994 1.01727 0.76411 0.0
C2496 C 0.05674 0.99492 0.74511 0.0
C2497 C 0.03911 0.98529 0.73843 0.0
C2498 C 1.01928 0.04409 0.78783 0.0
C2499 C 0.03733 1.01643 0.76747 0.0
C2500 C 1.02028 0.05981 0.80226 0.0
C2501 C 0.03861 0.06428 0.81201 0.0
C2502 C 0.03682 0.03306 0.78292 0.0
C2503 C 0.05563 0.05285 0.80651 0.0
C2504 C 0.05596 1.01019 0.75953 0.0
C2505 C 1.02068 0.99156 0.747 0.0
N2506 N 0.0543 0.03802 0.79245 0.0
N2507 N 1.02023 1.00686 0.76097 0.0
H2508 H 0.56175 0.80953 0.82135 0.0
H2509 H 0.49467 0.73255 0.75662 0.0
H2510 H 0.55861 0.81587 0.75676 0.0
H2511 H 0.4868 0.74514 0.8199 0.0
H2512 H 0.52028 0.75982 0.75505 0.0
H2513 H 0.53654 0.78308 0.81989 0.0
C2514 C 0.55562 0.80544 0.80677 0.0
C2515 C 0.56231 0.81515 0.78918 0.0
C2516 C 0.51289 0.75651 0.76922 0.0
C2517 C 0.53317 0.78413 0.78731 0.0
C2518 C 0.49843 0.74083 0.77017 0.0
C2519 C 0.48852 0.73644 0.78844 0.0
C2520 C 0.51767 0.76757 0.78674 0.0
C2521 C 0.49387 0.7479 0.80544 0.0
C2522 C 0.54114 0.79023 0.80594 0.0
C2523 C 0.55372 0.80902 0.77075 0.0
N2524 N 0.50798 0.76269 0.80417 0.0
N2525 N 0.53969 0.79377 0.77025 0.0
H2526 H 0.06665 0.24281 0.54483 0.0
H2527 H 0.99297 0.31326 0.47964 0.0
H2528 H 0.05757 0.23857 0.48063 0.0
H2529 H 0.98359 0.30709 0.54366 0.0
H2530 H 1.01956 0.28823 0.48123 0.0
H2531 H 0.03953 0.26863 0.5463 0.0
C2532 C 0.0592 0.24746 0.53107 0.0
C2533 C 0.06448 0.2385 0.51255 0.0
C2534 C 1.01173 0.29214 0.49502 0.0
C2535 C 0.03353 0.26782 0.51414 0.0
C2536 C 0.99644 0.30652 0.49412 0.0
C2537 C 0.98584 0.31232 0.51152 0.0
C2538 C 1.01698 0.28332 0.51353 0.0
C2539 C 0.99117 0.30292 0.52982 0.0
C2540 C 0.0436 0.26201 0.53195 0.0
C2541 C 0.05408 0.24492 0.49526 0.0
N2542 N 1.00649 0.28897 0.5304 0.0
N2543 N 0.03932 0.25907 0.49649 0.0
H2544 H 0.56058 0.24061 0.72861 0.0
H2545 H 0.4945 0.31909 0.79286 0.0
H2546 H 0.55871 0.23587 0.79337 0.0
H2547 H 0.48579 0.30528 0.72995 0.0
H2548 H 0.52009 0.29177 0.79459 0.0
H2549 H 0.53529 0.26703 0.72994 0.0
C2550 C 0.5547 0.24503 0.7432 0.0
C2551 C 0.56177 0.23578 0.76088 0.0
C2552 C 0.51251 0.29482 0.78046 0.0
C2553 C 0.53256 0.26681 0.7626 0.0
C2554 C 0.49805 0.31052 0.77942 0.0
C2555 C 0.4879 0.31461 0.76122 0.0
C2556 C 0.51705 0.2834 0.76309 0.0
C2557 C 0.49302 0.30278 0.74437 0.0
C2558 C 0.54018 0.26024 0.74396 0.0
C2559 C 0.55352 0.24236 0.77933 0.0
N2560 N 0.50712 0.28797 0.74572 0.0
N2561 N 0.53945 0.2576 0.77975 0.0
H2562 H 0.55939 0.31136 0.57127 0.0
H2563 H 0.48218 0.24449 0.50652 0.0
H2564 H 0.56514 0.30888 0.5066 0.0
H2565 H 0.49488 0.23657 0.56977 0.0
H2566 H 0.5094 0.27017 0.50494 0.0
H2567 H 0.53301 0.28609 0.5698 0.0
C2568 C 0.55519 0.30536 0.55667 0.0
C2569 C 0.5647 0.31226 0.53906 0.0
C2570 C 0.50613 0.26275 0.51911 0.0
C2571 C 0.53375 0.28305 0.53718 0.0
C2572 C 0.49048 0.24824 0.52006 0.0
C2573 C 0.48613 0.23829 0.53832 0.0
C2574 C 0.51721 0.26752 0.53661 0.0
C2575 C 0.49761 0.24365 0.55531 0.0
C2576 C 0.54001 0.29085 0.55584 0.0
C2577 C 0.55843 0.30383 0.52059 0.0
N2578 N 0.51237 0.25779 0.55403 0.0
N2579 N 0.54322 0.28976 0.5201 0.0
H2580 H 0.75722 0.49491 0.73176 0.0
H2581 H 0.82129 0.56225 0.80879 0.0
H2582 H 0.82026 0.48633 0.74528 0.0
H2583 H 0.7568 0.55803 0.81576 0.0
H2584 H 0.82 0.53685 0.78248 0.0
H2585 H 0.75545 0.52029 0.75921 0.0
C2586 C 0.77066 0.49839 0.74033 0.0
C2587 C 0.78892 0.48837 0.73609 0.0
C2588 C 0.80605 0.54127 0.78974 0.0
C2589 C 0.78701 0.51736 0.76739 0.0
C2590 C 0.80677 0.55586 0.80486 0.0
C2591 C 0.78915 0.56229 0.81471 0.0
C2592 C 0.78749 0.53296 0.78386 0.0
C2593 C 0.7708 0.55336 0.80879 0.0
C2594 C 0.7696 0.51275 0.75609 0.0
C2595 C 0.80579 0.49345 0.74789 0.0
N2596 N 0.7704 0.53926 0.79361 0.0
N2597 N 0.80443 0.50751 0.76273 0.0
H2598 H 0.74512 0.04281 0.56852 0.0
H2599 H 0.81079 0.9777 0.49073 0.0
H2600 H 0.73426 0.98045 0.55355 0.0
H2601 H 0.80837 0.0424 0.48449 0.0
H2602 H 0.78554 0.97947 0.51717 0.0
H2603 H 0.77094 0.0441 0.54142 0.0
C2604 C 0.74823 0.0294 0.55973 0.0
C2605 C 0.73741 1.01149 0.56341 0.0
C2606 C 0.79036 0.99336 0.51006 0.0
C2607 C 0.76688 1.01285 0.53253 0.0
C2608 C 0.80487 0.99237 0.49487 0.0
C2609 C 0.81175 1.00991 0.48517 0.0
C2610 C 0.78256 1.0121 0.51615 0.0
C2611 C 0.80337 0.02846 0.49136 0.0
C2612 C 0.76282 0.0302 0.54416 0.0
C2613 C 0.74201 0.99465 0.55134 0.0
N2614 N 0.78932 0.02911 0.50658 0.0
N2615 N 0.75631 0.99574 0.5367 0.0
H2616 H 0.22996 0.99018 0.81068 0.0
H2617 H 0.29395 0.05629 0.73205 0.0
H2618 H 0.29473 0.99252 0.81546 0.0
H2619 H 0.23083 0.06443 0.74546 0.0
H2620 H 0.2958 0.03085 0.75947 0.0
H2621 H 0.23115 1.01529 0.7841 0.0
C2622 C 0.24452 0.99613 0.80622 0.0
C2623 C 0.26225 0.98925 0.81553 0.0
C2624 C 0.2816 0.03827 0.75631 0.0
C2625 C 0.2638 1.01823 0.78434 0.0
C2626 C 0.28049 0.05264 0.74055 0.0
C2627 C 0.26219 0.06259 0.73633 0.0
C2628 C 0.2642 0.03362 0.76765 0.0
C2629 C 0.24531 0.05735 0.74807 0.0
C2630 C 0.2452 1.01054 0.79093 0.0
C2631 C 0.28066 0.99758 0.80893 0.0
N2632 N 0.24674 0.04334 0.76294 0.0
N2633 N 0.28099 1.01153 0.79361 0.0
H2634 H 0.21566 0.53874 0.51354 0.0
H2635 H 0.33249 0.54416 0.53814 0.0
H2636 H 0.2606 0.52924 0.46754 0.0
H2637 H 0.28895 0.52797 0.58361 0.0
H2638 H 0.30651 0.54038 0.51226 0.0
H2639 H 0.24192 0.53638 0.53933 0.0
C2640 C 0.23105 0.53591 0.50884 0.0
C2641 C 0.23585 0.5341 0.48823 0.0
C2642 C 0.30264 0.53743 0.52784 0.0
C2643 C 0.26626 0.53183 0.51795 0.0
C2644 C 0.31748 0.53962 0.54271 0.0
C2645 C 0.31298 0.53635 0.5632 0.0
C2646 C 0.28285 0.53236 0.53337 0.0
C2647 C 0.2932 0.5305 0.56806 0.0
C2648 C 0.24605 0.53455 0.52364 0.0
C2649 C 0.25612 0.53053 0.48318 0.0
N2650 N 0.27882 0.52899 0.55333 0.0
N2651 N 0.27059 0.52982 0.49788 0.0
H2652 H 0.80914 0.22932 0.98893 0.0
H2653 H 0.73236 0.29419 0.05644 0.0
H2654 H 0.81528 0.29399 0.99198 0.0
H2655 H 0.74434 0.23062 0.06343 0.0
H2656 H 0.75957 0.29579 0.03074 0.0
H2657 H 0.78266 0.23078 1.0141 0.0
C2658 C 0.80499 0.24392 0.99503 0.0
C2659 C 0.81465 0.26153 0.98831 0.0
C2660 C 0.75613 0.28154 0.03796 0.0
C2661 C 0.7836 0.2634 1.01743 0.0
C2662 C 0.74048 0.28058 0.05247 0.0
C2663 C 0.73595 0.26222 0.06217 0.0
C2664 C 0.76702 0.26395 0.03293 0.0
C2665 C 0.74721 0.24515 0.05654 0.0
C2666 C 0.78976 0.24475 1.00949 0.0
C2667 C 0.80846 0.27999 0.99688 0.0
N2668 N 0.76199 0.24644 0.04241 0.0
N2669 N 0.7932 0.28048 1.0109 0.0
H2670 H 0.54514 0.98344 0.30671 0.0
H2671 H 0.48062 0.05574 0.23477 0.0
H2672 H 0.48131 0.99437 0.3127 0.0
H2673 H 0.544 0.06736 0.24333 0.0
H2674 H 0.48211 0.02958 0.26035 0.0
H2675 H 0.54662 1.01033 0.28069 0.0
C2676 C 0.53146 0.99128 0.30246 0.0
C2677 C 0.51305 0.98654 0.31194 0.0
C2678 C 0.49576 0.03782 0.2568 0.0
C2679 C 0.51464 1.01717 0.28228 0.0
C2680 C 0.49493 0.05283 0.2421 0.0
C2681 C 0.51219 0.06394 0.23685 0.0
C2682 C 0.51408 0.03333 0.26641 0.0
C2683 C 0.53027 0.05935 0.24702 0.0
C2684 C 0.53235 1.00674 0.28777 0.0
C2685 C 0.49586 0.99743 0.30595 0.0
N2686 N 0.5308 0.04427 0.26122 0.0
N2687 N 0.49708 1.01198 0.29158 0.0
H2688 H 0.16781 0.27341 0.29918 0.0
H2689 H 0.2682 0.23115 0.3488 0.0
H2690 H 0.21836 0.30962 0.3181 0.0
H2691 H 0.2228 0.19337 0.32182 0.0
H2692 H 0.24497 0.25972 0.34729 0.0
H2693 H 0.18267 0.24426 0.31645 0.0
C2694 C 0.18174 0.27535 0.30747 0.0
C2695 C 0.19209 0.29382 0.30699 0.0
C2696 C 0.23983 0.24509 0.34216 0.0
C2697 C 0.20919 0.26064 0.32655 0.0
C2698 C 0.25303 0.22878 0.3432 0.0
C2699 C 0.24735 0.21001 0.33535 0.0
C2700 C 0.22096 0.24269 0.33286 0.0
C2701 C 0.22765 0.20765 0.32809 0.0
C2702 C 0.19026 0.25869 0.31721 0.0
C2703 C 0.2101 0.29553 0.31786 0.0
N2704 N 0.21525 0.22395 0.3266 0.0
N2705 N 0.21821 0.27909 0.32696 0.0
H2706 H 0.44239 0.57781 0.97812 0.0
H2707 H 0.56112 0.58314 0.98147 0.0
H2708 H 0.48203 0.53272 0.95321 0.0
H2709 H 0.52277 0.63093 1.00323 0.0
H2710 H 0.53234 0.56839 0.96398 0.0
H2711 H 0.47094 0.60123 0.98024 0.0
C2712 C 0.45696 0.57315 0.97236 0.0
C2713 C 0.46 0.55334 0.96561 0.0
C2714 C 0.5302 0.58233 0.97221 0.0
C2715 C 0.49271 0.57968 0.96844 0.0
C2716 C 0.54666 0.59074 0.98215 0.0
C2717 C 0.54419 0.60808 0.99395 0.0
C2718 C 0.51101 0.59107 0.97446 0.0
C2719 C 0.52522 0.61748 0.9943 0.0
C2720 C 0.47329 0.58643 0.97375 0.0
C2721 C 0.47918 0.54787 0.95862 0.0
N2722 N 0.50921 0.6086 0.98507 0.0
N2723 N 0.49487 0.56084 0.96054 0.0
H2724 H 0.88257 0.27708 0.29896 0.0
H2725 H 0.7825 0.31943 0.34947 0.0
H2726 H 0.83166 0.24106 0.31736 0.0
H2727 H 0.82758 0.35718 0.32183 0.0
H2728 H 0.80565 0.29082 0.34756 0.0
H2729 H 0.8678 0.3062 0.3164 0.0
C2730 C 0.86857 0.27518 0.30717 0.0
C2731 C 0.85812 0.25678 0.30652 0.0
C2732 C 0.81074 0.30546 0.34238 0.0
C2733 C 0.84114 0.28989 0.32628 0.0
C2734 C 0.79759 0.32179 0.34364 0.0
C2735 C 0.80319 0.34056 0.33572 0.0
C2736 C 0.82949 0.30784 0.3328 0.0
C2737 C 0.8228 0.3429 0.32816 0.0
C2738 C 0.8601 0.2918 0.317 0.0
C2739 C 0.84001 0.2551 0.31727 0.0
N2740 N 0.83515 0.32659 0.32647 0.0
N2741 N 0.83197 0.27151 0.32649 0.0
H2742 H 0.4899 0.96789 0.9814 0.0
H2743 H 0.60865 0.97329 0.97789 0.0
H2744 H 0.52828 0.92009 1.00308 0.0
H2745 H 0.56901 1.01834 0.95292 0.0
H2746 H 0.5801 0.94989 0.98012 0.0
H2747 H 0.5187 0.98272 0.96395 0.0
C2748 C 0.50437 0.96032 0.98209 0.0
C2749 C 0.50684 0.94295 0.99386 0.0
C2750 C 0.57775 0.96468 0.97359 0.0
C2751 C 0.54004 0.96003 0.97438 0.0
C2752 C 0.59408 0.97795 0.97214 0.0
C2753 C 0.59104 0.99775 0.96534 0.0
C2754 C 0.55833 0.97141 0.96831 0.0
C2755 C 0.57186 1.0032 0.95837 0.0
C2756 C 0.52084 0.96876 0.97216 0.0
C2757 C 0.52582 0.93357 0.99419 0.0
N2758 N 0.55617 0.99024 0.96035 0.0
N2759 N 0.54184 0.94248 0.98496 0.0
H2760 H 0.20019 0.7435 0.22312 0.0
H2761 H 0.26599 0.82022 0.20239 0.0
H2762 H 0.17964 0.78422 0.26932 0.0
H2763 H 0.22352 0.86045 0.23065 0.0
H2764 H 0.24184 0.79279 0.20558 0.0
H2765 H 0.21478 0.77217 0.20481 0.0
C2766 C 0.19853 0.75859 0.22916 0.0
C2767 C 0.189 0.76169 0.24771 0.0
C2768 C 0.23727 0.80773 0.21029 0.0
C2769 C 0.2063 0.79427 0.2276 0.0
C2770 C 0.25115 0.8234 0.20846 0.0
C2771 C 0.24663 0.84252 0.2162 0.0
C2772 C 0.21884 0.8112 0.22022 0.0
C2773 C 0.22742 0.8459 0.22433 0.0
C2774 C 0.20704 0.77491 0.2189 0.0
C2775 C 0.18704 0.78139 0.25505 0.0
N2776 N 0.21438 0.83024 0.22659 0.0
N2777 N 0.19588 0.79694 0.24509 0.0
H2778 H 0.11013 0.57776 0.07195 0.0
H2779 H 0.99126 0.58282 0.06924 0.0
H2780 H 0.0708 0.53256 0.09709 0.0
H2781 H 0.02931 0.63066 0.04716 0.0
H2782 H 1.02024 0.56805 0.08643 0.0
H2783 H 0.08144 0.60105 0.06983 0.0
C2784 C 0.0956 0.57306 0.07778 0.0
C2785 C 0.0927 0.55325 0.08461 0.0
C2786 C 1.02227 0.582 0.07818 0.0
C2787 C 0.05982 0.57944 0.08175 0.0
C2788 C 1.0057 0.59042 0.06841 0.0
C2789 C 1.00801 0.60779 0.05662 0.0
C2790 C 0.04143 0.59077 0.07579 0.0
C2791 C 0.02697 0.61719 0.05609 0.0
C2792 C 0.07919 0.58626 0.07638 0.0
C2793 C 0.07357 0.54772 0.09166 0.0
N2794 N 0.04309 0.60831 0.06517 0.0
N2795 N 0.05779 0.56061 0.08972 0.0
H2796 H 0.83268 0.81099 0.23095 0.0
H2797 H 0.82742 0.69214 0.22793 0.0
H2798 H 0.88077 0.77268 0.25205 0.0
H2799 H 0.7817 0.73173 0.20413 0.0
H2800 H 0.85081 0.72075 0.22952 0.0
H2801 H 0.81764 0.78213 0.21381 0.0
C2802 C 0.84028 0.79653 0.23156 0.0
C2803 C 0.85778 0.79408 0.2431 0.0
C2804 C 0.83585 0.72308 0.2234 0.0
C2805 C 0.84046 0.76082 0.224 0.0
C2806 C 0.82259 0.70672 0.22232 0.0
C2807 C 0.80262 0.70972 0.21605 0.0
C2808 C 0.82896 0.74249 0.21826 0.0
C2809 C 0.79696 0.7289 0.2092 0.0
C2810 C 0.83171 0.78002 0.22182 0.0
C2811 C 0.86719 0.77511 0.24334 0.0
N2812 N 0.80994 0.74462 0.21081 0.0
N2813 N 0.85816 0.75905 0.23431 0.0
H2814 H 0.94213 0.9728 0.07232 0.0
H2815 H 0.06087 0.9679 0.06902 0.0
H2816 H 0.98149 1.01816 0.09704 0.0
H2817 H 1.0228 0.91976 0.04768 0.0
H2818 H 0.03199 0.98266 0.08642 0.0
H2819 H 0.97079 0.94946 0.07038 0.0
C2820 C 0.95666 0.97754 0.07808 0.0
C2821 C 0.95959 0.9974 0.08472 0.0
C2822 C 0.02994 0.96864 0.0783 0.0
C2823 C 0.99242 0.97115 0.08209 0.0
C2824 C 0.04646 0.96023 0.06841 0.0
C2825 C 0.04409 0.94279 0.05674 0.0
C2826 C 1.01079 0.9598 0.07614 0.0
C2827 C 1.02518 0.9333 0.05649 0.0
C2828 C 0.97306 0.96431 0.0768 0.0
C2829 C 0.97872 1.00297 0.09172 0.0
N2830 N 1.0091 0.94218 0.06567 0.0
N2831 N 0.99447 0.99004 0.0899 0.0
H2832 H 0.34787 0.26931 0.23015 0.0
H2833 H 0.2975 0.169 0.2722 0.0
H2834 H 0.32031 0.22436 0.19225 0.0
H2835 H 0.31735 0.21907 0.30859 0.0
H2836 H 0.31444 0.18407 0.24294 0.0
H2837 H 0.34601 0.24602 0.25863 0.0
C2838 C 0.34204 0.25423 0.22774 0.0
C2839 C 0.33417 0.2487 0.20895 0.0
C2840 C 0.31547 0.19151 0.25743 0.0
C2841 C 0.3313 0.22221 0.24153 0.0
C2842 C 0.30592 0.18287 0.27414 0.0
C2843 C 0.30582 0.19301 0.29271 0.0
C2844 C 0.325 0.21035 0.25943 0.0
C2845 C 0.31684 0.21095 0.29443 0.0
C2846 C 0.34081 0.24099 0.244 0.0
C2847 C 0.32661 0.22909 0.20654 0.0
N2848 N 0.32575 0.21917 0.27795 0.0
N2849 N 0.32496 0.21665 0.22279 0.0
H2850 H 0.46806 0.48138 0.98989 0.0
H2851 H 0.47287 0.47808 0.10859 0.0
H2852 H 0.42001 0.50297 0.02797 0.0
H2853 H 0.51818 0.45317 0.06921 0.0
H2854 H 0.4496 0.48015 0.07995 0.0
H2855 H 0.48277 0.46394 1.01875 0.0
C2856 C 0.4604 0.48203 1.0043 0.0
C2857 C 0.443 0.49376 1.00668 0.0
C2858 C 0.46442 0.47367 0.07767 0.0
C2859 C 0.45994 0.47434 0.03995 0.0
C2860 C 0.47761 0.47231 0.09406 0.0
C2861 C 0.49744 0.46558 0.09112 0.0
C2862 C 0.47126 0.46836 0.05831 0.0
C2863 C 0.50301 0.45857 0.07199 0.0
C2864 C 0.46878 0.47212 1.02081 0.0
C2865 C 0.43351 0.49408 0.0256 0.0
N2866 N 0.49012 0.46047 0.05624 0.0
N2867 N 0.44236 0.48489 0.04166 0.0
H2868 H 0.72823 0.32777 0.19219 0.0
H2869 H 0.73174 0.33237 0.31088 0.0
H2870 H 0.7034 0.2824 0.23152 0.0
H2871 H 0.75316 0.38053 0.27283 0.0
H2872 H 0.7143 0.31769 0.28203 0.0
H2873 H 0.73032 0.35101 0.22087 0.0
C2874 C 0.72248 0.32301 0.20672 0.0
C2875 C 0.71577 0.30317 0.20963 0.0
C2876 C 0.72245 0.33169 0.27998 0.0
C2877 C 0.71857 0.3293 0.24249 0.0
C2878 C 0.73237 0.34005 0.29647 0.0
C2879 C 0.74406 0.35748 0.2941 0.0
C2880 C 0.72461 0.34058 0.26085 0.0
C2881 C 0.74432 0.367 0.2752 0.0
C2882 C 0.72385 0.33618 0.22313 0.0
C2883 C 0.70878 0.29757 0.22876 0.0
N2884 N 0.73511 0.35817 0.25915 0.0
N2885 N 0.71069 0.31044 0.24453 0.0
H2886 H 0.58294 0.06974 0.98944 0.0
H2887 H 0.57778 0.07288 0.10813 0.0
H2888 H 0.63092 0.04822 0.0276 0.0
H2889 H 0.53238 0.09739 0.06866 0.0
H2890 H 0.60117 0.07103 0.07953 0.0
H2891 H 0.56812 0.08713 1.01827 0.0
C2892 C 0.59056 0.06909 1.00386 0.0
C2893 C 0.60797 0.05738 1.00628 0.0
C2894 C 0.5863 0.07738 0.07722 0.0
C2895 C 0.59089 0.07675 0.03951 0.0
C2896 C 0.57304 0.0786 0.09358 0.0
C2897 C 0.55316 0.08515 0.0906 0.0
C2898 C 0.57947 0.08265 0.05785 0.0
C2899 C 0.54759 0.09212 0.07146 0.0
C2900 C 0.58211 0.07898 1.02035 0.0
C2901 C 0.6174 0.05707 0.0252 0.0
N2902 N 0.56055 0.09036 0.05575 0.0
N2903 N 0.60849 0.06624 0.04125 0.0
H2904 H 0.31816 0.83228 0.24077 0.0
H2905 H 0.32189 0.82979 0.35972 0.0
H2906 H 0.29804 0.88171 0.27788 0.0
H2907 H 0.34535 0.78301 0.32122 0.0
H2908 H 0.31999 0.85243 0.3305 0.0
H2909 H 0.33499 0.81752 0.26996 0.0
C2910 C 0.3177 0.84022 0.25503 0.0
C2911 C 0.30657 0.85807 0.25703 0.0
C2912 C 0.32614 0.83742 0.32853 0.0
C2913 C 0.32533 0.84108 0.29069 0.0
C2914 C 0.32741 0.8246 0.34524 0.0
C2915 C 0.33375 0.80457 0.34275 0.0
C2916 C 0.33112 0.83001 0.30928 0.0
C2917 C 0.34037 0.79838 0.32367 0.0
C2918 C 0.32726 0.83181 0.27173 0.0
C2919 C 0.30648 0.86787 0.27578 0.0
N2920 N 0.33857 0.81093 0.30762 0.0
N2921 N 0.31535 0.85903 0.29203 0.0
H2922 H 0.03325 0.45133 0.98135 0.0
H2923 H 0.13338 0.50252 1.02198 0.0
H2924 H 0.07804 0.47848 0.94291 0.0
H2925 H 0.08379 0.48261 0.05902 0.0
H2926 H 0.11839 0.48495 0.99311 0.0
H2927 H 0.05674 0.45322 1.00962 0.0
C2928 C 0.04834 0.45705 0.97878 0.0
C2929 C 0.05377 0.46484 0.95992 0.0
C2930 C 0.11105 0.48403 1.00767 0.0
C2931 C 0.08045 0.46776 0.99222 0.0
C2932 C 0.11964 0.49394 1.02414 0.0
C2933 C 0.10961 0.49418 0.04277 0.0
C2934 C 0.09235 0.47431 1.00995 0.0
C2935 C 0.09181 0.48299 0.0448 0.0
C2936 C 0.06169 0.45829 0.99491 0.0
C2937 C 0.07339 0.47225 0.95727 0.0
N2938 N 0.08361 0.47374 0.02853 0.0
N2939 N 0.08593 0.47395 0.9734 0.0
H2940 H 0.70305 0.76967 0.3202 0.0
H2941 H 0.75244 0.66877 0.27871 0.0
H2942 H 0.72954 0.72422 0.35833 0.0
H2943 H 0.73187 0.71823 0.24185 0.0
H2944 H 0.73566 0.68408 0.30791 0.0
H2945 H 0.70454 0.74628 0.2918 0.0
C2946 C 0.70857 0.75448 0.32268 0.0
C2947 C 0.71625 0.74883 0.34152 0.0
C2948 C 0.73441 0.69133 0.29333 0.0
C2949 C 0.71869 0.7222 0.30902 0.0
C2950 C 0.74385 0.68253 0.27665 0.0
C2951 C 0.74371 0.69243 0.25795 0.0
C2952 C 0.72477 0.71011 0.29119 0.0
C2953 C 0.73253 0.71029 0.2561 0.0
C2954 C 0.70958 0.74117 0.30646 0.0
C2955 C 0.72339 0.72906 0.34401 0.0
N2956 N 0.72376 0.71869 0.27256 0.0
N2957 N 0.72484 0.71655 0.32781 0.0
H2958 H 1.01835 0.09938 0.98055 0.0
H2959 H 0.91823 0.04899 1.02274 0.0
H2960 H 0.97323 0.07195 0.94278 0.0
H2961 H 0.96891 0.06769 0.05886 0.0
H2962 H 0.93302 0.06642 0.99366 0.0
H2963 H 0.99517 0.09754 1.00911 0.0
C2964 C 1.00325 0.09361 0.97818 0.0
C2965 C 0.99765 0.08573 0.95942 0.0
C2966 C 0.94067 0.06709 1.00806 0.0
C2967 C 0.9713 0.08289 0.99208 0.0
C2968 C 0.93218 0.05726 1.02468 0.0
C2969 C 0.94258 0.05667 0.04309 0.0
C2970 C 0.95959 0.07642 1.01 0.0
C2971 C 0.96061 0.06753 0.04481 0.0
C2972 C 0.99008 0.09239 0.99449 0.0
C2973 C 0.97802 0.07825 0.95706 0.0
N2974 N 0.96868 0.07672 0.02841 0.0
N2975 N 0.96564 0.0766 0.97335 0.0
H2976 H 0.31023 0.3211 0.21626 0.0
H2977 H 0.19134 0.32345 0.22313 0.0
H2978 H 0.2713 0.29818 0.16961 0.0
H2979 H 0.23136 0.34727 0.26838 0.0
H2980 H 0.21971 0.32172 0.19947 0.0
H2981 H 0.28143 0.33831 0.23145 0.0
C2982 C 0.29564 0.32014 0.20897 0.0
C2983 C 0.29301 0.30811 0.19184 0.0
C2984 C 0.22219 0.32788 0.21438 0.0
C2985 C 0.25985 0.32723 0.20936 0.0
C2986 C 0.20596 0.32904 0.2278 0.0
C2987 C 0.20915 0.33538 0.24771 0.0
C2988 C 0.24166 0.33301 0.22106 0.0
C2989 C 0.22838 0.34217 0.25316 0.0
C2990 C 0.27917 0.3299 0.21765 0.0
C2991 C 0.27388 0.30734 0.18287 0.0
N2992 N 0.24398 0.34049 0.24003 0.0
N2993 N 0.25789 0.31642 0.19199 0.0
H2994 H 0.22917 0.70576 0.2849 0.0
H2995 H 0.308 0.72479 0.34828 0.0
H2996 H 0.19034 0.73287 0.32932 0.0
H2997 H 0.26752 0.76849 0.37415 0.0
H2998 H 0.2791 0.70709 0.33366 0.0
H2999 H 0.2573 0.70817 0.3082 0.0
C3000 C 0.22647 0.7114 0.29999 0.0
C3001 C 0.20751 0.71898 0.30534 0.0
C3002 C 0.27642 0.72053 0.34251 0.0
C3003 C 0.23968 0.72214 0.33224 0.0
C3004 C 0.29291 0.7304 0.35107 0.0
C3005 C 0.28995 0.74806 0.3622 0.0
C3006 C 0.25699 0.72883 0.34466 0.0
C3007 C 0.27025 0.75487 0.36556 0.0
C3008 C 0.24256 0.7128 0.31341 0.0
C3009 C 0.20476 0.72664 0.32482 0.0
N3010 N 0.2545 0.74541 0.35655 0.0
N3011 N 0.2208 0.72844 0.33744 0.0
H3012 H 0.95218 0.56966 1.01892 0.0
H3013 H 1.00213 0.52702 0.91879 0.0
H3014 H 0.97938 0.60726 0.97346 0.0
H3015 H 0.98374 0.49109 0.96978 0.0
H3016 H 0.98472 0.55617 0.9335 0.0
H3017 H 0.95389 0.54097 0.99587 0.0
C3018 C 0.95787 0.57197 1.00378 0.0
C3019 C 0.96573 0.59071 0.99803 0.0
C3020 C 0.98412 0.54179 0.94124 0.0
C3021 C 0.96844 0.55792 0.97185 0.0
C3022 C 0.99395 0.52514 0.9328 0.0
C3023 C 0.99461 0.50675 0.9433 0.0
C3024 C 0.97488 0.53993 0.96022 0.0
C3025 C 0.98385 0.50511 0.96141 0.0
C3026 C 0.95901 0.55559 0.99068 0.0
C3027 C 0.9731 0.593 0.97835 0.0
N3028 N 0.97467 0.52155 0.96942 0.0
N3029 N 0.97469 0.57664 0.96606 0.0
H3030 H 0.74053 0.82114 0.33466 0.0
H3031 H 0.85935 0.82322 0.32702 0.0
H3032 H 0.77974 0.79763 0.38081 0.0
H3033 H 0.81906 0.84753 0.28223 0.0
H3034 H 0.83115 0.82143 0.35087 0.0
H3035 H 0.76925 0.83848 0.31947 0.0
C3036 C 0.75517 0.82006 0.34183 0.0
C3037 C 0.75791 0.80782 0.35881 0.0
C3038 C 0.82858 0.82771 0.33603 0.0
C3039 C 0.79096 0.82711 0.3413 0.0
C3040 C 0.84471 0.82891 0.32249 0.0
C3041 C 0.84139 0.83539 0.30265 0.0
C3042 C 0.80908 0.83295 0.32953 0.0
C3043 C 0.82213 0.84231 0.29739 0.0
C3044 C 0.77158 0.8299 0.33317 0.0
C3045 C 0.77709 0.80693 0.36765 0.0
N3046 N 0.80663 0.84059 0.31063 0.0
N3047 N 0.79302 0.81609 0.35854 0.0
H3048 H 0.5689 0.56144 0.46795 0.0
H3049 H 0.57257 0.44263 0.47291 0.0
H3050 H 0.54846 0.52325 0.41954 0.0
H3051 H 0.59638 0.48214 0.51863 0.0
H3052 H 0.57085 0.4713 0.44959 0.0
H3053 H 0.58613 0.5326 0.48299 0.0
C3054 C 0.56846 0.54701 0.46028 0.0
C3055 C 0.55711 0.54459 0.44267 0.0
C3056 C 0.57702 0.4736 0.46452 0.0
C3057 C 0.57629 0.51135 0.46 0.0
C3058 C 0.57817 0.4572 0.47775 0.0
C3059 C 0.58449 0.46017 0.49769 0.0
C3060 C 0.58211 0.493 0.47144 0.0
C3061 C 0.5913 0.47934 0.50337 0.0
C3062 C 0.57825 0.53052 0.46886 0.0
C3063 C 0.55705 0.52566 0.4332 0.0
N3064 N 0.58961 0.49509 0.49043 0.0
N3065 N 0.56612 0.50961 0.44223 0.0
H3066 H 0.24891 0.72616 0.68858 0.0
H3067 H 0.31946 0.70496 0.76078 0.0
H3068 H 0.29005 0.77497 0.67655 0.0
H3069 H 0.36353 0.73186 0.72133 0.0
H3070 H 0.29398 0.70883 0.7345 0.0
H3071 H 0.2767 0.70698 0.70393 0.0
C3072 C 0.26396 0.73253 0.68867 0.0
C3073 C 0.26734 0.75214 0.68157 0.0
C3074 C 0.30938 0.71308 0.73117 0.0
C3075 C 0.29878 0.73083 0.6995 0.0
C3076 C 0.32389 0.71094 0.74623 0.0
C3077 C 0.34353 0.71808 0.74312 0.0
C3078 C 0.31453 0.7228 0.71304 0.0
C3079 C 0.34855 0.72602 0.72419 0.0
C3080 C 0.27971 0.72174 0.69763 0.0
C3081 C 0.28696 0.75989 0.68203 0.0
N3082 N 0.33399 0.72868 0.71003 0.0
N3083 N 0.30193 0.7493 0.6911 0.0
H3084 H 0.99777 0.52416 0.63497 0.0
H3085 H 0.97615 0.44047 0.57793 0.0
H3086 H 0.98407 0.55723 0.58068 0.0
H3087 H 0.95379 0.4819 0.53317 0.0
H3088 H 0.97835 0.46807 0.60198 0.0
H3089 H 0.98048 0.49486 0.62121 0.0
C3090 C 0.99075 0.52535 0.62028 0.0
C3091 C 0.99274 0.543 0.60875 0.0
C3092 C 0.97226 0.47122 0.58723 0.0
C3093 C 0.97366 0.50918 0.59239 0.0
C3094 C 0.97091 0.45531 0.57348 0.0
C3095 C 0.96494 0.45903 0.55358 0.0
C3096 C 0.9676 0.49098 0.58087 0.0
C3097 C 0.95861 0.47851 0.5484 0.0
C3098 C 0.98112 0.50844 0.61223 0.0
C3099 C 0.98332 0.54374 0.58987 0.0
N3100 N 0.96045 0.4938 0.56184 0.0
N3101 N 0.97449 0.52698 0.58217 0.0
H3102 H 0.09759 0.06921 0.53099 0.0
H3103 H 0.04854 0.02734 0.63184 0.0
H3104 H 0.07115 0.10721 0.57658 0.0
H3105 H 0.06737 0.9909 0.5814 0.0
H3106 H 0.06568 0.05645 0.61674 0.0
H3107 H 0.09609 0.04067 0.55424 0.0
C3108 C 0.09207 0.07162 0.54618 0.0
C3109 C 0.08438 0.09045 0.55192 0.0
C3110 C 0.06645 0.04197 0.60922 0.0
C3111 C 0.08194 0.05783 0.57837 0.0
C3112 C 0.05678 1.02535 0.61788 0.0
C3113 C 0.05631 1.00683 0.60763 0.0
C3114 C 0.07571 0.03994 0.59026 0.0
C3115 C 0.06712 1.00503 0.58958 0.0
C3116 C 0.09106 0.05534 0.55941 0.0
C3117 C 0.07727 0.09288 0.57168 0.0
N3118 N 0.07614 1.02144 0.58133 0.0
N3119 N 0.07581 0.07661 0.58411 0.0
H3120 H 0.72297 0.69212 0.82301 0.0
H3121 H 0.71788 0.8109 0.81954 0.0
H3122 H 0.76819 0.73162 0.84775 0.0
H3123 H 0.66992 0.77269 0.7981 0.0
H3124 H 0.73264 0.78206 0.83701 0.0
H3125 H 0.69961 0.72075 0.82096 0.0
C3126 C 0.72768 0.70668 0.82874 0.0
C3127 C 0.74751 0.70965 0.83542 0.0
C3128 C 0.71866 0.77997 0.82885 0.0
C3129 C 0.72123 0.74245 0.83267 0.0
C3130 C 0.71025 0.79646 0.81893 0.0
C3131 C 0.69286 0.79404 0.80722 0.0
C3132 C 0.70987 0.7608 0.82668 0.0
C3133 C 0.68342 0.7751 0.80695 0.0
C3134 C 0.71444 0.72306 0.8274 0.0
C3135 C 0.75303 0.72881 0.84239 0.0
N3136 N 0.69229 0.75905 0.81617 0.0
N3137 N 0.74009 0.74455 0.84051 0.0
H3138 H 0.05986 0.08374 0.4798 0.0
H3139 H 0.94098 0.07714 0.478 0.0
H3140 H 1.0212 0.13048 0.5032 0.0
H3141 H 0.98082 0.03242 0.45275 0.0
H3142 H 0.96937 0.10076 0.48005 0.0
H3143 H 0.03096 0.06882 0.46263 0.0
C3144 C 0.04531 0.0911 0.48089 0.0
C3145 C 0.0428 0.1082 0.49303 0.0
C3146 C 0.9718 0.08599 0.4735 0.0
C3147 C 1.00949 0.09097 0.47393 0.0
C3148 C 0.95555 0.07261 0.47215 0.0
C3149 C 0.95869 0.05284 0.46529 0.0
C3150 C 0.99123 0.07942 0.46805 0.0
C3151 C 0.97788 0.04754 0.4582 0.0
C3152 C 0.02878 0.08258 0.47114 0.0
C3153 C 1.02369 0.11725 0.49395 0.0
N3154 N 0.99349 0.06062 0.46007 0.0
N3155 N 1.00763 0.10828 0.48489 0.0
H3156 H 0.32912 0.85839 0.82386 0.0
H3157 H 0.33068 0.74003 0.81538 0.0
H3158 H 0.28325 0.81954 0.84852 0.0
H3159 H 0.38141 0.77709 0.7987 0.0
H3160 H 0.31611 0.76862 0.83343 0.0
H3161 H 0.35166 0.8292 0.82077 0.0
C3162 C 0.32413 0.84385 0.82942 0.0
C3163 C 0.30433 0.84125 0.83636 0.0
C3164 C 0.33063 0.77048 0.82619 0.0
C3165 C 0.32963 0.8078 0.83231 0.0
C3166 C 0.33891 0.75413 0.81589 0.0
C3167 C 0.35711 0.75631 0.8054 0.0
C3168 C 0.34038 0.78931 0.82562 0.0
C3169 C 0.3673 0.77484 0.8066 0.0
C3170 C 0.3369 0.82714 0.82746 0.0
C3171 C 0.29842 0.82208 0.84302 0.0
N3172 N 0.35858 0.79079 0.81616 0.0
N3173 N 0.31086 0.80603 0.84048 0.0
H3174 H 0.10948 0.47162 0.47784 0.0
H3175 H 1.02492 0.41535 0.4987 0.0
H3176 H 0.06889 0.51627 0.45375 0.0
H3177 H 0.99309 0.47064 0.48578 0.0
H3178 H 0.05442 0.42861 0.48123 0.0
H3179 H 0.08157 0.44787 0.48026 0.0
C3180 C 0.09479 0.47607 0.47222 0.0
C3181 C 0.09136 0.49589 0.46571 0.0
C3182 C 0.04106 0.43792 0.48216 0.0
C3183 C 0.05911 0.46896 0.4686 0.0
C3184 C 1.02403 0.43018 0.4919 0.0
C3185 C 1.00668 0.44215 0.49417 0.0
C3186 C 0.04073 0.45785 0.47485 0.0
C3187 C 1.00635 0.46114 0.4849 0.0
C3188 C 0.07871 0.46251 0.47368 0.0
C3189 C 0.07205 0.5011 0.45895 0.0
N3190 N 1.0232 0.4685 0.47595 0.0
N3191 N 0.0566 0.48786 0.46092 0.0
H3192 H 0.66786 0.27824 0.75107 0.0
H3193 H 0.76757 0.32089 0.70008 0.0
H3194 H 0.71883 0.24239 0.73243 0.0
H3195 H 0.72269 0.3585 0.72827 0.0
H3196 H 0.74446 0.29227 0.70204 0.0
H3197 H 0.68247 0.30743 0.73362 0.0
C3198 C 0.68184 0.27639 0.74282 0.0
C3199 C 0.69237 0.25801 0.74342 0.0
C3200 C 0.73939 0.30688 0.70732 0.0
C3201 C 0.70916 0.29122 0.72363 0.0
C3202 C 0.75251 0.32323 0.70601 0.0
C3203 C 0.74697 0.34196 0.71406 0.0
C3204 C 0.72073 0.30921 0.71708 0.0
C3205 C 0.72742 0.34426 0.7218 0.0
C3206 C 0.69022 0.29306 0.73298 0.0
C3207 C 0.71043 0.2564 0.73258 0.0
N3208 N 0.7151 0.32793 0.72353 0.0
N3209 N 0.71838 0.27285 0.72336 0.0
H3210 H 0.56983 0.03245 0.59891 0.0
H3211 H 0.52751 0.13252 0.5484 0.0
H3212 H 0.60757 0.07753 0.57126 0.0
H3213 H 0.49148 0.08173 0.56717 0.0
H3214 H 0.55663 0.11779 0.56583 0.0
H3215 H 0.54125 0.05565 0.59709 0.0
C3216 C 0.57219 0.04755 0.5931 0.0
C3217 C 0.59094 0.05314 0.58516 0.0
C3218 C 0.54224 0.11011 0.56651 0.0
C3219 C 0.55827 0.07949 0.58232 0.0
C3220 C 0.5256 0.11855 0.55668 0.0
C3221 C 0.5072 0.10811 0.55611 0.0
C3222 C 0.54033 0.09117 0.57586 0.0
C3223 C 0.50552 0.09006 0.56698 0.0
C3224 C 0.55588 0.06073 0.59189 0.0
C3225 C 0.5933 0.07276 0.57761 0.0
N3226 N 0.52193 0.08204 0.57618 0.0
N3227 N 0.577 0.08514 0.57596 0.0
H3228 H 0.33267 0.3111 0.73091 0.0
H3229 H 0.32752 0.19226 0.72786 0.0
H3230 H 0.38057 0.27287 0.75259 0.0
H3231 H 0.28231 0.23178 0.70301 0.0
H3232 H 0.35086 0.22088 0.7299 0.0
H3233 H 0.31787 0.28221 0.71361 0.0
C3234 C 0.34028 0.29664 0.73162 0.0
C3235 C 0.35767 0.29424 0.74333 0.0
C3236 C 0.33604 0.22319 0.72344 0.0
C3237 C 0.34061 0.26094 0.72406 0.0
C3238 C 0.32281 0.20682 0.7221 0.0
C3239 C 0.30299 0.2098 0.71539 0.0
C3240 C 0.32925 0.24259 0.71812 0.0
C3241 C 0.29747 0.22896 0.70839 0.0
C3242 C 0.33185 0.28012 0.72179 0.0
C3243 C 0.36708 0.27527 0.74372 0.0
N3244 N 0.3104 0.2447 0.71026 0.0
N3245 N 0.35818 0.2592 0.73459 0.0
H3246 H 0.52222 0.41822 0.5487 0.0
H3247 H 0.47879 0.51847 0.59786 0.0
H3248 H 0.55781 0.46925 0.56756 0.0
H3249 H 0.44156 0.47272 0.57071 0.0
H3250 H 0.50755 0.49547 0.59653 0.0
H3251 H 0.49284 0.43289 0.56579 0.0
C3252 C 0.52398 0.43223 0.55693 0.0
C3253 C 0.54234 0.44276 0.55647 0.0
C3254 C 0.493 0.4902 0.59133 0.0
C3255 C 0.5089 0.45964 0.57582 0.0
C3256 C 0.47657 0.50327 0.59228 0.0
C3257 C 0.4579 0.49743 0.58435 0.0
C3258 C 0.49082 0.47129 0.58203 0.0
C3259 C 0.45576 0.47769 0.57707 0.0
C3260 C 0.50719 0.44064 0.56657 0.0
C3261 C 0.54381 0.46085 0.56729 0.0
N3262 N 0.47217 0.46542 0.57567 0.0
N3263 N 0.52725 0.46885 0.57627 0.0
H3264 H 0.81933 0.7176 0.81116 0.0
H3265 H 0.82293 0.72225 0.69259 0.0
H3266 H 0.79813 0.66934 0.77317 0.0
H3267 H 0.84812 0.76741 0.73189 0.0
H3268 H 0.82091 0.69892 0.72122 0.0
H3269 H 0.83697 0.73218 0.78235 0.0
C3270 C 0.81879 0.70987 0.79678 0.0
C3271 C 0.8071 0.69246 0.7944 0.0
C3272 C 0.82745 0.71372 0.72348 0.0
C3273 C 0.82677 0.70925 0.76119 0.0
C3274 C 0.82878 0.72694 0.7071 0.0
C3275 C 0.83556 0.74675 0.71003 0.0
C3276 C 0.83283 0.72052 0.74283 0.0
C3277 C 0.84268 0.75226 0.72912 0.0
C3278 C 0.82883 0.71817 0.78031 0.0
C3279 C 0.80696 0.68287 0.77554 0.0
N3280 N 0.84079 0.73935 0.74487 0.0
N3281 N 0.81627 0.69165 0.7595 0.0
H3282 H 1.01797 0.95102 0.56994 0.0
H3283 H 0.9179 1.00136 0.52736 0.0
H3284 H 0.97292 0.97894 0.60753 0.0
H3285 H 0.96873 0.98257 0.4914 0.0
H3286 H 0.93275 0.98423 0.5566 0.0
H3287 H 0.99486 0.95287 0.54135 0.0
C3288 C 1.00289 0.95689 0.57227 0.0
C3289 C 0.99729 0.96489 0.59099 0.0
C3290 C 0.94041 0.98347 0.5422 0.0
C3291 C 0.97103 0.96776 0.55829 0.0
C3292 C 0.93189 0.99313 0.5255 0.0
C3293 C 0.94229 0.99356 0.50707 0.0
C3294 C 0.95937 0.97416 0.54033 0.0
C3295 C 0.96041 0.9828 0.50545 0.0
C3296 C 0.98976 0.95812 0.55594 0.0
C3297 C 0.9777 0.97253 0.5933 0.0
N3298 N 0.96849 0.97376 0.52192 0.0
N3299 N 0.96537 0.97418 0.57699 0.0
H3300 H 0.25514 0.88532 0.77476 0.0
H3301 H 0.21012 0.78666 0.72396 0.0
H3302 H 0.2354 0.83243 0.80713 0.0
H3303 H 0.24051 0.83379 0.6912 0.0
H3304 H 0.2096 0.80818 0.75393 0.0
H3305 H 0.24011 0.87164 0.74398 0.0
C3306 C 0.2471 0.87111 0.77552 0.0
C3307 C 0.24678 0.85977 0.79339 0.0
C3308 C 0.21595 0.81405 0.74008 0.0
C3309 C 0.22989 0.84398 0.7583 0.0
C3310 C 0.21614 0.80183 0.72302 0.0
C3311 C 0.22535 0.80864 0.70531 0.0
C3312 C 0.22537 0.83303 0.73943 0.0
C3313 C 0.2332 0.82821 0.70469 0.0
C3314 C 0.23868 0.86325 0.75792 0.0
C3315 C 0.23628 0.84143 0.79354 0.0
N3316 N 0.23333 0.83968 0.72167 0.0
N3317 N 0.22852 0.83395 0.77617 0.0
H3318 H 0.08235 0.56737 0.49086 0.0
H3319 H 0.07706 0.57047 0.60953 0.0
H3320 H 0.13058 0.54611 0.52884 0.0
H3321 H 0.03247 0.59654 0.57015 0.0
H3322 H 0.10044 0.56812 0.58093 0.0
H3323 H 0.06753 0.58467 0.51975 0.0
C3324 C 0.09001 0.56674 0.50526 0.0
C3325 C 0.10751 0.55515 0.50759 0.0
C3326 C 0.08576 0.57492 0.57865 0.0
C3327 C 0.09043 0.57443 0.54092 0.0
C3328 C 0.07251 0.57643 0.59501 0.0
C3329 C 0.05283 0.58358 0.59206 0.0
C3330 C 0.07913 0.58048 0.55929 0.0
C3331 C 0.04751 0.59083 0.57295 0.0
C3332 C 0.08157 0.57658 0.52179 0.0
C3333 C 0.11699 0.55487 0.5265 0.0
N3334 N 0.06044 0.58877 0.55723 0.0
N3335 N 0.10809 0.564 0.54259 0.0
H3336 H 0.81829 0.33337 0.73951 0.0
H3337 H 0.82142 0.32787 0.85828 0.0
H3338 H 0.79615 0.381 0.77781 0.0
H3339 H 0.84707 0.28312 0.81876 0.0
H3340 H 0.81891 0.35121 0.8297 0.0
H3341 H 0.83555 0.31849 0.76839 0.0
C3342 C 0.81746 0.3409 0.75399 0.0
C3343 C 0.80568 0.35826 0.7564 0.0
C3344 C 0.82565 0.33651 0.82738 0.0
C3345 C 0.82493 0.34114 0.78968 0.0
C3346 C 0.82726 0.32328 0.84373 0.0
C3347 C 0.83434 0.30358 0.84074 0.0
C3348 C 0.83106 0.32982 0.80799 0.0
C3349 C 0.84143 0.29819 0.82158 0.0
C3350 C 0.82728 0.33242 0.7705 0.0
C3351 C 0.80511 0.36755 0.77539 0.0
N3352 N 0.83928 0.31111 0.80587 0.0
N3353 N 0.81425 0.35864 0.79145 0.0
H3354 H 0.53276 0.95152 0.48041 0.0
H3355 H 0.63274 1.00135 0.52334 0.0
H3356 H 0.57833 0.97884 0.44302 0.0
H3357 H 0.58149 0.98316 0.559 0.0
H3358 H 0.6182 0.98384 0.4942 0.0
H3359 H 0.55574 0.95311 0.50912 0.0
C3360 C 0.54792 0.95721 0.47816 0.0
C3361 C 0.55371 0.96514 0.45946 0.0
C3362 C 0.61037 0.98331 0.50852 0.0
C3363 C 0.57981 0.96771 0.49229 0.0
C3364 C 0.6187 0.99319 0.52517 0.0
C3365 C 0.60807 0.99395 0.54346 0.0
C3366 C 0.59136 0.97413 0.51031 0.0
C3367 C 0.58995 0.98321 0.54504 0.0
C3368 C 0.56097 0.95829 0.49455 0.0
C3369 C 0.5734 0.97251 0.45724 0.0
N3370 N 0.58204 0.97398 0.52861 0.0
N3371 N 0.58565 0.97404 0.47362 0.0
H3372 H 0.22791 0.22259 0.85841 0.0
H3373 H 0.23116 0.21779 0.73978 0.0
H3374 H 0.20269 0.26777 0.8191 0.0
H3375 H 0.25264 0.16964 0.7778 0.0
H3376 H 0.21365 0.23244 0.76864 0.0
H3377 H 0.22992 0.19926 0.82979 0.0
C3378 C 0.22205 0.22728 0.8439 0.0
C3379 C 0.21525 0.2471 0.84097 0.0
C3380 C 0.22183 0.21844 0.77068 0.0
C3381 C 0.21797 0.22086 0.80817 0.0
C3382 C 0.23178 0.21009 0.75417 0.0
C3383 C 0.24351 0.19268 0.75654 0.0
C3384 C 0.22399 0.20956 0.78981 0.0
C3385 C 0.24377 0.18315 0.77543 0.0
C3386 C 0.22337 0.21406 0.82752 0.0
C3387 C 0.20812 0.25261 0.82187 0.0
N3388 N 0.23453 0.19197 0.79149 0.0
N3389 N 0.21 0.23969 0.80613 0.0
H3390 H 0.51692 0.59949 0.48005 0.0
H3391 H 0.41735 0.5465 0.52034 0.0
H3392 H 0.47335 0.57079 0.44142 0.0
H3393 H 0.46615 0.56774 0.5576 0.0
H3394 H 0.43243 0.5639 0.49136 0.0
H3395 H 0.49317 0.59716 0.50812 0.0
C3396 C 0.50202 0.59333 0.47738 0.0
C3397 C 0.49702 0.58528 0.45853 0.0
C3398 C 0.43958 0.56513 0.50597 0.0
C3399 C 0.47006 0.58184 0.49063 0.0
C3400 C 0.43093 0.55532 0.52251 0.0
C3401 C 0.44072 0.55552 0.54125 0.0
C3402 C 0.45808 0.57521 0.50831 0.0
C3403 C 0.45832 0.56702 0.5433 0.0
C3404 C 0.48853 0.59182 0.49341 0.0
C3405 C 0.47766 0.57726 0.45577 0.0
N3406 N 0.46657 0.57618 0.52698 0.0
N3407 N 0.46499 0.57533 0.4718 0.0
H3408 H 0.69243 0.82251 0.72321 0.0
H3409 H 0.81112 0.81848 0.71839 0.0
H3410 H 0.73188 0.84753 0.76831 0.0
H3411 H 0.77299 0.79738 0.67023 0.0
H3412 H 0.78233 0.83608 0.7331 0.0
H3413 H 0.72109 0.82025 0.69993 0.0
C3414 C 0.70698 0.82827 0.7279 0.0
C3415 C 0.70994 0.83508 0.74768 0.0
C3416 C 0.78025 0.82796 0.71909 0.0
C3417 C 0.74276 0.83208 0.72149 0.0
C3418 C 0.79671 0.81795 0.71071 0.0
C3419 C 0.7943 0.80631 0.69328 0.0
C3420 C 0.76111 0.82594 0.71021 0.0
C3421 C 0.7754 0.80618 0.68377 0.0
C3422 C 0.72338 0.8268 0.7147 0.0
C3423 C 0.72909 0.84208 0.75318 0.0
N3424 N 0.75937 0.81548 0.69261 0.0
N3425 N 0.74484 0.84006 0.74029 0.0
H3426 H 0.81063 0.23145 0.83265 0.0
H3427 H 0.69187 0.22831 0.82717 0.0
H3428 H 0.77223 0.25292 0.8805 0.0
H3429 H 0.73157 0.20414 0.78175 0.0
H3430 H 0.7204 0.2301 0.85061 0.0
H3431 H 0.78184 0.21412 0.81771 0.0
C3432 C 0.79617 0.23209 0.84023 0.0
C3433 C 0.79367 0.24377 0.85763 0.0
C3434 C 0.72277 0.22384 0.83572 0.0
C3435 C 0.76048 0.22449 0.8404 0.0
C3436 C 0.70645 0.22265 0.82243 0.0
C3437 C 0.70951 0.2162 0.80253 0.0
C3438 C 0.74219 0.21864 0.82892 0.0
C3439 C 0.72869 0.20931 0.79697 0.0
C3440 C 0.7797 0.22225 0.83171 0.0
C3441 C 0.77469 0.24408 0.86699 0.0
N3442 N 0.74437 0.21104 0.80997 0.0
N3443 N 0.75867 0.23495 0.85801 0.0
H3444 H 0.50274 0.02768 0.41792 0.0
H3445 H 0.4518 0.06981 0.51776 0.0
H3446 H 0.48367 0.99146 0.46845 0.0
H3447 H 0.47932 0.10767 0.4727 0.0
H3448 H 0.45376 0.04123 0.4946 0.0
H3449 H 0.48521 0.05678 0.43261 0.0
C3450 C 0.49438 0.02573 0.43182 0.0
C3451 C 0.49488 1.00727 0.4422 0.0
C3452 C 0.4589 0.05588 0.48951 0.0
C3453 C 0.47503 0.04038 0.45911 0.0
C3454 C 0.45761 0.0722 0.50267 0.0
C3455 C 0.46548 0.09098 0.49707 0.0
C3456 C 0.46848 0.05831 0.47077 0.0
C3457 C 0.47303 0.09337 0.47747 0.0
C3458 C 0.48449 0.04235 0.44025 0.0
C3459 C 0.48391 1.00554 0.46017 0.0
N3460 N 0.47476 0.07707 0.46512 0.0
N3461 N 0.47466 1.02195 0.46818 0.0
H3462 H 0.31959 0.34956 0.78198 0.0
H3463 H 0.27748 0.29853 0.88188 0.0
H3464 H 0.35745 0.3217 0.8268 0.0
H3465 H 0.24132 0.3173 0.83124 0.0
H3466 H 0.30657 0.31595 0.86706 0.0
H3467 H 0.29103 0.34746 0.80516 0.0
C3468 C 0.32198 0.34365 0.79703 0.0
C3469 C 0.34077 0.33573 0.80255 0.0
C3470 C 0.29216 0.31663 0.85943 0.0
C3471 C 0.30811 0.33258 0.82887 0.0
C3472 C 0.27554 0.3068 0.86793 0.0
C3473 C 0.2571 0.30627 0.85756 0.0
C3474 C 0.2902 0.32601 0.84053 0.0
C3475 C 0.25538 0.31711 0.83952 0.0
C3476 C 0.30567 0.34227 0.81019 0.0
C3477 C 0.34315 0.32805 0.82209 0.0
N3478 N 0.27178 0.32631 0.83145 0.0
N3479 N 0.32686 0.32625 0.83445 0.0
H3480 H 0.06927 0.061 0.96735 0.0
H3481 H 0.07263 0.94218 0.97277 0.0
H3482 H 0.04754 1.02265 0.91963 0.0
H3483 H 0.09758 0.98179 1.01778 0.0
H3484 H 0.07045 0.97076 0.94938 0.0
H3485 H 0.08669 0.03216 0.98216 0.0
C3486 C 0.06857 0.04653 0.95978 0.0
C3487 C 0.05681 0.04408 0.94244 0.0
C3488 C 0.07696 0.9731 0.96416 0.0
C3489 C 0.07623 1.01084 0.95951 0.0
C3490 C 0.07838 0.95675 0.97742 0.0
C3491 C 0.08516 0.95977 0.9972 0.0
C3492 C 0.08226 0.99252 0.97089 0.0
C3493 C 0.09215 0.97895 1.00265 0.0
C3494 C 0.07848 0.03004 0.96822 0.0
C3495 C 0.05644 1.0251 0.93308 0.0
N3496 N 0.09019 0.99466 0.9897 0.0
N3497 N 0.06565 1.00905 0.94199 0.0
H3498 H 0.859 0.22827 0.22264 0.0
H3499 H 0.74026 0.23131 0.21732 0.0
H3500 H 0.81947 0.20286 0.26751 0.0
H3501 H 0.77848 0.25317 0.16951 0.0
H3502 H 0.76913 0.21388 0.23204 0.0
H3503 H 0.83044 0.23044 0.19925 0.0
C3504 C 0.84446 0.22241 0.22725 0.0
C3505 C 0.84145 0.21549 0.247 0.0
C3506 C 0.77122 0.22212 0.2181 0.0
C3507 C 0.80873 0.21839 0.22069 0.0
C3508 C 0.75471 0.23203 0.20971 0.0
C3509 C 0.75712 0.24384 0.19238 0.0
C3510 C 0.7904 0.22441 0.20934 0.0
C3511 C 0.77607 0.24424 0.18296 0.0
C3512 C 0.82812 0.22382 0.21399 0.0
C3513 C 0.82231 0.20838 0.25241 0.0
N3514 N 0.79214 0.23503 0.19182 0.0
N3515 N 0.80661 0.21033 0.23946 0.0
H3516 H 0.50163 1.02327 0.13216 0.0
H3517 H 0.45142 0.98105 0.03212 0.0
H3518 H 0.4828 0.05943 0.08152 0.0
H3519 H 0.47871 0.94326 0.07736 0.0
H3520 H 0.45311 1.00963 0.05528 0.0
H3521 H 0.48419 0.99416 0.11744 0.0
C3522 C 0.49333 1.02521 0.11824 0.0
C3523 C 0.49387 0.04364 0.10783 0.0
C3524 C 0.45826 0.995 0.0604 0.0
C3525 C 0.47412 1.01053 0.0909 0.0
C3526 C 0.45713 0.97868 0.04724 0.0
C3527 C 0.46503 0.95991 0.05288 0.0
C3528 C 0.46769 0.99259 0.07921 0.0
C3529 C 0.47241 0.95754 0.07254 0.0
C3530 C 0.48348 1.00858 0.1098 0.0
C3531 C 0.48298 0.04536 0.08983 0.0
N3532 N 0.47399 0.97384 0.0849 0.0
N3533 N 0.47378 0.02895 0.0818 0.0
H3534 H 0.56942 0.48966 0.08339 0.0
H3535 H 0.57278 0.60848 0.07799 0.0
H3536 H 0.54764 0.52804 0.1311 0.0
H3537 H 0.59744 0.56882 0.0328 0.0
H3538 H 0.57069 0.5799 0.10138 0.0
H3539 H 0.58687 0.51847 0.06857 0.0
C3540 C 0.56873 0.50413 0.09096 0.0
C3541 C 0.55693 0.50661 0.10829 0.0
C3542 C 0.57712 0.57754 0.08656 0.0
C3543 C 0.57638 0.53981 0.09121 0.0
C3544 C 0.57848 0.59389 0.07329 0.0
C3545 C 0.58515 0.59086 0.05346 0.0
C3546 C 0.58237 0.55812 0.07979 0.0
C3547 C 0.59209 0.57167 0.04796 0.0
C3548 C 0.57865 0.5206 0.08251 0.0
C3549 C 0.55657 0.52559 0.11765 0.0
N3550 N 0.59019 0.55596 0.06093 0.0
N3551 N 0.56578 0.54161 0.10874 0.0
H3552 H 0.15621 0.42714 0.25067 0.0
H3553 H 0.14372 0.45492 0.13414 0.0
H3554 H 0.11276 0.3978 0.21223 0.0
H3555 H 0.17776 0.49112 0.17609 0.0
H3556 H 0.13236 0.43372 0.16211 0.0
H3557 H 0.16444 0.45029 0.22334 0.0
C3558 C 0.14832 0.42557 0.23647 0.0
C3559 C 0.13376 0.4104 0.23378 0.0
C3560 C 0.14216 0.44641 0.16524 0.0
C3561 C 0.14332 0.43701 0.20215 0.0
C3562 C 0.14867 0.45857 0.14926 0.0
C3563 C 0.16175 0.47491 0.15271 0.0
C3564 C 0.14888 0.45042 0.1849 0.0
C3565 C 0.16765 0.47877 0.17267 0.0
C3566 C 0.15303 0.43889 0.22084 0.0
C3567 C 0.12403 0.40927 0.21502 0.0
N3568 N 0.16131 0.46655 0.18794 0.0
N3569 N 0.12909 0.42228 0.19987 0.0
H3570 H 0.74136 0.62054 0.12553 0.0
H3571 H 0.64768 0.68855 0.08883 0.0
H3572 H 0.70605 0.65743 0.1659 0.0
H3573 H 0.6768 0.64358 0.05189 0.0
H3574 H 0.67091 0.68006 0.11647 0.0
H3575 H 0.71999 0.63163 0.09752 0.0
C3576 C 0.72926 0.63111 0.1285 0.0
C3577 C 0.72556 0.63801 0.14817 0.0
C3578 C 0.67224 0.67212 0.10226 0.0
C3579 C 0.70087 0.65077 0.11608 0.0
C3580 C 0.65901 0.67702 0.08647 0.0
C3581 C 0.6602 0.66674 0.068 0.0
C3582 C 0.6869 0.65697 0.09952 0.0
C3583 C 0.67519 0.65185 0.06586 0.0
C3584 C 0.71698 0.63739 0.1125 0.0
C3585 C 0.70953 0.65166 0.15104 0.0
N3586 N 0.68788 0.64746 0.08135 0.0
N3587 N 0.69779 0.65754 0.13523 0.0
H3588 H 0.90841 0.09413 0.13437 0.0
H3589 H 0.89223 0.12462 0.24989 0.0
H3590 H 0.87011 0.06089 0.17514 0.0
H3591 H 0.93797 0.15172 0.21239 0.0
H3592 H 0.8839 0.10147 0.22259 0.0
H3593 H 0.91934 0.11536 0.16241 0.0
C3594 C 0.90241 0.09114 0.14926 0.0
C3595 C 0.88828 0.0756 0.15233 0.0
C3596 C 0.89583 0.11239 0.2203 0.0
C3597 C 0.9007 0.10016 0.18464 0.0
C3598 C 0.90059 0.12571 0.2359 0.0
C3599 C 0.91583 0.14026 0.23347 0.0
C3600 C 0.90619 0.11362 0.20188 0.0
C3601 C 0.92616 0.14076 0.21498 0.0
C3602 C 0.90868 0.10333 0.16529 0.0
C3603 C 0.88105 0.07259 0.17201 0.0
N3604 N 0.92105 0.12775 0.19986 0.0
N3605 N 0.88723 0.08482 0.18734 0.0
H3606 H 0.34788 0.89662 0.16715 0.0
H3607 H 0.37364 0.90647 0.04993 0.0
H3608 H 0.31047 0.9292 0.12505 0.0
H3609 H 0.40387 0.86413 0.08899 0.0
H3610 H 0.35076 0.91515 0.07738 0.0
H3611 H 0.36867 0.88479 0.13911 0.0
C3612 C 0.34389 0.90117 0.15199 0.0
C3613 C 0.32731 0.91398 0.14852 0.0
C3614 C 0.3623 0.90388 0.07998 0.0
C3615 C 0.35135 0.90053 0.11621 0.0
C3616 C 0.37546 0.89892 0.06429 0.0
C3617 C 0.39081 0.88455 0.06712 0.0
C3618 C 0.36452 0.89463 0.09888 0.0
C3619 C 0.39226 0.87524 0.08609 0.0
C3620 C 0.35582 0.89438 0.13596 0.0
C3621 C 0.32301 0.91933 0.1285 0.0
N3622 N 0.3794 0.88056 0.10129 0.0
N3623 N 0.33502 0.91272 0.11316 0.0
H3624 H 0.18067 0.55992 0.37553 0.0
H3625 H 0.11214 0.65308 0.33847 0.0
H3626 H 0.14448 0.59591 0.41594 0.0
H3627 H 0.15691 0.6238 0.30141 0.0
H3628 H 0.12099 0.63017 0.36628 0.0
H3629 H 0.16924 0.58095 0.34739 0.0
C3630 C 0.17019 0.57211 0.37849 0.0
C3631 C 0.16358 0.5761 0.3982 0.0
C3632 C 0.1288 0.62874 0.35202 0.0
C3633 C 0.15042 0.60037 0.36595 0.0
C3634 C 0.12369 0.64177 0.33612 0.0
C3635 C 0.13382 0.64045 0.31757 0.0
C3636 C 0.14399 0.61412 0.34928 0.0
C3637 C 0.14875 0.62551 0.31545 0.0
C3638 C 0.16371 0.58419 0.36241 0.0
C3639 C 0.15003 0.59222 0.40104 0.0
N3640 N 0.15335 0.61299 0.33104 0.0
N3641 N 0.14394 0.60374 0.38516 0.0
H3642 H 0.87529 0.64189 1.00026 0.0
H3643 H 0.84395 0.6583 0.88502 0.0
H3644 H 0.90234 0.68747 0.96252 0.0
H3645 H 0.81112 0.61977 0.9259 0.0
H3646 H 0.86536 0.66918 0.91292 0.0
H3647 H 0.85188 0.63367 0.97317 0.0
C3648 C 0.87632 0.65024 0.98626 0.0
C3649 C 0.89094 0.66539 0.9837 0.0
C3650 C 0.85338 0.65848 0.91586 0.0
C3651 C 0.86399 0.65587 0.95234 0.0
C3652 C 0.84108 0.65223 0.89991 0.0
C3653 C 0.82561 0.63805 0.90305 0.0
C3654 C 0.85039 0.65043 0.9352 0.0
C3655 C 0.82276 0.63075 0.92272 0.0
C3656 C 0.86285 0.64553 0.97077 0.0
C3657 C 0.89134 0.67571 0.96521 0.0
N3658 N 0.8351 0.63691 0.93798 0.0
N3659 N 0.87818 0.67066 0.9502 0.0
H3660 H 0.90792 0.95591 0.41468 0.0
H3661 H 0.89329 0.92636 0.29885 0.0
H3662 H 0.8712 0.99034 0.37345 0.0
H3663 H 0.93802 0.89837 0.33688 0.0
H3664 H 0.88506 0.9497 0.32603 0.0
H3665 H 0.91915 0.93479 0.38666 0.0
C3666 C 0.90234 0.95919 0.39969 0.0
C3667 C 0.88855 0.975 0.39648 0.0
C3668 C 0.89675 0.93855 0.32846 0.0
C3669 C 0.9013 0.95058 0.3642 0.0
C3670 C 0.90145 0.92512 0.31293 0.0
C3671 C 0.91637 0.91026 0.31555 0.0
C3672 C 0.90683 0.93711 0.347 0.0
C3673 C 0.92646 0.90957 0.33414 0.0
C3674 C 0.90879 0.94707 0.38368 0.0
C3675 C 0.88188 0.97841 0.37668 0.0
N3676 N 0.92141 0.92269 0.34919 0.0
N3677 N 0.88819 0.96622 0.36136 0.0
H3678 H 0.2411 0.93134 0.92618 0.0
H3679 H 0.14818 0.86208 0.96237 0.0
H3680 H 0.20711 0.89336 0.88577 0.0
H3681 H 0.17615 0.9077 0.99933 0.0
H3682 H 0.17161 0.87073 0.93493 0.0
H3683 H 0.21957 0.92014 0.95403 0.0
C3684 C 0.22926 0.92051 0.92317 0.0
C3685 C 0.22597 0.91332 0.90354 0.0
C3686 C 0.17264 0.87877 0.94909 0.0
C3687 C 0.2011 0.90045 0.93545 0.0
C3688 C 0.15931 0.87379 0.96478 0.0
C3689 C 0.16011 0.8842 0.98319 0.0
C3690 C 0.18703 0.89415 0.9519 0.0
C3691 C 0.17483 0.89932 0.98539 0.0
C3692 C 0.21688 0.91417 0.93909 0.0
C3693 C 0.21026 0.89934 0.90062 0.0
N3694 N 0.18764 0.9038 0.97001 0.0
N3695 N 0.19843 0.89342 0.91633 0.0
H3696 H 0.13357 0.14239 0.45587 0.0
H3697 H 0.24934 0.15829 0.42597 0.0
H3698 H 0.17456 0.17974 0.48985 0.0
H3699 H 0.21168 0.1133 0.39792 0.0
H3700 H 0.22199 0.16638 0.44916 0.0
H3701 H 0.16161 0.13164 0.43447 0.0
C3702 C 0.1485 0.14822 0.45899 0.0
C3703 C 0.15165 0.16203 0.47478 0.0
C3704 C 0.21967 0.15467 0.43802 0.0
C3705 C 0.18393 0.14982 0.45004 0.0
C3706 C 0.23531 0.15005 0.42467 0.0
C3707 C 0.23285 0.13509 0.40985 0.0
C3708 C 0.20119 0.14446 0.43654 0.0
C3709 C 0.2143 0.1249 0.40909 0.0
C3710 C 0.16453 0.14205 0.4467 0.0
C3711 C 0.17137 0.16905 0.47794 0.0
N3712 N 0.19914 0.12987 0.42214 0.0
N3713 N 0.18669 0.16298 0.46563 0.0
H3714 H 0.4311 0.62503 0.80944 0.0
H3715 H 0.36226 0.58869 0.90268 0.0
H3716 H 0.39311 0.66529 0.84369 0.0
H3717 H 0.40772 0.55164 0.87445 0.0
H3718 H 0.37075 0.6161 0.87917 0.0
H3719 H 0.41999 0.59704 0.83092 0.0
C3720 C 0.42028 0.62797 0.82131 0.0
C3721 C 0.41308 0.6476 0.8247 0.0
C3722 C 0.3788 0.60192 0.87809 0.0
C3723 C 0.40031 0.61557 0.84951 0.0
C3724 C 0.3739 0.58625 0.89149 0.0
C3725 C 0.38432 0.56782 0.89065 0.0
C3726 C 0.39409 0.59909 0.8636 0.0
C3727 C 0.39935 0.56559 0.87581 0.0
C3728 C 0.41399 0.61199 0.83366 0.0
C3729 C 0.39912 0.65045 0.84046 0.0
N3730 N 0.40374 0.58097 0.86295 0.0
N3731 N 0.39325 0.63468 0.85226 0.0
H3732 H 0.91561 0.40853 0.45668 0.0
H3733 H 0.80029 0.39217 0.42563 0.0
H3734 H 0.87479 0.36988 0.48946 0.0
H3735 H 0.83785 0.43798 0.39872 0.0
H3736 H 0.82747 0.38388 0.44892 0.0
H3737 H 0.88762 0.41954 0.4354 0.0
C3738 C 0.90072 0.40247 0.45956 0.0
C3739 C 0.8976 0.38821 0.47497 0.0
C3740 C 0.82981 0.39582 0.43801 0.0
C3741 C 0.86539 0.40072 0.45037 0.0
C3742 C 0.81427 0.40056 0.42462 0.0
C3743 C 0.81676 0.4158 0.41008 0.0
C3744 C 0.8482 0.40621 0.43686 0.0
C3745 C 0.83522 0.42616 0.40967 0.0
C3746 C 0.88472 0.40878 0.44734 0.0
C3747 C 0.87794 0.38091 0.47785 0.0
N3748 N 0.85028 0.42109 0.42275 0.0
N3749 N 0.86265 0.38713 0.4656 0.0
H3750 H 0.65859 0.88494 0.84439 0.0
H3751 H 0.64257 1.00068 0.87446 0.0
H3752 H 0.62049 0.92575 0.81095 0.0
H3753 H 0.68818 0.96316 0.90176 0.0
H3754 H 0.63427 0.97331 0.85138 0.0
H3755 H 0.66954 0.91305 0.86554 0.0
C3756 C 0.65263 0.89985 0.84134 0.0
C3757 C 0.63856 0.90292 0.82577 0.0
C3758 C 0.64616 0.97103 0.86232 0.0
C3759 C 0.65101 0.9353 0.85023 0.0
C3760 C 0.65091 0.98667 0.8756 0.0
C3761 C 0.66611 0.98426 0.89019 0.0
C3762 C 0.65649 0.95259 0.86363 0.0
C3763 C 0.67641 0.96574 0.89076 0.0
C3764 C 0.65892 0.91592 0.85348 0.0
C3765 C 0.63139 0.92263 0.82268 0.0
N3766 N 0.67132 0.95058 0.87779 0.0
N3767 N 0.63758 0.93799 0.83486 0.0
H3768 H 0.13516 0.90834 0.09377 0.0
H3769 H 0.25076 0.89208 0.12422 0.0
H3770 H 0.17586 0.86987 0.06059 0.0
H3771 H 0.21307 0.9376 0.1515 0.0
H3772 H 0.22345 0.88372 0.10108 0.0
H3773 H 0.16321 0.91916 0.11502 0.0
C3774 C 0.15003 0.90227 0.0908 0.0
C3775 C 0.15308 0.88814 0.07527 0.0
C3776 C 0.22112 0.8956 0.11205 0.0
C3777 C 0.18541 0.90044 0.09986 0.0
C3778 C 0.23673 0.90038 0.12536 0.0
C3779 C 0.23425 0.91557 0.13995 0.0
C3780 C 0.20266 0.9059 0.11333 0.0
C3781 C 0.21571 0.92582 0.14052 0.0
C3782 C 0.16607 0.90848 0.103 0.0
C3783 C 0.17275 0.88083 0.07229 0.0
N3784 N 0.2006 0.92071 0.12751 0.0
N3785 N 0.18809 0.88695 0.08453 0.0
H3786 H 0.1198 0.62432 0.24028 0.0
H3787 H 0.1898 0.58776 0.148 0.0
H3788 H 0.15832 0.66457 0.20663 0.0
H3789 H 0.1431 0.55133 0.17494 0.0
H3790 H 0.18122 0.61516 0.17153 0.0
H3791 H 0.13104 0.59639 0.21881 0.0
C3792 C 0.13077 0.62727 0.22854 0.0
C3793 C 0.13808 0.64688 0.22532 0.0
C3794 C 0.17293 0.60112 0.17231 0.0
C3795 C 0.151 0.61491 0.20052 0.0
C3796 C 0.17787 0.58546 0.15892 0.0
C3797 C 0.16712 0.56722 0.15939 0.0
C3798 C 0.15727 0.59845 0.18644 0.0
C3799 C 0.15174 0.56514 0.17387 0.0
C3800 C 0.13712 0.61132 0.2162 0.0
C3801 C 0.15222 0.64974 0.20973 0.0
N3802 N 0.14732 0.58049 0.18675 0.0
N3803 N 0.15816 0.63399 0.19793 0.0
H3804 H 0.87524 0.68065 0.05963 0.0
H3805 H 0.83861 0.61243 0.1532 0.0
H3806 H 0.91536 0.64287 0.09425 0.0
H3807 H 0.80163 0.6577 0.1246 0.0
H3808 H 0.8661 0.62083 0.12976 0.0
H3809 H 0.8472 0.66975 0.08115 0.0
C3810 C 0.87815 0.66992 0.0716 0.0
C3811 C 0.89775 0.6627 0.07507 0.0
C3812 C 0.85192 0.62886 0.12859 0.0
C3813 C 0.86566 0.65019 0.09992 0.0
C3814 C 0.83621 0.62402 0.14194 0.0
C3815 C 0.81778 0.6344 0.14097 0.0
C3816 C 0.84914 0.64406 0.114 0.0
C3817 C 0.81559 0.64935 0.12606 0.0
C3818 C 0.86213 0.66376 0.08397 0.0
C3819 C 0.90054 0.64887 0.09095 0.0
N3820 N 0.83101 0.65369 0.11323 0.0
N3821 N 0.88475 0.64312 0.10276 0.0
H3822 H 0.90835 1.00027 0.17521 0.0
H3823 H 0.89209 0.88472 0.20593 0.0
H3824 H 0.86254 0.9628 0.14825 0.0
H3825 H 0.93056 0.92549 0.23891 0.0
H3826 H 0.88112 0.91279 0.18469 0.0
H3827 H 0.91666 0.97296 0.19838 0.0
C3828 C 0.89996 0.98628 0.17416 0.0
C3829 C 0.88471 0.98387 0.15964 0.0
C3830 C 0.89183 0.91566 0.19667 0.0
C3831 C 0.89435 0.95227 0.18631 0.0
C3832 C 0.89812 0.89962 0.20887 0.0
C3833 C 0.9123 0.90269 0.22433 0.0
C3834 C 0.89984 0.93501 0.19977 0.0
C3835 C 0.91957 0.92236 0.22727 0.0
C3836 C 0.90472 0.97067 0.18749 0.0
C3837 C 0.87436 0.96539 0.15919 0.0
N3838 N 0.91337 0.93771 0.21504 0.0
N3839 N 0.87946 0.95026 0.17221 0.0
H3840 H 0.49011 0.17638 0.1814 0.0
H3841 H 0.39743 0.21299 0.11196 0.0
H3842 H 0.4559 0.13623 0.14334 0.0
H3843 H 0.42504 0.24983 0.15788 0.0
H3844 H 0.42091 0.18557 0.12057 0.0
H3845 H 0.46874 0.20445 0.17017 0.0
C3846 C 0.47827 0.17347 0.17055 0.0
C3847 C 0.47486 0.15385 0.16336 0.0
C3848 C 0.42186 0.1997 0.12869 0.0
C3849 C 0.45019 0.18596 0.15046 0.0
C3850 C 0.40849 0.21538 0.12372 0.0
C3851 C 0.40915 0.23375 0.13424 0.0
C3852 C 0.43616 0.20247 0.14415 0.0
C3853 C 0.42381 0.23592 0.14942 0.0
C3854 C 0.46599 0.1895 0.16419 0.0
C3855 C 0.45915 0.15106 0.14936 0.0
N3856 N 0.43666 0.22054 0.15388 0.0
N3857 N 0.44743 0.16686 0.14342 0.0
H3858 H 0.49208 0.87535 0.37021 0.0
H3859 H 0.39909 0.83941 0.43958 0.0
H3860 H 0.45807 0.91594 0.40807 0.0
H3861 H 0.42669 0.80247 0.39368 0.0
H3862 H 0.42264 0.86677 0.43095 0.0
H3863 H 0.4705 0.84753 0.38146 0.0
C3864 C 0.48023 0.8784 0.38103 0.0
C3865 C 0.47694 0.89807 0.38816 0.0
C3866 C 0.42357 0.85263 0.42284 0.0
C3867 C 0.45202 0.86621 0.40109 0.0
C3868 C 0.41016 0.83699 0.42782 0.0
C3869 C 0.41081 0.81861 0.41731 0.0
C3870 C 0.43789 0.8498 0.40739 0.0
C3871 C 0.42547 0.81639 0.40213 0.0
C3872 C 0.46782 0.86251 0.3874 0.0
C3873 C 0.46122 0.90106 0.40213 0.0
N3874 N 0.43836 0.83172 0.39766 0.0
N3875 N 0.44936 0.88536 0.40808 0.0
H3876 H 0.12417 0.30859 0.92999 0.0
H3877 H 0.08821 0.40239 0.86179 0.0
H3878 H 0.16453 0.34312 0.89238 0.0
H3879 H 0.05111 0.37413 0.90716 0.0
H3880 H 0.11547 0.37862 0.87003 0.0
H3881 H 0.09621 0.33011 0.91887 0.0
C3882 C 0.12713 0.32052 0.91923 0.0
C3883 C 0.14677 0.32402 0.91216 0.0
C3884 C 0.10131 0.37759 0.8781 0.0
C3885 C 0.11482 0.34885 0.89941 0.0
C3886 C 0.08573 0.39113 0.87335 0.0
C3887 C 0.06736 0.39035 0.88383 0.0
C3888 C 0.09841 0.36303 0.8933 0.0
C3889 C 0.06504 0.37543 0.89875 0.0
C3890 C 0.11117 0.33289 0.91295 0.0
C3891 C 0.14967 0.33983 0.89829 0.0
N3892 N 0.08033 0.36242 0.90301 0.0
N3893 N 0.13394 0.35165 0.89244 0.0
H3894 H 0.6537 0.71279 0.43853 0.0
H3895 H 0.56046 0.67661 0.36976 0.0
H3896 H 0.62538 0.74996 0.39327 0.0
H3897 H 0.59555 0.636 0.40657 0.0
H3898 H 0.58169 0.70462 0.38123 0.0
H3899 H 0.63027 0.68534 0.42992 0.0
C3900 C 0.6425 0.71524 0.42692 0.0
C3901 C 0.64162 0.73371 0.41658 0.0
C3902 C 0.58467 0.68959 0.38689 0.0
C3903 C 0.61468 0.70242 0.40668 0.0
C3904 C 0.57247 0.67359 0.3804 0.0
C3905 C 0.57618 0.65386 0.38715 0.0
C3906 C 0.60069 0.68592 0.40033 0.0
C3907 C 0.59209 0.65092 0.4009 0.0
C3908 C 0.62916 0.69956 0.42195 0.0
C3909 C 0.62678 0.73597 0.40159 0.0
N3910 N 0.60373 0.66671 0.40697 0.0
N3911 N 0.61396 0.72059 0.39712 0.0
H3912 H 0.42754 0.74233 0.4304 0.0
H3913 H 0.46321 0.64857 0.36193 0.0
H3914 H 0.38679 0.70754 0.39354 0.0
H3915 H 0.50053 0.67691 0.40701 0.0
H3916 H 0.43587 0.67216 0.37053 0.0
H3917 H 0.45539 0.72079 0.41907 0.0
C3918 C 0.42446 0.73033 0.41977 0.0
C3919 C 0.40474 0.72679 0.41296 0.0
C3920 C 0.4501 0.67324 0.37847 0.0
C3921 C 0.43662 0.70192 0.39995 0.0
C3922 C 0.46572 0.65981 0.37351 0.0
C3923 C 0.4842 0.66066 0.38379 0.0
C3924 C 0.45303 0.68778 0.39367 0.0
C3925 C 0.48653 0.67554 0.39874 0.0
C3926 C 0.44037 0.71794 0.41336 0.0
C3927 C 0.40172 0.71087 0.39924 0.0
N3928 N 0.47121 0.68845 0.40319 0.0
N3929 N 0.41742 0.69904 0.39324 0.0
H3930 H 0.15042 0.83678 0.60896 0.0
H3931 H 0.05841 0.87423 0.6789 0.0
H3932 H 0.11991 0.79911 0.65236 0.0
H3933 H 0.09433 0.91456 0.64258 0.0
H3934 H 0.07868 0.84586 0.66661 0.0
H3935 H 0.12798 0.86484 0.61836 0.0
C3936 C 0.1389 0.83433 0.62028 0.0
C3937 C 0.13711 0.81553 0.62988 0.0
C3938 C 0.08206 0.86091 0.66123 0.0
C3939 C 0.11138 0.84755 0.64075 0.0
C3940 C 0.07041 0.87713 0.66821 0.0
C3941 C 0.07461 0.89687 0.66182 0.0
C3942 C 0.09804 0.86438 0.64767 0.0
C3943 C 0.09049 0.89963 0.64798 0.0
C3944 C 0.12615 0.85037 0.62572 0.0
C3945 C 0.12196 0.81332 0.64458 0.0
N3946 N 0.10161 0.88363 0.64143 0.0
N3947 N 0.10977 0.82906 0.64954 0.0
H3948 H 0.04879 0.67317 0.6404 0.0
H3949 H 0.16327 0.70672 0.65711 0.0
H3950 H 0.08624 0.64883 0.68769 0.0
H3951 H 0.12284 0.73705 0.61612 0.0
H3952 H 0.13541 0.68561 0.66858 0.0
H3953 H 0.07567 0.69661 0.63147 0.0
C3954 C 0.06268 0.67275 0.64897 0.0
C3955 C 0.06525 0.65889 0.66481 0.0
C3956 C 0.13255 0.69698 0.6572 0.0
C3957 C 0.09631 0.68583 0.65449 0.0
C3958 C 0.14848 0.70909 0.6506 0.0
C3959 C 0.14544 0.72374 0.63555 0.0
C3960 C 0.11335 0.69934 0.64865 0.0
C3961 C 0.12591 0.72602 0.62775 0.0
C3962 C 0.07804 0.68623 0.64386 0.0
C3963 C 0.08357 0.65924 0.6754 0.0
N3964 N 0.11065 0.71386 0.63429 0.0
N3965 N 0.09844 0.67239 0.66996 0.0
H3966 H 0.88509 0.84271 0.65949 0.0
H3967 H 1.00009 0.87463 0.64199 0.0
H3968 H 0.92575 0.81021 0.62042 0.0
H3969 H 0.96271 0.90133 0.68808 0.0
H3970 H 0.97298 0.85116 0.63395 0.0
H3971 H 0.91303 0.86421 0.67016 0.0
C3972 C 0.89994 0.83993 0.65327 0.0
C3973 C 0.90301 0.82452 0.639 0.0
C3974 C 0.97067 0.86206 0.64589 0.0
C3975 C 0.93519 0.84941 0.65112 0.0
C3976 C 0.98617 0.87557 0.65049 0.0
C3977 C 0.98372 0.8901 0.66574 0.0
C3978 C 0.95234 0.86308 0.65643 0.0
C3979 C 0.96532 0.8904 0.67624 0.0
C3980 C 0.91591 0.85228 0.65939 0.0
C3981 C 0.92263 0.82179 0.63148 0.0
N3982 N 0.9503 0.87719 0.6713 0.0
N3983 N 0.9379 0.83418 0.63753 0.0
H3984 H 0.6423 0.95667 0.63514 0.0
H3985 H 0.65871 0.92601 0.75055 0.0
H3986 H 0.681 0.98968 0.67566 0.0
H3987 H 0.6129 0.89904 0.71313 0.0
H3988 H 0.66703 0.94923 0.72328 0.0
H3989 H 0.63136 0.93552 0.66324 0.0
C3990 C 0.6484 0.95963 0.64999 0.0
C3991 C 0.66264 0.97507 0.65298 0.0
C3992 C 0.65509 0.93833 0.721 0.0
C3993 C 0.65019 0.9506 0.68536 0.0
C3994 C 0.65033 0.92497 0.73659 0.0
C3995 C 0.63508 0.91044 0.73417 0.0
C3996 C 0.6447 0.93714 0.70261 0.0
C3997 C 0.62472 0.90999 0.71571 0.0
C3998 C 0.64211 0.94748 0.66606 0.0
C3999 C 0.66997 0.97805 0.67261 0.0
N4000 N 0.62982 0.92304 0.70061 0.0
N4001 N 0.66377 0.96585 0.68798 0.0
H4002 H 0.24075 0.11962 0.62474 0.0
H4003 H 0.14732 0.18807 0.58812 0.0
H4004 H 0.20618 0.15748 0.66485 0.0
H4005 H 0.17599 0.14283 0.55115 0.0
H4006 H 0.17071 0.17961 0.61561 0.0
H4007 H 0.21928 0.1306 0.59672 0.0
C4008 C 0.2288 0.13038 0.62765 0.0
C4009 C 0.22533 0.13759 0.64724 0.0
C4010 C 0.17191 0.1716 0.60143 0.0
C4011 C 0.20054 0.15021 0.61517 0.0
C4012 C 0.15859 0.17648 0.58572 0.0
C4013 C 0.15959 0.16613 0.56728 0.0
C4014 C 0.18649 0.15638 0.59865 0.0
C4015 C 0.17451 0.15117 0.5651 0.0
C4016 C 0.21646 0.13659 0.61164 0.0
C4017 C 0.20948 0.15147 0.65004 0.0
N4018 N 0.1873 0.14678 0.58052 0.0
N4019 N 0.1977 0.15727 0.63425 0.0
H4020 H 0.40654 0.59741 0.63223 0.0
H4021 H 0.39456 0.62412 0.74921 0.0
H4022 H 0.37307 0.56082 0.67437 0.0
H4023 H 0.43761 0.65428 0.71087 0.0
H4024 H 0.38628 0.60135 0.72162 0.0
H4025 H 0.41786 0.61866 0.66023 0.0
C4026 C 0.40171 0.59369 0.64738 0.0
C4027 C 0.38881 0.5772 0.65088 0.0
C4028 C 0.39761 0.61285 0.71918 0.0
C4029 C 0.40162 0.60174 0.68308 0.0
C4030 C 0.40235 0.62595 0.73497 0.0
C4031 C 0.41682 0.64124 0.73241 0.0
C4032 C 0.40719 0.61504 0.70043 0.0
C4033 C 0.42642 0.6427 0.71357 0.0
C4034 C 0.40819 0.60588 0.66337 0.0
C4035 C 0.38302 0.57328 0.67087 0.0
N4036 N 0.42133 0.62989 0.69826 0.0
N4037 N 0.38934 0.5855 0.68613 0.0
H4038 H 0.84373 0.39356 0.66502 0.0
H4039 H 0.87339 0.40706 0.54907 0.0
H4040 H 0.80897 0.42939 0.62329 0.0
H4041 H 0.90138 0.36271 0.58759 0.0
H4042 H 0.84995 0.41545 0.57613 0.0
H4043 H 0.86495 0.38214 0.63715 0.0
C4044 C 0.84039 0.39889 0.64995 0.0
C4045 C 0.82446 0.4125 0.64654 0.0
C4046 C 0.86111 0.40381 0.57869 0.0
C4047 C 0.849 0.39953 0.61445 0.0
C4048 C 0.8746 0.39901 0.56323 0.0
C4049 C 0.88948 0.38415 0.56603 0.0
C4050 C 0.86253 0.39388 0.59732 0.0
C4051 C 0.89015 0.37421 0.58472 0.0
C4052 C 0.85258 0.39234 0.63402 0.0
C4053 C 0.82099 0.41886 0.62666 0.0
N4054 N 0.87698 0.37937 0.59969 0.0
N4055 N 0.83325 0.41246 0.61142 0.0
H4056 H 0.64215 0.0946 0.91543 0.0
H4057 H 0.65841 0.1251 0.79988 0.0
H4058 H 0.68052 0.06138 0.87468 0.0
H4059 H 0.61275 0.15239 0.83737 0.0
H4060 H 0.66669 0.10193 0.8272 0.0
H4061 H 0.63124 0.11588 0.88738 0.0
C4062 C 0.64817 0.09162 0.90054 0.0
C4063 C 0.66231 0.07607 0.89748 0.0
C4064 C 0.65479 0.11289 0.82949 0.0
C4065 C 0.64992 0.10069 0.86517 0.0
C4066 C 0.65005 0.12622 0.81387 0.0
C4067 C 0.63485 0.14084 0.81629 0.0
C4068 C 0.64444 0.11417 0.84791 0.0
C4069 C 0.62453 0.14138 0.83479 0.0
C4070 C 0.64191 0.10384 0.88451 0.0
C4071 C 0.66957 0.07309 0.87781 0.0
N4072 N 0.62961 0.12835 0.84992 0.0
N4073 N 0.6634 0.08534 0.86248 0.0
H4074 H 0.30918 0.12032 0.42568 0.0
H4075 H 0.40279 0.18858 0.46194 0.0
H4076 H 0.34403 0.15759 0.38529 0.0
H4077 H 0.37414 0.14347 0.49906 0.0
H4078 H 0.37939 0.18007 0.43448 0.0
H4079 H 0.33067 0.13137 0.45363 0.0
C4080 C 0.32119 0.13097 0.4227 0.0
C4081 C 0.32474 0.13799 0.40305 0.0
C4082 C 0.3782 0.1721 0.44869 0.0
C4083 C 0.34956 0.1507 0.43504 0.0
C4084 C 0.39153 0.17701 0.46438 0.0
C4085 C 0.39053 0.1667 0.48285 0.0
C4086 C 0.36361 0.15691 0.45153 0.0
C4087 C 0.37562 0.15177 0.48508 0.0
C4088 C 0.33355 0.13722 0.43866 0.0
C4089 C 0.34067 0.15173 0.40015 0.0
N4090 N 0.36281 0.14736 0.46969 0.0
N4091 N 0.35246 0.15758 0.4159 0.0
H4092 H 0.36985 0.49147 0.87419 0.0
H4093 H 0.43871 0.39843 0.83724 0.0
H4094 H 0.40817 0.45713 0.91402 0.0
H4095 H 0.39305 0.42669 0.80051 0.0
H4096 H 0.4303 0.42188 0.8647 0.0
H4097 H 0.38087 0.47011 0.84607 0.0
C4098 C 0.38073 0.4796 0.87701 0.0
C4099 C 0.38805 0.47614 0.89656 0.0
C4100 C 0.42219 0.42298 0.85058 0.0
C4101 C 0.4007 0.45149 0.86439 0.0
C4102 C 0.42704 0.40962 0.83489 0.0
C4103 C 0.41654 0.41049 0.81654 0.0
C4104 C 0.40687 0.43746 0.84786 0.0
C4105 C 0.40149 0.42531 0.8144 0.0
C4106 C 0.38696 0.46733 0.86096 0.0
C4107 C 0.40207 0.46041 0.89925 0.0
N4108 N 0.39713 0.43815 0.82981 0.0
N4109 N 0.40788 0.44869 0.88342 0.0
H4110 H 0.74079 0.43065 0.42566 0.0
H4111 H 0.64745 0.36226 0.46248 0.0
H4112 H 0.70628 0.39277 0.38561 0.0
H4113 H 0.67591 0.40775 0.49923 0.0
H4114 H 0.67089 0.37061 0.43497 0.0
H4115 H 0.71934 0.41969 0.4537 0.0
C4116 C 0.72886 0.41988 0.42277 0.0
C4117 C 0.72539 0.41267 0.40319 0.0
C4118 C 0.67203 0.37869 0.4491 0.0
C4119 C 0.70061 0.40008 0.43528 0.0
C4120 C 0.65868 0.37387 0.46483 0.0
C4121 C 0.65961 0.38434 0.4832 0.0
C4122 C 0.68656 0.39395 0.45182 0.0
C4123 C 0.67448 0.39933 0.48532 0.0
C4124 C 0.71653 0.41369 0.43879 0.0
C4125 C 0.70957 0.39878 0.40041 0.0
N4126 N 0.6873 0.40365 0.46989 0.0
N4127 N 0.69778 0.393 0.41622 0.0
H4128 H 0.63499 0.64174 0.95722 0.0
H4129 H 0.75034 0.65808 0.92603 0.0
H4130 H 0.67586 0.68015 0.99014 0.0
H4131 H 0.71283 0.61224 0.89919 0.0
H4132 H 0.72313 0.66637 0.94933 0.0
H4133 H 0.66296 0.63081 0.93584 0.0
C4134 C 0.64988 0.64777 0.96011 0.0
C4135 C 0.65301 0.66192 0.9756 0.0
C4136 C 0.72082 0.65443 0.93844 0.0
C4137 C 0.68523 0.6495 0.95087 0.0
C4138 C 0.73637 0.64968 0.92503 0.0
C4139 C 0.73391 0.63443 0.91051 0.0
C4140 C 0.70242 0.64403 0.93732 0.0
C4141 C 0.71544 0.62406 0.91013 0.0
C4142 C 0.66587 0.64149 0.94783 0.0
C4143 C 0.67269 0.66918 0.97848 0.0
N4144 N 0.70037 0.62914 0.92322 0.0
N4145 N 0.68798 0.663 0.96617 0.0
H4146 H 0.86188 0.08767 0.40274 0.0
H4147 H 0.9306 0.12402 0.30945 0.0
H4148 H 0.90732 0.05062 0.37445 0.0
H4149 H 0.89379 0.16455 0.34467 0.0
H4150 H 0.91916 0.09596 0.33067 0.0
H4151 H 0.87044 0.11514 0.3793 0.0
C4152 C 0.87353 0.08525 0.39154 0.0
C4153 C 0.88394 0.06682 0.39067 0.0
C4154 C 0.91349 0.11099 0.33368 0.0
C4155 C 0.89376 0.09812 0.36372 0.0
C4156 C 0.91996 0.12701 0.32148 0.0
C4157 C 0.91321 0.14673 0.32524 0.0
C4158 C 0.90007 0.11464 0.34973 0.0
C4159 C 0.89947 0.14964 0.34117 0.0
C4160 C 0.87846 0.10095 0.3782 0.0
C4161 C 0.89896 0.06459 0.37584 0.0
N4162 N 0.89341 0.13384 0.35281 0.0
N4163 N 0.90339 0.07998 0.36301 0.0
H4164 H 0.41652 0.90874 0.95717 0.0
H4165 H 0.30089 0.89343 0.92683 0.0
H4166 H 0.37559 0.87046 0.99026 0.0
H4167 H 0.33859 0.93916 0.89996 0.0
H4168 H 0.32815 0.88485 0.94993 0.0
H4169 H 0.38849 0.92002 0.93611 0.0
C4170 C 0.4016 0.90281 0.96016 0.0
C4171 C 0.39847 0.88859 0.9756 0.0
C4172 C 0.33049 0.89683 0.93908 0.0
C4173 C 0.36618 0.90142 0.95125 0.0
C4174 C 0.31491 0.90175 0.9258 0.0
C4175 C 0.31742 0.91705 0.91133 0.0
C4176 C 0.34895 0.90711 0.93788 0.0
C4177 C 0.33594 0.92731 0.91087 0.0
C4178 C 0.38558 0.90929 0.94807 0.0
C4179 C 0.37876 0.88147 0.97863 0.0
N4180 N 0.35104 0.92205 0.92384 0.0
N4181 N 0.36343 0.88785 0.9665 0.0
H4182 H 0.14252 0.5008 0.37416 0.0
H4183 H 0.15787 0.38494 0.34407 0.0
H4184 H 0.18753 0.46279 0.40179 0.0
H4185 H 0.11997 0.42594 0.31064 0.0
H4186 H 0.16891 0.41297 0.36527 0.0
H4187 H 0.13412 0.47352 0.351 0.0
C4188 C 0.15071 0.48671 0.37535 0.0
C4189 C 0.16576 0.48413 0.39006 0.0
C4190 C 0.15831 0.4159 0.3532 0.0
C4191 C 0.15603 0.45256 0.36342 0.0
C4192 C 0.15198 0.39987 0.34103 0.0
C4193 C 0.13793 0.40301 0.32545 0.0
C4194 C 0.15048 0.43531 0.34998 0.0
C4195 C 0.13084 0.42275 0.32238 0.0
C4196 C 0.1459 0.47111 0.36203 0.0
C4197 C 0.17586 0.4655 0.39071 0.0
N4198 N 0.13708 0.43808 0.3346 0.0
N4199 N 0.17072 0.4504 0.37769 0.0
H4200 H 0.74926 0.39255 0.62534 0.0
H4201 H 0.63417 0.40932 0.59368 0.0
H4202 H 0.71199 0.43902 0.65157 0.0
H4203 H 0.67513 0.37077 0.56091 0.0
H4204 H 0.6621 0.4203 0.61504 0.0
H4205 H 0.72215 0.38434 0.60196 0.0
C4206 C 0.73536 0.4011 0.62619 0.0
C4207 C 0.73293 0.4165 0.64057 0.0
C4208 C 0.66504 0.40958 0.60307 0.0
C4209 C 0.70155 0.40699 0.61366 0.0
C4210 C 0.64908 0.40327 0.59081 0.0
C4211 C 0.65224 0.38906 0.57537 0.0
C4212 C 0.6844 0.40153 0.60009 0.0
C4213 C 0.67193 0.38178 0.57253 0.0
C4214 C 0.71986 0.3964 0.61274 0.0
C4215 C 0.71456 0.42707 0.64075 0.0
N4216 N 0.68719 0.38798 0.58483 0.0
N4217 N 0.69953 0.42202 0.62762 0.0
H4218 H 0.65842 0.16606 0.70583 0.0
H4219 H 0.64268 0.05032 0.67571 0.0
H4220 H 0.62041 0.1252 0.7393 0.0
H4221 H 0.68818 0.08792 0.64833 0.0
H4222 H 0.63434 0.07765 0.69884 0.0
H4223 H 0.66945 0.13797 0.68466 0.0
C4224 C 0.6525 0.15114 0.70889 0.0
C4225 C 0.63842 0.14806 0.72447 0.0
C4226 C 0.64622 0.07996 0.68787 0.0
C4227 C 0.65097 0.11569 0.69998 0.0
C4228 C 0.651 0.06433 0.67456 0.0
C4229 C 0.66617 0.06677 0.65993 0.0
C4230 C 0.6565 0.09842 0.68655 0.0
C4231 C 0.67642 0.0853 0.65935 0.0
C4232 C 0.65884 0.13509 0.69673 0.0
C4233 C 0.63131 0.12834 0.72756 0.0
N4234 N 0.67131 0.10045 0.67236 0.0
N4235 N 0.63754 0.11298 0.71536 0.0
H4236 H 0.37489 0.18069 0.55947 0.0
H4237 H 0.33834 0.11202 0.65272 0.0
H4238 H 0.41513 0.14293 0.59396 0.0
H4239 H 0.30133 0.15732 0.6242 0.0
H4240 H 0.36586 0.12057 0.62936 0.0
H4241 H 0.34689 0.16962 0.58092 0.0
C4242 C 0.37783 0.16993 0.5714 0.0
C4243 C 0.39746 0.16277 0.57485 0.0
C4244 C 0.35167 0.12856 0.62819 0.0
C4245 C 0.3654 0.15005 0.59963 0.0
C4246 C 0.33594 0.12364 0.64149 0.0
C4247 C 0.31748 0.13399 0.64052 0.0
C4248 C 0.34888 0.14382 0.61366 0.0
C4249 C 0.31529 0.14898 0.62566 0.0
C4250 C 0.36184 0.16366 0.58373 0.0
C4251 C 0.4003 0.14889 0.59068 0.0
N4252 N 0.33073 0.15341 0.61288 0.0
N4253 N 0.38451 0.14304 0.60246 0.0
H4254 H 0.43042 0.4263 0.74011 0.0
H4255 H 0.36096 0.46355 0.64776 0.0
H4256 H 0.39238 0.38624 0.70579 0.0
H4257 H 0.40698 0.50007 0.67562 0.0
H4258 H 0.36958 0.43589 0.67097 0.0
H4259 H 0.41923 0.45442 0.71887 0.0
C4260 C 0.41957 0.42342 0.72827 0.0
C4261 C 0.41238 0.40381 0.7248 0.0
C4262 C 0.37772 0.45001 0.67204 0.0
C4263 C 0.3995 0.43602 0.70025 0.0
C4264 C 0.37274 0.46582 0.65882 0.0
C4265 C 0.38328 0.48418 0.65964 0.0
C4266 C 0.3932 0.45263 0.68633 0.0
C4267 C 0.39849 0.48619 0.67429 0.0
C4268 C 0.41324 0.43949 0.71605 0.0
C4269 C 0.39838 0.40107 0.70908 0.0
N4270 N 0.40296 0.47069 0.68698 0.0
N4271 N 0.39245 0.41692 0.69741 0.0
H4272 H 0.89645 0.7112 0.61181 0.0
H4273 H 0.99118 0.67467 0.67815 0.0
H4274 H 0.92655 0.74825 0.65596 0.0
H4275 H 0.95452 0.6337 0.64339 0.0
H4276 H 0.96985 0.70263 0.66694 0.0
H4277 H 0.91963 0.68339 0.6201 0.0
C4278 C 0.90799 0.71354 0.6231 0.0
C4279 C 0.90947 0.73208 0.63324 0.0
C4280 C 0.96652 0.68754 0.66167 0.0
C4281 C 0.93609 0.70041 0.64274 0.0
C4282 C 0.97878 0.67155 0.668 0.0
C4283 C 0.97468 0.65175 0.66175 0.0
C4284 C 0.95003 0.6838 0.64886 0.0
C4285 C 0.95829 0.64869 0.64863 0.0
C4286 C 0.92118 0.69765 0.62788 0.0
C4287 C 0.9247 0.73422 0.64782 0.0
N4288 N 0.94657 0.6645 0.64267 0.0
N4289 N 0.93736 0.71865 0.65209 0.0
H4290 H 0.89773 0.33825 0.93871 0.0
H4291 H 0.99111 0.37475 0.87022 0.0
H4292 H 0.9259 0.30147 0.893 0.0
H4293 H 0.95714 0.41482 0.90867 0.0
H4294 H 0.96951 0.34678 0.88108 0.0
H4295 H 0.92134 0.36564 0.93046 0.0
C4296 C 0.90893 0.33587 0.92706 0.0
C4297 C 0.90973 0.31753 0.9165 0.0
C4298 C 0.96685 0.36168 0.88723 0.0
C4299 C 0.93688 0.34876 0.90702 0.0
C4300 C 0.97927 0.37765 0.88109 0.0
C4301 C 0.97599 0.39722 0.8885 0.0
C4302 C 0.95104 0.36522 0.90097 0.0
C4303 C 0.96028 0.40002 0.90251 0.0
C4304 C 0.92238 0.35152 0.92231 0.0
C4305 C 0.92457 0.31536 0.90148 0.0
N4306 N 0.9484 0.38426 0.90823 0.0
N4307 N 0.93749 0.33072 0.89722 0.0
H4308 H 0.55173 0.8745 0.40627 0.0
H4309 H 0.66798 0.84562 0.39255 0.0
H4310 H 0.58998 0.90349 0.36234 0.0
H4311 H 0.62597 0.81011 0.42733 0.0
H4312 H 0.6401 0.86714 0.38148 0.0
H4313 H 0.57901 0.85124 0.41433 0.0
C4314 C 0.56588 0.87598 0.39824 0.0
C4315 C 0.56853 0.89108 0.3836 0.0
C4316 C 0.63695 0.85454 0.39139 0.0
C4317 C 0.60011 0.86433 0.39295 0.0
C4318 C 0.65287 0.84219 0.39773 0.0
C4319 C 0.64937 0.82594 0.41092 0.0
C4320 C 0.61731 0.85079 0.39838 0.0
C4321 C 0.62944 0.82238 0.41714 0.0
C4322 C 0.58148 0.86259 0.40285 0.0
C4323 C 0.58723 0.89208 0.37368 0.0
N4324 N 0.61424 0.83476 0.41094 0.0
N4325 N 0.60235 0.87899 0.37865 0.0
H4326 H 0.15297 0.21172 0.93869 0.0
H4327 H 0.06001 0.1756 0.86952 0.0
H4328 H 0.1254 0.24856 0.8927 0.0
H4329 H 0.09386 0.13521 0.90768 0.0
H4330 H 0.0816 0.20347 0.88062 0.0
H4331 H 0.12938 0.18438 0.9302 0.0
C4332 C 0.14191 0.21412 0.92693 0.0
C4333 C 0.14128 0.23247 0.91636 0.0
C4334 C 0.08424 0.18852 0.88666 0.0
C4335 C 0.11415 0.20129 0.90661 0.0
C4336 C 0.07182 0.1726 0.88038 0.0
C4337 C 0.07507 0.15297 0.88763 0.0
C4338 C 0.10001 0.18487 0.90039 0.0
C4339 C 0.09075 0.15005 0.90164 0.0
C4340 C 0.12847 0.19849 0.92204 0.0
C4341 C 0.12661 0.23467 0.90119 0.0
N4342 N 0.10262 0.16576 0.9075 0.0
N4343 N 0.1137 0.21934 0.89681 0.0
H4344 H 0.92549 0.24095 0.93031 0.0
H4345 H 0.96221 0.14785 0.86146 0.0
H4346 H 0.88537 0.20666 0.89231 0.0
H4347 H 0.99905 0.17612 0.90697 0.0
H4348 H 0.93469 0.17126 0.86998 0.0
H4349 H 0.95351 0.21949 0.91925 0.0
C4350 C 0.92258 0.22906 0.9195 0.0
C4351 C 0.90299 0.22567 0.91227 0.0
C4352 C 0.94885 0.17236 0.87803 0.0
C4353 C 0.93506 0.20088 0.89956 0.0
C4354 C 0.96458 0.15903 0.87312 0.0
C4355 C 0.98298 0.15992 0.88353 0.0
C4356 C 0.95159 0.18683 0.89334 0.0
C4357 C 0.98512 0.17473 0.89858 0.0
C4358 C 0.93859 0.21673 0.91324 0.0
C4359 C 0.90019 0.2099 0.89833 0.0
N4360 N 0.96969 0.18753 0.903 0.0
N4361 N 0.91598 0.19811 0.89248 0.0
H4362 H 0.5936 0.41599 0.14216 0.0
H4363 H 0.62479 0.30053 0.15833 0.0
H4364 H 0.56056 0.37497 0.18039 0.0
H4365 H 0.65185 0.33824 0.11272 0.0
H4366 H 0.60144 0.32772 0.1666 0.0
H4367 H 0.61505 0.38805 0.13125 0.0
C4368 C 0.59069 0.40107 0.14815 0.0
C4369 C 0.57515 0.3979 0.16225 0.0
C4370 C 0.61239 0.33008 0.15472 0.0
C4371 C 0.59996 0.36571 0.14985 0.0
C4372 C 0.62583 0.31454 0.14998 0.0
C4373 C 0.64043 0.31706 0.1348 0.0
C4374 C 0.61355 0.34853 0.14438 0.0
C4375 C 0.64086 0.33558 0.12449 0.0
C4376 C 0.60301 0.3851 0.14189 0.0
C4377 C 0.57227 0.37818 0.16947 0.0
N4378 N 0.62773 0.35063 0.12957 0.0
N4379 N 0.58461 0.36291 0.1633 0.0
H4380 H 0.55026 0.17657 0.14224 0.0
H4381 H 0.66591 0.20674 0.15828 0.0
H4382 H 0.5879 0.14892 0.18751 0.0
H4383 H 0.62513 0.24023 0.12021 0.0
H4384 H 0.63785 0.18546 0.16913 0.0
H4385 H 0.57759 0.19974 0.13398 0.0
C4386 C 0.56428 0.17537 0.15052 0.0
C4387 C 0.56675 0.16066 0.1656 0.0
C4388 C 0.63497 0.19756 0.15854 0.0
C4389 C 0.59836 0.18732 0.15604 0.0
C4390 C 0.65101 0.20978 0.15231 0.0
C4391 C 0.64794 0.2254 0.13828 0.0
C4392 C 0.61562 0.20078 0.1506 0.0
C4393 C 0.62826 0.22846 0.13108 0.0
C4394 C 0.57991 0.18869 0.14579 0.0
C4395 C 0.58528 0.16001 0.17582 0.0
N4396 N 0.61292 0.21621 0.13722 0.0
N4397 N 0.60041 0.17304 0.17076 0.0
H4398 H 0.49969 0.3738 0.1442 0.0
H4399 H 0.38323 0.34575 0.1579 0.0
H4400 H 0.46159 0.40315 0.18803 0.0
H4401 H 0.42506 0.30991 0.12322 0.0
H4402 H 0.41122 0.36713 0.1689 0.0
H4403 H 0.47226 0.35075 0.13614 0.0
C4404 C 0.48554 0.3754 0.1522 0.0
C4405 C 0.48299 0.39054 0.16682 0.0
C4406 C 0.41432 0.35449 0.15904 0.0
C4407 C 0.45122 0.36403 0.15747 0.0
C4408 C 0.39833 0.34222 0.15274 0.0
C4409 C 0.40174 0.32591 0.13959 0.0
C4410 C 0.43393 0.3506 0.15205 0.0
C4411 C 0.42166 0.32222 0.13338 0.0
C4412 C 0.46985 0.36214 0.14759 0.0
C4413 C 0.46428 0.3917 0.17671 0.0
N4414 N 0.43692 0.33452 0.13954 0.0
N4415 N 0.44906 0.37873 0.17175 0.0
loop_
_geom_bond_atom_site_label_1
_geom_bond_atom_site_label_2
_geom_bond_distance
_geom_bond_site_symmetry_2
_ccdc_geom_bond_type
O0 Tb1 2.292 . S
O0 C3 1.255 . S
Tb1 O0 2.292 . S
Tb1 O17 2.326 . S
Tb1 O19 2.500 . S
Tb1 O20 2.473 . S
Tb1 O23 2.324 . S
Eu2 O6 2.292 . S
Eu2 C7 2.852 . S
Eu2 O18 2.324 . S
Eu2 O22 2.326 . S
Eu2 O24 2.500 . S
Eu2 O25 2.473 . S
C3 O0 1.255 . S
C3 O4 1.247 . S
O4 C3 1.247 . S
C5 O17 1.242 . S
C5 O18 1.258 . S
O6 Eu2 2.292 . S
O6 C8 1.255 . S
C7 Eu2 2.852 . S
C7 C11 1.503 . S
C7 O24 1.273 . S
C7 O25 1.257 . S
C8 O6 1.255 . S
C8 O9 1.247 . S
O9 C8 1.247 . S
C10 O22 1.242 . S
C10 O23 1.258 . S
C11 C7 1.503 . S
C11 C12 1.379 . S
C11 C16 1.392 . S
C12 C11 1.379 . S
C12 C13 1.404 . S
C12 H26 0.929 . S
C13 C12 1.404 . S
C13 C14 1.389 . S
C14 C13 1.389 . S
C14 C15 1.399 . S
C14 H27 0.931 . S
C15 C14 1.399 . S
C15 C16 1.390 . S
C16 C11 1.392 . S
C16 C15 1.390 . S
C16 H28 0.929 . S
O17 Tb1 2.326 . S
O17 C5 1.242 . S
O18 Eu2 2.324 . S
O18 C5 1.258 . S
O19 Tb1 2.500 . S
O19 C21 1.273 . S
O20 Tb1 2.473 . S
O20 C21 1.257 . S
C21 O19 1.273 . S
C21 O20 1.257 . S
O22 Eu2 2.326 . S
O22 C10 1.242 . S
O23 Tb1 2.324 . S
O23 C10 1.258 . S
O24 Eu2 2.500 . S
O24 C7 1.273 . S
O25 Eu2 2.473 . S
O25 C7 1.257 . S
H26 C12 0.929 . S
H27 C14 0.931 . S
H28 C16 0.929 . S
O29 Tb30 2.292 . S
O29 C32 1.255 . S
Tb30 O29 2.292 . S
Tb30 O46 2.326 . S
Tb30 O48 2.500 . S
Tb30 O49 2.473 . S
Tb30 O52 2.324 . S
Eu31 O35 2.292 . S
Eu31 C36 2.852 . S
Eu31 O47 2.324 . S
Eu31 O51 2.326 . S
Eu31 O53 2.500 . S
Eu31 O54 2.473 . S
C32 O29 1.255 . S
C32 O33 1.247 . S
O33 C32 1.247 . S
C34 O46 1.242 . S
C34 O47 1.258 . S
O35 Eu31 2.292 . S
O35 C37 1.255 . S
C36 Eu31 2.852 . S
C36 C40 1.503 . S
C36 O53 1.273 . S
C36 O54 1.257 . S
C37 O35 1.255 . S
C37 O38 1.247 . S
O38 C37 1.247 . S
C39 O51 1.242 . S
C39 O52 1.258 . S
C40 C36 1.503 . S
C40 C41 1.379 . S
C40 C45 1.392 . S
C41 C40 1.379 . S
C41 C42 1.404 . S
C41 H55 0.929 . S
C42 C41 1.404 . S
C42 C43 1.389 . S
C43 C42 1.389 . S
C43 C44 1.399 . S
C43 H56 0.931 . S
C44 C43 1.399 . S
C44 C45 1.390 . S
C45 C40 1.392 . S
C45 C44 1.390 . S
C45 H57 0.929 . S
O46 Tb30 2.326 . S
O46 C34 1.242 . S
O47 Eu31 2.324 . S
O47 C34 1.258 . S
O48 Tb30 2.500 . S
O48 C50 1.273 . S
O49 Tb30 2.473 . S
O49 C50 1.257 . S
C50 O48 1.273 . S
C50 O49 1.257 . S
O51 Eu31 2.326 . S
O51 C39 1.242 . S
O52 Tb30 2.324 . S
O52 C39 1.258 . S
O53 Eu31 2.500 . S
O53 C36 1.273 . S
O54 Eu31 2.473 . S
O54 C36 1.257 . S
H55 C41 0.929 . S
H56 C43 0.931 . S
H57 C45 0.929 . S
O58 Tb59 2.292 . S
O58 C61 1.255 . S
Tb59 O58 2.292 . S
Tb59 O75 2.326 . S
Tb59 O77 2.500 . S
Tb59 O78 2.473 . S
Tb59 O81 2.324 . S
Eu60 O64 2.292 . S
Eu60 C65 2.852 . S
Eu60 O76 2.324 . S
Eu60 O80 2.326 . S
Eu60 O82 2.500 . S
Eu60 O83 2.473 . S
C61 O58 1.255 . S
C61 O62 1.247 . S
O62 C61 1.247 . S
C63 O75 1.242 . S
C63 O76 1.258 . S
O64 Eu60 2.292 . S
O64 C66 1.255 . S
C65 Eu60 2.852 . S
C65 C69 1.503 . S
C65 O82 1.273 . S
C65 O83 1.257 . S
C66 O64 1.255 . S
C66 O67 1.247 . S
O67 C66 1.247 . S
C68 O80 1.242 . S
C68 O81 1.258 . S
C69 C65 1.503 . S
C69 C70 1.379 . S
C69 C74 1.392 . S
C70 C69 1.379 . S
C70 C71 1.404 . S
C70 H84 0.929 . S
C71 C70 1.404 . S
C71 C72 1.389 . S
C72 C71 1.389 . S
C72 C73 1.399 . S
C72 H85 0.931 . S
C73 C72 1.399 . S
C73 C74 1.390 . S
C74 C69 1.392 . S
C74 C73 1.390 . S
C74 H86 0.929 . S
O75 Tb59 2.326 . S
O75 C63 1.242 . S
O76 Eu60 2.324 . S
O76 C63 1.258 . S
O77 Tb59 2.500 . S
O77 C79 1.273 . S
O78 Tb59 2.473 . S
O78 C79 1.257 . S
C79 O77 1.273 . S
C79 O78 1.257 . S
O80 Eu60 2.326 . S
O80 C68 1.242 . S
O81 Tb59 2.324 . S
O81 C68 1.258 . S
O82 Eu60 2.500 . S
O82 C65 1.273 . S
O83 Eu60 2.473 . S
O83 C65 1.257 . S
H84 C70 0.929 . S
H85 C72 0.931 . S
H86 C74 0.929 . S
O87 Tb88 2.292 . S
O87 C90 1.255 . S
Tb88 O87 2.292 . S
Tb88 O104 2.326 . S
Tb88 O106 2.500 . S
Tb88 O107 2.473 . S
Tb88 O110 2.324 . S
Eu89 O93 2.292 . S
Eu89 C94 2.852 . S
Eu89 O105 2.324 . S
Eu89 O109 2.326 . S
Eu89 O111 2.500 . S
Eu89 O112 2.473 . S
C90 O87 1.255 . S
C90 O91 1.247 . S
O91 C90 1.247 . S
C92 O104 1.242 . S
C92 O105 1.258 . S
O93 Eu89 2.292 . S
O93 C95 1.255 . S
C94 Eu89 2.852 . S
C94 C98 1.503 . S
C94 O111 1.273 . S
C94 O112 1.257 . S
C95 O93 1.255 . S
C95 O96 1.247 . S
O96 C95 1.247 . S
C97 O109 1.242 . S
C97 O110 1.258 . S
C98 C94 1.503 . S
C98 C99 1.379 . S
C98 C103 1.392 . S
C99 C98 1.379 . S
C99 C100 1.404 . S
C99 H113 0.929 . S
C100 C99 1.404 . S
C100 C101 1.389 . S
C101 C100 1.389 . S
C101 C102 1.399 . S
C101 H114 0.931 . S
C102 C101 1.399 . S
C102 C103 1.390 . S
C103 C98 1.392 . S
C103 C102 1.390 . S
C103 H115 0.929 . S
O104 Tb88 2.326 . S
O104 C92 1.242 . S
O105 Eu89 2.324 . S
O105 C92 1.258 . S
O106 Tb88 2.500 . S
O106 C108 1.273 . S
O107 Tb88 2.473 . S
O107 C108 1.257 . S
C108 O106 1.273 . S
C108 O107 1.257 . S
O109 Eu89 2.326 . S
O109 C97 1.242 . S
O110 Tb88 2.324 . S
O110 C97 1.258 . S
O111 Eu89 2.500 . S
O111 C94 1.273 . S
O112 Eu89 2.473 . S
O112 C94 1.257 . S
H113 C99 0.929 . S
H114 C101 0.931 . S
H115 C103 0.929 . S
O116 Tb117 2.292 . S
O116 C119 1.255 . S
Tb117 O116 2.292 . S
Tb117 O133 2.326 . S
Tb117 O135 2.500 . S
Tb117 O136 2.473 . S
Tb117 O139 2.324 . S
Eu118 O122 2.292 . S
Eu118 C123 2.852 . S
Eu118 O134 2.324 . S
Eu118 O138 2.326 . S
Eu118 O140 2.500 . S
Eu118 O141 2.473 . S
C119 O116 1.255 . S
C119 O120 1.247 . S
O120 C119 1.247 . S
C121 O133 1.242 . S
C121 O134 1.258 . S
O122 Eu118 2.292 . S
O122 C124 1.255 . S
C123 Eu118 2.852 . S
C123 C127 1.503 . S
C123 O140 1.273 . S
C123 O141 1.257 . S
C124 O122 1.255 . S
C124 O125 1.247 . S
O125 C124 1.247 . S
C126 O138 1.242 . S
C126 O139 1.258 . S
C127 C123 1.503 . S
C127 C128 1.379 . S
C127 C132 1.392 . S
C128 C127 1.379 . S
C128 C129 1.404 . S
C128 H142 0.929 . S
C129 C128 1.404 . S
C129 C130 1.389 . S
C130 C129 1.389 . S
C130 C131 1.399 . S
C130 H143 0.931 . S
C131 C130 1.399 . S
C131 C132 1.390 . S
C132 C127 1.392 . S
C132 C131 1.390 . S
C132 H144 0.929 . S
O133 Tb117 2.326 . S
O133 C121 1.242 . S
O134 Eu118 2.324 . S
O134 C121 1.258 . S
O135 Tb117 2.500 . S
O135 C137 1.273 . S
O136 Tb117 2.473 . S
O136 C137 1.257 . S
C137 O135 1.273 . S
C137 O136 1.257 . S
O138 Eu118 2.326 . S
O138 C126 1.242 . S
O139 Tb117 2.324 . S
O139 C126 1.258 . S
O140 Eu118 2.500 . S
O140 C123 1.273 . S
O141 Eu118 2.473 . S
O141 C123 1.257 . S
H142 C128 0.929 . S
H143 C130 0.931 . S
H144 C132 0.929 . S
O145 Tb146 2.292 . S
O145 C148 1.255 . S
Tb146 O145 2.292 . S
Tb146 O162 2.326 . S
Tb146 O164 2.500 . S
Tb146 O165 2.473 . S
Tb146 O168 2.324 . S
Eu147 O151 2.292 . S
Eu147 C152 2.852 . S
Eu147 O163 2.324 . S
Eu147 O167 2.326 . S
Eu147 O169 2.500 . S
Eu147 O170 2.473 . S
C148 O145 1.255 . S
C148 O149 1.247 . S
O149 C148 1.247 . S
C150 O162 1.242 . S
C150 O163 1.258 . S
O151 Eu147 2.292 . S
O151 C153 1.255 . S
C152 Eu147 2.852 . S
C152 C156 1.503 . S
C152 O169 1.273 . S
C152 O170 1.257 . S
C153 O151 1.255 . S
C153 O154 1.247 . S
O154 C153 1.247 . S
C155 O167 1.242 . S
C155 O168 1.258 . S
C156 C152 1.503 . S
C156 C157 1.379 . S
C156 C161 1.392 . S
C157 C156 1.379 . S
C157 C158 1.404 . S
C157 H171 0.929 . S
C158 C157 1.404 . S
C158 C159 1.389 . S
C159 C158 1.389 . S
C159 C160 1.399 . S
C159 H172 0.931 . S
C160 C159 1.399 . S
C160 C161 1.390 . S
C161 C156 1.392 . S
C161 C160 1.390 . S
C161 H173 0.929 . S
O162 Tb146 2.326 . S
O162 C150 1.242 . S
O163 Eu147 2.324 . S
O163 C150 1.258 . S
O164 Tb146 2.500 . S
O164 C166 1.273 . S
O165 Tb146 2.473 . S
O165 C166 1.257 . S
C166 O164 1.273 . S
C166 O165 1.257 . S
O167 Eu147 2.326 . S
O167 C155 1.242 . S
O168 Tb146 2.324 . S
O168 C155 1.258 . S
O169 Eu147 2.500 . S
O169 C152 1.273 . S
O170 Eu147 2.473 . S
O170 C152 1.257 . S
H171 C157 0.929 . S
H172 C159 0.931 . S
H173 C161 0.929 . S
O174 Tb175 2.292 . S
O174 C177 1.255 . S
Tb175 O174 2.292 . S
Tb175 O191 2.326 . S
Tb175 O193 2.500 . S
Tb175 O194 2.473 . S
Tb175 O197 2.324 . S
Eu176 O180 2.292 . S
Eu176 C181 2.852 . S
Eu176 O192 2.324 . S
Eu176 O196 2.326 . S
Eu176 O198 2.500 . S
Eu176 O199 2.473 . S
C177 O174 1.255 . S
C177 O178 1.247 . S
O178 C177 1.247 . S
C179 O191 1.242 . S
C179 O192 1.258 . S
O180 Eu176 2.292 . S
O180 C182 1.255 . S
C181 Eu176 2.852 . S
C181 C185 1.503 . S
C181 O198 1.273 . S
C181 O199 1.257 . S
C182 O180 1.255 . S
C182 O183 1.247 . S
O183 C182 1.247 . S
C184 O196 1.242 . S
C184 O197 1.258 . S
C185 C181 1.503 . S
C185 C186 1.379 . S
C185 C190 1.392 . S
C186 C185 1.379 . S
C186 C187 1.404 . S
C186 H200 0.929 . S
C187 C186 1.404 . S
C187 C188 1.389 . S
C188 C187 1.389 . S
C188 C189 1.399 . S
C188 H201 0.931 . S
C189 C188 1.399 . S
C189 C190 1.390 . S
C190 C185 1.392 . S
C190 C189 1.390 . S
C190 H202 0.929 . S
O191 Tb175 2.326 . S
O191 C179 1.242 . S
O192 Eu176 2.324 . S
O192 C179 1.258 . S
O193 Tb175 2.500 . S
O193 C195 1.273 . S
O194 Tb175 2.473 . S
O194 C195 1.257 . S
C195 O193 1.273 . S
C195 O194 1.257 . S
O196 Eu176 2.326 . S
O196 C184 1.242 . S
O197 Tb175 2.324 . S
O197 C184 1.258 . S
O198 Eu176 2.500 . S
O198 C181 1.273 . S
O199 Eu176 2.473 . S
O199 C181 1.257 . S
H200 C186 0.929 . S
H201 C188 0.931 . S
H202 C190 0.929 . S
O203 Tb204 2.292 . S
O203 C206 1.255 . S
Tb204 O203 2.292 . S
Tb204 O220 2.326 . S
Tb204 O222 2.500 . S
Tb204 O223 2.473 . S
Tb204 O226 2.324 . S
Eu205 O209 2.292 . S
Eu205 C210 2.852 . S
Eu205 O221 2.324 . S
Eu205 O225 2.326 . S
Eu205 O227 2.500 . S
Eu205 O228 2.473 . S
C206 O203 1.255 . S
C206 O207 1.247 . S
O207 C206 1.247 . S
C208 O220 1.242 . S
C208 O221 1.258 . S
O209 Eu205 2.292 . S
O209 C211 1.255 . S
C210 Eu205 2.852 . S
C210 C214 1.503 . S
C210 O227 1.273 . S
C210 O228 1.257 . S
C211 O209 1.255 . S
C211 O212 1.247 . S
O212 C211 1.247 . S
C213 O225 1.242 . S
C213 O226 1.258 . S
C214 C210 1.503 . S
C214 C215 1.379 . S
C214 C219 1.392 . S
C215 C214 1.379 . S
C215 C216 1.404 . S
C215 H229 0.929 . S
C216 C215 1.404 . S
C216 C217 1.389 . S
C217 C216 1.389 . S
C217 C218 1.399 . S
C217 H230 0.931 . S
C218 C217 1.399 . S
C218 C219 1.390 . S
C219 C214 1.392 . S
C219 C218 1.390 . S
C219 H231 0.929 . S
O220 Tb204 2.326 . S
O220 C208 1.242 . S
O221 Eu205 2.324 . S
O221 C208 1.258 . S
O222 Tb204 2.500 . S
O222 C224 1.273 . S
O223 Tb204 2.473 . S
O223 C224 1.257 . S
C224 O222 1.273 . S
C224 O223 1.257 . S
O225 Eu205 2.326 . S
O225 C213 1.242 . S
O226 Tb204 2.324 . S
O226 C213 1.258 . S
O227 Eu205 2.500 . S
O227 C210 1.273 . S
O228 Eu205 2.473 . S
O228 C210 1.257 . S
H229 C215 0.929 . S
H230 C217 0.931 . S
H231 C219 0.929 . S
O232 Tb233 2.292 . S
O232 C235 1.255 . S
Tb233 O232 2.292 . S
Tb233 O249 2.326 . S
Tb233 O251 2.500 . S
Tb233 O252 2.473 . S
Tb233 O255 2.324 . S
Eu234 O238 2.292 . S
Eu234 C239 2.852 . S
Eu234 O250 2.324 . S
Eu234 O254 2.326 . S
Eu234 O256 2.500 . S
Eu234 O257 2.473 . S
C235 O232 1.255 . S
C235 O236 1.247 . S
O236 C235 1.247 . S
C237 O249 1.242 . S
C237 O250 1.258 . S
O238 Eu234 2.292 . S
O238 C240 1.255 . S
C239 Eu234 2.852 . S
C239 C243 1.503 . S
C239 O256 1.273 . S
C239 O257 1.257 . S
C240 O238 1.255 . S
C240 O241 1.247 . S
O241 C240 1.247 . S
C242 O254 1.242 . S
C242 O255 1.258 . S
C243 C239 1.503 . S
C243 C244 1.379 . S
C243 C248 1.392 . S
C244 C243 1.379 . S
C244 C245 1.404 . S
C244 H258 0.929 . S
C245 C244 1.404 . S
C245 C246 1.389 . S
C246 C245 1.389 . S
C246 C247 1.399 . S
C246 H259 0.931 . S
C247 C246 1.399 . S
C247 C248 1.390 . S
C248 C243 1.392 . S
C248 C247 1.390 . S
C248 H260 0.929 . S
O249 Tb233 2.326 . S
O249 C237 1.242 . S
O250 Eu234 2.324 . S
O250 C237 1.258 . S
O251 Tb233 2.500 . S
O251 C253 1.273 . S
O252 Tb233 2.473 . S
O252 C253 1.257 . S
C253 O251 1.273 . S
C253 O252 1.257 . S
O254 Eu234 2.326 . S
O254 C242 1.242 . S
O255 Tb233 2.324 . S
O255 C242 1.258 . S
O256 Eu234 2.500 . S
O256 C239 1.273 . S
O257 Eu234 2.473 . S
O257 C239 1.257 . S
H258 C244 0.929 . S
H259 C246 0.931 . S
H260 C248 0.929 . S
O261 Tb262 2.292 . S
O261 C264 1.255 . S
Tb262 O261 2.292 . S
Tb262 O278 2.326 . S
Tb262 O280 2.500 . S
Tb262 O281 2.473 . S
Tb262 O284 2.324 . S
Eu263 O267 2.292 . S
Eu263 C268 2.852 . S
Eu263 O279 2.324 . S
Eu263 O283 2.326 . S
Eu263 O285 2.500 . S
Eu263 O286 2.473 . S
C264 O261 1.255 . S
C264 O265 1.247 . S
O265 C264 1.247 . S
C266 O278 1.242 . S
C266 O279 1.258 . S
O267 Eu263 2.292 . S
O267 C269 1.255 . S
C268 Eu263 2.852 . S
C268 C272 1.503 . S
C268 O285 1.273 . S
C268 O286 1.257 . S
C269 O267 1.255 . S
C269 O270 1.247 . S
O270 C269 1.247 . S
C271 O283 1.242 . S
C271 O284 1.258 . S
C272 C268 1.503 . S
C272 C273 1.379 . S
C272 C277 1.392 . S
C273 C272 1.379 . S
C273 C274 1.404 . S
C273 H287 0.929 . S
C274 C273 1.404 . S
C274 C275 1.389 . S
C275 C274 1.389 . S
C275 C276 1.399 . S
C275 H288 0.931 . S
C276 C275 1.399 . S
C276 C277 1.390 . S
C277 C272 1.392 . S
C277 C276 1.390 . S
C277 H289 0.929 . S
O278 Tb262 2.326 . S
O278 C266 1.242 . S
O279 Eu263 2.324 . S
O279 C266 1.258 . S
O280 Tb262 2.500 . S
O280 C282 1.273 . S
O281 Tb262 2.473 . S
O281 C282 1.257 . S
C282 O280 1.273 . S
C282 O281 1.257 . S
O283 Eu263 2.326 . S
O283 C271 1.242 . S
O284 Tb262 2.324 . S
O284 C271 1.258 . S
O285 Eu263 2.500 . S
O285 C268 1.273 . S
O286 Eu263 2.473 . S
O286 C268 1.257 . S
H287 C273 0.929 . S
H288 C275 0.931 . S
H289 C277 0.929 . S
O290 Tb291 2.292 . S
O290 C293 1.255 . S
Tb291 O290 2.292 . S
Tb291 O307 2.326 . S
Tb291 O309 2.500 . S
Tb291 O310 2.473 . S
Tb291 O313 2.324 . S
Eu292 O296 2.292 . S
Eu292 C297 2.852 . S
Eu292 O308 2.324 . S
Eu292 O312 2.326 . S
Eu292 O314 2.500 . S
Eu292 O315 2.473 . S
C293 O290 1.255 . S
C293 O294 1.247 . S
O294 C293 1.247 . S
C295 O307 1.242 . S
C295 O308 1.258 . S
O296 Eu292 2.292 . S
O296 C298 1.255 . S
C297 Eu292 2.852 . S
C297 C301 1.503 . S
C297 O314 1.273 . S
C297 O315 1.257 . S
C298 O296 1.255 . S
C298 O299 1.247 . S
O299 C298 1.247 . S
C300 O312 1.242 . S
C300 O313 1.258 . S
C301 C297 1.503 . S
C301 C302 1.379 . S
C301 C306 1.392 . S
C302 C301 1.379 . S
C302 C303 1.404 . S
C302 H316 0.929 . S
C303 C302 1.404 . S
C303 C304 1.389 . S
C304 C303 1.389 . S
C304 C305 1.399 . S
C304 H317 0.931 . S
C305 C304 1.399 . S
C305 C306 1.390 . S
C306 C301 1.392 . S
C306 C305 1.390 . S
C306 H318 0.929 . S
O307 Tb291 2.326 . S
O307 C295 1.242 . S
O308 Eu292 2.324 . S
O308 C295 1.258 . S
O309 Tb291 2.500 . S
O309 C311 1.273 . S
O310 Tb291 2.473 . S
O310 C311 1.257 . S
C311 O309 1.273 . S
C311 O310 1.257 . S
O312 Eu292 2.326 . S
O312 C300 1.242 . S
O313 Tb291 2.324 . S
O313 C300 1.258 . S
O314 Eu292 2.500 . S
O314 C297 1.273 . S
O315 Eu292 2.473 . S
O315 C297 1.257 . S
H316 C302 0.929 . S
H317 C304 0.931 . S
H318 C306 0.929 . S
O319 Tb320 2.292 . S
O319 C322 1.255 . S
Tb320 O319 2.292 . S
Tb320 O336 2.326 . S
Tb320 O338 2.500 . S
Tb320 O339 2.473 . S
Tb320 O342 2.324 . S
Eu321 O325 2.292 . S
Eu321 C326 2.852 . S
Eu321 O337 2.324 . S
Eu321 O341 2.326 . S
Eu321 O343 2.500 . S
Eu321 O344 2.473 . S
C322 O319 1.255 . S
C322 O323 1.247 . S
O323 C322 1.247 . S
C324 O336 1.242 . S
C324 O337 1.258 . S
O325 Eu321 2.292 . S
O325 C327 1.255 . S
C326 Eu321 2.852 . S
C326 C330 1.503 . S
C326 O343 1.273 . S
C326 O344 1.257 . S
C327 O325 1.255 . S
C327 O328 1.247 . S
O328 C327 1.247 . S
C329 O341 1.242 . S
C329 O342 1.258 . S
C330 C326 1.503 . S
C330 C331 1.379 . S
C330 C335 1.392 . S
C331 C330 1.379 . S
C331 C332 1.404 . S
C331 H345 0.929 . S
C332 C331 1.404 . S
C332 C333 1.389 . S
C333 C332 1.389 . S
C333 C334 1.399 . S
C333 H346 0.931 . S
C334 C333 1.399 . S
C334 C335 1.390 . S
C335 C330 1.392 . S
C335 C334 1.390 . S
C335 H347 0.929 . S
O336 Tb320 2.326 . S
O336 C324 1.242 . S
O337 Eu321 2.324 . S
O337 C324 1.258 . S
O338 Tb320 2.500 . S
O338 C340 1.273 . S
O339 Tb320 2.473 . S
O339 C340 1.257 . S
C340 O338 1.273 . S
C340 O339 1.257 . S
O341 Eu321 2.326 . S
O341 C329 1.242 . S
O342 Tb320 2.324 . S
O342 C329 1.258 . S
O343 Eu321 2.500 . S
O343 C326 1.273 . S
O344 Eu321 2.473 . S
O344 C326 1.257 . S
H345 C331 0.929 . S
H346 C333 0.931 . S
H347 C335 0.929 . S
O348 Tb349 2.292 . S
O348 C351 1.255 . S
Tb349 O348 2.292 . S
Tb349 O365 2.326 . S
Tb349 O367 2.500 . S
Tb349 O368 2.473 . S
Tb349 O371 2.324 . S
Eu350 O354 2.292 . S
Eu350 C355 2.852 . S
Eu350 O366 2.324 . S
Eu350 O370 2.326 . S
Eu350 O372 2.500 . S
Eu350 O373 2.473 . S
C351 O348 1.255 . S
C351 O352 1.247 . S
O352 C351 1.247 . S
C353 O365 1.242 . S
C353 O366 1.258 . S
O354 Eu350 2.292 . S
O354 C356 1.255 . S
C355 Eu350 2.852 . S
C355 C359 1.503 . S
C355 O372 1.273 . S
C355 O373 1.257 . S
C356 O354 1.255 . S
C356 O357 1.247 . S
O357 C356 1.247 . S
C358 O370 1.242 . S
C358 O371 1.258 . S
C359 C355 1.503 . S
C359 C360 1.379 . S
C359 C364 1.392 . S
C360 C359 1.379 . S
C360 C361 1.404 . S
C360 H374 0.929 . S
C361 C360 1.404 . S
C361 C362 1.389 . S
C362 C361 1.389 . S
C362 C363 1.399 . S
C362 H375 0.931 . S
C363 C362 1.399 . S
C363 C364 1.390 . S
C364 C359 1.392 . S
C364 C363 1.390 . S
C364 H376 0.929 . S
O365 Tb349 2.326 . S
O365 C353 1.242 . S
O366 Eu350 2.324 . S
O366 C353 1.258 . S
O367 Tb349 2.500 . S
O367 C369 1.273 . S
O368 Tb349 2.473 . S
O368 C369 1.257 . S
C369 O367 1.273 . S
C369 O368 1.257 . S
O370 Eu350 2.326 . S
O370 C358 1.242 . S
O371 Tb349 2.324 . S
O371 C358 1.258 . S
O372 Eu350 2.500 . S
O372 C355 1.273 . S
O373 Eu350 2.473 . S
O373 C355 1.257 . S
H374 C360 0.929 . S
H375 C362 0.931 . S
H376 C364 0.929 . S
O377 Tb378 2.292 . S
O377 C380 1.255 . S
Tb378 O377 2.292 . S
Tb378 O394 2.326 . S
Tb378 O396 2.500 . S
Tb378 O397 2.473 . S
Tb378 O400 2.324 . S
Eu379 O383 2.292 . S
Eu379 C384 2.852 . S
Eu379 O395 2.324 . S
Eu379 O399 2.326 . S
Eu379 O401 2.500 . S
Eu379 O402 2.473 . S
C380 O377 1.255 . S
C380 O381 1.247 . S
O381 C380 1.247 . S
C382 O394 1.242 . S
C382 O395 1.258 . S
O383 Eu379 2.292 . S
O383 C385 1.255 . S
C384 Eu379 2.852 . S
C384 C388 1.503 . S
C384 O401 1.273 . S
C384 O402 1.257 . S
C385 O383 1.255 . S
C385 O386 1.247 . S
O386 C385 1.247 . S
C387 O399 1.242 . S
C387 O400 1.258 . S
C388 C384 1.503 . S
C388 C389 1.379 . S
C388 C393 1.392 . S
C389 C388 1.379 . S
C389 C390 1.404 . S
C389 H403 0.929 . S
C390 C389 1.404 . S
C390 C391 1.389 . S
C391 C390 1.389 . S
C391 C392 1.399 . S
C391 H404 0.931 . S
C392 C391 1.399 . S
C392 C393 1.390 . S
C393 C388 1.392 . S
C393 C392 1.390 . S
C393 H405 0.929 . S
O394 Tb378 2.326 . S
O394 C382 1.242 . S
O395 Eu379 2.324 . S
O395 C382 1.258 . S
O396 Tb378 2.500 . S
O396 C398 1.273 . S
O397 Tb378 2.473 . S
O397 C398 1.257 . S
C398 O396 1.273 . S
C398 O397 1.257 . S
O399 Eu379 2.326 . S
O399 C387 1.242 . S
O400 Tb378 2.324 . S
O400 C387 1.258 . S
O401 Eu379 2.500 . S
O401 C384 1.273 . S
O402 Eu379 2.473 . S
O402 C384 1.257 . S
H403 C389 0.929 . S
H404 C391 0.931 . S
H405 C393 0.929 . S
O406 Tb407 2.292 . S
O406 C409 1.255 . S
Tb407 O406 2.292 . S
Tb407 O423 2.326 . S
Tb407 O425 2.500 . S
Tb407 O426 2.473 . S
Tb407 O429 2.324 . S
Eu408 O412 2.292 . S
Eu408 C413 2.852 . S
Eu408 O424 2.324 . S
Eu408 O428 2.326 . S
Eu408 O430 2.500 . S
Eu408 O431 2.473 . S
C409 O406 1.255 . S
C409 O410 1.247 . S
O410 C409 1.247 . S
C411 O423 1.242 . S
C411 O424 1.258 . S
O412 Eu408 2.292 . S
O412 C414 1.255 . S
C413 Eu408 2.852 . S
C413 C417 1.503 . S
C413 O430 1.273 . S
C413 O431 1.257 . S
C414 O412 1.255 . S
C414 O415 1.247 . S
O415 C414 1.247 . S
C416 O428 1.242 . S
C416 O429 1.258 . S
C417 C413 1.503 . S
C417 C418 1.379 . S
C417 C422 1.392 . S
C418 C417 1.379 . S
C418 C419 1.404 . S
C418 H432 0.929 . S
C419 C418 1.404 . S
C419 C420 1.389 . S
C420 C419 1.389 . S
C420 C421 1.399 . S
C420 H433 0.931 . S
C421 C420 1.399 . S
C421 C422 1.390 . S
C422 C417 1.392 . S
C422 C421 1.390 . S
C422 H434 0.929 . S
O423 Tb407 2.326 . S
O423 C411 1.242 . S
O424 Eu408 2.324 . S
O424 C411 1.258 . S
O425 Tb407 2.500 . S
O425 C427 1.273 . S
O426 Tb407 2.473 . S
O426 C427 1.257 . S
C427 O425 1.273 . S
C427 O426 1.257 . S
O428 Eu408 2.326 . S
O428 C416 1.242 . S
O429 Tb407 2.324 . S
O429 C416 1.258 . S
O430 Eu408 2.500 . S
O430 C413 1.273 . S
O431 Eu408 2.473 . S
O431 C413 1.257 . S
H432 C418 0.929 . S
H433 C420 0.931 . S
H434 C422 0.929 . S
O435 Tb436 2.292 . S
O435 C438 1.255 . S
Tb436 O435 2.292 . S
Tb436 O452 2.326 . S
Tb436 O454 2.500 . S
Tb436 O455 2.473 . S
Tb436 O458 2.324 . S
Eu437 O441 2.292 . S
Eu437 C442 2.852 . S
Eu437 O453 2.324 . S
Eu437 O457 2.326 . S
Eu437 O459 2.500 . S
Eu437 O460 2.473 . S
C438 O435 1.255 . S
C438 O439 1.247 . S
O439 C438 1.247 . S
C440 O452 1.242 . S
C440 O453 1.258 . S
O441 Eu437 2.292 . S
O441 C443 1.255 . S
C442 Eu437 2.852 . S
C442 C446 1.503 . S
C442 O459 1.273 . S
C442 O460 1.257 . S
C443 O441 1.255 . S
C443 O444 1.247 . S
O444 C443 1.247 . S
C445 O457 1.242 . S
C445 O458 1.258 . S
C446 C442 1.503 . S
C446 C447 1.379 . S
C446 C451 1.392 . S
C447 C446 1.379 . S
C447 C448 1.404 . S
C447 H461 0.929 . S
C448 C447 1.404 . S
C448 C449 1.389 . S
C449 C448 1.389 . S
C449 C450 1.399 . S
C449 H462 0.931 . S
C450 C449 1.399 . S
C450 C451 1.390 . S
C451 C446 1.392 . S
C451 C450 1.390 . S
C451 H463 0.929 . S
O452 Tb436 2.326 . S
O452 C440 1.242 . S
O453 Eu437 2.324 . S
O453 C440 1.258 . S
O454 Tb436 2.500 . S
O454 C456 1.273 . S
O455 Tb436 2.473 . S
O455 C456 1.257 . S
C456 O454 1.273 . S
C456 O455 1.257 . S
O457 Eu437 2.326 . S
O457 C445 1.242 . S
O458 Tb436 2.324 . S
O458 C445 1.258 . S
O459 Eu437 2.500 . S
O459 C442 1.273 . S
O460 Eu437 2.473 . S
O460 C442 1.257 . S
H461 C447 0.929 . S
H462 C449 0.931 . S
H463 C451 0.929 . S
O464 Tb465 2.292 . S
O464 C467 1.255 . S
Tb465 O464 2.292 . S
Tb465 O481 2.326 . S
Tb465 O483 2.500 . S
Tb465 O484 2.473 . S
Tb465 O487 2.324 . S
Eu466 O470 2.292 . S
Eu466 C471 2.852 . S
Eu466 O482 2.324 . S
Eu466 O486 2.326 . S
Eu466 O488 2.500 . S
Eu466 O489 2.473 . S
C467 O464 1.255 . S
C467 O468 1.247 . S
O468 C467 1.247 . S
C469 O481 1.242 . S
C469 O482 1.258 . S
O470 Eu466 2.292 . S
O470 C472 1.255 . S
C471 Eu466 2.852 . S
C471 C475 1.503 . S
C471 O488 1.273 . S
C471 O489 1.257 . S
C472 O470 1.255 . S
C472 O473 1.247 . S
O473 C472 1.247 . S
C474 O486 1.242 . S
C474 O487 1.258 . S
C475 C471 1.503 . S
C475 C476 1.379 . S
C475 C480 1.392 . S
C476 C475 1.379 . S
C476 C477 1.404 . S
C476 H490 0.929 . S
C477 C476 1.404 . S
C477 C478 1.389 . S
C478 C477 1.389 . S
C478 C479 1.399 . S
C478 H491 0.931 . S
C479 C478 1.399 . S
C479 C480 1.390 . S
C480 C475 1.392 . S
C480 C479 1.390 . S
C480 H492 0.929 . S
O481 Tb465 2.326 . S
O481 C469 1.242 . S
O482 Eu466 2.324 . S
O482 C469 1.258 . S
O483 Tb465 2.500 . S
O483 C485 1.273 . S
O484 Tb465 2.473 . S
O484 C485 1.257 . S
C485 O483 1.273 . S
C485 O484 1.257 . S
O486 Eu466 2.326 . S
O486 C474 1.242 . S
O487 Tb465 2.324 . S
O487 C474 1.258 . S
O488 Eu466 2.500 . S
O488 C471 1.273 . S
O489 Eu466 2.473 . S
O489 C471 1.257 . S
H490 C476 0.929 . S
H491 C478 0.931 . S
H492 C480 0.929 . S
O493 Tb494 2.292 . S
O493 C496 1.255 . S
Tb494 O493 2.292 . S
Tb494 O510 2.326 . S
Tb494 O512 2.500 . S
Tb494 O513 2.473 . S
Tb494 O516 2.324 . S
Eu495 O499 2.292 . S
Eu495 C500 2.852 . S
Eu495 O511 2.324 . S
Eu495 O515 2.326 . S
Eu495 O517 2.500 . S
Eu495 O518 2.473 . S
C496 O493 1.255 . S
C496 O497 1.247 . S
O497 C496 1.247 . S
C498 O510 1.242 . S
C498 O511 1.258 . S
O499 Eu495 2.292 . S
O499 C501 1.255 . S
C500 Eu495 2.852 . S
C500 C504 1.503 . S
C500 O517 1.273 . S
C500 O518 1.257 . S
C501 O499 1.255 . S
C501 O502 1.247 . S
O502 C501 1.247 . S
C503 O515 1.242 . S
C503 O516 1.258 . S
C504 C500 1.503 . S
C504 C505 1.379 . S
C504 C509 1.392 . S
C505 C504 1.379 . S
C505 C506 1.404 . S
C505 H519 0.929 . S
C506 C505 1.404 . S
C506 C507 1.389 . S
C507 C506 1.389 . S
C507 C508 1.399 . S
C507 H520 0.931 . S
C508 C507 1.399 . S
C508 C509 1.390 . S
C509 C504 1.392 . S
C509 C508 1.390 . S
C509 H521 0.929 . S
O510 Tb494 2.326 . S
O510 C498 1.242 . S
O511 Eu495 2.324 . S
O511 C498 1.258 . S
O512 Tb494 2.500 . S
O512 C514 1.273 . S
O513 Tb494 2.473 . S
O513 C514 1.257 . S
C514 O512 1.273 . S
C514 O513 1.257 . S
O515 Eu495 2.326 . S
O515 C503 1.242 . S
O516 Tb494 2.324 . S
O516 C503 1.258 . S
O517 Eu495 2.500 . S
O517 C500 1.273 . S
O518 Eu495 2.473 . S
O518 C500 1.257 . S
H519 C505 0.929 . S
H520 C507 0.931 . S
H521 C509 0.929 . S
O522 Tb523 2.292 . S
O522 C525 1.255 . S
Tb523 O522 2.292 . S
Tb523 O539 2.326 . S
Tb523 O541 2.500 . S
Tb523 O542 2.473 . S
Tb523 O545 2.324 . S
Eu524 O528 2.292 . S
Eu524 C529 2.852 . S
Eu524 O540 2.324 . S
Eu524 O544 2.326 . S
Eu524 O546 2.500 . S
Eu524 O547 2.473 . S
C525 O522 1.255 . S
C525 O526 1.247 . S
O526 C525 1.247 . S
C527 O539 1.242 . S
C527 O540 1.258 . S
O528 Eu524 2.292 . S
O528 C530 1.255 . S
C529 Eu524 2.852 . S
C529 C533 1.503 . S
C529 O546 1.273 . S
C529 O547 1.257 . S
C530 O528 1.255 . S
C530 O531 1.247 . S
O531 C530 1.247 . S
C532 O544 1.242 . S
C532 O545 1.258 . S
C533 C529 1.503 . S
C533 C534 1.379 . S
C533 C538 1.392 . S
C534 C533 1.379 . S
C534 C535 1.404 . S
C534 H548 0.929 . S
C535 C534 1.404 . S
C535 C536 1.389 . S
C536 C535 1.389 . S
C536 C537 1.399 . S
C536 H549 0.931 . S
C537 C536 1.399 . S
C537 C538 1.390 . S
C538 C533 1.392 . S
C538 C537 1.390 . S
C538 H550 0.929 . S
O539 Tb523 2.326 . S
O539 C527 1.242 . S
O540 Eu524 2.324 . S
O540 C527 1.258 . S
O541 Tb523 2.500 . S
O541 C543 1.273 . S
O542 Tb523 2.473 . S
O542 C543 1.257 . S
C543 O541 1.273 . S
C543 O542 1.257 . S
O544 Eu524 2.326 . S
O544 C532 1.242 . S
O545 Tb523 2.324 . S
O545 C532 1.258 . S
O546 Eu524 2.500 . S
O546 C529 1.273 . S
O547 Eu524 2.473 . S
O547 C529 1.257 . S
H548 C534 0.929 . S
H549 C536 0.931 . S
H550 C538 0.929 . S
O551 Tb552 2.292 . S
O551 C554 1.255 . S
Tb552 O551 2.292 . S
Tb552 O568 2.326 . S
Tb552 O570 2.500 . S
Tb552 O571 2.473 . S
Tb552 O574 2.324 . S
Eu553 O557 2.292 . S
Eu553 C558 2.852 . S
Eu553 O569 2.324 . S
Eu553 O573 2.326 . S
Eu553 O575 2.500 . S
Eu553 O576 2.473 . S
C554 O551 1.255 . S
C554 O555 1.247 . S
O555 C554 1.247 . S
C556 O568 1.242 . S
C556 O569 1.258 . S
O557 Eu553 2.292 . S
O557 C559 1.255 . S
C558 Eu553 2.852 . S
C558 C562 1.503 . S
C558 O575 1.273 . S
C558 O576 1.257 . S
C559 O557 1.255 . S
C559 O560 1.247 . S
O560 C559 1.247 . S
C561 O573 1.242 . S
C561 O574 1.258 . S
C562 C558 1.503 . S
C562 C563 1.379 . S
C562 C567 1.392 . S
C563 C562 1.379 . S
C563 C564 1.404 . S
C563 H577 0.929 . S
C564 C563 1.404 . S
C564 C565 1.389 . S
C565 C564 1.389 . S
C565 C566 1.399 . S
C565 H578 0.931 . S
C566 C565 1.399 . S
C566 C567 1.390 . S
C567 C562 1.392 . S
C567 C566 1.390 . S
C567 H579 0.929 . S
O568 Tb552 2.326 . S
O568 C556 1.242 . S
O569 Eu553 2.324 . S
O569 C556 1.258 . S
O570 Tb552 2.500 . S
O570 C572 1.273 . S
O571 Tb552 2.473 . S
O571 C572 1.257 . S
C572 O570 1.273 . S
C572 O571 1.257 . S
O573 Eu553 2.326 . S
O573 C561 1.242 . S
O574 Tb552 2.324 . S
O574 C561 1.258 . S
O575 Eu553 2.500 . S
O575 C558 1.273 . S
O576 Eu553 2.473 . S
O576 C558 1.257 . S
H577 C563 0.929 . S
H578 C565 0.931 . S
H579 C567 0.929 . S
O580 Tb581 2.292 . S
O580 C583 1.255 . S
Tb581 O580 2.292 . S
Tb581 O597 2.326 . S
Tb581 O599 2.500 . S
Tb581 O600 2.473 . S
Tb581 O603 2.324 . S
Eu582 O586 2.292 . S
Eu582 C587 2.852 . S
Eu582 O598 2.324 . S
Eu582 O602 2.326 . S
Eu582 O604 2.500 . S
Eu582 O605 2.473 . S
C583 O580 1.255 . S
C583 O584 1.247 . S
O584 C583 1.247 . S
C585 O597 1.242 . S
C585 O598 1.258 . S
O586 Eu582 2.292 . S
O586 C588 1.255 . S
C587 Eu582 2.852 . S
C587 C591 1.503 . S
C587 O604 1.273 . S
C587 O605 1.257 . S
C588 O586 1.255 . S
C588 O589 1.247 . S
O589 C588 1.247 . S
C590 O602 1.242 . S
C590 O603 1.258 . S
C591 C587 1.503 . S
C591 C592 1.379 . S
C591 C596 1.392 . S
C592 C591 1.379 . S
C592 C593 1.404 . S
C592 H606 0.929 . S
C593 C592 1.404 . S
C593 C594 1.389 . S
C594 C593 1.389 . S
C594 C595 1.399 . S
C594 H607 0.931 . S
C595 C594 1.399 . S
C595 C596 1.390 . S
C596 C591 1.392 . S
C596 C595 1.390 . S
C596 H608 0.929 . S
O597 Tb581 2.326 . S
O597 C585 1.242 . S
O598 Eu582 2.324 . S
O598 C585 1.258 . S
O599 Tb581 2.500 . S
O599 C601 1.273 . S
O600 Tb581 2.473 . S
O600 C601 1.257 . S
C601 O599 1.273 . S
C601 O600 1.257 . S
O602 Eu582 2.326 . S
O602 C590 1.242 . S
O603 Tb581 2.324 . S
O603 C590 1.258 . S
O604 Eu582 2.500 . S
O604 C587 1.273 . S
O605 Eu582 2.473 . S
O605 C587 1.257 . S
H606 C592 0.929 . S
H607 C594 0.931 . S
H608 C596 0.929 . S
O609 Tb610 2.292 . S
O609 C612 1.255 . S
Tb610 O609 2.292 . S
Tb610 O626 2.326 . S
Tb610 O628 2.500 . S
Tb610 O629 2.473 . S
Tb610 O632 2.324 . S
Eu611 O615 2.292 . S
Eu611 C616 2.852 . S
Eu611 O627 2.324 . S
Eu611 O631 2.326 . S
Eu611 O633 2.500 . S
Eu611 O634 2.473 . S
C612 O609 1.255 . S
C612 O613 1.247 . S
O613 C612 1.247 . S
C614 O626 1.242 . S
C614 O627 1.258 . S
O615 Eu611 2.292 . S
O615 C617 1.255 . S
C616 Eu611 2.852 . S
C616 C620 1.503 . S
C616 O633 1.273 . S
C616 O634 1.257 . S
C617 O615 1.255 . S
C617 O618 1.247 . S
O618 C617 1.247 . S
C619 O631 1.242 . S
C619 O632 1.258 . S
C620 C616 1.503 . S
C620 C621 1.379 . S
C620 C625 1.392 . S
C621 C620 1.379 . S
C621 C622 1.404 . S
C621 H635 0.929 . S
C622 C621 1.404 . S
C622 C623 1.389 . S
C623 C622 1.389 . S
C623 C624 1.399 . S
C623 H636 0.931 . S
C624 C623 1.399 . S
C624 C625 1.390 . S
C625 C620 1.392 . S
C625 C624 1.390 . S
C625 H637 0.929 . S
O626 Tb610 2.326 . S
O626 C614 1.242 . S
O627 Eu611 2.324 . S
O627 C614 1.258 . S
O628 Tb610 2.500 . S
O628 C630 1.273 . S
O629 Tb610 2.473 . S
O629 C630 1.257 . S
C630 O628 1.273 . S
C630 O629 1.257 . S
O631 Eu611 2.326 . S
O631 C619 1.242 . S
O632 Tb610 2.324 . S
O632 C619 1.258 . S
O633 Eu611 2.500 . S
O633 C616 1.273 . S
O634 Eu611 2.473 . S
O634 C616 1.257 . S
H635 C621 0.929 . S
H636 C623 0.931 . S
H637 C625 0.929 . S
O638 Tb639 2.292 . S
O638 C641 1.255 . S
Tb639 O638 2.292 . S
Tb639 O655 2.326 . S
Tb639 O657 2.500 . S
Tb639 O658 2.473 . S
Tb639 O661 2.324 . S
Eu640 O644 2.292 . S
Eu640 C645 2.852 . S
Eu640 O656 2.324 . S
Eu640 O660 2.326 . S
Eu640 O662 2.500 . S
Eu640 O663 2.473 . S
C641 O638 1.255 . S
C641 O642 1.247 . S
O642 C641 1.247 . S
C643 O655 1.242 . S
C643 O656 1.258 . S
O644 Eu640 2.292 . S
O644 C646 1.255 . S
C645 Eu640 2.852 . S
C645 C649 1.503 . S
C645 O662 1.273 . S
C645 O663 1.257 . S
C646 O644 1.255 . S
C646 O647 1.247 . S
O647 C646 1.247 . S
C648 O660 1.242 . S
C648 O661 1.258 . S
C649 C645 1.503 . S
C649 C650 1.379 . S
C649 C654 1.392 . S
C650 C649 1.379 . S
C650 C651 1.404 . S
C650 H664 0.929 . S
C651 C650 1.404 . S
C651 C652 1.389 . S
C652 C651 1.389 . S
C652 C653 1.399 . S
C652 H665 0.931 . S
C653 C652 1.399 . S
C653 C654 1.390 . S
C654 C649 1.392 . S
C654 C653 1.390 . S
C654 H666 0.929 . S
O655 Tb639 2.326 . S
O655 C643 1.242 . S
O656 Eu640 2.324 . S
O656 C643 1.258 . S
O657 Tb639 2.500 . S
O657 C659 1.273 . S
O658 Tb639 2.473 . S
O658 C659 1.257 . S
C659 O657 1.273 . S
C659 O658 1.257 . S
O660 Eu640 2.326 . S
O660 C648 1.242 . S
O661 Tb639 2.324 . S
O661 C648 1.258 . S
O662 Eu640 2.500 . S
O662 C645 1.273 . S
O663 Eu640 2.473 . S
O663 C645 1.257 . S
H664 C650 0.929 . S
H665 C652 0.931 . S
H666 C654 0.929 . S
O667 Tb668 2.292 . S
O667 C670 1.255 . S
Tb668 O667 2.292 . S
Tb668 O684 2.326 . S
Tb668 O686 2.500 . S
Tb668 O687 2.473 . S
Tb668 O690 2.324 . S
Eu669 O673 2.292 . S
Eu669 C674 2.852 . S
Eu669 O685 2.324 . S
Eu669 O689 2.326 . S
Eu669 O691 2.500 . S
Eu669 O692 2.473 . S
C670 O667 1.255 . S
C670 O671 1.247 . S
O671 C670 1.247 . S
C672 O684 1.242 . S
C672 O685 1.258 . S
O673 Eu669 2.292 . S
O673 C675 1.255 . S
C674 Eu669 2.852 . S
C674 C678 1.503 . S
C674 O691 1.273 . S
C674 O692 1.257 . S
C675 O673 1.255 . S
C675 O676 1.247 . S
O676 C675 1.247 . S
C677 O689 1.242 . S
C677 O690 1.258 . S
C678 C674 1.503 . S
C678 C679 1.379 . S
C678 C683 1.392 . S
C679 C678 1.379 . S
C679 C680 1.404 . S
C679 H693 0.929 . S
C680 C679 1.404 . S
C680 C681 1.389 . S
C681 C680 1.389 . S
C681 C682 1.399 . S
C681 H694 0.931 . S
C682 C681 1.399 . S
C682 C683 1.390 . S
C683 C678 1.392 . S
C683 C682 1.390 . S
C683 H695 0.929 . S
O684 Tb668 2.326 . S
O684 C672 1.242 . S
O685 Eu669 2.324 . S
O685 C672 1.258 . S
O686 Tb668 2.500 . S
O686 C688 1.273 . S
O687 Tb668 2.473 . S
O687 C688 1.257 . S
C688 O686 1.273 . S
C688 O687 1.257 . S
O689 Eu669 2.326 . S
O689 C677 1.242 . S
O690 Tb668 2.324 . S
O690 C677 1.258 . S
O691 Eu669 2.500 . S
O691 C674 1.273 . S
O692 Eu669 2.473 . S
O692 C674 1.257 . S
H693 C679 0.929 . S
H694 C681 0.931 . S
H695 C683 0.929 . S
O696 Tb697 2.292 . S
O696 C699 1.255 . S
Tb697 O696 2.292 . S
Tb697 O713 2.326 . S
Tb697 O715 2.500 . S
Tb697 O716 2.473 . S
Tb697 O719 2.324 . S
Eu698 O702 2.292 . S
Eu698 C703 2.852 . S
Eu698 O714 2.324 . S
Eu698 O718 2.326 . S
Eu698 O720 2.500 . S
Eu698 O721 2.473 . S
C699 O696 1.255 . S
C699 O700 1.247 . S
O700 C699 1.247 . S
C701 O713 1.242 . S
C701 O714 1.258 . S
O702 Eu698 2.292 . S
O702 C704 1.255 . S
C703 Eu698 2.852 . S
C703 C707 1.503 . S
C703 O720 1.273 . S
C703 O721 1.257 . S
C704 O702 1.255 . S
C704 O705 1.247 . S
O705 C704 1.247 . S
C706 O718 1.242 . S
C706 O719 1.258 . S
C707 C703 1.503 . S
C707 C708 1.379 . S
C707 C712 1.392 . S
C708 C707 1.379 . S
C708 C709 1.404 . S
C708 H722 0.929 . S
C709 C708 1.404 . S
C709 C710 1.389 . S
C710 C709 1.389 . S
C710 C711 1.399 . S
C710 H723 0.931 . S
C711 C710 1.399 . S
C711 C712 1.390 . S
C712 C707 1.392 . S
C712 C711 1.390 . S
C712 H724 0.929 . S
O713 Tb697 2.326 . S
O713 C701 1.242 . S
O714 Eu698 2.324 . S
O714 C701 1.258 . S
O715 Tb697 2.500 . S
O715 C717 1.273 . S
O716 Tb697 2.473 . S
O716 C717 1.257 . S
C717 O715 1.273 . S
C717 O716 1.257 . S
O718 Eu698 2.326 . S
O718 C706 1.242 . S
O719 Tb697 2.324 . S
O719 C706 1.258 . S
O720 Eu698 2.500 . S
O720 C703 1.273 . S
O721 Eu698 2.473 . S
O721 C703 1.257 . S
H722 C708 0.929 . S
H723 C710 0.931 . S
H724 C712 0.929 . S
O725 Tb726 2.292 . S
O725 C728 1.255 . S
Tb726 O725 2.292 . S
Tb726 O742 2.326 . S
Tb726 O744 2.500 . S
Tb726 O745 2.473 . S
Tb726 O748 2.324 . S
Eu727 O731 2.292 . S
Eu727 C732 2.852 . S
Eu727 O743 2.324 . S
Eu727 O747 2.326 . S
Eu727 O749 2.500 . S
Eu727 O750 2.473 . S
C728 O725 1.255 . S
C728 O729 1.247 . S
O729 C728 1.247 . S
C730 O742 1.242 . S
C730 O743 1.258 . S
O731 Eu727 2.292 . S
O731 C733 1.255 . S
C732 Eu727 2.852 . S
C732 C736 1.503 . S
C732 O749 1.273 . S
C732 O750 1.257 . S
C733 O731 1.255 . S
C733 O734 1.247 . S
O734 C733 1.247 . S
C735 O747 1.242 . S
C735 O748 1.258 . S
C736 C732 1.503 . S
C736 C737 1.379 . S
C736 C741 1.392 . S
C737 C736 1.379 . S
C737 C738 1.404 . S
C737 H751 0.929 . S
C738 C737 1.404 . S
C738 C739 1.389 . S
C739 C738 1.389 . S
C739 C740 1.399 . S
C739 H752 0.931 . S
C740 C739 1.399 . S
C740 C741 1.390 . S
C741 C736 1.392 . S
C741 C740 1.390 . S
C741 H753 0.929 . S
O742 Tb726 2.326 . S
O742 C730 1.242 . S
O743 Eu727 2.324 . S
O743 C730 1.258 . S
O744 Tb726 2.500 . S
O744 C746 1.273 . S
O745 Tb726 2.473 . S
O745 C746 1.257 . S
C746 O744 1.273 . S
C746 O745 1.257 . S
O747 Eu727 2.326 . S
O747 C735 1.242 . S
O748 Tb726 2.324 . S
O748 C735 1.258 . S
O749 Eu727 2.500 . S
O749 C732 1.273 . S
O750 Eu727 2.473 . S
O750 C732 1.257 . S
H751 C737 0.929 . S
H752 C739 0.931 . S
H753 C741 0.929 . S
O754 Tb755 2.292 . S
O754 C757 1.255 . S
Tb755 O754 2.292 . S
Tb755 O771 2.326 . S
Tb755 O773 2.500 . S
Tb755 O774 2.473 . S
Tb755 O777 2.324 . S
Eu756 O760 2.292 . S
Eu756 C761 2.852 . S
Eu756 O772 2.324 . S
Eu756 O776 2.326 . S
Eu756 O778 2.500 . S
Eu756 O779 2.473 . S
C757 O754 1.255 . S
C757 O758 1.247 . S
O758 C757 1.247 . S
C759 O771 1.242 . S
C759 O772 1.258 . S
O760 Eu756 2.292 . S
O760 C762 1.255 . S
C761 Eu756 2.852 . S
C761 C765 1.503 . S
C761 O778 1.273 . S
C761 O779 1.257 . S
C762 O760 1.255 . S
C762 O763 1.247 . S
O763 C762 1.247 . S
C764 O776 1.242 . S
C764 O777 1.258 . S
C765 C761 1.503 . S
C765 C766 1.379 . S
C765 C770 1.392 . S
C766 C765 1.379 . S
C766 C767 1.404 . S
C766 H780 0.929 . S
C767 C766 1.404 . S
C767 C768 1.389 . S
C768 C767 1.389 . S
C768 C769 1.399 . S
C768 H781 0.931 . S
C769 C768 1.399 . S
C769 C770 1.390 . S
C770 C765 1.392 . S
C770 C769 1.390 . S
C770 H782 0.929 . S
O771 Tb755 2.326 . S
O771 C759 1.242 . S
O772 Eu756 2.324 . S
O772 C759 1.258 . S
O773 Tb755 2.500 . S
O773 C775 1.273 . S
O774 Tb755 2.473 . S
O774 C775 1.257 . S
C775 O773 1.273 . S
C775 O774 1.257 . S
O776 Eu756 2.326 . S
O776 C764 1.242 . S
O777 Tb755 2.324 . S
O777 C764 1.258 . S
O778 Eu756 2.500 . S
O778 C761 1.273 . S
O779 Eu756 2.473 . S
O779 C761 1.257 . S
H780 C766 0.929 . S
H781 C768 0.931 . S
H782 C770 0.929 . S
O783 Tb784 2.292 . S
O783 C786 1.255 . S
Tb784 O783 2.292 . S
Tb784 O800 2.326 . S
Tb784 O802 2.500 . S
Tb784 O803 2.473 . S
Tb784 O806 2.324 . S
Eu785 O789 2.292 . S
Eu785 C790 2.852 . S
Eu785 O801 2.324 . S
Eu785 O805 2.326 . S
Eu785 O807 2.500 . S
Eu785 O808 2.473 . S
C786 O783 1.255 . S
C786 O787 1.247 . S
O787 C786 1.247 . S
C788 O800 1.242 . S
C788 O801 1.258 . S
O789 Eu785 2.292 . S
O789 C791 1.255 . S
C790 Eu785 2.852 . S
C790 C794 1.503 . S
C790 O807 1.273 . S
C790 O808 1.257 . S
C791 O789 1.255 . S
C791 O792 1.247 . S
O792 C791 1.247 . S
C793 O805 1.242 . S
C793 O806 1.258 . S
C794 C790 1.503 . S
C794 C795 1.379 . S
C794 C799 1.392 . S
C795 C794 1.379 . S
C795 C796 1.404 . S
C795 H809 0.929 . S
C796 C795 1.404 . S
C796 C797 1.389 . S
C797 C796 1.389 . S
C797 C798 1.399 . S
C797 H810 0.931 . S
C798 C797 1.399 . S
C798 C799 1.390 . S
C799 C794 1.392 . S
C799 C798 1.390 . S
C799 H811 0.929 . S
O800 Tb784 2.326 . S
O800 C788 1.242 . S
O801 Eu785 2.324 . S
O801 C788 1.258 . S
O802 Tb784 2.500 . S
O802 C804 1.273 . S
O803 Tb784 2.473 . S
O803 C804 1.257 . S
C804 O802 1.273 . S
C804 O803 1.257 . S
O805 Eu785 2.326 . S
O805 C793 1.242 . S
O806 Tb784 2.324 . S
O806 C793 1.258 . S
O807 Eu785 2.500 . S
O807 C790 1.273 . S
O808 Eu785 2.473 . S
O808 C790 1.257 . S
H809 C795 0.929 . S
H810 C797 0.931 . S
H811 C799 0.929 . S
O812 Tb813 2.292 . S
O812 C815 1.255 . S
Tb813 O812 2.292 . S
Tb813 O829 2.326 . S
Tb813 O831 2.500 . S
Tb813 O832 2.473 . S
Tb813 O835 2.324 . S
Eu814 O818 2.292 . S
Eu814 C819 2.852 . S
Eu814 O830 2.324 . S
Eu814 O834 2.326 . S
Eu814 O836 2.500 . S
Eu814 O837 2.473 . S
C815 O812 1.255 . S
C815 O816 1.247 . S
O816 C815 1.247 . S
C817 O829 1.242 . S
C817 O830 1.258 . S
O818 Eu814 2.292 . S
O818 C820 1.255 . S
C819 Eu814 2.852 . S
C819 C823 1.503 . S
C819 O836 1.273 . S
C819 O837 1.257 . S
C820 O818 1.255 . S
C820 O821 1.247 . S
O821 C820 1.247 . S
C822 O834 1.242 . S
C822 O835 1.258 . S
C823 C819 1.503 . S
C823 C824 1.379 . S
C823 C828 1.392 . S
C824 C823 1.379 . S
C824 C825 1.404 . S
C824 H838 0.929 . S
C825 C824 1.404 . S
C825 C826 1.389 . S
C826 C825 1.389 . S
C826 C827 1.399 . S
C826 H839 0.931 . S
C827 C826 1.399 . S
C827 C828 1.390 . S
C828 C823 1.392 . S
C828 C827 1.390 . S
C828 H840 0.929 . S
O829 Tb813 2.326 . S
O829 C817 1.242 . S
O830 Eu814 2.324 . S
O830 C817 1.258 . S
O831 Tb813 2.500 . S
O831 C833 1.273 . S
O832 Tb813 2.473 . S
O832 C833 1.257 . S
C833 O831 1.273 . S
C833 O832 1.257 . S
O834 Eu814 2.326 . S
O834 C822 1.242 . S
O835 Tb813 2.324 . S
O835 C822 1.258 . S
O836 Eu814 2.500 . S
O836 C819 1.273 . S
O837 Eu814 2.473 . S
O837 C819 1.257 . S
H838 C824 0.929 . S
H839 C826 0.931 . S
H840 C828 0.929 . S
O841 Tb842 2.292 . S
O841 C844 1.255 . S
Tb842 O841 2.292 . S
Tb842 O858 2.326 . S
Tb842 O860 2.500 . S
Tb842 O861 2.473 . S
Tb842 O864 2.324 . S
Eu843 O847 2.292 . S
Eu843 C848 2.852 . S
Eu843 O859 2.324 . S
Eu843 O863 2.326 . S
Eu843 O865 2.500 . S
Eu843 O866 2.473 . S
C844 O841 1.255 . S
C844 O845 1.247 . S
O845 C844 1.247 . S
C846 O858 1.242 . S
C846 O859 1.258 . S
O847 Eu843 2.292 . S
O847 C849 1.255 . S
C848 Eu843 2.852 . S
C848 C852 1.503 . S
C848 O865 1.273 . S
C848 O866 1.257 . S
C849 O847 1.255 . S
C849 O850 1.247 . S
O850 C849 1.247 . S
C851 O863 1.242 . S
C851 O864 1.258 . S
C852 C848 1.503 . S
C852 C853 1.379 . S
C852 C857 1.392 . S
C853 C852 1.379 . S
C853 C854 1.404 . S
C853 H867 0.929 . S
C854 C853 1.404 . S
C854 C855 1.389 . S
C855 C854 1.389 . S
C855 C856 1.399 . S
C855 H868 0.931 . S
C856 C855 1.399 . S
C856 C857 1.390 . S
C857 C852 1.392 . S
C857 C856 1.390 . S
C857 H869 0.929 . S
O858 Tb842 2.326 . S
O858 C846 1.242 . S
O859 Eu843 2.324 . S
O859 C846 1.258 . S
O860 Tb842 2.500 . S
O860 C862 1.273 . S
O861 Tb842 2.473 . S
O861 C862 1.257 . S
C862 O860 1.273 . S
C862 O861 1.257 . S
O863 Eu843 2.326 . S
O863 C851 1.242 . S
O864 Tb842 2.324 . S
O864 C851 1.258 . S
O865 Eu843 2.500 . S
O865 C848 1.273 . S
O866 Eu843 2.473 . S
O866 C848 1.257 . S
H867 C853 0.929 . S
H868 C855 0.931 . S
H869 C857 0.929 . S
O870 Tb871 2.292 . S
O870 C873 1.255 . S
Tb871 O870 2.292 . S
Tb871 O887 2.326 . S
Tb871 O889 2.500 . S
Tb871 O890 2.473 . S
Tb871 O893 2.324 . S
Eu872 O876 2.292 . S
Eu872 C877 2.852 . S
Eu872 O888 2.324 . S
Eu872 O892 2.326 . S
Eu872 O894 2.500 . S
Eu872 O895 2.473 . S
C873 O870 1.255 . S
C873 O874 1.247 . S
O874 C873 1.247 . S
C875 O887 1.242 . S
C875 O888 1.258 . S
O876 Eu872 2.292 . S
O876 C878 1.255 . S
C877 Eu872 2.852 . S
C877 C881 1.503 . S
C877 O894 1.273 . S
C877 O895 1.257 . S
C878 O876 1.255 . S
C878 O879 1.247 . S
O879 C878 1.247 . S
C880 O892 1.242 . S
C880 O893 1.258 . S
C881 C877 1.503 . S
C881 C882 1.379 . S
C881 C886 1.392 . S
C882 C881 1.379 . S
C882 C883 1.404 . S
C882 H896 0.929 . S
C883 C882 1.404 . S
C883 C884 1.389 . S
C884 C883 1.389 . S
C884 C885 1.399 . S
C884 H897 0.931 . S
C885 C884 1.399 . S
C885 C886 1.390 . S
C886 C881 1.392 . S
C886 C885 1.390 . S
C886 H898 0.929 . S
O887 Tb871 2.326 . S
O887 C875 1.242 . S
O888 Eu872 2.324 . S
O888 C875 1.258 . S
O889 Tb871 2.500 . S
O889 C891 1.273 . S
O890 Tb871 2.473 . S
O890 C891 1.257 . S
C891 O889 1.273 . S
C891 O890 1.257 . S
O892 Eu872 2.326 . S
O892 C880 1.242 . S
O893 Tb871 2.324 . S
O893 C880 1.258 . S
O894 Eu872 2.500 . S
O894 C877 1.273 . S
O895 Eu872 2.473 . S
O895 C877 1.257 . S
H896 C882 0.929 . S
H897 C884 0.931 . S
H898 C886 0.929 . S
O899 Tb900 2.292 . S
O899 C902 1.255 . S
Tb900 O899 2.292 . S
Tb900 O916 2.326 . S
Tb900 O918 2.500 . S
Tb900 O919 2.473 . S
Tb900 O922 2.324 . S
Eu901 O905 2.292 . S
Eu901 C906 2.852 . S
Eu901 O917 2.324 . S
Eu901 O921 2.326 . S
Eu901 O923 2.500 . S
Eu901 O924 2.473 . S
C902 O899 1.255 . S
C902 O903 1.247 . S
O903 C902 1.247 . S
C904 O916 1.242 . S
C904 O917 1.258 . S
O905 Eu901 2.292 . S
O905 C907 1.255 . S
C906 Eu901 2.852 . S
C906 C910 1.503 . S
C906 O923 1.273 . S
C906 O924 1.257 . S
C907 O905 1.255 . S
C907 O908 1.247 . S
O908 C907 1.247 . S
C909 O921 1.242 . S
C909 O922 1.258 . S
C910 C906 1.503 . S
C910 C911 1.379 . S
C910 C915 1.392 . S
C911 C910 1.379 . S
C911 C912 1.404 . S
C911 H925 0.929 . S
C912 C911 1.404 . S
C912 C913 1.389 . S
C913 C912 1.389 . S
C913 C914 1.399 . S
C913 H926 0.931 . S
C914 C913 1.399 . S
C914 C915 1.390 . S
C915 C910 1.392 . S
C915 C914 1.390 . S
C915 H927 0.929 . S
O916 Tb900 2.326 . S
O916 C904 1.242 . S
O917 Eu901 2.324 . S
O917 C904 1.258 . S
O918 Tb900 2.500 . S
O918 C920 1.273 . S
O919 Tb900 2.473 . S
O919 C920 1.257 . S
C920 O918 1.273 . S
C920 O919 1.257 . S
O921 Eu901 2.326 . S
O921 C909 1.242 . S
O922 Tb900 2.324 . S
O922 C909 1.258 . S
O923 Eu901 2.500 . S
O923 C906 1.273 . S
O924 Eu901 2.473 . S
O924 C906 1.257 . S
H925 C911 0.929 . S
H926 C913 0.931 . S
H927 C915 0.929 . S
O928 Tb929 2.292 . S
O928 C931 1.255 . S
Tb929 O928 2.292 . S
Tb929 O945 2.326 . S
Tb929 O947 2.500 . S
Tb929 O948 2.473 . S
Tb929 O951 2.324 . S
Eu930 O934 2.292 . S
Eu930 C935 2.852 . S
Eu930 O946 2.324 . S
Eu930 O950 2.326 . S
Eu930 O952 2.500 . S
Eu930 O953 2.473 . S
C931 O928 1.255 . S
C931 O932 1.247 . S
O932 C931 1.247 . S
C933 O945 1.242 . S
C933 O946 1.258 . S
O934 Eu930 2.292 . S
O934 C936 1.255 . S
C935 Eu930 2.852 . S
C935 C939 1.503 . S
C935 O952 1.273 . S
C935 O953 1.257 . S
C936 O934 1.255 . S
C936 O937 1.247 . S
O937 C936 1.247 . S
C938 O950 1.242 . S
C938 O951 1.258 . S
C939 C935 1.503 . S
C939 C940 1.379 . S
C939 C944 1.392 . S
C940 C939 1.379 . S
C940 C941 1.404 . S
C940 H954 0.929 . S
C941 C940 1.404 . S
C941 C942 1.389 . S
C942 C941 1.389 . S
C942 C943 1.399 . S
C942 H955 0.931 . S
C943 C942 1.399 . S
C943 C944 1.390 . S
C944 C939 1.392 . S
C944 C943 1.390 . S
C944 H956 0.929 . S
O945 Tb929 2.326 . S
O945 C933 1.242 . S
O946 Eu930 2.324 . S
O946 C933 1.258 . S
O947 Tb929 2.500 . S
O947 C949 1.273 . S
O948 Tb929 2.473 . S
O948 C949 1.257 . S
C949 O947 1.273 . S
C949 O948 1.257 . S
O950 Eu930 2.326 . S
O950 C938 1.242 . S
O951 Tb929 2.324 . S
O951 C938 1.258 . S
O952 Eu930 2.500 . S
O952 C935 1.273 . S
O953 Eu930 2.473 . S
O953 C935 1.257 . S
H954 C940 0.929 . S
H955 C942 0.931 . S
H956 C944 0.929 . S
O957 Tb958 2.292 . S
O957 C960 1.255 . S
Tb958 O957 2.292 . S
Tb958 O974 2.326 . S
Tb958 O976 2.500 . S
Tb958 O977 2.473 . S
Tb958 O980 2.324 . S
Eu959 O963 2.292 . S
Eu959 C964 2.852 . S
Eu959 O975 2.324 . S
Eu959 O979 2.326 . S
Eu959 O981 2.500 . S
Eu959 O982 2.473 . S
C960 O957 1.255 . S
C960 O961 1.247 . S
O961 C960 1.247 . S
C962 O974 1.242 . S
C962 O975 1.258 . S
O963 Eu959 2.292 . S
O963 C965 1.255 . S
C964 Eu959 2.852 . S
C964 C968 1.503 . S
C964 O981 1.273 . S
C964 O982 1.257 . S
C965 O963 1.255 . S
C965 O966 1.247 . S
O966 C965 1.247 . S
C967 O979 1.242 . S
C967 O980 1.258 . S
C968 C964 1.503 . S
C968 C969 1.379 . S
C968 C973 1.392 . S
C969 C968 1.379 . S
C969 C970 1.404 . S
C969 H983 0.929 . S
C970 C969 1.404 . S
C970 C971 1.389 . S
C971 C970 1.389 . S
C971 C972 1.399 . S
C971 H984 0.931 . S
C972 C971 1.399 . S
C972 C973 1.390 . S
C973 C968 1.392 . S
C973 C972 1.390 . S
C973 H985 0.929 . S
O974 Tb958 2.326 . S
O974 C962 1.242 . S
O975 Eu959 2.324 . S
O975 C962 1.258 . S
O976 Tb958 2.500 . S
O976 C978 1.273 . S
O977 Tb958 2.473 . S
O977 C978 1.257 . S
C978 O976 1.273 . S
C978 O977 1.257 . S
O979 Eu959 2.326 . S
O979 C967 1.242 . S
O980 Tb958 2.324 . S
O980 C967 1.258 . S
O981 Eu959 2.500 . S
O981 C964 1.273 . S
O982 Eu959 2.473 . S
O982 C964 1.257 . S
H983 C969 0.929 . S
H984 C971 0.931 . S
H985 C973 0.929 . S
O986 Tb987 2.292 . S
O986 C989 1.255 . S
Tb987 O986 2.292 . S
Tb987 O1003 2.326 . S
Tb987 O1005 2.500 . S
Tb987 O1006 2.473 . S
Tb987 O1009 2.324 . S
Eu988 O992 2.292 . S
Eu988 C993 2.852 . S
Eu988 O1004 2.324 . S
Eu988 O1008 2.326 . S
Eu988 O1010 2.500 . S
Eu988 O1011 2.473 . S
C989 O986 1.255 . S
C989 O990 1.247 . S
O990 C989 1.247 . S
C991 O1003 1.242 . S
C991 O1004 1.258 . S
O992 Eu988 2.292 . S
O992 C994 1.255 . S
C993 Eu988 2.852 . S
C993 C997 1.503 . S
C993 O1010 1.273 . S
C993 O1011 1.257 . S
C994 O992 1.255 . S
C994 O995 1.247 . S
O995 C994 1.247 . S
C996 O1008 1.242 . S
C996 O1009 1.258 . S
C997 C993 1.503 . S
C997 C998 1.379 . S
C997 C1002 1.392 . S
C998 C997 1.379 . S
C998 C999 1.404 . S
C998 H1012 0.929 . S
C999 C998 1.404 . S
C999 C1000 1.389 . S
C1000 C999 1.389 . S
C1000 C1001 1.399 . S
C1000 H1013 0.931 . S
C1001 C1000 1.399 . S
C1001 C1002 1.390 . S
C1002 C997 1.392 . S
C1002 C1001 1.390 . S
C1002 H1014 0.929 . S
O1003 Tb987 2.326 . S
O1003 C991 1.242 . S
O1004 Eu988 2.324 . S
O1004 C991 1.258 . S
O1005 Tb987 2.500 . S
O1005 C1007 1.273 . S
O1006 Tb987 2.473 . S
O1006 C1007 1.257 . S
C1007 O1005 1.273 . S
C1007 O1006 1.257 . S
O1008 Eu988 2.326 . S
O1008 C996 1.242 . S
O1009 Tb987 2.324 . S
O1009 C996 1.258 . S
O1010 Eu988 2.500 . S
O1010 C993 1.273 . S
O1011 Eu988 2.473 . S
O1011 C993 1.257 . S
H1012 C998 0.929 . S
H1013 C1000 0.931 . S
H1014 C1002 0.929 . S
O1015 Tb1016 2.292 . S
O1015 C1018 1.255 . S
Tb1016 O1015 2.292 . S
Tb1016 O1032 2.326 . S
Tb1016 O1034 2.500 . S
Tb1016 O1035 2.473 . S
Tb1016 O1038 2.324 . S
Eu1017 O1021 2.292 . S
Eu1017 C1022 2.852 . S
Eu1017 O1033 2.324 . S
Eu1017 O1037 2.326 . S
Eu1017 O1039 2.500 . S
Eu1017 O1040 2.473 . S
C1018 O1015 1.255 . S
C1018 O1019 1.247 . S
O1019 C1018 1.247 . S
C1020 O1032 1.242 . S
C1020 O1033 1.258 . S
O1021 Eu1017 2.292 . S
O1021 C1023 1.255 . S
C1022 Eu1017 2.852 . S
C1022 C1026 1.503 . S
C1022 O1039 1.273 . S
C1022 O1040 1.257 . S
C1023 O1021 1.255 . S
C1023 O1024 1.247 . S
O1024 C1023 1.247 . S
C1025 O1037 1.242 . S
C1025 O1038 1.258 . S
C1026 C1022 1.503 . S
C1026 C1027 1.379 . S
C1026 C1031 1.392 . S
C1027 C1026 1.379 . S
C1027 C1028 1.404 . S
C1027 H1041 0.929 . S
C1028 C1027 1.404 . S
C1028 C1029 1.389 . S
C1029 C1028 1.389 . S
C1029 C1030 1.399 . S
C1029 H1042 0.931 . S
C1030 C1029 1.399 . S
C1030 C1031 1.390 . S
C1031 C1026 1.392 . S
C1031 C1030 1.390 . S
C1031 H1043 0.929 . S
O1032 Tb1016 2.326 . S
O1032 C1020 1.242 . S
O1033 Eu1017 2.324 . S
O1033 C1020 1.258 . S
O1034 Tb1016 2.500 . S
O1034 C1036 1.273 . S
O1035 Tb1016 2.473 . S
O1035 C1036 1.257 . S
C1036 O1034 1.273 . S
C1036 O1035 1.257 . S
O1037 Eu1017 2.326 . S
O1037 C1025 1.242 . S
O1038 Tb1016 2.324 . S
O1038 C1025 1.258 . S
O1039 Eu1017 2.500 . S
O1039 C1022 1.273 . S
O1040 Eu1017 2.473 . S
O1040 C1022 1.257 . S
H1041 C1027 0.929 . S
H1042 C1029 0.931 . S
H1043 C1031 0.929 . S
O1044 Tb1045 2.292 . S
O1044 C1047 1.255 . S
Tb1045 O1044 2.292 . S
Tb1045 O1061 2.326 . S
Tb1045 O1063 2.500 . S
Tb1045 O1064 2.473 . S
Tb1045 O1067 2.324 . S
Eu1046 O1050 2.292 . S
Eu1046 C1051 2.852 . S
Eu1046 O1062 2.324 . S
Eu1046 O1066 2.326 . S
Eu1046 O1068 2.500 . S
Eu1046 O1069 2.473 . S
C1047 O1044 1.255 . S
C1047 O1048 1.247 . S
O1048 C1047 1.247 . S
C1049 O1061 1.242 . S
C1049 O1062 1.258 . S
O1050 Eu1046 2.292 . S
O1050 C1052 1.255 . S
C1051 Eu1046 2.852 . S
C1051 C1055 1.503 . S
C1051 O1068 1.273 . S
C1051 O1069 1.257 . S
C1052 O1050 1.255 . S
C1052 O1053 1.247 . S
O1053 C1052 1.247 . S
C1054 O1066 1.242 . S
C1054 O1067 1.258 . S
C1055 C1051 1.503 . S
C1055 C1056 1.379 . S
C1055 C1060 1.392 . S
C1056 C1055 1.379 . S
C1056 C1057 1.404 . S
C1056 H1070 0.929 . S
C1057 C1056 1.404 . S
C1057 C1058 1.389 . S
C1058 C1057 1.389 . S
C1058 C1059 1.399 . S
C1058 H1071 0.931 . S
C1059 C1058 1.399 . S
C1059 C1060 1.390 . S
C1060 C1055 1.392 . S
C1060 C1059 1.390 . S
C1060 H1072 0.929 . S
O1061 Tb1045 2.326 . S
O1061 C1049 1.242 . S
O1062 Eu1046 2.324 . S
O1062 C1049 1.258 . S
O1063 Tb1045 2.500 . S
O1063 C1065 1.273 . S
O1064 Tb1045 2.473 . S
O1064 C1065 1.257 . S
C1065 O1063 1.273 . S
C1065 O1064 1.257 . S
O1066 Eu1046 2.326 . S
O1066 C1054 1.242 . S
O1067 Tb1045 2.324 . S
O1067 C1054 1.258 . S
O1068 Eu1046 2.500 . S
O1068 C1051 1.273 . S
O1069 Eu1046 2.473 . S
O1069 C1051 1.257 . S
H1070 C1056 0.929 . S
H1071 C1058 0.931 . S
H1072 C1060 0.929 . S
O1073 Tb1074 2.292 . S
O1073 C1076 1.255 . S
Tb1074 O1073 2.292 . S
Tb1074 O1090 2.326 . S
Tb1074 O1092 2.500 . S
Tb1074 O1093 2.473 . S
Tb1074 O1096 2.324 . S
Eu1075 O1079 2.292 . S
Eu1075 C1080 2.852 . S
Eu1075 O1091 2.324 . S
Eu1075 O1095 2.326 . S
Eu1075 O1097 2.500 . S
Eu1075 O1098 2.473 . S
C1076 O1073 1.255 . S
C1076 O1077 1.247 . S
O1077 C1076 1.247 . S
C1078 O1090 1.242 . S
C1078 O1091 1.258 . S
O1079 Eu1075 2.292 . S
O1079 C1081 1.255 . S
C1080 Eu1075 2.852 . S
C1080 C1084 1.503 . S
C1080 O1097 1.273 . S
C1080 O1098 1.257 . S
C1081 O1079 1.255 . S
C1081 O1082 1.247 . S
O1082 C1081 1.247 . S
C1083 O1095 1.242 . S
C1083 O1096 1.258 . S
C1084 C1080 1.503 . S
C1084 C1085 1.379 . S
C1084 C1089 1.392 . S
C1085 C1084 1.379 . S
C1085 C1086 1.404 . S
C1085 H1099 0.929 . S
C1086 C1085 1.404 . S
C1086 C1087 1.389 . S
C1087 C1086 1.389 . S
C1087 C1088 1.399 . S
C1087 H1100 0.931 . S
C1088 C1087 1.399 . S
C1088 C1089 1.390 . S
C1089 C1084 1.392 . S
C1089 C1088 1.390 . S
C1089 H1101 0.929 . S
O1090 Tb1074 2.326 . S
O1090 C1078 1.242 . S
O1091 Eu1075 2.324 . S
O1091 C1078 1.258 . S
O1092 Tb1074 2.500 . S
O1092 C1094 1.273 . S
O1093 Tb1074 2.473 . S
O1093 C1094 1.257 . S
C1094 O1092 1.273 . S
C1094 O1093 1.257 . S
O1095 Eu1075 2.326 . S
O1095 C1083 1.242 . S
O1096 Tb1074 2.324 . S
O1096 C1083 1.258 . S
O1097 Eu1075 2.500 . S
O1097 C1080 1.273 . S
O1098 Eu1075 2.473 . S
O1098 C1080 1.257 . S
H1099 C1085 0.929 . S
H1100 C1087 0.931 . S
H1101 C1089 0.929 . S
O1102 Tb1103 2.292 . S
O1102 C1105 1.255 . S
Tb1103 O1102 2.292 . S
Tb1103 O1119 2.326 . S
Tb1103 O1121 2.500 . S
Tb1103 O1122 2.473 . S
Tb1103 O1125 2.324 . S
Eu1104 O1108 2.292 . S
Eu1104 C1109 2.852 . S
Eu1104 O1120 2.324 . S
Eu1104 O1124 2.326 . S
Eu1104 O1126 2.500 . S
Eu1104 O1127 2.473 . S
C1105 O1102 1.255 . S
C1105 O1106 1.247 . S
O1106 C1105 1.247 . S
C1107 O1119 1.242 . S
C1107 O1120 1.258 . S
O1108 Eu1104 2.292 . S
O1108 C1110 1.255 . S
C1109 Eu1104 2.852 . S
C1109 C1113 1.503 . S
C1109 O1126 1.273 . S
C1109 O1127 1.257 . S
C1110 O1108 1.255 . S
C1110 O1111 1.247 . S
O1111 C1110 1.247 . S
C1112 O1124 1.242 . S
C1112 O1125 1.258 . S
C1113 C1109 1.503 . S
C1113 C1114 1.379 . S
C1113 C1118 1.392 . S
C1114 C1113 1.379 . S
C1114 C1115 1.404 . S
C1114 H1128 0.929 . S
C1115 C1114 1.404 . S
C1115 C1116 1.389 . S
C1116 C1115 1.389 . S
C1116 C1117 1.399 . S
C1116 H1129 0.931 . S
C1117 C1116 1.399 . S
C1117 C1118 1.390 . S
C1118 C1113 1.392 . S
C1118 C1117 1.390 . S
C1118 H1130 0.929 . S
O1119 Tb1103 2.326 . S
O1119 C1107 1.242 . S
O1120 Eu1104 2.324 . S
O1120 C1107 1.258 . S
O1121 Tb1103 2.500 . S
O1121 C1123 1.273 . S
O1122 Tb1103 2.473 . S
O1122 C1123 1.257 . S
C1123 O1121 1.273 . S
C1123 O1122 1.257 . S
O1124 Eu1104 2.326 . S
O1124 C1112 1.242 . S
O1125 Tb1103 2.324 . S
O1125 C1112 1.258 . S
O1126 Eu1104 2.500 . S
O1126 C1109 1.273 . S
O1127 Eu1104 2.473 . S
O1127 C1109 1.257 . S
H1128 C1114 0.929 . S
H1129 C1116 0.931 . S
H1130 C1118 0.929 . S
O1131 Tb1132 2.292 . S
O1131 C1134 1.255 . S
Tb1132 O1131 2.292 . S
Tb1132 O1148 2.326 . S
Tb1132 O1150 2.500 . S
Tb1132 O1151 2.473 . S
Tb1132 O1154 2.324 . S
Eu1133 O1137 2.292 . S
Eu1133 C1138 2.852 . S
Eu1133 O1149 2.324 . S
Eu1133 O1153 2.326 . S
Eu1133 O1155 2.500 . S
Eu1133 O1156 2.473 . S
C1134 O1131 1.255 . S
C1134 O1135 1.247 . S
O1135 C1134 1.247 . S
C1136 O1148 1.242 . S
C1136 O1149 1.258 . S
O1137 Eu1133 2.292 . S
O1137 C1139 1.255 . S
C1138 Eu1133 2.852 . S
C1138 C1142 1.503 . S
C1138 O1155 1.273 . S
C1138 O1156 1.257 . S
C1139 O1137 1.255 . S
C1139 O1140 1.247 . S
O1140 C1139 1.247 . S
C1141 O1153 1.242 . S
C1141 O1154 1.258 . S
C1142 C1138 1.503 . S
C1142 C1143 1.379 . S
C1142 C1147 1.392 . S
C1143 C1142 1.379 . S
C1143 C1144 1.404 . S
C1143 H1157 0.929 . S
C1144 C1143 1.404 . S
C1144 C1145 1.389 . S
C1145 C1144 1.389 . S
C1145 C1146 1.399 . S
C1145 H1158 0.931 . S
C1146 C1145 1.399 . S
C1146 C1147 1.390 . S
C1147 C1142 1.392 . S
C1147 C1146 1.390 . S
C1147 H1159 0.929 . S
O1148 Tb1132 2.326 . S
O1148 C1136 1.242 . S
O1149 Eu1133 2.324 . S
O1149 C1136 1.258 . S
O1150 Tb1132 2.500 . S
O1150 C1152 1.273 . S
O1151 Tb1132 2.473 . S
O1151 C1152 1.257 . S
C1152 O1150 1.273 . S
C1152 O1151 1.257 . S
O1153 Eu1133 2.326 . S
O1153 C1141 1.242 . S
O1154 Tb1132 2.324 . S
O1154 C1141 1.258 . S
O1155 Eu1133 2.500 . S
O1155 C1138 1.273 . S
O1156 Eu1133 2.473 . S
O1156 C1138 1.257 . S
H1157 C1143 0.929 . S
H1158 C1145 0.931 . S
H1159 C1147 0.929 . S
O1160 Tb1161 2.292 . S
O1160 C1163 1.255 . S
Tb1161 O1160 2.292 . S
Tb1161 O1177 2.326 . S
Tb1161 O1179 2.500 . S
Tb1161 O1180 2.473 . S
Tb1161 O1183 2.324 . S
Eu1162 O1166 2.292 . S
Eu1162 C1167 2.852 . S
Eu1162 O1178 2.324 . S
Eu1162 O1182 2.326 . S
Eu1162 O1184 2.500 . S
Eu1162 O1185 2.473 . S
C1163 O1160 1.255 . S
C1163 O1164 1.247 . S
O1164 C1163 1.247 . S
C1165 O1177 1.242 . S
C1165 O1178 1.258 . S
O1166 Eu1162 2.292 . S
O1166 C1168 1.255 . S
C1167 Eu1162 2.852 . S
C1167 C1171 1.503 . S
C1167 O1184 1.273 . S
C1167 O1185 1.257 . S
C1168 O1166 1.255 . S
C1168 O1169 1.247 . S
O1169 C1168 1.247 . S
C1170 O1182 1.242 . S
C1170 O1183 1.258 . S
C1171 C1167 1.503 . S
C1171 C1172 1.379 . S
C1171 C1176 1.392 . S
C1172 C1171 1.379 . S
C1172 C1173 1.404 . S
C1172 H1186 0.929 . S
C1173 C1172 1.404 . S
C1173 C1174 1.389 . S
C1174 C1173 1.389 . S
C1174 C1175 1.399 . S
C1174 H1187 0.931 . S
C1175 C1174 1.399 . S
C1175 C1176 1.390 . S
C1176 C1171 1.392 . S
C1176 C1175 1.390 . S
C1176 H1188 0.929 . S
O1177 Tb1161 2.326 . S
O1177 C1165 1.242 . S
O1178 Eu1162 2.324 . S
O1178 C1165 1.258 . S
O1179 Tb1161 2.500 . S
O1179 C1181 1.273 . S
O1180 Tb1161 2.473 . S
O1180 C1181 1.257 . S
C1181 O1179 1.273 . S
C1181 O1180 1.257 . S
O1182 Eu1162 2.326 . S
O1182 C1170 1.242 . S
O1183 Tb1161 2.324 . S
O1183 C1170 1.258 . S
O1184 Eu1162 2.500 . S
O1184 C1167 1.273 . S
O1185 Eu1162 2.473 . S
O1185 C1167 1.257 . S
H1186 C1172 0.929 . S
H1187 C1174 0.931 . S
H1188 C1176 0.929 . S
O1189 Tb1190 2.292 . S
O1189 C1192 1.255 . S
Tb1190 O1189 2.292 . S
Tb1190 O1206 2.326 . S
Tb1190 O1208 2.500 . S
Tb1190 O1209 2.473 . S
Tb1190 O1212 2.324 . S
Eu1191 O1195 2.292 . S
Eu1191 C1196 2.852 . S
Eu1191 O1207 2.324 . S
Eu1191 O1211 2.326 . S
Eu1191 O1213 2.500 . S
Eu1191 O1214 2.473 . S
C1192 O1189 1.255 . S
C1192 O1193 1.247 . S
O1193 C1192 1.247 . S
C1194 O1206 1.242 . S
C1194 O1207 1.258 . S
O1195 Eu1191 2.292 . S
O1195 C1197 1.255 . S
C1196 Eu1191 2.852 . S
C1196 C1200 1.503 . S
C1196 O1213 1.273 . S
C1196 O1214 1.257 . S
C1197 O1195 1.255 . S
C1197 O1198 1.247 . S
O1198 C1197 1.247 . S
C1199 O1211 1.242 . S
C1199 O1212 1.258 . S
C1200 C1196 1.503 . S
C1200 C1201 1.379 . S
C1200 C1205 1.392 . S
C1201 C1200 1.379 . S
C1201 C1202 1.404 . S
C1201 H1215 0.929 . S
C1202 C1201 1.404 . S
C1202 C1203 1.389 . S
C1203 C1202 1.389 . S
C1203 C1204 1.399 . S
C1203 H1216 0.931 . S
C1204 C1203 1.399 . S
C1204 C1205 1.390 . S
C1205 C1200 1.392 . S
C1205 C1204 1.390 . S
C1205 H1217 0.929 . S
O1206 Tb1190 2.326 . S
O1206 C1194 1.242 . S
O1207 Eu1191 2.324 . S
O1207 C1194 1.258 . S
O1208 Tb1190 2.500 . S
O1208 C1210 1.273 . S
O1209 Tb1190 2.473 . S
O1209 C1210 1.257 . S
C1210 O1208 1.273 . S
C1210 O1209 1.257 . S
O1211 Eu1191 2.326 . S
O1211 C1199 1.242 . S
O1212 Tb1190 2.324 . S
O1212 C1199 1.258 . S
O1213 Eu1191 2.500 . S
O1213 C1196 1.273 . S
O1214 Eu1191 2.473 . S
O1214 C1196 1.257 . S
H1215 C1201 0.929 . S
H1216 C1203 0.931 . S
H1217 C1205 0.929 . S
O1218 Tb1219 2.292 . S
O1218 C1221 1.255 . S
Tb1219 O1218 2.292 . S
Tb1219 O1235 2.326 . S
Tb1219 O1237 2.500 . S
Tb1219 O1238 2.473 . S
Tb1219 O1241 2.324 . S
Eu1220 O1224 2.292 . S
Eu1220 C1225 2.852 . S
Eu1220 O1236 2.324 . S
Eu1220 O1240 2.326 . S
Eu1220 O1242 2.500 . S
Eu1220 O1243 2.473 . S
C1221 O1218 1.255 . S
C1221 O1222 1.247 . S
O1222 C1221 1.247 . S
C1223 O1235 1.242 . S
C1223 O1236 1.258 . S
O1224 Eu1220 2.292 . S
O1224 C1226 1.255 . S
C1225 Eu1220 2.852 . S
C1225 C1229 1.503 . S
C1225 O1242 1.273 . S
C1225 O1243 1.257 . S
C1226 O1224 1.255 . S
C1226 O1227 1.247 . S
O1227 C1226 1.247 . S
C1228 O1240 1.242 . S
C1228 O1241 1.258 . S
C1229 C1225 1.503 . S
C1229 C1230 1.379 . S
C1229 C1234 1.392 . S
C1230 C1229 1.379 . S
C1230 C1231 1.404 . S
C1230 H1244 0.929 . S
C1231 C1230 1.404 . S
C1231 C1232 1.389 . S
C1232 C1231 1.389 . S
C1232 C1233 1.399 . S
C1232 H1245 0.931 . S
C1233 C1232 1.399 . S
C1233 C1234 1.390 . S
C1234 C1229 1.392 . S
C1234 C1233 1.390 . S
C1234 H1246 0.929 . S
O1235 Tb1219 2.326 . S
O1235 C1223 1.242 . S
O1236 Eu1220 2.324 . S
O1236 C1223 1.258 . S
O1237 Tb1219 2.500 . S
O1237 C1239 1.273 . S
O1238 Tb1219 2.473 . S
O1238 C1239 1.257 . S
C1239 O1237 1.273 . S
C1239 O1238 1.257 . S
O1240 Eu1220 2.326 . S
O1240 C1228 1.242 . S
O1241 Tb1219 2.324 . S
O1241 C1228 1.258 . S
O1242 Eu1220 2.500 . S
O1242 C1225 1.273 . S
O1243 Eu1220 2.473 . S
O1243 C1225 1.257 . S
H1244 C1230 0.929 . S
H1245 C1232 0.931 . S
H1246 C1234 0.929 . S
O1247 Tb1248 2.292 . S
O1247 C1250 1.255 . S
Tb1248 O1247 2.292 . S
Tb1248 O1264 2.326 . S
Tb1248 O1266 2.500 . S
Tb1248 O1267 2.473 . S
Tb1248 O1270 2.324 . S
Eu1249 O1253 2.292 . S
Eu1249 C1254 2.852 . S
Eu1249 O1265 2.324 . S
Eu1249 O1269 2.326 . S
Eu1249 O1271 2.500 . S
Eu1249 O1272 2.473 . S
C1250 O1247 1.255 . S
C1250 O1251 1.247 . S
O1251 C1250 1.247 . S
C1252 O1264 1.242 . S
C1252 O1265 1.258 . S
O1253 Eu1249 2.292 . S
O1253 C1255 1.255 . S
C1254 Eu1249 2.852 . S
C1254 C1258 1.503 . S
C1254 O1271 1.273 . S
C1254 O1272 1.257 . S
C1255 O1253 1.255 . S
C1255 O1256 1.247 . S
O1256 C1255 1.247 . S
C1257 O1269 1.242 . S
C1257 O1270 1.258 . S
C1258 C1254 1.503 . S
C1258 C1259 1.379 . S
C1258 C1263 1.392 . S
C1259 C1258 1.379 . S
C1259 C1260 1.404 . S
C1259 H1273 0.929 . S
C1260 C1259 1.404 . S
C1260 C1261 1.389 . S
C1261 C1260 1.389 . S
C1261 C1262 1.399 . S
C1261 H1274 0.931 . S
C1262 C1261 1.399 . S
C1262 C1263 1.390 . S
C1263 C1258 1.392 . S
C1263 C1262 1.390 . S
C1263 H1275 0.929 . S
O1264 Tb1248 2.326 . S
O1264 C1252 1.242 . S
O1265 Eu1249 2.324 . S
O1265 C1252 1.258 . S
O1266 Tb1248 2.500 . S
O1266 C1268 1.273 . S
O1267 Tb1248 2.473 . S
O1267 C1268 1.257 . S
C1268 O1266 1.273 . S
C1268 O1267 1.257 . S
O1269 Eu1249 2.326 . S
O1269 C1257 1.242 . S
O1270 Tb1248 2.324 . S
O1270 C1257 1.258 . S
O1271 Eu1249 2.500 . S
O1271 C1254 1.273 . S
O1272 Eu1249 2.473 . S
O1272 C1254 1.257 . S
H1273 C1259 0.929 . S
H1274 C1261 0.931 . S
H1275 C1263 0.929 . S
O1276 Tb1277 2.292 . S
O1276 C1279 1.255 . S
Tb1277 O1276 2.292 . S
Tb1277 O1293 2.326 . S
Tb1277 O1295 2.500 . S
Tb1277 O1296 2.473 . S
Tb1277 O1299 2.324 . S
Eu1278 O1282 2.292 . S
Eu1278 C1283 2.852 . S
Eu1278 O1294 2.324 . S
Eu1278 O1298 2.326 . S
Eu1278 O1300 2.500 . S
Eu1278 O1301 2.473 . S
C1279 O1276 1.255 . S
C1279 O1280 1.247 . S
O1280 C1279 1.247 . S
C1281 O1293 1.242 . S
C1281 O1294 1.258 . S
O1282 Eu1278 2.292 . S
O1282 C1284 1.255 . S
C1283 Eu1278 2.852 . S
C1283 C1287 1.503 . S
C1283 O1300 1.273 . S
C1283 O1301 1.257 . S
C1284 O1282 1.255 . S
C1284 O1285 1.247 . S
O1285 C1284 1.247 . S
C1286 O1298 1.242 . S
C1286 O1299 1.258 . S
C1287 C1283 1.503 . S
C1287 C1288 1.379 . S
C1287 C1292 1.392 . S
C1288 C1287 1.379 . S
C1288 C1289 1.404 . S
C1288 H1302 0.929 . S
C1289 C1288 1.404 . S
C1289 C1290 1.389 . S
C1290 C1289 1.389 . S
C1290 C1291 1.399 . S
C1290 H1303 0.931 . S
C1291 C1290 1.399 . S
C1291 C1292 1.390 . S
C1292 C1287 1.392 . S
C1292 C1291 1.390 . S
C1292 H1304 0.929 . S
O1293 Tb1277 2.326 . S
O1293 C1281 1.242 . S
O1294 Eu1278 2.324 . S
O1294 C1281 1.258 . S
O1295 Tb1277 2.500 . S
O1295 C1297 1.273 . S
O1296 Tb1277 2.473 . S
O1296 C1297 1.257 . S
C1297 O1295 1.273 . S
C1297 O1296 1.257 . S
O1298 Eu1278 2.326 . S
O1298 C1286 1.242 . S
O1299 Tb1277 2.324 . S
O1299 C1286 1.258 . S
O1300 Eu1278 2.500 . S
O1300 C1283 1.273 . S
O1301 Eu1278 2.473 . S
O1301 C1283 1.257 . S
H1302 C1288 0.929 . S
H1303 C1290 0.931 . S
H1304 C1292 0.929 . S
O1305 Tb1306 2.292 . S
O1305 C1308 1.255 . S
Tb1306 O1305 2.292 . S
Tb1306 O1322 2.326 . S
Tb1306 O1324 2.500 . S
Tb1306 O1325 2.473 . S
Tb1306 O1328 2.324 . S
Eu1307 O1311 2.292 . S
Eu1307 C1312 2.852 . S
Eu1307 O1323 2.324 . S
Eu1307 O1327 2.326 . S
Eu1307 O1329 2.500 . S
Eu1307 O1330 2.473 . S
C1308 O1305 1.255 . S
C1308 O1309 1.247 . S
O1309 C1308 1.247 . S
C1310 O1322 1.242 . S
C1310 O1323 1.258 . S
O1311 Eu1307 2.292 . S
O1311 C1313 1.255 . S
C1312 Eu1307 2.852 . S
C1312 C1316 1.503 . S
C1312 O1329 1.273 . S
C1312 O1330 1.257 . S
C1313 O1311 1.255 . S
C1313 O1314 1.247 . S
O1314 C1313 1.247 . S
C1315 O1327 1.242 . S
C1315 O1328 1.258 . S
C1316 C1312 1.503 . S
C1316 C1317 1.379 . S
C1316 C1321 1.392 . S
C1317 C1316 1.379 . S
C1317 C1318 1.404 . S
C1317 H1331 0.929 . S
C1318 C1317 1.404 . S
C1318 C1319 1.389 . S
C1319 C1318 1.389 . S
C1319 C1320 1.399 . S
C1319 H1332 0.931 . S
C1320 C1319 1.399 . S
C1320 C1321 1.390 . S
C1321 C1316 1.392 . S
C1321 C1320 1.390 . S
C1321 H1333 0.929 . S
O1322 Tb1306 2.326 . S
O1322 C1310 1.242 . S
O1323 Eu1307 2.324 . S
O1323 C1310 1.258 . S
O1324 Tb1306 2.500 . S
O1324 C1326 1.273 . S
O1325 Tb1306 2.473 . S
O1325 C1326 1.257 . S
C1326 O1324 1.273 . S
C1326 O1325 1.257 . S
O1327 Eu1307 2.326 . S
O1327 C1315 1.242 . S
O1328 Tb1306 2.324 . S
O1328 C1315 1.258 . S
O1329 Eu1307 2.500 . S
O1329 C1312 1.273 . S
O1330 Eu1307 2.473 . S
O1330 C1312 1.257 . S
H1331 C1317 0.929 . S
H1332 C1319 0.931 . S
H1333 C1321 0.929 . S
O1334 Tb1335 2.292 . S
O1334 C1337 1.255 . S
Tb1335 O1334 2.292 . S
Tb1335 O1351 2.326 . S
Tb1335 O1353 2.500 . S
Tb1335 O1354 2.473 . S
Tb1335 O1357 2.324 . S
Eu1336 O1340 2.292 . S
Eu1336 C1341 2.852 . S
Eu1336 O1352 2.324 . S
Eu1336 O1356 2.326 . S
Eu1336 O1358 2.500 . S
Eu1336 O1359 2.473 . S
C1337 O1334 1.255 . S
C1337 O1338 1.247 . S
O1338 C1337 1.247 . S
C1339 O1351 1.242 . S
C1339 O1352 1.258 . S
O1340 Eu1336 2.292 . S
O1340 C1342 1.255 . S
C1341 Eu1336 2.852 . S
C1341 C1345 1.503 . S
C1341 O1358 1.273 . S
C1341 O1359 1.257 . S
C1342 O1340 1.255 . S
C1342 O1343 1.247 . S
O1343 C1342 1.247 . S
C1344 O1356 1.242 . S
C1344 O1357 1.258 . S
C1345 C1341 1.503 . S
C1345 C1346 1.379 . S
C1345 C1350 1.392 . S
C1346 C1345 1.379 . S
C1346 C1347 1.404 . S
C1346 H1360 0.929 . S
C1347 C1346 1.404 . S
C1347 C1348 1.389 . S
C1348 C1347 1.389 . S
C1348 C1349 1.399 . S
C1348 H1361 0.931 . S
C1349 C1348 1.399 . S
C1349 C1350 1.390 . S
C1350 C1345 1.392 . S
C1350 C1349 1.390 . S
C1350 H1362 0.929 . S
O1351 Tb1335 2.326 . S
O1351 C1339 1.242 . S
O1352 Eu1336 2.324 . S
O1352 C1339 1.258 . S
O1353 Tb1335 2.500 . S
O1353 C1355 1.273 . S
O1354 Tb1335 2.473 . S
O1354 C1355 1.257 . S
C1355 O1353 1.273 . S
C1355 O1354 1.257 . S
O1356 Eu1336 2.326 . S
O1356 C1344 1.242 . S
O1357 Tb1335 2.324 . S
O1357 C1344 1.258 . S
O1358 Eu1336 2.500 . S
O1358 C1341 1.273 . S
O1359 Eu1336 2.473 . S
O1359 C1341 1.257 . S
H1360 C1346 0.929 . S
H1361 C1348 0.931 . S
H1362 C1350 0.929 . S
O1363 Tb1364 2.292 . S
O1363 C1366 1.255 . S
Tb1364 O1363 2.292 . S
Tb1364 O1380 2.326 . S
Tb1364 O1382 2.500 . S
Tb1364 O1383 2.473 . S
Tb1364 O1386 2.324 . S
Eu1365 O1369 2.292 . S
Eu1365 C1370 2.852 . S
Eu1365 O1381 2.324 . S
Eu1365 O1385 2.326 . S
Eu1365 O1387 2.500 . S
Eu1365 O1388 2.473 . S
C1366 O1363 1.255 . S
C1366 O1367 1.247 . S
O1367 C1366 1.247 . S
C1368 O1380 1.242 . S
C1368 O1381 1.258 . S
O1369 Eu1365 2.292 . S
O1369 C1371 1.255 . S
C1370 Eu1365 2.852 . S
C1370 C1374 1.503 . S
C1370 O1387 1.273 . S
C1370 O1388 1.257 . S
C1371 O1369 1.255 . S
C1371 O1372 1.247 . S
O1372 C1371 1.247 . S
C1373 O1385 1.242 . S
C1373 O1386 1.258 . S
C1374 C1370 1.503 . S
C1374 C1375 1.379 . S
C1374 C1379 1.392 . S
C1375 C1374 1.379 . S
C1375 C1376 1.404 . S
C1375 H1389 0.929 . S
C1376 C1375 1.404 . S
C1376 C1377 1.389 . S
C1377 C1376 1.389 . S
C1377 C1378 1.399 . S
C1377 H1390 0.931 . S
C1378 C1377 1.399 . S
C1378 C1379 1.390 . S
C1379 C1374 1.392 . S
C1379 C1378 1.390 . S
C1379 H1391 0.929 . S
O1380 Tb1364 2.326 . S
O1380 C1368 1.242 . S
O1381 Eu1365 2.324 . S
O1381 C1368 1.258 . S
O1382 Tb1364 2.500 . S
O1382 C1384 1.273 . S
O1383 Tb1364 2.473 . S
O1383 C1384 1.257 . S
C1384 O1382 1.273 . S
C1384 O1383 1.257 . S
O1385 Eu1365 2.326 . S
O1385 C1373 1.242 . S
O1386 Tb1364 2.324 . S
O1386 C1373 1.258 . S
O1387 Eu1365 2.500 . S
O1387 C1370 1.273 . S
O1388 Eu1365 2.473 . S
O1388 C1370 1.257 . S
H1389 C1375 0.929 . S
H1390 C1377 0.931 . S
H1391 C1379 0.929 . S
H1392 C1398 0.930 . S
H1393 C1402 0.930 . S
H1394 C1407 0.929 . S
H1395 C1405 0.929 . S
H1396 C1400 0.929 . S
H1397 C1406 0.929 . S
C1398 H1392 0.930 . S
C1398 C1399 1.367 . S
C1398 C1406 1.378 . S
C1399 C1398 1.367 . S
C1399 C1407 1.433 . S
C1400 H1396 0.929 . S
C1400 C1402 1.378 . S
C1400 C1404 1.350 . S
C1401 C1404 1.463 . S
C1401 C1406 1.350 . S
C1401 N1409 1.427 . S
C1402 H1393 0.930 . S
C1402 C1400 1.378 . S
C1402 C1403 1.367 . S
C1403 C1402 1.367 . S
C1403 C1405 1.433 . S
C1404 C1400 1.350 . S
C1404 C1401 1.463 . S
C1404 N1408 1.427 . S
C1405 H1395 0.929 . S
C1405 C1403 1.433 . S
C1405 N1408 1.384 . S
C1406 H1397 0.929 . S
C1406 C1398 1.378 . S
C1406 C1401 1.350 . S
C1407 H1394 0.929 . S
C1407 C1399 1.433 . S
C1407 N1409 1.384 . S
N1408 C1404 1.427 . S
N1408 C1405 1.384 . S
N1409 C1401 1.427 . S
N1409 C1407 1.384 . S
H1410 C1416 0.930 . S
H1411 C1420 0.930 . S
H1412 C1425 0.929 . S
H1413 C1423 0.929 . S
H1414 C1418 0.929 . S
H1415 C1424 0.929 . S
C1416 H1410 0.930 . S
C1416 C1417 1.367 . S
C1416 C1424 1.378 . S
C1417 C1416 1.367 . S
C1417 C1425 1.433 . S
C1418 H1414 0.929 . S
C1418 C1420 1.378 . S
C1418 C1422 1.350 . S
C1419 C1422 1.463 . S
C1419 C1424 1.350 . S
C1419 N1427 1.427 . S
C1420 H1411 0.930 . S
C1420 C1418 1.378 . S
C1420 C1421 1.367 . S
C1421 C1420 1.367 . S
C1421 C1423 1.433 . S
C1422 C1418 1.350 . S
C1422 C1419 1.463 . S
C1422 N1426 1.427 . S
C1423 H1413 0.929 . S
C1423 C1421 1.433 . S
C1423 N1426 1.384 . S
C1424 H1415 0.929 . S
C1424 C1416 1.378 . S
C1424 C1419 1.350 . S
C1425 H1412 0.929 . S
C1425 C1417 1.433 . S
C1425 N1427 1.384 . S
N1426 C1422 1.427 . S
N1426 C1423 1.384 . S
N1427 C1419 1.427 . S
N1427 C1425 1.384 . S
H1428 C1434 0.930 . S
H1429 C1438 0.930 . S
H1430 C1443 0.929 . S
H1431 C1441 0.929 . S
H1432 C1436 0.929 . S
H1433 C1442 0.929 . S
C1434 H1428 0.930 . S
C1434 C1435 1.367 . S
C1434 C1442 1.378 . S
C1435 C1434 1.367 . S
C1435 C1443 1.433 . S
C1436 H1432 0.929 . S
C1436 C1438 1.378 . S
C1436 C1440 1.350 . S
C1437 C1440 1.463 . S
C1437 C1442 1.350 . S
C1437 N1445 1.427 . S
C1438 H1429 0.930 . S
C1438 C1436 1.378 . S
C1438 C1439 1.367 . S
C1439 C1438 1.367 . S
C1439 C1441 1.433 . S
C1440 C1436 1.350 . S
C1440 C1437 1.463 . S
C1440 N1444 1.427 . S
C1441 H1431 0.929 . S
C1441 C1439 1.433 . S
C1441 N1444 1.384 . S
C1442 H1433 0.929 . S
C1442 C1434 1.378 . S
C1442 C1437 1.350 . S
C1443 H1430 0.929 . S
C1443 C1435 1.433 . S
C1443 N1445 1.384 . S
N1444 C1440 1.427 . S
N1444 C1441 1.384 . S
N1445 C1437 1.427 . S
N1445 C1443 1.384 . S
H1446 C1452 0.930 . S
H1447 C1456 0.930 . S
H1448 C1461 0.929 . S
H1449 C1459 0.929 . S
H1450 C1454 0.929 . S
H1451 C1460 0.929 . S
C1452 H1446 0.930 . S
C1452 C1453 1.367 . S
C1452 C1460 1.378 . S
C1453 C1452 1.367 . S
C1453 C1461 1.433 . S
C1454 H1450 0.929 . S
C1454 C1456 1.378 . S
C1454 C1458 1.350 . S
C1455 C1458 1.463 . S
C1455 C1460 1.350 . S
C1455 N1463 1.427 . S
C1456 H1447 0.930 . S
C1456 C1454 1.378 . S
C1456 C1457 1.367 . S
C1457 C1456 1.367 . S
C1457 C1459 1.433 . S
C1458 C1454 1.350 . S
C1458 C1455 1.463 . S
C1458 N1462 1.427 . S
C1459 H1449 0.929 . S
C1459 C1457 1.433 . S
C1459 N1462 1.384 . S
C1460 H1451 0.929 . S
C1460 C1452 1.378 . S
C1460 C1455 1.350 . S
C1461 H1448 0.929 . S
C1461 C1453 1.433 . S
C1461 N1463 1.384 . S
N1462 C1458 1.427 . S
N1462 C1459 1.384 . S
N1463 C1455 1.427 . S
N1463 C1461 1.384 . S
H1464 C1470 0.930 . S
H1465 C1474 0.930 . S
H1466 C1479 0.929 . S
H1467 C1477 0.929 . S
H1468 C1472 0.929 . S
H1469 C1478 0.929 . S
C1470 H1464 0.930 . S
C1470 C1471 1.367 . S
C1470 C1478 1.378 . S
C1471 C1470 1.367 . S
C1471 C1479 1.433 . S
C1472 H1468 0.929 . S
C1472 C1474 1.378 . S
C1472 C1476 1.350 . S
C1473 C1476 1.463 . S
C1473 C1478 1.350 . S
C1473 N1481 1.427 . S
C1474 H1465 0.930 . S
C1474 C1472 1.378 . S
C1474 C1475 1.367 . S
C1475 C1474 1.367 . S
C1475 C1477 1.433 . S
C1476 C1472 1.350 . S
C1476 C1473 1.463 . S
C1476 N1480 1.427 . S
C1477 H1467 0.929 . S
C1477 C1475 1.433 . S
C1477 N1480 1.384 . S
C1478 H1469 0.929 . S
C1478 C1470 1.378 . S
C1478 C1473 1.350 . S
C1479 H1466 0.929 . S
C1479 C1471 1.433 . S
C1479 N1481 1.384 . S
N1480 C1476 1.427 . S
N1480 C1477 1.384 . S
N1481 C1473 1.427 . S
N1481 C1479 1.384 . S
H1482 C1488 0.930 . S
H1483 C1492 0.930 . S
H1484 C1497 0.929 . S
H1485 C1495 0.929 . S
H1486 C1490 0.929 . S
H1487 C1496 0.929 . S
C1488 H1482 0.930 . S
C1488 C1489 1.367 . S
C1488 C1496 1.378 . S
C1489 C1488 1.367 . S
C1489 C1497 1.433 . S
C1490 H1486 0.929 . S
C1490 C1492 1.378 . S
C1490 C1494 1.350 . S
C1491 C1494 1.463 . S
C1491 C1496 1.350 1_455 S
C1491 N1499 1.427 . S
C1492 H1483 0.930 . S
C1492 C1490 1.378 . S
C1492 C1493 1.367 . S
C1493 C1492 1.367 . S
C1493 C1495 1.433 . S
C1494 C1490 1.350 . S
C1494 C1491 1.463 . S
C1494 N1498 1.427 . S
C1495 H1485 0.929 . S
C1495 C1493 1.433 . S
C1495 N1498 1.384 . S
C1496 H1487 0.929 . S
C1496 C1488 1.378 . S
C1496 C1491 1.350 1_655 S
C1497 H1484 0.929 . S
C1497 C1489 1.433 . S
C1497 N1499 1.384 1_655 S
N1498 C1494 1.427 . S
N1498 C1495 1.384 . S
N1499 C1491 1.427 . S
N1499 C1497 1.384 1_455 S
H1500 C1506 0.930 . S
H1501 C1510 0.930 . S
H1502 C1515 0.929 . S
H1503 C1513 0.929 . S
H1504 C1508 0.929 . S
H1505 C1514 0.929 . S
C1506 H1500 0.930 . S
C1506 C1507 1.367 . S
C1506 C1514 1.378 . S
C1507 C1506 1.367 . S
C1507 C1515 1.433 . S
C1508 H1504 0.929 . S
C1508 C1510 1.378 . S
C1508 C1512 1.350 . S
C1509 C1512 1.463 . S
C1509 C1514 1.350 . S
C1509 N1517 1.427 . S
C1510 H1501 0.930 . S
C1510 C1508 1.378 . S
C1510 C1511 1.367 . S
C1511 C1510 1.367 . S
C1511 C1513 1.433 . S
C1512 C1508 1.350 . S
C1512 C1509 1.463 . S
C1512 N1516 1.427 . S
C1513 H1503 0.929 . S
C1513 C1511 1.433 . S
C1513 N1516 1.384 . S
C1514 H1505 0.929 . S
C1514 C1506 1.378 . S
C1514 C1509 1.350 . S
C1515 H1502 0.929 . S
C1515 C1507 1.433 . S
C1515 N1517 1.384 . S
N1516 C1512 1.427 . S
N1516 C1513 1.384 . S
N1517 C1509 1.427 . S
N1517 C1515 1.384 . S
H1518 C1524 0.930 . S
H1519 C1528 0.930 . S
H1520 C1533 0.929 . S
H1521 C1531 0.929 . S
H1522 C1526 0.929 . S
H1523 C1532 0.929 . S
C1524 H1518 0.930 . S
C1524 C1525 1.367 . S
C1524 C1532 1.378 . S
C1525 C1524 1.367 . S
C1525 C1533 1.433 . S
C1526 H1522 0.929 . S
C1526 C1528 1.378 . S
C1526 C1530 1.350 1_455 S
C1527 C1530 1.463 . S
C1527 C1532 1.350 . S
C1527 N1535 1.427 . S
C1528 H1519 0.930 . S
C1528 C1526 1.378 . S
C1528 C1529 1.367 . S
C1529 C1528 1.367 . S
C1529 C1531 1.433 . S
C1530 C1526 1.350 1_655 S
C1530 C1527 1.463 . S
C1530 N1534 1.427 . S
C1531 H1521 0.929 . S
C1531 C1529 1.433 . S
C1531 N1534 1.384 1_455 S
C1532 H1523 0.929 . S
C1532 C1524 1.378 . S
C1532 C1527 1.350 . S
C1533 H1520 0.929 . S
C1533 C1525 1.433 . S
C1533 N1535 1.384 . S
N1534 C1530 1.427 . S
N1534 C1531 1.384 1_655 S
N1535 C1527 1.427 . S
N1535 C1533 1.384 . S
H1536 C1542 0.930 . S
H1537 C1546 0.930 . S
H1538 C1551 0.929 . S
H1539 C1549 0.929 . S
H1540 C1544 0.929 . S
H1541 C1550 0.929 . S
C1542 H1536 0.930 . S
C1542 C1543 1.367 . S
C1542 C1550 1.378 . S
C1543 C1542 1.367 . S
C1543 C1551 1.433 . S
C1544 H1540 0.929 . S
C1544 C1546 1.378 . S
C1544 C1548 1.350 . S
C1545 C1548 1.463 . S
C1545 C1550 1.350 . S
C1545 N1553 1.427 . S
C1546 H1537 0.930 . S
C1546 C1544 1.378 . S
C1546 C1547 1.367 . S
C1547 C1546 1.367 . S
C1547 C1549 1.433 . S
C1548 C1544 1.350 . S
C1548 C1545 1.463 . S
C1548 N1552 1.427 . S
C1549 H1539 0.929 . S
C1549 C1547 1.433 . S
C1549 N1552 1.384 . S
C1550 H1541 0.929 . S
C1550 C1542 1.378 . S
C1550 C1545 1.350 . S
C1551 H1538 0.929 . S
C1551 C1543 1.433 . S
C1551 N1553 1.384 . S
N1552 C1548 1.427 . S
N1552 C1549 1.384 . S
N1553 C1545 1.427 . S
N1553 C1551 1.384 . S
H1554 C1560 0.930 . S
H1555 C1564 0.930 . S
H1556 C1569 0.929 . S
H1557 C1567 0.929 . S
H1558 C1562 0.929 . S
H1559 C1568 0.929 . S
C1560 H1554 0.930 . S
C1560 C1561 1.367 . S
C1560 C1568 1.378 . S
C1561 C1560 1.367 . S
C1561 C1569 1.433 . S
C1562 H1558 0.929 . S
C1562 C1564 1.378 . S
C1562 C1566 1.350 1_556 S
C1563 C1566 1.463 . S
C1563 C1568 1.350 . S
C1563 N1571 1.427 . S
C1564 H1555 0.930 . S
C1564 C1562 1.378 . S
C1564 C1565 1.367 . S
C1565 C1564 1.367 . S
C1565 C1567 1.433 . S
C1566 C1562 1.350 1_554 S
C1566 C1563 1.463 . S
C1566 N1570 1.427 . S
C1567 H1557 0.929 . S
C1567 C1565 1.433 . S
C1567 N1570 1.384 1_556 S
C1568 H1559 0.929 . S
C1568 C1560 1.378 . S
C1568 C1563 1.350 . S
C1569 H1556 0.929 . S
C1569 C1561 1.433 . S
C1569 N1571 1.384 . S
N1570 C1566 1.427 . S
N1570 C1567 1.384 1_554 S
N1571 C1563 1.427 . S
N1571 C1569 1.384 . S
H1572 C1578 0.930 . S
H1573 C1582 0.930 . S
H1574 C1587 0.929 . S
H1575 C1585 0.929 . S
H1576 C1580 0.929 . S
H1577 C1586 0.929 . S
C1578 H1572 0.930 . S
C1578 C1579 1.367 . S
C1578 C1586 1.378 . S
C1579 C1578 1.367 . S
C1579 C1587 1.433 . S
C1580 H1576 0.929 . S
C1580 C1582 1.378 . S
C1580 C1584 1.350 . S
C1581 C1584 1.463 . S
C1581 C1586 1.350 . S
C1581 N1589 1.427 . S
C1582 H1573 0.930 . S
C1582 C1580 1.378 . S
C1582 C1583 1.367 . S
C1583 C1582 1.367 . S
C1583 C1585 1.433 . S
C1584 C1580 1.350 . S
C1584 C1581 1.463 . S
C1584 N1588 1.427 . S
C1585 H1575 0.929 . S
C1585 C1583 1.433 . S
C1585 N1588 1.384 . S
C1586 H1577 0.929 . S
C1586 C1578 1.378 . S
C1586 C1581 1.350 . S
C1587 H1574 0.929 . S
C1587 C1579 1.433 . S
C1587 N1589 1.384 . S
N1588 C1584 1.427 . S
N1588 C1585 1.384 . S
N1589 C1581 1.427 . S
N1589 C1587 1.384 . S
H1590 C1596 0.930 . S
H1591 C1600 0.930 . S
H1592 C1605 0.929 . S
H1593 C1603 0.929 . S
H1594 C1598 0.929 . S
H1595 C1604 0.929 . S
C1596 H1590 0.930 . S
C1596 C1597 1.367 . S
C1596 C1604 1.378 . S
C1597 C1596 1.367 . S
C1597 C1605 1.433 . S
C1598 H1594 0.929 . S
C1598 C1600 1.378 . S
C1598 C1602 1.350 . S
C1599 C1602 1.463 . S
C1599 C1604 1.350 1_554 S
C1599 N1607 1.432 . S
C1600 H1591 0.930 . S
C1600 C1598 1.378 . S
C1600 C1601 1.367 . S
C1601 C1600 1.367 . S
C1601 C1603 1.433 . S
C1602 C1598 1.350 . S
C1602 C1599 1.463 . S
C1602 N1606 1.427 . S
C1603 H1593 0.929 . S
C1603 C1601 1.433 . S
C1603 N1606 1.384 . S
C1604 H1595 0.929 . S
C1604 C1596 1.378 . S
C1604 C1599 1.350 1_556 S
C1605 H1592 0.929 . S
C1605 C1597 1.433 . S
C1605 N1607 1.367 1_556 S
N1606 C1602 1.427 . S
N1606 C1603 1.384 . S
N1607 C1599 1.432 . S
N1607 C1605 1.367 1_554 S
H1608 C1614 0.930 . S
H1609 C1618 0.930 . S
H1610 C1623 0.929 . S
H1611 C1621 0.929 . S
H1612 C1616 0.929 . S
H1613 C1622 0.929 . S
C1614 H1608 0.930 . S
C1614 C1615 1.367 . S
C1614 C1622 1.378 . S
C1615 C1614 1.367 . S
C1615 C1623 1.433 . S
C1616 H1612 0.929 . S
C1616 C1618 1.378 . S
C1616 C1620 1.350 . S
C1617 C1620 1.463 . S
C1617 C1622 1.350 . S
C1617 N1625 1.427 . S
C1618 H1609 0.930 . S
C1618 C1616 1.378 . S
C1618 C1619 1.367 . S
C1619 C1618 1.367 . S
C1619 C1621 1.433 . S
C1620 C1616 1.350 . S
C1620 C1617 1.463 . S
C1620 N1624 1.427 . S
C1621 H1611 0.929 . S
C1621 C1619 1.433 . S
C1621 N1624 1.384 . S
C1622 H1613 0.929 . S
C1622 C1614 1.378 . S
C1622 C1617 1.350 . S
C1623 H1610 0.929 . S
C1623 C1615 1.433 . S
C1623 N1625 1.384 . S
N1624 C1620 1.427 . S
N1624 C1621 1.384 . S
N1625 C1617 1.427 . S
N1625 C1623 1.384 . S
H1626 C1632 0.930 . S
H1627 C1636 0.930 . S
H1628 C1641 0.929 . S
H1629 C1639 0.929 . S
H1630 C1634 0.929 . S
H1631 C1640 0.929 . S
C1632 H1626 0.930 . S
C1632 C1633 1.367 . S
C1632 C1640 1.378 . S
C1633 C1632 1.367 . S
C1633 C1641 1.433 . S
C1634 H1630 0.929 . S
C1634 C1636 1.378 . S
C1634 C1638 1.350 1_554 S
C1635 C1638 1.463 . S
C1635 C1640 1.350 . S
C1635 N1643 1.427 . S
C1636 H1627 0.930 . S
C1636 C1634 1.378 . S
C1636 C1637 1.367 . S
C1637 C1636 1.367 . S
C1637 C1639 1.433 . S
C1638 C1634 1.350 1_556 S
C1638 C1635 1.463 . S
C1638 N1642 1.427 . S
C1639 H1629 0.929 . S
C1639 C1637 1.433 . S
C1639 N1642 1.384 1_554 S
C1640 H1631 0.929 . S
C1640 C1632 1.378 . S
C1640 C1635 1.350 . S
C1641 H1628 0.929 . S
C1641 C1633 1.433 . S
C1641 N1643 1.384 . S
N1642 C1638 1.427 . S
N1642 C1639 1.384 1_556 S
N1643 C1635 1.427 . S
N1643 C1641 1.384 . S
H1644 C1650 0.930 . S
H1645 C1654 0.930 . S
H1646 C1659 0.929 . S
H1647 C1657 0.929 . S
H1648 C1652 0.929 . S
H1649 C1658 0.929 . S
C1650 H1644 0.930 . S
C1650 C1651 1.367 . S
C1650 C1658 1.378 . S
C1651 C1650 1.367 . S
C1651 C1659 1.433 . S
C1652 H1648 0.929 . S
C1652 C1654 1.378 . S
C1652 C1656 1.350 . S
C1653 C1656 1.463 . S
C1653 C1658 1.350 . S
C1653 N1661 1.427 . S
C1654 H1645 0.930 . S
C1654 C1652 1.378 . S
C1654 C1655 1.367 . S
C1655 C1654 1.367 . S
C1655 C1657 1.433 . S
C1656 C1652 1.350 . S
C1656 C1653 1.463 . S
C1656 N1660 1.427 . S
C1657 H1647 0.929 . S
C1657 C1655 1.433 . S
C1657 N1660 1.384 . S
C1658 H1649 0.929 . S
C1658 C1650 1.378 . S
C1658 C1653 1.350 . S
C1659 H1646 0.929 . S
C1659 C1651 1.433 . S
C1659 N1661 1.384 . S
N1660 C1656 1.427 . S
N1660 C1657 1.384 . S
N1661 C1653 1.427 . S
N1661 C1659 1.384 . S
H1662 C1668 0.930 . S
H1663 C1672 0.930 . S
H1664 C1677 0.929 . S
H1665 C1675 0.929 . S
H1666 C1670 0.929 . S
H1667 C1676 0.929 . S
C1668 H1662 0.930 . S
C1668 C1669 1.367 . S
C1668 C1676 1.378 . S
C1669 C1668 1.367 . S
C1669 C1677 1.433 . S
C1670 H1666 0.929 . S
C1670 C1672 1.378 . S
C1670 C1674 1.350 . S
C1671 C1674 1.463 . S
C1671 C1676 1.350 1_556 S
C1671 N1679 1.427 . S
C1672 H1663 0.930 . S
C1672 C1670 1.378 . S
C1672 C1673 1.367 . S
C1673 C1672 1.367 . S
C1673 C1675 1.433 . S
C1674 C1670 1.350 . S
C1674 C1671 1.463 . S
C1674 N1678 1.427 . S
C1675 H1665 0.929 . S
C1675 C1673 1.433 . S
C1675 N1678 1.384 . S
C1676 H1667 0.929 . S
C1676 C1668 1.378 . S
C1676 C1671 1.350 1_554 S
C1677 H1664 0.929 . S
C1677 C1669 1.433 . S
C1677 N1679 1.384 1_554 S
N1678 C1674 1.427 . S
N1678 C1675 1.384 . S
N1679 C1671 1.427 . S
N1679 C1677 1.384 1_556 S
H1680 C1686 0.930 . S
H1681 C1690 0.930 . S
H1682 C1695 0.929 . S
H1683 C1693 0.929 . S
H1684 C1688 0.929 . S
H1685 C1694 0.929 . S
C1686 H1680 0.930 . S
C1686 C1687 1.367 . S
C1686 C1694 1.378 . S
C1687 C1686 1.367 . S
C1687 C1695 1.433 . S
C1688 H1684 0.929 . S
C1688 C1690 1.378 . S
C1688 C1692 1.350 . S
C1689 C1692 1.463 . S
C1689 C1694 1.350 . S
C1689 N1697 1.427 . S
C1690 H1681 0.930 . S
C1690 C1688 1.378 . S
C1690 C1691 1.367 . S
C1691 C1690 1.367 . S
C1691 C1693 1.433 . S
C1692 C1688 1.350 . S
C1692 C1689 1.463 . S
C1692 N1696 1.427 . S
C1693 H1683 0.929 . S
C1693 C1691 1.433 . S
C1693 N1696 1.384 . S
C1694 H1685 0.929 . S
C1694 C1686 1.378 . S
C1694 C1689 1.350 . S
C1695 H1682 0.929 . S
C1695 C1687 1.433 . S
C1695 N1697 1.384 . S
N1696 C1692 1.427 . S
N1696 C1693 1.384 . S
N1697 C1689 1.427 . S
N1697 C1695 1.384 . S
H1698 C1704 0.930 . S
H1699 C1708 0.930 . S
H1700 C1713 0.929 . S
H1701 C1711 0.929 . S
H1702 C1706 0.929 . S
H1703 C1712 0.929 . S
C1704 H1698 0.930 . S
C1704 C1705 1.367 . S
C1704 C1712 1.378 . S
C1705 C1704 1.367 . S
C1705 C1713 1.433 . S
C1706 H1702 0.929 . S
C1706 C1708 1.378 . S
C1706 C1710 1.350 . S
C1707 C1710 1.463 . S
C1707 C1712 1.350 . S
C1707 N1715 1.427 . S
C1708 H1699 0.930 . S
C1708 C1706 1.378 . S
C1708 C1709 1.367 . S
C1709 C1708 1.367 . S
C1709 C1711 1.433 . S
C1710 C1706 1.350 . S
C1710 C1707 1.463 . S
C1710 N1714 1.427 . S
C1711 H1701 0.929 . S
C1711 C1709 1.433 . S
C1711 N1714 1.384 . S
C1712 H1703 0.929 . S
C1712 C1704 1.378 . S
C1712 C1707 1.350 . S
C1713 H1700 0.929 . S
C1713 C1705 1.433 . S
C1713 N1715 1.384 . S
N1714 C1710 1.427 . S
N1714 C1711 1.384 . S
N1715 C1707 1.427 . S
N1715 C1713 1.384 . S
H1716 C1722 0.930 . S
H1717 C1726 0.930 . S
H1718 C1731 0.929 . S
H1719 C1729 0.929 . S
H1720 C1724 0.929 . S
H1721 C1730 0.929 . S
C1722 H1716 0.930 . S
C1722 C1723 1.367 . S
C1722 C1730 1.378 . S
C1723 C1722 1.367 . S
C1723 C1731 1.433 . S
C1724 H1720 0.929 . S
C1724 C1726 1.378 . S
C1724 C1728 1.350 . S
C1725 C1728 1.463 . S
C1725 C1730 1.350 . S
C1725 N1733 1.427 . S
C1726 H1717 0.930 . S
C1726 C1724 1.378 . S
C1726 C1727 1.367 . S
C1727 C1726 1.367 . S
C1727 C1729 1.433 . S
C1728 C1724 1.350 . S
C1728 C1725 1.463 . S
C1728 N1732 1.427 . S
C1729 H1719 0.929 . S
C1729 C1727 1.433 . S
C1729 N1732 1.384 . S
C1730 H1721 0.929 . S
C1730 C1722 1.378 . S
C1730 C1725 1.350 . S
C1731 H1718 0.929 . S
C1731 C1723 1.433 . S
C1731 N1733 1.384 . S
N1732 C1728 1.427 . S
N1732 C1729 1.384 . S
N1733 C1725 1.427 . S
N1733 C1731 1.384 . S
H1734 C1740 0.930 . S
H1735 C1744 0.930 . S
H1736 C1749 0.929 . S
H1737 C1747 0.929 . S
H1738 C1742 0.929 . S
H1739 C1748 0.929 . S
C1740 H1734 0.930 . S
C1740 C1741 1.367 . S
C1740 C1748 1.378 . S
C1741 C1740 1.367 . S
C1741 C1749 1.433 . S
C1742 H1738 0.929 . S
C1742 C1744 1.378 . S
C1742 C1746 1.350 . S
C1743 C1746 1.463 . S
C1743 C1748 1.350 . S
C1743 N1751 1.427 . S
C1744 H1735 0.930 . S
C1744 C1742 1.378 . S
C1744 C1745 1.367 . S
C1745 C1744 1.367 . S
C1745 C1747 1.433 . S
C1746 C1742 1.350 . S
C1746 C1743 1.463 . S
C1746 N1750 1.427 . S
C1747 H1737 0.929 . S
C1747 C1745 1.433 . S
C1747 N1750 1.384 . S
C1748 H1739 0.929 . S
C1748 C1740 1.378 . S
C1748 C1743 1.350 . S
C1749 H1736 0.929 . S
C1749 C1741 1.433 . S
C1749 N1751 1.384 . S
N1750 C1746 1.427 . S
N1750 C1747 1.384 . S
N1751 C1743 1.427 . S
N1751 C1749 1.384 . S
H1752 C1758 0.930 . S
H1753 C1762 0.930 . S
H1754 C1767 0.929 . S
H1755 C1765 0.929 . S
H1756 C1760 0.929 . S
H1757 C1766 0.929 . S
C1758 H1752 0.930 . S
C1758 C1759 1.367 . S
C1758 C1766 1.378 . S
C1759 C1758 1.367 . S
C1759 C1767 1.433 . S
C1760 H1756 0.929 . S
C1760 C1762 1.378 . S
C1760 C1764 1.350 . S
C1761 C1764 1.463 . S
C1761 C1766 1.350 . S
C1761 N1769 1.427 . S
C1762 H1753 0.930 . S
C1762 C1760 1.378 . S
C1762 C1763 1.367 . S
C1763 C1762 1.367 . S
C1763 C1765 1.433 . S
C1764 C1760 1.350 . S
C1764 C1761 1.463 . S
C1764 N1768 1.427 . S
C1765 H1755 0.929 . S
C1765 C1763 1.433 . S
C1765 N1768 1.384 . S
C1766 H1757 0.929 . S
C1766 C1758 1.378 . S
C1766 C1761 1.350 . S
C1767 H1754 0.929 . S
C1767 C1759 1.433 . S
C1767 N1769 1.384 . S
N1768 C1764 1.427 . S
N1768 C1765 1.384 . S
N1769 C1761 1.427 . S
N1769 C1767 1.384 . S
H1770 C1776 0.930 . S
H1771 C1780 0.930 . S
H1772 C1785 0.929 . S
H1773 C1783 0.929 . S
H1774 C1778 0.929 . S
H1775 C1784 0.929 . S
C1776 H1770 0.930 . S
C1776 C1777 1.367 . S
C1776 C1784 1.378 . S
C1777 C1776 1.367 . S
C1777 C1785 1.433 . S
C1778 H1774 0.929 . S
C1778 C1780 1.378 . S
C1778 C1782 1.350 . S
C1779 C1782 1.463 . S
C1779 C1784 1.350 . S
C1779 N1787 1.427 . S
C1780 H1771 0.930 . S
C1780 C1778 1.378 . S
C1780 C1781 1.367 . S
C1781 C1780 1.367 . S
C1781 C1783 1.433 . S
C1782 C1778 1.350 . S
C1782 C1779 1.463 . S
C1782 N1786 1.427 . S
C1783 H1773 0.929 . S
C1783 C1781 1.433 . S
C1783 N1786 1.384 . S
C1784 H1775 0.929 . S
C1784 C1776 1.378 . S
C1784 C1779 1.350 . S
C1785 H1772 0.929 . S
C1785 C1777 1.433 . S
C1785 N1787 1.384 . S
N1786 C1782 1.427 . S
N1786 C1783 1.384 . S
N1787 C1779 1.427 . S
N1787 C1785 1.384 . S
H1788 C1794 0.930 . S
H1789 C1798 0.930 . S
H1790 C1803 0.929 . S
H1791 C1801 0.929 . S
H1792 C1796 0.929 . S
H1793 C1802 0.929 . S
C1794 H1788 0.930 . S
C1794 C1795 1.367 . S
C1794 C1802 1.378 . S
C1795 C1794 1.367 . S
C1795 C1803 1.433 . S
C1796 H1792 0.929 . S
C1796 C1798 1.378 . S
C1796 C1800 1.350 . S
C1797 C1800 1.463 . S
C1797 C1802 1.350 . S
C1797 N1805 1.427 . S
C1798 H1789 0.930 . S
C1798 C1796 1.378 . S
C1798 C1799 1.367 . S
C1799 C1798 1.367 . S
C1799 C1801 1.433 . S
C1800 C1796 1.350 . S
C1800 C1797 1.463 . S
C1800 N1804 1.427 . S
C1801 H1791 0.929 . S
C1801 C1799 1.433 . S
C1801 N1804 1.384 . S
C1802 H1793 0.929 . S
C1802 C1794 1.378 . S
C1802 C1797 1.350 . S
C1803 H1790 0.929 . S
C1803 C1795 1.433 . S
C1803 N1805 1.384 . S
N1804 C1800 1.427 . S
N1804 C1801 1.384 . S
N1805 C1797 1.427 . S
N1805 C1803 1.384 . S
H1806 C1812 0.930 . S
H1807 C1816 0.930 . S
H1808 C1821 0.929 . S
H1809 C1819 0.929 . S
H1810 C1814 0.929 . S
H1811 C1820 0.929 . S
C1812 H1806 0.930 . S
C1812 C1813 1.367 . S
C1812 C1820 1.378 . S
C1813 C1812 1.367 . S
C1813 C1821 1.433 . S
C1814 H1810 0.929 . S
C1814 C1816 1.378 . S
C1814 C1818 1.350 1_565 S
C1815 C1818 1.463 . S
C1815 C1820 1.350 . S
C1815 N1823 1.427 . S
C1816 H1807 0.930 . S
C1816 C1814 1.378 . S
C1816 C1817 1.367 . S
C1817 C1816 1.367 . S
C1817 C1819 1.433 . S
C1818 C1814 1.350 1_545 S
C1818 C1815 1.463 . S
C1818 N1822 1.427 . S
C1819 H1809 0.929 . S
C1819 C1817 1.433 . S
C1819 N1822 1.384 1_565 S
C1820 H1811 0.929 . S
C1820 C1812 1.378 . S
C1820 C1815 1.350 . S
C1821 H1808 0.929 . S
C1821 C1813 1.433 . S
C1821 N1823 1.384 . S
N1822 C1818 1.427 . S
N1822 C1819 1.384 1_545 S
N1823 C1815 1.427 . S
N1823 C1821 1.384 . S
H1824 C1830 0.930 . S
H1825 C1834 0.930 . S
H1826 C1839 0.929 . S
H1827 C1837 0.929 . S
H1828 C1832 0.929 . S
H1829 C1838 0.929 . S
C1830 H1824 0.930 . S
C1830 C1831 1.367 . S
C1830 C1838 1.378 . S
C1831 C1830 1.367 . S
C1831 C1839 1.433 . S
C1832 H1828 0.929 . S
C1832 C1834 1.378 . S
C1832 C1836 1.350 . S
C1833 C1836 1.463 . S
C1833 C1838 1.350 . S
C1833 N1841 1.427 . S
C1834 H1825 0.930 . S
C1834 C1832 1.378 . S
C1834 C1835 1.367 . S
C1835 C1834 1.367 . S
C1835 C1837 1.433 . S
C1836 C1832 1.350 . S
C1836 C1833 1.463 . S
C1836 N1840 1.427 . S
C1837 H1827 0.929 . S
C1837 C1835 1.433 . S
C1837 N1840 1.384 . S
C1838 H1829 0.929 . S
C1838 C1830 1.378 . S
C1838 C1833 1.350 . S
C1839 H1826 0.929 . S
C1839 C1831 1.433 . S
C1839 N1841 1.384 . S
N1840 C1836 1.427 . S
N1840 C1837 1.384 . S
N1841 C1833 1.427 . S
N1841 C1839 1.384 . S
H1842 C1848 0.930 . S
H1843 C1852 0.930 . S
H1844 C1857 0.929 . S
H1845 C1855 0.929 . S
H1846 C1850 0.929 . S
H1847 C1856 0.929 . S
C1848 H1842 0.930 . S
C1848 C1849 1.367 . S
C1848 C1856 1.378 . S
C1849 C1848 1.367 . S
C1849 C1857 1.433 . S
C1850 H1846 0.929 . S
C1850 C1852 1.378 1_655 S
C1850 C1854 1.350 . S
C1851 C1854 1.463 . S
C1851 C1856 1.350 . S
C1851 N1859 1.427 . S
C1852 H1843 0.930 . S
C1852 C1850 1.378 1_455 S
C1852 C1853 1.367 . S
C1853 C1852 1.367 . S
C1853 C1855 1.433 . S
C1854 C1850 1.350 . S
C1854 C1851 1.463 . S
C1854 N1858 1.427 1_655 S
C1855 H1845 0.929 . S
C1855 C1853 1.433 . S
C1855 N1858 1.384 . S
C1856 H1847 0.929 . S
C1856 C1848 1.378 . S
C1856 C1851 1.350 . S
C1857 H1844 0.929 . S
C1857 C1849 1.433 . S
C1857 N1859 1.384 . S
N1858 C1854 1.427 1_455 S
N1858 C1855 1.384 . S
N1859 C1851 1.427 . S
N1859 C1857 1.384 . S
H1860 C1866 0.930 . S
H1861 C1870 0.930 . S
H1862 C1875 0.929 . S
H1863 C1873 0.929 . S
H1864 C1868 0.929 . S
H1865 C1874 0.929 . S
C1866 H1860 0.930 . S
C1866 C1867 1.367 . S
C1866 C1874 1.378 . S
C1867 C1866 1.367 . S
C1867 C1875 1.433 . S
C1868 H1864 0.929 . S
C1868 C1870 1.378 . S
C1868 C1872 1.350 . S
C1869 C1872 1.463 . S
C1869 C1874 1.350 . S
C1869 N1877 1.427 . S
C1870 H1861 0.930 . S
C1870 C1868 1.378 . S
C1870 C1871 1.367 . S
C1871 C1870 1.367 . S
C1871 C1873 1.433 . S
C1872 C1868 1.350 . S
C1872 C1869 1.463 . S
C1872 N1876 1.427 . S
C1873 H1863 0.929 . S
C1873 C1871 1.433 . S
C1873 N1876 1.384 . S
C1874 H1865 0.929 . S
C1874 C1866 1.378 . S
C1874 C1869 1.350 . S
C1875 H1862 0.929 . S
C1875 C1867 1.433 . S
C1875 N1877 1.384 . S
N1876 C1872 1.427 . S
N1876 C1873 1.384 . S
N1877 C1869 1.427 . S
N1877 C1875 1.384 . S
H1878 C1884 0.930 . S
H1879 C1888 0.930 . S
H1880 C1893 0.929 . S
H1881 C1891 0.929 . S
H1882 C1886 0.929 . S
H1883 C1892 0.929 . S
C1884 H1878 0.930 . S
C1884 C1885 1.367 . S
C1884 C1892 1.378 1_655 S
C1885 C1884 1.367 . S
C1885 C1893 1.433 . S
C1886 H1882 0.929 . S
C1886 C1888 1.378 . S
C1886 C1890 1.350 . S
C1887 C1890 1.463 . S
C1887 C1892 1.350 . S
C1887 N1895 1.427 1_455 S
C1888 H1879 0.930 . S
C1888 C1886 1.378 . S
C1888 C1889 1.367 . S
C1889 C1888 1.367 . S
C1889 C1891 1.433 . S
C1890 C1886 1.350 . S
C1890 C1887 1.463 . S
C1890 N1894 1.427 . S
C1891 H1881 0.929 . S
C1891 C1889 1.433 . S
C1891 N1894 1.384 . S
C1892 H1883 0.929 . S
C1892 C1884 1.378 1_455 S
C1892 C1887 1.350 . S
C1893 H1880 0.929 . S
C1893 C1885 1.433 . S
C1893 N1895 1.384 . S
N1894 C1890 1.427 . S
N1894 C1891 1.384 . S
N1895 C1887 1.427 1_655 S
N1895 C1893 1.384 . S
H1896 C1902 0.930 . S
H1897 C1906 0.930 . S
H1898 C1911 0.929 . S
H1899 C1909 0.929 . S
H1900 C1904 0.929 . S
H1901 C1910 0.929 . S
C1902 H1896 0.930 . S
C1902 C1903 1.367 . S
C1902 C1910 1.378 . S
C1903 C1902 1.367 . S
C1903 C1911 1.433 . S
C1904 H1900 0.929 . S
C1904 C1906 1.378 . S
C1904 C1908 1.350 . S
C1905 C1908 1.463 . S
C1905 C1910 1.350 . S
C1905 N1913 1.427 . S
C1906 H1897 0.930 . S
C1906 C1904 1.378 . S
C1906 C1907 1.367 . S
C1907 C1906 1.367 . S
C1907 C1909 1.433 . S
C1908 C1904 1.350 . S
C1908 C1905 1.463 . S
C1908 N1912 1.427 . S
C1909 H1899 0.929 . S
C1909 C1907 1.433 . S
C1909 N1912 1.384 . S
C1910 H1901 0.929 . S
C1910 C1902 1.378 . S
C1910 C1905 1.350 . S
C1911 H1898 0.929 . S
C1911 C1903 1.433 . S
C1911 N1913 1.384 . S
N1912 C1908 1.427 . S
N1912 C1909 1.384 . S
N1913 C1905 1.427 . S
N1913 C1911 1.384 . S
H1914 C1920 0.930 . S
H1915 C1924 0.930 . S
H1916 C1929 0.929 . S
H1917 C1927 0.929 . S
H1918 C1922 0.929 . S
H1919 C1928 0.929 . S
C1920 H1914 0.930 . S
C1920 C1921 1.367 . S
C1920 C1928 1.378 . S
C1921 C1920 1.367 . S
C1921 C1929 1.433 . S
C1922 H1918 0.929 . S
C1922 C1924 1.378 . S
C1922 C1926 1.350 . S
C1923 C1926 1.463 . S
C1923 C1928 1.350 . S
C1923 N1931 1.427 . S
C1924 H1915 0.930 . S
C1924 C1922 1.378 . S
C1924 C1925 1.367 . S
C1925 C1924 1.367 . S
C1925 C1927 1.433 . S
C1926 C1922 1.350 . S
C1926 C1923 1.463 . S
C1926 N1930 1.427 . S
C1927 H1917 0.929 . S
C1927 C1925 1.433 . S
C1927 N1930 1.384 . S
C1928 H1919 0.929 . S
C1928 C1920 1.378 . S
C1928 C1923 1.350 . S
C1929 H1916 0.929 . S
C1929 C1921 1.433 . S
C1929 N1931 1.384 . S
N1930 C1926 1.427 . S
N1930 C1927 1.384 . S
N1931 C1923 1.427 . S
N1931 C1929 1.384 . S
H1932 C1938 0.930 . S
H1933 C1942 0.930 . S
H1934 C1947 0.929 . S
H1935 C1945 0.929 . S
H1936 C1940 0.929 . S
H1937 C1946 0.929 . S
C1938 H1932 0.930 . S
C1938 C1939 1.367 . S
C1938 C1946 1.378 . S
C1939 C1938 1.367 . S
C1939 C1947 1.433 . S
C1940 H1936 0.929 . S
C1940 C1942 1.378 . S
C1940 C1944 1.350 . S
C1941 C1944 1.463 . S
C1941 C1946 1.350 . S
C1941 N1949 1.427 . S
C1942 H1933 0.930 . S
C1942 C1940 1.378 . S
C1942 C1943 1.367 . S
C1943 C1942 1.367 . S
C1943 C1945 1.433 . S
C1944 C1940 1.350 . S
C1944 C1941 1.463 . S
C1944 N1948 1.427 . S
C1945 H1935 0.929 . S
C1945 C1943 1.433 . S
C1945 N1948 1.384 . S
C1946 H1937 0.929 . S
C1946 C1938 1.378 . S
C1946 C1941 1.350 . S
C1947 H1934 0.929 . S
C1947 C1939 1.433 . S
C1947 N1949 1.384 . S
N1948 C1944 1.427 . S
N1948 C1945 1.384 . S
N1949 C1941 1.427 . S
N1949 C1947 1.384 . S
H1950 C1956 0.930 . S
H1951 C1960 0.930 . S
H1952 C1965 0.929 . S
H1953 C1963 0.929 . S
H1954 C1958 0.929 . S
H1955 C1964 0.929 . S
C1956 H1950 0.930 . S
C1956 C1957 1.367 . S
C1956 C1964 1.378 . S
C1957 C1956 1.367 . S
C1957 C1965 1.433 . S
C1958 H1954 0.929 . S
C1958 C1960 1.378 . S
C1958 C1962 1.350 . S
C1959 C1962 1.463 . S
C1959 C1964 1.350 . S
C1959 N1967 1.427 . S
C1960 H1951 0.930 . S
C1960 C1958 1.378 . S
C1960 C1961 1.367 . S
C1961 C1960 1.367 . S
C1961 C1963 1.433 . S
C1962 C1958 1.350 . S
C1962 C1959 1.463 . S
C1962 N1966 1.427 . S
C1963 H1953 0.929 . S
C1963 C1961 1.433 . S
C1963 N1966 1.384 . S
C1964 H1955 0.929 . S
C1964 C1956 1.378 . S
C1964 C1959 1.350 . S
C1965 H1952 0.929 . S
C1965 C1957 1.433 . S
C1965 N1967 1.384 . S
N1966 C1962 1.427 . S
N1966 C1963 1.384 . S
N1967 C1959 1.427 . S
N1967 C1965 1.384 . S
H1968 C1974 0.930 . S
H1969 C1978 0.930 . S
H1970 C1983 0.929 . S
H1971 C1981 0.929 . S
H1972 C1976 0.929 . S
H1973 C1982 0.929 . S
C1974 H1968 0.930 . S
C1974 C1975 1.367 . S
C1974 C1982 1.378 . S
C1975 C1974 1.367 . S
C1975 C1983 1.433 . S
C1976 H1972 0.929 . S
C1976 C1978 1.378 . S
C1976 C1980 1.350 . S
C1977 C1980 1.463 . S
C1977 C1982 1.350 . S
C1977 N1985 1.427 . S
C1978 H1969 0.930 . S
C1978 C1976 1.378 . S
C1978 C1979 1.367 . S
C1979 C1978 1.367 . S
C1979 C1981 1.433 . S
C1980 C1976 1.350 . S
C1980 C1977 1.463 . S
C1980 N1984 1.427 . S
C1981 H1971 0.929 . S
C1981 C1979 1.433 . S
C1981 N1984 1.384 . S
C1982 H1973 0.929 . S
C1982 C1974 1.378 . S
C1982 C1977 1.350 . S
C1983 H1970 0.929 . S
C1983 C1975 1.433 . S
C1983 N1985 1.384 . S
N1984 C1980 1.427 . S
N1984 C1981 1.384 . S
N1985 C1977 1.427 . S
N1985 C1983 1.384 . S
H1986 C1992 0.930 . S
H1987 C1996 0.930 . S
H1988 C2001 0.929 . S
H1989 C1999 0.929 . S
H1990 C1994 0.929 . S
H1991 C2000 0.929 . S
C1992 H1986 0.930 . S
C1992 C1993 1.367 . S
C1992 C2000 1.378 . S
C1993 C1992 1.367 . S
C1993 C2001 1.433 . S
C1994 H1990 0.929 . S
C1994 C1996 1.378 . S
C1994 C1998 1.350 . S
C1995 C1998 1.463 . S
C1995 C2000 1.350 . S
C1995 N2003 1.427 . S
C1996 H1987 0.930 . S
C1996 C1994 1.378 . S
C1996 C1997 1.367 . S
C1997 C1996 1.367 . S
C1997 C1999 1.433 . S
C1998 C1994 1.350 . S
C1998 C1995 1.463 . S
C1998 N2002 1.427 . S
C1999 H1989 0.929 . S
C1999 C1997 1.433 . S
C1999 N2002 1.384 . S
C2000 H1991 0.929 . S
C2000 C1992 1.378 . S
C2000 C1995 1.350 . S
C2001 H1988 0.929 . S
C2001 C1993 1.433 . S
C2001 N2003 1.384 . S
N2002 C1998 1.427 . S
N2002 C1999 1.384 . S
N2003 C1995 1.427 . S
N2003 C2001 1.384 . S
H2004 C2010 0.930 . S
H2005 C2014 0.930 . S
H2006 C2019 0.929 . S
H2007 C2017 0.929 . S
H2008 C2012 0.929 . S
H2009 C2018 0.929 . S
C2010 H2004 0.930 . S
C2010 C2011 1.367 . S
C2010 C2018 1.378 . S
C2011 C2010 1.367 . S
C2011 C2019 1.433 . S
C2012 H2008 0.929 . S
C2012 C2014 1.378 . S
C2012 C2016 1.350 . S
C2013 C2016 1.463 . S
C2013 C2018 1.350 . S
C2013 N2021 1.427 . S
C2014 H2005 0.930 . S
C2014 C2012 1.378 . S
C2014 C2015 1.367 . S
C2015 C2014 1.367 . S
C2015 C2017 1.433 . S
C2016 C2012 1.350 . S
C2016 C2013 1.463 . S
C2016 N2020 1.427 . S
C2017 H2007 0.929 . S
C2017 C2015 1.433 . S
C2017 N2020 1.384 . S
C2018 H2009 0.929 . S
C2018 C2010 1.378 . S
C2018 C2013 1.350 . S
C2019 H2006 0.929 . S
C2019 C2011 1.433 . S
C2019 N2021 1.384 . S
N2020 C2016 1.427 . S
N2020 C2017 1.384 . S
N2021 C2013 1.427 . S
N2021 C2019 1.384 . S
H2022 C2028 0.930 . S
H2023 C2032 0.930 . S
H2024 C2037 0.929 . S
H2025 C2035 0.929 . S
H2026 C2030 0.929 . S
H2027 C2036 0.929 . S
C2028 H2022 0.930 . S
C2028 C2029 1.367 . S
C2028 C2036 1.378 . S
C2029 C2028 1.367 . S
C2029 C2037 1.433 . S
C2030 H2026 0.929 . S
C2030 C2032 1.378 . S
C2030 C2034 1.350 . S
C2031 C2034 1.463 . S
C2031 C2036 1.350 . S
C2031 N2039 1.427 . S
C2032 H2023 0.930 . S
C2032 C2030 1.378 . S
C2032 C2033 1.367 . S
C2033 C2032 1.367 . S
C2033 C2035 1.433 . S
C2034 C2030 1.350 . S
C2034 C2031 1.463 . S
C2034 N2038 1.427 . S
C2035 H2025 0.929 . S
C2035 C2033 1.433 . S
C2035 N2038 1.384 . S
C2036 H2027 0.929 . S
C2036 C2028 1.378 . S
C2036 C2031 1.350 . S
C2037 H2024 0.929 . S
C2037 C2029 1.433 . S
C2037 N2039 1.384 . S
N2038 C2034 1.427 . S
N2038 C2035 1.384 . S
N2039 C2031 1.427 . S
N2039 C2037 1.384 . S
H2040 C2046 0.930 . S
H2041 C2050 0.930 . S
H2042 C2055 0.929 . S
H2043 C2053 0.929 . S
H2044 C2048 0.929 . S
H2045 C2054 0.929 . S
C2046 H2040 0.930 . S
C2046 C2047 1.367 . S
C2046 C2054 1.378 . S
C2047 C2046 1.367 . S
C2047 C2055 1.433 . S
C2048 H2044 0.929 . S
C2048 C2050 1.378 . S
C2048 C2052 1.350 . S
C2049 C2052 1.463 . S
C2049 C2054 1.350 . S
C2049 N2057 1.427 . S
C2050 H2041 0.930 . S
C2050 C2048 1.378 . S
C2050 C2051 1.367 . S
C2051 C2050 1.367 . S
C2051 C2053 1.433 . S
C2052 C2048 1.350 . S
C2052 C2049 1.463 . S
C2052 N2056 1.427 . S
C2053 H2043 0.929 . S
C2053 C2051 1.433 . S
C2053 N2056 1.384 . S
C2054 H2045 0.929 . S
C2054 C2046 1.378 . S
C2054 C2049 1.350 . S
C2055 H2042 0.929 . S
C2055 C2047 1.433 . S
C2055 N2057 1.384 . S
N2056 C2052 1.427 . S
N2056 C2053 1.384 . S
N2057 C2049 1.427 . S
N2057 C2055 1.384 . S
H2058 C2064 0.930 . S
H2059 C2068 0.930 . S
H2060 C2073 0.929 . S
H2061 C2071 0.929 . S
H2062 C2066 0.929 . S
H2063 C2072 0.929 . S
C2064 H2058 0.930 . S
C2064 C2065 1.367 . S
C2064 C2072 1.378 . S
C2065 C2064 1.367 . S
C2065 C2073 1.433 . S
C2066 H2062 0.929 . S
C2066 C2068 1.378 . S
C2066 C2070 1.350 . S
C2067 C2070 1.463 . S
C2067 C2072 1.350 . S
C2067 N2075 1.427 . S
C2068 H2059 0.930 . S
C2068 C2066 1.378 . S
C2068 C2069 1.367 . S
C2069 C2068 1.367 . S
C2069 C2071 1.433 . S
C2070 C2066 1.350 . S
C2070 C2067 1.463 . S
C2070 N2074 1.427 . S
C2071 H2061 0.929 . S
C2071 C2069 1.433 . S
C2071 N2074 1.384 . S
C2072 H2063 0.929 . S
C2072 C2064 1.378 . S
C2072 C2067 1.350 . S
C2073 H2060 0.929 . S
C2073 C2065 1.433 . S
C2073 N2075 1.384 . S
N2074 C2070 1.427 . S
N2074 C2071 1.384 . S
N2075 C2067 1.427 . S
N2075 C2073 1.384 . S
H2076 C2082 0.930 . S
H2077 C2086 0.930 . S
H2078 C2091 0.929 . S
H2079 C2089 0.929 . S
H2080 C2084 0.929 . S
H2081 C2090 0.929 . S
C2082 H2076 0.930 . S
C2082 C2083 1.367 . S
C2082 C2090 1.378 . S
C2083 C2082 1.367 . S
C2083 C2091 1.433 . S
C2084 H2080 0.929 . S
C2084 C2086 1.378 . S
C2084 C2088 1.350 . S
C2085 C2088 1.463 . S
C2085 C2090 1.350 . S
C2085 N2093 1.427 . S
C2086 H2077 0.930 . S
C2086 C2084 1.378 . S
C2086 C2087 1.367 . S
C2087 C2086 1.367 . S
C2087 C2089 1.433 . S
C2088 C2084 1.350 . S
C2088 C2085 1.463 . S
C2088 N2092 1.427 . S
C2089 H2079 0.929 . S
C2089 C2087 1.433 . S
C2089 N2092 1.384 . S
C2090 H2081 0.929 . S
C2090 C2082 1.378 . S
C2090 C2085 1.350 . S
C2091 H2078 0.929 . S
C2091 C2083 1.433 . S
C2091 N2093 1.384 . S
N2092 C2088 1.427 . S
N2092 C2089 1.384 . S
N2093 C2085 1.427 . S
N2093 C2091 1.384 . S
H2094 C2100 0.930 . S
H2095 C2104 0.930 . S
H2096 C2109 0.929 . S
H2097 C2107 0.929 . S
H2098 C2102 0.929 . S
H2099 C2108 0.929 . S
C2100 H2094 0.930 . S
C2100 C2101 1.367 . S
C2100 C2108 1.378 . S
C2101 C2100 1.367 . S
C2101 C2109 1.433 . S
C2102 H2098 0.929 . S
C2102 C2104 1.378 . S
C2102 C2106 1.350 . S
C2103 C2106 1.463 . S
C2103 C2108 1.350 . S
C2103 N2111 1.427 . S
C2104 H2095 0.930 . S
C2104 C2102 1.378 . S
C2104 C2105 1.367 . S
C2105 C2104 1.367 . S
C2105 C2107 1.433 . S
C2106 C2102 1.350 . S
C2106 C2103 1.463 . S
C2106 N2110 1.427 . S
C2107 H2097 0.929 . S
C2107 C2105 1.433 . S
C2107 N2110 1.384 . S
C2108 H2099 0.929 . S
C2108 C2100 1.378 . S
C2108 C2103 1.350 . S
C2109 H2096 0.929 . S
C2109 C2101 1.433 . S
C2109 N2111 1.384 . S
N2110 C2106 1.427 . S
N2110 C2107 1.384 . S
N2111 C2103 1.427 . S
N2111 C2109 1.384 . S
H2112 C2118 0.930 . S
H2113 C2122 0.930 . S
H2114 C2127 0.929 . S
H2115 C2125 0.929 . S
H2116 C2120 0.929 . S
H2117 C2126 0.929 . S
C2118 H2112 0.930 . S
C2118 C2119 1.367 . S
C2118 C2126 1.378 . S
C2119 C2118 1.367 . S
C2119 C2127 1.433 . S
C2120 H2116 0.929 . S
C2120 C2122 1.378 . S
C2120 C2124 1.350 . S
C2121 C2124 1.463 . S
C2121 C2126 1.350 . S
C2121 N2129 1.427 . S
C2122 H2113 0.930 . S
C2122 C2120 1.378 . S
C2122 C2123 1.367 . S
C2123 C2122 1.367 . S
C2123 C2125 1.433 . S
C2124 C2120 1.350 . S
C2124 C2121 1.463 . S
C2124 N2128 1.427 . S
C2125 H2115 0.929 . S
C2125 C2123 1.433 . S
C2125 N2128 1.384 . S
C2126 H2117 0.929 . S
C2126 C2118 1.378 . S
C2126 C2121 1.350 . S
C2127 H2114 0.929 . S
C2127 C2119 1.433 . S
C2127 N2129 1.384 . S
N2128 C2124 1.427 . S
N2128 C2125 1.384 . S
N2129 C2121 1.427 . S
N2129 C2127 1.384 . S
H2130 C2136 0.930 . S
H2131 C2140 0.930 . S
H2132 C2145 0.929 . S
H2133 C2143 0.929 . S
H2134 C2138 0.929 . S
H2135 C2144 0.929 . S
C2136 H2130 0.930 . S
C2136 C2137 1.367 . S
C2136 C2144 1.378 . S
C2137 C2136 1.367 . S
C2137 C2145 1.433 . S
C2138 H2134 0.929 . S
C2138 C2140 1.378 . S
C2138 C2142 1.350 . S
C2139 C2142 1.463 . S
C2139 C2144 1.350 . S
C2139 N2147 1.427 . S
C2140 H2131 0.930 . S
C2140 C2138 1.378 . S
C2140 C2141 1.367 . S
C2141 C2140 1.367 . S
C2141 C2143 1.433 . S
C2142 C2138 1.350 . S
C2142 C2139 1.463 . S
C2142 N2146 1.427 . S
C2143 H2133 0.929 . S
C2143 C2141 1.433 . S
C2143 N2146 1.384 . S
C2144 H2135 0.929 . S
C2144 C2136 1.378 . S
C2144 C2139 1.350 . S
C2145 H2132 0.929 . S
C2145 C2137 1.433 . S
C2145 N2147 1.384 . S
N2146 C2142 1.427 . S
N2146 C2143 1.384 . S
N2147 C2139 1.427 . S
N2147 C2145 1.384 . S
H2148 C2154 0.930 . S
H2149 C2158 0.930 . S
H2150 C2163 0.929 . S
H2151 C2161 0.929 . S
H2152 C2156 0.929 . S
H2153 C2162 0.929 . S
C2154 H2148 0.930 . S
C2154 C2155 1.367 . S
C2154 C2162 1.378 . S
C2155 C2154 1.367 . S
C2155 C2163 1.433 . S
C2156 H2152 0.929 . S
C2156 C2158 1.378 1_545 S
C2156 C2160 1.350 . S
C2157 C2160 1.463 . S
C2157 C2162 1.350 . S
C2157 N2165 1.427 . S
C2158 H2149 0.930 . S
C2158 C2156 1.378 1_565 S
C2158 C2159 1.367 . S
C2159 C2158 1.367 . S
C2159 C2161 1.433 . S
C2160 C2156 1.350 . S
C2160 C2157 1.463 . S
C2160 N2164 1.427 1_545 S
C2161 H2151 0.929 . S
C2161 C2159 1.433 . S
C2161 N2164 1.384 . S
C2162 H2153 0.929 . S
C2162 C2154 1.378 . S
C2162 C2157 1.350 . S
C2163 H2150 0.929 . S
C2163 C2155 1.433 . S
C2163 N2165 1.384 . S
N2164 C2160 1.427 1_565 S
N2164 C2161 1.384 . S
N2165 C2157 1.427 . S
N2165 C2163 1.384 . S
H2166 C2172 0.930 . S
H2167 C2176 0.930 . S
H2168 C2181 0.929 . S
H2169 C2179 0.929 . S
H2170 C2174 0.929 . S
H2171 C2180 0.929 . S
C2172 H2166 0.930 . S
C2172 C2173 1.367 . S
C2172 C2180 1.378 . S
C2173 C2172 1.367 . S
C2173 C2181 1.433 . S
C2174 H2170 0.929 . S
C2174 C2176 1.378 . S
C2174 C2178 1.350 . S
C2175 C2178 1.463 . S
C2175 C2180 1.350 . S
C2175 N2183 1.427 . S
C2176 H2167 0.930 . S
C2176 C2174 1.378 . S
C2176 C2177 1.367 . S
C2177 C2176 1.367 . S
C2177 C2179 1.433 . S
C2178 C2174 1.350 . S
C2178 C2175 1.463 . S
C2178 N2182 1.427 . S
C2179 H2169 0.929 . S
C2179 C2177 1.433 . S
C2179 N2182 1.384 . S
C2180 H2171 0.929 . S
C2180 C2172 1.378 . S
C2180 C2175 1.350 . S
C2181 H2168 0.929 . S
C2181 C2173 1.433 . S
C2181 N2183 1.384 . S
N2182 C2178 1.427 . S
N2182 C2179 1.384 . S
N2183 C2175 1.427 . S
N2183 C2181 1.384 . S
H2184 C2190 0.930 . S
H2185 C2194 0.930 . S
H2186 C2199 0.929 . S
H2187 C2197 0.929 . S
H2188 C2192 0.929 . S
H2189 C2198 0.929 . S
C2190 H2184 0.930 . S
C2190 C2191 1.367 . S
C2190 C2198 1.378 . S
C2191 C2190 1.367 . S
C2191 C2199 1.433 . S
C2192 H2188 0.929 . S
C2192 C2194 1.378 . S
C2192 C2196 1.350 1_545 S
C2193 C2196 1.463 . S
C2193 C2198 1.350 . S
C2193 N2201 1.427 . S
C2194 H2185 0.930 . S
C2194 C2192 1.378 . S
C2194 C2195 1.367 . S
C2195 C2194 1.367 . S
C2195 C2197 1.433 . S
C2196 C2192 1.350 1_565 S
C2196 C2193 1.463 . S
C2196 N2200 1.427 . S
C2197 H2187 0.929 . S
C2197 C2195 1.433 . S
C2197 N2200 1.384 1_545 S
C2198 H2189 0.929 . S
C2198 C2190 1.378 . S
C2198 C2193 1.350 . S
C2199 H2186 0.929 . S
C2199 C2191 1.433 . S
C2199 N2201 1.384 . S
N2200 C2196 1.427 . S
N2200 C2197 1.384 1_565 S
N2201 C2193 1.427 . S
N2201 C2199 1.384 . S
H2202 C2208 0.930 . S
H2203 C2212 0.930 . S
H2204 C2217 0.929 . S
H2205 C2215 0.929 . S
H2206 C2210 0.929 . S
H2207 C2216 0.929 . S
C2208 H2202 0.930 . S
C2208 C2209 1.367 . S
C2208 C2216 1.378 . S
C2209 C2208 1.367 . S
C2209 C2217 1.433 . S
C2210 H2206 0.929 . S
C2210 C2212 1.378 . S
C2210 C2214 1.350 . S
C2211 C2214 1.463 . S
C2211 C2216 1.350 . S
C2211 N2219 1.427 . S
C2212 H2203 0.930 . S
C2212 C2210 1.378 . S
C2212 C2213 1.367 . S
C2213 C2212 1.367 . S
C2213 C2215 1.433 . S
C2214 C2210 1.350 . S
C2214 C2211 1.463 . S
C2214 N2218 1.427 . S
C2215 H2205 0.929 . S
C2215 C2213 1.433 . S
C2215 N2218 1.384 . S
C2216 H2207 0.929 . S
C2216 C2208 1.378 . S
C2216 C2211 1.350 . S
C2217 H2204 0.929 . S
C2217 C2209 1.433 . S
C2217 N2219 1.384 . S
N2218 C2214 1.427 . S
N2218 C2215 1.384 . S
N2219 C2211 1.427 . S
N2219 C2217 1.384 . S
H2220 C2226 0.930 . S
H2221 C2230 0.930 . S
H2222 C2235 0.929 . S
H2223 C2233 0.929 . S
H2224 C2228 0.924 1_565 S
H2225 C2234 0.929 . S
C2226 H2220 0.930 . S
C2226 C2227 1.367 . S
C2226 C2234 1.378 . S
C2227 C2226 1.367 . S
C2227 C2235 1.433 . S
C2228 H2224 0.924 1_545 S
C2228 C2230 1.385 . S
C2228 C2232 1.347 1_545 S
C2229 C2232 1.463 . S
C2229 C2234 1.350 . S
C2229 N2237 1.427 . S
C2230 H2221 0.930 . S
C2230 C2228 1.385 . S
C2230 C2231 1.367 . S
C2231 C2230 1.367 . S
C2231 C2233 1.433 . S
C2232 C2228 1.347 1_565 S
C2232 C2229 1.463 . S
C2232 N2236 1.427 1_565 S
C2233 H2223 0.929 . S
C2233 C2231 1.433 . S
C2233 N2236 1.384 . S
C2234 H2225 0.929 . S
C2234 C2226 1.378 . S
C2234 C2229 1.350 . S
C2235 H2222 0.929 . S
C2235 C2227 1.433 . S
C2235 N2237 1.384 . S
N2236 C2232 1.427 1_545 S
N2236 C2233 1.384 . S
N2237 C2229 1.427 . S
N2237 C2235 1.384 . S
H2238 C2244 0.930 . S
H2239 C2248 0.930 . S
H2240 C2253 0.929 . S
H2241 C2251 0.929 . S
H2242 C2246 0.929 . S
H2243 C2252 0.929 . S
C2244 H2238 0.930 . S
C2244 C2245 1.367 . S
C2244 C2252 1.378 . S
C2245 C2244 1.367 . S
C2245 C2253 1.433 . S
C2246 H2242 0.929 . S
C2246 C2248 1.378 . S
C2246 C2250 1.350 . S
C2247 C2250 1.463 . S
C2247 C2252 1.350 . S
C2247 N2255 1.427 . S
C2248 H2239 0.930 . S
C2248 C2246 1.378 . S
C2248 C2249 1.367 . S
C2249 C2248 1.367 . S
C2249 C2251 1.433 . S
C2250 C2246 1.350 . S
C2250 C2247 1.463 . S
C2250 N2254 1.427 . S
C2251 H2241 0.929 . S
C2251 C2249 1.433 . S
C2251 N2254 1.384 . S
C2252 H2243 0.929 . S
C2252 C2244 1.378 . S
C2252 C2247 1.350 . S
C2253 H2240 0.929 . S
C2253 C2245 1.433 . S
C2253 N2255 1.384 . S
N2254 C2250 1.427 . S
N2254 C2251 1.384 . S
N2255 C2247 1.427 . S
N2255 C2253 1.384 . S
H2256 C2262 0.930 . S
H2257 C2266 0.930 . S
H2258 C2271 0.929 . S
H2259 C2269 0.929 . S
H2260 C2264 0.929 . S
H2261 C2270 0.929 . S
C2262 H2256 0.930 . S
C2262 C2263 1.367 . S
C2262 C2270 1.378 . S
C2263 C2262 1.367 . S
C2263 C2271 1.433 . S
C2264 H2260 0.929 . S
C2264 C2266 1.378 . S
C2264 C2268 1.350 . S
C2265 C2268 1.463 1_655 S
C2265 C2270 1.350 . S
C2265 N2273 1.427 . S
C2266 H2257 0.930 . S
C2266 C2264 1.378 . S
C2266 C2267 1.367 . S
C2267 C2266 1.367 . S
C2267 C2269 1.433 . S
C2268 C2264 1.350 . S
C2268 C2265 1.463 1_455 S
C2268 N2272 1.427 . S
C2269 H2259 0.929 . S
C2269 C2267 1.433 . S
C2269 N2272 1.384 . S
C2270 H2261 0.929 . S
C2270 C2262 1.378 . S
C2270 C2265 1.350 . S
C2271 H2258 0.929 . S
C2271 C2263 1.433 . S
C2271 N2273 1.384 . S
N2272 C2268 1.427 . S
N2272 C2269 1.384 . S
N2273 C2265 1.427 . S
N2273 C2271 1.384 . S
H2274 C2280 0.930 . S
H2275 C2284 0.930 . S
H2276 C2289 0.929 . S
H2277 C2287 0.929 . S
H2278 C2282 0.929 . S
H2279 C2288 0.929 . S
C2280 H2274 0.930 . S
C2280 C2281 1.367 . S
C2280 C2288 1.378 . S
C2281 C2280 1.367 . S
C2281 C2289 1.433 . S
C2282 H2278 0.929 . S
C2282 C2284 1.378 . S
C2282 C2286 1.350 . S
C2283 C2286 1.463 . S
C2283 C2288 1.350 . S
C2283 N2291 1.427 . S
C2284 H2275 0.930 . S
C2284 C2282 1.378 . S
C2284 C2285 1.367 . S
C2285 C2284 1.367 . S
C2285 C2287 1.433 . S
C2286 C2282 1.350 . S
C2286 C2283 1.463 . S
C2286 N2290 1.427 . S
C2287 H2277 0.929 . S
C2287 C2285 1.433 . S
C2287 N2290 1.384 . S
C2288 H2279 0.929 . S
C2288 C2280 1.378 . S
C2288 C2283 1.350 . S
C2289 H2276 0.929 . S
C2289 C2281 1.433 . S
C2289 N2291 1.384 . S
N2290 C2286 1.427 . S
N2290 C2287 1.384 . S
N2291 C2283 1.427 . S
N2291 C2289 1.384 . S
H2292 C2298 0.930 . S
H2293 C2302 0.930 . S
H2294 C2307 0.929 . S
H2295 C2305 0.929 . S
H2296 C2300 0.929 1_655 S
H2297 C2306 0.929 1_455 S
C2298 H2292 0.930 . S
C2298 C2299 1.367 . S
C2298 C2306 1.378 . S
C2299 C2298 1.367 . S
C2299 C2307 1.433 . S
C2300 H2296 0.929 1_455 S
C2300 C2302 1.378 . S
C2300 C2304 1.350 . S
C2301 C2304 1.463 1_655 S
C2301 C2306 1.350 . S
C2301 N2309 1.427 . S
C2302 H2293 0.930 . S
C2302 C2300 1.378 . S
C2302 C2303 1.367 . S
C2303 C2302 1.367 . S
C2303 C2305 1.433 . S
C2304 C2300 1.350 . S
C2304 C2301 1.463 1_455 S
C2304 N2308 1.427 . S
C2305 H2295 0.929 . S
C2305 C2303 1.433 . S
C2305 N2308 1.384 . S
C2306 H2297 0.929 1_655 S
C2306 C2298 1.378 . S
C2306 C2301 1.350 . S
C2307 H2294 0.929 . S
C2307 C2299 1.433 . S
C2307 N2309 1.384 . S
N2308 C2304 1.427 . S
N2308 C2305 1.384 . S
N2309 C2301 1.427 . S
N2309 C2307 1.384 . S
H2310 C2316 0.930 . S
H2311 C2320 0.930 . S
H2312 C2325 0.929 . S
H2313 C2323 0.929 . S
H2314 C2318 0.934 1_655 S
H2315 C2324 0.934 1_455 S
C2316 H2310 0.930 . S
C2316 C2317 1.367 . S
C2316 C2324 1.374 . S
C2317 C2316 1.367 . S
C2317 C2325 1.433 . S
C2318 H2314 0.934 1_455 S
C2318 C2320 1.374 . S
C2318 C2322 1.348 . S
C2319 C2322 1.463 1_655 S
C2319 C2324 1.348 . S
C2319 N2327 1.427 . S
C2320 H2311 0.930 . S
C2320 C2318 1.374 . S
C2320 C2321 1.367 . S
C2321 C2320 1.367 . S
C2321 C2323 1.433 . S
C2322 C2318 1.348 . S
C2322 C2319 1.463 1_455 S
C2322 N2326 1.427 . S
C2323 H2313 0.929 . S
C2323 C2321 1.433 . S
C2323 N2326 1.384 . S
C2324 H2315 0.934 1_655 S
C2324 C2316 1.374 . S
C2324 C2319 1.348 . S
C2325 H2312 0.929 . S
C2325 C2317 1.433 . S
C2325 N2327 1.384 . S
N2326 C2322 1.427 . S
N2326 C2323 1.384 . S
N2327 C2319 1.427 . S
N2327 C2325 1.384 . S
H2328 C2334 0.930 . S
H2329 C2338 0.930 . S
H2330 C2343 0.929 . S
H2331 C2341 0.929 . S
H2332 C2336 0.929 . S
H2333 C2342 0.929 . S
C2334 H2328 0.930 . S
C2334 C2335 1.367 . S
C2334 C2342 1.378 . S
C2335 C2334 1.367 . S
C2335 C2343 1.433 . S
C2336 H2332 0.929 . S
C2336 C2338 1.378 . S
C2336 C2340 1.350 . S
C2337 C2340 1.463 1_565 S
C2337 C2342 1.350 . S
C2337 N2345 1.427 . S
C2338 H2329 0.930 . S
C2338 C2336 1.378 . S
C2338 C2339 1.367 . S
C2339 C2338 1.367 . S
C2339 C2341 1.433 . S
C2340 C2336 1.350 . S
C2340 C2337 1.463 1_545 S
C2340 N2344 1.427 . S
C2341 H2331 0.929 . S
C2341 C2339 1.433 . S
C2341 N2344 1.384 . S
C2342 H2333 0.929 . S
C2342 C2334 1.378 . S
C2342 C2337 1.350 . S
C2343 H2330 0.929 . S
C2343 C2335 1.433 . S
C2343 N2345 1.384 . S
N2344 C2340 1.427 . S
N2344 C2341 1.384 . S
N2345 C2337 1.427 . S
N2345 C2343 1.384 . S
H2346 C2352 0.930 . S
H2347 C2356 0.930 . S
H2348 C2361 0.929 . S
H2349 C2359 0.929 . S
H2350 C2354 0.929 . S
H2351 C2360 0.929 . S
C2352 H2346 0.930 . S
C2352 C2353 1.367 . S
C2352 C2360 1.378 . S
C2353 C2352 1.367 . S
C2353 C2361 1.433 . S
C2354 H2350 0.929 . S
C2354 C2356 1.378 . S
C2354 C2358 1.350 . S
C2355 C2358 1.463 1_554 S
C2355 C2360 1.350 . S
C2355 N2363 1.427 . S
C2356 H2347 0.930 . S
C2356 C2354 1.378 . S
C2356 C2357 1.367 . S
C2357 C2356 1.367 . S
C2357 C2359 1.433 . S
C2358 C2354 1.350 . S
C2358 C2355 1.463 1_556 S
C2358 N2362 1.427 . S
C2359 H2349 0.929 . S
C2359 C2357 1.433 . S
C2359 N2362 1.384 . S
C2360 H2351 0.929 . S
C2360 C2352 1.378 . S
C2360 C2355 1.350 . S
C2361 H2348 0.929 . S
C2361 C2353 1.433 . S
C2361 N2363 1.384 . S
N2362 C2358 1.427 . S
N2362 C2359 1.384 . S
N2363 C2355 1.427 . S
N2363 C2361 1.384 . S
H2364 C2370 0.930 . S
H2365 C2374 0.930 . S
H2366 C2379 0.929 . S
H2367 C2377 0.929 . S
H2368 C2372 0.929 . S
H2369 C2378 0.929 . S
C2370 H2364 0.930 . S
C2370 C2371 1.367 . S
C2370 C2378 1.378 . S
C2371 C2370 1.367 . S
C2371 C2379 1.433 . S
C2372 H2368 0.929 . S
C2372 C2374 1.378 . S
C2372 C2376 1.350 . S
C2373 C2376 1.463 . S
C2373 C2378 1.350 . S
C2373 N2381 1.427 . S
C2374 H2365 0.930 . S
C2374 C2372 1.378 . S
C2374 C2375 1.367 . S
C2375 C2374 1.367 . S
C2375 C2377 1.433 . S
C2376 C2372 1.350 . S
C2376 C2373 1.463 . S
C2376 N2380 1.427 . S
C2377 H2367 0.929 . S
C2377 C2375 1.433 . S
C2377 N2380 1.384 . S
C2378 H2369 0.929 . S
C2378 C2370 1.378 . S
C2378 C2373 1.350 . S
C2379 H2366 0.929 . S
C2379 C2371 1.433 . S
C2379 N2381 1.384 . S
N2380 C2376 1.427 . S
N2380 C2377 1.384 . S
N2381 C2373 1.427 . S
N2381 C2379 1.384 . S
H2382 C2388 0.930 . S
H2383 C2392 0.930 . S
H2384 C2397 0.929 . S
H2385 C2395 0.929 . S
H2386 C2390 0.929 . S
H2387 C2396 0.929 . S
C2388 H2382 0.930 . S
C2388 C2389 1.367 . S
C2388 C2396 1.378 . S
C2389 C2388 1.367 . S
C2389 C2397 1.433 . S
C2390 H2386 0.929 . S
C2390 C2392 1.378 . S
C2390 C2394 1.350 . S
C2391 C2394 1.463 1_556 S
C2391 C2396 1.350 . S
C2391 N2399 1.429 1_556 S
C2392 H2383 0.930 . S
C2392 C2390 1.378 . S
C2392 C2393 1.367 . S
C2393 C2392 1.367 . S
C2393 C2395 1.433 . S
C2394 C2390 1.350 . S
C2394 C2391 1.463 1_554 S
C2394 N2398 1.429 1_554 S
C2395 H2385 0.929 . S
C2395 C2393 1.433 . S
C2395 N2398 1.386 1_554 S
C2396 H2387 0.929 . S
C2396 C2388 1.378 . S
C2396 C2391 1.350 . S
C2397 H2384 0.929 . S
C2397 C2389 1.433 . S
C2397 N2399 1.386 1_556 S
N2398 C2394 1.429 1_556 S
N2398 C2395 1.386 1_556 S
N2399 C2391 1.429 1_554 S
N2399 C2397 1.386 1_554 S
H2400 C2406 0.930 . S
H2401 C2410 0.930 . S
H2402 C2415 0.929 . S
H2403 C2413 0.929 . S
H2404 C2408 0.929 . S
H2405 C2414 0.929 . S
C2406 H2400 0.930 . S
C2406 C2407 1.367 . S
C2406 C2414 1.378 . S
C2407 C2406 1.367 . S
C2407 C2415 1.433 . S
C2408 H2404 0.929 . S
C2408 C2410 1.378 . S
C2408 C2412 1.350 . S
C2409 C2412 1.463 1_554 S
C2409 C2414 1.350 . S
C2409 N2417 1.427 . S
C2410 H2401 0.930 . S
C2410 C2408 1.378 . S
C2410 C2411 1.367 . S
C2411 C2410 1.367 . S
C2411 C2413 1.433 . S
C2412 C2408 1.350 . S
C2412 C2409 1.463 1_556 S
C2412 N2416 1.427 . S
C2413 H2403 0.929 . S
C2413 C2411 1.433 . S
C2413 N2416 1.384 . S
C2414 H2405 0.929 . S
C2414 C2406 1.378 . S
C2414 C2409 1.350 . S
C2415 H2402 0.929 . S
C2415 C2407 1.433 . S
C2415 N2417 1.384 . S
N2416 C2412 1.427 . S
N2416 C2413 1.384 . S
N2417 C2409 1.427 . S
N2417 C2415 1.384 . S
H2418 C2424 0.930 . S
H2419 C2428 0.930 . S
H2420 C2433 0.929 . S
H2421 C2431 0.929 . S
H2422 C2426 0.929 . S
H2423 C2432 0.929 . S
C2424 H2418 0.930 . S
C2424 C2425 1.367 . S
C2424 C2432 1.378 . S
C2425 C2424 1.367 . S
C2425 C2433 1.433 . S
C2426 H2422 0.929 . S
C2426 C2428 1.378 . S
C2426 C2430 1.350 . S
C2427 C2430 1.463 . S
C2427 C2432 1.350 . S
C2427 N2435 1.427 . S
C2428 H2419 0.930 . S
C2428 C2426 1.378 . S
C2428 C2429 1.367 . S
C2429 C2428 1.367 . S
C2429 C2431 1.433 . S
C2430 C2426 1.350 . S
C2430 C2427 1.463 . S
C2430 N2434 1.427 . S
C2431 H2421 0.929 . S
C2431 C2429 1.433 . S
C2431 N2434 1.384 . S
C2432 H2423 0.929 . S
C2432 C2424 1.378 . S
C2432 C2427 1.350 . S
C2433 H2420 0.929 . S
C2433 C2425 1.433 . S
C2433 N2435 1.384 . S
N2434 C2430 1.427 . S
N2434 C2431 1.384 . S
N2435 C2427 1.427 . S
N2435 C2433 1.384 . S
H2436 C2442 0.930 . S
H2437 C2446 0.930 . S
H2438 C2451 0.929 . S
H2439 C2449 0.929 . S
H2440 C2444 0.929 . S
H2441 C2450 0.929 . S
C2442 H2436 0.930 . S
C2442 C2443 1.367 . S
C2442 C2450 1.378 . S
C2443 C2442 1.367 . S
C2443 C2451 1.433 . S
C2444 H2440 0.929 . S
C2444 C2446 1.378 . S
C2444 C2448 1.350 . S
C2445 C2448 1.463 . S
C2445 C2450 1.350 . S
C2445 N2453 1.427 . S
C2446 H2437 0.930 . S
C2446 C2444 1.378 . S
C2446 C2447 1.367 . S
C2447 C2446 1.367 . S
C2447 C2449 1.433 . S
C2448 C2444 1.350 . S
C2448 C2445 1.463 . S
C2448 N2452 1.427 . S
C2449 H2439 0.929 . S
C2449 C2447 1.433 . S
C2449 N2452 1.384 . S
C2450 H2441 0.929 . S
C2450 C2442 1.378 . S
C2450 C2445 1.350 . S
C2451 H2438 0.929 . S
C2451 C2443 1.433 . S
C2451 N2453 1.384 . S
N2452 C2448 1.427 . S
N2452 C2449 1.384 . S
N2453 C2445 1.427 . S
N2453 C2451 1.384 . S
H2454 C2460 0.930 . S
H2455 C2464 0.930 . S
H2456 C2469 0.929 . S
H2457 C2467 0.929 . S
H2458 C2462 0.929 . S
H2459 C2468 0.929 . S
C2460 H2454 0.930 . S
C2460 C2461 1.367 . S
C2460 C2468 1.378 . S
C2461 C2460 1.367 . S
C2461 C2469 1.433 . S
C2462 H2458 0.929 . S
C2462 C2464 1.378 . S
C2462 C2466 1.350 . S
C2463 C2466 1.463 . S
C2463 C2468 1.350 . S
C2463 N2471 1.427 . S
C2464 H2455 0.930 . S
C2464 C2462 1.378 . S
C2464 C2465 1.367 . S
C2465 C2464 1.367 . S
C2465 C2467 1.433 . S
C2466 C2462 1.350 . S
C2466 C2463 1.463 . S
C2466 N2470 1.427 . S
C2467 H2457 0.929 . S
C2467 C2465 1.433 . S
C2467 N2470 1.384 . S
C2468 H2459 0.929 . S
C2468 C2460 1.378 . S
C2468 C2463 1.350 . S
C2469 H2456 0.929 . S
C2469 C2461 1.433 . S
C2469 N2471 1.384 . S
N2470 C2466 1.427 . S
N2470 C2467 1.384 . S
N2471 C2463 1.427 . S
N2471 C2469 1.384 . S
H2472 C2478 0.930 . S
H2473 C2482 0.930 . S
H2474 C2487 0.929 . S
H2475 C2485 0.929 . S
H2476 C2480 0.929 . S
H2477 C2486 0.929 . S
C2478 H2472 0.930 . S
C2478 C2479 1.367 . S
C2478 C2486 1.378 . S
C2479 C2478 1.367 . S
C2479 C2487 1.433 . S
C2480 H2476 0.929 . S
C2480 C2482 1.378 . S
C2480 C2484 1.350 . S
C2481 C2484 1.463 . S
C2481 C2486 1.350 . S
C2481 N2489 1.427 . S
C2482 H2473 0.930 . S
C2482 C2480 1.378 . S
C2482 C2483 1.367 . S
C2483 C2482 1.367 . S
C2483 C2485 1.433 . S
C2484 C2480 1.350 . S
C2484 C2481 1.463 . S
C2484 N2488 1.427 . S
C2485 H2475 0.929 . S
C2485 C2483 1.433 . S
C2485 N2488 1.384 . S
C2486 H2477 0.929 . S
C2486 C2478 1.378 . S
C2486 C2481 1.350 . S
C2487 H2474 0.929 . S
C2487 C2479 1.433 . S
C2487 N2489 1.384 . S
N2488 C2484 1.427 . S
N2488 C2485 1.384 . S
N2489 C2481 1.427 . S
N2489 C2487 1.384 . S
H2490 C2496 0.930 . S
H2491 C2500 0.930 . S
H2492 C2505 0.929 . S
H2493 C2503 0.929 . S
H2494 C2498 0.929 . S
H2495 C2504 0.929 . S
C2496 H2490 0.930 . S
C2496 C2497 1.367 . S
C2496 C2504 1.378 . S
C2497 C2496 1.367 . S
C2497 C2505 1.433 . S
C2498 H2494 0.929 . S
C2498 C2500 1.378 . S
C2498 C2502 1.350 . S
C2499 C2502 1.463 1_565 S
C2499 C2504 1.350 . S
C2499 N2507 1.439 . S
C2500 H2491 0.930 . S
C2500 C2498 1.378 . S
C2500 C2501 1.367 . S
C2501 C2500 1.367 . S
C2501 C2503 1.433 . S
C2502 C2498 1.350 . S
C2502 C2499 1.463 1_545 S
C2502 N2506 1.439 . S
C2503 H2493 0.929 . S
C2503 C2501 1.433 . S
C2503 N2506 1.406 . S
C2504 H2495 0.929 . S
C2504 C2496 1.378 . S
C2504 C2499 1.350 . S
C2505 H2492 0.929 . S
C2505 C2497 1.433 . S
C2505 N2507 1.406 . S
N2506 C2502 1.439 . S
N2506 C2503 1.406 . S
N2507 C2499 1.439 . S
N2507 C2505 1.406 . S
H2508 C2514 0.930 . S
H2509 C2518 0.930 . S
H2510 C2523 0.929 . S
H2511 C2521 0.929 . S
H2512 C2516 0.929 . S
H2513 C2522 0.929 . S
C2514 H2508 0.930 . S
C2514 C2515 1.367 . S
C2514 C2522 1.378 . S
C2515 C2514 1.367 . S
C2515 C2523 1.433 . S
C2516 H2512 0.929 . S
C2516 C2518 1.378 . S
C2516 C2520 1.350 . S
C2517 C2520 1.463 . S
C2517 C2522 1.350 . S
C2517 N2525 1.427 . S
C2518 H2509 0.930 . S
C2518 C2516 1.378 . S
C2518 C2519 1.367 . S
C2519 C2518 1.367 . S
C2519 C2521 1.433 . S
C2520 C2516 1.350 . S
C2520 C2517 1.463 . S
C2520 N2524 1.427 . S
C2521 H2511 0.929 . S
C2521 C2519 1.433 . S
C2521 N2524 1.384 . S
C2522 H2513 0.929 . S
C2522 C2514 1.378 . S
C2522 C2517 1.350 . S
C2523 H2510 0.929 . S
C2523 C2515 1.433 . S
C2523 N2525 1.384 . S
N2524 C2520 1.427 . S
N2524 C2521 1.384 . S
N2525 C2517 1.427 . S
N2525 C2523 1.384 . S
H2526 C2532 0.930 . S
H2527 C2536 0.930 . S
H2528 C2541 0.929 . S
H2529 C2539 0.929 . S
H2530 C2534 0.929 . S
H2531 C2540 0.929 . S
C2532 H2526 0.930 . S
C2532 C2533 1.367 . S
C2532 C2540 1.378 . S
C2533 C2532 1.367 . S
C2533 C2541 1.433 . S
C2534 H2530 0.929 . S
C2534 C2536 1.378 . S
C2534 C2538 1.350 . S
C2535 C2538 1.463 1_455 S
C2535 C2540 1.350 . S
C2535 N2543 1.427 1_455 S
C2536 H2527 0.930 . S
C2536 C2534 1.378 . S
C2536 C2537 1.367 . S
C2537 C2536 1.367 . S
C2537 C2539 1.433 . S
C2538 C2534 1.350 . S
C2538 C2535 1.463 1_655 S
C2538 N2542 1.427 1_655 S
C2539 H2529 0.929 . S
C2539 C2537 1.433 . S
C2539 N2542 1.384 1_655 S
C2540 H2531 0.929 . S
C2540 C2532 1.378 . S
C2540 C2535 1.350 . S
C2541 H2528 0.929 . S
C2541 C2533 1.433 . S
C2541 N2543 1.384 1_455 S
N2542 C2538 1.427 1_455 S
N2542 C2539 1.384 1_455 S
N2543 C2535 1.427 1_655 S
N2543 C2541 1.384 1_655 S
H2544 C2550 0.930 . S
H2545 C2554 0.930 . S
H2546 C2559 0.929 . S
H2547 C2557 0.929 . S
H2548 C2552 0.929 . S
H2549 C2558 0.929 . S
C2550 H2544 0.930 . S
C2550 C2551 1.367 . S
C2550 C2558 1.378 . S
C2551 C2550 1.367 . S
C2551 C2559 1.433 . S
C2552 H2548 0.929 . S
C2552 C2554 1.378 . S
C2552 C2556 1.350 . S
C2553 C2556 1.463 . S
C2553 C2558 1.350 . S
C2553 N2561 1.427 . S
C2554 H2545 0.930 . S
C2554 C2552 1.378 . S
C2554 C2555 1.367 . S
C2555 C2554 1.367 . S
C2555 C2557 1.433 . S
C2556 C2552 1.350 . S
C2556 C2553 1.463 . S
C2556 N2560 1.427 . S
C2557 H2547 0.929 . S
C2557 C2555 1.433 . S
C2557 N2560 1.384 . S
C2558 H2549 0.929 . S
C2558 C2550 1.378 . S
C2558 C2553 1.350 . S
C2559 H2546 0.929 . S
C2559 C2551 1.433 . S
C2559 N2561 1.384 . S
N2560 C2556 1.427 . S
N2560 C2557 1.384 . S
N2561 C2553 1.427 . S
N2561 C2559 1.384 . S
H2562 C2568 0.930 . S
H2563 C2572 0.930 . S
H2564 C2577 0.929 . S
H2565 C2575 0.929 . S
H2566 C2570 0.929 . S
H2567 C2576 0.929 . S
C2568 H2562 0.930 . S
C2568 C2569 1.367 . S
C2568 C2576 1.378 . S
C2569 C2568 1.367 . S
C2569 C2577 1.433 . S
C2570 H2566 0.929 . S
C2570 C2572 1.378 . S
C2570 C2574 1.350 . S
C2571 C2574 1.463 . S
C2571 C2576 1.350 . S
C2571 N2579 1.427 . S
C2572 H2563 0.930 . S
C2572 C2570 1.378 . S
C2572 C2573 1.367 . S
C2573 C2572 1.367 . S
C2573 C2575 1.433 . S
C2574 C2570 1.350 . S
C2574 C2571 1.463 . S
C2574 N2578 1.427 . S
C2575 H2565 0.929 . S
C2575 C2573 1.433 . S
C2575 N2578 1.384 . S
C2576 H2567 0.929 . S
C2576 C2568 1.378 . S
C2576 C2571 1.350 . S
C2577 H2564 0.929 . S
C2577 C2569 1.433 . S
C2577 N2579 1.384 . S
N2578 C2574 1.427 . S
N2578 C2575 1.384 . S
N2579 C2571 1.427 . S
N2579 C2577 1.384 . S
H2580 C2586 0.930 . S
H2581 C2590 0.930 . S
H2582 C2595 0.929 . S
H2583 C2593 0.929 . S
H2584 C2588 0.929 . S
H2585 C2594 0.929 . S
C2586 H2580 0.930 . S
C2586 C2587 1.367 . S
C2586 C2594 1.378 . S
C2587 C2586 1.367 . S
C2587 C2595 1.433 . S
C2588 H2584 0.929 . S
C2588 C2590 1.378 . S
C2588 C2592 1.350 . S
C2589 C2592 1.463 . S
C2589 C2594 1.350 . S
C2589 N2597 1.427 . S
C2590 H2581 0.930 . S
C2590 C2588 1.378 . S
C2590 C2591 1.367 . S
C2591 C2590 1.367 . S
C2591 C2593 1.433 . S
C2592 C2588 1.350 . S
C2592 C2589 1.463 . S
C2592 N2596 1.427 . S
C2593 H2583 0.929 . S
C2593 C2591 1.433 . S
C2593 N2596 1.384 . S
C2594 H2585 0.929 . S
C2594 C2586 1.378 . S
C2594 C2589 1.350 . S
C2595 H2582 0.929 . S
C2595 C2587 1.433 . S
C2595 N2597 1.384 . S
N2596 C2592 1.427 . S
N2596 C2593 1.384 . S
N2597 C2589 1.427 . S
N2597 C2595 1.384 . S
H2598 C2604 0.930 . S
H2599 C2608 0.930 . S
H2600 C2613 0.929 . S
H2601 C2611 0.929 . S
H2602 C2606 0.929 . S
H2603 C2612 0.929 . S
C2604 H2598 0.930 . S
C2604 C2605 1.367 . S
C2604 C2612 1.378 . S
C2605 C2604 1.367 . S
C2605 C2613 1.433 . S
C2606 H2602 0.929 . S
C2606 C2608 1.378 . S
C2606 C2610 1.350 . S
C2607 C2610 1.463 . S
C2607 C2612 1.350 . S
C2607 N2615 1.427 . S
C2608 H2599 0.930 . S
C2608 C2606 1.378 . S
C2608 C2609 1.367 . S
C2609 C2608 1.367 . S
C2609 C2611 1.433 . S
C2610 C2606 1.350 . S
C2610 C2607 1.463 . S
C2610 N2614 1.427 . S
C2611 H2601 0.929 . S
C2611 C2609 1.433 . S
C2611 N2614 1.384 . S
C2612 H2603 0.929 . S
C2612 C2604 1.378 . S
C2612 C2607 1.350 . S
C2613 H2600 0.929 . S
C2613 C2605 1.433 . S
C2613 N2615 1.384 . S
N2614 C2610 1.427 . S
N2614 C2611 1.384 . S
N2615 C2607 1.427 . S
N2615 C2613 1.384 . S
H2616 C2622 0.930 . S
H2617 C2626 0.930 . S
H2618 C2631 0.929 . S
H2619 C2629 0.929 . S
H2620 C2624 0.929 . S
H2621 C2630 0.929 . S
C2622 H2616 0.930 . S
C2622 C2623 1.367 . S
C2622 C2630 1.378 . S
C2623 C2622 1.367 . S
C2623 C2631 1.433 . S
C2624 H2620 0.929 . S
C2624 C2626 1.378 . S
C2624 C2628 1.350 . S
C2625 C2628 1.463 1_565 S
C2625 C2630 1.350 . S
C2625 N2633 1.427 . S
C2626 H2617 0.930 . S
C2626 C2624 1.378 . S
C2626 C2627 1.367 . S
C2627 C2626 1.367 . S
C2627 C2629 1.433 . S
C2628 C2624 1.350 . S
C2628 C2625 1.463 1_545 S
C2628 N2632 1.427 . S
C2629 H2619 0.929 . S
C2629 C2627 1.433 . S
C2629 N2632 1.384 . S
C2630 H2621 0.929 . S
C2630 C2622 1.378 . S
C2630 C2625 1.350 . S
C2631 H2618 0.929 . S
C2631 C2623 1.433 . S
C2631 N2633 1.384 . S
N2632 C2628 1.427 . S
N2632 C2629 1.384 . S
N2633 C2625 1.427 . S
N2633 C2631 1.384 . S
H2634 C2640 0.930 . S
H2635 C2644 0.930 . S
H2636 C2649 0.929 . S
H2637 C2647 0.929 . S
H2638 C2642 0.929 . S
H2639 C2648 0.929 . S
C2640 H2634 0.930 . S
C2640 C2641 1.367 . S
C2640 C2648 1.378 . S
C2641 C2640 1.367 . S
C2641 C2649 1.433 . S
C2642 H2638 0.929 . S
C2642 C2644 1.378 . S
C2642 C2646 1.350 . S
C2643 C2646 1.463 . S
C2643 C2648 1.350 . S
C2643 N2651 1.427 . S
C2644 H2635 0.930 . S
C2644 C2642 1.378 . S
C2644 C2645 1.367 . S
C2645 C2644 1.367 . S
C2645 C2647 1.433 . S
C2646 C2642 1.350 . S
C2646 C2643 1.463 . S
C2646 N2650 1.427 . S
C2647 H2637 0.929 . S
C2647 C2645 1.433 . S
C2647 N2650 1.384 . S
C2648 H2639 0.929 . S
C2648 C2640 1.378 . S
C2648 C2643 1.350 . S
C2649 H2636 0.929 . S
C2649 C2641 1.433 . S
C2649 N2651 1.384 . S
N2650 C2646 1.427 . S
N2650 C2647 1.384 . S
N2651 C2643 1.427 . S
N2651 C2649 1.384 . S
H2652 C2658 0.930 . S
H2653 C2662 0.930 . S
H2654 C2667 0.929 . S
H2655 C2665 0.929 . S
H2656 C2660 0.929 . S
H2657 C2666 0.929 . S
C2658 H2652 0.930 . S
C2658 C2659 1.367 . S
C2658 C2666 1.378 . S
C2659 C2658 1.367 . S
C2659 C2667 1.433 . S
C2660 H2656 0.929 . S
C2660 C2662 1.378 . S
C2660 C2664 1.350 . S
C2661 C2664 1.463 1_556 S
C2661 C2666 1.350 . S
C2661 N2669 1.427 . S
C2662 H2653 0.930 . S
C2662 C2660 1.378 . S
C2662 C2663 1.367 . S
C2663 C2662 1.367 . S
C2663 C2665 1.433 . S
C2664 C2660 1.350 . S
C2664 C2661 1.463 1_554 S
C2664 N2668 1.427 . S
C2665 H2655 0.929 . S
C2665 C2663 1.433 . S
C2665 N2668 1.384 . S
C2666 H2657 0.929 . S
C2666 C2658 1.378 . S
C2666 C2661 1.350 . S
C2667 H2654 0.929 . S
C2667 C2659 1.433 . S
C2667 N2669 1.384 . S
N2668 C2664 1.427 . S
N2668 C2665 1.384 . S
N2669 C2661 1.427 . S
N2669 C2667 1.384 . S
H2670 C2676 0.930 . S
H2671 C2680 0.930 . S
H2672 C2685 0.929 . S
H2673 C2683 0.929 . S
H2674 C2678 0.929 . S
H2675 C2684 0.929 . S
C2676 H2670 0.930 . S
C2676 C2677 1.367 . S
C2676 C2684 1.378 . S
C2677 C2676 1.367 . S
C2677 C2685 1.433 . S
C2678 H2674 0.929 . S
C2678 C2680 1.378 . S
C2678 C2682 1.350 . S
C2679 C2682 1.463 1_565 S
C2679 C2684 1.350 . S
C2679 N2687 1.427 1_565 S
C2680 H2671 0.930 . S
C2680 C2678 1.378 . S
C2680 C2681 1.367 . S
C2681 C2680 1.367 . S
C2681 C2683 1.433 . S
C2682 C2678 1.350 . S
C2682 C2679 1.463 1_545 S
C2682 N2686 1.427 1_545 S
C2683 H2673 0.929 . S
C2683 C2681 1.433 . S
C2683 N2686 1.384 1_545 S
C2684 H2675 0.929 . S
C2684 C2676 1.378 . S
C2684 C2679 1.350 . S
C2685 H2672 0.929 . S
C2685 C2677 1.433 . S
C2685 N2687 1.384 1_565 S
N2686 C2682 1.427 1_565 S
N2686 C2683 1.384 1_565 S
N2687 C2679 1.427 1_545 S
N2687 C2685 1.384 1_545 S
H2688 C2694 0.930 . S
H2689 C2698 0.930 . S
H2690 C2703 0.929 . S
H2691 C2701 0.929 . S
H2692 C2696 0.929 . S
H2693 C2702 0.929 . S
C2694 H2688 0.930 . S
C2694 C2695 1.367 . S
C2694 C2702 1.378 . S
C2695 C2694 1.367 . S
C2695 C2703 1.433 . S
C2696 H2692 0.929 . S
C2696 C2698 1.378 . S
C2696 C2700 1.350 . S
C2697 C2700 1.463 . S
C2697 C2702 1.350 . S
C2697 N2705 1.427 . S
C2698 H2689 0.930 . S
C2698 C2696 1.378 . S
C2698 C2699 1.367 . S
C2699 C2698 1.367 . S
C2699 C2701 1.433 . S
C2700 C2696 1.350 . S
C2700 C2697 1.463 . S
C2700 N2704 1.427 . S
C2701 H2691 0.929 . S
C2701 C2699 1.433 . S
C2701 N2704 1.384 . S
C2702 H2693 0.929 . S
C2702 C2694 1.378 . S
C2702 C2697 1.350 . S
C2703 H2690 0.929 . S
C2703 C2695 1.433 . S
C2703 N2705 1.384 . S
N2704 C2700 1.427 . S
N2704 C2701 1.384 . S
N2705 C2697 1.427 . S
N2705 C2703 1.384 . S
H2706 C2712 0.930 . S
H2707 C2716 0.930 . S
H2708 C2721 0.929 . S
H2709 C2719 0.929 . S
H2710 C2714 0.929 . S
H2711 C2720 0.929 . S
C2712 H2706 0.930 . S
C2712 C2713 1.367 . S
C2712 C2720 1.378 . S
C2713 C2712 1.367 . S
C2713 C2721 1.433 . S
C2714 H2710 0.929 . S
C2714 C2716 1.378 . S
C2714 C2718 1.350 . S
C2715 C2718 1.463 . S
C2715 C2720 1.350 . S
C2715 N2723 1.427 . S
C2716 H2707 0.930 . S
C2716 C2714 1.378 . S
C2716 C2717 1.367 . S
C2717 C2716 1.367 . S
C2717 C2719 1.433 . S
C2718 C2714 1.350 . S
C2718 C2715 1.463 . S
C2718 N2722 1.427 . S
C2719 H2709 0.929 . S
C2719 C2717 1.433 . S
C2719 N2722 1.384 . S
C2720 H2711 0.929 . S
C2720 C2712 1.378 . S
C2720 C2715 1.350 . S
C2721 H2708 0.929 . S
C2721 C2713 1.433 . S
C2721 N2723 1.384 . S
N2722 C2718 1.427 . S
N2722 C2719 1.384 . S
N2723 C2715 1.427 . S
N2723 C2721 1.384 . S
H2724 C2730 0.930 . S
H2725 C2734 0.930 . S
H2726 C2739 0.929 . S
H2727 C2737 0.929 . S
H2728 C2732 0.929 . S
H2729 C2738 0.929 . S
C2730 H2724 0.930 . S
C2730 C2731 1.367 . S
C2730 C2738 1.378 . S
C2731 C2730 1.367 . S
C2731 C2739 1.433 . S
C2732 H2728 0.929 . S
C2732 C2734 1.378 . S
C2732 C2736 1.350 . S
C2733 C2736 1.463 . S
C2733 C2738 1.350 . S
C2733 N2741 1.427 . S
C2734 H2725 0.930 . S
C2734 C2732 1.378 . S
C2734 C2735 1.367 . S
C2735 C2734 1.367 . S
C2735 C2737 1.433 . S
C2736 C2732 1.350 . S
C2736 C2733 1.463 . S
C2736 N2740 1.427 . S
C2737 H2727 0.929 . S
C2737 C2735 1.433 . S
C2737 N2740 1.384 . S
C2738 H2729 0.929 . S
C2738 C2730 1.378 . S
C2738 C2733 1.350 . S
C2739 H2726 0.929 . S
C2739 C2731 1.433 . S
C2739 N2741 1.384 . S
N2740 C2736 1.427 . S
N2740 C2737 1.384 . S
N2741 C2733 1.427 . S
N2741 C2739 1.384 . S
H2742 C2748 0.930 . S
H2743 C2752 0.930 . S
H2744 C2757 0.929 . S
H2745 C2755 0.929 . S
H2746 C2750 0.929 . S
H2747 C2756 0.929 . S
C2748 H2742 0.930 . S
C2748 C2749 1.367 . S
C2748 C2756 1.378 . S
C2749 C2748 1.367 . S
C2749 C2757 1.433 . S
C2750 H2746 0.929 . S
C2750 C2752 1.378 . S
C2750 C2754 1.350 . S
C2751 C2754 1.463 . S
C2751 C2756 1.350 . S
C2751 N2759 1.427 . S
C2752 H2743 0.930 . S
C2752 C2750 1.378 . S
C2752 C2753 1.367 1_565 S
C2753 C2752 1.367 1_545 S
C2753 C2755 1.433 . S
C2754 C2750 1.350 . S
C2754 C2751 1.463 . S
C2754 N2758 1.427 . S
C2755 H2745 0.929 . S
C2755 C2753 1.433 . S
C2755 N2758 1.384 1_545 S
C2756 H2747 0.929 . S
C2756 C2748 1.378 . S
C2756 C2751 1.350 . S
C2757 H2744 0.929 . S
C2757 C2749 1.433 . S
C2757 N2759 1.384 . S
N2758 C2754 1.427 . S
N2758 C2755 1.384 1_565 S
N2759 C2751 1.427 . S
N2759 C2757 1.384 . S
H2760 C2766 0.930 . S
H2761 C2770 0.930 . S
H2762 C2775 0.929 . S
H2763 C2773 0.929 . S
H2764 C2768 0.929 . S
H2765 C2774 0.929 . S
C2766 H2760 0.930 . S
C2766 C2767 1.367 . S
C2766 C2774 1.378 . S
C2767 C2766 1.367 . S
C2767 C2775 1.433 . S
C2768 H2764 0.929 . S
C2768 C2770 1.378 . S
C2768 C2772 1.350 . S
C2769 C2772 1.463 . S
C2769 C2774 1.350 . S
C2769 N2777 1.427 . S
C2770 H2761 0.930 . S
C2770 C2768 1.378 . S
C2770 C2771 1.367 . S
C2771 C2770 1.367 . S
C2771 C2773 1.433 . S
C2772 C2768 1.350 . S
C2772 C2769 1.463 . S
C2772 N2776 1.427 . S
C2773 H2763 0.929 . S
C2773 C2771 1.433 . S
C2773 N2776 1.384 . S
C2774 H2765 0.929 . S
C2774 C2766 1.378 . S
C2774 C2769 1.350 . S
C2775 H2762 0.929 . S
C2775 C2767 1.433 . S
C2775 N2777 1.384 . S
N2776 C2772 1.427 . S
N2776 C2773 1.384 . S
N2777 C2769 1.427 . S
N2777 C2775 1.384 . S
H2778 C2784 0.930 . S
H2779 C2788 0.930 . S
H2780 C2793 0.929 . S
H2781 C2791 0.929 . S
H2782 C2786 0.929 . S
H2783 C2792 0.929 . S
C2784 H2778 0.930 . S
C2784 C2785 1.367 . S
C2784 C2792 1.378 . S
C2785 C2784 1.367 . S
C2785 C2793 1.433 . S
C2786 H2782 0.929 . S
C2786 C2788 1.378 . S
C2786 C2790 1.338 1_655 S
C2787 C2790 1.480 . S
C2787 C2792 1.350 . S
C2787 N2795 1.427 . S
C2788 H2779 0.930 . S
C2788 C2786 1.378 . S
C2788 C2789 1.367 . S
C2789 C2788 1.367 . S
C2789 C2791 1.433 . S
C2790 C2786 1.338 1_455 S
C2790 C2787 1.480 . S
C2790 N2794 1.423 1_455 S
C2791 H2781 0.929 . S
C2791 C2789 1.433 . S
C2791 N2794 1.384 . S
C2792 H2783 0.929 . S
C2792 C2784 1.378 . S
C2792 C2787 1.350 . S
C2793 H2780 0.929 . S
C2793 C2785 1.433 . S
C2793 N2795 1.384 . S
N2794 C2790 1.423 1_655 S
N2794 C2791 1.384 . S
N2795 C2787 1.427 . S
N2795 C2793 1.384 . S
H2796 C2802 0.930 . S
H2797 C2806 0.930 . S
H2798 C2811 0.929 . S
H2799 C2809 0.929 . S
H2800 C2804 0.929 . S
H2801 C2810 0.929 . S
C2802 H2796 0.930 . S
C2802 C2803 1.367 . S
C2802 C2810 1.378 . S
C2803 C2802 1.367 . S
C2803 C2811 1.433 . S
C2804 H2800 0.929 . S
C2804 C2806 1.378 . S
C2804 C2808 1.350 . S
C2805 C2808 1.463 . S
C2805 C2810 1.350 . S
C2805 N2813 1.427 . S
C2806 H2797 0.930 . S
C2806 C2804 1.378 . S
C2806 C2807 1.367 . S
C2807 C2806 1.367 . S
C2807 C2809 1.433 . S
C2808 C2804 1.350 . S
C2808 C2805 1.463 . S
C2808 N2812 1.427 . S
C2809 H2799 0.929 . S
C2809 C2807 1.433 . S
C2809 N2812 1.384 . S
C2810 H2801 0.929 . S
C2810 C2802 1.378 . S
C2810 C2805 1.350 . S
C2811 H2798 0.929 . S
C2811 C2803 1.433 . S
C2811 N2813 1.384 . S
N2812 C2808 1.427 . S
N2812 C2809 1.384 . S
N2813 C2805 1.427 . S
N2813 C2811 1.384 . S
H2814 C2820 0.930 . S
H2815 C2824 0.930 . S
H2816 C2829 0.929 . S
H2817 C2827 0.929 . S
H2818 C2822 0.929 . S
H2819 C2828 0.929 . S
C2820 H2814 0.930 . S
C2820 C2821 1.367 1_565 S
C2820 C2828 1.378 . S
C2821 C2820 1.367 1_545 S
C2821 C2829 1.433 . S
C2822 H2818 0.929 . S
C2822 C2824 1.378 . S
C2822 C2826 1.348 1_455 S
C2823 C2826 1.464 . S
C2823 C2828 1.350 . S
C2823 N2831 1.427 . S
C2824 H2815 0.930 . S
C2824 C2822 1.378 . S
C2824 C2825 1.367 . S
C2825 C2824 1.367 . S
C2825 C2827 1.433 . S
C2826 C2822 1.348 1_655 S
C2826 C2823 1.464 . S
C2826 N2830 1.428 . S
C2827 H2817 0.929 . S
C2827 C2825 1.433 . S
C2827 N2830 1.384 1_455 S
C2828 H2819 0.929 . S
C2828 C2820 1.378 . S
C2828 C2823 1.350 . S
C2829 H2816 0.929 . S
C2829 C2821 1.433 . S
C2829 N2831 1.384 1_545 S
N2830 C2826 1.428 . S
N2830 C2827 1.384 1_655 S
N2831 C2823 1.427 . S
N2831 C2829 1.384 1_565 S
H2832 C2838 0.930 . S
H2833 C2842 0.930 . S
H2834 C2847 0.929 . S
H2835 C2845 0.929 . S
H2836 C2840 0.929 . S
H2837 C2846 0.929 . S
C2838 H2832 0.930 . S
C2838 C2839 1.367 . S
C2838 C2846 1.378 . S
C2839 C2838 1.367 . S
C2839 C2847 1.433 . S
C2840 H2836 0.929 . S
C2840 C2842 1.378 . S
C2840 C2844 1.350 . S
C2841 C2844 1.463 . S
C2841 C2846 1.350 . S
C2841 N2849 1.427 . S
C2842 H2833 0.930 . S
C2842 C2840 1.378 . S
C2842 C2843 1.367 . S
C2843 C2842 1.367 . S
C2843 C2845 1.433 . S
C2844 C2840 1.350 . S
C2844 C2841 1.463 . S
C2844 N2848 1.427 . S
C2845 H2835 0.929 . S
C2845 C2843 1.433 . S
C2845 N2848 1.384 . S
C2846 H2837 0.929 . S
C2846 C2838 1.378 . S
C2846 C2841 1.350 . S
C2847 H2834 0.929 . S
C2847 C2839 1.433 . S
C2847 N2849 1.384 . S
N2848 C2844 1.427 . S
N2848 C2845 1.384 . S
N2849 C2841 1.427 . S
N2849 C2847 1.384 . S
H2850 C2856 0.930 . S
H2851 C2860 0.930 . S
H2852 C2865 0.929 . S
H2853 C2863 0.929 . S
H2854 C2858 0.929 . S
H2855 C2864 0.929 . S
C2856 H2850 0.930 . S
C2856 C2857 1.367 . S
C2856 C2864 1.378 . S
C2857 C2856 1.367 . S
C2857 C2865 1.433 . S
C2858 H2854 0.929 . S
C2858 C2860 1.378 . S
C2858 C2862 1.350 . S
C2859 C2862 1.465 . S
C2859 C2864 1.347 1_554 S
C2859 N2867 1.428 . S
C2860 H2851 0.930 . S
C2860 C2858 1.378 . S
C2860 C2861 1.367 . S
C2861 C2860 1.367 . S
C2861 C2863 1.433 . S
C2862 C2858 1.350 . S
C2862 C2859 1.465 . S
C2862 N2866 1.427 . S
C2863 H2853 0.929 . S
C2863 C2861 1.433 . S
C2863 N2866 1.384 . S
C2864 H2855 0.929 . S
C2864 C2856 1.378 . S
C2864 C2859 1.347 1_556 S
C2865 H2852 0.929 . S
C2865 C2857 1.433 . S
C2865 N2867 1.384 1_556 S
N2866 C2862 1.427 . S
N2866 C2863 1.384 . S
N2867 C2859 1.428 . S
N2867 C2865 1.384 1_554 S
H2868 C2874 0.930 . S
H2869 C2878 0.930 . S
H2870 C2883 0.929 . S
H2871 C2881 0.929 . S
H2872 C2876 0.929 . S
H2873 C2882 0.929 . S
C2874 H2868 0.930 . S
C2874 C2875 1.367 . S
C2874 C2882 1.378 . S
C2875 C2874 1.367 . S
C2875 C2883 1.433 . S
C2876 H2872 0.929 . S
C2876 C2878 1.378 . S
C2876 C2880 1.350 . S
C2877 C2880 1.463 . S
C2877 C2882 1.350 . S
C2877 N2885 1.427 . S
C2878 H2869 0.930 . S
C2878 C2876 1.378 . S
C2878 C2879 1.367 . S
C2879 C2878 1.367 . S
C2879 C2881 1.433 . S
C2880 C2876 1.350 . S
C2880 C2877 1.463 . S
C2880 N2884 1.427 . S
C2881 H2871 0.929 . S
C2881 C2879 1.433 . S
C2881 N2884 1.384 . S
C2882 H2873 0.929 . S
C2882 C2874 1.378 . S
C2882 C2877 1.350 . S
C2883 H2870 0.929 . S
C2883 C2875 1.433 . S
C2883 N2885 1.384 . S
N2884 C2880 1.427 . S
N2884 C2881 1.384 . S
N2885 C2877 1.427 . S
N2885 C2883 1.384 . S
H2886 C2892 0.930 . S
H2887 C2896 0.930 . S
H2888 C2901 0.929 . S
H2889 C2899 0.929 . S
H2890 C2894 0.929 . S
H2891 C2900 0.929 . S
C2892 H2886 0.930 . S
C2892 C2893 1.367 . S
C2892 C2900 1.378 . S
C2893 C2892 1.367 . S
C2893 C2901 1.433 . S
C2894 H2890 0.929 . S
C2894 C2896 1.378 . S
C2894 C2898 1.350 . S
C2895 C2898 1.472 . S
C2895 C2900 1.341 1_554 S
C2895 N2903 1.426 . S
C2896 H2887 0.930 . S
C2896 C2894 1.378 . S
C2896 C2897 1.367 . S
C2897 C2896 1.367 . S
C2897 C2899 1.433 . S
C2898 C2894 1.350 . S
C2898 C2895 1.472 . S
C2898 N2902 1.427 . S
C2899 H2889 0.929 . S
C2899 C2897 1.433 . S
C2899 N2902 1.384 . S
C2900 H2891 0.929 . S
C2900 C2892 1.378 . S
C2900 C2895 1.341 1_556 S
C2901 H2888 0.929 . S
C2901 C2893 1.433 . S
C2901 N2903 1.339 1_556 S
N2902 C2898 1.427 . S
N2902 C2899 1.384 . S
N2903 C2895 1.426 . S
N2903 C2901 1.339 1_554 S
H2904 C2910 0.930 . S
H2905 C2914 0.930 . S
H2906 C2919 0.929 . S
H2907 C2917 0.929 . S
H2908 C2912 0.929 . S
H2909 C2918 0.929 . S
C2910 H2904 0.930 . S
C2910 C2911 1.367 . S
C2910 C2918 1.378 . S
C2911 C2910 1.367 . S
C2911 C2919 1.433 . S
C2912 H2908 0.929 . S
C2912 C2914 1.378 . S
C2912 C2916 1.350 . S
C2913 C2916 1.463 . S
C2913 C2918 1.350 . S
C2913 N2921 1.427 . S
C2914 H2905 0.930 . S
C2914 C2912 1.378 . S
C2914 C2915 1.367 . S
C2915 C2914 1.367 . S
C2915 C2917 1.433 . S
C2916 C2912 1.350 . S
C2916 C2913 1.463 . S
C2916 N2920 1.427 . S
C2917 H2907 0.929 . S
C2917 C2915 1.433 . S
C2917 N2920 1.384 . S
C2918 H2909 0.929 . S
C2918 C2910 1.378 . S
C2918 C2913 1.350 . S
C2919 H2906 0.929 . S
C2919 C2911 1.433 . S
C2919 N2921 1.384 . S
N2920 C2916 1.427 . S
N2920 C2917 1.384 . S
N2921 C2913 1.427 . S
N2921 C2919 1.384 . S
H2922 C2928 0.930 . S
H2923 C2932 0.930 . S
H2924 C2937 0.929 . S
H2925 C2935 0.929 . S
H2926 C2930 0.929 . S
H2927 C2936 0.928 1_654 S
C2928 H2922 0.930 . S
C2928 C2929 1.367 . S
C2928 C2936 1.378 1_655 S
C2929 C2928 1.367 . S
C2929 C2937 1.433 1_655 S
C2930 H2926 0.929 . S
C2930 C2932 1.378 1_556 S
C2930 C2934 1.365 . S
C2931 C2934 1.503 . S
C2931 C2936 1.350 . S
C2931 N2939 1.427 . S
C2932 H2923 0.930 . S
C2932 C2930 1.378 1_554 S
C2932 C2933 1.367 . S
C2933 C2932 1.367 . S
C2933 C2935 1.433 . S
C2934 C2930 1.365 . S
C2934 C2931 1.503 . S
C2934 N2938 1.372 1_556 S
C2935 H2925 0.929 . S
C2935 C2933 1.433 . S
C2935 N2938 1.384 . S
C2936 H2927 0.928 1_456 S
C2936 C2928 1.378 1_455 S
C2936 C2931 1.350 . S
C2937 H2924 0.929 . S
C2937 C2929 1.433 1_455 S
C2937 N2939 1.384 . S
N2938 C2934 1.372 1_554 S
N2938 C2935 1.384 . S
N2939 C2931 1.427 . S
N2939 C2937 1.384 . S
H2940 C2946 0.930 . S
H2941 C2950 0.930 . S
H2942 C2955 0.929 . S
H2943 C2953 0.929 . S
H2944 C2948 0.929 . S
H2945 C2954 0.929 . S
C2946 H2940 0.930 . S
C2946 C2947 1.367 . S
C2946 C2954 1.378 . S
C2947 C2946 1.367 . S
C2947 C2955 1.433 . S
C2948 H2944 0.929 . S
C2948 C2950 1.378 . S
C2948 C2952 1.350 . S
C2949 C2952 1.463 . S
C2949 C2954 1.350 . S
C2949 N2957 1.427 . S
C2950 H2941 0.930 . S
C2950 C2948 1.378 . S
C2950 C2951 1.367 . S
C2951 C2950 1.367 . S
C2951 C2953 1.433 . S
C2952 C2948 1.350 . S
C2952 C2949 1.463 . S
C2952 N2956 1.427 . S
C2953 H2943 0.929 . S
C2953 C2951 1.433 . S
C2953 N2956 1.384 . S
C2954 H2945 0.929 . S
C2954 C2946 1.378 . S
C2954 C2949 1.350 . S
C2955 H2942 0.929 . S
C2955 C2947 1.433 . S
C2955 N2957 1.384 . S
N2956 C2952 1.427 . S
N2956 C2953 1.384 . S
N2957 C2949 1.427 . S
N2957 C2955 1.384 . S
H2958 C2964 0.930 . S
H2959 C2968 0.930 . S
H2960 C2973 0.929 . S
H2961 C2971 0.929 . S
H2962 C2966 0.929 . S
H2963 C2972 0.929 1_454 S
C2964 H2958 0.930 . S
C2964 C2965 1.367 . S
C2964 C2972 1.378 1_455 S
C2965 C2964 1.367 . S
C2965 C2973 1.433 1_455 S
C2966 H2962 0.929 . S
C2966 C2968 1.378 1_556 S
C2966 C2970 1.364 . S
C2967 C2970 1.503 . S
C2967 C2972 1.350 . S
C2967 N2975 1.427 . S
C2968 H2959 0.930 . S
C2968 C2966 1.378 1_554 S
C2968 C2969 1.367 . S
C2969 C2968 1.367 . S
C2969 C2971 1.433 . S
C2970 C2966 1.364 . S
C2970 C2967 1.503 . S
C2970 N2974 1.373 1_556 S
C2971 H2961 0.929 . S
C2971 C2969 1.433 . S
C2971 N2974 1.384 . S
C2972 H2963 0.929 1_656 S
C2972 C2964 1.378 1_655 S
C2972 C2967 1.350 . S
C2973 H2960 0.929 . S
C2973 C2965 1.433 1_655 S
C2973 N2975 1.384 . S
N2974 C2970 1.373 1_554 S
N2974 C2971 1.384 . S
N2975 C2967 1.427 . S
N2975 C2973 1.384 . S
H2976 C2982 0.930 . S
H2977 C2986 0.930 . S
H2978 C2991 0.929 . S
H2979 C2989 0.929 . S
H2980 C2984 0.929 . S
H2981 C2990 0.929 . S
C2982 H2976 0.930 . S
C2982 C2983 1.367 . S
C2982 C2990 1.378 . S
C2983 C2982 1.367 . S
C2983 C2991 1.433 . S
C2984 H2980 0.929 . S
C2984 C2986 1.378 . S
C2984 C2988 1.350 . S
C2985 C2988 1.463 . S
C2985 C2990 1.350 . S
C2985 N2993 1.427 . S
C2986 H2977 0.930 . S
C2986 C2984 1.378 . S
C2986 C2987 1.367 . S
C2987 C2986 1.367 . S
C2987 C2989 1.433 . S
C2988 C2984 1.350 . S
C2988 C2985 1.463 . S
C2988 N2992 1.427 . S
C2989 H2979 0.929 . S
C2989 C2987 1.433 . S
C2989 N2992 1.384 . S
C2990 H2981 0.929 . S
C2990 C2982 1.378 . S
C2990 C2985 1.350 . S
C2991 H2978 0.929 . S
C2991 C2983 1.433 . S
C2991 N2993 1.384 . S
N2992 C2988 1.427 . S
N2992 C2989 1.384 . S
N2993 C2985 1.427 . S
N2993 C2991 1.384 . S
H2994 C3000 0.930 . S
H2995 C3004 0.930 . S
H2996 C3009 0.929 . S
H2997 C3007 0.929 . S
H2998 C3002 0.929 . S
H2999 C3008 0.929 . S
C3000 H2994 0.930 . S
C3000 C3001 1.367 . S
C3000 C3008 1.378 . S
C3001 C3000 1.367 . S
C3001 C3009 1.433 . S
C3002 H2998 0.929 . S
C3002 C3004 1.378 . S
C3002 C3006 1.350 . S
C3003 C3006 1.463 . S
C3003 C3008 1.350 . S
C3003 N3011 1.427 . S
C3004 H2995 0.930 . S
C3004 C3002 1.378 . S
C3004 C3005 1.367 . S
C3005 C3004 1.367 . S
C3005 C3007 1.433 . S
C3006 C3002 1.350 . S
C3006 C3003 1.463 . S
C3006 N3010 1.427 . S
C3007 H2997 0.929 . S
C3007 C3005 1.433 . S
C3007 N3010 1.384 . S
C3008 H2999 0.929 . S
C3008 C3000 1.378 . S
C3008 C3003 1.350 . S
C3009 H2996 0.929 . S
C3009 C3001 1.433 . S
C3009 N3011 1.384 . S
N3010 C3006 1.427 . S
N3010 C3007 1.384 . S
N3011 C3003 1.427 . S
N3011 C3009 1.384 . S
H3012 C3018 0.930 . S
H3013 C3022 0.930 . S
H3014 C3027 0.929 . S
H3015 C3025 0.929 . S
H3016 C3020 0.929 . S
H3017 C3026 0.929 . S
C3018 H3012 0.930 . S
C3018 C3019 1.367 . S
C3018 C3026 1.378 1_554 S
C3019 C3018 1.367 . S
C3019 C3027 1.433 1_554 S
C3020 H3016 0.929 . S
C3020 C3022 1.378 . S
C3020 C3024 1.350 . S
C3021 C3024 1.463 . S
C3021 C3026 1.350 . S
C3021 N3029 1.427 . S
C3022 H3013 0.930 . S
C3022 C3020 1.378 . S
C3022 C3023 1.367 . S
C3023 C3022 1.367 . S
C3023 C3025 1.433 . S
C3024 C3020 1.350 . S
C3024 C3021 1.463 . S
C3024 N3028 1.427 . S
C3025 H3015 0.929 . S
C3025 C3023 1.433 . S
C3025 N3028 1.384 . S
C3026 H3017 0.929 . S
C3026 C3018 1.378 1_556 S
C3026 C3021 1.350 . S
C3027 H3014 0.929 . S
C3027 C3019 1.433 1_556 S
C3027 N3029 1.384 . S
N3028 C3024 1.427 . S
N3028 C3025 1.384 . S
N3029 C3021 1.427 . S
N3029 C3027 1.384 . S
H3030 C3036 0.930 . S
H3031 C3040 0.930 . S
H3032 C3045 0.929 . S
H3033 C3043 0.929 . S
H3034 C3038 0.929 . S
H3035 C3044 0.929 . S
C3036 H3030 0.930 . S
C3036 C3037 1.367 . S
C3036 C3044 1.378 . S
C3037 C3036 1.367 . S
C3037 C3045 1.433 . S
C3038 H3034 0.929 . S
C3038 C3040 1.378 . S
C3038 C3042 1.350 . S
C3039 C3042 1.463 . S
C3039 C3044 1.350 . S
C3039 N3047 1.427 . S
C3040 H3031 0.930 . S
C3040 C3038 1.378 . S
C3040 C3041 1.367 . S
C3041 C3040 1.367 . S
C3041 C3043 1.433 . S
C3042 C3038 1.350 . S
C3042 C3039 1.463 . S
C3042 N3046 1.427 . S
C3043 H3033 0.929 . S
C3043 C3041 1.433 . S
C3043 N3046 1.384 . S
C3044 H3035 0.929 . S
C3044 C3036 1.378 . S
C3044 C3039 1.350 . S
C3045 H3032 0.929 . S
C3045 C3037 1.433 . S
C3045 N3047 1.384 . S
N3046 C3042 1.427 . S
N3046 C3043 1.384 . S
N3047 C3039 1.427 . S
N3047 C3045 1.384 . S
H3048 C3054 0.930 . S
H3049 C3058 0.930 . S
H3050 C3063 0.929 . S
H3051 C3061 0.929 . S
H3052 C3056 0.929 . S
H3053 C3062 0.929 . S
C3054 H3048 0.930 . S
C3054 C3055 1.367 . S
C3054 C3062 1.378 . S
C3055 C3054 1.367 . S
C3055 C3063 1.433 . S
C3056 H3052 0.929 . S
C3056 C3058 1.378 . S
C3056 C3060 1.350 . S
C3057 C3060 1.463 . S
C3057 C3062 1.350 . S
C3057 N3065 1.427 . S
C3058 H3049 0.930 . S
C3058 C3056 1.378 . S
C3058 C3059 1.367 . S
C3059 C3058 1.367 . S
C3059 C3061 1.433 . S
C3060 C3056 1.350 . S
C3060 C3057 1.463 . S
C3060 N3064 1.427 . S
C3061 H3051 0.929 . S
C3061 C3059 1.433 . S
C3061 N3064 1.384 . S
C3062 H3053 0.929 . S
C3062 C3054 1.378 . S
C3062 C3057 1.350 . S
C3063 H3050 0.929 . S
C3063 C3055 1.433 . S
C3063 N3065 1.384 . S
N3064 C3060 1.427 . S
N3064 C3061 1.384 . S
N3065 C3057 1.427 . S
N3065 C3063 1.384 . S
H3066 C3072 0.930 . S
H3067 C3076 0.930 . S
H3068 C3081 0.929 . S
H3069 C3079 0.929 . S
H3070 C3074 0.929 . S
H3071 C3080 0.929 . S
C3072 H3066 0.930 . S
C3072 C3073 1.367 . S
C3072 C3080 1.378 . S
C3073 C3072 1.367 . S
C3073 C3081 1.433 . S
C3074 H3070 0.929 . S
C3074 C3076 1.378 . S
C3074 C3078 1.350 . S
C3075 C3078 1.463 . S
C3075 C3080 1.350 . S
C3075 N3083 1.427 . S
C3076 H3067 0.930 . S
C3076 C3074 1.378 . S
C3076 C3077 1.367 . S
C3077 C3076 1.367 . S
C3077 C3079 1.433 . S
C3078 C3074 1.350 . S
C3078 C3075 1.463 . S
C3078 N3082 1.427 . S
C3079 H3069 0.929 . S
C3079 C3077 1.433 . S
C3079 N3082 1.384 . S
C3080 H3071 0.929 . S
C3080 C3072 1.378 . S
C3080 C3075 1.350 . S
C3081 H3068 0.929 . S
C3081 C3073 1.433 . S
C3081 N3083 1.384 . S
N3082 C3078 1.427 . S
N3082 C3079 1.384 . S
N3083 C3075 1.427 . S
N3083 C3081 1.384 . S
H3084 C3090 0.930 . S
H3085 C3094 0.930 . S
H3086 C3099 0.929 . S
H3087 C3097 0.929 . S
H3088 C3092 0.929 . S
H3089 C3098 0.929 . S
C3090 H3084 0.930 . S
C3090 C3091 1.367 . S
C3090 C3098 1.378 . S
C3091 C3090 1.367 . S
C3091 C3099 1.433 . S
C3092 H3088 0.929 . S
C3092 C3094 1.378 . S
C3092 C3096 1.350 . S
C3093 C3096 1.463 . S
C3093 C3098 1.350 . S
C3093 N3101 1.427 . S
C3094 H3085 0.930 . S
C3094 C3092 1.378 . S
C3094 C3095 1.367 . S
C3095 C3094 1.367 . S
C3095 C3097 1.433 . S
C3096 C3092 1.350 . S
C3096 C3093 1.463 . S
C3096 N3100 1.427 . S
C3097 H3087 0.929 . S
C3097 C3095 1.433 . S
C3097 N3100 1.384 . S
C3098 H3089 0.929 . S
C3098 C3090 1.378 . S
C3098 C3093 1.350 . S
C3099 H3086 0.929 . S
C3099 C3091 1.433 . S
C3099 N3101 1.384 . S
N3100 C3096 1.427 . S
N3100 C3097 1.384 . S
N3101 C3093 1.427 . S
N3101 C3099 1.384 . S
H3102 C3108 0.930 . S
H3103 C3112 0.930 . S
H3104 C3117 0.929 . S
H3105 C3115 0.929 . S
H3106 C3110 0.929 . S
H3107 C3116 0.929 1_565 S
C3108 H3102 0.930 . S
C3108 C3109 1.367 . S
C3108 C3116 1.378 . S
C3109 C3108 1.367 . S
C3109 C3117 1.433 . S
C3110 H3106 0.929 . S
C3110 C3112 1.378 1_545 S
C3110 C3114 1.364 . S
C3111 C3114 1.503 . S
C3111 C3116 1.350 . S
C3111 N3119 1.427 . S
C3112 H3103 0.930 . S
C3112 C3110 1.378 1_565 S
C3112 C3113 1.367 . S
C3113 C3112 1.367 . S
C3113 C3115 1.433 . S
C3114 C3110 1.364 . S
C3114 C3111 1.503 . S
C3114 N3118 1.374 1_545 S
C3115 H3105 0.929 . S
C3115 C3113 1.433 . S
C3115 N3118 1.384 . S
C3116 H3107 0.929 1_545 S
C3116 C3108 1.378 . S
C3116 C3111 1.350 . S
C3117 H3104 0.929 . S
C3117 C3109 1.433 . S
C3117 N3119 1.384 . S
N3118 C3114 1.374 1_565 S
N3118 C3115 1.384 . S
N3119 C3111 1.427 . S
N3119 C3117 1.384 . S
H3120 C3126 0.930 . S
H3121 C3130 0.930 . S
H3122 C3135 0.929 . S
H3123 C3133 0.929 . S
H3124 C3128 0.929 . S
H3125 C3134 0.929 . S
C3126 H3120 0.930 . S
C3126 C3127 1.367 . S
C3126 C3134 1.378 . S
C3127 C3126 1.367 . S
C3127 C3135 1.433 . S
C3128 H3124 0.929 . S
C3128 C3130 1.378 . S
C3128 C3132 1.350 . S
C3129 C3132 1.463 . S
C3129 C3134 1.350 . S
C3129 N3137 1.427 . S
C3130 H3121 0.930 . S
C3130 C3128 1.378 . S
C3130 C3131 1.367 . S
C3131 C3130 1.367 . S
C3131 C3133 1.433 . S
C3132 C3128 1.350 . S
C3132 C3129 1.463 . S
C3132 N3136 1.427 . S
C3133 H3123 0.929 . S
C3133 C3131 1.433 . S
C3133 N3136 1.384 . S
C3134 H3125 0.929 . S
C3134 C3126 1.378 . S
C3134 C3129 1.350 . S
C3135 H3122 0.929 . S
C3135 C3127 1.433 . S
C3135 N3137 1.384 . S
N3136 C3132 1.427 . S
N3136 C3133 1.384 . S
N3137 C3129 1.427 . S
N3137 C3135 1.384 . S
H3138 C3144 0.930 . S
H3139 C3148 0.930 . S
H3140 C3153 0.929 . S
H3141 C3151 0.929 . S
H3142 C3146 0.929 . S
H3143 C3152 0.929 . S
C3144 H3138 0.930 . S
C3144 C3145 1.367 . S
C3144 C3152 1.378 . S
C3145 C3144 1.367 . S
C3145 C3153 1.433 . S
C3146 H3142 0.929 . S
C3146 C3148 1.378 . S
C3146 C3150 1.350 . S
C3147 C3150 1.471 . S
C3147 C3152 1.341 1_655 S
C3147 N3155 1.428 . S
C3148 H3139 0.930 . S
C3148 C3146 1.378 . S
C3148 C3149 1.367 1_545 S
C3149 C3148 1.367 1_565 S
C3149 C3151 1.433 . S
C3150 C3146 1.350 . S
C3150 C3147 1.471 . S
C3150 N3154 1.427 . S
C3151 H3141 0.929 . S
C3151 C3149 1.433 . S
C3151 N3154 1.384 1_565 S
C3152 H3143 0.929 . S
C3152 C3144 1.378 . S
C3152 C3147 1.341 1_455 S
C3153 H3140 0.929 . S
C3153 C3145 1.433 . S
C3153 N3155 1.384 1_455 S
N3154 C3150 1.427 . S
N3154 C3151 1.384 1_545 S
N3155 C3147 1.428 . S
N3155 C3153 1.384 1_655 S
H3156 C3162 0.930 . S
H3157 C3166 0.930 . S
H3158 C3171 0.929 . S
H3159 C3169 0.929 . S
H3160 C3164 0.929 . S
H3161 C3170 0.929 . S
C3162 H3156 0.930 . S
C3162 C3163 1.367 . S
C3162 C3170 1.378 . S
C3163 C3162 1.367 . S
C3163 C3171 1.433 . S
C3164 H3160 0.929 . S
C3164 C3166 1.378 . S
C3164 C3168 1.350 . S
C3165 C3168 1.463 . S
C3165 C3170 1.350 . S
C3165 N3173 1.427 . S
C3166 H3157 0.930 . S
C3166 C3164 1.378 . S
C3166 C3167 1.367 . S
C3167 C3166 1.367 . S
C3167 C3169 1.433 . S
C3168 C3164 1.350 . S
C3168 C3165 1.463 . S
C3168 N3172 1.427 . S
C3169 H3159 0.929 . S
C3169 C3167 1.433 . S
C3169 N3172 1.384 . S
C3170 H3161 0.929 . S
C3170 C3162 1.378 . S
C3170 C3165 1.350 . S
C3171 H3158 0.929 . S
C3171 C3163 1.433 . S
C3171 N3173 1.384 . S
N3172 C3168 1.427 . S
N3172 C3169 1.384 . S
N3173 C3165 1.427 . S
N3173 C3171 1.384 . S
H3174 C3180 0.930 . S
H3175 C3184 0.930 . S
H3176 C3189 0.929 . S
H3177 C3187 0.929 . S
H3178 C3182 0.929 . S
H3179 C3188 0.929 . S
C3180 H3174 0.930 . S
C3180 C3181 1.367 . S
C3180 C3188 1.378 . S
C3181 C3180 1.367 . S
C3181 C3189 1.433 . S
C3182 H3178 0.929 . S
C3182 C3184 1.378 . S
C3182 C3186 1.340 1_655 S
C3183 C3186 1.474 . S
C3183 C3188 1.350 . S
C3183 N3191 1.427 . S
C3184 H3175 0.930 . S
C3184 C3182 1.378 . S
C3184 C3185 1.367 . S
C3185 C3184 1.367 . S
C3185 C3187 1.433 . S
C3186 C3182 1.340 1_455 S
C3186 C3183 1.474 . S
C3186 N3190 1.427 1_455 S
C3187 H3177 0.929 . S
C3187 C3185 1.433 . S
C3187 N3190 1.386 . S
C3188 H3179 0.929 . S
C3188 C3180 1.378 . S
C3188 C3183 1.350 . S
C3189 H3176 0.929 . S
C3189 C3181 1.433 . S
C3189 N3191 1.384 . S
N3190 C3186 1.427 1_655 S
N3190 C3187 1.386 . S
N3191 C3183 1.427 . S
N3191 C3189 1.384 . S
H3192 C3198 0.930 . S
H3193 C3202 0.930 . S
H3194 C3207 0.929 . S
H3195 C3205 0.929 . S
H3196 C3200 0.929 . S
H3197 C3206 0.929 . S
C3198 H3192 0.930 . S
C3198 C3199 1.367 . S
C3198 C3206 1.378 . S
C3199 C3198 1.367 . S
C3199 C3207 1.433 . S
C3200 H3196 0.929 . S
C3200 C3202 1.378 . S
C3200 C3204 1.350 . S
C3201 C3204 1.463 . S
C3201 C3206 1.350 . S
C3201 N3209 1.427 . S
C3202 H3193 0.930 . S
C3202 C3200 1.378 . S
C3202 C3203 1.367 . S
C3203 C3202 1.367 . S
C3203 C3205 1.433 . S
C3204 C3200 1.350 . S
C3204 C3201 1.463 . S
C3204 N3208 1.427 . S
C3205 H3195 0.929 . S
C3205 C3203 1.433 . S
C3205 N3208 1.384 . S
C3206 H3197 0.929 . S
C3206 C3198 1.378 . S
C3206 C3201 1.350 . S
C3207 H3194 0.929 . S
C3207 C3199 1.433 . S
C3207 N3209 1.384 . S
N3208 C3204 1.427 . S
N3208 C3205 1.384 . S
N3209 C3201 1.427 . S
N3209 C3207 1.384 . S
H3210 C3216 0.930 . S
H3211 C3220 0.930 . S
H3212 C3225 0.929 . S
H3213 C3223 0.929 . S
H3214 C3218 0.929 . S
H3215 C3224 0.929 . S
C3216 H3210 0.930 . S
C3216 C3217 1.367 1_545 S
C3216 C3224 1.378 . S
C3217 C3216 1.367 1_565 S
C3217 C3225 1.433 . S
C3218 H3214 0.929 . S
C3218 C3220 1.378 . S
C3218 C3222 1.350 . S
C3219 C3222 1.463 . S
C3219 C3224 1.350 . S
C3219 N3227 1.427 . S
C3220 H3211 0.930 . S
C3220 C3218 1.378 . S
C3220 C3221 1.367 . S
C3221 C3220 1.367 . S
C3221 C3223 1.433 . S
C3222 C3218 1.350 . S
C3222 C3219 1.463 . S
C3222 N3226 1.427 . S
C3223 H3213 0.929 . S
C3223 C3221 1.433 . S
C3223 N3226 1.384 . S
C3224 H3215 0.929 . S
C3224 C3216 1.378 . S
C3224 C3219 1.350 . S
C3225 H3212 0.929 . S
C3225 C3217 1.433 . S
C3225 N3227 1.384 1_565 S
N3226 C3222 1.427 . S
N3226 C3223 1.384 . S
N3227 C3219 1.427 . S
N3227 C3225 1.384 1_545 S
H3228 C3234 0.930 . S
H3229 C3238 0.930 . S
H3230 C3243 0.929 . S
H3231 C3241 0.929 . S
H3232 C3236 0.929 . S
H3233 C3242 0.929 . S
C3234 H3228 0.930 . S
C3234 C3235 1.367 . S
C3234 C3242 1.378 . S
C3235 C3234 1.367 . S
C3235 C3243 1.433 . S
C3236 H3232 0.929 . S
C3236 C3238 1.378 . S
C3236 C3240 1.350 . S
C3237 C3240 1.463 . S
C3237 C3242 1.350 . S
C3237 N3245 1.427 . S
C3238 H3229 0.930 . S
C3238 C3236 1.378 . S
C3238 C3239 1.367 . S
C3239 C3238 1.367 . S
C3239 C3241 1.433 . S
C3240 C3236 1.350 . S
C3240 C3237 1.463 . S
C3240 N3244 1.427 . S
C3241 H3231 0.929 . S
C3241 C3239 1.433 . S
C3241 N3244 1.384 . S
C3242 H3233 0.929 . S
C3242 C3234 1.378 . S
C3242 C3237 1.350 . S
C3243 H3230 0.929 . S
C3243 C3235 1.433 . S
C3243 N3245 1.384 . S
N3244 C3240 1.427 . S
N3244 C3241 1.384 . S
N3245 C3237 1.427 . S
N3245 C3243 1.384 . S
H3246 C3252 0.930 . S
H3247 C3256 0.930 . S
H3248 C3261 0.929 . S
H3249 C3259 0.929 . S
H3250 C3254 0.929 . S
H3251 C3260 0.929 . S
C3252 H3246 0.930 . S
C3252 C3253 1.367 . S
C3252 C3260 1.378 . S
C3253 C3252 1.367 . S
C3253 C3261 1.433 . S
C3254 H3250 0.929 . S
C3254 C3256 1.378 . S
C3254 C3258 1.350 . S
C3255 C3258 1.463 . S
C3255 C3260 1.350 . S
C3255 N3263 1.427 . S
C3256 H3247 0.930 . S
C3256 C3254 1.378 . S
C3256 C3257 1.367 . S
C3257 C3256 1.367 . S
C3257 C3259 1.433 . S
C3258 C3254 1.350 . S
C3258 C3255 1.463 . S
C3258 N3262 1.427 . S
C3259 H3249 0.929 . S
C3259 C3257 1.433 . S
C3259 N3262 1.384 . S
C3260 H3251 0.929 . S
C3260 C3252 1.378 . S
C3260 C3255 1.350 . S
C3261 H3248 0.929 . S
C3261 C3253 1.433 . S
C3261 N3263 1.384 . S
N3262 C3258 1.427 . S
N3262 C3259 1.384 . S
N3263 C3255 1.427 . S
N3263 C3261 1.384 . S
H3264 C3270 0.930 . S
H3265 C3274 0.930 . S
H3266 C3279 0.929 . S
H3267 C3277 0.929 . S
H3268 C3272 0.929 . S
H3269 C3278 0.929 . S
C3270 H3264 0.930 . S
C3270 C3271 1.367 . S
C3270 C3278 1.378 . S
C3271 C3270 1.367 . S
C3271 C3279 1.433 . S
C3272 H3268 0.929 . S
C3272 C3274 1.378 . S
C3272 C3276 1.350 . S
C3273 C3276 1.463 . S
C3273 C3278 1.350 . S
C3273 N3281 1.427 . S
C3274 H3265 0.930 . S
C3274 C3272 1.378 . S
C3274 C3275 1.367 . S
C3275 C3274 1.367 . S
C3275 C3277 1.433 . S
C3276 C3272 1.350 . S
C3276 C3273 1.463 . S
C3276 N3280 1.427 . S
C3277 H3267 0.929 . S
C3277 C3275 1.433 . S
C3277 N3280 1.384 . S
C3278 H3269 0.929 . S
C3278 C3270 1.378 . S
C3278 C3273 1.350 . S
C3279 H3266 0.929 . S
C3279 C3271 1.433 . S
C3279 N3281 1.384 . S
N3280 C3276 1.427 . S
N3280 C3277 1.384 . S
N3281 C3273 1.427 . S
N3281 C3279 1.384 . S
H3282 C3288 0.930 . S
H3283 C3292 0.930 . S
H3284 C3297 0.929 . S
H3285 C3295 0.929 . S
H3286 C3290 0.929 . S
H3287 C3296 0.929 1_455 S
C3288 H3282 0.930 . S
C3288 C3289 1.367 . S
C3288 C3296 1.378 1_455 S
C3289 C3288 1.367 . S
C3289 C3297 1.433 1_455 S
C3290 H3286 0.929 . S
C3290 C3292 1.378 . S
C3290 C3294 1.350 . S
C3291 C3294 1.463 . S
C3291 C3296 1.350 . S
C3291 N3299 1.427 . S
C3292 H3283 0.930 . S
C3292 C3290 1.378 . S
C3292 C3293 1.367 . S
C3293 C3292 1.367 . S
C3293 C3295 1.433 . S
C3294 C3290 1.350 . S
C3294 C3291 1.463 . S
C3294 N3298 1.427 . S
C3295 H3285 0.929 . S
C3295 C3293 1.433 . S
C3295 N3298 1.384 . S
C3296 H3287 0.929 1_655 S
C3296 C3288 1.378 1_655 S
C3296 C3291 1.350 . S
C3297 H3284 0.929 . S
C3297 C3289 1.433 1_655 S
C3297 N3299 1.384 . S
N3298 C3294 1.427 . S
N3298 C3295 1.384 . S
N3299 C3291 1.427 . S
N3299 C3297 1.384 . S
H3300 C3306 0.930 . S
H3301 C3310 0.930 . S
H3302 C3315 0.929 . S
H3303 C3313 0.929 . S
H3304 C3308 0.929 . S
H3305 C3314 0.929 . S
C3306 H3300 0.930 . S
C3306 C3307 1.367 . S
C3306 C3314 1.378 . S
C3307 C3306 1.367 . S
C3307 C3315 1.433 . S
C3308 H3304 0.929 . S
C3308 C3310 1.378 . S
C3308 C3312 1.350 . S
C3309 C3312 1.463 . S
C3309 C3314 1.350 . S
C3309 N3317 1.427 . S
C3310 H3301 0.930 . S
C3310 C3308 1.378 . S
C3310 C3311 1.367 . S
C3311 C3310 1.367 . S
C3311 C3313 1.433 . S
C3312 C3308 1.350 . S
C3312 C3309 1.463 . S
C3312 N3316 1.427 . S
C3313 H3303 0.929 . S
C3313 C3311 1.433 . S
C3313 N3316 1.384 . S
C3314 H3305 0.929 . S
C3314 C3306 1.378 . S
C3314 C3309 1.350 . S
C3315 H3302 0.929 . S
C3315 C3307 1.433 . S
C3315 N3317 1.384 . S
N3316 C3312 1.427 . S
N3316 C3313 1.384 . S
N3317 C3309 1.427 . S
N3317 C3315 1.384 . S
H3318 C3324 0.930 . S
H3319 C3328 0.930 . S
H3320 C3333 0.929 . S
H3321 C3331 0.929 . S
H3322 C3326 0.929 . S
H3323 C3332 0.929 . S
C3324 H3318 0.930 . S
C3324 C3325 1.367 . S
C3324 C3332 1.378 . S
C3325 C3324 1.367 . S
C3325 C3333 1.433 . S
C3326 H3322 0.929 . S
C3326 C3328 1.378 . S
C3326 C3330 1.350 . S
C3327 C3330 1.463 . S
C3327 C3332 1.350 . S
C3327 N3335 1.427 . S
C3328 H3319 0.930 . S
C3328 C3326 1.378 . S
C3328 C3329 1.367 1_455 S
C3329 C3328 1.367 1_655 S
C3329 C3331 1.433 . S
C3330 C3326 1.350 . S
C3330 C3327 1.463 . S
C3330 N3334 1.427 . S
C3331 H3321 0.929 . S
C3331 C3329 1.433 . S
C3331 N3334 1.384 1_655 S
C3332 H3323 0.929 . S
C3332 C3324 1.378 . S
C3332 C3327 1.350 . S
C3333 H3320 0.929 . S
C3333 C3325 1.433 . S
C3333 N3335 1.384 . S
N3334 C3330 1.427 . S
N3334 C3331 1.384 1_455 S
N3335 C3327 1.427 . S
N3335 C3333 1.384 . S
H3336 C3342 0.930 . S
H3337 C3346 0.930 . S
H3338 C3351 0.929 . S
H3339 C3349 0.929 . S
H3340 C3344 0.929 . S
H3341 C3350 0.929 . S
C3342 H3336 0.930 . S
C3342 C3343 1.367 . S
C3342 C3350 1.378 . S
C3343 C3342 1.367 . S
C3343 C3351 1.433 . S
C3344 H3340 0.929 . S
C3344 C3346 1.378 . S
C3344 C3348 1.350 . S
C3345 C3348 1.463 . S
C3345 C3350 1.350 . S
C3345 N3353 1.427 . S
C3346 H3337 0.930 . S
C3346 C3344 1.378 . S
C3346 C3347 1.367 . S
C3347 C3346 1.367 . S
C3347 C3349 1.433 . S
C3348 C3344 1.350 . S
C3348 C3345 1.463 . S
C3348 N3352 1.427 . S
C3349 H3339 0.929 . S
C3349 C3347 1.433 . S
C3349 N3352 1.384 . S
C3350 H3341 0.929 . S
C3350 C3342 1.378 . S
C3350 C3345 1.350 . S
C3351 H3338 0.929 . S
C3351 C3343 1.433 . S
C3351 N3353 1.384 . S
N3352 C3348 1.427 . S
N3352 C3349 1.384 . S
N3353 C3345 1.427 . S
N3353 C3351 1.384 . S
H3354 C3360 0.930 . S
H3355 C3364 0.930 . S
H3356 C3369 0.929 . S
H3357 C3367 0.929 . S
H3358 C3362 0.929 . S
H3359 C3368 0.929 . S
C3360 H3354 0.930 . S
C3360 C3361 1.367 . S
C3360 C3368 1.378 . S
C3361 C3360 1.367 . S
C3361 C3369 1.433 . S
C3362 H3358 0.929 . S
C3362 C3364 1.378 . S
C3362 C3366 1.350 . S
C3363 C3366 1.463 . S
C3363 C3368 1.350 . S
C3363 N3371 1.427 . S
C3364 H3355 0.930 . S
C3364 C3362 1.378 . S
C3364 C3365 1.367 . S
C3365 C3364 1.367 . S
C3365 C3367 1.433 . S
C3366 C3362 1.350 . S
C3366 C3363 1.463 . S
C3366 N3370 1.427 . S
C3367 H3357 0.929 . S
C3367 C3365 1.433 . S
C3367 N3370 1.384 . S
C3368 H3359 0.929 . S
C3368 C3360 1.378 . S
C3368 C3363 1.350 . S
C3369 H3356 0.929 . S
C3369 C3361 1.433 . S
C3369 N3371 1.384 . S
N3370 C3366 1.427 . S
N3370 C3367 1.384 . S
N3371 C3363 1.427 . S
N3371 C3369 1.384 . S
H3372 C3378 0.930 . S
H3373 C3382 0.930 . S
H3374 C3387 0.929 . S
H3375 C3385 0.929 . S
H3376 C3380 0.929 . S
H3377 C3386 0.929 . S
C3378 H3372 0.930 . S
C3378 C3379 1.367 . S
C3378 C3386 1.378 . S
C3379 C3378 1.367 . S
C3379 C3387 1.433 . S
C3380 H3376 0.929 . S
C3380 C3382 1.378 . S
C3380 C3384 1.350 . S
C3381 C3384 1.463 . S
C3381 C3386 1.350 . S
C3381 N3389 1.427 . S
C3382 H3373 0.930 . S
C3382 C3380 1.378 . S
C3382 C3383 1.367 . S
C3383 C3382 1.367 . S
C3383 C3385 1.433 . S
C3384 C3380 1.350 . S
C3384 C3381 1.463 . S
C3384 N3388 1.427 . S
C3385 H3375 0.929 . S
C3385 C3383 1.433 . S
C3385 N3388 1.384 . S
C3386 H3377 0.929 . S
C3386 C3378 1.378 . S
C3386 C3381 1.350 . S
C3387 H3374 0.929 . S
C3387 C3379 1.433 . S
C3387 N3389 1.384 . S
N3388 C3384 1.427 . S
N3388 C3385 1.384 . S
N3389 C3381 1.427 . S
N3389 C3387 1.384 . S
H3390 C3396 0.930 . S
H3391 C3400 0.930 . S
H3392 C3405 0.929 . S
H3393 C3403 0.929 . S
H3394 C3398 0.929 . S
H3395 C3404 0.929 . S
C3396 H3390 0.930 . S
C3396 C3397 1.367 . S
C3396 C3404 1.378 . S
C3397 C3396 1.367 . S
C3397 C3405 1.433 . S
C3398 H3394 0.929 . S
C3398 C3400 1.378 . S
C3398 C3402 1.350 . S
C3399 C3402 1.463 . S
C3399 C3404 1.350 . S
C3399 N3407 1.427 . S
C3400 H3391 0.930 . S
C3400 C3398 1.378 . S
C3400 C3401 1.367 . S
C3401 C3400 1.367 . S
C3401 C3403 1.433 . S
C3402 C3398 1.350 . S
C3402 C3399 1.463 . S
C3402 N3406 1.427 . S
C3403 H3393 0.929 . S
C3403 C3401 1.433 . S
C3403 N3406 1.384 . S
C3404 H3395 0.929 . S
C3404 C3396 1.378 . S
C3404 C3399 1.350 . S
C3405 H3392 0.929 . S
C3405 C3397 1.433 . S
C3405 N3407 1.384 . S
N3406 C3402 1.427 . S
N3406 C3403 1.384 . S
N3407 C3399 1.427 . S
N3407 C3405 1.384 . S
H3408 C3414 0.930 . S
H3409 C3418 0.930 . S
H3410 C3423 0.929 . S
H3411 C3421 0.929 . S
H3412 C3416 0.929 . S
H3413 C3422 0.929 . S
C3414 H3408 0.930 . S
C3414 C3415 1.367 . S
C3414 C3422 1.378 . S
C3415 C3414 1.367 . S
C3415 C3423 1.433 . S
C3416 H3412 0.929 . S
C3416 C3418 1.378 . S
C3416 C3420 1.350 . S
C3417 C3420 1.463 . S
C3417 C3422 1.350 . S
C3417 N3425 1.427 . S
C3418 H3409 0.930 . S
C3418 C3416 1.378 . S
C3418 C3419 1.367 . S
C3419 C3418 1.367 . S
C3419 C3421 1.433 . S
C3420 C3416 1.350 . S
C3420 C3417 1.463 . S
C3420 N3424 1.427 . S
C3421 H3411 0.929 . S
C3421 C3419 1.433 . S
C3421 N3424 1.384 . S
C3422 H3413 0.929 . S
C3422 C3414 1.378 . S
C3422 C3417 1.350 . S
C3423 H3410 0.929 . S
C3423 C3415 1.433 . S
C3423 N3425 1.384 . S
N3424 C3420 1.427 . S
N3424 C3421 1.384 . S
N3425 C3417 1.427 . S
N3425 C3423 1.384 . S
H3426 C3432 0.930 . S
H3427 C3436 0.930 . S
H3428 C3441 0.929 . S
H3429 C3439 0.929 . S
H3430 C3434 0.929 . S
H3431 C3440 0.929 . S
C3432 H3426 0.930 . S
C3432 C3433 1.367 . S
C3432 C3440 1.378 . S
C3433 C3432 1.367 . S
C3433 C3441 1.433 . S
C3434 H3430 0.929 . S
C3434 C3436 1.378 . S
C3434 C3438 1.350 . S
C3435 C3438 1.463 . S
C3435 C3440 1.350 . S
C3435 N3443 1.427 . S
C3436 H3427 0.930 . S
C3436 C3434 1.378 . S
C3436 C3437 1.367 . S
C3437 C3436 1.367 . S
C3437 C3439 1.433 . S
C3438 C3434 1.350 . S
C3438 C3435 1.463 . S
C3438 N3442 1.427 . S
C3439 H3429 0.929 . S
C3439 C3437 1.433 . S
C3439 N3442 1.384 . S
C3440 H3431 0.929 . S
C3440 C3432 1.378 . S
C3440 C3435 1.350 . S
C3441 H3428 0.929 . S
C3441 C3433 1.433 . S
C3441 N3443 1.384 . S
N3442 C3438 1.427 . S
N3442 C3439 1.384 . S
N3443 C3435 1.427 . S
N3443 C3441 1.384 . S
H3444 C3450 0.930 . S
H3445 C3454 0.930 . S
H3446 C3459 0.929 . S
H3447 C3457 0.929 . S
H3448 C3452 0.929 . S
H3449 C3458 0.938 . S
C3450 H3444 0.930 . S
C3450 C3451 1.367 . S
C3450 C3458 1.368 1_565 S
C3451 C3450 1.367 . S
C3451 C3459 1.433 . S
C3452 H3448 0.929 . S
C3452 C3454 1.378 . S
C3452 C3456 1.350 . S
C3453 C3456 1.495 . S
C3453 C3458 1.350 . S
C3453 N3461 1.396 1_545 S
C3454 H3445 0.930 . S
C3454 C3452 1.378 . S
C3454 C3455 1.367 . S
C3455 C3454 1.367 . S
C3455 C3457 1.433 . S
C3456 C3452 1.350 . S
C3456 C3453 1.495 . S
C3456 N3460 1.427 . S
C3457 H3447 0.929 . S
C3457 C3455 1.433 . S
C3457 N3460 1.384 . S
C3458 H3449 0.938 . S
C3458 C3450 1.368 1_545 S
C3458 C3453 1.350 . S
C3459 H3446 0.929 . S
C3459 C3451 1.433 . S
C3459 N3461 1.384 . S
N3460 C3456 1.427 . S
N3460 C3457 1.384 . S
N3461 C3453 1.396 1_565 S
N3461 C3459 1.384 . S
H3462 C3468 0.930 . S
H3463 C3472 0.930 . S
H3464 C3477 0.929 . S
H3465 C3475 0.929 . S
H3466 C3470 0.929 . S
H3467 C3476 0.929 . S
C3468 H3462 0.930 . S
C3468 C3469 1.367 . S
C3468 C3476 1.378 . S
C3469 C3468 1.367 . S
C3469 C3477 1.433 . S
C3470 H3466 0.929 . S
C3470 C3472 1.378 . S
C3470 C3474 1.350 . S
C3471 C3474 1.463 . S
C3471 C3476 1.350 . S
C3471 N3479 1.427 . S
C3472 H3463 0.930 . S
C3472 C3470 1.378 . S
C3472 C3473 1.367 . S
C3473 C3472 1.367 . S
C3473 C3475 1.433 . S
C3474 C3470 1.350 . S
C3474 C3471 1.463 . S
C3474 N3478 1.427 . S
C3475 H3465 0.929 . S
C3475 C3473 1.433 . S
C3475 N3478 1.384 . S
C3476 H3467 0.929 . S
C3476 C3468 1.378 . S
C3476 C3471 1.350 . S
C3477 H3464 0.929 . S
C3477 C3469 1.433 . S
C3477 N3479 1.384 . S
N3478 C3474 1.427 . S
N3478 C3475 1.384 . S
N3479 C3471 1.427 . S
N3479 C3477 1.384 . S
H3480 C3486 0.930 . S
H3481 C3490 0.930 . S
H3482 C3495 0.929 . S
H3483 C3493 0.929 . S
H3484 C3488 0.929 . S
H3485 C3494 0.929 1_565 S
C3486 H3480 0.930 . S
C3486 C3487 1.367 . S
C3486 C3494 1.378 . S
C3487 C3486 1.367 . S
C3487 C3495 1.433 . S
C3488 H3484 0.929 . S
C3488 C3490 1.378 1_556 S
C3488 C3492 1.350 . S
C3489 C3492 1.493 . S
C3489 C3494 1.347 1_565 S
C3489 N3497 1.402 1_565 S
C3490 H3481 0.930 . S
C3490 C3488 1.378 1_554 S
C3490 C3491 1.367 . S
C3491 C3490 1.367 . S
C3491 C3493 1.433 1_554 S
C3492 C3488 1.350 . S
C3492 C3489 1.493 . S
C3492 N3496 1.427 . S
C3493 H3483 0.929 . S
C3493 C3491 1.433 1_556 S
C3493 N3496 1.384 . S
C3494 H3485 0.929 1_545 S
C3494 C3486 1.378 . S
C3494 C3489 1.347 1_545 S
C3495 H3482 0.929 . S
C3495 C3487 1.433 . S
C3495 N3497 1.384 . S
N3496 C3492 1.427 . S
N3496 C3493 1.384 . S
N3497 C3489 1.402 1_545 S
N3497 C3495 1.384 . S
H3498 C3504 0.930 . S
H3499 C3508 0.930 . S
H3500 C3513 0.929 . S
H3501 C3511 0.929 . S
H3502 C3506 0.929 . S
H3503 C3512 0.929 . S
C3504 H3498 0.930 . S
C3504 C3505 1.367 . S
C3504 C3512 1.378 . S
C3505 C3504 1.367 . S
C3505 C3513 1.433 . S
C3506 H3502 0.929 . S
C3506 C3508 1.378 . S
C3506 C3510 1.350 . S
C3507 C3510 1.463 . S
C3507 C3512 1.350 . S
C3507 N3515 1.427 . S
C3508 H3499 0.930 . S
C3508 C3506 1.378 . S
C3508 C3509 1.367 . S
C3509 C3508 1.367 . S
C3509 C3511 1.433 . S
C3510 C3506 1.350 . S
C3510 C3507 1.463 . S
C3510 N3514 1.427 . S
C3511 H3501 0.929 . S
C3511 C3509 1.433 . S
C3511 N3514 1.384 . S
C3512 H3503 0.929 . S
C3512 C3504 1.378 . S
C3512 C3507 1.350 . S
C3513 H3500 0.929 . S
C3513 C3505 1.433 . S
C3513 N3515 1.384 . S
N3514 C3510 1.427 . S
N3514 C3511 1.384 . S
N3515 C3507 1.427 . S
N3515 C3513 1.384 . S
H3516 C3522 0.930 . S
H3517 C3526 0.930 . S
H3518 C3531 0.929 . S
H3519 C3529 0.929 . S
H3520 C3524 0.929 . S
H3521 C3530 0.929 . S
C3522 H3516 0.930 . S
C3522 C3523 1.367 . S
C3522 C3530 1.378 . S
C3523 C3522 1.367 . S
C3523 C3531 1.433 . S
C3524 H3520 0.929 . S
C3524 C3526 1.378 . S
C3524 C3528 1.350 . S
C3525 C3528 1.481 . S
C3525 C3530 1.338 1_565 S
C3525 N3533 1.422 1_565 S
C3526 H3517 0.930 . S
C3526 C3524 1.378 . S
C3526 C3527 1.367 1_554 S
C3527 C3526 1.367 1_556 S
C3527 C3529 1.433 . S
C3528 C3524 1.350 . S
C3528 C3525 1.481 . S
C3528 N3532 1.427 . S
C3529 H3519 0.929 . S
C3529 C3527 1.433 . S
C3529 N3532 1.384 1_556 S
C3530 H3521 0.929 . S
C3530 C3522 1.378 . S
C3530 C3525 1.338 1_545 S
C3531 H3518 0.929 . S
C3531 C3523 1.433 . S
C3531 N3533 1.384 . S
N3532 C3528 1.427 . S
N3532 C3529 1.384 1_554 S
N3533 C3525 1.422 1_545 S
N3533 C3531 1.384 . S
H3534 C3540 0.930 . S
H3535 C3544 0.930 . S
H3536 C3549 0.929 . S
H3537 C3547 0.929 . S
H3538 C3542 0.929 . S
H3539 C3548 0.929 . S
C3540 H3534 0.930 . S
C3540 C3541 1.367 . S
C3540 C3548 1.378 . S
C3541 C3540 1.367 . S
C3541 C3549 1.433 . S
C3542 H3538 0.929 . S
C3542 C3544 1.378 . S
C3542 C3546 1.350 . S
C3543 C3546 1.463 . S
C3543 C3548 1.350 . S
C3543 N3551 1.427 . S
C3544 H3535 0.930 . S
C3544 C3542 1.378 . S
C3544 C3545 1.367 1_554 S
C3545 C3544 1.367 1_556 S
C3545 C3547 1.433 . S
C3546 C3542 1.350 . S
C3546 C3543 1.463 . S
C3546 N3550 1.427 . S
C3547 H3537 0.929 . S
C3547 C3545 1.433 . S
C3547 N3550 1.384 1_556 S
C3548 H3539 0.929 . S
C3548 C3540 1.378 . S
C3548 C3543 1.350 . S
C3549 H3536 0.929 . S
C3549 C3541 1.433 . S
C3549 N3551 1.384 . S
N3550 C3546 1.427 . S
N3550 C3547 1.384 1_554 S
N3551 C3543 1.427 . S
N3551 C3549 1.384 . S
H3552 C3558 0.930 . S
H3553 C3562 0.930 . S
H3554 C3567 0.929 . S
H3555 C3565 0.929 . S
H3556 C3560 0.929 . S
H3557 C3566 0.929 . S
C3558 H3552 0.930 . S
C3558 C3559 1.367 . S
C3558 C3566 1.378 . S
C3559 C3558 1.367 . S
C3559 C3567 1.433 . S
C3560 H3556 0.929 . S
C3560 C3562 1.378 . S
C3560 C3564 1.350 . S
C3561 C3564 1.463 . S
C3561 C3566 1.350 . S
C3561 N3569 1.427 . S
C3562 H3553 0.930 . S
C3562 C3560 1.378 . S
C3562 C3563 1.367 . S
C3563 C3562 1.367 . S
C3563 C3565 1.433 . S
C3564 C3560 1.350 . S
C3564 C3561 1.463 . S
C3564 N3568 1.427 . S
C3565 H3555 0.929 . S
C3565 C3563 1.433 . S
C3565 N3568 1.384 . S
C3566 H3557 0.929 . S
C3566 C3558 1.378 . S
C3566 C3561 1.350 . S
C3567 H3554 0.929 . S
C3567 C3559 1.433 . S
C3567 N3569 1.384 . S
N3568 C3564 1.427 . S
N3568 C3565 1.384 . S
N3569 C3561 1.427 . S
N3569 C3567 1.384 . S
H3570 C3576 0.930 . S
H3571 C3580 0.930 . S
H3572 C3585 0.929 . S
H3573 C3583 0.929 . S
H3574 C3578 0.929 . S
H3575 C3584 0.929 . S
C3576 H3570 0.930 . S
C3576 C3577 1.367 . S
C3576 C3584 1.378 . S
C3577 C3576 1.367 . S
C3577 C3585 1.433 . S
C3578 H3574 0.929 . S
C3578 C3580 1.378 . S
C3578 C3582 1.350 . S
C3579 C3582 1.463 . S
C3579 C3584 1.350 . S
C3579 N3587 1.427 . S
C3580 H3571 0.930 . S
C3580 C3578 1.378 . S
C3580 C3581 1.367 . S
C3581 C3580 1.367 . S
C3581 C3583 1.433 . S
C3582 C3578 1.350 . S
C3582 C3579 1.463 . S
C3582 N3586 1.427 . S
C3583 H3573 0.929 . S
C3583 C3581 1.433 . S
C3583 N3586 1.384 . S
C3584 H3575 0.929 . S
C3584 C3576 1.378 . S
C3584 C3579 1.350 . S
C3585 H3572 0.929 . S
C3585 C3577 1.433 . S
C3585 N3587 1.384 . S
N3586 C3582 1.427 . S
N3586 C3583 1.384 . S
N3587 C3579 1.427 . S
N3587 C3585 1.384 . S
H3588 C3594 0.930 . S
H3589 C3598 0.930 . S
H3590 C3603 0.929 . S
H3591 C3601 0.929 . S
H3592 C3596 0.929 . S
H3593 C3602 0.929 . S
C3594 H3588 0.930 . S
C3594 C3595 1.367 . S
C3594 C3602 1.378 . S
C3595 C3594 1.367 . S
C3595 C3603 1.433 . S
C3596 H3592 0.929 . S
C3596 C3598 1.378 . S
C3596 C3600 1.350 . S
C3597 C3600 1.463 . S
C3597 C3602 1.350 . S
C3597 N3605 1.427 . S
C3598 H3589 0.930 . S
C3598 C3596 1.378 . S
C3598 C3599 1.367 . S
C3599 C3598 1.367 . S
C3599 C3601 1.433 . S
C3600 C3596 1.350 . S
C3600 C3597 1.463 . S
C3600 N3604 1.427 . S
C3601 H3591 0.929 . S
C3601 C3599 1.433 . S
C3601 N3604 1.384 . S
C3602 H3593 0.929 . S
C3602 C3594 1.378 . S
C3602 C3597 1.350 . S
C3603 H3590 0.929 . S
C3603 C3595 1.433 . S
C3603 N3605 1.384 . S
N3604 C3600 1.427 . S
N3604 C3601 1.384 . S
N3605 C3597 1.427 . S
N3605 C3603 1.384 . S
H3606 C3612 0.930 . S
H3607 C3616 0.930 . S
H3608 C3621 0.929 . S
H3609 C3619 0.929 . S
H3610 C3614 0.929 . S
H3611 C3620 0.929 . S
C3612 H3606 0.930 . S
C3612 C3613 1.367 . S
C3612 C3620 1.378 . S
C3613 C3612 1.367 . S
C3613 C3621 1.433 . S
C3614 H3610 0.929 . S
C3614 C3616 1.378 . S
C3614 C3618 1.350 . S
C3615 C3618 1.463 . S
C3615 C3620 1.350 . S
C3615 N3623 1.427 . S
C3616 H3607 0.930 . S
C3616 C3614 1.378 . S
C3616 C3617 1.367 . S
C3617 C3616 1.367 . S
C3617 C3619 1.433 . S
C3618 C3614 1.350 . S
C3618 C3615 1.463 . S
C3618 N3622 1.427 . S
C3619 H3609 0.929 . S
C3619 C3617 1.433 . S
C3619 N3622 1.384 . S
C3620 H3611 0.929 . S
C3620 C3612 1.378 . S
C3620 C3615 1.350 . S
C3621 H3608 0.929 . S
C3621 C3613 1.433 . S
C3621 N3623 1.384 . S
N3622 C3618 1.427 . S
N3622 C3619 1.384 . S
N3623 C3615 1.427 . S
N3623 C3621 1.384 . S
H3624 C3630 0.930 . S
H3625 C3634 0.930 . S
H3626 C3639 0.929 . S
H3627 C3637 0.929 . S
H3628 C3632 0.929 . S
H3629 C3638 0.929 . S
C3630 H3624 0.930 . S
C3630 C3631 1.367 . S
C3630 C3638 1.378 . S
C3631 C3630 1.367 . S
C3631 C3639 1.433 . S
C3632 H3628 0.929 . S
C3632 C3634 1.378 . S
C3632 C3636 1.350 . S
C3633 C3636 1.463 . S
C3633 C3638 1.350 . S
C3633 N3641 1.427 . S
C3634 H3625 0.930 . S
C3634 C3632 1.378 . S
C3634 C3635 1.367 . S
C3635 C3634 1.367 . S
C3635 C3637 1.433 . S
C3636 C3632 1.350 . S
C3636 C3633 1.463 . S
C3636 N3640 1.427 . S
C3637 H3627 0.929 . S
C3637 C3635 1.433 . S
C3637 N3640 1.384 . S
C3638 H3629 0.929 . S
C3638 C3630 1.378 . S
C3638 C3633 1.350 . S
C3639 H3626 0.929 . S
C3639 C3631 1.433 . S
C3639 N3641 1.384 . S
N3640 C3636 1.427 . S
N3640 C3637 1.384 . S
N3641 C3633 1.427 . S
N3641 C3639 1.384 . S
H3642 C3648 0.930 . S
H3643 C3652 0.930 . S
H3644 C3657 0.929 . S
H3645 C3655 0.929 . S
H3646 C3650 0.929 . S
H3647 C3656 0.929 . S
C3648 H3642 0.930 . S
C3648 C3649 1.367 . S
C3648 C3656 1.378 . S
C3649 C3648 1.367 . S
C3649 C3657 1.433 . S
C3650 H3646 0.929 . S
C3650 C3652 1.378 . S
C3650 C3654 1.350 . S
C3651 C3654 1.463 . S
C3651 C3656 1.350 . S
C3651 N3659 1.427 . S
C3652 H3643 0.930 . S
C3652 C3650 1.378 . S
C3652 C3653 1.367 . S
C3653 C3652 1.367 . S
C3653 C3655 1.433 . S
C3654 C3650 1.350 . S
C3654 C3651 1.463 . S
C3654 N3658 1.427 . S
C3655 H3645 0.929 . S
C3655 C3653 1.433 . S
C3655 N3658 1.384 . S
C3656 H3647 0.929 . S
C3656 C3648 1.378 . S
C3656 C3651 1.350 . S
C3657 H3644 0.929 . S
C3657 C3649 1.433 . S
C3657 N3659 1.384 . S
N3658 C3654 1.427 . S
N3658 C3655 1.384 . S
N3659 C3651 1.427 . S
N3659 C3657 1.384 . S
H3660 C3666 0.930 . S
H3661 C3670 0.930 . S
H3662 C3675 0.929 . S
H3663 C3673 0.929 . S
H3664 C3668 0.929 . S
H3665 C3674 0.929 . S
C3666 H3660 0.930 . S
C3666 C3667 1.367 . S
C3666 C3674 1.378 . S
C3667 C3666 1.367 . S
C3667 C3675 1.433 . S
C3668 H3664 0.929 . S
C3668 C3670 1.378 . S
C3668 C3672 1.350 . S
C3669 C3672 1.463 . S
C3669 C3674 1.350 . S
C3669 N3677 1.427 . S
C3670 H3661 0.930 . S
C3670 C3668 1.378 . S
C3670 C3671 1.367 . S
C3671 C3670 1.367 . S
C3671 C3673 1.433 . S
C3672 C3668 1.350 . S
C3672 C3669 1.463 . S
C3672 N3676 1.427 . S
C3673 H3663 0.929 . S
C3673 C3671 1.433 . S
C3673 N3676 1.384 . S
C3674 H3665 0.929 . S
C3674 C3666 1.378 . S
C3674 C3669 1.350 . S
C3675 H3662 0.929 . S
C3675 C3667 1.433 . S
C3675 N3677 1.384 . S
N3676 C3672 1.427 . S
N3676 C3673 1.384 . S
N3677 C3669 1.427 . S
N3677 C3675 1.384 . S
H3678 C3684 0.930 . S
H3679 C3688 0.930 . S
H3680 C3693 0.929 . S
H3681 C3691 0.929 . S
H3682 C3686 0.929 . S
H3683 C3692 0.929 . S
C3684 H3678 0.930 . S
C3684 C3685 1.367 . S
C3684 C3692 1.378 . S
C3685 C3684 1.367 . S
C3685 C3693 1.433 . S
C3686 H3682 0.929 . S
C3686 C3688 1.378 . S
C3686 C3690 1.350 . S
C3687 C3690 1.463 . S
C3687 C3692 1.350 . S
C3687 N3695 1.427 . S
C3688 H3679 0.930 . S
C3688 C3686 1.378 . S
C3688 C3689 1.367 . S
C3689 C3688 1.367 . S
C3689 C3691 1.433 . S
C3690 C3686 1.350 . S
C3690 C3687 1.463 . S
C3690 N3694 1.427 . S
C3691 H3681 0.929 . S
C3691 C3689 1.433 . S
C3691 N3694 1.384 . S
C3692 H3683 0.929 . S
C3692 C3684 1.378 . S
C3692 C3687 1.350 . S
C3693 H3680 0.929 . S
C3693 C3685 1.433 . S
C3693 N3695 1.384 . S
N3694 C3690 1.427 . S
N3694 C3691 1.384 . S
N3695 C3687 1.427 . S
N3695 C3693 1.384 . S
H3696 C3702 0.930 . S
H3697 C3706 0.930 . S
H3698 C3711 0.929 . S
H3699 C3709 0.929 . S
H3700 C3704 0.929 . S
H3701 C3710 0.929 . S
C3702 H3696 0.930 . S
C3702 C3703 1.367 . S
C3702 C3710 1.378 . S
C3703 C3702 1.367 . S
C3703 C3711 1.433 . S
C3704 H3700 0.929 . S
C3704 C3706 1.378 . S
C3704 C3708 1.350 . S
C3705 C3708 1.463 . S
C3705 C3710 1.350 . S
C3705 N3713 1.427 . S
C3706 H3697 0.930 . S
C3706 C3704 1.378 . S
C3706 C3707 1.367 . S
C3707 C3706 1.367 . S
C3707 C3709 1.433 . S
C3708 C3704 1.350 . S
C3708 C3705 1.463 . S
C3708 N3712 1.427 . S
C3709 H3699 0.929 . S
C3709 C3707 1.433 . S
C3709 N3712 1.384 . S
C3710 H3701 0.929 . S
C3710 C3702 1.378 . S
C3710 C3705 1.350 . S
C3711 H3698 0.929 . S
C3711 C3703 1.433 . S
C3711 N3713 1.384 . S
N3712 C3708 1.427 . S
N3712 C3709 1.384 . S
N3713 C3705 1.427 . S
N3713 C3711 1.384 . S
H3714 C3720 0.930 . S
H3715 C3724 0.930 . S
H3716 C3729 0.929 . S
H3717 C3727 0.929 . S
H3718 C3722 0.929 . S
H3719 C3728 0.929 . S
C3720 H3714 0.930 . S
C3720 C3721 1.367 . S
C3720 C3728 1.378 . S
C3721 C3720 1.367 . S
C3721 C3729 1.433 . S
C3722 H3718 0.929 . S
C3722 C3724 1.378 . S
C3722 C3726 1.350 . S
C3723 C3726 1.463 . S
C3723 C3728 1.350 . S
C3723 N3731 1.427 . S
C3724 H3715 0.930 . S
C3724 C3722 1.378 . S
C3724 C3725 1.367 . S
C3725 C3724 1.367 . S
C3725 C3727 1.433 . S
C3726 C3722 1.350 . S
C3726 C3723 1.463 . S
C3726 N3730 1.427 . S
C3727 H3717 0.929 . S
C3727 C3725 1.433 . S
C3727 N3730 1.384 . S
C3728 H3719 0.929 . S
C3728 C3720 1.378 . S
C3728 C3723 1.350 . S
C3729 H3716 0.929 . S
C3729 C3721 1.433 . S
C3729 N3731 1.384 . S
N3730 C3726 1.427 . S
N3730 C3727 1.384 . S
N3731 C3723 1.427 . S
N3731 C3729 1.384 . S
H3732 C3738 0.930 . S
H3733 C3742 0.930 . S
H3734 C3747 0.929 . S
H3735 C3745 0.929 . S
H3736 C3740 0.929 . S
H3737 C3746 0.929 . S
C3738 H3732 0.930 . S
C3738 C3739 1.367 . S
C3738 C3746 1.378 . S
C3739 C3738 1.367 . S
C3739 C3747 1.433 . S
C3740 H3736 0.929 . S
C3740 C3742 1.378 . S
C3740 C3744 1.350 . S
C3741 C3744 1.463 . S
C3741 C3746 1.350 . S
C3741 N3749 1.427 . S
C3742 H3733 0.930 . S
C3742 C3740 1.378 . S
C3742 C3743 1.367 . S
C3743 C3742 1.367 . S
C3743 C3745 1.433 . S
C3744 C3740 1.350 . S
C3744 C3741 1.463 . S
C3744 N3748 1.427 . S
C3745 H3735 0.929 . S
C3745 C3743 1.433 . S
C3745 N3748 1.384 . S
C3746 H3737 0.929 . S
C3746 C3738 1.378 . S
C3746 C3741 1.350 . S
C3747 H3734 0.929 . S
C3747 C3739 1.433 . S
C3747 N3749 1.384 . S
N3748 C3744 1.427 . S
N3748 C3745 1.384 . S
N3749 C3741 1.427 . S
N3749 C3747 1.384 . S
H3750 C3756 0.930 . S
H3751 C3760 0.930 . S
H3752 C3765 0.929 . S
H3753 C3763 0.929 . S
H3754 C3758 0.929 . S
H3755 C3764 0.929 . S
C3756 H3750 0.930 . S
C3756 C3757 1.367 . S
C3756 C3764 1.378 . S
C3757 C3756 1.367 . S
C3757 C3765 1.433 . S
C3758 H3754 0.929 . S
C3758 C3760 1.378 . S
C3758 C3762 1.350 . S
C3759 C3762 1.463 . S
C3759 C3764 1.350 . S
C3759 N3767 1.427 . S
C3760 H3751 0.930 . S
C3760 C3758 1.378 . S
C3760 C3761 1.367 . S
C3761 C3760 1.367 . S
C3761 C3763 1.433 . S
C3762 C3758 1.350 . S
C3762 C3759 1.463 . S
C3762 N3766 1.427 . S
C3763 H3753 0.929 . S
C3763 C3761 1.433 . S
C3763 N3766 1.384 . S
C3764 H3755 0.929 . S
C3764 C3756 1.378 . S
C3764 C3759 1.350 . S
C3765 H3752 0.929 . S
C3765 C3757 1.433 . S
C3765 N3767 1.384 . S
N3766 C3762 1.427 . S
N3766 C3763 1.384 . S
N3767 C3759 1.427 . S
N3767 C3765 1.384 . S
H3768 C3774 0.930 . S
H3769 C3778 0.930 . S
H3770 C3783 0.929 . S
H3771 C3781 0.929 . S
H3772 C3776 0.929 . S
H3773 C3782 0.929 . S
C3774 H3768 0.930 . S
C3774 C3775 1.367 . S
C3774 C3782 1.378 . S
C3775 C3774 1.367 . S
C3775 C3783 1.433 . S
C3776 H3772 0.929 . S
C3776 C3778 1.378 . S
C3776 C3780 1.350 . S
C3777 C3780 1.463 . S
C3777 C3782 1.350 . S
C3777 N3785 1.427 . S
C3778 H3769 0.930 . S
C3778 C3776 1.378 . S
C3778 C3779 1.367 . S
C3779 C3778 1.367 . S
C3779 C3781 1.433 . S
C3780 C3776 1.350 . S
C3780 C3777 1.463 . S
C3780 N3784 1.427 . S
C3781 H3771 0.929 . S
C3781 C3779 1.433 . S
C3781 N3784 1.384 . S
C3782 H3773 0.929 . S
C3782 C3774 1.378 . S
C3782 C3777 1.350 . S
C3783 H3770 0.929 . S
C3783 C3775 1.433 . S
C3783 N3785 1.384 . S
N3784 C3780 1.427 . S
N3784 C3781 1.384 . S
N3785 C3777 1.427 . S
N3785 C3783 1.384 . S
H3786 C3792 0.930 . S
H3787 C3796 0.930 . S
H3788 C3801 0.929 . S
H3789 C3799 0.929 . S
H3790 C3794 0.929 . S
H3791 C3800 0.929 . S
C3792 H3786 0.930 . S
C3792 C3793 1.367 . S
C3792 C3800 1.378 . S
C3793 C3792 1.367 . S
C3793 C3801 1.433 . S
C3794 H3790 0.929 . S
C3794 C3796 1.378 . S
C3794 C3798 1.350 . S
C3795 C3798 1.463 . S
C3795 C3800 1.350 . S
C3795 N3803 1.427 . S
C3796 H3787 0.930 . S
C3796 C3794 1.378 . S
C3796 C3797 1.367 . S
C3797 C3796 1.367 . S
C3797 C3799 1.433 . S
C3798 C3794 1.350 . S
C3798 C3795 1.463 . S
C3798 N3802 1.427 . S
C3799 H3789 0.929 . S
C3799 C3797 1.433 . S
C3799 N3802 1.384 . S
C3800 H3791 0.929 . S
C3800 C3792 1.378 . S
C3800 C3795 1.350 . S
C3801 H3788 0.929 . S
C3801 C3793 1.433 . S
C3801 N3803 1.384 . S
N3802 C3798 1.427 . S
N3802 C3799 1.384 . S
N3803 C3795 1.427 . S
N3803 C3801 1.384 . S
H3804 C3810 0.930 . S
H3805 C3814 0.930 . S
H3806 C3819 0.929 . S
H3807 C3817 0.929 . S
H3808 C3812 0.929 . S
H3809 C3818 0.929 . S
C3810 H3804 0.930 . S
C3810 C3811 1.367 . S
C3810 C3818 1.378 . S
C3811 C3810 1.367 . S
C3811 C3819 1.433 . S
C3812 H3808 0.929 . S
C3812 C3814 1.378 . S
C3812 C3816 1.350 . S
C3813 C3816 1.463 . S
C3813 C3818 1.350 . S
C3813 N3821 1.427 . S
C3814 H3805 0.930 . S
C3814 C3812 1.378 . S
C3814 C3815 1.367 . S
C3815 C3814 1.367 . S
C3815 C3817 1.433 . S
C3816 C3812 1.350 . S
C3816 C3813 1.463 . S
C3816 N3820 1.427 . S
C3817 H3807 0.929 . S
C3817 C3815 1.433 . S
C3817 N3820 1.384 . S
C3818 H3809 0.929 . S
C3818 C3810 1.378 . S
C3818 C3813 1.350 . S
C3819 H3806 0.929 . S
C3819 C3811 1.433 . S
C3819 N3821 1.384 . S
N3820 C3816 1.427 . S
N3820 C3817 1.384 . S
N3821 C3813 1.427 . S
N3821 C3819 1.384 . S
H3822 C3828 0.930 . S
H3823 C3832 0.930 . S
H3824 C3837 0.929 . S
H3825 C3835 0.929 . S
H3826 C3830 0.929 . S
H3827 C3836 0.929 . S
C3828 H3822 0.930 . S
C3828 C3829 1.367 . S
C3828 C3836 1.378 . S
C3829 C3828 1.367 . S
C3829 C3837 1.433 . S
C3830 H3826 0.929 . S
C3830 C3832 1.378 . S
C3830 C3834 1.350 . S
C3831 C3834 1.463 . S
C3831 C3836 1.350 . S
C3831 N3839 1.427 . S
C3832 H3823 0.930 . S
C3832 C3830 1.378 . S
C3832 C3833 1.367 . S
C3833 C3832 1.367 . S
C3833 C3835 1.433 . S
C3834 C3830 1.350 . S
C3834 C3831 1.463 . S
C3834 N3838 1.427 . S
C3835 H3825 0.929 . S
C3835 C3833 1.433 . S
C3835 N3838 1.384 . S
C3836 H3827 0.929 . S
C3836 C3828 1.378 . S
C3836 C3831 1.350 . S
C3837 H3824 0.929 . S
C3837 C3829 1.433 . S
C3837 N3839 1.384 . S
N3838 C3834 1.427 . S
N3838 C3835 1.384 . S
N3839 C3831 1.427 . S
N3839 C3837 1.384 . S
H3840 C3846 0.930 . S
H3841 C3850 0.930 . S
H3842 C3855 0.929 . S
H3843 C3853 0.929 . S
H3844 C3848 0.929 . S
H3845 C3854 0.929 . S
C3846 H3840 0.930 . S
C3846 C3847 1.367 . S
C3846 C3854 1.378 . S
C3847 C3846 1.367 . S
C3847 C3855 1.433 . S
C3848 H3844 0.929 . S
C3848 C3850 1.378 . S
C3848 C3852 1.350 . S
C3849 C3852 1.463 . S
C3849 C3854 1.350 . S
C3849 N3857 1.427 . S
C3850 H3841 0.930 . S
C3850 C3848 1.378 . S
C3850 C3851 1.367 . S
C3851 C3850 1.367 . S
C3851 C3853 1.433 . S
C3852 C3848 1.350 . S
C3852 C3849 1.463 . S
C3852 N3856 1.427 . S
C3853 H3843 0.929 . S
C3853 C3851 1.433 . S
C3853 N3856 1.384 . S
C3854 H3845 0.929 . S
C3854 C3846 1.378 . S
C3854 C3849 1.350 . S
C3855 H3842 0.929 . S
C3855 C3847 1.433 . S
C3855 N3857 1.384 . S
N3856 C3852 1.427 . S
N3856 C3853 1.384 . S
N3857 C3849 1.427 . S
N3857 C3855 1.384 . S
H3858 C3864 0.930 . S
H3859 C3868 0.930 . S
H3860 C3873 0.929 . S
H3861 C3871 0.929 . S
H3862 C3866 0.929 . S
H3863 C3872 0.929 . S
C3864 H3858 0.930 . S
C3864 C3865 1.367 . S
C3864 C3872 1.378 . S
C3865 C3864 1.367 . S
C3865 C3873 1.433 . S
C3866 H3862 0.929 . S
C3866 C3868 1.378 . S
C3866 C3870 1.350 . S
C3867 C3870 1.463 . S
C3867 C3872 1.350 . S
C3867 N3875 1.427 . S
C3868 H3859 0.930 . S
C3868 C3866 1.378 . S
C3868 C3869 1.367 . S
C3869 C3868 1.367 . S
C3869 C3871 1.433 . S
C3870 C3866 1.350 . S
C3870 C3867 1.463 . S
C3870 N3874 1.427 . S
C3871 H3861 0.929 . S
C3871 C3869 1.433 . S
C3871 N3874 1.384 . S
C3872 H3863 0.929 . S
C3872 C3864 1.378 . S
C3872 C3867 1.350 . S
C3873 H3860 0.929 . S
C3873 C3865 1.433 . S
C3873 N3875 1.384 . S
N3874 C3870 1.427 . S
N3874 C3871 1.384 . S
N3875 C3867 1.427 . S
N3875 C3873 1.384 . S
H3876 C3882 0.930 . S
H3877 C3886 0.930 . S
H3878 C3891 0.929 . S
H3879 C3889 0.929 . S
H3880 C3884 0.929 . S
H3881 C3890 0.929 . S
C3882 H3876 0.930 . S
C3882 C3883 1.367 . S
C3882 C3890 1.378 . S
C3883 C3882 1.367 . S
C3883 C3891 1.433 . S
C3884 H3880 0.929 . S
C3884 C3886 1.378 . S
C3884 C3888 1.350 . S
C3885 C3888 1.463 . S
C3885 C3890 1.350 . S
C3885 N3893 1.427 . S
C3886 H3877 0.930 . S
C3886 C3884 1.378 . S
C3886 C3887 1.367 . S
C3887 C3886 1.367 . S
C3887 C3889 1.433 . S
C3888 C3884 1.350 . S
C3888 C3885 1.463 . S
C3888 N3892 1.427 . S
C3889 H3879 0.929 . S
C3889 C3887 1.433 . S
C3889 N3892 1.384 . S
C3890 H3881 0.929 . S
C3890 C3882 1.378 . S
C3890 C3885 1.350 . S
C3891 H3878 0.929 . S
C3891 C3883 1.433 . S
C3891 N3893 1.384 . S
N3892 C3888 1.427 . S
N3892 C3889 1.384 . S
N3893 C3885 1.427 . S
N3893 C3891 1.384 . S
H3894 C3900 0.930 . S
H3895 C3904 0.930 . S
H3896 C3909 0.929 . S
H3897 C3907 0.929 . S
H3898 C3902 0.929 . S
H3899 C3908 0.929 . S
C3900 H3894 0.930 . S
C3900 C3901 1.367 . S
C3900 C3908 1.378 . S
C3901 C3900 1.367 . S
C3901 C3909 1.433 . S
C3902 H3898 0.929 . S
C3902 C3904 1.378 . S
C3902 C3906 1.350 . S
C3903 C3906 1.463 . S
C3903 C3908 1.350 . S
C3903 N3911 1.427 . S
C3904 H3895 0.930 . S
C3904 C3902 1.378 . S
C3904 C3905 1.367 . S
C3905 C3904 1.367 . S
C3905 C3907 1.433 . S
C3906 C3902 1.350 . S
C3906 C3903 1.463 . S
C3906 N3910 1.427 . S
C3907 H3897 0.929 . S
C3907 C3905 1.433 . S
C3907 N3910 1.384 . S
C3908 H3899 0.929 . S
C3908 C3900 1.378 . S
C3908 C3903 1.350 . S
C3909 H3896 0.929 . S
C3909 C3901 1.433 . S
C3909 N3911 1.384 . S
N3910 C3906 1.427 . S
N3910 C3907 1.384 . S
N3911 C3903 1.427 . S
N3911 C3909 1.384 . S
H3912 C3918 0.930 . S
H3913 C3922 0.930 . S
H3914 C3927 0.929 . S
H3915 C3925 0.929 . S
H3916 C3920 0.929 . S
H3917 C3926 0.929 . S
C3918 H3912 0.930 . S
C3918 C3919 1.367 . S
C3918 C3926 1.378 . S
C3919 C3918 1.367 . S
C3919 C3927 1.433 . S
C3920 H3916 0.929 . S
C3920 C3922 1.378 . S
C3920 C3924 1.350 . S
C3921 C3924 1.463 . S
C3921 C3926 1.350 . S
C3921 N3929 1.427 . S
C3922 H3913 0.930 . S
C3922 C3920 1.378 . S
C3922 C3923 1.367 . S
C3923 C3922 1.367 . S
C3923 C3925 1.433 . S
C3924 C3920 1.350 . S
C3924 C3921 1.463 . S
C3924 N3928 1.427 . S
C3925 H3915 0.929 . S
C3925 C3923 1.433 . S
C3925 N3928 1.384 . S
C3926 H3917 0.929 . S
C3926 C3918 1.378 . S
C3926 C3921 1.350 . S
C3927 H3914 0.929 . S
C3927 C3919 1.433 . S
C3927 N3929 1.384 . S
N3928 C3924 1.427 . S
N3928 C3925 1.384 . S
N3929 C3921 1.427 . S
N3929 C3927 1.384 . S
H3930 C3936 0.930 . S
H3931 C3940 0.930 . S
H3932 C3945 0.929 . S
H3933 C3943 0.929 . S
H3934 C3938 0.929 . S
H3935 C3944 0.929 . S
C3936 H3930 0.930 . S
C3936 C3937 1.367 . S
C3936 C3944 1.378 . S
C3937 C3936 1.367 . S
C3937 C3945 1.433 . S
C3938 H3934 0.929 . S
C3938 C3940 1.378 . S
C3938 C3942 1.350 . S
C3939 C3942 1.463 . S
C3939 C3944 1.350 . S
C3939 N3947 1.427 . S
C3940 H3931 0.930 . S
C3940 C3938 1.378 . S
C3940 C3941 1.367 . S
C3941 C3940 1.367 . S
C3941 C3943 1.433 . S
C3942 C3938 1.350 . S
C3942 C3939 1.463 . S
C3942 N3946 1.427 . S
C3943 H3933 0.929 . S
C3943 C3941 1.433 . S
C3943 N3946 1.384 . S
C3944 H3935 0.929 . S
C3944 C3936 1.378 . S
C3944 C3939 1.350 . S
C3945 H3932 0.929 . S
C3945 C3937 1.433 . S
C3945 N3947 1.384 . S
N3946 C3942 1.427 . S
N3946 C3943 1.384 . S
N3947 C3939 1.427 . S
N3947 C3945 1.384 . S
H3948 C3954 0.930 . S
H3949 C3958 0.930 . S
H3950 C3963 0.929 . S
H3951 C3961 0.929 . S
H3952 C3956 0.929 . S
H3953 C3962 0.929 . S
C3954 H3948 0.930 . S
C3954 C3955 1.367 . S
C3954 C3962 1.378 . S
C3955 C3954 1.367 . S
C3955 C3963 1.433 . S
C3956 H3952 0.929 . S
C3956 C3958 1.378 . S
C3956 C3960 1.350 . S
C3957 C3960 1.463 . S
C3957 C3962 1.350 . S
C3957 N3965 1.427 . S
C3958 H3949 0.930 . S
C3958 C3956 1.378 . S
C3958 C3959 1.367 . S
C3959 C3958 1.367 . S
C3959 C3961 1.433 . S
C3960 C3956 1.350 . S
C3960 C3957 1.463 . S
C3960 N3964 1.427 . S
C3961 H3951 0.929 . S
C3961 C3959 1.433 . S
C3961 N3964 1.384 . S
C3962 H3953 0.929 . S
C3962 C3954 1.378 . S
C3962 C3957 1.350 . S
C3963 H3950 0.929 . S
C3963 C3955 1.433 . S
C3963 N3965 1.384 . S
N3964 C3960 1.427 . S
N3964 C3961 1.384 . S
N3965 C3957 1.427 . S
N3965 C3963 1.384 . S
H3966 C3972 0.930 . S
H3967 C3976 0.930 . S
H3968 C3981 0.929 . S
H3969 C3979 0.929 . S
H3970 C3974 0.929 . S
H3971 C3980 0.929 . S
C3972 H3966 0.930 . S
C3972 C3973 1.367 . S
C3972 C3980 1.378 . S
C3973 C3972 1.367 . S
C3973 C3981 1.433 . S
C3974 H3970 0.929 . S
C3974 C3976 1.378 . S
C3974 C3978 1.350 . S
C3975 C3978 1.463 . S
C3975 C3980 1.350 . S
C3975 N3983 1.427 . S
C3976 H3967 0.930 . S
C3976 C3974 1.378 . S
C3976 C3977 1.367 . S
C3977 C3976 1.367 . S
C3977 C3979 1.433 . S
C3978 C3974 1.350 . S
C3978 C3975 1.463 . S
C3978 N3982 1.427 . S
C3979 H3969 0.929 . S
C3979 C3977 1.433 . S
C3979 N3982 1.384 . S
C3980 H3971 0.929 . S
C3980 C3972 1.378 . S
C3980 C3975 1.350 . S
C3981 H3968 0.929 . S
C3981 C3973 1.433 . S
C3981 N3983 1.384 . S
N3982 C3978 1.427 . S
N3982 C3979 1.384 . S
N3983 C3975 1.427 . S
N3983 C3981 1.384 . S
H3984 C3990 0.930 . S
H3985 C3994 0.930 . S
H3986 C3999 0.929 . S
H3987 C3997 0.929 . S
H3988 C3992 0.929 . S
H3989 C3998 0.929 . S
C3990 H3984 0.930 . S
C3990 C3991 1.367 . S
C3990 C3998 1.378 . S
C3991 C3990 1.367 . S
C3991 C3999 1.433 . S
C3992 H3988 0.929 . S
C3992 C3994 1.378 . S
C3992 C3996 1.350 . S
C3993 C3996 1.463 . S
C3993 C3998 1.350 . S
C3993 N4001 1.427 . S
C3994 H3985 0.930 . S
C3994 C3992 1.378 . S
C3994 C3995 1.367 . S
C3995 C3994 1.367 . S
C3995 C3997 1.433 . S
C3996 C3992 1.350 . S
C3996 C3993 1.463 . S
C3996 N4000 1.427 . S
C3997 H3987 0.929 . S
C3997 C3995 1.433 . S
C3997 N4000 1.384 . S
C3998 H3989 0.929 . S
C3998 C3990 1.378 . S
C3998 C3993 1.350 . S
C3999 H3986 0.929 . S
C3999 C3991 1.433 . S
C3999 N4001 1.384 . S
N4000 C3996 1.427 . S
N4000 C3997 1.384 . S
N4001 C3993 1.427 . S
N4001 C3999 1.384 . S
H4002 C4008 0.930 . S
H4003 C4012 0.930 . S
H4004 C4017 0.929 . S
H4005 C4015 0.929 . S
H4006 C4010 0.929 . S
H4007 C4016 0.929 . S
C4008 H4002 0.930 . S
C4008 C4009 1.367 . S
C4008 C4016 1.378 . S
C4009 C4008 1.367 . S
C4009 C4017 1.433 . S
C4010 H4006 0.929 . S
C4010 C4012 1.378 . S
C4010 C4014 1.350 . S
C4011 C4014 1.463 . S
C4011 C4016 1.350 . S
C4011 N4019 1.427 . S
C4012 H4003 0.930 . S
C4012 C4010 1.378 . S
C4012 C4013 1.367 . S
C4013 C4012 1.367 . S
C4013 C4015 1.433 . S
C4014 C4010 1.350 . S
C4014 C4011 1.463 . S
C4014 N4018 1.427 . S
C4015 H4005 0.929 . S
C4015 C4013 1.433 . S
C4015 N4018 1.384 . S
C4016 H4007 0.929 . S
C4016 C4008 1.378 . S
C4016 C4011 1.350 . S
C4017 H4004 0.929 . S
C4017 C4009 1.433 . S
C4017 N4019 1.384 . S
N4018 C4014 1.427 . S
N4018 C4015 1.384 . S
N4019 C4011 1.427 . S
N4019 C4017 1.384 . S
H4020 C4026 0.930 . S
H4021 C4030 0.930 . S
H4022 C4035 0.929 . S
H4023 C4033 0.929 . S
H4024 C4028 0.929 . S
H4025 C4034 0.929 . S
C4026 H4020 0.930 . S
C4026 C4027 1.367 . S
C4026 C4034 1.378 . S
C4027 C4026 1.367 . S
C4027 C4035 1.433 . S
C4028 H4024 0.929 . S
C4028 C4030 1.378 . S
C4028 C4032 1.350 . S
C4029 C4032 1.463 . S
C4029 C4034 1.350 . S
C4029 N4037 1.427 . S
C4030 H4021 0.930 . S
C4030 C4028 1.378 . S
C4030 C4031 1.367 . S
C4031 C4030 1.367 . S
C4031 C4033 1.433 . S
C4032 C4028 1.350 . S
C4032 C4029 1.463 . S
C4032 N4036 1.427 . S
C4033 H4023 0.929 . S
C4033 C4031 1.433 . S
C4033 N4036 1.384 . S
C4034 H4025 0.929 . S
C4034 C4026 1.378 . S
C4034 C4029 1.350 . S
C4035 H4022 0.929 . S
C4035 C4027 1.433 . S
C4035 N4037 1.384 . S
N4036 C4032 1.427 . S
N4036 C4033 1.384 . S
N4037 C4029 1.427 . S
N4037 C4035 1.384 . S
H4038 C4044 0.930 . S
H4039 C4048 0.930 . S
H4040 C4053 0.929 . S
H4041 C4051 0.929 . S
H4042 C4046 0.929 . S
H4043 C4052 0.929 . S
C4044 H4038 0.930 . S
C4044 C4045 1.367 . S
C4044 C4052 1.378 . S
C4045 C4044 1.367 . S
C4045 C4053 1.433 . S
C4046 H4042 0.929 . S
C4046 C4048 1.378 . S
C4046 C4050 1.350 . S
C4047 C4050 1.463 . S
C4047 C4052 1.350 . S
C4047 N4055 1.427 . S
C4048 H4039 0.930 . S
C4048 C4046 1.378 . S
C4048 C4049 1.367 . S
C4049 C4048 1.367 . S
C4049 C4051 1.433 . S
C4050 C4046 1.350 . S
C4050 C4047 1.463 . S
C4050 N4054 1.427 . S
C4051 H4041 0.929 . S
C4051 C4049 1.433 . S
C4051 N4054 1.384 . S
C4052 H4043 0.929 . S
C4052 C4044 1.378 . S
C4052 C4047 1.350 . S
C4053 H4040 0.929 . S
C4053 C4045 1.433 . S
C4053 N4055 1.384 . S
N4054 C4050 1.427 . S
N4054 C4051 1.384 . S
N4055 C4047 1.427 . S
N4055 C4053 1.384 . S
H4056 C4062 0.930 . S
H4057 C4066 0.930 . S
H4058 C4071 0.929 . S
H4059 C4069 0.929 . S
H4060 C4064 0.929 . S
H4061 C4070 0.929 . S
C4062 H4056 0.930 . S
C4062 C4063 1.367 . S
C4062 C4070 1.378 . S
C4063 C4062 1.367 . S
C4063 C4071 1.433 . S
C4064 H4060 0.929 . S
C4064 C4066 1.378 . S
C4064 C4068 1.350 . S
C4065 C4068 1.463 . S
C4065 C4070 1.350 . S
C4065 N4073 1.427 . S
C4066 H4057 0.930 . S
C4066 C4064 1.378 . S
C4066 C4067 1.367 . S
C4067 C4066 1.367 . S
C4067 C4069 1.433 . S
C4068 C4064 1.350 . S
C4068 C4065 1.463 . S
C4068 N4072 1.427 . S
C4069 H4059 0.929 . S
C4069 C4067 1.433 . S
C4069 N4072 1.384 . S
C4070 H4061 0.929 . S
C4070 C4062 1.378 . S
C4070 C4065 1.350 . S
C4071 H4058 0.929 . S
C4071 C4063 1.433 . S
C4071 N4073 1.384 . S
N4072 C4068 1.427 . S
N4072 C4069 1.384 . S
N4073 C4065 1.427 . S
N4073 C4071 1.384 . S
H4074 C4080 0.930 . S
H4075 C4084 0.930 . S
H4076 C4089 0.929 . S
H4077 C4087 0.929 . S
H4078 C4082 0.929 . S
H4079 C4088 0.929 . S
C4080 H4074 0.930 . S
C4080 C4081 1.367 . S
C4080 C4088 1.378 . S
C4081 C4080 1.367 . S
C4081 C4089 1.433 . S
C4082 H4078 0.929 . S
C4082 C4084 1.378 . S
C4082 C4086 1.350 . S
C4083 C4086 1.463 . S
C4083 C4088 1.350 . S
C4083 N4091 1.427 . S
C4084 H4075 0.930 . S
C4084 C4082 1.378 . S
C4084 C4085 1.367 . S
C4085 C4084 1.367 . S
C4085 C4087 1.433 . S
C4086 C4082 1.350 . S
C4086 C4083 1.463 . S
C4086 N4090 1.427 . S
C4087 H4077 0.929 . S
C4087 C4085 1.433 . S
C4087 N4090 1.384 . S
C4088 H4079 0.929 . S
C4088 C4080 1.378 . S
C4088 C4083 1.350 . S
C4089 H4076 0.929 . S
C4089 C4081 1.433 . S
C4089 N4091 1.384 . S
N4090 C4086 1.427 . S
N4090 C4087 1.384 . S
N4091 C4083 1.427 . S
N4091 C4089 1.384 . S
H4092 C4098 0.930 . S
H4093 C4102 0.930 . S
H4094 C4107 0.929 . S
H4095 C4105 0.929 . S
H4096 C4100 0.929 . S
H4097 C4106 0.929 . S
C4098 H4092 0.930 . S
C4098 C4099 1.367 . S
C4098 C4106 1.378 . S
C4099 C4098 1.367 . S
C4099 C4107 1.433 . S
C4100 H4096 0.929 . S
C4100 C4102 1.378 . S
C4100 C4104 1.350 . S
C4101 C4104 1.463 . S
C4101 C4106 1.350 . S
C4101 N4109 1.427 . S
C4102 H4093 0.930 . S
C4102 C4100 1.378 . S
C4102 C4103 1.367 . S
C4103 C4102 1.367 . S
C4103 C4105 1.433 . S
C4104 C4100 1.350 . S
C4104 C4101 1.463 . S
C4104 N4108 1.427 . S
C4105 H4095 0.929 . S
C4105 C4103 1.433 . S
C4105 N4108 1.384 . S
C4106 H4097 0.929 . S
C4106 C4098 1.378 . S
C4106 C4101 1.350 . S
C4107 H4094 0.929 . S
C4107 C4099 1.433 . S
C4107 N4109 1.384 . S
N4108 C4104 1.427 . S
N4108 C4105 1.384 . S
N4109 C4101 1.427 . S
N4109 C4107 1.384 . S
H4110 C4116 0.930 . S
H4111 C4120 0.930 . S
H4112 C4125 0.929 . S
H4113 C4123 0.929 . S
H4114 C4118 0.929 . S
H4115 C4124 0.929 . S
C4116 H4110 0.930 . S
C4116 C4117 1.367 . S
C4116 C4124 1.378 . S
C4117 C4116 1.367 . S
C4117 C4125 1.433 . S
C4118 H4114 0.929 . S
C4118 C4120 1.378 . S
C4118 C4122 1.350 . S
C4119 C4122 1.463 . S
C4119 C4124 1.350 . S
C4119 N4127 1.427 . S
C4120 H4111 0.930 . S
C4120 C4118 1.378 . S
C4120 C4121 1.367 . S
C4121 C4120 1.367 . S
C4121 C4123 1.433 . S
C4122 C4118 1.350 . S
C4122 C4119 1.463 . S
C4122 N4126 1.427 . S
C4123 H4113 0.929 . S
C4123 C4121 1.433 . S
C4123 N4126 1.384 . S
C4124 H4115 0.929 . S
C4124 C4116 1.378 . S
C4124 C4119 1.350 . S
C4125 H4112 0.929 . S
C4125 C4117 1.433 . S
C4125 N4127 1.384 . S
N4126 C4122 1.427 . S
N4126 C4123 1.384 . S
N4127 C4119 1.427 . S
N4127 C4125 1.384 . S
H4128 C4134 0.930 . S
H4129 C4138 0.930 . S
H4130 C4143 0.929 . S
H4131 C4141 0.929 . S
H4132 C4136 0.929 . S
H4133 C4142 0.929 . S
C4134 H4128 0.930 . S
C4134 C4135 1.367 . S
C4134 C4142 1.378 . S
C4135 C4134 1.367 . S
C4135 C4143 1.433 . S
C4136 H4132 0.929 . S
C4136 C4138 1.378 . S
C4136 C4140 1.350 . S
C4137 C4140 1.463 . S
C4137 C4142 1.350 . S
C4137 N4145 1.427 . S
C4138 H4129 0.930 . S
C4138 C4136 1.378 . S
C4138 C4139 1.367 . S
C4139 C4138 1.367 . S
C4139 C4141 1.433 . S
C4140 C4136 1.350 . S
C4140 C4137 1.463 . S
C4140 N4144 1.427 . S
C4141 H4131 0.929 . S
C4141 C4139 1.433 . S
C4141 N4144 1.384 . S
C4142 H4133 0.929 . S
C4142 C4134 1.378 . S
C4142 C4137 1.350 . S
C4143 H4130 0.929 . S
C4143 C4135 1.433 . S
C4143 N4145 1.384 . S
N4144 C4140 1.427 . S
N4144 C4141 1.384 . S
N4145 C4137 1.427 . S
N4145 C4143 1.384 . S
H4146 C4152 0.930 . S
H4147 C4156 0.930 . S
H4148 C4161 0.929 . S
H4149 C4159 0.929 . S
H4150 C4154 0.929 . S
H4151 C4160 0.929 . S
C4152 H4146 0.930 . S
C4152 C4153 1.367 . S
C4152 C4160 1.378 . S
C4153 C4152 1.367 . S
C4153 C4161 1.433 . S
C4154 H4150 0.929 . S
C4154 C4156 1.378 . S
C4154 C4158 1.350 . S
C4155 C4158 1.463 . S
C4155 C4160 1.350 . S
C4155 N4163 1.427 . S
C4156 H4147 0.930 . S
C4156 C4154 1.378 . S
C4156 C4157 1.367 . S
C4157 C4156 1.367 . S
C4157 C4159 1.433 . S
C4158 C4154 1.350 . S
C4158 C4155 1.463 . S
C4158 N4162 1.427 . S
C4159 H4149 0.929 . S
C4159 C4157 1.433 . S
C4159 N4162 1.384 . S
C4160 H4151 0.929 . S
C4160 C4152 1.378 . S
C4160 C4155 1.350 . S
C4161 H4148 0.929 . S
C4161 C4153 1.433 . S
C4161 N4163 1.384 . S
N4162 C4158 1.427 . S
N4162 C4159 1.384 . S
N4163 C4155 1.427 . S
N4163 C4161 1.384 . S
H4164 C4170 0.930 . S
H4165 C4174 0.930 . S
H4166 C4179 0.929 . S
H4167 C4177 0.929 . S
H4168 C4172 0.929 . S
H4169 C4178 0.929 . S
C4170 H4164 0.930 . S
C4170 C4171 1.367 . S
C4170 C4178 1.378 . S
C4171 C4170 1.367 . S
C4171 C4179 1.433 . S
C4172 H4168 0.929 . S
C4172 C4174 1.378 . S
C4172 C4176 1.350 . S
C4173 C4176 1.463 . S
C4173 C4178 1.350 . S
C4173 N4181 1.427 . S
C4174 H4165 0.930 . S
C4174 C4172 1.378 . S
C4174 C4175 1.367 . S
C4175 C4174 1.367 . S
C4175 C4177 1.433 . S
C4176 C4172 1.350 . S
C4176 C4173 1.463 . S
C4176 N4180 1.427 . S
C4177 H4167 0.929 . S
C4177 C4175 1.433 . S
C4177 N4180 1.384 . S
C4178 H4169 0.929 . S
C4178 C4170 1.378 . S
C4178 C4173 1.350 . S
C4179 H4166 0.929 . S
C4179 C4171 1.433 . S
C4179 N4181 1.384 . S
N4180 C4176 1.427 . S
N4180 C4177 1.384 . S
N4181 C4173 1.427 . S
N4181 C4179 1.384 . S
H4182 C4188 0.930 . S
H4183 C4192 0.930 . S
H4184 C4197 0.929 . S
H4185 C4195 0.929 . S
H4186 C4190 0.929 . S
H4187 C4196 0.929 . S
C4188 H4182 0.930 . S
C4188 C4189 1.367 . S
C4188 C4196 1.378 . S
C4189 C4188 1.367 . S
C4189 C4197 1.433 . S
C4190 H4186 0.929 . S
C4190 C4192 1.378 . S
C4190 C4194 1.350 . S
C4191 C4194 1.463 . S
C4191 C4196 1.350 . S
C4191 N4199 1.427 . S
C4192 H4183 0.930 . S
C4192 C4190 1.378 . S
C4192 C4193 1.367 . S
C4193 C4192 1.367 . S
C4193 C4195 1.433 . S
C4194 C4190 1.350 . S
C4194 C4191 1.463 . S
C4194 N4198 1.427 . S
C4195 H4185 0.929 . S
C4195 C4193 1.433 . S
C4195 N4198 1.384 . S
C4196 H4187 0.929 . S
C4196 C4188 1.378 . S
C4196 C4191 1.350 . S
C4197 H4184 0.929 . S
C4197 C4189 1.433 . S
C4197 N4199 1.384 . S
N4198 C4194 1.427 . S
N4198 C4195 1.384 . S
N4199 C4191 1.427 . S
N4199 C4197 1.384 . S
H4200 C4206 0.930 . S
H4201 C4210 0.930 . S
H4202 C4215 0.929 . S
H4203 C4213 0.929 . S
H4204 C4208 0.929 . S
H4205 C4214 0.929 . S
C4206 H4200 0.930 . S
C4206 C4207 1.367 . S
C4206 C4214 1.378 . S
C4207 C4206 1.367 . S
C4207 C4215 1.433 . S
C4208 H4204 0.929 . S
C4208 C4210 1.378 . S
C4208 C4212 1.350 . S
C4209 C4212 1.463 . S
C4209 C4214 1.350 . S
C4209 N4217 1.427 . S
C4210 H4201 0.930 . S
C4210 C4208 1.378 . S
C4210 C4211 1.367 . S
C4211 C4210 1.367 . S
C4211 C4213 1.433 . S
C4212 C4208 1.350 . S
C4212 C4209 1.463 . S
C4212 N4216 1.427 . S
C4213 H4203 0.929 . S
C4213 C4211 1.433 . S
C4213 N4216 1.384 . S
C4214 H4205 0.929 . S
C4214 C4206 1.378 . S
C4214 C4209 1.350 . S
C4215 H4202 0.929 . S
C4215 C4207 1.433 . S
C4215 N4217 1.384 . S
N4216 C4212 1.427 . S
N4216 C4213 1.384 . S
N4217 C4209 1.427 . S
N4217 C4215 1.384 . S
H4218 C4224 0.930 . S
H4219 C4228 0.930 . S
H4220 C4233 0.929 . S
H4221 C4231 0.929 . S
H4222 C4226 0.929 . S
H4223 C4232 0.929 . S
C4224 H4218 0.930 . S
C4224 C4225 1.367 . S
C4224 C4232 1.378 . S
C4225 C4224 1.367 . S
C4225 C4233 1.433 . S
C4226 H4222 0.929 . S
C4226 C4228 1.378 . S
C4226 C4230 1.350 . S
C4227 C4230 1.463 . S
C4227 C4232 1.350 . S
C4227 N4235 1.427 . S
C4228 H4219 0.930 . S
C4228 C4226 1.378 . S
C4228 C4229 1.367 . S
C4229 C4228 1.367 . S
C4229 C4231 1.433 . S
C4230 C4226 1.350 . S
C4230 C4227 1.463 . S
C4230 N4234 1.427 . S
C4231 H4221 0.929 . S
C4231 C4229 1.433 . S
C4231 N4234 1.384 . S
C4232 H4223 0.929 . S
C4232 C4224 1.378 . S
C4232 C4227 1.350 . S
C4233 H4220 0.929 . S
C4233 C4225 1.433 . S
C4233 N4235 1.384 . S
N4234 C4230 1.427 . S
N4234 C4231 1.384 . S
N4235 C4227 1.427 . S
N4235 C4233 1.384 . S
H4236 C4242 0.930 . S
H4237 C4246 0.930 . S
H4238 C4251 0.929 . S
H4239 C4249 0.929 . S
H4240 C4244 0.929 . S
H4241 C4250 0.929 . S
C4242 H4236 0.930 . S
C4242 C4243 1.367 . S
C4242 C4250 1.378 . S
C4243 C4242 1.367 . S
C4243 C4251 1.433 . S
C4244 H4240 0.929 . S
C4244 C4246 1.378 . S
C4244 C4248 1.350 . S
C4245 C4248 1.463 . S
C4245 C4250 1.350 . S
C4245 N4253 1.427 . S
C4246 H4237 0.930 . S
C4246 C4244 1.378 . S
C4246 C4247 1.367 . S
C4247 C4246 1.367 . S
C4247 C4249 1.433 . S
C4248 C4244 1.350 . S
C4248 C4245 1.463 . S
C4248 N4252 1.427 . S
C4249 H4239 0.929 . S
C4249 C4247 1.433 . S
C4249 N4252 1.384 . S
C4250 H4241 0.929 . S
C4250 C4242 1.378 . S
C4250 C4245 1.350 . S
C4251 H4238 0.929 . S
C4251 C4243 1.433 . S
C4251 N4253 1.384 . S
N4252 C4248 1.427 . S
N4252 C4249 1.384 . S
N4253 C4245 1.427 . S
N4253 C4251 1.384 . S
H4254 C4260 0.930 . S
H4255 C4264 0.930 . S
H4256 C4269 0.929 . S
H4257 C4267 0.929 . S
H4258 C4262 0.929 . S
H4259 C4268 0.929 . S
C4260 H4254 0.930 . S
C4260 C4261 1.367 . S
C4260 C4268 1.378 . S
C4261 C4260 1.367 . S
C4261 C4269 1.433 . S
C4262 H4258 0.929 . S
C4262 C4264 1.378 . S
C4262 C4266 1.350 . S
C4263 C4266 1.463 . S
C4263 C4268 1.350 . S
C4263 N4271 1.427 . S
C4264 H4255 0.930 . S
C4264 C4262 1.378 . S
C4264 C4265 1.367 . S
C4265 C4264 1.367 . S
C4265 C4267 1.433 . S
C4266 C4262 1.350 . S
C4266 C4263 1.463 . S
C4266 N4270 1.427 . S
C4267 H4257 0.929 . S
C4267 C4265 1.433 . S
C4267 N4270 1.384 . S
C4268 H4259 0.929 . S
C4268 C4260 1.378 . S
C4268 C4263 1.350 . S
C4269 H4256 0.929 . S
C4269 C4261 1.433 . S
C4269 N4271 1.384 . S
N4270 C4266 1.427 . S
N4270 C4267 1.384 . S
N4271 C4263 1.427 . S
N4271 C4269 1.384 . S
H4272 C4278 0.930 . S
H4273 C4282 0.930 . S
H4274 C4287 0.929 . S
H4275 C4285 0.929 . S
H4276 C4280 0.929 . S
H4277 C4286 0.929 . S
C4278 H4272 0.930 . S
C4278 C4279 1.367 . S
C4278 C4286 1.378 . S
C4279 C4278 1.367 . S
C4279 C4287 1.433 . S
C4280 H4276 0.929 . S
C4280 C4282 1.378 . S
C4280 C4284 1.350 . S
C4281 C4284 1.463 . S
C4281 C4286 1.350 . S
C4281 N4289 1.427 . S
C4282 H4273 0.930 . S
C4282 C4280 1.378 . S
C4282 C4283 1.367 . S
C4283 C4282 1.367 . S
C4283 C4285 1.433 . S
C4284 C4280 1.350 . S
C4284 C4281 1.463 . S
C4284 N4288 1.427 . S
C4285 H4275 0.929 . S
C4285 C4283 1.433 . S
C4285 N4288 1.384 . S
C4286 H4277 0.929 . S
C4286 C4278 1.378 . S
C4286 C4281 1.350 . S
C4287 H4274 0.929 . S
C4287 C4279 1.433 . S
C4287 N4289 1.384 . S
N4288 C4284 1.427 . S
N4288 C4285 1.384 . S
N4289 C4281 1.427 . S
N4289 C4287 1.384 . S
H4290 C4296 0.930 . S
H4291 C4300 0.930 . S
H4292 C4305 0.929 . S
H4293 C4303 0.929 . S
H4294 C4298 0.929 . S
H4295 C4304 0.929 . S
C4296 H4290 0.930 . S
C4296 C4297 1.367 . S
C4296 C4304 1.378 . S
C4297 C4296 1.367 . S
C4297 C4305 1.433 . S
C4298 H4294 0.929 . S
C4298 C4300 1.378 . S
C4298 C4302 1.350 . S
C4299 C4302 1.463 . S
C4299 C4304 1.350 . S
C4299 N4307 1.427 . S
C4300 H4291 0.930 . S
C4300 C4298 1.378 . S
C4300 C4301 1.367 . S
C4301 C4300 1.367 . S
C4301 C4303 1.433 . S
C4302 C4298 1.350 . S
C4302 C4299 1.463 . S
C4302 N4306 1.427 . S
C4303 H4293 0.929 . S
C4303 C4301 1.433 . S
C4303 N4306 1.384 . S
C4304 H4295 0.929 . S
C4304 C4296 1.378 . S
C4304 C4299 1.350 . S
C4305 H4292 0.929 . S
C4305 C4297 1.433 . S
C4305 N4307 1.384 . S
N4306 C4302 1.427 . S
N4306 C4303 1.384 . S
N4307 C4299 1.427 . S
N4307 C4305 1.384 . S
H4308 C4314 0.930 . S
H4309 C4318 0.930 . S
H4310 C4323 0.929 . S
H4311 C4321 0.929 . S
H4312 C4316 0.929 . S
H4313 C4322 0.929 . S
C4314 H4308 0.930 . S
C4314 C4315 1.367 . S
C4314 C4322 1.378 . S
C4315 C4314 1.367 . S
C4315 C4323 1.433 . S
C4316 H4312 0.929 . S
C4316 C4318 1.378 . S
C4316 C4320 1.350 . S
C4317 C4320 1.463 . S
C4317 C4322 1.350 . S
C4317 N4325 1.427 . S
C4318 H4309 0.930 . S
C4318 C4316 1.378 . S
C4318 C4319 1.367 . S
C4319 C4318 1.367 . S
C4319 C4321 1.433 . S
C4320 C4316 1.350 . S
C4320 C4317 1.463 . S
C4320 N4324 1.427 . S
C4321 H4311 0.929 . S
C4321 C4319 1.433 . S
C4321 N4324 1.384 . S
C4322 H4313 0.929 . S
C4322 C4314 1.378 . S
C4322 C4317 1.350 . S
C4323 H4310 0.929 . S
C4323 C4315 1.433 . S
C4323 N4325 1.384 . S
N4324 C4320 1.427 . S
N4324 C4321 1.384 . S
N4325 C4317 1.427 . S
N4325 C4323 1.384 . S
H4326 C4332 0.930 . S
H4327 C4336 0.930 . S
H4328 C4341 0.929 . S
H4329 C4339 0.929 . S
H4330 C4334 0.929 . S
H4331 C4340 0.929 . S
C4332 H4326 0.930 . S
C4332 C4333 1.367 . S
C4332 C4340 1.378 . S
C4333 C4332 1.367 . S
C4333 C4341 1.433 . S
C4334 H4330 0.929 . S
C4334 C4336 1.378 . S
C4334 C4338 1.350 . S
C4335 C4338 1.463 . S
C4335 C4340 1.350 . S
C4335 N4343 1.427 . S
C4336 H4327 0.930 . S
C4336 C4334 1.378 . S
C4336 C4337 1.367 . S
C4337 C4336 1.367 . S
C4337 C4339 1.433 . S
C4338 C4334 1.350 . S
C4338 C4335 1.463 . S
C4338 N4342 1.427 . S
C4339 H4329 0.929 . S
C4339 C4337 1.433 . S
C4339 N4342 1.384 . S
C4340 H4331 0.929 . S
C4340 C4332 1.378 . S
C4340 C4335 1.350 . S
C4341 H4328 0.929 . S
C4341 C4333 1.433 . S
C4341 N4343 1.384 . S
N4342 C4338 1.427 . S
N4342 C4339 1.384 . S
N4343 C4335 1.427 . S
N4343 C4341 1.384 . S
H4344 C4350 0.930 . S
H4345 C4354 0.930 . S
H4346 C4359 0.929 . S
H4347 C4357 0.929 . S
H4348 C4352 0.929 . S
H4349 C4358 0.929 . S
C4350 H4344 0.930 . S
C4350 C4351 1.367 . S
C4350 C4358 1.378 . S
C4351 C4350 1.367 . S
C4351 C4359 1.433 . S
C4352 H4348 0.929 . S
C4352 C4354 1.378 . S
C4352 C4356 1.350 . S
C4353 C4356 1.463 . S
C4353 C4358 1.350 . S
C4353 N4361 1.427 . S
C4354 H4345 0.930 . S
C4354 C4352 1.378 . S
C4354 C4355 1.367 . S
C4355 C4354 1.367 . S
C4355 C4357 1.433 . S
C4356 C4352 1.350 . S
C4356 C4353 1.463 . S
C4356 N4360 1.427 . S
C4357 H4347 0.929 . S
C4357 C4355 1.433 . S
C4357 N4360 1.384 . S
C4358 H4349 0.929 . S
C4358 C4350 1.378 . S
C4358 C4353 1.350 . S
C4359 H4346 0.929 . S
C4359 C4351 1.433 . S
C4359 N4361 1.384 . S
N4360 C4356 1.427 . S
N4360 C4357 1.384 . S
N4361 C4353 1.427 . S
N4361 C4359 1.384 . S
H4362 C4368 0.930 . S
H4363 C4372 0.930 . S
H4364 C4377 0.929 . S
H4365 C4375 0.929 . S
H4366 C4370 0.929 . S
H4367 C4376 0.929 . S
C4368 H4362 0.930 . S
C4368 C4369 1.367 . S
C4368 C4376 1.378 . S
C4369 C4368 1.367 . S
C4369 C4377 1.433 . S
C4370 H4366 0.929 . S
C4370 C4372 1.378 . S
C4370 C4374 1.350 . S
C4371 C4374 1.463 . S
C4371 C4376 1.350 . S
C4371 N4379 1.427 . S
C4372 H4363 0.930 . S
C4372 C4370 1.378 . S
C4372 C4373 1.367 . S
C4373 C4372 1.367 . S
C4373 C4375 1.433 . S
C4374 C4370 1.350 . S
C4374 C4371 1.463 . S
C4374 N4378 1.427 . S
C4375 H4365 0.929 . S
C4375 C4373 1.433 . S
C4375 N4378 1.384 . S
C4376 H4367 0.929 . S
C4376 C4368 1.378 . S
C4376 C4371 1.350 . S
C4377 H4364 0.929 . S
C4377 C4369 1.433 . S
C4377 N4379 1.384 . S
N4378 C4374 1.427 . S
N4378 C4375 1.384 . S
N4379 C4371 1.427 . S
N4379 C4377 1.384 . S
H4380 C4386 0.930 . S
H4381 C4390 0.930 . S
H4382 C4395 0.929 . S
H4383 C4393 0.929 . S
H4384 C4388 0.929 . S
H4385 C4394 0.929 . S
C4386 H4380 0.930 . S
C4386 C4387 1.367 . S
C4386 C4394 1.378 . S
C4387 C4386 1.367 . S
C4387 C4395 1.433 . S
C4388 H4384 0.929 . S
C4388 C4390 1.378 . S
C4388 C4392 1.350 . S
C4389 C4392 1.463 . S
C4389 C4394 1.350 . S
C4389 N4397 1.427 . S
C4390 H4381 0.930 . S
C4390 C4388 1.378 . S
C4390 C4391 1.367 . S
C4391 C4390 1.367 . S
C4391 C4393 1.433 . S
C4392 C4388 1.350 . S
C4392 C4389 1.463 . S
C4392 N4396 1.427 . S
C4393 H4383 0.929 . S
C4393 C4391 1.433 . S
C4393 N4396 1.384 . S
C4394 H4385 0.929 . S
C4394 C4386 1.378 . S
C4394 C4389 1.350 . S
C4395 H4382 0.929 . S
C4395 C4387 1.433 . S
C4395 N4397 1.384 . S
N4396 C4392 1.427 . S
N4396 C4393 1.384 . S
N4397 C4389 1.427 . S
N4397 C4395 1.384 . S
H4398 C4404 0.930 . S
H4399 C4408 0.930 . S
H4400 C4413 0.929 . S
H4401 C4411 0.929 . S
H4402 C4406 0.929 . S
H4403 C4412 0.929 . S
C4404 H4398 0.930 . S
C4404 C4405 1.367 . S
C4404 C4412 1.378 . S
C4405 C4404 1.367 . S
C4405 C4413 1.433 . S
C4406 H4402 0.929 . S
C4406 C4408 1.378 . S
C4406 C4410 1.350 . S
C4407 C4410 1.463 . S
C4407 C4412 1.350 . S
C4407 N4415 1.427 . S
C4408 H4399 0.930 . S
C4408 C4406 1.378 . S
C4408 C4409 1.367 . S
C4409 C4408 1.367 . S
C4409 C4411 1.433 . S
C4410 C4406 1.350 . S
C4410 C4407 1.463 . S
C4410 N4414 1.427 . S
C4411 H4401 0.929 . S
C4411 C4409 1.433 . S
C4411 N4414 1.384 . S
C4412 H4403 0.929 . S
C4412 C4404 1.378 . S
C4412 C4407 1.350 . S
C4413 H4400 0.929 . S
C4413 C4405 1.433 . S
C4413 N4415 1.384 . S
N4414 C4410 1.427 . S
N4414 C4411 1.384 . S
N4415 C4407 1.427 . S
N4415 C4413 1.384 . S
C1399 C3 0.526 . S
C1403 C746 0.567 . S
C1417 C775 0.542 . S
C1421 C32 0.502 . S
C1435 C804 0.542 . S
C1439 C61 0.504 . S
C1453 C90 0.519 . S
C1457 C717 0.589 . S
C1471 C224 0.543 . S
C1475 C119 0.500 . S
C1489 C148 0.507 . S
C1493 C137 0.542 . S
C1507 C177 0.488 . S
C1511 C166 0.569 . S
C1525 C195 0.542 . S
C1529 C206 0.501 . S
C1543 C235 0.494 . S
C1547 C1355 0.546 . S
C1561 C485 0.556 . S
C1565 C264 0.522 . S
C1579 C293 0.507 . S
C1583 C1384 0.542 . S
C1597 C322 0.526 . S
C1601 C1326 0.573 . S
C1615 C351 0.524 . S
C1619 C1239 0.581 . S
C1633 C1268 0.566 . S
C1637 C380 0.526 . S
C1651 C601 0.548 . S
C1655 C409 0.493 . S
C1669 C438 0.507 . S
C1673 C1210 0.542 . S
C1687 C467 0.526 . S
C1691 C398 0.568 . S
C1705 C496 0.513 . S
C1709 C1036 0.592 . S
C1723 C525 0.508 . S
C1727 C949 0.592 . S
C1741 C978 0.565 . S
C1745 C554 0.488 . S
C1759 C311 0.581 . S
C1763 C583 0.493 . S
C1777 C1152 0.576 . S
C1781 C612 0.490 . S
C1795 C641 0.522 . S
C1799 C1065 0.586 . S
C1813 C1123 0.546 . S
C1817 C670 0.494 . S
C1831 C699 0.521 . S
C1835 C50 0.553 . S
C1849 C79 0.592 . S
C1853 C728 0.513 . S
C1867 C108 0.543 . S
C1871 C757 0.510 . S
C1885 C786 0.490 . S
C1889 C21 0.576 . S
C1903 C815 0.495 . S
C1907 C920 0.584 . S
C1921 C833 0.592 . S
C1925 C844 0.513 . S
C1939 C862 0.542 . S
C1943 C873 0.503 . S
C1957 C891 0.582 . S
C1961 C902 0.493 . S
C1975 C931 0.492 . S
C1979 C659 0.581 . S
C1993 C960 0.488 . S
C1997 C1181 0.558 . S
C2011 C688 0.586 . S
C2015 C989 0.521 . S
C2029 C1018 0.513 . S
C2033 C630 0.592 . S
C2047 C1047 0.524 . S
C2051 C543 0.581 . S
C2065 C572 0.579 . S
C2069 C1076 0.491 . S
C2083 C1297 0.580 . S
C2087 C1105 0.525 . S
C2101 C514 0.569 . S
C2105 C1134 0.488 . S
C2119 C1094 0.592 . S
C2123 C1163 0.508 . S
C2137 C1192 0.501 . S
C2141 C340 0.542 . S
C2155 C253 0.592 . S
C2159 C1221 0.513 . S
C2173 C282 0.574 . S
C2177 C1250 0.489 . S
C2191 C1007 0.542 . S
C2195 C1279 0.508 . S
C2209 C456 0.592 . S
C2213 C1308 0.508 . S
C2227 C369 0.584 . S
C2231 C1337 0.523 . S
C2245 C1366 0.526 . S
C2249 C427 0.571 . S
C2263 C63 3.290 . S
C2267 C5 3.289 . S
C2281 C92 3.289 . S
C2285 C34 3.290 . S
C2299 C179 3.288 . S
C2303 C121 3.288 . S
C2317 C150 3.292 . S
C2321 C208 3.291 . S
C2335 C353 3.288 . S
C2339 C237 3.290 . S
C2353 C382 3.291 . S
C2357 C266 3.289 . S
C2371 C295 3.288 . S
C2375 C411 3.289 . S
C2389 C324 3.288 . S
C2393 C440 3.289 . S
C2407 C469 3.292 . S
C2411 C1252 3.292 . S
C2425 C614 3.292 . S
C2429 C498 3.292 . S
C2443 C643 3.292 . S
C2447 C527 3.290 . S
C2461 C1165 3.292 . S
C2465 C556 3.291 . S
C2479 C585 3.291 . S
C2483 C1368 3.292 . S
C2497 C672 3.289 . S
C2501 C1281 3.288 . S
C2515 C701 3.292 . S
C2519 C759 3.292 . S
C2533 C730 3.288 . S
C2537 C788 3.289 . S
C2551 C817 3.291 . S
C2555 C875 3.289 . S
C2569 C904 3.292 . S
C2573 C846 3.290 . S
C2587 C1049 3.288 . S
C2591 C933 3.290 . S
C2605 C1078 3.288 . S
C2609 C962 3.289 . S
C2623 C991 3.292 . S
C2627 C1107 3.291 . S
C2641 C1020 3.292 . S
C2645 C1136 3.292 . S
C2659 C1194 3.290 . S
C2663 C1310 3.289 . S
C2677 C1223 3.288 . S
C2681 C1339 3.289 . S
C2695 C13 1.087 . S
C2699 C247 1.094 . S
C2713 C276 1.073 . S
C2717 C42 1.104 . S
C2731 C71 1.081 . S
C2735 C305 1.092 . S
C2749 C100 1.096 . S
C2753 C334 1.071 . S
C2767 C129 1.104 . S
C2771 C363 1.074 . S
C2785 C392 1.070 . S
C2789 C158 1.102 . S
C2803 C187 1.088 . S
C2807 C421 1.078 . S
C2821 C450 1.075 . S
C2825 C216 1.091 . S
C2839 C479 1.081 . S
C2843 C245 1.100 . S
C2857 C274 1.092 . S
C2861 C1378 1.074 . S
C2875 C1320 1.069 . S
C2879 C303 1.102 . S
C2893 C332 1.099 . S
C2897 C1349 1.070 . S
C2911 C361 1.090 . S
C2915 C508 1.076 . S
C2929 C537 1.088 . S
C2933 C390 1.095 . S
C2947 C566 1.092 . S
C2951 C419 1.081 . S
C2965 C1291 1.085 . S
C2969 C448 1.097 . S
C2983 C477 1.093 . S
C2987 C15 1.073 . S
C3001 C131 1.073 . S
C3005 C506 1.104 . S
C3019 C160 1.093 . S
C3023 C535 1.088 . S
C3037 C564 1.103 . S
C3041 C189 1.071 . S
C3055 C593 1.082 . S
C3059 C914 1.086 . S
C3073 C622 1.103 . S
C3077 C769 1.076 . S
C3091 C651 1.082 . S
C3095 C798 1.088 . S
C3109 C740 1.090 . S
C3113 C680 1.093 . S
C3127 C943 1.070 . S
C3131 C709 1.100 . S
C3145 C738 1.098 . S
C3149 C972 1.070 . S
C3163 C1001 1.070 . S
C3167 C767 1.099 . S
C3181 C1030 1.089 . S
C3185 C796 1.081 . S
C3199 C825 1.082 . S
C3203 C1059 1.094 . S
C3217 C1088 1.093 . S
C3221 C854 1.081 . S
C3235 C883 1.103 . S
C3239 C1117 1.070 . S
C3253 C912 1.088 . S
C3257 C1146 1.093 . S
C3271 C941 1.089 . S
C3275 C1175 1.077 . S
C3289 C682 1.085 . S
C3293 C970 1.097 . S
C3307 C999 1.084 . S
C3311 C624 1.094 . S
C3325 C1028 1.088 . S
C3329 C653 1.078 . S
C3343 C1057 1.102 . S
C3347 C1204 1.069 . S
C3361 C1233 1.090 . S
C3365 C1086 1.092 . S
C3379 C1262 1.075 . S
C3383 C1115 1.091 . S
C3397 C595 1.089 . S
C3401 C1144 1.094 . S
C3415 C711 1.086 . S
C3419 C1173 1.083 . S
C3433 C1202 1.104 . S
C3437 C827 1.073 . S
C3451 C1231 1.085 . S
C3455 C856 1.094 . S
C3469 C885 1.089 . S
C3473 C1260 1.094 . S
C3487 C1289 1.104 . S
C3491 C218 1.074 . S
C3505 C73 1.069 . S
C3509 C1318 1.101 . S
C3523 C1347 1.081 . S
C3527 C102 1.092 . S
C3541 C1376 1.084 . S
C3545 C44 1.083 . S
C3559 C8 2.418 . S
C3563 C387 2.351 . S
C3577 C416 2.350 . S
C3581 C37 2.408 1_554 S
C3595 C445 2.344 . S
C3599 C66 2.414 . S
C3613 C358 2.344 . S
C3617 C95 2.412 1_554 S
C3631 C1025 2.345 . S
C3635 C124 2.410 . S
C3649 C153 2.416 1_556 S
C3653 C938 2.355 . S
C3667 C967 2.355 . S
C3671 C182 2.416 . S
C3685 C996 2.356 . S
C3689 C211 2.412 1_556 S
C3703 C735 2.346 . S
C3707 C240 2.416 . S
C3721 C764 2.346 . S
C3725 C269 2.409 . S
C3739 C793 2.351 . S
C3743 C298 2.418 . S
C3757 C706 2.347 . S
C3761 C327 2.417 1_565 S
C3775 C213 2.354 . S
C3779 C356 2.417 . S
C3793 C126 2.347 . S
C3797 C385 2.409 . S
C3811 C155 2.356 . S
C3815 C414 2.412 . S
C3829 C443 2.412 1_565 S
C3833 C184 2.344 . S
C3847 C1344 2.345 . S
C3851 C472 2.410 . S
C3865 C1228 2.349 . S
C3869 C501 2.408 . S
C3883 C1257 2.351 . S
C3887 C530 2.409 1_455 S
C3901 C559 2.410 . S
C3905 C590 2.345 . S
C3919 C503 2.356 . S
C3923 C588 2.414 . S
C3937 C617 2.409 . S
C3941 C677 2.351 . S
C3955 C646 2.417 1_455 S
C3959 C619 2.353 . S
C3973 C1170 2.344 . S
C3977 C675 2.414 1_655 S
C3991 C1083 2.354 . S
C3995 C704 2.417 . S
C4009 C1112 2.345 . S
C4013 C733 2.410 . S
C4027 C1141 2.344 . S
C4031 C762 2.414 . S
C4045 C1054 2.345 . S
C4049 C791 2.416 . S
C4063 C329 2.348 . S
C4067 C820 2.417 . S
C4081 C242 2.353 . S
C4085 C849 2.409 . S
C4099 C271 2.347 . S
C4103 C878 2.409 . S
C4117 C300 2.356 . S
C4121 C907 2.414 . S
C4135 C39 2.355 . S
C4139 C936 2.416 . S
C4153 C965 2.411 1_545 S
C4157 C68 2.355 . S
C4171 C97 2.345 . S
C4175 C994 2.415 . S
C4189 C1023 2.413 . S
C4193 C10 2.344 . S
C4207 C1052 2.418 . S
C4211 C909 2.352 . S
C4225 C822 2.347 . S
C4229 C1081 2.417 1_545 S
C4243 C851 2.353 . S
C4247 C1110 2.410 . S
C4261 C880 2.345 . S
C4265 C1139 2.410 . S
C4279 C1168 2.412 . S
C4283 C648 2.356 . S
C4297 C1197 2.412 . S
C4301 C532 2.356 . S
C4315 C1226 2.417 . S
C4319 C561 2.353 . S
C4333 C1255 2.410 . S
C4337 C1286 2.345 . S
C4351 C1199 2.354 . S
C4355 C1284 2.410 1_655 S
C4369 C1373 2.345 . S
C4373 C1313 2.415 . S
C4387 C1342 2.416 . S
C4391 C1315 2.345 . S
C4405 C1371 2.415 . S
C4409 C474 2.356 . S
