# Generated by pormake.
# Topology smd, (6)-cn, num edge types: 1
# Building blocks:
#     Node 0, Type 0, BuildingBlock: VOLQOD_clean_sbu_1, # of connection points: 6
#     Node 1, Type 0, BuildingBlock: VOLQOD_clean_sbu_1, # of connection points: 6
#     Node 2, Type 0, BuildingBlock: VOLQOD_clean_sbu_1, # of connection points: 6
#     Node 3, Type 0, BuildingBlock: VOLQOD_clean_sbu_1, # of connection points: 6
#     Node 4, Type 0, BuildingBlock: VOLQOD_clean_sbu_1, # of connection points: 6
#     Node 5, Type 0, BuildingBlock: VOLQOD_clean_sbu_1, # of connection points: 6
#     Node 6, Type 0, BuildingBlock: VOLQOD_clean_sbu_1, # of connection points: 6
#     Node 7, Type 0, BuildingBlock: VOLQOD_clean_sbu_1, # of connection points: 6
#     Node 8, Type 0, BuildingBlock: VOLQOD_clean_sbu_1, # of connection points: 6
#     Node 9, Type 0, BuildingBlock: VOLQOD_clean_sbu_1, # of connection points: 6
#     Node 10, Type 0, BuildingBlock: VOLQOD_clean_sbu_1, # of connection points: 6
#     Node 11, Type 0, BuildingBlock: VOLQOD_clean_sbu_1, # of connection points: 6
#     Node 12, Type 0, BuildingBlock: VOLQOD_clean_sbu_1, # of connection points: 6
#     Node 13, Type 0, BuildingBlock: VOLQOD_clean_sbu_1, # of connection points: 6
#     Node 14, Type 0, BuildingBlock: VOLQOD_clean_sbu_1, # of connection points: 6
#     Node 15, Type 0, BuildingBlock: VOLQOD_clean_sbu_1, # of connection points: 6
#     Node 16, Type 0, BuildingBlock: VOLQOD_clean_sbu_1, # of connection points: 6
#     Node 17, Type 0, BuildingBlock: VOLQOD_clean_sbu_1, # of connection points: 6
#     Edge 18, Type (0, 0), BuildingBlock: CIFDUS_clean_linker_0, # of connection points: 2
#     Edge 19, Type (0, 0), BuildingBlock: CIFDUS_clean_linker_0, # of connection points: 2
#     Edge 20, Type (0, 0), BuildingBlock: CIFDUS_clean_linker_0, # of connection points: 2
#     Edge 21, Type (0, 0), BuildingBlock: CIFDUS_clean_linker_0, # of connection points: 2
#     Edge 22, Type (0, 0), BuildingBlock: CIFDUS_clean_linker_0, # of connection points: 2
#     Edge 23, Type (0, 0), BuildingBlock: CIFDUS_clean_linker_0, # of connection points: 2
#     Edge 24, Type (0, 0), BuildingBlock: CIFDUS_clean_linker_0, # of connection points: 2
#     Edge 25, Type (0, 0), BuildingBlock: CIFDUS_clean_linker_0, # of connection points: 2
#     Edge 26, Type (0, 0), BuildingBlock: CIFDUS_clean_linker_0, # of connection points: 2
#     Edge 27, Type (0, 0), BuildingBlock: CIFDUS_clean_linker_0, # of connection points: 2
#     Edge 28, Type (0, 0), BuildingBlock: CIFDUS_clean_linker_0, # of connection points: 2
#     Edge 29, Type (0, 0), BuildingBlock: CIFDUS_clean_linker_0, # of connection points: 2
#     Edge 30, Type (0, 0), BuildingBlock: CIFDUS_clean_linker_0, # of connection points: 2
#     Edge 31, Type (0, 0), BuildingBlock: CIFDUS_clean_linker_0, # of connection points: 2
#     Edge 32, Type (0, 0), BuildingBlock: CIFDUS_clean_linker_0, # of connection points: 2
#     Edge 33, Type (0, 0), BuildingBlock: CIFDUS_clean_linker_0, # of connection points: 2
#     Edge 34, Type (0, 0), BuildingBlock: CIFDUS_clean_linker_0, # of connection points: 2
#     Edge 35, Type (0, 0), BuildingBlock: CIFDUS_clean_linker_0, # of connection points: 2
#     Edge 36, Type (0, 0), BuildingBlock: CIFDUS_clean_linker_0, # of connection points: 2
#     Edge 37, Type (0, 0), BuildingBlock: CIFDUS_clean_linker_0, # of connection points: 2
#     Edge 38, Type (0, 0), BuildingBlock: CIFDUS_clean_linker_0, # of connection points: 2
#     Edge 39, Type (0, 0), BuildingBlock: CIFDUS_clean_linker_0, # of connection points: 2
#     Edge 40, Type (0, 0), BuildingBlock: CIFDUS_clean_linker_0, # of connection points: 2
#     Edge 41, Type (0, 0), BuildingBlock: CIFDUS_clean_linker_0, # of connection points: 2
#     Edge 42, Type (0, 0), BuildingBlock: CIFDUS_clean_linker_0, # of connection points: 2
#     Edge 43, Type (0, 0), BuildingBlock: CIFDUS_clean_linker_0, # of connection points: 2
#     Edge 44, Type (0, 0), BuildingBlock: CIFDUS_clean_linker_0, # of connection points: 2
#     Edge 45, Type (0, 0), BuildingBlock: CIFDUS_clean_linker_0, # of connection points: 2
#     Edge 46, Type (0, 0), BuildingBlock: CIFDUS_clean_linker_0, # of connection points: 2
#     Edge 47, Type (0, 0), BuildingBlock: CIFDUS_clean_linker_0, # of connection points: 2
#     Edge 48, Type (0, 0), BuildingBlock: CIFDUS_clean_linker_0, # of connection points: 2
#     Edge 49, Type (0, 0), BuildingBlock: CIFDUS_clean_linker_0, # of connection points: 2
#     Edge 50, Type (0, 0), BuildingBlock: CIFDUS_clean_linker_0, # of connection points: 2
#     Edge 51, Type (0, 0), BuildingBlock: CIFDUS_clean_linker_0, # of connection points: 2
#     Edge 52, Type (0, 0), BuildingBlock: CIFDUS_clean_linker_0, # of connection points: 2
#     Edge 53, Type (0, 0), BuildingBlock: CIFDUS_clean_linker_0, # of connection points: 2
#     Edge 54, Type (0, 0), BuildingBlock: CIFDUS_clean_linker_0, # of connection points: 2
#     Edge 55, Type (0, 0), BuildingBlock: CIFDUS_clean_linker_0, # of connection points: 2
#     Edge 56, Type (0, 0), BuildingBlock: CIFDUS_clean_linker_0, # of connection points: 2
#     Edge 57, Type (0, 0), BuildingBlock: CIFDUS_clean_linker_0, # of connection points: 2
#     Edge 58, Type (0, 0), BuildingBlock: CIFDUS_clean_linker_0, # of connection points: 2
#     Edge 59, Type (0, 0), BuildingBlock: CIFDUS_clean_linker_0, # of connection points: 2
#     Edge 60, Type (0, 0), BuildingBlock: CIFDUS_clean_linker_0, # of connection points: 2
#     Edge 61, Type (0, 0), BuildingBlock: CIFDUS_clean_linker_0, # of connection points: 2
#     Edge 62, Type (0, 0), BuildingBlock: CIFDUS_clean_linker_0, # of connection points: 2
#     Edge 63, Type (0, 0), BuildingBlock: CIFDUS_clean_linker_0, # of connection points: 2
#     Edge 64, Type (0, 0), BuildingBlock: CIFDUS_clean_linker_0, # of connection points: 2
#     Edge 65, Type (0, 0), BuildingBlock: CIFDUS_clean_linker_0, # of connection points: 2
#     Edge 66, Type (0, 0), BuildingBlock: CIFDUS_clean_linker_0, # of connection points: 2
#     Edge 67, Type (0, 0), BuildingBlock: CIFDUS_clean_linker_0, # of connection points: 2
#     Edge 68, Type (0, 0), BuildingBlock: CIFDUS_clean_linker_0, # of connection points: 2
#     Edge 69, Type (0, 0), BuildingBlock: CIFDUS_clean_linker_0, # of connection points: 2
#     Edge 70, Type (0, 0), BuildingBlock: CIFDUS_clean_linker_0, # of connection points: 2
#     Edge 71, Type (0, 0), BuildingBlock: CIFDUS_clean_linker_0, # of connection points: 2
# Relax obj value: 0.180
# Max RMSD: 0.177
# Mean RMSD: 0.174
data_MOF--net-smd--node1-VOLQOD_clean_sbu_1--edge1-CIFDUS_clean_linker_0
_symmetry_space_group_name_H-M    P1
_symmetry_Int_Tables_number       1
_symmetry_cell_setting            triclinic
loop_
_symmetry_equiv_pos_as_xyz
'x, y, z'
_cell_length_a     68.544385
_cell_length_b     68.533276
_cell_length_c     15.009112
_cell_angle_alpha  90.131099
_cell_angle_beta   89.950784
_cell_angle_gamma 120.08509
loop_
_atom_site_label
_atom_site_type_symbol
_atom_site_fract_x
_atom_site_fract_y
_atom_site_fract_z
_atom_type_partial_charge
O0 O 0.01041 0.20373 0.34399 0.0
Zn1 Zn 0.01008 0.19798 0.47368 0.0
O2 O 0.00708 0.22069 0.53814 0.0
Zn3 Zn 0.03551 0.24327 0.59037 0.0
Zn4 Zn -0.00494 0.23468 0.46109 0.0
Zn5 Zn 0.98665 0.20546 0.63282 0.0
O6 O 0.0323 0.24627 0.72466 0.0
O7 O 0.00236 0.21244 0.74767 0.0
O8 O 0.03872 0.1991 0.50783 0.0
O9 O 0.05752 0.23238 0.57645 0.0
O10 O 0.04775 0.27343 0.52745 0.0
O11 O 0.01704 0.26761 0.45422 0.0
O12 O 0.96592 0.2315 0.50984 0.0
O13 O 0.98422 0.16679 0.49506 0.0
O14 O 0.96449 0.2159 0.64106 0.0
O15 O 0.96941 0.17233 0.61691 0.0
C16 C 0.00249 0.21372 0.29786 0.0
C17 C 0.01907 0.23046 0.77692 0.0
C18 C 0.0374 0.28038 0.47797 0.0
C19 C 0.05631 0.2144 0.5463 0.0
C20 C 0.95721 0.22504 0.58704 0.0
C21 C 0.96985 0.15928 0.55781 0.0
O22 O 0.99389 0.22459 0.3336 0.0
O23 O 0.81637 0.8294 0.67789 0.0
Zn24 Zn 0.82114 0.83416 0.54688 0.0
O25 O 0.79522 0.80992 0.48663 0.0
Zn26 Zn 0.80244 0.78926 0.42727 0.0
Zn27 Zn 0.77045 0.79358 0.56818 0.0
Zn28 Zn 0.78604 0.82313 0.39691 0.0
O29 O 0.79625 0.78749 0.29486 0.0
O30 O 0.7966 0.81988 0.27886 0.0
O31 O 0.84981 0.83424 0.51233 0.0
O32 O 0.83549 0.80154 0.43984 0.0
O33 O 0.78632 0.75824 0.48252 0.0
O34 O 0.76469 0.76222 0.5824 0.0
O35 O 0.74122 0.79055 0.52227 0.0
O36 O 0.82362 0.86437 0.52398 0.0
O37 O 0.75258 0.8072 0.39056 0.0
O38 O 0.7976 0.85555 0.41938 0.0
C39 C 0.7986 0.81899 0.72492 0.0
C40 C 0.79726 0.80314 0.24598 0.0
C41 C 0.77192 0.75036 0.5454 0.0
C42 C 0.85228 0.81926 0.47154 0.0
C43 C 0.73693 0.79558 0.44578 0.0
C44 C 0.81265 0.86984 0.47115 0.0
O45 O 0.7792 0.80639 0.69082 0.0
O46 O 0.2096 0.00945 0.30083 0.0
Zn47 Zn 0.20072 0.01003 0.42759 0.0
O48 O 0.22527 0.01459 0.50356 0.0
Zn49 Zn 0.21944 0.98661 0.55737 0.0
Zn50 Zn 0.25191 0.02775 0.43092 0.0
Zn51 Zn 0.2297 0.03547 0.59543 0.0
O52 O 0.22417 0.99029 0.69177 0.0
O53 O 0.21976 0.02013 0.71072 0.0
O54 O 0.17261 0.98043 0.45552 0.0
O55 O 0.18683 0.96399 0.54024 0.0
O56 O 0.23788 0.97485 0.49478 0.0
O57 O 0.25972 0.00401 0.40789 0.0
O58 O 0.27858 0.05365 0.49151 0.0
O59 O 0.19539 0.0364 0.44065 0.0
O60 O 0.26255 0.05719 0.61412 0.0
O61 O 0.21401 0.05234 0.56607 0.0
C62 C 0.22829 0.02293 0.26357 0.0
C63 C 0.22144 0.00382 0.74198 0.0
C64 C 0.25311 0.98409 0.43506 0.0
C65 C 0.17021 0.96364 0.50083 0.0
C66 C 0.27998 0.06277 0.56705 0.0
C67 C 0.20154 0.05137 0.50146 0.0
O68 O 0.24593 0.03551 0.30893 0.0
O69 O 0.02988 0.79569 0.60789 0.0
Zn70 Zn 0.03509 0.80278 0.47542 0.0
O71 O 0.00684 0.79387 0.41481 0.0
Zn72 Zn 0.00034 0.76991 0.33224 0.0
Zn73 Zn 0.98386 0.7822 0.50229 0.0
Zn74 Zn 0.00612 0.81888 0.35681 0.0
O75 O 0.9932 0.77703 0.21195 0.0
O76 O 0.005 0.81378 0.2246 0.0
O77 O 0.05294 0.78974 0.41532 0.0
O78 O 0.02842 0.76927 0.30999 0.0
O79 O 0.97772 0.73906 0.38109 0.0
O80 O 0.96942 0.7489 0.51023 0.0
O81 O 0.96022 0.78967 0.47438 0.0
O82 O 0.0537 0.83632 0.46653 0.0
O83 O 0.97768 0.81988 0.38759 0.0
O84 O 0.03429 0.84834 0.3875 0.0
C85 C 0.01449 0.79577 0.65557 0.0
C86 C -0.00167 0.79601 0.17773 0.0
C87 C 0.96784 0.73381 0.45657 0.0
C88 C 0.0477 0.77729 0.34598 0.0
C89 C 0.96042 0.80569 0.43131 0.0
C90 C 0.05176 0.85222 0.43182 0.0
O91 O -0.0032 0.79413 0.62101 0.0
O92 O 0.25118 0.22348 0.38265 0.0
Zn93 Zn 0.24922 0.21785 0.51588 0.0
O94 O 0.23201 0.22975 0.57446 0.0
Zn95 Zn 0.25024 0.25428 0.65445 0.0
Zn96 Zn 0.22186 0.24147 0.48375 0.0
Zn97 Zn 0.20547 0.20681 0.63504 0.0
O98 O 0.23824 0.24699 0.77876 0.0
O99 O 0.20987 0.21161 0.76587 0.0
O100 O 0.28086 0.23183 0.56896 0.0
O101 O 0.27998 0.25641 0.66391 0.0
O102 O 0.25574 0.28472 0.60978 0.0
O103 O 0.24149 0.27426 0.47403 0.0
O104 O 0.19177 0.23673 0.51 0.0
O105 O 0.23207 0.18397 0.53076 0.0
O106 O 0.17755 0.20843 0.60635 0.0
O107 O 0.20112 0.1764 0.60747 0.0
C108 C 0.23669 0.2248 0.33379 0.0
C109 C 0.22294 0.22867 0.81295 0.0
C110 C 0.25264 0.28957 0.531 0.0
C111 C 0.29006 0.24701 0.62893 0.0
C112 C 0.17567 0.22264 0.55809 0.0
C113 C 0.21323 0.17004 0.5664 0.0
O114 O 0.22176 0.22845 0.36678 0.0
O115 O 0.77077 -0.00157 0.62626 0.0
Zn116 Zn 0.77111 0.99517 0.49312 0.0
O117 O 0.78918 0.02459 0.43633 0.0
Zn118 Zn 0.77032 0.03327 0.37203 0.0
Zn119 Zn 0.80545 0.04764 0.5244 0.0
Zn120 Zn 0.81004 0.02278 0.35398 0.0
O121 O 0.77867 0.03901 0.24331 0.0
O122 O 0.80206 0.02552 0.22955 0.0
O123 O 0.73921 0.97958 0.44548 0.0
O124 O 0.73878 0.00776 0.37329 0.0
O125 O 0.77008 0.05981 0.42615 0.0
O126 O 0.79635 0.07139 0.53067 0.0
O127 O 0.83853 0.06149 0.50618 0.0
O128 O 0.78435 0.97533 0.47026 0.0
O129 O 0.84198 0.04668 0.3792 0.0
O130 O 0.80936 0.99341 0.36305 0.0
C131 C 0.78328 0.01525 0.67563 0.0
C132 C 0.79025 0.03317 0.1958 0.0
C133 C 0.78133 0.07336 0.48864 0.0
C134 C 0.72896 0.98753 0.40099 0.0
C135 C 0.85063 0.05991 0.44539 0.0
C136 C 0.79898 0.97665 0.41473 0.0
O137 O 0.79777 0.0342 0.64378 0.0
O138 O 0.68482 0.5512 -0.00485 0.0
Zn139 Zn 0.68205 0.54495 0.86457 0.0
O140 O 0.67763 0.5675 0.80358 0.0
Zn141 Zn 0.64872 0.55397 0.74172 0.0
Zn142 Zn 0.68016 0.59042 0.88534 0.0
Zn143 Zn 0.70135 0.58196 0.71871 0.0
O144 O 0.65331 0.55872 0.60945 0.0
O145 O 0.69001 0.57088 0.59757 0.0
O146 O 0.65519 0.5141 0.84749 0.0
O147 O 0.63227 0.52045 0.76259 0.0
O148 O 0.62894 0.56623 0.78724 0.0
O149 O 0.65047 0.58834 0.89712 0.0
O150 O 0.70176 0.62215 0.84292 0.0
O151 O 0.711 0.54596 0.82897 0.0
O152 O 0.71381 0.61508 0.71667 0.0
O153 O 0.7266 0.5768 0.74532 0.0
C154 C 0.68734 0.56785 0.04156 0.0
C155 C 0.67073 0.56379 0.56269 0.0
C156 C 0.63207 0.57899 0.85402 0.0
C157 C 0.63676 0.50712 0.80522 0.0
C158 C 0.71318 0.62894 0.77123 0.0
C159 C 0.72775 0.56122 0.78627 0.0
O160 O 0.68717 0.58472 0.00744 0.0
O161 O 0.47287 0.14568 0.07522 0.0
Zn162 Zn 0.4781 0.1506 0.94414 0.0
O163 O 0.45141 0.12815 0.88311 0.0
Zn164 Zn 0.45621 0.10613 0.82064 0.0
Zn165 Zn 0.42655 0.11334 0.96424 0.0
Zn166 Zn 0.44399 0.14307 0.79552 0.0
O167 O 0.44652 0.10354 0.69119 0.0
O168 O 0.45402 0.13894 0.67721 0.0
O169 O 0.50484 0.14819 0.90538 0.0
O170 O 0.48956 0.1181 0.8161 0.0
O171 O 0.44137 0.07606 0.88695 0.0
O172 O 0.42156 0.08271 0.98749 0.0
O173 O 0.39757 0.11038 0.91365 0.0
O174 O 0.48422 0.18225 0.92131 0.0
O175 O 0.41079 0.12949 0.78778 0.0
O176 O 0.45738 0.17556 0.8231 0.0
C177 C 0.45479 0.13766 0.12086 0.0
C178 C 0.45053 0.12048 0.64297 0.0
C179 C 0.42838 0.07006 0.95474 0.0
C180 C 0.50669 0.13464 0.85244 0.0
C181 C 0.39439 0.11728 0.83906 0.0
C182 C 0.47359 0.18904 0.87285 0.0
O183 O 0.43528 0.12745 0.08515 0.0
O184 O 0.88703 0.35489 0.9317 0.0
Zn185 Zn 0.87233 0.34771 0.8138 0.0
O186 O 0.88932 0.34049 0.73504 0.0
Zn187 Zn 0.90933 0.36686 0.66659 0.0
Zn188 Zn 0.90525 0.33054 0.80905 0.0
Zn189 Zn 0.86933 0.31631 0.6602 0.0
O190 O 0.90831 0.35693 0.53984 0.0
O191 O 0.87368 0.32668 0.53621 0.0
O192 O 0.87125 0.37436 0.77148 0.0
O193 O 0.89797 0.38903 0.66793 0.0
O194 O 0.94092 0.38198 0.72064 0.0
O195 O 0.93694 0.35539 0.81594 0.0
O196 O 0.904 0.30255 0.76101 0.0
O197 O 0.84093 0.32178 0.82619 0.0
O198 O 0.87808 0.29255 0.65519 0.0
O199 O 0.83733 0.30262 0.70149 0.0
C200 C 0.89298 0.34274 0.97427 0.0
C201 C 0.89167 0.34122 0.49763 0.0
C202 C 0.94878 0.3748 0.78132 0.0
C203 C 0.8825 0.38941 0.71379 0.0
C204 C 0.89226 0.28943 0.69802 0.0
C205 C 0.82904 0.30585 0.77222 0.0
O206 O 0.89517 0.32737 0.93586 0.0
O207 O 0.70054 0.14563 0.00746 0.0
Zn208 Zn 0.70265 0.14868 0.87318 0.0
O209 O 0.67271 0.13368 0.81692 0.0
Zn210 Zn 0.66857 0.10846 0.74515 0.0
Zn211 Zn 0.64965 0.12216 0.90657 0.0
Zn212 Zn 0.66889 0.15456 0.74121 0.0
O213 O 0.66041 0.11079 0.62053 0.0
O214 O 0.66812 0.14634 0.61307 0.0
O215 O 0.72244 0.13695 0.82223 0.0
O216 O 0.69798 0.1096 0.73315 0.0
O217 O 0.64501 0.07848 0.79275 0.0
O218 O 0.63021 0.08861 0.90227 0.0
O219 O 0.63004 0.13572 0.89813 0.0
O220 O 0.71802 0.18176 0.84669 0.0
O221 O 0.6404 0.15503 0.77125 0.0
O222 O 0.69504 0.18578 0.7536 0.0
C223 C 0.68312 0.13742 0.05695 0.0
C224 C 0.66321 0.12773 0.57609 0.0
C225 C 0.63066 0.07346 0.85489 0.0
C226 C 0.71773 0.12144 0.76493 0.0
C227 C 0.62766 0.14766 0.83935 0.0
C228 C 0.71322 0.19401 0.79825 0.0
O229 O 0.66338 0.12879 0.02494 0.0
O230 O 0.89321 0.58094 0.97582 0.0
Zn231 Zn 0.88687 0.57948 0.84326 0.0
O232 O 0.89432 0.55886 0.78406 0.0
Zn233 Zn 0.92009 0.57581 0.70836 0.0
Zn234 Zn 0.90127 0.54334 0.87285 0.0
Zn235 Zn 0.8694 0.53627 0.7157 0.0
O236 O 0.91421 0.56278 0.58479 0.0
O237 O 0.87659 0.54238 0.58743 0.0
O238 O 0.90265 0.61052 0.78653 0.0
O239 O 0.92439 0.60636 0.68788 0.0
O240 O 0.94842 0.58007 0.76813 0.0
O241 O 0.93449 0.55668 0.88326 0.0
O242 O 0.88729 0.51051 0.84918 0.0
O243 O 0.85379 0.56737 0.82825 0.0
O244 O 0.86488 0.50536 0.73407 0.0
O245 O 0.84089 0.53645 0.74442 0.0
C246 C 0.89192 0.56508 0.02434 0.0
C247 C 0.89523 0.55156 0.54558 0.0
C248 C 0.95115 0.57131 0.83854 0.0
C249 C 0.91671 0.61808 0.72239 0.0
C250 C 0.87318 0.49785 0.79088 0.0
C251 C 0.83769 0.55039 0.78935 0.0
O252 O 0.89157 0.54787 0.99077 0.0
O253 O 0.44832 0.33222 0.11906 0.0
Zn254 Zn 0.44655 0.32703 0.98746 0.0
O255 O 0.46724 0.3542 0.92415 0.0
Zn256 Zn 0.44964 0.35994 0.8397 0.0
Zn257 Zn 0.48121 0.37895 0.00684 0.0
Zn258 Zn 0.49071 0.35111 0.864 0.0
O259 O 0.46378 0.36647 0.7205 0.0
O260 O 0.48814 0.35407 0.73276 0.0
O261 O 0.41444 0.31284 0.94468 0.0
O262 O 0.41954 0.33238 0.82078 0.0
O263 O 0.44408 0.38445 0.88356 0.0
O264 O 0.46574 0.39736 0.00387 0.0
O265 O 0.51428 0.39825 0.98302 0.0
O266 O 0.45516 0.30395 0.96216 0.0
O267 O 0.5216 0.37666 0.89412 0.0
O268 O 0.48738 0.32043 0.88606 0.0
C269 C 0.46279 0.34877 0.16516 0.0
C270 C 0.47779 0.36157 0.68659 0.0
C271 C 0.45129 0.39752 0.951 0.0
C272 C 0.40722 0.31575 0.87076 0.0
C273 C 0.52807 0.39461 0.93932 0.0
C274 C 0.4713 0.3032 0.92362 0.0
O275 O 0.4775 0.36714 0.1297 0.0
O276 O 0.33105 0.86539 0.99195 0.0
Zn277 Zn 0.33521 0.86226 0.12147 0.0
O278 O 0.33476 0.88633 0.18818 0.0
Zn279 Zn 0.36349 0.90601 0.24868 0.0
Zn280 Zn 0.3279 0.90417 0.10907 0.0
Zn281 Zn 0.31119 0.87272 0.27502 0.0
O282 O 0.35918 0.9079 0.38167 0.0
O283 O 0.32436 0.87883 0.39475 0.0
O284 O 0.36484 0.86402 0.13827 0.0
O285 O 0.38328 0.89232 0.23436 0.0
O286 O 0.38018 0.9373 0.19216 0.0
O287 O 0.35542 0.93364 0.08849 0.0
O288 O 0.3045 0.91028 0.16226 0.0
O289 O 0.31088 0.83129 0.15929 0.0
O290 O 0.29112 0.88604 0.27457 0.0
O291 O 0.29339 0.83954 0.26438 0.0
C292 C 0.3243 0.87686 0.94891 0.0
C293 C 0.34266 0.8939 0.4292 0.0
C294 C 0.37458 0.94485 0.1253 0.0
C295 C 0.38189 0.87621 0.18698 0.0
C296 C 0.29115 0.90154 0.22813 0.0
C297 C 0.2955 0.82521 0.21783 0.0
O298 O 0.32031 0.89112 0.98671 0.0
O299 O 0.13449 0.46545 0.3332 0.0
Zn300 Zn 0.14266 0.47407 0.20534 0.0
O301 O 0.11922 0.45167 0.13083 0.0
Zn302 Zn 0.12893 0.43216 0.07578 0.0
Zn303 Zn 0.09302 0.43536 0.20402 0.0
Zn304 Zn 0.11088 0.46584 0.04191 0.0
O305 O 0.12438 0.43167 0.94112 0.0
O306 O 0.12255 0.46312 0.9257 0.0
O307 O 0.17209 0.47557 0.18179 0.0
O308 O 0.16251 0.44598 0.09343 0.0
O309 O 0.113 0.4009 0.13618 0.0
O310 O 0.08981 0.40564 0.22538 0.0
O311 O 0.06425 0.42953 0.14465 0.0
O312 O 0.1456 0.50466 0.18653 0.0
O313 O 0.07757 0.45016 0.02292 0.0
O314 O 0.12153 0.49769 0.07506 0.0
C315 C 0.11534 0.45732 0.37088 0.0
C316 C 0.12425 0.44693 0.89265 0.0
C317 C 0.09793 0.3937 0.19716 0.0
C318 C 0.17728 0.46314 0.13626 0.0
C319 C 0.06103 0.43621 0.06992 0.0
C320 C 0.13542 0.51095 0.13298 0.0
O321 O 0.09711 0.44883 0.32612 0.0
O322 O 0.54613 0.67916 0.95083 0.0
Zn323 Zn 0.53778 0.68046 0.07663 0.0
O324 O 0.56047 0.68124 0.15506 0.0
Zn325 Zn 0.54892 0.65238 0.21343 0.0
Zn326 Zn 0.58649 0.68804 0.0841 0.0
Zn327 Zn 0.56884 0.70449 0.24236 0.0
O328 O 0.55376 0.65601 0.34547 0.0
O329 O 0.56101 0.69132 0.3621 0.0
O330 O 0.50714 0.65391 0.10092 0.0
O331 O 0.51562 0.63482 0.19775 0.0
O332 O 0.56242 0.63467 0.16093 0.0
O333 O 0.58775 0.65972 0.06713 0.0
O334 O 0.6153 0.71227 0.13953 0.0
O335 O 0.53586 0.70851 0.09163 0.0
O336 O 0.60227 0.72482 0.24755 0.0
O337 O 0.55415 0.72277 0.21915 0.0
C338 C 0.56558 0.68898 0.91531 0.0
C339 C 0.55704 0.67257 0.3944 0.0
C340 C 0.57741 0.64006 0.10095 0.0
C341 C 0.50126 0.63722 0.15269 0.0
C342 C 0.6186 0.72563 0.20427 0.0
C343 C 0.54229 0.72293 0.15437 0.0
O344 O 0.58354 0.69718 0.96139 0.0
O345 O 0.36696 0.47303 0.43469 0.0
Zn346 Zn 0.3713 0.47739 0.30237 0.0
O347 O 0.34291 0.46705 0.242 0.0
Zn348 Zn 0.33668 0.44216 0.16576 0.0
Zn349 Zn 0.3193 0.45713 0.32801 0.0
Zn350 Zn 0.34345 0.49049 0.1691 0.0
O351 O 0.32648 0.44583 0.04632 0.0
O352 O 0.34489 0.48333 0.04122 0.0
O353 O 0.38884 0.46343 0.25032 0.0
O354 O 0.36512 0.44146 0.14527 0.0
O355 O 0.3143 0.4127 0.22002 0.0
O356 O 0.30263 0.42352 0.33822 0.0
O357 O 0.29799 0.46807 0.29895 0.0
O358 O 0.38971 0.51048 0.28649 0.0
O359 O 0.31447 0.4911 0.18408 0.0
O360 O 0.37057 0.52076 0.19708 0.0
C361 C 0.35063 0.47121 0.48152 0.0
C362 C 0.33464 0.46418 0.00301 0.0
C363 C 0.30245 0.40812 0.29034 0.0
C364 C 0.38416 0.45011 0.18412 0.0
C365 C 0.29828 0.48137 0.23933 0.0
C366 C 0.38766 0.52558 0.24558 0.0
O367 O 0.33219 0.46759 0.44702 0.0
O368 O 0.57665 0.89512 0.90189 0.0
Zn369 Zn 0.57416 0.88765 0.0332 0.0
O370 O 0.55248 0.89394 0.0916 0.0
Zn371 Zn 0.56732 0.91865 0.17377 0.0
Zn372 Zn 0.53796 0.90194 0.00228 0.0
Zn373 Zn 0.5298 0.86803 0.15473 0.0
O374 O 0.55549 0.90997 0.29728 0.0
O375 O 0.53441 0.87266 0.28524 0.0
O376 O 0.60476 0.90405 0.09436 0.0
O377 O 0.59892 0.92598 0.18644 0.0
O378 O 0.56786 0.94669 0.13145 0.0
O379 O 0.55107 0.9354 -0.00024 0.0
O380 O 0.50479 0.88718 0.02173 0.0
O381 O 0.56251 0.85433 0.03933 0.0
O382 O 0.49901 0.86321 0.13169 0.0
O383 O 0.53137 0.8407 0.12186 0.0
C384 C 0.5609 0.89368 0.8523 0.0
C385 C 0.54402 0.89053 0.33197 0.0
C386 C 0.56182 0.95086 0.05706 0.0
C387 C 0.61163 0.9191 0.15512 0.0
C388 C 0.49175 0.87206 0.07619 0.0
C389 C 0.54538 0.83791 0.07585 0.0
O390 O 0.54352 0.89325 0.88418 0.0
O391 O 0.1004 0.65158 0.34565 0.0
Zn392 Zn 0.10179 0.64754 0.21085 0.0
O393 O 0.12631 0.67464 0.15681 0.0
Zn394 Zn 0.11469 0.68831 0.0765 0.0
Zn395 Zn 0.14227 0.69572 0.2493 0.0
Zn396 Zn 0.14748 0.66855 0.09443 0.0
O397 O 0.12672 0.69077 0.95238 0.0
O398 O 0.14345 0.67014 0.9634 0.0
O399 O 0.07203 0.63794 0.14772 0.0
O400 O 0.08222 0.6672 0.05813 0.0
O401 O 0.11698 0.71674 0.12718 0.0
O402 O 0.13293 0.71905 0.25819 0.0
O403 O 0.17522 0.71079 0.23057 0.0
O404 O 0.10829 0.62232 0.19327 0.0
O405 O 0.17984 0.69163 0.1213 0.0
O406 O 0.14147 0.63746 0.12387 0.0
C407 C 0.11693 0.66439 0.39626 0.0
C408 C 0.13596 0.68049 0.91703 0.0
C409 C 0.12346 0.7259 0.20368 0.0
C410 C 0.06741 0.64803 0.08713 0.0
C411 C 0.18792 0.70747 0.17858 0.0
C412 C 0.12463 0.62077 0.16066 0.0
O413 O 0.13519 0.68039 0.3652 0.0
H414 H 0.064 0.37399 0.31548 0.0
H415 H 0.11395 0.36391 0.18069 0.0
H416 H 0.10112 0.32866 0.26375 0.0
H417 H 0.07473 0.30029 0.37307 0.0
H418 H 0.02453 0.3111 0.50043 0.0
H419 H 0.03896 0.34707 0.42344 0.0
C420 C 0.07225 0.36423 0.30378 0.0
C421 C 0.08994 0.37164 0.24157 0.0
C422 C 0.06495 0.34433 0.35174 0.0
C423 C 0.1002 0.35854 0.22763 0.0
C424 C 0.09296 0.33849 0.27558 0.0
C425 C 0.06742 0.31089 0.38516 0.0
C426 C 0.04893 0.30348 0.44336 0.0
C427 C 0.07535 0.33124 0.33801 0.0
C428 C 0.039 0.3168 0.4569 0.0
C429 C 0.0471 0.3372 0.41236 0.0
H430 H 0.72239 0.78693 0.27589 0.0
H431 H 0.69864 0.78032 0.54663 0.0
H432 H 0.65954 0.75964 0.49386 0.0
H433 H 0.63242 0.7412 0.37164 0.0
H434 H 0.65675 0.74491 0.10339 0.0
H435 H 0.69552 0.76913 0.15439 0.0
C436 C 0.70868 0.78131 0.3234 0.0
C437 C 0.71336 0.78527 0.41502 0.0
C438 C 0.68643 0.76878 0.29298 0.0
C439 C 0.69542 0.77749 0.47579 0.0
C440 C 0.67311 0.76565 0.44564 0.0
C441 C 0.64621 0.74757 0.32424 0.0
C442 C 0.64181 0.74139 0.23385 0.0
C443 C 0.66845 0.76085 0.35454 0.0
C444 C 0.65979 0.74941 0.17328 0.0
C445 C 0.68191 0.76325 0.20239 0.0
H446 H 0.23904 0.93911 0.44974 0.0
H447 H 0.28764 0.0002 0.3162 0.0
H448 H 0.30145 0.97932 0.23214 0.0
H449 H 0.30088 0.94429 0.19954 0.0
H450 H 0.25413 0.88325 0.33696 0.0
H451 H 0.2381 0.90344 0.41463 0.0
C452 C 0.25275 0.94786 0.40274 0.0
C453 C 0.2623 0.97122 0.38989 0.0
C454 C 0.26073 0.93573 0.35411 0.0
C455 C 0.27995 0.98225 0.32795 0.0
C456 C 0.28784 0.97031 0.27927 0.0
C457 C 0.28686 0.93525 0.245 0.0
C458 C 0.2786 0.9123 0.26199 0.0
C459 C 0.27837 0.94709 0.29177 0.0
C460 C 0.2607 0.90094 0.32245 0.0
C461 C 0.25167 0.91251 0.36742 0.0
H462 H 0.29107 0.06894 0.74206 0.0
H463 H 0.31926 0.08968 0.47876 0.0
H464 H 0.35715 0.11058 0.54238 0.0
H465 H 0.38219 0.1198 0.67012 0.0
H466 H 0.35455 0.09631 0.93253 0.0
H467 H 0.31633 0.07969 0.8718 0.0
C468 C 0.30548 0.07841 0.69878 0.0
C469 C 0.30242 0.07786 0.60582 0.0
C470 C 0.32724 0.08965 0.73554 0.0
C471 C 0.32123 0.08986 0.55042 0.0
C472 C 0.34287 0.10174 0.58675 0.0
C473 C 0.36786 0.11134 0.71461 0.0
C474 C 0.37125 0.10927 0.80588 0.0
C475 C 0.34607 0.10128 0.67889 0.0
C476 C 0.35242 0.09807 0.86206 0.0
C477 C 0.33058 0.08856 0.82733 0.0
H478 H 0.90657 0.26566 0.79431 0.0
H479 H 0.89075 0.27592 0.52666 0.0
H480 H 0.90758 0.25454 0.46705 0.0
H481 H 0.93148 0.23756 0.49068 0.0
H482 H 0.94586 0.22622 0.75966 0.0
H483 H 0.92461 0.24299 0.81871 0.0
C484 C 0.90641 0.26277 0.72313 0.0
C485 C 0.89778 0.27255 0.66493 0.0
C486 C 0.91605 0.25045 0.68934 0.0
C487 C 0.89733 0.26851 0.57283 0.0
C488 C 0.9071 0.25644 0.5386 0.0
C489 C 0.92961 0.23841 0.56213 0.0
C490 C 0.94064 0.23108 0.62042 0.0
C491 C 0.91725 0.24804 0.59612 0.0
C492 C 0.93772 0.2319 0.71297 0.0
C493 C 0.92564 0.2416 0.7471 0.0
H494 H 0.74837 0.7317 0.69703 0.0
H495 H 0.77707 0.71702 0.46791 0.0
H496 H 0.76249 0.6785 0.52108 0.0
H497 H 0.74047 0.64879 0.629 0.0
H498 H 0.71164 0.66338 0.85795 0.0
H499 H 0.72776 0.70241 0.80858 0.0
C500 C 0.75144 0.72009 0.65849 0.0
C501 C 0.7636 0.72717 0.57804 0.0
C502 C 0.7431 0.69804 0.68952 0.0
C503 C 0.76769 0.71199 0.5298 0.0
C504 C 0.75936 0.68997 0.56016 0.0
C505 C 0.73779 0.6605 0.66862 0.0
C506 C 0.72472 0.65309 0.74684 0.0
C507 C 0.7469 0.68279 0.63948 0.0
C508 C 0.72161 0.66859 0.79749 0.0
C509 C 0.73073 0.69089 0.7691 0.0
H510 H 0.94424 0.71717 0.61011 0.0
H511 H 0.96586 0.69719 0.37364 0.0
H512 H 0.95142 0.65946 0.43518 0.0
H513 H 0.93501 0.6331 0.55954 0.0
H514 H 0.91339 0.65293 0.79618 0.0
H515 H 0.9257 0.69001 0.73087 0.0
C516 C 0.94563 0.70454 0.57142 0.0
C517 C 0.95631 0.71011 0.48753 0.0
C518 C 0.93758 0.683 0.60767 0.0
C519 C 0.95776 0.69342 0.43829 0.0
C520 C 0.94963 0.67187 0.47369 0.0
C521 C 0.93303 0.64554 0.59713 0.0
C522 C 0.92362 0.6404 0.68326 0.0
C523 C 0.93997 0.66666 0.55902 0.0
C524 C 0.92073 0.65653 0.7301 0.0
C525 C 0.92774 0.6777 0.69275 0.0
H526 H 0.30385 0.25263 0.79841 0.0
H527 H 0.32766 0.25954 0.52813 0.0
H528 H 0.36682 0.28105 0.58062 0.0
H529 H 0.39368 0.30144 0.70234 0.0
H530 H 0.36962 0.29319 0.97299 0.0
H531 H 0.3309 0.26852 0.92162 0.0
C532 C 0.31769 0.25843 0.75139 0.0
C533 C 0.31311 0.25475 0.65979 0.0
C534 C 0.33993 0.27079 0.78202 0.0
C535 C 0.33096 0.26212 0.59902 0.0
C536 C 0.35326 0.27459 0.62897 0.0
C537 C 0.37992 0.29409 0.74992 0.0
C538 C 0.38426 0.2994 0.84097 0.0
C539 C 0.35786 0.27966 0.72002 0.0
C540 C 0.36653 0.28943 0.90254 0.0
C541 C 0.34446 0.27537 0.87321 0.0
H542 H 0.72351 0.11669 0.59233 0.0
H543 H 0.75183 0.11894 0.85086 0.0
H544 H 0.77737 0.10749 0.78416 0.0
H545 H 0.78746 0.0918 0.65483 0.0
H546 H 0.75794 0.08925 0.39783 0.0
H547 H 0.73742 0.10648 0.46108 0.0
C548 C 0.7355 0.11493 0.63385 0.0
C549 C 0.7356 0.11813 0.72627 0.0
C550 C 0.74987 0.10835 0.59522 0.0
C551 C 0.75145 0.11636 0.77951 0.0
C552 C 0.76594 0.10977 0.74138 0.0
C553 C 0.77704 0.09562 0.61218 0.0
C554 C 0.77396 0.08895 0.52193 0.0
C555 C 0.76477 0.10502 0.64961 0.0
C556 C 0.76039 0.09397 0.4676 0.0
C557 C 0.74855 0.10372 0.50379 0.0
H558 H 0.6288 0.94863 0.29142 0.0
H559 H 0.6453 0.90999 0.11012 0.0
H560 H 0.68263 0.9258 0.17915 0.0
H561 H 0.7113 0.95255 0.28576 0.0
H562 H 0.69446 0.99211 0.45927 0.0
H563 H 0.6561 0.97353 0.39967 0.0
C564 C 0.64046 0.94355 0.26654 0.0
C565 C 0.63432 0.92831 0.19491 0.0
C566 C 0.66169 0.95268 0.30606 0.0
C567 C 0.64967 0.92185 0.1646 0.0
C568 C 0.67096 0.93082 0.20427 0.0
C569 C 0.69893 0.95655 0.31169 0.0
C570 C 0.70525 0.97322 0.37757 0.0
C571 C 0.67721 0.9464 0.27457 0.0
C572 C 0.68959 0.97898 0.40951 0.0
C573 C 0.66783 0.96855 0.37493 0.0
H574 H 0.08384 0.77659 0.42124 0.0
H575 H 0.04799 0.76623 0.17329 0.0
H576 H 0.07099 0.75279 0.10302 0.0
H577 H 0.09779 0.73956 0.11617 0.0
H578 H 0.13279 0.74783 0.36471 0.0
H579 H 0.11412 0.76693 0.42927 0.0
C580 C 0.08135 0.7717 0.35157 0.0
C581 C 0.06393 0.77198 0.30325 0.0
C582 C 0.09444 0.76352 0.31141 0.0
C583 C 0.06096 0.76572 0.21272 0.0
C584 C 0.07416 0.75809 0.17215 0.0
C585 C 0.10174 0.74593 0.18389 0.0
C586 C 0.11642 0.74192 0.23568 0.0
C587 C 0.09045 0.75625 0.22153 0.0
C588 C 0.1214 0.75048 0.32327 0.0
C589 C 0.11061 0.76131 0.36059 0.0
H590 H 0.29456 0.39384 0.46137 0.0
H591 H 0.28377 0.37009 0.18935 0.0
H592 H 0.26685 0.3312 0.2413 0.0
H593 H 0.2569 0.30448 0.36244 0.0
H594 H 0.26942 0.3277 0.63531 0.0
H595 H 0.28426 0.36659 0.58433 0.0
C596 C 0.28816 0.38008 0.41366 0.0
C597 C 0.29017 0.38468 0.32174 0.0
C598 C 0.27914 0.35787 0.444 0.0
C599 C 0.2823 0.36685 0.26037 0.0
C600 C 0.27273 0.34469 0.29 0.0
C601 C 0.26275 0.31798 0.41117 0.0
C602 C 0.26201 0.31321 0.50263 0.0
C603 C 0.27137 0.34008 0.38148 0.0
C604 C 0.2699 0.33096 0.56454 0.0
C605 C 0.27828 0.35314 0.53543 0.0
H606 H 0.96065 0.37377 0.95052 0.0
H607 H 0.98644 0.40999 0.704 0.0
H608 H 0.02337 0.4337 0.77451 0.0
H609 H 0.04855 0.44237 0.9043 0.0
H610 H 0.02169 0.40577 0.15008 0.0
H611 H 0.98464 0.38409 0.08153 0.0
C612 C 0.97437 0.38678 0.91182 0.0
C613 C 0.97104 0.38984 0.82163 0.0
C614 C -0.00477 0.40033 0.95283 0.0
C615 C 0.98873 0.4072 0.77326 0.0
C616 C 0.00978 0.42072 0.8136 0.0
C617 C 0.03454 0.42987 0.94335 0.0
C618 C 0.03799 0.42559 0.03219 0.0
C619 C 0.01326 0.41724 0.90316 0.0
C620 C 0.01959 0.40936 0.08164 0.0
C621 C -0.00159 0.39688 0.04239 0.0
H622 H 0.61645 0.57678 0.01947 0.0
H623 H 0.6106 0.59485 0.75013 0.0
H624 H 0.59107 0.61436 0.80372 0.0
H625 H 0.58106 0.63087 0.92956 0.0
H626 H 0.58575 0.61167 0.19848 0.0
H627 H 0.60033 0.58774 0.14306 0.0
C628 C 0.61024 0.58443 0.97254 0.0
C629 C 0.61494 0.58461 0.88137 0.0
C630 C 0.59929 0.59568 0.00398 0.0
C631 C 0.60692 0.59444 0.82054 0.0
C632 C 0.59604 0.60579 0.85131 0.0
C633 C 0.58499 0.62115 0.97563 0.0
C634 C 0.58287 0.62322 0.06776 0.0
C635 C 0.593 0.60728 0.94315 0.0
C636 C 0.58748 0.61033 0.12731 0.0
C637 C 0.59582 0.59674 0.09566 0.0
H638 H 0.42284 0.03073 0.88477 0.0
H639 H 0.41946 0.06171 0.13049 0.0
H640 H 0.40596 0.02621 0.20923 0.0
H641 H 0.39126 0.98535 0.20557 0.0
H642 H 0.39101 0.95342 0.95794 0.0
H643 H 0.41011 0.99007 0.88314 0.0
C644 C 0.41939 0.0297 0.95566 0.0
C645 C 0.42186 0.0487 0.00137 0.0
C646 C 0.41102 0.009 0.00039 0.0
C647 C 0.4173 0.04718 0.09336 0.0
C648 C 0.40967 0.02691 0.1387 0.0
C649 C 0.39603 0.98663 0.13596 0.0
C650 C 0.39018 0.96701 0.0873 0.0
C651 C 0.40596 0.00758 0.0926 0.0
C652 C 0.39573 0.96854 -0.00347 0.0
C653 C 0.40645 0.98942 0.95369 0.0
H654 H 0.61099 0.05599 0.01365 0.0
H655 H 0.6155 0.03747 0.74257 0.0
H656 H 0.59166 -0.00239 0.77973 0.0
H657 H 0.57244 0.96817 0.89168 0.0
H658 H 0.5712 0.98648 0.16595 0.0
H659 H 0.59061 0.02643 0.12498 0.0
C660 C 0.60649 0.04322 0.96249 0.0
C661 C 0.61497 0.04958 0.87558 0.0
C662 C 0.59341 0.02038 0.98499 0.0
C663 C 0.60926 0.03291 0.81008 0.0
C664 C 0.59562 0.01017 0.83123 0.0
C665 C 0.57599 0.98089 0.94217 0.0
C666 C 0.57034 0.97449 0.03155 0.0
C667 C 0.58798 0.00372 0.9188 0.0
C668 C 0.57542 0.9911 0.09668 0.0
C669 C 0.58656 0.01388 0.07334 0.0
H670 H 0.03605 0.60306 0.08501 0.0
H671 H 0.04993 0.66754 0.98146 0.0
H672 H 0.01676 0.64904 0.88678 0.0
H673 H 0.98372 0.61483 0.83351 0.0
H674 H 0.96793 0.55032 0.94155 0.0
H675 H 0.00224 0.56846 0.03247 0.0
C676 C 0.03161 0.61305 0.0427 0.0
C677 C 0.04546 0.63664 0.04056 0.0
C678 C 0.01248 0.60228 0.9876 0.0
C679 C 0.03959 0.64934 0.98453 0.0
C680 C 0.02069 0.63879 0.92978 0.0
C681 C 0.98808 0.60469 0.87536 0.0
C682 C 0.97362 0.58129 0.87978 0.0
C683 C 0.00717 0.61529 0.93006 0.0
C684 C 0.97905 0.56839 0.93634 0.0
C685 C -0.0015 0.57876 0.98895 0.0
H686 H 0.38555 0.43466 0.01994 0.0
H687 H 0.4207 0.45313 0.27169 0.0
H688 H 0.44646 0.44071 0.21763 0.0
H689 H 0.45666 0.42154 0.10342 0.0
H690 H 0.42092 0.403 0.85247 0.0
H691 H 0.39795 0.41892 0.90148 0.0
C692 C 0.39889 0.43605 0.06304 0.0
C693 C 0.40097 0.44442 0.15026 0.0
C694 C 0.41354 0.42892 0.03162 0.0
C695 C 0.41865 0.44659 0.20449 0.0
C696 C 0.43335 0.43946 0.17364 0.0
C697 C 0.44412 0.42131 0.05876 0.0
C698 C 0.44038 0.41081 0.97471 0.0
C699 C 0.43066 0.43019 0.08789 0.0
C700 C 0.42408 0.41078 0.91774 0.0
C701 C 0.41084 0.4198 0.94583 0.0
H702 H 0.09949 0.24752 0.55456 0.0
H703 H 0.05734 0.1751 0.55379 0.0
H704 H 0.09079 0.17101 0.5637 0.0
H705 H 0.13229 0.18836 0.56774 0.0
H706 H 0.17371 0.26082 0.556 0.0
H707 H 0.14024 0.26463 0.55651 0.0
C708 C 0.09763 0.23084 0.55727 0.0
C709 C 0.07614 0.21166 0.55387 0.0
C710 C 0.11678 0.22866 0.56059 0.0
C711 C 0.07386 0.19012 0.55601 0.0
C712 C 0.09292 0.18778 0.56186 0.0
C713 C 0.13383 0.2049 0.56595 0.0
C714 C 0.15522 0.22427 0.56181 0.0
C715 C 0.11449 0.20696 0.56354 0.0
C716 C 0.15727 0.24569 0.55853 0.0
C717 C 0.13821 0.2479 0.55899 0.0
H718 H 0.80727 0.95661 0.5522 0.0
H719 H 0.80235 0.95624 0.26585 0.0
H720 H 0.8083 0.92392 0.25719 0.0
H721 H 0.81188 0.89413 0.33243 0.0
H722 H 0.81921 0.89575 0.61802 0.0
H723 H 0.81594 0.92971 0.62607 0.0
C724 C 0.80763 0.94943 0.48814 0.0
C725 C 0.80399 0.95828 0.40983 0.0
C726 C 0.81166 0.93133 0.48371 0.0
C727 C 0.80497 0.94941 0.32678 0.0
C728 C 0.80837 0.93101 0.32188 0.0
C729 C 0.81318 0.90223 0.39614 0.0
C730 C 0.81558 0.89254 0.47457 0.0
C731 C 0.81135 0.92163 0.40002 0.0
C732 C 0.81748 0.90311 0.55684 0.0
C733 C 0.81538 0.92233 0.5615 0.0
H734 H 0.08636 0.86681 0.54766 0.0
H735 H 0.06007 0.88994 0.33725 0.0
H736 H 0.09394 0.92733 0.34424 0.0
H737 H 0.13235 0.95239 0.40267 0.0
H738 H 0.15807 0.928 0.61122 0.0
H739 H 0.12298 0.89215 0.61219 0.0
C740 C 0.08792 0.88002 0.50344 0.0
C741 C 0.07085 0.87551 0.44123 0.0
C742 C 0.1074 0.90123 0.50712 0.0
C743 C 0.07301 0.89296 0.38559 0.0
C744 C 0.09241 0.91431 0.38932 0.0
C745 C 0.13017 0.93931 0.44892 0.0
C746 C 0.14795 0.94283 0.50597 0.0
C747 C 0.10992 0.91849 0.44869 0.0
C748 C 0.14481 0.92571 0.56575 0.0
C749 C 0.12473 0.90517 0.56653 0.0
H750 H 0.21315 0.14571 0.42428 0.0
H751 H 0.19627 0.14063 0.70324 0.0
H752 H 0.18776 0.10144 0.70508 0.0
H753 H 0.1898 0.07052 0.63135 0.0
H754 H 0.20484 0.07468 0.35087 0.0
H755 H 0.20873 0.11217 0.34438 0.0
C756 C 0.20736 0.13584 0.48495 0.0
C757 C 0.20574 0.14592 0.56393 0.0
C758 C 0.20205 0.11325 0.48495 0.0
C759 C 0.19777 0.13307 0.64198 0.0
C760 C 0.19292 0.11075 0.64304 0.0
C761 C 0.19328 0.07943 0.56841 0.0
C762 C 0.19723 0.07015 0.49191 0.0
C763 C 0.1956 0.1009 0.56551 0.0
C764 C 0.2016 0.08158 0.41039 0.0
C765 C 0.20411 0.10309 0.40696 0.0
H766 H 0.87469 0.0759 0.59595 0.0
H767 H 0.88159 0.07523 0.31042 0.0
H768 H 0.92168 0.10346 0.32241 0.0
H769 H 0.95259 0.1326 0.41227 0.0
H770 H 0.9445 0.13416 0.69701 0.0
H771 H 0.90714 0.10075 0.68751 0.0
C772 C 0.88505 0.08177 0.53643 0.0
C773 C 0.87523 0.07409 0.45234 0.0
C774 C 0.90781 0.09807 0.54381 0.0
C775 C 0.88884 0.08122 0.37583 0.0
C776 C 0.9117 0.09735 0.38266 0.0
C777 C 0.94292 0.12518 0.47246 0.0
C778 C 0.95099 0.13597 0.55496 0.0
C779 C 0.92112 0.10652 0.46606 0.0
C780 C 0.9384 0.12624 0.6326 0.0
C781 C 0.91702 0.10726 0.62718 0.0
H782 H 0.95383 0.84146 0.45754 0.0
H783 H 0.91972 0.77039 0.39601 0.0
H784 H 0.88341 0.76877 0.39859 0.0
H785 H 0.86134 0.7867 0.42568 0.0
H786 H 0.89392 0.85712 0.49775 0.0
H787 H 0.93092 0.85989 0.48438 0.0
C788 C 0.93839 0.82578 0.44374 0.0
C789 C 0.93926 0.80607 0.42637 0.0
C790 C 0.9174 0.8248 0.44817 0.0
C791 C 0.91929 0.78571 0.40974 0.0
C792 C 0.89857 0.78476 0.4113 0.0
C793 C 0.87648 0.80276 0.43793 0.0
C794 C 0.87487 0.82168 0.4625 0.0
C795 C 0.89743 0.80409 0.43169 0.0
C796 C 0.89471 0.84227 0.47899 0.0
C797 C 0.91585 0.84386 0.47116 0.0
H798 H 0.82829 0.58381 0.79847 0.0
H799 H 0.79675 0.51141 0.78347 0.0
H800 H 0.75938 0.50805 0.78538 0.0
H801 H 0.73587 0.52616 0.7888 0.0
H802 H 0.76855 0.59882 0.79097 0.0
H803 H 0.80538 0.60167 0.79683 0.0
C804 C 0.81322 0.56728 0.79634 0.0
C805 C 0.81512 0.54788 0.79177 0.0
C806 C 0.79207 0.56557 0.79483 0.0
C807 C 0.79557 0.52657 0.78712 0.0
C808 C 0.77427 0.52466 0.7883 0.0
C809 C 0.75111 0.54254 0.79081 0.0
C810 C 0.74963 0.56224 0.7895 0.0
C811 C 0.77233 0.54409 0.79177 0.0
C812 C 0.76938 0.58344 0.79122 0.0
C813 C 0.79041 0.5851 0.79488 0.0
H814 H 0.50457 0.29214 0.92719 0.0
H815 H 0.43293 0.26448 0.89262 0.0
H816 H 0.4278 0.22712 0.869 0.0
H817 H 0.44315 0.20222 0.8603 0.0
H818 H 0.51389 0.22766 0.90751 0.0
H819 H 0.52002 0.26605 0.92426 0.0
C820 C 0.48792 0.27785 0.9145 0.0
C821 C 0.46915 0.28093 0.91182 0.0
C822 C 0.48495 0.25614 0.90321 0.0
C823 C 0.44758 0.2624 0.89593 0.0
C824 C 0.44462 0.24107 0.88199 0.0
C825 C 0.45998 0.2162 0.87342 0.0
C826 C 0.47811 0.21231 0.88142 0.0
C827 C 0.46313 0.23776 0.88569 0.0
C828 C 0.49972 0.2304 0.90069 0.0
C829 C 0.50319 0.25227 0.91025 0.0
H830 H 0.74273 0.22242 0.9206 0.0
H831 H 0.72224 0.21839 0.64639 0.0
H832 H 0.7557 0.25479 0.61554 0.0
H833 H 0.79337 0.28464 0.66186 0.0
H834 H 0.81326 0.28952 0.93717 0.0
H835 H 0.77721 0.25603 0.97302 0.0
C836 C 0.74543 0.2298 0.85467 0.0
C837 C 0.73043 0.21773 0.78544 0.0
C838 C 0.7646 0.25071 0.83759 0.0
C839 C 0.7337 0.22746 0.70056 0.0
C840 C 0.75287 0.24816 0.68274 0.0
C841 C 0.78953 0.27858 0.72994 0.0
C842 C 0.80587 0.2891 0.79657 0.0
C843 C 0.76883 0.25947 0.74996 0.0
C844 C 0.8008 0.28152 0.88492 0.0
C845 C 0.78031 0.26233 0.90528 0.0
H846 H 0.88052 0.47903 0.64766 0.0
H847 H 0.85697 0.46597 0.91913 0.0
H848 H 0.85519 0.42939 0.91431 0.0
H849 H 0.86426 0.40352 0.83878 0.0
H850 H 0.89243 0.41849 0.57367 0.0
H851 H 0.88855 0.45214 0.5695 0.0
C852 C 0.87451 0.46783 0.70472 0.0
C853 C 0.86858 0.47472 0.78324 0.0
C854 C 0.87473 0.44751 0.70283 0.0
C855 C 0.86138 0.46064 0.85802 0.0
C856 C 0.8605 0.4399 0.85532 0.0
C857 C 0.86925 0.41394 0.77944 0.0
C858 C 0.87863 0.40861 0.70661 0.0
C859 C 0.86774 0.4335 0.77896 0.0
C860 C 0.88528 0.42239 0.63069 0.0
C861 C 0.88304 0.44156 0.6283 0.0
H862 H 0.5507 0.41115 0.78692 0.0
H863 H 0.55673 0.4198 0.07187 0.0
H864 H 0.59347 0.45419 0.05455 0.0
H865 H 0.62143 0.48393 0.95745 0.0
H866 H 0.61203 0.4782 0.67284 0.0
H867 H 0.57912 0.44039 0.68989 0.0
C868 C 0.56039 0.42035 0.84503 0.0
C869 C 0.5514 0.41304 0.93048 0.0
C870 C 0.58071 0.44067 0.83417 0.0
C871 C 0.5636 0.42523 0.00561 0.0
C872 C 0.58447 0.44485 -0.00438 0.0
C873 C 0.61238 0.47411 0.89935 0.0
C874 C 0.61905 0.48348 0.81407 0.0
C875 C 0.59286 0.45306 0.91016 0.0
C876 C 0.60707 0.47107 0.73896 0.0
C877 C 0.5883 0.44957 0.74879 0.0
H878 H 0.59513 0.13758 0.71837 0.0
H879 H 0.61696 0.16443 0.98245 0.0
H880 H 0.58179 0.16475 0.00715 0.0
H881 H 0.54357 0.15404 0.95836 0.0
H882 H 0.52011 0.12306 0.70056 0.0
H883 H 0.55709 0.12755 0.66832 0.0
C884 C 0.59227 0.14396 0.78033 0.0
C885 C 0.60846 0.15126 0.84817 0.0
C886 C 0.57162 0.14296 0.79554 0.0
C887 C 0.60461 0.15894 0.92932 0.0
C888 C 0.58453 0.15899 0.94354 0.0
C889 C 0.54666 0.14849 0.89486 0.0
C890 C 0.52922 0.13817 0.83208 0.0
C891 C 0.5677 0.1505 0.87794 0.0
C892 C 0.53329 0.13084 0.75028 0.0
C893 C 0.55442 0.13349 0.73165 0.0
H894 H 0.47073 0.87194 0.22629 0.0
H895 H 0.46177 0.86287 0.94209 0.0
H896 H 0.42497 0.86052 0.95374 0.0
H897 H 0.3975 0.86499 0.04316 0.0
H898 H 0.4093 0.87955 0.32401 0.0
H899 H 0.44298 0.87583 0.31607 0.0
C900 C 0.46041 0.86894 0.16742 0.0
C901 C 0.46852 0.86727 0.0837 0.0
C902 C 0.44006 0.86894 0.17419 0.0
C903 C 0.45554 0.86402 0.00713 0.0
C904 C 0.43466 0.8628 0.01381 0.0
C905 C 0.40732 0.86701 0.1027 0.0
C906 C 0.40111 0.87246 0.18403 0.0
C907 C 0.42706 0.86583 0.0967 0.0
C908 C 0.414 0.87545 0.26072 0.0
C909 C 0.43315 0.87329 0.25618 0.0
H910 H 0.1592 0.61216 0.17012 0.0
H911 H 0.08676 0.57993 0.1498 0.0
H912 H 0.08396 0.54311 0.13816 0.0
H913 H 0.10203 0.52027 0.12936 0.0
H914 H 0.17398 0.55131 0.16177 0.0
H915 H 0.17719 0.58859 0.17333 0.0
C916 C 0.14285 0.59702 0.16348 0.0
C917 C 0.12322 0.59866 0.16016 0.0
C918 C 0.14132 0.57584 0.15867 0.0
C919 C 0.10207 0.579 0.1528 0.0
C920 C 0.10046 0.55799 0.14574 0.0
C921 C 0.11841 0.53525 0.13878 0.0
C922 C 0.1378 0.53333 0.14326 0.0
C923 C 0.11996 0.55627 0.14777 0.0
C924 C 0.1589 0.5526 0.15767 0.0
C925 C 0.1607 0.57382 0.16414 0.0
H926 H 0.48161 0.61135 0.29565 0.0
H927 H 0.46735 0.62498 0.03052 0.0
H928 H 0.42881 0.59293 0.0411 0.0
H929 H 0.40116 0.55821 0.11915 0.0
H930 H 0.41684 0.54468 0.38232 0.0
H931 H 0.45277 0.57985 0.37982 0.0
C932 C 0.47 0.60741 0.24038 0.0
C933 C 0.47732 0.62006 0.16175 0.0
C934 C 0.44818 0.58901 0.2467 0.0
C935 C 0.46204 0.61524 0.09147 0.0
C936 C 0.44008 0.59693 0.09744 0.0
C937 C 0.41224 0.5633 0.17663 0.0
C938 C 0.40662 0.54882 0.2502 0.0
C939 C 0.4332 0.58328 0.17378 0.0
C940 C 0.42104 0.55548 0.32442 0.0
C941 C 0.44158 0.57552 0.323 0.0
H942 H 0.54813 0.74878 0.01158 0.0
H943 H 0.52689 0.73872 0.28614 0.0
H944 H 0.52325 0.77247 0.28196 0.0
H945 H 0.52956 0.80649 0.20432 0.0
H946 H 0.55566 0.81927 0.93619 0.0
H947 H 0.55394 0.7827 0.93291 0.0
C948 C 0.54231 0.75385 0.06971 0.0
C949 C 0.53758 0.74145 0.14878 0.0
C950 C 0.54138 0.77378 0.06797 0.0
C951 C 0.53053 0.74819 0.22469 0.0
C952 C 0.52852 0.76742 0.2223 0.0
C953 C 0.53453 0.80106 0.14479 0.0
C954 C 0.54264 0.81532 0.0705 0.0
C955 C 0.5344 0.78061 0.14495 0.0
C956 C 0.54943 0.80845 -0.00586 0.0
C957 C 0.54844 0.78761 0.99229 0.0
H958 H 0.28163 0.79105 0.09719 0.0
H959 H 0.27266 0.80571 0.36913 0.0
H960 H 0.24063 0.76779 0.38608 0.0
H961 H 0.21168 0.73339 0.31659 0.0
H962 H 0.21823 0.71916 0.04167 0.0
H963 H 0.25511 0.75364 0.03355 0.0
C964 C 0.27293 0.78571 0.16058 0.0
C965 C 0.27908 0.8012 0.23116 0.0
C966 C 0.25406 0.76404 0.16912 0.0
C967 C 0.26785 0.79416 0.31327 0.0
C968 C 0.24958 0.77249 0.32313 0.0
C969 C 0.2214 0.73761 0.25538 0.0
C970 C 0.21214 0.72416 0.17933 0.0
C971 C 0.24197 0.75773 0.25034 0.0
C972 C 0.22503 0.72942 0.10099 0.0
C973 C 0.24598 0.74922 0.09609 0.0
H974 H 0.27292 0.47231 0.09218 0.0
H975 H 0.27833 0.49382 0.3654 0.0
H976 H 0.24191 0.49227 0.35424 0.0
H977 H 0.20726 0.4816 0.27059 0.0
H978 H 0.19975 0.45547 0.00339 0.0
H979 H 0.23826 0.46193 0.00777 0.0
C980 C 0.26623 0.47709 0.14839 0.0
C981 C 0.27819 0.4835 0.229 0.0
C982 C 0.24485 0.47501 0.14272 0.0
C983 C 0.26932 0.48907 0.30259 0.0
C984 C 0.24853 0.48806 0.29628 0.0
C985 C 0.21419 0.47759 0.213 0.0
C986 C 0.20083 0.46814 0.13674 0.0
C987 C 0.23594 0.48058 0.2173 0.0
C988 C 0.20978 0.46267 0.06295 0.0
C989 C 0.23176 0.4664 0.06538 0.0
H990 H 0.01561 0.24895 0.18513 0.0
H991 H -0.00465 0.17839 0.19521 0.0
H992 H 0.00106 0.17814 0.03464 0.0
H993 H 0.01056 0.19754 0.89201 0.0
H994 H 0.03208 0.26832 0.87875 0.0
H995 H 0.02794 0.26927 0.04112 0.0
C996 C 0.01226 0.23353 0.15156 0.0
C997 C 0.00464 0.21358 0.20074 0.0
C998 C 0.01624 0.23371 0.0597 0.0
C999 C 0.00096 0.19382 0.15788 0.0
C1000 C 0.00435 0.19371 0.06651 0.0
C1001 C 0.01465 0.21326 0.92494 0.0
C1002 C 0.02149 0.2328 0.87419 0.0
C1003 C 0.01192 0.21352 0.01698 0.0
C1004 C 0.02698 0.25313 0.91705 0.0
C1005 C 0.02431 0.25358 0.00945 0.0
H1006 H 0.81828 0.83777 0.13297 0.0
H1007 H 0.77706 0.76531 0.14248 0.0
H1008 H 0.77321 0.76395 0.97987 0.0
H1009 H 0.78001 0.7838 0.8367 0.0
H1010 H 0.82316 0.85602 0.82734 0.0
H1011 H 0.82766 0.85723 0.98955 0.0
C1012 C 0.80865 0.82168 0.09915 0.0
C1013 C 0.7978 0.80168 0.14876 0.0
C1014 C 0.8066 0.82109 0.00656 0.0
C1015 C 0.78562 0.78087 0.10496 0.0
C1016 C 0.78325 0.78013 0.01242 0.0
C1017 C 0.79024 0.79977 0.8707 0.0
C1018 C 0.80088 0.81987 0.82171 0.0
C1019 C 0.79331 0.80019 0.96293 0.0
C1020 C 0.81467 0.84045 0.86487 0.0
C1021 C 0.81729 0.84111 0.95706 0.0
H1022 H 0.20715 0.98692 0.15416 0.0
H1023 H 0.25371 0.05864 0.15627 0.0
H1024 H 0.25654 0.05854 -0.00619 0.0
H1025 H 0.24469 0.03835 0.85217 0.0
H1026 H 0.19984 0.96639 0.84791 0.0
H1027 H 0.19766 0.96606 0.01154 0.0
C1028 C 0.2178 0.0025 0.11869 0.0
C1029 C 0.22991 0.02285 0.16616 0.0
C1030 C 0.21977 0.00218 0.02583 0.0
C1031 C 0.24414 0.04287 0.12049 0.0
C1032 C 0.24577 0.0428 0.02797 0.0
C1033 C 0.23457 0.02257 0.88736 0.0
C1034 C 0.22222 0.00244 0.83916 0.0
C1035 C 0.23355 0.0226 0.98021 0.0
C1036 C 0.20947 0.98202 0.88448 0.0
C1037 C 0.20812 0.9819 0.97755 0.0
H1038 H -0.00261 0.8139 0.76828 0.0
H1039 H 0.03446 0.77835 0.76091 0.0
H1040 H 0.03184 0.77453 0.92343 0.0
H1041 H 0.01741 0.77987 0.06613 0.0
H1042 H 0.98268 0.8177 0.07412 0.0
H1043 H 0.98565 0.82187 0.91161 0.0
C1044 C 0.00506 0.80548 0.80247 0.0
C1045 C 0.01594 0.79624 0.75326 0.0
C1046 C 0.00356 0.80349 0.89524 0.0
C1047 C 0.0261 0.78566 0.79786 0.0
C1048 C 0.02442 0.78331 0.89042 0.0
C1049 C 0.01035 0.78885 0.0318 0.0
C1050 C -0.00061 0.79805 0.0806 0.0
C1051 C 0.01285 0.79182 0.93943 0.0
C1052 C 0.99091 0.81028 0.03688 0.0
C1053 C 0.99269 0.81272 0.94446 0.0
H1054 H 0.20197 0.20956 0.21988 0.0
H1055 H 0.27422 0.23898 0.23059 0.0
H1056 H 0.27639 0.24363 0.06836 0.0
H1057 H 0.2577 0.24117 0.92524 0.0
H1058 H 0.18528 0.20977 0.91483 0.0
H1059 H 0.1831 0.20435 0.07653 0.0
C1060 C 0.21816 0.21677 0.18644 0.0
C1061 C 0.23793 0.2241 0.23641 0.0
C1062 C 0.21922 0.2194 0.09407 0.0
C1063 C 0.25879 0.23313 0.1929 0.0
C1064 C 0.26005 0.236 0.10057 0.0
C1065 C 0.24152 0.23334 0.95894 0.0
C1066 C 0.22169 0.2263 0.90975 0.0
C1067 C 0.2404 0.22962 0.05089 0.0
C1068 C 0.2007 0.21553 0.9525 0.0
C1069 C 0.19947 0.21236 0.04441 0.0
H1070 H 0.7845 -7e-05 0.08594 0.0
H1071 H 0.79042 0.0656 0.09152 0.0
H1072 H 0.78747 0.06514 0.92863 0.0
H1073 H 0.78496 0.04667 0.78595 0.0
H1074 H 0.77667 0.98 0.7803 0.0
H1075 H 0.77831 0.97989 0.9436 0.0
C1076 C 0.78521 0.01413 0.05106 0.0
C1077 C 0.78816 0.033 0.0991 0.0
C1078 C 0.78288 0.01341 0.95854 0.0
C1079 C 0.78841 0.05108 0.05475 0.0
C1080 C 0.78668 0.05078 0.96218 0.0
C1081 C 0.78334 0.03206 0.82082 0.0
C1082 C 0.781 0.01348 0.77241 0.0
C1083 C 0.78415 0.03213 0.91363 0.0
C1084 C 0.77847 0.99443 0.81715 0.0
C1085 C 0.77958 0.99446 0.90999 0.0
H1086 H 0.66108 0.57461 0.15348 0.0
H1087 H 0.71258 0.55612 0.14337 0.0
H1088 H 0.71127 0.55229 0.30612 0.0
H1089 H 0.69589 0.55508 0.44998 0.0
H1090 H 0.64238 0.57088 0.4587 0.0
H1091 H 0.64359 0.57443 0.29629 0.0
C1092 C 0.67211 0.56993 0.18744 0.0
C1093 C 0.68728 0.56613 0.13826 0.0
C1094 C 0.67063 0.56701 0.27967 0.0
C1095 C 0.70104 0.55937 0.18122 0.0
C1096 C 0.70021 0.55712 0.27365 0.0
C1097 C 0.6844 0.55914 0.41604 0.0
C1098 C 0.66922 0.56293 0.4654 0.0
C1099 C 0.68511 0.56097 0.32335 0.0
C1100 C 0.65414 0.56783 0.42141 0.0
C1101 C 0.65496 0.57003 0.32898 0.0
H1102 H 0.47517 0.15416 0.5296 0.0
H1103 H 0.42495 0.08351 0.53872 0.0
H1104 H 0.42113 0.08291 0.3761 0.0
H1105 H 0.43114 0.10313 0.2327 0.0
H1106 H 0.48311 0.17313 0.22422 0.0
H1107 H 0.48704 0.17356 0.38652 0.0
C1108 C 0.46349 0.1386 0.49581 0.0
C1109 C 0.45021 0.11895 0.5454 0.0
C1110 C 0.46151 0.13842 0.4032 0.0
C1111 C 0.43539 0.09879 0.50136 0.0
C1112 C 0.43308 0.09851 0.40878 0.0
C1113 C 0.44314 0.11848 0.26693 0.0
C1114 C 0.45651 0.13822 0.21799 0.0
C1115 C 0.4458 0.11833 0.35935 0.0
C1116 C 0.47252 0.15788 0.26157 0.0
C1117 C 0.47481 0.15808 0.35386 0.0
H1118 H 0.88403 0.31148 0.0996 0.0
H1119 H 0.91123 0.38281 0.06042 0.0
H1120 H 0.91577 0.38921 0.22127 0.0
H1121 H 0.90897 0.37391 0.37321 0.0
H1122 H 0.87819 0.30211 0.41108 0.0
H1123 H 0.87819 0.29637 0.25054 0.0
C1124 C 0.89118 0.32841 0.12662 0.0
C1125 C 0.89717 0.34663 0.06959 0.0
C1126 C 0.89295 0.33181 0.21861 0.0
C1127 C 0.90628 0.36854 0.10423 0.0
C1128 C 0.90891 0.3722 0.19577 0.0
C1129 C 0.90255 0.35712 0.3458 0.0
C1130 C 0.89347 0.33845 0.40238 0.0
C1131 C 0.90184 0.35389 0.25363 0.0
C1132 C 0.885 0.31665 0.36751 0.0
C1133 C 0.88503 0.31336 0.27617 0.0
H1134 H 0.65456 0.10577 0.16869 0.0
H1135 H 0.71558 0.17054 0.16139 0.0
H1136 H 0.7141 0.17375 0.32396 0.0
H1137 H 0.694 0.15875 0.46607 0.0
H1138 H 0.63399 0.09315 0.47174 0.0
H1139 H 0.63612 0.08973 0.31017 0.0
C1140 C 0.66766 0.12049 0.20297 0.0
C1141 C 0.68504 0.138 0.15409 0.0
C1142 C 0.66654 0.12221 0.2951 0.0
C1143 C 0.70214 0.15684 0.19846 0.0
C1144 C 0.70113 0.15877 0.29086 0.0
C1145 C 0.68129 0.14388 0.43131 0.0
C1146 C 0.66355 0.12643 0.47915 0.0
C1147 C 0.68311 0.14176 0.3394 0.0
C1148 C 0.64753 0.10686 0.43508 0.0
C1149 C 0.64885 0.10487 0.3433 0.0
H1150 H 0.87525 0.53076 0.14011 0.0
H1151 H 0.91067 0.60343 0.1265 0.0
H1152 H 0.91642 0.60567 0.2883 0.0
H1153 H 0.91214 0.58663 0.43272 0.0
H1154 H 0.87492 0.51403 0.44455 0.0
H1155 H 0.86959 0.51195 0.28287 0.0
C1156 C 0.88413 0.54711 0.1726 0.0
C1157 C 0.89265 0.5669 0.12192 0.0
C1158 C 0.88743 0.54821 0.26454 0.0
C1159 C 0.90384 0.58797 0.16462 0.0
C1160 C 0.90733 0.58925 0.25672 0.0
C1161 C 0.90321 0.57044 0.39909 0.0
C1162 C 0.89434 0.55047 0.44867 0.0
C1163 C 0.89949 0.56946 0.30702 0.0
C1164 C 0.88214 0.5295 0.40633 0.0
C1165 C 0.87896 0.52835 0.31452 0.0
H1166 H 0.49809 0.36851 0.27726 0.0
H1167 H 0.42574 0.32576 0.26927 0.0
H1168 H 0.42416 0.32661 0.43192 0.0
H1169 H 0.44328 0.34079 0.57493 0.0
H1170 H 0.51575 0.38099 0.58493 0.0
H1171 H 0.51754 0.38011 0.42157 0.0
C1172 C 0.48203 0.3593 0.31146 0.0
C1173 C 0.46203 0.34727 0.26232 0.0
C1174 C 0.48132 0.35964 0.40439 0.0
C1175 C 0.44131 0.33507 0.30645 0.0
C1176 C 0.44039 0.33568 0.39903 0.0
C1177 C 0.45941 0.34942 0.54083 0.0
C1178 C 0.47934 0.36133 0.59001 0.0
C1179 C 0.46025 0.34816 0.44832 0.0
C1180 C 0.50027 0.37197 0.54696 0.0
C1181 C 0.50126 0.37141 0.45421 0.0
H1182 H 0.32315 0.8587 0.53968 0.0
H1183 H 0.36428 0.93122 0.53601 0.0
H1184 H 0.36085 0.9323 0.69856 0.0
H1185 H 0.34485 0.91241 0.84001 0.0
H1186 H 0.30588 0.83977 0.84304 0.0
H1187 H 0.30927 0.83881 0.68071 0.0
C1188 C 0.33149 0.87474 0.57467 0.0
C1189 C 0.34379 0.89488 0.52672 0.0
C1190 C 0.32942 0.87514 0.667 0.0
C1191 C 0.35484 0.91554 0.5722 0.0
C1192 C 0.35267 0.91614 0.66464 0.0
C1193 C 0.33687 0.89644 0.80451 0.0
C1194 C 0.32465 0.87618 0.85179 0.0
C1195 C 0.33968 0.89606 0.71232 0.0
C1196 C 0.31501 0.85549 0.8068 0.0
C1197 C 0.31708 0.85497 0.71459 0.0
H1198 H 0.09822 0.4544 0.78251 0.0
H1199 H 0.15003 0.43627 0.78585 0.0
H1200 H 0.15231 0.43862 0.62236 0.0
H1201 H 0.14044 0.44749 0.48001 0.0
H1202 H 0.08684 0.46317 0.47845 0.0
H1203 H 0.08442 0.46034 0.64106 0.0
C1204 C 0.10993 0.45085 0.7472 0.0
C1205 C 0.12415 0.44544 0.79519 0.0
C1206 C 0.11094 0.45206 0.65436 0.0
C1207 C 0.13896 0.44044 0.74954 0.0
C1208 C 0.14034 0.44195 0.65654 0.0
C1209 C 0.12836 0.45043 0.51567 0.0
C1210 C 0.1141 0.45596 0.46836 0.0
C1211 C 0.12665 0.4481 0.60853 0.0
C1212 C 0.09807 0.45911 0.51419 0.0
C1213 C 0.09667 0.45745 0.60676 0.0
H1214 H 0.53934 0.65535 0.80372 0.0
H1215 H 0.59633 0.72299 0.81256 0.0
H1216 H 0.59925 0.72332 0.64994 0.0
H1217 H 0.58474 0.70476 0.50671 0.0
H1218 H 0.52921 0.63634 0.49688 0.0
H1219 H 0.52671 0.6356 0.66009 0.0
C1220 C 0.55228 0.67016 0.76959 0.0
C1221 C 0.56735 0.68929 0.81855 0.0
C1222 C 0.55419 0.66994 0.67704 0.0
C1223 C 0.58449 0.70822 0.7751 0.0
C1224 C 0.58617 0.70837 0.68268 0.0
C1225 C 0.57218 0.68967 0.54061 0.0
C1226 C 0.55698 0.67072 0.49115 0.0
C1227 C 0.57101 0.68939 0.63325 0.0
C1228 C 0.54104 0.65106 0.53464 0.0
C1229 C 0.53953 0.65072 0.6274 0.0
H1230 H 0.36847 0.48971 0.89129 0.0
H1231 H 0.29931 0.43569 0.90015 0.0
H1232 H 0.29844 0.43304 0.73741 0.0
H1233 H 0.31736 0.44618 0.59438 0.0
H1234 H 0.38733 0.49823 0.58411 0.0
H1235 H 0.38817 0.50144 0.74719 0.0
C1236 C 0.35321 0.47754 0.85706 0.0
C1237 C 0.33385 0.46314 0.90611 0.0
C1238 C 0.35313 0.47565 0.76437 0.0
C1239 C 0.31428 0.44698 0.86258 0.0
C1240 C 0.31382 0.44545 0.7701 0.0
C1241 C 0.33279 0.45821 0.62808 0.0
C1242 C 0.35219 0.47215 0.57851 0.0
C1243 C 0.33314 0.45968 0.72064 0.0
C1244 C 0.37225 0.48737 0.62192 0.0
C1245 C 0.37267 0.48927 0.7146 0.0
H1246 H 0.52693 0.87008 0.73954 0.0
H1247 H 0.59851 0.91676 0.74931 0.0
H1248 H 0.59943 0.92048 0.58655 0.0
H1249 H 0.57915 0.91192 0.44337 0.0
H1250 H 0.50796 0.86357 0.43455 0.0
H1251 H 0.50738 0.85919 0.59655 0.0
C1252 C 0.54276 0.88089 0.70571 0.0
C1253 C 0.56259 0.8933 0.75529 0.0
C1254 C 0.54307 0.88289 0.61327 0.0
C1255 C 0.5831 0.90701 0.71165 0.0
C1256 C 0.58356 0.90928 0.6191 0.0
C1257 C 0.56354 0.90058 0.47747 0.0
C1258 C 0.54351 0.88842 0.4287 0.0
C1259 C 0.56354 0.89765 0.56963 0.0
C1260 C 0.52344 0.87324 0.47194 0.0
C1261 C 0.52315 0.87069 0.56399 0.0
H1262 H 0.15016 0.67188 0.50921 0.0
H1263 H 0.08004 0.65321 0.50095 0.0
H1264 H 0.08005 0.6576 0.66339 0.0
H1265 H 0.10097 0.66915 0.806 0.0
H1266 H 0.17056 0.68589 0.81284 0.0
H1267 H 0.17005 0.68035 0.65147 0.0
C1268 C 0.13479 0.66848 0.54325 0.0
C1269 C 0.11516 0.66237 0.4938 0.0
C1270 C 0.13504 0.67121 0.63558 0.0
C1271 C 0.09528 0.65776 0.53815 0.0
C1272 C 0.09538 0.66055 0.63061 0.0
C1273 C 0.11603 0.67179 0.77157 0.0
C1274 C 0.13596 0.67844 0.81986 0.0
C1275 C 0.11533 0.66779 0.67959 0.0
C1276 C 0.1552 0.68111 0.77604 0.0
C1277 C 0.15485 0.67781 0.68427 0.0
loop_
_geom_bond_atom_site_label_1
_geom_bond_atom_site_label_2
_geom_bond_distance
_geom_bond_site_symmetry_2
_ccdc_geom_bond_type
O0 Zn1 1.953 . S
O0 C16 1.225 . S
Zn1 O0 1.953 . S
Zn1 O2 1.949 . S
Zn1 O8 1.919 . S
Zn1 O13 1.924 1_455 S
O2 Zn1 1.949 . S
O2 Zn3 1.923 . S
O2 Zn4 1.950 . S
O2 Zn5 1.945 1_455 S
Zn3 O2 1.923 . S
Zn3 O6 1.933 . S
Zn3 O9 1.941 . S
Zn3 O10 1.965 . S
Zn4 O2 1.950 . S
Zn4 O11 1.938 . S
Zn4 O12 1.906 1_455 S
Zn4 O22 1.953 1_455 S
Zn5 O2 1.945 1_655 S
Zn5 O7 1.932 1_655 S
Zn5 O14 1.977 . S
Zn5 O15 1.910 . S
O6 Zn3 1.933 . S
O6 C17 1.226 . S
O7 Zn5 1.932 1_455 S
O7 C17 1.307 . S
O8 Zn1 1.919 . S
O8 C19 1.253 . S
O9 Zn3 1.941 . S
O9 C19 1.283 . S
O10 Zn3 1.965 . S
O10 C18 1.303 . S
O11 Zn4 1.938 . S
O11 C18 1.247 . S
O12 Zn4 1.906 1_655 S
O12 C20 1.304 . S
O13 Zn1 1.924 1_655 S
O13 C21 1.311 . S
O14 Zn5 1.977 . S
O14 C20 1.272 . S
O15 Zn5 1.910 . S
O15 C21 1.231 . S
C16 O0 1.225 . S
C16 O22 1.291 1_455 S
C17 O6 1.226 . S
C17 O7 1.307 . S
C18 O10 1.303 . S
C18 O11 1.247 . S
C19 O8 1.253 . S
C19 O9 1.283 . S
C20 O12 1.304 . S
C20 O14 1.272 . S
C21 O13 1.311 . S
C21 O15 1.231 . S
O22 Zn4 1.953 1_655 S
O22 C16 1.291 1_655 S
O23 Zn24 1.953 . S
O23 C39 1.225 . S
Zn24 O23 1.953 . S
Zn24 O25 1.949 . S
Zn24 O31 1.919 . S
Zn24 O36 1.924 . S
O25 Zn24 1.949 . S
O25 Zn26 1.923 . S
O25 Zn27 1.950 . S
O25 Zn28 1.945 . S
Zn26 O25 1.923 . S
Zn26 O29 1.933 . S
Zn26 O32 1.941 . S
Zn26 O33 1.965 . S
Zn27 O25 1.950 . S
Zn27 O34 1.938 . S
Zn27 O35 1.906 . S
Zn27 O45 1.953 . S
Zn28 O25 1.945 . S
Zn28 O30 1.932 . S
Zn28 O37 1.977 . S
Zn28 O38 1.910 . S
O29 Zn26 1.933 . S
O29 C40 1.226 . S
O30 Zn28 1.932 . S
O30 C40 1.307 . S
O31 Zn24 1.919 . S
O31 C42 1.253 . S
O32 Zn26 1.941 . S
O32 C42 1.283 . S
O33 Zn26 1.965 . S
O33 C41 1.303 . S
O34 Zn27 1.938 . S
O34 C41 1.247 . S
O35 Zn27 1.906 . S
O35 C43 1.304 . S
O36 Zn24 1.924 . S
O36 C44 1.311 . S
O37 Zn28 1.977 . S
O37 C43 1.272 . S
O38 Zn28 1.910 . S
O38 C44 1.231 . S
C39 O23 1.225 . S
C39 O45 1.298 . S
C40 O29 1.226 . S
C40 O30 1.307 . S
C41 O33 1.303 . S
C41 O34 1.247 . S
C42 O31 1.253 . S
C42 O32 1.283 . S
C43 O35 1.304 . S
C43 O37 1.272 . S
C44 O36 1.311 . S
C44 O38 1.231 . S
O45 Zn27 1.953 . S
O45 C39 1.298 . S
O46 Zn47 1.953 . S
O46 C62 1.225 . S
Zn47 O46 1.953 . S
Zn47 O48 1.949 . S
Zn47 O54 1.919 1_545 S
Zn47 O59 1.924 . S
O48 Zn47 1.949 . S
O48 Zn49 1.923 1_545 S
O48 Zn50 1.950 . S
O48 Zn51 1.945 . S
Zn49 O48 1.923 1_565 S
Zn49 O52 1.933 . S
Zn49 O55 1.941 . S
Zn49 O56 1.965 . S
Zn50 O48 1.950 . S
Zn50 O57 1.938 1_545 S
Zn50 O58 1.906 . S
Zn50 O68 1.953 . S
Zn51 O48 1.945 . S
Zn51 O53 1.932 . S
Zn51 O60 1.977 . S
Zn51 O61 1.910 . S
O52 Zn49 1.933 . S
O52 C63 1.226 1_565 S
O53 Zn51 1.932 . S
O53 C63 1.307 . S
O54 Zn47 1.919 1_565 S
O54 C65 1.253 . S
O55 Zn49 1.941 . S
O55 C65 1.283 . S
O56 Zn49 1.965 . S
O56 C64 1.303 . S
O57 Zn50 1.938 1_565 S
O57 C64 1.247 . S
O58 Zn50 1.906 . S
O58 C66 1.304 . S
O59 Zn47 1.924 . S
O59 C67 1.311 . S
O60 Zn51 1.977 . S
O60 C66 1.272 . S
O61 Zn51 1.910 . S
O61 C67 1.231 . S
C62 O46 1.225 . S
C62 O68 1.298 . S
C63 O52 1.226 1_545 S
C63 O53 1.307 . S
C64 O56 1.303 . S
C64 O57 1.247 . S
C65 O54 1.253 . S
C65 O55 1.283 . S
C66 O58 1.304 . S
C66 O60 1.272 . S
C67 O59 1.311 . S
C67 O61 1.231 . S
O68 Zn50 1.953 . S
O68 C62 1.298 . S
O69 Zn70 1.953 . S
O69 C85 1.225 . S
Zn70 O69 1.953 . S
Zn70 O71 1.949 . S
Zn70 O77 1.919 . S
Zn70 O82 1.924 . S
O71 Zn70 1.949 . S
O71 Zn72 1.923 . S
O71 Zn73 1.950 1_455 S
O71 Zn74 1.945 . S
Zn72 O71 1.923 . S
Zn72 O75 1.933 . S
Zn72 O78 1.941 . S
Zn72 O79 1.965 1_455 S
Zn73 O71 1.950 1_655 S
Zn73 O80 1.938 . S
Zn73 O81 1.906 . S
Zn73 O91 1.953 1_655 S
Zn74 O71 1.945 . S
Zn74 O76 1.932 . S
Zn74 O83 1.977 1_455 S
Zn74 O84 1.910 . S
O75 Zn72 1.933 . S
O75 C86 1.226 . S
O76 Zn74 1.932 . S
O76 C86 1.307 . S
O77 Zn70 1.919 . S
O77 C88 1.253 . S
O78 Zn72 1.941 . S
O78 C88 1.283 . S
O79 Zn72 1.965 1_655 S
O79 C87 1.303 . S
O80 Zn73 1.938 . S
O80 C87 1.247 . S
O81 Zn73 1.906 . S
O81 C89 1.304 . S
O82 Zn70 1.924 . S
O82 C90 1.311 . S
O83 Zn74 1.977 1_655 S
O83 C89 1.272 . S
O84 Zn74 1.910 . S
O84 C90 1.231 . S
C85 O69 1.225 . S
C85 O91 1.298 . S
C86 O75 1.226 . S
C86 O76 1.307 . S
C87 O79 1.303 . S
C87 O80 1.247 . S
C88 O77 1.253 . S
C88 O78 1.283 . S
C89 O81 1.304 . S
C89 O83 1.272 . S
C90 O82 1.311 . S
C90 O84 1.231 . S
O91 Zn73 1.953 1_455 S
O91 C85 1.298 . S
O92 Zn93 1.953 . S
O92 C108 1.225 . S
Zn93 O92 1.953 . S
Zn93 O94 1.949 . S
Zn93 O100 1.919 . S
Zn93 O105 1.924 . S
O94 Zn93 1.949 . S
O94 Zn95 1.923 . S
O94 Zn96 1.950 . S
O94 Zn97 1.945 . S
Zn95 O94 1.923 . S
Zn95 O98 1.933 . S
Zn95 O101 1.941 . S
Zn95 O102 1.965 . S
Zn96 O94 1.950 . S
Zn96 O103 1.938 . S
Zn96 O104 1.906 . S
Zn96 O114 1.953 . S
Zn97 O94 1.945 . S
Zn97 O99 1.932 . S
Zn97 O106 1.977 . S
Zn97 O107 1.910 . S
O98 Zn95 1.933 . S
O98 C109 1.226 . S
O99 Zn97 1.932 . S
O99 C109 1.307 . S
O100 Zn93 1.919 . S
O100 C111 1.253 . S
O101 Zn95 1.941 . S
O101 C111 1.283 . S
O102 Zn95 1.965 . S
O102 C110 1.303 . S
O103 Zn96 1.938 . S
O103 C110 1.247 . S
O104 Zn96 1.906 . S
O104 C112 1.304 . S
O105 Zn93 1.924 . S
O105 C113 1.311 . S
O106 Zn97 1.977 . S
O106 C112 1.272 . S
O107 Zn97 1.910 . S
O107 C113 1.231 . S
C108 O92 1.225 . S
C108 O114 1.298 . S
C109 O98 1.226 . S
C109 O99 1.307 . S
C110 O102 1.303 . S
C110 O103 1.247 . S
C111 O100 1.253 . S
C111 O101 1.283 . S
C112 O104 1.304 . S
C112 O106 1.272 . S
C113 O105 1.311 . S
C113 O107 1.231 . S
O114 Zn96 1.953 . S
O114 C108 1.298 . S
O115 Zn116 1.953 . S
O115 C131 1.225 1_565 S
Zn116 O115 1.953 . S
Zn116 O117 1.949 1_565 S
Zn116 O123 1.919 . S
Zn116 O128 1.924 . S
O117 Zn116 1.949 1_545 S
O117 Zn118 1.923 . S
O117 Zn119 1.950 . S
O117 Zn120 1.945 . S
Zn118 O117 1.923 . S
Zn118 O121 1.933 . S
Zn118 O124 1.931 1_545 S
Zn118 O125 1.965 . S
Zn119 O117 1.950 . S
Zn119 O126 1.938 . S
Zn119 O127 1.906 . S
Zn119 O137 1.953 . S
Zn120 O117 1.945 . S
Zn120 O122 1.932 . S
Zn120 O129 1.977 . S
Zn120 O130 1.910 1_545 S
O121 Zn118 1.933 . S
O121 C132 1.226 . S
O122 Zn120 1.932 . S
O122 C132 1.307 . S
O123 Zn116 1.919 . S
O123 C134 1.253 . S
O124 Zn118 1.931 1_565 S
O124 C134 1.314 . S
O125 Zn118 1.965 . S
O125 C133 1.303 . S
O126 Zn119 1.938 . S
O126 C133 1.247 . S
O127 Zn119 1.906 . S
O127 C135 1.304 . S
O128 Zn116 1.924 . S
O128 C136 1.311 . S
O129 Zn120 1.977 . S
O129 C135 1.272 . S
O130 Zn120 1.910 1_565 S
O130 C136 1.231 . S
C131 O115 1.225 1_545 S
C131 O137 1.298 . S
C132 O121 1.226 . S
C132 O122 1.307 . S
C133 O125 1.303 . S
C133 O126 1.247 . S
C134 O123 1.253 . S
C134 O124 1.314 . S
C135 O127 1.304 . S
C135 O129 1.272 . S
C136 O128 1.311 . S
C136 O130 1.231 . S
O137 Zn119 1.953 . S
O137 C131 1.298 . S
O138 Zn139 1.953 1_554 S
O138 C154 1.225 . S
Zn139 O138 1.953 1_556 S
Zn139 O140 1.949 . S
Zn139 O146 1.919 . S
Zn139 O151 1.924 . S
O140 Zn139 1.949 . S
O140 Zn141 1.923 . S
O140 Zn142 1.950 . S
O140 Zn143 1.945 . S
Zn141 O140 1.923 . S
Zn141 O144 1.933 . S
Zn141 O147 1.941 . S
Zn141 O148 1.965 . S
Zn142 O140 1.950 . S
Zn142 O149 1.938 . S
Zn142 O150 1.906 . S
Zn142 O160 1.953 1_556 S
Zn143 O140 1.945 . S
Zn143 O145 1.932 . S
Zn143 O152 1.977 . S
Zn143 O153 1.910 . S
O144 Zn141 1.933 . S
O144 C155 1.226 . S
O145 Zn143 1.932 . S
O145 C155 1.307 . S
O146 Zn139 1.919 . S
O146 C157 1.253 . S
O147 Zn141 1.941 . S
O147 C157 1.283 . S
O148 Zn141 1.965 . S
O148 C156 1.303 . S
O149 Zn142 1.938 . S
O149 C156 1.247 . S
O150 Zn142 1.906 . S
O150 C158 1.304 . S
O151 Zn139 1.924 . S
O151 C159 1.311 . S
O152 Zn143 1.977 . S
O152 C158 1.272 . S
O153 Zn143 1.910 . S
O153 C159 1.231 . S
C154 O138 1.225 . S
C154 O160 1.298 . S
C155 O144 1.226 . S
C155 O145 1.307 . S
C156 O148 1.303 . S
C156 O149 1.247 . S
C157 O146 1.253 . S
C157 O147 1.283 . S
C158 O150 1.304 . S
C158 O152 1.272 . S
C159 O151 1.311 . S
C159 O153 1.231 . S
O160 Zn142 1.953 1_554 S
O160 C154 1.298 . S
O161 Zn162 1.953 1_554 S
O161 C177 1.225 . S
Zn162 O161 1.953 1_556 S
Zn162 O163 1.949 . S
Zn162 O169 1.919 . S
Zn162 O174 1.924 . S
O163 Zn162 1.949 . S
O163 Zn164 1.923 . S
O163 Zn165 1.950 . S
O163 Zn166 1.945 . S
Zn164 O163 1.923 . S
Zn164 O167 1.933 . S
Zn164 O170 1.941 . S
Zn164 O171 1.965 . S
Zn165 O163 1.950 . S
Zn165 O172 1.938 . S
Zn165 O173 1.906 . S
Zn165 O183 1.953 1_556 S
Zn166 O163 1.945 . S
Zn166 O168 1.932 . S
Zn166 O175 1.977 . S
Zn166 O176 1.910 . S
O167 Zn164 1.933 . S
O167 C178 1.226 . S
O168 Zn166 1.932 . S
O168 C178 1.307 . S
O169 Zn162 1.919 . S
O169 C180 1.253 . S
O170 Zn164 1.941 . S
O170 C180 1.283 . S
O171 Zn164 1.965 . S
O171 C179 1.303 . S
O172 Zn165 1.938 . S
O172 C179 1.247 . S
O173 Zn165 1.906 . S
O173 C181 1.304 . S
O174 Zn162 1.924 . S
O174 C182 1.311 . S
O175 Zn166 1.977 . S
O175 C181 1.272 . S
O176 Zn166 1.910 . S
O176 C182 1.231 . S
C177 O161 1.225 . S
C177 O183 1.298 . S
C178 O167 1.226 . S
C178 O168 1.307 . S
C179 O171 1.303 . S
C179 O172 1.247 . S
C180 O169 1.253 . S
C180 O170 1.283 . S
C181 O173 1.304 . S
C181 O175 1.272 . S
C182 O174 1.311 . S
C182 O176 1.231 . S
O183 Zn165 1.953 1_554 S
O183 C177 1.298 . S
O184 Zn185 1.953 1_554 S
O184 C200 1.225 . S
Zn185 O184 1.953 1_556 S
Zn185 O186 1.949 . S
Zn185 O192 1.919 . S
Zn185 O197 1.924 . S
O186 Zn185 1.949 . S
O186 Zn187 1.923 . S
O186 Zn188 1.950 . S
O186 Zn189 1.945 . S
Zn187 O186 1.923 . S
Zn187 O190 1.933 . S
Zn187 O193 1.941 . S
Zn187 O194 1.965 . S
Zn188 O186 1.950 . S
Zn188 O195 1.938 . S
Zn188 O196 1.906 . S
Zn188 O206 1.953 1_556 S
Zn189 O186 1.945 . S
Zn189 O191 1.932 . S
Zn189 O198 1.977 . S
Zn189 O199 1.910 . S
O190 Zn187 1.933 . S
O190 C201 1.226 . S
O191 Zn189 1.932 . S
O191 C201 1.307 . S
O192 Zn185 1.919 . S
O192 C203 1.253 . S
O193 Zn187 1.941 . S
O193 C203 1.283 . S
O194 Zn187 1.965 . S
O194 C202 1.303 . S
O195 Zn188 1.938 . S
O195 C202 1.247 . S
O196 Zn188 1.906 . S
O196 C204 1.304 . S
O197 Zn185 1.924 . S
O197 C205 1.311 . S
O198 Zn189 1.977 . S
O198 C204 1.272 . S
O199 Zn189 1.910 . S
O199 C205 1.231 . S
C200 O184 1.225 . S
C200 O206 1.298 . S
C201 O190 1.226 . S
C201 O191 1.307 . S
C202 O194 1.303 . S
C202 O195 1.247 . S
C203 O192 1.253 . S
C203 O193 1.283 . S
C204 O196 1.304 . S
C204 O198 1.272 . S
C205 O197 1.311 . S
C205 O199 1.231 . S
O206 Zn188 1.953 1_554 S
O206 C200 1.298 . S
O207 Zn208 1.953 1_554 S
O207 C223 1.225 . S
Zn208 O207 1.953 1_556 S
Zn208 O209 1.949 . S
Zn208 O215 1.919 . S
Zn208 O220 1.924 . S
O209 Zn208 1.949 . S
O209 Zn210 1.923 . S
O209 Zn211 1.950 . S
O209 Zn212 1.945 . S
Zn210 O209 1.923 . S
Zn210 O213 1.933 . S
Zn210 O216 1.941 . S
Zn210 O217 1.965 . S
Zn211 O209 1.950 . S
Zn211 O218 1.938 . S
Zn211 O219 1.906 . S
Zn211 O229 1.953 1_556 S
Zn212 O209 1.945 . S
Zn212 O214 1.932 . S
Zn212 O221 1.977 . S
Zn212 O222 1.910 . S
O213 Zn210 1.933 . S
O213 C224 1.226 . S
O214 Zn212 1.932 . S
O214 C224 1.307 . S
O215 Zn208 1.919 . S
O215 C226 1.253 . S
O216 Zn210 1.941 . S
O216 C226 1.283 . S
O217 Zn210 1.965 . S
O217 C225 1.303 . S
O218 Zn211 1.938 . S
O218 C225 1.247 . S
O219 Zn211 1.906 . S
O219 C227 1.304 . S
O220 Zn208 1.924 . S
O220 C228 1.311 . S
O221 Zn212 1.977 . S
O221 C227 1.272 . S
O222 Zn212 1.910 . S
O222 C228 1.231 . S
C223 O207 1.225 . S
C223 O229 1.298 . S
C224 O213 1.226 . S
C224 O214 1.307 . S
C225 O217 1.303 . S
C225 O218 1.247 . S
C226 O215 1.253 . S
C226 O216 1.283 . S
C227 O219 1.304 . S
C227 O221 1.272 . S
C228 O220 1.311 . S
C228 O222 1.231 . S
O229 Zn211 1.953 1_554 S
O229 C223 1.298 . S
O230 Zn231 1.953 1_554 S
O230 C246 1.225 . S
Zn231 O230 1.953 1_556 S
Zn231 O232 1.949 . S
Zn231 O238 1.919 . S
Zn231 O243 1.924 . S
O232 Zn231 1.949 . S
O232 Zn233 1.923 . S
O232 Zn234 1.950 . S
O232 Zn235 1.945 . S
Zn233 O232 1.923 . S
Zn233 O236 1.933 . S
Zn233 O239 1.941 . S
Zn233 O240 1.965 . S
Zn234 O232 1.950 . S
Zn234 O241 1.938 . S
Zn234 O242 1.906 . S
Zn234 O252 1.953 1_556 S
Zn235 O232 1.945 . S
Zn235 O237 1.932 . S
Zn235 O244 1.977 . S
Zn235 O245 1.910 . S
O236 Zn233 1.933 . S
O236 C247 1.226 . S
O237 Zn235 1.932 . S
O237 C247 1.307 . S
O238 Zn231 1.919 . S
O238 C249 1.253 . S
O239 Zn233 1.941 . S
O239 C249 1.283 . S
O240 Zn233 1.965 . S
O240 C248 1.303 . S
O241 Zn234 1.938 . S
O241 C248 1.247 . S
O242 Zn234 1.906 . S
O242 C250 1.304 . S
O243 Zn231 1.924 . S
O243 C251 1.311 . S
O244 Zn235 1.977 . S
O244 C250 1.272 . S
O245 Zn235 1.910 . S
O245 C251 1.231 . S
C246 O230 1.225 . S
C246 O252 1.298 . S
C247 O236 1.226 . S
C247 O237 1.307 . S
C248 O240 1.303 . S
C248 O241 1.247 . S
C249 O238 1.253 . S
C249 O239 1.283 . S
C250 O242 1.304 . S
C250 O244 1.272 . S
C251 O243 1.311 . S
C251 O245 1.231 . S
O252 Zn234 1.953 1_554 S
O252 C246 1.298 . S
O253 Zn254 1.953 1_554 S
O253 C269 1.225 . S
Zn254 O253 1.953 1_556 S
Zn254 O255 1.949 . S
Zn254 O261 1.919 . S
Zn254 O266 1.924 . S
O255 Zn254 1.949 . S
O255 Zn256 1.923 . S
O255 Zn257 1.950 . S
O255 Zn258 1.945 . S
Zn256 O255 1.923 . S
Zn256 O259 1.933 . S
Zn256 O262 1.941 . S
Zn256 O263 1.965 . S
Zn257 O255 1.950 . S
Zn257 O264 1.938 . S
Zn257 O265 1.906 . S
Zn257 O275 1.953 1_556 S
Zn258 O255 1.945 . S
Zn258 O260 1.932 . S
Zn258 O267 1.977 . S
Zn258 O268 1.910 . S
O259 Zn256 1.933 . S
O259 C270 1.226 . S
O260 Zn258 1.932 . S
O260 C270 1.307 . S
O261 Zn254 1.919 . S
O261 C272 1.253 . S
O262 Zn256 1.941 . S
O262 C272 1.283 . S
O263 Zn256 1.965 . S
O263 C271 1.303 . S
O264 Zn257 1.938 . S
O264 C271 1.247 . S
O265 Zn257 1.906 . S
O265 C273 1.304 . S
O266 Zn254 1.924 . S
O266 C274 1.311 . S
O267 Zn258 1.977 . S
O267 C273 1.272 . S
O268 Zn258 1.910 . S
O268 C274 1.231 . S
C269 O253 1.225 . S
C269 O275 1.298 . S
C270 O259 1.226 . S
C270 O260 1.307 . S
C271 O263 1.303 . S
C271 O264 1.247 . S
C272 O261 1.253 . S
C272 O262 1.283 . S
C273 O265 1.304 . S
C273 O267 1.272 . S
C274 O266 1.311 . S
C274 O268 1.231 . S
O275 Zn257 1.953 1_554 S
O275 C269 1.298 . S
O276 Zn277 1.953 1_556 S
O276 C292 1.225 . S
Zn277 O276 1.953 1_554 S
Zn277 O278 1.949 . S
Zn277 O284 1.919 . S
Zn277 O289 1.924 . S
O278 Zn277 1.949 . S
O278 Zn279 1.923 . S
O278 Zn280 1.950 . S
O278 Zn281 1.945 . S
Zn279 O278 1.923 . S
Zn279 O282 1.933 . S
Zn279 O285 1.941 . S
Zn279 O286 1.965 . S
Zn280 O278 1.950 . S
Zn280 O287 1.938 . S
Zn280 O288 1.906 . S
Zn280 O298 1.953 1_554 S
Zn281 O278 1.945 . S
Zn281 O283 1.932 . S
Zn281 O290 1.977 . S
Zn281 O291 1.910 . S
O282 Zn279 1.933 . S
O282 C293 1.226 . S
O283 Zn281 1.932 . S
O283 C293 1.307 . S
O284 Zn277 1.919 . S
O284 C295 1.253 . S
O285 Zn279 1.941 . S
O285 C295 1.283 . S
O286 Zn279 1.965 . S
O286 C294 1.303 . S
O287 Zn280 1.938 . S
O287 C294 1.247 . S
O288 Zn280 1.906 . S
O288 C296 1.304 . S
O289 Zn277 1.924 . S
O289 C297 1.311 . S
O290 Zn281 1.977 . S
O290 C296 1.272 . S
O291 Zn281 1.910 . S
O291 C297 1.231 . S
C292 O276 1.225 . S
C292 O298 1.298 . S
C293 O282 1.226 . S
C293 O283 1.307 . S
C294 O286 1.303 . S
C294 O287 1.247 . S
C295 O284 1.253 . S
C295 O285 1.283 . S
C296 O288 1.304 . S
C296 O290 1.272 . S
C297 O289 1.311 . S
C297 O291 1.231 . S
O298 Zn280 1.953 1_556 S
O298 C292 1.298 . S
O299 Zn300 1.953 . S
O299 C315 1.225 . S
Zn300 O299 1.953 . S
Zn300 O301 1.949 . S
Zn300 O307 1.919 . S
Zn300 O312 1.924 . S
O301 Zn300 1.949 . S
O301 Zn302 1.923 . S
O301 Zn303 1.950 . S
O301 Zn304 1.945 . S
Zn302 O301 1.923 . S
Zn302 O305 1.933 1_554 S
Zn302 O308 1.941 . S
Zn302 O309 1.965 . S
Zn303 O301 1.950 . S
Zn303 O310 1.938 . S
Zn303 O311 1.906 . S
Zn303 O321 1.953 . S
Zn304 O301 1.945 . S
Zn304 O306 1.932 1_554 S
Zn304 O313 1.977 . S
Zn304 O314 1.910 . S
O305 Zn302 1.933 1_556 S
O305 C316 1.226 . S
O306 Zn304 1.932 1_556 S
O306 C316 1.307 . S
O307 Zn300 1.919 . S
O307 C318 1.253 . S
O308 Zn302 1.941 . S
O308 C318 1.283 . S
O309 Zn302 1.965 . S
O309 C317 1.303 . S
O310 Zn303 1.938 . S
O310 C317 1.247 . S
O311 Zn303 1.906 . S
O311 C319 1.304 . S
O312 Zn300 1.924 . S
O312 C320 1.311 . S
O313 Zn304 1.977 . S
O313 C319 1.272 . S
O314 Zn304 1.910 . S
O314 C320 1.231 . S
C315 O299 1.225 . S
C315 O321 1.298 . S
C316 O305 1.226 . S
C316 O306 1.307 . S
C317 O309 1.303 . S
C317 O310 1.247 . S
C318 O307 1.253 . S
C318 O308 1.283 . S
C319 O311 1.304 . S
C319 O313 1.272 . S
C320 O312 1.311 . S
C320 O314 1.231 . S
O321 Zn303 1.953 . S
O321 C315 1.298 . S
O322 Zn323 1.953 1_556 S
O322 C338 1.225 . S
Zn323 O322 1.953 1_554 S
Zn323 O324 1.949 . S
Zn323 O330 1.919 . S
Zn323 O335 1.924 . S
O324 Zn323 1.949 . S
O324 Zn325 1.923 . S
O324 Zn326 1.950 . S
O324 Zn327 1.945 . S
Zn325 O324 1.923 . S
Zn325 O328 1.933 . S
Zn325 O331 1.941 . S
Zn325 O332 1.965 . S
Zn326 O324 1.950 . S
Zn326 O333 1.938 . S
Zn326 O334 1.906 . S
Zn326 O344 1.953 1_554 S
Zn327 O324 1.945 . S
Zn327 O329 1.932 . S
Zn327 O336 1.977 . S
Zn327 O337 1.910 . S
O328 Zn325 1.933 . S
O328 C339 1.226 . S
O329 Zn327 1.932 . S
O329 C339 1.307 . S
O330 Zn323 1.919 . S
O330 C341 1.253 . S
O331 Zn325 1.941 . S
O331 C341 1.283 . S
O332 Zn325 1.965 . S
O332 C340 1.303 . S
O333 Zn326 1.938 . S
O333 C340 1.247 . S
O334 Zn326 1.906 . S
O334 C342 1.304 . S
O335 Zn323 1.924 . S
O335 C343 1.311 . S
O336 Zn327 1.977 . S
O336 C342 1.272 . S
O337 Zn327 1.910 . S
O337 C343 1.231 . S
C338 O322 1.225 . S
C338 O344 1.298 . S
C339 O328 1.226 . S
C339 O329 1.307 . S
C340 O332 1.303 . S
C340 O333 1.247 . S
C341 O330 1.253 . S
C341 O331 1.283 . S
C342 O334 1.304 . S
C342 O336 1.272 . S
C343 O335 1.311 . S
C343 O337 1.231 . S
O344 Zn326 1.953 1_556 S
O344 C338 1.298 . S
O345 Zn346 1.953 . S
O345 C361 1.225 . S
Zn346 O345 1.953 . S
Zn346 O347 1.949 . S
Zn346 O353 1.919 . S
Zn346 O358 1.924 . S
O347 Zn346 1.949 . S
O347 Zn348 1.923 . S
O347 Zn349 1.950 . S
O347 Zn350 1.945 . S
Zn348 O347 1.923 . S
Zn348 O351 1.933 1_554 S
Zn348 O354 1.941 . S
Zn348 O355 1.965 . S
Zn349 O347 1.950 . S
Zn349 O356 1.938 . S
Zn349 O357 1.906 . S
Zn349 O367 1.953 . S
Zn350 O347 1.945 . S
Zn350 O352 1.932 1_554 S
Zn350 O359 1.977 . S
Zn350 O360 1.910 . S
O351 Zn348 1.933 1_556 S
O351 C362 1.226 . S
O352 Zn350 1.932 1_556 S
O352 C362 1.307 . S
O353 Zn346 1.919 . S
O353 C364 1.253 . S
O354 Zn348 1.941 . S
O354 C364 1.283 . S
O355 Zn348 1.965 . S
O355 C363 1.303 . S
O356 Zn349 1.938 . S
O356 C363 1.247 . S
O357 Zn349 1.906 . S
O357 C365 1.304 . S
O358 Zn346 1.924 . S
O358 C366 1.311 . S
O359 Zn350 1.977 . S
O359 C365 1.272 . S
O360 Zn350 1.910 . S
O360 C366 1.231 . S
C361 O345 1.225 . S
C361 O367 1.298 . S
C362 O351 1.226 . S
C362 O352 1.307 . S
C363 O355 1.303 . S
C363 O356 1.247 . S
C364 O353 1.253 . S
C364 O354 1.283 . S
C365 O357 1.304 . S
C365 O359 1.272 . S
C366 O358 1.311 . S
C366 O360 1.231 . S
O367 Zn349 1.953 . S
O367 C361 1.298 . S
O368 Zn369 1.953 1_556 S
O368 C384 1.225 . S
Zn369 O368 1.953 1_554 S
Zn369 O370 1.949 . S
Zn369 O376 1.919 . S
Zn369 O381 1.924 . S
O370 Zn369 1.949 . S
O370 Zn371 1.923 . S
O370 Zn372 1.950 . S
O370 Zn373 1.945 . S
Zn371 O370 1.923 . S
Zn371 O374 1.933 . S
Zn371 O377 1.941 . S
Zn371 O378 1.965 . S
Zn372 O370 1.950 . S
Zn372 O379 1.938 . S
Zn372 O380 1.906 . S
Zn372 O390 1.953 1_554 S
Zn373 O370 1.945 . S
Zn373 O375 1.932 . S
Zn373 O382 1.977 . S
Zn373 O383 1.910 . S
O374 Zn371 1.933 . S
O374 C385 1.226 . S
O375 Zn373 1.932 . S
O375 C385 1.307 . S
O376 Zn369 1.919 . S
O376 C387 1.253 . S
O377 Zn371 1.941 . S
O377 C387 1.283 . S
O378 Zn371 1.965 . S
O378 C386 1.303 . S
O379 Zn372 1.938 . S
O379 C386 1.247 . S
O380 Zn372 1.906 . S
O380 C388 1.304 . S
O381 Zn369 1.924 . S
O381 C389 1.311 . S
O382 Zn373 1.977 . S
O382 C388 1.272 . S
O383 Zn373 1.910 . S
O383 C389 1.231 . S
C384 O368 1.225 . S
C384 O390 1.298 . S
C385 O374 1.226 . S
C385 O375 1.307 . S
C386 O378 1.303 . S
C386 O379 1.247 . S
C387 O376 1.253 . S
C387 O377 1.283 . S
C388 O380 1.304 . S
C388 O382 1.272 . S
C389 O381 1.311 . S
C389 O383 1.231 . S
O390 Zn372 1.953 1_556 S
O390 C384 1.298 . S
O391 Zn392 1.953 . S
O391 C407 1.225 . S
Zn392 O391 1.953 . S
Zn392 O393 1.949 . S
Zn392 O399 1.919 . S
Zn392 O404 1.924 . S
O393 Zn392 1.949 . S
O393 Zn394 1.923 . S
O393 Zn395 1.950 . S
O393 Zn396 1.945 . S
Zn394 O393 1.923 . S
Zn394 O397 1.933 1_554 S
Zn394 O400 1.941 . S
Zn394 O401 1.965 . S
Zn395 O393 1.950 . S
Zn395 O402 1.938 . S
Zn395 O403 1.906 . S
Zn395 O413 1.953 . S
Zn396 O393 1.945 . S
Zn396 O398 1.932 1_554 S
Zn396 O405 1.977 . S
Zn396 O406 1.910 . S
O397 Zn394 1.933 1_556 S
O397 C408 1.226 . S
O398 Zn396 1.932 1_556 S
O398 C408 1.307 . S
O399 Zn392 1.919 . S
O399 C410 1.253 . S
O400 Zn394 1.941 . S
O400 C410 1.283 . S
O401 Zn394 1.965 . S
O401 C409 1.303 . S
O402 Zn395 1.938 . S
O402 C409 1.247 . S
O403 Zn395 1.906 . S
O403 C411 1.304 . S
O404 Zn392 1.924 . S
O404 C412 1.311 . S
O405 Zn396 1.977 . S
O405 C411 1.272 . S
O406 Zn396 1.910 . S
O406 C412 1.231 . S
C407 O391 1.225 . S
C407 O413 1.298 . S
C408 O397 1.226 . S
C408 O398 1.307 . S
C409 O401 1.303 . S
C409 O402 1.247 . S
C410 O399 1.253 . S
C410 O400 1.283 . S
C411 O403 1.304 . S
C411 O405 1.272 . S
C412 O404 1.311 . S
C412 O406 1.231 . S
O413 Zn395 1.953 . S
O413 C407 1.298 . S
H414 C420 0.930 . S
H415 C423 0.930 . S
H416 C424 0.930 . S
H417 C425 0.930 . S
H418 C428 0.930 . S
H419 C429 0.930 . S
C420 H414 0.930 . S
C420 C421 1.355 . S
C420 C422 1.415 . S
C421 C420 1.355 . S
C421 C423 1.419 . S
C422 C420 1.415 . S
C422 C427 1.425 . S
C422 C429 1.409 . S
C423 H415 0.930 . S
C423 C421 1.419 . S
C423 C424 1.362 . S
C424 H416 0.930 . S
C424 C423 1.362 . S
C424 C427 1.409 . S
C425 H417 0.930 . S
C425 C426 1.355 . S
C425 C427 1.415 . S
C426 C425 1.355 . S
C426 C428 1.419 . S
C427 C422 1.425 . S
C427 C424 1.409 . S
C427 C425 1.415 . S
C428 H418 0.930 . S
C428 C426 1.419 . S
C428 C429 1.362 . S
C429 H419 0.930 . S
C429 C422 1.409 . S
C429 C428 1.362 . S
H430 C436 0.930 . S
H431 C439 0.930 . S
H432 C440 0.930 . S
H433 C441 0.930 . S
H434 C444 0.930 . S
H435 C445 0.930 . S
C436 H430 0.930 . S
C436 C437 1.355 . S
C436 C438 1.415 . S
C437 C436 1.355 . S
C437 C439 1.419 . S
C438 C436 1.415 . S
C438 C443 1.425 . S
C438 C445 1.409 . S
C439 H431 0.930 . S
C439 C437 1.419 . S
C439 C440 1.362 . S
C440 H432 0.930 . S
C440 C439 1.362 . S
C440 C443 1.409 . S
C441 H433 0.930 . S
C441 C442 1.355 . S
C441 C443 1.415 . S
C442 C441 1.355 . S
C442 C444 1.419 . S
C443 C438 1.425 . S
C443 C440 1.409 . S
C443 C441 1.415 . S
C444 H434 0.930 . S
C444 C442 1.419 . S
C444 C445 1.362 . S
C445 H435 0.930 . S
C445 C438 1.409 . S
C445 C444 1.362 . S
H446 C452 0.930 . S
H447 C455 0.930 . S
H448 C456 0.930 . S
H449 C457 0.930 . S
H450 C460 0.930 . S
H451 C461 0.930 . S
C452 H446 0.930 . S
C452 C453 1.355 . S
C452 C454 1.415 . S
C453 C452 1.355 . S
C453 C455 1.419 . S
C454 C452 1.415 . S
C454 C459 1.425 . S
C454 C461 1.409 . S
C455 H447 0.930 . S
C455 C453 1.419 . S
C455 C456 1.362 . S
C456 H448 0.930 . S
C456 C455 1.362 . S
C456 C459 1.409 . S
C457 H449 0.930 . S
C457 C458 1.355 . S
C457 C459 1.415 . S
C458 C457 1.355 . S
C458 C460 1.419 . S
C459 C454 1.425 . S
C459 C456 1.409 . S
C459 C457 1.415 . S
C460 H450 0.930 . S
C460 C458 1.419 . S
C460 C461 1.362 . S
C461 H451 0.930 . S
C461 C454 1.409 . S
C461 C460 1.362 . S
H462 C468 0.930 . S
H463 C471 0.930 . S
H464 C472 0.930 . S
H465 C473 0.930 . S
H466 C476 0.930 . S
H467 C477 0.930 . S
C468 H462 0.930 . S
C468 C469 1.355 . S
C468 C470 1.415 . S
C469 C468 1.355 . S
C469 C471 1.419 . S
C470 C468 1.415 . S
C470 C475 1.425 . S
C470 C477 1.409 . S
C471 H463 0.930 . S
C471 C469 1.419 . S
C471 C472 1.362 . S
C472 H464 0.930 . S
C472 C471 1.362 . S
C472 C475 1.409 . S
C473 H465 0.930 . S
C473 C474 1.355 . S
C473 C475 1.415 . S
C474 C473 1.355 . S
C474 C476 1.419 . S
C475 C470 1.425 . S
C475 C472 1.409 . S
C475 C473 1.415 . S
C476 H466 0.930 . S
C476 C474 1.419 . S
C476 C477 1.362 . S
C477 H467 0.930 . S
C477 C470 1.409 . S
C477 C476 1.362 . S
H478 C484 0.930 . S
H479 C487 0.930 . S
H480 C488 0.930 . S
H481 C489 0.930 . S
H482 C492 0.930 . S
H483 C493 0.930 . S
C484 H478 0.930 . S
C484 C485 1.355 . S
C484 C486 1.415 . S
C485 C484 1.355 . S
C485 C487 1.419 . S
C486 C484 1.415 . S
C486 C491 1.425 . S
C486 C493 1.409 . S
C487 H479 0.930 . S
C487 C485 1.419 . S
C487 C488 1.362 . S
C488 H480 0.930 . S
C488 C487 1.362 . S
C488 C491 1.409 . S
C489 H481 0.930 . S
C489 C490 1.355 . S
C489 C491 1.415 . S
C490 C489 1.355 . S
C490 C492 1.419 . S
C491 C486 1.425 . S
C491 C488 1.409 . S
C491 C489 1.415 . S
C492 H482 0.930 . S
C492 C490 1.419 . S
C492 C493 1.362 . S
C493 H483 0.930 . S
C493 C486 1.409 . S
C493 C492 1.362 . S
H494 C500 0.930 . S
H495 C503 0.930 . S
H496 C504 0.930 . S
H497 C505 0.930 . S
H498 C508 0.930 . S
H499 C509 0.930 . S
C500 H494 0.930 . S
C500 C501 1.355 . S
C500 C502 1.415 . S
C501 C500 1.355 . S
C501 C503 1.419 . S
C502 C500 1.415 . S
C502 C507 1.425 . S
C502 C509 1.409 . S
C503 H495 0.930 . S
C503 C501 1.419 . S
C503 C504 1.362 . S
C504 H496 0.930 . S
C504 C503 1.362 . S
C504 C507 1.409 . S
C505 H497 0.930 . S
C505 C506 1.355 . S
C505 C507 1.415 . S
C506 C505 1.355 . S
C506 C508 1.419 . S
C507 C502 1.425 . S
C507 C504 1.409 . S
C507 C505 1.415 . S
C508 H498 0.930 . S
C508 C506 1.419 . S
C508 C509 1.362 . S
C509 H499 0.930 . S
C509 C502 1.409 . S
C509 C508 1.362 . S
H510 C516 0.930 . S
H511 C519 0.930 . S
H512 C520 0.930 . S
H513 C521 0.930 . S
H514 C524 0.930 . S
H515 C525 0.930 . S
C516 H510 0.930 . S
C516 C517 1.355 . S
C516 C518 1.415 . S
C517 C516 1.355 . S
C517 C519 1.419 . S
C518 C516 1.415 . S
C518 C523 1.425 . S
C518 C525 1.409 . S
C519 H511 0.930 . S
C519 C517 1.419 . S
C519 C520 1.362 . S
C520 H512 0.930 . S
C520 C519 1.362 . S
C520 C523 1.409 . S
C521 H513 0.930 . S
C521 C522 1.355 . S
C521 C523 1.415 . S
C522 C521 1.355 . S
C522 C524 1.419 . S
C523 C518 1.425 . S
C523 C520 1.409 . S
C523 C521 1.415 . S
C524 H514 0.930 . S
C524 C522 1.419 . S
C524 C525 1.362 . S
C525 H515 0.930 . S
C525 C518 1.409 . S
C525 C524 1.362 . S
H526 C532 0.930 . S
H527 C535 0.930 . S
H528 C536 0.930 . S
H529 C537 0.930 . S
H530 C540 0.930 . S
H531 C541 0.930 . S
C532 H526 0.930 . S
C532 C533 1.355 . S
C532 C534 1.415 . S
C533 C532 1.355 . S
C533 C535 1.419 . S
C534 C532 1.415 . S
C534 C539 1.425 . S
C534 C541 1.409 . S
C535 H527 0.930 . S
C535 C533 1.419 . S
C535 C536 1.362 . S
C536 H528 0.930 . S
C536 C535 1.362 . S
C536 C539 1.409 . S
C537 H529 0.930 . S
C537 C538 1.355 . S
C537 C539 1.415 . S
C538 C537 1.355 . S
C538 C540 1.419 . S
C539 C534 1.425 . S
C539 C536 1.409 . S
C539 C537 1.415 . S
C540 H530 0.930 . S
C540 C538 1.419 . S
C540 C541 1.362 . S
C541 H531 0.930 . S
C541 C534 1.409 . S
C541 C540 1.362 . S
H542 C548 0.930 . S
H543 C551 0.930 . S
H544 C552 0.930 . S
H545 C553 0.930 . S
H546 C556 0.930 . S
H547 C557 0.930 . S
C548 H542 0.930 . S
C548 C549 1.355 . S
C548 C550 1.415 . S
C549 C548 1.355 . S
C549 C551 1.419 . S
C550 C548 1.415 . S
C550 C555 1.425 . S
C550 C557 1.409 . S
C551 H543 0.930 . S
C551 C549 1.419 . S
C551 C552 1.362 . S
C552 H544 0.930 . S
C552 C551 1.362 . S
C552 C555 1.409 . S
C553 H545 0.930 . S
C553 C554 1.355 . S
C553 C555 1.415 . S
C554 C553 1.355 . S
C554 C556 1.419 . S
C555 C550 1.425 . S
C555 C552 1.409 . S
C555 C553 1.415 . S
C556 H546 0.930 . S
C556 C554 1.419 . S
C556 C557 1.362 . S
C557 H547 0.930 . S
C557 C550 1.409 . S
C557 C556 1.362 . S
H558 C564 0.930 . S
H559 C567 0.930 . S
H560 C568 0.930 . S
H561 C569 0.930 . S
H562 C572 0.930 . S
H563 C573 0.930 . S
C564 H558 0.930 . S
C564 C565 1.355 . S
C564 C566 1.415 . S
C565 C564 1.355 . S
C565 C567 1.419 . S
C566 C564 1.415 . S
C566 C571 1.425 . S
C566 C573 1.409 . S
C567 H559 0.930 . S
C567 C565 1.419 . S
C567 C568 1.362 . S
C568 H560 0.930 . S
C568 C567 1.362 . S
C568 C571 1.409 . S
C569 H561 0.930 . S
C569 C570 1.355 . S
C569 C571 1.415 . S
C570 C569 1.355 . S
C570 C572 1.419 . S
C571 C566 1.425 . S
C571 C568 1.409 . S
C571 C569 1.415 . S
C572 H562 0.930 . S
C572 C570 1.419 . S
C572 C573 1.362 . S
C573 H563 0.930 . S
C573 C566 1.409 . S
C573 C572 1.362 . S
H574 C580 0.930 . S
H575 C583 0.930 . S
H576 C584 0.930 . S
H577 C585 0.930 . S
H578 C588 0.930 . S
H579 C589 0.930 . S
C580 H574 0.930 . S
C580 C581 1.355 . S
C580 C582 1.415 . S
C581 C580 1.355 . S
C581 C583 1.419 . S
C582 C580 1.415 . S
C582 C587 1.425 . S
C582 C589 1.409 . S
C583 H575 0.930 . S
C583 C581 1.419 . S
C583 C584 1.362 . S
C584 H576 0.930 . S
C584 C583 1.362 . S
C584 C587 1.409 . S
C585 H577 0.930 . S
C585 C586 1.355 . S
C585 C587 1.415 . S
C586 C585 1.355 . S
C586 C588 1.419 . S
C587 C582 1.425 . S
C587 C584 1.409 . S
C587 C585 1.415 . S
C588 H578 0.930 . S
C588 C586 1.419 . S
C588 C589 1.362 . S
C589 H579 0.930 . S
C589 C582 1.409 . S
C589 C588 1.362 . S
H590 C596 0.930 . S
H591 C599 0.930 . S
H592 C600 0.930 . S
H593 C601 0.930 . S
H594 C604 0.930 . S
H595 C605 0.930 . S
C596 H590 0.930 . S
C596 C597 1.355 . S
C596 C598 1.415 . S
C597 C596 1.355 . S
C597 C599 1.419 . S
C598 C596 1.415 . S
C598 C603 1.425 . S
C598 C605 1.409 . S
C599 H591 0.930 . S
C599 C597 1.419 . S
C599 C600 1.362 . S
C600 H592 0.930 . S
C600 C599 1.362 . S
C600 C603 1.409 . S
C601 H593 0.930 . S
C601 C602 1.355 . S
C601 C603 1.415 . S
C602 C601 1.355 . S
C602 C604 1.419 . S
C603 C598 1.425 . S
C603 C600 1.409 . S
C603 C601 1.415 . S
C604 H594 0.930 . S
C604 C602 1.419 . S
C604 C605 1.362 . S
C605 H595 0.930 . S
C605 C598 1.409 . S
C605 C604 1.362 . S
H606 C612 0.930 . S
H607 C615 0.930 . S
H608 C616 0.930 . S
H609 C617 0.930 . S
H610 C620 0.930 . S
H611 C621 0.930 . S
C612 H606 0.930 . S
C612 C613 1.355 . S
C612 C614 1.415 1_655 S
C613 C612 1.355 . S
C613 C615 1.419 1_556 S
C614 C612 1.415 1_455 S
C614 C619 1.425 1_556 S
C614 C621 1.409 . S
C615 H607 0.930 . S
C615 C613 1.419 1_554 S
C615 C616 1.362 . S
C616 H608 0.930 . S
C616 C615 1.362 . S
C616 C619 1.409 1_655 S
C617 H609 0.930 . S
C617 C618 1.355 . S
C617 C619 1.415 . S
C618 C617 1.355 . S
C618 C620 1.419 1_554 S
C619 C614 1.425 1_554 S
C619 C616 1.409 1_455 S
C619 C617 1.415 . S
C620 H610 0.930 . S
C620 C618 1.419 1_556 S
C620 C621 1.362 . S
C621 H611 0.930 . S
C621 C614 1.409 . S
C621 C620 1.362 . S
H622 C628 0.930 . S
H623 C631 0.930 . S
H624 C632 0.930 . S
H625 C633 0.930 . S
H626 C636 0.930 . S
H627 C637 0.930 . S
C628 H622 0.930 . S
C628 C629 1.355 . S
C628 C630 1.415 . S
C629 C628 1.355 . S
C629 C631 1.419 . S
C630 C628 1.415 . S
C630 C635 1.425 1_556 S
C630 C637 1.409 . S
C631 H623 0.930 . S
C631 C629 1.419 . S
C631 C632 1.362 1_556 S
C632 H624 0.930 . S
C632 C631 1.362 1_554 S
C632 C635 1.409 . S
C633 H625 0.930 . S
C633 C634 1.355 . S
C633 C635 1.415 . S
C634 C633 1.355 . S
C634 C636 1.419 . S
C635 C630 1.425 1_554 S
C635 C632 1.409 . S
C635 C633 1.415 . S
C636 H626 0.930 . S
C636 C634 1.419 . S
C636 C637 1.362 1_554 S
C637 H627 0.930 . S
C637 C630 1.409 . S
C637 C636 1.362 1_556 S
H638 C644 0.930 . S
H639 C647 0.930 . S
H640 C648 0.930 . S
H641 C649 0.930 . S
H642 C652 0.930 . S
H643 C653 0.930 . S
C644 H638 0.930 . S
C644 C645 1.355 . S
C644 C646 1.415 . S
C645 C644 1.355 . S
C645 C647 1.419 1_556 S
C646 C644 1.415 . S
C646 C651 1.425 1_556 S
C646 C653 1.409 1_545 S
C647 H639 0.930 . S
C647 C645 1.419 1_554 S
C647 C648 1.362 . S
C648 H640 0.930 . S
C648 C647 1.362 . S
C648 C651 1.409 . S
C649 H641 0.930 . S
C649 C650 1.355 . S
C649 C651 1.415 1_565 S
C650 C649 1.355 . S
C650 C652 1.419 1_554 S
C651 C646 1.425 1_554 S
C651 C648 1.409 . S
C651 C649 1.415 1_545 S
C652 H642 0.930 . S
C652 C650 1.419 1_556 S
C652 C653 1.362 . S
C653 H643 0.930 . S
C653 C646 1.409 1_565 S
C653 C652 1.362 . S
H654 C660 0.930 . S
H655 C663 0.930 . S
H656 C664 0.930 . S
H657 C665 0.930 . S
H658 C668 0.930 . S
H659 C669 0.930 . S
C660 H654 0.930 . S
C660 C661 1.355 1_554 S
C660 C662 1.415 . S
C661 C660 1.355 1_556 S
C661 C663 1.419 . S
C662 C660 1.415 . S
C662 C667 1.425 1_554 S
C662 C669 1.409 . S
C663 H655 0.930 . S
C663 C661 1.419 . S
C663 C664 1.362 . S
C664 H656 0.930 . S
C664 C663 1.362 . S
C664 C667 1.409 . S
C665 H657 0.930 . S
C665 C666 1.355 1_556 S
C665 C667 1.415 1_565 S
C666 C665 1.355 1_554 S
C666 C668 1.419 . S
C667 C662 1.425 1_556 S
C667 C664 1.409 . S
C667 C665 1.415 1_545 S
C668 H658 0.930 . S
C668 C666 1.419 . S
C668 C669 1.362 1_565 S
C669 H659 0.930 . S
C669 C662 1.409 . S
C669 C668 1.362 1_545 S
H670 C676 0.930 . S
H671 C679 0.930 . S
H672 C680 0.930 . S
H673 C681 0.930 . S
H674 C684 0.930 . S
H675 C685 0.930 . S
C676 H670 0.930 . S
C676 C677 1.355 . S
C676 C678 1.415 . S
C677 C676 1.355 . S
C677 C679 1.419 1_554 S
C678 C676 1.415 . S
C678 C683 1.425 1_554 S
C678 C685 1.409 1_455 S
C679 H671 0.930 . S
C679 C677 1.419 1_556 S
C679 C680 1.362 . S
C680 H672 0.930 . S
C680 C679 1.362 . S
C680 C683 1.409 . S
C681 H673 0.930 . S
C681 C682 1.355 . S
C681 C683 1.415 1_655 S
C682 C681 1.355 . S
C682 C684 1.419 1_556 S
C683 C678 1.425 1_556 S
C683 C680 1.409 . S
C683 C681 1.415 1_455 S
C684 H674 0.930 . S
C684 C682 1.419 1_554 S
C684 C685 1.362 . S
C685 H675 0.930 . S
C685 C678 1.409 1_655 S
C685 C684 1.362 . S
H686 C692 0.930 . S
H687 C695 0.930 . S
H688 C696 0.930 . S
H689 C697 0.930 . S
H690 C700 0.930 . S
H691 C701 0.930 . S
C692 H686 0.930 . S
C692 C693 1.355 1_556 S
C692 C694 1.415 . S
C693 C692 1.355 1_554 S
C693 C695 1.419 . S
C694 C692 1.415 . S
C694 C699 1.425 1_556 S
C694 C701 1.409 . S
C695 H687 0.930 . S
C695 C693 1.419 . S
C695 C696 1.362 . S
C696 H688 0.930 . S
C696 C695 1.362 . S
C696 C699 1.409 . S
C697 H689 0.930 . S
C697 C698 1.355 1_554 S
C697 C699 1.415 . S
C698 C697 1.355 1_556 S
C698 C700 1.419 . S
C699 C694 1.425 1_554 S
C699 C696 1.409 . S
C699 C697 1.415 . S
C700 H690 0.930 . S
C700 C698 1.419 . S
C700 C701 1.362 . S
C701 H691 0.930 . S
C701 C694 1.409 . S
C701 C700 1.362 . S
H702 C708 0.930 . S
H703 C711 0.930 . S
H704 C712 0.930 . S
H705 C713 0.930 . S
H706 C716 0.930 . S
H707 C717 0.930 . S
C708 H702 0.930 . S
C708 C709 1.355 . S
C708 C710 1.415 . S
C709 C708 1.355 . S
C709 C711 1.419 . S
C710 C708 1.415 . S
C710 C715 1.425 . S
C710 C717 1.409 . S
C711 H703 0.930 . S
C711 C709 1.419 . S
C711 C712 1.362 . S
C712 H704 0.930 . S
C712 C711 1.362 . S
C712 C715 1.409 . S
C713 H705 0.930 . S
C713 C714 1.355 . S
C713 C715 1.415 . S
C714 C713 1.355 . S
C714 C716 1.419 . S
C715 C710 1.425 . S
C715 C712 1.409 . S
C715 C713 1.415 . S
C716 H706 0.930 . S
C716 C714 1.419 . S
C716 C717 1.362 . S
C717 H707 0.930 . S
C717 C710 1.409 . S
C717 C716 1.362 . S
H718 C724 0.930 . S
H719 C727 0.930 . S
H720 C728 0.930 . S
H721 C729 0.930 . S
H722 C732 0.930 . S
H723 C733 0.930 . S
C724 H718 0.930 . S
C724 C725 1.355 . S
C724 C726 1.415 . S
C725 C724 1.355 . S
C725 C727 1.419 . S
C726 C724 1.415 . S
C726 C731 1.425 . S
C726 C733 1.409 . S
C727 H719 0.930 . S
C727 C725 1.419 . S
C727 C728 1.362 . S
C728 H720 0.930 . S
C728 C727 1.362 . S
C728 C731 1.409 . S
C729 H721 0.930 . S
C729 C730 1.355 . S
C729 C731 1.415 . S
C730 C729 1.355 . S
C730 C732 1.419 . S
C731 C726 1.425 . S
C731 C728 1.409 . S
C731 C729 1.415 . S
C732 H722 0.930 . S
C732 C730 1.419 . S
C732 C733 1.362 . S
C733 H723 0.930 . S
C733 C726 1.409 . S
C733 C732 1.362 . S
H734 C740 0.930 . S
H735 C743 0.930 . S
H736 C744 0.930 . S
H737 C745 0.930 . S
H738 C748 0.930 . S
H739 C749 0.930 . S
C740 H734 0.930 . S
C740 C741 1.355 . S
C740 C742 1.415 . S
C741 C740 1.355 . S
C741 C743 1.419 . S
C742 C740 1.415 . S
C742 C747 1.425 . S
C742 C749 1.409 . S
C743 H735 0.930 . S
C743 C741 1.419 . S
C743 C744 1.362 . S
C744 H736 0.930 . S
C744 C743 1.362 . S
C744 C747 1.409 . S
C745 H737 0.930 . S
C745 C746 1.355 . S
C745 C747 1.415 . S
C746 C745 1.355 . S
C746 C748 1.419 . S
C747 C742 1.425 . S
C747 C744 1.409 . S
C747 C745 1.415 . S
C748 H738 0.930 . S
C748 C746 1.419 . S
C748 C749 1.362 . S
C749 H739 0.930 . S
C749 C742 1.409 . S
C749 C748 1.362 . S
H750 C756 0.930 . S
H751 C759 0.930 . S
H752 C760 0.930 . S
H753 C761 0.930 . S
H754 C764 0.930 . S
H755 C765 0.930 . S
C756 H750 0.930 . S
C756 C757 1.355 . S
C756 C758 1.415 . S
C757 C756 1.355 . S
C757 C759 1.419 . S
C758 C756 1.415 . S
C758 C763 1.425 . S
C758 C765 1.409 . S
C759 H751 0.930 . S
C759 C757 1.419 . S
C759 C760 1.362 . S
C760 H752 0.930 . S
C760 C759 1.362 . S
C760 C763 1.409 . S
C761 H753 0.930 . S
C761 C762 1.355 . S
C761 C763 1.415 . S
C762 C761 1.355 . S
C762 C764 1.419 . S
C763 C758 1.425 . S
C763 C760 1.409 . S
C763 C761 1.415 . S
C764 H754 0.930 . S
C764 C762 1.419 . S
C764 C765 1.362 . S
C765 H755 0.930 . S
C765 C758 1.409 . S
C765 C764 1.362 . S
H766 C772 0.930 . S
H767 C775 0.930 . S
H768 C776 0.930 . S
H769 C777 0.930 . S
H770 C780 0.930 . S
H771 C781 0.930 . S
C772 H766 0.930 . S
C772 C773 1.355 . S
C772 C774 1.415 . S
C773 C772 1.355 . S
C773 C775 1.419 . S
C774 C772 1.415 . S
C774 C779 1.425 . S
C774 C781 1.409 . S
C775 H767 0.930 . S
C775 C773 1.419 . S
C775 C776 1.362 . S
C776 H768 0.930 . S
C776 C775 1.362 . S
C776 C779 1.409 . S
C777 H769 0.930 . S
C777 C778 1.355 . S
C777 C779 1.415 . S
C778 C777 1.355 . S
C778 C780 1.419 . S
C779 C774 1.425 . S
C779 C776 1.409 . S
C779 C777 1.415 . S
C780 H770 0.930 . S
C780 C778 1.419 . S
C780 C781 1.362 . S
C781 H771 0.930 . S
C781 C774 1.409 . S
C781 C780 1.362 . S
H782 C788 0.930 . S
H783 C791 0.930 . S
H784 C792 0.930 . S
H785 C793 0.930 . S
H786 C796 0.930 . S
H787 C797 0.930 . S
C788 H782 0.930 . S
C788 C789 1.355 . S
C788 C790 1.415 . S
C789 C788 1.355 . S
C789 C791 1.419 . S
C790 C788 1.415 . S
C790 C795 1.425 . S
C790 C797 1.409 . S
C791 H783 0.930 . S
C791 C789 1.419 . S
C791 C792 1.362 . S
C792 H784 0.930 . S
C792 C791 1.362 . S
C792 C795 1.409 . S
C793 H785 0.930 . S
C793 C794 1.355 . S
C793 C795 1.415 . S
C794 C793 1.355 . S
C794 C796 1.419 . S
C795 C790 1.425 . S
C795 C792 1.409 . S
C795 C793 1.415 . S
C796 H786 0.930 . S
C796 C794 1.419 . S
C796 C797 1.362 . S
C797 H787 0.930 . S
C797 C790 1.409 . S
C797 C796 1.362 . S
H798 C804 0.930 . S
H799 C807 0.930 . S
H800 C808 0.930 . S
H801 C809 0.930 . S
H802 C812 0.930 . S
H803 C813 0.930 . S
C804 H798 0.930 . S
C804 C805 1.355 . S
C804 C806 1.415 . S
C805 C804 1.355 . S
C805 C807 1.419 . S
C806 C804 1.415 . S
C806 C811 1.425 . S
C806 C813 1.409 . S
C807 H799 0.930 . S
C807 C805 1.419 . S
C807 C808 1.362 . S
C808 H800 0.930 . S
C808 C807 1.362 . S
C808 C811 1.409 . S
C809 H801 0.930 . S
C809 C810 1.355 . S
C809 C811 1.415 . S
C810 C809 1.355 . S
C810 C812 1.419 . S
C811 C806 1.425 . S
C811 C808 1.409 . S
C811 C809 1.415 . S
C812 H802 0.930 . S
C812 C810 1.419 . S
C812 C813 1.362 . S
C813 H803 0.930 . S
C813 C806 1.409 . S
C813 C812 1.362 . S
H814 C820 0.930 . S
H815 C823 0.930 . S
H816 C824 0.930 . S
H817 C825 0.930 . S
H818 C828 0.930 . S
H819 C829 0.930 . S
C820 H814 0.930 . S
C820 C821 1.355 . S
C820 C822 1.415 . S
C821 C820 1.355 . S
C821 C823 1.419 . S
C822 C820 1.415 . S
C822 C827 1.425 . S
C822 C829 1.409 . S
C823 H815 0.930 . S
C823 C821 1.419 . S
C823 C824 1.362 . S
C824 H816 0.930 . S
C824 C823 1.362 . S
C824 C827 1.409 . S
C825 H817 0.930 . S
C825 C826 1.355 . S
C825 C827 1.415 . S
C826 C825 1.355 . S
C826 C828 1.419 . S
C827 C822 1.425 . S
C827 C824 1.409 . S
C827 C825 1.415 . S
C828 H818 0.930 . S
C828 C826 1.419 . S
C828 C829 1.362 . S
C829 H819 0.930 . S
C829 C822 1.409 . S
C829 C828 1.362 . S
H830 C836 0.930 . S
H831 C839 0.930 . S
H832 C840 0.930 . S
H833 C841 0.930 . S
H834 C844 0.930 . S
H835 C845 0.930 . S
C836 H830 0.930 . S
C836 C837 1.355 . S
C836 C838 1.415 . S
C837 C836 1.355 . S
C837 C839 1.419 . S
C838 C836 1.415 . S
C838 C843 1.425 . S
C838 C845 1.409 . S
C839 H831 0.930 . S
C839 C837 1.419 . S
C839 C840 1.362 . S
C840 H832 0.930 . S
C840 C839 1.362 . S
C840 C843 1.409 . S
C841 H833 0.930 . S
C841 C842 1.355 . S
C841 C843 1.415 . S
C842 C841 1.355 . S
C842 C844 1.419 . S
C843 C838 1.425 . S
C843 C840 1.409 . S
C843 C841 1.415 . S
C844 H834 0.930 . S
C844 C842 1.419 . S
C844 C845 1.362 . S
C845 H835 0.930 . S
C845 C838 1.409 . S
C845 C844 1.362 . S
H846 C852 0.930 . S
H847 C855 0.930 . S
H848 C856 0.930 . S
H849 C857 0.930 . S
H850 C860 0.930 . S
H851 C861 0.930 . S
C852 H846 0.930 . S
C852 C853 1.355 . S
C852 C854 1.415 . S
C853 C852 1.355 . S
C853 C855 1.419 . S
C854 C852 1.415 . S
C854 C859 1.425 . S
C854 C861 1.409 . S
C855 H847 0.930 . S
C855 C853 1.419 . S
C855 C856 1.362 . S
C856 H848 0.930 . S
C856 C855 1.362 . S
C856 C859 1.409 . S
C857 H849 0.930 . S
C857 C858 1.355 . S
C857 C859 1.415 . S
C858 C857 1.355 . S
C858 C860 1.419 . S
C859 C854 1.425 . S
C859 C856 1.409 . S
C859 C857 1.415 . S
C860 H850 0.930 . S
C860 C858 1.419 . S
C860 C861 1.362 . S
C861 H851 0.930 . S
C861 C854 1.409 . S
C861 C860 1.362 . S
H862 C868 0.930 . S
H863 C871 0.930 . S
H864 C872 0.930 . S
H865 C873 0.930 . S
H866 C876 0.930 . S
H867 C877 0.930 . S
C868 H862 0.930 . S
C868 C869 1.355 . S
C868 C870 1.415 . S
C869 C868 1.355 . S
C869 C871 1.419 . S
C870 C868 1.415 . S
C870 C875 1.425 . S
C870 C877 1.409 . S
C871 H863 0.930 . S
C871 C869 1.419 . S
C871 C872 1.362 . S
C872 H864 0.930 . S
C872 C871 1.362 . S
C872 C875 1.409 . S
C873 H865 0.930 . S
C873 C874 1.355 . S
C873 C875 1.415 . S
C874 C873 1.355 . S
C874 C876 1.419 . S
C875 C870 1.425 . S
C875 C872 1.409 . S
C875 C873 1.415 . S
C876 H866 0.930 . S
C876 C874 1.419 . S
C876 C877 1.362 . S
C877 H867 0.930 . S
C877 C870 1.409 . S
C877 C876 1.362 . S
H878 C884 0.930 . S
H879 C887 0.930 . S
H880 C888 0.930 . S
H881 C889 0.930 . S
H882 C892 0.930 . S
H883 C893 0.930 . S
C884 H878 0.930 . S
C884 C885 1.355 . S
C884 C886 1.415 . S
C885 C884 1.355 . S
C885 C887 1.419 . S
C886 C884 1.415 . S
C886 C891 1.425 . S
C886 C893 1.409 . S
C887 H879 0.930 . S
C887 C885 1.419 . S
C887 C888 1.362 . S
C888 H880 0.930 . S
C888 C887 1.362 . S
C888 C891 1.409 . S
C889 H881 0.930 . S
C889 C890 1.355 . S
C889 C891 1.415 . S
C890 C889 1.355 . S
C890 C892 1.419 . S
C891 C886 1.425 . S
C891 C888 1.409 . S
C891 C889 1.415 . S
C892 H882 0.930 . S
C892 C890 1.419 . S
C892 C893 1.362 . S
C893 H883 0.930 . S
C893 C886 1.409 . S
C893 C892 1.362 . S
H894 C900 0.930 . S
H895 C903 0.930 . S
H896 C904 0.930 . S
H897 C905 0.930 . S
H898 C908 0.930 . S
H899 C909 0.930 . S
C900 H894 0.930 . S
C900 C901 1.355 . S
C900 C902 1.415 . S
C901 C900 1.355 . S
C901 C903 1.419 . S
C902 C900 1.415 . S
C902 C907 1.425 . S
C902 C909 1.409 . S
C903 H895 0.930 . S
C903 C901 1.419 . S
C903 C904 1.362 . S
C904 H896 0.930 . S
C904 C903 1.362 . S
C904 C907 1.409 . S
C905 H897 0.930 . S
C905 C906 1.355 . S
C905 C907 1.415 . S
C906 C905 1.355 . S
C906 C908 1.419 . S
C907 C902 1.425 . S
C907 C904 1.409 . S
C907 C905 1.415 . S
C908 H898 0.930 . S
C908 C906 1.419 . S
C908 C909 1.362 . S
C909 H899 0.930 . S
C909 C902 1.409 . S
C909 C908 1.362 . S
H910 C916 0.930 . S
H911 C919 0.930 . S
H912 C920 0.930 . S
H913 C921 0.930 . S
H914 C924 0.930 . S
H915 C925 0.930 . S
C916 H910 0.930 . S
C916 C917 1.355 . S
C916 C918 1.415 . S
C917 C916 1.355 . S
C917 C919 1.419 . S
C918 C916 1.415 . S
C918 C923 1.425 . S
C918 C925 1.409 . S
C919 H911 0.930 . S
C919 C917 1.419 . S
C919 C920 1.362 . S
C920 H912 0.930 . S
C920 C919 1.362 . S
C920 C923 1.409 . S
C921 H913 0.930 . S
C921 C922 1.355 . S
C921 C923 1.415 . S
C922 C921 1.355 . S
C922 C924 1.419 . S
C923 C918 1.425 . S
C923 C920 1.409 . S
C923 C921 1.415 . S
C924 H914 0.930 . S
C924 C922 1.419 . S
C924 C925 1.362 . S
C925 H915 0.930 . S
C925 C918 1.409 . S
C925 C924 1.362 . S
H926 C932 0.930 . S
H927 C935 0.930 . S
H928 C936 0.930 . S
H929 C937 0.930 . S
H930 C940 0.930 . S
H931 C941 0.930 . S
C932 H926 0.930 . S
C932 C933 1.355 . S
C932 C934 1.415 . S
C933 C932 1.355 . S
C933 C935 1.419 . S
C934 C932 1.415 . S
C934 C939 1.425 . S
C934 C941 1.409 . S
C935 H927 0.930 . S
C935 C933 1.419 . S
C935 C936 1.362 . S
C936 H928 0.930 . S
C936 C935 1.362 . S
C936 C939 1.409 . S
C937 H929 0.930 . S
C937 C938 1.355 . S
C937 C939 1.415 . S
C938 C937 1.355 . S
C938 C940 1.419 . S
C939 C934 1.425 . S
C939 C936 1.409 . S
C939 C937 1.415 . S
C940 H930 0.930 . S
C940 C938 1.419 . S
C940 C941 1.362 . S
C941 H931 0.930 . S
C941 C934 1.409 . S
C941 C940 1.362 . S
H942 C948 0.930 . S
H943 C951 0.930 . S
H944 C952 0.930 . S
H945 C953 0.930 . S
H946 C956 0.930 . S
H947 C957 0.930 1_556 S
C948 H942 0.930 . S
C948 C949 1.355 . S
C948 C950 1.415 . S
C949 C948 1.355 . S
C949 C951 1.419 . S
C950 C948 1.415 . S
C950 C955 1.425 . S
C950 C957 1.409 . S
C951 H943 0.930 . S
C951 C949 1.419 . S
C951 C952 1.362 . S
C952 H944 0.930 . S
C952 C951 1.362 . S
C952 C955 1.409 . S
C953 H945 0.930 . S
C953 C954 1.355 . S
C953 C955 1.415 . S
C954 C953 1.355 . S
C954 C956 1.419 . S
C955 C950 1.425 . S
C955 C952 1.409 . S
C955 C953 1.415 . S
C956 H946 0.930 . S
C956 C954 1.419 . S
C956 C957 1.362 . S
C957 H947 0.930 1_554 S
C957 C950 1.409 . S
C957 C956 1.362 . S
H958 C964 0.930 . S
H959 C967 0.930 . S
H960 C968 0.930 . S
H961 C969 0.930 . S
H962 C972 0.930 . S
H963 C973 0.930 . S
C964 H958 0.930 . S
C964 C965 1.355 . S
C964 C966 1.415 . S
C965 C964 1.355 . S
C965 C967 1.419 . S
C966 C964 1.415 . S
C966 C971 1.425 . S
C966 C973 1.409 . S
C967 H959 0.930 . S
C967 C965 1.419 . S
C967 C968 1.362 . S
C968 H960 0.930 . S
C968 C967 1.362 . S
C968 C971 1.409 . S
C969 H961 0.930 . S
C969 C970 1.355 . S
C969 C971 1.415 . S
C970 C969 1.355 . S
C970 C972 1.419 . S
C971 C966 1.425 . S
C971 C968 1.409 . S
C971 C969 1.415 . S
C972 H962 0.930 . S
C972 C970 1.419 . S
C972 C973 1.362 . S
C973 H963 0.930 . S
C973 C966 1.409 . S
C973 C972 1.362 . S
H974 C980 0.930 . S
H975 C983 0.930 . S
H976 C984 0.930 . S
H977 C985 0.930 . S
H978 C988 0.930 . S
H979 C989 0.930 1_556 S
C980 H974 0.930 . S
C980 C981 1.355 . S
C980 C982 1.415 . S
C981 C980 1.355 . S
C981 C983 1.419 . S
C982 C980 1.415 . S
C982 C987 1.425 . S
C982 C989 1.409 . S
C983 H975 0.930 . S
C983 C981 1.419 . S
C983 C984 1.362 . S
C984 H976 0.930 . S
C984 C983 1.362 . S
C984 C987 1.409 . S
C985 H977 0.930 . S
C985 C986 1.355 . S
C985 C987 1.415 . S
C986 C985 1.355 . S
C986 C988 1.419 . S
C987 C982 1.425 . S
C987 C984 1.409 . S
C987 C985 1.415 . S
C988 H978 0.930 . S
C988 C986 1.419 . S
C988 C989 1.362 . S
C989 H979 0.930 1_554 S
C989 C982 1.409 . S
C989 C988 1.362 . S
H990 C996 0.930 . S
H991 C999 0.930 . S
H992 C1000 0.930 . S
H993 C1001 0.930 . S
H994 C1004 0.895 1_655 S
H995 C1005 0.930 . S
C996 H990 0.930 . S
C996 C997 1.355 1_655 S
C996 C998 1.415 1_655 S
C997 C996 1.355 1_455 S
C997 C999 1.419 . S
C998 C996 1.415 1_455 S
C998 C1003 1.425 1_554 S
C998 C1005 1.409 1_454 S
C999 H991 0.930 . S
C999 C997 1.419 . S
C999 C1000 1.362 . S
C1000 H992 0.930 . S
C1000 C999 1.362 . S
C1000 C1003 1.409 1_554 S
C1001 H993 0.930 . S
C1001 C1002 1.355 . S
C1001 C1003 1.415 . S
C1002 C1001 1.355 . S
C1002 C1004 1.419 . S
C1003 C998 1.425 1_556 S
C1003 C1000 1.409 1_556 S
C1003 C1001 1.415 . S
C1004 H994 0.895 1_455 S
C1004 C1002 1.419 . S
C1004 C1005 1.362 1_455 S
C1005 H995 0.930 . S
C1005 C998 1.409 1_656 S
C1005 C1004 1.362 1_655 S
H1006 C1012 0.930 . S
H1007 C1015 0.930 . S
H1008 C1016 0.930 . S
H1009 C1017 0.930 . S
H1010 C1020 0.930 . S
H1011 C1021 0.930 . S
C1012 H1006 0.930 . S
C1012 C1013 1.355 . S
C1012 C1014 1.415 . S
C1013 C1012 1.355 . S
C1013 C1015 1.419 . S
C1014 C1012 1.415 . S
C1014 C1019 1.425 1_554 S
C1014 C1021 1.409 1_554 S
C1015 H1007 0.930 . S
C1015 C1013 1.419 . S
C1015 C1016 1.362 . S
C1016 H1008 0.930 . S
C1016 C1015 1.362 . S
C1016 C1019 1.409 1_554 S
C1017 H1009 0.930 . S
C1017 C1018 1.355 . S
C1017 C1019 1.415 . S
C1018 C1017 1.355 . S
C1018 C1020 1.419 . S
C1019 C1014 1.425 1_556 S
C1019 C1016 1.409 1_556 S
C1019 C1017 1.415 . S
C1020 H1010 0.930 . S
C1020 C1018 1.419 . S
C1020 C1021 1.362 . S
C1021 H1011 0.930 . S
C1021 C1014 1.409 1_556 S
C1021 C1020 1.362 . S
H1022 C1028 0.930 1_565 S
H1023 C1031 0.930 . S
H1024 C1032 0.935 . S
H1025 C1033 0.930 . S
H1026 C1036 0.930 . S
H1027 C1037 0.930 1_554 S
C1028 H1022 0.930 1_545 S
C1028 C1029 1.355 . S
C1028 C1030 1.415 . S
C1029 C1028 1.355 . S
C1029 C1031 1.419 . S
C1030 C1028 1.415 . S
C1030 C1035 1.425 1_554 S
C1030 C1037 1.409 1_544 S
C1031 H1023 0.930 . S
C1031 C1029 1.419 . S
C1031 C1032 1.362 . S
C1032 H1024 0.935 . S
C1032 C1031 1.362 . S
C1032 C1035 1.409 1_554 S
C1033 H1025 0.930 . S
C1033 C1034 1.355 . S
C1033 C1035 1.415 . S
C1034 C1033 1.355 . S
C1034 C1036 1.419 1_545 S
C1035 C1030 1.425 1_556 S
C1035 C1032 1.409 1_556 S
C1035 C1033 1.415 . S
C1036 H1026 0.930 . S
C1036 C1034 1.419 1_565 S
C1036 C1037 1.362 . S
C1037 H1027 0.930 1_556 S
C1037 C1030 1.409 1_566 S
C1037 C1036 1.362 . S
H1038 C1044 0.930 . S
H1039 C1047 0.930 . S
H1040 C1048 0.930 . S
H1041 C1049 0.930 . S
H1042 C1052 0.930 . S
H1043 C1053 0.930 . S
C1044 H1038 0.930 . S
C1044 C1045 1.355 . S
C1044 C1046 1.415 . S
C1045 C1044 1.355 . S
C1045 C1047 1.419 1_455 S
C1046 C1044 1.415 . S
C1046 C1051 1.425 1_556 S
C1046 C1053 1.409 1_556 S
C1047 H1039 0.930 . S
C1047 C1045 1.419 1_655 S
C1047 C1048 1.362 . S
C1048 H1040 0.930 . S
C1048 C1047 1.362 . S
C1048 C1051 1.409 1_656 S
C1049 H1041 0.930 . S
C1049 C1050 1.355 1_655 S
C1049 C1051 1.415 1_655 S
C1050 C1049 1.355 1_455 S
C1050 C1052 1.419 . S
C1051 C1046 1.425 1_554 S
C1051 C1048 1.409 1_454 S
C1051 C1049 1.415 1_455 S
C1052 H1042 0.930 . S
C1052 C1050 1.419 . S
C1052 C1053 1.362 . S
C1053 H1043 0.930 . S
C1053 C1046 1.409 1_554 S
C1053 C1052 1.362 . S
H1054 C1060 0.930 . S
H1055 C1063 0.930 . S
H1056 C1064 0.930 . S
H1057 C1065 0.930 . S
H1058 C1068 0.930 . S
H1059 C1069 0.930 1_554 S
C1060 H1054 0.930 . S
C1060 C1061 1.355 . S
C1060 C1062 1.415 . S
C1061 C1060 1.355 . S
C1061 C1063 1.419 . S
C1062 C1060 1.415 . S
C1062 C1067 1.425 1_554 S
C1062 C1069 1.409 1_554 S
C1063 H1055 0.930 . S
C1063 C1061 1.419 . S
C1063 C1064 1.362 . S
C1064 H1056 0.930 . S
C1064 C1063 1.362 . S
C1064 C1067 1.409 1_554 S
C1065 H1057 0.930 . S
C1065 C1066 1.355 . S
C1065 C1067 1.415 . S
C1066 C1065 1.355 . S
C1066 C1068 1.419 . S
C1067 C1062 1.425 1_556 S
C1067 C1064 1.409 1_556 S
C1067 C1065 1.415 . S
C1068 H1058 0.930 . S
C1068 C1066 1.419 . S
C1068 C1069 1.362 . S
C1069 H1059 0.930 1_556 S
C1069 C1062 1.409 1_556 S
C1069 C1068 1.362 . S
H1070 C1076 0.930 1_565 S
H1071 C1079 0.930 . S
H1072 C1080 0.930 1_556 S
H1073 C1081 0.930 . S
H1074 C1084 0.930 . S
H1075 C1085 0.930 . S
C1076 H1070 0.930 1_545 S
C1076 C1077 1.355 . S
C1076 C1078 1.415 . S
C1077 C1076 1.355 . S
C1077 C1079 1.419 . S
C1078 C1076 1.415 . S
C1078 C1083 1.425 1_554 S
C1078 C1085 1.409 1_544 S
C1079 H1071 0.930 . S
C1079 C1077 1.419 . S
C1079 C1080 1.362 . S
C1080 H1072 0.930 1_554 S
C1080 C1079 1.362 . S
C1080 C1083 1.409 1_554 S
C1081 H1073 0.930 . S
C1081 C1082 1.355 . S
C1081 C1083 1.415 . S
C1082 C1081 1.355 . S
C1082 C1084 1.419 1_545 S
C1083 C1078 1.425 1_556 S
C1083 C1080 1.409 1_556 S
C1083 C1081 1.415 . S
C1084 H1074 0.930 . S
C1084 C1082 1.419 1_565 S
C1084 C1085 1.362 . S
C1085 H1075 0.930 . S
C1085 C1078 1.409 1_566 S
C1085 C1084 1.362 . S
H1086 C1092 0.930 . S
H1087 C1095 0.930 . S
H1088 C1096 0.930 . S
H1089 C1097 0.930 . S
H1090 C1100 0.930 . S
H1091 C1101 0.930 . S
C1092 H1086 0.930 . S
C1092 C1093 1.355 . S
C1092 C1094 1.415 . S
C1093 C1092 1.355 . S
C1093 C1095 1.419 . S
C1094 C1092 1.415 . S
C1094 C1099 1.425 . S
C1094 C1101 1.409 . S
C1095 H1087 0.930 . S
C1095 C1093 1.419 . S
C1095 C1096 1.362 . S
C1096 H1088 0.930 . S
C1096 C1095 1.362 . S
C1096 C1099 1.409 . S
C1097 H1089 0.930 . S
C1097 C1098 1.355 . S
C1097 C1099 1.415 . S
C1098 C1097 1.355 . S
C1098 C1100 1.419 . S
C1099 C1094 1.425 . S
C1099 C1096 1.409 . S
C1099 C1097 1.415 . S
C1100 H1090 0.930 . S
C1100 C1098 1.419 . S
C1100 C1101 1.362 . S
C1101 H1091 0.930 . S
C1101 C1094 1.409 . S
C1101 C1100 1.362 . S
H1102 C1108 0.930 . S
H1103 C1111 0.930 . S
H1104 C1112 0.930 . S
H1105 C1113 0.930 . S
H1106 C1116 0.930 . S
H1107 C1117 0.930 . S
C1108 H1102 0.930 . S
C1108 C1109 1.355 . S
C1108 C1110 1.415 . S
C1109 C1108 1.355 . S
C1109 C1111 1.419 . S
C1110 C1108 1.415 . S
C1110 C1115 1.425 . S
C1110 C1117 1.409 . S
C1111 H1103 0.930 . S
C1111 C1109 1.419 . S
C1111 C1112 1.362 . S
C1112 H1104 0.930 . S
C1112 C1111 1.362 . S
C1112 C1115 1.409 . S
C1113 H1105 0.930 . S
C1113 C1114 1.355 . S
C1113 C1115 1.415 . S
C1114 C1113 1.355 . S
C1114 C1116 1.419 . S
C1115 C1110 1.425 . S
C1115 C1112 1.409 . S
C1115 C1113 1.415 . S
C1116 H1106 0.930 . S
C1116 C1114 1.419 . S
C1116 C1117 1.362 . S
C1117 H1107 0.930 . S
C1117 C1110 1.409 . S
C1117 C1116 1.362 . S
H1118 C1124 0.930 . S
H1119 C1127 0.930 . S
H1120 C1128 0.930 . S
H1121 C1129 0.930 . S
H1122 C1132 0.930 . S
H1123 C1133 0.930 . S
C1124 H1118 0.930 . S
C1124 C1125 1.355 . S
C1124 C1126 1.415 . S
C1125 C1124 1.355 . S
C1125 C1127 1.419 . S
C1126 C1124 1.415 . S
C1126 C1131 1.425 . S
C1126 C1133 1.409 . S
C1127 H1119 0.930 . S
C1127 C1125 1.419 . S
C1127 C1128 1.362 . S
C1128 H1120 0.930 . S
C1128 C1127 1.362 . S
C1128 C1131 1.409 . S
C1129 H1121 0.930 . S
C1129 C1130 1.355 . S
C1129 C1131 1.415 . S
C1130 C1129 1.355 . S
C1130 C1132 1.419 . S
C1131 C1126 1.425 . S
C1131 C1128 1.409 . S
C1131 C1129 1.415 . S
C1132 H1122 0.930 . S
C1132 C1130 1.419 . S
C1132 C1133 1.362 . S
C1133 H1123 0.930 . S
C1133 C1126 1.409 . S
C1133 C1132 1.362 . S
H1134 C1140 0.930 . S
H1135 C1143 0.930 . S
H1136 C1144 0.930 . S
H1137 C1145 0.930 . S
H1138 C1148 0.930 . S
H1139 C1149 0.930 . S
C1140 H1134 0.930 . S
C1140 C1141 1.355 . S
C1140 C1142 1.415 . S
C1141 C1140 1.355 . S
C1141 C1143 1.419 . S
C1142 C1140 1.415 . S
C1142 C1147 1.425 . S
C1142 C1149 1.409 . S
C1143 H1135 0.930 . S
C1143 C1141 1.419 . S
C1143 C1144 1.362 . S
C1144 H1136 0.930 . S
C1144 C1143 1.362 . S
C1144 C1147 1.409 . S
C1145 H1137 0.930 . S
C1145 C1146 1.355 . S
C1145 C1147 1.415 . S
C1146 C1145 1.355 . S
C1146 C1148 1.419 . S
C1147 C1142 1.425 . S
C1147 C1144 1.409 . S
C1147 C1145 1.415 . S
C1148 H1138 0.930 . S
C1148 C1146 1.419 . S
C1148 C1149 1.362 . S
C1149 H1139 0.930 . S
C1149 C1142 1.409 . S
C1149 C1148 1.362 . S
H1150 C1156 0.930 . S
H1151 C1159 0.930 . S
H1152 C1160 0.930 . S
H1153 C1161 0.930 . S
H1154 C1164 0.930 . S
H1155 C1165 0.930 . S
C1156 H1150 0.930 . S
C1156 C1157 1.355 . S
C1156 C1158 1.415 . S
C1157 C1156 1.355 . S
C1157 C1159 1.419 . S
C1158 C1156 1.415 . S
C1158 C1163 1.425 . S
C1158 C1165 1.409 . S
C1159 H1151 0.930 . S
C1159 C1157 1.419 . S
C1159 C1160 1.362 . S
C1160 H1152 0.930 . S
C1160 C1159 1.362 . S
C1160 C1163 1.409 . S
C1161 H1153 0.930 . S
C1161 C1162 1.355 . S
C1161 C1163 1.415 . S
C1162 C1161 1.355 . S
C1162 C1164 1.419 . S
C1163 C1158 1.425 . S
C1163 C1160 1.409 . S
C1163 C1161 1.415 . S
C1164 H1154 0.930 . S
C1164 C1162 1.419 . S
C1164 C1165 1.362 . S
C1165 H1155 0.930 . S
C1165 C1158 1.409 . S
C1165 C1164 1.362 . S
H1166 C1172 0.930 . S
H1167 C1175 0.930 . S
H1168 C1176 0.930 . S
H1169 C1177 0.930 . S
H1170 C1180 0.930 . S
H1171 C1181 0.930 . S
C1172 H1166 0.930 . S
C1172 C1173 1.355 . S
C1172 C1174 1.415 . S
C1173 C1172 1.355 . S
C1173 C1175 1.419 . S
C1174 C1172 1.415 . S
C1174 C1179 1.425 . S
C1174 C1181 1.409 . S
C1175 H1167 0.930 . S
C1175 C1173 1.419 . S
C1175 C1176 1.362 . S
C1176 H1168 0.930 . S
C1176 C1175 1.362 . S
C1176 C1179 1.409 . S
C1177 H1169 0.930 . S
C1177 C1178 1.355 . S
C1177 C1179 1.415 . S
C1178 C1177 1.355 . S
C1178 C1180 1.419 . S
C1179 C1174 1.425 . S
C1179 C1176 1.409 . S
C1179 C1177 1.415 . S
C1180 H1170 0.930 . S
C1180 C1178 1.419 . S
C1180 C1181 1.362 . S
C1181 H1171 0.930 . S
C1181 C1174 1.409 . S
C1181 C1180 1.362 . S
H1182 C1188 0.930 . S
H1183 C1191 0.930 . S
H1184 C1192 0.930 . S
H1185 C1193 0.930 . S
H1186 C1196 0.930 . S
H1187 C1197 0.930 . S
C1188 H1182 0.930 . S
C1188 C1189 1.355 . S
C1188 C1190 1.415 . S
C1189 C1188 1.355 . S
C1189 C1191 1.419 . S
C1190 C1188 1.415 . S
C1190 C1195 1.425 . S
C1190 C1197 1.409 . S
C1191 H1183 0.930 . S
C1191 C1189 1.419 . S
C1191 C1192 1.362 . S
C1192 H1184 0.930 . S
C1192 C1191 1.362 . S
C1192 C1195 1.409 . S
C1193 H1185 0.930 . S
C1193 C1194 1.355 . S
C1193 C1195 1.415 . S
C1194 C1193 1.355 . S
C1194 C1196 1.419 . S
C1195 C1190 1.425 . S
C1195 C1192 1.409 . S
C1195 C1193 1.415 . S
C1196 H1186 0.930 . S
C1196 C1194 1.419 . S
C1196 C1197 1.362 . S
C1197 H1187 0.930 . S
C1197 C1190 1.409 . S
C1197 C1196 1.362 . S
H1198 C1204 0.930 . S
H1199 C1207 0.930 . S
H1200 C1208 0.930 . S
H1201 C1209 0.930 . S
H1202 C1212 0.930 . S
H1203 C1213 0.930 . S
C1204 H1198 0.930 . S
C1204 C1205 1.355 . S
C1204 C1206 1.415 . S
C1205 C1204 1.355 . S
C1205 C1207 1.419 . S
C1206 C1204 1.415 . S
C1206 C1211 1.425 . S
C1206 C1213 1.409 . S
C1207 H1199 0.930 . S
C1207 C1205 1.419 . S
C1207 C1208 1.362 . S
C1208 H1200 0.930 . S
C1208 C1207 1.362 . S
C1208 C1211 1.409 . S
C1209 H1201 0.930 . S
C1209 C1210 1.355 . S
C1209 C1211 1.415 . S
C1210 C1209 1.355 . S
C1210 C1212 1.419 . S
C1211 C1206 1.425 . S
C1211 C1208 1.409 . S
C1211 C1209 1.415 . S
C1212 H1202 0.930 . S
C1212 C1210 1.419 . S
C1212 C1213 1.362 . S
C1213 H1203 0.930 . S
C1213 C1206 1.409 . S
C1213 C1212 1.362 . S
H1214 C1220 0.930 . S
H1215 C1223 0.930 . S
H1216 C1224 0.930 . S
H1217 C1225 0.930 . S
H1218 C1228 0.930 . S
H1219 C1229 0.930 . S
C1220 H1214 0.930 . S
C1220 C1221 1.355 . S
C1220 C1222 1.415 . S
C1221 C1220 1.355 . S
C1221 C1223 1.419 . S
C1222 C1220 1.415 . S
C1222 C1227 1.425 . S
C1222 C1229 1.409 . S
C1223 H1215 0.930 . S
C1223 C1221 1.419 . S
C1223 C1224 1.362 . S
C1224 H1216 0.930 . S
C1224 C1223 1.362 . S
C1224 C1227 1.409 . S
C1225 H1217 0.930 . S
C1225 C1226 1.355 . S
C1225 C1227 1.415 . S
C1226 C1225 1.355 . S
C1226 C1228 1.419 . S
C1227 C1222 1.425 . S
C1227 C1224 1.409 . S
C1227 C1225 1.415 . S
C1228 H1218 0.930 . S
C1228 C1226 1.419 . S
C1228 C1229 1.362 . S
C1229 H1219 0.930 . S
C1229 C1222 1.409 . S
C1229 C1228 1.362 . S
H1230 C1236 0.930 . S
H1231 C1239 0.930 . S
H1232 C1240 0.930 . S
H1233 C1241 0.930 . S
H1234 C1244 0.930 . S
H1235 C1245 0.930 . S
C1236 H1230 0.930 . S
C1236 C1237 1.355 . S
C1236 C1238 1.415 . S
C1237 C1236 1.355 . S
C1237 C1239 1.419 . S
C1238 C1236 1.415 . S
C1238 C1243 1.425 . S
C1238 C1245 1.409 . S
C1239 H1231 0.930 . S
C1239 C1237 1.419 . S
C1239 C1240 1.362 . S
C1240 H1232 0.930 . S
C1240 C1239 1.362 . S
C1240 C1243 1.409 . S
C1241 H1233 0.930 . S
C1241 C1242 1.355 . S
C1241 C1243 1.415 . S
C1242 C1241 1.355 . S
C1242 C1244 1.419 . S
C1243 C1238 1.425 . S
C1243 C1240 1.409 . S
C1243 C1241 1.415 . S
C1244 H1234 0.930 . S
C1244 C1242 1.419 . S
C1244 C1245 1.362 . S
C1245 H1235 0.930 . S
C1245 C1238 1.409 . S
C1245 C1244 1.362 . S
H1246 C1252 0.930 . S
H1247 C1255 0.930 . S
H1248 C1256 0.930 . S
H1249 C1257 0.930 . S
H1250 C1260 0.930 . S
H1251 C1261 0.930 . S
C1252 H1246 0.930 . S
C1252 C1253 1.355 . S
C1252 C1254 1.415 . S
C1253 C1252 1.355 . S
C1253 C1255 1.419 . S
C1254 C1252 1.415 . S
C1254 C1259 1.425 . S
C1254 C1261 1.409 . S
C1255 H1247 0.930 . S
C1255 C1253 1.419 . S
C1255 C1256 1.362 . S
C1256 H1248 0.930 . S
C1256 C1255 1.362 . S
C1256 C1259 1.409 . S
C1257 H1249 0.930 . S
C1257 C1258 1.355 . S
C1257 C1259 1.415 . S
C1258 C1257 1.355 . S
C1258 C1260 1.419 . S
C1259 C1254 1.425 . S
C1259 C1256 1.409 . S
C1259 C1257 1.415 . S
C1260 H1250 0.930 . S
C1260 C1258 1.419 . S
C1260 C1261 1.362 . S
C1261 H1251 0.930 . S
C1261 C1254 1.409 . S
C1261 C1260 1.362 . S
H1262 C1268 0.930 . S
H1263 C1271 0.930 . S
H1264 C1272 0.930 . S
H1265 C1273 0.930 . S
H1266 C1276 0.930 . S
H1267 C1277 0.930 . S
C1268 H1262 0.930 . S
C1268 C1269 1.355 . S
C1268 C1270 1.415 . S
C1269 C1268 1.355 . S
C1269 C1271 1.419 . S
C1270 C1268 1.415 . S
C1270 C1275 1.425 . S
C1270 C1277 1.409 . S
C1271 H1263 0.930 . S
C1271 C1269 1.419 . S
C1271 C1272 1.362 . S
C1272 H1264 0.930 . S
C1272 C1271 1.362 . S
C1272 C1275 1.409 . S
C1273 H1265 0.930 . S
C1273 C1274 1.355 . S
C1273 C1275 1.415 . S
C1274 C1273 1.355 . S
C1274 C1276 1.419 . S
C1275 C1270 1.425 . S
C1275 C1272 1.409 . S
C1275 C1273 1.415 . S
C1276 H1266 0.930 . S
C1276 C1274 1.419 . S
C1276 C1277 1.362 . S
C1277 H1267 0.930 . S
C1277 C1270 1.409 . S
C1277 C1276 1.362 . S
C421 C317 1.581 . S
C426 C18 1.585 . S
C437 C43 1.530 . S
C442 C342 1.529 . S
C453 C64 1.531 . S
C458 C296 1.582 . S
C469 C66 1.519 . S
C474 C181 1.519 . S
C485 C204 1.520 . S
C490 C20 1.520 . S
C501 C41 1.551 . S
C506 C158 1.575 . S
C517 C87 1.502 . S
C522 C249 1.486 . S
C533 C111 1.468 . S
C538 C272 1.443 . S
C549 C226 1.468 . S
C554 C133 1.493 . S
C565 C387 1.494 . S
C570 C134 1.453 . S
C581 C88 1.482 . S
C586 C409 1.496 . S
C597 C363 1.496 . S
C602 C110 1.502 . S
C613 C202 1.555 . S
C618 C319 1.586 . S
C629 C156 1.616 . S
C634 C340 1.562 . S
C645 C179 1.591 . S
C650 C294 1.589 . S
C661 C225 1.510 . S
C666 C386 1.505 . S
C677 C410 1.494 . S
C682 C248 1.503 . S
C693 C364 1.461 . S
C698 C271 1.493 . S
C709 C19 1.396 . S
C714 C112 1.425 . S
C725 C136 1.419 . S
C730 C44 1.407 . S
C741 C90 1.401 . S
C746 C65 1.419 . S
C757 C113 1.430 . S
C762 C67 1.424 . S
C773 C135 1.445 . S
C778 C21 1.426 . S
C789 C89 1.443 . S
C794 C42 1.447 . S
C805 C251 1.436 . S
C810 C159 1.410 . S
C821 C274 1.385 . S
C826 C182 1.465 . S
C837 C228 1.438 . S
C842 C205 1.410 . S
C853 C250 1.443 . S
C858 C203 1.385 . S
C869 C273 1.428 . S
C874 C157 1.419 . S
C885 C227 1.418 . S
C890 C180 1.391 . S
C901 C388 1.425 . S
C906 C295 1.421 . S
C917 C412 1.358 . S
C922 C320 1.437 . S
C933 C341 1.370 . S
C938 C366 1.439 . S
C949 C343 1.429 . S
C954 C389 1.454 . S
C965 C297 1.413 . S
C970 C411 1.444 . S
C981 C365 1.440 . S
C986 C318 1.434 . S
C997 C16 1.381 . S
C1002 C17 1.383 . S
C1013 C40 1.374 . S
C1018 C39 1.370 . S
C1029 C62 1.414 . S
C1034 C63 1.417 . S
C1045 C85 1.380 . S
C1050 C86 1.387 . S
C1061 C108 1.420 . S
C1066 C109 1.422 . S
C1077 C132 1.412 . S
C1082 C131 1.409 . S
C1093 C154 1.416 . S
C1098 C155 1.416 . S
C1109 C178 1.382 . S
C1114 C177 1.380 . S
C1125 C200 1.369 . S
C1130 C201 1.372 . S
C1141 C223 1.388 . S
C1146 C224 1.391 . S
C1157 C246 1.378 . S
C1162 C247 1.384 . S
C1173 C269 1.403 . S
C1178 C270 1.407 . S
C1189 C293 1.380 . S
C1194 C292 1.379 . S
C1205 C316 1.400 . S
C1210 C315 1.395 . S
C1221 C338 1.385 . S
C1226 C339 1.390 . S
C1237 C362 1.421 . S
C1242 C361 1.419 . S
C1253 C384 1.392 . S
C1258 C385 1.398 . S
C1269 C407 1.378 . S
C1274 C408 1.384 . S
