# Generated by pormake.
# Topology rkf, (6)-cn, num edge types: 1
# Building blocks:
#     Node 0, Type 0, BuildingBlock: PAMTOO_clean_sbu_0, # of connection points: 6
#     Node 1, Type 0, BuildingBlock: PAMTOO_clean_sbu_0, # of connection points: 6
#     Node 2, Type 0, BuildingBlock: PAMTOO_clean_sbu_0, # of connection points: 6
#     Node 3, Type 0, BuildingBlock: PAMTOO_clean_sbu_0, # of connection points: 6
#     Node 4, Type 0, BuildingBlock: PAMTOO_clean_sbu_0, # of connection points: 6
#     Node 5, Type 0, BuildingBlock: PAMTOO_clean_sbu_0, # of connection points: 6
#     Edge 6, Type (0, 0), BuildingBlock: OJICUG_clean_linker_0, # of connection points: 2
#     Edge 7, Type (0, 0), BuildingBlock: OJICUG_clean_linker_0, # of connection points: 2
#     Edge 8, Type (0, 0), BuildingBlock: OJICUG_clean_linker_0, # of connection points: 2
#     Edge 9, Type (0, 0), BuildingBlock: OJICUG_clean_linker_0, # of connection points: 2
#     Edge 10, Type (0, 0), BuildingBlock: OJICUG_clean_linker_0, # of connection points: 2
#     Edge 11, Type (0, 0), BuildingBlock: OJICUG_clean_linker_0, # of connection points: 2
#     Edge 12, Type (0, 0), BuildingBlock: OJICUG_clean_linker_0, # of connection points: 2
#     Edge 13, Type (0, 0), BuildingBlock: OJICUG_clean_linker_0, # of connection points: 2
#     Edge 14, Type (0, 0), BuildingBlock: OJICUG_clean_linker_0, # of connection points: 2
#     Edge 15, Type (0, 0), BuildingBlock: OJICUG_clean_linker_0, # of connection points: 2
#     Edge 16, Type (0, 0), BuildingBlock: OJICUG_clean_linker_0, # of connection points: 2
#     Edge 17, Type (0, 0), BuildingBlock: OJICUG_clean_linker_0, # of connection points: 2
#     Edge 18, Type (0, 0), BuildingBlock: OJICUG_clean_linker_0, # of connection points: 2
#     Edge 19, Type (0, 0), BuildingBlock: OJICUG_clean_linker_0, # of connection points: 2
#     Edge 20, Type (0, 0), BuildingBlock: OJICUG_clean_linker_0, # of connection points: 2
#     Edge 21, Type (0, 0), BuildingBlock: OJICUG_clean_linker_0, # of connection points: 2
#     Edge 22, Type (0, 0), BuildingBlock: OJICUG_clean_linker_0, # of connection points: 2
#     Edge 23, Type (0, 0), BuildingBlock: OJICUG_clean_linker_0, # of connection points: 2
# Relax obj value: 1.160
# Max RMSD: 0.277
# Mean RMSD: 0.267
data_MOF--net-rkf--node1-PAMTOO_clean_sbu_0--edge1-OJICUG_clean_linker_0
_symmetry_space_group_name_H-M    P1
_symmetry_Int_Tables_number       1
_symmetry_cell_setting            triclinic
loop_
_symmetry_equiv_pos_as_xyz
'x, y, z'
_cell_length_a     20.345482
_cell_length_b     20.481648
_cell_length_c     30.59171
_cell_angle_alpha  90.877476
_cell_angle_beta   89.546254
_cell_angle_gamma 118.98157
loop_
_atom_site_label
_atom_site_type_symbol
_atom_site_fract_x
_atom_site_fract_y
_atom_site_fract_z
_atom_type_partial_charge
Dy0 Dy 0.18234 -0.04386 0.27846 0.0
Dy1 Dy 0.16105 0.08433 1.23044 0.0
C2 C 0.02904 0.95189 0.27572 0.0
O3 O 0.12226 0.90195 1.21476 0.0
O4 O 0.16308 0.00981 1.17562 0.0
O5 O 0.14976 0.85071 0.3099 0.0
O6 O 0.26687 0.92703 0.29638 0.0
O7 O 0.28262 0.13546 1.24887 0.0
O8 O 0.27811 0.02577 1.23455 0.0
O9 O 0.15903 0.112 0.30176 0.0
O10 O 0.21271 0.0463 0.33101 0.0
O11 O 0.08116 0.12189 1.21821 0.0
O12 O 0.19234 0.17886 1.18851 0.0
C13 C 0.13028 0.93612 1.17707 0.0
O14 O 0.07548 0.94904 0.30393 0.0
O15 O 0.05417 -0.02158 1.23717 0.0
C16 C 0.24027 0.86482 0.36231 0.0
C17 C 0.27326 0.85796 0.45071 0.0
C18 C 0.24802 0.90746 0.43721 0.0
C19 C 0.23123 0.91035 0.39358 0.0
C20 C 0.27128 0.81986 0.37465 0.0
C21 C 0.28709 0.81587 0.41877 0.0
C22 C 0.21953 0.86716 0.31684 0.0
C23 C 0.31796 0.09751 1.24154 0.0
C24 C 0.1892 0.09616 0.33511 0.0
C25 C 0.13298 0.24985 1.20857 0.0
C26 C 0.14544 0.39025 1.2272 0.0
C27 C 0.18635 0.3645 1.25177 0.0
C28 C 0.18021 0.2946 1.24245 0.0
C29 C 0.08718 0.27207 1.18692 0.0
C30 C 0.09309 0.34137 1.19612 0.0
C31 C 0.12886 0.17896 1.19575 0.0
H32 H 0.23502 0.93959 0.46077 0.0
H33 H 0.20829 0.94608 0.3845 0.0
H34 H 0.28028 0.78569 0.35055 0.0
H35 H 0.30589 0.77687 0.42827 0.0
H36 H 0.22627 0.40007 0.27629 0.0
H37 H 0.21417 0.27671 0.26049 0.0
H38 H 0.04898 0.23713 1.16147 0.0
H39 H 0.06091 0.35858 1.17593 0.0
Dy40 Dy 0.15674 0.34469 0.5681 0.0
Dy41 Dy 0.25923 0.27512 0.60492 0.0
C42 C 0.08195 0.18951 0.61871 0.0
O43 O 0.13449 0.33841 0.64012 0.0
O44 O 0.23632 0.3296 0.66473 0.0
O45 O 0.08247 0.35237 0.52076 0.0
O46 O 0.12628 0.43132 0.57486 0.0
O47 O 0.32437 0.36414 0.55732 0.0
O48 O 0.2726 0.43519 0.57693 0.0
O49 O 0.21417 0.21333 0.54123 0.0
O50 O 0.18796 0.29799 0.50825 0.0
O51 O 0.36847 0.30888 0.63215 0.0
O52 O 0.29449 0.19259 0.614 0.0
C53 C 0.17683 0.33846 0.67241 0.0
O54 O 0.07478 0.23092 0.58871 0.0
O55 O 0.14693 0.19773 0.63175 0.0
C56 C 0.11461 0.47705 0.50774 0.0
C57 C 0.15714 0.5872 0.44339 0.0
C58 C 0.08296 0.5504 0.46002 0.0
C59 C 0.06214 0.49606 0.49192 0.0
C60 C 0.18957 0.5165 0.49378 0.0
C61 C 0.21099 0.57192 0.46231 0.0
C62 C 0.09054 0.41468 0.53778 0.0
C63 C 0.3284 0.42922 0.56047 0.0
C64 C 0.19914 0.2395 0.50581 0.0
C65 C 0.3819 0.21709 0.67 0.0
C66 C 0.41016 0.14948 0.74084 0.0
C67 C 0.44603 0.15509 0.70059 0.0
C68 C 0.43189 0.18876 0.66534 0.0
C69 C 0.35055 0.21697 0.71094 0.0
C70 C 0.36496 0.18359 0.74632 0.0
C71 C 0.35887 0.24103 0.63111 0.0
H72 H 0.03894 0.55909 0.44641 0.0
H73 H 0.00419 0.46649 0.50275 0.0
H74 H 0.23076 0.50235 0.50602 0.0
H75 H 0.26879 0.59984 0.45129 0.0
H76 H 0.48078 0.12888 0.69565 0.0
H77 H 0.45679 0.18905 0.63384 0.0
H78 H 0.31191 0.23893 0.7149 0.0
H79 H 0.33566 0.17887 0.77684 0.0
Dy80 Dy 0.06251 0.35605 0.95429 0.0
Dy81 Dy 0.92426 0.20898 0.91345 0.0
C82 C 0.05905 0.20514 0.95109 0.0
O83 O 0.0996 0.34503 0.88523 0.0
O84 O -0.01715 0.27731 0.85432 0.0
O85 O 0.17827 0.42174 0.97526 0.0
O86 O 0.1058 0.47159 0.97177 0.0
O87 O 0.87394 0.28234 0.92965 0.0
O88 O -0.01404 0.38738 0.91948 0.0
O89 O 0.89898 0.19613 0.98561 0.0
O90 O -0.01831 0.31342 1.01202 0.0
O91 O 0.8289 0.13818 0.8732 0.0
O92 O 0.88578 0.09113 0.91127 0.0
C93 C 0.05637 0.3187 0.85016 0.0
O94 O 0.06454 0.25457 0.98035 0.0
O95 O 0.03294 0.2089 0.91335 0.0
C96 C 0.19705 0.51787 1.02702 0.0
C97 C 0.22395 0.5718 1.11386 0.0
C98 C 0.24822 0.5216 1.09863 0.0
C99 C 0.23501 0.49504 1.05572 0.0
C100 C 0.17913 0.57331 1.04085 0.0
C101 C 0.19178 0.59955 1.08409 0.0
C102 C 0.17083 0.48058 0.98411 0.0
C103 C 0.91301 0.35471 0.9247 0.0
C104 C 0.92377 0.24582 1.01775 0.0
C105 C 0.75652 0.01875 0.90294 0.0
C106 C 0.60504 0.91722 0.9149 0.0
C107 C 0.6394 -0.01743 0.94089 0.0
C108 C 0.71494 0.03416 0.93419 0.0
C109 C 0.72675 0.94753 0.88428 0.0
C110 C 0.65146 0.89625 0.89079 0.0
C111 C 0.82816 0.07754 0.88699 0.0
H112 H 0.27235 0.49805 1.12067 0.0
H113 H 0.2509 0.45358 1.04587 0.0
H114 H 0.15126 0.59315 1.01893 0.0
H115 H 0.1725 0.63801 1.09492 0.0
H116 H 0.6057 -0.00124 0.9612 0.0
H117 H 0.73879 0.08827 0.95036 0.0
H118 H 0.75959 0.93395 0.86151 0.0
H119 H 0.62812 0.84528 0.8714 0.0
Dy120 Dy 0.65006 0.02472 0.25439 0.0
Dy121 Dy 0.77363 0.18011 0.29207 0.0
C122 C 0.81143 0.044 0.27675 0.0
O123 O 0.67165 -0.00572 0.32079 0.0
O124 O 0.72041 0.11063 0.35264 0.0
O125 O 0.59437 0.91435 1.22517 0.0
O126 O 0.53015 -0.0313 1.24501 0.0
O127 O 0.67332 0.18541 0.26548 0.0
O128 O 0.60157 0.07879 0.29739 0.0
O129 O 0.81732 0.18305 1.22461 0.0
O130 O 0.70523 0.09716 1.19434 0.0
O131 O 0.86738 0.25723 0.33158 0.0
O132 O 0.80048 0.29571 0.29701 0.0
C133 C 0.69551 0.03793 0.35569 0.0
O134 O 0.74553 0.00209 0.25853 0.0
O135 O 0.8336 0.11258 0.29125 0.0
C136 C 0.48419 0.88544 1.18594 0.0
C137 C 0.40714 0.82057 1.10812 0.0
C138 C 0.47652 0.88702 1.10723 0.0
C139 C 0.51494 0.91918 1.14598 0.0
C140 C 0.4114 0.82458 1.1874 0.0
C141 C 0.3727 0.79255 1.14865 0.0
C142 C 0.52853 0.91076 1.226 0.0
C143 C 0.60882 0.14094 0.28305 0.0
C144 C 0.77612 0.15053 1.18993 0.0
C145 C 0.92959 0.38265 0.3065 0.0
C146 C 0.0597 0.52366 0.30158 0.0
C147 C -0.01032 0.51442 0.28814 0.0
C148 C 0.92506 0.44472 0.29114 0.0
C149 C 0.00041 0.38962 0.31434 0.0
C150 C 0.06453 0.45904 0.31201 0.0
C151 C 0.86088 0.31475 0.31984 0.0
H152 H 0.50497 0.90977 1.0766 0.0
H153 H 0.5706 -0.0327 1.14457 0.0
H154 H 0.38637 0.79912 1.2183 0.0
H155 H 0.31911 0.74187 1.1502 0.0
H156 H -0.01629 0.56216 0.27904 0.0
H157 H 0.87103 0.44063 0.28427 0.0
H158 H 0.00614 0.34269 0.32553 0.0
H159 H 0.11673 0.46219 0.32237 0.0
Dy160 Dy 0.64232 0.84521 0.61489 0.0
Dy161 Dy 0.76838 0.80469 0.57576 0.0
C162 C 0.81227 0.95008 0.63813 0.0
O163 O 0.69086 0.91985 0.55674 0.0
O164 O 0.72993 0.84748 0.51881 0.0
O165 O 0.58714 0.91121 0.62521 0.0
O166 O 0.52702 0.79173 0.63638 0.0
O167 O 0.66021 0.70049 0.57704 0.0
O168 O 0.5979 0.76211 0.56067 0.0
O169 O 0.78055 0.79861 0.6477 0.0
O170 O 0.67103 0.79328 0.67271 0.0
O171 O 0.86315 0.83065 0.5338 0.0
O172 O 0.81101 0.72676 0.56959 0.0
C173 C 0.71155 0.90117 0.51984 0.0
O174 O 0.74305 0.93282 0.64798 0.0
O175 O 0.83095 0.91512 0.60824 0.0
C176 C 0.49642 0.86646 0.68196 0.0
C177 C 0.4591 0.87572 0.76946 0.0
C178 C 0.51738 0.93818 0.74885 0.0
C179 C 0.53588 0.93359 0.70553 0.0
C180 C 0.43246 0.80718 0.70066 0.0
C181 C 0.41386 0.81174 0.74421 0.0
C182 C 0.52588 0.85484 0.64024 0.0
C183 C 0.60105 0.70028 0.56134 0.0
C184 C 0.73343 0.78941 0.6797 0.0
C185 C -0.05658 0.78664 0.56137 0.0
C186 C 0.08873 0.80552 0.57526 0.0
C187 C 0.02458 0.73752 0.58527 0.0
C188 C -0.04736 0.72793 0.57787 0.0
C189 C 0.00696 0.85693 0.55632 0.0
C190 C 0.07863 0.86632 0.56325 0.0
C191 C 0.86875 0.77294 0.54657 0.0
H192 H 0.55385 -0.0115 0.76709 0.0
H193 H 0.58454 -0.0191 0.69174 0.0
H194 H 0.40001 0.75545 0.68258 0.0
H195 H 0.3676 0.7634 0.75894 0.0
H196 H 0.02991 0.68993 0.59552 0.0
H197 H 0.90444 0.67339 0.58282 0.0
H198 H 0.00195 0.90383 0.54436 0.0
H199 H 0.12584 0.91973 0.55488 0.0
Dy200 Dy -0.03569 0.75152 0.91125 0.0
Dy201 Dy 0.81702 0.72252 0.95979 0.0
C202 C -0.04792 0.89329 0.94531 0.0
O203 O 0.00165 0.78538 0.98154 0.0
O204 O 0.89184 0.75305 1.01872 0.0
O205 O 0.04337 0.71017 0.91741 0.0
O206 O 0.04487 0.77355 0.86039 0.0
O207 O 0.83635 0.62366 0.96721 0.0
O208 O 0.86896 0.63877 0.89809 0.0
O209 O 0.79489 0.7338 0.8877 0.0
O210 O 0.91156 0.77969 0.85646 0.0
O211 O 0.74132 0.73577 1.00391 0.0
O212 O 0.69976 0.63877 0.96051 0.0
C213 C -0.03469 0.78118 1.01821 0.0
O214 O -0.00595 0.86843 0.92639 0.0
O215 O 0.88198 0.8485 0.95771 0.0
C216 C 0.1596 0.79512 0.88703 0.0
C217 C 0.2968 0.9139 0.86164 0.0
C218 C 0.25198 0.92555 0.89271 0.0
C219 C 0.18356 0.86611 0.90547 0.0
C220 C 0.20963 0.78075 0.86285 0.0
C221 C 0.27868 0.83989 0.85073 0.0
C222 C 0.07951 0.74485 0.88224 0.0
C223 C 0.84465 0.59436 0.93097 0.0
C224 C 0.84021 0.76128 0.85365 0.0
C225 C 0.61641 0.68519 0.97745 0.0
C226 C 0.48488 0.69768 0.97862 0.0
C227 C 0.48041 0.62736 0.97329 0.0
C228 C 0.54588 0.62116 0.9732 0.0
C229 C 0.62122 0.7558 0.97649 0.0
C230 C 0.55598 0.76191 0.9774 0.0
C231 C 0.68242 0.67704 0.98822 0.0
H232 H 0.26383 -0.01887 0.90262 0.0
H233 H 0.1453 0.87751 0.92482 0.0
H234 H 0.19203 0.72571 0.84901 0.0
H235 H 0.31257 0.82798 0.82813 0.0
H236 H 0.42643 0.57697 0.97418 0.0
H237 H 0.54109 0.56611 0.97322 0.0
H238 H 0.675 0.80626 0.97888 0.0
H239 H 0.56173 0.81679 0.98264 0.0
C240 C 0.84836 0.94719 0.25862 0.0
C241 C 0.8604 0.01055 0.28317 0.0
H242 H 0.89297 0.87596 1.23867 0.0
C243 C 0.91909 0.04087 0.31389 0.0
H244 H 0.80282 0.92171 1.23522 0.0
C245 C -0.03113 0.01236 0.3171 0.0
C246 C -0.0387 0.95437 0.28898 0.0
H247 H 0.92842 0.08844 0.33414 0.0
H248 H 0.01744 0.04072 0.3382 0.0
C249 C 0.8988 0.91972 0.26128 0.0
C250 C -0.06098 0.01111 0.66724 0.0
C251 C 0.87418 0.0157 0.65722 0.0
H252 H 0.0585 0.06416 0.66111 0.0
C253 C 0.87932 0.08441 0.6478 0.0
H254 H -0.06487 -0.04204 0.67529 0.0
C255 C -0.05063 0.14443 0.63892 0.0
C256 C 0.01352 0.13529 0.64019 0.0
H257 H 0.8295 0.08871 0.64051 0.0
H258 H -0.04764 0.19539 0.62706 0.0
C259 C 0.00919 0.07113 0.65839 0.0
C260 C -0.0453 0.00532 0.98255 0.0
C261 C -0.01331 -0.02504 0.95325 0.0
H262 H -0.04322 0.10492 1.00741 0.0
C263 C 0.05333 0.02373 0.93131 0.0
H264 H 0.90422 -0.03073 1.00059 0.0
C265 C 0.0833 0.10088 0.93541 0.0
C266 C 0.04846 0.13119 0.96224 0.0
H267 H 0.08022 0.00249 0.90891 0.0
H268 H 0.13042 0.13684 0.91492 0.0
C269 C -0.01417 0.08296 0.98731 0.0
C270 C 0.24691 0.52142 1.22027 0.0
C271 C 0.16961 0.47125 1.2248 0.0
H272 H 0.3291 0.60491 1.17929 0.0
C273 C 0.11865 0.4933 1.20898 0.0
H274 H 0.28873 0.50935 1.23391 0.0
C275 C 0.1424 0.54834 1.17728 0.0
C276 C 0.21634 0.57914 1.16159 0.0
H277 H 0.05882 0.45871 1.21418 0.0
H278 H 0.09971 0.55299 1.15877 0.0
C279 C 0.2705 0.57717 1.18891 0.0
C280 C 0.12348 0.6536 0.38717 0.0
C281 C 0.17239 0.62768 0.4012 0.0
H282 H 0.04868 0.64482 0.33648 0.0
C283 C 0.21539 0.61569 0.36891 0.0
H284 H 0.09535 0.6718 0.41062 0.0
C285 C 0.19132 0.60512 0.32543 0.0
C286 C 0.12052 0.5983 0.31661 0.0
H287 H 0.25826 0.60131 0.37738 0.0
H288 H 0.21625 0.58248 0.30261 0.0
C289 C 0.09769 0.63943 0.34407 0.0
C290 C 0.48888 0.81911 0.87902 0.0
C291 C 0.52779 0.89063 0.89832 0.0
H292 H 0.43602 0.75802 0.82095 0.0
C293 C 0.51173 0.94608 0.88357 0.0
H294 H 0.49695 0.77394 0.89088 0.0
C295 C 0.48036 0.93851 0.84245 0.0
C296 C 0.45814 0.87289 0.81778 0.0
H297 H 0.53735 0.00114 0.89856 0.0
H298 H 0.48354 -0.01233 0.82783 0.0
C299 C 0.45446 0.81033 0.83848 0.0
C300 C 0.39457 0.79997 1.0271 0.0
C301 C 0.38529 0.77074 1.0693 0.0
H302 H 0.43109 0.79586 0.96208 0.0
C303 C 0.37978 0.70031 1.07439 0.0
H304 H 0.39794 0.85378 1.02214 0.0
C305 C 0.39666 0.66629 1.0398 0.0
C306 C 0.423 0.70425 1.0003 0.0
H307 H 0.37433 0.67685 1.10653 0.0
H308 H 0.40242 0.61766 1.04693 0.0
C309 C 0.41328 0.76657 0.99256 0.0
C310 C 0.16018 0.7484 0.54079 0.0
C311 C 0.16179 0.80815 0.56505 0.0
H312 H 0.20086 0.71879 0.48395 0.0
C313 C 0.22821 0.87748 0.56393 0.0
H314 H 0.11214 0.69295 0.54185 0.0
C315 C 0.27922 0.89229 0.52967 0.0
C316 C 0.26404 0.83714 0.49743 0.0
H317 H 0.23396 0.92368 0.58431 0.0
H318 H 0.32179 0.94956 0.52413 0.0
C319 C 0.21185 0.76308 0.50713 0.0
C320 C 0.38208 0.05085 0.84767 0.0
C321 C 0.34656 -0.02383 0.83265 0.0
H322 H 0.43067 0.166 0.82981 0.0
C323 C 0.34794 -0.03803 0.78754 0.0
H324 H 0.38422 0.06409 0.8822 0.0
C325 C 0.37753 0.02018 0.75811 0.0
C326 C 0.40423 0.09383 0.77279 0.0
H327 H 0.32075 0.90582 0.77412 0.0
H328 H 0.37212 0.0066 0.72348 0.0
C329 C 0.40959 0.10929 0.81785 0.0
C330 C 0.45682 0.16526 1.22692 0.0
C331 C 0.39636 0.1263 0.25558 0.0
H332 H 0.57368 0.20251 1.21373 0.0
C333 C 0.40945 0.10256 0.29574 0.0
H334 H 0.44755 0.18307 1.19549 0.0
C335 C 0.48048 0.1125 0.30584 0.0
C336 C 0.54023 0.14721 0.27619 0.0
H337 H 0.36358 0.07228 0.31829 0.0
H338 H 0.48775 0.08952 0.33595 0.0
C339 C 0.52874 0.17632 1.23738 0.0
C340 C 0.46703 0.49533 0.55238 0.0
C341 C 0.39864 0.49638 0.55098 0.0
H342 H 0.58655 0.56081 0.5568 0.0
C343 C 0.3983 0.56393 0.54547 0.0
H344 H 0.46841 0.44354 0.55635 0.0
C345 C 0.46539 0.63043 0.54501 0.0
C346 C 0.53355 0.63021 0.55104 0.0
H347 H 0.34619 0.56596 0.54394 0.0
H348 H 0.46316 0.6821 0.54306 0.0
C349 C 0.53441 0.56222 0.55272 0.0
C350 C 0.85085 0.41863 0.96333 0.0
C351 C 0.87699 0.40205 0.92429 0.0
H352 H 0.81993 0.49329 0.99646 0.0
C353 C 0.88342 0.4431 0.88685 0.0
H354 H 0.84708 0.38847 0.99287 0.0
C355 C 0.86736 0.50202 0.8887 0.0
C356 C 0.84646 0.52272 0.9284 0.0
H357 H 0.90457 0.43197 0.85662 0.0
H358 H 0.87567 0.5341 0.85936 0.0
C359 C 0.83588 0.47883 0.96545 0.0
C360 C 0.17299 0.19034 0.38286 0.0
C361 C 0.19376 0.13392 0.37876 0.0
H362 H 0.15849 0.26749 0.42501 0.0
C363 C 0.21658 0.11305 0.41707 0.0
H364 H 0.15492 0.20832 0.35444 0.0
C365 C 0.21794 0.14681 0.45791 0.0
C366 C 0.19714 0.20321 0.46199 0.0
H367 H 0.23293 0.07003 0.41569 0.0
H368 H 0.23564 0.1286 0.48639 0.0
C369 C 0.17495 0.22451 0.42362 0.0
C370 C 0.19478 0.35005 0.75564 0.0
C371 C 0.14994 0.33944 0.71846 0.0
H372 H 0.2016 0.35365 0.82607 0.0
C373 C 0.07552 0.32524 0.72554 0.0
H374 H 0.25206 0.36066 0.7518 0.0
C375 C 0.04632 0.32002 0.76792 0.0
C376 C 0.09059 0.33004 0.80512 0.0
H377 H 0.03844 0.31594 0.69816 0.0
H378 H -0.01165 0.30742 0.77147 0.0
C379 C 0.16576 0.34621 0.79834 0.0
C380 C 0.91778 0.26472 1.10012 0.0
C381 C 0.88494 0.22311 1.06171 0.0
H382 H 0.91034 0.27483 1.16973 0.0
C383 C 0.81447 0.15783 1.06589 0.0
H384 H -0.02819 0.31494 1.0987 0.0
C385 C 0.77838 0.13497 1.10687 0.0
C386 C 0.81186 0.17593 1.14537 0.0
H387 H 0.78681 0.12397 1.03732 0.0
H388 H 0.72469 0.08438 1.10841 0.0
C389 C 0.88222 0.24132 1.14114 0.0
C390 C 0.70052 0.93587 0.39823 0.0
C391 C 0.69889 0.00396 0.39829 0.0
H392 H 0.70713 0.85138 0.43556 0.0
C393 C 0.703 0.03889 0.43896 0.0
H394 H 0.69854 0.90752 0.36768 0.0
C395 C 0.70701 0.0058 0.47832 0.0
C396 C 0.70891 0.93775 0.47809 0.0
H397 H 0.70232 0.09142 0.44044 0.0
H398 H 0.70917 0.0339 0.50899 0.0
C399 C 0.7061 0.90373 0.43733 0.0
C400 C 0.71145 0.7663 0.76255 0.0
C401 C 0.75701 0.78027 0.72503 0.0
H402 H 0.70092 0.74895 0.83237 0.0
C403 C 0.82937 0.78843 0.73102 0.0
H404 H 0.65573 0.76018 0.75967 0.0
C405 C 0.8554 0.78296 0.77237 0.0
C406 C 0.81028 0.76841 0.80991 0.0
H407 H 0.86716 0.79986 0.70356 0.0
H408 H 0.91146 0.7897 0.77467 0.0
C409 C 0.73755 0.75997 0.80438 0.0
C410 C -0.01949 0.78998 1.10103 0.0
C411 C 0.00998 0.81615 1.05916 0.0
H412 H -0.00377 0.80533 1.17074 0.0
C413 C 0.08169 0.87975 1.05667 0.0
H414 H 0.92551 0.74151 1.10436 0.0
C415 C 0.12136 0.91757 1.09472 0.0
C416 C 0.09188 0.89162 1.13659 0.0
H417 H 0.10606 0.90223 1.02512 0.0
H418 H 0.17499 -0.03221 1.09135 0.0
C419 C 0.0214 0.82642 1.13915 0.0
loop_
_geom_bond_atom_site_label_1
_geom_bond_atom_site_label_2
_geom_bond_distance
_geom_bond_site_symmetry_2
_ccdc_geom_bond_type
Dy0 O3 2.307 1_554 S
Dy0 O5 2.395 . S
Dy0 O6 2.379 . S
Dy0 O8 2.339 . S
Dy0 O10 2.298 1_565 S
Dy0 O14 2.275 . S
Dy0 C22 2.738 . S
Dy1 O4 2.287 1_544 S
Dy1 O7 2.282 . S
Dy1 O9 2.327 . S
Dy1 O11 2.379 1_554 S
Dy1 O12 2.362 1_554 S
Dy1 O15 2.341 . S
Dy1 C31 2.720 1_554 S
C2 O14 1.254 1_545 S
C2 O15 1.257 . S
O3 Dy0 2.307 1_556 S
O3 C13 1.266 . S
O4 Dy1 2.287 1_566 S
O4 C13 1.236 . S
O5 Dy0 2.395 . S
O5 C22 1.255 . S
O6 Dy0 2.379 . S
O6 C22 1.249 . S
O7 Dy1 2.282 . S
O7 C23 1.254 1_545 S
O8 Dy0 2.339 . S
O8 C23 1.257 . S
O9 Dy1 2.327 . S
O9 C24 1.266 . S
O10 Dy0 2.298 1_545 S
O10 C24 1.236 . S
O11 Dy1 2.379 1_556 S
O11 C31 1.255 . S
O12 Dy1 2.362 1_556 S
O12 C31 1.249 . S
C13 O3 1.266 . S
C13 O4 1.236 . S
O14 Dy0 2.275 . S
O14 C2 1.254 1_565 S
O15 Dy1 2.341 . S
O15 C2 1.257 . S
C16 C19 1.344 . S
C16 C20 1.328 . S
C16 C22 1.516 . S
C17 C18 1.304 . S
C17 C21 1.323 . S
C18 C17 1.304 . S
C18 C19 1.371 . S
C18 H32 0.930 1_455 S
C19 C16 1.344 . S
C19 C18 1.371 . S
C19 H33 0.931 . S
C20 C16 1.328 . S
C20 C21 1.433 . S
C20 H34 0.931 . S
C21 C17 1.323 . S
C21 C20 1.433 . S
C21 H35 0.933 . S
C22 Dy0 2.738 . S
C22 O5 1.255 . S
C22 O6 1.249 . S
C22 C16 1.516 . S
C23 O7 1.254 1_565 S
C23 O8 1.257 . S
C24 O9 1.266 . S
C24 O10 1.236 . S
C25 C28 1.344 . S
C25 C29 1.328 . S
C25 C31 1.516 . S
C26 C27 1.304 . S
C26 C30 1.323 . S
C27 C26 1.304 . S
C27 C28 1.371 . S
C27 H36 0.930 . S
C28 C25 1.344 . S
C28 C27 1.371 . S
C28 H37 0.931 . S
C29 C25 1.328 . S
C29 C30 1.433 . S
C29 H38 0.931 . S
C30 C26 1.323 . S
C30 C29 1.433 . S
C30 H39 0.933 . S
C31 Dy1 2.720 1_556 S
C31 O11 1.255 . S
C31 O12 1.249 . S
C31 C25 1.516 . S
H32 C18 0.930 1_655 S
H33 C19 0.931 . S
H34 C20 0.931 . S
H35 C21 0.933 . S
H36 C27 0.930 . S
H37 C28 0.931 . S
H38 C29 0.931 . S
H39 C30 0.933 . S
Dy40 O43 2.307 . S
Dy40 O45 2.395 . S
Dy40 O46 2.379 . S
Dy40 O48 2.339 . S
Dy40 O50 2.298 . S
Dy40 O54 2.275 . S
Dy40 C62 2.738 . S
Dy41 O44 2.298 . S
Dy41 O47 2.275 . S
Dy41 O49 2.307 . S
Dy41 O51 2.395 . S
Dy41 O52 2.379 . S
Dy41 O55 2.339 . S
Dy41 C71 2.738 . S
C42 O54 1.254 . S
C42 O55 1.257 . S
O43 Dy40 2.307 . S
O43 C53 1.266 . S
O44 Dy41 2.298 . S
O44 C53 1.236 . S
O45 Dy40 2.395 . S
O45 C62 1.255 . S
O46 Dy40 2.379 . S
O46 C62 1.249 . S
O47 Dy41 2.275 . S
O47 C63 1.254 . S
O48 Dy40 2.339 . S
O48 C63 1.257 . S
O49 Dy41 2.307 . S
O49 C64 1.266 . S
O50 Dy40 2.298 . S
O50 C64 1.236 . S
O51 Dy41 2.395 . S
O51 C71 1.255 . S
O52 Dy41 2.379 . S
O52 C71 1.249 . S
C53 O43 1.266 . S
C53 O44 1.236 . S
O54 Dy40 2.275 . S
O54 C42 1.254 . S
O55 Dy41 2.339 . S
O55 C42 1.257 . S
C56 C59 1.344 . S
C56 C60 1.328 . S
C56 C62 1.516 . S
C57 C58 1.304 . S
C57 C61 1.323 . S
C58 C57 1.304 . S
C58 C59 1.371 . S
C58 H72 0.930 . S
C59 C56 1.344 . S
C59 C58 1.371 . S
C59 H73 0.931 . S
C60 C56 1.328 . S
C60 C61 1.433 . S
C60 H74 0.931 . S
C61 C57 1.323 . S
C61 C60 1.433 . S
C61 H75 0.933 . S
C62 Dy40 2.738 . S
C62 O45 1.255 . S
C62 O46 1.249 . S
C62 C56 1.516 . S
C63 O47 1.254 . S
C63 O48 1.257 . S
C64 O49 1.266 . S
C64 O50 1.236 . S
C65 C68 1.344 . S
C65 C69 1.328 . S
C65 C71 1.516 . S
C66 C67 1.304 . S
C66 C70 1.323 . S
C67 C66 1.304 . S
C67 C68 1.371 . S
C67 H76 0.930 . S
C68 C65 1.344 . S
C68 C67 1.371 . S
C68 H77 0.931 . S
C69 C65 1.328 . S
C69 C70 1.433 . S
C69 H78 0.931 . S
C70 C66 1.323 . S
C70 C69 1.433 . S
C70 H79 0.933 . S
C71 Dy41 2.738 . S
C71 O51 1.255 . S
C71 O52 1.249 . S
C71 C65 1.516 . S
H72 C58 0.930 . S
H73 C59 0.931 . S
H74 C60 0.931 . S
H75 C61 0.933 . S
H76 C67 0.930 . S
H77 C68 0.931 . S
H78 C69 0.931 . S
H79 C70 0.933 . S
Dy80 O83 2.307 . S
Dy80 O85 2.395 . S
Dy80 O86 2.379 . S
Dy80 O88 2.339 . S
Dy80 O90 2.298 . S
Dy80 O94 2.275 . S
Dy80 C102 2.738 . S
Dy81 O84 2.298 . S
Dy81 O87 2.275 . S
Dy81 O89 2.307 . S
Dy81 O91 2.395 1_455 S
Dy81 O92 2.379 1_455 S
Dy81 O95 2.339 . S
Dy81 C111 2.738 1_455 S
C82 O94 1.254 . S
C82 O95 1.257 . S
O83 Dy80 2.307 . S
O83 C93 1.266 . S
O84 Dy81 2.298 . S
O84 C93 1.236 . S
O85 Dy80 2.395 . S
O85 C102 1.255 . S
O86 Dy80 2.379 . S
O86 C102 1.249 . S
O87 Dy81 2.275 . S
O87 C103 1.254 . S
O88 Dy80 2.339 . S
O88 C103 1.257 . S
O89 Dy81 2.307 . S
O89 C104 1.266 . S
O90 Dy80 2.298 . S
O90 C104 1.236 . S
O91 Dy81 2.395 1_655 S
O91 C111 1.255 . S
O92 Dy81 2.379 1_655 S
O92 C111 1.249 . S
C93 O83 1.266 . S
C93 O84 1.236 . S
O94 Dy80 2.275 . S
O94 C82 1.254 . S
O95 Dy81 2.339 . S
O95 C82 1.257 . S
C96 C99 1.344 . S
C96 C100 1.328 . S
C96 C102 1.516 . S
C97 C98 1.304 . S
C97 C101 1.323 . S
C98 C97 1.304 . S
C98 C99 1.371 . S
C98 H112 0.930 . S
C99 C96 1.344 . S
C99 C98 1.371 . S
C99 H113 0.931 . S
C100 C96 1.328 . S
C100 C101 1.433 . S
C100 H114 0.931 . S
C101 C97 1.323 . S
C101 C100 1.433 . S
C101 H115 0.933 . S
C102 Dy80 2.738 . S
C102 O85 1.255 . S
C102 O86 1.249 . S
C102 C96 1.516 . S
C103 O87 1.254 . S
C103 O88 1.257 . S
C104 O89 1.266 . S
C104 O90 1.236 . S
C105 C108 1.344 . S
C105 C109 1.328 . S
C105 C111 1.516 . S
C106 C107 1.304 . S
C106 C110 1.323 . S
C107 C106 1.304 . S
C107 C108 1.371 . S
C107 H116 0.930 . S
C108 C105 1.344 . S
C108 C107 1.371 . S
C108 H117 0.931 . S
C109 C105 1.328 . S
C109 C110 1.433 . S
C109 H118 0.931 . S
C110 C106 1.323 . S
C110 C109 1.433 . S
C110 H119 0.933 . S
C111 Dy81 2.738 1_655 S
C111 O91 1.255 . S
C111 O92 1.249 . S
C111 C105 1.516 . S
H112 C98 0.930 . S
H113 C99 0.931 . S
H114 C100 0.931 . S
H115 C101 0.933 . S
H116 C107 0.930 . S
H117 C108 0.931 . S
H118 C109 0.931 . S
H119 C110 0.933 . S
Dy120 O123 2.307 1_556 S
Dy120 O125 2.395 1_545 S
Dy120 O126 2.379 1_545 S
Dy120 O128 2.339 1_556 S
Dy120 O130 2.298 . S
Dy120 O134 2.275 1_556 S
Dy120 C142 2.738 1_545 S
Dy121 O124 2.298 . S
Dy121 O127 2.275 . S
Dy121 O129 2.307 1_554 S
Dy121 O131 2.395 . S
Dy121 O132 2.379 . S
Dy121 O135 2.339 . S
Dy121 C151 2.738 . S
C122 O134 1.254 . S
C122 O135 1.257 . S
O123 Dy120 2.307 1_554 S
O123 C133 1.266 . S
O124 Dy121 2.298 . S
O124 C133 1.236 . S
O125 Dy120 2.395 1_565 S
O125 C142 1.255 . S
O126 Dy120 2.379 1_565 S
O126 C142 1.249 . S
O127 Dy121 2.275 . S
O127 C143 1.254 . S
O128 Dy120 2.339 1_554 S
O128 C143 1.257 . S
O129 Dy121 2.307 1_556 S
O129 C144 1.266 . S
O130 Dy120 2.298 . S
O130 C144 1.236 . S
O131 Dy121 2.395 . S
O131 C151 1.255 . S
O132 Dy121 2.379 . S
O132 C151 1.249 . S
C133 O123 1.266 . S
C133 O124 1.236 . S
O134 Dy120 2.275 1_554 S
O134 C122 1.254 . S
O135 Dy121 2.339 . S
O135 C122 1.257 . S
C136 C139 1.344 . S
C136 C140 1.328 . S
C136 C142 1.516 . S
C137 C138 1.304 . S
C137 C141 1.323 . S
C138 C137 1.304 . S
C138 C139 1.371 . S
C138 H152 0.930 . S
C139 C136 1.344 . S
C139 C138 1.371 . S
C139 H153 0.931 . S
C140 C136 1.328 . S
C140 C141 1.433 . S
C140 H154 0.931 . S
C141 C137 1.323 . S
C141 C140 1.433 . S
C141 H155 0.933 . S
C142 Dy120 2.738 1_565 S
C142 O125 1.255 . S
C142 O126 1.249 . S
C142 C136 1.516 . S
C143 O127 1.254 . S
C143 O128 1.257 . S
C144 O129 1.266 . S
C144 O130 1.236 . S
C145 C148 1.344 . S
C145 C149 1.328 . S
C145 C151 1.516 . S
C146 C147 1.304 . S
C146 C150 1.323 . S
C147 C146 1.304 . S
C147 C148 1.371 . S
C147 H156 0.930 . S
C148 C145 1.344 . S
C148 C147 1.371 . S
C148 H157 0.931 . S
C149 C145 1.328 . S
C149 C150 1.433 . S
C149 H158 0.931 . S
C150 C146 1.323 . S
C150 C149 1.433 . S
C150 H159 0.933 . S
C151 Dy121 2.738 . S
C151 O131 1.255 . S
C151 O132 1.249 . S
C151 C145 1.516 . S
H152 C138 0.930 . S
H153 C139 0.931 . S
H154 C140 0.931 . S
H155 C141 0.933 . S
H156 C147 0.930 . S
H157 C148 0.931 . S
H158 C149 0.931 . S
H159 C150 0.933 . S
Dy160 O163 2.307 . S
Dy160 O165 2.395 1_565 S
Dy160 O166 2.379 . S
Dy160 O168 2.339 . S
Dy160 O170 2.298 . S
Dy160 O174 2.275 . S
Dy160 C182 2.738 . S
Dy161 O164 2.298 . S
Dy161 O167 2.275 . S
Dy161 O169 2.307 . S
Dy161 O171 2.395 . S
Dy161 O172 2.379 . S
Dy161 O175 2.339 . S
Dy161 C191 2.738 . S
C162 O174 1.254 1_545 S
C162 O175 1.257 1_545 S
O163 Dy160 2.307 . S
O163 C173 1.266 . S
O164 Dy161 2.298 . S
O164 C173 1.236 . S
O165 Dy160 2.395 1_545 S
O165 C182 1.255 1_545 S
O166 Dy160 2.379 . S
O166 C182 1.249 . S
O167 Dy161 2.275 . S
O167 C183 1.254 . S
O168 Dy160 2.339 . S
O168 C183 1.257 . S
O169 Dy161 2.307 . S
O169 C184 1.266 . S
O170 Dy160 2.298 . S
O170 C184 1.236 . S
O171 Dy161 2.395 . S
O171 C191 1.255 . S
O172 Dy161 2.379 . S
O172 C191 1.249 . S
C173 O163 1.266 . S
C173 O164 1.236 . S
O174 Dy160 2.275 . S
O174 C162 1.254 1_565 S
O175 Dy161 2.339 . S
O175 C162 1.257 1_565 S
C176 C179 1.344 . S
C176 C180 1.328 1_545 S
C176 C182 1.516 1_545 S
C177 C178 1.304 . S
C177 C181 1.323 . S
C178 C177 1.304 . S
C178 C179 1.371 . S
C178 H192 0.930 . S
C179 C176 1.344 . S
C179 C178 1.371 . S
C179 H193 0.931 . S
C180 C176 1.328 1_565 S
C180 C181 1.433 1_565 S
C180 H194 0.931 . S
C181 C177 1.323 . S
C181 C180 1.433 1_545 S
C181 H195 0.933 . S
C182 Dy160 2.738 . S
C182 O165 1.255 1_565 S
C182 O166 1.249 . S
C182 C176 1.516 1_565 S
C183 O167 1.254 . S
C183 O168 1.257 . S
C184 O169 1.266 . S
C184 O170 1.236 . S
C185 C188 1.344 . S
C185 C189 1.328 . S
C185 C191 1.516 . S
C186 C187 1.304 . S
C186 C190 1.323 . S
C187 C186 1.304 . S
C187 C188 1.371 . S
C187 H196 0.930 . S
C188 C185 1.344 . S
C188 C187 1.371 . S
C188 H197 0.931 . S
C189 C185 1.328 . S
C189 C190 1.433 . S
C189 H198 0.931 . S
C190 C186 1.323 . S
C190 C189 1.433 . S
C190 H199 0.933 . S
C191 Dy161 2.738 . S
C191 O171 1.255 . S
C191 O172 1.249 . S
C191 C185 1.516 . S
H192 C178 0.930 . S
H193 C179 0.931 . S
H194 C180 0.931 . S
H195 C181 0.933 . S
H196 C187 0.930 . S
H197 C188 0.931 . S
H198 C189 0.931 . S
H199 C190 0.933 . S
Dy200 O203 2.307 . S
Dy200 O205 2.395 . S
Dy200 O206 2.379 . S
Dy200 O208 2.339 . S
Dy200 O210 2.298 1_455 S
Dy200 O214 2.275 . S
Dy200 C222 2.738 . S
Dy201 O204 2.298 1_655 S
Dy201 O207 2.275 . S
Dy201 O209 2.307 . S
Dy201 O211 2.395 . S
Dy201 O212 2.379 . S
Dy201 O215 2.339 . S
Dy201 C231 2.738 . S
C202 O214 1.254 . S
C202 O215 1.257 1_455 S
O203 Dy200 2.307 . S
O203 C213 1.266 . S
O204 Dy201 2.298 1_455 S
O204 C213 1.236 . S
O205 Dy200 2.395 . S
O205 C222 1.255 . S
O206 Dy200 2.379 . S
O206 C222 1.249 . S
O207 Dy201 2.275 . S
O207 C223 1.266 . S
O208 Dy200 2.339 . S
O208 C223 1.247 1_455 S
O209 Dy201 2.307 . S
O209 C224 1.266 . S
O210 Dy200 2.298 1_655 S
O210 C224 1.236 . S
O211 Dy201 2.395 . S
O211 C231 1.255 . S
O212 Dy201 2.379 . S
O212 C231 1.249 . S
C213 O203 1.266 . S
C213 O204 1.236 . S
O214 Dy200 2.275 . S
O214 C202 1.254 . S
O215 Dy201 2.339 . S
O215 C202 1.257 1_655 S
C216 C219 1.344 . S
C216 C220 1.328 . S
C216 C222 1.516 . S
C217 C218 1.304 1_565 S
C217 C221 1.323 . S
C218 C217 1.304 1_545 S
C218 C219 1.371 1_545 S
C218 H232 0.930 . S
C219 C216 1.344 . S
C219 C218 1.371 1_565 S
C219 H233 0.931 1_565 S
C220 C216 1.328 . S
C220 C221 1.433 . S
C220 H234 0.931 . S
C221 C217 1.323 . S
C221 C220 1.433 . S
C221 H235 0.933 . S
C222 Dy200 2.738 . S
C222 O205 1.255 . S
C222 O206 1.249 . S
C222 C216 1.516 . S
C223 O207 1.266 . S
C223 O208 1.247 1_655 S
C224 O209 1.266 . S
C224 O210 1.236 . S
C225 C228 1.344 . S
C225 C229 1.328 . S
C225 C231 1.516 . S
C226 C227 1.304 . S
C226 C230 1.323 . S
C227 C226 1.304 . S
C227 C228 1.371 . S
C227 H236 0.930 . S
C228 C225 1.344 . S
C228 C227 1.371 . S
C228 H237 0.931 . S
C229 C225 1.328 . S
C229 C230 1.433 . S
C229 H238 0.931 . S
C230 C226 1.323 . S
C230 C229 1.433 . S
C230 H239 0.933 . S
C231 Dy201 2.738 . S
C231 O211 1.255 . S
C231 O212 1.249 . S
C231 C225 1.516 . S
H232 C218 0.930 . S
H233 C219 0.931 1_545 S
H234 C220 0.931 . S
H235 C221 0.933 . S
H236 C227 0.930 . S
H237 C228 0.931 . S
H238 C229 0.931 . S
H239 C230 0.933 . S
C240 C241 1.387 1_556 S
C240 H244 0.950 . S
C240 C249 1.391 1_655 S
C241 C240 1.387 1_554 S
C241 C243 1.387 . S
H242 C249 0.951 1_565 S
C243 C241 1.387 . S
C243 C245 1.390 1_655 S
C243 H247 0.950 . S
H244 C240 0.950 . S
C245 C243 1.390 1_455 S
C245 C246 1.387 . S
C245 H248 0.950 . S
C246 C245 1.387 . S
C246 C249 1.385 1_554 S
H247 C243 0.950 . S
H248 C245 0.950 . S
C249 C240 1.391 1_455 S
C249 H242 0.951 1_545 S
C249 C246 1.385 1_556 S
C250 C251 1.387 . S
C250 H254 0.950 . S
C250 C259 1.390 1_655 S
C251 C250 1.387 . S
C251 C253 1.387 . S
H252 C259 0.950 . S
C253 C251 1.387 . S
C253 C255 1.390 1_655 S
C253 H257 0.950 . S
H254 C250 0.950 . S
C255 C253 1.390 1_455 S
C255 C256 1.387 . S
C255 H258 0.950 . S
C256 C255 1.387 . S
C256 C259 1.387 . S
H257 C253 0.950 . S
H258 C255 0.950 . S
C259 C250 1.390 1_455 S
C259 H252 0.950 . S
C259 C256 1.387 . S
C260 C261 1.387 . S
C260 H264 0.950 . S
C260 C269 1.390 . S
C261 C260 1.387 . S
C261 C263 1.387 . S
H262 C269 0.950 . S
C263 C261 1.387 . S
C263 C265 1.390 . S
C263 H267 0.950 1_455 S
H264 C260 0.950 . S
C265 C263 1.390 . S
C265 C266 1.387 . S
C265 H268 0.950 . S
C266 C265 1.387 . S
C266 C269 1.387 . S
H267 C263 0.950 1_655 S
H268 C265 0.950 . S
C269 C260 1.390 . S
C269 H262 0.950 . S
C269 C266 1.387 . S
C270 C271 1.387 . S
C270 H274 0.950 . S
C270 C279 1.390 . S
C271 C270 1.387 . S
C271 C273 1.387 . S
H272 C279 0.950 . S
C273 C271 1.387 . S
C273 C275 1.390 . S
C273 H277 0.950 . S
H274 C270 0.950 . S
C275 C273 1.390 . S
C275 C276 1.387 . S
C275 H278 0.950 . S
C276 C275 1.387 . S
C276 C279 1.387 . S
H277 C273 0.950 . S
H278 C275 0.950 . S
C279 C270 1.390 . S
C279 H272 0.950 . S
C279 C276 1.387 . S
C280 C281 1.387 . S
C280 H284 0.950 . S
C280 C289 1.390 1_455 S
C281 C280 1.387 . S
C281 C283 1.387 . S
H282 C289 0.950 . S
C283 C281 1.387 . S
C283 C285 1.390 1_455 S
C283 H287 0.950 . S
H284 C280 0.950 . S
C285 C283 1.390 1_655 S
C285 C286 1.387 . S
C285 H288 0.950 . S
C286 C285 1.387 . S
C286 C289 1.387 . S
H287 C283 0.950 . S
H288 C285 0.950 . S
C289 C280 1.390 1_655 S
C289 H282 0.950 . S
C289 C286 1.387 . S
C290 C291 1.387 . S
C290 H294 0.950 . S
C290 C299 1.390 . S
C291 C290 1.387 . S
C291 C293 1.387 . S
H292 C299 0.950 . S
C293 C291 1.387 . S
C293 C295 1.390 . S
C293 H297 0.950 . S
H294 C290 0.950 . S
C295 C293 1.390 . S
C295 C296 1.387 . S
C295 H298 0.950 . S
C296 C295 1.387 . S
C296 C299 1.387 . S
H297 C293 0.950 . S
H298 C295 0.950 . S
C299 C290 1.390 . S
C299 H292 0.950 . S
C299 C296 1.387 . S
C300 C301 1.387 . S
C300 H304 0.950 . S
C300 C309 1.390 . S
C301 C300 1.387 . S
C301 C303 1.387 . S
H302 C309 0.950 . S
C303 C301 1.387 . S
C303 C305 1.390 . S
C303 H307 0.950 . S
H304 C300 0.950 . S
C305 C303 1.390 . S
C305 C306 1.387 . S
C305 H308 0.950 . S
C306 C305 1.387 . S
C306 C309 1.387 . S
H307 C303 0.950 . S
H308 C305 0.950 . S
C309 C300 1.390 . S
C309 H302 0.950 . S
C309 C306 1.387 . S
C310 C311 1.387 . S
C310 H314 0.950 . S
C310 C319 1.390 . S
C311 C310 1.387 . S
C311 C313 1.387 . S
H312 C319 0.950 . S
C313 C311 1.387 . S
C313 C315 1.390 . S
C313 H317 0.950 . S
H314 C310 0.950 . S
C315 C313 1.390 . S
C315 C316 1.387 . S
C315 H318 0.950 1_655 S
C316 C315 1.387 . S
C316 C319 1.387 . S
H317 C313 0.950 . S
H318 C315 0.950 1_455 S
C319 C310 1.390 . S
C319 H312 0.950 . S
C319 C316 1.387 . S
C320 C321 1.387 . S
C320 H324 0.950 . S
C320 C329 1.390 . S
C321 C320 1.387 . S
C321 C323 1.387 . S
H322 C329 0.950 . S
C323 C321 1.387 . S
C323 C325 1.390 . S
C323 H327 0.950 . S
H324 C320 0.950 . S
C325 C323 1.390 . S
C325 C326 1.387 . S
C325 H328 0.950 . S
C326 C325 1.387 . S
C326 C329 1.387 . S
H327 C323 0.950 . S
H328 C325 0.950 . S
C329 C320 1.390 . S
C329 H322 0.950 . S
C329 C326 1.387 . S
C330 C331 1.387 1_556 S
C330 H334 0.950 . S
C330 C339 1.390 . S
C331 C330 1.387 1_554 S
C331 C333 1.387 . S
H332 C339 0.950 . S
C333 C331 1.387 . S
C333 C335 1.390 . S
C333 H337 0.950 1_545 S
H334 C330 0.950 . S
C335 C333 1.390 . S
C335 C336 1.387 . S
C335 H338 0.950 . S
C336 C335 1.387 . S
C336 C339 1.387 1_554 S
H337 C333 0.950 1_565 S
H338 C335 0.950 . S
C339 C330 1.390 . S
C339 H332 0.950 . S
C339 C336 1.387 1_556 S
C340 C341 1.387 . S
C340 H344 0.950 . S
C340 C349 1.390 . S
C341 C340 1.387 . S
C341 C343 1.387 . S
H342 C349 0.950 . S
C343 C341 1.387 . S
C343 C345 1.390 . S
C343 H347 0.950 . S
H344 C340 0.950 . S
C345 C343 1.390 . S
C345 C346 1.387 . S
C345 H348 0.950 . S
C346 C345 1.387 . S
C346 C349 1.387 . S
H347 C343 0.950 . S
H348 C345 0.950 . S
C349 C340 1.390 . S
C349 H342 0.950 . S
C349 C346 1.387 . S
C350 C351 1.387 . S
C350 H354 0.950 . S
C350 C359 1.390 . S
C351 C350 1.387 . S
C351 C353 1.387 . S
H352 C359 0.950 1_655 S
C353 C351 1.387 . S
C353 C355 1.390 . S
C353 H357 0.950 . S
H354 C350 0.950 . S
C355 C353 1.390 . S
C355 C356 1.387 1_455 S
C355 H358 0.950 . S
C356 C355 1.387 1_655 S
C356 C359 1.387 1_655 S
H357 C353 0.950 . S
H358 C355 0.950 . S
C359 C350 1.390 . S
C359 H352 0.950 1_455 S
C359 C356 1.387 1_455 S
C360 C361 1.387 . S
C360 H364 0.950 . S
C360 C369 1.390 . S
C361 C360 1.387 . S
C361 C363 1.387 . S
H362 C369 0.950 . S
C363 C361 1.387 . S
C363 C365 1.390 . S
C363 H367 0.950 . S
H364 C360 0.950 . S
C365 C363 1.390 . S
C365 C366 1.387 . S
C365 H368 0.950 . S
C366 C365 1.387 . S
C366 C369 1.387 . S
H367 C363 0.950 . S
H368 C365 0.950 . S
C369 C360 1.390 . S
C369 H362 0.950 . S
C369 C366 1.387 . S
C370 C371 1.387 . S
C370 H374 0.950 . S
C370 C379 1.390 . S
C371 C370 1.387 . S
C371 C373 1.387 . S
H372 C379 0.950 . S
C373 C371 1.387 . S
C373 C375 1.390 . S
C373 H377 0.950 . S
H374 C370 0.950 . S
C375 C373 1.390 . S
C375 C376 1.387 . S
C375 H378 0.950 . S
C376 C375 1.387 . S
C376 C379 1.387 . S
H377 C373 0.950 . S
H378 C375 0.950 . S
C379 C370 1.390 . S
C379 H372 0.950 . S
C379 C376 1.387 . S
C380 C381 1.387 . S
C380 H384 0.950 1_655 S
C380 C389 1.390 . S
C381 C380 1.387 . S
C381 C383 1.387 . S
H382 C389 0.950 . S
C383 C381 1.387 . S
C383 C385 1.390 . S
C383 H387 0.950 . S
H384 C380 0.950 1_455 S
C385 C383 1.390 . S
C385 C386 1.387 . S
C385 H388 0.950 . S
C386 C385 1.387 . S
C386 C389 1.387 . S
H387 C383 0.950 . S
H388 C385 0.950 . S
C389 C380 1.390 . S
C389 H382 0.950 . S
C389 C386 1.387 . S
C390 C391 1.387 . S
C390 H394 0.950 . S
C390 C399 1.390 . S
C391 C390 1.387 . S
C391 C393 1.387 . S
H392 C399 0.950 . S
C393 C391 1.387 . S
C393 C395 1.390 . S
C393 H397 0.950 . S
H394 C390 0.950 . S
C395 C393 1.390 . S
C395 C396 1.387 . S
C395 H398 0.950 . S
C396 C395 1.387 . S
C396 C399 1.387 . S
H397 C393 0.950 . S
H398 C395 0.950 . S
C399 C390 1.390 . S
C399 H392 0.950 . S
C399 C396 1.387 . S
C400 C401 1.387 . S
C400 H404 0.950 . S
C400 C409 1.390 . S
C401 C400 1.387 . S
C401 C403 1.387 . S
H402 C409 0.950 . S
C403 C401 1.387 . S
C403 C405 1.390 . S
C403 H407 0.950 . S
H404 C400 0.950 . S
C405 C403 1.390 . S
C405 C406 1.387 . S
C405 H408 0.950 . S
C406 C405 1.387 . S
C406 C409 1.387 . S
H407 C403 0.950 . S
H408 C405 0.950 . S
C409 C400 1.390 . S
C409 H402 0.950 . S
C409 C406 1.387 . S
C410 C411 1.387 . S
C410 H414 0.950 . S
C410 C419 1.390 . S
C411 C410 1.387 . S
C411 C413 1.387 . S
H412 C419 0.950 . S
C413 C411 1.387 . S
C413 C415 1.390 . S
C413 H417 0.950 . S
H414 C410 0.950 . S
C415 C413 1.390 . S
C415 C416 1.387 . S
C415 H418 0.950 1_565 S
C416 C415 1.387 . S
C416 C419 1.387 . S
H417 C413 0.950 . S
H418 C415 0.950 1_545 S
C419 C410 1.390 . S
C419 H412 0.950 . S
C419 C416 1.387 . S
C241 C122 1.412 . S
C246 C2 1.329 . S
C251 C162 1.333 . S
C256 C42 1.412 . S
C261 C202 1.413 1_545 S
C266 C82 1.333 . S
C271 C26 1.312 . S
C276 C97 1.105 . S
C281 C57 1.185 . S
C286 C146 1.105 . S
C291 C106 1.311 . S
C296 C177 1.111 . S
C301 C137 1.185 . S
C306 C226 1.104 . S
C311 C186 1.309 . S
C316 C17 1.105 1_655 S
C321 C217 1.185 1_545 S
C326 C66 1.106 . S
C331 C23 0.891 1_545 S
C336 C143 0.811 . S
C341 C63 0.800 . S
C346 C183 0.883 . S
C351 C103 0.891 . S
C356 C223 0.806 . S
C361 C24 4.297 . S
C366 C64 4.289 . S
C371 C53 4.170 . S
C376 C93 4.136 . S
C381 C104 4.296 1_655 S
C386 C144 4.289 . S
C391 C133 4.171 1_565 S
C396 C173 4.137 . S
C401 C184 4.296 . S
C406 C224 4.288 . S
C411 C213 4.170 . S
C416 C13 4.137 . S
