# Generated by pormake.
# Topology ume, (4)-cn, num edge types: 1
# Building blocks:
#     Node 0, Type 0, BuildingBlock: GALJAG_clean_sbu_0, # of connection points: 4
#     Node 1, Type 0, BuildingBlock: GALJAG_clean_sbu_0, # of connection points: 4
#     Node 2, Type 0, BuildingBlock: GALJAG_clean_sbu_0, # of connection points: 4
#     Node 3, Type 0, BuildingBlock: GALJAG_clean_sbu_0, # of connection points: 4
#     Node 4, Type 0, BuildingBlock: GALJAG_clean_sbu_0, # of connection points: 4
#     Node 5, Type 0, BuildingBlock: GALJAG_clean_sbu_0, # of connection points: 4
#     Node 6, Type 0, BuildingBlock: GALJAG_clean_sbu_0, # of connection points: 4
#     Node 7, Type 0, BuildingBlock: GALJAG_clean_sbu_0, # of connection points: 4
#     Node 8, Type 0, BuildingBlock: GALJAG_clean_sbu_0, # of connection points: 4
#     Node 9, Type 0, BuildingBlock: GALJAG_clean_sbu_0, # of connection points: 4
#     Node 10, Type 0, BuildingBlock: GALJAG_clean_sbu_0, # of connection points: 4
#     Node 11, Type 0, BuildingBlock: GALJAG_clean_sbu_0, # of connection points: 4
#     Node 12, Type 0, BuildingBlock: GALJAG_clean_sbu_0, # of connection points: 4
#     Node 13, Type 0, BuildingBlock: GALJAG_clean_sbu_0, # of connection points: 4
#     Node 14, Type 0, BuildingBlock: GALJAG_clean_sbu_0, # of connection points: 4
#     Node 15, Type 0, BuildingBlock: GALJAG_clean_sbu_0, # of connection points: 4
#     Edge 16, Type (0, 0), BuildingBlock: OJICUG_clean_linker_0, # of connection points: 2
#     Edge 17, Type (0, 0), BuildingBlock: OJICUG_clean_linker_0, # of connection points: 2
#     Edge 18, Type (0, 0), BuildingBlock: OJICUG_clean_linker_0, # of connection points: 2
#     Edge 19, Type (0, 0), BuildingBlock: OJICUG_clean_linker_0, # of connection points: 2
#     Edge 20, Type (0, 0), BuildingBlock: OJICUG_clean_linker_0, # of connection points: 2
#     Edge 21, Type (0, 0), BuildingBlock: OJICUG_clean_linker_0, # of connection points: 2
#     Edge 22, Type (0, 0), BuildingBlock: OJICUG_clean_linker_0, # of connection points: 2
#     Edge 23, Type (0, 0), BuildingBlock: OJICUG_clean_linker_0, # of connection points: 2
#     Edge 24, Type (0, 0), BuildingBlock: OJICUG_clean_linker_0, # of connection points: 2
#     Edge 25, Type (0, 0), BuildingBlock: OJICUG_clean_linker_0, # of connection points: 2
#     Edge 26, Type (0, 0), BuildingBlock: OJICUG_clean_linker_0, # of connection points: 2
#     Edge 27, Type (0, 0), BuildingBlock: OJICUG_clean_linker_0, # of connection points: 2
#     Edge 28, Type (0, 0), BuildingBlock: OJICUG_clean_linker_0, # of connection points: 2
#     Edge 29, Type (0, 0), BuildingBlock: OJICUG_clean_linker_0, # of connection points: 2
#     Edge 30, Type (0, 0), BuildingBlock: OJICUG_clean_linker_0, # of connection points: 2
#     Edge 31, Type (0, 0), BuildingBlock: OJICUG_clean_linker_0, # of connection points: 2
#     Edge 32, Type (0, 0), BuildingBlock: OJICUG_clean_linker_0, # of connection points: 2
#     Edge 33, Type (0, 0), BuildingBlock: OJICUG_clean_linker_0, # of connection points: 2
#     Edge 34, Type (0, 0), BuildingBlock: OJICUG_clean_linker_0, # of connection points: 2
#     Edge 35, Type (0, 0), BuildingBlock: OJICUG_clean_linker_0, # of connection points: 2
#     Edge 36, Type (0, 0), BuildingBlock: OJICUG_clean_linker_0, # of connection points: 2
#     Edge 37, Type (0, 0), BuildingBlock: OJICUG_clean_linker_0, # of connection points: 2
#     Edge 38, Type (0, 0), BuildingBlock: OJICUG_clean_linker_0, # of connection points: 2
#     Edge 39, Type (0, 0), BuildingBlock: OJICUG_clean_linker_0, # of connection points: 2
#     Edge 40, Type (0, 0), BuildingBlock: OJICUG_clean_linker_0, # of connection points: 2
#     Edge 41, Type (0, 0), BuildingBlock: OJICUG_clean_linker_0, # of connection points: 2
#     Edge 42, Type (0, 0), BuildingBlock: OJICUG_clean_linker_0, # of connection points: 2
#     Edge 43, Type (0, 0), BuildingBlock: OJICUG_clean_linker_0, # of connection points: 2
#     Edge 44, Type (0, 0), BuildingBlock: OJICUG_clean_linker_0, # of connection points: 2
#     Edge 45, Type (0, 0), BuildingBlock: OJICUG_clean_linker_0, # of connection points: 2
#     Edge 46, Type (0, 0), BuildingBlock: OJICUG_clean_linker_0, # of connection points: 2
#     Edge 47, Type (0, 0), BuildingBlock: OJICUG_clean_linker_0, # of connection points: 2
# Relax obj value: 0.060
# Max RMSD: 0.125
# Mean RMSD: 0.125
data_MOF--net-ume--node1-GALJAG_clean_sbu_0--edge1-OJICUG_clean_linker_0
_symmetry_space_group_name_H-M    P1
_symmetry_Int_Tables_number       1
_symmetry_cell_setting            triclinic
loop_
_symmetry_equiv_pos_as_xyz
'x, y, z'
_cell_length_a     20.538505
_cell_length_b     20.535929
_cell_length_c     82.769311
_cell_angle_alpha  90.01745
_cell_angle_beta   90.01662
_cell_angle_gamma 89.989855
loop_
_atom_site_label
_atom_site_type_symbol
_atom_site_fract_x
_atom_site_fract_y
_atom_site_fract_z
_atom_type_partial_charge
In0 In 0.24931 0.1023 0.30537 0.0
O1 O 0.24674 0.16711 0.32828 0.0
O2 O 0.25407 0.06395 0.33053 0.0
C3 C 0.24352 0.17442 0.27846 0.0
C4 C 0.12927 0.05214 0.30384 0.0
C5 C 0.36928 0.05217 0.30094 0.0
O6 O 0.25869 0.19947 0.29196 0.0
O7 O 0.2308 0.11437 0.27882 0.0
O8 O 0.31837 0.0177 0.29992 0.0
O9 O 0.35933 0.11153 0.30404 0.0
C10 C 0.25015 0.11817 0.33759 0.0
O11 O 0.17969 0.01761 0.30172 0.0
O12 O 0.13976 0.11176 0.30665 0.0
In13 In 0.89765 0.74903 0.55506 0.0
O14 O 0.83193 0.74647 0.57779 0.0
O15 O 0.93426 0.76037 0.58027 0.0
C16 C 0.82561 0.74195 0.52813 0.0
C17 C 0.94845 0.62896 0.55425 0.0
C18 C 0.94798 0.86859 0.55013 0.0
O19 O 0.80066 0.75793 0.54158 0.0
O20 O 0.88562 0.72902 0.52854 0.0
O21 O 0.9826 0.81763 0.5496 0.0
O22 O 0.88834 0.85883 0.5529 0.0
C23 C 0.87995 0.75478 0.58721 0.0
O24 O 0.98274 0.6793 0.55184 0.0
O25 O 0.88888 0.63956 0.55704 0.0
In26 In 0.24955 0.3945 0.80526 0.0
O27 O 0.31949 0.47897 0.80168 0.0
O28 O 0.35905 0.38496 0.80691 0.0
C29 C 0.12981 0.44477 0.80058 0.0
C30 C 0.24652 0.37896 0.83748 0.0
C31 C 0.25546 0.32205 0.7784 0.0
O32 O 0.18077 0.47925 0.79971 0.0
O33 O 0.13964 0.38534 0.80362 0.0
O34 O 0.24003 0.29724 0.7919 0.0
O35 O 0.26852 0.38204 0.77873 0.0
C36 C 0.36976 0.44447 0.80402 0.0
O37 O 0.25161 0.33 0.82821 0.0
O38 O 0.24234 0.43303 0.83037 0.0
In39 In 0.60104 0.75203 0.0551 0.0
O40 O 0.66626 0.75396 0.07794 0.0
O41 O 0.5634 0.74401 0.08028 0.0
C42 C 0.673 0.75818 0.02817 0.0
C43 C 0.55088 0.87223 0.05394 0.0
C44 C 0.55054 0.63238 0.05043 0.0
O45 O 0.69804 0.74268 0.04165 0.0
O46 O 0.613 0.77115 0.02856 0.0
O47 O 0.51602 0.68337 0.04974 0.0
O48 O 0.61013 0.64213 0.05327 0.0
C49 C 0.61768 0.74825 0.08729 0.0
O50 O 0.51644 0.82193 0.05159 0.0
O51 O 0.61039 0.86154 0.05683 0.0
In52 In 0.24638 0.39727 0.93949 0.0
O53 O 0.24408 0.33188 0.91668 0.0
O54 O 0.25321 0.43481 0.91428 0.0
C55 C 0.24055 0.32543 0.96645 0.0
C56 C 0.12629 0.44753 0.94084 0.0
C57 C 0.36615 0.4478 0.94395 0.0
O58 O 0.25579 0.30028 0.95297 0.0
O59 O 0.22777 0.38547 0.96605 0.0
O60 O 0.31518 0.48232 0.9447 0.0
O61 O 0.35632 0.38817 0.94116 0.0
C62 C 0.24907 0.38045 0.9073 0.0
O63 O 0.17666 0.48193 0.94312 0.0
O64 O 0.13685 0.388 0.93793 0.0
In65 In 0.60302 0.74766 0.18933 0.0
O66 O 0.66765 0.74556 0.1664 0.0
O67 O 0.56457 0.75385 0.1642 0.0
C68 C 0.67552 0.74191 0.21619 0.0
C69 C 0.55297 0.62751 0.19076 0.0
C70 C 0.5526 0.86744 0.19388 0.0
O71 O 0.70032 0.7572 0.20267 0.0
O72 O 0.61551 0.72899 0.21587 0.0
O73 O 0.51815 0.81646 0.19474 0.0
O74 O 0.61208 0.85762 0.19092 0.0
C75 C 0.61871 0.74998 0.15711 0.0
O76 O 0.51854 0.67788 0.19306 0.0
O77 O 0.61244 0.63811 0.18781 0.0
In78 In 0.24931 0.10021 0.43957 0.0
O79 O 0.2519 0.1655 0.41676 0.0
O80 O 0.24035 0.06281 0.41438 0.0
C81 C 0.25591 0.1725 0.46647 0.0
C82 C 0.36936 0.04958 0.44069 0.0
C83 C 0.12958 0.04995 0.44425 0.0
O84 O 0.24033 0.1974 0.45298 0.0
O85 O 0.2686 0.11243 0.46611 0.0
O86 O 0.18052 0.01536 0.44496 0.0
O87 O 0.13943 0.10953 0.44142 0.0
C88 C 0.2453 0.11707 0.40739 0.0
O89 O 0.31898 0.01528 0.44304 0.0
O90 O 0.35882 0.10912 0.43782 0.0
In91 In 0.89435 0.74821 0.68917 0.0
O92 O 0.82934 0.75111 0.66631 0.0
O93 O 0.93259 0.74595 0.66398 0.0
C94 C 0.82237 0.75337 0.71612 0.0
C95 C 0.94458 0.86815 0.691 0.0
C96 C 0.94461 0.62807 0.69328 0.0
O97 O 0.79723 0.73859 0.7026 0.0
O98 O 0.88245 0.76594 0.71576 0.0
O99 O 0.979 0.67898 0.69444 0.0
O100 O 0.88528 0.63809 0.69018 0.0
C101 C 0.87826 0.7494 0.65696 0.0
O102 O 0.97909 0.81761 0.69297 0.0
O103 O 0.88491 0.85782 0.68822 0.0
In104 In 0.74976 0.60094 0.80515 0.0
O105 O 0.7467 0.66645 0.82793 0.0
O106 O 0.75903 0.56387 0.83036 0.0
C107 C 0.74311 0.67272 0.77819 0.0
C108 C 0.62978 0.55025 0.80409 0.0
C109 C 0.86953 0.55083 0.80045 0.0
O110 O 0.75882 0.69786 0.79165 0.0
O111 O 0.73027 0.6127 0.77862 0.0
O112 O 0.81864 0.51619 0.79973 0.0
O113 O 0.85962 0.61039 0.80332 0.0
C114 C 0.7536 0.61816 0.83733 0.0
O115 O 0.68018 0.51588 0.80181 0.0
O116 O 0.64027 0.60988 0.80687 0.0
In117 In 0.39447 0.25224 0.05528 0.0
O118 O 0.32987 0.24909 0.0782 0.0
O119 O 0.43275 0.25934 0.08042 0.0
C120 C 0.32182 0.24594 0.02845 0.0
C121 C 0.44499 0.13224 0.05395 0.0
C122 C 0.44439 0.37214 0.05063 0.0
O123 O 0.29711 0.26156 0.04196 0.0
O124 O 0.38184 0.23304 0.02876 0.0
O125 O 0.47892 0.32123 0.04968 0.0
O126 O 0.38506 0.36221 0.05375 0.0
C127 C 0.37869 0.25436 0.0875 0.0
O128 O 0.47936 0.18267 0.05172 0.0
O129 O 0.3854 0.14272 0.05677 0.0
In130 In 0.74936 0.89567 0.30505 0.0
O131 O 0.75203 0.83043 0.32787 0.0
O132 O 0.7418 0.93327 0.33025 0.0
C133 C 0.75551 0.82344 0.27815 0.0
C134 C 0.86938 0.94613 0.30378 0.0
C135 C 0.62956 0.94604 0.30053 0.0
O136 O 0.74017 0.7985 0.29164 0.0
O137 O 0.7682 0.88351 0.2785 0.0
O138 O 0.68049 0.9806 0.29977 0.0
O139 O 0.63944 0.88645 0.30335 0.0
C140 C 0.74643 0.87898 0.33725 0.0
O141 O 0.81898 0.98046 0.30146 0.0
O142 O 0.85887 0.88661 0.30669 0.0
In143 In 0.10428 0.24853 0.55528 0.0
O144 O 0.01971 0.31854 0.55181 0.0
O145 O 0.11375 0.35805 0.55701 0.0
C146 C 0.05414 0.12883 0.55044 0.0
C147 C 0.11983 0.24491 0.5875 0.0
C148 C 0.17683 0.25461 0.52845 0.0
O149 O 0.01966 0.17981 0.54956 0.0
O150 O 0.1135 0.13862 0.55357 0.0
O151 O 0.20154 0.23886 0.54195 0.0
O152 O 0.11691 0.26796 0.52878 0.0
C153 C 0.05421 0.3688 0.55417 0.0
O154 O 0.16871 0.25084 0.57825 0.0
O155 O 0.06582 0.24022 0.58037 0.0
In156 In 0.74953 0.89351 0.43927 0.0
O157 O 0.67973 0.97812 0.44291 0.0
O158 O 0.63998 0.88405 0.43783 0.0
C159 C 0.86935 0.94377 0.44387 0.0
C160 C 0.75134 0.87782 0.40705 0.0
C161 C 0.74391 0.82099 0.46612 0.0
O162 O 0.81838 0.97821 0.44483 0.0
O163 O 0.85952 0.8844 0.44076 0.0
O164 O 0.7594 0.79623 0.45261 0.0
O165 O 0.73068 0.88094 0.4658 0.0
C166 C 0.62937 0.94363 0.44068 0.0
O167 O 0.74691 0.8289 0.41634 0.0
O168 O 0.75567 0.93195 0.41414 0.0
In169 In 0.10142 0.24785 0.68951 0.0
O170 O 0.16683 0.24511 0.66672 0.0
O171 O 0.06384 0.2532 0.66428 0.0
C172 C 0.17356 0.24222 0.71644 0.0
C173 C 0.05097 0.12787 0.69105 0.0
C174 C 0.05089 0.36779 0.69373 0.0
O175 O 0.19858 0.25716 0.70293 0.0
O176 O 0.11346 0.22976 0.7161 0.0
O177 O 0.0164 0.31684 0.69459 0.0
O178 O 0.1105 0.35787 0.69096 0.0
C179 C 0.11823 0.24916 0.65731 0.0
O180 O 0.01667 0.17837 0.69328 0.0
O181 O 0.11048 0.13827 0.68811 0.0
In182 In 0.74645 0.60399 0.93933 0.0
O183 O 0.74939 0.66867 0.91642 0.0
O184 O 0.74231 0.5655 0.91417 0.0
C185 C 0.75233 0.67656 0.96618 0.0
C186 C 0.86641 0.55362 0.94094 0.0
C187 C 0.62639 0.55397 0.94368 0.0
O188 O 0.73722 0.7014 0.95266 0.0
O189 O 0.76484 0.61645 0.96589 0.0
O190 O 0.67729 0.5195 0.94478 0.0
O191 O 0.63639 0.61328 0.94055 0.0
C192 C 0.74636 0.61969 0.90711 0.0
O193 O 0.81593 0.51918 0.94305 0.0
O194 O 0.85599 0.61324 0.93812 0.0
In195 In 0.39632 0.2477 0.18949 0.0
O196 O 0.33108 0.25093 0.16667 0.0
O197 O 0.43397 0.24145 0.16428 0.0
C198 C 0.32433 0.25385 0.21642 0.0
C199 C 0.44692 0.36763 0.19088 0.0
C200 C 0.44641 0.12771 0.19393 0.0
O201 O 0.29926 0.23851 0.20293 0.0
O202 O 0.38439 0.26649 0.21605 0.0
O203 O 0.48095 0.17861 0.19486 0.0
O204 O 0.38696 0.1377 0.19094 0.0
C205 C 0.37968 0.24623 0.15729 0.0
O206 O 0.4813 0.31714 0.19304 0.0
O207 O 0.38727 0.35724 0.18809 0.0
C208 C 0.9901 0.93173 0.30341 0.0
C209 C 0.93578 0.97334 0.30332 0.0
H210 H 0.09411 0.92413 0.30347 0.0
C211 C 0.94554 0.04098 0.30304 0.0
H212 H 0.98396 0.87935 0.30357 0.0
C213 C 0.00855 0.06656 0.30315 0.0
C214 C 0.06287 0.02495 0.30332 0.0
H215 H 0.90454 0.07416 0.30298 0.0
H216 H 0.0147 0.11895 0.30311 0.0
C217 C 0.0531 0.95731 0.30331 0.0
C218 C 0.934 0.50823 0.55385 0.0
C219 C 0.97566 0.56251 0.55389 0.0
H220 H 0.92627 0.40422 0.55374 0.0
C221 C 0.04328 0.55264 0.55374 0.0
H222 H 0.88162 0.51444 0.55391 0.0
C223 C 0.06879 0.48957 0.55381 0.0
C224 C 0.02712 0.43529 0.55381 0.0
H225 H 0.07649 0.59361 0.55379 0.0
H226 H 0.12117 0.48334 0.55385 0.0
C227 C 0.9595 0.44518 0.55371 0.0
C228 C 0.50909 0.56469 0.80355 0.0
C229 C 0.56338 0.52303 0.80367 0.0
H230 H 0.4051 0.5724 0.80339 0.0
C231 C 0.55355 0.4554 0.80361 0.0
H232 H 0.51527 0.61708 0.80354 0.0
C233 C 0.49051 0.42987 0.80368 0.0
C234 C 0.43623 0.47155 0.80362 0.0
H235 H 0.59454 0.42219 0.80372 0.0
H236 H 0.48431 0.37749 0.80379 0.0
C237 C 0.44607 0.53917 0.80342 0.0
C238 C 0.53985 0.05603 0.0535 0.0
C239 C 0.47222 0.06584 0.05349 0.0
H240 H 0.61777 0.98679 0.05378 0.0
C241 C 0.43059 0.01154 0.05332 0.0
H242 H 0.57303 0.09702 0.05365 0.0
C243 C 0.45614 0.94852 0.05323 0.0
C244 C 0.52376 0.93868 0.05351 0.0
H245 H 0.37821 0.01772 0.05327 0.0
H246 H 0.42294 0.90754 0.05317 0.0
C247 C 0.5654 0.99298 0.05361 0.0
C248 C 0.0501 0.54234 0.94168 0.0
C249 C 0.05987 0.47471 0.94136 0.0
H250 H 0.98096 0.62034 0.94169 0.0
C251 C 0.00555 0.43311 0.94128 0.0
H252 H 0.0911 0.57552 0.94173 0.0
C253 C 0.94254 0.45871 0.94142 0.0
C254 C 0.93278 0.52636 0.94145 0.0
H255 H 0.01169 0.38072 0.94109 0.0
H256 H 0.90153 0.42555 0.94126 0.0
C257 C 0.9871 0.56795 0.94162 0.0
C258 C 0.54184 0.44374 0.19133 0.0
C259 C 0.4742 0.434 0.19134 0.0
H260 H 0.61981 0.51289 0.19102 0.0
C261 C 0.43261 0.48834 0.19151 0.0
H262 H 0.57499 0.40271 0.19118 0.0
C263 C 0.45821 0.55133 0.19158 0.0
C264 C 0.52583 0.56109 0.19128 0.0
H265 H 0.38022 0.48221 0.19157 0.0
H266 H 0.42503 0.59235 0.19162 0.0
C267 C 0.56743 0.50675 0.1912 0.0
C268 C 0.49008 0.06397 0.44112 0.0
C269 C 0.43578 0.02235 0.44112 0.0
H270 H 0.59408 0.07161 0.44115 0.0
C271 C 0.44559 0.95471 0.4413 0.0
H272 H 0.48391 0.11636 0.44103 0.0
C273 C 0.50863 0.92914 0.44121 0.0
C274 C 0.56293 0.97078 0.44114 0.0
H275 H 0.4046 0.92152 0.44129 0.0
H276 H 0.51481 0.87676 0.44119 0.0
C277 C 0.5531 0.03841 0.44123 0.0
C278 C 0.95604 0.05186 0.69194 0.0
C279 C 0.02368 0.06152 0.6916 0.0
H280 H 0.87796 0.98282 0.69192 0.0
C281 C 0.0652 0.00712 0.69148 0.0
H282 H 0.92293 0.09292 0.69203 0.0
C283 C 0.03952 0.94415 0.69157 0.0
C284 C 0.97187 0.93449 0.6916 0.0
H285 H 0.11759 0.01317 0.69126 0.0
H286 H 0.07263 0.90309 0.69136 0.0
C287 C 0.93036 0.98888 0.69184 0.0
C288 C 0.50874 0.93184 0.29884 0.0
C289 C 0.56315 0.97337 0.29923 0.0
H290 H 0.40467 0.92419 0.29891 0.0
C291 C 0.55323 0.04102 0.29922 0.0
H292 H 0.51488 0.87945 0.29878 0.0
C293 C 0.49012 0.06659 0.29942 0.0
C294 C 0.43571 0.02502 0.29947 0.0
H295 H 0.59419 0.07422 0.29952 0.0
H296 H 0.48398 0.11896 0.29979 0.0
C297 C 0.44563 0.95742 0.29889 0.0
C298 C 0.04294 0.94487 0.54865 0.0
C299 C 0.9753 0.93497 0.54869 0.0
H300 H 0.12088 0.01409 0.54918 0.0
C301 C 0.93378 0.98941 0.54827 0.0
H302 H 0.07613 0.90389 0.54896 0.0
C303 C 0.95937 0.05253 0.5483 0.0
C304 C 0.02696 0.06243 0.54888 0.0
H305 H 0.8814 0.9833 0.54824 0.0
H306 H 0.92616 0.09351 0.54832 0.0
C307 C 0.06851 0.00798 0.54881 0.0
C308 C 0.05348 0.53962 0.79873 0.0
C309 C 0.06341 0.47199 0.7991 0.0
H310 H 0.9842 0.61757 0.79887 0.0
C311 C 0.00902 0.43042 0.7989 0.0
H312 H 0.09443 0.57284 0.79886 0.0
C313 C 0.9459 0.45598 0.7988 0.0
C314 C 0.93595 0.52361 0.79903 0.0
H315 H 0.01516 0.37804 0.79912 0.0
H316 H 0.90495 0.42275 0.79899 0.0
C317 C 0.99035 0.56518 0.79876 0.0
C318 C 0.45554 0.55613 0.049 0.0
C319 C 0.52318 0.56601 0.04903 0.0
H320 H 0.3776 0.4869 0.0495 0.0
C321 C 0.5647 0.51158 0.0486 0.0
H322 H 0.42236 0.59711 0.04933 0.0
C323 C 0.53912 0.44847 0.04859 0.0
C324 C 0.47152 0.43857 0.04916 0.0
H325 H 0.61709 0.51769 0.04855 0.0
H326 H 0.57234 0.4075 0.04858 0.0
C327 C 0.42997 0.49301 0.04913 0.0
C328 C 0.48695 0.43364 0.94571 0.0
C329 C 0.43253 0.47516 0.94526 0.0
H330 H 0.59103 0.42601 0.94573 0.0
C331 C 0.44241 0.54281 0.94525 0.0
H332 H 0.48084 0.38125 0.94579 0.0
C333 C 0.50552 0.56839 0.94509 0.0
C334 C 0.55995 0.52683 0.9451 0.0
H335 H 0.40144 0.576 0.94491 0.0
H336 H 0.51164 0.62076 0.9447 0.0
C337 C 0.55005 0.45923 0.9457 0.0
C338 C 0.45765 0.94372 0.1955 0.0
C339 C 0.52529 0.93383 0.19528 0.0
H340 H 0.37968 0.01297 0.1952 0.0
C341 C 0.56682 0.98825 0.1956 0.0
H342 H 0.42446 0.90274 0.19527 0.0
C343 C 0.54123 0.05136 0.19568 0.0
C344 C 0.47361 0.06127 0.1953 0.0
H345 H 0.61921 0.98212 0.19551 0.0
H346 H 0.57444 0.09233 0.1956 0.0
C347 C 0.43206 0.00684 0.19543 0.0
C348 C 0.99018 0.92941 0.44549 0.0
C349 C 0.93575 0.97097 0.44538 0.0
H350 H 0.09426 0.92179 0.44542 0.0
C351 C 0.94563 0.03858 0.44591 0.0
H352 H 0.98407 0.87704 0.44516 0.0
C353 C 0.00874 0.06417 0.44595 0.0
C354 C 0.06318 0.02264 0.44561 0.0
H355 H 0.90466 0.0718 0.44584 0.0
H356 H 0.01486 0.11656 0.44596 0.0
C357 C 0.05328 0.95499 0.44568 0.0
C358 C 0.95586 0.44408 0.69487 0.0
C359 C 0.02351 0.4342 0.69494 0.0
H360 H 0.8779 0.51329 0.69423 0.0
C361 C 0.065 0.48864 0.69536 0.0
H362 H 0.9227 0.40309 0.69454 0.0
C363 C 0.03938 0.55174 0.6953 0.0
C364 C 0.97179 0.56162 0.69466 0.0
H365 H 0.11739 0.48253 0.69548 0.0
H366 H 0.07257 0.59273 0.69533 0.0
C367 C 0.93026 0.50718 0.69465 0.0
C368 C 0.24206 0.0628 0.36402 0.0
C369 C 0.24791 0.12138 0.35543 0.0
H370 H 0.2362 0.01602 0.38684 0.0
C371 C 0.25163 0.18032 0.36406 0.0
H372 H 0.23863 0.01648 0.35781 0.0
C373 C 0.25047 0.18004 0.38107 0.0
C374 C 0.2451 0.12085 0.38954 0.0
H375 H 0.25606 0.22621 0.35771 0.0
H376 H 0.25407 0.22572 0.38755 0.0
C377 C 0.24051 0.06255 0.38077 0.0
C378 C 0.9333 0.76536 0.61387 0.0
C379 C 0.8757 0.75605 0.60504 0.0
H380 H 0.97873 0.77057 0.63688 0.0
C381 C 0.81693 0.74644 0.61346 0.0
H382 H 0.97944 0.77325 0.60783 0.0
C383 C 0.81649 0.74515 0.63047 0.0
C384 C 0.87489 0.75298 0.63915 0.0
H385 H 0.77179 0.73919 0.60694 0.0
H386 H 0.77104 0.73697 0.63677 0.0
C387 C 0.93292 0.76367 0.63061 0.0
C388 C 0.24722 0.31689 0.86396 0.0
C389 C 0.24704 0.37594 0.85533 0.0
H390 H 0.2477 0.27143 0.88745 0.0
C391 C 0.24774 0.4348 0.86394 0.0
H392 H 0.24672 0.27079 0.85761 0.0
C393 C 0.24868 0.43516 0.8807 0.0
C394 C 0.24863 0.37668 0.88945 0.0
H395 H 0.24782 0.48126 0.85774 0.0
H396 H 0.24921 0.48189 0.88678 0.0
C397 C 0.24778 0.31726 0.88097 0.0
C398 C 0.56284 0.74629 0.11388 0.0
C399 C 0.62135 0.74804 0.10514 0.0
H400 H 0.51662 0.74572 0.13682 0.0
C401 C 0.68068 0.75014 0.11364 0.0
H402 H 0.51618 0.7447 0.10778 0.0
C403 C 0.68093 0.75049 0.13065 0.0
C404 C 0.62185 0.74919 0.13926 0.0
H405 H 0.72651 0.75152 0.10719 0.0
H406 H 0.72696 0.75213 0.13703 0.0
C407 C 0.56309 0.74702 0.13063 0.0
C408 C 0.75848 0.56391 0.86397 0.0
C409 C 0.75343 0.62209 0.85517 0.0
H410 H 0.76007 0.51802 0.88695 0.0
C411 C 0.74703 0.68126 0.86361 0.0
H412 H 0.7636 0.51739 0.85792 0.0
C413 C 0.74525 0.68165 0.88062 0.0
C414 C 0.74933 0.62281 0.88928 0.0
H415 H 0.74304 0.72685 0.85712 0.0
H416 H 0.73998 0.72751 0.88695 0.0
C417 C 0.75628 0.56425 0.88072 0.0
C418 C 0.31671 0.24885 0.13095 0.0
C419 C 0.37605 0.24819 0.13945 0.0
H420 H 0.27042 0.25104 0.10756 0.0
C421 C 0.4346 0.24996 0.13073 0.0
H422 H 0.27084 0.24758 0.13739 0.0
C423 C 0.43435 0.25239 0.11399 0.0
C424 C 0.37557 0.25276 0.10535 0.0
H425 H 0.48126 0.24973 0.13684 0.0
H426 H 0.48085 0.25365 0.10781 0.0
C427 C 0.31646 0.25086 0.11394 0.0
C428 C 0.74525 0.93377 0.36385 0.0
C429 C 0.74693 0.87529 0.35509 0.0
H430 H 0.74552 0.97995 0.3868 0.0
C431 C 0.74979 0.81595 0.36357 0.0
H432 H 0.74307 0.98044 0.35777 0.0
C433 C 0.75096 0.81566 0.38058 0.0
C434 C 0.74978 0.87472 0.3892 0.0
H435 H 0.75115 0.77013 0.3571 0.0
H436 H 0.75317 0.76962 0.38693 0.0
C437 C 0.74682 0.9335 0.3806 0.0
C438 C 0.0636 0.24522 0.63071 0.0
C439 C 0.12203 0.24773 0.63947 0.0
H440 H 0.01756 0.24203 0.60776 0.0
C441 C 0.18144 0.24869 0.631 0.0
H442 H 0.01689 0.24418 0.63679 0.0
C443 C 0.18183 0.24769 0.61399 0.0
C444 C 0.12282 0.24525 0.60536 0.0
H445 H 0.22722 0.25057 0.63748 0.0
H446 H 0.2279 0.24884 0.60764 0.0
C447 C 0.06399 0.24383 0.61396 0.0
C448 C 0.21965 0.183 0.24907 0.0
C449 C 0.25005 0.2086 0.26292 0.0
H450 H 0.2184 0.17893 0.22321 0.0
C451 C 0.29558 0.25895 0.2612 0.0
H452 H 0.18399 0.14435 0.25012 0.0
C453 C 0.3159 0.27798 0.2458 0.0
C454 C 0.29006 0.24775 0.23196 0.0
H455 H 0.3197 0.27944 0.27167 0.0
H456 H 0.35499 0.31315 0.24476 0.0
C457 C 0.23911 0.2029 0.23368 0.0
C458 C 0.79683 0.73683 0.48334 0.0
C459 C 0.75075 0.78671 0.48164 0.0
H460 H 0.85687 0.68313 0.49976 0.0
C461 C 0.72013 0.81192 0.49549 0.0
H462 H 0.82114 0.71665 0.47286 0.0
C463 C 0.73987 0.79215 0.51088 0.0
C464 C 0.79131 0.74781 0.51258 0.0
H465 H 0.68405 0.8502 0.49446 0.0
H466 H 0.71891 0.81584 0.52135 0.0
C467 C 0.8174 0.71791 0.49873 0.0
C468 C 0.25911 0.2932 0.73362 0.0
C469 C 0.20801 0.24847 0.73196 0.0
H470 H 0.31467 0.35172 0.74999 0.0
C471 C 0.18229 0.21845 0.74583 0.0
H472 H 0.27973 0.31699 0.72312 0.0
C473 C 0.20292 0.23754 0.7612 0.0
C474 C 0.24863 0.28776 0.76287 0.0
H475 H 0.14308 0.18338 0.74483 0.0
H476 H 0.17889 0.21721 0.7717 0.0
C477 C 0.27888 0.31317 0.74899 0.0
C478 C 0.70115 0.76195 0.98337 0.0
C479 C 0.74622 0.71115 0.98168 0.0
H480 H 0.64246 0.81715 -0.00022 0.0
C481 C 0.77664 0.68569 0.99554 0.0
H482 H 0.67704 0.78236 0.97288 0.0
C483 C 0.75762 0.70621 0.01092 0.0
C484 C 0.70707 0.75156 0.01261 0.0
H485 H 0.81197 0.64672 0.99451 0.0
H486 H 0.7783 0.68235 0.0214 0.0
C487 C 0.68126 0.78162 -0.00125 0.0
C488 C 0.31269 0.22158 -0.0009 0.0
C489 C 0.28728 0.25209 0.01294 0.0
H490 H 0.31612 0.21992 0.97323 0.0
C491 C 0.23662 0.29731 0.01125 0.0
H492 H 0.35156 0.18613 0.00013 0.0
C493 C 0.21706 0.31726 0.99586 0.0
C494 C 0.2471 0.29135 0.98201 0.0
H495 H 0.21624 0.32149 0.02173 0.0
H496 H 0.18165 0.35615 0.99483 0.0
C497 C 0.29228 0.24067 0.98371 0.0
C498 C 0.77931 0.8148 0.24875 0.0
C499 C 0.74931 0.78902 0.26262 0.0
H500 H 0.78046 0.81838 0.22288 0.0
C501 C 0.70456 0.73794 0.26095 0.0
H502 H 0.8144 0.85399 0.24976 0.0
C503 C 0.68453 0.71828 0.24558 0.0
C504 C 0.70989 0.74862 0.23171 0.0
H505 H 0.68078 0.71726 0.27144 0.0
H506 H 0.64596 0.68251 0.24457 0.0
C507 C 0.76015 0.79429 0.23338 0.0
C508 C 0.20552 0.25832 0.48367 0.0
C509 C 0.24998 0.20698 0.482 0.0
H510 H 0.14737 0.31415 0.50007 0.0
C511 C 0.27999 0.1811 0.49586 0.0
H512 H 0.18175 0.2791 0.47319 0.0
C513 C 0.26108 0.20179 0.51124 0.0
C514 C 0.21108 0.24775 0.51292 0.0
H515 H 0.31487 0.14172 0.49485 0.0
H516 H 0.28136 0.17762 0.52173 0.0
C517 C 0.18575 0.27818 0.49905 0.0
C518 C 0.73804 0.70106 0.73339 0.0
C519 C 0.78822 0.74676 0.73166 0.0
H520 H 0.684 0.64158 0.74985 0.0
C521 C 0.81371 0.77733 0.74549 0.0
H522 H 0.71766 0.6768 0.72292 0.0
C523 C 0.79384 0.75792 0.76089 0.0
C524 C 0.74914 0.70684 0.76263 0.0
H525 H 0.85223 0.81312 0.74443 0.0
H526 H 0.81771 0.7788 0.77135 0.0
C527 C 0.71904 0.68079 0.74879 0.0
loop_
_geom_bond_atom_site_label_1
_geom_bond_atom_site_label_2
_geom_bond_distance
_geom_bond_site_symmetry_2
_ccdc_geom_bond_type
In0 O1 2.294 . S
In0 O2 2.326 . S
In0 O6 2.266 . S
In0 O7 2.326 . S
In0 O8 2.266 . S
In0 O9 2.326 . S
In0 O11 2.294 . S
In0 O12 2.326 . S
O1 In0 2.294 . S
O1 C10 1.240 . S
O2 In0 2.326 . S
O2 C10 1.252 . S
C3 O6 1.252 . S
C3 O7 1.260 . S
C4 O11 1.240 . S
C4 O12 1.252 . S
C5 O8 1.252 . S
C5 O9 1.260 . S
O6 In0 2.266 . S
O6 C3 1.252 . S
O7 In0 2.326 . S
O7 C3 1.260 . S
O8 In0 2.266 . S
O8 C5 1.252 . S
O9 In0 2.326 . S
O9 C5 1.260 . S
C10 O1 1.240 . S
C10 O2 1.252 . S
O11 In0 2.294 . S
O11 C4 1.240 . S
O12 In0 2.326 . S
O12 C4 1.252 . S
In13 O14 2.294 . S
In13 O15 2.326 . S
In13 O19 2.266 . S
In13 O20 2.326 . S
In13 O21 2.266 . S
In13 O22 2.326 . S
In13 O24 2.294 . S
In13 O25 2.326 . S
O14 In13 2.294 . S
O14 C23 1.240 . S
O15 In13 2.326 . S
O15 C23 1.252 . S
C16 O19 1.252 . S
C16 O20 1.260 . S
C17 O24 1.240 . S
C17 O25 1.252 . S
C18 O21 1.252 . S
C18 O22 1.260 . S
O19 In13 2.266 . S
O19 C16 1.252 . S
O20 In13 2.326 . S
O20 C16 1.260 . S
O21 In13 2.266 . S
O21 C18 1.252 . S
O22 In13 2.326 . S
O22 C18 1.260 . S
C23 O14 1.240 . S
C23 O15 1.252 . S
O24 In13 2.294 . S
O24 C17 1.240 . S
O25 In13 2.326 . S
O25 C17 1.252 . S
In26 O27 2.294 . S
In26 O28 2.326 . S
In26 O32 2.266 . S
In26 O33 2.326 . S
In26 O34 2.266 . S
In26 O35 2.326 . S
In26 O37 2.294 . S
In26 O38 2.326 . S
O27 In26 2.294 . S
O27 C36 1.240 . S
O28 In26 2.326 . S
O28 C36 1.252 . S
C29 O32 1.252 . S
C29 O33 1.260 . S
C30 O37 1.240 . S
C30 O38 1.252 . S
C31 O34 1.252 . S
C31 O35 1.260 . S
O32 In26 2.266 . S
O32 C29 1.252 . S
O33 In26 2.326 . S
O33 C29 1.260 . S
O34 In26 2.266 . S
O34 C31 1.252 . S
O35 In26 2.326 . S
O35 C31 1.260 . S
C36 O27 1.240 . S
C36 O28 1.252 . S
O37 In26 2.294 . S
O37 C30 1.240 . S
O38 In26 2.326 . S
O38 C30 1.252 . S
In39 O40 2.294 . S
In39 O41 2.326 . S
In39 O45 2.266 . S
In39 O46 2.326 . S
In39 O47 2.266 . S
In39 O48 2.326 . S
In39 O50 2.294 . S
In39 O51 2.326 . S
O40 In39 2.294 . S
O40 C49 1.240 . S
O41 In39 2.326 . S
O41 C49 1.252 . S
C42 O45 1.252 . S
C42 O46 1.260 . S
C43 O50 1.240 . S
C43 O51 1.252 . S
C44 O47 1.252 . S
C44 O48 1.260 . S
O45 In39 2.266 . S
O45 C42 1.252 . S
O46 In39 2.326 . S
O46 C42 1.260 . S
O47 In39 2.266 . S
O47 C44 1.252 . S
O48 In39 2.326 . S
O48 C44 1.260 . S
C49 O40 1.240 . S
C49 O41 1.252 . S
O50 In39 2.294 . S
O50 C43 1.240 . S
O51 In39 2.326 . S
O51 C43 1.252 . S
In52 O53 2.294 . S
In52 O54 2.326 . S
In52 O58 2.266 . S
In52 O59 2.326 . S
In52 O60 2.266 . S
In52 O61 2.326 . S
In52 O63 2.294 . S
In52 O64 2.326 . S
O53 In52 2.294 . S
O53 C62 1.240 . S
O54 In52 2.326 . S
O54 C62 1.252 . S
C55 O58 1.252 . S
C55 O59 1.260 . S
C56 O63 1.240 . S
C56 O64 1.252 . S
C57 O60 1.252 . S
C57 O61 1.260 . S
O58 In52 2.266 . S
O58 C55 1.252 . S
O59 In52 2.326 . S
O59 C55 1.260 . S
O60 In52 2.266 . S
O60 C57 1.252 . S
O61 In52 2.326 . S
O61 C57 1.260 . S
C62 O53 1.240 . S
C62 O54 1.252 . S
O63 In52 2.294 . S
O63 C56 1.240 . S
O64 In52 2.326 . S
O64 C56 1.252 . S
In65 O66 2.294 . S
In65 O67 2.326 . S
In65 O71 2.266 . S
In65 O72 2.326 . S
In65 O73 2.266 . S
In65 O74 2.326 . S
In65 O76 2.294 . S
In65 O77 2.326 . S
O66 In65 2.294 . S
O66 C75 1.240 . S
O67 In65 2.326 . S
O67 C75 1.252 . S
C68 O71 1.252 . S
C68 O72 1.260 . S
C69 O76 1.240 . S
C69 O77 1.252 . S
C70 O73 1.252 . S
C70 O74 1.260 . S
O71 In65 2.266 . S
O71 C68 1.252 . S
O72 In65 2.326 . S
O72 C68 1.260 . S
O73 In65 2.266 . S
O73 C70 1.252 . S
O74 In65 2.326 . S
O74 C70 1.260 . S
C75 O66 1.240 . S
C75 O67 1.252 . S
O76 In65 2.294 . S
O76 C69 1.240 . S
O77 In65 2.326 . S
O77 C69 1.252 . S
In78 O79 2.294 . S
In78 O80 2.326 . S
In78 O84 2.266 . S
In78 O85 2.326 . S
In78 O86 2.266 . S
In78 O87 2.326 . S
In78 O89 2.294 . S
In78 O90 2.326 . S
O79 In78 2.294 . S
O79 C88 1.240 . S
O80 In78 2.326 . S
O80 C88 1.252 . S
C81 O84 1.252 . S
C81 O85 1.260 . S
C82 O89 1.240 . S
C82 O90 1.252 . S
C83 O86 1.252 . S
C83 O87 1.260 . S
O84 In78 2.266 . S
O84 C81 1.252 . S
O85 In78 2.326 . S
O85 C81 1.260 . S
O86 In78 2.266 . S
O86 C83 1.252 . S
O87 In78 2.326 . S
O87 C83 1.260 . S
C88 O79 1.240 . S
C88 O80 1.252 . S
O89 In78 2.294 . S
O89 C82 1.240 . S
O90 In78 2.326 . S
O90 C82 1.252 . S
In91 O92 2.294 . S
In91 O93 2.326 . S
In91 O97 2.266 . S
In91 O98 2.326 . S
In91 O99 2.266 . S
In91 O100 2.326 . S
In91 O102 2.294 . S
In91 O103 2.326 . S
O92 In91 2.294 . S
O92 C101 1.240 . S
O93 In91 2.326 . S
O93 C101 1.252 . S
C94 O97 1.252 . S
C94 O98 1.260 . S
C95 O102 1.240 . S
C95 O103 1.252 . S
C96 O99 1.252 . S
C96 O100 1.260 . S
O97 In91 2.266 . S
O97 C94 1.252 . S
O98 In91 2.326 . S
O98 C94 1.260 . S
O99 In91 2.266 . S
O99 C96 1.252 . S
O100 In91 2.326 . S
O100 C96 1.260 . S
C101 O92 1.240 . S
C101 O93 1.252 . S
O102 In91 2.294 . S
O102 C95 1.240 . S
O103 In91 2.326 . S
O103 C95 1.252 . S
In104 O105 2.294 . S
In104 O106 2.326 . S
In104 O110 2.266 . S
In104 O111 2.326 . S
In104 O112 2.266 . S
In104 O113 2.326 . S
In104 O115 2.294 . S
In104 O116 2.326 . S
O105 In104 2.294 . S
O105 C114 1.240 . S
O106 In104 2.326 . S
O106 C114 1.252 . S
C107 O110 1.252 . S
C107 O111 1.260 . S
C108 O115 1.240 . S
C108 O116 1.252 . S
C109 O112 1.252 . S
C109 O113 1.260 . S
O110 In104 2.266 . S
O110 C107 1.252 . S
O111 In104 2.326 . S
O111 C107 1.260 . S
O112 In104 2.266 . S
O112 C109 1.252 . S
O113 In104 2.326 . S
O113 C109 1.260 . S
C114 O105 1.240 . S
C114 O106 1.252 . S
O115 In104 2.294 . S
O115 C108 1.240 . S
O116 In104 2.326 . S
O116 C108 1.252 . S
In117 O118 2.294 . S
In117 O119 2.326 . S
In117 O123 2.266 . S
In117 O124 2.326 . S
In117 O125 2.266 . S
In117 O126 2.326 . S
In117 O128 2.294 . S
In117 O129 2.326 . S
O118 In117 2.294 . S
O118 C127 1.240 . S
O119 In117 2.326 . S
O119 C127 1.252 . S
C120 O123 1.252 . S
C120 O124 1.260 . S
C121 O128 1.240 . S
C121 O129 1.252 . S
C122 O125 1.252 . S
C122 O126 1.260 . S
O123 In117 2.266 . S
O123 C120 1.252 . S
O124 In117 2.326 . S
O124 C120 1.260 . S
O125 In117 2.266 . S
O125 C122 1.252 . S
O126 In117 2.326 . S
O126 C122 1.260 . S
C127 O118 1.240 . S
C127 O119 1.252 . S
O128 In117 2.294 . S
O128 C121 1.240 . S
O129 In117 2.326 . S
O129 C121 1.252 . S
In130 O131 2.294 . S
In130 O132 2.326 . S
In130 O136 2.266 . S
In130 O137 2.326 . S
In130 O138 2.266 . S
In130 O139 2.326 . S
In130 O141 2.294 . S
In130 O142 2.326 . S
O131 In130 2.294 . S
O131 C140 1.240 . S
O132 In130 2.326 . S
O132 C140 1.252 . S
C133 O136 1.252 . S
C133 O137 1.260 . S
C134 O141 1.240 . S
C134 O142 1.252 . S
C135 O138 1.252 . S
C135 O139 1.260 . S
O136 In130 2.266 . S
O136 C133 1.252 . S
O137 In130 2.326 . S
O137 C133 1.260 . S
O138 In130 2.266 . S
O138 C135 1.252 . S
O139 In130 2.326 . S
O139 C135 1.260 . S
C140 O131 1.240 . S
C140 O132 1.252 . S
O141 In130 2.294 . S
O141 C134 1.240 . S
O142 In130 2.326 . S
O142 C134 1.252 . S
In143 O144 2.294 . S
In143 O145 2.326 . S
In143 O149 2.266 . S
In143 O150 2.326 . S
In143 O151 2.266 . S
In143 O152 2.326 . S
In143 O154 2.294 . S
In143 O155 2.326 . S
O144 In143 2.294 . S
O144 C153 1.240 . S
O145 In143 2.326 . S
O145 C153 1.252 . S
C146 O149 1.252 . S
C146 O150 1.260 . S
C147 O154 1.240 . S
C147 O155 1.252 . S
C148 O151 1.252 . S
C148 O152 1.260 . S
O149 In143 2.266 . S
O149 C146 1.252 . S
O150 In143 2.326 . S
O150 C146 1.260 . S
O151 In143 2.266 . S
O151 C148 1.252 . S
O152 In143 2.326 . S
O152 C148 1.260 . S
C153 O144 1.240 . S
C153 O145 1.252 . S
O154 In143 2.294 . S
O154 C147 1.240 . S
O155 In143 2.326 . S
O155 C147 1.252 . S
In156 O157 2.294 . S
In156 O158 2.326 . S
In156 O162 2.266 . S
In156 O163 2.326 . S
In156 O164 2.266 . S
In156 O165 2.326 . S
In156 O167 2.294 . S
In156 O168 2.326 . S
O157 In156 2.294 . S
O157 C166 1.240 . S
O158 In156 2.326 . S
O158 C166 1.252 . S
C159 O162 1.252 . S
C159 O163 1.260 . S
C160 O167 1.240 . S
C160 O168 1.252 . S
C161 O164 1.252 . S
C161 O165 1.260 . S
O162 In156 2.266 . S
O162 C159 1.252 . S
O163 In156 2.326 . S
O163 C159 1.260 . S
O164 In156 2.266 . S
O164 C161 1.252 . S
O165 In156 2.326 . S
O165 C161 1.260 . S
C166 O157 1.240 . S
C166 O158 1.252 . S
O167 In156 2.294 . S
O167 C160 1.240 . S
O168 In156 2.326 . S
O168 C160 1.252 . S
In169 O170 2.294 . S
In169 O171 2.326 . S
In169 O175 2.266 . S
In169 O176 2.326 . S
In169 O177 2.266 . S
In169 O178 2.326 . S
In169 O180 2.294 . S
In169 O181 2.326 . S
O170 In169 2.294 . S
O170 C179 1.240 . S
O171 In169 2.326 . S
O171 C179 1.252 . S
C172 O175 1.252 . S
C172 O176 1.260 . S
C173 O180 1.240 . S
C173 O181 1.252 . S
C174 O177 1.252 . S
C174 O178 1.260 . S
O175 In169 2.266 . S
O175 C172 1.252 . S
O176 In169 2.326 . S
O176 C172 1.260 . S
O177 In169 2.266 . S
O177 C174 1.252 . S
O178 In169 2.326 . S
O178 C174 1.260 . S
C179 O170 1.240 . S
C179 O171 1.252 . S
O180 In169 2.294 . S
O180 C173 1.240 . S
O181 In169 2.326 . S
O181 C173 1.252 . S
In182 O183 2.294 . S
In182 O184 2.326 . S
In182 O188 2.266 . S
In182 O189 2.326 . S
In182 O190 2.266 . S
In182 O191 2.326 . S
In182 O193 2.294 . S
In182 O194 2.326 . S
O183 In182 2.294 . S
O183 C192 1.240 . S
O184 In182 2.326 . S
O184 C192 1.252 . S
C185 O188 1.252 . S
C185 O189 1.260 . S
C186 O193 1.240 . S
C186 O194 1.252 . S
C187 O190 1.252 . S
C187 O191 1.260 . S
O188 In182 2.266 . S
O188 C185 1.252 . S
O189 In182 2.326 . S
O189 C185 1.260 . S
O190 In182 2.266 . S
O190 C187 1.252 . S
O191 In182 2.326 . S
O191 C187 1.260 . S
C192 O183 1.240 . S
C192 O184 1.252 . S
O193 In182 2.294 . S
O193 C186 1.240 . S
O194 In182 2.326 . S
O194 C186 1.252 . S
In195 O196 2.294 . S
In195 O197 2.326 . S
In195 O201 2.266 . S
In195 O202 2.326 . S
In195 O203 2.266 . S
In195 O204 2.326 . S
In195 O206 2.294 . S
In195 O207 2.326 . S
O196 In195 2.294 . S
O196 C205 1.240 . S
O197 In195 2.326 . S
O197 C205 1.252 . S
C198 O201 1.252 . S
C198 O202 1.260 . S
C199 O206 1.240 . S
C199 O207 1.252 . S
C200 O203 1.252 . S
C200 O204 1.260 . S
O201 In195 2.266 . S
O201 C198 1.252 . S
O202 In195 2.326 . S
O202 C198 1.260 . S
O203 In195 2.266 . S
O203 C200 1.252 . S
O204 In195 2.326 . S
O204 C200 1.260 . S
C205 O196 1.240 . S
C205 O197 1.252 . S
O206 In195 2.294 . S
O206 C199 1.240 . S
O207 In195 2.326 . S
O207 C199 1.252 . S
C208 C209 1.387 . S
C208 H212 0.950 . S
C208 C217 1.390 1_665 S
C209 C208 1.387 . S
C209 C211 1.387 . S
H210 C217 0.950 . S
C211 C209 1.387 . S
C211 C213 1.390 1_665 S
C211 H215 0.950 . S
H212 C208 0.950 . S
C213 C211 1.390 1_445 S
C213 C214 1.387 . S
C213 H216 0.950 . S
C214 C213 1.387 . S
C214 C217 1.387 . S
H215 C211 0.950 . S
H216 C213 0.950 . S
C217 C208 1.390 1_445 S
C217 H210 0.950 . S
C217 C214 1.387 . S
C218 C219 1.387 . S
C218 H222 0.950 . S
C218 C227 1.390 1_655 S
C219 C218 1.387 . S
C219 C221 1.387 . S
H220 C227 0.950 . S
C221 C219 1.387 . S
C221 C223 1.390 1_655 S
C221 H225 0.950 . S
H222 C218 0.950 . S
C223 C221 1.390 1_455 S
C223 C224 1.387 . S
C223 H226 0.950 . S
C224 C223 1.387 . S
C224 C227 1.387 . S
H225 C221 0.950 . S
H226 C223 0.950 . S
C227 C218 1.390 1_455 S
C227 H220 0.950 . S
C227 C224 1.387 . S
C228 C229 1.387 . S
C228 H232 0.950 . S
C228 C237 1.390 . S
C229 C228 1.387 . S
C229 C231 1.387 . S
H230 C237 0.950 . S
C231 C229 1.387 . S
C231 C233 1.390 . S
C231 H235 0.950 . S
H232 C228 0.950 . S
C233 C231 1.390 . S
C233 C234 1.387 . S
C233 H236 0.950 . S
C234 C233 1.387 . S
C234 C237 1.387 . S
H235 C231 0.950 . S
H236 C233 0.950 . S
C237 C228 1.390 . S
C237 H230 0.950 . S
C237 C234 1.387 . S
C238 C239 1.387 . S
C238 H242 0.950 . S
C238 C247 1.390 1_545 S
C239 C238 1.387 . S
C239 C241 1.387 . S
H240 C247 0.950 . S
C241 C239 1.387 . S
C241 C243 1.390 1_545 S
C241 H245 0.950 . S
H242 C238 0.950 . S
C243 C241 1.390 1_565 S
C243 C244 1.387 . S
C243 H246 0.950 . S
C244 C243 1.387 . S
C244 C247 1.387 . S
H245 C241 0.950 . S
H246 C243 0.950 . S
C247 C238 1.390 1_565 S
C247 H240 0.950 . S
C247 C244 1.387 . S
C248 C249 1.387 . S
C248 H252 0.950 . S
C248 C257 1.390 1_455 S
C249 C248 1.387 . S
C249 C251 1.387 . S
H250 C257 0.950 . S
C251 C249 1.387 . S
C251 C253 1.390 1_455 S
C251 H255 0.950 . S
H252 C248 0.950 . S
C253 C251 1.390 1_655 S
C253 C254 1.387 . S
C253 H256 0.950 . S
C254 C253 1.387 . S
C254 C257 1.387 . S
H255 C251 0.950 . S
H256 C253 0.950 . S
C257 C248 1.390 1_655 S
C257 H250 0.950 . S
C257 C254 1.387 . S
C258 C259 1.387 . S
C258 H262 0.950 . S
C258 C267 1.390 . S
C259 C258 1.387 . S
C259 C261 1.387 . S
H260 C267 0.950 . S
C261 C259 1.387 . S
C261 C263 1.390 . S
C261 H265 0.950 . S
H262 C258 0.950 . S
C263 C261 1.390 . S
C263 C264 1.387 . S
C263 H266 0.950 . S
C264 C263 1.387 . S
C264 C267 1.387 . S
H265 C261 0.950 . S
H266 C263 0.950 . S
C267 C258 1.390 . S
C267 H260 0.950 . S
C267 C264 1.387 . S
C268 C269 1.387 . S
C268 H272 0.950 . S
C268 C277 1.390 1_545 S
C269 C268 1.387 . S
C269 C271 1.387 . S
H270 C277 0.950 . S
C271 C269 1.387 . S
C271 C273 1.390 1_545 S
C271 H275 0.950 . S
H272 C268 0.950 . S
C273 C271 1.390 1_565 S
C273 C274 1.387 . S
C273 H276 0.950 . S
C274 C273 1.387 . S
C274 C277 1.387 . S
H275 C271 0.950 . S
H276 C273 0.950 . S
C277 C268 1.390 1_565 S
C277 H270 0.950 . S
C277 C274 1.387 . S
C278 C279 1.387 . S
C278 H282 0.950 . S
C278 C287 1.390 1_445 S
C279 C278 1.387 . S
C279 C281 1.387 . S
H280 C287 0.950 . S
C281 C279 1.387 . S
C281 C283 1.390 1_445 S
C281 H285 0.950 . S
H282 C278 0.950 . S
C283 C281 1.390 1_665 S
C283 C284 1.387 . S
C283 H286 0.950 . S
C284 C283 1.387 . S
C284 C287 1.387 . S
H285 C281 0.950 . S
H286 C283 0.950 . S
C287 C278 1.390 1_665 S
C287 H280 0.950 . S
C287 C284 1.387 . S
C288 C289 1.387 . S
C288 H292 0.950 . S
C288 C297 1.390 1_565 S
C289 C288 1.387 . S
C289 C291 1.387 . S
H290 C297 0.950 . S
C291 C289 1.387 . S
C291 C293 1.390 1_565 S
C291 H295 0.950 . S
H292 C288 0.950 . S
C293 C291 1.390 1_545 S
C293 C294 1.387 . S
C293 H296 0.950 . S
C294 C293 1.387 . S
C294 C297 1.387 . S
H295 C291 0.950 . S
H296 C293 0.950 . S
C297 C288 1.390 1_545 S
C297 H290 0.950 . S
C297 C294 1.387 . S
C298 C299 1.387 . S
C298 H302 0.950 . S
C298 C307 1.390 1_665 S
C299 C298 1.387 . S
C299 C301 1.387 . S
H300 C307 0.950 . S
C301 C299 1.387 . S
C301 C303 1.390 1_665 S
C301 H305 0.950 . S
H302 C298 0.950 . S
C303 C301 1.390 1_445 S
C303 C304 1.387 . S
C303 H306 0.950 . S
C304 C303 1.387 . S
C304 C307 1.387 . S
H305 C301 0.950 . S
H306 C303 0.950 . S
C307 C298 1.390 1_445 S
C307 H300 0.950 . S
C307 C304 1.387 . S
C308 C309 1.387 . S
C308 H312 0.950 . S
C308 C317 1.390 1_455 S
C309 C308 1.387 . S
C309 C311 1.387 . S
H310 C317 0.950 . S
C311 C309 1.387 . S
C311 C313 1.390 1_455 S
C311 H315 0.950 . S
H312 C308 0.950 . S
C313 C311 1.390 1_655 S
C313 C314 1.387 . S
C313 H316 0.950 . S
C314 C313 1.387 . S
C314 C317 1.387 . S
H315 C311 0.950 . S
H316 C313 0.950 . S
C317 C308 1.390 1_655 S
C317 H310 0.950 . S
C317 C314 1.387 . S
C318 C319 1.387 . S
C318 H322 0.950 . S
C318 C327 1.390 . S
C319 C318 1.387 . S
C319 C321 1.387 . S
H320 C327 0.950 . S
C321 C319 1.387 . S
C321 C323 1.390 . S
C321 H325 0.950 . S
H322 C318 0.950 . S
C323 C321 1.390 . S
C323 C324 1.387 . S
C323 H326 0.950 . S
C324 C323 1.387 . S
C324 C327 1.387 . S
H325 C321 0.950 . S
H326 C323 0.950 . S
C327 C318 1.390 . S
C327 H320 0.950 . S
C327 C324 1.387 . S
C328 C329 1.387 . S
C328 H332 0.950 . S
C328 C337 1.390 . S
C329 C328 1.387 . S
C329 C331 1.387 . S
H330 C337 0.950 . S
C331 C329 1.387 . S
C331 C333 1.390 . S
C331 H335 0.950 . S
H332 C328 0.950 . S
C333 C331 1.390 . S
C333 C334 1.387 . S
C333 H336 0.950 . S
C334 C333 1.387 . S
C334 C337 1.387 . S
H335 C331 0.950 . S
H336 C333 0.950 . S
C337 C328 1.390 . S
C337 H330 0.950 . S
C337 C334 1.387 . S
C338 C339 1.387 . S
C338 H342 0.950 . S
C338 C347 1.390 1_565 S
C339 C338 1.387 . S
C339 C341 1.387 . S
H340 C347 0.950 . S
C341 C339 1.387 . S
C341 C343 1.390 1_565 S
C341 H345 0.950 . S
H342 C338 0.950 . S
C343 C341 1.390 1_545 S
C343 C344 1.387 . S
C343 H346 0.950 . S
C344 C343 1.387 . S
C344 C347 1.387 . S
H345 C341 0.950 . S
H346 C343 0.950 . S
C347 C338 1.390 1_545 S
C347 H340 0.950 . S
C347 C344 1.387 . S
C348 C349 1.387 . S
C348 H352 0.950 . S
C348 C357 1.390 1_665 S
C349 C348 1.387 . S
C349 C351 1.387 . S
H350 C357 0.950 . S
C351 C349 1.387 . S
C351 C353 1.390 1_665 S
C351 H355 0.950 . S
H352 C348 0.950 . S
C353 C351 1.390 1_445 S
C353 C354 1.387 . S
C353 H356 0.950 . S
C354 C353 1.387 . S
C354 C357 1.387 . S
H355 C351 0.950 . S
H356 C353 0.950 . S
C357 C348 1.390 1_445 S
C357 H350 0.950 . S
C357 C354 1.387 . S
C358 C359 1.387 . S
C358 H362 0.950 . S
C358 C367 1.390 1_455 S
C359 C358 1.387 . S
C359 C361 1.387 . S
H360 C367 0.950 . S
C361 C359 1.387 . S
C361 C363 1.390 1_455 S
C361 H365 0.950 . S
H362 C358 0.950 . S
C363 C361 1.390 1_655 S
C363 C364 1.387 . S
C363 H366 0.950 . S
C364 C363 1.387 . S
C364 C367 1.387 . S
H365 C361 0.950 . S
H366 C363 0.950 . S
C367 C358 1.390 1_655 S
C367 H360 0.950 . S
C367 C364 1.387 . S
C368 C369 1.387 . S
C368 H372 0.950 . S
C368 C377 1.390 . S
C369 C368 1.387 . S
C369 C371 1.387 . S
H370 C377 0.950 . S
C371 C369 1.387 . S
C371 C373 1.390 . S
C371 H375 0.950 . S
H372 C368 0.950 . S
C373 C371 1.390 . S
C373 C374 1.387 . S
C373 H376 0.950 . S
C374 C373 1.387 . S
C374 C377 1.387 . S
H375 C371 0.950 . S
H376 C373 0.950 . S
C377 C368 1.390 . S
C377 H370 0.950 . S
C377 C374 1.387 . S
C378 C379 1.387 . S
C378 H382 0.950 . S
C378 C387 1.390 . S
C379 C378 1.387 . S
C379 C381 1.387 . S
H380 C387 0.950 . S
C381 C379 1.387 . S
C381 C383 1.390 . S
C381 H385 0.950 . S
H382 C378 0.950 . S
C383 C381 1.390 . S
C383 C384 1.387 . S
C383 H386 0.950 . S
C384 C383 1.387 . S
C384 C387 1.387 . S
H385 C381 0.950 . S
H386 C383 0.950 . S
C387 C378 1.390 . S
C387 H380 0.950 . S
C387 C384 1.387 . S
C388 C389 1.387 . S
C388 H392 0.950 . S
C388 C397 1.390 . S
C389 C388 1.387 . S
C389 C391 1.387 . S
H390 C397 0.950 . S
C391 C389 1.387 . S
C391 C393 1.390 . S
C391 H395 0.950 . S
H392 C388 0.950 . S
C393 C391 1.390 . S
C393 C394 1.387 . S
C393 H396 0.950 . S
C394 C393 1.387 . S
C394 C397 1.387 . S
H395 C391 0.950 . S
H396 C393 0.950 . S
C397 C388 1.390 . S
C397 H390 0.950 . S
C397 C394 1.387 . S
C398 C399 1.387 . S
C398 H402 0.950 . S
C398 C407 1.390 . S
C399 C398 1.387 . S
C399 C401 1.387 . S
H400 C407 0.950 . S
C401 C399 1.387 . S
C401 C403 1.390 . S
C401 H405 0.950 . S
H402 C398 0.950 . S
C403 C401 1.390 . S
C403 C404 1.387 . S
C403 H406 0.950 . S
C404 C403 1.387 . S
C404 C407 1.387 . S
H405 C401 0.950 . S
H406 C403 0.950 . S
C407 C398 1.390 . S
C407 H400 0.950 . S
C407 C404 1.387 . S
C408 C409 1.387 . S
C408 H412 0.950 . S
C408 C417 1.390 . S
C409 C408 1.387 . S
C409 C411 1.387 . S
H410 C417 0.950 . S
C411 C409 1.387 . S
C411 C413 1.390 . S
C411 H415 0.950 . S
H412 C408 0.950 . S
C413 C411 1.390 . S
C413 C414 1.387 . S
C413 H416 0.950 . S
C414 C413 1.387 . S
C414 C417 1.387 . S
H415 C411 0.950 . S
H416 C413 0.950 . S
C417 C408 1.390 . S
C417 H410 0.950 . S
C417 C414 1.387 . S
C418 C419 1.387 . S
C418 H422 0.950 . S
C418 C427 1.390 . S
C419 C418 1.387 . S
C419 C421 1.387 . S
H420 C427 0.950 . S
C421 C419 1.387 . S
C421 C423 1.390 . S
C421 H425 0.950 . S
H422 C418 0.950 . S
C423 C421 1.390 . S
C423 C424 1.387 . S
C423 H426 0.950 . S
C424 C423 1.387 . S
C424 C427 1.387 . S
H425 C421 0.950 . S
H426 C423 0.950 . S
C427 C418 1.390 . S
C427 H420 0.950 . S
C427 C424 1.387 . S
C428 C429 1.387 . S
C428 H432 0.950 . S
C428 C437 1.390 . S
C429 C428 1.387 . S
C429 C431 1.387 . S
H430 C437 0.950 . S
C431 C429 1.387 . S
C431 C433 1.390 . S
C431 H435 0.950 . S
H432 C428 0.950 . S
C433 C431 1.390 . S
C433 C434 1.387 . S
C433 H436 0.950 . S
C434 C433 1.387 . S
C434 C437 1.387 . S
H435 C431 0.950 . S
H436 C433 0.950 . S
C437 C428 1.390 . S
C437 H430 0.950 . S
C437 C434 1.387 . S
C438 C439 1.387 . S
C438 H442 0.950 . S
C438 C447 1.390 . S
C439 C438 1.387 . S
C439 C441 1.387 . S
H440 C447 0.950 . S
C441 C439 1.387 . S
C441 C443 1.390 . S
C441 H445 0.950 . S
H442 C438 0.950 . S
C443 C441 1.390 . S
C443 C444 1.387 . S
C443 H446 0.950 . S
C444 C443 1.387 . S
C444 C447 1.387 . S
H445 C441 0.950 . S
H446 C443 0.950 . S
C447 C438 1.390 . S
C447 H440 0.950 . S
C447 C444 1.387 . S
C448 C449 1.387 . S
C448 H452 0.950 . S
C448 C457 1.390 . S
C449 C448 1.387 . S
C449 C451 1.387 . S
H450 C457 0.950 . S
C451 C449 1.387 . S
C451 C453 1.390 . S
C451 H455 0.950 . S
H452 C448 0.950 . S
C453 C451 1.390 . S
C453 C454 1.387 . S
C453 H456 0.950 . S
C454 C453 1.387 . S
C454 C457 1.387 . S
H455 C451 0.950 . S
H456 C453 0.950 . S
C457 C448 1.390 . S
C457 H450 0.950 . S
C457 C454 1.387 . S
C458 C459 1.387 . S
C458 H462 0.950 . S
C458 C467 1.390 . S
C459 C458 1.387 . S
C459 C461 1.387 . S
H460 C467 0.950 . S
C461 C459 1.387 . S
C461 C463 1.390 . S
C461 H465 0.950 . S
H462 C458 0.950 . S
C463 C461 1.390 . S
C463 C464 1.387 . S
C463 H466 0.950 . S
C464 C463 1.387 . S
C464 C467 1.387 . S
H465 C461 0.950 . S
H466 C463 0.950 . S
C467 C458 1.390 . S
C467 H460 0.950 . S
C467 C464 1.387 . S
C468 C469 1.387 . S
C468 H472 0.950 . S
C468 C477 1.390 . S
C469 C468 1.387 . S
C469 C471 1.387 . S
H470 C477 0.950 . S
C471 C469 1.387 . S
C471 C473 1.390 . S
C471 H475 0.950 . S
H472 C468 0.950 . S
C473 C471 1.390 . S
C473 C474 1.387 . S
C473 H476 0.950 . S
C474 C473 1.387 . S
C474 C477 1.387 . S
H475 C471 0.950 . S
H476 C473 0.950 . S
C477 C468 1.390 . S
C477 H470 0.950 . S
C477 C474 1.387 . S
C478 C479 1.387 . S
C478 H482 0.950 . S
C478 C487 1.390 1_556 S
C479 C478 1.387 . S
C479 C481 1.387 . S
H480 C487 0.950 . S
C481 C479 1.387 . S
C481 C483 1.390 1_556 S
C481 H485 0.950 . S
H482 C478 0.950 . S
C483 C481 1.390 1_554 S
C483 C484 1.387 . S
C483 H486 0.950 . S
C484 C483 1.387 . S
C484 C487 1.387 . S
H485 C481 0.950 . S
H486 C483 0.950 . S
C487 C478 1.390 1_554 S
C487 H480 0.950 . S
C487 C484 1.387 . S
C488 C489 1.387 . S
C488 H492 0.950 . S
C488 C497 1.390 1_554 S
C489 C488 1.387 . S
C489 C491 1.387 . S
H490 C497 0.950 . S
C491 C489 1.387 . S
C491 C493 1.390 1_554 S
C491 H495 0.950 . S
H492 C488 0.950 . S
C493 C491 1.390 1_556 S
C493 C494 1.387 . S
C493 H496 0.950 . S
C494 C493 1.387 . S
C494 C497 1.387 . S
H495 C491 0.950 . S
H496 C493 0.950 . S
C497 C488 1.390 1_556 S
C497 H490 0.950 . S
C497 C494 1.387 . S
C498 C499 1.387 . S
C498 H502 0.950 . S
C498 C507 1.390 . S
C499 C498 1.387 . S
C499 C501 1.387 . S
H500 C507 0.950 . S
C501 C499 1.387 . S
C501 C503 1.390 . S
C501 H505 0.950 . S
H502 C498 0.950 . S
C503 C501 1.390 . S
C503 C504 1.387 . S
C503 H506 0.950 . S
C504 C503 1.387 . S
C504 C507 1.387 . S
H505 C501 0.950 . S
H506 C503 0.950 . S
C507 C498 1.390 . S
C507 H500 0.950 . S
C507 C504 1.387 . S
C508 C509 1.387 . S
C508 H512 0.950 . S
C508 C517 1.390 . S
C509 C508 1.387 . S
C509 C511 1.387 . S
H510 C517 0.950 . S
C511 C509 1.387 . S
C511 C513 1.390 . S
C511 H515 0.950 . S
H512 C508 0.950 . S
C513 C511 1.390 . S
C513 C514 1.387 . S
C513 H516 0.950 . S
C514 C513 1.387 . S
C514 C517 1.387 . S
H515 C511 0.950 . S
H516 C513 0.950 . S
C517 C508 1.390 . S
C517 H510 0.950 . S
C517 C514 1.387 . S
C518 C519 1.387 . S
C518 H522 0.950 . S
C518 C527 1.390 . S
C519 C518 1.387 . S
C519 C521 1.387 . S
H520 C527 0.950 . S
C521 C519 1.387 . S
C521 C523 1.390 . S
C521 H525 0.950 . S
H522 C518 0.950 . S
C523 C521 1.390 . S
C523 C524 1.387 . S
C523 H526 0.950 . S
C524 C523 1.387 . S
C524 C527 1.387 . S
H525 C521 0.950 . S
H526 C523 0.950 . S
C527 C518 1.390 . S
C527 H520 0.950 . S
C527 C524 1.387 . S
C209 C134 1.673 . S
C214 C4 1.673 . S
C219 C17 1.673 . S
C224 C153 1.673 . S
C229 C108 1.673 . S
C234 C36 1.673 . S
C239 C121 1.672 . S
C244 C43 1.672 . S
C249 C56 1.673 . S
C254 C186 1.673 . S
C259 C199 1.672 . S
C264 C69 1.672 . S
C269 C82 1.673 . S
C274 C166 1.673 . S
C279 C173 1.673 . S
C284 C95 1.673 . S
C289 C135 1.345 . S
C294 C5 1.345 . S
C299 C18 1.345 . S
C304 C146 1.345 . S
C309 C29 1.345 . S
C314 C109 1.345 . S
C319 C44 1.345 . S
C324 C122 1.345 . S
C329 C57 1.345 . S
C334 C187 1.345 . S
C339 C70 1.345 . S
C344 C200 1.345 . S
C349 C159 1.345 . S
C354 C83 1.345 . S
C359 C174 1.345 . S
C364 C96 1.345 . S
C369 C10 1.458 . S
C374 C88 1.458 . S
C379 C23 1.458 . S
C384 C101 1.458 . S
C389 C30 1.456 . S
C394 C62 1.456 . S
C399 C49 1.458 . S
C404 C75 1.458 . S
C409 C114 1.458 . S
C414 C192 1.458 . S
C419 C205 1.456 . S
C424 C127 1.456 . S
C429 C140 1.458 . S
C434 C160 1.458 . S
C439 C179 1.458 . S
C444 C147 1.458 . S
C449 C3 1.384 . S
C454 C198 1.385 . S
C459 C161 1.385 . S
C464 C16 1.383 . S
C469 C172 1.385 . S
C474 C31 1.384 . S
C479 C185 1.383 . S
C484 C42 1.382 . S
C489 C120 1.382 . S
C494 C55 1.383 . S
C499 C133 1.383 . S
C504 C68 1.384 . S
C509 C81 1.383 . S
C514 C148 1.382 . S
C519 C94 1.385 . S
C524 C107 1.384 . S
