# Generated by pormake.
# Topology vbx, (6)-cn, num edge types: 1
# Building blocks:
#     Node 0, Type 0, BuildingBlock: OJICUG_clean_sbu_0, # of connection points: 6
#     Node 1, Type 0, BuildingBlock: OJICUG_clean_sbu_0, # of connection points: 6
#     Node 2, Type 0, BuildingBlock: OJICUG_clean_sbu_0, # of connection points: 6
#     Node 3, Type 0, BuildingBlock: OJICUG_clean_sbu_0, # of connection points: 6
#     Node 4, Type 0, BuildingBlock: OJICUG_clean_sbu_0, # of connection points: 6
#     Node 5, Type 0, BuildingBlock: OJICUG_clean_sbu_0, # of connection points: 6
#     Node 6, Type 0, BuildingBlock: OJICUG_clean_sbu_0, # of connection points: 6
#     Node 7, Type 0, BuildingBlock: OJICUG_clean_sbu_0, # of connection points: 6
#     Node 8, Type 0, BuildingBlock: OJICUG_clean_sbu_0, # of connection points: 6
#     Node 9, Type 0, BuildingBlock: OJICUG_clean_sbu_0, # of connection points: 6
#     Node 10, Type 0, BuildingBlock: OJICUG_clean_sbu_0, # of connection points: 6
#     Node 11, Type 0, BuildingBlock: OJICUG_clean_sbu_0, # of connection points: 6
#     Node 12, Type 0, BuildingBlock: OJICUG_clean_sbu_0, # of connection points: 6
#     Node 13, Type 0, BuildingBlock: OJICUG_clean_sbu_0, # of connection points: 6
#     Node 14, Type 0, BuildingBlock: OJICUG_clean_sbu_0, # of connection points: 6
#     Node 15, Type 0, BuildingBlock: OJICUG_clean_sbu_0, # of connection points: 6
#     Edge 16, Type (0, 0), BuildingBlock: AJUNOK_clean_linker_0, # of connection points: 2
#     Edge 17, Type (0, 0), BuildingBlock: AJUNOK_clean_linker_0, # of connection points: 2
#     Edge 18, Type (0, 0), BuildingBlock: AJUNOK_clean_linker_0, # of connection points: 2
#     Edge 19, Type (0, 0), BuildingBlock: AJUNOK_clean_linker_0, # of connection points: 2
#     Edge 20, Type (0, 0), BuildingBlock: AJUNOK_clean_linker_0, # of connection points: 2
#     Edge 21, Type (0, 0), BuildingBlock: AJUNOK_clean_linker_0, # of connection points: 2
#     Edge 22, Type (0, 0), BuildingBlock: AJUNOK_clean_linker_0, # of connection points: 2
#     Edge 23, Type (0, 0), BuildingBlock: AJUNOK_clean_linker_0, # of connection points: 2
#     Edge 24, Type (0, 0), BuildingBlock: AJUNOK_clean_linker_0, # of connection points: 2
#     Edge 25, Type (0, 0), BuildingBlock: AJUNOK_clean_linker_0, # of connection points: 2
#     Edge 26, Type (0, 0), BuildingBlock: AJUNOK_clean_linker_0, # of connection points: 2
#     Edge 27, Type (0, 0), BuildingBlock: AJUNOK_clean_linker_0, # of connection points: 2
#     Edge 28, Type (0, 0), BuildingBlock: AJUNOK_clean_linker_0, # of connection points: 2
#     Edge 29, Type (0, 0), BuildingBlock: AJUNOK_clean_linker_0, # of connection points: 2
#     Edge 30, Type (0, 0), BuildingBlock: AJUNOK_clean_linker_0, # of connection points: 2
#     Edge 31, Type (0, 0), BuildingBlock: AJUNOK_clean_linker_0, # of connection points: 2
#     Edge 32, Type (0, 0), BuildingBlock: AJUNOK_clean_linker_0, # of connection points: 2
#     Edge 33, Type (0, 0), BuildingBlock: AJUNOK_clean_linker_0, # of connection points: 2
#     Edge 34, Type (0, 0), BuildingBlock: AJUNOK_clean_linker_0, # of connection points: 2
#     Edge 35, Type (0, 0), BuildingBlock: AJUNOK_clean_linker_0, # of connection points: 2
#     Edge 36, Type (0, 0), BuildingBlock: AJUNOK_clean_linker_0, # of connection points: 2
#     Edge 37, Type (0, 0), BuildingBlock: AJUNOK_clean_linker_0, # of connection points: 2
#     Edge 38, Type (0, 0), BuildingBlock: AJUNOK_clean_linker_0, # of connection points: 2
#     Edge 39, Type (0, 0), BuildingBlock: AJUNOK_clean_linker_0, # of connection points: 2
#     Edge 40, Type (0, 0), BuildingBlock: AJUNOK_clean_linker_0, # of connection points: 2
#     Edge 41, Type (0, 0), BuildingBlock: AJUNOK_clean_linker_0, # of connection points: 2
#     Edge 42, Type (0, 0), BuildingBlock: AJUNOK_clean_linker_0, # of connection points: 2
#     Edge 43, Type (0, 0), BuildingBlock: AJUNOK_clean_linker_0, # of connection points: 2
#     Edge 44, Type (0, 0), BuildingBlock: AJUNOK_clean_linker_0, # of connection points: 2
#     Edge 45, Type (0, 0), BuildingBlock: AJUNOK_clean_linker_0, # of connection points: 2
#     Edge 46, Type (0, 0), BuildingBlock: AJUNOK_clean_linker_0, # of connection points: 2
#     Edge 47, Type (0, 0), BuildingBlock: AJUNOK_clean_linker_0, # of connection points: 2
#     Edge 48, Type (0, 0), BuildingBlock: AJUNOK_clean_linker_0, # of connection points: 2
#     Edge 49, Type (0, 0), BuildingBlock: AJUNOK_clean_linker_0, # of connection points: 2
#     Edge 50, Type (0, 0), BuildingBlock: AJUNOK_clean_linker_0, # of connection points: 2
#     Edge 51, Type (0, 0), BuildingBlock: AJUNOK_clean_linker_0, # of connection points: 2
#     Edge 52, Type (0, 0), BuildingBlock: AJUNOK_clean_linker_0, # of connection points: 2
#     Edge 53, Type (0, 0), BuildingBlock: AJUNOK_clean_linker_0, # of connection points: 2
#     Edge 54, Type (0, 0), BuildingBlock: AJUNOK_clean_linker_0, # of connection points: 2
#     Edge 55, Type (0, 0), BuildingBlock: AJUNOK_clean_linker_0, # of connection points: 2
#     Edge 56, Type (0, 0), BuildingBlock: AJUNOK_clean_linker_0, # of connection points: 2
#     Edge 57, Type (0, 0), BuildingBlock: AJUNOK_clean_linker_0, # of connection points: 2
#     Edge 58, Type (0, 0), BuildingBlock: AJUNOK_clean_linker_0, # of connection points: 2
#     Edge 59, Type (0, 0), BuildingBlock: AJUNOK_clean_linker_0, # of connection points: 2
#     Edge 60, Type (0, 0), BuildingBlock: AJUNOK_clean_linker_0, # of connection points: 2
#     Edge 61, Type (0, 0), BuildingBlock: AJUNOK_clean_linker_0, # of connection points: 2
#     Edge 62, Type (0, 0), BuildingBlock: AJUNOK_clean_linker_0, # of connection points: 2
#     Edge 63, Type (0, 0), BuildingBlock: AJUNOK_clean_linker_0, # of connection points: 2
# Relax obj value: 0.244
# Max RMSD: 0.241
# Mean RMSD: 0.241
data_MOF--net-vbx--node1-OJICUG_clean_sbu_0--edge1-AJUNOK_clean_linker_0
_symmetry_space_group_name_H-M    P1
_symmetry_Int_Tables_number       1
_symmetry_cell_setting            triclinic
loop_
_symmetry_equiv_pos_as_xyz
'x, y, z'
_cell_length_a     36.384525
_cell_length_b     21.851527
_cell_length_c     44.1716
_cell_angle_alpha  90.112297
_cell_angle_beta   89.981042
_cell_angle_gamma 89.935645
loop_
_atom_site_label
_atom_site_type_symbol
_atom_site_fract_x
_atom_site_fract_y
_atom_site_fract_z
_atom_type_partial_charge
Sc0 Sc 0.34764 0.44121 0.11358 0.0
Sc1 Sc 0.27345 0.34283 0.10937 0.0
Sc2 Sc 0.35414 0.31151 0.06953 0.0
O3 O 0.32485 0.36451 0.09779 0.0
C4 C 0.36963 0.44528 0.04627 0.0
C5 C 0.26398 0.48391 0.10762 0.0
C6 C 0.27823 0.31005 0.03835 0.0
C7 C 0.31186 0.38681 0.17128 0.0
C8 C 0.41561 0.34794 0.11277 0.0
C9 C 0.30587 0.21163 0.10544 0.0
O10 O 0.35306 0.47222 0.06784 0.0
O11 O 0.25229 0.43241 0.09845 0.0
O12 O 0.31261 0.31824 0.03624 0.0
O13 O 0.34021 0.40943 0.15864 0.0
O14 O 0.39758 0.30318 0.10197 0.0
O15 O 0.28918 0.25164 0.12116 0.0
O16 O 0.40252 0.40206 0.11348 0.0
O17 O 0.28354 0.36893 0.15648 0.0
O18 O 0.32907 0.22623 0.08505 0.0
O19 O 0.29665 0.49162 0.11698 0.0
O20 O 0.38076 0.39006 0.04823 0.0
O21 O 0.26067 0.31248 0.06344 0.0
Sc22 Sc 0.63615 0.56042 0.61203 0.0
Sc23 Sc 0.71201 0.65681 0.61017 0.0
Sc24 Sc 0.6321 0.69389 0.57048 0.0
O25 O 0.66035 0.63732 0.59772 0.0
C26 C 0.612 0.56213 0.54476 0.0
C27 C 0.71964 0.5153 0.60504 0.0
C28 C 0.70841 0.69701 0.54011 0.0
C29 C 0.67433 0.60539 0.67097 0.0
C30 C 0.56955 0.65691 0.61304 0.0
C31 C 0.68079 0.78912 0.60893 0.0
O32 O 0.62743 0.53243 0.566 0.0
O33 O 0.73247 0.56731 0.5978 0.0
O34 O 0.67408 0.68889 0.53731 0.0
O35 O 0.64533 0.5862 0.65797 0.0
O36 O 0.58808 0.7013 0.60254 0.0
O37 O 0.69722 0.74766 0.62381 0.0
O38 O 0.58232 0.60261 0.61396 0.0
O39 O 0.70192 0.62681 0.65651 0.0
O40 O 0.65776 0.77661 0.58809 0.0
O41 O 0.68637 0.50771 0.61298 0.0
O42 O 0.60479 0.61906 0.54702 0.0
O43 O 0.72556 0.691 0.56519 0.0
Sc44 Sc 0.3508 0.69075 0.90414 0.0
Sc45 Sc 0.27061 0.65963 0.86381 0.0
Sc46 Sc 0.34477 0.56074 0.86034 0.0
O47 O 0.32186 0.63766 0.87577 0.0
C48 C 0.41298 0.65379 0.86167 0.0
C49 C 0.30323 0.79031 0.86736 0.0
C50 C 0.30853 0.61185 0.80228 0.0
C51 C 0.27441 0.69292 0.93453 0.0
C52 C 0.36678 0.55725 0.92772 0.0
C53 C 0.26065 0.51932 0.86561 0.0
O54 O 0.39466 0.69869 0.87204 0.0
O55 O 0.28697 0.75016 0.85146 0.0
O56 O 0.33742 0.59092 0.81487 0.0
O57 O 0.30871 0.68405 0.93706 0.0
O58 O 0.35016 0.53024 0.90622 0.0
O59 O 0.24898 0.57067 0.87504 0.0
O60 O 0.37742 0.61267 0.92583 0.0
O61 O 0.25733 0.69136 0.90927 0.0
O62 O 0.29361 0.51111 0.85699 0.0
O63 O 0.32586 0.7758 0.88819 0.0
O64 O 0.39963 0.59988 0.86051 0.0
O65 O 0.28076 0.63142 0.81723 0.0
Sc66 Sc 0.63439 0.43294 0.36225 0.0
Sc67 Sc 0.71317 0.34229 0.36529 0.0
Sc68 Sc 0.63351 0.30105 0.40541 0.0
O69 O 0.6606 0.35838 0.37754 0.0
C70 C 0.6104 0.43319 0.43 0.0
C71 C 0.71617 0.48519 0.37029 0.0
C72 C 0.71085 0.30662 0.43563 0.0
C73 C 0.67377 0.38488 0.30384 0.0
C74 C 0.56977 0.33327 0.36214 0.0
C75 C 0.68339 0.20753 0.36698 0.0
O76 O 0.62362 0.46229 0.40764 0.0
O77 O 0.73134 0.434 0.37564 0.0
O78 O 0.67614 0.3073 0.4378 0.0
O79 O 0.64522 0.40615 0.31673 0.0
O80 O 0.58841 0.29116 0.37459 0.0
O81 O 0.70163 0.24919 0.35381 0.0
O82 O 0.5819 0.38756 0.35946 0.0
O83 O 0.70203 0.3665 0.3184 0.0
O84 O 0.65903 0.21919 0.3869 0.0
O85 O 0.68264 0.48944 0.36268 0.0
O86 O 0.60649 0.3752 0.42975 0.0
O87 O 0.7282 0.3141 0.41078 0.0
Sc88 Sc 0.63847 0.55874 0.8619 0.0
Sc89 Sc 0.71393 0.65594 0.86281 0.0
Sc90 Sc 0.63391 0.69347 0.90244 0.0
O91 O 0.66239 0.6364 0.87553 0.0
C92 C 0.57112 0.65385 0.86098 0.0
C93 C 0.67547 0.60361 0.80246 0.0
C94 C 0.68237 0.78802 0.86372 0.0
C95 C 0.72243 0.51501 0.86749 0.0
C96 C 0.61581 0.56282 0.92947 0.0
C97 C 0.71041 0.69725 0.93274 0.0
O98 O 0.58416 0.59967 0.86066 0.0
O99 O 0.70322 0.62532 0.81664 0.0
O100 O 0.65915 0.77591 0.88444 0.0
O101 O 0.68902 0.50692 0.86014 0.0
O102 O 0.60714 0.61898 0.92636 0.0
O103 O 0.72767 0.69048 0.90773 0.0
O104 O 0.63115 0.53234 0.90836 0.0
O105 O 0.73501 0.56697 0.87511 0.0
O106 O 0.67599 0.69011 0.93545 0.0
O107 O 0.64675 0.58393 0.81575 0.0
O108 O 0.58976 0.69911 0.87045 0.0
O109 O 0.69889 0.74633 0.84902 0.0
Sc110 Sc 0.34973 0.29945 0.40469 0.0
Sc111 Sc 0.27102 0.33575 0.36339 0.0
Sc112 Sc 0.34731 0.43121 0.36186 0.0
O113 O 0.32241 0.35533 0.37655 0.0
C114 C 0.37059 0.4317 0.42936 0.0
C115 C 0.27302 0.29857 0.43381 0.0
C116 C 0.26387 0.47748 0.36786 0.0
C117 C 0.30167 0.20354 0.36624 0.0
C118 C 0.41292 0.33299 0.36209 0.0
C119 C 0.31078 0.38207 0.30279 0.0
O120 O 0.37711 0.37443 0.42792 0.0
O121 O 0.25642 0.30291 0.40839 0.0
O122 O 0.29727 0.4847 0.36011 0.0
O123 O 0.32389 0.21655 0.38757 0.0
O124 O 0.40085 0.38771 0.36073 0.0
O125 O 0.28216 0.36371 0.31689 0.0
O126 O 0.394 0.28967 0.37315 0.0
O127 O 0.286 0.24462 0.35059 0.0
O128 O 0.339 0.40313 0.31619 0.0
O129 O 0.30721 0.30727 0.43706 0.0
O130 O 0.3556 0.46082 0.40772 0.0
O131 O 0.25072 0.42562 0.37494 0.0
Sc132 Sc 0.63562 0.30779 0.07083 0.0
Sc133 Sc 0.71549 0.33993 0.11172 0.0
Sc134 Sc 0.64108 0.43951 0.11363 0.0
O135 O 0.66437 0.36218 0.09878 0.0
C136 C 0.61801 0.44153 0.04622 0.0
C137 C 0.71231 0.30227 0.0413 0.0
C138 C 0.7256 0.4808 0.10889 0.0
C139 C 0.68233 0.20919 0.10878 0.0
C140 C 0.57308 0.34647 0.11317 0.0
C141 C 0.67625 0.38734 0.17241 0.0
O142 O 0.61003 0.38477 0.04773 0.0
O143 O 0.72931 0.30677 0.06654 0.0
O144 O 0.69223 0.48956 0.11629 0.0
O145 O 0.65978 0.22324 0.08784 0.0
O146 O 0.5864 0.40032 0.11418 0.0
O147 O 0.70469 0.368 0.1583 0.0
O148 O 0.59099 0.3015 0.10237 0.0
O149 O 0.69906 0.24949 0.12421 0.0
O150 O 0.64843 0.41008 0.1591 0.0
O151 O 0.67816 0.31201 0.03831 0.0
O152 O 0.63392 0.46965 0.06779 0.0
O153 O 0.7377 0.42881 0.10069 0.0
Sc154 Sc 0.35009 0.68819 0.56965 0.0
Sc155 Sc 0.27014 0.65298 0.60919 0.0
Sc156 Sc 0.34601 0.55704 0.6126 0.0
O157 O 0.32182 0.633 0.59735 0.0
C158 C 0.37035 0.55623 0.54541 0.0
C159 C 0.27427 0.68696 0.53868 0.0
C160 C 0.26242 0.51206 0.60609 0.0
C161 C 0.30058 0.78487 0.6064 0.0
C162 C 0.41207 0.65442 0.61294 0.0
C163 C 0.30775 0.6065 0.67071 0.0
O164 O 0.37869 0.61261 0.54793 0.0
O165 O 0.25702 0.68466 0.56385 0.0
O166 O 0.2956 0.50464 0.61439 0.0
O167 O 0.32341 0.7715 0.58556 0.0
O168 O 0.39983 0.59976 0.61389 0.0
O169 O 0.27994 0.62519 0.65568 0.0
O170 O 0.39314 0.69824 0.60228 0.0
O171 O 0.28501 0.74393 0.62217 0.0
O172 O 0.3368 0.58579 0.65822 0.0
O173 O 0.30869 0.67933 0.53623 0.0
O174 O 0.35444 0.52721 0.56666 0.0
O175 O 0.2499 0.56339 0.59752 0.0
Sc176 Sc 0.84761 0.93843 0.11237 0.0
Sc177 Sc 0.77209 0.84126 0.10876 0.0
Sc178 Sc 0.85396 0.80391 0.07114 0.0
O179 O 0.8243 0.86073 0.09756 0.0
C180 C 0.87243 0.93637 0.04491 0.0
C181 C 0.76398 0.98278 0.10535 0.0
C182 C 0.77769 0.80244 0.03876 0.0
C183 C 0.80906 0.88946 0.1707 0.0
C184 C 0.91551 0.84494 0.11426 0.0
C185 C 0.80516 0.70833 0.109 0.0
O186 O 0.85693 0.96608 0.06626 0.0
O187 O 0.7515 0.93102 0.09743 0.0
O188 O 0.81247 0.80473 0.03749 0.0
O189 O 0.83767 0.9118 0.15823 0.0
O190 O 0.89803 0.79972 0.10335 0.0
O191 O 0.78555 0.74949 0.12131 0.0
O192 O 0.90196 0.89861 0.11489 0.0
O193 O 0.78186 0.86836 0.1556 0.0
O194 O 0.83005 0.72062 0.08965 0.0
O195 O 0.79719 0.9906 0.11327 0.0
O196 O 0.87971 0.87941 0.04707 0.0
O197 O 0.75929 0.81055 0.06309 0.0
Sc198 Sc 0.13538 0.05816 0.6119 0.0
Sc199 Sc 0.21136 0.15412 0.60952 0.0
Sc200 Sc 0.13126 0.1908 0.56993 0.0
O201 O 0.15963 0.13464 0.59728 0.0
C202 C 0.11127 0.05912 0.54455 0.0
C203 C 0.21882 0.01253 0.6053 0.0
C204 C 0.20747 0.18949 0.53898 0.0
C205 C 0.17272 0.10772 0.67068 0.0
C206 C 0.06946 0.15538 0.61346 0.0
C207 C 0.18026 0.28655 0.60765 0.0
O208 O 0.1268 0.02962 0.56583 0.0
O209 O 0.23177 0.06438 0.59809 0.0
O210 O 0.17292 0.18384 0.53669 0.0
O211 O 0.14448 0.0857 0.65762 0.0
O212 O 0.08773 0.19942 0.60231 0.0
O213 O 0.19697 0.24531 0.62239 0.0
O214 O 0.08167 0.10072 0.61384 0.0
O215 O 0.20089 0.12693 0.65621 0.0
O216 O 0.1572 0.27388 0.58687 0.0
O217 O 0.18549 0.00513 0.61308 0.0
O218 O 0.10341 0.11576 0.54704 0.0
O219 O 0.22491 0.18545 0.56403 0.0
Sc220 Sc 0.85267 0.19248 0.90395 0.0
Sc221 Sc 0.77195 0.15426 0.86544 0.0
Sc222 Sc 0.8487 0.05951 0.86139 0.0
O223 O 0.8242 0.13574 0.87681 0.0
C224 C 0.91479 0.15629 0.8604 0.0
C225 C 0.80301 0.28762 0.86642 0.0
C226 C 0.80943 0.10784 0.80344 0.0
C227 C 0.77654 0.19107 0.93574 0.0
C228 C 0.87349 0.05999 0.92876 0.0
C229 C 0.76549 0.01284 0.86809 0.0
O230 O 0.89649 0.20017 0.87179 0.0
O231 O 0.78494 0.24614 0.85292 0.0
O232 O 0.83854 0.08707 0.81576 0.0
O233 O 0.81123 0.18753 0.93744 0.0
O234 O 0.85846 0.03037 0.90721 0.0
O235 O 0.75253 0.06395 0.87663 0.0
O236 O 0.8797 0.11736 0.92732 0.0
O237 O 0.75858 0.18495 0.91106 0.0
O238 O 0.7988 0.00606 0.8601 0.0
O239 O 0.82721 0.27544 0.88638 0.0
O240 O 0.90235 0.10191 0.85926 0.0
O241 O 0.78188 0.12738 0.81865 0.0
Sc242 Sc 0.13621 0.93287 0.36115 0.0
Sc243 Sc 0.21212 0.83665 0.36424 0.0
Sc244 Sc 0.13246 0.80138 0.40435 0.0
O245 O 0.16043 0.85675 0.37642 0.0
C246 C 0.11157 0.93409 0.42854 0.0
C247 C 0.21977 0.97754 0.36837 0.0
C248 C 0.20859 0.79826 0.43422 0.0
C249 C 0.17517 0.88583 0.30294 0.0
C250 C 0.0701 0.83579 0.36081 0.0
C251 C 0.18153 0.70503 0.36662 0.0
O252 O 0.12688 0.96287 0.40692 0.0
O253 O 0.23239 0.92599 0.37663 0.0
O254 O 0.17451 0.80854 0.43727 0.0
O255 O 0.14581 0.90526 0.31539 0.0
O256 O 0.08833 0.79222 0.37254 0.0
O257 O 0.19688 0.74605 0.35071 0.0
O258 O 0.08257 0.89017 0.35927 0.0
O259 O 0.20273 0.86649 0.31803 0.0
O260 O 0.15867 0.71833 0.3875 0.0
O261 O 0.18662 0.98508 0.36004 0.0
O262 O 0.10503 0.87684 0.42723 0.0
O263 O 0.2255 0.8023 0.40899 0.0
Sc264 Sc 0.13888 0.06254 0.86179 0.0
Sc265 Sc 0.21393 0.1609 0.86274 0.0
Sc266 Sc 0.13444 0.19575 0.9039 0.0
O267 O 0.1627 0.13996 0.87607 0.0
C268 C 0.07164 0.1573 0.86147 0.0
C269 C 0.17442 0.11181 0.80236 0.0
C270 C 0.18073 0.29236 0.86462 0.0
C271 C 0.22297 0.01938 0.86755 0.0
C272 C 0.11597 0.06304 0.92949 0.0
C273 C 0.21168 0.20049 0.93297 0.0
O274 O 0.08463 0.10322 0.86034 0.0
O275 O 0.20272 0.1322 0.81627 0.0
O276 O 0.15816 0.27915 0.88565 0.0
O277 O 0.18957 0.01092 0.86023 0.0
O278 O 0.10906 0.1202 0.92811 0.0
O279 O 0.22847 0.19435 0.9077 0.0
O280 O 0.13103 0.03406 0.90777 0.0
O281 O 0.23563 0.07183 0.87422 0.0
O282 O 0.17738 0.19271 0.93611 0.0
O283 O 0.14674 0.08944 0.81597 0.0
O284 O 0.08948 0.2017 0.87278 0.0
O285 O 0.19816 0.25161 0.84996 0.0
Sc286 Sc 0.85135 0.80562 0.40493 0.0
Sc287 Sc 0.77236 0.84021 0.36412 0.0
Sc288 Sc 0.84783 0.93602 0.361 0.0
O289 O 0.82361 0.86068 0.3766 0.0
C290 C 0.87182 0.93807 0.42846 0.0
C291 C 0.77544 0.80659 0.43507 0.0
C292 C 0.76395 0.98066 0.36737 0.0
C293 C 0.80181 0.70997 0.36815 0.0
C294 C 0.91339 0.83756 0.36104 0.0
C295 C 0.80972 0.88775 0.30261 0.0
O296 O 0.8799 0.88137 0.42667 0.0
O297 O 0.75881 0.80739 0.40955 0.0
O298 O 0.79723 0.98813 0.35928 0.0
O299 O 0.82366 0.72222 0.38983 0.0
O300 O 0.90139 0.89239 0.35979 0.0
O301 O 0.78193 0.86906 0.31765 0.0
O302 O 0.89482 0.79425 0.37265 0.0
O303 O 0.78986 0.7511 0.35057 0.0
O304 O 0.83888 0.90757 0.3152 0.0
O305 O 0.80961 0.81632 0.43784 0.0
O306 O 0.85614 0.96633 0.40685 0.0
O307 O 0.75136 0.9293 0.37587 0.0
Sc308 Sc 0.13392 0.80924 0.07118 0.0
Sc309 Sc 0.21489 0.84296 0.1099 0.0
Sc310 Sc 0.14028 0.94209 0.113 0.0
O311 O 0.16331 0.86445 0.09822 0.0
C312 C 0.1155 0.94094 0.04596 0.0
C313 C 0.20935 0.80405 0.03984 0.0
C314 C 0.22429 0.98417 0.10521 0.0
C315 C 0.18289 0.71183 0.10783 0.0
C316 C 0.07289 0.84746 0.11477 0.0
C317 C 0.17819 0.893 0.17133 0.0
O318 O 0.10637 0.88503 0.04896 0.0
O319 O 0.22702 0.80885 0.06473 0.0
O320 O 0.19132 0.9929 0.11381 0.0
O321 O 0.1595 0.72571 0.08754 0.0
O322 O 0.08583 0.90167 0.1151 0.0
O323 O 0.20564 0.87246 0.15634 0.0
O324 O 0.09093 0.80248 0.10412 0.0
O325 O 0.19942 0.75234 0.12332 0.0
O326 O 0.14954 0.91487 0.15877 0.0
O327 O 0.17514 0.81409 0.0374 0.0
O328 O 0.13178 0.97038 0.06692 0.0
O329 O 0.23626 0.93175 0.09756 0.0
Sc330 Sc 0.85155 0.19106 0.57097 0.0
Sc331 Sc 0.77133 0.15643 0.61034 0.0
Sc332 Sc 0.84667 0.05884 0.61308 0.0
O333 O 0.82289 0.13569 0.59835 0.0
C334 C 0.87081 0.05963 0.54573 0.0
C335 C 0.77614 0.19473 0.54013 0.0
C336 C 0.76285 0.01522 0.60655 0.0
C337 C 0.80208 0.28802 0.60766 0.0
C338 C 0.91289 0.15551 0.61461 0.0
C339 C 0.8086 0.10732 0.67166 0.0
O340 O 0.87983 0.1156 0.54885 0.0
O341 O 0.7587 0.19026 0.56517 0.0
O342 O 0.79609 0.00722 0.61448 0.0
O343 O 0.82514 0.27436 0.58704 0.0
O344 O 0.90066 0.10083 0.61487 0.0
O345 O 0.78101 0.12743 0.65676 0.0
O346 O 0.89448 0.19978 0.60377 0.0
O347 O 0.7866 0.24725 0.62364 0.0
O348 O 0.83745 0.08619 0.65901 0.0
O349 O 0.81024 0.18401 0.53747 0.0
O350 O 0.85495 0.03005 0.56683 0.0
O351 O 0.75043 0.067 0.59838 0.0
C352 C 0.2676 0.13246 0.13123 0.0
C353 C 0.29215 0.14744 0.10768 0.0
C354 C 0.24667 0.07883 0.13042 0.0
C355 C 0.24978 0.03697 0.10638 0.0
H356 H 0.26299 0.16392 0.14983 0.0
H357 H 0.22721 0.07073 0.14856 0.0
S358 S 0.31256 0.04999 0.04064 0.0
N359 N 0.32017 0.11286 0.0605 0.0
N360 N 0.28135 0.01094 0.05967 0.0
C361 C 0.276 0.04865 0.08376 0.0
C362 C 0.2971 0.10404 0.08428 0.0
C363 C 0.69189 0.8937 0.58717 0.0
C364 C 0.69497 0.85276 0.61176 0.0
C365 C 0.71268 0.9479 0.58602 0.0
C366 C 0.73755 0.96258 0.60924 0.0
H367 H 0.67502 0.88216 0.56779 0.0
H368 H 0.71075 0.9767 0.56615 0.0
S369 S 0.75098 0.87757 0.68101 0.0
N370 N 0.72109 0.83602 0.66181 0.0
N371 N 0.76049 0.93681 0.65925 0.0
C372 C 0.73894 0.92456 0.63484 0.0
C373 C 0.71752 0.87002 0.63623 0.0
C374 C 0.26382 0.86871 0.84207 0.0
C375 C 0.28957 0.85454 0.86487 0.0
C376 C 0.24329 0.92282 0.8429 0.0
C377 C 0.24803 0.96598 0.86618 0.0
H378 H 0.25796 0.83635 0.8241 0.0
H379 H 0.22289 0.9303 0.82542 0.0
S380 S 0.31448 0.95556 0.92951 0.0
N381 N 0.32054 0.89135 0.91033 0.0
N382 N 0.28239 0.99409 0.91118 0.0
C383 C 0.27541 0.95504 0.88792 0.0
C384 C 0.29611 0.89918 0.8874 0.0
C385 C 0.71342 0.04706 0.38788 0.0
C386 C 0.73882 0.03351 0.36486 0.0
C387 C 0.6928 0.10148 0.38717 0.0
C388 C 0.69668 0.14369 0.36324 0.0
H389 H 0.71099 0.01724 0.40734 0.0
H390 H 0.67559 0.11226 0.40648 0.0
S391 S 0.75364 0.12172 0.29427 0.0
N392 N 0.76265 0.0613 0.31539 0.0
N393 N 0.72357 0.16267 0.31366 0.0
C394 C 0.71951 0.1274 0.33877 0.0
C395 C 0.74073 0.07262 0.33971 0.0
C396 C 0.71452 0.9461 0.88741 0.0
C397 C 0.74054 0.95988 0.86494 0.0
C398 C 0.69326 0.89253 0.88565 0.0
C399 C 0.69699 0.85135 0.86115 0.0
H400 H 0.7119 0.97523 0.90717 0.0
H401 H 0.67544 0.88167 0.90453 0.0
S402 S 0.75606 0.87419 0.79349 0.0
N403 N 0.76529 0.93323 0.81556 0.0
N404 N 0.72499 0.83358 0.81182 0.0
C405 C 0.72074 0.8678 0.83733 0.0
C406 C 0.74266 0.92168 0.83937 0.0
C407 C 0.26918 0.04543 0.38945 0.0
C408 C 0.24488 0.03033 0.36591 0.0
C409 C 0.28998 0.09958 0.38838 0.0
C410 C 0.28745 0.13999 0.36354 0.0
H411 H 0.27067 0.01698 0.40947 0.0
H412 H 0.30641 0.11148 0.40796 0.0
S413 S 0.23303 0.11383 0.29356 0.0
N414 N 0.22302 0.05503 0.31545 0.0
N415 N 0.26249 0.15576 0.313 0.0
C416 C 0.26547 0.12228 0.3388 0.0
C417 C 0.24403 0.0678 0.34012 0.0
C418 C 0.7148 0.05148 0.08438 0.0
C419 C 0.73864 0.03538 0.10808 0.0
C420 C 0.69394 0.10569 0.08578 0.0
C421 C 0.69593 0.14512 0.1111 0.0
H422 H 0.71378 0.02385 0.06401 0.0
H423 H 0.67801 0.11854 0.06608 0.0
S424 S 0.74885 0.11598 0.18154 0.0
N425 N 0.75938 0.05803 0.15912 0.0
N426 N 0.71977 0.15875 0.16217 0.0
C427 C 0.71736 0.12628 0.13596 0.0
C428 C 0.73887 0.07181 0.13431 0.0
C429 C 0.2374 0.91446 0.62923 0.0
C430 C 0.24355 0.9588 0.60681 0.0
C431 C 0.25828 0.86081 0.63042 0.0
C432 C 0.28587 0.84837 0.60884 0.0
H433 H 0.21577 0.92075 0.64582 0.0
H434 H 0.25136 0.82753 0.64764 0.0
S435 S 0.31498 0.95295 0.54703 0.0
N436 N 0.28111 0.98978 0.56406 0.0
N437 N 0.32006 0.888 0.56563 0.0
C438 C 0.29371 0.89411 0.58724 0.0
C439 C 0.2726 0.94943 0.58635 0.0
C440 C 0.79687 0.60147 0.08909 0.0
C441 C 0.79282 0.64398 0.11298 0.0
C442 C 0.77649 0.54674 0.08848 0.0
C443 C 0.75118 0.53315 0.11155 0.0
H444 H 0.81386 0.61237 0.06971 0.0
H445 H 0.7789 0.51683 0.06899 0.0
S446 S 0.73609 0.6223 0.18203 0.0
N447 N 0.76597 0.66324 0.16256 0.0
N448 N 0.72736 0.56146 0.16102 0.0
C449 C 0.74924 0.57256 0.13668 0.0
C450 C 0.77021 0.6276 0.13752 0.0
C451 C 0.21244 0.44512 0.58519 0.0
C452 C 0.2372 0.45939 0.60856 0.0
C453 C 0.19144 0.39117 0.58615 0.0
C454 C 0.1942 0.35019 0.61071 0.0
H455 H 0.21076 0.47405 0.56535 0.0
H456 H 0.17473 0.3798 0.56665 0.0
S457 S 0.24935 0.37451 0.68048 0.0
N458 N 0.25943 0.43356 0.65877 0.0
N459 N 0.21954 0.33327 0.66104 0.0
C460 C 0.21647 0.36725 0.6354 0.0
C461 C 0.23814 0.42147 0.63418 0.0
C462 C 0.77323 0.44857 0.88771 0.0
C463 C 0.74767 0.46217 0.86485 0.0
C464 C 0.79377 0.39397 0.88685 0.0
C465 C 0.78968 0.35161 0.86291 0.0
H466 H 0.77586 0.47851 0.90717 0.0
H467 H 0.81112 0.3832 0.90604 0.0
S468 S 0.73194 0.37333 0.79439 0.0
N469 N 0.72326 0.43395 0.81559 0.0
N470 N 0.76221 0.33247 0.81352 0.0
C471 C 0.76662 0.36791 0.83861 0.0
C472 C 0.74546 0.4228 0.83973 0.0
C473 C 0.24458 0.57503 0.34361 0.0
C474 C 0.23928 0.53145 0.36654 0.0
C475 C 0.22354 0.6286 0.34244 0.0
C476 C 0.19663 0.64166 0.36451 0.0
H477 H 0.26561 0.56812 0.32656 0.0
H478 H 0.22972 0.66127 0.32475 0.0
S479 S 0.17083 0.54006 0.42854 0.0
N480 N 0.20388 0.5025 0.41082 0.0
N481 N 0.16468 0.60398 0.4093 0.0
C482 C 0.18993 0.59691 0.38688 0.0
C483 C 0.21119 0.54173 0.38777 0.0
C484 C 0.2114 0.4518 0.88696 0.0
C485 C 0.23504 0.46723 0.86303 0.0
C486 C 0.19101 0.3972 0.8862 0.0
C487 C 0.19342 0.35662 0.86136 0.0
H488 H 0.21034 0.48012 0.9071 0.0
H489 H 0.17529 0.3849 0.9061 0.0
S490 S 0.24567 0.38365 0.79041 0.0
N491 N 0.25573 0.44287 0.81213 0.0
N492 N 0.21709 0.34112 0.81036 0.0
C493 C 0.21446 0.37479 0.83619 0.0
C494 C 0.23543 0.4298 0.83715 0.0
C495 C 0.798 0.59489 0.3713 0.0
C496 C 0.78078 0.65225 0.36906 0.0
C497 C 0.77705 0.54072 0.37227 0.0
C498 C 0.73823 0.54245 0.37163 0.0
H499 H 0.82771 0.59183 0.37171 0.0
H500 H 0.79138 0.49729 0.37304 0.0
S501 S 0.68041 0.68294 0.37094 0.0
N502 N 0.72302 0.70823 0.36922 0.0
N503 N 0.68385 0.60775 0.37204 0.0
C504 C 0.72095 0.60018 0.37098 0.0
C505 C 0.74217 0.6547 0.36946 0.0
C506 C 0.24026 0.57709 0.13357 0.0
C507 C 0.23878 0.53699 0.10869 0.0
C508 C 0.21959 0.63116 0.13418 0.0
C509 C 0.19691 0.6479 0.10971 0.0
H510 H 0.25825 0.56726 0.1525 0.0
H511 H 0.22278 0.66144 0.15345 0.0
S512 S 0.18303 0.55719 0.03929 0.0
N513 N 0.212 0.51583 0.0595 0.0
N514 N 0.17354 0.6181 0.06007 0.0
C515 C 0.19401 0.60662 0.08516 0.0
C516 C 0.2149 0.55109 0.08476 0.0
C517 C 0.76035 0.36527 0.63149 0.0
C518 C 0.78705 0.35146 0.60938 0.0
C519 C 0.73935 0.41884 0.63001 0.0
C520 C 0.74445 0.46165 0.60669 0.0
H521 H 0.75432 0.33317 0.64947 0.0
H522 H 0.71847 0.4263 0.64713 0.0
S523 S 0.81239 0.451 0.54442 0.0
N524 N 0.81866 0.38769 0.56412 0.0
N525 N 0.7795 0.48918 0.56202 0.0
C526 C 0.77236 0.4507 0.58541 0.0
C527 C 0.7936 0.39552 0.58662 0.0
C528 C 0.40237 0.48924 0.00125 0.0
C529 C 0.36951 0.47453 0.01632 0.0
C530 C 0.40165 0.51644 0.97238 0.0
C531 C 0.3681 0.52716 0.95747 0.0
H532 H 0.4286 0.48048 0.012 0.0
H533 H 0.42734 0.5285 0.96154 0.0
S534 S 0.27477 0.49552 0.98724 0.0
N535 N 0.30279 0.47313 0.01448 0.0
N536 N 0.3015 0.52092 0.95977 0.0
C537 C 0.33523 0.51163 0.97219 0.0
C538 C 0.33592 0.48606 0.00177 0.0
C539 C 0.60393 0.43497 0.48645 0.0
C540 C 0.60372 0.46689 0.45876 0.0
C541 C 0.60476 0.46611 0.51421 0.0
C542 C 0.60495 0.53048 0.51551 0.0
H543 H 0.60553 0.38547 0.48678 0.0
H544 H 0.60659 0.43938 0.53479 0.0
S545 S 0.6008 0.63576 0.44958 0.0
N546 N 0.60079 0.56664 0.43447 0.0
N547 N 0.60218 0.62514 0.48654 0.0
C548 C 0.60243 0.56299 0.48805 0.0
C549 C 0.60188 0.53124 0.45974 0.0
C550 C 0.6096 0.44016 -0.01001 0.0
C551 C 0.61169 0.47396 0.01714 0.0
C552 C 0.60934 0.46927 0.96173 0.0
C553 C 0.61053 0.53342 0.95944 0.0
H554 H 0.60999 0.39059 -0.0096 0.0
H555 H 0.60925 0.44115 0.94151 0.0
S556 S 0.61296 0.64332 0.02376 0.0
N557 N 0.61261 0.57532 0.03996 0.0
N558 N 0.61168 0.63012 0.98698 0.0
C559 C 0.61062 0.56793 0.98646 0.0
C560 C 0.61136 0.53821 0.01524 0.0
C561 C 0.37369 0.46077 0.51393 0.0
C562 C 0.37674 0.52486 0.51593 0.0
C563 C 0.37402 0.43075 0.48585 0.0
C564 C 0.37688 0.46363 0.45856 0.0
H565 H 0.36978 0.43355 0.53414 0.0
H566 H 0.37002 0.38163 0.48554 0.0
S567 S 0.38963 0.63131 0.45117 0.0
N568 N 0.38602 0.61974 0.48797 0.0
N569 N 0.38606 0.5631 0.43533 0.0
C570 C 0.38182 0.52731 0.46022 0.0
C571 C 0.38197 0.55793 0.48884 0.0
C572 C 0.87489 0.06149 0.98528 0.0
C573 C 0.87981 0.02872 0.9581 0.0
C574 C 0.87436 0.03169 0.01335 0.0
C575 C 0.8793 0.96791 0.01552 0.0
H576 H 0.86944 0.11023 0.98482 0.0
H577 H 0.86875 0.05878 0.03339 0.0
S578 S 0.89973 0.86288 0.95125 0.0
N579 N 0.89392 0.93039 0.93523 0.0
N580 N 0.89383 0.87413 -0.0121 0.0
C581 C 0.88703 0.93529 -0.0114 0.0
C582 C 0.88698 0.96569 0.95995 0.0
C583 C 0.108 0.93354 0.48501 0.0
C584 C 0.1051 0.96627 0.45768 0.0
C585 C 0.10814 0.96365 0.51306 0.0
C586 C 0.10488 0.02775 0.51504 0.0
H587 H 0.11218 0.88444 0.48476 0.0
H588 H 0.11211 0.93648 0.53329 0.0
S589 S 0.09139 0.13375 0.45017 0.0
N590 N 0.09542 0.06554 0.43437 0.0
N591 N 0.09507 0.12239 0.48699 0.0
C592 C 0.09953 0.06065 0.48791 0.0
C593 C 0.09987 0.02991 0.45929 0.0
C594 C 0.10956 0.03523 0.0141 0.0
C595 C 0.10963 0.97102 0.01623 0.0
C596 C 0.10933 0.06459 0.98589 0.0
C597 C 0.10978 0.03092 0.95865 0.0
H598 H 0.11079 0.06314 0.03437 0.0
H599 H 0.11071 0.1141 0.98555 0.0
S600 S 0.10756 0.86166 0.95166 0.0
N601 N 0.10792 0.87457 -0.01152 0.0
N602 N 0.10786 0.92981 0.93562 0.0
C603 C 0.10824 0.96671 0.96044 0.0
C604 C 0.10803 0.93678 -0.01085 0.0
C605 C 0.87769 0.93631 0.48501 0.0
C606 C 0.87737 0.97014 0.45786 0.0
C607 C 0.87696 0.96545 0.51336 0.0
C608 C 0.87656 0.02967 0.51579 0.0
H609 H 0.87666 0.88677 0.48445 0.0
H610 H 0.87574 0.93734 0.53352 0.0
S611 S 0.87812 0.13948 0.45159 0.0
N612 N 0.87849 0.07146 0.43528 0.0
N613 N 0.87763 0.12629 0.48836 0.0
C614 C 0.87802 0.06408 0.48881 0.0
C615 C 0.87826 0.03435 0.45995 0.0
C616 C 0.47499 0.29236 0.10523 0.0
C617 C 0.45513 0.33955 0.11956 0.0
C618 C 0.51348 0.29196 0.10535 0.0
C619 C 0.53347 0.33872 0.11983 0.0
H620 H 0.46088 0.25788 0.09196 0.0
H621 H 0.52751 0.25721 0.09216 0.0
S622 S 0.49442 0.46349 0.16709 0.0
N623 N 0.4582 0.42755 0.1533 0.0
N624 N 0.53057 0.42677 0.15356 0.0
C625 C 0.51393 0.3823 0.13695 0.0
C626 C 0.47475 0.38272 0.13681 0.0
C627 C 0.51023 0.61712 0.63315 0.0
C628 C 0.52998 0.66561 0.61999 0.0
C629 C 0.47185 0.61647 0.63309 0.0
C630 C 0.45153 0.66429 0.61988 0.0
H631 H 0.52444 0.57738 0.64197 0.0
H632 H 0.45813 0.57626 0.64187 0.0
S633 S 0.48988 0.80845 0.58859 0.0
N634 N 0.52629 0.76762 0.59803 0.0
N635 N 0.45398 0.76644 0.59795 0.0
C636 C 0.4708 0.71628 0.60974 0.0
C637 C 0.51008 0.71693 0.60979 0.0
C638 C 0.5112 0.61172 0.84321 0.0
C639 C 0.53131 0.66168 0.8546 0.0
C640 C 0.4728 0.61164 0.84345 0.0
C641 C 0.45275 0.66155 0.85508 0.0
H642 H 0.52513 0.57066 0.83554 0.0
H643 H 0.45886 0.57056 0.83593 0.0
S644 S 0.49208 0.80904 0.88166 0.0
N645 N 0.52822 0.76645 0.8734 0.0
N646 N 0.45591 0.76636 0.87382 0.0
C647 C 0.4724 0.71439 0.86363 0.0
C648 C 0.51169 0.71447 0.86339 0.0
C649 C 0.5105 0.36862 0.34001 0.0
C650 C 0.53055 0.32238 0.35481 0.0
C651 C 0.47213 0.3687 0.34011 0.0
C652 C 0.45222 0.32246 0.35494 0.0
H653 H 0.52443 0.40742 0.32999 0.0
H654 H 0.45808 0.40749 0.33015 0.0
S655 S 0.4915 0.18286 0.39031 0.0
N656 N 0.52762 0.22304 0.37964 0.0
N657 N 0.45532 0.22313 0.37978 0.0
C658 C 0.4718 0.27199 0.36648 0.0
C659 C 0.51105 0.27195 0.36642 0.0
C660 C 0.97534 0.78989 0.10816 0.0
C661 C 0.95502 0.83765 0.12156 0.0
C662 C 0.01384 0.79055 0.10828 0.0
C663 C 0.03339 0.83902 0.12178 0.0
H664 H 0.9616 0.75404 0.09555 0.0
H665 H 0.02817 0.75515 0.09576 0.0
S666 S -0.00684 0.96645 0.16655 0.0
N667 N 0.9573 0.92835 0.15358 0.0
N668 N 0.02965 0.92963 0.15373 0.0
C669 C 0.01344 0.88333 0.13808 0.0
C670 C 0.97425 0.88263 0.13799 0.0
C671 C 0.97184 0.2113 0.60651 0.0
C672 C 0.95216 0.16514 0.62165 0.0
C673 C 0.01031 0.21131 0.60623 0.0
C674 C 0.03034 0.16517 0.62108 0.0
H675 H 0.9576 0.2448 0.59277 0.0
H676 H 0.02422 0.24478 0.59226 0.0
S677 S -0.00815 0.04448 0.67078 0.0
N678 N 0.95548 0.07972 0.65678 0.0
N679 N 0.02788 0.07985 0.65633 0.0
C680 C 0.01104 0.12326 0.63922 0.0
C681 C 0.97189 0.1232 0.63947 0.0
C682 C 0.01218 0.21229 0.869 0.0
C683 C 0.03234 0.16615 0.85415 0.0
C684 C 0.97371 0.21216 0.86865 0.0
C685 C 0.95412 0.16587 0.85346 0.0
H686 H 0.02598 0.24603 0.88292 0.0
H687 H 0.95941 0.24577 0.88236 0.0
S688 S -0.00584 0.04494 0.80439 0.0
N689 N 0.03009 0.08051 0.81893 0.0
N690 N 0.9577 0.08018 0.81831 0.0
C691 C 0.97399 0.12382 0.83569 0.0
C692 C 0.01314 0.12397 0.83603 0.0
C693 C 0.01082 0.78101 0.36935 0.0
C694 C 0.03082 0.82608 0.35369 0.0
C695 C 0.97233 0.78145 0.36942 0.0
C696 C 0.95258 0.82698 0.35384 0.0
H697 H 0.02482 0.74813 0.38361 0.0
H698 H 0.95816 0.7489 0.38374 0.0
S699 S -0.00801 0.94472 0.3029 0.0
N700 N 0.0281 0.90967 0.31746 0.0
N701 N 0.95572 0.9105 0.3176 0.0
C702 C 0.97223 0.86771 0.3353 0.0
C703 C 0.01138 0.86726 0.33523 0.0
C704 C 0.232 0.24266 0.01401 0.0
C705 C 0.25978 0.28676 0.01108 0.0
C706 C 0.21791 0.21273 -0.01141 0.0
C707 C 0.23105 0.22588 0.95933 0.0
H708 H 0.2218 0.22979 0.03615 0.0
H709 H 0.19635 0.17919 -0.00814 0.0
S710 S 0.30171 0.34118 0.93937 0.0
N711 N 0.29905 0.34401 0.97665 0.0
N712 N 0.27195 0.28839 0.92872 0.0
C713 C 0.25852 0.27044 0.95602 0.0
C714 C 0.27293 0.30087 0.98193 0.0
C715 C 0.7294 0.73807 0.459 0.0
C716 C 0.75637 0.78359 0.4621 0.0
C717 C 0.7151 0.70843 0.48442 0.0
C718 C 0.72741 0.72307 0.51376 0.0
H719 H 0.72006 0.72388 0.43679 0.0
H720 H 0.69421 0.67373 0.48107 0.0
S721 S 0.79478 0.8436 0.53413 0.0
N722 N 0.79306 0.84498 0.49678 0.0
N723 N 0.76604 0.78919 0.54461 0.0
C724 C 0.75379 0.76941 0.51721 0.0
C725 C 0.76822 0.79981 0.49136 0.0
C726 C 0.2156 0.79293 0.98418 0.0
C727 C 0.22749 0.77689 0.0134 0.0
C728 C 0.22943 0.76296 0.95864 0.0
C729 C 0.2555 0.71591 0.96157 0.0
H730 H 0.19553 0.82905 0.98103 0.0
H731 H 0.2206 0.77822 0.93647 0.0
S732 S 0.29203 0.65168 0.0332 0.0
N733 N 0.26427 0.70742 0.04399 0.0
N734 N 0.29076 0.6516 -0.00416 0.0
C735 C 0.26681 0.69824 -0.00931 0.0
C736 C 0.25275 0.72873 0.01667 0.0
C737 C 0.77085 0.20852 0.48456 0.0
C738 C 0.75813 0.22268 0.51385 0.0
C739 C 0.75727 0.2393 0.45924 0.0
C740 C 0.73059 0.28526 0.46245 0.0
H741 H 0.79133 0.17309 0.48117 0.0
H742 H 0.76655 0.22519 0.43698 0.0
S743 S 0.69167 0.34494 0.53428 0.0
N744 N 0.71986 0.28962 0.54478 0.0
N745 N 0.69386 0.34692 0.49695 0.0
C746 C 0.71852 0.30133 0.49161 0.0
C747 C 0.73232 0.27004 0.51739 0.0
C748 C 0.73048 0.73772 0.01408 0.0
C749 C 0.75896 0.78062 0.01141 0.0
C750 C 0.71604 0.70892 -0.01154 0.0
C751 C 0.72957 0.72211 0.95932 0.0
H752 H 0.72005 0.72486 0.03615 0.0
H753 H 0.69405 0.67609 -0.00851 0.0
S754 S 0.80133 0.83596 0.94015 0.0
N755 N 0.79876 0.83785 0.97747 0.0
N756 N 0.77115 0.78417 0.92913 0.0
C757 C 0.75756 0.76584 0.95631 0.0
C758 C 0.7723 0.79513 0.98241 0.0
C759 C 0.25124 0.26094 0.51492 0.0
C760 C 0.2264 0.21222 0.51202 0.0
C761 C 0.2648 0.2908 0.48934 0.0
C762 C 0.25387 0.27297 0.46007 0.0
H763 H 0.25932 0.27741 0.5371 0.0
H764 H 0.28414 0.32797 0.49246 0.0
S765 S 0.19243 0.14357 0.44048 0.0
N766 N 0.19304 0.14482 0.47787 0.0
N767 N 0.21905 0.20058 0.42958 0.0
C768 C 0.22959 0.22351 0.45686 0.0
C769 C 0.21579 0.19309 0.48292 0.0
C770 C 0.71854 0.29129 0.98566 0.0
C771 C 0.73092 0.27581 0.01485 0.0
C772 C 0.73179 0.26077 0.96008 0.0
C773 C 0.75784 0.21375 0.96289 0.0
H774 H 0.69834 0.32723 0.98256 0.0
H775 H 0.72256 0.27556 0.93795 0.0
S776 S 0.79631 0.15161 0.03425 0.0
N777 N 0.7687 0.20746 0.04521 0.0
N778 N 0.79406 0.15048 -0.00309 0.0
C779 C 0.76992 0.19691 -0.00808 0.0
C780 C 0.75644 0.22799 0.01798 0.0
C781 C 0.21693 0.78952 0.48966 0.0
C782 C 0.22729 0.77138 0.46033 0.0
C783 C 0.2308 0.7595 0.51507 0.0
C784 C 0.25534 0.7103 0.51188 0.0
H785 H 0.19794 0.82721 0.49298 0.0
H786 H 0.22319 0.77623 0.53733 0.0
S787 S 0.28745 0.64042 0.44003 0.0
N788 N 0.261 0.69799 0.42943 0.0
N789 N 0.28757 0.64188 0.47742 0.0
C790 C 0.26525 0.69071 0.48271 0.0
C791 C 0.25115 0.72128 0.45683 0.0
C792 C 0.27865 0.38025 0.22093 0.0
C793 C 0.31192 0.3821 0.2047 0.0
C794 C 0.27839 0.37911 0.25269 0.0
C795 C 0.3114 0.37977 0.2693 0.0
H796 H 0.25259 0.38116 0.20909 0.0
H797 H 0.25214 0.37917 0.26426 0.0
S798 S 0.40595 0.37651 0.23743 0.0
N799 N 0.37875 0.379 0.20759 0.0
N800 N 0.37828 0.37684 0.26702 0.0
C801 C 0.34485 0.37923 0.25326 0.0
C802 C 0.34511 0.3804 0.22105 0.0
C803 C 0.69876 0.64207 0.75261 0.0
C804 C 0.67643 0.60129 0.76899 0.0
C805 C 0.69848 0.64254 0.72085 0.0
C806 C 0.67585 0.60228 0.7044 0.0
H807 H 0.71594 0.67487 0.76436 0.0
H808 H 0.71546 0.67566 0.70917 0.0
S809 S 0.6158 0.4813 0.73655 0.0
N810 N 0.63356 0.51602 0.76633 0.0
N811 N 0.63299 0.51692 0.70686 0.0
C812 C 0.65442 0.5598 0.72054 0.0
C813 C 0.65472 0.5593 0.75276 0.0
C814 C 0.33258 0.57608 0.75247 0.0
C815 C 0.30699 0.61146 0.76879 0.0
C816 C 0.3323 0.57457 0.7209 0.0
C817 C 0.30643 0.60835 0.70418 0.0
H818 H 0.35305 0.54887 0.76412 0.0
H819 H 0.35261 0.54635 0.70956 0.0
S820 S 0.23395 0.70983 0.73589 0.0
N821 N 0.25526 0.68201 0.76584 0.0
N822 N 0.25474 0.6792 0.70629 0.0
C823 C 0.28053 0.64394 0.72013 0.0
C824 C 0.28082 0.64548 0.75244 0.0
C825 C 0.70806 0.38151 0.22263 0.0
C826 C 0.67525 0.3837 0.20582 0.0
C827 C 0.70745 0.38082 0.25436 0.0
C828 C 0.674 0.38226 0.27037 0.0
H829 H 0.73444 0.3817 0.21125 0.0
H830 H 0.73338 0.38052 0.2664 0.0
S831 S 0.58032 0.38047 0.23683 0.0
N832 N 0.60834 0.382 0.20749 0.0
N833 N 0.60717 0.38067 0.26691 0.0
C834 C 0.64098 0.38221 0.25376 0.0
C835 C 0.64161 0.38294 0.22155 0.0
C836 C 0.83275 0.92424 0.22092 0.0
C837 C 0.80762 0.8886 0.20428 0.0
C838 C 0.83298 0.92372 0.25255 0.0
C839 C 0.80806 0.88763 0.26905 0.0
H840 H 0.85254 0.9531 0.20948 0.0
H841 H 0.8529 0.95222 0.26412 0.0
S842 S 0.73726 0.78427 0.23653 0.0
N843 N 0.75746 0.81508 0.20678 0.0
N844 N 0.75783 0.81426 0.26636 0.0
C845 C 0.78262 0.8518 0.2528 0.0
C846 C 0.78242 0.85224 0.22044 0.0
C847 C 0.20629 0.11709 0.75206 0.0
C848 C 0.17349 0.11336 0.76884 0.0
C849 C 0.20587 0.1159 0.72032 0.0
C850 C 0.17263 0.11094 0.70419 0.0
H851 H 0.23258 0.11975 0.7635 0.0
H852 H 0.23186 0.11778 0.70838 0.0
S853 S 0.07877 0.10678 0.73742 0.0
N854 N 0.1066 0.10932 0.76686 0.0
N855 N 0.10582 0.10705 0.70745 0.0
C856 C 0.13954 0.10911 0.72072 0.0
C857 C 0.13997 0.11034 0.75295 0.0
C858 C 0.83211 0.0715 0.72164 0.0
C859 C 0.80719 0.10781 0.70521 0.0
C860 C 0.83232 0.07168 0.75326 0.0
C861 C 0.80764 0.10819 0.76992 0.0
H862 H 0.8517 0.04237 0.71004 0.0
H863 H 0.85206 0.04264 0.76468 0.0
S864 S 0.73749 0.21334 0.73791 0.0
N865 N 0.75746 0.18233 0.70802 0.0
N866 N 0.7579 0.18266 0.7676 0.0
C867 C 0.78242 0.1447 0.75386 0.0
C868 C 0.78219 0.14452 0.72151 0.0
C869 C 0.15198 0.92246 0.25305 0.0
C870 C 0.17742 0.8872 0.26947 0.0
C871 C 0.15286 0.92449 0.22148 0.0
C872 C 0.17922 0.8913 0.20485 0.0
H873 H 0.1311 0.94907 0.26462 0.0
H874 H 0.13256 0.95245 0.21008 0.0
S875 S 0.25172 0.79061 0.23692 0.0
N876 N 0.22966 0.81761 0.26675 0.0
N877 N 0.23132 0.82135 0.20724 0.0
C878 C 0.20505 0.85597 0.22094 0.0
C879 C 0.20415 0.85393 0.25324 0.0
loop_
_geom_bond_atom_site_label_1
_geom_bond_atom_site_label_2
_geom_bond_distance
_geom_bond_site_symmetry_2
_ccdc_geom_bond_type
Sc0 O3 2.025 . S
Sc0 O10 2.105 . S
Sc0 O13 2.105 . S
Sc0 O16 2.105 . S
Sc0 O19 2.105 . S
Sc1 O3 2.025 . S
Sc1 O11 2.105 . S
Sc1 O15 2.105 . S
Sc1 O17 2.105 . S
Sc1 O21 2.105 . S
Sc2 O3 2.025 . S
Sc2 O12 2.105 . S
Sc2 O14 2.105 . S
Sc2 O18 2.105 . S
Sc2 O20 2.105 . S
O3 Sc0 2.025 . S
O3 Sc1 2.025 . S
O3 Sc2 2.025 . S
C4 O10 1.268 . S
C4 O20 1.268 . S
C5 O11 1.268 . S
C5 O19 1.268 . S
C6 O12 1.268 . S
C6 O21 1.268 . S
C7 O13 1.268 . S
C7 O17 1.268 . S
C8 O14 1.268 . S
C8 O16 1.268 . S
C9 O15 1.268 . S
C9 O18 1.268 . S
O10 Sc0 2.105 . S
O10 C4 1.268 . S
O11 Sc1 2.105 . S
O11 C5 1.268 . S
O12 Sc2 2.105 . S
O12 C6 1.268 . S
O13 Sc0 2.105 . S
O13 C7 1.268 . S
O14 Sc2 2.105 . S
O14 C8 1.268 . S
O15 Sc1 2.105 . S
O15 C9 1.268 . S
O16 Sc0 2.105 . S
O16 C8 1.268 . S
O17 Sc1 2.105 . S
O17 C7 1.268 . S
O18 Sc2 2.105 . S
O18 C9 1.268 . S
O19 Sc0 2.105 . S
O19 C5 1.268 . S
O20 Sc2 2.105 . S
O20 C4 1.268 . S
O21 Sc1 2.105 . S
O21 C6 1.268 . S
Sc22 O25 2.025 . S
Sc22 O32 2.105 . S
Sc22 O35 2.105 . S
Sc22 O38 2.105 . S
Sc22 O41 2.105 . S
Sc23 O25 2.025 . S
Sc23 O33 2.105 . S
Sc23 O37 2.105 . S
Sc23 O39 2.105 . S
Sc23 O43 2.105 . S
Sc24 O25 2.025 . S
Sc24 O34 2.105 . S
Sc24 O36 2.105 . S
Sc24 O40 2.105 . S
Sc24 O42 2.105 . S
O25 Sc22 2.025 . S
O25 Sc23 2.025 . S
O25 Sc24 2.025 . S
C26 O32 1.268 . S
C26 O42 1.268 . S
C27 O33 1.268 . S
C27 O41 1.268 . S
C28 O34 1.268 . S
C28 O43 1.268 . S
C29 O35 1.268 . S
C29 O39 1.268 . S
C30 O36 1.268 . S
C30 O38 1.268 . S
C31 O37 1.268 . S
C31 O40 1.268 . S
O32 Sc22 2.105 . S
O32 C26 1.268 . S
O33 Sc23 2.105 . S
O33 C27 1.268 . S
O34 Sc24 2.105 . S
O34 C28 1.268 . S
O35 Sc22 2.105 . S
O35 C29 1.268 . S
O36 Sc24 2.105 . S
O36 C30 1.268 . S
O37 Sc23 2.105 . S
O37 C31 1.268 . S
O38 Sc22 2.105 . S
O38 C30 1.268 . S
O39 Sc23 2.105 . S
O39 C29 1.268 . S
O40 Sc24 2.105 . S
O40 C31 1.268 . S
O41 Sc22 2.105 . S
O41 C27 1.268 . S
O42 Sc24 2.105 . S
O42 C26 1.268 . S
O43 Sc23 2.105 . S
O43 C28 1.268 . S
Sc44 O47 2.025 . S
Sc44 O54 2.105 . S
Sc44 O57 2.105 . S
Sc44 O60 2.105 . S
Sc44 O63 2.105 . S
Sc45 O47 2.025 . S
Sc45 O55 2.105 . S
Sc45 O59 2.105 . S
Sc45 O61 2.105 . S
Sc45 O65 2.105 . S
Sc46 O47 2.025 . S
Sc46 O56 2.105 . S
Sc46 O58 2.105 . S
Sc46 O62 2.105 . S
Sc46 O64 2.105 . S
O47 Sc44 2.025 . S
O47 Sc45 2.025 . S
O47 Sc46 2.025 . S
C48 O54 1.268 . S
C48 O64 1.268 . S
C49 O55 1.268 . S
C49 O63 1.268 . S
C50 O56 1.268 . S
C50 O65 1.268 . S
C51 O57 1.268 . S
C51 O61 1.268 . S
C52 O58 1.268 . S
C52 O60 1.268 . S
C53 O59 1.268 . S
C53 O62 1.268 . S
O54 Sc44 2.105 . S
O54 C48 1.268 . S
O55 Sc45 2.105 . S
O55 C49 1.268 . S
O56 Sc46 2.105 . S
O56 C50 1.268 . S
O57 Sc44 2.105 . S
O57 C51 1.268 . S
O58 Sc46 2.105 . S
O58 C52 1.268 . S
O59 Sc45 2.105 . S
O59 C53 1.268 . S
O60 Sc44 2.105 . S
O60 C52 1.268 . S
O61 Sc45 2.105 . S
O61 C51 1.268 . S
O62 Sc46 2.105 . S
O62 C53 1.268 . S
O63 Sc44 2.105 . S
O63 C49 1.268 . S
O64 Sc46 2.105 . S
O64 C48 1.268 . S
O65 Sc45 2.105 . S
O65 C50 1.268 . S
Sc66 O69 2.025 . S
Sc66 O76 2.105 . S
Sc66 O79 2.105 . S
Sc66 O82 2.105 . S
Sc66 O85 2.105 . S
Sc67 O69 2.025 . S
Sc67 O77 2.105 . S
Sc67 O81 2.105 . S
Sc67 O83 2.105 . S
Sc67 O87 2.105 . S
Sc68 O69 2.025 . S
Sc68 O78 2.105 . S
Sc68 O80 2.105 . S
Sc68 O84 2.105 . S
Sc68 O86 2.105 . S
O69 Sc66 2.025 . S
O69 Sc67 2.025 . S
O69 Sc68 2.025 . S
C70 O76 1.268 . S
C70 O86 1.268 . S
C71 O77 1.268 . S
C71 O85 1.268 . S
C72 O78 1.268 . S
C72 O87 1.268 . S
C73 O79 1.268 . S
C73 O83 1.268 . S
C74 O80 1.268 . S
C74 O82 1.268 . S
C75 O81 1.268 . S
C75 O84 1.268 . S
O76 Sc66 2.105 . S
O76 C70 1.268 . S
O77 Sc67 2.105 . S
O77 C71 1.268 . S
O78 Sc68 2.105 . S
O78 C72 1.268 . S
O79 Sc66 2.105 . S
O79 C73 1.268 . S
O80 Sc68 2.105 . S
O80 C74 1.268 . S
O81 Sc67 2.105 . S
O81 C75 1.268 . S
O82 Sc66 2.105 . S
O82 C74 1.268 . S
O83 Sc67 2.105 . S
O83 C73 1.268 . S
O84 Sc68 2.105 . S
O84 C75 1.268 . S
O85 Sc66 2.105 . S
O85 C71 1.268 . S
O86 Sc68 2.105 . S
O86 C70 1.268 . S
O87 Sc67 2.105 . S
O87 C72 1.268 . S
Sc88 O91 2.025 . S
Sc88 O98 2.105 . S
Sc88 O101 2.105 . S
Sc88 O104 2.105 . S
Sc88 O107 2.105 . S
Sc89 O91 2.025 . S
Sc89 O99 2.105 . S
Sc89 O103 2.105 . S
Sc89 O105 2.105 . S
Sc89 O109 2.105 . S
Sc90 O91 2.025 . S
Sc90 O100 2.105 . S
Sc90 O102 2.105 . S
Sc90 O106 2.105 . S
Sc90 O108 2.105 . S
O91 Sc88 2.025 . S
O91 Sc89 2.025 . S
O91 Sc90 2.025 . S
C92 O98 1.268 . S
C92 O108 1.268 . S
C93 O99 1.268 . S
C93 O107 1.268 . S
C94 O100 1.268 . S
C94 O109 1.268 . S
C95 O101 1.268 . S
C95 O105 1.268 . S
C96 O102 1.268 . S
C96 O104 1.268 . S
C97 O103 1.268 . S
C97 O106 1.268 . S
O98 Sc88 2.105 . S
O98 C92 1.268 . S
O99 Sc89 2.105 . S
O99 C93 1.268 . S
O100 Sc90 2.105 . S
O100 C94 1.268 . S
O101 Sc88 2.105 . S
O101 C95 1.268 . S
O102 Sc90 2.105 . S
O102 C96 1.268 . S
O103 Sc89 2.105 . S
O103 C97 1.268 . S
O104 Sc88 2.105 . S
O104 C96 1.268 . S
O105 Sc89 2.105 . S
O105 C95 1.268 . S
O106 Sc90 2.105 . S
O106 C97 1.268 . S
O107 Sc88 2.105 . S
O107 C93 1.268 . S
O108 Sc90 2.105 . S
O108 C92 1.268 . S
O109 Sc89 2.105 . S
O109 C94 1.268 . S
Sc110 O113 2.025 . S
Sc110 O120 2.105 . S
Sc110 O123 2.105 . S
Sc110 O126 2.105 . S
Sc110 O129 2.105 . S
Sc111 O113 2.025 . S
Sc111 O121 2.105 . S
Sc111 O125 2.105 . S
Sc111 O127 2.105 . S
Sc111 O131 2.105 . S
Sc112 O113 2.025 . S
Sc112 O122 2.105 . S
Sc112 O124 2.105 . S
Sc112 O128 2.105 . S
Sc112 O130 2.105 . S
O113 Sc110 2.025 . S
O113 Sc111 2.025 . S
O113 Sc112 2.025 . S
C114 O120 1.268 . S
C114 O130 1.268 . S
C115 O121 1.268 . S
C115 O129 1.268 . S
C116 O122 1.268 . S
C116 O131 1.268 . S
C117 O123 1.268 . S
C117 O127 1.268 . S
C118 O124 1.268 . S
C118 O126 1.268 . S
C119 O125 1.268 . S
C119 O128 1.268 . S
O120 Sc110 2.105 . S
O120 C114 1.268 . S
O121 Sc111 2.105 . S
O121 C115 1.268 . S
O122 Sc112 2.105 . S
O122 C116 1.268 . S
O123 Sc110 2.105 . S
O123 C117 1.268 . S
O124 Sc112 2.105 . S
O124 C118 1.268 . S
O125 Sc111 2.105 . S
O125 C119 1.268 . S
O126 Sc110 2.105 . S
O126 C118 1.268 . S
O127 Sc111 2.105 . S
O127 C117 1.268 . S
O128 Sc112 2.105 . S
O128 C119 1.268 . S
O129 Sc110 2.105 . S
O129 C115 1.268 . S
O130 Sc112 2.105 . S
O130 C114 1.268 . S
O131 Sc111 2.105 . S
O131 C116 1.268 . S
Sc132 O135 2.025 . S
Sc132 O142 2.105 . S
Sc132 O145 2.105 . S
Sc132 O148 2.105 . S
Sc132 O151 2.105 . S
Sc133 O135 2.025 . S
Sc133 O143 2.105 . S
Sc133 O147 2.105 . S
Sc133 O149 2.105 . S
Sc133 O153 2.105 . S
Sc134 O135 2.025 . S
Sc134 O144 2.105 . S
Sc134 O146 2.105 . S
Sc134 O150 2.105 . S
Sc134 O152 2.105 . S
O135 Sc132 2.025 . S
O135 Sc133 2.025 . S
O135 Sc134 2.025 . S
C136 O142 1.268 . S
C136 O152 1.268 . S
C137 O143 1.268 . S
C137 O151 1.268 . S
C138 O144 1.268 . S
C138 O153 1.268 . S
C139 O145 1.268 . S
C139 O149 1.268 . S
C140 O146 1.268 . S
C140 O148 1.268 . S
C141 O147 1.268 . S
C141 O150 1.268 . S
O142 Sc132 2.105 . S
O142 C136 1.268 . S
O143 Sc133 2.105 . S
O143 C137 1.268 . S
O144 Sc134 2.105 . S
O144 C138 1.268 . S
O145 Sc132 2.105 . S
O145 C139 1.268 . S
O146 Sc134 2.105 . S
O146 C140 1.268 . S
O147 Sc133 2.105 . S
O147 C141 1.268 . S
O148 Sc132 2.105 . S
O148 C140 1.268 . S
O149 Sc133 2.105 . S
O149 C139 1.268 . S
O150 Sc134 2.105 . S
O150 C141 1.268 . S
O151 Sc132 2.105 . S
O151 C137 1.268 . S
O152 Sc134 2.105 . S
O152 C136 1.268 . S
O153 Sc133 2.105 . S
O153 C138 1.268 . S
Sc154 O157 2.025 . S
Sc154 O164 2.105 . S
Sc154 O167 2.105 . S
Sc154 O170 2.105 . S
Sc154 O173 2.105 . S
Sc155 O157 2.025 . S
Sc155 O165 2.105 . S
Sc155 O169 2.105 . S
Sc155 O171 2.105 . S
Sc155 O175 2.105 . S
Sc156 O157 2.025 . S
Sc156 O166 2.105 . S
Sc156 O168 2.105 . S
Sc156 O172 2.105 . S
Sc156 O174 2.105 . S
O157 Sc154 2.025 . S
O157 Sc155 2.025 . S
O157 Sc156 2.025 . S
C158 O164 1.268 . S
C158 O174 1.268 . S
C159 O165 1.268 . S
C159 O173 1.268 . S
C160 O166 1.268 . S
C160 O175 1.268 . S
C161 O167 1.268 . S
C161 O171 1.268 . S
C162 O168 1.268 . S
C162 O170 1.268 . S
C163 O169 1.268 . S
C163 O172 1.268 . S
O164 Sc154 2.105 . S
O164 C158 1.268 . S
O165 Sc155 2.105 . S
O165 C159 1.268 . S
O166 Sc156 2.105 . S
O166 C160 1.268 . S
O167 Sc154 2.105 . S
O167 C161 1.268 . S
O168 Sc156 2.105 . S
O168 C162 1.268 . S
O169 Sc155 2.105 . S
O169 C163 1.268 . S
O170 Sc154 2.105 . S
O170 C162 1.268 . S
O171 Sc155 2.105 . S
O171 C161 1.268 . S
O172 Sc156 2.105 . S
O172 C163 1.268 . S
O173 Sc154 2.105 . S
O173 C159 1.268 . S
O174 Sc156 2.105 . S
O174 C158 1.268 . S
O175 Sc155 2.105 . S
O175 C160 1.268 . S
Sc176 O179 2.025 . S
Sc176 O186 2.105 . S
Sc176 O189 2.105 . S
Sc176 O192 2.105 . S
Sc176 O195 2.105 . S
Sc177 O179 2.025 . S
Sc177 O187 2.105 . S
Sc177 O191 2.105 . S
Sc177 O193 2.105 . S
Sc177 O197 2.105 . S
Sc178 O179 2.025 . S
Sc178 O188 2.105 . S
Sc178 O190 2.105 . S
Sc178 O194 2.105 . S
Sc178 O196 2.105 . S
O179 Sc176 2.025 . S
O179 Sc177 2.025 . S
O179 Sc178 2.025 . S
C180 O186 1.268 . S
C180 O196 1.268 . S
C181 O187 1.268 . S
C181 O195 1.268 . S
C182 O188 1.268 . S
C182 O197 1.268 . S
C183 O189 1.268 . S
C183 O193 1.268 . S
C184 O190 1.268 . S
C184 O192 1.268 . S
C185 O191 1.268 . S
C185 O194 1.268 . S
O186 Sc176 2.105 . S
O186 C180 1.268 . S
O187 Sc177 2.105 . S
O187 C181 1.268 . S
O188 Sc178 2.105 . S
O188 C182 1.268 . S
O189 Sc176 2.105 . S
O189 C183 1.268 . S
O190 Sc178 2.105 . S
O190 C184 1.268 . S
O191 Sc177 2.105 . S
O191 C185 1.268 . S
O192 Sc176 2.105 . S
O192 C184 1.268 . S
O193 Sc177 2.105 . S
O193 C183 1.268 . S
O194 Sc178 2.105 . S
O194 C185 1.268 . S
O195 Sc176 2.105 . S
O195 C181 1.268 . S
O196 Sc178 2.105 . S
O196 C180 1.268 . S
O197 Sc177 2.105 . S
O197 C182 1.268 . S
Sc198 O201 2.025 . S
Sc198 O208 2.105 . S
Sc198 O211 2.105 . S
Sc198 O214 2.105 . S
Sc198 O217 2.105 . S
Sc199 O201 2.025 . S
Sc199 O209 2.105 . S
Sc199 O213 2.105 . S
Sc199 O215 2.105 . S
Sc199 O219 2.105 . S
Sc200 O201 2.025 . S
Sc200 O210 2.105 . S
Sc200 O212 2.105 . S
Sc200 O216 2.105 . S
Sc200 O218 2.105 . S
O201 Sc198 2.025 . S
O201 Sc199 2.025 . S
O201 Sc200 2.025 . S
C202 O208 1.268 . S
C202 O218 1.268 . S
C203 O209 1.268 . S
C203 O217 1.268 . S
C204 O210 1.268 . S
C204 O219 1.268 . S
C205 O211 1.268 . S
C205 O215 1.268 . S
C206 O212 1.268 . S
C206 O214 1.268 . S
C207 O213 1.268 . S
C207 O216 1.268 . S
O208 Sc198 2.105 . S
O208 C202 1.268 . S
O209 Sc199 2.105 . S
O209 C203 1.268 . S
O210 Sc200 2.105 . S
O210 C204 1.268 . S
O211 Sc198 2.105 . S
O211 C205 1.268 . S
O212 Sc200 2.105 . S
O212 C206 1.268 . S
O213 Sc199 2.105 . S
O213 C207 1.268 . S
O214 Sc198 2.105 . S
O214 C206 1.268 . S
O215 Sc199 2.105 . S
O215 C205 1.268 . S
O216 Sc200 2.105 . S
O216 C207 1.268 . S
O217 Sc198 2.105 . S
O217 C203 1.268 . S
O218 Sc200 2.105 . S
O218 C202 1.268 . S
O219 Sc199 2.105 . S
O219 C204 1.268 . S
Sc220 O223 2.025 . S
Sc220 O230 2.105 . S
Sc220 O233 2.105 . S
Sc220 O236 2.105 . S
Sc220 O239 2.105 . S
Sc221 O223 2.025 . S
Sc221 O231 2.105 . S
Sc221 O235 2.105 . S
Sc221 O237 2.105 . S
Sc221 O241 2.105 . S
Sc222 O223 2.025 . S
Sc222 O232 2.105 . S
Sc222 O234 2.105 . S
Sc222 O238 2.105 . S
Sc222 O240 2.105 . S
O223 Sc220 2.025 . S
O223 Sc221 2.025 . S
O223 Sc222 2.025 . S
C224 O230 1.268 . S
C224 O240 1.268 . S
C225 O231 1.268 . S
C225 O239 1.268 . S
C226 O232 1.268 . S
C226 O241 1.268 . S
C227 O233 1.268 . S
C227 O237 1.268 . S
C228 O234 1.268 . S
C228 O236 1.268 . S
C229 O235 1.268 . S
C229 O238 1.268 . S
O230 Sc220 2.105 . S
O230 C224 1.268 . S
O231 Sc221 2.105 . S
O231 C225 1.268 . S
O232 Sc222 2.105 . S
O232 C226 1.268 . S
O233 Sc220 2.105 . S
O233 C227 1.268 . S
O234 Sc222 2.105 . S
O234 C228 1.268 . S
O235 Sc221 2.105 . S
O235 C229 1.268 . S
O236 Sc220 2.105 . S
O236 C228 1.268 . S
O237 Sc221 2.105 . S
O237 C227 1.268 . S
O238 Sc222 2.105 . S
O238 C229 1.268 . S
O239 Sc220 2.105 . S
O239 C225 1.268 . S
O240 Sc222 2.105 . S
O240 C224 1.268 . S
O241 Sc221 2.105 . S
O241 C226 1.268 . S
Sc242 O245 2.025 . S
Sc242 O252 2.105 . S
Sc242 O255 2.105 . S
Sc242 O258 2.105 . S
Sc242 O261 2.105 . S
Sc243 O245 2.025 . S
Sc243 O253 2.105 . S
Sc243 O257 2.105 . S
Sc243 O259 2.105 . S
Sc243 O263 2.105 . S
Sc244 O245 2.025 . S
Sc244 O254 2.105 . S
Sc244 O256 2.105 . S
Sc244 O260 2.105 . S
Sc244 O262 2.105 . S
O245 Sc242 2.025 . S
O245 Sc243 2.025 . S
O245 Sc244 2.025 . S
C246 O252 1.268 . S
C246 O262 1.268 . S
C247 O253 1.268 . S
C247 O261 1.268 . S
C248 O254 1.268 . S
C248 O263 1.268 . S
C249 O255 1.268 . S
C249 O259 1.268 . S
C250 O256 1.268 . S
C250 O258 1.268 . S
C251 O257 1.268 . S
C251 O260 1.268 . S
O252 Sc242 2.105 . S
O252 C246 1.268 . S
O253 Sc243 2.105 . S
O253 C247 1.268 . S
O254 Sc244 2.105 . S
O254 C248 1.268 . S
O255 Sc242 2.105 . S
O255 C249 1.268 . S
O256 Sc244 2.105 . S
O256 C250 1.268 . S
O257 Sc243 2.105 . S
O257 C251 1.268 . S
O258 Sc242 2.105 . S
O258 C250 1.268 . S
O259 Sc243 2.105 . S
O259 C249 1.268 . S
O260 Sc244 2.105 . S
O260 C251 1.268 . S
O261 Sc242 2.105 . S
O261 C247 1.268 . S
O262 Sc244 2.105 . S
O262 C246 1.268 . S
O263 Sc243 2.105 . S
O263 C248 1.268 . S
Sc264 O267 2.025 . S
Sc264 O274 2.105 . S
Sc264 O277 2.105 . S
Sc264 O280 2.105 . S
Sc264 O283 2.105 . S
Sc265 O267 2.025 . S
Sc265 O275 2.105 . S
Sc265 O279 2.105 . S
Sc265 O281 2.105 . S
Sc265 O285 2.105 . S
Sc266 O267 2.025 . S
Sc266 O276 2.105 . S
Sc266 O278 2.105 . S
Sc266 O282 2.105 . S
Sc266 O284 2.105 . S
O267 Sc264 2.025 . S
O267 Sc265 2.025 . S
O267 Sc266 2.025 . S
C268 O274 1.268 . S
C268 O284 1.268 . S
C269 O275 1.268 . S
C269 O283 1.268 . S
C270 O276 1.268 . S
C270 O285 1.268 . S
C271 O277 1.268 . S
C271 O281 1.268 . S
C272 O278 1.268 . S
C272 O280 1.268 . S
C273 O279 1.268 . S
C273 O282 1.268 . S
O274 Sc264 2.105 . S
O274 C268 1.268 . S
O275 Sc265 2.105 . S
O275 C269 1.268 . S
O276 Sc266 2.105 . S
O276 C270 1.268 . S
O277 Sc264 2.105 . S
O277 C271 1.268 . S
O278 Sc266 2.105 . S
O278 C272 1.268 . S
O279 Sc265 2.105 . S
O279 C273 1.268 . S
O280 Sc264 2.105 . S
O280 C272 1.268 . S
O281 Sc265 2.105 . S
O281 C271 1.268 . S
O282 Sc266 2.105 . S
O282 C273 1.268 . S
O283 Sc264 2.105 . S
O283 C269 1.268 . S
O284 Sc266 2.105 . S
O284 C268 1.268 . S
O285 Sc265 2.105 . S
O285 C270 1.268 . S
Sc286 O289 2.025 . S
Sc286 O296 2.105 . S
Sc286 O299 2.105 . S
Sc286 O302 2.105 . S
Sc286 O305 2.105 . S
Sc287 O289 2.025 . S
Sc287 O297 2.105 . S
Sc287 O301 2.105 . S
Sc287 O303 2.105 . S
Sc287 O307 2.105 . S
Sc288 O289 2.025 . S
Sc288 O298 2.105 . S
Sc288 O300 2.105 . S
Sc288 O304 2.105 . S
Sc288 O306 2.105 . S
O289 Sc286 2.025 . S
O289 Sc287 2.025 . S
O289 Sc288 2.025 . S
C290 O296 1.268 . S
C290 O306 1.268 . S
C291 O297 1.268 . S
C291 O305 1.268 . S
C292 O298 1.268 . S
C292 O307 1.268 . S
C293 O299 1.268 . S
C293 O303 1.268 . S
C294 O300 1.268 . S
C294 O302 1.268 . S
C295 O301 1.268 . S
C295 O304 1.268 . S
O296 Sc286 2.105 . S
O296 C290 1.268 . S
O297 Sc287 2.105 . S
O297 C291 1.268 . S
O298 Sc288 2.105 . S
O298 C292 1.268 . S
O299 Sc286 2.105 . S
O299 C293 1.268 . S
O300 Sc288 2.105 . S
O300 C294 1.268 . S
O301 Sc287 2.105 . S
O301 C295 1.268 . S
O302 Sc286 2.105 . S
O302 C294 1.268 . S
O303 Sc287 2.105 . S
O303 C293 1.268 . S
O304 Sc288 2.105 . S
O304 C295 1.268 . S
O305 Sc286 2.105 . S
O305 C291 1.268 . S
O306 Sc288 2.105 . S
O306 C290 1.268 . S
O307 Sc287 2.105 . S
O307 C292 1.268 . S
Sc308 O311 2.025 . S
Sc308 O318 2.105 . S
Sc308 O321 2.105 . S
Sc308 O324 2.105 . S
Sc308 O327 2.105 . S
Sc309 O311 2.025 . S
Sc309 O319 2.105 . S
Sc309 O323 2.105 . S
Sc309 O325 2.105 . S
Sc309 O329 2.105 . S
Sc310 O311 2.025 . S
Sc310 O320 2.105 . S
Sc310 O322 2.105 . S
Sc310 O326 2.105 . S
Sc310 O328 2.105 . S
O311 Sc308 2.025 . S
O311 Sc309 2.025 . S
O311 Sc310 2.025 . S
C312 O318 1.268 . S
C312 O328 1.268 . S
C313 O319 1.268 . S
C313 O327 1.268 . S
C314 O320 1.268 . S
C314 O329 1.268 . S
C315 O321 1.268 . S
C315 O325 1.268 . S
C316 O322 1.268 . S
C316 O324 1.268 . S
C317 O323 1.268 . S
C317 O326 1.268 . S
O318 Sc308 2.105 . S
O318 C312 1.268 . S
O319 Sc309 2.105 . S
O319 C313 1.268 . S
O320 Sc310 2.105 . S
O320 C314 1.268 . S
O321 Sc308 2.105 . S
O321 C315 1.268 . S
O322 Sc310 2.105 . S
O322 C316 1.268 . S
O323 Sc309 2.105 . S
O323 C317 1.268 . S
O324 Sc308 2.105 . S
O324 C316 1.268 . S
O325 Sc309 2.105 . S
O325 C315 1.268 . S
O326 Sc310 2.105 . S
O326 C317 1.268 . S
O327 Sc308 2.105 . S
O327 C313 1.268 . S
O328 Sc310 2.105 . S
O328 C312 1.268 . S
O329 Sc309 2.105 . S
O329 C314 1.268 . S
Sc330 O333 2.025 . S
Sc330 O340 2.105 . S
Sc330 O343 2.105 . S
Sc330 O346 2.105 . S
Sc330 O349 2.105 . S
Sc331 O333 2.025 . S
Sc331 O341 2.105 . S
Sc331 O345 2.105 . S
Sc331 O347 2.105 . S
Sc331 O351 2.105 . S
Sc332 O333 2.025 . S
Sc332 O342 2.105 . S
Sc332 O344 2.105 . S
Sc332 O348 2.105 . S
Sc332 O350 2.105 . S
O333 Sc330 2.025 . S
O333 Sc331 2.025 . S
O333 Sc332 2.025 . S
C334 O340 1.268 . S
C334 O350 1.268 . S
C335 O341 1.268 . S
C335 O349 1.268 . S
C336 O342 1.268 . S
C336 O351 1.268 . S
C337 O343 1.268 . S
C337 O347 1.268 . S
C338 O344 1.268 . S
C338 O346 1.268 . S
C339 O345 1.268 . S
C339 O348 1.268 . S
O340 Sc330 2.105 . S
O340 C334 1.268 . S
O341 Sc331 2.105 . S
O341 C335 1.268 . S
O342 Sc332 2.105 . S
O342 C336 1.268 . S
O343 Sc330 2.105 . S
O343 C337 1.268 . S
O344 Sc332 2.105 . S
O344 C338 1.268 . S
O345 Sc331 2.105 . S
O345 C339 1.268 . S
O346 Sc330 2.105 . S
O346 C338 1.268 . S
O347 Sc331 2.105 . S
O347 C337 1.268 . S
O348 Sc332 2.105 . S
O348 C339 1.268 . S
O349 Sc330 2.105 . S
O349 C335 1.268 . S
O350 Sc332 2.105 . S
O350 C334 1.268 . S
O351 Sc331 2.105 . S
O351 C336 1.268 . S
C352 C353 1.369 . S
C352 C354 1.419 . S
C352 H356 0.930 . S
C353 C352 1.369 . S
C353 C362 1.429 . S
C354 C352 1.419 . S
C354 C355 1.363 1_545 S
C354 H357 0.929 . S
C355 C354 1.363 1_565 S
C355 C361 1.428 . S
H356 C352 0.930 . S
H357 C354 0.929 . S
S358 N359 1.613 1_565 S
S358 N360 1.610 . S
N359 S358 1.613 1_545 S
N359 C362 1.350 . S
N360 S358 1.610 . S
N360 C361 1.351 . S
C361 C355 1.428 . S
C361 N360 1.351 . S
C361 C362 1.434 1_565 S
C362 C353 1.429 . S
C362 N359 1.350 . S
C362 C361 1.434 1_545 S
C363 C364 1.369 . S
C363 C365 1.419 1_565 S
C363 H367 0.930 . S
C364 C363 1.369 . S
C364 C373 1.429 . S
C365 C363 1.419 1_545 S
C365 C366 1.363 . S
C365 H368 0.929 . S
C366 C365 1.363 . S
C366 C372 1.428 1_545 S
H367 C363 0.930 . S
H368 C365 0.929 . S
S369 N370 1.613 . S
S369 N371 1.610 . S
N370 S369 1.613 . S
N370 C373 1.350 . S
N371 S369 1.610 . S
N371 C372 1.351 . S
C372 C366 1.428 1_565 S
C372 N371 1.351 . S
C372 C373 1.434 . S
C373 C364 1.429 . S
C373 N370 1.350 . S
C373 C372 1.434 . S
C374 C375 1.369 . S
C374 C376 1.419 . S
C374 H378 0.930 . S
C375 C374 1.369 . S
C375 C384 1.429 . S
C376 C374 1.419 . S
C376 C377 1.363 1_565 S
C376 H379 0.929 . S
C377 C376 1.363 1_545 S
C377 C383 1.428 . S
H378 C374 0.930 . S
H379 C376 0.929 . S
S380 N381 1.613 1_545 S
S380 N382 1.610 . S
N381 S380 1.613 1_565 S
N381 C384 1.350 . S
N382 S380 1.610 . S
N382 C383 1.351 . S
C383 C377 1.428 . S
C383 N382 1.351 . S
C383 C384 1.434 1_545 S
C384 C375 1.429 . S
C384 N381 1.350 . S
C384 C383 1.434 1_565 S
C385 C386 1.369 1_545 S
C385 C387 1.419 . S
C385 H389 0.930 1_545 S
C386 C385 1.369 1_565 S
C386 C395 1.429 1_565 S
C387 C385 1.419 . S
C387 C388 1.363 . S
C387 H390 0.929 . S
C388 C387 1.363 . S
C388 C394 1.428 . S
H389 C385 0.930 1_565 S
H390 C387 0.929 . S
S391 N392 1.613 . S
S391 N393 1.610 . S
N392 S391 1.613 . S
N392 C395 1.350 . S
N393 S391 1.610 . S
N393 C394 1.351 . S
C394 C388 1.428 . S
C394 N393 1.351 . S
C394 C395 1.434 . S
C395 C386 1.429 1_545 S
C395 N392 1.350 . S
C395 C394 1.434 . S
C396 C397 1.369 1_565 S
C396 C398 1.419 . S
C396 H400 0.930 1_565 S
C397 C396 1.369 1_545 S
C397 C406 1.429 1_545 S
C398 C396 1.419 . S
C398 C399 1.363 . S
C398 H401 0.929 . S
C399 C398 1.363 . S
C399 C405 1.428 . S
H400 C396 0.930 1_545 S
H401 C398 0.929 . S
S402 N403 1.613 . S
S402 N404 1.610 . S
N403 S402 1.613 . S
N403 C406 1.350 . S
N404 S402 1.610 . S
N404 C405 1.351 . S
C405 C399 1.428 . S
C405 N404 1.351 . S
C405 C406 1.434 . S
C406 C397 1.429 1_565 S
C406 N403 1.350 . S
C406 C405 1.434 . S
C407 C408 1.369 . S
C407 C409 1.419 1_565 S
C407 H411 0.930 . S
C408 C407 1.369 . S
C408 C417 1.429 1_565 S
C409 C407 1.419 1_545 S
C409 C410 1.363 . S
C409 H412 0.929 . S
C410 C409 1.363 . S
C410 C416 1.428 . S
H411 C407 0.930 . S
H412 C409 0.929 . S
S413 N414 1.613 . S
S413 N415 1.610 . S
N414 S413 1.613 . S
N414 C417 1.350 . S
N415 S413 1.610 . S
N415 C416 1.351 . S
C416 C410 1.428 . S
C416 N415 1.351 . S
C416 C417 1.434 . S
C417 C408 1.429 1_545 S
C417 N414 1.350 . S
C417 C416 1.434 . S
C418 C419 1.369 . S
C418 C420 1.419 1_565 S
C418 H422 0.930 . S
C419 C418 1.369 . S
C419 C428 1.429 1_565 S
C420 C418 1.419 1_545 S
C420 C421 1.363 . S
C420 H423 0.929 . S
C421 C420 1.363 . S
C421 C427 1.428 . S
H422 C418 0.930 . S
H423 C420 0.929 . S
S424 N425 1.613 . S
S424 N426 1.610 . S
N425 S424 1.613 . S
N425 C428 1.350 . S
N426 S424 1.610 . S
N426 C427 1.351 . S
C427 C421 1.428 . S
C427 N426 1.351 . S
C427 C428 1.434 . S
C428 C419 1.429 1_545 S
C428 N425 1.350 . S
C428 C427 1.434 . S
C429 C430 1.369 1_565 S
C429 C431 1.419 . S
C429 H433 0.930 . S
C430 C429 1.369 1_545 S
C430 C439 1.429 . S
C431 C429 1.419 . S
C431 C432 1.363 . S
C431 H434 0.929 . S
C432 C431 1.363 . S
C432 C438 1.428 . S
H433 C429 0.930 . S
H434 C431 0.929 . S
S435 N436 1.613 . S
S435 N437 1.610 1_545 S
N436 S435 1.613 . S
N436 C439 1.350 . S
N437 S435 1.610 1_565 S
N437 C438 1.351 . S
C438 C432 1.428 . S
C438 N437 1.351 . S
C438 C439 1.434 1_565 S
C439 C430 1.429 . S
C439 N436 1.350 . S
C439 C438 1.434 1_545 S
C440 C441 1.369 . S
C440 C442 1.419 . S
C440 H444 0.930 . S
C441 C440 1.369 . S
C441 C450 1.429 . S
C442 C440 1.419 . S
C442 C443 1.363 . S
C442 H445 0.929 . S
C443 C442 1.363 . S
C443 C449 1.428 . S
H444 C440 0.930 . S
H445 C442 0.929 . S
S446 N447 1.613 . S
S446 N448 1.610 . S
N447 S446 1.613 . S
N447 C450 1.350 . S
N448 S446 1.610 . S
N448 C449 1.351 . S
C449 C443 1.428 . S
C449 N448 1.351 . S
C449 C450 1.434 . S
C450 C441 1.429 . S
C450 N447 1.350 . S
C450 C449 1.434 . S
C451 C452 1.369 . S
C451 C453 1.419 . S
C451 H455 0.930 . S
C452 C451 1.369 . S
C452 C461 1.429 . S
C453 C451 1.419 . S
C453 C454 1.363 . S
C453 H456 0.929 . S
C454 C453 1.363 . S
C454 C460 1.428 . S
H455 C451 0.930 . S
H456 C453 0.929 . S
S457 N458 1.613 . S
S457 N459 1.610 . S
N458 S457 1.613 . S
N458 C461 1.350 . S
N459 S457 1.610 . S
N459 C460 1.351 . S
C460 C454 1.428 . S
C460 N459 1.351 . S
C460 C461 1.434 . S
C461 C452 1.429 . S
C461 N458 1.350 . S
C461 C460 1.434 . S
C462 C463 1.369 . S
C462 C464 1.419 . S
C462 H466 0.930 . S
C463 C462 1.369 . S
C463 C472 1.429 . S
C464 C462 1.419 . S
C464 C465 1.363 . S
C464 H467 0.929 . S
C465 C464 1.363 . S
C465 C471 1.428 . S
H466 C462 0.930 . S
H467 C464 0.929 . S
S468 N469 1.613 . S
S468 N470 1.610 . S
N469 S468 1.613 . S
N469 C472 1.350 . S
N470 S468 1.610 . S
N470 C471 1.351 . S
C471 C465 1.428 . S
C471 N470 1.351 . S
C471 C472 1.434 . S
C472 C463 1.429 . S
C472 N469 1.350 . S
C472 C471 1.434 . S
C473 C474 1.369 . S
C473 C475 1.419 . S
C473 H477 0.930 . S
C474 C473 1.369 . S
C474 C483 1.429 . S
C475 C473 1.419 . S
C475 C476 1.363 . S
C475 H478 0.929 . S
C476 C475 1.363 . S
C476 C482 1.428 . S
H477 C473 0.930 . S
H478 C475 0.929 . S
S479 N480 1.613 . S
S479 N481 1.610 . S
N480 S479 1.613 . S
N480 C483 1.350 . S
N481 S479 1.610 . S
N481 C482 1.351 . S
C482 C476 1.428 . S
C482 N481 1.351 . S
C482 C483 1.434 . S
C483 C474 1.429 . S
C483 N480 1.350 . S
C483 C482 1.434 . S
C484 C485 1.369 . S
C484 C486 1.419 . S
C484 H488 0.930 . S
C485 C484 1.369 . S
C485 C494 1.429 . S
C486 C484 1.419 . S
C486 C487 1.363 . S
C486 H489 0.929 . S
C487 C486 1.363 . S
C487 C493 1.428 . S
H488 C484 0.930 . S
H489 C486 0.929 . S
S490 N491 1.613 . S
S490 N492 1.610 . S
N491 S490 1.613 . S
N491 C494 1.350 . S
N492 S490 1.610 . S
N492 C493 1.351 . S
C493 C487 1.428 . S
C493 N492 1.351 . S
C493 C494 1.434 . S
C494 C485 1.429 . S
C494 N491 1.350 . S
C494 C493 1.434 . S
C495 C496 1.369 . S
C495 C497 1.419 . S
C495 H499 0.930 . S
C496 C495 1.369 . S
C496 C505 1.429 . S
C497 C495 1.419 . S
C497 C498 1.363 . S
C497 H500 0.929 . S
C498 C497 1.363 . S
C498 C504 1.428 . S
H499 C495 0.930 . S
H500 C497 0.929 . S
S501 N502 1.613 . S
S501 N503 1.610 . S
N502 S501 1.613 . S
N502 C505 1.350 . S
N503 S501 1.610 . S
N503 C504 1.351 . S
C504 C498 1.428 . S
C504 N503 1.351 . S
C504 C505 1.434 . S
C505 C496 1.429 . S
C505 N502 1.350 . S
C505 C504 1.434 . S
C506 C507 1.369 . S
C506 C508 1.419 . S
C506 H510 0.930 . S
C507 C506 1.369 . S
C507 C516 1.429 . S
C508 C506 1.419 . S
C508 C509 1.363 . S
C508 H511 0.929 . S
C509 C508 1.363 . S
C509 C515 1.428 . S
H510 C506 0.930 . S
H511 C508 0.929 . S
S512 N513 1.613 . S
S512 N514 1.610 . S
N513 S512 1.613 . S
N513 C516 1.350 . S
N514 S512 1.610 . S
N514 C515 1.351 . S
C515 C509 1.428 . S
C515 N514 1.351 . S
C515 C516 1.434 . S
C516 C507 1.429 . S
C516 N513 1.350 . S
C516 C515 1.434 . S
C517 C518 1.369 . S
C517 C519 1.419 . S
C517 H521 0.930 . S
C518 C517 1.369 . S
C518 C527 1.429 . S
C519 C517 1.419 . S
C519 C520 1.363 . S
C519 H522 0.929 . S
C520 C519 1.363 . S
C520 C526 1.428 . S
H521 C517 0.930 . S
H522 C519 0.929 . S
S523 N524 1.613 . S
S523 N525 1.610 . S
N524 S523 1.613 . S
N524 C527 1.350 . S
N525 S523 1.610 . S
N525 C526 1.351 . S
C526 C520 1.428 . S
C526 N525 1.351 . S
C526 C527 1.434 . S
C527 C518 1.429 . S
C527 N524 1.350 . S
C527 C526 1.434 . S
C528 C529 1.369 . S
C528 C530 1.419 1_554 S
C528 H532 0.930 . S
C529 C528 1.369 . S
C529 C538 1.438 . S
C530 C528 1.419 1_556 S
C530 C531 1.363 . S
C530 H533 0.929 . S
C531 C530 1.363 . S
C531 C537 1.428 . S
H532 C528 0.930 . S
H533 C530 0.929 . S
S534 N535 1.613 . S
S534 N536 1.610 . S
N535 S534 1.613 . S
N535 C538 1.348 1_556 S
N536 S534 1.610 . S
N536 C537 1.351 . S
C537 C531 1.428 . S
C537 N536 1.351 . S
C537 C538 1.424 1_556 S
C538 C529 1.438 . S
C538 N535 1.348 1_554 S
C538 C537 1.424 1_554 S
C539 C540 1.369 . S
C539 C541 1.419 . S
C539 H543 0.930 . S
C540 C539 1.369 . S
C540 C549 1.429 . S
C541 C539 1.419 . S
C541 C542 1.363 . S
C541 H544 0.929 . S
C542 C541 1.363 . S
C542 C548 1.428 . S
H543 C539 0.930 . S
H544 C541 0.929 . S
S545 N546 1.613 . S
S545 N547 1.610 . S
N546 S545 1.613 . S
N546 C549 1.350 . S
N547 S545 1.610 . S
N547 C548 1.351 . S
C548 C542 1.428 . S
C548 N547 1.351 . S
C548 C549 1.434 . S
C549 C540 1.429 . S
C549 N546 1.350 . S
C549 C548 1.434 . S
C550 C551 1.369 1_556 S
C550 C552 1.419 . S
C550 H554 0.930 . S
C551 C550 1.369 1_554 S
C551 C560 1.429 . S
C552 C550 1.419 . S
C552 C553 1.363 . S
C552 H555 0.929 . S
C553 C552 1.363 . S
C553 C559 1.428 1_556 S
H554 C550 0.930 . S
H555 C552 0.929 . S
S556 N557 1.613 . S
S556 N558 1.610 . S
N557 S556 1.613 . S
N557 C560 1.350 . S
N558 S556 1.610 . S
N558 C559 1.351 . S
C559 C553 1.428 1_554 S
C559 N558 1.351 . S
C559 C560 1.434 . S
C560 C551 1.429 . S
C560 N557 1.350 . S
C560 C559 1.434 . S
C561 C562 1.369 . S
C561 C563 1.419 . S
C561 H565 0.930 . S
C562 C561 1.369 . S
C562 C571 1.429 . S
C563 C561 1.419 . S
C563 C564 1.363 . S
C563 H566 0.929 . S
C564 C563 1.363 . S
C564 C570 1.428 . S
H565 C561 0.930 . S
H566 C563 0.929 . S
S567 N568 1.613 . S
S567 N569 1.610 . S
N568 S567 1.613 . S
N568 C571 1.350 . S
N569 S567 1.610 . S
N569 C570 1.351 . S
C570 C564 1.428 . S
C570 N569 1.351 . S
C570 C571 1.434 . S
C571 C562 1.429 . S
C571 N568 1.350 . S
C571 C570 1.434 . S
C572 C573 1.369 1_554 S
C572 C574 1.419 . S
C572 H576 0.930 . S
C573 C572 1.369 1_556 S
C573 C582 1.429 1_545 S
C574 C572 1.419 . S
C574 C575 1.363 1_545 S
C574 H577 0.929 . S
C575 C574 1.363 1_565 S
C575 C581 1.428 1_554 S
H576 C572 0.930 . S
H577 C574 0.929 . S
S578 N579 1.613 . S
S578 N580 1.610 . S
N579 S578 1.613 . S
N579 C582 1.350 . S
N580 S578 1.610 . S
N580 C581 1.351 . S
C581 C575 1.428 1_556 S
C581 N580 1.351 . S
C581 C582 1.434 . S
C582 C573 1.429 1_565 S
C582 N579 1.350 . S
C582 C581 1.434 . S
C583 C584 1.369 . S
C583 C585 1.408 1_565 S
C583 H587 0.930 . S
C584 C583 1.369 . S
C584 C593 1.429 1_565 S
C585 C583 1.408 1_545 S
C585 C586 1.374 . S
C585 H588 0.929 1_545 S
C586 C585 1.374 . S
C586 C592 1.428 . S
H587 C583 0.930 . S
H588 C585 0.929 1_565 S
S589 N590 1.613 . S
S589 N591 1.610 . S
N590 S589 1.613 . S
N590 C593 1.350 . S
N591 S589 1.610 . S
N591 C592 1.351 . S
C592 C586 1.428 . S
C592 N591 1.351 . S
C592 C593 1.434 . S
C593 C584 1.429 1_545 S
C593 N590 1.350 . S
C593 C592 1.434 . S
C594 C595 1.369 1_545 S
C594 C596 1.419 . S
C594 H598 0.930 . S
C595 C594 1.369 1_565 S
C595 C604 1.429 1_554 S
C596 C594 1.419 . S
C596 C597 1.363 1_554 S
C596 H599 0.929 . S
C597 C596 1.363 1_556 S
C597 C603 1.428 1_545 S
H598 C594 0.930 . S
H599 C596 0.929 . S
S600 N601 1.613 . S
S600 N602 1.610 . S
N601 S600 1.613 . S
N601 C604 1.350 . S
N602 S600 1.610 . S
N602 C603 1.351 . S
C603 C597 1.428 1_565 S
C603 N602 1.351 . S
C603 C604 1.434 . S
C604 C595 1.429 1_556 S
C604 N601 1.350 . S
C604 C603 1.434 . S
C605 C606 1.369 . S
C605 C607 1.419 . S
C605 H609 0.930 . S
C606 C605 1.369 . S
C606 C615 1.429 1_565 S
C607 C605 1.419 . S
C607 C608 1.363 1_565 S
C607 H610 0.929 . S
C608 C607 1.363 1_545 S
C608 C614 1.428 . S
H609 C605 0.930 . S
H610 C607 0.929 . S
S611 N612 1.613 . S
S611 N613 1.610 . S
N612 S611 1.613 . S
N612 C615 1.350 . S
N613 S611 1.610 . S
N613 C614 1.351 . S
C614 C608 1.428 . S
C614 N613 1.351 . S
C614 C615 1.434 . S
C615 C606 1.429 1_545 S
C615 N612 1.350 . S
C615 C614 1.434 . S
C616 C617 1.369 . S
C616 C618 1.419 . S
C616 H620 0.930 . S
C617 C616 1.369 . S
C617 C626 1.429 . S
C618 C616 1.419 . S
C618 C619 1.363 . S
C618 H621 0.929 . S
C619 C618 1.363 . S
C619 C625 1.428 . S
H620 C616 0.930 . S
H621 C618 0.929 . S
S622 N623 1.613 . S
S622 N624 1.610 . S
N623 S622 1.613 . S
N623 C626 1.350 . S
N624 S622 1.610 . S
N624 C625 1.351 . S
C625 C619 1.428 . S
C625 N624 1.351 . S
C625 C626 1.434 . S
C626 C617 1.429 . S
C626 N623 1.350 . S
C626 C625 1.434 . S
C627 C628 1.369 . S
C627 C629 1.419 . S
C627 H631 0.930 . S
C628 C627 1.369 . S
C628 C637 1.429 . S
C629 C627 1.419 . S
C629 C630 1.363 . S
C629 H632 0.929 . S
C630 C629 1.363 . S
C630 C636 1.428 . S
H631 C627 0.930 . S
H632 C629 0.929 . S
S633 N634 1.613 . S
S633 N635 1.610 . S
N634 S633 1.613 . S
N634 C637 1.350 . S
N635 S633 1.610 . S
N635 C636 1.351 . S
C636 C630 1.428 . S
C636 N635 1.351 . S
C636 C637 1.434 . S
C637 C628 1.429 . S
C637 N634 1.350 . S
C637 C636 1.434 . S
C638 C639 1.369 . S
C638 C640 1.419 . S
C638 H642 0.930 . S
C639 C638 1.369 . S
C639 C648 1.429 . S
C640 C638 1.419 . S
C640 C641 1.363 . S
C640 H643 0.929 . S
C641 C640 1.363 . S
C641 C647 1.428 . S
H642 C638 0.930 . S
H643 C640 0.929 . S
S644 N645 1.613 . S
S644 N646 1.610 . S
N645 S644 1.613 . S
N645 C648 1.350 . S
N646 S644 1.610 . S
N646 C647 1.351 . S
C647 C641 1.428 . S
C647 N646 1.351 . S
C647 C648 1.434 . S
C648 C639 1.429 . S
C648 N645 1.350 . S
C648 C647 1.434 . S
C649 C650 1.369 . S
C649 C651 1.419 . S
C649 H653 0.930 . S
C650 C649 1.369 . S
C650 C659 1.429 . S
C651 C649 1.419 . S
C651 C652 1.363 . S
C651 H654 0.929 . S
C652 C651 1.363 . S
C652 C658 1.428 . S
H653 C649 0.930 . S
H654 C651 0.929 . S
S655 N656 1.613 . S
S655 N657 1.610 . S
N656 S655 1.613 . S
N656 C659 1.350 . S
N657 S655 1.610 . S
N657 C658 1.351 . S
C658 C652 1.428 . S
C658 N657 1.351 . S
C658 C659 1.434 . S
C659 C650 1.429 . S
C659 N656 1.350 . S
C659 C658 1.434 . S
C660 C661 1.369 . S
C660 C662 1.419 1_655 S
C660 H664 0.930 . S
C661 C660 1.369 . S
C661 C670 1.429 . S
C662 C660 1.419 1_455 S
C662 C663 1.363 . S
C662 H665 0.929 . S
C663 C662 1.363 . S
C663 C669 1.428 . S
H664 C660 0.930 . S
H665 C662 0.929 . S
S666 N667 1.615 1_455 S
S666 N668 1.608 . S
N667 S666 1.615 1_655 S
N667 C670 1.350 . S
N668 S666 1.608 . S
N668 C669 1.351 . S
C669 C663 1.428 . S
C669 N668 1.351 . S
C669 C670 1.434 1_455 S
C670 C661 1.429 . S
C670 N667 1.350 . S
C670 C669 1.434 1_655 S
C671 C672 1.369 . S
C671 C673 1.419 1_655 S
C671 H675 0.930 . S
C672 C671 1.369 . S
C672 C681 1.429 . S
C673 C671 1.419 1_455 S
C673 C674 1.363 . S
C673 H676 0.929 . S
C674 C673 1.363 . S
C674 C680 1.428 . S
H675 C671 0.930 . S
H676 C673 0.929 . S
S677 N678 1.615 1_455 S
S677 N679 1.608 . S
N678 S677 1.615 1_655 S
N678 C681 1.350 . S
N679 S677 1.608 . S
N679 C680 1.351 . S
C680 C674 1.428 . S
C680 N679 1.351 . S
C680 C681 1.434 1_455 S
C681 C672 1.429 . S
C681 N678 1.350 . S
C681 C680 1.434 1_655 S
C682 C683 1.369 . S
C682 C684 1.419 1_455 S
C682 H686 0.930 . S
C683 C682 1.369 . S
C683 C692 1.429 . S
C684 C682 1.419 1_655 S
C684 C685 1.363 . S
C684 H687 0.929 . S
C685 C684 1.363 . S
C685 C691 1.428 . S
H686 C682 0.930 . S
H687 C684 0.929 . S
S688 N689 1.615 1_655 S
S688 N690 1.608 . S
N689 S688 1.615 1_455 S
N689 C692 1.350 . S
N690 S688 1.608 . S
N690 C691 1.351 . S
C691 C685 1.428 . S
C691 N690 1.351 . S
C691 C692 1.434 1_655 S
C692 C683 1.429 . S
C692 N689 1.350 . S
C692 C691 1.434 1_455 S
C693 C694 1.369 . S
C693 C695 1.419 1_455 S
C693 H697 0.930 . S
C694 C693 1.369 . S
C694 C703 1.429 . S
C695 C693 1.419 1_655 S
C695 C696 1.363 . S
C695 H698 0.929 . S
C696 C695 1.363 . S
C696 C702 1.428 . S
H697 C693 0.930 . S
H698 C695 0.929 . S
S699 N700 1.615 1_655 S
S699 N701 1.608 . S
N700 S699 1.615 1_455 S
N700 C703 1.350 . S
N701 S699 1.608 . S
N701 C702 1.351 . S
C702 C696 1.428 . S
C702 N701 1.351 . S
C702 C703 1.434 1_655 S
C703 C694 1.429 . S
C703 N700 1.350 . S
C703 C702 1.434 1_455 S
C704 C705 1.369 . S
C704 C706 1.419 1_554 S
C704 H708 0.930 . S
C705 C704 1.369 . S
C705 C714 1.429 . S
C706 C704 1.419 1_556 S
C706 C707 1.363 . S
C706 H709 0.929 . S
C707 C706 1.363 . S
C707 C713 1.428 . S
H708 C704 0.930 . S
H709 C706 0.929 . S
S710 N711 1.613 1_556 S
S710 N712 1.610 . S
N711 S710 1.613 1_554 S
N711 C714 1.350 . S
N712 S710 1.610 . S
N712 C713 1.351 . S
C713 C707 1.428 . S
C713 N712 1.351 . S
C713 C714 1.434 1_556 S
C714 C705 1.429 . S
C714 N711 1.350 . S
C714 C713 1.434 1_554 S
C715 C716 1.369 . S
C715 C717 1.419 . S
C715 H719 0.930 . S
C716 C715 1.369 . S
C716 C725 1.429 . S
C717 C715 1.419 . S
C717 C718 1.363 . S
C717 H720 0.929 . S
C718 C717 1.363 . S
C718 C724 1.428 . S
H719 C715 0.930 . S
H720 C717 0.929 . S
S721 N722 1.613 . S
S721 N723 1.610 . S
N722 S721 1.613 . S
N722 C725 1.350 . S
N723 S721 1.610 . S
N723 C724 1.351 . S
C724 C718 1.428 . S
C724 N723 1.351 . S
C724 C725 1.434 . S
C725 C716 1.429 . S
C725 N722 1.350 . S
C725 C724 1.434 . S
C726 C727 1.369 . S
C726 C728 1.419 1_554 S
C726 H730 0.930 . S
C727 C726 1.369 . S
C727 C736 1.429 . S
C728 C726 1.419 1_556 S
C728 C729 1.363 . S
C728 H731 0.929 . S
C729 C728 1.363 . S
C729 C735 1.428 . S
H730 C726 0.930 . S
H731 C728 0.929 . S
S732 N733 1.613 . S
S732 N734 1.610 1_554 S
N733 S732 1.613 . S
N733 C736 1.350 . S
N734 S732 1.610 1_556 S
N734 C735 1.351 . S
C735 C729 1.428 . S
C735 N734 1.351 . S
C735 C736 1.434 1_556 S
C736 C727 1.429 . S
C736 N733 1.350 . S
C736 C735 1.434 1_554 S
C737 C738 1.369 . S
C737 C739 1.419 . S
C737 H741 0.930 . S
C738 C737 1.369 . S
C738 C747 1.429 . S
C739 C737 1.419 . S
C739 C740 1.363 . S
C739 H742 0.929 . S
C740 C739 1.363 . S
C740 C746 1.428 . S
H741 C737 0.930 . S
H742 C739 0.929 . S
S743 N744 1.613 . S
S743 N745 1.610 . S
N744 S743 1.613 . S
N744 C747 1.350 . S
N745 S743 1.610 . S
N745 C746 1.351 . S
C746 C740 1.428 . S
C746 N745 1.351 . S
C746 C747 1.434 . S
C747 C738 1.429 . S
C747 N744 1.350 . S
C747 C746 1.434 . S
C748 C749 1.369 . S
C748 C750 1.419 1_554 S
C748 H752 0.930 . S
C749 C748 1.369 . S
C749 C758 1.429 . S
C750 C748 1.419 1_556 S
C750 C751 1.363 . S
C750 H753 0.929 . S
C751 C750 1.363 . S
C751 C757 1.428 . S
H752 C748 0.930 . S
H753 C750 0.929 . S
S754 N755 1.613 . S
S754 N756 1.610 1_554 S
N755 S754 1.613 . S
N755 C758 1.350 . S
N756 S754 1.610 1_556 S
N756 C757 1.351 . S
C757 C751 1.428 . S
C757 N756 1.351 . S
C757 C758 1.434 1_556 S
C758 C749 1.429 . S
C758 N755 1.350 . S
C758 C757 1.434 1_554 S
C759 C760 1.369 . S
C759 C761 1.419 . S
C759 H763 0.930 . S
C760 C759 1.369 . S
C760 C769 1.429 . S
C761 C759 1.419 . S
C761 C762 1.363 . S
C761 H764 0.929 . S
C762 C761 1.363 . S
C762 C768 1.428 . S
H763 C759 0.930 . S
H764 C761 0.929 . S
S765 N766 1.613 . S
S765 N767 1.610 . S
N766 S765 1.613 . S
N766 C769 1.350 . S
N767 S765 1.610 . S
N767 C768 1.351 . S
C768 C762 1.428 . S
C768 N767 1.351 . S
C768 C769 1.434 . S
C769 C760 1.429 . S
C769 N766 1.350 . S
C769 C768 1.434 . S
C770 C771 1.369 . S
C770 C772 1.419 1_554 S
C770 H774 0.930 . S
C771 C770 1.369 . S
C771 C780 1.429 . S
C772 C770 1.419 1_556 S
C772 C773 1.363 . S
C772 H775 0.929 . S
C773 C772 1.363 . S
C773 C779 1.428 . S
H774 C770 0.930 . S
H775 C772 0.929 . S
S776 N777 1.613 . S
S776 N778 1.610 1_554 S
N777 S776 1.613 . S
N777 C780 1.350 . S
N778 S776 1.610 1_556 S
N778 C779 1.351 . S
C779 C773 1.428 . S
C779 N778 1.351 . S
C779 C780 1.434 1_556 S
C780 C771 1.429 . S
C780 N777 1.350 . S
C780 C779 1.434 1_554 S
C781 C782 1.369 . S
C781 C783 1.419 . S
C781 H785 0.930 . S
C782 C781 1.369 . S
C782 C791 1.429 . S
C783 C781 1.419 . S
C783 C784 1.363 . S
C783 H786 0.929 . S
C784 C783 1.363 . S
C784 C790 1.428 . S
H785 C781 0.930 . S
H786 C783 0.929 . S
S787 N788 1.613 . S
S787 N789 1.610 . S
N788 S787 1.613 . S
N788 C791 1.350 . S
N789 S787 1.610 . S
N789 C790 1.351 . S
C790 C784 1.428 . S
C790 N789 1.351 . S
C790 C791 1.434 . S
C791 C782 1.429 . S
C791 N788 1.350 . S
C791 C790 1.434 . S
C792 C793 1.369 . S
C792 C794 1.419 . S
C792 H796 0.930 . S
C793 C792 1.369 . S
C793 C802 1.429 . S
C794 C792 1.419 . S
C794 C795 1.363 . S
C794 H797 0.929 . S
C795 C794 1.363 . S
C795 C801 1.428 . S
H796 C792 0.930 . S
H797 C794 0.929 . S
S798 N799 1.613 . S
S798 N800 1.610 . S
N799 S798 1.613 . S
N799 C802 1.350 . S
N800 S798 1.610 . S
N800 C801 1.351 . S
C801 C795 1.428 . S
C801 N800 1.351 . S
C801 C802 1.434 . S
C802 C793 1.429 . S
C802 N799 1.350 . S
C802 C801 1.434 . S
C803 C804 1.369 . S
C803 C805 1.419 . S
C803 H807 0.930 . S
C804 C803 1.369 . S
C804 C813 1.429 . S
C805 C803 1.419 . S
C805 C806 1.363 . S
C805 H808 0.929 . S
C806 C805 1.363 . S
C806 C812 1.428 . S
H807 C803 0.930 . S
H808 C805 0.929 . S
S809 N810 1.613 . S
S809 N811 1.610 . S
N810 S809 1.613 . S
N810 C813 1.350 . S
N811 S809 1.610 . S
N811 C812 1.351 . S
C812 C806 1.428 . S
C812 N811 1.351 . S
C812 C813 1.434 . S
C813 C804 1.429 . S
C813 N810 1.350 . S
C813 C812 1.434 . S
C814 C815 1.369 . S
C814 C816 1.419 . S
C814 H818 0.930 . S
C815 C814 1.369 . S
C815 C824 1.429 . S
C816 C814 1.419 . S
C816 C817 1.363 . S
C816 H819 0.929 . S
C817 C816 1.363 . S
C817 C823 1.428 . S
H818 C814 0.930 . S
H819 C816 0.929 . S
S820 N821 1.613 . S
S820 N822 1.610 . S
N821 S820 1.613 . S
N821 C824 1.350 . S
N822 S820 1.610 . S
N822 C823 1.351 . S
C823 C817 1.428 . S
C823 N822 1.351 . S
C823 C824 1.434 . S
C824 C815 1.429 . S
C824 N821 1.350 . S
C824 C823 1.434 . S
C825 C826 1.369 . S
C825 C827 1.419 . S
C825 H829 0.930 . S
C826 C825 1.369 . S
C826 C835 1.429 . S
C827 C825 1.419 . S
C827 C828 1.363 . S
C827 H830 0.929 . S
C828 C827 1.363 . S
C828 C834 1.428 . S
H829 C825 0.930 . S
H830 C827 0.929 . S
S831 N832 1.613 . S
S831 N833 1.610 . S
N832 S831 1.613 . S
N832 C835 1.350 . S
N833 S831 1.610 . S
N833 C834 1.351 . S
C834 C828 1.428 . S
C834 N833 1.351 . S
C834 C835 1.434 . S
C835 C826 1.429 . S
C835 N832 1.350 . S
C835 C834 1.434 . S
C836 C837 1.369 . S
C836 C838 1.419 . S
C836 H840 0.930 . S
C837 C836 1.369 . S
C837 C846 1.429 . S
C838 C836 1.419 . S
C838 C839 1.363 . S
C838 H841 0.929 . S
C839 C838 1.363 . S
C839 C845 1.428 . S
H840 C836 0.930 . S
H841 C838 0.929 . S
S842 N843 1.613 . S
S842 N844 1.610 . S
N843 S842 1.613 . S
N843 C846 1.350 . S
N844 S842 1.610 . S
N844 C845 1.351 . S
C845 C839 1.428 . S
C845 N844 1.351 . S
C845 C846 1.434 . S
C846 C837 1.429 . S
C846 N843 1.350 . S
C846 C845 1.434 . S
C847 C848 1.369 . S
C847 C849 1.419 . S
C847 H851 0.930 . S
C848 C847 1.369 . S
C848 C857 1.429 . S
C849 C847 1.419 . S
C849 C850 1.363 . S
C849 H852 0.929 . S
C850 C849 1.363 . S
C850 C856 1.428 . S
H851 C847 0.930 . S
H852 C849 0.929 . S
S853 N854 1.613 . S
S853 N855 1.610 . S
N854 S853 1.613 . S
N854 C857 1.350 . S
N855 S853 1.610 . S
N855 C856 1.351 . S
C856 C850 1.428 . S
C856 N855 1.351 . S
C856 C857 1.434 . S
C857 C848 1.429 . S
C857 N854 1.350 . S
C857 C856 1.434 . S
C858 C859 1.369 . S
C858 C860 1.419 . S
C858 H862 0.930 . S
C859 C858 1.369 . S
C859 C868 1.429 . S
C860 C858 1.419 . S
C860 C861 1.363 . S
C860 H863 0.929 . S
C861 C860 1.363 . S
C861 C867 1.428 . S
H862 C858 0.930 . S
H863 C860 0.929 . S
S864 N865 1.613 . S
S864 N866 1.610 . S
N865 S864 1.613 . S
N865 C868 1.350 . S
N866 S864 1.610 . S
N866 C867 1.351 . S
C867 C861 1.428 . S
C867 N866 1.351 . S
C867 C868 1.434 . S
C868 C859 1.429 . S
C868 N865 1.350 . S
C868 C867 1.434 . S
C869 C870 1.369 . S
C869 C871 1.419 . S
C869 H873 0.930 . S
C870 C869 1.369 . S
C870 C879 1.429 . S
C871 C869 1.419 . S
C871 C872 1.363 . S
C871 H874 0.929 . S
C872 C871 1.363 . S
C872 C878 1.428 . S
H873 C869 0.930 . S
H874 C871 0.929 . S
S875 N876 1.613 . S
S875 N877 1.610 . S
N876 S875 1.613 . S
N876 C879 1.350 . S
N877 S875 1.610 . S
N877 C878 1.351 . S
C878 C872 1.428 . S
C878 N877 1.351 . S
C878 C879 1.434 . S
C879 C870 1.429 . S
C879 N876 1.350 . S
C879 C878 1.434 . S
C353 C9 1.488 . S
C355 C314 1.638 . S
C364 C31 1.480 . S
C366 C336 1.637 . S
C375 C49 1.491 . S
C377 C271 1.637 . S
C386 C292 1.636 . S
C388 C75 1.485 . S
C397 C229 1.636 . S
C399 C94 1.488 . S
C408 C247 1.637 . S
C410 C117 1.481 . S
C419 C181 1.636 . S
C421 C139 1.484 . S
C430 C203 1.638 . S
C432 C161 1.487 . S
C441 C185 1.491 . S
C443 C138 1.636 . S
C452 C160 1.636 . S
C454 C207 1.485 . S
C463 C95 1.636 . S
C465 C225 1.487 . S
C474 C116 1.636 . S
C476 C251 1.491 . S
C485 C53 1.636 . S
C487 C270 1.491 . S
C496 C293 1.479 . S
C498 C71 1.638 . S
C507 C5 1.639 . S
C509 C315 1.482 . S
C518 C337 1.492 . S
C520 C27 1.637 . S
C529 C4 1.642 . S
C531 C52 1.641 . S
C540 C70 1.641 . S
C542 C26 1.642 . S
C551 C136 1.641 . S
C553 C96 1.642 . S
C562 C158 1.642 . S
C564 C114 1.641 . S
C573 C228 1.641 . S
C575 C180 1.642 . S
C584 C246 1.641 . S
C586 C202 1.642 . S
C595 C312 1.642 . S
C597 C272 1.641 . S
C606 C290 1.641 . S
C608 C334 1.642 . S
C617 C8 1.529 . S
C619 C140 1.530 . S
C628 C30 1.534 . S
C630 C162 1.533 . S
C639 C92 1.532 . S
C641 C48 1.532 . S
C650 C74 1.538 . S
C652 C118 1.537 . S
C661 C184 1.537 . S
C663 C316 1.536 . S
C672 C338 1.536 . S
C674 C206 1.535 . S
C683 C268 1.536 . S
C685 C224 1.535 . S
C694 C250 1.536 . S
C696 C294 1.536 . S
C705 C6 1.077 . S
C707 C273 1.073 . S
C716 C291 1.081 . S
C718 C28 1.069 . S
C727 C313 1.079 . S
C729 C51 1.072 . S
C738 C335 1.068 . S
C740 C72 1.080 . S
C749 C182 1.067 . S
C751 C97 1.080 . S
C760 C204 1.084 . S
C762 C115 1.067 . S
C771 C137 1.067 . S
C773 C227 1.081 . S
C782 C248 1.073 . S
C784 C159 1.075 . S
C793 C7 1.454 . S
C795 C119 1.453 . S
C804 C93 1.449 . S
C806 C29 1.449 . S
C815 C50 1.453 . S
C817 C163 1.453 . S
C826 C141 1.450 . S
C828 C73 1.450 . S
C837 C183 1.451 . S
C839 C295 1.451 . S
C848 C269 1.451 . S
C850 C205 1.451 . S
C859 C339 1.454 . S
C861 C226 1.453 . S
C870 C249 1.454 . S
C872 C317 1.453 . S
