# Generated by pormake.
# Topology uno, (4)-cn, num edge types: 1
# Building blocks:
#     Node 0, Type 0, BuildingBlock: NAWXER_clean_sbu_0, # of connection points: 4
#     Node 1, Type 0, BuildingBlock: NAWXER_clean_sbu_0, # of connection points: 4
#     Node 2, Type 0, BuildingBlock: NAWXER_clean_sbu_0, # of connection points: 4
#     Node 3, Type 0, BuildingBlock: NAWXER_clean_sbu_0, # of connection points: 4
#     Node 4, Type 0, BuildingBlock: NAWXER_clean_sbu_0, # of connection points: 4
#     Node 5, Type 0, BuildingBlock: NAWXER_clean_sbu_0, # of connection points: 4
#     Node 6, Type 0, BuildingBlock: NAWXER_clean_sbu_0, # of connection points: 4
#     Node 7, Type 0, BuildingBlock: NAWXER_clean_sbu_0, # of connection points: 4
#     Node 8, Type 0, BuildingBlock: NAWXER_clean_sbu_0, # of connection points: 4
#     Node 9, Type 0, BuildingBlock: NAWXER_clean_sbu_0, # of connection points: 4
#     Node 10, Type 0, BuildingBlock: NAWXER_clean_sbu_0, # of connection points: 4
#     Node 11, Type 0, BuildingBlock: NAWXER_clean_sbu_0, # of connection points: 4
#     Node 12, Type 0, BuildingBlock: NAWXER_clean_sbu_0, # of connection points: 4
#     Node 13, Type 0, BuildingBlock: NAWXER_clean_sbu_0, # of connection points: 4
#     Node 14, Type 0, BuildingBlock: NAWXER_clean_sbu_0, # of connection points: 4
#     Node 15, Type 0, BuildingBlock: NAWXER_clean_sbu_0, # of connection points: 4
#     Node 16, Type 0, BuildingBlock: NAWXER_clean_sbu_0, # of connection points: 4
#     Node 17, Type 0, BuildingBlock: NAWXER_clean_sbu_0, # of connection points: 4
#     Node 18, Type 0, BuildingBlock: NAWXER_clean_sbu_0, # of connection points: 4
#     Node 19, Type 0, BuildingBlock: NAWXER_clean_sbu_0, # of connection points: 4
#     Node 20, Type 0, BuildingBlock: NAWXER_clean_sbu_0, # of connection points: 4
#     Node 21, Type 0, BuildingBlock: NAWXER_clean_sbu_0, # of connection points: 4
#     Node 22, Type 0, BuildingBlock: NAWXER_clean_sbu_0, # of connection points: 4
#     Node 23, Type 0, BuildingBlock: NAWXER_clean_sbu_0, # of connection points: 4
#     Edge 24, Type (0, 0), BuildingBlock: EZIPEK_clean_linker_0, # of connection points: 2
#     Edge 25, Type (0, 0), BuildingBlock: EZIPEK_clean_linker_0, # of connection points: 2
#     Edge 26, Type (0, 0), BuildingBlock: EZIPEK_clean_linker_0, # of connection points: 2
#     Edge 27, Type (0, 0), BuildingBlock: EZIPEK_clean_linker_0, # of connection points: 2
#     Edge 28, Type (0, 0), BuildingBlock: EZIPEK_clean_linker_0, # of connection points: 2
#     Edge 29, Type (0, 0), BuildingBlock: EZIPEK_clean_linker_0, # of connection points: 2
#     Edge 30, Type (0, 0), BuildingBlock: EZIPEK_clean_linker_0, # of connection points: 2
#     Edge 31, Type (0, 0), BuildingBlock: EZIPEK_clean_linker_0, # of connection points: 2
#     Edge 32, Type (0, 0), BuildingBlock: EZIPEK_clean_linker_0, # of connection points: 2
#     Edge 33, Type (0, 0), BuildingBlock: EZIPEK_clean_linker_0, # of connection points: 2
#     Edge 34, Type (0, 0), BuildingBlock: EZIPEK_clean_linker_0, # of connection points: 2
#     Edge 35, Type (0, 0), BuildingBlock: EZIPEK_clean_linker_0, # of connection points: 2
#     Edge 36, Type (0, 0), BuildingBlock: EZIPEK_clean_linker_0, # of connection points: 2
#     Edge 37, Type (0, 0), BuildingBlock: EZIPEK_clean_linker_0, # of connection points: 2
#     Edge 38, Type (0, 0), BuildingBlock: EZIPEK_clean_linker_0, # of connection points: 2
#     Edge 39, Type (0, 0), BuildingBlock: EZIPEK_clean_linker_0, # of connection points: 2
#     Edge 40, Type (0, 0), BuildingBlock: EZIPEK_clean_linker_0, # of connection points: 2
#     Edge 41, Type (0, 0), BuildingBlock: EZIPEK_clean_linker_0, # of connection points: 2
#     Edge 42, Type (0, 0), BuildingBlock: EZIPEK_clean_linker_0, # of connection points: 2
#     Edge 43, Type (0, 0), BuildingBlock: EZIPEK_clean_linker_0, # of connection points: 2
#     Edge 44, Type (0, 0), BuildingBlock: EZIPEK_clean_linker_0, # of connection points: 2
#     Edge 45, Type (0, 0), BuildingBlock: EZIPEK_clean_linker_0, # of connection points: 2
#     Edge 46, Type (0, 0), BuildingBlock: EZIPEK_clean_linker_0, # of connection points: 2
#     Edge 47, Type (0, 0), BuildingBlock: EZIPEK_clean_linker_0, # of connection points: 2
#     Edge 48, Type (0, 0), BuildingBlock: EZIPEK_clean_linker_0, # of connection points: 2
#     Edge 49, Type (0, 0), BuildingBlock: EZIPEK_clean_linker_0, # of connection points: 2
#     Edge 50, Type (0, 0), BuildingBlock: EZIPEK_clean_linker_0, # of connection points: 2
#     Edge 51, Type (0, 0), BuildingBlock: EZIPEK_clean_linker_0, # of connection points: 2
#     Edge 52, Type (0, 0), BuildingBlock: EZIPEK_clean_linker_0, # of connection points: 2
#     Edge 53, Type (0, 0), BuildingBlock: EZIPEK_clean_linker_0, # of connection points: 2
#     Edge 54, Type (0, 0), BuildingBlock: EZIPEK_clean_linker_0, # of connection points: 2
#     Edge 55, Type (0, 0), BuildingBlock: EZIPEK_clean_linker_0, # of connection points: 2
#     Edge 56, Type (0, 0), BuildingBlock: EZIPEK_clean_linker_0, # of connection points: 2
#     Edge 57, Type (0, 0), BuildingBlock: EZIPEK_clean_linker_0, # of connection points: 2
#     Edge 58, Type (0, 0), BuildingBlock: EZIPEK_clean_linker_0, # of connection points: 2
#     Edge 59, Type (0, 0), BuildingBlock: EZIPEK_clean_linker_0, # of connection points: 2
#     Edge 60, Type (0, 0), BuildingBlock: EZIPEK_clean_linker_0, # of connection points: 2
#     Edge 61, Type (0, 0), BuildingBlock: EZIPEK_clean_linker_0, # of connection points: 2
#     Edge 62, Type (0, 0), BuildingBlock: EZIPEK_clean_linker_0, # of connection points: 2
#     Edge 63, Type (0, 0), BuildingBlock: EZIPEK_clean_linker_0, # of connection points: 2
#     Edge 64, Type (0, 0), BuildingBlock: EZIPEK_clean_linker_0, # of connection points: 2
#     Edge 65, Type (0, 0), BuildingBlock: EZIPEK_clean_linker_0, # of connection points: 2
#     Edge 66, Type (0, 0), BuildingBlock: EZIPEK_clean_linker_0, # of connection points: 2
#     Edge 67, Type (0, 0), BuildingBlock: EZIPEK_clean_linker_0, # of connection points: 2
#     Edge 68, Type (0, 0), BuildingBlock: EZIPEK_clean_linker_0, # of connection points: 2
#     Edge 69, Type (0, 0), BuildingBlock: EZIPEK_clean_linker_0, # of connection points: 2
#     Edge 70, Type (0, 0), BuildingBlock: EZIPEK_clean_linker_0, # of connection points: 2
#     Edge 71, Type (0, 0), BuildingBlock: EZIPEK_clean_linker_0, # of connection points: 2
# Relax obj value: 0.465
# Max RMSD: 0.255
# Mean RMSD: 0.237
data_MOF--net-uno--node1-NAWXER_clean_sbu_0--edge1-EZIPEK_clean_linker_0
_symmetry_space_group_name_H-M    P1
_symmetry_Int_Tables_number       1
_symmetry_cell_setting            triclinic
loop_
_symmetry_equiv_pos_as_xyz
'x, y, z'
_cell_length_a     36.789552
_cell_length_b     36.763158
_cell_length_c     36.786518
_cell_angle_alpha  89.804622
_cell_angle_beta   89.754029
_cell_angle_gamma 89.784745
loop_
_atom_site_label
_atom_site_type_symbol
_atom_site_fract_x
_atom_site_fract_y
_atom_site_fract_z
_atom_type_partial_charge
C0 C 0.03308 0.26209 0.27481 0.0
C1 C 0.1299 0.31865 0.20973 0.0
O2 O 0.03239 0.27454 0.24268 0.0
Zn3 Zn 0.07712 0.30106 0.24462 0.0
O4 O 0.05593 0.27511 0.29757 0.0
Zn5 Zn 0.10133 0.3131 0.29322 0.0
O6 O 0.08995 0.36011 0.31476 0.0
O7 O 0.06403 0.35476 0.26149 0.0
O8 O 0.13492 0.32201 0.24416 0.0
O9 O 0.09847 0.31065 0.19843 0.0
O10 O 0.11676 0.26061 0.26782 0.0
O11 O 0.13565 0.28495 0.31972 0.0
C12 C 0.07124 0.37386 0.28945 0.0
C13 C 0.1364 0.25917 0.29675 0.0
C14 C 0.99426 0.76385 0.51461 0.0
C15 C 0.94773 0.86973 0.45147 0.0
O16 O 0.98884 0.76891 0.48099 0.0
Zn17 Zn 0.96452 0.81505 0.48411 0.0
O18 O 0.98112 0.78716 0.53708 0.0
Zn19 Zn 0.95172 0.83823 0.53388 0.0
O20 O 0.90338 0.83099 0.55393 0.0
O21 O 0.91001 0.80432 0.50089 0.0
O22 O 0.94515 0.87383 0.48614 0.0
O23 O 0.95584 0.83867 0.43894 0.0
O24 O 0.00658 0.84914 0.50963 0.0
O25 O 0.98444 0.86621 0.56284 0.0
C26 C 0.88999 0.81283 0.52811 0.0
C27 C 0.01044 0.86609 0.53997 0.0
C28 C 0.47823 0.75033 0.76977 0.0
C29 C 0.36881 0.69845 0.72446 0.0
O30 O 0.47199 0.74023 0.73756 0.0
Zn31 Zn 0.42756 0.71455 0.74726 0.0
O32 O 0.46066 0.73535 0.79604 0.0
Zn33 Zn 0.41556 0.69687 0.79907 0.0
O34 O 0.432 0.64829 0.8125 0.0
O35 O 0.44114 0.65848 0.75436 0.0
O36 O 0.37212 0.69044 0.75836 0.0
O37 O 0.39528 0.7122 0.70708 0.0
O38 O 0.39539 0.75148 0.78306 0.0
O39 O 0.38715 0.72159 0.83505 0.0
C40 C 0.44169 0.6368 0.78157 0.0
C41 C 0.38184 0.74962 0.81534 0.0
C42 C 0.62507 0.20095 0.02663 0.0
C43 C 0.5172 0.12726 0.04426 0.0
O44 O 0.61367 0.18548 0.05525 0.0
Zn45 Zn 0.56854 0.16604 0.03582 0.0
O46 O 0.60476 0.20176 0.99848 0.0
Zn47 Zn 0.55238 0.18216 0.9842 0.0
O48 O 0.52269 0.22472 0.97744 0.0
O49 O 0.52787 0.20916 0.03496 0.0
O50 O 0.51698 0.14339 0.01317 0.0
O51 O 0.5431 0.13232 0.06642 0.0
O52 O 0.58392 0.12956 0.99086 0.0
O53 O 0.56285 0.15543 0.94124 0.0
C54 C 0.51249 0.22835 0.01015 0.0
C55 C 0.57986 0.12925 0.95614 0.0
C56 C 0.95223 0.99972 0.36393 0.0
C57 C 0.98211 0.11856 0.31252 0.0
O58 O 0.93134 0.02735 0.36228 0.0
Zn59 Zn 0.96572 0.05771 0.33609 0.0
O60 O 0.98373 0.00107 0.34885 0.0
Zn61 Zn 0.01699 0.0394 0.31872 0.0
O62 O 0.05906 0.04039 0.34836 0.0
O63 O 0.00943 0.0604 0.37633 0.0
O64 O 0.00788 0.09551 0.3079 0.0
O65 O 0.9522 0.1081 0.32617 0.0
O66 O 0.96588 0.02832 0.28507 0.0
O67 O 0.02282 0.01559 0.27288 0.0
C68 C 0.04351 0.0525 0.3767 0.0
C69 C 0.98962 0.01324 0.26424 0.0
C70 C 0.24473 0.74196 0.53657 0.0
C71 C 0.17607 0.79428 0.6353 0.0
O72 O 0.23365 0.77443 0.53998 0.0
Zn73 Zn 0.20332 0.7668 0.58197 0.0
O74 O 0.22979 0.71666 0.5555 0.0
Zn75 Zn 0.18912 0.71489 0.59864 0.0
O76 O 0.14444 0.69423 0.58051 0.0
O77 O 0.15074 0.75114 0.56304 0.0
O78 O 0.17295 0.75944 0.63519 0.0
O79 O 0.1921 0.8095 0.60869 0.0
O80 O 0.23955 0.73924 0.62108 0.0
O81 O 0.21533 0.68516 0.63256 0.0
C82 C 0.13176 0.72208 0.56468 0.0
C83 C 0.24048 0.70825 0.63745 0.0
C84 C 0.53511 0.89143 0.80602 0.0
C85 C 0.56172 0.00522 0.86697 0.0
O86 O 0.56372 0.90083 0.82247 0.0
Zn87 Zn 0.54926 0.95072 0.8337 0.0
O88 O 0.51039 0.91526 0.80007 0.0
Zn89 Zn 0.50121 0.971 0.81269 0.0
O90 O 0.50016 0.99699 0.76768 0.0
O91 O 0.55554 0.98353 0.78453 0.0
O92 O 0.53169 0.00739 0.84919 0.0
O93 O 0.58094 0.97646 0.86537 0.0
O94 O 0.50095 0.94647 0.86913 0.0
O95 O 0.45545 0.96629 0.83579 0.0
C96 C 0.53402 0.99944 0.76202 0.0
C97 C 0.46681 0.95348 0.86569 0.0
C98 C 0.37452 0.2834 0.05737 0.0
C99 C 0.25897 0.30313 0.12007 0.0
O100 O 0.36427 0.31075 0.07564 0.0
Zn101 Zn 0.31521 0.29386 0.08762 0.0
O102 O 0.35205 0.25769 0.0515 0.0
Zn103 Zn 0.29825 0.24449 0.06628 0.0
O104 O 0.27136 0.24187 0.02211 0.0
O105 O 0.28242 0.29785 0.03877 0.0
O106 O 0.26018 0.27264 0.10295 0.0
O107 O 0.28585 0.32473 0.11804 0.0
O108 O 0.3216 0.24602 0.12335 0.0
O109 O 0.30669 0.19937 0.08931 0.0
C110 C 0.26713 0.27566 0.01672 0.0
C111 C 0.31715 0.2115 0.11967 0.0
C112 C 0.31465 0.11945 0.24661 0.0
C113 C 0.29 0.06191 0.36376 0.0
O114 O 0.33691 0.11523 0.27273 0.0
Zn115 Zn 0.30346 0.08736 0.30227 0.0
O116 O 0.2827 0.10541 0.24873 0.0
Zn117 Zn 0.2509 0.07319 0.28817 0.0
O118 O 0.21011 0.10454 0.29197 0.0
O119 O 0.26141 0.12958 0.31064 0.0
O120 O 0.26177 0.06115 0.34366 0.0
O121 O 0.31995 0.07246 0.35041 0.0
O122 O 0.29994 0.04097 0.266 0.0
O123 O 0.24179 0.02783 0.26365 0.0
C124 C 0.22715 0.13196 0.30394 0.0
C125 C 0.27392 0.02234 0.25246 0.0
C126 C 0.14449 0.94743 0.55317 0.0
C127 C 0.24296 0.02 0.50399 0.0
O128 O 0.17517 0.93666 0.54155 0.0
Zn129 Zn 0.19609 0.98384 0.53556 0.0
O130 O 0.14004 0.98144 0.5602 0.0
Zn131 Zn 0.17209 0.03151 0.55442 0.0
O132 O 0.13716 0.06018 0.52866 0.0
O133 O 0.15614 0.01066 0.49971 0.0
O134 O 0.2191 0.04003 0.51986 0.0
O135 O 0.24045 0.98582 0.50779 0.0
O136 O 0.20914 0.99559 0.59059 0.0
O137 O 0.1837 0.0482 0.60307 0.0
C138 C 0.13606 0.03938 0.50114 0.0
C139 C 0.20223 0.02101 0.61332 0.0
C140 C 0.20122 0.87752 0.76158 0.0
C141 C 0.22602 0.94857 0.86963 0.0
O142 O 0.18081 0.88362 0.78885 0.0
Zn143 Zn 0.21417 0.91478 0.81336 0.0
O144 O 0.23346 0.89104 0.76031 0.0
Zn145 Zn 0.26634 0.92656 0.79613 0.0
O146 O 0.30713 0.89637 0.80574 0.0
O147 O 0.25622 0.87548 0.82914 0.0
O148 O 0.25431 0.94727 0.84931 0.0
O149 O 0.19642 0.93536 0.85842 0.0
O150 O 0.21822 0.95759 0.77247 0.0
O151 O 0.27669 0.96845 0.76663 0.0
C152 C 0.29068 0.87229 0.82425 0.0
C153 C 0.24439 0.97418 0.75633 0.0
C154 C 0.39021 0.03843 0.05453 0.0
C155 C 0.27715 0.99365 0.00557 0.0
O156 O 0.36336 0.05614 0.04194 0.0
Zn157 Zn 0.33171 0.01604 0.03597 0.0
O158 O 0.38729 0.00406 0.0606 0.0
Zn159 Zn 0.34557 0.96267 0.05114 0.0
O160 O 0.37171 0.92967 0.01907 0.0
O161 O 0.36242 0.98476 0.99687 0.0
O162 O 0.29599 0.96785 0.01986 0.0
O163 O 0.28775 0.02606 0.01 0.0
O164 O 0.31616 0.00237 0.09024 0.0
O165 O 0.3316 0.94509 0.09914 0.0
C166 C 0.37578 0.95265 0.99345 0.0
C167 C 0.31799 0.97445 0.11112 0.0
C168 C 0.76399 0.25166 0.97965 0.0
C169 C 0.82502 0.29518 0.8729 0.0
O170 O 0.77342 0.28401 0.97262 0.0
Zn171 Zn 0.80177 0.27316 0.92995 0.0
O172 O 0.77996 0.22529 0.96316 0.0
Zn173 Zn 0.81907 0.22022 0.91879 0.0
O174 O 0.86608 0.20464 0.93824 0.0
O175 O 0.85515 0.26253 0.94865 0.0
O176 O 0.83178 0.26106 0.87708 0.0
O177 O 0.80892 0.31275 0.8979 0.0
O178 O 0.76571 0.23965 0.89685 0.0
O179 O 0.79189 0.18577 0.88992 0.0
C180 C 0.87667 0.23518 0.95 0.0
C181 C 0.76524 0.20716 0.88398 0.0
C182 C 0.05147 0.50805 0.14666 0.0
C183 C 0.02195 0.62116 0.20793 0.0
O184 O 0.06977 0.53725 0.1481 0.0
Zn185 Zn 0.0372 0.56237 0.17972 0.0
O186 O 0.02122 0.50539 0.16423 0.0
Zn187 Zn 0.98929 0.54135 0.20044 0.0
O188 O 0.94375 0.54557 0.17692 0.0
O189 O 0.98931 0.5668 0.14434 0.0
O190 O 0.99739 0.59722 0.21363 0.0
O191 O 0.05086 0.61202 0.19152 0.0
O192 O 0.0435 0.5292 0.22846 0.0
O193 O 0.98825 0.51491 0.24527 0.0
C194 C 0.95527 0.55936 0.14745 0.0
C195 C 0.02215 0.51265 0.25071 0.0
C196 C 0.75135 0.77229 0.48179 0.0
C197 C 0.69602 0.72125 0.3743 0.0
O198 O 0.75091 0.74002 0.46989 0.0
Zn199 Zn 0.72055 0.74726 0.42854 0.0
O200 O 0.73204 0.79631 0.46522 0.0
Zn201 Zn 0.69496 0.79699 0.41923 0.0
O202 O 0.64699 0.80665 0.43918 0.0
O203 O 0.66537 0.7503 0.44851 0.0
O204 O 0.68457 0.75397 0.37933 0.0
O205 O 0.71803 0.70706 0.39677 0.0
O206 O 0.75071 0.78538 0.39504 0.0
O207 O 0.71648 0.83453 0.38903 0.0
C208 C 0.64035 0.77465 0.45034 0.0
C209 C 0.7457 0.8174 0.38194 0.0
C210 C 0.86863 0.83525 0.29357 0.0
C211 C 0.96725 0.76392 0.24398 0.0
O212 O 0.8944 0.81848 0.30933 0.0
Zn213 Zn 0.92166 0.80615 0.26716 0.0
O214 O 0.86921 0.83755 0.25865 0.0
Zn215 Zn 0.90638 0.81976 0.21484 0.0
O216 O 0.87339 0.79338 0.18487 0.0
O217 O 0.88304 0.76955 0.23959 0.0
O218 O 0.94886 0.77848 0.21814 0.0
O219 O 0.96363 0.77607 0.27596 0.0
O220 O 0.94131 0.85838 0.25063 0.0
O221 O 0.92565 0.86379 0.19324 0.0
C222 C 0.86788 0.76834 0.20813 0.0
C223 C 0.9407 0.87687 0.22111 0.0
C224 C 0.63598 0.19022 0.79764 0.0
C225 C 0.53676 0.24733 0.73606 0.0
O226 O 0.60459 0.19762 0.80996 0.0
Zn227 Zn 0.58253 0.20907 0.76468 0.0
O228 O 0.64067 0.1884 0.76303 0.0
Zn229 Zn 0.60687 0.19898 0.71503 0.0
O230 O 0.64058 0.22961 0.68973 0.0
O231 O 0.62059 0.25094 0.74265 0.0
O232 O 0.55983 0.23533 0.71264 0.0
O233 O 0.53723 0.23488 0.76821 0.0
O234 O 0.57099 0.15588 0.74618 0.0
O235 O 0.5968 0.15209 0.69244 0.0
C236 C 0.64034 0.25443 0.71381 0.0
C237 C 0.57866 0.13745 0.71781 0.0
C238 C 0.43587 0.49312 0.62773 0.0
C239 C 0.47432 0.38578 0.69534 0.0
O240 O 0.41786 0.46424 0.6336 0.0
Zn241 Zn 0.45386 0.44127 0.66451 0.0
O242 O 0.46741 0.49697 0.64187 0.0
Zn243 Zn 0.50386 0.46544 0.67551 0.0
O244 O 0.54464 0.46209 0.64414 0.0
O245 O 0.49753 0.43024 0.62548 0.0
O246 O 0.49901 0.41031 0.69483 0.0
O247 O 0.44289 0.39313 0.68323 0.0
O248 O 0.45385 0.47818 0.71084 0.0
O249 O 0.51026 0.49552 0.71728 0.0
C250 C 0.53051 0.44086 0.62105 0.0
C251 C 0.47755 0.49693 0.72812 0.0
C252 C 0.01494 0.28832 0.99814 0.0
C253 C 0.07968 0.38409 0.05951 0.0
O254 O 0.02586 0.28891 0.03076 0.0
Zn255 Zn 0.05441 0.33255 0.02743 0.0
O256 O 0.02912 0.31013 0.97479 0.0
Zn257 Zn 0.06821 0.35434 0.97725 0.0
O258 O 0.11335 0.33975 0.95469 0.0
O259 O 0.10794 0.31712 0.0099 0.0
O260 O 0.08297 0.38678 0.0248 0.0
O261 O 0.06421 0.35606 0.0725 0.0
O262 O 0.01664 0.37265 0.00355 0.0
O263 O 0.04136 0.39062 0.9514 0.0
C264 C 0.12677 0.32206 0.98097 0.0
C265 C 0.01559 0.39224 0.9745 0.0
C266 C 0.38416 0.69705 0.48119 0.0
C267 C 0.48496 0.61705 0.45232 0.0
O268 O 0.39369 0.68481 0.45043 0.0
Zn269 Zn 0.43813 0.66028 0.46563 0.0
O270 O 0.4059 0.69405 0.50812 0.0
Zn271 Zn 0.45807 0.67025 0.51728 0.0
O272 O 0.49201 0.70891 0.52545 0.0
O273 O 0.48265 0.6993 0.46726 0.0
O274 O 0.48781 0.63069 0.48429 0.0
O275 O 0.45886 0.62629 0.43166 0.0
O276 O 0.42051 0.62237 0.50902 0.0
O277 O 0.44792 0.64114 0.55849 0.0
C278 C 0.50086 0.71463 0.49264 0.0
C279 C 0.42643 0.61895 0.54332 0.0
C280 C 0.60945 0.52784 0.44463 0.0
C281 C 0.7173 0.4909 0.5076 0.0
O282 O 0.6327 0.54691 0.46123 0.0
Zn283 Zn 0.66715 0.50927 0.46864 0.0
O284 O 0.6161 0.49412 0.43785 0.0
Zn285 Zn 0.66137 0.45635 0.45017 0.0
O286 O 0.63416 0.41861 0.47423 0.0
O287 O 0.63519 0.47187 0.50252 0.0
O288 O 0.70374 0.46336 0.49115 0.0
O289 O 0.70697 0.52262 0.49891 0.0
O290 O 0.6878 0.50214 0.41518 0.0
O291 O 0.68332 0.44379 0.40344 0.0
C292 C 0.62487 0.43854 0.50094 0.0
C293 C 0.69206 0.47552 0.39326 0.0
C294 C 0.8217 0.3895 0.75177 0.0
C295 C 0.78364 0.459 0.64557 0.0
O296 O 0.83968 0.39471 0.72261 0.0
Zn297 Zn 0.80368 0.42624 0.70132 0.0
O298 O 0.79089 0.40524 0.75672 0.0
Zn299 Zn 0.75488 0.44115 0.72585 0.0
O300 O 0.71209 0.41217 0.72493 0.0
O301 O 0.75919 0.38678 0.69714 0.0
O302 O 0.75943 0.45963 0.67077 0.0
O303 O 0.81335 0.44301 0.65222 0.0
O304 O 0.8074 0.47267 0.73796 0.0
O305 O 0.75159 0.48348 0.7557 0.0
C306 C 0.72603 0.3854 0.70819 0.0
C307 C 0.78495 0.49177 0.75684 0.0
C308 C 0.88481 0.47751 0.96224 0.0
C309 C 0.76904 0.5256 0.00157 0.0
O310 O 0.85659 0.46023 0.97196 0.0
Zn311 Zn 0.82495 0.50124 0.97408 0.0
O312 O 0.88319 0.51194 0.95615 0.0
Zn313 Zn 0.84088 0.55403 0.95995 0.0
O314 O 0.86481 0.58732 0.99289 0.0
O315 O 0.85283 0.53289 0.01522 0.0
O316 O 0.78937 0.5508 0.98844 0.0
O317 O 0.77867 0.49285 0.99674 0.0
O318 O 0.81596 0.51316 0.91794 0.0
O319 O 0.83221 0.57029 0.91043 0.0
C320 C 0.8667 0.56465 0.01904 0.0
C321 C 0.82014 0.54093 0.89729 0.0
C322 C 0.6901 0.62862 0.25233 0.0
C323 C 0.71892 0.56582 0.1401 0.0
O324 O 0.66936 0.6232 0.22531 0.0
Zn325 Zn 0.70455 0.59476 0.19927 0.0
O326 O 0.72232 0.61483 0.25292 0.0
Zn327 Zn 0.75652 0.58161 0.21578 0.0
O328 O 0.79736 0.61298 0.21074 0.0
O329 O 0.74616 0.63731 0.19059 0.0
O330 O 0.7467 0.56539 0.1609 0.0
O331 O 0.68906 0.57826 0.1519 0.0
O332 O 0.70758 0.5494 0.23762 0.0
O333 O 0.76611 0.5383 0.24344 0.0
C334 C 0.78037 0.63995 0.19743 0.0
C335 C 0.73364 0.53196 0.253 0.0
C336 C 0.22657 0.3309 0.17499 0.0
C337 C 0.22545 0.31291 0.14083 0.0
C338 C 0.16186 0.29804 0.15169 0.0
C339 C 0.16153 0.31947 0.18399 0.0
N340 N 0.19177 0.36709 0.21748 0.0
N341 N 0.18694 0.29403 0.09124 0.0
C342 C 0.19328 0.33945 0.19286 0.0
C343 C 0.19138 0.30151 0.12728 0.0
N344 N 0.2588 0.33808 0.1917 0.0
N345 N 0.13637 0.27193 0.14523 0.0
H346 H 0.20733 0.29864 0.07199 0.0
H347 H 0.16161 0.2879 0.08019 0.0
H348 H 0.11744 0.26316 0.16437 0.0
H349 H 0.13783 0.25485 0.12268 0.0
H350 H 0.2601 0.34833 0.21806 0.0
H351 H 0.28394 0.33012 0.18131 0.0
H352 H 0.21397 0.38377 0.22283 0.0
H353 H 0.16734 0.37635 0.22863 0.0
C354 C 0.96321 0.90344 0.393 0.0
C355 C 0.94343 0.90149 0.42633 0.0
C356 C 0.92425 0.96487 0.41752 0.0
C357 C 0.94193 0.96545 0.38303 0.0
N358 N 0.96314 0.92911 0.33259 0.0
N359 N 0.89337 0.9265 0.46118 0.0
C360 C 0.956 0.93249 0.36888 0.0
C361 C 0.92013 0.93096 0.43579 0.0
N362 N 0.99106 0.88 0.38525 0.0
N363 N 0.91315 0.99615 0.43415 0.0
H364 H 0.88737 0.90124 0.47258 0.0
H365 H 0.87421 0.94668 0.46695 0.0
H366 H 0.91641 0.02195 0.423 0.0
H367 H 0.90353 0.9965 0.46086 0.0
H368 H 0.00713 0.88275 0.36197 0.0
H369 H 0.00177 0.86155 0.40388 0.0
H370 H 0.97134 0.90454 0.32097 0.0
H371 H 0.95649 0.94949 0.31391 0.0
C372 C 0.27426 0.72501 0.69313 0.0
C373 C 0.26997 0.70091 0.66361 0.0
C374 C 0.32549 0.66866 0.68163 0.0
C375 C 0.33293 0.69679 0.70668 0.0
N376 N 0.31629 0.75464 0.7332 0.0
N377 N 0.29268 0.65089 0.62756 0.0
C378 C 0.30767 0.72559 0.71192 0.0
C379 C 0.29562 0.6726 0.65747 0.0
N380 N 0.2461 0.74698 0.70357 0.0
N381 N 0.34678 0.63818 0.68122 0.0
H382 H 0.27126 0.65304 0.60919 0.0
H383 H 0.31284 0.6326 0.61953 0.0
H384 H 0.36878 0.63479 0.69875 0.0
H385 H 0.34074 0.61517 0.66597 0.0
H386 H 0.24647 0.76265 0.72711 0.0
H387 H 0.22088 0.74633 0.69084 0.0
H388 H 0.30058 0.77824 0.73463 0.0
H389 H 0.3407 0.75652 0.74706 0.0
C390 C 0.58932 0.06133 0.94911 0.0
C391 C 0.58946 0.09664 0.93362 0.0
C392 C 0.58241 0.07004 0.87287 0.0
C393 C 0.57393 0.03614 0.88954 0.0
N394 N 0.56747 0.99967 0.94401 0.0
N395 N 0.60386 0.13212 0.88072 0.0
C396 C 0.57746 0.03161 0.92774 0.0
C397 C 0.59133 0.10028 0.89526 0.0
N398 N 0.6028 0.05572 0.98317 0.0
N399 N 0.58116 0.07336 0.83584 0.0
H400 H 0.61343 0.15318 0.89703 0.0
H401 H 0.60847 0.13636 0.85315 0.0
H402 H 0.57712 0.05125 0.81866 0.0
H403 H 0.58306 0.09797 0.82193 0.0
H404 H 0.60565 0.02998 0.99477 0.0
H405 H 0.61629 0.07596 0.99748 0.0
H406 H 0.56564 0.99648 0.97211 0.0
H407 H 0.55791 0.9773 0.92962 0.0
C408 C 0.17481 0.16822 0.32774 0.0
C409 C 0.20748 0.16707 0.3072 0.0
C410 C 0.19647 0.22956 0.28619 0.0
C411 C 0.16147 0.22835 0.30226 0.0
N412 N 0.1155 0.1961 0.33614 0.0
N413 N 0.24775 0.19544 0.26327 0.0
C414 C 0.15015 0.19763 0.32265 0.0
C415 C 0.21822 0.1976 0.28582 0.0
N416 N 0.16789 0.14157 0.35278 0.0
N417 N 0.209 0.26134 0.27137 0.0
H418 H 0.26477 0.17292 0.26207 0.0
H419 H 0.25392 0.21495 0.24362 0.0
H420 H 0.19356 0.28517 0.27058 0.0
H421 H 0.23574 0.26502 0.26276 0.0
H422 H 0.14622 0.14261 0.37097 0.0
H423 H 0.18595 0.12019 0.35784 0.0
H424 H 0.10425 0.1727 0.34749 0.0
H425 H 0.09702 0.21756 0.33369 0.0
C426 C 0.04767 0.91685 0.56877 0.0
C427 C 0.04573 0.88415 0.54829 0.0
C428 C 0.10942 0.89158 0.53111 0.0
C429 C 0.11253 0.92229 0.55462 0.0
N430 N 0.08665 0.95294 0.60689 0.0
N431 N 0.08042 0.8333 0.52462 0.0
C432 C 0.08236 0.93127 0.57718 0.0
C433 C 0.07845 0.86907 0.53434 0.0
N434 N 0.01709 0.93566 0.57843 0.0
N435 N 0.13367 0.88489 0.50369 0.0
H436 H 0.05923 0.8151 0.52934 0.0
H437 H 0.10476 0.82101 0.51658 0.0
H438 H 0.15417 0.90258 0.49573 0.0
H439 H 0.12995 0.86383 0.48514 0.0
H440 H 0.01822 0.96104 0.59096 0.0
H441 H 0.99108 0.92854 0.57012 0.0
H442 H 0.0655 0.95818 0.62514 0.0
H443 H 0.11214 0.96137 0.61582 0.0
C444 C 0.29641 0.80434 0.83549 0.0
C445 C 0.31165 0.83971 0.83686 0.0
C446 C 0.37308 0.81349 0.83702 0.0
C447 C 0.35789 0.77926 0.82821 0.0
N448 N 0.3054 0.7412 0.81895 0.0
N449 N 0.36222 0.87592 0.85602 0.0
C450 C 0.31962 0.77421 0.8282 0.0
C451 C 0.34948 0.84361 0.84302 0.0
N452 N 0.26038 0.79919 0.84289 0.0
N453 N 0.41002 0.8174 0.83802 0.0
H454 H 0.34473 0.89733 0.86276 0.0
H455 H 0.38903 0.88036 0.86366 0.0
H456 H 0.4279 0.79544 0.83545 0.0
H457 H 0.42311 0.84236 0.84003 0.0
H458 H 0.24832 0.77367 0.84453 0.0
H459 H 0.2436 0.81966 0.85297 0.0
H460 H 0.278 0.7372 0.8133 0.0
H461 H 0.32134 0.71818 0.81421 0.0
C462 C 0.45691 0.04493 0.03955 0.0
C463 C 0.42549 0.05738 0.05867 0.0
C464 C 0.45614 0.11493 0.07208 0.0
C465 C 0.48744 0.10206 0.05353 0.0
N466 N 0.52154 0.05195 0.02878 0.0
N467 N 0.3987 0.09977 0.10097 0.0
C468 C 0.48911 0.066 0.04046 0.0
C469 C 0.42628 0.09104 0.0775 0.0
N470 N 0.45547 0.01465 0.01813 0.0
N471 N 0.45447 0.15029 0.08336 0.0
H472 H 0.37699 0.08229 0.10621 0.0
H473 H 0.39908 0.12248 0.11781 0.0
H474 H 0.47634 0.16814 0.08086 0.0
H475 H 0.43082 0.16253 0.09315 0.0
H476 H 0.47616 0.00725 1.00016 0.0
H477 H 0.4326 0.9984 0.01568 0.0
H478 H 0.52528 0.0246 0.02238 0.0
H479 H 0.54557 0.06689 0.02911 0.0
C480 C 0.06223 0.02019 0.43332 0.0
C481 C 0.06353 0.05189 0.41128 0.0
C482 C 0.11125 0.07727 0.44968 0.0
C483 C 0.10914 0.04591 0.47218 0.0
N484 N 0.07489 0.99363 0.49207 0.0
N485 N 0.08226 0.11402 0.40302 0.0
C486 C 0.08224 0.01919 0.46602 0.0
C487 C 0.08579 0.08163 0.42097 0.0
N488 N 0.04288 0.99049 0.42251 0.0
N489 N 0.13857 0.10185 0.45451 0.0
H490 H 0.06424 0.11771 0.38146 0.0
H491 H 0.09455 0.1379 0.41174 0.0
H492 H 0.15785 0.09939 0.47509 0.0
H493 H 0.14368 0.12322 0.43659 0.0
H494 H 0.04449 0.96526 0.43539 0.0
H495 H 0.02739 0.99013 0.39894 0.0
H496 H 0.05332 0.97543 0.4905 0.0
H497 H 0.08765 0.99347 0.51727 0.0
C498 C 0.16869 0.85478 0.66606 0.0
C499 C 0.1675 0.81636 0.66848 0.0
C500 C 0.17915 0.81925 0.73383 0.0
C501 C 0.18681 0.85692 0.7302 0.0
N502 N 0.18477 0.912 0.69429 0.0
N503 N 0.14988 0.76667 0.70748 0.0
C504 C 0.17991 0.87525 0.69677 0.0
C505 C 0.16595 0.79982 0.70329 0.0
N506 N 0.15683 0.87141 0.63498 0.0
N507 N 0.18632 0.80159 0.76578 0.0
H508 H 0.13581 0.75417 0.68642 0.0
H509 H 0.1458 0.75429 0.73267 0.0
H510 H 0.19605 0.81481 0.7888 0.0
H511 H 0.18532 0.77341 0.76857 0.0
H512 H 0.15455 0.89944 0.63163 0.0
H513 H 0.14534 0.85666 0.61374 0.0
H514 H 0.18481 0.92648 0.66994 0.0
H515 H 0.1898 0.92815 0.71687 0.0
C516 C 0.42905 0.92463 0.95809 0.0
C517 C 0.39555 0.94408 0.95912 0.0
C518 C 0.40894 0.97006 0.89973 0.0
C519 C 0.44102 0.94839 0.8968 0.0
N520 N 0.47197 0.8942 0.91852 0.0
N521 N 0.34767 0.97105 0.92314 0.0
C522 C 0.44816 0.92214 0.92446 0.0
C523 C 0.38337 0.96162 0.9271 0.0
N524 N 0.44397 0.9102 0.98884 0.0
N525 N 0.40385 1.00066 0.87917 0.0
H526 H 0.32788 0.96365 0.94218 0.0
H527 H 0.33752 0.9821 0.89905 0.0
H528 H 0.42402 0.01228 0.86303 0.0
H529 H 0.38138 0.01771 0.88271 0.0
H530 H 0.47009 0.89908 0.98918 0.0
H531 H 0.4321 0.91211 0.01446 0.0
H532 H 0.47589 0.87327 0.93732 0.0
H533 H 0.48377 0.88921 0.8932 0.0
C534 C 0.34147 0.17466 0.21368 0.0
C535 C 0.32413 0.14015 0.21311 0.0
C536 C 0.30138 0.15299 0.15258 0.0
C537 C 0.32146 0.18605 0.15112 0.0
N538 N 0.37164 0.21997 0.17668 0.0
N539 N 0.30266 0.09148 0.17513 0.0
C540 C 0.34508 0.19439 0.1805 0.0
C541 C 0.30951 0.12755 0.18006 0.0
N542 N 0.35277 0.18979 0.24549 0.0
N543 N 0.27231 0.14675 0.1305 0.0
H544 H 0.31029 0.07196 0.19431 0.0
H545 H 0.29381 0.0811 0.15033 0.0
H546 H 0.2604 0.16667 0.11425 0.0
H547 H 0.25643 0.12339 0.13288 0.0
H548 H 0.36221 0.21646 0.24694 0.0
H549 H 0.34977 0.17732 0.27074 0.0
H550 H 0.39082 0.22488 0.19685 0.0
H551 H 0.37756 0.23252 0.15191 0.0
C552 C 0.82192 0.32576 0.77403 0.0
C553 C 0.83342 0.36216 0.77866 0.0
C554 C 0.8522 0.34825 0.84078 0.0
C555 C 0.83392 0.31444 0.83857 0.0
N556 N 0.79952 0.27117 0.80314 0.0
N557 N 0.8597 0.40892 0.81566 0.0
C558 C 0.81903 0.3027 0.80497 0.0
C559 C 0.84915 0.37355 0.81169 0.0
N560 N 0.81277 0.31368 0.74018 0.0
N561 N 0.87261 0.35588 0.87072 0.0
H562 H 0.85937 0.42755 0.79418 0.0
H563 H 0.86696 0.4202 0.8405 0.0
H564 H 0.87613 0.33729 0.89194 0.0
H565 H 0.88874 0.3789 0.87287 0.0
H566 H 0.8074 0.28655 0.73431 0.0
H567 H 0.81388 0.33028 0.71715 0.0
H568 H 0.78457 0.26351 0.78049 0.0
H569 H 0.79594 0.2535 0.82497 0.0
C570 C 0.89803 0.54408 0.11237 0.0
C571 C 0.92971 0.56578 0.11658 0.0
C572 C 0.91819 0.5928 0.05662 0.0
C573 C 0.88521 0.57275 0.05411 0.0
N574 N 0.83712 0.544 0.08854 0.0
N575 N 0.95951 0.6217 0.0984 0.0
C576 C 0.87277 0.55369 0.08523 0.0
C577 C 0.93661 0.59369 0.09056 0.0
N578 N 0.89303 0.51257 0.1315 0.0
N579 N 0.93334 0.60946 0.02704 0.0
H580 H 0.97075 0.62535 0.12409 0.0
H581 H 0.96313 0.64383 0.08097 0.0
H582 H 0.92195 0.60958 0.00127 0.0
H583 H 0.95925 0.62086 0.02773 0.0
H584 H 0.87093 0.49551 0.12689 0.0
H585 H 0.91299 0.50056 0.14756 0.0
H586 H 0.82677 0.53171 0.112 0.0
H587 H 0.81751 0.55237 0.06981 0.0
C588 C 0.67549 0.66223 0.34816 0.0
C589 C 0.68414 0.69947 0.34259 0.0
C590 C 0.67816 0.69068 0.2769 0.0
C591 C 0.67884 0.65255 0.28255 0.0
N592 N 0.67636 0.60122 0.32328 0.0
N593 N 0.6967 0.74883 0.30053 0.0
C594 C 0.67658 0.63806 0.31817 0.0
C595 C 0.68533 0.71398 0.3067 0.0
N596 N 0.66573 0.65025 0.38203 0.0
N597 N 0.67251 0.70458 0.2429 0.0
H598 H 0.70499 0.76629 0.32099 0.0
H599 H 0.70158 0.75941 0.27468 0.0
H600 H 0.66842 0.68831 0.22017 0.0
H601 H 0.66837 0.7322 0.2379 0.0
H602 H 0.65722 0.62383 0.38749 0.0
H603 H 0.66261 0.66784 0.40404 0.0
H604 H 0.67941 0.58885 0.3486 0.0
H605 H 0.67464 0.58294 0.3017 0.0
C606 C 0.7888 0.70468 0.21768 0.0
C607 C 0.79939 0.67544 0.19465 0.0
C608 C 0.85478 0.70863 0.17785 0.0
C609 C 0.84303 0.73816 0.19978 0.0
N610 N 0.79504 0.76836 0.23268 0.0
N611 N 0.83869 0.65232 0.14749 0.0
C612 C 0.80869 0.73752 0.21694 0.0
C613 C 0.83123 0.67835 0.17293 0.0
N614 N 0.76178 0.7002 0.24271 0.0
N615 N 0.88894 0.70885 0.1631 0.0
H616 H 0.82168 0.6301 0.14315 0.0
H617 H 0.8598 0.65431 0.12865 0.0
H618 H 0.90654 0.73088 0.16562 0.0
H619 H 0.90072 0.68642 0.15039 0.0
H620 H 0.75675 0.71866 0.26356 0.0
H621 H 0.747 0.67641 0.24511 0.0
H622 H 0.76848 0.77044 0.24246 0.0
H623 H 0.80909 0.79296 0.23271 0.0
C624 C 0.66169 0.31019 0.67973 0.0
C625 C 0.66453 0.28637 0.71012 0.0
C626 C 0.70746 0.32778 0.73897 0.0
C627 C 0.70629 0.35052 0.70772 0.0
N628 N 0.68867 0.35989 0.64546 0.0
N629 N 0.69754 0.26756 0.76356 0.0
C630 C 0.6855 0.34054 0.67707 0.0
C631 C 0.68962 0.29373 0.73828 0.0
N632 N 0.63504 0.30507 0.65451 0.0
N633 N 0.72498 0.33894 0.76965 0.0
H634 H 0.68669 0.24149 0.76257 0.0
H635 H 0.71777 0.27021 0.78306 0.0
H636 H 0.7389 0.36346 0.7713 0.0
H637 H 0.72326 0.32531 0.79446 0.0
H638 H 0.62924 0.32379 0.634 0.0
H639 H 0.61659 0.28365 0.65587 0.0
H640 H 0.67712 0.35164 0.62104 0.0
H641 H 0.70527 0.38274 0.64301 0.0
C642 C 0.41191 0.58994 0.60362 0.0
C643 C 0.4121 0.5875 0.56508 0.0
C644 C 0.41437 0.52111 0.56891 0.0
C645 C 0.42024 0.5239 0.60688 0.0
N646 N 0.41308 0.55837 0.6619 0.0
N647 N 0.39205 0.55105 0.51461 0.0
C648 C 0.41514 0.55764 0.62478 0.0
C649 C 0.40649 0.55316 0.54863 0.0
N650 N 0.40884 0.62331 0.61958 0.0
N651 N 0.418 0.48833 0.55193 0.0
H652 H 0.3817 0.57374 0.50108 0.0
H653 H 0.3854 0.52655 0.50221 0.0
H654 H 0.42202 0.46403 0.56604 0.0
H655 H 0.41887 0.48559 0.52375 0.0
H656 H 0.41395 0.62831 0.64688 0.0
H657 H 0.40091 0.64633 0.60487 0.0
H658 H 0.40817 0.58163 0.67715 0.0
H659 H 0.41389 0.53471 0.67761 0.0
C660 C 0.73314 0.17676 0.83076 0.0
C661 C 0.732 0.19498 0.86471 0.0
C662 C 0.66836 0.20998 0.85505 0.0
C663 C 0.66796 0.18894 0.82257 0.0
N664 N 0.6982 0.14196 0.78763 0.0
N665 N 0.69394 0.21331 0.91498 0.0
C666 C 0.6998 0.16895 0.81291 0.0
C667 C 0.698 0.20615 0.87886 0.0
N668 N 0.76553 0.16842 0.81455 0.0
N669 N 0.64289 0.2362 0.86213 0.0
H670 H 0.71476 0.20832 0.93348 0.0
H671 H 0.66872 0.21932 0.92664 0.0
H672 H 0.62396 0.24538 0.84326 0.0
H673 H 0.64442 0.25298 0.88489 0.0
H674 H 0.76725 0.15835 0.78813 0.0
H675 H 0.7906 0.17453 0.82601 0.0
H676 H 0.72029 0.12514 0.78162 0.0
H677 H 0.67374 0.13338 0.77641 0.0
C678 C 0.0727 0.48089 0.08775 0.0
C679 C 0.06562 0.47679 0.12547 0.0
C680 C 0.08385 0.41252 0.12203 0.0
C681 C 0.08689 0.41614 0.08366 0.0
N682 N 0.10575 0.45725 0.03604 0.0
N683 N 0.07404 0.44197 0.18051 0.0
C684 C 0.08825 0.45147 0.0683 0.0
C685 C 0.07414 0.44348 0.14334 0.0
N686 N 0.06297 0.51209 0.06994 0.0
N687 N 0.09103 0.37965 0.13786 0.0
H688 H 0.06802 0.46444 0.19666 0.0
H689 H 0.08214 0.41946 0.19567 0.0
H690 H 0.10396 0.35868 0.12369 0.0
H691 H 0.08492 0.37331 0.16474 0.0
H692 H 0.06411 0.51463 0.04173 0.0
H693 H 0.05055 0.53411 0.08285 0.0
H694 H 0.10935 0.48306 0.02482 0.0
H695 H 0.12147 0.4371 0.02365 0.0
C696 C 0.7704 0.84024 0.32206 0.0
C697 C 0.77506 0.83437 0.35997 0.0
C698 C 0.83975 0.84918 0.35403 0.0
C699 C 0.83632 0.84703 0.31573 0.0
N700 N 0.79698 0.86244 0.26576 0.0
N701 N 0.81259 0.83834 0.41337 0.0
C702 C 0.80115 0.84933 0.30025 0.0
C703 C 0.80924 0.84103 0.37645 0.0
N704 N 0.73711 0.83529 0.30661 0.0
N705 N 0.87182 0.86077 0.36849 0.0
H706 H 0.79025 0.83499 0.43061 0.0
H707 H 0.83736 0.83844 0.42693 0.0
H708 H 0.89323 0.86973 0.35206 0.0
H709 H 0.87589 0.86535 0.39605 0.0
H710 H 0.73307 0.83398 0.27864 0.0
H711 H 0.71361 0.83068 0.32182 0.0
H712 H 0.7718 0.86688 0.2537 0.0
H713 H 0.81839 0.87401 0.25121 0.0
C714 C 0.58986 0.42006 0.59542 0.0
C715 C 0.55272 0.42879 0.58947 0.0
C716 C 0.56312 0.42339 0.52387 0.0
C717 C 0.60096 0.4248 0.53014 0.0
N718 N 0.65133 0.4226 0.57161 0.0
N719 N 0.50398 0.44069 0.54665 0.0
C720 C 0.61467 0.42205 0.56589 0.0
C721 C 0.53894 0.42999 0.55334 0.0
N722 N 0.60115 0.40946 0.62918 0.0
N723 N 0.5504 0.41749 0.48958 0.0
H724 H 0.48566 0.4483 0.5668 0.0
H725 H 0.49394 0.44541 0.52062 0.0
H726 H 0.52305 0.41309 0.48391 0.0
H727 H 0.56766 0.41345 0.4674 0.0
H728 H 0.62748 0.40069 0.63467 0.0
H729 H 0.58309 0.40575 0.65083 0.0
H730 H 0.66289 0.42542 0.59725 0.0
H731 H 0.67013 0.42188 0.55028 0.0
C732 C 0.96321 0.41534 0.93681 0.0
C733 C 0.98458 0.4173 0.96884 0.0
C734 C 0.94081 0.45943 0.99601 0.0
C735 C 0.92035 0.45888 0.9634 0.0
N736 N 0.91605 0.44327 0.90012 0.0
N737 N 0.99923 0.44913 0.02409 0.0
C738 C 0.93293 0.43915 0.93286 0.0
C739 C 0.97505 0.4418 0.99699 0.0
N740 N 0.97028 0.38931 0.91126 0.0
N741 N 0.92705 0.47562 0.02652 0.0
H742 H 0.02518 0.43771 0.02486 0.0
H743 H 0.99516 0.46942 0.0434 0.0
H744 H 0.90195 0.48868 0.02713 0.0
H745 H 0.93905 0.47333 0.05203 0.0
H746 H 0.95342 0.38448 0.88915 0.0
H747 H 0.99127 0.37036 0.91363 0.0
H748 H 0.92689 0.43334 0.87588 0.0
H749 H 0.89286 0.45933 0.8968 0.0
C750 C 0.57048 0.574 0.41361 0.0
C751 C 0.57324 0.54399 0.43771 0.0
C752 C 0.51122 0.55547 0.45922 0.0
C753 C 0.51162 0.58929 0.44095 0.0
N754 N 0.54093 0.63164 0.4003 0.0
N755 N 0.54689 0.50703 0.4853 0.0
C756 C 0.54073 0.59857 0.41735 0.0
C757 C 0.54345 0.53439 0.46042 0.0
N758 N 0.59641 0.57885 0.38739 0.0
N759 N 0.48 0.54381 0.47572 0.0
H760 H 0.56976 0.49051 0.48675 0.0
H761 H 0.5282 0.50255 0.50616 0.0
H762 H 0.45593 0.55888 0.47487 0.0
H763 H 0.47699 0.5179 0.48689 0.0
H764 H 0.59451 0.59841 0.36694 0.0
H765 H 0.61829 0.56093 0.38427 0.0
H766 H 0.56333 0.64182 0.38622 0.0
H767 H 0.51913 0.64981 0.40187 0.0
C768 C 0.98507 0.18602 0.32673 0.0
C769 C 0.98808 0.15698 0.30139 0.0
C770 C 0.02046 0.19679 0.25916 0.0
C771 C 0.01491 0.22685 0.28295 0.0
N772 N 0.98539 0.25141 0.33608 0.0
N773 N 0.99851 0.13824 0.23952 0.0
C774 C 0.99502 0.2219 0.31571 0.0
C775 C 0.00227 0.16367 0.26624 0.0
N776 N 0.97492 0.17918 0.36186 0.0
N777 N 0.0455 0.19841 0.2316 0.0
H778 H 0.9846 0.11385 0.2436 0.0
H779 H 0.00559 0.14323 0.21249 0.0
H780 H 0.06247 0.22056 0.22696 0.0
H781 H 0.05273 0.17583 0.21608 0.0
H782 H 0.97628 0.1986 0.38235 0.0
H783 H 0.96794 0.15338 0.37131 0.0
H784 H 0.96801 0.24983 0.35846 0.0
H785 H 0.99201 0.27796 0.32848 0.0
C786 C 0.08562 0.71906 0.51465 0.0
C787 C 0.09357 0.72261 0.55215 0.0
C788 C 0.02906 0.73389 0.56516 0.0
C789 C 0.02277 0.73749 0.52741 0.0
N790 N 0.03877 0.71339 0.46875 0.0
N791 N 0.07312 0.73152 0.61397 0.0
C792 C 0.04915 0.72382 0.50271 0.0
C793 C 0.06519 0.7286 0.57781 0.0
N794 N 0.11309 0.71249 0.49041 0.0
N795 N 1.0001 0.73421 0.58849 0.0
H796 H 0.0991 0.72715 0.62439 0.0
H797 H 0.05448 0.74023 0.63347 0.0
H798 H 0.9734 0.73544 0.579 0.0
H799 H 0.00208 0.72909 0.61625 0.0
H800 H 0.10982 0.71394 0.46234 0.0
H801 H 0.13981 0.70745 0.49849 0.0
H802 H 0.05619 0.70106 0.45009 0.0
H803 H 0.01148 0.7124 0.46125 0.0
C804 C 0.5323 0.82329 0.81877 0.0
C805 C 0.52879 0.85323 0.79431 0.0
C806 C 0.49277 0.81564 0.75368 0.0
C807 C 0.49883 0.78459 0.77626 0.0
N808 N 0.53273 0.7576 0.82546 0.0
N809 N 0.51682 0.87318 0.73304 0.0
C810 C 0.52146 0.78798 0.8072 0.0
C811 C 0.51305 0.84762 0.75982 0.0
N812 N 0.54342 0.82855 0.85373 0.0
N813 N 0.46528 0.81646 0.72877 0.0
H814 H 0.53237 0.89661 0.73643 0.0
H815 H 0.50803 0.86889 0.70648 0.0
H816 H 0.446 0.79603 0.72607 0.0
H817 H 0.45848 0.83989 0.71422 0.0
H818 H 0.54243 0.80815 0.87345 0.0
H819 H 0.55045 0.85384 0.86413 0.0
H820 H 0.55176 0.75839 0.84635 0.0
H821 H 0.52604 0.73139 0.81708 0.0
C822 C 0.44309 0.28134 0.06564 0.0
C823 C 0.41208 0.27965 0.04275 0.0
C824 C 0.44742 0.24668 0.9972 0.0
C825 C 0.47918 0.24982 0.01903 0.0
N826 N 0.50893 0.27992 0.06882 0.0
N827 N 0.38909 0.273 0.98199 0.0
C828 C 0.47758 0.27048 0.05155 0.0
C829 C 0.41597 0.2668 0.00678 0.0
N830 N 0.43959 0.29084 0.10135 0.0
N831 N 0.4455 0.22199 0.96955 0.0
H832 H 0.36588 0.28822 0.98824 0.0
H833 H 0.39192 0.2666 0.95453 0.0
H834 H 0.46583 0.20319 0.96356 0.0
H835 H 0.42153 0.2169 0.95547 0.0
H836 H 0.46074 0.28825 0.11996 0.0
H837 H 0.41504 0.2986 0.1132 0.0
H838 H 0.50945 0.29754 0.09094 0.0
H839 H 0.5346 0.27335 0.05852 0.0
C840 C 0.25917 0.00941 0.18657 0.0
C841 C 0.28054 0.00192 0.21809 0.0
C842 C 0.32561 0.97084 0.17961 0.0
C843 C 0.30336 0.97728 0.14873 0.0
N844 N 0.24368 0.99065 0.12565 0.0
N845 N 0.32871 0.96694 0.24545 0.0
C846 C 0.26823 0.99222 0.15336 0.0
C847 C 0.31194 0.97961 0.21485 0.0
N848 N 0.2328 0.03576 0.18672 0.0
N849 N 0.36049 0.95869 0.17536 0.0
H850 H 0.31884 0.97248 0.27151 0.0
H851 H 0.34989 0.94805 0.24485 0.0
H852 H 0.37181 0.95227 0.15018 0.0
H853 H 0.37911 0.95761 0.19661 0.0
H854 H 0.21962 0.04433 0.16315 0.0
H855 H 0.22702 0.05254 0.20868 0.0
H856 H 0.21655 0.99841 0.12876 0.0
H857 H 0.24947 0.9778 0.10101 0.0
C858 C 0.29098 0.01233 0.455 0.0
C859 C 0.26771 0.0356 0.47528 0.0
C860 C 0.26932 0.0805 0.42599 0.0
C861 C 0.28646 0.05434 0.40324 0.0
N862 N 0.31566 0.99604 0.39585 0.0
N863 N 0.25402 0.09839 0.48761 0.0
C864 C 0.29863 0.0207 0.41789 0.0
C865 C 0.26265 0.07186 0.46312 0.0
N866 N 0.30729 0.98357 0.47202 0.0
N867 N 0.25837 0.11317 0.41185 0.0
H868 H 0.25383 0.09341 0.51555 0.0
H869 H 0.2523 0.12589 0.481 0.0
H870 H 0.26463 0.12142 0.38541 0.0
H871 H 0.24145 0.13125 0.42569 0.0
H872 H 0.32656 0.9668 0.45972 0.0
H873 H 0.30489 0.97949 0.50002 0.0
H874 H 0.32137 0.96938 0.40363 0.0
H875 H 0.32234 0.00168 0.36882 0.0
C876 C 0.20547 0.0148 0.71731 0.0
C877 C 0.23729 0.99325 0.72124 0.0
C878 C 0.25095 0.00351 0.6568 0.0
C879 C 0.21549 0.01739 0.65133 0.0
N880 N 0.15633 0.03152 0.67721 0.0
N881 N 0.28544 0.95943 0.69033 0.0
C882 C 0.19203 0.02234 0.68183 0.0
C883 C 0.25918 0.98585 0.68998 0.0
N884 N 0.18804 0.02798 0.74737 0.0
N885 N 0.27667 0.00661 0.6301 0.0
H886 H 0.29012 0.94194 0.71209 0.0
H887 H 0.29941 0.95151 0.66692 0.0
H888 H 0.27176 0.02041 0.60574 0.0
H889 H 0.30377 0.99923 0.63407 0.0
H890 H 0.1664 0.0463 0.74587 0.0
H891 H 0.19785 0.02374 0.77364 0.0
H892 H 0.13758 0.03152 0.69853 0.0
H893 H 0.14444 0.03567 0.65192 0.0
C894 C 0.2316 0.93573 0.93633 0.0
C895 C 0.22916 0.96152 0.90754 0.0
C896 C 0.2392 0.01097 0.95083 0.0
C897 C 0.24911 0.98478 0.97745 0.0
N898 N 0.23589 0.9256 0.00151 0.0
N899 N 0.22865 0.0238 0.88694 0.0
C900 C 0.23928 0.94805 0.97206 0.0
C901 C 0.23186 0.99928 0.91476 0.0
N902 N 0.22903 0.89936 0.92912 0.0
N903 N 0.23451 0.04644 0.9607 0.0
H904 H 0.22168 0.01619 0.86057 0.0
H905 H 0.23472 0.0513 0.88954 0.0
H906 H 0.23508 0.05453 0.98784 0.0
H907 H 0.22507 0.0666 0.94315 0.0
H908 H 0.23504 0.87913 0.94805 0.0
H909 H 0.22303 0.88917 0.90342 0.0
H910 H 0.22613 0.8991 1.00013 0.0
H911 H 0.23872 0.93529 0.028 0.0
C912 C 0.19258 0.33779 0.98738 0.0
C913 C 0.16553 0.31128 0.98015 0.0
C914 C 0.21253 0.26404 0.97706 0.0
C915 C 0.23771 0.289 0.99185 0.0
N916 N 0.25709 0.35119 0.99126 0.0
N917 N 0.14922 0.2496 0.96574 0.0
C918 C 0.22942 0.32656 0.99072 0.0
C919 C 0.17542 0.27455 0.9737 0.0
N920 N 0.18279 0.3732 0.99328 0.0
N921 N 0.22464 0.2313 0.9644 0.0
H922 H 0.12205 0.25678 0.96173 0.0
H923 H 0.15401 0.22169 0.96496 0.0
H924 H 0.25231 0.2251 0.9629 0.0
H925 H 0.2082 0.21262 0.95112 0.0
H926 H 0.20057 0.39279 0.00306 0.0
H927 H 0.15619 0.38268 0.99045 0.0
H928 H 0.25338 0.37908 0.98788 0.0
H929 H 0.28428 0.34296 0.99056 0.0
C930 C 0.7282 0.21348 0.02357 0.0
C931 C 0.72981 0.24425 1.00026 0.0
C932 C 0.66424 0.25306 0.00911 0.0
C933 C 0.66162 0.21796 0.0246 0.0
N934 N 0.69187 0.16283 0.04454 0.0
N935 N 0.696 0.28944 0.96513 0.0
C936 C 0.69383 0.19778 0.032 0.0
C937 C 0.69712 0.26366 0.99202 0.0
N938 N 0.75954 0.19918 0.03744 0.0
N939 N 0.63495 0.276 0.00993 0.0
H940 H 0.71786 0.29629 0.94855 0.0
H941 H 0.67175 0.30102 0.95607 0.0
H942 H 0.61055 0.26901 0.02271 0.0
H943 H 0.63641 0.30311 0.00165 0.0
H944 H 0.75985 0.17861 0.05699 0.0
H945 H 0.78496 0.21067 0.03224 0.0
H946 H 0.71445 0.14573 0.04625 0.0
H947 H 0.66749 0.1498 0.05055 0.0
C948 C 0.02381 0.42241 0.2978 0.0
C949 C 0.06044 0.41271 0.29047 0.0
C950 C 0.07448 0.47649 0.27664 0.0
C951 C 0.03677 0.48418 0.27622 0.0
N952 N 0.9801 0.47139 0.30627 0.0
N953 N 0.12179 0.43041 0.27523 0.0
C954 C 0.01266 0.45923 0.29308 0.0
C955 C 0.08636 0.43991 0.28143 0.0
N956 N 0.99949 0.39621 0.30788 0.0
N957 N 0.09865 0.50447 0.27411 0.0
H958 H 0.13172 0.40416 0.27952 0.0
H959 H 0.14092 0.44802 0.264 0.0
H960 H 0.09007 0.53157 0.27408 0.0
H961 H 0.12664 0.50126 0.27672 0.0
H962 H 0.97155 0.40064 0.3094 0.0
H963 H 0.0072 0.36935 0.3131 0.0
H964 H 0.96209 0.45525 0.32102 0.0
H965 H 0.97345 0.49902 0.30648 0.0
C966 C 0.82423 0.83059 0.52183 0.0
C967 C 0.8509 0.80314 0.52791 0.0
C968 C 0.80391 0.75639 0.52289 0.0
C969 C 0.77975 0.78307 0.50892 0.0
N970 N 0.76007 0.84506 0.51567 0.0
N971 N 0.86611 0.74009 0.53783 0.0
C972 C 0.78771 0.82021 0.51479 0.0
C973 C 0.84058 0.76606 0.53012 0.0
N974 N 0.83416 0.86635 0.52052 0.0
N975 N 0.79104 0.72254 0.53107 0.0
H976 H 0.89268 0.74653 0.54522 0.0
H977 H 0.86146 0.71229 0.53546 0.0
H978 H 0.7634 0.71642 0.52945 0.0
H979 H 0.80644 0.70232 0.54362 0.0
H980 H 0.81711 0.88703 0.51126 0.0
H981 H 0.86022 0.87524 0.52687 0.0
H982 H 0.76361 0.87233 0.5223 0.0
H983 H 0.73287 0.8372 0.51476 0.0
C984 C 0.31123 0.754 0.52492 0.0
C985 C 0.2791 0.73423 0.51652 0.0
C986 C 0.31557 0.69105 0.48096 0.0
C987 C 0.34719 0.71223 0.4876 0.0
N988 N 0.37258 0.7693 0.50655 0.0
N989 N 0.24965 0.68948 0.4793 0.0
C990 C 0.34404 0.74563 0.50631 0.0
C991 C 0.28095 0.70459 0.49205 0.0
N992 N 0.31159 0.77855 0.55277 0.0
N993 N 0.31857 0.65695 0.46654 0.0
H994 H 0.22393 0.69911 0.48666 0.0
H995 H 0.24928 0.67003 0.45878 0.0
H996 H 0.34321 0.64525 0.45879 0.0
H997 H 0.29683 0.63893 0.46518 0.0
H998 H 0.33537 0.79059 0.56212 0.0
H999 H 0.28929 0.78399 0.56941 0.0
H1000 H 0.37062 0.79554 0.51704 0.0
H1001 H 0.39687 0.76406 0.4927 0.0
C1002 C 0.00281 0.95928 0.22388 0.0
C1003 C 0.97771 0.98559 0.23689 0.0
C1004 C 0.92753 0.94354 0.22625 0.0
C1005 C 0.95328 0.91505 0.22113 0.0
N1006 N 0.0152 0.89541 0.21228 0.0
N1007 N 0.91703 0.00871 0.23092 0.0
C1008 C 0.99089 0.92291 0.21848 0.0
C1009 C 0.94014 0.9796 0.23177 0.0
N1010 N 0.03728 0.9697 0.21493 0.0
N1011 N 0.89125 0.93576 0.22815 0.0
H1012 H 0.92666 0.03536 0.23215 0.0
H1013 H 0.88952 0.00684 0.22472 0.0
H1014 H 0.88087 0.90984 0.22351 0.0
H1015 H 0.87157 0.95449 0.23628 0.0
H1016 H 0.05643 0.95246 0.20311 0.0
H1017 H 0.04498 0.99699 0.21498 0.0
H1018 H 0.04323 0.89854 0.21428 0.0
H1019 H 0.00712 0.8688 0.2068 0.0
C1020 C 0.52342 0.05042 0.71695 0.0
C1021 C 0.54813 0.0271 0.7353 0.0
C1022 C 0.59636 0.07213 0.72708 0.0
C1023 C 0.5696 0.09821 0.71693 0.0
N1024 N 0.50827 0.11224 0.69898 0.0
N1025 N 0.61062 0.00844 0.73844 0.0
C1026 C 0.53338 0.08721 0.71025 0.0
C1027 C 0.5856 0.03564 0.73432 0.0
N1028 N 0.49146 0.03672 0.70433 0.0
N1029 N 0.63158 0.08275 0.7318 0.0
H1030 H 0.60294 0.98117 0.73992 0.0
H1031 H 0.63854 0.01214 0.73573 0.0
H1032 H 0.6407 0.10873 0.72504 0.0
H1033 H 0.65139 0.06641 0.74376 0.0
H1034 H 0.47317 0.05159 0.68862 0.0
H1035 H 0.48571 0.00896 0.70561 0.0
H1036 H 0.4805 0.10701 0.69785 0.0
H1037 H 0.5152 0.13895 0.69228 0.0
C1038 C 0.4937 0.28335 0.69664 0.0
C1039 C 0.51586 0.28112 0.72799 0.0
C1040 C 0.5009 0.34463 0.74233 0.0
C1041 C 0.48387 0.34856 0.70816 0.0
N1042 N 0.46837 0.32237 0.64998 0.0
N1043 N 0.54707 0.31299 0.77637 0.0
C1044 C 0.48096 0.31802 0.68463 0.0
C1045 C 0.52097 0.31253 0.74999 0.0
N1046 N 0.4846 0.25234 0.67853 0.0
N1047 N 0.49789 0.37165 0.76761 0.0
H1048 H 0.56456 0.29131 0.7817 0.0
H1049 H 0.55423 0.33653 0.79028 0.0
H1050 H 0.48288 0.39537 0.76302 0.0
H1051 H 0.50692 0.36873 0.79428 0.0
H1052 H 0.46567 0.25182 0.65756 0.0
H1053 H 0.49338 0.2266 0.68683 0.0
H1054 H 0.46963 0.30191 0.63049 0.0
H1055 H 0.45954 0.34723 0.63953 0.0
C1056 C 0.94527 0.23536 0.94357 0.0
C1057 C 0.91359 0.24036 0.9653 0.0
C1058 C 0.94874 0.27496 0.00943 0.0
C1059 C 0.98102 0.26856 0.98883 0.0
N1060 N 0.01128 0.23567 0.9409 0.0
N1061 N 0.8878 0.25474 0.02374 0.0
C1062 C 0.97969 0.24638 0.95737 0.0
C1063 C 0.91636 0.25661 0.99994 0.0
N1064 N 0.94239 0.22228 0.90899 0.0
N1065 N 0.9478 0.30087 0.03602 0.0
H1066 H 0.86378 0.24104 0.01765 0.0
H1067 H 0.88953 0.26324 0.05068 0.0
H1068 H 0.96974 0.31739 0.04253 0.0
H1069 H 0.92384 0.30898 0.04891 0.0
H1070 H 0.96392 0.22215 0.89051 0.0
H1071 H 0.91786 0.21394 0.89775 0.0
H1072 H 0.01225 0.21676 0.91989 0.0
H1073 H 0.03681 0.24306 0.95064 0.0
C1074 C 0.9809 0.69853 0.26083 0.0
C1075 C 0.98696 0.72901 0.23753 0.0
C1076 C 0.01851 0.68894 0.1944 0.0
C1077 C 0.01509 0.65941 0.21933 0.0
N1078 N 0.00348 0.64004 0.28094 0.0
N1079 N 0.02001 0.75447 0.18681 0.0
C1080 C 0.99994 0.66564 0.25417 0.0
C1081 C 0.00864 0.72462 0.20585 0.0
N1082 N 0.9547 0.69938 0.28729 0.0
N1083 N 0.02859 0.68296 0.15913 0.0
H1084 H 0.01404 0.78097 0.19504 0.0
H1085 H 0.0385 0.75292 0.16532 0.0
H1086 H 0.03462 0.65733 0.14875 0.0
H1087 H 0.02752 0.70315 0.13919 0.0
H1088 H 0.94742 0.67645 0.30237 0.0
H1089 H 0.93692 0.7211 0.29125 0.0
H1090 H 0.99544 0.64472 0.30775 0.0
H1091 H 0.01814 0.61596 0.27723 0.0
C1092 C 0.56812 0.7232 0.50238 0.0
C1093 C 0.53564 0.73354 0.48403 0.0
C1094 C 0.57177 0.77178 0.44282 0.0
C1095 C 0.6035 0.76425 0.46369 0.0
N1096 N 0.62881 0.74107 0.51956 0.0
N1097 N 0.50589 0.77431 0.4421 0.0
C1098 C 0.60061 0.74272 0.49555 0.0
C1099 C 0.53725 0.76001 0.45594 0.0
N1100 N 0.56899 0.69304 0.52423 0.0
N1101 N 0.57454 0.78786 0.40939 0.0
H1102 H 0.48021 0.76683 0.45159 0.0
H1103 H 0.50555 0.79617 0.42399 0.0
H1104 H 0.59917 0.79543 0.3976 0.0
H1105 H 0.55262 0.79033 0.39169 0.0
H1106 H 0.593 0.68274 0.53522 0.0
H1107 H 0.54699 0.67564 0.52782 0.0
H1108 H 0.62674 0.72823 0.5448 0.0
H1109 H 0.65266 0.75597 0.51605 0.0
C1110 C 0.73793 0.50461 0.35289 0.0
C1111 C 0.70646 0.4829 0.35616 0.0
C1112 C 0.69907 0.48542 0.28977 0.0
C1113 C 0.72651 0.51232 0.28771 0.0
N1114 N 0.76577 0.554 0.32027 0.0
N1115 N 0.65388 0.45596 0.32766 0.0
C1116 C 0.74464 0.52346 0.31995 0.0
C1117 C 0.68632 0.47369 0.32454 0.0
N1118 N 0.76142 0.50743 0.38141 0.0
N1119 N 0.68532 0.47101 0.25856 0.0
H1120 H 0.64301 0.44745 0.35243 0.0
H1121 H 0.63625 0.45235 0.3059 0.0
H1122 H 0.69434 0.47895 0.2328 0.0
H1123 H 0.6677 0.44889 0.25834 0.0
H1124 H 0.78648 0.52043 0.37927 0.0
H1125 H 0.75764 0.49331 0.4058 0.0
H1126 H 0.77624 0.56495 0.34412 0.0
H1127 H 0.76935 0.57108 0.29792 0.0
C1128 C 0.7244 0.50112 0.57439 0.0
C1129 C 0.73833 0.48582 0.54172 0.0
C1130 C 0.79062 0.46119 0.57571 0.0
C1131 C 0.7747 0.47447 0.60864 0.0
N1132 N 0.73855 0.52259 0.63454 0.0
N1133 N 0.78458 0.4517 0.51029 0.0
C1134 C 0.74536 0.49932 0.60642 0.0
C1135 C 0.77156 0.46603 0.54207 0.0
N1136 N 0.68985 0.51496 0.57584 0.0
N1137 N 0.82489 0.44674 0.57604 0.0
H1138 H 0.77261 0.45695 0.48515 0.0
H1139 H 0.80624 0.43356 0.50854 0.0
H1140 H 0.84213 0.4487 0.59824 0.0
H1141 H 0.83856 0.43717 0.5532 0.0
H1142 H 0.67736 0.52271 0.60012 0.0
H1143 H 0.67203 0.51481 0.55392 0.0
H1144 H 0.71934 0.54346 0.63311 0.0
H1145 H 0.75556 0.52416 0.65713 0.0
C1146 C 0.77888 0.54564 0.84322 0.0
C1147 C 0.81365 0.53758 0.8577 0.0
C1148 C 0.83432 0.51689 0.79763 0.0
C1149 C 0.79778 0.51775 0.78555 0.0
N1150 N 0.74128 0.5505 0.78924 0.0
N1151 N 0.8756 0.51771 0.84888 0.0
C1152 C 0.77178 0.53768 0.80607 0.0
C1153 C 0.8419 0.52436 0.83478 0.0
N1154 N 0.75226 0.55925 0.86541 0.0
N1155 N 0.86177 0.51147 0.77313 0.0
H1156 H 0.88265 0.52463 0.87541 0.0
H1157 H 0.89592 0.50359 0.83502 0.0
H1158 H 0.85712 0.5111 0.74519 0.0
H1159 H 0.88923 0.51268 0.7797 0.0
H1160 H 0.72515 0.56168 0.85774 0.0
H1161 H 0.757 0.56644 0.89239 0.0
H1162 H 0.72223 0.56742 0.80167 0.0
H1163 H 0.73751 0.5477 0.76127 0.0
C1164 C 0.72725 0.58252 0.07446 0.0
C1165 C 0.72257 0.55516 0.10146 0.0
C1166 C 0.72898 0.50806 0.05483 0.0
C1167 C 0.7411 0.535 0.02994 0.0
N1168 N 0.73282 0.59662 0.01005 0.0
N1169 N 0.71693 0.4919 0.11779 0.0
C1170 C 0.73419 0.57202 0.03789 0.0
C1171 C 0.72229 0.51787 0.09167 0.0
N1172 N 0.72723 0.61839 0.08415 0.0
N1173 N 0.72182 0.47383 0.0426 0.0
H1174 H 0.71059 0.49826 0.14471 0.0
H1175 H 0.72067 0.46419 0.11326 0.0
H1176 H 0.72241 0.46755 0.01496 0.0
H1177 H 0.71066 0.45338 0.05873 0.0
H1178 H 0.73482 0.63934 0.06661 0.0
H1179 H 0.72169 0.62721 0.11052 0.0
H1180 H 0.72529 0.62374 0.01328 0.0
H1181 H 0.73498 0.58851 0.98294 0.0
C1182 C 0.42135 0.57391 0.76544 0.0
C1183 C 0.44974 0.59765 0.77607 0.0
C1184 C 0.49337 0.54723 0.77198 0.0
C1185 C 0.46638 0.52579 0.75492 0.0
N1186 N 0.4026 0.51155 0.75556 0.0
N1187 N 0.51252 0.60725 0.79151 0.0
C1188 C 0.42954 0.53687 0.75772 0.0
C1189 C 0.48563 0.58423 0.7806 0.0
N1190 N 0.3868 0.58706 0.76137 0.0
N1191 N 0.52549 0.53136 0.78182 0.0
H1192 H 0.50746 0.63415 0.79901 0.0
H1193 H 0.54 0.6004 0.79126 0.0
H1194 H 0.52992 0.50343 0.77906 0.0
H1195 H 0.54557 0.54448 0.79661 0.0
H1196 H 0.36605 0.57242 0.74907 0.0
H1197 H 0.37936 0.61358 0.76824 0.0
H1198 H 0.37521 0.51746 0.75976 0.0
H1199 H 0.4082 0.48373 0.75493 0.0
loop_
_geom_bond_atom_site_label_1
_geom_bond_atom_site_label_2
_geom_bond_distance
_geom_bond_site_symmetry_2
_ccdc_geom_bond_type
C0 O2 1.247 . S
C0 O4 1.258 . S
C1 O8 1.247 . S
C1 O9 1.258 . S
O2 C0 1.247 . S
O2 Zn3 2.028 . S
Zn3 O2 2.028 . S
Zn3 O7 2.035 . S
Zn3 O9 2.035 . S
Zn3 O10 2.028 . S
O4 C0 1.258 . S
O4 Zn5 2.035 . S
Zn5 O4 2.035 . S
Zn5 O6 2.028 . S
Zn5 O8 2.028 . S
Zn5 O11 2.035 . S
O6 Zn5 2.028 . S
O6 C12 1.247 . S
O7 Zn3 2.035 . S
O7 C12 1.258 . S
O8 C1 1.247 . S
O8 Zn5 2.028 . S
O9 C1 1.258 . S
O9 Zn3 2.035 . S
O10 Zn3 2.028 . S
O10 C13 1.247 . S
O11 Zn5 2.035 . S
O11 C13 1.258 . S
C12 O6 1.247 . S
C12 O7 1.258 . S
C13 O10 1.247 . S
C13 O11 1.258 . S
C14 O16 1.247 . S
C14 O18 1.258 . S
C15 O22 1.247 . S
C15 O23 1.258 . S
O16 C14 1.247 . S
O16 Zn17 2.028 . S
Zn17 O16 2.028 . S
Zn17 O21 2.035 1_455 S
Zn17 O23 2.035 1_455 S
Zn17 O24 2.028 . S
O18 C14 1.258 . S
O18 Zn19 2.035 1_455 S
Zn19 O18 2.035 1_655 S
Zn19 O20 2.028 . S
Zn19 O22 2.028 . S
Zn19 O25 2.035 1_655 S
O20 Zn19 2.028 . S
O20 C26 1.247 . S
O21 Zn17 2.035 1_655 S
O21 C26 1.258 . S
O22 C15 1.247 . S
O22 Zn19 2.028 . S
O23 C15 1.258 . S
O23 Zn17 2.035 1_655 S
O24 Zn17 2.028 . S
O24 C27 1.247 . S
O25 Zn19 2.035 1_455 S
O25 C27 1.258 . S
C26 O20 1.247 . S
C26 O21 1.258 . S
C27 O24 1.247 . S
C27 O25 1.258 . S
C28 O30 1.247 . S
C28 O32 1.258 . S
C29 O36 1.247 . S
C29 O37 1.258 . S
O30 C28 1.247 . S
O30 Zn31 2.028 . S
Zn31 O30 2.028 . S
Zn31 O35 2.035 . S
Zn31 O37 2.035 . S
Zn31 O38 2.028 . S
O32 C28 1.258 . S
O32 Zn33 2.035 . S
Zn33 O32 2.035 . S
Zn33 O34 2.028 . S
Zn33 O36 2.028 . S
Zn33 O39 2.035 . S
O34 Zn33 2.028 . S
O34 C40 1.247 . S
O35 Zn31 2.035 . S
O35 C40 1.258 . S
O36 C29 1.247 . S
O36 Zn33 2.028 . S
O37 C29 1.258 . S
O37 Zn31 2.035 . S
O38 Zn31 2.028 . S
O38 C41 1.247 . S
O39 Zn33 2.035 . S
O39 C41 1.258 . S
C40 O34 1.247 . S
C40 O35 1.258 . S
C41 O38 1.247 . S
C41 O39 1.258 . S
C42 O44 1.247 1_556 S
C42 O46 1.258 . S
C43 O50 1.247 1_554 S
C43 O51 1.258 . S
O44 C42 1.247 1_554 S
O44 Zn45 2.028 . S
Zn45 O44 2.028 . S
Zn45 O49 2.035 . S
Zn45 O51 2.035 . S
Zn45 O52 2.028 1_554 S
O46 C42 1.258 . S
O46 Zn47 2.035 . S
Zn47 O46 2.035 . S
Zn47 O48 2.028 1_556 S
Zn47 O50 2.028 . S
Zn47 O53 2.035 . S
O48 Zn47 2.028 1_554 S
O48 C54 1.247 . S
O49 Zn45 2.035 . S
O49 C54 1.258 . S
O50 C43 1.247 1_556 S
O50 Zn47 2.028 . S
O51 C43 1.258 . S
O51 Zn45 2.035 . S
O52 Zn45 2.028 1_556 S
O52 C55 1.247 . S
O53 Zn47 2.035 . S
O53 C55 1.258 . S
C54 O48 1.247 . S
C54 O49 1.258 . S
C55 O52 1.247 . S
C55 O53 1.258 . S
C56 O58 1.247 . S
C56 O60 1.258 1_655 S
C57 O64 1.247 . S
C57 O65 1.258 1_455 S
O58 C56 1.247 . S
O58 Zn59 2.028 1_565 S
Zn59 O58 2.028 1_545 S
Zn59 O63 2.035 1_655 S
Zn59 O65 2.035 . S
Zn59 O66 2.028 1_545 S
O60 C56 1.258 1_455 S
O60 Zn61 2.035 . S
Zn61 O60 2.035 . S
Zn61 O62 2.028 1_565 S
Zn61 O64 2.028 1_565 S
Zn61 O67 2.035 1_455 S
O62 Zn61 2.028 1_545 S
O62 C68 1.247 . S
O63 Zn59 2.035 1_455 S
O63 C68 1.258 . S
O64 C57 1.247 . S
O64 Zn61 2.028 1_545 S
O65 C57 1.258 1_655 S
O65 Zn59 2.035 . S
O66 Zn59 2.028 1_565 S
O66 C69 1.247 . S
O67 Zn61 2.035 1_655 S
O67 C69 1.258 . S
C68 O62 1.247 . S
C68 O63 1.258 . S
C69 O66 1.247 . S
C69 O67 1.258 . S
C70 O72 1.247 . S
C70 O74 1.258 . S
C71 O78 1.247 . S
C71 O79 1.258 . S
O72 C70 1.247 . S
O72 Zn73 2.028 . S
Zn73 O72 2.028 . S
Zn73 O77 2.035 . S
Zn73 O79 2.035 . S
Zn73 O80 2.028 . S
O74 C70 1.258 . S
O74 Zn75 2.035 . S
Zn75 O74 2.035 . S
Zn75 O76 2.028 . S
Zn75 O78 2.028 . S
Zn75 O81 2.035 . S
O76 Zn75 2.028 . S
O76 C82 1.247 . S
O77 Zn73 2.035 . S
O77 C82 1.258 . S
O78 C71 1.247 . S
O78 Zn75 2.028 . S
O79 C71 1.258 . S
O79 Zn73 2.035 . S
O80 Zn73 2.028 . S
O80 C83 1.247 . S
O81 Zn75 2.035 . S
O81 C83 1.258 . S
C82 O76 1.247 . S
C82 O77 1.258 . S
C83 O80 1.247 . S
C83 O81 1.258 . S
C84 O86 1.247 . S
C84 O88 1.258 . S
C85 O92 1.247 . S
C85 O93 1.258 . S
O86 C84 1.247 . S
O86 Zn87 2.028 . S
Zn87 O86 2.028 . S
Zn87 O91 2.035 1_565 S
Zn87 O93 2.035 1_565 S
Zn87 O94 2.028 . S
O88 C84 1.258 . S
O88 Zn89 2.035 1_565 S
Zn89 O88 2.035 1_545 S
Zn89 O90 2.028 . S
Zn89 O92 2.028 . S
Zn89 O95 2.035 1_545 S
O90 Zn89 2.028 . S
O90 C96 1.247 . S
O91 Zn87 2.035 1_545 S
O91 C96 1.258 . S
O92 C85 1.247 . S
O92 Zn89 2.028 . S
O93 C85 1.258 . S
O93 Zn87 2.035 1_545 S
O94 Zn87 2.028 . S
O94 C97 1.247 . S
O95 Zn89 2.035 1_565 S
O95 C97 1.258 . S
C96 O90 1.247 . S
C96 O91 1.258 . S
C97 O94 1.247 . S
C97 O95 1.258 . S
C98 O100 1.247 . S
C98 O102 1.258 . S
C99 O106 1.247 . S
C99 O107 1.258 . S
O100 C98 1.247 . S
O100 Zn101 2.028 . S
Zn101 O100 2.028 . S
Zn101 O105 2.035 . S
Zn101 O107 2.035 . S
Zn101 O108 2.028 . S
O102 C98 1.258 . S
O102 Zn103 2.035 . S
Zn103 O102 2.035 . S
Zn103 O104 2.028 . S
Zn103 O106 2.028 . S
Zn103 O109 2.035 . S
O104 Zn103 2.028 . S
O104 C110 1.247 . S
O105 Zn101 2.035 . S
O105 C110 1.258 . S
O106 C99 1.247 . S
O106 Zn103 2.028 . S
O107 C99 1.258 . S
O107 Zn101 2.035 . S
O108 Zn101 2.028 . S
O108 C111 1.247 . S
O109 Zn103 2.035 . S
O109 C111 1.258 . S
C110 O104 1.247 . S
C110 O105 1.258 . S
C111 O108 1.247 . S
C111 O109 1.258 . S
C112 O114 1.247 . S
C112 O116 1.258 . S
C113 O120 1.247 . S
C113 O121 1.258 . S
O114 C112 1.247 . S
O114 Zn115 2.028 . S
Zn115 O114 2.028 . S
Zn115 O119 2.035 . S
Zn115 O121 2.035 . S
Zn115 O122 2.028 . S
O116 C112 1.258 . S
O116 Zn117 2.035 . S
Zn117 O116 2.035 . S
Zn117 O118 2.028 . S
Zn117 O120 2.028 . S
Zn117 O123 2.035 . S
O118 Zn117 2.028 . S
O118 C124 1.247 . S
O119 Zn115 2.035 . S
O119 C124 1.258 . S
O120 C113 1.247 . S
O120 Zn117 2.028 . S
O121 C113 1.258 . S
O121 Zn115 2.035 . S
O122 Zn115 2.028 . S
O122 C125 1.247 . S
O123 Zn117 2.035 . S
O123 C125 1.258 . S
C124 O118 1.247 . S
C124 O119 1.258 . S
C125 O122 1.247 . S
C125 O123 1.258 . S
C126 O128 1.247 . S
C126 O130 1.258 . S
C127 O134 1.247 . S
C127 O135 1.258 . S
O128 C126 1.247 . S
O128 Zn129 2.028 . S
Zn129 O128 2.028 . S
Zn129 O133 2.035 . S
Zn129 O135 2.035 1_565 S
Zn129 O136 2.028 . S
O130 C126 1.258 . S
O130 Zn131 2.035 1_565 S
Zn131 O130 2.035 1_545 S
Zn131 O132 2.028 . S
Zn131 O134 2.028 . S
Zn131 O137 2.035 . S
O132 Zn131 2.028 . S
O132 C138 1.247 . S
O133 Zn129 2.035 . S
O133 C138 1.258 1_565 S
O134 C127 1.247 . S
O134 Zn131 2.028 . S
O135 C127 1.258 . S
O135 Zn129 2.035 1_545 S
O136 Zn129 2.028 . S
O136 C139 1.247 . S
O137 Zn131 2.035 . S
O137 C139 1.258 1_545 S
C138 O132 1.247 . S
C138 O133 1.258 1_545 S
C139 O136 1.247 . S
C139 O137 1.258 1_565 S
C140 O142 1.247 . S
C140 O144 1.258 . S
C141 O148 1.247 . S
C141 O149 1.258 . S
O142 C140 1.247 . S
O142 Zn143 2.028 . S
Zn143 O142 2.028 . S
Zn143 O147 2.035 . S
Zn143 O149 2.035 . S
Zn143 O150 2.028 . S
O144 C140 1.258 . S
O144 Zn145 2.035 . S
Zn145 O144 2.035 . S
Zn145 O146 2.028 . S
Zn145 O148 2.028 . S
Zn145 O151 2.035 . S
O146 Zn145 2.028 . S
O146 C152 1.247 . S
O147 Zn143 2.035 . S
O147 C152 1.258 . S
O148 C141 1.247 . S
O148 Zn145 2.028 . S
O149 C141 1.258 . S
O149 Zn143 2.035 . S
O150 Zn143 2.028 . S
O150 C153 1.247 . S
O151 Zn145 2.035 . S
O151 C153 1.258 . S
C152 O146 1.247 . S
C152 O147 1.258 . S
C153 O150 1.247 . S
C153 O151 1.258 . S
C154 O156 1.247 . S
C154 O158 1.258 . S
C155 O162 1.247 . S
C155 O163 1.258 . S
O156 C154 1.247 . S
O156 Zn157 2.028 1_554 S
Zn157 O156 2.028 1_556 S
Zn157 O161 2.035 . S
Zn157 O163 2.035 1_545 S
Zn157 O164 2.028 1_556 S
O158 C154 1.258 . S
O158 Zn159 2.035 1_545 S
Zn159 O158 2.035 1_565 S
Zn159 O160 2.028 1_554 S
Zn159 O162 2.028 1_554 S
Zn159 O165 2.035 . S
O160 Zn159 2.028 1_556 S
O160 C166 1.247 . S
O161 Zn157 2.035 . S
O161 C166 1.258 1_545 S
O162 C155 1.247 . S
O162 Zn159 2.028 1_556 S
O163 C155 1.258 . S
O163 Zn157 2.035 1_565 S
O164 Zn157 2.028 1_554 S
O164 C167 1.247 . S
O165 Zn159 2.035 . S
O165 C167 1.258 1_565 S
C166 O160 1.247 . S
C166 O161 1.258 1_565 S
C167 O164 1.247 . S
C167 O165 1.258 1_545 S
C168 O170 1.247 . S
C168 O172 1.258 . S
C169 O176 1.247 . S
C169 O177 1.258 . S
O170 C168 1.247 . S
O170 Zn171 2.028 . S
Zn171 O170 2.028 . S
Zn171 O175 2.035 . S
Zn171 O177 2.035 . S
Zn171 O178 2.028 . S
O172 C168 1.258 . S
O172 Zn173 2.035 . S
Zn173 O172 2.035 . S
Zn173 O174 2.028 . S
Zn173 O176 2.028 . S
Zn173 O179 2.035 . S
O174 Zn173 2.028 . S
O174 C180 1.247 . S
O175 Zn171 2.035 . S
O175 C180 1.258 . S
O176 C169 1.247 . S
O176 Zn173 2.028 . S
O177 C169 1.258 . S
O177 Zn171 2.035 . S
O178 Zn171 2.028 . S
O178 C181 1.247 . S
O179 Zn173 2.035 . S
O179 C181 1.258 . S
C180 O174 1.247 . S
C180 O175 1.258 . S
C181 O178 1.247 . S
C181 O179 1.258 . S
C182 O184 1.247 . S
C182 O186 1.258 1_455 S
C183 O190 1.247 . S
C183 O191 1.258 1_655 S
O184 C182 1.247 . S
O184 Zn185 2.028 . S
Zn185 O184 2.028 . S
Zn185 O189 2.035 1_455 S
Zn185 O191 2.035 . S
Zn185 O192 2.028 . S
O186 C182 1.258 1_655 S
O186 Zn187 2.035 . S
Zn187 O186 2.035 . S
Zn187 O188 2.028 . S
Zn187 O190 2.028 . S
Zn187 O193 2.035 1_655 S
O188 Zn187 2.028 . S
O188 C194 1.247 . S
O189 Zn185 2.035 1_655 S
O189 C194 1.258 . S
O190 C183 1.247 . S
O190 Zn187 2.028 . S
O191 C183 1.258 1_455 S
O191 Zn185 2.035 . S
O192 Zn185 2.028 . S
O192 C195 1.247 . S
O193 Zn187 2.035 1_455 S
O193 C195 1.258 . S
C194 O188 1.247 . S
C194 O189 1.258 . S
C195 O192 1.247 . S
C195 O193 1.258 . S
C196 O198 1.247 . S
C196 O200 1.258 . S
C197 O204 1.247 . S
C197 O205 1.258 . S
O198 C196 1.247 . S
O198 Zn199 2.028 . S
Zn199 O198 2.028 . S
Zn199 O203 2.035 . S
Zn199 O205 2.035 . S
Zn199 O206 2.028 . S
O200 C196 1.258 . S
O200 Zn201 2.035 . S
Zn201 O200 2.035 . S
Zn201 O202 2.028 . S
Zn201 O204 2.028 . S
Zn201 O207 2.035 . S
O202 Zn201 2.028 . S
O202 C208 1.247 . S
O203 Zn199 2.035 . S
O203 C208 1.258 . S
O204 C197 1.247 . S
O204 Zn201 2.028 . S
O205 C197 1.258 . S
O205 Zn199 2.035 . S
O206 Zn199 2.028 . S
O206 C209 1.247 . S
O207 Zn201 2.035 . S
O207 C209 1.258 . S
C208 O202 1.247 . S
C208 O203 1.258 . S
C209 O206 1.247 . S
C209 O207 1.258 . S
C210 O212 1.247 . S
C210 O214 1.258 . S
C211 O218 1.247 . S
C211 O219 1.258 . S
O212 C210 1.247 . S
O212 Zn213 2.028 . S
Zn213 O212 2.028 . S
Zn213 O217 2.035 . S
Zn213 O219 2.035 . S
Zn213 O220 2.028 . S
O214 C210 1.258 . S
O214 Zn215 2.035 . S
Zn215 O214 2.035 . S
Zn215 O216 2.028 . S
Zn215 O218 2.028 . S
Zn215 O221 2.035 . S
O216 Zn215 2.028 . S
O216 C222 1.247 . S
O217 Zn213 2.035 . S
O217 C222 1.258 . S
O218 C211 1.247 . S
O218 Zn215 2.028 . S
O219 C211 1.258 . S
O219 Zn213 2.035 . S
O220 Zn213 2.028 . S
O220 C223 1.247 . S
O221 Zn215 2.035 . S
O221 C223 1.258 . S
C222 O216 1.247 . S
C222 O217 1.258 . S
C223 O220 1.247 . S
C223 O221 1.258 . S
C224 O226 1.247 . S
C224 O228 1.258 . S
C225 O232 1.247 . S
C225 O233 1.258 . S
O226 C224 1.247 . S
O226 Zn227 2.028 . S
Zn227 O226 2.028 . S
Zn227 O231 2.035 . S
Zn227 O233 2.035 . S
Zn227 O234 2.028 . S
O228 C224 1.258 . S
O228 Zn229 2.035 . S
Zn229 O228 2.035 . S
Zn229 O230 2.028 . S
Zn229 O232 2.028 . S
Zn229 O235 2.035 . S
O230 Zn229 2.028 . S
O230 C236 1.247 . S
O231 Zn227 2.035 . S
O231 C236 1.258 . S
O232 C225 1.247 . S
O232 Zn229 2.028 . S
O233 C225 1.258 . S
O233 Zn227 2.035 . S
O234 Zn227 2.028 . S
O234 C237 1.247 . S
O235 Zn229 2.035 . S
O235 C237 1.258 . S
C236 O230 1.247 . S
C236 O231 1.258 . S
C237 O234 1.247 . S
C237 O235 1.258 . S
C238 O240 1.247 . S
C238 O242 1.258 . S
C239 O246 1.247 . S
C239 O247 1.258 . S
O240 C238 1.247 . S
O240 Zn241 2.028 . S
Zn241 O240 2.028 . S
Zn241 O245 2.035 . S
Zn241 O247 2.035 . S
Zn241 O248 2.028 . S
O242 C238 1.258 . S
O242 Zn243 2.035 . S
Zn243 O242 2.035 . S
Zn243 O244 2.028 . S
Zn243 O246 2.028 . S
Zn243 O249 2.035 . S
O244 Zn243 2.028 . S
O244 C250 1.247 . S
O245 Zn241 2.035 . S
O245 C250 1.258 . S
O246 C239 1.247 . S
O246 Zn243 2.028 . S
O247 C239 1.258 . S
O247 Zn241 2.035 . S
O248 Zn241 2.028 . S
O248 C251 1.247 . S
O249 Zn243 2.035 . S
O249 C251 1.258 . S
C250 O244 1.247 . S
C250 O245 1.258 . S
C251 O248 1.247 . S
C251 O249 1.258 . S
C252 O254 1.247 . S
C252 O256 1.258 . S
C253 O260 1.247 . S
C253 O261 1.258 . S
O254 C252 1.247 . S
O254 Zn255 2.028 1_556 S
Zn255 O254 2.028 1_554 S
Zn255 O259 2.035 1_655 S
Zn255 O261 2.035 1_655 S
Zn255 O262 2.028 . S
O256 C252 1.258 . S
O256 Zn257 2.035 1_655 S
Zn257 O256 2.035 1_455 S
Zn257 O258 2.028 . S
Zn257 O260 2.028 1_556 S
Zn257 O263 2.035 1_455 S
O258 Zn257 2.028 . S
O258 C264 1.247 1_556 S
O259 Zn255 2.035 1_455 S
O259 C264 1.258 . S
O260 C253 1.247 . S
O260 Zn257 2.028 1_554 S
O261 C253 1.258 . S
O261 Zn255 2.035 1_455 S
O262 Zn255 2.028 . S
O262 C265 1.247 1_554 S
O263 Zn257 2.035 1_655 S
O263 C265 1.258 . S
C264 O258 1.247 1_554 S
C264 O259 1.258 . S
C265 O262 1.247 1_556 S
C265 O263 1.258 . S
C266 O268 1.247 . S
C266 O270 1.258 . S
C267 O274 1.247 . S
C267 O275 1.258 . S
O268 C266 1.247 . S
O268 Zn269 2.028 . S
Zn269 O268 2.028 . S
Zn269 O273 2.035 . S
Zn269 O275 2.035 . S
Zn269 O276 2.028 . S
O270 C266 1.258 . S
O270 Zn271 2.035 . S
Zn271 O270 2.035 . S
Zn271 O272 2.028 . S
Zn271 O274 2.028 . S
Zn271 O277 2.035 . S
O272 Zn271 2.028 . S
O272 C278 1.247 . S
O273 Zn269 2.035 . S
O273 C278 1.258 . S
O274 C267 1.247 . S
O274 Zn271 2.028 . S
O275 C267 1.258 . S
O275 Zn269 2.035 . S
O276 Zn269 2.028 . S
O276 C279 1.247 . S
O277 Zn271 2.035 . S
O277 C279 1.258 . S
C278 O272 1.247 . S
C278 O273 1.258 . S
C279 O276 1.247 . S
C279 O277 1.258 . S
C280 O282 1.247 . S
C280 O284 1.258 . S
C281 O288 1.247 . S
C281 O289 1.258 . S
O282 C280 1.247 . S
O282 Zn283 2.028 . S
Zn283 O282 2.028 . S
Zn283 O287 2.035 . S
Zn283 O289 2.035 . S
Zn283 O290 2.028 . S
O284 C280 1.258 . S
O284 Zn285 2.035 . S
Zn285 O284 2.035 . S
Zn285 O286 2.028 . S
Zn285 O288 2.028 . S
Zn285 O291 2.035 . S
O286 Zn285 2.028 . S
O286 C292 1.247 . S
O287 Zn283 2.035 . S
O287 C292 1.258 . S
O288 C281 1.247 . S
O288 Zn285 2.028 . S
O289 C281 1.258 . S
O289 Zn283 2.035 . S
O290 Zn283 2.028 . S
O290 C293 1.247 . S
O291 Zn285 2.035 . S
O291 C293 1.258 . S
C292 O286 1.247 . S
C292 O287 1.258 . S
C293 O290 1.247 . S
C293 O291 1.258 . S
C294 O296 1.247 . S
C294 O298 1.258 . S
C295 O302 1.247 . S
C295 O303 1.258 . S
O296 C294 1.247 . S
O296 Zn297 2.028 . S
Zn297 O296 2.028 . S
Zn297 O301 2.035 . S
Zn297 O303 2.035 . S
Zn297 O304 2.028 . S
O298 C294 1.258 . S
O298 Zn299 2.035 . S
Zn299 O298 2.035 . S
Zn299 O300 2.028 . S
Zn299 O302 2.028 . S
Zn299 O305 2.035 . S
O300 Zn299 2.028 . S
O300 C306 1.247 . S
O301 Zn297 2.035 . S
O301 C306 1.258 . S
O302 C295 1.247 . S
O302 Zn299 2.028 . S
O303 C295 1.258 . S
O303 Zn297 2.035 . S
O304 Zn297 2.028 . S
O304 C307 1.247 . S
O305 Zn299 2.035 . S
O305 C307 1.258 . S
C306 O300 1.247 . S
C306 O301 1.258 . S
C307 O304 1.247 . S
C307 O305 1.258 . S
C308 O310 1.247 . S
C308 O312 1.258 . S
C309 O316 1.247 . S
C309 O317 1.258 . S
O310 C308 1.247 . S
O310 Zn311 2.028 1_556 S
Zn311 O310 2.028 1_554 S
Zn311 O315 2.035 . S
Zn311 O317 2.035 . S
Zn311 O318 2.028 1_554 S
O312 C308 1.258 . S
O312 Zn313 2.035 . S
Zn313 O312 2.035 . S
Zn313 O314 2.028 1_556 S
Zn313 O316 2.028 1_556 S
Zn313 O319 2.035 . S
O314 Zn313 2.028 1_554 S
O314 C320 1.247 . S
O315 Zn311 2.035 . S
O315 C320 1.258 . S
O316 C309 1.247 . S
O316 Zn313 2.028 1_554 S
O317 C309 1.258 . S
O317 Zn311 2.035 . S
O318 Zn311 2.028 1_556 S
O318 C321 1.247 . S
O319 Zn313 2.035 . S
O319 C321 1.258 . S
C320 O314 1.247 . S
C320 O315 1.258 . S
C321 O318 1.247 . S
C321 O319 1.258 . S
C322 O324 1.247 . S
C322 O326 1.258 . S
C323 O330 1.247 . S
C323 O331 1.258 . S
O324 C322 1.247 . S
O324 Zn325 2.028 . S
Zn325 O324 2.028 . S
Zn325 O329 2.035 . S
Zn325 O331 2.035 . S
Zn325 O332 2.028 . S
O326 C322 1.258 . S
O326 Zn327 2.035 . S
Zn327 O326 2.035 . S
Zn327 O328 2.028 . S
Zn327 O330 2.028 . S
Zn327 O333 2.035 . S
O328 Zn327 2.028 . S
O328 C334 1.247 . S
O329 Zn325 2.035 . S
O329 C334 1.258 . S
O330 C323 1.247 . S
O330 Zn327 2.028 . S
O331 C323 1.258 . S
O331 Zn325 2.035 . S
O332 Zn325 2.028 . S
O332 C335 1.247 . S
O333 Zn327 2.035 . S
O333 C335 1.258 . S
C334 O328 1.247 . S
C334 O329 1.258 . S
C335 O332 1.247 . S
C335 O333 1.258 . S
C336 C337 1.363 . S
C336 C342 1.379 . S
C336 N344 1.356 . S
C337 C336 1.363 . S
C337 C343 1.363 . S
C338 C339 1.363 . S
C338 C343 1.379 . S
C338 N345 1.356 . S
C339 C338 1.363 . S
C339 C342 1.363 . S
N340 C342 1.356 . S
N340 H352 0.984 . S
N340 H353 0.985 . S
N341 C343 1.356 . S
N341 H346 0.984 . S
N341 H347 0.985 . S
C342 C336 1.379 . S
C342 C339 1.363 . S
C342 N340 1.356 . S
C343 C337 1.363 . S
C343 C338 1.379 . S
C343 N341 1.356 . S
N344 C336 1.356 . S
N344 H350 0.984 . S
N344 H351 0.984 . S
N345 C338 1.356 . S
N345 H348 0.984 . S
N345 H349 0.985 . S
H346 N341 0.984 . S
H347 N341 0.985 . S
H348 N345 0.984 . S
H349 N345 0.985 . S
H350 N344 0.984 . S
H351 N344 0.984 . S
H352 N340 0.984 . S
H353 N340 0.985 . S
C354 C355 1.363 . S
C354 C360 1.379 . S
C354 N362 1.356 1_655 S
C355 C354 1.363 . S
C355 C361 1.363 . S
C356 C357 1.363 . S
C356 C361 1.379 . S
C356 N363 1.356 . S
C357 C356 1.363 . S
C357 C360 1.363 . S
N358 C360 1.356 1_455 S
N358 H370 0.984 . S
N358 H371 0.985 . S
N359 C361 1.356 . S
N359 H364 0.984 . S
N359 H365 0.985 . S
C360 C354 1.379 . S
C360 C357 1.363 . S
C360 N358 1.356 1_655 S
C361 C355 1.363 . S
C361 C356 1.379 . S
C361 N359 1.356 . S
N362 C354 1.356 1_455 S
N362 H368 0.984 . S
N362 H369 0.975 1_455 S
N363 C356 1.356 . S
N363 H366 0.984 . S
N363 H367 0.985 . S
H364 N359 0.984 . S
H365 N359 0.985 . S
H366 N363 0.984 . S
H367 N363 0.985 . S
H368 N362 0.984 . S
H369 N362 0.975 1_655 S
H370 N358 0.984 . S
H371 N358 0.985 . S
C372 C373 1.363 . S
C372 C378 1.379 . S
C372 N380 1.356 . S
C373 C372 1.363 . S
C373 C379 1.363 . S
C374 C375 1.363 . S
C374 C379 1.379 . S
C374 N381 1.356 . S
C375 C374 1.363 . S
C375 C378 1.363 . S
N376 C378 1.356 . S
N376 H388 0.984 . S
N376 H389 0.985 . S
N377 C379 1.356 . S
N377 H382 0.984 . S
N377 H383 0.985 . S
C378 C372 1.379 . S
C378 C375 1.363 . S
C378 N376 1.356 . S
C379 C373 1.363 . S
C379 C374 1.379 . S
C379 N377 1.356 . S
N380 C372 1.356 . S
N380 H386 0.984 . S
N380 H387 0.984 . S
N381 C374 1.356 . S
N381 H384 0.984 . S
N381 H385 0.985 . S
H382 N377 0.984 . S
H383 N377 0.985 . S
H384 N381 0.984 . S
H385 N381 0.985 . S
H386 N380 0.984 . S
H387 N380 0.984 . S
H388 N376 0.984 . S
H389 N376 0.985 . S
C390 C391 1.363 . S
C390 C396 1.379 . S
C390 N398 1.356 . S
C391 C390 1.363 . S
C391 C397 1.363 . S
C392 C393 1.363 . S
C392 C397 1.379 . S
C392 N399 1.356 . S
C393 C392 1.363 . S
C393 C396 1.363 . S
N394 C396 1.356 . S
N394 H406 0.984 . S
N394 H407 0.985 . S
N395 C397 1.356 . S
N395 H400 0.984 . S
N395 H401 0.985 . S
C396 C390 1.379 . S
C396 C393 1.363 . S
C396 N394 1.356 . S
C397 C391 1.363 . S
C397 C392 1.379 . S
C397 N395 1.356 . S
N398 C390 1.356 . S
N398 H404 0.984 . S
N398 H405 0.984 . S
N399 C392 1.356 . S
N399 H402 0.984 . S
N399 H403 0.985 . S
H400 N395 0.984 . S
H401 N395 0.985 . S
H402 N399 0.984 . S
H403 N399 0.985 . S
H404 N398 0.984 . S
H405 N398 0.984 . S
H406 N394 0.984 . S
H407 N394 0.985 . S
C408 C409 1.363 . S
C408 C414 1.379 . S
C408 N416 1.356 . S
C409 C408 1.363 . S
C409 C415 1.363 . S
C410 C411 1.363 . S
C410 C415 1.379 . S
C410 N417 1.356 . S
C411 C410 1.363 . S
C411 C414 1.363 . S
N412 C414 1.356 . S
N412 H424 0.984 . S
N412 H425 0.985 . S
N413 C415 1.356 . S
N413 H418 0.984 . S
N413 H419 0.985 . S
C414 C408 1.379 . S
C414 C411 1.363 . S
C414 N412 1.356 . S
C415 C409 1.363 . S
C415 C410 1.379 . S
C415 N413 1.356 . S
N416 C408 1.356 . S
N416 H422 0.984 . S
N416 H423 0.984 . S
N417 C410 1.356 . S
N417 H420 0.984 . S
N417 H421 0.985 . S
H418 N413 0.984 . S
H419 N413 0.985 . S
H420 N417 0.984 . S
H421 N417 0.985 . S
H422 N416 0.984 . S
H423 N416 0.984 . S
H424 N412 0.984 . S
H425 N412 0.985 . S
C426 C427 1.363 . S
C426 C432 1.379 . S
C426 N434 1.356 . S
C427 C426 1.363 . S
C427 C433 1.363 . S
C428 C429 1.363 . S
C428 C433 1.379 . S
C428 N435 1.356 . S
C429 C428 1.363 . S
C429 C432 1.363 . S
N430 C432 1.356 . S
N430 H442 0.984 . S
N430 H443 0.985 . S
N431 C433 1.356 . S
N431 H436 0.984 . S
N431 H437 0.985 . S
C432 C426 1.379 . S
C432 C429 1.363 . S
C432 N430 1.356 . S
C433 C427 1.363 . S
C433 C428 1.379 . S
C433 N431 1.356 . S
N434 C426 1.356 . S
N434 H440 0.984 . S
N434 H441 0.984 . S
N435 C428 1.356 . S
N435 H438 0.984 . S
N435 H439 0.985 . S
H436 N431 0.984 . S
H437 N431 0.985 . S
H438 N435 0.984 . S
H439 N435 0.985 . S
H440 N434 0.984 . S
H441 N434 0.984 . S
H442 N430 0.984 . S
H443 N430 0.985 . S
C444 C445 1.363 . S
C444 C450 1.379 . S
C444 N452 1.356 . S
C445 C444 1.363 . S
C445 C451 1.363 . S
C446 C447 1.363 . S
C446 C451 1.379 . S
C446 N453 1.356 . S
C447 C446 1.363 . S
C447 C450 1.363 . S
N448 C450 1.356 . S
N448 H460 0.984 . S
N448 H461 0.985 . S
N449 C451 1.356 . S
N449 H454 0.984 . S
N449 H455 0.985 . S
C450 C444 1.379 . S
C450 C447 1.363 . S
C450 N448 1.356 . S
C451 C445 1.363 . S
C451 C446 1.379 . S
C451 N449 1.356 . S
N452 C444 1.356 . S
N452 H458 0.984 . S
N452 H459 0.984 . S
N453 C446 1.356 . S
N453 H456 0.984 . S
N453 H457 0.985 . S
H454 N449 0.984 . S
H455 N449 0.985 . S
H456 N453 0.984 . S
H457 N453 0.985 . S
H458 N452 0.984 . S
H459 N452 0.984 . S
H460 N448 0.984 . S
H461 N448 0.985 . S
C462 C463 1.363 . S
C462 C468 1.379 1_554 S
C462 N470 1.356 1_554 S
C463 C462 1.363 . S
C463 C469 1.363 . S
C464 C465 1.363 . S
C464 C469 1.379 . S
C464 N471 1.356 . S
C465 C464 1.363 . S
C465 C468 1.363 1_554 S
N466 C468 1.356 . S
N466 H478 0.984 . S
N466 H479 0.985 . S
N467 C469 1.356 . S
N467 H472 0.984 . S
N467 H473 0.985 . S
C468 C462 1.379 1_556 S
C468 C465 1.363 1_556 S
C468 N466 1.356 . S
C469 C463 1.363 . S
C469 C464 1.379 . S
C469 N467 1.356 . S
N470 C462 1.356 1_556 S
N470 H476 0.984 . S
N470 H477 0.984 . S
N471 C464 1.356 . S
N471 H474 0.984 . S
N471 H475 0.985 . S
H472 N467 0.984 . S
H473 N467 0.985 . S
H474 N471 0.984 . S
H475 N471 0.985 . S
H476 N470 0.984 . S
H477 N470 0.984 . S
H478 N466 0.984 . S
H479 N466 0.985 . S
C480 C481 1.363 . S
C480 C486 1.379 1_545 S
C480 N488 1.356 1_545 S
C481 C480 1.363 . S
C481 C487 1.363 . S
C482 C483 1.363 . S
C482 C487 1.379 . S
C482 N489 1.356 . S
C483 C482 1.363 . S
C483 C486 1.363 1_545 S
N484 C486 1.356 . S
N484 H496 0.984 . S
N484 H497 0.985 . S
N485 C487 1.356 . S
N485 H490 0.984 . S
N485 H491 0.985 . S
C486 C480 1.379 1_565 S
C486 C483 1.363 1_565 S
C486 N484 1.356 . S
C487 C481 1.363 . S
C487 C482 1.379 . S
C487 N485 1.356 . S
N488 C480 1.356 1_565 S
N488 H494 0.984 . S
N488 H495 0.984 . S
N489 C482 1.356 . S
N489 H492 0.984 . S
N489 H493 0.985 . S
H490 N485 0.984 . S
H491 N485 0.985 . S
H492 N489 0.984 . S
H493 N489 0.985 . S
H494 N488 0.984 . S
H495 N488 0.984 . S
H496 N484 0.984 . S
H497 N484 0.985 . S
C498 C499 1.363 . S
C498 C504 1.379 . S
C498 N506 1.356 . S
C499 C498 1.363 . S
C499 C505 1.363 . S
C500 C501 1.363 . S
C500 C505 1.379 . S
C500 N507 1.356 . S
C501 C500 1.363 . S
C501 C504 1.363 . S
N502 C504 1.356 . S
N502 H514 0.984 . S
N502 H515 0.985 . S
N503 C505 1.356 . S
N503 H508 0.984 . S
N503 H509 0.985 . S
C504 C498 1.379 . S
C504 C501 1.363 . S
C504 N502 1.356 . S
C505 C499 1.363 . S
C505 C500 1.379 . S
C505 N503 1.356 . S
N506 C498 1.356 . S
N506 H512 0.984 . S
N506 H513 0.984 . S
N507 C500 1.356 . S
N507 H510 0.984 . S
N507 H511 0.985 . S
H508 N503 0.984 . S
H509 N503 0.985 . S
H510 N507 0.984 . S
H511 N507 0.985 . S
H512 N506 0.984 . S
H513 N506 0.984 . S
H514 N502 0.984 . S
H515 N502 0.985 . S
C516 C517 1.363 . S
C516 C522 1.379 . S
C516 N524 1.356 . S
C517 C516 1.363 . S
C517 C523 1.363 1_565 S
C518 C519 1.375 . S
C518 C523 1.377 1_565 S
C518 N525 1.349 1_565 S
C519 C518 1.375 . S
C519 C522 1.363 . S
N520 C522 1.356 . S
N520 H532 0.984 . S
N520 H533 0.985 . S
N521 C523 1.356 . S
N521 H526 0.984 . S
N521 H527 0.985 . S
C522 C516 1.379 . S
C522 C519 1.363 . S
C522 N520 1.356 . S
C523 C517 1.363 1_545 S
C523 C518 1.377 1_545 S
C523 N521 1.356 . S
N524 C516 1.356 . S
N524 H530 0.984 . S
N524 H531 0.984 . S
N525 C518 1.349 1_545 S
N525 H528 0.984 . S
N525 H529 0.985 . S
H526 N521 0.984 . S
H527 N521 0.985 . S
H528 N525 0.984 . S
H529 N525 0.985 . S
H530 N524 0.984 . S
H531 N524 0.984 . S
H532 N520 0.984 . S
H533 N520 0.985 . S
C534 C535 1.363 . S
C534 C540 1.379 . S
C534 N542 1.356 . S
C535 C534 1.363 . S
C535 C541 1.363 . S
C536 C537 1.363 . S
C536 C541 1.379 . S
C536 N543 1.356 . S
C537 C536 1.363 . S
C537 C540 1.363 . S
N538 C540 1.356 . S
N538 H550 0.984 . S
N538 H551 0.985 . S
N539 C541 1.356 . S
N539 H544 0.984 . S
N539 H545 0.985 . S
C540 C534 1.379 . S
C540 C537 1.363 . S
C540 N538 1.356 . S
C541 C535 1.363 . S
C541 C536 1.379 . S
C541 N539 1.356 . S
N542 C534 1.356 . S
N542 H548 0.984 . S
N542 H549 0.984 . S
N543 C536 1.356 . S
N543 H546 0.984 . S
N543 H547 0.985 . S
H544 N539 0.984 . S
H545 N539 0.985 . S
H546 N543 0.984 . S
H547 N543 0.985 . S
H548 N542 0.984 . S
H549 N542 0.984 . S
H550 N538 0.984 . S
H551 N538 0.985 . S
C552 C553 1.363 . S
C552 C558 1.379 . S
C552 N560 1.356 . S
C553 C552 1.363 . S
C553 C559 1.363 . S
C554 C555 1.363 . S
C554 C559 1.379 . S
C554 N561 1.356 . S
C555 C554 1.363 . S
C555 C558 1.363 . S
N556 C558 1.356 . S
N556 H568 0.984 . S
N556 H569 0.985 . S
N557 C559 1.356 . S
N557 H562 0.984 . S
N557 H563 0.985 . S
C558 C552 1.379 . S
C558 C555 1.363 . S
C558 N556 1.356 . S
C559 C553 1.363 . S
C559 C554 1.379 . S
C559 N557 1.356 . S
N560 C552 1.356 . S
N560 H566 0.984 . S
N560 H567 0.984 . S
N561 C554 1.356 . S
N561 H564 0.984 . S
N561 H565 0.985 . S
H562 N557 0.984 . S
H563 N557 0.985 . S
H564 N561 0.984 . S
H565 N561 0.985 . S
H566 N560 0.984 . S
H567 N560 0.984 . S
H568 N556 0.984 . S
H569 N556 0.985 . S
C570 C571 1.363 . S
C570 C576 1.379 . S
C570 N578 1.356 . S
C571 C570 1.363 . S
C571 C577 1.363 . S
C572 C573 1.363 . S
C572 C577 1.379 . S
C572 N579 1.356 . S
C573 C572 1.363 . S
C573 C576 1.363 . S
N574 C576 1.356 . S
N574 H586 0.984 . S
N574 H587 0.985 . S
N575 C577 1.356 . S
N575 H580 0.984 . S
N575 H581 0.985 . S
C576 C570 1.379 . S
C576 C573 1.363 . S
C576 N574 1.356 . S
C577 C571 1.363 . S
C577 C572 1.379 . S
C577 N575 1.356 . S
N578 C570 1.356 . S
N578 H584 0.984 . S
N578 H585 0.984 . S
N579 C572 1.356 . S
N579 H582 0.984 . S
N579 H583 0.985 . S
H580 N575 0.984 . S
H581 N575 0.985 . S
H582 N579 0.984 . S
H583 N579 0.985 . S
H584 N578 0.984 . S
H585 N578 0.984 . S
H586 N574 0.984 . S
H587 N574 0.985 . S
C588 C589 1.363 . S
C588 C594 1.379 . S
C588 N596 1.356 . S
C589 C588 1.363 . S
C589 C595 1.363 . S
C590 C591 1.363 . S
C590 C595 1.379 . S
C590 N597 1.356 . S
C591 C590 1.363 . S
C591 C594 1.363 . S
N592 C594 1.356 . S
N592 H604 0.984 . S
N592 H605 0.985 . S
N593 C595 1.356 . S
N593 H598 0.984 . S
N593 H599 0.985 . S
C594 C588 1.379 . S
C594 C591 1.363 . S
C594 N592 1.356 . S
C595 C589 1.363 . S
C595 C590 1.379 . S
C595 N593 1.356 . S
N596 C588 1.356 . S
N596 H602 0.984 . S
N596 H603 0.984 . S
N597 C590 1.356 . S
N597 H600 0.984 . S
N597 H601 0.985 . S
H598 N593 0.984 . S
H599 N593 0.985 . S
H600 N597 0.984 . S
H601 N597 0.985 . S
H602 N596 0.984 . S
H603 N596 0.984 . S
H604 N592 0.984 . S
H605 N592 0.985 . S
C606 C607 1.363 . S
C606 C612 1.379 . S
C606 N614 1.356 . S
C607 C606 1.363 . S
C607 C613 1.363 . S
C608 C609 1.363 . S
C608 C613 1.379 . S
C608 N615 1.356 . S
C609 C608 1.363 . S
C609 C612 1.363 . S
N610 C612 1.356 . S
N610 H622 0.984 . S
N610 H623 0.985 . S
N611 C613 1.356 . S
N611 H616 0.984 . S
N611 H617 0.985 . S
C612 C606 1.379 . S
C612 C609 1.363 . S
C612 N610 1.356 . S
C613 C607 1.363 . S
C613 C608 1.379 . S
C613 N611 1.356 . S
N614 C606 1.356 . S
N614 H620 0.984 . S
N614 H621 0.984 . S
N615 C608 1.356 . S
N615 H618 0.984 . S
N615 H619 0.985 . S
H616 N611 0.984 . S
H617 N611 0.985 . S
H618 N615 0.984 . S
H619 N615 0.985 . S
H620 N614 0.984 . S
H621 N614 0.984 . S
H622 N610 0.984 . S
H623 N610 0.985 . S
C624 C625 1.363 . S
C624 C630 1.379 . S
C624 N632 1.356 . S
C625 C624 1.363 . S
C625 C631 1.363 . S
C626 C627 1.363 . S
C626 C631 1.379 . S
C626 N633 1.356 . S
C627 C626 1.363 . S
C627 C630 1.363 . S
N628 C630 1.356 . S
N628 H640 0.984 . S
N628 H641 0.985 . S
N629 C631 1.356 . S
N629 H634 0.984 . S
N629 H635 0.985 . S
C630 C624 1.379 . S
C630 C627 1.363 . S
C630 N628 1.356 . S
C631 C625 1.363 . S
C631 C626 1.379 . S
C631 N629 1.356 . S
N632 C624 1.356 . S
N632 H638 0.984 . S
N632 H639 0.984 . S
N633 C626 1.356 . S
N633 H636 0.984 . S
N633 H637 0.985 . S
H634 N629 0.984 . S
H635 N629 0.985 . S
H636 N633 0.984 . S
H637 N633 0.985 . S
H638 N632 0.984 . S
H639 N632 0.984 . S
H640 N628 0.984 . S
H641 N628 0.985 . S
C642 C643 1.363 . S
C642 C648 1.379 . S
C642 N650 1.356 . S
C643 C642 1.363 . S
C643 C649 1.363 . S
C644 C645 1.363 . S
C644 C649 1.379 . S
C644 N651 1.356 . S
C645 C644 1.363 . S
C645 C648 1.363 . S
N646 C648 1.356 . S
N646 H658 0.984 . S
N646 H659 0.985 . S
N647 C649 1.356 . S
N647 H652 0.984 . S
N647 H653 0.985 . S
C648 C642 1.379 . S
C648 C645 1.363 . S
C648 N646 1.356 . S
C649 C643 1.363 . S
C649 C644 1.379 . S
C649 N647 1.356 . S
N650 C642 1.356 . S
N650 H656 0.984 . S
N650 H657 0.984 . S
N651 C644 1.356 . S
N651 H654 0.984 . S
N651 H655 0.985 . S
H652 N647 0.984 . S
H653 N647 0.985 . S
H654 N651 0.984 . S
H655 N651 0.985 . S
H656 N650 0.984 . S
H657 N650 0.984 . S
H658 N646 0.984 . S
H659 N646 0.985 . S
C660 C661 1.363 . S
C660 C666 1.379 . S
C660 N668 1.356 . S
C661 C660 1.363 . S
C661 C667 1.363 . S
C662 C663 1.363 . S
C662 C667 1.379 . S
C662 N669 1.356 . S
C663 C662 1.363 . S
C663 C666 1.363 . S
N664 C666 1.356 . S
N664 H676 0.984 . S
N664 H677 0.985 . S
N665 C667 1.356 . S
N665 H670 0.984 . S
N665 H671 0.985 . S
C666 C660 1.379 . S
C666 C663 1.363 . S
C666 N664 1.356 . S
C667 C661 1.363 . S
C667 C662 1.379 . S
C667 N665 1.356 . S
N668 C660 1.356 . S
N668 H674 0.984 . S
N668 H675 0.984 . S
N669 C662 1.356 . S
N669 H672 0.984 . S
N669 H673 0.985 . S
H670 N665 0.984 . S
H671 N665 0.985 . S
H672 N669 0.984 . S
H673 N669 0.985 . S
H674 N668 0.984 . S
H675 N668 0.984 . S
H676 N664 0.984 . S
H677 N664 0.985 . S
C678 C679 1.363 . S
C678 C684 1.379 . S
C678 N686 1.356 . S
C679 C678 1.363 . S
C679 C685 1.363 . S
C680 C681 1.363 . S
C680 C685 1.379 . S
C680 N687 1.356 1_455 S
C681 C680 1.363 . S
C681 C684 1.363 . S
N682 C684 1.356 . S
N682 H694 0.984 . S
N682 H695 0.985 . S
N683 C685 1.356 1_655 S
N683 H688 0.984 . S
N683 H689 0.985 . S
C684 C678 1.379 . S
C684 C681 1.363 . S
C684 N682 1.356 . S
C685 C679 1.363 . S
C685 C680 1.379 . S
C685 N683 1.356 1_455 S
N686 C678 1.356 . S
N686 H692 0.984 . S
N686 H693 0.984 . S
N687 C680 1.356 1_655 S
N687 H690 0.984 1_655 S
N687 H691 0.985 . S
H688 N683 0.984 . S
H689 N683 0.985 . S
H690 N687 0.984 1_455 S
H691 N687 0.985 . S
H692 N686 0.984 . S
H693 N686 0.984 . S
H694 N682 0.984 . S
H695 N682 0.985 . S
C696 C697 1.363 . S
C696 C702 1.379 . S
C696 N704 1.356 . S
C697 C696 1.363 . S
C697 C703 1.363 . S
C698 C699 1.363 . S
C698 C703 1.379 . S
C698 N705 1.356 . S
C699 C698 1.363 . S
C699 C702 1.363 . S
N700 C702 1.356 . S
N700 H712 0.984 . S
N700 H713 0.985 . S
N701 C703 1.356 . S
N701 H706 0.984 . S
N701 H707 0.985 . S
C702 C696 1.379 . S
C702 C699 1.363 . S
C702 N700 1.356 . S
C703 C697 1.363 . S
C703 C698 1.379 . S
C703 N701 1.356 . S
N704 C696 1.356 . S
N704 H710 0.984 . S
N704 H711 0.984 . S
N705 C698 1.356 . S
N705 H708 0.984 . S
N705 H709 0.985 . S
H706 N701 0.984 . S
H707 N701 0.985 . S
H708 N705 0.984 . S
H709 N705 0.985 . S
H710 N704 0.984 . S
H711 N704 0.984 . S
H712 N700 0.984 . S
H713 N700 0.985 . S
C714 C715 1.363 . S
C714 C720 1.379 . S
C714 N722 1.356 . S
C715 C714 1.363 . S
C715 C721 1.363 . S
C716 C717 1.363 . S
C716 C721 1.379 . S
C716 N723 1.356 . S
C717 C716 1.363 . S
C717 C720 1.363 . S
N718 C720 1.356 . S
N718 H730 0.984 . S
N718 H731 0.985 . S
N719 C721 1.356 . S
N719 H724 0.984 . S
N719 H725 0.985 . S
C720 C714 1.379 . S
C720 C717 1.363 . S
C720 N718 1.356 . S
C721 C715 1.363 . S
C721 C716 1.379 . S
C721 N719 1.356 . S
N722 C714 1.356 . S
N722 H728 0.984 . S
N722 H729 0.984 . S
N723 C716 1.356 . S
N723 H726 0.984 . S
N723 H727 0.985 . S
H724 N719 0.984 . S
H725 N719 0.985 . S
H726 N723 0.984 . S
H727 N723 0.985 . S
H728 N722 0.984 . S
H729 N722 0.984 . S
H730 N718 0.984 . S
H731 N718 0.985 . S
C732 C733 1.363 . S
C732 C738 1.379 . S
C732 N740 1.356 . S
C733 C732 1.363 . S
C733 C739 1.363 1_556 S
C734 C735 1.363 . S
C734 C739 1.379 1_556 S
C734 N741 1.356 1_556 S
C735 C734 1.363 . S
C735 C738 1.363 . S
N736 C738 1.356 . S
N736 H748 0.984 . S
N736 H749 0.985 . S
N737 C739 1.356 . S
N737 H742 0.984 . S
N737 H743 0.985 . S
C738 C732 1.379 . S
C738 C735 1.363 . S
C738 N736 1.356 . S
C739 C733 1.363 1_554 S
C739 C734 1.379 1_554 S
C739 N737 1.356 . S
N740 C732 1.356 . S
N740 H746 0.984 . S
N740 H747 0.984 . S
N741 C734 1.356 1_554 S
N741 H744 0.984 . S
N741 H745 0.985 . S
H742 N737 0.984 . S
H743 N737 0.985 . S
H744 N741 0.984 . S
H745 N741 0.985 . S
H746 N740 0.984 . S
H747 N740 0.984 . S
H748 N736 0.984 . S
H749 N736 0.985 . S
C750 C751 1.363 . S
C750 C756 1.379 . S
C750 N758 1.356 . S
C751 C750 1.363 . S
C751 C757 1.363 . S
C752 C753 1.363 . S
C752 C757 1.379 . S
C752 N759 1.356 . S
C753 C752 1.363 . S
C753 C756 1.363 . S
N754 C756 1.356 . S
N754 H766 0.984 . S
N754 H767 0.985 . S
N755 C757 1.356 . S
N755 H760 0.984 . S
N755 H761 0.985 . S
C756 C750 1.379 . S
C756 C753 1.363 . S
C756 N754 1.356 . S
C757 C751 1.363 . S
C757 C752 1.379 . S
C757 N755 1.356 . S
N758 C750 1.356 . S
N758 H764 0.984 . S
N758 H765 0.984 . S
N759 C752 1.356 . S
N759 H762 0.984 . S
N759 H763 0.985 . S
H760 N755 0.984 . S
H761 N755 0.985 . S
H762 N759 0.984 . S
H763 N759 0.985 . S
H764 N758 0.984 . S
H765 N758 0.984 . S
H766 N754 0.984 . S
H767 N754 0.985 . S
C768 C769 1.363 . S
C768 C774 1.379 . S
C768 N776 1.356 1_455 S
C769 C768 1.363 . S
C769 C775 1.363 . S
C770 C771 1.363 . S
C770 C775 1.379 . S
C770 N777 1.356 . S
C771 C770 1.363 . S
C771 C774 1.363 . S
N772 C774 1.356 . S
N772 H784 0.984 . S
N772 H785 0.985 . S
N773 C775 1.356 . S
N773 H778 0.984 . S
N773 H779 0.985 . S
C774 C768 1.379 . S
C774 C771 1.363 . S
C774 N772 1.356 . S
C775 C769 1.363 . S
C775 C770 1.379 . S
C775 N773 1.356 . S
N776 C768 1.356 1_655 S
N776 H782 0.984 . S
N776 H783 0.984 . S
N777 C770 1.356 . S
N777 H780 0.984 . S
N777 H781 0.985 . S
H778 N773 0.984 . S
H779 N773 0.985 . S
H780 N777 0.984 . S
H781 N777 0.985 . S
H782 N776 0.984 . S
H783 N776 0.984 . S
H784 N772 0.984 . S
H785 N772 0.985 . S
C786 C787 1.363 . S
C786 C792 1.379 . S
C786 N794 1.356 . S
C787 C786 1.363 . S
C787 C793 1.363 . S
C788 C789 1.363 . S
C788 C793 1.379 . S
C788 N795 1.356 . S
C789 C788 1.363 . S
C789 C792 1.363 . S
N790 C792 1.356 . S
N790 H802 0.984 . S
N790 H803 0.985 . S
N791 C793 1.356 . S
N791 H796 0.984 . S
N791 H797 0.985 . S
C792 C786 1.379 . S
C792 C789 1.363 . S
C792 N790 1.356 . S
C793 C787 1.363 . S
C793 C788 1.379 . S
C793 N791 1.356 . S
N794 C786 1.356 . S
N794 H800 0.984 . S
N794 H801 0.984 . S
N795 C788 1.356 . S
N795 H798 0.984 . S
N795 H799 0.985 . S
H796 N791 0.984 . S
H797 N791 0.985 . S
H798 N795 0.984 . S
H799 N795 0.985 . S
H800 N794 0.984 . S
H801 N794 0.984 . S
H802 N790 0.984 . S
H803 N790 0.985 . S
C804 C805 1.363 . S
C804 C810 1.379 . S
C804 N812 1.356 . S
C805 C804 1.363 . S
C805 C811 1.363 . S
C806 C807 1.363 . S
C806 C811 1.379 . S
C806 N813 1.356 . S
C807 C806 1.363 . S
C807 C810 1.363 . S
N808 C810 1.356 . S
N808 H820 0.984 . S
N808 H821 0.985 . S
N809 C811 1.356 . S
N809 H814 0.984 . S
N809 H815 0.985 . S
C810 C804 1.379 . S
C810 C807 1.363 . S
C810 N808 1.356 . S
C811 C805 1.363 . S
C811 C806 1.379 . S
C811 N809 1.356 . S
N812 C804 1.356 . S
N812 H818 0.984 . S
N812 H819 0.984 . S
N813 C806 1.356 . S
N813 H816 0.984 . S
N813 H817 0.985 . S
H814 N809 0.984 . S
H815 N809 0.985 . S
H816 N813 0.984 . S
H817 N813 0.985 . S
H818 N812 0.984 . S
H819 N812 0.984 . S
H820 N808 0.984 . S
H821 N808 0.985 . S
C822 C823 1.363 . S
C822 C828 1.379 . S
C822 N830 1.356 . S
C823 C822 1.363 . S
C823 C829 1.363 . S
C824 C825 1.363 . S
C824 C829 1.379 . S
C824 N831 1.356 . S
C825 C824 1.363 . S
C825 C828 1.363 . S
N826 C828 1.356 . S
N826 H838 0.984 . S
N826 H839 0.985 . S
N827 C829 1.356 . S
N827 H832 0.984 . S
N827 H833 0.985 1_554 S
C828 C822 1.379 . S
C828 C825 1.363 . S
C828 N826 1.356 . S
C829 C823 1.363 . S
C829 C824 1.379 . S
C829 N827 1.356 . S
N830 C822 1.356 . S
N830 H836 0.984 . S
N830 H837 0.984 . S
N831 C824 1.356 . S
N831 H834 0.984 . S
N831 H835 0.985 1_554 S
H832 N827 0.984 . S
H833 N827 0.985 1_556 S
H834 N831 0.984 . S
H835 N831 0.985 1_556 S
H836 N830 0.984 . S
H837 N830 0.984 . S
H838 N826 0.984 . S
H839 N826 0.985 . S
C840 C841 1.363 . S
C840 C846 1.379 . S
C840 N848 1.356 . S
C841 C840 1.363 . S
C841 C847 1.363 . S
C842 C843 1.363 . S
C842 C847 1.379 . S
C842 N849 1.356 . S
C843 C842 1.363 . S
C843 C846 1.363 . S
N844 C846 1.356 . S
N844 H856 0.984 . S
N844 H857 0.985 . S
N845 C847 1.356 . S
N845 H850 0.984 . S
N845 H851 0.985 . S
C846 C840 1.379 . S
C846 C843 1.363 . S
C846 N844 1.356 . S
C847 C841 1.363 . S
C847 C842 1.379 . S
C847 N845 1.356 . S
N848 C840 1.356 . S
N848 H854 0.984 . S
N848 H855 0.984 . S
N849 C842 1.356 . S
N849 H852 0.984 . S
N849 H853 0.985 . S
H850 N845 0.984 . S
H851 N845 0.985 . S
H852 N849 0.984 . S
H853 N849 0.985 . S
H854 N848 0.984 . S
H855 N848 0.984 . S
H856 N844 0.984 . S
H857 N844 0.985 . S
C858 C859 1.363 . S
C858 C864 1.379 . S
C858 N866 1.356 . S
C859 C858 1.363 . S
C859 C865 1.363 . S
C860 C861 1.363 . S
C860 C865 1.379 . S
C860 N867 1.356 . S
C861 C860 1.363 . S
C861 C864 1.363 . S
N862 C864 1.356 . S
N862 H874 0.984 1_545 S
N862 H875 0.985 . S
N863 C865 1.356 . S
N863 H868 0.984 . S
N863 H869 0.985 . S
C864 C858 1.379 . S
C864 C861 1.363 . S
C864 N862 1.356 . S
C865 C859 1.363 . S
C865 C860 1.379 . S
C865 N863 1.356 . S
N866 C858 1.356 . S
N866 H872 0.984 1_545 S
N866 H873 0.984 . S
N867 C860 1.356 . S
N867 H870 0.984 . S
N867 H871 0.985 . S
H868 N863 0.984 . S
H869 N863 0.985 . S
H870 N867 0.984 . S
H871 N867 0.985 . S
H872 N866 0.984 1_565 S
H873 N866 0.984 . S
H874 N862 0.984 1_565 S
H875 N862 0.985 . S
C876 C877 1.363 . S
C876 C882 1.379 . S
C876 N884 1.356 . S
C877 C876 1.363 . S
C877 C883 1.363 . S
C878 C879 1.363 . S
C878 C883 1.379 . S
C878 N885 1.356 . S
C879 C878 1.363 . S
C879 C882 1.363 . S
N880 C882 1.356 1_545 S
N880 H892 0.984 . S
N880 H893 0.985 . S
N881 C883 1.356 . S
N881 H886 0.984 . S
N881 H887 0.985 . S
C882 C876 1.379 . S
C882 C879 1.363 . S
C882 N880 1.356 1_565 S
C883 C877 1.363 . S
C883 C878 1.379 . S
C883 N881 1.356 . S
N884 C876 1.356 . S
N884 H890 0.981 1_565 S
N884 H891 0.984 . S
N885 C878 1.356 . S
N885 H888 0.984 . S
N885 H889 0.985 . S
H886 N881 0.984 . S
H887 N881 0.985 . S
H888 N885 0.984 . S
H889 N885 0.985 . S
H890 N884 0.981 1_545 S
H891 N884 0.984 . S
H892 N880 0.984 . S
H893 N880 0.985 . S
C894 C895 1.363 . S
C894 C900 1.379 . S
C894 N902 1.356 . S
C895 C894 1.363 . S
C895 C901 1.363 . S
C896 C897 1.363 . S
C896 C901 1.379 . S
C896 N903 1.356 . S
C897 C896 1.363 . S
C897 C900 1.363 . S
N898 C900 1.356 . S
N898 H910 0.984 . S
N898 H911 0.985 . S
N899 C901 1.356 . S
N899 H904 0.984 . S
N899 H905 0.985 . S
C900 C894 1.379 . S
C900 C897 1.363 . S
C900 N898 1.356 . S
C901 C895 1.363 . S
C901 C896 1.379 . S
C901 N899 1.356 . S
N902 C894 1.356 . S
N902 H908 0.984 . S
N902 H909 0.984 . S
N903 C896 1.356 . S
N903 H906 0.984 . S
N903 H907 0.985 1_565 S
H904 N899 0.984 . S
H905 N899 0.985 . S
H906 N903 0.984 . S
H907 N903 0.985 1_545 S
H908 N902 0.984 . S
H909 N902 0.984 . S
H910 N898 0.984 . S
H911 N898 0.985 . S
C912 C913 1.363 . S
C912 C918 1.379 . S
C912 N920 1.356 . S
C913 C912 1.363 . S
C913 C919 1.363 . S
C914 C915 1.363 . S
C914 C919 1.379 . S
C914 N921 1.344 1_554 S
C915 C914 1.363 . S
C915 C918 1.363 . S
N916 C918 1.356 . S
N916 H928 0.984 . S
N916 H929 0.985 . S
N917 C919 1.356 1_556 S
N917 H922 0.984 . S
N917 H923 0.985 . S
C918 C912 1.379 . S
C918 C915 1.363 . S
C918 N916 1.356 . S
C919 C913 1.363 . S
C919 C914 1.379 . S
C919 N917 1.356 1_554 S
N920 C912 1.356 . S
N920 H926 0.984 . S
N920 H927 0.984 . S
N921 C914 1.344 1_556 S
N921 H924 0.970 1_556 S
N921 H925 1.011 . S
H922 N917 0.984 . S
H923 N917 0.985 . S
H924 N921 0.970 1_554 S
H925 N921 1.011 . S
H926 N920 0.984 . S
H927 N920 0.984 . S
H928 N916 0.984 . S
H929 N916 0.985 . S
C930 C931 1.363 . S
C930 C936 1.379 . S
C930 N938 1.356 . S
C931 C930 1.363 . S
C931 C937 1.363 . S
C932 C933 1.363 . S
C932 C937 1.379 . S
C932 N939 1.356 . S
C933 C932 1.363 . S
C933 C936 1.363 . S
N934 C936 1.356 1_554 S
N934 H946 0.984 . S
N934 H947 0.985 . S
N935 C937 1.356 . S
N935 H940 0.984 . S
N935 H941 0.985 . S
C936 C930 1.379 . S
C936 C933 1.363 . S
C936 N934 1.356 1_556 S
C937 C931 1.363 . S
C937 C932 1.379 . S
C937 N935 1.356 . S
N938 C930 1.356 . S
N938 H944 0.974 1_556 S
N938 H945 0.984 . S
N939 C932 1.356 . S
N939 H942 0.984 . S
N939 H943 0.985 . S
H940 N935 0.984 . S
H941 N935 0.985 . S
H942 N939 0.984 . S
H943 N939 0.985 . S
H944 N938 0.974 1_554 S
H945 N938 0.984 . S
H946 N934 0.984 . S
H947 N934 0.985 . S
C948 C949 1.363 . S
C948 C954 1.379 . S
C948 N956 1.356 . S
C949 C948 1.363 . S
C949 C955 1.363 . S
C950 C951 1.363 . S
C950 C955 1.379 . S
C950 N957 1.356 . S
C951 C950 1.363 . S
C951 C954 1.363 . S
N952 C954 1.356 . S
N952 H964 0.984 1_455 S
N952 H965 0.985 . S
N953 C955 1.356 . S
N953 H958 0.984 . S
N953 H959 0.985 . S
C954 C948 1.379 . S
C954 C951 1.363 . S
C954 N952 1.356 . S
C955 C949 1.363 . S
C955 C950 1.379 . S
C955 N953 1.356 . S
N956 C948 1.356 . S
N956 H962 0.984 1_455 S
N956 H963 0.984 . S
N957 C950 1.356 . S
N957 H960 0.984 . S
N957 H961 0.985 . S
H958 N953 0.984 . S
H959 N953 0.985 . S
H960 N957 0.984 . S
H961 N957 0.985 . S
H962 N956 0.984 1_655 S
H963 N956 0.984 . S
H964 N952 0.984 1_655 S
H965 N952 0.985 . S
C966 C967 1.363 . S
C966 C972 1.379 . S
C966 N974 1.356 . S
C967 C966 1.363 . S
C967 C973 1.363 . S
C968 C969 1.363 . S
C968 C973 1.379 . S
C968 N975 1.356 . S
C969 C968 1.363 . S
C969 C972 1.363 . S
N970 C972 1.356 . S
N970 H982 0.984 . S
N970 H983 0.985 . S
N971 C973 1.356 . S
N971 H976 0.984 . S
N971 H977 0.985 . S
C972 C966 1.379 . S
C972 C969 1.363 . S
C972 N970 1.356 . S
C973 C967 1.363 . S
C973 C968 1.379 . S
C973 N971 1.356 . S
N974 C966 1.356 . S
N974 H980 0.984 . S
N974 H981 0.984 . S
N975 C968 1.356 . S
N975 H978 0.984 . S
N975 H979 0.985 . S
H976 N971 0.984 . S
H977 N971 0.985 . S
H978 N975 0.984 . S
H979 N975 0.985 . S
H980 N974 0.984 . S
H981 N974 0.984 . S
H982 N970 0.984 . S
H983 N970 0.985 . S
C984 C985 1.363 . S
C984 C990 1.379 . S
C984 N992 1.356 . S
C985 C984 1.363 . S
C985 C991 1.363 . S
C986 C987 1.363 . S
C986 C991 1.379 . S
C986 N993 1.356 . S
C987 C986 1.363 . S
C987 C990 1.363 . S
N988 C990 1.356 . S
N988 H1000 0.984 . S
N988 H1001 0.985 . S
N989 C991 1.356 . S
N989 H994 0.984 . S
N989 H995 0.985 . S
C990 C984 1.379 . S
C990 C987 1.363 . S
C990 N988 1.356 . S
C991 C985 1.363 . S
C991 C986 1.379 . S
C991 N989 1.356 . S
N992 C984 1.356 . S
N992 H998 0.984 . S
N992 H999 0.984 . S
N993 C986 1.356 . S
N993 H996 0.984 . S
N993 H997 0.985 . S
H994 N989 0.984 . S
H995 N989 0.985 . S
H996 N993 0.984 . S
H997 N993 0.985 . S
H998 N992 0.984 . S
H999 N992 0.984 . S
H1000 N988 0.984 . S
H1001 N988 0.985 . S
C1002 C1003 1.363 . S
C1002 C1008 1.379 . S
C1002 N1010 1.356 . S
C1003 C1002 1.363 . S
C1003 C1009 1.363 . S
C1004 C1005 1.363 . S
C1004 C1009 1.379 . S
C1004 N1011 1.356 . S
C1005 C1004 1.363 . S
C1005 C1008 1.363 . S
N1006 C1008 1.356 . S
N1006 H1018 0.984 . S
N1006 H1019 0.985 . S
N1007 C1009 1.356 . S
N1007 H1012 0.984 . S
N1007 H1013 0.985 . S
C1008 C1002 1.379 . S
C1008 C1005 1.363 . S
C1008 N1006 1.356 . S
C1009 C1003 1.363 . S
C1009 C1004 1.379 . S
C1009 N1007 1.356 . S
N1010 C1002 1.356 . S
N1010 H1016 0.984 . S
N1010 H1017 0.984 1_565 S
N1011 C1004 1.356 . S
N1011 H1014 0.984 . S
N1011 H1015 0.985 . S
H1012 N1007 0.984 . S
H1013 N1007 0.985 . S
H1014 N1011 0.984 . S
H1015 N1011 0.985 . S
H1016 N1010 0.984 . S
H1017 N1010 0.984 1_545 S
H1018 N1006 0.984 . S
H1019 N1006 0.985 . S
C1020 C1021 1.363 . S
C1020 C1026 1.379 . S
C1020 N1028 1.356 . S
C1021 C1020 1.363 . S
C1021 C1027 1.363 . S
C1022 C1023 1.363 . S
C1022 C1027 1.379 . S
C1022 N1029 1.356 . S
C1023 C1022 1.363 . S
C1023 C1026 1.363 . S
N1024 C1026 1.356 . S
N1024 H1036 0.984 . S
N1024 H1037 0.985 . S
N1025 C1027 1.356 . S
N1025 H1030 0.984 . S
N1025 H1031 0.985 . S
C1026 C1020 1.379 . S
C1026 C1023 1.363 . S
C1026 N1024 1.356 . S
C1027 C1021 1.363 . S
C1027 C1022 1.379 . S
C1027 N1025 1.356 . S
N1028 C1020 1.356 . S
N1028 H1034 0.984 . S
N1028 H1035 0.984 . S
N1029 C1022 1.356 . S
N1029 H1032 0.984 . S
N1029 H1033 0.985 . S
H1030 N1025 0.984 . S
H1031 N1025 0.985 . S
H1032 N1029 0.984 . S
H1033 N1029 0.985 . S
H1034 N1028 0.984 . S
H1035 N1028 0.984 . S
H1036 N1024 0.984 . S
H1037 N1024 0.985 . S
C1038 C1039 1.363 . S
C1038 C1044 1.379 . S
C1038 N1046 1.356 . S
C1039 C1038 1.363 . S
C1039 C1045 1.363 . S
C1040 C1041 1.363 . S
C1040 C1045 1.379 . S
C1040 N1047 1.356 . S
C1041 C1040 1.363 . S
C1041 C1044 1.363 . S
N1042 C1044 1.356 . S
N1042 H1054 0.984 . S
N1042 H1055 0.985 . S
N1043 C1045 1.356 . S
N1043 H1048 0.984 . S
N1043 H1049 0.985 . S
C1044 C1038 1.379 . S
C1044 C1041 1.363 . S
C1044 N1042 1.356 . S
C1045 C1039 1.363 . S
C1045 C1040 1.379 . S
C1045 N1043 1.356 . S
N1046 C1038 1.356 . S
N1046 H1052 0.984 . S
N1046 H1053 0.984 . S
N1047 C1040 1.356 . S
N1047 H1050 0.984 . S
N1047 H1051 0.985 . S
H1048 N1043 0.984 . S
H1049 N1043 0.985 . S
H1050 N1047 0.984 . S
H1051 N1047 0.985 . S
H1052 N1046 0.984 . S
H1053 N1046 0.984 . S
H1054 N1042 0.984 . S
H1055 N1042 0.985 . S
C1056 C1057 1.363 . S
C1056 C1062 1.379 . S
C1056 N1064 1.356 . S
C1057 C1056 1.363 . S
C1057 C1063 1.363 . S
C1058 C1059 1.363 . S
C1058 C1063 1.379 . S
C1058 N1065 1.356 . S
C1059 C1058 1.363 . S
C1059 C1062 1.363 . S
N1060 C1062 1.356 . S
N1060 H1072 0.984 . S
N1060 H1073 0.985 . S
N1061 C1063 1.356 . S
N1061 H1066 0.984 . S
N1061 H1067 0.985 1_556 S
C1062 C1056 1.379 . S
C1062 C1059 1.363 . S
C1062 N1060 1.356 . S
C1063 C1057 1.363 . S
C1063 C1058 1.379 . S
C1063 N1061 1.356 . S
N1064 C1056 1.356 . S
N1064 H1070 0.984 . S
N1064 H1071 0.984 . S
N1065 C1058 1.356 . S
N1065 H1068 0.984 . S
N1065 H1069 0.985 1_556 S
H1066 N1061 0.984 . S
H1067 N1061 0.985 1_554 S
H1068 N1065 0.984 . S
H1069 N1065 0.985 1_554 S
H1070 N1064 0.984 . S
H1071 N1064 0.984 . S
H1072 N1060 0.984 . S
H1073 N1060 0.985 . S
C1074 C1075 1.363 . S
C1074 C1080 1.379 . S
C1074 N1082 1.356 . S
C1075 C1074 1.363 . S
C1075 C1081 1.363 . S
C1076 C1077 1.363 . S
C1076 C1081 1.379 . S
C1076 N1083 1.356 1_655 S
C1077 C1076 1.363 . S
C1077 C1080 1.363 . S
N1078 C1080 1.356 . S
N1078 H1090 0.984 . S
N1078 H1091 0.985 . S
N1079 C1081 1.356 . S
N1079 H1084 0.984 . S
N1079 H1085 0.985 1_655 S
C1080 C1074 1.379 . S
C1080 C1077 1.363 . S
C1080 N1078 1.356 . S
C1081 C1075 1.363 . S
C1081 C1076 1.379 . S
C1081 N1079 1.356 . S
N1082 C1074 1.356 . S
N1082 H1088 0.984 . S
N1082 H1089 0.984 . S
N1083 C1076 1.356 1_455 S
N1083 H1086 0.984 . S
N1083 H1087 0.985 . S
H1084 N1079 0.984 . S
H1085 N1079 0.985 1_455 S
H1086 N1083 0.984 . S
H1087 N1083 0.985 . S
H1088 N1082 0.984 . S
H1089 N1082 0.984 . S
H1090 N1078 0.984 . S
H1091 N1078 0.985 . S
C1092 C1093 1.363 . S
C1092 C1098 1.379 . S
C1092 N1100 1.356 . S
C1093 C1092 1.363 . S
C1093 C1099 1.363 . S
C1094 C1095 1.363 . S
C1094 C1099 1.379 . S
C1094 N1101 1.356 . S
C1095 C1094 1.363 . S
C1095 C1098 1.363 . S
N1096 C1098 1.356 . S
N1096 H1108 0.984 . S
N1096 H1109 0.985 . S
N1097 C1099 1.356 . S
N1097 H1102 0.984 . S
N1097 H1103 0.985 . S
C1098 C1092 1.379 . S
C1098 C1095 1.363 . S
C1098 N1096 1.356 . S
C1099 C1093 1.363 . S
C1099 C1094 1.379 . S
C1099 N1097 1.356 . S
N1100 C1092 1.356 . S
N1100 H1106 0.984 . S
N1100 H1107 0.984 . S
N1101 C1094 1.356 . S
N1101 H1104 0.984 . S
N1101 H1105 0.985 . S
H1102 N1097 0.984 . S
H1103 N1097 0.985 . S
H1104 N1101 0.984 . S
H1105 N1101 0.985 . S
H1106 N1100 0.984 . S
H1107 N1100 0.984 . S
H1108 N1096 0.984 . S
H1109 N1096 0.985 . S
C1110 C1111 1.363 . S
C1110 C1116 1.379 . S
C1110 N1118 1.356 . S
C1111 C1110 1.363 . S
C1111 C1117 1.363 . S
C1112 C1113 1.363 . S
C1112 C1117 1.379 . S
C1112 N1119 1.356 . S
C1113 C1112 1.363 . S
C1113 C1116 1.363 . S
N1114 C1116 1.356 . S
N1114 H1126 0.984 . S
N1114 H1127 0.985 . S
N1115 C1117 1.356 . S
N1115 H1120 0.984 . S
N1115 H1121 0.985 . S
C1116 C1110 1.379 . S
C1116 C1113 1.363 . S
C1116 N1114 1.356 . S
C1117 C1111 1.363 . S
C1117 C1112 1.379 . S
C1117 N1115 1.356 . S
N1118 C1110 1.356 . S
N1118 H1124 0.984 . S
N1118 H1125 0.984 . S
N1119 C1112 1.356 . S
N1119 H1122 0.984 . S
N1119 H1123 0.985 . S
H1120 N1115 0.984 . S
H1121 N1115 0.985 . S
H1122 N1119 0.984 . S
H1123 N1119 0.985 . S
H1124 N1118 0.984 . S
H1125 N1118 0.984 . S
H1126 N1114 0.984 . S
H1127 N1114 0.985 . S
C1128 C1129 1.363 . S
C1128 C1134 1.379 . S
C1128 N1136 1.356 . S
C1129 C1128 1.363 . S
C1129 C1135 1.363 . S
C1130 C1131 1.363 . S
C1130 C1135 1.379 . S
C1130 N1137 1.356 . S
C1131 C1130 1.363 . S
C1131 C1134 1.363 . S
N1132 C1134 1.356 . S
N1132 H1144 0.984 . S
N1132 H1145 0.985 . S
N1133 C1135 1.356 . S
N1133 H1138 0.984 . S
N1133 H1139 0.985 . S
C1134 C1128 1.379 . S
C1134 C1131 1.363 . S
C1134 N1132 1.356 . S
C1135 C1129 1.363 . S
C1135 C1130 1.379 . S
C1135 N1133 1.356 . S
N1136 C1128 1.356 . S
N1136 H1142 0.984 . S
N1136 H1143 0.984 . S
N1137 C1130 1.356 . S
N1137 H1140 0.984 . S
N1137 H1141 0.985 . S
H1138 N1133 0.984 . S
H1139 N1133 0.985 . S
H1140 N1137 0.984 . S
H1141 N1137 0.985 . S
H1142 N1136 0.984 . S
H1143 N1136 0.984 . S
H1144 N1132 0.984 . S
H1145 N1132 0.985 . S
C1146 C1147 1.363 . S
C1146 C1152 1.379 . S
C1146 N1154 1.356 . S
C1147 C1146 1.363 . S
C1147 C1153 1.363 . S
C1148 C1149 1.363 . S
C1148 C1153 1.379 . S
C1148 N1155 1.356 . S
C1149 C1148 1.363 . S
C1149 C1152 1.363 . S
N1150 C1152 1.356 . S
N1150 H1162 0.984 . S
N1150 H1163 0.985 . S
N1151 C1153 1.356 . S
N1151 H1156 0.984 . S
N1151 H1157 0.985 . S
C1152 C1146 1.379 . S
C1152 C1149 1.363 . S
C1152 N1150 1.356 . S
C1153 C1147 1.363 . S
C1153 C1148 1.379 . S
C1153 N1151 1.356 . S
N1154 C1146 1.356 . S
N1154 H1160 0.984 . S
N1154 H1161 0.984 . S
N1155 C1148 1.356 . S
N1155 H1158 0.984 . S
N1155 H1159 0.985 . S
H1156 N1151 0.984 . S
H1157 N1151 0.985 . S
H1158 N1155 0.984 . S
H1159 N1155 0.985 . S
H1160 N1154 0.984 . S
H1161 N1154 0.984 . S
H1162 N1150 0.984 . S
H1163 N1150 0.985 . S
C1164 C1165 1.363 . S
C1164 C1170 1.379 . S
C1164 N1172 1.356 . S
C1165 C1164 1.363 . S
C1165 C1171 1.363 . S
C1166 C1167 1.363 . S
C1166 C1171 1.379 . S
C1166 N1173 1.356 . S
C1167 C1166 1.363 . S
C1167 C1170 1.363 . S
N1168 C1170 1.356 . S
N1168 H1180 0.984 . S
N1168 H1181 0.985 . S
N1169 C1171 1.356 . S
N1169 H1174 0.984 . S
N1169 H1175 0.985 . S
C1170 C1164 1.379 . S
C1170 C1167 1.363 . S
C1170 N1168 1.356 . S
C1171 C1165 1.363 . S
C1171 C1166 1.379 . S
C1171 N1169 1.356 . S
N1172 C1164 1.356 . S
N1172 H1178 0.984 . S
N1172 H1179 0.984 . S
N1173 C1166 1.356 . S
N1173 H1176 0.984 . S
N1173 H1177 0.985 . S
H1174 N1169 0.984 . S
H1175 N1169 0.985 . S
H1176 N1173 0.984 . S
H1177 N1173 0.985 . S
H1178 N1172 0.984 . S
H1179 N1172 0.984 . S
H1180 N1168 0.984 . S
H1181 N1168 0.985 . S
C1182 C1183 1.363 . S
C1182 C1188 1.379 . S
C1182 N1190 1.356 . S
C1183 C1182 1.363 . S
C1183 C1189 1.363 . S
C1184 C1185 1.363 . S
C1184 C1189 1.379 . S
C1184 N1191 1.356 . S
C1185 C1184 1.363 . S
C1185 C1188 1.363 . S
N1186 C1188 1.356 . S
N1186 H1198 0.984 . S
N1186 H1199 0.985 . S
N1187 C1189 1.356 . S
N1187 H1192 0.984 . S
N1187 H1193 0.985 . S
C1188 C1182 1.379 . S
C1188 C1185 1.363 . S
C1188 N1186 1.356 . S
C1189 C1183 1.363 . S
C1189 C1184 1.379 . S
C1189 N1187 1.356 . S
N1190 C1182 1.356 . S
N1190 H1196 0.984 . S
N1190 H1197 0.984 . S
N1191 C1184 1.356 . S
N1191 H1194 0.984 . S
N1191 H1195 0.985 . S
H1192 N1187 0.984 . S
H1193 N1187 0.985 . S
H1194 N1191 0.984 . S
H1195 N1191 0.985 . S
H1196 N1190 0.984 . S
H1197 N1190 0.984 . S
H1198 N1186 0.984 . S
H1199 N1186 0.985 . S
C337 C99 1.503 . S
C339 C1 1.437 . S
C355 C15 1.094 . S
C357 C56 1.083 . S
C373 C83 1.411 . S
C375 C29 1.365 . S
C391 C55 1.288 . S
C393 C85 1.276 . S
C409 C124 1.434 . S
C411 C13 1.503 . S
C427 C27 1.281 . S
C429 C126 1.280 . S
C445 C152 1.482 . S
C447 C41 1.562 . S
C463 C154 1.079 . S
C465 C43 1.065 . S
C481 C68 1.079 . S
C483 C138 1.063 . S
C499 C71 1.332 . S
C501 C140 1.410 . S
C517 C166 1.086 . S
C519 C97 1.091 . S
C535 C112 1.503 . S
C537 C111 1.437 . S
C553 C294 1.562 . S
C555 C169 1.486 . S
C571 C194 1.285 . S
C573 C320 1.274 . S
C589 C197 1.365 . S
C591 C322 1.412 . S
C607 C334 1.328 . S
C609 C222 1.410 . S
C625 C236 1.412 . S
C627 C306 1.362 . S
C643 C279 1.211 . S
C645 C238 1.242 . S
C661 C181 1.411 . S
C663 C224 1.328 . S
C679 C182 1.066 . S
C681 C253 1.078 . S
C697 C209 1.562 . S
C699 C210 1.482 . S
C715 C250 1.208 . S
C717 C292 1.242 . S
C733 C265 1.087 . S
C735 C308 1.090 . S
C751 C280 1.208 . S
C753 C267 1.242 . S
C769 C57 2.439 . S
C771 C0 2.331 . S
C787 C82 1.588 . S
C789 C14 1.518 . S
C805 C84 2.564 . S
C807 C28 2.479 . S
C823 C98 2.125 . S
C825 C54 2.057 . S
C841 C125 2.335 . S
C843 C167 2.442 . S
C859 C127 2.060 . S
C861 C113 2.127 . S
C877 C153 2.139 . S
C879 C139 2.240 . S
C895 C141 1.476 . S
C897 C155 1.426 . S
C913 C264 2.436 . S
C915 C110 2.332 . S
C931 C168 2.132 . S
C933 C42 2.237 . S
C949 C12 2.125 . S
C951 C195 2.061 . S
C967 C26 2.564 . S
C969 C196 2.479 . S
C985 C70 2.102 . S
C987 C266 2.181 . S
C1003 C69 1.427 . S
C1005 C223 1.474 . S
C1021 C96 1.521 . S
C1023 C237 1.584 . S
C1039 C225 2.108 . S
C1041 C239 2.181 . S
C1057 C180 1.476 . S
C1059 C252 1.423 . S
C1075 C211 2.139 . S
C1077 C183 2.240 . S
C1093 C278 2.311 . S
C1095 C208 2.376 . S
C1111 C293 2.181 . S
C1113 C335 2.108 . S
C1129 C281 2.317 . S
C1131 C295 2.376 . S
C1147 C321 2.566 . S
C1149 C307 2.484 . S
C1165 C323 1.587 . S
C1167 C309 1.522 . S
C1183 C40 2.376 . S
C1185 C251 2.317 . S
