# Generated by pormake.
# Topology umh, (4)-cn, num edge types: 1
# Building blocks:
#     Node 0, Type 0, BuildingBlock: QUQFOY_clean_sbu_1, # of connection points: 4
#     Node 1, Type 0, BuildingBlock: QUQFOY_clean_sbu_1, # of connection points: 4
#     Node 2, Type 0, BuildingBlock: QUQFOY_clean_sbu_1, # of connection points: 4
#     Node 3, Type 0, BuildingBlock: QUQFOY_clean_sbu_1, # of connection points: 4
#     Node 4, Type 0, BuildingBlock: QUQFOY_clean_sbu_1, # of connection points: 4
#     Node 5, Type 0, BuildingBlock: QUQFOY_clean_sbu_1, # of connection points: 4
#     Node 6, Type 0, BuildingBlock: QUQFOY_clean_sbu_1, # of connection points: 4
#     Node 7, Type 0, BuildingBlock: QUQFOY_clean_sbu_1, # of connection points: 4
#     Node 8, Type 0, BuildingBlock: QUQFOY_clean_sbu_1, # of connection points: 4
#     Node 9, Type 0, BuildingBlock: QUQFOY_clean_sbu_1, # of connection points: 4
#     Node 10, Type 0, BuildingBlock: QUQFOY_clean_sbu_1, # of connection points: 4
#     Node 11, Type 0, BuildingBlock: QUQFOY_clean_sbu_1, # of connection points: 4
#     Node 12, Type 0, BuildingBlock: QUQFOY_clean_sbu_1, # of connection points: 4
#     Node 13, Type 0, BuildingBlock: QUQFOY_clean_sbu_1, # of connection points: 4
#     Node 14, Type 0, BuildingBlock: QUQFOY_clean_sbu_1, # of connection points: 4
#     Node 15, Type 0, BuildingBlock: QUQFOY_clean_sbu_1, # of connection points: 4
#     Edge 16, Type (0, 0), BuildingBlock: AJUNOK_clean_linker_0, # of connection points: 2
#     Edge 17, Type (0, 0), BuildingBlock: AJUNOK_clean_linker_0, # of connection points: 2
#     Edge 18, Type (0, 0), BuildingBlock: AJUNOK_clean_linker_0, # of connection points: 2
#     Edge 19, Type (0, 0), BuildingBlock: AJUNOK_clean_linker_0, # of connection points: 2
#     Edge 20, Type (0, 0), BuildingBlock: AJUNOK_clean_linker_0, # of connection points: 2
#     Edge 21, Type (0, 0), BuildingBlock: AJUNOK_clean_linker_0, # of connection points: 2
#     Edge 22, Type (0, 0), BuildingBlock: AJUNOK_clean_linker_0, # of connection points: 2
#     Edge 23, Type (0, 0), BuildingBlock: AJUNOK_clean_linker_0, # of connection points: 2
#     Edge 24, Type (0, 0), BuildingBlock: AJUNOK_clean_linker_0, # of connection points: 2
#     Edge 25, Type (0, 0), BuildingBlock: AJUNOK_clean_linker_0, # of connection points: 2
#     Edge 26, Type (0, 0), BuildingBlock: AJUNOK_clean_linker_0, # of connection points: 2
#     Edge 27, Type (0, 0), BuildingBlock: AJUNOK_clean_linker_0, # of connection points: 2
#     Edge 28, Type (0, 0), BuildingBlock: AJUNOK_clean_linker_0, # of connection points: 2
#     Edge 29, Type (0, 0), BuildingBlock: AJUNOK_clean_linker_0, # of connection points: 2
#     Edge 30, Type (0, 0), BuildingBlock: AJUNOK_clean_linker_0, # of connection points: 2
#     Edge 31, Type (0, 0), BuildingBlock: AJUNOK_clean_linker_0, # of connection points: 2
#     Edge 32, Type (0, 0), BuildingBlock: AJUNOK_clean_linker_0, # of connection points: 2
#     Edge 33, Type (0, 0), BuildingBlock: AJUNOK_clean_linker_0, # of connection points: 2
#     Edge 34, Type (0, 0), BuildingBlock: AJUNOK_clean_linker_0, # of connection points: 2
#     Edge 35, Type (0, 0), BuildingBlock: AJUNOK_clean_linker_0, # of connection points: 2
#     Edge 36, Type (0, 0), BuildingBlock: AJUNOK_clean_linker_0, # of connection points: 2
#     Edge 37, Type (0, 0), BuildingBlock: AJUNOK_clean_linker_0, # of connection points: 2
#     Edge 38, Type (0, 0), BuildingBlock: AJUNOK_clean_linker_0, # of connection points: 2
#     Edge 39, Type (0, 0), BuildingBlock: AJUNOK_clean_linker_0, # of connection points: 2
#     Edge 40, Type (0, 0), BuildingBlock: AJUNOK_clean_linker_0, # of connection points: 2
#     Edge 41, Type (0, 0), BuildingBlock: AJUNOK_clean_linker_0, # of connection points: 2
#     Edge 42, Type (0, 0), BuildingBlock: AJUNOK_clean_linker_0, # of connection points: 2
#     Edge 43, Type (0, 0), BuildingBlock: AJUNOK_clean_linker_0, # of connection points: 2
#     Edge 44, Type (0, 0), BuildingBlock: AJUNOK_clean_linker_0, # of connection points: 2
#     Edge 45, Type (0, 0), BuildingBlock: AJUNOK_clean_linker_0, # of connection points: 2
#     Edge 46, Type (0, 0), BuildingBlock: AJUNOK_clean_linker_0, # of connection points: 2
#     Edge 47, Type (0, 0), BuildingBlock: AJUNOK_clean_linker_0, # of connection points: 2
# Relax obj value: 0.066
# Max RMSD: 0.420
# Mean RMSD: 0.289
data_MOF--net-umh--node1-QUQFOY_clean_sbu_1--edge1-AJUNOK_clean_linker_0
_symmetry_space_group_name_H-M    P1
_symmetry_Int_Tables_number       1
_symmetry_cell_setting            triclinic
loop_
_symmetry_equiv_pos_as_xyz
'x, y, z'
_cell_length_a     30.166141
_cell_length_b     30.010003
_cell_length_c     37.775232
_cell_angle_alpha  92.513202
_cell_angle_beta   87.752672
_cell_angle_gamma 89.783635
loop_
_atom_site_label
_atom_site_type_symbol
_atom_site_fract_x
_atom_site_fract_y
_atom_site_fract_z
_atom_type_partial_charge
O0 O 0.41241 0.15253 0.141 0.0
Cd1 Cd 0.40804 0.15324 0.19561 0.0
Cd2 Cd 0.33141 0.10839 0.18133 0.0
O3 O 0.36205 0.10085 0.13034 0.0
O4 O 0.47006 0.14842 0.21463 0.0
O5 O 0.42078 0.09438 0.21543 0.0
C6 C 0.4604 0.10765 0.2215 0.0
C7 C 0.30026 0.05909 0.22177 0.0
C8 C 0.39287 0.12658 0.11917 0.0
C9 C 0.32263 0.2015 0.21291 0.0
O10 O 0.30594 0.17033 0.19405 0.0
O11 O 0.36358 0.20018 0.22033 0.0
O12 O 0.27984 0.0681 0.19344 0.0
O13 O 0.34035 0.07316 0.22422 0.0
O14 O 0.39215 0.41323 0.65133 0.0
Cd15 Cd 0.39454 0.40998 0.70541 0.0
Cd16 Cd 0.44338 0.3365 0.68609 0.0
O17 O 0.44867 0.368 0.63719 0.0
O18 O 0.39505 0.47341 0.72679 0.0
O19 O 0.4532 0.42849 0.72341 0.0
C20 C 0.437 0.46764 0.73106 0.0
C21 C 0.4932 0.30963 0.72647 0.0
C22 C 0.41978 0.39636 0.62817 0.0
C23 C 0.35272 0.32168 0.71721 0.0
O24 O 0.38367 0.30712 0.69604 0.0
O25 O 0.35229 0.36252 0.72845 0.0
O26 O 0.48761 0.28828 0.69648 0.0
O27 O 0.47542 0.34868 0.73085 0.0
O28 O 0.1332 0.40162 0.14804 0.0
Cd29 Cd 0.12624 0.40301 0.20211 0.0
Cd30 Cd 0.19959 0.44971 0.19602 0.0
O31 O 0.17676 0.46021 0.1449 0.0
O32 O 0.06017 0.40204 0.21299 0.0
O33 O 0.10234 0.4611 0.2226 0.0
C34 C 0.06318 0.44408 0.22167 0.0
C35 C 0.21976 0.49621 0.24429 0.0
C36 C 0.15202 0.43116 0.12974 0.0
C37 C 0.20873 0.35653 0.21857 0.0
O38 O 0.22657 0.38798 0.20177 0.0
O39 O 0.1672 0.35797 0.22673 0.0
O40 O 0.24504 0.49222 0.21583 0.0
O41 O 0.18088 0.47859 0.24318 0.0
O42 O 0.15426 0.1181 0.64399 0.0
Cd43 Cd 0.15939 0.11523 0.69807 0.0
Cd44 Cd 0.10922 0.18996 0.69736 0.0
O45 O 0.09785 0.16536 0.64566 0.0
O46 O 0.15776 0.05048 0.71162 0.0
O47 O 0.1029 0.0985 0.72284 0.0
C48 C 0.11751 0.05818 0.72349 0.0
C49 C 0.06025 0.21598 0.74368 0.0
C50 C 0.12431 0.13844 0.6281 0.0
C51 C 0.20424 0.20058 0.71725 0.0
O52 O 0.17023 0.218 0.70455 0.0
O53 O 0.20578 0.15852 0.72112 0.0
O54 O 0.06689 0.23868 0.71567 0.0
O55 O 0.07709 0.17646 0.74316 0.0
O56 O 0.40464 0.39643 0.45645 0.0
Cd57 Cd 0.40333 0.39889 0.40233 0.0
Cd58 Cd 0.32958 0.44739 0.41928 0.0
O59 O 0.36038 0.45439 0.46857 0.0
O60 O 0.46668 0.40233 0.38198 0.0
O61 O 0.41974 0.459 0.38606 0.0
C62 C 0.45927 0.44437 0.37838 0.0
C63 C 0.3017 0.49569 0.37805 0.0
C64 C 0.38761 0.42513 0.47882 0.0
C65 C 0.31653 0.35596 0.38848 0.0
O66 O 0.30141 0.38674 0.40973 0.0
O67 O 0.35728 0.35615 0.37775 0.0
O68 O 0.2806 0.49037 0.40805 0.0
O69 O 0.34096 0.47873 0.37406 0.0
O70 O 0.15972 0.42376 0.95476 0.0
Cd71 Cd 0.1594 0.41887 0.90012 0.0
Cd72 Cd 0.11253 0.34377 0.91444 0.0
O73 O 0.10638 0.37519 0.96515 0.0
O74 O 0.15428 0.4806 0.88052 0.0
O75 O 0.1004 0.43114 0.88099 0.0
C76 C 0.11347 0.47083 0.87444 0.0
C77 C 0.06113 0.31148 0.87614 0.0
C78 C 0.13317 0.4051 0.97647 0.0
C79 C 0.20496 0.33228 0.8825 0.0
O80 O 0.17342 0.31647 0.90122 0.0
O81 O 0.20458 0.37334 0.87495 0.0
O82 O 0.07136 0.29207 0.90462 0.0
O83 O 0.07533 0.35148 0.87241 0.0
O84 O 0.11458 0.15718 0.45669 0.0
Cd85 Cd 0.1116 0.16176 0.40274 0.0
Cd86 Cd 0.18511 0.11124 0.40403 0.0
O87 O 0.16075 0.09985 0.45577 0.0
O88 O 0.04685 0.16167 0.39015 0.0
O89 O 0.09294 0.10513 0.37857 0.0
C90 C 0.05311 0.12077 0.37869 0.0
C91 C 0.20957 0.06277 0.35662 0.0
C92 C 0.13404 0.12695 0.47292 0.0
C93 C 0.19665 0.20641 0.38456 0.0
O94 O 0.21358 0.17236 0.39771 0.0
O95 O 0.15497 0.20789 0.37979 0.0
O96 O 0.23253 0.06821 0.38465 0.0
O97 O 0.17055 0.08046 0.35761 0.0
O98 O 0.39374 0.13024 0.94664 0.0
Cd99 Cd 0.39667 0.12682 0.89226 0.0
Cd100 Cd 0.44535 0.20017 0.90238 0.0
O101 O 0.45165 0.17418 0.95305 0.0
O102 O 0.39747 0.06162 0.87589 0.0
O103 O 0.45556 0.10596 0.87241 0.0
C104 C 0.43944 0.06641 0.86875 0.0
C105 C 0.49491 0.22321 0.85742 0.0
C106 C 0.42219 0.14855 0.96646 0.0
C107 C 0.35453 0.21245 0.87623 0.0
O108 O 0.38538 0.22901 0.89445 0.0
O109 O 0.35434 0.17073 0.86793 0.0
O110 O 0.48912 0.24691 0.8867 0.0
O111 O 0.47747 0.18408 0.8561 0.0
O112 O 0.61358 0.88073 0.95892 0.0
Cd113 Cd 0.61763 0.87842 0.90421 0.0
Cd114 Cd 0.69294 0.92634 0.91608 0.0
O115 O 0.66332 0.9337 0.96719 0.0
O116 O 0.55612 0.88359 0.88491 0.0
O117 O 0.60644 0.93675 0.88332 0.0
C118 C 0.56663 0.92394 0.87734 0.0
C119 C 0.72546 0.97841 0.8785 0.0
C120 C 0.63338 0.90795 0.97964 0.0
C121 C 0.70307 0.83182 0.88582 0.0
O122 O 0.71973 0.86482 0.90267 0.0
O123 O 0.66172 0.8314 0.87985 0.0
O124 O 0.74482 0.96713 0.9067 0.0
O125 O 0.6855 0.96464 0.8745 0.0
O126 O 0.64345 0.63544 0.45894 0.0
Cd127 Cd 0.64035 0.6363 0.40487 0.0
Cd128 Cd 0.59074 0.70974 0.42082 0.0
O129 O 0.5844 0.67836 0.4701 0.0
O130 O 0.6369 0.57275 0.38335 0.0
O131 O 0.58002 0.61899 0.39015 0.0
C132 C 0.59482 0.57984 0.38082 0.0
C133 C 0.54272 0.73353 0.37737 0.0
C134 C 0.61421 0.65208 0.48091 0.0
C135 C 0.68129 0.72511 0.39164 0.0
O136 O 0.65037 0.73977 0.4128 0.0
O137 O 0.68112 0.68427 0.3803 0.0
O138 O 0.54525 0.75579 0.40736 0.0
O139 O 0.56307 0.69575 0.37422 0.0
O140 O 0.91066 0.64084 0.94701 0.0
Cd141 Cd 0.90729 0.63559 0.89288 0.0
Cd142 Cd 0.83352 0.59267 0.91212 0.0
O143 O 0.86422 0.58722 0.96122 0.0
O144 O 0.97093 0.63788 0.87391 0.0
O145 O 0.93008 0.57707 0.8722 0.0
C146 C 0.96833 0.59532 0.86745 0.0
C147 C 0.80864 0.54524 0.86636 0.0
C148 C 0.89378 0.61564 0.97009 0.0
C149 C 0.82149 0.68124 0.88273 0.0
O150 O 0.80655 0.65364 0.90469 0.0
O151 O 0.86152 0.67802 0.87043 0.0
O152 O 0.78614 0.54974 0.89623 0.0
O153 O 0.84795 0.56199 0.86502 0.0
O154 O 0.88139 0.92623 0.46166 0.0
Cd155 Cd 0.87612 0.92908 0.40761 0.0
Cd156 Cd 0.92562 0.8533 0.4083 0.0
O157 O 0.93526 0.87611 0.46058 0.0
O158 O 0.87755 0.99383 0.39469 0.0
O159 O 0.93207 0.94574 0.38191 0.0
C160 C 0.9175 0.98621 0.3821 0.0
C161 C 0.97745 0.8263 0.36466 0.0
C162 C 0.9099 0.90429 0.47784 0.0
C163 C 0.83042 0.84508 0.38651 0.0
O164 O 0.86459 0.8266 0.39805 0.0
O165 O 0.82844 0.88745 0.38492 0.0
O166 O 0.96724 0.80335 0.39192 0.0
O167 O 0.9623 0.86651 0.36463 0.0
O168 O 0.62663 0.65117 0.65385 0.0
Cd169 Cd 0.62896 0.64786 0.70781 0.0
Cd170 Cd 0.70263 0.59919 0.68966 0.0
O171 O 0.67067 0.59336 0.64053 0.0
O172 O 0.5657 0.64661 0.72901 0.0
O173 O 0.61013 0.58807 0.72355 0.0
C174 C 0.57138 0.60418 0.73194 0.0
C175 C 0.72589 0.55103 0.73304 0.0
C176 C 0.64309 0.6228 0.63099 0.0
C177 C 0.71725 0.68969 0.72057 0.0
O178 O 0.73191 0.65921 0.69882 0.0
O179 O 0.67668 0.68943 0.73188 0.0
O180 O 0.74843 0.55361 0.70331 0.0
O181 O 0.68821 0.57134 0.73582 0.0
O182 O 0.93247 0.67069 0.13928 0.0
Cd183 Cd 0.8893 0.6326 0.17467 0.0
Cd184 Cd 0.93107 0.71316 0.18925 0.0
O185 O 0.93337 0.67225 0.1395 0.0
O186 O 0.89961 0.566 0.1749 0.0
O187 O 0.92781 0.61432 0.21343 0.0
C188 C 0.92548 0.57376 0.20096 0.0
C189 C 0.98153 0.73738 0.23002 0.0
C190 C 0.94972 0.67796 0.10865 0.0
C191 C 0.83262 0.70857 0.20648 0.0
O192 O 0.86783 0.73174 0.20527 0.0
O193 O 0.83315 0.66743 0.19584 0.0
O194 O 0.97401 0.76053 0.20267 0.0
O195 O 0.96497 0.69767 0.23098 0.0
O196 O 0.91877 0.88787 0.64992 0.0
Cd197 Cd 0.92125 0.88472 0.70408 0.0
Cd198 Cd 0.84729 0.93386 0.70092 0.0
O199 O 0.87196 0.94447 0.64937 0.0
O200 O 0.98598 0.8844 0.71649 0.0
O201 O 0.94047 0.94145 0.72807 0.0
C202 C 0.98018 0.9254 0.72781 0.0
C203 C 0.82148 0.98302 0.7471 0.0
C204 C 0.89914 0.91727 0.63293 0.0
C205 C 0.83675 0.83932 0.72236 0.0
O206 O 0.81959 0.87259 0.70828 0.0
O207 O 0.87836 0.83857 0.7275 0.0
O208 O 0.79895 0.9764 0.71895 0.0
O209 O 0.86093 0.96631 0.74668 0.0
O210 O 0.63412 0.90288 0.15222 0.0
Cd211 Cd 0.63124 0.90492 0.20628 0.0
Cd212 Cd 0.58223 0.83303 0.19425 0.0
O213 O 0.57364 0.86288 0.14519 0.0
O214 O 0.63107 0.97011 0.22371 0.0
O215 O 0.57227 0.92665 0.22507 0.0
C216 C 0.58879 0.96583 0.22973 0.0
C217 C 0.53704 0.81159 0.24278 0.0
C218 C 0.60427 0.88764 0.13229 0.0
C219 C 0.6738 0.81768 0.21599 0.0
O220 O 0.64272 0.80352 0.19687 0.0
O221 O 0.67278 0.85797 0.22861 0.0
O222 O 0.53823 0.78796 0.21322 0.0
O223 O 0.55714 0.84935 0.24299 0.0
C224 C 0.3847 0.11303 1.01872 0.0
C225 C 0.41863 0.14081 1.00538 0.0
C226 C 0.37764 0.10738 0.05522 0.0
C227 C 0.40413 0.12922 0.08033 0.0
H228 H 0.36249 0.096 1.00086 0.0
H229 H 0.35033 0.0866 0.06379 0.0
S230 S 0.50009 0.20266 0.05959 0.0
N231 N 0.48081 0.18822 1.02045 0.0
N232 N 0.46795 0.17762 0.0889 0.0
C233 C 0.43937 0.15577 0.06736 0.0
C234 C 0.4465 0.16154 1.03006 0.0
C235 C 0.42689 0.38742 0.52704 0.0
C236 C 0.39852 0.42191 0.51699 0.0
C237 C 0.43514 0.38053 0.56276 0.0
C238 C 0.41536 0.40772 0.59027 0.0
H239 H 0.44221 0.36455 0.50717 0.0
H240 H 0.45601 0.35264 0.56884 0.0
S241 S 0.34243 0.50592 0.57855 0.0
N242 N 0.35349 0.48579 0.53778 0.0
N243 N 0.36898 0.47321 0.60473 0.0
C244 C 0.38855 0.44368 0.5806 0.0
C245 C 0.38016 0.45067 0.54413 0.0
C246 C 0.10908 0.3933 1.03982 0.0
C247 C 0.13583 0.41616 1.01537 0.0
C248 C 0.11379 0.3997 0.07648 0.0
C249 C 0.1455 0.42931 0.09067 0.0
H250 H 0.08489 0.3693 1.03065 0.0
H251 H 0.09274 0.38036 0.09383 0.0
S252 S 0.22181 0.50014 1.03842 0.0
N253 N 0.19374 0.47196 1.00827 0.0
N254 N 0.20248 0.48363 0.07715 0.0
C255 C 0.17134 0.45378 0.06667 0.0
C256 C 0.16657 0.44728 1.02914 0.0
C257 C 0.1556 0.10628 0.56965 0.0
C258 C 0.12281 0.13242 0.58863 0.0
C259 C 0.15794 0.10312 0.53239 0.0
C260 C 0.12765 0.12602 0.51232 0.0
H261 H 0.18066 0.08892 0.58361 0.0
H262 H 0.1847 0.08379 0.51928 0.0
S263 S 0.03215 0.19479 0.54875 0.0
N264 N 0.05708 0.17864 0.58416 0.0
N265 N 0.06123 0.17269 0.51441 0.0
C266 C 0.09338 0.15057 0.53092 0.0
C267 C 0.09102 0.15378 0.5689 0.0
C268 C 0.584 0.8719 0.0687 0.0
C269 C 0.60798 0.89699 0.0937 0.0
C270 C 0.5914 0.8768 1.03205 0.0
C271 C 0.62308 0.90704 1.0187 0.0
H272 H 0.56038 0.84718 0.0774 0.0
H273 H 0.57283 0.85568 1.01405 0.0
S274 S 0.6916 0.9841 0.07305 0.0
N275 N 0.6624 0.95601 0.10233 0.0
N276 N 0.67631 0.96469 1.03388 0.0
C277 C 0.64583 0.93375 1.04347 0.0
C278 C 0.6383 0.92885 0.08075 0.0
C279 C 0.6577 0.60501 0.56559 0.0
C280 C 0.6318 0.62674 0.59292 0.0
C281 C 0.65071 0.61246 0.5297 0.0
C282 C 0.61738 0.64193 0.51929 0.0
H283 H 0.68463 0.58311 0.57189 0.0
H284 H 0.67255 0.59556 0.50996 0.0
S285 S 0.5372 0.70385 0.58034 0.0
N286 N 0.56887 0.67659 0.60682 0.0
N287 N 0.55616 0.69053 0.53966 0.0
C288 C 0.58993 0.66238 0.54629 0.0
C289 C 0.59704 0.65483 0.5829 0.0
C290 C 0.9508 0.6419 1.01212 0.0
C291 C 0.90911 0.622 1.00714 0.0
C292 C 0.964 0.65687 1.04569 0.0
C293 C 0.93652 0.65242 0.0761 0.0
H294 H 0.97296 0.64782 0.98955 0.0
H295 H 0.99545 0.674 1.04758 0.0
S296 S 0.82552 0.59907 0.07863 0.0
N297 N 0.84144 0.59571 1.03622 0.0
N298 N 0.86641 0.62374 0.09964 0.0
C299 C 0.89576 0.63003 0.07216 0.0
C300 C 0.88213 0.61476 1.03762 0.0
C301 C 0.87961 0.93815 0.53595 0.0
C302 C 0.91111 0.91018 0.51729 0.0
C303 C 0.87702 0.94158 0.57318 0.0
C304 C 0.90581 0.91719 0.59353 0.0
H305 H 0.85575 0.95685 0.52178 0.0
H306 H 0.85128 0.96252 0.58603 0.0
S307 S 0.99753 0.84278 0.55791 0.0
N308 N 0.97398 0.86022 0.52229 0.0
N309 N 0.96941 0.8667 0.59201 0.0
C310 C 0.93881 0.8906 0.57524 0.0
C311 C 0.9414 0.8871 0.53728 0.0
C312 C 0.28352 0.32143 0.22363 0.0
C313 C 0.23685 0.31721 0.22544 0.0
C314 C 0.31161 0.28394 0.22265 0.0
C315 C 0.29407 0.24073 0.22308 0.0
H316 H 0.2986 0.35392 0.22121 0.0
H317 H 0.34705 0.28876 0.21904 0.0
S318 S 0.1749 0.2115 0.2341 0.0
N319 N 0.17489 0.26641 0.23254 0.0
N320 N 0.22752 0.19596 0.23046 0.0
C321 C 0.24772 0.23618 0.22795 0.0
C322 C 0.21914 0.2744 0.22927 0.0
C323 C 0.27182 0.30664 0.72846 0.0
C324 C 0.31571 0.29087 0.72559 0.0
C325 C 0.23599 0.27687 0.72791 0.0
C326 C 0.24261 0.23018 0.72485 0.0
H327 H 0.26501 0.34212 0.72872 0.0
H328 H 0.20277 0.29077 0.72831 0.0
S329 S 0.35149 0.17213 0.7233 0.0
N330 N 0.36404 0.22567 0.72451 0.0
N331 N 0.29678 0.1699 0.72369 0.0
C332 C 0.28637 0.21405 0.72522 0.0
C333 C 0.32286 0.24436 0.72548 0.0
C334 C 0.30221 0.27461 0.37635 0.0
C335 C 0.28636 0.31867 0.37912 0.0
C336 C 0.27271 0.23851 0.37586 0.0
C337 C 0.22622 0.24503 0.37775 0.0
H338 H 0.33747 0.26788 0.37698 0.0
H339 H 0.28657 0.20514 0.37562 0.0
S340 S 0.16831 0.35435 0.37858 0.0
N341 N 0.22149 0.36711 0.37886 0.0
N342 N 0.16621 0.29933 0.37772 0.0
C343 C 0.21013 0.28899 0.37726 0.0
C344 C 0.24016 0.32575 0.37806 0.0
C345 C 0.27332 0.22598 0.87085 0.0
C346 C 0.31692 0.24196 0.86853 0.0
C347 C 0.2371 0.25557 0.87284 0.0
C348 C 0.24306 0.30221 0.87222 0.0
H349 H 0.26718 0.19076 0.87378 0.0
H350 H 0.2042 0.2418 0.87673 0.0
S351 S 0.35053 0.35988 0.85897 0.0
N352 N 0.36403 0.30661 0.86029 0.0
N353 N 0.29589 0.36214 0.86376 0.0
C354 C 0.28631 0.31816 0.86629 0.0
C355 C 0.32324 0.28804 0.86459 0.0
C356 C 0.77899 0.79876 0.87527 0.0
C357 C 0.73249 0.7929 0.87623 0.0
C358 C 0.80828 0.76222 0.87405 0.0
C359 C 0.79209 0.7185 0.87415 0.0
H360 H 0.79294 0.83195 0.87734 0.0
H361 H 0.84351 0.76837 0.87573 0.0
S362 S 0.67422 0.68444 0.86949 0.0
N363 N 0.6723 0.73951 0.87183 0.0
N364 N 0.7273 0.67089 0.86994 0.0
C365 C 0.74604 0.71201 0.87183 0.0
C366 C 0.71622 0.7492 0.87268 0.0
C367 C 0.71283 0.80223 0.39156 0.0
C368 C 0.71815 0.7562 0.38268 0.0
C369 C 0.74865 0.83185 0.38978 0.0
C370 C 0.79138 0.81662 0.3793 0.0
H371 H 0.68106 0.81537 0.4016 0.0
H372 H 0.74335 0.86621 0.39904 0.0
S373 S 0.82177 0.70179 0.34624 0.0
N374 N 0.76851 0.69857 0.35772 0.0
N375 N 0.83592 0.75418 0.35468 0.0
C376 C 0.7965 0.77166 0.36733 0.0
C377 C 0.75988 0.74149 0.36886 0.0
C378 C 0.76107 0.80715 0.73282 0.0
C379 C 0.80754 0.80071 0.72994 0.0
C380 C 0.73166 0.77097 0.73291 0.0
C381 C 0.74759 0.72694 0.72969 0.0
H382 H 0.74714 0.8405 0.73336 0.0
H383 H 0.69633 0.77763 0.73299 0.0
S384 S 0.86588 0.69158 0.72757 0.0
N385 N 0.86779 0.74661 0.72855 0.0
N386 N 0.81269 0.67866 0.72844 0.0
C387 C 0.79388 0.71997 0.72979 0.0
C388 C 0.82382 0.75682 0.73005 0.0
C389 C 0.75104 0.71788 0.20039 0.0
C390 C 0.79018 0.7321 0.21612 0.0
C391 C 0.713 0.74492 0.20233 0.0
C392 C 0.71239 0.7874 0.2201 0.0
H393 H 0.7505 0.68693 0.18453 0.0
H394 H 0.6845 0.73307 0.18818 0.0
S395 S 0.80344 0.83528 0.27271 0.0
N396 N 0.82402 0.78788 0.25512 0.0
N397 N 0.75242 0.8388 0.25867 0.0
C398 C 0.75007 0.80014 0.23873 0.0
C399 C 0.78894 0.7725 0.23674 0.0
C400 C 0.20713 0.05012 0.29067 0.0
C401 C 0.23033 0.04588 0.32208 0.0
C402 C 0.22942 0.04893 0.25725 0.0
C403 C 0.27579 0.04348 0.25393 0.0
H404 H 0.17207 0.05826 0.29197 0.0
H405 H 0.21064 0.05654 0.23439 0.0
S406 S 0.35004 1.01892 0.3268 0.0
N407 N 0.30085 0.02698 0.34679 0.0
N408 N 0.34257 0.02479 0.2842 0.0
C409 C 0.29832 0.0334 0.28459 0.0
C410 C 0.27564 0.03456 0.31861 0.0
C411 C 0.51263 0.31175 0.79038 0.0
C412 C 0.51004 0.28716 0.75784 0.0
C413 C 0.51316 0.29051 0.82278 0.0
C414 C 0.51102 0.24375 0.82402 0.0
H415 H 0.51044 0.34783 0.79119 0.0
H416 H 0.5111 0.31116 0.84705 0.0
S417 S 0.51552 0.16374 0.74608 0.0
N418 N 0.51406 0.21324 0.72872 0.0
N419 N 0.51524 0.17341 0.78945 0.0
C420 C 0.51432 0.21874 0.79152 0.0
C421 C 0.51381 0.2404 0.75847 0.0
C422 C 0.28413 0.51696 0.28165 0.0
C423 C 0.23802 0.51134 0.279 0.0
C424 C 0.30421 0.51688 0.3146 0.0
C425 C 0.27908 0.51138 0.34637 0.0
H426 H 0.30545 0.51765 0.25794 0.0
H427 H 0.34011 0.51765 0.31479 0.0
S428 S 0.15619 0.50579 0.35479 0.0
N429 N 0.16706 0.50814 0.31174 0.0
N430 N 0.20476 0.50787 0.37346 0.0
C431 C 0.23253 0.51119 0.3445 0.0
C432 C 0.21204 0.51116 0.31088 0.0
C433 C 0.03829 0.2846 0.78027 0.0
C434 C 0.04346 0.23793 0.77778 0.0
C435 C 0.03834 0.30818 0.81319 0.0
C436 C 0.04364 0.28606 0.84493 0.0
H437 H 0.03834 0.30357 0.75653 0.0
H438 H 0.03832 0.34429 0.81328 0.0
S439 S 0.04534 0.16332 0.85363 0.0
N440 N 0.04402 0.16986 0.81052 0.0
N441 N 0.04445 0.21415 0.87226 0.0
C442 C 0.04242 0.23912 0.8432 0.0
C443 C 0.04229 0.21506 0.80963 0.0
C444 C 0.72904 1.00279 0.81602 0.0
C445 C 0.75082 0.99684 0.84784 0.0
C446 C 0.75279 1.00394 0.78337 0.0
C447 C 0.79928 0.99922 0.78123 0.0
H448 H 0.69314 1.00248 0.81577 0.0
H449 H 0.73412 1.0043 0.75947 0.0
S450 S 0.87281 0.99631 0.85771 0.0
N451 N 0.8221 0.99618 0.87583 0.0
N452 N 0.86668 0.99862 0.81459 0.0
C453 C 0.82173 0.99987 0.81329 0.0
C454 C 0.7975 0.99863 0.84659 0.0
C455 C 0.52362 0.72683 0.31339 0.0
C456 C 0.52548 0.75348 0.34503 0.0
C457 C 0.52201 0.74592 0.28013 0.0
C458 C 0.5224 0.79248 0.2771 0.0
H459 H 0.52702 0.69092 0.31399 0.0
H460 H 0.52462 0.72396 0.25659 0.0
S461 S 0.51582 0.87694 0.352 0.0
N462 N 0.51917 0.82879 0.37133 0.0
N463 N 0.51615 0.86456 0.30897 0.0
C464 C 0.51868 0.81932 0.30868 0.0
C465 C 0.52016 0.79986 0.34261 0.0
C466 C 0.81255 0.5303 0.80036 0.0
C467 C 0.78722 0.53118 0.83262 0.0
C468 C 0.79231 0.53168 0.76748 0.0
C469 C 0.74588 0.53416 0.76547 0.0
H470 H 0.8484 0.53211 0.80053 0.0
H471 H 0.8134 0.53478 0.74384 0.0
S472 S 0.66423 0.52743 0.84124 0.0
N473 N 0.71293 0.5271 0.85972 0.0
N474 N 0.67509 0.52964 0.79818 0.0
C475 C 0.72018 0.52988 0.79713 0.0
C476 C 0.74078 0.52835 0.83061 0.0
C477 C 0.99681 0.75726 0.32779 0.0
C478 C 0.99622 0.80416 0.33132 0.0
C479 C 0.99798 0.73514 0.29425 0.0
C480 C 0.99859 0.75909 0.26296 0.0
H481 H 0.99194 0.73742 0.35089 0.0
H482 H 0.99406 0.69924 0.29306 0.0
S483 S 1.01147 0.88171 0.25797 0.0
N484 N 1.00687 0.87327 0.30084 0.0
N485 N 1.00908 0.83184 0.23788 0.0
C486 C 1.00483 0.80557 0.26621 0.0
C487 C 1.00359 0.8281 0.30041 0.0
C488 C 0.53989 0.08215 0.22387 0.0
C489 C 0.49449 0.07511 0.23188 0.0
C490 C 0.57135 0.04763 0.2261 0.0
C491 C 0.55853 1.00488 0.23652 0.0
H492 H 0.55083 0.11354 0.21353 0.0
H493 H 0.6053 0.05366 0.21725 0.0
S494 S 0.44532 0.9718 0.26686 0.0
N495 N 0.43963 0.02389 0.25538 0.0
N496 N 0.4984 0.95965 0.25989 0.0
C497 C 0.51398 0.99881 0.24769 0.0
C498 C 0.48207 0.03371 0.24526 0.0
C499 C 0.54446 0.5286 0.74731 0.0
C500 C 0.53432 0.57312 0.74028 0.0
C501 C 0.51187 0.49545 0.74708 0.0
C502 C 0.46752 0.50519 0.73983 0.0
H503 H 0.57844 0.51861 0.75116 0.0
H504 H 0.52218 0.46139 0.75075 0.0
S505 S 0.42208 0.61771 0.72499 0.0
N506 N 0.4756 0.62616 0.72993 0.0
N507 N 0.41421 0.56379 0.72954 0.0
C508 C 0.45608 0.55022 0.73581 0.0
C509 C 0.48948 0.58417 0.73603 0.0
C510 C 0.98588 0.46251 0.20485 0.0
C511 C 0.02346 0.47378 0.22427 0.0
C512 C 0.95279 0.49431 0.19922 0.0
C513 C 0.95565 0.53849 0.21316 0.0
H514 H 0.98346 0.42982 0.19176 0.0
H515 H 0.92594 0.48468 0.18233 0.0
S516 S 0.04385 0.58272 0.27095 0.0
N517 N 0.059 0.53063 0.26093 0.0
N518 N 0.99677 0.59003 0.25106 0.0
C519 C 0.99121 0.549 0.2352 0.0
C520 C 0.0251 0.51677 0.24054 0.0
C521 C 0.06073 0.94535 0.71992 0.0
C522 C 0.01827 0.95544 0.73512 0.0
C523 C 0.0943 0.97781 0.71881 0.0
C524 C 0.08661 1.02154 0.73287 0.0
H525 H 0.06721 0.91319 0.70653 0.0
H526 H 0.12532 0.96939 0.70464 0.0
S527 S 0.98441 0.06204 0.78232 0.0
N528 N 0.97292 1.01021 0.76949 0.0
N529 N 0.03566 0.07089 0.76742 0.0
C530 C 0.04575 0.03065 0.7511 0.0
C531 C 1.01169 0.9977 0.75223 0.0
C532 C 0.57314 0.49878 0.37749 0.0
C533 C 0.56298 0.54367 0.3717 0.0
C534 C 0.54003 0.46574 0.37688 0.0
C535 C 0.49559 0.47642 0.37044 0.0
H536 H 0.60616 0.48956 0.38488 0.0
H537 H 0.54881 0.43229 0.38381 0.0
S538 S 0.4536 0.5874 0.34691 0.0
N539 N 0.50657 0.59564 0.35428 0.0
N540 N 0.4448 0.53401 0.35312 0.0
C541 C 0.48599 0.52042 0.36155 0.0
C542 C 0.51953 0.55389 0.36219 0.0
C543 C 0.03803 0.49039 0.85475 0.0
C544 C 0.08053 0.50464 0.86429 0.0
C545 C 1.00282 0.52065 0.85279 0.0
C546 C 1.0084 0.5666 0.86034 0.0
H547 H 0.03112 0.45518 0.85059 0.0
H548 H 0.97031 0.50741 0.84732 0.0
S549 S 0.1147 0.62213 0.88103 0.0
N550 N 0.12753 0.56855 0.87703 0.0
N551 N 0.06128 0.62552 0.87341 0.0
C552 C 0.05161 0.58185 0.86678 0.0
C553 C 0.08767 0.55086 0.86875 0.0
C554 C 0.9397 0.06686 0.38686 0.0
C555 C 0.94814 0.02316 0.37295 0.0
C556 C 0.97278 0.0998 0.38594 0.0
C557 C 0.0155 0.09027 0.37107 0.0
H558 H 0.90842 0.07492 0.40076 0.0
H559 H 0.96572 0.13191 0.39923 0.0
S560 S 0.05144 0.98396 0.32443 0.0
N561 N 1.00016 0.97441 0.33893 0.0
N562 N 0.06199 0.03602 0.33718 0.0
C563 C 0.02287 0.04804 0.35408 0.0
C564 C 0.98929 1.01458 0.35504 0.0
C565 C 0.48763 0.94999 0.87447 0.0
C566 C 0.53307 0.95668 0.86657 0.0
C567 C 0.45654 0.98474 0.87223 0.0
C568 C 0.46976 0.02743 0.86198 0.0
H569 H 0.47634 0.9187 0.88477 0.0
H570 H 0.42251 0.97889 0.88096 0.0
S571 S 0.58331 0.05936 0.83139 0.0
N572 N 0.5885 1.00721 0.84286 0.0
N573 N 0.53036 0.07217 0.83859 0.0
C574 C 0.51439 0.03317 0.85081 0.0
C575 C 0.54596 0.99791 0.85314 0.0
loop_
_geom_bond_atom_site_label_1
_geom_bond_atom_site_label_2
_geom_bond_distance
_geom_bond_site_symmetry_2
_ccdc_geom_bond_type
O0 Cd1 2.223 . S
O0 C8 1.315 . S
Cd1 O0 2.223 . S
Cd1 O4 2.297 . S
Cd1 O5 2.439 . S
Cd1 O11 2.240 . S
Cd2 O3 2.240 . S
Cd2 O10 2.223 . S
Cd2 O12 2.297 . S
Cd2 O13 2.439 . S
O3 Cd2 2.240 . S
O3 C8 1.279 . S
O4 Cd1 2.297 . S
O4 C6 1.247 . S
O5 Cd1 2.439 . S
O5 C6 1.208 . S
C6 O4 1.247 . S
C6 O5 1.208 . S
C7 O12 1.247 . S
C7 O13 1.208 . S
C8 O0 1.315 . S
C8 O3 1.279 . S
C9 O10 1.315 . S
C9 O11 1.279 . S
O10 Cd2 2.223 . S
O10 C9 1.315 . S
O11 Cd1 2.240 . S
O11 C9 1.279 . S
O12 Cd2 2.297 . S
O12 C7 1.247 . S
O13 Cd2 2.439 . S
O13 C7 1.208 . S
O14 Cd15 2.223 . S
O14 C22 1.315 . S
Cd15 O14 2.223 . S
Cd15 O18 2.297 . S
Cd15 O19 2.439 . S
Cd15 O25 2.240 . S
Cd16 O17 2.240 . S
Cd16 O24 2.223 . S
Cd16 O26 2.297 . S
Cd16 O27 2.439 . S
O17 Cd16 2.240 . S
O17 C22 1.279 . S
O18 Cd15 2.297 . S
O18 C20 1.247 . S
O19 Cd15 2.439 . S
O19 C20 1.208 . S
C20 O18 1.247 . S
C20 O19 1.208 . S
C21 O26 1.247 . S
C21 O27 1.208 . S
C22 O14 1.315 . S
C22 O17 1.279 . S
C23 O24 1.315 . S
C23 O25 1.279 . S
O24 Cd16 2.223 . S
O24 C23 1.315 . S
O25 Cd15 2.240 . S
O25 C23 1.279 . S
O26 Cd16 2.297 . S
O26 C21 1.247 . S
O27 Cd16 2.439 . S
O27 C21 1.208 . S
O28 Cd29 2.223 . S
O28 C36 1.315 . S
Cd29 O28 2.223 . S
Cd29 O32 2.297 . S
Cd29 O33 2.439 . S
Cd29 O39 2.240 . S
Cd30 O31 2.240 . S
Cd30 O38 2.223 . S
Cd30 O40 2.297 . S
Cd30 O41 2.439 . S
O31 Cd30 2.240 . S
O31 C36 1.279 . S
O32 Cd29 2.297 . S
O32 C34 1.247 . S
O33 Cd29 2.439 . S
O33 C34 1.208 . S
C34 O32 1.247 . S
C34 O33 1.208 . S
C35 O40 1.247 . S
C35 O41 1.208 . S
C36 O28 1.315 . S
C36 O31 1.279 . S
C37 O38 1.315 . S
C37 O39 1.279 . S
O38 Cd30 2.223 . S
O38 C37 1.315 . S
O39 Cd29 2.240 . S
O39 C37 1.279 . S
O40 Cd30 2.297 . S
O40 C35 1.247 . S
O41 Cd30 2.439 . S
O41 C35 1.208 . S
O42 Cd43 2.223 . S
O42 C50 1.315 . S
Cd43 O42 2.223 . S
Cd43 O46 2.297 . S
Cd43 O47 2.439 . S
Cd43 O53 2.240 . S
Cd44 O45 2.240 . S
Cd44 O52 2.223 . S
Cd44 O54 2.297 . S
Cd44 O55 2.439 . S
O45 Cd44 2.240 . S
O45 C50 1.279 . S
O46 Cd43 2.297 . S
O46 C48 1.247 . S
O47 Cd43 2.439 . S
O47 C48 1.208 . S
C48 O46 1.247 . S
C48 O47 1.208 . S
C49 O54 1.247 . S
C49 O55 1.208 . S
C50 O42 1.315 . S
C50 O45 1.279 . S
C51 O52 1.315 . S
C51 O53 1.279 . S
O52 Cd44 2.223 . S
O52 C51 1.315 . S
O53 Cd43 2.240 . S
O53 C51 1.279 . S
O54 Cd44 2.297 . S
O54 C49 1.247 . S
O55 Cd44 2.439 . S
O55 C49 1.208 . S
O56 Cd57 2.223 . S
O56 C64 1.315 . S
Cd57 O56 2.223 . S
Cd57 O60 2.297 . S
Cd57 O61 2.439 . S
Cd57 O67 2.240 . S
Cd58 O59 2.240 . S
Cd58 O66 2.223 . S
Cd58 O68 2.297 . S
Cd58 O69 2.439 . S
O59 Cd58 2.240 . S
O59 C64 1.279 . S
O60 Cd57 2.297 . S
O60 C62 1.247 . S
O61 Cd57 2.439 . S
O61 C62 1.208 . S
C62 O60 1.247 . S
C62 O61 1.208 . S
C63 O68 1.247 . S
C63 O69 1.208 . S
C64 O56 1.315 . S
C64 O59 1.279 . S
C65 O66 1.315 . S
C65 O67 1.279 . S
O66 Cd58 2.223 . S
O66 C65 1.315 . S
O67 Cd57 2.240 . S
O67 C65 1.279 . S
O68 Cd58 2.297 . S
O68 C63 1.247 . S
O69 Cd58 2.439 . S
O69 C63 1.208 . S
O70 Cd71 2.223 . S
O70 C78 1.315 . S
Cd71 O70 2.223 . S
Cd71 O74 2.297 . S
Cd71 O75 2.439 . S
Cd71 O81 2.240 . S
Cd72 O73 2.240 . S
Cd72 O80 2.223 . S
Cd72 O82 2.297 . S
Cd72 O83 2.439 . S
O73 Cd72 2.240 . S
O73 C78 1.279 . S
O74 Cd71 2.297 . S
O74 C76 1.247 . S
O75 Cd71 2.439 . S
O75 C76 1.208 . S
C76 O74 1.247 . S
C76 O75 1.208 . S
C77 O82 1.247 . S
C77 O83 1.208 . S
C78 O70 1.315 . S
C78 O73 1.279 . S
C79 O80 1.315 . S
C79 O81 1.279 . S
O80 Cd72 2.223 . S
O80 C79 1.315 . S
O81 Cd71 2.240 . S
O81 C79 1.279 . S
O82 Cd72 2.297 . S
O82 C77 1.247 . S
O83 Cd72 2.439 . S
O83 C77 1.208 . S
O84 Cd85 2.223 . S
O84 C92 1.315 . S
Cd85 O84 2.223 . S
Cd85 O88 2.297 . S
Cd85 O89 2.439 . S
Cd85 O95 2.240 . S
Cd86 O87 2.240 . S
Cd86 O94 2.223 . S
Cd86 O96 2.297 . S
Cd86 O97 2.439 . S
O87 Cd86 2.240 . S
O87 C92 1.279 . S
O88 Cd85 2.297 . S
O88 C90 1.247 . S
O89 Cd85 2.439 . S
O89 C90 1.208 . S
C90 O88 1.247 . S
C90 O89 1.208 . S
C91 O96 1.247 . S
C91 O97 1.208 . S
C92 O84 1.315 . S
C92 O87 1.279 . S
C93 O94 1.315 . S
C93 O95 1.279 . S
O94 Cd86 2.223 . S
O94 C93 1.315 . S
O95 Cd85 2.240 . S
O95 C93 1.279 . S
O96 Cd86 2.297 . S
O96 C91 1.247 . S
O97 Cd86 2.439 . S
O97 C91 1.208 . S
O98 Cd99 2.223 . S
O98 C106 1.315 . S
Cd99 O98 2.223 . S
Cd99 O102 2.297 . S
Cd99 O103 2.439 . S
Cd99 O109 2.240 . S
Cd100 O101 2.240 . S
Cd100 O108 2.223 . S
Cd100 O110 2.297 . S
Cd100 O111 2.439 . S
O101 Cd100 2.240 . S
O101 C106 1.279 . S
O102 Cd99 2.297 . S
O102 C104 1.247 . S
O103 Cd99 2.439 . S
O103 C104 1.208 . S
C104 O102 1.247 . S
C104 O103 1.208 . S
C105 O110 1.247 . S
C105 O111 1.208 . S
C106 O98 1.315 . S
C106 O101 1.279 . S
C107 O108 1.315 . S
C107 O109 1.279 . S
O108 Cd100 2.223 . S
O108 C107 1.315 . S
O109 Cd99 2.240 . S
O109 C107 1.279 . S
O110 Cd100 2.297 . S
O110 C105 1.247 . S
O111 Cd100 2.439 . S
O111 C105 1.208 . S
O112 Cd113 2.223 . S
O112 C120 1.315 . S
Cd113 O112 2.223 . S
Cd113 O116 2.297 . S
Cd113 O117 2.439 . S
Cd113 O123 2.240 . S
Cd114 O115 2.240 . S
Cd114 O122 2.223 . S
Cd114 O124 2.297 . S
Cd114 O125 2.439 . S
O115 Cd114 2.240 . S
O115 C120 1.279 . S
O116 Cd113 2.297 . S
O116 C118 1.247 . S
O117 Cd113 2.439 . S
O117 C118 1.208 . S
C118 O116 1.247 . S
C118 O117 1.208 . S
C119 O124 1.247 . S
C119 O125 1.208 . S
C120 O112 1.315 . S
C120 O115 1.279 . S
C121 O122 1.315 . S
C121 O123 1.279 . S
O122 Cd114 2.223 . S
O122 C121 1.315 . S
O123 Cd113 2.240 . S
O123 C121 1.279 . S
O124 Cd114 2.297 . S
O124 C119 1.247 . S
O125 Cd114 2.439 . S
O125 C119 1.208 . S
O126 Cd127 2.223 . S
O126 C134 1.315 . S
Cd127 O126 2.223 . S
Cd127 O130 2.297 . S
Cd127 O131 2.439 . S
Cd127 O137 2.240 . S
Cd128 O129 2.240 . S
Cd128 O136 2.223 . S
Cd128 O138 2.297 . S
Cd128 O139 2.439 . S
O129 Cd128 2.240 . S
O129 C134 1.279 . S
O130 Cd127 2.297 . S
O130 C132 1.247 . S
O131 Cd127 2.439 . S
O131 C132 1.208 . S
C132 O130 1.247 . S
C132 O131 1.208 . S
C133 O138 1.247 . S
C133 O139 1.208 . S
C134 O126 1.315 . S
C134 O129 1.279 . S
C135 O136 1.315 . S
C135 O137 1.279 . S
O136 Cd128 2.223 . S
O136 C135 1.315 . S
O137 Cd127 2.240 . S
O137 C135 1.279 . S
O138 Cd128 2.297 . S
O138 C133 1.247 . S
O139 Cd128 2.439 . S
O139 C133 1.208 . S
O140 Cd141 2.223 . S
O140 C148 1.315 . S
Cd141 O140 2.223 . S
Cd141 O144 2.297 . S
Cd141 O145 2.439 . S
Cd141 O151 2.240 . S
Cd142 O143 2.240 . S
Cd142 O150 2.223 . S
Cd142 O152 2.297 . S
Cd142 O153 2.439 . S
O143 Cd142 2.240 . S
O143 C148 1.279 . S
O144 Cd141 2.297 . S
O144 C146 1.247 . S
O145 Cd141 2.439 . S
O145 C146 1.208 . S
C146 O144 1.247 . S
C146 O145 1.208 . S
C147 O152 1.247 . S
C147 O153 1.208 . S
C148 O140 1.315 . S
C148 O143 1.279 . S
C149 O150 1.315 . S
C149 O151 1.279 . S
O150 Cd142 2.223 . S
O150 C149 1.315 . S
O151 Cd141 2.240 . S
O151 C149 1.279 . S
O152 Cd142 2.297 . S
O152 C147 1.247 . S
O153 Cd142 2.439 . S
O153 C147 1.208 . S
O154 Cd155 2.223 . S
O154 C162 1.315 . S
Cd155 O154 2.223 . S
Cd155 O158 2.297 . S
Cd155 O159 2.439 . S
Cd155 O165 2.240 . S
Cd156 O157 2.240 . S
Cd156 O164 2.223 . S
Cd156 O166 2.297 . S
Cd156 O167 2.439 . S
O157 Cd156 2.240 . S
O157 C162 1.279 . S
O158 Cd155 2.297 . S
O158 C160 1.247 . S
O159 Cd155 2.439 . S
O159 C160 1.208 . S
C160 O158 1.247 . S
C160 O159 1.208 . S
C161 O166 1.247 . S
C161 O167 1.208 . S
C162 O154 1.315 . S
C162 O157 1.279 . S
C163 O164 1.315 . S
C163 O165 1.279 . S
O164 Cd156 2.223 . S
O164 C163 1.315 . S
O165 Cd155 2.240 . S
O165 C163 1.279 . S
O166 Cd156 2.297 . S
O166 C161 1.247 . S
O167 Cd156 2.439 . S
O167 C161 1.208 . S
O168 Cd169 2.223 . S
O168 C176 1.315 . S
Cd169 O168 2.223 . S
Cd169 O172 2.297 . S
Cd169 O173 2.439 . S
Cd169 O179 2.240 . S
Cd170 O171 2.240 . S
Cd170 O178 2.223 . S
Cd170 O180 2.297 . S
Cd170 O181 2.439 . S
O171 Cd170 2.240 . S
O171 C176 1.279 . S
O172 Cd169 2.297 . S
O172 C174 1.247 . S
O173 Cd169 2.439 . S
O173 C174 1.208 . S
C174 O172 1.247 . S
C174 O173 1.208 . S
C175 O180 1.247 . S
C175 O181 1.208 . S
C176 O168 1.315 . S
C176 O171 1.279 . S
C177 O178 1.315 . S
C177 O179 1.279 . S
O178 Cd170 2.223 . S
O178 C177 1.315 . S
O179 Cd169 2.240 . S
O179 C177 1.279 . S
O180 Cd170 2.297 . S
O180 C175 1.247 . S
O181 Cd170 2.439 . S
O181 C175 1.208 . S
O182 Cd183 2.223 . S
O182 C190 1.315 . S
Cd183 O182 2.223 . S
Cd183 O186 2.297 . S
Cd183 O187 2.439 . S
Cd183 O193 2.240 . S
Cd184 O185 2.240 . S
Cd184 O192 2.223 . S
Cd184 O194 2.297 . S
Cd184 O195 2.439 . S
O185 Cd184 2.240 . S
O185 C190 1.279 . S
O186 Cd183 2.297 . S
O186 C188 1.247 . S
O187 Cd183 2.439 . S
O187 C188 1.208 . S
C188 O186 1.247 . S
C188 O187 1.208 . S
C189 O194 1.247 . S
C189 O195 1.208 . S
C190 O182 1.315 . S
C190 O185 1.279 . S
C191 O192 1.315 . S
C191 O193 1.279 . S
O192 Cd184 2.223 . S
O192 C191 1.315 . S
O193 Cd183 2.240 . S
O193 C191 1.279 . S
O194 Cd184 2.297 . S
O194 C189 1.247 . S
O195 Cd184 2.439 . S
O195 C189 1.208 . S
O196 Cd197 2.223 . S
O196 C204 1.315 . S
Cd197 O196 2.223 . S
Cd197 O200 2.297 . S
Cd197 O201 2.439 . S
Cd197 O207 2.240 . S
Cd198 O199 2.240 . S
Cd198 O206 2.223 . S
Cd198 O208 2.297 . S
Cd198 O209 2.439 . S
O199 Cd198 2.240 . S
O199 C204 1.279 . S
O200 Cd197 2.297 . S
O200 C202 1.247 . S
O201 Cd197 2.439 . S
O201 C202 1.208 . S
C202 O200 1.247 . S
C202 O201 1.208 . S
C203 O208 1.247 . S
C203 O209 1.208 . S
C204 O196 1.315 . S
C204 O199 1.279 . S
C205 O206 1.315 . S
C205 O207 1.279 . S
O206 Cd198 2.223 . S
O206 C205 1.315 . S
O207 Cd197 2.240 . S
O207 C205 1.279 . S
O208 Cd198 2.297 . S
O208 C203 1.247 . S
O209 Cd198 2.439 . S
O209 C203 1.208 . S
O210 Cd211 2.223 . S
O210 C218 1.315 . S
Cd211 O210 2.223 . S
Cd211 O214 2.297 . S
Cd211 O215 2.439 . S
Cd211 O221 2.240 . S
Cd212 O213 2.240 . S
Cd212 O220 2.223 . S
Cd212 O222 2.297 . S
Cd212 O223 2.439 . S
O213 Cd212 2.240 . S
O213 C218 1.279 . S
O214 Cd211 2.297 . S
O214 C216 1.247 . S
O215 Cd211 2.439 . S
O215 C216 1.208 . S
C216 O214 1.247 . S
C216 O215 1.208 . S
C217 O222 1.247 . S
C217 O223 1.208 . S
C218 O210 1.315 . S
C218 O213 1.279 . S
C219 O220 1.315 . S
C219 O221 1.279 . S
O220 Cd212 2.223 . S
O220 C219 1.315 . S
O221 Cd211 2.240 . S
O221 C219 1.279 . S
O222 Cd212 2.297 . S
O222 C217 1.247 . S
O223 Cd212 2.439 . S
O223 C217 1.208 . S
C224 C225 1.369 . S
C224 C226 1.414 1_556 S
C224 H228 0.930 . S
C225 C224 1.369 . S
C225 C234 1.429 . S
C226 C224 1.414 1_554 S
C226 C227 1.368 . S
C226 H229 0.929 . S
C227 C226 1.368 . S
C227 C233 1.428 . S
H228 C224 0.930 . S
H229 C226 0.929 . S
S230 N231 1.613 1_554 S
S230 N232 1.610 . S
N231 S230 1.613 1_556 S
N231 C234 1.350 . S
N232 S230 1.610 . S
N232 C233 1.351 . S
C233 C227 1.428 . S
C233 N232 1.351 . S
C233 C234 1.434 1_554 S
C234 C225 1.429 . S
C234 N231 1.350 . S
C234 C233 1.434 1_556 S
C235 C236 1.369 . S
C235 C237 1.419 . S
C235 H239 0.930 . S
C236 C235 1.369 . S
C236 C245 1.429 . S
C237 C235 1.419 . S
C237 C238 1.363 . S
C237 H240 0.929 . S
C238 C237 1.363 . S
C238 C244 1.428 . S
H239 C235 0.930 . S
H240 C237 0.929 . S
S241 N242 1.613 . S
S241 N243 1.610 . S
N242 S241 1.613 . S
N242 C245 1.350 . S
N243 S241 1.610 . S
N243 C244 1.351 . S
C244 C238 1.428 . S
C244 N243 1.351 . S
C244 C245 1.434 . S
C245 C236 1.429 . S
C245 N242 1.350 . S
C245 C244 1.434 . S
C246 C247 1.369 1_554 S
C246 C248 1.419 . S
C246 H250 0.930 . S
C247 C246 1.369 1_556 S
C247 C256 1.429 . S
C248 C246 1.419 . S
C248 C249 1.363 . S
C248 H251 0.929 . S
C249 C248 1.363 . S
C249 C255 1.428 1_554 S
H250 C246 0.930 . S
H251 C248 0.929 . S
S252 N253 1.613 . S
S252 N254 1.610 . S
N253 S252 1.613 . S
N253 C256 1.350 . S
N254 S252 1.610 . S
N254 C255 1.351 . S
C255 C249 1.428 1_556 S
C255 N254 1.351 . S
C255 C256 1.434 . S
C256 C247 1.429 . S
C256 N253 1.350 . S
C256 C255 1.434 . S
C257 C258 1.369 . S
C257 C259 1.419 . S
C257 H261 0.930 . S
C258 C257 1.369 . S
C258 C267 1.429 . S
C259 C257 1.419 . S
C259 C260 1.363 . S
C259 H262 0.929 . S
C260 C259 1.363 . S
C260 C266 1.428 . S
H261 C257 0.930 . S
H262 C259 0.929 . S
S263 N264 1.613 . S
S263 N265 1.610 . S
N264 S263 1.613 . S
N264 C267 1.350 . S
N265 S263 1.610 . S
N265 C266 1.351 . S
C266 C260 1.428 . S
C266 N265 1.351 . S
C266 C267 1.434 . S
C267 C258 1.429 . S
C267 N264 1.350 . S
C267 C266 1.434 . S
C268 C269 1.369 . S
C268 C270 1.419 1_554 S
C268 H272 0.930 . S
C269 C268 1.369 . S
C269 C278 1.429 . S
C270 C268 1.419 1_556 S
C270 C271 1.363 . S
C270 H273 0.929 . S
C271 C270 1.363 . S
C271 C277 1.428 1_556 S
H272 C268 0.930 . S
H273 C270 0.929 . S
S274 N275 1.613 . S
S274 N276 1.610 . S
N275 S274 1.613 . S
N275 C278 1.350 . S
N276 S274 1.610 . S
N276 C277 1.351 . S
C277 C271 1.428 1_554 S
C277 N276 1.351 . S
C277 C278 1.434 . S
C278 C269 1.429 . S
C278 N275 1.350 . S
C278 C277 1.434 . S
C279 C280 1.369 . S
C279 C281 1.419 . S
C279 H283 0.930 . S
C280 C279 1.369 . S
C280 C289 1.429 . S
C281 C279 1.419 . S
C281 C282 1.363 . S
C281 H284 0.929 . S
C282 C281 1.363 . S
C282 C288 1.428 . S
H283 C279 0.930 . S
H284 C281 0.929 . S
S285 N286 1.613 . S
S285 N287 1.610 . S
N286 S285 1.613 . S
N286 C289 1.350 . S
N287 S285 1.610 . S
N287 C288 1.351 . S
C288 C282 1.428 . S
C288 N287 1.351 . S
C288 C289 1.434 . S
C289 C280 1.429 . S
C289 N286 1.350 . S
C289 C288 1.434 . S
C290 C291 1.369 . S
C290 C292 1.419 . S
C290 H294 0.930 . S
C291 C290 1.369 . S
C291 C300 1.429 1_556 S
C292 C290 1.419 . S
C292 C293 1.363 1_556 S
C292 H295 0.929 . S
C293 C292 1.363 1_554 S
C293 C299 1.428 . S
H294 C290 0.930 . S
H295 C292 0.929 . S
S296 N297 1.613 . S
S296 N298 1.610 . S
N297 S296 1.613 . S
N297 C300 1.350 . S
N298 S296 1.610 . S
N298 C299 1.351 . S
C299 C293 1.428 . S
C299 N298 1.351 . S
C299 C300 1.434 . S
C300 C291 1.429 1_554 S
C300 N297 1.350 . S
C300 C299 1.434 . S
C301 C302 1.369 . S
C301 C303 1.419 . S
C301 H305 0.930 . S
C302 C301 1.369 . S
C302 C311 1.429 . S
C303 C301 1.419 . S
C303 C304 1.363 . S
C303 H306 0.929 . S
C304 C303 1.363 . S
C304 C310 1.428 . S
H305 C301 0.930 . S
H306 C303 0.929 . S
S307 N308 1.613 . S
S307 N309 1.610 . S
N308 S307 1.613 . S
N308 C311 1.350 . S
N309 S307 1.610 . S
N309 C310 1.351 . S
C310 C304 1.428 . S
C310 N309 1.351 . S
C310 C311 1.434 . S
C311 C302 1.429 . S
C311 N308 1.350 . S
C311 C310 1.434 . S
C312 C313 1.369 . S
C312 C314 1.419 . S
C312 H316 0.930 . S
C313 C312 1.369 . S
C313 C322 1.429 . S
C314 C312 1.419 . S
C314 C315 1.363 . S
C314 H317 0.929 . S
C315 C314 1.363 . S
C315 C321 1.428 . S
H316 C312 0.930 . S
H317 C314 0.929 . S
S318 N319 1.613 . S
S318 N320 1.610 . S
N319 S318 1.613 . S
N319 C322 1.350 . S
N320 S318 1.610 . S
N320 C321 1.351 . S
C321 C315 1.428 . S
C321 N320 1.351 . S
C321 C322 1.434 . S
C322 C313 1.429 . S
C322 N319 1.350 . S
C322 C321 1.434 . S
C323 C324 1.369 . S
C323 C325 1.419 . S
C323 H327 0.930 . S
C324 C323 1.369 . S
C324 C333 1.429 . S
C325 C323 1.419 . S
C325 C326 1.363 . S
C325 H328 0.929 . S
C326 C325 1.363 . S
C326 C332 1.428 . S
H327 C323 0.930 . S
H328 C325 0.929 . S
S329 N330 1.613 . S
S329 N331 1.610 . S
N330 S329 1.613 . S
N330 C333 1.350 . S
N331 S329 1.610 . S
N331 C332 1.351 . S
C332 C326 1.428 . S
C332 N331 1.351 . S
C332 C333 1.434 . S
C333 C324 1.429 . S
C333 N330 1.350 . S
C333 C332 1.434 . S
C334 C335 1.369 . S
C334 C336 1.419 . S
C334 H338 0.930 . S
C335 C334 1.369 . S
C335 C344 1.429 . S
C336 C334 1.419 . S
C336 C337 1.363 . S
C336 H339 0.929 . S
C337 C336 1.363 . S
C337 C343 1.428 . S
H338 C334 0.930 . S
H339 C336 0.929 . S
S340 N341 1.613 . S
S340 N342 1.610 . S
N341 S340 1.613 . S
N341 C344 1.350 . S
N342 S340 1.610 . S
N342 C343 1.351 . S
C343 C337 1.428 . S
C343 N342 1.351 . S
C343 C344 1.434 . S
C344 C335 1.429 . S
C344 N341 1.350 . S
C344 C343 1.434 . S
C345 C346 1.369 . S
C345 C347 1.419 . S
C345 H349 0.930 . S
C346 C345 1.369 . S
C346 C355 1.429 . S
C347 C345 1.419 . S
C347 C348 1.363 . S
C347 H350 0.929 . S
C348 C347 1.363 . S
C348 C354 1.428 . S
H349 C345 0.930 . S
H350 C347 0.929 . S
S351 N352 1.613 . S
S351 N353 1.610 . S
N352 S351 1.613 . S
N352 C355 1.350 . S
N353 S351 1.610 . S
N353 C354 1.351 . S
C354 C348 1.428 . S
C354 N353 1.351 . S
C354 C355 1.434 . S
C355 C346 1.429 . S
C355 N352 1.350 . S
C355 C354 1.434 . S
C356 C357 1.369 . S
C356 C358 1.419 . S
C356 H360 0.930 . S
C357 C356 1.369 . S
C357 C366 1.429 . S
C358 C356 1.419 . S
C358 C359 1.363 . S
C358 H361 0.929 . S
C359 C358 1.363 . S
C359 C365 1.428 . S
H360 C356 0.930 . S
H361 C358 0.929 . S
S362 N363 1.613 . S
S362 N364 1.610 . S
N363 S362 1.613 . S
N363 C366 1.350 . S
N364 S362 1.610 . S
N364 C365 1.351 . S
C365 C359 1.428 . S
C365 N364 1.351 . S
C365 C366 1.434 . S
C366 C357 1.429 . S
C366 N363 1.350 . S
C366 C365 1.434 . S
C367 C368 1.369 . S
C367 C369 1.419 . S
C367 H371 0.930 . S
C368 C367 1.369 . S
C368 C377 1.429 . S
C369 C367 1.419 . S
C369 C370 1.363 . S
C369 H372 0.929 . S
C370 C369 1.363 . S
C370 C376 1.428 . S
H371 C367 0.930 . S
H372 C369 0.929 . S
S373 N374 1.613 . S
S373 N375 1.610 . S
N374 S373 1.613 . S
N374 C377 1.350 . S
N375 S373 1.610 . S
N375 C376 1.351 . S
C376 C370 1.428 . S
C376 N375 1.351 . S
C376 C377 1.434 . S
C377 C368 1.429 . S
C377 N374 1.350 . S
C377 C376 1.434 . S
C378 C379 1.369 . S
C378 C380 1.419 . S
C378 H382 0.930 . S
C379 C378 1.369 . S
C379 C388 1.429 . S
C380 C378 1.419 . S
C380 C381 1.363 . S
C380 H383 0.929 . S
C381 C380 1.363 . S
C381 C387 1.428 . S
H382 C378 0.930 . S
H383 C380 0.929 . S
S384 N385 1.613 . S
S384 N386 1.610 . S
N385 S384 1.613 . S
N385 C388 1.350 . S
N386 S384 1.610 . S
N386 C387 1.351 . S
C387 C381 1.428 . S
C387 N386 1.351 . S
C387 C388 1.434 . S
C388 C379 1.429 . S
C388 N385 1.350 . S
C388 C387 1.434 . S
C389 C390 1.369 . S
C389 C391 1.419 . S
C389 H393 0.930 . S
C390 C389 1.369 . S
C390 C399 1.429 . S
C391 C389 1.419 . S
C391 C392 1.363 . S
C391 H394 0.929 . S
C392 C391 1.363 . S
C392 C398 1.428 . S
H393 C389 0.930 . S
H394 C391 0.929 . S
S395 N396 1.613 . S
S395 N397 1.610 . S
N396 S395 1.613 . S
N396 C399 1.350 . S
N397 S395 1.610 . S
N397 C398 1.351 . S
C398 C392 1.428 . S
C398 N397 1.351 . S
C398 C399 1.434 . S
C399 C390 1.429 . S
C399 N396 1.350 . S
C399 C398 1.434 . S
C400 C401 1.369 . S
C400 C402 1.419 . S
C400 H404 0.930 . S
C401 C400 1.369 . S
C401 C410 1.429 . S
C402 C400 1.419 . S
C402 C403 1.363 . S
C402 H405 0.929 . S
C403 C402 1.363 . S
C403 C409 1.428 . S
H404 C400 0.930 . S
H405 C402 0.929 . S
S406 N407 1.613 . S
S406 N408 1.610 . S
N407 S406 1.613 . S
N407 C410 1.350 . S
N408 S406 1.610 . S
N408 C409 1.351 . S
C409 C403 1.428 . S
C409 N408 1.351 . S
C409 C410 1.434 . S
C410 C401 1.429 . S
C410 N407 1.350 . S
C410 C409 1.434 . S
C411 C412 1.369 . S
C411 C413 1.419 . S
C411 H415 0.930 . S
C412 C411 1.369 . S
C412 C421 1.429 . S
C413 C411 1.419 . S
C413 C414 1.363 . S
C413 H416 0.929 . S
C414 C413 1.363 . S
C414 C420 1.428 . S
H415 C411 0.930 . S
H416 C413 0.929 . S
S417 N418 1.613 . S
S417 N419 1.610 . S
N418 S417 1.613 . S
N418 C421 1.350 . S
N419 S417 1.610 . S
N419 C420 1.351 . S
C420 C414 1.428 . S
C420 N419 1.351 . S
C420 C421 1.434 . S
C421 C412 1.429 . S
C421 N418 1.350 . S
C421 C420 1.434 . S
C422 C423 1.369 . S
C422 C424 1.419 . S
C422 H426 0.930 . S
C423 C422 1.369 . S
C423 C432 1.429 . S
C424 C422 1.419 . S
C424 C425 1.363 . S
C424 H427 0.929 . S
C425 C424 1.363 . S
C425 C431 1.428 . S
H426 C422 0.930 . S
H427 C424 0.929 . S
S428 N429 1.613 . S
S428 N430 1.610 . S
N429 S428 1.613 . S
N429 C432 1.350 . S
N430 S428 1.610 . S
N430 C431 1.351 . S
C431 C425 1.428 . S
C431 N430 1.351 . S
C431 C432 1.434 . S
C432 C423 1.429 . S
C432 N429 1.350 . S
C432 C431 1.434 . S
C433 C434 1.369 . S
C433 C435 1.419 . S
C433 H437 0.930 . S
C434 C433 1.369 . S
C434 C443 1.429 . S
C435 C433 1.419 . S
C435 C436 1.363 . S
C435 H438 0.929 . S
C436 C435 1.363 . S
C436 C442 1.428 . S
H437 C433 0.930 . S
H438 C435 0.929 . S
S439 N440 1.613 . S
S439 N441 1.610 . S
N440 S439 1.613 . S
N440 C443 1.350 . S
N441 S439 1.610 . S
N441 C442 1.351 . S
C442 C436 1.428 . S
C442 N441 1.351 . S
C442 C443 1.434 . S
C443 C434 1.429 . S
C443 N440 1.350 . S
C443 C442 1.434 . S
C444 C445 1.369 . S
C444 C446 1.419 . S
C444 H448 0.930 . S
C445 C444 1.369 . S
C445 C454 1.429 . S
C446 C444 1.419 . S
C446 C447 1.363 . S
C446 H449 0.929 . S
C447 C446 1.363 . S
C447 C453 1.428 . S
H448 C444 0.930 . S
H449 C446 0.929 . S
S450 N451 1.613 . S
S450 N452 1.610 . S
N451 S450 1.613 . S
N451 C454 1.350 . S
N452 S450 1.610 . S
N452 C453 1.351 . S
C453 C447 1.428 . S
C453 N452 1.351 . S
C453 C454 1.434 . S
C454 C445 1.429 . S
C454 N451 1.350 . S
C454 C453 1.434 . S
C455 C456 1.369 . S
C455 C457 1.419 . S
C455 H459 0.930 . S
C456 C455 1.369 . S
C456 C465 1.429 . S
C457 C455 1.419 . S
C457 C458 1.363 . S
C457 H460 0.929 . S
C458 C457 1.363 . S
C458 C464 1.428 . S
H459 C455 0.930 . S
H460 C457 0.929 . S
S461 N462 1.613 . S
S461 N463 1.610 . S
N462 S461 1.613 . S
N462 C465 1.350 . S
N463 S461 1.610 . S
N463 C464 1.351 . S
C464 C458 1.428 . S
C464 N463 1.351 . S
C464 C465 1.434 . S
C465 C456 1.429 . S
C465 N462 1.350 . S
C465 C464 1.434 . S
C466 C467 1.369 . S
C466 C468 1.419 . S
C466 H470 0.930 . S
C467 C466 1.369 . S
C467 C476 1.429 . S
C468 C466 1.419 . S
C468 C469 1.363 . S
C468 H471 0.929 . S
C469 C468 1.363 . S
C469 C475 1.428 . S
H470 C466 0.930 . S
H471 C468 0.929 . S
S472 N473 1.613 . S
S472 N474 1.610 . S
N473 S472 1.613 . S
N473 C476 1.350 . S
N474 S472 1.610 . S
N474 C475 1.351 . S
C475 C469 1.428 . S
C475 N474 1.351 . S
C475 C476 1.434 . S
C476 C467 1.429 . S
C476 N473 1.350 . S
C476 C475 1.434 . S
C477 C478 1.369 . S
C477 C479 1.419 . S
C477 H481 0.930 . S
C478 C477 1.369 . S
C478 C487 1.429 . S
C479 C477 1.419 . S
C479 C480 1.363 . S
C479 H482 0.929 . S
C480 C479 1.363 . S
C480 C486 1.428 . S
H481 C477 0.930 . S
H482 C479 0.929 . S
S483 N484 1.613 . S
S483 N485 1.610 . S
N484 S483 1.613 . S
N484 C487 1.350 . S
N485 S483 1.610 . S
N485 C486 1.351 . S
C486 C480 1.428 . S
C486 N485 1.351 . S
C486 C487 1.434 . S
C487 C478 1.429 . S
C487 N484 1.350 . S
C487 C486 1.434 . S
C488 C489 1.369 . S
C488 C490 1.419 1_545 S
C488 H492 0.930 . S
C489 C488 1.369 . S
C489 C498 1.429 1_545 S
C490 C488 1.419 1_565 S
C490 C491 1.363 . S
C490 H493 0.929 . S
C491 C490 1.363 . S
C491 C497 1.428 . S
H492 C488 0.930 . S
H493 C490 0.929 . S
S494 N495 1.613 . S
S494 N496 1.610 . S
N495 S494 1.613 . S
N495 C498 1.350 . S
N496 S494 1.610 . S
N496 C497 1.351 . S
C497 C491 1.428 . S
C497 N496 1.351 . S
C497 C498 1.434 . S
C498 C489 1.429 1_565 S
C498 N495 1.350 . S
C498 C497 1.434 . S
C499 C500 1.369 . S
C499 C501 1.419 . S
C499 H503 0.930 . S
C500 C499 1.369 . S
C500 C509 1.429 . S
C501 C499 1.419 . S
C501 C502 1.363 . S
C501 H504 0.929 . S
C502 C501 1.363 . S
C502 C508 1.428 . S
H503 C499 0.930 . S
H504 C501 0.929 . S
S505 N506 1.613 . S
S505 N507 1.610 . S
N506 S505 1.613 . S
N506 C509 1.350 . S
N507 S505 1.610 . S
N507 C508 1.351 . S
C508 C502 1.428 . S
C508 N507 1.351 . S
C508 C509 1.434 . S
C509 C500 1.429 . S
C509 N506 1.350 . S
C509 C508 1.434 . S
C510 C511 1.369 . S
C510 C512 1.419 1_455 S
C510 H514 0.930 . S
C511 C510 1.369 . S
C511 C520 1.429 . S
C512 C510 1.419 1_655 S
C512 C513 1.363 . S
C512 H515 0.929 . S
C513 C512 1.363 . S
C513 C519 1.428 1_655 S
H514 C510 0.930 . S
H515 C512 0.929 . S
S516 N517 1.613 . S
S516 N518 1.610 . S
N517 S516 1.613 . S
N517 C520 1.350 . S
N518 S516 1.610 . S
N518 C519 1.351 . S
C519 C513 1.428 1_455 S
C519 N518 1.351 . S
C519 C520 1.434 . S
C520 C511 1.429 . S
C520 N517 1.350 . S
C520 C519 1.434 . S
C521 C522 1.369 . S
C521 C523 1.419 . S
C521 H525 0.930 . S
C522 C521 1.369 . S
C522 C531 1.429 1_455 S
C523 C521 1.419 . S
C523 C524 1.363 . S
C523 H526 0.929 . S
C524 C523 1.363 . S
C524 C530 1.428 1_565 S
H525 C521 0.930 . S
H526 C523 0.929 . S
S527 N528 1.613 1_545 S
S527 N529 1.610 1_655 S
N528 S527 1.613 1_565 S
N528 C531 1.350 . S
N529 S527 1.610 1_455 S
N529 C530 1.351 . S
C530 C524 1.428 1_545 S
C530 N529 1.351 . S
C530 C531 1.434 1_445 S
C531 C522 1.429 1_655 S
C531 N528 1.350 . S
C531 C530 1.434 1_665 S
C532 C533 1.369 . S
C532 C534 1.419 . S
C532 H536 0.930 . S
C533 C532 1.369 . S
C533 C542 1.429 . S
C534 C532 1.419 . S
C534 C535 1.363 . S
C534 H537 0.929 . S
C535 C534 1.363 . S
C535 C541 1.428 . S
H536 C532 0.930 . S
H537 C534 0.929 . S
S538 N539 1.613 . S
S538 N540 1.610 . S
N539 S538 1.613 . S
N539 C542 1.350 . S
N540 S538 1.610 . S
N540 C541 1.351 . S
C541 C535 1.428 . S
C541 N540 1.351 . S
C541 C542 1.434 . S
C542 C533 1.429 . S
C542 N539 1.350 . S
C542 C541 1.434 . S
C543 C544 1.369 1_655 S
C543 C545 1.419 . S
C543 H547 0.930 . S
C544 C543 1.369 1_455 S
C544 C553 1.429 . S
C545 C543 1.419 . S
C545 C546 1.363 . S
C545 H548 0.929 . S
C546 C545 1.363 . S
C546 C552 1.428 . S
H547 C543 0.930 . S
H548 C545 0.929 . S
S549 N550 1.613 . S
S549 N551 1.610 1_455 S
N550 S549 1.613 . S
N550 C553 1.350 . S
N551 S549 1.610 1_655 S
N551 C552 1.351 . S
C552 C546 1.428 . S
C552 N551 1.351 . S
C552 C553 1.434 1_655 S
C553 C544 1.429 . S
C553 N550 1.350 . S
C553 C552 1.434 1_455 S
C554 C555 1.369 . S
C554 C556 1.419 . S
C554 H558 0.930 . S
C555 C554 1.369 . S
C555 C564 1.429 1_545 S
C556 C554 1.419 . S
C556 C557 1.363 . S
C556 H559 0.929 . S
C557 C556 1.363 . S
C557 C563 1.428 1_655 S
H558 C554 0.930 . S
H559 C556 0.929 . S
S560 N561 1.613 1_455 S
S560 N562 1.610 1_565 S
N561 S560 1.613 1_655 S
N561 C564 1.350 . S
N562 S560 1.610 1_545 S
N562 C563 1.351 . S
C563 C557 1.428 1_455 S
C563 N562 1.351 . S
C563 C564 1.434 1_445 S
C564 C555 1.429 1_565 S
C564 N561 1.350 . S
C564 C563 1.434 1_665 S
C565 C566 1.369 . S
C565 C567 1.419 1_565 S
C565 H569 0.930 . S
C566 C565 1.369 . S
C566 C575 1.429 1_565 S
C567 C565 1.419 1_545 S
C567 C568 1.363 . S
C567 H570 0.929 . S
C568 C567 1.363 . S
C568 C574 1.428 . S
H569 C565 0.930 . S
H570 C567 0.929 . S
S571 N572 1.613 . S
S571 N573 1.610 . S
N572 S571 1.613 . S
N572 C575 1.350 . S
N573 S571 1.610 . S
N573 C574 1.351 . S
C574 C568 1.428 . S
C574 N573 1.351 . S
C574 C575 1.434 . S
C575 C566 1.429 1_545 S
C575 N572 1.350 . S
C575 C574 1.434 . S
C225 C106 1.564 . S
C227 C8 1.624 . S
C236 C64 2.168 . S
C238 C22 2.169 . S
C247 C78 1.617 . S
C249 C36 1.574 . S
C258 C50 1.200 . S
C260 C92 1.201 . S
C269 C218 1.564 . S
C271 C120 1.630 . S
C280 C176 2.166 . S
C282 C134 2.174 . S
C291 C148 1.576 . S
C293 C190 1.619 . S
C302 C162 1.208 . S
C304 C204 1.200 . S
C313 C37 1.252 . S
C315 C9 1.218 . S
C324 C23 1.283 . S
C326 C51 1.306 . S
C335 C65 1.282 . S
C337 C93 1.307 . S
C346 C107 1.244 . S
C348 C79 1.225 . S
C357 C121 1.230 . S
C359 C149 1.241 . S
C368 C135 1.298 . S
C370 C163 1.294 . S
C379 C205 1.308 . S
C381 C177 1.283 . S
C390 C191 1.220 . S
C392 C219 1.248 . S
C401 C91 1.668 . S
C403 C7 1.607 . S
C412 C21 2.337 . S
C414 C105 2.397 . S
C423 C35 2.396 . S
C425 C63 2.333 . S
C434 C49 1.666 . S
C436 C77 1.614 . S
C445 C119 1.615 . S
C447 C203 1.666 . S
C456 C133 2.337 . S
C458 C217 2.397 . S
C467 C147 2.400 . S
C469 C175 2.334 . S
C478 C161 1.666 . S
C480 C189 1.614 . S
C489 C6 1.481 . S
C491 C216 1.465 . S
C500 C174 1.499 . S
C502 C20 1.499 . S
C511 C34 1.467 . S
C513 C188 1.481 . S
C522 C202 1.450 1_455 S
C524 C48 1.450 1_565 S
C533 C132 1.501 . S
C535 C62 1.501 . S
C544 C76 1.478 . S
C546 C146 1.462 . S
C555 C160 1.452 1_545 S
C557 C90 1.451 1_655 S
C566 C118 1.480 . S
C568 C104 1.465 . S
