# Generated by pormake.
# Topology etd, (3)-cn, num edge types: 1
# Building blocks:
#     Node 0, Type 0, BuildingBlock: OLANEW_clean_sbu_2, # of connection points: 3
#     Node 1, Type 0, BuildingBlock: OLANEW_clean_sbu_2, # of connection points: 3
#     Node 2, Type 0, BuildingBlock: OLANEW_clean_sbu_2, # of connection points: 3
#     Node 3, Type 0, BuildingBlock: OLANEW_clean_sbu_2, # of connection points: 3
#     Node 4, Type 0, BuildingBlock: OLANEW_clean_sbu_2, # of connection points: 3
#     Node 5, Type 0, BuildingBlock: OLANEW_clean_sbu_2, # of connection points: 3
#     Node 6, Type 0, BuildingBlock: OLANEW_clean_sbu_2, # of connection points: 3
#     Node 7, Type 0, BuildingBlock: OLANEW_clean_sbu_2, # of connection points: 3
#     Node 8, Type 0, BuildingBlock: OLANEW_clean_sbu_2, # of connection points: 3
#     Node 9, Type 0, BuildingBlock: OLANEW_clean_sbu_2, # of connection points: 3
#     Node 10, Type 0, BuildingBlock: OLANEW_clean_sbu_2, # of connection points: 3
#     Node 11, Type 0, BuildingBlock: OLANEW_clean_sbu_2, # of connection points: 3
#     Edge 12, Type (0, 0), BuildingBlock: CIFDUS_clean_linker_0, # of connection points: 2
#     Edge 13, Type (0, 0), BuildingBlock: CIFDUS_clean_linker_0, # of connection points: 2
#     Edge 14, Type (0, 0), BuildingBlock: CIFDUS_clean_linker_0, # of connection points: 2
#     Edge 15, Type (0, 0), BuildingBlock: CIFDUS_clean_linker_0, # of connection points: 2
#     Edge 16, Type (0, 0), BuildingBlock: CIFDUS_clean_linker_0, # of connection points: 2
#     Edge 17, Type (0, 0), BuildingBlock: CIFDUS_clean_linker_0, # of connection points: 2
#     Edge 18, Type (0, 0), BuildingBlock: CIFDUS_clean_linker_0, # of connection points: 2
#     Edge 19, Type (0, 0), BuildingBlock: CIFDUS_clean_linker_0, # of connection points: 2
#     Edge 20, Type (0, 0), BuildingBlock: CIFDUS_clean_linker_0, # of connection points: 2
#     Edge 21, Type (0, 0), BuildingBlock: CIFDUS_clean_linker_0, # of connection points: 2
#     Edge 22, Type (0, 0), BuildingBlock: CIFDUS_clean_linker_0, # of connection points: 2
#     Edge 23, Type (0, 0), BuildingBlock: CIFDUS_clean_linker_0, # of connection points: 2
#     Edge 24, Type (0, 0), BuildingBlock: CIFDUS_clean_linker_0, # of connection points: 2
#     Edge 25, Type (0, 0), BuildingBlock: CIFDUS_clean_linker_0, # of connection points: 2
#     Edge 26, Type (0, 0), BuildingBlock: CIFDUS_clean_linker_0, # of connection points: 2
#     Edge 27, Type (0, 0), BuildingBlock: CIFDUS_clean_linker_0, # of connection points: 2
#     Edge 28, Type (0, 0), BuildingBlock: CIFDUS_clean_linker_0, # of connection points: 2
#     Edge 29, Type (0, 0), BuildingBlock: CIFDUS_clean_linker_0, # of connection points: 2
# Relax obj value: 0.002
# Max RMSD: 0.044
# Mean RMSD: 0.044
data_MOF--net-etd--node1-OLANEW_clean_sbu_2--edge1-CIFDUS_clean_linker_0
_symmetry_space_group_name_H-M    P1
_symmetry_Int_Tables_number       1
_symmetry_cell_setting            triclinic
loop_
_symmetry_equiv_pos_as_xyz
'x, y, z'
_cell_length_a     54.643579
_cell_length_b     54.651726
_cell_length_c     39.652302
_cell_angle_alpha  89.919113
_cell_angle_beta   90.041976
_cell_angle_gamma 120.01118
loop_
_atom_site_label
_atom_site_type_symbol
_atom_site_fract_x
_atom_site_fract_y
_atom_site_fract_z
_atom_type_partial_charge
O0 O 0.55027 0.11008 0.10873 0.0
Cd1 Cd 0.53328 0.1149 0.05353 0.0
O2 O 0.51422 0.10733 0.13664 0.0
Cd3 Cd 0.49989 0.12187 0.09367 0.0
O4 O 0.49375 0.15392 0.06839 0.0
C5 C 0.51491 0.17526 0.05531 0.0
O6 O 0.5395 0.17637 0.05529 0.0
C7 C 0.53683 0.10607 0.13624 0.0
C8 C 0.53243 0.07385 0.01103 0.0
O9 O 0.55414 0.09869 0.01255 0.0
O10 O 0.51087 0.06866 0.02901 0.0
O11 O 0.49887 0.62528 0.35086 0.0
Cd12 Cd 0.52142 0.64448 0.2966 0.0
O13 O 0.45808 0.60821 0.32522 0.0
Cd14 Cd 0.41202 0.58731 0.32084 0.0
O15 O 0.36932 0.57685 0.30597 0.0
C16 C 0.36625 0.58493 0.27698 0.0
O17 O 0.38853 0.59844 0.25746 0.0
C18 C 0.47206 0.61091 0.35199 0.0
C19 C 0.50256 0.60065 0.24985 0.0
O20 O 0.52405 0.60709 0.26861 0.0
O21 O 0.49027 0.61529 0.25278 0.0
O22 O 0.8925 0.41927 0.45923 0.0
Cd23 Cd 0.89217 0.39692 0.40579 0.0
O24 O 0.89392 0.387 0.49103 0.0
Cd25 Cd 0.88336 0.35734 0.4494 0.0
O26 O 0.85399 0.31916 0.42195 0.0
C27 C 0.83476 0.29933 0.4394 0.0
O28 O 0.83446 0.30272 0.47217 0.0
C29 C 0.89461 0.41052 0.48821 0.0
C30 C 0.93079 0.43833 0.36208 0.0
O31 O 0.90474 0.43177 0.36234 0.0
O32 O 0.93842 0.42487 0.382 0.0
O33 O 0.38686 0.89498 0.65023 0.0
Cd34 Cd 0.37426 0.90277 0.59372 0.0
O35 O 0.39973 0.86636 0.62832 0.0
Cd36 Cd 0.41374 0.83522 0.63001 0.0
O37 O 0.42231 0.8003 0.62652 0.0
C38 C 0.42514 0.79204 0.59758 0.0
O39 O 0.42337 0.80515 0.57069 0.0
C40 C 0.39689 0.8786 0.65405 0.0
C41 C 0.42189 0.93903 0.55586 0.0
O42 O 0.40913 0.94864 0.57392 0.0
O43 O 0.41213 0.91226 0.55577 0.0
O44 O 0.56533 0.47145 0.84875 0.0
Cd45 Cd 0.59429 0.48709 0.79779 0.0
O46 O 0.5859 0.45052 0.87385 0.0
Cd47 Cd 0.61914 0.46355 0.83597 0.0
O48 O 0.65859 0.47448 0.81 0.0
C49 C 0.68068 0.48252 0.82777 0.0
O50 O 0.67893 0.48441 0.86062 0.0
C51 C 0.56675 0.45724 0.87332 0.0
C52 C 0.56346 0.49676 0.74863 0.0
O53 O 0.562 0.47268 0.75118 0.0
O54 O 0.58016 0.51648 0.76865 0.0
O55 O 0.11304 0.51483 0.9826 0.0
Cd56 Cd 0.1039 0.49104 0.92815 0.0
O57 O 0.13972 0.55507 0.95681 0.0
Cd58 Cd 0.16964 0.60048 0.9536 0.0
O59 O 0.20543 0.64225 0.94209 0.0
C60 C 0.22175 0.65793 0.96531 0.0
O61 O 0.2163 0.64907 0.9967 0.0
C62 C 0.12871 0.54152 0.9839 0.0
C63 C 0.06205 0.49518 0.8925 0.0
O64 O 0.05573 0.47432 0.91236 0.0
O65 O 0.08818 0.51404 0.88947 0.0
O66 O 0.8914 0.46201 0.69831 0.0
Cd67 Cd 0.88711 0.481 0.75228 0.0
O68 O 0.88198 0.48947 0.66686 0.0
Cd69 Cd 0.86658 0.50346 0.7092 0.0
O70 O 0.83217 0.5046 0.73582 0.0
C71 C 0.81085 0.49955 0.71788 0.0
O72 O 0.81148 0.49496 0.68545 0.0
C73 C 0.88939 0.4709 0.66936 0.0
C74 C 0.92703 0.48122 0.79646 0.0
O75 O 0.90177 0.46015 0.79527 0.0
O76 O 0.93319 0.50246 0.77733 0.0
O77 O 0.49762 0.8869 0.82799 0.0
Cd78 Cd 0.51752 0.89295 0.8845 0.0
O79 O 0.45545 0.861 0.84975 0.0
Cd80 Cd 0.4096 0.83264 0.84926 0.0
O81 O 0.36667 0.79836 0.85959 0.0
C82 C 0.35936 0.79165 0.89017 0.0
O83 O 0.37755 0.80606 0.91411 0.0
C84 C 0.471 0.87246 0.82408 0.0
C85 C 0.51475 0.93599 0.9189 0.0
O86 O 0.53637 0.94123 0.90102 0.0
O87 O 0.49448 0.91033 0.92062 0.0
O88 O 0.46502 0.42319 0.04839 0.0
Cd89 Cd 0.4355 0.41481 0.0981 0.0
O90 O 0.46007 0.38114 0.05468 0.0
Cd91 Cd 0.46426 0.34445 0.04178 0.0
O92 O 0.46408 0.30442 0.03978 0.0
C93 C 0.48547 0.30298 0.03002 0.0
O94 O 0.50816 0.32614 0.02001 0.0
C95 C 0.47062 0.40439 0.03862 0.0
C96 C 0.45785 0.46221 0.1398 0.0
O97 O 0.46538 0.44355 0.14295 0.0
O98 O 0.43967 0.4584 0.11695 0.0
O99 O 0.11136 0.5975 0.17486 0.0
Cd100 Cd 0.10137 0.61133 0.22936 0.0
O101 O 0.14018 0.58649 0.20022 0.0
Cd102 Cd 0.17222 0.5737 0.20312 0.0
O103 O 0.20971 0.5707 0.21506 0.0
C104 C 0.23104 0.58215 0.19562 0.0
O105 O 0.22962 0.59467 0.16797 0.0
C106 C 0.12832 0.588 0.17331 0.0
C107 C 0.06153 0.56436 0.26554 0.0
O108 O 0.05389 0.57779 0.2456 0.0
O109 O 0.08803 0.5732 0.26841 0.0
O110 O 0.57321 0.09367 0.35063 0.0
Cd111 Cd 0.59319 0.09537 0.40633 0.0
O112 O 0.61099 0.10085 0.32262 0.0
Cd113 Cd 0.63787 0.11175 0.36717 0.0
O114 O 0.67494 0.14158 0.39602 0.0
C115 C 0.69592 0.1596 0.37887 0.0
O116 O 0.69422 0.15837 0.34579 0.0
C117 C 0.58555 0.09564 0.32275 0.0
C118 C 0.55011 0.06038 0.4508 0.0
O119 O 0.55772 0.08659 0.44774 0.0
O120 O 0.56316 0.05083 0.43319 0.0
O121 O 0.41956 0.52147 0.53655 0.0
Cd122 Cd 0.40354 0.49468 0.58913 0.0
O123 O 0.42625 0.55887 0.56455 0.0
Cd124 Cd 0.43544 0.60255 0.56862 0.0
O125 O 0.43761 0.64332 0.57418 0.0
C126 C 0.43836 0.6574 0.54828 0.0
O127 O 0.4385 0.64736 0.51823 0.0
C128 C 0.4272 0.54758 0.53693 0.0
C129 C 0.44642 0.49121 0.62325 0.0
O130 O 0.43032 0.47203 0.60227 0.0
O131 O 0.4424 0.51215 0.62783 0.0
H132 H 0.51334 0.09622 0.19891 0.0
H133 H 0.58609 0.10537 0.14494 0.0
H134 H 0.60671 0.10123 0.19768 0.0
H135 H 0.60545 0.09783 0.25931 0.0
H136 H 0.53297 0.0891 0.3135 0.0
H137 H 0.51085 0.09004 0.26039 0.0
C138 C 0.53362 0.09713 0.19861 0.0
C139 C 0.54821 0.10134 0.16798 0.0
C140 C 0.54548 0.09489 0.22908 0.0
C141 C 0.57441 0.10227 0.16812 0.0
C142 C 0.58627 0.09994 0.1983 0.0
C143 C 0.58472 0.09591 0.25956 0.0
C144 C 0.57103 0.09362 0.29043 0.0
C145 C 0.57219 0.09668 0.22896 0.0
C146 C 0.54407 0.09098 0.29016 0.0
C147 C 0.53141 0.09159 0.25978 0.0
H148 H 0.40645 0.53077 0.47399 0.0
H149 H 0.47045 0.60165 0.52976 0.0
H150 H 0.48885 0.62837 0.47742 0.0
H151 H 0.48863 0.63034 0.41542 0.0
H152 H 0.42438 0.55965 0.35964 0.0
H153 H 0.40398 0.53418 0.41224 0.0
C154 C 0.4243 0.55215 0.4746 0.0
C155 C 0.43701 0.56433 0.50559 0.0
C156 C 0.43469 0.56738 0.44442 0.0
C157 C 0.46001 0.59206 0.50622 0.0
C158 C 0.47068 0.60724 0.47629 0.0
C159 C 0.46996 0.60949 0.41489 0.0
C160 C 0.45786 0.59696 0.38378 0.0
C161 C 0.45843 0.59497 0.44522 0.0
C162 C 0.43368 0.56998 0.38331 0.0
C163 C 0.42221 0.55528 0.41336 0.0
H164 H 0.8893 0.48656 0.60417 0.0
H165 H 0.90019 0.42726 0.66537 0.0
H166 H 0.90426 0.40431 0.61468 0.0
H167 H 0.90198 0.39934 0.55315 0.0
H168 H 0.89099 0.45855 0.49192 0.0
H169 H 0.8899 0.48333 0.54252 0.0
C170 C 0.89275 0.46873 0.60647 0.0
C171 C 0.89419 0.45853 0.63858 0.0
C172 C 0.89495 0.45553 0.57721 0.0
C173 C 0.89889 0.43553 0.64101 0.0
C174 C 0.90116 0.42233 0.61202 0.0
C175 C 0.89953 0.41777 0.55081 0.0
C176 C 0.89633 0.42689 0.51875 0.0
C177 C 0.8988 0.43188 0.58001 0.0
C178 C 0.8934 0.45097 0.51625 0.0
C179 C 0.89271 0.46515 0.54519 0.0
H180 H 0.44177 0.87256 0.67049 0.0
H181 H 0.37143 0.87646 0.71368 0.0
H182 H 0.38685 0.87255 0.77039 0.0
H183 H 0.42202 0.87096 0.80769 0.0
H184 H 0.4935 0.86924 0.7644 0.0
H185 H 0.47582 0.86899 0.70765 0.0
C186 C 0.42942 0.87178 0.69227 0.0
C187 C 0.40524 0.87427 0.68796 0.0
C188 C 0.43872 0.87007 0.72475 0.0
C189 C 0.39008 0.87445 0.71646 0.0
C190 C 0.39887 0.87221 0.74884 0.0
C191 C 0.4333 0.86979 0.78583 0.0
C192 C 0.45876 0.86968 0.79015 0.0
C193 C 0.42335 0.87033 0.75331 0.0
C194 C 0.47377 0.86924 0.76162 0.0
C195 C 0.4637 0.86913 0.72921 0.0
H196 H 0.47562 0.43648 0.98441 0.0
H197 H 0.50802 0.38579 0.0273 0.0
H198 H 0.53989 0.39678 0.97932 0.0
H199 H 0.55978 0.4223 0.92614 0.0
H200 H 0.52752 0.47344 0.88374 0.0
H201 H 0.49459 0.46096 0.93067 0.0
C202 C 0.48958 0.42774 0.98313 0.0
C203 C 0.48907 0.4099 0.00901 0.0
C204 C 0.50806 0.43444 0.9557 0.0
C205 C 0.50731 0.39879 0.00716 0.0
C206 C 0.52582 0.40539 0.97993 0.0
C207 C 0.54553 0.43069 0.92711 0.0
C208 C 0.54627 0.4489 0.90147 0.0
C209 C 0.5265 0.42334 0.95415 0.0
C210 C 0.52748 0.45941 0.90309 0.0
C211 C 0.50862 0.45231 0.92995 0.0
H212 H 0.13438 0.5233 0.0453 0.0
H213 H 0.13207 0.59223 0.99532 0.0
H214 H 0.13376 0.61389 0.04982 0.0
H215 H 0.13179 0.61101 0.11184 0.0
H216 H 0.13495 0.54254 0.16182 0.0
H217 H 0.1373 0.523 0.10728 0.0
C218 C 0.13461 0.54325 0.04642 0.0
C219 C 0.1332 0.55623 0.01644 0.0
C220 C 0.13561 0.55555 0.07783 0.0
C221 C 0.13364 0.58211 0.01807 0.0
C222 C 0.13432 0.59434 0.04923 0.0
C223 C 0.13336 0.59201 0.1107 0.0
C224 C 0.13328 0.57825 0.1407 0.0
C225 C 0.13474 0.58096 0.07927 0.0
C226 C 0.13546 0.55374 0.13905 0.0
C227 C 0.13652 0.54242 0.10787 0.0
H228 H 0.46898 0.18216 0.05902 0.0
H229 H 0.55614 0.22421 0.02689 0.0
H230 H 0.5542 0.26692 0.01423 0.0
H231 H 0.52879 0.29341 0.01602 0.0
H232 H 0.44196 0.25153 0.04944 0.0
H233 H 0.44278 0.20773 0.05767 0.0
C234 C 0.48748 0.20054 0.04891 0.0
C235 C 0.51272 0.19999 0.04416 0.0
C236 C 0.48637 0.2252 0.04212 0.0
C237 C 0.53646 0.22404 0.03096 0.0
C238 C 0.5354 0.24854 0.02377 0.0
C239 C 0.50997 0.27466 0.02485 0.0
C240 C 0.48544 0.27589 0.03236 0.0
C241 C 0.51063 0.24953 0.02986 0.0
C242 C 0.46121 0.2513 0.04365 0.0
C243 C 0.46164 0.22619 0.04839 0.0
H244 H 0.24206 0.56155 0.25279 0.0
H245 H 0.28013 0.60482 0.15957 0.0
H246 H 0.32491 0.60862 0.17609 0.0
H247 H 0.35374 0.6012 0.2177 0.0
H248 H 0.31605 0.55851 0.3113 0.0
H249 H 0.27064 0.55289 0.29381 0.0
C250 C 0.26009 0.57168 0.23598 0.0
C251 C 0.2577 0.58296 0.20501 0.0
C252 C 0.2859 0.57399 0.24573 0.0
C253 C 0.28133 0.596 0.18358 0.0
C254 C 0.307 0.59822 0.19301 0.0
C255 C 0.33559 0.59055 0.23426 0.0
C256 C 0.33838 0.5804 0.26583 0.0
C257 C 0.30959 0.58753 0.22415 0.0
C258 C 0.31457 0.5666 0.28689 0.0
C259 C 0.28857 0.56339 0.27692 0.0
H260 H 0.79052 0.25441 0.46985 0.0
H261 H 0.82776 0.28648 0.37214 0.0
H262 H 0.78868 0.2454 0.34504 0.0
H263 H 0.74301 0.20153 0.34888 0.0
H264 H 0.70544 0.16978 0.44652 0.0
H265 H 0.74572 0.20959 0.47383 0.0
C266 C 0.79021 0.25238 0.44262 0.0
C267 C 0.812 0.27361 0.42307 0.0
C268 C 0.76758 0.22881 0.42718 0.0
C269 C 0.81125 0.27053 0.38783 0.0
C270 C 0.78888 0.24705 0.37229 0.0
C271 C 0.74366 0.20319 0.37616 0.0
C272 C 0.72113 0.18274 0.39559 0.0
C273 C 0.76678 0.22624 0.39169 0.0
C274 C 0.72243 0.18523 0.43092 0.0
C275 C 0.74545 0.20802 0.44657 0.0
H276 H 0.43677 0.68294 0.60649 0.0
H277 H 0.4384 0.69177 0.49815 0.0
H278 H 0.43527 0.73458 0.50392 0.0
H279 H 0.43066 0.7687 0.53958 0.0
H280 H 0.42865 0.75967 0.64791 0.0
H281 H 0.43343 0.71779 0.64219 0.0
C282 C 0.43656 0.69426 0.58411 0.0
C283 C 0.43772 0.68405 0.55193 0.0
C284 C 0.43462 0.71881 0.58758 0.0
C285 C 0.43747 0.69908 0.52324 0.0
C286 C 0.43566 0.72357 0.5265 0.0
C287 C 0.43137 0.75766 0.56198 0.0
C288 C 0.42919 0.7673 0.59412 0.0
C289 C 0.434 0.73351 0.55853 0.0
C290 C 0.43022 0.75272 0.62284 0.0
C291 C 0.43293 0.72873 0.61961 0.0
H292 H 0.69132 0.48026 0.76111 0.0
H293 H 0.73086 0.49808 0.8592 0.0
H294 H 0.77486 0.50585 0.83385 0.0
H295 H 0.80172 0.50605 0.78406 0.0
H296 H 0.76196 0.48798 0.68607 0.0
H297 H 0.7186 0.48197 0.71119 0.0
C298 C 0.70958 0.48595 0.77695 0.0
C299 C 0.7077 0.48844 0.81203 0.0
C300 C 0.73483 0.4903 0.76225 0.0
C301 C 0.73164 0.49593 0.83214 0.0
C302 C 0.75685 0.50037 0.81767 0.0
C303 C 0.78363 0.50093 0.76817 0.0
C304 C 0.78512 0.49736 0.73325 0.0
C305 C 0.75862 0.49737 0.78279 0.0
C306 C 0.76144 0.49078 0.71304 0.0
C307 C 0.73657 0.48731 0.72738 0.0
H308 H 0.24017 0.68089 0.903 0.0
H309 H 0.26145 0.69578 0.00873 0.0
H310 H 0.30528 0.73897 0.99482 0.0
H311 H 0.33845 0.77148 0.95265 0.0
H312 H 0.31752 0.75636 0.84686 0.0
H313 H 0.27263 0.71435 0.86089 0.0
C314 C 0.2543 0.69364 0.92305 0.0
C315 C 0.24753 0.68498 0.95686 0.0
C316 C 0.2796 0.71838 0.91488 0.0
C317 C 0.26611 0.70185 0.98248 0.0
C318 C 0.29123 0.72656 0.97456 0.0
C319 C 0.32404 0.75911 0.93262 0.0
C320 C 0.33146 0.76704 0.89874 0.0
C321 C 0.29832 0.73487 0.94083 0.0
C322 C 0.31242 0.75074 0.87316 0.0
C323 C 0.28673 0.72667 0.88115 0.0
H324 H 0.49153 0.01855 0.00672 0.0
H325 H 0.57411 0.07897 0.96861 0.0
H326 H 0.57569 0.04178 0.93635 0.0
H327 H 0.55422 0.99191 0.92012 0.0
H328 H 0.47187 0.93139 0.95873 0.0
H329 H 0.46967 0.96884 0.98962 0.0
C330 C 0.50981 0.02364 0.99121 0.0
C331 C 0.53267 0.05153 0.99014 0.0
C332 C 0.5107 0.00211 0.97292 0.0
C333 C 0.55622 0.0577 0.96995 0.0
C334 C 0.55717 0.03643 0.95151 0.0
C335 C 0.53576 0.9869 0.93523 0.0
C336 C 0.51329 0.95885 0.93716 0.0
C337 C 0.53463 0.00852 0.95302 0.0
C338 C 0.48951 0.95277 0.95684 0.0
C339 C 0.48821 0.97418 0.97452 0.0
H340 H 0.44225 0.50225 0.14349 0.0
H341 H 0.50022 0.4786 0.18607 0.0
H342 H 0.51967 0.51974 0.22309 0.0
H343 H 0.51977 0.56201 0.24401 0.0
H344 H 0.46105 0.58509 0.20249 0.0
H345 H 0.44243 0.54464 0.16437 0.0
C346 C 0.45918 0.50612 0.16081 0.0
C347 C 0.46974 0.48734 0.16199 0.0
C348 C 0.47015 0.52972 0.18223 0.0
C349 C 0.49164 0.49265 0.18467 0.0
C350 C 0.50281 0.5162 0.20585 0.0
C351 C 0.50299 0.55828 0.22652 0.0
C352 C 0.49187 0.57659 0.22608 0.0
C353 C 0.49217 0.53482 0.20492 0.0
C354 C 0.47 0.57134 0.20338 0.0
C355 C 0.45932 0.54819 0.18156 0.0
H356 H 0.00436 0.54129 0.26533 0.0
H357 H 0.07129 0.53155 0.30933 0.0
H358 H 0.0367 0.49118 0.34215 0.0
H359 H 0.9876 0.45932 0.35938 0.0
H360 H 0.9207 0.46938 0.31589 0.0
H361 H 0.95515 0.50885 0.28177 0.0
C362 C 0.0114 0.53032 0.28204 0.0
C363 C 0.0404 0.53952 0.28491 0.0
C364 C 0.9914 0.50715 0.30095 0.0
C365 C 0.04911 0.52499 0.30666 0.0
C366 C 0.02934 0.50187 0.32546 0.0
C367 C 0.98051 0.47003 0.34232 0.0
C368 C 0.95159 0.46139 0.34026 0.0
C369 C 0.00045 0.49286 0.32294 0.0
C370 C 0.94282 0.47558 0.31803 0.0
C371 C 0.96252 0.4982 0.29852 0.0
H372 H 0.52747 0.00374 0.45978 0.0
H373 H 0.51954 0.07476 0.49251 0.0
H374 H 0.4796 0.04362 0.52832 0.0
H375 H 0.44627 0.9961 0.54945 0.0
H376 H 0.45389 0.925 0.51622 0.0
H377 H 0.4946 0.95633 0.48156 0.0
C378 C 0.5171 0.01245 0.47483 0.0
C379 C 0.52651 0.04156 0.4734 0.0
C380 C 0.49401 0.99439 0.49524 0.0
C381 C 0.51275 0.05245 0.49307 0.0
C382 C 0.48987 0.03464 0.51357 0.0
C383 C 0.45686 0.98744 0.5347 0.0
C384 C 0.44696 0.95821 0.53541 0.0
C385 C 0.48022 0.00556 0.5147 0.0
C386 C 0.46099 0.9474 0.51613 0.0
C387 C 0.4843 0.9653 0.49628 0.0
H388 H 0.52739 0.45975 0.70198 0.0
H389 H 0.55845 0.54376 0.74149 0.0
H390 H 0.52569 0.54981 0.70534 0.0
H391 H 0.48661 0.53043 0.66461 0.0
H392 H 0.45565 0.4465 0.6249 0.0
H393 H 0.49004 0.44133 0.65894 0.0
C394 C 0.52715 0.47947 0.70252 0.0
C395 C 0.54526 0.50119 0.72458 0.0
C396 C 0.50817 0.48279 0.68174 0.0
C397 C 0.54473 0.52666 0.72481 0.0
C398 C 0.52594 0.53013 0.7042 0.0
C399 C 0.48746 0.51105 0.66327 0.0
C400 C 0.46843 0.48882 0.6424 0.0
C401 C 0.5073 0.5082 0.68292 0.0
C402 C 0.46998 0.46394 0.6408 0.0
C403 C 0.48963 0.46093 0.6603 0.0
H404 H 0.98304 0.5202 0.79982 0.0
H405 H 0.91973 0.44055 0.842 0.0
H406 H 0.95578 0.43817 0.87592 0.0
H407 H 0.00545 0.45798 0.89243 0.0
H408 H 0.06886 0.53728 0.84958 0.0
H409 H 0.03257 0.54046 0.81715 0.0
C410 C 0.97707 0.50239 0.81658 0.0
C411 C 0.9487 0.48058 0.81831 0.0
C412 C 0.99795 0.50101 0.83581 0.0
C413 C 0.9414 0.45763 0.84011 0.0
C414 C 0.96201 0.45621 0.85951 0.0
C415 C 0.01135 0.47601 0.87607 0.0
C416 C 0.03987 0.49731 0.8734 0.0
C417 C 0.99038 0.47767 0.85735 0.0
C418 C 0.04709 0.52053 0.85208 0.0
C419 C 0.02634 0.52239 0.83351 0.0
loop_
_geom_bond_atom_site_label_1
_geom_bond_atom_site_label_2
_geom_bond_distance
_geom_bond_site_symmetry_2
_ccdc_geom_bond_type
O0 Cd1 2.300 . S
O0 C7 1.275 . S
Cd1 O0 2.300 . S
Cd1 O9 2.381 . S
Cd1 O10 2.378 . S
O2 Cd3 2.385 . S
O2 C7 1.255 . S
Cd3 O2 2.385 . S
Cd3 O4 2.317 . S
O4 Cd3 2.317 . S
O4 C5 1.232 . S
C5 O4 1.232 . S
C5 O6 1.218 . S
O6 C5 1.218 . S
C7 O0 1.275 . S
C7 O2 1.255 . S
C8 O9 1.258 . S
C8 O10 1.256 . S
O9 Cd1 2.381 . S
O9 C8 1.258 . S
O10 Cd1 2.378 . S
O10 C8 1.256 . S
O11 Cd12 2.300 . S
O11 C18 1.275 . S
Cd12 O11 2.300 . S
Cd12 O20 2.381 . S
Cd12 O21 2.378 . S
O13 Cd14 2.385 . S
O13 C18 1.255 . S
Cd14 O13 2.385 . S
Cd14 O15 2.317 . S
O15 Cd14 2.317 . S
O15 C16 1.232 . S
C16 O15 1.232 . S
C16 O17 1.218 . S
O17 C16 1.218 . S
C18 O11 1.275 . S
C18 O13 1.255 . S
C19 O20 1.258 . S
C19 O21 1.256 . S
O20 Cd12 2.381 . S
O20 C19 1.258 . S
O21 Cd12 2.378 . S
O21 C19 1.256 . S
O22 Cd23 2.300 . S
O22 C29 1.275 . S
Cd23 O22 2.300 . S
Cd23 O31 2.381 . S
Cd23 O32 2.378 . S
O24 Cd25 2.385 . S
O24 C29 1.255 . S
Cd25 O24 2.385 . S
Cd25 O26 2.317 . S
O26 Cd25 2.317 . S
O26 C27 1.232 . S
C27 O26 1.232 . S
C27 O28 1.218 . S
O28 C27 1.218 . S
C29 O22 1.275 . S
C29 O24 1.255 . S
C30 O31 1.258 . S
C30 O32 1.256 . S
O31 Cd23 2.381 . S
O31 C30 1.258 . S
O32 Cd23 2.378 . S
O32 C30 1.256 . S
O33 Cd34 2.300 . S
O33 C40 1.275 . S
Cd34 O33 2.300 . S
Cd34 O42 2.381 . S
Cd34 O43 2.378 . S
O35 Cd36 2.385 . S
O35 C40 1.255 . S
Cd36 O35 2.385 . S
Cd36 O37 2.317 . S
O37 Cd36 2.317 . S
O37 C38 1.232 . S
C38 O37 1.232 . S
C38 O39 1.218 . S
O39 C38 1.218 . S
C40 O33 1.275 . S
C40 O35 1.255 . S
C41 O42 1.258 . S
C41 O43 1.256 . S
O42 Cd34 2.381 . S
O42 C41 1.258 . S
O43 Cd34 2.378 . S
O43 C41 1.256 . S
O44 Cd45 2.300 . S
O44 C51 1.275 . S
Cd45 O44 2.300 . S
Cd45 O53 2.381 . S
Cd45 O54 2.378 . S
O46 Cd47 2.385 . S
O46 C51 1.255 . S
Cd47 O46 2.385 . S
Cd47 O48 2.317 . S
O48 Cd47 2.317 . S
O48 C49 1.232 . S
C49 O48 1.232 . S
C49 O50 1.218 . S
O50 C49 1.218 . S
C51 O44 1.275 . S
C51 O46 1.255 . S
C52 O53 1.258 . S
C52 O54 1.256 . S
O53 Cd45 2.381 . S
O53 C52 1.258 . S
O54 Cd45 2.378 . S
O54 C52 1.256 . S
O55 Cd56 2.300 . S
O55 C62 1.275 . S
Cd56 O55 2.300 . S
Cd56 O64 2.381 . S
Cd56 O65 2.378 . S
O57 Cd58 2.385 . S
O57 C62 1.255 . S
Cd58 O57 2.385 . S
Cd58 O59 2.317 . S
O59 Cd58 2.317 . S
O59 C60 1.232 . S
C60 O59 1.232 . S
C60 O61 1.218 . S
O61 C60 1.218 . S
C62 O55 1.275 . S
C62 O57 1.255 . S
C63 O64 1.258 . S
C63 O65 1.256 . S
O64 Cd56 2.381 . S
O64 C63 1.258 . S
O65 Cd56 2.378 . S
O65 C63 1.256 . S
O66 Cd67 2.300 . S
O66 C73 1.275 . S
Cd67 O66 2.300 . S
Cd67 O75 2.381 . S
Cd67 O76 2.378 . S
O68 Cd69 2.385 . S
O68 C73 1.255 . S
Cd69 O68 2.385 . S
Cd69 O70 2.317 . S
O70 Cd69 2.317 . S
O70 C71 1.232 . S
C71 O70 1.232 . S
C71 O72 1.218 . S
O72 C71 1.218 . S
C73 O66 1.275 . S
C73 O68 1.255 . S
C74 O75 1.258 . S
C74 O76 1.256 . S
O75 Cd67 2.381 . S
O75 C74 1.258 . S
O76 Cd67 2.378 . S
O76 C74 1.256 . S
O77 Cd78 2.300 . S
O77 C84 1.275 . S
Cd78 O77 2.300 . S
Cd78 O86 2.381 . S
Cd78 O87 2.378 . S
O79 Cd80 2.385 . S
O79 C84 1.255 . S
Cd80 O79 2.385 . S
Cd80 O81 2.317 . S
O81 Cd80 2.317 . S
O81 C82 1.232 . S
C82 O81 1.232 . S
C82 O83 1.218 . S
O83 C82 1.218 . S
C84 O77 1.275 . S
C84 O79 1.255 . S
C85 O86 1.258 . S
C85 O87 1.256 . S
O86 Cd78 2.381 . S
O86 C85 1.258 . S
O87 Cd78 2.378 . S
O87 C85 1.256 . S
O88 Cd89 2.300 . S
O88 C95 1.275 . S
Cd89 O88 2.300 . S
Cd89 O97 2.381 . S
Cd89 O98 2.378 . S
O90 Cd91 2.385 . S
O90 C95 1.255 . S
Cd91 O90 2.385 . S
Cd91 O92 2.317 . S
O92 Cd91 2.317 . S
O92 C93 1.232 . S
C93 O92 1.232 . S
C93 O94 1.218 . S
O94 C93 1.218 . S
C95 O88 1.275 . S
C95 O90 1.255 . S
C96 O97 1.258 . S
C96 O98 1.256 . S
O97 Cd89 2.381 . S
O97 C96 1.258 . S
O98 Cd89 2.378 . S
O98 C96 1.256 . S
O99 Cd100 2.300 . S
O99 C106 1.275 . S
Cd100 O99 2.300 . S
Cd100 O108 2.381 . S
Cd100 O109 2.378 . S
O101 Cd102 2.385 . S
O101 C106 1.255 . S
Cd102 O101 2.385 . S
Cd102 O103 2.317 . S
O103 Cd102 2.317 . S
O103 C104 1.232 . S
C104 O103 1.232 . S
C104 O105 1.218 . S
O105 C104 1.218 . S
C106 O99 1.275 . S
C106 O101 1.255 . S
C107 O108 1.258 . S
C107 O109 1.256 . S
O108 Cd100 2.381 . S
O108 C107 1.258 . S
O109 Cd100 2.378 . S
O109 C107 1.256 . S
O110 Cd111 2.300 . S
O110 C117 1.275 . S
Cd111 O110 2.300 . S
Cd111 O119 2.381 . S
Cd111 O120 2.378 . S
O112 Cd113 2.385 . S
O112 C117 1.255 . S
Cd113 O112 2.385 . S
Cd113 O114 2.317 . S
O114 Cd113 2.317 . S
O114 C115 1.232 . S
C115 O114 1.232 . S
C115 O116 1.218 . S
O116 C115 1.218 . S
C117 O110 1.275 . S
C117 O112 1.255 . S
C118 O119 1.258 . S
C118 O120 1.256 . S
O119 Cd111 2.381 . S
O119 C118 1.258 . S
O120 Cd111 2.378 . S
O120 C118 1.256 . S
O121 Cd122 2.300 . S
O121 C128 1.275 . S
Cd122 O121 2.300 . S
Cd122 O130 2.381 . S
Cd122 O131 2.378 . S
O123 Cd124 2.385 . S
O123 C128 1.255 . S
Cd124 O123 2.385 . S
Cd124 O125 2.317 . S
O125 Cd124 2.317 . S
O125 C126 1.232 . S
C126 O125 1.232 . S
C126 O127 1.218 . S
O127 C126 1.218 . S
C128 O121 1.275 . S
C128 O123 1.255 . S
C129 O130 1.258 . S
C129 O131 1.256 . S
O130 Cd122 2.381 . S
O130 C129 1.258 . S
O131 Cd122 2.378 . S
O131 C129 1.256 . S
H132 C138 0.930 . S
H133 C141 0.930 . S
H134 C142 0.930 . S
H135 C143 0.930 . S
H136 C146 0.930 . S
H137 C147 0.930 . S
C138 H132 0.930 . S
C138 C139 1.355 . S
C138 C140 1.415 . S
C139 C138 1.355 . S
C139 C141 1.419 . S
C140 C138 1.415 . S
C140 C145 1.425 . S
C140 C147 1.409 . S
C141 H133 0.930 . S
C141 C139 1.419 . S
C141 C142 1.362 . S
C142 H134 0.930 . S
C142 C141 1.362 . S
C142 C145 1.409 . S
C143 H135 0.930 . S
C143 C144 1.355 . S
C143 C145 1.415 . S
C144 C143 1.355 . S
C144 C146 1.419 . S
C145 C140 1.425 . S
C145 C142 1.409 . S
C145 C143 1.415 . S
C146 H136 0.930 . S
C146 C144 1.419 . S
C146 C147 1.362 . S
C147 H137 0.930 . S
C147 C140 1.409 . S
C147 C146 1.362 . S
H148 C154 0.930 . S
H149 C157 0.930 . S
H150 C158 0.930 . S
H151 C159 0.930 . S
H152 C162 0.930 . S
H153 C163 0.930 . S
C154 H148 0.930 . S
C154 C155 1.355 . S
C154 C156 1.415 . S
C155 C154 1.355 . S
C155 C157 1.419 . S
C156 C154 1.415 . S
C156 C161 1.425 . S
C156 C163 1.409 . S
C157 H149 0.930 . S
C157 C155 1.419 . S
C157 C158 1.362 . S
C158 H150 0.930 . S
C158 C157 1.362 . S
C158 C161 1.409 . S
C159 H151 0.930 . S
C159 C160 1.355 . S
C159 C161 1.415 . S
C160 C159 1.355 . S
C160 C162 1.419 . S
C161 C156 1.425 . S
C161 C158 1.409 . S
C161 C159 1.415 . S
C162 H152 0.930 . S
C162 C160 1.419 . S
C162 C163 1.362 . S
C163 H153 0.930 . S
C163 C156 1.409 . S
C163 C162 1.362 . S
H164 C170 0.930 . S
H165 C173 0.930 . S
H166 C174 0.930 . S
H167 C175 0.930 . S
H168 C178 0.930 . S
H169 C179 0.930 . S
C170 H164 0.930 . S
C170 C171 1.355 . S
C170 C172 1.415 . S
C171 C170 1.355 . S
C171 C173 1.419 . S
C172 C170 1.415 . S
C172 C177 1.425 . S
C172 C179 1.409 . S
C173 H165 0.930 . S
C173 C171 1.419 . S
C173 C174 1.362 . S
C174 H166 0.930 . S
C174 C173 1.362 . S
C174 C177 1.409 . S
C175 H167 0.930 . S
C175 C176 1.355 . S
C175 C177 1.415 . S
C176 C175 1.355 . S
C176 C178 1.419 . S
C177 C172 1.425 . S
C177 C174 1.409 . S
C177 C175 1.415 . S
C178 H168 0.930 . S
C178 C176 1.419 . S
C178 C179 1.362 . S
C179 H169 0.930 . S
C179 C172 1.409 . S
C179 C178 1.362 . S
H180 C186 0.930 . S
H181 C189 0.930 . S
H182 C190 0.930 . S
H183 C191 0.930 . S
H184 C194 0.930 . S
H185 C195 0.930 . S
C186 H180 0.930 . S
C186 C187 1.355 . S
C186 C188 1.415 . S
C187 C186 1.355 . S
C187 C189 1.419 . S
C188 C186 1.415 . S
C188 C193 1.425 . S
C188 C195 1.409 . S
C189 H181 0.930 . S
C189 C187 1.419 . S
C189 C190 1.362 . S
C190 H182 0.930 . S
C190 C189 1.362 . S
C190 C193 1.409 . S
C191 H183 0.930 . S
C191 C192 1.355 . S
C191 C193 1.415 . S
C192 C191 1.355 . S
C192 C194 1.419 . S
C193 C188 1.425 . S
C193 C190 1.409 . S
C193 C191 1.415 . S
C194 H184 0.930 . S
C194 C192 1.419 . S
C194 C195 1.362 . S
C195 H185 0.930 . S
C195 C188 1.409 . S
C195 C194 1.362 . S
H196 C202 0.930 . S
H197 C205 0.930 . S
H198 C206 0.930 . S
H199 C207 0.930 . S
H200 C210 0.930 . S
H201 C211 0.930 . S
C202 H196 0.930 . S
C202 C203 1.355 . S
C202 C204 1.415 . S
C203 C202 1.355 . S
C203 C205 1.419 . S
C204 C202 1.415 . S
C204 C209 1.425 . S
C204 C211 1.409 . S
C205 H197 0.930 . S
C205 C203 1.419 . S
C205 C206 1.362 . S
C206 H198 0.930 . S
C206 C205 1.362 . S
C206 C209 1.409 . S
C207 H199 0.930 . S
C207 C208 1.355 . S
C207 C209 1.415 . S
C208 C207 1.355 . S
C208 C210 1.419 . S
C209 C204 1.425 . S
C209 C206 1.409 . S
C209 C207 1.415 . S
C210 H200 0.930 . S
C210 C208 1.419 . S
C210 C211 1.362 . S
C211 H201 0.930 . S
C211 C204 1.409 . S
C211 C210 1.362 . S
H212 C218 0.930 . S
H213 C221 0.930 . S
H214 C222 0.930 . S
H215 C223 0.930 . S
H216 C226 0.930 . S
H217 C227 0.930 . S
C218 H212 0.930 . S
C218 C219 1.355 . S
C218 C220 1.415 . S
C219 C218 1.355 . S
C219 C221 1.419 . S
C220 C218 1.415 . S
C220 C225 1.425 . S
C220 C227 1.409 . S
C221 H213 0.930 . S
C221 C219 1.419 . S
C221 C222 1.362 . S
C222 H214 0.930 . S
C222 C221 1.362 . S
C222 C225 1.409 . S
C223 H215 0.930 . S
C223 C224 1.355 . S
C223 C225 1.415 . S
C224 C223 1.355 . S
C224 C226 1.419 . S
C225 C220 1.425 . S
C225 C222 1.409 . S
C225 C223 1.415 . S
C226 H216 0.930 . S
C226 C224 1.419 . S
C226 C227 1.362 . S
C227 H217 0.930 . S
C227 C220 1.409 . S
C227 C226 1.362 . S
H228 C234 0.930 . S
H229 C237 0.930 . S
H230 C238 0.930 . S
H231 C239 0.930 . S
H232 C242 0.930 . S
H233 C243 0.930 . S
C234 H228 0.930 . S
C234 C235 1.355 . S
C234 C236 1.415 . S
C235 C234 1.355 . S
C235 C237 1.419 . S
C236 C234 1.415 . S
C236 C241 1.425 . S
C236 C243 1.409 . S
C237 H229 0.930 . S
C237 C235 1.419 . S
C237 C238 1.362 . S
C238 H230 0.930 . S
C238 C237 1.362 . S
C238 C241 1.409 . S
C239 H231 0.930 . S
C239 C240 1.355 . S
C239 C241 1.415 . S
C240 C239 1.355 . S
C240 C242 1.419 . S
C241 C236 1.425 . S
C241 C238 1.409 . S
C241 C239 1.415 . S
C242 H232 0.930 . S
C242 C240 1.419 . S
C242 C243 1.362 . S
C243 H233 0.930 . S
C243 C236 1.409 . S
C243 C242 1.362 . S
H244 C250 0.930 . S
H245 C253 0.930 . S
H246 C254 0.930 . S
H247 C255 0.930 . S
H248 C258 0.930 . S
H249 C259 0.930 . S
C250 H244 0.930 . S
C250 C251 1.355 . S
C250 C252 1.415 . S
C251 C250 1.355 . S
C251 C253 1.419 . S
C252 C250 1.415 . S
C252 C257 1.425 . S
C252 C259 1.409 . S
C253 H245 0.930 . S
C253 C251 1.419 . S
C253 C254 1.362 . S
C254 H246 0.930 . S
C254 C253 1.362 . S
C254 C257 1.409 . S
C255 H247 0.930 . S
C255 C256 1.355 . S
C255 C257 1.415 . S
C256 C255 1.355 . S
C256 C258 1.419 . S
C257 C252 1.425 . S
C257 C254 1.409 . S
C257 C255 1.415 . S
C258 H248 0.930 . S
C258 C256 1.419 . S
C258 C259 1.362 . S
C259 H249 0.930 . S
C259 C252 1.409 . S
C259 C258 1.362 . S
H260 C266 0.930 . S
H261 C269 0.930 . S
H262 C270 0.930 . S
H263 C271 0.930 . S
H264 C274 0.930 . S
H265 C275 0.930 . S
C266 H260 0.930 . S
C266 C267 1.355 . S
C266 C268 1.415 . S
C267 C266 1.355 . S
C267 C269 1.419 . S
C268 C266 1.415 . S
C268 C273 1.425 . S
C268 C275 1.409 . S
C269 H261 0.930 . S
C269 C267 1.419 . S
C269 C270 1.362 . S
C270 H262 0.930 . S
C270 C269 1.362 . S
C270 C273 1.409 . S
C271 H263 0.930 . S
C271 C272 1.355 . S
C271 C273 1.415 . S
C272 C271 1.355 . S
C272 C274 1.419 . S
C273 C268 1.425 . S
C273 C270 1.409 . S
C273 C271 1.415 . S
C274 H264 0.930 . S
C274 C272 1.419 . S
C274 C275 1.362 . S
C275 H265 0.930 . S
C275 C268 1.409 . S
C275 C274 1.362 . S
H276 C282 0.930 . S
H277 C285 0.930 . S
H278 C286 0.930 . S
H279 C287 0.930 . S
H280 C290 0.930 . S
H281 C291 0.930 . S
C282 H276 0.930 . S
C282 C283 1.355 . S
C282 C284 1.415 . S
C283 C282 1.355 . S
C283 C285 1.419 . S
C284 C282 1.415 . S
C284 C289 1.425 . S
C284 C291 1.409 . S
C285 H277 0.930 . S
C285 C283 1.419 . S
C285 C286 1.362 . S
C286 H278 0.930 . S
C286 C285 1.362 . S
C286 C289 1.409 . S
C287 H279 0.930 . S
C287 C288 1.355 . S
C287 C289 1.415 . S
C288 C287 1.355 . S
C288 C290 1.419 . S
C289 C284 1.425 . S
C289 C286 1.409 . S
C289 C287 1.415 . S
C290 H280 0.930 . S
C290 C288 1.419 . S
C290 C291 1.362 . S
C291 H281 0.930 . S
C291 C284 1.409 . S
C291 C290 1.362 . S
H292 C298 0.930 . S
H293 C301 0.930 . S
H294 C302 0.930 . S
H295 C303 0.930 . S
H296 C306 0.930 . S
H297 C307 0.930 . S
C298 H292 0.930 . S
C298 C299 1.355 . S
C298 C300 1.415 . S
C299 C298 1.355 . S
C299 C301 1.419 . S
C300 C298 1.415 . S
C300 C305 1.425 . S
C300 C307 1.409 . S
C301 H293 0.930 . S
C301 C299 1.419 . S
C301 C302 1.362 . S
C302 H294 0.930 . S
C302 C301 1.362 . S
C302 C305 1.409 . S
C303 H295 0.930 . S
C303 C304 1.355 . S
C303 C305 1.415 . S
C304 C303 1.355 . S
C304 C306 1.419 . S
C305 C300 1.425 . S
C305 C302 1.409 . S
C305 C303 1.415 . S
C306 H296 0.930 . S
C306 C304 1.419 . S
C306 C307 1.362 . S
C307 H297 0.930 . S
C307 C300 1.409 . S
C307 C306 1.362 . S
H308 C314 0.930 . S
H309 C317 0.930 . S
H310 C318 0.930 . S
H311 C319 0.930 . S
H312 C322 0.930 . S
H313 C323 0.930 . S
C314 H308 0.930 . S
C314 C315 1.355 . S
C314 C316 1.415 . S
C315 C314 1.355 . S
C315 C317 1.419 . S
C316 C314 1.415 . S
C316 C321 1.425 . S
C316 C323 1.409 . S
C317 H309 0.930 . S
C317 C315 1.419 . S
C317 C318 1.362 . S
C318 H310 0.930 . S
C318 C317 1.362 . S
C318 C321 1.409 . S
C319 H311 0.930 . S
C319 C320 1.355 . S
C319 C321 1.415 . S
C320 C319 1.355 . S
C320 C322 1.419 . S
C321 C316 1.425 . S
C321 C318 1.409 . S
C321 C319 1.415 . S
C322 H312 0.930 . S
C322 C320 1.419 . S
C322 C323 1.362 . S
C323 H313 0.930 . S
C323 C316 1.409 . S
C323 C322 1.362 . S
H324 C330 0.930 . S
H325 C333 0.930 . S
H326 C334 0.930 . S
H327 C335 0.930 . S
H328 C338 0.930 . S
H329 C339 0.930 . S
C330 H324 0.930 . S
C330 C331 1.355 . S
C330 C332 1.407 1_554 S
C331 C330 1.355 . S
C331 C333 1.419 . S
C332 C330 1.407 1_556 S
C332 C337 1.424 1_546 S
C332 C339 1.418 1_545 S
C333 H325 0.930 . S
C333 C331 1.419 . S
C333 C334 1.362 . S
C334 H326 0.930 . S
C334 C333 1.362 . S
C334 C337 1.418 1_545 S
C335 H327 0.930 . S
C335 C336 1.355 . S
C335 C337 1.407 1_556 S
C336 C335 1.355 . S
C336 C338 1.419 . S
C337 C332 1.424 1_564 S
C337 C334 1.418 1_565 S
C337 C335 1.407 1_554 S
C338 H328 0.930 . S
C338 C336 1.419 . S
C338 C339 1.362 . S
C339 H329 0.930 . S
C339 C332 1.418 1_565 S
C339 C338 1.362 . S
H340 C346 0.930 . S
H341 C349 0.930 . S
H342 C350 0.930 . S
H343 C351 0.930 . S
H344 C354 0.930 . S
H345 C355 0.930 . S
C346 H340 0.930 . S
C346 C347 1.355 . S
C346 C348 1.415 . S
C347 C346 1.355 . S
C347 C349 1.419 . S
C348 C346 1.415 . S
C348 C353 1.425 . S
C348 C355 1.409 . S
C349 H341 0.930 . S
C349 C347 1.419 . S
C349 C350 1.362 . S
C350 H342 0.930 . S
C350 C349 1.362 . S
C350 C353 1.409 . S
C351 H343 0.930 . S
C351 C352 1.355 . S
C351 C353 1.415 . S
C352 C351 1.355 . S
C352 C354 1.419 . S
C353 C348 1.425 . S
C353 C350 1.409 . S
C353 C351 1.415 . S
C354 H344 0.930 . S
C354 C352 1.419 . S
C354 C355 1.362 . S
C355 H345 0.930 . S
C355 C348 1.409 . S
C355 C354 1.362 . S
H356 C362 0.930 . S
H357 C365 0.930 . S
H358 C366 0.930 . S
H359 C367 0.930 . S
H360 C370 0.930 . S
H361 C371 0.930 . S
C362 H356 0.930 . S
C362 C363 1.355 . S
C362 C364 1.438 . S
C363 C362 1.355 . S
C363 C365 1.419 . S
C364 C362 1.438 . S
C364 C369 1.447 1_455 S
C364 C371 1.377 1_455 S
C365 H357 0.930 . S
C365 C363 1.419 . S
C365 C366 1.362 . S
C366 H358 0.930 . S
C366 C365 1.362 . S
C366 C369 1.376 1_455 S
C367 H359 0.930 . S
C367 C368 1.355 . S
C367 C369 1.438 . S
C368 C367 1.355 . S
C368 C370 1.419 . S
C369 C364 1.447 1_655 S
C369 C366 1.376 1_655 S
C369 C367 1.438 . S
C370 H360 0.930 . S
C370 C368 1.419 . S
C370 C371 1.362 . S
C371 H361 0.930 . S
C371 C364 1.377 1_655 S
C371 C370 1.362 . S
H372 C378 0.930 . S
H373 C381 0.930 . S
H374 C382 0.930 . S
H375 C383 0.930 . S
H376 C386 0.930 . S
H377 C387 0.930 . S
C378 H372 0.930 . S
C378 C379 1.355 . S
C378 C380 1.415 . S
C379 C378 1.355 . S
C379 C381 1.419 . S
C380 C378 1.415 . S
C380 C385 1.425 1_545 S
C380 C387 1.409 1_545 S
C381 H373 0.930 . S
C381 C379 1.419 . S
C381 C382 1.362 . S
C382 H374 0.930 . S
C382 C381 1.362 . S
C382 C385 1.409 1_545 S
C383 H375 0.930 . S
C383 C384 1.355 . S
C383 C385 1.415 . S
C384 C383 1.355 . S
C384 C386 1.419 . S
C385 C380 1.425 1_565 S
C385 C382 1.409 1_565 S
C385 C383 1.415 . S
C386 H376 0.930 . S
C386 C384 1.419 . S
C386 C387 1.362 . S
C387 H377 0.930 . S
C387 C380 1.409 1_565 S
C387 C386 1.362 . S
H388 C394 0.930 . S
H389 C397 0.930 . S
H390 C398 0.930 . S
H391 C399 0.930 . S
H392 C402 0.930 . S
H393 C403 0.930 . S
C394 H388 0.930 . S
C394 C395 1.355 . S
C394 C396 1.415 . S
C395 C394 1.355 . S
C395 C397 1.419 . S
C396 C394 1.415 . S
C396 C401 1.425 . S
C396 C403 1.409 . S
C397 H389 0.930 . S
C397 C395 1.419 . S
C397 C398 1.362 . S
C398 H390 0.930 . S
C398 C397 1.362 . S
C398 C401 1.409 . S
C399 H391 0.930 . S
C399 C400 1.355 . S
C399 C401 1.415 . S
C400 C399 1.355 . S
C400 C402 1.419 . S
C401 C396 1.425 . S
C401 C398 1.409 . S
C401 C399 1.415 . S
C402 H392 0.930 . S
C402 C400 1.419 . S
C402 C403 1.362 . S
C403 H393 0.930 . S
C403 C396 1.409 . S
C403 C402 1.362 . S
H404 C410 0.930 . S
H405 C413 0.930 . S
H406 C414 0.930 1_455 S
H407 C415 0.930 . S
H408 C418 0.930 . S
H409 C419 0.930 1_655 S
C410 H404 0.930 . S
C410 C411 1.355 . S
C410 C412 1.415 . S
C411 C410 1.355 . S
C411 C413 1.419 . S
C412 C410 1.415 . S
C412 C417 1.425 1_655 S
C412 C419 1.409 1_655 S
C413 H405 0.930 . S
C413 C411 1.419 . S
C413 C414 1.362 . S
C414 H406 0.930 1_655 S
C414 C413 1.362 . S
C414 C417 1.409 1_655 S
C415 H407 0.930 . S
C415 C416 1.355 . S
C415 C417 1.415 . S
C416 C415 1.355 . S
C416 C418 1.419 . S
C417 C412 1.425 1_455 S
C417 C414 1.409 1_455 S
C417 C415 1.415 . S
C418 H408 0.930 . S
C418 C416 1.419 . S
C418 C419 1.362 . S
C419 H409 0.930 1_455 S
C419 C412 1.409 1_455 S
C419 C418 1.362 . S
C139 C7 1.523 . S
C144 C117 1.579 . S
C155 C128 1.524 . S
C160 C18 1.498 . S
C171 C73 1.578 . S
C176 C29 1.521 . S
C187 C40 1.568 . S
C192 C84 1.507 . S
C203 C95 1.558 1_556 S
C208 C51 1.500 . S
C219 C62 1.497 1_554 S
C224 C106 1.525 . S
C235 C5 1.390 . S
C240 C93 1.298 . S
C251 C104 1.389 . S
C256 C16 1.289 . S
C267 C27 1.352 . S
C272 C115 1.372 . S
C283 C126 1.386 . S
C288 C38 1.278 . S
C299 C49 1.279 . S
C304 C71 1.270 . S
C315 C60 1.383 . S
C320 C82 1.271 . S
C331 C8 1.582 . S
C336 C85 1.550 . S
C347 C96 1.595 . S
C352 C19 1.559 . S
C363 C107 1.584 . S
C368 C30 1.601 . S
C379 C118 1.591 . S
C384 C41 1.555 . S
C395 C52 1.552 . S
C400 C129 1.564 . S
C411 C74 1.566 . S
C416 C63 1.551 . S
