# Generated by pormake.
# Topology smn, (6)-cn, num edge types: 1
# Building blocks:
#     Node 0, Type 0, BuildingBlock: OJICUG_clean_sbu_0, # of connection points: 6
#     Node 1, Type 0, BuildingBlock: OJICUG_clean_sbu_0, # of connection points: 6
#     Node 2, Type 0, BuildingBlock: OJICUG_clean_sbu_0, # of connection points: 6
#     Node 3, Type 0, BuildingBlock: OJICUG_clean_sbu_0, # of connection points: 6
#     Node 4, Type 0, BuildingBlock: OJICUG_clean_sbu_0, # of connection points: 6
#     Node 5, Type 0, BuildingBlock: OJICUG_clean_sbu_0, # of connection points: 6
#     Node 6, Type 0, BuildingBlock: OJICUG_clean_sbu_0, # of connection points: 6
#     Node 7, Type 0, BuildingBlock: OJICUG_clean_sbu_0, # of connection points: 6
#     Node 8, Type 0, BuildingBlock: OJICUG_clean_sbu_0, # of connection points: 6
#     Node 9, Type 0, BuildingBlock: OJICUG_clean_sbu_0, # of connection points: 6
#     Node 10, Type 0, BuildingBlock: OJICUG_clean_sbu_0, # of connection points: 6
#     Node 11, Type 0, BuildingBlock: OJICUG_clean_sbu_0, # of connection points: 6
#     Node 12, Type 0, BuildingBlock: OJICUG_clean_sbu_0, # of connection points: 6
#     Node 13, Type 0, BuildingBlock: OJICUG_clean_sbu_0, # of connection points: 6
#     Node 14, Type 0, BuildingBlock: OJICUG_clean_sbu_0, # of connection points: 6
#     Node 15, Type 0, BuildingBlock: OJICUG_clean_sbu_0, # of connection points: 6
#     Node 16, Type 0, BuildingBlock: OJICUG_clean_sbu_0, # of connection points: 6
#     Node 17, Type 0, BuildingBlock: OJICUG_clean_sbu_0, # of connection points: 6
#     Edge 18, Type (0, 0), BuildingBlock: AJUNOK_clean_linker_0, # of connection points: 2
#     Edge 19, Type (0, 0), BuildingBlock: AJUNOK_clean_linker_0, # of connection points: 2
#     Edge 20, Type (0, 0), BuildingBlock: AJUNOK_clean_linker_0, # of connection points: 2
#     Edge 21, Type (0, 0), BuildingBlock: AJUNOK_clean_linker_0, # of connection points: 2
#     Edge 22, Type (0, 0), BuildingBlock: AJUNOK_clean_linker_0, # of connection points: 2
#     Edge 23, Type (0, 0), BuildingBlock: AJUNOK_clean_linker_0, # of connection points: 2
#     Edge 24, Type (0, 0), BuildingBlock: AJUNOK_clean_linker_0, # of connection points: 2
#     Edge 25, Type (0, 0), BuildingBlock: AJUNOK_clean_linker_0, # of connection points: 2
#     Edge 26, Type (0, 0), BuildingBlock: AJUNOK_clean_linker_0, # of connection points: 2
#     Edge 27, Type (0, 0), BuildingBlock: AJUNOK_clean_linker_0, # of connection points: 2
#     Edge 28, Type (0, 0), BuildingBlock: AJUNOK_clean_linker_0, # of connection points: 2
#     Edge 29, Type (0, 0), BuildingBlock: AJUNOK_clean_linker_0, # of connection points: 2
#     Edge 30, Type (0, 0), BuildingBlock: AJUNOK_clean_linker_0, # of connection points: 2
#     Edge 31, Type (0, 0), BuildingBlock: AJUNOK_clean_linker_0, # of connection points: 2
#     Edge 32, Type (0, 0), BuildingBlock: AJUNOK_clean_linker_0, # of connection points: 2
#     Edge 33, Type (0, 0), BuildingBlock: AJUNOK_clean_linker_0, # of connection points: 2
#     Edge 34, Type (0, 0), BuildingBlock: AJUNOK_clean_linker_0, # of connection points: 2
#     Edge 35, Type (0, 0), BuildingBlock: AJUNOK_clean_linker_0, # of connection points: 2
#     Edge 36, Type (0, 0), BuildingBlock: AJUNOK_clean_linker_0, # of connection points: 2
#     Edge 37, Type (0, 0), BuildingBlock: AJUNOK_clean_linker_0, # of connection points: 2
#     Edge 38, Type (0, 0), BuildingBlock: AJUNOK_clean_linker_0, # of connection points: 2
#     Edge 39, Type (0, 0), BuildingBlock: AJUNOK_clean_linker_0, # of connection points: 2
#     Edge 40, Type (0, 0), BuildingBlock: AJUNOK_clean_linker_0, # of connection points: 2
#     Edge 41, Type (0, 0), BuildingBlock: AJUNOK_clean_linker_0, # of connection points: 2
#     Edge 42, Type (0, 0), BuildingBlock: AJUNOK_clean_linker_0, # of connection points: 2
#     Edge 43, Type (0, 0), BuildingBlock: AJUNOK_clean_linker_0, # of connection points: 2
#     Edge 44, Type (0, 0), BuildingBlock: AJUNOK_clean_linker_0, # of connection points: 2
#     Edge 45, Type (0, 0), BuildingBlock: AJUNOK_clean_linker_0, # of connection points: 2
#     Edge 46, Type (0, 0), BuildingBlock: AJUNOK_clean_linker_0, # of connection points: 2
#     Edge 47, Type (0, 0), BuildingBlock: AJUNOK_clean_linker_0, # of connection points: 2
#     Edge 48, Type (0, 0), BuildingBlock: AJUNOK_clean_linker_0, # of connection points: 2
#     Edge 49, Type (0, 0), BuildingBlock: AJUNOK_clean_linker_0, # of connection points: 2
#     Edge 50, Type (0, 0), BuildingBlock: AJUNOK_clean_linker_0, # of connection points: 2
#     Edge 51, Type (0, 0), BuildingBlock: AJUNOK_clean_linker_0, # of connection points: 2
#     Edge 52, Type (0, 0), BuildingBlock: AJUNOK_clean_linker_0, # of connection points: 2
#     Edge 53, Type (0, 0), BuildingBlock: AJUNOK_clean_linker_0, # of connection points: 2
#     Edge 54, Type (0, 0), BuildingBlock: AJUNOK_clean_linker_0, # of connection points: 2
#     Edge 55, Type (0, 0), BuildingBlock: AJUNOK_clean_linker_0, # of connection points: 2
#     Edge 56, Type (0, 0), BuildingBlock: AJUNOK_clean_linker_0, # of connection points: 2
#     Edge 57, Type (0, 0), BuildingBlock: AJUNOK_clean_linker_0, # of connection points: 2
#     Edge 58, Type (0, 0), BuildingBlock: AJUNOK_clean_linker_0, # of connection points: 2
#     Edge 59, Type (0, 0), BuildingBlock: AJUNOK_clean_linker_0, # of connection points: 2
#     Edge 60, Type (0, 0), BuildingBlock: AJUNOK_clean_linker_0, # of connection points: 2
#     Edge 61, Type (0, 0), BuildingBlock: AJUNOK_clean_linker_0, # of connection points: 2
#     Edge 62, Type (0, 0), BuildingBlock: AJUNOK_clean_linker_0, # of connection points: 2
#     Edge 63, Type (0, 0), BuildingBlock: AJUNOK_clean_linker_0, # of connection points: 2
#     Edge 64, Type (0, 0), BuildingBlock: AJUNOK_clean_linker_0, # of connection points: 2
#     Edge 65, Type (0, 0), BuildingBlock: AJUNOK_clean_linker_0, # of connection points: 2
#     Edge 66, Type (0, 0), BuildingBlock: AJUNOK_clean_linker_0, # of connection points: 2
#     Edge 67, Type (0, 0), BuildingBlock: AJUNOK_clean_linker_0, # of connection points: 2
#     Edge 68, Type (0, 0), BuildingBlock: AJUNOK_clean_linker_0, # of connection points: 2
#     Edge 69, Type (0, 0), BuildingBlock: AJUNOK_clean_linker_0, # of connection points: 2
#     Edge 70, Type (0, 0), BuildingBlock: AJUNOK_clean_linker_0, # of connection points: 2
#     Edge 71, Type (0, 0), BuildingBlock: AJUNOK_clean_linker_0, # of connection points: 2
# Relax obj value: 0.148
# Max RMSD: 0.236
# Mean RMSD: 0.236
data_MOF--net-smn--node1-OJICUG_clean_sbu_0--edge1-AJUNOK_clean_linker_0
_symmetry_space_group_name_H-M    P1
_symmetry_Int_Tables_number       1
_symmetry_cell_setting            triclinic
loop_
_symmetry_equiv_pos_as_xyz
'x, y, z'
_cell_length_a     49.224813
_cell_length_b     49.292905
_cell_length_c     13.821987
_cell_angle_alpha  89.936054
_cell_angle_beta   90.112806
_cell_angle_gamma 119.95974
loop_
_atom_site_label
_atom_site_type_symbol
_atom_site_fract_x
_atom_site_fract_y
_atom_site_fract_z
_atom_type_partial_charge
Sc0 Sc 0.01562 0.16507 0.7449 0.0
Sc1 Sc 0.03675 0.23727 0.85344 0.0
Sc2 Sc 0.99398 0.21597 0.63635 0.0
O3 O 0.01541 0.20605 0.74493 0.0
C4 C 0.03686 0.19256 0.53355 0.0
C5 C 0.08225 0.20829 0.84157 0.0
C6 C 0.05657 0.28191 0.67111 0.0
C7 C 0.99401 0.17096 0.95634 0.0
C8 C 0.94901 0.1416 0.64726 0.0
C9 C 0.97451 0.24159 0.81722 0.0
O10 O 0.03541 0.17481 0.60267 0.0
O11 O 0.07659 0.2297 0.86768 0.0
O12 O 0.03045 0.26418 0.63012 0.0
O13 O 0.9959 0.15487 0.8874 0.0
O14 O 0.95428 0.16866 0.62257 0.0
O15 O 1.00045 0.24936 0.85865 0.0
O16 O 0.96924 0.13764 0.69129 0.0
O17 O 1.00817 0.20087 0.95716 0.0
O18 O 0.96649 0.22668 0.73708 0.0
O19 O 0.06211 0.18409 0.7979 0.0
O20 O 0.02237 0.208 0.53266 0.0
O21 O 0.06432 0.27517 0.75211 0.0
Sc22 Sc 0.78708 0.80573 0.85382 0.0
Sc23 Sc 0.80872 0.78383 0.63919 0.0
Sc24 Sc 0.85965 0.85648 0.74629 0.0
O25 O 0.81855 0.81542 0.7464 0.0
C26 C 0.81631 0.88007 0.84113 0.0
C27 C 0.74253 0.7803 0.671 0.0
C28 C 0.83188 0.84985 0.53465 0.0
C29 C 0.78392 0.7398 0.82258 0.0
C30 C 0.85348 0.82905 0.95804 0.0
C31 C 0.88323 0.81337 0.64989 0.0
O32 O 0.79463 0.85304 0.86635 0.0
O33 O 0.76026 0.77151 0.63246 0.0
O34 O 0.84977 0.86627 0.6035 0.0
O35 O 0.77504 0.75746 0.86108 0.0
O36 O 0.86981 0.84686 0.88905 0.0
O37 O 0.85613 0.79162 0.62539 0.0
O38 O 0.8235 0.81368 0.95853 0.0
O39 O 0.79874 0.7464 0.74233 0.0
O40 O 0.88721 0.83758 0.69339 0.0
O41 O 0.74927 0.79531 0.751 0.0
O42 O 0.84071 0.88405 0.79885 0.0
O43 O 0.8164 0.81993 0.53439 0.0
Sc44 Sc 0.16907 0.00969 0.74734 0.0
Sc45 Sc 0.21904 0.98698 0.85554 0.0
Sc46 Sc 0.24167 0.0309 0.64105 0.0
O47 O 0.20991 0.00922 0.74799 0.0
C48 C 0.17523 0.98846 0.53609 0.0
C49 C 0.14442 0.94321 0.84494 0.0
C50 C 0.24425 0.96767 0.67497 0.0
C51 C 0.19696 0.03089 0.95895 0.0
C52 C 0.21265 0.07626 0.65136 0.0
C53 C 0.28699 0.04724 0.81868 0.0
O54 O 0.15889 0.99005 0.6048 0.0
O55 O 0.17123 0.94815 0.87161 0.0
O56 O 0.25307 0.99412 0.63573 0.0
O57 O 0.17883 0.02915 0.8903 0.0
O58 O 0.23458 0.0711 0.62717 0.0
O59 O 0.26777 0.02139 0.85795 0.0
O60 O 0.18845 0.05596 0.69452 0.0
O61 O 0.21251 0.01646 0.95941 0.0
O62 O 0.28014 0.05762 0.74316 0.0
O63 O 0.14105 0.96349 0.79944 0.0
O64 O 0.20521 1.00282 0.53605 0.0
O65 O 0.22851 0.95902 0.75357 0.0
Sc66 Sc 0.01409 0.85501 0.24789 0.0
Sc67 Sc 0.99229 0.78259 0.13889 0.0
Sc68 Sc 0.03528 0.80378 0.35585 0.0
O69 O 0.01387 0.81381 0.24753 0.0
C70 C 0.08063 0.87821 0.34592 0.0
C71 C 0.03495 0.84887 0.03579 0.0
C72 C 0.05477 0.77848 0.17343 0.0
C73 C 0.94742 0.81231 0.14995 0.0
C74 C 0.99269 0.82759 0.45935 0.0
C75 C 0.97281 0.73758 0.32054 0.0
O76 O 0.06052 0.88231 0.30174 0.0
O77 O 0.02048 0.81896 0.03476 0.0
O78 O 0.06269 0.79316 0.25409 0.0
O79 O 0.96777 0.83634 0.19396 0.0
O80 O 1.0069 0.81184 0.45993 0.0
O81 O 0.96492 0.74438 0.23986 0.0
O82 O 0.9943 0.84542 0.39022 0.0
O83 O 0.95249 0.79037 0.12539 0.0
O84 O 0.99882 0.75552 0.36179 0.0
O85 O 0.03373 0.86509 0.10552 0.0
O86 O 0.07515 0.85106 0.37038 0.0
O87 O 0.02877 0.77067 0.13224 0.0
Sc88 Sc 0.24246 0.21527 0.1379 0.0
Sc89 Sc 0.22136 0.23701 0.35543 0.0
Sc90 Sc 0.16994 0.16514 0.24644 0.0
O91 O 0.21129 0.20581 0.24662 0.0
C92 C 0.17605 0.19272 0.03523 0.0
C93 C 0.24592 0.28144 0.1721 0.0
C94 C 0.14709 0.20831 0.3458 0.0
C95 C 0.28763 0.24077 0.32042 0.0
C96 C 0.21239 0.14095 0.14813 0.0
C97 C 0.19761 0.17051 0.4575 0.0
O98 O 0.20598 0.20671 0.03269 0.0
O99 O 0.23228 0.27508 0.25433 0.0
O100 O 0.14298 0.18395 0.30331 0.0
O101 O 0.28086 0.22642 0.23925 0.0
O102 O 0.18804 0.13761 0.18899 0.0
O103 O 0.21283 0.20042 0.45934 0.0
O104 O 0.23512 0.16785 0.12645 0.0
O105 O 0.26945 0.24837 0.36222 0.0
O106 O 0.18014 0.15437 0.38748 0.0
O107 O 0.25363 0.2634 0.12979 0.0
O108 O 0.15967 0.17611 0.10604 0.0
O109 O 0.17428 0.2302 0.36892 0.0
Sc110 Sc 0.8592 0.01003 0.24384 0.0
Sc111 Sc 0.80888 0.03291 0.13811 0.0
Sc112 Sc 0.78749 0.98959 0.35424 0.0
O113 O 0.81856 0.01088 0.24541 0.0
C114 C 0.81615 0.94395 0.34292 0.0
C115 C 0.83056 0.98881 0.03322 0.0
C116 C 0.7417 0.97194 0.17723 0.0
C117 C 0.88359 0.07654 0.14551 0.0
C118 C 0.85436 0.03194 0.45557 0.0
C119 C 0.78384 0.0523 0.31975 0.0
O120 O 0.84017 0.96396 0.2984 0.0
O121 O 0.81562 1.00385 0.03304 0.0
O122 O 0.74888 0.96254 0.25414 0.0
O123 O 0.88694 0.05592 0.18899 0.0
O124 O 0.82442 0.01776 0.45721 0.0
O125 O 0.79908 0.06072 0.24019 0.0
O126 O 0.87031 0.03025 0.38576 0.0
O127 O 0.85668 0.07207 0.12178 0.0
O128 O 0.77585 0.02621 0.36022 0.0
O129 O 0.84825 0.98977 0.10206 0.0
O130 O 0.79454 0.94945 0.36813 0.0
O131 O 0.7601 0.99787 0.13663 0.0
Sc132 Sc 0.67751 0.50055 0.07889 0.0
Sc133 Sc 0.7018 0.5729 0.19242 0.0
Sc134 Sc 0.66346 0.55636 0.96745 0.0
O135 O 0.68097 0.54327 0.07957 0.0
C136 C 0.70376 0.52912 0.87053 0.0
C137 C 0.74381 0.54001 0.18325 0.0
C138 C 0.72626 0.62045 0.01699 0.0
C139 C 0.65504 0.50634 0.28834 0.0
C140 C 0.6141 0.48281 0.97022 0.0
C141 C 0.642 0.58075 0.14756 0.0
O142 O 0.69844 0.50948 0.93807 0.0
O143 O 0.73972 0.56252 0.20869 0.0
O144 O 0.7011 0.60374 0.97043 0.0
O145 O 0.65624 0.49034 0.21826 0.0
O146 O 0.62303 0.51049 0.94152 0.0
O147 O 0.66677 0.58674 0.19364 0.0
O148 O 0.63105 0.47616 0.0222 0.0
O149 O 0.67087 0.53619 0.29236 0.0
O150 O 0.63522 0.56733 0.06472 0.0
O151 O 0.72319 0.51666 0.13694 0.0
O152 O 0.69277 0.54775 0.86907 0.0
O153 O 0.73221 0.61208 0.09811 0.0
Sc154 Sc 0.52543 0.18971 0.07749 0.0
Sc155 Sc 0.45432 0.13656 0.18801 0.0
Sc156 Sc 0.47646 0.11667 0.9702 0.0
O157 O 0.48547 0.14766 0.07864 0.0
C158 C 0.49732 0.18217 0.8661 0.0
C159 C 0.47997 0.2103 0.17306 0.0
C160 C 0.4085 0.10826 0.01077 0.0
C161 C 0.52134 0.16352 0.29028 0.0
C162 C 0.55141 0.14904 0.98021 0.0
C163 C 0.45307 0.07156 0.15034 0.0
O164 O 0.51559 0.19867 0.93395 0.0
O165 O 0.45997 0.18311 0.20283 0.0
O166 O 0.42734 0.10142 0.9697 0.0
O167 O 0.53641 0.18201 0.22112 0.0
O168 O 0.52473 0.12716 0.95267 0.0
O169 O 0.44422 0.08879 0.19209 0.0
O170 O 0.5545 0.17229 0.02743 0.0
O171 O 0.49156 0.14585 0.291 0.0
O172 O 0.46832 0.07922 0.07079 0.0
O173 O 0.50407 0.21528 0.12683 0.0
O174 O 0.48167 0.15228 0.86675 0.0
O175 O 0.41542 0.12461 0.08802 0.0
Sc176 Sc 0.83873 0.34385 0.0764 0.0
Sc177 Sc 0.88947 0.32287 0.18964 0.0
Sc178 Sc 0.91111 0.36414 0.9694 0.0
O179 O 0.87979 0.34362 0.07845 0.0
C180 C 0.84461 0.32082 0.86775 0.0
C181 C 0.81529 0.27763 0.17632 0.0
C182 C 0.91452 0.30175 0.0103 0.0
C183 C 0.86609 0.36668 0.28677 0.0
C184 C 0.88275 0.41 0.97773 0.0
C185 C 0.95573 0.38471 0.15302 0.0
O186 O 0.82836 0.32226 0.93696 0.0
O187 O 0.8424 0.28295 0.20091 0.0
O188 O 0.92173 0.32686 0.96489 0.0
O189 O 0.84892 0.36537 0.216 0.0
O190 O 0.90453 0.40446 0.95519 0.0
O191 O 0.93734 0.35952 0.19707 0.0
O192 O 0.85787 0.38976 0.01832 0.0
O193 O 0.88076 0.35143 0.29086 0.0
O194 O 0.94961 0.3915 0.06957 0.0
O195 O 0.81113 0.29799 0.13423 0.0
O196 O 0.87453 0.33599 0.86557 0.0
O197 O 0.90103 0.29519 0.09271 0.0
Sc198 Sc 0.66048 0.11823 0.46904 0.0
Sc199 Sc 0.70179 0.13675 0.69018 0.0
Sc200 Sc 0.68533 0.19097 0.58057 0.0
O201 O 0.68249 0.14859 0.57989 0.0
C202 C 0.70627 0.18439 0.36923 0.0
C203 C 0.72099 0.11077 0.50878 0.0
C204 C 0.75033 0.21034 0.68241 0.0
C205 C 0.63817 0.0721 0.64901 0.0
C206 C 0.61862 0.15116 0.47904 0.0
C207 C 0.66139 0.16353 0.79065 0.0
O208 O 0.68971 0.15457 0.36567 0.0
O209 O 0.72816 0.12426 0.59127 0.0
O210 O 0.73134 0.21598 0.63783 0.0
O211 O 0.63162 0.07962 0.56731 0.0
O212 O 0.63998 0.17458 0.52256 0.0
O213 O 0.67438 0.14667 0.7924 0.0
O214 O 0.6217 0.12782 0.45604 0.0
O215 O 0.66361 0.08951 0.69368 0.0
O216 O 0.66432 0.18181 0.72125 0.0
O217 O 0.69617 0.10501 0.46319 0.0
O218 O 0.70654 0.20076 0.44066 0.0
O219 O 0.74327 0.18273 0.7067 0.0
Sc220 Sc 0.90806 0.55087 0.46679 0.0
Sc221 Sc 0.88689 0.57015 0.68935 0.0
Sc222 Sc 0.83744 0.49776 0.57878 0.0
O223 O 0.8775 0.53971 0.57818 0.0
C224 C 0.84006 0.52528 0.36975 0.0
C225 C 0.91119 0.61649 0.5094 0.0
C226 C 0.81239 0.53866 0.68313 0.0
C227 C 0.95417 0.57647 0.64779 0.0
C228 C 0.88132 0.47694 0.47321 0.0
C229 C 0.86631 0.50355 0.78755 0.0
O230 O 0.87002 0.54121 0.36592 0.0
O231 O 0.8977 0.6093 0.59194 0.0
O232 O 0.80962 0.51471 0.64143 0.0
O233 O 0.94763 0.56323 0.5647 0.0
O234 O 0.85687 0.47207 0.51693 0.0
O235 O 0.87927 0.53336 0.79242 0.0
O236 O 0.90274 0.50441 0.45079 0.0
O237 O 0.93526 0.58218 0.69389 0.0
O238 O 0.84996 0.48739 0.71609 0.0
O239 O 0.9179 0.59843 0.46285 0.0
O240 O 0.82485 0.50765 0.44041 0.0
O241 O 0.83914 0.56199 0.70314 0.0
Sc242 Sc 0.47207 0.36295 0.4675 0.0
Sc243 Sc 0.45575 0.3236 0.69173 0.0
Sc244 Sc 0.52537 0.34344 0.56811 0.0
O245 O 0.48424 0.34323 0.5757 0.0
C246 C 0.49427 0.31895 0.36368 0.0
C247 C 0.40748 0.30021 0.51546 0.0
C248 C 0.48504 0.27871 0.67856 0.0
C249 C 0.44884 0.38401 0.6527 0.0
C250 C 0.54583 0.40902 0.46787 0.0
C251 C 0.52466 0.37039 0.77518 0.0
O252 O 0.48067 0.33528 0.36133 0.0
O253 O 0.41508 0.29484 0.599 0.0
O254 O 0.50877 0.29892 0.63331 0.0
O255 O 0.46053 0.38999 0.56766 0.0
O256 O 0.55088 0.38821 0.50207 0.0
O257 O 0.49495 0.35387 0.78746 0.0
O258 O 0.51828 0.40408 0.45247 0.0
O259 O 0.44401 0.35988 0.6996 0.0
O260 O 0.53894 0.36767 0.70248 0.0
O261 O 0.42487 0.32473 0.4669 0.0
O262 O 0.51155 0.31953 0.43301 0.0
O263 O 0.46317 0.28376 0.70394 0.0
Sc264 Sc 0.34869 0.83407 0.40705 0.0
Sc265 Sc 0.3693 0.90541 0.52103 0.0
Sc266 Sc 0.32737 0.8856 0.30133 0.0
O267 O 0.34851 0.87509 0.4097 0.0
C268 C 0.36863 0.86108 0.19454 0.0
C269 C 0.41527 0.87689 0.50431 0.0
C270 C 0.39037 0.95115 0.34011 0.0
C271 C 0.32679 0.83831 0.61965 0.0
C272 C 0.28145 0.81167 0.31507 0.0
C273 C 0.30762 0.91062 0.48386 0.0
O274 O 0.36801 0.84393 0.26427 0.0
O275 O 0.40927 0.89786 0.53316 0.0
O276 O 0.36498 0.93331 0.2955 0.0
O277 O 0.3292 0.82288 0.54973 0.0
O278 O 0.28678 0.83875 0.29032 0.0
O279 O 0.33272 0.91715 0.52865 0.0
O280 O 0.3021 0.80746 0.35502 0.0
O281 O 0.34055 0.86818 0.62219 0.0
O282 O 0.30065 0.89715 0.40151 0.0
O283 O 0.39534 0.85304 0.45865 0.0
O284 O 0.35432 0.87665 0.195 0.0
O285 O 0.39703 0.94433 0.42281 0.0
Sc286 Sc 0.12057 0.46717 0.53074 0.0
Sc287 Sc 0.14211 0.45011 0.30704 0.0
Sc288 Sc 0.19105 0.52233 0.42089 0.0
O289 O 0.15134 0.47987 0.41962 0.0
C290 C 0.14514 0.54064 0.52493 0.0
C291 C 0.07509 0.44349 0.34985 0.0
C292 C 0.16337 0.5169 0.21005 0.0
C293 C 0.11819 0.40249 0.48245 0.0
C294 C 0.18781 0.49382 0.6302 0.0
C295 C 0.21691 0.48179 0.31873 0.0
O296 O 0.12634 0.51309 0.55415 0.0
O297 O 0.09353 0.43702 0.30429 0.0
O298 O 0.18106 0.53276 0.27967 0.0
O299 O 0.11024 0.4196 0.52873 0.0
O300 O 0.20255 0.51353 0.56325 0.0
O301 O 0.19016 0.45982 0.29198 0.0
O302 O 0.15815 0.4755 0.63028 0.0
O303 O 0.13262 0.4107 0.40157 0.0
O304 O 0.22017 0.50528 0.36552 0.0
O305 O 0.08172 0.45671 0.43283 0.0
O306 O 0.16903 0.54719 0.4746 0.0
O307 O 0.14841 0.48702 0.2072 0.0
Sc308 Sc 0.5041 0.68013 0.42538 0.0
Sc309 Sc 0.55719 0.66066 0.52647 0.0
Sc310 Sc 0.57365 0.70008 0.30195 0.0
O311 O 0.5452 0.68042 0.418 0.0
C312 C 0.50481 0.65259 0.21999 0.0
C313 C 0.48344 0.6153 0.53167 0.0
C314 C 0.58017 0.63938 0.34093 0.0
C315 C 0.53572 0.70567 0.62773 0.0
C316 C 0.54347 0.74409 0.30942 0.0
C317 C 0.62222 0.72297 0.47772 0.0
O318 O 0.49041 0.65432 0.29404 0.0
O319 O 0.51091 0.61943 0.54179 0.0
O320 O 0.58483 0.66339 0.29362 0.0
O321 O 0.51899 0.70564 0.55743 0.0
O322 O 0.56649 0.7402 0.28958 0.0
O323 O 0.60445 0.69879 0.52713 0.0
O324 O 0.5196 0.72346 0.35323 0.0
O325 O 0.54834 0.68843 0.6319 0.0
O326 O 0.6146 0.72841 0.39425 0.0
O327 O 0.47878 0.63646 0.49822 0.0
O328 O 0.53432 0.67024 0.2061 0.0
O329 O 0.56904 0.63368 0.42673 0.0
Sc330 Sc 0.35145 0.5219 0.92257 0.0
Sc331 Sc 0.32825 0.44989 0.80775 0.0
Sc332 Sc 0.36709 0.46673 0.03131 0.0
O333 O 0.34884 0.47951 0.92059 0.0
C334 C 0.4157 0.54034 0.02674 0.0
C335 C 0.37365 0.51696 0.71169 0.0
C336 C 0.3888 0.44348 0.84947 0.0
C337 C 0.28517 0.48157 0.81978 0.0
C338 C 0.32632 0.49305 0.13152 0.0
C339 C 0.30483 0.40197 0.98241 0.0
O340 O 0.39832 0.54676 0.97598 0.0
O341 O 0.35895 0.48707 0.70854 0.0
O342 O 0.3956 0.45661 0.93266 0.0
O343 O 0.30527 0.50488 0.86752 0.0
O344 O 0.33761 0.47465 0.1312 0.0
O345 O 0.29829 0.41031 0.90209 0.0
O346 O 0.3314 0.51292 0.06495 0.0
O347 O 0.29003 0.45972 0.79243 0.0
O348 O 0.33009 0.41907 0.0281 0.0
O349 O 0.37167 0.53263 0.78144 0.0
O350 O 0.40707 0.5128 0.05606 0.0
O351 O 0.3636 0.43668 0.80487 0.0
Sc352 Sc 0.57663 0.88828 0.80346 0.0
Sc353 Sc 0.5514 0.90623 0.01881 0.0
Sc354 Sc 0.50329 0.83482 0.90227 0.0
O355 O 0.54375 0.87641 0.90814 0.0
C356 C 0.51125 0.86341 0.69169 0.0
C357 C 0.57609 0.95231 0.84062 0.0
C358 C 0.47675 0.87496 -0.00031 0.0
C359 C 0.62027 0.91585 0.98613 0.0
C360 C 0.55015 0.81454 0.8142 0.0
C361 C 0.52871 0.83932 0.11652 0.0
O362 O 0.54114 0.87958 0.69466 0.0
O363 O 0.56074 0.94445 0.92 0.0
O364 O 0.47393 0.85211 0.95089 0.0
O365 O 0.61447 0.90016 0.90785 0.0
O366 O 0.52483 0.80943 0.85272 0.0
O367 O 0.54459 0.86924 0.11931 0.0
O368 O 0.57145 0.84193 0.79039 0.0
O369 O 0.60034 0.92139 0.02582 0.0
O370 O 0.511 0.8238 0.04619 0.0
O371 O 0.58589 0.93574 0.79958 0.0
O372 O 0.49452 0.845 0.75883 0.0
O373 O 0.5032 0.89609 0.0312 0.0
Sc374 Sc 0.14208 0.69807 0.80112 0.0
Sc375 Sc 0.11992 0.65811 0.02503 0.0
Sc376 Sc 0.19261 0.67879 0.92292 0.0
O377 O 0.15145 0.67844 0.91642 0.0
C378 C 0.16444 0.65174 0.71662 0.0
C379 C 0.07519 0.6368 0.84017 0.0
C380 C 0.14932 0.61353 0.02787 0.0
C381 C 0.11666 0.72034 0.97852 0.0
C382 C 0.21634 0.74287 0.80901 0.0
C383 C 0.18643 0.70316 0.12699 0.0
O384 O 0.15155 0.66853 0.70424 0.0
O385 O 0.08105 0.63087 0.92527 0.0
O386 O 0.17468 0.63491 0.99298 0.0
O387 O 0.1296 0.72612 0.89496 0.0
O388 O 0.2199 0.72256 0.85367 0.0
O389 O 0.15655 0.68609 0.1305 0.0
O390 O 0.18928 0.73843 0.78772 0.0
O391 O 0.11018 0.69589 0.02671 0.0
O392 O 0.2031 0.70336 0.05658 0.0
O393 O 0.09419 0.66113 0.79345 0.0
O394 O 0.18103 0.65384 0.79004 0.0
O395 O 0.12578 0.61723 0.03997 0.0
C396 C 0.0613 0.17837 0.40111 0.0
C397 C 0.06245 0.20098 0.46454 0.0
C398 C 0.08862 0.18238 0.35687 0.0
C399 C 0.11834 0.20873 0.37695 0.0
H400 H 0.03949 0.15664 0.39007 0.0
H401 H 0.08649 0.16354 0.31139 0.0
S402 S 0.13283 0.2758 0.53345 0.0
N403 N 0.09467 0.25153 0.54085 0.0
N404 N 0.14628 0.25915 0.4586 0.0
C405 C 0.11931 0.2325 0.43559 0.0
C406 C 0.0913 0.22852 0.47949 0.0
C407 C 0.84318 0.91255 0.35917 0.0
C408 C 0.81604 0.91498 0.37476 0.0
C409 C 0.84717 0.88933 0.40424 0.0
C410 C 0.82381 0.86699 0.46401 0.0
H411 H 0.86259 0.92993 0.31686 0.0
H412 H 0.86941 0.88999 0.39686 0.0
S413 S 0.74686 0.85985 0.5198 0.0
N414 N 0.76418 0.89068 0.4479 0.0
N415 N 0.77174 0.84679 0.53144 0.0
C416 C 0.79559 0.86737 0.47419 0.0
C417 C 0.79163 0.89135 0.42961 0.0
C418 C 0.13683 0.964 0.40191 0.0
C419 C 0.15796 0.96274 0.46707 0.0
C420 C 0.11353 0.93672 0.35708 0.0
C421 C 0.1098 0.90691 0.37807 0.0
H422 H 0.13718 0.98589 0.38976 0.0
H423 H 0.0971 0.93896 0.31023 0.0
S424 S 0.1611 0.89197 0.54035 0.0
N425 N 0.17527 0.93015 0.54692 0.0
N426 N 0.13149 0.87875 0.46336 0.0
C427 C 0.1322 0.9058 0.43885 0.0
C428 C 0.15617 0.93373 0.48348 0.0
C429 C 0.17934 0.0556 0.08022 0.0
C430 C 0.20411 0.05553 0.031 0.0
C431 C 0.18319 0.0829 0.12374 0.0
C432 C 0.21176 0.11164 0.11722 0.0
H433 H 0.15626 0.03488 0.07998 0.0
H434 H 0.16275 0.0817 0.15729 0.0
S435 S 0.28487 0.12262 0.00424 0.0
N436 N 0.25902 0.08532 0.98541 0.0
N437 N 0.26622 0.13712 0.06544 0.0
C438 C 0.23738 0.11128 0.07363 0.0
C439 C 0.23354 0.08312 0.03089 0.0
C440 C 0.94166 0.10505 0.12051 0.0
C441 C 0.91294 0.10502 0.11384 0.0
C442 C 0.96903 0.12841 0.07699 0.0
C443 C 0.96919 0.15328 0.02765 0.0
H444 H 0.94278 0.08581 0.15431 0.0
H445 H 0.98975 0.12601 0.07702 0.0
S446 S 0.90215 0.16713 0.99934 0.0
N447 N 0.88754 0.13404 0.06101 0.0
N448 N 0.93947 0.17842 0.98102 0.0
C449 C 0.9416 0.15518 0.02701 0.0
C450 C 0.91337 0.13096 0.0697 0.0
C451 C 0.89317 0.84398 0.08857 0.0
C452 C 0.87075 0.82084 0.0282 0.0
C453 C 0.91628 0.83972 0.13377 0.0
C454 C 0.91853 0.81253 0.11781 0.0
H455 H 0.89394 0.86622 0.09653 0.0
H456 H 0.9337 0.85896 0.17663 0.0
S457 S 0.86336 0.744 0.9703 0.0
N458 N 0.85049 0.76903 0.95915 0.0
N459 N 0.89407 0.76095 0.04305 0.0
C460 C 0.89488 0.78838 0.06209 0.0
C461 C 0.87103 0.79262 0.01729 0.0
C462 C 0.94171 0.83973 0.63463 0.0
C463 C 0.91199 0.81294 0.61844 0.0
C464 C 0.96882 0.84332 0.58983 0.0
C465 C 0.9675 0.81989 0.52962 0.0
H466 H 0.94395 0.85916 0.67728 0.0
H467 H 0.99058 0.86531 0.59779 0.0
S468 S 0.89702 0.74386 0.47119 0.0
N469 N 0.8839 0.76135 0.54383 0.0
N470 N 0.93505 0.76827 0.4603 0.0
C471 C 0.93867 0.79204 0.51852 0.0
C472 C 0.91088 0.78846 0.56304 0.0
C473 C 0.18437 0.10618 0.62855 0.0
C474 C 0.21245 0.10508 0.61941 0.0
C475 C 0.18051 0.1294 0.58306 0.0
C476 C 0.20488 0.15309 0.52948 0.0
H477 H 0.16422 0.08778 0.66572 0.0
H478 H 0.15772 0.12774 0.58509 0.0
S479 S 0.28446 0.16426 0.49386 0.0
N480 N 0.26614 0.13209 0.55987 0.0
N481 N 0.25895 0.17629 0.47653 0.0
C482 C 0.23394 0.15411 0.52653 0.0
C483 C 0.23775 0.13001 0.57112 0.0
C484 C 0.89392 0.05607 0.58657 0.0
C485 C 0.87197 0.05732 0.52511 0.0
C486 C 0.91717 0.08319 0.63203 0.0
C487 C 0.91999 0.11283 0.61516 0.0
H488 H 0.8942 0.03436 0.59525 0.0
H489 H 0.93425 0.08101 0.67582 0.0
S490 S 0.86617 0.12753 0.46436 0.0
N491 N 0.85276 0.08956 0.4538 0.0
N492 N 0.89655 0.14075 0.53834 0.0
C493 C 0.89677 0.11386 0.55831 0.0
C494 C 0.87282 0.08606 0.51319 0.0
C495 C 0.79716 0.93344 0.98749 0.0
C496 C 0.82183 0.9634 0.96314 0.0
C497 C 0.7939 0.9065 0.94228 0.0
C498 C 0.81534 0.90862 0.87127 0.0
H499 H 0.78171 0.93064 0.04717 0.0
H500 H 0.77581 0.88387 0.96809 0.0
S501 S 0.88054 0.98265 0.77017 0.0
N502 N 0.86557 0.99426 0.85671 0.0
N503 N 0.85922 0.94405 0.76834 0.0
C504 C 0.83832 0.9389 0.84004 0.0
C505 C 0.84172 0.96621 0.88712 0.0
C506 C 0.08642 0.91452 0.87012 0.0
C507 C 0.11518 0.91466 0.87617 0.0
C508 C 0.05921 0.8911 0.91415 0.0
C509 C 0.05933 0.86634 0.96328 0.0
H510 H 0.08518 0.93376 0.83675 0.0
H511 H 0.03845 0.89343 0.91492 0.0
S512 S 0.12656 0.85272 0.98915 0.0
N513 N 0.1409 0.8858 0.92753 0.0
N514 N 0.08927 0.84132 0.00854 0.0
C515 C 0.08693 0.8645 0.96295 0.0
C516 C 0.11498 0.88876 0.91977 0.0
C517 C 0.13047 0.22986 0.9458 0.0
C518 C 0.11172 0.20915 0.87245 0.0
C519 C 0.15386 0.22617 0.99169 0.0
C520 C 0.15942 0.20179 0.96568 0.0
H521 H 0.12567 0.24766 0.97281 0.0
H522 H 0.16611 0.24107 0.05289 0.0
S523 S 0.12165 0.14517 0.76639 0.0
N524 N 0.10422 0.16641 0.76564 0.0
N525 N 0.14757 0.15926 0.85518 0.0
C526 C 0.14302 0.18272 0.88736 0.0
C527 C 0.11938 0.18656 0.83964 0.0
C528 C 0.78321 0.56415 0.75339 0.0
C529 C 0.78286 0.53752 0.71495 0.0
C530 C 0.75612 0.56205 0.79482 0.0
C531 C 0.72793 0.53321 0.80013 0.0
H532 H 0.80481 0.58647 0.75517 0.0
H533 H 0.75791 0.58261 0.82944 0.0
S534 S 0.71314 0.45718 0.7026 0.0
N535 N 0.75027 0.48177 0.67742 0.0
N536 N 0.70034 0.47825 0.75802 0.0
C537 C 0.72666 0.50696 0.75713 0.0
C538 C 0.75386 0.509 0.71382 0.0
C539 C 0.4638 0.2036 0.81473 0.0
C540 C 0.48954 0.19946 0.7954 0.0
C541 C 0.46134 0.22815 0.77208 0.0
C542 C 0.48459 0.2494 0.70857 0.0
H543 H 0.44678 0.18932 0.86914 0.0
H544 H 0.44209 0.23153 0.79368 0.0
S545 S 0.55406 0.24493 0.62392 0.0
N546 N 0.53681 0.21604 0.70255 0.0
N547 N 0.53207 0.26148 0.61857 0.0
C548 C 0.509 0.24353 0.68237 0.0
C549 C 0.51157 0.21878 0.72699 0.0
C550 C 0.8116 0.29543 0.72265 0.0
C551 C 0.82784 0.2938 0.80341 0.0
C552 C 0.78841 0.26797 0.67834 0.0
C553 C 0.78014 0.23798 0.71499 0.0
H554 H 0.81543 0.31789 0.69735 0.0
H555 H 0.7755 0.27042 0.61864 0.0
S556 S 0.81861 0.22207 0.92105 0.0
N557 N 0.83653 0.26063 0.91411 0.0
N558 N 0.7927 0.20893 0.8321 0.0
C559 C 0.79807 0.23631 0.79163 0.0
C560 C 0.82187 0.2643 0.83588 0.0
C561 C 0.85752 0.41865 0.46689 0.0
C562 C 0.88241 0.44865 0.44091 0.0
C563 C 0.85362 0.39134 0.42296 0.0
C564 C 0.87498 0.39286 0.35373 0.0
H565 H 0.83962 0.41618 0.51739 0.0
H566 H 0.83285 0.36917 0.43914 0.0
S567 S 0.94611 0.46418 0.26778 0.0
N568 N 0.93034 0.47735 0.34697 0.0
N569 N 0.92306 0.42578 0.26564 0.0
C570 C 0.90126 0.42212 0.33247 0.0
C571 C 0.90508 0.45008 0.3761 0.0
C572 C 0.57145 0.45706 0.3638 0.0
C573 C 0.57364 0.43913 0.43928 0.0
C574 C 0.59855 0.48159 0.3219 0.0
C575 C 0.62863 0.48914 0.35457 0.0
H576 H 0.54891 0.45071 0.33206 0.0
H577 H 0.59603 0.49314 0.25854 0.0
S578 S 0.64711 0.45343 0.5609 0.0
N579 N 0.60844 0.43393 0.55439 0.0
N580 N 0.65915 0.47957 0.47291 0.0
C581 C 0.63115 0.47335 0.43489 0.0
C582 C 0.60366 0.44848 0.47813 0.0
C583 C 0.56346 0.1268 0.41215 0.0
C584 C 0.59063 0.1532 0.44775 0.0
C585 C 0.53881 0.12965 0.37095 0.0
C586 C 0.54068 0.15903 0.36298 0.0
H587 H 0.56178 0.10403 0.41232 0.0
H588 H 0.51937 0.10917 0.33814 0.0
S589 S 0.60489 0.23495 0.45154 0.0
N590 N 0.61618 0.20951 0.47899 0.0
N591 N 0.5703 0.21436 0.3994 0.0
C592 C 0.56659 0.18513 0.40337 0.0
C593 C 0.59145 0.18235 0.44627 0.0
C594 C 0.60933 0.17875 0.95209 0.0
C595 C 0.58073 0.15 0.94815 0.0
C596 C 0.63654 0.18242 0.90807 0.0
C597 C 0.63655 0.15729 0.861 0.0
H598 H 0.61041 0.19932 0.98409 0.0
H599 H 0.65724 0.20549 0.90626 0.0
S600 S 0.56947 0.07636 0.83899 0.0
N601 N 0.55517 0.09529 0.89964 0.0
N602 N 0.60667 0.1022 0.81839 0.0
C603 C 0.609 0.12787 0.86265 0.0
C604 C 0.58101 0.12421 0.90587 0.0
C605 C 0.90261 0.45611 0.86627 0.0
C606 C 0.88418 0.43957 0.94635 0.0
C607 C 0.89862 0.47933 0.82088 0.0
C608 C 0.87637 0.48706 0.85444 0.0
H609 H 0.91851 0.44953 0.83383 0.0
H610 H 0.91147 0.48977 0.75478 0.0
S611 S 0.82673 0.45542 0.07199 0.0
N612 N 0.84626 0.43625 0.06624 0.0
N613 N 0.83862 0.47957 0.97859 0.0
C614 C 0.85987 0.47291 0.93909 0.0
C615 C 0.86391 0.44929 0.98583 0.0
C616 C 0.5822 0.4553 0.82657 0.0
C617 C 0.58593 0.45621 0.92723 0.0
C618 C 0.56132 0.42741 0.77984 0.0
C619 C 0.54301 0.39943 0.83183 0.0
H620 H 0.5971 0.47564 0.78283 0.0
H621 H 0.56024 0.42755 0.7015 0.0
S622 S 0.53977 0.39126 0.09831 0.0
N623 N 0.56701 0.42806 0.07905 0.0
N624 N 0.5267 0.37555 0.99047 0.0
C625 C 0.54438 0.40065 0.93313 0.0
C626 C 0.56622 0.42908 0.98096 0.0
C627 C 0.45797 0.23599 0.27914 0.0
C628 C 0.47792 0.23824 0.20296 0.0
C629 C 0.46139 0.26296 0.32453 0.0
C630 C 0.48467 0.29302 0.29512 0.0
H631 H 0.44122 0.21337 0.30877 0.0
H632 H 0.44732 0.26022 0.38798 0.0
S633 S 0.53908 0.31222 0.08939 0.0
N634 N 0.51856 0.27358 0.09057 0.0
N635 N 0.52558 0.32382 0.1801 0.0
C636 C 0.50288 0.29578 0.21446 0.0
C637 C 0.49922 0.26846 0.16699 0.0
C638 C 0.7891 0.2304 0.28335 0.0
C639 C 0.78694 0.24822 0.2073 0.0
C640 C 0.7621 0.20715 0.32922 0.0
C641 C 0.73206 0.20073 0.30028 0.0
H642 H 0.81173 0.23592 0.31251 0.0
H643 H 0.76482 0.19571 0.39252 0.0
S644 S 0.71299 0.2358 0.0933 0.0
N645 N 0.75171 0.25396 0.09508 0.0
N646 N 0.7012 0.21067 0.18415 0.0
C647 C 0.72929 0.21613 0.21926 0.0
C648 C 0.75672 0.23972 0.17179 0.0
C649 C 0.79572 0.5064 0.25394 0.0
C650 C 0.82128 0.53158 0.2997 0.0
C651 C 0.7719 0.51005 0.2113 0.0
C652 C 0.77218 0.53885 0.2152 0.0
H653 H 0.79325 0.48329 0.2558 0.0
H654 H 0.75216 0.48946 0.18021 0.0
S655 S 0.83554 0.61263 0.32152 0.0
N656 N 0.84689 0.58674 0.34139 0.0
N657 N 0.80191 0.59368 0.26255 0.0
C658 C 0.79862 0.56468 0.25631 0.0
C659 C 0.8232 0.56101 0.29823 0.0
C660 C 0.42236 0.8953 0.13543 0.0
C661 C 0.39291 0.86841 0.12166 0.0
C662 C 0.44924 0.89839 0.09026 0.0
C663 C 0.44752 0.87467 0.02952 0.0
H664 H 0.42506 0.91287 0.18766 0.0
H665 H 0.47168 0.9186 0.10794 0.0
S666 S 0.3742 0.8022 0.95759 0.0
N667 N 0.36254 0.81956 0.0358 0.0
N668 N 0.41247 0.82539 0.94703 0.0
C669 C 0.41743 0.84903 0.00814 0.0
C670 C 0.39025 0.84582 0.05554 0.0
C671 C 0.1796 0.55796 0.08493 0.0
C672 C 0.15564 0.53468 0.14081 0.0
C673 C 0.17619 0.582 0.04352 0.0
C674 C 0.14902 0.58436 0.05887 0.0
H675 H 0.20187 0.55865 0.07801 0.0
H676 H 0.19599 0.59987 0.00365 0.0
S677 S 0.07839 0.52712 0.19448 0.0
N678 N 0.10291 0.51354 0.20401 0.0
N679 N 0.09655 0.5592 0.12799 0.0
C680 C 0.12404 0.55995 0.1099 0.0
C681 C 0.12739 0.53506 0.15062 0.0
C682 C 0.44942 0.56747 0.16751 0.0
C683 C 0.44417 0.56702 0.06773 0.0
C684 C 0.47035 0.59531 0.21416 0.0
C685 C 0.48718 0.62366 0.16275 0.0
H686 H 0.43554 0.54679 0.21114 0.0
H687 H 0.47243 0.59489 0.29219 0.0
S688 S 0.4869 0.63307 0.89727 0.0
N689 N 0.46065 0.59592 0.9164 0.0
N690 N 0.50102 0.64846 0.00474 0.0
C691 C 0.4846 0.62292 0.06171 0.0
C692 C 0.46274 0.5945 0.01406 0.0
C693 C 0.5726 0.7887 0.71107 0.0
C694 C 0.55249 0.78666 0.78638 0.0
C695 C 0.56914 0.76159 0.66661 0.0
C696 C 0.54562 0.73165 0.69619 0.0
H697 H 0.58941 0.81124 0.68107 0.0
H698 H 0.58327 0.76411 0.60352 0.0
S699 S 0.49108 0.71317 0.90119 0.0
N700 N 0.51173 0.75179 0.89906 0.0
N701 N 0.50458 0.70122 0.81133 0.0
C702 C 0.52739 0.72913 0.77654 0.0
C703 C 0.5311 0.7566 0.823 0.0
C704 C 0.30169 0.79507 0.73844 0.0
C705 C 0.30165 0.8199 0.68946 0.0
C706 C 0.27436 0.77147 0.78164 0.0
C707 C 0.24551 0.77118 0.77513 0.0
H708 H 0.32259 0.79298 0.73894 0.0
H709 H 0.27568 0.75236 0.81566 0.0
S710 S 0.23397 0.83267 0.65941 0.0
N711 N 0.27141 0.84438 0.64167 0.0
N712 N 0.21964 0.79965 0.72129 0.0
C713 C 0.24566 0.79692 0.73048 0.0
C714 C 0.27381 0.82134 0.68801 0.0
C715 C 0.23264 0.51389 0.74477 0.0
C716 C 0.20732 0.4883 0.69952 0.0
C717 C 0.25657 0.5108 0.78894 0.0
C718 C 0.25663 0.48217 0.78714 0.0
H719 H 0.23476 0.53684 0.74168 0.0
H720 H 0.27613 0.53166 0.81951 0.0
S721 S 0.19415 0.40751 0.68276 0.0
N722 N 0.18239 0.43296 0.66041 0.0
N723 N 0.22762 0.4271 0.74218 0.0
C724 C 0.23048 0.45596 0.74645 0.0
C725 C 0.20578 0.45905 0.70297 0.0
C726 C 0.27468 0.51093 0.28689 0.0
C727 C 0.24605 0.48224 0.28689 0.0
C728 C 0.30168 0.51373 0.24379 0.0
C729 C 0.3015 0.48783 0.20126 0.0
H730 H 0.27592 0.53201 0.31513 0.0
H731 H 0.32242 0.53671 0.23909 0.0
S732 S 0.23416 0.40671 0.19135 0.0
N733 N 0.2202 0.42675 0.24741 0.0
N734 N 0.27128 0.43207 0.1677 0.0
C735 C 0.27389 0.45853 0.20696 0.0
C736 C 0.24609 0.45572 0.24935 0.0
C737 C 0.51326 0.77155 0.27583 0.0
C738 C 0.54231 0.77219 0.2748 0.0
C739 C 0.5096 0.79514 0.23209 0.0
C740 C 0.53496 0.82086 0.18785 0.0
H741 H 0.49251 0.75175 0.30581 0.0
H742 H 0.48635 0.79237 0.22819 0.0
S743 S 0.61668 0.83625 0.174 0.0
N744 N 0.59755 0.80247 0.23182 0.0
N745 N 0.59061 0.8472 0.15118 0.0
C746 C 0.56462 0.8232 0.19217 0.0
C747 C 0.56831 0.79879 0.23519 0.0
C748 C 0.23124 0.78516 0.21976 0.0
C749 C 0.25156 0.78318 0.28753 0.0
C750 C 0.20729 0.75813 0.17554 0.0
C751 C 0.20278 0.72832 0.19785 0.0
H752 H 0.23524 0.80775 0.19528 0.0
H753 H 0.19395 0.76082 0.11757 0.0
S754 S 0.24567 0.70955 0.38105 0.0
N755 N 0.26197 0.74803 0.3855 0.0
N756 N 0.21812 0.69787 0.29735 0.0
C757 C 0.22101 0.7257 0.27065 0.0
C758 C 0.24502 0.75301 0.31716 0.0
C759 C 0.14224 0.59462 0.70994 0.0
C760 C 0.15381 0.62303 0.65892 0.0
C761 C 0.13659 0.56713 0.6637 0.0
C762 C 0.14274 0.56711 0.56476 0.0
H763 H 0.13882 0.59394 0.78758 0.0
H764 H 0.12963 0.54639 0.70728 0.0
S765 S 0.16657 0.63338 0.39475 0.0
N766 N 0.16625 0.6483 0.5016 0.0
N767 N 0.15631 0.5964 0.41397 0.0
C768 C 0.15171 0.59463 0.51112 0.0
C769 C 0.157 0.62269 0.55834 0.0
C770 C 0.39786 0.55644 0.58137 0.0
C771 C 0.39951 0.535 0.64399 0.0
C772 C 0.42507 0.581 0.54039 0.0
C773 C 0.45518 0.58563 0.56266 0.0
H774 H 0.37561 0.55536 0.56862 0.0
H775 H 0.42246 0.59746 0.49494 0.0
S776 S 0.47141 0.5342 0.71959 0.0
N777 N 0.43291 0.51843 0.72278 0.0
N778 N 0.48429 0.56476 0.64676 0.0
C779 C 0.45684 0.56307 0.62089 0.0
C780 C 0.42895 0.53779 0.66159 0.0
C781 C 0.46478 0.89961 0.60319 0.0
C782 C 0.44504 0.87797 0.53323 0.0
C783 C 0.48893 0.89663 0.64678 0.0
C784 C 0.49425 0.872 0.62197 0.0
H785 H 0.4603 0.91771 0.62938 0.0
H786 H 0.50188 0.91221 0.70594 0.0
S787 S 0.45371 0.81275 0.43108 0.0
N788 N 0.4362 0.8339 0.43046 0.0
N789 N 0.48086 0.82804 0.51616 0.0
C790 C 0.4767 0.85188 0.54696 0.0
C791 C 0.45235 0.85502 0.50134 0.0
C792 C 0.09366 0.33982 0.67523 0.0
C793 C 0.0777 0.31201 0.6218 0.0
C794 C 0.10845 0.36903 0.62859 0.0
C795 C 0.10875 0.37157 0.5267 0.0
H796 H 0.09288 0.33917 0.75357 0.0
H797 H 0.11851 0.3899 0.67306 0.0
S798 S 0.07393 0.30546 0.35357 0.0
N799 N 0.06527 0.28861 0.46112 0.0
N800 N 0.09427 0.34353 0.37411 0.0
C801 C 0.09508 0.34387 0.47238 0.0
C802 C 0.07924 0.3141 0.51979 0.0
C803 C 0.68487 0.76245 0.67061 0.0
C804 C 0.71269 0.77159 0.61918 0.0
C805 C 0.65576 0.74874 0.62272 0.0
C806 C 0.65339 0.74429 0.5214 0.0
H807 H 0.68532 0.76403 0.74882 0.0
H808 H 0.63471 0.74024 0.666 0.0
S809 S 0.71975 0.76869 0.35191 0.0
N810 N 0.73635 0.77826 0.45983 0.0
N811 N 0.68172 0.75321 0.37065 0.0
C812 C 0.68122 0.75573 0.46842 0.0
C813 C 0.71081 0.76912 0.51715 0.0
C814 C 0.26911 0.93405 0.67979 0.0
C815 C 0.25449 0.94747 0.62658 0.0
C816 C 0.28518 0.92099 0.63266 0.0
C817 C 0.28652 0.92015 0.53068 0.0
H818 H 0.26992 0.93548 0.75805 0.0
H819 H 0.29749 0.91234 0.67657 0.0
S820 S 0.24894 0.94918 0.3588 0.0
N821 N 0.24058 0.95738 0.46668 0.0
N822 N 0.26952 0.9316 0.37866 0.0
C823 C 0.27007 0.93149 0.47696 0.0
C824 C 0.25443 0.9455 0.5248 0.0
C825 C 0.33492 0.09648 0.87992 0.0
C826 C 0.31874 0.06391 0.86315 0.0
C827 C 0.36336 0.11099 0.9328 0.0
C828 C 0.37651 0.09336 0.9692 0.0
H829 H 0.32532 0.11064 0.85354 0.0
H830 H 0.37551 0.13614 0.94297 0.0
S831 S 0.34427 0.00788 0.94106 0.0
N832 N 0.31881 0.01493 0.88502 0.0
N833 N 0.37165 0.04205 0.98297 0.0
C834 C 0.36068 0.061 0.95178 0.0
C835 C 0.33201 0.04634 0.89903 0.0
C836 C 0.9564 0.25609 0.96775 0.0
C837 C 0.95384 0.25134 0.86647 0.0
C838 C 0.94143 0.2701 0.0158 0.0
C839 C 0.92373 0.28041 0.96419 0.0
H840 H 0.97108 0.24993 0.01009 0.0
H841 H 0.94544 0.27472 0.09265 0.0
S842 S 0.90592 0.2699 0.70125 0.0
N843 N 0.92906 0.25498 0.71861 0.0
N844 N 0.90166 0.28212 0.80836 0.0
C845 C 0.91926 0.27404 0.86421 0.0
C846 C 0.93405 0.25924 0.8155 0.0
C847 C 0.76598 0.68229 0.82343 0.0
C848 C 0.77546 0.71019 0.87464 0.0
C849 C 0.7522 0.65332 0.87169 0.0
C850 C 0.74809 0.65124 0.97307 0.0
H851 H 0.76725 0.68257 0.74517 0.0
H852 H 0.74325 0.63218 0.82873 0.0
S853 S 0.77345 0.71785 0.1419 0.0
N854 N 0.7828 0.73421 0.03372 0.0
N855 N 0.75769 0.67982 0.12362 0.0
C856 C 0.75994 0.67913 0.02579 0.0
C857 C 0.77336 0.70857 0.97672 0.0
C858 C 0.92178 0.65012 0.36242 0.0
C859 C 0.92125 0.64752 0.46434 0.0
C860 C 0.93641 0.6794 0.31591 0.0
C861 C 0.95197 0.70725 0.36947 0.0
H862 H 0.91183 0.62927 0.31788 0.0
H863 H 0.93727 0.68012 0.23758 0.0
S864 S 0.95538 0.71364 0.63775 0.0
N865 N 0.93533 0.67557 0.61698 0.0
N866 N 0.96408 0.73052 0.53028 0.0
C867 C 0.95038 0.70505 0.47144 0.0
C868 C 0.93468 0.67524 0.51869 0.0
C869 C 0.31994 0.25467 0.47217 0.0
C870 C 0.31785 0.24996 0.37079 0.0
C871 C 0.34885 0.26834 0.52111 0.0
C872 C 0.37687 0.27818 0.47037 0.0
H873 H 0.29911 0.24887 0.51386 0.0
H874 H 0.34943 0.27322 0.59773 0.0
S875 S 0.38432 0.26731 0.20781 0.0
N876 N 0.34633 0.25305 0.22401 0.0
N877 N 0.40065 0.2792 0.3154 0.0
C878 C 0.37497 0.27157 0.37047 0.0
C879 C 0.34549 0.25729 0.32084 0.0
C880 C 0.75902 0.08609 0.31415 0.0
C881 C 0.77325 0.07235 0.36787 0.0
C882 C 0.74319 0.09955 0.36065 0.0
C883 C 0.74157 0.10039 0.46258 0.0
H884 H 0.75847 0.08477 0.23587 0.0
H885 H 0.73137 0.10863 0.31625 0.0
S886 S 0.77795 0.07046 0.63594 0.0
N887 N 0.78643 0.06212 0.52844 0.0
N888 N 0.7578 0.08843 0.61519 0.0
C889 C 0.75748 0.08856 0.51687 0.0
C890 C 0.77297 0.07424 0.46968 0.0
C891 C 0.66887 0.91396 0.03707 0.0
C892 C 0.65141 0.92955 0.03458 0.0
C893 C 0.69748 0.92659 0.08861 0.0
C894 C 0.70941 0.9552 0.13861 0.0
H895 H 0.66029 0.89185 -0.00029 0.0
H896 H 0.71075 0.91449 0.08685 0.0
S897 S 0.67365 1.00573 0.15213 0.0
N898 N 0.64899 0.97561 0.08556 0.0
N899 N 0.70214 0.99881 0.18127 0.0
C900 C 0.6922 0.97082 0.13656 0.0
C901 C 0.66338 0.95816 0.0849 0.0
C902 C 0.07297 0.76429 0.02188 0.0
C903 C 0.07574 0.76921 0.12317 0.0
C904 C 0.0886 0.75104 0.97309 0.0
C905 C 0.10727 0.74172 0.02389 0.0
H906 H 0.05765 0.76973 0.98009 0.0
H907 H 0.08432 0.74613 0.89645 0.0
S908 S 0.12559 0.75277 0.28663 0.0
N909 N 0.10147 0.76656 0.2701 0.0
N910 N 0.13018 0.741 0.17917 0.0
C911 C 0.11187 0.74829 0.12385 0.0
C912 C 0.09635 0.76224 0.17327 0.0
C913 C 0.26839 0.33956 0.17663 0.0
C914 C 0.25482 0.31162 0.12338 0.0
C915 C 0.2827 0.3687 0.12966 0.0
C916 C 0.28341 0.37112 0.02766 0.0
H917 H 0.26984 0.33898 0.25476 0.0
H918 H 0.29462 0.38958 0.17382 0.0
S919 S 0.24659 0.30467 0.85594 0.0
N920 N 0.23978 0.28794 0.96361 0.0
N921 N 0.26616 0.34282 0.87577 0.0
C922 C 0.26759 0.34335 0.97394 0.0
C923 C 0.25348 0.31359 0.02172 0.0
C924 C 0.0141 0.41924 0.15071 0.0
C925 C 0.98584 0.40573 0.2023 0.0
C926 C 0.04298 0.43305 0.19958 0.0
C927 C 0.04469 0.43432 0.30172 0.0
H928 H 0.0139 0.41727 0.07262 0.0
H929 H 0.06415 0.4417 0.15689 0.0
S930 S 0.97733 0.40693 0.46912 0.0
N931 N 0.96127 0.39768 0.36043 0.0
N932 N 0.01559 0.42423 0.45169 0.0
C933 C 0.01668 0.42337 0.35359 0.0
C934 C 0.98725 0.40887 0.30398 0.0
C935 C 0.62201 0.59357 0.29732 0.0
C936 C 0.6211 0.5905 0.19542 0.0
C937 C 0.60667 0.60722 0.34529 0.0
C938 C 0.59007 0.61871 0.29322 0.0
H939 H 0.63567 0.58632 0.34053 0.0
H940 H 0.60947 0.61051 0.42291 0.0
S941 S 0.57639 0.61244 0.02761 0.0
N942 N 0.59905 0.59702 0.04571 0.0
N943 N 0.57045 0.62293 0.13543 0.0
C944 C 0.5871 0.61388 0.19216 0.0
C945 C 0.60247 0.59966 0.14338 0.0
C946 C 0.42645 0.00934 0.34577 0.0
C947 C 0.41205 0.98139 0.29239 0.0
C948 C 0.44153 0.03853 0.29879 0.0
C949 C 0.44332 0.04087 0.19687 0.0
H950 H 0.4243 0.00873 0.42384 0.0
H951 H 0.45074 0.05952 0.34262 0.0
S952 S 0.41319 0.97444 0.02493 0.0
N953 N 0.40327 0.95774 0.13256 0.0
N954 N 0.43203 0.01257 0.04497 0.0
C955 C 0.43121 0.01308 0.14318 0.0
C956 C 0.41542 0.98337 0.1908 0.0
C957 C 0.60134 0.01055 0.8463 0.0
C958 C 0.58495 0.98263 0.79379 0.0
C959 C 0.61701 0.03953 0.79853 0.0
C960 C 0.61636 0.04178 0.69661 0.0
H961 H 0.60402 0.00988 0.92395 0.0
H962 H 0.63089 0.06029 0.84183 0.0
S963 S 0.57286 0.97541 0.52779 0.0
N964 N 0.56643 0.9589 0.63569 0.0
N965 N 0.59509 0.01346 0.54628 0.0
C966 C 0.59788 0.01415 0.64417 0.0
C967 C 0.58243 0.98456 0.6927 0.0
C968 C 0.01653 0.60366 0.84493 0.0
C969 C 0.04458 0.61587 0.79248 0.0
C970 C 0.98738 0.58953 0.7973 0.0
C971 C 0.98503 0.58663 0.69537 0.0
H972 H 0.01713 0.60673 0.92266 0.0
H973 H 0.96649 0.58176 0.8408 0.0
S974 S 0.0516 0.61055 0.52639 0.0
N975 N 0.06822 0.62108 0.63411 0.0
N976 N 0.01348 0.59424 0.54509 0.0
C977 C 0.01283 0.59657 0.64289 0.0
C978 C 0.04256 0.6113 0.6913 0.0
C979 C 0.43784 0.40518 0.80326 0.0
C980 C 0.43915 0.40481 0.70105 0.0
C981 C 0.4237 0.41991 0.85207 0.0
C982 C 0.40992 0.43445 0.80044 0.0
H983 H 0.44677 0.39289 0.84608 0.0
H984 H 0.42178 0.41813 0.93017 0.0
S985 S 0.41081 0.44408 0.53348 0.0
N986 N 0.42854 0.42354 0.55105 0.0
N987 N 0.40148 0.45069 0.64213 0.0
C988 C 0.41298 0.43616 0.69872 0.0
C989 C 0.42777 0.42155 0.64917 0.0
loop_
_geom_bond_atom_site_label_1
_geom_bond_atom_site_label_2
_geom_bond_distance
_geom_bond_site_symmetry_2
_ccdc_geom_bond_type
Sc0 O3 2.025 . S
Sc0 O10 2.105 . S
Sc0 O13 2.105 1_455 S
Sc0 O16 2.105 1_455 S
Sc0 O19 2.105 . S
Sc1 O3 2.025 . S
Sc1 O11 2.105 . S
Sc1 O15 2.105 1_455 S
Sc1 O17 2.105 1_455 S
Sc1 O21 2.105 . S
Sc2 O3 2.024 . S
Sc2 O12 2.103 . S
Sc2 O14 2.107 1_455 S
Sc2 O18 2.109 1_455 S
Sc2 O20 2.101 . S
O3 Sc0 2.025 . S
O3 Sc1 2.025 . S
O3 Sc2 2.024 . S
C4 O10 1.268 . S
C4 O20 1.268 . S
C5 O11 1.268 . S
C5 O19 1.268 . S
C6 O12 1.268 . S
C6 O21 1.268 . S
C7 O13 1.268 . S
C7 O17 1.268 . S
C8 O14 1.268 . S
C8 O16 1.268 . S
C9 O15 1.268 . S
C9 O18 1.268 . S
O10 Sc0 2.105 . S
O10 C4 1.268 . S
O11 Sc1 2.105 . S
O11 C5 1.268 . S
O12 Sc2 2.103 . S
O12 C6 1.268 . S
O13 Sc0 2.105 1_655 S
O13 C7 1.268 . S
O14 Sc2 2.107 1_655 S
O14 C8 1.268 . S
O15 Sc1 2.105 1_655 S
O15 C9 1.268 . S
O16 Sc0 2.105 1_655 S
O16 C8 1.268 . S
O17 Sc1 2.105 1_655 S
O17 C7 1.268 . S
O18 Sc2 2.109 1_655 S
O18 C9 1.268 . S
O19 Sc0 2.105 . S
O19 C5 1.268 . S
O20 Sc2 2.101 . S
O20 C4 1.268 . S
O21 Sc1 2.105 . S
O21 C6 1.268 . S
Sc22 O25 2.025 . S
Sc22 O32 2.105 . S
Sc22 O35 2.105 . S
Sc22 O38 2.105 . S
Sc22 O41 2.105 . S
Sc23 O25 2.025 . S
Sc23 O33 2.105 . S
Sc23 O37 2.105 . S
Sc23 O39 2.105 . S
Sc23 O43 2.105 . S
Sc24 O25 2.025 . S
Sc24 O34 2.105 . S
Sc24 O36 2.105 . S
Sc24 O40 2.105 . S
Sc24 O42 2.105 . S
O25 Sc22 2.025 . S
O25 Sc23 2.025 . S
O25 Sc24 2.025 . S
C26 O32 1.268 . S
C26 O42 1.268 . S
C27 O33 1.268 . S
C27 O41 1.268 . S
C28 O34 1.268 . S
C28 O43 1.268 . S
C29 O35 1.268 . S
C29 O39 1.268 . S
C30 O36 1.268 . S
C30 O38 1.268 . S
C31 O37 1.268 . S
C31 O40 1.268 . S
O32 Sc22 2.105 . S
O32 C26 1.268 . S
O33 Sc23 2.105 . S
O33 C27 1.268 . S
O34 Sc24 2.105 . S
O34 C28 1.268 . S
O35 Sc22 2.105 . S
O35 C29 1.268 . S
O36 Sc24 2.105 . S
O36 C30 1.268 . S
O37 Sc23 2.105 . S
O37 C31 1.268 . S
O38 Sc22 2.105 . S
O38 C30 1.268 . S
O39 Sc23 2.105 . S
O39 C29 1.268 . S
O40 Sc24 2.105 . S
O40 C31 1.268 . S
O41 Sc22 2.105 . S
O41 C27 1.268 . S
O42 Sc24 2.105 . S
O42 C26 1.268 . S
O43 Sc23 2.105 . S
O43 C28 1.268 . S
Sc44 O47 2.025 . S
Sc44 O54 2.105 1_545 S
Sc44 O57 2.105 . S
Sc44 O60 2.105 . S
Sc44 O63 2.105 1_545 S
Sc45 O47 2.024 . S
Sc45 O55 2.107 1_545 S
Sc45 O59 2.103 . S
Sc45 O61 2.101 . S
Sc45 O65 2.109 1_545 S
Sc46 O47 2.025 . S
Sc46 O56 2.105 1_545 S
Sc46 O58 2.105 . S
Sc46 O62 2.105 . S
Sc46 O64 2.105 1_545 S
O47 Sc44 2.025 . S
O47 Sc45 2.024 . S
O47 Sc46 2.025 . S
C48 O54 1.268 . S
C48 O64 1.268 . S
C49 O55 1.268 . S
C49 O63 1.268 . S
C50 O56 1.268 . S
C50 O65 1.268 . S
C51 O57 1.268 . S
C51 O61 1.268 . S
C52 O58 1.268 . S
C52 O60 1.268 . S
C53 O59 1.268 . S
C53 O62 1.268 . S
O54 Sc44 2.105 1_565 S
O54 C48 1.268 . S
O55 Sc45 2.107 1_565 S
O55 C49 1.268 . S
O56 Sc46 2.105 1_565 S
O56 C50 1.268 . S
O57 Sc44 2.105 . S
O57 C51 1.268 . S
O58 Sc46 2.105 . S
O58 C52 1.268 . S
O59 Sc45 2.103 . S
O59 C53 1.268 . S
O60 Sc44 2.105 . S
O60 C52 1.268 . S
O61 Sc45 2.101 . S
O61 C51 1.268 . S
O62 Sc46 2.105 . S
O62 C53 1.268 . S
O63 Sc44 2.105 1_565 S
O63 C49 1.268 . S
O64 Sc46 2.105 1_565 S
O64 C48 1.268 . S
O65 Sc45 2.109 1_565 S
O65 C50 1.268 . S
Sc66 O69 2.025 . S
Sc66 O76 2.105 . S
Sc66 O79 2.105 1_455 S
Sc66 O82 2.105 1_455 S
Sc66 O85 2.105 . S
Sc67 O69 2.026 . S
Sc67 O77 2.103 . S
Sc67 O81 2.106 1_455 S
Sc67 O83 2.109 1_455 S
Sc67 O87 2.100 . S
Sc68 O69 2.025 . S
Sc68 O78 2.105 . S
Sc68 O80 2.105 1_455 S
Sc68 O84 2.105 1_455 S
Sc68 O86 2.105 . S
O69 Sc66 2.025 . S
O69 Sc67 2.026 . S
O69 Sc68 2.025 . S
C70 O76 1.268 . S
C70 O86 1.268 . S
C71 O77 1.268 . S
C71 O85 1.268 . S
C72 O78 1.268 . S
C72 O87 1.268 . S
C73 O79 1.268 . S
C73 O83 1.268 . S
C74 O80 1.268 . S
C74 O82 1.268 . S
C75 O81 1.268 . S
C75 O84 1.268 . S
O76 Sc66 2.105 . S
O76 C70 1.268 . S
O77 Sc67 2.103 . S
O77 C71 1.268 . S
O78 Sc68 2.105 . S
O78 C72 1.268 . S
O79 Sc66 2.105 1_655 S
O79 C73 1.268 . S
O80 Sc68 2.105 1_655 S
O80 C74 1.268 . S
O81 Sc67 2.106 1_655 S
O81 C75 1.268 . S
O82 Sc66 2.105 1_655 S
O82 C74 1.268 . S
O83 Sc67 2.109 1_655 S
O83 C73 1.268 . S
O84 Sc68 2.105 1_655 S
O84 C75 1.268 . S
O85 Sc66 2.105 . S
O85 C71 1.268 . S
O86 Sc68 2.105 . S
O86 C70 1.268 . S
O87 Sc67 2.100 . S
O87 C72 1.268 . S
Sc88 O91 2.025 . S
Sc88 O98 2.105 . S
Sc88 O101 2.105 . S
Sc88 O104 2.105 . S
Sc88 O107 2.105 . S
Sc89 O91 2.025 . S
Sc89 O99 2.105 . S
Sc89 O103 2.105 . S
Sc89 O105 2.105 . S
Sc89 O109 2.105 . S
Sc90 O91 2.025 . S
Sc90 O100 2.105 . S
Sc90 O102 2.105 . S
Sc90 O106 2.105 . S
Sc90 O108 2.105 . S
O91 Sc88 2.025 . S
O91 Sc89 2.025 . S
O91 Sc90 2.025 . S
C92 O98 1.268 . S
C92 O108 1.268 . S
C93 O99 1.268 . S
C93 O107 1.268 . S
C94 O100 1.268 . S
C94 O109 1.268 . S
C95 O101 1.268 . S
C95 O105 1.268 . S
C96 O102 1.268 . S
C96 O104 1.268 . S
C97 O103 1.268 . S
C97 O106 1.268 . S
O98 Sc88 2.105 . S
O98 C92 1.268 . S
O99 Sc89 2.105 . S
O99 C93 1.268 . S
O100 Sc90 2.105 . S
O100 C94 1.268 . S
O101 Sc88 2.105 . S
O101 C95 1.268 . S
O102 Sc90 2.105 . S
O102 C96 1.268 . S
O103 Sc89 2.105 . S
O103 C97 1.268 . S
O104 Sc88 2.105 . S
O104 C96 1.268 . S
O105 Sc89 2.105 . S
O105 C95 1.268 . S
O106 Sc90 2.105 . S
O106 C97 1.268 . S
O107 Sc88 2.105 . S
O107 C93 1.268 . S
O108 Sc90 2.105 . S
O108 C92 1.268 . S
O109 Sc89 2.105 . S
O109 C94 1.268 . S
Sc110 O113 2.025 . S
Sc110 O120 2.105 1_545 S
Sc110 O123 2.105 . S
Sc110 O126 2.105 . S
Sc110 O129 2.105 1_545 S
Sc111 O113 2.025 . S
Sc111 O121 2.105 1_545 S
Sc111 O125 2.105 . S
Sc111 O127 2.105 . S
Sc111 O131 2.105 1_545 S
Sc112 O113 2.026 . S
Sc112 O122 2.106 1_545 S
Sc112 O124 2.103 . S
Sc112 O128 2.100 . S
Sc112 O130 2.109 1_545 S
O113 Sc110 2.025 . S
O113 Sc111 2.025 . S
O113 Sc112 2.026 . S
C114 O120 1.268 . S
C114 O130 1.268 . S
C115 O121 1.268 . S
C115 O129 1.268 . S
C116 O122 1.268 . S
C116 O131 1.268 . S
C117 O123 1.268 . S
C117 O127 1.268 . S
C118 O124 1.268 . S
C118 O126 1.268 . S
C119 O125 1.268 . S
C119 O128 1.268 . S
O120 Sc110 2.105 1_565 S
O120 C114 1.268 . S
O121 Sc111 2.105 1_565 S
O121 C115 1.268 . S
O122 Sc112 2.106 1_565 S
O122 C116 1.268 . S
O123 Sc110 2.105 . S
O123 C117 1.268 . S
O124 Sc112 2.103 . S
O124 C118 1.268 . S
O125 Sc111 2.105 . S
O125 C119 1.268 . S
O126 Sc110 2.105 . S
O126 C118 1.268 . S
O127 Sc111 2.105 . S
O127 C117 1.268 . S
O128 Sc112 2.100 . S
O128 C119 1.268 . S
O129 Sc110 2.105 1_565 S
O129 C115 1.268 . S
O130 Sc112 2.109 1_565 S
O130 C114 1.268 . S
O131 Sc111 2.105 1_565 S
O131 C116 1.268 . S
Sc132 O135 2.025 . S
Sc132 O142 2.105 1_554 S
Sc132 O145 2.105 . S
Sc132 O148 2.105 1_554 S
Sc132 O151 2.105 . S
Sc133 O135 2.025 . S
Sc133 O143 2.105 . S
Sc133 O147 2.105 . S
Sc133 O149 2.105 . S
Sc133 O153 2.105 . S
Sc134 O135 2.025 1_556 S
Sc134 O144 2.105 . S
Sc134 O146 2.105 . S
Sc134 O150 2.105 1_556 S
Sc134 O152 2.105 . S
O135 Sc132 2.025 . S
O135 Sc133 2.025 . S
O135 Sc134 2.025 1_554 S
C136 O142 1.268 . S
C136 O152 1.268 . S
C137 O143 1.268 . S
C137 O151 1.268 . S
C138 O144 1.268 1_554 S
C138 O153 1.268 . S
C139 O145 1.268 . S
C139 O149 1.268 . S
C140 O146 1.268 . S
C140 O148 1.268 . S
C141 O147 1.268 . S
C141 O150 1.268 . S
O142 Sc132 2.105 1_556 S
O142 C136 1.268 . S
O143 Sc133 2.105 . S
O143 C137 1.268 . S
O144 Sc134 2.105 . S
O144 C138 1.268 1_556 S
O145 Sc132 2.105 . S
O145 C139 1.268 . S
O146 Sc134 2.105 . S
O146 C140 1.268 . S
O147 Sc133 2.105 . S
O147 C141 1.268 . S
O148 Sc132 2.105 1_556 S
O148 C140 1.268 . S
O149 Sc133 2.105 . S
O149 C139 1.268 . S
O150 Sc134 2.105 1_554 S
O150 C141 1.268 . S
O151 Sc132 2.105 . S
O151 C137 1.268 . S
O152 Sc134 2.105 . S
O152 C136 1.268 . S
O153 Sc133 2.105 . S
O153 C138 1.268 . S
Sc154 O157 2.025 . S
Sc154 O164 2.105 1_554 S
Sc154 O167 2.105 . S
Sc154 O170 2.105 1_554 S
Sc154 O173 2.105 . S
Sc155 O157 2.025 . S
Sc155 O165 2.105 . S
Sc155 O169 2.105 . S
Sc155 O171 2.105 . S
Sc155 O175 2.105 . S
Sc156 O157 2.025 1_556 S
Sc156 O166 2.105 . S
Sc156 O168 2.105 . S
Sc156 O172 2.105 1_556 S
Sc156 O174 2.105 . S
O157 Sc154 2.025 . S
O157 Sc155 2.025 . S
O157 Sc156 2.025 1_554 S
C158 O164 1.268 . S
C158 O174 1.268 . S
C159 O165 1.268 . S
C159 O173 1.268 . S
C160 O166 1.268 1_554 S
C160 O175 1.268 . S
C161 O167 1.268 . S
C161 O171 1.268 . S
C162 O168 1.268 . S
C162 O170 1.268 . S
C163 O169 1.268 . S
C163 O172 1.268 . S
O164 Sc154 2.105 1_556 S
O164 C158 1.268 . S
O165 Sc155 2.105 . S
O165 C159 1.268 . S
O166 Sc156 2.105 . S
O166 C160 1.268 1_556 S
O167 Sc154 2.105 . S
O167 C161 1.268 . S
O168 Sc156 2.105 . S
O168 C162 1.268 . S
O169 Sc155 2.105 . S
O169 C163 1.268 . S
O170 Sc154 2.105 1_556 S
O170 C162 1.268 . S
O171 Sc155 2.105 . S
O171 C161 1.268 . S
O172 Sc156 2.105 1_554 S
O172 C163 1.268 . S
O173 Sc154 2.105 . S
O173 C159 1.268 . S
O174 Sc156 2.105 . S
O174 C158 1.268 . S
O175 Sc155 2.105 . S
O175 C160 1.268 . S
Sc176 O179 2.025 . S
Sc176 O186 2.105 1_554 S
Sc176 O189 2.105 . S
Sc176 O192 2.105 1_554 S
Sc176 O195 2.105 . S
Sc177 O179 2.025 . S
Sc177 O187 2.105 . S
Sc177 O191 2.105 . S
Sc177 O193 2.105 . S
Sc177 O197 2.105 . S
Sc178 O179 2.025 1_556 S
Sc178 O188 2.105 . S
Sc178 O190 2.105 . S
Sc178 O194 2.105 1_556 S
Sc178 O196 2.105 . S
O179 Sc176 2.025 . S
O179 Sc177 2.025 . S
O179 Sc178 2.025 1_554 S
C180 O186 1.268 . S
C180 O196 1.268 . S
C181 O187 1.268 . S
C181 O195 1.268 . S
C182 O188 1.268 1_554 S
C182 O197 1.268 . S
C183 O189 1.268 . S
C183 O193 1.268 . S
C184 O190 1.268 . S
C184 O192 1.268 . S
C185 O191 1.268 . S
C185 O194 1.268 . S
O186 Sc176 2.105 1_556 S
O186 C180 1.268 . S
O187 Sc177 2.105 . S
O187 C181 1.268 . S
O188 Sc178 2.105 . S
O188 C182 1.268 1_556 S
O189 Sc176 2.105 . S
O189 C183 1.268 . S
O190 Sc178 2.105 . S
O190 C184 1.268 . S
O191 Sc177 2.105 . S
O191 C185 1.268 . S
O192 Sc176 2.105 1_556 S
O192 C184 1.268 . S
O193 Sc177 2.105 . S
O193 C183 1.268 . S
O194 Sc178 2.105 1_554 S
O194 C185 1.268 . S
O195 Sc176 2.105 . S
O195 C181 1.268 . S
O196 Sc178 2.105 . S
O196 C180 1.268 . S
O197 Sc177 2.105 . S
O197 C182 1.268 . S
Sc198 O201 2.025 . S
Sc198 O208 2.105 . S
Sc198 O211 2.105 . S
Sc198 O214 2.105 . S
Sc198 O217 2.105 . S
Sc199 O201 2.025 . S
Sc199 O209 2.105 . S
Sc199 O213 2.105 . S
Sc199 O215 2.105 . S
Sc199 O219 2.105 . S
Sc200 O201 2.025 . S
Sc200 O210 2.105 . S
Sc200 O212 2.105 . S
Sc200 O216 2.105 . S
Sc200 O218 2.105 . S
O201 Sc198 2.025 . S
O201 Sc199 2.025 . S
O201 Sc200 2.025 . S
C202 O208 1.268 . S
C202 O218 1.268 . S
C203 O209 1.268 . S
C203 O217 1.268 . S
C204 O210 1.268 . S
C204 O219 1.268 . S
C205 O211 1.268 . S
C205 O215 1.268 . S
C206 O212 1.268 . S
C206 O214 1.268 . S
C207 O213 1.268 . S
C207 O216 1.268 . S
O208 Sc198 2.105 . S
O208 C202 1.268 . S
O209 Sc199 2.105 . S
O209 C203 1.268 . S
O210 Sc200 2.105 . S
O210 C204 1.268 . S
O211 Sc198 2.105 . S
O211 C205 1.268 . S
O212 Sc200 2.105 . S
O212 C206 1.268 . S
O213 Sc199 2.105 . S
O213 C207 1.268 . S
O214 Sc198 2.105 . S
O214 C206 1.268 . S
O215 Sc199 2.105 . S
O215 C205 1.268 . S
O216 Sc200 2.105 . S
O216 C207 1.268 . S
O217 Sc198 2.105 . S
O217 C203 1.268 . S
O218 Sc200 2.105 . S
O218 C202 1.268 . S
O219 Sc199 2.105 . S
O219 C204 1.268 . S
Sc220 O223 2.025 . S
Sc220 O230 2.105 . S
Sc220 O233 2.105 . S
Sc220 O236 2.105 . S
Sc220 O239 2.105 . S
Sc221 O223 2.025 . S
Sc221 O231 2.105 . S
Sc221 O235 2.105 . S
Sc221 O237 2.105 . S
Sc221 O241 2.105 . S
Sc222 O223 2.025 . S
Sc222 O232 2.105 . S
Sc222 O234 2.105 . S
Sc222 O238 2.105 . S
Sc222 O240 2.105 . S
O223 Sc220 2.025 . S
O223 Sc221 2.025 . S
O223 Sc222 2.025 . S
C224 O230 1.268 . S
C224 O240 1.268 . S
C225 O231 1.268 . S
C225 O239 1.268 . S
C226 O232 1.268 . S
C226 O241 1.268 . S
C227 O233 1.268 . S
C227 O237 1.268 . S
C228 O234 1.268 . S
C228 O236 1.268 . S
C229 O235 1.268 . S
C229 O238 1.268 . S
O230 Sc220 2.105 . S
O230 C224 1.268 . S
O231 Sc221 2.105 . S
O231 C225 1.268 . S
O232 Sc222 2.105 . S
O232 C226 1.268 . S
O233 Sc220 2.105 . S
O233 C227 1.268 . S
O234 Sc222 2.105 . S
O234 C228 1.268 . S
O235 Sc221 2.105 . S
O235 C229 1.268 . S
O236 Sc220 2.105 . S
O236 C228 1.268 . S
O237 Sc221 2.105 . S
O237 C227 1.268 . S
O238 Sc222 2.105 . S
O238 C229 1.268 . S
O239 Sc220 2.105 . S
O239 C225 1.268 . S
O240 Sc222 2.105 . S
O240 C224 1.268 . S
O241 Sc221 2.105 . S
O241 C226 1.268 . S
Sc242 O245 2.025 . S
Sc242 O252 2.105 . S
Sc242 O255 2.105 . S
Sc242 O258 2.105 . S
Sc242 O261 2.105 . S
Sc243 O245 2.025 . S
Sc243 O253 2.105 . S
Sc243 O257 2.105 . S
Sc243 O259 2.105 . S
Sc243 O263 2.105 . S
Sc244 O245 2.025 . S
Sc244 O254 2.105 . S
Sc244 O256 2.105 . S
Sc244 O260 2.105 . S
Sc244 O262 2.105 . S
O245 Sc242 2.025 . S
O245 Sc243 2.025 . S
O245 Sc244 2.025 . S
C246 O252 1.268 . S
C246 O262 1.268 . S
C247 O253 1.268 . S
C247 O261 1.268 . S
C248 O254 1.268 . S
C248 O263 1.268 . S
C249 O255 1.268 . S
C249 O259 1.268 . S
C250 O256 1.268 . S
C250 O258 1.268 . S
C251 O257 1.268 . S
C251 O260 1.268 . S
O252 Sc242 2.105 . S
O252 C246 1.268 . S
O253 Sc243 2.105 . S
O253 C247 1.268 . S
O254 Sc244 2.105 . S
O254 C248 1.268 . S
O255 Sc242 2.105 . S
O255 C249 1.268 . S
O256 Sc244 2.105 . S
O256 C250 1.268 . S
O257 Sc243 2.105 . S
O257 C251 1.268 . S
O258 Sc242 2.105 . S
O258 C250 1.268 . S
O259 Sc243 2.105 . S
O259 C249 1.268 . S
O260 Sc244 2.105 . S
O260 C251 1.268 . S
O261 Sc242 2.105 . S
O261 C247 1.268 . S
O262 Sc244 2.105 . S
O262 C246 1.268 . S
O263 Sc243 2.105 . S
O263 C248 1.268 . S
Sc264 O267 2.025 . S
Sc264 O274 2.105 . S
Sc264 O277 2.105 . S
Sc264 O280 2.105 . S
Sc264 O283 2.105 . S
Sc265 O267 2.025 . S
Sc265 O275 2.105 . S
Sc265 O279 2.105 . S
Sc265 O281 2.105 . S
Sc265 O285 2.105 . S
Sc266 O267 2.025 . S
Sc266 O276 2.105 . S
Sc266 O278 2.105 . S
Sc266 O282 2.105 . S
Sc266 O284 2.105 . S
O267 Sc264 2.025 . S
O267 Sc265 2.025 . S
O267 Sc266 2.025 . S
C268 O274 1.268 . S
C268 O284 1.268 . S
C269 O275 1.268 . S
C269 O283 1.268 . S
C270 O276 1.268 . S
C270 O285 1.268 . S
C271 O277 1.268 . S
C271 O281 1.268 . S
C272 O278 1.268 . S
C272 O280 1.268 . S
C273 O279 1.268 . S
C273 O282 1.268 . S
O274 Sc264 2.105 . S
O274 C268 1.268 . S
O275 Sc265 2.105 . S
O275 C269 1.268 . S
O276 Sc266 2.105 . S
O276 C270 1.268 . S
O277 Sc264 2.105 . S
O277 C271 1.268 . S
O278 Sc266 2.105 . S
O278 C272 1.268 . S
O279 Sc265 2.105 . S
O279 C273 1.268 . S
O280 Sc264 2.105 . S
O280 C272 1.268 . S
O281 Sc265 2.105 . S
O281 C271 1.268 . S
O282 Sc266 2.105 . S
O282 C273 1.268 . S
O283 Sc264 2.105 . S
O283 C269 1.268 . S
O284 Sc266 2.105 . S
O284 C268 1.268 . S
O285 Sc265 2.105 . S
O285 C270 1.268 . S
Sc286 O289 2.025 . S
Sc286 O296 2.105 . S
Sc286 O299 2.105 . S
Sc286 O302 2.105 . S
Sc286 O305 2.105 . S
Sc287 O289 2.025 . S
Sc287 O297 2.105 . S
Sc287 O301 2.105 . S
Sc287 O303 2.105 . S
Sc287 O307 2.105 . S
Sc288 O289 2.025 . S
Sc288 O298 2.105 . S
Sc288 O300 2.105 . S
Sc288 O304 2.105 . S
Sc288 O306 2.105 . S
O289 Sc286 2.025 . S
O289 Sc287 2.025 . S
O289 Sc288 2.025 . S
C290 O296 1.268 . S
C290 O306 1.268 . S
C291 O297 1.268 . S
C291 O305 1.268 . S
C292 O298 1.268 . S
C292 O307 1.268 . S
C293 O299 1.268 . S
C293 O303 1.268 . S
C294 O300 1.268 . S
C294 O302 1.268 . S
C295 O301 1.268 . S
C295 O304 1.268 . S
O296 Sc286 2.105 . S
O296 C290 1.268 . S
O297 Sc287 2.105 . S
O297 C291 1.268 . S
O298 Sc288 2.105 . S
O298 C292 1.268 . S
O299 Sc286 2.105 . S
O299 C293 1.268 . S
O300 Sc288 2.105 . S
O300 C294 1.268 . S
O301 Sc287 2.105 . S
O301 C295 1.268 . S
O302 Sc286 2.105 . S
O302 C294 1.268 . S
O303 Sc287 2.105 . S
O303 C293 1.268 . S
O304 Sc288 2.105 . S
O304 C295 1.268 . S
O305 Sc286 2.105 . S
O305 C291 1.268 . S
O306 Sc288 2.105 . S
O306 C290 1.268 . S
O307 Sc287 2.105 . S
O307 C292 1.268 . S
Sc308 O311 2.025 . S
Sc308 O318 2.105 . S
Sc308 O321 2.105 . S
Sc308 O324 2.105 . S
Sc308 O327 2.105 . S
Sc309 O311 2.025 . S
Sc309 O319 2.105 . S
Sc309 O323 2.105 . S
Sc309 O325 2.105 . S
Sc309 O329 2.105 . S
Sc310 O311 2.025 . S
Sc310 O320 2.105 . S
Sc310 O322 2.105 . S
Sc310 O326 2.105 . S
Sc310 O328 2.105 . S
O311 Sc308 2.025 . S
O311 Sc309 2.025 . S
O311 Sc310 2.025 . S
C312 O318 1.268 . S
C312 O328 1.268 . S
C313 O319 1.268 . S
C313 O327 1.268 . S
C314 O320 1.268 . S
C314 O329 1.268 . S
C315 O321 1.268 . S
C315 O325 1.268 . S
C316 O322 1.268 . S
C316 O324 1.268 . S
C317 O323 1.268 . S
C317 O326 1.268 . S
O318 Sc308 2.105 . S
O318 C312 1.268 . S
O319 Sc309 2.105 . S
O319 C313 1.268 . S
O320 Sc310 2.105 . S
O320 C314 1.268 . S
O321 Sc308 2.105 . S
O321 C315 1.268 . S
O322 Sc310 2.105 . S
O322 C316 1.268 . S
O323 Sc309 2.105 . S
O323 C317 1.268 . S
O324 Sc308 2.105 . S
O324 C316 1.268 . S
O325 Sc309 2.105 . S
O325 C315 1.268 . S
O326 Sc310 2.105 . S
O326 C317 1.268 . S
O327 Sc308 2.105 . S
O327 C313 1.268 . S
O328 Sc310 2.105 . S
O328 C312 1.268 . S
O329 Sc309 2.105 . S
O329 C314 1.268 . S
Sc330 O333 2.025 . S
Sc330 O340 2.105 1_556 S
Sc330 O343 2.105 . S
Sc330 O346 2.105 1_556 S
Sc330 O349 2.105 . S
Sc331 O333 2.025 . S
Sc331 O341 2.105 . S
Sc331 O345 2.105 . S
Sc331 O347 2.105 . S
Sc331 O351 2.105 . S
Sc332 O333 2.025 1_554 S
Sc332 O342 2.105 1_554 S
Sc332 O344 2.105 . S
Sc332 O348 2.105 . S
Sc332 O350 2.105 . S
O333 Sc330 2.025 . S
O333 Sc331 2.025 . S
O333 Sc332 2.025 1_556 S
C334 O340 1.268 . S
C334 O350 1.268 . S
C335 O341 1.268 . S
C335 O349 1.268 . S
C336 O342 1.268 . S
C336 O351 1.268 . S
C337 O343 1.268 . S
C337 O347 1.268 . S
C338 O344 1.268 . S
C338 O346 1.268 . S
C339 O345 1.268 . S
C339 O348 1.268 1_556 S
O340 Sc330 2.105 1_554 S
O340 C334 1.268 . S
O341 Sc331 2.105 . S
O341 C335 1.268 . S
O342 Sc332 2.105 1_556 S
O342 C336 1.268 . S
O343 Sc330 2.105 . S
O343 C337 1.268 . S
O344 Sc332 2.105 . S
O344 C338 1.268 . S
O345 Sc331 2.105 . S
O345 C339 1.268 . S
O346 Sc330 2.105 1_554 S
O346 C338 1.268 . S
O347 Sc331 2.105 . S
O347 C337 1.268 . S
O348 Sc332 2.105 . S
O348 C339 1.268 1_554 S
O349 Sc330 2.105 . S
O349 C335 1.268 . S
O350 Sc332 2.105 . S
O350 C334 1.268 . S
O351 Sc331 2.105 . S
O351 C336 1.268 . S
Sc352 O355 2.025 . S
Sc352 O362 2.105 . S
Sc352 O365 2.105 . S
Sc352 O368 2.105 . S
Sc352 O371 2.105 . S
Sc353 O355 2.025 1_554 S
Sc353 O363 2.105 1_554 S
Sc353 O367 2.105 . S
Sc353 O369 2.105 . S
Sc353 O373 2.105 . S
Sc354 O355 2.025 . S
Sc354 O364 2.105 1_556 S
Sc354 O366 2.105 . S
Sc354 O370 2.105 1_556 S
Sc354 O372 2.105 . S
O355 Sc352 2.025 . S
O355 Sc353 2.025 1_556 S
O355 Sc354 2.025 . S
C356 O362 1.268 . S
C356 O372 1.268 . S
C357 O363 1.268 . S
C357 O371 1.268 . S
C358 O364 1.268 . S
C358 O373 1.268 . S
C359 O365 1.268 . S
C359 O369 1.268 1_556 S
C360 O366 1.268 . S
C360 O368 1.268 . S
C361 O367 1.268 . S
C361 O370 1.268 . S
O362 Sc352 2.105 . S
O362 C356 1.268 . S
O363 Sc353 2.105 1_556 S
O363 C357 1.268 . S
O364 Sc354 2.105 1_554 S
O364 C358 1.268 . S
O365 Sc352 2.105 . S
O365 C359 1.268 . S
O366 Sc354 2.105 . S
O366 C360 1.268 . S
O367 Sc353 2.105 . S
O367 C361 1.268 . S
O368 Sc352 2.105 . S
O368 C360 1.268 . S
O369 Sc353 2.105 . S
O369 C359 1.268 1_554 S
O370 Sc354 2.105 1_554 S
O370 C361 1.268 . S
O371 Sc352 2.105 . S
O371 C357 1.268 . S
O372 Sc354 2.105 . S
O372 C356 1.268 . S
O373 Sc353 2.105 . S
O373 C358 1.268 . S
Sc374 O377 2.025 . S
Sc374 O384 2.105 . S
Sc374 O387 2.105 . S
Sc374 O390 2.105 . S
Sc374 O393 2.105 . S
Sc375 O377 2.025 1_554 S
Sc375 O385 2.105 1_554 S
Sc375 O389 2.105 . S
Sc375 O391 2.105 . S
Sc375 O395 2.105 . S
Sc376 O377 2.025 . S
Sc376 O386 2.105 1_556 S
Sc376 O388 2.105 . S
Sc376 O392 2.105 1_556 S
Sc376 O394 2.105 . S
O377 Sc374 2.025 . S
O377 Sc375 2.025 1_556 S
O377 Sc376 2.025 . S
C378 O384 1.268 . S
C378 O394 1.268 . S
C379 O385 1.268 . S
C379 O393 1.268 . S
C380 O386 1.268 . S
C380 O395 1.268 . S
C381 O387 1.268 . S
C381 O391 1.268 1_556 S
C382 O388 1.268 . S
C382 O390 1.268 . S
C383 O389 1.268 . S
C383 O392 1.268 . S
O384 Sc374 2.105 . S
O384 C378 1.268 . S
O385 Sc375 2.105 1_556 S
O385 C379 1.268 . S
O386 Sc376 2.105 1_554 S
O386 C380 1.268 . S
O387 Sc374 2.105 . S
O387 C381 1.268 . S
O388 Sc376 2.105 . S
O388 C382 1.268 . S
O389 Sc375 2.105 . S
O389 C383 1.268 . S
O390 Sc374 2.105 . S
O390 C382 1.268 . S
O391 Sc375 2.105 . S
O391 C381 1.268 1_554 S
O392 Sc376 2.105 1_554 S
O392 C383 1.268 . S
O393 Sc374 2.105 . S
O393 C379 1.268 . S
O394 Sc376 2.105 . S
O394 C378 1.268 . S
O395 Sc375 2.105 . S
O395 C380 1.268 . S
C396 C397 1.369 . S
C396 C398 1.419 . S
C396 H400 0.930 . S
C397 C396 1.369 . S
C397 C406 1.429 . S
C398 C396 1.419 . S
C398 C399 1.363 . S
C398 H401 0.929 . S
C399 C398 1.363 . S
C399 C405 1.428 . S
H400 C396 0.930 . S
H401 C398 0.929 . S
S402 N403 1.613 . S
S402 N404 1.610 . S
N403 S402 1.613 . S
N403 C406 1.350 . S
N404 S402 1.610 . S
N404 C405 1.351 . S
C405 C399 1.428 . S
C405 N404 1.351 . S
C405 C406 1.434 . S
C406 C397 1.429 . S
C406 N403 1.350 . S
C406 C405 1.434 . S
C407 C408 1.369 . S
C407 C409 1.419 . S
C407 H411 0.930 . S
C408 C407 1.369 . S
C408 C417 1.429 . S
C409 C407 1.419 . S
C409 C410 1.363 . S
C409 H412 0.929 . S
C410 C409 1.363 . S
C410 C416 1.428 . S
H411 C407 0.930 . S
H412 C409 0.929 . S
S413 N414 1.613 . S
S413 N415 1.610 . S
N414 S413 1.613 . S
N414 C417 1.350 . S
N415 S413 1.610 . S
N415 C416 1.351 . S
C416 C410 1.428 . S
C416 N415 1.351 . S
C416 C417 1.434 . S
C417 C408 1.429 . S
C417 N414 1.350 . S
C417 C416 1.434 . S
C418 C419 1.369 . S
C418 C420 1.419 . S
C418 H422 0.930 . S
C419 C418 1.369 . S
C419 C428 1.429 . S
C420 C418 1.419 . S
C420 C421 1.363 . S
C420 H423 0.929 . S
C421 C420 1.363 . S
C421 C427 1.428 . S
H422 C418 0.930 . S
H423 C420 0.929 . S
S424 N425 1.613 . S
S424 N426 1.610 . S
N425 S424 1.613 . S
N425 C428 1.350 . S
N426 S424 1.610 . S
N426 C427 1.351 . S
C427 C421 1.428 . S
C427 N426 1.351 . S
C427 C428 1.434 . S
C428 C419 1.429 . S
C428 N425 1.350 . S
C428 C427 1.434 . S
C429 C430 1.369 1_554 S
C429 C431 1.419 . S
C429 H433 0.930 . S
C430 C429 1.369 1_556 S
C430 C439 1.429 . S
C431 C429 1.419 . S
C431 C432 1.363 . S
C431 H434 0.929 . S
C432 C431 1.363 . S
C432 C438 1.428 . S
H433 C429 0.930 . S
H434 C431 0.929 . S
S435 N436 1.613 . S
S435 N437 1.610 1_556 S
N436 S435 1.613 . S
N436 C439 1.350 . S
N437 S435 1.610 1_554 S
N437 C438 1.351 . S
C438 C432 1.428 . S
C438 N437 1.351 . S
C438 C439 1.434 1_554 S
C439 C430 1.429 . S
C439 N436 1.350 . S
C439 C438 1.434 1_556 S
C440 C441 1.369 . S
C440 C442 1.419 1_554 S
C440 H444 0.930 . S
C441 C440 1.369 . S
C441 C450 1.429 . S
C442 C440 1.419 1_556 S
C442 C443 1.363 . S
C442 H445 0.929 . S
C443 C442 1.363 . S
C443 C449 1.428 1_556 S
H444 C440 0.930 . S
H445 C442 0.929 . S
S446 N447 1.613 . S
S446 N448 1.610 1_554 S
N447 S446 1.613 . S
N447 C450 1.350 . S
N448 S446 1.610 1_556 S
N448 C449 1.351 1_556 S
C449 C443 1.428 1_554 S
C449 N448 1.351 1_554 S
C449 C450 1.434 . S
C450 C441 1.429 . S
C450 N447 1.350 . S
C450 C449 1.434 . S
C451 C452 1.369 1_554 S
C451 C453 1.419 . S
C451 H455 0.930 . S
C452 C451 1.369 1_556 S
C452 C461 1.429 . S
C453 C451 1.419 . S
C453 C454 1.363 . S
C453 H456 0.929 . S
C454 C453 1.363 . S
C454 C460 1.428 1_554 S
H455 C451 0.930 . S
H456 C453 0.929 . S
S457 N458 1.613 . S
S457 N459 1.610 . S
N458 S457 1.613 . S
N458 C461 1.350 . S
N459 S457 1.610 . S
N459 C460 1.351 . S
C460 C454 1.428 1_556 S
C460 N459 1.351 . S
C460 C461 1.434 . S
C461 C452 1.429 . S
C461 N458 1.350 . S
C461 C460 1.434 . S
C462 C463 1.369 . S
C462 C464 1.419 . S
C462 H466 0.930 . S
C463 C462 1.369 . S
C463 C472 1.429 . S
C464 C462 1.419 . S
C464 C465 1.363 . S
C464 H467 0.929 . S
C465 C464 1.363 . S
C465 C471 1.428 . S
H466 C462 0.930 . S
H467 C464 0.929 . S
S468 N469 1.613 . S
S468 N470 1.610 . S
N469 S468 1.613 . S
N469 C472 1.350 . S
N470 S468 1.610 . S
N470 C471 1.351 . S
C471 C465 1.428 . S
C471 N470 1.351 . S
C471 C472 1.434 . S
C472 C463 1.429 . S
C472 N469 1.350 . S
C472 C471 1.434 . S
C473 C474 1.369 . S
C473 C475 1.419 . S
C473 H477 0.930 . S
C474 C473 1.369 . S
C474 C483 1.429 . S
C475 C473 1.419 . S
C475 C476 1.363 . S
C475 H478 0.929 . S
C476 C475 1.363 . S
C476 C482 1.428 . S
H477 C473 0.930 . S
H478 C475 0.929 . S
S479 N480 1.613 . S
S479 N481 1.610 . S
N480 S479 1.613 . S
N480 C483 1.350 . S
N481 S479 1.610 . S
N481 C482 1.351 . S
C482 C476 1.428 . S
C482 N481 1.351 . S
C482 C483 1.434 . S
C483 C474 1.429 . S
C483 N480 1.350 . S
C483 C482 1.434 . S
C484 C485 1.369 . S
C484 C486 1.419 . S
C484 H488 0.930 . S
C485 C484 1.369 . S
C485 C494 1.429 . S
C486 C484 1.419 . S
C486 C487 1.363 . S
C486 H489 0.929 . S
C487 C486 1.363 . S
C487 C493 1.428 . S
H488 C484 0.930 . S
H489 C486 0.929 . S
S490 N491 1.613 . S
S490 N492 1.610 . S
N491 S490 1.613 . S
N491 C494 1.350 . S
N492 S490 1.610 . S
N492 C493 1.351 . S
C493 C487 1.428 . S
C493 N492 1.351 . S
C493 C494 1.434 . S
C494 C485 1.429 . S
C494 N491 1.350 . S
C494 C493 1.434 . S
C495 C496 1.369 . S
C495 C497 1.419 . S
C495 H499 0.930 . S
C496 C495 1.369 . S
C496 C505 1.429 1_554 S
C497 C495 1.419 . S
C497 C498 1.363 1_554 S
C497 H500 0.929 . S
C498 C497 1.363 1_556 S
C498 C504 1.428 . S
H499 C495 0.930 . S
H500 C497 0.929 . S
S501 N502 1.613 . S
S501 N503 1.610 . S
N502 S501 1.613 . S
N502 C505 1.350 . S
N503 S501 1.610 . S
N503 C504 1.351 . S
C504 C498 1.428 . S
C504 N503 1.351 . S
C504 C505 1.434 . S
C505 C496 1.429 1_556 S
C505 N502 1.350 . S
C505 C504 1.434 . S
C506 C507 1.369 . S
C506 C508 1.419 1_556 S
C506 H510 0.930 . S
C507 C506 1.369 . S
C507 C516 1.429 . S
C508 C506 1.419 1_554 S
C508 C509 1.363 . S
C508 H511 0.929 . S
C509 C508 1.363 . S
C509 C515 1.428 1_554 S
H510 C506 0.930 . S
H511 C508 0.929 . S
S512 N513 1.613 . S
S512 N514 1.610 . S
N513 S512 1.613 . S
N513 C516 1.350 . S
N514 S512 1.610 . S
N514 C515 1.351 . S
C515 C509 1.428 1_556 S
C515 N514 1.351 . S
C515 C516 1.434 . S
C516 C507 1.429 . S
C516 N513 1.350 . S
C516 C515 1.434 . S
C517 C518 1.369 1_554 S
C517 C519 1.419 . S
C517 H521 0.930 . S
C518 C517 1.369 1_556 S
C518 C527 1.429 . S
C519 C517 1.419 . S
C519 C520 1.363 . S
C519 H522 0.929 . S
C520 C519 1.363 . S
C520 C526 1.428 1_554 S
H521 C517 0.930 . S
H522 C519 0.929 . S
S523 N524 1.613 . S
S523 N525 1.610 . S
N524 S523 1.613 . S
N524 C527 1.350 . S
N525 S523 1.610 . S
N525 C526 1.351 . S
C526 C520 1.428 1_556 S
C526 N525 1.351 . S
C526 C527 1.434 . S
C527 C518 1.429 . S
C527 N524 1.350 . S
C527 C526 1.434 . S
C528 C529 1.369 . S
C528 C530 1.419 . S
C528 H532 0.930 . S
C529 C528 1.369 . S
C529 C538 1.429 . S
C530 C528 1.419 . S
C530 C531 1.363 . S
C530 H533 0.929 . S
C531 C530 1.363 . S
C531 C537 1.428 . S
H532 C528 0.930 . S
H533 C530 0.929 . S
S534 N535 1.613 . S
S534 N536 1.610 . S
N535 S534 1.613 . S
N535 C538 1.350 . S
N536 S534 1.610 . S
N536 C537 1.351 . S
C537 C531 1.428 . S
C537 N536 1.351 . S
C537 C538 1.434 . S
C538 C529 1.429 . S
C538 N535 1.350 . S
C538 C537 1.434 . S
C539 C540 1.369 . S
C539 C541 1.419 . S
C539 H543 0.930 . S
C540 C539 1.369 . S
C540 C549 1.429 . S
C541 C539 1.419 . S
C541 C542 1.363 . S
C541 H544 0.929 . S
C542 C541 1.363 . S
C542 C548 1.428 . S
H543 C539 0.930 . S
H544 C541 0.929 . S
S545 N546 1.613 . S
S545 N547 1.610 . S
N546 S545 1.613 . S
N546 C549 1.350 . S
N547 S545 1.610 . S
N547 C548 1.351 . S
C548 C542 1.428 . S
C548 N547 1.351 . S
C548 C549 1.434 . S
C549 C540 1.429 . S
C549 N546 1.350 . S
C549 C548 1.434 . S
C550 C551 1.369 . S
C550 C552 1.419 . S
C550 H554 0.930 . S
C551 C550 1.369 . S
C551 C560 1.429 . S
C552 C550 1.419 . S
C552 C553 1.363 . S
C552 H555 0.929 . S
C553 C552 1.363 . S
C553 C559 1.428 . S
H554 C550 0.930 . S
H555 C552 0.929 . S
S556 N557 1.613 . S
S556 N558 1.610 1_554 S
N557 S556 1.613 . S
N557 C560 1.350 1_554 S
N558 S556 1.610 1_556 S
N558 C559 1.351 . S
C559 C553 1.428 . S
C559 N558 1.351 . S
C559 C560 1.434 . S
C560 C551 1.429 . S
C560 N557 1.350 1_556 S
C560 C559 1.434 . S
C561 C562 1.369 . S
C561 C563 1.419 . S
C561 H565 0.930 . S
C562 C561 1.369 . S
C562 C571 1.429 . S
C563 C561 1.419 . S
C563 C564 1.363 . S
C563 H566 0.929 . S
C564 C563 1.363 . S
C564 C570 1.428 . S
H565 C561 0.930 . S
H566 C563 0.929 . S
S567 N568 1.613 . S
S567 N569 1.610 . S
N568 S567 1.613 . S
N568 C571 1.350 . S
N569 S567 1.610 . S
N569 C570 1.351 . S
C570 C564 1.428 . S
C570 N569 1.351 . S
C570 C571 1.434 . S
C571 C562 1.429 . S
C571 N568 1.350 . S
C571 C570 1.434 . S
C572 C573 1.369 . S
C572 C574 1.419 . S
C572 H576 0.930 . S
C573 C572 1.369 . S
C573 C582 1.429 . S
C574 C572 1.419 . S
C574 C575 1.363 . S
C574 H577 0.929 . S
C575 C574 1.363 . S
C575 C581 1.428 . S
H576 C572 0.930 . S
H577 C574 0.929 . S
S578 N579 1.613 . S
S578 N580 1.610 . S
N579 S578 1.613 . S
N579 C582 1.350 . S
N580 S578 1.610 . S
N580 C581 1.351 . S
C581 C575 1.428 . S
C581 N580 1.351 . S
C581 C582 1.434 . S
C582 C573 1.429 . S
C582 N579 1.350 . S
C582 C581 1.434 . S
C583 C584 1.369 . S
C583 C585 1.419 . S
C583 H587 0.930 . S
C584 C583 1.369 . S
C584 C593 1.429 . S
C585 C583 1.419 . S
C585 C586 1.363 . S
C585 H588 0.929 . S
C586 C585 1.363 . S
C586 C592 1.428 . S
H587 C583 0.930 . S
H588 C585 0.929 . S
S589 N590 1.613 . S
S589 N591 1.610 . S
N590 S589 1.613 . S
N590 C593 1.350 . S
N591 S589 1.610 . S
N591 C592 1.351 . S
C592 C586 1.428 . S
C592 N591 1.351 . S
C592 C593 1.434 . S
C593 C584 1.429 . S
C593 N590 1.350 . S
C593 C592 1.434 . S
C594 C595 1.369 . S
C594 C596 1.419 . S
C594 H598 0.930 . S
C595 C594 1.369 . S
C595 C604 1.429 . S
C596 C594 1.419 . S
C596 C597 1.363 . S
C596 H599 0.929 . S
C597 C596 1.363 . S
C597 C603 1.428 . S
H598 C594 0.930 . S
H599 C596 0.929 . S
S600 N601 1.613 . S
S600 N602 1.610 . S
N601 S600 1.613 . S
N601 C604 1.350 . S
N602 S600 1.610 . S
N602 C603 1.351 . S
C603 C597 1.428 . S
C603 N602 1.351 . S
C603 C604 1.434 . S
C604 C595 1.429 . S
C604 N601 1.350 . S
C604 C603 1.434 . S
C605 C606 1.369 . S
C605 C607 1.419 . S
C605 H609 0.930 . S
C606 C605 1.369 . S
C606 C615 1.429 . S
C607 C605 1.419 . S
C607 C608 1.363 . S
C607 H610 0.929 . S
C608 C607 1.363 . S
C608 C614 1.428 . S
H609 C605 0.930 . S
H610 C607 0.929 . S
S611 N612 1.613 . S
S611 N613 1.610 . S
N612 S611 1.613 . S
N612 C615 1.350 . S
N613 S611 1.610 . S
N613 C614 1.351 . S
C614 C608 1.428 . S
C614 N613 1.351 . S
C614 C615 1.434 . S
C615 C606 1.429 . S
C615 N612 1.350 . S
C615 C614 1.434 . S
C616 C617 1.369 . S
C616 C618 1.419 . S
C616 H620 0.930 . S
C617 C616 1.369 . S
C617 C626 1.429 . S
C618 C616 1.419 . S
C618 C619 1.363 . S
C618 H621 0.929 . S
C619 C618 1.363 . S
C619 C625 1.428 . S
H620 C616 0.930 . S
H621 C618 0.929 . S
S622 N623 1.613 . S
S622 N624 1.610 1_554 S
N623 S622 1.613 . S
N623 C626 1.350 1_554 S
N624 S622 1.610 1_556 S
N624 C625 1.351 . S
C625 C619 1.428 . S
C625 N624 1.351 . S
C625 C626 1.434 . S
C626 C617 1.429 . S
C626 N623 1.350 1_556 S
C626 C625 1.434 . S
C627 C628 1.369 . S
C627 C629 1.419 . S
C627 H631 0.930 . S
C628 C627 1.369 . S
C628 C637 1.429 . S
C629 C627 1.419 . S
C629 C630 1.363 . S
C629 H632 0.929 . S
C630 C629 1.363 . S
C630 C636 1.428 . S
H631 C627 0.930 . S
H632 C629 0.929 . S
S633 N634 1.613 . S
S633 N635 1.610 . S
N634 S633 1.613 . S
N634 C637 1.350 . S
N635 S633 1.610 . S
N635 C636 1.351 . S
C636 C630 1.428 . S
C636 N635 1.351 . S
C636 C637 1.434 . S
C637 C628 1.429 . S
C637 N634 1.350 . S
C637 C636 1.434 . S
C638 C639 1.369 . S
C638 C640 1.419 . S
C638 H642 0.930 . S
C639 C638 1.369 . S
C639 C648 1.429 . S
C640 C638 1.419 . S
C640 C641 1.363 . S
C640 H643 0.929 . S
C641 C640 1.363 . S
C641 C647 1.428 . S
H642 C638 0.930 . S
H643 C640 0.929 . S
S644 N645 1.613 . S
S644 N646 1.610 . S
N645 S644 1.613 . S
N645 C648 1.350 . S
N646 S644 1.610 . S
N646 C647 1.351 . S
C647 C641 1.428 . S
C647 N646 1.351 . S
C647 C648 1.434 . S
C648 C639 1.429 . S
C648 N645 1.350 . S
C648 C647 1.434 . S
C649 C650 1.369 . S
C649 C651 1.419 . S
C649 H653 0.930 . S
C650 C649 1.369 . S
C650 C659 1.429 . S
C651 C649 1.419 . S
C651 C652 1.363 . S
C651 H654 0.929 . S
C652 C651 1.363 . S
C652 C658 1.428 . S
H653 C649 0.930 . S
H654 C651 0.929 . S
S655 N656 1.613 . S
S655 N657 1.610 . S
N656 S655 1.613 . S
N656 C659 1.350 . S
N657 S655 1.610 . S
N657 C658 1.351 . S
C658 C652 1.428 . S
C658 N657 1.351 . S
C658 C659 1.434 . S
C659 C650 1.429 . S
C659 N656 1.350 . S
C659 C658 1.434 . S
C660 C661 1.369 . S
C660 C662 1.419 . S
C660 H664 0.930 . S
C661 C660 1.369 . S
C661 C670 1.429 . S
C662 C660 1.419 . S
C662 C663 1.363 . S
C662 H665 0.929 . S
C663 C662 1.363 . S
C663 C669 1.428 . S
H664 C660 0.930 . S
H665 C662 0.929 . S
S666 N667 1.613 . S
S666 N668 1.610 . S
N667 S666 1.613 . S
N667 C670 1.350 . S
N668 S666 1.610 . S
N668 C669 1.351 . S
C669 C663 1.428 . S
C669 N668 1.351 . S
C669 C670 1.434 . S
C670 C661 1.429 . S
C670 N667 1.350 . S
C670 C669 1.434 . S
C671 C672 1.369 . S
C671 C673 1.419 . S
C671 H675 0.930 . S
C672 C671 1.369 . S
C672 C681 1.429 . S
C673 C671 1.419 . S
C673 C674 1.363 . S
C673 H676 0.929 . S
C674 C673 1.363 . S
C674 C680 1.428 . S
H675 C671 0.930 . S
H676 C673 0.929 . S
S677 N678 1.613 . S
S677 N679 1.610 . S
N678 S677 1.613 . S
N678 C681 1.350 . S
N679 S677 1.610 . S
N679 C680 1.351 . S
C680 C674 1.428 . S
C680 N679 1.351 . S
C680 C681 1.434 . S
C681 C672 1.429 . S
C681 N678 1.350 . S
C681 C680 1.434 . S
C682 C683 1.369 . S
C682 C684 1.419 . S
C682 H686 0.930 . S
C683 C682 1.369 . S
C683 C692 1.429 . S
C684 C682 1.419 . S
C684 C685 1.363 . S
C684 H687 0.929 . S
C685 C684 1.363 . S
C685 C691 1.428 . S
H686 C682 0.930 . S
H687 C684 0.929 . S
S688 N689 1.613 . S
S688 N690 1.610 1_556 S
N689 S688 1.613 . S
N689 C692 1.350 1_556 S
N690 S688 1.610 1_554 S
N690 C691 1.351 . S
C691 C685 1.428 . S
C691 N690 1.351 . S
C691 C692 1.434 . S
C692 C683 1.429 . S
C692 N689 1.350 1_554 S
C692 C691 1.434 . S
C693 C694 1.369 . S
C693 C695 1.419 . S
C693 H697 0.930 . S
C694 C693 1.369 . S
C694 C703 1.429 . S
C695 C693 1.419 . S
C695 C696 1.363 . S
C695 H698 0.929 . S
C696 C695 1.363 . S
C696 C702 1.428 . S
H697 C693 0.930 . S
H698 C695 0.929 . S
S699 N700 1.613 . S
S699 N701 1.610 . S
N700 S699 1.613 . S
N700 C703 1.350 . S
N701 S699 1.610 . S
N701 C702 1.351 . S
C702 C696 1.428 . S
C702 N701 1.351 . S
C702 C703 1.434 . S
C703 C694 1.429 . S
C703 N700 1.350 . S
C703 C702 1.434 . S
C704 C705 1.369 . S
C704 C706 1.419 . S
C704 H708 0.930 . S
C705 C704 1.369 . S
C705 C714 1.429 . S
C706 C704 1.419 . S
C706 C707 1.363 . S
C706 H709 0.929 . S
C707 C706 1.363 . S
C707 C713 1.428 . S
H708 C704 0.930 . S
H709 C706 0.929 . S
S710 N711 1.613 . S
S710 N712 1.610 . S
N711 S710 1.613 . S
N711 C714 1.350 . S
N712 S710 1.610 . S
N712 C713 1.351 . S
C713 C707 1.428 . S
C713 N712 1.351 . S
C713 C714 1.434 . S
C714 C705 1.429 . S
C714 N711 1.350 . S
C714 C713 1.434 . S
C715 C716 1.369 . S
C715 C717 1.419 . S
C715 H719 0.930 . S
C716 C715 1.369 . S
C716 C725 1.429 . S
C717 C715 1.419 . S
C717 C718 1.363 . S
C717 H720 0.929 . S
C718 C717 1.363 . S
C718 C724 1.428 . S
H719 C715 0.930 . S
H720 C717 0.929 . S
S721 N722 1.613 . S
S721 N723 1.610 . S
N722 S721 1.613 . S
N722 C725 1.350 . S
N723 S721 1.610 . S
N723 C724 1.351 . S
C724 C718 1.428 . S
C724 N723 1.351 . S
C724 C725 1.434 . S
C725 C716 1.429 . S
C725 N722 1.350 . S
C725 C724 1.434 . S
C726 C727 1.369 . S
C726 C728 1.419 . S
C726 H730 0.930 . S
C727 C726 1.369 . S
C727 C736 1.429 . S
C728 C726 1.419 . S
C728 C729 1.363 . S
C728 H731 0.929 . S
C729 C728 1.363 . S
C729 C735 1.428 . S
H730 C726 0.930 . S
H731 C728 0.929 . S
S732 N733 1.613 . S
S732 N734 1.610 . S
N733 S732 1.613 . S
N733 C736 1.350 . S
N734 S732 1.610 . S
N734 C735 1.351 . S
C735 C729 1.428 . S
C735 N734 1.351 . S
C735 C736 1.434 . S
C736 C727 1.429 . S
C736 N733 1.350 . S
C736 C735 1.434 . S
C737 C738 1.369 . S
C737 C739 1.419 . S
C737 H741 0.930 . S
C738 C737 1.369 . S
C738 C747 1.429 . S
C739 C737 1.419 . S
C739 C740 1.363 . S
C739 H742 0.929 . S
C740 C739 1.363 . S
C740 C746 1.428 . S
H741 C737 0.930 . S
H742 C739 0.929 . S
S743 N744 1.613 1_556 S
S743 N745 1.610 . S
N744 S743 1.613 1_554 S
N744 C747 1.350 . S
N745 S743 1.610 . S
N745 C746 1.351 1_556 S
C746 C740 1.428 . S
C746 N745 1.351 1_554 S
C746 C747 1.434 . S
C747 C738 1.429 . S
C747 N744 1.350 . S
C747 C746 1.434 . S
C748 C749 1.369 . S
C748 C750 1.419 . S
C748 H752 0.930 . S
C749 C748 1.369 . S
C749 C758 1.429 . S
C750 C748 1.419 . S
C750 C751 1.363 . S
C750 H753 0.929 . S
C751 C750 1.363 . S
C751 C757 1.428 . S
H752 C748 0.930 . S
H753 C750 0.929 . S
S754 N755 1.613 . S
S754 N756 1.610 . S
N755 S754 1.613 . S
N755 C758 1.350 . S
N756 S754 1.610 . S
N756 C757 1.351 . S
C757 C751 1.428 . S
C757 N756 1.351 . S
C757 C758 1.434 . S
C758 C749 1.429 . S
C758 N755 1.350 . S
C758 C757 1.434 . S
C759 C760 1.369 . S
C759 C761 1.419 . S
C759 H763 0.930 . S
C760 C759 1.369 . S
C760 C769 1.429 . S
C761 C759 1.419 . S
C761 C762 1.363 . S
C761 H764 0.929 . S
C762 C761 1.363 . S
C762 C768 1.428 . S
H763 C759 0.930 . S
H764 C761 0.929 . S
S765 N766 1.613 . S
S765 N767 1.610 . S
N766 S765 1.613 . S
N766 C769 1.350 . S
N767 S765 1.610 . S
N767 C768 1.351 . S
C768 C762 1.428 . S
C768 N767 1.351 . S
C768 C769 1.434 . S
C769 C760 1.429 . S
C769 N766 1.350 . S
C769 C768 1.434 . S
C770 C771 1.369 . S
C770 C772 1.419 . S
C770 H774 0.930 . S
C771 C770 1.369 . S
C771 C780 1.429 . S
C772 C770 1.419 . S
C772 C773 1.363 . S
C772 H775 0.929 . S
C773 C772 1.363 . S
C773 C779 1.428 . S
H774 C770 0.930 . S
H775 C772 0.929 . S
S776 N777 1.613 . S
S776 N778 1.610 . S
N777 S776 1.613 . S
N777 C780 1.350 . S
N778 S776 1.610 . S
N778 C779 1.351 . S
C779 C773 1.428 . S
C779 N778 1.351 . S
C779 C780 1.434 . S
C780 C771 1.429 . S
C780 N777 1.350 . S
C780 C779 1.434 . S
C781 C782 1.369 . S
C781 C783 1.419 . S
C781 H785 0.930 . S
C782 C781 1.369 . S
C782 C791 1.429 . S
C783 C781 1.419 . S
C783 C784 1.363 . S
C783 H786 0.929 . S
C784 C783 1.363 . S
C784 C790 1.428 . S
H785 C781 0.930 . S
H786 C783 0.929 . S
S787 N788 1.613 . S
S787 N789 1.610 . S
N788 S787 1.613 . S
N788 C791 1.350 . S
N789 S787 1.610 . S
N789 C790 1.351 . S
C790 C784 1.428 . S
C790 N789 1.351 . S
C790 C791 1.434 . S
C791 C782 1.429 . S
C791 N788 1.350 . S
C791 C790 1.434 . S
C792 C793 1.369 . S
C792 C794 1.419 . S
C792 H796 0.930 . S
C793 C792 1.369 . S
C793 C802 1.429 . S
C794 C792 1.419 . S
C794 C795 1.363 . S
C794 H797 0.929 . S
C795 C794 1.363 . S
C795 C801 1.428 . S
H796 C792 0.930 . S
H797 C794 0.929 . S
S798 N799 1.613 . S
S798 N800 1.610 . S
N799 S798 1.613 . S
N799 C802 1.350 . S
N800 S798 1.610 . S
N800 C801 1.351 . S
C801 C795 1.428 . S
C801 N800 1.351 . S
C801 C802 1.434 . S
C802 C793 1.429 . S
C802 N799 1.350 . S
C802 C801 1.434 . S
C803 C804 1.369 . S
C803 C805 1.419 . S
C803 H807 0.930 . S
C804 C803 1.369 . S
C804 C813 1.429 . S
C805 C803 1.419 . S
C805 C806 1.363 . S
C805 H808 0.929 . S
C806 C805 1.363 . S
C806 C812 1.428 . S
H807 C803 0.930 . S
H808 C805 0.929 . S
S809 N810 1.613 . S
S809 N811 1.610 . S
N810 S809 1.613 . S
N810 C813 1.350 . S
N811 S809 1.610 . S
N811 C812 1.351 . S
C812 C806 1.428 . S
C812 N811 1.351 . S
C812 C813 1.434 . S
C813 C804 1.429 . S
C813 N810 1.350 . S
C813 C812 1.434 . S
C814 C815 1.369 . S
C814 C816 1.419 . S
C814 H818 0.930 . S
C815 C814 1.369 . S
C815 C824 1.429 . S
C816 C814 1.419 . S
C816 C817 1.363 . S
C816 H819 0.929 . S
C817 C816 1.363 . S
C817 C823 1.428 . S
H818 C814 0.930 . S
H819 C816 0.929 . S
S820 N821 1.613 . S
S820 N822 1.610 . S
N821 S820 1.613 . S
N821 C824 1.350 . S
N822 S820 1.610 . S
N822 C823 1.351 . S
C823 C817 1.428 . S
C823 N822 1.351 . S
C823 C824 1.434 . S
C824 C815 1.429 . S
C824 N821 1.350 . S
C824 C823 1.434 . S
C825 C826 1.369 . S
C825 C827 1.419 . S
C825 H829 0.930 . S
C826 C825 1.369 . S
C826 C835 1.429 . S
C827 C825 1.419 . S
C827 C828 1.363 . S
C827 H830 0.929 1_556 S
C828 C827 1.363 . S
C828 C834 1.428 . S
H829 C825 0.930 . S
H830 C827 0.929 1_554 S
S831 N832 1.613 . S
S831 N833 1.610 . S
N832 S831 1.613 . S
N832 C835 1.350 . S
N833 S831 1.610 . S
N833 C834 1.351 . S
C834 C828 1.428 . S
C834 N833 1.351 . S
C834 C835 1.434 . S
C835 C826 1.429 . S
C835 N832 1.350 . S
C835 C834 1.434 . S
C836 C837 1.369 . S
C836 C838 1.419 . S
C836 H840 0.930 . S
C837 C836 1.369 . S
C837 C846 1.429 . S
C838 C836 1.419 . S
C838 C839 1.363 . S
C838 H841 0.929 . S
C839 C838 1.363 . S
C839 C845 1.428 . S
H840 C836 0.930 . S
H841 C838 0.929 . S
S842 N843 1.613 . S
S842 N844 1.610 . S
N843 S842 1.613 . S
N843 C846 1.350 . S
N844 S842 1.610 . S
N844 C845 1.351 . S
C845 C839 1.428 . S
C845 N844 1.351 . S
C845 C846 1.434 . S
C846 C837 1.429 . S
C846 N843 1.350 . S
C846 C845 1.434 . S
C847 C848 1.369 . S
C847 C849 1.419 . S
C847 H851 0.930 . S
C848 C847 1.369 . S
C848 C857 1.429 . S
C849 C847 1.419 . S
C849 C850 1.363 . S
C849 H852 0.929 . S
C850 C849 1.363 . S
C850 C856 1.428 1_556 S
H851 C847 0.930 . S
H852 C849 0.929 . S
S853 N854 1.613 1_554 S
S853 N855 1.610 . S
N854 S853 1.613 1_556 S
N854 C857 1.350 . S
N855 S853 1.610 . S
N855 C856 1.351 . S
C856 C850 1.428 1_554 S
C856 N855 1.351 . S
C856 C857 1.434 1_554 S
C857 C848 1.429 . S
C857 N854 1.350 . S
C857 C856 1.434 1_556 S
C858 C859 1.369 . S
C858 C860 1.419 . S
C858 H862 0.930 . S
C859 C858 1.369 . S
C859 C868 1.429 . S
C860 C858 1.419 . S
C860 C861 1.363 . S
C860 H863 0.929 . S
C861 C860 1.363 . S
C861 C867 1.428 . S
H862 C858 0.930 . S
H863 C860 0.929 . S
S864 N865 1.613 . S
S864 N866 1.610 . S
N865 S864 1.613 . S
N865 C868 1.350 . S
N866 S864 1.610 . S
N866 C867 1.351 . S
C867 C861 1.428 . S
C867 N866 1.351 . S
C867 C868 1.434 . S
C868 C859 1.429 . S
C868 N865 1.350 . S
C868 C867 1.434 . S
C869 C870 1.369 . S
C869 C871 1.419 . S
C869 H873 0.930 . S
C870 C869 1.369 . S
C870 C879 1.429 . S
C871 C869 1.419 . S
C871 C872 1.363 . S
C871 H874 0.929 . S
C872 C871 1.363 . S
C872 C878 1.428 . S
H873 C869 0.930 . S
H874 C871 0.929 . S
S875 N876 1.613 . S
S875 N877 1.610 . S
N876 S875 1.613 . S
N876 C879 1.350 . S
N877 S875 1.610 . S
N877 C878 1.351 . S
C878 C872 1.428 . S
C878 N877 1.351 . S
C878 C879 1.434 . S
C879 C870 1.429 . S
C879 N876 1.350 . S
C879 C878 1.434 . S
C880 C881 1.369 . S
C880 C882 1.419 . S
C880 H884 0.930 . S
C881 C880 1.369 . S
C881 C890 1.429 . S
C882 C880 1.419 . S
C882 C883 1.363 . S
C882 H885 0.929 . S
C883 C882 1.363 . S
C883 C889 1.428 . S
H884 C880 0.930 . S
H885 C882 0.929 . S
S886 N887 1.613 . S
S886 N888 1.610 . S
N887 S886 1.613 . S
N887 C890 1.350 . S
N888 S886 1.610 . S
N888 C889 1.351 . S
C889 C883 1.428 . S
C889 N888 1.351 . S
C889 C890 1.434 . S
C890 C881 1.429 . S
C890 N887 1.350 . S
C890 C889 1.434 . S
C891 C892 1.369 . S
C891 C893 1.419 . S
C891 H895 0.930 . S
C892 C891 1.369 . S
C892 C901 1.429 . S
C893 C891 1.419 . S
C893 C894 1.363 . S
C893 H896 0.929 . S
C894 C893 1.363 . S
C894 C900 1.428 . S
H895 C891 0.930 . S
H896 C893 0.929 . S
S897 N898 1.613 . S
S897 N899 1.610 . S
N898 S897 1.613 . S
N898 C901 1.350 . S
N899 S897 1.610 . S
N899 C900 1.351 . S
C900 C894 1.428 . S
C900 N899 1.351 . S
C900 C901 1.434 . S
C901 C892 1.429 . S
C901 N898 1.350 . S
C901 C900 1.434 . S
C902 C903 1.369 . S
C902 C904 1.419 . S
C902 H906 0.930 . S
C903 C902 1.369 . S
C903 C912 1.429 . S
C904 C902 1.419 . S
C904 C905 1.363 . S
C904 H907 0.929 . S
C905 C904 1.363 . S
C905 C911 1.428 . S
H906 C902 0.930 . S
H907 C904 0.929 . S
S908 N909 1.613 1_556 S
S908 N910 1.610 . S
N909 S908 1.613 1_554 S
N909 C912 1.350 . S
N910 S908 1.610 . S
N910 C911 1.351 1_556 S
C911 C905 1.428 . S
C911 N910 1.351 1_554 S
C911 C912 1.434 . S
C912 C903 1.429 . S
C912 N909 1.350 . S
C912 C911 1.434 . S
C913 C914 1.369 . S
C913 C915 1.419 . S
C913 H917 0.930 . S
C914 C913 1.369 . S
C914 C923 1.429 . S
C915 C913 1.419 . S
C915 C916 1.363 . S
C915 H918 0.929 . S
C916 C915 1.363 . S
C916 C922 1.428 1_554 S
H917 C913 0.930 . S
H918 C915 0.929 . S
S919 N920 1.613 1_556 S
S919 N921 1.610 . S
N920 S919 1.613 1_554 S
N920 C923 1.350 . S
N921 S919 1.610 . S
N921 C922 1.351 . S
C922 C916 1.428 1_556 S
C922 N921 1.351 . S
C922 C923 1.434 1_556 S
C923 C914 1.429 . S
C923 N920 1.350 . S
C923 C922 1.434 1_554 S
C924 C925 1.369 1_455 S
C924 C926 1.419 . S
C924 H928 0.930 . S
C925 C924 1.369 1_655 S
C925 C934 1.429 . S
C926 C924 1.419 . S
C926 C927 1.363 . S
C926 H929 0.929 . S
C927 C926 1.363 . S
C927 C933 1.428 1_455 S
H928 C924 0.930 . S
H929 C926 0.929 . S
S930 N931 1.613 . S
S930 N932 1.610 . S
N931 S930 1.613 . S
N931 C934 1.350 . S
N932 S930 1.610 . S
N932 C933 1.351 . S
C933 C927 1.428 1_655 S
C933 N932 1.351 . S
C933 C934 1.434 . S
C934 C925 1.429 . S
C934 N931 1.350 . S
C934 C933 1.434 . S
C935 C936 1.369 . S
C935 C937 1.419 . S
C935 H939 0.930 . S
C936 C935 1.369 . S
C936 C945 1.429 . S
C937 C935 1.419 . S
C937 C938 1.363 . S
C937 H940 0.929 . S
C938 C937 1.363 . S
C938 C944 1.428 . S
H939 C935 0.930 . S
H940 C937 0.929 . S
S941 N942 1.613 . S
S941 N943 1.610 . S
N942 S941 1.613 . S
N942 C945 1.350 . S
N943 S941 1.610 . S
N943 C944 1.351 . S
C944 C938 1.428 . S
C944 N943 1.351 . S
C944 C945 1.434 . S
C945 C936 1.429 . S
C945 N942 1.350 . S
C945 C944 1.434 . S
C946 C947 1.369 1_545 S
C946 C948 1.419 . S
C946 H950 0.930 . S
C947 C946 1.369 1_565 S
C947 C956 1.429 . S
C948 C946 1.419 . S
C948 C949 1.363 . S
C948 H951 0.929 . S
C949 C948 1.363 . S
C949 C955 1.428 1_545 S
H950 C946 0.930 . S
H951 C948 0.929 . S
S952 N953 1.613 . S
S952 N954 1.610 . S
N953 S952 1.613 . S
N953 C956 1.350 . S
N954 S952 1.610 . S
N954 C955 1.351 . S
C955 C949 1.428 1_565 S
C955 N954 1.351 . S
C955 C956 1.434 . S
C956 C947 1.429 . S
C956 N953 1.350 . S
C956 C955 1.434 . S
C957 C958 1.369 1_545 S
C957 C959 1.419 . S
C957 H961 0.930 . S
C958 C957 1.369 1_565 S
C958 C967 1.429 . S
C959 C957 1.419 . S
C959 C960 1.363 . S
C959 H962 0.929 . S
C960 C959 1.363 . S
C960 C966 1.420 1_545 S
H961 C957 0.930 . S
H962 C959 0.929 . S
S963 N964 1.613 . S
S963 N965 1.610 . S
N964 S963 1.613 . S
N964 C967 1.350 . S
N965 S963 1.610 . S
N965 C966 1.351 . S
C966 C960 1.420 1_565 S
C966 N965 1.351 . S
C966 C967 1.444 . S
C967 C958 1.429 . S
C967 N964 1.350 . S
C967 C966 1.444 . S
C968 C969 1.369 . S
C968 C970 1.419 1_455 S
C968 H972 0.930 . S
C969 C968 1.369 . S
C969 C978 1.429 . S
C970 C968 1.419 1_655 S
C970 C971 1.363 . S
C970 H973 0.929 . S
C971 C970 1.363 . S
C971 C977 1.428 1_655 S
H972 C968 0.930 . S
H973 C970 0.929 . S
S974 N975 1.613 . S
S974 N976 1.610 . S
N975 S974 1.613 . S
N975 C978 1.350 . S
N976 S974 1.610 . S
N976 C977 1.351 . S
C977 C971 1.428 1_455 S
C977 N976 1.351 . S
C977 C978 1.434 . S
C978 C969 1.429 . S
C978 N975 1.350 . S
C978 C977 1.434 . S
C979 C980 1.369 . S
C979 C981 1.419 . S
C979 H983 0.930 . S
C980 C979 1.369 . S
C980 C989 1.429 . S
C981 C979 1.419 . S
C981 C982 1.363 . S
C981 H984 0.929 . S
C982 C981 1.363 . S
C982 C988 1.428 . S
H983 C979 0.930 . S
H984 C981 0.929 . S
S985 N986 1.613 . S
S985 N987 1.610 . S
N986 S985 1.613 . S
N986 C989 1.350 . S
N987 S985 1.610 . S
N987 C988 1.351 . S
C988 C982 1.428 . S
C988 N987 1.351 . S
C988 C989 1.434 . S
C989 C980 1.429 . S
C989 N986 1.350 . S
C989 C988 1.434 . S
C397 C4 1.401 . S
C399 C94 1.388 . S
C408 C114 1.387 . S
C410 C28 1.399 . S
C419 C48 1.402 . S
C421 C70 1.390 . S
C430 C51 1.401 . S
C432 C96 1.390 . S
C441 C117 1.390 . S
C443 C7 1.401 . S
C452 C30 1.399 . S
C454 C73 1.388 . S
C463 C31 1.389 . S
C465 C74 1.401 . S
C474 C52 1.387 . S
C476 C97 1.399 . S
C485 C118 1.399 . S
C487 C8 1.385 . S
C496 C115 1.402 . S
C498 C26 1.389 . S
C507 C49 1.390 . S
C509 C71 1.402 . S
C518 C5 1.388 . S
C520 C92 1.401 . S
C529 C226 1.384 . S
C531 C136 1.399 . S
C540 C158 1.401 . S
C542 C248 1.387 . S
C551 C180 1.399 . S
C553 C204 1.387 . S
C562 C228 1.385 . S
C564 C183 1.399 . S
C573 C250 1.388 . S
C575 C139 1.401 . S
C584 C206 1.387 . S
C586 C161 1.401 . S
C595 C162 1.390 . S
C597 C207 1.401 . S
C606 C184 1.385 . S
C608 C229 1.399 . S
C617 C140 1.387 . S
C619 C251 1.401 . S
C628 C159 1.385 . S
C630 C246 1.400 . S
C639 C181 1.386 . S
C641 C202 1.401 . S
C650 C224 1.398 . S
C652 C137 1.386 . S
C661 C268 1.399 . S
C663 C358 1.385 . S
C672 C292 1.402 . S
C674 C380 1.389 . S
C683 C334 1.388 . S
C685 C312 1.401 . S
C694 C360 1.388 . S
C696 C315 1.401 . S
C705 C271 1.399 . S
C707 C382 1.387 . S
C716 C294 1.399 . S
C718 C337 1.387 . S
C727 C295 1.390 . S
C729 C338 1.401 . S
C738 C316 1.388 . S
C740 C361 1.400 . S
C749 C272 1.385 . S
C751 C383 1.400 . S
C760 C378 1.402 . S
C762 C290 1.390 . S
C771 C335 1.402 . S
C773 C313 1.390 . S
C782 C269 1.386 . S
C784 C356 1.400 . S
C793 C6 1.863 . S
C795 C293 1.869 . S
C804 C27 1.870 . S
C806 C317 1.870 . S
C815 C50 1.869 . S
C817 C273 1.871 . S
C826 C53 1.863 . S
C828 C160 1.864 1_556 S
C837 C9 1.872 . S
C839 C182 1.868 1_556 S
C848 C29 1.865 . S
C850 C138 1.871 1_556 S
C859 C225 1.871 . S
C861 C75 1.864 . S
C870 C95 1.871 . S
C872 C247 1.869 . S
C881 C119 1.868 . S
C883 C203 1.871 . S
C892 C359 1.866 1_554 S
C894 C116 1.863 . S
C903 C72 1.865 . S
C905 C381 1.871 1_554 S
C914 C93 1.862 . S
C916 C339 1.868 1_554 S
C925 C185 1.867 . S
C927 C291 1.871 . S
C936 C141 1.865 . S
C938 C314 1.864 . S
C947 C270 1.863 . S
C949 C163 1.870 . S
C958 C357 1.864 . S
C960 C205 1.871 . S
C969 C379 1.865 . S
C971 C227 1.871 . S
C980 C249 1.872 . S
C982 C336 1.865 . S
