# Generated by pormake.
# Topology vme, (6)-cn, num edge types: 1
# Building blocks:
#     Node 0, Type 0, BuildingBlock: IZENUY_clean_sbu_0, # of connection points: 6
#     Node 1, Type 0, BuildingBlock: IZENUY_clean_sbu_0, # of connection points: 6
#     Node 2, Type 0, BuildingBlock: IZENUY_clean_sbu_0, # of connection points: 6
#     Node 3, Type 0, BuildingBlock: IZENUY_clean_sbu_0, # of connection points: 6
#     Edge 4, Type (0, 0), BuildingBlock: EZIPEK_clean_linker_0, # of connection points: 2
#     Edge 5, Type (0, 0), BuildingBlock: EZIPEK_clean_linker_0, # of connection points: 2
#     Edge 6, Type (0, 0), BuildingBlock: EZIPEK_clean_linker_0, # of connection points: 2
#     Edge 7, Type (0, 0), BuildingBlock: EZIPEK_clean_linker_0, # of connection points: 2
#     Edge 8, Type (0, 0), BuildingBlock: EZIPEK_clean_linker_0, # of connection points: 2
#     Edge 9, Type (0, 0), BuildingBlock: EZIPEK_clean_linker_0, # of connection points: 2
#     Edge 10, Type (0, 0), BuildingBlock: EZIPEK_clean_linker_0, # of connection points: 2
#     Edge 11, Type (0, 0), BuildingBlock: EZIPEK_clean_linker_0, # of connection points: 2
#     Edge 12, Type (0, 0), BuildingBlock: EZIPEK_clean_linker_0, # of connection points: 2
#     Edge 13, Type (0, 0), BuildingBlock: EZIPEK_clean_linker_0, # of connection points: 2
#     Edge 14, Type (0, 0), BuildingBlock: EZIPEK_clean_linker_0, # of connection points: 2
#     Edge 15, Type (0, 0), BuildingBlock: EZIPEK_clean_linker_0, # of connection points: 2
# Relax obj value: 0.239
# Max RMSD: 0.244
# Mean RMSD: 0.244
data_MOF--net-vme--node1-IZENUY_clean_sbu_0--edge1-EZIPEK_clean_linker_0
_symmetry_space_group_name_H-M    P1
_symmetry_Int_Tables_number       1
_symmetry_cell_setting            triclinic
loop_
_symmetry_equiv_pos_as_xyz
'x, y, z'
_cell_length_a     18.77279
_cell_length_b     19.025059
_cell_length_c     20.662461
_cell_angle_alpha  89.994861
_cell_angle_beta   116.64727
_cell_angle_gamma 89.868764
loop_
_atom_site_label
_atom_site_type_symbol
_atom_site_fract_x
_atom_site_fract_y
_atom_site_fract_z
_atom_type_partial_charge
Fe0 Fe 0.13238 0.40129 0.32374 0.0
Fe1 Fe 0.28369 0.31516 0.40942 0.0
O2 O 0.22194 0.38741 0.40199 0.0
Fe3 Fe 0.24995 0.44661 0.47419 0.0
O4 O 0.1661 0.42199 0.48696 0.0
O5 O 0.0793 0.44007 0.37424 0.0
O6 O 0.09265 0.3182 0.33228 0.0
C7 C 0.12373 0.26028 0.33068 0.0
C8 C 0.1756 0.53623 0.34955 0.0
O9 O 0.19888 0.25544 0.35106 0.0
C10 C 0.3923 0.43063 0.47542 0.0
O11 O 0.17203 0.36492 0.26267 0.0
O12 O 0.29803 0.34377 0.33329 0.0
O13 O 0.19713 0.5241 0.41645 0.0
O14 O 0.1661 0.4849 0.30883 0.0
C15 C 0.29397 0.31398 0.54451 0.0
O16 O 0.37879 0.36414 0.46816 0.0
O17 O 0.33622 0.47252 0.46427 0.0
C18 C 0.24251 0.3531 0.27073 0.0
O19 O 0.27178 0.28175 0.48569 0.0
O20 O 0.30494 0.38011 0.54543 0.0
C21 C 0.09614 0.43435 0.44134 0.0
Fe22 Fe 0.78905 0.81588 0.136 0.0
Fe23 Fe 0.82428 0.94638 0.07093 0.0
O24 O 0.85125 0.88744 0.14339 0.0
Fe25 Fe 0.94079 0.90069 0.2218 0.0
O26 O 0.98011 0.81739 0.21311 0.0
O27 O 0.87359 0.75541 0.19414 0.0
O28 O 0.80051 0.78195 0.05967 0.0
C29 C 0.77859 0.81391 1.00071 0.0
C30 C 0.83072 0.85267 0.27505 0.0
O31 O 0.76892 0.88029 0.99958 0.0
C32 C 0.8984 0.0359 0.19567 0.0
O33 O 0.69438 0.86599 0.07731 0.0
O34 O 0.73773 0.97378 0.0798 0.0
O35 O 0.9011 0.86449 0.28294 0.0
O36 O 0.775 0.84465 0.21236 0.0
C37 C 0.9782 0.93278 0.10477 0.0
O38 O 0.87739 0.02359 0.12884 0.0
O39 O 0.90729 0.98467 0.23648 0.0
C40 C 0.68139 0.93261 0.06917 0.0
O41 O 0.90847 0.92015 0.05902 0.0
O42 O 0.99429 0.93897 0.17162 0.0
C43 C 0.94873 0.75969 0.21433 0.0
Fe44 Fe 0.8343 0.56969 0.57719 0.0
Fe45 Fe 0.94358 0.62678 0.72509 0.0
O46 O 0.8562 0.63483 0.6437 0.0
Fe47 Fe 0.79194 0.70657 0.62977 0.0
O48 O 0.8034 0.73453 0.55261 0.0
O49 O 0.78372 0.63159 0.49957 0.0
O50 O 0.92169 0.59061 0.56846 0.0
C51 C 0.98953 0.57742 0.61734 0.0
C52 C 0.68789 0.58758 0.5701 0.0
O53 O 1.00135 0.57821 0.68326 0.0
C54 C 0.83255 0.6874 0.77059 0.0
O55 O 0.88569 0.49719 0.64484 0.0
O56 O 0.90406 0.5486 0.745 0.0
O57 O 0.69891 0.65436 0.57467 0.0
O58 O 0.74446 0.54611 0.58168 0.0
C59 C 0.95163 0.76338 0.70277 0.0
O60 O 0.90379 0.67472 0.7816 0.0
O61 O 0.77699 0.68465 0.70754 0.0
C62 C 0.90624 0.49402 0.71287 0.0
O63 O 0.98379 0.70477 0.70712 0.0
O64 O 0.87651 0.76837 0.6826 0.0
C65 C 0.79458 0.6978 0.49939 0.0
Fe66 Fe 0.27824 0.20875 0.91466 0.0
Fe67 Fe 0.24052 0.07175 0.96988 0.0
O68 O 0.21637 0.13587 0.9019 0.0
Fe69 Fe 0.12876 0.12549 0.82031 0.0
O70 O 0.08571 0.20224 0.83625 0.0
O71 O 0.19073 0.26866 0.86466 0.0
O72 O 0.26912 0.2362 0.99294 0.0
C73 C 0.2792 0.19997 0.04665 0.0
C74 C 0.2354 0.18992 0.7729 0.0
O75 O 0.29014 0.1339 0.04685 0.0
C76 C 0.17066 0.99353 0.83613 0.0
O77 O 0.37324 0.15773 0.96792 0.0
O78 O 0.33071 0.04909 0.96571 0.0
O79 O 0.16503 0.17488 0.76247 0.0
O80 O 0.29147 0.18857 0.83569 0.0
C81 C 0.08485 0.07738 0.92947 0.0
O82 O 0.1914 0.99856 0.90399 0.0
O83 O 0.17096 0.0475 0.80209 0.0
C84 C 0.38589 0.09109 0.97491 0.0
O85 O 0.15246 0.09196 0.97804 0.0
O86 O 0.07312 0.07629 0.86355 0.0
C87 C 0.11697 0.2618 0.8498 0.0
C88 C 0.94567 0.15958 0.18905 0.0
C89 C 0.93969 0.10348 0.23113 0.0
C90 C 0.05347 0.15081 0.33903 0.0
C91 C 0.06687 0.20112 0.29522 0.0
N92 N 1.026 0.25363 0.17755 0.0
N93 N 0.95813 0.0731 0.351 0.0
C94 C 1.01213 0.20616 0.22001 0.0
C95 C 0.98509 0.10674 0.30784 0.0
N96 N 0.8855 0.17009 0.12099 0.0
N97 N 0.10607 0.14511 0.41063 0.0
H98 H 0.90199 0.04971 0.32997 0.0
H99 H 0.98507 0.07732 0.4072 0.0
H100 H 0.15535 0.17791 0.43537 0.0
H101 H 0.10451 0.10447 0.44375 0.0
H102 H 0.8829 0.2115 0.08719 0.0
H103 H 0.83249 0.14163 0.10145 0.0
H104 H 0.98989 0.2613 0.12263 0.0
H105 H 0.07875 0.28139 0.19627 0.0
C106 C 0.12729 0.65958 0.35594 0.0
C107 C 0.13425 0.60385 0.31401 0.0
C108 C 1.02027 0.65095 0.20584 0.0
C109 C 1.00556 0.70036 0.24969 0.0
N110 N 0.04434 0.75148 0.36748 0.0
N111 N 0.11682 0.57377 0.19446 0.0
C112 C 0.05982 0.70524 0.32496 0.0
C113 C 0.08916 0.60718 0.23728 0.0
N114 N 0.18725 0.6705 0.42395 0.0
N115 N 0.96836 0.64582 0.13403 0.0
H116 H 0.17309 0.55032 0.21588 0.0
H117 H 0.09019 0.57797 0.13826 0.0
H118 H 0.91879 0.67853 0.10926 0.0
H119 H 0.97081 0.60583 0.10066 0.0
H120 H 0.18913 0.71202 0.45736 0.0
H121 H 0.24071 0.64245 0.44362 0.0
H122 H 0.08013 0.75905 0.42245 0.0
H123 H 0.99027 0.77739 0.34883 0.0
C124 C 0.13676 0.8663 0.82446 0.0
C125 C 0.11761 0.93452 0.79461 0.0
C126 C 0.99367 0.88756 0.6967 0.0
C127 C 1.00642 0.82353 0.73476 0.0
N128 N 0.08418 0.75872 0.84594 0.0
N129 N 1.0139 1.01189 0.70682 0.0
C130 C 0.07652 0.8145 0.80159 0.0
C131 C 0.04285 0.94599 0.73137 0.0
N132 N 0.21275 0.85055 0.87445 0.0
N133 N 0.93539 0.89299 0.62699 0.0
H134 H 0.0415 0.05883 0.72949 0.0
H135 H 0.95586 0.0206 0.66698 0.0
H136 H 0.89661 0.85215 0.5999 0.0
H137 H 0.93065 0.93598 0.59397 0.0
H138 H 0.23112 0.79956 0.89306 0.0
H139 H 0.25928 0.88674 0.89082 0.0
H140 H 0.13071 0.75433 0.8981 0.0
H141 H 0.03989 0.72146 0.83489 0.0
C142 C 0.03737 0.45011 0.81569 0.0
C143 C 0.9587 0.43623 0.75835 0.0
C144 C 0.97729 0.31296 0.7939 0.0
C145 C 0.06116 0.32339 0.83347 0.0
N146 N 0.16744 0.40438 0.89856 0.0
N147 N 0.85462 0.35188 0.69455 0.0
C148 C 0.08997 0.39283 0.84976 0.0
C149 C 0.92923 0.36678 0.74753 0.0
N150 N 0.06315 0.51702 0.83848 0.0
N151 N 0.94206 0.25494 0.80583 0.0
H152 H 0.81474 0.39029 0.66235 0.0
H153 H 0.83452 0.3005 0.68007 0.0
H154 H 0.97244 0.22075 0.84897 0.0
H155 H 0.88052 0.24762 0.78145 0.0
H156 H 0.11324 0.52804 0.88678 0.0
H157 H 1.03458 0.56288 0.81317 0.0
H158 H 0.19736 0.45137 0.90219 0.0
H159 H 0.20167 0.3666 0.93632 0.0
C160 C 0.04716 0.46695 0.59427 0.0
C161 C 0.04113 0.54126 0.59006 0.0
C162 C 0.03661 0.53793 0.47 0.0
C163 C 0.04768 0.46448 0.47491 0.0
N164 N 0.05921 0.35672 0.53947 0.0
N165 N 0.06112 0.64631 0.53748 0.0
C166 C 0.05041 0.42818 0.53634 0.0
C167 C 0.04641 0.57605 0.5322 0.0
N168 N 0.05209 0.43441 0.65478 0.0
N169 N 1.01398 0.57129 0.40545 0.0
H170 H 0.07249 0.67361 0.585 0.0
H171 H 0.07099 0.67425 0.49897 0.0
H172 H 1.00218 0.54425 0.35784 0.0
H173 H 0.99608 0.62375 0.39806 0.0
H174 H 0.04925 0.38038 0.66082 0.0
H175 H 0.06369 0.46335 0.70107 0.0
H176 H 0.0678 0.32593 0.58396 0.0
H177 H 0.05758 0.32795 0.49576 0.0
C178 C 1.02343 0.92856 1.00941 0.0
C179 C 1.02653 0.96368 0.07151 0.0
C180 C 1.0311 0.0762 1.01732 0.0
C181 C 1.03376 0.04216 0.95776 0.0
N182 N 1.00838 0.93789 0.88632 0.0
N183 N 0.06241 0.06862 0.14377 0.0
C184 C 1.02357 0.96844 0.95081 0.0
C185 C 0.03924 0.03686 0.07836 0.0
N186 N 1.02024 0.85681 1.00752 0.0
N187 N 1.01925 0.14691 1.01422 0.0
H188 H 0.07376 0.04051 0.1907 0.0
H189 H 0.08125 0.12073 0.15279 0.0
H190 H 1.00778 0.17504 0.9672 0.0
H191 H 1.0112 0.17474 0.05379 0.0
H192 H 1.02231 0.8263 0.96662 0.0
H193 H 1.02157 0.82758 0.05088 0.0
H194 H 0.99516 0.88496 0.87474 0.0
H195 H 0.99941 0.96812 0.84131 0.0
C196 C 0.33722 0.25006 0.17273 0.0
C197 C 0.27007 0.23789 0.1056 0.0
C198 C 0.19352 0.32591 0.13708 0.0
C199 C 0.25685 0.3298 0.20772 0.0
N200 N 0.3997 0.33118 0.27238 0.0
N201 N 0.13305 0.26445 1.02258 0.0
C202 C 0.33222 0.30171 0.22031 0.0
C203 C 0.19798 0.27641 0.08729 0.0
N204 N 0.40611 0.21326 0.1908 0.0
N205 N 0.133 0.37399 0.11585 0.0
H206 H 0.13284 0.22707 0.98578 0.0
H207 H 0.07723 0.28679 1.0076 0.0
H208 H 0.13465 0.41641 0.14847 0.0
H209 H 0.08732 0.37828 0.06344 0.0
H210 H 0.45419 0.21485 0.24227 0.0
H211 H 0.41288 0.17703 0.1561 0.0
H212 H 0.45704 0.31704 0.28139 0.0
H213 H 0.39713 0.37771 0.29795 0.0
C214 C 0.88028 0.82316 0.4086 0.0
C215 C 0.81677 0.8279 0.33802 0.0
C216 C 0.73671 0.74787 0.37303 0.0
C217 C 0.80383 0.73538 0.44021 0.0
N218 N 0.9412 0.76055 0.5226 0.0
N219 N 0.67386 0.82952 0.27365 0.0
C220 C 0.87599 0.77329 0.45823 0.0
C221 C 0.74152 0.79974 0.32547 0.0
N222 N 0.94067 0.87113 0.43024 0.0
N223 N 0.66798 0.71111 0.35487 0.0
H224 H 0.67621 0.87648 0.24866 0.0
H225 H 0.61659 0.81531 0.26458 0.0
H226 H 0.66144 0.67456 0.38942 0.0
H227 H 0.61989 0.71292 0.30341 0.0
H228 H 0.98609 0.87504 0.48281 0.0
H229 H 0.93906 0.91386 0.39798 0.0
H230 H 0.99721 0.78187 0.53678 0.0
H231 H 0.94107 0.72439 0.56033 0.0
C232 C 0.79901 0.70359 0.93984 0.0
C233 C 0.77335 0.77482 0.93489 0.0
C234 C 0.77654 0.78523 0.81793 0.0
C235 C 0.81422 0.71788 0.82839 0.0
N236 N 0.86496 0.61416 0.90229 0.0
N237 N 0.69596 0.86394 0.85005 0.0
C238 C 0.8267 0.67753 0.89036 0.0
C239 C 0.75027 0.81045 0.86845 0.0
N240 N 0.78737 0.65834 0.98552 0.0
N241 N 0.76859 0.82716 0.76144 0.0
H242 H 0.66626 0.8761 0.88085 0.0
H243 H 0.67086 0.8883 0.79952 0.0
H244 H 0.78341 0.81139 0.72103 0.0
H245 H 0.75292 0.88011 0.75768 0.0
H246 H 0.79903 0.60463 0.98766 0.0
H247 H 0.75437 0.67209 1.0129 0.0
H248 H 0.88464 0.58677 0.95097 0.0
H249 H 0.88218 0.59124 0.86567 0.0
C250 C 0.28763 0.28842 0.72382 0.0
C251 C 0.25242 0.22031 0.71438 0.0
C252 C 0.27282 0.20441 0.60572 0.0
C253 C 0.2975 0.2758 0.61014 0.0
N254 N 0.37041 0.36661 0.69456 0.0
N255 N 0.20725 0.11467 0.64315 0.0
C256 C 0.31689 0.31268 0.67524 0.0
C257 C 0.24359 0.17873 0.65424 0.0
N258 N 0.2903 0.33187 0.77742 0.0
N259 N 0.28673 0.15886 0.56154 0.0
H260 H 0.18871 0.0924 0.67914 0.0
H261 H 0.19016 0.08599 0.59557 0.0
H262 H 0.3206 0.17268 0.53504 0.0
H263 H 0.27589 0.10508 0.55976 0.0
H264 H 0.30497 0.38496 0.78032 0.0
H265 H 0.27103 0.3172 0.81522 0.0
H266 H 0.39254 0.39191 0.74448 0.0
H267 H 0.40262 0.37813 0.66587 0.0
C268 C 0.52353 0.45512 0.47265 0.0
C269 C 0.47454 0.46233 0.50802 0.0
C270 C 0.56519 0.5554 0.58552 0.0
C271 C 0.6073 0.55414 0.54315 0.0
N272 N 0.61564 0.51175 0.4368 0.0
N273 N 0.45033 0.51867 0.60122 0.0
C274 C 0.5831 0.50649 0.48395 0.0
C275 C 0.49598 0.51249 0.56533 0.0
N276 N 0.51527 0.39806 0.42997 0.0
N277 N 0.59343 0.59501 0.64715 0.0
H278 H 0.40651 0.48239 0.59567 0.0
H279 H 0.45447 0.56053 0.63516 0.0
H280 H 0.64124 0.62927 0.66174 0.0
H281 H 0.5725 0.59137 0.68592 0.0
H282 H 0.55438 0.38667 0.40815 0.0
H283 H 0.4754 0.35766 0.42362 0.0
H284 H 0.59509 0.48324 0.38877 0.0
H285 H 0.65711 0.55031 0.44169 0.0
C286 C 0.50796 0.05794 0.95851 0.0
C287 C 0.46701 0.05828 1.00188 0.0
C288 C 0.55144 0.95968 0.07352 0.0
C289 C 0.5994 0.96527 0.03702 0.0
N290 N 0.62228 0.01986 0.94229 0.0
N291 N 0.4614 0.01886 0.11039 0.0
C292 C 0.57729 0.01472 0.97887 0.0
C293 C 0.49245 1.01185 0.06227 0.0
N294 N 0.47844 0.09615 0.89584 0.0
N295 N 0.56 0.90336 0.11722 0.0
H296 H 0.42029 0.05798 0.1054 0.0
H297 H 0.48288 0.99125 0.15908 0.0
H298 H 0.59911 0.86221 0.1233 0.0
H299 H 0.5216 0.89324 0.14007 0.0
H300 H 0.49872 0.09136 0.8567 0.0
H301 H 0.43012 0.1302 0.88078 0.0
H302 H 0.61736 0.06108 0.90737 0.0
H303 H 0.66637 0.9835 0.94831 0.0
loop_
_geom_bond_atom_site_label_1
_geom_bond_atom_site_label_2
_geom_bond_distance
_geom_bond_site_symmetry_2
_ccdc_geom_bond_type
Fe0 O2 1.918 . S
Fe0 O5 1.997 . S
Fe0 O6 2.002 . S
Fe0 O11 1.976 . S
Fe0 O14 1.996 . S
Fe1 O2 1.918 . S
Fe1 O9 1.997 . S
Fe1 O12 1.996 . S
Fe1 O16 1.976 . S
Fe1 O19 2.002 . S
O2 Fe0 1.918 . S
O2 Fe1 1.918 . S
O2 Fe3 1.918 . S
Fe3 O2 1.918 . S
Fe3 O4 2.002 . S
Fe3 O13 1.976 . S
Fe3 O17 1.996 . S
Fe3 O20 1.997 . S
O4 Fe3 2.002 . S
O4 C21 1.295 . S
O5 Fe0 1.997 . S
O5 C21 1.235 . S
O6 Fe0 2.002 . S
O6 C7 1.295 . S
C7 O6 1.295 . S
C7 O9 1.235 . S
C8 O13 1.287 . S
C8 O14 1.255 . S
O9 Fe1 1.997 . S
O9 C7 1.235 . S
C10 O16 1.287 . S
C10 O17 1.255 . S
O11 Fe0 1.976 . S
O11 C18 1.287 . S
O12 Fe1 1.996 . S
O12 C18 1.255 . S
O13 Fe3 1.976 . S
O13 C8 1.287 . S
O14 Fe0 1.996 . S
O14 C8 1.255 . S
C15 O19 1.295 . S
C15 O20 1.235 . S
O16 Fe1 1.976 . S
O16 C10 1.287 . S
O17 Fe3 1.996 . S
O17 C10 1.255 . S
C18 O11 1.287 . S
C18 O12 1.255 . S
O19 Fe1 2.002 . S
O19 C15 1.295 . S
O20 Fe3 1.997 . S
O20 C15 1.235 . S
C21 O4 1.295 . S
C21 O5 1.235 . S
Fe22 O24 1.918 . S
Fe22 O27 1.997 . S
Fe22 O28 2.002 . S
Fe22 O33 1.976 . S
Fe22 O36 1.996 . S
Fe23 O24 1.918 . S
Fe23 O31 1.997 1_554 S
Fe23 O34 1.996 . S
Fe23 O38 1.976 1_565 S
Fe23 O41 2.002 . S
O24 Fe22 1.918 . S
O24 Fe23 1.918 . S
O24 Fe25 1.918 . S
Fe25 O24 1.918 . S
Fe25 O26 2.002 . S
Fe25 O35 1.976 . S
Fe25 O39 1.996 . S
Fe25 O42 1.997 . S
O26 Fe25 2.002 . S
O26 C43 1.295 . S
O27 Fe22 1.997 . S
O27 C43 1.235 . S
O28 Fe22 2.002 . S
O28 C29 1.295 1_554 S
C29 O28 1.295 1_556 S
C29 O31 1.235 . S
C30 O35 1.287 . S
C30 O36 1.255 . S
O31 Fe23 1.997 1_556 S
O31 C29 1.235 . S
C32 O38 1.287 . S
C32 O39 1.255 1_545 S
O33 Fe22 1.976 . S
O33 C40 1.287 . S
O34 Fe23 1.996 . S
O34 C40 1.255 . S
O35 Fe25 1.976 . S
O35 C30 1.287 . S
O36 Fe22 1.996 . S
O36 C30 1.255 . S
C37 O41 1.295 . S
C37 O42 1.235 . S
O38 Fe23 1.976 1_545 S
O38 C32 1.287 . S
O39 Fe25 1.996 . S
O39 C32 1.255 1_565 S
C40 O33 1.287 . S
C40 O34 1.255 . S
O41 Fe23 2.002 . S
O41 C37 1.295 . S
O42 Fe25 1.997 . S
O42 C37 1.235 . S
C43 O26 1.295 . S
C43 O27 1.235 . S
Fe44 O46 1.918 . S
Fe44 O49 1.997 . S
Fe44 O50 2.002 . S
Fe44 O55 1.976 . S
Fe44 O58 1.996 . S
Fe45 O46 1.918 . S
Fe45 O53 1.997 . S
Fe45 O56 1.996 . S
Fe45 O60 1.976 . S
Fe45 O63 2.002 . S
O46 Fe44 1.918 . S
O46 Fe45 1.918 . S
O46 Fe47 1.918 . S
Fe47 O46 1.918 . S
Fe47 O48 2.002 . S
Fe47 O57 1.976 . S
Fe47 O61 1.996 . S
Fe47 O64 1.997 . S
O48 Fe47 2.002 . S
O48 C65 1.295 . S
O49 Fe44 1.997 . S
O49 C65 1.235 . S
O50 Fe44 2.002 . S
O50 C51 1.295 . S
C51 O50 1.295 . S
C51 O53 1.235 . S
C52 O57 1.287 . S
C52 O58 1.255 . S
O53 Fe45 1.997 . S
O53 C51 1.235 . S
C54 O60 1.287 . S
C54 O61 1.255 . S
O55 Fe44 1.976 . S
O55 C62 1.287 . S
O56 Fe45 1.996 . S
O56 C62 1.255 . S
O57 Fe47 1.976 . S
O57 C52 1.287 . S
O58 Fe44 1.996 . S
O58 C52 1.255 . S
C59 O63 1.295 . S
C59 O64 1.235 . S
O60 Fe45 1.976 . S
O60 C54 1.287 . S
O61 Fe47 1.996 . S
O61 C54 1.255 . S
C62 O55 1.287 . S
C62 O56 1.255 . S
O63 Fe45 2.002 . S
O63 C59 1.295 . S
O64 Fe47 1.997 . S
O64 C59 1.235 . S
C65 O48 1.295 . S
C65 O49 1.235 . S
Fe66 O68 1.918 . S
Fe66 O71 1.997 . S
Fe66 O72 2.002 . S
Fe66 O77 1.976 . S
Fe66 O80 1.996 . S
Fe67 O68 1.918 . S
Fe67 O75 1.997 1_556 S
Fe67 O78 1.996 . S
Fe67 O82 1.976 1_545 S
Fe67 O85 2.002 . S
O68 Fe66 1.918 . S
O68 Fe67 1.918 . S
O68 Fe69 1.918 . S
Fe69 O68 1.918 . S
Fe69 O70 2.002 . S
Fe69 O79 1.976 . S
Fe69 O83 1.996 . S
Fe69 O86 1.997 . S
O70 Fe69 2.002 . S
O70 C87 1.295 . S
O71 Fe66 1.997 . S
O71 C87 1.235 . S
O72 Fe66 2.002 . S
O72 C73 1.295 1_556 S
C73 O72 1.295 1_554 S
C73 O75 1.235 . S
C74 O79 1.287 . S
C74 O80 1.255 . S
O75 Fe67 1.997 1_554 S
O75 C73 1.235 . S
C76 O82 1.287 . S
C76 O83 1.255 1_565 S
O77 Fe66 1.976 . S
O77 C84 1.287 . S
O78 Fe67 1.996 . S
O78 C84 1.255 . S
O79 Fe69 1.976 . S
O79 C74 1.287 . S
O80 Fe66 1.996 . S
O80 C74 1.255 . S
C81 O85 1.295 . S
C81 O86 1.235 . S
O82 Fe67 1.976 1_565 S
O82 C76 1.287 . S
O83 Fe69 1.996 . S
O83 C76 1.255 1_545 S
C84 O77 1.287 . S
C84 O78 1.255 . S
O85 Fe67 2.002 . S
O85 C81 1.295 . S
O86 Fe69 1.997 . S
O86 C81 1.235 . S
C87 O70 1.295 . S
C87 O71 1.235 . S
C88 C89 1.363 . S
C88 C94 1.372 1_655 S
C88 N96 1.356 . S
C89 C88 1.363 . S
C89 C95 1.363 . S
C90 C91 1.363 1_655 S
C90 C95 1.379 . S
C90 N97 1.356 1_655 S
C91 C90 1.363 1_455 S
C91 C94 1.363 . S
N92 C94 1.365 . S
N92 H104 0.984 . S
N92 H105 0.985 . S
N93 C95 1.356 . S
N93 H98 0.984 . S
N93 H99 0.985 . S
C94 C88 1.372 1_455 S
C94 C91 1.363 . S
C94 N92 1.365 . S
C95 C89 1.363 . S
C95 C90 1.379 . S
C95 N93 1.356 . S
N96 C88 1.356 . S
N96 H102 0.984 . S
N96 H103 0.984 . S
N97 C90 1.356 1_455 S
N97 H100 0.984 . S
N97 H101 0.985 . S
H98 N93 0.984 . S
H99 N93 0.985 . S
H100 N97 0.984 . S
H101 N97 0.985 . S
H102 N96 0.984 . S
H103 N96 0.984 . S
H104 N92 0.984 . S
H105 N92 0.985 . S
C106 C107 1.363 . S
C106 C112 1.379 1_455 S
C106 N114 1.356 . S
C107 C106 1.363 . S
C107 C113 1.363 . S
C108 C109 1.363 1_455 S
C108 C113 1.379 . S
C108 N115 1.356 1_455 S
C109 C108 1.363 1_655 S
C109 C112 1.363 . S
N110 C112 1.356 . S
N110 H122 0.984 . S
N110 H123 0.985 . S
N111 C113 1.356 . S
N111 H116 0.984 . S
N111 H117 0.985 . S
C112 C106 1.379 1_655 S
C112 C109 1.363 . S
C112 N110 1.356 . S
C113 C107 1.363 . S
C113 C108 1.379 . S
C113 N111 1.356 . S
N114 C106 1.356 . S
N114 H120 0.984 . S
N114 H121 0.984 . S
N115 C108 1.356 1_655 S
N115 H118 0.984 . S
N115 H119 0.985 . S
H116 N111 0.984 . S
H117 N111 0.985 . S
H118 N115 0.984 . S
H119 N115 0.985 . S
H120 N114 0.984 . S
H121 N114 0.984 . S
H122 N110 0.984 . S
H123 N110 0.985 . S
C124 C125 1.363 . S
C124 C130 1.379 . S
C124 N132 1.356 . S
C125 C124 1.363 . S
C125 C131 1.363 . S
C126 C127 1.363 . S
C126 C131 1.379 1_655 S
C126 N133 1.356 . S
C127 C126 1.363 . S
C127 C130 1.363 1_655 S
N128 C130 1.356 . S
N128 H140 0.984 . S
N128 H141 0.985 1_455 S
N129 C131 1.356 . S
N129 H134 0.984 1_565 S
N129 H135 0.985 1_565 S
C130 C124 1.379 . S
C130 C127 1.363 1_455 S
C130 N128 1.356 . S
C131 C125 1.363 . S
C131 C126 1.379 1_455 S
C131 N129 1.356 . S
N132 C124 1.356 . S
N132 H138 0.984 . S
N132 H139 0.984 . S
N133 C126 1.356 . S
N133 H136 0.984 . S
N133 H137 0.985 . S
H134 N129 0.984 1_545 S
H135 N129 0.985 1_545 S
H136 N133 0.984 . S
H137 N133 0.985 . S
H138 N132 0.984 . S
H139 N132 0.984 . S
H140 N128 0.984 . S
H141 N128 0.985 1_655 S
C142 C143 1.363 . S
C142 C148 1.379 1_655 S
C142 N150 1.356 . S
C143 C142 1.363 . S
C143 C149 1.363 . S
C144 C145 1.363 1_655 S
C144 C149 1.379 . S
C144 N151 1.356 . S
C145 C144 1.363 1_455 S
C145 C148 1.363 . S
N146 C148 1.356 . S
N146 H158 0.984 . S
N146 H159 0.985 . S
N147 C149 1.356 . S
N147 H152 0.984 . S
N147 H153 0.985 . S
C148 C142 1.379 1_455 S
C148 C145 1.363 . S
C148 N146 1.356 . S
C149 C143 1.363 . S
C149 C144 1.379 . S
C149 N147 1.356 . S
N150 C142 1.356 . S
N150 H156 0.984 . S
N150 H157 0.984 . S
N151 C144 1.356 . S
N151 H154 0.984 1_655 S
N151 H155 0.985 . S
H152 N147 0.984 . S
H153 N147 0.985 . S
H154 N151 0.984 1_455 S
H155 N151 0.985 . S
H156 N150 0.984 . S
H157 N150 0.984 . S
H158 N146 0.984 . S
H159 N146 0.985 . S
C160 C161 1.363 1_455 S
C160 C166 1.379 . S
C160 N168 1.356 . S
C161 C160 1.363 1_655 S
C161 C167 1.363 . S
C162 C163 1.363 1_655 S
C162 C167 1.379 . S
C162 N169 1.356 . S
C163 C162 1.363 1_455 S
C163 C166 1.363 . S
N164 C166 1.356 . S
N164 H176 0.984 . S
N164 H177 0.985 . S
N165 C167 1.356 . S
N165 H170 0.984 . S
N165 H171 0.985 . S
C166 C160 1.379 . S
C166 C163 1.363 . S
C166 N164 1.356 . S
C167 C161 1.363 . S
C167 C162 1.379 . S
C167 N165 1.356 . S
N168 C160 1.356 . S
N168 H174 0.984 . S
N168 H175 0.984 . S
N169 C162 1.356 . S
N169 H172 0.984 . S
N169 H173 0.985 . S
H170 N165 0.984 . S
H171 N165 0.985 . S
H172 N169 0.984 . S
H173 N169 0.985 . S
H174 N168 0.984 . S
H175 N168 0.984 . S
H176 N164 0.984 . S
H177 N164 0.985 . S
C178 C179 1.363 1_455 S
C178 C184 1.379 1_554 S
C178 N186 1.356 . S
C179 C178 1.363 1_655 S
C179 C185 1.363 1_565 S
C180 C181 1.363 1_655 S
C180 C185 1.379 1_556 S
C180 N187 1.356 . S
C181 C180 1.363 1_455 S
C181 C184 1.363 1_545 S
N182 C184 1.356 . S
N182 H194 0.984 . S
N182 H195 0.985 . S
N183 C185 1.356 . S
N183 H188 0.984 . S
N183 H189 0.985 . S
C184 C178 1.379 1_556 S
C184 C181 1.363 1_565 S
C184 N182 1.356 . S
C185 C179 1.363 1_545 S
C185 C180 1.379 1_554 S
C185 N183 1.356 . S
N186 C178 1.356 . S
N186 H192 0.984 1_554 S
N186 H193 0.984 . S
N187 C180 1.356 . S
N187 H190 0.984 . S
N187 H191 0.985 1_556 S
H188 N183 0.984 . S
H189 N183 0.985 . S
H190 N187 0.984 . S
H191 N187 0.985 1_554 S
H192 N186 0.984 1_556 S
H193 N186 0.984 . S
H194 N182 0.984 . S
H195 N182 0.985 . S
C196 C197 1.363 . S
C196 C202 1.379 . S
C196 N204 1.356 . S
C197 C196 1.363 . S
C197 C203 1.363 . S
C198 C199 1.363 . S
C198 C203 1.379 . S
C198 N205 1.356 . S
C199 C198 1.363 . S
C199 C202 1.363 . S
N200 C202 1.356 . S
N200 H212 0.984 . S
N200 H213 0.985 . S
N201 C203 1.356 . S
N201 H206 0.984 . S
N201 H207 0.985 . S
C202 C196 1.379 . S
C202 C199 1.363 . S
C202 N200 1.356 . S
C203 C197 1.363 . S
C203 C198 1.379 . S
C203 N201 1.356 . S
N204 C196 1.356 . S
N204 H210 0.984 . S
N204 H211 0.984 . S
N205 C198 1.356 . S
N205 H208 0.984 . S
N205 H209 0.985 . S
H206 N201 0.984 . S
H207 N201 0.985 . S
H208 N205 0.984 . S
H209 N205 0.985 . S
H210 N204 0.984 . S
H211 N204 0.984 . S
H212 N200 0.984 . S
H213 N200 0.985 . S
C214 C215 1.363 . S
C214 C220 1.379 . S
C214 N222 1.356 . S
C215 C214 1.363 . S
C215 C221 1.363 . S
C216 C217 1.363 . S
C216 C221 1.379 . S
C216 N223 1.356 . S
C217 C216 1.363 . S
C217 C220 1.363 . S
N218 C220 1.356 . S
N218 H230 0.984 . S
N218 H231 0.985 . S
N219 C221 1.356 . S
N219 H224 0.984 . S
N219 H225 0.985 . S
C220 C214 1.379 . S
C220 C217 1.363 . S
C220 N218 1.356 . S
C221 C215 1.363 . S
C221 C216 1.379 . S
C221 N219 1.356 . S
N222 C214 1.356 . S
N222 H228 0.984 . S
N222 H229 0.984 . S
N223 C216 1.356 . S
N223 H226 0.984 . S
N223 H227 0.985 . S
H224 N219 0.984 . S
H225 N219 0.985 . S
H226 N223 0.984 . S
H227 N223 0.985 . S
H228 N222 0.984 . S
H229 N222 0.984 . S
H230 N218 0.984 . S
H231 N218 0.985 . S
C232 C233 1.363 . S
C232 C238 1.379 . S
C232 N240 1.356 . S
C233 C232 1.363 . S
C233 C239 1.363 . S
C234 C235 1.363 . S
C234 C239 1.379 . S
C234 N241 1.356 . S
C235 C234 1.363 . S
C235 C238 1.363 . S
N236 C238 1.356 . S
N236 H248 0.984 . S
N236 H249 0.985 . S
N237 C239 1.356 . S
N237 H242 0.984 . S
N237 H243 0.985 . S
C238 C232 1.379 . S
C238 C235 1.363 . S
C238 N236 1.356 . S
C239 C233 1.363 . S
C239 C234 1.379 . S
C239 N237 1.356 . S
N240 C232 1.356 . S
N240 H246 0.984 1_556 S
N240 H247 0.984 1_556 S
N241 C234 1.356 . S
N241 H244 0.984 . S
N241 H245 0.985 . S
H242 N237 0.984 . S
H243 N237 0.985 . S
H244 N241 0.984 . S
H245 N241 0.985 . S
H246 N240 0.984 1_554 S
H247 N240 0.984 1_554 S
H248 N236 0.984 . S
H249 N236 0.985 . S
C250 C251 1.363 . S
C250 C256 1.379 . S
C250 N258 1.356 . S
C251 C250 1.363 . S
C251 C257 1.363 . S
C252 C253 1.363 . S
C252 C257 1.379 . S
C252 N259 1.356 . S
C253 C252 1.363 . S
C253 C256 1.363 . S
N254 C256 1.356 . S
N254 H266 0.984 . S
N254 H267 0.985 . S
N255 C257 1.356 . S
N255 H260 0.984 . S
N255 H261 0.985 . S
C256 C250 1.379 . S
C256 C253 1.363 . S
C256 N254 1.356 . S
C257 C251 1.363 . S
C257 C252 1.379 . S
C257 N255 1.356 . S
N258 C250 1.356 . S
N258 H264 0.984 . S
N258 H265 0.984 . S
N259 C252 1.356 . S
N259 H262 0.984 . S
N259 H263 0.985 . S
H260 N255 0.984 . S
H261 N255 0.985 . S
H262 N259 0.984 . S
H263 N259 0.985 . S
H264 N258 0.984 . S
H265 N258 0.984 . S
H266 N254 0.984 . S
H267 N254 0.985 . S
C268 C269 1.363 . S
C268 C274 1.379 . S
C268 N276 1.356 . S
C269 C268 1.363 . S
C269 C275 1.363 . S
C270 C271 1.363 . S
C270 C275 1.379 . S
C270 N277 1.356 . S
C271 C270 1.363 . S
C271 C274 1.363 . S
N272 C274 1.356 . S
N272 H284 0.984 . S
N272 H285 0.985 . S
N273 C275 1.356 . S
N273 H278 0.984 . S
N273 H279 0.985 . S
C274 C268 1.379 . S
C274 C271 1.363 . S
C274 N272 1.356 . S
C275 C269 1.363 . S
C275 C270 1.379 . S
C275 N273 1.356 . S
N276 C268 1.356 . S
N276 H282 0.984 . S
N276 H283 0.984 . S
N277 C270 1.356 . S
N277 H280 0.984 . S
N277 H281 0.985 . S
H278 N273 0.984 . S
H279 N273 0.985 . S
H280 N277 0.984 . S
H281 N277 0.985 . S
H282 N276 0.984 . S
H283 N276 0.984 . S
H284 N272 0.984 . S
H285 N272 0.985 . S
C286 C287 1.363 . S
C286 C292 1.379 . S
C286 N294 1.356 . S
C287 C286 1.363 . S
C287 C293 1.363 1_546 S
C288 C289 1.363 . S
C288 C293 1.379 . S
C288 N295 1.356 . S
C289 C288 1.363 . S
C289 C292 1.363 1_564 S
N290 C292 1.356 . S
N290 H302 0.984 . S
N290 H303 0.985 1_545 S
N291 C293 1.356 . S
N291 H296 0.984 1_565 S
N291 H297 0.985 . S
C292 C286 1.379 . S
C292 C289 1.363 1_546 S
C292 N290 1.356 . S
C293 C287 1.363 1_564 S
C293 C288 1.379 . S
C293 N291 1.356 . S
N294 C286 1.356 . S
N294 H300 0.984 . S
N294 H301 0.984 . S
N295 C288 1.356 . S
N295 H298 0.984 . S
N295 H299 0.985 . S
H296 N291 0.984 1_545 S
H297 N291 0.985 . S
H298 N295 0.984 . S
H299 N295 0.985 . S
H300 N294 0.984 . S
H301 N294 0.984 . S
H302 N290 0.984 . S
H303 N290 0.985 1_565 S
C89 C32 1.539 . S
C91 C7 1.583 . S
C107 C8 1.539 . S
C109 C43 1.583 . S
C125 C76 1.539 . S
C127 C59 1.583 . S
C143 C62 1.539 . S
C145 C87 1.583 . S
C161 C51 1.228 . S
C163 C21 1.228 . S
C179 C37 1.228 . S
C181 C81 1.228 . S
C197 C73 1.636 . S
C199 C18 1.625 . S
C215 C30 1.625 . S
C217 C65 1.636 . S
C233 C29 1.636 . S
C235 C54 1.625 . S
C251 C74 1.625 . S
C253 C15 1.636 . S
C269 C10 1.567 . S
C271 C52 1.567 . S
C287 C84 1.567 . S
C289 C40 1.567 . S
