# Generated by pormake.
# Topology unv, (4)-cn, num edge types: 1
# Building blocks:
#     Node 0, Type 0, BuildingBlock: QUQFOY_clean_sbu_1, # of connection points: 4
#     Node 1, Type 0, BuildingBlock: QUQFOY_clean_sbu_1, # of connection points: 4
#     Node 2, Type 0, BuildingBlock: QUQFOY_clean_sbu_1, # of connection points: 4
#     Node 3, Type 0, BuildingBlock: QUQFOY_clean_sbu_1, # of connection points: 4
#     Node 4, Type 0, BuildingBlock: QUQFOY_clean_sbu_1, # of connection points: 4
#     Node 5, Type 0, BuildingBlock: QUQFOY_clean_sbu_1, # of connection points: 4
#     Node 6, Type 0, BuildingBlock: QUQFOY_clean_sbu_1, # of connection points: 4
#     Node 7, Type 0, BuildingBlock: QUQFOY_clean_sbu_1, # of connection points: 4
#     Node 8, Type 0, BuildingBlock: QUQFOY_clean_sbu_1, # of connection points: 4
#     Node 9, Type 0, BuildingBlock: QUQFOY_clean_sbu_1, # of connection points: 4
#     Node 10, Type 0, BuildingBlock: QUQFOY_clean_sbu_1, # of connection points: 4
#     Node 11, Type 0, BuildingBlock: QUQFOY_clean_sbu_1, # of connection points: 4
#     Node 12, Type 0, BuildingBlock: QUQFOY_clean_sbu_1, # of connection points: 4
#     Node 13, Type 0, BuildingBlock: QUQFOY_clean_sbu_1, # of connection points: 4
#     Node 14, Type 0, BuildingBlock: QUQFOY_clean_sbu_1, # of connection points: 4
#     Node 15, Type 0, BuildingBlock: QUQFOY_clean_sbu_1, # of connection points: 4
#     Node 16, Type 0, BuildingBlock: QUQFOY_clean_sbu_1, # of connection points: 4
#     Node 17, Type 0, BuildingBlock: QUQFOY_clean_sbu_1, # of connection points: 4
#     Node 18, Type 0, BuildingBlock: QUQFOY_clean_sbu_1, # of connection points: 4
#     Node 19, Type 0, BuildingBlock: QUQFOY_clean_sbu_1, # of connection points: 4
#     Node 20, Type 0, BuildingBlock: QUQFOY_clean_sbu_1, # of connection points: 4
#     Node 21, Type 0, BuildingBlock: QUQFOY_clean_sbu_1, # of connection points: 4
#     Node 22, Type 0, BuildingBlock: QUQFOY_clean_sbu_1, # of connection points: 4
#     Node 23, Type 0, BuildingBlock: QUQFOY_clean_sbu_1, # of connection points: 4
#     Edge 24, Type (0, 0), BuildingBlock: XIVTED_clean_linker_0, # of connection points: 2
#     Edge 25, Type (0, 0), BuildingBlock: XIVTED_clean_linker_0, # of connection points: 2
#     Edge 26, Type (0, 0), BuildingBlock: XIVTED_clean_linker_0, # of connection points: 2
#     Edge 27, Type (0, 0), BuildingBlock: XIVTED_clean_linker_0, # of connection points: 2
#     Edge 28, Type (0, 0), BuildingBlock: XIVTED_clean_linker_0, # of connection points: 2
#     Edge 29, Type (0, 0), BuildingBlock: XIVTED_clean_linker_0, # of connection points: 2
#     Edge 30, Type (0, 0), BuildingBlock: XIVTED_clean_linker_0, # of connection points: 2
#     Edge 31, Type (0, 0), BuildingBlock: XIVTED_clean_linker_0, # of connection points: 2
#     Edge 32, Type (0, 0), BuildingBlock: XIVTED_clean_linker_0, # of connection points: 2
#     Edge 33, Type (0, 0), BuildingBlock: XIVTED_clean_linker_0, # of connection points: 2
#     Edge 34, Type (0, 0), BuildingBlock: XIVTED_clean_linker_0, # of connection points: 2
#     Edge 35, Type (0, 0), BuildingBlock: XIVTED_clean_linker_0, # of connection points: 2
#     Edge 36, Type (0, 0), BuildingBlock: XIVTED_clean_linker_0, # of connection points: 2
#     Edge 37, Type (0, 0), BuildingBlock: XIVTED_clean_linker_0, # of connection points: 2
#     Edge 38, Type (0, 0), BuildingBlock: XIVTED_clean_linker_0, # of connection points: 2
#     Edge 39, Type (0, 0), BuildingBlock: XIVTED_clean_linker_0, # of connection points: 2
#     Edge 40, Type (0, 0), BuildingBlock: XIVTED_clean_linker_0, # of connection points: 2
#     Edge 41, Type (0, 0), BuildingBlock: XIVTED_clean_linker_0, # of connection points: 2
#     Edge 42, Type (0, 0), BuildingBlock: XIVTED_clean_linker_0, # of connection points: 2
#     Edge 43, Type (0, 0), BuildingBlock: XIVTED_clean_linker_0, # of connection points: 2
#     Edge 44, Type (0, 0), BuildingBlock: XIVTED_clean_linker_0, # of connection points: 2
#     Edge 45, Type (0, 0), BuildingBlock: XIVTED_clean_linker_0, # of connection points: 2
#     Edge 46, Type (0, 0), BuildingBlock: XIVTED_clean_linker_0, # of connection points: 2
#     Edge 47, Type (0, 0), BuildingBlock: XIVTED_clean_linker_0, # of connection points: 2
#     Edge 48, Type (0, 0), BuildingBlock: XIVTED_clean_linker_0, # of connection points: 2
#     Edge 49, Type (0, 0), BuildingBlock: XIVTED_clean_linker_0, # of connection points: 2
#     Edge 50, Type (0, 0), BuildingBlock: XIVTED_clean_linker_0, # of connection points: 2
#     Edge 51, Type (0, 0), BuildingBlock: XIVTED_clean_linker_0, # of connection points: 2
#     Edge 52, Type (0, 0), BuildingBlock: XIVTED_clean_linker_0, # of connection points: 2
#     Edge 53, Type (0, 0), BuildingBlock: XIVTED_clean_linker_0, # of connection points: 2
#     Edge 54, Type (0, 0), BuildingBlock: XIVTED_clean_linker_0, # of connection points: 2
#     Edge 55, Type (0, 0), BuildingBlock: XIVTED_clean_linker_0, # of connection points: 2
#     Edge 56, Type (0, 0), BuildingBlock: XIVTED_clean_linker_0, # of connection points: 2
#     Edge 57, Type (0, 0), BuildingBlock: XIVTED_clean_linker_0, # of connection points: 2
#     Edge 58, Type (0, 0), BuildingBlock: XIVTED_clean_linker_0, # of connection points: 2
#     Edge 59, Type (0, 0), BuildingBlock: XIVTED_clean_linker_0, # of connection points: 2
#     Edge 60, Type (0, 0), BuildingBlock: XIVTED_clean_linker_0, # of connection points: 2
#     Edge 61, Type (0, 0), BuildingBlock: XIVTED_clean_linker_0, # of connection points: 2
#     Edge 62, Type (0, 0), BuildingBlock: XIVTED_clean_linker_0, # of connection points: 2
#     Edge 63, Type (0, 0), BuildingBlock: XIVTED_clean_linker_0, # of connection points: 2
#     Edge 64, Type (0, 0), BuildingBlock: XIVTED_clean_linker_0, # of connection points: 2
#     Edge 65, Type (0, 0), BuildingBlock: XIVTED_clean_linker_0, # of connection points: 2
#     Edge 66, Type (0, 0), BuildingBlock: XIVTED_clean_linker_0, # of connection points: 2
#     Edge 67, Type (0, 0), BuildingBlock: XIVTED_clean_linker_0, # of connection points: 2
#     Edge 68, Type (0, 0), BuildingBlock: XIVTED_clean_linker_0, # of connection points: 2
#     Edge 69, Type (0, 0), BuildingBlock: XIVTED_clean_linker_0, # of connection points: 2
#     Edge 70, Type (0, 0), BuildingBlock: XIVTED_clean_linker_0, # of connection points: 2
#     Edge 71, Type (0, 0), BuildingBlock: XIVTED_clean_linker_0, # of connection points: 2
# Relax obj value: 0.133
# Max RMSD: 0.148
# Mean RMSD: 0.122
data_MOF--net-unv--node1-QUQFOY_clean_sbu_1--edge1-XIVTED_clean_linker_0
_symmetry_space_group_name_H-M    P1
_symmetry_Int_Tables_number       1
_symmetry_cell_setting            triclinic
loop_
_symmetry_equiv_pos_as_xyz
'x, y, z'
_cell_length_a     52.006781
_cell_length_b     52.041869
_cell_length_c     52.038853
_cell_angle_alpha  89.991554
_cell_angle_beta   89.952697
_cell_angle_gamma 89.99345
loop_
_atom_site_label
_atom_site_type_symbol
_atom_site_fract_x
_atom_site_fract_y
_atom_site_fract_z
_atom_type_partial_charge
O0 O 0.01393 0.10421 0.42957 0.0
Cd1 Cd 0.98648 0.10721 0.40119 0.0
Cd2 Cd 0.01708 0.07071 0.37654 0.0
O3 O 0.04101 0.0809 0.40661 0.0
O4 O 0.96953 0.14132 0.40372 0.0
O5 O 0.9945 0.12987 0.37103 0.0
C6 C 0.98045 0.14709 0.38219 0.0
C7 C 0.03581 0.05424 0.33896 0.0
C8 C 0.03561 0.09322 0.42704 0.0
C9 C 0.9623 0.05669 0.39372 0.0
O10 O 0.98406 0.05036 0.38464 0.0
O11 O 0.95814 0.07958 0.40102 0.0
O12 O 0.03701 0.0422 0.36048 0.0
O13 O 0.02531 0.07672 0.33895 0.0
O14 O 0.94429 0.38237 0.41276 0.0
Cd15 Cd 0.96769 0.3769 0.38126 0.0
Cd16 Cd 0.93502 0.4172 0.36118 0.0
O17 O 0.91483 0.40635 0.39371 0.0
O18 O 0.98533 0.34342 0.38656 0.0
O19 O 0.95717 0.35018 0.35535 0.0
C20 C 0.97247 0.33468 0.3673 0.0
C21 C 0.91244 0.4393 0.32888 0.0
C22 C 0.92275 0.39391 0.41321 0.0
C23 C 0.99285 0.42661 0.37072 0.0
O24 O 0.97035 0.43456 0.36563 0.0
O25 O 0.9968 0.40318 0.37622 0.0
O26 O 0.91547 0.44872 0.35147 0.0
O27 O 0.92077 0.41628 0.32487 0.0
O28 O 0.01243 0.89101 0.09524 0.0
Cd29 Cd 0.98468 0.88899 0.12343 0.0
Cd30 Cd 0.01469 0.92847 0.146 0.0
O31 O 0.03878 0.91644 0.11672 0.0
O32 O 0.96781 0.85485 0.12075 0.0
O33 O 0.99203 0.86639 0.15387 0.0
C34 C 0.97835 0.84909 0.14243 0.0
C35 C 0.03369 0.94882 0.18152 0.0
C36 C 0.03385 0.9026 0.09717 0.0
C37 C 0.95951 0.93962 0.12776 0.0
O38 O 0.98103 0.9471 0.13651 0.0
O39 O 0.95596 0.91621 0.12195 0.0
O40 O 0.03412 0.95885 0.15898 0.0
O41 O 0.02364 0.92626 0.18386 0.0
O42 O 0.95044 0.61748 0.10224 0.0
Cd43 Cd 0.97378 0.62033 0.1341 0.0
Cd44 Cd 0.93991 0.58031 0.15222 0.0
O45 O 0.92068 0.59264 0.11967 0.0
O46 O 0.99181 0.65391 0.13146 0.0
O47 O 0.96295 0.64524 0.16161 0.0
C48 C 0.9785 0.66144 0.15097 0.0
C49 C 0.91609 0.55863 0.18389 0.0
C50 C 0.92879 0.60621 0.101 0.0
C51 C 0.99758 0.56957 0.14327 0.0
O52 O 0.97485 0.56212 0.14813 0.0
O53 O 0.00215 0.59297 0.1381 0.0
O54 O 0.91921 0.54933 0.16125 0.0
O55 O 0.92508 0.58132 0.18829 0.0
O56 O 0.43319 0.04767 0.10467 0.0
Cd57 Cd 0.4063 0.0185 0.10381 0.0
Cd58 Cd 0.38339 0.0523 0.07357 0.0
O59 O 0.40854 0.07844 0.0894 0.0
O60 O 0.41656 0.99608 0.13284 0.0
O61 O 0.37952 0.01693 0.13185 0.0
C62 C 0.39536 0.00225 0.1441 0.0
C63 C 0.34031 0.05987 0.0652 0.0
C64 C 0.42969 0.07123 0.09927 0.0
C65 C 0.40468 0.0048 0.04911 0.0
O66 O 0.39824 0.02814 0.04615 0.0
O67 O 0.40658 0.99537 0.07155 0.0
O68 O 0.35803 0.07274 0.05364 0.0
O69 O 0.34698 0.0444 0.08345 0.0
O70 O 0.57052 0.47453 0.10067 0.0
Cd71 Cd 0.59962 0.50085 0.10536 0.0
Cd72 Cd 0.62304 0.47323 0.06545 0.0
O73 O 0.59218 0.44965 0.07395 0.0
O74 O 0.59752 0.51516 0.14052 0.0
O75 O 0.62978 0.49062 0.12696 0.0
C76 C 0.61895 0.50359 0.14521 0.0
C77 C 0.65865 0.45421 0.04534 0.0
C78 C 0.57224 0.45411 0.0874 0.0
C79 C 0.60758 0.52975 0.05759 0.0
O80 O 0.61627 0.50863 0.049 0.0
O81 O 0.60008 0.53156 0.0807 0.0
O82 O 0.63666 0.45572 0.03425 0.0
O83 O 0.66026 0.46219 0.06877 0.0
O84 O 0.41841 0.94277 0.3863 0.0
Cd85 Cd 0.39485 0.97355 0.3783 0.0
Cd86 Cd 0.36923 0.95181 0.42418 0.0
O87 O 0.39759 0.92462 0.41855 0.0
O88 O 0.41033 0.98521 0.34544 0.0
O89 O 0.37009 0.97201 0.34822 0.0
C90 C 0.38893 0.98007 0.3342 0.0
C91 C 0.33157 0.93816 0.44499 0.0
C92 C 0.41628 0.92491 0.40279 0.0
C93 C 0.39098 0.00683 0.42511 0.0
O94 O 0.38006 0.98797 0.43611 0.0
O95 O 0.39801 0.00537 0.40177 0.0
O96 O 0.35329 0.93919 0.45669 0.0
O97 O 0.33122 0.94398 0.42088 0.0
O98 O 0.60217 0.5242 0.39105 0.0
Cd99 Cd 0.62824 0.49694 0.37621 0.0
Cd100 Cd 0.65322 0.53223 0.43277 0.0
O101 O 0.61801 0.54805 0.42356 0.0
O102 O 0.61757 0.4833 0.34236 0.0
O103 O 0.65128 0.50904 0.34806 0.0
C104 C 0.63677 0.49584 0.33278 0.0
C105 C 0.67911 0.54634 0.46615 0.0
C106 C 0.60012 0.54232 0.40766 0.0
C107 C 0.65256 0.47789 0.41753 0.0
O108 O 0.66103 0.50018 0.41246 0.0
O109 O 0.6401 0.46719 0.39975 0.0
O110 O 0.6607 0.53017 0.47018 0.0
O111 O 0.68248 0.55489 0.44301 0.0
O112 O 0.09312 0.4275 0.04529 0.0
Cd113 Cd 0.09891 0.4029 0.01485 0.0
Cd114 Cd 0.0586 0.37634 0.04055 0.0
O115 O 0.06703 0.40333 0.06837 0.0
O116 O 0.13147 0.416 7e-05 0.0
O117 O 0.12765 0.37677 0.01593 0.0
C118 C 0.14195 0.3943 0.00567 0.0
C119 C 0.04171 0.33673 0.05329 0.0
C120 C 0.08026 0.42369 0.06569 0.0
C121 C 0.04954 0.39864 0.98685 0.0
O122 O 0.0409 0.38849 0.00731 0.0
O123 O 0.07302 0.40504 0.98505 0.0
O124 O 0.02957 0.35784 0.05739 0.0
O125 O 0.06435 0.33805 0.04319 0.0
O126 O 0.09876 0.56623 0.4659 0.0
Cd127 Cd 0.10878 0.59105 0.49495 0.0
Cd128 Cd 0.06524 0.62009 0.47199 0.0
O129 O 0.06955 0.59007 0.44639 0.0
O130 O 0.14273 0.57753 0.50589 0.0
O131 O 0.1377 0.61644 0.48955 0.0
C132 C 0.15286 0.59878 0.49821 0.0
C133 C 0.04217 0.65538 0.45561 0.0
C134 C 0.08299 0.5697 0.44763 0.0
C135 C 0.06364 0.60093 0.52853 0.0
O136 O 0.054 0.61244 0.50928 0.0
O137 O 0.08584 0.59084 0.52727 0.0
O138 O 0.03155 0.63347 0.45952 0.0
O139 O 0.06646 0.65733 0.46025 0.0
O140 O 0.88509 0.89794 0.48522 0.0
Cd141 Cd 0.88393 0.86614 0.50878 0.0
Cd142 Cd 0.91823 0.84695 0.47436 0.0
O143 O 0.90566 0.87843 0.45367 0.0
O144 O 0.84965 0.86399 0.52549 0.0
O145 O 0.86331 0.83626 0.49604 0.0
C146 C 0.84518 0.84428 0.51108 0.0
C147 C 0.93359 0.81053 0.45294 0.0
C148 C 0.894 0.89805 0.46246 0.0
C149 C 0.93572 0.85877 0.52924 0.0
O150 O 0.94099 0.85341 0.50604 0.0
O151 O 0.91269 0.86335 0.53591 0.0
O152 O 0.9451 0.83233 0.45136 0.0
O153 O 0.91194 0.80976 0.46509 0.0
O154 O 0.39443 0.56594 0.5298 0.0
Cd155 Cd 0.38828 0.59335 0.50204 0.0
Cd156 Cd 0.42635 0.62037 0.53474 0.0
O157 O 0.41672 0.5892 0.55745 0.0
O158 O 0.35657 0.58111 0.48477 0.0
O159 O 0.3584 0.6178 0.50611 0.0
C160 C 0.34497 0.6012 0.49344 0.0
C161 C 0.44772 0.65424 0.55583 0.0
C162 C 0.40532 0.56842 0.55148 0.0
C163 C 0.43832 0.6051 0.47804 0.0
O164 O 0.44428 0.61412 0.49992 0.0
O165 O 0.41598 0.59621 0.47386 0.0
O166 O 0.45769 0.6318 0.55364 0.0
O167 O 0.42468 0.65739 0.54722 0.0
O168 O 0.51209 0.61566 0.90835 0.0
Cd169 Cd 0.48865 0.62073 0.87701 0.0
Cd170 Cd 0.52404 0.58736 0.85421 0.0
O171 O 0.54406 0.59832 0.88662 0.0
O172 O 0.47115 0.65383 0.88332 0.0
O173 O 0.49897 0.64774 0.85156 0.0
C174 C 0.48442 0.66318 0.86454 0.0
C175 C 0.54911 0.57149 0.82032 0.0
C176 C 0.53514 0.60774 0.90731 0.0
C177 C 0.4678 0.57056 0.86326 0.0
O178 O 0.49105 0.56547 0.85772 0.0
O179 O 0.46141 0.59302 0.87027 0.0
O180 O 0.54729 0.55965 0.84189 0.0
O181 O 0.53755 0.59333 0.81817 0.0
O182 O 0.50072 0.91218 0.89615 0.0
Cd183 Cd 0.5307 0.89258 0.87767 0.0
Cd184 Cd 0.50924 0.94926 0.84298 0.0
O185 O 0.48521 0.94598 0.87427 0.0
O186 O 0.53311 0.85747 0.89182 0.0
O187 O 0.52117 0.86609 0.85166 0.0
C188 C 0.52496 0.84945 0.86976 0.0
C189 C 0.50061 0.97771 0.81009 0.0
C190 C 0.48498 0.93093 0.89368 0.0
C191 C 0.56031 0.93047 0.86059 0.0
O192 O 0.5412 0.92723 0.84572 0.0
O193 O 0.56567 0.91161 0.87487 0.0
O194 O 0.51399 0.98481 0.8298 0.0
O195 O 0.49256 0.95418 0.80903 0.0
O196 O 0.56535 0.40181 0.58268 0.0
Cd197 Cd 0.5374 0.38823 0.60714 0.0
Cd198 Cd 0.55554 0.43556 0.63598 0.0
O199 O 0.57841 0.43636 0.60365 0.0
O200 O 0.52863 0.35539 0.58991 0.0
O201 O 0.54445 0.35701 0.62926 0.0
C202 C 0.53674 0.34345 0.60998 0.0
C203 C 0.57078 0.46109 0.66992 0.0
C204 C 0.57965 0.42149 0.58435 0.0
C205 C 0.49856 0.42862 0.62046 0.0
O206 O 0.51649 0.44034 0.63213 0.0
O207 O 0.50286 0.40781 0.60845 0.0
O208 O 0.56332 0.47081 0.64853 0.0
O209 O 0.57048 0.43639 0.67202 0.0
O210 O 0.50475 0.10646 0.55223 0.0
Cd211 Cd 0.53352 0.11103 0.579 0.0
Cd212 Cd 0.50146 0.08437 0.60899 0.0
O213 O 0.47578 0.09293 0.57997 0.0
O214 O 0.55181 0.14322 0.57036 0.0
O215 O 0.52911 0.13803 0.60612 0.0
C216 C 0.54267 0.15278 0.59138 0.0
C217 C 0.48627 0.07836 0.65083 0.0
C218 C 0.48179 0.0999 0.55733 0.0
C219 C 0.55195 0.05977 0.5918 0.0
O220 O 0.52964 0.05752 0.60148 0.0
O221 O 0.55918 0.08112 0.58245 0.0
O222 O 0.47937 0.06368 0.63222 0.0
O223 O 0.50056 0.09792 0.64545 0.0
O224 O 0.91451 0.50949 0.62285 0.0
Cd225 Cd 0.88124 0.48822 0.62613 0.0
Cd226 Cd 0.86144 0.52383 0.59488 0.0
O227 O 0.89475 0.54275 0.60557 0.0
O228 O 0.87778 0.47349 0.6612 0.0
O229 O 0.85304 0.50489 0.64614 0.0
C230 C 0.8597 0.49012 0.66499 0.0
C231 C 0.8245 0.54704 0.58397 0.0
C232 C 0.91495 0.53257 0.61488 0.0
C233 C 0.86885 0.46911 0.57502 0.0
O234 O 0.86473 0.49275 0.57057 0.0
O235 O 0.87446 0.46164 0.59755 0.0
O236 O 0.8454 0.54893 0.5709 0.0
O237 O 0.82502 0.53341 0.60469 0.0
O238 O 0.08864 0.95575 0.61302 0.0
Cd239 Cd 0.11513 0.98433 0.61972 0.0
Cd240 Cd 0.13953 0.95784 0.57653 0.0
O241 O 0.11018 0.93239 0.58489 0.0
O242 O 0.10314 0.99807 0.65322 0.0
O243 O 0.14113 0.97972 0.64829 0.0
C244 C 0.12424 0.98999 0.66333 0.0
C245 C 0.17527 0.9411 0.55446 0.0
C246 C 0.09056 0.93584 0.59907 0.0
C247 C 0.12076 0.01401 0.57136 0.0
O248 O 0.12997 0.99342 0.56198 0.0
O249 O 0.1143 0.01523 0.59488 0.0
O250 O 0.15283 0.94204 0.54423 0.0
O251 O 0.17746 0.94867 0.57798 0.0
O252 O 0.90411 0.49792 0.89342 0.0
Cd253 Cd 0.87292 0.52177 0.88919 0.0
Cd254 Cd 0.84989 0.48875 0.92394 0.0
O255 O 0.882 0.46779 0.91348 0.0
O256 O 0.87269 0.53618 0.85392 0.0
O257 O 0.8441 0.50771 0.86803 0.0
C258 C 0.85328 0.52137 0.84936 0.0
C259 C 0.81533 0.46551 0.94135 0.0
C260 C 0.90268 0.47549 0.90293 0.0
C261 C 0.8617 0.54485 0.93901 0.0
O262 O 0.85468 0.52219 0.9447 0.0
O263 O 0.86898 0.55023 0.91636 0.0
O264 O 0.83716 0.467 0.95276 0.0
O265 O 0.81332 0.47611 0.91902 0.0
O266 O 0.09664 0.0227 0.90273 0.0
Cd267 Cd 0.12223 0.99292 0.8983 0.0
Cd268 Cd 0.1477 0.02206 0.93779 0.0
O269 O 0.12031 0.04848 0.92661 0.0
O270 O 0.10951 0.97667 0.86625 0.0
O271 O 0.14784 0.99474 0.86905 0.0
C272 C 0.13049 0.98371 0.85513 0.0
C273 C 0.18533 0.038 0.95659 0.0
C274 C 0.09996 0.04416 0.91383 0.0
C275 C 0.12619 0.96824 0.94941 0.0
O276 O 0.13553 0.98955 0.95681 0.0
O277 O 0.12072 0.96449 0.92592 0.0
O278 O 0.16321 0.04146 0.96699 0.0
O279 O 0.18625 0.02638 0.93471 0.0
O280 O 0.61644 0.88532 0.51914 0.0
Cd281 Cd 0.61828 0.85174 0.4983 0.0
Cd282 Cd 0.58071 0.83711 0.53329 0.0
O283 O 0.594 0.86975 0.55162 0.0
O284 O 0.65244 0.85121 0.48118 0.0
O285 O 0.64139 0.82416 0.51223 0.0
C286 C 0.65869 0.83282 0.49659 0.0
C287 C 0.56143 0.8041 0.55711 0.0
C288 C 0.60671 0.88798 0.54139 0.0
C289 C 0.5669 0.84452 0.47647 0.0
O290 O 0.56029 0.84192 0.49981 0.0
O291 O 0.59045 0.84698 0.47049 0.0
O292 O 0.55148 0.82666 0.55576 0.0
O293 O 0.58366 0.80068 0.54659 0.0
O294 O 0.61768 0.09817 0.96273 0.0
Cd295 Cd 0.6231 0.12874 0.98734 0.0
Cd296 Cd 0.58032 0.15043 0.9584 0.0
O297 O 0.5878 0.11672 0.93892 0.0
O298 O 0.65781 0.12479 0.00271 0.0
O299 O 0.64761 0.15647 0.97609 0.0
C300 C 0.66463 0.14498 0.99008 0.0
C301 C 0.55722 0.18142 0.9351 0.0
C302 C 0.60245 0.09775 0.94364 0.0
C303 C 0.5755 0.14123 0.01668 0.0
O304 O 0.56637 0.1488 0.99538 0.0
O305 O 0.5982 0.13236 0.01804 0.0
O306 O 0.54737 0.15967 0.94126 0.0
O307 O 0.58094 0.18542 0.94116 0.0
O308 O 0.38226 0.41383 0.9476 0.0
Cd309 Cd 0.37622 0.3872 0.9762 0.0
Cd310 Cd 0.41822 0.36202 0.94615 0.0
O311 O 0.40933 0.39268 0.92263 0.0
O312 O 0.34565 0.40204 0.99341 0.0
O313 O 0.345 0.36399 0.97469 0.0
C314 C 0.33286 0.38196 0.98675 0.0
C315 C 0.44019 0.32788 0.92645 0.0
C316 C 0.39549 0.4123 0.92715 0.0
C317 C 0.42589 0.37782 0.00304 0.0
O318 O 0.43405 0.36893 0.98182 0.0
O319 O 0.4029 0.38569 0.00533 0.0
O320 O 0.45024 0.35028 0.92873 0.0
O321 O 0.41684 0.3249 0.93429 0.0
O322 O 0.89019 0.08998 0.02096 0.0
Cd323 Cd 0.89111 0.12031 0.99546 0.0
Cd324 Cd 0.9219 0.14089 0.03059 0.0
O325 O 0.90589 0.11246 0.0532 0.0
O326 O 0.85874 0.12034 0.97525 0.0
O327 O 0.86853 0.15022 0.0041 0.0
C328 C 0.85227 0.14069 0.9879 0.0
C329 C 0.93293 0.18098 0.04697 0.0
C330 C 0.8958 0.09191 0.04466 0.0
C331 C 0.94492 0.12495 0.97972 0.0
O332 O 0.94844 0.13015 0.0033 0.0
O333 O 0.92228 0.12214 0.97103 0.0
O334 O 0.9439 0.16036 0.05509 0.0
O335 O 0.91408 0.17874 0.03099 0.0
H336 H 0.08535 0.0528 0.57728 0.0
H337 H 0.08591 0.07794 0.42679 0.0
H338 H 0.14214 0.02328 0.52448 0.0
H339 H 0.02606 0.10483 0.47763 0.0
H340 H 0.11213 0.06717 0.46405 0.0
H341 H 0.0691 0.08093 0.54317 0.0
C342 C 0.09483 0.05272 0.55874 0.0
C343 C 0.11477 0.0353 0.55352 0.0
C344 C 0.09342 0.0758 0.46712 0.0
C345 C 0.09617 0.06715 0.51445 0.0
C346 C 0.07843 0.08198 0.4458 0.0
C347 C 0.05352 0.09179 0.44909 0.0
C348 C 0.08333 0.07909 0.49195 0.0
C349 C 0.04504 0.09699 0.4742 0.0
C350 C 0.08546 0.06867 0.53923 0.0
C351 C 0.12637 0.03604 0.52918 0.0
N352 N 0.05971 0.0901 0.4947 0.0
N353 N 0.11667 0.05137 0.51048 0.0
H354 H 0.87268 0.4086 0.42011 0.0
H355 H 0.84399 0.4747 0.52953 0.0
H356 H 0.93986 0.38394 0.46202 0.0
H357 H 0.89449 0.4231 0.57024 0.0
H358 H 0.85067 0.45015 0.49062 0.0
H359 H 0.85206 0.41988 0.4606 0.0
C360 C 0.88305 0.40544 0.43788 0.0
C361 C 0.90829 0.39596 0.43762 0.0
C362 C 0.85968 0.44344 0.50808 0.0
C363 C 0.88532 0.41009 0.4841 0.0
C364 C 0.85605 0.45773 0.53038 0.0
C365 C 0.86893 0.4511 0.55308 0.0
C366 C 0.87655 0.42233 0.50832 0.0
C367 C 0.88422 0.42889 0.55311 0.0
C368 C 0.87138 0.4122 0.46105 0.0
C369 C 0.92053 0.3916 0.46127 0.0
N370 N 0.88805 0.41559 0.53089 0.0
N371 N 0.90911 0.39916 0.48353 0.0
H372 H 0.02598 0.88499 0.04802 0.0
H373 H 0.14707 0.96261 0.99699 0.0
H374 H 0.08329 0.92045 0.0964 0.0
H375 H 0.08887 0.93095 0.94717 0.0
H376 H 0.1292 0.93825 0.03274 0.0
H377 H 0.05349 0.89283 0.01066 0.0
C378 C 0.04455 0.89396 0.05089 0.0
C379 C 0.05211 0.90256 0.07533 0.0
C380 C 0.12052 0.93624 0.01394 0.0
C381 C 0.08357 0.91168 0.03266 0.0
C382 C 0.13077 0.95014 0.99349 0.0
C383 C 0.11913 0.94916 0.9692 0.0
C384 C 0.09817 0.92157 0.01023 0.0
C385 C 0.0983 0.9324 0.96566 0.0
C386 C 0.06022 0.89848 0.02952 0.0
C387 C 0.07644 0.91391 0.07788 0.0
N388 N 0.08812 0.91964 0.98611 0.0
N389 N 0.09111 0.91844 0.05679 0.0
H390 H 0.94349 0.62556 0.05407 0.0
H391 H 0.83391 0.5471 0.98318 0.0
H392 H 0.88045 0.58739 0.09232 0.0
H393 H 0.89622 0.58451 0.94324 0.0
H394 H 0.84541 0.57028 0.02218 0.0
H395 H 0.92184 0.61891 0.0129 0.0
C396 C 0.92489 0.6162 0.0539 0.0
C397 C 0.91403 0.60654 0.07667 0.0
C398 C 0.85634 0.57385 0.00482 0.0
C399 C 0.88923 0.5988 0.02959 0.0
C400 C 0.8497 0.56067 0.98251 0.0
C401 C 0.86439 0.56361 0.9601 0.0
C402 C 0.87818 0.58972 0.0049 0.0
C403 C 0.88448 0.58161 0.96019 0.0
C404 C 0.91255 0.61239 0.03035 0.0
C405 C 0.8898 0.59476 0.07524 0.0
N406 N 0.89117 0.59359 0.98245 0.0
N407 N 0.87842 0.59092 0.0521 0.0
H408 H 0.47837 0.06187 0.11715 0.0
H409 H 0.53193 0.16916 0.02493 0.0
H410 H 0.432 0.12099 0.08195 0.0
H411 H 0.57879 0.10981 0.05894 0.0
H412 H 0.49781 0.15924 0.05546 0.0
H413 H 0.51692 0.08629 0.10633 0.0
C414 C 0.47621 0.0803 0.10771 0.0
C415 C 0.45192 0.08901 0.09975 0.0
C416 C 0.51572 0.14869 0.05666 0.0
C417 C 0.49606 0.11689 0.08702 0.0
C418 C 0.53524 0.15437 0.03921 0.0
C419 C 0.55798 0.13985 0.03901 0.0
C420 C 0.51874 0.12802 0.07373 0.0
C421 C 0.56142 0.12125 0.05822 0.0
C422 C 0.49829 0.09422 0.10148 0.0
C423 C 0.45034 0.11323 0.08799 0.0
N424 N 0.54174 0.11543 0.07443 0.0
N425 N 0.47215 0.12604 0.08147 0.0
H426 H 0.52251 0.46264 0.10306 0.0
H427 H 0.47177 0.35344 0.00983 0.0
H428 H 0.57063 0.40642 0.06549 0.0
H429 H 0.42275 0.41105 0.04391 0.0
H430 H 0.50628 0.36621 0.03873 0.0
H431 H 0.48458 0.438 0.09028 0.0
C432 C 0.52516 0.44484 0.09262 0.0
C433 C 0.54976 0.43689 0.08482 0.0
C434 C 0.48787 0.37583 0.04023 0.0
C435 C 0.50646 0.40874 0.07002 0.0
C436 C 0.46813 0.36852 0.02372 0.0
C437 C 0.44454 0.38159 0.0241 0.0
C438 C 0.48418 0.39665 0.05699 0.0
C439 C 0.44075 0.40066 0.04279 0.0
C440 C 0.50347 0.43081 0.08526 0.0
C441 C 0.55202 0.41357 0.07148 0.0
N442 N 0.46058 0.40801 0.05816 0.0
N443 N 0.53064 0.40054 0.06418 0.0
H444 H 0.56941 0.86947 0.43002 0.0
H445 H 0.46031 0.92056 0.37392 0.0
H446 H 0.51748 0.82773 0.47939 0.0
H447 H 0.42054 0.8861 0.43811 0.0
H448 H 0.49787 0.89447 0.38363 0.0
H449 H 0.53294 0.8837 0.40445 0.0
C450 C 0.55036 0.86266 0.43498 0.0
C451 C 0.54641 0.84782 0.45712 0.0
C452 C 0.48107 0.89253 0.3957 0.0
C453 C 0.50424 0.86402 0.42797 0.0
C454 C 0.4594 0.90733 0.38997 0.0
C455 C 0.4374 0.90602 0.40562 0.0
C456 C 0.48081 0.87648 0.41744 0.0
C457 C 0.43719 0.88815 0.42578 0.0
C458 C 0.52935 0.87085 0.42034 0.0
C459 C 0.52134 0.83959 0.46273 0.0
N460 N 0.45867 0.8744 0.43129 0.0
N461 N 0.50123 0.84813 0.44852 0.0
H462 H 0.48173 0.63387 0.47375 0.0
H463 H 0.55281 0.52827 0.38868 0.0
H464 H 0.44249 0.56957 0.43916 0.0
H465 H 0.59082 0.58786 0.43211 0.0
H466 H 0.51133 0.54838 0.39845 0.0
H467 H 0.52025 0.62303 0.44943 0.0
C468 C 0.48108 0.61772 0.46062 0.0
C469 C 0.45903 0.60232 0.45879 0.0
C470 C 0.5288 0.55723 0.40549 0.0
C471 C 0.50333 0.58941 0.43127 0.0
C472 C 0.5525 0.54581 0.39989 0.0
C473 C 0.57533 0.55615 0.40997 0.0
C474 C 0.52798 0.57919 0.42115 0.0
C475 C 0.57373 0.57893 0.4243 0.0
C476 C 0.50313 0.61147 0.44679 0.0
C477 C 0.45916 0.58184 0.44124 0.0
N478 N 0.55049 0.58951 0.42964 0.0
N479 N 0.48119 0.57564 0.4285 0.0
H480 H 0.10043 0.47237 0.06338 0.0
H481 H 0.99859 0.52199 0.16501 0.0
H482 H 0.05368 0.42318 0.11119 0.0
H483 H 0.04256 0.57212 0.11568 0.0
H484 H 0.02666 0.48642 0.15323 0.0
H485 H 0.08767 0.50912 0.08962 0.0
C486 C 0.08791 0.46916 0.07971 0.0
C487 C 0.0776 0.4447 0.08469 0.0
C488 C 0.03051 0.50526 0.14528 0.0
C489 C 0.06279 0.48678 0.11466 0.0
C490 C 0.01448 0.52561 0.15203 0.0
C491 C 0.01793 0.54991 0.14087 0.0
C492 C 0.0499 0.5091 0.12689 0.0
C493 C 0.03907 0.55361 0.12452 0.0
C494 C 0.0806 0.49021 0.09466 0.0
C495 C 0.06172 0.44173 0.1063 0.0
N496 N 0.05396 0.53326 0.11757 0.0
N497 N 0.05447 0.46258 0.12021 0.0
H498 H 0.99475 0.47453 0.34974 0.0
H499 H 0.10104 0.52013 0.44907 0.0
H500 H 0.038 0.42258 0.39777 0.0
H501 H 0.05323 0.57108 0.4043 0.0
H502 H 0.08585 0.48399 0.42322 0.0
H503 H 0.02377 0.50921 0.36175 0.0
C504 C 0.01067 0.47031 0.36248 0.0
C505 C 0.01366 0.44576 0.3732 0.0
C506 C 0.07904 0.50315 0.41878 0.0
C507 C 0.04673 0.48555 0.38744 0.0
C508 C 0.08773 0.52383 0.4335 0.0
C509 C 0.07796 0.54863 0.42922 0.0
C510 C 0.06045 0.50732 0.39967 0.0
C511 C 0.06093 0.55225 0.40863 0.0
C512 C 0.02723 0.49016 0.36937 0.0
C513 C 0.03486 0.4413 0.38926 0.0
N514 N 0.05245 0.53178 0.39488 0.0
N515 N 0.05031 0.46117 0.39633 0.0
H516 H 0.90799 0.9045 0.41218 0.0
H517 H 0.92253 0.0559 0.42852 0.0
H518 H 0.8803 0.94654 0.47816 0.0
H519 H 0.95858 0.01082 0.36895 0.0
H520 H 0.89722 0.01813 0.44102 0.0
H521 H 0.91637 0.94511 0.39041 0.0
C522 C 0.90326 0.92227 0.42195 0.0
C523 C 0.89396 0.9221 0.44727 0.0
C524 C 0.91031 0.01668 0.4249 0.0
C525 C 0.90386 0.96874 0.42252 0.0
C526 C 0.92466 0.03825 0.41768 0.0
C527 C 0.94301 0.03631 0.39799 0.0
C528 C 0.91434 0.99316 0.41222 0.0
C529 C 0.94498 0.01302 0.38456 0.0
C530 C 0.90809 0.94548 0.4095 0.0
C531 C 0.88782 0.94574 0.45878 0.0
N532 N 0.93109 0.9923 0.39213 0.0
N533 N 0.89333 0.96815 0.4465 0.0
H534 H 0.42361 0.56701 0.60072 0.0
H535 H 0.47578 0.46103 0.6547 0.0
H536 H 0.39357 0.51814 0.54084 0.0
H537 H 0.46538 0.42743 0.5797 0.0
H538 H 0.4425 0.49247 0.64489 0.0
H539 H 0.43709 0.52925 0.62427 0.0
C540 C 0.41922 0.54825 0.59284 0.0
C541 C 0.40793 0.5458 0.56852 0.0
C542 C 0.44739 0.47831 0.63049 0.0
C543 C 0.42316 0.50195 0.59563 0.0
C544 C 0.46614 0.46007 0.63627 0.0
C545 C 0.47378 0.44209 0.6177 0.0
C546 C 0.43686 0.47905 0.60563 0.0
C547 C 0.46029 0.44124 0.59442 0.0
C548 C 0.42677 0.52647 0.60648 0.0
C549 C 0.40254 0.52097 0.55939 0.0
N550 N 0.44291 0.45992 0.58877 0.0
N551 N 0.41075 0.50003 0.57268 0.0
H552 H 0.57338 0.56971 0.06129 0.0
H553 H 0.58613 0.59565 0.91147 0.0
H554 H 0.63231 0.53799 0.01223 0.0
H555 H 0.52016 0.6175 0.95694 0.0
H556 H 0.60947 0.58587 0.95085 0.0
H557 H 0.56033 0.59828 0.02621 0.0
C558 C 0.58401 0.56924 0.04339 0.0
C559 C 0.60355 0.55109 0.0394 0.0
C560 C 0.59002 0.59319 0.95225 0.0
C561 C 0.58869 0.58344 0.99933 0.0
C562 C 0.57666 0.59877 0.92975 0.0
C563 C 0.55092 0.60675 0.93089 0.0
C564 C 0.57748 0.59534 0.97606 0.0
C565 C 0.53984 0.61094 0.95515 0.0
C566 C 0.57648 0.58545 0.02335 0.0
C567 C 0.61676 0.55134 0.0159 0.0
N568 N 0.55303 0.6047 0.9768 0.0
N569 N 0.60884 0.56697 0.99663 0.0
H570 H 0.42879 0.95778 0.04695 0.0
H571 H 0.44611 0.96641 0.89476 0.0
H572 H 0.39536 0.01665 0.99898 0.0
H573 H 0.48376 0.90934 0.94184 0.0
H574 H 0.42165 0.98041 0.93212 0.0
H575 H 0.44354 0.93543 0.0082 0.0
C576 C 0.42427 0.96584 0.0283 0.0
C577 C 0.41118 0.98932 0.0262 0.0
C578 C 0.43507 0.96464 0.93426 0.0
C579 C 0.42797 0.96394 0.98192 0.0
C580 C 0.44905 0.95661 0.91288 0.0
C581 C 0.46736 0.93693 0.9152 0.0
C582 C 0.43951 0.95309 0.95824 0.0
C583 C 0.47005 0.92476 0.93917 0.0
C584 C 0.43273 0.9531 0.0062 0.0
C585 C 0.40575 0.99881 0.00155 0.0
N586 N 0.45654 0.93327 0.95985 0.0
N587 N 0.41434 0.98621 0.98043 0.0
H588 H 0.59796 0.3904 0.54593 0.0
H589 H 0.62114 0.50318 0.45061 0.0
H590 H 0.59783 0.4691 0.57218 0.0
H591 H 0.66629 0.43425 0.44283 0.0
H592 H 0.60833 0.48965 0.49369 0.0
H593 H 0.61983 0.40422 0.50644 0.0
C594 C 0.60283 0.4105 0.54353 0.0
C595 C 0.59596 0.42867 0.56226 0.0
C596 C 0.6215 0.47774 0.4828 0.0
C597 C 0.62032 0.4445 0.51719 0.0
C598 C 0.62904 0.4856 0.45838 0.0
C599 C 0.64591 0.47046 0.4439 0.0
C600 C 0.62992 0.45396 0.49226 0.0
C601 C 0.65389 0.44677 0.45392 0.0
C602 C 0.61534 0.41831 0.5211 0.0
C603 C 0.60278 0.45445 0.55825 0.0
N604 N 0.64568 0.43908 0.47754 0.0
N605 N 0.61417 0.46168 0.53592 0.0
H606 H 0.43096 0.08651 0.56098 0.0
H607 H 0.42629 0.04461 0.41422 0.0
H608 H 0.4898 0.10534 0.5055 0.0
H609 H 0.372 0.02032 0.47213 0.0
H610 H 0.44371 0.07605 0.44456 0.0
H611 H 0.40339 0.07188 0.52606 0.0
C612 C 0.43793 0.08803 0.54142 0.0
C613 C 0.46299 0.09661 0.53624 0.0
C614 C 0.42767 0.06415 0.45044 0.0
C615 C 0.43159 0.07953 0.49615 0.0
C616 C 0.41765 0.04626 0.4331 0.0
C617 C 0.39804 0.02942 0.44085 0.0
C618 C 0.41797 0.06517 0.47565 0.0
C619 C 0.38749 0.03254 0.4655 0.0
C620 C 0.42217 0.07961 0.52146 0.0
C621 C 0.47078 0.09848 0.51045 0.0
N622 N 0.39783 0.04976 0.48211 0.0
N623 N 0.45533 0.08954 0.49139 0.0
H624 H 0.02321 0.63013 0.54443 0.0
H625 H 0.96378 0.51402 0.62278 0.0
H626 H 0.06565 0.56154 0.56359 0.0
H627 H 0.92255 0.58303 0.60226 0.0
H628 H 0.00401 0.53497 0.61037 0.0
H629 H 0.98975 0.61748 0.57466 0.0
C630 C 0.02572 0.61263 0.55542 0.0
C631 C 0.04699 0.59662 0.55115 0.0
C632 C 0.98622 0.54569 0.60906 0.0
C633 C 0.00841 0.58164 0.58542 0.0
C634 C 0.96321 0.53376 0.61621 0.0
C635 C 0.93966 0.54659 0.613 0.0
C636 C 0.98562 0.57058 0.5986 0.0
C637 C 0.94017 0.5722 0.60458 0.0
C638 C 0.00656 0.60536 0.57267 0.0
C639 C 0.04944 0.57434 0.56616 0.0
N640 N 0.9627 0.58319 0.59731 0.0
N641 N 0.03006 0.5672 0.58224 0.0
H642 H 0.98324 0.83719 0.52643 0.0
H643 H 0.04303 0.94023 0.62163 0.0
H644 H 0.93749 0.88843 0.57291 0.0
H645 H 0.08738 0.89105 0.57155 0.0
H646 H 0.00464 0.91517 0.61151 0.0
H647 H 0.02134 0.84991 0.55042 0.0
C648 C 0.98115 0.85083 0.54203 0.0
C649 C 0.95726 0.86214 0.54739 0.0
C650 C 0.02285 0.90961 0.60307 0.0
C651 C 0.00097 0.8772 0.57467 0.0
C652 C 0.04483 0.92389 0.60886 0.0
C653 C 0.06841 0.91807 0.597 0.0
C654 C 0.02446 0.8894 0.58528 0.0
C655 C 0.06956 0.89653 0.58083 0.0
C656 C 0.00295 0.85812 0.55571 0.0
C657 C 0.9556 0.87939 0.56804 0.0
N658 N 0.04784 0.88323 0.57518 0.0
N659 N 0.9773 0.88681 0.58063 0.0
H660 H 0.05463 0.43425 0.9482 0.0
H661 H 0.90543 0.42471 0.91587 0.0
H662 H 0.00284 0.37674 0.97813 0.0
H663 H 0.95296 0.48944 0.89493 0.0
H664 H 0.94389 0.40108 0.92828 0.0
H665 H 0.02065 0.44876 0.91894 0.0
C666 C 0.03631 0.42435 0.94824 0.0
C667 C 0.03132 0.40463 0.96596 0.0
C668 C 0.94599 0.42031 0.9206 0.0
C669 C 0.99255 0.42106 0.93269 0.0
C670 C 0.92401 0.43382 0.91347 0.0
C671 C 0.92594 0.45931 0.90494 0.0
C672 C 0.97006 0.43247 0.91949 0.0
C673 C 0.95056 0.46994 0.90177 0.0
C674 C 0.01693 0.43267 0.93161 0.0
C675 C 0.00733 0.39238 0.96514 0.0
N676 N 0.97167 0.45664 0.90955 0.0
N677 N 0.98876 0.40098 0.94902 0.0
H678 H 0.05266 0.04059 0.89079 0.0
H679 H 0.99374 0.1421 0.98732 0.0
H680 H 0.09797 0.08998 0.9397 0.0
H681 H 0.94775 0.09741 0.93478 0.0
H682 H 0.03231 0.12882 0.96435 0.0
H683 H 0.01478 0.06653 0.90047 0.0
C684 C 0.05479 0.05717 0.90318 0.0
C685 C 0.07845 0.06275 0.91493 0.0
C686 C 0.0138 0.12217 0.95754 0.0
C687 C 0.03506 0.09236 0.92627 0.0
C688 C 0.99174 0.12971 0.97071 0.0
C689 C 0.96756 0.12043 0.96322 0.0
C690 C 0.01175 0.10484 0.93697 0.0
C691 C 0.96606 0.1048 0.94132 0.0
C692 C 0.0331 0.07197 0.90872 0.0
C693 C 0.08006 0.08467 0.93054 0.0
N694 N 0.98794 0.09708 0.92923 0.0
N695 N 0.05856 0.0984 0.9361 0.0
H696 H 0.59242 0.05084 0.55894 0.0
H697 H 0.58884 0.90073 0.58925 0.0
H698 H 0.5483 0.01582 0.61987 0.0
H699 H 0.62588 0.93333 0.52248 0.0
H700 H 0.58279 0.94391 0.60637 0.0
H701 H 0.61338 0.00935 0.55105 0.0
C702 C 0.58754 0.03458 0.57099 0.0
C703 C 0.56826 0.03662 0.58976 0.0
C704 C 0.59257 0.94162 0.58812 0.0
C705 C 0.59198 0.98926 0.58081 0.0
C706 C 0.59607 0.91693 0.57834 0.0
C707 C 0.6074 0.9134 0.55412 0.0
C708 C 0.60026 0.96299 0.57352 0.0
C709 C 0.6167 0.93515 0.54107 0.0
C710 C 0.59941 0.0109 0.56642 0.0
C711 C 0.56271 0.01498 0.60486 0.0
N712 N 0.61254 0.95906 0.55073 0.0
N713 N 0.57428 0.99217 0.59987 0.0
H714 H 0.6332 0.05454 0.94348 0.0
H715 H 0.52919 0.96998 0.87588 0.0
H716 H 0.56559 0.08718 0.90801 0.0
H717 H 0.60882 0.94832 0.86943 0.0
H718 H 0.54189 0.01177 0.89179 0.0
H719 H 0.62504 0.01418 0.92028 0.0
C720 C 0.61684 0.05334 0.93066 0.0
C721 C 0.59991 0.07421 0.92788 0.0
C722 C 0.55667 0.99814 0.88633 0.0
C723 C 0.59042 0.02825 0.90178 0.0
C724 C 0.54938 0.97437 0.87664 0.0
C725 C 0.56796 0.95622 0.86964 0.0
C726 C 0.58279 0.00353 0.89012 0.0
C727 C 0.59394 0.96218 0.8739 0.0
C728 C 0.61229 0.03038 0.91742 0.0
C729 C 0.5791 0.07162 0.91091 0.0
N730 N 0.60068 0.98538 0.88402 0.0
N731 N 0.57476 0.04897 0.89883 0.0
H732 H 0.42143 0.56869 0.88855 0.0
H733 H 0.42118 0.41626 0.88131 0.0
H734 H 0.4719 0.52354 0.84058 0.0
H735 H 0.37458 0.46019 0.93415 0.0
H736 H 0.43161 0.45578 0.85841 0.0
H737 H 0.39616 0.52999 0.89745 0.0
C738 C 0.42684 0.55078 0.87941 0.0
C739 C 0.44913 0.54919 0.86427 0.0
C740 C 0.41876 0.45675 0.87477 0.0
C741 C 0.42051 0.50492 0.87452 0.0
C742 C 0.41277 0.43414 0.88786 0.0
C743 C 0.39748 0.43496 0.91008 0.0
C744 C 0.40963 0.48039 0.8841 0.0
C745 C 0.38681 0.45868 0.91738 0.0
C746 C 0.41248 0.52868 0.88458 0.0
C747 C 0.45517 0.52553 0.85282 0.0
N748 N 0.39348 0.48052 0.90471 0.0
N749 N 0.44119 0.50427 0.85848 0.0
H750 H 0.90504 0.08929 0.09638 0.0
H751 H 0.92096 0.9373 0.09181 0.0
H752 H 0.88308 0.0424 0.03156 0.0
H753 H 0.95397 0.98688 0.14946 0.0
H754 H 0.89593 0.97379 0.07559 0.0
H755 H 0.91146 0.05041 0.1217 0.0
C756 C 0.90111 0.07084 0.08758 0.0
C757 C 0.89411 0.06911 0.06159 0.0
C758 C 0.90825 0.97651 0.09213 0.0
C759 C 0.90174 0.02445 0.09046 0.0
C760 C 0.92242 0.95567 0.10149 0.0
C761 C 0.93992 0.95924 0.12168 0.0
C762 C 0.91158 0.00093 0.10319 0.0
C763 C 0.94106 0.98343 0.13352 0.0
C764 C 0.90482 0.04862 0.10206 0.0
C765 C 0.88889 0.04466 0.0514 0.0
N766 N 0.92737 0.00341 0.12389 0.0
N767 N 0.89328 0.02324 0.06572 0.0
H768 H 0.01661 0.17455 0.35578 0.0
H769 H 0.93392 0.30364 0.34981 0.0
H770 H 0.9394 0.1794 0.38571 0.0
H771 H 0.01414 0.30321 0.37075 0.0
H772 H 0.93508 0.25647 0.34678 0.0
H773 H 0.01476 0.22058 0.34514 0.0
C774 C 0.99908 0.18516 0.35951 0.0
C775 C 0.97819 0.17335 0.37181 0.0
C776 C 0.9525 0.26685 0.35149 0.0
C777 C 0.97584 0.22546 0.35935 0.0
C778 C 0.95191 0.29366 0.35308 0.0
C779 C 0.97393 0.30717 0.36072 0.0
C780 C 0.97542 0.25371 0.35693 0.0
C781 C 0.99671 0.29339 0.365 0.0
C782 C 0.9981 0.21134 0.35356 0.0
C783 C 0.95598 0.18793 0.37644 0.0
N784 N 0.99688 0.26735 0.36309 0.0
N785 N 0.95538 0.21329 0.37023 0.0
H786 H 0.01964 0.69378 0.14931 0.0
H787 H 0.93784 0.81626 0.13815 0.0
H788 H 0.93933 0.69091 0.16977 0.0
H789 H 0.01475 0.82173 0.16853 0.0
H790 H 0.93757 0.77027 0.1483 0.0
H791 H 0.01898 0.74052 0.15514 0.0
C792 C 0.00201 0.70298 0.15551 0.0
C793 C 0.97949 0.68859 0.15902 0.0
C794 C 0.95428 0.78166 0.15324 0.0
C795 C 0.97843 0.74188 0.16496 0.0
C796 C 0.95448 0.80782 0.14738 0.0
C797 C 0.97637 0.82268 0.15248 0.0
C798 C 0.97645 0.77018 0.16344 0.0
C799 C 0.99747 0.81088 0.16441 0.0
C800 C 0.00166 0.72957 0.1589 0.0
C801 C 0.95711 0.70137 0.16699 0.0
N802 N 0.99725 0.78513 0.16895 0.0
N803 N 0.95697 0.72743 0.1691 0.0
H804 H 0.42663 0.97329 0.17433 0.0
H805 H 0.34545 0.98346 0.30389 0.0
H806 H 0.35417 0.01381 0.17556 0.0
H807 H 0.42832 0.98068 0.30021 0.0
H808 H 0.3442 0.98613 0.25652 0.0
H809 H 0.42272 0.96579 0.22029 0.0
C810 C 0.4097 0.98036 0.18418 0.0
C811 C 0.39086 0.99451 0.1711 0.0
C812 C 0.36256 0.98492 0.26625 0.0
C813 C 0.38636 0.986 0.22392 0.0
C814 C 0.3633 0.98337 0.29315 0.0
C815 C 0.38703 0.982 0.30595 0.0
C816 C 0.38568 0.98441 0.25229 0.0
C817 C 0.4096 0.98193 0.2912 0.0
C818 C 0.40756 0.97616 0.21048 0.0
C819 C 0.36924 0.00298 0.18496 0.0
N820 N 0.40835 0.98295 0.26522 0.0
N821 N 0.36762 0.99874 0.21077 0.0
H822 H 0.61791 0.54304 0.17938 0.0
H823 H 0.62702 0.45714 0.29903 0.0
H824 H 0.64312 0.4646 0.17054 0.0
H825 H 0.65606 0.53465 0.30322 0.0
H826 H 0.62993 0.45911 0.25204 0.0
H827 H 0.62923 0.54106 0.22506 0.0
C828 C 0.62624 0.52556 0.18703 0.0
C829 C 0.62957 0.50392 0.17136 0.0
C830 C 0.63607 0.4755 0.26331 0.0
C831 C 0.64179 0.50133 0.22339 0.0
C832 C 0.63427 0.47445 0.29002 0.0
C833 C 0.6412 0.49582 0.30486 0.0
C834 C 0.64406 0.49834 0.25146 0.0
C835 C 0.65057 0.51778 0.29236 0.0
C836 C 0.63275 0.52448 0.21298 0.0
C837 C 0.64039 0.4817 0.18208 0.0
N838 N 0.6512 0.51871 0.26625 0.0
N839 N 0.64557 0.48074 0.20767 0.0
H840 H 0.29938 0.34143 0.97915 0.0
H841 H 0.17705 0.43088 0.99359 0.0
H842 H 0.30242 0.42039 0.00447 0.0
H843 H 0.17045 0.3496 0.00895 0.0
H844 H 0.22334 0.42603 0.98971 0.0
H845 H 0.25218 0.34257 0.98377 0.0
C846 C 0.29019 0.35887 0.98584 0.0
C847 C 0.30483 0.38089 0.99133 0.0
C848 C 0.21179 0.40922 0.99392 0.0
C849 C 0.25132 0.38238 0.99612 0.0
C850 C 0.18531 0.41192 0.99598 0.0
C851 C 0.16984 0.39062 0.00174 0.0
C852 C 0.22305 0.38498 0.9973 0.0
C853 C 0.18173 0.36653 0.00463 0.0
C854 C 0.26337 0.35947 0.98847 0.0
C855 C 0.292 0.40297 -5e-05 0.0
N856 N 0.20776 0.3643 0.0023 0.0
N857 N 0.26603 0.40322 0.0018 0.0
H858 H 0.18168 0.64309 0.49333 0.0
H859 H 0.31193 0.56576 0.47392 0.0
H860 H 0.18842 0.56082 0.50155 0.0
H861 H 0.31355 0.64173 0.50727 0.0
H862 H 0.26517 0.56704 0.47435 0.0
H863 H 0.22897 0.64595 0.49048 0.0
C864 C 0.19306 0.62571 0.49461 0.0
C865 C 0.18114 0.60169 0.49775 0.0
C866 C 0.27576 0.5835 0.48143 0.0
C867 C 0.23469 0.60479 0.4939 0.0
C868 C 0.30248 0.58289 0.48106 0.0
C869 C 0.31673 0.60359 0.4908 0.0
C870 C 0.26301 0.60508 0.49133 0.0
C871 C 0.30329 0.62528 0.49974 0.0
C872 C 0.21993 0.62737 0.49301 0.0
C873 C 0.19674 0.57976 0.49928 0.0
N874 N 0.27707 0.62547 0.49985 0.0
N875 N 0.22263 0.58182 0.4971 0.0
H876 H 0.68423 0.81419 0.53849 0.0
H877 H 0.82211 0.81984 0.47075 0.0
H878 H 0.69476 0.83314 0.45848 0.0
H879 H 0.80881 0.84398 0.54893 0.0
H880 H 0.77632 0.80895 0.46696 0.0
H881 H 0.73099 0.80923 0.54285 0.0
C882 C 0.6963 0.81656 0.52169 0.0
C883 C 0.68572 0.8243 0.49814 0.0
C884 C 0.78363 0.81613 0.48507 0.0
C885 C 0.73889 0.81851 0.50298 0.0
C886 C 0.80971 0.8222 0.48731 0.0
C887 C 0.81913 0.83305 0.51011 0.0
C888 C 0.76709 0.82044 0.50596 0.0
C889 C 0.80221 0.8359 0.53094 0.0
C890 C 0.72292 0.8139 0.52425 0.0
C891 C 0.70223 0.82737 0.47702 0.0
N892 N 0.77695 0.82975 0.52834 0.0
N893 N 0.72805 0.8246 0.47996 0.0
H894 H 0.52177 0.82214 0.82461 0.0
H895 H 0.46085 0.70012 0.8931 0.0
H896 H 0.51256 0.81492 0.90673 0.0
H897 H 0.5106 0.69029 0.82732 0.0
H898 H 0.46912 0.74617 0.89188 0.0
H899 H 0.5088 0.77679 0.81986 0.0
C900 C 0.51705 0.81103 0.84158 0.0
C901 C 0.51839 0.82215 0.86612 0.0
C902 C 0.47796 0.73393 0.87753 0.0
C903 C 0.50293 0.77109 0.86074 0.0
C904 C 0.47314 0.70766 0.87807 0.0
C905 C 0.48536 0.69126 0.86049 0.0
C906 C 0.49486 0.74399 0.85912 0.0
C907 C 0.50099 0.70225 0.84138 0.0
C908 C 0.50969 0.7853 0.83884 0.0
C909 C 0.51204 0.80703 0.88749 0.0
N910 N 0.50547 0.72803 0.84128 0.0
N911 N 0.50438 0.78235 0.88428 0.0
H912 H 0.54061 0.3101 0.65107 0.0
H913 H 0.56436 0.18909 0.56062 0.0
H914 H 0.5373 0.31244 0.56822 0.0
H915 H 0.52793 0.17963 0.63463 0.0
H916 H 0.5646 0.2354 0.56714 0.0
H917 H 0.5445 0.26287 0.64885 0.0
C918 C 0.54071 0.30071 0.63249 0.0
C919 C 0.53851 0.31513 0.60979 0.0
C920 C 0.55672 0.22317 0.58204 0.0
C921 C 0.54353 0.26173 0.60718 0.0
C922 C 0.5567 0.1967 0.57842 0.0
C923 C 0.54585 0.18045 0.597 0.0
C924 C 0.54608 0.23358 0.60451 0.0
C925 C 0.5363 0.19151 0.61973 0.0
C926 C 0.54289 0.27389 0.63127 0.0
C927 C 0.53875 0.30209 0.58621 0.0
N928 N 0.53653 0.2175 0.62285 0.0
N929 N 0.54141 0.27621 0.58553 0.0
H930 H 0.83139 0.47871 0.82807 0.0
H931 H 0.83818 0.53367 0.68487 0.0
H932 H 0.85514 0.55607 0.81007 0.0
H933 H 0.85765 0.45548 0.70444 0.0
H934 H 0.82842 0.54203 0.73025 0.0
H935 H 0.825 0.47056 0.78204 0.0
C936 C 0.83454 0.49419 0.81451 0.0
C937 C 0.84404 0.51802 0.82277 0.0
C938 C 0.83432 0.52293 0.72443 0.0
C939 C 0.8366 0.50889 0.77044 0.0
C940 C 0.83976 0.51809 0.69859 0.0
C941 C 0.84901 0.49392 0.69101 0.0
C942 C 0.83767 0.50331 0.74262 0.0
C943 C 0.85083 0.47446 0.70958 0.0
C944 C 0.83105 0.48946 0.78831 0.0
C945 C 0.84803 0.53735 0.80441 0.0
N946 N 0.84536 0.47961 0.7346 0.0
N947 N 0.84442 0.53233 0.77905 0.0
H948 H 0.08776 0.00069 0.69905 0.0
H949 H 0.17264 0.99422 0.82445 0.0
H950 H 0.16792 0.98022 0.692 0.0
H951 H 0.0936 0.96902 0.8213 0.0
H952 H 0.17331 0.99573 0.77707 0.0
H953 H 0.09145 0.99769 0.74553 0.0
C954 C 0.10626 0.99582 0.70727 0.0
C955 C 0.12755 0.99057 0.69156 0.0
C956 C 0.15601 0.98961 0.78692 0.0
C957 C 0.13182 0.98711 0.74498 0.0
C958 C 0.15559 0.98872 0.81386 0.0
C959 C 0.13298 0.9816 0.82687 0.0
C960 C 0.13352 0.98392 0.77317 0.0
C961 C 0.11144 0.97469 0.81219 0.0
C962 C 0.10827 0.99393 0.73383 0.0
C963 C 0.15101 0.98431 0.70343 0.0
N964 N 0.11215 0.97637 0.78622 0.0
N965 N 0.15259 0.9828 0.72956 0.0
H966 H 0.81973 0.13774 0.94686 0.0
H967 H 0.69779 0.14312 0.03035 0.0
H968 H 0.82448 0.16555 0.02479 0.0
H969 H 0.69296 0.16486 0.95055 0.0
H970 H 0.74431 0.15035 0.02903 0.0
H971 H 0.77348 0.14686 0.94698 0.0
C972 C 0.81111 0.14626 0.9638 0.0
C973 C 0.82584 0.15078 0.9859 0.0
C974 C 0.733 0.15405 0.01196 0.0
C975 C 0.77307 0.16056 0.98637 0.0
C976 C 0.70653 0.14984 0.01268 0.0
C977 C 0.69167 0.15336 0.9905 0.0
C978 C 0.74474 0.16097 0.98868 0.0
C979 C 0.70383 0.16205 0.96806 0.0
C980 C 0.78478 0.15151 0.96383 0.0
C981 C 0.81378 0.16182 0.00735 0.0
N982 N 0.72984 0.16499 0.96752 0.0
N983 N 0.78793 0.16576 0.00729 0.0
H984 H 0.0538 0.9973 0.18174 0.0
H985 H 0.03485 0.07311 0.28966 0.0
H986 H 0.03208 0.93545 0.23261 0.0
H987 H 0.0531 0.00505 0.33343 0.0
H988 H 0.04025 0.04841 0.25011 0.0
H989 H 0.06087 0.02489 0.21894 0.0
C990 C 0.0507 0.98943 0.20076 0.0
C991 C 0.04191 0.96411 0.20404 0.0
C992 C 0.04384 0.03903 0.26831 0.0
C993 C 0.04934 0.9959 0.24673 0.0
C994 C 0.04061 0.05315 0.29094 0.0
C995 C 0.04341 0.04114 0.31489 0.0
C996 C 0.04975 0.01267 0.26971 0.0
C997 C 0.05068 0.01512 0.31539 0.0
C998 C 0.05448 0.00534 0.222 0.0
C999 C 0.03859 0.95491 0.22916 0.0
N1000 N 0.05315 0.00167 0.29317 0.0
N1001 N 0.04214 0.97087 0.24955 0.0
H1002 H 0.89626 0.4891 0.33208 0.0
H1003 H 0.89903 0.50916 0.18013 0.0
H1004 H 0.90768 0.42764 0.27755 0.0
H1005 H 0.91001 0.57031 0.23508 0.0
H1006 H 0.89021 0.47957 0.21543 0.0
H1007 H 0.88927 0.51883 0.29652 0.0
C1008 C 0.89681 0.4817 0.31263 0.0
C1009 C 0.90296 0.45586 0.30778 0.0
C1010 C 0.89416 0.49954 0.21974 0.0
C1011 C 0.89506 0.48995 0.26698 0.0
C1012 C 0.8991 0.51653 0.1996 0.0
C1013 C 0.90566 0.54223 0.20468 0.0
C1014 C 0.89565 0.5083 0.24517 0.0
C1015 C 0.90527 0.55064 0.23028 0.0
C1016 C 0.8929 0.49876 0.29234 0.0
C1017 C 0.90321 0.44742 0.28218 0.0
N1018 N 0.90067 0.53363 0.24961 0.0
N1019 N 0.89964 0.4645 0.2627 0.0
H1020 H 0.19345 0.08014 0.98662 0.0
H1021 H 0.30756 0.01928 0.06342 0.0
H1022 H 0.22944 0.01025 0.96039 0.0
H1023 H 0.31466 0.0987 0.04073 0.0
H1024 H 0.26934 0.01546 0.03609 0.0
H1025 H 0.23013 0.08751 0.01563 0.0
C1026 C 0.20925 0.06658 0.98676 0.0
C1027 C 0.20871 0.04472 0.97098 0.0
C1028 C 0.27908 0.0338 0.03755 0.0
C1029 C 0.24959 0.05235 0.0047 0.0
C1030 C 0.30059 0.03612 0.05336 0.0
C1031 C 0.31417 0.05937 0.05433 0.0
C1032 C 0.27079 0.05504 0.02322 0.0
C1033 C 0.30463 0.08048 0.04048 0.0
C1034 C 0.22997 0.07073 0.0033 0.0
C1035 C 0.2294 0.02751 0.972 0.0
N1036 N 0.2834 0.07785 0.02545 0.0
N1037 N 0.24886 0.03146 0.98896 0.0
H1038 H 0.66082 0.44096 0.99465 0.0
H1039 H 0.81404 0.44561 0.98984 0.0
H1040 H 0.70879 0.45059 0.06164 0.0
H1041 H 0.76541 0.46132 0.92449 0.0
H1042 H 0.77594 0.43538 0.01522 0.0
H1043 H 0.69934 0.43635 0.96825 0.0
C1044 C 0.67945 0.44163 0.00393 0.0
C1045 C 0.6816 0.44655 0.03039 0.0
C1046 C 0.77365 0.4407 0.99523 0.0
C1047 C 0.72573 0.44131 0.00015 0.0
C1048 C 0.79538 0.44647 0.98065 0.0
C1049 C 0.79288 0.45472 0.95506 0.0
C1050 C 0.74921 0.44304 0.98414 0.0
C1051 C 0.76821 0.45528 0.94419 0.0
C1052 C 0.70141 0.43909 0.98877 0.0
C1053 C 0.70624 0.44706 0.0413 0.0
N1054 N 0.74728 0.44978 0.95889 0.0
N1055 N 0.72739 0.44475 0.02607 0.0
H1056 H 0.28189 0.93681 0.42721 0.0
H1057 H 0.17531 0.92134 0.5059 0.0
H1058 H 0.32705 0.92723 0.4961 0.0
H1059 H 0.22653 0.94451 0.56685 0.0
H1060 H 0.2122 0.91508 0.47777 0.0
H1061 H 0.24285 0.93271 0.45285 0.0
C1062 C 0.28359 0.9333 0.44766 0.0
C1063 C 0.30777 0.93243 0.4595 0.0
C1064 C 0.21546 0.92176 0.49717 0.0
C1065 C 0.2631 0.92732 0.48913 0.0
C1066 C 0.19437 0.92505 0.51341 0.0
C1067 C 0.1978 0.93386 0.53868 0.0
C1068 C 0.24023 0.92758 0.50617 0.0
C1069 C 0.22297 0.93791 0.54745 0.0
C1070 C 0.26123 0.93077 0.46236 0.0
C1071 C 0.30881 0.92808 0.48613 0.0
N1072 N 0.24321 0.93493 0.53114 0.0
N1073 N 0.28681 0.926 0.50006 0.0
H1074 H 0.81841 0.58148 0.54494 0.0
H1075 H 0.67701 0.53125 0.51648 0.0
H1076 H 0.77523 0.53351 0.59704 0.0
H1077 H 0.72147 0.57765 0.46396 0.0
H1078 H 0.70925 0.5388 0.54971 0.0
H1079 H 0.77965 0.58791 0.5194 0.0
C1080 C 0.8006 0.57277 0.55135 0.0
C1081 C 0.80014 0.55658 0.57292 0.0
C1082 C 0.7118 0.54762 0.53103 0.0
C1083 C 0.75578 0.5634 0.54341 0.0
C1084 C 0.6934 0.5433 0.51201 0.0
C1085 C 0.69675 0.55352 0.48725 0.0
C1086 C 0.7338 0.56216 0.52525 0.0
C1087 C 0.71824 0.56915 0.48267 0.0
C1088 C 0.77848 0.57636 0.53667 0.0
C1089 C 0.77649 0.546 0.58045 0.0
N1090 N 0.7361 0.57273 0.50139 0.0
N1091 N 0.75534 0.54918 0.56542 0.0
H1092 H 0.04582 0.2938 0.0238 0.0
H1093 H 0.95747 0.19633 0.09082 0.0
H1094 H 0.00623 0.32437 0.08996 0.0
H1095 H 0.93699 0.22165 0.01461 0.0
H1096 H 0.98499 0.23462 0.09549 0.0
H1097 H 0.01693 0.25642 0.02461 0.0
C1098 C 0.03156 0.29227 0.03892 0.0
C1099 C 0.02835 0.31206 0.05688 0.0
C1100 C 0.97408 0.23184 0.07798 0.0
C1101 C 0.99568 0.26968 0.05789 0.0
C1102 C 0.95835 0.21023 0.07535 0.0
C1103 C 0.9448 0.20608 0.0524 0.0
C1104 C 0.97689 0.24865 0.05717 0.0
C1105 C 0.94683 0.22438 0.03273 0.0
C1106 C 0.01499 0.27119 0.03916 0.0
C1107 C 0.00924 0.30942 0.07581 0.0
N1108 N 0.96308 0.24465 0.03534 0.0
N1109 N 0.99357 0.28849 0.07591 0.0
H1110 H 0.05778 0.70481 0.44529 0.0
H1111 H 0.91645 0.76067 0.45555 0.0
H1112 H 0.99023 0.65673 0.44875 0.0
H1113 H 0.98152 0.80647 0.43195 0.0
H1114 H 0.94252 0.72194 0.45001 0.0
H1115 H 0.03005 0.7421 0.4377 0.0
C1116 C 0.03717 0.70205 0.44414 0.0
C1117 C 0.02631 0.67768 0.44793 0.0
C1118 C 0.95095 0.74045 0.44561 0.0
C1119 C 0.99446 0.72019 0.43952 0.0
C1120 C 0.93603 0.76256 0.4487 0.0
C1121 C 0.94689 0.78686 0.44451 0.0
C1122 C 0.977 0.74272 0.43865 0.0
C1123 C 0.97239 0.78814 0.43563 0.0
C1124 C 0.02133 0.72331 0.43977 0.0
C1125 C 0.99946 0.67519 0.44615 0.0
N1126 N 0.9867 0.76643 0.43342 0.0
N1127 N 0.98446 0.69621 0.44241 0.0
H1128 H 0.51203 0.80533 0.5749 0.0
H1129 H 0.4976 0.65273 0.57194 0.0
H1130 H 0.5751 0.75322 0.56087 0.0
H1131 H 0.43428 0.70518 0.56062 0.0
H1132 H 0.52589 0.68922 0.58002 0.0
H1133 H 0.48373 0.76858 0.58197 0.0
C1134 C 0.52011 0.78617 0.57385 0.0
C1135 C 0.54595 0.78234 0.56691 0.0
C1136 C 0.50574 0.69272 0.57613 0.0
C1137 C 0.51352 0.74023 0.5749 0.0
C1138 C 0.4895 0.67191 0.57158 0.0
C1139 C 0.46355 0.67593 0.56522 0.0
C1140 C 0.496 0.71777 0.57445 0.0
C1141 C 0.45418 0.70121 0.56523 0.0
C1142 C 0.50385 0.76521 0.57776 0.0
C1143 C 0.55528 0.75707 0.56595 0.0
N1144 N 0.47047 0.72122 0.5695 0.0
N1145 N 0.53899 0.73694 0.56962 0.0
H1146 H 0.55214 0.58816 0.77033 0.0
H1147 H 0.58228 0.44773 0.7197 0.0
H1148 H 0.5739 0.52533 0.81993 0.0
H1149 H 0.57286 0.5134 0.66988 0.0
H1150 H 0.58491 0.47684 0.75654 0.0
H1151 H 0.56532 0.56257 0.73316 0.0
C1152 C 0.56014 0.56919 0.77344 0.0
C1153 C 0.56151 0.55871 0.79821 0.0
C1154 C 0.58268 0.4849 0.73748 0.0
C1155 C 0.57624 0.52917 0.75584 0.0
C1156 C 0.58121 0.46827 0.71646 0.0
C1157 C 0.57692 0.47812 0.69177 0.0
C1158 C 0.57958 0.5115 0.73374 0.0
C1159 C 0.5758 0.50491 0.68865 0.0
C1160 C 0.56762 0.55454 0.75222 0.0
C1161 C 0.57214 0.53406 0.80113 0.0
N1162 N 0.57672 0.52063 0.70942 0.0
N1163 N 0.5787 0.51998 0.78019 0.0
H1164 H 0.519 0.02667 0.8038 0.0
H1165 H 0.45104 0.04338 0.66732 0.0
H1166 H 0.46857 0.97071 0.76908 0.0
H1167 H 0.51058 0.09408 0.69491 0.0
H1168 H 0.45042 0.02201 0.70897 0.0
H1169 H 0.5103 0.05597 0.76804 0.0
C1170 C 0.50598 0.0206 0.78874 0.0
C1171 C 0.49473 0.99607 0.78925 0.0
C1172 C 0.46337 0.03805 0.7061 0.0
C1173 C 0.48454 0.02958 0.74848 0.0
C1174 C 0.46362 0.05039 0.68235 0.0
C1175 C 0.48118 0.07028 0.67754 0.0
C1176 C 0.48095 0.0455 0.72514 0.0
C1177 C 0.49684 0.07872 0.69779 0.0
C1178 C 0.501 0.03736 0.76838 0.0
C1179 C 0.4779 0.9893 0.76933 0.0
N1180 N 0.49668 0.06598 0.72063 0.0
N1181 N 0.47343 0.0059 0.74972 0.0
H1182 H 0.4898 0.32931 0.90945 0.0
H1183 H 0.50688 0.17758 0.92094 0.0
H1184 H 0.42744 0.27666 0.92451 0.0
H1185 H 0.56968 0.2317 0.92473 0.0
H1186 H 0.47765 0.21276 0.91075 0.0
H1187 H 0.51868 0.29287 0.9035 0.0
C1188 C 0.48204 0.31006 0.91107 0.0
C1189 C 0.45622 0.30602 0.91792 0.0
C1190 C 0.49788 0.21689 0.91344 0.0
C1191 C 0.48931 0.26424 0.91124 0.0
C1192 C 0.51464 0.19682 0.9192 0.0
C1193 C 0.54073 0.20178 0.92413 0.0
C1194 C 0.50723 0.24214 0.91256 0.0
C1195 C 0.54968 0.22704 0.92133 0.0
C1196 C 0.4986 0.28928 0.90773 0.0
C1197 C 0.44725 0.28066 0.91949 0.0
N1198 N 0.53288 0.24636 0.91604 0.0
N1199 N 0.46387 0.2607 0.91651 0.0
loop_
_geom_bond_atom_site_label_1
_geom_bond_atom_site_label_2
_geom_bond_distance
_geom_bond_site_symmetry_2
_ccdc_geom_bond_type
O0 Cd1 2.223 1_455 S
O0 C8 1.315 . S
Cd1 O0 2.223 1_655 S
Cd1 O4 2.297 . S
Cd1 O5 2.439 . S
Cd1 O11 2.240 . S
Cd2 O3 2.240 . S
Cd2 O10 2.201 1_455 S
Cd2 O12 2.297 . S
Cd2 O13 2.439 1_455 S
O3 Cd2 2.240 . S
O3 C8 1.279 . S
O4 Cd1 2.297 . S
O4 C6 1.247 . S
O5 Cd1 2.439 . S
O5 C6 1.208 . S
C6 O4 1.247 . S
C6 O5 1.208 . S
C7 O12 1.234 1_655 S
C7 O13 1.210 . S
C8 O0 1.315 . S
C8 O3 1.279 . S
C9 O10 1.350 . S
C9 O11 1.279 . S
O10 Cd2 2.201 1_655 S
O10 C9 1.350 . S
O11 Cd1 2.240 . S
O11 C9 1.279 . S
O12 Cd2 2.297 . S
O12 C7 1.234 1_455 S
O13 Cd2 2.439 1_655 S
O13 C7 1.210 . S
O14 Cd15 2.223 1_655 S
O14 C22 1.315 . S
Cd15 O14 2.223 1_455 S
Cd15 O18 2.297 . S
Cd15 O19 2.439 . S
Cd15 O25 2.240 . S
Cd16 O17 2.240 . S
Cd16 O24 2.237 . S
Cd16 O26 2.297 . S
Cd16 O27 2.425 1_655 S
O17 Cd16 2.240 . S
O17 C22 1.279 . S
O18 Cd15 2.297 . S
O18 C20 1.247 . S
O19 Cd15 2.439 . S
O19 C20 1.208 . S
C20 O18 1.247 . S
C20 O19 1.208 . S
C21 O26 1.264 . S
C21 O27 1.206 1_655 S
C22 O14 1.315 . S
C22 O17 1.279 . S
C23 O24 1.293 1_455 S
C23 O25 1.279 . S
O24 Cd16 2.237 . S
O24 C23 1.293 1_655 S
O25 Cd15 2.240 . S
O25 C23 1.279 . S
O26 Cd16 2.297 . S
O26 C21 1.264 . S
O27 Cd16 2.425 1_455 S
O27 C21 1.206 1_455 S
O28 Cd29 2.223 1_455 S
O28 C36 1.315 . S
Cd29 O28 2.223 1_655 S
Cd29 O32 2.297 . S
Cd29 O33 2.439 . S
Cd29 O39 2.240 . S
Cd30 O31 2.240 . S
Cd30 O38 2.210 1_455 S
Cd30 O40 2.297 . S
Cd30 O41 2.443 . S
O31 Cd30 2.240 . S
O31 C36 1.279 . S
O32 Cd29 2.297 . S
O32 C34 1.247 . S
O33 Cd29 2.439 . S
O33 C34 1.208 . S
C34 O32 1.247 . S
C34 O33 1.208 . S
C35 O40 1.247 . S
C35 O41 1.209 . S
C36 O28 1.315 . S
C36 O31 1.279 . S
C37 O38 1.336 . S
C37 O39 1.279 . S
O38 Cd30 2.210 1_655 S
O38 C37 1.336 . S
O39 Cd29 2.240 . S
O39 C37 1.279 . S
O40 Cd30 2.297 . S
O40 C35 1.247 . S
O41 Cd30 2.443 . S
O41 C35 1.209 . S
O42 Cd43 2.223 1_655 S
O42 C50 1.315 . S
Cd43 O42 2.223 1_455 S
Cd43 O46 2.297 . S
Cd43 O47 2.439 . S
Cd43 O53 2.240 . S
Cd44 O45 2.240 . S
Cd44 O52 2.241 . S
Cd44 O54 2.297 . S
Cd44 O55 2.439 . S
O45 Cd44 2.240 . S
O45 C50 1.279 . S
O46 Cd43 2.297 . S
O46 C48 1.247 . S
O47 Cd43 2.439 . S
O47 C48 1.208 . S
C48 O46 1.247 . S
C48 O47 1.208 . S
C49 O54 1.247 . S
C49 O55 1.208 . S
C50 O42 1.315 . S
C50 O45 1.279 . S
C51 O52 1.286 1_455 S
C51 O53 1.279 . S
O52 Cd44 2.241 . S
O52 C51 1.286 1_655 S
O53 Cd43 2.240 . S
O53 C51 1.279 . S
O54 Cd44 2.297 . S
O54 C49 1.247 . S
O55 Cd44 2.439 . S
O55 C49 1.208 . S
O56 Cd57 2.223 1_545 S
O56 C64 1.315 . S
Cd57 O56 2.223 1_565 S
Cd57 O60 2.297 . S
Cd57 O61 2.439 . S
Cd57 O67 2.240 . S
Cd58 O59 2.240 . S
Cd58 O66 2.201 1_545 S
Cd58 O68 2.297 . S
Cd58 O69 2.439 1_545 S
O59 Cd58 2.240 . S
O59 C64 1.279 . S
O60 Cd57 2.297 . S
O60 C62 1.247 . S
O61 Cd57 2.439 . S
O61 C62 1.208 . S
C62 O60 1.247 . S
C62 O61 1.208 . S
C63 O68 1.234 1_565 S
C63 O69 1.210 . S
C64 O56 1.315 . S
C64 O59 1.279 . S
C65 O66 1.350 . S
C65 O67 1.279 . S
O66 Cd58 2.201 1_565 S
O66 C65 1.350 . S
O67 Cd57 2.240 . S
O67 C65 1.279 . S
O68 Cd58 2.297 . S
O68 C63 1.234 1_545 S
O69 Cd58 2.439 1_565 S
O69 C63 1.210 . S
O70 Cd71 2.223 . S
O70 C78 1.315 . S
Cd71 O70 2.223 . S
Cd71 O74 2.297 . S
Cd71 O75 2.439 . S
Cd71 O81 2.240 . S
Cd72 O73 2.240 . S
Cd72 O80 2.223 . S
Cd72 O82 2.297 . S
Cd72 O83 2.439 . S
O73 Cd72 2.240 . S
O73 C78 1.279 . S
O74 Cd71 2.297 . S
O74 C76 1.247 . S
O75 Cd71 2.439 . S
O75 C76 1.208 . S
C76 O74 1.247 . S
C76 O75 1.208 . S
C77 O82 1.247 . S
C77 O83 1.208 . S
C78 O70 1.315 . S
C78 O73 1.279 . S
C79 O80 1.315 . S
C79 O81 1.279 . S
O80 Cd72 2.223 . S
O80 C79 1.315 . S
O81 Cd71 2.240 . S
O81 C79 1.279 . S
O82 Cd72 2.297 . S
O82 C77 1.247 . S
O83 Cd72 2.439 . S
O83 C77 1.208 . S
O84 Cd85 2.223 1_565 S
O84 C92 1.315 . S
Cd85 O84 2.223 1_545 S
Cd85 O88 2.297 . S
Cd85 O89 2.439 . S
Cd85 O95 2.240 . S
Cd86 O87 2.240 . S
Cd86 O94 2.237 . S
Cd86 O96 2.297 . S
Cd86 O97 2.425 1_565 S
O87 Cd86 2.240 . S
O87 C92 1.279 . S
O88 Cd85 2.297 . S
O88 C90 1.247 . S
O89 Cd85 2.439 . S
O89 C90 1.208 . S
C90 O88 1.247 . S
C90 O89 1.208 . S
C91 O96 1.264 . S
C91 O97 1.206 1_565 S
C92 O84 1.315 . S
C92 O87 1.279 . S
C93 O94 1.293 1_545 S
C93 O95 1.279 . S
O94 Cd86 2.237 . S
O94 C93 1.293 1_565 S
O95 Cd85 2.240 . S
O95 C93 1.279 . S
O96 Cd86 2.297 . S
O96 C91 1.264 . S
O97 Cd86 2.425 1_545 S
O97 C91 1.206 1_545 S
O98 Cd99 2.223 . S
O98 C106 1.315 . S
Cd99 O98 2.223 . S
Cd99 O102 2.297 . S
Cd99 O103 2.439 . S
Cd99 O109 2.240 . S
Cd100 O101 2.240 . S
Cd100 O108 2.223 . S
Cd100 O110 2.297 . S
Cd100 O111 2.439 . S
O101 Cd100 2.240 . S
O101 C106 1.279 . S
O102 Cd99 2.297 . S
O102 C104 1.247 . S
O103 Cd99 2.439 . S
O103 C104 1.208 . S
C104 O102 1.247 . S
C104 O103 1.208 . S
C105 O110 1.247 . S
C105 O111 1.208 . S
C106 O98 1.315 . S
C106 O101 1.279 . S
C107 O108 1.315 . S
C107 O109 1.279 . S
O108 Cd100 2.223 . S
O108 C107 1.315 . S
O109 Cd99 2.240 . S
O109 C107 1.279 . S
O110 Cd100 2.297 . S
O110 C105 1.247 . S
O111 Cd100 2.439 . S
O111 C105 1.208 . S
O112 Cd113 2.223 1_554 S
O112 C120 1.315 . S
Cd113 O112 2.223 1_556 S
Cd113 O116 2.297 . S
Cd113 O117 2.439 . S
Cd113 O123 2.240 . S
Cd114 O115 2.240 . S
Cd114 O122 2.201 1_554 S
Cd114 O124 2.297 . S
Cd114 O125 2.439 1_554 S
O115 Cd114 2.240 . S
O115 C120 1.279 . S
O116 Cd113 2.297 . S
O116 C118 1.247 . S
O117 Cd113 2.439 . S
O117 C118 1.208 . S
C118 O116 1.247 . S
C118 O117 1.208 . S
C119 O124 1.234 1_556 S
C119 O125 1.210 . S
C120 O112 1.315 . S
C120 O115 1.279 . S
C121 O122 1.350 . S
C121 O123 1.279 . S
O122 Cd114 2.201 1_556 S
O122 C121 1.350 . S
O123 Cd113 2.240 . S
O123 C121 1.279 . S
O124 Cd114 2.297 . S
O124 C119 1.234 1_554 S
O125 Cd114 2.439 1_556 S
O125 C119 1.210 . S
O126 Cd127 2.223 . S
O126 C134 1.315 . S
Cd127 O126 2.223 . S
Cd127 O130 2.297 . S
Cd127 O131 2.439 . S
Cd127 O137 2.240 . S
Cd128 O129 2.240 . S
Cd128 O136 2.223 . S
Cd128 O138 2.297 . S
Cd128 O139 2.439 . S
O129 Cd128 2.240 . S
O129 C134 1.279 . S
O130 Cd127 2.297 . S
O130 C132 1.247 . S
O131 Cd127 2.439 . S
O131 C132 1.208 . S
C132 O130 1.247 . S
C132 O131 1.208 . S
C133 O138 1.247 . S
C133 O139 1.208 . S
C134 O126 1.315 . S
C134 O129 1.279 . S
C135 O136 1.315 . S
C135 O137 1.279 . S
O136 Cd128 2.223 . S
O136 C135 1.315 . S
O137 Cd127 2.240 . S
O137 C135 1.279 . S
O138 Cd128 2.297 . S
O138 C133 1.247 . S
O139 Cd128 2.439 . S
O139 C133 1.208 . S
O140 Cd141 2.223 . S
O140 C148 1.315 . S
Cd141 O140 2.223 . S
Cd141 O144 2.297 . S
Cd141 O145 2.439 . S
Cd141 O151 2.240 . S
Cd142 O143 2.240 . S
Cd142 O150 2.223 . S
Cd142 O152 2.297 . S
Cd142 O153 2.439 . S
O143 Cd142 2.240 . S
O143 C148 1.279 . S
O144 Cd141 2.297 . S
O144 C146 1.247 . S
O145 Cd141 2.439 . S
O145 C146 1.208 . S
C146 O144 1.247 . S
C146 O145 1.208 . S
C147 O152 1.247 . S
C147 O153 1.208 . S
C148 O140 1.315 . S
C148 O143 1.279 . S
C149 O150 1.315 . S
C149 O151 1.279 . S
O150 Cd142 2.223 . S
O150 C149 1.315 . S
O151 Cd141 2.240 . S
O151 C149 1.279 . S
O152 Cd142 2.297 . S
O152 C147 1.247 . S
O153 Cd142 2.439 . S
O153 C147 1.208 . S
O154 Cd155 2.223 . S
O154 C162 1.315 . S
Cd155 O154 2.223 . S
Cd155 O158 2.297 . S
Cd155 O159 2.439 . S
Cd155 O165 2.240 . S
Cd156 O157 2.240 . S
Cd156 O164 2.223 . S
Cd156 O166 2.297 . S
Cd156 O167 2.439 . S
O157 Cd156 2.240 . S
O157 C162 1.279 . S
O158 Cd155 2.297 . S
O158 C160 1.247 . S
O159 Cd155 2.439 . S
O159 C160 1.208 . S
C160 O158 1.247 . S
C160 O159 1.208 . S
C161 O166 1.247 . S
C161 O167 1.208 . S
C162 O154 1.315 . S
C162 O157 1.279 . S
C163 O164 1.315 . S
C163 O165 1.279 . S
O164 Cd156 2.223 . S
O164 C163 1.315 . S
O165 Cd155 2.240 . S
O165 C163 1.279 . S
O166 Cd156 2.297 . S
O166 C161 1.247 . S
O167 Cd156 2.439 . S
O167 C161 1.208 . S
O168 Cd169 2.223 . S
O168 C176 1.315 . S
Cd169 O168 2.223 . S
Cd169 O172 2.297 . S
Cd169 O173 2.439 . S
Cd169 O179 2.240 . S
Cd170 O171 2.240 . S
Cd170 O178 2.223 . S
Cd170 O180 2.297 . S
Cd170 O181 2.439 . S
O171 Cd170 2.240 . S
O171 C176 1.279 . S
O172 Cd169 2.297 . S
O172 C174 1.247 . S
O173 Cd169 2.439 . S
O173 C174 1.208 . S
C174 O172 1.247 . S
C174 O173 1.208 . S
C175 O180 1.247 . S
C175 O181 1.208 . S
C176 O168 1.315 . S
C176 O171 1.279 . S
C177 O178 1.315 . S
C177 O179 1.279 . S
O178 Cd170 2.223 . S
O178 C177 1.315 . S
O179 Cd169 2.240 . S
O179 C177 1.279 . S
O180 Cd170 2.297 . S
O180 C175 1.247 . S
O181 Cd170 2.439 . S
O181 C175 1.208 . S
O182 Cd183 2.223 . S
O182 C190 1.315 . S
Cd183 O182 2.223 . S
Cd183 O186 2.297 . S
Cd183 O187 2.439 . S
Cd183 O193 2.240 . S
Cd184 O185 2.240 . S
Cd184 O192 2.223 . S
Cd184 O194 2.297 . S
Cd184 O195 2.439 . S
O185 Cd184 2.240 . S
O185 C190 1.279 . S
O186 Cd183 2.297 . S
O186 C188 1.247 . S
O187 Cd183 2.439 . S
O187 C188 1.208 . S
C188 O186 1.247 . S
C188 O187 1.208 . S
C189 O194 1.247 . S
C189 O195 1.208 . S
C190 O182 1.315 . S
C190 O185 1.279 . S
C191 O192 1.315 . S
C191 O193 1.279 . S
O192 Cd184 2.223 . S
O192 C191 1.315 . S
O193 Cd183 2.240 . S
O193 C191 1.279 . S
O194 Cd184 2.297 . S
O194 C189 1.247 . S
O195 Cd184 2.439 . S
O195 C189 1.208 . S
O196 Cd197 2.223 . S
O196 C204 1.315 . S
Cd197 O196 2.223 . S
Cd197 O200 2.297 . S
Cd197 O201 2.439 . S
Cd197 O207 2.240 . S
Cd198 O199 2.240 . S
Cd198 O206 2.223 . S
Cd198 O208 2.297 . S
Cd198 O209 2.439 . S
O199 Cd198 2.240 . S
O199 C204 1.279 . S
O200 Cd197 2.297 . S
O200 C202 1.247 . S
O201 Cd197 2.439 . S
O201 C202 1.208 . S
C202 O200 1.247 . S
C202 O201 1.208 . S
C203 O208 1.247 . S
C203 O209 1.208 . S
C204 O196 1.315 . S
C204 O199 1.279 . S
C205 O206 1.315 . S
C205 O207 1.279 . S
O206 Cd198 2.223 . S
O206 C205 1.315 . S
O207 Cd197 2.240 . S
O207 C205 1.279 . S
O208 Cd198 2.297 . S
O208 C203 1.247 . S
O209 Cd198 2.439 . S
O209 C203 1.208 . S
O210 Cd211 2.223 . S
O210 C218 1.315 . S
Cd211 O210 2.223 . S
Cd211 O214 2.297 . S
Cd211 O215 2.439 . S
Cd211 O221 2.240 . S
Cd212 O213 2.240 . S
Cd212 O220 2.223 . S
Cd212 O222 2.297 . S
Cd212 O223 2.439 . S
O213 Cd212 2.240 . S
O213 C218 1.279 . S
O214 Cd211 2.297 . S
O214 C216 1.247 . S
O215 Cd211 2.439 . S
O215 C216 1.208 . S
C216 O214 1.247 . S
C216 O215 1.208 . S
C217 O222 1.247 . S
C217 O223 1.208 . S
C218 O210 1.315 . S
C218 O213 1.279 . S
C219 O220 1.315 . S
C219 O221 1.279 . S
O220 Cd212 2.223 . S
O220 C219 1.315 . S
O221 Cd211 2.240 . S
O221 C219 1.279 . S
O222 Cd212 2.297 . S
O222 C217 1.247 . S
O223 Cd212 2.439 . S
O223 C217 1.208 . S
O224 Cd225 2.223 . S
O224 C232 1.315 . S
Cd225 O224 2.223 . S
Cd225 O228 2.297 . S
Cd225 O229 2.439 . S
Cd225 O235 2.240 . S
Cd226 O227 2.240 . S
Cd226 O234 2.223 . S
Cd226 O236 2.297 . S
Cd226 O237 2.439 . S
O227 Cd226 2.240 . S
O227 C232 1.279 . S
O228 Cd225 2.297 . S
O228 C230 1.247 . S
O229 Cd225 2.439 . S
O229 C230 1.208 . S
C230 O228 1.247 . S
C230 O229 1.208 . S
C231 O236 1.247 . S
C231 O237 1.208 . S
C232 O224 1.315 . S
C232 O227 1.279 . S
C233 O234 1.315 . S
C233 O235 1.279 . S
O234 Cd226 2.223 . S
O234 C233 1.315 . S
O235 Cd225 2.240 . S
O235 C233 1.279 . S
O236 Cd226 2.297 . S
O236 C231 1.247 . S
O237 Cd226 2.439 . S
O237 C231 1.208 . S
O238 Cd239 2.223 1_565 S
O238 C246 1.315 . S
Cd239 O238 2.223 1_545 S
Cd239 O242 2.297 . S
Cd239 O243 2.439 . S
Cd239 O249 2.240 . S
Cd240 O241 2.240 . S
Cd240 O248 2.241 . S
Cd240 O250 2.297 . S
Cd240 O251 2.439 . S
O241 Cd240 2.240 . S
O241 C246 1.279 . S
O242 Cd239 2.297 . S
O242 C244 1.247 . S
O243 Cd239 2.439 . S
O243 C244 1.208 . S
C244 O242 1.247 . S
C244 O243 1.208 . S
C245 O250 1.247 . S
C245 O251 1.208 . S
C246 O238 1.315 . S
C246 O241 1.279 . S
C247 O248 1.286 1_545 S
C247 O249 1.279 . S
O248 Cd240 2.241 . S
O248 C247 1.286 1_565 S
O249 Cd239 2.240 . S
O249 C247 1.279 . S
O250 Cd240 2.297 . S
O250 C245 1.247 . S
O251 Cd240 2.439 . S
O251 C245 1.208 . S
O252 Cd253 2.223 . S
O252 C260 1.315 . S
Cd253 O252 2.223 . S
Cd253 O256 2.297 . S
Cd253 O257 2.439 . S
Cd253 O263 2.240 . S
Cd254 O255 2.240 . S
Cd254 O262 2.223 . S
Cd254 O264 2.297 . S
Cd254 O265 2.439 . S
O255 Cd254 2.240 . S
O255 C260 1.279 . S
O256 Cd253 2.297 . S
O256 C258 1.247 . S
O257 Cd253 2.439 . S
O257 C258 1.208 . S
C258 O256 1.247 . S
C258 O257 1.208 . S
C259 O264 1.247 . S
C259 O265 1.208 . S
C260 O252 1.315 . S
C260 O255 1.279 . S
C261 O262 1.315 . S
C261 O263 1.279 . S
O262 Cd254 2.223 . S
O262 C261 1.315 . S
O263 Cd253 2.240 . S
O263 C261 1.279 . S
O264 Cd254 2.297 . S
O264 C259 1.247 . S
O265 Cd254 2.439 . S
O265 C259 1.208 . S
O266 Cd267 2.223 1_545 S
O266 C274 1.315 . S
Cd267 O266 2.223 1_565 S
Cd267 O270 2.297 . S
Cd267 O271 2.439 . S
Cd267 O277 2.240 . S
Cd268 O269 2.240 . S
Cd268 O276 2.210 1_545 S
Cd268 O278 2.297 . S
Cd268 O279 2.443 . S
O269 Cd268 2.240 . S
O269 C274 1.279 . S
O270 Cd267 2.297 . S
O270 C272 1.247 . S
O271 Cd267 2.439 . S
O271 C272 1.208 . S
C272 O270 1.247 . S
C272 O271 1.208 . S
C273 O278 1.247 . S
C273 O279 1.209 . S
C274 O266 1.315 . S
C274 O269 1.279 . S
C275 O276 1.336 . S
C275 O277 1.279 . S
O276 Cd268 2.210 1_565 S
O276 C275 1.336 . S
O277 Cd267 2.240 . S
O277 C275 1.279 . S
O278 Cd268 2.297 . S
O278 C273 1.247 . S
O279 Cd268 2.443 . S
O279 C273 1.209 . S
O280 Cd281 2.223 . S
O280 C288 1.315 . S
Cd281 O280 2.223 . S
Cd281 O284 2.297 . S
Cd281 O285 2.439 . S
Cd281 O291 2.240 . S
Cd282 O283 2.240 . S
Cd282 O290 2.223 . S
Cd282 O292 2.297 . S
Cd282 O293 2.439 . S
O283 Cd282 2.240 . S
O283 C288 1.279 . S
O284 Cd281 2.297 . S
O284 C286 1.247 . S
O285 Cd281 2.439 . S
O285 C286 1.208 . S
C286 O284 1.247 . S
C286 O285 1.208 . S
C287 O292 1.247 . S
C287 O293 1.208 . S
C288 O280 1.315 . S
C288 O283 1.279 . S
C289 O290 1.315 . S
C289 O291 1.279 . S
O290 Cd282 2.223 . S
O290 C289 1.315 . S
O291 Cd281 2.240 . S
O291 C289 1.279 . S
O292 Cd282 2.297 . S
O292 C287 1.247 . S
O293 Cd282 2.439 . S
O293 C287 1.208 . S
O294 Cd295 2.223 1_556 S
O294 C302 1.315 . S
Cd295 O294 2.223 1_554 S
Cd295 O298 2.297 . S
Cd295 O299 2.439 . S
Cd295 O305 2.240 . S
Cd296 O297 2.240 . S
Cd296 O304 2.241 . S
Cd296 O306 2.297 . S
Cd296 O307 2.439 . S
O297 Cd296 2.240 . S
O297 C302 1.279 . S
O298 Cd295 2.297 . S
O298 C300 1.247 . S
O299 Cd295 2.439 . S
O299 C300 1.208 . S
C300 O298 1.247 . S
C300 O299 1.208 . S
C301 O306 1.247 . S
C301 O307 1.208 . S
C302 O294 1.315 . S
C302 O297 1.279 . S
C303 O304 1.286 1_554 S
C303 O305 1.279 . S
O304 Cd296 2.241 . S
O304 C303 1.286 1_556 S
O305 Cd295 2.240 . S
O305 C303 1.279 . S
O306 Cd296 2.297 . S
O306 C301 1.247 . S
O307 Cd296 2.439 . S
O307 C301 1.208 . S
O308 Cd309 2.223 1_556 S
O308 C316 1.315 . S
Cd309 O308 2.223 1_554 S
Cd309 O312 2.297 . S
Cd309 O313 2.439 . S
Cd309 O319 2.240 . S
Cd310 O311 2.240 . S
Cd310 O318 2.237 . S
Cd310 O320 2.297 . S
Cd310 O321 2.425 1_556 S
O311 Cd310 2.240 . S
O311 C316 1.279 . S
O312 Cd309 2.297 . S
O312 C314 1.247 . S
O313 Cd309 2.439 . S
O313 C314 1.208 . S
C314 O312 1.247 . S
C314 O313 1.208 . S
C315 O320 1.264 . S
C315 O321 1.206 1_556 S
C316 O308 1.315 . S
C316 O311 1.279 . S
C317 O318 1.293 1_554 S
C317 O319 1.279 . S
O318 Cd310 2.237 . S
O318 C317 1.293 1_556 S
O319 Cd309 2.240 . S
O319 C317 1.279 . S
O320 Cd310 2.297 . S
O320 C315 1.264 . S
O321 Cd310 2.425 1_554 S
O321 C315 1.206 1_554 S
O322 Cd323 2.223 1_554 S
O322 C330 1.315 . S
Cd323 O322 2.223 1_556 S
Cd323 O326 2.297 . S
Cd323 O327 2.439 . S
Cd323 O333 2.240 . S
Cd324 O325 2.240 . S
Cd324 O332 2.210 1_554 S
Cd324 O334 2.297 . S
Cd324 O335 2.443 . S
O325 Cd324 2.240 . S
O325 C330 1.279 . S
O326 Cd323 2.297 . S
O326 C328 1.247 . S
O327 Cd323 2.439 . S
O327 C328 1.208 . S
C328 O326 1.247 . S
C328 O327 1.208 . S
C329 O334 1.247 . S
C329 O335 1.209 . S
C330 O322 1.315 . S
C330 O325 1.279 . S
C331 O332 1.336 . S
C331 O333 1.279 . S
O332 Cd324 2.210 1_556 S
O332 C331 1.336 . S
O333 Cd323 2.240 . S
O333 C331 1.279 . S
O334 Cd324 2.297 . S
O334 C329 1.247 . S
O335 Cd324 2.443 . S
O335 C329 1.209 . S
H336 C342 0.930 . S
H337 C346 0.930 . S
H338 C351 0.929 . S
H339 C349 0.929 . S
H340 C344 0.929 . S
H341 C350 0.929 . S
C342 H336 0.930 . S
C342 C343 1.367 . S
C342 C350 1.378 . S
C343 C342 1.367 . S
C343 C351 1.433 . S
C344 H340 0.929 . S
C344 C346 1.378 . S
C344 C348 1.350 . S
C345 C348 1.463 . S
C345 C350 1.350 . S
C345 N353 1.427 . S
C346 H337 0.930 . S
C346 C344 1.378 . S
C346 C347 1.367 . S
C347 C346 1.367 . S
C347 C349 1.433 . S
C348 C344 1.350 . S
C348 C345 1.463 . S
C348 N352 1.427 . S
C349 H339 0.929 . S
C349 C347 1.433 . S
C349 N352 1.384 . S
C350 H341 0.929 . S
C350 C342 1.378 . S
C350 C345 1.350 . S
C351 H338 0.929 . S
C351 C343 1.433 . S
C351 N353 1.384 . S
N352 C348 1.427 . S
N352 C349 1.384 . S
N353 C345 1.427 . S
N353 C351 1.384 . S
H354 C360 0.930 . S
H355 C364 0.930 . S
H356 C369 0.929 . S
H357 C367 0.929 . S
H358 C362 0.929 . S
H359 C368 0.929 . S
C360 H354 0.930 . S
C360 C361 1.367 . S
C360 C368 1.378 . S
C361 C360 1.367 . S
C361 C369 1.433 . S
C362 H358 0.929 . S
C362 C364 1.378 . S
C362 C366 1.350 . S
C363 C366 1.463 . S
C363 C368 1.350 . S
C363 N371 1.427 . S
C364 H355 0.930 . S
C364 C362 1.378 . S
C364 C365 1.367 . S
C365 C364 1.367 . S
C365 C367 1.433 . S
C366 C362 1.350 . S
C366 C363 1.463 . S
C366 N370 1.427 . S
C367 H357 0.929 . S
C367 C365 1.433 . S
C367 N370 1.384 . S
C368 H359 0.929 . S
C368 C360 1.378 . S
C368 C363 1.350 . S
C369 H356 0.929 . S
C369 C361 1.433 . S
C369 N371 1.384 . S
N370 C366 1.427 . S
N370 C367 1.384 . S
N371 C363 1.427 . S
N371 C369 1.384 . S
H372 C378 0.930 . S
H373 C382 0.930 . S
H374 C387 0.929 . S
H375 C385 0.929 . S
H376 C380 0.929 . S
H377 C386 0.929 . S
C378 H372 0.930 . S
C378 C379 1.367 . S
C378 C386 1.378 . S
C379 C378 1.367 . S
C379 C387 1.433 . S
C380 H376 0.929 . S
C380 C382 1.378 1_554 S
C380 C384 1.350 . S
C381 C384 1.463 . S
C381 C386 1.350 . S
C381 N389 1.427 . S
C382 H373 0.930 . S
C382 C380 1.378 1_556 S
C382 C383 1.367 . S
C383 C382 1.367 . S
C383 C385 1.433 . S
C384 C380 1.350 . S
C384 C381 1.463 . S
C384 N388 1.427 1_554 S
C385 H375 0.929 . S
C385 C383 1.433 . S
C385 N388 1.384 . S
C386 H377 0.929 . S
C386 C378 1.378 . S
C386 C381 1.350 . S
C387 H374 0.929 . S
C387 C379 1.433 . S
C387 N389 1.384 . S
N388 C384 1.427 1_556 S
N388 C385 1.384 . S
N389 C381 1.427 . S
N389 C387 1.384 . S
H390 C396 0.930 . S
H391 C400 0.930 . S
H392 C405 0.929 . S
H393 C403 0.929 . S
H394 C398 0.929 . S
H395 C404 0.929 . S
C396 H390 0.930 . S
C396 C397 1.367 . S
C396 C404 1.378 . S
C397 C396 1.367 . S
C397 C405 1.433 . S
C398 H394 0.929 . S
C398 C400 1.378 1_554 S
C398 C402 1.350 . S
C399 C402 1.463 . S
C399 C404 1.350 . S
C399 N407 1.427 . S
C400 H391 0.930 . S
C400 C398 1.378 1_556 S
C400 C401 1.367 . S
C401 C400 1.367 . S
C401 C403 1.433 . S
C402 C398 1.350 . S
C402 C399 1.463 . S
C402 N406 1.427 1_554 S
C403 H393 0.929 . S
C403 C401 1.433 . S
C403 N406 1.384 . S
C404 H395 0.929 . S
C404 C396 1.378 . S
C404 C399 1.350 . S
C405 H392 0.929 . S
C405 C397 1.433 . S
C405 N407 1.384 . S
N406 C402 1.427 1_556 S
N406 C403 1.384 . S
N407 C399 1.427 . S
N407 C405 1.384 . S
H408 C414 0.930 . S
H409 C418 0.930 . S
H410 C423 0.929 . S
H411 C421 0.929 . S
H412 C416 0.929 . S
H413 C422 0.929 . S
C414 H408 0.930 . S
C414 C415 1.367 . S
C414 C422 1.378 . S
C415 C414 1.367 . S
C415 C423 1.433 . S
C416 H412 0.929 . S
C416 C418 1.378 . S
C416 C420 1.350 . S
C417 C420 1.463 . S
C417 C422 1.350 . S
C417 N425 1.427 . S
C418 H409 0.930 . S
C418 C416 1.378 . S
C418 C419 1.367 . S
C419 C418 1.367 . S
C419 C421 1.433 . S
C420 C416 1.350 . S
C420 C417 1.463 . S
C420 N424 1.427 . S
C421 H411 0.929 . S
C421 C419 1.433 . S
C421 N424 1.384 . S
C422 H413 0.929 . S
C422 C414 1.378 . S
C422 C417 1.350 . S
C423 H410 0.929 . S
C423 C415 1.433 . S
C423 N425 1.384 . S
N424 C420 1.427 . S
N424 C421 1.384 . S
N425 C417 1.427 . S
N425 C423 1.384 . S
H426 C432 0.930 . S
H427 C436 0.930 1_556 S
H428 C441 0.929 . S
H429 C439 0.929 . S
H430 C434 0.929 . S
H431 C440 0.929 . S
C432 H426 0.930 . S
C432 C433 1.367 . S
C432 C440 1.378 . S
C433 C432 1.367 . S
C433 C441 1.433 . S
C434 H430 0.929 . S
C434 C436 1.378 . S
C434 C438 1.350 . S
C435 C438 1.463 . S
C435 C440 1.350 . S
C435 N443 1.427 . S
C436 H427 0.930 1_554 S
C436 C434 1.378 . S
C436 C437 1.367 . S
C437 C436 1.367 . S
C437 C439 1.433 . S
C438 C434 1.350 . S
C438 C435 1.463 . S
C438 N442 1.427 . S
C439 H429 0.929 . S
C439 C437 1.433 . S
C439 N442 1.384 . S
C440 H431 0.929 . S
C440 C432 1.378 . S
C440 C435 1.350 . S
C441 H428 0.929 . S
C441 C433 1.433 . S
C441 N443 1.384 . S
N442 C438 1.427 . S
N442 C439 1.384 . S
N443 C435 1.427 . S
N443 C441 1.384 . S
H444 C450 0.930 . S
H445 C454 0.930 . S
H446 C459 0.929 . S
H447 C457 0.929 . S
H448 C452 0.929 . S
H449 C458 0.929 . S
C450 H444 0.930 . S
C450 C451 1.367 . S
C450 C458 1.378 . S
C451 C450 1.367 . S
C451 C459 1.433 . S
C452 H448 0.929 . S
C452 C454 1.378 . S
C452 C456 1.350 . S
C453 C456 1.463 . S
C453 C458 1.350 . S
C453 N461 1.427 . S
C454 H445 0.930 . S
C454 C452 1.378 . S
C454 C455 1.367 . S
C455 C454 1.367 . S
C455 C457 1.433 . S
C456 C452 1.350 . S
C456 C453 1.463 . S
C456 N460 1.427 . S
C457 H447 0.929 . S
C457 C455 1.433 . S
C457 N460 1.384 . S
C458 H449 0.929 . S
C458 C450 1.378 . S
C458 C453 1.350 . S
C459 H446 0.929 . S
C459 C451 1.433 . S
C459 N461 1.384 . S
N460 C456 1.427 . S
N460 C457 1.384 . S
N461 C453 1.427 . S
N461 C459 1.384 . S
H462 C468 0.930 . S
H463 C472 0.930 . S
H464 C477 0.929 . S
H465 C475 0.929 . S
H466 C470 0.929 . S
H467 C476 0.929 . S
C468 H462 0.930 . S
C468 C469 1.367 . S
C468 C476 1.378 . S
C469 C468 1.367 . S
C469 C477 1.433 . S
C470 H466 0.929 . S
C470 C472 1.378 . S
C470 C474 1.350 . S
C471 C474 1.463 . S
C471 C476 1.350 . S
C471 N479 1.427 . S
C472 H463 0.930 . S
C472 C470 1.378 . S
C472 C473 1.367 . S
C473 C472 1.367 . S
C473 C475 1.433 . S
C474 C470 1.350 . S
C474 C471 1.463 . S
C474 N478 1.427 . S
C475 H465 0.929 . S
C475 C473 1.433 . S
C475 N478 1.384 . S
C476 H467 0.929 . S
C476 C468 1.378 . S
C476 C471 1.350 . S
C477 H464 0.929 . S
C477 C469 1.433 . S
C477 N479 1.384 . S
N478 C474 1.427 . S
N478 C475 1.384 . S
N479 C471 1.427 . S
N479 C477 1.384 . S
H480 C486 0.930 . S
H481 C490 0.947 . S
H482 C495 0.929 . S
H483 C493 0.929 . S
H484 C488 0.929 . S
H485 C494 0.929 . S
C486 H480 0.930 . S
C486 C487 1.367 . S
C486 C494 1.378 . S
C487 C486 1.367 . S
C487 C495 1.433 . S
C488 H484 0.929 . S
C488 C490 1.378 . S
C488 C492 1.350 . S
C489 C492 1.463 . S
C489 C494 1.350 . S
C489 N497 1.427 . S
C490 H481 0.947 . S
C490 C488 1.378 . S
C490 C491 1.367 . S
C491 C490 1.367 . S
C491 C493 1.433 . S
C492 C488 1.350 . S
C492 C489 1.463 . S
C492 N496 1.427 . S
C493 H483 0.929 . S
C493 C491 1.433 . S
C493 N496 1.384 . S
C494 H485 0.929 . S
C494 C486 1.378 . S
C494 C489 1.350 . S
C495 H482 0.929 . S
C495 C487 1.433 . S
C495 N497 1.384 . S
N496 C492 1.427 . S
N496 C493 1.384 . S
N497 C489 1.427 . S
N497 C495 1.384 . S
H498 C504 0.930 1_655 S
H499 C508 0.930 . S
H500 C513 0.929 . S
H501 C511 0.929 . S
H502 C506 0.929 . S
H503 C512 0.929 . S
C504 H498 0.930 1_455 S
C504 C505 1.367 . S
C504 C512 1.378 . S
C505 C504 1.367 . S
C505 C513 1.433 . S
C506 H502 0.929 . S
C506 C508 1.378 . S
C506 C510 1.350 . S
C507 C510 1.463 . S
C507 C512 1.350 . S
C507 N515 1.427 . S
C508 H499 0.930 . S
C508 C506 1.378 . S
C508 C509 1.367 . S
C509 C508 1.367 . S
C509 C511 1.433 . S
C510 C506 1.350 . S
C510 C507 1.463 . S
C510 N514 1.427 . S
C511 H501 0.929 . S
C511 C509 1.433 . S
C511 N514 1.384 . S
C512 H503 0.929 . S
C512 C504 1.378 . S
C512 C507 1.350 . S
C513 H500 0.929 . S
C513 C505 1.433 . S
C513 N515 1.384 . S
N514 C510 1.427 . S
N514 C511 1.384 . S
N515 C507 1.427 . S
N515 C513 1.384 . S
H516 C522 0.930 . S
H517 C526 0.930 . S
H518 C531 0.929 . S
H519 C529 0.929 . S
H520 C524 0.929 . S
H521 C530 0.929 . S
C522 H516 0.930 . S
C522 C523 1.367 . S
C522 C530 1.378 . S
C523 C522 1.367 . S
C523 C531 1.433 . S
C524 H520 0.929 . S
C524 C526 1.378 . S
C524 C528 1.350 1_545 S
C525 C528 1.463 . S
C525 C530 1.350 . S
C525 N533 1.427 . S
C526 H517 0.930 . S
C526 C524 1.378 . S
C526 C527 1.367 . S
C527 C526 1.367 . S
C527 C529 1.433 . S
C528 C524 1.350 1_565 S
C528 C525 1.463 . S
C528 N532 1.427 . S
C529 H519 0.929 . S
C529 C527 1.433 . S
C529 N532 1.384 1_545 S
C530 H521 0.929 . S
C530 C522 1.378 . S
C530 C525 1.350 . S
C531 H518 0.929 . S
C531 C523 1.433 . S
C531 N533 1.384 . S
N532 C528 1.427 . S
N532 C529 1.384 1_565 S
N533 C525 1.427 . S
N533 C531 1.384 . S
H534 C540 0.930 . S
H535 C544 0.930 . S
H536 C549 0.929 . S
H537 C547 0.929 . S
H538 C542 0.929 . S
H539 C548 0.929 . S
C540 H534 0.930 . S
C540 C541 1.367 . S
C540 C548 1.378 . S
C541 C540 1.367 . S
C541 C549 1.433 . S
C542 H538 0.929 . S
C542 C544 1.378 . S
C542 C546 1.350 . S
C543 C546 1.463 . S
C543 C548 1.350 . S
C543 N551 1.427 . S
C544 H535 0.930 . S
C544 C542 1.378 . S
C544 C545 1.367 . S
C545 C544 1.367 . S
C545 C547 1.433 . S
C546 C542 1.350 . S
C546 C543 1.463 . S
C546 N550 1.427 . S
C547 H537 0.929 . S
C547 C545 1.433 . S
C547 N550 1.384 . S
C548 H539 0.929 . S
C548 C540 1.378 . S
C548 C543 1.350 . S
C549 H536 0.929 . S
C549 C541 1.433 . S
C549 N551 1.384 . S
N550 C546 1.427 . S
N550 C547 1.384 . S
N551 C543 1.427 . S
N551 C549 1.384 . S
H552 C558 0.930 . S
H553 C562 0.930 . S
H554 C567 0.929 . S
H555 C565 0.929 . S
H556 C560 0.929 . S
H557 C566 0.929 . S
C558 H552 0.930 . S
C558 C559 1.367 . S
C558 C566 1.378 . S
C559 C558 1.367 . S
C559 C567 1.433 . S
C560 H556 0.929 . S
C560 C562 1.378 . S
C560 C564 1.350 . S
C561 C564 1.463 . S
C561 C566 1.350 1_556 S
C561 N569 1.427 . S
C562 H553 0.930 . S
C562 C560 1.378 . S
C562 C563 1.367 . S
C563 C562 1.367 . S
C563 C565 1.433 . S
C564 C560 1.350 . S
C564 C561 1.463 . S
C564 N568 1.427 . S
C565 H555 0.929 . S
C565 C563 1.433 . S
C565 N568 1.384 . S
C566 H557 0.929 . S
C566 C558 1.378 . S
C566 C561 1.350 1_554 S
C567 H554 0.929 . S
C567 C559 1.433 . S
C567 N569 1.384 1_554 S
N568 C564 1.427 . S
N568 C565 1.384 . S
N569 C561 1.427 . S
N569 C567 1.384 1_556 S
H570 C576 0.930 . S
H571 C580 0.930 . S
H572 C585 0.929 . S
H573 C583 0.929 . S
H574 C578 0.929 . S
H575 C584 0.929 . S
C576 H570 0.930 . S
C576 C577 1.367 . S
C576 C584 1.378 1_554 S
C577 C576 1.367 . S
C577 C585 1.433 . S
C578 H574 0.929 . S
C578 C580 1.378 . S
C578 C582 1.350 . S
C579 C582 1.463 . S
C579 C584 1.350 . S
C579 N587 1.427 . S
C580 H571 0.930 . S
C580 C578 1.378 . S
C580 C581 1.367 . S
C581 C580 1.367 . S
C581 C583 1.433 . S
C582 C578 1.350 . S
C582 C579 1.463 . S
C582 N586 1.427 . S
C583 H573 0.929 . S
C583 C581 1.433 . S
C583 N586 1.384 . S
C584 H575 0.929 . S
C584 C576 1.378 1_556 S
C584 C579 1.350 . S
C585 H572 0.929 . S
C585 C577 1.433 . S
C585 N587 1.384 1_554 S
N586 C582 1.427 . S
N586 C583 1.384 . S
N587 C579 1.427 . S
N587 C585 1.384 1_556 S
H588 C594 0.930 . S
H589 C598 0.930 . S
H590 C603 0.929 . S
H591 C601 0.929 . S
H592 C596 0.929 . S
H593 C602 0.929 . S
C594 H588 0.930 . S
C594 C595 1.367 . S
C594 C602 1.378 . S
C595 C594 1.367 . S
C595 C603 1.433 . S
C596 H592 0.929 . S
C596 C598 1.378 . S
C596 C600 1.350 . S
C597 C600 1.463 . S
C597 C602 1.350 . S
C597 N605 1.427 . S
C598 H589 0.930 . S
C598 C596 1.378 . S
C598 C599 1.367 . S
C599 C598 1.367 . S
C599 C601 1.433 . S
C600 C596 1.350 . S
C600 C597 1.463 . S
C600 N604 1.427 . S
C601 H591 0.929 . S
C601 C599 1.433 . S
C601 N604 1.384 . S
C602 H593 0.929 . S
C602 C594 1.378 . S
C602 C597 1.350 . S
C603 H590 0.929 . S
C603 C595 1.433 . S
C603 N605 1.384 . S
N604 C600 1.427 . S
N604 C601 1.384 . S
N605 C597 1.427 . S
N605 C603 1.384 . S
H606 C612 0.930 . S
H607 C616 0.930 . S
H608 C621 0.929 . S
H609 C619 0.929 1_565 S
H610 C614 0.929 . S
H611 C620 0.929 . S
C612 H606 0.930 . S
C612 C613 1.367 . S
C612 C620 1.378 . S
C613 C612 1.367 . S
C613 C621 1.433 . S
C614 H610 0.929 . S
C614 C616 1.378 . S
C614 C618 1.350 . S
C615 C618 1.463 . S
C615 C620 1.350 . S
C615 N623 1.427 . S
C616 H607 0.930 . S
C616 C614 1.378 . S
C616 C617 1.367 . S
C617 C616 1.367 . S
C617 C619 1.433 . S
C618 C614 1.350 . S
C618 C615 1.463 . S
C618 N622 1.427 . S
C619 H609 0.929 1_545 S
C619 C617 1.433 . S
C619 N622 1.384 . S
C620 H611 0.929 . S
C620 C612 1.378 . S
C620 C615 1.350 . S
C621 H608 0.929 . S
C621 C613 1.433 . S
C621 N623 1.384 . S
N622 C618 1.427 . S
N622 C619 1.384 . S
N623 C615 1.427 . S
N623 C621 1.384 . S
H624 C630 0.930 . S
H625 C634 0.930 . S
H626 C639 0.929 . S
H627 C637 0.929 . S
H628 C632 0.929 . S
H629 C638 0.929 . S
C630 H624 0.930 . S
C630 C631 1.367 . S
C630 C638 1.378 1_455 S
C631 C630 1.367 . S
C631 C639 1.433 . S
C632 H628 0.929 . S
C632 C634 1.378 . S
C632 C636 1.350 . S
C633 C636 1.463 . S
C633 C638 1.350 . S
C633 N641 1.427 1_655 S
C634 H625 0.930 . S
C634 C632 1.378 . S
C634 C635 1.367 . S
C635 C634 1.367 . S
C635 C637 1.433 . S
C636 C632 1.350 . S
C636 C633 1.463 . S
C636 N640 1.427 . S
C637 H627 0.929 . S
C637 C635 1.433 . S
C637 N640 1.384 . S
C638 H629 0.929 . S
C638 C630 1.378 1_655 S
C638 C633 1.350 . S
C639 H626 0.929 . S
C639 C631 1.433 . S
C639 N641 1.384 . S
N640 C636 1.427 . S
N640 C637 1.384 . S
N641 C633 1.427 1_455 S
N641 C639 1.384 . S
H642 C648 0.930 . S
H643 C652 0.930 . S
H644 C657 0.929 . S
H645 C655 0.929 . S
H646 C650 0.929 . S
H647 C656 0.944 . S
C648 H642 0.930 . S
C648 C649 1.367 . S
C648 C656 1.356 1_655 S
C649 C648 1.367 . S
C649 C657 1.433 . S
C650 H646 0.929 . S
C650 C652 1.378 . S
C650 C654 1.350 . S
C651 C654 1.463 . S
C651 C656 1.356 . S
C651 N659 1.427 1_455 S
C652 H643 0.930 . S
C652 C650 1.378 . S
C652 C653 1.367 . S
C653 C652 1.367 . S
C653 C655 1.433 . S
C654 C650 1.350 . S
C654 C651 1.463 . S
C654 N658 1.427 . S
C655 H645 0.929 . S
C655 C653 1.433 . S
C655 N658 1.384 . S
C656 H647 0.944 . S
C656 C648 1.356 1_455 S
C656 C651 1.356 . S
C657 H644 0.929 . S
C657 C649 1.433 . S
C657 N659 1.384 . S
N658 C654 1.427 . S
N658 C655 1.384 . S
N659 C651 1.427 1_655 S
N659 C657 1.384 . S
H660 C666 0.930 . S
H661 C670 0.930 . S
H662 C675 0.929 . S
H663 C673 0.929 . S
H664 C668 0.929 . S
H665 C674 0.929 . S
C666 H660 0.930 . S
C666 C667 1.367 . S
C666 C674 1.378 . S
C667 C666 1.367 . S
C667 C675 1.433 . S
C668 H664 0.929 . S
C668 C670 1.378 . S
C668 C672 1.350 . S
C669 C672 1.463 . S
C669 C674 1.350 1_655 S
C669 N677 1.427 . S
C670 H661 0.930 . S
C670 C668 1.378 . S
C670 C671 1.367 . S
C671 C670 1.367 . S
C671 C673 1.433 . S
C672 C668 1.350 . S
C672 C669 1.463 . S
C672 N676 1.427 . S
C673 H663 0.929 . S
C673 C671 1.433 . S
C673 N676 1.384 . S
C674 H665 0.929 . S
C674 C666 1.378 . S
C674 C669 1.350 1_455 S
C675 H662 0.929 . S
C675 C667 1.433 . S
C675 N677 1.384 1_455 S
N676 C672 1.427 . S
N676 C673 1.384 . S
N677 C669 1.427 . S
N677 C675 1.384 1_655 S
H678 C684 0.930 . S
H679 C688 0.930 . S
H680 C693 0.929 . S
H681 C691 0.929 . S
H682 C686 0.929 . S
H683 C692 0.929 . S
C684 H678 0.930 . S
C684 C685 1.367 . S
C684 C692 1.378 . S
C685 C684 1.367 . S
C685 C693 1.433 . S
C686 H682 0.929 . S
C686 C688 1.378 1_455 S
C686 C690 1.350 . S
C687 C690 1.463 . S
C687 C692 1.350 . S
C687 N695 1.427 . S
C688 H679 0.930 . S
C688 C686 1.378 1_655 S
C688 C689 1.367 . S
C689 C688 1.367 . S
C689 C691 1.433 . S
C690 C686 1.350 . S
C690 C687 1.463 . S
C690 N694 1.427 1_455 S
C691 H681 0.929 . S
C691 C689 1.433 . S
C691 N694 1.384 . S
C692 H683 0.929 . S
C692 C684 1.378 . S
C692 C687 1.350 . S
C693 H680 0.929 . S
C693 C685 1.433 . S
C693 N695 1.384 . S
N694 C690 1.427 1_655 S
N694 C691 1.384 . S
N695 C687 1.427 . S
N695 C693 1.384 . S
H696 C702 0.930 . S
H697 C706 0.930 . S
H698 C711 0.929 . S
H699 C709 0.929 . S
H700 C704 0.929 . S
H701 C710 0.929 . S
C702 H696 0.930 . S
C702 C703 1.367 . S
C702 C710 1.378 . S
C703 C702 1.367 . S
C703 C711 1.433 . S
C704 H700 0.929 . S
C704 C706 1.378 . S
C704 C708 1.350 . S
C705 C708 1.463 . S
C705 C710 1.350 1_565 S
C705 N713 1.427 . S
C706 H697 0.930 . S
C706 C704 1.378 . S
C706 C707 1.367 . S
C707 C706 1.367 . S
C707 C709 1.433 . S
C708 C704 1.350 . S
C708 C705 1.463 . S
C708 N712 1.427 . S
C709 H699 0.929 . S
C709 C707 1.433 . S
C709 N712 1.384 . S
C710 H701 0.929 . S
C710 C702 1.378 . S
C710 C705 1.350 1_545 S
C711 H698 0.929 . S
C711 C703 1.433 . S
C711 N713 1.384 1_545 S
N712 C708 1.427 . S
N712 C709 1.384 . S
N713 C705 1.427 . S
N713 C711 1.384 1_565 S
H714 C720 0.930 . S
H715 C724 0.930 . S
H716 C729 0.929 . S
H717 C727 0.929 . S
H718 C722 0.929 1_545 S
H719 C728 0.929 . S
C720 H714 0.930 . S
C720 C721 1.367 . S
C720 C728 1.378 . S
C721 C720 1.367 . S
C721 C729 1.433 . S
C722 H718 0.929 1_565 S
C722 C724 1.378 . S
C722 C726 1.350 1_565 S
C723 C726 1.463 . S
C723 C728 1.350 . S
C723 N731 1.427 . S
C724 H715 0.930 . S
C724 C722 1.378 . S
C724 C725 1.367 . S
C725 C724 1.367 . S
C725 C727 1.433 . S
C726 C722 1.350 1_545 S
C726 C723 1.463 . S
C726 N730 1.427 1_545 S
C727 H717 0.929 . S
C727 C725 1.433 . S
C727 N730 1.384 . S
C728 H719 0.929 . S
C728 C720 1.378 . S
C728 C723 1.350 . S
C729 H716 0.929 . S
C729 C721 1.433 . S
C729 N731 1.384 . S
N730 C726 1.427 1_565 S
N730 C727 1.384 . S
N731 C723 1.427 . S
N731 C729 1.384 . S
H732 C738 0.930 . S
H733 C742 0.930 . S
H734 C747 0.929 . S
H735 C745 0.929 . S
H736 C740 0.929 . S
H737 C746 0.929 . S
C738 H732 0.930 . S
C738 C739 1.367 . S
C738 C746 1.378 . S
C739 C738 1.367 . S
C739 C747 1.433 . S
C740 H736 0.929 . S
C740 C742 1.378 . S
C740 C744 1.350 . S
C741 C744 1.463 . S
C741 C746 1.350 . S
C741 N749 1.427 . S
C742 H733 0.930 . S
C742 C740 1.378 . S
C742 C743 1.367 . S
C743 C742 1.367 . S
C743 C745 1.433 . S
C744 C740 1.350 . S
C744 C741 1.463 . S
C744 N748 1.427 . S
C745 H735 0.929 . S
C745 C743 1.433 . S
C745 N748 1.384 . S
C746 H737 0.929 . S
C746 C738 1.378 . S
C746 C741 1.350 . S
C747 H734 0.929 . S
C747 C739 1.433 . S
C747 N749 1.384 . S
N748 C744 1.427 . S
N748 C745 1.384 . S
N749 C741 1.427 . S
N749 C747 1.384 . S
H750 C756 0.930 . S
H751 C760 0.930 . S
H752 C765 0.929 . S
H753 C763 0.929 . S
H754 C758 0.929 . S
H755 C764 0.929 . S
C756 H750 0.930 . S
C756 C757 1.367 . S
C756 C764 1.378 . S
C757 C756 1.367 . S
C757 C765 1.433 . S
C758 H754 0.929 . S
C758 C760 1.378 . S
C758 C762 1.350 1_565 S
C759 C762 1.463 . S
C759 C764 1.350 . S
C759 N767 1.427 . S
C760 H751 0.930 . S
C760 C758 1.378 . S
C760 C761 1.367 . S
C761 C760 1.367 . S
C761 C763 1.433 . S
C762 C758 1.350 1_545 S
C762 C759 1.463 . S
C762 N766 1.427 . S
C763 H753 0.929 . S
C763 C761 1.433 . S
C763 N766 1.384 1_565 S
C764 H755 0.929 . S
C764 C756 1.378 . S
C764 C759 1.350 . S
C765 H752 0.929 . S
C765 C757 1.433 . S
C765 N767 1.384 . S
N766 C762 1.427 . S
N766 C763 1.384 1_545 S
N767 C759 1.427 . S
N767 C765 1.384 . S
H768 C774 0.930 . S
H769 C778 0.930 . S
H770 C783 0.929 . S
H771 C781 0.929 . S
H772 C776 0.929 . S
H773 C782 0.929 . S
C774 H768 0.930 . S
C774 C775 1.361 1_455 S
C774 C782 1.378 . S
C775 C774 1.361 1_655 S
C775 C783 1.439 . S
C776 H772 0.929 . S
C776 C778 1.378 . S
C776 C780 1.350 1_655 S
C777 C780 1.463 . S
C777 C782 1.350 . S
C777 N785 1.427 1_455 S
C778 H769 0.930 . S
C778 C776 1.378 . S
C778 C779 1.367 1_655 S
C779 C778 1.367 1_455 S
C779 C781 1.433 . S
C780 C776 1.350 1_455 S
C780 C777 1.463 . S
C780 N784 1.427 . S
C781 H771 0.929 . S
C781 C779 1.433 . S
C781 N784 1.384 . S
C782 H773 0.929 . S
C782 C774 1.378 . S
C782 C777 1.350 . S
C783 H770 0.929 . S
C783 C775 1.439 . S
C783 N785 1.384 . S
N784 C780 1.427 . S
N784 C781 1.384 . S
N785 C777 1.427 1_655 S
N785 C783 1.384 . S
H786 C792 0.930 . S
H787 C796 0.930 . S
H788 C801 0.929 . S
H789 C799 0.929 . S
H790 C794 0.929 . S
H791 C800 0.929 . S
C792 H786 0.930 . S
C792 C793 1.367 . S
C792 C800 1.378 . S
C793 C792 1.367 . S
C793 C801 1.433 1_455 S
C794 H790 0.929 . S
C794 C796 1.378 . S
C794 C798 1.363 . S
C795 C798 1.461 1_455 S
C795 C800 1.350 . S
C795 N803 1.427 1_455 S
C796 H787 0.930 . S
C796 C794 1.378 . S
C796 C797 1.367 . S
C797 C796 1.367 . S
C797 C799 1.433 1_655 S
C798 C794 1.363 . S
C798 C795 1.461 1_655 S
C798 N802 1.415 1_655 S
C799 H789 0.929 . S
C799 C797 1.433 1_455 S
C799 N802 1.384 . S
C800 H791 0.929 . S
C800 C792 1.378 . S
C800 C795 1.350 . S
C801 H788 0.929 . S
C801 C793 1.433 1_655 S
C801 N803 1.384 . S
N802 C798 1.415 1_455 S
N802 C799 1.384 . S
N803 C795 1.427 1_655 S
N803 C801 1.384 . S
H804 C810 0.930 . S
H805 C814 0.930 . S
H806 C819 0.929 . S
H807 C817 0.929 . S
H808 C812 0.929 . S
H809 C818 0.929 . S
C810 H804 0.930 . S
C810 C811 1.367 . S
C810 C818 1.378 . S
C811 C810 1.367 . S
C811 C819 1.433 1_565 S
C812 H808 0.929 . S
C812 C814 1.378 . S
C812 C816 1.350 . S
C813 C816 1.464 . S
C813 C818 1.340 1_545 S
C813 N821 1.437 . S
C814 H805 0.930 . S
C814 C812 1.378 . S
C814 C815 1.367 . S
C815 C814 1.367 . S
C815 C817 1.433 1_545 S
C816 C812 1.350 . S
C816 C813 1.464 . S
C816 N820 1.427 1_545 S
C817 H807 0.929 . S
C817 C815 1.433 1_565 S
C817 N820 1.384 . S
C818 H809 0.929 . S
C818 C810 1.378 . S
C818 C813 1.340 1_565 S
C819 H806 0.929 . S
C819 C811 1.433 1_545 S
C819 N821 1.384 . S
N820 C816 1.427 1_565 S
N820 C817 1.384 . S
N821 C813 1.437 . S
N821 C819 1.384 . S
H822 C828 0.930 . S
H823 C832 0.930 . S
H824 C837 0.929 . S
H825 C835 0.929 . S
H826 C830 0.929 . S
H827 C836 0.929 . S
C828 H822 0.930 . S
C828 C829 1.367 . S
C828 C836 1.378 . S
C829 C828 1.367 . S
C829 C837 1.433 . S
C830 H826 0.929 . S
C830 C832 1.378 . S
C830 C834 1.350 . S
C831 C834 1.463 . S
C831 C836 1.350 . S
C831 N839 1.427 . S
C832 H823 0.930 . S
C832 C830 1.378 . S
C832 C833 1.367 . S
C833 C832 1.367 . S
C833 C835 1.433 . S
C834 C830 1.350 . S
C834 C831 1.463 . S
C834 N838 1.427 . S
C835 H825 0.929 . S
C835 C833 1.433 . S
C835 N838 1.384 . S
C836 H827 0.929 . S
C836 C828 1.378 . S
C836 C831 1.350 . S
C837 H824 0.929 . S
C837 C829 1.433 . S
C837 N839 1.384 . S
N838 C834 1.427 . S
N838 C835 1.384 . S
N839 C831 1.427 . S
N839 C837 1.384 . S
H840 C846 0.930 . S
H841 C850 0.930 . S
H842 C855 0.929 . S
H843 C853 0.929 . S
H844 C848 0.929 . S
H845 C854 0.929 . S
C846 H840 0.930 . S
C846 C847 1.367 1_556 S
C846 C854 1.378 . S
C847 C846 1.367 1_554 S
C847 C855 1.433 . S
C848 H844 0.929 . S
C848 C850 1.378 . S
C848 C852 1.350 . S
C849 C852 1.463 . S
C849 C854 1.350 1_554 S
C849 N857 1.427 . S
C850 H841 0.930 . S
C850 C848 1.378 . S
C850 C851 1.352 1_554 S
C851 C850 1.352 1_556 S
C851 C853 1.448 . S
C852 C848 1.350 . S
C852 C849 1.463 . S
C852 N856 1.427 1_554 S
C853 H843 0.929 . S
C853 C851 1.448 . S
C853 N856 1.384 . S
C854 H845 0.929 . S
C854 C846 1.378 . S
C854 C849 1.350 1_556 S
C855 H842 0.929 . S
C855 C847 1.433 . S
C855 N857 1.384 . S
N856 C852 1.427 1_556 S
N856 C853 1.384 . S
N857 C849 1.427 . S
N857 C855 1.384 . S
H858 C864 0.930 . S
H859 C868 0.930 . S
H860 C873 0.929 . S
H861 C871 0.929 . S
H862 C866 0.929 . S
H863 C872 0.929 . S
C864 H858 0.930 . S
C864 C865 1.367 . S
C864 C872 1.378 . S
C865 C864 1.367 . S
C865 C873 1.433 . S
C866 H862 0.929 . S
C866 C868 1.378 . S
C866 C870 1.350 . S
C867 C870 1.463 . S
C867 C872 1.350 . S
C867 N875 1.427 . S
C868 H859 0.930 . S
C868 C866 1.378 . S
C868 C869 1.367 . S
C869 C868 1.367 . S
C869 C871 1.433 . S
C870 C866 1.350 . S
C870 C867 1.463 . S
C870 N874 1.427 . S
C871 H861 0.929 . S
C871 C869 1.433 . S
C871 N874 1.384 . S
C872 H863 0.929 . S
C872 C864 1.378 . S
C872 C867 1.350 . S
C873 H860 0.929 . S
C873 C865 1.433 . S
C873 N875 1.384 . S
N874 C870 1.427 . S
N874 C871 1.384 . S
N875 C867 1.427 . S
N875 C873 1.384 . S
H876 C882 0.930 . S
H877 C886 0.930 . S
H878 C891 0.929 . S
H879 C889 0.929 . S
H880 C884 0.929 . S
H881 C890 0.929 . S
C882 H876 0.930 . S
C882 C883 1.367 . S
C882 C890 1.378 . S
C883 C882 1.367 . S
C883 C891 1.433 . S
C884 H880 0.929 . S
C884 C886 1.378 . S
C884 C888 1.350 . S
C885 C888 1.463 . S
C885 C890 1.350 . S
C885 N893 1.427 . S
C886 H877 0.930 . S
C886 C884 1.378 . S
C886 C887 1.367 . S
C887 C886 1.367 . S
C887 C889 1.433 . S
C888 C884 1.350 . S
C888 C885 1.463 . S
C888 N892 1.427 . S
C889 H879 0.929 . S
C889 C887 1.433 . S
C889 N892 1.384 . S
C890 H881 0.929 . S
C890 C882 1.378 . S
C890 C885 1.350 . S
C891 H878 0.929 . S
C891 C883 1.433 . S
C891 N893 1.384 . S
N892 C888 1.427 . S
N892 C889 1.384 . S
N893 C885 1.427 . S
N893 C891 1.384 . S
H894 C900 0.930 . S
H895 C904 0.930 . S
H896 C909 0.929 . S
H897 C907 0.929 . S
H898 C902 0.929 . S
H899 C908 0.929 . S
C900 H894 0.930 . S
C900 C901 1.367 . S
C900 C908 1.378 . S
C901 C900 1.367 . S
C901 C909 1.433 . S
C902 H898 0.929 . S
C902 C904 1.378 . S
C902 C906 1.350 . S
C903 C906 1.463 . S
C903 C908 1.350 . S
C903 N911 1.427 . S
C904 H895 0.930 . S
C904 C902 1.378 . S
C904 C905 1.367 . S
C905 C904 1.367 . S
C905 C907 1.433 . S
C906 C902 1.350 . S
C906 C903 1.463 . S
C906 N910 1.427 . S
C907 H897 0.929 . S
C907 C905 1.433 . S
C907 N910 1.384 . S
C908 H899 0.929 . S
C908 C900 1.378 . S
C908 C903 1.350 . S
C909 H896 0.929 . S
C909 C901 1.433 . S
C909 N911 1.384 . S
N910 C906 1.427 . S
N910 C907 1.384 . S
N911 C903 1.427 . S
N911 C909 1.384 . S
H912 C918 0.930 . S
H913 C922 0.930 . S
H914 C927 0.929 . S
H915 C925 0.929 . S
H916 C920 0.929 . S
H917 C926 0.929 . S
C918 H912 0.930 . S
C918 C919 1.367 . S
C918 C926 1.378 . S
C919 C918 1.367 . S
C919 C927 1.433 . S
C920 H916 0.929 . S
C920 C922 1.378 . S
C920 C924 1.350 . S
C921 C924 1.463 . S
C921 C926 1.350 . S
C921 N929 1.427 . S
C922 H913 0.930 . S
C922 C920 1.378 . S
C922 C923 1.367 . S
C923 C922 1.367 . S
C923 C925 1.433 . S
C924 C920 1.350 . S
C924 C921 1.463 . S
C924 N928 1.427 . S
C925 H915 0.929 . S
C925 C923 1.433 . S
C925 N928 1.384 . S
C926 H917 0.929 . S
C926 C918 1.378 . S
C926 C921 1.350 . S
C927 H914 0.929 . S
C927 C919 1.433 . S
C927 N929 1.384 . S
N928 C924 1.427 . S
N928 C925 1.384 . S
N929 C921 1.427 . S
N929 C927 1.384 . S
H930 C936 0.930 . S
H931 C940 0.930 . S
H932 C945 0.929 . S
H933 C943 0.929 . S
H934 C938 0.929 . S
H935 C944 0.929 . S
C936 H930 0.930 . S
C936 C937 1.367 . S
C936 C944 1.378 . S
C937 C936 1.367 . S
C937 C945 1.433 . S
C938 H934 0.929 . S
C938 C940 1.378 . S
C938 C942 1.350 . S
C939 C942 1.463 . S
C939 C944 1.350 . S
C939 N947 1.427 . S
C940 H931 0.930 . S
C940 C938 1.378 . S
C940 C941 1.367 . S
C941 C940 1.367 . S
C941 C943 1.433 . S
C942 C938 1.350 . S
C942 C939 1.463 . S
C942 N946 1.427 . S
C943 H933 0.929 . S
C943 C941 1.433 . S
C943 N946 1.384 . S
C944 H935 0.929 . S
C944 C936 1.378 . S
C944 C939 1.350 . S
C945 H932 0.929 . S
C945 C937 1.433 . S
C945 N947 1.384 . S
N946 C942 1.427 . S
N946 C943 1.384 . S
N947 C939 1.427 . S
N947 C945 1.384 . S
H948 C954 0.930 . S
H949 C958 0.930 . S
H950 C963 0.929 . S
H951 C961 0.929 . S
H952 C956 0.929 . S
H953 C962 0.929 . S
C954 H948 0.930 . S
C954 C955 1.367 1_565 S
C954 C962 1.378 . S
C955 C954 1.367 1_545 S
C955 C963 1.433 . S
C956 H952 0.929 . S
C956 C958 1.378 . S
C956 C960 1.361 . S
C957 C960 1.464 . S
C957 C962 1.350 1_545 S
C957 N965 1.427 . S
C958 H949 0.930 . S
C958 C956 1.378 . S
C958 C959 1.367 1_545 S
C959 C958 1.367 1_565 S
C959 C961 1.433 . S
C960 C956 1.361 . S
C960 C957 1.464 . S
C960 N964 1.416 1_545 S
C961 H951 0.929 . S
C961 C959 1.433 . S
C961 N964 1.384 . S
C962 H953 0.929 . S
C962 C954 1.378 . S
C962 C957 1.350 1_565 S
C963 H950 0.929 . S
C963 C955 1.433 . S
C963 N965 1.384 . S
N964 C960 1.416 1_565 S
N964 C961 1.384 . S
N965 C957 1.427 . S
N965 C963 1.384 . S
H966 C972 0.930 . S
H967 C976 0.930 . S
H968 C981 0.929 . S
H969 C979 0.929 . S
H970 C974 0.929 . S
H971 C980 0.929 . S
C972 H966 0.930 . S
C972 C973 1.367 . S
C972 C980 1.378 . S
C973 C972 1.367 . S
C973 C981 1.433 1_556 S
C974 H970 0.929 . S
C974 C976 1.378 . S
C974 C978 1.350 . S
C975 C978 1.462 1_556 S
C975 C980 1.351 . S
C975 N983 1.426 1_556 S
C976 H967 0.930 . S
C976 C974 1.378 . S
C976 C977 1.367 . S
C977 C976 1.367 . S
C977 C979 1.433 1_554 S
C978 C974 1.350 . S
C978 C975 1.462 1_554 S
C978 N982 1.427 1_554 S
C979 H969 0.929 . S
C979 C977 1.433 1_556 S
C979 N982 1.384 . S
C980 H971 0.929 . S
C980 C972 1.378 . S
C980 C975 1.351 . S
C981 H968 0.929 . S
C981 C973 1.433 1_554 S
C981 N983 1.384 . S
N982 C978 1.427 1_556 S
N982 C979 1.384 . S
N983 C975 1.426 1_554 S
N983 C981 1.384 . S
H984 C990 0.930 . S
H985 C994 0.930 . S
H986 C999 0.929 . S
H987 C997 0.929 . S
H988 C992 0.929 . S
H989 C998 0.929 . S
C990 H984 0.930 . S
C990 C991 1.367 1_455 S
C990 C998 1.378 . S
C991 C990 1.367 1_655 S
C991 C999 1.433 . S
C992 H988 0.929 . S
C992 C994 1.378 . S
C992 C996 1.350 . S
C993 C996 1.463 1_565 S
C993 C998 1.350 1_655 S
C993 N1001 1.427 . S
C994 H985 0.930 . S
C994 C992 1.378 . S
C994 C995 1.367 . S
C995 C994 1.367 . S
C995 C997 1.433 1_655 S
C996 C992 1.350 . S
C996 C993 1.463 1_545 S
C996 N1000 1.427 1_655 S
C997 H987 0.929 . S
C997 C995 1.433 1_455 S
C997 N1000 1.384 . S
C998 H989 0.929 . S
C998 C990 1.378 . S
C998 C993 1.350 1_455 S
C999 H986 0.929 . S
C999 C991 1.433 . S
C999 N1001 1.384 . S
N1000 C996 1.427 1_455 S
N1000 C997 1.384 . S
N1001 C993 1.427 . S
N1001 C999 1.384 . S
H1002 C1008 0.930 . S
H1003 C1012 0.930 . S
H1004 C1017 0.929 . S
H1005 C1015 0.929 . S
H1006 C1010 0.929 . S
H1007 C1016 0.929 . S
C1008 H1002 0.930 . S
C1008 C1009 1.367 . S
C1008 C1016 1.378 . S
C1009 C1008 1.367 . S
C1009 C1017 1.433 1_455 S
C1010 H1006 0.929 . S
C1010 C1012 1.378 . S
C1010 C1014 1.326 1_655 S
C1011 C1014 1.465 . S
C1011 C1016 1.350 . S
C1011 N1019 1.427 1_455 S
C1012 H1003 0.930 . S
C1012 C1010 1.378 . S
C1012 C1013 1.365 . S
C1013 C1012 1.365 . S
C1013 C1015 1.435 1_655 S
C1014 C1010 1.326 1_455 S
C1014 C1011 1.465 . S
C1014 N1018 1.451 . S
C1015 H1005 0.929 . S
C1015 C1013 1.435 1_455 S
C1015 N1018 1.384 . S
C1016 H1007 0.929 . S
C1016 C1008 1.378 . S
C1016 C1011 1.350 . S
C1017 H1004 0.929 . S
C1017 C1009 1.433 1_655 S
C1017 N1019 1.384 . S
N1018 C1014 1.451 . S
N1018 C1015 1.384 . S
N1019 C1011 1.427 1_655 S
N1019 C1017 1.384 . S
H1020 C1026 0.930 . S
H1021 C1030 0.930 . S
H1022 C1035 0.929 . S
H1023 C1033 0.929 . S
H1024 C1028 0.929 1_556 S
H1025 C1034 0.929 1_554 S
C1026 H1020 0.930 . S
C1026 C1027 1.367 1_545 S
C1026 C1034 1.378 . S
C1027 C1026 1.367 1_565 S
C1027 C1035 1.433 . S
C1028 H1024 0.929 1_554 S
C1028 C1030 1.378 . S
C1028 C1032 1.350 . S
C1029 C1032 1.463 1_556 S
C1029 C1034 1.350 1_565 S
C1029 N1037 1.427 . S
C1030 H1021 0.930 . S
C1030 C1028 1.378 . S
C1030 C1031 1.367 . S
C1031 C1030 1.367 . S
C1031 C1033 1.433 1_565 S
C1032 C1028 1.350 . S
C1032 C1029 1.463 1_554 S
C1032 N1036 1.427 1_565 S
C1033 H1023 0.929 . S
C1033 C1031 1.433 1_545 S
C1033 N1036 1.384 . S
C1034 H1025 0.929 1_556 S
C1034 C1026 1.378 . S
C1034 C1029 1.350 1_545 S
C1035 H1022 0.929 . S
C1035 C1027 1.433 . S
C1035 N1037 1.384 . S
N1036 C1032 1.427 1_545 S
N1036 C1033 1.384 . S
N1037 C1029 1.427 . S
N1037 C1035 1.384 . S
H1038 C1044 0.930 . S
H1039 C1048 0.930 . S
H1040 C1053 0.929 . S
H1041 C1051 0.929 . S
H1042 C1046 0.929 1_554 S
H1043 C1052 0.929 1_556 S
C1044 H1038 0.930 . S
C1044 C1045 1.367 . S
C1044 C1052 1.378 . S
C1045 C1044 1.367 . S
C1045 C1053 1.433 . S
C1046 H1042 0.929 1_556 S
C1046 C1048 1.378 . S
C1046 C1050 1.350 . S
C1047 C1050 1.463 1_554 S
C1047 C1052 1.350 . S
C1047 N1055 1.427 . S
C1048 H1039 0.930 . S
C1048 C1046 1.378 . S
C1048 C1049 1.367 . S
C1049 C1048 1.367 . S
C1049 C1051 1.433 . S
C1050 C1046 1.350 . S
C1050 C1047 1.463 1_556 S
C1050 N1054 1.427 . S
C1051 H1041 0.929 . S
C1051 C1049 1.433 . S
C1051 N1054 1.384 . S
C1052 H1043 0.929 1_554 S
C1052 C1044 1.378 . S
C1052 C1047 1.350 . S
C1053 H1040 0.929 . S
C1053 C1045 1.433 . S
C1053 N1055 1.384 . S
N1054 C1050 1.427 . S
N1054 C1051 1.384 . S
N1055 C1047 1.427 . S
N1055 C1053 1.384 . S
H1056 C1062 0.930 . S
H1057 C1066 0.930 . S
H1058 C1071 0.929 . S
H1059 C1069 0.929 . S
H1060 C1064 0.929 . S
H1061 C1070 0.929 . S
C1062 H1056 0.930 . S
C1062 C1063 1.367 . S
C1062 C1070 1.378 . S
C1063 C1062 1.367 . S
C1063 C1071 1.433 1_545 S
C1064 H1060 0.929 . S
C1064 C1066 1.378 . S
C1064 C1068 1.327 1_565 S
C1065 C1068 1.465 . S
C1065 C1070 1.350 . S
C1065 N1073 1.427 1_545 S
C1066 H1057 0.930 . S
C1066 C1064 1.378 . S
C1066 C1067 1.367 . S
C1067 C1066 1.367 . S
C1067 C1069 1.433 1_565 S
C1068 C1064 1.327 1_545 S
C1068 C1065 1.465 . S
C1068 N1072 1.450 . S
C1069 H1059 0.929 . S
C1069 C1067 1.433 1_545 S
C1069 N1072 1.384 . S
C1070 H1061 0.929 . S
C1070 C1062 1.378 . S
C1070 C1065 1.350 . S
C1071 H1058 0.929 . S
C1071 C1063 1.433 1_565 S
C1071 N1073 1.384 . S
N1072 C1068 1.450 . S
N1072 C1069 1.384 . S
N1073 C1065 1.427 1_565 S
N1073 C1071 1.384 . S
H1074 C1080 0.930 . S
H1075 C1084 0.930 . S
H1076 C1089 0.929 . S
H1077 C1087 0.929 . S
H1078 C1082 0.929 . S
H1079 C1088 0.929 . S
C1080 H1074 0.930 . S
C1080 C1081 1.367 . S
C1080 C1088 1.378 . S
C1081 C1080 1.367 . S
C1081 C1089 1.433 . S
C1082 H1078 0.929 . S
C1082 C1084 1.378 . S
C1082 C1086 1.350 . S
C1083 C1086 1.463 . S
C1083 C1088 1.350 . S
C1083 N1091 1.427 . S
C1084 H1075 0.930 . S
C1084 C1082 1.378 . S
C1084 C1085 1.367 . S
C1085 C1084 1.367 . S
C1085 C1087 1.433 . S
C1086 C1082 1.350 . S
C1086 C1083 1.463 . S
C1086 N1090 1.427 . S
C1087 H1077 0.929 . S
C1087 C1085 1.433 . S
C1087 N1090 1.384 . S
C1088 H1079 0.929 . S
C1088 C1080 1.378 . S
C1088 C1083 1.350 . S
C1089 H1076 0.929 . S
C1089 C1081 1.433 . S
C1089 N1091 1.384 . S
N1090 C1086 1.427 . S
N1090 C1087 1.384 . S
N1091 C1083 1.427 . S
N1091 C1089 1.384 . S
H1092 C1098 0.930 . S
H1093 C1102 0.930 . S
H1094 C1107 0.929 . S
H1095 C1105 0.929 . S
H1096 C1100 0.929 . S
H1097 C1106 0.929 . S
C1098 H1092 0.930 . S
C1098 C1099 1.367 . S
C1098 C1106 1.378 . S
C1099 C1098 1.367 . S
C1099 C1107 1.433 1_556 S
C1100 H1096 0.929 . S
C1100 C1102 1.378 . S
C1100 C1104 1.350 1_554 S
C1101 C1104 1.463 1_455 S
C1101 C1106 1.350 . S
C1101 N1109 1.427 1_556 S
C1102 H1093 0.930 . S
C1102 C1100 1.378 . S
C1102 C1103 1.367 1_554 S
C1103 C1102 1.367 1_556 S
C1103 C1105 1.433 . S
C1104 C1100 1.350 1_556 S
C1104 C1101 1.463 1_655 S
C1104 N1108 1.427 . S
C1105 H1095 0.929 . S
C1105 C1103 1.433 . S
C1105 N1108 1.384 . S
C1106 H1097 0.929 . S
C1106 C1098 1.378 . S
C1106 C1101 1.350 . S
C1107 H1094 0.929 . S
C1107 C1099 1.433 1_554 S
C1107 N1109 1.384 . S
N1108 C1104 1.427 . S
N1108 C1105 1.384 . S
N1109 C1101 1.427 1_554 S
N1109 C1107 1.384 . S
H1110 C1116 0.930 . S
H1111 C1120 0.930 . S
H1112 C1125 0.929 . S
H1113 C1123 0.929 . S
H1114 C1118 0.929 . S
H1115 C1124 0.929 . S
C1116 H1110 0.930 . S
C1116 C1117 1.367 . S
C1116 C1124 1.378 . S
C1117 C1116 1.367 . S
C1117 C1125 1.433 . S
C1118 H1114 0.929 . S
C1118 C1120 1.378 . S
C1118 C1122 1.350 . S
C1119 C1122 1.463 1_455 S
C1119 C1124 1.350 . S
C1119 N1127 1.427 . S
C1120 H1111 0.930 . S
C1120 C1118 1.378 . S
C1120 C1121 1.367 . S
C1121 C1120 1.367 . S
C1121 C1123 1.433 . S
C1122 C1118 1.350 . S
C1122 C1119 1.463 1_655 S
C1122 N1126 1.427 . S
C1123 H1113 0.929 . S
C1123 C1121 1.433 . S
C1123 N1126 1.384 . S
C1124 H1115 0.929 . S
C1124 C1116 1.378 . S
C1124 C1119 1.350 . S
C1125 H1112 0.929 . S
C1125 C1117 1.433 . S
C1125 N1127 1.384 . S
N1126 C1122 1.427 . S
N1126 C1123 1.384 . S
N1127 C1119 1.427 . S
N1127 C1125 1.384 . S
H1128 C1134 0.930 . S
H1129 C1138 0.930 . S
H1130 C1143 0.929 . S
H1131 C1141 0.929 . S
H1132 C1136 0.929 . S
H1133 C1142 0.929 . S
C1134 H1128 0.930 . S
C1134 C1135 1.367 . S
C1134 C1142 1.378 . S
C1135 C1134 1.367 . S
C1135 C1143 1.433 . S
C1136 H1132 0.929 . S
C1136 C1138 1.378 . S
C1136 C1140 1.350 . S
C1137 C1140 1.463 . S
C1137 C1142 1.350 . S
C1137 N1145 1.427 . S
C1138 H1129 0.930 . S
C1138 C1136 1.378 . S
C1138 C1139 1.367 . S
C1139 C1138 1.367 . S
C1139 C1141 1.433 . S
C1140 C1136 1.350 . S
C1140 C1137 1.463 . S
C1140 N1144 1.427 . S
C1141 H1131 0.929 . S
C1141 C1139 1.433 . S
C1141 N1144 1.384 . S
C1142 H1133 0.929 . S
C1142 C1134 1.378 . S
C1142 C1137 1.350 . S
C1143 H1130 0.929 . S
C1143 C1135 1.433 . S
C1143 N1145 1.384 . S
N1144 C1140 1.427 . S
N1144 C1141 1.384 . S
N1145 C1137 1.427 . S
N1145 C1143 1.384 . S
H1146 C1152 0.930 . S
H1147 C1156 0.930 . S
H1148 C1161 0.929 . S
H1149 C1159 0.929 . S
H1150 C1154 0.929 . S
H1151 C1160 0.929 . S
C1152 H1146 0.930 . S
C1152 C1153 1.367 . S
C1152 C1160 1.378 . S
C1153 C1152 1.367 . S
C1153 C1161 1.433 . S
C1154 H1150 0.929 . S
C1154 C1156 1.378 . S
C1154 C1158 1.350 . S
C1155 C1158 1.463 . S
C1155 C1160 1.350 . S
C1155 N1163 1.427 . S
C1156 H1147 0.930 . S
C1156 C1154 1.378 . S
C1156 C1157 1.367 . S
C1157 C1156 1.367 . S
C1157 C1159 1.433 . S
C1158 C1154 1.350 . S
C1158 C1155 1.463 . S
C1158 N1162 1.427 . S
C1159 H1149 0.929 . S
C1159 C1157 1.433 . S
C1159 N1162 1.384 . S
C1160 H1151 0.929 . S
C1160 C1152 1.378 . S
C1160 C1155 1.350 . S
C1161 H1148 0.929 . S
C1161 C1153 1.433 . S
C1161 N1163 1.384 . S
N1162 C1158 1.427 . S
N1162 C1159 1.384 . S
N1163 C1155 1.427 . S
N1163 C1161 1.384 . S
H1164 C1170 0.930 . S
H1165 C1174 0.930 . S
H1166 C1179 0.929 . S
H1167 C1177 0.929 . S
H1168 C1172 0.929 . S
H1169 C1178 0.929 1_545 S
C1170 H1164 0.930 . S
C1170 C1171 1.367 . S
C1170 C1178 1.378 . S
C1171 C1170 1.367 . S
C1171 C1179 1.433 . S
C1172 H1168 0.929 . S
C1172 C1174 1.378 1_565 S
C1172 C1176 1.350 1_565 S
C1173 C1176 1.463 1_565 S
C1173 C1178 1.350 . S
C1173 N1181 1.427 . S
C1174 H1165 0.930 . S
C1174 C1172 1.378 1_545 S
C1174 C1175 1.367 . S
C1175 C1174 1.367 . S
C1175 C1177 1.433 . S
C1176 C1172 1.350 1_545 S
C1176 C1173 1.463 1_545 S
C1176 N1180 1.427 . S
C1177 H1167 0.929 . S
C1177 C1175 1.433 . S
C1177 N1180 1.384 . S
C1178 H1169 0.929 1_565 S
C1178 C1170 1.378 . S
C1178 C1173 1.350 . S
C1179 H1166 0.929 . S
C1179 C1171 1.433 . S
C1179 N1181 1.384 . S
N1180 C1176 1.427 . S
N1180 C1177 1.384 . S
N1181 C1173 1.427 . S
N1181 C1179 1.384 . S
H1182 C1188 0.930 . S
H1183 C1192 0.930 . S
H1184 C1197 0.929 . S
H1185 C1195 0.929 . S
H1186 C1190 0.929 . S
H1187 C1196 0.929 . S
C1188 H1182 0.930 . S
C1188 C1189 1.367 1_556 S
C1188 C1196 1.378 . S
C1189 C1188 1.367 1_554 S
C1189 C1197 1.433 . S
C1190 H1186 0.929 . S
C1190 C1192 1.378 . S
C1190 C1194 1.350 . S
C1191 C1194 1.463 . S
C1191 C1196 1.350 1_554 S
C1191 N1199 1.427 . S
C1192 H1183 0.930 . S
C1192 C1190 1.378 . S
C1192 C1193 1.398 . S
C1193 C1192 1.398 . S
C1193 C1195 1.403 1_554 S
C1194 C1190 1.350 . S
C1194 C1191 1.463 . S
C1194 N1198 1.427 1_554 S
C1195 H1185 0.929 . S
C1195 C1193 1.403 1_556 S
C1195 N1198 1.384 . S
C1196 H1187 0.929 . S
C1196 C1188 1.378 . S
C1196 C1191 1.350 1_556 S
C1197 H1184 0.929 . S
C1197 C1189 1.433 . S
C1197 N1199 1.384 . S
N1198 C1194 1.427 1_556 S
N1198 C1195 1.384 . S
N1199 C1191 1.427 . S
N1199 C1197 1.384 . S
C343 C247 0.766 . S
C347 C8 0.772 . S
C361 C22 0.812 . S
C365 C233 0.805 . S
C379 C36 1.002 . S
C383 C275 0.982 . S
C397 C50 1.035 . S
C401 C261 0.964 . S
C415 C64 0.756 . S
C419 C303 0.757 . S
C433 C78 1.059 . S
C437 C317 1.038 . S
C451 C289 0.780 . S
C455 C92 0.805 . S
C469 C163 0.993 . S
C473 C106 1.057 . S
C487 C120 0.762 . S
C491 C51 0.752 . S
C505 C23 1.037 . S
C509 C134 1.062 . S
C523 C148 1.301 . S
C527 C9 1.282 . S
C541 C162 1.067 . S
C545 C205 1.018 . S
C559 C79 1.231 . S
C563 C176 1.304 . S
C577 C65 1.276 . S
C581 C190 1.299 . S
C595 C204 1.057 . S
C599 C107 0.992 . S
C613 C218 1.064 . S
C617 C93 1.056 . S
C631 C135 1.223 . S
C635 C232 1.299 . S
C649 C149 0.967 . S
C653 C246 1.033 . S
C667 C121 1.279 . S
C671 C260 1.302 . S
C685 C274 0.998 . S
C689 C331 0.990 . S
C703 C219 1.231 . S
C707 C288 1.304 . S
C721 C302 1.038 . S
C725 C191 0.965 . S
C739 C177 0.801 . S
C743 C316 0.816 . S
C757 C330 1.012 . S
C761 C37 0.993 . S
C775 C6 1.625 . S
C779 C20 1.604 . S
C793 C48 1.480 . S
C797 C34 1.496 . S
C811 C62 1.619 . S
C815 C90 1.604 . S
C829 C76 1.996 . S
C833 C104 1.970 . S
C847 C314 1.607 . S
C851 C118 1.624 . S
C865 C132 1.999 . S
C869 C160 1.963 . S
C883 C286 1.896 . S
C887 C146 1.919 . S
C901 C188 1.926 . S
C905 C174 1.893 . S
C919 C202 1.972 . S
C923 C216 1.993 . S
C937 C258 1.920 . S
C941 C230 1.893 . S
C955 C244 1.476 . S
C959 C272 1.502 . S
C973 C328 1.499 . S
C977 C300 1.476 . S
C991 C35 1.203 1_655 S
C995 C7 1.219 . S
C1009 C21 1.495 1_455 S
C1013 C49 1.496 . S
C1027 C273 1.199 1_565 S
C1031 C63 1.213 . S
C1045 C77 1.426 . S
C1049 C259 1.438 . S
C1063 C91 1.500 1_545 S
C1067 C245 1.502 . S
C1081 C231 1.730 . S
C1085 C105 1.728 . S
C1099 C119 1.220 . S
C1103 C329 1.205 1_556 S
C1117 C133 1.433 . S
C1121 C147 1.448 . S
C1135 C287 1.731 . S
C1139 C161 1.726 . S
C1153 C175 1.743 . S
C1157 C203 1.741 . S
C1171 C189 1.434 . S
C1175 C217 1.427 . S
C1189 C315 1.489 1_554 S
C1193 C301 1.497 1_554 S
