# Generated by pormake.
# Topology kag, (6)-cn, num edge types: 1
# Building blocks:
#     Node 0, Type 0, BuildingBlock: KUMBUR_clean_sbu_0, # of connection points: 6
#     Node 1, Type 0, BuildingBlock: KUMBUR_clean_sbu_0, # of connection points: 6
#     Node 2, Type 0, BuildingBlock: KUMBUR_clean_sbu_0, # of connection points: 6
#     Edge 3, Type (0, 0), BuildingBlock: UVAHIK_clean_linker_0, # of connection points: 2
#     Edge 4, Type (0, 0), BuildingBlock: UVAHIK_clean_linker_0, # of connection points: 2
#     Edge 5, Type (0, 0), BuildingBlock: UVAHIK_clean_linker_0, # of connection points: 2
#     Edge 6, Type (0, 0), BuildingBlock: UVAHIK_clean_linker_0, # of connection points: 2
#     Edge 7, Type (0, 0), BuildingBlock: UVAHIK_clean_linker_0, # of connection points: 2
#     Edge 8, Type (0, 0), BuildingBlock: UVAHIK_clean_linker_0, # of connection points: 2
#     Edge 9, Type (0, 0), BuildingBlock: UVAHIK_clean_linker_0, # of connection points: 2
#     Edge 10, Type (0, 0), BuildingBlock: UVAHIK_clean_linker_0, # of connection points: 2
#     Edge 11, Type (0, 0), BuildingBlock: UVAHIK_clean_linker_0, # of connection points: 2
# Relax obj value: 0.055
# Max RMSD: 0.171
# Mean RMSD: 0.129
data_MOF--net-kag--node1-KUMBUR_clean_sbu_0--edge1-UVAHIK_clean_linker_0
_symmetry_space_group_name_H-M    P1
_symmetry_Int_Tables_number       1
_symmetry_cell_setting            triclinic
loop_
_symmetry_equiv_pos_as_xyz
'x, y, z'
_cell_length_a     48.443723
_cell_length_b     38.586711
_cell_length_c     19.83395
_cell_angle_alpha  94.305781
_cell_angle_beta   114.83799
_cell_angle_gamma 100.72361
loop_
_atom_site_label
_atom_site_type_symbol
_atom_site_fract_x
_atom_site_fract_y
_atom_site_fract_z
_atom_type_partial_charge
Tb0 Tb 1.00307 0.48657 0.97925 0.0
C1 C 1.0013 0.63634 0.09455 0.0
C2 C 0.94985 0.6423 0.00956 0.0
C3 C 0.97559 0.67473 0.13838 0.0
C4 C 0.9758 0.62727 0.02463 0.0
C5 C 1.00188 0.66079 0.15186 0.0
C6 C 0.94957 0.66543 0.06734 0.0
C7 C 0.05519 0.65785 0.22907 0.0
N8 N 0.02617 0.62228 0.10521 0.0
C9 C 0.05347 0.63371 0.17035 0.0
C10 C 0.02915 0.67112 0.22017 0.0
Tb11 Tb 0.0209 0.58255 0.00631 0.0
N12 N 0.97721 0.6052 0.97023 0.0
C13 C 0.95426 0.59919 0.89762 0.0
C14 C 0.92542 0.63441 0.93641 0.0
C15 C 0.92787 0.61319 0.87996 0.0
H16 H 0.07367 0.62349 0.17787 0.0
H17 H 0.9094 0.60751 0.8228 0.0
H18 H 0.92971 0.67697 0.05711 0.0
H19 H 0.07659 0.66618 0.28115 0.0
H20 H 0.95563 0.58275 0.85324 0.0
H21 H 0.11456 0.46186 0.16367 0.0
H22 H 0.90499 0.64528 0.92253 0.0
H23 H 0.95053 0.4453 0.80775 0.0
H24 H 0.0681 0.48624 0.13285 0.0
H25 H 0.94801 0.4029 0.70453 0.0
H26 H 0.97542 0.6933 0.18191 0.0
H27 H 0.11952 0.42478 0.06395 0.0
H28 H 0.09523 0.39347 0.92915 0.0
H29 H 0.03056 0.68987 0.26566 0.0
H30 H 0.04967 0.37702 0.80411 0.0
N31 N 0.04692 0.4642 0.0157 0.0
C32 C 0.0697 0.47007 0.08848 0.0
C33 C 0.09899 0.43547 0.04991 0.0
C34 C 0.07471 0.42768 0.97655 0.0
C35 C 0.09622 0.45629 0.10636 0.0
C36 C 0.04861 0.44245 0.96129 0.0
H37 H 0.99437 0.37989 0.72016 0.0
N38 N 0.99813 0.44701 0.8805 0.0
C39 C 0.96938 0.41139 0.75664 0.0
C40 C 0.02319 0.43329 0.89126 0.0
C41 C 0.97087 0.43535 0.81533 0.0
C42 C 0.99561 0.39851 0.76563 0.0
C43 C 0.02284 0.40903 0.834 0.0
O44 O 0.96101 0.45025 0.95806 0.0
O45 O 0.98662 0.53411 0.98914 0.0
O46 O 0.01466 0.56787 0.10417 0.0
O47 O 0.02228 0.50994 0.10068 0.0
O48 O 0.95548 0.49239 0.90907 0.0
O49 O 1.00377 0.45202 0.05684 0.0
O50 O 0.06298 0.6187 0.02703 0.0
O51 O 0.03726 0.53501 -0.00348 0.0
O52 O 1.00927 0.50135 0.88138 0.0
O53 O 1.00149 0.55919 0.88485 0.0
O54 O 0.06855 0.57665 0.07625 0.0
O55 O 0.02014 0.61698 0.92847 0.0
C56 C 0.95827 0.52398 0.9408 0.0
C57 C 0.96651 0.39619 0.00297 0.0
C58 C 0.92975 0.34009 0.98831 0.0
C59 C 0.93878 0.37778 0.00358 0.0
C60 C 0.94907 0.32114 0.97226 0.0
C61 C 0.98555 0.3768 0.98748 0.0
C62 C 0.97678 0.33944 0.97204 0.0
C63 C 0.0197 0.53913 0.13567 0.0
C64 C 0.97439 0.43555 0.01654 0.0
C65 C 0.04931 0.39543 0.84761 0.0
C66 C 0.07525 0.40481 0.91878 0.0
C67 C 0.06566 0.545 0.04462 0.0
C68 C 0.0576 0.67271 0.98185 0.0
C69 C 0.08534 0.69089 0.98101 0.0
C70 C 0.09454 0.72857 -0.00387 0.0
C71 C 0.07538 0.74775 0.01227 0.0
C72 C 0.0387 0.69232 -0.00261 0.0
C73 C 0.04765 0.72967 0.01268 0.0
C74 C 1.00415 0.53006 0.84987 0.0
C75 C 0.04958 0.63335 0.9685 0.0
H76 H 0.92445 0.39296 0.01681 0.0
H77 H 0.94264 0.29218 0.95911 0.0
H78 H 1.0071 0.3904 0.98725 0.0
H79 H 0.99146 0.32461 0.95964 0.0
H80 H 0.09956 0.67554 0.9677 0.0
H81 H 0.08194 0.77672 0.02532 0.0
H82 H 0.01714 0.6789 -0.00221 0.0
H83 H 0.03307 0.74468 0.02514 0.0
Tb84 Tb 0.55342 0.04495 0.03801 0.0
C85 C 0.44474 0.08761 0.88323 0.0
C86 C 0.44105 0.12377 0.98268 0.0
C87 C 0.4275 0.14295 0.86147 0.0
C88 C 0.44844 0.09341 0.95608 0.0
C89 C 0.43319 0.11175 0.83417 0.0
C90 C 0.43146 0.14898 0.93574 0.0
C91 C 0.42956 0.07024 0.73241 0.0
N92 N 0.45042 0.05712 0.85899 0.0
C93 C 0.44046 0.04701 0.78294 0.0
C94 C 0.42665 0.10322 0.7585 0.0
Tb95 Tb 0.47174 1.02216 0.94895 0.0
N96 N 0.45822 0.06867 9e-05 0.0
C97 C 0.45668 0.07061 0.06771 0.0
C98 C 0.44288 0.12751 0.05506 0.0
C99 C 0.45001 0.10035 0.09703 0.0
H100 H 0.4403 1.0207 0.75988 0.0
H101 H 0.4497 0.10185 0.15141 0.0
H102 H 0.42626 0.17271 0.9557 0.0
H103 H 0.4228 0.06232 0.67306 0.0
H104 H 0.45927 0.04899 0.09907 0.0
H105 H 0.57503 0.96404 0.83645 0.0
H106 H 0.4375 0.15042 0.07764 0.0
H107 H 0.58539 0.04759 0.22737 0.0
H108 H 0.56542 1.01715 0.88779 0.0
H109 H 0.6033 1.00658 0.31548 0.0
H110 H 0.41917 0.16205 0.82501 0.0
H111 H 0.58764 0.91602 0.91162 0.0
H112 H 0.59928 0.8945 0.03447 0.0
H113 H 0.41785 0.12104 0.71913 0.0
H114 H 0.6067 0.90596 0.16533 0.0
N115 N 0.56696 0.99819 0.98775 0.0
C116 C 0.56824 0.99579 0.91983 0.0
C117 C 0.58227 0.93905 0.9338 0.0
C118 C 0.5843 0.94324 0.00635 0.0
C119 C 0.57491 0.96591 0.89105 0.0
C120 C 0.57691 0.97374 0.0324 0.0
H121 H 0.60825 0.94761 0.27063 0.0
N122 N 0.57513 1.0106 0.12897 0.0
C123 C 0.5964 0.9983 0.25616 0.0
C124 C 0.58079 0.97997 0.10532 0.0
C125 C 0.58529 1.02118 0.20495 0.0
C126 C 0.59928 0.96517 0.23075 0.0
C127 C 0.59253 0.95615 0.15505 0.0
O128 O 0.59809 0.07402 0.11923 0.0
O129 O 0.51251 0.06737 0.98124 0.0
O130 O 0.48604 1.01542 0.85916 0.0
O131 O 0.53635 0.05155 0.91849 0.0
O132 O 0.54679 0.09427 0.0842 0.0
O133 O 0.58506 0.07289 0.00176 0.0
O134 O 0.42704 0.99357 0.86702 0.0
O135 O 0.51263 0.99979 0.00564 0.0
O136 O 0.53905 0.05153 0.12776 0.0
O137 O 0.48877 1.01535 0.06835 0.0
O138 O 0.47835 0.97272 0.90302 0.0
O139 O 0.43986 0.99396 0.98424 0.0
C140 C 0.52134 0.09643 0.02847 0.0
C141 C 0.61998 0.12564 0.08422 0.0
C142 C 0.65677 0.17523 0.07377 0.0
C143 C 0.64299 0.13832 0.06053 0.0
C144 C 0.6467 0.19937 0.10977 0.0
C145 C 0.61097 0.15025 0.12201 0.0
C146 C 0.62399 0.18688 0.13373 0.0
C147 C 0.51144 0.03342 0.85696 0.0
C148 C 0.60621 0.08674 0.0698 0.0
C149 C 0.59822 0.92481 0.12834 0.0
C150 C 0.59407 0.91833 0.05398 0.0
C151 C 0.50386 0.97066 0.95867 0.0
C152 C 0.40476 0.94166 0.90044 0.0
C153 C 0.38167 0.92886 0.92383 0.0
C154 C 0.36769 0.89197 0.9096 0.0
C155 C 0.3776 0.86795 0.87291 0.0
C156 C 0.41363 0.9172 0.86195 0.0
C157 C 0.40039 0.88058 0.84924 0.0
C158 C 0.51367 0.03347 0.12993 0.0
C159 C 0.41875 0.98054 0.91594 0.0
H160 H 0.65022 0.1194 0.03195 0.0
H161 H 0.65707 0.22786 0.1215 0.0
H162 H 0.59426 0.14147 0.14358 0.0
H163 H 0.61681 0.20563 0.16264 0.0
H164 H 0.37456 0.94766 0.95294 0.0
H165 H 0.36707 0.83948 0.86046 0.0
H166 H 0.43039 0.92611 0.84062 0.0
H167 H 0.40745 0.86193 0.8198 0.0
Tb168 Tb 0.47007 0.51541 0.9486 0.0
C169 C 0.59326 0.61098 0.18685 0.0
C170 C 0.59837 0.66829 0.14615 0.0
C171 C 0.62092 0.66538 0.28 0.0
C172 C 0.58683 0.63077 0.12962 0.0
C173 C 0.61109 0.62784 0.26273 0.0
C174 C 0.61458 0.6856 0.2217 0.0
C175 C 0.61127 0.56922 0.29759 0.0
N176 N 0.58405 0.57481 0.16738 0.0
C177 C 0.59389 0.55377 0.22137 0.0
C178 C 0.61955 0.60642 0.3185 0.0
Tb179 Tb 0.55471 0.55173 0.04103 0.0
N180 N 0.57171 0.61286 0.05762 0.0
C181 C 0.56975 0.63085 -0.00049 0.0
C182 C 0.59453 0.68702 0.08639 0.0
C183 C 0.58066 0.66811 0.01283 0.0
H184 H 0.5875 0.52498 0.2061 0.0
H185 H 0.57819 0.68222 0.96624 0.0
H186 H 0.62328 0.71444 0.23558 0.0
H187 H 0.61825 0.55241 0.34013 0.0
H188 H 0.55897 0.61684 0.94219 0.0
H189 H 0.44752 0.38531 0.02577 0.0
H190 H 0.60301 0.71585 0.09658 0.0
H191 H 0.43615 0.54124 0.78318 0.0
H192 H 0.46596 0.45076 0.04858 0.0
H193 H 0.40546 0.51326 0.64936 0.0
H194 H 0.63437 0.67892 0.33799 0.0
H195 H 0.42359 0.35111 0.89609 0.0
H196 H 0.40349 0.35193 0.75687 0.0
H197 H 0.63322 0.61832 0.37751 0.0
H198 H 0.39167 0.38699 0.65366 0.0
N199 N 0.45378 0.45423 0.93317 0.0
C200 C 0.4556 0.43651 0.99156 0.0
C201 C 0.43177 0.37998 0.90574 0.0
C202 C 0.42789 0.39843 0.84558 0.0
C203 C 0.44512 0.3992 0.97892 0.0
C204 C 0.43901 0.436 0.86142 0.0
H205 H 0.39158 0.44733 0.61303 0.0
N206 N 0.44052 0.49172 0.82266 0.0
C207 C 0.41286 0.49669 0.69223 0.0
C208 C 0.43195 0.45553 0.80377 0.0
C209 C 0.43018 0.51245 0.76828 0.0
C210 C 0.40519 0.45948 0.67191 0.0
C211 C 0.41421 0.43835 0.7281 0.0
O212 O 0.43016 0.53691 0.91934 0.0
O213 O 0.50868 0.56349 0.00042 0.0
O214 O 0.53647 0.55952 0.12428 0.0
O215 O 0.49078 0.51389 0.07081 0.0
O216 O 0.46835 0.56897 0.9169 0.0
O217 O 0.44257 0.50614 0.00782 0.0
O218 O 0.59388 0.52913 0.06832 0.0
O219 O 0.51611 0.50368 0.98889 0.0
O220 O 0.48819 0.50812 0.86496 0.0
O221 O 0.53406 0.55351 0.91892 0.0
O222 O 0.55639 0.49818 0.0726 0.0
O223 O 0.5828 0.56199 0.98337 0.0
C224 C 0.49598 0.58667 0.96394 0.0
C225 C 0.38812 0.50274 0.9371 0.0
C226 C 0.33458 0.4961 0.92699 0.0
C227 C 0.36656 0.51544 0.95829 0.0
C228 C 0.32523 0.46377 0.87661 0.0
C229 C 0.37731 0.47068 0.88586 0.0
C230 C 0.34633 0.45132 0.85636 0.0
C231 C 0.51326 0.53726 0.12935 0.0
C232 C 0.42171 0.52241 0.96703 0.0
C233 C 0.40503 0.40078 0.71148 0.0
C234 C 0.41182 0.38081 0.77023 0.0
C235 C 0.52879 0.48048 0.0254 0.0
C236 C 0.63687 0.56342 0.05437 0.0
C237 C 0.65694 0.55439 0.02357 0.0
C238 C 0.68893 0.57358 0.05474 0.0
C239 C 0.70022 0.60106 0.11729 0.0
C240 C 0.64942 0.59095 0.11682 0.0
C241 C 0.6807 0.60953 0.14792 0.0
C242 C 0.51148 0.53034 0.86016 0.0
C243 C 0.60299 0.54461 0.02254 0.0
H244 H 0.37442 0.54033 -0.0026 0.0
H245 H 0.30135 0.44777 0.85278 0.0
H246 H 0.39283 0.46045 0.86838 0.0
H247 H 0.33858 0.42646 0.81725 0.0
H248 H 0.64768 0.53314 0.97536 0.0
H249 H 0.72451 0.61593 0.14341 0.0
H250 H 0.63508 0.59811 0.14209 0.0
H251 H 0.68992 0.63067 0.19629 0.0
C252 C 0.01175 0.50255 0.74171 0.0
C253 C 1.00373 0.53039 0.77423 0.0
C254 C 0.01328 0.50349 0.67293 0.0
C255 C 0.9881 0.5467 0.50226 0.0
H256 H 0.05487 0.51382 0.4781 0.0
C257 C 0.01221 0.56678 0.2439 0.0
C258 C 0.02013 0.53886 0.21133 0.0
C259 C 1.01069 0.56589 0.31271 0.0
C260 C 0.03584 0.52272 0.4834 0.0
H261 H 0.99096 0.5812 0.75878 0.0
H262 H 0.99389 0.58302 0.63901 0.0
H263 H 0.05081 0.51215 0.59627 0.0
H264 H 0.03276 0.48798 0.22674 0.0
H265 H 0.02989 0.48627 0.34658 0.0
H266 H 0.97313 0.55729 0.38939 0.0
C267 C 0.99858 0.5601 0.66642 0.0
C268 C 0.03349 0.52176 0.55138 0.0
C269 C 0.99703 0.55915 0.73545 0.0
C270 C 0.02677 0.51009 0.25011 0.0
C271 C 0.02524 0.50919 0.31916 0.0
C272 C 0.99045 0.54767 0.43428 0.0
C273 C 1.00698 0.5324 0.63444 0.0
C274 C 1.00956 0.5337 0.56186 0.0
C275 C 0.01693 0.53697 0.35119 0.0
C276 C 0.01438 0.53572 0.4238 0.0
H277 H 0.01747 0.48014 0.76995 0.0
H278 H 0.01938 0.48139 0.64986 0.0
H279 H 0.96906 0.55559 0.50755 0.0
H280 H 1.00656 0.58922 0.21568 0.0
H281 H 1.00467 0.58805 0.33583 0.0
C282 C 0.53501 0.0591 0.26701 0.0
C283 C 0.51337 1.03305 0.20444 0.0
C284 C 0.53474 0.05908 0.33723 0.0
C285 C 0.50738 1.00098 0.44836 0.0
H286 H 0.52121 0.09122 0.57177 0.0
C287 C 0.49004 1.00777 0.71986 0.0
C288 C 0.51173 0.03379 0.78243 0.0
C289 C 0.4903 1.00776 0.64962 0.0
C290 C 0.51767 0.0658 0.53847 0.0
H291 H 0.47425 0.98668 0.16663 0.0
H292 H 0.47353 0.98684 0.28908 0.0
H293 H 0.52119 0.09092 0.44879 0.0
H294 H 0.55094 0.08006 0.82024 0.0
H295 H 0.55163 0.07986 0.69775 0.0
H296 H 0.50385 0.97586 0.53803 0.0
C297 C 0.49105 1.00702 0.28409 0.0
C298 C 0.51765 0.06562 0.46783 0.0
C299 C 0.49131 1.00706 0.21372 0.0
C300 C 0.53384 0.05971 0.77314 0.0
C301 C 0.53408 0.05973 0.70276 0.0
C302 C 0.5074 1.00116 0.51899 0.0
C303 C 0.51276 1.03306 0.34679 0.0
C304 C 0.51252 1.0332 0.42182 0.0
C305 C 0.51232 0.03372 0.64006 0.0
C306 C 0.51253 0.03358 0.565 0.0
H307 H 0.55208 0.07982 0.26172 0.0
H308 H 0.55202 0.07932 0.3843 0.0
H309 H 0.50385 0.97556 0.41506 0.0
H310 H 0.47293 0.98712 0.72515 0.0
H311 H 0.47298 0.98756 0.60254 0.0
C312 C 0.53182 0.55865 0.77421 0.0
C313 C 0.51177 0.53059 0.78514 0.0
C314 C 0.5319 0.55939 0.70372 0.0
C315 C 0.50902 0.50145 0.52049 0.0
H316 H 0.51798 0.59208 0.45029 0.0
C317 C 0.49297 0.50914 0.21552 0.0
C318 C 0.51296 0.53718 0.20439 0.0
C319 C 0.49291 0.5085 0.28606 0.0
C320 C 0.51585 0.56655 0.46924 0.0
H321 H 0.47671 0.48068 0.72992 0.0
H322 H 0.47631 0.48231 0.60677 0.0
H323 H 0.51749 0.5904 0.57239 0.0
H324 H 0.54791 0.58719 0.25926 0.0
H325 H 0.54837 0.58572 0.38252 0.0
H326 H 0.50739 0.47759 0.41736 0.0
C327 C 0.49217 0.50376 0.65295 0.0
C328 C 0.51554 0.56557 0.53954 0.0
C329 C 0.4921 0.50302 0.72358 0.0
C330 C 0.53257 0.56486 0.26577 0.0
C331 C 0.53254 0.56421 0.33647 0.0
C332 C 0.50933 0.50242 0.45019 0.0
C333 C 0.51202 0.53203 0.64182 0.0
C334 C 0.51213 0.533 0.56635 0.0
C335 C 0.51277 0.53593 0.34782 0.0
C336 C 0.51272 0.53499 0.42336 0.0
H337 H 0.54746 0.5803 0.8201 0.0
H338 H 0.54792 0.5813 0.69808 0.0
H339 H 0.50688 0.47592 0.53943 0.0
H340 H 0.47736 0.48741 0.16978 0.0
H341 H 0.47694 0.48658 0.29183 0.0
C342 C 0.09049 0.52176 0.96572 0.0
C343 C 0.09296 0.536 0.036 0.0
C344 C 0.11719 0.51744 0.95742 0.0
C345 C 0.20549 0.54907 0.05267 0.0
H346 H 0.1994 0.47353 0.90347 0.0
C347 C 0.31442 0.51841 0.01824 0.0
C348 C 0.30996 0.50819 0.94399 0.0
C349 C 0.28907 0.52334 0.03273 0.0
C350 C 0.20158 0.49505 0.94507 0.0
H351 H 0.1257 0.55681 0.15259 0.0
H352 H 0.17198 0.54838 0.13916 0.0
H353 H 0.15349 0.47697 0.92261 0.0
H354 H 0.27556 0.49786 0.82675 0.0
H355 H 0.23202 0.50636 0.85171 0.0
H356 H 0.25391 0.56664 0.07566 0.0
C357 C 0.14956 0.54101 0.08968 0.0
C358 C 0.17502 0.49711 0.95599 0.0
C359 C 0.12288 0.54552 0.09774 0.0
C360 C 0.27991 0.50505 0.8848 0.0
C361 C 0.25475 0.50972 0.89917 0.0
C362 C 0.23219 0.54677 0.0422 0.0
C363 C 0.14736 0.52736 0.0191 0.0
C364 C 0.1763 0.52437 0.00947 0.0
C365 C 0.2586 0.51803 0.97335 0.0
C366 C 0.2306 0.51996 0.98756 0.0
H367 H 0.0681 0.51494 0.91639 0.0
H368 H 0.11416 0.50738 0.90172 0.0
H369 H 0.20771 0.57088 0.09366 0.0
H370 H 0.33709 0.52087 0.0653 0.0
H371 H 0.29309 0.52983 0.09067 0.0
C372 C 0.70725 0.17135 0.07009 0.0
C373 C 0.6826 0.18859 0.05352 0.0
C374 C 0.73294 0.18561 0.05709 0.0
C375 C 0.75996 0.24818 0.95291 0.0
H376 H 0.84228 0.2544 0.11472 0.0
C377 C 0.87329 0.33393 0.96167 0.0
C378 C 0.90046 0.32071 0.98987 0.0
C379 C 0.84612 0.31634 0.9654 0.0
C380 C 0.81951 0.2524 0.06841 0.0
H381 H 0.66497 0.2335 0.00742 0.0
H382 H 0.70993 0.25852 0.98506 0.0
H383 H 0.79575 0.22571 0.12668 0.0
H384 H 0.92013 0.27834 0.04368 0.0
H385 H 0.87255 0.24711 0.04803 0.0
H386 H 0.78374 0.27488 0.89457 0.0
C387 C 0.70936 0.23394 0.00801 0.0
C388 C 0.79282 0.23597 0.07535 0.0
C389 C 0.68375 0.21979 0.02143 0.0
C390 C 0.89959 0.28913 0.02076 0.0
C391 C 0.87239 0.27145 0.02418 0.0
C392 C 0.7867 0.26447 0.94575 0.0
C393 C 0.73447 0.21732 0.02682 0.0
C394 C 0.76274 0.23377 0.01784 0.0
C395 C 0.84538 0.28498 -0.00287 0.0
C396 C 0.81683 0.26691 0.00358 0.0
H397 H 0.70719 0.14745 0.09543 0.0
H398 H 0.75176 0.17196 0.07137 0.0
H399 H 0.7371 0.24657 0.90729 0.0
H400 H 0.87295 0.3579 0.93651 0.0
H401 H 0.82589 0.32774 0.94467 0.0
C402 C 0.50499 0.90872 0.91078 0.0
C403 C 0.50953 0.93373 0.97232 0.0
C404 C 0.50686 0.87293 0.91724 0.0
C405 C 0.50566 0.80148 0.03989 0.0
H406 H 0.53052 0.75065 0.90715 0.0
C407 C 0.51481 0.64935 0.04619 0.0
C408 C 0.50497 0.62732 0.97612 0.0
C409 C 0.51787 0.68707 0.05197 0.0
C410 C 0.52316 0.764 0.94442 0.0
H411 H 0.51802 0.93894 0.08914 0.0
H412 H 0.52208 0.87678 0.10153 0.0
H413 H 0.53155 0.81379 0.9066 0.0
H414 H 0.48953 0.62851 0.85722 0.0
H415 H 0.49547 0.69308 0.86705 0.0
H416 H 0.49768 0.75125 0.0781 0.0
C417 C 0.51718 0.88493 0.04746 0.0
C418 C 0.52364 0.80079 0.94397 0.0
C419 C 0.51532 0.92107 0.04083 0.0
C420 C 0.49808 0.64441 0.91253 0.0
C421 C 0.50153 0.68185 0.91834 0.0
C422 C 0.50538 0.76454 0.04068 0.0
C423 C 0.51302 0.85988 0.98563 0.0
C424 C 0.51438 0.82049 0.99064 0.0
C425 C 0.51125 0.70423 0.98795 0.0
C426 C 0.51363 0.74472 0.99198 0.0
H427 H 0.49966 0.91689 0.85647 0.0
H428 H 0.50256 0.85523 0.86711 0.0
H429 H 0.4981 0.8148 0.07674 0.0
H430 H 0.51938 0.63734 0.09626 0.0
H431 H 0.52549 0.70279 0.10691 0.0
C432 C 0.90074 0.52169 0.88733 0.0
C433 C 0.93076 0.53292 0.94854 0.0
C434 C 0.87394 0.52622 0.89469 0.0
C435 C 0.84736 0.5758 0.01698 0.0
H436 H 0.77087 0.50073 0.91455 0.0
C437 C 0.73129 0.5951 0.01494 0.0
C438 C 0.71156 0.56625 0.02488 0.0
C439 C 0.75654 0.5903 0.00098 0.0
C440 C 0.792 0.52192 0.94399 0.0
H441 H 0.95566 0.5571 0.06661 0.0
H442 H 0.90929 0.56556 0.07945 0.0
H443 H 0.81785 0.49465 0.90186 0.0
H444 H 0.70253 0.50917 0.02445 0.0
H445 H 0.74661 0.50054 -0.00047 0.0
H446 H 0.82181 0.60278 0.06028 0.0
C447 C 0.90638 0.55369 0.02494 0.0
C448 C 0.81902 0.51863 0.93599 0.0
C449 C 0.93319 0.54896 0.01758 0.0
C450 C 0.71696 0.53194 0.01639 0.0
C451 C 0.74242 0.52709 0.00242 0.0
C452 C 0.82035 0.57915 0.02471 0.0
C453 C 0.87619 0.54198 0.96383 0.0
C454 C 0.8472 0.54554 0.97229 0.0
C455 C 0.76318 0.55642 -0.00349 0.0
C456 C 0.79211 0.55234 0.9882 0.0
H457 H 0.89793 0.50895 0.83351 0.0
H458 H 0.85138 0.51731 0.84585 0.0
H459 H 0.86833 0.59728 0.04547 0.0
H460 H 0.72772 0.62188 0.02026 0.0
H461 H 0.77118 0.61346 -0.0053 0.0
C462 C 0.12488 0.77928 0.96344 0.0
C463 C 0.12386 0.7477 -0.00566 0.0
C464 C 0.15209 0.79671 0.95979 0.0
C465 C 0.23766 0.80294 0.03747 0.0
H466 H 0.22863 0.84186 0.85671 0.0
C467 C 0.34048 0.84714 0.96101 0.0
C468 C 0.34179 0.87853 0.92959 0.0
C469 C 0.31485 0.83302 0.97439 0.0
C470 C 0.23155 0.83155 0.90798 0.0
H471 H 0.15115 0.71029 0.04749 0.0
H472 H 0.19821 0.74 0.03885 0.0
H473 H 0.18209 0.81348 0.86895 0.0
H474 H 0.31747 0.92001 0.88873 0.0
H475 H 0.27286 0.89552 0.91267 0.0
H476 H 0.28727 0.82047 0.07556 0.0
C477 C 0.17809 0.75159 0.01832 0.0
C478 C 0.20485 0.81529 0.91509 0.0
C479 C 0.15091 0.73425 0.02231 0.0
C480 C 0.31728 0.89595 0.91355 0.0
C481 C 0.29157 0.88172 0.92649 0.0
C482 C 0.2644 0.81904 0.03012 0.0
C483 C 0.17897 0.78293 0.98658 0.0
C484 C 0.20753 0.80075 0.97989 0.0
C485 C 0.28988 0.84986 0.95618 0.0
C486 C 0.26163 0.83351 0.96526 0.0
H487 H 0.10444 0.79024 0.9407 0.0
H488 H 0.15204 0.82105 0.93596 0.0
H489 H 0.24063 0.79251 0.08862 0.0
H490 H 0.35915 0.83328 0.97457 0.0
H491 H 0.31415 0.80832 -0.0031 0.0
C492 C 0.51051 0.41795 0.94283 0.0
C493 C 0.52001 0.43982 0.01287 0.0
C494 C 0.50758 0.38024 0.93685 0.0
C495 C 0.50192 0.30302 0.04345 0.0
H496 H 0.52764 0.25266 0.91202 0.0
C497 C 0.52015 0.15829 0.07663 0.0
C498 C 0.51575 0.1334 0.01507 0.0
C499 C 0.5183 0.1941 0.07037 0.0
C500 C 0.5199 0.26586 0.9486 0.0
H501 H 0.53511 0.43839 0.1316 0.0
H502 H 0.52938 0.37385 0.12141 0.0
H503 H 0.52803 0.31622 0.91098 0.0
H504 H 0.50758 0.12843 0.89849 0.0
H505 H 0.50359 0.19063 0.88644 0.0
H506 H 0.49339 0.2531 0.08069 0.0
C507 C 0.52346 0.38518 0.07027 0.0
C508 C 0.52016 0.3028 0.948 0.0
C509 C 0.52678 0.4226 0.07628 0.0
C510 C 0.51016 0.14622 0.94678 0.0
C511 C 0.50833 0.18237 0.94036 0.0
C512 C 0.50147 0.26623 0.04372 0.0
C513 C 0.514 0.36294 0.00065 0.0
C514 C 0.51166 0.32246 -0.0036 0.0
C515 C 0.51233 0.20729 0.00219 0.0
C516 C 0.51096 0.24669 -0.00264 0.0
H517 H 0.50609 0.43007 0.89294 0.0
H518 H 0.50018 0.36463 0.88192 0.0
H519 H 0.49437 0.31624 0.08045 0.0
H520 H 0.52533 0.15001 0.13079 0.0
H521 H 0.52247 0.21172 0.12049 0.0
loop_
_geom_bond_atom_site_label_1
_geom_bond_atom_site_label_2
_geom_bond_distance
_geom_bond_site_symmetry_2
_ccdc_geom_bond_type
Tb0 N31 2.660 1_656 S
Tb0 N38 2.600 . S
Tb0 O44 2.546 . S
Tb0 O45 2.612 . S
Tb0 O47 2.316 1_556 S
Tb0 O48 2.552 . S
Tb0 O49 2.413 1_556 S
Tb0 O51 2.362 1_656 S
Tb0 O52 2.421 . S
Tb0 C64 2.833 . S
C1 C4 1.432 . S
C1 C5 1.414 . S
C1 N8 1.359 1_655 S
C2 C4 1.417 1_556 S
C2 C6 1.432 1_556 S
C2 C14 1.410 . S
C3 C5 1.444 . S
C3 C6 1.317 . S
C3 H26 0.929 . S
C4 C1 1.432 . S
C4 C2 1.417 1_554 S
C4 N12 1.360 1_554 S
C5 C1 1.414 . S
C5 C3 1.444 . S
C5 C10 1.385 1_655 S
C6 C2 1.432 1_554 S
C6 C3 1.317 . S
C6 H18 0.930 1_554 S
C7 C9 1.392 . S
C7 C10 1.370 . S
C7 H19 0.931 . S
N8 C1 1.359 1_455 S
N8 C9 1.327 . S
N8 Tb11 2.600 . S
C9 C7 1.392 . S
C9 N8 1.327 . S
C9 H16 0.930 . S
C10 C5 1.385 1_455 S
C10 C7 1.370 . S
C10 H29 0.930 . S
Tb11 N8 2.600 . S
Tb11 N12 2.660 1_454 S
Tb11 O45 2.364 1_454 S
Tb11 O46 2.421 . S
Tb11 O50 2.546 . S
Tb11 O51 2.610 . S
Tb11 O53 2.320 1_554 S
Tb11 O54 2.552 . S
Tb11 O55 2.413 1_554 S
Tb11 C75 2.833 . S
N12 C4 1.360 1_556 S
N12 Tb11 2.660 1_656 S
N12 C13 1.305 . S
C13 N12 1.305 . S
C13 C15 1.407 . S
C13 H20 0.930 . S
C14 C2 1.410 . S
C14 C15 1.345 . S
C14 H22 0.930 . S
C15 C13 1.407 . S
C15 C14 1.345 . S
C15 H17 0.930 . S
H16 C9 0.930 . S
H17 C15 0.930 . S
H18 C6 0.930 1_556 S
H19 C7 0.931 . S
H20 C13 0.930 . S
H21 C35 0.930 . S
H22 C14 0.930 . S
H23 C41 0.930 . S
H24 C32 0.930 . S
H25 C39 0.931 . S
H26 C3 0.929 . S
H27 C33 0.930 . S
H28 C66 0.930 1_554 S
H29 C10 0.930 . S
H30 C65 0.929 . S
N31 Tb0 2.660 1_454 S
N31 C32 1.305 . S
N31 C36 1.360 1_554 S
C32 H24 0.930 . S
C32 N31 1.305 . S
C32 C35 1.407 . S
C33 H27 0.930 . S
C33 C34 1.410 . S
C33 C35 1.345 . S
C34 C33 1.410 . S
C34 C36 1.417 1_554 S
C34 C66 1.432 1_554 S
C35 H21 0.930 . S
C35 C32 1.407 . S
C35 C33 1.345 . S
C36 N31 1.360 1_556 S
C36 C34 1.417 1_556 S
C36 C40 1.432 . S
H37 C42 0.930 . S
N38 Tb0 2.600 . S
N38 C40 1.359 1_655 S
N38 C41 1.327 . S
C39 H25 0.931 . S
C39 C41 1.392 . S
C39 C42 1.370 . S
C40 C36 1.432 . S
C40 N38 1.359 1_455 S
C40 C43 1.414 . S
C41 H23 0.930 . S
C41 N38 1.327 . S
C41 C39 1.392 . S
C42 H37 0.930 . S
C42 C39 1.370 . S
C42 C43 1.385 1_655 S
C43 C40 1.414 . S
C43 C42 1.385 1_455 S
C43 C65 1.444 . S
O44 Tb0 2.546 . S
O44 C64 1.251 . S
O45 Tb0 2.612 . S
O45 Tb11 2.364 1_656 S
O45 C56 1.281 . S
O46 Tb11 2.421 . S
O46 C63 1.262 . S
O47 Tb0 2.316 1_554 S
O47 C63 1.264 1_655 S
O48 Tb0 2.552 . S
O48 C56 1.243 . S
O49 Tb0 2.413 1_554 S
O49 C64 1.256 1_554 S
O50 Tb11 2.546 . S
O50 C75 1.251 . S
O51 Tb0 2.362 1_454 S
O51 Tb11 2.610 . S
O51 C67 1.283 . S
O52 Tb0 2.421 . S
O52 C74 1.262 . S
O53 Tb11 2.320 1_556 S
O53 C74 1.260 1_455 S
O54 Tb11 2.552 . S
O54 C67 1.243 . S
O55 Tb11 2.413 1_556 S
O55 C75 1.256 1_556 S
C56 O45 1.281 . S
C56 O48 1.243 . S
C57 C59 1.382 . S
C57 C61 1.393 . S
C57 C64 1.500 . S
C58 C59 1.400 . S
C58 C60 1.384 . S
C59 C57 1.382 . S
C59 C58 1.400 . S
C59 H76 0.930 1_556 S
C60 C58 1.384 . S
C60 C62 1.392 . S
C60 H77 0.931 . S
C61 C57 1.393 . S
C61 C62 1.401 . S
C61 H78 0.930 . S
C62 C60 1.392 . S
C62 C61 1.401 . S
C62 H79 0.930 . S
C63 O46 1.262 . S
C63 O47 1.264 1_455 S
C64 Tb0 2.833 . S
C64 O44 1.251 . S
C64 O49 1.256 1_556 S
C64 C57 1.500 . S
C65 H30 0.929 . S
C65 C43 1.444 . S
C65 C66 1.317 . S
C66 H28 0.930 1_556 S
C66 C34 1.432 1_556 S
C66 C65 1.317 . S
C67 O51 1.283 . S
C67 O54 1.243 . S
C68 C69 1.382 . S
C68 C72 1.393 . S
C68 C75 1.500 . S
C69 C68 1.382 . S
C69 C70 1.400 . S
C69 H80 0.930 1_554 S
C70 C69 1.400 . S
C70 C71 1.384 . S
C71 C70 1.384 . S
C71 C73 1.392 . S
C71 H81 0.931 . S
C72 C68 1.393 . S
C72 C73 1.401 . S
C72 H82 0.930 . S
C73 C71 1.392 . S
C73 C72 1.401 . S
C73 H83 0.930 . S
C74 O52 1.262 . S
C74 O53 1.260 1_655 S
C75 Tb11 2.833 . S
C75 O50 1.251 . S
C75 O55 1.256 1_554 S
C75 C68 1.500 . S
H76 C59 0.930 1_554 S
H77 C60 0.931 . S
H78 C61 0.930 . S
H79 C62 0.930 . S
H80 C69 0.930 1_556 S
H81 C71 0.931 . S
H82 C72 0.930 . S
H83 C73 0.930 . S
Tb84 N115 2.660 1_545 S
Tb84 N122 2.587 1_545 S
Tb84 O128 2.546 . S
Tb84 O129 2.610 1_554 S
Tb84 O131 2.320 1_554 S
Tb84 O132 2.552 . S
Tb84 O133 2.413 . S
Tb84 O135 2.362 1_545 S
Tb84 O136 2.421 . S
Tb84 C148 2.833 . S
C85 C88 1.432 . S
C85 C89 1.414 . S
C85 N92 1.359 . S
C86 C88 1.417 . S
C86 C90 1.432 . S
C86 C98 1.410 1_556 S
C87 C89 1.444 . S
C87 C90 1.317 . S
C87 H110 0.929 . S
C88 C85 1.432 . S
C88 C86 1.417 . S
C88 N96 1.360 . S
C89 C85 1.414 . S
C89 C87 1.444 . S
C89 C94 1.385 . S
C90 C86 1.432 . S
C90 C87 1.317 . S
C90 H102 0.930 . S
C91 C93 1.392 . S
C91 C94 1.370 1_565 S
C91 H103 0.931 . S
N92 C85 1.359 . S
N92 C93 1.327 1_545 S
N92 Tb95 2.600 1_545 S
C93 C91 1.392 . S
C93 N92 1.327 1_565 S
C93 H100 0.930 . S
C94 C89 1.385 . S
C94 C91 1.370 1_545 S
C94 H113 0.930 . S
Tb95 N92 2.600 1_565 S
Tb95 N96 2.660 1_565 S
Tb95 O129 2.362 1_565 S
Tb95 O130 2.421 . S
Tb95 O134 2.546 . S
Tb95 O135 2.610 1_556 S
Tb95 O137 2.320 1_556 S
Tb95 O138 2.552 . S
Tb95 O139 2.413 . S
Tb95 C159 2.833 . S
N96 C88 1.360 . S
N96 Tb95 2.660 1_545 S
N96 C97 1.305 1_556 S
C97 N96 1.305 1_554 S
C97 C99 1.407 . S
C97 H104 0.930 . S
C98 C86 1.410 1_554 S
C98 C99 1.345 . S
C98 H106 0.930 . S
C99 C97 1.407 . S
C99 C98 1.345 . S
C99 H101 0.930 . S
H100 C93 0.930 . S
H101 C99 0.930 . S
H102 C90 0.930 . S
H103 C91 0.931 . S
H104 C97 0.930 . S
H105 C119 0.930 . S
H106 C98 0.930 . S
H107 C125 0.930 . S
H108 C116 0.930 . S
H109 C123 0.931 . S
H110 C87 0.929 . S
H111 C117 0.930 . S
H112 C150 0.930 . S
H113 C94 0.930 . S
H114 C149 0.929 . S
N115 Tb84 2.660 1_565 S
N115 C116 1.305 1_554 S
N115 C120 1.360 . S
C116 H108 0.930 . S
C116 N115 1.305 1_556 S
C116 C119 1.407 . S
C117 H111 0.930 . S
C117 C118 1.410 1_556 S
C117 C119 1.345 . S
C118 C117 1.410 1_554 S
C118 C120 1.417 . S
C118 C150 1.432 . S
C119 H105 0.930 . S
C119 C116 1.407 . S
C119 C117 1.345 . S
C120 N115 1.360 . S
C120 C118 1.417 . S
C120 C124 1.432 . S
H121 C126 0.930 . S
N122 Tb84 2.587 1_565 S
N122 C124 1.379 . S
N122 C125 1.320 1_565 S
C123 H109 0.931 . S
C123 C125 1.392 . S
C123 C126 1.370 1_545 S
C124 C120 1.432 . S
C124 N122 1.379 . S
C124 C127 1.414 . S
C125 H107 0.930 . S
C125 N122 1.320 1_545 S
C125 C123 1.392 . S
C126 H121 0.930 . S
C126 C123 1.370 1_565 S
C126 C127 1.385 . S
C127 C124 1.414 . S
C127 C126 1.385 . S
C127 C149 1.444 . S
O128 Tb84 2.546 . S
O128 C148 1.251 . S
O129 Tb84 2.610 1_556 S
O129 Tb95 2.362 1_545 S
O129 C140 1.283 . S
O130 Tb95 2.421 . S
O130 C147 1.262 1_565 S
O131 Tb84 2.320 1_556 S
O131 C147 1.260 . S
O132 Tb84 2.552 . S
O132 C140 1.243 1_554 S
O133 Tb84 2.413 . S
O133 C148 1.256 . S
O134 Tb95 2.546 . S
O134 C159 1.251 . S
O135 Tb84 2.362 1_565 S
O135 Tb95 2.610 1_554 S
O135 C151 1.283 . S
O136 Tb84 2.421 . S
O136 C158 1.267 . S
O137 Tb95 2.320 1_554 S
O137 C158 1.261 1_565 S
O138 Tb95 2.552 . S
O138 C151 1.243 1_556 S
O139 Tb95 2.413 . S
O139 C159 1.256 . S
C140 O129 1.283 . S
C140 O132 1.243 1_556 S
C141 C143 1.382 . S
C141 C145 1.393 . S
C141 C148 1.500 . S
C142 C143 1.400 . S
C142 C144 1.384 . S
C143 C141 1.382 . S
C143 C142 1.400 . S
C143 H160 0.930 1_554 S
C144 C142 1.384 . S
C144 C146 1.392 . S
C144 H161 0.931 . S
C145 C141 1.393 . S
C145 C146 1.401 . S
C145 H162 0.930 . S
C146 C144 1.392 . S
C146 C145 1.401 . S
C146 H163 0.930 . S
C147 O130 1.262 1_545 S
C147 O131 1.260 . S
C148 Tb84 2.833 . S
C148 O128 1.251 . S
C148 O133 1.256 . S
C148 C141 1.500 . S
C149 H114 0.929 . S
C149 C127 1.444 . S
C149 C150 1.317 . S
C150 H112 0.930 . S
C150 C118 1.432 . S
C150 C149 1.317 . S
C151 O135 1.283 . S
C151 O138 1.243 1_554 S
C152 C153 1.382 . S
C152 C156 1.393 . S
C152 C159 1.500 . S
C153 C152 1.382 . S
C153 C154 1.400 . S
C153 H164 0.930 1_556 S
C154 C153 1.400 . S
C154 C155 1.384 . S
C155 C154 1.384 . S
C155 C157 1.392 . S
C155 H165 0.931 . S
C156 C152 1.393 . S
C156 C157 1.401 . S
C156 H166 0.930 . S
C157 C155 1.392 . S
C157 C156 1.401 . S
C157 H167 0.930 . S
C158 O136 1.267 . S
C158 O137 1.261 1_545 S
C159 Tb95 2.833 . S
C159 O134 1.251 . S
C159 O139 1.256 . S
C159 C152 1.500 . S
H160 C143 0.930 1_556 S
H161 C144 0.931 . S
H162 C145 0.930 . S
H163 C146 0.930 . S
H164 C153 0.930 1_554 S
H165 C155 0.931 . S
H166 C156 0.930 . S
H167 C157 0.930 . S
Tb168 N199 2.660 . S
Tb168 N206 2.600 . S
Tb168 O212 2.546 . S
Tb168 O213 2.610 1_556 S
Tb168 O215 2.320 1_556 S
Tb168 O216 2.552 . S
Tb168 O217 2.413 . S
Tb168 O219 2.362 . S
Tb168 O220 2.421 . S
Tb168 C232 2.833 . S
C169 C172 1.432 . S
C169 C173 1.414 . S
C169 N176 1.359 . S
C170 C172 1.417 . S
C170 C174 1.432 . S
C170 C182 1.410 1_554 S
C171 C173 1.444 . S
C171 C174 1.317 . S
C171 H194 0.929 . S
C172 C169 1.432 . S
C172 C170 1.417 . S
C172 N180 1.360 . S
C173 C169 1.414 . S
C173 C171 1.444 . S
C173 C178 1.385 . S
C174 C170 1.432 . S
C174 C171 1.317 . S
C174 H186 0.930 . S
C175 C177 1.392 . S
C175 C178 1.370 . S
C175 H187 0.931 . S
N176 C169 1.359 . S
N176 C177 1.327 . S
N176 Tb179 2.600 . S
C177 C175 1.392 . S
C177 N176 1.327 . S
C177 H184 0.930 . S
C178 C173 1.385 . S
C178 C175 1.370 . S
C178 H197 0.930 . S
Tb179 N176 2.600 . S
Tb179 N180 2.660 . S
Tb179 O213 2.362 . S
Tb179 O214 2.421 . S
Tb179 O218 2.546 . S
Tb179 O219 2.610 1_554 S
Tb179 O221 2.320 1_554 S
Tb179 O222 2.552 . S
Tb179 O223 2.413 . S
Tb179 C243 2.833 . S
N180 C172 1.360 . S
N180 Tb179 2.660 . S
N180 C181 1.305 1_554 S
C181 N180 1.305 1_556 S
C181 C183 1.407 . S
C181 H188 0.930 . S
C182 C170 1.410 1_556 S
C182 C183 1.345 . S
C182 H190 0.930 . S
C183 C181 1.407 . S
C183 C182 1.345 . S
C183 H185 0.930 . S
H184 C177 0.930 . S
H185 C183 0.930 . S
H186 C174 0.930 . S
H187 C175 0.931 . S
H188 C181 0.930 . S
H189 C203 0.930 . S
H190 C182 0.930 . S
H191 C209 0.930 . S
H192 C200 0.930 . S
H193 C207 0.931 . S
H194 C171 0.929 . S
H195 C201 0.930 . S
H196 C234 0.930 . S
H197 C178 0.930 . S
H198 C233 0.929 . S
N199 Tb168 2.660 . S
N199 C200 1.305 1_556 S
N199 C204 1.360 . S
C200 H192 0.930 . S
C200 N199 1.305 1_554 S
C200 C203 1.407 . S
C201 H195 0.930 . S
C201 C202 1.410 1_554 S
C201 C203 1.345 . S
C202 C201 1.410 1_556 S
C202 C204 1.417 . S
C202 C234 1.432 . S
C203 H189 0.930 . S
C203 C200 1.407 . S
C203 C201 1.345 . S
C204 N199 1.360 . S
C204 C202 1.417 . S
C204 C208 1.432 . S
H205 C210 0.930 . S
N206 Tb168 2.600 . S
N206 C208 1.359 . S
N206 C209 1.327 . S
C207 H193 0.931 . S
C207 C209 1.392 . S
C207 C210 1.370 . S
C208 C204 1.432 . S
C208 N206 1.359 . S
C208 C211 1.414 . S
C209 H191 0.930 . S
C209 N206 1.327 . S
C209 C207 1.392 . S
C210 H205 0.930 . S
C210 C207 1.370 . S
C210 C211 1.385 . S
C211 C208 1.414 . S
C211 C210 1.385 . S
C211 C233 1.444 . S
O212 Tb168 2.546 . S
O212 C232 1.251 . S
O213 Tb168 2.610 1_554 S
O213 Tb179 2.362 . S
O213 C224 1.283 . S
O214 Tb179 2.421 . S
O214 C231 1.262 . S
O215 Tb168 2.320 1_554 S
O215 C231 1.260 . S
O216 Tb168 2.552 . S
O216 C224 1.243 1_556 S
O217 Tb168 2.413 . S
O217 C232 1.256 . S
O218 Tb179 2.546 . S
O218 C243 1.251 . S
O219 Tb168 2.362 . S
O219 Tb179 2.610 1_556 S
O219 C235 1.283 . S
O220 Tb168 2.421 . S
O220 C242 1.262 . S
O221 Tb179 2.320 1_556 S
O221 C242 1.260 . S
O222 Tb179 2.552 . S
O222 C235 1.243 1_554 S
O223 Tb179 2.413 . S
O223 C243 1.256 . S
C224 O213 1.283 . S
C224 O216 1.243 1_554 S
C225 C227 1.382 . S
C225 C229 1.393 . S
C225 C232 1.500 . S
C226 C227 1.400 . S
C226 C228 1.384 . S
C227 C225 1.382 . S
C227 C226 1.400 . S
C227 H244 0.930 1_556 S
C228 C226 1.384 . S
C228 C230 1.392 . S
C228 H245 0.931 . S
C229 C225 1.393 . S
C229 C230 1.401 . S
C229 H246 0.930 . S
C230 C228 1.392 . S
C230 C229 1.401 . S
C230 H247 0.930 . S
C231 O214 1.262 . S
C231 O215 1.260 . S
C232 Tb168 2.833 . S
C232 O212 1.251 . S
C232 O217 1.256 . S
C232 C225 1.500 . S
C233 H198 0.929 . S
C233 C211 1.444 . S
C233 C234 1.317 . S
C234 H196 0.930 . S
C234 C202 1.432 . S
C234 C233 1.317 . S
C235 O219 1.283 . S
C235 O222 1.243 1_556 S
C236 C237 1.382 . S
C236 C240 1.393 . S
C236 C243 1.500 . S
C237 C236 1.382 . S
C237 C238 1.400 . S
C237 H248 0.930 1_554 S
C238 C237 1.400 . S
C238 C239 1.384 . S
C239 C238 1.384 . S
C239 C241 1.392 . S
C239 H249 0.931 . S
C240 C236 1.393 . S
C240 C241 1.401 . S
C240 H250 0.930 . S
C241 C239 1.392 . S
C241 C240 1.401 . S
C241 H251 0.930 . S
C242 O220 1.262 . S
C242 O221 1.260 . S
C243 Tb179 2.833 . S
C243 O218 1.251 . S
C243 O223 1.256 . S
C243 C236 1.500 . S
H244 C227 0.930 1_554 S
H245 C228 0.931 . S
H246 C229 0.930 . S
H247 C230 0.930 . S
H248 C237 0.930 1_556 S
H249 C239 0.931 . S
H250 C240 0.930 . S
H251 C241 0.930 . S
C252 C253 1.331 1_455 S
C252 C254 1.327 . S
C252 H277 0.950 . S
C253 C252 1.331 1_655 S
C253 C269 1.356 . S
C254 C252 1.327 . S
C254 C273 1.430 . S
C254 H278 0.950 . S
C255 C272 1.574 . S
C255 C274 1.359 1_655 S
C255 H279 0.949 . S
H256 C260 0.949 . S
C257 C258 1.349 1_655 S
C257 C259 1.327 . S
C257 H280 0.950 . S
C258 C257 1.349 1_455 S
C258 C270 1.349 . S
C259 C257 1.327 . S
C259 C275 1.429 1_655 S
C259 H281 0.950 . S
C260 H256 0.949 . S
C260 C268 1.574 . S
C260 C276 1.368 . S
H261 C269 0.950 . S
H262 C267 0.950 . S
H263 C268 0.949 . S
H264 C270 0.950 . S
H265 C271 0.950 . S
H266 C272 0.949 . S
C267 H262 0.950 . S
C267 C269 1.327 . S
C267 C273 1.424 1_655 S
C268 C260 1.574 . S
C268 H263 0.949 . S
C268 C274 1.388 . S
C269 C253 1.356 . S
C269 H261 0.950 . S
C269 C267 1.327 . S
C270 C258 1.349 . S
C270 H264 0.950 . S
C270 C271 1.327 . S
C271 H265 0.950 . S
C271 C270 1.327 . S
C271 C275 1.429 . S
C272 C255 1.574 . S
C272 H266 0.949 . S
C272 C276 1.368 1_655 S
C273 C254 1.430 . S
C273 C267 1.424 1_455 S
C273 C274 1.513 . S
C274 C255 1.359 1_455 S
C274 C268 1.388 . S
C274 C273 1.513 . S
C275 C259 1.429 1_455 S
C275 C271 1.429 . S
C275 C276 1.523 . S
C276 C260 1.368 . S
C276 C272 1.368 1_455 S
C276 C275 1.523 . S
H277 C252 0.950 . S
H278 C254 0.950 . S
H279 C255 0.949 . S
H280 C257 0.950 . S
H281 C259 0.950 . S
C282 C283 1.349 1_545 S
C282 C284 1.327 . S
C282 H307 0.950 . S
C283 C282 1.349 1_565 S
C283 C299 1.349 . S
C284 C282 1.327 . S
C284 C303 1.429 1_545 S
C284 H308 0.950 . S
C285 C302 1.574 . S
C285 C304 1.368 . S
C285 H309 0.949 . S
H286 C290 0.949 . S
C287 C288 1.349 1_565 S
C287 C289 1.327 . S
C287 H310 0.950 . S
C288 C287 1.349 1_545 S
C288 C300 1.349 . S
C289 C287 1.327 . S
C289 C305 1.429 1_565 S
C289 H311 0.950 . S
C290 H286 0.949 . S
C290 C298 1.574 . S
C290 C306 1.368 . S
H291 C299 0.950 . S
H292 C297 0.950 . S
H293 C298 0.949 . S
H294 C300 0.950 . S
H295 C301 0.950 . S
H296 C302 0.949 . S
C297 H292 0.950 . S
C297 C299 1.327 . S
C297 C303 1.429 . S
C298 C290 1.574 . S
C298 H293 0.949 . S
C298 C304 1.368 1_545 S
C299 C283 1.349 . S
C299 H291 0.950 . S
C299 C297 1.327 . S
C300 C288 1.349 . S
C300 H294 0.950 . S
C300 C301 1.327 . S
C301 H295 0.950 . S
C301 C300 1.327 . S
C301 C305 1.429 . S
C302 C285 1.574 . S
C302 H296 0.949 . S
C302 C306 1.368 1_565 S
C303 C284 1.429 1_565 S
C303 C297 1.429 . S
C303 C304 1.523 . S
C304 C285 1.368 . S
C304 C298 1.368 1_565 S
C304 C303 1.523 . S
C305 C289 1.429 1_545 S
C305 C301 1.429 . S
C305 C306 1.523 . S
C306 C290 1.368 . S
C306 C302 1.368 1_545 S
C306 C305 1.523 . S
H307 C282 0.950 . S
H308 C284 0.950 . S
H309 C285 0.949 . S
H310 C287 0.950 . S
H311 C289 0.950 . S
C312 C313 1.349 . S
C312 C314 1.327 . S
C312 H337 0.950 . S
C313 C312 1.349 . S
C313 C329 1.349 . S
C314 C312 1.327 . S
C314 C333 1.429 . S
C314 H338 0.950 . S
C315 C332 1.574 . S
C315 C334 1.368 . S
C315 H339 0.949 . S
H316 C320 0.949 . S
C317 C318 1.349 . S
C317 C319 1.327 . S
C317 H340 0.950 . S
C318 C317 1.349 . S
C318 C330 1.349 . S
C319 C317 1.327 . S
C319 C335 1.429 . S
C319 H341 0.950 . S
C320 H316 0.949 . S
C320 C328 1.574 . S
C320 C336 1.368 . S
H321 C329 0.950 . S
H322 C327 0.950 . S
H323 C328 0.949 . S
H324 C330 0.950 . S
H325 C331 0.950 . S
H326 C332 0.949 . S
C327 H322 0.950 . S
C327 C329 1.327 . S
C327 C333 1.429 . S
C328 C320 1.574 . S
C328 H323 0.949 . S
C328 C334 1.368 . S
C329 C313 1.349 . S
C329 H321 0.950 . S
C329 C327 1.327 . S
C330 C318 1.349 . S
C330 H324 0.950 . S
C330 C331 1.327 . S
C331 H325 0.950 . S
C331 C330 1.327 . S
C331 C335 1.429 . S
C332 C315 1.574 . S
C332 H326 0.949 . S
C332 C336 1.368 . S
C333 C314 1.429 . S
C333 C327 1.429 . S
C333 C334 1.523 . S
C334 C315 1.368 . S
C334 C328 1.368 . S
C334 C333 1.523 . S
C335 C319 1.429 . S
C335 C331 1.429 . S
C335 C336 1.523 . S
C336 C320 1.368 . S
C336 C332 1.368 . S
C336 C335 1.523 . S
H337 C312 0.950 . S
H338 C314 0.950 . S
H339 C315 0.949 . S
H340 C317 0.950 . S
H341 C319 0.950 . S
C342 C343 1.349 1_556 S
C342 C344 1.327 . S
C342 H367 0.950 . S
C343 C342 1.349 1_554 S
C343 C359 1.349 . S
C344 C342 1.327 . S
C344 C363 1.429 1_556 S
C344 H368 0.950 . S
C345 C362 1.574 . S
C345 C364 1.368 . S
C345 H369 0.949 . S
H346 C350 0.949 . S
C347 C348 1.349 1_554 S
C347 C349 1.327 . S
C347 H370 0.950 . S
C348 C347 1.349 1_556 S
C348 C360 1.349 . S
C349 C347 1.327 . S
C349 C365 1.429 . S
C349 H371 0.950 . S
C350 H346 0.949 . S
C350 C358 1.574 . S
C350 C366 1.368 1_556 S
H351 C359 0.950 . S
H352 C357 0.950 . S
H353 C358 0.949 . S
H354 C360 0.950 . S
H355 C361 0.950 . S
H356 C362 0.949 . S
C357 H352 0.950 . S
C357 C359 1.327 . S
C357 C363 1.429 . S
C358 C350 1.574 . S
C358 H353 0.949 . S
C358 C364 1.368 1_556 S
C359 C343 1.349 . S
C359 H351 0.950 . S
C359 C357 1.327 . S
C360 C348 1.349 . S
C360 H354 0.950 . S
C360 C361 1.327 . S
C361 H355 0.950 . S
C361 C360 1.327 . S
C361 C365 1.429 1_556 S
C362 C345 1.574 . S
C362 H356 0.949 . S
C362 C366 1.368 . S
C363 C344 1.429 1_554 S
C363 C357 1.429 . S
C363 C364 1.523 . S
C364 C345 1.368 . S
C364 C358 1.368 1_554 S
C364 C363 1.523 . S
C365 C349 1.429 . S
C365 C361 1.429 1_554 S
C365 C366 1.523 . S
C366 C350 1.368 1_554 S
C366 C362 1.368 . S
C366 C365 1.523 . S
H367 C342 0.950 . S
H368 C344 0.950 . S
H369 C345 0.949 . S
H370 C347 0.950 . S
H371 C349 0.950 . S
C372 C373 1.349 . S
C372 C374 1.327 . S
C372 H397 0.950 . S
C373 C372 1.349 . S
C373 C389 1.349 1_554 S
C374 C372 1.327 . S
C374 C393 1.429 . S
C374 H398 0.950 . S
C375 C392 1.574 . S
C375 C394 1.368 1_556 S
C375 H399 0.949 . S
H376 C380 0.949 . S
C377 C378 1.349 1_556 S
C377 C379 1.327 . S
C377 H400 0.950 . S
C378 C377 1.349 1_554 S
C378 C390 1.349 . S
C379 C377 1.327 . S
C379 C395 1.429 1_556 S
C379 H401 0.950 . S
C380 H376 0.949 . S
C380 C388 1.574 . S
C380 C396 1.368 . S
H381 C389 0.950 . S
H382 C387 0.950 . S
H383 C388 0.949 . S
H384 C390 0.950 . S
H385 C391 0.950 . S
H386 C392 0.949 . S
C387 H382 0.950 . S
C387 C389 1.327 . S
C387 C393 1.429 1_556 S
C388 C380 1.574 . S
C388 H383 0.949 . S
C388 C394 1.368 . S
C389 C373 1.349 1_556 S
C389 H381 0.950 . S
C389 C387 1.327 . S
C390 C378 1.349 . S
C390 H384 0.950 . S
C390 C391 1.327 . S
C391 H385 0.950 . S
C391 C390 1.327 . S
C391 C395 1.429 . S
C392 C375 1.574 . S
C392 H386 0.949 . S
C392 C396 1.368 1_556 S
C393 C374 1.429 . S
C393 C387 1.429 1_554 S
C393 C394 1.523 . S
C394 C375 1.368 1_554 S
C394 C388 1.368 . S
C394 C393 1.523 . S
C395 C379 1.429 1_554 S
C395 C391 1.429 . S
C395 C396 1.523 . S
C396 C380 1.368 . S
C396 C392 1.368 1_554 S
C396 C395 1.523 . S
H397 C372 0.950 . S
H398 C374 0.950 . S
H399 C375 0.949 . S
H400 C377 0.950 . S
H401 C379 0.950 . S
C402 C403 1.349 1_556 S
C402 C404 1.327 . S
C402 H427 0.950 . S
C403 C402 1.349 1_554 S
C403 C419 1.349 . S
C404 C402 1.327 . S
C404 C423 1.429 1_556 S
C404 H428 0.950 . S
C405 C422 1.574 . S
C405 C424 1.368 . S
C405 H429 0.949 . S
H406 C410 0.949 . S
C407 C408 1.349 . S
C407 C409 1.327 . S
C407 H430 0.950 . S
C408 C407 1.349 . S
C408 C420 1.349 1_554 S
C409 C407 1.327 . S
C409 C425 1.429 . S
C409 H431 0.950 . S
C410 H406 0.949 . S
C410 C418 1.574 . S
C410 C426 1.368 1_556 S
H411 C419 0.950 . S
H412 C417 0.950 . S
H413 C418 0.949 . S
H414 C420 0.950 . S
H415 C421 0.950 . S
H416 C422 0.949 . S
C417 H412 0.950 . S
C417 C419 1.327 . S
C417 C423 1.429 . S
C418 C410 1.574 . S
C418 H413 0.949 . S
C418 C424 1.368 1_556 S
C419 C403 1.349 . S
C419 H411 0.950 . S
C419 C417 1.327 . S
C420 C408 1.349 1_556 S
C420 H414 0.950 . S
C420 C421 1.327 . S
C421 H415 0.950 . S
C421 C420 1.327 . S
C421 C425 1.429 1_556 S
C422 C405 1.574 . S
C422 H416 0.949 . S
C422 C426 1.368 . S
C423 C404 1.429 1_554 S
C423 C417 1.429 . S
C423 C424 1.523 . S
C424 C405 1.368 . S
C424 C418 1.368 1_554 S
C424 C423 1.523 . S
C425 C409 1.429 . S
C425 C421 1.429 1_554 S
C425 C426 1.523 . S
C426 C410 1.368 1_554 S
C426 C422 1.368 . S
C426 C425 1.523 . S
H427 C402 0.950 . S
H428 C404 0.950 . S
H429 C405 0.949 . S
H430 C407 0.950 . S
H431 C409 0.950 . S
C432 C433 1.349 . S
C432 C434 1.327 . S
C432 H457 0.950 . S
C433 C432 1.349 . S
C433 C449 1.349 1_556 S
C434 C432 1.327 . S
C434 C453 1.429 . S
C434 H458 0.950 . S
C435 C452 1.574 . S
C435 C454 1.368 1_554 S
C435 H459 0.949 . S
H436 C440 0.949 . S
C437 C438 1.349 . S
C437 C439 1.327 . S
C437 H460 0.950 . S
C438 C437 1.349 . S
C438 C450 1.349 1_554 S
C439 C437 1.327 . S
C439 C455 1.429 1_554 S
C439 H461 0.950 . S
C440 H436 0.949 . S
C440 C448 1.574 . S
C440 C456 1.368 . S
H441 C449 0.950 . S
H442 C447 0.950 . S
H443 C448 0.949 . S
H444 C450 0.950 . S
H445 C451 0.950 . S
H446 C452 0.949 . S
C447 H442 0.950 . S
C447 C449 1.327 . S
C447 C453 1.429 1_554 S
C448 C440 1.574 . S
C448 H443 0.949 . S
C448 C454 1.368 . S
C449 C433 1.349 1_554 S
C449 H441 0.950 . S
C449 C447 1.327 . S
C450 C438 1.349 1_556 S
C450 H444 0.950 . S
C450 C451 1.327 . S
C451 H445 0.950 . S
C451 C450 1.327 . S
C451 C455 1.429 . S
C452 C435 1.574 . S
C452 H446 0.949 . S
C452 C456 1.368 1_554 S
C453 C434 1.429 . S
C453 C447 1.429 1_556 S
C453 C454 1.523 . S
C454 C435 1.368 1_556 S
C454 C448 1.368 . S
C454 C453 1.523 . S
C455 C439 1.429 1_556 S
C455 C451 1.429 . S
C455 C456 1.523 . S
C456 C440 1.368 . S
C456 C452 1.368 1_556 S
C456 C455 1.523 . S
H457 C432 0.950 . S
H458 C434 0.950 . S
H459 C435 0.949 . S
H460 C437 0.950 . S
H461 C439 0.950 . S
C462 C463 1.349 . S
C462 C464 1.327 . S
C462 H487 0.950 . S
C463 C462 1.349 . S
C463 C479 1.349 1_556 S
C464 C462 1.327 . S
C464 C483 1.429 . S
C464 H488 0.950 . S
C465 C482 1.574 . S
C465 C484 1.368 1_554 S
C465 H489 0.949 . S
H466 C470 0.949 . S
C467 C468 1.349 1_554 S
C467 C469 1.327 . S
C467 H490 0.950 . S
C468 C467 1.349 1_556 S
C468 C480 1.349 . S
C469 C467 1.327 . S
C469 C485 1.429 1_554 S
C469 H491 0.950 . S
C470 H466 0.949 . S
C470 C478 1.574 . S
C470 C486 1.368 . S
H471 C479 0.950 . S
H472 C477 0.950 . S
H473 C478 0.949 . S
H474 C480 0.950 . S
H475 C481 0.950 . S
H476 C482 0.949 . S
C477 H472 0.950 . S
C477 C479 1.327 . S
C477 C483 1.429 1_554 S
C478 C470 1.574 . S
C478 H473 0.949 . S
C478 C484 1.368 . S
C479 C463 1.349 1_554 S
C479 H471 0.950 . S
C479 C477 1.327 . S
C480 C468 1.349 . S
C480 H474 0.950 . S
C480 C481 1.327 . S
C481 H475 0.950 . S
C481 C480 1.327 . S
C481 C485 1.429 . S
C482 C465 1.574 . S
C482 H476 0.949 . S
C482 C486 1.368 1_554 S
C483 C464 1.429 . S
C483 C477 1.429 1_556 S
C483 C484 1.523 . S
C484 C465 1.368 1_556 S
C484 C478 1.368 . S
C484 C483 1.523 . S
C485 C469 1.429 1_556 S
C485 C481 1.429 . S
C485 C486 1.523 . S
C486 C470 1.368 . S
C486 C482 1.368 1_556 S
C486 C485 1.523 . S
H487 C462 0.950 . S
H488 C464 0.950 . S
H489 C465 0.949 . S
H490 C467 0.950 . S
H491 C469 0.950 . S
C492 C493 1.349 . S
C492 C494 1.327 . S
C492 H517 0.950 . S
C493 C492 1.349 . S
C493 C509 1.349 1_556 S
C494 C492 1.327 . S
C494 C513 1.429 . S
C494 H518 0.950 . S
C495 C512 1.574 . S
C495 C514 1.368 1_554 S
C495 H519 0.949 . S
H496 C500 0.949 . S
C497 C498 1.349 1_554 S
C497 C499 1.327 . S
C497 H520 0.950 . S
C498 C497 1.349 1_556 S
C498 C510 1.349 . S
C499 C497 1.327 . S
C499 C515 1.429 1_554 S
C499 H521 0.950 . S
C500 H496 0.949 . S
C500 C508 1.574 . S
C500 C516 1.368 . S
H501 C509 0.950 . S
H502 C507 0.950 . S
H503 C508 0.949 . S
H504 C510 0.950 . S
H505 C511 0.950 . S
H506 C512 0.949 . S
C507 H502 0.950 . S
C507 C509 1.327 . S
C507 C513 1.429 1_554 S
C508 C500 1.574 . S
C508 H503 0.949 . S
C508 C514 1.368 . S
C509 C493 1.349 1_554 S
C509 H501 0.950 . S
C509 C507 1.327 . S
C510 C498 1.349 . S
C510 H504 0.950 . S
C510 C511 1.327 . S
C511 H505 0.950 . S
C511 C510 1.327 . S
C511 C515 1.429 . S
C512 C495 1.574 . S
C512 H506 0.949 . S
C512 C516 1.368 1_554 S
C513 C494 1.429 . S
C513 C507 1.429 1_556 S
C513 C514 1.523 . S
C514 C495 1.368 1_556 S
C514 C508 1.368 . S
C514 C513 1.523 . S
C515 C499 1.429 1_556 S
C515 C511 1.429 . S
C515 C516 1.523 . S
C516 C500 1.368 . S
C516 C512 1.368 1_556 S
C516 C515 1.523 . S
H517 C492 0.950 . S
H518 C494 0.950 . S
H519 C495 0.949 . S
H520 C497 0.950 . S
H521 C499 0.950 . S
C253 C74 1.501 . S
C258 C63 1.486 . S
C283 C158 1.473 1_565 S
C288 C147 1.476 . S
C313 C242 1.489 . S
C318 C231 1.489 . S
C343 C67 1.528 . S
C348 C226 1.432 . S
C373 C142 0.769 . S
C378 C58 0.770 1_554 S
C403 C151 2.293 . S
C408 C224 2.335 . S
C433 C56 1.528 . S
C438 C238 1.432 . S
C463 C70 0.770 1_556 S
C468 C154 0.769 . S
C493 C235 2.335 . S
C498 C140 2.293 . S
