# Generated by pormake.
# Topology wji, (4)-cn, num edge types: 1
# Building blocks:
#     Node 0, Type 0, BuildingBlock: UXUYUI_clean_sbu_0, # of connection points: 4
#     Node 1, Type 0, BuildingBlock: UXUYUI_clean_sbu_0, # of connection points: 4
#     Node 2, Type 0, BuildingBlock: UXUYUI_clean_sbu_0, # of connection points: 4
#     Node 3, Type 0, BuildingBlock: UXUYUI_clean_sbu_0, # of connection points: 4
#     Node 4, Type 0, BuildingBlock: UXUYUI_clean_sbu_0, # of connection points: 4
#     Node 5, Type 0, BuildingBlock: UXUYUI_clean_sbu_0, # of connection points: 4
#     Node 6, Type 0, BuildingBlock: UXUYUI_clean_sbu_0, # of connection points: 4
#     Node 7, Type 0, BuildingBlock: UXUYUI_clean_sbu_0, # of connection points: 4
#     Node 8, Type 0, BuildingBlock: UXUYUI_clean_sbu_0, # of connection points: 4
#     Node 9, Type 0, BuildingBlock: UXUYUI_clean_sbu_0, # of connection points: 4
#     Node 10, Type 0, BuildingBlock: UXUYUI_clean_sbu_0, # of connection points: 4
#     Node 11, Type 0, BuildingBlock: UXUYUI_clean_sbu_0, # of connection points: 4
#     Edge 12, Type (0, 0), BuildingBlock: TEMPAE_clean_linker_10, # of connection points: 2
#     Edge 13, Type (0, 0), BuildingBlock: TEMPAE_clean_linker_10, # of connection points: 2
#     Edge 14, Type (0, 0), BuildingBlock: TEMPAE_clean_linker_10, # of connection points: 2
#     Edge 15, Type (0, 0), BuildingBlock: TEMPAE_clean_linker_10, # of connection points: 2
#     Edge 16, Type (0, 0), BuildingBlock: TEMPAE_clean_linker_10, # of connection points: 2
#     Edge 17, Type (0, 0), BuildingBlock: TEMPAE_clean_linker_10, # of connection points: 2
#     Edge 18, Type (0, 0), BuildingBlock: TEMPAE_clean_linker_10, # of connection points: 2
#     Edge 19, Type (0, 0), BuildingBlock: TEMPAE_clean_linker_10, # of connection points: 2
#     Edge 20, Type (0, 0), BuildingBlock: TEMPAE_clean_linker_10, # of connection points: 2
#     Edge 21, Type (0, 0), BuildingBlock: TEMPAE_clean_linker_10, # of connection points: 2
#     Edge 22, Type (0, 0), BuildingBlock: TEMPAE_clean_linker_10, # of connection points: 2
#     Edge 23, Type (0, 0), BuildingBlock: TEMPAE_clean_linker_10, # of connection points: 2
#     Edge 24, Type (0, 0), BuildingBlock: TEMPAE_clean_linker_10, # of connection points: 2
#     Edge 25, Type (0, 0), BuildingBlock: TEMPAE_clean_linker_10, # of connection points: 2
#     Edge 26, Type (0, 0), BuildingBlock: TEMPAE_clean_linker_10, # of connection points: 2
#     Edge 27, Type (0, 0), BuildingBlock: TEMPAE_clean_linker_10, # of connection points: 2
#     Edge 28, Type (0, 0), BuildingBlock: TEMPAE_clean_linker_10, # of connection points: 2
#     Edge 29, Type (0, 0), BuildingBlock: TEMPAE_clean_linker_10, # of connection points: 2
#     Edge 30, Type (0, 0), BuildingBlock: TEMPAE_clean_linker_10, # of connection points: 2
#     Edge 31, Type (0, 0), BuildingBlock: TEMPAE_clean_linker_10, # of connection points: 2
#     Edge 32, Type (0, 0), BuildingBlock: TEMPAE_clean_linker_10, # of connection points: 2
#     Edge 33, Type (0, 0), BuildingBlock: TEMPAE_clean_linker_10, # of connection points: 2
#     Edge 34, Type (0, 0), BuildingBlock: TEMPAE_clean_linker_10, # of connection points: 2
#     Edge 35, Type (0, 0), BuildingBlock: TEMPAE_clean_linker_10, # of connection points: 2
# Relax obj value: 0.267
# Max RMSD: 0.141
# Mean RMSD: 0.141
data_MOF--net-wji--node1-UXUYUI_clean_sbu_0--edge1-TEMPAE_clean_linker_10
_symmetry_space_group_name_H-M    P1
_symmetry_Int_Tables_number       1
_symmetry_cell_setting            triclinic
loop_
_symmetry_equiv_pos_as_xyz
'x, y, z'
_cell_length_a     84.036473
_cell_length_b     84.040836
_cell_length_c     33.501656
_cell_angle_alpha  90.00078
_cell_angle_beta   89.997417
_cell_angle_gamma 120.00291
loop_
_atom_site_label
_atom_site_type_symbol
_atom_site_fract_x
_atom_site_fract_y
_atom_site_fract_z
_atom_type_partial_charge
Li0 Li 0.40917 0.32497 0.44666 0.0
Li1 Li 0.41563 0.30124 0.42331 0.0
Li2 Li 0.43787 0.33513 0.41202 0.0
Li3 Li 0.4091 0.31925 0.37418 0.0
C4 C 0.42971 0.32299 0.50325 0.0
N5 N 0.42871 0.32668 0.58505 0.0
C6 C 0.42197 0.30744 0.52773 0.0
C7 C 0.43714 0.34043 0.52044 0.0
C8 C 0.42156 0.30959 0.56901 0.0
C9 C 0.43643 0.34201 0.56183 0.0
C10 C 0.37767 0.28629 0.405 0.0
C11 C 0.36248 0.26153 0.35771 0.0
N12 N 0.34716 0.25398 0.38096 0.0
C13 C 0.36173 0.27838 0.42828 0.0
C14 C 0.37803 0.27788 0.36932 0.0
C15 C 0.34647 0.26201 0.41568 0.0
C16 C 0.39918 0.34715 0.49125 0.0
N17 N 0.39719 0.33014 0.4881 0.0
C18 C 0.37902 0.32024 0.54737 0.0
C19 C 0.38712 0.31665 0.51486 0.0
C20 C 0.38119 0.33782 0.55195 0.0
C21 C 0.39126 0.35132 0.52316 0.0
H22 H 0.40709 0.35753 0.46927 0.0
H23 H 0.38565 0.30319 0.51127 0.0
C24 C 0.43034 0.27887 0.44171 0.0
N25 N 0.41423 0.27897 0.43988 0.0
C26 C 0.43138 0.26511 0.4629 0.0
C27 C 0.39902 0.25128 0.47805 0.0
C28 C 0.39862 0.26535 0.45674 0.0
C29 C 0.4157 0.2514 0.48247 0.0
H30 H 0.44262 0.29012 0.42879 0.0
H31 H 0.38616 0.26607 0.45626 0.0
C32 C 0.42962 0.36115 0.39252 0.0
N33 N 0.45066 0.39771 0.37128 0.0
C34 C 0.42999 0.36654 0.3529 0.0
C35 C 0.43983 0.37439 0.4214 0.0
C36 C 0.44073 0.38509 0.34276 0.0
C37 C 0.45042 0.39279 0.41004 0.0
C38 C 0.43346 0.30815 0.33941 0.0
C39 C 0.44602 0.32081 0.31223 0.0
C40 C 0.42512 0.28935 0.33127 0.0
C41 C 0.44962 0.31447 0.27672 0.0
C42 C 0.42908 0.28355 0.29544 0.0
N43 N 0.44113 0.29613 0.2691 0.0
C44 C 0.47339 0.35517 0.44435 0.0
C45 C 0.47073 0.36544 0.38017 0.0
C46 C 0.49142 0.36966 0.44785 0.0
N47 N 0.46329 0.3536 0.41135 0.0
C48 C 0.48869 0.38021 0.38249 0.0
C49 C 0.49917 0.38268 0.41706 0.0
H50 H 0.46731 0.34539 0.46842 0.0
H51 H 0.4625 0.36384 0.35409 0.0
C52 C 0.38006 0.31811 0.33358 0.0
N53 N 0.39649 0.31914 0.32664 0.0
C54 C 0.37046 0.32059 0.30253 0.0
C55 C 0.39468 0.32485 0.25731 0.0
C56 C 0.40378 0.32214 0.2893 0.0
C57 C 0.37794 0.32442 0.26392 0.0
H58 H 0.37477 0.31612 0.36371 0.0
H59 H 0.417 0.3233 0.28451 0.0
O60 O 0.42985 0.32116 0.46266 0.0
O61 O 0.3927 0.30233 0.41698 0.0
O62 O 0.41927 0.34303 0.40297 0.0
O63 O 0.43002 0.31408 0.37465 0.0
H64 H 0.41618 0.29384 0.51507 0.0
H65 H 0.44325 0.35261 0.502 0.0
H66 H 0.41551 0.29766 0.58827 0.0
H67 H 0.442 0.35541 0.57547 0.0
H68 H 0.36258 0.25487 0.33014 0.0
H69 H 0.36119 0.2848 0.45586 0.0
H70 H 0.39008 0.28402 0.35056 0.0
H71 H 0.33407 0.25568 0.43349 0.0
H72 H 0.37118 0.3094 0.56868 0.0
H73 H 0.39338 0.3651 0.52581 0.0
H74 H 0.44447 0.26561 0.46532 0.0
H75 H 0.38668 0.24115 0.49316 0.0
H76 H 0.42215 0.35654 0.33017 0.0
H77 H 0.43974 0.37049 0.45216 0.0
H78 H 0.4412 0.38944 0.31218 0.0
H79 H 0.45849 0.40315 0.43204 0.0
H80 H 0.45277 0.33539 0.31828 0.0
H81 H 0.41579 0.27932 0.35251 0.0
H82 H 0.45918 0.32413 0.25523 0.0
H83 H 0.42265 0.26905 0.28865 0.0
H84 H 0.49911 0.37079 0.47467 0.0
H85 H 0.49402 0.38997 0.35812 0.0
H86 H 0.35777 0.32044 0.30914 0.0
H87 H 0.40089 0.3277 0.22794 0.0
Li88 Li 0.114 0.41505 0.58527 0.0
Li89 Li 0.08335 0.40813 0.61134 0.0
Li90 Li 0.08789 0.40647 0.54095 0.0
Li91 Li 0.10076 0.43596 0.57271 0.0
C92 C 0.08272 0.37475 0.56819 0.0
N93 N 0.06623 0.34068 0.53195 0.0
C94 C 0.0646 0.36166 0.57761 0.0
C95 C 0.09252 0.37048 0.54068 0.0
C96 C 0.05649 0.34451 0.55888 0.0
C97 C 0.08392 0.35319 0.52259 0.0
C98 C 0.107 0.43059 0.66439 0.0
C99 C 0.09513 0.43787 0.72287 0.0
N100 N 0.10406 0.43165 0.74639 0.0
C101 C 0.11612 0.42434 0.68915 0.0
C102 C 0.0965 0.43751 0.68137 0.0
C103 C 0.11445 0.42498 0.73053 0.0
C104 C 0.15089 0.43077 0.60736 0.0
N105 N 0.1352 0.41448 0.60164 0.0
C106 C 0.14736 0.39851 0.63801 0.0
C107 C 0.13333 0.39844 0.61549 0.0
C108 C 0.16329 0.41528 0.64662 0.0
C109 C 0.16523 0.43149 0.62979 0.0
H110 H 0.15174 0.44334 0.5968 0.0
H111 H 0.12046 0.38577 0.61152 0.0
C112 C 0.05129 0.39765 0.65625 0.0
N113 N 0.06706 0.39693 0.65447 0.0
C114 C 0.03941 0.38994 0.68857 0.0
C115 C 0.06006 0.38055 0.71611 0.0
C116 C 0.07147 0.38832 0.68308 0.0
C117 C 0.04384 0.3814 0.71918 0.0
H118 H 0.04799 0.40428 0.63269 0.0
H119 H 0.08396 0.38768 0.68035 0.0
C120 C 0.11972 0.42724 0.49764 0.0
N121 N 0.13261 0.42686 0.42202 0.0
C122 C 0.1161 0.43582 0.46603 0.0
C123 C 0.13001 0.41861 0.49093 0.0
C124 C 0.12271 0.43544 0.42797 0.0
C125 C 0.13637 0.41853 0.45243 0.0
C126 C 0.06649 0.42697 0.55558 0.0
C127 C 0.0624 0.42739 0.51526 0.0
C128 C 0.06261 0.43699 0.58335 0.0
C129 C 0.05451 0.43785 0.50342 0.0
C130 C 0.05478 0.44733 0.5703 0.0
N131 N 0.05092 0.44754 0.53094 0.0
C132 C 0.05544 0.38268 0.5047 0.0
C133 C 0.08001 0.3904 0.45976 0.0
C134 C 0.04263 0.37207 0.47569 0.0
N135 N 0.07372 0.39185 0.49626 0.0
C136 C 0.06759 0.38015 0.42948 0.0
C137 C 0.04863 0.37098 0.43731 0.0
H138 H 0.05077 0.38391 0.53401 0.0
H139 H 0.09454 0.39725 0.45379 0.0
C140 C 0.11503 0.47212 0.60108 0.0
N141 N 0.10703 0.46113 0.56887 0.0
C142 C 0.11805 0.49003 0.60167 0.0
C143 C 0.10519 0.48526 0.53528 0.0
C144 C 0.10267 0.46753 0.53577 0.0
C145 C 0.11269 0.49662 0.56883 0.0
H146 H 0.11869 0.46686 0.62675 0.0
H147 H 0.09671 0.4587 0.51019 0.0
O148 O 0.09072 0.39176 0.58538 0.0
O149 O 0.10812 0.4297 0.62376 0.0
O150 O 0.11371 0.42778 0.53522 0.0
O151 O 0.07433 0.41691 0.56779 0.0
H152 H 0.05684 0.36479 0.59882 0.0
H153 H 0.10656 0.38049 0.53312 0.0
H154 H 0.04244 0.33428 0.56565 0.0
H155 H 0.0913 0.34973 0.50103 0.0
H156 H 0.08694 0.44307 0.73639 0.0
H157 H 0.12427 0.41888 0.67665 0.0
H158 H 0.08932 0.44237 0.66267 0.0
H159 H 0.12137 0.42011 0.75003 0.0
H160 H 0.14519 0.38574 0.65081 0.0
H161 H 0.17737 0.44467 0.6354 0.0
H162 H 0.02708 0.39098 0.68999 0.0
H163 H 0.06381 0.37387 0.73888 0.0
H164 H 0.1082 0.4426 0.47078 0.0
H165 H 0.13309 0.41208 0.5152 0.0
H166 H 0.11995 0.44194 0.40316 0.0
H167 H 0.14431 0.41185 0.44675 0.0
H168 H 0.06554 0.41999 0.49318 0.0
H169 H 0.06577 0.43694 0.61461 0.0
H170 H 0.05135 0.43836 0.47231 0.0
H171 H 0.05181 0.45523 0.59145 0.0
H172 H 0.02812 0.36533 0.48283 0.0
H173 H 0.07272 0.37946 0.40025 0.0
H174 H 0.12385 0.49838 0.62811 0.0
H175 H 0.10111 0.48996 0.50919 0.0
Li176 Li 0.70088 0.11598 0.75264 0.0
Li177 Li 0.67917 0.08364 0.77916 0.0
Li178 Li 0.68594 0.08972 0.70755 0.0
Li179 Li 0.66814 0.10091 0.73964 0.0
C180 C 0.71562 0.08992 0.73333 0.0
N181 N 0.73954 0.08202 0.69326 0.0
C182 C 0.71562 0.07361 0.74129 0.0
C183 C 0.72783 0.10228 0.70523 0.0
C184 C 0.72782 0.06984 0.72064 0.0
C185 C 0.73981 0.09802 0.68523 0.0
C186 C 0.6693 0.11182 0.8132 0.0
C187 C 0.64145 0.10279 0.85029 0.0
N188 N 0.64564 0.12065 0.85171 0.0
C189 C 0.67337 0.13009 0.81519 0.0
C190 C 0.65323 0.09805 0.83098 0.0
C191 C 0.66123 0.13427 0.83473 0.0
C192 C 0.72209 0.15409 0.769 0.0
N193 N 0.72205 0.1379 0.76912 0.0
C194 C 0.74948 0.151 0.80821 0.0
C195 C 0.73558 0.13621 0.78735 0.0
C196 C 0.74923 0.16754 0.81089 0.0
C197 C 0.7356 0.16918 0.79006 0.0
H198 H 0.71106 0.15497 0.75447 0.0
H199 H 0.73497 0.12305 0.78767 0.0
C200 C 0.67026 0.04953 0.8129 0.0
N201 N 0.67454 0.06706 0.82119 0.0
C202 C 0.66562 0.0368 0.84377 0.0
C203 C 0.6703 0.06059 0.89089 0.0
C204 C 0.67505 0.07288 0.85922 0.0
C205 C 0.6653 0.04226 0.88321 0.0
H206 H 0.67004 0.04537 0.78225 0.0
H207 H 0.6788 0.087 0.86486 0.0
C208 C 0.68276 0.11649 0.6641 0.0
N209 N 0.67076 0.1197 0.58934 0.0
C210 C 0.66527 0.10338 0.65082 0.0
C211 C 0.69412 0.13128 0.63945 0.0
C212 C 0.65946 0.10523 0.61292 0.0
C213 C 0.68781 0.13265 0.60172 0.0
C214 C 0.64579 0.05981 0.72798 0.0
C215 C 0.63989 0.05349 0.68916 0.0
C216 C 0.63483 0.04987 0.76039 0.0
C217 C 0.62303 0.03745 0.68343 0.0
C218 C 0.61806 0.0339 0.75342 0.0
N219 N 0.61255 0.02807 0.71541 0.0
C220 C 0.68219 0.05878 0.67124 0.0
C221 C 0.69126 0.08299 0.62452 0.0
C222 C 0.68006 0.04653 0.64093 0.0
N223 N 0.68735 0.07652 0.66258 0.0
C224 C 0.68908 0.07109 0.59308 0.0
C225 C 0.68308 0.05251 0.60114 0.0
H226 H 0.67897 0.05397 0.70171 0.0
H227 H 0.69547 0.09716 0.61832 0.0
C228 C 0.65094 0.1222 0.72511 0.0
N229 N 0.64787 0.10528 0.73585 0.0
C230 C 0.63653 0.12601 0.72538 0.0
C231 C 0.61613 0.09489 0.74743 0.0
C232 C 0.63087 0.09172 0.74672 0.0
C233 C 0.61884 0.11224 0.73685 0.0
H234 H 0.66467 0.13284 0.7171 0.0
H235 H 0.62883 0.0786 0.7563 0.0
O236 O 0.7035 0.09366 0.75244 0.0
O237 O 0.6807 0.10737 0.793 0.0
O238 O 0.68886 0.11496 0.70097 0.0
O239 O 0.66244 0.07531 0.73436 0.0
H240 H 0.70621 0.0639 0.76293 0.0
H241 H 0.72791 0.11494 0.69869 0.0
H242 H 0.72793 0.05723 0.72632 0.0
H243 H 0.74928 0.1074 0.66324 0.0
H244 H 0.6289 0.09225 0.8639 0.0
H245 H 0.68567 0.14091 0.80144 0.0
H246 H 0.6497 0.08381 0.82922 0.0
H247 H 0.66416 0.14834 0.83628 0.0
H248 H 0.75962 0.14912 0.82425 0.0
H249 H 0.73503 0.18177 0.79129 0.0
H250 H 0.66177 0.02273 0.83681 0.0
H251 H 0.67041 0.06531 0.92104 0.0
H252 H 0.65625 0.09198 0.66961 0.0
H253 H 0.70769 0.14156 0.64935 0.0
H254 H 0.64595 0.09517 0.60228 0.0
H255 H 0.69648 0.14401 0.58228 0.0
H256 H 0.64823 0.06079 0.66363 0.0
H257 H 0.63914 0.05453 0.79064 0.0
H258 H 0.61831 0.03242 0.65356 0.0
H259 H 0.60942 0.02615 0.77824 0.0
H260 H 0.67518 0.03228 0.64842 0.0
H261 H 0.69167 0.07625 0.56275 0.0
H262 H 0.63921 0.13956 0.71686 0.0
H263 H 0.60284 0.08401 0.75738 0.0
Li264 Li 0.58507 0.67351 0.94945 0.0
Li265 Li 0.58159 0.69931 0.92161 0.0
Li266 Li 0.55774 0.66583 0.91144 0.0
Li267 Li 0.58687 0.67885 0.87909 0.0
C268 C 0.5655 0.67913 0.00258 0.0
N269 N 0.56569 0.67725 0.08498 0.0
C270 C 0.57353 0.69522 0.02539 0.0
C271 C 0.55747 0.66208 0.02179 0.0
C272 C 0.57349 0.69399 0.06698 0.0
C273 C 0.55775 0.66142 0.06343 0.0
C274 C 0.61983 0.7033 0.9036 0.0
C275 C 0.64297 0.72542 0.85945 0.0
N276 N 0.65299 0.7169 0.86427 0.0
C277 C 0.63038 0.69482 0.90835 0.0
C278 C 0.62616 0.71876 0.87913 0.0
C279 C 0.6471 0.70188 0.88811 0.0
C280 C 0.59185 0.64983 0.99693 0.0
N281 N 0.5952 0.66732 0.993 0.0
C282 C 0.61263 0.6763 0.05336 0.0
C283 C 0.60562 0.6806 0.0199 0.0
C284 C 0.60895 0.6582 0.05881 0.0
C285 C 0.59856 0.64492 0.0299 0.0
H286 H 0.58395 0.63969 0.97451 0.0
H287 H 0.60825 0.69446 0.0156 0.0
C288 C 0.56843 0.7225 0.94161 0.0
N289 N 0.58431 0.72221 0.9364 0.0
C290 C 0.56834 0.73644 0.96405 0.0
C291 C 0.6012 0.75023 0.97281 0.0
C292 C 0.60063 0.73591 0.95041 0.0
C293 C 0.58477 0.75014 0.98122 0.0
H294 H 0.55561 0.71112 0.931 0.0
H295 H 0.61292 0.73495 0.94698 0.0
C296 C 0.56134 0.63736 0.89731 0.0
N297 N 0.53527 0.60174 0.87733 0.0
C298 C 0.55857 0.63176 0.85736 0.0
C299 C 0.5508 0.6248 0.92705 0.0
C300 C 0.54537 0.61369 0.84789 0.0
C301 C 0.53768 0.60688 0.91635 0.0
C302 C 0.57014 0.69249 0.83367 0.0
C303 C 0.56313 0.67984 0.80235 0.0
C304 C 0.57926 0.71131 0.82545 0.0
C305 C 0.56553 0.68626 0.7631 0.0
C306 C 0.58134 0.71718 0.78579 0.0
N307 N 0.57451 0.70464 0.75571 0.0
C308 C 0.52208 0.64644 0.94342 0.0
C309 C 0.52374 0.63918 0.87582 0.0
C310 C 0.50388 0.63227 0.94592 0.0
N311 N 0.53182 0.64915 0.90925 0.0
C312 C 0.50558 0.62472 0.87705 0.0
C313 C 0.49559 0.62075 0.91289 0.0
H314 H 0.52859 0.6549 0.96923 0.0
H315 H 0.53165 0.64183 0.84874 0.0
C316 C 0.60399 0.66314 0.83781 0.0
N317 N 0.6004 0.67716 0.83412 0.0
C318 C 0.61342 0.6597 0.80802 0.0
C319 C 0.61664 0.68601 0.77189 0.0
C320 C 0.60693 0.68886 0.80242 0.0
C321 C 0.61966 0.67103 0.77425 0.0
H322 H 0.59949 0.65453 0.86406 0.0
H323 H 0.60478 0.70047 0.80081 0.0
O324 O 0.56572 0.68004 0.96172 0.0
O325 O 0.6032 0.69627 0.92219 0.0
O326 O 0.5741 0.65507 0.9072 0.0
O327 O 0.56775 0.68652 0.87229 0.0
H328 H 0.57988 0.70855 0.01128 0.0
H329 H 0.55128 0.64948 0.00473 0.0
H330 H 0.57971 0.70634 0.08493 0.0
H331 H 0.55171 0.64831 0.07861 0.0
H332 H 0.648 0.73731 0.84019 0.0
H333 H 0.62559 0.68279 0.92711 0.0
H334 H 0.61806 0.72539 0.87497 0.0
H335 H 0.65537 0.6954 0.89126 0.0
H336 H 0.62055 0.68692 0.07504 0.0
H337 H 0.59577 0.63091 0.03258 0.0
H338 H 0.55543 0.73598 0.9697 0.0
H339 H 0.61409 0.76044 0.98593 0.0
H340 H 0.56624 0.64132 0.83376 0.0
H341 H 0.55254 0.62888 0.95805 0.0
H342 H 0.54305 0.60922 0.8171 0.0
H343 H 0.52936 0.59708 0.93906 0.0
H344 H 0.55607 0.66523 0.80826 0.0
H345 H 0.5847 0.72127 0.84942 0.0
H346 H 0.56028 0.67664 0.73852 0.0
H347 H 0.58841 0.7317 0.77893 0.0
H348 H 0.49653 0.63005 0.9738 0.0
H349 H 0.4998 0.6162 0.85084 0.0
H350 H 0.6159 0.64831 0.81151 0.0
H351 H 0.62145 0.6952 0.74647 0.0
Li352 Li 0.91205 0.58801 0.11877 0.0
Li353 Li 0.88321 0.58294 0.09052 0.0
Li354 Li 0.89418 0.56147 0.07511 0.0
Li355 Li 0.90947 0.5925 0.04637 0.0
C356 C 0.88547 0.55708 0.16122 0.0
N357 N 0.88245 0.5375 0.22982 0.0
C358 C 0.8736 0.55587 0.19182 0.0
C359 C 0.89576 0.54829 0.1655 0.0
C360 C 0.87229 0.54592 0.22629 0.0
C361 C 0.89404 0.53846 0.20038 0.0
C362 C 0.90745 0.61836 0.12047 0.0
C363 C 0.91667 0.64914 0.14219 0.0
N364 N 0.90783 0.64232 0.17746 0.0
C365 C 0.89848 0.61167 0.15696 0.0
C366 C 0.91664 0.63724 0.113 0.0
C367 C 0.89881 0.62399 0.18536 0.0
C368 C 0.94669 0.60807 0.15369 0.0
N369 N 0.92856 0.59745 0.16259 0.0
C370 C 0.93502 0.60179 0.2324 0.0
C371 C 0.92254 0.59437 0.20101 0.0
C372 C 0.95385 0.61264 0.22414 0.0
C373 C 0.95966 0.61583 0.18418 0.0
H374 H 0.95104 0.61049 0.12282 0.0
H375 H 0.90806 0.58643 0.20749 0.0
C376 C 0.84779 0.56859 0.12054 0.0
N377 N 0.86188 0.58417 0.10472 0.0
C378 C 0.83376 0.56924 0.14144 0.0
C379 C 0.84844 0.60177 0.12726 0.0
C380 C 0.86201 0.60041 0.10599 0.0
C381 C 0.83445 0.58615 0.14639 0.0
H382 H 0.84813 0.5559 0.11926 0.0
H383 H 0.87332 0.61259 0.09297 0.0
C384 C 0.93354 0.57457 0.06823 0.0
N385 N 0.9599 0.56445 0.05765 0.0
C386 C 0.94046 0.57483 0.03015 0.0
C387 C 0.94027 0.56945 0.10103 0.0
C388 C 0.95371 0.56957 0.02538 0.0
C389 C 0.95353 0.56431 0.09504 0.0
C390 C 0.87546 0.57797 0.00955 0.0
C391 C 0.86292 0.56557 0.98197 0.0
C392 C 0.87972 0.59632 0.00894 0.0
C393 C 0.8548 0.57173 0.95421 0.0
C394 C 0.87131 0.60194 0.98073 0.0
N395 N 0.85913 0.58964 0.95418 0.0
C396 C 0.87322 0.52332 0.08925 0.0
C397 C 0.89729 0.53183 0.0425 0.0
C398 C 0.86969 0.50523 0.08956 0.0
N399 N 0.88732 0.53633 0.0672 0.0
C400 C 0.89415 0.51387 0.04161 0.0
C401 C 0.88057 0.50045 0.06633 0.0
H402 H 0.86517 0.52715 0.10792 0.0
H403 H 0.90807 0.54227 0.02439 0.0
C404 C 0.93782 0.62385 0.00998 0.0
N405 N 0.92378 0.60663 0.00234 0.0
C406 C 0.95078 0.63374 0.98045 0.0
C407 C 0.93428 0.60816 0.9354 0.0
C408 C 0.92152 0.59883 0.96572 0.0
C409 C 0.94944 0.62571 0.94286 0.0
H410 H 0.93937 0.6296 0.03957 0.0
H411 H 0.9104 0.58496 0.96076 0.0
O412 O 0.88699 0.56689 0.1274 0.0
O413 O 0.90735 0.60658 0.09212 0.0
O414 O 0.9207 0.57989 0.07346 0.0
O415 O 0.88349 0.57205 0.03682 0.0
H416 H 0.86561 0.56268 0.18916 0.0
H417 H 0.90479 0.54886 0.14194 0.0
H418 H 0.86321 0.54493 0.25026 0.0
H419 H 0.9019 0.53155 0.204 0.0
H420 H 0.92372 0.66379 0.1368 0.0
H421 H 0.89118 0.5971 0.16318 0.0
H422 H 0.92363 0.64265 0.08489 0.0
H423 H 0.89187 0.61898 0.21365 0.0
H424 H 0.92997 0.5993 0.26281 0.0
H425 H 0.97409 0.62406 0.17661 0.0
H426 H 0.82324 0.55694 0.15596 0.0
H427 H 0.84929 0.61501 0.13022 0.0
H428 H 0.93552 0.57884 0.00445 0.0
H429 H 0.93549 0.56963 0.13088 0.0
H430 H 0.95907 0.56958 0.99602 0.0
H431 H 0.95881 0.56028 0.12015 0.0
H432 H 0.85949 0.55132 0.98204 0.0
H433 H 0.88942 0.60616 0.02989 0.0
H434 H 0.84506 0.56228 0.93269 0.0
H435 H 0.87447 0.6161 0.97994 0.0
H436 H 0.85887 0.4952 0.10848 0.0
H437 H 0.90284 0.51074 0.02322 0.0
H438 H 0.96201 0.64734 0.98742 0.0
H439 H 0.93277 0.60127 0.90717 0.0
Li440 Li 0.32545 0.91716 0.28247 0.0
Li441 Li 0.30099 0.88734 0.25971 0.0
Li442 Li 0.33449 0.8989 0.24281 0.0
Li443 Li 0.31782 0.91243 0.21055 0.0
C444 C 0.32482 0.8939 0.33574 0.0
N445 N 0.33054 0.89749 0.41728 0.0
C446 C 0.30988 0.88725 0.36189 0.0
C447 C 0.34266 0.90218 0.35111 0.0
C448 C 0.31306 0.88923 0.40301 0.0
C449 C 0.34527 0.90393 0.3924 0.0
C450 C 0.28569 0.91018 0.24578 0.0
C451 C 0.2601 0.89977 0.20048 0.0
N452 N 0.25279 0.90765 0.22411 0.0
C453 C 0.27801 0.9183 0.26948 0.0
C454 C 0.27674 0.90094 0.2109 0.0
C455 C 0.26133 0.91681 0.25808 0.0
C456 C 0.34916 0.94821 0.32901 0.0
N457 N 0.3318 0.93378 0.32551 0.0
C458 C 0.32284 0.94197 0.38625 0.0
C459 C 0.31861 0.93063 0.35288 0.0
C460 C 0.34077 0.95679 0.39108 0.0
C461 C 0.35399 0.95993 0.36179 0.0
H462 H 0.3593 0.95056 0.30655 0.0
H463 H 0.30485 0.91914 0.34899 0.0
C464 C 0.27933 0.85038 0.28053 0.0
N465 N 0.27912 0.86641 0.27822 0.0
C466 C 0.26606 0.83573 0.30303 0.0
C467 C 0.25206 0.85406 0.31856 0.0
C468 C 0.26564 0.86837 0.29599 0.0
C469 C 0.25251 0.83769 0.32338 0.0
H470 H 0.29047 0.84937 0.26692 0.0
H471 H 0.26611 0.88142 0.2952 0.0
C472 C 0.36043 0.93422 0.22605 0.0
N473 N 0.39709 0.95158 0.20445 0.0
C474 C 0.36587 0.94181 0.18794 0.0
C475 C 0.37369 0.93565 0.2533 0.0
C476 C 0.38445 0.9505 0.17757 0.0
C477 C 0.39213 0.94441 0.24177 0.0
C478 C 0.30626 0.87706 0.17286 0.0
C479 C 0.31885 0.87824 0.1441 0.0
C480 C 0.28744 0.86567 0.16611 0.0
C481 C 0.31238 0.86842 0.10847 0.0
C482 C 0.28152 0.85606 0.13012 0.0
N483 N 0.294 0.85764 0.10226 0.0
C484 C 0.3546 0.88186 0.26595 0.0
C485 C 0.36469 0.89839 0.20515 0.0
C486 C 0.36935 0.87862 0.2657 0.0
N487 N 0.35283 0.89201 0.23651 0.0
C488 C 0.37982 0.89575 0.20406 0.0
C489 C 0.38245 0.88606 0.23505 0.0
H490 H 0.34488 0.87681 0.29036 0.0
H491 H 0.36289 0.90623 0.18184 0.0
C492 C 0.31445 0.93992 0.17249 0.0
N493 N 0.31705 0.92552 0.1646 0.0
C494 C 0.31725 0.95271 0.14284 0.0
C495 C 0.32495 0.93543 0.09692 0.0
C496 C 0.32182 0.92284 0.12747 0.0
C497 C 0.3232 0.95093 0.10477 0.0
H498 H 0.31111 0.94203 0.20247 0.0
H499 H 0.32443 0.9117 0.12214 0.0
O500 O 0.32201 0.89249 0.29534 0.0
O501 O 0.30202 0.91153 0.2566 0.0
O502 O 0.34225 0.92548 0.23656 0.0
O503 O 0.31233 0.88628 0.20825 0.0
H504 H 0.29598 0.88084 0.35065 0.0
H505 H 0.35437 0.90727 0.33139 0.0
H506 H 0.30163 0.88426 0.42356 0.0
H507 H 0.35901 0.91042 0.40467 0.0
H508 H 0.25303 0.89266 0.17353 0.0
H509 H 0.28483 0.9256 0.29648 0.0
H510 H 0.2827 0.89494 0.19184 0.0
H511 H 0.25517 0.92296 0.27622 0.0
H512 H 0.3122 0.93923 0.40791 0.0
H513 H 0.36801 0.97111 0.36457 0.0
H514 H 0.26682 0.82329 0.30573 0.0
H515 H 0.24206 0.85628 0.33424 0.0
H516 H 0.35588 0.94101 0.16655 0.0
H517 H 0.36977 0.92983 0.28285 0.0
H518 H 0.38883 0.95638 0.14813 0.0
H519 H 0.4025 0.94545 0.26246 0.0
H520 H 0.33345 0.88679 0.14905 0.0
H521 H 0.27751 0.86416 0.18854 0.0
H522 H 0.32197 0.86936 0.08579 0.0
H523 H 0.26699 0.84727 0.12442 0.0
H524 H 0.37098 0.87111 0.29015 0.0
H525 H 0.38957 0.90154 0.17974 0.0
H526 H 0.31547 0.96428 0.15014 0.0
H527 H 0.3298 0.93362 0.06826 0.0
Li528 Li 0.68206 0.59588 0.46107 0.0
Li529 Li 0.66549 0.56378 0.4337 0.0
Li530 Li 0.69805 0.58593 0.41526 0.0
Li531 Li 0.6735 0.59038 0.39178 0.0
C532 C 0.70218 0.58122 0.49606 0.0
N533 N 0.73094 0.59281 0.54943 0.0
C534 C 0.70243 0.5689 0.5237 0.0
C535 C 0.71656 0.59945 0.49555 0.0
C536 C 0.71709 0.57502 0.55045 0.0
C537 C 0.73098 0.60503 0.52277 0.0
C538 C 0.64296 0.58402 0.42524 0.0
C539 C 0.6153 0.57347 0.38646 0.0
N540 N 0.61548 0.5894 0.39468 0.0
C541 C 0.64282 0.60025 0.43349 0.0
C542 C 0.62906 0.57047 0.40168 0.0
C543 C 0.62882 0.60272 0.4177 0.0
C544 C 0.68654 0.62778 0.49762 0.0
N545 N 0.68301 0.61043 0.50521 0.0
C546 C 0.67475 0.61233 0.57254 0.0
C547 C 0.67759 0.60271 0.54193 0.0
C548 C 0.67729 0.62991 0.56495 0.0
C549 C 0.68374 0.63782 0.52722 0.0
H550 H 0.69053 0.63341 0.46788 0.0
H551 H 0.67456 0.58875 0.54682 0.0
C552 C 0.64919 0.52491 0.42852 0.0
N553 N 0.64729 0.53897 0.44313 0.0
C554 C 0.6343 0.50695 0.42916 0.0
C555 C 0.61625 0.51823 0.46202 0.0
C556 C 0.63145 0.53592 0.46074 0.0
C557 C 0.61739 0.50355 0.44501 0.0
H558 H 0.66194 0.5278 0.4144 0.0
H559 H 0.63037 0.54736 0.47224 0.0
C560 C 0.70924 0.62169 0.38773 0.0
N561 N 0.7338 0.6467 0.33355 0.0
C562 C 0.70933 0.61646 0.34819 0.0
C563 C 0.72157 0.63968 0.39969 0.0
C564 C 0.72187 0.62928 0.32125 0.0
C565 C 0.7339 0.65212 0.37186 0.0
C566 C 0.67225 0.56033 0.34541 0.0
C567 C 0.68527 0.56486 0.31508 0.0
C568 C 0.65424 0.54604 0.33936 0.0
C569 C 0.67997 0.5552 0.27906 0.0
C570 C 0.64949 0.53672 0.30292 0.0
N571 N 0.66235 0.54145 0.27377 0.0
C572 C 0.71857 0.57103 0.38441 0.0
C573 C 0.73623 0.60323 0.39435 0.0
C574 C 0.73276 0.57123 0.36233 0.0
N575 N 0.72027 0.58699 0.39846 0.0
C576 C 0.75065 0.60411 0.37188 0.0
C577 C 0.74872 0.58804 0.3545 0.0
H578 H 0.70569 0.55833 0.38801 0.0
H579 H 0.73743 0.61568 0.4065 0.0
C580 C 0.66982 0.61756 0.3512 0.0
N581 N 0.66527 0.59961 0.34905 0.0
C582 C 0.6645 0.62538 0.32107 0.0
C583 C 0.6495 0.59599 0.2875 0.0
C584 C 0.65508 0.58875 0.31829 0.0
C585 C 0.65433 0.61457 0.28851 0.0
H586 H 0.6776 0.62581 0.37642 0.0
H587 H 0.65102 0.57444 0.31771 0.0
O588 O 0.68789 0.57538 0.46975 0.0
O589 O 0.65688 0.58159 0.43933 0.0
O590 O 0.69721 0.60935 0.41481 0.0
O591 O 0.67727 0.56936 0.38128 0.0
H592 H 0.69139 0.55475 0.52446 0.0
H593 H 0.71662 0.60921 0.47448 0.0
H594 H 0.71746 0.56563 0.57201 0.0
H595 H 0.74219 0.61909 0.52271 0.0
H596 H 0.60453 0.56315 0.36796 0.0
H597 H 0.65351 0.6109 0.45152 0.0
H598 H 0.62902 0.55788 0.39477 0.0
H599 H 0.62861 0.61527 0.42364 0.0
H600 H 0.66957 0.60564 0.60105 0.0
H601 H 0.68597 0.65137 0.52025 0.0
H602 H 0.63572 0.49604 0.41554 0.0
H603 H 0.60358 0.51615 0.47518 0.0
H604 H 0.69978 0.60268 0.33841 0.0
H605 H 0.72168 0.64394 0.43023 0.0
H606 H 0.72209 0.6254 0.29057 0.0
H607 H 0.74356 0.66607 0.38073 0.0
H608 H 0.69934 0.57565 0.31923 0.0
H609 H 0.64392 0.54239 0.36221 0.0
H610 H 0.6899 0.55861 0.25535 0.0
H611 H 0.63557 0.52573 0.29779 0.0
H612 H 0.73077 0.55857 0.34929 0.0
H613 H 0.76289 0.61728 0.36686 0.0
H614 H 0.6685 0.63977 0.32295 0.0
H615 H 0.64128 0.58708 0.26338 0.0
Li616 Li 0.08926 0.6829 0.62971 0.0
Li617 Li 0.1021 0.66569 0.59652 0.0
Li618 Li 0.11581 0.69909 0.58575 0.0
Li619 Li 0.08612 0.67786 0.55647 0.0
C620 C 0.12348 0.69871 0.66621 0.0
N621 N 0.1418 0.7245 0.72518 0.0
C622 C 0.13466 0.69624 0.69342 0.0
C623 C 0.1216 0.71429 0.66899 0.0
C624 C 0.14381 0.70944 0.72302 0.0
C625 C 0.13098 0.72717 0.69901 0.0
C626 C 0.06244 0.64193 0.60105 0.0
C627 C 0.04303 0.61287 0.56864 0.0
N628 N 0.03443 0.60574 0.60398 0.0
C629 C 0.05329 0.63436 0.63697 0.0
C630 C 0.05717 0.63115 0.56652 0.0
C631 C 0.03922 0.61602 0.63787 0.0
C632 C 0.06246 0.6869 0.67154 0.0
N633 N 0.07588 0.68248 0.67566 0.0
C634 C 0.06587 0.6715 0.74189 0.0
C635 C 0.07804 0.67528 0.71017 0.0
C636 C 0.05138 0.67522 0.73797 0.0
C637 C 0.05006 0.68349 0.70262 0.0
H638 H 0.06084 0.69224 0.64338 0.0
H639 H 0.08864 0.67159 0.71228 0.0
C640 C 0.12185 0.64748 0.58081 0.0
N641 N 0.10697 0.6459 0.60047 0.0
C642 C 0.12491 0.63262 0.57906 0.0
C643 C 0.09776 0.61508 0.61937 0.0
C644 C 0.0953 0.63031 0.62054 0.0
C645 C 0.11255 0.61599 0.59783 0.0
H646 H 0.13107 0.66015 0.56557 0.0
H647 H 0.08384 0.6295 0.63678 0.0
C648 C 0.09357 0.71405 0.56141 0.0
N649 N 0.09475 0.7404 0.5102 0.0
C650 C 0.10234 0.71713 0.52445 0.0
C651 C 0.08538 0.72435 0.57233 0.0
C652 C 0.10281 0.73052 0.49899 0.0
C653 C 0.08613 0.73761 0.54602 0.0
C654 C 0.11196 0.6734 0.50984 0.0
C655 C 0.12366 0.68582 0.48109 0.0
C656 C 0.10231 0.65463 0.50111 0.0
C657 C 0.12532 0.67925 0.44393 0.0
C658 C 0.10435 0.6486 0.46363 0.0
N659 N 0.1157 0.66093 0.43604 0.0
C660 C 0.15134 0.71687 0.55741 0.0
C661 C 0.14072 0.73762 0.57157 0.0
C662 C 0.16622 0.73036 0.53607 0.0
N663 N 0.13853 0.72045 0.5729 0.0
C664 C 0.1554 0.75155 0.55027 0.0
C665 C 0.16789 0.7477 0.5306 0.0
H666 H 0.14922 0.70308 0.559 0.0
H667 H 0.13038 0.74014 0.58433 0.0
C668 C 0.05156 0.66403 0.52063 0.0
N669 N 0.06986 0.67275 0.51264 0.0
C670 C 0.03885 0.65884 0.48956 0.0
C671 C 0.06412 0.67247 0.44277 0.0
C672 C 0.07629 0.67735 0.4747 0.0
C673 C 0.04512 0.66283 0.44996 0.0
H674 H 0.04682 0.66076 0.55115 0.0
H675 H 0.09086 0.68474 0.469 0.0
O676 O 0.11441 0.68583 0.6372 0.0
O677 O 0.07625 0.65988 0.59971 0.0
O678 O 0.09286 0.70098 0.58685 0.0
O679 O 0.11016 0.67964 0.54639 0.0
H680 H 0.13623 0.68423 0.69167 0.0
H681 H 0.11298 0.71645 0.64834 0.0
H682 H 0.15251 0.7077 0.74429 0.0
H683 H 0.12966 0.73929 0.70151 0.0
H684 H 0.03884 0.60438 0.54214 0.0
H685 H 0.05709 0.64251 0.66393 0.0
H686 H 0.06376 0.63685 0.53827 0.0
H687 H 0.0321 0.60997 0.66552 0.0
H688 H 0.06743 0.66525 0.76876 0.0
H689 H 0.03898 0.68636 0.69821 0.0
H690 H 0.13672 0.6341 0.56282 0.0
H691 H 0.0878 0.60255 0.63412 0.0
H692 H 0.10889 0.70943 0.51573 0.0
H693 H 0.07854 0.72214 0.60086 0.0
H694 H 0.10961 0.73308 0.47035 0.0
H695 H 0.07986 0.7457 0.55409 0.0
H696 H 0.1312 0.70041 0.48714 0.0
H697 H 0.09348 0.6448 0.52314 0.0
H698 H 0.13423 0.68872 0.42135 0.0
H699 H 0.09695 0.6341 0.45652 0.0
H700 H 0.17576 0.72694 0.52215 0.0
H701 H 0.15617 0.76473 0.54687 0.0
H702 H 0.02431 0.65135 0.49637 0.0
H703 H 0.06952 0.67615 0.41274 0.0
Li704 Li 0.44317 0.1055 0.76614 0.0
Li705 Li 0.41171 0.09112 0.79588 0.0
Li706 Li 0.4157 0.08667 0.72691 0.0
Li707 Li 0.42145 0.11635 0.74859 0.0
C708 C 0.42096 0.06212 0.7621 0.0
N709 N 0.41204 0.02748 0.73577 0.0
C710 C 0.40413 0.04688 0.77261 0.0
C711 C 0.43331 0.05974 0.73844 0.0
C712 C 0.39986 0.02948 0.75895 0.0
C713 C 0.42853 0.04212 0.72536 0.0
C714 C 0.42766 0.12643 0.8285 0.0
C715 C 0.40479 0.13253 0.8565 0.0
N716 N 0.41768 0.14507 0.88161 0.0
C717 C 0.44067 0.13937 0.85457 0.0
C718 C 0.40956 0.12295 0.82944 0.0
C719 C 0.43536 0.14865 0.88121 0.0
C720 C 0.48165 0.12884 0.76055 0.0
N721 N 0.46808 0.11231 0.77394 0.0
C722 C 0.48982 0.10289 0.78976 0.0
C723 C 0.47182 0.09957 0.78925 0.0
C724 C 0.50411 0.11951 0.77448 0.0
C725 C 0.49989 0.13275 0.76054 0.0
H726 H 0.47819 0.13864 0.74832 0.0
H727 H 0.46072 0.08652 0.79954 0.0
C728 C 0.3797 0.06702 0.83873 0.0
N729 N 0.39814 0.07849 0.84176 0.0
C730 C 0.3701 0.05457 0.86935 0.0
C731 C 0.39856 0.0666 0.9062 0.0
C732 C 0.40759 0.0788 0.8749 0.0
C733 C 0.37966 0.05388 0.90312 0.0
H734 H 0.37266 0.06677 0.81152 0.0
H735 H 0.42232 0.08788 0.87607 0.0
C736 C 0.44606 0.1138 0.6782 0.0
N737 N 0.46524 0.12058 0.60728 0.0
C738 C 0.44245 0.12238 0.6465 0.0
C739 C 0.45955 0.10883 0.67384 0.0
C740 C 0.45226 0.12563 0.61089 0.0
C741 C 0.46906 0.11232 0.63775 0.0
C742 C 0.3857 0.0929 0.72278 0.0
C743 C 0.39131 0.09781 0.68325 0.0
C744 C 0.36792 0.08838 0.73408 0.0
C745 C 0.37905 0.09817 0.65563 0.0
C746 C 0.35606 0.08892 0.70559 0.0
N747 N 0.36182 0.09377 0.66728 0.0
C748 C 0.38717 0.05586 0.68865 0.0
C749 C 0.4157 0.06797 0.65507 0.0
C750 C 0.37859 0.04231 0.65956 0.0
N751 N 0.40536 0.0685 0.68564 0.0
C752 C 0.40772 0.05466 0.62539 0.0
C753 C 0.3889 0.04167 0.62729 0.0
H754 H 0.37932 0.05629 0.71379 0.0
H755 H 0.43016 0.07771 0.65368 0.0
C756 C 0.43727 0.15077 0.71418 0.0
N757 N 0.42125 0.13774 0.73076 0.0
C758 C 0.43771 0.16482 0.69124 0.0
C759 C 0.4055 0.15274 0.7057 0.0
C760 C 0.40569 0.13887 0.72843 0.0
C761 C 0.42151 0.1655 0.68546 0.0
H762 H 0.44945 0.14956 0.71669 0.0
H763 H 0.39315 0.12844 0.74221 0.0
O764 O 0.42512 0.07933 0.77412 0.0
O765 O 0.43273 0.11729 0.80227 0.0
O766 O 0.43691 0.11093 0.71372 0.0
O767 O 0.3975 0.0926 0.75055 0.0
H768 H 0.39437 0.04848 0.79071 0.0
H769 H 0.44634 0.0714 0.72981 0.0
H770 H 0.38684 0.01757 0.76664 0.0
H771 H 0.4379 0.04009 0.70679 0.0
H772 H 0.39085 0.12998 0.85755 0.0
H773 H 0.45474 0.14221 0.85419 0.0
H774 H 0.39927 0.11299 0.80959 0.0
H775 H 0.44529 0.1587 0.90157 0.0
H776 H 0.49236 0.09217 0.80027 0.0
H777 H 0.5105 0.14581 0.74889 0.0
H778 H 0.3556 0.04488 0.86552 0.0
H779 H 0.4064 0.06668 0.93193 0.0
H780 H 0.43225 0.12656 0.64928 0.0
H781 H 0.46246 0.10204 0.69773 0.0
H782 H 0.44957 0.13223 0.58615 0.0
H783 H 0.47945 0.10843 0.63395 0.0
H784 H 0.40494 0.10121 0.67396 0.0
H785 H 0.36338 0.08462 0.76462 0.0
H786 H 0.38324 0.10196 0.62494 0.0
H787 H 0.34227 0.0855 0.71394 0.0
H788 H 0.3641 0.03235 0.66246 0.0
H789 H 0.41616 0.05472 0.60089 0.0
H790 H 0.45044 0.17462 0.67683 0.0
H791 H 0.39272 0.15277 0.70207 0.0
Li792 Li 0.33285 0.43674 0.92964 0.0
Li793 Li 0.31618 0.40534 0.95957 0.0
Li794 Li 0.32341 0.4092 0.88992 0.0
Li795 Li 0.29994 0.4151 0.9146 0.0
C796 C 0.35369 0.41424 0.92247 0.0
N797 N 0.37871 0.4049 0.89352 0.0
C798 C 0.35215 0.39742 0.93282 0.0
C799 C 0.36801 0.42637 0.89762 0.0
C800 C 0.36493 0.39295 0.91784 0.0
C801 C 0.3805 0.42138 0.88322 0.0
C802 C 0.2976 0.42137 0.99526 0.0
C803 C 0.26884 0.3987 0.02441 0.0
N804 N 0.27011 0.41139 0.05136 0.0
C805 C 0.29861 0.43418 0.02323 0.0
C806 C 0.2826 0.40347 0.99582 0.0
C807 C 0.28458 0.42887 0.05136 0.0
C808 C 0.34817 0.47528 0.92442 0.0
N809 N 0.35123 0.46159 0.93652 0.0
C810 C 0.38274 0.48309 0.94969 0.0
C811 C 0.36794 0.46517 0.94992 0.0
C812 C 0.38026 0.49746 0.93562 0.0
C813 C 0.3626 0.49346 0.92378 0.0
H814 H 0.33472 0.47194 0.91357 0.0
H815 H 0.36993 0.45399 0.95949 0.0
C816 C 0.30792 0.37331 0.00315 0.0
N817 N 0.31607 0.39192 0.00501 0.0
C818 C 0.31112 0.36367 0.03308 0.0
C819 C 0.33043 0.39247 0.06689 0.0
C820 C 0.32685 0.40154 0.03633 0.0
C821 C 0.32293 0.37331 0.06498 0.0
H822 H 0.29974 0.36608 0.9774 0.0
H823 H 0.33347 0.41638 0.03643 0.0
C824 C 0.32549 0.43979 0.84288 0.0
N825 N 0.33588 0.45943 0.77222 0.0
C826 C 0.31245 0.43634 0.81318 0.0
C827 C 0.34381 0.45333 0.83663 0.0
C828 C 0.31798 0.44638 0.77768 0.0
C829 C 0.34879 0.46308 0.8007 0.0
C830 C 0.28723 0.37939 0.88767 0.0
C831 C 0.28751 0.38519 0.84845 0.0
C832 C 0.27407 0.36156 0.89891 0.0
C833 C 0.27457 0.37307 0.82112 0.0
C834 C 0.26135 0.34984 0.87071 0.0
N835 N 0.26185 0.3558 0.83273 0.0
C836 C 0.32544 0.38092 0.84954 0.0
C837 C 0.34095 0.40959 0.81621 0.0
C838 C 0.33039 0.37267 0.8196 0.0
N839 N 0.33064 0.39904 0.84717 0.0
C840 C 0.3462 0.40194 0.78567 0.0
C841 C 0.3409 0.38324 0.78711 0.0
H842 H 0.31757 0.3729 0.87493 0.0
H843 H 0.34535 0.42398 0.81526 0.0
C844 C 0.28131 0.43183 0.8853 0.0
N845 N 0.27827 0.41532 0.89892 0.0
C846 C 0.26789 0.43295 0.86303 0.0
C847 C 0.24781 0.4003 0.87235 0.0
C848 C 0.26164 0.39983 0.89459 0.0
C849 C 0.25118 0.4169 0.85479 0.0
H850 H 0.29466 0.44393 0.8893 0.0
H851 H 0.25947 0.38689 0.90615 0.0
O852 O 0.34096 0.41861 0.93579 0.0
O853 O 0.31128 0.42643 0.96762 0.0
O854 O 0.32023 0.43042 0.87835 0.0
O855 O 0.29966 0.39103 0.91516 0.0
H856 H 0.34109 0.38784 0.95184 0.0
H857 H 0.3693 0.43938 0.88905 0.0
H858 H 0.36386 0.37993 0.92542 0.0
H859 H 0.39157 0.43057 0.86372 0.0
H860 H 0.25716 0.38491 0.02518 0.0
H861 H 0.31014 0.44809 0.02318 0.0
H862 H 0.28155 0.39334 0.97451 0.0
H863 H 0.28518 0.43864 0.0732 0.0
H864 H 0.39608 0.48565 0.95968 0.0
H865 H 0.36016 0.50413 0.91251 0.0
H866 H 0.30492 0.34889 0.03061 0.0
H867 H 0.33982 0.40051 0.09052 0.0
H868 H 0.29817 0.42605 0.81743 0.0
H869 H 0.35417 0.4561 0.85891 0.0
H870 H 0.30802 0.44383 0.7545 0.0
H871 H 0.36293 0.47351 0.79544 0.0
H872 H 0.29764 0.39885 0.83916 0.0
H873 H 0.27361 0.35686 0.92919 0.0
H874 H 0.27464 0.37741 0.79069 0.0
H875 H 0.25105 0.33602 0.87904 0.0
H876 H 0.32625 0.35827 0.82214 0.0
H877 H 0.35421 0.41056 0.761 0.0
H878 H 0.2709 0.4461 0.8508 0.0
H879 H 0.23511 0.38761 0.86682 0.0
Li880 Li 0.89758 0.33488 0.09518 0.0
Li881 Li 0.91046 0.31834 0.12617 0.0
Li882 Li 0.91487 0.32417 0.05648 0.0
Li883 Li 0.88443 0.3021 0.08306 0.0
C884 C 0.93507 0.35956 0.08458 0.0
N885 N 0.95779 0.39429 0.05408 0.0
C886 C 0.95225 0.37095 0.10182 0.0
C887 C 0.92945 0.36583 0.0518 0.0
C888 C 0.96354 0.38847 0.08597 0.0
C889 C 0.94113 0.38343 0.03683 0.0
C890 C 0.88372 0.32136 0.1704 0.0
C891 C 0.86594 0.3206 0.22764 0.0
N892 N 0.88091 0.33574 0.24252 0.0
C893 C 0.89893 0.33692 0.18626 0.0
C894 C 0.86709 0.31313 0.19122 0.0
C895 C 0.89723 0.34398 0.22275 0.0
C896 C 0.87787 0.35293 0.07741 0.0
N897 N 0.8921 0.35427 0.09928 0.0
C898 C 0.90033 0.38462 0.12005 0.0
C899 C 0.90311 0.36959 0.1209 0.0
C900 C 0.88621 0.38398 0.09636 0.0
C901 C 0.87468 0.36771 0.07539 0.0
H902 H 0.86932 0.34055 0.06059 0.0
H903 H 0.91444 0.37041 0.13786 0.0
C904 C 0.94245 0.3248 0.16183 0.0
N905 N 0.92439 0.31779 0.17069 0.0
C906 C 0.95492 0.32673 0.19147 0.0
C907 C 0.92993 0.31395 0.23904 0.0
C908 C 0.91784 0.31198 0.20819 0.0
C909 C 0.94877 0.3216 0.2308 0.0
H910 H 0.94722 0.32925 0.13168 0.0
H911 H 0.90336 0.30623 0.21438 0.0
C912 C 0.8845 0.31439 0.0065 0.0
N913 N 0.87042 0.29772 0.93375 0.0
C914 C 0.88816 0.30094 0.99202 0.0
C915 C 0.87374 0.31941 0.98382 0.0
C916 C 0.88091 0.29266 0.95522 0.0
C917 C 0.86675 0.31082 0.94715 0.0
C918 C 0.90907 0.28802 0.10616 0.0
C919 C 0.9245 0.28599 0.10174 0.0
C920 C 0.89593 0.2778 0.1352 0.0
C921 C 0.92658 0.27383 0.12668 0.0
C922 C 0.89851 0.26578 0.15953 0.0
N923 N 0.91366 0.26407 0.15483 0.0
C924 C 0.94631 0.32772 0.01865 0.0
C925 C 0.92969 0.33816 0.98004 0.0
C926 C 0.95937 0.33262 0.98841 0.0
N927 N 0.93178 0.3304 0.01378 0.0
C928 C 0.94243 0.34333 0.94917 0.0
C929 C 0.95751 0.34058 0.95318 0.0
H930 H 0.94791 0.32205 0.04629 0.0
H931 H 0.91825 0.34055 0.9772 0.0
C932 C 0.84819 0.28337 0.05711 0.0
N933 N 0.86243 0.2808 0.06699 0.0
C934 C 0.83385 0.27049 0.03345 0.0
C935 C 0.84836 0.25187 0.03333 0.0
C936 C 0.8626 0.26525 0.05646 0.0
C937 C 0.83414 0.25479 0.02032 0.0
H938 H 0.84875 0.29614 0.06487 0.0
H939 H 0.87442 0.26388 0.06327 0.0
O940 O 0.92396 0.34236 0.09986 0.0
O941 O 0.88492 0.31416 0.13463 0.0
O942 O 0.89077 0.32214 0.04331 0.0
O943 O 0.90699 0.30026 0.08296 0.0
H944 H 0.9568 0.36629 0.1272 0.0
H945 H 0.9162 0.35725 0.03806 0.0
H946 H 0.97687 0.39743 0.09903 0.0
H947 H 0.93695 0.38845 0.01151 0.0
H948 H 0.85314 0.31436 0.24406 0.0
H949 H 0.91196 0.34342 0.17082 0.0
H950 H 0.85518 0.30108 0.17931 0.0
H951 H 0.90891 0.35599 0.23539 0.0
H952 H 0.90936 0.39673 0.1373 0.0
H953 H 0.86374 0.36661 0.05646 0.0
H954 H 0.96934 0.33286 0.18398 0.0
H955 H 0.92469 0.30975 0.26904 0.0
H956 H 0.89637 0.29677 0.0091 0.0
H957 H 0.87072 0.32976 0.99451 0.0
H958 H 0.88356 0.28217 0.94381 0.0
H959 H 0.85835 0.31453 0.92938 0.0
H960 H 0.93478 0.29373 0.07941 0.0
H961 H 0.88397 0.2793 0.1392 0.0
H962 H 0.93849 0.27217 0.12369 0.0
H963 H 0.8885 0.25786 0.18226 0.0
H964 H 0.97099 0.33056 0.99284 0.0
H965 H 0.94045 0.34934 0.92237 0.0
H966 H 0.82309 0.27318 0.02398 0.0
H967 H 0.84917 0.24004 0.0233 0.0
Li968 Li 0.59308 0.91193 0.29392 0.0
Li969 Li 0.56334 0.89912 0.26295 0.0
Li970 Li 0.58394 0.88504 0.25205 0.0
Li971 Li 0.59158 0.9157 0.22302 0.0
C972 C 0.57023 0.88285 0.34142 0.0
N973 N 0.56739 0.87528 0.42214 0.0
C974 C 0.56328 0.89099 0.36717 0.0
C975 C 0.57562 0.87077 0.35658 0.0
C976 C 0.56201 0.88703 0.40794 0.0
C977 C 0.57408 0.86713 0.39753 0.0
C978 C 0.575 0.93573 0.27344 0.0
C979 C 0.55913 0.95135 0.25105 0.0
N980 N 0.55899 0.95687 0.28915 0.0
C981 C 0.57477 0.94162 0.31237 0.0
C982 C 0.5672 0.9407 0.24249 0.0
C983 C 0.56659 0.95229 0.31969 0.0
C984 C 0.617 0.94481 0.32889 0.0
N985 N 0.60789 0.9266 0.33796 0.0
C986 C 0.6204 0.93318 0.40405 0.0
C987 C 0.60977 0.92056 0.37442 0.0
C988 C 0.62949 0.9521 0.39565 0.0
C989 C 0.62791 0.95782 0.35728 0.0
H990 H 0.61557 0.94927 0.2995 0.0
H991 H 0.60305 0.90606 0.38074 0.0
C992 C 0.52634 0.88091 0.23849 0.0
N993 N 0.53818 0.89317 0.26555 0.0
C994 C 0.50823 0.8773 0.23619 0.0
C995 C 0.5146 0.89847 0.29067 0.0
C996 C 0.53248 0.90143 0.29229 0.0
C997 C 0.50223 0.88648 0.26188 0.0
H998 H 0.53103 0.87412 0.2182 0.0
H999 H 0.54187 0.91065 0.3144 0.0
C1000 C 0.62429 0.91571 0.26876 0.0
N1001 N 0.6577 0.93147 0.30769 0.0
C1002 C 0.63801 0.93354 0.25908 0.0
C1003 C 0.62756 0.90583 0.29798 0.0
C1004 C 0.65482 0.94128 0.27917 0.0
C1005 C 0.64455 0.91406 0.31739 0.0
C1006 C 0.56575 0.89031 0.17315 0.0
C1007 C 0.57005 0.87997 0.14722 0.0
C1008 C 0.55744 0.8999 0.15819 0.0
C1009 C 0.5661 0.87954 0.1066 0.0
C1010 C 0.55372 0.89914 0.11738 0.0
N1011 N 0.5581 0.88907 0.09264 0.0
C1012 C 0.5674 0.8486 0.2268 0.0
C1013 C 0.59999 0.8643 0.22696 0.0
C1014 C 0.56677 0.83434 0.20416 0.0
N1015 N 0.58385 0.86339 0.23661 0.0
C1016 C 0.6 0.85025 0.20467 0.0
C1017 C 0.58324 0.8354 0.19169 0.0
H1018 H 0.55482 0.84855 0.23394 0.0
H1019 H 0.61286 0.87651 0.23403 0.0
C1020 C 0.60662 0.94902 0.181 0.0
N1021 N 0.6028 0.93131 0.17887 0.0
C1022 C 0.61483 0.96085 0.14878 0.0
C1023 C 0.61533 0.93606 0.11314 0.0
C1024 C 0.60736 0.9248 0.14629 0.0
C1025 C 0.61908 0.9543 0.11419 0.0
H1026 H 0.60332 0.95396 0.20775 0.0
H1027 H 0.60483 0.91087 0.14609 0.0
O1028 O 0.57137 0.88633 0.30142 0.0
O1029 O 0.583 0.92532 0.26563 0.0
O1030 O 0.60757 0.90811 0.25032 0.0
O1031 O 0.56966 0.89104 0.21298 0.0
H1032 H 0.55908 0.90037 0.35583 0.0
H1033 H 0.58094 0.86431 0.33689 0.0
H1034 H 0.55676 0.8933 0.42829 0.0
H1035 H 0.57824 0.85785 0.40975 0.0
H1036 H 0.55299 0.95525 0.2274 0.0
H1037 H 0.58055 0.93776 0.33681 0.0
H1038 H 0.5674 0.93641 0.21217 0.0
H1039 H 0.56621 0.95685 0.3497 0.0
H1040 H 0.6215 0.92823 0.43318 0.0
H1041 H 0.63458 0.97227 0.34963 0.0
H1042 H 0.49912 0.86755 0.21424 0.0
H1043 H 0.51076 0.90598 0.31102 0.0
H1044 H 0.63562 0.94136 0.2366 0.0
H1045 H 0.61699 0.89205 0.30596 0.0
H1046 H 0.66554 0.95511 0.27219 0.0
H1047 H 0.64725 0.90664 0.34028 0.0
H1048 H 0.57659 0.87254 0.15819 0.0
H1049 H 0.55389 0.90784 0.1779 0.0
H1050 H 0.56944 0.87168 0.08616 0.0
H1051 H 0.54734 0.90655 0.10538 0.0
H1052 H 0.55359 0.82307 0.19485 0.0
H1053 H 0.61297 0.85167 0.19525 0.0
H1054 H 0.61753 0.97485 0.1506 0.0
H1055 H 0.61872 0.93066 0.08715 0.0
C1056 C 0.33302 0.35055 0.08118 0.0
C1057 C 0.32865 0.36379 0.09422 0.0
C1058 C 0.34008 0.34266 0.10766 0.0
C1059 C 0.34294 0.3482 0.14815 0.0
C1060 C 0.33805 0.36114 0.16179 0.0
C1061 C 0.33095 0.36875 0.13469 0.0
C1062 C 0.34509 0.32888 0.09199 0.0
C1063 C 0.34083 0.36735 0.20478 0.0
C1064 C 0.34988 0.31965 0.22699 0.0
C1065 C 0.36903 0.32942 0.2318 0.0
C1066 C 0.3412 0.32533 0.19921 0.0
C1067 C 0.35193 0.34122 0.17586 0.0
C1068 C 0.3713 0.35087 0.17989 0.0
C1069 C 0.37961 0.34484 0.20773 0.0
C1070 C 0.32053 0.31456 0.19545 0.0
C1071 C 0.38323 0.36793 0.15566 0.0
H1072 H 0.33157 0.34682 0.04988 0.0
H1073 H 0.32738 0.37878 0.14511 0.0
H1074 H 0.36018 0.33474 0.09379 0.0
H1075 H 0.33864 0.31627 0.1106 0.0
H1076 H 0.34073 0.32499 0.0605 0.0
H1077 H 0.33557 0.37688 0.21101 0.0
H1078 H 0.33379 0.35531 0.22492 0.0
H1079 H 0.35569 0.37443 0.2122 0.0
H1080 H 0.34165 0.30763 0.24527 0.0
H1081 H 0.39439 0.35262 0.2117 0.0
H1082 H 0.31654 0.31048 0.16392 0.0
H1083 H 0.31469 0.3233 0.2044 0.0
H1084 H 0.31426 0.302 0.2143 0.0
H1085 H 0.3805 0.36492 0.12334 0.0
H1086 H 0.39811 0.37344 0.16122 0.0
H1087 H 0.37983 0.37876 0.16307 0.0
C1088 C 0.01987 0.34374 0.41202 0.0
C1089 C 0.03496 0.36131 0.4053 0.0
C1090 C 0.00569 0.33534 0.38379 0.0
C1091 C 0.00649 0.3449 0.34838 0.0
C1092 C 0.022 0.36241 0.3409 0.0
C1093 C 0.03612 0.37034 0.36935 0.0
C1094 C 0.98958 0.31651 0.39246 0.0
C1095 C 0.02329 0.37314 0.3037 0.0
C1096 C 0.97622 0.32114 0.25852 0.0
C1097 C 0.96229 0.32555 0.26315 0.0
C1098 C 0.99033 0.3267 0.28686 0.0
C1099 C 0.99066 0.3372 0.32023 0.0
C1100 C 0.97631 0.34121 0.32565 0.0
C1101 C 0.96222 0.33522 0.29716 0.0
C1102 C 0.00518 0.32184 0.28047 0.0
C1103 C 0.97625 0.35252 0.36062 0.0
H1104 H 0.01903 0.33669 0.43973 0.0
H1105 H 0.04768 0.38401 0.36432 0.0
H1106 H 0.97704 0.31751 0.39717 0.0
H1107 H 0.9869 0.30724 0.36664 0.0
H1108 H 0.99186 0.31021 0.41942 0.0
H1109 H 0.03663 0.38619 0.30151 0.0
H1110 H 0.02156 0.36477 0.27673 0.0
H1111 H 0.01204 0.37643 0.3036 0.0
H1112 H 0.97621 0.31354 0.23235 0.0
H1113 H 0.95159 0.33884 0.30056 0.0
H1114 H 0.00701 0.31547 0.30779 0.0
H1115 H 0.01846 0.33451 0.27447 0.0
H1116 H 0.00205 0.31224 0.25503 0.0
H1117 H 0.97716 0.34627 0.38907 0.0
H1118 H 0.96372 0.3538 0.36137 0.0
H1119 H 0.98847 0.3665 0.359 0.0
C1120 C 0.65696 0.98134 0.41845 0.0
C1121 C 0.63977 0.96599 0.42697 0.0
C1122 C 0.66587 0.99563 0.44625 0.0
C1123 C 0.65729 0.99462 0.48326 0.0
C1124 C 0.64023 0.97885 0.49255 0.0
C1125 C 0.63172 0.96468 0.46436 0.0
C1126 C 0.68417 0.01207 0.43549 0.0
C1127 C 0.63058 0.9773 0.5316 0.0
C1128 C 0.68351 0.02546 0.57074 0.0
C1129 C 0.6784 0.03897 0.56842 0.0
C1130 C 0.67728 0.01127 0.54239 0.0
C1131 C 0.66551 0.01049 0.5113 0.0
C1132 C 0.66079 0.02444 0.50811 0.0
C1133 C 0.66736 0.03855 0.53661 0.0
C1134 C 0.68284 0.99682 0.54644 0.0
C1135 C 0.64817 0.02403 0.47553 0.0
H1136 H 0.6633 0.9823 0.3897 0.0
H1137 H 0.61836 0.95293 0.47088 0.0
H1138 H 0.68264 0.02438 0.43236 0.0
H1139 H 0.69431 0.01499 0.45962 0.0
H1140 H 0.68974 0.01003 0.40709 0.0
H1141 H 0.61787 0.96375 0.53511 0.0
H1142 H 0.63987 0.97938 0.55703 0.0
H1143 H 0.62685 0.98822 0.53333 0.0
H1144 H 0.69216 0.02583 0.59514 0.0
H1145 H 0.66318 0.04882 0.535 0.0
H1146 H 0.68851 0.99519 0.51781 0.0
H1147 H 0.67059 0.98337 0.55356 0.0
H1148 H 0.69325 0.00022 0.57027 0.0
H1149 H 0.65356 0.02322 0.44584 0.0
H1150 H 0.6465 0.03634 0.47615 0.0
H1151 H 0.63443 0.0116 0.4789 0.0
C1152 C 0.6605 0.64647 0.58303 0.0
C1153 C 0.67149 0.63908 0.59483 0.0
C1154 C 0.65316 0.65338 0.61123 0.0
C1155 C 0.65699 0.65301 0.65225 0.0
C1156 C 0.66874 0.64632 0.6642 0.0
C1157 C 0.67576 0.63931 0.63536 0.0
C1158 C 0.64054 0.66021 0.59727 0.0
C1159 C 0.67333 0.64589 0.70762 0.0
C1160 C 0.64569 0.68058 0.72575 0.0
C1161 C 0.629 0.66686 0.74173 0.0
C1162 C 0.65503 0.67633 0.69656 0.0
C1163 C 0.64735 0.65799 0.68281 0.0
C1164 C 0.63031 0.6442 0.69833 0.0
C1165 C 0.6214 0.64879 0.72766 0.0
C1166 C 0.67324 0.69136 0.68093 0.0
C1167 C 0.6215 0.62454 0.6841 0.0
H1168 H 0.65694 0.6461 0.5518 0.0
H1169 H 0.68438 0.63377 0.64457 0.0
H1170 H 0.62638 0.65078 0.60804 0.0
H1171 H 0.6449 0.67398 0.60995 0.0
H1172 H 0.6402 0.66105 0.56421 0.0
H1173 H 0.68403 0.64195 0.71162 0.0
H1174 H 0.6782 0.65954 0.72153 0.0
H1175 H 0.66079 0.63586 0.72391 0.0
H1176 H 0.65166 0.69452 0.73682 0.0
H1177 H 0.60838 0.6382 0.73963 0.0
H1178 H 0.67263 0.69239 0.64802 0.0
H1179 H 0.68415 0.68798 0.68756 0.0
H1180 H 0.67722 0.70495 0.69425 0.0
H1181 H 0.61944 0.62394 0.65131 0.0
H1182 H 0.60802 0.61556 0.69859 0.0
H1183 H 0.6307 0.61892 0.69049 0.0
C1184 C 0.0292 0.65148 0.78535 0.0
C1185 C 0.03693 0.66921 0.76916 0.0
C1186 C 0.01493 0.64514 0.81344 0.0
C1187 C 0.00829 0.65684 0.82595 0.0
C1188 C 0.01614 0.67483 0.81003 0.0
C1189 C 0.0303 0.68076 0.78162 0.0
C1190 C 0.00682 0.62581 0.82939 0.0
C1191 C 0.00958 0.68778 0.82301 0.0
C1192 C 0.96046 0.63357 0.8718 0.0
C1193 C 0.96443 0.63494 0.91278 0.0
C1194 C 0.97459 0.641 0.84321 0.0
C1195 C 0.99316 0.65018 0.85585 0.0
C1196 C 0.99727 0.65212 0.89712 0.0
C1197 C 0.9829 0.6444 0.92502 0.0
C1198 C 0.96964 0.63859 0.79944 0.0
C1199 C 0.01689 0.66188 0.91184 0.0
H1200 H 0.03404 0.64238 0.7753 0.0
H1201 H 0.0363 0.6945 0.76933 0.0
H1202 H 0.00829 0.62611 0.86233 0.0
H1203 H 0.99191 0.61788 0.82259 0.0
H1204 H 0.0135 0.61843 0.8165 0.0
H1205 H 0.01723 0.70137 0.80807 0.0
H1206 H 0.99475 0.68171 0.81622 0.0
H1207 H 0.0112 0.68988 0.85578 0.0
H1208 H 0.94627 0.62654 0.862 0.0
H1209 H 0.9862 0.64528 0.9565 0.0
H1210 H 0.97484 0.63018 0.78508 0.0
H1211 H 0.9763 0.65212 0.78422 0.0
H1212 H 0.95457 0.63178 0.79452 0.0
H1213 H 0.02372 0.65405 0.90282 0.0
H1214 H 0.01777 0.66345 0.94483 0.0
H1215 H 0.0247 0.67571 0.89807 0.0
C1216 C 0.3791 0.02963 0.94741 0.0
C1217 C 0.37035 0.03902 0.93325 0.0
C1218 C 0.37041 0.01515 0.97477 0.0
C1219 C 0.3525 0.00987 0.9884 0.0
C1220 C 0.34355 0.01925 0.97424 0.0
C1221 C 0.35257 0.0337 0.94673 0.0
C1222 C 0.38041 0.00545 0.989 0.0
C1223 C 0.3245 0.01409 0.98831 0.0
C1224 C 0.32581 0.96211 0.03401 0.0
C1225 C 0.32922 0.96599 0.07488 0.0
C1226 C 0.3328 0.9763 0.00553 0.0
C1227 C 0.34343 0.9948 0.01821 0.0
C1228 C 0.34645 0.99883 0.05944 0.0
C1229 C 0.33939 0.98441 0.0872 0.0
C1230 C 0.32928 0.97146 0.96179 0.0
C1231 C 0.35772 0.01836 0.07421 0.0
H1232 H 0.39268 0.03339 0.93649 0.0
H1233 H 0.34577 0.04095 0.93604 0.0
H1234 H 0.38208 0.00669 0.0219 0.0
H1235 H 0.37223 0.99059 0.98189 0.0
H1236 H 0.39422 0.01111 0.97518 0.0
H1237 H 0.31931 0.02253 0.97394 0.0
H1238 H 0.3148 0.99939 0.98178 0.0
H1239 H 0.32454 0.01586 0.02114 0.0
H1240 H 0.3178 0.94796 0.02424 0.0
H1241 H 0.34243 0.98758 0.11859 0.0
H1242 H 0.34246 0.97548 0.94646 0.0
H1243 H 0.32332 0.97921 0.94751 0.0
H1244 H 0.31981 0.95654 0.95695 0.0
H1245 H 0.37217 0.02422 0.06418 0.0
H1246 H 0.3576 0.01927 0.10728 0.0
H1247 H 0.35247 0.02702 0.0614 0.0
C1248 C 0.6013 0.46907 0.44938 0.0
C1249 C 0.60067 0.48514 0.44141 0.0
C1250 C 0.58548 0.45167 0.44566 0.0
C1251 C 0.56872 0.45035 0.43345 0.0
C1252 C 0.56808 0.46652 0.42501 0.0
C1253 C 0.58404 0.48369 0.42911 0.0
C1254 C 0.58665 0.43472 0.45511 0.0
C1255 C 0.55051 0.4657 0.41166 0.0
C1256 C 0.52991 0.40624 0.38962 0.0
C1257 C 0.51766 0.39925 0.42189 0.0
C1258 C 0.54686 0.42258 0.39328 0.0
C1259 C 0.55168 0.43213 0.43011 0.0
C1260 C 0.53962 0.42488 0.46309 0.0
C1261 C 0.52275 0.40858 0.45855 0.0
C1262 C 0.55937 0.4299 0.35743 0.0
C1263 C 0.54425 0.43466 0.50284 0.0
H1264 H 0.6141 0.47013 0.45906 0.0
H1265 H 0.58355 0.49603 0.4221 0.0
H1266 H 0.57722 0.4271 0.48009 0.0
H1267 H 0.58217 0.42539 0.42894 0.0
H1268 H 0.60078 0.43808 0.46349 0.0
H1269 H 0.55239 0.47955 0.40582 0.0
H1270 H 0.54535 0.45738 0.38402 0.0
H1271 H 0.53976 0.45886 0.43485 0.0
H1272 H 0.5262 0.399 0.36136 0.0
H1273 H 0.51327 0.40346 0.48349 0.0
H1274 H 0.5733 0.43247 0.36517 0.0
H1275 H 0.56082 0.44323 0.34814 0.0
H1276 H 0.55412 0.4203 0.33167 0.0
H1277 H 0.55803 0.4376 0.51296 0.0
H1278 H 0.53403 0.42654 0.52629 0.0
H1279 H 0.54475 0.44805 0.49965 0.0
C1280 C 0.13018 0.53034 0.58366 0.0
C1281 C 0.11402 0.51485 0.57055 0.0
C1282 C 0.1312 0.54747 0.58734 0.0
C1283 C 0.11557 0.54902 0.5783 0.0
C1284 C 0.09926 0.53344 0.5647 0.0
C1285 C 0.09873 0.51656 0.56075 0.0
C1286 C 0.14891 0.56385 0.60128 0.0
C1287 C 0.08223 0.53448 0.55527 0.0
C1288 C 0.11043 0.58724 0.62572 0.0
C1289 C 0.11458 0.59945 0.59367 0.0
C1290 C 0.11098 0.57092 0.62129 0.0
C1291 C 0.11603 0.56679 0.58405 0.0
C1292 C 0.12079 0.5793 0.55193 0.0
C1293 C 0.11989 0.59541 0.55704 0.0
C1294 C 0.10573 0.55787 0.65621 0.0
C1295 C 0.12638 0.57544 0.51186 0.0
H1296 H 0.14205 0.52904 0.59099 0.0
H1297 H 0.08614 0.50453 0.55111 0.0
H1298 H 0.15356 0.57521 0.57935 0.0
H1299 H 0.14663 0.56896 0.63002 0.0
H1300 H 0.16004 0.56052 0.60542 0.0
H1301 H 0.07076 0.52117 0.54441 0.0
H1302 H 0.07759 0.53859 0.58237 0.0
H1303 H 0.08534 0.54511 0.5322 0.0
H1304 H 0.10662 0.59038 0.65432 0.0
H1305 H 0.12287 0.60459 0.5319 0.0
H1306 H 0.11706 0.55516 0.66322 0.0
H1307 H 0.09352 0.54451 0.64837 0.0
H1308 H 0.10253 0.5633 0.68342 0.0
H1309 H 0.13773 0.57243 0.51555 0.0
H1310 H 0.13089 0.58713 0.49082 0.0
H1311 H 0.11464 0.5631 0.49832 0.0
C1312 C 0.5331 0.1298 0.73535 0.0
C1313 C 0.52295 0.12226 0.77046 0.0
C1314 C 0.54992 0.13043 0.72906 0.0
C1315 C 0.55667 0.12321 0.75842 0.0
C1316 C 0.54693 0.11635 0.79466 0.0
C1317 C 0.53023 0.11603 0.8003 0.0
C1318 C 0.55999 0.13799 0.69017 0.0
C1319 C 0.55369 0.10854 0.82673 0.0
C1320 C 0.58572 0.10253 0.72654 0.0
C1321 C 0.60331 0.11591 0.73919 0.0
C1322 C 0.57053 0.10496 0.73184 0.0
C1323 C 0.57298 0.12125 0.74994 0.0
C1324 C 0.5908 0.13514 0.76142 0.0
C1325 C 0.60577 0.13229 0.756 0.0
C1326 C 0.55176 0.08982 0.71908 0.0
C1327 C 0.59395 0.15276 0.78051 0.0
H1328 H 0.52751 0.13447 0.71192 0.0
H1329 H 0.52264 0.11049 0.82778 0.0
H1330 H 0.57474 0.14785 0.69578 0.0
H1331 H 0.55925 0.12661 0.67194 0.0
H1332 H 0.55409 0.145 0.67254 0.0
H1333 H 0.54524 0.10499 0.8543 0.0
H1334 H 0.55331 0.09594 0.81545 0.0
H1335 H 0.56817 0.11851 0.8345 0.0
H1336 H 0.58379 0.08999 0.71287 0.0
H1337 H 0.61929 0.14262 0.76618 0.0
H1338 H 0.54542 0.09531 0.69823 0.0
H1339 H 0.54263 0.08436 0.74551 0.0
H1340 H 0.55229 0.07828 0.70425 0.0
H1341 H 0.58779 0.15922 0.76194 0.0
H1342 H 0.60879 0.16279 0.78475 0.0
H1343 H 0.58708 0.14972 0.81005 0.0
C1344 C 0.47296 0.5931 0.95137 0.0
C1345 C 0.47727 0.60392 0.91679 0.0
C1346 C 0.45635 0.57647 0.9547 0.0
C1347 C 0.44377 0.57037 0.92252 0.0
C1348 C 0.44777 0.5814 0.88791 0.0
C1349 C 0.46448 0.59807 0.88546 0.0
C1350 C 0.4526 0.56509 0.9921 0.0
C1351 C 0.43468 0.57532 0.85299 0.0
C1352 C 0.41269 0.51878 0.91487 0.0
C1353 C 0.39626 0.51627 0.93141 0.0
C1354 C 0.42809 0.53636 0.91102 0.0
C1355 C 0.42709 0.55184 0.92413 0.0
C1356 C 0.41045 0.54946 0.94027 0.0
C1357 C 0.39519 0.53167 0.9436 0.0
C1358 C 0.44554 0.53833 0.89339 0.0
C1359 C 0.40892 0.56564 0.95476 0.0
H1360 H 0.48287 0.59731 0.97545 0.0
H1361 H 0.46762 0.60644 0.85885 0.0
H1362 H 0.43891 0.56134 0.00441 0.0
H1363 H 0.45238 0.5521 0.98483 0.0
H1364 H 0.46312 0.57241 0.01555 0.0
H1365 H 0.43925 0.58601 0.8294 0.0
H1366 H 0.43349 0.56268 0.83971 0.0
H1367 H 0.42075 0.57189 0.86315 0.0
H1368 H 0.41346 0.50694 0.90467 0.0
H1369 H 0.38253 0.52977 0.95653 0.0
H1370 H 0.45672 0.54432 0.91589 0.0
H1371 H 0.45001 0.54787 0.86758 0.0
H1372 H 0.44384 0.52497 0.88331 0.0
H1373 H 0.41852 0.57237 0.98004 0.0
H1374 H 0.39479 0.56157 0.96478 0.0
H1375 H 0.41296 0.57602 0.93069 0.0
C1376 C 0.8997 0.41804 0.08955 0.0
C1377 C 0.8841 0.40046 0.09213 0.0
C1378 C 0.89807 0.43375 0.08513 0.0
C1379 C 0.8804 0.43188 0.08267 0.0
C1380 C 0.86458 0.41422 0.08493 0.0
C1381 C 0.86661 0.39872 0.08983 0.0
C1382 C 0.91529 0.45237 0.08304 0.0
C1383 C 0.84552 0.4117 0.08221 0.0
C1384 C 0.87782 0.47453 0.10799 0.0
C1385 C 0.87874 0.48202 0.07006 0.0
C1386 C 0.87781 0.45794 0.11248 0.0
C1387 C 0.87862 0.44853 0.07818 0.0
C1388 C 0.8789 0.45568 0.03974 0.0
C1389 C 0.87907 0.47241 0.03615 0.0
C1390 C 0.87771 0.45087 0.15399 0.0
C1391 C 0.87954 0.44592 0.00246 0.0
H1392 H 0.91327 0.41953 0.09041 0.0
H1393 H 0.85447 0.38524 0.0922 0.0
H1394 H 0.9158 0.45909 0.05421 0.0
H1395 H 0.91515 0.46136 0.10713 0.0
H1396 H 0.92798 0.45147 0.086 0.0
H1397 H 0.83463 0.39701 0.08352 0.0
H1398 H 0.84331 0.41913 0.10701 0.0
H1399 H 0.84402 0.41769 0.05392 0.0
H1400 H 0.87782 0.48204 0.13432 0.0
H1401 H 0.87962 0.47809 0.00678 0.0
H1402 H 0.89085 0.4511 0.15947 0.0
H1403 H 0.86649 0.43641 0.15692 0.0
H1404 H 0.87594 0.45921 0.17744 0.0
H1405 H 0.89269 0.44584 0.00136 0.0
H1406 H 0.87832 0.45256 0.97486 0.0
H1407 H 0.86828 0.43139 0.00288 0.0
C1408 C 0.41658 0.90087 0.23396 0.0
C1409 C 0.39941 0.88485 0.23692 0.0
C1410 C 0.43288 0.90027 0.23789 0.0
C1411 C 0.43197 0.88317 0.24422 0.0
C1412 C 0.41464 0.86688 0.24646 0.0
C1413 C 0.39853 0.86795 0.24322 0.0
C1414 C 0.45108 0.91799 0.23606 0.0
C1415 C 0.41313 0.84837 0.25235 0.0
C1416 C 0.47563 0.88228 0.21974 0.0
C1417 C 0.48352 0.88418 0.25768 0.0
C1418 C 0.45853 0.88122 0.21507 0.0
C1419 C 0.44922 0.88248 0.24903 0.0
C1420 C 0.45688 0.88406 0.28745 0.0
C1421 C 0.47382 0.88469 0.29134 0.0
C1422 C 0.45067 0.87926 0.17364 0.0
C1423 C 0.44745 0.88564 0.32438 0.0
H1424 H 0.41724 0.91398 0.22964 0.0
H1425 H 0.38522 0.85555 0.24536 0.0
H1426 H 0.45874 0.91998 0.26432 0.0
H1427 H 0.45962 0.91734 0.21158 0.0
H1428 H 0.44939 0.93013 0.23114 0.0
H1429 H 0.39865 0.83696 0.25201 0.0
H1430 H 0.42082 0.84591 0.22851 0.0
H1431 H 0.41943 0.84809 0.28125 0.0
H1432 H 0.48305 0.88215 0.19341 0.0
H1433 H 0.47954 0.88576 0.32085 0.0
H1434 H 0.45041 0.89193 0.16556 0.0
H1435 H 0.43629 0.86771 0.17274 0.0
H1436 H 0.45879 0.87682 0.15076 0.0
H1437 H 0.44628 0.89819 0.32248 0.0
H1438 H 0.45499 0.88632 0.35216 0.0
H1439 H 0.43331 0.87373 0.32647 0.0
C1440 C 0.3336 0.35774 0.73881 0.0
C1441 C 0.34632 0.37492 0.7547 0.0
C1442 C 0.33834 0.35022 0.70668 0.0
C1443 C 0.35619 0.36016 0.69013 0.0
C1444 C 0.36921 0.3773 0.70664 0.0
C1445 C 0.36412 0.38445 0.73878 0.0
C1446 C 0.32413 0.33187 0.68985 0.0
C1447 C 0.38841 0.38827 0.68984 0.0
C1448 C 0.37552 0.33681 0.62543 0.0
C1449 C 0.37349 0.3423 0.58713 0.0
C1450 C 0.36943 0.34206 0.65927 0.0
C1451 C 0.36116 0.35304 0.65458 0.0
C1452 C 0.35858 0.35815 0.6159 0.0
C1453 C 0.36479 0.35272 0.58262 0.0
C1454 C 0.37241 0.33637 0.70008 0.0
C1455 C 0.34973 0.3698 0.60975 0.0
H1456 H 0.31978 0.3504 0.75081 0.0
H1457 H 0.3741 0.39759 0.75144 0.0
H1458 H 0.32086 0.33365 0.65865 0.0
H1459 H 0.32963 0.32232 0.68907 0.0
H1460 H 0.31121 0.32545 0.70749 0.0
H1461 H 0.39705 0.4011 0.70693 0.0
H1462 H 0.39523 0.37987 0.69005 0.0
H1463 H 0.38776 0.39197 0.65833 0.0
H1464 H 0.3824 0.32891 0.62906 0.0
H1465 H 0.36297 0.35675 0.55299 0.0
H1466 H 0.35933 0.32968 0.71708 0.0
H1467 H 0.38228 0.34871 0.71717 0.0
H1468 H 0.37785 0.32676 0.69843 0.0
H1469 H 0.33612 0.36338 0.62465 0.0
H1470 H 0.34786 0.37175 0.57765 0.0
H1471 H 0.35837 0.3835 0.62357 0.0
C1472 C 0.97779 0.36326 0.90201 0.0
C1473 C 0.97127 0.34621 0.9208 0.0
C1474 C 0.99023 0.36853 0.8702 0.0
C1475 C 0.99623 0.35643 0.85684 0.0
C1476 C 0.98998 0.33934 0.87617 0.0
C1477 C 0.97757 0.33444 0.90806 0.0
C1478 C 0.99671 0.38694 0.8505 0.0
C1479 C 0.99607 0.32609 0.86259 0.0
C1480 C 0.01265 0.36338 0.74966 0.0
C1481 C 0.03175 0.37381 0.75447 0.0
C1482 C 0.00094 0.35712 0.78284 0.0
C1483 C 0.00855 0.36149 0.82169 0.0
C1484 C 0.02785 0.37158 0.82676 0.0
C1485 C 0.03924 0.3776 0.79302 0.0
C1486 C 0.98042 0.34627 0.7763 0.0
C1487 C 0.03643 0.37654 0.86777 0.0
H1488 H 0.97316 0.3725 0.91225 0.0
H1489 H 0.97243 0.32119 0.92238 0.0
H1490 H 0.01194 0.39511 0.85085 0.0
H1491 H 0.99232 0.3849 0.81878 0.0
H1492 H 0.99122 0.395 0.86543 0.0
H1493 H 0.99057 0.31371 0.88192 0.0
H1494 H 0.99137 0.32163 0.83154 0.0
H1495 H 0.01129 0.33296 0.8625 0.0
H1496 H 0.00685 0.36022 0.71986 0.0
H1497 H 0.05401 0.38581 0.79679 0.0
H1498 H 0.97402 0.35416 0.78773 0.0
H1499 H 0.97434 0.33316 0.79316 0.0
H1500 H 0.97677 0.34312 0.74427 0.0
H1501 H 0.03256 0.38592 0.88264 0.0
H1502 H 0.05166 0.38339 0.86662 0.0
H1503 H 0.03117 0.36405 0.88659 0.0
C1504 C 0.61928 0.96045 0.04133 0.0
C1505 C 0.62711 0.96641 0.07917 0.0
C1506 C 0.62595 0.97223 0.00827 0.0
C1507 C 0.64095 0.99026 0.01326 0.0
C1508 C 0.64931 0.99612 0.05117 0.0
C1509 C 0.64218 0.98415 0.08381 0.0
C1510 C 0.61653 0.9656 0.9684 0.0
C1511 C 0.6655 0.01517 0.05746 0.0
C1512 C 0.66651 0.01727 0.92115 0.0
C1513 C 0.65908 0.0288 0.91615 0.0
C1514 C 0.6608 0.00465 0.95278 0.0
C1515 C 0.64715 0.0034 0.97944 0.0
C1516 C 0.63943 0.01485 0.9741 0.0
C1517 C 0.6456 0.02751 0.94264 0.0
C1518 C 0.66949 0.99281 0.95797 0.0
C1519 C 0.62464 0.01372 0.00156 0.0
H1520 H 0.60752 0.94677 0.03788 0.0
H1521 H 0.64835 0.98865 0.11305 0.0
H1522 H 0.61019 0.97389 0.95944 0.0
H1523 H 0.62669 0.9675 0.94506 0.0
H1524 H 0.60566 0.95089 0.9691 0.0
H1525 H 0.67126 0.0171 0.08808 0.0
H1526 H 0.67653 0.01793 0.03564 0.0
H1527 H 0.66123 0.02554 0.05231 0.0
H1528 H 0.67703 0.01837 0.90071 0.0
H1529 H 0.63969 0.03628 0.93839 0.0
H1530 H 0.65879 0.97808 0.95693 0.0
H1531 H 0.67618 0.9954 0.98767 0.0
H1532 H 0.67993 0.99547 0.93463 0.0
H1533 H 0.61273 0.99952 0.00171 0.0
H1534 H 0.61976 0.02329 0.99265 0.0
H1535 H 0.62992 0.01701 0.03258 0.0
C1536 C 0.634 0.66439 0.10752 0.0
C1537 C 0.61588 0.65312 0.0944 0.0
C1538 C 0.64088 0.65929 0.14023 0.0
C1539 C 0.62934 0.64255 0.16019 0.0
C1540 C 0.61093 0.63132 0.14763 0.0
C1541 C 0.60442 0.63675 0.11487 0.0
C1542 C 0.66061 0.67158 0.15281 0.0
C1543 C 0.59819 0.61341 0.16835 0.0
C1544 C 0.65033 0.61833 0.21593 0.0
C1545 C 0.64871 0.62251 0.2557 0.0
C1546 C 0.64442 0.6251 0.18451 0.0
C1547 C 0.63669 0.6363 0.19312 0.0
C1548 C 0.63535 0.64088 0.23316 0.0
C1549 C 0.6414 0.63393 0.26404 0.0
C1550 C 0.64615 0.61999 0.14214 0.0
C1551 C 0.62715 0.65278 0.24339 0.0
H1552 H 0.64294 0.67698 0.09156 0.0
H1553 H 0.59031 0.62816 0.10521 0.0
H1554 H 0.66129 0.67498 0.18499 0.0
H1555 H 0.66842 0.66427 0.14864 0.0
H1556 H 0.66748 0.68458 0.13546 0.0
H1557 H 0.58406 0.60664 0.15583 0.0
H1558 H 0.60363 0.60385 0.16543 0.0
H1559 H 0.59746 0.6158 0.20069 0.0
H1560 H 0.65625 0.60975 0.20938 0.0
H1561 H 0.63999 0.63705 0.29479 0.0
H1562 H 0.65404 0.63258 0.12389 0.0
H1563 H 0.63231 0.61198 0.12852 0.0
H1564 H 0.65308 0.6117 0.14048 0.0
H1565 H 0.63438 0.66596 0.22686 0.0
H1566 H 0.62792 0.65579 0.27585 0.0
H1567 H 0.61253 0.64579 0.23407 0.0
C1568 C 0.01607 0.65788 0.41781 0.0
C1569 C 0.03196 0.65643 0.41621 0.0
C1570 C 0.00331 0.65138 0.38642 0.0
C1571 C 0.00655 0.64319 0.35279 0.0
C1572 C 0.02266 0.64186 0.35082 0.0
C1573 C 0.03517 0.64849 0.38258 0.0
C1574 C 0.9863 0.65309 0.38939 0.0
C1575 C 0.02652 0.63314 0.31549 0.0
C1576 C 0.96593 0.60973 0.29022 0.0
C1577 C 0.96731 0.62056 0.25714 0.0
C1578 C 0.97855 0.61698 0.32171 0.0
C1579 C 0.99285 0.63552 0.32008 0.0
C1580 C 0.99426 0.64657 0.28688 0.0
C1581 C 0.98148 0.63893 0.2557 0.0
C1582 C 0.97669 0.60475 0.35653 0.0
C1583 C 0.00929 0.66643 0.28427 0.0
H1584 H 0.01365 0.6642 0.44356 0.0
H1585 H 0.0473 0.64709 0.38147 0.0
H1586 H 0.98543 0.66073 0.36326 0.0
H1587 H 0.97387 0.63924 0.38894 0.0
H1588 H 0.98609 0.66027 0.41706 0.0
H1589 H 0.03995 0.63364 0.3181 0.0
H1590 H 0.01552 0.61856 0.31271 0.0
H1591 H 0.02651 0.64021 0.28754 0.0
H1592 H 0.9551 0.59546 0.29118 0.0
H1593 H 0.98244 0.6474 0.23038 0.0
H1594 H 0.97532 0.61086 0.38475 0.0
H1595 H 0.98926 0.60362 0.35912 0.0
H1596 H 0.96463 0.59071 0.35347 0.0
H1597 H 0.00867 0.67413 0.31055 0.0
H1598 H 0.00827 0.67324 0.25674 0.0
H1599 H 0.02293 0.66735 0.28476 0.0
C1600 C 0.34008 0.96104 0.46486 0.0
C1601 C 0.34585 0.96874 0.42679 0.0
C1602 C 0.34572 0.97214 0.49909 0.0
C1603 C 0.35741 0.99134 0.49503 0.0
C1604 C 0.36289 0.99923 0.45661 0.0
C1605 C 0.35703 0.98782 0.42293 0.0
C1606 C 0.3396 0.96327 0.53962 0.0
C1607 C 0.3753 0.01967 0.45112 0.0
C1608 C 0.36314 0.0239 0.57934 0.0
C1609 C 0.38013 0.02776 0.59533 0.0
C1610 C 0.35529 0.01166 0.54729 0.0
C1611 C 0.3647 0.00315 0.53093 0.0
C1612 C 0.38159 0.0066 0.54767 0.0
C1613 C 0.38909 0.01885 0.57973 0.0
C1614 C 0.33723 0.00826 0.5302 0.0
C1615 C 0.39199 0.99772 0.53108 0.0
H1616 H 0.33159 0.94627 0.46799 0.0
H1617 H 0.36127 0.99384 0.3935 0.0
H1618 H 0.3517 0.96518 0.55691 0.0
H1619 H 0.33323 0.96995 0.55671 0.0
H1620 H 0.32959 0.94832 0.5375 0.0
H1621 H 0.37766 0.0237 0.41914 0.0
H1622 H 0.36926 0.02724 0.46591 0.0
H1623 H 0.38878 0.02411 0.46545 0.0
H1624 H 0.35625 0.03089 0.59108 0.0
H1625 H 0.40207 0.02157 0.59247 0.0
H1626 H 0.32729 0.9933 0.52887 0.0
H1627 H 0.33933 0.01357 0.49919 0.0
H1628 H 0.3311 0.015 0.54799 0.0
H1629 H 0.38305 0.98256 0.53075 0.0
H1630 H 0.40455 0.00125 0.54861 0.0
H1631 H 0.39607 0.0022 0.49976 0.0
C1632 C 0.40333 0.21986 0.51164 0.0
C1633 C 0.41706 0.23842 0.51047 0.0
C1634 C 0.40393 0.20781 0.53986 0.0
C1635 C 0.41856 0.21452 0.56771 0.0
C1636 C 0.43254 0.23321 0.56644 0.0
C1637 C 0.43163 0.24491 0.53782 0.0
C1638 C 0.38886 0.18793 0.54006 0.0
C1639 C 0.44832 0.2409 0.59571 0.0
C1640 C 0.41164 0.18794 0.66419 0.0
C1641 C 0.42101 0.17843 0.65592 0.0
C1642 C 0.41074 0.19977 0.63576 0.0
C1643 C 0.41931 0.20201 0.59812 0.0
C1644 C 0.42874 0.1924 0.5896 0.0
C1645 C 0.42948 0.18075 0.61858 0.0
C1646 C 0.40065 0.20988 0.646 0.0
C1647 C 0.43795 0.19434 0.54976 0.0
H1648 H 0.39209 0.21475 0.49043 0.0
H1649 H 0.44211 0.25932 0.53759 0.0
H1650 H 0.39484 0.17887 0.5362 0.0
H1651 H 0.38168 0.18446 0.56927 0.0
H1652 H 0.37858 0.18482 0.51608 0.0
H1653 H 0.45817 0.25571 0.59051 0.0
H1654 H 0.44298 0.23917 0.62665 0.0
H1655 H 0.45586 0.23323 0.59353 0.0
H1656 H 0.40515 0.18626 0.69304 0.0
H1657 H 0.43643 0.17315 0.61167 0.0
H1658 H 0.38937 0.20626 0.62432 0.0
H1659 H 0.41014 0.22492 0.64375 0.0
H1660 H 0.39474 0.20664 0.67656 0.0
H1661 H 0.42769 0.19016 0.52539 0.0
H1662 H 0.44469 0.18587 0.54783 0.0
H1663 H 0.44846 0.20892 0.5445 0.0
C1664 C 0.21915 0.40712 0.83128 0.0
C1665 C 0.23819 0.41722 0.82508 0.0
C1666 C 0.20688 0.40678 0.80233 0.0
C1667 C 0.21384 0.41672 0.7663 0.0
C1668 C 0.23304 0.42698 0.75997 0.0
C1669 C 0.24496 0.42709 0.78937 0.0
C1670 C 0.18648 0.39575 0.81021 0.0
C1671 C 0.241 0.43771 0.72192 0.0
C1672 C 0.1824 0.4028 0.67572 0.0
C1673 C 0.1769 0.41605 0.67603 0.0
C1674 C 0.19444 0.40286 0.7049 0.0
C1675 C 0.20106 0.41644 0.73518 0.0
C1676 C 0.19564 0.4299 0.73552 0.0
C1677 C 0.18364 0.42954 0.70596 0.0
C1678 C 0.20001 0.38836 0.70341 0.0
C1679 C 0.20237 0.44458 0.76736 0.0
H1680 H 0.21384 0.39954 0.85887 0.0
H1681 H 0.25965 0.43462 0.78396 0.0
H1682 H 0.18042 0.40483 0.80886 0.0
H1683 H 0.17968 0.38512 0.78677 0.0
H1684 H 0.18329 0.38887 0.8398 0.0
H1685 H 0.25626 0.44511 0.72177 0.0
H1686 H 0.23594 0.42829 0.69589 0.0
H1687 H 0.23638 0.44788 0.71786 0.0
H1688 H 0.17731 0.3924 0.65256 0.0
H1689 H 0.17916 0.4396 0.70689 0.0
H1690 H 0.19591 0.38026 0.73147 0.0
H1691 H 0.21518 0.39497 0.70097 0.0
H1692 H 0.19369 0.3788 0.67785 0.0
H1693 H 0.19818 0.43811 0.79725 0.0
H1694 H 0.19691 0.45409 0.7633 0.0
H1695 H 0.2176 0.45272 0.76702 0.0
C1696 C 0.81165 0.22342 0.99474 0.0
C1697 C 0.82086 0.24253 0.98992 0.0
C1698 C 0.79978 0.21173 0.965 0.0
C1699 C 0.79738 0.21936 0.92934 0.0
C1700 C 0.80665 0.23867 0.9244 0.0
C1701 C 0.8182 0.25003 0.95488 0.0
C1702 C 0.78992 0.19122 0.97161 0.0
C1703 C 0.80468 0.24732 0.88659 0.0
C1704 C 0.7807 0.18771 0.83913 0.0
C1705 C 0.76196 0.18216 0.83857 0.0
C1706 C 0.7925 0.20022 0.86785 0.0
C1707 C 0.7853 0.2071 0.89706 0.0
C1708 C 0.76645 0.20181 0.89613 0.0
C1709 C 0.75503 0.18949 0.86672 0.0
C1710 C 0.81259 0.20579 0.86744 0.0
C1711 C 0.75822 0.20866 0.92701 0.0
H1712 H 0.8137 0.21764 0.02186 0.0
H1713 H 0.82559 0.26482 0.95083 0.0
H1714 H 0.77487 0.18543 0.96855 0.0
H1715 H 0.79416 0.1846 0.94856 0.0
H1716 H 0.79279 0.18752 0.00153 0.0
H1717 H 0.81275 0.26257 0.88757 0.0
H1718 H 0.80935 0.24252 0.86063 0.0
H1719 H 0.79003 0.243 0.88147 0.0
H1720 H 0.78609 0.18211 0.81727 0.0
H1721 H 0.74048 0.18501 0.86675 0.0
H1722 H 0.81607 0.20093 0.89511 0.0
H1723 H 0.82124 0.22099 0.86685 0.0
H1724 H 0.81622 0.20007 0.84136 0.0
H1725 H 0.7596 0.20395 0.95709 0.0
H1726 H 0.74344 0.20372 0.92134 0.0
H1727 H 0.76574 0.2239 0.92753 0.0
C1728 C 0.59422 0.81441 0.16655 0.0
C1729 C 0.58301 0.82224 0.16186 0.0
C1730 C 0.59469 0.80267 0.13731 0.0
C1731 C 0.58392 0.79893 0.10233 0.0
C1732 C 0.57262 0.80685 0.09744 0.0
C1733 C 0.57224 0.81833 0.12734 0.0
C1734 C 0.60671 0.79427 0.14383 0.0
C1735 C 0.56108 0.80336 0.0604 0.0
C1736 C 0.59728 0.78171 0.01028 0.0
C1737 C 0.58439 0.76289 0.01132 0.0
C1738 C 0.59725 0.79365 0.03963 0.0
C1739 C 0.58422 0.78651 0.07103 0.0
C1740 C 0.57128 0.76748 0.07232 0.0
C1741 C 0.57147 0.75593 0.04237 0.0
C1742 C 0.61111 0.81391 0.03699 0.0
C1743 C 0.55732 0.75929 0.10555 0.0
H1744 H 0.60254 0.81741 0.19324 0.0
H1745 H 0.56383 0.82465 0.12325 0.0
H1746 H 0.59822 0.77906 0.14296 0.0
H1747 H 0.61698 0.79846 0.11949 0.0
H1748 H 0.61409 0.7984 0.17284 0.0
H1749 H 0.55323 0.81076 0.06097 0.0
H1750 H 0.57001 0.80775 0.03354 0.0
H1751 H 0.55124 0.78844 0.05723 0.0
H1752 H 0.60727 0.7871 0.9863 0.0
H1753 H 0.56172 0.74131 0.04371 0.0
H1754 H 0.61976 0.81841 0.06425 0.0
H1755 H 0.60391 0.82192 0.03537 0.0
H1756 H 0.62021 0.81729 0.01053 0.0
H1757 H 0.56442 0.76229 0.13482 0.0
H1758 H 0.54838 0.74418 0.10252 0.0
H1759 H 0.54848 0.76563 0.10584 0.0
C1760 C 0.76962 0.57724 0.32828 0.0
C1761 C 0.76236 0.58899 0.32518 0.0
C1762 C 0.78171 0.57735 0.29917 0.0
C1763 C 0.78625 0.58918 0.26573 0.0
C1764 C 0.77894 0.60108 0.26254 0.0
C1765 C 0.76722 0.60096 0.29252 0.0
C1766 C 0.78953 0.56473 0.30404 0.0
C1767 C 0.78315 0.61362 0.22702 0.0
C1768 C 0.82913 0.60059 0.2061 0.0
C1769 C 0.82187 0.58777 0.17493 0.0
C1770 C 0.81769 0.60122 0.23583 0.0
C1771 C 0.7985 0.58896 0.23388 0.0
C1772 C 0.79105 0.57632 0.20182 0.0
C1773 C 0.80287 0.57573 0.17296 0.0
C1774 C 0.8262 0.61465 0.26989 0.0
C1775 C 0.77063 0.5633 0.19826 0.0
H1776 H 0.76586 0.56799 0.35357 0.0
H1777 H 0.76135 0.60984 0.2898 0.0
H1778 H 0.78494 0.55476 0.27904 0.0
H1779 H 0.80476 0.5728 0.30298 0.0
H1780 H 0.78528 0.55698 0.33259 0.0
H1781 H 0.77638 0.62206 0.2291 0.0
H1782 H 0.79819 0.62297 0.22435 0.0
H1783 H 0.77849 0.60535 0.19922 0.0
H1784 H 0.84387 0.60969 0.20799 0.0
H1785 H 0.79729 0.56583 0.14883 0.0
H1786 H 0.82313 0.60706 0.29857 0.0
H1787 H 0.82017 0.62373 0.27159 0.0
H1788 H 0.84134 0.62335 0.26681 0.0
H1789 H 0.7657 0.55384 0.22421 0.0
H1790 H 0.76697 0.55498 0.17049 0.0
H1791 H 0.7632 0.57112 0.19861 0.0
C1792 C 0.19112 0.77977 0.50907 0.0
C1793 C 0.18126 0.76086 0.50121 0.0
C1794 C 0.20296 0.79226 0.4803 0.0
C1795 C 0.2049 0.78566 0.44273 0.0
C1796 C 0.1951 0.76657 0.43477 0.0
C1797 C 0.18341 0.75443 0.46404 0.0
C1798 C 0.21328 0.81252 0.48993 0.0
C1799 C 0.19672 0.75899 0.39505 0.0
C1800 C 0.22143 0.81864 0.35471 0.0
C1801 C 0.24 0.82356 0.35237 0.0
C1802 C 0.20984 0.80627 0.38388 0.0
C1803 C 0.21701 0.7987 0.41149 0.0
C1804 C 0.23569 0.80347 0.40903 0.0
C1805 C 0.24695 0.81582 0.37949 0.0
C1806 C 0.18994 0.80139 0.38532 0.0
C1807 C 0.24385 0.79573 0.43797 0.0
H1808 H 0.18958 0.78481 0.53777 0.0
H1809 H 0.17554 0.73987 0.45736 0.0
H1810 H 0.22827 0.81805 0.48648 0.0
H1811 H 0.20931 0.82005 0.46867 0.0
H1812 H 0.21055 0.8154 0.52078 0.0
H1813 H 0.18846 0.74375 0.3939 0.0
H1814 H 0.19205 0.76467 0.37076 0.0
H1815 H 0.21129 0.76326 0.38896 0.0
H1816 H 0.21597 0.82449 0.33368 0.0
H1817 H 0.26137 0.81982 0.37834 0.0
H1818 H 0.18684 0.8053 0.41471 0.0
H1819 H 0.18088 0.78632 0.38209 0.0
H1820 H 0.18647 0.80834 0.36149 0.0
H1821 H 0.24254 0.79962 0.46893 0.0
H1822 H 0.25859 0.80069 0.43181 0.0
H1823 H 0.2362 0.7805 0.43649 0.0
loop_
_geom_bond_atom_site_label_1
_geom_bond_atom_site_label_2
_geom_bond_distance
_geom_bond_site_symmetry_2
_ccdc_geom_bond_type
Li0 N17 1.990 . S
Li0 O60 1.956 . S
Li0 O61 1.970 . S
Li0 O62 1.961 . S
Li1 N25 1.990 . S
Li1 O60 1.970 . S
Li1 O61 1.956 . S
Li1 O63 1.961 . S
Li2 N47 1.990 . S
Li2 O60 1.961 . S
Li2 O62 1.956 . S
Li2 O63 1.970 . S
Li3 N53 1.990 . S
Li3 O61 1.961 . S
Li3 O62 1.970 . S
Li3 O63 1.956 . S
C4 C6 1.348 . S
C4 C7 1.356 . S
C4 O60 1.325 . S
N5 C8 1.314 . S
N5 C9 1.279 . S
C6 C4 1.348 . S
C6 C8 1.353 . S
C6 H64 0.929 . S
C7 C4 1.356 . S
C7 C9 1.358 . S
C7 H65 0.930 . S
C8 N5 1.314 . S
C8 C6 1.353 . S
C8 H66 0.930 . S
C9 N5 1.279 . S
C9 C7 1.358 . S
C9 H67 0.930 . S
C10 C13 1.348 . S
C10 C14 1.356 . S
C10 O61 1.325 . S
C11 N12 1.279 . S
C11 C14 1.358 . S
C11 H68 0.930 . S
N12 C11 1.279 . S
N12 C15 1.314 . S
C13 C10 1.348 . S
C13 C15 1.353 . S
C13 H69 0.929 . S
C14 C10 1.356 . S
C14 C11 1.358 . S
C14 H70 0.930 . S
C15 N12 1.314 . S
C15 C13 1.353 . S
C15 H71 0.930 . S
C16 N17 1.314 . S
C16 C21 1.353 . S
C16 H22 0.930 . S
N17 Li0 1.990 . S
N17 C16 1.314 . S
N17 C19 1.279 . S
C18 C19 1.358 . S
C18 C20 1.356 . S
C18 H72 0.930 . S
C19 N17 1.279 . S
C19 C18 1.358 . S
C19 H23 0.930 . S
C20 C18 1.356 . S
C20 C21 1.348 . S
C21 C16 1.353 . S
C21 C20 1.348 . S
C21 H73 0.929 . S
H22 C16 0.930 . S
H23 C19 0.930 . S
C24 N25 1.314 . S
C24 C26 1.353 . S
C24 H30 0.930 . S
N25 Li1 1.990 . S
N25 C24 1.314 . S
N25 C28 1.279 . S
C26 C24 1.353 . S
C26 C29 1.348 . S
C26 H74 0.929 . S
C27 C28 1.358 . S
C27 C29 1.356 . S
C27 H75 0.930 . S
C28 N25 1.279 . S
C28 C27 1.358 . S
C28 H31 0.930 . S
C29 C26 1.348 . S
C29 C27 1.356 . S
H30 C24 0.930 . S
H31 C28 0.930 . S
C32 C34 1.348 . S
C32 C35 1.356 . S
C32 O62 1.325 . S
N33 C36 1.314 . S
N33 C37 1.279 . S
C34 C32 1.348 . S
C34 C36 1.353 . S
C34 H76 0.929 . S
C35 C32 1.356 . S
C35 C37 1.358 . S
C35 H77 0.930 . S
C36 N33 1.314 . S
C36 C34 1.353 . S
C36 H78 0.930 . S
C37 N33 1.279 . S
C37 C35 1.358 . S
C37 H79 0.930 . S
C38 C39 1.348 . S
C38 C40 1.356 . S
C38 O63 1.325 . S
C39 C38 1.348 . S
C39 C41 1.353 . S
C39 H80 0.929 . S
C40 C38 1.356 . S
C40 C42 1.358 . S
C40 H81 0.930 . S
C41 C39 1.353 . S
C41 N43 1.314 . S
C41 H82 0.930 . S
C42 C40 1.358 . S
C42 N43 1.279 . S
C42 H83 0.930 . S
N43 C41 1.314 . S
N43 C42 1.279 . S
C44 C46 1.353 . S
C44 N47 1.314 . S
C44 H50 0.930 . S
C45 N47 1.279 . S
C45 C48 1.358 . S
C45 H51 0.930 . S
C46 C44 1.353 . S
C46 C49 1.348 . S
C46 H84 0.929 . S
N47 Li2 1.990 . S
N47 C44 1.314 . S
N47 C45 1.279 . S
C48 C45 1.358 . S
C48 C49 1.356 . S
C48 H85 0.930 . S
C49 C46 1.348 . S
C49 C48 1.356 . S
H50 C44 0.930 . S
H51 C45 0.930 . S
C52 N53 1.314 . S
C52 C54 1.353 . S
C52 H58 0.930 . S
N53 Li3 1.990 . S
N53 C52 1.314 . S
N53 C56 1.279 . S
C54 C52 1.353 . S
C54 C57 1.348 . S
C54 H86 0.929 . S
C55 C56 1.358 . S
C55 C57 1.356 . S
C55 H87 0.930 . S
C56 N53 1.279 . S
C56 C55 1.358 . S
C56 H59 0.930 . S
C57 C54 1.348 . S
C57 C55 1.356 . S
H58 C52 0.930 . S
H59 C56 0.930 . S
O60 Li0 1.956 . S
O60 Li1 1.970 . S
O60 Li2 1.961 . S
O60 C4 1.325 . S
O61 Li0 1.970 . S
O61 Li1 1.956 . S
O61 Li3 1.961 . S
O61 C10 1.325 . S
O62 Li0 1.961 . S
O62 Li2 1.956 . S
O62 Li3 1.970 . S
O62 C32 1.325 . S
O63 Li1 1.961 . S
O63 Li2 1.970 . S
O63 Li3 1.956 . S
O63 C38 1.325 . S
H64 C6 0.929 . S
H65 C7 0.930 . S
H66 C8 0.930 . S
H67 C9 0.930 . S
H68 C11 0.930 . S
H69 C13 0.929 . S
H70 C14 0.930 . S
H71 C15 0.930 . S
H72 C18 0.930 . S
H73 C21 0.929 . S
H74 C26 0.929 . S
H75 C27 0.930 . S
H76 C34 0.929 . S
H77 C35 0.930 . S
H78 C36 0.930 . S
H79 C37 0.930 . S
H80 C39 0.929 . S
H81 C40 0.930 . S
H82 C41 0.930 . S
H83 C42 0.930 . S
H84 C46 0.929 . S
H85 C48 0.930 . S
H86 C54 0.929 . S
H87 C55 0.930 . S
Li88 N105 1.990 . S
Li88 O148 1.956 . S
Li88 O149 1.970 . S
Li88 O150 1.961 . S
Li89 N113 1.990 . S
Li89 O148 1.970 . S
Li89 O149 1.956 . S
Li89 O151 1.961 . S
Li90 N135 1.990 . S
Li90 O148 1.961 . S
Li90 O150 1.956 . S
Li90 O151 1.970 . S
Li91 N141 1.990 . S
Li91 O149 1.961 . S
Li91 O150 1.970 . S
Li91 O151 1.956 . S
C92 C94 1.348 . S
C92 C95 1.356 . S
C92 O148 1.325 . S
N93 C96 1.314 . S
N93 C97 1.279 . S
C94 C92 1.348 . S
C94 C96 1.353 . S
C94 H152 0.929 . S
C95 C92 1.356 . S
C95 C97 1.358 . S
C95 H153 0.930 . S
C96 N93 1.314 . S
C96 C94 1.353 . S
C96 H154 0.930 . S
C97 N93 1.279 . S
C97 C95 1.358 . S
C97 H155 0.930 . S
C98 C101 1.348 . S
C98 C102 1.356 . S
C98 O149 1.325 . S
C99 N100 1.279 . S
C99 C102 1.358 . S
C99 H156 0.930 . S
N100 C99 1.279 . S
N100 C103 1.314 . S
C101 C98 1.348 . S
C101 C103 1.353 . S
C101 H157 0.929 . S
C102 C98 1.356 . S
C102 C99 1.358 . S
C102 H158 0.930 . S
C103 N100 1.314 . S
C103 C101 1.353 . S
C103 H159 0.930 . S
C104 N105 1.314 . S
C104 C109 1.353 . S
C104 H110 0.930 . S
N105 Li88 1.990 . S
N105 C104 1.314 . S
N105 C107 1.279 . S
C106 C107 1.358 . S
C106 C108 1.356 . S
C106 H160 0.930 . S
C107 N105 1.279 . S
C107 C106 1.358 . S
C107 H111 0.930 . S
C108 C106 1.356 . S
C108 C109 1.348 . S
C109 C104 1.353 . S
C109 C108 1.348 . S
C109 H161 0.929 . S
H110 C104 0.930 . S
H111 C107 0.930 . S
C112 N113 1.314 . S
C112 C114 1.353 . S
C112 H118 0.930 . S
N113 Li89 1.990 . S
N113 C112 1.314 . S
N113 C116 1.279 . S
C114 C112 1.353 . S
C114 C117 1.348 . S
C114 H162 0.929 . S
C115 C116 1.358 . S
C115 C117 1.356 . S
C115 H163 0.930 . S
C116 N113 1.279 . S
C116 C115 1.358 . S
C116 H119 0.930 . S
C117 C114 1.348 . S
C117 C115 1.356 . S
H118 C112 0.930 . S
H119 C116 0.930 . S
C120 C122 1.348 . S
C120 C123 1.356 . S
C120 O150 1.325 . S
N121 C124 1.314 . S
N121 C125 1.279 . S
C122 C120 1.348 . S
C122 C124 1.353 . S
C122 H164 0.929 . S
C123 C120 1.356 . S
C123 C125 1.358 . S
C123 H165 0.930 . S
C124 N121 1.314 . S
C124 C122 1.353 . S
C124 H166 0.930 . S
C125 N121 1.279 . S
C125 C123 1.358 . S
C125 H167 0.930 . S
C126 C127 1.348 . S
C126 C128 1.356 . S
C126 O151 1.325 . S
C127 C126 1.348 . S
C127 C129 1.353 . S
C127 H168 0.929 . S
C128 C126 1.356 . S
C128 C130 1.358 . S
C128 H169 0.930 . S
C129 C127 1.353 . S
C129 N131 1.314 . S
C129 H170 0.930 . S
C130 C128 1.358 . S
C130 N131 1.279 . S
C130 H171 0.930 . S
N131 C129 1.314 . S
N131 C130 1.279 . S
C132 C134 1.353 . S
C132 N135 1.314 . S
C132 H138 0.930 . S
C133 N135 1.279 . S
C133 C136 1.358 . S
C133 H139 0.930 . S
C134 C132 1.353 . S
C134 C137 1.348 . S
C134 H172 0.929 . S
N135 Li90 1.990 . S
N135 C132 1.314 . S
N135 C133 1.279 . S
C136 C133 1.358 . S
C136 C137 1.356 . S
C136 H173 0.930 . S
C137 C134 1.348 . S
C137 C136 1.356 . S
H138 C132 0.930 . S
H139 C133 0.930 . S
C140 N141 1.314 . S
C140 C142 1.353 . S
C140 H146 0.930 . S
N141 Li91 1.990 . S
N141 C140 1.314 . S
N141 C144 1.279 . S
C142 C140 1.353 . S
C142 C145 1.348 . S
C142 H174 0.929 . S
C143 C144 1.358 . S
C143 C145 1.356 . S
C143 H175 0.930 . S
C144 N141 1.279 . S
C144 C143 1.358 . S
C144 H147 0.930 . S
C145 C142 1.348 . S
C145 C143 1.356 . S
H146 C140 0.930 . S
H147 C144 0.930 . S
O148 Li88 1.956 . S
O148 Li89 1.970 . S
O148 Li90 1.961 . S
O148 C92 1.325 . S
O149 Li88 1.970 . S
O149 Li89 1.956 . S
O149 Li91 1.961 . S
O149 C98 1.325 . S
O150 Li88 1.961 . S
O150 Li90 1.956 . S
O150 Li91 1.970 . S
O150 C120 1.325 . S
O151 Li89 1.961 . S
O151 Li90 1.970 . S
O151 Li91 1.956 . S
O151 C126 1.325 . S
H152 C94 0.929 . S
H153 C95 0.930 . S
H154 C96 0.930 . S
H155 C97 0.930 . S
H156 C99 0.930 . S
H157 C101 0.929 . S
H158 C102 0.930 . S
H159 C103 0.930 . S
H160 C106 0.930 . S
H161 C109 0.929 . S
H162 C114 0.929 . S
H163 C115 0.930 . S
H164 C122 0.929 . S
H165 C123 0.930 . S
H166 C124 0.930 . S
H167 C125 0.930 . S
H168 C127 0.929 . S
H169 C128 0.930 . S
H170 C129 0.930 . S
H171 C130 0.930 . S
H172 C134 0.929 . S
H173 C136 0.930 . S
H174 C142 0.929 . S
H175 C143 0.930 . S
Li176 N193 1.990 . S
Li176 O236 1.956 . S
Li176 O237 1.970 . S
Li176 O238 1.961 . S
Li177 N201 1.990 . S
Li177 O236 1.970 . S
Li177 O237 1.956 . S
Li177 O239 1.961 . S
Li178 N223 1.990 . S
Li178 O236 1.961 . S
Li178 O238 1.956 . S
Li178 O239 1.970 . S
Li179 N229 1.990 . S
Li179 O237 1.961 . S
Li179 O238 1.970 . S
Li179 O239 1.956 . S
C180 C182 1.348 . S
C180 C183 1.356 . S
C180 O236 1.325 . S
N181 C184 1.314 . S
N181 C185 1.279 . S
C182 C180 1.348 . S
C182 C184 1.353 . S
C182 H240 0.929 . S
C183 C180 1.356 . S
C183 C185 1.358 . S
C183 H241 0.930 . S
C184 N181 1.314 . S
C184 C182 1.353 . S
C184 H242 0.930 . S
C185 N181 1.279 . S
C185 C183 1.358 . S
C185 H243 0.930 . S
C186 C189 1.348 . S
C186 C190 1.356 . S
C186 O237 1.325 . S
C187 N188 1.279 . S
C187 C190 1.358 . S
C187 H244 0.930 . S
N188 C187 1.279 . S
N188 C191 1.314 . S
C189 C186 1.348 . S
C189 C191 1.353 . S
C189 H245 0.929 . S
C190 C186 1.356 . S
C190 C187 1.358 . S
C190 H246 0.930 . S
C191 N188 1.314 . S
C191 C189 1.353 . S
C191 H247 0.930 . S
C192 N193 1.314 . S
C192 C197 1.353 . S
C192 H198 0.930 . S
N193 Li176 1.990 . S
N193 C192 1.314 . S
N193 C195 1.279 . S
C194 C195 1.358 . S
C194 C196 1.356 . S
C194 H248 0.930 . S
C195 N193 1.279 . S
C195 C194 1.358 . S
C195 H199 0.930 . S
C196 C194 1.356 . S
C196 C197 1.348 . S
C197 C192 1.353 . S
C197 C196 1.348 . S
C197 H249 0.929 . S
H198 C192 0.930 . S
H199 C195 0.930 . S
C200 N201 1.314 . S
C200 C202 1.353 . S
C200 H206 0.930 . S
N201 Li177 1.990 . S
N201 C200 1.314 . S
N201 C204 1.279 . S
C202 C200 1.353 . S
C202 C205 1.348 . S
C202 H250 0.929 . S
C203 C204 1.358 . S
C203 C205 1.356 . S
C203 H251 0.930 . S
C204 N201 1.279 . S
C204 C203 1.358 . S
C204 H207 0.930 . S
C205 C202 1.348 . S
C205 C203 1.356 . S
H206 C200 0.930 . S
H207 C204 0.930 . S
C208 C210 1.348 . S
C208 C211 1.356 . S
C208 O238 1.325 . S
N209 C212 1.314 . S
N209 C213 1.279 . S
C210 C208 1.348 . S
C210 C212 1.353 . S
C210 H252 0.929 . S
C211 C208 1.356 . S
C211 C213 1.358 . S
C211 H253 0.930 . S
C212 N209 1.314 . S
C212 C210 1.353 . S
C212 H254 0.930 . S
C213 N209 1.279 . S
C213 C211 1.358 . S
C213 H255 0.930 . S
C214 C215 1.348 . S
C214 C216 1.356 . S
C214 O239 1.325 . S
C215 C214 1.348 . S
C215 C217 1.353 . S
C215 H256 0.929 . S
C216 C214 1.356 . S
C216 C218 1.358 . S
C216 H257 0.930 . S
C217 C215 1.353 . S
C217 N219 1.314 . S
C217 H258 0.930 . S
C218 C216 1.358 . S
C218 N219 1.279 . S
C218 H259 0.930 . S
N219 C217 1.314 . S
N219 C218 1.279 . S
C220 C222 1.353 . S
C220 N223 1.314 . S
C220 H226 0.930 . S
C221 N223 1.279 . S
C221 C224 1.358 . S
C221 H227 0.930 . S
C222 C220 1.353 . S
C222 C225 1.348 . S
C222 H260 0.929 . S
N223 Li178 1.990 . S
N223 C220 1.314 . S
N223 C221 1.279 . S
C224 C221 1.358 . S
C224 C225 1.356 . S
C224 H261 0.930 . S
C225 C222 1.348 . S
C225 C224 1.356 . S
H226 C220 0.930 . S
H227 C221 0.930 . S
C228 N229 1.314 . S
C228 C230 1.353 . S
C228 H234 0.930 . S
N229 Li179 1.990 . S
N229 C228 1.314 . S
N229 C232 1.279 . S
C230 C228 1.353 . S
C230 C233 1.348 . S
C230 H262 0.929 . S
C231 C232 1.358 . S
C231 C233 1.356 . S
C231 H263 0.930 . S
C232 N229 1.279 . S
C232 C231 1.358 . S
C232 H235 0.930 . S
C233 C230 1.348 . S
C233 C231 1.356 . S
H234 C228 0.930 . S
H235 C232 0.930 . S
O236 Li176 1.956 . S
O236 Li177 1.970 . S
O236 Li178 1.961 . S
O236 C180 1.325 . S
O237 Li176 1.970 . S
O237 Li177 1.956 . S
O237 Li179 1.961 . S
O237 C186 1.325 . S
O238 Li176 1.961 . S
O238 Li178 1.956 . S
O238 Li179 1.970 . S
O238 C208 1.325 . S
O239 Li177 1.961 . S
O239 Li178 1.970 . S
O239 Li179 1.956 . S
O239 C214 1.325 . S
H240 C182 0.929 . S
H241 C183 0.930 . S
H242 C184 0.930 . S
H243 C185 0.930 . S
H244 C187 0.930 . S
H245 C189 0.929 . S
H246 C190 0.930 . S
H247 C191 0.930 . S
H248 C194 0.930 . S
H249 C197 0.929 . S
H250 C202 0.929 . S
H251 C203 0.930 . S
H252 C210 0.929 . S
H253 C211 0.930 . S
H254 C212 0.930 . S
H255 C213 0.930 . S
H256 C215 0.929 . S
H257 C216 0.930 . S
H258 C217 0.930 . S
H259 C218 0.930 . S
H260 C222 0.929 . S
H261 C224 0.930 . S
H262 C230 0.929 . S
H263 C231 0.930 . S
Li264 N281 1.990 1_556 S
Li264 O324 1.956 . S
Li264 O325 1.970 . S
Li264 O326 1.961 . S
Li265 N289 1.990 . S
Li265 O324 1.970 . S
Li265 O325 1.956 . S
Li265 O327 1.961 . S
Li266 N311 1.990 . S
Li266 O324 1.961 . S
Li266 O326 1.956 . S
Li266 O327 1.970 . S
Li267 N317 1.990 . S
Li267 O325 1.961 . S
Li267 O326 1.970 . S
Li267 O327 1.956 . S
C268 C270 1.348 . S
C268 C271 1.356 . S
C268 O324 1.325 1_554 S
N269 C272 1.314 . S
N269 C273 1.279 . S
C270 C268 1.348 . S
C270 C272 1.353 . S
C270 H328 0.929 . S
C271 C268 1.356 . S
C271 C273 1.358 . S
C271 H329 0.930 . S
C272 N269 1.314 . S
C272 C270 1.353 . S
C272 H330 0.930 . S
C273 N269 1.279 . S
C273 C271 1.358 . S
C273 H331 0.930 . S
C274 C277 1.348 . S
C274 C278 1.356 . S
C274 O325 1.325 . S
C275 N276 1.279 . S
C275 C278 1.358 . S
C275 H332 0.930 . S
N276 C275 1.279 . S
N276 C279 1.314 . S
C277 C274 1.348 . S
C277 C279 1.353 . S
C277 H333 0.929 . S
C278 C274 1.356 . S
C278 C275 1.358 . S
C278 H334 0.930 . S
C279 N276 1.314 . S
C279 C277 1.353 . S
C279 H335 0.930 . S
C280 N281 1.314 . S
C280 C285 1.353 . S
C280 H286 0.930 1_554 S
N281 Li264 1.990 1_554 S
N281 C280 1.314 . S
N281 C283 1.279 . S
C282 C283 1.358 . S
C282 C284 1.356 . S
C282 H336 0.930 . S
C283 N281 1.279 . S
C283 C282 1.358 . S
C283 H287 0.930 . S
C284 C282 1.356 . S
C284 C285 1.348 . S
C285 C280 1.353 . S
C285 C284 1.348 . S
C285 H337 0.929 . S
H286 C280 0.930 1_556 S
H287 C283 0.930 . S
C288 N289 1.314 . S
C288 C290 1.353 . S
C288 H294 0.930 . S
N289 Li265 1.990 . S
N289 C288 1.314 . S
N289 C292 1.279 . S
C290 C288 1.353 . S
C290 C293 1.348 . S
C290 H338 0.929 . S
C291 C292 1.358 . S
C291 C293 1.356 . S
C291 H339 0.930 . S
C292 N289 1.279 . S
C292 C291 1.358 . S
C292 H295 0.930 . S
C293 C290 1.348 . S
C293 C291 1.356 . S
H294 C288 0.930 . S
H295 C292 0.930 . S
C296 C298 1.348 . S
C296 C299 1.356 . S
C296 O326 1.325 . S
N297 C300 1.314 . S
N297 C301 1.279 . S
C298 C296 1.348 . S
C298 C300 1.353 . S
C298 H340 0.929 . S
C299 C296 1.356 . S
C299 C301 1.358 . S
C299 H341 0.930 . S
C300 N297 1.314 . S
C300 C298 1.353 . S
C300 H342 0.930 . S
C301 N297 1.279 . S
C301 C299 1.358 . S
C301 H343 0.930 . S
C302 C303 1.348 . S
C302 C304 1.356 . S
C302 O327 1.325 . S
C303 C302 1.348 . S
C303 C305 1.353 . S
C303 H344 0.929 . S
C304 C302 1.356 . S
C304 C306 1.358 . S
C304 H345 0.930 . S
C305 C303 1.353 . S
C305 N307 1.314 . S
C305 H346 0.930 . S
C306 C304 1.358 . S
C306 N307 1.279 . S
C306 H347 0.930 . S
N307 C305 1.314 . S
N307 C306 1.279 . S
C308 C310 1.353 . S
C308 N311 1.314 . S
C308 H314 0.930 . S
C309 N311 1.279 . S
C309 C312 1.358 . S
C309 H315 0.930 . S
C310 C308 1.353 . S
C310 C313 1.348 . S
C310 H348 0.929 . S
N311 Li266 1.990 . S
N311 C308 1.314 . S
N311 C309 1.279 . S
C312 C309 1.358 . S
C312 C313 1.356 . S
C312 H349 0.930 . S
C313 C310 1.348 . S
C313 C312 1.356 . S
H314 C308 0.930 . S
H315 C309 0.930 . S
C316 N317 1.314 . S
C316 C318 1.353 . S
C316 H322 0.930 . S
N317 Li267 1.990 . S
N317 C316 1.314 . S
N317 C320 1.279 . S
C318 C316 1.353 . S
C318 C321 1.348 . S
C318 H350 0.929 . S
C319 C320 1.358 . S
C319 C321 1.356 . S
C319 H351 0.930 . S
C320 N317 1.279 . S
C320 C319 1.358 . S
C320 H323 0.930 . S
C321 C318 1.348 . S
C321 C319 1.356 . S
H322 C316 0.930 . S
H323 C320 0.930 . S
O324 Li264 1.956 . S
O324 Li265 1.970 . S
O324 Li266 1.961 . S
O324 C268 1.325 1_556 S
O325 Li264 1.970 . S
O325 Li265 1.956 . S
O325 Li267 1.961 . S
O325 C274 1.325 . S
O326 Li264 1.961 . S
O326 Li266 1.956 . S
O326 Li267 1.970 . S
O326 C296 1.325 . S
O327 Li265 1.961 . S
O327 Li266 1.970 . S
O327 Li267 1.956 . S
O327 C302 1.325 . S
H328 C270 0.929 . S
H329 C271 0.930 . S
H330 C272 0.930 . S
H331 C273 0.930 . S
H332 C275 0.930 . S
H333 C277 0.929 . S
H334 C278 0.930 . S
H335 C279 0.930 . S
H336 C282 0.930 . S
H337 C285 0.929 . S
H338 C290 0.929 . S
H339 C291 0.930 . S
H340 C298 0.929 . S
H341 C299 0.930 . S
H342 C300 0.930 . S
H343 C301 0.930 . S
H344 C303 0.929 . S
H345 C304 0.930 . S
H346 C305 0.930 . S
H347 C306 0.930 . S
H348 C310 0.929 . S
H349 C312 0.930 . S
H350 C318 0.929 . S
H351 C319 0.930 . S
Li352 N369 1.990 . S
Li352 O412 1.956 . S
Li352 O413 1.970 . S
Li352 O414 1.961 . S
Li353 N377 1.990 . S
Li353 O412 1.970 . S
Li353 O413 1.956 . S
Li353 O415 1.961 . S
Li354 N399 1.990 . S
Li354 O412 1.961 . S
Li354 O414 1.956 . S
Li354 O415 1.970 . S
Li355 N405 1.990 . S
Li355 O413 1.961 . S
Li355 O414 1.970 . S
Li355 O415 1.956 . S
C356 C358 1.348 . S
C356 C359 1.356 . S
C356 O412 1.325 . S
N357 C360 1.314 . S
N357 C361 1.279 . S
C358 C356 1.348 . S
C358 C360 1.353 . S
C358 H416 0.929 . S
C359 C356 1.356 . S
C359 C361 1.358 . S
C359 H417 0.930 . S
C360 N357 1.314 . S
C360 C358 1.353 . S
C360 H418 0.930 . S
C361 N357 1.279 . S
C361 C359 1.358 . S
C361 H419 0.930 . S
C362 C365 1.348 . S
C362 C366 1.356 . S
C362 O413 1.325 . S
C363 N364 1.279 . S
C363 C366 1.358 . S
C363 H420 0.930 . S
N364 C363 1.279 . S
N364 C367 1.314 . S
C365 C362 1.348 . S
C365 C367 1.353 . S
C365 H421 0.929 . S
C366 C362 1.356 . S
C366 C363 1.358 . S
C366 H422 0.930 . S
C367 N364 1.314 . S
C367 C365 1.353 . S
C367 H423 0.930 . S
C368 N369 1.314 . S
C368 C373 1.353 . S
C368 H374 0.930 . S
N369 Li352 1.990 . S
N369 C368 1.314 . S
N369 C371 1.279 . S
C370 C371 1.358 . S
C370 C372 1.356 . S
C370 H424 0.930 . S
C371 N369 1.279 . S
C371 C370 1.358 . S
C371 H375 0.930 . S
C372 C370 1.356 . S
C372 C373 1.348 . S
C373 C368 1.353 . S
C373 C372 1.348 . S
C373 H425 0.929 . S
H374 C368 0.930 . S
H375 C371 0.930 . S
C376 N377 1.314 . S
C376 C378 1.353 . S
C376 H382 0.930 . S
N377 Li353 1.990 . S
N377 C376 1.314 . S
N377 C380 1.279 . S
C378 C376 1.353 . S
C378 C381 1.348 . S
C378 H426 0.929 . S
C379 C380 1.358 . S
C379 C381 1.356 . S
C379 H427 0.930 . S
C380 N377 1.279 . S
C380 C379 1.358 . S
C380 H383 0.930 . S
C381 C378 1.348 . S
C381 C379 1.356 . S
H382 C376 0.930 . S
H383 C380 0.930 . S
C384 C386 1.348 . S
C384 C387 1.356 . S
C384 O414 1.325 . S
N385 C388 1.314 . S
N385 C389 1.279 . S
C386 C384 1.348 . S
C386 C388 1.353 . S
C386 H428 0.929 . S
C387 C384 1.356 . S
C387 C389 1.358 . S
C387 H429 0.930 . S
C388 N385 1.314 . S
C388 C386 1.353 . S
C388 H430 0.930 . S
C389 N385 1.279 . S
C389 C387 1.358 . S
C389 H431 0.930 . S
C390 C391 1.348 . S
C390 C392 1.356 . S
C390 O415 1.325 . S
C391 C390 1.348 . S
C391 C393 1.353 1_554 S
C391 H432 0.929 . S
C392 C390 1.356 . S
C392 C394 1.358 1_554 S
C392 H433 0.930 . S
C393 C391 1.353 1_556 S
C393 N395 1.314 . S
C393 H434 0.930 . S
C394 C392 1.358 1_556 S
C394 N395 1.279 . S
C394 H435 0.930 . S
N395 C393 1.314 . S
N395 C394 1.279 . S
C396 C398 1.353 . S
C396 N399 1.314 . S
C396 H402 0.930 . S
C397 N399 1.279 . S
C397 C400 1.358 . S
C397 H403 0.930 . S
C398 C396 1.353 . S
C398 C401 1.348 . S
C398 H436 0.929 . S
N399 Li354 1.990 . S
N399 C396 1.314 . S
N399 C397 1.279 . S
C400 C397 1.358 . S
C400 C401 1.356 . S
C400 H437 0.930 . S
C401 C398 1.348 . S
C401 C400 1.356 . S
H402 C396 0.930 . S
H403 C397 0.930 . S
C404 N405 1.314 . S
C404 C406 1.353 1_554 S
C404 H410 0.930 . S
N405 Li355 1.990 . S
N405 C404 1.314 . S
N405 C408 1.279 1_554 S
C406 C404 1.353 1_556 S
C406 C409 1.348 . S
C406 H438 0.929 . S
C407 C408 1.358 . S
C407 C409 1.356 . S
C407 H439 0.930 . S
C408 N405 1.279 1_556 S
C408 C407 1.358 . S
C408 H411 0.930 . S
C409 C406 1.348 . S
C409 C407 1.356 . S
H410 C404 0.930 . S
H411 C408 0.930 . S
O412 Li352 1.956 . S
O412 Li353 1.970 . S
O412 Li354 1.961 . S
O412 C356 1.325 . S
O413 Li352 1.970 . S
O413 Li353 1.956 . S
O413 Li355 1.961 . S
O413 C362 1.325 . S
O414 Li352 1.961 . S
O414 Li354 1.956 . S
O414 Li355 1.970 . S
O414 C384 1.325 . S
O415 Li353 1.961 . S
O415 Li354 1.970 . S
O415 Li355 1.956 . S
O415 C390 1.325 . S
H416 C358 0.929 . S
H417 C359 0.930 . S
H418 C360 0.930 . S
H419 C361 0.930 . S
H420 C363 0.930 . S
H421 C365 0.929 . S
H422 C366 0.930 . S
H423 C367 0.930 . S
H424 C370 0.930 . S
H425 C373 0.929 . S
H426 C378 0.929 . S
H427 C379 0.930 . S
H428 C386 0.929 . S
H429 C387 0.930 . S
H430 C388 0.930 . S
H431 C389 0.930 . S
H432 C391 0.929 . S
H433 C392 0.930 . S
H434 C393 0.930 . S
H435 C394 0.930 . S
H436 C398 0.929 . S
H437 C400 0.930 . S
H438 C406 0.929 . S
H439 C407 0.930 . S
Li440 N457 1.990 . S
Li440 O500 1.956 . S
Li440 O501 1.970 . S
Li440 O502 1.961 . S
Li441 N465 1.990 . S
Li441 O500 1.970 . S
Li441 O501 1.956 . S
Li441 O503 1.961 . S
Li442 N487 1.990 . S
Li442 O500 1.961 . S
Li442 O502 1.956 . S
Li442 O503 1.970 . S
Li443 N493 1.990 . S
Li443 O501 1.961 . S
Li443 O502 1.970 . S
Li443 O503 1.956 . S
C444 C446 1.348 . S
C444 C447 1.356 . S
C444 O500 1.325 . S
N445 C448 1.314 . S
N445 C449 1.279 . S
C446 C444 1.348 . S
C446 C448 1.353 . S
C446 H504 0.929 . S
C447 C444 1.356 . S
C447 C449 1.358 . S
C447 H505 0.930 . S
C448 N445 1.314 . S
C448 C446 1.353 . S
C448 H506 0.930 . S
C449 N445 1.279 . S
C449 C447 1.358 . S
C449 H507 0.930 . S
C450 C453 1.348 . S
C450 C454 1.356 . S
C450 O501 1.325 . S
C451 N452 1.279 . S
C451 C454 1.358 . S
C451 H508 0.930 . S
N452 C451 1.279 . S
N452 C455 1.314 . S
C453 C450 1.348 . S
C453 C455 1.353 . S
C453 H509 0.929 . S
C454 C450 1.356 . S
C454 C451 1.358 . S
C454 H510 0.930 . S
C455 N452 1.314 . S
C455 C453 1.353 . S
C455 H511 0.930 . S
C456 N457 1.314 . S
C456 C461 1.353 . S
C456 H462 0.930 . S
N457 Li440 1.990 . S
N457 C456 1.314 . S
N457 C459 1.279 . S
C458 C459 1.358 . S
C458 C460 1.356 . S
C458 H512 0.930 . S
C459 N457 1.279 . S
C459 C458 1.358 . S
C459 H463 0.930 . S
C460 C458 1.356 . S
C460 C461 1.348 . S
C461 C456 1.353 . S
C461 C460 1.348 . S
C461 H513 0.929 . S
H462 C456 0.930 . S
H463 C459 0.930 . S
C464 N465 1.314 . S
C464 C466 1.353 . S
C464 H470 0.930 . S
N465 Li441 1.990 . S
N465 C464 1.314 . S
N465 C468 1.279 . S
C466 C464 1.353 . S
C466 C469 1.348 . S
C466 H514 0.929 . S
C467 C468 1.358 . S
C467 C469 1.356 . S
C467 H515 0.930 . S
C468 N465 1.279 . S
C468 C467 1.358 . S
C468 H471 0.930 . S
C469 C466 1.348 . S
C469 C467 1.356 . S
H470 C464 0.930 . S
H471 C468 0.930 . S
C472 C474 1.348 . S
C472 C475 1.356 . S
C472 O502 1.325 . S
N473 C476 1.314 . S
N473 C477 1.279 . S
C474 C472 1.348 . S
C474 C476 1.353 . S
C474 H516 0.929 . S
C475 C472 1.356 . S
C475 C477 1.358 . S
C475 H517 0.930 . S
C476 N473 1.314 . S
C476 C474 1.353 . S
C476 H518 0.930 . S
C477 N473 1.279 . S
C477 C475 1.358 . S
C477 H519 0.930 . S
C478 C479 1.348 . S
C478 C480 1.356 . S
C478 O503 1.325 . S
C479 C478 1.348 . S
C479 C481 1.353 . S
C479 H520 0.929 . S
C480 C478 1.356 . S
C480 C482 1.358 . S
C480 H521 0.930 . S
C481 C479 1.353 . S
C481 N483 1.314 . S
C481 H522 0.930 . S
C482 C480 1.358 . S
C482 N483 1.279 . S
C482 H523 0.930 . S
N483 C481 1.314 . S
N483 C482 1.279 . S
C484 C486 1.353 . S
C484 N487 1.314 . S
C484 H490 0.930 . S
C485 N487 1.279 . S
C485 C488 1.358 . S
C485 H491 0.930 . S
C486 C484 1.353 . S
C486 C489 1.348 . S
C486 H524 0.929 . S
N487 Li442 1.990 . S
N487 C484 1.314 . S
N487 C485 1.279 . S
C488 C485 1.358 . S
C488 C489 1.356 . S
C488 H525 0.930 . S
C489 C486 1.348 . S
C489 C488 1.356 . S
H490 C484 0.930 . S
H491 C485 0.930 . S
C492 N493 1.314 . S
C492 C494 1.353 . S
C492 H498 0.930 . S
N493 Li443 1.990 . S
N493 C492 1.314 . S
N493 C496 1.279 . S
C494 C492 1.353 . S
C494 C497 1.348 . S
C494 H526 0.929 . S
C495 C496 1.358 . S
C495 C497 1.356 . S
C495 H527 0.930 . S
C496 N493 1.279 . S
C496 C495 1.358 . S
C496 H499 0.930 . S
C497 C494 1.348 . S
C497 C495 1.356 . S
H498 C492 0.930 . S
H499 C496 0.930 . S
O500 Li440 1.956 . S
O500 Li441 1.970 . S
O500 Li442 1.961 . S
O500 C444 1.325 . S
O501 Li440 1.970 . S
O501 Li441 1.956 . S
O501 Li443 1.961 . S
O501 C450 1.325 . S
O502 Li440 1.961 . S
O502 Li442 1.956 . S
O502 Li443 1.970 . S
O502 C472 1.325 . S
O503 Li441 1.961 . S
O503 Li442 1.970 . S
O503 Li443 1.956 . S
O503 C478 1.325 . S
H504 C446 0.929 . S
H505 C447 0.930 . S
H506 C448 0.930 . S
H507 C449 0.930 . S
H508 C451 0.930 . S
H509 C453 0.929 . S
H510 C454 0.930 . S
H511 C455 0.930 . S
H512 C458 0.930 . S
H513 C461 0.929 . S
H514 C466 0.929 . S
H515 C467 0.930 . S
H516 C474 0.929 . S
H517 C475 0.930 . S
H518 C476 0.930 . S
H519 C477 0.930 . S
H520 C479 0.929 . S
H521 C480 0.930 . S
H522 C481 0.930 . S
H523 C482 0.930 . S
H524 C486 0.929 . S
H525 C488 0.930 . S
H526 C494 0.929 . S
H527 C495 0.930 . S
Li528 N545 1.990 . S
Li528 O588 1.956 . S
Li528 O589 1.970 . S
Li528 O590 1.961 . S
Li529 N553 1.990 . S
Li529 O588 1.970 . S
Li529 O589 1.956 . S
Li529 O591 1.961 . S
Li530 N575 1.990 . S
Li530 O588 1.961 . S
Li530 O590 1.956 . S
Li530 O591 1.970 . S
Li531 N581 1.990 . S
Li531 O589 1.961 . S
Li531 O590 1.970 . S
Li531 O591 1.956 . S
C532 C534 1.348 . S
C532 C535 1.356 . S
C532 O588 1.325 . S
N533 C536 1.314 . S
N533 C537 1.279 . S
C534 C532 1.348 . S
C534 C536 1.353 . S
C534 H592 0.929 . S
C535 C532 1.356 . S
C535 C537 1.358 . S
C535 H593 0.930 . S
C536 N533 1.314 . S
C536 C534 1.353 . S
C536 H594 0.930 . S
C537 N533 1.279 . S
C537 C535 1.358 . S
C537 H595 0.930 . S
C538 C541 1.348 . S
C538 C542 1.356 . S
C538 O589 1.325 . S
C539 N540 1.279 . S
C539 C542 1.358 . S
C539 H596 0.930 . S
N540 C539 1.279 . S
N540 C543 1.314 . S
C541 C538 1.348 . S
C541 C543 1.353 . S
C541 H597 0.929 . S
C542 C538 1.356 . S
C542 C539 1.358 . S
C542 H598 0.930 . S
C543 N540 1.314 . S
C543 C541 1.353 . S
C543 H599 0.930 . S
C544 N545 1.314 . S
C544 C549 1.353 . S
C544 H550 0.930 . S
N545 Li528 1.990 . S
N545 C544 1.314 . S
N545 C547 1.279 . S
C546 C547 1.358 . S
C546 C548 1.356 . S
C546 H600 0.930 . S
C547 N545 1.279 . S
C547 C546 1.358 . S
C547 H551 0.930 . S
C548 C546 1.356 . S
C548 C549 1.348 . S
C549 C544 1.353 . S
C549 C548 1.348 . S
C549 H601 0.929 . S
H550 C544 0.930 . S
H551 C547 0.930 . S
C552 N553 1.314 . S
C552 C554 1.353 . S
C552 H558 0.930 . S
N553 Li529 1.990 . S
N553 C552 1.314 . S
N553 C556 1.279 . S
C554 C552 1.353 . S
C554 C557 1.348 . S
C554 H602 0.929 . S
C555 C556 1.358 . S
C555 C557 1.356 . S
C555 H603 0.930 . S
C556 N553 1.279 . S
C556 C555 1.358 . S
C556 H559 0.930 . S
C557 C554 1.348 . S
C557 C555 1.356 . S
H558 C552 0.930 . S
H559 C556 0.930 . S
C560 C562 1.348 . S
C560 C563 1.356 . S
C560 O590 1.325 . S
N561 C564 1.314 . S
N561 C565 1.279 . S
C562 C560 1.348 . S
C562 C564 1.353 . S
C562 H604 0.929 . S
C563 C560 1.356 . S
C563 C565 1.358 . S
C563 H605 0.930 . S
C564 N561 1.314 . S
C564 C562 1.353 . S
C564 H606 0.930 . S
C565 N561 1.279 . S
C565 C563 1.358 . S
C565 H607 0.930 . S
C566 C567 1.348 . S
C566 C568 1.356 . S
C566 O591 1.325 . S
C567 C566 1.348 . S
C567 C569 1.353 . S
C567 H608 0.929 . S
C568 C566 1.356 . S
C568 C570 1.358 . S
C568 H609 0.930 . S
C569 C567 1.353 . S
C569 N571 1.314 . S
C569 H610 0.930 . S
C570 C568 1.358 . S
C570 N571 1.279 . S
C570 H611 0.930 . S
N571 C569 1.314 . S
N571 C570 1.279 . S
C572 C574 1.353 . S
C572 N575 1.314 . S
C572 H578 0.930 . S
C573 N575 1.279 . S
C573 C576 1.358 . S
C573 H579 0.930 . S
C574 C572 1.353 . S
C574 C577 1.348 . S
C574 H612 0.929 . S
N575 Li530 1.990 . S
N575 C572 1.314 . S
N575 C573 1.279 . S
C576 C573 1.358 . S
C576 C577 1.356 . S
C576 H613 0.930 . S
C577 C574 1.348 . S
C577 C576 1.356 . S
H578 C572 0.930 . S
H579 C573 0.930 . S
C580 N581 1.314 . S
C580 C582 1.353 . S
C580 H586 0.930 . S
N581 Li531 1.990 . S
N581 C580 1.314 . S
N581 C584 1.279 . S
C582 C580 1.353 . S
C582 C585 1.348 . S
C582 H614 0.929 . S
C583 C584 1.358 . S
C583 C585 1.356 . S
C583 H615 0.930 . S
C584 N581 1.279 . S
C584 C583 1.358 . S
C584 H587 0.930 . S
C585 C582 1.348 . S
C585 C583 1.356 . S
H586 C580 0.930 . S
H587 C584 0.930 . S
O588 Li528 1.956 . S
O588 Li529 1.970 . S
O588 Li530 1.961 . S
O588 C532 1.325 . S
O589 Li528 1.970 . S
O589 Li529 1.956 . S
O589 Li531 1.961 . S
O589 C538 1.325 . S
O590 Li528 1.961 . S
O590 Li530 1.956 . S
O590 Li531 1.970 . S
O590 C560 1.325 . S
O591 Li529 1.961 . S
O591 Li530 1.970 . S
O591 Li531 1.956 . S
O591 C566 1.325 . S
H592 C534 0.929 . S
H593 C535 0.930 . S
H594 C536 0.930 . S
H595 C537 0.930 . S
H596 C539 0.930 . S
H597 C541 0.929 . S
H598 C542 0.930 . S
H599 C543 0.930 . S
H600 C546 0.930 . S
H601 C549 0.929 . S
H602 C554 0.929 . S
H603 C555 0.930 . S
H604 C562 0.929 . S
H605 C563 0.930 . S
H606 C564 0.930 . S
H607 C565 0.930 . S
H608 C567 0.929 . S
H609 C568 0.930 . S
H610 C569 0.930 . S
H611 C570 0.930 . S
H612 C574 0.929 . S
H613 C576 0.930 . S
H614 C582 0.929 . S
H615 C583 0.930 . S
Li616 N633 1.990 . S
Li616 O676 1.956 . S
Li616 O677 1.970 . S
Li616 O678 1.961 . S
Li617 N641 1.990 . S
Li617 O676 1.970 . S
Li617 O677 1.956 . S
Li617 O679 1.961 . S
Li618 N663 1.990 . S
Li618 O676 1.961 . S
Li618 O678 1.956 . S
Li618 O679 1.970 . S
Li619 N669 1.990 . S
Li619 O677 1.961 . S
Li619 O678 1.970 . S
Li619 O679 1.956 . S
C620 C622 1.348 . S
C620 C623 1.356 . S
C620 O676 1.325 . S
N621 C624 1.314 . S
N621 C625 1.279 . S
C622 C620 1.348 . S
C622 C624 1.353 . S
C622 H680 0.929 . S
C623 C620 1.356 . S
C623 C625 1.358 . S
C623 H681 0.930 . S
C624 N621 1.314 . S
C624 C622 1.353 . S
C624 H682 0.930 . S
C625 N621 1.279 . S
C625 C623 1.358 . S
C625 H683 0.930 . S
C626 C629 1.348 . S
C626 C630 1.356 . S
C626 O677 1.325 . S
C627 N628 1.279 . S
C627 C630 1.358 . S
C627 H684 0.930 . S
N628 C627 1.279 . S
N628 C631 1.314 . S
C629 C626 1.348 . S
C629 C631 1.353 . S
C629 H685 0.929 . S
C630 C626 1.356 . S
C630 C627 1.358 . S
C630 H686 0.930 . S
C631 N628 1.314 . S
C631 C629 1.353 . S
C631 H687 0.930 . S
C632 N633 1.314 . S
C632 C637 1.353 . S
C632 H638 0.930 . S
N633 Li616 1.990 . S
N633 C632 1.314 . S
N633 C635 1.279 . S
C634 C635 1.358 . S
C634 C636 1.356 . S
C634 H688 0.930 . S
C635 N633 1.279 . S
C635 C634 1.358 . S
C635 H639 0.930 . S
C636 C634 1.356 . S
C636 C637 1.348 . S
C637 C632 1.353 . S
C637 C636 1.348 . S
C637 H689 0.929 . S
H638 C632 0.930 . S
H639 C635 0.930 . S
C640 N641 1.314 . S
C640 C642 1.353 . S
C640 H646 0.930 . S
N641 Li617 1.990 . S
N641 C640 1.314 . S
N641 C644 1.279 . S
C642 C640 1.353 . S
C642 C645 1.348 . S
C642 H690 0.929 . S
C643 C644 1.358 . S
C643 C645 1.356 . S
C643 H691 0.930 . S
C644 N641 1.279 . S
C644 C643 1.358 . S
C644 H647 0.930 . S
C645 C642 1.348 . S
C645 C643 1.356 . S
H646 C640 0.930 . S
H647 C644 0.930 . S
C648 C650 1.348 . S
C648 C651 1.356 . S
C648 O678 1.325 . S
N649 C652 1.314 . S
N649 C653 1.279 . S
C650 C648 1.348 . S
C650 C652 1.353 . S
C650 H692 0.929 . S
C651 C648 1.356 . S
C651 C653 1.358 . S
C651 H693 0.930 . S
C652 N649 1.314 . S
C652 C650 1.353 . S
C652 H694 0.930 . S
C653 N649 1.279 . S
C653 C651 1.358 . S
C653 H695 0.930 . S
C654 C655 1.348 . S
C654 C656 1.356 . S
C654 O679 1.325 . S
C655 C654 1.348 . S
C655 C657 1.353 . S
C655 H696 0.929 . S
C656 C654 1.356 . S
C656 C658 1.358 . S
C656 H697 0.930 . S
C657 C655 1.353 . S
C657 N659 1.314 . S
C657 H698 0.930 . S
C658 C656 1.358 . S
C658 N659 1.279 . S
C658 H699 0.930 . S
N659 C657 1.314 . S
N659 C658 1.279 . S
C660 C662 1.353 . S
C660 N663 1.314 . S
C660 H666 0.930 . S
C661 N663 1.279 . S
C661 C664 1.358 . S
C661 H667 0.930 . S
C662 C660 1.353 . S
C662 C665 1.348 . S
C662 H700 0.929 . S
N663 Li618 1.990 . S
N663 C660 1.314 . S
N663 C661 1.279 . S
C664 C661 1.358 . S
C664 C665 1.356 . S
C664 H701 0.930 . S
C665 C662 1.348 . S
C665 C664 1.356 . S
H666 C660 0.930 . S
H667 C661 0.930 . S
C668 N669 1.314 . S
C668 C670 1.353 . S
C668 H674 0.930 . S
N669 Li619 1.990 . S
N669 C668 1.314 . S
N669 C672 1.279 . S
C670 C668 1.353 . S
C670 C673 1.348 . S
C670 H702 0.929 . S
C671 C672 1.358 . S
C671 C673 1.356 . S
C671 H703 0.930 . S
C672 N669 1.279 . S
C672 C671 1.358 . S
C672 H675 0.930 . S
C673 C670 1.348 . S
C673 C671 1.356 . S
H674 C668 0.930 . S
H675 C672 0.930 . S
O676 Li616 1.956 . S
O676 Li617 1.970 . S
O676 Li618 1.961 . S
O676 C620 1.325 . S
O677 Li616 1.970 . S
O677 Li617 1.956 . S
O677 Li619 1.961 . S
O677 C626 1.325 . S
O678 Li616 1.961 . S
O678 Li618 1.956 . S
O678 Li619 1.970 . S
O678 C648 1.325 . S
O679 Li617 1.961 . S
O679 Li618 1.970 . S
O679 Li619 1.956 . S
O679 C654 1.325 . S
H680 C622 0.929 . S
H681 C623 0.930 . S
H682 C624 0.930 . S
H683 C625 0.930 . S
H684 C627 0.930 . S
H685 C629 0.929 . S
H686 C630 0.930 . S
H687 C631 0.930 . S
H688 C634 0.930 . S
H689 C637 0.929 . S
H690 C642 0.929 . S
H691 C643 0.930 . S
H692 C650 0.929 . S
H693 C651 0.930 . S
H694 C652 0.930 . S
H695 C653 0.930 . S
H696 C655 0.929 . S
H697 C656 0.930 . S
H698 C657 0.930 . S
H699 C658 0.930 . S
H700 C662 0.929 . S
H701 C664 0.930 . S
H702 C670 0.929 . S
H703 C671 0.930 . S
Li704 N721 1.990 . S
Li704 O764 1.956 . S
Li704 O765 1.970 . S
Li704 O766 1.961 . S
Li705 N729 1.990 . S
Li705 O764 1.970 . S
Li705 O765 1.956 . S
Li705 O767 1.961 . S
Li706 N751 1.990 . S
Li706 O764 1.961 . S
Li706 O766 1.956 . S
Li706 O767 1.970 . S
Li707 N757 1.990 . S
Li707 O765 1.961 . S
Li707 O766 1.970 . S
Li707 O767 1.956 . S
C708 C710 1.348 . S
C708 C711 1.356 . S
C708 O764 1.325 . S
N709 C712 1.314 . S
N709 C713 1.279 . S
C710 C708 1.348 . S
C710 C712 1.353 . S
C710 H768 0.929 . S
C711 C708 1.356 . S
C711 C713 1.358 . S
C711 H769 0.930 . S
C712 N709 1.314 . S
C712 C710 1.353 . S
C712 H770 0.930 . S
C713 N709 1.279 . S
C713 C711 1.358 . S
C713 H771 0.930 . S
C714 C717 1.348 . S
C714 C718 1.356 . S
C714 O765 1.325 . S
C715 N716 1.279 . S
C715 C718 1.358 . S
C715 H772 0.930 . S
N716 C715 1.279 . S
N716 C719 1.314 . S
C717 C714 1.348 . S
C717 C719 1.353 . S
C717 H773 0.929 . S
C718 C714 1.356 . S
C718 C715 1.358 . S
C718 H774 0.930 . S
C719 N716 1.314 . S
C719 C717 1.353 . S
C719 H775 0.930 . S
C720 N721 1.314 . S
C720 C725 1.353 . S
C720 H726 0.930 . S
N721 Li704 1.990 . S
N721 C720 1.314 . S
N721 C723 1.279 . S
C722 C723 1.358 . S
C722 C724 1.356 . S
C722 H776 0.930 . S
C723 N721 1.279 . S
C723 C722 1.358 . S
C723 H727 0.930 . S
C724 C722 1.356 . S
C724 C725 1.348 . S
C725 C720 1.353 . S
C725 C724 1.348 . S
C725 H777 0.929 . S
H726 C720 0.930 . S
H727 C723 0.930 . S
C728 N729 1.314 . S
C728 C730 1.353 . S
C728 H734 0.930 . S
N729 Li705 1.990 . S
N729 C728 1.314 . S
N729 C732 1.279 . S
C730 C728 1.353 . S
C730 C733 1.348 . S
C730 H778 0.929 . S
C731 C732 1.358 . S
C731 C733 1.356 . S
C731 H779 0.930 . S
C732 N729 1.279 . S
C732 C731 1.358 . S
C732 H735 0.930 . S
C733 C730 1.348 . S
C733 C731 1.356 . S
H734 C728 0.930 . S
H735 C732 0.930 . S
C736 C738 1.348 . S
C736 C739 1.356 . S
C736 O766 1.325 . S
N737 C740 1.314 . S
N737 C741 1.279 . S
C738 C736 1.348 . S
C738 C740 1.353 . S
C738 H780 0.929 . S
C739 C736 1.356 . S
C739 C741 1.358 . S
C739 H781 0.930 . S
C740 N737 1.314 . S
C740 C738 1.353 . S
C740 H782 0.930 . S
C741 N737 1.279 . S
C741 C739 1.358 . S
C741 H783 0.930 . S
C742 C743 1.348 . S
C742 C744 1.356 . S
C742 O767 1.325 . S
C743 C742 1.348 . S
C743 C745 1.353 . S
C743 H784 0.929 . S
C744 C742 1.356 . S
C744 C746 1.358 . S
C744 H785 0.930 . S
C745 C743 1.353 . S
C745 N747 1.314 . S
C745 H786 0.930 . S
C746 C744 1.358 . S
C746 N747 1.279 . S
C746 H787 0.930 . S
N747 C745 1.314 . S
N747 C746 1.279 . S
C748 C750 1.353 . S
C748 N751 1.314 . S
C748 H754 0.930 . S
C749 N751 1.279 . S
C749 C752 1.358 . S
C749 H755 0.930 . S
C750 C748 1.353 . S
C750 C753 1.348 . S
C750 H788 0.929 . S
N751 Li706 1.990 . S
N751 C748 1.314 . S
N751 C749 1.279 . S
C752 C749 1.358 . S
C752 C753 1.356 . S
C752 H789 0.930 . S
C753 C750 1.348 . S
C753 C752 1.356 . S
H754 C748 0.930 . S
H755 C749 0.930 . S
C756 N757 1.314 . S
C756 C758 1.353 . S
C756 H762 0.930 . S
N757 Li707 1.990 . S
N757 C756 1.314 . S
N757 C760 1.279 . S
C758 C756 1.353 . S
C758 C761 1.348 . S
C758 H790 0.929 . S
C759 C760 1.358 . S
C759 C761 1.356 . S
C759 H791 0.930 . S
C760 N757 1.279 . S
C760 C759 1.358 . S
C760 H763 0.930 . S
C761 C758 1.348 . S
C761 C759 1.356 . S
H762 C756 0.930 . S
H763 C760 0.930 . S
O764 Li704 1.956 . S
O764 Li705 1.970 . S
O764 Li706 1.961 . S
O764 C708 1.325 . S
O765 Li704 1.970 . S
O765 Li705 1.956 . S
O765 Li707 1.961 . S
O765 C714 1.325 . S
O766 Li704 1.961 . S
O766 Li706 1.956 . S
O766 Li707 1.970 . S
O766 C736 1.325 . S
O767 Li705 1.961 . S
O767 Li706 1.970 . S
O767 Li707 1.956 . S
O767 C742 1.325 . S
H768 C710 0.929 . S
H769 C711 0.930 . S
H770 C712 0.930 . S
H771 C713 0.930 . S
H772 C715 0.930 . S
H773 C717 0.929 . S
H774 C718 0.930 . S
H775 C719 0.930 . S
H776 C722 0.930 . S
H777 C725 0.929 . S
H778 C730 0.929 . S
H779 C731 0.930 . S
H780 C738 0.929 . S
H781 C739 0.930 . S
H782 C740 0.930 . S
H783 C741 0.930 . S
H784 C743 0.929 . S
H785 C744 0.930 . S
H786 C745 0.930 . S
H787 C746 0.930 . S
H788 C750 0.929 . S
H789 C752 0.930 . S
H790 C758 0.929 . S
H791 C759 0.930 . S
Li792 N809 1.990 . S
Li792 O852 1.956 . S
Li792 O853 1.970 . S
Li792 O854 1.961 . S
Li793 N817 1.990 . S
Li793 O852 1.970 . S
Li793 O853 1.956 . S
Li793 O855 1.961 . S
Li794 N839 1.990 . S
Li794 O852 1.961 . S
Li794 O854 1.956 . S
Li794 O855 1.970 . S
Li795 N845 1.990 . S
Li795 O853 1.961 . S
Li795 O854 1.970 . S
Li795 O855 1.956 . S
C796 C798 1.348 . S
C796 C799 1.356 . S
C796 O852 1.325 . S
N797 C800 1.314 . S
N797 C801 1.279 . S
C798 C796 1.348 . S
C798 C800 1.353 . S
C798 H856 0.929 . S
C799 C796 1.356 . S
C799 C801 1.358 . S
C799 H857 0.930 . S
C800 N797 1.314 . S
C800 C798 1.353 . S
C800 H858 0.930 . S
C801 N797 1.279 . S
C801 C799 1.358 . S
C801 H859 0.930 . S
C802 C805 1.348 . S
C802 C806 1.356 . S
C802 O853 1.325 . S
C803 N804 1.279 . S
C803 C806 1.358 1_554 S
C803 H860 0.930 . S
N804 C803 1.279 . S
N804 C807 1.314 . S
C805 C802 1.348 . S
C805 C807 1.353 1_556 S
C805 H861 0.929 . S
C806 C802 1.356 . S
C806 C803 1.358 1_556 S
C806 H862 0.930 . S
C807 N804 1.314 . S
C807 C805 1.353 1_554 S
C807 H863 0.930 . S
C808 N809 1.314 . S
C808 C813 1.353 . S
C808 H814 0.930 . S
N809 Li792 1.990 . S
N809 C808 1.314 . S
N809 C811 1.279 . S
C810 C811 1.358 . S
C810 C812 1.356 . S
C810 H864 0.930 . S
C811 N809 1.279 . S
C811 C810 1.358 . S
C811 H815 0.930 . S
C812 C810 1.356 . S
C812 C813 1.348 . S
C813 C808 1.353 . S
C813 C812 1.348 . S
C813 H865 0.929 . S
H814 C808 0.930 . S
H815 C811 0.930 . S
C816 N817 1.314 . S
C816 C818 1.353 1_556 S
C816 H822 0.930 . S
N817 Li793 1.990 . S
N817 C816 1.314 . S
N817 C820 1.279 1_556 S
C818 C816 1.353 1_554 S
C818 C821 1.348 . S
C818 H866 0.929 . S
C819 C820 1.358 . S
C819 C821 1.356 . S
C819 H867 0.930 . S
C820 N817 1.279 1_554 S
C820 C819 1.358 . S
C820 H823 0.930 . S
C821 C818 1.348 . S
C821 C819 1.356 . S
H822 C816 0.930 . S
H823 C820 0.930 . S
C824 C826 1.348 . S
C824 C827 1.356 . S
C824 O854 1.325 . S
N825 C828 1.314 . S
N825 C829 1.279 . S
C826 C824 1.348 . S
C826 C828 1.353 . S
C826 H868 0.929 . S
C827 C824 1.356 . S
C827 C829 1.358 . S
C827 H869 0.930 . S
C828 N825 1.314 . S
C828 C826 1.353 . S
C828 H870 0.930 . S
C829 N825 1.279 . S
C829 C827 1.358 . S
C829 H871 0.930 . S
C830 C831 1.348 . S
C830 C832 1.356 . S
C830 O855 1.325 . S
C831 C830 1.348 . S
C831 C833 1.353 . S
C831 H872 0.929 . S
C832 C830 1.356 . S
C832 C834 1.358 . S
C832 H873 0.930 . S
C833 C831 1.353 . S
C833 N835 1.314 . S
C833 H874 0.930 . S
C834 C832 1.358 . S
C834 N835 1.279 . S
C834 H875 0.930 . S
N835 C833 1.314 . S
N835 C834 1.279 . S
C836 C838 1.353 . S
C836 N839 1.314 . S
C836 H842 0.930 . S
C837 N839 1.279 . S
C837 C840 1.358 . S
C837 H843 0.930 . S
C838 C836 1.353 . S
C838 C841 1.348 . S
C838 H876 0.929 . S
N839 Li794 1.990 . S
N839 C836 1.314 . S
N839 C837 1.279 . S
C840 C837 1.358 . S
C840 C841 1.356 . S
C840 H877 0.930 . S
C841 C838 1.348 . S
C841 C840 1.356 . S
H842 C836 0.930 . S
H843 C837 0.930 . S
C844 N845 1.314 . S
C844 C846 1.353 . S
C844 H850 0.930 . S
N845 Li795 1.990 . S
N845 C844 1.314 . S
N845 C848 1.279 . S
C846 C844 1.353 . S
C846 C849 1.348 . S
C846 H878 0.929 . S
C847 C848 1.358 . S
C847 C849 1.356 . S
C847 H879 0.930 . S
C848 N845 1.279 . S
C848 C847 1.358 . S
C848 H851 0.930 . S
C849 C846 1.348 . S
C849 C847 1.356 . S
H850 C844 0.930 . S
H851 C848 0.930 . S
O852 Li792 1.956 . S
O852 Li793 1.970 . S
O852 Li794 1.961 . S
O852 C796 1.325 . S
O853 Li792 1.970 . S
O853 Li793 1.956 . S
O853 Li795 1.961 . S
O853 C802 1.325 . S
O854 Li792 1.961 . S
O854 Li794 1.956 . S
O854 Li795 1.970 . S
O854 C824 1.325 . S
O855 Li793 1.961 . S
O855 Li794 1.970 . S
O855 Li795 1.956 . S
O855 C830 1.325 . S
H856 C798 0.929 . S
H857 C799 0.930 . S
H858 C800 0.930 . S
H859 C801 0.930 . S
H860 C803 0.930 . S
H861 C805 0.929 . S
H862 C806 0.930 . S
H863 C807 0.930 . S
H864 C810 0.930 . S
H865 C813 0.929 . S
H866 C818 0.929 . S
H867 C819 0.930 . S
H868 C826 0.929 . S
H869 C827 0.930 . S
H870 C828 0.930 . S
H871 C829 0.930 . S
H872 C831 0.929 . S
H873 C832 0.930 . S
H874 C833 0.930 . S
H875 C834 0.930 . S
H876 C838 0.929 . S
H877 C840 0.930 . S
H878 C846 0.929 . S
H879 C847 0.930 . S
Li880 N897 1.990 . S
Li880 O940 1.956 . S
Li880 O941 1.970 . S
Li880 O942 1.961 . S
Li881 N905 1.990 . S
Li881 O940 1.970 . S
Li881 O941 1.956 . S
Li881 O943 1.961 . S
Li882 N927 1.990 1_554 S
Li882 O940 1.961 . S
Li882 O942 1.956 . S
Li882 O943 1.970 . S
Li883 N933 1.990 . S
Li883 O941 1.961 . S
Li883 O942 1.970 . S
Li883 O943 1.956 . S
C884 C886 1.348 . S
C884 C887 1.356 . S
C884 O940 1.325 . S
N885 C888 1.314 . S
N885 C889 1.279 . S
C886 C884 1.348 . S
C886 C888 1.353 . S
C886 H944 0.929 . S
C887 C884 1.356 . S
C887 C889 1.358 . S
C887 H945 0.930 . S
C888 N885 1.314 . S
C888 C886 1.353 . S
C888 H946 0.930 . S
C889 N885 1.279 . S
C889 C887 1.358 . S
C889 H947 0.930 . S
C890 C893 1.348 . S
C890 C894 1.356 . S
C890 O941 1.325 . S
C891 N892 1.279 . S
C891 C894 1.358 . S
C891 H948 0.930 . S
N892 C891 1.279 . S
N892 C895 1.314 . S
C893 C890 1.348 . S
C893 C895 1.353 . S
C893 H949 0.929 . S
C894 C890 1.356 . S
C894 C891 1.358 . S
C894 H950 0.930 . S
C895 N892 1.314 . S
C895 C893 1.353 . S
C895 H951 0.930 . S
C896 N897 1.314 . S
C896 C901 1.353 . S
C896 H902 0.930 . S
N897 Li880 1.990 . S
N897 C896 1.314 . S
N897 C899 1.279 . S
C898 C899 1.358 . S
C898 C900 1.356 . S
C898 H952 0.930 . S
C899 N897 1.279 . S
C899 C898 1.358 . S
C899 H903 0.930 . S
C900 C898 1.356 . S
C900 C901 1.348 . S
C901 C896 1.353 . S
C901 C900 1.348 . S
C901 H953 0.929 . S
H902 C896 0.930 . S
H903 C899 0.930 . S
C904 N905 1.314 . S
C904 C906 1.353 . S
C904 H910 0.930 . S
N905 Li881 1.990 . S
N905 C904 1.314 . S
N905 C908 1.279 . S
C906 C904 1.353 . S
C906 C909 1.348 . S
C906 H954 0.929 . S
C907 C908 1.358 . S
C907 C909 1.356 . S
C907 H955 0.930 . S
C908 N905 1.279 . S
C908 C907 1.358 . S
C908 H911 0.930 . S
C909 C906 1.348 . S
C909 C907 1.356 . S
H910 C904 0.930 . S
H911 C908 0.930 . S
C912 C914 1.348 . S
C912 C915 1.356 . S
C912 O942 1.325 1_556 S
N913 C916 1.314 . S
N913 C917 1.279 . S
C914 C912 1.348 . S
C914 C916 1.353 . S
C914 H956 0.929 . S
C915 C912 1.356 . S
C915 C917 1.358 . S
C915 H957 0.930 . S
C916 N913 1.314 . S
C916 C914 1.353 . S
C916 H958 0.930 . S
C917 N913 1.279 . S
C917 C915 1.358 . S
C917 H959 0.930 . S
C918 C919 1.348 . S
C918 C920 1.356 . S
C918 O943 1.325 . S
C919 C918 1.348 . S
C919 C921 1.353 . S
C919 H960 0.929 . S
C920 C918 1.356 . S
C920 C922 1.358 . S
C920 H961 0.930 . S
C921 C919 1.353 . S
C921 N923 1.314 . S
C921 H962 0.930 . S
C922 C920 1.358 . S
C922 N923 1.279 . S
C922 H963 0.930 . S
N923 C921 1.314 . S
N923 C922 1.279 . S
C924 C926 1.353 . S
C924 N927 1.314 . S
C924 H930 0.930 1_556 S
C925 N927 1.279 . S
C925 C928 1.358 . S
C925 H931 0.930 . S
C926 C924 1.353 . S
C926 C929 1.348 . S
C926 H964 0.929 . S
N927 Li882 1.990 1_556 S
N927 C924 1.314 . S
N927 C925 1.279 . S
C928 C925 1.358 . S
C928 C929 1.356 . S
C928 H965 0.930 . S
C929 C926 1.348 . S
C929 C928 1.356 . S
H930 C924 0.930 1_554 S
H931 C925 0.930 . S
C932 N933 1.314 . S
C932 C934 1.353 . S
C932 H938 0.930 . S
N933 Li883 1.990 . S
N933 C932 1.314 . S
N933 C936 1.279 . S
C934 C932 1.353 . S
C934 C937 1.348 . S
C934 H966 0.929 . S
C935 C936 1.358 . S
C935 C937 1.356 . S
C935 H967 0.930 . S
C936 N933 1.279 . S
C936 C935 1.358 . S
C936 H939 0.930 . S
C937 C934 1.348 . S
C937 C935 1.356 . S
H938 C932 0.930 . S
H939 C936 0.930 . S
O940 Li880 1.956 . S
O940 Li881 1.970 . S
O940 Li882 1.961 . S
O940 C884 1.325 . S
O941 Li880 1.970 . S
O941 Li881 1.956 . S
O941 Li883 1.961 . S
O941 C890 1.325 . S
O942 Li880 1.961 . S
O942 Li882 1.956 . S
O942 Li883 1.970 . S
O942 C912 1.325 1_554 S
O943 Li881 1.961 . S
O943 Li882 1.970 . S
O943 Li883 1.956 . S
O943 C918 1.325 . S
H944 C886 0.929 . S
H945 C887 0.930 . S
H946 C888 0.930 . S
H947 C889 0.930 . S
H948 C891 0.930 . S
H949 C893 0.929 . S
H950 C894 0.930 . S
H951 C895 0.930 . S
H952 C898 0.930 . S
H953 C901 0.929 . S
H954 C906 0.929 . S
H955 C907 0.930 . S
H956 C914 0.929 . S
H957 C915 0.930 . S
H958 C916 0.930 . S
H959 C917 0.930 . S
H960 C919 0.929 . S
H961 C920 0.930 . S
H962 C921 0.930 . S
H963 C922 0.930 . S
H964 C926 0.929 . S
H965 C928 0.930 . S
H966 C934 0.929 . S
H967 C935 0.930 . S
Li968 N985 1.990 . S
Li968 O1028 1.956 . S
Li968 O1029 1.970 . S
Li968 O1030 1.961 . S
Li969 N993 1.990 . S
Li969 O1028 1.970 . S
Li969 O1029 1.956 . S
Li969 O1031 1.961 . S
Li970 N1015 1.990 . S
Li970 O1028 1.961 . S
Li970 O1030 1.956 . S
Li970 O1031 1.970 . S
Li971 N1021 1.990 . S
Li971 O1029 1.961 . S
Li971 O1030 1.970 . S
Li971 O1031 1.956 . S
C972 C974 1.348 . S
C972 C975 1.356 . S
C972 O1028 1.325 . S
N973 C976 1.314 . S
N973 C977 1.279 . S
C974 C972 1.348 . S
C974 C976 1.353 . S
C974 H1032 0.929 . S
C975 C972 1.356 . S
C975 C977 1.358 . S
C975 H1033 0.930 . S
C976 N973 1.314 . S
C976 C974 1.353 . S
C976 H1034 0.930 . S
C977 N973 1.279 . S
C977 C975 1.358 . S
C977 H1035 0.930 . S
C978 C981 1.348 . S
C978 C982 1.356 . S
C978 O1029 1.325 . S
C979 N980 1.279 . S
C979 C982 1.358 . S
C979 H1036 0.930 . S
N980 C979 1.279 . S
N980 C983 1.314 . S
C981 C978 1.348 . S
C981 C983 1.353 . S
C981 H1037 0.929 . S
C982 C978 1.356 . S
C982 C979 1.358 . S
C982 H1038 0.930 . S
C983 N980 1.314 . S
C983 C981 1.353 . S
C983 H1039 0.930 . S
C984 N985 1.314 . S
C984 C989 1.353 . S
C984 H990 0.930 . S
N985 Li968 1.990 . S
N985 C984 1.314 . S
N985 C987 1.279 . S
C986 C987 1.358 . S
C986 C988 1.356 . S
C986 H1040 0.930 . S
C987 N985 1.279 . S
C987 C986 1.358 . S
C987 H991 0.930 . S
C988 C986 1.356 . S
C988 C989 1.348 . S
C989 C984 1.353 . S
C989 C988 1.348 . S
C989 H1041 0.929 . S
H990 C984 0.930 . S
H991 C987 0.930 . S
C992 N993 1.314 . S
C992 C994 1.353 . S
C992 H998 0.930 . S
N993 Li969 1.990 . S
N993 C992 1.314 . S
N993 C996 1.279 . S
C994 C992 1.353 . S
C994 C997 1.348 . S
C994 H1042 0.929 . S
C995 C996 1.358 . S
C995 C997 1.356 . S
C995 H1043 0.930 . S
C996 N993 1.279 . S
C996 C995 1.358 . S
C996 H999 0.930 . S
C997 C994 1.348 . S
C997 C995 1.356 . S
H998 C992 0.930 . S
H999 C996 0.930 . S
C1000 C1002 1.348 . S
C1000 C1003 1.356 . S
C1000 O1030 1.325 . S
N1001 C1004 1.314 . S
N1001 C1005 1.279 . S
C1002 C1000 1.348 . S
C1002 C1004 1.353 . S
C1002 H1044 0.929 . S
C1003 C1000 1.356 . S
C1003 C1005 1.358 . S
C1003 H1045 0.930 . S
C1004 N1001 1.314 . S
C1004 C1002 1.353 . S
C1004 H1046 0.930 . S
C1005 N1001 1.279 . S
C1005 C1003 1.358 . S
C1005 H1047 0.930 . S
C1006 C1007 1.348 . S
C1006 C1008 1.356 . S
C1006 O1031 1.325 . S
C1007 C1006 1.348 . S
C1007 C1009 1.353 . S
C1007 H1048 0.929 . S
C1008 C1006 1.356 . S
C1008 C1010 1.358 . S
C1008 H1049 0.930 . S
C1009 C1007 1.353 . S
C1009 N1011 1.314 . S
C1009 H1050 0.930 . S
C1010 C1008 1.358 . S
C1010 N1011 1.279 . S
C1010 H1051 0.930 . S
N1011 C1009 1.314 . S
N1011 C1010 1.279 . S
C1012 C1014 1.353 . S
C1012 N1015 1.314 . S
C1012 H1018 0.930 . S
C1013 N1015 1.279 . S
C1013 C1016 1.358 . S
C1013 H1019 0.930 . S
C1014 C1012 1.353 . S
C1014 C1017 1.348 . S
C1014 H1052 0.929 . S
N1015 Li970 1.990 . S
N1015 C1012 1.314 . S
N1015 C1013 1.279 . S
C1016 C1013 1.358 . S
C1016 C1017 1.356 . S
C1016 H1053 0.930 . S
C1017 C1014 1.348 . S
C1017 C1016 1.356 . S
H1018 C1012 0.930 . S
H1019 C1013 0.930 . S
C1020 N1021 1.314 . S
C1020 C1022 1.353 . S
C1020 H1026 0.930 . S
N1021 Li971 1.990 . S
N1021 C1020 1.314 . S
N1021 C1024 1.279 . S
C1022 C1020 1.353 . S
C1022 C1025 1.348 . S
C1022 H1054 0.929 . S
C1023 C1024 1.358 . S
C1023 C1025 1.356 . S
C1023 H1055 0.930 . S
C1024 N1021 1.279 . S
C1024 C1023 1.358 . S
C1024 H1027 0.930 . S
C1025 C1022 1.348 . S
C1025 C1023 1.356 . S
H1026 C1020 0.930 . S
H1027 C1024 0.930 . S
O1028 Li968 1.956 . S
O1028 Li969 1.970 . S
O1028 Li970 1.961 . S
O1028 C972 1.325 . S
O1029 Li968 1.970 . S
O1029 Li969 1.956 . S
O1029 Li971 1.961 . S
O1029 C978 1.325 . S
O1030 Li968 1.961 . S
O1030 Li970 1.956 . S
O1030 Li971 1.970 . S
O1030 C1000 1.325 . S
O1031 Li969 1.961 . S
O1031 Li970 1.970 . S
O1031 Li971 1.956 . S
O1031 C1006 1.325 . S
H1032 C974 0.929 . S
H1033 C975 0.930 . S
H1034 C976 0.930 . S
H1035 C977 0.930 . S
H1036 C979 0.930 . S
H1037 C981 0.929 . S
H1038 C982 0.930 . S
H1039 C983 0.930 . S
H1040 C986 0.930 . S
H1041 C989 0.929 . S
H1042 C994 0.929 . S
H1043 C995 0.930 . S
H1044 C1002 0.929 . S
H1045 C1003 0.930 . S
H1046 C1004 0.930 . S
H1047 C1005 0.930 . S
H1048 C1007 0.929 . S
H1049 C1008 0.930 . S
H1050 C1009 0.930 . S
H1051 C1010 0.930 . S
H1052 C1014 0.929 . S
H1053 C1016 0.930 . S
H1054 C1022 0.929 . S
H1055 C1023 0.930 . S
C1056 C1057 1.391 . S
C1056 C1058 1.394 . S
C1056 H1072 0.931 . S
C1057 C1056 1.391 . S
C1057 C1061 1.376 . S
C1058 C1056 1.394 . S
C1058 C1059 1.369 . S
C1058 C1062 1.531 . S
C1059 C1058 1.369 . S
C1059 C1060 1.410 . S
C1059 C1067 1.503 . S
C1060 C1059 1.410 . S
C1060 C1061 1.392 . S
C1060 C1063 1.511 . S
C1061 C1057 1.376 . S
C1061 C1060 1.392 . S
C1061 H1073 0.929 . S
C1062 C1058 1.531 . S
C1062 H1074 0.960 . S
C1062 H1075 0.962 . S
C1062 H1076 0.960 . S
C1063 C1060 1.511 . S
C1063 H1077 0.961 . S
C1063 H1078 0.961 . S
C1063 H1079 0.961 . S
C1064 C1065 1.370 . S
C1064 C1066 1.363 . S
C1064 H1080 0.931 . S
C1065 C1064 1.370 . S
C1065 C1069 1.408 . S
C1066 C1064 1.363 . S
C1066 C1067 1.370 . S
C1066 C1070 1.524 . S
C1067 C1059 1.503 . S
C1067 C1066 1.370 . S
C1067 C1068 1.403 . S
C1068 C1067 1.403 . S
C1068 C1069 1.404 . S
C1068 C1071 1.539 . S
C1069 C1065 1.408 . S
C1069 C1068 1.404 . S
C1069 H1081 0.930 . S
C1070 C1066 1.524 . S
C1070 H1082 0.956 . S
C1070 H1083 0.961 . S
C1070 H1084 0.961 . S
C1071 C1068 1.539 . S
C1071 H1085 0.958 . S
C1071 H1086 0.961 . S
C1071 H1087 0.960 . S
H1072 C1056 0.931 . S
H1073 C1061 0.929 . S
H1074 C1062 0.960 . S
H1075 C1062 0.962 . S
H1076 C1062 0.960 . S
H1077 C1063 0.961 . S
H1078 C1063 0.961 . S
H1079 C1063 0.961 . S
H1080 C1064 0.931 . S
H1081 C1069 0.930 . S
H1082 C1070 0.956 . S
H1083 C1070 0.961 . S
H1084 C1070 0.961 . S
H1085 C1071 0.958 . S
H1086 C1071 0.961 . S
H1087 C1071 0.960 . S
C1088 C1089 1.391 . S
C1088 C1090 1.394 . S
C1088 H1104 0.931 . S
C1089 C1088 1.391 . S
C1089 C1093 1.376 . S
C1090 C1088 1.394 . S
C1090 C1091 1.369 . S
C1090 C1094 1.531 1_455 S
C1091 C1090 1.369 . S
C1091 C1092 1.410 . S
C1091 C1099 1.503 1_455 S
C1092 C1091 1.410 . S
C1092 C1093 1.392 . S
C1092 C1095 1.511 . S
C1093 C1089 1.376 . S
C1093 C1092 1.392 . S
C1093 H1105 0.929 . S
C1094 C1090 1.531 1_655 S
C1094 H1106 0.960 . S
C1094 H1107 0.962 . S
C1094 H1108 0.960 . S
C1095 C1092 1.511 . S
C1095 H1109 0.961 . S
C1095 H1110 0.961 . S
C1095 H1111 0.961 . S
C1096 C1097 1.370 . S
C1096 C1098 1.363 . S
C1096 H1112 0.931 . S
C1097 C1096 1.370 . S
C1097 C1101 1.408 . S
C1098 C1096 1.363 . S
C1098 C1099 1.370 . S
C1098 C1102 1.524 1_655 S
C1099 C1091 1.503 1_655 S
C1099 C1098 1.370 . S
C1099 C1100 1.403 . S
C1100 C1099 1.403 . S
C1100 C1101 1.404 . S
C1100 C1103 1.539 . S
C1101 C1097 1.408 . S
C1101 C1100 1.404 . S
C1101 H1113 0.930 . S
C1102 C1098 1.524 1_455 S
C1102 H1114 0.956 . S
C1102 H1115 0.961 . S
C1102 H1116 0.961 . S
C1103 C1100 1.539 . S
C1103 H1117 0.958 . S
C1103 H1118 0.961 . S
C1103 H1119 0.960 . S
H1104 C1088 0.931 . S
H1105 C1093 0.929 . S
H1106 C1094 0.960 . S
H1107 C1094 0.962 . S
H1108 C1094 0.960 . S
H1109 C1095 0.961 . S
H1110 C1095 0.961 . S
H1111 C1095 0.961 . S
H1112 C1096 0.931 . S
H1113 C1101 0.930 . S
H1114 C1102 0.956 . S
H1115 C1102 0.961 . S
H1116 C1102 0.961 . S
H1117 C1103 0.958 . S
H1118 C1103 0.961 . S
H1119 C1103 0.960 . S
C1120 C1121 1.391 . S
C1120 C1122 1.394 . S
C1120 H1136 0.931 . S
C1121 C1120 1.391 . S
C1121 C1125 1.376 . S
C1122 C1120 1.394 . S
C1122 C1123 1.369 . S
C1122 C1126 1.531 1_565 S
C1123 C1122 1.369 . S
C1123 C1124 1.410 . S
C1123 C1131 1.503 1_565 S
C1124 C1123 1.410 . S
C1124 C1125 1.392 . S
C1124 C1127 1.511 . S
C1125 C1121 1.376 . S
C1125 C1124 1.392 . S
C1125 H1137 0.929 . S
C1126 C1122 1.531 1_545 S
C1126 H1138 0.960 . S
C1126 H1139 0.962 . S
C1126 H1140 0.960 . S
C1127 C1124 1.511 . S
C1127 H1141 0.961 . S
C1127 H1142 0.961 . S
C1127 H1143 0.961 . S
C1128 C1129 1.370 . S
C1128 C1130 1.363 . S
C1128 H1144 0.931 . S
C1129 C1128 1.370 . S
C1129 C1133 1.408 . S
C1130 C1128 1.363 . S
C1130 C1131 1.370 . S
C1130 C1134 1.524 1_545 S
C1131 C1123 1.503 1_545 S
C1131 C1130 1.370 . S
C1131 C1132 1.403 . S
C1132 C1131 1.403 . S
C1132 C1133 1.404 . S
C1132 C1135 1.539 . S
C1133 C1129 1.408 . S
C1133 C1132 1.404 . S
C1133 H1145 0.930 . S
C1134 C1130 1.524 1_565 S
C1134 H1146 0.956 . S
C1134 H1147 0.961 . S
C1134 H1148 0.961 . S
C1135 C1132 1.539 . S
C1135 H1149 0.958 . S
C1135 H1150 0.961 . S
C1135 H1151 0.960 . S
H1136 C1120 0.931 . S
H1137 C1125 0.929 . S
H1138 C1126 0.960 . S
H1139 C1126 0.962 . S
H1140 C1126 0.960 . S
H1141 C1127 0.961 . S
H1142 C1127 0.961 . S
H1143 C1127 0.961 . S
H1144 C1128 0.931 . S
H1145 C1133 0.930 . S
H1146 C1134 0.956 . S
H1147 C1134 0.961 . S
H1148 C1134 0.961 . S
H1149 C1135 0.958 . S
H1150 C1135 0.961 . S
H1151 C1135 0.960 . S
C1152 C1153 1.391 . S
C1152 C1154 1.394 . S
C1152 H1168 0.931 . S
C1153 C1152 1.391 . S
C1153 C1157 1.376 . S
C1154 C1152 1.394 . S
C1154 C1155 1.369 . S
C1154 C1158 1.531 . S
C1155 C1154 1.369 . S
C1155 C1156 1.410 . S
C1155 C1163 1.503 . S
C1156 C1155 1.410 . S
C1156 C1157 1.392 . S
C1156 C1159 1.511 . S
C1157 C1153 1.376 . S
C1157 C1156 1.392 . S
C1157 H1169 0.929 . S
C1158 C1154 1.531 . S
C1158 H1170 0.960 . S
C1158 H1171 0.962 . S
C1158 H1172 0.960 . S
C1159 C1156 1.511 . S
C1159 H1173 0.961 . S
C1159 H1174 0.961 . S
C1159 H1175 0.961 . S
C1160 C1161 1.370 . S
C1160 C1162 1.363 . S
C1160 H1176 0.931 . S
C1161 C1160 1.370 . S
C1161 C1165 1.408 . S
C1162 C1160 1.363 . S
C1162 C1163 1.370 . S
C1162 C1166 1.524 . S
C1163 C1155 1.503 . S
C1163 C1162 1.370 . S
C1163 C1164 1.403 . S
C1164 C1163 1.403 . S
C1164 C1165 1.404 . S
C1164 C1167 1.539 . S
C1165 C1161 1.408 . S
C1165 C1164 1.404 . S
C1165 H1177 0.930 . S
C1166 C1162 1.524 . S
C1166 H1178 0.956 . S
C1166 H1179 0.961 . S
C1166 H1180 0.961 . S
C1167 C1164 1.539 . S
C1167 H1181 0.958 . S
C1167 H1182 0.961 . S
C1167 H1183 0.960 . S
H1168 C1152 0.931 . S
H1169 C1157 0.929 . S
H1170 C1158 0.960 . S
H1171 C1158 0.962 . S
H1172 C1158 0.960 . S
H1173 C1159 0.961 . S
H1174 C1159 0.961 . S
H1175 C1159 0.961 . S
H1176 C1160 0.931 . S
H1177 C1165 0.930 . S
H1178 C1166 0.956 . S
H1179 C1166 0.961 . S
H1180 C1166 0.961 . S
H1181 C1167 0.958 . S
H1182 C1167 0.961 . S
H1183 C1167 0.960 . S
C1184 C1185 1.391 . S
C1184 C1186 1.394 . S
C1184 H1200 0.931 . S
C1185 C1184 1.391 . S
C1185 C1189 1.376 . S
C1186 C1184 1.394 . S
C1186 C1187 1.369 . S
C1186 C1190 1.531 . S
C1187 C1186 1.369 . S
C1187 C1188 1.410 . S
C1187 C1195 1.503 1_455 S
C1188 C1187 1.410 . S
C1188 C1189 1.392 . S
C1188 C1191 1.511 . S
C1189 C1185 1.376 . S
C1189 C1188 1.392 . S
C1189 H1201 0.929 . S
C1190 C1186 1.531 . S
C1190 H1202 0.960 1_455 S
C1190 H1203 0.962 1_455 S
C1190 H1204 0.960 . S
C1191 C1188 1.511 . S
C1191 H1205 0.961 . S
C1191 H1206 0.961 . S
C1191 H1207 0.961 . S
C1192 C1193 1.370 . S
C1192 C1194 1.363 . S
C1192 H1208 0.931 . S
C1193 C1192 1.370 . S
C1193 C1197 1.408 . S
C1194 C1192 1.363 . S
C1194 C1195 1.370 . S
C1194 C1198 1.524 . S
C1195 C1187 1.503 1_655 S
C1195 C1194 1.370 . S
C1195 C1196 1.403 . S
C1196 C1195 1.403 . S
C1196 C1197 1.404 . S
C1196 C1199 1.539 1_655 S
C1197 C1193 1.408 . S
C1197 C1196 1.404 . S
C1197 H1209 0.930 . S
C1198 C1194 1.524 . S
C1198 H1210 0.956 . S
C1198 H1211 0.961 . S
C1198 H1212 0.961 . S
C1199 C1196 1.539 1_455 S
C1199 H1213 0.958 . S
C1199 H1214 0.961 . S
C1199 H1215 0.960 . S
H1200 C1184 0.931 . S
H1201 C1189 0.929 . S
H1202 C1190 0.960 1_655 S
H1203 C1190 0.962 1_655 S
H1204 C1190 0.960 . S
H1205 C1191 0.961 . S
H1206 C1191 0.961 . S
H1207 C1191 0.961 . S
H1208 C1192 0.931 . S
H1209 C1197 0.930 . S
H1210 C1198 0.956 . S
H1211 C1198 0.961 . S
H1212 C1198 0.961 . S
H1213 C1199 0.958 . S
H1214 C1199 0.961 . S
H1215 C1199 0.960 . S
C1216 C1217 1.391 . S
C1216 C1218 1.394 . S
C1216 H1232 0.931 . S
C1217 C1216 1.391 . S
C1217 C1221 1.376 . S
C1218 C1216 1.394 . S
C1218 C1219 1.369 . S
C1218 C1222 1.531 1_556 S
C1219 C1218 1.369 . S
C1219 C1220 1.410 . S
C1219 C1227 1.503 1_546 S
C1220 C1219 1.410 . S
C1220 C1221 1.392 . S
C1220 C1223 1.511 . S
C1221 C1217 1.376 . S
C1221 C1220 1.392 . S
C1221 H1233 0.929 . S
C1222 C1218 1.531 1_554 S
C1222 H1234 0.960 . S
C1222 H1235 0.962 . S
C1222 H1236 0.960 . S
C1223 C1220 1.511 . S
C1223 H1237 0.961 . S
C1223 H1238 0.961 1_545 S
C1223 H1239 0.961 . S
C1224 C1225 1.370 . S
C1224 C1226 1.363 . S
C1224 H1240 0.931 . S
C1225 C1224 1.370 . S
C1225 C1229 1.408 . S
C1226 C1224 1.363 . S
C1226 C1227 1.370 . S
C1226 C1230 1.524 1_554 S
C1227 C1219 1.503 1_564 S
C1227 C1226 1.370 . S
C1227 C1228 1.403 . S
C1228 C1227 1.403 . S
C1228 C1229 1.404 . S
C1228 C1231 1.539 1_565 S
C1229 C1225 1.408 . S
C1229 C1228 1.404 . S
C1229 H1241 0.930 . S
C1230 C1226 1.524 1_556 S
C1230 H1242 0.956 . S
C1230 H1243 0.961 . S
C1230 H1244 0.961 . S
C1231 C1228 1.539 1_545 S
C1231 H1245 0.958 . S
C1231 H1246 0.961 . S
C1231 H1247 0.960 . S
H1232 C1216 0.931 . S
H1233 C1221 0.929 . S
H1234 C1222 0.960 . S
H1235 C1222 0.962 . S
H1236 C1222 0.960 . S
H1237 C1223 0.961 . S
H1238 C1223 0.961 1_565 S
H1239 C1223 0.961 . S
H1240 C1224 0.931 . S
H1241 C1229 0.930 . S
H1242 C1230 0.956 . S
H1243 C1230 0.961 . S
H1244 C1230 0.961 . S
H1245 C1231 0.958 . S
H1246 C1231 0.961 . S
H1247 C1231 0.960 . S
C1248 C1249 1.391 . S
C1248 C1250 1.394 . S
C1248 H1264 0.931 . S
C1249 C1248 1.391 . S
C1249 C1253 1.376 . S
C1250 C1248 1.394 . S
C1250 C1251 1.369 . S
C1250 C1254 1.531 . S
C1251 C1250 1.369 . S
C1251 C1252 1.410 . S
C1251 C1259 1.503 . S
C1252 C1251 1.410 . S
C1252 C1253 1.392 . S
C1252 C1255 1.511 . S
C1253 C1249 1.376 . S
C1253 C1252 1.392 . S
C1253 H1265 0.929 . S
C1254 C1250 1.531 . S
C1254 H1266 0.960 . S
C1254 H1267 0.962 . S
C1254 H1268 0.960 . S
C1255 C1252 1.511 . S
C1255 H1269 0.961 . S
C1255 H1270 0.961 . S
C1255 H1271 0.961 . S
C1256 C1257 1.370 . S
C1256 C1258 1.363 . S
C1256 H1272 0.931 . S
C1257 C1256 1.370 . S
C1257 C1261 1.408 . S
C1258 C1256 1.363 . S
C1258 C1259 1.370 . S
C1258 C1262 1.524 . S
C1259 C1251 1.503 . S
C1259 C1258 1.370 . S
C1259 C1260 1.403 . S
C1260 C1259 1.403 . S
C1260 C1261 1.404 . S
C1260 C1263 1.539 . S
C1261 C1257 1.408 . S
C1261 C1260 1.404 . S
C1261 H1273 0.930 . S
C1262 C1258 1.524 . S
C1262 H1274 0.956 . S
C1262 H1275 0.961 . S
C1262 H1276 0.961 . S
C1263 C1260 1.539 . S
C1263 H1277 0.958 . S
C1263 H1278 0.961 . S
C1263 H1279 0.960 . S
H1264 C1248 0.931 . S
H1265 C1253 0.929 . S
H1266 C1254 0.960 . S
H1267 C1254 0.962 . S
H1268 C1254 0.960 . S
H1269 C1255 0.961 . S
H1270 C1255 0.961 . S
H1271 C1255 0.961 . S
H1272 C1256 0.931 . S
H1273 C1261 0.930 . S
H1274 C1262 0.956 . S
H1275 C1262 0.961 . S
H1276 C1262 0.961 . S
H1277 C1263 0.958 . S
H1278 C1263 0.961 . S
H1279 C1263 0.960 . S
C1280 C1281 1.391 . S
C1280 C1282 1.394 . S
C1280 H1296 0.931 . S
C1281 C1280 1.391 . S
C1281 C1285 1.376 . S
C1282 C1280 1.394 . S
C1282 C1283 1.369 . S
C1282 C1286 1.531 . S
C1283 C1282 1.369 . S
C1283 C1284 1.410 . S
C1283 C1291 1.503 . S
C1284 C1283 1.410 . S
C1284 C1285 1.392 . S
C1284 C1287 1.511 . S
C1285 C1281 1.376 . S
C1285 C1284 1.392 . S
C1285 H1297 0.929 . S
C1286 C1282 1.531 . S
C1286 H1298 0.960 . S
C1286 H1299 0.962 . S
C1286 H1300 0.960 . S
C1287 C1284 1.511 . S
C1287 H1301 0.961 . S
C1287 H1302 0.961 . S
C1287 H1303 0.961 . S
C1288 C1289 1.370 . S
C1288 C1290 1.363 . S
C1288 H1304 0.931 . S
C1289 C1288 1.370 . S
C1289 C1293 1.408 . S
C1290 C1288 1.363 . S
C1290 C1291 1.370 . S
C1290 C1294 1.524 . S
C1291 C1283 1.503 . S
C1291 C1290 1.370 . S
C1291 C1292 1.403 . S
C1292 C1291 1.403 . S
C1292 C1293 1.404 . S
C1292 C1295 1.539 . S
C1293 C1289 1.408 . S
C1293 C1292 1.404 . S
C1293 H1305 0.930 . S
C1294 C1290 1.524 . S
C1294 H1306 0.956 . S
C1294 H1307 0.961 . S
C1294 H1308 0.961 . S
C1295 C1292 1.539 . S
C1295 H1309 0.958 . S
C1295 H1310 0.961 . S
C1295 H1311 0.960 . S
H1296 C1280 0.931 . S
H1297 C1285 0.929 . S
H1298 C1286 0.960 . S
H1299 C1286 0.962 . S
H1300 C1286 0.960 . S
H1301 C1287 0.961 . S
H1302 C1287 0.961 . S
H1303 C1287 0.961 . S
H1304 C1288 0.931 . S
H1305 C1293 0.930 . S
H1306 C1294 0.956 . S
H1307 C1294 0.961 . S
H1308 C1294 0.961 . S
H1309 C1295 0.958 . S
H1310 C1295 0.961 . S
H1311 C1295 0.960 . S
C1312 C1313 1.391 . S
C1312 C1314 1.394 . S
C1312 H1328 0.931 . S
C1313 C1312 1.391 . S
C1313 C1317 1.376 . S
C1314 C1312 1.394 . S
C1314 C1315 1.369 . S
C1314 C1318 1.531 . S
C1315 C1314 1.369 . S
C1315 C1316 1.410 . S
C1315 C1323 1.503 . S
C1316 C1315 1.410 . S
C1316 C1317 1.392 . S
C1316 C1319 1.511 . S
C1317 C1313 1.376 . S
C1317 C1316 1.392 . S
C1317 H1329 0.929 . S
C1318 C1314 1.531 . S
C1318 H1330 0.960 . S
C1318 H1331 0.962 . S
C1318 H1332 0.960 . S
C1319 C1316 1.511 . S
C1319 H1333 0.961 . S
C1319 H1334 0.961 . S
C1319 H1335 0.961 . S
C1320 C1321 1.370 . S
C1320 C1322 1.363 . S
C1320 H1336 0.931 . S
C1321 C1320 1.370 . S
C1321 C1325 1.408 . S
C1322 C1320 1.363 . S
C1322 C1323 1.370 . S
C1322 C1326 1.524 . S
C1323 C1315 1.503 . S
C1323 C1322 1.370 . S
C1323 C1324 1.403 . S
C1324 C1323 1.403 . S
C1324 C1325 1.404 . S
C1324 C1327 1.539 . S
C1325 C1321 1.408 . S
C1325 C1324 1.404 . S
C1325 H1337 0.930 . S
C1326 C1322 1.524 . S
C1326 H1338 0.956 . S
C1326 H1339 0.961 . S
C1326 H1340 0.961 . S
C1327 C1324 1.539 . S
C1327 H1341 0.958 . S
C1327 H1342 0.961 . S
C1327 H1343 0.960 . S
H1328 C1312 0.931 . S
H1329 C1317 0.929 . S
H1330 C1318 0.960 . S
H1331 C1318 0.962 . S
H1332 C1318 0.960 . S
H1333 C1319 0.961 . S
H1334 C1319 0.961 . S
H1335 C1319 0.961 . S
H1336 C1320 0.931 . S
H1337 C1325 0.930 . S
H1338 C1326 0.956 . S
H1339 C1326 0.961 . S
H1340 C1326 0.961 . S
H1341 C1327 0.958 . S
H1342 C1327 0.961 . S
H1343 C1327 0.960 . S
C1344 C1345 1.391 . S
C1344 C1346 1.394 . S
C1344 H1360 0.931 . S
C1345 C1344 1.391 . S
C1345 C1349 1.376 . S
C1346 C1344 1.394 . S
C1346 C1347 1.369 . S
C1346 C1350 1.531 . S
C1347 C1346 1.369 . S
C1347 C1348 1.410 . S
C1347 C1355 1.503 . S
C1348 C1347 1.410 . S
C1348 C1349 1.392 . S
C1348 C1351 1.511 . S
C1349 C1345 1.376 . S
C1349 C1348 1.392 . S
C1349 H1361 0.929 . S
C1350 C1346 1.531 . S
C1350 H1362 0.960 . S
C1350 H1363 0.962 . S
C1350 H1364 0.960 1_556 S
C1351 C1348 1.511 . S
C1351 H1365 0.961 . S
C1351 H1366 0.961 . S
C1351 H1367 0.961 . S
C1352 C1353 1.370 . S
C1352 C1354 1.363 . S
C1352 H1368 0.931 . S
C1353 C1352 1.370 . S
C1353 C1357 1.408 . S
C1354 C1352 1.363 . S
C1354 C1355 1.370 . S
C1354 C1358 1.524 . S
C1355 C1347 1.503 . S
C1355 C1354 1.370 . S
C1355 C1356 1.403 . S
C1356 C1355 1.403 . S
C1356 C1357 1.404 . S
C1356 C1359 1.539 . S
C1357 C1353 1.408 . S
C1357 C1356 1.404 . S
C1357 H1369 0.930 . S
C1358 C1354 1.524 . S
C1358 H1370 0.956 . S
C1358 H1371 0.961 . S
C1358 H1372 0.961 . S
C1359 C1356 1.539 . S
C1359 H1373 0.958 . S
C1359 H1374 0.961 . S
C1359 H1375 0.960 . S
H1360 C1344 0.931 . S
H1361 C1349 0.929 . S
H1362 C1350 0.960 . S
H1363 C1350 0.962 . S
H1364 C1350 0.960 1_554 S
H1365 C1351 0.961 . S
H1366 C1351 0.961 . S
H1367 C1351 0.961 . S
H1368 C1352 0.931 . S
H1369 C1357 0.930 . S
H1370 C1358 0.956 . S
H1371 C1358 0.961 . S
H1372 C1358 0.961 . S
H1373 C1359 0.958 . S
H1374 C1359 0.961 . S
H1375 C1359 0.960 . S
C1376 C1377 1.391 . S
C1376 C1378 1.394 . S
C1376 H1392 0.931 . S
C1377 C1376 1.391 . S
C1377 C1381 1.376 . S
C1378 C1376 1.394 . S
C1378 C1379 1.369 . S
C1378 C1382 1.531 . S
C1379 C1378 1.369 . S
C1379 C1380 1.410 . S
C1379 C1387 1.503 . S
C1380 C1379 1.410 . S
C1380 C1381 1.392 . S
C1380 C1383 1.511 . S
C1381 C1377 1.376 . S
C1381 C1380 1.392 . S
C1381 H1393 0.929 . S
C1382 C1378 1.531 . S
C1382 H1394 0.960 . S
C1382 H1395 0.962 . S
C1382 H1396 0.960 . S
C1383 C1380 1.511 . S
C1383 H1397 0.961 . S
C1383 H1398 0.961 . S
C1383 H1399 0.961 . S
C1384 C1385 1.370 . S
C1384 C1386 1.363 . S
C1384 H1400 0.931 . S
C1385 C1384 1.370 . S
C1385 C1389 1.408 . S
C1386 C1384 1.363 . S
C1386 C1387 1.370 . S
C1386 C1390 1.524 . S
C1387 C1379 1.503 . S
C1387 C1386 1.370 . S
C1387 C1388 1.403 . S
C1388 C1387 1.403 . S
C1388 C1389 1.404 . S
C1388 C1391 1.539 . S
C1389 C1385 1.408 . S
C1389 C1388 1.404 . S
C1389 H1401 0.930 . S
C1390 C1386 1.524 . S
C1390 H1402 0.956 . S
C1390 H1403 0.961 . S
C1390 H1404 0.961 . S
C1391 C1388 1.539 . S
C1391 H1405 0.958 1_554 S
C1391 H1406 0.961 1_554 S
C1391 H1407 0.960 . S
H1392 C1376 0.931 . S
H1393 C1381 0.929 . S
H1394 C1382 0.960 . S
H1395 C1382 0.962 . S
H1396 C1382 0.960 . S
H1397 C1383 0.961 . S
H1398 C1383 0.961 . S
H1399 C1383 0.961 . S
H1400 C1384 0.931 . S
H1401 C1389 0.930 . S
H1402 C1390 0.956 . S
H1403 C1390 0.961 . S
H1404 C1390 0.961 . S
H1405 C1391 0.958 1_556 S
H1406 C1391 0.961 1_556 S
H1407 C1391 0.960 . S
C1408 C1409 1.391 . S
C1408 C1410 1.394 . S
C1408 H1424 0.931 . S
C1409 C1408 1.391 . S
C1409 C1413 1.376 . S
C1410 C1408 1.394 . S
C1410 C1411 1.369 . S
C1410 C1414 1.531 . S
C1411 C1410 1.369 . S
C1411 C1412 1.410 . S
C1411 C1419 1.503 . S
C1412 C1411 1.410 . S
C1412 C1413 1.392 . S
C1412 C1415 1.511 . S
C1413 C1409 1.376 . S
C1413 C1412 1.392 . S
C1413 H1425 0.929 . S
C1414 C1410 1.531 . S
C1414 H1426 0.960 . S
C1414 H1427 0.962 . S
C1414 H1428 0.960 . S
C1415 C1412 1.511 . S
C1415 H1429 0.961 . S
C1415 H1430 0.961 . S
C1415 H1431 0.961 . S
C1416 C1417 1.370 . S
C1416 C1418 1.363 . S
C1416 H1432 0.931 . S
C1417 C1416 1.370 . S
C1417 C1421 1.408 . S
C1418 C1416 1.363 . S
C1418 C1419 1.370 . S
C1418 C1422 1.524 . S
C1419 C1411 1.503 . S
C1419 C1418 1.370 . S
C1419 C1420 1.403 . S
C1420 C1419 1.403 . S
C1420 C1421 1.404 . S
C1420 C1423 1.539 . S
C1421 C1417 1.408 . S
C1421 C1420 1.404 . S
C1421 H1433 0.930 . S
C1422 C1418 1.524 . S
C1422 H1434 0.956 . S
C1422 H1435 0.961 . S
C1422 H1436 0.961 . S
C1423 C1420 1.539 . S
C1423 H1437 0.958 . S
C1423 H1438 0.961 . S
C1423 H1439 0.960 . S
H1424 C1408 0.931 . S
H1425 C1413 0.929 . S
H1426 C1414 0.960 . S
H1427 C1414 0.962 . S
H1428 C1414 0.960 . S
H1429 C1415 0.961 . S
H1430 C1415 0.961 . S
H1431 C1415 0.961 . S
H1432 C1416 0.931 . S
H1433 C1421 0.930 . S
H1434 C1422 0.956 . S
H1435 C1422 0.961 . S
H1436 C1422 0.961 . S
H1437 C1423 0.958 . S
H1438 C1423 0.961 . S
H1439 C1423 0.960 . S
C1440 C1441 1.391 . S
C1440 C1442 1.394 . S
C1440 H1456 0.931 . S
C1441 C1440 1.391 . S
C1441 C1445 1.376 . S
C1442 C1440 1.394 . S
C1442 C1443 1.369 . S
C1442 C1446 1.531 . S
C1443 C1442 1.369 . S
C1443 C1444 1.410 . S
C1443 C1451 1.503 . S
C1444 C1443 1.410 . S
C1444 C1445 1.392 . S
C1444 C1447 1.511 . S
C1445 C1441 1.376 . S
C1445 C1444 1.392 . S
C1445 H1457 0.929 . S
C1446 C1442 1.531 . S
C1446 H1458 0.960 . S
C1446 H1459 0.962 . S
C1446 H1460 0.960 . S
C1447 C1444 1.511 . S
C1447 H1461 0.961 . S
C1447 H1462 0.961 . S
C1447 H1463 0.961 . S
C1448 C1449 1.370 . S
C1448 C1450 1.363 . S
C1448 H1464 0.931 . S
C1449 C1448 1.370 . S
C1449 C1453 1.408 . S
C1450 C1448 1.363 . S
C1450 C1451 1.370 . S
C1450 C1454 1.524 . S
C1451 C1443 1.503 . S
C1451 C1450 1.370 . S
C1451 C1452 1.403 . S
C1452 C1451 1.403 . S
C1452 C1453 1.404 . S
C1452 C1455 1.539 . S
C1453 C1449 1.408 . S
C1453 C1452 1.404 . S
C1453 H1465 0.930 . S
C1454 C1450 1.524 . S
C1454 H1466 0.956 . S
C1454 H1467 0.961 . S
C1454 H1468 0.961 . S
C1455 C1452 1.539 . S
C1455 H1469 0.958 . S
C1455 H1470 0.961 . S
C1455 H1471 0.960 . S
H1456 C1440 0.931 . S
H1457 C1445 0.929 . S
H1458 C1446 0.960 . S
H1459 C1446 0.962 . S
H1460 C1446 0.960 . S
H1461 C1447 0.961 . S
H1462 C1447 0.961 . S
H1463 C1447 0.961 . S
H1464 C1448 0.931 . S
H1465 C1453 0.930 . S
H1466 C1454 0.956 . S
H1467 C1454 0.961 . S
H1468 C1454 0.961 . S
H1469 C1455 0.958 . S
H1470 C1455 0.961 . S
H1471 C1455 0.960 . S
C1472 C1473 1.391 . S
C1472 C1474 1.394 . S
C1472 H1488 0.931 . S
C1473 C1472 1.391 . S
C1473 C1477 1.376 . S
C1474 C1472 1.394 . S
C1474 C1475 1.369 . S
C1474 C1478 1.531 . S
C1475 C1474 1.369 . S
C1475 C1476 1.410 . S
C1475 C1483 1.503 1_655 S
C1476 C1475 1.410 . S
C1476 C1477 1.392 . S
C1476 C1479 1.511 1_655 S
C1477 C1473 1.376 . S
C1477 C1476 1.392 . S
C1477 H1489 0.929 . S
C1478 C1474 1.531 . S
C1478 H1490 0.960 . S
C1478 H1491 0.962 . S
C1478 H1492 0.960 . S
C1479 C1476 1.511 1_455 S
C1479 H1493 0.961 . S
C1479 H1494 0.961 . S
C1479 H1495 0.961 . S
C1480 C1481 1.370 . S
C1480 C1482 1.363 . S
C1480 H1496 0.931 . S
C1481 C1480 1.370 . S
C1481 C1485 1.408 . S
C1482 C1480 1.363 . S
C1482 C1483 1.370 . S
C1482 C1486 1.524 1_455 S
C1483 C1475 1.503 1_455 S
C1483 C1482 1.370 . S
C1483 C1484 1.403 . S
C1484 C1483 1.403 . S
C1484 C1485 1.404 . S
C1484 C1487 1.539 . S
C1485 C1481 1.408 . S
C1485 C1484 1.404 . S
C1485 H1497 0.930 . S
C1486 C1482 1.524 1_655 S
C1486 H1498 0.956 . S
C1486 H1499 0.961 . S
C1486 H1500 0.961 . S
C1487 C1484 1.539 . S
C1487 H1501 0.958 . S
C1487 H1502 0.961 . S
C1487 H1503 0.960 . S
H1488 C1472 0.931 . S
H1489 C1477 0.929 . S
H1490 C1478 0.960 . S
H1491 C1478 0.962 . S
H1492 C1478 0.960 . S
H1493 C1479 0.961 . S
H1494 C1479 0.961 . S
H1495 C1479 0.961 . S
H1496 C1480 0.931 . S
H1497 C1485 0.930 . S
H1498 C1486 0.956 . S
H1499 C1486 0.961 . S
H1500 C1486 0.961 . S
H1501 C1487 0.958 . S
H1502 C1487 0.961 . S
H1503 C1487 0.960 . S
C1504 C1505 1.391 . S
C1504 C1506 1.394 . S
C1504 H1520 0.931 . S
C1505 C1504 1.391 . S
C1505 C1509 1.376 . S
C1506 C1504 1.394 . S
C1506 C1507 1.369 . S
C1506 C1510 1.531 1_554 S
C1507 C1506 1.369 . S
C1507 C1508 1.406 . S
C1507 C1515 1.503 1_564 S
C1508 C1507 1.406 . S
C1508 C1509 1.406 . S
C1508 C1511 1.502 1_565 S
C1509 C1505 1.376 . S
C1509 C1508 1.406 . S
C1509 H1521 0.929 . S
C1510 C1506 1.531 1_556 S
C1510 H1522 0.960 . S
C1510 H1523 0.962 . S
C1510 H1524 0.959 1_556 S
C1511 C1508 1.502 1_545 S
C1511 H1525 0.961 . S
C1511 H1526 0.961 . S
C1511 H1527 0.961 . S
C1512 C1513 1.370 . S
C1512 C1514 1.363 . S
C1512 H1528 0.931 . S
C1513 C1512 1.370 . S
C1513 C1517 1.408 . S
C1514 C1512 1.363 . S
C1514 C1515 1.370 . S
C1514 C1518 1.524 1_545 S
C1515 C1507 1.503 1_546 S
C1515 C1514 1.370 . S
C1515 C1516 1.403 . S
C1516 C1515 1.403 . S
C1516 C1517 1.404 . S
C1516 C1519 1.539 1_556 S
C1517 C1513 1.408 . S
C1517 C1516 1.404 . S
C1517 H1529 0.930 . S
C1518 C1514 1.524 1_565 S
C1518 H1530 0.956 . S
C1518 H1531 0.961 . S
C1518 H1532 0.961 . S
C1519 C1516 1.539 1_554 S
C1519 H1533 0.958 . S
C1519 H1534 0.961 . S
C1519 H1535 0.960 . S
H1520 C1504 0.931 . S
H1521 C1509 0.929 . S
H1522 C1510 0.960 . S
H1523 C1510 0.962 . S
H1524 C1510 0.959 1_554 S
H1525 C1511 0.961 . S
H1526 C1511 0.961 . S
H1527 C1511 0.961 . S
H1528 C1512 0.931 . S
H1529 C1517 0.930 . S
H1530 C1518 0.956 . S
H1531 C1518 0.961 . S
H1532 C1518 0.961 . S
H1533 C1519 0.958 . S
H1534 C1519 0.961 . S
H1535 C1519 0.960 . S
C1536 C1537 1.391 . S
C1536 C1538 1.394 . S
C1536 H1552 0.931 . S
C1537 C1536 1.391 . S
C1537 C1541 1.376 . S
C1538 C1536 1.394 . S
C1538 C1539 1.369 . S
C1538 C1542 1.531 . S
C1539 C1538 1.369 . S
C1539 C1540 1.410 . S
C1539 C1547 1.503 . S
C1540 C1539 1.410 . S
C1540 C1541 1.392 . S
C1540 C1543 1.511 . S
C1541 C1537 1.376 . S
C1541 C1540 1.392 . S
C1541 H1553 0.929 . S
C1542 C1538 1.531 . S
C1542 H1554 0.960 . S
C1542 H1555 0.962 . S
C1542 H1556 0.960 . S
C1543 C1540 1.511 . S
C1543 H1557 0.961 . S
C1543 H1558 0.961 . S
C1543 H1559 0.961 . S
C1544 C1545 1.370 . S
C1544 C1546 1.363 . S
C1544 H1560 0.931 . S
C1545 C1544 1.370 . S
C1545 C1549 1.408 . S
C1546 C1544 1.363 . S
C1546 C1547 1.370 . S
C1546 C1550 1.524 . S
C1547 C1539 1.503 . S
C1547 C1546 1.370 . S
C1547 C1548 1.403 . S
C1548 C1547 1.403 . S
C1548 C1549 1.404 . S
C1548 C1551 1.539 . S
C1549 C1545 1.408 . S
C1549 C1548 1.404 . S
C1549 H1561 0.930 . S
C1550 C1546 1.524 . S
C1550 H1562 0.956 . S
C1550 H1563 0.961 . S
C1550 H1564 0.961 . S
C1551 C1548 1.539 . S
C1551 H1565 0.958 . S
C1551 H1566 0.961 . S
C1551 H1567 0.960 . S
H1552 C1536 0.931 . S
H1553 C1541 0.929 . S
H1554 C1542 0.960 . S
H1555 C1542 0.962 . S
H1556 C1542 0.960 . S
H1557 C1543 0.961 . S
H1558 C1543 0.961 . S
H1559 C1543 0.961 . S
H1560 C1544 0.931 . S
H1561 C1549 0.930 . S
H1562 C1550 0.956 . S
H1563 C1550 0.961 . S
H1564 C1550 0.961 . S
H1565 C1551 0.958 . S
H1566 C1551 0.961 . S
H1567 C1551 0.960 . S
C1568 C1569 1.391 . S
C1568 C1570 1.394 . S
C1568 H1584 0.931 . S
C1569 C1568 1.391 . S
C1569 C1573 1.376 . S
C1570 C1568 1.394 . S
C1570 C1571 1.369 . S
C1570 C1574 1.531 1_455 S
C1571 C1570 1.369 . S
C1571 C1572 1.410 . S
C1571 C1579 1.503 1_455 S
C1572 C1571 1.410 . S
C1572 C1573 1.392 . S
C1572 C1575 1.511 . S
C1573 C1569 1.376 . S
C1573 C1572 1.392 . S
C1573 H1585 0.929 . S
C1574 C1570 1.531 1_655 S
C1574 H1586 0.960 . S
C1574 H1587 0.962 . S
C1574 H1588 0.960 . S
C1575 C1572 1.511 . S
C1575 H1589 0.961 . S
C1575 H1590 0.961 . S
C1575 H1591 0.961 . S
C1576 C1577 1.370 . S
C1576 C1578 1.363 . S
C1576 H1592 0.931 . S
C1577 C1576 1.370 . S
C1577 C1581 1.408 . S
C1578 C1576 1.363 . S
C1578 C1579 1.370 . S
C1578 C1582 1.524 . S
C1579 C1571 1.503 1_655 S
C1579 C1578 1.370 . S
C1579 C1580 1.403 . S
C1580 C1579 1.403 . S
C1580 C1581 1.404 . S
C1580 C1583 1.539 1_655 S
C1581 C1577 1.408 . S
C1581 C1580 1.404 . S
C1581 H1593 0.930 . S
C1582 C1578 1.524 . S
C1582 H1594 0.956 . S
C1582 H1595 0.961 . S
C1582 H1596 0.961 . S
C1583 C1580 1.539 1_455 S
C1583 H1597 0.958 . S
C1583 H1598 0.961 . S
C1583 H1599 0.960 . S
H1584 C1568 0.931 . S
H1585 C1573 0.929 . S
H1586 C1574 0.960 . S
H1587 C1574 0.962 . S
H1588 C1574 0.960 . S
H1589 C1575 0.961 . S
H1590 C1575 0.961 . S
H1591 C1575 0.961 . S
H1592 C1576 0.931 . S
H1593 C1581 0.930 . S
H1594 C1582 0.956 . S
H1595 C1582 0.961 . S
H1596 C1582 0.961 . S
H1597 C1583 0.958 . S
H1598 C1583 0.961 . S
H1599 C1583 0.960 . S
C1600 C1601 1.391 . S
C1600 C1602 1.394 . S
C1600 H1616 0.931 . S
C1601 C1600 1.391 . S
C1601 C1605 1.376 . S
C1602 C1600 1.394 . S
C1602 C1603 1.369 . S
C1602 C1606 1.531 . S
C1603 C1602 1.369 . S
C1603 C1604 1.410 1_565 S
C1603 C1611 1.503 1_565 S
C1604 C1603 1.410 1_545 S
C1604 C1605 1.392 1_545 S
C1604 C1607 1.511 . S
C1605 C1601 1.376 . S
C1605 C1604 1.392 1_565 S
C1605 H1617 0.929 . S
C1606 C1602 1.531 . S
C1606 H1618 0.960 . S
C1606 H1619 0.962 . S
C1606 H1620 0.960 . S
C1607 C1604 1.511 . S
C1607 H1621 0.961 . S
C1607 H1622 0.961 . S
C1607 H1623 0.961 . S
C1608 C1609 1.370 . S
C1608 C1610 1.363 . S
C1608 H1624 0.931 . S
C1609 C1608 1.370 . S
C1609 C1613 1.408 . S
C1610 C1608 1.363 . S
C1610 C1611 1.370 . S
C1610 C1614 1.524 1_545 S
C1611 C1603 1.503 1_545 S
C1611 C1610 1.370 . S
C1611 C1612 1.403 . S
C1612 C1611 1.403 . S
C1612 C1613 1.404 . S
C1612 C1615 1.539 . S
C1613 C1609 1.408 . S
C1613 C1612 1.404 . S
C1613 H1625 0.930 . S
C1614 C1610 1.524 1_565 S
C1614 H1626 0.956 . S
C1614 H1627 0.961 . S
C1614 H1628 0.961 . S
C1615 C1612 1.539 . S
C1615 H1629 0.958 . S
C1615 H1630 0.961 . S
C1615 H1631 0.960 . S
H1616 C1600 0.931 . S
H1617 C1605 0.929 . S
H1618 C1606 0.960 . S
H1619 C1606 0.962 . S
H1620 C1606 0.960 . S
H1621 C1607 0.961 . S
H1622 C1607 0.961 . S
H1623 C1607 0.961 . S
H1624 C1608 0.931 . S
H1625 C1613 0.930 . S
H1626 C1614 0.956 . S
H1627 C1614 0.961 . S
H1628 C1614 0.961 . S
H1629 C1615 0.958 . S
H1630 C1615 0.961 . S
H1631 C1615 0.960 . S
C1632 C1633 1.391 . S
C1632 C1634 1.394 . S
C1632 H1648 0.931 . S
C1633 C1632 1.391 . S
C1633 C1637 1.376 . S
C1634 C1632 1.394 . S
C1634 C1635 1.369 . S
C1634 C1638 1.531 . S
C1635 C1634 1.369 . S
C1635 C1636 1.410 . S
C1635 C1643 1.503 . S
C1636 C1635 1.410 . S
C1636 C1637 1.392 . S
C1636 C1639 1.511 . S
C1637 C1633 1.376 . S
C1637 C1636 1.392 . S
C1637 H1649 0.929 . S
C1638 C1634 1.531 . S
C1638 H1650 0.960 . S
C1638 H1651 0.962 . S
C1638 H1652 0.960 . S
C1639 C1636 1.511 . S
C1639 H1653 0.961 . S
C1639 H1654 0.961 . S
C1639 H1655 0.961 . S
C1640 C1641 1.370 . S
C1640 C1642 1.363 . S
C1640 H1656 0.931 . S
C1641 C1640 1.370 . S
C1641 C1645 1.408 . S
C1642 C1640 1.363 . S
C1642 C1643 1.370 . S
C1642 C1646 1.524 . S
C1643 C1635 1.503 . S
C1643 C1642 1.370 . S
C1643 C1644 1.403 . S
C1644 C1643 1.403 . S
C1644 C1645 1.404 . S
C1644 C1647 1.539 . S
C1645 C1641 1.408 . S
C1645 C1644 1.404 . S
C1645 H1657 0.930 . S
C1646 C1642 1.524 . S
C1646 H1658 0.956 . S
C1646 H1659 0.961 . S
C1646 H1660 0.961 . S
C1647 C1644 1.539 . S
C1647 H1661 0.958 . S
C1647 H1662 0.961 . S
C1647 H1663 0.960 . S
H1648 C1632 0.931 . S
H1649 C1637 0.929 . S
H1650 C1638 0.960 . S
H1651 C1638 0.962 . S
H1652 C1638 0.960 . S
H1653 C1639 0.961 . S
H1654 C1639 0.961 . S
H1655 C1639 0.961 . S
H1656 C1640 0.931 . S
H1657 C1645 0.930 . S
H1658 C1646 0.956 . S
H1659 C1646 0.961 . S
H1660 C1646 0.961 . S
H1661 C1647 0.958 . S
H1662 C1647 0.961 . S
H1663 C1647 0.960 . S
C1664 C1665 1.391 . S
C1664 C1666 1.394 . S
C1664 H1680 0.931 . S
C1665 C1664 1.391 . S
C1665 C1669 1.376 . S
C1666 C1664 1.394 . S
C1666 C1667 1.369 . S
C1666 C1670 1.531 . S
C1667 C1666 1.369 . S
C1667 C1668 1.410 . S
C1667 C1675 1.503 . S
C1668 C1667 1.410 . S
C1668 C1669 1.392 . S
C1668 C1671 1.511 . S
C1669 C1665 1.376 . S
C1669 C1668 1.392 . S
C1669 H1681 0.929 . S
C1670 C1666 1.531 . S
C1670 H1682 0.960 . S
C1670 H1683 0.962 . S
C1670 H1684 0.960 . S
C1671 C1668 1.511 . S
C1671 H1685 0.961 . S
C1671 H1686 0.961 . S
C1671 H1687 0.961 . S
C1672 C1673 1.370 . S
C1672 C1674 1.363 . S
C1672 H1688 0.931 . S
C1673 C1672 1.370 . S
C1673 C1677 1.408 . S
C1674 C1672 1.363 . S
C1674 C1675 1.370 . S
C1674 C1678 1.524 . S
C1675 C1667 1.503 . S
C1675 C1674 1.370 . S
C1675 C1676 1.403 . S
C1676 C1675 1.403 . S
C1676 C1677 1.404 . S
C1676 C1679 1.539 . S
C1677 C1673 1.408 . S
C1677 C1676 1.404 . S
C1677 H1689 0.930 . S
C1678 C1674 1.524 . S
C1678 H1690 0.956 . S
C1678 H1691 0.961 . S
C1678 H1692 0.961 . S
C1679 C1676 1.539 . S
C1679 H1693 0.958 . S
C1679 H1694 0.961 . S
C1679 H1695 0.960 . S
H1680 C1664 0.931 . S
H1681 C1669 0.929 . S
H1682 C1670 0.960 . S
H1683 C1670 0.962 . S
H1684 C1670 0.960 . S
H1685 C1671 0.961 . S
H1686 C1671 0.961 . S
H1687 C1671 0.961 . S
H1688 C1672 0.931 . S
H1689 C1677 0.930 . S
H1690 C1678 0.956 . S
H1691 C1678 0.961 . S
H1692 C1678 0.961 . S
H1693 C1679 0.958 . S
H1694 C1679 0.961 . S
H1695 C1679 0.960 . S
C1696 C1697 1.391 . S
C1696 C1698 1.394 1_554 S
C1696 H1712 0.931 . S
C1697 C1696 1.391 . S
C1697 C1701 1.376 1_554 S
C1698 C1696 1.394 1_556 S
C1698 C1699 1.369 . S
C1698 C1702 1.531 . S
C1699 C1698 1.369 . S
C1699 C1700 1.410 . S
C1699 C1707 1.503 . S
C1700 C1699 1.410 . S
C1700 C1701 1.392 . S
C1700 C1703 1.511 . S
C1701 C1697 1.376 1_556 S
C1701 C1700 1.392 . S
C1701 H1713 0.929 . S
C1702 C1698 1.531 . S
C1702 H1714 0.960 . S
C1702 H1715 0.962 . S
C1702 H1716 0.958 1_556 S
C1703 C1700 1.511 . S
C1703 H1717 0.961 . S
C1703 H1718 0.961 . S
C1703 H1719 0.961 . S
C1704 C1705 1.370 . S
C1704 C1706 1.363 . S
C1704 H1720 0.931 . S
C1705 C1704 1.370 . S
C1705 C1709 1.408 . S
C1706 C1704 1.363 . S
C1706 C1707 1.370 . S
C1706 C1710 1.524 . S
C1707 C1699 1.503 . S
C1707 C1706 1.370 . S
C1707 C1708 1.403 . S
C1708 C1707 1.403 . S
C1708 C1709 1.404 . S
C1708 C1711 1.539 . S
C1709 C1705 1.408 . S
C1709 C1708 1.404 . S
C1709 H1721 0.930 . S
C1710 C1706 1.524 . S
C1710 H1722 0.956 . S
C1710 H1723 0.961 . S
C1710 H1724 0.961 . S
C1711 C1708 1.539 . S
C1711 H1725 0.958 . S
C1711 H1726 0.961 . S
C1711 H1727 0.960 . S
H1712 C1696 0.931 . S
H1713 C1701 0.929 . S
H1714 C1702 0.960 . S
H1715 C1702 0.962 . S
H1716 C1702 0.958 1_554 S
H1717 C1703 0.961 . S
H1718 C1703 0.961 . S
H1719 C1703 0.961 . S
H1720 C1704 0.931 . S
H1721 C1709 0.930 . S
H1722 C1710 0.956 . S
H1723 C1710 0.961 . S
H1724 C1710 0.961 . S
H1725 C1711 0.958 . S
H1726 C1711 0.961 . S
H1727 C1711 0.960 . S
C1728 C1729 1.391 . S
C1728 C1730 1.394 . S
C1728 H1744 0.931 . S
C1729 C1728 1.391 . S
C1729 C1733 1.376 . S
C1730 C1728 1.394 . S
C1730 C1731 1.369 . S
C1730 C1734 1.531 . S
C1731 C1730 1.369 . S
C1731 C1732 1.410 . S
C1731 C1739 1.503 . S
C1732 C1731 1.410 . S
C1732 C1733 1.392 . S
C1732 C1735 1.511 . S
C1733 C1729 1.376 . S
C1733 C1732 1.392 . S
C1733 H1745 0.929 . S
C1734 C1730 1.531 . S
C1734 H1746 0.960 . S
C1734 H1747 0.962 . S
C1734 H1748 0.960 . S
C1735 C1732 1.511 . S
C1735 H1749 0.961 . S
C1735 H1750 0.961 . S
C1735 H1751 0.961 . S
C1736 C1737 1.370 1_554 S
C1736 C1738 1.363 . S
C1736 H1752 0.931 . S
C1737 C1736 1.370 1_556 S
C1737 C1741 1.408 1_556 S
C1738 C1736 1.363 . S
C1738 C1739 1.370 . S
C1738 C1742 1.524 . S
C1739 C1731 1.503 . S
C1739 C1738 1.370 . S
C1739 C1740 1.403 . S
C1740 C1739 1.403 . S
C1740 C1741 1.404 . S
C1740 C1743 1.539 . S
C1741 C1737 1.408 1_554 S
C1741 C1740 1.404 . S
C1741 H1753 0.930 . S
C1742 C1738 1.524 . S
C1742 H1754 0.956 . S
C1742 H1755 0.961 . S
C1742 H1756 0.961 . S
C1743 C1740 1.539 . S
C1743 H1757 0.958 . S
C1743 H1758 0.961 . S
C1743 H1759 0.960 . S
H1744 C1728 0.931 . S
H1745 C1733 0.929 . S
H1746 C1734 0.960 . S
H1747 C1734 0.962 . S
H1748 C1734 0.960 . S
H1749 C1735 0.961 . S
H1750 C1735 0.961 . S
H1751 C1735 0.961 . S
H1752 C1736 0.931 . S
H1753 C1741 0.930 . S
H1754 C1742 0.956 . S
H1755 C1742 0.961 . S
H1756 C1742 0.961 . S
H1757 C1743 0.958 . S
H1758 C1743 0.961 . S
H1759 C1743 0.960 . S
C1760 C1761 1.391 . S
C1760 C1762 1.394 . S
C1760 H1776 0.931 . S
C1761 C1760 1.391 . S
C1761 C1765 1.376 . S
C1762 C1760 1.394 . S
C1762 C1763 1.369 . S
C1762 C1766 1.531 . S
C1763 C1762 1.369 . S
C1763 C1764 1.410 . S
C1763 C1771 1.503 . S
C1764 C1763 1.410 . S
C1764 C1765 1.392 . S
C1764 C1767 1.511 . S
C1765 C1761 1.376 . S
C1765 C1764 1.392 . S
C1765 H1777 0.929 . S
C1766 C1762 1.531 . S
C1766 H1778 0.960 . S
C1766 H1779 0.962 . S
C1766 H1780 0.960 . S
C1767 C1764 1.511 . S
C1767 H1781 0.961 . S
C1767 H1782 0.961 . S
C1767 H1783 0.961 . S
C1768 C1769 1.370 . S
C1768 C1770 1.363 . S
C1768 H1784 0.931 . S
C1769 C1768 1.370 . S
C1769 C1773 1.408 . S
C1770 C1768 1.363 . S
C1770 C1771 1.370 . S
C1770 C1774 1.524 . S
C1771 C1763 1.503 . S
C1771 C1770 1.370 . S
C1771 C1772 1.403 . S
C1772 C1771 1.403 . S
C1772 C1773 1.404 . S
C1772 C1775 1.539 . S
C1773 C1769 1.408 . S
C1773 C1772 1.404 . S
C1773 H1785 0.930 . S
C1774 C1770 1.524 . S
C1774 H1786 0.956 . S
C1774 H1787 0.961 . S
C1774 H1788 0.961 . S
C1775 C1772 1.539 . S
C1775 H1789 0.958 . S
C1775 H1790 0.961 . S
C1775 H1791 0.960 . S
H1776 C1760 0.931 . S
H1777 C1765 0.929 . S
H1778 C1766 0.960 . S
H1779 C1766 0.962 . S
H1780 C1766 0.960 . S
H1781 C1767 0.961 . S
H1782 C1767 0.961 . S
H1783 C1767 0.961 . S
H1784 C1768 0.931 . S
H1785 C1773 0.930 . S
H1786 C1774 0.956 . S
H1787 C1774 0.961 . S
H1788 C1774 0.961 . S
H1789 C1775 0.958 . S
H1790 C1775 0.961 . S
H1791 C1775 0.960 . S
C1792 C1793 1.391 . S
C1792 C1794 1.394 . S
C1792 H1808 0.931 . S
C1793 C1792 1.391 . S
C1793 C1797 1.376 . S
C1794 C1792 1.394 . S
C1794 C1795 1.369 . S
C1794 C1798 1.531 . S
C1795 C1794 1.369 . S
C1795 C1796 1.410 . S
C1795 C1803 1.503 . S
C1796 C1795 1.410 . S
C1796 C1797 1.392 . S
C1796 C1799 1.511 . S
C1797 C1793 1.376 . S
C1797 C1796 1.392 . S
C1797 H1809 0.929 . S
C1798 C1794 1.531 . S
C1798 H1810 0.960 . S
C1798 H1811 0.962 . S
C1798 H1812 0.960 . S
C1799 C1796 1.511 . S
C1799 H1813 0.961 . S
C1799 H1814 0.961 . S
C1799 H1815 0.961 . S
C1800 C1801 1.370 . S
C1800 C1802 1.363 . S
C1800 H1816 0.931 . S
C1801 C1800 1.370 . S
C1801 C1805 1.408 . S
C1802 C1800 1.363 . S
C1802 C1803 1.370 . S
C1802 C1806 1.524 . S
C1803 C1795 1.503 . S
C1803 C1802 1.370 . S
C1803 C1804 1.403 . S
C1804 C1803 1.403 . S
C1804 C1805 1.404 . S
C1804 C1807 1.539 . S
C1805 C1801 1.408 . S
C1805 C1804 1.404 . S
C1805 H1817 0.930 . S
C1806 C1802 1.524 . S
C1806 H1818 0.956 . S
C1806 H1819 0.961 . S
C1806 H1820 0.961 . S
C1807 C1804 1.539 . S
C1807 H1821 0.958 . S
C1807 H1822 0.961 . S
C1807 H1823 0.960 . S
H1808 C1792 0.931 . S
H1809 C1797 0.929 . S
H1810 C1798 0.960 . S
H1811 C1798 0.962 . S
H1812 C1798 0.960 . S
H1813 C1799 0.961 . S
H1814 C1799 0.961 . S
H1815 C1799 0.961 . S
H1816 C1800 0.931 . S
H1817 C1805 0.930 . S
H1818 C1806 0.956 . S
H1819 C1806 0.961 . S
H1820 C1806 0.961 . S
H1821 C1807 0.958 . S
H1822 C1807 0.961 . S
H1823 C1807 0.960 . S
C1057 C821 1.698 . S
C1065 C57 1.717 . S
C1089 C137 1.691 . S
C1097 C909 1.726 . S
C1121 C988 1.691 . S
C1129 C225 1.724 . S
C1153 C548 1.725 . S
C1161 C321 1.711 . S
C1185 C636 1.735 . S
C1193 C409 1.712 . S
C1217 C733 1.745 . S
C1225 C497 1.718 . S
C1249 C557 1.532 . S
C1257 C49 1.534 . S
C1281 C145 1.537 . S
C1289 C645 1.535 . S
C1313 C724 1.547 . S
C1321 C233 1.540 . S
C1345 C313 1.549 . S
C1353 C812 1.545 . S
C1377 C900 1.534 . S
C1385 C401 1.543 . S
C1409 C489 1.534 . S
C1417 C997 1.543 . S
C1441 C841 0.487 . S
C1449 C20 0.472 . S
C1473 C929 0.457 . S
C1481 C117 0.443 . S
C1505 C1025 0.449 . S
C1513 C205 0.441 . S
C1537 C284 0.443 . S
C1545 C585 0.460 . S
C1569 C673 0.484 . S
C1577 C372 0.472 . S
C1601 C460 0.438 . S
C1609 C753 0.439 . S
C1633 C29 1.721 . S
C1641 C761 1.678 . S
C1665 C849 1.698 . S
C1673 C108 1.689 . S
C1697 C937 1.685 . S
C1705 C196 1.695 . S
C1729 C1017 1.691 . S
C1737 C293 1.692 . S
C1761 C577 1.665 . S
C1769 C381 1.702 . S
C1793 C665 1.715 . S
C1801 C469 1.682 . S
