# Generated by pormake.
# Topology uom, (4)-cn, num edge types: 1
# Building blocks:
#     Node 0, Type 0, BuildingBlock: KOZSID_clean_sbu_0, # of connection points: 4
#     Node 1, Type 0, BuildingBlock: KOZSID_clean_sbu_0, # of connection points: 4
#     Node 2, Type 0, BuildingBlock: KOZSID_clean_sbu_0, # of connection points: 4
#     Node 3, Type 0, BuildingBlock: KOZSID_clean_sbu_0, # of connection points: 4
#     Node 4, Type 0, BuildingBlock: KOZSID_clean_sbu_0, # of connection points: 4
#     Node 5, Type 0, BuildingBlock: KOZSID_clean_sbu_0, # of connection points: 4
#     Edge 6, Type (0, 0), BuildingBlock: KIFKEQ_clean_linker_1, # of connection points: 2
#     Edge 7, Type (0, 0), BuildingBlock: KIFKEQ_clean_linker_1, # of connection points: 2
#     Edge 8, Type (0, 0), BuildingBlock: KIFKEQ_clean_linker_1, # of connection points: 2
#     Edge 9, Type (0, 0), BuildingBlock: KIFKEQ_clean_linker_1, # of connection points: 2
#     Edge 10, Type (0, 0), BuildingBlock: KIFKEQ_clean_linker_1, # of connection points: 2
#     Edge 11, Type (0, 0), BuildingBlock: KIFKEQ_clean_linker_1, # of connection points: 2
#     Edge 12, Type (0, 0), BuildingBlock: KIFKEQ_clean_linker_1, # of connection points: 2
#     Edge 13, Type (0, 0), BuildingBlock: KIFKEQ_clean_linker_1, # of connection points: 2
#     Edge 14, Type (0, 0), BuildingBlock: KIFKEQ_clean_linker_1, # of connection points: 2
#     Edge 15, Type (0, 0), BuildingBlock: KIFKEQ_clean_linker_1, # of connection points: 2
#     Edge 16, Type (0, 0), BuildingBlock: KIFKEQ_clean_linker_1, # of connection points: 2
#     Edge 17, Type (0, 0), BuildingBlock: KIFKEQ_clean_linker_1, # of connection points: 2
# Relax obj value: 0.150
# Max RMSD: 0.172
# Mean RMSD: 0.172
data_MOF--net-uom--node1-KOZSID_clean_sbu_0--edge1-KIFKEQ_clean_linker_1
_symmetry_space_group_name_H-M    P1
_symmetry_Int_Tables_number       1
_symmetry_cell_setting            triclinic
loop_
_symmetry_equiv_pos_as_xyz
'x, y, z'
_cell_length_a     38.627557
_cell_length_b     38.613682
_cell_length_c     42.605636
_cell_angle_alpha  90.000912
_cell_angle_beta   89.988666
_cell_angle_gamma 119.92463
loop_
_atom_site_label
_atom_site_type_symbol
_atom_site_fract_x
_atom_site_fract_y
_atom_site_fract_z
_atom_type_partial_charge
C0 C 0.35386 0.12153 0.10433 0.0
C1 C 0.35017 0.09931 0.13102 0.0
C2 C 0.35017 0.06543 0.12113 0.0
C3 C 0.35358 0.06858 0.08902 0.0
N4 N 0.35539 0.10219 0.0782 0.0
Co5 Co 0.35992 0.11793 0.03342 0.0
N6 N 0.34071 0.06261 0.0188 0.0
C7 C 0.34108 0.03337 0.03567 0.0
C8 C 0.32584 0.9981 0.01929 0.0
C9 C 0.31535 0.00583 0.99038 0.0
C10 C 0.32461 0.04548 0.99077 0.0
N11 N 0.36427 0.13355 0.98859 0.0
C12 C 0.3456 0.11073 0.96306 0.0
C13 C 0.35516 0.13442 0.93636 0.0
C14 C 0.38134 0.17293 0.94557 0.0
C15 C 0.38605 0.17093 0.97733 0.0
N16 N 0.37928 0.17335 0.04797 0.0
C17 C 0.40011 0.20653 0.03056 0.0
C18 C 0.40999 0.24085 0.04699 0.0
C19 C 0.39458 0.22839 0.07656 0.0
C20 C 0.37596 0.18697 0.07652 0.0
N21 N 0.41472 0.12811 0.0326 0.0
C22 C 0.49039 0.13523 0.03365 0.0
C23 C 0.46515 0.11869 1.00765 0.0
C24 C 0.42751 0.11523 1.00766 0.0
C25 C 0.4776 0.14991 0.05849 0.0
C26 C 0.43978 0.14628 0.05742 0.0
N27 N 0.30546 0.1074 0.03407 0.0
C28 C 0.25679 0.12434 0.01692 0.0
C29 C 0.22615 0.08751 0.02779 0.0
C30 C 0.236 0.06156 0.04309 0.0
C31 C 0.27592 0.07217 0.04608 0.0
C32 C 0.2963 0.13376 0.02039 0.0
H33 H 0.28283 0.05132 0.05724 0.0
H34 H 0.3194 0.16189 0.01124 0.0
H35 H 0.40835 0.10118 0.98773 0.0
H36 H 0.43039 0.15714 0.0771 0.0
C37 C 0.34833 0.03813 0.06815 0.0
C38 C 0.3585 0.16186 0.10455 0.0
C39 C 0.32038 0.06671 0.9636 0.0
C40 C 0.40324 0.20365 0.99795 0.0
H41 H 0.34782 0.10672 0.15511 0.0
H42 H 0.34648 0.04074 0.13556 0.0
H43 H 0.32117 0.96966 0.02777 0.0
H44 H 0.30243 0.98477 0.97124 0.0
H45 H 0.34414 0.1253 0.91275 0.0
H46 H 0.39353 0.19948 0.93109 0.0
H47 H 0.4252 0.27121 0.03823 0.0
H48 H 0.39704 0.24757 0.09597 0.0
H49 H 0.4741 0.10788 0.98752 0.0
H50 H 0.49596 0.16282 0.07913 0.0
H51 H 0.25031 0.14564 1.0057 0.0
H52 H 0.21308 0.03287 0.0519 0.0
C53 C 0.3298 0.34513 0.44383 0.0
C54 C 0.34045 0.33474 0.47188 0.0
C55 C 0.36727 0.32242 0.46446 0.0
C56 C 0.37158 0.32605 0.4324 0.0
N57 N 0.34913 0.33985 0.41934 0.0
Co58 Co 0.34567 0.34877 0.37393 0.0
N59 N 0.36642 0.31282 0.36204 0.0
C60 C 0.38683 0.30153 0.38109 0.0
C61 C 0.39746 0.27648 0.36652 0.0
C62 C 0.38319 0.27212 0.33642 0.0
C63 C 0.36475 0.29504 0.33415 0.0
N64 N 0.34193 0.3576 0.32849 0.0
C65 C 0.3421 0.33609 0.30333 0.0
C66 C 0.33965 0.35359 0.27558 0.0
C67 C 0.33809 0.38719 0.28382 0.0
C68 C 0.33975 0.38848 0.31604 0.0
N69 N 0.3252 0.38486 0.38601 0.0
C70 C 0.32493 0.41301 0.36761 0.0
C71 C 0.30792 0.43266 0.38219 0.0
C72 C 0.29699 0.41578 0.41154 0.0
C73 C 0.30808 0.38675 0.41329 0.0
N74 N 0.40023 0.39391 0.3746 0.0
C75 C 0.47745 0.45997 0.37409 0.0
C76 C 0.46444 0.43174 0.34989 0.0
C77 C 0.4259 0.3989 0.35067 0.0
C78 C 0.45127 0.45407 0.39891 0.0
C79 C 0.41274 0.42095 0.39865 0.0
N80 N 0.29152 0.30412 0.37326 0.0
C81 C 0.22245 0.27704 0.35995 0.0
C82 C 0.21318 0.24112 0.3748 0.0
C83 C 0.24401 0.23724 0.38852 0.0
C84 C 0.28294 0.2691 0.38753 0.0
C85 C 0.26186 0.30814 0.35935 0.0
H86 H 0.30609 0.2655 0.39846 0.0
H87 H 0.26828 0.3356 0.34792 0.0
H88 H 0.4168 0.37775 0.33166 0.0
H89 H 0.39289 0.41749 0.41772 0.0
C90 C 0.38943 0.30959 0.41342 0.0
C91 C 0.30357 0.36246 0.44131 0.0
C92 C 0.34857 0.3016 0.30481 0.0
C93 C 0.33308 0.41408 0.33537 0.0
H94 H 0.32993 0.33594 0.49518 0.0
H95 H 0.38047 0.31043 0.4804 0.0
H96 H 0.41245 0.26189 0.37684 0.0
H97 H 0.38624 0.25425 0.31825 0.0
H98 H 0.33959 0.34346 0.25189 0.0
H99 H 0.33492 0.40753 0.26818 0.0
H100 H 0.30216 0.45505 0.37216 0.0
H101 H 0.28225 0.42372 0.42938 0.0
H102 H 0.48394 0.43496 0.33048 0.0
H103 H 0.46011 0.4754 0.41796 0.0
H104 H 0.19944 0.28129 0.34918 0.0
H105 H 0.23827 0.20965 0.39964 0.0
C106 C 0.08048 0.32881 0.77204 0.0
C107 C 0.10102 0.34396 0.8 0.0
C108 C 0.13673 0.37721 0.79242 0.0
C109 C 0.13624 0.3805 0.76034 0.0
N110 N 0.10257 0.35116 0.74735 0.0
Co111 Co 0.09006 0.34484 0.70185 0.0
N112 N 0.14686 0.37975 0.69009 0.0
C113 C 0.17578 0.40637 0.70899 0.0
C114 C 0.21241 0.42558 0.69442 0.0
C115 C 0.20592 0.41002 0.66455 0.0
C116 C 0.16553 0.38215 0.66253 0.0
N117 N 0.07764 0.3385 0.65639 0.0
C118 C 0.10194 0.34397 0.63165 0.0
C119 C 0.08098 0.33566 0.60364 0.0
C120 C 0.04223 0.32455 0.61136 0.0
C121 C 0.04167 0.32676 0.64356 0.0
N122 N 0.0332 0.31001 0.7134 0.0
C123 C 0.00176 0.30118 0.69471 0.0
C124 C 0.96583 0.27687 0.70918 0.0
C125 C 0.97536 0.27033 0.73883 0.0
C126 C 0.01675 0.29099 0.74082 0.0
N127 N 0.08293 0.39146 0.70309 0.0
C128 C 0.07828 0.46134 0.70719 0.0
C129 C 0.09726 0.45484 0.68169 0.0
C130 C 0.09925 0.41981 0.68009 0.0
C131 C 0.06052 0.43143 0.73007 0.0
C132 C 0.06309 0.39674 0.72754 0.0
N133 N 0.09754 0.29888 0.70051 0.0
C134 C 0.07797 0.23359 0.68075 0.0
C135 C 0.11295 0.23632 0.69288 0.0
C136 C 0.1394 0.27049 0.70976 0.0
C137 C 0.131 0.3013 0.71348 0.0
C138 C 0.07083 0.26522 0.68484 0.0
H139 H 0.15213 0.32756 0.72613 0.0
H140 H 0.04413 0.26282 0.67477 0.0
H141 H 0.11466 0.41599 0.66046 0.0
H142 H 0.04976 0.37458 0.74579 0.0
C143 C 0.16887 0.40615 0.74138 0.0
C144 C 0.03921 0.295 0.76981 0.0
C145 C 0.14523 0.35957 0.63401 0.0
C146 C 0.00743 0.31075 0.6626 0.0
H147 H 0.09128 0.33237 0.82343 0.0
H148 H 0.16076 0.3958 0.80832 0.0
H149 H 0.24084 0.44676 0.70471 0.0
H150 H 0.22836 0.41806 0.64651 0.0
H151 H 0.09251 0.33747 0.58018 0.0
H152 H 0.01714 0.31429 0.59547 0.0
H153 H 0.93626 0.26432 0.69911 0.0
H154 H 0.95428 0.25279 0.75701 0.0
H155 H 0.1107 0.47675 0.66312 0.0
H156 H 0.04575 0.43522 0.7503 0.0
H157 H 0.05626 0.20724 0.6682 0.0
H158 H 0.16683 0.27385 0.71944 0.0
C159 C 0.85897 0.08342 0.10914 0.0
C160 C 0.87735 0.10587 0.1358 0.0
C161 C 0.89605 0.14504 0.12702 0.0
C162 C 0.88862 0.14451 0.09555 0.0
N163 N 0.86568 0.10734 0.08371 0.0
Co164 Co 0.85244 0.09313 0.03819 0.0
N165 N 0.88659 0.15023 0.02451 0.0
C166 C 0.90532 0.18248 0.04348 0.0
C167 C 0.92774 0.21765 0.02762 0.0
C168 C 0.92346 0.20726 0.99667 0.0
C169 C 0.89842 0.16613 0.99534 0.0
N170 N 0.84057 0.07868 0.99259 0.0
C171 C 0.85759 0.10098 0.9664 0.0
C172 C 0.84229 0.07851 0.9393 0.0
C173 C 0.8153 0.04057 0.94862 0.0
C174 C 0.81556 0.04194 0.98079 0.0
N175 N 0.81807 0.03613 0.05188 0.0
C176 C 0.79401 0.00477 0.03334 0.0
C177 C 0.7746 0.96915 0.04917 0.0
C178 C 0.78753 0.97815 0.0795 0.0
C179 C 0.81449 0.01889 0.08045 0.0
N180 N 0.80566 0.10164 0.04147 0.0
C181 C 0.74099 0.11633 0.04183 0.0
C182 C 0.73824 0.0832 0.02642 0.0
C183 C 0.77048 0.07654 0.02654 0.0
C184 C 0.77611 0.14123 0.05814 0.0
C185 C 0.80773 0.1333 0.05775 0.0
N186 N 0.89841 0.08478 0.03467 0.0
C187 C 0.92654 0.04469 0.01736 0.0
C188 C 0.96445 0.07463 0.02632 0.0
C189 C 0.96881 0.1093 0.04022 0.0
C190 C 0.93547 0.11364 0.04434 0.0
C191 C 0.89408 0.05042 0.02164 0.0
H192 H 0.94029 0.14063 0.05513 0.0
H193 H 0.86584 0.0269 0.0139 0.0
H194 H 0.76596 0.05094 0.0141 0.0
H195 H 0.83349 0.15355 0.07058 0.0
C196 C 0.90578 0.17806 0.076 0.0
C197 C 0.83691 0.03952 0.10878 0.0
C198 C 0.88844 0.1433 0.96602 0.0
C199 C 0.79454 0.00891 1.00062 0.0
H200 H 0.87842 0.09531 0.15907 0.0
H201 H 0.91442 0.17078 0.14156 0.0
H202 H 0.9466 0.24707 0.03747 0.0
H203 H 0.93826 0.22761 0.9774 0.0
H204 H 0.85028 0.08844 0.91527 0.0
H205 H 0.79832 0.0148 0.93373 0.0
H206 H 0.75481 0.93982 0.03954 0.0
H207 H 0.77893 0.95693 0.09858 0.0
H208 H 0.71118 0.06223 0.01422 0.0
H209 H 0.77965 0.16725 0.07061 0.0
H210 H 0.92209 0.0174 1.00649 0.0
H211 H 0.99777 0.13287 0.048 0.0
C212 C 0.86846 0.84515 0.43872 0.0
C213 C 0.84925 0.84622 0.4659 0.0
C214 C 0.81521 0.84634 0.45664 0.0
C215 C 0.81544 0.84527 0.42439 0.0
N216 N 0.8476 0.84472 0.41293 0.0
Co217 Co 0.85924 0.84279 0.36782 0.0
N218 N 0.82284 0.86239 0.35464 0.0
C219 C 0.79297 0.86068 0.37206 0.0
C220 C 0.77226 0.87591 0.35662 0.0
C221 C 0.79019 0.8877 0.32771 0.0
C222 C 0.8211 0.87918 0.32713 0.0
N223 N 0.87113 0.84118 0.32268 0.0
C224 C 0.86634 0.86051 0.29787 0.0
C225 C 0.88115 0.85283 0.27063 0.0
C226 C 0.89444 0.82702 0.27867 0.0
C227 C 0.88762 0.8207 0.31032 0.0
N228 N 0.8954 0.82284 0.38103 0.0
C229 C 0.90865 0.80367 0.36251 0.0
C230 C 0.93365 0.79372 0.37799 0.0
C231 C 0.93604 0.80729 0.40814 0.0
C232 C 0.91214 0.82471 0.40943 0.0
N233 N 0.8149 0.78791 0.36531 0.0
C234 C 0.74575 0.71265 0.36492 0.0
C235 C 0.75495 0.73896 0.33956 0.0
C236 C 0.78943 0.77636 0.34028 0.0
C237 C 0.77317 0.72412 0.38973 0.0
C238 C 0.80766 0.76169 0.38934 0.0
N239 N 0.90283 0.8974 0.37033 0.0
C240 C 0.96997 0.94723 0.35776 0.0
C241 C 0.96366 0.97683 0.37104 0.0
C242 C 0.92651 0.96569 0.38447 0.0
C243 C 0.8966 0.92581 0.38402 0.0
C244 C 0.93912 0.90769 0.35759 0.0
H245 H 0.86819 0.91806 0.39434 0.0
H246 H 0.94446 0.8855 0.34691 0.0
H247 H 0.79481 0.7964 0.32092 0.0
H248 H 0.82778 0.77003 0.40904 0.0
C249 C 0.79022 0.85144 0.40421 0.0
C250 C 0.90427 0.84086 0.43818 0.0
C251 C 0.84601 0.88432 0.29935 0.0
C252 C 0.90329 0.8027 0.32992 0.0
H253 H 0.85864 0.84644 0.48987 0.0
H254 H 0.79367 0.84837 0.47163 0.0
H255 H 0.74802 0.87944 0.36567 0.0
H256 H 0.78134 0.90077 0.30912 0.0
H257 H 0.88274 0.86476 0.2474 0.0
H258 H 0.9093 0.81599 0.26351 0.0
H259 H 0.94977 0.77999 0.36822 0.0
H260 H 0.95353 0.80477 0.42689 0.0
H261 H 0.73533 0.73108 0.31943 0.0
H262 H 0.76742 0.70496 0.40991 0.0
H263 H -0.00145 0.95447 0.34769 0.0
H264 H 0.92027 0.98764 0.39477 0.0
C265 C 0.11236 0.87809 0.77746 0.0
C266 C 0.08974 0.87144 0.80449 0.0
C267 C 0.05094 0.84431 0.79682 0.0
C268 C 0.05169 0.83621 0.76554 0.0
N269 N 0.08854 0.85686 0.75306 0.0
Co270 Co 0.10217 0.85573 0.7083 0.0
N271 N 0.04593 0.83363 0.69478 0.0
C272 C 0.01363 0.81458 0.71338 0.0
C273 C 0.9785 0.80243 0.69745 0.0
C274 C 0.9895 0.81451 0.66696 0.0
C275 C 0.0309 0.83357 0.66601 0.0
N276 N 0.11573 0.8547 0.66352 0.0
C277 C 0.09508 0.85308 0.63723 0.0
C278 C 0.11613 0.85397 0.61055 0.0
C279 C 0.1507 0.85559 0.62068 0.0
C280 C 0.14907 0.85583 0.6529 0.0
N281 N 0.15837 0.8777 0.72185 0.0
C282 C 0.18705 0.87588 0.70525 0.0
C283 C 0.22303 0.89305 0.72073 0.0
C284 C 0.21639 0.90627 0.74882 0.0
C285 C 0.17662 0.89659 0.74889 0.0
N286 N 0.093 0.80156 0.71365 0.0
C287 C 0.08383 0.72521 0.71909 0.0
C288 C 0.06812 0.73526 0.69328 0.0
C289 C 0.07292 0.77342 0.69106 0.0
C290 C 0.10337 0.75399 0.74253 0.0
C291 C 0.10759 0.79191 0.73939 0.0
N292 N 0.11136 0.90943 0.70271 0.0
C293 C 0.15092 0.97543 0.68159 0.0
C294 C 0.122 0.98486 0.69108 0.0
C295 C 0.08815 0.95627 0.70713 0.0
C296 C 0.08354 0.91879 0.71292 0.0
C297 C 0.1449 0.93737 0.68749 0.0
H298 H 0.05722 0.89719 0.72528 0.0
H299 H 0.16707 0.93035 0.67933 0.0
H300 H 0.06103 0.78038 0.67066 0.0
H301 H 0.12322 0.81362 0.75757 0.0
C302 C 0.01809 0.81588 0.7461 0.0
C303 C 0.15638 0.9027 0.77591 0.0
C304 C 0.05476 0.84845 0.63712 0.0
C305 C 0.18076 0.86446 0.67351 0.0
H306 H 0.09983 0.88483 0.82735 0.0
H307 H 0.02503 0.83343 0.8119 0.0
H308 H 0.94858 0.7881 0.70705 0.0
H309 H 0.96939 0.80973 0.64765 0.0
H310 H 0.10759 0.85361 0.58633 0.0
H311 H 0.17491 0.85814 0.60623 0.0
H312 H 0.25113 0.89688 0.7122 0.0
H313 H 0.23822 0.92103 0.76722 0.0
H314 H 0.05323 0.71423 0.67438 0.0
H315 H 0.11548 0.74738 0.76312 0.0
H316 H 0.17748 0.99697 0.66915 0.0
H317 H 0.06553 0.96292 0.7153 0.0
H318 H 0.40702 0.18262 0.15618 0.0
H319 H 0.30443 0.18523 0.11964 0.0
H320 H 0.40378 0.2156 0.20422 0.0
H321 H 0.30142 0.2192 0.16736 0.0
H322 H 0.28516 0.24551 0.27082 0.0
H323 H 0.28646 0.21102 0.22281 0.0
H324 H 0.41547 0.2787 0.22343 0.0
H325 H 0.41372 0.3124 0.27154 0.0
C326 C 0.38354 0.19003 0.15862 0.0
C327 C 0.35549 0.18066 0.13447 0.0
C328 C 0.3819 0.20938 0.18601 0.0
C329 C 0.3523 0.22026 0.18995 0.0
C330 C 0.32427 0.21086 0.16557 0.0
C331 C 0.32601 0.19151 0.13814 0.0
C332 C 0.31368 0.25282 0.26059 0.0
C333 C 0.34932 0.28111 0.27512 0.0
C334 C 0.31453 0.23327 0.23297 0.0
C335 C 0.35111 0.24164 0.21913 0.0
C336 C 0.38672 0.27066 0.23357 0.0
C337 C 0.38581 0.29018 0.26109 0.0
H338 H 0.23366 0.30072 0.46343 0.0
H339 H 0.3208 0.42344 0.48248 0.0
H340 H 0.19495 0.29967 0.50936 0.0
H341 H 0.28305 0.42259 0.52889 0.0
H342 H 0.18723 0.42108 0.59299 0.0
H343 H 0.22447 0.42168 0.5463 0.0
H344 H 0.19288 0.29932 0.56493 0.0
H345 H 0.15481 0.2989 0.61111 0.0
C346 C 0.24444 0.32749 0.47754 0.0
C347 C 0.27982 0.36233 0.46916 0.0
C348 C 0.22248 0.3269 0.50406 0.0
C349 C 0.23554 0.36111 0.52311 0.0
C350 C 0.27137 0.39586 0.51467 0.0
C351 C 0.29319 0.39641 0.48811 0.0
C352 C 0.18848 0.39445 0.58703 0.0
C353 C 0.16854 0.36008 0.60576 0.0
C354 C 0.20998 0.39475 0.56034 0.0
C355 C 0.21213 0.36061 0.5516 0.0
C356 C 0.19172 0.32609 0.57045 0.0
C357 C 0.1701 0.32583 0.59709 0.0
H358 H 0.87885 0.19802 0.93191 0.0
H359 H 0.94348 0.13387 0.93238 0.0
H360 H 0.91424 0.23349 0.88425 0.0
H361 H 0.97956 0.16957 0.8849 0.0
H362 H 0.01172 0.21623 0.7831 0.0
H363 H 0.97392 0.17805 0.82926 0.0
H364 H 0.97899 0.28434 0.86702 0.0
H365 H 0.01592 0.32183 0.82055 0.0
C366 C 0.90069 0.19155 0.92169 0.0
C367 C 0.90864 0.16344 0.93591 0.0
C368 C 0.92124 0.21205 0.89449 0.0
C369 C 0.95022 0.20484 0.88062 0.0
C370 C 0.95734 0.17584 0.89458 0.0
C371 C 0.93681 0.15543 0.92187 0.0
C372 C 0.00482 0.23129 0.80143 0.0
C373 C 0.01727 0.27208 0.79852 0.0
C374 C 0.98329 0.20952 0.82797 0.0
C375 C 0.97327 0.22794 0.85215 0.0
C376 C 0.9856 0.26883 0.8489 0.0
C377 C 0.00717 0.29053 0.82243 0.0
H378 H 0.8085 0.03832 0.16829 0.0
H379 H 0.86419 0.98648 0.11253 0.0
H380 H 0.81075 0.00141 0.21443 0.0
H381 H 0.86507 0.94831 0.15833 0.0
H382 H 0.81528 0.85506 0.24075 0.0
H383 H 0.81316 0.89213 0.19478 0.0
H384 H 0.8659 0.00065 0.2494 0.0
H385 H 0.86957 0.96368 0.29506 0.0
C386 C 0.82135 0.01912 0.16595 0.0
C387 C 0.83686 0.01589 0.13691 0.0
C388 C 0.82259 0.99795 0.19235 0.0
C389 C 0.8383 0.97205 0.19016 0.0
C390 C 0.8527 0.96792 0.16084 0.0
C391 C 0.85225 0.98977 0.13463 0.0
C392 C 0.82723 0.88699 0.24273 0.0
C393 C 0.84386 0.90671 0.27125 0.0
C394 C 0.82578 0.90819 0.21646 0.0
C395 C 0.83969 0.94946 0.21828 0.0
C396 C 0.85498 0.96891 0.24716 0.0
C397 C 0.8572 0.94782 0.27327 0.0
H398 H 0.03216 0.79622 0.5877 0.0
H399 H 0.03025 0.90094 0.61994 0.0
H400 H 0.99631 0.79529 0.54008 0.0
H401 H 0.99342 0.89977 0.57267 0.0
H402 H 0.89541 0.77876 0.47468 0.0
H403 H 0.93185 0.78133 0.52243 0.0
H404 H -0.00189 0.91022 0.51661 0.0
H405 H 0.96087 0.90719 0.46902 0.0
C406 C 0.02436 0.8193 0.58436 0.0
C407 C 0.03471 0.84914 0.60718 0.0
C408 C 0.00333 0.81854 0.55724 0.0
C409 C 0.99172 0.84744 0.55227 0.0
C410 C 0.00222 0.87734 0.57527 0.0
C411 C 0.02324 0.87802 0.60243 0.0
C412 C 0.91776 0.80757 0.48374 0.0
C413 C 0.92561 0.84276 0.46806 0.0
C414 C 0.93891 0.80913 0.511 0.0
C415 C 0.96843 0.84599 0.52348 0.0
C416 C 0.97553 0.88127 0.508 0.0
C417 C 0.95435 0.87964 0.48065 0.0
H418 H 0.24038 0.01368 0.96062 0.0
H419 H 0.34685 0.065 0.90378 0.0
H420 H 0.201 0.97384 0.91555 0.0
H421 H 0.30736 0.02661 0.85838 0.0
H422 H 0.21064 0.98267 0.77799 0.0
H423 H 0.25079 0.02253 0.82283 0.0
H424 H 0.19731 0.91694 0.88089 0.0
H425 H 0.15858 0.87702 0.8358 0.0
C426 C 0.25525 0.01678 0.93837 0.0
C427 C 0.29651 0.04342 0.93555 0.0
C428 C 0.23276 0.9939 0.91259 0.0
C429 C 0.25091 0.99733 0.88319 0.0
C430 C 0.29228 0.02378 0.88046 0.0
C431 C 0.31487 0.04602 0.90642 0.0
C432 C 0.20751 0.96808 0.80037 0.0
C433 C 0.18053 0.92693 0.80357 0.0
C434 C 0.23055 0.99084 0.82602 0.0
C435 C 0.22691 0.97306 0.85563 0.0
C436 C 0.2003 0.93176 0.85865 0.0
C437 C 0.17793 0.90891 0.83285 0.0
H438 H 0.19185 0.09646 0.97496 0.0
H439 H 0.16595 0.05383 0.07064 0.0
H440 H 0.12428 0.08575 0.96956 0.0
H441 H 0.09842 0.0429 0.06516 0.0
H442 H 0.97243 0.01034 0.04099 0.0
H443 H 0.03288 0.00519 0.03632 0.0
H444 H 0.09527 0.12357 0.99585 0.0
H445 H 0.03492 0.12838 1.00006 0.0
C446 C 0.17156 0.08451 0.99471 0.0
C447 C 0.18414 0.07659 0.02339 0.0
C448 C 0.13299 0.07819 0.99155 0.0
C449 C 0.10645 0.06377 0.01701 0.0
C450 C 0.11825 0.05361 0.04507 0.0
C451 C 0.15687 0.06001 0.04825 0.0
C452 C -0.00105 0.03485 0.0306 0.0
C453 C -0.00054 0.06994 0.02118 0.0
C454 C 0.03339 0.03197 0.02804 0.0
C455 C 0.06853 0.06398 0.01577 0.0
C456 C 0.06839 0.09829 1.00507 0.0
C457 C 0.03413 0.10127 1.00783 0.0
H458 H 0.01573 0.01757 0.32369 0.0
H459 H 0.98387 0.03149 0.41825 0.0
H460 H 0.07209 0.08528 0.32514 0.0
H461 H 0.0389 0.10017 0.419 0.0
H462 H 0.17451 0.19078 0.42353 0.0
H463 H 0.11004 0.12977 0.42223 0.0
H464 H 0.0929 0.15518 0.32646 0.0
H465 H 0.15858 0.21512 0.32719 0.0
C466 C 0.0206 0.03524 0.34468 0.0
C467 C 0.99577 0.01906 0.37101 0.0
C468 C 0.05246 0.07428 0.34532 0.0
C469 C 0.05994 0.09803 0.37222 0.0
C470 C 0.03412 0.08239 0.39808 0.0
C471 C 0.00241 0.04321 0.39753 0.0
C472 C 0.15694 0.18331 0.40222 0.0
C473 C 0.17183 0.20726 0.3753 0.0
C474 C 0.11974 0.14869 0.40161 0.0
C475 C 0.09655 0.13754 0.37414 0.0
C476 C 0.11044 0.16274 0.34779 0.0
C477 C 0.14782 0.19725 0.34833 0.0
H478 H 0.14351 0.20618 0.7356 0.0
H479 H 0.10175 0.19236 0.63976 0.0
H480 H 0.15306 0.14887 0.72927 0.0
H481 H 0.11052 0.13428 0.63376 0.0
H482 H 0.06797 0.00118 0.6646 0.0
H483 H 0.07261 0.06635 0.66008 0.0
H484 H 0.19192 0.12273 0.69868 0.0
H485 H 0.18708 0.05723 0.70341 0.0
C486 C 0.13709 0.19138 0.71301 0.0
C487 C 0.12149 0.20345 0.68827 0.0
C488 C 0.14266 0.15867 0.70938 0.0
C489 C 0.13249 0.13733 0.68104 0.0
C490 C 0.11828 0.1502 0.6559 0.0
C491 C 0.11299 0.18313 0.65944 0.0
C492 C 0.09532 0.02762 0.67171 0.0
C493 C 0.12699 0.02446 0.68469 0.0
C494 C 0.09815 0.06483 0.66884 0.0
C495 C 0.13258 0.09935 0.67915 0.0
C496 C 0.16503 0.09639 0.69074 0.0
C497 C 0.16233 0.05913 0.69332 0.0
H498 H 0.69453 0.10882 0.99128 0.0
H499 H 0.71147 0.14265 0.08919 0.0
H500 H 0.63555 0.11615 0.98971 0.0
H501 H 0.65253 0.15075 0.08732 0.0
H502 H 0.5623 0.19319 0.05787 0.0
H503 H 0.62508 0.1921 0.06039 0.0
H504 H 0.56799 0.07645 0.01554 0.0
H505 H 0.50536 0.07682 0.01375 0.0
C506 C 0.68566 0.1178 0.01249 0.0
C507 C 0.7073 0.12448 0.04051 0.0
C508 C 0.65197 0.12214 0.01153 0.0
C509 C 0.63929 0.13357 0.03848 0.0
C510 C 0.66183 0.14205 0.06618 0.0
C511 C 0.69554 0.13745 0.06722 0.0
C512 C 0.56308 0.1674 0.0488 0.0
C513 C 0.52885 0.13529 0.03527 0.0
C514 C 0.59901 0.16685 0.05021 0.0
C515 C 0.60141 0.13439 0.03786 0.0
C516 C 0.56718 0.10223 0.02466 0.0
C517 C 0.53132 0.10257 0.02352 0.0
H518 H 0.73029 0.63979 0.38826 0.0
H519 H 0.67286 0.69922 0.34474 0.0
H520 H 0.66583 0.57802 0.39106 0.0
H521 H 0.60912 0.63735 0.3467 0.0
H522 H 0.51272 0.50891 0.32403 0.0
H523 H 0.57843 0.56896 0.32173 0.0
H524 H 0.59853 0.55284 0.41899 0.0
H525 H 0.53268 0.49236 0.42125 0.0
C526 C 0.70405 0.6398 0.37936 0.0
C527 C 0.70694 0.67452 0.36607 0.0
C528 C 0.66719 0.6044 0.38093 0.0
C529 C 0.6326 0.60292 0.36894 0.0
C530 C 0.63545 0.63749 0.35566 0.0
C531 C 0.67209 0.6729 0.3544 0.0
C532 C 0.53131 0.518 0.34483 0.0
C533 C 0.51765 0.49601 0.37282 0.0
C534 C 0.56875 0.55249 0.34358 0.0
C535 C 0.59348 0.56553 0.37019 0.0
C536 C 0.58013 0.54326 0.39808 0.0
C537 C 0.54241 0.50893 0.39944 0.0
H538 H 0.02071 0.65218 0.70291 0.0
H539 H 0.14145 0.70859 0.73861 0.0
H540 H 0.01893 0.58823 0.70111 0.0
H541 H 0.13897 0.64435 0.7382 0.0
H542 H 0.13928 0.53662 0.6945 0.0
H543 H 0.13931 0.5994 0.69908 0.0
H544 H 0.01783 0.53589 0.73328 0.0
H545 H 0.01718 0.47271 0.72731 0.0
C546 C 0.04677 0.65088 0.71058 0.0
C547 C 0.08132 0.68558 0.72069 0.0
C548 C 0.04558 0.61413 0.70989 0.0
C549 C 0.07889 0.61121 0.71934 0.0
C550 C 0.113 0.64568 0.73032 0.0
C551 C 0.11423 0.68243 0.73095 0.0
C552 C 0.11239 0.53595 0.70264 0.0
C553 C 0.07814 0.49959 0.71035 0.0
C554 C 0.11261 0.57203 0.70572 0.0
C555 C 0.07864 0.57271 0.7167 0.0
C556 C 0.04439 0.53638 0.72451 0.0
C557 C 0.04415 0.50021 0.72139 0.0
loop_
_geom_bond_atom_site_label_1
_geom_bond_atom_site_label_2
_geom_bond_distance
_geom_bond_site_symmetry_2
_ccdc_geom_bond_type
C0 C1 1.443 . S
C0 N4 1.376 . S
C0 C38 1.389 . S
C1 C0 1.443 . S
C1 C2 1.340 . S
C1 H41 0.951 . S
C2 C1 1.340 . S
C2 C3 1.439 . S
C2 H42 0.950 . S
C3 C2 1.439 . S
C3 N4 1.374 . S
C3 C37 1.395 . S
N4 C0 1.376 . S
N4 C3 1.374 . S
N4 Co5 2.008 . S
Co5 N4 2.008 . S
Co5 N6 1.995 . S
Co5 N11 2.008 1_554 S
Co5 N16 1.995 . S
Co5 N21 2.282 . S
Co5 N27 2.282 . S
N6 Co5 1.995 . S
N6 C7 1.376 . S
N6 C10 1.383 1_554 S
C7 N6 1.376 . S
C7 C8 1.446 . S
C7 C37 1.391 . S
C8 C7 1.446 . S
C8 C9 1.339 1_554 S
C8 H43 0.949 . S
C9 C8 1.339 1_556 S
C9 C10 1.439 . S
C9 H44 0.950 . S
C10 N6 1.383 1_556 S
C10 C9 1.439 . S
C10 C39 1.392 . S
N11 Co5 2.008 1_556 S
N11 C12 1.376 . S
N11 C15 1.374 . S
C12 N11 1.376 . S
C12 C13 1.443 . S
C12 C39 1.389 . S
C13 C12 1.443 . S
C13 C14 1.340 . S
C13 H45 0.951 . S
C14 C13 1.340 . S
C14 C15 1.439 . S
C14 H46 0.950 . S
C15 N11 1.374 . S
C15 C14 1.439 . S
C15 C40 1.395 . S
N16 Co5 1.995 . S
N16 C17 1.376 . S
N16 C20 1.383 . S
C17 N16 1.376 . S
C17 C18 1.446 . S
C17 C40 1.391 1_554 S
C18 C17 1.446 . S
C18 C19 1.339 . S
C18 H47 0.949 . S
C19 C18 1.339 . S
C19 C20 1.439 . S
C19 H48 0.950 . S
C20 N16 1.383 . S
C20 C19 1.439 . S
C20 C38 1.392 . S
N21 Co5 2.282 . S
N21 C24 1.332 . S
N21 C26 1.332 . S
C22 C23 1.386 . S
C22 C25 1.388 . S
C23 C22 1.386 . S
C23 C24 1.382 . S
C23 H49 0.950 . S
C24 N21 1.332 . S
C24 C23 1.382 . S
C24 H35 0.952 . S
C25 C22 1.388 . S
C25 C26 1.382 . S
C25 H50 0.950 . S
C26 N21 1.332 . S
C26 C25 1.382 . S
C26 H36 0.948 . S
N27 Co5 2.282 . S
N27 C31 1.332 . S
N27 C32 1.332 . S
C28 C29 1.388 . S
C28 C32 1.382 . S
C28 H51 0.950 . S
C29 C28 1.388 . S
C29 C30 1.386 . S
C30 C29 1.386 . S
C30 C31 1.382 . S
C30 H52 0.950 . S
C31 N27 1.332 . S
C31 C30 1.382 . S
C31 H33 0.952 . S
C32 N27 1.332 . S
C32 C28 1.382 . S
C32 H34 0.948 . S
H33 C31 0.952 . S
H34 C32 0.948 . S
H35 C24 0.952 . S
H36 C26 0.948 . S
C37 C3 1.395 . S
C37 C7 1.391 . S
C38 C0 1.389 . S
C38 C20 1.392 . S
C39 C10 1.392 . S
C39 C12 1.389 . S
C40 C15 1.395 . S
C40 C17 1.391 1_556 S
H41 C1 0.951 . S
H42 C2 0.950 . S
H43 C8 0.949 . S
H44 C9 0.950 . S
H45 C13 0.951 . S
H46 C14 0.950 . S
H47 C18 0.949 . S
H48 C19 0.950 . S
H49 C23 0.950 . S
H50 C25 0.950 . S
H51 C28 0.950 . S
H52 C30 0.950 . S
C53 C54 1.443 . S
C53 N57 1.376 . S
C53 C91 1.389 . S
C54 C53 1.443 . S
C54 C55 1.340 . S
C54 H94 0.951 . S
C55 C54 1.340 . S
C55 C56 1.439 . S
C55 H95 0.950 . S
C56 C55 1.439 . S
C56 N57 1.374 . S
C56 C90 1.395 . S
N57 C53 1.376 . S
N57 C56 1.374 . S
N57 Co58 2.008 . S
Co58 N57 2.008 . S
Co58 N59 1.995 . S
Co58 N64 2.008 . S
Co58 N69 1.995 . S
Co58 N74 2.282 . S
Co58 N80 2.282 . S
N59 Co58 1.995 . S
N59 C60 1.376 . S
N59 C63 1.383 . S
C60 N59 1.376 . S
C60 C61 1.446 . S
C60 C90 1.391 . S
C61 C60 1.446 . S
C61 C62 1.339 . S
C61 H96 0.949 . S
C62 C61 1.339 . S
C62 C63 1.439 . S
C62 H97 0.950 . S
C63 N59 1.383 . S
C63 C62 1.439 . S
C63 C92 1.392 . S
N64 Co58 2.008 . S
N64 C65 1.376 . S
N64 C68 1.374 . S
C65 N64 1.376 . S
C65 C66 1.443 . S
C65 C92 1.389 . S
C66 C65 1.443 . S
C66 C67 1.340 . S
C66 H98 0.951 . S
C67 C66 1.340 . S
C67 C68 1.439 . S
C67 H99 0.950 . S
C68 N64 1.374 . S
C68 C67 1.439 . S
C68 C93 1.395 . S
N69 Co58 1.995 . S
N69 C70 1.376 . S
N69 C73 1.383 . S
C70 N69 1.376 . S
C70 C71 1.446 . S
C70 C93 1.391 . S
C71 C70 1.446 . S
C71 C72 1.339 . S
C71 H100 0.949 . S
C72 C71 1.339 . S
C72 C73 1.439 . S
C72 H101 0.950 . S
C73 N69 1.383 . S
C73 C72 1.439 . S
C73 C91 1.392 . S
N74 Co58 2.282 . S
N74 C77 1.332 . S
N74 C79 1.332 . S
C75 C76 1.386 . S
C75 C78 1.388 . S
C76 C75 1.386 . S
C76 C77 1.382 . S
C76 H102 0.950 . S
C77 N74 1.332 . S
C77 C76 1.382 . S
C77 H88 0.952 . S
C78 C75 1.388 . S
C78 C79 1.382 . S
C78 H103 0.950 . S
C79 N74 1.332 . S
C79 C78 1.382 . S
C79 H89 0.948 . S
N80 Co58 2.282 . S
N80 C84 1.332 . S
N80 C85 1.332 . S
C81 C82 1.388 . S
C81 C85 1.382 . S
C81 H104 0.950 . S
C82 C81 1.388 . S
C82 C83 1.386 . S
C83 C82 1.386 . S
C83 C84 1.382 . S
C83 H105 0.950 . S
C84 N80 1.332 . S
C84 C83 1.382 . S
C84 H86 0.952 . S
C85 N80 1.332 . S
C85 C81 1.382 . S
C85 H87 0.948 . S
H86 C84 0.952 . S
H87 C85 0.948 . S
H88 C77 0.952 . S
H89 C79 0.948 . S
C90 C56 1.395 . S
C90 C60 1.391 . S
C91 C53 1.389 . S
C91 C73 1.392 . S
C92 C63 1.392 . S
C92 C65 1.389 . S
C93 C68 1.395 . S
C93 C70 1.391 . S
H94 C54 0.951 . S
H95 C55 0.950 . S
H96 C61 0.949 . S
H97 C62 0.950 . S
H98 C66 0.951 . S
H99 C67 0.950 . S
H100 C71 0.949 . S
H101 C72 0.950 . S
H102 C76 0.950 . S
H103 C78 0.950 . S
H104 C81 0.950 . S
H105 C83 0.950 . S
C106 C107 1.443 . S
C106 N110 1.376 . S
C106 C144 1.389 1_455 S
C107 C106 1.443 . S
C107 C108 1.340 . S
C107 H147 0.951 . S
C108 C107 1.340 . S
C108 C109 1.439 . S
C108 H148 0.950 . S
C109 C108 1.439 . S
C109 N110 1.374 . S
C109 C143 1.395 . S
N110 C106 1.376 . S
N110 C109 1.374 . S
N110 Co111 2.008 . S
Co111 N110 2.008 . S
Co111 N112 1.995 . S
Co111 N117 2.008 . S
Co111 N122 1.995 1_455 S
Co111 N127 2.282 . S
Co111 N133 2.282 . S
N112 Co111 1.995 . S
N112 C113 1.376 . S
N112 C116 1.383 . S
C113 N112 1.376 . S
C113 C114 1.446 . S
C113 C143 1.391 . S
C114 C113 1.446 . S
C114 C115 1.339 . S
C114 H149 0.949 . S
C115 C114 1.339 . S
C115 C116 1.439 . S
C115 H150 0.950 . S
C116 N112 1.383 . S
C116 C115 1.439 . S
C116 C145 1.392 . S
N117 Co111 2.008 . S
N117 C118 1.376 . S
N117 C121 1.374 1_455 S
C118 N117 1.376 . S
C118 C119 1.443 . S
C118 C145 1.389 . S
C119 C118 1.443 . S
C119 C120 1.340 1_455 S
C119 H151 0.951 . S
C120 C119 1.340 1_655 S
C120 C121 1.439 . S
C120 H152 0.950 . S
C121 N117 1.374 1_655 S
C121 C120 1.439 . S
C121 C146 1.395 . S
N122 Co111 1.995 1_655 S
N122 C123 1.376 . S
N122 C126 1.383 . S
C123 N122 1.376 . S
C123 C124 1.446 . S
C123 C146 1.391 . S
C124 C123 1.446 . S
C124 C125 1.339 . S
C124 H153 0.949 . S
C125 C124 1.339 . S
C125 C126 1.439 . S
C125 H154 0.950 . S
C126 N122 1.383 . S
C126 C125 1.439 . S
C126 C144 1.392 . S
N127 Co111 2.282 . S
N127 C130 1.332 1_455 S
N127 C132 1.332 . S
C128 C129 1.386 1_455 S
C128 C131 1.388 . S
C129 C128 1.386 1_655 S
C129 C130 1.382 . S
C129 H155 0.950 . S
C130 N127 1.332 1_655 S
C130 C129 1.382 . S
C130 H141 0.952 . S
C131 C128 1.388 . S
C131 C132 1.382 . S
C131 H156 0.950 . S
C132 N127 1.332 . S
C132 C131 1.382 . S
C132 H142 0.948 . S
N133 Co111 2.282 . S
N133 C137 1.332 . S
N133 C138 1.332 1_455 S
C134 C135 1.388 1_655 S
C134 C138 1.382 . S
C134 H157 0.950 . S
C135 C134 1.388 1_455 S
C135 C136 1.386 . S
C136 C135 1.386 . S
C136 C137 1.382 . S
C136 H158 0.950 . S
C137 N133 1.332 . S
C137 C136 1.382 . S
C137 H139 0.952 . S
C138 N133 1.332 1_655 S
C138 C134 1.382 . S
C138 H140 0.948 . S
H139 C137 0.952 . S
H140 C138 0.948 . S
H141 C130 0.952 . S
H142 C132 0.948 . S
C143 C109 1.395 . S
C143 C113 1.391 . S
C144 C106 1.389 1_655 S
C144 C126 1.392 . S
C145 C116 1.392 . S
C145 C118 1.389 . S
C146 C121 1.395 . S
C146 C123 1.391 . S
H147 C107 0.951 . S
H148 C108 0.950 . S
H149 C114 0.949 . S
H150 C115 0.950 . S
H151 C119 0.951 . S
H152 C120 0.950 . S
H153 C124 0.949 . S
H154 C125 0.950 . S
H155 C129 0.950 . S
H156 C131 0.950 . S
H157 C134 0.950 . S
H158 C136 0.950 . S
C159 C160 1.443 . S
C159 N163 1.376 . S
C159 C197 1.389 1_545 S
C160 C159 1.443 . S
C160 C161 1.340 . S
C160 H200 0.951 . S
C161 C160 1.340 . S
C161 C162 1.439 . S
C161 H201 0.950 . S
C162 C161 1.439 . S
C162 N163 1.374 . S
C162 C196 1.395 . S
N163 C159 1.376 . S
N163 C162 1.374 . S
N163 Co164 2.008 . S
Co164 N163 2.008 . S
Co164 N165 1.995 . S
Co164 N170 2.008 1_554 S
Co164 N175 1.995 1_545 S
Co164 N180 2.282 . S
Co164 N186 2.282 . S
N165 Co164 1.995 . S
N165 C166 1.376 . S
N165 C169 1.383 1_554 S
C166 N165 1.376 . S
C166 C167 1.446 . S
C166 C196 1.391 . S
C167 C166 1.446 . S
C167 C168 1.339 1_554 S
C167 H202 0.949 . S
C168 C167 1.339 1_556 S
C168 C169 1.439 . S
C168 H203 0.950 . S
C169 N165 1.383 1_556 S
C169 C168 1.439 . S
C169 C198 1.392 . S
N170 Co164 2.008 1_556 S
N170 C171 1.376 . S
N170 C174 1.374 1_545 S
C171 N170 1.376 . S
C171 C172 1.443 . S
C171 C198 1.389 . S
C172 C171 1.443 . S
C172 C173 1.340 1_545 S
C172 H204 0.951 . S
C173 C172 1.340 1_565 S
C173 C174 1.439 . S
C173 H205 0.950 . S
C174 N170 1.374 1_565 S
C174 C173 1.439 . S
C174 C199 1.395 . S
N175 Co164 1.995 1_565 S
N175 C176 1.376 . S
N175 C179 1.383 . S
C176 N175 1.376 . S
C176 C177 1.446 . S
C176 C199 1.391 1_554 S
C177 C176 1.446 . S
C177 C178 1.339 . S
C177 H206 0.949 . S
C178 C177 1.339 . S
C178 C179 1.439 . S
C178 H207 0.950 . S
C179 N175 1.383 . S
C179 C178 1.439 . S
C179 C197 1.392 . S
N180 Co164 2.282 . S
N180 C183 1.332 1_545 S
N180 C185 1.332 . S
C181 C182 1.386 1_545 S
C181 C184 1.388 . S
C182 C181 1.386 1_565 S
C182 C183 1.382 . S
C182 H208 0.950 . S
C183 N180 1.332 1_565 S
C183 C182 1.382 . S
C183 H194 0.952 . S
C184 C181 1.388 . S
C184 C185 1.382 . S
C184 H209 0.950 . S
C185 N180 1.332 . S
C185 C184 1.382 . S
C185 H195 0.948 . S
N186 Co164 2.282 . S
N186 C190 1.332 . S
N186 C191 1.332 1_545 S
C187 C188 1.388 1_565 S
C187 C191 1.382 . S
C187 H210 0.950 . S
C188 C187 1.388 1_545 S
C188 C189 1.386 . S
C189 C188 1.386 . S
C189 C190 1.382 . S
C189 H211 0.950 . S
C190 N186 1.332 . S
C190 C189 1.382 . S
C190 H192 0.952 . S
C191 N186 1.332 1_565 S
C191 C187 1.382 . S
C191 H193 0.948 . S
H192 C190 0.952 . S
H193 C191 0.948 . S
H194 C183 0.952 . S
H195 C185 0.948 . S
C196 C162 1.395 . S
C196 C166 1.391 . S
C197 C159 1.389 1_565 S
C197 C179 1.392 . S
C198 C169 1.392 . S
C198 C171 1.389 . S
C199 C174 1.395 . S
C199 C176 1.391 1_556 S
H200 C160 0.951 . S
H201 C161 0.950 . S
H202 C167 0.949 . S
H203 C168 0.950 . S
H204 C172 0.951 . S
H205 C173 0.950 . S
H206 C177 0.949 . S
H207 C178 0.950 . S
H208 C182 0.950 . S
H209 C184 0.950 . S
H210 C187 0.950 . S
H211 C189 0.950 . S
C212 C213 1.443 . S
C212 N216 1.376 . S
C212 C250 1.389 . S
C213 C212 1.443 . S
C213 C214 1.340 . S
C213 H253 0.951 . S
C214 C213 1.340 . S
C214 C215 1.439 . S
C214 H254 0.950 . S
C215 C214 1.439 . S
C215 N216 1.374 . S
C215 C249 1.395 . S
N216 C212 1.376 . S
N216 C215 1.374 . S
N216 Co217 2.008 . S
Co217 N216 2.008 . S
Co217 N218 1.995 . S
Co217 N223 2.008 . S
Co217 N228 1.995 . S
Co217 N233 2.282 . S
Co217 N239 2.282 . S
N218 Co217 1.995 . S
N218 C219 1.376 . S
N218 C222 1.383 . S
C219 N218 1.376 . S
C219 C220 1.446 . S
C219 C249 1.391 . S
C220 C219 1.446 . S
C220 C221 1.339 . S
C220 H255 0.949 . S
C221 C220 1.339 . S
C221 C222 1.439 . S
C221 H256 0.950 . S
C222 N218 1.383 . S
C222 C221 1.439 . S
C222 C251 1.392 . S
N223 Co217 2.008 . S
N223 C224 1.376 . S
N223 C227 1.374 . S
C224 N223 1.376 . S
C224 C225 1.443 . S
C224 C251 1.389 . S
C225 C224 1.443 . S
C225 C226 1.340 . S
C225 H257 0.951 . S
C226 C225 1.340 . S
C226 C227 1.439 . S
C226 H258 0.950 . S
C227 N223 1.374 . S
C227 C226 1.439 . S
C227 C252 1.395 . S
N228 Co217 1.995 . S
N228 C229 1.376 . S
N228 C232 1.383 . S
C229 N228 1.376 . S
C229 C230 1.446 . S
C229 C252 1.391 . S
C230 C229 1.446 . S
C230 C231 1.339 . S
C230 H259 0.949 . S
C231 C230 1.339 . S
C231 C232 1.439 . S
C231 H260 0.950 . S
C232 N228 1.383 . S
C232 C231 1.439 . S
C232 C250 1.392 . S
N233 Co217 2.282 . S
N233 C236 1.332 . S
N233 C238 1.332 . S
C234 C235 1.386 . S
C234 C237 1.388 . S
C235 C234 1.386 . S
C235 C236 1.382 . S
C235 H261 0.950 . S
C236 N233 1.332 . S
C236 C235 1.382 . S
C236 H247 0.952 . S
C237 C234 1.388 . S
C237 C238 1.382 . S
C237 H262 0.950 . S
C238 N233 1.332 . S
C238 C237 1.382 . S
C238 H248 0.948 . S
N239 Co217 2.282 . S
N239 C243 1.332 . S
N239 C244 1.332 . S
C240 C241 1.388 . S
C240 C244 1.382 1_455 S
C240 H263 0.950 . S
C241 C240 1.388 . S
C241 C242 1.386 1_455 S
C242 C241 1.386 1_655 S
C242 C243 1.382 . S
C242 H264 0.950 . S
C243 N239 1.332 . S
C243 C242 1.382 . S
C243 H245 0.952 . S
C244 N239 1.332 . S
C244 C240 1.382 1_655 S
C244 H246 0.948 . S
H245 C243 0.952 . S
H246 C244 0.948 . S
H247 C236 0.952 . S
H248 C238 0.948 . S
C249 C215 1.395 . S
C249 C219 1.391 . S
C250 C212 1.389 . S
C250 C232 1.392 . S
C251 C222 1.392 . S
C251 C224 1.389 . S
C252 C227 1.395 . S
C252 C229 1.391 . S
H253 C213 0.951 . S
H254 C214 0.950 . S
H255 C220 0.949 . S
H256 C221 0.950 . S
H257 C225 0.951 . S
H258 C226 0.950 . S
H259 C230 0.949 . S
H260 C231 0.950 . S
H261 C235 0.950 . S
H262 C237 0.950 . S
H263 C240 0.950 . S
H264 C242 0.950 . S
C265 C266 1.443 . S
C265 N269 1.376 . S
C265 C303 1.389 . S
C266 C265 1.443 . S
C266 C267 1.340 . S
C266 H306 0.951 . S
C267 C266 1.340 . S
C267 C268 1.439 . S
C267 H307 0.950 . S
C268 C267 1.439 . S
C268 N269 1.374 . S
C268 C302 1.395 . S
N269 C265 1.376 . S
N269 C268 1.374 . S
N269 Co270 2.008 . S
Co270 N269 2.008 . S
Co270 N271 1.995 . S
Co270 N276 2.008 . S
Co270 N281 1.995 . S
Co270 N286 2.282 . S
Co270 N292 2.282 . S
N271 Co270 1.995 . S
N271 C272 1.376 . S
N271 C275 1.383 . S
C272 N271 1.376 . S
C272 C273 1.446 . S
C272 C302 1.391 . S
C273 C272 1.446 . S
C273 C274 1.339 . S
C273 H308 0.949 . S
C274 C273 1.339 . S
C274 C275 1.439 . S
C274 H309 0.950 . S
C275 N271 1.383 . S
C275 C274 1.439 . S
C275 C304 1.392 . S
N276 Co270 2.008 . S
N276 C277 1.376 . S
N276 C280 1.374 . S
C277 N276 1.376 . S
C277 C278 1.443 . S
C277 C304 1.389 . S
C278 C277 1.443 . S
C278 C279 1.340 . S
C278 H310 0.951 . S
C279 C278 1.340 . S
C279 C280 1.439 . S
C279 H311 0.950 . S
C280 N276 1.374 . S
C280 C279 1.439 . S
C280 C305 1.395 . S
N281 Co270 1.995 . S
N281 C282 1.376 . S
N281 C285 1.383 . S
C282 N281 1.376 . S
C282 C283 1.446 . S
C282 C305 1.391 . S
C283 C282 1.446 . S
C283 C284 1.339 . S
C283 H312 0.949 . S
C284 C283 1.339 . S
C284 C285 1.439 . S
C284 H313 0.950 . S
C285 N281 1.383 . S
C285 C284 1.439 . S
C285 C303 1.392 . S
N286 Co270 2.282 . S
N286 C289 1.332 . S
N286 C291 1.332 . S
C287 C288 1.386 . S
C287 C290 1.388 . S
C288 C287 1.386 . S
C288 C289 1.382 . S
C288 H314 0.950 . S
C289 N286 1.332 . S
C289 C288 1.382 . S
C289 H300 0.952 . S
C290 C287 1.388 . S
C290 C291 1.382 . S
C290 H315 0.950 . S
C291 N286 1.332 . S
C291 C290 1.382 . S
C291 H301 0.948 . S
N292 Co270 2.282 . S
N292 C296 1.332 . S
N292 C297 1.332 . S
C293 C294 1.388 . S
C293 C297 1.382 1_545 S
C293 H316 0.950 . S
C294 C293 1.388 . S
C294 C295 1.386 1_545 S
C295 C294 1.386 1_565 S
C295 C296 1.382 . S
C295 H317 0.950 . S
C296 N292 1.332 . S
C296 C295 1.382 . S
C296 H298 0.952 . S
C297 N292 1.332 . S
C297 C293 1.382 1_565 S
C297 H299 0.948 . S
H298 C296 0.952 . S
H299 C297 0.948 . S
H300 C289 0.952 . S
H301 C291 0.948 . S
C302 C268 1.395 . S
C302 C272 1.391 . S
C303 C265 1.389 . S
C303 C285 1.392 . S
C304 C275 1.392 . S
C304 C277 1.389 . S
C305 C280 1.395 . S
C305 C282 1.391 . S
H306 C266 0.951 . S
H307 C267 0.950 . S
H308 C273 0.949 . S
H309 C274 0.950 . S
H310 C278 0.951 . S
H311 C279 0.950 . S
H312 C283 0.949 . S
H313 C284 0.950 . S
H314 C288 0.950 . S
H315 C290 0.950 . S
H316 C293 0.950 . S
H317 C295 0.950 . S
H318 C326 0.950 . S
H319 C331 0.950 . S
H320 C328 0.950 . S
H321 C330 0.950 . S
H322 C332 0.950 . S
H323 C334 0.950 . S
H324 C336 0.950 . S
H325 C337 0.950 . S
C326 H318 0.950 . S
C326 C327 1.386 . S
C326 C328 1.391 . S
C327 C326 1.386 . S
C327 C331 1.393 . S
C328 H320 0.950 . S
C328 C326 1.391 . S
C328 C329 1.400 . S
C329 C328 1.400 . S
C329 C330 1.398 . S
C329 C335 1.491 . S
C330 H321 0.950 . S
C330 C329 1.398 . S
C330 C331 1.391 . S
C331 H319 0.950 . S
C331 C327 1.393 . S
C331 C330 1.391 . S
C332 H322 0.950 . S
C332 C333 1.386 . S
C332 C334 1.391 . S
C333 C332 1.386 . S
C333 C337 1.393 . S
C334 H323 0.950 . S
C334 C332 1.391 . S
C334 C335 1.400 . S
C335 C329 1.491 . S
C335 C334 1.400 . S
C335 C336 1.398 . S
C336 H324 0.950 . S
C336 C335 1.398 . S
C336 C337 1.391 . S
C337 H325 0.950 . S
C337 C333 1.393 . S
C337 C336 1.391 . S
H338 C346 0.950 . S
H339 C351 0.950 . S
H340 C348 0.950 . S
H341 C350 0.950 . S
H342 C352 0.950 . S
H343 C354 0.950 . S
H344 C356 0.950 . S
H345 C357 0.950 . S
C346 H338 0.950 . S
C346 C347 1.386 . S
C346 C348 1.391 . S
C347 C346 1.386 . S
C347 C351 1.393 . S
C348 H340 0.950 . S
C348 C346 1.391 . S
C348 C349 1.400 . S
C349 C348 1.400 . S
C349 C350 1.398 . S
C349 C355 1.491 . S
C350 H341 0.950 . S
C350 C349 1.398 . S
C350 C351 1.391 . S
C351 H339 0.950 . S
C351 C347 1.393 . S
C351 C350 1.391 . S
C352 H342 0.950 . S
C352 C353 1.386 . S
C352 C354 1.391 . S
C353 C352 1.386 . S
C353 C357 1.393 . S
C354 H343 0.950 . S
C354 C352 1.391 . S
C354 C355 1.400 . S
C355 C349 1.491 . S
C355 C354 1.400 . S
C355 C356 1.398 . S
C356 H344 0.950 . S
C356 C355 1.398 . S
C356 C357 1.391 . S
C357 H345 0.950 . S
C357 C353 1.393 . S
C357 C356 1.391 . S
H358 C366 0.950 . S
H359 C371 0.950 . S
H360 C368 0.950 . S
H361 C370 0.950 . S
H362 C372 0.950 . S
H363 C374 0.950 . S
H364 C376 0.950 . S
H365 C377 0.950 . S
C366 H358 0.950 . S
C366 C367 1.386 . S
C366 C368 1.391 . S
C367 C366 1.386 . S
C367 C371 1.393 . S
C368 H360 0.950 . S
C368 C366 1.391 . S
C368 C369 1.400 . S
C369 C368 1.400 . S
C369 C370 1.398 . S
C369 C375 1.491 . S
C370 H361 0.950 . S
C370 C369 1.398 . S
C370 C371 1.391 . S
C371 H359 0.950 . S
C371 C367 1.393 . S
C371 C370 1.391 . S
C372 H362 0.950 . S
C372 C373 1.386 . S
C372 C374 1.391 . S
C373 C372 1.386 . S
C373 C377 1.393 . S
C374 H363 0.950 . S
C374 C372 1.391 . S
C374 C375 1.400 . S
C375 C369 1.491 . S
C375 C374 1.400 . S
C375 C376 1.398 . S
C376 H364 0.950 . S
C376 C375 1.398 . S
C376 C377 1.391 . S
C377 H365 0.950 . S
C377 C373 1.393 . S
C377 C376 1.391 . S
H378 C386 0.950 . S
H379 C391 0.950 . S
H380 C388 0.950 . S
H381 C390 0.950 . S
H382 C392 0.950 . S
H383 C394 0.950 . S
H384 C396 0.950 . S
H385 C397 0.950 . S
C386 H378 0.950 . S
C386 C387 1.386 . S
C386 C388 1.391 . S
C387 C386 1.386 . S
C387 C391 1.393 . S
C388 H380 0.950 . S
C388 C386 1.391 . S
C388 C389 1.400 . S
C389 C388 1.400 . S
C389 C390 1.398 . S
C389 C395 1.491 . S
C390 H381 0.950 . S
C390 C389 1.398 . S
C390 C391 1.391 . S
C391 H379 0.950 . S
C391 C387 1.393 . S
C391 C390 1.391 . S
C392 H382 0.950 . S
C392 C393 1.386 . S
C392 C394 1.391 . S
C393 C392 1.386 . S
C393 C397 1.393 . S
C394 H383 0.950 . S
C394 C392 1.391 . S
C394 C395 1.400 . S
C395 C389 1.491 . S
C395 C394 1.400 . S
C395 C396 1.398 . S
C396 H384 0.950 . S
C396 C395 1.398 . S
C396 C397 1.391 . S
C397 H385 0.950 . S
C397 C393 1.393 . S
C397 C396 1.391 . S
H398 C406 0.950 . S
H399 C411 0.950 . S
H400 C408 0.950 . S
H401 C410 0.950 . S
H402 C412 0.950 . S
H403 C414 0.950 . S
H404 C416 0.950 . S
H405 C417 0.950 . S
C406 H398 0.950 . S
C406 C407 1.386 . S
C406 C408 1.391 . S
C407 C406 1.386 . S
C407 C411 1.393 . S
C408 H400 0.950 . S
C408 C406 1.391 . S
C408 C409 1.400 . S
C409 C408 1.400 . S
C409 C410 1.398 . S
C409 C415 1.491 . S
C410 H401 0.950 . S
C410 C409 1.398 . S
C410 C411 1.391 . S
C411 H399 0.950 . S
C411 C407 1.393 . S
C411 C410 1.391 . S
C412 H402 0.950 . S
C412 C413 1.386 . S
C412 C414 1.391 . S
C413 C412 1.386 . S
C413 C417 1.393 1_655 S
C414 H403 0.950 . S
C414 C412 1.391 . S
C414 C415 1.400 1_655 S
C415 C409 1.491 . S
C415 C414 1.400 1_455 S
C415 C416 1.398 . S
C416 H404 0.950 . S
C416 C415 1.398 . S
C416 C417 1.391 . S
C417 H405 0.950 . S
C417 C413 1.393 1_455 S
C417 C416 1.391 . S
H418 C426 0.950 . S
H419 C431 0.950 . S
H420 C428 0.950 . S
H421 C430 0.950 . S
H422 C432 0.950 . S
H423 C434 0.950 . S
H424 C436 0.950 . S
H425 C437 0.950 . S
C426 H418 0.950 . S
C426 C427 1.386 . S
C426 C428 1.391 . S
C427 C426 1.386 . S
C427 C431 1.393 . S
C428 H420 0.950 . S
C428 C426 1.391 . S
C428 C429 1.400 . S
C429 C428 1.400 . S
C429 C430 1.398 . S
C429 C435 1.491 . S
C430 H421 0.950 . S
C430 C429 1.398 . S
C430 C431 1.391 . S
C431 H419 0.950 . S
C431 C427 1.393 . S
C431 C430 1.391 . S
C432 H422 0.950 . S
C432 C433 1.386 1_545 S
C432 C434 1.391 . S
C433 C432 1.386 1_565 S
C433 C437 1.393 . S
C434 H423 0.950 . S
C434 C432 1.391 . S
C434 C435 1.400 . S
C435 C429 1.491 . S
C435 C434 1.400 . S
C435 C436 1.398 1_545 S
C436 H424 0.950 . S
C436 C435 1.398 1_565 S
C436 C437 1.391 . S
C437 H425 0.950 . S
C437 C433 1.393 . S
C437 C436 1.391 . S
H438 C446 0.950 . S
H439 C451 0.950 . S
H440 C448 0.950 . S
H441 C450 0.950 . S
H442 C452 0.950 1_565 S
H443 C454 0.950 . S
H444 C456 0.950 . S
H445 C457 0.950 1_655 S
C446 H438 0.950 . S
C446 C447 1.386 . S
C446 C448 1.391 . S
C447 C446 1.386 . S
C447 C451 1.393 . S
C448 H440 0.950 . S
C448 C446 1.391 . S
C448 C449 1.400 . S
C449 C448 1.400 . S
C449 C450 1.398 . S
C449 C455 1.491 . S
C450 H441 0.950 . S
C450 C449 1.398 . S
C450 C451 1.391 . S
C451 H439 0.950 . S
C451 C447 1.393 . S
C451 C450 1.391 . S
C452 H442 0.950 1_545 S
C452 C453 1.386 1_455 S
C452 C454 1.391 . S
C453 C452 1.386 1_655 S
C453 C457 1.393 1_655 S
C454 H443 0.950 . S
C454 C452 1.391 . S
C454 C455 1.400 . S
C455 C449 1.491 . S
C455 C454 1.400 . S
C455 C456 1.398 . S
C456 H444 0.950 . S
C456 C455 1.398 . S
C456 C457 1.391 . S
C457 H445 0.950 1_455 S
C457 C453 1.393 1_455 S
C457 C456 1.391 . S
H458 C466 0.950 . S
H459 C471 0.950 1_565 S
H460 C468 0.950 . S
H461 C470 0.950 . S
H462 C472 0.950 . S
H463 C474 0.950 . S
H464 C476 0.950 . S
H465 C477 0.950 . S
C466 H458 0.950 . S
C466 C467 1.386 1_545 S
C466 C468 1.391 . S
C467 C466 1.386 1_565 S
C467 C471 1.393 1_565 S
C468 H460 0.950 . S
C468 C466 1.391 . S
C468 C469 1.400 . S
C469 C468 1.400 . S
C469 C470 1.398 . S
C469 C475 1.491 . S
C470 H461 0.950 . S
C470 C469 1.398 . S
C470 C471 1.391 . S
C471 H459 0.950 1_545 S
C471 C467 1.393 1_545 S
C471 C470 1.391 . S
C472 H462 0.950 . S
C472 C473 1.386 . S
C472 C474 1.391 . S
C473 C472 1.386 . S
C473 C477 1.393 . S
C474 H463 0.950 . S
C474 C472 1.391 . S
C474 C475 1.400 . S
C475 C469 1.491 . S
C475 C474 1.400 . S
C475 C476 1.398 . S
C476 H464 0.950 . S
C476 C475 1.398 . S
C476 C477 1.391 . S
C477 H465 0.950 . S
C477 C473 1.393 . S
C477 C476 1.391 . S
H478 C486 0.950 . S
H479 C491 0.950 . S
H480 C488 0.950 . S
H481 C490 0.950 . S
H482 C492 0.950 . S
H483 C494 0.950 . S
H484 C496 0.950 . S
H485 C497 0.950 . S
C486 H478 0.950 . S
C486 C487 1.386 . S
C486 C488 1.391 . S
C487 C486 1.386 . S
C487 C491 1.393 . S
C488 H480 0.950 . S
C488 C486 1.391 . S
C488 C489 1.400 . S
C489 C488 1.400 . S
C489 C490 1.398 . S
C489 C495 1.491 . S
C490 H481 0.950 . S
C490 C489 1.398 . S
C490 C491 1.391 . S
C491 H479 0.950 . S
C491 C487 1.393 . S
C491 C490 1.391 . S
C492 H482 0.950 . S
C492 C493 1.386 . S
C492 C494 1.391 . S
C493 C492 1.386 . S
C493 C497 1.393 . S
C494 H483 0.950 . S
C494 C492 1.391 . S
C494 C495 1.400 . S
C495 C489 1.491 . S
C495 C494 1.400 . S
C495 C496 1.398 . S
C496 H484 0.950 . S
C496 C495 1.398 . S
C496 C497 1.391 . S
C497 H485 0.950 . S
C497 C493 1.393 . S
C497 C496 1.391 . S
H498 C506 0.950 1_556 S
H499 C511 0.950 . S
H500 C508 0.950 1_556 S
H501 C510 0.950 . S
H502 C512 0.950 . S
H503 C514 0.950 . S
H504 C516 0.950 1_556 S
H505 C517 0.950 1_556 S
C506 H498 0.950 1_554 S
C506 C507 1.386 . S
C506 C508 1.391 . S
C507 C506 1.386 . S
C507 C511 1.393 . S
C508 H500 0.950 1_554 S
C508 C506 1.391 . S
C508 C509 1.400 . S
C509 C508 1.400 . S
C509 C510 1.398 . S
C509 C515 1.491 . S
C510 H501 0.950 . S
C510 C509 1.398 . S
C510 C511 1.391 . S
C511 H499 0.950 . S
C511 C507 1.393 . S
C511 C510 1.391 . S
C512 H502 0.950 . S
C512 C513 1.386 . S
C512 C514 1.391 . S
C513 C512 1.386 . S
C513 C517 1.393 . S
C514 H503 0.950 . S
C514 C512 1.391 . S
C514 C515 1.400 . S
C515 C509 1.491 . S
C515 C514 1.400 . S
C515 C516 1.398 . S
C516 H504 0.950 1_554 S
C516 C515 1.398 . S
C516 C517 1.391 . S
C517 H505 0.950 1_554 S
C517 C513 1.393 . S
C517 C516 1.391 . S
H518 C526 0.950 . S
H519 C531 0.950 . S
H520 C528 0.950 . S
H521 C530 0.950 . S
H522 C532 0.950 . S
H523 C534 0.950 . S
H524 C536 0.950 . S
H525 C537 0.950 . S
C526 H518 0.950 . S
C526 C527 1.386 . S
C526 C528 1.391 . S
C527 C526 1.386 . S
C527 C531 1.393 . S
C528 H520 0.950 . S
C528 C526 1.391 . S
C528 C529 1.400 . S
C529 C528 1.400 . S
C529 C530 1.398 . S
C529 C535 1.491 . S
C530 H521 0.950 . S
C530 C529 1.398 . S
C530 C531 1.391 . S
C531 H519 0.950 . S
C531 C527 1.393 . S
C531 C530 1.391 . S
C532 H522 0.950 . S
C532 C533 1.386 . S
C532 C534 1.391 . S
C533 C532 1.386 . S
C533 C537 1.393 . S
C534 H523 0.950 . S
C534 C532 1.391 . S
C534 C535 1.400 . S
C535 C529 1.491 . S
C535 C534 1.400 . S
C535 C536 1.398 . S
C536 H524 0.950 . S
C536 C535 1.398 . S
C536 C537 1.391 . S
C537 H525 0.950 . S
C537 C533 1.393 . S
C537 C536 1.391 . S
H538 C546 0.950 . S
H539 C551 0.950 . S
H540 C548 0.950 . S
H541 C550 0.950 . S
H542 C552 0.950 . S
H543 C554 0.950 . S
H544 C556 0.950 . S
H545 C557 0.950 . S
C546 H538 0.950 . S
C546 C547 1.386 . S
C546 C548 1.391 . S
C547 C546 1.386 . S
C547 C551 1.393 . S
C548 H540 0.950 . S
C548 C546 1.391 . S
C548 C549 1.400 . S
C549 C548 1.400 . S
C549 C550 1.398 . S
C549 C555 1.491 . S
C550 H541 0.950 . S
C550 C549 1.398 . S
C550 C551 1.391 . S
C551 H539 0.950 . S
C551 C547 1.393 . S
C551 C550 1.391 . S
C552 H542 0.950 . S
C552 C553 1.386 . S
C552 C554 1.391 . S
C553 C552 1.386 . S
C553 C557 1.393 . S
C554 H543 0.950 . S
C554 C552 1.391 . S
C554 C555 1.400 . S
C555 C549 1.491 . S
C555 C554 1.400 . S
C555 C556 1.398 . S
C556 H544 0.950 . S
C556 C555 1.398 . S
C556 C557 1.391 . S
C557 H545 0.950 . S
C557 C553 1.393 . S
C557 C556 1.391 . S
C327 C38 1.926 . S
C333 C92 1.868 . S
C347 C91 1.930 . S
C353 C145 1.882 . S
C367 C198 1.865 . S
C373 C144 1.929 . S
C387 C197 1.929 . S
C393 C251 1.865 . S
C407 C304 1.883 . S
C413 C250 1.927 . S
C427 C39 1.866 . S
C433 C303 1.930 . S
C447 C29 1.545 . S
C453 C188 1.550 . S
C467 C241 1.542 . S
C473 C82 1.545 . S
C487 C135 1.568 . S
C493 C294 1.563 . S
C507 C181 1.930 . S
C513 C22 1.935 . S
C527 C234 1.922 . S
C533 C75 1.925 . S
C547 C287 1.932 . S
C553 C128 1.927 . S
