# Generated by pormake.
# Topology unu, (4)-cn, num edge types: 1
# Building blocks:
#     Node 0, Type 0, BuildingBlock: KUFVIS_clean_sbu_0, # of connection points: 4
#     Node 1, Type 0, BuildingBlock: KUFVIS_clean_sbu_0, # of connection points: 4
#     Node 2, Type 0, BuildingBlock: KUFVIS_clean_sbu_0, # of connection points: 4
#     Node 3, Type 0, BuildingBlock: KUFVIS_clean_sbu_0, # of connection points: 4
#     Node 4, Type 0, BuildingBlock: KUFVIS_clean_sbu_0, # of connection points: 4
#     Node 5, Type 0, BuildingBlock: KUFVIS_clean_sbu_0, # of connection points: 4
#     Node 6, Type 0, BuildingBlock: KUFVIS_clean_sbu_0, # of connection points: 4
#     Node 7, Type 0, BuildingBlock: KUFVIS_clean_sbu_0, # of connection points: 4
#     Node 8, Type 0, BuildingBlock: KUFVIS_clean_sbu_0, # of connection points: 4
#     Node 9, Type 0, BuildingBlock: KUFVIS_clean_sbu_0, # of connection points: 4
#     Node 10, Type 0, BuildingBlock: KUFVIS_clean_sbu_0, # of connection points: 4
#     Node 11, Type 0, BuildingBlock: KUFVIS_clean_sbu_0, # of connection points: 4
#     Node 12, Type 0, BuildingBlock: KUFVIS_clean_sbu_0, # of connection points: 4
#     Node 13, Type 0, BuildingBlock: KUFVIS_clean_sbu_0, # of connection points: 4
#     Node 14, Type 0, BuildingBlock: KUFVIS_clean_sbu_0, # of connection points: 4
#     Node 15, Type 0, BuildingBlock: KUFVIS_clean_sbu_0, # of connection points: 4
#     Node 16, Type 0, BuildingBlock: KUFVIS_clean_sbu_0, # of connection points: 4
#     Node 17, Type 0, BuildingBlock: KUFVIS_clean_sbu_0, # of connection points: 4
#     Node 18, Type 0, BuildingBlock: KUFVIS_clean_sbu_0, # of connection points: 4
#     Node 19, Type 0, BuildingBlock: KUFVIS_clean_sbu_0, # of connection points: 4
#     Node 20, Type 0, BuildingBlock: KUFVIS_clean_sbu_0, # of connection points: 4
#     Node 21, Type 0, BuildingBlock: KUFVIS_clean_sbu_0, # of connection points: 4
#     Node 22, Type 0, BuildingBlock: KUFVIS_clean_sbu_0, # of connection points: 4
#     Node 23, Type 0, BuildingBlock: KUFVIS_clean_sbu_0, # of connection points: 4
#     Node 24, Type 0, BuildingBlock: KUFVIS_clean_sbu_0, # of connection points: 4
#     Node 25, Type 0, BuildingBlock: KUFVIS_clean_sbu_0, # of connection points: 4
#     Node 26, Type 0, BuildingBlock: KUFVIS_clean_sbu_0, # of connection points: 4
#     Node 27, Type 0, BuildingBlock: KUFVIS_clean_sbu_0, # of connection points: 4
#     Node 28, Type 0, BuildingBlock: KUFVIS_clean_sbu_0, # of connection points: 4
#     Node 29, Type 0, BuildingBlock: KUFVIS_clean_sbu_0, # of connection points: 4
#     Node 30, Type 0, BuildingBlock: KUFVIS_clean_sbu_0, # of connection points: 4
#     Node 31, Type 0, BuildingBlock: KUFVIS_clean_sbu_0, # of connection points: 4
#     Node 32, Type 0, BuildingBlock: KUFVIS_clean_sbu_0, # of connection points: 4
#     Node 33, Type 0, BuildingBlock: KUFVIS_clean_sbu_0, # of connection points: 4
#     Node 34, Type 0, BuildingBlock: KUFVIS_clean_sbu_0, # of connection points: 4
#     Node 35, Type 0, BuildingBlock: KUFVIS_clean_sbu_0, # of connection points: 4
#     Edge 36, Type (0, 0), BuildingBlock: KIFKEQ_clean_linker_1, # of connection points: 2
#     Edge 37, Type (0, 0), BuildingBlock: KIFKEQ_clean_linker_1, # of connection points: 2
#     Edge 38, Type (0, 0), BuildingBlock: KIFKEQ_clean_linker_1, # of connection points: 2
#     Edge 39, Type (0, 0), BuildingBlock: KIFKEQ_clean_linker_1, # of connection points: 2
#     Edge 40, Type (0, 0), BuildingBlock: KIFKEQ_clean_linker_1, # of connection points: 2
#     Edge 41, Type (0, 0), BuildingBlock: KIFKEQ_clean_linker_1, # of connection points: 2
#     Edge 42, Type (0, 0), BuildingBlock: KIFKEQ_clean_linker_1, # of connection points: 2
#     Edge 43, Type (0, 0), BuildingBlock: KIFKEQ_clean_linker_1, # of connection points: 2
#     Edge 44, Type (0, 0), BuildingBlock: KIFKEQ_clean_linker_1, # of connection points: 2
#     Edge 45, Type (0, 0), BuildingBlock: KIFKEQ_clean_linker_1, # of connection points: 2
#     Edge 46, Type (0, 0), BuildingBlock: KIFKEQ_clean_linker_1, # of connection points: 2
#     Edge 47, Type (0, 0), BuildingBlock: KIFKEQ_clean_linker_1, # of connection points: 2
#     Edge 48, Type (0, 0), BuildingBlock: KIFKEQ_clean_linker_1, # of connection points: 2
#     Edge 49, Type (0, 0), BuildingBlock: KIFKEQ_clean_linker_1, # of connection points: 2
#     Edge 50, Type (0, 0), BuildingBlock: KIFKEQ_clean_linker_1, # of connection points: 2
#     Edge 51, Type (0, 0), BuildingBlock: KIFKEQ_clean_linker_1, # of connection points: 2
#     Edge 52, Type (0, 0), BuildingBlock: KIFKEQ_clean_linker_1, # of connection points: 2
#     Edge 53, Type (0, 0), BuildingBlock: KIFKEQ_clean_linker_1, # of connection points: 2
#     Edge 54, Type (0, 0), BuildingBlock: KIFKEQ_clean_linker_1, # of connection points: 2
#     Edge 55, Type (0, 0), BuildingBlock: KIFKEQ_clean_linker_1, # of connection points: 2
#     Edge 56, Type (0, 0), BuildingBlock: KIFKEQ_clean_linker_1, # of connection points: 2
#     Edge 57, Type (0, 0), BuildingBlock: KIFKEQ_clean_linker_1, # of connection points: 2
#     Edge 58, Type (0, 0), BuildingBlock: KIFKEQ_clean_linker_1, # of connection points: 2
#     Edge 59, Type (0, 0), BuildingBlock: KIFKEQ_clean_linker_1, # of connection points: 2
#     Edge 60, Type (0, 0), BuildingBlock: KIFKEQ_clean_linker_1, # of connection points: 2
#     Edge 61, Type (0, 0), BuildingBlock: KIFKEQ_clean_linker_1, # of connection points: 2
#     Edge 62, Type (0, 0), BuildingBlock: KIFKEQ_clean_linker_1, # of connection points: 2
#     Edge 63, Type (0, 0), BuildingBlock: KIFKEQ_clean_linker_1, # of connection points: 2
#     Edge 64, Type (0, 0), BuildingBlock: KIFKEQ_clean_linker_1, # of connection points: 2
#     Edge 65, Type (0, 0), BuildingBlock: KIFKEQ_clean_linker_1, # of connection points: 2
#     Edge 66, Type (0, 0), BuildingBlock: KIFKEQ_clean_linker_1, # of connection points: 2
#     Edge 67, Type (0, 0), BuildingBlock: KIFKEQ_clean_linker_1, # of connection points: 2
#     Edge 68, Type (0, 0), BuildingBlock: KIFKEQ_clean_linker_1, # of connection points: 2
#     Edge 69, Type (0, 0), BuildingBlock: KIFKEQ_clean_linker_1, # of connection points: 2
#     Edge 70, Type (0, 0), BuildingBlock: KIFKEQ_clean_linker_1, # of connection points: 2
#     Edge 71, Type (0, 0), BuildingBlock: KIFKEQ_clean_linker_1, # of connection points: 2
#     Edge 72, Type (0, 0), BuildingBlock: KIFKEQ_clean_linker_1, # of connection points: 2
#     Edge 73, Type (0, 0), BuildingBlock: KIFKEQ_clean_linker_1, # of connection points: 2
#     Edge 74, Type (0, 0), BuildingBlock: KIFKEQ_clean_linker_1, # of connection points: 2
#     Edge 75, Type (0, 0), BuildingBlock: KIFKEQ_clean_linker_1, # of connection points: 2
#     Edge 76, Type (0, 0), BuildingBlock: KIFKEQ_clean_linker_1, # of connection points: 2
#     Edge 77, Type (0, 0), BuildingBlock: KIFKEQ_clean_linker_1, # of connection points: 2
#     Edge 78, Type (0, 0), BuildingBlock: KIFKEQ_clean_linker_1, # of connection points: 2
#     Edge 79, Type (0, 0), BuildingBlock: KIFKEQ_clean_linker_1, # of connection points: 2
#     Edge 80, Type (0, 0), BuildingBlock: KIFKEQ_clean_linker_1, # of connection points: 2
#     Edge 81, Type (0, 0), BuildingBlock: KIFKEQ_clean_linker_1, # of connection points: 2
#     Edge 82, Type (0, 0), BuildingBlock: KIFKEQ_clean_linker_1, # of connection points: 2
#     Edge 83, Type (0, 0), BuildingBlock: KIFKEQ_clean_linker_1, # of connection points: 2
#     Edge 84, Type (0, 0), BuildingBlock: KIFKEQ_clean_linker_1, # of connection points: 2
#     Edge 85, Type (0, 0), BuildingBlock: KIFKEQ_clean_linker_1, # of connection points: 2
#     Edge 86, Type (0, 0), BuildingBlock: KIFKEQ_clean_linker_1, # of connection points: 2
#     Edge 87, Type (0, 0), BuildingBlock: KIFKEQ_clean_linker_1, # of connection points: 2
#     Edge 88, Type (0, 0), BuildingBlock: KIFKEQ_clean_linker_1, # of connection points: 2
#     Edge 89, Type (0, 0), BuildingBlock: KIFKEQ_clean_linker_1, # of connection points: 2
#     Edge 90, Type (0, 0), BuildingBlock: KIFKEQ_clean_linker_1, # of connection points: 2
#     Edge 91, Type (0, 0), BuildingBlock: KIFKEQ_clean_linker_1, # of connection points: 2
#     Edge 92, Type (0, 0), BuildingBlock: KIFKEQ_clean_linker_1, # of connection points: 2
#     Edge 93, Type (0, 0), BuildingBlock: KIFKEQ_clean_linker_1, # of connection points: 2
#     Edge 94, Type (0, 0), BuildingBlock: KIFKEQ_clean_linker_1, # of connection points: 2
#     Edge 95, Type (0, 0), BuildingBlock: KIFKEQ_clean_linker_1, # of connection points: 2
#     Edge 96, Type (0, 0), BuildingBlock: KIFKEQ_clean_linker_1, # of connection points: 2
#     Edge 97, Type (0, 0), BuildingBlock: KIFKEQ_clean_linker_1, # of connection points: 2
#     Edge 98, Type (0, 0), BuildingBlock: KIFKEQ_clean_linker_1, # of connection points: 2
#     Edge 99, Type (0, 0), BuildingBlock: KIFKEQ_clean_linker_1, # of connection points: 2
#     Edge 100, Type (0, 0), BuildingBlock: KIFKEQ_clean_linker_1, # of connection points: 2
#     Edge 101, Type (0, 0), BuildingBlock: KIFKEQ_clean_linker_1, # of connection points: 2
#     Edge 102, Type (0, 0), BuildingBlock: KIFKEQ_clean_linker_1, # of connection points: 2
#     Edge 103, Type (0, 0), BuildingBlock: KIFKEQ_clean_linker_1, # of connection points: 2
#     Edge 104, Type (0, 0), BuildingBlock: KIFKEQ_clean_linker_1, # of connection points: 2
#     Edge 105, Type (0, 0), BuildingBlock: KIFKEQ_clean_linker_1, # of connection points: 2
#     Edge 106, Type (0, 0), BuildingBlock: KIFKEQ_clean_linker_1, # of connection points: 2
#     Edge 107, Type (0, 0), BuildingBlock: KIFKEQ_clean_linker_1, # of connection points: 2
# Relax obj value: 0.204
# Max RMSD: 0.240
# Mean RMSD: 0.240
data_MOF--net-unu--node1-KUFVIS_clean_sbu_0--edge1-KIFKEQ_clean_linker_1
_symmetry_space_group_name_H-M    P1
_symmetry_Int_Tables_number       1
_symmetry_cell_setting            triclinic
loop_
_symmetry_equiv_pos_as_xyz
'x, y, z'
_cell_length_a     43.060948
_cell_length_b     43.048889
_cell_length_c     112.52204
_cell_angle_alpha  89.996983
_cell_angle_beta   89.983041
_cell_angle_gamma 119.98966
loop_
_atom_site_label
_atom_site_type_symbol
_atom_site_fract_x
_atom_site_fract_y
_atom_site_fract_z
_atom_type_partial_charge
Mn0 Mn 0.20563 0.04764 0.11663 0.0
Mn1 Mn 0.21003 0.98581 0.13375 0.0
C2 C 0.15841 0.98956 0.1167 0.0
C3 C 0.19221 0.09343 0.11545 0.0
C4 C 0.2504 0.01344 0.11044 0.0
O5 O 0.24644 0.07707 0.12786 0.0
O6 O 0.24308 0.03449 0.14032 0.0
C7 C 0.1792 0.99458 0.15615 0.0
N8 N 0.17834 0.97337 0.14703 0.0
C9 C 0.12628 0.92212 0.15519 0.0
C10 C 0.12676 0.94336 0.16472 0.0
C11 C 0.15332 0.97975 0.16519 0.0
C12 C 0.15305 0.93826 0.14653 0.0
H13 H 0.19941 0.02263 0.1565 0.0
C14 C 0.25597 0.06735 0.1372 0.0
O15 O 0.21402 0.09162 0.10786 0.0
O16 O 0.17829 0.06879 0.12354 0.0
N17 N 0.17882 0.93781 0.12839 0.0
C18 C 0.1803 0.92185 0.11811 0.0
C19 C 0.15453 0.88587 0.11597 0.0
C20 C 0.12757 0.86665 0.1244 0.0
C21 C 0.12666 0.88361 0.13493 0.0
C22 C 0.15325 0.91944 0.13663 0.0
H23 H 0.2008 0.93654 0.11155 0.0
O24 O 0.16228 0.01112 0.10804 0.0
O25 O 0.18202 0.00306 0.12519 0.0
O26 O 0.23715 0.03297 0.1074 0.0
O27 O 0.24291 0.99612 0.12023 0.0
C28 C 0.09988 0.86663 0.14366 0.0
C29 C 0.09971 0.88586 0.15379 0.0
H30 H 0.10662 0.93212 0.17164 0.0
H31 H 0.15373 0.99637 0.17247 0.0
H32 H 0.15533 0.87302 0.1078 0.0
H33 H 0.10752 0.83901 0.12266 0.0
H34 H 0.07895 0.83895 0.14258 0.0
H35 H 0.07865 0.87267 0.16034 0.0
Mn36 Mn 0.95896 0.15691 0.11751 0.0
Mn37 Mn 0.02007 0.22574 0.13387 0.0
C38 C 0.0187 0.17409 0.11576 0.0
C39 C 0.91784 0.09573 0.11712 0.0
C40 C 0.98463 0.23494 0.11178 0.0
O41 O 0.92934 0.16447 0.1298 0.0
O42 O 0.97218 0.20587 0.14166 0.0
C43 C 0.01922 0.18588 0.15541 0.0
N44 N 0.03758 0.20791 0.14617 0.0
C45 C 0.09232 0.21036 0.15227 0.0
C46 C 0.07407 0.18796 0.16191 0.0
C47 C 0.03736 0.17565 0.16348 0.0
C48 C 0.07293 0.21999 0.14459 0.0
H49 H 0.99091 0.17604 0.15658 0.0
C50 C 0.93927 0.18393 0.13908 0.0
O51 O 0.9143 0.11749 0.10995 0.0
O52 O 0.94498 0.10968 0.12427 0.0
N53 N 0.06746 0.24688 0.12739 0.0
C54 C 0.08059 0.26649 0.11724 0.0
C55 C 0.11668 0.27991 0.11417 0.0
C56 C 0.1389 0.27306 0.12154 0.0
C57 C 0.12485 0.25302 0.13198 0.0
C58 C 0.08879 0.24073 0.13467 0.0
H59 H 0.0636 0.27163 0.11149 0.0
O60 O 0.99616 0.15469 0.10754 0.0
O61 O 0.00516 0.18191 0.12482 0.0
O62 O 0.96686 0.20192 0.10877 0.0
O63 O 0.00403 0.24615 0.12115 0.0
C64 C 0.14502 0.24409 0.13967 0.0
C65 C 0.12876 0.22278 0.14981 0.0
H66 H 0.08788 0.17972 0.16809 0.0
H67 H 0.02303 0.15814 0.17085 0.0
H68 H 0.1273 0.29529 0.10609 0.0
H69 H 0.16661 0.28308 0.11906 0.0
H70 H 0.17292 0.25307 0.13779 0.0
H71 H 0.14441 0.21567 0.15556 0.0
Mn72 Mn 0.8336 0.79748 0.11742 0.0
Mn73 Mn 0.75839 0.77903 0.13214 0.0
C74 C 0.81168 0.83645 0.11594 0.0
C75 C 0.89562 0.82322 0.11816 0.0
C76 C 0.75954 0.7408 0.10958 0.0
O77 O 0.82689 0.75902 0.12911 0.0
O78 O 0.78106 0.75411 0.14024 0.0
C79 C 0.7883 0.81512 0.15511 0.0
N80 N 0.7686 0.81115 0.14518 0.0
C81 C 0.75582 0.85679 0.15174 0.0
C82 C 0.77575 0.86118 0.16209 0.0
C83 C 0.79208 0.84027 0.16377 0.0
C84 C 0.75253 0.83093 0.1435 0.0
H85 H 0.80116 0.79932 0.15639 0.0
C86 C 0.80577 0.74657 0.13798 0.0
O87 O 0.87687 0.79828 0.11044 0.0
O88 O 0.87824 0.83244 0.12538 0.0
N89 N 0.73475 0.80224 0.12519 0.0
C90 C 0.71921 0.79696 0.11427 0.0
C91 C 0.70322 0.81715 0.11091 0.0
C92 C 0.70338 0.84253 0.11879 0.0
C93 C 0.71957 0.84751 0.12997 0.0
C94 C 0.7348 0.82638 0.13288 0.0
H95 H 0.71921 0.77769 0.10814 0.0
O96 O 0.83379 0.83671 0.10804 0.0
O97 O 0.80353 0.81344 0.12455 0.0
O98 O 0.79285 0.76007 0.10722 0.0
O99 O 0.74471 0.74484 0.11882 0.0
C100 C 0.72192 0.87319 0.13824 0.0
C101 C 0.74 0.8778 0.14912 0.0
H102 H 0.77909 0.88085 0.16872 0.0
H103 H 0.80771 0.84368 0.1717 0.0
H104 H 0.69094 0.81328 0.10224 0.0
H105 H 0.6913 0.85829 0.11612 0.0
H106 H 0.71039 0.88992 0.13623 0.0
H107 H 0.74212 0.89803 0.15531 0.0
Mn108 Mn 0.04594 0.20062 0.38208 0.0
Mn109 Mn 0.98385 0.20472 0.36512 0.0
C110 C 0.98725 0.15496 0.38311 0.0
C111 C 0.0908 0.18587 0.38296 0.0
C112 C 0.01562 0.24891 0.38752 0.0
O113 O 0.07485 0.24013 0.37024 0.0
O114 O 0.03169 0.23368 0.35749 0.0
C115 C 0.98672 0.16605 0.34378 0.0
N116 N 0.96765 0.1692 0.35289 0.0
C117 C 0.91381 0.11622 0.34662 0.0
C118 C 0.9328 0.11258 0.33711 0.0
C119 C 0.96943 0.13758 0.3357 0.0
C120 C 0.93239 0.14532 0.35433 0.0
H121 H 0.01496 0.18502 0.34273 0.0
C122 C 0.06467 0.24739 0.36052 0.0
O123 O 0.09057 0.20894 0.39037 0.0
O124 O 0.06516 0.17149 0.37524 0.0
N125 N 0.93641 0.17732 0.37149 0.0
C126 C 0.92249 0.1834 0.38152 0.0
C127 C 0.88638 0.16011 0.38443 0.0
C128 C 0.86494 0.1309 0.377 0.0
C129 C 0.87976 0.12535 0.36668 0.0
C130 C 0.9158 0.1497 0.36415 0.0
H131 H 0.93883 0.2057 0.38729 0.0
O132 O 0.00971 0.15868 0.39143 0.0
O133 O 0.00038 0.17721 0.37425 0.0
O134 O 0.03306 0.23381 0.39102 0.0
O135 O -0.00159 0.24159 0.3777 0.0
C136 C 0.86038 0.0962 0.35893 0.0
C137 C 0.8774 0.09161 0.34891 0.0
H138 H 0.91964 0.09048 0.33091 0.0
H139 H 0.98433 0.13481 0.32843 0.0
H140 H 0.87515 0.16455 0.39242 0.0
H141 H 0.83721 0.11276 0.37935 0.0
H142 H 0.83252 0.07683 0.36069 0.0
H143 H 0.86236 0.06878 0.34313 0.0
Mn144 Mn 0.79024 0.84335 0.38018 0.0
Mn145 Mn 0.78944 0.77977 0.36257 0.0
C146 C 0.83596 0.83049 0.38156 0.0
C147 C 0.80506 0.90283 0.38194 0.0
C148 C 0.74224 0.76353 0.38446 0.0
O149 O 0.75286 0.8348 0.36782 0.0
O150 O 0.75936 0.79782 0.35519 0.0
C151 C 0.82832 0.82474 0.34183 0.0
N152 N 0.82556 0.80174 0.35061 0.0
C153 C 0.88023 0.80424 0.34437 0.0
C154 C 0.88348 0.82771 0.33519 0.0
C155 C 0.85743 0.83803 0.33392 0.0
C156 C 0.85045 0.7916 0.35191 0.0
H157 H 0.80855 0.83302 0.34089 0.0
C158 C 0.74569 0.81721 0.35814 0.0
O159 O 0.7807 0.87849 0.38878 0.0
O160 O 0.82056 0.89264 0.37428 0.0
N161 N 0.81791 0.76054 0.36863 0.0
C162 C 0.81196 0.73942 0.37835 0.0
C163 C 0.83615 0.72755 0.38108 0.0
C164 C 0.86614 0.73746 0.37378 0.0
C165 C 0.87157 0.759 0.36377 0.0
C166 C 0.8463 0.76963 0.36141 0.0
H167 H 0.78912 0.73191 0.38405 0.0
O168 O 0.8305 0.84744 0.3901 0.0
O169 O 0.81512 0.82268 0.37236 0.0
O170 O 0.75525 0.7958 0.38809 0.0
O171 O 0.75226 0.75502 0.37488 0.0
C172 C 0.90145 0.77095 0.3562 0.0
C173 C 0.90579 0.79358 0.34651 0.0
H174 H 0.90606 0.83827 0.32913 0.0
H175 H 0.85989 0.85633 0.32691 0.0
H176 H 0.83182 0.711 0.38884 0.0
H177 H 0.88498 0.72863 0.376 0.0
H178 H 0.92153 0.76332 0.35784 0.0
H179 H 0.92915 0.80301 0.34085 0.0
Mn180 Mn 0.1513 0.94923 0.38207 0.0
Mn181 Mn 0.21925 0.00937 0.36515 0.0
C182 C 0.16714 0.00872 0.38298 0.0
C183 C 0.09093 0.90659 0.38298 0.0
C184 C 0.22959 0.97682 0.38771 0.0
O185 O 0.15959 0.91882 0.37024 0.0
O186 O 0.19955 0.96098 0.35784 0.0
C187 C 0.17877 0.00654 0.34354 0.0
N188 N 0.20091 0.02571 0.35265 0.0
C189 C 0.20275 0.07976 0.34603 0.0
C190 C 0.18021 0.06066 0.33652 0.0
C191 C 0.16816 0.02389 0.33528 0.0
C192 C 0.21274 0.06112 0.35391 0.0
H193 H 0.16917 0.97819 0.34261 0.0
C194 C 0.17821 0.92821 0.36075 0.0
O195 O 0.11352 0.9055 0.3904 0.0
O196 O 0.10333 0.93233 0.37527 0.0
N197 N 0.24019 0.05722 0.37122 0.0
C198 C 0.2601 0.07127 0.38125 0.0
C199 C 0.2734 0.10758 0.38399 0.0
C200 C 0.26614 0.12907 0.3764 0.0
C201 C 0.24582 0.11409 0.36608 0.0
C202 C 0.23367 0.07785 0.36373 0.0
H203 H 0.26561 0.05486 0.38716 0.0
O204 O 0.14797 0.98685 0.39138 0.0
O205 O 0.17527 0.99463 0.37415 0.0
O206 O 0.19683 0.95981 0.391 0.0
O207 O 0.24039 0.99456 0.378 0.0
C208 C 0.23652 0.1335 0.35817 0.0
C209 C 0.21498 0.11635 0.34816 0.0
H210 H 0.17168 0.07387 0.3302 0.0
H211 H 0.15056 0.00892 0.32801 0.0
H212 H 0.28902 0.11893 0.39198 0.0
H213 H 0.27608 0.15695 0.37862 0.0
H214 H 0.24537 0.16151 0.3598 0.0
H215 H 0.2076 0.13143 0.34224 0.0
Mn216 Mn 0.79276 0.95066 0.88178 0.0
Mn217 Mn 0.78142 0.009 0.86511 0.0
C218 C 0.83691 0.01015 0.88153 0.0
C219 C 0.81123 0.90847 0.88242 0.0
C220 C 0.74322 0.97837 0.88858 0.0
O221 O 0.7513 0.91903 0.87096 0.0
O222 O 0.75207 0.96003 0.8583 0.0
C223 C 0.81442 0.00554 0.84245 0.0
N224 N 0.81318 0.02501 0.85179 0.0
C225 C 0.86236 0.07936 0.8439 0.0
C226 C 0.86396 0.05994 0.83415 0.0
C227 C 0.83991 0.02287 0.83343 0.0
C228 C 0.83604 0.06074 0.85254 0.0
H229 H 0.7962 0.97699 0.84191 0.0
C230 C 0.74076 0.92754 0.86156 0.0
O231 O 0.789 0.90812 0.89032 0.0
O232 O 0.82225 0.93287 0.87425 0.0
N233 N 0.80913 0.0572 0.87081 0.0
C234 C 0.8061 0.07135 0.88129 0.0
C235 C 0.82946 0.10781 0.8837 0.0
C236 C 0.85565 0.12934 0.87533 0.0
C237 C 0.85823 0.1142 0.86461 0.0
C238 C 0.834 0.07777 0.86264 0.0
H239 H 0.7862 0.05491 0.8878 0.0
O240 O 0.83564 0.98916 0.89002 0.0
O241 O 0.81272 0.99521 0.87328 0.0
O242 O 0.76011 0.96233 0.89162 0.0
O243 O 0.74794 0.99475 0.87869 0.0
C244 C 0.88447 0.13361 0.85592 0.0
C245 C 0.88651 0.11622 0.84557 0.0
H246 H 0.88386 0.07312 0.82724 0.0
H247 H 0.84115 0.00765 0.82597 0.0
H248 H 0.8274 0.11926 0.89202 0.0
H249 H 0.87385 0.15737 0.87728 0.0
H250 H 0.90359 0.16182 0.85721 0.0
H251 H 0.90717 0.13131 0.83906 0.0
Mn252 Mn 0.05801 0.85529 0.88331 0.0
Mn253 Mn 0.99629 0.79226 0.86535 0.0
C254 C 2e-05 0.84455 0.88379 0.0
C255 C 0.10465 0.91392 0.88491 0.0
C256 C 0.02422 0.77574 0.8879 0.0
O257 O 0.08701 0.84424 0.87168 0.0
O258 O 0.0447 0.81009 0.8583 0.0
C259 C 0.00356 0.83698 0.8444 0.0
N260 N 0.98284 0.81412 0.85314 0.0
C261 C 0.93093 0.81616 0.84632 0.0
C262 C 0.95165 0.8395 0.83718 0.0
C263 C 0.98813 0.84999 0.83623 0.0
C264 C 0.94771 0.80386 0.85414 0.0
H265 H 0.03168 0.84532 0.84369 0.0
C266 C 0.0774 0.82783 0.86177 0.0
O267 O 0.10245 0.88943 0.89218 0.0
O268 O 0.0798 0.90446 0.87696 0.0
N269 N 0.94829 0.77318 0.8711 0.0
C270 C 0.93248 0.75196 0.88076 0.0
C271 C 0.89619 0.73984 0.88316 0.0
C272 C 0.8765 0.74953 0.87559 0.0
C273 C 0.89322 0.77107 0.86563 0.0
C274 C 0.92936 0.78201 0.86361 0.0
H275 H 0.94746 0.74445 0.88663 0.0
O276 O 0.02192 0.86193 0.8924 0.0
O277 O 0.01336 0.8355 0.87497 0.0
O278 O 0.04233 0.80782 0.89178 0.0
O279 O 0.008 0.76746 0.87787 0.0
C280 C 0.87564 0.78267 0.85776 0.0
C281 C 0.89449 0.80524 0.84812 0.0
H282 H 0.93992 0.84981 0.83091 0.0
H283 H 0.00435 0.86818 0.82925 0.0
H284 H 0.88347 0.72322 0.89086 0.0
H285 H 0.84862 0.74046 0.87755 0.0
H286 H 0.84777 0.77481 0.85914 0.0
H287 H 0.88082 0.8144 0.84223 0.0
Mn288 Mn 0.15956 0.202 0.87965 0.0
Mn289 Mn 0.23324 0.21784 0.86442 0.0
C290 C 0.18279 0.16456 0.88214 0.0
C291 C 0.09752 0.17588 0.87952 0.0
C292 C 0.23479 0.26053 0.88611 0.0
O293 O 0.16396 0.23708 0.86698 0.0
O294 O 0.20997 0.24177 0.85606 0.0
C295 C 0.19882 0.1769 0.84254 0.0
N296 N 0.22023 0.18276 0.85216 0.0
C297 C 0.22949 0.13394 0.8467 0.0
C298 C 0.20776 0.12757 0.83668 0.0
C299 C 0.19236 0.14915 0.83459 0.0
C300 C 0.23533 0.16227 0.85422 0.0
H301 H 0.18662 0.19319 0.84097 0.0
C302 C 0.18467 0.24867 0.858 0.0
O303 O 0.11695 0.20248 0.88663 0.0
O304 O 0.11422 0.16492 0.87266 0.0
N305 N 0.25772 0.19572 0.87155 0.0
C306 C 0.27606 0.20388 0.88201 0.0
C307 C 0.29214 0.18398 0.88562 0.0
C308 C 0.28919 0.15593 0.87845 0.0
C309 C 0.27033 0.14813 0.86769 0.0
C310 C 0.25524 0.16917 0.86448 0.0
H311 H 0.27817 0.22522 0.88761 0.0
O312 O 0.16121 0.16536 0.89003 0.0
O313 O 0.18933 0.18526 0.87295 0.0
O314 O 0.20153 0.24217 0.88873 0.0
O315 O 0.24892 0.25444 0.87706 0.0
C316 C 0.26522 0.11981 0.86016 0.0
C317 C 0.24483 0.11272 0.84967 0.0
H318 H 0.20241 0.10595 0.83059 0.0
H319 H 0.17536 0.14425 0.82692 0.0
H320 H 0.30656 0.19009 0.89396 0.0
H321 H 0.30127 0.14036 0.88134 0.0
H322 H 0.27646 0.103 0.86244 0.0
H323 H 0.24069 0.09056 0.84404 0.0
Mn324 Mn 0.94437 0.7895 0.615 0.0
Mn325 Mn 0.00442 0.78457 0.63277 0.0
C326 C 0.00235 0.83697 0.61556 0.0
C327 C 0.89834 0.80242 0.6135 0.0
C328 C 0.97768 0.74396 0.60946 0.0
O329 O 0.91423 0.74777 0.62593 0.0
O330 O 0.95544 0.75305 0.63936 0.0
C331 C 0.99662 0.81755 0.65481 0.0
N332 N 0.01756 0.81726 0.64579 0.0
C333 C 0.06945 0.86925 0.65366 0.0
C334 C 0.04851 0.86995 0.66309 0.0
C335 C 0.01193 0.844 0.66366 0.0
C336 C 0.05284 0.84195 0.6452 0.0
H337 H 0.96843 0.79782 0.65523 0.0
C338 C 0.92296 0.73924 0.63571 0.0
O339 O 0.90099 0.78116 0.60587 0.0
O340 O 0.92229 0.81609 0.62179 0.0
N341 N 0.0526 0.81455 0.62733 0.0
C342 C 0.06826 0.81202 0.61713 0.0
C343 C 0.10439 0.83713 0.61488 0.0
C344 C 0.12404 0.86454 0.62314 0.0
C345 C 0.10737 0.86658 0.63358 0.0
C346 C 0.07138 0.84061 0.63539 0.0
H347 H 0.05326 0.79118 0.61072 0.0
O348 O 0.98137 0.83352 0.60677 0.0
O349 O 0.9882 0.81289 0.6239 0.0
O350 O 0.96024 0.75892 0.60587 0.0
O351 O 0.99328 0.75026 0.61956 0.0
C352 C 0.12481 0.89389 0.6421 0.0
C353 C 0.10588 0.8952 0.65215 0.0
H354 H 0.06012 0.89055 0.66986 0.0
H355 H 0.99554 0.8445 0.67087 0.0
H356 H 0.11701 0.83547 0.60678 0.0
H357 H 0.1518 0.88407 0.62131 0.0
H358 H 0.15262 0.91436 0.64093 0.0
H359 H 0.11943 0.91666 0.65854 0.0
Mn360 Mn 0.20145 0.16199 0.61889 0.0
Mn361 Mn 0.22147 0.23672 0.63428 0.0
C362 C 0.16459 0.18632 0.61743 0.0
C363 C 0.17312 0.09961 0.61883 0.0
C364 C 0.26024 0.23661 0.61177 0.0
O365 O 0.23755 0.16526 0.63095 0.0
O366 O 0.24608 0.21287 0.64183 0.0
C367 C 0.18524 0.2047 0.65707 0.0
N368 N 0.18939 0.22545 0.64739 0.0
C369 C 0.1439 0.23783 0.65443 0.0
C370 C 0.13931 0.21679 0.66451 0.0
C371 C 0.16006 0.20014 0.66582 0.0
C372 C 0.16977 0.24183 0.64608 0.0
H373 H 0.20096 0.19165 0.65807 0.0
C374 C 0.25143 0.18662 0.63969 0.0
O375 O 0.19926 0.1185 0.61149 0.0
O376 O 0.16417 0.11702 0.62612 0.0
N377 N 0.19878 0.26156 0.62787 0.0
C378 C 0.2044 0.27845 0.61719 0.0
C379 C 0.18452 0.29508 0.61421 0.0
C380 C 0.15909 0.29418 0.62224 0.0
C381 C 0.15378 0.27663 0.63318 0.0
C382 C 0.17461 0.2608 0.63571 0.0
H383 H 0.22371 0.27898 0.61095 0.0
O384 O 0.16442 0.16497 0.60925 0.0
O385 O 0.18653 0.19263 0.62625 0.0
O386 O 0.24125 0.20324 0.60937 0.0
O387 O 0.25545 0.25127 0.62092 0.0
C388 C 0.12806 0.27352 0.64156 0.0
C389 C 0.12315 0.25417 0.65218 0.0
H390 H 0.11963 0.21287 0.67122 0.0
H391 H 0.15651 0.18369 0.67354 0.0
H392 H 0.18865 0.30842 0.60572 0.0
H393 H 0.14358 0.30676 0.61986 0.0
H394 H 0.11155 0.28548 0.63985 0.0
H395 H 0.10292 0.25152 0.65848 0.0
Mn396 Mn 0.84404 0.03993 0.61671 0.0
Mn397 Mn 0.77299 0.97968 0.63251 0.0
C398 C 0.82444 0.97983 0.6145 0.0
C399 C 0.90551 0.07963 0.61666 0.0
C400 C 0.76714 0.01812 0.61073 0.0
O401 O 0.83762 0.06958 0.6293 0.0
O402 O 0.79455 0.02693 0.64078 0.0
C403 C 0.81037 0.97606 0.65408 0.0
N404 N 0.78855 0.95942 0.64463 0.0
C405 C 0.78263 0.90269 0.65014 0.0
C406 C 0.8048 0.91916 0.65999 0.0
C407 C 0.81874 0.95601 0.66196 0.0
C408 C 0.77488 0.92395 0.64267 0.0
H409 H 0.82143 0.00445 0.65556 0.0
C410 C 0.81802 0.05966 0.63856 0.0
O411 O 0.88453 0.08441 0.6095 0.0
O412 O 0.89069 0.05189 0.62357 0.0
N413 N 0.75019 0.93288 0.62551 0.0
C414 C 0.73115 0.92158 0.6152 0.0
C415 C 0.71633 0.88561 0.61171 0.0
C416 C 0.72121 0.86163 0.61886 0.0
C417 C 0.74072 0.87382 0.62947 0.0
C418 C 0.75448 0.90987 0.63256 0.0
H419 H 0.7275 0.93992 0.60962 0.0
O420 O 0.84494 0.00255 0.60649 0.0
O421 O 0.81702 0.99338 0.62366 0.0
O422 O 0.80022 0.03435 0.60778 0.0
O423 O 0.75468 -0.00143 0.62002 0.0
C424 C 0.74774 0.8518 0.63695 0.0
C425 C 0.76867 0.86622 0.64728 0.0
H426 H 0.81162 0.90387 0.66602 0.0
H427 H 0.83607 0.96897 0.66949 0.0
H428 H 0.70138 0.87643 0.6035 0.0
H429 H 0.7101 0.83401 0.61607 0.0
H430 H 0.73759 0.82386 0.63476 0.0
H431 H 0.77432 0.84915 0.65287 0.0
Mn432 Mn 0.87055 0.38972 0.4479 0.0
Mn433 Mn 0.8741 0.32793 0.46526 0.0
C434 C 0.82364 0.33158 0.44763 0.0
C435 C 0.85797 0.43603 0.44677 0.0
C436 C 0.91615 0.35623 0.4423 0.0
O437 O 0.91112 0.4189 0.45931 0.0
O438 O 0.90578 0.37635 0.47216 0.0
C439 C 0.83939 0.33548 0.4869 0.0
N440 N 0.84029 0.31467 0.47795 0.0
C441 C 0.78659 0.26314 0.48513 0.0
C442 C 0.78525 0.28395 0.49449 0.0
C443 C 0.81175 0.32028 0.49537 0.0
C444 C 0.81495 0.27968 0.47702 0.0
H445 H 0.85953 0.3635 0.48755 0.0
C446 C 0.91948 0.40916 0.4689 0.0
O447 O 0.8798 0.43408 0.43922 0.0
O448 O 0.84329 0.41105 0.45472 0.0
N449 N 0.8443 0.27995 0.45961 0.0
C450 C 0.84849 0.26405 0.44975 0.0
C451 C 0.82371 0.22787 0.44741 0.0
C452 C 0.79497 0.20841 0.45524 0.0
C453 C 0.79141 0.22524 0.46539 0.0
C454 C 0.81719 0.26123 0.46735 0.0
H455 H 0.87044 0.27888 0.44367 0.0
O456 O 0.82734 0.35344 0.4391 0.0
O457 O 0.84677 0.34499 0.45625 0.0
O458 O 0.90201 0.37465 0.43888 0.0
O459 O 0.90903 0.3395 0.45222 0.0
C460 C 0.76291 0.20792 0.47353 0.0
C461 C 0.76048 0.22687 0.48339 0.0
H462 H 0.76382 0.27241 0.50098 0.0
H463 H 0.81077 0.33657 0.50252 0.0
H464 H 0.82664 0.21508 0.43954 0.0
H465 H 0.77568 0.18064 0.45333 0.0
H466 H 0.74245 0.18017 0.47221 0.0
H467 H 0.73818 0.21339 0.48949 0.0
Mn468 Mn 0.62707 0.49611 0.44972 0.0
Mn469 Mn 0.68382 0.56699 0.46625 0.0
C470 C 0.6878 0.51795 0.44823 0.0
C471 C 0.59023 0.43413 0.44923 0.0
C472 C 0.64741 0.57285 0.44386 0.0
O473 O 0.59495 0.50033 0.46183 0.0
O474 O 0.63521 0.54402 0.4737 0.0
C475 C 0.68487 0.52879 0.48797 0.0
N476 N 0.70268 0.55129 0.47878 0.0
C477 C 0.75886 0.55773 0.48526 0.0
C478 C 0.74116 0.53487 0.49486 0.0
C479 C 0.70401 0.52033 0.49622 0.0
C480 C 0.73845 0.56554 0.47741 0.0
H481 H 0.65625 0.51724 0.48898 0.0
C482 C 0.60305 0.51996 0.47104 0.0
O483 O 0.58449 0.4544 0.44202 0.0
O484 O 0.61686 0.45 0.4565 0.0
N485 N 0.73167 0.59107 0.46007 0.0
C486 C 0.74429 0.61084 0.44994 0.0
C487 C 0.78079 0.62636 0.44706 0.0
C488 C 0.80392 0.6214 0.45462 0.0
C489 C 0.79036 0.60113 0.46503 0.0
C490 C 0.75383 0.58668 0.46752 0.0
H491 H 0.72661 0.61451 0.44405 0.0
O492 O 0.66637 0.4976 0.43993 0.0
O493 O 0.67264 0.524 0.45723 0.0
O494 O 0.63155 0.53974 0.44091 0.0
O495 O 0.6663 0.58519 0.4533 0.0
C496 C 0.8115 0.59403 0.4729 0.0
C497 C 0.79577 0.57236 0.48301 0.0
H498 H 0.75576 0.52799 0.50117 0.0
H499 H 0.69012 0.50247 0.50356 0.0
H500 H 0.79103 0.64189 0.43899 0.0
H501 H 0.83197 0.63306 0.45229 0.0
H502 H 0.8398 0.60473 0.47118 0.0
H503 H 0.81221 0.5667 0.48891 0.0
Mn504 Mn 0.5078 0.12947 0.45029 0.0
Mn505 Mn 0.4378 0.11946 0.46649 0.0
C506 C 0.49179 0.17312 0.44951 0.0
C507 C 0.56854 0.14823 0.44982 0.0
C508 C 0.4307 0.0783 0.44374 0.0
O509 O 0.49843 0.08968 0.46183 0.0
O510 O 0.45799 0.0916 0.47411 0.0
C511 C 0.4739 0.15581 0.48883 0.0
N512 N 0.45311 0.15298 0.47932 0.0
C513 C 0.44699 0.20261 0.48616 0.0
C514 C 0.46808 0.20585 0.49609 0.0
C515 C 0.48162 0.18237 0.49742 0.0
C516 C 0.43974 0.17528 0.47798 0.0
H517 H 0.48463 0.13802 0.48983 0.0
C518 C 0.47948 0.08028 0.47127 0.0
O519 O 0.54666 0.12486 0.44218 0.0
O520 O 0.55515 0.16033 0.45762 0.0
N521 N 0.4168 0.14585 0.46002 0.0
C522 C 0.39965 0.1412 0.44943 0.0
C523 C 0.38609 0.16381 0.44642 0.0
C524 C 0.39027 0.19091 0.45431 0.0
C525 C 0.40798 0.19517 0.46516 0.0
C526 C 0.42065 0.17162 0.46773 0.0
H527 H 0.39655 0.12059 0.44329 0.0
O528 O 0.51164 0.17096 0.44124 0.0
O529 O 0.48281 0.1501 0.45815 0.0
O530 O 0.46363 0.09517 0.44069 0.0
O531 O 0.41889 0.08408 0.45342 0.0
C532 C 0.41434 0.2224 0.47338 0.0
C533 C 0.43379 0.22609 0.48388 0.0
H534 H 0.47445 0.22657 0.50266 0.0
H535 H 0.49814 0.18487 0.50501 0.0
H536 H 0.37259 0.16046 0.43801 0.0
H537 H 0.38007 0.20852 0.4519 0.0
H538 H 0.40487 0.24101 0.47163 0.0
H539 H 0.439 0.2475 0.49004 0.0
Mn540 Mn 0.69744 0.52982 0.71194 0.0
Mn541 Mn 0.64139 0.54835 0.69677 0.0
C542 C 0.63642 0.49258 0.71386 0.0
C543 C 0.73202 0.50211 0.71187 0.0
C544 C 0.68079 0.58806 0.71913 0.0
O545 O 0.72937 0.56536 0.69962 0.0
O546 O 0.68958 0.57331 0.68898 0.0
C547 C 0.63698 0.51176 0.67404 0.0
N548 N 0.6205 0.51593 0.68374 0.0
C549 C 0.56265 0.46995 0.67689 0.0
C550 C 0.57898 0.46534 0.66678 0.0
C551 C 0.61631 0.48633 0.66536 0.0
C552 C 0.58456 0.49607 0.68516 0.0
H553 H 0.6657 0.52765 0.67295 0.0
C554 C 0.72132 0.57878 0.69089 0.0
O555 O 0.73942 0.52847 0.71913 0.0
O556 O 0.70511 0.49249 0.70478 0.0
N557 N 0.59403 0.52532 0.70333 0.0
C558 C 0.58291 0.53098 0.71403 0.0
C559 C 0.54649 0.51087 0.71711 0.0
C560 C 0.52192 0.48519 0.70917 0.0
C561 C 0.534 0.47986 0.6982 0.0
C562 C 0.57056 0.50092 0.69556 0.0
H563 H 0.60171 0.55049 0.72022 0.0
O564 O 0.65823 0.49309 0.72192 0.0
O565 O 0.65134 0.51403 0.70486 0.0
O566 O 0.69622 0.56993 0.72135 0.0
O567 O 0.66074 0.58247 0.71008 0.0
C568 C 0.51134 0.45389 0.68989 0.0
C569 C 0.52565 0.44896 0.67924 0.0
H570 H 0.56318 0.44548 0.66013 0.0
H571 H 0.62913 0.48278 0.65762 0.0
H572 H 0.53741 0.51503 0.72562 0.0
H573 H 0.4939 0.4695 0.71162 0.0
H574 H 0.48295 0.4372 0.69168 0.0
H575 H 0.50804 0.42854 0.67301 0.0
Mn576 Mn 0.46228 0.17179 0.71514 0.0
Mn577 Mn 0.45165 0.10248 0.69839 0.0
C578 C 0.50387 0.15322 0.71629 0.0
C579 C 0.48364 0.23326 0.71555 0.0
C580 C 0.40921 0.09404 0.72098 0.0
O581 O 0.42444 0.16515 0.70328 0.0
O582 O 0.424 0.12348 0.69108 0.0
C583 C 0.48962 0.14214 0.67669 0.0
N584 N 0.48607 0.11978 0.6858 0.0
C585 C 0.53712 0.11598 0.67907 0.0
C586 C 0.54112 0.13871 0.66955 0.0
C587 C 0.51728 0.15186 0.66836 0.0
C588 C 0.50881 0.1069 0.68702 0.0
H589 H 0.47158 0.1526 0.67581 0.0
C590 C 0.41392 0.14592 0.69395 0.0
O591 O 0.45876 0.21199 0.72294 0.0
O592 O 0.49573 0.21869 0.70822 0.0
N593 N 0.47739 0.08022 0.70439 0.0
C594 C 0.47114 0.06028 0.71445 0.0
C595 C 0.49332 0.04598 0.71714 0.0
C596 C 0.52165 0.05228 0.70948 0.0
C597 C 0.5274 0.07265 0.69915 0.0
C598 C 0.50413 0.08583 0.69684 0.0
H599 H 0.44957 0.05553 0.72041 0.0
O600 O 0.502 0.17302 0.72464 0.0
O601 O 0.48196 0.14594 0.70743 0.0
O602 O 0.42528 0.12706 0.72406 0.0
O603 O 0.41617 0.08267 0.71139 0.0
C604 C 0.55577 0.08103 0.69118 0.0
C605 C 0.56063 0.10269 0.68115 0.0
H606 H 0.56263 0.14655 0.66318 0.0
H607 H 0.52034 0.16961 0.66109 0.0
H608 H 0.48875 0.03033 0.72515 0.0
H609 H 0.53897 0.04157 0.71167 0.0
H610 H 0.57429 0.07136 0.69276 0.0
H611 H 0.58283 0.10935 0.67518 0.0
Mn612 Mn 0.81511 0.27513 0.71453 0.0
Mn613 Mn 0.88165 0.3368 0.69756 0.0
C614 C 0.82514 0.33293 0.71418 0.0
C615 C 0.75619 0.22869 0.71539 0.0
C616 C 0.89332 0.309 0.721 0.0
O617 O 0.82843 0.24602 0.70373 0.0
O618 O 0.86557 0.28835 0.69079 0.0
C619 C 0.84309 0.32976 0.67507 0.0
N620 N 0.86323 0.35033 0.68433 0.0
C621 C 0.86348 0.4024 0.67642 0.0
C622 C 0.84298 0.38183 0.66675 0.0
C623 C 0.83271 0.34535 0.66609 0.0
C624 C 0.87345 0.38552 0.68503 0.0
H625 H 0.83492 0.30164 0.67457 0.0
C626 C 0.84693 0.25562 0.6942 0.0
O627 O 0.77945 0.23111 0.72324 0.0
O628 O 0.76715 0.25299 0.70718 0.0
N629 N 0.89876 0.38461 0.7032 0.0
C630 C 0.91584 0.39986 0.7136 0.0
C631 C 0.92636 0.43583 0.71595 0.0
C632 C 0.91928 0.45574 0.7076 0.0
C633 C 0.90175 0.4395 0.69695 0.0
C634 C 0.89218 0.40366 0.69505 0.0
H635 H 0.92118 0.38466 0.72008 0.0
O636 O 0.8067 0.31126 0.72272 0.0
O637 O 0.83612 0.31955 0.70591 0.0
O638 O 0.8606 0.29097 0.72422 0.0
O639 O 0.90358 0.32525 0.71103 0.0
C640 C 0.89261 0.45722 0.6883 0.0
C641 C 0.87354 0.4387 0.67803 0.0
H642 H 0.83458 0.39365 0.65987 0.0
H643 H 0.81669 0.32924 0.65869 0.0
H644 H 0.93975 0.44812 0.72421 0.0
H645 H 0.92711 0.48337 0.7095 0.0
H646 H 0.89963 0.48493 0.68954 0.0
H647 H 0.86617 0.45244 0.67154 0.0
Mn648 Mn 0.46269 0.2794 0.21651 0.0
Mn649 Mn 0.45743 0.34111 0.1997 0.0
C650 C 0.50718 0.33851 0.21786 0.0
C651 C 0.47899 0.23563 0.21719 0.0
C652 C 0.41238 0.30736 0.22184 0.0
O653 O 0.42407 0.2503 0.20446 0.0
O654 O 0.43013 0.29352 0.19179 0.0
C655 C 0.49802 0.34075 0.17853 0.0
N656 N 0.49367 0.35889 0.18769 0.0
C657 C 0.54607 0.41392 0.18184 0.0
C658 C 0.55091 0.39589 0.17228 0.0
C659 C 0.5268 0.35914 0.17062 0.0
C660 C 0.51668 0.39427 0.18936 0.0
H661 H 0.47975 0.31242 0.17729 0.0
C662 C 0.41708 0.2605 0.1947 0.0
O663 O 0.45532 0.23475 0.22458 0.0
O664 O 0.49316 0.26181 0.20965 0.0
N665 N 0.48334 0.3883 0.20636 0.0
C666 C 0.47623 0.4012 0.21644 0.0
C667 C 0.49859 0.43729 0.2196 0.0
C668 C 0.52796 0.45974 0.21238 0.0
C669 C 0.53461 0.44595 0.20201 0.0
C670 C 0.51115 0.40988 0.19923 0.0
H671 H 0.4538 0.38409 0.22207 0.0
O672 O 0.50373 0.31594 0.22611 0.0
O673 O 0.48536 0.32528 0.20891 0.0
O674 O 0.42817 0.29064 0.22539 0.0
O675 O 0.41973 0.32488 0.21207 0.0
C676 C 0.56403 0.46638 0.19446 0.0
C677 C 0.56976 0.45038 0.18439 0.0
H678 H 0.57327 0.4099 0.16623 0.0
H679 H 0.53051 0.34498 0.16331 0.0
H680 H 0.49332 0.44772 0.22763 0.0
H681 H 0.54539 0.48745 0.21492 0.0
H682 H 0.58272 0.4943 0.19642 0.0
H683 H 0.59279 0.46623 0.17876 0.0
Mn684 Mn 0.71885 0.17979 0.21529 0.0
Mn685 Mn 0.6599 0.11225 0.19798 0.0
C686 C 0.6593 0.16364 0.2159 0.0
C687 C 0.76129 0.24021 0.21639 0.0
C688 C 0.69093 0.10128 0.22078 0.0
O689 O 0.75007 0.17194 0.2037 0.0
O690 O 0.70882 0.13215 0.19105 0.0
C691 C 0.66434 0.15354 0.17639 0.0
N692 N 0.64451 0.13105 0.18535 0.0
C693 C 0.59096 0.12941 0.17829 0.0
C694 C 0.61075 0.15232 0.16894 0.0
C695 C 0.64761 0.16445 0.16799 0.0
C696 C 0.60902 0.11916 0.18633 0.0
H697 H 0.69275 0.16319 0.1757 0.0
C698 C 0.74136 0.15345 0.1942 0.0
O699 O 0.76207 0.21754 0.22385 0.0
O700 O 0.73595 0.22787 0.20854 0.0
N701 N 0.61161 0.091 0.20365 0.0
C702 C 0.59677 0.07052 0.21353 0.0
C703 C 0.56024 0.05699 0.21595 0.0
C704 C 0.53934 0.06458 0.20819 0.0
C705 C 0.55512 0.08543 0.19803 0.0
C706 C 0.59155 0.0978 0.19599 0.0
H707 H 0.61272 0.06475 0.21956 0.0
O708 O 0.68074 0.18276 0.22438 0.0
O709 O 0.67387 0.15586 0.20711 0.0
O710 O 0.70782 0.13397 0.22418 0.0
O711 O 0.67379 0.09076 0.21097 0.0
C712 C 0.5363 0.09501 0.18996 0.0
C713 C 0.55421 0.117 0.18011 0.0
H714 H 0.59801 0.16105 0.1625 0.0
H715 H 0.66311 0.18232 0.16084 0.0
H716 H 0.54827 0.04095 0.22383 0.0
H717 H 0.51128 0.05446 0.21017 0.0
H718 H 0.50815 0.086 0.19134 0.0
H719 H 0.53956 0.12457 0.17406 0.0
Mn720 Mn 0.81849 0.53803 0.21523 0.0
Mn721 Mn 0.88323 0.54295 0.1972 0.0
C722 C 0.83353 0.49379 0.21596 0.0
C723 C 0.75865 0.52134 0.21727 0.0
C724 C 0.89816 0.58739 0.21966 0.0
O725 O 0.82508 0.57553 0.2032 0.0
O726 O 0.86419 0.57304 0.19048 0.0
C727 C 0.83879 0.5059 0.17616 0.0
N728 N 0.86197 0.50817 0.18481 0.0
C729 C 0.86073 0.45485 0.17769 0.0
C730 C 0.83709 0.45211 0.16865 0.0
C731 C 0.82605 0.47774 0.1679 0.0
C732 C 0.8728 0.4837 0.18561 0.0
H733 H 0.82998 0.52535 0.17562 0.0
C734 C 0.8431 0.58457 0.1936 0.0
O735 O 0.78268 0.54558 0.22422 0.0
O736 O 0.76932 0.50681 0.2094 0.0
N737 N 0.90355 0.51475 0.20258 0.0
C738 C 0.92495 0.52016 0.21218 0.0
C739 C 0.93758 0.4963 0.2144 0.0
C740 C 0.92817 0.46721 0.20672 0.0
C741 C 0.9064 0.46238 0.19683 0.0
C742 C 0.89498 0.48729 0.19498 0.0
H743 H 0.93211 0.54233 0.21816 0.0
O744 O 0.81622 0.49786 0.2247 0.0
O745 O 0.84044 0.5151 0.20692 0.0
O746 O 0.86574 0.57357 0.22321 0.0
O747 O 0.9072 0.57869 0.20993 0.0
C748 C 0.89499 0.43342 0.18887 0.0
C749 C 0.87215 0.42964 0.17932 0.0
H750 H 0.82696 0.43026 0.16232 0.0
H751 H 0.80763 0.47567 0.16099 0.0
H752 H 0.95433 0.50018 0.22206 0.0
H753 H 0.9376 0.44861 0.20855 0.0
H754 H 0.90322 0.41363 0.19012 0.0
H755 H 0.86317 0.407 0.17336 0.0
Mn756 Mn 0.60863 0.12969 0.94785 0.0
Mn757 Mn 0.67059 0.12795 0.96563 0.0
C758 C 0.66684 0.17633 0.94715 0.0
C759 C 0.56248 0.14237 0.94622 0.0
C760 C 0.64173 0.08312 0.94323 0.0
O761 O 0.57956 0.09062 0.95974 0.0
O762 O 0.62225 0.0971 0.97271 0.0
C763 C 0.66342 0.16516 0.98666 0.0
N764 N 0.68409 0.16316 0.97787 0.0
C765 C 0.7359 0.21734 0.98461 0.0
C766 C 0.71523 0.21982 0.9938 0.0
C767 C 0.67883 0.19364 0.99481 0.0
C768 C 0.71914 0.18819 0.97681 0.0
H769 H 0.63536 0.14524 0.98741 0.0
C770 C 0.5894 0.08317 0.96948 0.0
O771 O 0.56415 0.11954 0.93906 0.0
O772 O 0.58766 0.158 0.95405 0.0
N773 N 0.71851 0.157 0.95983 0.0
C774 C 0.73421 0.15171 0.95012 0.0
C775 C 0.77041 0.17607 0.94765 0.0
C776 C 0.79009 0.20552 0.95519 0.0
C777 C 0.77345 0.21021 0.9652 0.0
C778 C 0.73743 0.18482 0.96729 0.0
H779 H 0.71922 0.1292 0.94426 0.0
O780 O 0.64488 0.17166 0.93854 0.0
O781 O 0.65351 0.1543 0.95606 0.0
O782 O 0.62325 0.09685 0.93949 0.0
O783 O 0.6588 0.09157 0.95309 0.0
C784 C 0.791 0.23947 0.97304 0.0
C785 C 0.77223 0.24306 0.98273 0.0
H786 H 0.72695 0.2419 5e-05 0.0
H787 H 0.66266 0.1955 0.00184 0.0
H788 H 0.78305 0.17227 0.9399 0.0
H789 H 0.81788 0.22448 0.95318 0.0
H790 H 0.81879 0.25965 0.9716 0.0
H791 H 0.78587 0.26594 0.9886 0.0
Mn792 Mn 0.86919 0.49089 0.94879 0.0
Mn793 Mn 0.87918 0.56011 0.96544 0.0
C794 C 0.82465 0.50572 0.94877 0.0
C795 C 0.85145 0.43041 0.94815 0.0
C796 C 0.91863 0.56831 0.94219 0.0
O797 O 0.91025 0.50094 0.95984 0.0
O798 O 0.90835 0.5406 0.97249 0.0
C799 C 0.84512 0.52327 0.98795 0.0
N800 N 0.84675 0.54406 0.97858 0.0
C801 C 0.7971 0.54897 0.98615 0.0
C802 C 0.79509 0.52785 0.99593 0.0
C803 C 0.81919 0.51493 0.99682 0.0
C804 C 0.82385 0.55685 0.97767 0.0
H805 H 0.86338 0.51301 0.98861 0.0
C806 C 0.92007 0.51969 0.96931 0.0
O807 O 0.87385 0.45252 0.94034 0.0
O808 O 0.83974 0.44344 0.95621 0.0
N809 N 0.85157 0.58045 0.95951 0.0
C810 C 0.85501 0.59768 0.94901 0.0
C811 C 0.83166 0.61067 0.94642 0.0
C812 C 0.80506 0.60584 0.95464 0.0
C813 C 0.80205 0.58806 0.96539 0.0
C814 C 0.8263 0.57598 0.96754 0.0
H815 H 0.87524 0.60127 0.94262 0.0
O816 O 0.82649 0.4862 0.94032 0.0
O817 O 0.84851 0.51506 0.95714 0.0
O818 O 0.90199 0.53544 0.93907 0.0
O819 O 0.91339 0.5797 0.95205 0.0
C820 C 0.77538 0.58106 0.97392 0.0
C821 C 0.77294 0.56157 0.9843 0.0
H822 H 0.77486 0.521 0.00273 0.0
H823 H 0.81764 0.4984 0.0043 0.0
H824 H 0.83405 0.62422 0.93809 0.0
H825 H 0.78686 0.61559 0.95256 0.0
H826 H 0.75625 0.59006 0.9725 0.0
H827 H 0.75195 0.55586 0.9907 0.0
Mn828 Mn 0.50168 0.37253 0.94996 0.0
Mn829 Mn 0.42892 0.31434 0.96547 0.0
C830 C 0.47989 0.31194 0.94787 0.0
C831 C 0.56362 0.40948 0.95017 0.0
C832 C 0.42613 0.35426 0.94356 0.0
O833 O 0.49594 0.40334 0.96228 0.0
O834 O 0.45188 0.36164 0.97375 0.0
C835 C 0.46405 0.30867 0.9873 0.0
N836 N 0.44254 0.29278 0.97772 0.0
C837 C 0.43414 0.23507 0.98325 0.0
C838 C 0.45595 0.25077 0.99323 0.0
C839 C 0.47098 0.28773 0.99526 0.0
C840 C 0.42782 0.25721 0.97571 0.0
H841 H 0.47597 0.33715 0.98882 0.0
C842 C 0.47586 0.39412 0.97143 0.0
O843 O 0.54398 0.41582 0.94288 0.0
O844 O 0.54717 0.3822 0.95719 0.0
N845 N 0.40489 0.26764 0.9584 0.0
C846 C 0.38647 0.25715 0.94795 0.0
C847 C 0.37078 0.22116 0.94438 0.0
C848 C 0.3742 0.19637 0.95158 0.0
C849 C 0.39315 0.20777 0.96231 0.0
C850 C 0.40783 0.24388 0.96548 0.0
H851 H 0.38399 0.27612 0.94233 0.0
O852 O 0.50127 0.33419 0.93991 0.0
O853 O 0.47282 0.32623 0.95689 0.0
O854 O 0.45923 0.36903 0.94073 0.0
O855 O 0.41261 0.33475 0.95281 0.0
C856 C 0.39873 0.18489 0.96986 0.0
C857 C 0.4192 0.19853 0.98032 0.0
H858 H 0.46168 0.23478 -0.00068 0.0
H859 H 0.48805 0.30009 0.00289 0.0
H860 H 0.3563 0.21259 0.93607 0.0
H861 H 0.36242 0.16872 0.94873 0.0
H862 H 0.38781 0.15686 0.96762 0.0
H863 H 0.42373 0.18078 0.98596 0.0
Mn864 Mn 0.53667 0.70864 0.78353 0.0
Mn865 Mn 0.53885 0.64694 0.80136 0.0
C866 C 0.49277 0.64943 0.78187 0.0
C867 C 0.52011 0.75192 0.78145 0.0
C868 C 0.58741 0.67947 0.77989 0.0
O869 O 0.57167 0.73812 0.79634 0.0
O870 O 0.56753 0.69527 0.80882 0.0
C871 C 0.49814 0.65164 0.82181 0.0
N872 N 0.50199 0.63185 0.8131 0.0
C873 C 0.44765 0.57887 0.81907 0.0
C874 C 0.44328 0.59862 0.82817 0.0
C875 C 0.46862 0.63517 0.82953 0.0
C876 C 0.47782 0.59663 0.81172 0.0
H877 H 0.51736 0.67982 0.82282 0.0
C878 C 0.57915 0.72818 0.80605 0.0
O879 O 0.54559 0.75308 0.77492 0.0
O880 O 0.50416 0.72562 0.78888 0.0
N881 N 0.5117 0.59914 0.79525 0.0
C882 C 0.5185 0.58454 0.78555 0.0
C883 C 0.495 0.54842 0.7827 0.0
C884 C 0.46479 0.52771 0.78983 0.0
C885 C 0.45842 0.54328 0.7998 0.0
C886 C 0.48303 0.57928 0.8023 0.0
H887 H 0.54145 0.60039 0.77995 0.0
O888 O 0.49835 0.67165 0.77324 0.0
O889 O 0.51262 0.66294 0.79127 0.0
O890 O 0.57402 0.69833 0.77619 0.0
O891 O 0.57687 0.6603 0.78932 0.0
C892 C 0.42817 0.52472 0.80719 0.0
C893 C 0.42279 0.5425 0.81682 0.0
H894 H 0.42036 0.5861 0.83407 0.0
H895 H 0.46529 0.65065 0.83648 0.0
H896 H 0.50002 0.53664 0.77496 0.0
H897 H 0.44648 0.49999 0.78751 0.0
H898 H 0.40859 0.49692 0.80544 0.0
H899 H 0.39915 0.5281 0.82232 0.0
Mn900 Mn 0.28806 0.82097 0.78428 0.0
Mn901 Mn 0.35145 0.88522 0.80155 0.0
C902 C 0.34662 0.8341 0.7826 0.0
C903 C 0.24341 0.76149 0.78268 0.0
C904 C 0.31961 0.90084 0.77981 0.0
O905 O 0.25967 0.82911 0.79688 0.0
O906 O 0.30354 0.86779 0.80906 0.0
C907 C 0.34566 0.84094 0.82247 0.0
N908 N 0.36573 0.86353 0.81357 0.0
C909 C 0.41784 0.86081 0.81972 0.0
C910 C 0.3978 0.83776 0.82902 0.0
C911 C 0.36155 0.82777 0.83038 0.0
C912 C 0.40066 0.87338 0.81218 0.0
H913 H 0.3177 0.83293 0.82348 0.0
C914 C 0.27037 0.84747 0.80639 0.0
O915 O 0.24306 0.78575 0.77589 0.0
O916 O 0.26958 0.77171 0.79014 0.0
N917 N 0.39894 0.90398 0.79537 0.0
C918 C 0.41389 0.92463 0.78553 0.0
C919 C 0.44977 0.93606 0.78268 0.0
C920 C 0.46991 0.9262 0.78997 0.0
C921 C 0.45403 0.90516 0.8001 0.0
C922 C 0.4183 0.89494 0.80257 0.0
H923 H 0.39849 0.93207 0.77985 0.0
O924 O 0.32395 0.81714 0.77413 0.0
O925 O 0.33391 0.84194 0.79189 0.0
O926 O 0.2999 0.86843 0.77639 0.0
O927 O 0.33889 0.90967 0.78921 0.0
C928 C 0.47201 0.89327 0.80767 0.0
C929 C 0.45392 0.8711 0.81748 0.0
H930 H 0.40986 0.82727 0.83508 0.0
H931 H 0.34585 0.80979 0.83749 0.0
H932 H 0.46181 0.95222 0.77484 0.0
H933 H 0.49744 0.9347 0.78766 0.0
H934 H 0.49959 0.90059 0.80595 0.0
H935 H 0.46788 0.8617 0.82314 0.0
Mn936 Mn 0.17832 0.46168 0.78138 0.0
Mn937 Mn 0.11309 0.45687 0.79904 0.0
C938 C 0.16557 0.50757 0.78107 0.0
C939 C 0.23777 0.47614 0.78012 0.0
C940 C 0.09938 0.41425 0.77619 0.0
O941 O 0.16802 0.42136 0.79277 0.0
O942 O 0.13171 0.42677 0.80599 0.0
C943 C 0.15575 0.49341 0.82043 0.0
N944 N 0.13333 0.49136 0.81155 0.0
C945 C 0.13381 0.5444 0.81857 0.0
C946 C 0.15667 0.54691 0.82786 0.0
C947 C 0.1677 0.52131 0.82878 0.0
C948 C 0.12248 0.5158 0.81059 0.0
H949 H 0.16455 0.47398 0.82111 0.0
C950 C 0.15076 0.41319 0.80254 0.0
O951 O 0.21425 0.45371 0.77263 0.0
O952 O 0.22683 0.49014 0.78809 0.0
N953 N 0.09332 0.48526 0.79335 0.0
C954 C 0.07289 0.48019 0.78351 0.0
C955 C 0.06048 0.50413 0.78109 0.0
C956 C 0.06912 0.53295 0.78882 0.0
C957 C 0.08993 0.53745 0.79894 0.0
C958 C 0.10117 0.51248 0.80098 0.0
H959 H 0.06626 0.45819 0.7775 0.0
O960 O 0.18387 0.50426 0.7725 0.0
O961 O 0.15673 0.48476 0.78975 0.0
O962 O 0.13177 0.4292 0.77255 0.0
O963 O 0.08998 0.42116 0.78619 0.0
C964 C 0.10057 0.56615 0.80696 0.0
C965 C 0.12251 0.56963 0.81677 0.0
H966 H 0.16621 0.56857 0.83425 0.0
H967 H 0.18553 0.5232 0.83587 0.0
H968 H 0.04447 0.5005 0.77325 0.0
H969 H 0.05986 0.5516 0.78684 0.0
H970 H 0.09245 0.58597 0.80559 0.0
H971 H 0.13093 0.5921 0.82278 0.0
Mn972 Mn 0.37898 0.86528 0.04698 0.0
Mn973 Mn 0.31575 0.86552 0.02946 0.0
C974 C 0.32078 0.81882 0.04825 0.0
C975 C 0.42453 0.8516 0.04849 0.0
C976 C 0.34554 0.91169 0.05161 0.0
O977 O 0.40741 0.90359 0.03482 0.0
O978 O 0.36382 0.89652 0.02216 0.0
C979 C 0.32293 0.82792 0.00853 0.0
N980 N 0.30231 0.82998 0.01733 0.0
C981 C 0.25066 0.77535 0.01079 0.0
C982 C 0.27126 0.77282 0.00159 0.0
C983 C 0.30756 0.79919 0.00047 0.0
C984 C 0.26736 0.80475 0.01849 0.0
H985 H 0.35092 0.84796 0.00771 0.0
C986 C 0.39688 0.91076 0.02517 0.0
O987 O 0.4239 0.87528 0.05551 0.0
O988 O 0.39894 0.83608 0.04081 0.0
N989 N 0.26803 0.83626 0.03539 0.0
C990 C 0.2524 0.84159 0.04512 0.0
C991 C 0.21635 0.81701 0.0477 0.0
C992 C 0.19671 0.78732 0.04025 0.0
C993 C 0.21325 0.78258 0.03023 0.0
C994 C 0.24914 0.80819 0.02802 0.0
H995 H 0.26738 0.86425 0.05092 0.0
O996 O 0.34332 0.82418 0.05673 0.0
O997 O 0.3335 0.84003 0.03911 0.0
O998 O 0.36523 0.89908 0.05516 0.0
O999 O 0.32742 0.90201 0.04195 0.0
C1000 C 0.19575 0.75308 0.02248 0.0
C1001 C 0.21446 0.74944 0.01278 0.0
H1002 H 0.25959 0.75055 0.99541 0.0
H1003 H 0.3237 0.79729 0.99345 0.0
H1004 H 0.20378 0.82084 0.05546 0.0
H1005 H 0.16903 0.76819 0.04235 0.0
H1006 H 0.16807 0.73275 0.024 0.0
H1007 H 0.20086 0.72636 0.00698 0.0
Mn1008 Mn 0.12401 0.50495 0.04765 0.0
Mn1009 Mn 0.11955 0.43955 0.03011 0.0
C1010 C 0.16789 0.48954 0.04893 0.0
C1011 C 0.14112 0.565 0.0493 0.0
C1012 C 0.07354 0.42559 0.05215 0.0
O1013 O 0.08744 0.49835 0.03527 0.0
O1014 O 0.09069 0.45916 0.02278 0.0
C1015 C 0.1587 0.48307 0.00914 0.0
N1016 N 0.15539 0.46006 0.018 0.0
C1017 C 0.20899 0.46045 0.01169 0.0
C1018 C 0.2128 0.48391 0.00243 0.0
C1019 C 0.18755 0.49528 0.00116 0.0
C1020 C 0.17947 0.44886 0.01929 0.0
H1021 H 0.13957 0.49217 0.0082 0.0
C1022 C 0.07924 0.48053 0.02563 0.0
O1023 O 0.11638 0.54137 0.05621 0.0
O1024 O 0.15592 0.55383 0.0417 0.0
N1025 N 0.14679 0.41889 0.03612 0.0
C1026 C 0.14052 0.39804 0.04595 0.0
C1027 C 0.16398 0.38531 0.04871 0.0
C1028 C 0.19361 0.39411 0.04135 0.0
C1029 C 0.1994 0.41542 0.03125 0.0
C1030 C 0.17484 0.42695 0.02886 0.0
H1031 H 0.11798 0.39142 0.05169 0.0
O1032 O 0.16347 0.5071 0.05751 0.0
O1033 O 0.14703 0.48249 0.03977 0.0
O1034 O 0.08767 0.45809 0.05565 0.0
O1035 O 0.08261 0.41622 0.04256 0.0
C1036 C 0.22901 0.42632 0.02362 0.0
C1037 C 0.2338 0.44883 0.01384 0.0
H1038 H 0.2352 0.49367 0.99633 0.0
H1039 H 0.19045 0.51358 0.99409 0.0
H1040 H 0.15939 0.36896 0.05653 0.0
H1041 H 0.2119 0.38461 0.04359 0.0
H1042 H 0.24853 0.41797 0.02528 0.0
H1043 H 0.25695 0.45744 0.00814 0.0
Mn1044 Mn 0.48312 0.61355 0.04844 0.0
Mn1045 Mn 0.54963 0.67339 0.03097 0.0
C1046 C 0.49871 0.67298 0.04929 0.0
C1047 C 0.42303 0.57046 0.04982 0.0
C1048 C 0.56194 0.64156 0.05334 0.0
O1049 O 0.49066 0.58296 0.0365 0.0
O1050 O 0.52975 0.62475 0.02381 0.0
C1051 C 0.50739 0.6695 0.00971 0.0
N1052 N 0.53019 0.68909 0.01863 0.0
C1053 C 0.53139 0.7428 0.01197 0.0
C1054 C 0.50816 0.72327 0.00265 0.0
C1055 C 0.4961 0.68645 0.00153 0.0
C1056 C 0.54203 0.72454 0.01978 0.0
H1057 H 0.4978 0.64113 0.00889 0.0
C1058 C 0.50872 0.59208 0.0269 0.0
O1059 O 0.4463 0.56987 0.05704 0.0
O1060 O 0.43455 0.59611 0.04208 0.0
N1061 N 0.57076 0.72143 0.03688 0.0
C1062 C 0.59131 0.73589 0.04676 0.0
C1063 C 0.60466 0.77228 0.04939 0.0
C1064 C 0.59681 0.79342 0.04183 0.0
C1065 C 0.57583 0.77801 0.03166 0.0
C1066 C 0.56364 0.74171 0.02942 0.0
H1067 H 0.59727 0.71974 0.05264 0.0
O1068 O 0.48031 0.65131 0.05784 0.0
O1069 O 0.50628 0.65873 0.04036 0.0
O1070 O 0.52944 0.62452 0.05691 0.0
O1071 O 0.57193 0.65922 0.04361 0.0
C1072 C 0.5659 0.79705 0.02381 0.0
C1073 C 0.54368 0.77945 0.01398 0.0
H1074 H 0.49911 0.73616 0.99639 0.0
H1075 H 0.47797 0.67115 0.99441 0.0
H1076 H 0.62078 0.78396 0.05726 0.0
H1077 H 0.60679 0.82137 0.04397 0.0
H1078 H 0.57477 0.8251 0.02536 0.0
H1079 H 0.5358 0.79425 0.00811 0.0
Mn1080 Mn 0.1332 0.61877 0.54741 0.0
Mn1081 Mn 0.12435 0.68066 0.53194 0.0
C1082 C 0.17569 0.67842 0.54944 0.0
C1083 C 0.15335 0.57766 0.54688 0.0
C1084 C 0.0806 0.6431 0.55396 0.0
O1085 O 0.0951 0.58998 0.53521 0.0
O1086 O 0.09761 0.63374 0.52355 0.0
C1087 C 0.16443 0.6837 0.51019 0.0
N1088 N 0.15997 0.70049 0.51974 0.0
C1089 C 0.21153 0.75669 0.51427 0.0
C1090 C 0.21647 0.74007 0.50431 0.0
C1091 C 0.19283 0.70341 0.50227 0.0
C1092 C 0.1825 0.73577 0.52178 0.0
H1093 H 0.14656 0.65544 0.50865 0.0
C1094 C 0.08626 0.60064 0.52592 0.0
O1095 O 0.12855 0.57361 0.55438 0.0
O1096 O 0.16592 0.60521 0.53992 0.0
N1097 N 0.14951 0.72723 0.53908 0.0
C1098 C 0.14238 0.73866 0.54948 0.0
C1099 C 0.16428 0.77446 0.55303 0.0
C1100 C 0.19324 0.79813 0.54586 0.0
C1101 C 0.19993 0.78581 0.53516 0.0
C1102 C 0.17691 0.74996 0.532 0.0
H1103 H 0.1203 0.72059 0.55507 0.0
O1104 O 0.17335 0.65532 0.55731 0.0
O1105 O 0.15378 0.66545 0.5405 0.0
O1106 O 0.09704 0.62641 0.55687 0.0
O1107 O 0.08742 0.66219 0.54456 0.0
C1108 C 0.22898 0.8075 0.52764 0.0
C1109 C 0.23479 0.79295 0.5172 0.0
H1110 H 0.23856 0.7551 0.49824 0.0
H1111 H 0.19663 0.69034 0.49464 0.0
H1112 H 0.15899 0.78374 0.56132 0.0
H1113 H 0.21033 0.82561 0.54871 0.0
H1114 H 0.24733 0.83527 0.52988 0.0
H1115 H 0.25752 0.80975 0.51159 0.0
Mn1116 Mn 0.37163 0.49979 0.54564 0.0
Mn1117 Mn 0.31748 0.42538 0.53003 0.0
C1118 C 0.31042 0.47582 0.54678 0.0
C1119 C 0.40629 0.5621 0.54579 0.0
C1120 C 0.3551 0.42497 0.55278 0.0
O1121 O 0.40493 0.49637 0.53381 0.0
O1122 O 0.36628 0.44916 0.52271 0.0
C1123 C 0.31446 0.45776 0.50717 0.0
N1124 N 0.29736 0.43685 0.51677 0.0
C1125 C 0.23986 0.42441 0.50935 0.0
C1126 C 0.25682 0.44561 0.49935 0.0
C1127 C 0.29429 0.46237 0.49826 0.0
C1128 C 0.2613 0.42036 0.51786 0.0
H1129 H 0.34327 0.47089 0.50635 0.0
C1130 C 0.39781 0.47522 0.52503 0.0
O1131 O 0.41281 0.54289 0.55322 0.0
O1132 O 0.38017 0.54504 0.53838 0.0
N1133 N 0.26965 0.40054 0.53618 0.0
C1134 C 0.25785 0.3836 0.54684 0.0
C1135 C 0.22119 0.36691 0.54961 0.0
C1136 C 0.19708 0.3678 0.5414 0.0
C1137 C 0.20986 0.3854 0.53049 0.0
C1138 C 0.24664 0.40128 0.52818 0.0
H1139 H 0.27631 0.38308 0.55322 0.0
O1140 O 0.3313 0.49708 0.55503 0.0
O1141 O 0.32636 0.46946 0.53805 0.0
O1142 O 0.36935 0.45828 0.55523 0.0
O1143 O 0.33618 0.41052 0.54352 0.0
C1144 C 0.18767 0.38852 0.52194 0.0
C1145 C 0.20265 0.40798 0.51137 0.0
H1146 H 0.24141 0.44957 0.49252 0.0
H1147 H 0.30759 0.47895 0.4906 0.0
H1148 H 0.21156 0.35354 0.55807 0.0
H1149 H 0.16886 0.35518 0.54361 0.0
H1150 H 0.15912 0.37652 0.52348 0.0
H1151 H 0.1854 0.41067 0.50495 0.0
Mn1152 Mn 0.48823 0.87057 0.54873 0.0
Mn1153 Mn 0.55563 0.87803 0.5316 0.0
C1154 C 0.50112 0.8247 0.54858 0.0
C1155 C 0.42861 0.85543 0.5499 0.0
C1156 C 0.56651 0.91855 0.55476 0.0
O1157 O 0.49843 0.91122 0.53751 0.0
O1158 O 0.53744 0.90862 0.52473 0.0
C1159 C 0.51704 0.8446 0.50928 0.0
N1160 N 0.53783 0.84541 0.51853 0.0
C1161 C 0.53985 0.79424 0.51089 0.0
C1162 C 0.51867 0.79301 0.50124 0.0
C1163 C 0.5072 0.81829 0.50044 0.0
C1164 C 0.54925 0.82139 0.51934 0.0
H1165 H 0.50795 0.86383 0.50868 0.0
C1166 C 0.51687 0.92068 0.52798 0.0
O1167 O 0.45184 0.87753 0.55752 0.0
O1168 O 0.43993 0.84214 0.54179 0.0
N1169 N 0.57465 0.84906 0.53734 0.0
C1170 C 0.59225 0.85202 0.54772 0.0
C1171 C 0.604 0.82759 0.5502 0.0
C1172 C 0.59755 0.80041 0.542 0.0
C1173 C 0.57942 0.79792 0.53138 0.0
C1174 C 0.56863 0.82322 0.52934 0.0
H1175 H 0.59705 0.87267 0.55409 0.0
O1176 O 0.48283 0.82762 0.55724 0.0
O1177 O 0.51063 0.84848 0.54016 0.0
O1178 O 0.53381 0.9029 0.55804 0.0
O1179 O 0.57704 0.91237 0.54488 0.0
C1180 C 0.57084 0.77077 0.52288 0.0
C1181 C 0.55112 0.76896 0.51264 0.0
H1182 H 0.51067 0.7725 0.49448 0.0
H1183 H 0.49065 0.81738 0.49306 0.0
H1184 H 0.61783 0.82959 0.55844 0.0
H1185 H 0.60634 0.7814 0.544 0.0
H1186 H 0.57881 0.75081 0.52423 0.0
H1187 H 0.54421 0.74763 0.50626 0.0
Mn1188 Mn 0.27825 0.45784 0.28172 0.0
Mn1189 Mn 0.33901 0.45116 0.29865 0.0
C1190 C 0.33753 0.50192 0.2807 0.0
C1191 C 0.23528 0.47513 0.28073 0.0
C1192 C 0.30667 0.40773 0.27617 0.0
O1193 O 0.24822 0.41928 0.29366 0.0
O1194 O 0.29074 0.42217 0.30603 0.0
C1195 C 0.33582 0.48888 0.3202 0.0
N1196 N 0.35507 0.48605 0.31108 0.0
C1197 C 0.40879 0.53882 0.31756 0.0
C1198 C 0.3896 0.54213 0.32708 0.0
C1199 C 0.35296 0.51706 0.32839 0.0
C1200 C 0.39036 0.50996 0.30975 0.0
H1201 H 0.30757 0.46987 0.32117 0.0
C1202 C 0.25789 0.41041 0.30317 0.0
O1203 O 0.23434 0.45135 0.27338 0.0
O1204 O 0.26098 0.48872 0.28844 0.0
N1205 N 0.38675 0.47841 0.29252 0.0
C1206 C 0.40088 0.47259 0.28249 0.0
C1207 C 0.43707 0.49592 0.27969 0.0
C1208 C 0.45835 0.52494 0.28721 0.0
C1209 C 0.44328 0.53024 0.29752 0.0
C1210 C 0.40718 0.50584 0.29994 0.0
H1211 H 0.38463 0.45047 0.27664 0.0
O1212 O 0.31549 0.49875 0.27231 0.0
O1213 O 0.32373 0.47987 0.28959 0.0
O1214 O 0.28927 0.42306 0.27286 0.0
O1215 O 0.32449 0.41501 0.28587 0.0
C1216 C 0.46247 0.5592 0.30536 0.0
C1217 C 0.44524 0.56349 0.31537 0.0
H1218 H 0.40264 0.56402 0.33335 0.0
H1219 H 0.33792 0.51958 0.33567 0.0
H1220 H 0.44848 0.49168 0.2717 0.0
H1221 H 0.48613 0.54313 0.28494 0.0
H1222 H 0.49038 0.5786 0.30368 0.0
H1223 H 0.46015 0.58614 0.32124 0.0
Mn1224 Mn 0.53087 0.81686 0.28047 0.0
Mn1225 Mn 0.53802 0.88447 0.29745 0.0
C1226 C 0.48697 0.83234 0.27952 0.0
C1227 C 0.51375 0.7566 0.27957 0.0
C1228 C 0.58146 0.89527 0.27499 0.0
O1229 O 0.56957 0.82541 0.29233 0.0
O1230 O 0.56666 0.86482 0.30481 0.0
C1231 C 0.49997 0.84371 0.31898 0.0
N1232 N 0.50311 0.86596 0.30988 0.0
C1233 C 0.45097 0.86799 0.31646 0.0
C1234 C 0.44735 0.84532 0.32596 0.0
C1235 C 0.47195 0.83312 0.32721 0.0
C1236 C 0.47965 0.87794 0.3086 0.0
H1237 H 0.51864 0.83402 0.31991 0.0
C1238 C 0.57849 0.84385 0.30186 0.0
O1239 O 0.53733 0.77937 0.27216 0.0
O1240 O 0.50006 0.76873 0.28725 0.0
N1241 N 0.51119 0.90542 0.29132 0.0
C1242 C 0.51721 0.92541 0.28129 0.0
C1243 C 0.49432 0.93884 0.27853 0.0
C1244 C 0.46555 0.93166 0.28611 0.0
C1245 C 0.46006 0.91126 0.29642 0.0
C1246 C 0.48401 0.89896 0.29879 0.0
H1247 H 0.53915 0.93088 0.2754 0.0
O1248 O 0.48986 0.81326 0.27113 0.0
O1249 O 0.50912 0.84055 0.28837 0.0
O1250 O 0.56574 0.86261 0.27159 0.0
O1251 O 0.57427 0.90582 0.2847 0.0
C1252 C 0.43131 0.90202 0.30431 0.0
C1253 C 0.42676 0.88039 0.31432 0.0
H1254 H 0.42558 0.83683 0.33226 0.0
H1255 H 0.46919 0.81543 0.33448 0.0
H1256 H 0.4987 0.95451 0.27054 0.0
H1257 H 0.4477 0.9417 0.28387 0.0
H1258 H 0.41225 0.91098 0.30267 0.0
H1259 H 0.40426 0.87304 0.32022 0.0
Mn1260 Mn 0.17555 0.71546 0.28222 0.0
Mn1261 Mn 0.11141 0.6528 0.2997 0.0
C1262 C 0.16308 0.65695 0.28105 0.0
C1263 C 0.23491 0.7605 0.28069 0.0
C1264 C 0.096 0.68334 0.27753 0.0
O1265 O 0.16608 0.74429 0.29436 0.0
O1266 O 0.12932 0.70092 0.30706 0.0
C1267 C 0.15548 0.65869 0.32068 0.0
N1268 N 0.13279 0.63851 0.31182 0.0
C1269 C 0.13465 0.58616 0.31826 0.0
C1270 C 0.15779 0.6063 0.32752 0.0
C1271 C 0.16827 0.64273 0.32872 0.0
C1272 C 0.12251 0.60343 0.31059 0.0
H1273 H 0.16387 0.68678 0.32157 0.0
C1274 C 0.14852 0.73396 0.30405 0.0
O1275 O 0.21077 0.76012 0.27365 0.0
O1276 O 0.2246 0.73494 0.28841 0.0
N1277 N 0.09226 0.60507 0.29367 0.0
C1278 C 0.07139 0.58992 0.2839 0.0
C1279 C 0.05939 0.5538 0.28123 0.0
C1280 C 0.06886 0.53361 0.28865 0.0
C1281 C 0.09008 0.54968 0.29872 0.0
C1282 C 0.10089 0.58567 0.30101 0.0
H1283 H 0.06415 0.60531 0.27813 0.0
O1284 O 0.18048 0.67932 0.27255 0.0
O1285 O 0.15472 0.66999 0.29012 0.0
O1286 O 0.12836 0.70237 0.27398 0.0
O1287 O 0.08722 0.66532 0.28722 0.0
C1288 C 0.10153 0.53162 0.30644 0.0
C1289 C 0.12383 0.54985 0.31619 0.0
H1290 H 0.16796 0.59418 0.33368 0.0
H1291 H 0.18631 0.65852 0.33579 0.0
H1292 H 0.04306 0.5416 0.27344 0.0
H1293 H 0.05991 0.50588 0.28649 0.0
H1294 H 0.09377 0.50385 0.30485 0.0
H1295 H 0.13287 0.53582 0.32196 0.0
H1296 H 0.2949 0.06133 0.15541 0.0
H1297 H 0.27476 0.13788 0.13714 0.0
H1298 H 0.33534 0.10838 0.169 0.0
H1299 H 0.31382 0.18429 0.15093 0.0
H1300 H 0.37093 0.18966 0.19917 0.0
H1301 H 0.33333 0.14324 0.18505 0.0
H1302 H 0.37426 0.22132 0.15663 0.0
H1303 H 0.41078 0.26804 0.17086 0.0
C1304 C 0.29908 0.08815 0.1543 0.0
C1305 C 0.28172 0.09586 0.14518 0.0
C1306 C 0.32205 0.11507 0.16213 0.0
C1307 C 0.32777 0.15013 0.16108 0.0
C1308 C 0.31059 0.1578 0.15188 0.0
C1309 C 0.28802 0.13106 0.14399 0.0
C1310 C 0.37182 0.19694 0.18991 0.0
C1311 C 0.3937 0.23256 0.18614 0.0
C1312 C 0.35048 0.17024 0.18179 0.0
C1313 C 0.35086 0.17847 0.16968 0.0
C1314 C 0.37288 0.21413 0.16591 0.0
C1315 C 0.3939 0.24092 0.17406 0.0
H1316 H 0.81063 0.20832 0.19392 0.0
H1317 H 0.73818 0.10809 0.17662 0.0
H1318 H 0.85864 0.21614 0.1807 0.0
H1319 H 0.78664 0.11519 0.16368 0.0
H1320 H 0.86864 0.15734 0.13407 0.0
H1321 H 0.82138 0.15029 0.14745 0.0
H1322 H 0.89802 0.19407 0.17621 0.0
H1323 H 0.94578 0.20246 0.16262 0.0
C1324 C 0.80506 0.18772 0.18738 0.0
C1325 C 0.77058 0.15758 0.1863 0.0
C1326 C 0.83268 0.19213 0.17983 0.0
C1327 C 0.82656 0.16631 0.17112 0.0
C1328 C 0.79214 0.13594 0.17014 0.0
C1329 C 0.76438 0.13175 0.1776 0.0
C1330 C 0.87546 0.16551 0.14325 0.0
C1331 C 0.91096 0.18044 0.1473 0.0
C1332 C 0.84827 0.16122 0.15095 0.0
C1333 C 0.85578 0.17133 0.16294 0.0
C1334 C 0.89136 0.18641 0.16699 0.0
C1335 C 0.91872 0.19113 0.15922 0.0
H1336 H 0.8887 0.62801 0.17626 0.0
H1337 H 0.78606 0.59531 0.19261 0.0
H1338 H 0.88016 0.66804 0.16305 0.0
H1339 H 0.77671 0.63384 0.17911 0.0
H1340 H 0.78518 0.732 0.16124 0.0
H1341 H 0.79555 0.69412 0.17484 0.0
H1342 H 0.8465 0.66784 0.14654 0.0
H1343 H 0.83762 0.707 0.13315 0.0
C1344 C 0.86423 0.6292 0.17696 0.0
C1345 C 0.83819 0.60872 0.1855 0.0
C1346 C 0.85919 0.65196 0.16936 0.0
C1347 C 0.82772 0.65423 0.17001 0.0
C1348 C 0.8016 0.63342 0.17851 0.0
C1349 C 0.80688 0.61115 0.18622 0.0
C1350 C 0.79853 0.71806 0.15794 0.0
C1351 C 0.81064 0.72252 0.14615 0.0
C1352 C 0.80437 0.69621 0.16572 0.0
C1353 C 0.82192 0.67789 0.1618 0.0
C1354 C 0.83359 0.68208 0.14994 0.0
C1355 C 0.82825 0.70434 0.14223 0.0
H1356 H 0.05739 0.25635 0.33683 0.0
H1357 H 0.13529 0.29391 0.36527 0.0
H1358 H 0.10413 0.29485 0.32289 0.0
H1359 H 0.18172 0.33339 0.35143 0.0
H1360 H 0.26351 0.37178 0.32152 0.0
H1361 H 0.21653 0.33209 0.33524 0.0
H1362 H 0.14162 0.3559 0.31761 0.0
H1363 H 0.18811 0.3944 0.30367 0.0
C1364 C 0.0844 0.27315 0.34013 0.0
C1365 C 0.09262 0.27204 0.35215 0.0
C1366 C 0.1112 0.29533 0.33215 0.0
C1367 C 0.14674 0.3172 0.33603 0.0
C1368 C 0.15481 0.31641 0.34809 0.0
C1369 C 0.1281 0.29395 0.35604 0.0
C1370 C 0.23698 0.36843 0.32057 0.0
C1371 C 0.22952 0.38611 0.31148 0.0
C1372 C 0.21008 0.34586 0.32847 0.0
C1373 C 0.17527 0.34081 0.32754 0.0
C1374 C 0.16792 0.35862 0.31846 0.0
C1375 C 0.19467 0.38085 0.31049 0.0
H1376 H 0.69852 0.8402 0.3631 0.0
H1377 H 0.73646 0.80093 0.33443 0.0
H1378 H 0.65809 0.8462 0.34948 0.0
H1379 H 0.69684 0.80819 0.32068 0.0
H1380 H 0.59522 0.79053 0.30216 0.0
H1381 H 0.6351 0.78351 0.31576 0.0
H1382 H 0.65864 0.88219 0.33336 0.0
H1383 H 0.61767 0.88854 0.32001 0.0
C1384 C 0.69839 0.83306 0.35386 0.0
C1385 C 0.7207 0.82008 0.34984 0.0
C1386 C 0.67537 0.83674 0.34604 0.0
C1387 C 0.67436 0.8279 0.33397 0.0
C1388 C 0.69659 0.81478 0.32995 0.0
C1389 C 0.71939 0.81073 0.33782 0.0
C1390 C 0.60898 0.81081 0.30891 0.0
C1391 C 0.60328 0.84012 0.31001 0.0
C1392 C 0.632 0.80685 0.31668 0.0
C1393 C 0.65012 0.83229 0.32565 0.0
C1394 C 0.64463 0.86177 0.32668 0.0
C1395 C 0.6213 0.86553 0.31899 0.0
H1396 H 0.12436 0.85842 0.36045 0.0
H1397 H 0.2224 0.93327 0.34246 0.0
H1398 H 0.11637 0.81148 0.3467 0.0
H1399 H 0.21507 0.88587 0.32895 0.0
H1400 H 0.17186 0.80428 0.29914 0.0
H1401 H 0.17856 0.85084 0.31284 0.0
H1402 H 0.14014 0.77382 0.34158 0.0
H1403 H 0.13219 0.72687 0.32775 0.0
C1404 C 0.14445 0.86477 0.35364 0.0
C1405 C 0.17406 0.89959 0.35255 0.0
C1406 C 0.13993 0.83777 0.34579 0.0
C1407 C 0.16508 0.84486 0.33673 0.0
C1408 C 0.19486 0.87964 0.3357 0.0
C1409 C 0.19919 0.90677 0.34349 0.0
C1410 C 0.16473 0.79723 0.30838 0.0
C1411 C 0.15148 0.76186 0.31236 0.0
C1412 C 0.16882 0.82401 0.31626 0.0
C1413 C 0.16012 0.81615 0.32833 0.0
C1414 C 0.14665 0.78071 0.3323 0.0
C1415 C 0.14219 0.7538 0.32439 0.0
H1416 H 0.6196 0.72483 0.82427 0.0
H1417 H 0.58879 0.79544 0.80729 0.0
H1418 H 0.65807 0.77299 0.83791 0.0
H1419 H 0.62582 0.84282 0.82113 0.0
H1420 H 0.72607 0.93188 0.83823 0.0
H1421 H 0.68689 0.88308 0.8251 0.0
H1422 H 0.65779 0.80809 0.85425 0.0
H1423 H 0.69818 0.85679 0.86728 0.0
C1424 C 0.62081 0.75051 0.82353 0.0
C1425 C 0.60156 0.7565 0.81463 0.0
C1426 C 0.64266 0.77804 0.83137 0.0
C1427 C 0.64524 0.81189 0.83056 0.0
C1428 C 0.62519 0.81743 0.82183 0.0
C1429 C 0.60382 0.79016 0.81392 0.0
C1430 C 0.71118 0.90502 0.84186 0.0
C1431 C 0.71526 0.89822 0.85379 0.0
C1432 C 0.68857 0.87701 0.83434 0.0
C1433 C 0.66912 0.84161 0.83862 0.0
C1434 C 0.67282 0.83491 0.85061 0.0
C1435 C 0.69578 0.86288 0.8581 0.0
H1436 H 0.14698 0.84938 0.86738 0.0
H1437 H 0.07199 0.81196 0.83808 0.0
H1438 H 0.19383 0.85376 0.85423 0.0
H1439 H 0.11918 0.81754 0.82484 0.0
H1440 H 0.20018 0.79513 0.80717 0.0
H1441 H 0.15407 0.78999 0.82074 0.0
H1442 H 0.23127 0.88831 0.83805 0.0
H1443 H 0.27792 0.8928 0.82466 0.0
C1444 C 0.14054 0.84227 0.85812 0.0
C1445 C 0.10571 0.83018 0.85379 0.0
C1446 C 0.16748 0.84502 0.85056 0.0
C1447 C 0.16029 0.83603 0.83848 0.0
C1448 C 0.12548 0.82409 0.83414 0.0
C1449 C 0.09844 0.82101 0.84173 0.0
C1450 C 0.20738 0.81572 0.81386 0.0
C1451 C 0.2427 0.84451 0.8148 0.0
C1452 C 0.18085 0.81285 0.82161 0.0
C1453 C 0.18887 0.83887 0.83043 0.0
C1454 C 0.22428 0.86756 0.83144 0.0
C1455 C 0.25098 0.87025 0.82374 0.0
H1456 H 0.2296 0.29074 0.84024 0.0
H1457 H 0.12656 0.25786 0.85638 0.0
H1458 H 0.2207 0.32995 0.82676 0.0
H1459 H 0.1173 0.29611 0.84271 0.0
H1460 H 0.13124 0.39875 0.82592 0.0
H1461 H 0.13946 0.35857 0.83909 0.0
H1462 H 0.18523 0.32881 0.8101 0.0
H1463 H 0.17803 0.36972 0.79702 0.0
C1464 C 0.20494 0.29161 0.84084 0.0
C1465 C 0.17893 0.27135 0.84943 0.0
C1466 C 0.19975 0.31395 0.83308 0.0
C1467 C 0.16834 0.31626 0.8337 0.0
C1468 C 0.14209 0.29549 0.84215 0.0
C1469 C 0.14737 0.27341 0.84995 0.0
C1470 C 0.14289 0.3835 0.82234 0.0
C1471 C 0.15402 0.3875 0.81043 0.0
C1472 C 0.14748 0.36036 0.82988 0.0
C1473 C 0.16305 0.34051 0.82565 0.0
C1474 C 0.17372 0.34416 0.81369 0.0
C1475 C 0.16936 0.36746 0.80618 0.0
H1476 H 0.78796 0.58624 0.68957 0.0
H1477 H 0.72062 0.6222 0.67315 0.0
H1478 H 0.83614 0.62319 0.67596 0.0
H1479 H 0.76952 0.66016 0.6597 0.0
H1480 H 0.85217 0.69672 0.63003 0.0
H1481 H 0.8033 0.65708 0.64311 0.0
H1482 H 0.87813 0.68507 0.67221 0.0
H1483 H 0.92722 0.72395 0.65906 0.0
C1484 C 0.78347 0.60225 0.68311 0.0
C1485 C 0.7504 0.60137 0.68249 0.0
C1486 C 0.81124 0.62358 0.67533 0.0
C1487 C 0.80679 0.64478 0.66679 0.0
C1488 C 0.77367 0.64379 0.66609 0.0
C1489 C 0.7457 0.6222 0.67384 0.0
C1490 C 0.85828 0.69426 0.6392 0.0
C1491 C 0.89366 0.71352 0.64349 0.0
C1492 C 0.83018 0.67173 0.64672 0.0
C1493 C 0.83676 0.66805 0.65871 0.0
C1494 C 0.8722 0.68693 0.66297 0.0
C1495 C 0.90036 0.70931 0.65543 0.0
H1496 H 0.37461 0.17778 0.69923 0.0
H1497 H 0.39742 0.12472 0.67074 0.0
H1498 H 0.33504 0.18702 0.68621 0.0
H1499 H 0.35852 0.13503 0.65755 0.0
H1500 H 0.25809 0.12694 0.64111 0.0
H1501 H 0.29666 0.11646 0.65424 0.0
H1502 H 0.33729 0.22205 0.66941 0.0
H1503 H 0.29777 0.23216 0.65651 0.0
C1504 C 0.37134 0.16824 0.69015 0.0
C1505 C 0.38921 0.15052 0.68601 0.0
C1506 C 0.34879 0.17377 0.68266 0.0
C1507 C 0.34379 0.162 0.67082 0.0
C1508 C 0.36146 0.14405 0.66668 0.0
C1509 C 0.38384 0.13823 0.67422 0.0
C1510 C 0.27525 0.14798 0.64724 0.0
C1511 C 0.27486 0.18043 0.64776 0.0
C1512 C 0.29753 0.14201 0.65472 0.0
C1513 C 0.32015 0.16843 0.66285 0.0
C1514 C 0.3198 0.20091 0.66337 0.0
C1515 C 0.29726 0.20679 0.65594 0.0
H1516 H 0.86768 0.26131 0.67097 0.0
H1517 H 0.82197 0.1853 0.69986 0.0
H1518 H 0.86094 0.21347 0.65785 0.0
H1519 H 0.81635 0.13768 0.68682 0.0
H1520 H 0.77313 0.05534 0.65655 0.0
H1521 H 0.7814 0.10283 0.67023 0.0
H1522 H 0.8839 0.17429 0.65403 0.0
H1523 H 0.87514 0.12744 0.64015 0.0
C1524 C 0.85668 0.23451 0.67457 0.0
C1525 C 0.84529 0.22713 0.68645 0.0
C1526 C 0.85292 0.20706 0.66705 0.0
C1527 C 0.83803 0.1717 0.67128 0.0
C1528 C 0.82733 0.16449 0.68323 0.0
C1529 C 0.83079 0.19186 0.69072 0.0
C1530 C 0.79743 0.08118 0.65594 0.0
C1531 C 0.82329 0.08771 0.6472 0.0
C1532 C 0.80229 0.10834 0.66382 0.0
C1533 C 0.83326 0.14243 0.66318 0.0
C1534 C 0.85941 0.14861 0.6546 0.0
C1535 C 0.85442 0.12165 0.64667 0.0
H1536 H 0.04093 0.52969 0.53025 0.0
H1537 H 0.07697 0.60926 0.50235 0.0
H1538 H 0.00135 0.48391 0.51631 0.0
H1539 H 0.03845 0.56307 0.48822 0.0
H1540 H 0.93732 0.47944 0.46936 0.0
H1541 H 0.97762 0.52575 0.48304 0.0
H1542 H 0.00131 0.4497 0.49993 0.0
H1543 H 0.95967 0.40292 0.48653 0.0
C1544 C 0.04061 0.53734 0.5211 0.0
C1545 C 0.06203 0.5731 0.5174 0.0
C1546 C 0.0181 0.51101 0.51307 0.0
C1547 C 0.01682 0.51969 0.50111 0.0
C1548 C 0.03834 0.55551 0.49741 0.0
C1549 C 0.06053 0.58199 0.50549 0.0
C1550 C 0.95128 0.47264 0.47596 0.0
C1551 C 0.9453 0.43751 0.47689 0.0
C1552 C 0.97456 0.49928 0.48377 0.0
C1553 C 0.99276 0.49152 0.4926 0.0
C1554 C 0.98723 0.45648 0.49338 0.0
C1555 C 0.96354 0.42969 0.48566 0.0
H1556 H 0.46367 0.53545 0.52363 0.0
H1557 H 0.39993 0.42956 0.50852 0.0
H1558 H 0.51321 0.54645 0.51066 0.0
H1559 H 0.4501 0.44015 0.49581 0.0
H1560 H 0.60724 0.54138 0.49422 0.0
H1561 H 0.55763 0.52965 0.50744 0.0
H1562 H 0.48247 0.4746 0.47897 0.0
H1563 H 0.5317 0.48518 0.46594 0.0
C1564 C 0.46031 0.51436 0.51761 0.0
C1565 C 0.4278 0.48159 0.51711 0.0
C1566 C 0.48886 0.52062 0.51022 0.0
C1567 C 0.48572 0.49418 0.50222 0.0
C1568 C 0.45324 0.46132 0.50175 0.0
C1569 C 0.42451 0.45517 0.50907 0.0
C1570 C 0.58011 0.52684 0.4908 0.0
C1571 C 0.57342 0.51414 0.47905 0.0
C1572 C 0.55168 0.52021 0.49835 0.0
C1573 C 0.51603 0.50106 0.49427 0.0
C1574 C 0.50949 0.48877 0.48248 0.0
C1575 C 0.5378 0.49507 0.47498 0.0
H1576 H 0.4625 0.06999 0.49488 0.0
H1577 H 0.50684 0.03653 0.46646 0.0
H1578 H 0.47319 0.03312 0.5088 0.0
H1579 H 0.51609 -0.00156 0.48026 0.0
H1580 H 0.5612 0.96151 0.50993 0.0
H1581 H 0.55246 0.00078 0.49642 0.0
H1582 H 0.4526 0.97295 0.51405 0.0
H1583 H 0.4621 0.9351 0.5278 0.0
C1584 C 0.47407 0.05437 0.49157 0.0
C1585 C 0.48385 0.05621 0.47958 0.0
C1586 C 0.48012 0.03313 0.49955 0.0
C1587 C 0.4956 0.01284 0.49567 0.0
C1588 C 0.50482 0.01427 0.48362 0.0
C1589 C 0.49923 0.03589 0.47568 0.0
C1590 C 0.53753 0.96402 0.51095 0.0
C1591 C 0.51248 0.94537 0.51996 0.0
C1592 C 0.53236 0.98631 0.50316 0.0
C1593 C 0.50176 0.99 0.50413 0.0
C1594 C 0.47679 0.97133 0.51317 0.0
C1595 C 0.4822 0.94947 0.52104 0.0
H1596 H 0.39022 0.91971 0.00142 0.0
H1597 H 0.46625 0.95981 0.0304 0.0
H1598 H 0.43687 0.96059 0.98783 0.0
H1599 H 0.51241 0.00155 0.01695 0.0
H1600 H 0.59635 0.04546 0.98783 0.0
H1601 H 0.54941 0.0032 0.00106 0.0
H1602 H 0.47203 0.02233 0.98291 0.0
H1603 H 0.51858 0.06341 0.96943 0.0
C1604 C 0.41677 0.93753 0.00491 0.0
C1605 C 0.42457 0.93647 0.01697 0.0
C1606 C 0.4435 0.96106 0.99713 0.0
C1607 C 0.47845 0.98431 0.00129 0.0
C1608 C 0.48601 0.98353 0.0134 0.0
C1609 C 0.45945 0.95975 0.02113 0.0
C1610 C 0.56929 0.04056 0.98667 0.0
C1611 C 0.56116 0.05765 0.97757 0.0
C1612 C 0.54241 0.0165 0.99429 0.0
C1613 C 0.50692 0.00938 0.99306 0.0
C1614 C 0.4989 0.02665 0.98398 0.0
C1615 C 0.52566 0.05036 0.97628 0.0
H1616 H 0.96327 0.49198 0.96395 0.0
H1617 H 0.93292 0.53778 0.99278 0.0
H1618 H 0.00255 0.48305 0.97732 0.0
H1619 H 0.97099 0.52752 0.00624 0.0
H1620 H 0.03911 0.43703 0.0073 0.0
H1621 H 0.00097 0.44692 0.99359 0.0
H1622 H 0.03164 0.54804 0.01081 0.0
H1623 H 0.06834 0.53748 0.02472 0.0
C1624 C 0.9649 0.50004 0.97315 0.0
C1625 C 0.94504 0.51568 0.9773 0.0
C1626 C 0.98721 0.49466 0.98084 0.0
C1627 C 0.98986 0.50443 0.99287 0.0
C1628 C 0.97009 0.52022 0.99699 0.0
C1629 C 0.94813 0.526 0.98927 0.0
C1630 C 0.03757 0.46129 0.00814 0.0
C1631 C 0.05641 0.48625 0.01716 0.0
C1632 C 0.01592 0.4671 0.00025 0.0
C1633 C 0.01311 0.49823 0.00112 0.0
C1634 C 0.0325 0.5234 0.01003 0.0
C1635 C 0.05369 0.51738 0.01799 0.0
H1636 H 0.45636 0.38761 0.99485 0.0
H1637 H 0.50633 0.46542 0.96669 0.0
H1638 H 0.46566 0.43552 0.00849 0.0
H1639 H 0.51419 0.51295 0.9801 0.0
H1640 H 0.55483 0.59521 0.00962 0.0
H1641 H 0.54773 0.54688 0.99659 0.0
H1642 H 0.44487 0.47579 0.01269 0.0
H1643 H 0.45275 0.52357 0.02602 0.0
C1644 C 0.46902 0.41489 0.99155 0.0
C1645 C 0.48069 0.42276 0.97972 0.0
C1646 C 0.47422 0.44235 -0.00066 0.0
C1647 C 0.49073 0.47816 0.9954 0.0
C1648 C 0.50209 0.48585 0.98352 0.0
C1649 C 0.49735 0.45852 0.9758 0.0
C1650 C 0.53076 0.56922 0.01036 0.0
C1651 C 0.50443 0.56315 0.01886 0.0
C1652 C 0.52657 0.54154 0.00287 0.0
C1653 C 0.49569 0.50738 0.00358 0.0
C1654 C 0.4693 0.50149 0.01204 0.0
C1655 C 0.47373 0.52898 0.01964 0.0
H1656 H 0.27086 0.04147 0.08797 0.0
H1657 H 0.28301 0.97368 0.11373 0.0
H1658 H 0.3032 0.02649 0.07335 0.0
H1659 H 0.3141 0.95809 0.09912 0.0
H1660 H 0.37953 0.9411 0.07272 0.0
H1661 H 0.36557 0.97558 0.08674 0.0
H1662 H 0.28666 0.97255 0.06232 0.0
H1663 H 0.30124 0.9393 0.04822 0.0
C1664 C 0.28073 0.02374 0.09057 0.0
C1665 C 0.27382 0.00837 0.10197 0.0
C1666 C 0.29917 0.01508 0.08218 0.0
C1667 C 0.31098 0.99086 0.08503 0.0
C1668 C 0.30582 0.97717 0.09664 0.0
C1669 C 0.28757 0.98588 0.10501 0.0
C1670 C 0.35966 0.94835 0.07026 0.0
C1671 C 0.34107 0.93684 0.05942 0.0
C1672 C 0.35161 0.96803 0.07831 0.0
C1673 C 0.32468 0.97642 0.07571 0.0
C1674 C 0.30778 0.96689 0.06457 0.0
C1675 C 0.31596 0.94745 0.05651 0.0
H1676 H 0.04584 0.43236 0.07335 0.0
H1677 H 0.04289 0.35325 0.04896 0.0
H1678 H 0.01224 0.38517 0.08785 0.0
H1679 H 0.01069 0.30669 0.06352 0.0
H1680 H 0.95009 0.22451 0.09036 0.0
H1681 H 0.95973 0.27021 0.07569 0.0
H1682 H 0.03174 0.35272 0.09996 0.0
H1683 H 0.02131 0.30761 0.11466 0.0
C1684 C 0.03761 0.40492 0.071 0.0
C1685 C 0.04779 0.39675 0.06009 0.0
C1686 C 0.01844 0.37788 0.07932 0.0
C1687 C 0.0093 0.34223 0.07693 0.0
C1688 C 0.01699 0.33375 0.06566 0.0
C1689 C 0.03587 0.36066 0.05732 0.0
C1690 C 0.96737 0.25246 0.09265 0.0
C1691 C 0.98548 0.2623 0.1036 0.0
C1692 C 0.97296 0.27864 0.08423 0.0
C1693 C 0.99687 0.3151 0.08658 0.0
C1694 C 0.01286 0.32498 0.09786 0.0
C1695 C 0.00714 0.29893 0.10628 0.0
H1696 H 0.56035 0.63637 0.07747 0.0
H1697 H 0.6275 0.65184 0.04697 0.0
H1698 H 0.61053 0.65103 0.09055 0.0
H1699 H 0.67755 0.6647 0.06008 0.0
H1700 H 0.70043 0.67595 0.11358 0.0
H1701 H 0.65321 0.64034 0.09933 0.0
H1702 H 0.71623 0.7145 0.07145 0.0
H1703 H 0.76402 0.74849 0.08559 0.0
C1704 C 0.5856 0.64179 0.07358 0.0
C1705 C 0.59022 0.64358 0.06122 0.0
C1706 C 0.61445 0.64998 0.08109 0.0
C1707 C 0.64841 0.65951 0.07639 0.0
C1708 C 0.6521 0.65839 0.06401 0.0
C1709 C 0.6234 0.65086 0.05649 0.0
C1710 C 0.70449 0.68382 0.10431 0.0
C1711 C 0.73554 0.71507 0.10066 0.0
C1712 C 0.67736 0.66366 0.09616 0.0
C1713 C 0.68038 0.67499 0.08428 0.0
C1714 C 0.71289 0.70466 0.08048 0.0
C1715 C 0.74036 0.72433 0.08859 0.0
H1716 H 0.91182 0.35214 0.41821 0.0
H1717 H 0.97344 0.34863 0.44789 0.0
H1718 H 0.94383 0.33335 0.40495 0.0
H1719 H 0.00741 0.33211 0.43456 0.0
H1720 H 0.009 0.30665 0.38161 0.0
H1721 H 0.99436 0.34233 0.39483 0.0
H1722 H 0.99677 0.28051 0.4248 0.0
H1723 H 0.01365 0.24676 0.41165 0.0
C1724 C 0.93309 0.34845 0.42182 0.0
C1725 C 0.93992 0.35138 0.43406 0.0
C1726 C 0.95169 0.33786 0.41421 0.0
C1727 C 0.97808 0.33073 0.41866 0.0
C1728 C 0.98662 0.33633 0.43084 0.0
C1729 C 0.9674 0.34607 0.43848 0.0
C1730 C 0.00714 0.30137 0.39107 0.0
C1731 C 0.0122 0.27386 0.39563 0.0
C1732 C -0.00154 0.32158 0.39865 0.0
C1733 C 0.99371 0.31403 0.4109 0.0
C1734 C 0.00064 0.28763 0.41548 0.0
C1735 C 0.01016 0.26803 0.40793 0.0
H1736 H 0.61768 0.5608 0.42153 0.0
H1737 H 0.67746 0.64502 0.44708 0.0
H1738 H 0.62856 0.60597 0.4065 0.0
H1739 H 0.68937 0.68967 0.43207 0.0
H1740 H 0.70831 0.76834 0.40444 0.0
H1741 H 0.67227 0.72045 0.41844 0.0
H1742 H 0.68215 0.64454 0.39589 0.0
H1743 H 0.71673 0.69175 0.38176 0.0
C1744 C 0.63256 0.58885 0.42402 0.0
C1745 C 0.6474 0.59925 0.43544 0.0
C1746 C 0.63895 0.61474 0.41538 0.0
C1747 C 0.66041 0.65147 0.418 0.0
C1748 C 0.67254 0.66171 0.42971 0.0
C1749 C 0.66599 0.63594 0.43833 0.0
C1750 C 0.70219 0.74128 0.40237 0.0
C1751 C 0.71607 0.73405 0.3921 0.0
C1752 C 0.68157 0.71385 0.41041 0.0
C1753 C 0.67473 0.67873 0.40839 0.0
C1754 C 0.6865 0.67113 0.3977 0.0
C1755 C 0.70676 0.69842 0.38963 0.0
H1756 H 0.43306 0.08265 0.41963 0.0
H1757 H 0.36778 0.0178 0.44881 0.0
H1758 H 0.3838 0.04884 0.40598 0.0
H1759 H 0.31893 0.98222 0.43509 0.0
H1760 H 0.29425 0.98374 0.38207 0.0
H1761 H 0.34386 0.99786 0.39555 0.0
H1762 H 0.27743 0.99225 0.42528 0.0
H1763 H 0.22757 0.97607 0.41185 0.0
C1764 C 0.40852 0.06027 0.42304 0.0
C1765 C 0.40396 0.0531 0.43527 0.0
C1766 C 0.38021 0.04065 0.41521 0.0
C1767 C 0.34699 0.01299 0.41943 0.0
C1768 C 0.34369 0.00396 0.43156 0.0
C1769 C 0.37173 0.02412 0.43942 0.0
C1770 C 0.29017 0.98473 0.39153 0.0
C1771 C 0.25727 0.97919 0.39593 0.0
C1772 C 0.31863 0.99307 0.39925 0.0
C1773 C 0.31504 0.99691 0.41151 0.0
C1774 C 0.28129 0.98914 0.41594 0.0
C1775 C 0.25261 0.98003 0.40824 0.0
H1776 H 0.75155 0.98595 0.91253 0.0
H1777 H 0.68128 0.97822 0.88393 0.0
H1778 H 0.71911 0.00354 0.92608 0.0
H1779 H 0.64714 0.99359 0.8976 0.0
H1780 H 0.64012 0.08096 0.91907 0.0
H1781 H 0.65738 0.04678 0.90627 0.0
H1782 H 0.66909 0.99324 0.93707 0.0
H1783 H 0.65377 0.02921 0.94989 0.0
C1784 C 0.72831 0.98679 0.90927 0.0
C1785 C 0.71913 0.98123 0.8972 0.0
C1786 C 0.70952 0.99673 0.91704 0.0
C1787 C 0.68072 0.00059 0.91292 0.0
C1788 C 0.66979 0.99196 0.90102 0.0
C1789 C 0.68911 0.98286 0.8932 0.0
C1790 C 0.64577 0.06142 0.92307 0.0
C1791 C 0.64608 0.05804 0.93546 0.0
C1792 C 0.65548 0.04155 0.91573 0.0
C1793 C 0.66503 0.01734 0.92062 0.0
C1794 C 0.66282 0.01224 0.933 0.0
C1795 C 0.65383 0.03267 0.94035 0.0
H1796 H 0.98028 0.63003 0.94716 0.0
H1797 H 0.91152 0.56808 0.91819 0.0
H1798 H 0.01525 0.67973 0.93365 0.0
H1799 H 0.94479 0.61833 0.90478 0.0
H1800 H 0.012 0.70967 0.88127 0.0
H1801 H 0.99548 0.65806 0.89407 0.0
H1802 H 0.00584 0.72298 0.92482 0.0
H1803 H 0.02428 0.7747 0.91206 0.0
C1804 C 0.97294 0.62702 0.93785 0.0
C1805 C 0.94313 0.59547 0.9337 0.0
C1806 C 0.99275 0.65556 0.93012 0.0
C1807 C 0.98251 0.65348 0.91815 0.0
C1808 C 0.95387 0.62095 0.91388 0.0
C1809 C 0.9346 0.59209 0.92157 0.0
C1810 C 0.01139 0.71293 0.8908 0.0
C1811 C 0.01913 0.74606 0.89569 0.0
C1812 C 0.0017 0.68332 0.89814 0.0
C1813 C -0.00121 0.68605 0.9105 0.0
C1814 C 0.00828 0.71978 0.91539 0.0
C1815 C 0.01868 0.74952 0.90806 0.0
H1816 H 0.43139 0.35891 0.91949 0.0
H1817 H 0.36386 0.3533 0.94874 0.0
H1818 H 0.38381 0.34746 0.90562 0.0
H1819 H 0.31664 0.34398 0.93481 0.0
H1820 H 0.29688 0.32232 0.88126 0.0
H1821 H 0.34406 0.35907 0.89537 0.0
H1822 H 0.27625 0.29375 0.9242 0.0
H1823 H 0.22874 0.25884 0.91015 0.0
C1824 C 0.40678 0.3566 0.9229 0.0
C1825 C 0.40099 0.3563 0.93517 0.0
C1826 C 0.37941 0.35023 0.91493 0.0
C1827 C 0.34591 0.34409 0.91907 0.0
C1828 C 0.34162 0.34749 0.93131 0.0
C1829 C 0.36873 0.35306 0.9393 0.0
C1830 C 0.29184 0.31669 0.89067 0.0
C1831 C 0.25946 0.28751 0.89463 0.0
C1832 C 0.31893 0.33752 0.89875 0.0
C1833 C 0.31449 0.32892 0.91093 0.0
C1834 C 0.2808 0.30157 0.91493 0.0
C1835 C 0.25344 0.2813 0.90687 0.0
H1836 H 0.98641 0.68745 0.61535 0.0
H1837 H 0.97979 0.74618 0.58529 0.0
H1838 H 0.00128 0.652 0.60211 0.0
H1839 H 0.99671 0.7125 0.5721 0.0
H1840 H 0.02017 0.64558 0.54885 0.0
H1841 H 0.98543 0.66019 0.56252 0.0
H1842 H 0.05166 0.66138 0.59164 0.0
H1843 H 0.08461 0.64459 0.57805 0.0
C1844 C 0.98798 0.69261 0.60588 0.0
C1845 C 0.98228 0.71973 0.60133 0.0
C1846 C 0.9967 0.67246 0.59829 0.0
C1847 C 0.00073 0.67958 0.58601 0.0
C1848 C 0.99334 0.70569 0.58145 0.0
C1849 C 0.98387 0.72529 0.58902 0.0
C1850 C 0.02649 0.64799 0.55825 0.0
C1851 C 0.05515 0.64424 0.56242 0.0
C1852 C 0.00686 0.65672 0.56607 0.0
C1853 C 0.01616 0.66283 0.57818 0.0
C1854 C 0.04334 0.65659 0.58243 0.0
C1855 C 0.0624 0.64703 0.57464 0.0
H1856 H 0.25744 0.22961 0.58769 0.0
H1857 H 0.32224 0.29877 0.61619 0.0
H1858 H 0.29229 0.27656 0.57338 0.0
H1859 H 0.35852 0.34537 0.60184 0.0
H1860 H 0.3586 0.43176 0.57687 0.0
H1861 H 0.3462 0.38475 0.59119 0.0
H1862 H 0.34408 0.31597 0.56278 0.0
H1863 H 0.35471 0.36263 0.54842 0.0
C1864 C 0.28008 0.25439 0.59083 0.0
C1865 C 0.28678 0.26084 0.60303 0.0
C1866 C 0.30027 0.28139 0.58263 0.0
C1867 C 0.32792 0.31517 0.58646 0.0
C1868 C 0.33681 0.32012 0.5986 0.0
C1869 C 0.31621 0.29336 0.60681 0.0
C1870 C 0.35647 0.40697 0.57374 0.0
C1871 C 0.35696 0.40055 0.56155 0.0
C1872 C 0.34949 0.37993 0.58196 0.0
C1873 C 0.34345 0.34616 0.57814 0.0
C1874 C 0.34757 0.34122 0.56601 0.0
C1875 C 0.3539 0.36802 0.55779 0.0
H1876 H 0.704 0.01503 0.61603 0.0
H1877 H 0.77052 0.01953 0.58663 0.0
H1878 H 0.65501 0.00159 0.60234 0.0
H1879 H 0.72122 0.00392 0.57301 0.0
H1880 H 0.56512 0.91556 0.5789 0.0
H1881 H 0.61479 0.94983 0.59235 0.0
H1882 H 0.67993 0.01318 0.56276 0.0
H1883 H 0.63061 0.97711 0.54925 0.0
C1884 C 0.70824 0.01368 0.60659 0.0
C1885 C 0.74082 0.01796 0.60237 0.0
C1886 C 0.6801 0.00564 0.59876 0.0
C1887 C 0.6837 0.00078 0.58657 0.0
C1888 C 0.71734 0.00774 0.58229 0.0
C1889 C 0.74572 0.0166 0.5901 0.0
C1890 C 0.58987 0.93724 0.57533 0.0
C1891 C 0.59428 0.94337 0.56305 0.0
C1892 C 0.6184 0.95717 0.58305 0.0
C1893 C 0.65174 0.98417 0.57866 0.0
C1894 C 0.65506 0.99202 0.56643 0.0
C1895 C 0.62677 0.97152 0.55869 0.0
H1896 H 0.65572 0.63461 0.71672 0.0
H1897 H 0.70941 0.60083 0.74166 0.0
H1898 H 0.64505 0.66646 0.73234 0.0
H1899 H 0.70002 0.63441 0.75736 0.0
H1900 H 0.61177 0.63211 0.78204 0.0
H1901 H 0.64708 0.62078 0.76785 0.0
H1902 H 0.66163 0.71125 0.74685 0.0
H1903 H 0.62459 0.7216 0.76087 0.0
C1904 C 0.66619 0.63479 0.72549 0.0
C1905 C 0.68254 0.61427 0.728 0.0
C1906 C 0.6604 0.65353 0.73447 0.0
C1907 C 0.6711 0.65256 0.7462 0.0
C1908 C 0.69066 0.635 0.74847 0.0
C1909 C 0.69626 0.61594 0.73946 0.0
C1910 C 0.62292 0.65002 0.77451 0.0
C1911 C 0.61448 0.67717 0.77242 0.0
C1912 C 0.64363 0.64375 0.7664 0.0
C1913 C 0.65683 0.66476 0.75607 0.0
C1914 C 0.65113 0.69399 0.75456 0.0
C1915 C 0.62994 0.69997 0.7626 0.0
H1916 H 0.36938 0.02178 0.71746 0.0
H1917 H 0.39145 0.104 0.74358 0.0
H1918 H 0.33836 0.97601 0.73231 0.0
H1919 H 0.35891 0.05767 0.75846 0.0
H1920 H 0.36505 0.97276 0.7825 0.0
H1921 H 0.37624 0.01998 0.76857 0.0
H1922 H 0.29096 0.94337 0.74603 0.0
H1923 H 0.28048 0.89547 0.75986 0.0
C1924 C 0.36683 0.03015 0.72631 0.0
C1925 C 0.38377 0.06668 0.72939 0.0
C1926 C 0.3486 0.00373 0.73484 0.0
C1927 C 0.34658 0.01313 0.74665 0.0
C1928 C 0.36068 0.04958 0.74949 0.0
C1929 C 0.37918 0.07613 0.74094 0.0
C1930 C 0.34823 0.9659 0.77467 0.0
C1931 C 0.32236 0.93012 0.77218 0.0
C1932 C 0.35442 0.9932 0.76672 0.0
C1933 C 0.33471 0.98548 0.75611 0.0
C1934 C 0.30706 0.9501 0.75403 0.0
C1935 C 0.30103 0.92265 0.76196 0.0
H1936 H 0.89262 0.315 0.74504 0.0
H1937 H 0.95741 0.31426 0.71589 0.0
H1938 H 0.94297 0.33342 0.75851 0.0
H1939 H 0.00732 0.33045 0.72944 0.0
H1940 H 0.03402 0.35811 0.78219 0.0
H1941 H 0.98345 0.32317 0.769 0.0
H1942 H 0.04882 0.38267 0.7389 0.0
H1943 H 0.09962 0.41582 0.75204 0.0
C1944 C 0.91738 0.31771 0.74161 0.0
C1945 C 0.9214 0.3137 0.72944 0.0
C1946 C 0.94628 0.32808 0.74933 0.0
C1947 C 0.97955 0.33392 0.74506 0.0
C1948 C 0.98251 0.32723 0.733 0.0
C1949 C 0.95388 0.3177 0.72524 0.0
C1950 C 0.03762 0.36309 0.77271 0.0
C1951 C 0.07058 0.38979 0.76812 0.0
C1952 C 0.0086 0.34328 0.76515 0.0
C1953 C 0.01172 0.35035 0.75287 0.0
C1954 C 0.04536 0.37595 0.74826 0.0
C1955 C 0.07456 0.39519 0.7558 0.0
H1956 H 0.35421 0.31299 0.2157 0.0
H1957 H 0.41313 0.3081 0.24598 0.0
H1958 H 0.31769 0.32688 0.22879 0.0
H1959 H 0.3785 0.32418 0.259 0.0
H1960 H 0.31158 0.34893 0.28187 0.0
H1961 H 0.32673 0.31377 0.26859 0.0
H1962 H 0.32658 0.3775 0.23885 0.0
H1963 H 0.30917 0.41074 0.25206 0.0
C1964 C 0.35906 0.31456 0.22519 0.0
C1965 C 0.38662 0.30977 0.22984 0.0
C1966 C 0.33835 0.3228 0.23269 0.0
C1967 C 0.34543 0.32736 0.24497 0.0
C1968 C 0.37175 0.32047 0.24965 0.0
C1969 C 0.39186 0.31141 0.24217 0.0
C1970 C 0.31395 0.35467 0.27243 0.0
C1971 C 0.30952 0.38265 0.26797 0.0
C1972 C 0.32293 0.33477 0.26483 0.0
C1973 C 0.32866 0.34313 0.25264 0.0
C1974 C 0.32203 0.3698 0.24812 0.0
C1975 C 0.31219 0.3891 0.2557 0.0
H1976 H 0.58068 0.8954 0.25083 0.0
H1977 H 0.64035 0.95825 0.28116 0.0
H1978 H 0.61639 0.94601 0.23784 0.0
H1979 H 0.67779 0.00846 0.26813 0.0
H1980 H 0.68564 0.03736 0.21514 0.0
H1981 H 0.66925 0.98673 0.2284 0.0
H1982 H 0.66951 0.05082 0.25808 0.0
H1983 H 0.68797 0.10174 0.24491 0.0
C1984 C 0.6023 0.91973 0.25465 0.0
C1985 C 0.60749 0.92317 0.26698 0.0
C1986 C 0.62301 0.94881 0.2472 0.0
C1987 C 0.64983 0.9817 0.25193 0.0
C1988 C 0.65678 0.98397 0.2642 0.0
C1989 C 0.63552 0.95515 0.27167 0.0
C1990 C 0.68304 0.04072 0.22457 0.0
C1991 C 0.68773 0.07326 0.22901 0.0
C1992 C 0.67336 0.01166 0.23216 0.0
C1993 C 0.6673 0.01429 0.2443 0.0
C1994 C 0.6743 0.04771 0.24883 0.0
C1995 C 0.68475 0.07699 0.24127 0.0
H1996 H 0.8922 0.61204 0.24158 0.0
H1997 H 0.97033 0.61964 0.21582 0.0
H1998 H 0.94029 0.64551 0.2558 0.0
H1999 H 0.01784 0.65187 0.23009 0.0
H2000 H 0.10159 0.71673 0.2562 0.0
H2001 H 0.05344 0.70373 0.24217 0.0
H2002 H 0.97631 0.62767 0.26701 0.0
H2003 H 0.02389 0.64129 0.28109 0.0
C2004 C 0.91959 0.62123 0.23888 0.0
C2005 C 0.92729 0.61253 0.22763 0.0
C2006 C 0.94713 0.64031 0.24705 0.0
C2007 C 0.98284 0.65094 0.24414 0.0
C2008 C 0.99071 0.64442 0.23261 0.0
C2009 C 0.96329 0.62555 0.22444 0.0
C2010 C 0.07428 0.69772 0.25875 0.0
C2011 C 0.06673 0.6796 0.26969 0.0
C2012 C 0.0467 0.69022 0.2507 0.0
C2013 C 0.01108 0.66438 0.25341 0.0
C2014 C 0.00334 0.64802 0.26466 0.0
C2015 C 0.0308 0.65561 0.27271 0.0
H2016 H 0.04203 0.14848 0.13319 0.0
H2017 H 0.07165 0.20065 0.09904 0.0
H2018 H 0.09432 0.14127 0.13299 0.0
H2019 H 0.12532 0.19448 0.09884 0.0
H2020 H 0.17042 0.11472 0.09595 0.0
H2021 H 0.13612 0.14588 0.09616 0.0
H2022 H 0.15656 0.16563 0.13383 0.0
H2023 H 0.18862 0.13231 0.13364 0.0
C2024 C 0.06069 0.15963 0.12583 0.0
C2025 C 0.05357 0.17593 0.11629 0.0
C2026 C 0.09082 0.15564 0.1257 0.0
C2027 C 0.1144 0.16754 0.11592 0.0
C2028 C 0.10768 0.18486 0.10648 0.0
C2029 C 0.07719 0.18859 0.1066 0.0
C2030 C 0.1684 0.12674 0.10416 0.0
C2031 C 0.1815 0.12081 0.11481 0.0
C2032 C 0.14885 0.14471 0.10431 0.0
C2033 C 0.14274 0.15749 0.11509 0.0
C2034 C 0.1597 0.1551 0.12545 0.0
C2035 C 0.17833 0.13634 0.12535 0.0
H2036 H 0.92436 0.04758 0.13058 0.0
H2037 H 0.85519 0.05535 0.10437 0.0
H2038 H 0.88691 0.98363 0.131 0.0
H2039 H 0.81599 0.9898 0.1051 0.0
H2040 H 0.80095 0.87317 0.09827 0.0
H2041 H 0.81761 0.93637 0.09912 0.0
H2042 H 0.83228 0.9358 0.13711 0.0
H2043 H 0.82084 0.8749 0.13585 0.0
C2044 C 0.90067 0.03562 0.12501 0.0
C2045 C 0.89285 0.05663 0.11741 0.0
C2046 C 0.87871 -0.00133 0.12539 0.0
C2047 C 0.84783 0.98136 0.11827 0.0
C2048 C 0.83953 0.00231 0.11072 0.0
C2049 C 0.86191 0.03976 0.1103 0.0
C2050 C 0.80666 0.88643 0.10683 0.0
C2051 C 0.80861 0.86883 0.11707 0.0
C2052 C 0.816 0.92258 0.10734 0.0
C2053 C 0.82715 0.94146 0.11814 0.0
C2054 C 0.82475 0.92238 0.12858 0.0
C2055 C 0.81701 0.88693 0.12796 0.0
H2056 H 0.93873 0.88407 0.13016 0.0
H2057 H 0.94181 0.80519 0.10721 0.0
H2058 H 0.00318 0.9178 0.13059 0.0
H2059 H 0.00758 0.83856 0.1081 0.0
H2060 H 0.1208 0.93884 0.10001 0.0
H2061 H 0.05747 0.89274 0.10106 0.0
H2062 H 0.05469 0.92092 0.1378 0.0
H2063 H 0.11638 0.96918 0.13618 0.0
C2064 C 0.95328 0.87352 0.12536 0.0
C2065 C 0.93515 0.84195 0.11864 0.0
C2066 C 0.99049 0.89276 0.12572 0.0
C2067 C 0.01088 0.88073 0.11954 0.0
C2068 C 0.99276 0.84872 0.11292 0.0
C2069 C 0.95515 0.82956 0.11243 0.0
C2070 C 0.10659 0.93446 0.10835 0.0
C2071 C 0.12359 0.9567 0.11814 0.0
C2072 C 0.07042 0.90792 0.109 0.0
C2073 C 0.05068 0.90331 0.11947 0.0
C2074 C 0.06868 0.92417 0.12949 0.0
C2075 C 0.10437 0.95128 0.1287 0.0
H2076 H 0.12723 0.17968 0.36449 0.0
H2077 H 0.11302 0.16474 0.40239 0.0
H2078 H 0.15928 0.14635 0.3642 0.0
H2079 H 0.14279 0.12914 0.40211 0.0
H2080 H 0.1952 0.06266 0.39926 0.0
H2081 H 0.19005 0.11688 0.3992 0.0
H2082 H 0.13467 0.08429 0.36545 0.0
H2083 H 0.14113 0.0315 0.36547 0.0
C2084 C 0.13173 0.16981 0.3728 0.0
C2085 C 0.11756 0.17433 0.38344 0.0
C2086 C 0.14973 0.15043 0.37263 0.0
C2087 C 0.15266 0.13404 0.38306 0.0
C2088 C 0.1412 0.1414 0.3939 0.0
C2089 C 0.12403 0.16171 0.39409 0.0
C2090 C 0.18289 0.06796 0.39173 0.0
C2091 C 0.16943 0.04375 0.38221 0.0
C2092 C 0.1797 0.09876 0.39171 0.0
C2093 C 0.16205 0.10519 0.38231 0.0
C2094 C 0.1493 0.081 0.3727 0.0
C2095 C 0.15283 0.05058 0.37269 0.0
H2096 H 0.96422 0.10525 0.36589 0.0
H2097 H 0.93406 0.12935 0.39968 0.0
H2098 H 0.91051 0.04655 0.36589 0.0
H2099 H 0.87913 0.07045 0.39968 0.0
H2100 H 0.82718 0.94406 0.40186 0.0
H2101 H 0.86497 0.00933 0.40217 0.0
H2102 H 0.84728 0.01278 0.36447 0.0
H2103 H 0.81145 0.94749 0.36415 0.0
C2104 C 0.94528 0.09822 0.37314 0.0
C2105 C 0.95244 0.12191 0.3826 0.0
C2106 C 0.91439 0.06463 0.37316 0.0
C2107 C 0.89009 0.05383 0.38273 0.0
C2108 C 0.89723 0.0779 0.39218 0.0
C2109 C 0.92845 0.11156 0.39217 0.0
C2110 C 0.83043 0.95904 0.39377 0.0
C2111 C 0.81691 0.9411 0.38297 0.0
C2112 C 0.85206 0.99643 0.39391 0.0
C2113 C 0.85994 0.01622 0.38327 0.0
C2114 C 0.84267 0.99825 0.37275 0.0
C2115 C 0.82186 0.96096 0.37257 0.0
H2116 H 0.04687 0.88467 0.40228 0.0
H2117 H 0.04841 0.87228 0.3643 0.0
H2118 H 0.98154 0.85645 0.40178 0.0
H2119 H 0.98313 0.84203 0.36379 0.0
H2120 H 0.88728 0.861 0.36497 0.0
H2121 H 0.94704 0.86864 0.3654 0.0
H2122 H 0.92159 0.80894 0.39834 0.0
H2123 H 0.86162 0.80242 0.39795 0.0
C2124 C 0.03299 0.87445 0.39392 0.0
C2125 C 0.05233 0.88093 0.38332 0.0
C2126 C 0.99557 0.85821 0.3936 0.0
C2127 C 0.97712 0.84778 0.38268 0.0
C2128 C 0.99656 0.8508 0.37228 0.0
C2129 C 0.03386 0.86778 0.37258 0.0
C2130 C 0.89426 0.84873 0.37211 0.0
C2131 C 0.86982 0.83024 0.38123 0.0
C2132 C 0.92847 0.85295 0.37238 0.0
C2133 C 0.93913 0.839 0.38185 0.0
C2134 C 0.91431 0.82006 0.39094 0.0
C2135 C 0.88003 0.81613 0.3907 0.0
H2136 H 0.83302 0.88778 0.9021 0.0
H2137 H 0.82478 0.87694 0.86396 0.0
H2138 H 0.87358 0.86352 0.90229 0.0
H2139 H 0.86343 0.85064 0.86411 0.0
H2140 H 0.97956 0.87462 0.8669 0.0
H2141 H 0.92596 0.87988 0.86662 0.0
H2142 H 0.89013 0.81898 0.8993 0.0
H2143 H 0.94507 0.8151 0.89967 0.0
C2144 C 0.83871 0.87872 0.89383 0.0
C2145 C 0.82636 0.88459 0.88301 0.0
C2146 C 0.86192 0.86477 0.89391 0.0
C2147 C 0.87255 0.85599 0.88317 0.0
C2148 C 0.85678 0.85825 0.8725 0.0
C2149 C 0.83437 0.87295 0.87241 0.0
C2150 C 0.95976 0.86175 0.87386 0.0
C2151 C 0.96562 0.8436 0.88311 0.0
C2152 C 0.92892 0.86456 0.87371 0.0
C2153 C 0.9033 0.8494 0.88287 0.0
C2154 C 0.90927 0.83102 0.89213 0.0
C2155 C 0.94048 0.82859 0.89232 0.0
H2156 H 0.14789 0.95423 0.86711 0.0
H2157 H 0.12381 0.95813 0.90407 0.0
H2158 H 0.18284 0.01956 0.86646 0.0
H2159 H 0.1566 0.02355 0.90334 0.0
H2160 H 0.20972 0.1413 0.89972 0.0
H2161 H 0.20578 0.08252 0.9008 0.0
H2162 H 0.15929 0.05803 0.86557 0.0
H2163 H 0.16409 0.11641 0.86456 0.0
C2164 C 0.15095 0.96926 0.87517 0.0
C2165 C 0.13314 0.95154 0.88561 0.0
C2166 C 0.17064 0.00662 0.8748 0.0
C2167 C 0.17167 0.02694 0.88474 0.0
C2168 C 0.15659 0.00893 0.89551 0.0
C2169 C 0.13767 0.97142 0.89596 0.0
C2170 C 0.19984 0.12355 0.89211 0.0
C2171 C 0.18804 0.13345 0.88195 0.0
C2172 C 0.19735 0.08989 0.89273 0.0
C2173 C 0.18216 0.06534 0.88329 0.0
C2174 C 0.17193 0.07627 0.87293 0.0
C2175 C 0.17462 0.10982 0.87231 0.0
H2176 H 0.0525 0.19559 0.89042 0.0
H2177 H 0.05328 0.11506 0.86769 0.0
H2178 H 0.98669 0.16354 0.88953 0.0
H2179 H 0.98883 0.08287 0.86718 0.0
H2180 H 0.87698 0.03281 0.86163 0.0
H2181 H 0.93806 0.08215 0.85981 0.0
H2182 H 0.9364 0.10883 0.89678 0.0
H2183 H 0.87355 0.06162 0.89808 0.0
C2184 C 0.03866 0.17117 0.88524 0.0
C2185 C 0.05802 0.15786 0.87912 0.0
C2186 C 0.00106 0.15282 0.88473 0.0
C2187 C 0.98235 0.12086 0.87814 0.0
C2188 C 0.00207 0.10794 0.87203 0.0
C2189 C 0.03927 0.12626 0.87245 0.0
C2190 C 0.88892 0.05072 0.86911 0.0
C2191 C 0.87027 0.04434 0.87985 0.0
C2192 C 0.92428 0.07846 0.8682 0.0
C2193 C 0.94255 0.09893 0.87824 0.0
C2194 C 0.9232 0.09383 0.88884 0.0
C2195 C 0.8873 0.06668 0.88962 0.0
H2196 H 0.79726 0.92843 0.59728 0.0
H2197 H 0.84675 0.95309 0.63187 0.0
H2198 H 0.80088 0.87331 0.59667 0.0
H2199 H 0.85126 0.89925 0.63131 0.0
H2200 H 0.85698 0.80362 0.63128 0.0
H2201 H 0.82437 0.83641 0.63144 0.0
H2202 H 0.84904 0.86132 0.59418 0.0
H2203 H 0.87953 0.82638 0.59396 0.0
C2204 C 0.80811 0.92147 0.60485 0.0
C2205 C 0.8208 0.94415 0.61477 0.0
C2206 C 0.81036 0.89014 0.6045 0.0
C2207 C 0.82616 0.8816 0.61396 0.0
C2208 C 0.838 0.90419 0.62399 0.0
C2209 C 0.83555 0.93519 0.62433 0.0
C2210 C 0.85409 0.81498 0.62304 0.0
C2211 C 0.8709 0.81297 0.61264 0.0
C2212 C 0.83574 0.834 0.62313 0.0
C2213 C 0.83507 0.8525 0.61292 0.0
C2214 C 0.84892 0.84741 0.60221 0.0
C2215 C 0.8665 0.82748 0.60206 0.0
H2216 H 0.1905 0.05266 0.60806 0.0
H2217 H 0.10977 0.05708 0.62961 0.0
H2218 H 0.15534 0.98685 0.60845 0.0
H2219 H 0.07438 0.99262 0.62956 0.0
H2220 H 0.02099 0.87877 0.63508 0.0
H2221 H 0.06936 0.94035 0.63703 0.0
H2222 H 0.10136 0.93778 0.60075 0.0
H2223 H 0.05488 0.87461 0.59938 0.0
C2224 C 0.16531 0.0396 0.61285 0.0
C2225 C 0.15298 0.05999 0.61885 0.0
C2226 C 0.14513 0.00197 0.61306 0.0
C2227 C 0.11216 0.98423 0.61918 0.0
C2228 C 0.10008 0.00499 0.62509 0.0
C2229 C 0.1203 0.04221 0.62501 0.0
C2230 C 0.03966 0.89081 0.62778 0.0
C2231 C 0.0352 0.87167 0.61727 0.0
C2232 C 0.06686 0.92644 0.62875 0.0
C2233 C 0.08893 0.94446 0.61895 0.0
C2234 C 0.08522 0.92481 0.60853 0.0
C2235 C 0.05849 0.88872 0.6077 0.0
H2236 H 0.12492 0.17533 0.63719 0.0
H2237 H 0.12948 0.19965 0.59986 0.0
H2238 H 0.06365 0.16292 0.63809 0.0
H2239 H 0.06616 0.18253 0.60033 0.0
H2240 H 0.94674 0.14393 0.60492 0.0
H2241 H 0.01211 0.1832 0.60632 0.0
H2242 H 0.01673 0.10853 0.63098 0.0
H2243 H 0.95276 0.07078 0.62986 0.0
C2244 C 0.11343 0.17998 0.62931 0.0
C2245 C 0.13237 0.18969 0.61856 0.0
C2246 C 0.07781 0.17173 0.62971 0.0
C2247 C 0.05955 0.17047 0.6192 0.0
C2248 C 0.07932 0.1832 0.60861 0.0
C2249 C 0.11555 0.19286 0.60831 0.0
C2250 C 0.96194 0.13632 0.6107 0.0
C2251 C 0.94462 0.10428 0.61727 0.0
C2252 C -0.00073 0.15876 0.61152 0.0
C2253 C 0.0197 0.14945 0.61893 0.0
C2254 C 0.002 0.11741 0.62549 0.0
C2255 C 0.96511 0.09533 0.62472 0.0
H2256 H 0.71337 0.49562 0.46598 0.0
H2257 H 0.74083 0.54646 0.4316 0.0
H2258 H 0.7662 0.48944 0.46563 0.0
H2259 H 0.795 0.54126 0.43122 0.0
H2260 H 0.83613 0.45853 0.4276 0.0
H2261 H 0.80412 0.49193 0.42829 0.0
H2262 H 0.82794 0.51164 0.4658 0.0
H2263 H 0.85763 0.47604 0.46514 0.0
C2264 C 0.73179 0.50694 0.45857 0.0
C2265 C 0.7237 0.52224 0.44895 0.0
C2266 C 0.76223 0.50348 0.45833 0.0
C2267 C 0.7851 0.51485 0.44837 0.0
C2268 C 0.77784 0.5319 0.43897 0.0
C2269 C 0.74707 0.53512 0.4392 0.0
C2270 C 0.83535 0.471 0.43587 0.0
C2271 C 0.84863 0.46441 0.44635 0.0
C2272 C 0.81715 0.4903 0.4363 0.0
C2273 C 0.81262 0.50377 0.44719 0.0
C2274 C 0.82988 0.50066 0.45735 0.0
C2275 C 0.84713 0.48057 0.45698 0.0
H2276 H 0.47772 0.2082 0.43212 0.0
H2277 H 0.50833 0.21511 0.4689 0.0
H2278 H 0.49404 0.27144 0.43249 0.0
H2279 H 0.52051 0.27646 0.46976 0.0
H2280 H 0.60588 0.38911 0.46087 0.0
H2281 H 0.57234 0.3248 0.46167 0.0
H2282 H 0.49057 0.32389 0.43913 0.0
H2283 H 0.52559 0.38982 0.43802 0.0
C2284 C 0.4861 0.22277 0.44044 0.0
C2285 C 0.49083 0.20661 0.45058 0.0
C2286 C 0.49522 0.25887 0.44068 0.0
C2287 C 0.50922 0.27922 0.4511 0.0
C2288 C 0.51058 0.26182 0.46151 0.0
C2289 C 0.50268 0.2263 0.46114 0.0
C2290 C 0.58064 0.37547 0.45612 0.0
C2291 C 0.56834 0.39463 0.44941 0.0
C2292 C 0.56106 0.33836 0.45671 0.0
C2293 C 0.52821 0.31904 0.45072 0.0
C2294 C 0.51571 0.33804 0.4439 0.0
C2295 C 0.5357 0.37567 0.44325 0.0
H2296 H 0.775 0.31233 0.46513 0.0
H2297 H 0.79569 0.27612 0.43194 0.0
H2298 H 0.71525 0.26019 0.46576 0.0
H2299 H 0.73611 0.2224 0.43271 0.0
H2300 H 0.61125 0.1686 0.43022 0.0
H2301 H 0.67624 0.20746 0.42998 0.0
H2302 H 0.67845 0.19884 0.46826 0.0
H2303 H 0.61327 0.16224 0.46842 0.0
C2304 C 0.76694 0.29238 0.45816 0.0
C2305 C 0.78994 0.29748 0.44865 0.0
C2306 C 0.73274 0.26232 0.45852 0.0
C2307 C 0.72071 0.23666 0.44933 0.0
C2308 C 0.74425 0.24165 0.43989 0.0
C2309 C 0.77839 0.27216 0.43947 0.0
C2310 C 0.62589 0.17437 0.43851 0.0
C2311 C 0.60751 0.16301 0.44934 0.0
C2312 C 0.66319 0.19658 0.43841 0.0
C2313 C 0.68266 0.20712 0.44914 0.0
C2314 C 0.66428 0.1924 0.45986 0.0
C2315 C 0.62701 0.17111 0.45997 0.0
H2316 H 0.7963 0.51986 0.72273 0.0
H2317 H 0.71269 0.43986 0.70054 0.0
H2318 H 0.82785 0.48557 0.72209 0.0
H2319 H 0.74271 0.4054 0.70031 0.0
H2320 H 0.80411 0.35345 0.69458 0.0
H2321 H 0.79116 0.40207 0.69285 0.0
H2322 H 0.82246 0.43085 0.72953 0.0
H2323 H 0.83887 0.38413 0.73074 0.0
C2324 C 0.78472 0.49505 0.71774 0.0
C2325 C 0.75212 0.48262 0.71166 0.0
C2326 C 0.80269 0.47539 0.71738 0.0
C2327 C 0.78815 0.4429 0.711 0.0
C2328 C 0.7555 0.43078 0.70498 0.0
C2329 C 0.73794 0.45044 0.70524 0.0
C2330 C 0.8101 0.37149 0.70204 0.0
C2331 C 0.82369 0.36602 0.71263 0.0
C2332 C 0.80186 0.39884 0.70117 0.0
C2333 C 0.80501 0.42 0.71114 0.0
C2334 C 0.82001 0.4154 0.72164 0.0
C2335 C 0.82918 0.38852 0.72238 0.0
H2336 H 0.46156 0.2747 0.7278 0.0
H2337 H 0.53927 0.28053 0.70225 0.0
H2338 H 0.48781 0.34021 0.72642 0.0
H2339 H 0.56551 0.34442 0.70115 0.0
H2340 H 0.60602 0.45186 0.69443 0.0
H2341 H 0.55689 0.39067 0.69402 0.0
H2342 H 0.54331 0.39487 0.73193 0.0
H2343 H 0.58963 0.45823 0.73193 0.0
C2344 C 0.48406 0.28986 0.72191 0.0
C2345 C 0.49827 0.27245 0.71512 0.0
C2346 C 0.49902 0.32726 0.72109 0.0
C2347 C 0.52828 0.34758 0.71347 0.0
C2348 C 0.54221 0.32978 0.70678 0.0
C2349 C 0.52736 0.2929 0.70755 0.0
C2350 C 0.59056 0.4408 0.70247 0.0
C2351 C 0.60079 0.46024 0.71311 0.0
C2352 C 0.56305 0.40522 0.70234 0.0
C2353 C 0.54701 0.38743 0.71302 0.0
C2354 C 0.55505 0.40766 0.72354 0.0
C2355 C 0.58171 0.44391 0.72356 0.0
H2356 H 0.71352 0.20668 0.73498 0.0
H2357 H 0.71314 0.19082 0.69714 0.0
H2358 H 0.64818 0.17631 0.73495 0.0
H2359 H 0.64777 0.1582 0.69711 0.0
H2360 H 0.55195 0.17788 0.69859 0.0
H2361 H 0.6107 0.1833 0.69836 0.0
H2362 H 0.58847 0.12896 0.7323 0.0
H2363 H 0.52949 0.12471 0.73255 0.0
C2364 C 0.69928 0.19518 0.72676 0.0
C2365 C 0.71804 0.20146 0.71604 0.0
C2366 C 0.66179 0.17764 0.72671 0.0
C2367 C 0.64265 0.16562 0.71595 0.0
C2368 C 0.66167 0.1682 0.70549 0.0
C2369 C 0.69905 0.18655 0.7055 0.0
C2370 C 0.55927 0.1661 0.7058 0.0
C2371 C 0.53614 0.1501 0.71544 0.0
C2372 C 0.59295 0.16905 0.70569 0.0
C2373 C 0.60445 0.15636 0.7153 0.0
C2374 C 0.58061 0.13922 0.7248 0.0
C2375 C 0.54687 0.13657 0.72494 0.0
H2376 H 0.60541 0.13391 0.23212 0.0
H2377 H 0.63553 0.18924 0.19852 0.0
H2378 H 0.55061 0.13793 0.23231 0.0
H2379 H 0.58209 0.19463 0.19876 0.0
H2380 H 0.48566 0.20053 0.19842 0.0
H2381 H 0.51996 0.1695 0.19769 0.0
H2382 H 0.53764 0.18447 0.23562 0.0
H2383 H 0.50114 0.21325 0.23633 0.0
C2384 C 0.59974 0.14623 0.22467 0.0
C2385 C 0.62386 0.1604 0.21515 0.0
C2386 C 0.56861 0.14879 0.2248 0.0
C2387 C 0.56172 0.16655 0.21555 0.0
C2388 C 0.58577 0.17993 0.2059 0.0
C2389 C 0.61654 0.177 0.20574 0.0
C2390 C 0.49586 0.1959 0.20664 0.0
C2391 C 0.49118 0.20935 0.21742 0.0
C2392 C 0.5158 0.17849 0.20622 0.0
C2393 C 0.53255 0.17542 0.21652 0.0
C2394 C 0.5251 0.18617 0.2275 0.0
C2395 C 0.50426 0.20276 0.22794 0.0
H2396 H 0.79574 0.28322 0.1978 0.0
H2397 H 0.78284 0.28391 0.23578 0.0
H2398 H 0.82563 0.3485 0.19741 0.0
H2399 H 0.81073 0.34922 0.23541 0.0
H2400 H 0.86297 0.46874 0.23202 0.0
H2401 H 0.85787 0.40936 0.23211 0.0
H2402 H 0.79863 0.38423 0.19909 0.0
H2403 H 0.80481 0.44343 0.19897 0.0
C2404 C 0.80006 0.29758 0.20611 0.0
C2405 C 0.78684 0.27886 0.21681 0.0
C2406 C 0.81685 0.33489 0.20589 0.0
C2407 C 0.81963 0.35408 0.21632 0.0
C2408 C 0.80917 0.33539 0.2272 0.0
C2409 C 0.79311 0.29797 0.22745 0.0
C2410 C 0.84973 0.45058 0.22468 0.0
C2411 C 0.83523 0.46071 0.2153 0.0
C2412 C 0.8466 0.41662 0.22474 0.0
C2413 C 0.82808 0.392 0.21557 0.0
C2414 C 0.81397 0.40266 0.20614 0.0
C2415 C 0.81738 0.43657 0.20605 0.0
H2416 H 0.71426 0.51563 0.19951 0.0
H2417 H 0.71707 0.49792 0.23711 0.0
H2418 H 0.64898 0.47993 0.19972 0.0
H2419 H 0.65177 0.46029 0.23729 0.0
H2420 H 0.53192 0.39133 0.23456 0.0
H2421 H 0.59062 0.44654 0.23474 0.0
H2422 H 0.61545 0.41649 0.20087 0.0
H2423 H 0.55704 0.36249 0.2007 0.0
C2424 C 0.70065 0.50476 0.20788 0.0
C2425 C 0.72032 0.50908 0.21828 0.0
C2426 C 0.66337 0.48409 0.208 0.0
C2427 C 0.64523 0.46634 0.21844 0.0
C2428 C 0.66483 0.47359 0.2291 0.0
C2429 C 0.70222 0.49508 0.22902 0.0
C2430 C 0.54987 0.39732 0.22707 0.0
C2431 C 0.5399 0.37359 0.21744 0.0
C2432 C 0.5834 0.42868 0.22718 0.0
C2433 C 0.60767 0.43623 0.21777 0.0
C2434 C 0.5972 0.41227 0.20811 0.0
C2435 C 0.56377 0.38121 0.208 0.0
H2436 H 0.52033 0.14071 0.96419 0.0
H2437 H 0.54204 0.16589 0.92697 0.0
H2438 H 0.48452 0.1702 0.96468 0.0
H2439 H 0.50842 0.1977 0.92752 0.0
H2440 H 0.45328 0.26047 0.93069 0.0
H2441 H 0.45866 0.2064 0.93004 0.0
H2442 H 0.50651 0.2319 0.96507 0.0
H2443 H 0.50018 0.28463 0.96567 0.0
C2444 C 0.51665 0.15195 0.95605 0.0
C2445 C 0.53399 0.15149 0.94557 0.0
C2446 C 0.49644 0.16909 0.95633 0.0
C2447 C 0.49443 0.18732 0.94624 0.0
C2448 C 0.50917 0.1839 0.93546 0.0
C2449 C 0.52859 0.16581 0.93512 0.0
C2450 C 0.46376 0.25351 0.93835 0.0
C2451 C 0.47551 0.27595 0.94835 0.0
C2452 C 0.4671 0.2228 0.93798 0.0
C2453 C 0.48311 0.21467 0.94748 0.0
C2454 C 0.49328 0.23656 0.95768 0.0
C2455 C 0.48972 0.26694 0.95805 0.0
H2456 H 0.83927 0.38588 0.96667 0.0
H2457 H 0.83015 0.38763 0.92854 0.0
H2458 H 0.80213 0.32075 0.96663 0.0
H2459 H 0.79098 0.32259 0.92846 0.0
H2460 H 0.72169 0.2026 0.93119 0.0
H2461 H 0.77591 0.26198 0.93148 0.0
H2462 H 0.73976 0.28598 0.9643 0.0
H2463 H 0.68691 0.22663 0.96409 0.0
C2464 C 0.82979 0.37209 0.95825 0.0
C2465 C 0.83712 0.39152 0.94762 0.0
C2466 C 0.80824 0.33486 0.95822 0.0
C2467 C 0.7926 0.31647 0.94759 0.0
C2468 C 0.80257 0.33576 0.93682 0.0
C2469 C 0.82496 0.37305 0.93684 0.0
C2470 C 0.72608 0.22056 0.93856 0.0
C2471 C 0.70105 0.21001 0.94782 0.0
C2472 C 0.75688 0.25453 0.93871 0.0
C2473 C 0.76252 0.27877 0.94797 0.0
C2474 C 0.73707 0.26783 0.9572 0.0
C2475 C 0.70665 0.23388 0.95709 0.0
H2476 H 0.78816 0.51995 0.93197 0.0
H2477 H 0.7839 0.48814 0.96851 0.0
H2478 H 0.72516 0.50399 0.93303 0.0
H2479 H 0.72277 0.47631 0.9701 0.0
H2480 H 0.60802 0.39366 0.96221 0.0
H2481 H 0.67239 0.42611 0.96276 0.0
H2482 H 0.67435 0.50801 0.93997 0.0
H2483 H 0.60851 0.47395 0.93904 0.0
C2484 C 0.77419 0.51129 0.94039 0.0
C2485 C 0.79105 0.50623 0.95027 0.0
C2486 C 0.73821 0.50238 0.94104 0.0
C2487 C 0.71862 0.48824 0.9516 0.0
C2488 C 0.73671 0.48628 0.96174 0.0
C2489 C 0.77212 0.494 0.96095 0.0
C2490 C 0.62195 0.41872 0.95737 0.0
C2491 C 0.60312 0.43122 0.95057 0.0
C2492 C 0.65912 0.43772 0.95781 0.0
C2493 C 0.67879 0.47018 0.9516 0.0
C2494 C 0.66002 0.48308 0.94486 0.0
C2495 C 0.6224 0.46366 0.94432 0.0
H2496 H 0.36789 0.8044 0.79934 0.0
H2497 H 0.39934 0.86021 0.76583 0.0
H2498 H 0.41943 0.79579 0.79878 0.0
H2499 H 0.45202 0.85234 0.76524 0.0
H2500 H 0.49723 0.77211 0.76193 0.0
H2501 H 0.46193 0.80237 0.76221 0.0
H2502 H 0.48272 0.82248 0.79984 0.0
H2503 H 0.51609 0.79044 0.79957 0.0
C2504 C 0.38672 0.8159 0.79204 0.0
C2505 C 0.38054 0.83392 0.78282 0.0
C2506 C 0.41634 0.81107 0.7917 0.0
C2507 C 0.44026 0.8238 0.78202 0.0
C2508 C 0.43417 0.84224 0.77281 0.0
C2509 C 0.40425 0.84691 0.77316 0.0
C2510 C 0.49512 0.78411 0.77013 0.0
C2511 C 0.50885 0.77882 0.78074 0.0
C2512 C 0.47498 0.80148 0.77032 0.0
C2513 C 0.46879 0.8141 0.78112 0.0
C2514 C 0.4861 0.81215 0.79145 0.0
C2515 C 0.50545 0.79415 0.79129 0.0
H2516 H 0.22135 0.71947 0.76293 0.0
H2517 H 0.20646 0.7179 0.80086 0.0
H2518 H 0.19152 0.65404 0.76278 0.0
H2519 H 0.17458 0.6525 0.80072 0.0
H2520 H 0.19344 0.55627 0.79857 0.0
H2521 H 0.2004 0.61578 0.79893 0.0
H2522 H 0.14347 0.59416 0.76553 0.0
H2523 H 0.13763 0.53447 0.76513 0.0
C2524 C 0.21015 0.70492 0.77113 0.0
C2525 C 0.21641 0.72335 0.78192 0.0
C2526 C 0.19299 0.66743 0.77108 0.0
C2527 C 0.18144 0.648 0.78181 0.0
C2528 C 0.18416 0.66666 0.79237 0.0
C2529 C 0.20206 0.70403 0.79245 0.0
C2530 C 0.18154 0.56397 0.7915 0.0
C2531 C 0.16417 0.54076 0.782 0.0
C2532 C 0.18537 0.59805 0.79169 0.0
C2533 C 0.17219 0.60981 0.7823 0.0
C2534 C 0.15404 0.58605 0.77288 0.0
C2535 C 0.1505 0.55193 0.77267 0.0
H2536 H 0.44133 0.62816 0.79842 0.0
H2537 H 0.46725 0.59598 0.76534 0.0
H2538 H 0.3815 0.57628 0.79782 0.0
H2539 H 0.40693 0.54294 0.7647 0.0
H2540 H 0.28164 0.49798 0.76076 0.0
H2541 H 0.34716 0.53281 0.76128 0.0
H2542 H 0.34491 0.51305 0.79904 0.0
H2543 H 0.27956 0.48021 0.79853 0.0
C2544 C 0.43443 0.60908 0.79122 0.0
C2545 C 0.45898 0.61521 0.78213 0.0
C2546 C 0.40015 0.57925 0.79086 0.0
C2547 C 0.38943 0.55505 0.78127 0.0
C2548 C 0.41434 0.56102 0.77221 0.0
C2549 C 0.44878 0.59114 0.77258 0.0
C2550 C 0.29537 0.50021 0.76905 0.0
C2551 C 0.27591 0.48704 0.77963 0.0
C2552 C 0.33288 0.52008 0.76938 0.0
C2553 C 0.35124 0.52648 0.78027 0.0
C2554 C 0.33155 0.50954 0.79058 0.0
C2555 C 0.29421 0.49051 0.79028 0.0
H2556 H 0.44546 0.8304 0.06823 0.0
H2557 H 0.46266 0.84618 0.03045 0.0
H2558 H 0.47462 0.79415 0.06828 0.0
H2559 H 0.49379 0.81194 0.0305 0.0
H2560 H 0.47199 0.69564 0.03196 0.0
H2561 H 0.46634 0.74895 0.03191 0.0
H2562 H 0.52242 0.78151 0.06552 0.0
H2563 H 0.52715 0.72699 0.06557 0.0
C2564 C 0.45708 0.8275 0.06006 0.0
C2565 C 0.45162 0.84055 0.04932 0.0
C2566 C 0.47383 0.80676 0.06005 0.0
C2567 C 0.48574 0.79933 0.04932 0.0
C2568 C 0.48393 0.81619 0.03885 0.0
C2569 C 0.46647 0.83609 0.03882 0.0
C2570 C 0.48406 0.71482 0.03914 0.0
C2571 C 0.5009 0.708 0.04858 0.0
C2572 C 0.48095 0.74549 0.03913 0.0
C2573 C 0.49427 0.76989 0.04867 0.0
C2574 C 0.51182 0.76329 0.05806 0.0
C2575 C 0.51471 0.73231 0.05807 0.0
H2576 H 0.16399 0.60802 0.06882 0.0
H2577 H 0.14736 0.60808 0.03104 0.0
H2578 H 0.20129 0.67339 0.06853 0.0
H2579 H 0.18277 0.67339 0.03076 0.0
H2580 H 0.29893 0.76746 0.03161 0.0
H2581 H 0.24616 0.70805 0.03211 0.0
H2582 H 0.21383 0.73394 0.06536 0.0
H2583 H 0.26777 0.79358 0.06486 0.0
C2584 C 0.16702 0.62227 0.06058 0.0
C2585 C 0.15337 0.6034 0.04994 0.0
C2586 C 0.18833 0.65969 0.06038 0.0
C2587 C 0.19575 0.67854 0.04955 0.0
C2588 C 0.17848 0.6596 0.03917 0.0
C2589 C 0.15795 0.62231 0.03934 0.0
C2590 C 0.27996 0.76067 0.03884 0.0
C2591 C 0.28652 0.78514 0.048 0.0
C2592 C 0.24963 0.72669 0.03915 0.0
C2593 C 0.22536 0.7163 0.04871 0.0
C2594 C 0.23194 0.74109 0.05787 0.0
C2595 C 0.26258 0.77516 0.05758 0.0
H2596 H 0.38087 0.53407 0.03132 0.0
H2597 H 0.3792 0.54847 0.06918 0.0
H2598 H 0.31551 0.50157 0.03088 0.0
H2599 H 0.31372 0.51799 0.06875 0.0
H2600 H 0.19412 0.46184 0.06526 0.0
H2601 H 0.25436 0.469 0.06554 0.0
H2602 H 0.27791 0.5265 0.03218 0.0
H2603 H 0.21801 0.51839 0.03191 0.0
C2604 C 0.36629 0.52956 0.03959 0.0
C2605 C 0.38469 0.5439 0.05026 0.0
C2606 C 0.32894 0.51125 0.03934 0.0
C2607 C 0.30935 0.50809 0.04971 0.0
C2608 C 0.32787 0.5198 0.06059 0.0
C2609 C 0.36537 0.53736 0.06087 0.0
C2610 C 0.21213 0.47511 0.05789 0.0
C2611 C 0.20141 0.48864 0.04838 0.0
C2612 C 0.24657 0.4794 0.05805 0.0
C2613 C 0.27101 0.4981 0.04885 0.0
C2614 C 0.25968 0.51106 0.03927 0.0
C2615 C 0.22535 0.50654 0.03909 0.0
H2616 H 0.20758 0.58552 0.53288 0.0
H2617 H 0.13245 0.51448 0.55917 0.0
H2618 H 0.23529 0.54921 0.53196 0.0
H2619 H 0.15985 0.47633 0.5579 0.0
H2620 H 0.26176 0.46254 0.56426 0.0
H2621 H 0.2145 0.47813 0.56356 0.0
H2622 H 0.23136 0.49636 0.52572 0.0
H2623 H 0.28156 0.48605 0.5269 0.0
C2624 C 0.19646 0.56161 0.53835 0.0
C2625 C 0.16786 0.55302 0.54615 0.0
C2626 C 0.21215 0.54029 0.53769 0.0
C2627 C 0.19951 0.50925 0.54469 0.0
C2628 C 0.17029 0.50005 0.55238 0.0
C2629 C 0.15458 0.52182 0.55311 0.0
C2630 C 0.25445 0.46883 0.55576 0.0
C2631 C 0.2747 0.47212 0.54556 0.0
C2632 C 0.22722 0.47758 0.55532 0.0
C2633 C 0.21966 0.48943 0.54463 0.0
C2634 C 0.23711 0.48837 0.53419 0.0
C2635 C 0.26523 0.48121 0.53475 0.0
H2636 H 0.47018 0.60801 0.55695 0.0
H2637 H 0.38772 0.60566 0.53448 0.0
H2638 H 0.50225 0.67385 0.55646 0.0
H2639 H 0.41822 0.67019 0.5344 0.0
H2640 H 0.48031 0.78343 0.52892 0.0
H2641 H 0.46697 0.7218 0.52712 0.0
H2642 H 0.49786 0.72369 0.56381 0.0
H2643 H 0.5149 0.78698 0.56506 0.0
C2644 C 0.45894 0.62153 0.55194 0.0
C2645 C 0.42654 0.60171 0.54572 0.0
C2646 C 0.47722 0.65918 0.55166 0.0
C2647 C 0.46319 0.67751 0.54524 0.0
C2648 C 0.43067 0.65732 0.53911 0.0
C2649 C 0.41282 0.62007 0.53927 0.0
C2650 C 0.48628 0.77129 0.53635 0.0
C2651 C 0.49991 0.79025 0.54696 0.0
C2652 C 0.47772 0.73561 0.53545 0.0
C2653 C 0.48049 0.71735 0.54541 0.0
C2654 C 0.49564 0.73685 0.55592 0.0
C2655 C 0.50521 0.77301 0.55668 0.0
H2656 H 0.38558 0.83221 0.56938 0.0
H2657 H 0.38579 0.85147 0.53178 0.0
H2658 H 0.32022 0.79699 0.5692 0.0
H2659 H 0.32041 0.81856 0.53163 0.0
H2660 H 0.22425 0.70342 0.53191 0.0
H2661 H 0.28323 0.75641 0.53219 0.0
H2662 H 0.26059 0.78495 0.56671 0.0
H2663 H 0.20139 0.73048 0.56644 0.0
C2664 C 0.37143 0.83018 0.5612 0.0
C2665 C 0.39034 0.84384 0.55056 0.0
C2666 C 0.33395 0.81012 0.56106 0.0
C2667 C 0.31499 0.8041 0.55031 0.0
C2668 C 0.33416 0.8216 0.53998 0.0
C2669 C 0.37153 0.8407 0.54006 0.0
C2670 C 0.23158 0.72166 0.53938 0.0
C2671 C 0.20826 0.71362 0.54901 0.0
C2672 C 0.26538 0.75221 0.53956 0.0
C2673 C 0.27679 0.77531 0.54946 0.0
C2674 C 0.25281 0.76768 0.55898 0.0
C2675 C 0.21894 0.73674 0.55883 0.0
H2676 H 0.21412 0.49711 0.26122 0.0
H2677 H 0.20074 0.48411 0.2992 0.0
H2678 H 0.18692 0.53515 0.26141 0.0
H2679 H 0.17147 0.52011 0.29941 0.0
H2680 H 0.19265 0.63568 0.29784 0.0
H2681 H 0.1992 0.58286 0.29764 0.0
H2682 H 0.14031 0.549 0.26455 0.0
H2683 H 0.13495 0.60315 0.2647 0.0
C2684 C 0.20384 0.50114 0.26952 0.0
C2685 C 0.2098 0.48828 0.28021 0.0
C2686 C 0.1882 0.52288 0.26966 0.0
C2687 C 0.17785 0.53147 0.28049 0.0
C2688 C 0.18022 0.51501 0.29098 0.0
C2689 C 0.19662 0.49413 0.29086 0.0
C2690 C 0.18037 0.6164 0.2907 0.0
C2691 C 0.16242 0.62264 0.28148 0.0
C2692 C 0.18395 0.58601 0.29057 0.0
C2693 C 0.16985 0.56126 0.28114 0.0
C2694 C 0.15152 0.56749 0.27193 0.0
C2695 C 0.14826 0.59825 0.27203 0.0
H2696 H 0.50719 0.71466 0.29828 0.0
H2697 H 0.49158 0.71221 0.26038 0.0
H2698 H 0.47393 0.64931 0.2989 0.0
H2699 H 0.45605 0.64682 0.26098 0.0
H2700 H 0.3912 0.52795 0.26433 0.0
H2701 H 0.44472 0.58778 0.26413 0.0
H2702 H 0.41212 0.61091 0.29783 0.0
H2703 H 0.36003 0.55117 0.29807 0.0
C2704 C 0.49709 0.6999 0.29004 0.0
C2705 C 0.50149 0.71812 0.2793 0.0
C2706 C 0.47777 0.66254 0.29039 0.0
C2707 C 0.46133 0.64271 0.28006 0.0
C2708 C 0.46838 0.66106 0.26913 0.0
C2709 C 0.48863 0.69854 0.26874 0.0
C2710 C 0.39636 0.54575 0.2718 0.0
C2711 C 0.37235 0.53495 0.28137 0.0
C2712 C 0.42675 0.58 0.27167 0.0
C2713 C 0.43294 0.60433 0.28097 0.0
C2714 C 0.40899 0.59284 0.29065 0.0
C2715 C 0.37898 0.5586 0.29081 0.0
H2716 H 0.43801 0.80661 0.29698 0.0
H2717 H 0.46141 0.86044 0.26312 0.0
H2718 H 0.37933 0.80157 0.2971 0.0
H2719 H 0.40254 0.85648 0.26325 0.0
H2720 H 0.27669 0.78075 0.26089 0.0
H2721 H 0.34201 0.80938 0.26071 0.0
H2722 H 0.34423 0.82931 0.29846 0.0
H2723 H 0.27888 0.79858 0.29865 0.0
C2724 C 0.43087 0.8185 0.28976 0.0
C2725 C 0.45431 0.83478 0.28021 0.0
C2726 C 0.39727 0.81578 0.28981 0.0
C2727 C 0.38619 0.82898 0.28023 0.0
C2728 C 0.41015 0.84597 0.27075 0.0
C2729 C 0.44381 0.84842 0.27068 0.0
C2730 C 0.29138 0.7924 0.26903 0.0
C2731 C 0.2731 0.78725 0.2798 0.0
C2732 C 0.32882 0.80886 0.26896 0.0
C2733 C 0.34835 0.82081 0.27965 0.0
C2734 C 0.32995 0.81937 0.29015 0.0
C2735 C 0.29262 0.80215 0.29026 0.0
loop_
_geom_bond_atom_site_label_1
_geom_bond_atom_site_label_2
_geom_bond_distance
_geom_bond_site_symmetry_2
_ccdc_geom_bond_type
Mn0 O5 2.095 . S
Mn0 O15 2.162 . S
Mn0 O16 2.297 . S
Mn0 O24 2.385 . S
Mn0 O25 2.209 . S
Mn0 O26 2.094 . S
Mn1 O6 2.121 . S
Mn1 N8 2.257 1_545 S
Mn1 N17 2.282 1_545 S
Mn1 O25 2.215 . S
Mn1 O27 2.117 . S
C2 O24 1.234 . S
C2 O25 1.283 . S
C3 O15 1.281 . S
C3 O16 1.236 . S
C4 O26 1.240 . S
C4 O27 1.264 . S
O5 Mn0 2.095 . S
O5 C14 1.250 . S
O6 Mn1 2.121 . S
O6 C14 1.258 . S
C7 N8 1.326 . S
C7 C11 1.460 . S
C7 H13 0.929 1_565 S
N8 Mn1 2.257 1_565 S
N8 C7 1.326 . S
N8 C12 1.362 . S
C9 C10 1.258 . S
C9 C12 1.431 . S
C9 C29 1.449 . S
C10 C9 1.258 . S
C10 C11 1.477 . S
C10 H30 0.931 . S
C11 C7 1.460 . S
C11 C10 1.477 . S
C11 H31 0.930 . S
C12 N8 1.362 . S
C12 C9 1.431 . S
C12 C22 1.476 . S
H13 C7 0.929 1_545 S
C14 O5 1.250 . S
C14 O6 1.258 . S
O15 Mn0 2.162 . S
O15 C3 1.281 . S
O16 Mn0 2.297 . S
O16 C3 1.236 . S
N17 Mn1 2.282 1_565 S
N17 C18 1.328 . S
N17 C22 1.318 . S
C18 N17 1.328 . S
C18 C19 1.457 . S
C18 H23 0.929 . S
C19 C18 1.457 . S
C19 C20 1.291 . S
C19 H32 0.931 . S
C20 C19 1.291 . S
C20 C21 1.373 . S
C20 H33 0.929 . S
C21 C20 1.373 . S
C21 C22 1.396 . S
C21 C28 1.403 . S
C22 C12 1.476 . S
C22 N17 1.318 . S
C22 C21 1.396 . S
H23 C18 0.929 . S
O24 Mn0 2.385 . S
O24 C2 1.234 . S
O25 Mn0 2.209 . S
O25 Mn1 2.215 . S
O25 C2 1.283 . S
O26 Mn0 2.094 . S
O26 C4 1.240 . S
O27 Mn1 2.117 . S
O27 C4 1.264 . S
C28 C21 1.403 . S
C28 C29 1.399 . S
C28 H34 0.929 . S
C29 C9 1.449 . S
C29 C28 1.399 . S
C29 H35 0.930 . S
H30 C10 0.931 . S
H31 C11 0.930 . S
H32 C19 0.931 . S
H33 C20 0.929 . S
H34 C28 0.929 . S
H35 C29 0.930 . S
Mn36 O41 2.095 . S
Mn36 O51 2.162 . S
Mn36 O52 2.297 . S
Mn36 O60 2.385 . S
Mn36 O61 2.209 . S
Mn36 O62 2.094 . S
Mn37 O42 2.121 . S
Mn37 N44 2.257 1_655 S
Mn37 N53 2.282 1_655 S
Mn37 O61 2.215 . S
Mn37 O63 2.117 . S
C38 O60 1.234 . S
C38 O61 1.283 . S
C39 O51 1.281 . S
C39 O52 1.236 . S
C40 O62 1.240 . S
C40 O63 1.264 . S
O41 Mn36 2.095 . S
O41 C50 1.250 . S
O42 Mn37 2.121 . S
O42 C50 1.258 . S
C43 N44 1.326 . S
C43 C47 1.460 . S
C43 H49 0.929 1_455 S
N44 Mn37 2.257 1_455 S
N44 C43 1.326 . S
N44 C48 1.362 . S
C45 C46 1.258 . S
C45 C48 1.431 . S
C45 C65 1.449 . S
C46 C45 1.258 . S
C46 C47 1.477 . S
C46 H66 0.931 . S
C47 C43 1.460 . S
C47 C46 1.477 . S
C47 H67 0.930 . S
C48 N44 1.362 . S
C48 C45 1.431 . S
C48 C58 1.476 . S
H49 C43 0.929 1_655 S
C50 O41 1.250 . S
C50 O42 1.258 . S
O51 Mn36 2.162 . S
O51 C39 1.281 . S
O52 Mn36 2.297 . S
O52 C39 1.236 . S
N53 Mn37 2.282 1_455 S
N53 C54 1.328 . S
N53 C58 1.318 . S
C54 N53 1.328 . S
C54 C55 1.457 . S
C54 H59 0.929 . S
C55 C54 1.457 . S
C55 C56 1.291 . S
C55 H68 0.931 . S
C56 C55 1.291 . S
C56 C57 1.373 . S
C56 H69 0.929 . S
C57 C56 1.373 . S
C57 C58 1.396 . S
C57 C64 1.403 . S
C58 C48 1.476 . S
C58 N53 1.318 . S
C58 C57 1.396 . S
H59 C54 0.929 . S
O60 Mn36 2.385 . S
O60 C38 1.234 . S
O61 Mn36 2.209 . S
O61 Mn37 2.215 . S
O61 C38 1.283 . S
O62 Mn36 2.094 . S
O62 C40 1.240 . S
O63 Mn37 2.117 . S
O63 C40 1.264 . S
C64 C57 1.403 . S
C64 C65 1.399 . S
C64 H70 0.929 . S
C65 C45 1.449 . S
C65 C64 1.399 . S
C65 H71 0.930 . S
H66 C46 0.931 . S
H67 C47 0.930 . S
H68 C55 0.931 . S
H69 C56 0.929 . S
H70 C64 0.929 . S
H71 C65 0.930 . S
Mn72 O77 2.095 . S
Mn72 O87 2.162 . S
Mn72 O88 2.297 . S
Mn72 O96 2.385 . S
Mn72 O97 2.209 . S
Mn72 O98 2.094 . S
Mn73 O78 2.121 . S
Mn73 N80 2.257 . S
Mn73 N89 2.282 . S
Mn73 O97 2.215 . S
Mn73 O99 2.117 . S
C74 O96 1.234 . S
C74 O97 1.283 . S
C75 O87 1.281 . S
C75 O88 1.236 . S
C76 O98 1.240 . S
C76 O99 1.264 . S
O77 Mn72 2.095 . S
O77 C86 1.250 . S
O78 Mn73 2.121 . S
O78 C86 1.258 . S
C79 N80 1.326 . S
C79 C83 1.460 . S
C79 H85 0.929 . S
N80 Mn73 2.257 . S
N80 C79 1.326 . S
N80 C84 1.362 . S
C81 C82 1.258 . S
C81 C84 1.431 . S
C81 C101 1.449 . S
C82 C81 1.258 . S
C82 C83 1.477 . S
C82 H102 0.931 . S
C83 C79 1.460 . S
C83 C82 1.477 . S
C83 H103 0.930 . S
C84 N80 1.362 . S
C84 C81 1.431 . S
C84 C94 1.476 . S
H85 C79 0.929 . S
C86 O77 1.250 . S
C86 O78 1.258 . S
O87 Mn72 2.162 . S
O87 C75 1.281 . S
O88 Mn72 2.297 . S
O88 C75 1.236 . S
N89 Mn73 2.282 . S
N89 C90 1.328 . S
N89 C94 1.318 . S
C90 N89 1.328 . S
C90 C91 1.457 . S
C90 H95 0.929 . S
C91 C90 1.457 . S
C91 C92 1.291 . S
C91 H104 0.931 . S
C92 C91 1.291 . S
C92 C93 1.373 . S
C92 H105 0.929 . S
C93 C92 1.373 . S
C93 C94 1.396 . S
C93 C100 1.403 . S
C94 C84 1.476 . S
C94 N89 1.318 . S
C94 C93 1.396 . S
H95 C90 0.929 . S
O96 Mn72 2.385 . S
O96 C74 1.234 . S
O97 Mn72 2.209 . S
O97 Mn73 2.215 . S
O97 C74 1.283 . S
O98 Mn72 2.094 . S
O98 C76 1.240 . S
O99 Mn73 2.117 . S
O99 C76 1.264 . S
C100 C93 1.403 . S
C100 C101 1.399 . S
C100 H106 0.929 . S
C101 C81 1.449 . S
C101 C100 1.399 . S
C101 H107 0.930 . S
H102 C82 0.931 . S
H103 C83 0.930 . S
H104 C91 0.931 . S
H105 C92 0.929 . S
H106 C100 0.929 . S
H107 C101 0.930 . S
Mn108 O113 2.095 . S
Mn108 O123 2.162 . S
Mn108 O124 2.297 . S
Mn108 O132 2.385 . S
Mn108 O133 2.209 . S
Mn108 O134 2.094 . S
Mn109 O114 2.121 . S
Mn109 N116 2.257 1_455 S
Mn109 N125 2.282 1_455 S
Mn109 O133 2.215 . S
Mn109 O135 2.117 . S
C110 O132 1.234 . S
C110 O133 1.283 . S
C111 O123 1.281 . S
C111 O124 1.236 . S
C112 O134 1.240 . S
C112 O135 1.264 . S
O113 Mn108 2.095 . S
O113 C122 1.250 . S
O114 Mn109 2.121 . S
O114 C122 1.258 . S
C115 N116 1.326 . S
C115 C119 1.460 . S
C115 H121 0.929 1_655 S
N116 Mn109 2.257 1_655 S
N116 C115 1.326 . S
N116 C120 1.362 . S
C117 C118 1.258 . S
C117 C120 1.431 . S
C117 C137 1.449 . S
C118 C117 1.258 . S
C118 C119 1.477 . S
C118 H138 0.931 . S
C119 C115 1.460 . S
C119 C118 1.477 . S
C119 H139 0.930 . S
C120 N116 1.362 . S
C120 C117 1.431 . S
C120 C130 1.476 . S
H121 C115 0.929 1_455 S
C122 O113 1.250 . S
C122 O114 1.258 . S
O123 Mn108 2.162 . S
O123 C111 1.281 . S
O124 Mn108 2.297 . S
O124 C111 1.236 . S
N125 Mn109 2.282 1_655 S
N125 C126 1.328 . S
N125 C130 1.318 . S
C126 N125 1.328 . S
C126 C127 1.457 . S
C126 H131 0.929 . S
C127 C126 1.457 . S
C127 C128 1.291 . S
C127 H140 0.931 . S
C128 C127 1.291 . S
C128 C129 1.373 . S
C128 H141 0.929 . S
C129 C128 1.373 . S
C129 C130 1.396 . S
C129 C136 1.403 . S
C130 C120 1.476 . S
C130 N125 1.318 . S
C130 C129 1.396 . S
H131 C126 0.929 . S
O132 Mn108 2.385 . S
O132 C110 1.234 . S
O133 Mn108 2.209 . S
O133 Mn109 2.215 . S
O133 C110 1.283 . S
O134 Mn108 2.094 . S
O134 C112 1.240 . S
O135 Mn109 2.117 . S
O135 C112 1.264 . S
C136 C129 1.403 . S
C136 C137 1.399 . S
C136 H142 0.929 . S
C137 C117 1.449 . S
C137 C136 1.399 . S
C137 H143 0.930 . S
H138 C118 0.931 . S
H139 C119 0.930 . S
H140 C127 0.931 . S
H141 C128 0.929 . S
H142 C136 0.929 . S
H143 C137 0.930 . S
Mn144 O149 2.095 . S
Mn144 O159 2.162 . S
Mn144 O160 2.297 . S
Mn144 O168 2.385 . S
Mn144 O169 2.209 . S
Mn144 O170 2.094 . S
Mn145 O150 2.121 . S
Mn145 N152 2.257 . S
Mn145 N161 2.282 . S
Mn145 O169 2.215 . S
Mn145 O171 2.117 . S
C146 O168 1.234 . S
C146 O169 1.283 . S
C147 O159 1.281 . S
C147 O160 1.236 . S
C148 O170 1.240 . S
C148 O171 1.264 . S
O149 Mn144 2.095 . S
O149 C158 1.250 . S
O150 Mn145 2.121 . S
O150 C158 1.258 . S
C151 N152 1.326 . S
C151 C155 1.460 . S
C151 H157 0.929 . S
N152 Mn145 2.257 . S
N152 C151 1.326 . S
N152 C156 1.362 . S
C153 C154 1.258 . S
C153 C156 1.431 . S
C153 C173 1.449 . S
C154 C153 1.258 . S
C154 C155 1.477 . S
C154 H174 0.931 . S
C155 C151 1.460 . S
C155 C154 1.477 . S
C155 H175 0.930 . S
C156 N152 1.362 . S
C156 C153 1.431 . S
C156 C166 1.476 . S
H157 C151 0.929 . S
C158 O149 1.250 . S
C158 O150 1.258 . S
O159 Mn144 2.162 . S
O159 C147 1.281 . S
O160 Mn144 2.297 . S
O160 C147 1.236 . S
N161 Mn145 2.282 . S
N161 C162 1.328 . S
N161 C166 1.318 . S
C162 N161 1.328 . S
C162 C163 1.457 . S
C162 H167 0.929 . S
C163 C162 1.457 . S
C163 C164 1.291 . S
C163 H176 0.931 . S
C164 C163 1.291 . S
C164 C165 1.373 . S
C164 H177 0.929 . S
C165 C164 1.373 . S
C165 C166 1.396 . S
C165 C172 1.403 . S
C166 C156 1.476 . S
C166 N161 1.318 . S
C166 C165 1.396 . S
H167 C162 0.929 . S
O168 Mn144 2.385 . S
O168 C146 1.234 . S
O169 Mn144 2.209 . S
O169 Mn145 2.215 . S
O169 C146 1.283 . S
O170 Mn144 2.094 . S
O170 C148 1.240 . S
O171 Mn145 2.117 . S
O171 C148 1.264 . S
C172 C165 1.403 . S
C172 C173 1.399 . S
C172 H178 0.929 . S
C173 C153 1.449 . S
C173 C172 1.399 . S
C173 H179 0.930 . S
H174 C154 0.931 . S
H175 C155 0.930 . S
H176 C163 0.931 . S
H177 C164 0.929 . S
H178 C172 0.929 . S
H179 C173 0.930 . S
Mn180 O185 2.095 . S
Mn180 O195 2.162 . S
Mn180 O196 2.297 . S
Mn180 O204 2.385 . S
Mn180 O205 2.209 . S
Mn180 O206 2.094 . S
Mn181 O186 2.121 . S
Mn181 N188 2.257 1_565 S
Mn181 N197 2.282 1_565 S
Mn181 O205 2.215 . S
Mn181 O207 2.117 . S
C182 O204 1.234 . S
C182 O205 1.283 . S
C183 O195 1.281 . S
C183 O196 1.236 . S
C184 O206 1.240 . S
C184 O207 1.264 . S
O185 Mn180 2.095 . S
O185 C194 1.250 . S
O186 Mn181 2.121 . S
O186 C194 1.258 . S
C187 N188 1.326 . S
C187 C191 1.460 . S
C187 H193 0.929 1_545 S
N188 Mn181 2.257 1_545 S
N188 C187 1.326 . S
N188 C192 1.362 . S
C189 C190 1.258 . S
C189 C192 1.431 . S
C189 C209 1.449 . S
C190 C189 1.258 . S
C190 C191 1.477 . S
C190 H210 0.931 . S
C191 C187 1.460 . S
C191 C190 1.477 . S
C191 H211 0.930 . S
C192 N188 1.362 . S
C192 C189 1.431 . S
C192 C202 1.476 . S
H193 C187 0.929 1_565 S
C194 O185 1.250 . S
C194 O186 1.258 . S
O195 Mn180 2.162 . S
O195 C183 1.281 . S
O196 Mn180 2.297 . S
O196 C183 1.236 . S
N197 Mn181 2.282 1_545 S
N197 C198 1.328 . S
N197 C202 1.318 . S
C198 N197 1.328 . S
C198 C199 1.457 . S
C198 H203 0.929 . S
C199 C198 1.457 . S
C199 C200 1.291 . S
C199 H212 0.931 . S
C200 C199 1.291 . S
C200 C201 1.373 . S
C200 H213 0.929 . S
C201 C200 1.373 . S
C201 C202 1.396 . S
C201 C208 1.403 . S
C202 C192 1.476 . S
C202 N197 1.318 . S
C202 C201 1.396 . S
H203 C198 0.929 . S
O204 Mn180 2.385 . S
O204 C182 1.234 . S
O205 Mn180 2.209 . S
O205 Mn181 2.215 . S
O205 C182 1.283 . S
O206 Mn180 2.094 . S
O206 C184 1.240 . S
O207 Mn181 2.117 . S
O207 C184 1.264 . S
C208 C201 1.403 . S
C208 C209 1.399 . S
C208 H214 0.929 . S
C209 C189 1.449 . S
C209 C208 1.399 . S
C209 H215 0.930 . S
H210 C190 0.931 . S
H211 C191 0.930 . S
H212 C199 0.931 . S
H213 C200 0.929 . S
H214 C208 0.929 . S
H215 C209 0.930 . S
Mn216 O221 2.095 . S
Mn216 O231 2.162 . S
Mn216 O232 2.297 . S
Mn216 O240 2.385 . S
Mn216 O241 2.209 . S
Mn216 O242 2.094 . S
Mn217 O222 2.121 . S
Mn217 N224 2.257 1_565 S
Mn217 N233 2.282 1_565 S
Mn217 O241 2.215 . S
Mn217 O243 2.117 . S
C218 O240 1.234 . S
C218 O241 1.283 . S
C219 O231 1.281 . S
C219 O232 1.236 . S
C220 O242 1.240 . S
C220 O243 1.264 . S
O221 Mn216 2.095 . S
O221 C230 1.250 . S
O222 Mn217 2.121 . S
O222 C230 1.258 . S
C223 N224 1.326 . S
C223 C227 1.460 . S
C223 H229 0.929 1_545 S
N224 Mn217 2.257 1_545 S
N224 C223 1.326 . S
N224 C228 1.362 . S
C225 C226 1.258 . S
C225 C228 1.431 . S
C225 C245 1.449 . S
C226 C225 1.258 . S
C226 C227 1.477 . S
C226 H246 0.931 . S
C227 C223 1.460 . S
C227 C226 1.477 . S
C227 H247 0.930 . S
C228 N224 1.362 . S
C228 C225 1.431 . S
C228 C238 1.476 . S
H229 C223 0.929 1_565 S
C230 O221 1.250 . S
C230 O222 1.258 . S
O231 Mn216 2.162 . S
O231 C219 1.281 . S
O232 Mn216 2.297 . S
O232 C219 1.236 . S
N233 Mn217 2.282 1_545 S
N233 C234 1.328 . S
N233 C238 1.318 . S
C234 N233 1.328 . S
C234 C235 1.457 . S
C234 H239 0.929 . S
C235 C234 1.457 . S
C235 C236 1.291 . S
C235 H248 0.931 . S
C236 C235 1.291 . S
C236 C237 1.373 . S
C236 H249 0.929 . S
C237 C236 1.373 . S
C237 C238 1.396 . S
C237 C244 1.403 . S
C238 C228 1.476 . S
C238 N233 1.318 . S
C238 C237 1.396 . S
H239 C234 0.929 . S
O240 Mn216 2.385 . S
O240 C218 1.234 . S
O241 Mn216 2.209 . S
O241 Mn217 2.215 . S
O241 C218 1.283 . S
O242 Mn216 2.094 . S
O242 C220 1.240 . S
O243 Mn217 2.117 . S
O243 C220 1.264 . S
C244 C237 1.403 . S
C244 C245 1.399 . S
C244 H250 0.929 . S
C245 C225 1.449 . S
C245 C244 1.399 . S
C245 H251 0.930 . S
H246 C226 0.931 . S
H247 C227 0.930 . S
H248 C235 0.931 . S
H249 C236 0.929 . S
H250 C244 0.929 . S
H251 C245 0.930 . S
Mn252 O257 2.095 . S
Mn252 O267 2.162 . S
Mn252 O268 2.297 . S
Mn252 O276 2.385 . S
Mn252 O277 2.209 . S
Mn252 O278 2.094 . S
Mn253 O258 2.121 . S
Mn253 N260 2.257 1_455 S
Mn253 N269 2.282 1_455 S
Mn253 O277 2.215 . S
Mn253 O279 2.117 . S
C254 O276 1.234 . S
C254 O277 1.283 . S
C255 O267 1.281 . S
C255 O268 1.236 . S
C256 O278 1.240 . S
C256 O279 1.264 . S
O257 Mn252 2.095 . S
O257 C266 1.250 . S
O258 Mn253 2.121 . S
O258 C266 1.258 . S
C259 N260 1.326 . S
C259 C263 1.460 . S
C259 H265 0.929 1_655 S
N260 Mn253 2.257 1_655 S
N260 C259 1.326 . S
N260 C264 1.362 . S
C261 C262 1.258 . S
C261 C264 1.431 . S
C261 C281 1.449 . S
C262 C261 1.258 . S
C262 C263 1.477 . S
C262 H282 0.931 . S
C263 C259 1.460 . S
C263 C262 1.477 . S
C263 H283 0.930 . S
C264 N260 1.362 . S
C264 C261 1.431 . S
C264 C274 1.476 . S
H265 C259 0.929 1_455 S
C266 O257 1.250 . S
C266 O258 1.258 . S
O267 Mn252 2.162 . S
O267 C255 1.281 . S
O268 Mn252 2.297 . S
O268 C255 1.236 . S
N269 Mn253 2.282 1_655 S
N269 C270 1.328 . S
N269 C274 1.318 . S
C270 N269 1.328 . S
C270 C271 1.457 . S
C270 H275 0.929 . S
C271 C270 1.457 . S
C271 C272 1.291 . S
C271 H284 0.931 . S
C272 C271 1.291 . S
C272 C273 1.373 . S
C272 H285 0.929 . S
C273 C272 1.373 . S
C273 C274 1.396 . S
C273 C280 1.403 . S
C274 C264 1.476 . S
C274 N269 1.318 . S
C274 C273 1.396 . S
H275 C270 0.929 . S
O276 Mn252 2.385 . S
O276 C254 1.234 . S
O277 Mn252 2.209 . S
O277 Mn253 2.215 . S
O277 C254 1.283 . S
O278 Mn252 2.094 . S
O278 C256 1.240 . S
O279 Mn253 2.117 . S
O279 C256 1.264 . S
C280 C273 1.403 . S
C280 C281 1.399 . S
C280 H286 0.929 . S
C281 C261 1.449 . S
C281 C280 1.399 . S
C281 H287 0.930 . S
H282 C262 0.931 . S
H283 C263 0.930 . S
H284 C271 0.931 . S
H285 C272 0.929 . S
H286 C280 0.929 . S
H287 C281 0.930 . S
Mn288 O293 2.095 . S
Mn288 O303 2.162 . S
Mn288 O304 2.297 . S
Mn288 O312 2.385 . S
Mn288 O313 2.209 . S
Mn288 O314 2.094 . S
Mn289 O294 2.121 . S
Mn289 N296 2.257 . S
Mn289 N305 2.282 . S
Mn289 O313 2.215 . S
Mn289 O315 2.117 . S
C290 O312 1.234 . S
C290 O313 1.283 . S
C291 O303 1.281 . S
C291 O304 1.236 . S
C292 O314 1.240 . S
C292 O315 1.264 . S
O293 Mn288 2.095 . S
O293 C302 1.250 . S
O294 Mn289 2.121 . S
O294 C302 1.258 . S
C295 N296 1.326 . S
C295 C299 1.460 . S
C295 H301 0.929 . S
N296 Mn289 2.257 . S
N296 C295 1.326 . S
N296 C300 1.362 . S
C297 C298 1.258 . S
C297 C300 1.431 . S
C297 C317 1.449 . S
C298 C297 1.258 . S
C298 C299 1.477 . S
C298 H318 0.931 . S
C299 C295 1.460 . S
C299 C298 1.477 . S
C299 H319 0.930 . S
C300 N296 1.362 . S
C300 C297 1.431 . S
C300 C310 1.476 . S
H301 C295 0.929 . S
C302 O293 1.250 . S
C302 O294 1.258 . S
O303 Mn288 2.162 . S
O303 C291 1.281 . S
O304 Mn288 2.297 . S
O304 C291 1.236 . S
N305 Mn289 2.282 . S
N305 C306 1.328 . S
N305 C310 1.318 . S
C306 N305 1.328 . S
C306 C307 1.457 . S
C306 H311 0.929 . S
C307 C306 1.457 . S
C307 C308 1.291 . S
C307 H320 0.931 . S
C308 C307 1.291 . S
C308 C309 1.373 . S
C308 H321 0.929 . S
C309 C308 1.373 . S
C309 C310 1.396 . S
C309 C316 1.403 . S
C310 C300 1.476 . S
C310 N305 1.318 . S
C310 C309 1.396 . S
H311 C306 0.929 . S
O312 Mn288 2.385 . S
O312 C290 1.234 . S
O313 Mn288 2.209 . S
O313 Mn289 2.215 . S
O313 C290 1.283 . S
O314 Mn288 2.094 . S
O314 C292 1.240 . S
O315 Mn289 2.117 . S
O315 C292 1.264 . S
C316 C309 1.403 . S
C316 C317 1.399 . S
C316 H322 0.929 . S
C317 C297 1.449 . S
C317 C316 1.399 . S
C317 H323 0.930 . S
H318 C298 0.931 . S
H319 C299 0.930 . S
H320 C307 0.931 . S
H321 C308 0.929 . S
H322 C316 0.929 . S
H323 C317 0.930 . S
Mn324 O329 2.095 . S
Mn324 O339 2.162 . S
Mn324 O340 2.297 . S
Mn324 O348 2.385 . S
Mn324 O349 2.209 . S
Mn324 O350 2.094 . S
Mn325 O330 2.121 . S
Mn325 N332 2.257 1_655 S
Mn325 N341 2.282 1_655 S
Mn325 O349 2.215 . S
Mn325 O351 2.117 . S
C326 O348 1.234 . S
C326 O349 1.283 . S
C327 O339 1.281 . S
C327 O340 1.236 . S
C328 O350 1.240 . S
C328 O351 1.264 . S
O329 Mn324 2.095 . S
O329 C338 1.250 . S
O330 Mn325 2.121 . S
O330 C338 1.258 . S
C331 N332 1.326 . S
C331 C335 1.460 . S
C331 H337 0.929 1_455 S
N332 Mn325 2.257 1_455 S
N332 C331 1.326 . S
N332 C336 1.362 . S
C333 C334 1.258 . S
C333 C336 1.431 . S
C333 C353 1.449 . S
C334 C333 1.258 . S
C334 C335 1.477 . S
C334 H354 0.931 . S
C335 C331 1.460 . S
C335 C334 1.477 . S
C335 H355 0.930 . S
C336 N332 1.362 . S
C336 C333 1.431 . S
C336 C346 1.476 . S
H337 C331 0.929 1_655 S
C338 O329 1.250 . S
C338 O330 1.258 . S
O339 Mn324 2.162 . S
O339 C327 1.281 . S
O340 Mn324 2.297 . S
O340 C327 1.236 . S
N341 Mn325 2.282 1_455 S
N341 C342 1.328 . S
N341 C346 1.318 . S
C342 N341 1.328 . S
C342 C343 1.457 . S
C342 H347 0.929 . S
C343 C342 1.457 . S
C343 C344 1.291 . S
C343 H356 0.931 . S
C344 C343 1.291 . S
C344 C345 1.373 . S
C344 H357 0.929 . S
C345 C344 1.373 . S
C345 C346 1.396 . S
C345 C352 1.403 . S
C346 C336 1.476 . S
C346 N341 1.318 . S
C346 C345 1.396 . S
H347 C342 0.929 . S
O348 Mn324 2.385 . S
O348 C326 1.234 . S
O349 Mn324 2.209 . S
O349 Mn325 2.215 . S
O349 C326 1.283 . S
O350 Mn324 2.094 . S
O350 C328 1.240 . S
O351 Mn325 2.117 . S
O351 C328 1.264 . S
C352 C345 1.403 . S
C352 C353 1.399 . S
C352 H358 0.929 . S
C353 C333 1.449 . S
C353 C352 1.399 . S
C353 H359 0.930 . S
H354 C334 0.931 . S
H355 C335 0.930 . S
H356 C343 0.931 . S
H357 C344 0.929 . S
H358 C352 0.929 . S
H359 C353 0.930 . S
Mn360 O365 2.095 . S
Mn360 O375 2.162 . S
Mn360 O376 2.297 . S
Mn360 O384 2.385 . S
Mn360 O385 2.209 . S
Mn360 O386 2.094 . S
Mn361 O366 2.121 . S
Mn361 N368 2.257 . S
Mn361 N377 2.282 . S
Mn361 O385 2.215 . S
Mn361 O387 2.117 . S
C362 O384 1.234 . S
C362 O385 1.283 . S
C363 O375 1.281 . S
C363 O376 1.236 . S
C364 O386 1.240 . S
C364 O387 1.264 . S
O365 Mn360 2.095 . S
O365 C374 1.250 . S
O366 Mn361 2.121 . S
O366 C374 1.258 . S
C367 N368 1.326 . S
C367 C371 1.460 . S
C367 H373 0.929 . S
N368 Mn361 2.257 . S
N368 C367 1.326 . S
N368 C372 1.362 . S
C369 C370 1.258 . S
C369 C372 1.431 . S
C369 C389 1.449 . S
C370 C369 1.258 . S
C370 C371 1.477 . S
C370 H390 0.931 . S
C371 C367 1.460 . S
C371 C370 1.477 . S
C371 H391 0.930 . S
C372 N368 1.362 . S
C372 C369 1.431 . S
C372 C382 1.476 . S
H373 C367 0.929 . S
C374 O365 1.250 . S
C374 O366 1.258 . S
O375 Mn360 2.162 . S
O375 C363 1.281 . S
O376 Mn360 2.297 . S
O376 C363 1.236 . S
N377 Mn361 2.282 . S
N377 C378 1.328 . S
N377 C382 1.318 . S
C378 N377 1.328 . S
C378 C379 1.457 . S
C378 H383 0.929 . S
C379 C378 1.457 . S
C379 C380 1.291 . S
C379 H392 0.931 . S
C380 C379 1.291 . S
C380 C381 1.373 . S
C380 H393 0.929 . S
C381 C380 1.373 . S
C381 C382 1.396 . S
C381 C388 1.403 . S
C382 C372 1.476 . S
C382 N377 1.318 . S
C382 C381 1.396 . S
H383 C378 0.929 . S
O384 Mn360 2.385 . S
O384 C362 1.234 . S
O385 Mn360 2.209 . S
O385 Mn361 2.215 . S
O385 C362 1.283 . S
O386 Mn360 2.094 . S
O386 C364 1.240 . S
O387 Mn361 2.117 . S
O387 C364 1.264 . S
C388 C381 1.403 . S
C388 C389 1.399 . S
C388 H394 0.929 . S
C389 C369 1.449 . S
C389 C388 1.399 . S
C389 H395 0.930 . S
H390 C370 0.931 . S
H391 C371 0.930 . S
H392 C379 0.931 . S
H393 C380 0.929 . S
H394 C388 0.929 . S
H395 C389 0.930 . S
Mn396 O401 2.095 . S
Mn396 O411 2.162 . S
Mn396 O412 2.297 . S
Mn396 O420 2.385 . S
Mn396 O421 2.209 . S
Mn396 O422 2.094 . S
Mn397 O402 2.121 . S
Mn397 N404 2.257 1_545 S
Mn397 N413 2.282 1_545 S
Mn397 O421 2.215 . S
Mn397 O423 2.117 . S
C398 O420 1.234 . S
C398 O421 1.283 . S
C399 O411 1.281 . S
C399 O412 1.236 . S
C400 O422 1.240 . S
C400 O423 1.264 . S
O401 Mn396 2.095 . S
O401 C410 1.250 . S
O402 Mn397 2.121 . S
O402 C410 1.258 . S
C403 N404 1.326 . S
C403 C407 1.460 . S
C403 H409 0.929 1_565 S
N404 Mn397 2.257 1_565 S
N404 C403 1.326 . S
N404 C408 1.362 . S
C405 C406 1.258 . S
C405 C408 1.431 . S
C405 C425 1.449 . S
C406 C405 1.258 . S
C406 C407 1.477 . S
C406 H426 0.931 . S
C407 C403 1.460 . S
C407 C406 1.477 . S
C407 H427 0.930 . S
C408 N404 1.362 . S
C408 C405 1.431 . S
C408 C418 1.476 . S
H409 C403 0.929 1_545 S
C410 O401 1.250 . S
C410 O402 1.258 . S
O411 Mn396 2.162 . S
O411 C399 1.281 . S
O412 Mn396 2.297 . S
O412 C399 1.236 . S
N413 Mn397 2.282 1_565 S
N413 C414 1.328 . S
N413 C418 1.318 . S
C414 N413 1.328 . S
C414 C415 1.457 . S
C414 H419 0.929 . S
C415 C414 1.457 . S
C415 C416 1.291 . S
C415 H428 0.931 . S
C416 C415 1.291 . S
C416 C417 1.373 . S
C416 H429 0.929 . S
C417 C416 1.373 . S
C417 C418 1.396 . S
C417 C424 1.403 . S
C418 C408 1.476 . S
C418 N413 1.318 . S
C418 C417 1.396 . S
H419 C414 0.929 . S
O420 Mn396 2.385 . S
O420 C398 1.234 . S
O421 Mn396 2.209 . S
O421 Mn397 2.215 . S
O421 C398 1.283 . S
O422 Mn396 2.094 . S
O422 C400 1.240 . S
O423 Mn397 2.117 . S
O423 C400 1.264 . S
C424 C417 1.403 . S
C424 C425 1.399 . S
C424 H430 0.929 . S
C425 C405 1.449 . S
C425 C424 1.399 . S
C425 H431 0.930 . S
H426 C406 0.931 . S
H427 C407 0.930 . S
H428 C415 0.931 . S
H429 C416 0.929 . S
H430 C424 0.929 . S
H431 C425 0.930 . S
Mn432 O437 2.095 . S
Mn432 O447 2.162 . S
Mn432 O448 2.297 . S
Mn432 O456 2.385 . S
Mn432 O457 2.209 . S
Mn432 O458 2.094 . S
Mn433 O438 2.121 . S
Mn433 N440 2.257 . S
Mn433 N449 2.282 . S
Mn433 O457 2.215 . S
Mn433 O459 2.117 . S
C434 O456 1.234 . S
C434 O457 1.283 . S
C435 O447 1.281 . S
C435 O448 1.236 . S
C436 O458 1.240 . S
C436 O459 1.264 . S
O437 Mn432 2.095 . S
O437 C446 1.250 . S
O438 Mn433 2.121 . S
O438 C446 1.258 . S
C439 N440 1.326 . S
C439 C443 1.460 . S
C439 H445 0.929 . S
N440 Mn433 2.257 . S
N440 C439 1.326 . S
N440 C444 1.362 . S
C441 C442 1.258 . S
C441 C444 1.431 . S
C441 C461 1.449 . S
C442 C441 1.258 . S
C442 C443 1.477 . S
C442 H462 0.931 . S
C443 C439 1.460 . S
C443 C442 1.477 . S
C443 H463 0.930 . S
C444 N440 1.362 . S
C444 C441 1.431 . S
C444 C454 1.476 . S
H445 C439 0.929 . S
C446 O437 1.250 . S
C446 O438 1.258 . S
O447 Mn432 2.162 . S
O447 C435 1.281 . S
O448 Mn432 2.297 . S
O448 C435 1.236 . S
N449 Mn433 2.282 . S
N449 C450 1.328 . S
N449 C454 1.318 . S
C450 N449 1.328 . S
C450 C451 1.457 . S
C450 H455 0.929 . S
C451 C450 1.457 . S
C451 C452 1.291 . S
C451 H464 0.931 . S
C452 C451 1.291 . S
C452 C453 1.373 . S
C452 H465 0.929 . S
C453 C452 1.373 . S
C453 C454 1.396 . S
C453 C460 1.403 . S
C454 C444 1.476 . S
C454 N449 1.318 . S
C454 C453 1.396 . S
H455 C450 0.929 . S
O456 Mn432 2.385 . S
O456 C434 1.234 . S
O457 Mn432 2.209 . S
O457 Mn433 2.215 . S
O457 C434 1.283 . S
O458 Mn432 2.094 . S
O458 C436 1.240 . S
O459 Mn433 2.117 . S
O459 C436 1.264 . S
C460 C453 1.403 . S
C460 C461 1.399 . S
C460 H466 0.929 . S
C461 C441 1.449 . S
C461 C460 1.399 . S
C461 H467 0.930 . S
H462 C442 0.931 . S
H463 C443 0.930 . S
H464 C451 0.931 . S
H465 C452 0.929 . S
H466 C460 0.929 . S
H467 C461 0.930 . S
Mn468 O473 2.095 . S
Mn468 O483 2.162 . S
Mn468 O484 2.297 . S
Mn468 O492 2.385 . S
Mn468 O493 2.209 . S
Mn468 O494 2.094 . S
Mn469 O474 2.121 . S
Mn469 N476 2.257 . S
Mn469 N485 2.282 . S
Mn469 O493 2.215 . S
Mn469 O495 2.117 . S
C470 O492 1.234 . S
C470 O493 1.283 . S
C471 O483 1.281 . S
C471 O484 1.236 . S
C472 O494 1.240 . S
C472 O495 1.264 . S
O473 Mn468 2.095 . S
O473 C482 1.250 . S
O474 Mn469 2.121 . S
O474 C482 1.258 . S
C475 N476 1.326 . S
C475 C479 1.460 . S
C475 H481 0.929 . S
N476 Mn469 2.257 . S
N476 C475 1.326 . S
N476 C480 1.362 . S
C477 C478 1.258 . S
C477 C480 1.431 . S
C477 C497 1.449 . S
C478 C477 1.258 . S
C478 C479 1.477 . S
C478 H498 0.931 . S
C479 C475 1.460 . S
C479 C478 1.477 . S
C479 H499 0.930 . S
C480 N476 1.362 . S
C480 C477 1.431 . S
C480 C490 1.476 . S
H481 C475 0.929 . S
C482 O473 1.250 . S
C482 O474 1.258 . S
O483 Mn468 2.162 . S
O483 C471 1.281 . S
O484 Mn468 2.297 . S
O484 C471 1.236 . S
N485 Mn469 2.282 . S
N485 C486 1.328 . S
N485 C490 1.318 . S
C486 N485 1.328 . S
C486 C487 1.457 . S
C486 H491 0.929 . S
C487 C486 1.457 . S
C487 C488 1.291 . S
C487 H500 0.931 . S
C488 C487 1.291 . S
C488 C489 1.373 . S
C488 H501 0.929 . S
C489 C488 1.373 . S
C489 C490 1.396 . S
C489 C496 1.403 . S
C490 C480 1.476 . S
C490 N485 1.318 . S
C490 C489 1.396 . S
H491 C486 0.929 . S
O492 Mn468 2.385 . S
O492 C470 1.234 . S
O493 Mn468 2.209 . S
O493 Mn469 2.215 . S
O493 C470 1.283 . S
O494 Mn468 2.094 . S
O494 C472 1.240 . S
O495 Mn469 2.117 . S
O495 C472 1.264 . S
C496 C489 1.403 . S
C496 C497 1.399 . S
C496 H502 0.929 . S
C497 C477 1.449 . S
C497 C496 1.399 . S
C497 H503 0.930 . S
H498 C478 0.931 . S
H499 C479 0.930 . S
H500 C487 0.931 . S
H501 C488 0.929 . S
H502 C496 0.929 . S
H503 C497 0.930 . S
Mn504 O509 2.095 . S
Mn504 O519 2.162 . S
Mn504 O520 2.297 . S
Mn504 O528 2.385 . S
Mn504 O529 2.209 . S
Mn504 O530 2.094 . S
Mn505 O510 2.121 . S
Mn505 N512 2.257 . S
Mn505 N521 2.282 . S
Mn505 O529 2.215 . S
Mn505 O531 2.117 . S
C506 O528 1.234 . S
C506 O529 1.283 . S
C507 O519 1.281 . S
C507 O520 1.236 . S
C508 O530 1.240 . S
C508 O531 1.264 . S
O509 Mn504 2.095 . S
O509 C518 1.250 . S
O510 Mn505 2.121 . S
O510 C518 1.258 . S
C511 N512 1.326 . S
C511 C515 1.460 . S
C511 H517 0.929 . S
N512 Mn505 2.257 . S
N512 C511 1.326 . S
N512 C516 1.362 . S
C513 C514 1.258 . S
C513 C516 1.431 . S
C513 C533 1.449 . S
C514 C513 1.258 . S
C514 C515 1.477 . S
C514 H534 0.931 . S
C515 C511 1.460 . S
C515 C514 1.477 . S
C515 H535 0.930 . S
C516 N512 1.362 . S
C516 C513 1.431 . S
C516 C526 1.476 . S
H517 C511 0.929 . S
C518 O509 1.250 . S
C518 O510 1.258 . S
O519 Mn504 2.162 . S
O519 C507 1.281 . S
O520 Mn504 2.297 . S
O520 C507 1.236 . S
N521 Mn505 2.282 . S
N521 C522 1.328 . S
N521 C526 1.318 . S
C522 N521 1.328 . S
C522 C523 1.457 . S
C522 H527 0.929 . S
C523 C522 1.457 . S
C523 C524 1.291 . S
C523 H536 0.931 . S
C524 C523 1.291 . S
C524 C525 1.373 . S
C524 H537 0.929 . S
C525 C524 1.373 . S
C525 C526 1.396 . S
C525 C532 1.403 . S
C526 C516 1.476 . S
C526 N521 1.318 . S
C526 C525 1.396 . S
H527 C522 0.929 . S
O528 Mn504 2.385 . S
O528 C506 1.234 . S
O529 Mn504 2.209 . S
O529 Mn505 2.215 . S
O529 C506 1.283 . S
O530 Mn504 2.094 . S
O530 C508 1.240 . S
O531 Mn505 2.117 . S
O531 C508 1.264 . S
C532 C525 1.403 . S
C532 C533 1.399 . S
C532 H538 0.929 . S
C533 C513 1.449 . S
C533 C532 1.399 . S
C533 H539 0.930 . S
H534 C514 0.931 . S
H535 C515 0.930 . S
H536 C523 0.931 . S
H537 C524 0.929 . S
H538 C532 0.929 . S
H539 C533 0.930 . S
Mn540 O545 2.095 . S
Mn540 O555 2.162 . S
Mn540 O556 2.297 . S
Mn540 O564 2.385 . S
Mn540 O565 2.209 . S
Mn540 O566 2.094 . S
Mn541 O546 2.121 . S
Mn541 N548 2.257 . S
Mn541 N557 2.282 . S
Mn541 O565 2.215 . S
Mn541 O567 2.117 . S
C542 O564 1.234 . S
C542 O565 1.283 . S
C543 O555 1.281 . S
C543 O556 1.236 . S
C544 O566 1.240 . S
C544 O567 1.264 . S
O545 Mn540 2.095 . S
O545 C554 1.250 . S
O546 Mn541 2.121 . S
O546 C554 1.258 . S
C547 N548 1.326 . S
C547 C551 1.460 . S
C547 H553 0.929 . S
N548 Mn541 2.257 . S
N548 C547 1.326 . S
N548 C552 1.362 . S
C549 C550 1.258 . S
C549 C552 1.431 . S
C549 C569 1.449 . S
C550 C549 1.258 . S
C550 C551 1.477 . S
C550 H570 0.931 . S
C551 C547 1.460 . S
C551 C550 1.477 . S
C551 H571 0.930 . S
C552 N548 1.362 . S
C552 C549 1.431 . S
C552 C562 1.476 . S
H553 C547 0.929 . S
C554 O545 1.250 . S
C554 O546 1.258 . S
O555 Mn540 2.162 . S
O555 C543 1.281 . S
O556 Mn540 2.297 . S
O556 C543 1.236 . S
N557 Mn541 2.282 . S
N557 C558 1.328 . S
N557 C562 1.318 . S
C558 N557 1.328 . S
C558 C559 1.457 . S
C558 H563 0.929 . S
C559 C558 1.457 . S
C559 C560 1.291 . S
C559 H572 0.931 . S
C560 C559 1.291 . S
C560 C561 1.373 . S
C560 H573 0.929 . S
C561 C560 1.373 . S
C561 C562 1.396 . S
C561 C568 1.403 . S
C562 C552 1.476 . S
C562 N557 1.318 . S
C562 C561 1.396 . S
H563 C558 0.929 . S
O564 Mn540 2.385 . S
O564 C542 1.234 . S
O565 Mn540 2.209 . S
O565 Mn541 2.215 . S
O565 C542 1.283 . S
O566 Mn540 2.094 . S
O566 C544 1.240 . S
O567 Mn541 2.117 . S
O567 C544 1.264 . S
C568 C561 1.403 . S
C568 C569 1.399 . S
C568 H574 0.929 . S
C569 C549 1.449 . S
C569 C568 1.399 . S
C569 H575 0.930 . S
H570 C550 0.931 . S
H571 C551 0.930 . S
H572 C559 0.931 . S
H573 C560 0.929 . S
H574 C568 0.929 . S
H575 C569 0.930 . S
Mn576 O581 2.095 . S
Mn576 O591 2.162 . S
Mn576 O592 2.297 . S
Mn576 O600 2.385 . S
Mn576 O601 2.209 . S
Mn576 O602 2.094 . S
Mn577 O582 2.121 . S
Mn577 N584 2.257 . S
Mn577 N593 2.282 . S
Mn577 O601 2.215 . S
Mn577 O603 2.117 . S
C578 O600 1.234 . S
C578 O601 1.283 . S
C579 O591 1.281 . S
C579 O592 1.236 . S
C580 O602 1.240 . S
C580 O603 1.264 . S
O581 Mn576 2.095 . S
O581 C590 1.250 . S
O582 Mn577 2.121 . S
O582 C590 1.258 . S
C583 N584 1.326 . S
C583 C587 1.460 . S
C583 H589 0.929 . S
N584 Mn577 2.257 . S
N584 C583 1.326 . S
N584 C588 1.362 . S
C585 C586 1.258 . S
C585 C588 1.431 . S
C585 C605 1.449 . S
C586 C585 1.258 . S
C586 C587 1.477 . S
C586 H606 0.931 . S
C587 C583 1.460 . S
C587 C586 1.477 . S
C587 H607 0.930 . S
C588 N584 1.362 . S
C588 C585 1.431 . S
C588 C598 1.476 . S
H589 C583 0.929 . S
C590 O581 1.250 . S
C590 O582 1.258 . S
O591 Mn576 2.162 . S
O591 C579 1.281 . S
O592 Mn576 2.297 . S
O592 C579 1.236 . S
N593 Mn577 2.282 . S
N593 C594 1.328 . S
N593 C598 1.318 . S
C594 N593 1.328 . S
C594 C595 1.457 . S
C594 H599 0.929 . S
C595 C594 1.457 . S
C595 C596 1.291 . S
C595 H608 0.931 . S
C596 C595 1.291 . S
C596 C597 1.373 . S
C596 H609 0.929 . S
C597 C596 1.373 . S
C597 C598 1.396 . S
C597 C604 1.403 . S
C598 C588 1.476 . S
C598 N593 1.318 . S
C598 C597 1.396 . S
H599 C594 0.929 . S
O600 Mn576 2.385 . S
O600 C578 1.234 . S
O601 Mn576 2.209 . S
O601 Mn577 2.215 . S
O601 C578 1.283 . S
O602 Mn576 2.094 . S
O602 C580 1.240 . S
O603 Mn577 2.117 . S
O603 C580 1.264 . S
C604 C597 1.403 . S
C604 C605 1.399 . S
C604 H610 0.929 . S
C605 C585 1.449 . S
C605 C604 1.399 . S
C605 H611 0.930 . S
H606 C586 0.931 . S
H607 C587 0.930 . S
H608 C595 0.931 . S
H609 C596 0.929 . S
H610 C604 0.929 . S
H611 C605 0.930 . S
Mn612 O617 2.095 . S
Mn612 O627 2.162 . S
Mn612 O628 2.297 . S
Mn612 O636 2.385 . S
Mn612 O637 2.209 . S
Mn612 O638 2.094 . S
Mn613 O618 2.121 . S
Mn613 N620 2.257 . S
Mn613 N629 2.282 . S
Mn613 O637 2.215 . S
Mn613 O639 2.117 . S
C614 O636 1.234 . S
C614 O637 1.283 . S
C615 O627 1.281 . S
C615 O628 1.236 . S
C616 O638 1.240 . S
C616 O639 1.264 . S
O617 Mn612 2.095 . S
O617 C626 1.250 . S
O618 Mn613 2.121 . S
O618 C626 1.258 . S
C619 N620 1.326 . S
C619 C623 1.460 . S
C619 H625 0.929 . S
N620 Mn613 2.257 . S
N620 C619 1.326 . S
N620 C624 1.362 . S
C621 C622 1.258 . S
C621 C624 1.431 . S
C621 C641 1.449 . S
C622 C621 1.258 . S
C622 C623 1.477 . S
C622 H642 0.931 . S
C623 C619 1.460 . S
C623 C622 1.477 . S
C623 H643 0.930 . S
C624 N620 1.362 . S
C624 C621 1.431 . S
C624 C634 1.476 . S
H625 C619 0.929 . S
C626 O617 1.250 . S
C626 O618 1.258 . S
O627 Mn612 2.162 . S
O627 C615 1.281 . S
O628 Mn612 2.297 . S
O628 C615 1.236 . S
N629 Mn613 2.282 . S
N629 C630 1.328 . S
N629 C634 1.318 . S
C630 N629 1.328 . S
C630 C631 1.457 . S
C630 H635 0.929 . S
C631 C630 1.457 . S
C631 C632 1.291 . S
C631 H644 0.931 . S
C632 C631 1.291 . S
C632 C633 1.373 . S
C632 H645 0.929 . S
C633 C632 1.373 . S
C633 C634 1.396 . S
C633 C640 1.403 . S
C634 C624 1.476 . S
C634 N629 1.318 . S
C634 C633 1.396 . S
H635 C630 0.929 . S
O636 Mn612 2.385 . S
O636 C614 1.234 . S
O637 Mn612 2.209 . S
O637 Mn613 2.215 . S
O637 C614 1.283 . S
O638 Mn612 2.094 . S
O638 C616 1.240 . S
O639 Mn613 2.117 . S
O639 C616 1.264 . S
C640 C633 1.403 . S
C640 C641 1.399 . S
C640 H646 0.929 . S
C641 C621 1.449 . S
C641 C640 1.399 . S
C641 H647 0.930 . S
H642 C622 0.931 . S
H643 C623 0.930 . S
H644 C631 0.931 . S
H645 C632 0.929 . S
H646 C640 0.929 . S
H647 C641 0.930 . S
Mn648 O653 2.095 . S
Mn648 O663 2.162 . S
Mn648 O664 2.297 . S
Mn648 O672 2.385 . S
Mn648 O673 2.209 . S
Mn648 O674 2.094 . S
Mn649 O654 2.121 . S
Mn649 N656 2.257 . S
Mn649 N665 2.282 . S
Mn649 O673 2.215 . S
Mn649 O675 2.117 . S
C650 O672 1.234 . S
C650 O673 1.283 . S
C651 O663 1.281 . S
C651 O664 1.236 . S
C652 O674 1.240 . S
C652 O675 1.264 . S
O653 Mn648 2.095 . S
O653 C662 1.250 . S
O654 Mn649 2.121 . S
O654 C662 1.258 . S
C655 N656 1.326 . S
C655 C659 1.460 . S
C655 H661 0.929 . S
N656 Mn649 2.257 . S
N656 C655 1.326 . S
N656 C660 1.362 . S
C657 C658 1.258 . S
C657 C660 1.431 . S
C657 C677 1.449 . S
C658 C657 1.258 . S
C658 C659 1.477 . S
C658 H678 0.931 . S
C659 C655 1.460 . S
C659 C658 1.477 . S
C659 H679 0.930 . S
C660 N656 1.362 . S
C660 C657 1.431 . S
C660 C670 1.476 . S
H661 C655 0.929 . S
C662 O653 1.250 . S
C662 O654 1.258 . S
O663 Mn648 2.162 . S
O663 C651 1.281 . S
O664 Mn648 2.297 . S
O664 C651 1.236 . S
N665 Mn649 2.282 . S
N665 C666 1.328 . S
N665 C670 1.318 . S
C666 N665 1.328 . S
C666 C667 1.457 . S
C666 H671 0.929 . S
C667 C666 1.457 . S
C667 C668 1.291 . S
C667 H680 0.931 . S
C668 C667 1.291 . S
C668 C669 1.373 . S
C668 H681 0.929 . S
C669 C668 1.373 . S
C669 C670 1.396 . S
C669 C676 1.403 . S
C670 C660 1.476 . S
C670 N665 1.318 . S
C670 C669 1.396 . S
H671 C666 0.929 . S
O672 Mn648 2.385 . S
O672 C650 1.234 . S
O673 Mn648 2.209 . S
O673 Mn649 2.215 . S
O673 C650 1.283 . S
O674 Mn648 2.094 . S
O674 C652 1.240 . S
O675 Mn649 2.117 . S
O675 C652 1.264 . S
C676 C669 1.403 . S
C676 C677 1.399 . S
C676 H682 0.929 . S
C677 C657 1.449 . S
C677 C676 1.399 . S
C677 H683 0.930 . S
H678 C658 0.931 . S
H679 C659 0.930 . S
H680 C667 0.931 . S
H681 C668 0.929 . S
H682 C676 0.929 . S
H683 C677 0.930 . S
Mn684 O689 2.095 . S
Mn684 O699 2.162 . S
Mn684 O700 2.297 . S
Mn684 O708 2.385 . S
Mn684 O709 2.209 . S
Mn684 O710 2.094 . S
Mn685 O690 2.121 . S
Mn685 N692 2.257 . S
Mn685 N701 2.282 . S
Mn685 O709 2.215 . S
Mn685 O711 2.117 . S
C686 O708 1.234 . S
C686 O709 1.283 . S
C687 O699 1.281 . S
C687 O700 1.236 . S
C688 O710 1.240 . S
C688 O711 1.264 . S
O689 Mn684 2.095 . S
O689 C698 1.250 . S
O690 Mn685 2.121 . S
O690 C698 1.258 . S
C691 N692 1.326 . S
C691 C695 1.460 . S
C691 H697 0.929 . S
N692 Mn685 2.257 . S
N692 C691 1.326 . S
N692 C696 1.362 . S
C693 C694 1.258 . S
C693 C696 1.431 . S
C693 C713 1.449 . S
C694 C693 1.258 . S
C694 C695 1.477 . S
C694 H714 0.931 . S
C695 C691 1.460 . S
C695 C694 1.477 . S
C695 H715 0.930 . S
C696 N692 1.362 . S
C696 C693 1.431 . S
C696 C706 1.476 . S
H697 C691 0.929 . S
C698 O689 1.250 . S
C698 O690 1.258 . S
O699 Mn684 2.162 . S
O699 C687 1.281 . S
O700 Mn684 2.297 . S
O700 C687 1.236 . S
N701 Mn685 2.282 . S
N701 C702 1.328 . S
N701 C706 1.318 . S
C702 N701 1.328 . S
C702 C703 1.457 . S
C702 H707 0.929 . S
C703 C702 1.457 . S
C703 C704 1.291 . S
C703 H716 0.931 . S
C704 C703 1.291 . S
C704 C705 1.373 . S
C704 H717 0.929 . S
C705 C704 1.373 . S
C705 C706 1.396 . S
C705 C712 1.403 . S
C706 C696 1.476 . S
C706 N701 1.318 . S
C706 C705 1.396 . S
H707 C702 0.929 . S
O708 Mn684 2.385 . S
O708 C686 1.234 . S
O709 Mn684 2.209 . S
O709 Mn685 2.215 . S
O709 C686 1.283 . S
O710 Mn684 2.094 . S
O710 C688 1.240 . S
O711 Mn685 2.117 . S
O711 C688 1.264 . S
C712 C705 1.403 . S
C712 C713 1.399 . S
C712 H718 0.929 . S
C713 C693 1.449 . S
C713 C712 1.399 . S
C713 H719 0.930 . S
H714 C694 0.931 . S
H715 C695 0.930 . S
H716 C703 0.931 . S
H717 C704 0.929 . S
H718 C712 0.929 . S
H719 C713 0.930 . S
Mn720 O725 2.095 . S
Mn720 O735 2.162 . S
Mn720 O736 2.297 . S
Mn720 O744 2.385 . S
Mn720 O745 2.209 . S
Mn720 O746 2.094 . S
Mn721 O726 2.121 . S
Mn721 N728 2.257 . S
Mn721 N737 2.282 . S
Mn721 O745 2.215 . S
Mn721 O747 2.117 . S
C722 O744 1.234 . S
C722 O745 1.283 . S
C723 O735 1.281 . S
C723 O736 1.236 . S
C724 O746 1.240 . S
C724 O747 1.264 . S
O725 Mn720 2.095 . S
O725 C734 1.250 . S
O726 Mn721 2.121 . S
O726 C734 1.258 . S
C727 N728 1.326 . S
C727 C731 1.460 . S
C727 H733 0.929 . S
N728 Mn721 2.257 . S
N728 C727 1.326 . S
N728 C732 1.362 . S
C729 C730 1.258 . S
C729 C732 1.431 . S
C729 C749 1.449 . S
C730 C729 1.258 . S
C730 C731 1.477 . S
C730 H750 0.931 . S
C731 C727 1.460 . S
C731 C730 1.477 . S
C731 H751 0.930 . S
C732 N728 1.362 . S
C732 C729 1.431 . S
C732 C742 1.476 . S
H733 C727 0.929 . S
C734 O725 1.250 . S
C734 O726 1.258 . S
O735 Mn720 2.162 . S
O735 C723 1.281 . S
O736 Mn720 2.297 . S
O736 C723 1.236 . S
N737 Mn721 2.282 . S
N737 C738 1.328 . S
N737 C742 1.318 . S
C738 N737 1.328 . S
C738 C739 1.457 . S
C738 H743 0.929 . S
C739 C738 1.457 . S
C739 C740 1.291 . S
C739 H752 0.931 . S
C740 C739 1.291 . S
C740 C741 1.373 . S
C740 H753 0.929 . S
C741 C740 1.373 . S
C741 C742 1.396 . S
C741 C748 1.403 . S
C742 C732 1.476 . S
C742 N737 1.318 . S
C742 C741 1.396 . S
H743 C738 0.929 . S
O744 Mn720 2.385 . S
O744 C722 1.234 . S
O745 Mn720 2.209 . S
O745 Mn721 2.215 . S
O745 C722 1.283 . S
O746 Mn720 2.094 . S
O746 C724 1.240 . S
O747 Mn721 2.117 . S
O747 C724 1.264 . S
C748 C741 1.403 . S
C748 C749 1.399 . S
C748 H754 0.929 . S
C749 C729 1.449 . S
C749 C748 1.399 . S
C749 H755 0.930 . S
H750 C730 0.931 . S
H751 C731 0.930 . S
H752 C739 0.931 . S
H753 C740 0.929 . S
H754 C748 0.929 . S
H755 C749 0.930 . S
Mn756 O761 2.095 . S
Mn756 O771 2.162 . S
Mn756 O772 2.297 . S
Mn756 O780 2.385 . S
Mn756 O781 2.209 . S
Mn756 O782 2.094 . S
Mn757 O762 2.121 . S
Mn757 N764 2.257 . S
Mn757 N773 2.282 . S
Mn757 O781 2.215 . S
Mn757 O783 2.117 . S
C758 O780 1.234 . S
C758 O781 1.283 . S
C759 O771 1.281 . S
C759 O772 1.236 . S
C760 O782 1.240 . S
C760 O783 1.264 . S
O761 Mn756 2.095 . S
O761 C770 1.250 . S
O762 Mn757 2.121 . S
O762 C770 1.258 . S
C763 N764 1.326 . S
C763 C767 1.460 . S
C763 H769 0.929 . S
N764 Mn757 2.257 . S
N764 C763 1.326 . S
N764 C768 1.362 . S
C765 C766 1.258 . S
C765 C768 1.431 . S
C765 C785 1.449 . S
C766 C765 1.258 . S
C766 C767 1.477 . S
C766 H786 0.931 1_556 S
C767 C763 1.460 . S
C767 C766 1.477 . S
C767 H787 0.930 1_556 S
C768 N764 1.362 . S
C768 C765 1.431 . S
C768 C778 1.476 . S
H769 C763 0.929 . S
C770 O761 1.250 . S
C770 O762 1.258 . S
O771 Mn756 2.162 . S
O771 C759 1.281 . S
O772 Mn756 2.297 . S
O772 C759 1.236 . S
N773 Mn757 2.282 . S
N773 C774 1.328 . S
N773 C778 1.318 . S
C774 N773 1.328 . S
C774 C775 1.457 . S
C774 H779 0.929 . S
C775 C774 1.457 . S
C775 C776 1.291 . S
C775 H788 0.931 . S
C776 C775 1.291 . S
C776 C777 1.373 . S
C776 H789 0.929 . S
C777 C776 1.373 . S
C777 C778 1.396 . S
C777 C784 1.403 . S
C778 C768 1.476 . S
C778 N773 1.318 . S
C778 C777 1.396 . S
H779 C774 0.929 . S
O780 Mn756 2.385 . S
O780 C758 1.234 . S
O781 Mn756 2.209 . S
O781 Mn757 2.215 . S
O781 C758 1.283 . S
O782 Mn756 2.094 . S
O782 C760 1.240 . S
O783 Mn757 2.117 . S
O783 C760 1.264 . S
C784 C777 1.403 . S
C784 C785 1.399 . S
C784 H790 0.929 . S
C785 C765 1.449 . S
C785 C784 1.399 . S
C785 H791 0.930 . S
H786 C766 0.931 1_554 S
H787 C767 0.930 1_554 S
H788 C775 0.931 . S
H789 C776 0.929 . S
H790 C784 0.929 . S
H791 C785 0.930 . S
Mn792 O797 2.095 . S
Mn792 O807 2.162 . S
Mn792 O808 2.297 . S
Mn792 O816 2.385 . S
Mn792 O817 2.209 . S
Mn792 O818 2.094 . S
Mn793 O798 2.121 . S
Mn793 N800 2.257 . S
Mn793 N809 2.282 . S
Mn793 O817 2.215 . S
Mn793 O819 2.117 . S
C794 O816 1.234 . S
C794 O817 1.283 . S
C795 O807 1.281 . S
C795 O808 1.236 . S
C796 O818 1.240 . S
C796 O819 1.264 . S
O797 Mn792 2.095 . S
O797 C806 1.250 . S
O798 Mn793 2.121 . S
O798 C806 1.258 . S
C799 N800 1.326 . S
C799 C803 1.460 . S
C799 H805 0.929 . S
N800 Mn793 2.257 . S
N800 C799 1.326 . S
N800 C804 1.362 . S
C801 C802 1.258 . S
C801 C804 1.431 . S
C801 C821 1.449 . S
C802 C801 1.258 . S
C802 C803 1.477 . S
C802 H822 0.931 1_556 S
C803 C799 1.460 . S
C803 C802 1.477 . S
C803 H823 0.930 1_556 S
C804 N800 1.362 . S
C804 C801 1.431 . S
C804 C814 1.476 . S
H805 C799 0.929 . S
C806 O797 1.250 . S
C806 O798 1.258 . S
O807 Mn792 2.162 . S
O807 C795 1.281 . S
O808 Mn792 2.297 . S
O808 C795 1.236 . S
N809 Mn793 2.282 . S
N809 C810 1.328 . S
N809 C814 1.318 . S
C810 N809 1.328 . S
C810 C811 1.457 . S
C810 H815 0.929 . S
C811 C810 1.457 . S
C811 C812 1.291 . S
C811 H824 0.931 . S
C812 C811 1.291 . S
C812 C813 1.373 . S
C812 H825 0.929 . S
C813 C812 1.373 . S
C813 C814 1.396 . S
C813 C820 1.403 . S
C814 C804 1.476 . S
C814 N809 1.318 . S
C814 C813 1.396 . S
H815 C810 0.929 . S
O816 Mn792 2.385 . S
O816 C794 1.234 . S
O817 Mn792 2.209 . S
O817 Mn793 2.215 . S
O817 C794 1.283 . S
O818 Mn792 2.094 . S
O818 C796 1.240 . S
O819 Mn793 2.117 . S
O819 C796 1.264 . S
C820 C813 1.403 . S
C820 C821 1.399 . S
C820 H826 0.929 . S
C821 C801 1.449 . S
C821 C820 1.399 . S
C821 H827 0.930 . S
H822 C802 0.931 1_554 S
H823 C803 0.930 1_554 S
H824 C811 0.931 . S
H825 C812 0.929 . S
H826 C820 0.929 . S
H827 C821 0.930 . S
Mn828 O833 2.095 . S
Mn828 O843 2.162 . S
Mn828 O844 2.297 . S
Mn828 O852 2.385 . S
Mn828 O853 2.209 . S
Mn828 O854 2.094 . S
Mn829 O834 2.121 . S
Mn829 N836 2.257 . S
Mn829 N845 2.282 . S
Mn829 O853 2.215 . S
Mn829 O855 2.117 . S
C830 O852 1.234 . S
C830 O853 1.283 . S
C831 O843 1.281 . S
C831 O844 1.236 . S
C832 O854 1.240 . S
C832 O855 1.264 . S
O833 Mn828 2.095 . S
O833 C842 1.250 . S
O834 Mn829 2.121 . S
O834 C842 1.258 . S
C835 N836 1.326 . S
C835 C839 1.460 . S
C835 H841 0.929 . S
N836 Mn829 2.257 . S
N836 C835 1.326 . S
N836 C840 1.362 . S
C837 C838 1.258 . S
C837 C840 1.431 . S
C837 C857 1.449 . S
C838 C837 1.258 . S
C838 C839 1.477 . S
C838 H858 0.931 1_556 S
C839 C835 1.460 . S
C839 C838 1.477 . S
C839 H859 0.930 1_556 S
C840 N836 1.362 . S
C840 C837 1.431 . S
C840 C850 1.476 . S
H841 C835 0.929 . S
C842 O833 1.250 . S
C842 O834 1.258 . S
O843 Mn828 2.162 . S
O843 C831 1.281 . S
O844 Mn828 2.297 . S
O844 C831 1.236 . S
N845 Mn829 2.282 . S
N845 C846 1.328 . S
N845 C850 1.318 . S
C846 N845 1.328 . S
C846 C847 1.457 . S
C846 H851 0.929 . S
C847 C846 1.457 . S
C847 C848 1.291 . S
C847 H860 0.931 . S
C848 C847 1.291 . S
C848 C849 1.373 . S
C848 H861 0.929 . S
C849 C848 1.373 . S
C849 C850 1.396 . S
C849 C856 1.403 . S
C850 C840 1.476 . S
C850 N845 1.318 . S
C850 C849 1.396 . S
H851 C846 0.929 . S
O852 Mn828 2.385 . S
O852 C830 1.234 . S
O853 Mn828 2.209 . S
O853 Mn829 2.215 . S
O853 C830 1.283 . S
O854 Mn828 2.094 . S
O854 C832 1.240 . S
O855 Mn829 2.117 . S
O855 C832 1.264 . S
C856 C849 1.403 . S
C856 C857 1.399 . S
C856 H862 0.929 . S
C857 C837 1.449 . S
C857 C856 1.399 . S
C857 H863 0.930 . S
H858 C838 0.931 1_554 S
H859 C839 0.930 1_554 S
H860 C847 0.931 . S
H861 C848 0.929 . S
H862 C856 0.929 . S
H863 C857 0.930 . S
Mn864 O869 2.095 . S
Mn864 O879 2.162 . S
Mn864 O880 2.297 . S
Mn864 O888 2.385 . S
Mn864 O889 2.209 . S
Mn864 O890 2.094 . S
Mn865 O870 2.121 . S
Mn865 N872 2.257 . S
Mn865 N881 2.282 . S
Mn865 O889 2.215 . S
Mn865 O891 2.117 . S
C866 O888 1.234 . S
C866 O889 1.283 . S
C867 O879 1.281 . S
C867 O880 1.236 . S
C868 O890 1.240 . S
C868 O891 1.264 . S
O869 Mn864 2.095 . S
O869 C878 1.250 . S
O870 Mn865 2.121 . S
O870 C878 1.258 . S
C871 N872 1.326 . S
C871 C875 1.460 . S
C871 H877 0.929 . S
N872 Mn865 2.257 . S
N872 C871 1.326 . S
N872 C876 1.362 . S
C873 C874 1.258 . S
C873 C876 1.431 . S
C873 C893 1.449 . S
C874 C873 1.258 . S
C874 C875 1.477 . S
C874 H894 0.931 . S
C875 C871 1.460 . S
C875 C874 1.477 . S
C875 H895 0.930 . S
C876 N872 1.362 . S
C876 C873 1.431 . S
C876 C886 1.476 . S
H877 C871 0.929 . S
C878 O869 1.250 . S
C878 O870 1.258 . S
O879 Mn864 2.162 . S
O879 C867 1.281 . S
O880 Mn864 2.297 . S
O880 C867 1.236 . S
N881 Mn865 2.282 . S
N881 C882 1.328 . S
N881 C886 1.318 . S
C882 N881 1.328 . S
C882 C883 1.457 . S
C882 H887 0.929 . S
C883 C882 1.457 . S
C883 C884 1.291 . S
C883 H896 0.931 . S
C884 C883 1.291 . S
C884 C885 1.373 . S
C884 H897 0.929 . S
C885 C884 1.373 . S
C885 C886 1.396 . S
C885 C892 1.403 . S
C886 C876 1.476 . S
C886 N881 1.318 . S
C886 C885 1.396 . S
H887 C882 0.929 . S
O888 Mn864 2.385 . S
O888 C866 1.234 . S
O889 Mn864 2.209 . S
O889 Mn865 2.215 . S
O889 C866 1.283 . S
O890 Mn864 2.094 . S
O890 C868 1.240 . S
O891 Mn865 2.117 . S
O891 C868 1.264 . S
C892 C885 1.403 . S
C892 C893 1.399 . S
C892 H898 0.929 . S
C893 C873 1.449 . S
C893 C892 1.399 . S
C893 H899 0.930 . S
H894 C874 0.931 . S
H895 C875 0.930 . S
H896 C883 0.931 . S
H897 C884 0.929 . S
H898 C892 0.929 . S
H899 C893 0.930 . S
Mn900 O905 2.095 . S
Mn900 O915 2.162 . S
Mn900 O916 2.297 . S
Mn900 O924 2.385 . S
Mn900 O925 2.209 . S
Mn900 O926 2.094 . S
Mn901 O906 2.121 . S
Mn901 N908 2.257 . S
Mn901 N917 2.282 . S
Mn901 O925 2.215 . S
Mn901 O927 2.117 . S
C902 O924 1.234 . S
C902 O925 1.283 . S
C903 O915 1.281 . S
C903 O916 1.236 . S
C904 O926 1.240 . S
C904 O927 1.264 . S
O905 Mn900 2.095 . S
O905 C914 1.250 . S
O906 Mn901 2.121 . S
O906 C914 1.258 . S
C907 N908 1.326 . S
C907 C911 1.460 . S
C907 H913 0.929 . S
N908 Mn901 2.257 . S
N908 C907 1.326 . S
N908 C912 1.362 . S
C909 C910 1.258 . S
C909 C912 1.431 . S
C909 C929 1.449 . S
C910 C909 1.258 . S
C910 C911 1.477 . S
C910 H930 0.931 . S
C911 C907 1.460 . S
C911 C910 1.477 . S
C911 H931 0.930 . S
C912 N908 1.362 . S
C912 C909 1.431 . S
C912 C922 1.476 . S
H913 C907 0.929 . S
C914 O905 1.250 . S
C914 O906 1.258 . S
O915 Mn900 2.162 . S
O915 C903 1.281 . S
O916 Mn900 2.297 . S
O916 C903 1.236 . S
N917 Mn901 2.282 . S
N917 C918 1.328 . S
N917 C922 1.318 . S
C918 N917 1.328 . S
C918 C919 1.457 . S
C918 H923 0.929 . S
C919 C918 1.457 . S
C919 C920 1.291 . S
C919 H932 0.931 . S
C920 C919 1.291 . S
C920 C921 1.373 . S
C920 H933 0.929 . S
C921 C920 1.373 . S
C921 C922 1.396 . S
C921 C928 1.403 . S
C922 C912 1.476 . S
C922 N917 1.318 . S
C922 C921 1.396 . S
H923 C918 0.929 . S
O924 Mn900 2.385 . S
O924 C902 1.234 . S
O925 Mn900 2.209 . S
O925 Mn901 2.215 . S
O925 C902 1.283 . S
O926 Mn900 2.094 . S
O926 C904 1.240 . S
O927 Mn901 2.117 . S
O927 C904 1.264 . S
C928 C921 1.403 . S
C928 C929 1.399 . S
C928 H934 0.929 . S
C929 C909 1.449 . S
C929 C928 1.399 . S
C929 H935 0.930 . S
H930 C910 0.931 . S
H931 C911 0.930 . S
H932 C919 0.931 . S
H933 C920 0.929 . S
H934 C928 0.929 . S
H935 C929 0.930 . S
Mn936 O941 2.095 . S
Mn936 O951 2.162 . S
Mn936 O952 2.297 . S
Mn936 O960 2.385 . S
Mn936 O961 2.209 . S
Mn936 O962 2.094 . S
Mn937 O942 2.121 . S
Mn937 N944 2.257 . S
Mn937 N953 2.282 . S
Mn937 O961 2.215 . S
Mn937 O963 2.117 . S
C938 O960 1.234 . S
C938 O961 1.283 . S
C939 O951 1.281 . S
C939 O952 1.236 . S
C940 O962 1.240 . S
C940 O963 1.264 . S
O941 Mn936 2.095 . S
O941 C950 1.250 . S
O942 Mn937 2.121 . S
O942 C950 1.258 . S
C943 N944 1.326 . S
C943 C947 1.460 . S
C943 H949 0.929 . S
N944 Mn937 2.257 . S
N944 C943 1.326 . S
N944 C948 1.362 . S
C945 C946 1.258 . S
C945 C948 1.431 . S
C945 C965 1.449 . S
C946 C945 1.258 . S
C946 C947 1.477 . S
C946 H966 0.931 . S
C947 C943 1.460 . S
C947 C946 1.477 . S
C947 H967 0.930 . S
C948 N944 1.362 . S
C948 C945 1.431 . S
C948 C958 1.476 . S
H949 C943 0.929 . S
C950 O941 1.250 . S
C950 O942 1.258 . S
O951 Mn936 2.162 . S
O951 C939 1.281 . S
O952 Mn936 2.297 . S
O952 C939 1.236 . S
N953 Mn937 2.282 . S
N953 C954 1.328 . S
N953 C958 1.318 . S
C954 N953 1.328 . S
C954 C955 1.457 . S
C954 H959 0.929 . S
C955 C954 1.457 . S
C955 C956 1.291 . S
C955 H968 0.931 . S
C956 C955 1.291 . S
C956 C957 1.373 . S
C956 H969 0.929 . S
C957 C956 1.373 . S
C957 C958 1.396 . S
C957 C964 1.403 . S
C958 C948 1.476 . S
C958 N953 1.318 . S
C958 C957 1.396 . S
H959 C954 0.929 . S
O960 Mn936 2.385 . S
O960 C938 1.234 . S
O961 Mn936 2.209 . S
O961 Mn937 2.215 . S
O961 C938 1.283 . S
O962 Mn936 2.094 . S
O962 C940 1.240 . S
O963 Mn937 2.117 . S
O963 C940 1.264 . S
C964 C957 1.403 . S
C964 C965 1.399 . S
C964 H970 0.929 . S
C965 C945 1.449 . S
C965 C964 1.399 . S
C965 H971 0.930 . S
H966 C946 0.931 . S
H967 C947 0.930 . S
H968 C955 0.931 . S
H969 C956 0.929 . S
H970 C964 0.929 . S
H971 C965 0.930 . S
Mn972 O977 2.095 . S
Mn972 O987 2.162 . S
Mn972 O988 2.297 . S
Mn972 O996 2.385 . S
Mn972 O997 2.209 . S
Mn972 O998 2.094 . S
Mn973 O978 2.121 . S
Mn973 N980 2.257 . S
Mn973 N989 2.282 . S
Mn973 O997 2.215 . S
Mn973 O999 2.117 . S
C974 O996 1.234 . S
C974 O997 1.283 . S
C975 O987 1.281 . S
C975 O988 1.236 . S
C976 O998 1.240 . S
C976 O999 1.264 . S
O977 Mn972 2.095 . S
O977 C986 1.250 . S
O978 Mn973 2.121 . S
O978 C986 1.258 . S
C979 N980 1.326 . S
C979 C983 1.460 . S
C979 H985 0.929 . S
N980 Mn973 2.257 . S
N980 C979 1.326 . S
N980 C984 1.362 . S
C981 C982 1.258 . S
C981 C984 1.431 . S
C981 C1001 1.449 . S
C982 C981 1.258 . S
C982 C983 1.477 . S
C982 H1002 0.931 1_554 S
C983 C979 1.460 . S
C983 C982 1.477 . S
C983 H1003 0.930 1_554 S
C984 N980 1.362 . S
C984 C981 1.431 . S
C984 C994 1.476 . S
H985 C979 0.929 . S
C986 O977 1.250 . S
C986 O978 1.258 . S
O987 Mn972 2.162 . S
O987 C975 1.281 . S
O988 Mn972 2.297 . S
O988 C975 1.236 . S
N989 Mn973 2.282 . S
N989 C990 1.328 . S
N989 C994 1.318 . S
C990 N989 1.328 . S
C990 C991 1.457 . S
C990 H995 0.929 . S
C991 C990 1.457 . S
C991 C992 1.291 . S
C991 H1004 0.931 . S
C992 C991 1.291 . S
C992 C993 1.373 . S
C992 H1005 0.929 . S
C993 C992 1.373 . S
C993 C994 1.396 . S
C993 C1000 1.403 . S
C994 C984 1.476 . S
C994 N989 1.318 . S
C994 C993 1.396 . S
H995 C990 0.929 . S
O996 Mn972 2.385 . S
O996 C974 1.234 . S
O997 Mn972 2.209 . S
O997 Mn973 2.215 . S
O997 C974 1.283 . S
O998 Mn972 2.094 . S
O998 C976 1.240 . S
O999 Mn973 2.117 . S
O999 C976 1.264 . S
C1000 C993 1.403 . S
C1000 C1001 1.399 . S
C1000 H1006 0.929 . S
C1001 C981 1.449 . S
C1001 C1000 1.399 . S
C1001 H1007 0.930 . S
H1002 C982 0.931 1_556 S
H1003 C983 0.930 1_556 S
H1004 C991 0.931 . S
H1005 C992 0.929 . S
H1006 C1000 0.929 . S
H1007 C1001 0.930 . S
Mn1008 O1013 2.095 . S
Mn1008 O1023 2.162 . S
Mn1008 O1024 2.297 . S
Mn1008 O1032 2.385 . S
Mn1008 O1033 2.209 . S
Mn1008 O1034 2.094 . S
Mn1009 O1014 2.121 . S
Mn1009 N1016 2.257 . S
Mn1009 N1025 2.282 . S
Mn1009 O1033 2.215 . S
Mn1009 O1035 2.117 . S
C1010 O1032 1.234 . S
C1010 O1033 1.283 . S
C1011 O1023 1.281 . S
C1011 O1024 1.236 . S
C1012 O1034 1.240 . S
C1012 O1035 1.264 . S
O1013 Mn1008 2.095 . S
O1013 C1022 1.250 . S
O1014 Mn1009 2.121 . S
O1014 C1022 1.258 . S
C1015 N1016 1.326 . S
C1015 C1019 1.460 . S
C1015 H1021 0.929 . S
N1016 Mn1009 2.257 . S
N1016 C1015 1.326 . S
N1016 C1020 1.362 . S
C1017 C1018 1.258 . S
C1017 C1020 1.431 . S
C1017 C1037 1.449 . S
C1018 C1017 1.258 . S
C1018 C1019 1.477 . S
C1018 H1038 0.931 1_554 S
C1019 C1015 1.460 . S
C1019 C1018 1.477 . S
C1019 H1039 0.930 1_554 S
C1020 N1016 1.362 . S
C1020 C1017 1.431 . S
C1020 C1030 1.476 . S
H1021 C1015 0.929 . S
C1022 O1013 1.250 . S
C1022 O1014 1.258 . S
O1023 Mn1008 2.162 . S
O1023 C1011 1.281 . S
O1024 Mn1008 2.297 . S
O1024 C1011 1.236 . S
N1025 Mn1009 2.282 . S
N1025 C1026 1.328 . S
N1025 C1030 1.318 . S
C1026 N1025 1.328 . S
C1026 C1027 1.457 . S
C1026 H1031 0.929 . S
C1027 C1026 1.457 . S
C1027 C1028 1.291 . S
C1027 H1040 0.931 . S
C1028 C1027 1.291 . S
C1028 C1029 1.373 . S
C1028 H1041 0.929 . S
C1029 C1028 1.373 . S
C1029 C1030 1.396 . S
C1029 C1036 1.403 . S
C1030 C1020 1.476 . S
C1030 N1025 1.318 . S
C1030 C1029 1.396 . S
H1031 C1026 0.929 . S
O1032 Mn1008 2.385 . S
O1032 C1010 1.234 . S
O1033 Mn1008 2.209 . S
O1033 Mn1009 2.215 . S
O1033 C1010 1.283 . S
O1034 Mn1008 2.094 . S
O1034 C1012 1.240 . S
O1035 Mn1009 2.117 . S
O1035 C1012 1.264 . S
C1036 C1029 1.403 . S
C1036 C1037 1.399 . S
C1036 H1042 0.929 . S
C1037 C1017 1.449 . S
C1037 C1036 1.399 . S
C1037 H1043 0.930 . S
H1038 C1018 0.931 1_556 S
H1039 C1019 0.930 1_556 S
H1040 C1027 0.931 . S
H1041 C1028 0.929 . S
H1042 C1036 0.929 . S
H1043 C1037 0.930 . S
Mn1044 O1049 2.095 . S
Mn1044 O1059 2.162 . S
Mn1044 O1060 2.297 . S
Mn1044 O1068 2.385 . S
Mn1044 O1069 2.209 . S
Mn1044 O1070 2.094 . S
Mn1045 O1050 2.121 . S
Mn1045 N1052 2.257 . S
Mn1045 N1061 2.282 . S
Mn1045 O1069 2.215 . S
Mn1045 O1071 2.117 . S
C1046 O1068 1.234 . S
C1046 O1069 1.283 . S
C1047 O1059 1.281 . S
C1047 O1060 1.236 . S
C1048 O1070 1.240 . S
C1048 O1071 1.264 . S
O1049 Mn1044 2.095 . S
O1049 C1058 1.250 . S
O1050 Mn1045 2.121 . S
O1050 C1058 1.258 . S
C1051 N1052 1.326 . S
C1051 C1055 1.460 . S
C1051 H1057 0.929 . S
N1052 Mn1045 2.257 . S
N1052 C1051 1.326 . S
N1052 C1056 1.362 . S
C1053 C1054 1.258 . S
C1053 C1056 1.431 . S
C1053 C1073 1.449 . S
C1054 C1053 1.258 . S
C1054 C1055 1.477 . S
C1054 H1074 0.931 1_554 S
C1055 C1051 1.460 . S
C1055 C1054 1.477 . S
C1055 H1075 0.930 1_554 S
C1056 N1052 1.362 . S
C1056 C1053 1.431 . S
C1056 C1066 1.476 . S
H1057 C1051 0.929 . S
C1058 O1049 1.250 . S
C1058 O1050 1.258 . S
O1059 Mn1044 2.162 . S
O1059 C1047 1.281 . S
O1060 Mn1044 2.297 . S
O1060 C1047 1.236 . S
N1061 Mn1045 2.282 . S
N1061 C1062 1.328 . S
N1061 C1066 1.318 . S
C1062 N1061 1.328 . S
C1062 C1063 1.457 . S
C1062 H1067 0.929 . S
C1063 C1062 1.457 . S
C1063 C1064 1.291 . S
C1063 H1076 0.931 . S
C1064 C1063 1.291 . S
C1064 C1065 1.373 . S
C1064 H1077 0.929 . S
C1065 C1064 1.373 . S
C1065 C1066 1.396 . S
C1065 C1072 1.403 . S
C1066 C1056 1.476 . S
C1066 N1061 1.318 . S
C1066 C1065 1.396 . S
H1067 C1062 0.929 . S
O1068 Mn1044 2.385 . S
O1068 C1046 1.234 . S
O1069 Mn1044 2.209 . S
O1069 Mn1045 2.215 . S
O1069 C1046 1.283 . S
O1070 Mn1044 2.094 . S
O1070 C1048 1.240 . S
O1071 Mn1045 2.117 . S
O1071 C1048 1.264 . S
C1072 C1065 1.403 . S
C1072 C1073 1.399 . S
C1072 H1078 0.929 . S
C1073 C1053 1.449 . S
C1073 C1072 1.399 . S
C1073 H1079 0.930 . S
H1074 C1054 0.931 1_556 S
H1075 C1055 0.930 1_556 S
H1076 C1063 0.931 . S
H1077 C1064 0.929 . S
H1078 C1072 0.929 . S
H1079 C1073 0.930 . S
Mn1080 O1085 2.095 . S
Mn1080 O1095 2.162 . S
Mn1080 O1096 2.297 . S
Mn1080 O1104 2.385 . S
Mn1080 O1105 2.209 . S
Mn1080 O1106 2.094 . S
Mn1081 O1086 2.121 . S
Mn1081 N1088 2.257 . S
Mn1081 N1097 2.282 . S
Mn1081 O1105 2.215 . S
Mn1081 O1107 2.117 . S
C1082 O1104 1.234 . S
C1082 O1105 1.283 . S
C1083 O1095 1.281 . S
C1083 O1096 1.236 . S
C1084 O1106 1.240 . S
C1084 O1107 1.264 . S
O1085 Mn1080 2.095 . S
O1085 C1094 1.250 . S
O1086 Mn1081 2.121 . S
O1086 C1094 1.258 . S
C1087 N1088 1.326 . S
C1087 C1091 1.460 . S
C1087 H1093 0.929 . S
N1088 Mn1081 2.257 . S
N1088 C1087 1.326 . S
N1088 C1092 1.362 . S
C1089 C1090 1.258 . S
C1089 C1092 1.431 . S
C1089 C1109 1.449 . S
C1090 C1089 1.258 . S
C1090 C1091 1.477 . S
C1090 H1110 0.931 . S
C1091 C1087 1.460 . S
C1091 C1090 1.477 . S
C1091 H1111 0.930 . S
C1092 N1088 1.362 . S
C1092 C1089 1.431 . S
C1092 C1102 1.476 . S
H1093 C1087 0.929 . S
C1094 O1085 1.250 . S
C1094 O1086 1.258 . S
O1095 Mn1080 2.162 . S
O1095 C1083 1.281 . S
O1096 Mn1080 2.297 . S
O1096 C1083 1.236 . S
N1097 Mn1081 2.282 . S
N1097 C1098 1.328 . S
N1097 C1102 1.318 . S
C1098 N1097 1.328 . S
C1098 C1099 1.457 . S
C1098 H1103 0.929 . S
C1099 C1098 1.457 . S
C1099 C1100 1.291 . S
C1099 H1112 0.931 . S
C1100 C1099 1.291 . S
C1100 C1101 1.373 . S
C1100 H1113 0.929 . S
C1101 C1100 1.373 . S
C1101 C1102 1.396 . S
C1101 C1108 1.403 . S
C1102 C1092 1.476 . S
C1102 N1097 1.318 . S
C1102 C1101 1.396 . S
H1103 C1098 0.929 . S
O1104 Mn1080 2.385 . S
O1104 C1082 1.234 . S
O1105 Mn1080 2.209 . S
O1105 Mn1081 2.215 . S
O1105 C1082 1.283 . S
O1106 Mn1080 2.094 . S
O1106 C1084 1.240 . S
O1107 Mn1081 2.117 . S
O1107 C1084 1.264 . S
C1108 C1101 1.403 . S
C1108 C1109 1.399 . S
C1108 H1114 0.929 . S
C1109 C1089 1.449 . S
C1109 C1108 1.399 . S
C1109 H1115 0.930 . S
H1110 C1090 0.931 . S
H1111 C1091 0.930 . S
H1112 C1099 0.931 . S
H1113 C1100 0.929 . S
H1114 C1108 0.929 . S
H1115 C1109 0.930 . S
Mn1116 O1121 2.095 . S
Mn1116 O1131 2.162 . S
Mn1116 O1132 2.297 . S
Mn1116 O1140 2.385 . S
Mn1116 O1141 2.209 . S
Mn1116 O1142 2.094 . S
Mn1117 O1122 2.121 . S
Mn1117 N1124 2.257 . S
Mn1117 N1133 2.282 . S
Mn1117 O1141 2.215 . S
Mn1117 O1143 2.117 . S
C1118 O1140 1.234 . S
C1118 O1141 1.283 . S
C1119 O1131 1.281 . S
C1119 O1132 1.236 . S
C1120 O1142 1.240 . S
C1120 O1143 1.264 . S
O1121 Mn1116 2.095 . S
O1121 C1130 1.250 . S
O1122 Mn1117 2.121 . S
O1122 C1130 1.258 . S
C1123 N1124 1.326 . S
C1123 C1127 1.460 . S
C1123 H1129 0.929 . S
N1124 Mn1117 2.257 . S
N1124 C1123 1.326 . S
N1124 C1128 1.362 . S
C1125 C1126 1.258 . S
C1125 C1128 1.431 . S
C1125 C1145 1.449 . S
C1126 C1125 1.258 . S
C1126 C1127 1.477 . S
C1126 H1146 0.931 . S
C1127 C1123 1.460 . S
C1127 C1126 1.477 . S
C1127 H1147 0.930 . S
C1128 N1124 1.362 . S
C1128 C1125 1.431 . S
C1128 C1138 1.476 . S
H1129 C1123 0.929 . S
C1130 O1121 1.250 . S
C1130 O1122 1.258 . S
O1131 Mn1116 2.162 . S
O1131 C1119 1.281 . S
O1132 Mn1116 2.297 . S
O1132 C1119 1.236 . S
N1133 Mn1117 2.282 . S
N1133 C1134 1.328 . S
N1133 C1138 1.318 . S
C1134 N1133 1.328 . S
C1134 C1135 1.457 . S
C1134 H1139 0.929 . S
C1135 C1134 1.457 . S
C1135 C1136 1.291 . S
C1135 H1148 0.931 . S
C1136 C1135 1.291 . S
C1136 C1137 1.373 . S
C1136 H1149 0.929 . S
C1137 C1136 1.373 . S
C1137 C1138 1.396 . S
C1137 C1144 1.403 . S
C1138 C1128 1.476 . S
C1138 N1133 1.318 . S
C1138 C1137 1.396 . S
H1139 C1134 0.929 . S
O1140 Mn1116 2.385 . S
O1140 C1118 1.234 . S
O1141 Mn1116 2.209 . S
O1141 Mn1117 2.215 . S
O1141 C1118 1.283 . S
O1142 Mn1116 2.094 . S
O1142 C1120 1.240 . S
O1143 Mn1117 2.117 . S
O1143 C1120 1.264 . S
C1144 C1137 1.403 . S
C1144 C1145 1.399 . S
C1144 H1150 0.929 . S
C1145 C1125 1.449 . S
C1145 C1144 1.399 . S
C1145 H1151 0.930 . S
H1146 C1126 0.931 . S
H1147 C1127 0.930 . S
H1148 C1135 0.931 . S
H1149 C1136 0.929 . S
H1150 C1144 0.929 . S
H1151 C1145 0.930 . S
Mn1152 O1157 2.095 . S
Mn1152 O1167 2.162 . S
Mn1152 O1168 2.297 . S
Mn1152 O1176 2.385 . S
Mn1152 O1177 2.209 . S
Mn1152 O1178 2.094 . S
Mn1153 O1158 2.121 . S
Mn1153 N1160 2.257 . S
Mn1153 N1169 2.282 . S
Mn1153 O1177 2.215 . S
Mn1153 O1179 2.117 . S
C1154 O1176 1.234 . S
C1154 O1177 1.283 . S
C1155 O1167 1.281 . S
C1155 O1168 1.236 . S
C1156 O1178 1.240 . S
C1156 O1179 1.264 . S
O1157 Mn1152 2.095 . S
O1157 C1166 1.250 . S
O1158 Mn1153 2.121 . S
O1158 C1166 1.258 . S
C1159 N1160 1.326 . S
C1159 C1163 1.460 . S
C1159 H1165 0.929 . S
N1160 Mn1153 2.257 . S
N1160 C1159 1.326 . S
N1160 C1164 1.362 . S
C1161 C1162 1.258 . S
C1161 C1164 1.431 . S
C1161 C1181 1.449 . S
C1162 C1161 1.258 . S
C1162 C1163 1.477 . S
C1162 H1182 0.931 . S
C1163 C1159 1.460 . S
C1163 C1162 1.477 . S
C1163 H1183 0.930 . S
C1164 N1160 1.362 . S
C1164 C1161 1.431 . S
C1164 C1174 1.476 . S
H1165 C1159 0.929 . S
C1166 O1157 1.250 . S
C1166 O1158 1.258 . S
O1167 Mn1152 2.162 . S
O1167 C1155 1.281 . S
O1168 Mn1152 2.297 . S
O1168 C1155 1.236 . S
N1169 Mn1153 2.282 . S
N1169 C1170 1.328 . S
N1169 C1174 1.318 . S
C1170 N1169 1.328 . S
C1170 C1171 1.457 . S
C1170 H1175 0.929 . S
C1171 C1170 1.457 . S
C1171 C1172 1.291 . S
C1171 H1184 0.931 . S
C1172 C1171 1.291 . S
C1172 C1173 1.373 . S
C1172 H1185 0.929 . S
C1173 C1172 1.373 . S
C1173 C1174 1.396 . S
C1173 C1180 1.403 . S
C1174 C1164 1.476 . S
C1174 N1169 1.318 . S
C1174 C1173 1.396 . S
H1175 C1170 0.929 . S
O1176 Mn1152 2.385 . S
O1176 C1154 1.234 . S
O1177 Mn1152 2.209 . S
O1177 Mn1153 2.215 . S
O1177 C1154 1.283 . S
O1178 Mn1152 2.094 . S
O1178 C1156 1.240 . S
O1179 Mn1153 2.117 . S
O1179 C1156 1.264 . S
C1180 C1173 1.403 . S
C1180 C1181 1.399 . S
C1180 H1186 0.929 . S
C1181 C1161 1.449 . S
C1181 C1180 1.399 . S
C1181 H1187 0.930 . S
H1182 C1162 0.931 . S
H1183 C1163 0.930 . S
H1184 C1171 0.931 . S
H1185 C1172 0.929 . S
H1186 C1180 0.929 . S
H1187 C1181 0.930 . S
Mn1188 O1193 2.095 . S
Mn1188 O1203 2.162 . S
Mn1188 O1204 2.297 . S
Mn1188 O1212 2.385 . S
Mn1188 O1213 2.209 . S
Mn1188 O1214 2.094 . S
Mn1189 O1194 2.121 . S
Mn1189 N1196 2.257 . S
Mn1189 N1205 2.282 . S
Mn1189 O1213 2.215 . S
Mn1189 O1215 2.117 . S
C1190 O1212 1.234 . S
C1190 O1213 1.283 . S
C1191 O1203 1.281 . S
C1191 O1204 1.236 . S
C1192 O1214 1.240 . S
C1192 O1215 1.264 . S
O1193 Mn1188 2.095 . S
O1193 C1202 1.250 . S
O1194 Mn1189 2.121 . S
O1194 C1202 1.258 . S
C1195 N1196 1.326 . S
C1195 C1199 1.460 . S
C1195 H1201 0.929 . S
N1196 Mn1189 2.257 . S
N1196 C1195 1.326 . S
N1196 C1200 1.362 . S
C1197 C1198 1.258 . S
C1197 C1200 1.431 . S
C1197 C1217 1.449 . S
C1198 C1197 1.258 . S
C1198 C1199 1.477 . S
C1198 H1218 0.931 . S
C1199 C1195 1.460 . S
C1199 C1198 1.477 . S
C1199 H1219 0.930 . S
C1200 N1196 1.362 . S
C1200 C1197 1.431 . S
C1200 C1210 1.476 . S
H1201 C1195 0.929 . S
C1202 O1193 1.250 . S
C1202 O1194 1.258 . S
O1203 Mn1188 2.162 . S
O1203 C1191 1.281 . S
O1204 Mn1188 2.297 . S
O1204 C1191 1.236 . S
N1205 Mn1189 2.282 . S
N1205 C1206 1.328 . S
N1205 C1210 1.318 . S
C1206 N1205 1.328 . S
C1206 C1207 1.457 . S
C1206 H1211 0.929 . S
C1207 C1206 1.457 . S
C1207 C1208 1.291 . S
C1207 H1220 0.931 . S
C1208 C1207 1.291 . S
C1208 C1209 1.373 . S
C1208 H1221 0.929 . S
C1209 C1208 1.373 . S
C1209 C1210 1.396 . S
C1209 C1216 1.403 . S
C1210 C1200 1.476 . S
C1210 N1205 1.318 . S
C1210 C1209 1.396 . S
H1211 C1206 0.929 . S
O1212 Mn1188 2.385 . S
O1212 C1190 1.234 . S
O1213 Mn1188 2.209 . S
O1213 Mn1189 2.215 . S
O1213 C1190 1.283 . S
O1214 Mn1188 2.094 . S
O1214 C1192 1.240 . S
O1215 Mn1189 2.117 . S
O1215 C1192 1.264 . S
C1216 C1209 1.403 . S
C1216 C1217 1.399 . S
C1216 H1222 0.929 . S
C1217 C1197 1.449 . S
C1217 C1216 1.399 . S
C1217 H1223 0.930 . S
H1218 C1198 0.931 . S
H1219 C1199 0.930 . S
H1220 C1207 0.931 . S
H1221 C1208 0.929 . S
H1222 C1216 0.929 . S
H1223 C1217 0.930 . S
Mn1224 O1229 2.095 . S
Mn1224 O1239 2.162 . S
Mn1224 O1240 2.297 . S
Mn1224 O1248 2.385 . S
Mn1224 O1249 2.209 . S
Mn1224 O1250 2.094 . S
Mn1225 O1230 2.121 . S
Mn1225 N1232 2.257 . S
Mn1225 N1241 2.282 . S
Mn1225 O1249 2.215 . S
Mn1225 O1251 2.117 . S
C1226 O1248 1.234 . S
C1226 O1249 1.283 . S
C1227 O1239 1.281 . S
C1227 O1240 1.236 . S
C1228 O1250 1.240 . S
C1228 O1251 1.264 . S
O1229 Mn1224 2.095 . S
O1229 C1238 1.250 . S
O1230 Mn1225 2.121 . S
O1230 C1238 1.258 . S
C1231 N1232 1.326 . S
C1231 C1235 1.460 . S
C1231 H1237 0.929 . S
N1232 Mn1225 2.257 . S
N1232 C1231 1.326 . S
N1232 C1236 1.362 . S
C1233 C1234 1.258 . S
C1233 C1236 1.431 . S
C1233 C1253 1.449 . S
C1234 C1233 1.258 . S
C1234 C1235 1.477 . S
C1234 H1254 0.931 . S
C1235 C1231 1.460 . S
C1235 C1234 1.477 . S
C1235 H1255 0.930 . S
C1236 N1232 1.362 . S
C1236 C1233 1.431 . S
C1236 C1246 1.476 . S
H1237 C1231 0.929 . S
C1238 O1229 1.250 . S
C1238 O1230 1.258 . S
O1239 Mn1224 2.162 . S
O1239 C1227 1.281 . S
O1240 Mn1224 2.297 . S
O1240 C1227 1.236 . S
N1241 Mn1225 2.282 . S
N1241 C1242 1.328 . S
N1241 C1246 1.318 . S
C1242 N1241 1.328 . S
C1242 C1243 1.457 . S
C1242 H1247 0.929 . S
C1243 C1242 1.457 . S
C1243 C1244 1.291 . S
C1243 H1256 0.931 . S
C1244 C1243 1.291 . S
C1244 C1245 1.373 . S
C1244 H1257 0.929 . S
C1245 C1244 1.373 . S
C1245 C1246 1.396 . S
C1245 C1252 1.403 . S
C1246 C1236 1.476 . S
C1246 N1241 1.318 . S
C1246 C1245 1.396 . S
H1247 C1242 0.929 . S
O1248 Mn1224 2.385 . S
O1248 C1226 1.234 . S
O1249 Mn1224 2.209 . S
O1249 Mn1225 2.215 . S
O1249 C1226 1.283 . S
O1250 Mn1224 2.094 . S
O1250 C1228 1.240 . S
O1251 Mn1225 2.117 . S
O1251 C1228 1.264 . S
C1252 C1245 1.403 . S
C1252 C1253 1.399 . S
C1252 H1258 0.929 . S
C1253 C1233 1.449 . S
C1253 C1252 1.399 . S
C1253 H1259 0.930 . S
H1254 C1234 0.931 . S
H1255 C1235 0.930 . S
H1256 C1243 0.931 . S
H1257 C1244 0.929 . S
H1258 C1252 0.929 . S
H1259 C1253 0.930 . S
Mn1260 O1265 2.095 . S
Mn1260 O1275 2.162 . S
Mn1260 O1276 2.297 . S
Mn1260 O1284 2.385 . S
Mn1260 O1285 2.209 . S
Mn1260 O1286 2.094 . S
Mn1261 O1266 2.121 . S
Mn1261 N1268 2.257 . S
Mn1261 N1277 2.282 . S
Mn1261 O1285 2.215 . S
Mn1261 O1287 2.117 . S
C1262 O1284 1.234 . S
C1262 O1285 1.283 . S
C1263 O1275 1.281 . S
C1263 O1276 1.236 . S
C1264 O1286 1.240 . S
C1264 O1287 1.264 . S
O1265 Mn1260 2.095 . S
O1265 C1274 1.250 . S
O1266 Mn1261 2.121 . S
O1266 C1274 1.258 . S
C1267 N1268 1.326 . S
C1267 C1271 1.460 . S
C1267 H1273 0.929 . S
N1268 Mn1261 2.257 . S
N1268 C1267 1.326 . S
N1268 C1272 1.362 . S
C1269 C1270 1.258 . S
C1269 C1272 1.431 . S
C1269 C1289 1.449 . S
C1270 C1269 1.258 . S
C1270 C1271 1.477 . S
C1270 H1290 0.931 . S
C1271 C1267 1.460 . S
C1271 C1270 1.477 . S
C1271 H1291 0.930 . S
C1272 N1268 1.362 . S
C1272 C1269 1.431 . S
C1272 C1282 1.476 . S
H1273 C1267 0.929 . S
C1274 O1265 1.250 . S
C1274 O1266 1.258 . S
O1275 Mn1260 2.162 . S
O1275 C1263 1.281 . S
O1276 Mn1260 2.297 . S
O1276 C1263 1.236 . S
N1277 Mn1261 2.282 . S
N1277 C1278 1.328 . S
N1277 C1282 1.318 . S
C1278 N1277 1.328 . S
C1278 C1279 1.457 . S
C1278 H1283 0.929 . S
C1279 C1278 1.457 . S
C1279 C1280 1.291 . S
C1279 H1292 0.931 . S
C1280 C1279 1.291 . S
C1280 C1281 1.373 . S
C1280 H1293 0.929 . S
C1281 C1280 1.373 . S
C1281 C1282 1.396 . S
C1281 C1288 1.403 . S
C1282 C1272 1.476 . S
C1282 N1277 1.318 . S
C1282 C1281 1.396 . S
H1283 C1278 0.929 . S
O1284 Mn1260 2.385 . S
O1284 C1262 1.234 . S
O1285 Mn1260 2.209 . S
O1285 Mn1261 2.215 . S
O1285 C1262 1.283 . S
O1286 Mn1260 2.094 . S
O1286 C1264 1.240 . S
O1287 Mn1261 2.117 . S
O1287 C1264 1.264 . S
C1288 C1281 1.403 . S
C1288 C1289 1.399 . S
C1288 H1294 0.929 . S
C1289 C1269 1.449 . S
C1289 C1288 1.399 . S
C1289 H1295 0.930 . S
H1290 C1270 0.931 . S
H1291 C1271 0.930 . S
H1292 C1279 0.931 . S
H1293 C1280 0.929 . S
H1294 C1288 0.929 . S
H1295 C1289 0.930 . S
H1296 C1304 0.950 . S
H1297 C1309 0.950 . S
H1298 C1306 0.950 . S
H1299 C1308 0.950 . S
H1300 C1310 0.950 . S
H1301 C1312 0.950 . S
H1302 C1314 0.950 . S
H1303 C1315 0.950 . S
C1304 H1296 0.950 . S
C1304 C1305 1.386 . S
C1304 C1306 1.391 . S
C1305 C1304 1.386 . S
C1305 C1309 1.393 . S
C1306 H1298 0.950 . S
C1306 C1304 1.391 . S
C1306 C1307 1.400 . S
C1307 C1306 1.400 . S
C1307 C1308 1.398 . S
C1307 C1313 1.491 . S
C1308 H1299 0.950 . S
C1308 C1307 1.398 . S
C1308 C1309 1.391 . S
C1309 H1297 0.950 . S
C1309 C1305 1.393 . S
C1309 C1308 1.391 . S
C1310 H1300 0.950 . S
C1310 C1311 1.386 . S
C1310 C1312 1.391 . S
C1311 C1310 1.386 . S
C1311 C1315 1.393 . S
C1312 H1301 0.950 . S
C1312 C1310 1.391 . S
C1312 C1313 1.400 . S
C1313 C1307 1.491 . S
C1313 C1312 1.400 . S
C1313 C1314 1.398 . S
C1314 H1302 0.950 . S
C1314 C1313 1.398 . S
C1314 C1315 1.391 . S
C1315 H1303 0.950 . S
C1315 C1311 1.393 . S
C1315 C1314 1.391 . S
H1316 C1324 0.950 . S
H1317 C1329 0.950 . S
H1318 C1326 0.950 . S
H1319 C1328 0.950 . S
H1320 C1330 0.950 . S
H1321 C1332 0.950 . S
H1322 C1334 0.950 . S
H1323 C1335 0.950 . S
C1324 H1316 0.950 . S
C1324 C1325 1.386 . S
C1324 C1326 1.391 . S
C1325 C1324 1.386 . S
C1325 C1329 1.393 . S
C1326 H1318 0.950 . S
C1326 C1324 1.391 . S
C1326 C1327 1.400 . S
C1327 C1326 1.400 . S
C1327 C1328 1.398 . S
C1327 C1333 1.491 . S
C1328 H1319 0.950 . S
C1328 C1327 1.398 . S
C1328 C1329 1.391 . S
C1329 H1317 0.950 . S
C1329 C1325 1.393 . S
C1329 C1328 1.391 . S
C1330 H1320 0.950 . S
C1330 C1331 1.386 . S
C1330 C1332 1.391 . S
C1331 C1330 1.386 . S
C1331 C1335 1.393 . S
C1332 H1321 0.950 . S
C1332 C1330 1.391 . S
C1332 C1333 1.400 . S
C1333 C1327 1.491 . S
C1333 C1332 1.400 . S
C1333 C1334 1.398 . S
C1334 H1322 0.950 . S
C1334 C1333 1.398 . S
C1334 C1335 1.391 . S
C1335 H1323 0.950 . S
C1335 C1331 1.393 . S
C1335 C1334 1.391 . S
H1336 C1344 0.950 . S
H1337 C1349 0.950 . S
H1338 C1346 0.950 . S
H1339 C1348 0.950 . S
H1340 C1350 0.950 . S
H1341 C1352 0.950 . S
H1342 C1354 0.950 . S
H1343 C1355 0.950 . S
C1344 H1336 0.950 . S
C1344 C1345 1.386 . S
C1344 C1346 1.391 . S
C1345 C1344 1.386 . S
C1345 C1349 1.393 . S
C1346 H1338 0.950 . S
C1346 C1344 1.391 . S
C1346 C1347 1.400 . S
C1347 C1346 1.400 . S
C1347 C1348 1.398 . S
C1347 C1353 1.491 . S
C1348 H1339 0.950 . S
C1348 C1347 1.398 . S
C1348 C1349 1.391 . S
C1349 H1337 0.950 . S
C1349 C1345 1.393 . S
C1349 C1348 1.391 . S
C1350 H1340 0.950 . S
C1350 C1351 1.386 . S
C1350 C1352 1.391 . S
C1351 C1350 1.386 . S
C1351 C1355 1.393 . S
C1352 H1341 0.950 . S
C1352 C1350 1.391 . S
C1352 C1353 1.400 . S
C1353 C1347 1.491 . S
C1353 C1352 1.400 . S
C1353 C1354 1.398 . S
C1354 H1342 0.950 . S
C1354 C1353 1.398 . S
C1354 C1355 1.391 . S
C1355 H1343 0.950 . S
C1355 C1351 1.393 . S
C1355 C1354 1.391 . S
H1356 C1364 0.950 . S
H1357 C1369 0.950 . S
H1358 C1366 0.950 . S
H1359 C1368 0.950 . S
H1360 C1370 0.950 . S
H1361 C1372 0.950 . S
H1362 C1374 0.950 . S
H1363 C1375 0.950 . S
C1364 H1356 0.950 . S
C1364 C1365 1.386 . S
C1364 C1366 1.391 . S
C1365 C1364 1.386 . S
C1365 C1369 1.393 . S
C1366 H1358 0.950 . S
C1366 C1364 1.391 . S
C1366 C1367 1.400 . S
C1367 C1366 1.400 . S
C1367 C1368 1.398 . S
C1367 C1373 1.491 . S
C1368 H1359 0.950 . S
C1368 C1367 1.398 . S
C1368 C1369 1.391 . S
C1369 H1357 0.950 . S
C1369 C1365 1.393 . S
C1369 C1368 1.391 . S
C1370 H1360 0.950 . S
C1370 C1371 1.386 . S
C1370 C1372 1.391 . S
C1371 C1370 1.386 . S
C1371 C1375 1.393 . S
C1372 H1361 0.950 . S
C1372 C1370 1.391 . S
C1372 C1373 1.400 . S
C1373 C1367 1.491 . S
C1373 C1372 1.400 . S
C1373 C1374 1.398 . S
C1374 H1362 0.950 . S
C1374 C1373 1.398 . S
C1374 C1375 1.391 . S
C1375 H1363 0.950 . S
C1375 C1371 1.393 . S
C1375 C1374 1.391 . S
H1376 C1384 0.950 . S
H1377 C1389 0.950 . S
H1378 C1386 0.950 . S
H1379 C1388 0.950 . S
H1380 C1390 0.950 . S
H1381 C1392 0.950 . S
H1382 C1394 0.950 . S
H1383 C1395 0.950 . S
C1384 H1376 0.950 . S
C1384 C1385 1.386 . S
C1384 C1386 1.391 . S
C1385 C1384 1.386 . S
C1385 C1389 1.393 . S
C1386 H1378 0.950 . S
C1386 C1384 1.391 . S
C1386 C1387 1.400 . S
C1387 C1386 1.400 . S
C1387 C1388 1.398 . S
C1387 C1393 1.491 . S
C1388 H1379 0.950 . S
C1388 C1387 1.398 . S
C1388 C1389 1.391 . S
C1389 H1377 0.950 . S
C1389 C1385 1.393 . S
C1389 C1388 1.391 . S
C1390 H1380 0.950 . S
C1390 C1391 1.386 . S
C1390 C1392 1.391 . S
C1391 C1390 1.386 . S
C1391 C1395 1.393 . S
C1392 H1381 0.950 . S
C1392 C1390 1.391 . S
C1392 C1393 1.400 . S
C1393 C1387 1.491 . S
C1393 C1392 1.400 . S
C1393 C1394 1.398 . S
C1394 H1382 0.950 . S
C1394 C1393 1.398 . S
C1394 C1395 1.391 . S
C1395 H1383 0.950 . S
C1395 C1391 1.393 . S
C1395 C1394 1.391 . S
H1396 C1404 0.950 . S
H1397 C1409 0.950 . S
H1398 C1406 0.950 . S
H1399 C1408 0.950 . S
H1400 C1410 0.950 . S
H1401 C1412 0.950 . S
H1402 C1414 0.950 . S
H1403 C1415 0.950 . S
C1404 H1396 0.950 . S
C1404 C1405 1.386 . S
C1404 C1406 1.391 . S
C1405 C1404 1.386 . S
C1405 C1409 1.393 . S
C1406 H1398 0.950 . S
C1406 C1404 1.391 . S
C1406 C1407 1.400 . S
C1407 C1406 1.400 . S
C1407 C1408 1.398 . S
C1407 C1413 1.491 . S
C1408 H1399 0.950 . S
C1408 C1407 1.398 . S
C1408 C1409 1.391 . S
C1409 H1397 0.950 . S
C1409 C1405 1.393 . S
C1409 C1408 1.391 . S
C1410 H1400 0.950 . S
C1410 C1411 1.386 . S
C1410 C1412 1.391 . S
C1411 C1410 1.386 . S
C1411 C1415 1.393 . S
C1412 H1401 0.950 . S
C1412 C1410 1.391 . S
C1412 C1413 1.400 . S
C1413 C1407 1.491 . S
C1413 C1412 1.400 . S
C1413 C1414 1.398 . S
C1414 H1402 0.950 . S
C1414 C1413 1.398 . S
C1414 C1415 1.391 . S
C1415 H1403 0.950 . S
C1415 C1411 1.393 . S
C1415 C1414 1.391 . S
H1416 C1424 0.950 . S
H1417 C1429 0.950 . S
H1418 C1426 0.950 . S
H1419 C1428 0.950 . S
H1420 C1430 0.950 . S
H1421 C1432 0.950 . S
H1422 C1434 0.950 . S
H1423 C1435 0.950 . S
C1424 H1416 0.950 . S
C1424 C1425 1.386 . S
C1424 C1426 1.391 . S
C1425 C1424 1.386 . S
C1425 C1429 1.393 . S
C1426 H1418 0.950 . S
C1426 C1424 1.391 . S
C1426 C1427 1.400 . S
C1427 C1426 1.400 . S
C1427 C1428 1.398 . S
C1427 C1433 1.491 . S
C1428 H1419 0.950 . S
C1428 C1427 1.398 . S
C1428 C1429 1.391 . S
C1429 H1417 0.950 . S
C1429 C1425 1.393 . S
C1429 C1428 1.391 . S
C1430 H1420 0.950 . S
C1430 C1431 1.386 . S
C1430 C1432 1.391 . S
C1431 C1430 1.386 . S
C1431 C1435 1.393 . S
C1432 H1421 0.950 . S
C1432 C1430 1.391 . S
C1432 C1433 1.400 . S
C1433 C1427 1.491 . S
C1433 C1432 1.400 . S
C1433 C1434 1.398 . S
C1434 H1422 0.950 . S
C1434 C1433 1.398 . S
C1434 C1435 1.391 . S
C1435 H1423 0.950 . S
C1435 C1431 1.393 . S
C1435 C1434 1.391 . S
H1436 C1444 0.950 . S
H1437 C1449 0.950 . S
H1438 C1446 0.950 . S
H1439 C1448 0.950 . S
H1440 C1450 0.950 . S
H1441 C1452 0.950 . S
H1442 C1454 0.950 . S
H1443 C1455 0.950 . S
C1444 H1436 0.950 . S
C1444 C1445 1.386 . S
C1444 C1446 1.391 . S
C1445 C1444 1.386 . S
C1445 C1449 1.393 . S
C1446 H1438 0.950 . S
C1446 C1444 1.391 . S
C1446 C1447 1.400 . S
C1447 C1446 1.400 . S
C1447 C1448 1.398 . S
C1447 C1453 1.491 . S
C1448 H1439 0.950 . S
C1448 C1447 1.398 . S
C1448 C1449 1.391 . S
C1449 H1437 0.950 . S
C1449 C1445 1.393 . S
C1449 C1448 1.391 . S
C1450 H1440 0.950 . S
C1450 C1451 1.386 . S
C1450 C1452 1.391 . S
C1451 C1450 1.386 . S
C1451 C1455 1.393 . S
C1452 H1441 0.950 . S
C1452 C1450 1.391 . S
C1452 C1453 1.400 . S
C1453 C1447 1.491 . S
C1453 C1452 1.400 . S
C1453 C1454 1.398 . S
C1454 H1442 0.950 . S
C1454 C1453 1.398 . S
C1454 C1455 1.391 . S
C1455 H1443 0.950 . S
C1455 C1451 1.393 . S
C1455 C1454 1.391 . S
H1456 C1464 0.950 . S
H1457 C1469 0.950 . S
H1458 C1466 0.950 . S
H1459 C1468 0.950 . S
H1460 C1470 0.950 . S
H1461 C1472 0.950 . S
H1462 C1474 0.950 . S
H1463 C1475 0.950 . S
C1464 H1456 0.950 . S
C1464 C1465 1.386 . S
C1464 C1466 1.391 . S
C1465 C1464 1.386 . S
C1465 C1469 1.393 . S
C1466 H1458 0.950 . S
C1466 C1464 1.391 . S
C1466 C1467 1.400 . S
C1467 C1466 1.400 . S
C1467 C1468 1.398 . S
C1467 C1473 1.491 . S
C1468 H1459 0.950 . S
C1468 C1467 1.398 . S
C1468 C1469 1.391 . S
C1469 H1457 0.950 . S
C1469 C1465 1.393 . S
C1469 C1468 1.391 . S
C1470 H1460 0.950 . S
C1470 C1471 1.386 . S
C1470 C1472 1.391 . S
C1471 C1470 1.386 . S
C1471 C1475 1.393 . S
C1472 H1461 0.950 . S
C1472 C1470 1.391 . S
C1472 C1473 1.400 . S
C1473 C1467 1.491 . S
C1473 C1472 1.400 . S
C1473 C1474 1.398 . S
C1474 H1462 0.950 . S
C1474 C1473 1.398 . S
C1474 C1475 1.391 . S
C1475 H1463 0.950 . S
C1475 C1471 1.393 . S
C1475 C1474 1.391 . S
H1476 C1484 0.950 . S
H1477 C1489 0.950 . S
H1478 C1486 0.950 . S
H1479 C1488 0.950 . S
H1480 C1490 0.950 . S
H1481 C1492 0.950 . S
H1482 C1494 0.950 . S
H1483 C1495 0.950 . S
C1484 H1476 0.950 . S
C1484 C1485 1.386 . S
C1484 C1486 1.391 . S
C1485 C1484 1.386 . S
C1485 C1489 1.393 . S
C1486 H1478 0.950 . S
C1486 C1484 1.391 . S
C1486 C1487 1.400 . S
C1487 C1486 1.400 . S
C1487 C1488 1.398 . S
C1487 C1493 1.491 . S
C1488 H1479 0.950 . S
C1488 C1487 1.398 . S
C1488 C1489 1.391 . S
C1489 H1477 0.950 . S
C1489 C1485 1.393 . S
C1489 C1488 1.391 . S
C1490 H1480 0.950 . S
C1490 C1491 1.386 . S
C1490 C1492 1.391 . S
C1491 C1490 1.386 . S
C1491 C1495 1.393 . S
C1492 H1481 0.950 . S
C1492 C1490 1.391 . S
C1492 C1493 1.400 . S
C1493 C1487 1.491 . S
C1493 C1492 1.400 . S
C1493 C1494 1.398 . S
C1494 H1482 0.950 . S
C1494 C1493 1.398 . S
C1494 C1495 1.391 . S
C1495 H1483 0.950 . S
C1495 C1491 1.393 . S
C1495 C1494 1.391 . S
H1496 C1504 0.950 . S
H1497 C1509 0.950 . S
H1498 C1506 0.950 . S
H1499 C1508 0.950 . S
H1500 C1510 0.950 . S
H1501 C1512 0.950 . S
H1502 C1514 0.950 . S
H1503 C1515 0.950 . S
C1504 H1496 0.950 . S
C1504 C1505 1.386 . S
C1504 C1506 1.391 . S
C1505 C1504 1.386 . S
C1505 C1509 1.393 . S
C1506 H1498 0.950 . S
C1506 C1504 1.391 . S
C1506 C1507 1.400 . S
C1507 C1506 1.400 . S
C1507 C1508 1.398 . S
C1507 C1513 1.491 . S
C1508 H1499 0.950 . S
C1508 C1507 1.398 . S
C1508 C1509 1.391 . S
C1509 H1497 0.950 . S
C1509 C1505 1.393 . S
C1509 C1508 1.391 . S
C1510 H1500 0.950 . S
C1510 C1511 1.386 . S
C1510 C1512 1.391 . S
C1511 C1510 1.386 . S
C1511 C1515 1.393 . S
C1512 H1501 0.950 . S
C1512 C1510 1.391 . S
C1512 C1513 1.400 . S
C1513 C1507 1.491 . S
C1513 C1512 1.400 . S
C1513 C1514 1.398 . S
C1514 H1502 0.950 . S
C1514 C1513 1.398 . S
C1514 C1515 1.391 . S
C1515 H1503 0.950 . S
C1515 C1511 1.393 . S
C1515 C1514 1.391 . S
H1516 C1524 0.950 . S
H1517 C1529 0.950 . S
H1518 C1526 0.950 . S
H1519 C1528 0.950 . S
H1520 C1530 0.950 . S
H1521 C1532 0.950 . S
H1522 C1534 0.950 . S
H1523 C1535 0.950 . S
C1524 H1516 0.950 . S
C1524 C1525 1.386 . S
C1524 C1526 1.391 . S
C1525 C1524 1.386 . S
C1525 C1529 1.393 . S
C1526 H1518 0.950 . S
C1526 C1524 1.391 . S
C1526 C1527 1.400 . S
C1527 C1526 1.400 . S
C1527 C1528 1.398 . S
C1527 C1533 1.491 . S
C1528 H1519 0.950 . S
C1528 C1527 1.398 . S
C1528 C1529 1.391 . S
C1529 H1517 0.950 . S
C1529 C1525 1.393 . S
C1529 C1528 1.391 . S
C1530 H1520 0.950 . S
C1530 C1531 1.386 . S
C1530 C1532 1.391 . S
C1531 C1530 1.386 . S
C1531 C1535 1.393 . S
C1532 H1521 0.950 . S
C1532 C1530 1.391 . S
C1532 C1533 1.400 . S
C1533 C1527 1.491 . S
C1533 C1532 1.400 . S
C1533 C1534 1.398 . S
C1534 H1522 0.950 . S
C1534 C1533 1.398 . S
C1534 C1535 1.391 . S
C1535 H1523 0.950 . S
C1535 C1531 1.393 . S
C1535 C1534 1.391 . S
H1536 C1544 0.950 . S
H1537 C1549 0.950 . S
H1538 C1546 0.950 . S
H1539 C1548 0.950 . S
H1540 C1550 0.950 . S
H1541 C1552 0.950 . S
H1542 C1554 0.950 . S
H1543 C1555 0.950 . S
C1544 H1536 0.950 . S
C1544 C1545 1.386 . S
C1544 C1546 1.391 . S
C1545 C1544 1.386 . S
C1545 C1549 1.393 . S
C1546 H1538 0.950 . S
C1546 C1544 1.391 . S
C1546 C1547 1.400 . S
C1547 C1546 1.400 . S
C1547 C1548 1.398 . S
C1547 C1553 1.491 1_455 S
C1548 H1539 0.950 . S
C1548 C1547 1.398 . S
C1548 C1549 1.391 . S
C1549 H1537 0.950 . S
C1549 C1545 1.393 . S
C1549 C1548 1.391 . S
C1550 H1540 0.950 . S
C1550 C1551 1.386 . S
C1550 C1552 1.391 . S
C1551 C1550 1.386 . S
C1551 C1555 1.393 . S
C1552 H1541 0.950 . S
C1552 C1550 1.391 . S
C1552 C1553 1.400 . S
C1553 C1547 1.491 1_655 S
C1553 C1552 1.400 . S
C1553 C1554 1.398 . S
C1554 H1542 0.950 . S
C1554 C1553 1.398 . S
C1554 C1555 1.391 . S
C1555 H1543 0.950 . S
C1555 C1551 1.393 . S
C1555 C1554 1.391 . S
H1556 C1564 0.950 . S
H1557 C1569 0.950 . S
H1558 C1566 0.950 . S
H1559 C1568 0.950 . S
H1560 C1570 0.950 . S
H1561 C1572 0.950 . S
H1562 C1574 0.950 . S
H1563 C1575 0.950 . S
C1564 H1556 0.950 . S
C1564 C1565 1.386 . S
C1564 C1566 1.391 . S
C1565 C1564 1.386 . S
C1565 C1569 1.393 . S
C1566 H1558 0.950 . S
C1566 C1564 1.391 . S
C1566 C1567 1.400 . S
C1567 C1566 1.400 . S
C1567 C1568 1.398 . S
C1567 C1573 1.491 . S
C1568 H1559 0.950 . S
C1568 C1567 1.398 . S
C1568 C1569 1.391 . S
C1569 H1557 0.950 . S
C1569 C1565 1.393 . S
C1569 C1568 1.391 . S
C1570 H1560 0.950 . S
C1570 C1571 1.386 . S
C1570 C1572 1.391 . S
C1571 C1570 1.386 . S
C1571 C1575 1.393 . S
C1572 H1561 0.950 . S
C1572 C1570 1.391 . S
C1572 C1573 1.400 . S
C1573 C1567 1.491 . S
C1573 C1572 1.400 . S
C1573 C1574 1.398 . S
C1574 H1562 0.950 . S
C1574 C1573 1.398 . S
C1574 C1575 1.391 . S
C1575 H1563 0.950 . S
C1575 C1571 1.393 . S
C1575 C1574 1.391 . S
H1576 C1584 0.950 . S
H1577 C1589 0.950 . S
H1578 C1586 0.950 1_565 S
H1579 C1588 0.950 . S
H1580 C1590 0.950 . S
H1581 C1592 0.950 1_545 S
H1582 C1594 0.950 . S
H1583 C1595 0.950 . S
C1584 H1576 0.950 . S
C1584 C1585 1.386 . S
C1584 C1586 1.391 . S
C1585 C1584 1.386 . S
C1585 C1589 1.393 . S
C1586 H1578 0.950 1_545 S
C1586 C1584 1.391 . S
C1586 C1587 1.400 . S
C1587 C1586 1.400 . S
C1587 C1588 1.398 . S
C1587 C1593 1.491 1_545 S
C1588 H1579 0.950 . S
C1588 C1587 1.398 . S
C1588 C1589 1.391 . S
C1589 H1577 0.950 . S
C1589 C1585 1.393 . S
C1589 C1588 1.391 . S
C1590 H1580 0.950 . S
C1590 C1591 1.386 . S
C1590 C1592 1.391 . S
C1591 C1590 1.386 . S
C1591 C1595 1.393 . S
C1592 H1581 0.950 1_565 S
C1592 C1590 1.391 . S
C1592 C1593 1.400 . S
C1593 C1587 1.491 1_565 S
C1593 C1592 1.400 . S
C1593 C1594 1.398 . S
C1594 H1582 0.950 . S
C1594 C1593 1.398 . S
C1594 C1595 1.391 . S
C1595 H1583 0.950 . S
C1595 C1591 1.393 . S
C1595 C1594 1.391 . S
H1596 C1604 0.950 . S
H1597 C1609 0.950 . S
H1598 C1606 0.950 1_556 S
H1599 C1608 0.950 1_545 S
H1600 C1610 0.950 . S
H1601 C1612 0.950 1_554 S
H1602 C1614 0.950 1_565 S
H1603 C1615 0.950 . S
C1604 H1596 0.950 . S
C1604 C1605 1.386 . S
C1604 C1606 1.391 . S
C1605 C1604 1.386 . S
C1605 C1609 1.393 . S
C1606 H1598 0.950 1_554 S
C1606 C1604 1.391 . S
C1606 C1607 1.400 . S
C1607 C1606 1.400 . S
C1607 C1608 1.398 . S
C1607 C1613 1.491 1_564 S
C1608 H1599 0.950 1_565 S
C1608 C1607 1.398 . S
C1608 C1609 1.391 . S
C1609 H1597 0.950 . S
C1609 C1605 1.393 . S
C1609 C1608 1.391 . S
C1610 H1600 0.950 . S
C1610 C1611 1.386 . S
C1610 C1612 1.391 . S
C1611 C1610 1.386 . S
C1611 C1615 1.393 . S
C1612 H1601 0.950 1_556 S
C1612 C1610 1.391 . S
C1612 C1613 1.400 . S
C1613 C1607 1.491 1_546 S
C1613 C1612 1.400 . S
C1613 C1614 1.398 . S
C1614 H1602 0.950 1_545 S
C1614 C1613 1.398 . S
C1614 C1615 1.391 . S
C1615 H1603 0.950 . S
C1615 C1611 1.393 . S
C1615 C1614 1.391 . S
H1616 C1624 0.950 . S
H1617 C1629 0.950 . S
H1618 C1626 0.950 . S
H1619 C1628 0.950 1_554 S
H1620 C1630 0.950 . S
H1621 C1632 0.950 . S
H1622 C1634 0.950 1_556 S
H1623 C1635 0.950 . S
C1624 H1616 0.950 . S
C1624 C1625 1.386 . S
C1624 C1626 1.391 1_655 S
C1625 C1624 1.386 . S
C1625 C1629 1.393 . S
C1626 H1618 0.950 . S
C1626 C1624 1.391 1_455 S
C1626 C1627 1.400 1_455 S
C1627 C1626 1.400 1_655 S
C1627 C1628 1.398 . S
C1627 C1633 1.491 1_656 S
C1628 H1619 0.950 1_556 S
C1628 C1627 1.398 . S
C1628 C1629 1.391 . S
C1629 H1617 0.950 . S
C1629 C1625 1.393 . S
C1629 C1628 1.391 . S
C1630 H1620 0.950 . S
C1630 C1631 1.386 . S
C1630 C1632 1.391 1_455 S
C1631 C1630 1.386 . S
C1631 C1635 1.393 . S
C1632 H1621 0.950 . S
C1632 C1630 1.391 1_655 S
C1632 C1633 1.400 1_655 S
C1633 C1627 1.491 1_454 S
C1633 C1632 1.400 1_455 S
C1633 C1634 1.398 . S
C1634 H1622 0.950 1_554 S
C1634 C1633 1.398 . S
C1634 C1635 1.391 . S
C1635 H1623 0.950 . S
C1635 C1631 1.393 . S
C1635 C1634 1.391 . S
H1636 C1644 0.950 . S
H1637 C1649 0.950 . S
H1638 C1646 0.950 1_554 S
H1639 C1648 0.950 . S
H1640 C1650 0.950 . S
H1641 C1652 0.950 1_556 S
H1642 C1654 0.950 . S
H1643 C1655 0.950 . S
C1644 H1636 0.950 . S
C1644 C1645 1.386 . S
C1644 C1646 1.391 . S
C1645 C1644 1.386 . S
C1645 C1649 1.393 . S
C1646 H1638 0.950 1_556 S
C1646 C1644 1.391 . S
C1646 C1647 1.400 . S
C1647 C1646 1.400 . S
C1647 C1648 1.398 . S
C1647 C1653 1.491 1_556 S
C1648 H1639 0.950 . S
C1648 C1647 1.398 . S
C1648 C1649 1.391 . S
C1649 H1637 0.950 . S
C1649 C1645 1.393 . S
C1649 C1648 1.391 . S
C1650 H1640 0.950 . S
C1650 C1651 1.386 . S
C1650 C1652 1.391 . S
C1651 C1650 1.386 . S
C1651 C1655 1.393 . S
C1652 H1641 0.950 1_554 S
C1652 C1650 1.391 . S
C1652 C1653 1.400 . S
C1653 C1647 1.491 1_554 S
C1653 C1652 1.400 . S
C1653 C1654 1.398 . S
C1654 H1642 0.950 . S
C1654 C1653 1.398 . S
C1654 C1655 1.391 . S
C1655 H1643 0.950 . S
C1655 C1651 1.393 . S
C1655 C1654 1.391 . S
H1656 C1664 0.950 . S
H1657 C1669 0.950 . S
H1658 C1666 0.950 . S
H1659 C1668 0.950 . S
H1660 C1670 0.950 . S
H1661 C1672 0.950 1_545 S
H1662 C1674 0.950 . S
H1663 C1675 0.950 . S
C1664 H1656 0.950 . S
C1664 C1665 1.386 . S
C1664 C1666 1.391 1_545 S
C1665 C1664 1.386 . S
C1665 C1669 1.393 . S
C1666 H1658 0.950 . S
C1666 C1664 1.391 1_565 S
C1666 C1667 1.400 . S
C1667 C1666 1.400 . S
C1667 C1668 1.398 1_565 S
C1667 C1673 1.491 . S
C1668 H1659 0.950 . S
C1668 C1667 1.398 1_545 S
C1668 C1669 1.391 . S
C1669 H1657 0.950 . S
C1669 C1665 1.393 . S
C1669 C1668 1.391 . S
C1670 H1660 0.950 . S
C1670 C1671 1.386 . S
C1670 C1672 1.391 . S
C1671 C1670 1.386 . S
C1671 C1675 1.393 . S
C1672 H1661 0.950 1_565 S
C1672 C1670 1.391 . S
C1672 C1673 1.400 . S
C1673 C1667 1.491 . S
C1673 C1672 1.400 . S
C1673 C1674 1.398 . S
C1674 H1662 0.950 . S
C1674 C1673 1.398 . S
C1674 C1675 1.391 . S
C1675 H1663 0.950 . S
C1675 C1671 1.393 . S
C1675 C1674 1.391 . S
H1676 C1684 0.950 . S
H1677 C1689 0.950 . S
H1678 C1686 0.950 . S
H1679 C1688 0.950 1_655 S
H1680 C1690 0.950 . S
H1681 C1692 0.950 . S
H1682 C1694 0.950 . S
H1683 C1695 0.932 1_455 S
C1684 H1676 0.950 . S
C1684 C1685 1.386 . S
C1684 C1686 1.391 . S
C1685 C1684 1.386 . S
C1685 C1689 1.393 . S
C1686 H1678 0.950 . S
C1686 C1684 1.391 . S
C1686 C1687 1.400 . S
C1687 C1686 1.400 . S
C1687 C1688 1.398 . S
C1687 C1693 1.491 . S
C1688 H1679 0.950 1_455 S
C1688 C1687 1.398 . S
C1688 C1689 1.391 . S
C1689 H1677 0.950 . S
C1689 C1685 1.393 . S
C1689 C1688 1.391 . S
C1690 H1680 0.950 . S
C1690 C1691 1.386 . S
C1690 C1692 1.391 . S
C1691 C1690 1.386 . S
C1691 C1695 1.412 . S
C1692 H1681 0.950 . S
C1692 C1690 1.391 . S
C1692 C1693 1.400 1_655 S
C1693 C1687 1.491 . S
C1693 C1692 1.400 1_455 S
C1693 C1694 1.398 . S
C1694 H1682 0.950 . S
C1694 C1693 1.398 . S
C1694 C1695 1.391 1_455 S
C1695 H1683 0.932 1_655 S
C1695 C1691 1.412 . S
C1695 C1694 1.391 1_655 S
H1696 C1704 0.950 . S
H1697 C1709 0.950 . S
H1698 C1706 0.950 . S
H1699 C1708 0.950 . S
H1700 C1710 0.950 . S
H1701 C1712 0.950 . S
H1702 C1714 0.950 . S
H1703 C1715 0.950 . S
C1704 H1696 0.950 . S
C1704 C1705 1.386 . S
C1704 C1706 1.391 . S
C1705 C1704 1.386 . S
C1705 C1709 1.393 . S
C1706 H1698 0.950 . S
C1706 C1704 1.391 . S
C1706 C1707 1.400 . S
C1707 C1706 1.400 . S
C1707 C1708 1.398 . S
C1707 C1713 1.491 . S
C1708 H1699 0.950 . S
C1708 C1707 1.398 . S
C1708 C1709 1.391 . S
C1709 H1697 0.950 . S
C1709 C1705 1.393 . S
C1709 C1708 1.391 . S
C1710 H1700 0.950 . S
C1710 C1711 1.386 . S
C1710 C1712 1.391 . S
C1711 C1710 1.386 . S
C1711 C1715 1.393 . S
C1712 H1701 0.950 . S
C1712 C1710 1.391 . S
C1712 C1713 1.400 . S
C1713 C1707 1.491 . S
C1713 C1712 1.400 . S
C1713 C1714 1.398 . S
C1714 H1702 0.950 . S
C1714 C1713 1.398 . S
C1714 C1715 1.391 . S
C1715 H1703 0.950 . S
C1715 C1711 1.393 . S
C1715 C1714 1.391 . S
H1716 C1724 0.950 . S
H1717 C1729 0.950 . S
H1718 C1726 0.950 . S
H1719 C1728 0.950 1_455 S
H1720 C1730 0.950 . S
H1721 C1732 0.950 . S
H1722 C1734 0.950 . S
H1723 C1735 0.950 1_655 S
C1724 H1716 0.950 . S
C1724 C1725 1.386 . S
C1724 C1726 1.391 . S
C1725 C1724 1.386 . S
C1725 C1729 1.393 . S
C1726 H1718 0.950 . S
C1726 C1724 1.391 . S
C1726 C1727 1.400 . S
C1727 C1726 1.400 . S
C1727 C1728 1.398 . S
C1727 C1733 1.491 . S
C1728 H1719 0.950 1_655 S
C1728 C1727 1.398 . S
C1728 C1729 1.391 . S
C1729 H1717 0.950 . S
C1729 C1725 1.393 . S
C1729 C1728 1.391 . S
C1730 H1720 0.950 . S
C1730 C1731 1.386 . S
C1730 C1732 1.391 . S
C1731 C1730 1.386 . S
C1731 C1735 1.393 . S
C1732 H1721 0.950 . S
C1732 C1730 1.391 . S
C1732 C1733 1.400 1_455 S
C1733 C1727 1.491 . S
C1733 C1732 1.400 1_655 S
C1733 C1734 1.398 . S
C1734 H1722 0.950 . S
C1734 C1733 1.398 . S
C1734 C1735 1.391 1_655 S
C1735 H1723 0.950 1_455 S
C1735 C1731 1.393 . S
C1735 C1734 1.391 1_455 S
H1736 C1744 0.950 . S
H1737 C1749 0.950 . S
H1738 C1746 0.950 . S
H1739 C1748 0.950 . S
H1740 C1750 0.950 . S
H1741 C1752 0.950 . S
H1742 C1754 0.950 . S
H1743 C1755 0.950 . S
C1744 H1736 0.950 . S
C1744 C1745 1.386 . S
C1744 C1746 1.391 . S
C1745 C1744 1.386 . S
C1745 C1749 1.393 . S
C1746 H1738 0.950 . S
C1746 C1744 1.391 . S
C1746 C1747 1.400 . S
C1747 C1746 1.400 . S
C1747 C1748 1.398 . S
C1747 C1753 1.491 . S
C1748 H1739 0.950 . S
C1748 C1747 1.398 . S
C1748 C1749 1.391 . S
C1749 H1737 0.950 . S
C1749 C1745 1.393 . S
C1749 C1748 1.391 . S
C1750 H1740 0.950 . S
C1750 C1751 1.386 . S
C1750 C1752 1.391 . S
C1751 C1750 1.386 . S
C1751 C1755 1.393 . S
C1752 H1741 0.950 . S
C1752 C1750 1.391 . S
C1752 C1753 1.400 . S
C1753 C1747 1.491 . S
C1753 C1752 1.400 . S
C1753 C1754 1.398 . S
C1754 H1742 0.950 . S
C1754 C1753 1.398 . S
C1754 C1755 1.391 . S
C1755 H1743 0.950 . S
C1755 C1751 1.393 . S
C1755 C1754 1.391 . S
H1756 C1764 0.950 . S
H1757 C1769 0.950 . S
H1758 C1766 0.950 . S
H1759 C1768 0.950 1_565 S
H1760 C1770 0.950 . S
H1761 C1772 0.950 . S
H1762 C1774 0.950 . S
H1763 C1775 0.953 1_545 S
C1764 H1756 0.950 . S
C1764 C1765 1.386 . S
C1764 C1766 1.391 . S
C1765 C1764 1.386 . S
C1765 C1769 1.393 . S
C1766 H1758 0.950 . S
C1766 C1764 1.391 . S
C1766 C1767 1.400 . S
C1767 C1766 1.400 . S
C1767 C1768 1.398 . S
C1767 C1773 1.491 . S
C1768 H1759 0.950 1_545 S
C1768 C1767 1.398 . S
C1768 C1769 1.391 . S
C1769 H1757 0.950 . S
C1769 C1765 1.393 . S
C1769 C1768 1.391 . S
C1770 H1760 0.950 . S
C1770 C1771 1.386 . S
C1770 C1772 1.391 . S
C1771 C1770 1.386 . S
C1771 C1775 1.390 . S
C1772 H1761 0.950 . S
C1772 C1770 1.391 . S
C1772 C1773 1.400 1_565 S
C1773 C1767 1.491 . S
C1773 C1772 1.400 1_545 S
C1773 C1774 1.398 . S
C1774 H1762 0.950 . S
C1774 C1773 1.398 . S
C1774 C1775 1.391 1_545 S
C1775 H1763 0.953 1_565 S
C1775 C1771 1.390 . S
C1775 C1774 1.391 1_565 S
H1776 C1784 0.950 . S
H1777 C1789 0.950 . S
H1778 C1786 0.950 . S
H1779 C1788 0.950 . S
H1780 C1790 0.950 . S
H1781 C1792 0.950 . S
H1782 C1794 0.950 . S
H1783 C1795 0.950 . S
C1784 H1776 0.950 . S
C1784 C1785 1.386 . S
C1784 C1786 1.391 1_565 S
C1785 C1784 1.386 . S
C1785 C1789 1.393 . S
C1786 H1778 0.950 . S
C1786 C1784 1.391 1_545 S
C1786 C1787 1.400 . S
C1787 C1786 1.400 . S
C1787 C1788 1.398 1_545 S
C1787 C1793 1.491 . S
C1788 H1779 0.950 . S
C1788 C1787 1.398 1_565 S
C1788 C1789 1.391 . S
C1789 H1777 0.950 . S
C1789 C1785 1.393 . S
C1789 C1788 1.391 . S
C1790 H1780 0.950 . S
C1790 C1791 1.386 . S
C1790 C1792 1.391 . S
C1791 C1790 1.386 . S
C1791 C1795 1.393 . S
C1792 H1781 0.950 . S
C1792 C1790 1.391 . S
C1792 C1793 1.400 . S
C1793 C1787 1.491 . S
C1793 C1792 1.400 . S
C1793 C1794 1.398 . S
C1794 H1782 0.950 . S
C1794 C1793 1.398 . S
C1794 C1795 1.391 . S
C1795 H1783 0.950 . S
C1795 C1791 1.393 . S
C1795 C1794 1.391 . S
H1796 C1804 0.950 . S
H1797 C1809 0.950 . S
H1798 C1806 0.950 . S
H1799 C1808 0.950 . S
H1800 C1810 0.950 . S
H1801 C1812 0.950 . S
H1802 C1814 0.950 . S
H1803 C1815 0.950 . S
C1804 H1796 0.950 . S
C1804 C1805 1.386 . S
C1804 C1806 1.391 . S
C1805 C1804 1.386 . S
C1805 C1809 1.393 . S
C1806 H1798 0.950 . S
C1806 C1804 1.391 . S
C1806 C1807 1.400 . S
C1807 C1806 1.400 . S
C1807 C1808 1.398 . S
C1807 C1813 1.491 . S
C1808 H1799 0.950 . S
C1808 C1807 1.398 . S
C1808 C1809 1.391 . S
C1809 H1797 0.950 . S
C1809 C1805 1.393 . S
C1809 C1808 1.391 . S
C1810 H1800 0.950 . S
C1810 C1811 1.386 . S
C1810 C1812 1.391 . S
C1811 C1810 1.386 . S
C1811 C1815 1.393 . S
C1812 H1801 0.950 . S
C1812 C1810 1.391 . S
C1812 C1813 1.400 1_455 S
C1813 C1807 1.491 . S
C1813 C1812 1.400 1_655 S
C1813 C1814 1.398 . S
C1814 H1802 0.950 . S
C1814 C1813 1.398 . S
C1814 C1815 1.391 1_655 S
C1815 H1803 0.950 . S
C1815 C1811 1.393 . S
C1815 C1814 1.391 1_455 S
H1816 C1824 0.950 . S
H1817 C1829 0.950 . S
H1818 C1826 0.950 . S
H1819 C1828 0.950 . S
H1820 C1830 0.950 . S
H1821 C1832 0.950 . S
H1822 C1834 0.950 . S
H1823 C1835 0.950 . S
C1824 H1816 0.950 . S
C1824 C1825 1.386 . S
C1824 C1826 1.391 . S
C1825 C1824 1.386 . S
C1825 C1829 1.393 . S
C1826 H1818 0.950 . S
C1826 C1824 1.391 . S
C1826 C1827 1.400 . S
C1827 C1826 1.400 . S
C1827 C1828 1.398 . S
C1827 C1833 1.491 . S
C1828 H1819 0.950 . S
C1828 C1827 1.398 . S
C1828 C1829 1.391 . S
C1829 H1817 0.950 . S
C1829 C1825 1.393 . S
C1829 C1828 1.391 . S
C1830 H1820 0.950 . S
C1830 C1831 1.386 . S
C1830 C1832 1.391 . S
C1831 C1830 1.386 . S
C1831 C1835 1.393 . S
C1832 H1821 0.950 . S
C1832 C1830 1.391 . S
C1832 C1833 1.400 . S
C1833 C1827 1.491 . S
C1833 C1832 1.400 . S
C1833 C1834 1.398 . S
C1834 H1822 0.950 . S
C1834 C1833 1.398 . S
C1834 C1835 1.391 . S
C1835 H1823 0.950 . S
C1835 C1831 1.393 . S
C1835 C1834 1.391 . S
H1836 C1844 0.950 . S
H1837 C1849 0.950 . S
H1838 C1846 0.950 . S
H1839 C1848 0.950 . S
H1840 C1850 0.950 . S
H1841 C1852 0.950 1_655 S
H1842 C1854 0.950 . S
H1843 C1855 0.950 . S
C1844 H1836 0.950 . S
C1844 C1845 1.386 . S
C1844 C1846 1.391 1_655 S
C1845 C1844 1.386 . S
C1845 C1849 1.393 . S
C1846 H1838 0.950 . S
C1846 C1844 1.391 1_455 S
C1846 C1847 1.400 . S
C1847 C1846 1.400 . S
C1847 C1848 1.398 1_455 S
C1847 C1853 1.491 . S
C1848 H1839 0.950 . S
C1848 C1847 1.398 1_655 S
C1848 C1849 1.391 . S
C1849 H1837 0.950 . S
C1849 C1845 1.393 . S
C1849 C1848 1.391 . S
C1850 H1840 0.950 . S
C1850 C1851 1.386 . S
C1850 C1852 1.391 . S
C1851 C1850 1.386 . S
C1851 C1855 1.393 . S
C1852 H1841 0.950 1_455 S
C1852 C1850 1.391 . S
C1852 C1853 1.400 . S
C1853 C1847 1.491 . S
C1853 C1852 1.400 . S
C1853 C1854 1.398 . S
C1854 H1842 0.950 . S
C1854 C1853 1.398 . S
C1854 C1855 1.391 . S
C1855 H1843 0.950 . S
C1855 C1851 1.393 . S
C1855 C1854 1.391 . S
H1856 C1864 0.950 . S
H1857 C1869 0.950 . S
H1858 C1866 0.950 . S
H1859 C1868 0.950 . S
H1860 C1870 0.950 . S
H1861 C1872 0.950 . S
H1862 C1874 0.950 . S
H1863 C1875 0.950 . S
C1864 H1856 0.950 . S
C1864 C1865 1.386 . S
C1864 C1866 1.391 . S
C1865 C1864 1.386 . S
C1865 C1869 1.393 . S
C1866 H1858 0.950 . S
C1866 C1864 1.391 . S
C1866 C1867 1.400 . S
C1867 C1866 1.400 . S
C1867 C1868 1.398 . S
C1867 C1873 1.491 . S
C1868 H1859 0.950 . S
C1868 C1867 1.398 . S
C1868 C1869 1.391 . S
C1869 H1857 0.950 . S
C1869 C1865 1.393 . S
C1869 C1868 1.391 . S
C1870 H1860 0.950 . S
C1870 C1871 1.386 . S
C1870 C1872 1.391 . S
C1871 C1870 1.386 . S
C1871 C1875 1.393 . S
C1872 H1861 0.950 . S
C1872 C1870 1.391 . S
C1872 C1873 1.400 . S
C1873 C1867 1.491 . S
C1873 C1872 1.400 . S
C1873 C1874 1.398 . S
C1874 H1862 0.950 . S
C1874 C1873 1.398 . S
C1874 C1875 1.391 . S
C1875 H1863 0.950 . S
C1875 C1871 1.393 . S
C1875 C1874 1.391 . S
H1876 C1884 0.950 . S
H1877 C1889 0.950 . S
H1878 C1886 0.950 . S
H1879 C1888 0.950 . S
H1880 C1890 0.950 . S
H1881 C1892 0.950 . S
H1882 C1894 0.950 1_545 S
H1883 C1895 0.950 . S
C1884 H1876 0.950 . S
C1884 C1885 1.386 . S
C1884 C1886 1.391 . S
C1885 C1884 1.386 . S
C1885 C1889 1.393 1_545 S
C1886 H1878 0.950 . S
C1886 C1884 1.391 . S
C1886 C1887 1.400 1_545 S
C1887 C1886 1.400 1_565 S
C1887 C1888 1.398 . S
C1887 C1893 1.491 . S
C1888 H1879 0.950 . S
C1888 C1887 1.398 . S
C1888 C1889 1.391 . S
C1889 H1877 0.950 . S
C1889 C1885 1.393 1_565 S
C1889 C1888 1.391 . S
C1890 H1880 0.950 . S
C1890 C1891 1.386 . S
C1890 C1892 1.391 . S
C1891 C1890 1.386 . S
C1891 C1895 1.393 . S
C1892 H1881 0.950 . S
C1892 C1890 1.391 . S
C1892 C1893 1.400 . S
C1893 C1887 1.491 . S
C1893 C1892 1.400 . S
C1893 C1894 1.398 . S
C1894 H1882 0.950 1_565 S
C1894 C1893 1.398 . S
C1894 C1895 1.391 . S
C1895 H1883 0.950 . S
C1895 C1891 1.393 . S
C1895 C1894 1.391 . S
H1896 C1904 0.950 . S
H1897 C1909 0.950 . S
H1898 C1906 0.950 . S
H1899 C1908 0.950 . S
H1900 C1910 0.950 . S
H1901 C1912 0.950 . S
H1902 C1914 0.950 . S
H1903 C1915 0.950 . S
C1904 H1896 0.950 . S
C1904 C1905 1.386 . S
C1904 C1906 1.391 . S
C1905 C1904 1.386 . S
C1905 C1909 1.393 . S
C1906 H1898 0.950 . S
C1906 C1904 1.391 . S
C1906 C1907 1.400 . S
C1907 C1906 1.400 . S
C1907 C1908 1.398 . S
C1907 C1913 1.491 . S
C1908 H1899 0.950 . S
C1908 C1907 1.398 . S
C1908 C1909 1.391 . S
C1909 H1897 0.950 . S
C1909 C1905 1.393 . S
C1909 C1908 1.391 . S
C1910 H1900 0.950 . S
C1910 C1911 1.386 . S
C1910 C1912 1.391 . S
C1911 C1910 1.386 . S
C1911 C1915 1.393 . S
C1912 H1901 0.950 . S
C1912 C1910 1.391 . S
C1912 C1913 1.400 . S
C1913 C1907 1.491 . S
C1913 C1912 1.400 . S
C1913 C1914 1.398 . S
C1914 H1902 0.950 . S
C1914 C1913 1.398 . S
C1914 C1915 1.391 . S
C1915 H1903 0.950 . S
C1915 C1911 1.393 . S
C1915 C1914 1.391 . S
H1916 C1924 0.950 . S
H1917 C1929 0.950 . S
H1918 C1926 0.950 . S
H1919 C1928 0.950 . S
H1920 C1930 0.950 . S
H1921 C1932 0.950 . S
H1922 C1934 0.950 . S
H1923 C1935 0.950 . S
C1924 H1916 0.950 . S
C1924 C1925 1.386 . S
C1924 C1926 1.391 . S
C1925 C1924 1.386 . S
C1925 C1929 1.393 . S
C1926 H1918 0.950 . S
C1926 C1924 1.391 . S
C1926 C1927 1.400 . S
C1927 C1926 1.400 . S
C1927 C1928 1.398 . S
C1927 C1933 1.491 1_545 S
C1928 H1919 0.950 . S
C1928 C1927 1.398 . S
C1928 C1929 1.391 . S
C1929 H1917 0.950 . S
C1929 C1925 1.393 . S
C1929 C1928 1.391 . S
C1930 H1920 0.950 . S
C1930 C1931 1.386 . S
C1930 C1932 1.391 . S
C1931 C1930 1.386 . S
C1931 C1935 1.393 . S
C1932 H1921 0.950 . S
C1932 C1930 1.391 . S
C1932 C1933 1.400 . S
C1933 C1927 1.491 1_565 S
C1933 C1932 1.400 . S
C1933 C1934 1.398 . S
C1934 H1922 0.950 . S
C1934 C1933 1.398 . S
C1934 C1935 1.391 . S
C1935 H1923 0.950 . S
C1935 C1931 1.393 . S
C1935 C1934 1.391 . S
H1936 C1944 0.950 . S
H1937 C1949 0.950 . S
H1938 C1946 0.950 . S
H1939 C1948 0.950 . S
H1940 C1950 0.950 . S
H1941 C1952 0.950 . S
H1942 C1954 0.950 . S
H1943 C1955 0.950 . S
C1944 H1936 0.950 . S
C1944 C1945 1.386 . S
C1944 C1946 1.391 . S
C1945 C1944 1.386 . S
C1945 C1949 1.393 . S
C1946 H1938 0.950 . S
C1946 C1944 1.391 . S
C1946 C1947 1.400 . S
C1947 C1946 1.400 . S
C1947 C1948 1.398 . S
C1947 C1953 1.491 1_655 S
C1948 H1939 0.950 . S
C1948 C1947 1.398 . S
C1948 C1949 1.391 . S
C1949 H1937 0.950 . S
C1949 C1945 1.393 . S
C1949 C1948 1.391 . S
C1950 H1940 0.950 . S
C1950 C1951 1.386 . S
C1950 C1952 1.391 . S
C1951 C1950 1.386 . S
C1951 C1955 1.393 . S
C1952 H1941 0.950 . S
C1952 C1950 1.391 . S
C1952 C1953 1.400 . S
C1953 C1947 1.491 1_455 S
C1953 C1952 1.400 . S
C1953 C1954 1.398 . S
C1954 H1942 0.950 . S
C1954 C1953 1.398 . S
C1954 C1955 1.391 . S
C1955 H1943 0.950 . S
C1955 C1951 1.393 . S
C1955 C1954 1.391 . S
H1956 C1964 0.950 . S
H1957 C1969 0.950 . S
H1958 C1966 0.950 . S
H1959 C1968 0.950 . S
H1960 C1970 0.950 . S
H1961 C1972 0.950 . S
H1962 C1974 0.950 . S
H1963 C1975 0.950 . S
C1964 H1956 0.950 . S
C1964 C1965 1.386 . S
C1964 C1966 1.391 . S
C1965 C1964 1.386 . S
C1965 C1969 1.393 . S
C1966 H1958 0.950 . S
C1966 C1964 1.391 . S
C1966 C1967 1.400 . S
C1967 C1966 1.400 . S
C1967 C1968 1.398 . S
C1967 C1973 1.491 . S
C1968 H1959 0.950 . S
C1968 C1967 1.398 . S
C1968 C1969 1.391 . S
C1969 H1957 0.950 . S
C1969 C1965 1.393 . S
C1969 C1968 1.391 . S
C1970 H1960 0.950 . S
C1970 C1971 1.386 . S
C1970 C1972 1.391 . S
C1971 C1970 1.386 . S
C1971 C1975 1.393 . S
C1972 H1961 0.950 . S
C1972 C1970 1.391 . S
C1972 C1973 1.400 . S
C1973 C1967 1.491 . S
C1973 C1972 1.400 . S
C1973 C1974 1.398 . S
C1974 H1962 0.950 . S
C1974 C1973 1.398 . S
C1974 C1975 1.391 . S
C1975 H1963 0.950 . S
C1975 C1971 1.393 . S
C1975 C1974 1.391 . S
H1976 C1984 0.950 . S
H1977 C1989 0.950 . S
H1978 C1986 0.950 . S
H1979 C1988 0.950 . S
H1980 C1990 0.950 . S
H1981 C1992 0.950 . S
H1982 C1994 0.950 . S
H1983 C1995 0.950 . S
C1984 H1976 0.950 . S
C1984 C1985 1.386 . S
C1984 C1986 1.391 . S
C1985 C1984 1.386 . S
C1985 C1989 1.393 . S
C1986 H1978 0.950 . S
C1986 C1984 1.391 . S
C1986 C1987 1.400 . S
C1987 C1986 1.400 . S
C1987 C1988 1.398 . S
C1987 C1993 1.491 1_565 S
C1988 H1979 0.950 . S
C1988 C1987 1.398 . S
C1988 C1989 1.391 . S
C1989 H1977 0.950 . S
C1989 C1985 1.393 . S
C1989 C1988 1.391 . S
C1990 H1980 0.950 . S
C1990 C1991 1.386 . S
C1990 C1992 1.391 . S
C1991 C1990 1.386 . S
C1991 C1995 1.393 . S
C1992 H1981 0.950 . S
C1992 C1990 1.391 . S
C1992 C1993 1.400 . S
C1993 C1987 1.491 1_545 S
C1993 C1992 1.400 . S
C1993 C1994 1.398 . S
C1994 H1982 0.950 . S
C1994 C1993 1.398 . S
C1994 C1995 1.391 . S
C1995 H1983 0.950 . S
C1995 C1991 1.393 . S
C1995 C1994 1.391 . S
H1996 C2004 0.950 . S
H1997 C2009 0.950 . S
H1998 C2006 0.950 . S
H1999 C2008 0.950 . S
H2000 C2010 0.950 . S
H2001 C2012 0.950 . S
H2002 C2014 0.950 . S
H2003 C2015 0.950 . S
C2004 H1996 0.950 . S
C2004 C2005 1.386 . S
C2004 C2006 1.391 . S
C2005 C2004 1.386 . S
C2005 C2009 1.393 . S
C2006 H1998 0.950 . S
C2006 C2004 1.391 . S
C2006 C2007 1.400 . S
C2007 C2006 1.400 . S
C2007 C2008 1.398 . S
C2007 C2013 1.491 1_655 S
C2008 H1999 0.950 . S
C2008 C2007 1.398 . S
C2008 C2009 1.391 . S
C2009 H1997 0.950 . S
C2009 C2005 1.393 . S
C2009 C2008 1.391 . S
C2010 H2000 0.950 . S
C2010 C2011 1.386 . S
C2010 C2012 1.391 . S
C2011 C2010 1.386 . S
C2011 C2015 1.393 . S
C2012 H2001 0.950 . S
C2012 C2010 1.391 . S
C2012 C2013 1.400 . S
C2013 C2007 1.491 1_455 S
C2013 C2012 1.400 . S
C2013 C2014 1.398 . S
C2014 H2002 0.950 . S
C2014 C2013 1.398 . S
C2014 C2015 1.391 . S
C2015 H2003 0.950 . S
C2015 C2011 1.393 . S
C2015 C2014 1.391 . S
H2016 C2024 0.950 . S
H2017 C2029 0.950 1_655 S
H2018 C2026 0.950 . S
H2019 C2028 0.950 . S
H2020 C2030 0.950 . S
H2021 C2032 0.950 . S
H2022 C2034 0.950 . S
H2023 C2035 0.950 . S
C2024 H2016 0.950 . S
C2024 C2025 1.386 . S
C2024 C2026 1.391 . S
C2025 C2024 1.386 . S
C2025 C2029 1.393 . S
C2026 H2018 0.950 . S
C2026 C2024 1.391 . S
C2026 C2027 1.400 . S
C2027 C2026 1.400 . S
C2027 C2028 1.398 . S
C2027 C2033 1.491 . S
C2028 H2019 0.950 . S
C2028 C2027 1.398 . S
C2028 C2029 1.391 . S
C2029 H2017 0.950 1_455 S
C2029 C2025 1.393 . S
C2029 C2028 1.391 . S
C2030 H2020 0.950 . S
C2030 C2031 1.386 . S
C2030 C2032 1.391 . S
C2031 C2030 1.386 . S
C2031 C2035 1.393 . S
C2032 H2021 0.950 . S
C2032 C2030 1.391 . S
C2032 C2033 1.400 . S
C2033 C2027 1.491 . S
C2033 C2032 1.400 . S
C2033 C2034 1.398 . S
C2034 H2022 0.950 . S
C2034 C2033 1.398 . S
C2034 C2035 1.391 . S
C2035 H2023 0.950 . S
C2035 C2031 1.393 . S
C2035 C2034 1.391 . S
H2036 C2044 0.950 . S
H2037 C2049 0.950 . S
H2038 C2046 0.950 . S
H2039 C2048 0.950 . S
H2040 C2050 0.950 . S
H2041 C2052 0.950 . S
H2042 C2054 0.950 . S
H2043 C2055 0.950 . S
C2044 H2036 0.950 . S
C2044 C2045 1.386 . S
C2044 C2046 1.391 . S
C2045 C2044 1.386 . S
C2045 C2049 1.393 . S
C2046 H2038 0.950 . S
C2046 C2044 1.391 . S
C2046 C2047 1.400 1_545 S
C2047 C2046 1.400 1_565 S
C2047 C2048 1.398 . S
C2047 C2053 1.491 . S
C2048 H2039 0.950 . S
C2048 C2047 1.398 . S
C2048 C2049 1.391 1_565 S
C2049 H2037 0.950 . S
C2049 C2045 1.393 . S
C2049 C2048 1.391 1_545 S
C2050 H2040 0.950 . S
C2050 C2051 1.386 . S
C2050 C2052 1.391 . S
C2051 C2050 1.386 . S
C2051 C2055 1.393 . S
C2052 H2041 0.950 . S
C2052 C2050 1.391 . S
C2052 C2053 1.400 . S
C2053 C2047 1.491 . S
C2053 C2052 1.400 . S
C2053 C2054 1.398 . S
C2054 H2042 0.950 . S
C2054 C2053 1.398 . S
C2054 C2055 1.391 . S
C2055 H2043 0.950 . S
C2055 C2051 1.393 . S
C2055 C2054 1.391 . S
H2056 C2064 0.950 . S
H2057 C2069 0.950 . S
H2058 C2066 0.950 . S
H2059 C2068 0.950 . S
H2060 C2070 0.950 . S
H2061 C2072 0.950 . S
H2062 C2074 0.950 . S
H2063 C2075 0.950 1_545 S
C2064 H2056 0.950 . S
C2064 C2065 1.386 . S
C2064 C2066 1.391 . S
C2065 C2064 1.386 . S
C2065 C2069 1.393 . S
C2066 H2058 0.950 . S
C2066 C2064 1.391 . S
C2066 C2067 1.400 1_655 S
C2067 C2066 1.400 1_455 S
C2067 C2068 1.398 . S
C2067 C2073 1.491 . S
C2068 H2059 0.950 . S
C2068 C2067 1.398 . S
C2068 C2069 1.391 1_455 S
C2069 H2057 0.950 . S
C2069 C2065 1.393 . S
C2069 C2068 1.391 1_655 S
C2070 H2060 0.950 . S
C2070 C2071 1.386 . S
C2070 C2072 1.391 . S
C2071 C2070 1.386 . S
C2071 C2075 1.393 . S
C2072 H2061 0.950 . S
C2072 C2070 1.391 . S
C2072 C2073 1.400 . S
C2073 C2067 1.491 . S
C2073 C2072 1.400 . S
C2073 C2074 1.398 . S
C2074 H2062 0.950 . S
C2074 C2073 1.398 . S
C2074 C2075 1.391 . S
C2075 H2063 0.950 1_565 S
C2075 C2071 1.393 . S
C2075 C2074 1.391 . S
H2076 C2084 0.950 . S
H2077 C2089 0.950 . S
H2078 C2086 0.950 . S
H2079 C2088 0.950 . S
H2080 C2090 0.950 . S
H2081 C2092 0.950 . S
H2082 C2094 0.950 . S
H2083 C2095 0.950 . S
C2084 H2076 0.950 . S
C2084 C2085 1.386 . S
C2084 C2086 1.391 . S
C2085 C2084 1.386 . S
C2085 C2089 1.393 . S
C2086 H2078 0.950 . S
C2086 C2084 1.391 . S
C2086 C2087 1.400 . S
C2087 C2086 1.400 . S
C2087 C2088 1.398 . S
C2087 C2093 1.491 . S
C2088 H2079 0.950 . S
C2088 C2087 1.398 . S
C2088 C2089 1.391 . S
C2089 H2077 0.950 . S
C2089 C2085 1.393 . S
C2089 C2088 1.391 . S
C2090 H2080 0.950 . S
C2090 C2091 1.386 . S
C2090 C2092 1.391 . S
C2091 C2090 1.386 . S
C2091 C2095 1.393 . S
C2092 H2081 0.950 . S
C2092 C2090 1.391 . S
C2092 C2093 1.400 . S
C2093 C2087 1.491 . S
C2093 C2092 1.400 . S
C2093 C2094 1.398 . S
C2094 H2082 0.950 . S
C2094 C2093 1.398 . S
C2094 C2095 1.391 . S
C2095 H2083 0.950 . S
C2095 C2091 1.393 . S
C2095 C2094 1.391 . S
H2096 C2104 0.950 . S
H2097 C2109 0.950 1_455 S
H2098 C2106 0.950 . S
H2099 C2108 0.950 . S
H2100 C2110 0.950 . S
H2101 C2112 0.950 . S
H2102 C2114 0.950 . S
H2103 C2115 0.950 . S
C2104 H2096 0.950 . S
C2104 C2105 1.386 . S
C2104 C2106 1.391 . S
C2105 C2104 1.386 . S
C2105 C2109 1.393 . S
C2106 H2098 0.950 . S
C2106 C2104 1.391 . S
C2106 C2107 1.400 . S
C2107 C2106 1.400 . S
C2107 C2108 1.398 . S
C2107 C2113 1.491 . S
C2108 H2099 0.950 . S
C2108 C2107 1.398 . S
C2108 C2109 1.391 . S
C2109 H2097 0.950 1_655 S
C2109 C2105 1.393 . S
C2109 C2108 1.391 . S
C2110 H2100 0.950 . S
C2110 C2111 1.386 . S
C2110 C2112 1.391 1_565 S
C2111 C2110 1.386 . S
C2111 C2115 1.393 . S
C2112 H2101 0.950 . S
C2112 C2110 1.391 1_545 S
C2112 C2113 1.400 . S
C2113 C2107 1.491 . S
C2113 C2112 1.400 . S
C2113 C2114 1.398 . S
C2114 H2102 0.950 . S
C2114 C2113 1.398 . S
C2114 C2115 1.391 1_545 S
C2115 H2103 0.950 . S
C2115 C2111 1.393 . S
C2115 C2114 1.391 1_565 S
H2116 C2124 0.950 . S
H2117 C2129 0.950 . S
H2118 C2126 0.950 . S
H2119 C2128 0.950 . S
H2120 C2130 0.950 . S
H2121 C2132 0.950 . S
H2122 C2134 0.950 . S
H2123 C2135 0.950 . S
C2124 H2116 0.950 . S
C2124 C2125 1.386 . S
C2124 C2126 1.391 1_455 S
C2125 C2124 1.386 . S
C2125 C2129 1.393 . S
C2126 H2118 0.950 . S
C2126 C2124 1.391 1_655 S
C2126 C2127 1.400 . S
C2127 C2126 1.400 . S
C2127 C2128 1.398 . S
C2127 C2133 1.491 . S
C2128 H2119 0.950 . S
C2128 C2127 1.398 . S
C2128 C2129 1.391 1_655 S
C2129 H2117 0.950 . S
C2129 C2125 1.393 . S
C2129 C2128 1.391 1_455 S
C2130 H2120 0.950 . S
C2130 C2131 1.386 . S
C2130 C2132 1.391 . S
C2131 C2130 1.386 . S
C2131 C2135 1.393 . S
C2132 H2121 0.950 . S
C2132 C2130 1.391 . S
C2132 C2133 1.400 . S
C2133 C2127 1.491 . S
C2133 C2132 1.400 . S
C2133 C2134 1.398 . S
C2134 H2122 0.950 . S
C2134 C2133 1.398 . S
C2134 C2135 1.391 . S
C2135 H2123 0.950 . S
C2135 C2131 1.393 . S
C2135 C2134 1.391 . S
H2136 C2144 0.950 . S
H2137 C2149 0.950 . S
H2138 C2146 0.950 . S
H2139 C2148 0.950 . S
H2140 C2150 0.950 . S
H2141 C2152 0.950 . S
H2142 C2154 0.950 . S
H2143 C2155 0.950 . S
C2144 H2136 0.950 . S
C2144 C2145 1.386 . S
C2144 C2146 1.391 . S
C2145 C2144 1.386 . S
C2145 C2149 1.393 . S
C2146 H2138 0.950 . S
C2146 C2144 1.391 . S
C2146 C2147 1.400 . S
C2147 C2146 1.400 . S
C2147 C2148 1.398 . S
C2147 C2153 1.491 . S
C2148 H2139 0.950 . S
C2148 C2147 1.398 . S
C2148 C2149 1.391 . S
C2149 H2137 0.950 . S
C2149 C2145 1.393 . S
C2149 C2148 1.391 . S
C2150 H2140 0.950 . S
C2150 C2151 1.386 . S
C2150 C2152 1.391 . S
C2151 C2150 1.386 . S
C2151 C2155 1.393 . S
C2152 H2141 0.950 . S
C2152 C2150 1.391 . S
C2152 C2153 1.400 . S
C2153 C2147 1.491 . S
C2153 C2152 1.400 . S
C2153 C2154 1.398 . S
C2154 H2142 0.950 . S
C2154 C2153 1.398 . S
C2154 C2155 1.391 . S
C2155 H2143 0.950 . S
C2155 C2151 1.393 . S
C2155 C2154 1.391 . S
H2156 C2164 0.950 . S
H2157 C2169 0.950 . S
H2158 C2166 0.950 . S
H2159 C2168 0.950 . S
H2160 C2170 0.950 . S
H2161 C2172 0.950 . S
H2162 C2174 0.950 . S
H2163 C2175 0.950 . S
C2164 H2156 0.950 . S
C2164 C2165 1.386 . S
C2164 C2166 1.391 1_565 S
C2165 C2164 1.386 . S
C2165 C2169 1.393 . S
C2166 H2158 0.950 . S
C2166 C2164 1.391 1_545 S
C2166 C2167 1.400 . S
C2167 C2166 1.400 . S
C2167 C2168 1.398 . S
C2167 C2173 1.491 . S
C2168 H2159 0.950 . S
C2168 C2167 1.398 . S
C2168 C2169 1.391 1_545 S
C2169 H2157 0.950 . S
C2169 C2165 1.393 . S
C2169 C2168 1.391 1_565 S
C2170 H2160 0.950 . S
C2170 C2171 1.386 . S
C2170 C2172 1.391 . S
C2171 C2170 1.386 . S
C2171 C2175 1.393 . S
C2172 H2161 0.950 . S
C2172 C2170 1.391 . S
C2172 C2173 1.400 . S
C2173 C2167 1.491 . S
C2173 C2172 1.400 . S
C2173 C2174 1.398 . S
C2174 H2162 0.950 . S
C2174 C2173 1.398 . S
C2174 C2175 1.391 . S
C2175 H2163 0.950 . S
C2175 C2171 1.393 . S
C2175 C2174 1.391 . S
H2176 C2184 0.950 . S
H2177 C2189 0.950 . S
H2178 C2186 0.950 . S
H2179 C2188 0.950 . S
H2180 C2190 0.950 1_565 S
H2181 C2192 0.950 . S
H2182 C2194 0.950 . S
H2183 C2195 0.950 . S
C2184 H2176 0.950 . S
C2184 C2185 1.386 . S
C2184 C2186 1.391 1_455 S
C2185 C2184 1.386 . S
C2185 C2189 1.393 . S
C2186 H2178 0.950 . S
C2186 C2184 1.391 1_655 S
C2186 C2187 1.400 . S
C2187 C2186 1.400 . S
C2187 C2188 1.398 1_655 S
C2187 C2193 1.491 . S
C2188 H2179 0.950 . S
C2188 C2187 1.398 1_455 S
C2188 C2189 1.391 . S
C2189 H2177 0.950 . S
C2189 C2185 1.393 . S
C2189 C2188 1.391 . S
C2190 H2180 0.950 1_545 S
C2190 C2191 1.386 . S
C2190 C2192 1.391 . S
C2191 C2190 1.386 . S
C2191 C2195 1.393 . S
C2192 H2181 0.950 . S
C2192 C2190 1.391 . S
C2192 C2193 1.400 . S
C2193 C2187 1.491 . S
C2193 C2192 1.400 . S
C2193 C2194 1.398 . S
C2194 H2182 0.950 . S
C2194 C2193 1.398 . S
C2194 C2195 1.391 . S
C2195 H2183 0.950 . S
C2195 C2191 1.393 . S
C2195 C2194 1.391 . S
H2196 C2204 0.950 1_545 S
H2197 C2209 0.950 . S
H2198 C2206 0.950 . S
H2199 C2208 0.950 . S
H2200 C2210 0.950 . S
H2201 C2212 0.950 . S
H2202 C2214 0.950 . S
H2203 C2215 0.950 . S
C2204 H2196 0.950 1_565 S
C2204 C2205 1.386 . S
C2204 C2206 1.391 . S
C2205 C2204 1.386 . S
C2205 C2209 1.393 . S
C2206 H2198 0.950 . S
C2206 C2204 1.391 . S
C2206 C2207 1.400 . S
C2207 C2206 1.400 . S
C2207 C2208 1.398 . S
C2207 C2213 1.491 . S
C2208 H2199 0.950 . S
C2208 C2207 1.398 . S
C2208 C2209 1.391 . S
C2209 H2197 0.950 . S
C2209 C2205 1.393 . S
C2209 C2208 1.391 . S
C2210 H2200 0.950 . S
C2210 C2211 1.386 . S
C2210 C2212 1.391 . S
C2211 C2210 1.386 . S
C2211 C2215 1.393 . S
C2212 H2201 0.950 . S
C2212 C2210 1.391 . S
C2212 C2213 1.400 . S
C2213 C2207 1.491 . S
C2213 C2212 1.400 . S
C2213 C2214 1.398 . S
C2214 H2202 0.950 . S
C2214 C2213 1.398 . S
C2214 C2215 1.391 . S
C2215 H2203 0.950 . S
C2215 C2211 1.393 . S
C2215 C2214 1.391 . S
H2216 C2224 0.950 . S
H2217 C2229 0.950 . S
H2218 C2226 0.950 . S
H2219 C2228 0.950 . S
H2220 C2230 0.950 1_655 S
H2221 C2232 0.950 . S
H2222 C2234 0.950 . S
H2223 C2235 0.950 . S
C2224 H2216 0.950 . S
C2224 C2225 1.386 . S
C2224 C2226 1.391 1_545 S
C2225 C2224 1.386 . S
C2225 C2229 1.393 . S
C2226 H2218 0.950 . S
C2226 C2224 1.391 1_565 S
C2226 C2227 1.400 . S
C2227 C2226 1.400 . S
C2227 C2228 1.398 1_565 S
C2227 C2233 1.491 . S
C2228 H2219 0.950 . S
C2228 C2227 1.398 1_545 S
C2228 C2229 1.391 . S
C2229 H2217 0.950 . S
C2229 C2225 1.393 . S
C2229 C2228 1.391 . S
C2230 H2220 0.950 1_455 S
C2230 C2231 1.386 . S
C2230 C2232 1.391 . S
C2231 C2230 1.386 . S
C2231 C2235 1.393 . S
C2232 H2221 0.950 . S
C2232 C2230 1.391 . S
C2232 C2233 1.400 . S
C2233 C2227 1.491 . S
C2233 C2232 1.400 . S
C2233 C2234 1.398 . S
C2234 H2222 0.950 . S
C2234 C2233 1.398 . S
C2234 C2235 1.391 . S
C2235 H2223 0.950 . S
C2235 C2231 1.393 . S
C2235 C2234 1.391 . S
H2236 C2244 0.950 . S
H2237 C2249 0.950 . S
H2238 C2246 0.950 . S
H2239 C2248 0.950 . S
H2240 C2250 0.950 . S
H2241 C2252 0.950 . S
H2242 C2254 0.955 . S
H2243 C2255 0.950 . S
C2244 H2236 0.950 . S
C2244 C2245 1.386 . S
C2244 C2246 1.391 . S
C2245 C2244 1.386 . S
C2245 C2249 1.393 . S
C2246 H2238 0.950 . S
C2246 C2244 1.391 . S
C2246 C2247 1.400 . S
C2247 C2246 1.400 . S
C2247 C2248 1.398 . S
C2247 C2253 1.491 . S
C2248 H2239 0.950 . S
C2248 C2247 1.398 . S
C2248 C2249 1.391 . S
C2249 H2237 0.950 . S
C2249 C2245 1.393 . S
C2249 C2248 1.391 . S
C2250 H2240 0.950 . S
C2250 C2251 1.386 . S
C2250 C2252 1.391 1_655 S
C2251 C2250 1.386 . S
C2251 C2255 1.393 . S
C2252 H2241 0.950 . S
C2252 C2250 1.391 1_455 S
C2252 C2253 1.400 . S
C2253 C2247 1.491 . S
C2253 C2252 1.400 . S
C2253 C2254 1.398 1_455 S
C2254 H2242 0.955 . S
C2254 C2253 1.398 1_655 S
C2254 C2255 1.391 . S
C2255 H2243 0.950 . S
C2255 C2251 1.393 . S
C2255 C2254 1.391 . S
H2256 C2264 0.950 . S
H2257 C2269 0.950 . S
H2258 C2266 0.950 . S
H2259 C2268 0.950 . S
H2260 C2270 0.950 . S
H2261 C2272 0.950 . S
H2262 C2274 0.950 . S
H2263 C2275 0.950 . S
C2264 H2256 0.950 . S
C2264 C2265 1.386 . S
C2264 C2266 1.391 . S
C2265 C2264 1.386 . S
C2265 C2269 1.393 . S
C2266 H2258 0.950 . S
C2266 C2264 1.391 . S
C2266 C2267 1.400 . S
C2267 C2266 1.400 . S
C2267 C2268 1.398 . S
C2267 C2273 1.491 . S
C2268 H2259 0.950 . S
C2268 C2267 1.398 . S
C2268 C2269 1.391 . S
C2269 H2257 0.950 . S
C2269 C2265 1.393 . S
C2269 C2268 1.391 . S
C2270 H2260 0.950 . S
C2270 C2271 1.386 . S
C2270 C2272 1.391 . S
C2271 C2270 1.386 . S
C2271 C2275 1.393 . S
C2272 H2261 0.950 . S
C2272 C2270 1.391 . S
C2272 C2273 1.400 . S
C2273 C2267 1.491 . S
C2273 C2272 1.400 . S
C2273 C2274 1.398 . S
C2274 H2262 0.950 . S
C2274 C2273 1.398 . S
C2274 C2275 1.391 . S
C2275 H2263 0.950 . S
C2275 C2271 1.393 . S
C2275 C2274 1.391 . S
H2276 C2284 0.950 . S
H2277 C2289 0.950 . S
H2278 C2286 0.950 . S
H2279 C2288 0.950 . S
H2280 C2290 0.950 . S
H2281 C2292 0.950 . S
H2282 C2294 0.950 . S
H2283 C2295 0.950 . S
C2284 H2276 0.950 . S
C2284 C2285 1.386 . S
C2284 C2286 1.391 . S
C2285 C2284 1.386 . S
C2285 C2289 1.393 . S
C2286 H2278 0.950 . S
C2286 C2284 1.391 . S
C2286 C2287 1.400 . S
C2287 C2286 1.400 . S
C2287 C2288 1.398 . S
C2287 C2293 1.491 . S
C2288 H2279 0.950 . S
C2288 C2287 1.398 . S
C2288 C2289 1.391 . S
C2289 H2277 0.950 . S
C2289 C2285 1.393 . S
C2289 C2288 1.391 . S
C2290 H2280 0.950 . S
C2290 C2291 1.386 . S
C2290 C2292 1.391 . S
C2291 C2290 1.386 . S
C2291 C2295 1.393 . S
C2292 H2281 0.950 . S
C2292 C2290 1.391 . S
C2292 C2293 1.400 . S
C2293 C2287 1.491 . S
C2293 C2292 1.400 . S
C2293 C2294 1.398 . S
C2294 H2282 0.950 . S
C2294 C2293 1.398 . S
C2294 C2295 1.391 . S
C2295 H2283 0.950 . S
C2295 C2291 1.393 . S
C2295 C2294 1.391 . S
H2296 C2304 0.950 . S
H2297 C2309 0.950 . S
H2298 C2306 0.950 . S
H2299 C2308 0.950 . S
H2300 C2310 0.950 . S
H2301 C2312 0.950 . S
H2302 C2314 0.950 . S
H2303 C2315 0.950 . S
C2304 H2296 0.950 . S
C2304 C2305 1.386 . S
C2304 C2306 1.391 . S
C2305 C2304 1.386 . S
C2305 C2309 1.393 . S
C2306 H2298 0.950 . S
C2306 C2304 1.391 . S
C2306 C2307 1.400 . S
C2307 C2306 1.400 . S
C2307 C2308 1.398 . S
C2307 C2313 1.491 . S
C2308 H2299 0.950 . S
C2308 C2307 1.398 . S
C2308 C2309 1.391 . S
C2309 H2297 0.950 . S
C2309 C2305 1.393 . S
C2309 C2308 1.391 . S
C2310 H2300 0.950 . S
C2310 C2311 1.386 . S
C2310 C2312 1.391 . S
C2311 C2310 1.386 . S
C2311 C2315 1.393 . S
C2312 H2301 0.950 . S
C2312 C2310 1.391 . S
C2312 C2313 1.400 . S
C2313 C2307 1.491 . S
C2313 C2312 1.400 . S
C2313 C2314 1.398 . S
C2314 H2302 0.950 . S
C2314 C2313 1.398 . S
C2314 C2315 1.391 . S
C2315 H2303 0.950 . S
C2315 C2311 1.393 . S
C2315 C2314 1.391 . S
H2316 C2324 0.950 . S
H2317 C2329 0.950 . S
H2318 C2326 0.950 . S
H2319 C2328 0.950 . S
H2320 C2330 0.950 . S
H2321 C2332 0.950 . S
H2322 C2334 0.950 . S
H2323 C2335 0.950 . S
C2324 H2316 0.950 . S
C2324 C2325 1.386 . S
C2324 C2326 1.391 . S
C2325 C2324 1.386 . S
C2325 C2329 1.393 . S
C2326 H2318 0.950 . S
C2326 C2324 1.391 . S
C2326 C2327 1.400 . S
C2327 C2326 1.400 . S
C2327 C2328 1.398 . S
C2327 C2333 1.491 . S
C2328 H2319 0.950 . S
C2328 C2327 1.398 . S
C2328 C2329 1.391 . S
C2329 H2317 0.950 . S
C2329 C2325 1.393 . S
C2329 C2328 1.391 . S
C2330 H2320 0.950 . S
C2330 C2331 1.386 . S
C2330 C2332 1.391 . S
C2331 C2330 1.386 . S
C2331 C2335 1.393 . S
C2332 H2321 0.950 . S
C2332 C2330 1.391 . S
C2332 C2333 1.400 . S
C2333 C2327 1.491 . S
C2333 C2332 1.400 . S
C2333 C2334 1.398 . S
C2334 H2322 0.950 . S
C2334 C2333 1.398 . S
C2334 C2335 1.391 . S
C2335 H2323 0.950 . S
C2335 C2331 1.393 . S
C2335 C2334 1.391 . S
H2336 C2344 0.950 . S
H2337 C2349 0.950 . S
H2338 C2346 0.950 . S
H2339 C2348 0.950 . S
H2340 C2350 0.950 . S
H2341 C2352 0.950 . S
H2342 C2354 0.950 . S
H2343 C2355 0.950 . S
C2344 H2336 0.950 . S
C2344 C2345 1.386 . S
C2344 C2346 1.391 . S
C2345 C2344 1.386 . S
C2345 C2349 1.393 . S
C2346 H2338 0.950 . S
C2346 C2344 1.391 . S
C2346 C2347 1.400 . S
C2347 C2346 1.400 . S
C2347 C2348 1.398 . S
C2347 C2353 1.491 . S
C2348 H2339 0.950 . S
C2348 C2347 1.398 . S
C2348 C2349 1.391 . S
C2349 H2337 0.950 . S
C2349 C2345 1.393 . S
C2349 C2348 1.391 . S
C2350 H2340 0.950 . S
C2350 C2351 1.386 . S
C2350 C2352 1.391 . S
C2351 C2350 1.386 . S
C2351 C2355 1.393 . S
C2352 H2341 0.950 . S
C2352 C2350 1.391 . S
C2352 C2353 1.400 . S
C2353 C2347 1.491 . S
C2353 C2352 1.400 . S
C2353 C2354 1.398 . S
C2354 H2342 0.950 . S
C2354 C2353 1.398 . S
C2354 C2355 1.391 . S
C2355 H2343 0.950 . S
C2355 C2351 1.393 . S
C2355 C2354 1.391 . S
H2356 C2364 0.950 . S
H2357 C2369 0.950 . S
H2358 C2366 0.950 . S
H2359 C2368 0.950 . S
H2360 C2370 0.950 . S
H2361 C2372 0.950 . S
H2362 C2374 0.950 . S
H2363 C2375 0.950 . S
C2364 H2356 0.950 . S
C2364 C2365 1.386 . S
C2364 C2366 1.391 . S
C2365 C2364 1.386 . S
C2365 C2369 1.393 . S
C2366 H2358 0.950 . S
C2366 C2364 1.391 . S
C2366 C2367 1.400 . S
C2367 C2366 1.400 . S
C2367 C2368 1.398 . S
C2367 C2373 1.491 . S
C2368 H2359 0.950 . S
C2368 C2367 1.398 . S
C2368 C2369 1.391 . S
C2369 H2357 0.950 . S
C2369 C2365 1.393 . S
C2369 C2368 1.391 . S
C2370 H2360 0.950 . S
C2370 C2371 1.386 . S
C2370 C2372 1.391 . S
C2371 C2370 1.386 . S
C2371 C2375 1.393 . S
C2372 H2361 0.950 . S
C2372 C2370 1.391 . S
C2372 C2373 1.400 . S
C2373 C2367 1.491 . S
C2373 C2372 1.400 . S
C2373 C2374 1.398 . S
C2374 H2362 0.950 . S
C2374 C2373 1.398 . S
C2374 C2375 1.391 . S
C2375 H2363 0.950 . S
C2375 C2371 1.393 . S
C2375 C2374 1.391 . S
H2376 C2384 0.950 . S
H2377 C2389 0.950 . S
H2378 C2386 0.950 . S
H2379 C2388 0.950 . S
H2380 C2390 0.950 . S
H2381 C2392 0.950 . S
H2382 C2394 0.950 . S
H2383 C2395 0.950 . S
C2384 H2376 0.950 . S
C2384 C2385 1.386 . S
C2384 C2386 1.391 . S
C2385 C2384 1.386 . S
C2385 C2389 1.393 . S
C2386 H2378 0.950 . S
C2386 C2384 1.391 . S
C2386 C2387 1.400 . S
C2387 C2386 1.400 . S
C2387 C2388 1.398 . S
C2387 C2393 1.491 . S
C2388 H2379 0.950 . S
C2388 C2387 1.398 . S
C2388 C2389 1.391 . S
C2389 H2377 0.950 . S
C2389 C2385 1.393 . S
C2389 C2388 1.391 . S
C2390 H2380 0.950 . S
C2390 C2391 1.386 . S
C2390 C2392 1.391 . S
C2391 C2390 1.386 . S
C2391 C2395 1.393 . S
C2392 H2381 0.950 . S
C2392 C2390 1.391 . S
C2392 C2393 1.400 . S
C2393 C2387 1.491 . S
C2393 C2392 1.400 . S
C2393 C2394 1.398 . S
C2394 H2382 0.950 . S
C2394 C2393 1.398 . S
C2394 C2395 1.391 . S
C2395 H2383 0.950 . S
C2395 C2391 1.393 . S
C2395 C2394 1.391 . S
H2396 C2404 0.950 . S
H2397 C2409 0.950 . S
H2398 C2406 0.950 . S
H2399 C2408 0.950 . S
H2400 C2410 0.950 . S
H2401 C2412 0.950 . S
H2402 C2414 0.950 . S
H2403 C2415 0.950 . S
C2404 H2396 0.950 . S
C2404 C2405 1.386 . S
C2404 C2406 1.391 . S
C2405 C2404 1.386 . S
C2405 C2409 1.393 . S
C2406 H2398 0.950 . S
C2406 C2404 1.391 . S
C2406 C2407 1.400 . S
C2407 C2406 1.400 . S
C2407 C2408 1.398 . S
C2407 C2413 1.491 . S
C2408 H2399 0.950 . S
C2408 C2407 1.398 . S
C2408 C2409 1.391 . S
C2409 H2397 0.950 . S
C2409 C2405 1.393 . S
C2409 C2408 1.391 . S
C2410 H2400 0.950 . S
C2410 C2411 1.386 . S
C2410 C2412 1.391 . S
C2411 C2410 1.386 . S
C2411 C2415 1.393 . S
C2412 H2401 0.950 . S
C2412 C2410 1.391 . S
C2412 C2413 1.400 . S
C2413 C2407 1.491 . S
C2413 C2412 1.400 . S
C2413 C2414 1.398 . S
C2414 H2402 0.950 . S
C2414 C2413 1.398 . S
C2414 C2415 1.391 . S
C2415 H2403 0.950 . S
C2415 C2411 1.393 . S
C2415 C2414 1.391 . S
H2416 C2424 0.950 . S
H2417 C2429 0.950 . S
H2418 C2426 0.950 . S
H2419 C2428 0.950 . S
H2420 C2430 0.950 . S
H2421 C2432 0.950 . S
H2422 C2434 0.950 . S
H2423 C2435 0.950 . S
C2424 H2416 0.950 . S
C2424 C2425 1.386 . S
C2424 C2426 1.391 . S
C2425 C2424 1.386 . S
C2425 C2429 1.393 . S
C2426 H2418 0.950 . S
C2426 C2424 1.391 . S
C2426 C2427 1.400 . S
C2427 C2426 1.400 . S
C2427 C2428 1.398 . S
C2427 C2433 1.491 . S
C2428 H2419 0.950 . S
C2428 C2427 1.398 . S
C2428 C2429 1.391 . S
C2429 H2417 0.950 . S
C2429 C2425 1.393 . S
C2429 C2428 1.391 . S
C2430 H2420 0.950 . S
C2430 C2431 1.386 . S
C2430 C2432 1.391 . S
C2431 C2430 1.386 . S
C2431 C2435 1.393 . S
C2432 H2421 0.950 . S
C2432 C2430 1.391 . S
C2432 C2433 1.400 . S
C2433 C2427 1.491 . S
C2433 C2432 1.400 . S
C2433 C2434 1.398 . S
C2434 H2422 0.950 . S
C2434 C2433 1.398 . S
C2434 C2435 1.391 . S
C2435 H2423 0.950 . S
C2435 C2431 1.393 . S
C2435 C2434 1.391 . S
H2436 C2444 0.950 . S
H2437 C2449 0.950 . S
H2438 C2446 0.950 . S
H2439 C2448 0.950 . S
H2440 C2450 0.950 . S
H2441 C2452 0.950 . S
H2442 C2454 0.950 . S
H2443 C2455 0.950 . S
C2444 H2436 0.950 . S
C2444 C2445 1.386 . S
C2444 C2446 1.391 . S
C2445 C2444 1.386 . S
C2445 C2449 1.393 . S
C2446 H2438 0.950 . S
C2446 C2444 1.391 . S
C2446 C2447 1.400 . S
C2447 C2446 1.400 . S
C2447 C2448 1.398 . S
C2447 C2453 1.491 . S
C2448 H2439 0.950 . S
C2448 C2447 1.398 . S
C2448 C2449 1.391 . S
C2449 H2437 0.950 . S
C2449 C2445 1.393 . S
C2449 C2448 1.391 . S
C2450 H2440 0.950 . S
C2450 C2451 1.386 . S
C2450 C2452 1.391 . S
C2451 C2450 1.386 . S
C2451 C2455 1.393 . S
C2452 H2441 0.950 . S
C2452 C2450 1.391 . S
C2452 C2453 1.400 . S
C2453 C2447 1.491 . S
C2453 C2452 1.400 . S
C2453 C2454 1.398 . S
C2454 H2442 0.950 . S
C2454 C2453 1.398 . S
C2454 C2455 1.391 . S
C2455 H2443 0.950 . S
C2455 C2451 1.393 . S
C2455 C2454 1.391 . S
H2456 C2464 0.950 . S
H2457 C2469 0.950 . S
H2458 C2466 0.950 . S
H2459 C2468 0.950 . S
H2460 C2470 0.950 . S
H2461 C2472 0.950 . S
H2462 C2474 0.950 . S
H2463 C2475 0.950 . S
C2464 H2456 0.950 . S
C2464 C2465 1.386 . S
C2464 C2466 1.391 . S
C2465 C2464 1.386 . S
C2465 C2469 1.393 . S
C2466 H2458 0.950 . S
C2466 C2464 1.391 . S
C2466 C2467 1.400 . S
C2467 C2466 1.400 . S
C2467 C2468 1.398 . S
C2467 C2473 1.491 . S
C2468 H2459 0.950 . S
C2468 C2467 1.398 . S
C2468 C2469 1.391 . S
C2469 H2457 0.950 . S
C2469 C2465 1.393 . S
C2469 C2468 1.391 . S
C2470 H2460 0.950 . S
C2470 C2471 1.386 . S
C2470 C2472 1.391 . S
C2471 C2470 1.386 . S
C2471 C2475 1.393 . S
C2472 H2461 0.950 . S
C2472 C2470 1.391 . S
C2472 C2473 1.400 . S
C2473 C2467 1.491 . S
C2473 C2472 1.400 . S
C2473 C2474 1.398 . S
C2474 H2462 0.950 . S
C2474 C2473 1.398 . S
C2474 C2475 1.391 . S
C2475 H2463 0.950 . S
C2475 C2471 1.393 . S
C2475 C2474 1.391 . S
H2476 C2484 0.950 . S
H2477 C2489 0.950 . S
H2478 C2486 0.950 . S
H2479 C2488 0.950 . S
H2480 C2490 0.950 . S
H2481 C2492 0.950 . S
H2482 C2494 0.950 . S
H2483 C2495 0.950 . S
C2484 H2476 0.950 . S
C2484 C2485 1.386 . S
C2484 C2486 1.391 . S
C2485 C2484 1.386 . S
C2485 C2489 1.393 . S
C2486 H2478 0.950 . S
C2486 C2484 1.391 . S
C2486 C2487 1.400 . S
C2487 C2486 1.400 . S
C2487 C2488 1.398 . S
C2487 C2493 1.491 . S
C2488 H2479 0.950 . S
C2488 C2487 1.398 . S
C2488 C2489 1.391 . S
C2489 H2477 0.950 . S
C2489 C2485 1.393 . S
C2489 C2488 1.391 . S
C2490 H2480 0.950 . S
C2490 C2491 1.386 . S
C2490 C2492 1.391 . S
C2491 C2490 1.386 . S
C2491 C2495 1.393 . S
C2492 H2481 0.950 . S
C2492 C2490 1.391 . S
C2492 C2493 1.400 . S
C2493 C2487 1.491 . S
C2493 C2492 1.400 . S
C2493 C2494 1.398 . S
C2494 H2482 0.950 . S
C2494 C2493 1.398 . S
C2494 C2495 1.391 . S
C2495 H2483 0.950 . S
C2495 C2491 1.393 . S
C2495 C2494 1.391 . S
H2496 C2504 0.950 . S
H2497 C2509 0.950 . S
H2498 C2506 0.950 . S
H2499 C2508 0.950 . S
H2500 C2510 0.950 . S
H2501 C2512 0.950 . S
H2502 C2514 0.950 . S
H2503 C2515 0.950 . S
C2504 H2496 0.950 . S
C2504 C2505 1.386 . S
C2504 C2506 1.391 . S
C2505 C2504 1.386 . S
C2505 C2509 1.393 . S
C2506 H2498 0.950 . S
C2506 C2504 1.391 . S
C2506 C2507 1.400 . S
C2507 C2506 1.400 . S
C2507 C2508 1.398 . S
C2507 C2513 1.491 . S
C2508 H2499 0.950 . S
C2508 C2507 1.398 . S
C2508 C2509 1.391 . S
C2509 H2497 0.950 . S
C2509 C2505 1.393 . S
C2509 C2508 1.391 . S
C2510 H2500 0.950 . S
C2510 C2511 1.386 . S
C2510 C2512 1.391 . S
C2511 C2510 1.386 . S
C2511 C2515 1.393 . S
C2512 H2501 0.950 . S
C2512 C2510 1.391 . S
C2512 C2513 1.400 . S
C2513 C2507 1.491 . S
C2513 C2512 1.400 . S
C2513 C2514 1.398 . S
C2514 H2502 0.950 . S
C2514 C2513 1.398 . S
C2514 C2515 1.391 . S
C2515 H2503 0.950 . S
C2515 C2511 1.393 . S
C2515 C2514 1.391 . S
H2516 C2524 0.950 . S
H2517 C2529 0.950 . S
H2518 C2526 0.950 . S
H2519 C2528 0.950 . S
H2520 C2530 0.950 . S
H2521 C2532 0.950 . S
H2522 C2534 0.950 . S
H2523 C2535 0.950 . S
C2524 H2516 0.950 . S
C2524 C2525 1.386 . S
C2524 C2526 1.391 . S
C2525 C2524 1.386 . S
C2525 C2529 1.393 . S
C2526 H2518 0.950 . S
C2526 C2524 1.391 . S
C2526 C2527 1.400 . S
C2527 C2526 1.400 . S
C2527 C2528 1.398 . S
C2527 C2533 1.491 . S
C2528 H2519 0.950 . S
C2528 C2527 1.398 . S
C2528 C2529 1.391 . S
C2529 H2517 0.950 . S
C2529 C2525 1.393 . S
C2529 C2528 1.391 . S
C2530 H2520 0.950 . S
C2530 C2531 1.386 . S
C2530 C2532 1.391 . S
C2531 C2530 1.386 . S
C2531 C2535 1.393 . S
C2532 H2521 0.950 . S
C2532 C2530 1.391 . S
C2532 C2533 1.400 . S
C2533 C2527 1.491 . S
C2533 C2532 1.400 . S
C2533 C2534 1.398 . S
C2534 H2522 0.950 . S
C2534 C2533 1.398 . S
C2534 C2535 1.391 . S
C2535 H2523 0.950 . S
C2535 C2531 1.393 . S
C2535 C2534 1.391 . S
H2536 C2544 0.950 . S
H2537 C2549 0.950 . S
H2538 C2546 0.950 . S
H2539 C2548 0.950 . S
H2540 C2550 0.950 . S
H2541 C2552 0.950 . S
H2542 C2554 0.950 . S
H2543 C2555 0.950 . S
C2544 H2536 0.950 . S
C2544 C2545 1.386 . S
C2544 C2546 1.391 . S
C2545 C2544 1.386 . S
C2545 C2549 1.393 . S
C2546 H2538 0.950 . S
C2546 C2544 1.391 . S
C2546 C2547 1.400 . S
C2547 C2546 1.400 . S
C2547 C2548 1.398 . S
C2547 C2553 1.491 . S
C2548 H2539 0.950 . S
C2548 C2547 1.398 . S
C2548 C2549 1.391 . S
C2549 H2537 0.950 . S
C2549 C2545 1.393 . S
C2549 C2548 1.391 . S
C2550 H2540 0.950 . S
C2550 C2551 1.386 . S
C2550 C2552 1.391 . S
C2551 C2550 1.386 . S
C2551 C2555 1.393 . S
C2552 H2541 0.950 . S
C2552 C2550 1.391 . S
C2552 C2553 1.400 . S
C2553 C2547 1.491 . S
C2553 C2552 1.400 . S
C2553 C2554 1.398 . S
C2554 H2542 0.950 . S
C2554 C2553 1.398 . S
C2554 C2555 1.391 . S
C2555 H2543 0.950 . S
C2555 C2551 1.393 . S
C2555 C2554 1.391 . S
H2556 C2564 0.950 . S
H2557 C2569 0.950 . S
H2558 C2566 0.950 . S
H2559 C2568 0.950 . S
H2560 C2570 0.950 . S
H2561 C2572 0.950 . S
H2562 C2574 0.950 . S
H2563 C2575 0.950 . S
C2564 H2556 0.950 . S
C2564 C2565 1.386 . S
C2564 C2566 1.391 . S
C2565 C2564 1.386 . S
C2565 C2569 1.393 . S
C2566 H2558 0.950 . S
C2566 C2564 1.391 . S
C2566 C2567 1.400 . S
C2567 C2566 1.400 . S
C2567 C2568 1.398 . S
C2567 C2573 1.491 . S
C2568 H2559 0.950 . S
C2568 C2567 1.398 . S
C2568 C2569 1.391 . S
C2569 H2557 0.950 . S
C2569 C2565 1.393 . S
C2569 C2568 1.391 . S
C2570 H2560 0.950 . S
C2570 C2571 1.386 . S
C2570 C2572 1.391 . S
C2571 C2570 1.386 . S
C2571 C2575 1.393 . S
C2572 H2561 0.950 . S
C2572 C2570 1.391 . S
C2572 C2573 1.400 . S
C2573 C2567 1.491 . S
C2573 C2572 1.400 . S
C2573 C2574 1.398 . S
C2574 H2562 0.950 . S
C2574 C2573 1.398 . S
C2574 C2575 1.391 . S
C2575 H2563 0.950 . S
C2575 C2571 1.393 . S
C2575 C2574 1.391 . S
H2576 C2584 0.950 . S
H2577 C2589 0.950 . S
H2578 C2586 0.950 . S
H2579 C2588 0.950 . S
H2580 C2590 0.950 . S
H2581 C2592 0.950 . S
H2582 C2594 0.950 . S
H2583 C2595 0.950 . S
C2584 H2576 0.950 . S
C2584 C2585 1.386 . S
C2584 C2586 1.391 . S
C2585 C2584 1.386 . S
C2585 C2589 1.393 . S
C2586 H2578 0.950 . S
C2586 C2584 1.391 . S
C2586 C2587 1.400 . S
C2587 C2586 1.400 . S
C2587 C2588 1.398 . S
C2587 C2593 1.491 . S
C2588 H2579 0.950 . S
C2588 C2587 1.398 . S
C2588 C2589 1.391 . S
C2589 H2577 0.950 . S
C2589 C2585 1.393 . S
C2589 C2588 1.391 . S
C2590 H2580 0.950 . S
C2590 C2591 1.386 . S
C2590 C2592 1.391 . S
C2591 C2590 1.386 . S
C2591 C2595 1.393 . S
C2592 H2581 0.950 . S
C2592 C2590 1.391 . S
C2592 C2593 1.400 . S
C2593 C2587 1.491 . S
C2593 C2592 1.400 . S
C2593 C2594 1.398 . S
C2594 H2582 0.950 . S
C2594 C2593 1.398 . S
C2594 C2595 1.391 . S
C2595 H2583 0.950 . S
C2595 C2591 1.393 . S
C2595 C2594 1.391 . S
H2596 C2604 0.950 . S
H2597 C2609 0.950 . S
H2598 C2606 0.950 . S
H2599 C2608 0.950 . S
H2600 C2610 0.950 . S
H2601 C2612 0.950 . S
H2602 C2614 0.950 . S
H2603 C2615 0.950 . S
C2604 H2596 0.950 . S
C2604 C2605 1.386 . S
C2604 C2606 1.391 . S
C2605 C2604 1.386 . S
C2605 C2609 1.393 . S
C2606 H2598 0.950 . S
C2606 C2604 1.391 . S
C2606 C2607 1.400 . S
C2607 C2606 1.400 . S
C2607 C2608 1.398 . S
C2607 C2613 1.491 . S
C2608 H2599 0.950 . S
C2608 C2607 1.398 . S
C2608 C2609 1.391 . S
C2609 H2597 0.950 . S
C2609 C2605 1.393 . S
C2609 C2608 1.391 . S
C2610 H2600 0.950 . S
C2610 C2611 1.386 . S
C2610 C2612 1.391 . S
C2611 C2610 1.386 . S
C2611 C2615 1.393 . S
C2612 H2601 0.950 . S
C2612 C2610 1.391 . S
C2612 C2613 1.400 . S
C2613 C2607 1.491 . S
C2613 C2612 1.400 . S
C2613 C2614 1.398 . S
C2614 H2602 0.950 . S
C2614 C2613 1.398 . S
C2614 C2615 1.391 . S
C2615 H2603 0.950 . S
C2615 C2611 1.393 . S
C2615 C2614 1.391 . S
H2616 C2624 0.950 . S
H2617 C2629 0.950 . S
H2618 C2626 0.950 . S
H2619 C2628 0.950 . S
H2620 C2630 0.950 . S
H2621 C2632 0.950 . S
H2622 C2634 0.950 . S
H2623 C2635 0.950 . S
C2624 H2616 0.950 . S
C2624 C2625 1.386 . S
C2624 C2626 1.391 . S
C2625 C2624 1.386 . S
C2625 C2629 1.393 . S
C2626 H2618 0.950 . S
C2626 C2624 1.391 . S
C2626 C2627 1.400 . S
C2627 C2626 1.400 . S
C2627 C2628 1.398 . S
C2627 C2633 1.491 . S
C2628 H2619 0.950 . S
C2628 C2627 1.398 . S
C2628 C2629 1.391 . S
C2629 H2617 0.950 . S
C2629 C2625 1.393 . S
C2629 C2628 1.391 . S
C2630 H2620 0.950 . S
C2630 C2631 1.386 . S
C2630 C2632 1.391 . S
C2631 C2630 1.386 . S
C2631 C2635 1.393 . S
C2632 H2621 0.950 . S
C2632 C2630 1.391 . S
C2632 C2633 1.400 . S
C2633 C2627 1.491 . S
C2633 C2632 1.400 . S
C2633 C2634 1.398 . S
C2634 H2622 0.950 . S
C2634 C2633 1.398 . S
C2634 C2635 1.391 . S
C2635 H2623 0.950 . S
C2635 C2631 1.393 . S
C2635 C2634 1.391 . S
H2636 C2644 0.950 . S
H2637 C2649 0.950 . S
H2638 C2646 0.950 . S
H2639 C2648 0.950 . S
H2640 C2650 0.950 . S
H2641 C2652 0.950 . S
H2642 C2654 0.950 . S
H2643 C2655 0.950 . S
C2644 H2636 0.950 . S
C2644 C2645 1.386 . S
C2644 C2646 1.391 . S
C2645 C2644 1.386 . S
C2645 C2649 1.393 . S
C2646 H2638 0.950 . S
C2646 C2644 1.391 . S
C2646 C2647 1.400 . S
C2647 C2646 1.400 . S
C2647 C2648 1.398 . S
C2647 C2653 1.491 . S
C2648 H2639 0.950 . S
C2648 C2647 1.398 . S
C2648 C2649 1.391 . S
C2649 H2637 0.950 . S
C2649 C2645 1.393 . S
C2649 C2648 1.391 . S
C2650 H2640 0.950 . S
C2650 C2651 1.386 . S
C2650 C2652 1.391 . S
C2651 C2650 1.386 . S
C2651 C2655 1.393 . S
C2652 H2641 0.950 . S
C2652 C2650 1.391 . S
C2652 C2653 1.400 . S
C2653 C2647 1.491 . S
C2653 C2652 1.400 . S
C2653 C2654 1.398 . S
C2654 H2642 0.950 . S
C2654 C2653 1.398 . S
C2654 C2655 1.391 . S
C2655 H2643 0.950 . S
C2655 C2651 1.393 . S
C2655 C2654 1.391 . S
H2656 C2664 0.950 . S
H2657 C2669 0.950 . S
H2658 C2666 0.950 . S
H2659 C2668 0.950 . S
H2660 C2670 0.950 . S
H2661 C2672 0.950 . S
H2662 C2674 0.950 . S
H2663 C2675 0.950 . S
C2664 H2656 0.950 . S
C2664 C2665 1.386 . S
C2664 C2666 1.391 . S
C2665 C2664 1.386 . S
C2665 C2669 1.393 . S
C2666 H2658 0.950 . S
C2666 C2664 1.391 . S
C2666 C2667 1.400 . S
C2667 C2666 1.400 . S
C2667 C2668 1.398 . S
C2667 C2673 1.491 . S
C2668 H2659 0.950 . S
C2668 C2667 1.398 . S
C2668 C2669 1.391 . S
C2669 H2657 0.950 . S
C2669 C2665 1.393 . S
C2669 C2668 1.391 . S
C2670 H2660 0.950 . S
C2670 C2671 1.386 . S
C2670 C2672 1.391 . S
C2671 C2670 1.386 . S
C2671 C2675 1.393 . S
C2672 H2661 0.950 . S
C2672 C2670 1.391 . S
C2672 C2673 1.400 . S
C2673 C2667 1.491 . S
C2673 C2672 1.400 . S
C2673 C2674 1.398 . S
C2674 H2662 0.950 . S
C2674 C2673 1.398 . S
C2674 C2675 1.391 . S
C2675 H2663 0.950 . S
C2675 C2671 1.393 . S
C2675 C2674 1.391 . S
H2676 C2684 0.950 . S
H2677 C2689 0.950 . S
H2678 C2686 0.950 . S
H2679 C2688 0.950 . S
H2680 C2690 0.950 . S
H2681 C2692 0.950 . S
H2682 C2694 0.950 . S
H2683 C2695 0.950 . S
C2684 H2676 0.950 . S
C2684 C2685 1.386 . S
C2684 C2686 1.391 . S
C2685 C2684 1.386 . S
C2685 C2689 1.393 . S
C2686 H2678 0.950 . S
C2686 C2684 1.391 . S
C2686 C2687 1.400 . S
C2687 C2686 1.400 . S
C2687 C2688 1.398 . S
C2687 C2693 1.491 . S
C2688 H2679 0.950 . S
C2688 C2687 1.398 . S
C2688 C2689 1.391 . S
C2689 H2677 0.950 . S
C2689 C2685 1.393 . S
C2689 C2688 1.391 . S
C2690 H2680 0.950 . S
C2690 C2691 1.386 . S
C2690 C2692 1.391 . S
C2691 C2690 1.386 . S
C2691 C2695 1.393 . S
C2692 H2681 0.950 . S
C2692 C2690 1.391 . S
C2692 C2693 1.400 . S
C2693 C2687 1.491 . S
C2693 C2692 1.400 . S
C2693 C2694 1.398 . S
C2694 H2682 0.950 . S
C2694 C2693 1.398 . S
C2694 C2695 1.391 . S
C2695 H2683 0.950 . S
C2695 C2691 1.393 . S
C2695 C2694 1.391 . S
H2696 C2704 0.950 . S
H2697 C2709 0.950 . S
H2698 C2706 0.950 . S
H2699 C2708 0.950 . S
H2700 C2710 0.950 . S
H2701 C2712 0.950 . S
H2702 C2714 0.950 . S
H2703 C2715 0.950 . S
C2704 H2696 0.950 . S
C2704 C2705 1.386 . S
C2704 C2706 1.391 . S
C2705 C2704 1.386 . S
C2705 C2709 1.393 . S
C2706 H2698 0.950 . S
C2706 C2704 1.391 . S
C2706 C2707 1.400 . S
C2707 C2706 1.400 . S
C2707 C2708 1.398 . S
C2707 C2713 1.491 . S
C2708 H2699 0.950 . S
C2708 C2707 1.398 . S
C2708 C2709 1.391 . S
C2709 H2697 0.950 . S
C2709 C2705 1.393 . S
C2709 C2708 1.391 . S
C2710 H2700 0.950 . S
C2710 C2711 1.386 . S
C2710 C2712 1.391 . S
C2711 C2710 1.386 . S
C2711 C2715 1.393 . S
C2712 H2701 0.950 . S
C2712 C2710 1.391 . S
C2712 C2713 1.400 . S
C2713 C2707 1.491 . S
C2713 C2712 1.400 . S
C2713 C2714 1.398 . S
C2714 H2702 0.950 . S
C2714 C2713 1.398 . S
C2714 C2715 1.391 . S
C2715 H2703 0.950 . S
C2715 C2711 1.393 . S
C2715 C2714 1.391 . S
H2716 C2724 0.950 . S
H2717 C2729 0.950 . S
H2718 C2726 0.950 . S
H2719 C2728 0.950 . S
H2720 C2730 0.950 . S
H2721 C2732 0.950 . S
H2722 C2734 0.950 . S
H2723 C2735 0.950 . S
C2724 H2716 0.950 . S
C2724 C2725 1.386 . S
C2724 C2726 1.391 . S
C2725 C2724 1.386 . S
C2725 C2729 1.393 . S
C2726 H2718 0.950 . S
C2726 C2724 1.391 . S
C2726 C2727 1.400 . S
C2727 C2726 1.400 . S
C2727 C2728 1.398 . S
C2727 C2733 1.491 . S
C2728 H2719 0.950 . S
C2728 C2727 1.398 . S
C2728 C2729 1.391 . S
C2729 H2717 0.950 . S
C2729 C2725 1.393 . S
C2729 C2728 1.391 . S
C2730 H2720 0.950 . S
C2730 C2731 1.386 . S
C2730 C2732 1.391 . S
C2731 C2730 1.386 . S
C2731 C2735 1.393 . S
C2732 H2721 0.950 . S
C2732 C2730 1.391 . S
C2732 C2733 1.400 . S
C2733 C2727 1.491 . S
C2733 C2732 1.400 . S
C2733 C2734 1.398 . S
C2734 H2722 0.950 . S
C2734 C2733 1.398 . S
C2734 C2735 1.391 . S
C2735 H2723 0.950 . S
C2735 C2731 1.393 . S
C2735 C2734 1.391 . S
C1305 C14 1.422 . S
C1311 C662 1.422 . S
C1325 C698 1.404 . S
C1331 C50 1.404 . S
C1345 C734 1.415 . S
C1351 C86 1.415 . S
C1365 C122 1.413 . S
C1371 C1202 1.413 . S
C1385 C158 1.410 . S
C1391 C1238 1.410 . S
C1405 C194 1.415 . S
C1411 C1274 1.415 . S
C1425 C878 1.401 . S
C1431 C230 1.401 . S
C1445 C266 1.401 . S
C1451 C914 1.401 . S
C1465 C302 1.423 . S
C1471 C950 1.423 . S
C1485 C554 1.421 . S
C1491 C338 1.421 . S
C1505 C590 1.410 . S
C1511 C374 1.410 . S
C1525 C626 1.423 . S
C1531 C410 1.423 . S
C1545 C1094 1.405 . S
C1551 C446 1.405 . S
C1565 C1130 1.422 . S
C1571 C482 1.422 . S
C1585 C518 1.418 . S
C1591 C1166 1.418 . S
C1605 C986 1.406 . S
C1611 C770 1.406 . S
C1625 C806 1.402 . S
C1631 C1022 1.402 . S
C1645 C842 1.420 . S
C1651 C1058 1.420 . S
C1665 C4 1.428 . S
C1671 C976 1.417 . S
C1685 C1012 1.428 . S
C1691 C40 1.416 . S
C1705 C1048 1.425 . S
C1711 C76 1.427 . S
C1725 C436 1.422 . S
C1731 C112 1.429 . S
C1745 C472 1.426 . S
C1751 C148 1.412 . S
C1765 C508 1.425 . S
C1771 C184 1.427 . S
C1785 C220 1.403 . S
C1791 C760 1.416 . S
C1805 C796 1.418 . S
C1811 C256 1.404 . S
C1825 C832 1.405 . S
C1831 C292 1.405 . S
C1845 C328 1.419 . S
C1851 C1084 1.405 . S
C1865 C364 1.407 . S
C1871 C1120 1.422 . S
C1885 C400 1.425 . S
C1891 C1156 1.428 . S
C1905 C544 1.403 . S
C1911 C868 1.414 . S
C1925 C580 1.403 . S
C1931 C904 1.414 . S
C1945 C616 1.428 . S
C1951 C940 1.424 . S
C1965 C652 1.419 . S
C1971 C1192 1.405 . S
C1985 C1228 1.409 . S
C1991 C688 1.403 . S
C2005 C724 1.415 . S
C2011 C1264 1.428 . S
C2025 C38 1.066 1_455 S
C2031 C3 1.075 . S
C2045 C39 1.050 . S
C2051 C74 1.048 . S
C2065 C75 1.057 . S
C2071 C2 1.049 1_565 S
C2085 C111 1.072 . S
C2091 C182 1.059 1_545 S
C2105 C110 1.069 1_655 S
C2111 C147 1.075 . S
C2125 C183 1.040 . S
C2131 C146 1.068 . S
C2145 C219 1.072 . S
C2151 C254 1.059 1_655 S
C2165 C255 1.042 . S
C2171 C290 1.071 . S
C2185 C291 1.050 . S
C2191 C218 1.048 1_545 S
C2205 C398 1.073 1_565 S
C2211 C327 1.075 . S
C2225 C363 1.046 . S
C2231 C326 1.049 1_455 S
C2245 C362 1.079 . S
C2251 C399 1.052 . S
C2265 C470 1.073 . S
C2271 C435 1.075 . S
C2285 C506 1.081 . S
C2291 C471 1.059 . S
C2305 C434 1.078 . S
C2311 C507 1.071 . S
C2325 C543 1.060 . S
C2331 C614 1.081 . S
C2345 C579 1.050 . S
C2351 C542 1.078 . S
C2365 C615 1.041 . S
C2371 C578 1.069 . S
C2385 C686 1.064 . S
C2391 C651 1.075 . S
C2405 C687 1.038 . S
C2411 C722 1.059 . S
C2425 C723 1.039 . S
C2431 C650 1.056 . S
C2445 C759 1.038 . S
C2451 C830 1.058 . S
C2465 C795 1.041 . S
C2471 C758 1.069 . S
C2485 C794 1.048 . S
C2491 C831 1.054 . S
C2505 C902 1.067 . S
C2511 C867 1.075 . S
C2525 C903 1.045 . S
C2531 C938 1.050 . S
C2545 C866 1.069 . S
C2551 C939 1.075 . S
C2565 C975 1.039 . S
C2571 C1046 1.064 . S
C2585 C1011 1.043 . S
C2591 C974 1.050 . S
C2605 C1047 1.074 . S
C2611 C1010 1.074 . S
C2625 C1083 1.054 . S
C2631 C1118 1.080 . S
C2645 C1119 1.043 . S
C2651 C1154 1.050 . S
C2665 C1155 1.074 . S
C2671 C1082 1.063 . S
C2685 C1191 1.067 . S
C2691 C1262 1.054 . S
C2705 C1227 1.038 . S
C2711 C1190 1.057 . S
C2725 C1226 1.050 . S
C2731 C1263 1.044 . S
