# Generated by pormake.
# Topology hal, (4)-cn, num edge types: 1
# Building blocks:
#     Node 0, Type 0, BuildingBlock: GALJAG_clean_sbu_0, # of connection points: 4
#     Node 1, Type 0, BuildingBlock: GALJAG_clean_sbu_0, # of connection points: 4
#     Node 2, Type 0, BuildingBlock: GALJAG_clean_sbu_0, # of connection points: 4
#     Node 3, Type 0, BuildingBlock: GALJAG_clean_sbu_0, # of connection points: 4
#     Node 4, Type 0, BuildingBlock: GALJAG_clean_sbu_0, # of connection points: 4
#     Node 5, Type 0, BuildingBlock: GALJAG_clean_sbu_0, # of connection points: 4
#     Node 6, Type 0, BuildingBlock: GALJAG_clean_sbu_0, # of connection points: 4
#     Node 7, Type 0, BuildingBlock: GALJAG_clean_sbu_0, # of connection points: 4
#     Node 8, Type 0, BuildingBlock: GALJAG_clean_sbu_0, # of connection points: 4
#     Node 9, Type 0, BuildingBlock: GALJAG_clean_sbu_0, # of connection points: 4
#     Node 10, Type 0, BuildingBlock: GALJAG_clean_sbu_0, # of connection points: 4
#     Node 11, Type 0, BuildingBlock: GALJAG_clean_sbu_0, # of connection points: 4
#     Node 12, Type 0, BuildingBlock: GALJAG_clean_sbu_0, # of connection points: 4
#     Node 13, Type 0, BuildingBlock: GALJAG_clean_sbu_0, # of connection points: 4
#     Node 14, Type 0, BuildingBlock: GALJAG_clean_sbu_0, # of connection points: 4
#     Node 15, Type 0, BuildingBlock: GALJAG_clean_sbu_0, # of connection points: 4
#     Node 16, Type 0, BuildingBlock: GALJAG_clean_sbu_0, # of connection points: 4
#     Node 17, Type 0, BuildingBlock: GALJAG_clean_sbu_0, # of connection points: 4
#     Node 18, Type 0, BuildingBlock: GALJAG_clean_sbu_0, # of connection points: 4
#     Node 19, Type 0, BuildingBlock: GALJAG_clean_sbu_0, # of connection points: 4
#     Node 20, Type 0, BuildingBlock: GALJAG_clean_sbu_0, # of connection points: 4
#     Node 21, Type 0, BuildingBlock: GALJAG_clean_sbu_0, # of connection points: 4
#     Node 22, Type 0, BuildingBlock: GALJAG_clean_sbu_0, # of connection points: 4
#     Node 23, Type 0, BuildingBlock: GALJAG_clean_sbu_0, # of connection points: 4
#     Node 24, Type 0, BuildingBlock: GALJAG_clean_sbu_0, # of connection points: 4
#     Node 25, Type 0, BuildingBlock: GALJAG_clean_sbu_0, # of connection points: 4
#     Node 26, Type 0, BuildingBlock: GALJAG_clean_sbu_0, # of connection points: 4
#     Node 27, Type 0, BuildingBlock: GALJAG_clean_sbu_0, # of connection points: 4
#     Node 28, Type 0, BuildingBlock: GALJAG_clean_sbu_0, # of connection points: 4
#     Node 29, Type 0, BuildingBlock: GALJAG_clean_sbu_0, # of connection points: 4
#     Node 30, Type 0, BuildingBlock: GALJAG_clean_sbu_0, # of connection points: 4
#     Node 31, Type 0, BuildingBlock: GALJAG_clean_sbu_0, # of connection points: 4
#     Node 32, Type 0, BuildingBlock: GALJAG_clean_sbu_0, # of connection points: 4
#     Node 33, Type 0, BuildingBlock: GALJAG_clean_sbu_0, # of connection points: 4
#     Node 34, Type 0, BuildingBlock: GALJAG_clean_sbu_0, # of connection points: 4
#     Node 35, Type 0, BuildingBlock: GALJAG_clean_sbu_0, # of connection points: 4
#     Node 36, Type 0, BuildingBlock: GALJAG_clean_sbu_0, # of connection points: 4
#     Node 37, Type 0, BuildingBlock: GALJAG_clean_sbu_0, # of connection points: 4
#     Node 38, Type 0, BuildingBlock: GALJAG_clean_sbu_0, # of connection points: 4
#     Node 39, Type 0, BuildingBlock: GALJAG_clean_sbu_0, # of connection points: 4
#     Node 40, Type 0, BuildingBlock: GALJAG_clean_sbu_0, # of connection points: 4
#     Node 41, Type 0, BuildingBlock: GALJAG_clean_sbu_0, # of connection points: 4
#     Node 42, Type 0, BuildingBlock: GALJAG_clean_sbu_0, # of connection points: 4
#     Node 43, Type 0, BuildingBlock: GALJAG_clean_sbu_0, # of connection points: 4
#     Node 44, Type 0, BuildingBlock: GALJAG_clean_sbu_0, # of connection points: 4
#     Node 45, Type 0, BuildingBlock: GALJAG_clean_sbu_0, # of connection points: 4
#     Node 46, Type 0, BuildingBlock: GALJAG_clean_sbu_0, # of connection points: 4
#     Node 47, Type 0, BuildingBlock: GALJAG_clean_sbu_0, # of connection points: 4
#     Node 48, Type 0, BuildingBlock: GALJAG_clean_sbu_0, # of connection points: 4
#     Node 49, Type 0, BuildingBlock: GALJAG_clean_sbu_0, # of connection points: 4
#     Node 50, Type 0, BuildingBlock: GALJAG_clean_sbu_0, # of connection points: 4
#     Node 51, Type 0, BuildingBlock: GALJAG_clean_sbu_0, # of connection points: 4
#     Node 52, Type 0, BuildingBlock: GALJAG_clean_sbu_0, # of connection points: 4
#     Node 53, Type 0, BuildingBlock: GALJAG_clean_sbu_0, # of connection points: 4
#     Node 54, Type 0, BuildingBlock: GALJAG_clean_sbu_0, # of connection points: 4
#     Node 55, Type 0, BuildingBlock: GALJAG_clean_sbu_0, # of connection points: 4
#     Node 56, Type 0, BuildingBlock: GALJAG_clean_sbu_0, # of connection points: 4
#     Node 57, Type 0, BuildingBlock: GALJAG_clean_sbu_0, # of connection points: 4
#     Node 58, Type 0, BuildingBlock: GALJAG_clean_sbu_0, # of connection points: 4
#     Node 59, Type 0, BuildingBlock: GALJAG_clean_sbu_0, # of connection points: 4
#     Node 60, Type 0, BuildingBlock: GALJAG_clean_sbu_0, # of connection points: 4
#     Node 61, Type 0, BuildingBlock: GALJAG_clean_sbu_0, # of connection points: 4
#     Node 62, Type 0, BuildingBlock: GALJAG_clean_sbu_0, # of connection points: 4
#     Node 63, Type 0, BuildingBlock: GALJAG_clean_sbu_0, # of connection points: 4
#     Node 64, Type 0, BuildingBlock: GALJAG_clean_sbu_0, # of connection points: 4
#     Node 65, Type 0, BuildingBlock: GALJAG_clean_sbu_0, # of connection points: 4
#     Node 66, Type 0, BuildingBlock: GALJAG_clean_sbu_0, # of connection points: 4
#     Node 67, Type 0, BuildingBlock: GALJAG_clean_sbu_0, # of connection points: 4
#     Node 68, Type 0, BuildingBlock: GALJAG_clean_sbu_0, # of connection points: 4
#     Node 69, Type 0, BuildingBlock: GALJAG_clean_sbu_0, # of connection points: 4
#     Node 70, Type 0, BuildingBlock: GALJAG_clean_sbu_0, # of connection points: 4
#     Node 71, Type 0, BuildingBlock: GALJAG_clean_sbu_0, # of connection points: 4
#     Node 72, Type 0, BuildingBlock: GALJAG_clean_sbu_0, # of connection points: 4
#     Node 73, Type 0, BuildingBlock: GALJAG_clean_sbu_0, # of connection points: 4
#     Node 74, Type 0, BuildingBlock: GALJAG_clean_sbu_0, # of connection points: 4
#     Node 75, Type 0, BuildingBlock: GALJAG_clean_sbu_0, # of connection points: 4
#     Node 76, Type 0, BuildingBlock: GALJAG_clean_sbu_0, # of connection points: 4
#     Node 77, Type 0, BuildingBlock: GALJAG_clean_sbu_0, # of connection points: 4
#     Node 78, Type 0, BuildingBlock: GALJAG_clean_sbu_0, # of connection points: 4
#     Node 79, Type 0, BuildingBlock: GALJAG_clean_sbu_0, # of connection points: 4
#     Node 80, Type 0, BuildingBlock: GALJAG_clean_sbu_0, # of connection points: 4
#     Node 81, Type 0, BuildingBlock: GALJAG_clean_sbu_0, # of connection points: 4
#     Node 82, Type 0, BuildingBlock: GALJAG_clean_sbu_0, # of connection points: 4
#     Node 83, Type 0, BuildingBlock: GALJAG_clean_sbu_0, # of connection points: 4
#     Node 84, Type 0, BuildingBlock: GALJAG_clean_sbu_0, # of connection points: 4
#     Node 85, Type 0, BuildingBlock: GALJAG_clean_sbu_0, # of connection points: 4
#     Node 86, Type 0, BuildingBlock: GALJAG_clean_sbu_0, # of connection points: 4
#     Node 87, Type 0, BuildingBlock: GALJAG_clean_sbu_0, # of connection points: 4
#     Node 88, Type 0, BuildingBlock: GALJAG_clean_sbu_0, # of connection points: 4
#     Node 89, Type 0, BuildingBlock: GALJAG_clean_sbu_0, # of connection points: 4
#     Node 90, Type 0, BuildingBlock: GALJAG_clean_sbu_0, # of connection points: 4
#     Node 91, Type 0, BuildingBlock: GALJAG_clean_sbu_0, # of connection points: 4
#     Node 92, Type 0, BuildingBlock: GALJAG_clean_sbu_0, # of connection points: 4
#     Node 93, Type 0, BuildingBlock: GALJAG_clean_sbu_0, # of connection points: 4
#     Node 94, Type 0, BuildingBlock: GALJAG_clean_sbu_0, # of connection points: 4
#     Node 95, Type 0, BuildingBlock: GALJAG_clean_sbu_0, # of connection points: 4
#     Edge 96, Type (0, 0), BuildingBlock: AJUNOK_clean_linker_0, # of connection points: 2
#     Edge 97, Type (0, 0), BuildingBlock: AJUNOK_clean_linker_0, # of connection points: 2
#     Edge 98, Type (0, 0), BuildingBlock: AJUNOK_clean_linker_0, # of connection points: 2
#     Edge 99, Type (0, 0), BuildingBlock: AJUNOK_clean_linker_0, # of connection points: 2
#     Edge 100, Type (0, 0), BuildingBlock: AJUNOK_clean_linker_0, # of connection points: 2
#     Edge 101, Type (0, 0), BuildingBlock: AJUNOK_clean_linker_0, # of connection points: 2
#     Edge 102, Type (0, 0), BuildingBlock: AJUNOK_clean_linker_0, # of connection points: 2
#     Edge 103, Type (0, 0), BuildingBlock: AJUNOK_clean_linker_0, # of connection points: 2
#     Edge 104, Type (0, 0), BuildingBlock: AJUNOK_clean_linker_0, # of connection points: 2
#     Edge 105, Type (0, 0), BuildingBlock: AJUNOK_clean_linker_0, # of connection points: 2
#     Edge 106, Type (0, 0), BuildingBlock: AJUNOK_clean_linker_0, # of connection points: 2
#     Edge 107, Type (0, 0), BuildingBlock: AJUNOK_clean_linker_0, # of connection points: 2
#     Edge 108, Type (0, 0), BuildingBlock: AJUNOK_clean_linker_0, # of connection points: 2
#     Edge 109, Type (0, 0), BuildingBlock: AJUNOK_clean_linker_0, # of connection points: 2
#     Edge 110, Type (0, 0), BuildingBlock: AJUNOK_clean_linker_0, # of connection points: 2
#     Edge 111, Type (0, 0), BuildingBlock: AJUNOK_clean_linker_0, # of connection points: 2
#     Edge 112, Type (0, 0), BuildingBlock: AJUNOK_clean_linker_0, # of connection points: 2
#     Edge 113, Type (0, 0), BuildingBlock: AJUNOK_clean_linker_0, # of connection points: 2
#     Edge 114, Type (0, 0), BuildingBlock: AJUNOK_clean_linker_0, # of connection points: 2
#     Edge 115, Type (0, 0), BuildingBlock: AJUNOK_clean_linker_0, # of connection points: 2
#     Edge 116, Type (0, 0), BuildingBlock: AJUNOK_clean_linker_0, # of connection points: 2
#     Edge 117, Type (0, 0), BuildingBlock: AJUNOK_clean_linker_0, # of connection points: 2
#     Edge 118, Type (0, 0), BuildingBlock: AJUNOK_clean_linker_0, # of connection points: 2
#     Edge 119, Type (0, 0), BuildingBlock: AJUNOK_clean_linker_0, # of connection points: 2
#     Edge 120, Type (0, 0), BuildingBlock: AJUNOK_clean_linker_0, # of connection points: 2
#     Edge 121, Type (0, 0), BuildingBlock: AJUNOK_clean_linker_0, # of connection points: 2
#     Edge 122, Type (0, 0), BuildingBlock: AJUNOK_clean_linker_0, # of connection points: 2
#     Edge 123, Type (0, 0), BuildingBlock: AJUNOK_clean_linker_0, # of connection points: 2
#     Edge 124, Type (0, 0), BuildingBlock: AJUNOK_clean_linker_0, # of connection points: 2
#     Edge 125, Type (0, 0), BuildingBlock: AJUNOK_clean_linker_0, # of connection points: 2
#     Edge 126, Type (0, 0), BuildingBlock: AJUNOK_clean_linker_0, # of connection points: 2
#     Edge 127, Type (0, 0), BuildingBlock: AJUNOK_clean_linker_0, # of connection points: 2
#     Edge 128, Type (0, 0), BuildingBlock: AJUNOK_clean_linker_0, # of connection points: 2
#     Edge 129, Type (0, 0), BuildingBlock: AJUNOK_clean_linker_0, # of connection points: 2
#     Edge 130, Type (0, 0), BuildingBlock: AJUNOK_clean_linker_0, # of connection points: 2
#     Edge 131, Type (0, 0), BuildingBlock: AJUNOK_clean_linker_0, # of connection points: 2
#     Edge 132, Type (0, 0), BuildingBlock: AJUNOK_clean_linker_0, # of connection points: 2
#     Edge 133, Type (0, 0), BuildingBlock: AJUNOK_clean_linker_0, # of connection points: 2
#     Edge 134, Type (0, 0), BuildingBlock: AJUNOK_clean_linker_0, # of connection points: 2
#     Edge 135, Type (0, 0), BuildingBlock: AJUNOK_clean_linker_0, # of connection points: 2
#     Edge 136, Type (0, 0), BuildingBlock: AJUNOK_clean_linker_0, # of connection points: 2
#     Edge 137, Type (0, 0), BuildingBlock: AJUNOK_clean_linker_0, # of connection points: 2
#     Edge 138, Type (0, 0), BuildingBlock: AJUNOK_clean_linker_0, # of connection points: 2
#     Edge 139, Type (0, 0), BuildingBlock: AJUNOK_clean_linker_0, # of connection points: 2
#     Edge 140, Type (0, 0), BuildingBlock: AJUNOK_clean_linker_0, # of connection points: 2
#     Edge 141, Type (0, 0), BuildingBlock: AJUNOK_clean_linker_0, # of connection points: 2
#     Edge 142, Type (0, 0), BuildingBlock: AJUNOK_clean_linker_0, # of connection points: 2
#     Edge 143, Type (0, 0), BuildingBlock: AJUNOK_clean_linker_0, # of connection points: 2
#     Edge 144, Type (0, 0), BuildingBlock: AJUNOK_clean_linker_0, # of connection points: 2
#     Edge 145, Type (0, 0), BuildingBlock: AJUNOK_clean_linker_0, # of connection points: 2
#     Edge 146, Type (0, 0), BuildingBlock: AJUNOK_clean_linker_0, # of connection points: 2
#     Edge 147, Type (0, 0), BuildingBlock: AJUNOK_clean_linker_0, # of connection points: 2
#     Edge 148, Type (0, 0), BuildingBlock: AJUNOK_clean_linker_0, # of connection points: 2
#     Edge 149, Type (0, 0), BuildingBlock: AJUNOK_clean_linker_0, # of connection points: 2
#     Edge 150, Type (0, 0), BuildingBlock: AJUNOK_clean_linker_0, # of connection points: 2
#     Edge 151, Type (0, 0), BuildingBlock: AJUNOK_clean_linker_0, # of connection points: 2
#     Edge 152, Type (0, 0), BuildingBlock: AJUNOK_clean_linker_0, # of connection points: 2
#     Edge 153, Type (0, 0), BuildingBlock: AJUNOK_clean_linker_0, # of connection points: 2
#     Edge 154, Type (0, 0), BuildingBlock: AJUNOK_clean_linker_0, # of connection points: 2
#     Edge 155, Type (0, 0), BuildingBlock: AJUNOK_clean_linker_0, # of connection points: 2
#     Edge 156, Type (0, 0), BuildingBlock: AJUNOK_clean_linker_0, # of connection points: 2
#     Edge 157, Type (0, 0), BuildingBlock: AJUNOK_clean_linker_0, # of connection points: 2
#     Edge 158, Type (0, 0), BuildingBlock: AJUNOK_clean_linker_0, # of connection points: 2
#     Edge 159, Type (0, 0), BuildingBlock: AJUNOK_clean_linker_0, # of connection points: 2
#     Edge 160, Type (0, 0), BuildingBlock: AJUNOK_clean_linker_0, # of connection points: 2
#     Edge 161, Type (0, 0), BuildingBlock: AJUNOK_clean_linker_0, # of connection points: 2
#     Edge 162, Type (0, 0), BuildingBlock: AJUNOK_clean_linker_0, # of connection points: 2
#     Edge 163, Type (0, 0), BuildingBlock: AJUNOK_clean_linker_0, # of connection points: 2
#     Edge 164, Type (0, 0), BuildingBlock: AJUNOK_clean_linker_0, # of connection points: 2
#     Edge 165, Type (0, 0), BuildingBlock: AJUNOK_clean_linker_0, # of connection points: 2
#     Edge 166, Type (0, 0), BuildingBlock: AJUNOK_clean_linker_0, # of connection points: 2
#     Edge 167, Type (0, 0), BuildingBlock: AJUNOK_clean_linker_0, # of connection points: 2
#     Edge 168, Type (0, 0), BuildingBlock: AJUNOK_clean_linker_0, # of connection points: 2
#     Edge 169, Type (0, 0), BuildingBlock: AJUNOK_clean_linker_0, # of connection points: 2
#     Edge 170, Type (0, 0), BuildingBlock: AJUNOK_clean_linker_0, # of connection points: 2
#     Edge 171, Type (0, 0), BuildingBlock: AJUNOK_clean_linker_0, # of connection points: 2
#     Edge 172, Type (0, 0), BuildingBlock: AJUNOK_clean_linker_0, # of connection points: 2
#     Edge 173, Type (0, 0), BuildingBlock: AJUNOK_clean_linker_0, # of connection points: 2
#     Edge 174, Type (0, 0), BuildingBlock: AJUNOK_clean_linker_0, # of connection points: 2
#     Edge 175, Type (0, 0), BuildingBlock: AJUNOK_clean_linker_0, # of connection points: 2
#     Edge 176, Type (0, 0), BuildingBlock: AJUNOK_clean_linker_0, # of connection points: 2
#     Edge 177, Type (0, 0), BuildingBlock: AJUNOK_clean_linker_0, # of connection points: 2
#     Edge 178, Type (0, 0), BuildingBlock: AJUNOK_clean_linker_0, # of connection points: 2
#     Edge 179, Type (0, 0), BuildingBlock: AJUNOK_clean_linker_0, # of connection points: 2
#     Edge 180, Type (0, 0), BuildingBlock: AJUNOK_clean_linker_0, # of connection points: 2
#     Edge 181, Type (0, 0), BuildingBlock: AJUNOK_clean_linker_0, # of connection points: 2
#     Edge 182, Type (0, 0), BuildingBlock: AJUNOK_clean_linker_0, # of connection points: 2
#     Edge 183, Type (0, 0), BuildingBlock: AJUNOK_clean_linker_0, # of connection points: 2
#     Edge 184, Type (0, 0), BuildingBlock: AJUNOK_clean_linker_0, # of connection points: 2
#     Edge 185, Type (0, 0), BuildingBlock: AJUNOK_clean_linker_0, # of connection points: 2
#     Edge 186, Type (0, 0), BuildingBlock: AJUNOK_clean_linker_0, # of connection points: 2
#     Edge 187, Type (0, 0), BuildingBlock: AJUNOK_clean_linker_0, # of connection points: 2
#     Edge 188, Type (0, 0), BuildingBlock: AJUNOK_clean_linker_0, # of connection points: 2
#     Edge 189, Type (0, 0), BuildingBlock: AJUNOK_clean_linker_0, # of connection points: 2
#     Edge 190, Type (0, 0), BuildingBlock: AJUNOK_clean_linker_0, # of connection points: 2
#     Edge 191, Type (0, 0), BuildingBlock: AJUNOK_clean_linker_0, # of connection points: 2
#     Edge 192, Type (0, 0), BuildingBlock: AJUNOK_clean_linker_0, # of connection points: 2
#     Edge 193, Type (0, 0), BuildingBlock: AJUNOK_clean_linker_0, # of connection points: 2
#     Edge 194, Type (0, 0), BuildingBlock: AJUNOK_clean_linker_0, # of connection points: 2
#     Edge 195, Type (0, 0), BuildingBlock: AJUNOK_clean_linker_0, # of connection points: 2
#     Edge 196, Type (0, 0), BuildingBlock: AJUNOK_clean_linker_0, # of connection points: 2
#     Edge 197, Type (0, 0), BuildingBlock: AJUNOK_clean_linker_0, # of connection points: 2
#     Edge 198, Type (0, 0), BuildingBlock: AJUNOK_clean_linker_0, # of connection points: 2
#     Edge 199, Type (0, 0), BuildingBlock: AJUNOK_clean_linker_0, # of connection points: 2
#     Edge 200, Type (0, 0), BuildingBlock: AJUNOK_clean_linker_0, # of connection points: 2
#     Edge 201, Type (0, 0), BuildingBlock: AJUNOK_clean_linker_0, # of connection points: 2
#     Edge 202, Type (0, 0), BuildingBlock: AJUNOK_clean_linker_0, # of connection points: 2
#     Edge 203, Type (0, 0), BuildingBlock: AJUNOK_clean_linker_0, # of connection points: 2
#     Edge 204, Type (0, 0), BuildingBlock: AJUNOK_clean_linker_0, # of connection points: 2
#     Edge 205, Type (0, 0), BuildingBlock: AJUNOK_clean_linker_0, # of connection points: 2
#     Edge 206, Type (0, 0), BuildingBlock: AJUNOK_clean_linker_0, # of connection points: 2
#     Edge 207, Type (0, 0), BuildingBlock: AJUNOK_clean_linker_0, # of connection points: 2
#     Edge 208, Type (0, 0), BuildingBlock: AJUNOK_clean_linker_0, # of connection points: 2
#     Edge 209, Type (0, 0), BuildingBlock: AJUNOK_clean_linker_0, # of connection points: 2
#     Edge 210, Type (0, 0), BuildingBlock: AJUNOK_clean_linker_0, # of connection points: 2
#     Edge 211, Type (0, 0), BuildingBlock: AJUNOK_clean_linker_0, # of connection points: 2
#     Edge 212, Type (0, 0), BuildingBlock: AJUNOK_clean_linker_0, # of connection points: 2
#     Edge 213, Type (0, 0), BuildingBlock: AJUNOK_clean_linker_0, # of connection points: 2
#     Edge 214, Type (0, 0), BuildingBlock: AJUNOK_clean_linker_0, # of connection points: 2
#     Edge 215, Type (0, 0), BuildingBlock: AJUNOK_clean_linker_0, # of connection points: 2
#     Edge 216, Type (0, 0), BuildingBlock: AJUNOK_clean_linker_0, # of connection points: 2
#     Edge 217, Type (0, 0), BuildingBlock: AJUNOK_clean_linker_0, # of connection points: 2
#     Edge 218, Type (0, 0), BuildingBlock: AJUNOK_clean_linker_0, # of connection points: 2
#     Edge 219, Type (0, 0), BuildingBlock: AJUNOK_clean_linker_0, # of connection points: 2
#     Edge 220, Type (0, 0), BuildingBlock: AJUNOK_clean_linker_0, # of connection points: 2
#     Edge 221, Type (0, 0), BuildingBlock: AJUNOK_clean_linker_0, # of connection points: 2
#     Edge 222, Type (0, 0), BuildingBlock: AJUNOK_clean_linker_0, # of connection points: 2
#     Edge 223, Type (0, 0), BuildingBlock: AJUNOK_clean_linker_0, # of connection points: 2
#     Edge 224, Type (0, 0), BuildingBlock: AJUNOK_clean_linker_0, # of connection points: 2
#     Edge 225, Type (0, 0), BuildingBlock: AJUNOK_clean_linker_0, # of connection points: 2
#     Edge 226, Type (0, 0), BuildingBlock: AJUNOK_clean_linker_0, # of connection points: 2
#     Edge 227, Type (0, 0), BuildingBlock: AJUNOK_clean_linker_0, # of connection points: 2
#     Edge 228, Type (0, 0), BuildingBlock: AJUNOK_clean_linker_0, # of connection points: 2
#     Edge 229, Type (0, 0), BuildingBlock: AJUNOK_clean_linker_0, # of connection points: 2
#     Edge 230, Type (0, 0), BuildingBlock: AJUNOK_clean_linker_0, # of connection points: 2
#     Edge 231, Type (0, 0), BuildingBlock: AJUNOK_clean_linker_0, # of connection points: 2
#     Edge 232, Type (0, 0), BuildingBlock: AJUNOK_clean_linker_0, # of connection points: 2
#     Edge 233, Type (0, 0), BuildingBlock: AJUNOK_clean_linker_0, # of connection points: 2
#     Edge 234, Type (0, 0), BuildingBlock: AJUNOK_clean_linker_0, # of connection points: 2
#     Edge 235, Type (0, 0), BuildingBlock: AJUNOK_clean_linker_0, # of connection points: 2
#     Edge 236, Type (0, 0), BuildingBlock: AJUNOK_clean_linker_0, # of connection points: 2
#     Edge 237, Type (0, 0), BuildingBlock: AJUNOK_clean_linker_0, # of connection points: 2
#     Edge 238, Type (0, 0), BuildingBlock: AJUNOK_clean_linker_0, # of connection points: 2
#     Edge 239, Type (0, 0), BuildingBlock: AJUNOK_clean_linker_0, # of connection points: 2
#     Edge 240, Type (0, 0), BuildingBlock: AJUNOK_clean_linker_0, # of connection points: 2
#     Edge 241, Type (0, 0), BuildingBlock: AJUNOK_clean_linker_0, # of connection points: 2
#     Edge 242, Type (0, 0), BuildingBlock: AJUNOK_clean_linker_0, # of connection points: 2
#     Edge 243, Type (0, 0), BuildingBlock: AJUNOK_clean_linker_0, # of connection points: 2
#     Edge 244, Type (0, 0), BuildingBlock: AJUNOK_clean_linker_0, # of connection points: 2
#     Edge 245, Type (0, 0), BuildingBlock: AJUNOK_clean_linker_0, # of connection points: 2
#     Edge 246, Type (0, 0), BuildingBlock: AJUNOK_clean_linker_0, # of connection points: 2
#     Edge 247, Type (0, 0), BuildingBlock: AJUNOK_clean_linker_0, # of connection points: 2
#     Edge 248, Type (0, 0), BuildingBlock: AJUNOK_clean_linker_0, # of connection points: 2
#     Edge 249, Type (0, 0), BuildingBlock: AJUNOK_clean_linker_0, # of connection points: 2
#     Edge 250, Type (0, 0), BuildingBlock: AJUNOK_clean_linker_0, # of connection points: 2
#     Edge 251, Type (0, 0), BuildingBlock: AJUNOK_clean_linker_0, # of connection points: 2
#     Edge 252, Type (0, 0), BuildingBlock: AJUNOK_clean_linker_0, # of connection points: 2
#     Edge 253, Type (0, 0), BuildingBlock: AJUNOK_clean_linker_0, # of connection points: 2
#     Edge 254, Type (0, 0), BuildingBlock: AJUNOK_clean_linker_0, # of connection points: 2
#     Edge 255, Type (0, 0), BuildingBlock: AJUNOK_clean_linker_0, # of connection points: 2
#     Edge 256, Type (0, 0), BuildingBlock: AJUNOK_clean_linker_0, # of connection points: 2
#     Edge 257, Type (0, 0), BuildingBlock: AJUNOK_clean_linker_0, # of connection points: 2
#     Edge 258, Type (0, 0), BuildingBlock: AJUNOK_clean_linker_0, # of connection points: 2
#     Edge 259, Type (0, 0), BuildingBlock: AJUNOK_clean_linker_0, # of connection points: 2
#     Edge 260, Type (0, 0), BuildingBlock: AJUNOK_clean_linker_0, # of connection points: 2
#     Edge 261, Type (0, 0), BuildingBlock: AJUNOK_clean_linker_0, # of connection points: 2
#     Edge 262, Type (0, 0), BuildingBlock: AJUNOK_clean_linker_0, # of connection points: 2
#     Edge 263, Type (0, 0), BuildingBlock: AJUNOK_clean_linker_0, # of connection points: 2
#     Edge 264, Type (0, 0), BuildingBlock: AJUNOK_clean_linker_0, # of connection points: 2
#     Edge 265, Type (0, 0), BuildingBlock: AJUNOK_clean_linker_0, # of connection points: 2
#     Edge 266, Type (0, 0), BuildingBlock: AJUNOK_clean_linker_0, # of connection points: 2
#     Edge 267, Type (0, 0), BuildingBlock: AJUNOK_clean_linker_0, # of connection points: 2
#     Edge 268, Type (0, 0), BuildingBlock: AJUNOK_clean_linker_0, # of connection points: 2
#     Edge 269, Type (0, 0), BuildingBlock: AJUNOK_clean_linker_0, # of connection points: 2
#     Edge 270, Type (0, 0), BuildingBlock: AJUNOK_clean_linker_0, # of connection points: 2
#     Edge 271, Type (0, 0), BuildingBlock: AJUNOK_clean_linker_0, # of connection points: 2
#     Edge 272, Type (0, 0), BuildingBlock: AJUNOK_clean_linker_0, # of connection points: 2
#     Edge 273, Type (0, 0), BuildingBlock: AJUNOK_clean_linker_0, # of connection points: 2
#     Edge 274, Type (0, 0), BuildingBlock: AJUNOK_clean_linker_0, # of connection points: 2
#     Edge 275, Type (0, 0), BuildingBlock: AJUNOK_clean_linker_0, # of connection points: 2
#     Edge 276, Type (0, 0), BuildingBlock: AJUNOK_clean_linker_0, # of connection points: 2
#     Edge 277, Type (0, 0), BuildingBlock: AJUNOK_clean_linker_0, # of connection points: 2
#     Edge 278, Type (0, 0), BuildingBlock: AJUNOK_clean_linker_0, # of connection points: 2
#     Edge 279, Type (0, 0), BuildingBlock: AJUNOK_clean_linker_0, # of connection points: 2
#     Edge 280, Type (0, 0), BuildingBlock: AJUNOK_clean_linker_0, # of connection points: 2
#     Edge 281, Type (0, 0), BuildingBlock: AJUNOK_clean_linker_0, # of connection points: 2
#     Edge 282, Type (0, 0), BuildingBlock: AJUNOK_clean_linker_0, # of connection points: 2
#     Edge 283, Type (0, 0), BuildingBlock: AJUNOK_clean_linker_0, # of connection points: 2
#     Edge 284, Type (0, 0), BuildingBlock: AJUNOK_clean_linker_0, # of connection points: 2
#     Edge 285, Type (0, 0), BuildingBlock: AJUNOK_clean_linker_0, # of connection points: 2
#     Edge 286, Type (0, 0), BuildingBlock: AJUNOK_clean_linker_0, # of connection points: 2
#     Edge 287, Type (0, 0), BuildingBlock: AJUNOK_clean_linker_0, # of connection points: 2
# Relax obj value: 0.181
# Max RMSD: 0.203
# Mean RMSD: 0.203
data_MOF--net-hal--node1-GALJAG_clean_sbu_0--edge1-AJUNOK_clean_linker_0
_symmetry_space_group_name_H-M    P1
_symmetry_Int_Tables_number       1
_symmetry_cell_setting            triclinic
loop_
_symmetry_equiv_pos_as_xyz
'x, y, z'
_cell_length_a     68.251653
_cell_length_b     68.279322
_cell_length_c     68.284358
_cell_angle_alpha  89.923424
_cell_angle_beta   90.038465
_cell_angle_gamma 90.028624
loop_
_atom_site_label
_atom_site_type_symbol
_atom_site_fract_x
_atom_site_fract_y
_atom_site_fract_z
_atom_type_partial_charge
In0 In 0.07273 0.18159 0.29673 0.0
O1 O 0.07015 0.21344 0.28742 0.0
O2 O 0.06879 0.19163 0.26529 0.0
C3 C 0.09334 0.19132 0.32887 0.0
C4 C 0.03473 0.17416 0.30353 0.0
C5 C 0.09621 0.15211 0.28526 0.0
O6 O 0.09536 0.19999 0.31268 0.0
O7 O 0.08057 0.17796 0.32892 0.0
O8 O 0.08136 0.1494 0.29592 0.0
O9 O 0.09886 0.16962 0.28007 0.0
C10 C 0.06842 0.20962 0.26943 0.0
O11 O 0.04433 0.16544 0.29039 0.0
O12 O 0.04444 0.18643 0.31333 0.0
In13 In 0.79752 0.07085 0.30953 0.0
O14 O 0.76614 0.06938 0.29838 0.0
O15 O 0.78853 0.07493 0.27764 0.0
C16 C 0.79067 0.08896 0.34371 0.0
C17 C 0.80206 0.03207 0.31427 0.0
C18 C 0.82867 0.09315 0.30094 0.0
O19 O 0.77955 0.0907 0.32903 0.0
O20 O 0.80468 0.07708 0.34144 0.0
O21 O 0.82963 0.0747 0.3007 0.0
O22 O 0.81207 0.10016 0.30487 0.0
C23 C 0.77051 0.07247 0.28074 0.0
O24 O 0.81225 0.04199 0.3025 0.0
O25 O 0.78992 0.04188 0.32411 0.0
In26 In 0.91341 0.80162 0.30824 0.0
O27 O 0.94179 0.8176 0.30185 0.0
O28 O 0.94243 0.79486 0.32308 0.0
C29 C 0.89194 0.83273 0.29716 0.0
C30 C 0.91584 0.77331 0.28117 0.0
C31 C 0.89111 0.7918 0.33915 0.0
O32 O 0.90485 0.83377 0.31036 0.0
O33 O 0.89027 0.81611 0.28933 0.0
O34 O 0.88889 0.7844 0.32241 0.0
O35 O 0.90504 0.80389 0.34046 0.0
C36 C 0.9519 0.8076 0.31363 0.0
O37 O 0.91554 0.76972 0.29929 0.0
O38 O 0.91506 0.79125 0.27676 0.0
In39 In 0.18247 0.91365 0.29675 0.0
O40 O 0.16871 0.94287 0.2887 0.0
O41 O 0.18888 0.94213 0.3124 0.0
C42 C 0.15142 0.8914 0.28704 0.0
C43 C 0.21026 0.91547 0.26898 0.0
C44 C 0.19168 0.89435 0.32987 0.0
O45 O 0.14976 0.90712 0.29657 0.0
O46 O 0.16869 0.88727 0.282 0.0
O47 O 0.20012 0.89111 0.31376 0.0
O48 O 0.17881 0.9076 0.32928 0.0
C49 C 0.17779 0.95232 0.30171 0.0
O50 O 0.21424 0.91432 0.28699 0.0
O51 O 0.19222 0.9155 0.26501 0.0
In52 In 0.07526 0.79816 0.68727 0.0
O53 O 0.04742 0.81531 0.69302 0.0
O54 O 0.04685 0.79372 0.67062 0.0
C55 C 0.09847 0.82781 0.69903 0.0
C56 C 0.07041 0.76956 0.71396 0.0
C57 C 0.09569 0.78939 0.65477 0.0
O58 O 0.08294 0.83048 0.68939 0.0
O59 O 0.10203 0.81016 0.70313 0.0
O60 O 0.09891 0.78129 0.67107 0.0
O61 O 0.08187 0.80163 0.65484 0.0
C62 C 0.03762 0.80673 0.67992 0.0
O63 O 0.07201 0.76617 0.69589 0.0
O64 O 0.07114 0.78743 0.71852 0.0
In65 In 0.18466 0.06919 0.6874 0.0
O66 O 0.21614 0.06966 0.69823 0.0
O67 O 0.19345 0.06704 0.71937 0.0
C68 C 0.19279 0.08848 0.65397 0.0
C69 C 0.1802 0.03046 0.6826 0.0
C70 C 0.1539 0.09145 0.69775 0.0
O71 O 0.20164 0.0918 0.66984 0.0
O72 O 0.18021 0.07497 0.65487 0.0
O73 O 0.15198 0.07571 0.68829 0.0
O74 O 0.1713 0.09565 0.70231 0.0
C75 C 0.2116 0.06805 0.71607 0.0
O76 O 0.16919 0.04046 0.69352 0.0
O77 O 0.19326 0.04014 0.6738 0.0
In78 In 0.91203 0.17989 0.68653 0.0
O79 O 0.91639 0.21088 0.69765 0.0
O80 O 0.90742 0.18924 0.71813 0.0
C81 C 0.88976 0.19582 0.65823 0.0
C82 C 0.95065 0.17361 0.68287 0.0
C83 C 0.89417 0.14478 0.68849 0.0
O84 O 0.88379 0.19369 0.67558 0.0
O85 O 0.90705 0.19007 0.65527 0.0
O86 O 0.90489 0.14973 0.67431 0.0
O87 O 0.89298 0.15734 0.70195 0.0
C88 C 0.91179 0.20694 0.71508 0.0
O89 O 0.94094 0.16714 0.69719 0.0
O90 O 0.94077 0.183 0.67043 0.0
In91 In 0.79458 0.91149 0.68352 0.0
O92 O 0.76464 0.91369 0.6978 0.0
O93 O 0.78962 0.91371 0.71636 0.0
C94 C 0.78046 0.88665 0.6564 0.0
C95 C 0.79912 0.94956 0.67494 0.0
C96 C 0.82962 0.89402 0.68757 0.0
O97 O 0.7803 0.88284 0.67446 0.0
O98 O 0.78726 0.90329 0.65209 0.0
O99 O 0.82583 0.90575 0.6738 0.0
O100 O 0.81574 0.89133 0.69947 0.0
C101 C 0.77121 0.9144 0.71505 0.0
O102 O 0.81084 0.94023 0.68573 0.0
O103 O 0.78491 0.93965 0.66849 0.0
In104 In 0.3149 0.07454 0.1896 0.0
O105 O 0.3034 0.06965 0.22047 0.0
O106 O 0.28307 0.07798 0.19838 0.0
C107 C 0.34438 0.09724 0.20269 0.0
C108 C 0.31809 0.03593 0.1828 0.0
C109 C 0.30935 0.09351 0.1555 0.0
O110 O 0.32662 0.10088 0.20617 0.0
O111 O 0.34731 0.08174 0.19311 0.0
O112 O 0.29775 0.09508 0.16979 0.0
O113 O 0.32362 0.08212 0.15837 0.0
C114 C 0.28585 0.07353 0.21611 0.0
O115 O 0.3068 0.04693 0.17321 0.0
O116 O 0.32806 0.0445 0.19579 0.0
In117 In 0.91063 0.29893 0.18329 0.0
O118 O 0.91509 0.28686 0.21388 0.0
O119 O 0.91002 0.26647 0.19094 0.0
C120 C 0.88736 0.32692 0.19831 0.0
C121 C 0.94898 0.30508 0.17713 0.0
C122 C 0.89105 0.29497 0.14932 0.0
O123 O 0.88357 0.30891 0.1998 0.0
O124 O 0.90316 0.33078 0.18954 0.0
O125 O 0.90319 0.30856 0.15229 0.0
O126 O 0.88927 0.28303 0.16332 0.0
C127 C 0.91313 0.26917 0.20895 0.0
O128 O 0.93925 0.29262 0.16758 0.0
O129 O 0.93926 0.31453 0.18964 0.0
In130 In 0.6845 0.91168 0.18041 0.0
O131 O 0.69178 0.94098 0.16629 0.0
O132 O 0.6708 0.94048 0.18924 0.0
C133 C 0.69441 0.88786 0.15067 0.0
C134 C 0.71266 0.91139 0.20791 0.0
C135 C 0.64962 0.89488 0.18759 0.0
O136 O 0.68636 0.90427 0.14793 0.0
O137 O 0.69806 0.88391 0.16834 0.0
O138 O 0.66441 0.89222 0.19837 0.0
O139 O 0.65236 0.90643 0.17343 0.0
C140 C 0.68033 0.95061 0.17711 0.0
O141 O 0.69481 0.90858 0.21182 0.0
O142 O 0.71631 0.91421 0.19001 0.0
In143 In 0.07144 0.68309 0.18343 0.0
O144 O 0.0693 0.69167 0.21545 0.0
O145 O 0.07136 0.71448 0.19435 0.0
C146 C 0.09256 0.65106 0.19239 0.0
C147 C 0.03274 0.67895 0.1782 0.0
C148 C 0.09216 0.69329 0.15153 0.0
O149 O 0.09587 0.66763 0.19979 0.0
O150 O 0.0782 0.65054 0.18075 0.0
O151 O 0.07759 0.68193 0.15071 0.0
O152 O 0.0959 0.6998 0.16839 0.0
C153 C 0.0699 0.70985 0.21218 0.0
O154 O 0.0427 0.69164 0.16921 0.0
O155 O 0.04247 0.66804 0.18951 0.0
In156 In 0.3087 0.91316 0.80276 0.0
O157 O 0.29931 0.91313 0.77082 0.0
O158 O 0.27704 0.91367 0.79254 0.0
C159 C 0.34364 0.89608 0.79662 0.0
C160 C 0.31203 0.9518 0.80895 0.0
C161 C 0.29741 0.88869 0.83146 0.0
O162 O 0.32935 0.89404 0.78507 0.0
O163 O 0.34044 0.90729 0.81092 0.0
O164 O 0.30501 0.90518 0.8349 0.0
O165 O 0.29518 0.88481 0.81355 0.0
C166 C 0.28121 0.91342 0.77455 0.0
O167 O 0.30086 0.94101 0.81895 0.0
O168 O 0.32166 0.943 0.79591 0.0
In169 In 0.06497 0.29945 0.80297 0.0
O170 O 0.06156 0.29028 0.77109 0.0
O171 O 0.06869 0.26837 0.79206 0.0
C172 C 0.08434 0.33218 0.79234 0.0
C173 C 0.02631 0.30029 0.81021 0.0
C174 C 0.08634 0.29161 0.83515 0.0
O175 O 0.08886 0.31539 0.78617 0.0
O176 O 0.06964 0.33252 0.80351 0.0
O177 O 0.07236 0.30368 0.83523 0.0
O178 O 0.08928 0.28337 0.81892 0.0
C179 C 0.0653 0.27247 0.77436 0.0
O180 O 0.03765 0.28804 0.81808 0.0
O181 O 0.03456 0.31226 0.79879 0.0
In182 In 0.68702 0.07507 0.79581 0.0
O183 O 0.69908 0.0482 0.81104 0.0
O184 O 0.67316 0.0449 0.79408 0.0
C185 C 0.69546 0.09591 0.82811 0.0
C186 C 0.71239 0.07387 0.76573 0.0
C187 C 0.65425 0.09484 0.78622 0.0
O188 O 0.6842 0.08128 0.8283 0.0
O189 O 0.70272 0.09987 0.81159 0.0
O190 O 0.67114 0.10035 0.78118 0.0
O191 O 0.65385 0.07896 0.79565 0.0
C192 C 0.68579 0.03691 0.80498 0.0
O193 O 0.69432 0.07058 0.7636 0.0
O194 O 0.71758 0.07761 0.78306 0.0
In195 In 0.90796 0.68942 0.78778 0.0
O196 O 0.90969 0.69921 0.75603 0.0
O197 O 0.91221 0.72098 0.77805 0.0
C198 C 0.8849 0.65846 0.77989 0.0
C199 C 0.94571 0.67996 0.79289 0.0
C200 C 0.88871 0.70054 0.82029 0.0
O201 O 0.88097 0.67551 0.77397 0.0
O202 O 0.90073 0.65702 0.78928 0.0
O203 O 0.90376 0.68984 0.82077 0.0
O204 O 0.88372 0.70606 0.80338 0.0
C205 C 0.912 0.71708 0.76001 0.0
O206 O 0.93714 0.69263 0.80324 0.0
O207 O 0.93519 0.67218 0.77984 0.0
In208 In 0.18796 0.29367 0.07635 0.0
O209 O 0.21998 0.28574 0.07264 0.0
O210 O 0.19947 0.26242 0.07475 0.0
C211 C 0.19762 0.32474 0.09849 0.0
C212 C 0.18091 0.30059 0.03838 0.0
C213 C 0.15571 0.2841 0.09686 0.0
O214 O 0.20291 0.30754 0.10266 0.0
O215 O 0.18784 0.32624 0.0829 0.0
O216 O 0.15529 0.29553 0.08235 0.0
O217 O 0.17233 0.27694 0.10053 0.0
C218 C 0.21714 0.2675 0.0728 0.0
O219 O 0.17312 0.28648 0.04748 0.0
O220 O 0.19228 0.31104 0.04849 0.0
In221 In 0.18346 0.68684 0.9058 0.0
O222 O 0.16852 0.69377 0.93468 0.0
O223 O 0.18836 0.66981 0.93383 0.0
C224 C 0.14996 0.69308 0.88594 0.0
C225 C 0.21105 0.71472 0.90928 0.0
C226 C 0.19658 0.65795 0.88261 0.0
O227 O 0.15168 0.67978 0.89866 0.0
O228 O 0.16497 0.70364 0.88379 0.0
O229 O 0.19812 0.67581 0.87812 0.0
O230 O 0.18874 0.65473 0.89902 0.0
C231 C 0.17691 0.68014 0.94394 0.0
O232 O 0.21502 0.6967 0.90902 0.0
O233 O 0.19307 0.71869 0.90771 0.0
In234 In 0.29687 0.19053 0.91213 0.0
O235 O 0.29226 0.17441 0.94085 0.0
O236 O 0.31338 0.19728 0.94014 0.0
C237 C 0.28834 0.15782 0.89189 0.0
C238 C 0.26782 0.21691 0.91555 0.0
C239 C 0.32718 0.20199 0.88962 0.0
O240 O 0.30089 0.15816 0.90544 0.0
O241 O 0.27989 0.17394 0.88882 0.0
O242 O 0.30963 0.20609 0.88553 0.0
O243 O 0.32939 0.19249 0.9053 0.0
C244 C 0.30495 0.18417 0.95006 0.0
O245 O 0.28556 0.22185 0.91396 0.0
O246 O 0.26486 0.19869 0.91563 0.0
In247 In 0.79322 0.30008 0.91303 0.0
O248 O 0.80797 0.29772 0.9424 0.0
O249 O 0.78677 0.32031 0.93875 0.0
C250 C 0.82283 0.28026 0.89624 0.0
C251 C 0.76255 0.27532 0.91362 0.0
C252 C 0.79186 0.33156 0.88949 0.0
O253 O 0.82534 0.292 0.91025 0.0
O254 O 0.80514 0.27759 0.89155 0.0
O255 O 0.77677 0.32553 0.8983 0.0
O256 O 0.80738 0.32256 0.89359 0.0
C257 C 0.79881 0.31184 0.94998 0.0
O258 O 0.76703 0.28524 0.89872 0.0
O259 O 0.77354 0.27784 0.92823 0.0
In260 In 0.68719 0.79556 0.91465 0.0
O261 O 0.6998 0.76501 0.91113 0.0
O262 O 0.71906 0.78776 0.92012 0.0
C263 C 0.65773 0.78599 0.89026 0.0
C264 C 0.67839 0.79656 0.95295 0.0
C265 C 0.69652 0.8301 0.898 0.0
O266 O 0.67548 0.78281 0.88626 0.0
O267 O 0.65484 0.79361 0.90681 0.0
O268 O 0.68201 0.82807 0.90925 0.0
O269 O 0.70645 0.81475 0.89546 0.0
C270 C 0.71699 0.7699 0.91591 0.0
O271 O 0.68801 0.8099 0.94452 0.0
O272 O 0.67299 0.78277 0.94194 0.0
In273 In 0.80474 0.68296 0.07264 0.0
O274 O 0.77254 0.69146 0.07253 0.0
O275 O 0.79368 0.71423 0.0705 0.0
C276 C 0.79857 0.64796 0.08966 0.0
C277 C 0.81231 0.67921 0.03425 0.0
C278 C 0.83211 0.69527 0.09812 0.0
O279 O 0.78652 0.6619 0.0908 0.0
O280 O 0.81354 0.65154 0.07944 0.0
O281 O 0.83641 0.68757 0.0819 0.0
O282 O 0.81401 0.69707 0.10124 0.0
C283 C 0.77581 0.70961 0.07125 0.0
O284 O 0.82136 0.69113 0.04503 0.0
O285 O 0.79953 0.66907 0.04293 0.0
In286 In 0.29622 0.79777 0.07627 0.0
O287 O 0.28534 0.76639 0.07399 0.0
O288 O 0.26414 0.78913 0.07393 0.0
C289 C 0.3255 0.78545 0.09966 0.0
C290 C 0.30281 0.80367 0.03796 0.0
C291 C 0.2893 0.83147 0.09542 0.0
O292 O 0.30767 0.7832 0.10396 0.0
O293 O 0.32851 0.79353 0.08331 0.0
O294 O 0.30298 0.82962 0.08314 0.0
O295 O 0.27887 0.81638 0.09769 0.0
C296 C 0.26747 0.771 0.07304 0.0
O297 O 0.29068 0.81366 0.04761 0.0
O298 O 0.31182 0.79085 0.04776 0.0
In299 In 0.69408 0.18119 0.07113 0.0
O300 O 0.6997 0.21369 0.06723 0.0
O301 O 0.7244 0.19494 0.06976 0.0
C302 C 0.66082 0.18927 0.09056 0.0
C303 C 0.68828 0.17337 0.03313 0.0
C304 C 0.70622 0.15136 0.09395 0.0
O305 O 0.67665 0.19827 0.09377 0.0
O306 O 0.66184 0.17627 0.07752 0.0
O307 O 0.69716 0.14869 0.07808 0.0
O308 O 0.70965 0.16904 0.09791 0.0
C309 C 0.7181 0.21219 0.06769 0.0
O310 O 0.70395 0.16873 0.0418 0.0
O311 O 0.67579 0.18189 0.04367 0.0
In312 In 0.91507 0.80772 0.67518 0.0
O313 O 0.91381 0.7964 0.70642 0.0
O314 O 0.91836 0.77578 0.68352 0.0
C315 C 0.89405 0.83978 0.68403 0.0
C316 C 0.95379 0.81383 0.67172 0.0
C317 C 0.89235 0.79637 0.64508 0.0
O318 O 0.89301 0.82411 0.69379 0.0
O319 O 0.90628 0.83946 0.6702 0.0
O320 O 0.90626 0.80838 0.64291 0.0
O321 O 0.89038 0.78986 0.66223 0.0
C322 C 0.9163 0.77871 0.70165 0.0
O323 O 0.94443 0.80275 0.6603 0.0
O324 O 0.94345 0.8223 0.68441 0.0
In325 In 0.19067 0.9076 0.68937 0.0
O326 O 0.20207 0.90828 0.72067 0.0
O327 O 0.22278 0.91047 0.69757 0.0
C328 C 0.1597 0.88573 0.7002 0.0
C329 C 0.18383 0.94596 0.68445 0.0
C330 C 0.19858 0.88774 0.65631 0.0
O331 O 0.1771 0.88102 0.70427 0.0
O332 O 0.15798 0.90171 0.69111 0.0
O333 O 0.18622 0.90145 0.65693 0.0
O334 O 0.20722 0.8844 0.67229 0.0
C335 C 0.21982 0.91 0.71578 0.0
O336 O 0.19583 0.93663 0.67397 0.0
O337 O 0.17531 0.93588 0.69736 0.0
In338 In 0.07342 0.18304 0.68842 0.0
O339 O 0.07421 0.19463 0.71953 0.0
O340 O 0.06891 0.21503 0.69663 0.0
C341 C 0.09503 0.15174 0.6987 0.0
C342 C 0.03511 0.1759 0.68393 0.0
C343 C 0.09319 0.19133 0.65534 0.0
O344 O 0.09992 0.16905 0.70288 0.0
O345 O 0.07892 0.15023 0.68978 0.0
O346 O 0.09686 0.19962 0.67143 0.0
O347 O 0.07921 0.17928 0.65591 0.0
C348 C 0.0708 0.21215 0.71478 0.0
O349 O 0.04476 0.18635 0.67215 0.0
O350 O 0.04487 0.16899 0.69803 0.0
In351 In 0.79783 0.0724 0.6754 0.0
O352 O 0.78841 0.04373 0.66107 0.0
O353 O 0.81273 0.04337 0.68049 0.0
C354 C 0.79101 0.09903 0.64738 0.0
C355 C 0.76977 0.07326 0.70305 0.0
C356 C 0.83356 0.08678 0.68297 0.0
O357 O 0.79262 0.08105 0.64345 0.0
O358 O 0.79178 0.10326 0.6653 0.0
O359 O 0.81962 0.08781 0.6951 0.0
O360 O 0.82961 0.07769 0.66737 0.0
C361 C 0.80153 0.03375 0.66945 0.0
O362 O 0.7878 0.07321 0.70701 0.0
O363 O 0.76582 0.07306 0.68501 0.0
In364 In 0.91231 0.18189 0.2975 0.0
O365 O 0.94071 0.18586 0.31415 0.0
O366 O 0.94071 0.1659 0.29037 0.0
C367 C 0.88824 0.19846 0.32373 0.0
C368 C 0.91381 0.20826 0.26825 0.0
C369 C 0.89269 0.14784 0.2971 0.0
O370 O 0.90534 0.19284 0.32803 0.0
O371 O 0.88365 0.19642 0.30594 0.0
O372 O 0.89603 0.15732 0.28157 0.0
O373 O 0.9001 0.15502 0.31238 0.0
C374 C 0.95037 0.17404 0.30385 0.0
O375 O 0.90857 0.19075 0.26552 0.0
O376 O 0.91828 0.21233 0.28569 0.0
In377 In 0.79666 0.90941 0.29963 0.0
O378 O 0.78907 0.91287 0.26735 0.0
O379 O 0.76573 0.9088 0.28752 0.0
C380 C 0.83013 0.88983 0.29241 0.0
C381 C 0.80026 0.94775 0.30742 0.0
C382 C 0.78499 0.88719 0.33 0.0
O383 O 0.81438 0.8864 0.2834 0.0
O384 O 0.82908 0.90353 0.30472 0.0
O385 O 0.79499 0.90257 0.33216 0.0
O386 O 0.78065 0.88322 0.3125 0.0
C387 C 0.77084 0.91121 0.26994 0.0
O388 O 0.78738 0.93712 0.3153 0.0
O389 O 0.8113 0.93899 0.29549 0.0
In390 In 0.07394 0.79774 0.29976 0.0
O391 O 0.0459 0.79125 0.3164 0.0
O392 O 0.04529 0.81359 0.29468 0.0
C393 C 0.097 0.78887 0.33047 0.0
C394 C 0.07037 0.76945 0.27264 0.0
C395 C 0.0938 0.82997 0.28884 0.0
O396 O 0.08176 0.79917 0.3321 0.0
O397 O 0.10025 0.78263 0.31343 0.0
O398 O 0.09775 0.81316 0.2823 0.0
O399 O 0.07954 0.83051 0.30054 0.0
C400 C 0.03601 0.80412 0.30754 0.0
O401 O 0.07126 0.78738 0.26826 0.0
O402 O 0.07113 0.76586 0.29074 0.0
In403 In 0.19037 0.07508 0.29575 0.0
O404 O 0.20371 0.0762 0.26531 0.0
O405 O 0.22284 0.07131 0.28938 0.0
C406 C 0.15868 0.09566 0.28448 0.0
C407 C 0.18344 0.03666 0.29998 0.0
C408 C 0.19752 0.09563 0.32861 0.0
O409 O 0.17585 0.10024 0.27945 0.0
O410 O 0.15751 0.08037 0.29477 0.0
O411 O 0.1865 0.08082 0.32828 0.0
O412 O 0.20532 0.09978 0.31239 0.0
C413 C 0.22103 0.07334 0.27111 0.0
O414 O 0.19354 0.04636 0.31201 0.0
O415 O 0.1769 0.0464 0.28568 0.0
In416 In 0.69183 0.91422 0.81047 0.0
O417 O 0.67512 0.94245 0.80571 0.0
O418 O 0.70094 0.94369 0.82301 0.0
C419 C 0.66201 0.89156 0.79839 0.0
C420 C 0.71802 0.9159 0.78123 0.0
C421 C 0.69998 0.89404 0.84339 0.0
O422 O 0.65942 0.90639 0.8091 0.0
O423 O 0.6796 0.88835 0.79378 0.0
O424 O 0.70993 0.89245 0.82794 0.0
O425 O 0.68633 0.90646 0.84246 0.0
C426 C 0.68694 0.95293 0.81526 0.0
O427 O 0.72311 0.91418 0.79893 0.0
O428 O 0.69978 0.91683 0.77843 0.0
In429 In 0.06834 0.67611 0.79588 0.0
O430 O 0.03969 0.66257 0.78564 0.0
O431 O 0.0391 0.68056 0.81094 0.0
C432 C 0.08931 0.64409 0.78658 0.0
C433 C 0.06723 0.70597 0.77029 0.0
C434 C 0.08985 0.68683 0.82709 0.0
O435 O 0.07669 0.6441 0.80007 0.0
O436 O 0.09085 0.66007 0.77745 0.0
O437 O 0.09289 0.69333 0.81008 0.0
O438 O 0.07572 0.67497 0.82844 0.0
C439 C 0.02951 0.67044 0.79885 0.0
O440 O 0.06527 0.70832 0.7885 0.0
O441 O 0.06975 0.68844 0.76498 0.0
In442 In 0.2994 0.07418 0.80374 0.0
O443 O 0.31559 0.04614 0.79652 0.0
O444 O 0.29504 0.04546 0.81987 0.0
C445 C 0.33005 0.09656 0.79325 0.0
C446 C 0.27119 0.07029 0.77662 0.0
C447 C 0.28901 0.09587 0.83488 0.0
O448 O 0.33158 0.08266 0.80534 0.0
O449 O 0.31314 0.09878 0.78615 0.0
O450 O 0.28149 0.09813 0.81817 0.0
O451 O 0.3014 0.08222 0.83599 0.0
C452 C 0.30721 0.03614 0.8096 0.0
O453 O 0.26766 0.06993 0.79476 0.0
O454 O 0.28901 0.07253 0.77224 0.0
In455 In 0.90335 0.29078 0.80636 0.0
O456 O 0.93159 0.30798 0.80338 0.0
O457 O 0.93248 0.28143 0.81957 0.0
C458 C 0.884 0.32402 0.79749 0.0
C459 C 0.90626 0.26468 0.77707 0.0
C460 C 0.88147 0.27876 0.83687 0.0
O461 O 0.89562 0.32273 0.81181 0.0
O462 O 0.8821 0.30848 0.78772 0.0
O463 O 0.8763 0.27637 0.8193 0.0
O464 O 0.89783 0.28709 0.83901 0.0
C465 C 0.9418 0.29594 0.81296 0.0
O466 O 0.90218 0.25973 0.79439 0.0
O467 O 0.90863 0.28281 0.77456 0.0
In468 In 0.68959 0.07367 0.18632 0.0
O469 O 0.67354 0.0453 0.19255 0.0
O470 O 0.69739 0.04442 0.1726 0.0
C471 C 0.65642 0.09435 0.19146 0.0
C472 C 0.71454 0.07258 0.21675 0.0
C473 C 0.703 0.09425 0.1555 0.0
O474 O 0.65752 0.08009 0.17981 0.0
O475 O 0.67199 0.09791 0.20075 0.0
O476 O 0.70678 0.0988 0.17298 0.0
O477 O 0.69273 0.07901 0.15358 0.0
C478 C 0.68403 0.0351 0.18132 0.0
O479 O 0.72026 0.07261 0.19919 0.0
O480 O 0.69619 0.07295 0.21891 0.0
In481 In 0.9104 0.68726 0.19187 0.0
O482 O 0.93947 0.67188 0.1963 0.0
O483 O 0.93818 0.69515 0.1756 0.0
C484 C 0.89035 0.65444 0.20043 0.0
C485 C 0.91368 0.71383 0.22068 0.0
C486 C 0.88824 0.69758 0.16099 0.0
O487 O 0.90511 0.65452 0.18933 0.0
O488 O 0.8861 0.67088 0.20765 0.0
O489 O 0.88405 0.70245 0.17829 0.0
O490 O 0.9039 0.68795 0.15929 0.0
C491 C 0.94847 0.68225 0.18391 0.0
O492 O 0.91179 0.71857 0.20292 0.0
O493 O 0.91389 0.69564 0.22387 0.0
In494 In 0.30144 0.91371 0.18484 0.0
O495 O 0.26944 0.91828 0.19266 0.0
O496 O 0.2898 0.91436 0.21592 0.0
C497 C 0.2917 0.89329 0.15257 0.0
C498 C 0.31054 0.95175 0.18049 0.0
C499 C 0.3306 0.88981 0.19624 0.0
O500 O 0.28252 0.89181 0.1685 0.0
O501 O 0.30551 0.90557 0.15275 0.0
O502 O 0.33339 0.90425 0.18505 0.0
O503 O 0.31318 0.88778 0.202 0.0
C504 C 0.27221 0.917 0.21089 0.0
O505 O 0.31771 0.94126 0.1939 0.0
O506 O 0.2989 0.94295 0.16918 0.0
In507 In 0.07175 0.3003 0.18462 0.0
O508 O 0.04253 0.31449 0.19179 0.0
O509 O 0.04394 0.29569 0.16708 0.0
C510 C 0.09229 0.33259 0.19428 0.0
C511 C 0.06797 0.27151 0.2112 0.0
C512 C 0.09478 0.28884 0.15483 0.0
O513 O 0.07899 0.3327 0.18146 0.0
O514 O 0.09479 0.31629 0.2026 0.0
O515 O 0.09741 0.28325 0.17223 0.0
O516 O 0.08032 0.30008 0.15242 0.0
C517 C 0.03351 0.30648 0.1778 0.0
O518 O 0.06767 0.26845 0.193 0.0
O519 O 0.07013 0.28922 0.21602 0.0
In520 In 0.80879 0.68627 0.9114 0.0
O521 O 0.79809 0.71726 0.9172 0.0
O522 O 0.77706 0.69576 0.90914 0.0
C523 C 0.83589 0.69915 0.88581 0.0
C524 C 0.81507 0.68049 0.94979 0.0
C525 C 0.80173 0.65157 0.89426 0.0
O526 O 0.81777 0.70163 0.88331 0.0
O527 O 0.84039 0.69055 0.90155 0.0
O528 O 0.78952 0.66542 0.8942 0.0
O529 O 0.81746 0.65515 0.9033 0.0
C530 C 0.78035 0.71333 0.91381 0.0
O531 O 0.80238 0.67113 0.9402 0.0
O532 O 0.82492 0.69256 0.93987 0.0
In533 In 0.79673 0.30821 0.07207 0.0
O534 O 0.78757 0.32409 0.04422 0.0
O535 O 0.81246 0.30549 0.04308 0.0
C536 C 0.78474 0.33589 0.09729 0.0
C537 C 0.7713 0.27842 0.06841 0.0
C538 C 0.83047 0.30014 0.09076 0.0
O539 O 0.79416 0.3399 0.08191 0.0
O540 O 0.78084 0.31799 0.09951 0.0
O541 O 0.81533 0.28969 0.09249 0.0
O542 O 0.82869 0.31444 0.07917 0.0
C543 C 0.80102 0.31675 0.03394 0.0
O544 O 0.7896 0.27589 0.06909 0.0
O545 O 0.76587 0.29604 0.06956 0.0
In546 In 0.68222 0.79136 0.076 0.0
O547 O 0.71445 0.78415 0.07264 0.0
O548 O 0.6947 0.76046 0.07681 0.0
C549 C 0.69214 0.82401 0.09566 0.0
C550 C 0.67555 0.79443 0.03743 0.0
C551 C 0.65006 0.78297 0.09724 0.0
O552 O 0.69782 0.80718 0.10076 0.0
O553 O 0.68173 0.82435 0.0804 0.0
O554 O 0.6495 0.79336 0.08197 0.0
O555 O 0.66676 0.77622 0.10132 0.0
C556 C 0.71218 0.76589 0.07417 0.0
O557 O 0.6691 0.7803 0.04746 0.0
O558 O 0.68504 0.80706 0.047 0.0
In559 In 0.17997 0.68288 0.06717 0.0
O560 O 0.18757 0.66834 0.03834 0.0
O561 O 0.16526 0.69001 0.03817 0.0
C562 C 0.18819 0.64942 0.08634 0.0
C563 C 0.20724 0.71127 0.0669 0.0
C564 C 0.14968 0.69334 0.09003 0.0
O565 O 0.17446 0.65074 0.07404 0.0
O566 O 0.19807 0.66488 0.08851 0.0
O567 O 0.16715 0.69808 0.09366 0.0
O568 O 0.1474 0.68358 0.07451 0.0
C569 C 0.17531 0.67797 0.02844 0.0
O570 O 0.18914 0.7148 0.06579 0.0
O571 O 0.21158 0.69332 0.06788 0.0
In572 In 0.30877 0.18363 0.07268 0.0
O573 O 0.324 0.18931 0.04376 0.0
O574 O 0.30024 0.16923 0.04395 0.0
C575 C 0.33691 0.1985 0.09581 0.0
C576 C 0.27992 0.2103 0.07117 0.0
C577 C 0.30513 0.14973 0.09248 0.0
O578 O 0.34073 0.19004 0.07984 0.0
O579 O 0.3189 0.19981 0.09973 0.0
O580 O 0.29263 0.16329 0.09348 0.0
O581 O 0.31903 0.15295 0.08074 0.0
C582 C 0.31298 0.17818 0.03399 0.0
O583 O 0.27665 0.19236 0.07428 0.0
O584 O 0.29773 0.21465 0.06888 0.0
In585 In 0.17772 0.3026 0.91551 0.0
O586 O 0.1857 0.31715 0.94424 0.0
O587 O 0.16388 0.29495 0.94472 0.0
C588 C 0.18586 0.33475 0.89423 0.0
C589 C 0.20584 0.2751 0.91625 0.0
C590 C 0.1456 0.2925 0.89509 0.0
O591 O 0.17472 0.33514 0.90896 0.0
O592 O 0.19338 0.31825 0.89074 0.0
O593 O 0.16228 0.28534 0.89176 0.0
O594 O 0.14501 0.30444 0.90917 0.0
C595 C 0.17405 0.30698 0.95435 0.0
O596 O 0.18782 0.27101 0.91663 0.0
O597 O 0.20968 0.29317 0.91537 0.0
In598 In 0.67957 0.18352 0.91124 0.0
O599 O 0.66566 0.18198 0.94112 0.0
O600 O 0.69471 0.17095 0.93802 0.0
C601 C 0.64437 0.19078 0.89468 0.0
C602 C 0.7034 0.2148 0.91184 0.0
C603 C 0.69244 0.1534 0.88937 0.0
O604 O 0.64802 0.17549 0.90428 0.0
O605 O 0.65832 0.20283 0.89401 0.0
O606 O 0.69545 0.17105 0.88486 0.0
O607 O 0.68347 0.15096 0.90531 0.0
C608 C 0.68035 0.17418 0.94923 0.0
O609 O 0.70449 0.20171 0.89888 0.0
O610 O 0.69005 0.21232 0.92436 0.0
In611 In 0.30289 0.79828 0.91461 0.0
O612 O 0.31494 0.79015 0.9445 0.0
O613 O 0.29597 0.81473 0.94261 0.0
C614 C 0.33711 0.7888 0.89753 0.0
C615 C 0.27321 0.77244 0.9146 0.0
C616 C 0.29455 0.82835 0.89056 0.0
O617 O 0.33569 0.80213 0.91021 0.0
O618 O 0.32133 0.77986 0.89397 0.0
O619 O 0.30272 0.83077 0.90696 0.0
O620 O 0.2903 0.81084 0.88659 0.0
C621 C 0.3062 0.80375 0.95339 0.0
O622 O 0.27052 0.7907 0.91485 0.0
O623 O 0.29095 0.76723 0.91453 0.0
In624 In 0.80141 0.57171 0.8026 0.0
O625 O 0.7689 0.57229 0.7953 0.0
O626 O 0.78909 0.56845 0.77194 0.0
C627 C 0.79729 0.59 0.83721 0.0
C628 C 0.80853 0.53329 0.80712 0.0
C629 C 0.82824 0.59653 0.78793 0.0
O630 O 0.78431 0.59039 0.82407 0.0
O631 O 0.81212 0.57978 0.83311 0.0
O632 O 0.83283 0.58057 0.79605 0.0
O633 O 0.81009 0.59972 0.78692 0.0
C634 C 0.77144 0.57002 0.77714 0.0
O635 O 0.81758 0.54377 0.79492 0.0
O636 O 0.79604 0.54231 0.81727 0.0
In637 In 0.17548 0.41278 0.7999 0.0
O638 O 0.20787 0.41246 0.79263 0.0
O639 O 0.18764 0.41188 0.76895 0.0
C640 C 0.18369 0.39252 0.83267 0.0
C641 C 0.17248 0.45187 0.80277 0.0
C642 C 0.14285 0.39274 0.7903 0.0
O643 O 0.19093 0.38834 0.81621 0.0
O644 O 0.17249 0.40722 0.83265 0.0
O645 O 0.14251 0.40752 0.80136 0.0
O646 O 0.15954 0.38861 0.7836 0.0
C647 C 0.20534 0.412 0.77434 0.0
O648 O 0.16444 0.44233 0.78916 0.0
O649 O 0.18152 0.44158 0.81516 0.0
In650 In 0.18372 0.57062 0.17986 0.0
O651 O 0.21577 0.57313 0.18847 0.0
O652 O 0.19467 0.5705 0.21123 0.0
C653 C 0.19032 0.59001 0.14617 0.0
C654 C 0.18067 0.53152 0.17672 0.0
C655 C 0.15213 0.59156 0.19062 0.0
O656 O 0.19954 0.5936 0.16177 0.0
O657 O 0.17812 0.57619 0.14745 0.0
O658 O 0.15089 0.57679 0.17962 0.0
O659 O 0.16922 0.59541 0.19646 0.0
C660 C 0.21249 0.57234 0.20664 0.0
O661 O 0.17055 0.54135 0.18859 0.0
O662 O 0.19215 0.5415 0.16624 0.0
In663 In 0.79673 0.40829 0.19529 0.0
O664 O 0.7648 0.4128 0.20325 0.0
O665 O 0.78549 0.41185 0.22646 0.0
C666 C 0.78631 0.38831 0.16306 0.0
C667 C 0.80593 0.44562 0.18763 0.0
C668 C 0.82719 0.3853 0.20532 0.0
O669 O 0.77972 0.38416 0.17982 0.0
O670 O 0.79795 0.40265 0.16264 0.0
O671 O 0.82924 0.40125 0.19625 0.0
O672 O 0.80977 0.38129 0.20992 0.0
C673 C 0.7678 0.41369 0.22144 0.0
O674 O 0.81246 0.43672 0.20249 0.0
O675 O 0.79462 0.4357 0.17694 0.0
In676 In 0.31236 0.56841 0.68696 0.0
O677 O 0.28514 0.58289 0.69893 0.0
O678 O 0.2983 0.56059 0.71624 0.0
C679 C 0.34363 0.59018 0.69756 0.0
C680 C 0.31478 0.52931 0.68327 0.0
C681 C 0.30259 0.58436 0.65221 0.0
O682 O 0.32678 0.59274 0.70461 0.0
O683 O 0.34482 0.5762 0.68561 0.0
O684 O 0.31968 0.57838 0.65595 0.0
O685 O 0.29039 0.58166 0.66578 0.0
C686 C 0.2845 0.57276 0.71436 0.0
O687 O 0.30336 0.5396 0.67305 0.0
O688 O 0.32529 0.53884 0.69507 0.0
In689 In 0.67569 0.41929 0.69016 0.0
O690 O 0.68889 0.41526 0.7204 0.0
O691 O 0.70767 0.42491 0.69751 0.0
C692 C 0.64357 0.39723 0.69633 0.0
C693 C 0.66614 0.45739 0.68938 0.0
C694 C 0.68891 0.40005 0.65845 0.0
O695 O 0.65862 0.39616 0.70695 0.0
O696 O 0.64451 0.40989 0.68292 0.0
O697 O 0.67893 0.41554 0.6572 0.0
O698 O 0.69244 0.3945 0.67571 0.0
C699 C 0.70597 0.42017 0.71529 0.0
O700 O 0.67507 0.449 0.67561 0.0
O701 O 0.66192 0.44649 0.70369 0.0
In702 In 0.30835 0.41646 0.2981 0.0
O703 O 0.29818 0.4132 0.26659 0.0
O704 O 0.27649 0.41719 0.28854 0.0
C705 C 0.34333 0.3992 0.29234 0.0
C706 C 0.31175 0.45556 0.30078 0.0
C707 C 0.29707 0.39386 0.32836 0.0
O708 O 0.3289 0.39662 0.28109 0.0
O709 O 0.34022 0.41094 0.30625 0.0
O710 O 0.30505 0.41036 0.33075 0.0
O711 O 0.29456 0.38901 0.31072 0.0
C712 C 0.28021 0.41475 0.27061 0.0
O713 O 0.30103 0.44568 0.31212 0.0
O714 O 0.32103 0.44561 0.28833 0.0
In715 In 0.68116 0.57405 0.28559 0.0
O716 O 0.67917 0.54676 0.30412 0.0
O717 O 0.66443 0.54642 0.27675 0.0
C718 C 0.69156 0.58957 0.32016 0.0
C719 C 0.70992 0.56842 0.25927 0.0
C720 C 0.6557 0.60211 0.27465 0.0
O721 O 0.67514 0.58154 0.31731 0.0
O722 O 0.70274 0.58986 0.30544 0.0
O723 O 0.67394 0.60484 0.2753 0.0
O724 O 0.65033 0.58499 0.27906 0.0
C725 C 0.66861 0.53736 0.29231 0.0
O726 O 0.6925 0.57206 0.25432 0.0
O727 O 0.71271 0.56744 0.27749 0.0
In728 In 0.18626 0.79885 0.57322 0.0
O729 O 0.1711 0.79344 0.54415 0.0
O730 O 0.19394 0.81458 0.54495 0.0
C731 C 0.15445 0.78931 0.5944 0.0
C732 C 0.21306 0.7701 0.57128 0.0
C733 C 0.19631 0.83025 0.5948 0.0
O734 O 0.15353 0.79999 0.57934 0.0
O735 O 0.17137 0.78304 0.59838 0.0
O736 O 0.20433 0.81376 0.59682 0.0
O737 O 0.1835 0.83102 0.58151 0.0
C738 C 0.18127 0.80573 0.53483 0.0
O739 O 0.21754 0.78802 0.57109 0.0
O740 O 0.19492 0.76666 0.57227 0.0
In741 In 0.1838 0.18509 0.41096 0.0
O742 O 0.1689 0.19021 0.44027 0.0
O743 O 0.19236 0.16982 0.43918 0.0
C744 C 0.15186 0.19393 0.38957 0.0
C745 C 0.21002 0.21439 0.41246 0.0
C746 C 0.19415 0.15363 0.38967 0.0
O747 O 0.15123 0.18245 0.40405 0.0
O748 O 0.16847 0.20132 0.38633 0.0
O749 O 0.2013 0.17042 0.38679 0.0
O750 O 0.18216 0.15266 0.40367 0.0
C751 C 0.17964 0.17831 0.44949 0.0
O752 O 0.21498 0.19664 0.41113 0.0
O753 O 0.19179 0.2173 0.41325 0.0
In754 In 0.29821 0.68385 0.41462 0.0
O755 O 0.28971 0.66807 0.44268 0.0
O756 O 0.31297 0.68874 0.4439 0.0
C757 C 0.28735 0.65539 0.3896 0.0
C758 C 0.27115 0.7124 0.41628 0.0
C759 C 0.33331 0.69114 0.39837 0.0
O760 O 0.29437 0.6518 0.40631 0.0
O761 O 0.28546 0.67335 0.38575 0.0
O762 O 0.31856 0.7019 0.39545 0.0
O763 O 0.33034 0.67687 0.40974 0.0
C764 C 0.30247 0.67657 0.45299 0.0
O765 O 0.28925 0.71594 0.41514 0.0
O766 O 0.26679 0.69446 0.41662 0.0
In767 In 0.79412 0.79899 0.41362 0.0
O768 O 0.76412 0.78451 0.41322 0.0
O769 O 0.78914 0.76638 0.41708 0.0
C770 C 0.78254 0.82912 0.39096 0.0
C771 C 0.79743 0.80635 0.45201 0.0
C772 C 0.82752 0.79128 0.39432 0.0
O773 O 0.77796 0.8116 0.38741 0.0
O774 O 0.79241 0.83148 0.40638 0.0
O775 O 0.82655 0.80391 0.40776 0.0
O776 O 0.81167 0.78245 0.39086 0.0
C777 C 0.77076 0.76741 0.41554 0.0
O778 O 0.81047 0.7976 0.44235 0.0
O779 O 0.78266 0.81159 0.4422 0.0
In780 In 0.68786 0.30726 0.41457 0.0
O781 O 0.69856 0.32178 0.44253 0.0
O782 O 0.67226 0.3052 0.44379 0.0
C783 C 0.69002 0.34156 0.39521 0.0
C784 C 0.71651 0.28027 0.41553 0.0
C785 C 0.65962 0.29077 0.39261 0.0
O786 O 0.70326 0.32873 0.39431 0.0
O787 O 0.67587 0.33721 0.40625 0.0
O788 O 0.6772 0.29201 0.38706 0.0
O789 O 0.65636 0.29763 0.40945 0.0
C790 C 0.68457 0.31555 0.45285 0.0
O791 O 0.69894 0.27628 0.41965 0.0
O792 O 0.71961 0.29794 0.41108 0.0
In793 In 0.80642 0.19422 0.57105 0.0
O794 O 0.77466 0.20391 0.57121 0.0
O795 O 0.79653 0.22593 0.56894 0.0
C796 C 0.80055 0.1606 0.59042 0.0
C797 C 0.81303 0.18696 0.53293 0.0
C798 C 0.83417 0.20619 0.59609 0.0
O799 O 0.78667 0.17224 0.58671 0.0
O800 O 0.817 0.1655 0.58359 0.0
O801 O 0.83812 0.20024 0.57904 0.0
O802 O 0.81611 0.20697 0.60004 0.0
C803 C 0.77851 0.2219 0.56971 0.0
O804 O 0.82124 0.20084 0.54191 0.0
O805 O 0.80182 0.17665 0.54331 0.0
In806 In 0.2941 0.29992 0.57309 0.0
O807 O 0.28649 0.26758 0.57285 0.0
O808 O 0.26304 0.28799 0.57157 0.0
C809 C 0.32924 0.2939 0.58985 0.0
C810 C 0.29767 0.30655 0.53451 0.0
C811 C 0.28244 0.32827 0.59781 0.0
O812 O 0.31474 0.28282 0.59279 0.0
O813 O 0.32606 0.30782 0.57812 0.0
O814 O 0.29013 0.33196 0.58142 0.0
O815 O 0.28018 0.3103 0.60139 0.0
C816 C 0.26824 0.27026 0.57194 0.0
O817 O 0.28527 0.31541 0.54493 0.0
O818 O 0.30828 0.29451 0.54365 0.0
In819 In 0.68601 0.67312 0.56863 0.0
O820 O 0.69809 0.65753 0.54176 0.0
O821 O 0.67074 0.67208 0.53918 0.0
C822 C 0.69406 0.64583 0.59595 0.0
C823 C 0.71316 0.70151 0.56637 0.0
C824 C 0.65189 0.68545 0.58402 0.0
O825 O 0.68675 0.64157 0.57953 0.0
O826 O 0.69778 0.66375 0.59826 0.0
O827 O 0.66739 0.69547 0.58467 0.0
O828 O 0.65355 0.66927 0.57526 0.0
C829 C 0.68384 0.66209 0.53092 0.0
O830 O 0.69522 0.70454 0.56309 0.0
O831 O 0.71745 0.684 0.57044 0.0
In832 In 0.18778 0.40841 0.18753 0.0
O833 O 0.19969 0.40978 0.21866 0.0
O834 O 0.22008 0.40955 0.19517 0.0
C835 C 0.15383 0.39021 0.19617 0.0
C836 C 0.1831 0.44693 0.1813 0.0
C837 C 0.19724 0.38508 0.15734 0.0
O838 O 0.16958 0.38669 0.20518 0.0
O839 O 0.15514 0.40339 0.1833 0.0
O840 O 0.1891 0.4015 0.15503 0.0
O841 O 0.20093 0.38066 0.1749 0.0
C842 C 0.21742 0.41012 0.21342 0.0
O843 O 0.19355 0.43628 0.17044 0.0
O844 O 0.17488 0.43804 0.19527 0.0
In845 In 0.80638 0.56766 0.18127 0.0
O846 O 0.79263 0.56724 0.2115 0.0
O847 O 0.7737 0.56517 0.18683 0.0
C848 C 0.8349 0.59132 0.1946 0.0
C849 C 0.81343 0.5291 0.1786 0.0
C850 C 0.79956 0.58693 0.1476 0.0
O851 O 0.81704 0.59402 0.19836 0.0
O852 O 0.83843 0.57636 0.18435 0.0
O853 O 0.81399 0.57556 0.14973 0.0
O854 O 0.78851 0.58819 0.16232 0.0
C855 C 0.77529 0.56576 0.20522 0.0
O856 O 0.80377 0.53838 0.16589 0.0
O857 O 0.82006 0.53946 0.19234 0.0
In858 In 0.79964 0.41123 0.79676 0.0
O859 O 0.78844 0.41582 0.76567 0.0
O860 O 0.76748 0.41162 0.78822 0.0
C861 C 0.83214 0.39026 0.78952 0.0
C862 C 0.80779 0.44894 0.80388 0.0
C863 C 0.78956 0.38742 0.82615 0.0
O864 O 0.81727 0.38972 0.77853 0.0
O865 O 0.83105 0.40248 0.80333 0.0
O866 O 0.79321 0.40531 0.82901 0.0
O867 O 0.78991 0.382 0.80852 0.0
C868 C 0.7706 0.41468 0.77028 0.0
O869 O 0.79525 0.43941 0.81356 0.0
O870 O 0.81645 0.43927 0.79076 0.0
In871 In 0.18915 0.57434 0.79405 0.0
O872 O 0.20302 0.58167 0.7648 0.0
O873 O 0.22072 0.56715 0.78589 0.0
C874 C 0.15376 0.59006 0.78654 0.0
C875 C 0.18196 0.53593 0.79825 0.0
C876 C 0.20005 0.59848 0.82324 0.0
O877 O 0.16765 0.5906 0.77438 0.0
O878 O 0.15764 0.58114 0.80225 0.0
O879 O 0.19454 0.58112 0.82621 0.0
O880 O 0.20052 0.60346 0.80548 0.0
C881 C 0.21956 0.57464 0.76904 0.0
O882 O 0.19101 0.54585 0.8109 0.0
O883 O 0.17672 0.54539 0.78325 0.0
In884 In 0.67223 0.41615 0.30034 0.0
O885 O 0.70447 0.4209 0.29397 0.0
O886 O 0.68552 0.41496 0.26994 0.0
C887 C 0.68168 0.39966 0.33485 0.0
C888 C 0.66206 0.45413 0.30124 0.0
C889 C 0.64569 0.38906 0.28977 0.0
O890 O 0.69298 0.3996 0.32026 0.0
O891 O 0.66569 0.40856 0.33218 0.0
O892 O 0.64092 0.40477 0.29823 0.0
O893 O 0.6637 0.38744 0.28615 0.0
C894 C 0.70276 0.41836 0.27575 0.0
O895 O 0.65767 0.44309 0.28713 0.0
O896 O 0.67109 0.44582 0.31504 0.0
In897 In 0.29938 0.57864 0.29549 0.0
O898 O 0.26806 0.57562 0.28462 0.0
O899 O 0.29039 0.58031 0.26348 0.0
C900 C 0.28719 0.59941 0.32665 0.0
C901 C 0.30611 0.54009 0.29869 0.0
C902 C 0.33336 0.59807 0.29099 0.0
O903 O 0.28491 0.60523 0.30926 0.0
O904 O 0.29504 0.58277 0.32824 0.0
O905 O 0.33153 0.58365 0.30238 0.0
O906 O 0.31811 0.60236 0.28145 0.0
C907 C 0.27241 0.57761 0.26678 0.0
O908 O 0.3147 0.55073 0.28626 0.0
O909 O 0.2941 0.54899 0.30954 0.0
In910 In 0.67645 0.57904 0.69737 0.0
O911 O 0.66256 0.5509 0.70888 0.0
O912 O 0.67491 0.55101 0.68026 0.0
C913 C 0.64632 0.60339 0.70485 0.0
C914 C 0.70646 0.57465 0.72252 0.0
C915 C 0.68823 0.59643 0.66407 0.0
O916 O 0.64407 0.58702 0.69666 0.0
O917 O 0.66363 0.60695 0.71016 0.0
O918 O 0.69374 0.60221 0.68073 0.0
O919 O 0.677 0.58177 0.66431 0.0
C920 C 0.66626 0.54141 0.69344 0.0
O921 O 0.70835 0.57308 0.70423 0.0
O922 O 0.68931 0.57853 0.72819 0.0
In923 In 0.29649 0.40716 0.69001 0.0
O924 O 0.31278 0.43459 0.69903 0.0
O925 O 0.2931 0.43664 0.67497 0.0
C926 C 0.32973 0.38705 0.69627 0.0
C927 C 0.26833 0.40961 0.71738 0.0
C928 C 0.28394 0.38515 0.65985 0.0
O929 O 0.32824 0.40011 0.68328 0.0
O930 O 0.3145 0.38445 0.7064 0.0
O931 O 0.2817 0.38019 0.67749 0.0
O932 O 0.29212 0.40156 0.65743 0.0
C933 C 0.30521 0.44524 0.68599 0.0
O934 O 0.26486 0.41154 0.69934 0.0
O935 O 0.28605 0.4065 0.72158 0.0
In936 In 0.80251 0.19055 0.41046 0.0
O937 O 0.79643 0.17675 0.43994 0.0
O938 O 0.82005 0.19694 0.43809 0.0
C939 C 0.79518 0.15482 0.39563 0.0
C940 C 0.77575 0.21942 0.41246 0.0
C941 C 0.82961 0.20115 0.38395 0.0
O942 O 0.81047 0.15873 0.40525 0.0
O943 O 0.78345 0.16898 0.39365 0.0
O944 O 0.81152 0.20086 0.38018 0.0
O945 O 0.83399 0.19633 0.40126 0.0
C946 C 0.81011 0.18551 0.44868 0.0
O947 O 0.79393 0.2226 0.4124 0.0
O948 O 0.77103 0.20158 0.41149 0.0
In949 In 0.79203 0.79728 0.57456 0.0
O950 O 0.78627 0.76458 0.57194 0.0
O951 O 0.76172 0.78366 0.57272 0.0
C952 C 0.82669 0.79182 0.59243 0.0
C953 C 0.79641 0.80517 0.53637 0.0
C954 C 0.77915 0.82588 0.59836 0.0
O955 O 0.81202 0.78101 0.59561 0.0
O956 O 0.82388 0.80521 0.58 0.0
O957 O 0.78628 0.82926 0.58167 0.0
O958 O 0.778 0.80798 0.60277 0.0
C959 C 0.76789 0.7663 0.57146 0.0
O960 O 0.78201 0.81138 0.54611 0.0
O961 O 0.80855 0.79509 0.54596 0.0
In962 In 0.69273 0.31145 0.57531 0.0
O963 O 0.72429 0.30073 0.57415 0.0
O964 O 0.70146 0.27978 0.57115 0.0
C965 C 0.69905 0.34415 0.59641 0.0
C966 C 0.68695 0.31871 0.53717 0.0
C967 C 0.66284 0.29748 0.59677 0.0
O968 O 0.70823 0.32842 0.59939 0.0
O969 O 0.68723 0.34359 0.58223 0.0
O970 O 0.6603 0.30661 0.5809 0.0
O971 O 0.68052 0.29529 0.6017 0.0
C972 C 0.71963 0.283 0.57178 0.0
O973 O 0.67492 0.30929 0.54754 0.0
O974 O 0.7019 0.32482 0.5462 0.0
In975 In 0.18292 0.17976 0.57292 0.0
O976 O 0.19246 0.21159 0.57155 0.0
O977 O 0.21463 0.18978 0.57283 0.0
C978 C 0.15125 0.18954 0.59423 0.0
C979 C 0.17865 0.17494 0.53411 0.0
C980 C 0.19181 0.14728 0.59346 0.0
O981 O 0.16816 0.19603 0.59783 0.0
O982 O 0.15023 0.17849 0.57947 0.0
O983 O 0.17984 0.14718 0.57938 0.0
O984 O 0.19966 0.16367 0.59675 0.0
C985 C 0.21054 0.20778 0.57195 0.0
O986 O 0.19088 0.16534 0.54408 0.0
O987 O 0.16831 0.18673 0.54384 0.0
In988 In 0.29701 0.67842 0.57579 0.0
O989 O 0.31464 0.68118 0.54792 0.0
O990 O 0.28723 0.66647 0.54635 0.0
C991 C 0.32456 0.69211 0.60029 0.0
C992 C 0.27049 0.70746 0.57385 0.0
C993 C 0.29311 0.64307 0.59277 0.0
O994 O 0.32833 0.68715 0.58291 0.0
O995 O 0.30681 0.69042 0.60515 0.0
O996 O 0.2804 0.65637 0.59455 0.0
O997 O 0.30732 0.64743 0.58181 0.0
C998 C 0.30219 0.67254 0.53736 0.0
O999 O 0.26565 0.68995 0.57737 0.0
O1000 O 0.28859 0.71014 0.57147 0.0
In1001 In 0.18745 0.80419 0.41193 0.0
O1002 O 0.19551 0.77223 0.41518 0.0
O1003 O 0.2188 0.79275 0.41265 0.0
C1004 C 0.15725 0.79286 0.38937 0.0
C1005 C 0.18164 0.80961 0.45038 0.0
C1006 C 0.19559 0.83713 0.39176 0.0
O1007 O 0.17473 0.78808 0.38583 0.0
O1008 O 0.15499 0.80315 0.40454 0.0
O1009 O 0.18322 0.8366 0.40545 0.0
O1010 O 0.20445 0.82119 0.38885 0.0
C1011 C 0.21375 0.77506 0.41462 0.0
O1012 O 0.19586 0.81726 0.44136 0.0
O1013 O 0.17024 0.79962 0.43984 0.0
In1014 In 0.69453 0.66937 0.40943 0.0
O1015 O 0.72513 0.68241 0.41148 0.0
O1016 O 0.70097 0.70192 0.41213 0.0
C1017 C 0.70188 0.63667 0.38895 0.0
C1018 C 0.68825 0.65928 0.44691 0.0
C1019 C 0.66584 0.68081 0.38521 0.0
O1020 O 0.71292 0.65149 0.38837 0.0
O1021 O 0.68792 0.63793 0.40101 0.0
O1022 O 0.66342 0.68027 0.40354 0.0
O1023 O 0.68283 0.67655 0.3794 0.0
C1024 C 0.7193 0.69987 0.41265 0.0
O1025 O 0.67523 0.66694 0.43628 0.0
O1026 O 0.70439 0.6563 0.43843 0.0
In1027 In 0.29704 0.30326 0.41108 0.0
O1028 O 0.26506 0.29395 0.41055 0.0
O1029 O 0.28676 0.27168 0.41175 0.0
C1030 C 0.28998 0.33467 0.3883 0.0
C1031 C 0.29958 0.30858 0.4499 0.0
C1032 C 0.33104 0.29337 0.39386 0.0
O1033 O 0.28462 0.31759 0.38374 0.0
O1034 O 0.29834 0.33596 0.40471 0.0
O1035 O 0.33004 0.30578 0.4075 0.0
O1036 O 0.3149 0.28563 0.38927 0.0
C1037 C 0.26877 0.27586 0.41131 0.0
O1038 O 0.31034 0.29671 0.44074 0.0
O1039 O 0.28769 0.31802 0.43936 0.0
In1040 In 0.56973 0.18238 0.79892 0.0
O1041 O 0.53961 0.16936 0.7931 0.0
O1042 O 0.54166 0.19341 0.81267 0.0
C1043 C 0.59218 0.15182 0.78799 0.0
C1044 C 0.57206 0.2096 0.77062 0.0
C1045 C 0.58669 0.18924 0.83379 0.0
O1046 O 0.57618 0.14962 0.79695 0.0
O1047 O 0.59646 0.16935 0.78414 0.0
O1048 O 0.58851 0.20064 0.81935 0.0
O1049 O 0.57601 0.17449 0.83067 0.0
C1050 C 0.53077 0.18116 0.80422 0.0
O1051 O 0.57739 0.21266 0.78802 0.0
O1052 O 0.56532 0.19266 0.76744 0.0
In1053 In 0.4193 0.80157 0.8087 0.0
O1054 O 0.44715 0.81632 0.79812 0.0
O1055 O 0.44967 0.79476 0.82039 0.0
C1056 C 0.40242 0.83631 0.80091 0.0
C1057 C 0.41487 0.77397 0.78104 0.0
C1058 C 0.3988 0.7902 0.84054 0.0
O1059 O 0.40399 0.82292 0.78834 0.0
O1060 O 0.40987 0.83233 0.81736 0.0
O1061 O 0.39478 0.78447 0.82348 0.0
O1062 O 0.41358 0.80121 0.84159 0.0
C1063 C 0.45828 0.80682 0.80936 0.0
O1064 O 0.40531 0.78976 0.78115 0.0
O1065 O 0.42662 0.7719 0.79519 0.0
In1066 In 0.56724 0.80499 0.18471 0.0
O1067 O 0.53777 0.81853 0.19228 0.0
O1068 O 0.53877 0.79757 0.16937 0.0
C1069 C 0.58694 0.83867 0.19027 0.0
C1070 C 0.56676 0.77906 0.21427 0.0
C1071 C 0.5897 0.79133 0.15538 0.0
O1072 O 0.57413 0.83677 0.17708 0.0
O1073 O 0.58921 0.8238 0.20097 0.0
O1074 O 0.59274 0.78715 0.1731 0.0
O1075 O 0.57508 0.80223 0.15242 0.0
C1076 C 0.52841 0.80881 0.17967 0.0
O1077 O 0.56471 0.7741 0.19658 0.0
O1078 O 0.56884 0.7972 0.21704 0.0
In1079 In 0.4151 0.19539 0.1894 0.0
O1080 O 0.40542 0.22425 0.20302 0.0
O1081 O 0.42816 0.20844 0.21718 0.0
C1082 C 0.39298 0.20501 0.15817 0.0
C1083 C 0.45255 0.18949 0.17951 0.0
C1084 C 0.39794 0.1617 0.20088 0.0
O1085 O 0.38641 0.20451 0.1754 0.0
O1086 O 0.41098 0.20118 0.15672 0.0
O1087 O 0.39714 0.17709 0.21103 0.0
O1088 O 0.40767 0.16332 0.18531 0.0
C1089 C 0.41736 0.22339 0.21705 0.0
O1090 O 0.44263 0.17721 0.18914 0.0
O1091 O 0.44354 0.20504 0.175 0.0
In1092 In 0.41396 0.3006 0.67742 0.0
O1093 O 0.44244 0.29167 0.66282 0.0
O1094 O 0.44323 0.31527 0.68301 0.0
C1095 C 0.3933 0.29364 0.64462 0.0
C1096 C 0.41476 0.27314 0.70549 0.0
C1097 C 0.39184 0.33058 0.68995 0.0
O1098 O 0.40565 0.30732 0.64586 0.0
O1099 O 0.39194 0.2831 0.65974 0.0
O1100 O 0.38873 0.31306 0.69486 0.0
O1101 O 0.40644 0.33308 0.67889 0.0
C1102 C 0.45267 0.30424 0.67164 0.0
O1103 O 0.41682 0.29115 0.70909 0.0
O1104 O 0.41247 0.269 0.68763 0.0
In1105 In 0.56977 0.69389 0.67269 0.0
O1106 O 0.54059 0.7067 0.66262 0.0
O1107 O 0.54125 0.67716 0.6724 0.0
C1108 C 0.58903 0.69764 0.63842 0.0
C1109 C 0.56953 0.7198 0.70218 0.0
C1110 C 0.59134 0.66505 0.68865 0.0
O1111 O 0.57716 0.68392 0.6418 0.0
O1112 O 0.5905 0.70997 0.65206 0.0
O1113 O 0.59695 0.68263 0.68811 0.0
O1114 O 0.57481 0.66195 0.68098 0.0
C1115 C 0.53109 0.69123 0.66611 0.0
O1116 O 0.57383 0.72468 0.68485 0.0
O1117 O 0.56503 0.70202 0.70436 0.0
In1118 In 0.57739 0.28783 0.30345 0.0
O1119 O 0.57254 0.28175 0.27124 0.0
O1120 O 0.57668 0.25728 0.29001 0.0
C1121 C 0.59632 0.3208 0.2932 0.0
C1122 C 0.53963 0.29294 0.31276 0.0
C1123 C 0.60018 0.27861 0.33437 0.0
O1124 O 0.60138 0.30413 0.28711 0.0
O1125 O 0.5816 0.32078 0.30434 0.0
O1126 O 0.58378 0.28684 0.33613 0.0
O1127 O 0.60471 0.27429 0.31703 0.0
C1128 C 0.57384 0.26342 0.27279 0.0
O1129 O 0.54873 0.27739 0.31698 0.0
O1130 O 0.54961 0.30562 0.30375 0.0
In1131 In 0.41826 0.68437 0.3118 0.0
O1132 O 0.44713 0.69441 0.32508 0.0
O1133 O 0.44696 0.6681 0.30854 0.0
C1134 C 0.39791 0.69242 0.34456 0.0
C1135 C 0.4193 0.71023 0.28217 0.0
C1136 C 0.39566 0.65429 0.3001 0.0
O1137 O 0.41026 0.67874 0.34365 0.0
O1138 O 0.39645 0.70249 0.32914 0.0
O1139 O 0.39237 0.67179 0.29525 0.0
O1140 O 0.41067 0.65188 0.31062 0.0
C1141 C 0.45683 0.68023 0.31835 0.0
O1142 O 0.42188 0.69211 0.27969 0.0
O1143 O 0.41658 0.71532 0.29973 0.0
In1144 In 0.40644 0.79374 0.1908 0.0
O1145 O 0.43476 0.78894 0.17422 0.0
O1146 O 0.43462 0.81018 0.19697 0.0
C1147 C 0.38419 0.78267 0.16016 0.0
C1148 C 0.41118 0.76663 0.21904 0.0
C1149 C 0.38599 0.82631 0.19914 0.0
O1150 O 0.40019 0.79169 0.15821 0.0
O1151 O 0.37971 0.77868 0.17764 0.0
O1152 O 0.38226 0.80995 0.2069 0.0
O1153 O 0.40033 0.82624 0.18752 0.0
C1154 C 0.44427 0.80154 0.18382 0.0
O1155 O 0.40873 0.78455 0.22268 0.0
O1156 O 0.411 0.76233 0.20109 0.0
In1157 In 0.57496 0.18463 0.17691 0.0
O1158 O 0.54651 0.19603 0.16395 0.0
O1159 O 0.54565 0.16941 0.18009 0.0
C1160 C 0.59673 0.19315 0.14521 0.0
C1161 C 0.57355 0.21014 0.20671 0.0
C1162 C 0.59562 0.15272 0.18713 0.0
O1163 O 0.58234 0.18158 0.14459 0.0
O1164 O 0.59951 0.20108 0.16163 0.0
O1165 O 0.59921 0.16955 0.19379 0.0
O1166 O 0.58109 0.15187 0.1757 0.0
C1167 C 0.53623 0.18226 0.17073 0.0
O1168 O 0.57215 0.19188 0.20919 0.0
O1169 O 0.5758 0.21548 0.18914 0.0
In1170 In 0.40776 0.19121 0.7987 0.0
O1171 O 0.43676 0.19935 0.81271 0.0
O1172 O 0.43612 0.17473 0.79371 0.0
C1173 C 0.38629 0.20275 0.82965 0.0
C1174 C 0.41043 0.21659 0.76876 0.0
C1175 C 0.38711 0.1586 0.79107 0.0
O1176 O 0.40177 0.19284 0.83139 0.0
O1177 O 0.38199 0.20734 0.81228 0.0
O1178 O 0.38376 0.17474 0.78272 0.0
O1179 O 0.40117 0.15887 0.80308 0.0
C1180 C 0.4462 0.18572 0.8046 0.0
O1181 O 0.40972 0.19831 0.76634 0.0
O1182 O 0.4097 0.22209 0.78638 0.0
In1183 In 0.58088 0.80017 0.7962 0.0
O1184 O 0.55241 0.79319 0.81152 0.0
O1185 O 0.55232 0.81626 0.79055 0.0
C1186 C 0.60119 0.78819 0.82777 0.0
C1187 C 0.57722 0.77444 0.7667 0.0
C1188 C 0.60279 0.83215 0.78939 0.0
O1189 O 0.58624 0.79895 0.82895 0.0
O1190 O 0.60563 0.78305 0.81059 0.0
O1191 O 0.60662 0.81567 0.78204 0.0
O1192 O 0.58744 0.83262 0.79966 0.0
C1193 C 0.54266 0.80613 0.80263 0.0
O1194 O 0.57892 0.79261 0.76382 0.0
O1195 O 0.57771 0.76931 0.78444 0.0
In1196 In 0.5776 0.69017 0.30038 0.0
O1197 O 0.57909 0.72235 0.29163 0.0
O1198 O 0.5688 0.70186 0.27061 0.0
C1199 C 0.60079 0.68971 0.33203 0.0
C1200 C 0.54082 0.68323 0.31255 0.0
C1201 C 0.60005 0.66459 0.28086 0.0
O1202 O 0.59726 0.70538 0.32287 0.0
O1203 O 0.59184 0.6748 0.3259 0.0
O1204 O 0.58301 0.66043 0.28674 0.0
O1205 O 0.6053 0.68204 0.28401 0.0
C1206 C 0.57268 0.71947 0.27453 0.0
O1207 O 0.54971 0.67232 0.30066 0.0
O1208 O 0.55063 0.69768 0.31857 0.0
In1209 In 0.41817 0.30565 0.30974 0.0
O1210 O 0.44878 0.31826 0.30951 0.0
O1211 O 0.44423 0.29126 0.3245 0.0
C1212 C 0.40277 0.34035 0.29833 0.0
C1213 C 0.41818 0.28087 0.27922 0.0
C1214 C 0.39599 0.29438 0.34047 0.0
O1215 O 0.41199 0.33821 0.31416 0.0
O1216 O 0.402 0.32517 0.28794 0.0
O1217 O 0.39591 0.28544 0.32435 0.0
O1218 O 0.40778 0.30855 0.34125 0.0
C1219 C 0.45623 0.30427 0.31908 0.0
O1220 O 0.4027 0.2852 0.28837 0.0
O1221 O 0.43345 0.28931 0.28525 0.0
In1222 In 0.4099 0.69141 0.6883 0.0
O1223 O 0.43926 0.67649 0.68553 0.0
O1224 O 0.43669 0.70536 0.67408 0.0
C1225 C 0.39602 0.65571 0.69764 0.0
C1226 C 0.41075 0.71737 0.71787 0.0
C1227 C 0.38414 0.69974 0.6596 0.0
O1228 O 0.40621 0.65893 0.68259 0.0
O1229 O 0.39318 0.67051 0.70831 0.0
O1230 O 0.40212 0.69711 0.65634 0.0
O1231 O 0.37935 0.6987 0.67739 0.0
C1232 C 0.44743 0.69056 0.67679 0.0
O1233 O 0.40289 0.72098 0.70155 0.0
O1234 O 0.41843 0.70063 0.71924 0.0
In1235 In 0.57569 0.29662 0.68191 0.0
O1236 O 0.57835 0.28658 0.71332 0.0
O1237 O 0.57247 0.26483 0.69187 0.0
C1238 C 0.60073 0.28788 0.65278 0.0
C1239 C 0.53712 0.30076 0.67555 0.0
C1240 C 0.59115 0.33165 0.69099 0.0
O1241 O 0.60464 0.28469 0.67054 0.0
O1242 O 0.58392 0.29486 0.64974 0.0
O1243 O 0.59346 0.31665 0.70151 0.0
O1244 O 0.58074 0.32902 0.67594 0.0
C1245 C 0.57545 0.26874 0.70969 0.0
O1246 O 0.54626 0.31056 0.68825 0.0
O1247 O 0.54749 0.28877 0.66613 0.0
C1248 C 0.06896 0.25979 0.24578 0.0
C1249 C 0.06677 0.25554 0.22576 0.0
C1250 C 0.06905 0.24485 0.25983 0.0
C1251 C 0.06698 0.2251 0.25437 0.0
H1252 H 0.07096 0.27474 0.25067 0.0
H1253 H 0.07114 0.24883 0.27504 0.0
S1254 S 0.05946 0.20628 0.20395 0.0
N1255 N 0.06149 0.23022 0.20124 0.0
N1256 N 0.06169 0.20214 0.22766 0.0
C1257 C 0.06423 0.22067 0.23445 0.0
C1258 C 0.06412 0.2359 0.22014 0.0
C1259 C 0.74859 0.07385 0.22985 0.0
C1260 C 0.72834 0.07249 0.23341 0.0
C1261 C 0.76207 0.074 0.24527 0.0
C1262 C 0.75583 0.0727 0.26485 0.0
H1263 H 0.75412 0.07487 0.21501 0.0
H1264 H 0.77752 0.07504 0.24178 0.0
S1265 S 0.70439 0.06893 0.28208 0.0
N1266 N 0.70266 0.06989 0.25799 0.0
N1267 N 0.72804 0.07009 0.28702 0.0
C1268 C 0.73562 0.07134 0.26865 0.0
C1269 C 0.72187 0.07126 0.25292 0.0
C1270 C 0.91447 0.74857 0.23167 0.0
C1271 C 0.91508 0.72855 0.23643 0.0
C1272 C 0.91507 0.76291 0.24625 0.0
C1273 C 0.91626 0.75778 0.26615 0.0
H1274 H 0.91333 0.75327 0.21655 0.0
H1275 H 0.91431 0.77814 0.24184 0.0
S1276 S 0.91906 0.70736 0.28638 0.0
N1277 N 0.91756 0.70427 0.26245 0.0
N1278 N 0.91864 0.73127 0.2899 0.0
C1279 C 0.91725 0.73781 0.27114 0.0
C1280 C 0.91666 0.72318 0.25627 0.0
C1281 C 0.26037 0.9157 0.24535 0.0
C1282 C 0.25609 0.91758 0.22529 0.0
C1283 C 0.24544 0.91521 0.25934 0.0
C1284 C 0.22564 0.91653 0.25381 0.0
H1285 H 0.27539 0.9144 0.25033 0.0
H1286 H 0.24949 0.91359 0.27459 0.0
S1287 S 0.2066 0.92229 0.20319 0.0
N1288 N 0.23062 0.92127 0.20059 0.0
N1289 N 0.2025 0.92032 0.22693 0.0
C1290 C 0.22112 0.91871 0.23382 0.0
C1291 C 0.23636 0.91925 0.21955 0.0
C1292 C 0.06946 0.71875 0.73616 0.0
C1293 C 0.06712 0.72245 0.75627 0.0
C1294 C 0.07016 0.73409 0.72258 0.0
C1295 C 0.0686 0.75372 0.72859 0.0
H1296 H 0.07097 0.70389 0.73084 0.0
H1297 H 0.07223 0.73049 0.70727 0.0
S1298 S 0.06144 0.77126 0.77951 0.0
N1299 N 0.0626 0.74719 0.78151 0.0
N1300 N 0.06396 0.77604 0.75595 0.0
C1301 C 0.06589 0.75764 0.74862 0.0
C1302 C 0.06514 0.742 0.76247 0.0
C1303 C 0.2607 0.07062 0.74169 0.0
C1304 C 0.2557 0.06887 0.76159 0.0
C1305 C 0.24633 0.07011 0.72709 0.0
C1306 C 0.22642 0.06782 0.73182 0.0
H1307 H 0.27582 0.07263 0.7373 0.0
H1308 H 0.2509 0.07173 0.71198 0.0
S1309 S 0.20569 0.06179 0.78173 0.0
N1310 N 0.22949 0.06416 0.78528 0.0
N1311 N 0.20245 0.0632 0.75781 0.0
C1312 C 0.22123 0.06571 0.75165 0.0
C1313 C 0.23588 0.06624 0.76654 0.0
C1314 C 0.90469 0.21664 0.74953 0.0
C1315 C 0.91101 0.22191 0.73064 0.0
C1316 C 0.90328 0.23058 0.76445 0.0
C1317 C 0.9081 0.25031 0.76105 0.0
H1318 H 0.90065 0.20165 0.75282 0.0
H1319 H 0.89823 0.22584 0.77873 0.0
S1320 S 0.92606 0.27157 0.71432 0.0
N1321 N 0.92259 0.24815 0.70944 0.0
N1322 N 0.91991 0.27437 0.73751 0.0
C1323 C 0.91463 0.25577 0.74228 0.0
C1324 C 0.9161 0.24156 0.72708 0.0
C1325 C 0.72504 0.91682 0.7455 0.0
C1326 C 0.73211 0.91622 0.76484 0.0
C1327 C 0.73784 0.91643 0.72955 0.0
C1328 C 0.75823 0.91548 0.7323 0.0
H1329 H 0.70944 0.91738 0.74259 0.0
H1330 H 0.73164 0.91673 0.71494 0.0
S1331 S 0.78429 0.91426 0.78003 0.0
N1332 N 0.76085 0.91509 0.78592 0.0
N1333 N 0.78499 0.9144 0.75587 0.0
C1334 C 0.76556 0.91518 0.75157 0.0
C1335 C 0.75248 0.91554 0.76786 0.0
C1336 C 0.25056 0.0776 0.22442 0.0
C1337 C 0.26971 0.07306 0.23051 0.0
C1338 C 0.23493 0.07748 0.23764 0.0
C1339 C 0.23784 0.07287 0.2575 0.0
H1340 H 0.24756 0.08136 0.20929 0.0
H1341 H 0.22047 0.0812 0.23224 0.0
S1342 S 0.2851 0.05946 0.28088 0.0
N1343 N 0.29071 0.06348 0.25771 0.0
N1344 N 0.26128 0.06331 0.28262 0.0
C1345 C 0.25689 0.06816 0.26381 0.0
C1346 C 0.27284 0.06824 0.25031 0.0
C1347 C 0.91845 0.25735 0.24302 0.0
C1348 C 0.91392 0.25307 0.2234 0.0
C1349 C 0.91863 0.24268 0.25729 0.0
C1350 C 0.9142 0.22314 0.25255 0.0
H1351 H 0.92176 0.27221 0.24748 0.0
H1352 H 0.92204 0.24679 0.27223 0.0
S1353 S 0.90192 0.20408 0.20316 0.0
N1354 N 0.90535 0.22779 0.19981 0.0
N1355 N 0.90561 0.20014 0.22674 0.0
C1356 C 0.90991 0.21855 0.23293 0.0
C1357 C 0.9098 0.23354 0.21833 0.0
C1358 C 0.72256 0.90836 0.24287 0.0
C1359 C 0.72793 0.9115 0.22324 0.0
C1360 C 0.73656 0.90843 0.25782 0.0
C1361 C 0.7565 0.91159 0.25374 0.0
H1362 H 0.70739 0.90583 0.24679 0.0
H1363 H 0.73166 0.90588 0.27269 0.0
S1364 S 0.77824 0.9207 0.20475 0.0
N1365 N 0.75459 0.918 0.20047 0.0
N1366 N 0.78096 0.91807 0.22863 0.0
C1367 C 0.76212 0.9148 0.23418 0.0
C1368 C 0.74782 0.91476 0.21891 0.0
C1369 C 0.07037 0.74463 0.22313 0.0
C1370 C 0.06927 0.72463 0.22793 0.0
C1371 C 0.0704 0.759 0.2377 0.0
C1372 C 0.06934 0.75393 0.25764 0.0
H1373 H 0.07142 0.74928 0.20799 0.0
H1374 H 0.07151 0.7742 0.23327 0.0
S1375 S 0.0654 0.70362 0.27796 0.0
N1376 N 0.06648 0.70047 0.25402 0.0
N1377 N 0.06655 0.72751 0.28144 0.0
C1378 C 0.06789 0.734 0.26266 0.0
C1379 C 0.06784 0.71934 0.2478 0.0
C1380 C 0.23132 0.91117 0.7504 0.0
C1381 C 0.23581 0.91124 0.73031 0.0
C1382 C 0.24612 0.91207 0.76456 0.0
C1383 C 0.26598 0.91302 0.75917 0.0
H1384 H 0.21625 0.91036 0.7553 0.0
H1385 H 0.24191 0.91187 0.77985 0.0
S1386 S 0.28555 0.91391 0.70847 0.0
N1387 N 0.26156 0.91258 0.70569 0.0
N1388 N 0.28939 0.91422 0.73233 0.0
C1389 C 0.2707 0.91324 0.73913 0.0
C1390 C 0.25561 0.91236 0.72469 0.0
C1391 C 0.07269 0.22365 0.74931 0.0
C1392 C 0.06911 0.22792 0.72948 0.0
C1393 C 0.07128 0.23815 0.76366 0.0
C1394 C 0.0662 0.25751 0.75877 0.0
H1395 H 0.07672 0.20898 0.75384 0.0
H1396 H 0.07429 0.23412 0.77871 0.0
S1397 S 0.05489 0.27625 0.70898 0.0
N1398 N 0.05995 0.25284 0.70567 0.0
N1399 N 0.05727 0.28017 0.73272 0.0
C1400 C 0.06242 0.26199 0.73902 0.0
C1401 C 0.06389 0.24719 0.72435 0.0
C1402 C 0.76038 0.07581 0.73815 0.0
C1403 C 0.75465 0.07344 0.71852 0.0
C1404 C 0.74657 0.07592 0.75325 0.0
C1405 C 0.72649 0.07355 0.74934 0.0
H1406 H 0.77568 0.07766 0.74196 0.0
H1407 H 0.75174 0.07784 0.76813 0.0
S1408 S 0.70383 0.06667 0.70039 0.0
N1409 N 0.72752 0.06861 0.6959 0.0
N1410 N 0.70149 0.06872 0.72436 0.0
C1411 C 0.72051 0.07111 0.72977 0.0
C1412 C 0.73461 0.07109 0.71433 0.0
C1413 C 0.91482 0.76708 0.73621 0.0
C1414 C 0.91609 0.76266 0.71615 0.0
C1415 C 0.91378 0.75222 0.75029 0.0
C1416 C 0.91386 0.73237 0.74482 0.0
H1417 H 0.91446 0.78216 0.74113 0.0
H1418 H 0.91263 0.75636 0.76555 0.0
S1419 S 0.9176 0.71296 0.6942 0.0
N1420 N 0.91788 0.73699 0.69152 0.0
N1421 N 0.91584 0.70903 0.71799 0.0
C1422 C 0.91541 0.72771 0.72482 0.0
C1423 C 0.91656 0.74287 0.71048 0.0
C1424 C 0.22952 0.2332 0.07468 0.0
C1425 C 0.23329 0.25319 0.07146 0.0
C1426 C 0.24468 0.2194 0.07434 0.0
C1427 C 0.26415 0.22509 0.07072 0.0
H1428 H 0.21479 0.22815 0.07777 0.0
H1429 H 0.24109 0.2042 0.07715 0.0
S1430 S 0.28161 0.27556 0.06033 0.0
N1431 N 0.2578 0.27793 0.0638 0.0
N1432 N 0.28629 0.25201 0.06312 0.0
C1433 C 0.26807 0.24499 0.06708 0.0
C1434 C 0.25263 0.25905 0.06746 0.0
C1435 C 0.24617 0.72414 0.91223 0.0
C1436 C 0.22641 0.72985 0.91109 0.0
C1437 C 0.26115 0.73804 0.91357 0.0
C1438 C 0.25696 0.75819 0.91385 0.0
H1439 H 0.25017 0.70879 0.91196 0.0
H1440 H 0.27615 0.7329 0.91426 0.0
S1441 S 0.20755 0.78083 0.91165 0.0
N1442 N 0.20336 0.75704 0.91064 0.0
N1443 N 0.23157 0.78322 0.91318 0.0
C1444 C 0.23724 0.76414 0.91294 0.0
C1445 C 0.22195 0.74995 0.91155 0.0
C1446 C 0.2411 0.26551 0.91557 0.0
C1447 C 0.22128 0.25995 0.91664 0.0
C1448 C 0.25604 0.25149 0.9155 0.0
C1449 C 0.25175 0.23137 0.9165 0.0
H1450 H 0.24514 0.28083 0.91463 0.0
H1451 H 0.27107 0.2565 0.91447 0.0
S1452 S 0.20222 0.20912 0.92008 0.0
N1453 N 0.19814 0.23292 0.91914 0.0
N1454 N 0.22624 0.20656 0.91901 0.0
C1455 C 0.232 0.22559 0.91784 0.0
C1456 C 0.21677 0.23988 0.9179 0.0
C1457 C 0.7264 0.23768 0.89532 0.0
C1458 C 0.71729 0.23126 0.91261 0.0
C1459 C 0.74058 0.25247 0.89573 0.0
C1460 C 0.74645 0.26098 0.91352 0.0
H1461 H 0.72264 0.23114 0.88136 0.0
H1462 H 0.74742 0.25682 0.88209 0.0
S1463 S 0.72668 0.24964 0.96283 0.0
N1464 N 0.71458 0.23492 0.94793 0.0
N1465 N 0.7417 0.2624 0.94879 0.0
C1466 C 0.73726 0.25489 0.9309 0.0
C1467 C 0.72252 0.24011 0.93043 0.0
C1468 C 0.74536 0.72275 0.90964 0.0
C1469 C 0.76456 0.72805 0.91493 0.0
C1470 C 0.73008 0.73636 0.91019 0.0
C1471 C 0.73339 0.75581 0.91605 0.0
H1472 H 0.74207 0.70798 0.9049 0.0
H1473 H 0.71558 0.73159 0.90583 0.0
S1474 S 0.78091 0.77702 0.93193 0.0
N1475 N 0.78601 0.754 0.92663 0.0
N1476 N 0.75725 0.77964 0.92767 0.0
C1477 C 0.75248 0.7613 0.92159 0.0
C1478 C 0.76807 0.7474 0.92103 0.0
C1479 C 0.72508 0.73174 0.07491 0.0
C1480 C 0.72866 0.75193 0.073 0.0
C1481 C 0.74041 0.71816 0.07408 0.0
C1482 C 0.7599 0.72427 0.07134 0.0
H1483 H 0.71033 0.72632 0.07717 0.0
H1484 H 0.73694 0.70277 0.0758 0.0
S1485 S 0.77705 0.77549 0.06496 0.0
N1486 N 0.75311 0.77738 0.06782 0.0
N1487 N 0.78193 0.75185 0.06629 0.0
C1488 C 0.76368 0.74441 0.06919 0.0
C1489 C 0.74806 0.75824 0.07001 0.0
C1490 C 0.25662 0.7362 0.07102 0.0
C1491 C 0.25178 0.75622 0.07106 0.0
C1492 C 0.24212 0.72181 0.06942 0.0
C1493 C 0.22222 0.72687 0.06776 0.0
H1494 H 0.27173 0.73155 0.07237 0.0
H1495 H 0.24658 0.70658 0.06964 0.0
S1496 S 0.20183 0.77727 0.06659 0.0
N1497 N 0.2257 0.78042 0.06891 0.0
N1498 N 0.19842 0.75335 0.06588 0.0
C1499 C 0.21717 0.74685 0.06754 0.0
C1500 C 0.23196 0.76153 0.0692 0.0
C1501 C 0.76447 0.24258 0.06826 0.0
C1502 C 0.75741 0.26189 0.06711 0.0
C1503 C 0.75164 0.2266 0.06808 0.0
C1504 C 0.73127 0.22933 0.06671 0.0
H1505 H 0.78002 0.23974 0.06963 0.0
H1506 H 0.75777 0.21202 0.06931 0.0
S1507 S 0.70538 0.27694 0.06221 0.0
N1508 N 0.72878 0.28286 0.06374 0.0
N1509 N 0.70464 0.25281 0.06337 0.0
C1510 C 0.72402 0.24855 0.06506 0.0
C1511 C 0.7371 0.26484 0.06528 0.0
C1512 C 0.7203 0.57559 0.75633 0.0
C1513 C 0.72312 0.57251 0.73617 0.0
C1514 C 0.73596 0.57438 0.76951 0.0
C1515 C 0.75503 0.57009 0.76303 0.0
H1516 H 0.70592 0.57919 0.76199 0.0
H1517 H 0.73312 0.57715 0.78487 0.0
S1518 S 0.77005 0.55977 0.71183 0.0
N1519 N 0.74632 0.56423 0.71042 0.0
N1520 N 0.77576 0.56199 0.7352 0.0
C1521 C 0.758 0.56657 0.74296 0.0
C1522 C 0.74205 0.56778 0.72953 0.0
C1523 C 0.21784 0.41236 0.74007 0.0
C1524 C 0.22175 0.41159 0.76027 0.0
C1525 C 0.23303 0.41188 0.72635 0.0
C1526 C 0.25271 0.41053 0.7323 0.0
H1527 H 0.20291 0.41332 0.73475 0.0
H1528 H 0.22927 0.41243 0.71094 0.0
S1529 S 0.27084 0.40836 0.78353 0.0
N1530 N 0.24678 0.40964 0.78561 0.0
N1531 N 0.27536 0.40866 0.75979 0.0
C1532 C 0.25687 0.40984 0.75247 0.0
C1533 C 0.24138 0.4104 0.76646 0.0
C1534 C 0.22339 0.57194 0.24146 0.0
C1535 C 0.22816 0.57372 0.22151 0.0
C1536 C 0.23781 0.5733 0.25596 0.0
C1537 C 0.25756 0.57653 0.25107 0.0
H1538 H 0.20838 0.56944 0.24599 0.0
H1539 H 0.2334 0.57177 0.27112 0.0
S1540 S 0.27774 0.58245 0.20093 0.0
N1541 N 0.25403 0.57902 0.19757 0.0
N1542 N 0.28117 0.58161 0.22484 0.0
C1543 C 0.26256 0.57841 0.23117 0.0
C1544 C 0.24785 0.57699 0.21638 0.0
C1545 C 0.73217 0.41553 0.22895 0.0
C1546 C 0.75166 0.41599 0.23563 0.0
C1547 C 0.71648 0.41667 0.24204 0.0
C1548 C 0.71966 0.41841 0.26229 0.0
H1549 H 0.72895 0.41395 0.2135 0.0
H1550 H 0.70173 0.41594 0.2362 0.0
S1551 S 0.76794 0.42117 0.28723 0.0
N1552 N 0.77334 0.41894 0.26378 0.0
N1553 N 0.74379 0.42117 0.28843 0.0
C1554 C 0.73908 0.41936 0.26917 0.0
C1555 C 0.7551 0.41811 0.25582 0.0
C1556 C 0.26843 0.56279 0.74566 0.0
C1557 C 0.26828 0.57433 0.72858 0.0
C1558 C 0.25272 0.5632 0.75883 0.0
C1559 C 0.23623 0.57502 0.75529 0.0
H1560 H 0.28067 0.5532 0.74881 0.0
H1561 H 0.25337 0.55391 0.77169 0.0
S1562 S 0.22903 0.60875 0.71322 0.0
N1563 N 0.25057 0.59854 0.70925 0.0
N1564 N 0.221 0.59916 0.73392 0.0
C1565 C 0.23603 0.5869 0.73847 0.0
C1566 C 0.25208 0.5866 0.72513 0.0
C1567 C 0.71953 0.41452 0.74869 0.0
C1568 C 0.72272 0.41961 0.72899 0.0
C1569 C 0.73512 0.41311 0.76191 0.0
C1570 C 0.75451 0.41665 0.75594 0.0
H1571 H 0.70489 0.41145 0.75397 0.0
H1572 H 0.73191 0.40902 0.77691 0.0
S1573 S 0.77071 0.43099 0.70606 0.0
N1574 N 0.74671 0.42863 0.7042 0.0
N1575 N 0.77605 0.4259 0.72909 0.0
C1576 C 0.75793 0.42196 0.73633 0.0
C1577 C 0.74201 0.42348 0.72285 0.0
C1578 C 0.22972 0.41313 0.24767 0.0
C1579 C 0.23375 0.41122 0.22758 0.0
C1580 C 0.24486 0.41432 0.26144 0.0
C1581 C 0.26462 0.41359 0.25565 0.0
H1582 H 0.21473 0.41376 0.25286 0.0
H1583 H 0.24099 0.41578 0.27675 0.0
S1584 S 0.28306 0.40862 0.20477 0.0
N1585 N 0.25898 0.40863 0.20253 0.0
N1586 N 0.28745 0.41082 0.22844 0.0
C1587 C 0.26889 0.41166 0.2356 0.0
C1588 C 0.25345 0.41049 0.22156 0.0
C1589 C 0.76125 0.56482 0.23884 0.0
C1590 C 0.75823 0.56533 0.21849 0.0
C1591 C 0.74548 0.56535 0.25187 0.0
C1592 C 0.72607 0.56652 0.24505 0.0
H1593 H 0.77595 0.56422 0.24483 0.0
H1594 H 0.74859 0.56522 0.26743 0.0
S1595 S 0.71017 0.56737 0.19306 0.0
N1596 N 0.73431 0.56636 0.19204 0.0
N1597 N 0.70461 0.56746 0.21659 0.0
C1598 C 0.72278 0.56662 0.22472 0.0
C1599 C 0.73887 0.566 0.21142 0.0
C1600 C 0.22217 0.73482 0.57425 0.0
C1601 C 0.2279 0.75437 0.57114 0.0
C1602 C 0.23603 0.71972 0.57503 0.0
C1603 C 0.25612 0.72361 0.57265 0.0
H1604 H 0.20688 0.73114 0.57635 0.0
H1605 H 0.23094 0.70491 0.57762 0.0
S1606 S 0.27868 0.77227 0.5634 0.0
N1607 N 0.255 0.77676 0.56516 0.0
N1608 N 0.28103 0.74843 0.56656 0.0
C1609 C 0.26203 0.74307 0.56923 0.0
C1610 C 0.24792 0.75844 0.56849 0.0
C1611 C 0.24462 0.22597 0.41197 0.0
C1612 C 0.22453 0.23045 0.41256 0.0
C1613 C 0.25877 0.24078 0.4116 0.0
C1614 C 0.25338 0.26065 0.41176 0.0
H1615 H 0.24953 0.21089 0.41173 0.0
H1616 H 0.27406 0.23657 0.41111 0.0
S1617 S 0.20267 0.28022 0.41346 0.0
N1618 N 0.1999 0.2562 0.41346 0.0
N1619 N 0.22654 0.28409 0.41273 0.0
C1620 C 0.23333 0.26538 0.41243 0.0
C1621 C 0.2189 0.25026 0.41285 0.0
C1622 C 0.24819 0.76284 0.4139 0.0
C1623 C 0.22806 0.75888 0.41578 0.0
C1624 C 0.26203 0.74773 0.41434 0.0
C1625 C 0.25625 0.72808 0.41664 0.0
H1626 H 0.25333 0.77772 0.41189 0.0
H1627 H 0.27735 0.75149 0.41262 0.0
S1628 S 0.20536 0.70996 0.42304 0.0
N1629 N 0.20306 0.7339 0.42066 0.0
N1630 N 0.22907 0.70551 0.42146 0.0
C1631 C 0.23619 0.72393 0.41886 0.0
C1632 C 0.2221 0.73932 0.41844 0.0
C1633 C 0.73763 0.75216 0.41397 0.0
C1634 C 0.75803 0.74993 0.4157 0.0
C1635 C 0.72523 0.73587 0.41324 0.0
C1636 C 0.73277 0.71672 0.41414 0.0
H1637 H 0.73115 0.76661 0.41298 0.0
H1638 H 0.70963 0.73833 0.41171 0.0
S1639 S 0.7851 0.7029 0.41943 0.0
N1640 N 0.78523 0.72707 0.41885 0.0
N1641 N 0.76189 0.69642 0.41742 0.0
C1642 C 0.75312 0.71425 0.41617 0.0
C1643 C 0.76576 0.73087 0.41698 0.0
C1644 C 0.72695 0.24533 0.41711 0.0
C1645 C 0.73203 0.26521 0.41525 0.0
C1646 C 0.7412 0.23064 0.41619 0.0
C1647 C 0.7611 0.23529 0.41355 0.0
H1648 H 0.7118 0.24101 0.41905 0.0
H1649 H 0.73656 0.21553 0.41757 0.0
S1650 S 0.78214 0.28518 0.40833 0.0
N1651 N 0.75838 0.28883 0.4109 0.0
N1652 N 0.78522 0.26122 0.40933 0.0
C1653 C 0.76643 0.25513 0.4119 0.0
C1654 C 0.75188 0.27009 0.41271 0.0
C1655 C 0.76856 0.25698 0.57092 0.0
C1656 C 0.76322 0.23715 0.56942 0.0
C1657 C 0.75436 0.27173 0.57145 0.0
C1658 C 0.73429 0.26719 0.5704 0.0
H1659 H 0.78384 0.26117 0.57199 0.0
H1660 H 0.75917 0.28678 0.57287 0.0
S1661 S 0.71266 0.21753 0.56531 0.0
N1662 N 0.73652 0.21374 0.56618 0.0
N1663 N 0.70979 0.24146 0.56709 0.0
C1664 C 0.72875 0.24743 0.56849 0.0
C1665 C 0.74322 0.2324 0.56802 0.0
C1666 C 0.21991 0.24304 0.57097 0.0
C1667 C 0.22564 0.22327 0.57164 0.0
C1668 C 0.23381 0.2581 0.57096 0.0
C1669 C 0.25398 0.25398 0.57162 0.0
H1670 H 0.20455 0.24698 0.57053 0.0
H1671 H 0.22866 0.2731 0.57052 0.0
S1672 S 0.2767 0.20459 0.57323 0.0
N1673 N 0.2529 0.20032 0.57276 0.0
N1674 N 0.27905 0.22865 0.57274 0.0
C1675 C 0.25995 0.23426 0.57215 0.0
C1676 C 0.24578 0.2189 0.57216 0.0
C1677 C 0.73433 0.75268 0.56706 0.0
C1678 C 0.75452 0.7494 0.56955 0.0
C1679 C 0.72117 0.73706 0.56558 0.0
C1680 C 0.72766 0.71755 0.56666 0.0
H1681 H 0.72858 0.76745 0.56636 0.0
H1682 H 0.70573 0.74036 0.56393 0.0
S1683 S 0.77914 0.70102 0.57242 0.0
N1684 N 0.78049 0.72516 0.57246 0.0
N1685 N 0.75568 0.69574 0.56981 0.0
C1686 C 0.74785 0.71401 0.56884 0.0
C1687 C 0.76129 0.72996 0.57025 0.0
C1688 C 0.56605 0.22098 0.73636 0.0
C1689 C 0.57355 0.2247 0.75519 0.0
C1690 C 0.56697 0.23522 0.7216 0.0
C1691 C 0.57531 0.25369 0.7252 0.0
H1692 H 0.55927 0.20704 0.73301 0.0
H1693 H 0.56081 0.23182 0.70738 0.0
S1694 S 0.59821 0.27032 0.77161 0.0
N1695 N 0.59045 0.24791 0.77634 0.0
N1696 N 0.59207 0.27465 0.74864 0.0
C1697 C 0.58318 0.25748 0.74384 0.0
C1698 C 0.58232 0.24298 0.75884 0.0
C1699 C 0.4233 0.72857 0.75032 0.0
C1700 C 0.41105 0.73169 0.73404 0.0
C1701 C 0.42427 0.74221 0.76558 0.0
C1702 C 0.41293 0.7594 0.76518 0.0
H1703 H 0.43244 0.71562 0.75116 0.0
H1704 H 0.43413 0.73932 0.77769 0.0
S1705 S 0.37767 0.77391 0.72633 0.0
N1706 N 0.38679 0.75287 0.71875 0.0
N1707 N 0.38851 0.77845 0.74745 0.0
C1708 C 0.40031 0.76249 0.74917 0.0
C1709 C 0.3994 0.74866 0.73359 0.0
C1710 C 0.56516 0.73036 0.24058 0.0
C1711 C 0.57044 0.73522 0.25988 0.0
C1712 C 0.56372 0.74471 0.22606 0.0
C1713 C 0.5674 0.76451 0.23027 0.0
H1714 H 0.56238 0.71527 0.23653 0.0
H1715 H 0.55987 0.74017 0.21135 0.0
S1716 S 0.58094 0.7851 0.27872 0.0
N1717 N 0.57881 0.76133 0.28263 0.0
N1718 N 0.57601 0.7884 0.25527 0.0
C1719 C 0.57228 0.76969 0.2496 0.0
C1720 C 0.57383 0.75502 0.26442 0.0
C1721 C 0.4013 0.26278 0.25241 0.0
C1722 C 0.4185 0.26663 0.26305 0.0
C1723 C 0.40119 0.24905 0.23719 0.0
C1724 C 0.41815 0.2384 0.23246 0.0
H1725 H 0.38785 0.27048 0.2558 0.0
H1726 H 0.38761 0.24646 0.22938 0.0
S1727 S 0.467 0.2432 0.25575 0.0
N1728 N 0.45305 0.25902 0.26755 0.0
N1729 N 0.45266 0.23281 0.23928 0.0
C1730 C 0.43545 0.24213 0.24294 0.0
C1731 C 0.43568 0.25639 0.25815 0.0
C1732 C 0.41374 0.25066 0.75613 0.0
C1733 C 0.41195 0.23052 0.75229 0.0
C1734 C 0.41492 0.26427 0.74086 0.0
C1735 C 0.41429 0.25827 0.72118 0.0
H1736 H 0.41415 0.25601 0.77105 0.0
H1737 H 0.41613 0.27965 0.74458 0.0
S1738 S 0.41015 0.20714 0.70325 0.0
N1739 N 0.40994 0.20515 0.72734 0.0
N1740 N 0.41212 0.23079 0.69862 0.0
C1741 C 0.41271 0.23815 0.7171 0.0
C1742 C 0.41155 0.22426 0.73267 0.0
C1743 C 0.57547 0.75331 0.71548 0.0
C1744 C 0.57061 0.73357 0.7188 0.0
C1745 C 0.57743 0.76646 0.73106 0.0
C1746 C 0.57475 0.76032 0.75054 0.0
H1747 H 0.57792 0.75865 0.70073 0.0
H1748 H 0.5813 0.78151 0.72781 0.0
S1749 S 0.56123 0.7103 0.76709 0.0
N1750 N 0.56265 0.70861 0.74303 0.0
N1751 N 0.56646 0.73331 0.7723 0.0
C1752 C 0.56967 0.74067 0.75407 0.0
C1753 C 0.56756 0.7273 0.7382 0.0
C1754 C 0.57344 0.21699 0.24255 0.0
C1755 C 0.57294 0.22407 0.2232 0.0
C1756 C 0.57349 0.22983 0.2585 0.0
C1757 C 0.57291 0.25022 0.2557 0.0
H1758 H 0.57408 0.2014 0.24544 0.0
H1759 H 0.57414 0.2237 0.27312 0.0
S1760 S 0.57064 0.27621 0.20794 0.0
N1761 N 0.57129 0.25277 0.20211 0.0
N1762 N 0.57127 0.27693 0.23208 0.0
C1763 C 0.57202 0.25751 0.23643 0.0
C1764 C 0.57208 0.24442 0.22017 0.0
C1765 C 0.4126 0.75776 0.25441 0.0
C1766 C 0.41397 0.75195 0.23471 0.0
C1767 C 0.41472 0.74421 0.26964 0.0
C1768 C 0.41835 0.72432 0.26576 0.0
H1769 H 0.40964 0.77288 0.25816 0.0
H1770 H 0.41327 0.74937 0.28456 0.0
S1771 S 0.42407 0.7017 0.21667 0.0
N1772 N 0.41977 0.72505 0.2121 0.0
N1773 N 0.42381 0.69954 0.24075 0.0
C1774 C 0.42013 0.71834 0.24612 0.0
C1775 C 0.41792 0.73216 0.23059 0.0
C1776 C 0.10863 0.11825 0.29073 0.0
C1777 C 0.11074 0.13654 0.28149 0.0
C1778 C 0.12383 0.10451 0.29051 0.0
C1779 C 0.14168 0.10858 0.28106 0.0
H1780 H 0.09556 0.11487 0.29907 0.0
H1781 H 0.1219 0.09105 0.29871 0.0
S1782 S 0.15327 0.15297 0.25185 0.0
N1783 N 0.13105 0.157 0.26049 0.0
N1784 N 0.15966 0.13115 0.26012 0.0
C1785 C 0.14338 0.12616 0.27044 0.0
C1786 C 0.12788 0.14015 0.27064 0.0
C1787 C 0.84927 0.11916 0.31496 0.0
C1788 C 0.846 0.10571 0.29982 0.0
C1789 C 0.86514 0.13202 0.3143 0.0
C1790 C 0.87793 0.13224 0.29818 0.0
H1791 H 0.83942 0.1198 0.3274 0.0
H1792 H 0.8669 0.14243 0.32614 0.0
S1793 S 0.87581 0.09952 0.255 0.0
N1794 N 0.85707 0.09259 0.2687 0.0
N1795 N 0.88657 0.11765 0.26691 0.0
C1796 C 0.87494 0.11871 0.283 0.0
C1797 C 0.85905 0.10515 0.28398 0.0
C1798 C 0.87813 0.8655 0.30524 0.0
C1799 C 0.87817 0.84891 0.29307 0.0
C1800 C 0.8631 0.87939 0.30407 0.0
C1801 C 0.84758 0.87717 0.29069 0.0
H1802 H 0.88922 0.86732 0.31645 0.0
H1803 H 0.86317 0.8914 0.31442 0.0
S1804 S 0.84265 0.83802 0.25336 0.0
N1805 N 0.86273 0.8323 0.26558 0.0
N1806 N 0.83445 0.85841 0.26339 0.0
C1807 C 0.84825 0.86145 0.27743 0.0
C1808 C 0.86357 0.8473 0.27861 0.0
C1809 C 0.13869 0.85929 0.27542 0.0
C1810 C 0.13505 0.87751 0.28429 0.0
C1811 C 0.12468 0.84435 0.27584 0.0
C1812 C 0.10654 0.84706 0.28519 0.0
H1813 H 0.15282 0.85616 0.26894 0.0
H1814 H 0.12855 0.83025 0.2697 0.0
S1815 S 0.08855 0.89311 0.30768 0.0
N1816 N 0.11106 0.89827 0.30049 0.0
N1817 N 0.0847 0.87011 0.30132 0.0
C1818 C 0.10211 0.86569 0.29275 0.0
C1819 C 0.11639 0.88095 0.29228 0.0
C1820 C 0.13166 0.83892 0.70935 0.0
C1821 C 0.11269 0.84366 0.70284 0.0
C1822 C 0.14656 0.85301 0.70964 0.0
C1823 C 0.14301 0.87233 0.70343 0.0
H1824 H 0.13535 0.824 0.71329 0.0
H1825 H 0.16118 0.84842 0.71379 0.0
S1826 S 0.09501 0.89298 0.68835 0.0
N1827 N 0.09053 0.86958 0.69247 0.0
N1828 N 0.11854 0.89609 0.69303 0.0
C1829 C 0.12374 0.87763 0.69839 0.0
C1830 C 0.10857 0.86327 0.69808 0.0
C1831 C 0.14148 0.1237 0.7092 0.0
C1832 C 0.13754 0.10518 0.70112 0.0
C1833 C 0.12718 0.13835 0.70946 0.0
C1834 C 0.1084 0.135 0.70166 0.0
H1835 H 0.156 0.12729 0.71453 0.0
H1836 H 0.13121 0.15267 0.71496 0.0
S1837 S 0.08975 0.08802 0.68168 0.0
N1838 N 0.11285 0.08352 0.68727 0.0
N1839 N 0.08589 0.11109 0.68777 0.0
C1840 C 0.1038 0.11609 0.69492 0.0
C1841 C 0.1184 0.10116 0.69464 0.0
C1842 C 0.85448 0.10907 0.70278 0.0
C1843 C 0.85178 0.09815 0.68555 0.0
C1844 C 0.8692 0.12327 0.70409 0.0
C1845 C 0.88175 0.12706 0.68821 0.0
H1846 H 0.8445 0.10744 0.71501 0.0
H1847 H 0.87004 0.13202 0.71729 0.0
S1848 S 0.88262 0.10046 0.64085 0.0
N1849 N 0.8643 0.09048 0.65308 0.0
N1850 N 0.89198 0.11722 0.65553 0.0
C1851 C 0.88024 0.11515 0.67148 0.0
C1852 C 0.86525 0.10066 0.67016 0.0
C1853 C 0.84977 0.86737 0.70219 0.0
C1854 C 0.848 0.88266 0.6885 0.0
C1855 C 0.86548 0.85426 0.70139 0.0
C1856 C 0.88001 0.85597 0.6869 0.0
H1857 H 0.83847 0.86489 0.71305 0.0
H1858 H 0.86569 0.84215 0.71166 0.0
S1859 S 0.88372 0.89532 0.64952 0.0
N1860 N 0.86327 0.90017 0.66145 0.0
N1861 N 0.89285 0.8755 0.65996 0.0
C1862 C 0.87921 0.87207 0.67404 0.0
C1863 C 0.86317 0.88542 0.67484 0.0
C1864 C 0.29106 0.11804 0.13559 0.0
C1865 C 0.30723 0.10544 0.13754 0.0
C1866 C 0.28992 0.13151 0.12019 0.0
C1867 C 0.30494 0.13293 0.10616 0.0
H1868 H 0.2795 0.11805 0.14646 0.0
H1869 H 0.27757 0.14147 0.11982 0.0
S1870 S 0.34933 0.10167 0.10336 0.0
N1871 N 0.33774 0.09397 0.12314 0.0
N1872 N 0.33563 0.11936 0.09417 0.0
C1873 C 0.3206 0.11958 0.10722 0.0
C1874 C 0.32174 0.10582 0.12293 0.0
C1875 C 0.84798 0.282 0.11714 0.0
C1876 C 0.84797 0.29715 0.10316 0.0
C1877 C 0.86271 0.2807 0.13132 0.0
C1878 C 0.87798 0.29452 0.13207 0.0
H1879 H 0.83605 0.27154 0.11773 0.0
H1880 H 0.86157 0.26932 0.14232 0.0
S1881 S 0.88624 0.3353 0.09703 0.0
N1882 N 0.86568 0.32496 0.08958 0.0
N1883 N 0.89341 0.32253 0.11629 0.0
C1884 C 0.87893 0.3089 0.11733 0.0
C1885 C 0.8639 0.31021 0.10285 0.0
C1886 C 0.70526 0.85492 0.13956 0.0
C1887 C 0.6969 0.87318 0.13499 0.0
C1888 C 0.70464 0.83939 0.12625 0.0
C1889 C 0.69558 0.84152 0.10788 0.0
H1890 H 0.71158 0.85227 0.15388 0.0
H1891 H 0.71051 0.82537 0.1308 0.0
S1892 S 0.67393 0.88716 0.08772 0.0
N1893 N 0.68114 0.89316 0.11 0.0
N1894 N 0.67994 0.86391 0.08494 0.0
C1895 C 0.68838 0.86009 0.10257 0.0
C1896 C 0.68906 0.87595 0.11614 0.0
C1897 C 0.10201 0.68626 0.11712 0.0
C1898 C 0.10523 0.6966 0.13463 0.0
C1899 C 0.11598 0.6863 0.10212 0.0
C1900 C 0.13367 0.69665 0.10415 0.0
H1901 H 0.08905 0.67727 0.11532 0.0
H1902 H 0.11331 0.67731 0.08934 0.0
S1903 S 0.14773 0.72868 0.14573 0.0
N1904 N 0.12631 0.71944 0.15211 0.0
N1905 N 0.1526 0.71947 0.12393 0.0
C1906 C 0.13641 0.70825 0.12093 0.0
C1907 C 0.12217 0.70824 0.13618 0.0
C1908 C 0.29984 0.86305 0.88047 0.0
C1909 C 0.29217 0.8444 0.87624 0.0
C1910 C 0.3005 0.8777 0.86613 0.0
C1911 C 0.29356 0.87421 0.84706 0.0
H1912 H 0.30613 0.86613 0.8947 0.0
H1913 H 0.3073 0.89155 0.86982 0.0
S1914 S 0.26957 0.82877 0.82932 0.0
N1915 N 0.2756 0.82391 0.85223 0.0
N1916 N 0.27691 0.85145 0.82527 0.0
C1917 C 0.28471 0.85606 0.843 0.0
C1918 C 0.284 0.84115 0.85761 0.0
C1919 C 0.11259 0.302 0.88274 0.0
C1920 C 0.12883 0.28937 0.88181 0.0
C1921 C 0.09823 0.30185 0.8681 0.0
C1922 C 0.09961 0.28906 0.85204 0.0
H1923 H 0.11146 0.31282 0.89428 0.0
H1924 H 0.08652 0.31253 0.86891 0.0
S1925 S 0.13747 0.25078 0.84459 0.0
N1926 N 0.14416 0.26204 0.8649 0.0
N1927 N 0.11715 0.26174 0.83738 0.0
C1928 C 0.11496 0.27533 0.85174 0.0
C1929 C 0.12959 0.27549 0.86664 0.0
C1930 C 0.70567 0.14142 0.85764 0.0
C1931 C 0.69656 0.13725 0.87564 0.0
C1932 C 0.70639 0.12744 0.84271 0.0
C1933 C 0.69792 0.10884 0.84522 0.0
H1934 H 0.71147 0.1559 0.85466 0.0
H1935 H 0.71268 0.13166 0.82877 0.0
S1936 S 0.67513 0.08959 0.89067 0.0
N1937 N 0.68105 0.11241 0.896 0.0
N1938 N 0.68232 0.08613 0.86786 0.0
C1939 C 0.69012 0.10397 0.86365 0.0
C1940 C 0.68948 0.11819 0.87891 0.0
C1941 C 0.88219 0.69575 0.85586 0.0
C1942 C 0.87652 0.70397 0.83782 0.0
C1943 C 0.86937 0.69546 0.87183 0.0
C1944 C 0.85039 0.70331 0.87031 0.0
H1945 H 0.89628 0.68861 0.85741 0.0
H1946 H 0.87402 0.68806 0.88508 0.0
S1947 S 0.82962 0.72941 0.82735 0.0
N1948 N 0.85158 0.72235 0.82014 0.0
N1949 N 0.82743 0.72173 0.85018 0.0
C1950 C 0.8451 0.71295 0.85288 0.0
C1951 C 0.8582 0.7133 0.83661 0.0
C1952 C 0.12169 0.29278 0.1067 0.0
C1953 C 0.1388 0.28182 0.11015 0.0
C1954 C 0.10694 0.29405 0.12084 0.0
C1955 C 0.10876 0.28441 0.13895 0.0
H1956 H 0.12008 0.30128 0.09339 0.0
H1957 H 0.09449 0.30344 0.1179 0.0
S1958 S 0.14918 0.25123 0.15391 0.0
N1959 N 0.15562 0.25921 0.13201 0.0
N1960 N 0.12786 0.26159 0.15864 0.0
C1961 C 0.12507 0.27218 0.14199 0.0
C1962 C 0.1401 0.27087 0.12756 0.0
C1963 C 0.11769 0.68039 0.87448 0.0
C1964 C 0.13282 0.69429 0.87277 0.0
C1965 C 0.10309 0.67883 0.86016 0.0
C1966 C 0.10317 0.69105 0.84358 0.0
H1967 H 0.11759 0.67 0.88648 0.0
H1968 H 0.09229 0.66729 0.86161 0.0
S1969 S 0.13772 0.73187 0.83373 0.0
N1970 N 0.14563 0.72205 0.85438 0.0
N1971 N 0.11823 0.71903 0.82741 0.0
C1972 C 0.11738 0.70592 0.84239 0.0
C1973 C 0.13219 0.70758 0.85702 0.0
C1974 C 0.29787 0.12423 0.88144 0.0
C1975 C 0.28555 0.14058 0.87917 0.0
C1976 C 0.29797 0.10912 0.86763 0.0
C1977 C 0.28577 0.10983 0.85105 0.0
H1978 H 0.30823 0.12351 0.89345 0.0
H1979 H 0.30843 0.09733 0.86948 0.0
S1980 S 0.24847 0.14782 0.84004 0.0
N1981 N 0.2591 0.1554 0.86039 0.0
N1982 N 0.2593 0.12697 0.83439 0.0
C1983 C 0.27231 0.12533 0.84939 0.0
C1984 C 0.2722 0.14073 0.86347 0.0
C1985 C 0.83479 0.26775 0.86426 0.0
C1986 C 0.83909 0.27446 0.88324 0.0
C1987 C 0.84908 0.26782 0.84959 0.0
C1988 C 0.86819 0.27452 0.85342 0.0
H1989 H 0.81993 0.26385 0.86023 0.0
H1990 H 0.84473 0.26379 0.83487 0.0
S1991 S 0.88797 0.28928 0.90184 0.0
N1992 N 0.86456 0.28478 0.90593 0.0
N1993 N 0.89151 0.28484 0.87834 0.0
C1994 C 0.87322 0.27921 0.87283 0.0
C1995 C 0.85863 0.27917 0.88778 0.0
C1996 C 0.68602 0.86336 0.88719 0.0
C1997 C 0.70003 0.84826 0.88675 0.0
C1998 C 0.68695 0.87903 0.874 0.0
C1999 C 0.7019 0.88015 0.85988 0.0
H2000 H 0.67363 0.86256 0.89706 0.0
H2001 H 0.6752 0.88969 0.87413 0.0
S2002 S 0.74416 0.84631 0.85509 0.0
N2003 N 0.73081 0.83684 0.87289 0.0
N2004 N 0.73253 0.86631 0.84805 0.0
C2005 C 0.71693 0.86606 0.86041 0.0
C2006 C 0.71599 0.8501 0.87386 0.0
C2007 C 0.86637 0.69306 0.11042 0.0
C2008 C 0.847 0.69945 0.11323 0.0
C2009 C 0.87999 0.69361 0.12571 0.0
C2010 C 0.87477 0.70063 0.14434 0.0
H2011 H 0.87083 0.68667 0.09662 0.0
H2012 H 0.89447 0.68765 0.12311 0.0
S2013 S 0.82675 0.72188 0.15837 0.0
N2014 N 0.82388 0.71511 0.13535 0.0
N2015 N 0.84954 0.71619 0.16411 0.0
C2016 C 0.85588 0.70844 0.14693 0.0
C2017 C 0.84197 0.70782 0.13135 0.0
C2018 C 0.30221 0.87889 0.12077 0.0
C2019 C 0.28843 0.87974 0.13604 0.0
C2020 C 0.30167 0.86381 0.10693 0.0
C2021 C 0.28731 0.84905 0.10785 0.0
H2022 H 0.31415 0.88933 0.12007 0.0
H2023 H 0.31318 0.86321 0.09604 0.0
S2024 S 0.2459 0.84655 0.14297 0.0
N2025 N 0.25856 0.86599 0.14982 0.0
N2026 N 0.25752 0.83762 0.12376 0.0
C2027 C 0.27254 0.8506 0.12211 0.0
C2028 C 0.2731 0.86596 0.13623 0.0
C2029 C 0.7005 0.11716 0.10526 0.0
C2030 C 0.70953 0.13544 0.10821 0.0
C2031 C 0.69963 0.10327 0.12031 0.0
C2032 C 0.70778 0.10717 0.13882 0.0
H2033 H 0.693 0.11398 0.09165 0.0
H2034 H 0.69153 0.08987 0.11773 0.0
S2035 S 0.73639 0.15125 0.15273 0.0
N2036 N 0.72924 0.15556 0.13003 0.0
N2037 N 0.72765 0.12941 0.15835 0.0
C2038 C 0.7184 0.12464 0.14138 0.0
C2039 C 0.71926 0.1388 0.12605 0.0
C2040 C 0.10518 0.61353 0.79855 0.0
C2041 C 0.10332 0.62785 0.78386 0.0
C2042 C 0.12096 0.60047 0.79861 0.0
C2043 C 0.13537 0.60116 0.7839 0.0
H2044 H 0.09507 0.61314 0.81077 0.0
H2045 H 0.12237 0.59042 0.81082 0.0
S2046 S 0.13522 0.63362 0.74025 0.0
N2047 N 0.11571 0.64032 0.75286 0.0
N2048 N 0.14534 0.61563 0.75287 0.0
C2049 C 0.13274 0.61428 0.76821 0.0
C2050 C 0.11671 0.62767 0.76822 0.0
C2051 C 0.87646 0.62348 0.78563 0.0
C2052 C 0.87103 0.64194 0.77828 0.0
C2053 C 0.86271 0.60842 0.78758 0.0
C2054 C 0.843 0.61132 0.78233 0.0
H2055 H 0.89126 0.62085 0.79074 0.0
H2056 H 0.8674 0.59476 0.79415 0.0
S2057 S 0.82189 0.65606 0.75974 0.0
N2058 N 0.84509 0.66162 0.76372 0.0
N2059 N 0.81918 0.6333 0.76746 0.0
C2060 C 0.83766 0.62924 0.77367 0.0
C2061 C 0.85171 0.64457 0.77161 0.0
C2062 C 0.87367 0.35788 0.80638 0.0
C2063 C 0.87264 0.34199 0.79334 0.0
C2064 C 0.86143 0.37417 0.80418 0.0
C2065 C 0.84767 0.37518 0.78886 0.0
H2066 H 0.88346 0.35745 0.81887 0.0
H2067 H 0.86211 0.38557 0.81517 0.0
S2068 S 0.84099 0.3386 0.74925 0.0
N2069 N 0.85817 0.32915 0.76342 0.0
N2070 N 0.83511 0.35977 0.75929 0.0
C2071 C 0.84738 0.35998 0.77498 0.0
C2072 C 0.85985 0.34336 0.77723 0.0
C2073 C 0.12831 0.36203 0.77715 0.0
C2074 C 0.1259 0.37951 0.78775 0.0
C2075 C 0.11411 0.34728 0.77769 0.0
C2076 C 0.09694 0.34945 0.78884 0.0
H2077 H 0.14174 0.35923 0.76918 0.0
H2078 H 0.11713 0.33369 0.7701 0.0
S2079 S 0.08208 0.39372 0.81658 0.0
N2080 N 0.10393 0.39917 0.80773 0.0
N2081 N 0.07716 0.37139 0.80874 0.0
C2082 C 0.09358 0.36748 0.7982 0.0
C2083 C 0.10809 0.38254 0.79765 0.0
C2084 C 0.12209 0.34696 0.20973 0.0
C2085 C 0.10572 0.3493 0.19743 0.0
C2086 C 0.13704 0.36099 0.21023 0.0
C2087 C 0.13617 0.37787 0.19845 0.0
H2088 H 0.12392 0.33373 0.21831 0.0
H2089 H 0.14983 0.35803 0.21916 0.0
S2090 S 0.09488 0.39247 0.16616 0.0
N2091 N 0.08834 0.37094 0.17503 0.0
N2092 N 0.11645 0.39733 0.17597 0.0
C2093 C 0.11915 0.38114 0.18727 0.0
C2094 C 0.10391 0.36684 0.18676 0.0
C2095 C 0.11844 0.60316 0.1827 0.0
C2096 C 0.13545 0.60483 0.19419 0.0
C2097 C 0.10395 0.61766 0.18311 0.0
C2098 C 0.10597 0.6343 0.19506 0.0
H2099 H 0.11675 0.59113 0.1725 0.0
H2100 H 0.0916 0.61627 0.17323 0.0
S2101 S 0.14613 0.64383 0.23047 0.0
N2102 N 0.15232 0.6231 0.21971 0.0
N2103 N 0.12506 0.65034 0.22054 0.0
C2104 C 0.12215 0.63535 0.20778 0.0
C2105 C 0.13692 0.62061 0.20732 0.0
C2106 C 0.86869 0.60452 0.19075 0.0
C2107 C 0.85012 0.60586 0.19954 0.0
C2108 C 0.88217 0.61989 0.19218 0.0
C2109 C 0.87759 0.6371 0.2025 0.0
H2110 H 0.87249 0.59199 0.18182 0.0
H2111 H 0.89589 0.61862 0.18431 0.0
S2112 S 0.83219 0.64643 0.23088 0.0
N2113 N 0.82875 0.62468 0.22094 0.0
N2114 N 0.85414 0.65357 0.22367 0.0
C2115 C 0.8597 0.63796 0.21266 0.0
C2116 C 0.84593 0.62232 0.21116 0.0
C2117 C 0.86202 0.37598 0.2 0.0
C2118 C 0.84346 0.37123 0.20759 0.0
C2119 C 0.87665 0.36176 0.19824 0.0
C2120 C 0.87324 0.34228 0.20397 0.0
H2121 H 0.86499 0.39053 0.1944 0.0
H2122 H 0.89035 0.36589 0.19136 0.0
S2123 S 0.82829 0.32308 0.22781 0.0
N2124 N 0.82331 0.34629 0.2232 0.0
N2125 N 0.85085 0.31952 0.21987 0.0
C2126 C 0.85532 0.3377 0.21306 0.0
C2127 C 0.84041 0.3522 0.21489 0.0
C2128 C 0.3104 0.61388 0.60613 0.0
C2129 C 0.29325 0.62526 0.60509 0.0
C2130 C 0.31278 0.59965 0.62069 0.0
C2131 C 0.29805 0.59618 0.63464 0.0
H2132 H 0.32261 0.61678 0.59642 0.0
H2133 H 0.3267 0.59207 0.62162 0.0
S2134 S 0.24895 0.61954 0.63603 0.0
N2135 N 0.26027 0.63032 0.61757 0.0
N2136 N 0.26465 0.6034 0.64487 0.0
C2137 C 0.28013 0.60619 0.63266 0.0
C2138 C 0.27775 0.62079 0.61788 0.0
C2139 C 0.87599 0.80539 0.61374 0.0
C2140 C 0.87773 0.79246 0.62966 0.0
C2141 C 0.85989 0.80438 0.60107 0.0
C2142 C 0.84503 0.79036 0.60384 0.0
H2143 H 0.88652 0.81709 0.61166 0.0
H2144 H 0.85867 0.81528 0.58958 0.0
S2145 S 0.84454 0.75102 0.64141 0.0
N2146 N 0.8646 0.76369 0.64611 0.0
N2147 N 0.83437 0.76171 0.62224 0.0
C2148 C 0.84741 0.77638 0.61879 0.0
C2149 C 0.86376 0.77745 0.63173 0.0
C2150 C 0.70861 0.35784 0.62876 0.0
C2151 C 0.69962 0.36059 0.61042 0.0
C2152 C 0.70593 0.37132 0.64392 0.0
C2153 C 0.69431 0.3881 0.64127 0.0
H2154 H 0.71686 0.34464 0.63184 0.0
H2155 H 0.71233 0.36807 0.65809 0.0
S2156 S 0.67026 0.40366 0.59503 0.0
N2157 N 0.68059 0.38247 0.58969 0.0
N2158 N 0.67569 0.40794 0.6182 0.0
C2159 C 0.68657 0.39184 0.62253 0.0
C2160 C 0.68919 0.37803 0.6071 0.0
C2161 C 0.13748 0.20396 0.62473 0.0
C2162 C 0.13465 0.19266 0.60775 0.0
C2163 C 0.12337 0.20443 0.63957 0.0
C2164 C 0.10593 0.19358 0.638 0.0
H2165 H 0.15108 0.21181 0.62704 0.0
H2166 H 0.12664 0.21259 0.65277 0.0
S2167 S 0.09016 0.16402 0.59521 0.0
N2168 N 0.11213 0.17215 0.58922 0.0
N2169 N 0.08559 0.17302 0.61716 0.0
C2170 C 0.10227 0.18338 0.62048 0.0
C2171 C 0.11664 0.18293 0.60533 0.0
C2172 C 0.2823 0.34773 0.35514 0.0
C2173 C 0.28889 0.35118 0.37434 0.0
C2174 C 0.28416 0.36203 0.34059 0.0
C2175 C 0.29262 0.38035 0.34468 0.0
H2176 H 0.27645 0.33356 0.35104 0.0
H2177 H 0.27959 0.35836 0.32584 0.0
S2178 S 0.30979 0.39766 0.39326 0.0
N2179 N 0.30243 0.37495 0.39717 0.0
N2180 N 0.30587 0.40191 0.36977 0.0
C2181 C 0.29808 0.38449 0.36411 0.0
C2182 C 0.29623 0.36987 0.37895 0.0
C2183 C 0.10807 0.79662 0.36433 0.0
C2184 C 0.11119 0.78659 0.34664 0.0
C2185 C 0.12272 0.79764 0.37862 0.0
C2186 C 0.14103 0.78868 0.37571 0.0
H2187 H 0.09455 0.80455 0.36683 0.0
H2188 H 0.11997 0.8063 0.3916 0.0
S2189 S 0.15546 0.75807 0.33322 0.0
N2190 N 0.13309 0.7656 0.32796 0.0
N2191 N 0.16068 0.76754 0.35484 0.0
C2192 C 0.14384 0.77741 0.35871 0.0
C2193 C 0.12889 0.77636 0.34416 0.0
C2194 C 0.68332 0.59779 0.35467 0.0
C2195 C 0.69657 0.59898 0.33897 0.0
C2196 C 0.68613 0.60879 0.37169 0.0
C2197 C 0.70224 0.62149 0.37358 0.0
H2198 H 0.67018 0.58896 0.35352 0.0
H2199 H 0.67491 0.60823 0.38289 0.0
S2200 S 0.74283 0.62755 0.33794 0.0
N2201 N 0.72767 0.61199 0.32733 0.0
N2202 N 0.73291 0.6328 0.35934 0.0
C2203 C 0.71643 0.62163 0.35865 0.0
C2204 C 0.71359 0.61036 0.34131 0.0
C2205 C 0.87883 0.20158 0.35879 0.0
C2206 C 0.87375 0.20359 0.33893 0.0
C2207 C 0.86453 0.20203 0.37344 0.0
C2208 C 0.84463 0.20454 0.36875 0.0
H2209 H 0.89382 0.19852 0.36304 0.0
H2210 H 0.86903 0.19938 0.38842 0.0
S2211 S 0.82411 0.21392 0.31926 0.0
N2212 N 0.84779 0.21075 0.31555 0.0
N2213 N 0.82086 0.21165 0.34311 0.0
C2214 C 0.83954 0.20823 0.34912 0.0
C2215 C 0.85413 0.20775 0.33419 0.0
C2216 C 0.14057 0.77614 0.62542 0.0
C2217 C 0.13774 0.78649 0.60783 0.0
C2218 C 0.1263 0.77616 0.6401 0.0
C2219 C 0.10869 0.78658 0.63774 0.0
H2220 H 0.15429 0.76871 0.62832 0.0
H2221 H 0.12956 0.76877 0.65377 0.0
S2222 S 0.09281 0.81339 0.59317 0.0
N2223 N 0.11502 0.80544 0.5879 0.0
N2224 N 0.08817 0.80553 0.61557 0.0
C2225 C 0.10504 0.79576 0.61966 0.0
C2226 C 0.11957 0.79569 0.60466 0.0
C2227 C 0.11904 0.18368 0.37731 0.0
C2228 C 0.13529 0.19627 0.37586 0.0
C2229 C 0.10488 0.18297 0.36249 0.0
C2230 C 0.10643 0.19487 0.34573 0.0
H2231 H 0.11775 0.17355 0.38946 0.0
H2232 H 0.09315 0.17236 0.3638 0.0
S2233 S 0.14451 0.23259 0.33644 0.0
N2234 N 0.1509 0.22255 0.3575 0.0
N2235 N 0.12424 0.22127 0.32966 0.0
C2236 C 0.1218 0.20858 0.34482 0.0
C2237 C 0.13625 0.20927 0.35989 0.0
C2238 C 0.2782 0.63192 0.34041 0.0
C2239 C 0.28364 0.61232 0.34362 0.0
C2240 C 0.27832 0.64553 0.35569 0.0
C2241 C 0.28388 0.64005 0.37476 0.0
H2242 H 0.27476 0.63707 0.32579 0.0
H2243 H 0.27494 0.66066 0.35228 0.0
S2244 S 0.29636 0.58984 0.39149 0.0
N2245 N 0.29246 0.58757 0.36774 0.0
N2246 N 0.29268 0.6132 0.39651 0.0
C2247 C 0.28789 0.62019 0.37849 0.0
C2248 C 0.28777 0.6063 0.3629 0.0
C2249 C 0.8612 0.80141 0.38457 0.0
C2250 C 0.8452 0.78864 0.3822 0.0
C2251 C 0.87675 0.80145 0.37123 0.0
C2252 C 0.87681 0.78874 0.35505 0.0
H2253 H 0.8613 0.81212 0.39625 0.0
H2254 H 0.88824 0.81224 0.37306 0.0
S2255 S 0.84003 0.75021 0.34415 0.0
N2256 N 0.83156 0.76127 0.36388 0.0
N2257 N 0.8608 0.76137 0.33877 0.0
C2258 C 0.86166 0.77487 0.35336 0.0
C2259 C 0.84584 0.77482 0.36696 0.0
C2260 C 0.6724 0.36995 0.38054 0.0
C2261 C 0.68973 0.35896 0.38236 0.0
C2262 C 0.67037 0.38414 0.36588 0.0
C2263 C 0.6856 0.38783 0.35253 0.0
H2264 H 0.65988 0.36687 0.38981 0.0
H2265 H 0.65636 0.39145 0.36435 0.0
S2266 S 0.73521 0.36559 0.35334 0.0
N2267 N 0.72332 0.35458 0.37131 0.0
N2268 N 0.71952 0.38129 0.34373 0.0
C2269 C 0.70357 0.37811 0.35522 0.0
C2270 C 0.70563 0.36365 0.37015 0.0
C2271 C 0.85689 0.20613 0.64632 0.0
C2272 C 0.87673 0.20243 0.64228 0.0
C2273 C 0.84339 0.20897 0.63118 0.0
C2274 C 0.84925 0.20813 0.61146 0.0
H2275 H 0.85149 0.20583 0.66123 0.0
H2276 H 0.82808 0.21061 0.63501 0.0
S2277 S 0.9001 0.20241 0.59321 0.0
N2278 N 0.90207 0.20076 0.61726 0.0
N2279 N 0.8766 0.206 0.58874 0.0
C2280 C 0.8693 0.20611 0.60726 0.0
C2281 C 0.88308 0.20327 0.6227 0.0
C2282 C 0.28591 0.3627 0.60938 0.0
C2283 C 0.27901 0.34357 0.61269 0.0
C2284 C 0.2863 0.37653 0.62448 0.0
C2285 C 0.27979 0.37172 0.64342 0.0
H2286 H 0.29203 0.36676 0.59531 0.0
H2287 H 0.29269 0.39075 0.6215 0.0
S2288 S 0.25728 0.32466 0.65881 0.0
N2289 N 0.26324 0.32128 0.63563 0.0
N2290 N 0.26396 0.3473 0.66403 0.0
C2291 C 0.27142 0.35315 0.64652 0.0
C2292 C 0.27103 0.33905 0.63114 0.0
C2293 C 0.701 0.62609 0.64713 0.0
C2294 C 0.69274 0.60728 0.64593 0.0
C2295 C 0.70244 0.63806 0.63057 0.0
C2296 C 0.69574 0.63162 0.61218 0.0
H2297 H 0.70551 0.63203 0.66113 0.0
H2298 H 0.70804 0.65279 0.63241 0.0
S2299 S 0.67581 0.58238 0.60069 0.0
N2300 N 0.67989 0.58186 0.62451 0.0
N2301 N 0.68265 0.60437 0.59331 0.0
C2302 C 0.6888 0.6123 0.61049 0.0
C2303 C 0.68727 0.60012 0.6274 0.0
C2304 C 0.63908 0.12588 0.77464 0.0
C2305 C 0.63685 0.10745 0.78357 0.0
C2306 C 0.62401 0.13972 0.7751 0.0
C2307 C 0.60612 0.13566 0.78447 0.0
H2308 H 0.6529 0.13007 0.76806 0.0
H2309 H 0.62679 0.15404 0.76883 0.0
S2310 S 0.59184 0.08851 0.80749 0.0
N2311 N 0.6146 0.08502 0.80012 0.0
N2312 N 0.5862 0.1111 0.80096 0.0
C2313 C 0.60314 0.11677 0.79214 0.0
C2314 C 0.61853 0.10263 0.7917 0.0
C2315 C 0.3768 0.12505 0.80101 0.0
C2316 C 0.37421 0.14141 0.78875 0.0
C2317 C 0.36297 0.10994 0.80149 0.0
C2318 C 0.34605 0.11067 0.78975 0.0
H2319 H 0.38911 0.1243 0.811 0.0
H2320 H 0.3651 0.0981 0.81186 0.0
S2321 S 0.334 0.14879 0.75287 0.0
N2322 N 0.35467 0.15633 0.7629 0.0
N2323 N 0.32863 0.12791 0.76384 0.0
C2324 C 0.34401 0.12623 0.77639 0.0
C2325 C 0.35811 0.14162 0.77589 0.0
C2326 C 0.38793 0.8675 0.81296 0.0
C2327 C 0.39045 0.85402 0.79763 0.0
C2328 C 0.37368 0.88217 0.81185 0.0
C2329 C 0.36136 0.88378 0.79541 0.0
H2330 H 0.39629 0.8661 0.82638 0.0
H2331 H 0.37152 0.89148 0.82449 0.0
S2332 S 0.3644 0.85436 0.74988 0.0
N2333 N 0.38131 0.84493 0.76437 0.0
N2334 N 0.35438 0.87245 0.76238 0.0
C2335 C 0.36485 0.87149 0.77929 0.0
C2336 C 0.37945 0.85661 0.78037 0.0
C2337 C 0.62772 0.87975 0.8025 0.0
C2338 C 0.64601 0.87798 0.79323 0.0
C2339 C 0.61327 0.86538 0.80019 0.0
C2340 C 0.61661 0.84877 0.7885 0.0
H2341 H 0.62482 0.89182 0.81236 0.0
H2342 H 0.59978 0.86688 0.80839 0.0
S2343 S 0.66091 0.83887 0.75861 0.0
N2344 N 0.66585 0.85955 0.77009 0.0
N2345 N 0.63868 0.83254 0.76572 0.0
C2346 C 0.6343 0.84756 0.77802 0.0
C2347 C 0.64902 0.86217 0.7804 0.0
C2348 C 0.63022 0.86956 0.20523 0.0
C2349 C 0.63142 0.88341 0.19004 0.0
C2350 C 0.61494 0.85594 0.20592 0.0
C2351 C 0.60028 0.85567 0.19144 0.0
H2352 H 0.64167 0.86855 0.21618 0.0
H2353 H 0.6152 0.84494 0.21736 0.0
S2354 S 0.59508 0.89079 0.15024 0.0
N2355 N 0.61542 0.89754 0.16145 0.0
N2356 N 0.58664 0.87188 0.16275 0.0
C2357 C 0.60044 0.87042 0.17704 0.0
C2358 C 0.61604 0.88431 0.17633 0.0
C2359 C 0.62536 0.13863 0.20277 0.0
C2360 C 0.60897 0.13605 0.19056 0.0
C2361 C 0.64014 0.1245 0.20379 0.0
C2362 C 0.63911 0.10727 0.1926 0.0
H2363 H 0.62727 0.15205 0.211 0.0
H2364 H 0.65287 0.12756 0.21276 0.0
S2365 S 0.59795 0.09222 0.1604 0.0
N2366 N 0.59154 0.11403 0.16861 0.0
N2367 N 0.6194 0.08742 0.1705 0.0
C2368 C 0.62217 0.10387 0.18135 0.0
C2369 C 0.60707 0.11828 0.18034 0.0
C2370 C 0.37731 0.11084 0.19523 0.0
C2371 C 0.35999 0.11175 0.20629 0.0
C2372 C 0.39027 0.12669 0.19462 0.0
C2373 C 0.38649 0.1439 0.20526 0.0
H2374 H 0.38026 0.09837 0.18589 0.0
H2375 H 0.40282 0.12581 0.18496 0.0
S2376 S 0.34499 0.15216 0.2393 0.0
N2377 N 0.34101 0.13014 0.23015 0.0
N2378 N 0.36558 0.15991 0.22922 0.0
C2379 C 0.3702 0.14427 0.21783 0.0
C2380 C 0.35687 0.12819 0.21828 0.0
C2381 C 0.37722 0.86067 0.19068 0.0
C2382 C 0.37327 0.84361 0.20155 0.0
C2383 C 0.3638 0.87612 0.19001 0.0
C2384 C 0.34592 0.87506 0.20015 0.0
H2385 H 0.39038 0.86178 0.18189 0.0
H2386 H 0.36709 0.88855 0.18069 0.0
S2387 S 0.32988 0.83488 0.23312 0.0
N2388 N 0.35121 0.8275 0.22448 0.0
N2389 N 0.32593 0.85657 0.22319 0.0
C2390 C 0.3424 0.85871 0.2122 0.0
C2391 C 0.3561 0.84297 0.21291 0.0
C2392 C 0.78169 0.13223 0.60392 0.0
C2393 C 0.79847 0.1442 0.60416 0.0
C2394 C 0.77935 0.11713 0.61772 0.0
C2395 C 0.79341 0.1142 0.63244 0.0
H2396 H 0.7704 0.13452 0.59299 0.0
H2397 H 0.76636 0.10803 0.61717 0.0
S2398 S 0.83954 0.14193 0.63969 0.0
N2399 N 0.82928 0.15209 0.62027 0.0
N2400 N 0.82449 0.12428 0.64657 0.0
C2401 C 0.81013 0.12614 0.63287 0.0
C2402 C 0.81277 0.14104 0.61861 0.0
C2403 C 0.36478 0.27733 0.62885 0.0
C2404 C 0.37945 0.29177 0.62811 0.0
C2405 C 0.34916 0.27745 0.61559 0.0
C2406 C 0.34763 0.29202 0.60111 0.0
H2407 H 0.36478 0.26639 0.64035 0.0
H2408 H 0.33773 0.26658 0.61735 0.0
S2409 S 0.38383 0.33135 0.59105 0.0
N2410 N 0.39271 0.31968 0.61029 0.0
N2411 N 0.3633 0.31991 0.58533 0.0
C2412 C 0.36298 0.30566 0.59924 0.0
C2413 C 0.37892 0.30553 0.61276 0.0
C2414 C 0.18705 0.86281 0.60834 0.0
C2415 C 0.19972 0.84657 0.60855 0.0
C2416 C 0.1876 0.87678 0.6233 0.0
C2417 C 0.20083 0.875 0.639 0.0
H2418 H 0.17594 0.86425 0.59709 0.0
H2419 H 0.17689 0.88848 0.62303 0.0
S2420 S 0.23929 0.837 0.64461 0.0
N2421 N 0.2275 0.83083 0.62442 0.0
N2422 N 0.22853 0.85711 0.65258 0.0
C2423 C 0.21457 0.85967 0.63859 0.0
C2424 C 0.21401 0.84543 0.62335 0.0
C2425 C 0.60308 0.68052 0.6095 0.0
C2426 C 0.60262 0.69718 0.6216 0.0
C2427 C 0.6185 0.67746 0.59637 0.0
C2428 C 0.63398 0.69095 0.59483 0.0
H2429 H 0.5921 0.66915 0.61099 0.0
H2430 H 0.61879 0.66388 0.58818 0.0
S2431 S 0.63772 0.73868 0.62053 0.0
N2432 N 0.61751 0.72865 0.62922 0.0
N2433 N 0.6465 0.72291 0.60447 0.0
C2434 C 0.63279 0.7085 0.60555 0.0
C2435 C 0.61708 0.71161 0.61895 0.0
C2436 C 0.78848 0.86331 0.37976 0.0
C2437 C 0.77937 0.84509 0.37671 0.0
C2438 C 0.78918 0.87738 0.36488 0.0
C2439 C 0.78081 0.87374 0.34642 0.0
H2440 H 0.79606 0.86636 0.39336 0.0
H2441 H 0.79724 0.89079 0.36759 0.0
S2442 S 0.75228 0.82972 0.33216 0.0
N2443 N 0.75959 0.82516 0.35475 0.0
N2444 N 0.76093 0.85165 0.32674 0.0
C2445 C 0.77028 0.85624 0.34371 0.0
C2446 C 0.76955 0.8419 0.35888 0.0
C2447 C 0.63425 0.27399 0.34646 0.0
C2448 C 0.61439 0.27747 0.35064 0.0
C2449 C 0.64874 0.2772 0.36058 0.0
C2450 C 0.64389 0.2839 0.37943 0.0
H2451 H 0.63881 0.26991 0.33182 0.0
H2452 H 0.66392 0.27535 0.35634 0.0
S2453 S 0.59371 0.29177 0.39878 0.0
N2454 N 0.59037 0.28544 0.37569 0.0
N2455 N 0.61763 0.29138 0.40233 0.0
C2456 C 0.62397 0.28577 0.38433 0.0
C2457 C 0.6092 0.28258 0.36989 0.0
C2458 C 0.20968 0.12621 0.34429 0.0
C2459 C 0.19928 0.10851 0.34588 0.0
C2460 C 0.20888 0.14028 0.35913 0.0
C2461 C 0.19764 0.13717 0.3761 0.0
H2462 H 0.2178 0.12967 0.3311 0.0
H2463 H 0.21641 0.15407 0.35683 0.0
S2464 S 0.17006 0.09201 0.38867 0.0
N2465 N 0.17917 0.08768 0.36672 0.0
N2466 N 0.17766 0.11417 0.39464 0.0
C2467 C 0.18831 0.11896 0.37852 0.0
C2468 C 0.18913 0.1046 0.36338 0.0
C2469 C 0.35284 0.70778 0.37245 0.0
C2470 C 0.3518 0.69369 0.38745 0.0
C2471 C 0.36864 0.70818 0.35943 0.0
C2472 C 0.38398 0.69451 0.36095 0.0
H2473 H 0.34087 0.71792 0.37005 0.0
H2474 H 0.36824 0.7186 0.34746 0.0
S2475 S 0.38991 0.65693 0.39982 0.0
N2476 N 0.3687 0.66745 0.40471 0.0
N2477 N 0.39845 0.6682 0.3802 0.0
C2478 C 0.38395 0.68145 0.37689 0.0
C2479 C 0.36783 0.68103 0.39016 0.0
C2480 C 0.63533 0.28295 0.64245 0.0
C2481 C 0.61572 0.28655 0.63727 0.0
C2482 C 0.65045 0.28546 0.62887 0.0
C2483 C 0.64649 0.29165 0.60963 0.0
H2484 H 0.63919 0.27919 0.65738 0.0
H2485 H 0.6654 0.28346 0.63381 0.0
S2486 S 0.59733 0.29963 0.58779 0.0
N2487 N 0.5929 0.2941 0.61091 0.0
N2488 N 0.62138 0.29883 0.58534 0.0
C2489 C 0.62684 0.29378 0.60382 0.0
C2490 C 0.61142 0.29121 0.61766 0.0
C2491 C 0.61855 0.69923 0.36261 0.0
C2492 C 0.61731 0.68781 0.34557 0.0
C2493 C 0.63436 0.69692 0.37559 0.0
C2494 C 0.64959 0.6837 0.37141 0.0
H2495 H 0.6071 0.70964 0.36607 0.0
H2496 H 0.63477 0.70561 0.38885 0.0
S2497 S 0.6532 0.65101 0.32817 0.0
N2498 N 0.63246 0.66305 0.32503 0.0
N2499 N 0.66247 0.65923 0.34894 0.0
C2500 C 0.64861 0.67256 0.35415 0.0
C2501 C 0.63236 0.6745 0.34133 0.0
C2502 C 0.77625 0.13347 0.37288 0.0
C2503 C 0.79227 0.13586 0.38561 0.0
C2504 C 0.77499 0.11725 0.36045 0.0
C2505 C 0.78969 0.10281 0.3603 0.0
H2506 H 0.76512 0.14472 0.3717 0.0
H2507 H 0.76298 0.11666 0.35008 0.0
S2508 S 0.83286 0.1005 0.39329 0.0
N2509 N 0.82178 0.12114 0.3992 0.0
N2510 N 0.81941 0.09063 0.3758 0.0
C2511 C 0.80487 0.10413 0.37418 0.0
C2512 C 0.80617 0.12069 0.38684 0.0
C2513 C 0.38118 0.30282 0.37266 0.0
C2514 C 0.38141 0.2907 0.35603 0.0
C2515 C 0.36534 0.3026 0.38564 0.0
C2516 C 0.34914 0.29029 0.38243 0.0
H2517 H 0.3928 0.31334 0.37514 0.0
H2518 H 0.36536 0.31297 0.39764 0.0
S2519 S 0.34417 0.25329 0.34298 0.0
N2520 N 0.36529 0.26419 0.33848 0.0
N2521 N 0.33545 0.26382 0.3629 0.0
C2522 C 0.34993 0.27693 0.3668 0.0
C2523 C 0.36611 0.27711 0.35358 0.0
C2524 C 0.20775 0.86586 0.3461 0.0
C2525 C 0.1951 0.88206 0.34738 0.0
C2526 C 0.20882 0.85205 0.3612 0.0
C2527 C 0.19728 0.8539 0.37815 0.0
H2528 H 0.21621 0.86329 0.33294 0.0
H2529 H 0.21803 0.8393 0.35908 0.0
S2530 S 0.16414 0.8953 0.39002 0.0
N2531 N 0.17254 0.90043 0.36794 0.0
N2532 N 0.17456 0.87442 0.39637 0.0
C2533 C 0.18571 0.87081 0.38028 0.0
C2534 C 0.18461 0.8849 0.36487 0.0
C2535 C 0.33493 0.69962 0.6344 0.0
C2536 C 0.33994 0.69739 0.61456 0.0
C2537 C 0.34939 0.70154 0.64878 0.0
C2538 C 0.36939 0.70132 0.64385 0.0
H2539 H 0.31977 0.69899 0.63903 0.0
H2540 H 0.34481 0.7023 0.66394 0.0
S2541 S 0.39011 0.69887 0.59368 0.0
N2542 N 0.36619 0.69731 0.59045 0.0
N2543 N 0.39342 0.70093 0.61755 0.0
C2544 C 0.37457 0.70051 0.62394 0.0
C2545 C 0.35982 0.69854 0.60927 0.0
C2546 C 0.77951 0.86118 0.60743 0.0
C2547 C 0.77523 0.84169 0.61257 0.0
C2548 C 0.77982 0.87598 0.62156 0.0
C2549 C 0.77587 0.87183 0.64134 0.0
H2550 H 0.7837 0.86489 0.59259 0.0
H2551 H 0.78425 0.89055 0.61708 0.0
S2552 S 0.7605 0.82382 0.66177 0.0
N2553 N 0.76443 0.81949 0.63832 0.0
N2554 N 0.76502 0.84736 0.66492 0.0
C2555 C 0.76995 0.85274 0.64639 0.0
C2556 C 0.76962 0.83765 0.63198 0.0
C2557 C 0.2066 0.13239 0.6233 0.0
C2558 C 0.19457 0.13036 0.6067 0.0
C2559 C 0.20686 0.1181 0.63798 0.0
C2560 C 0.19509 0.10125 0.63663 0.0
H2561 H 0.21521 0.14555 0.62547 0.0
H2562 H 0.21565 0.12079 0.65093 0.0
S2563 S 0.16332 0.08752 0.5947 0.0
N2564 N 0.17234 0.10913 0.58864 0.0
N2565 N 0.17282 0.08223 0.61631 0.0
C2566 C 0.18411 0.09833 0.61944 0.0
C2567 C 0.18386 0.1129 0.60444 0.0
C2568 C 0.6078 0.62963 0.27416 0.0
C2569 C 0.61392 0.6493 0.27443 0.0
C2570 C 0.6214 0.61438 0.27284 0.0
C2571 C 0.6416 0.61825 0.27171 0.0
H2572 H 0.5925 0.6259 0.27617 0.0
H2573 H 0.61608 0.59946 0.27381 0.0
S2574 S 0.66491 0.66729 0.26858 0.0
N2575 N 0.64129 0.67189 0.27094 0.0
N2576 N 0.66688 0.6432 0.26842 0.0
C2577 C 0.64777 0.63786 0.27022 0.0
C2578 C 0.63391 0.65341 0.27157 0.0
C2579 C 0.36552 0.64238 0.2834 0.0
C2580 C 0.38178 0.63838 0.29543 0.0
C2581 C 0.35045 0.62871 0.28109 0.0
C2582 C 0.35102 0.61055 0.29079 0.0
H2583 H 0.36401 0.65651 0.27631 0.0
H2584 H 0.33784 0.63283 0.27237 0.0
S2585 S 0.39159 0.59187 0.32185 0.0
N2586 N 0.39854 0.61417 0.31554 0.0
N2587 N 0.37012 0.58843 0.31125 0.0
C2588 C 0.3678 0.60582 0.30181 0.0
C2589 C 0.38321 0.61975 0.30411 0.0
C2590 C 0.38883 0.37242 0.30862 0.0
C2591 C 0.3909 0.35795 0.29413 0.0
C2592 C 0.37427 0.38677 0.30718 0.0
C2593 C 0.36124 0.38713 0.29122 0.0
H2594 H 0.39768 0.37196 0.32179 0.0
H2595 H 0.37244 0.39683 0.3193 0.0
S2596 S 0.36317 0.35503 0.24745 0.0
N2597 N 0.38073 0.34672 0.26187 0.0
N2598 N 0.3533 0.3737 0.25919 0.0
C2599 C 0.36438 0.37393 0.27574 0.0
C2600 C 0.37924 0.35933 0.27719 0.0
C2601 C 0.61346 0.37331 0.29628 0.0
C2602 C 0.63188 0.37265 0.28712 0.0
C2603 C 0.60159 0.35664 0.29732 0.0
C2604 C 0.60768 0.33875 0.28916 0.0
H2605 H 0.60857 0.38649 0.30361 0.0
H2606 H 0.58791 0.35762 0.30529 0.0
S2607 S 0.65333 0.33016 0.26095 0.0
N2608 N 0.65471 0.35329 0.2678 0.0
N2609 N 0.63234 0.32194 0.26969 0.0
C2610 C 0.62542 0.33827 0.2787 0.0
C2611 C 0.63754 0.35524 0.2777 0.0
C2612 C 0.60182 0.36485 0.68023 0.0
C2613 C 0.60174 0.35014 0.69466 0.0
C2614 C 0.61449 0.38089 0.6816 0.0
C2615 C 0.62756 0.38275 0.69743 0.0
H2616 H 0.59279 0.36348 0.66725 0.0
H2617 H 0.61482 0.39127 0.66959 0.0
S2618 S 0.6305 0.35013 0.74082 0.0
N2619 N 0.61386 0.33985 0.72659 0.0
N2620 N 0.63776 0.37001 0.72911 0.0
C2621 C 0.62647 0.36902 0.71274 0.0
C2622 C 0.61353 0.35269 0.71137 0.0
C2623 C 0.61287 0.61455 0.69545 0.0
C2624 C 0.63083 0.61849 0.70477 0.0
C2625 C 0.59961 0.62961 0.69125 0.0
C2626 C 0.60389 0.64913 0.69614 0.0
H2627 H 0.60945 0.59991 0.69039 0.0
H2628 H 0.58641 0.62603 0.68319 0.0
S2629 S 0.64731 0.66669 0.72375 0.0
N2630 N 0.65101 0.64295 0.72108 0.0
N2631 N 0.62609 0.67127 0.71308 0.0
C2632 C 0.62106 0.65305 0.70683 0.0
C2633 C 0.63453 0.63771 0.7112 0.0
C2634 C 0.3695 0.63631 0.71346 0.0
C2635 C 0.38566 0.63699 0.70072 0.0
C2636 C 0.35668 0.62032 0.71338 0.0
C2637 C 0.35964 0.6044 0.70066 0.0
H2638 H 0.36597 0.64875 0.72263 0.0
H2639 H 0.34376 0.62099 0.72256 0.0
S2640 S 0.40197 0.59744 0.66729 0.0
N2641 N 0.40555 0.61921 0.67715 0.0
N2642 N 0.3815 0.58905 0.67709 0.0
C2643 C 0.37678 0.60407 0.68924 0.0
C2644 C 0.38978 0.62042 0.68924 0.0
C2645 C 0.3631 0.37749 0.68511 0.0
C2646 C 0.34713 0.37429 0.69773 0.0
C2647 C 0.37828 0.36381 0.68363 0.0
C2648 C 0.37794 0.34641 0.69463 0.0
H2649 H 0.36348 0.39021 0.67562 0.0
H2650 H 0.38976 0.36642 0.67299 0.0
S2651 S 0.34106 0.33256 0.73208 0.0
N2652 N 0.33311 0.35359 0.72317 0.0
N2653 N 0.36162 0.32781 0.72029 0.0
C2654 C 0.36283 0.34372 0.70836 0.0
C2655 C 0.34741 0.3577 0.70995 0.0
C2656 C 0.81309 0.60237 0.11743 0.0
C2657 C 0.79728 0.59979 0.13037 0.0
C2658 C 0.81283 0.61724 0.10331 0.0
C2659 C 0.79675 0.63002 0.10164 0.0
H2660 H 0.82623 0.5936 0.11892 0.0
H2661 H 0.82579 0.61939 0.09441 0.0
S2662 S 0.75023 0.62697 0.12957 0.0
N2663 N 0.76404 0.60941 0.13884 0.0
N2664 N 0.76354 0.63738 0.11226 0.0
C2665 C 0.78019 0.62651 0.11336 0.0
C2666 C 0.78046 0.61138 0.12776 0.0
C2667 C 0.33664 0.77523 0.13289 0.0
C2668 C 0.34139 0.78124 0.11376 0.0
C2669 C 0.35092 0.77445 0.14759 0.0
C2670 C 0.37046 0.7797 0.1437 0.0
H2671 H 0.32161 0.77201 0.13684 0.0
H2672 H 0.34635 0.77074 0.16233 0.0
S2673 S 0.39109 0.79324 0.09526 0.0
N2674 N 0.36746 0.79013 0.09113 0.0
N2675 N 0.39432 0.78871 0.1188 0.0
C2676 C 0.3757 0.78426 0.1243 0.0
C2677 C 0.36115 0.78502 0.10931 0.0
C2678 C 0.20774 0.35237 0.14523 0.0
C2679 C 0.20025 0.37112 0.14114 0.0
C2680 C 0.20789 0.33774 0.13093 0.0
C2681 C 0.20052 0.34131 0.11204 0.0
H2682 H 0.21276 0.34866 0.15982 0.0
H2683 H 0.21298 0.32328 0.13504 0.0
S2684 S 0.18195 0.38876 0.09305 0.0
N2685 N 0.18729 0.39311 0.11622 0.0
N2686 N 0.18754 0.36554 0.08932 0.0
C2687 C 0.19425 0.36036 0.10734 0.0
C2688 C 0.19412 0.3753 0.12191 0.0
C2689 C 0.62824 0.20591 0.13202 0.0
C2690 C 0.6111 0.19484 0.12913 0.0
C2691 C 0.64391 0.20479 0.11887 0.0
C2692 C 0.64301 0.19253 0.10238 0.0
H2693 H 0.63001 0.2148 0.14503 0.0
H2694 H 0.65713 0.21291 0.12219 0.0
S2695 S 0.60026 0.16286 0.08656 0.0
N2696 N 0.59326 0.17297 0.10735 0.0
N2697 N 0.62275 0.17085 0.08262 0.0
C2698 C 0.62543 0.18248 0.09854 0.0
C2699 C 0.60944 0.18365 0.11193 0.0
C2700 C 0.77757 0.37555 0.85867 0.0
C2701 C 0.78953 0.37312 0.84212 0.0
C2702 C 0.77814 0.36189 0.87407 0.0
C2703 C 0.79123 0.34601 0.87356 0.0
H2704 H 0.76763 0.38787 0.85957 0.0
H2705 H 0.76855 0.36393 0.88654 0.0
S2706 S 0.8261 0.33392 0.83363 0.0
N2707 N 0.81486 0.35396 0.82611 0.0
N2708 N 0.8165 0.32878 0.85522 0.0
C2709 C 0.80346 0.34373 0.85716 0.0
C2710 C 0.80247 0.35721 0.84137 0.0
C2711 C 0.64675 0.77647 0.85681 0.0
C2712 C 0.64199 0.78324 0.87566 0.0
C2713 C 0.63299 0.77693 0.84163 0.0
C2714 C 0.614 0.78423 0.84474 0.0
H2715 H 0.66149 0.77164 0.85346 0.0
H2716 H 0.63764 0.77249 0.82713 0.0
S2717 S 0.59323 0.8007 0.89215 0.0
N2718 N 0.61624 0.7952 0.89719 0.0
N2719 N 0.59037 0.79612 0.86859 0.0
C2720 C 0.60859 0.78965 0.86385 0.0
C2721 C 0.6226 0.78913 0.87934 0.0
C2722 C 0.20546 0.64698 0.84905 0.0
C2723 C 0.2012 0.64217 0.86862 0.0
C2724 C 0.20632 0.63251 0.83461 0.0
C2725 C 0.203 0.61271 0.83923 0.0
H2726 H 0.20712 0.66212 0.84461 0.0
H2727 H 0.20862 0.63705 0.81958 0.0
S2728 S 0.19474 0.59213 0.88888 0.0
N2729 N 0.19616 0.61601 0.89233 0.0
N2730 N 0.19784 0.58875 0.86515 0.0
C2731 C 0.20033 0.60753 0.85899 0.0
C2732 C 0.19941 0.62229 0.87371 0.0
C2733 C 0.3393 0.2128 0.85694 0.0
C2734 C 0.34344 0.2057 0.87584 0.0
C2735 C 0.35369 0.21304 0.84237 0.0
C2736 C 0.37275 0.20617 0.84616 0.0
H2737 H 0.32457 0.21726 0.85304 0.0
H2738 H 0.34952 0.21765 0.82777 0.0
S2739 S 0.39196 0.18936 0.89418 0.0
N2740 N 0.3686 0.19408 0.89828 0.0
N2741 N 0.39569 0.1945 0.87084 0.0
C2742 C 0.3775 0.20053 0.8654 0.0
C2743 C 0.36283 0.2003 0.88026 0.0
C2744 C 0.60148 0.79438 0.12099 0.0
C2745 C 0.60347 0.78585 0.13963 0.0
C2746 C 0.61611 0.79224 0.10681 0.0
C2747 C 0.63324 0.78149 0.11076 0.0
H2748 H 0.58902 0.80361 0.11761 0.0
H2749 H 0.61439 0.79994 0.09303 0.0
S2750 S 0.64397 0.75356 0.15619 0.0
N2751 N 0.62271 0.76423 0.16047 0.0
N2752 N 0.65022 0.7602 0.13379 0.0
C2753 C 0.63468 0.7716 0.12879 0.0
C2754 C 0.61979 0.7738 0.14325 0.0
C2755 C 0.62603 0.20751 0.86799 0.0
C2756 C 0.62674 0.19271 0.8823 0.0
C2757 C 0.61205 0.20701 0.85302 0.0
C2758 C 0.59828 0.19172 0.85187 0.0
H2759 H 0.6371 0.21888 0.86757 0.0
H2760 H 0.61281 0.21808 0.84167 0.0
S2761 S 0.59151 0.15169 0.88804 0.0
N2762 N 0.61069 0.16402 0.89612 0.0
N2763 N 0.58435 0.1631 0.86795 0.0
C2764 C 0.59765 0.1779 0.86713 0.0
C2765 C 0.61192 0.1784 0.88239 0.0
C2766 C 0.81374 0.6059 0.8656 0.0
C2767 C 0.79663 0.60293 0.8545 0.0
C2768 C 0.81486 0.62097 0.87941 0.0
C2769 C 0.79891 0.63359 0.88261 0.0
H2770 H 0.82676 0.59727 0.86284 0.0
H2771 H 0.82869 0.62338 0.88683 0.0
S2772 S 0.74962 0.62964 0.85996 0.0
N2773 N 0.76254 0.61208 0.84954 0.0
N2774 N 0.76463 0.64044 0.87554 0.0
C2775 C 0.78119 0.62974 0.87281 0.0
C2776 C 0.78006 0.61438 0.85874 0.0
C2777 C 0.35378 0.77455 0.86847 0.0
C2778 C 0.35488 0.786 0.88554 0.0
C2779 C 0.3688 0.77494 0.85454 0.0
C2780 C 0.38549 0.78671 0.85723 0.0
H2781 H 0.34073 0.76612 0.86521 0.0
H2782 H 0.36678 0.76677 0.8411 0.0
S2783 S 0.39702 0.8166 0.90112 0.0
N2784 N 0.37513 0.80735 0.90563 0.0
N2785 N 0.40346 0.80801 0.87947 0.0
C2786 C 0.38758 0.79683 0.87505 0.0
C2787 C 0.37222 0.7965 0.8892 0.0
C2788 C 0.19814 0.3629 0.84827 0.0
C2789 C 0.18657 0.37985 0.84999 0.0
C2790 C 0.19876 0.34894 0.86325 0.0
C2791 C 0.18783 0.35139 0.88052 0.0
H2792 H 0.20615 0.35993 0.83491 0.0
H2793 H 0.20718 0.33572 0.86084 0.0
S2794 S 0.15742 0.39453 0.89342 0.0
N2795 N 0.1656 0.39934 0.87117 0.0
N2796 N 0.16676 0.37304 0.89939 0.0
C2797 C 0.1773 0.36891 0.88303 0.0
C2798 C 0.17666 0.38316 0.86773 0.0
C2799 C 0.36 0.21148 0.14421 0.0
C2800 C 0.37991 0.20725 0.14109 0.0
C2801 C 0.34637 0.20991 0.12903 0.0
C2802 C 0.35211 0.20396 0.11018 0.0
H2803 H 0.3547 0.2151 0.15871 0.0
H2804 H 0.33106 0.21237 0.13242 0.0
S2805 S 0.40297 0.19433 0.09364 0.0
N2806 N 0.40512 0.19928 0.1172 0.0
N2807 N 0.37938 0.19622 0.0886 0.0
C2808 C 0.37219 0.20123 0.10646 0.0
C2809 C 0.38613 0.20292 0.12195 0.0
C2810 C 0.79097 0.38155 0.12758 0.0
C2811 C 0.78245 0.37623 0.14557 0.0
C2812 C 0.79041 0.36891 0.11151 0.0
C2813 C 0.78138 0.35046 0.11287 0.0
H2814 H 0.79891 0.39522 0.12611 0.0
H2815 H 0.79805 0.37324 0.09829 0.0
S2816 S 0.75423 0.33087 0.15571 0.0
N2817 N 0.76266 0.35229 0.1631 0.0
N2818 N 0.76167 0.32845 0.13285 0.0
C2819 C 0.7715 0.34558 0.13028 0.0
C2820 C 0.77203 0.3585 0.14666 0.0
C2821 C 0.20512 0.61857 0.12899 0.0
C2822 C 0.19193 0.60274 0.12873 0.0
C2823 C 0.20462 0.63299 0.11445 0.0
C2824 C 0.19088 0.63216 0.09912 0.0
H2825 H 0.21533 0.62037 0.14101 0.0
H2826 H 0.21445 0.64538 0.11582 0.0
S2827 S 0.1551 0.5922 0.09014 0.0
N2828 N 0.16624 0.58587 0.11066 0.0
N2829 N 0.16527 0.61306 0.08329 0.0
C2830 C 0.17859 0.61566 0.09786 0.0
C2831 C 0.17913 0.60092 0.11269 0.0
C2832 C 0.98227 0.1613 0.29164 0.0
C2833 C 0.97173 0.17161 0.30598 0.0
C2834 C 0.00276 0.16134 0.29156 0.0
C2835 C 0.0134 0.17171 0.30582 0.0
H2836 H 0.97469 0.15384 0.27986 0.0
H2837 H 0.01025 0.15391 0.27973 0.0
S2838 S -0.00726 0.19851 0.34828 0.0
N2839 N 0.97341 0.19058 0.3361 0.0
N2840 N 0.01197 0.19068 0.33592 0.0
C2841 C 0.00306 0.18096 0.321 0.0
C2842 C 0.98219 0.1809 0.3211 0.0
C2843 C 0.81571 0.00062 0.30204 0.0
C2844 C 0.80291 0.01049 0.31478 0.0
C2845 C 0.81514 0.98024 0.30024 0.0
C2846 C 0.80175 0.96898 0.31109 0.0
H2847 H 0.82586 0.0087 0.2929 0.0
H2848 H 0.82492 0.97336 0.28982 0.0
S2849 S 0.76643 0.98758 0.34797 0.0
N2850 N 0.77746 0.00739 0.33954 0.0
N2851 N 0.77639 0.96901 0.33614 0.0
C2852 C 0.78949 0.97856 0.32457 0.0
C2853 C 0.79009 -0.00065 0.32644 0.0
C2854 C 0.00454 0.79318 0.32234 0.0
C2855 C 0.01491 0.80694 0.31106 0.0
C2856 C 0.98415 0.79414 0.32399 0.0
C2857 C 0.97343 0.80891 0.31442 0.0
H2858 H 0.01211 0.7811 0.32932 0.0
H2859 H 0.9767 0.78272 0.33212 0.0
S2860 S -0.00603 0.8502 0.2856 0.0
N2861 N 0.01323 0.83704 0.29199 0.0
N2862 N 0.97484 0.83885 0.2951 0.0
C2863 C 0.98373 0.82349 0.30415 0.0
C2864 C 0.00451 0.8225 0.30245 0.0
C2865 C 0.16921 0.98469 0.28733 0.0
C2866 C 0.17716 0.97384 0.30293 0.0
C2867 C 0.17078 0.0051 0.28681 0.0
C2868 C 0.18031 0.01538 0.30189 0.0
H2869 H 0.16238 0.97735 0.27504 0.0
H2870 H 0.165 0.0128 0.27418 0.0
S2871 S 0.20137 -0.00607 0.34724 0.0
N2872 N 0.1933 0.97492 0.33469 0.0
N2873 N 0.1962 0.01334 0.33376 0.0
C2874 C 0.18739 0.00479 0.3181 0.0
C2875 C 0.18582 0.98399 0.3186 0.0
C2876 C 0.98611 0.80147 0.66032 0.0
C2877 C 0.97539 0.81463 0.67194 0.0
C2878 C 0.00638 0.79955 0.66252 0.0
C2879 C 0.01667 0.81074 0.67641 0.0
H2880 H 0.97871 0.79196 0.64999 0.0
H2881 H 0.01389 0.78872 0.65372 0.0
S2882 S -0.00423 0.84914 0.70865 0.0
N2883 N 0.97677 0.8404 0.6965 0.0
N2884 N 0.01495 0.83681 0.70063 0.0
C2885 C 0.00632 0.8248 0.6873 0.0
C2886 C 0.98564 0.82675 0.68507 0.0
C2887 C 0.19382 0.97821 0.67068 0.0
C2888 C 0.18104 0.96729 0.68258 0.0
C2889 C 0.19291 -0.00134 0.6702 0.0
C2890 C 0.17914 0.00892 0.68154 0.0
H2891 H 0.20507 0.97099 0.66216 0.0
H2892 H 0.20349 0.00647 0.66131 0.0
S2893 S 0.14089 0.98701 0.71341 0.0
N2894 N 0.15313 0.96808 0.70473 0.0
N2895 N 0.15136 0.00657 0.70377 0.0
C2896 C 0.1656 -0.00187 0.69273 0.0
C2897 C 0.16658 0.97729 0.69327 0.0
C2898 C 0.98272 0.16475 0.6978 0.0
C2899 C 0.97213 0.17193 0.68166 0.0
C2900 C 0.0032 0.16535 0.69807 0.0
C2901 C 0.01377 0.17319 0.68223 0.0
H2902 H 0.97517 0.15928 0.71064 0.0
H2903 H 0.01073 0.16031 0.71111 0.0
S2904 S -0.00698 0.19142 0.63539 0.0
N2905 N 0.97374 0.1853 0.64863 0.0
N2906 N 0.01227 0.18647 0.64917 0.0
C2907 C 0.0034 0.17939 0.66555 0.0
C2908 C 0.98255 0.17875 0.66525 0.0
C2909 C 0.78559 0.98122 0.66276 0.0
C2910 C 0.80116 0.97073 0.67125 0.0
C2911 C 0.78624 0.00166 0.66126 0.0
C2912 C 0.80247 0.01224 0.66823 0.0
H2913 H 0.77247 0.9737 0.65793 0.0
H2914 H 0.77357 0.00922 0.65541 0.0
S2915 S 0.84824 0.99144 0.68894 0.0
N2916 N 0.83416 0.97224 0.68471 0.0
N2917 N 0.83535 0.01065 0.68191 0.0
C2918 C 0.81863 0.00184 0.67562 0.0
C2919 C 0.81798 0.98106 0.67713 0.0
C2920 C 0.32545 0.98223 0.19388 0.0
C2921 C 0.31431 0.97299 0.17922 0.0
C2922 C 0.32736 0.00261 0.19441 0.0
C2923 C 0.31817 0.01448 0.18032 0.0
H2924 H 0.33221 0.97372 0.20546 0.0
H2925 H 0.33548 0.00911 0.2064 0.0
S2926 S 0.28943 -0.00262 0.13745 0.0
N2927 N 0.29549 0.97713 0.14921 0.0
N2928 N 0.29907 0.01549 0.15022 0.0
C2929 C 0.30789 0.00539 0.16495 0.0
C2930 C 0.30596 0.98462 0.1644 0.0
C2931 C 0.98071 0.31866 0.18885 0.0
C2932 C 0.97038 0.30726 0.17516 0.0
C2933 C 0.00119 0.31902 0.189 0.0
C2934 C 0.01208 0.30805 0.17544 0.0
H2935 H 0.97298 0.32679 0.20004 0.0
H2936 H 0.00849 0.32742 0.20031 0.0
S2937 S 0.99199 0.27783 0.13496 0.0
N2938 N 0.97249 0.2862 0.14652 0.0
N2939 N 0.01104 0.28693 0.14675 0.0
C2940 C 0.00194 0.29752 0.16092 0.0
C2941 C 0.98106 0.29711 0.1608 0.0
C2942 C 0.69321 0.98279 0.16573 0.0
C2943 C 0.67948 0.97218 0.17684 0.0
C2944 C 0.69422 0.0032 0.1669 0.0
C2945 C 0.68151 0.01375 0.17918 0.0
H2946 H 0.70367 0.97525 0.15651 0.0
H2947 H 0.70537 0.01071 0.15846 0.0
S2948 S 0.64171 -0.00701 0.20989 0.0
N2949 N 0.65201 0.97378 0.19949 0.0
N2950 N 0.65388 0.0122 0.20166 0.0
C2951 C 0.66715 0.0034 0.18973 0.0
C2952 C 0.66615 0.98259 0.18856 0.0
C2953 C 0.98052 0.66671 0.19157 0.0
C2954 C 0.96966 0.68014 0.18036 0.0
C2955 C 0.00091 0.66579 0.19007 0.0
C2956 C 0.01118 0.67828 0.1773 0.0
H2957 H 0.97332 0.65724 0.20208 0.0
H2958 H 0.0087 0.65569 0.19952 0.0
S2959 S 0.98937 0.71445 0.14303 0.0
N2960 N 0.97046 0.70502 0.15479 0.0
N2961 N 0.00887 0.70329 0.15197 0.0
C2962 C 0.00042 0.69104 0.16522 0.0
C2963 C 0.97963 0.69198 0.16675 0.0
C2964 C 0.32295 0.9846 0.79745 0.0
C2965 C 0.31254 0.97326 0.81114 0.0
C2966 C 0.32179 0.00502 0.79762 0.0
C2967 C 0.31018 0.01485 0.81148 0.0
H2968 H 0.33152 0.97766 0.78606 0.0
H2969 H 0.32951 0.0131 0.78635 0.0
S2970 S 0.28205 0.99199 0.85201 0.0
N2971 N 0.29172 0.97335 0.84007 0.0
N2972 N 0.28953 0.01183 0.84037 0.0
C2973 C 0.30057 0.00375 0.82594 0.0
C2974 C 0.30176 0.98292 0.82576 0.0
C2975 C 0.9728 0.31318 0.8046 0.0
C2976 C 0.96326 0.29789 0.8146 0.0
C2977 C -0.00677 0.31417 0.80383 0.0
C2978 C 0.0049 0.29995 0.81308 0.0
H2979 H 0.96445 0.32417 0.79675 0.0
H2980 H -0.00012 0.32591 0.79547 0.0
S2981 S 0.98713 0.25794 0.84274 0.0
N2982 N 0.96699 0.26896 0.83511 0.0
N2983 N 0.00548 0.27085 0.83373 0.0
C2984 C -0.00442 0.28509 0.82392 0.0
C2985 C 0.97473 0.28405 0.82466 0.0
C2986 C 0.67074 0.98366 0.80434 0.0
C2987 C 0.68566 0.97448 0.8152 0.0
C2988 C 0.67062 0.00394 0.8016 0.0
C2989 C 0.68539 0.01581 0.80964 0.0
H2990 H 0.65939 0.97508 0.7973 0.0
H2991 H 0.65912 0.01027 0.79266 0.0
S2992 S 0.72666 -0.0008 0.84098 0.0
N2993 N 0.71478 0.97892 0.8353 0.0
N2994 N 0.71453 0.01713 0.83019 0.0
C2995 C 0.69987 0.00695 0.82135 0.0
C2996 C 0.7 0.98626 0.82413 0.0
C2997 C -0.00238 0.6821 0.81193 0.0
C2998 C 0.00791 0.67015 0.79871 0.0
C2999 C 0.97738 0.68466 0.81028 0.0
C3000 C 0.96666 0.67533 0.79539 0.0
H3001 H 0.00533 0.69017 0.8232 0.0
H3002 H 0.97021 0.6945 0.82043 0.0
S3003 S 0.98635 0.64072 0.75843 0.0
N3004 N 0.00568 0.64757 0.77125 0.0
N3005 N 0.96753 0.65234 0.76818 0.0
C3006 C 0.97658 0.66248 0.78273 0.0
C3007 C -0.00276 0.65989 0.78439 0.0
C3008 C 0.16584 0.29096 0.00662 0.0
C3009 C 0.17769 0.30396 0.01729 0.0
C3010 C 0.16398 0.29266 0.9863 0.0
C3011 C 0.17397 0.30739 0.97593 0.0
H3012 H 0.15836 0.27899 0.0139 0.0
H3013 H 0.15523 0.28187 0.97863 0.0
S3014 S 0.20508 0.34651 -0.00272 0.0
N3015 N 0.19824 0.33311 0.01622 0.0
N3016 N 0.1948 0.33625 0.97796 0.0
C3017 C 0.18508 0.32111 0.98652 0.0
C3018 C 0.18694 0.3194 0.00723 0.0
C3019 C 0.16313 0.69058 -0.00353 0.0
C3020 C 0.174 0.67656 0.00694 0.0
C3021 C 0.16353 0.69111 0.976 0.0
C3022 C 0.17476 0.67762 0.96528 0.0
H3023 H 0.1548 0.7017 0.00411 0.0
H3024 H 0.15547 0.70262 0.9686 0.0
S3025 S 0.20388 0.63647 0.98572 0.0
N3026 N 0.1949 0.64776 0.00509 0.0
N3027 N 0.1956 0.64871 0.96657 0.0
C3028 C 0.18484 0.66284 0.97554 0.0
C3029 C 0.18446 0.66233 -0.00361 0.0
C3030 C 0.29845 0.16732 0.00238 0.0
C3031 C 0.31319 0.17765 0.0124 0.0
C3032 C 0.29634 0.16899 0.98208 0.0
C3033 C 0.30887 0.18108 0.97108 0.0
H3034 H 0.28795 0.15845 0.01033 0.0
H3035 H 0.28436 0.16127 0.9751 0.0
S3036 S 0.3514 0.20921 0.98996 0.0
N3037 N 0.34171 0.1989 0.00957 0.0
N3038 N 0.3377 0.20206 0.97136 0.0
C3039 C 0.32435 0.19063 0.98074 0.0
C3040 C 0.32654 0.18888 0.00143 0.0
C3041 C 0.81657 0.30888 0.00209 0.0
C3042 C 0.802 0.319 0.01249 0.0
C3043 C 0.81598 0.30762 0.9817 0.0
C3044 C 0.80085 0.31652 0.97094 0.0
H3045 H 0.82806 0.30105 0.00976 0.0
H3046 H 0.82706 0.29892 0.97442 0.0
S3047 S 0.76067 0.34706 0.99098 0.0
N3048 N 0.77313 0.33984 0.01043 0.0
N3049 N 0.77207 0.33752 0.97193 0.0
C3050 C 0.78699 0.32793 0.98099 0.0
C3051 C 0.78755 0.32916 0.00184 0.0
C3052 C 0.6823 0.8122 0.98554 0.0
C3053 C 0.67516 0.79652 0.9743 0.0
C3054 C 0.68159 0.81169 0.00597 0.0
C3055 C 0.6737 0.79549 0.01594 0.0
H3056 H 0.68906 0.82476 0.97857 0.0
H3057 H 0.68783 0.82388 0.01398 0.0
S3058 S 0.65133 0.75145 -0.00674 0.0
N3059 N 0.65862 0.76492 0.97454 0.0
N3060 N 0.65728 0.76397 0.01306 0.0
C3061 C 0.6656 0.78012 0.00489 0.0
C3062 C 0.66633 0.78063 0.98402 0.0
C3063 C 0.80354 0.66548 0.00171 0.0
C3064 C 0.81526 0.67817 0.01289 0.0
C3065 C 0.80427 0.66574 0.98127 0.0
C3066 C 0.81675 0.67871 0.97125 0.0
H3067 H 0.79322 0.65567 0.00874 0.0
H3068 H 0.79447 0.65614 0.9733 0.0
S3069 S 0.85197 0.71347 -0.00624 0.0
N3070 N 0.84091 0.70297 0.01253 0.0
N3071 N 0.84227 0.70346 0.97401 0.0
C3072 C 0.82932 0.69076 0.98224 0.0
C3073 C 0.82858 0.6905 0.0031 0.0
C3074 C 0.31774 0.79217 0.98598 0.0
C3075 C 0.30677 0.80564 0.97491 0.0
C3076 C 0.31695 0.79217 0.00643 0.0
C3077 C 0.30514 0.80562 0.01657 0.0
H3078 H 0.32659 0.78113 0.97882 0.0
H3079 H 0.32521 0.78112 0.0143 0.0
S3080 S 0.27509 0.84521 -0.00552 0.0
N3081 N 0.28488 0.83376 0.97559 0.0
N3082 N 0.28337 0.83374 0.0141 0.0
C3083 C 0.29481 0.81978 0.00573 0.0
C3084 C 0.29564 0.8198 0.98487 0.0
C3085 C 0.70156 0.16698 -0.0002 0.0
C3086 C 0.68538 0.17066 0.01196 0.0
C3087 C 0.69961 0.16718 0.97941 0.0
C3088 C 0.68141 0.17102 0.97054 0.0
H3089 H 0.71601 0.16482 0.00603 0.0
H3090 H 0.71264 0.16515 0.97058 0.0
S3091 S 0.63397 0.1784 -0.00401 0.0
N3092 N 0.65017 0.17598 0.01379 0.0
N3093 N 0.6465 0.17631 0.97543 0.0
C3094 C 0.66488 0.17341 0.98255 0.0
C3095 C 0.66687 0.17324 0.00329 0.0
C3096 C 0.79847 0.50085 0.82031 0.0
C3097 C 0.81086 0.51184 0.80808 0.0
C3098 C 0.7983 0.4804 0.81952 0.0
C3099 C 0.81051 0.47021 0.80647 0.0
H3100 H 0.78823 0.50806 0.83004 0.0
H3101 H 0.78794 0.47261 0.82868 0.0
S3102 S 0.84755 0.49207 0.77322 0.0
N3103 N 0.83708 0.51102 0.78393 0.0
N3104 N 0.83673 0.47251 0.78244 0.0
C3105 C 0.82385 0.48096 0.79503 0.0
C3106 C 0.82403 0.50181 0.79585 0.0
C3107 C 0.16929 0.50428 0.78525 0.0
C3108 C 0.17824 0.51476 0.80053 0.0
C3109 C 0.16672 0.48399 0.78646 0.0
C3110 C 0.17306 0.47346 0.803 0.0
H3111 H 0.16461 0.5117 0.77201 0.0
H3112 H 0.1603 0.47646 0.77407 0.0
S3113 S 0.19562 0.49427 0.84785 0.0
N3114 N 0.19216 0.51332 0.83334 0.0
N3115 N 0.18738 0.47515 0.8356 0.0
C3116 C 0.18129 0.48385 0.81874 0.0
C3117 C 0.18388 0.50453 0.81752 0.0
C3118 C 0.16994 0.47929 0.19164 0.0
C3119 C 0.18142 0.4683 0.17858 0.0
C3120 C 0.16929 0.49972 0.19048 0.0
C3121 C 0.18014 0.50993 0.17625 0.0
H3122 H 0.1617 0.47213 0.20316 0.0
H3123 H 0.16061 0.50757 0.20118 0.0
S3124 S 0.21127 0.48791 0.13756 0.0
N3125 N 0.20296 0.46902 0.15018 0.0
N3126 N 0.20177 0.50749 0.14804 0.0
C3127 C 0.19112 0.49909 0.16263 0.0
C3128 C 0.19175 0.47826 0.16377 0.0
C3129 C 0.82146 0.49803 0.19586 0.0
C3130 C 0.81442 0.50755 0.17899 0.0
C3131 C 0.81941 0.47779 0.19818 0.0
C3132 C 0.81023 0.4664 0.18372 0.0
H3133 H 0.8278 0.50635 0.20779 0.0
H3134 H 0.82431 0.4712 0.21176 0.0
S3135 S 0.79208 0.48385 0.1355 0.0
N3136 N 0.79997 0.5038 0.14662 0.0
N3137 N 0.7961 0.4657 0.15098 0.0
C3138 C 0.80433 0.47553 0.16621 0.0
C3139 C 0.80645 0.49614 0.16384 0.0
C3140 C 0.30099 0.49817 0.67035 0.0
C3141 C 0.31438 0.50772 0.68274 0.0
C3142 C 0.29856 0.47786 0.6711 0.0
C3143 C 0.30942 0.46636 0.6843 0.0
H3144 H 0.29186 0.50647 0.66035 0.0
H3145 H 0.2877 0.47122 0.66163 0.0
S3146 S 0.34777 0.48405 0.71857 0.0
N3147 N 0.33967 0.50403 0.70762 0.0
N3148 N 0.3351 0.46579 0.70905 0.0
C3149 C 0.32348 0.47561 0.69618 0.0
C3150 C 0.32598 0.49632 0.69539 0.0
C3151 C 0.65921 0.50883 0.70834 0.0
C3152 C 0.66274 0.52022 0.69156 0.0
C3153 C 0.65921 0.48835 0.70735 0.0
C3154 C 0.66278 0.47867 0.68953 0.0
H3155 H 0.65743 0.51571 0.72252 0.0
H3156 H 0.65743 0.4801 0.72079 0.0
S3157 S 0.66926 0.50191 0.64083 0.0
N3158 N 0.66726 0.52043 0.6562 0.0
N3159 N 0.66734 0.48195 0.65435 0.0
C3160 C 0.66484 0.48991 0.67242 0.0
C3161 C 0.6648 0.51072 0.67342 0.0
C3162 C 0.29968 0.48727 0.31403 0.0
C3163 C 0.31211 0.47716 0.30112 0.0
C3164 C 0.29822 0.50768 0.31344 0.0
C3165 C 0.30915 0.51874 0.29993 0.0
H3166 H 0.2906 0.47936 0.32437 0.0
H3167 H 0.28811 0.51477 0.32338 0.0
S3168 S 0.34503 0.49941 0.26399 0.0
N3169 N 0.33644 0.47977 0.2752 0.0
N3170 N 0.33371 0.5182 0.2741 0.0
C3171 C 0.3222 0.50888 0.28742 0.0
C3172 C 0.32368 0.48807 0.28802 0.0
C3173 C 0.65739 0.5049 0.28001 0.0
C3174 C 0.66327 0.51675 0.29576 0.0
C3175 C 0.65563 0.4846 0.28225 0.0
C3176 C 0.65968 0.47555 0.30032 0.0
H3177 H 0.65522 0.51117 0.26558 0.0
H3178 H 0.65221 0.47589 0.26945 0.0
S3179 S 0.67174 0.50058 0.34698 0.0
N3180 N 0.67031 0.51839 0.33067 0.0
N3181 N 0.66701 0.48021 0.33487 0.0
C3182 C 0.6639 0.48743 0.31657 0.0
C3183 C 0.6657 0.50807 0.31428 0.0
C3184 C 0.19418 0.82008 0.48298 0.0
C3185 C 0.17965 0.81062 0.47186 0.0
C3186 C 0.19412 0.81908 0.50343 0.0
C3187 C 0.17957 0.80851 0.51349 0.0
H3188 H 0.20609 0.82777 0.47585 0.0
H3189 H 0.20598 0.82604 0.51134 0.0
S3190 S 0.1369 0.78315 0.49132 0.0
N3191 N 0.1493 0.79186 0.47247 0.0
N3192 N 0.14926 0.78991 0.51096 0.0
C3193 C 0.16438 0.79986 0.50262 0.0
C3194 C 0.16439 0.80094 0.48178 0.0
C3195 C 0.16547 0.18746 0.4818 0.0
C3196 C 0.17823 0.17558 0.47088 0.0
C3197 C 0.16519 0.1866 0.50226 0.0
C3198 C 0.17764 0.1738 0.51255 0.0
H3199 H 0.15601 0.19795 0.47456 0.0
H3200 H 0.15553 0.19647 0.51005 0.0
S3201 S 0.21238 0.13818 0.49073 0.0
N3202 N 0.20259 0.14957 0.47176 0.0
N3203 N 0.20205 0.14793 0.51026 0.0
C3204 C 0.18983 0.16119 0.50179 0.0
C3205 C 0.19013 0.16208 0.48093 0.0
C3206 C 0.28874 0.66309 0.50483 0.0
C3207 C 0.304 0.6714 0.51588 0.0
C3208 C 0.28877 0.66411 0.48438 0.0
C3209 C 0.30402 0.67358 0.47429 0.0
H3210 H 0.27631 0.65631 0.51201 0.0
H3211 H 0.27637 0.6581 0.4765 0.0
S3212 S 0.34862 0.69556 0.49627 0.0
N3213 N 0.33569 0.68778 0.51516 0.0
N3214 N 0.33568 0.6898 0.47668 0.0
C3215 C 0.31989 0.68103 0.48509 0.0
C3216 C 0.31991 0.6799 0.50591 0.0
C3217 C 0.78168 0.81453 0.50436 0.0
C3218 C 0.79803 0.80799 0.51505 0.0
C3219 C 0.78193 0.81482 0.48388 0.0
C3220 C 0.79854 0.80861 0.47344 0.0
H3221 H 0.7683 0.81868 0.51179 0.0
H3222 H 0.76873 0.8192 0.47623 0.0
S3223 S 0.84611 0.79298 0.49469 0.0
N3224 N 0.83197 0.79719 0.51383 0.0
N3225 N 0.83247 0.79778 0.4753 0.0
C3226 C 0.81541 0.80323 0.48398 0.0
C3227 C 0.81514 0.8029 0.50483 0.0
C3228 C 0.70048 0.32749 0.50446 0.0
C3229 C 0.68474 0.32052 0.51577 0.0
C3230 C 0.69992 0.32664 0.48401 0.0
C3231 C 0.68363 0.31876 0.47416 0.0
H3232 H 0.71367 0.3329 0.51143 0.0
H3233 H 0.7127 0.33146 0.47592 0.0
S3234 S 0.6375 0.30118 0.49695 0.0
N3235 N 0.65155 0.30744 0.51561 0.0
N3236 N 0.65055 0.30579 0.47713 0.0
C3237 C 0.66731 0.31287 0.48525 0.0
C3238 C 0.66785 0.31377 0.50608 0.0
C3239 C 0.8241 0.19808 0.4799 0.0
C3240 C 0.8131 0.1838 0.46996 0.0
C3241 C 0.82484 0.19841 0.50036 0.0
C3242 C 0.81466 0.18441 0.51156 0.0
H3243 H 0.83147 0.20963 0.47187 0.0
H3244 H 0.83276 0.2102 0.50742 0.0
S3245 S 0.78632 0.14215 0.49241 0.0
N3246 N 0.79367 0.15405 0.47268 0.0
N3247 N 0.79512 0.15457 0.51118 0.0
C3248 C 0.80473 0.16927 0.50176 0.0
C3249 C 0.80392 0.16899 0.48093 0.0
C3250 C 0.31308 0.29826 0.4821 0.0
C3251 C 0.30001 0.31008 0.47144 0.0
C3252 C 0.31258 0.29774 0.50253 0.0
C3253 C 0.299 0.30901 0.5131 0.0
H3254 H 0.32347 0.28891 0.47463 0.0
H3255 H 0.32263 0.28801 0.51005 0.0
S3256 S 0.26271 0.3437 0.49219 0.0
N3257 N 0.27392 0.33432 0.47295 0.0
N3258 N 0.27298 0.33333 0.51148 0.0
C3259 C 0.28638 0.32154 0.50268 0.0
C3260 C 0.28689 0.32208 0.48181 0.0
C3261 C 0.70199 0.6516 0.47982 0.0
C3262 C 0.6857 0.65648 0.46818 0.0
C3263 C 0.70093 0.65232 0.50026 0.0
C3264 C 0.68357 0.65801 0.50974 0.0
H3265 H 0.71595 0.64814 0.47314 0.0
H3266 H 0.71411 0.6494 0.50862 0.0
S3267 S 0.63587 0.66887 0.48601 0.0
N3268 N 0.65099 0.66468 0.46764 0.0
N3269 N 0.64905 0.66611 0.5061 0.0
C3270 C 0.66677 0.66146 0.49833 0.0
C3271 C 0.66783 0.66066 0.47751 0.0
C3272 C 0.49788 0.16858 0.79476 0.0
C3273 C 0.50926 0.18138 0.80617 0.0
C3274 C 0.47743 0.16966 0.79489 0.0
C3275 C 0.46762 0.18359 0.80643 0.0
H3276 H 0.50478 0.15797 0.78522 0.0
H3277 H 0.46931 0.15985 0.78543 0.0
S3278 S 0.49062 0.21925 0.84039 0.0
N3279 N 0.50923 0.2075 0.83041 0.0
N3280 N 0.47074 0.20955 0.83063 0.0
C3281 C 0.47878 0.19593 0.81856 0.0
C3282 C 0.49963 0.19482 0.81843 0.0
C3283 C 0.51165 0.79578 0.81865 0.0
C3284 C 0.52134 0.8082 0.80537 0.0
C3285 C 0.49127 0.79595 0.8203 0.0
C3286 C 0.4798 0.80853 0.80872 0.0
H3287 H 0.51981 0.78545 0.82753 0.0
H3288 H 0.48445 0.78574 0.83036 0.0
S3289 S 0.49814 0.84517 0.77292 0.0
N3290 N 0.51807 0.83436 0.78134 0.0
N3291 N 0.47963 0.83468 0.78444 0.0
C3292 C 0.48932 0.82163 0.79596 0.0
C3293 C 0.51013 0.82146 0.79429 0.0
C3294 C 0.49602 0.81892 0.19296 0.0
C3295 C 0.50683 0.80891 0.17861 0.0
C3296 C 0.47566 0.81702 0.19406 0.0
C3297 C 0.46538 0.80504 0.18084 0.0
H3298 H 0.50338 0.82771 0.20393 0.0
H3299 H 0.46804 0.82448 0.2058 0.0
S3300 S 0.48658 0.77773 0.13896 0.0
N3301 N 0.5056 0.78808 0.14973 0.0
N3302 N 0.46726 0.78449 0.15181 0.0
C3303 C 0.47587 0.79582 0.16573 0.0
C3304 C 0.49662 0.79777 0.1646 0.0
C3305 C 0.5049 0.19994 0.16479 0.0
C3306 C 0.51465 0.18259 0.1701 0.0
C3307 C 0.48463 0.2018 0.16717 0.0
C3308 C 0.47342 0.18636 0.17491 0.0
H3309 H 0.51306 0.21253 0.15959 0.0
H3310 H 0.47786 0.2157 0.16361 0.0
S3311 S 0.49157 0.13685 0.18829 0.0
N3312 N 0.51135 0.14896 0.18143 0.0
N3313 N 0.47321 0.1524 0.18585 0.0
C3314 C 0.48281 0.16849 0.17909 0.0
C3315 C 0.50345 0.16662 0.17669 0.0
C3316 C 0.48478 0.31683 0.68331 0.0
C3317 C 0.47423 0.30468 0.67047 0.0
C3318 C 0.50519 0.31582 0.68441 0.0
C3319 C 0.5158 0.30267 0.67269 0.0
H3320 H 0.47722 0.32675 0.69309 0.0
H3321 H 0.51263 0.32509 0.69493 0.0
S3322 S 0.49523 0.26914 0.63518 0.0
N3323 N 0.47594 0.28016 0.64469 0.0
N3324 N 0.51441 0.2783 0.64673 0.0
C3325 C 0.50552 0.2911 0.6591 0.0
C3326 C 0.48469 0.29211 0.658 0.0
C3327 C 0.4986 0.70778 0.66445 0.0
C3328 C 0.50953 0.69035 0.66547 0.0
C3329 C 0.47828 0.70765 0.66727 0.0
C3330 C 0.46828 0.69009 0.67124 0.0
H3331 H 0.50586 0.72175 0.6624 0.0
H3332 H 0.47054 0.72149 0.66721 0.0
S3333 S 0.48971 0.64016 0.67212 0.0
N3334 N 0.50855 0.65484 0.66829 0.0
N3335 N 0.47038 0.6546 0.67365 0.0
C3336 C 0.47884 0.67243 0.67096 0.0
C3337 C 0.49949 0.67256 0.66804 0.0
C3338 C 0.48994 0.31702 0.3143 0.0
C3339 C 0.47762 0.30189 0.32087 0.0
C3340 C 0.51009 0.31414 0.31246 0.0
C3341 C 0.51871 0.29601 0.3171 0.0
H3342 H 0.4839 0.331 0.30981 0.0
H3343 H 0.51888 0.32607 0.30675 0.0
S3344 S 0.49316 0.25227 0.33682 0.0
N3345 N 0.47562 0.26859 0.33351 0.0
N3346 N 0.51365 0.26318 0.33003 0.0
C3347 C 0.50675 0.28109 0.32475 0.0
C3348 C 0.48615 0.28404 0.32666 0.0
C3349 C 0.4889 0.69527 0.32712 0.0
C3350 C 0.47834 0.67912 0.3199 0.0
C3351 C 0.50933 0.69599 0.32576 0.0
C3352 C 0.51989 0.6806 0.31711 0.0
H3353 H 0.4813 0.70788 0.33301 0.0
H3354 H 0.51678 0.70913 0.33061 0.0
S3355 S 0.49941 0.63361 0.29903 0.0
N3356 N 0.48011 0.64633 0.30607 0.0
N3357 N 0.51855 0.6477 0.30349 0.0
C3358 C 0.50964 0.66374 0.31118 0.0
C3359 C 0.48884 0.663 0.31258 0.0
loop_
_geom_bond_atom_site_label_1
_geom_bond_atom_site_label_2
_geom_bond_distance
_geom_bond_site_symmetry_2
_ccdc_geom_bond_type
In0 O1 2.294 . S
In0 O2 2.326 . S
In0 O6 2.266 . S
In0 O7 2.326 . S
In0 O8 2.266 . S
In0 O9 2.326 . S
In0 O11 2.294 . S
In0 O12 2.326 . S
O1 In0 2.294 . S
O1 C10 1.240 . S
O2 In0 2.326 . S
O2 C10 1.252 . S
C3 O6 1.252 . S
C3 O7 1.260 . S
C4 O11 1.240 . S
C4 O12 1.252 . S
C5 O8 1.252 . S
C5 O9 1.260 . S
O6 In0 2.266 . S
O6 C3 1.252 . S
O7 In0 2.326 . S
O7 C3 1.260 . S
O8 In0 2.266 . S
O8 C5 1.252 . S
O9 In0 2.326 . S
O9 C5 1.260 . S
C10 O1 1.240 . S
C10 O2 1.252 . S
O11 In0 2.294 . S
O11 C4 1.240 . S
O12 In0 2.326 . S
O12 C4 1.252 . S
In13 O14 2.294 . S
In13 O15 2.326 . S
In13 O19 2.266 . S
In13 O20 2.326 . S
In13 O21 2.266 . S
In13 O22 2.326 . S
In13 O24 2.294 . S
In13 O25 2.326 . S
O14 In13 2.294 . S
O14 C23 1.240 . S
O15 In13 2.326 . S
O15 C23 1.252 . S
C16 O19 1.252 . S
C16 O20 1.260 . S
C17 O24 1.240 . S
C17 O25 1.252 . S
C18 O21 1.252 . S
C18 O22 1.260 . S
O19 In13 2.266 . S
O19 C16 1.252 . S
O20 In13 2.326 . S
O20 C16 1.260 . S
O21 In13 2.266 . S
O21 C18 1.252 . S
O22 In13 2.326 . S
O22 C18 1.260 . S
C23 O14 1.240 . S
C23 O15 1.252 . S
O24 In13 2.294 . S
O24 C17 1.240 . S
O25 In13 2.326 . S
O25 C17 1.252 . S
In26 O27 2.294 . S
In26 O28 2.326 . S
In26 O32 2.266 . S
In26 O33 2.326 . S
In26 O34 2.266 . S
In26 O35 2.326 . S
In26 O37 2.294 . S
In26 O38 2.326 . S
O27 In26 2.294 . S
O27 C36 1.240 . S
O28 In26 2.326 . S
O28 C36 1.252 . S
C29 O32 1.252 . S
C29 O33 1.260 . S
C30 O37 1.240 . S
C30 O38 1.252 . S
C31 O34 1.252 . S
C31 O35 1.260 . S
O32 In26 2.266 . S
O32 C29 1.252 . S
O33 In26 2.326 . S
O33 C29 1.260 . S
O34 In26 2.266 . S
O34 C31 1.252 . S
O35 In26 2.326 . S
O35 C31 1.260 . S
C36 O27 1.240 . S
C36 O28 1.252 . S
O37 In26 2.294 . S
O37 C30 1.240 . S
O38 In26 2.326 . S
O38 C30 1.252 . S
In39 O40 2.294 . S
In39 O41 2.326 . S
In39 O45 2.266 . S
In39 O46 2.326 . S
In39 O47 2.266 . S
In39 O48 2.326 . S
In39 O50 2.294 . S
In39 O51 2.326 . S
O40 In39 2.294 . S
O40 C49 1.240 . S
O41 In39 2.326 . S
O41 C49 1.252 . S
C42 O45 1.252 . S
C42 O46 1.260 . S
C43 O50 1.240 . S
C43 O51 1.252 . S
C44 O47 1.252 . S
C44 O48 1.260 . S
O45 In39 2.266 . S
O45 C42 1.252 . S
O46 In39 2.326 . S
O46 C42 1.260 . S
O47 In39 2.266 . S
O47 C44 1.252 . S
O48 In39 2.326 . S
O48 C44 1.260 . S
C49 O40 1.240 . S
C49 O41 1.252 . S
O50 In39 2.294 . S
O50 C43 1.240 . S
O51 In39 2.326 . S
O51 C43 1.252 . S
In52 O53 2.294 . S
In52 O54 2.326 . S
In52 O58 2.266 . S
In52 O59 2.326 . S
In52 O60 2.266 . S
In52 O61 2.326 . S
In52 O63 2.294 . S
In52 O64 2.326 . S
O53 In52 2.294 . S
O53 C62 1.240 . S
O54 In52 2.326 . S
O54 C62 1.252 . S
C55 O58 1.252 . S
C55 O59 1.260 . S
C56 O63 1.240 . S
C56 O64 1.252 . S
C57 O60 1.252 . S
C57 O61 1.260 . S
O58 In52 2.266 . S
O58 C55 1.252 . S
O59 In52 2.326 . S
O59 C55 1.260 . S
O60 In52 2.266 . S
O60 C57 1.252 . S
O61 In52 2.326 . S
O61 C57 1.260 . S
C62 O53 1.240 . S
C62 O54 1.252 . S
O63 In52 2.294 . S
O63 C56 1.240 . S
O64 In52 2.326 . S
O64 C56 1.252 . S
In65 O66 2.294 . S
In65 O67 2.326 . S
In65 O71 2.266 . S
In65 O72 2.326 . S
In65 O73 2.266 . S
In65 O74 2.326 . S
In65 O76 2.294 . S
In65 O77 2.326 . S
O66 In65 2.294 . S
O66 C75 1.240 . S
O67 In65 2.326 . S
O67 C75 1.252 . S
C68 O71 1.252 . S
C68 O72 1.260 . S
C69 O76 1.240 . S
C69 O77 1.252 . S
C70 O73 1.252 . S
C70 O74 1.260 . S
O71 In65 2.266 . S
O71 C68 1.252 . S
O72 In65 2.326 . S
O72 C68 1.260 . S
O73 In65 2.266 . S
O73 C70 1.252 . S
O74 In65 2.326 . S
O74 C70 1.260 . S
C75 O66 1.240 . S
C75 O67 1.252 . S
O76 In65 2.294 . S
O76 C69 1.240 . S
O77 In65 2.326 . S
O77 C69 1.252 . S
In78 O79 2.294 . S
In78 O80 2.326 . S
In78 O84 2.266 . S
In78 O85 2.326 . S
In78 O86 2.266 . S
In78 O87 2.326 . S
In78 O89 2.294 . S
In78 O90 2.326 . S
O79 In78 2.294 . S
O79 C88 1.240 . S
O80 In78 2.326 . S
O80 C88 1.252 . S
C81 O84 1.252 . S
C81 O85 1.260 . S
C82 O89 1.240 . S
C82 O90 1.252 . S
C83 O86 1.252 . S
C83 O87 1.260 . S
O84 In78 2.266 . S
O84 C81 1.252 . S
O85 In78 2.326 . S
O85 C81 1.260 . S
O86 In78 2.266 . S
O86 C83 1.252 . S
O87 In78 2.326 . S
O87 C83 1.260 . S
C88 O79 1.240 . S
C88 O80 1.252 . S
O89 In78 2.294 . S
O89 C82 1.240 . S
O90 In78 2.326 . S
O90 C82 1.252 . S
In91 O92 2.294 . S
In91 O93 2.326 . S
In91 O97 2.266 . S
In91 O98 2.326 . S
In91 O99 2.266 . S
In91 O100 2.326 . S
In91 O102 2.294 . S
In91 O103 2.326 . S
O92 In91 2.294 . S
O92 C101 1.240 . S
O93 In91 2.326 . S
O93 C101 1.252 . S
C94 O97 1.252 . S
C94 O98 1.260 . S
C95 O102 1.240 . S
C95 O103 1.252 . S
C96 O99 1.252 . S
C96 O100 1.260 . S
O97 In91 2.266 . S
O97 C94 1.252 . S
O98 In91 2.326 . S
O98 C94 1.260 . S
O99 In91 2.266 . S
O99 C96 1.252 . S
O100 In91 2.326 . S
O100 C96 1.260 . S
C101 O92 1.240 . S
C101 O93 1.252 . S
O102 In91 2.294 . S
O102 C95 1.240 . S
O103 In91 2.326 . S
O103 C95 1.252 . S
In104 O105 2.294 . S
In104 O106 2.326 . S
In104 O110 2.266 . S
In104 O111 2.326 . S
In104 O112 2.266 . S
In104 O113 2.326 . S
In104 O115 2.294 . S
In104 O116 2.326 . S
O105 In104 2.294 . S
O105 C114 1.240 . S
O106 In104 2.326 . S
O106 C114 1.252 . S
C107 O110 1.252 . S
C107 O111 1.260 . S
C108 O115 1.240 . S
C108 O116 1.252 . S
C109 O112 1.252 . S
C109 O113 1.260 . S
O110 In104 2.266 . S
O110 C107 1.252 . S
O111 In104 2.326 . S
O111 C107 1.260 . S
O112 In104 2.266 . S
O112 C109 1.252 . S
O113 In104 2.326 . S
O113 C109 1.260 . S
C114 O105 1.240 . S
C114 O106 1.252 . S
O115 In104 2.294 . S
O115 C108 1.240 . S
O116 In104 2.326 . S
O116 C108 1.252 . S
In117 O118 2.294 . S
In117 O119 2.326 . S
In117 O123 2.266 . S
In117 O124 2.326 . S
In117 O125 2.266 . S
In117 O126 2.326 . S
In117 O128 2.294 . S
In117 O129 2.326 . S
O118 In117 2.294 . S
O118 C127 1.240 . S
O119 In117 2.326 . S
O119 C127 1.252 . S
C120 O123 1.252 . S
C120 O124 1.260 . S
C121 O128 1.240 . S
C121 O129 1.252 . S
C122 O125 1.252 . S
C122 O126 1.260 . S
O123 In117 2.266 . S
O123 C120 1.252 . S
O124 In117 2.326 . S
O124 C120 1.260 . S
O125 In117 2.266 . S
O125 C122 1.252 . S
O126 In117 2.326 . S
O126 C122 1.260 . S
C127 O118 1.240 . S
C127 O119 1.252 . S
O128 In117 2.294 . S
O128 C121 1.240 . S
O129 In117 2.326 . S
O129 C121 1.252 . S
In130 O131 2.294 . S
In130 O132 2.326 . S
In130 O136 2.266 . S
In130 O137 2.326 . S
In130 O138 2.266 . S
In130 O139 2.326 . S
In130 O141 2.294 . S
In130 O142 2.326 . S
O131 In130 2.294 . S
O131 C140 1.240 . S
O132 In130 2.326 . S
O132 C140 1.252 . S
C133 O136 1.252 . S
C133 O137 1.260 . S
C134 O141 1.240 . S
C134 O142 1.252 . S
C135 O138 1.252 . S
C135 O139 1.260 . S
O136 In130 2.266 . S
O136 C133 1.252 . S
O137 In130 2.326 . S
O137 C133 1.260 . S
O138 In130 2.266 . S
O138 C135 1.252 . S
O139 In130 2.326 . S
O139 C135 1.260 . S
C140 O131 1.240 . S
C140 O132 1.252 . S
O141 In130 2.294 . S
O141 C134 1.240 . S
O142 In130 2.326 . S
O142 C134 1.252 . S
In143 O144 2.294 . S
In143 O145 2.326 . S
In143 O149 2.266 . S
In143 O150 2.326 . S
In143 O151 2.266 . S
In143 O152 2.326 . S
In143 O154 2.294 . S
In143 O155 2.326 . S
O144 In143 2.294 . S
O144 C153 1.240 . S
O145 In143 2.326 . S
O145 C153 1.252 . S
C146 O149 1.252 . S
C146 O150 1.260 . S
C147 O154 1.240 . S
C147 O155 1.252 . S
C148 O151 1.252 . S
C148 O152 1.260 . S
O149 In143 2.266 . S
O149 C146 1.252 . S
O150 In143 2.326 . S
O150 C146 1.260 . S
O151 In143 2.266 . S
O151 C148 1.252 . S
O152 In143 2.326 . S
O152 C148 1.260 . S
C153 O144 1.240 . S
C153 O145 1.252 . S
O154 In143 2.294 . S
O154 C147 1.240 . S
O155 In143 2.326 . S
O155 C147 1.252 . S
In156 O157 2.294 . S
In156 O158 2.326 . S
In156 O162 2.266 . S
In156 O163 2.326 . S
In156 O164 2.266 . S
In156 O165 2.326 . S
In156 O167 2.294 . S
In156 O168 2.326 . S
O157 In156 2.294 . S
O157 C166 1.240 . S
O158 In156 2.326 . S
O158 C166 1.252 . S
C159 O162 1.252 . S
C159 O163 1.260 . S
C160 O167 1.240 . S
C160 O168 1.252 . S
C161 O164 1.252 . S
C161 O165 1.260 . S
O162 In156 2.266 . S
O162 C159 1.252 . S
O163 In156 2.326 . S
O163 C159 1.260 . S
O164 In156 2.266 . S
O164 C161 1.252 . S
O165 In156 2.326 . S
O165 C161 1.260 . S
C166 O157 1.240 . S
C166 O158 1.252 . S
O167 In156 2.294 . S
O167 C160 1.240 . S
O168 In156 2.326 . S
O168 C160 1.252 . S
In169 O170 2.294 . S
In169 O171 2.326 . S
In169 O175 2.266 . S
In169 O176 2.326 . S
In169 O177 2.266 . S
In169 O178 2.326 . S
In169 O180 2.294 . S
In169 O181 2.326 . S
O170 In169 2.294 . S
O170 C179 1.240 . S
O171 In169 2.326 . S
O171 C179 1.252 . S
C172 O175 1.252 . S
C172 O176 1.260 . S
C173 O180 1.240 . S
C173 O181 1.252 . S
C174 O177 1.252 . S
C174 O178 1.260 . S
O175 In169 2.266 . S
O175 C172 1.252 . S
O176 In169 2.326 . S
O176 C172 1.260 . S
O177 In169 2.266 . S
O177 C174 1.252 . S
O178 In169 2.326 . S
O178 C174 1.260 . S
C179 O170 1.240 . S
C179 O171 1.252 . S
O180 In169 2.294 . S
O180 C173 1.240 . S
O181 In169 2.326 . S
O181 C173 1.252 . S
In182 O183 2.294 . S
In182 O184 2.326 . S
In182 O188 2.266 . S
In182 O189 2.326 . S
In182 O190 2.266 . S
In182 O191 2.326 . S
In182 O193 2.294 . S
In182 O194 2.326 . S
O183 In182 2.294 . S
O183 C192 1.240 . S
O184 In182 2.326 . S
O184 C192 1.252 . S
C185 O188 1.252 . S
C185 O189 1.260 . S
C186 O193 1.240 . S
C186 O194 1.252 . S
C187 O190 1.252 . S
C187 O191 1.260 . S
O188 In182 2.266 . S
O188 C185 1.252 . S
O189 In182 2.326 . S
O189 C185 1.260 . S
O190 In182 2.266 . S
O190 C187 1.252 . S
O191 In182 2.326 . S
O191 C187 1.260 . S
C192 O183 1.240 . S
C192 O184 1.252 . S
O193 In182 2.294 . S
O193 C186 1.240 . S
O194 In182 2.326 . S
O194 C186 1.252 . S
In195 O196 2.294 . S
In195 O197 2.326 . S
In195 O201 2.266 . S
In195 O202 2.326 . S
In195 O203 2.266 . S
In195 O204 2.326 . S
In195 O206 2.294 . S
In195 O207 2.326 . S
O196 In195 2.294 . S
O196 C205 1.240 . S
O197 In195 2.326 . S
O197 C205 1.252 . S
C198 O201 1.252 . S
C198 O202 1.260 . S
C199 O206 1.240 . S
C199 O207 1.252 . S
C200 O203 1.252 . S
C200 O204 1.260 . S
O201 In195 2.266 . S
O201 C198 1.252 . S
O202 In195 2.326 . S
O202 C198 1.260 . S
O203 In195 2.266 . S
O203 C200 1.252 . S
O204 In195 2.326 . S
O204 C200 1.260 . S
C205 O196 1.240 . S
C205 O197 1.252 . S
O206 In195 2.294 . S
O206 C199 1.240 . S
O207 In195 2.326 . S
O207 C199 1.252 . S
In208 O209 2.294 . S
In208 O210 2.326 . S
In208 O214 2.266 . S
In208 O215 2.326 . S
In208 O216 2.266 . S
In208 O217 2.326 . S
In208 O219 2.294 . S
In208 O220 2.326 . S
O209 In208 2.294 . S
O209 C218 1.240 . S
O210 In208 2.326 . S
O210 C218 1.252 . S
C211 O214 1.252 . S
C211 O215 1.260 . S
C212 O219 1.240 . S
C212 O220 1.252 . S
C213 O216 1.252 . S
C213 O217 1.260 . S
O214 In208 2.266 . S
O214 C211 1.252 . S
O215 In208 2.326 . S
O215 C211 1.260 . S
O216 In208 2.266 . S
O216 C213 1.252 . S
O217 In208 2.326 . S
O217 C213 1.260 . S
C218 O209 1.240 . S
C218 O210 1.252 . S
O219 In208 2.294 . S
O219 C212 1.240 . S
O220 In208 2.326 . S
O220 C212 1.252 . S
In221 O222 2.294 . S
In221 O223 2.326 . S
In221 O227 2.266 . S
In221 O228 2.326 . S
In221 O229 2.266 . S
In221 O230 2.326 . S
In221 O232 2.294 . S
In221 O233 2.326 . S
O222 In221 2.294 . S
O222 C231 1.240 . S
O223 In221 2.326 . S
O223 C231 1.252 . S
C224 O227 1.252 . S
C224 O228 1.260 . S
C225 O232 1.240 . S
C225 O233 1.252 . S
C226 O229 1.252 . S
C226 O230 1.260 . S
O227 In221 2.266 . S
O227 C224 1.252 . S
O228 In221 2.326 . S
O228 C224 1.260 . S
O229 In221 2.266 . S
O229 C226 1.252 . S
O230 In221 2.326 . S
O230 C226 1.260 . S
C231 O222 1.240 . S
C231 O223 1.252 . S
O232 In221 2.294 . S
O232 C225 1.240 . S
O233 In221 2.326 . S
O233 C225 1.252 . S
In234 O235 2.294 . S
In234 O236 2.326 . S
In234 O240 2.266 . S
In234 O241 2.326 . S
In234 O242 2.266 . S
In234 O243 2.326 . S
In234 O245 2.294 . S
In234 O246 2.326 . S
O235 In234 2.294 . S
O235 C244 1.240 . S
O236 In234 2.326 . S
O236 C244 1.252 . S
C237 O240 1.252 . S
C237 O241 1.260 . S
C238 O245 1.240 . S
C238 O246 1.252 . S
C239 O242 1.252 . S
C239 O243 1.260 . S
O240 In234 2.266 . S
O240 C237 1.252 . S
O241 In234 2.326 . S
O241 C237 1.260 . S
O242 In234 2.266 . S
O242 C239 1.252 . S
O243 In234 2.326 . S
O243 C239 1.260 . S
C244 O235 1.240 . S
C244 O236 1.252 . S
O245 In234 2.294 . S
O245 C238 1.240 . S
O246 In234 2.326 . S
O246 C238 1.252 . S
In247 O248 2.294 . S
In247 O249 2.326 . S
In247 O253 2.266 . S
In247 O254 2.326 . S
In247 O255 2.266 . S
In247 O256 2.326 . S
In247 O258 2.294 . S
In247 O259 2.326 . S
O248 In247 2.294 . S
O248 C257 1.240 . S
O249 In247 2.326 . S
O249 C257 1.252 . S
C250 O253 1.252 . S
C250 O254 1.260 . S
C251 O258 1.240 . S
C251 O259 1.252 . S
C252 O255 1.252 . S
C252 O256 1.260 . S
O253 In247 2.266 . S
O253 C250 1.252 . S
O254 In247 2.326 . S
O254 C250 1.260 . S
O255 In247 2.266 . S
O255 C252 1.252 . S
O256 In247 2.326 . S
O256 C252 1.260 . S
C257 O248 1.240 . S
C257 O249 1.252 . S
O258 In247 2.294 . S
O258 C251 1.240 . S
O259 In247 2.326 . S
O259 C251 1.252 . S
In260 O261 2.294 . S
In260 O262 2.326 . S
In260 O266 2.266 . S
In260 O267 2.326 . S
In260 O268 2.266 . S
In260 O269 2.326 . S
In260 O271 2.294 . S
In260 O272 2.326 . S
O261 In260 2.294 . S
O261 C270 1.240 . S
O262 In260 2.326 . S
O262 C270 1.252 . S
C263 O266 1.252 . S
C263 O267 1.260 . S
C264 O271 1.240 . S
C264 O272 1.252 . S
C265 O268 1.252 . S
C265 O269 1.260 . S
O266 In260 2.266 . S
O266 C263 1.252 . S
O267 In260 2.326 . S
O267 C263 1.260 . S
O268 In260 2.266 . S
O268 C265 1.252 . S
O269 In260 2.326 . S
O269 C265 1.260 . S
C270 O261 1.240 . S
C270 O262 1.252 . S
O271 In260 2.294 . S
O271 C264 1.240 . S
O272 In260 2.326 . S
O272 C264 1.252 . S
In273 O274 2.294 . S
In273 O275 2.326 . S
In273 O279 2.266 . S
In273 O280 2.326 . S
In273 O281 2.266 . S
In273 O282 2.326 . S
In273 O284 2.294 . S
In273 O285 2.326 . S
O274 In273 2.294 . S
O274 C283 1.240 . S
O275 In273 2.326 . S
O275 C283 1.252 . S
C276 O279 1.252 . S
C276 O280 1.260 . S
C277 O284 1.240 . S
C277 O285 1.252 . S
C278 O281 1.252 . S
C278 O282 1.260 . S
O279 In273 2.266 . S
O279 C276 1.252 . S
O280 In273 2.326 . S
O280 C276 1.260 . S
O281 In273 2.266 . S
O281 C278 1.252 . S
O282 In273 2.326 . S
O282 C278 1.260 . S
C283 O274 1.240 . S
C283 O275 1.252 . S
O284 In273 2.294 . S
O284 C277 1.240 . S
O285 In273 2.326 . S
O285 C277 1.252 . S
In286 O287 2.294 . S
In286 O288 2.326 . S
In286 O292 2.266 . S
In286 O293 2.326 . S
In286 O294 2.266 . S
In286 O295 2.326 . S
In286 O297 2.294 . S
In286 O298 2.326 . S
O287 In286 2.294 . S
O287 C296 1.240 . S
O288 In286 2.326 . S
O288 C296 1.252 . S
C289 O292 1.252 . S
C289 O293 1.260 . S
C290 O297 1.240 . S
C290 O298 1.252 . S
C291 O294 1.252 . S
C291 O295 1.260 . S
O292 In286 2.266 . S
O292 C289 1.252 . S
O293 In286 2.326 . S
O293 C289 1.260 . S
O294 In286 2.266 . S
O294 C291 1.252 . S
O295 In286 2.326 . S
O295 C291 1.260 . S
C296 O287 1.240 . S
C296 O288 1.252 . S
O297 In286 2.294 . S
O297 C290 1.240 . S
O298 In286 2.326 . S
O298 C290 1.252 . S
In299 O300 2.294 . S
In299 O301 2.326 . S
In299 O305 2.266 . S
In299 O306 2.326 . S
In299 O307 2.266 . S
In299 O308 2.326 . S
In299 O310 2.294 . S
In299 O311 2.326 . S
O300 In299 2.294 . S
O300 C309 1.240 . S
O301 In299 2.326 . S
O301 C309 1.252 . S
C302 O305 1.252 . S
C302 O306 1.260 . S
C303 O310 1.240 . S
C303 O311 1.252 . S
C304 O307 1.252 . S
C304 O308 1.260 . S
O305 In299 2.266 . S
O305 C302 1.252 . S
O306 In299 2.326 . S
O306 C302 1.260 . S
O307 In299 2.266 . S
O307 C304 1.252 . S
O308 In299 2.326 . S
O308 C304 1.260 . S
C309 O300 1.240 . S
C309 O301 1.252 . S
O310 In299 2.294 . S
O310 C303 1.240 . S
O311 In299 2.326 . S
O311 C303 1.252 . S
In312 O313 2.294 . S
In312 O314 2.326 . S
In312 O318 2.266 . S
In312 O319 2.326 . S
In312 O320 2.266 . S
In312 O321 2.326 . S
In312 O323 2.294 . S
In312 O324 2.326 . S
O313 In312 2.294 . S
O313 C322 1.240 . S
O314 In312 2.326 . S
O314 C322 1.252 . S
C315 O318 1.252 . S
C315 O319 1.260 . S
C316 O323 1.240 . S
C316 O324 1.252 . S
C317 O320 1.252 . S
C317 O321 1.260 . S
O318 In312 2.266 . S
O318 C315 1.252 . S
O319 In312 2.326 . S
O319 C315 1.260 . S
O320 In312 2.266 . S
O320 C317 1.252 . S
O321 In312 2.326 . S
O321 C317 1.260 . S
C322 O313 1.240 . S
C322 O314 1.252 . S
O323 In312 2.294 . S
O323 C316 1.240 . S
O324 In312 2.326 . S
O324 C316 1.252 . S
In325 O326 2.294 . S
In325 O327 2.326 . S
In325 O331 2.266 . S
In325 O332 2.326 . S
In325 O333 2.266 . S
In325 O334 2.326 . S
In325 O336 2.294 . S
In325 O337 2.326 . S
O326 In325 2.294 . S
O326 C335 1.240 . S
O327 In325 2.326 . S
O327 C335 1.252 . S
C328 O331 1.252 . S
C328 O332 1.260 . S
C329 O336 1.240 . S
C329 O337 1.252 . S
C330 O333 1.252 . S
C330 O334 1.260 . S
O331 In325 2.266 . S
O331 C328 1.252 . S
O332 In325 2.326 . S
O332 C328 1.260 . S
O333 In325 2.266 . S
O333 C330 1.252 . S
O334 In325 2.326 . S
O334 C330 1.260 . S
C335 O326 1.240 . S
C335 O327 1.252 . S
O336 In325 2.294 . S
O336 C329 1.240 . S
O337 In325 2.326 . S
O337 C329 1.252 . S
In338 O339 2.294 . S
In338 O340 2.326 . S
In338 O344 2.266 . S
In338 O345 2.326 . S
In338 O346 2.266 . S
In338 O347 2.326 . S
In338 O349 2.294 . S
In338 O350 2.326 . S
O339 In338 2.294 . S
O339 C348 1.240 . S
O340 In338 2.326 . S
O340 C348 1.252 . S
C341 O344 1.252 . S
C341 O345 1.260 . S
C342 O349 1.240 . S
C342 O350 1.252 . S
C343 O346 1.252 . S
C343 O347 1.260 . S
O344 In338 2.266 . S
O344 C341 1.252 . S
O345 In338 2.326 . S
O345 C341 1.260 . S
O346 In338 2.266 . S
O346 C343 1.252 . S
O347 In338 2.326 . S
O347 C343 1.260 . S
C348 O339 1.240 . S
C348 O340 1.252 . S
O349 In338 2.294 . S
O349 C342 1.240 . S
O350 In338 2.326 . S
O350 C342 1.252 . S
In351 O352 2.294 . S
In351 O353 2.326 . S
In351 O357 2.266 . S
In351 O358 2.326 . S
In351 O359 2.266 . S
In351 O360 2.326 . S
In351 O362 2.294 . S
In351 O363 2.326 . S
O352 In351 2.294 . S
O352 C361 1.240 . S
O353 In351 2.326 . S
O353 C361 1.252 . S
C354 O357 1.252 . S
C354 O358 1.260 . S
C355 O362 1.240 . S
C355 O363 1.252 . S
C356 O359 1.252 . S
C356 O360 1.260 . S
O357 In351 2.266 . S
O357 C354 1.252 . S
O358 In351 2.326 . S
O358 C354 1.260 . S
O359 In351 2.266 . S
O359 C356 1.252 . S
O360 In351 2.326 . S
O360 C356 1.260 . S
C361 O352 1.240 . S
C361 O353 1.252 . S
O362 In351 2.294 . S
O362 C355 1.240 . S
O363 In351 2.326 . S
O363 C355 1.252 . S
In364 O365 2.294 . S
In364 O366 2.326 . S
In364 O370 2.266 . S
In364 O371 2.326 . S
In364 O372 2.266 . S
In364 O373 2.326 . S
In364 O375 2.294 . S
In364 O376 2.326 . S
O365 In364 2.294 . S
O365 C374 1.240 . S
O366 In364 2.326 . S
O366 C374 1.252 . S
C367 O370 1.252 . S
C367 O371 1.260 . S
C368 O375 1.240 . S
C368 O376 1.252 . S
C369 O372 1.252 . S
C369 O373 1.260 . S
O370 In364 2.266 . S
O370 C367 1.252 . S
O371 In364 2.326 . S
O371 C367 1.260 . S
O372 In364 2.266 . S
O372 C369 1.252 . S
O373 In364 2.326 . S
O373 C369 1.260 . S
C374 O365 1.240 . S
C374 O366 1.252 . S
O375 In364 2.294 . S
O375 C368 1.240 . S
O376 In364 2.326 . S
O376 C368 1.252 . S
In377 O378 2.294 . S
In377 O379 2.326 . S
In377 O383 2.266 . S
In377 O384 2.326 . S
In377 O385 2.266 . S
In377 O386 2.326 . S
In377 O388 2.294 . S
In377 O389 2.326 . S
O378 In377 2.294 . S
O378 C387 1.240 . S
O379 In377 2.326 . S
O379 C387 1.252 . S
C380 O383 1.252 . S
C380 O384 1.260 . S
C381 O388 1.240 . S
C381 O389 1.252 . S
C382 O385 1.252 . S
C382 O386 1.260 . S
O383 In377 2.266 . S
O383 C380 1.252 . S
O384 In377 2.326 . S
O384 C380 1.260 . S
O385 In377 2.266 . S
O385 C382 1.252 . S
O386 In377 2.326 . S
O386 C382 1.260 . S
C387 O378 1.240 . S
C387 O379 1.252 . S
O388 In377 2.294 . S
O388 C381 1.240 . S
O389 In377 2.326 . S
O389 C381 1.252 . S
In390 O391 2.294 . S
In390 O392 2.326 . S
In390 O396 2.266 . S
In390 O397 2.326 . S
In390 O398 2.266 . S
In390 O399 2.326 . S
In390 O401 2.294 . S
In390 O402 2.326 . S
O391 In390 2.294 . S
O391 C400 1.240 . S
O392 In390 2.326 . S
O392 C400 1.252 . S
C393 O396 1.252 . S
C393 O397 1.260 . S
C394 O401 1.240 . S
C394 O402 1.252 . S
C395 O398 1.252 . S
C395 O399 1.260 . S
O396 In390 2.266 . S
O396 C393 1.252 . S
O397 In390 2.326 . S
O397 C393 1.260 . S
O398 In390 2.266 . S
O398 C395 1.252 . S
O399 In390 2.326 . S
O399 C395 1.260 . S
C400 O391 1.240 . S
C400 O392 1.252 . S
O401 In390 2.294 . S
O401 C394 1.240 . S
O402 In390 2.326 . S
O402 C394 1.252 . S
In403 O404 2.294 . S
In403 O405 2.326 . S
In403 O409 2.266 . S
In403 O410 2.326 . S
In403 O411 2.266 . S
In403 O412 2.326 . S
In403 O414 2.294 . S
In403 O415 2.326 . S
O404 In403 2.294 . S
O404 C413 1.240 . S
O405 In403 2.326 . S
O405 C413 1.252 . S
C406 O409 1.252 . S
C406 O410 1.260 . S
C407 O414 1.240 . S
C407 O415 1.252 . S
C408 O411 1.252 . S
C408 O412 1.260 . S
O409 In403 2.266 . S
O409 C406 1.252 . S
O410 In403 2.326 . S
O410 C406 1.260 . S
O411 In403 2.266 . S
O411 C408 1.252 . S
O412 In403 2.326 . S
O412 C408 1.260 . S
C413 O404 1.240 . S
C413 O405 1.252 . S
O414 In403 2.294 . S
O414 C407 1.240 . S
O415 In403 2.326 . S
O415 C407 1.252 . S
In416 O417 2.294 . S
In416 O418 2.326 . S
In416 O422 2.266 . S
In416 O423 2.326 . S
In416 O424 2.266 . S
In416 O425 2.326 . S
In416 O427 2.294 . S
In416 O428 2.326 . S
O417 In416 2.294 . S
O417 C426 1.240 . S
O418 In416 2.326 . S
O418 C426 1.252 . S
C419 O422 1.252 . S
C419 O423 1.260 . S
C420 O427 1.240 . S
C420 O428 1.252 . S
C421 O424 1.252 . S
C421 O425 1.260 . S
O422 In416 2.266 . S
O422 C419 1.252 . S
O423 In416 2.326 . S
O423 C419 1.260 . S
O424 In416 2.266 . S
O424 C421 1.252 . S
O425 In416 2.326 . S
O425 C421 1.260 . S
C426 O417 1.240 . S
C426 O418 1.252 . S
O427 In416 2.294 . S
O427 C420 1.240 . S
O428 In416 2.326 . S
O428 C420 1.252 . S
In429 O430 2.294 . S
In429 O431 2.326 . S
In429 O435 2.266 . S
In429 O436 2.326 . S
In429 O437 2.266 . S
In429 O438 2.326 . S
In429 O440 2.294 . S
In429 O441 2.326 . S
O430 In429 2.294 . S
O430 C439 1.240 . S
O431 In429 2.326 . S
O431 C439 1.252 . S
C432 O435 1.252 . S
C432 O436 1.260 . S
C433 O440 1.240 . S
C433 O441 1.252 . S
C434 O437 1.252 . S
C434 O438 1.260 . S
O435 In429 2.266 . S
O435 C432 1.252 . S
O436 In429 2.326 . S
O436 C432 1.260 . S
O437 In429 2.266 . S
O437 C434 1.252 . S
O438 In429 2.326 . S
O438 C434 1.260 . S
C439 O430 1.240 . S
C439 O431 1.252 . S
O440 In429 2.294 . S
O440 C433 1.240 . S
O441 In429 2.326 . S
O441 C433 1.252 . S
In442 O443 2.294 . S
In442 O444 2.326 . S
In442 O448 2.266 . S
In442 O449 2.326 . S
In442 O450 2.266 . S
In442 O451 2.326 . S
In442 O453 2.294 . S
In442 O454 2.326 . S
O443 In442 2.294 . S
O443 C452 1.240 . S
O444 In442 2.326 . S
O444 C452 1.252 . S
C445 O448 1.252 . S
C445 O449 1.260 . S
C446 O453 1.240 . S
C446 O454 1.252 . S
C447 O450 1.252 . S
C447 O451 1.260 . S
O448 In442 2.266 . S
O448 C445 1.252 . S
O449 In442 2.326 . S
O449 C445 1.260 . S
O450 In442 2.266 . S
O450 C447 1.252 . S
O451 In442 2.326 . S
O451 C447 1.260 . S
C452 O443 1.240 . S
C452 O444 1.252 . S
O453 In442 2.294 . S
O453 C446 1.240 . S
O454 In442 2.326 . S
O454 C446 1.252 . S
In455 O456 2.294 . S
In455 O457 2.326 . S
In455 O461 2.266 . S
In455 O462 2.326 . S
In455 O463 2.266 . S
In455 O464 2.326 . S
In455 O466 2.294 . S
In455 O467 2.326 . S
O456 In455 2.294 . S
O456 C465 1.240 . S
O457 In455 2.326 . S
O457 C465 1.252 . S
C458 O461 1.252 . S
C458 O462 1.260 . S
C459 O466 1.240 . S
C459 O467 1.252 . S
C460 O463 1.252 . S
C460 O464 1.260 . S
O461 In455 2.266 . S
O461 C458 1.252 . S
O462 In455 2.326 . S
O462 C458 1.260 . S
O463 In455 2.266 . S
O463 C460 1.252 . S
O464 In455 2.326 . S
O464 C460 1.260 . S
C465 O456 1.240 . S
C465 O457 1.252 . S
O466 In455 2.294 . S
O466 C459 1.240 . S
O467 In455 2.326 . S
O467 C459 1.252 . S
In468 O469 2.294 . S
In468 O470 2.326 . S
In468 O474 2.266 . S
In468 O475 2.326 . S
In468 O476 2.266 . S
In468 O477 2.326 . S
In468 O479 2.294 . S
In468 O480 2.326 . S
O469 In468 2.294 . S
O469 C478 1.240 . S
O470 In468 2.326 . S
O470 C478 1.252 . S
C471 O474 1.252 . S
C471 O475 1.260 . S
C472 O479 1.240 . S
C472 O480 1.252 . S
C473 O476 1.252 . S
C473 O477 1.260 . S
O474 In468 2.266 . S
O474 C471 1.252 . S
O475 In468 2.326 . S
O475 C471 1.260 . S
O476 In468 2.266 . S
O476 C473 1.252 . S
O477 In468 2.326 . S
O477 C473 1.260 . S
C478 O469 1.240 . S
C478 O470 1.252 . S
O479 In468 2.294 . S
O479 C472 1.240 . S
O480 In468 2.326 . S
O480 C472 1.252 . S
In481 O482 2.294 . S
In481 O483 2.326 . S
In481 O487 2.266 . S
In481 O488 2.326 . S
In481 O489 2.266 . S
In481 O490 2.326 . S
In481 O492 2.294 . S
In481 O493 2.326 . S
O482 In481 2.294 . S
O482 C491 1.240 . S
O483 In481 2.326 . S
O483 C491 1.252 . S
C484 O487 1.252 . S
C484 O488 1.260 . S
C485 O492 1.240 . S
C485 O493 1.252 . S
C486 O489 1.252 . S
C486 O490 1.260 . S
O487 In481 2.266 . S
O487 C484 1.252 . S
O488 In481 2.326 . S
O488 C484 1.260 . S
O489 In481 2.266 . S
O489 C486 1.252 . S
O490 In481 2.326 . S
O490 C486 1.260 . S
C491 O482 1.240 . S
C491 O483 1.252 . S
O492 In481 2.294 . S
O492 C485 1.240 . S
O493 In481 2.326 . S
O493 C485 1.252 . S
In494 O495 2.294 . S
In494 O496 2.326 . S
In494 O500 2.266 . S
In494 O501 2.326 . S
In494 O502 2.266 . S
In494 O503 2.326 . S
In494 O505 2.294 . S
In494 O506 2.326 . S
O495 In494 2.294 . S
O495 C504 1.240 . S
O496 In494 2.326 . S
O496 C504 1.252 . S
C497 O500 1.252 . S
C497 O501 1.260 . S
C498 O505 1.240 . S
C498 O506 1.252 . S
C499 O502 1.252 . S
C499 O503 1.260 . S
O500 In494 2.266 . S
O500 C497 1.252 . S
O501 In494 2.326 . S
O501 C497 1.260 . S
O502 In494 2.266 . S
O502 C499 1.252 . S
O503 In494 2.326 . S
O503 C499 1.260 . S
C504 O495 1.240 . S
C504 O496 1.252 . S
O505 In494 2.294 . S
O505 C498 1.240 . S
O506 In494 2.326 . S
O506 C498 1.252 . S
In507 O508 2.294 . S
In507 O509 2.326 . S
In507 O513 2.266 . S
In507 O514 2.326 . S
In507 O515 2.266 . S
In507 O516 2.326 . S
In507 O518 2.294 . S
In507 O519 2.326 . S
O508 In507 2.294 . S
O508 C517 1.240 . S
O509 In507 2.326 . S
O509 C517 1.252 . S
C510 O513 1.252 . S
C510 O514 1.260 . S
C511 O518 1.240 . S
C511 O519 1.252 . S
C512 O515 1.252 . S
C512 O516 1.260 . S
O513 In507 2.266 . S
O513 C510 1.252 . S
O514 In507 2.326 . S
O514 C510 1.260 . S
O515 In507 2.266 . S
O515 C512 1.252 . S
O516 In507 2.326 . S
O516 C512 1.260 . S
C517 O508 1.240 . S
C517 O509 1.252 . S
O518 In507 2.294 . S
O518 C511 1.240 . S
O519 In507 2.326 . S
O519 C511 1.252 . S
In520 O521 2.294 . S
In520 O522 2.326 . S
In520 O526 2.266 . S
In520 O527 2.326 . S
In520 O528 2.266 . S
In520 O529 2.326 . S
In520 O531 2.294 . S
In520 O532 2.326 . S
O521 In520 2.294 . S
O521 C530 1.240 . S
O522 In520 2.326 . S
O522 C530 1.252 . S
C523 O526 1.252 . S
C523 O527 1.260 . S
C524 O531 1.240 . S
C524 O532 1.252 . S
C525 O528 1.252 . S
C525 O529 1.260 . S
O526 In520 2.266 . S
O526 C523 1.252 . S
O527 In520 2.326 . S
O527 C523 1.260 . S
O528 In520 2.266 . S
O528 C525 1.252 . S
O529 In520 2.326 . S
O529 C525 1.260 . S
C530 O521 1.240 . S
C530 O522 1.252 . S
O531 In520 2.294 . S
O531 C524 1.240 . S
O532 In520 2.326 . S
O532 C524 1.252 . S
In533 O534 2.294 . S
In533 O535 2.326 . S
In533 O539 2.266 . S
In533 O540 2.326 . S
In533 O541 2.266 . S
In533 O542 2.326 . S
In533 O544 2.294 . S
In533 O545 2.326 . S
O534 In533 2.294 . S
O534 C543 1.240 . S
O535 In533 2.326 . S
O535 C543 1.252 . S
C536 O539 1.252 . S
C536 O540 1.260 . S
C537 O544 1.240 . S
C537 O545 1.252 . S
C538 O541 1.252 . S
C538 O542 1.260 . S
O539 In533 2.266 . S
O539 C536 1.252 . S
O540 In533 2.326 . S
O540 C536 1.260 . S
O541 In533 2.266 . S
O541 C538 1.252 . S
O542 In533 2.326 . S
O542 C538 1.260 . S
C543 O534 1.240 . S
C543 O535 1.252 . S
O544 In533 2.294 . S
O544 C537 1.240 . S
O545 In533 2.326 . S
O545 C537 1.252 . S
In546 O547 2.294 . S
In546 O548 2.326 . S
In546 O552 2.266 . S
In546 O553 2.326 . S
In546 O554 2.266 . S
In546 O555 2.326 . S
In546 O557 2.294 . S
In546 O558 2.326 . S
O547 In546 2.294 . S
O547 C556 1.240 . S
O548 In546 2.326 . S
O548 C556 1.252 . S
C549 O552 1.252 . S
C549 O553 1.260 . S
C550 O557 1.240 . S
C550 O558 1.252 . S
C551 O554 1.252 . S
C551 O555 1.260 . S
O552 In546 2.266 . S
O552 C549 1.252 . S
O553 In546 2.326 . S
O553 C549 1.260 . S
O554 In546 2.266 . S
O554 C551 1.252 . S
O555 In546 2.326 . S
O555 C551 1.260 . S
C556 O547 1.240 . S
C556 O548 1.252 . S
O557 In546 2.294 . S
O557 C550 1.240 . S
O558 In546 2.326 . S
O558 C550 1.252 . S
In559 O560 2.294 . S
In559 O561 2.326 . S
In559 O565 2.266 . S
In559 O566 2.326 . S
In559 O567 2.266 . S
In559 O568 2.326 . S
In559 O570 2.294 . S
In559 O571 2.326 . S
O560 In559 2.294 . S
O560 C569 1.240 . S
O561 In559 2.326 . S
O561 C569 1.252 . S
C562 O565 1.252 . S
C562 O566 1.260 . S
C563 O570 1.240 . S
C563 O571 1.252 . S
C564 O567 1.252 . S
C564 O568 1.260 . S
O565 In559 2.266 . S
O565 C562 1.252 . S
O566 In559 2.326 . S
O566 C562 1.260 . S
O567 In559 2.266 . S
O567 C564 1.252 . S
O568 In559 2.326 . S
O568 C564 1.260 . S
C569 O560 1.240 . S
C569 O561 1.252 . S
O570 In559 2.294 . S
O570 C563 1.240 . S
O571 In559 2.326 . S
O571 C563 1.252 . S
In572 O573 2.294 . S
In572 O574 2.326 . S
In572 O578 2.266 . S
In572 O579 2.326 . S
In572 O580 2.266 . S
In572 O581 2.326 . S
In572 O583 2.294 . S
In572 O584 2.326 . S
O573 In572 2.294 . S
O573 C582 1.240 . S
O574 In572 2.326 . S
O574 C582 1.252 . S
C575 O578 1.252 . S
C575 O579 1.260 . S
C576 O583 1.240 . S
C576 O584 1.252 . S
C577 O580 1.252 . S
C577 O581 1.260 . S
O578 In572 2.266 . S
O578 C575 1.252 . S
O579 In572 2.326 . S
O579 C575 1.260 . S
O580 In572 2.266 . S
O580 C577 1.252 . S
O581 In572 2.326 . S
O581 C577 1.260 . S
C582 O573 1.240 . S
C582 O574 1.252 . S
O583 In572 2.294 . S
O583 C576 1.240 . S
O584 In572 2.326 . S
O584 C576 1.252 . S
In585 O586 2.294 . S
In585 O587 2.326 . S
In585 O591 2.266 . S
In585 O592 2.326 . S
In585 O593 2.266 . S
In585 O594 2.326 . S
In585 O596 2.294 . S
In585 O597 2.326 . S
O586 In585 2.294 . S
O586 C595 1.240 . S
O587 In585 2.326 . S
O587 C595 1.252 . S
C588 O591 1.252 . S
C588 O592 1.260 . S
C589 O596 1.240 . S
C589 O597 1.252 . S
C590 O593 1.252 . S
C590 O594 1.260 . S
O591 In585 2.266 . S
O591 C588 1.252 . S
O592 In585 2.326 . S
O592 C588 1.260 . S
O593 In585 2.266 . S
O593 C590 1.252 . S
O594 In585 2.326 . S
O594 C590 1.260 . S
C595 O586 1.240 . S
C595 O587 1.252 . S
O596 In585 2.294 . S
O596 C589 1.240 . S
O597 In585 2.326 . S
O597 C589 1.252 . S
In598 O599 2.294 . S
In598 O600 2.326 . S
In598 O604 2.266 . S
In598 O605 2.326 . S
In598 O606 2.266 . S
In598 O607 2.326 . S
In598 O609 2.294 . S
In598 O610 2.326 . S
O599 In598 2.294 . S
O599 C608 1.240 . S
O600 In598 2.326 . S
O600 C608 1.252 . S
C601 O604 1.252 . S
C601 O605 1.260 . S
C602 O609 1.240 . S
C602 O610 1.252 . S
C603 O606 1.252 . S
C603 O607 1.260 . S
O604 In598 2.266 . S
O604 C601 1.252 . S
O605 In598 2.326 . S
O605 C601 1.260 . S
O606 In598 2.266 . S
O606 C603 1.252 . S
O607 In598 2.326 . S
O607 C603 1.260 . S
C608 O599 1.240 . S
C608 O600 1.252 . S
O609 In598 2.294 . S
O609 C602 1.240 . S
O610 In598 2.326 . S
O610 C602 1.252 . S
In611 O612 2.294 . S
In611 O613 2.326 . S
In611 O617 2.266 . S
In611 O618 2.326 . S
In611 O619 2.266 . S
In611 O620 2.326 . S
In611 O622 2.294 . S
In611 O623 2.326 . S
O612 In611 2.294 . S
O612 C621 1.240 . S
O613 In611 2.326 . S
O613 C621 1.252 . S
C614 O617 1.252 . S
C614 O618 1.260 . S
C615 O622 1.240 . S
C615 O623 1.252 . S
C616 O619 1.252 . S
C616 O620 1.260 . S
O617 In611 2.266 . S
O617 C614 1.252 . S
O618 In611 2.326 . S
O618 C614 1.260 . S
O619 In611 2.266 . S
O619 C616 1.252 . S
O620 In611 2.326 . S
O620 C616 1.260 . S
C621 O612 1.240 . S
C621 O613 1.252 . S
O622 In611 2.294 . S
O622 C615 1.240 . S
O623 In611 2.326 . S
O623 C615 1.252 . S
In624 O625 2.294 . S
In624 O626 2.326 . S
In624 O630 2.266 . S
In624 O631 2.326 . S
In624 O632 2.266 . S
In624 O633 2.326 . S
In624 O635 2.294 . S
In624 O636 2.326 . S
O625 In624 2.294 . S
O625 C634 1.240 . S
O626 In624 2.326 . S
O626 C634 1.252 . S
C627 O630 1.252 . S
C627 O631 1.260 . S
C628 O635 1.240 . S
C628 O636 1.252 . S
C629 O632 1.252 . S
C629 O633 1.260 . S
O630 In624 2.266 . S
O630 C627 1.252 . S
O631 In624 2.326 . S
O631 C627 1.260 . S
O632 In624 2.266 . S
O632 C629 1.252 . S
O633 In624 2.326 . S
O633 C629 1.260 . S
C634 O625 1.240 . S
C634 O626 1.252 . S
O635 In624 2.294 . S
O635 C628 1.240 . S
O636 In624 2.326 . S
O636 C628 1.252 . S
In637 O638 2.294 . S
In637 O639 2.326 . S
In637 O643 2.266 . S
In637 O644 2.326 . S
In637 O645 2.266 . S
In637 O646 2.326 . S
In637 O648 2.294 . S
In637 O649 2.326 . S
O638 In637 2.294 . S
O638 C647 1.240 . S
O639 In637 2.326 . S
O639 C647 1.252 . S
C640 O643 1.252 . S
C640 O644 1.260 . S
C641 O648 1.240 . S
C641 O649 1.252 . S
C642 O645 1.252 . S
C642 O646 1.260 . S
O643 In637 2.266 . S
O643 C640 1.252 . S
O644 In637 2.326 . S
O644 C640 1.260 . S
O645 In637 2.266 . S
O645 C642 1.252 . S
O646 In637 2.326 . S
O646 C642 1.260 . S
C647 O638 1.240 . S
C647 O639 1.252 . S
O648 In637 2.294 . S
O648 C641 1.240 . S
O649 In637 2.326 . S
O649 C641 1.252 . S
In650 O651 2.294 . S
In650 O652 2.326 . S
In650 O656 2.266 . S
In650 O657 2.326 . S
In650 O658 2.266 . S
In650 O659 2.326 . S
In650 O661 2.294 . S
In650 O662 2.326 . S
O651 In650 2.294 . S
O651 C660 1.240 . S
O652 In650 2.326 . S
O652 C660 1.252 . S
C653 O656 1.252 . S
C653 O657 1.260 . S
C654 O661 1.240 . S
C654 O662 1.252 . S
C655 O658 1.252 . S
C655 O659 1.260 . S
O656 In650 2.266 . S
O656 C653 1.252 . S
O657 In650 2.326 . S
O657 C653 1.260 . S
O658 In650 2.266 . S
O658 C655 1.252 . S
O659 In650 2.326 . S
O659 C655 1.260 . S
C660 O651 1.240 . S
C660 O652 1.252 . S
O661 In650 2.294 . S
O661 C654 1.240 . S
O662 In650 2.326 . S
O662 C654 1.252 . S
In663 O664 2.294 . S
In663 O665 2.326 . S
In663 O669 2.266 . S
In663 O670 2.326 . S
In663 O671 2.266 . S
In663 O672 2.326 . S
In663 O674 2.294 . S
In663 O675 2.326 . S
O664 In663 2.294 . S
O664 C673 1.240 . S
O665 In663 2.326 . S
O665 C673 1.252 . S
C666 O669 1.252 . S
C666 O670 1.260 . S
C667 O674 1.240 . S
C667 O675 1.252 . S
C668 O671 1.252 . S
C668 O672 1.260 . S
O669 In663 2.266 . S
O669 C666 1.252 . S
O670 In663 2.326 . S
O670 C666 1.260 . S
O671 In663 2.266 . S
O671 C668 1.252 . S
O672 In663 2.326 . S
O672 C668 1.260 . S
C673 O664 1.240 . S
C673 O665 1.252 . S
O674 In663 2.294 . S
O674 C667 1.240 . S
O675 In663 2.326 . S
O675 C667 1.252 . S
In676 O677 2.294 . S
In676 O678 2.326 . S
In676 O682 2.266 . S
In676 O683 2.326 . S
In676 O684 2.266 . S
In676 O685 2.326 . S
In676 O687 2.294 . S
In676 O688 2.326 . S
O677 In676 2.294 . S
O677 C686 1.240 . S
O678 In676 2.326 . S
O678 C686 1.252 . S
C679 O682 1.252 . S
C679 O683 1.260 . S
C680 O687 1.240 . S
C680 O688 1.252 . S
C681 O684 1.252 . S
C681 O685 1.260 . S
O682 In676 2.266 . S
O682 C679 1.252 . S
O683 In676 2.326 . S
O683 C679 1.260 . S
O684 In676 2.266 . S
O684 C681 1.252 . S
O685 In676 2.326 . S
O685 C681 1.260 . S
C686 O677 1.240 . S
C686 O678 1.252 . S
O687 In676 2.294 . S
O687 C680 1.240 . S
O688 In676 2.326 . S
O688 C680 1.252 . S
In689 O690 2.294 . S
In689 O691 2.326 . S
In689 O695 2.266 . S
In689 O696 2.326 . S
In689 O697 2.266 . S
In689 O698 2.326 . S
In689 O700 2.294 . S
In689 O701 2.326 . S
O690 In689 2.294 . S
O690 C699 1.240 . S
O691 In689 2.326 . S
O691 C699 1.252 . S
C692 O695 1.252 . S
C692 O696 1.260 . S
C693 O700 1.240 . S
C693 O701 1.252 . S
C694 O697 1.252 . S
C694 O698 1.260 . S
O695 In689 2.266 . S
O695 C692 1.252 . S
O696 In689 2.326 . S
O696 C692 1.260 . S
O697 In689 2.266 . S
O697 C694 1.252 . S
O698 In689 2.326 . S
O698 C694 1.260 . S
C699 O690 1.240 . S
C699 O691 1.252 . S
O700 In689 2.294 . S
O700 C693 1.240 . S
O701 In689 2.326 . S
O701 C693 1.252 . S
In702 O703 2.294 . S
In702 O704 2.326 . S
In702 O708 2.266 . S
In702 O709 2.326 . S
In702 O710 2.266 . S
In702 O711 2.326 . S
In702 O713 2.294 . S
In702 O714 2.326 . S
O703 In702 2.294 . S
O703 C712 1.240 . S
O704 In702 2.326 . S
O704 C712 1.252 . S
C705 O708 1.252 . S
C705 O709 1.260 . S
C706 O713 1.240 . S
C706 O714 1.252 . S
C707 O710 1.252 . S
C707 O711 1.260 . S
O708 In702 2.266 . S
O708 C705 1.252 . S
O709 In702 2.326 . S
O709 C705 1.260 . S
O710 In702 2.266 . S
O710 C707 1.252 . S
O711 In702 2.326 . S
O711 C707 1.260 . S
C712 O703 1.240 . S
C712 O704 1.252 . S
O713 In702 2.294 . S
O713 C706 1.240 . S
O714 In702 2.326 . S
O714 C706 1.252 . S
In715 O716 2.294 . S
In715 O717 2.326 . S
In715 O721 2.266 . S
In715 O722 2.326 . S
In715 O723 2.266 . S
In715 O724 2.326 . S
In715 O726 2.294 . S
In715 O727 2.326 . S
O716 In715 2.294 . S
O716 C725 1.240 . S
O717 In715 2.326 . S
O717 C725 1.252 . S
C718 O721 1.252 . S
C718 O722 1.260 . S
C719 O726 1.240 . S
C719 O727 1.252 . S
C720 O723 1.252 . S
C720 O724 1.260 . S
O721 In715 2.266 . S
O721 C718 1.252 . S
O722 In715 2.326 . S
O722 C718 1.260 . S
O723 In715 2.266 . S
O723 C720 1.252 . S
O724 In715 2.326 . S
O724 C720 1.260 . S
C725 O716 1.240 . S
C725 O717 1.252 . S
O726 In715 2.294 . S
O726 C719 1.240 . S
O727 In715 2.326 . S
O727 C719 1.252 . S
In728 O729 2.294 . S
In728 O730 2.326 . S
In728 O734 2.266 . S
In728 O735 2.326 . S
In728 O736 2.266 . S
In728 O737 2.326 . S
In728 O739 2.294 . S
In728 O740 2.326 . S
O729 In728 2.294 . S
O729 C738 1.240 . S
O730 In728 2.326 . S
O730 C738 1.252 . S
C731 O734 1.252 . S
C731 O735 1.260 . S
C732 O739 1.240 . S
C732 O740 1.252 . S
C733 O736 1.252 . S
C733 O737 1.260 . S
O734 In728 2.266 . S
O734 C731 1.252 . S
O735 In728 2.326 . S
O735 C731 1.260 . S
O736 In728 2.266 . S
O736 C733 1.252 . S
O737 In728 2.326 . S
O737 C733 1.260 . S
C738 O729 1.240 . S
C738 O730 1.252 . S
O739 In728 2.294 . S
O739 C732 1.240 . S
O740 In728 2.326 . S
O740 C732 1.252 . S
In741 O742 2.294 . S
In741 O743 2.326 . S
In741 O747 2.266 . S
In741 O748 2.326 . S
In741 O749 2.266 . S
In741 O750 2.326 . S
In741 O752 2.294 . S
In741 O753 2.326 . S
O742 In741 2.294 . S
O742 C751 1.240 . S
O743 In741 2.326 . S
O743 C751 1.252 . S
C744 O747 1.252 . S
C744 O748 1.260 . S
C745 O752 1.240 . S
C745 O753 1.252 . S
C746 O749 1.252 . S
C746 O750 1.260 . S
O747 In741 2.266 . S
O747 C744 1.252 . S
O748 In741 2.326 . S
O748 C744 1.260 . S
O749 In741 2.266 . S
O749 C746 1.252 . S
O750 In741 2.326 . S
O750 C746 1.260 . S
C751 O742 1.240 . S
C751 O743 1.252 . S
O752 In741 2.294 . S
O752 C745 1.240 . S
O753 In741 2.326 . S
O753 C745 1.252 . S
In754 O755 2.294 . S
In754 O756 2.326 . S
In754 O760 2.266 . S
In754 O761 2.326 . S
In754 O762 2.266 . S
In754 O763 2.326 . S
In754 O765 2.294 . S
In754 O766 2.326 . S
O755 In754 2.294 . S
O755 C764 1.240 . S
O756 In754 2.326 . S
O756 C764 1.252 . S
C757 O760 1.252 . S
C757 O761 1.260 . S
C758 O765 1.240 . S
C758 O766 1.252 . S
C759 O762 1.252 . S
C759 O763 1.260 . S
O760 In754 2.266 . S
O760 C757 1.252 . S
O761 In754 2.326 . S
O761 C757 1.260 . S
O762 In754 2.266 . S
O762 C759 1.252 . S
O763 In754 2.326 . S
O763 C759 1.260 . S
C764 O755 1.240 . S
C764 O756 1.252 . S
O765 In754 2.294 . S
O765 C758 1.240 . S
O766 In754 2.326 . S
O766 C758 1.252 . S
In767 O768 2.294 . S
In767 O769 2.326 . S
In767 O773 2.266 . S
In767 O774 2.326 . S
In767 O775 2.266 . S
In767 O776 2.326 . S
In767 O778 2.294 . S
In767 O779 2.326 . S
O768 In767 2.294 . S
O768 C777 1.240 . S
O769 In767 2.326 . S
O769 C777 1.252 . S
C770 O773 1.252 . S
C770 O774 1.260 . S
C771 O778 1.240 . S
C771 O779 1.252 . S
C772 O775 1.252 . S
C772 O776 1.260 . S
O773 In767 2.266 . S
O773 C770 1.252 . S
O774 In767 2.326 . S
O774 C770 1.260 . S
O775 In767 2.266 . S
O775 C772 1.252 . S
O776 In767 2.326 . S
O776 C772 1.260 . S
C777 O768 1.240 . S
C777 O769 1.252 . S
O778 In767 2.294 . S
O778 C771 1.240 . S
O779 In767 2.326 . S
O779 C771 1.252 . S
In780 O781 2.294 . S
In780 O782 2.326 . S
In780 O786 2.266 . S
In780 O787 2.326 . S
In780 O788 2.266 . S
In780 O789 2.326 . S
In780 O791 2.294 . S
In780 O792 2.326 . S
O781 In780 2.294 . S
O781 C790 1.240 . S
O782 In780 2.326 . S
O782 C790 1.252 . S
C783 O786 1.252 . S
C783 O787 1.260 . S
C784 O791 1.240 . S
C784 O792 1.252 . S
C785 O788 1.252 . S
C785 O789 1.260 . S
O786 In780 2.266 . S
O786 C783 1.252 . S
O787 In780 2.326 . S
O787 C783 1.260 . S
O788 In780 2.266 . S
O788 C785 1.252 . S
O789 In780 2.326 . S
O789 C785 1.260 . S
C790 O781 1.240 . S
C790 O782 1.252 . S
O791 In780 2.294 . S
O791 C784 1.240 . S
O792 In780 2.326 . S
O792 C784 1.252 . S
In793 O794 2.294 . S
In793 O795 2.326 . S
In793 O799 2.266 . S
In793 O800 2.326 . S
In793 O801 2.266 . S
In793 O802 2.326 . S
In793 O804 2.294 . S
In793 O805 2.326 . S
O794 In793 2.294 . S
O794 C803 1.240 . S
O795 In793 2.326 . S
O795 C803 1.252 . S
C796 O799 1.252 . S
C796 O800 1.260 . S
C797 O804 1.240 . S
C797 O805 1.252 . S
C798 O801 1.252 . S
C798 O802 1.260 . S
O799 In793 2.266 . S
O799 C796 1.252 . S
O800 In793 2.326 . S
O800 C796 1.260 . S
O801 In793 2.266 . S
O801 C798 1.252 . S
O802 In793 2.326 . S
O802 C798 1.260 . S
C803 O794 1.240 . S
C803 O795 1.252 . S
O804 In793 2.294 . S
O804 C797 1.240 . S
O805 In793 2.326 . S
O805 C797 1.252 . S
In806 O807 2.294 . S
In806 O808 2.326 . S
In806 O812 2.266 . S
In806 O813 2.326 . S
In806 O814 2.266 . S
In806 O815 2.326 . S
In806 O817 2.294 . S
In806 O818 2.326 . S
O807 In806 2.294 . S
O807 C816 1.240 . S
O808 In806 2.326 . S
O808 C816 1.252 . S
C809 O812 1.252 . S
C809 O813 1.260 . S
C810 O817 1.240 . S
C810 O818 1.252 . S
C811 O814 1.252 . S
C811 O815 1.260 . S
O812 In806 2.266 . S
O812 C809 1.252 . S
O813 In806 2.326 . S
O813 C809 1.260 . S
O814 In806 2.266 . S
O814 C811 1.252 . S
O815 In806 2.326 . S
O815 C811 1.260 . S
C816 O807 1.240 . S
C816 O808 1.252 . S
O817 In806 2.294 . S
O817 C810 1.240 . S
O818 In806 2.326 . S
O818 C810 1.252 . S
In819 O820 2.294 . S
In819 O821 2.326 . S
In819 O825 2.266 . S
In819 O826 2.326 . S
In819 O827 2.266 . S
In819 O828 2.326 . S
In819 O830 2.294 . S
In819 O831 2.326 . S
O820 In819 2.294 . S
O820 C829 1.240 . S
O821 In819 2.326 . S
O821 C829 1.252 . S
C822 O825 1.252 . S
C822 O826 1.260 . S
C823 O830 1.240 . S
C823 O831 1.252 . S
C824 O827 1.252 . S
C824 O828 1.260 . S
O825 In819 2.266 . S
O825 C822 1.252 . S
O826 In819 2.326 . S
O826 C822 1.260 . S
O827 In819 2.266 . S
O827 C824 1.252 . S
O828 In819 2.326 . S
O828 C824 1.260 . S
C829 O820 1.240 . S
C829 O821 1.252 . S
O830 In819 2.294 . S
O830 C823 1.240 . S
O831 In819 2.326 . S
O831 C823 1.252 . S
In832 O833 2.294 . S
In832 O834 2.326 . S
In832 O838 2.266 . S
In832 O839 2.326 . S
In832 O840 2.266 . S
In832 O841 2.326 . S
In832 O843 2.294 . S
In832 O844 2.326 . S
O833 In832 2.294 . S
O833 C842 1.240 . S
O834 In832 2.326 . S
O834 C842 1.252 . S
C835 O838 1.252 . S
C835 O839 1.260 . S
C836 O843 1.240 . S
C836 O844 1.252 . S
C837 O840 1.252 . S
C837 O841 1.260 . S
O838 In832 2.266 . S
O838 C835 1.252 . S
O839 In832 2.326 . S
O839 C835 1.260 . S
O840 In832 2.266 . S
O840 C837 1.252 . S
O841 In832 2.326 . S
O841 C837 1.260 . S
C842 O833 1.240 . S
C842 O834 1.252 . S
O843 In832 2.294 . S
O843 C836 1.240 . S
O844 In832 2.326 . S
O844 C836 1.252 . S
In845 O846 2.294 . S
In845 O847 2.326 . S
In845 O851 2.266 . S
In845 O852 2.326 . S
In845 O853 2.266 . S
In845 O854 2.326 . S
In845 O856 2.294 . S
In845 O857 2.326 . S
O846 In845 2.294 . S
O846 C855 1.240 . S
O847 In845 2.326 . S
O847 C855 1.252 . S
C848 O851 1.252 . S
C848 O852 1.260 . S
C849 O856 1.240 . S
C849 O857 1.252 . S
C850 O853 1.252 . S
C850 O854 1.260 . S
O851 In845 2.266 . S
O851 C848 1.252 . S
O852 In845 2.326 . S
O852 C848 1.260 . S
O853 In845 2.266 . S
O853 C850 1.252 . S
O854 In845 2.326 . S
O854 C850 1.260 . S
C855 O846 1.240 . S
C855 O847 1.252 . S
O856 In845 2.294 . S
O856 C849 1.240 . S
O857 In845 2.326 . S
O857 C849 1.252 . S
In858 O859 2.294 . S
In858 O860 2.326 . S
In858 O864 2.266 . S
In858 O865 2.326 . S
In858 O866 2.266 . S
In858 O867 2.326 . S
In858 O869 2.294 . S
In858 O870 2.326 . S
O859 In858 2.294 . S
O859 C868 1.240 . S
O860 In858 2.326 . S
O860 C868 1.252 . S
C861 O864 1.252 . S
C861 O865 1.260 . S
C862 O869 1.240 . S
C862 O870 1.252 . S
C863 O866 1.252 . S
C863 O867 1.260 . S
O864 In858 2.266 . S
O864 C861 1.252 . S
O865 In858 2.326 . S
O865 C861 1.260 . S
O866 In858 2.266 . S
O866 C863 1.252 . S
O867 In858 2.326 . S
O867 C863 1.260 . S
C868 O859 1.240 . S
C868 O860 1.252 . S
O869 In858 2.294 . S
O869 C862 1.240 . S
O870 In858 2.326 . S
O870 C862 1.252 . S
In871 O872 2.294 . S
In871 O873 2.326 . S
In871 O877 2.266 . S
In871 O878 2.326 . S
In871 O879 2.266 . S
In871 O880 2.326 . S
In871 O882 2.294 . S
In871 O883 2.326 . S
O872 In871 2.294 . S
O872 C881 1.240 . S
O873 In871 2.326 . S
O873 C881 1.252 . S
C874 O877 1.252 . S
C874 O878 1.260 . S
C875 O882 1.240 . S
C875 O883 1.252 . S
C876 O879 1.252 . S
C876 O880 1.260 . S
O877 In871 2.266 . S
O877 C874 1.252 . S
O878 In871 2.326 . S
O878 C874 1.260 . S
O879 In871 2.266 . S
O879 C876 1.252 . S
O880 In871 2.326 . S
O880 C876 1.260 . S
C881 O872 1.240 . S
C881 O873 1.252 . S
O882 In871 2.294 . S
O882 C875 1.240 . S
O883 In871 2.326 . S
O883 C875 1.252 . S
In884 O885 2.294 . S
In884 O886 2.326 . S
In884 O890 2.266 . S
In884 O891 2.326 . S
In884 O892 2.266 . S
In884 O893 2.326 . S
In884 O895 2.294 . S
In884 O896 2.326 . S
O885 In884 2.294 . S
O885 C894 1.240 . S
O886 In884 2.326 . S
O886 C894 1.252 . S
C887 O890 1.252 . S
C887 O891 1.260 . S
C888 O895 1.240 . S
C888 O896 1.252 . S
C889 O892 1.252 . S
C889 O893 1.260 . S
O890 In884 2.266 . S
O890 C887 1.252 . S
O891 In884 2.326 . S
O891 C887 1.260 . S
O892 In884 2.266 . S
O892 C889 1.252 . S
O893 In884 2.326 . S
O893 C889 1.260 . S
C894 O885 1.240 . S
C894 O886 1.252 . S
O895 In884 2.294 . S
O895 C888 1.240 . S
O896 In884 2.326 . S
O896 C888 1.252 . S
In897 O898 2.294 . S
In897 O899 2.326 . S
In897 O903 2.266 . S
In897 O904 2.326 . S
In897 O905 2.266 . S
In897 O906 2.326 . S
In897 O908 2.294 . S
In897 O909 2.326 . S
O898 In897 2.294 . S
O898 C907 1.240 . S
O899 In897 2.326 . S
O899 C907 1.252 . S
C900 O903 1.252 . S
C900 O904 1.260 . S
C901 O908 1.240 . S
C901 O909 1.252 . S
C902 O905 1.252 . S
C902 O906 1.260 . S
O903 In897 2.266 . S
O903 C900 1.252 . S
O904 In897 2.326 . S
O904 C900 1.260 . S
O905 In897 2.266 . S
O905 C902 1.252 . S
O906 In897 2.326 . S
O906 C902 1.260 . S
C907 O898 1.240 . S
C907 O899 1.252 . S
O908 In897 2.294 . S
O908 C901 1.240 . S
O909 In897 2.326 . S
O909 C901 1.252 . S
In910 O911 2.294 . S
In910 O912 2.326 . S
In910 O916 2.266 . S
In910 O917 2.326 . S
In910 O918 2.266 . S
In910 O919 2.326 . S
In910 O921 2.294 . S
In910 O922 2.326 . S
O911 In910 2.294 . S
O911 C920 1.240 . S
O912 In910 2.326 . S
O912 C920 1.252 . S
C913 O916 1.252 . S
C913 O917 1.260 . S
C914 O921 1.240 . S
C914 O922 1.252 . S
C915 O918 1.252 . S
C915 O919 1.260 . S
O916 In910 2.266 . S
O916 C913 1.252 . S
O917 In910 2.326 . S
O917 C913 1.260 . S
O918 In910 2.266 . S
O918 C915 1.252 . S
O919 In910 2.326 . S
O919 C915 1.260 . S
C920 O911 1.240 . S
C920 O912 1.252 . S
O921 In910 2.294 . S
O921 C914 1.240 . S
O922 In910 2.326 . S
O922 C914 1.252 . S
In923 O924 2.294 . S
In923 O925 2.326 . S
In923 O929 2.266 . S
In923 O930 2.326 . S
In923 O931 2.266 . S
In923 O932 2.326 . S
In923 O934 2.294 . S
In923 O935 2.326 . S
O924 In923 2.294 . S
O924 C933 1.240 . S
O925 In923 2.326 . S
O925 C933 1.252 . S
C926 O929 1.252 . S
C926 O930 1.260 . S
C927 O934 1.240 . S
C927 O935 1.252 . S
C928 O931 1.252 . S
C928 O932 1.260 . S
O929 In923 2.266 . S
O929 C926 1.252 . S
O930 In923 2.326 . S
O930 C926 1.260 . S
O931 In923 2.266 . S
O931 C928 1.252 . S
O932 In923 2.326 . S
O932 C928 1.260 . S
C933 O924 1.240 . S
C933 O925 1.252 . S
O934 In923 2.294 . S
O934 C927 1.240 . S
O935 In923 2.326 . S
O935 C927 1.252 . S
In936 O937 2.294 . S
In936 O938 2.326 . S
In936 O942 2.266 . S
In936 O943 2.326 . S
In936 O944 2.266 . S
In936 O945 2.326 . S
In936 O947 2.294 . S
In936 O948 2.326 . S
O937 In936 2.294 . S
O937 C946 1.240 . S
O938 In936 2.326 . S
O938 C946 1.252 . S
C939 O942 1.252 . S
C939 O943 1.260 . S
C940 O947 1.240 . S
C940 O948 1.252 . S
C941 O944 1.252 . S
C941 O945 1.260 . S
O942 In936 2.266 . S
O942 C939 1.252 . S
O943 In936 2.326 . S
O943 C939 1.260 . S
O944 In936 2.266 . S
O944 C941 1.252 . S
O945 In936 2.326 . S
O945 C941 1.260 . S
C946 O937 1.240 . S
C946 O938 1.252 . S
O947 In936 2.294 . S
O947 C940 1.240 . S
O948 In936 2.326 . S
O948 C940 1.252 . S
In949 O950 2.294 . S
In949 O951 2.326 . S
In949 O955 2.266 . S
In949 O956 2.326 . S
In949 O957 2.266 . S
In949 O958 2.326 . S
In949 O960 2.294 . S
In949 O961 2.326 . S
O950 In949 2.294 . S
O950 C959 1.240 . S
O951 In949 2.326 . S
O951 C959 1.252 . S
C952 O955 1.252 . S
C952 O956 1.260 . S
C953 O960 1.240 . S
C953 O961 1.252 . S
C954 O957 1.252 . S
C954 O958 1.260 . S
O955 In949 2.266 . S
O955 C952 1.252 . S
O956 In949 2.326 . S
O956 C952 1.260 . S
O957 In949 2.266 . S
O957 C954 1.252 . S
O958 In949 2.326 . S
O958 C954 1.260 . S
C959 O950 1.240 . S
C959 O951 1.252 . S
O960 In949 2.294 . S
O960 C953 1.240 . S
O961 In949 2.326 . S
O961 C953 1.252 . S
In962 O963 2.294 . S
In962 O964 2.326 . S
In962 O968 2.266 . S
In962 O969 2.326 . S
In962 O970 2.266 . S
In962 O971 2.326 . S
In962 O973 2.294 . S
In962 O974 2.326 . S
O963 In962 2.294 . S
O963 C972 1.240 . S
O964 In962 2.326 . S
O964 C972 1.252 . S
C965 O968 1.252 . S
C965 O969 1.260 . S
C966 O973 1.240 . S
C966 O974 1.252 . S
C967 O970 1.252 . S
C967 O971 1.260 . S
O968 In962 2.266 . S
O968 C965 1.252 . S
O969 In962 2.326 . S
O969 C965 1.260 . S
O970 In962 2.266 . S
O970 C967 1.252 . S
O971 In962 2.326 . S
O971 C967 1.260 . S
C972 O963 1.240 . S
C972 O964 1.252 . S
O973 In962 2.294 . S
O973 C966 1.240 . S
O974 In962 2.326 . S
O974 C966 1.252 . S
In975 O976 2.294 . S
In975 O977 2.326 . S
In975 O981 2.266 . S
In975 O982 2.326 . S
In975 O983 2.266 . S
In975 O984 2.326 . S
In975 O986 2.294 . S
In975 O987 2.326 . S
O976 In975 2.294 . S
O976 C985 1.240 . S
O977 In975 2.326 . S
O977 C985 1.252 . S
C978 O981 1.252 . S
C978 O982 1.260 . S
C979 O986 1.240 . S
C979 O987 1.252 . S
C980 O983 1.252 . S
C980 O984 1.260 . S
O981 In975 2.266 . S
O981 C978 1.252 . S
O982 In975 2.326 . S
O982 C978 1.260 . S
O983 In975 2.266 . S
O983 C980 1.252 . S
O984 In975 2.326 . S
O984 C980 1.260 . S
C985 O976 1.240 . S
C985 O977 1.252 . S
O986 In975 2.294 . S
O986 C979 1.240 . S
O987 In975 2.326 . S
O987 C979 1.252 . S
In988 O989 2.294 . S
In988 O990 2.326 . S
In988 O994 2.266 . S
In988 O995 2.326 . S
In988 O996 2.266 . S
In988 O997 2.326 . S
In988 O999 2.294 . S
In988 O1000 2.326 . S
O989 In988 2.294 . S
O989 C998 1.240 . S
O990 In988 2.326 . S
O990 C998 1.252 . S
C991 O994 1.252 . S
C991 O995 1.260 . S
C992 O999 1.240 . S
C992 O1000 1.252 . S
C993 O996 1.252 . S
C993 O997 1.260 . S
O994 In988 2.266 . S
O994 C991 1.252 . S
O995 In988 2.326 . S
O995 C991 1.260 . S
O996 In988 2.266 . S
O996 C993 1.252 . S
O997 In988 2.326 . S
O997 C993 1.260 . S
C998 O989 1.240 . S
C998 O990 1.252 . S
O999 In988 2.294 . S
O999 C992 1.240 . S
O1000 In988 2.326 . S
O1000 C992 1.252 . S
In1001 O1002 2.294 . S
In1001 O1003 2.326 . S
In1001 O1007 2.266 . S
In1001 O1008 2.326 . S
In1001 O1009 2.266 . S
In1001 O1010 2.326 . S
In1001 O1012 2.294 . S
In1001 O1013 2.326 . S
O1002 In1001 2.294 . S
O1002 C1011 1.240 . S
O1003 In1001 2.326 . S
O1003 C1011 1.252 . S
C1004 O1007 1.252 . S
C1004 O1008 1.260 . S
C1005 O1012 1.240 . S
C1005 O1013 1.252 . S
C1006 O1009 1.252 . S
C1006 O1010 1.260 . S
O1007 In1001 2.266 . S
O1007 C1004 1.252 . S
O1008 In1001 2.326 . S
O1008 C1004 1.260 . S
O1009 In1001 2.266 . S
O1009 C1006 1.252 . S
O1010 In1001 2.326 . S
O1010 C1006 1.260 . S
C1011 O1002 1.240 . S
C1011 O1003 1.252 . S
O1012 In1001 2.294 . S
O1012 C1005 1.240 . S
O1013 In1001 2.326 . S
O1013 C1005 1.252 . S
In1014 O1015 2.294 . S
In1014 O1016 2.326 . S
In1014 O1020 2.266 . S
In1014 O1021 2.326 . S
In1014 O1022 2.266 . S
In1014 O1023 2.326 . S
In1014 O1025 2.294 . S
In1014 O1026 2.326 . S
O1015 In1014 2.294 . S
O1015 C1024 1.240 . S
O1016 In1014 2.326 . S
O1016 C1024 1.252 . S
C1017 O1020 1.252 . S
C1017 O1021 1.260 . S
C1018 O1025 1.240 . S
C1018 O1026 1.252 . S
C1019 O1022 1.252 . S
C1019 O1023 1.260 . S
O1020 In1014 2.266 . S
O1020 C1017 1.252 . S
O1021 In1014 2.326 . S
O1021 C1017 1.260 . S
O1022 In1014 2.266 . S
O1022 C1019 1.252 . S
O1023 In1014 2.326 . S
O1023 C1019 1.260 . S
C1024 O1015 1.240 . S
C1024 O1016 1.252 . S
O1025 In1014 2.294 . S
O1025 C1018 1.240 . S
O1026 In1014 2.326 . S
O1026 C1018 1.252 . S
In1027 O1028 2.294 . S
In1027 O1029 2.326 . S
In1027 O1033 2.266 . S
In1027 O1034 2.326 . S
In1027 O1035 2.266 . S
In1027 O1036 2.326 . S
In1027 O1038 2.294 . S
In1027 O1039 2.326 . S
O1028 In1027 2.294 . S
O1028 C1037 1.240 . S
O1029 In1027 2.326 . S
O1029 C1037 1.252 . S
C1030 O1033 1.252 . S
C1030 O1034 1.260 . S
C1031 O1038 1.240 . S
C1031 O1039 1.252 . S
C1032 O1035 1.252 . S
C1032 O1036 1.260 . S
O1033 In1027 2.266 . S
O1033 C1030 1.252 . S
O1034 In1027 2.326 . S
O1034 C1030 1.260 . S
O1035 In1027 2.266 . S
O1035 C1032 1.252 . S
O1036 In1027 2.326 . S
O1036 C1032 1.260 . S
C1037 O1028 1.240 . S
C1037 O1029 1.252 . S
O1038 In1027 2.294 . S
O1038 C1031 1.240 . S
O1039 In1027 2.326 . S
O1039 C1031 1.252 . S
In1040 O1041 2.294 . S
In1040 O1042 2.326 . S
In1040 O1046 2.266 . S
In1040 O1047 2.326 . S
In1040 O1048 2.266 . S
In1040 O1049 2.326 . S
In1040 O1051 2.294 . S
In1040 O1052 2.326 . S
O1041 In1040 2.294 . S
O1041 C1050 1.240 . S
O1042 In1040 2.326 . S
O1042 C1050 1.252 . S
C1043 O1046 1.252 . S
C1043 O1047 1.260 . S
C1044 O1051 1.240 . S
C1044 O1052 1.252 . S
C1045 O1048 1.252 . S
C1045 O1049 1.260 . S
O1046 In1040 2.266 . S
O1046 C1043 1.252 . S
O1047 In1040 2.326 . S
O1047 C1043 1.260 . S
O1048 In1040 2.266 . S
O1048 C1045 1.252 . S
O1049 In1040 2.326 . S
O1049 C1045 1.260 . S
C1050 O1041 1.240 . S
C1050 O1042 1.252 . S
O1051 In1040 2.294 . S
O1051 C1044 1.240 . S
O1052 In1040 2.326 . S
O1052 C1044 1.252 . S
In1053 O1054 2.294 . S
In1053 O1055 2.326 . S
In1053 O1059 2.266 . S
In1053 O1060 2.326 . S
In1053 O1061 2.266 . S
In1053 O1062 2.326 . S
In1053 O1064 2.294 . S
In1053 O1065 2.326 . S
O1054 In1053 2.294 . S
O1054 C1063 1.240 . S
O1055 In1053 2.326 . S
O1055 C1063 1.252 . S
C1056 O1059 1.252 . S
C1056 O1060 1.260 . S
C1057 O1064 1.240 . S
C1057 O1065 1.252 . S
C1058 O1061 1.252 . S
C1058 O1062 1.260 . S
O1059 In1053 2.266 . S
O1059 C1056 1.252 . S
O1060 In1053 2.326 . S
O1060 C1056 1.260 . S
O1061 In1053 2.266 . S
O1061 C1058 1.252 . S
O1062 In1053 2.326 . S
O1062 C1058 1.260 . S
C1063 O1054 1.240 . S
C1063 O1055 1.252 . S
O1064 In1053 2.294 . S
O1064 C1057 1.240 . S
O1065 In1053 2.326 . S
O1065 C1057 1.252 . S
In1066 O1067 2.294 . S
In1066 O1068 2.326 . S
In1066 O1072 2.266 . S
In1066 O1073 2.326 . S
In1066 O1074 2.266 . S
In1066 O1075 2.326 . S
In1066 O1077 2.294 . S
In1066 O1078 2.326 . S
O1067 In1066 2.294 . S
O1067 C1076 1.240 . S
O1068 In1066 2.326 . S
O1068 C1076 1.252 . S
C1069 O1072 1.252 . S
C1069 O1073 1.260 . S
C1070 O1077 1.240 . S
C1070 O1078 1.252 . S
C1071 O1074 1.252 . S
C1071 O1075 1.260 . S
O1072 In1066 2.266 . S
O1072 C1069 1.252 . S
O1073 In1066 2.326 . S
O1073 C1069 1.260 . S
O1074 In1066 2.266 . S
O1074 C1071 1.252 . S
O1075 In1066 2.326 . S
O1075 C1071 1.260 . S
C1076 O1067 1.240 . S
C1076 O1068 1.252 . S
O1077 In1066 2.294 . S
O1077 C1070 1.240 . S
O1078 In1066 2.326 . S
O1078 C1070 1.252 . S
In1079 O1080 2.294 . S
In1079 O1081 2.326 . S
In1079 O1085 2.266 . S
In1079 O1086 2.326 . S
In1079 O1087 2.266 . S
In1079 O1088 2.326 . S
In1079 O1090 2.294 . S
In1079 O1091 2.326 . S
O1080 In1079 2.294 . S
O1080 C1089 1.240 . S
O1081 In1079 2.326 . S
O1081 C1089 1.252 . S
C1082 O1085 1.252 . S
C1082 O1086 1.260 . S
C1083 O1090 1.240 . S
C1083 O1091 1.252 . S
C1084 O1087 1.252 . S
C1084 O1088 1.260 . S
O1085 In1079 2.266 . S
O1085 C1082 1.252 . S
O1086 In1079 2.326 . S
O1086 C1082 1.260 . S
O1087 In1079 2.266 . S
O1087 C1084 1.252 . S
O1088 In1079 2.326 . S
O1088 C1084 1.260 . S
C1089 O1080 1.240 . S
C1089 O1081 1.252 . S
O1090 In1079 2.294 . S
O1090 C1083 1.240 . S
O1091 In1079 2.326 . S
O1091 C1083 1.252 . S
In1092 O1093 2.294 . S
In1092 O1094 2.326 . S
In1092 O1098 2.266 . S
In1092 O1099 2.326 . S
In1092 O1100 2.266 . S
In1092 O1101 2.326 . S
In1092 O1103 2.294 . S
In1092 O1104 2.326 . S
O1093 In1092 2.294 . S
O1093 C1102 1.240 . S
O1094 In1092 2.326 . S
O1094 C1102 1.252 . S
C1095 O1098 1.252 . S
C1095 O1099 1.260 . S
C1096 O1103 1.240 . S
C1096 O1104 1.252 . S
C1097 O1100 1.252 . S
C1097 O1101 1.260 . S
O1098 In1092 2.266 . S
O1098 C1095 1.252 . S
O1099 In1092 2.326 . S
O1099 C1095 1.260 . S
O1100 In1092 2.266 . S
O1100 C1097 1.252 . S
O1101 In1092 2.326 . S
O1101 C1097 1.260 . S
C1102 O1093 1.240 . S
C1102 O1094 1.252 . S
O1103 In1092 2.294 . S
O1103 C1096 1.240 . S
O1104 In1092 2.326 . S
O1104 C1096 1.252 . S
In1105 O1106 2.294 . S
In1105 O1107 2.326 . S
In1105 O1111 2.266 . S
In1105 O1112 2.326 . S
In1105 O1113 2.266 . S
In1105 O1114 2.326 . S
In1105 O1116 2.294 . S
In1105 O1117 2.326 . S
O1106 In1105 2.294 . S
O1106 C1115 1.240 . S
O1107 In1105 2.326 . S
O1107 C1115 1.252 . S
C1108 O1111 1.252 . S
C1108 O1112 1.260 . S
C1109 O1116 1.240 . S
C1109 O1117 1.252 . S
C1110 O1113 1.252 . S
C1110 O1114 1.260 . S
O1111 In1105 2.266 . S
O1111 C1108 1.252 . S
O1112 In1105 2.326 . S
O1112 C1108 1.260 . S
O1113 In1105 2.266 . S
O1113 C1110 1.252 . S
O1114 In1105 2.326 . S
O1114 C1110 1.260 . S
C1115 O1106 1.240 . S
C1115 O1107 1.252 . S
O1116 In1105 2.294 . S
O1116 C1109 1.240 . S
O1117 In1105 2.326 . S
O1117 C1109 1.252 . S
In1118 O1119 2.294 . S
In1118 O1120 2.326 . S
In1118 O1124 2.266 . S
In1118 O1125 2.326 . S
In1118 O1126 2.266 . S
In1118 O1127 2.326 . S
In1118 O1129 2.294 . S
In1118 O1130 2.326 . S
O1119 In1118 2.294 . S
O1119 C1128 1.240 . S
O1120 In1118 2.326 . S
O1120 C1128 1.252 . S
C1121 O1124 1.252 . S
C1121 O1125 1.260 . S
C1122 O1129 1.240 . S
C1122 O1130 1.252 . S
C1123 O1126 1.252 . S
C1123 O1127 1.260 . S
O1124 In1118 2.266 . S
O1124 C1121 1.252 . S
O1125 In1118 2.326 . S
O1125 C1121 1.260 . S
O1126 In1118 2.266 . S
O1126 C1123 1.252 . S
O1127 In1118 2.326 . S
O1127 C1123 1.260 . S
C1128 O1119 1.240 . S
C1128 O1120 1.252 . S
O1129 In1118 2.294 . S
O1129 C1122 1.240 . S
O1130 In1118 2.326 . S
O1130 C1122 1.252 . S
In1131 O1132 2.294 . S
In1131 O1133 2.326 . S
In1131 O1137 2.266 . S
In1131 O1138 2.326 . S
In1131 O1139 2.266 . S
In1131 O1140 2.326 . S
In1131 O1142 2.294 . S
In1131 O1143 2.326 . S
O1132 In1131 2.294 . S
O1132 C1141 1.240 . S
O1133 In1131 2.326 . S
O1133 C1141 1.252 . S
C1134 O1137 1.252 . S
C1134 O1138 1.260 . S
C1135 O1142 1.240 . S
C1135 O1143 1.252 . S
C1136 O1139 1.252 . S
C1136 O1140 1.260 . S
O1137 In1131 2.266 . S
O1137 C1134 1.252 . S
O1138 In1131 2.326 . S
O1138 C1134 1.260 . S
O1139 In1131 2.266 . S
O1139 C1136 1.252 . S
O1140 In1131 2.326 . S
O1140 C1136 1.260 . S
C1141 O1132 1.240 . S
C1141 O1133 1.252 . S
O1142 In1131 2.294 . S
O1142 C1135 1.240 . S
O1143 In1131 2.326 . S
O1143 C1135 1.252 . S
In1144 O1145 2.294 . S
In1144 O1146 2.326 . S
In1144 O1150 2.266 . S
In1144 O1151 2.326 . S
In1144 O1152 2.266 . S
In1144 O1153 2.326 . S
In1144 O1155 2.294 . S
In1144 O1156 2.326 . S
O1145 In1144 2.294 . S
O1145 C1154 1.240 . S
O1146 In1144 2.326 . S
O1146 C1154 1.252 . S
C1147 O1150 1.252 . S
C1147 O1151 1.260 . S
C1148 O1155 1.240 . S
C1148 O1156 1.252 . S
C1149 O1152 1.252 . S
C1149 O1153 1.260 . S
O1150 In1144 2.266 . S
O1150 C1147 1.252 . S
O1151 In1144 2.326 . S
O1151 C1147 1.260 . S
O1152 In1144 2.266 . S
O1152 C1149 1.252 . S
O1153 In1144 2.326 . S
O1153 C1149 1.260 . S
C1154 O1145 1.240 . S
C1154 O1146 1.252 . S
O1155 In1144 2.294 . S
O1155 C1148 1.240 . S
O1156 In1144 2.326 . S
O1156 C1148 1.252 . S
In1157 O1158 2.294 . S
In1157 O1159 2.326 . S
In1157 O1163 2.266 . S
In1157 O1164 2.326 . S
In1157 O1165 2.266 . S
In1157 O1166 2.326 . S
In1157 O1168 2.294 . S
In1157 O1169 2.326 . S
O1158 In1157 2.294 . S
O1158 C1167 1.240 . S
O1159 In1157 2.326 . S
O1159 C1167 1.252 . S
C1160 O1163 1.252 . S
C1160 O1164 1.260 . S
C1161 O1168 1.240 . S
C1161 O1169 1.252 . S
C1162 O1165 1.252 . S
C1162 O1166 1.260 . S
O1163 In1157 2.266 . S
O1163 C1160 1.252 . S
O1164 In1157 2.326 . S
O1164 C1160 1.260 . S
O1165 In1157 2.266 . S
O1165 C1162 1.252 . S
O1166 In1157 2.326 . S
O1166 C1162 1.260 . S
C1167 O1158 1.240 . S
C1167 O1159 1.252 . S
O1168 In1157 2.294 . S
O1168 C1161 1.240 . S
O1169 In1157 2.326 . S
O1169 C1161 1.252 . S
In1170 O1171 2.294 . S
In1170 O1172 2.326 . S
In1170 O1176 2.266 . S
In1170 O1177 2.326 . S
In1170 O1178 2.266 . S
In1170 O1179 2.326 . S
In1170 O1181 2.294 . S
In1170 O1182 2.326 . S
O1171 In1170 2.294 . S
O1171 C1180 1.240 . S
O1172 In1170 2.326 . S
O1172 C1180 1.252 . S
C1173 O1176 1.252 . S
C1173 O1177 1.260 . S
C1174 O1181 1.240 . S
C1174 O1182 1.252 . S
C1175 O1178 1.252 . S
C1175 O1179 1.260 . S
O1176 In1170 2.266 . S
O1176 C1173 1.252 . S
O1177 In1170 2.326 . S
O1177 C1173 1.260 . S
O1178 In1170 2.266 . S
O1178 C1175 1.252 . S
O1179 In1170 2.326 . S
O1179 C1175 1.260 . S
C1180 O1171 1.240 . S
C1180 O1172 1.252 . S
O1181 In1170 2.294 . S
O1181 C1174 1.240 . S
O1182 In1170 2.326 . S
O1182 C1174 1.252 . S
In1183 O1184 2.294 . S
In1183 O1185 2.326 . S
In1183 O1189 2.266 . S
In1183 O1190 2.326 . S
In1183 O1191 2.266 . S
In1183 O1192 2.326 . S
In1183 O1194 2.294 . S
In1183 O1195 2.326 . S
O1184 In1183 2.294 . S
O1184 C1193 1.240 . S
O1185 In1183 2.326 . S
O1185 C1193 1.252 . S
C1186 O1189 1.252 . S
C1186 O1190 1.260 . S
C1187 O1194 1.240 . S
C1187 O1195 1.252 . S
C1188 O1191 1.252 . S
C1188 O1192 1.260 . S
O1189 In1183 2.266 . S
O1189 C1186 1.252 . S
O1190 In1183 2.326 . S
O1190 C1186 1.260 . S
O1191 In1183 2.266 . S
O1191 C1188 1.252 . S
O1192 In1183 2.326 . S
O1192 C1188 1.260 . S
C1193 O1184 1.240 . S
C1193 O1185 1.252 . S
O1194 In1183 2.294 . S
O1194 C1187 1.240 . S
O1195 In1183 2.326 . S
O1195 C1187 1.252 . S
In1196 O1197 2.294 . S
In1196 O1198 2.326 . S
In1196 O1202 2.266 . S
In1196 O1203 2.326 . S
In1196 O1204 2.266 . S
In1196 O1205 2.326 . S
In1196 O1207 2.294 . S
In1196 O1208 2.326 . S
O1197 In1196 2.294 . S
O1197 C1206 1.240 . S
O1198 In1196 2.326 . S
O1198 C1206 1.252 . S
C1199 O1202 1.252 . S
C1199 O1203 1.260 . S
C1200 O1207 1.240 . S
C1200 O1208 1.252 . S
C1201 O1204 1.252 . S
C1201 O1205 1.260 . S
O1202 In1196 2.266 . S
O1202 C1199 1.252 . S
O1203 In1196 2.326 . S
O1203 C1199 1.260 . S
O1204 In1196 2.266 . S
O1204 C1201 1.252 . S
O1205 In1196 2.326 . S
O1205 C1201 1.260 . S
C1206 O1197 1.240 . S
C1206 O1198 1.252 . S
O1207 In1196 2.294 . S
O1207 C1200 1.240 . S
O1208 In1196 2.326 . S
O1208 C1200 1.252 . S
In1209 O1210 2.294 . S
In1209 O1211 2.326 . S
In1209 O1215 2.266 . S
In1209 O1216 2.326 . S
In1209 O1217 2.266 . S
In1209 O1218 2.326 . S
In1209 O1220 2.294 . S
In1209 O1221 2.326 . S
O1210 In1209 2.294 . S
O1210 C1219 1.240 . S
O1211 In1209 2.326 . S
O1211 C1219 1.252 . S
C1212 O1215 1.252 . S
C1212 O1216 1.260 . S
C1213 O1220 1.240 . S
C1213 O1221 1.252 . S
C1214 O1217 1.252 . S
C1214 O1218 1.260 . S
O1215 In1209 2.266 . S
O1215 C1212 1.252 . S
O1216 In1209 2.326 . S
O1216 C1212 1.260 . S
O1217 In1209 2.266 . S
O1217 C1214 1.252 . S
O1218 In1209 2.326 . S
O1218 C1214 1.260 . S
C1219 O1210 1.240 . S
C1219 O1211 1.252 . S
O1220 In1209 2.294 . S
O1220 C1213 1.240 . S
O1221 In1209 2.326 . S
O1221 C1213 1.252 . S
In1222 O1223 2.294 . S
In1222 O1224 2.326 . S
In1222 O1228 2.266 . S
In1222 O1229 2.326 . S
In1222 O1230 2.266 . S
In1222 O1231 2.326 . S
In1222 O1233 2.294 . S
In1222 O1234 2.326 . S
O1223 In1222 2.294 . S
O1223 C1232 1.240 . S
O1224 In1222 2.326 . S
O1224 C1232 1.252 . S
C1225 O1228 1.252 . S
C1225 O1229 1.260 . S
C1226 O1233 1.240 . S
C1226 O1234 1.252 . S
C1227 O1230 1.252 . S
C1227 O1231 1.260 . S
O1228 In1222 2.266 . S
O1228 C1225 1.252 . S
O1229 In1222 2.326 . S
O1229 C1225 1.260 . S
O1230 In1222 2.266 . S
O1230 C1227 1.252 . S
O1231 In1222 2.326 . S
O1231 C1227 1.260 . S
C1232 O1223 1.240 . S
C1232 O1224 1.252 . S
O1233 In1222 2.294 . S
O1233 C1226 1.240 . S
O1234 In1222 2.326 . S
O1234 C1226 1.252 . S
In1235 O1236 2.294 . S
In1235 O1237 2.326 . S
In1235 O1241 2.266 . S
In1235 O1242 2.326 . S
In1235 O1243 2.266 . S
In1235 O1244 2.326 . S
In1235 O1246 2.294 . S
In1235 O1247 2.326 . S
O1236 In1235 2.294 . S
O1236 C1245 1.240 . S
O1237 In1235 2.326 . S
O1237 C1245 1.252 . S
C1238 O1241 1.252 . S
C1238 O1242 1.260 . S
C1239 O1246 1.240 . S
C1239 O1247 1.252 . S
C1240 O1243 1.252 . S
C1240 O1244 1.260 . S
O1241 In1235 2.266 . S
O1241 C1238 1.252 . S
O1242 In1235 2.326 . S
O1242 C1238 1.260 . S
O1243 In1235 2.266 . S
O1243 C1240 1.252 . S
O1244 In1235 2.326 . S
O1244 C1240 1.260 . S
C1245 O1236 1.240 . S
C1245 O1237 1.252 . S
O1246 In1235 2.294 . S
O1246 C1239 1.240 . S
O1247 In1235 2.326 . S
O1247 C1239 1.252 . S
C1248 C1249 1.369 . S
C1248 C1250 1.419 . S
C1248 H1252 0.930 . S
C1249 C1248 1.369 . S
C1249 C1258 1.429 . S
C1250 C1248 1.419 . S
C1250 C1251 1.363 . S
C1250 H1253 0.929 . S
C1251 C1250 1.363 . S
C1251 C1257 1.428 . S
H1252 C1248 0.930 . S
H1253 C1250 0.929 . S
S1254 N1255 1.613 . S
S1254 N1256 1.610 . S
N1255 S1254 1.613 . S
N1255 C1258 1.350 . S
N1256 S1254 1.610 . S
N1256 C1257 1.351 . S
C1257 C1251 1.428 . S
C1257 N1256 1.351 . S
C1257 C1258 1.434 . S
C1258 C1249 1.429 . S
C1258 N1255 1.350 . S
C1258 C1257 1.434 . S
C1259 C1260 1.369 . S
C1259 C1261 1.419 . S
C1259 H1263 0.930 . S
C1260 C1259 1.369 . S
C1260 C1269 1.429 . S
C1261 C1259 1.419 . S
C1261 C1262 1.363 . S
C1261 H1264 0.929 . S
C1262 C1261 1.363 . S
C1262 C1268 1.428 . S
H1263 C1259 0.930 . S
H1264 C1261 0.929 . S
S1265 N1266 1.613 . S
S1265 N1267 1.610 . S
N1266 S1265 1.613 . S
N1266 C1269 1.350 . S
N1267 S1265 1.610 . S
N1267 C1268 1.351 . S
C1268 C1262 1.428 . S
C1268 N1267 1.351 . S
C1268 C1269 1.434 . S
C1269 C1260 1.429 . S
C1269 N1266 1.350 . S
C1269 C1268 1.434 . S
C1270 C1271 1.369 . S
C1270 C1272 1.419 . S
C1270 H1274 0.930 . S
C1271 C1270 1.369 . S
C1271 C1280 1.429 . S
C1272 C1270 1.419 . S
C1272 C1273 1.363 . S
C1272 H1275 0.929 . S
C1273 C1272 1.363 . S
C1273 C1279 1.428 . S
H1274 C1270 0.930 . S
H1275 C1272 0.929 . S
S1276 N1277 1.613 . S
S1276 N1278 1.610 . S
N1277 S1276 1.613 . S
N1277 C1280 1.350 . S
N1278 S1276 1.610 . S
N1278 C1279 1.351 . S
C1279 C1273 1.428 . S
C1279 N1278 1.351 . S
C1279 C1280 1.434 . S
C1280 C1271 1.429 . S
C1280 N1277 1.350 . S
C1280 C1279 1.434 . S
C1281 C1282 1.369 . S
C1281 C1283 1.419 . S
C1281 H1285 0.930 . S
C1282 C1281 1.369 . S
C1282 C1291 1.429 . S
C1283 C1281 1.419 . S
C1283 C1284 1.363 . S
C1283 H1286 0.929 . S
C1284 C1283 1.363 . S
C1284 C1290 1.428 . S
H1285 C1281 0.930 . S
H1286 C1283 0.929 . S
S1287 N1288 1.613 . S
S1287 N1289 1.610 . S
N1288 S1287 1.613 . S
N1288 C1291 1.350 . S
N1289 S1287 1.610 . S
N1289 C1290 1.351 . S
C1290 C1284 1.428 . S
C1290 N1289 1.351 . S
C1290 C1291 1.434 . S
C1291 C1282 1.429 . S
C1291 N1288 1.350 . S
C1291 C1290 1.434 . S
C1292 C1293 1.369 . S
C1292 C1294 1.419 . S
C1292 H1296 0.930 . S
C1293 C1292 1.369 . S
C1293 C1302 1.429 . S
C1294 C1292 1.419 . S
C1294 C1295 1.363 . S
C1294 H1297 0.929 . S
C1295 C1294 1.363 . S
C1295 C1301 1.428 . S
H1296 C1292 0.930 . S
H1297 C1294 0.929 . S
S1298 N1299 1.613 . S
S1298 N1300 1.610 . S
N1299 S1298 1.613 . S
N1299 C1302 1.350 . S
N1300 S1298 1.610 . S
N1300 C1301 1.351 . S
C1301 C1295 1.428 . S
C1301 N1300 1.351 . S
C1301 C1302 1.434 . S
C1302 C1293 1.429 . S
C1302 N1299 1.350 . S
C1302 C1301 1.434 . S
C1303 C1304 1.369 . S
C1303 C1305 1.419 . S
C1303 H1307 0.930 . S
C1304 C1303 1.369 . S
C1304 C1313 1.429 . S
C1305 C1303 1.419 . S
C1305 C1306 1.363 . S
C1305 H1308 0.929 . S
C1306 C1305 1.363 . S
C1306 C1312 1.428 . S
H1307 C1303 0.930 . S
H1308 C1305 0.929 . S
S1309 N1310 1.613 . S
S1309 N1311 1.610 . S
N1310 S1309 1.613 . S
N1310 C1313 1.350 . S
N1311 S1309 1.610 . S
N1311 C1312 1.351 . S
C1312 C1306 1.428 . S
C1312 N1311 1.351 . S
C1312 C1313 1.434 . S
C1313 C1304 1.429 . S
C1313 N1310 1.350 . S
C1313 C1312 1.434 . S
C1314 C1315 1.369 . S
C1314 C1316 1.419 . S
C1314 H1318 0.930 . S
C1315 C1314 1.369 . S
C1315 C1324 1.429 . S
C1316 C1314 1.419 . S
C1316 C1317 1.363 . S
C1316 H1319 0.929 . S
C1317 C1316 1.363 . S
C1317 C1323 1.428 . S
H1318 C1314 0.930 . S
H1319 C1316 0.929 . S
S1320 N1321 1.613 . S
S1320 N1322 1.610 . S
N1321 S1320 1.613 . S
N1321 C1324 1.350 . S
N1322 S1320 1.610 . S
N1322 C1323 1.351 . S
C1323 C1317 1.428 . S
C1323 N1322 1.351 . S
C1323 C1324 1.434 . S
C1324 C1315 1.429 . S
C1324 N1321 1.350 . S
C1324 C1323 1.434 . S
C1325 C1326 1.369 . S
C1325 C1327 1.419 . S
C1325 H1329 0.930 . S
C1326 C1325 1.369 . S
C1326 C1335 1.429 . S
C1327 C1325 1.419 . S
C1327 C1328 1.363 . S
C1327 H1330 0.929 . S
C1328 C1327 1.363 . S
C1328 C1334 1.428 . S
H1329 C1325 0.930 . S
H1330 C1327 0.929 . S
S1331 N1332 1.613 . S
S1331 N1333 1.610 . S
N1332 S1331 1.613 . S
N1332 C1335 1.350 . S
N1333 S1331 1.610 . S
N1333 C1334 1.351 . S
C1334 C1328 1.428 . S
C1334 N1333 1.351 . S
C1334 C1335 1.434 . S
C1335 C1326 1.429 . S
C1335 N1332 1.350 . S
C1335 C1334 1.434 . S
C1336 C1337 1.369 . S
C1336 C1338 1.419 . S
C1336 H1340 0.930 . S
C1337 C1336 1.369 . S
C1337 C1346 1.429 . S
C1338 C1336 1.419 . S
C1338 C1339 1.363 . S
C1338 H1341 0.929 . S
C1339 C1338 1.363 . S
C1339 C1345 1.428 . S
H1340 C1336 0.930 . S
H1341 C1338 0.929 . S
S1342 N1343 1.613 . S
S1342 N1344 1.610 . S
N1343 S1342 1.613 . S
N1343 C1346 1.350 . S
N1344 S1342 1.610 . S
N1344 C1345 1.351 . S
C1345 C1339 1.428 . S
C1345 N1344 1.351 . S
C1345 C1346 1.434 . S
C1346 C1337 1.429 . S
C1346 N1343 1.350 . S
C1346 C1345 1.434 . S
C1347 C1348 1.369 . S
C1347 C1349 1.419 . S
C1347 H1351 0.930 . S
C1348 C1347 1.369 . S
C1348 C1357 1.429 . S
C1349 C1347 1.419 . S
C1349 C1350 1.363 . S
C1349 H1352 0.929 . S
C1350 C1349 1.363 . S
C1350 C1356 1.428 . S
H1351 C1347 0.930 . S
H1352 C1349 0.929 . S
S1353 N1354 1.613 . S
S1353 N1355 1.610 . S
N1354 S1353 1.613 . S
N1354 C1357 1.350 . S
N1355 S1353 1.610 . S
N1355 C1356 1.351 . S
C1356 C1350 1.428 . S
C1356 N1355 1.351 . S
C1356 C1357 1.434 . S
C1357 C1348 1.429 . S
C1357 N1354 1.350 . S
C1357 C1356 1.434 . S
C1358 C1359 1.369 . S
C1358 C1360 1.419 . S
C1358 H1362 0.930 . S
C1359 C1358 1.369 . S
C1359 C1368 1.429 . S
C1360 C1358 1.419 . S
C1360 C1361 1.363 . S
C1360 H1363 0.929 . S
C1361 C1360 1.363 . S
C1361 C1367 1.428 . S
H1362 C1358 0.930 . S
H1363 C1360 0.929 . S
S1364 N1365 1.613 . S
S1364 N1366 1.610 . S
N1365 S1364 1.613 . S
N1365 C1368 1.350 . S
N1366 S1364 1.610 . S
N1366 C1367 1.351 . S
C1367 C1361 1.428 . S
C1367 N1366 1.351 . S
C1367 C1368 1.434 . S
C1368 C1359 1.429 . S
C1368 N1365 1.350 . S
C1368 C1367 1.434 . S
C1369 C1370 1.369 . S
C1369 C1371 1.419 . S
C1369 H1373 0.930 . S
C1370 C1369 1.369 . S
C1370 C1379 1.429 . S
C1371 C1369 1.419 . S
C1371 C1372 1.363 . S
C1371 H1374 0.929 . S
C1372 C1371 1.363 . S
C1372 C1378 1.428 . S
H1373 C1369 0.930 . S
H1374 C1371 0.929 . S
S1375 N1376 1.613 . S
S1375 N1377 1.610 . S
N1376 S1375 1.613 . S
N1376 C1379 1.350 . S
N1377 S1375 1.610 . S
N1377 C1378 1.351 . S
C1378 C1372 1.428 . S
C1378 N1377 1.351 . S
C1378 C1379 1.434 . S
C1379 C1370 1.429 . S
C1379 N1376 1.350 . S
C1379 C1378 1.434 . S
C1380 C1381 1.369 . S
C1380 C1382 1.419 . S
C1380 H1384 0.930 . S
C1381 C1380 1.369 . S
C1381 C1390 1.429 . S
C1382 C1380 1.419 . S
C1382 C1383 1.363 . S
C1382 H1385 0.929 . S
C1383 C1382 1.363 . S
C1383 C1389 1.428 . S
H1384 C1380 0.930 . S
H1385 C1382 0.929 . S
S1386 N1387 1.613 . S
S1386 N1388 1.610 . S
N1387 S1386 1.613 . S
N1387 C1390 1.350 . S
N1388 S1386 1.610 . S
N1388 C1389 1.351 . S
C1389 C1383 1.428 . S
C1389 N1388 1.351 . S
C1389 C1390 1.434 . S
C1390 C1381 1.429 . S
C1390 N1387 1.350 . S
C1390 C1389 1.434 . S
C1391 C1392 1.369 . S
C1391 C1393 1.419 . S
C1391 H1395 0.930 . S
C1392 C1391 1.369 . S
C1392 C1401 1.429 . S
C1393 C1391 1.419 . S
C1393 C1394 1.363 . S
C1393 H1396 0.929 . S
C1394 C1393 1.363 . S
C1394 C1400 1.428 . S
H1395 C1391 0.930 . S
H1396 C1393 0.929 . S
S1397 N1398 1.613 . S
S1397 N1399 1.610 . S
N1398 S1397 1.613 . S
N1398 C1401 1.350 . S
N1399 S1397 1.610 . S
N1399 C1400 1.351 . S
C1400 C1394 1.428 . S
C1400 N1399 1.351 . S
C1400 C1401 1.434 . S
C1401 C1392 1.429 . S
C1401 N1398 1.350 . S
C1401 C1400 1.434 . S
C1402 C1403 1.369 . S
C1402 C1404 1.419 . S
C1402 H1406 0.930 . S
C1403 C1402 1.369 . S
C1403 C1412 1.429 . S
C1404 C1402 1.419 . S
C1404 C1405 1.363 . S
C1404 H1407 0.929 . S
C1405 C1404 1.363 . S
C1405 C1411 1.428 . S
H1406 C1402 0.930 . S
H1407 C1404 0.929 . S
S1408 N1409 1.613 . S
S1408 N1410 1.610 . S
N1409 S1408 1.613 . S
N1409 C1412 1.350 . S
N1410 S1408 1.610 . S
N1410 C1411 1.351 . S
C1411 C1405 1.428 . S
C1411 N1410 1.351 . S
C1411 C1412 1.434 . S
C1412 C1403 1.429 . S
C1412 N1409 1.350 . S
C1412 C1411 1.434 . S
C1413 C1414 1.369 . S
C1413 C1415 1.419 . S
C1413 H1417 0.930 . S
C1414 C1413 1.369 . S
C1414 C1423 1.429 . S
C1415 C1413 1.419 . S
C1415 C1416 1.363 . S
C1415 H1418 0.929 . S
C1416 C1415 1.363 . S
C1416 C1422 1.428 . S
H1417 C1413 0.930 . S
H1418 C1415 0.929 . S
S1419 N1420 1.613 . S
S1419 N1421 1.610 . S
N1420 S1419 1.613 . S
N1420 C1423 1.350 . S
N1421 S1419 1.610 . S
N1421 C1422 1.351 . S
C1422 C1416 1.428 . S
C1422 N1421 1.351 . S
C1422 C1423 1.434 . S
C1423 C1414 1.429 . S
C1423 N1420 1.350 . S
C1423 C1422 1.434 . S
C1424 C1425 1.369 . S
C1424 C1426 1.419 . S
C1424 H1428 0.930 . S
C1425 C1424 1.369 . S
C1425 C1434 1.429 . S
C1426 C1424 1.419 . S
C1426 C1427 1.363 . S
C1426 H1429 0.929 . S
C1427 C1426 1.363 . S
C1427 C1433 1.428 . S
H1428 C1424 0.930 . S
H1429 C1426 0.929 . S
S1430 N1431 1.613 . S
S1430 N1432 1.610 . S
N1431 S1430 1.613 . S
N1431 C1434 1.350 . S
N1432 S1430 1.610 . S
N1432 C1433 1.351 . S
C1433 C1427 1.428 . S
C1433 N1432 1.351 . S
C1433 C1434 1.434 . S
C1434 C1425 1.429 . S
C1434 N1431 1.350 . S
C1434 C1433 1.434 . S
C1435 C1436 1.369 . S
C1435 C1437 1.419 . S
C1435 H1439 0.930 . S
C1436 C1435 1.369 . S
C1436 C1445 1.429 . S
C1437 C1435 1.419 . S
C1437 C1438 1.363 . S
C1437 H1440 0.929 . S
C1438 C1437 1.363 . S
C1438 C1444 1.428 . S
H1439 C1435 0.930 . S
H1440 C1437 0.929 . S
S1441 N1442 1.613 . S
S1441 N1443 1.610 . S
N1442 S1441 1.613 . S
N1442 C1445 1.350 . S
N1443 S1441 1.610 . S
N1443 C1444 1.351 . S
C1444 C1438 1.428 . S
C1444 N1443 1.351 . S
C1444 C1445 1.434 . S
C1445 C1436 1.429 . S
C1445 N1442 1.350 . S
C1445 C1444 1.434 . S
C1446 C1447 1.369 . S
C1446 C1448 1.419 . S
C1446 H1450 0.930 . S
C1447 C1446 1.369 . S
C1447 C1456 1.429 . S
C1448 C1446 1.419 . S
C1448 C1449 1.363 . S
C1448 H1451 0.929 . S
C1449 C1448 1.363 . S
C1449 C1455 1.428 . S
H1450 C1446 0.930 . S
H1451 C1448 0.929 . S
S1452 N1453 1.613 . S
S1452 N1454 1.610 . S
N1453 S1452 1.613 . S
N1453 C1456 1.350 . S
N1454 S1452 1.610 . S
N1454 C1455 1.351 . S
C1455 C1449 1.428 . S
C1455 N1454 1.351 . S
C1455 C1456 1.434 . S
C1456 C1447 1.429 . S
C1456 N1453 1.350 . S
C1456 C1455 1.434 . S
C1457 C1458 1.369 . S
C1457 C1459 1.419 . S
C1457 H1461 0.930 . S
C1458 C1457 1.369 . S
C1458 C1467 1.429 . S
C1459 C1457 1.419 . S
C1459 C1460 1.363 . S
C1459 H1462 0.929 . S
C1460 C1459 1.363 . S
C1460 C1466 1.428 . S
H1461 C1457 0.930 . S
H1462 C1459 0.929 . S
S1463 N1464 1.613 . S
S1463 N1465 1.610 . S
N1464 S1463 1.613 . S
N1464 C1467 1.350 . S
N1465 S1463 1.610 . S
N1465 C1466 1.351 . S
C1466 C1460 1.428 . S
C1466 N1465 1.351 . S
C1466 C1467 1.434 . S
C1467 C1458 1.429 . S
C1467 N1464 1.350 . S
C1467 C1466 1.434 . S
C1468 C1469 1.369 . S
C1468 C1470 1.419 . S
C1468 H1472 0.930 . S
C1469 C1468 1.369 . S
C1469 C1478 1.429 . S
C1470 C1468 1.419 . S
C1470 C1471 1.363 . S
C1470 H1473 0.929 . S
C1471 C1470 1.363 . S
C1471 C1477 1.428 . S
H1472 C1468 0.930 . S
H1473 C1470 0.929 . S
S1474 N1475 1.613 . S
S1474 N1476 1.610 . S
N1475 S1474 1.613 . S
N1475 C1478 1.350 . S
N1476 S1474 1.610 . S
N1476 C1477 1.351 . S
C1477 C1471 1.428 . S
C1477 N1476 1.351 . S
C1477 C1478 1.434 . S
C1478 C1469 1.429 . S
C1478 N1475 1.350 . S
C1478 C1477 1.434 . S
C1479 C1480 1.369 . S
C1479 C1481 1.419 . S
C1479 H1483 0.930 . S
C1480 C1479 1.369 . S
C1480 C1489 1.429 . S
C1481 C1479 1.419 . S
C1481 C1482 1.363 . S
C1481 H1484 0.929 . S
C1482 C1481 1.363 . S
C1482 C1488 1.428 . S
H1483 C1479 0.930 . S
H1484 C1481 0.929 . S
S1485 N1486 1.613 . S
S1485 N1487 1.610 . S
N1486 S1485 1.613 . S
N1486 C1489 1.350 . S
N1487 S1485 1.610 . S
N1487 C1488 1.351 . S
C1488 C1482 1.428 . S
C1488 N1487 1.351 . S
C1488 C1489 1.434 . S
C1489 C1480 1.429 . S
C1489 N1486 1.350 . S
C1489 C1488 1.434 . S
C1490 C1491 1.369 . S
C1490 C1492 1.419 . S
C1490 H1494 0.930 . S
C1491 C1490 1.369 . S
C1491 C1500 1.429 . S
C1492 C1490 1.419 . S
C1492 C1493 1.363 . S
C1492 H1495 0.929 . S
C1493 C1492 1.363 . S
C1493 C1499 1.428 . S
H1494 C1490 0.930 . S
H1495 C1492 0.929 . S
S1496 N1497 1.613 . S
S1496 N1498 1.610 . S
N1497 S1496 1.613 . S
N1497 C1500 1.350 . S
N1498 S1496 1.610 . S
N1498 C1499 1.351 . S
C1499 C1493 1.428 . S
C1499 N1498 1.351 . S
C1499 C1500 1.434 . S
C1500 C1491 1.429 . S
C1500 N1497 1.350 . S
C1500 C1499 1.434 . S
C1501 C1502 1.369 . S
C1501 C1503 1.419 . S
C1501 H1505 0.930 . S
C1502 C1501 1.369 . S
C1502 C1511 1.429 . S
C1503 C1501 1.419 . S
C1503 C1504 1.363 . S
C1503 H1506 0.929 . S
C1504 C1503 1.363 . S
C1504 C1510 1.428 . S
H1505 C1501 0.930 . S
H1506 C1503 0.929 . S
S1507 N1508 1.613 . S
S1507 N1509 1.610 . S
N1508 S1507 1.613 . S
N1508 C1511 1.350 . S
N1509 S1507 1.610 . S
N1509 C1510 1.351 . S
C1510 C1504 1.428 . S
C1510 N1509 1.351 . S
C1510 C1511 1.434 . S
C1511 C1502 1.429 . S
C1511 N1508 1.350 . S
C1511 C1510 1.434 . S
C1512 C1513 1.369 . S
C1512 C1514 1.419 . S
C1512 H1516 0.930 . S
C1513 C1512 1.369 . S
C1513 C1522 1.429 . S
C1514 C1512 1.419 . S
C1514 C1515 1.363 . S
C1514 H1517 0.929 . S
C1515 C1514 1.363 . S
C1515 C1521 1.428 . S
H1516 C1512 0.930 . S
H1517 C1514 0.929 . S
S1518 N1519 1.613 . S
S1518 N1520 1.610 . S
N1519 S1518 1.613 . S
N1519 C1522 1.350 . S
N1520 S1518 1.610 . S
N1520 C1521 1.351 . S
C1521 C1515 1.428 . S
C1521 N1520 1.351 . S
C1521 C1522 1.434 . S
C1522 C1513 1.429 . S
C1522 N1519 1.350 . S
C1522 C1521 1.434 . S
C1523 C1524 1.369 . S
C1523 C1525 1.419 . S
C1523 H1527 0.930 . S
C1524 C1523 1.369 . S
C1524 C1533 1.429 . S
C1525 C1523 1.419 . S
C1525 C1526 1.363 . S
C1525 H1528 0.929 . S
C1526 C1525 1.363 . S
C1526 C1532 1.428 . S
H1527 C1523 0.930 . S
H1528 C1525 0.929 . S
S1529 N1530 1.613 . S
S1529 N1531 1.610 . S
N1530 S1529 1.613 . S
N1530 C1533 1.350 . S
N1531 S1529 1.610 . S
N1531 C1532 1.351 . S
C1532 C1526 1.428 . S
C1532 N1531 1.351 . S
C1532 C1533 1.434 . S
C1533 C1524 1.429 . S
C1533 N1530 1.350 . S
C1533 C1532 1.434 . S
C1534 C1535 1.369 . S
C1534 C1536 1.419 . S
C1534 H1538 0.930 . S
C1535 C1534 1.369 . S
C1535 C1544 1.429 . S
C1536 C1534 1.419 . S
C1536 C1537 1.363 . S
C1536 H1539 0.929 . S
C1537 C1536 1.363 . S
C1537 C1543 1.428 . S
H1538 C1534 0.930 . S
H1539 C1536 0.929 . S
S1540 N1541 1.613 . S
S1540 N1542 1.610 . S
N1541 S1540 1.613 . S
N1541 C1544 1.350 . S
N1542 S1540 1.610 . S
N1542 C1543 1.351 . S
C1543 C1537 1.428 . S
C1543 N1542 1.351 . S
C1543 C1544 1.434 . S
C1544 C1535 1.429 . S
C1544 N1541 1.350 . S
C1544 C1543 1.434 . S
C1545 C1546 1.369 . S
C1545 C1547 1.419 . S
C1545 H1549 0.930 . S
C1546 C1545 1.369 . S
C1546 C1555 1.429 . S
C1547 C1545 1.419 . S
C1547 C1548 1.363 . S
C1547 H1550 0.929 . S
C1548 C1547 1.363 . S
C1548 C1554 1.428 . S
H1549 C1545 0.930 . S
H1550 C1547 0.929 . S
S1551 N1552 1.613 . S
S1551 N1553 1.610 . S
N1552 S1551 1.613 . S
N1552 C1555 1.350 . S
N1553 S1551 1.610 . S
N1553 C1554 1.351 . S
C1554 C1548 1.428 . S
C1554 N1553 1.351 . S
C1554 C1555 1.434 . S
C1555 C1546 1.429 . S
C1555 N1552 1.350 . S
C1555 C1554 1.434 . S
C1556 C1557 1.369 . S
C1556 C1558 1.419 . S
C1556 H1560 0.930 . S
C1557 C1556 1.369 . S
C1557 C1566 1.429 . S
C1558 C1556 1.419 . S
C1558 C1559 1.363 . S
C1558 H1561 0.929 . S
C1559 C1558 1.363 . S
C1559 C1565 1.428 . S
H1560 C1556 0.930 . S
H1561 C1558 0.929 . S
S1562 N1563 1.613 . S
S1562 N1564 1.610 . S
N1563 S1562 1.613 . S
N1563 C1566 1.350 . S
N1564 S1562 1.610 . S
N1564 C1565 1.351 . S
C1565 C1559 1.428 . S
C1565 N1564 1.351 . S
C1565 C1566 1.434 . S
C1566 C1557 1.429 . S
C1566 N1563 1.350 . S
C1566 C1565 1.434 . S
C1567 C1568 1.369 . S
C1567 C1569 1.419 . S
C1567 H1571 0.930 . S
C1568 C1567 1.369 . S
C1568 C1577 1.429 . S
C1569 C1567 1.419 . S
C1569 C1570 1.363 . S
C1569 H1572 0.929 . S
C1570 C1569 1.363 . S
C1570 C1576 1.428 . S
H1571 C1567 0.930 . S
H1572 C1569 0.929 . S
S1573 N1574 1.613 . S
S1573 N1575 1.610 . S
N1574 S1573 1.613 . S
N1574 C1577 1.350 . S
N1575 S1573 1.610 . S
N1575 C1576 1.351 . S
C1576 C1570 1.428 . S
C1576 N1575 1.351 . S
C1576 C1577 1.434 . S
C1577 C1568 1.429 . S
C1577 N1574 1.350 . S
C1577 C1576 1.434 . S
C1578 C1579 1.369 . S
C1578 C1580 1.419 . S
C1578 H1582 0.930 . S
C1579 C1578 1.369 . S
C1579 C1588 1.429 . S
C1580 C1578 1.419 . S
C1580 C1581 1.363 . S
C1580 H1583 0.929 . S
C1581 C1580 1.363 . S
C1581 C1587 1.428 . S
H1582 C1578 0.930 . S
H1583 C1580 0.929 . S
S1584 N1585 1.613 . S
S1584 N1586 1.610 . S
N1585 S1584 1.613 . S
N1585 C1588 1.350 . S
N1586 S1584 1.610 . S
N1586 C1587 1.351 . S
C1587 C1581 1.428 . S
C1587 N1586 1.351 . S
C1587 C1588 1.434 . S
C1588 C1579 1.429 . S
C1588 N1585 1.350 . S
C1588 C1587 1.434 . S
C1589 C1590 1.369 . S
C1589 C1591 1.419 . S
C1589 H1593 0.930 . S
C1590 C1589 1.369 . S
C1590 C1599 1.429 . S
C1591 C1589 1.419 . S
C1591 C1592 1.363 . S
C1591 H1594 0.929 . S
C1592 C1591 1.363 . S
C1592 C1598 1.428 . S
H1593 C1589 0.930 . S
H1594 C1591 0.929 . S
S1595 N1596 1.613 . S
S1595 N1597 1.610 . S
N1596 S1595 1.613 . S
N1596 C1599 1.350 . S
N1597 S1595 1.610 . S
N1597 C1598 1.351 . S
C1598 C1592 1.428 . S
C1598 N1597 1.351 . S
C1598 C1599 1.434 . S
C1599 C1590 1.429 . S
C1599 N1596 1.350 . S
C1599 C1598 1.434 . S
C1600 C1601 1.369 . S
C1600 C1602 1.419 . S
C1600 H1604 0.930 . S
C1601 C1600 1.369 . S
C1601 C1610 1.429 . S
C1602 C1600 1.419 . S
C1602 C1603 1.363 . S
C1602 H1605 0.929 . S
C1603 C1602 1.363 . S
C1603 C1609 1.428 . S
H1604 C1600 0.930 . S
H1605 C1602 0.929 . S
S1606 N1607 1.613 . S
S1606 N1608 1.610 . S
N1607 S1606 1.613 . S
N1607 C1610 1.350 . S
N1608 S1606 1.610 . S
N1608 C1609 1.351 . S
C1609 C1603 1.428 . S
C1609 N1608 1.351 . S
C1609 C1610 1.434 . S
C1610 C1601 1.429 . S
C1610 N1607 1.350 . S
C1610 C1609 1.434 . S
C1611 C1612 1.369 . S
C1611 C1613 1.419 . S
C1611 H1615 0.930 . S
C1612 C1611 1.369 . S
C1612 C1621 1.429 . S
C1613 C1611 1.419 . S
C1613 C1614 1.363 . S
C1613 H1616 0.929 . S
C1614 C1613 1.363 . S
C1614 C1620 1.428 . S
H1615 C1611 0.930 . S
H1616 C1613 0.929 . S
S1617 N1618 1.613 . S
S1617 N1619 1.610 . S
N1618 S1617 1.613 . S
N1618 C1621 1.350 . S
N1619 S1617 1.610 . S
N1619 C1620 1.351 . S
C1620 C1614 1.428 . S
C1620 N1619 1.351 . S
C1620 C1621 1.434 . S
C1621 C1612 1.429 . S
C1621 N1618 1.350 . S
C1621 C1620 1.434 . S
C1622 C1623 1.369 . S
C1622 C1624 1.419 . S
C1622 H1626 0.930 . S
C1623 C1622 1.369 . S
C1623 C1632 1.429 . S
C1624 C1622 1.419 . S
C1624 C1625 1.363 . S
C1624 H1627 0.929 . S
C1625 C1624 1.363 . S
C1625 C1631 1.428 . S
H1626 C1622 0.930 . S
H1627 C1624 0.929 . S
S1628 N1629 1.613 . S
S1628 N1630 1.610 . S
N1629 S1628 1.613 . S
N1629 C1632 1.350 . S
N1630 S1628 1.610 . S
N1630 C1631 1.351 . S
C1631 C1625 1.428 . S
C1631 N1630 1.351 . S
C1631 C1632 1.434 . S
C1632 C1623 1.429 . S
C1632 N1629 1.350 . S
C1632 C1631 1.434 . S
C1633 C1634 1.369 . S
C1633 C1635 1.419 . S
C1633 H1637 0.930 . S
C1634 C1633 1.369 . S
C1634 C1643 1.429 . S
C1635 C1633 1.419 . S
C1635 C1636 1.363 . S
C1635 H1638 0.929 . S
C1636 C1635 1.363 . S
C1636 C1642 1.428 . S
H1637 C1633 0.930 . S
H1638 C1635 0.929 . S
S1639 N1640 1.613 . S
S1639 N1641 1.610 . S
N1640 S1639 1.613 . S
N1640 C1643 1.350 . S
N1641 S1639 1.610 . S
N1641 C1642 1.351 . S
C1642 C1636 1.428 . S
C1642 N1641 1.351 . S
C1642 C1643 1.434 . S
C1643 C1634 1.429 . S
C1643 N1640 1.350 . S
C1643 C1642 1.434 . S
C1644 C1645 1.369 . S
C1644 C1646 1.419 . S
C1644 H1648 0.930 . S
C1645 C1644 1.369 . S
C1645 C1654 1.429 . S
C1646 C1644 1.419 . S
C1646 C1647 1.363 . S
C1646 H1649 0.929 . S
C1647 C1646 1.363 . S
C1647 C1653 1.428 . S
H1648 C1644 0.930 . S
H1649 C1646 0.929 . S
S1650 N1651 1.613 . S
S1650 N1652 1.610 . S
N1651 S1650 1.613 . S
N1651 C1654 1.350 . S
N1652 S1650 1.610 . S
N1652 C1653 1.351 . S
C1653 C1647 1.428 . S
C1653 N1652 1.351 . S
C1653 C1654 1.434 . S
C1654 C1645 1.429 . S
C1654 N1651 1.350 . S
C1654 C1653 1.434 . S
C1655 C1656 1.369 . S
C1655 C1657 1.419 . S
C1655 H1659 0.930 . S
C1656 C1655 1.369 . S
C1656 C1665 1.429 . S
C1657 C1655 1.419 . S
C1657 C1658 1.363 . S
C1657 H1660 0.929 . S
C1658 C1657 1.363 . S
C1658 C1664 1.428 . S
H1659 C1655 0.930 . S
H1660 C1657 0.929 . S
S1661 N1662 1.613 . S
S1661 N1663 1.610 . S
N1662 S1661 1.613 . S
N1662 C1665 1.350 . S
N1663 S1661 1.610 . S
N1663 C1664 1.351 . S
C1664 C1658 1.428 . S
C1664 N1663 1.351 . S
C1664 C1665 1.434 . S
C1665 C1656 1.429 . S
C1665 N1662 1.350 . S
C1665 C1664 1.434 . S
C1666 C1667 1.369 . S
C1666 C1668 1.419 . S
C1666 H1670 0.930 . S
C1667 C1666 1.369 . S
C1667 C1676 1.429 . S
C1668 C1666 1.419 . S
C1668 C1669 1.363 . S
C1668 H1671 0.929 . S
C1669 C1668 1.363 . S
C1669 C1675 1.428 . S
H1670 C1666 0.930 . S
H1671 C1668 0.929 . S
S1672 N1673 1.613 . S
S1672 N1674 1.610 . S
N1673 S1672 1.613 . S
N1673 C1676 1.350 . S
N1674 S1672 1.610 . S
N1674 C1675 1.351 . S
C1675 C1669 1.428 . S
C1675 N1674 1.351 . S
C1675 C1676 1.434 . S
C1676 C1667 1.429 . S
C1676 N1673 1.350 . S
C1676 C1675 1.434 . S
C1677 C1678 1.369 . S
C1677 C1679 1.419 . S
C1677 H1681 0.930 . S
C1678 C1677 1.369 . S
C1678 C1687 1.429 . S
C1679 C1677 1.419 . S
C1679 C1680 1.363 . S
C1679 H1682 0.929 . S
C1680 C1679 1.363 . S
C1680 C1686 1.428 . S
H1681 C1677 0.930 . S
H1682 C1679 0.929 . S
S1683 N1684 1.613 . S
S1683 N1685 1.610 . S
N1684 S1683 1.613 . S
N1684 C1687 1.350 . S
N1685 S1683 1.610 . S
N1685 C1686 1.351 . S
C1686 C1680 1.428 . S
C1686 N1685 1.351 . S
C1686 C1687 1.434 . S
C1687 C1678 1.429 . S
C1687 N1684 1.350 . S
C1687 C1686 1.434 . S
C1688 C1689 1.369 . S
C1688 C1690 1.419 . S
C1688 H1692 0.930 . S
C1689 C1688 1.369 . S
C1689 C1698 1.429 . S
C1690 C1688 1.419 . S
C1690 C1691 1.363 . S
C1690 H1693 0.929 . S
C1691 C1690 1.363 . S
C1691 C1697 1.428 . S
H1692 C1688 0.930 . S
H1693 C1690 0.929 . S
S1694 N1695 1.613 . S
S1694 N1696 1.610 . S
N1695 S1694 1.613 . S
N1695 C1698 1.350 . S
N1696 S1694 1.610 . S
N1696 C1697 1.351 . S
C1697 C1691 1.428 . S
C1697 N1696 1.351 . S
C1697 C1698 1.434 . S
C1698 C1689 1.429 . S
C1698 N1695 1.350 . S
C1698 C1697 1.434 . S
C1699 C1700 1.369 . S
C1699 C1701 1.419 . S
C1699 H1703 0.930 . S
C1700 C1699 1.369 . S
C1700 C1709 1.429 . S
C1701 C1699 1.419 . S
C1701 C1702 1.363 . S
C1701 H1704 0.929 . S
C1702 C1701 1.363 . S
C1702 C1708 1.428 . S
H1703 C1699 0.930 . S
H1704 C1701 0.929 . S
S1705 N1706 1.613 . S
S1705 N1707 1.610 . S
N1706 S1705 1.613 . S
N1706 C1709 1.350 . S
N1707 S1705 1.610 . S
N1707 C1708 1.351 . S
C1708 C1702 1.428 . S
C1708 N1707 1.351 . S
C1708 C1709 1.434 . S
C1709 C1700 1.429 . S
C1709 N1706 1.350 . S
C1709 C1708 1.434 . S
C1710 C1711 1.369 . S
C1710 C1712 1.419 . S
C1710 H1714 0.930 . S
C1711 C1710 1.369 . S
C1711 C1720 1.429 . S
C1712 C1710 1.419 . S
C1712 C1713 1.363 . S
C1712 H1715 0.929 . S
C1713 C1712 1.363 . S
C1713 C1719 1.428 . S
H1714 C1710 0.930 . S
H1715 C1712 0.929 . S
S1716 N1717 1.613 . S
S1716 N1718 1.610 . S
N1717 S1716 1.613 . S
N1717 C1720 1.350 . S
N1718 S1716 1.610 . S
N1718 C1719 1.351 . S
C1719 C1713 1.428 . S
C1719 N1718 1.351 . S
C1719 C1720 1.434 . S
C1720 C1711 1.429 . S
C1720 N1717 1.350 . S
C1720 C1719 1.434 . S
C1721 C1722 1.369 . S
C1721 C1723 1.419 . S
C1721 H1725 0.930 . S
C1722 C1721 1.369 . S
C1722 C1731 1.429 . S
C1723 C1721 1.419 . S
C1723 C1724 1.363 . S
C1723 H1726 0.929 . S
C1724 C1723 1.363 . S
C1724 C1730 1.428 . S
H1725 C1721 0.930 . S
H1726 C1723 0.929 . S
S1727 N1728 1.613 . S
S1727 N1729 1.610 . S
N1728 S1727 1.613 . S
N1728 C1731 1.350 . S
N1729 S1727 1.610 . S
N1729 C1730 1.351 . S
C1730 C1724 1.428 . S
C1730 N1729 1.351 . S
C1730 C1731 1.434 . S
C1731 C1722 1.429 . S
C1731 N1728 1.350 . S
C1731 C1730 1.434 . S
C1732 C1733 1.369 . S
C1732 C1734 1.419 . S
C1732 H1736 0.930 . S
C1733 C1732 1.369 . S
C1733 C1742 1.429 . S
C1734 C1732 1.419 . S
C1734 C1735 1.363 . S
C1734 H1737 0.929 . S
C1735 C1734 1.363 . S
C1735 C1741 1.428 . S
H1736 C1732 0.930 . S
H1737 C1734 0.929 . S
S1738 N1739 1.613 . S
S1738 N1740 1.610 . S
N1739 S1738 1.613 . S
N1739 C1742 1.350 . S
N1740 S1738 1.610 . S
N1740 C1741 1.351 . S
C1741 C1735 1.428 . S
C1741 N1740 1.351 . S
C1741 C1742 1.434 . S
C1742 C1733 1.429 . S
C1742 N1739 1.350 . S
C1742 C1741 1.434 . S
C1743 C1744 1.369 . S
C1743 C1745 1.419 . S
C1743 H1747 0.930 . S
C1744 C1743 1.369 . S
C1744 C1753 1.429 . S
C1745 C1743 1.419 . S
C1745 C1746 1.363 . S
C1745 H1748 0.929 . S
C1746 C1745 1.363 . S
C1746 C1752 1.428 . S
H1747 C1743 0.930 . S
H1748 C1745 0.929 . S
S1749 N1750 1.613 . S
S1749 N1751 1.610 . S
N1750 S1749 1.613 . S
N1750 C1753 1.350 . S
N1751 S1749 1.610 . S
N1751 C1752 1.351 . S
C1752 C1746 1.428 . S
C1752 N1751 1.351 . S
C1752 C1753 1.434 . S
C1753 C1744 1.429 . S
C1753 N1750 1.350 . S
C1753 C1752 1.434 . S
C1754 C1755 1.369 . S
C1754 C1756 1.419 . S
C1754 H1758 0.930 . S
C1755 C1754 1.369 . S
C1755 C1764 1.429 . S
C1756 C1754 1.419 . S
C1756 C1757 1.363 . S
C1756 H1759 0.929 . S
C1757 C1756 1.363 . S
C1757 C1763 1.428 . S
H1758 C1754 0.930 . S
H1759 C1756 0.929 . S
S1760 N1761 1.613 . S
S1760 N1762 1.610 . S
N1761 S1760 1.613 . S
N1761 C1764 1.350 . S
N1762 S1760 1.610 . S
N1762 C1763 1.351 . S
C1763 C1757 1.428 . S
C1763 N1762 1.351 . S
C1763 C1764 1.434 . S
C1764 C1755 1.429 . S
C1764 N1761 1.350 . S
C1764 C1763 1.434 . S
C1765 C1766 1.369 . S
C1765 C1767 1.419 . S
C1765 H1769 0.930 . S
C1766 C1765 1.369 . S
C1766 C1775 1.429 . S
C1767 C1765 1.419 . S
C1767 C1768 1.363 . S
C1767 H1770 0.929 . S
C1768 C1767 1.363 . S
C1768 C1774 1.428 . S
H1769 C1765 0.930 . S
H1770 C1767 0.929 . S
S1771 N1772 1.613 . S
S1771 N1773 1.610 . S
N1772 S1771 1.613 . S
N1772 C1775 1.350 . S
N1773 S1771 1.610 . S
N1773 C1774 1.351 . S
C1774 C1768 1.428 . S
C1774 N1773 1.351 . S
C1774 C1775 1.434 . S
C1775 C1766 1.429 . S
C1775 N1772 1.350 . S
C1775 C1774 1.434 . S
C1776 C1777 1.369 . S
C1776 C1778 1.419 . S
C1776 H1780 0.930 . S
C1777 C1776 1.369 . S
C1777 C1786 1.429 . S
C1778 C1776 1.419 . S
C1778 C1779 1.363 . S
C1778 H1781 0.929 . S
C1779 C1778 1.363 . S
C1779 C1785 1.428 . S
H1780 C1776 0.930 . S
H1781 C1778 0.929 . S
S1782 N1783 1.613 . S
S1782 N1784 1.610 . S
N1783 S1782 1.613 . S
N1783 C1786 1.350 . S
N1784 S1782 1.610 . S
N1784 C1785 1.351 . S
C1785 C1779 1.428 . S
C1785 N1784 1.351 . S
C1785 C1786 1.434 . S
C1786 C1777 1.429 . S
C1786 N1783 1.350 . S
C1786 C1785 1.434 . S
C1787 C1788 1.369 . S
C1787 C1789 1.419 . S
C1787 H1791 0.930 . S
C1788 C1787 1.369 . S
C1788 C1797 1.429 . S
C1789 C1787 1.419 . S
C1789 C1790 1.363 . S
C1789 H1792 0.929 . S
C1790 C1789 1.363 . S
C1790 C1796 1.428 . S
H1791 C1787 0.930 . S
H1792 C1789 0.929 . S
S1793 N1794 1.613 . S
S1793 N1795 1.610 . S
N1794 S1793 1.613 . S
N1794 C1797 1.350 . S
N1795 S1793 1.610 . S
N1795 C1796 1.351 . S
C1796 C1790 1.428 . S
C1796 N1795 1.351 . S
C1796 C1797 1.434 . S
C1797 C1788 1.429 . S
C1797 N1794 1.350 . S
C1797 C1796 1.434 . S
C1798 C1799 1.369 . S
C1798 C1800 1.419 . S
C1798 H1802 0.930 . S
C1799 C1798 1.369 . S
C1799 C1808 1.429 . S
C1800 C1798 1.419 . S
C1800 C1801 1.363 . S
C1800 H1803 0.929 . S
C1801 C1800 1.363 . S
C1801 C1807 1.428 . S
H1802 C1798 0.930 . S
H1803 C1800 0.929 . S
S1804 N1805 1.613 . S
S1804 N1806 1.610 . S
N1805 S1804 1.613 . S
N1805 C1808 1.350 . S
N1806 S1804 1.610 . S
N1806 C1807 1.351 . S
C1807 C1801 1.428 . S
C1807 N1806 1.351 . S
C1807 C1808 1.434 . S
C1808 C1799 1.429 . S
C1808 N1805 1.350 . S
C1808 C1807 1.434 . S
C1809 C1810 1.369 . S
C1809 C1811 1.419 . S
C1809 H1813 0.930 . S
C1810 C1809 1.369 . S
C1810 C1819 1.429 . S
C1811 C1809 1.419 . S
C1811 C1812 1.363 . S
C1811 H1814 0.929 . S
C1812 C1811 1.363 . S
C1812 C1818 1.428 . S
H1813 C1809 0.930 . S
H1814 C1811 0.929 . S
S1815 N1816 1.613 . S
S1815 N1817 1.610 . S
N1816 S1815 1.613 . S
N1816 C1819 1.350 . S
N1817 S1815 1.610 . S
N1817 C1818 1.351 . S
C1818 C1812 1.428 . S
C1818 N1817 1.351 . S
C1818 C1819 1.434 . S
C1819 C1810 1.429 . S
C1819 N1816 1.350 . S
C1819 C1818 1.434 . S
C1820 C1821 1.369 . S
C1820 C1822 1.419 . S
C1820 H1824 0.930 . S
C1821 C1820 1.369 . S
C1821 C1830 1.429 . S
C1822 C1820 1.419 . S
C1822 C1823 1.363 . S
C1822 H1825 0.929 . S
C1823 C1822 1.363 . S
C1823 C1829 1.428 . S
H1824 C1820 0.930 . S
H1825 C1822 0.929 . S
S1826 N1827 1.613 . S
S1826 N1828 1.610 . S
N1827 S1826 1.613 . S
N1827 C1830 1.350 . S
N1828 S1826 1.610 . S
N1828 C1829 1.351 . S
C1829 C1823 1.428 . S
C1829 N1828 1.351 . S
C1829 C1830 1.434 . S
C1830 C1821 1.429 . S
C1830 N1827 1.350 . S
C1830 C1829 1.434 . S
C1831 C1832 1.369 . S
C1831 C1833 1.419 . S
C1831 H1835 0.930 . S
C1832 C1831 1.369 . S
C1832 C1841 1.429 . S
C1833 C1831 1.419 . S
C1833 C1834 1.363 . S
C1833 H1836 0.929 . S
C1834 C1833 1.363 . S
C1834 C1840 1.428 . S
H1835 C1831 0.930 . S
H1836 C1833 0.929 . S
S1837 N1838 1.613 . S
S1837 N1839 1.610 . S
N1838 S1837 1.613 . S
N1838 C1841 1.350 . S
N1839 S1837 1.610 . S
N1839 C1840 1.351 . S
C1840 C1834 1.428 . S
C1840 N1839 1.351 . S
C1840 C1841 1.434 . S
C1841 C1832 1.429 . S
C1841 N1838 1.350 . S
C1841 C1840 1.434 . S
C1842 C1843 1.369 . S
C1842 C1844 1.419 . S
C1842 H1846 0.930 . S
C1843 C1842 1.369 . S
C1843 C1852 1.429 . S
C1844 C1842 1.419 . S
C1844 C1845 1.363 . S
C1844 H1847 0.929 . S
C1845 C1844 1.363 . S
C1845 C1851 1.428 . S
H1846 C1842 0.930 . S
H1847 C1844 0.929 . S
S1848 N1849 1.613 . S
S1848 N1850 1.610 . S
N1849 S1848 1.613 . S
N1849 C1852 1.350 . S
N1850 S1848 1.610 . S
N1850 C1851 1.351 . S
C1851 C1845 1.428 . S
C1851 N1850 1.351 . S
C1851 C1852 1.434 . S
C1852 C1843 1.429 . S
C1852 N1849 1.350 . S
C1852 C1851 1.434 . S
C1853 C1854 1.369 . S
C1853 C1855 1.419 . S
C1853 H1857 0.930 . S
C1854 C1853 1.369 . S
C1854 C1863 1.429 . S
C1855 C1853 1.419 . S
C1855 C1856 1.363 . S
C1855 H1858 0.929 . S
C1856 C1855 1.363 . S
C1856 C1862 1.428 . S
H1857 C1853 0.930 . S
H1858 C1855 0.929 . S
S1859 N1860 1.613 . S
S1859 N1861 1.610 . S
N1860 S1859 1.613 . S
N1860 C1863 1.350 . S
N1861 S1859 1.610 . S
N1861 C1862 1.351 . S
C1862 C1856 1.428 . S
C1862 N1861 1.351 . S
C1862 C1863 1.434 . S
C1863 C1854 1.429 . S
C1863 N1860 1.350 . S
C1863 C1862 1.434 . S
C1864 C1865 1.369 . S
C1864 C1866 1.419 . S
C1864 H1868 0.930 . S
C1865 C1864 1.369 . S
C1865 C1874 1.429 . S
C1866 C1864 1.419 . S
C1866 C1867 1.363 . S
C1866 H1869 0.929 . S
C1867 C1866 1.363 . S
C1867 C1873 1.428 . S
H1868 C1864 0.930 . S
H1869 C1866 0.929 . S
S1870 N1871 1.613 . S
S1870 N1872 1.610 . S
N1871 S1870 1.613 . S
N1871 C1874 1.350 . S
N1872 S1870 1.610 . S
N1872 C1873 1.351 . S
C1873 C1867 1.428 . S
C1873 N1872 1.351 . S
C1873 C1874 1.434 . S
C1874 C1865 1.429 . S
C1874 N1871 1.350 . S
C1874 C1873 1.434 . S
C1875 C1876 1.369 . S
C1875 C1877 1.419 . S
C1875 H1879 0.930 . S
C1876 C1875 1.369 . S
C1876 C1885 1.429 . S
C1877 C1875 1.419 . S
C1877 C1878 1.363 . S
C1877 H1880 0.929 . S
C1878 C1877 1.363 . S
C1878 C1884 1.428 . S
H1879 C1875 0.930 . S
H1880 C1877 0.929 . S
S1881 N1882 1.613 . S
S1881 N1883 1.610 . S
N1882 S1881 1.613 . S
N1882 C1885 1.350 . S
N1883 S1881 1.610 . S
N1883 C1884 1.351 . S
C1884 C1878 1.428 . S
C1884 N1883 1.351 . S
C1884 C1885 1.434 . S
C1885 C1876 1.429 . S
C1885 N1882 1.350 . S
C1885 C1884 1.434 . S
C1886 C1887 1.369 . S
C1886 C1888 1.419 . S
C1886 H1890 0.930 . S
C1887 C1886 1.369 . S
C1887 C1896 1.429 . S
C1888 C1886 1.419 . S
C1888 C1889 1.363 . S
C1888 H1891 0.929 . S
C1889 C1888 1.363 . S
C1889 C1895 1.428 . S
H1890 C1886 0.930 . S
H1891 C1888 0.929 . S
S1892 N1893 1.613 . S
S1892 N1894 1.610 . S
N1893 S1892 1.613 . S
N1893 C1896 1.350 . S
N1894 S1892 1.610 . S
N1894 C1895 1.351 . S
C1895 C1889 1.428 . S
C1895 N1894 1.351 . S
C1895 C1896 1.434 . S
C1896 C1887 1.429 . S
C1896 N1893 1.350 . S
C1896 C1895 1.434 . S
C1897 C1898 1.369 . S
C1897 C1899 1.419 . S
C1897 H1901 0.930 . S
C1898 C1897 1.369 . S
C1898 C1907 1.429 . S
C1899 C1897 1.419 . S
C1899 C1900 1.363 . S
C1899 H1902 0.929 . S
C1900 C1899 1.363 . S
C1900 C1906 1.428 . S
H1901 C1897 0.930 . S
H1902 C1899 0.929 . S
S1903 N1904 1.613 . S
S1903 N1905 1.610 . S
N1904 S1903 1.613 . S
N1904 C1907 1.350 . S
N1905 S1903 1.610 . S
N1905 C1906 1.351 . S
C1906 C1900 1.428 . S
C1906 N1905 1.351 . S
C1906 C1907 1.434 . S
C1907 C1898 1.429 . S
C1907 N1904 1.350 . S
C1907 C1906 1.434 . S
C1908 C1909 1.369 . S
C1908 C1910 1.419 . S
C1908 H1912 0.930 . S
C1909 C1908 1.369 . S
C1909 C1918 1.429 . S
C1910 C1908 1.419 . S
C1910 C1911 1.363 . S
C1910 H1913 0.929 . S
C1911 C1910 1.363 . S
C1911 C1917 1.428 . S
H1912 C1908 0.930 . S
H1913 C1910 0.929 . S
S1914 N1915 1.613 . S
S1914 N1916 1.610 . S
N1915 S1914 1.613 . S
N1915 C1918 1.350 . S
N1916 S1914 1.610 . S
N1916 C1917 1.351 . S
C1917 C1911 1.428 . S
C1917 N1916 1.351 . S
C1917 C1918 1.434 . S
C1918 C1909 1.429 . S
C1918 N1915 1.350 . S
C1918 C1917 1.434 . S
C1919 C1920 1.369 . S
C1919 C1921 1.419 . S
C1919 H1923 0.930 . S
C1920 C1919 1.369 . S
C1920 C1929 1.429 . S
C1921 C1919 1.419 . S
C1921 C1922 1.363 . S
C1921 H1924 0.929 . S
C1922 C1921 1.363 . S
C1922 C1928 1.428 . S
H1923 C1919 0.930 . S
H1924 C1921 0.929 . S
S1925 N1926 1.613 . S
S1925 N1927 1.610 . S
N1926 S1925 1.613 . S
N1926 C1929 1.350 . S
N1927 S1925 1.610 . S
N1927 C1928 1.351 . S
C1928 C1922 1.428 . S
C1928 N1927 1.351 . S
C1928 C1929 1.434 . S
C1929 C1920 1.429 . S
C1929 N1926 1.350 . S
C1929 C1928 1.434 . S
C1930 C1931 1.369 . S
C1930 C1932 1.419 . S
C1930 H1934 0.930 . S
C1931 C1930 1.369 . S
C1931 C1940 1.429 . S
C1932 C1930 1.419 . S
C1932 C1933 1.363 . S
C1932 H1935 0.929 . S
C1933 C1932 1.363 . S
C1933 C1939 1.428 . S
H1934 C1930 0.930 . S
H1935 C1932 0.929 . S
S1936 N1937 1.613 . S
S1936 N1938 1.610 . S
N1937 S1936 1.613 . S
N1937 C1940 1.350 . S
N1938 S1936 1.610 . S
N1938 C1939 1.351 . S
C1939 C1933 1.428 . S
C1939 N1938 1.351 . S
C1939 C1940 1.434 . S
C1940 C1931 1.429 . S
C1940 N1937 1.350 . S
C1940 C1939 1.434 . S
C1941 C1942 1.369 . S
C1941 C1943 1.419 . S
C1941 H1945 0.930 . S
C1942 C1941 1.369 . S
C1942 C1951 1.429 . S
C1943 C1941 1.419 . S
C1943 C1944 1.363 . S
C1943 H1946 0.929 . S
C1944 C1943 1.363 . S
C1944 C1950 1.428 . S
H1945 C1941 0.930 . S
H1946 C1943 0.929 . S
S1947 N1948 1.613 . S
S1947 N1949 1.610 . S
N1948 S1947 1.613 . S
N1948 C1951 1.350 . S
N1949 S1947 1.610 . S
N1949 C1950 1.351 . S
C1950 C1944 1.428 . S
C1950 N1949 1.351 . S
C1950 C1951 1.434 . S
C1951 C1942 1.429 . S
C1951 N1948 1.350 . S
C1951 C1950 1.434 . S
C1952 C1953 1.369 . S
C1952 C1954 1.419 . S
C1952 H1956 0.930 . S
C1953 C1952 1.369 . S
C1953 C1962 1.429 . S
C1954 C1952 1.419 . S
C1954 C1955 1.363 . S
C1954 H1957 0.929 . S
C1955 C1954 1.363 . S
C1955 C1961 1.428 . S
H1956 C1952 0.930 . S
H1957 C1954 0.929 . S
S1958 N1959 1.613 . S
S1958 N1960 1.610 . S
N1959 S1958 1.613 . S
N1959 C1962 1.350 . S
N1960 S1958 1.610 . S
N1960 C1961 1.351 . S
C1961 C1955 1.428 . S
C1961 N1960 1.351 . S
C1961 C1962 1.434 . S
C1962 C1953 1.429 . S
C1962 N1959 1.350 . S
C1962 C1961 1.434 . S
C1963 C1964 1.369 . S
C1963 C1965 1.419 . S
C1963 H1967 0.930 . S
C1964 C1963 1.369 . S
C1964 C1973 1.429 . S
C1965 C1963 1.419 . S
C1965 C1966 1.363 . S
C1965 H1968 0.929 . S
C1966 C1965 1.363 . S
C1966 C1972 1.428 . S
H1967 C1963 0.930 . S
H1968 C1965 0.929 . S
S1969 N1970 1.613 . S
S1969 N1971 1.610 . S
N1970 S1969 1.613 . S
N1970 C1973 1.350 . S
N1971 S1969 1.610 . S
N1971 C1972 1.351 . S
C1972 C1966 1.428 . S
C1972 N1971 1.351 . S
C1972 C1973 1.434 . S
C1973 C1964 1.429 . S
C1973 N1970 1.350 . S
C1973 C1972 1.434 . S
C1974 C1975 1.369 . S
C1974 C1976 1.419 . S
C1974 H1978 0.930 . S
C1975 C1974 1.369 . S
C1975 C1984 1.429 . S
C1976 C1974 1.419 . S
C1976 C1977 1.363 . S
C1976 H1979 0.929 . S
C1977 C1976 1.363 . S
C1977 C1983 1.428 . S
H1978 C1974 0.930 . S
H1979 C1976 0.929 . S
S1980 N1981 1.613 . S
S1980 N1982 1.610 . S
N1981 S1980 1.613 . S
N1981 C1984 1.350 . S
N1982 S1980 1.610 . S
N1982 C1983 1.351 . S
C1983 C1977 1.428 . S
C1983 N1982 1.351 . S
C1983 C1984 1.434 . S
C1984 C1975 1.429 . S
C1984 N1981 1.350 . S
C1984 C1983 1.434 . S
C1985 C1986 1.369 . S
C1985 C1987 1.419 . S
C1985 H1989 0.930 . S
C1986 C1985 1.369 . S
C1986 C1995 1.429 . S
C1987 C1985 1.419 . S
C1987 C1988 1.363 . S
C1987 H1990 0.929 . S
C1988 C1987 1.363 . S
C1988 C1994 1.428 . S
H1989 C1985 0.930 . S
H1990 C1987 0.929 . S
S1991 N1992 1.613 . S
S1991 N1993 1.610 . S
N1992 S1991 1.613 . S
N1992 C1995 1.350 . S
N1993 S1991 1.610 . S
N1993 C1994 1.351 . S
C1994 C1988 1.428 . S
C1994 N1993 1.351 . S
C1994 C1995 1.434 . S
C1995 C1986 1.429 . S
C1995 N1992 1.350 . S
C1995 C1994 1.434 . S
C1996 C1997 1.369 . S
C1996 C1998 1.419 . S
C1996 H2000 0.930 . S
C1997 C1996 1.369 . S
C1997 C2006 1.429 . S
C1998 C1996 1.419 . S
C1998 C1999 1.363 . S
C1998 H2001 0.929 . S
C1999 C1998 1.363 . S
C1999 C2005 1.428 . S
H2000 C1996 0.930 . S
H2001 C1998 0.929 . S
S2002 N2003 1.613 . S
S2002 N2004 1.610 . S
N2003 S2002 1.613 . S
N2003 C2006 1.350 . S
N2004 S2002 1.610 . S
N2004 C2005 1.351 . S
C2005 C1999 1.428 . S
C2005 N2004 1.351 . S
C2005 C2006 1.434 . S
C2006 C1997 1.429 . S
C2006 N2003 1.350 . S
C2006 C2005 1.434 . S
C2007 C2008 1.369 . S
C2007 C2009 1.419 . S
C2007 H2011 0.930 . S
C2008 C2007 1.369 . S
C2008 C2017 1.429 . S
C2009 C2007 1.419 . S
C2009 C2010 1.363 . S
C2009 H2012 0.929 . S
C2010 C2009 1.363 . S
C2010 C2016 1.428 . S
H2011 C2007 0.930 . S
H2012 C2009 0.929 . S
S2013 N2014 1.613 . S
S2013 N2015 1.610 . S
N2014 S2013 1.613 . S
N2014 C2017 1.350 . S
N2015 S2013 1.610 . S
N2015 C2016 1.351 . S
C2016 C2010 1.428 . S
C2016 N2015 1.351 . S
C2016 C2017 1.434 . S
C2017 C2008 1.429 . S
C2017 N2014 1.350 . S
C2017 C2016 1.434 . S
C2018 C2019 1.369 . S
C2018 C2020 1.419 . S
C2018 H2022 0.930 . S
C2019 C2018 1.369 . S
C2019 C2028 1.429 . S
C2020 C2018 1.419 . S
C2020 C2021 1.363 . S
C2020 H2023 0.929 . S
C2021 C2020 1.363 . S
C2021 C2027 1.428 . S
H2022 C2018 0.930 . S
H2023 C2020 0.929 . S
S2024 N2025 1.613 . S
S2024 N2026 1.610 . S
N2025 S2024 1.613 . S
N2025 C2028 1.350 . S
N2026 S2024 1.610 . S
N2026 C2027 1.351 . S
C2027 C2021 1.428 . S
C2027 N2026 1.351 . S
C2027 C2028 1.434 . S
C2028 C2019 1.429 . S
C2028 N2025 1.350 . S
C2028 C2027 1.434 . S
C2029 C2030 1.369 . S
C2029 C2031 1.419 . S
C2029 H2033 0.930 . S
C2030 C2029 1.369 . S
C2030 C2039 1.429 . S
C2031 C2029 1.419 . S
C2031 C2032 1.363 . S
C2031 H2034 0.929 . S
C2032 C2031 1.363 . S
C2032 C2038 1.428 . S
H2033 C2029 0.930 . S
H2034 C2031 0.929 . S
S2035 N2036 1.613 . S
S2035 N2037 1.610 . S
N2036 S2035 1.613 . S
N2036 C2039 1.350 . S
N2037 S2035 1.610 . S
N2037 C2038 1.351 . S
C2038 C2032 1.428 . S
C2038 N2037 1.351 . S
C2038 C2039 1.434 . S
C2039 C2030 1.429 . S
C2039 N2036 1.350 . S
C2039 C2038 1.434 . S
C2040 C2041 1.369 . S
C2040 C2042 1.419 . S
C2040 H2044 0.930 . S
C2041 C2040 1.369 . S
C2041 C2050 1.429 . S
C2042 C2040 1.419 . S
C2042 C2043 1.363 . S
C2042 H2045 0.929 . S
C2043 C2042 1.363 . S
C2043 C2049 1.428 . S
H2044 C2040 0.930 . S
H2045 C2042 0.929 . S
S2046 N2047 1.613 . S
S2046 N2048 1.610 . S
N2047 S2046 1.613 . S
N2047 C2050 1.350 . S
N2048 S2046 1.610 . S
N2048 C2049 1.351 . S
C2049 C2043 1.428 . S
C2049 N2048 1.351 . S
C2049 C2050 1.434 . S
C2050 C2041 1.429 . S
C2050 N2047 1.350 . S
C2050 C2049 1.434 . S
C2051 C2052 1.369 . S
C2051 C2053 1.419 . S
C2051 H2055 0.930 . S
C2052 C2051 1.369 . S
C2052 C2061 1.429 . S
C2053 C2051 1.419 . S
C2053 C2054 1.363 . S
C2053 H2056 0.929 . S
C2054 C2053 1.363 . S
C2054 C2060 1.428 . S
H2055 C2051 0.930 . S
H2056 C2053 0.929 . S
S2057 N2058 1.613 . S
S2057 N2059 1.610 . S
N2058 S2057 1.613 . S
N2058 C2061 1.350 . S
N2059 S2057 1.610 . S
N2059 C2060 1.351 . S
C2060 C2054 1.428 . S
C2060 N2059 1.351 . S
C2060 C2061 1.434 . S
C2061 C2052 1.429 . S
C2061 N2058 1.350 . S
C2061 C2060 1.434 . S
C2062 C2063 1.369 . S
C2062 C2064 1.419 . S
C2062 H2066 0.930 . S
C2063 C2062 1.369 . S
C2063 C2072 1.429 . S
C2064 C2062 1.419 . S
C2064 C2065 1.363 . S
C2064 H2067 0.929 . S
C2065 C2064 1.363 . S
C2065 C2071 1.428 . S
H2066 C2062 0.930 . S
H2067 C2064 0.929 . S
S2068 N2069 1.613 . S
S2068 N2070 1.610 . S
N2069 S2068 1.613 . S
N2069 C2072 1.350 . S
N2070 S2068 1.610 . S
N2070 C2071 1.351 . S
C2071 C2065 1.428 . S
C2071 N2070 1.351 . S
C2071 C2072 1.434 . S
C2072 C2063 1.429 . S
C2072 N2069 1.350 . S
C2072 C2071 1.434 . S
C2073 C2074 1.369 . S
C2073 C2075 1.419 . S
C2073 H2077 0.930 . S
C2074 C2073 1.369 . S
C2074 C2083 1.429 . S
C2075 C2073 1.419 . S
C2075 C2076 1.363 . S
C2075 H2078 0.929 . S
C2076 C2075 1.363 . S
C2076 C2082 1.428 . S
H2077 C2073 0.930 . S
H2078 C2075 0.929 . S
S2079 N2080 1.613 . S
S2079 N2081 1.610 . S
N2080 S2079 1.613 . S
N2080 C2083 1.350 . S
N2081 S2079 1.610 . S
N2081 C2082 1.351 . S
C2082 C2076 1.428 . S
C2082 N2081 1.351 . S
C2082 C2083 1.434 . S
C2083 C2074 1.429 . S
C2083 N2080 1.350 . S
C2083 C2082 1.434 . S
C2084 C2085 1.369 . S
C2084 C2086 1.419 . S
C2084 H2088 0.930 . S
C2085 C2084 1.369 . S
C2085 C2094 1.429 . S
C2086 C2084 1.419 . S
C2086 C2087 1.363 . S
C2086 H2089 0.929 . S
C2087 C2086 1.363 . S
C2087 C2093 1.428 . S
H2088 C2084 0.930 . S
H2089 C2086 0.929 . S
S2090 N2091 1.613 . S
S2090 N2092 1.610 . S
N2091 S2090 1.613 . S
N2091 C2094 1.350 . S
N2092 S2090 1.610 . S
N2092 C2093 1.351 . S
C2093 C2087 1.428 . S
C2093 N2092 1.351 . S
C2093 C2094 1.434 . S
C2094 C2085 1.429 . S
C2094 N2091 1.350 . S
C2094 C2093 1.434 . S
C2095 C2096 1.369 . S
C2095 C2097 1.419 . S
C2095 H2099 0.930 . S
C2096 C2095 1.369 . S
C2096 C2105 1.429 . S
C2097 C2095 1.419 . S
C2097 C2098 1.363 . S
C2097 H2100 0.929 . S
C2098 C2097 1.363 . S
C2098 C2104 1.428 . S
H2099 C2095 0.930 . S
H2100 C2097 0.929 . S
S2101 N2102 1.613 . S
S2101 N2103 1.610 . S
N2102 S2101 1.613 . S
N2102 C2105 1.350 . S
N2103 S2101 1.610 . S
N2103 C2104 1.351 . S
C2104 C2098 1.428 . S
C2104 N2103 1.351 . S
C2104 C2105 1.434 . S
C2105 C2096 1.429 . S
C2105 N2102 1.350 . S
C2105 C2104 1.434 . S
C2106 C2107 1.369 . S
C2106 C2108 1.419 . S
C2106 H2110 0.930 . S
C2107 C2106 1.369 . S
C2107 C2116 1.429 . S
C2108 C2106 1.419 . S
C2108 C2109 1.363 . S
C2108 H2111 0.929 . S
C2109 C2108 1.363 . S
C2109 C2115 1.428 . S
H2110 C2106 0.930 . S
H2111 C2108 0.929 . S
S2112 N2113 1.613 . S
S2112 N2114 1.610 . S
N2113 S2112 1.613 . S
N2113 C2116 1.350 . S
N2114 S2112 1.610 . S
N2114 C2115 1.351 . S
C2115 C2109 1.428 . S
C2115 N2114 1.351 . S
C2115 C2116 1.434 . S
C2116 C2107 1.429 . S
C2116 N2113 1.350 . S
C2116 C2115 1.434 . S
C2117 C2118 1.369 . S
C2117 C2119 1.419 . S
C2117 H2121 0.930 . S
C2118 C2117 1.369 . S
C2118 C2127 1.429 . S
C2119 C2117 1.419 . S
C2119 C2120 1.363 . S
C2119 H2122 0.929 . S
C2120 C2119 1.363 . S
C2120 C2126 1.428 . S
H2121 C2117 0.930 . S
H2122 C2119 0.929 . S
S2123 N2124 1.613 . S
S2123 N2125 1.610 . S
N2124 S2123 1.613 . S
N2124 C2127 1.350 . S
N2125 S2123 1.610 . S
N2125 C2126 1.351 . S
C2126 C2120 1.428 . S
C2126 N2125 1.351 . S
C2126 C2127 1.434 . S
C2127 C2118 1.429 . S
C2127 N2124 1.350 . S
C2127 C2126 1.434 . S
C2128 C2129 1.369 . S
C2128 C2130 1.419 . S
C2128 H2132 0.930 . S
C2129 C2128 1.369 . S
C2129 C2138 1.429 . S
C2130 C2128 1.419 . S
C2130 C2131 1.363 . S
C2130 H2133 0.929 . S
C2131 C2130 1.363 . S
C2131 C2137 1.428 . S
H2132 C2128 0.930 . S
H2133 C2130 0.929 . S
S2134 N2135 1.613 . S
S2134 N2136 1.610 . S
N2135 S2134 1.613 . S
N2135 C2138 1.350 . S
N2136 S2134 1.610 . S
N2136 C2137 1.351 . S
C2137 C2131 1.428 . S
C2137 N2136 1.351 . S
C2137 C2138 1.434 . S
C2138 C2129 1.429 . S
C2138 N2135 1.350 . S
C2138 C2137 1.434 . S
C2139 C2140 1.369 . S
C2139 C2141 1.419 . S
C2139 H2143 0.930 . S
C2140 C2139 1.369 . S
C2140 C2149 1.429 . S
C2141 C2139 1.419 . S
C2141 C2142 1.363 . S
C2141 H2144 0.929 . S
C2142 C2141 1.363 . S
C2142 C2148 1.428 . S
H2143 C2139 0.930 . S
H2144 C2141 0.929 . S
S2145 N2146 1.613 . S
S2145 N2147 1.610 . S
N2146 S2145 1.613 . S
N2146 C2149 1.350 . S
N2147 S2145 1.610 . S
N2147 C2148 1.351 . S
C2148 C2142 1.428 . S
C2148 N2147 1.351 . S
C2148 C2149 1.434 . S
C2149 C2140 1.429 . S
C2149 N2146 1.350 . S
C2149 C2148 1.434 . S
C2150 C2151 1.369 . S
C2150 C2152 1.419 . S
C2150 H2154 0.930 . S
C2151 C2150 1.369 . S
C2151 C2160 1.429 . S
C2152 C2150 1.419 . S
C2152 C2153 1.363 . S
C2152 H2155 0.929 . S
C2153 C2152 1.363 . S
C2153 C2159 1.428 . S
H2154 C2150 0.930 . S
H2155 C2152 0.929 . S
S2156 N2157 1.613 . S
S2156 N2158 1.610 . S
N2157 S2156 1.613 . S
N2157 C2160 1.350 . S
N2158 S2156 1.610 . S
N2158 C2159 1.351 . S
C2159 C2153 1.428 . S
C2159 N2158 1.351 . S
C2159 C2160 1.434 . S
C2160 C2151 1.429 . S
C2160 N2157 1.350 . S
C2160 C2159 1.434 . S
C2161 C2162 1.369 . S
C2161 C2163 1.419 . S
C2161 H2165 0.930 . S
C2162 C2161 1.369 . S
C2162 C2171 1.429 . S
C2163 C2161 1.419 . S
C2163 C2164 1.363 . S
C2163 H2166 0.929 . S
C2164 C2163 1.363 . S
C2164 C2170 1.428 . S
H2165 C2161 0.930 . S
H2166 C2163 0.929 . S
S2167 N2168 1.613 . S
S2167 N2169 1.610 . S
N2168 S2167 1.613 . S
N2168 C2171 1.350 . S
N2169 S2167 1.610 . S
N2169 C2170 1.351 . S
C2170 C2164 1.428 . S
C2170 N2169 1.351 . S
C2170 C2171 1.434 . S
C2171 C2162 1.429 . S
C2171 N2168 1.350 . S
C2171 C2170 1.434 . S
C2172 C2173 1.369 . S
C2172 C2174 1.419 . S
C2172 H2176 0.930 . S
C2173 C2172 1.369 . S
C2173 C2182 1.429 . S
C2174 C2172 1.419 . S
C2174 C2175 1.363 . S
C2174 H2177 0.929 . S
C2175 C2174 1.363 . S
C2175 C2181 1.428 . S
H2176 C2172 0.930 . S
H2177 C2174 0.929 . S
S2178 N2179 1.613 . S
S2178 N2180 1.610 . S
N2179 S2178 1.613 . S
N2179 C2182 1.350 . S
N2180 S2178 1.610 . S
N2180 C2181 1.351 . S
C2181 C2175 1.428 . S
C2181 N2180 1.351 . S
C2181 C2182 1.434 . S
C2182 C2173 1.429 . S
C2182 N2179 1.350 . S
C2182 C2181 1.434 . S
C2183 C2184 1.369 . S
C2183 C2185 1.419 . S
C2183 H2187 0.930 . S
C2184 C2183 1.369 . S
C2184 C2193 1.429 . S
C2185 C2183 1.419 . S
C2185 C2186 1.363 . S
C2185 H2188 0.929 . S
C2186 C2185 1.363 . S
C2186 C2192 1.428 . S
H2187 C2183 0.930 . S
H2188 C2185 0.929 . S
S2189 N2190 1.613 . S
S2189 N2191 1.610 . S
N2190 S2189 1.613 . S
N2190 C2193 1.350 . S
N2191 S2189 1.610 . S
N2191 C2192 1.351 . S
C2192 C2186 1.428 . S
C2192 N2191 1.351 . S
C2192 C2193 1.434 . S
C2193 C2184 1.429 . S
C2193 N2190 1.350 . S
C2193 C2192 1.434 . S
C2194 C2195 1.369 . S
C2194 C2196 1.419 . S
C2194 H2198 0.930 . S
C2195 C2194 1.369 . S
C2195 C2204 1.429 . S
C2196 C2194 1.419 . S
C2196 C2197 1.363 . S
C2196 H2199 0.929 . S
C2197 C2196 1.363 . S
C2197 C2203 1.428 . S
H2198 C2194 0.930 . S
H2199 C2196 0.929 . S
S2200 N2201 1.613 . S
S2200 N2202 1.610 . S
N2201 S2200 1.613 . S
N2201 C2204 1.350 . S
N2202 S2200 1.610 . S
N2202 C2203 1.351 . S
C2203 C2197 1.428 . S
C2203 N2202 1.351 . S
C2203 C2204 1.434 . S
C2204 C2195 1.429 . S
C2204 N2201 1.350 . S
C2204 C2203 1.434 . S
C2205 C2206 1.369 . S
C2205 C2207 1.419 . S
C2205 H2209 0.930 . S
C2206 C2205 1.369 . S
C2206 C2215 1.429 . S
C2207 C2205 1.419 . S
C2207 C2208 1.363 . S
C2207 H2210 0.929 . S
C2208 C2207 1.363 . S
C2208 C2214 1.428 . S
H2209 C2205 0.930 . S
H2210 C2207 0.929 . S
S2211 N2212 1.613 . S
S2211 N2213 1.610 . S
N2212 S2211 1.613 . S
N2212 C2215 1.350 . S
N2213 S2211 1.610 . S
N2213 C2214 1.351 . S
C2214 C2208 1.428 . S
C2214 N2213 1.351 . S
C2214 C2215 1.434 . S
C2215 C2206 1.429 . S
C2215 N2212 1.350 . S
C2215 C2214 1.434 . S
C2216 C2217 1.369 . S
C2216 C2218 1.419 . S
C2216 H2220 0.930 . S
C2217 C2216 1.369 . S
C2217 C2226 1.429 . S
C2218 C2216 1.419 . S
C2218 C2219 1.363 . S
C2218 H2221 0.929 . S
C2219 C2218 1.363 . S
C2219 C2225 1.428 . S
H2220 C2216 0.930 . S
H2221 C2218 0.929 . S
S2222 N2223 1.613 . S
S2222 N2224 1.610 . S
N2223 S2222 1.613 . S
N2223 C2226 1.350 . S
N2224 S2222 1.610 . S
N2224 C2225 1.351 . S
C2225 C2219 1.428 . S
C2225 N2224 1.351 . S
C2225 C2226 1.434 . S
C2226 C2217 1.429 . S
C2226 N2223 1.350 . S
C2226 C2225 1.434 . S
C2227 C2228 1.369 . S
C2227 C2229 1.419 . S
C2227 H2231 0.930 . S
C2228 C2227 1.369 . S
C2228 C2237 1.429 . S
C2229 C2227 1.419 . S
C2229 C2230 1.363 . S
C2229 H2232 0.929 . S
C2230 C2229 1.363 . S
C2230 C2236 1.428 . S
H2231 C2227 0.930 . S
H2232 C2229 0.929 . S
S2233 N2234 1.613 . S
S2233 N2235 1.610 . S
N2234 S2233 1.613 . S
N2234 C2237 1.350 . S
N2235 S2233 1.610 . S
N2235 C2236 1.351 . S
C2236 C2230 1.428 . S
C2236 N2235 1.351 . S
C2236 C2237 1.434 . S
C2237 C2228 1.429 . S
C2237 N2234 1.350 . S
C2237 C2236 1.434 . S
C2238 C2239 1.369 . S
C2238 C2240 1.419 . S
C2238 H2242 0.930 . S
C2239 C2238 1.369 . S
C2239 C2248 1.429 . S
C2240 C2238 1.419 . S
C2240 C2241 1.363 . S
C2240 H2243 0.929 . S
C2241 C2240 1.363 . S
C2241 C2247 1.428 . S
H2242 C2238 0.930 . S
H2243 C2240 0.929 . S
S2244 N2245 1.613 . S
S2244 N2246 1.610 . S
N2245 S2244 1.613 . S
N2245 C2248 1.350 . S
N2246 S2244 1.610 . S
N2246 C2247 1.351 . S
C2247 C2241 1.428 . S
C2247 N2246 1.351 . S
C2247 C2248 1.434 . S
C2248 C2239 1.429 . S
C2248 N2245 1.350 . S
C2248 C2247 1.434 . S
C2249 C2250 1.369 . S
C2249 C2251 1.419 . S
C2249 H2253 0.930 . S
C2250 C2249 1.369 . S
C2250 C2259 1.429 . S
C2251 C2249 1.419 . S
C2251 C2252 1.363 . S
C2251 H2254 0.929 . S
C2252 C2251 1.363 . S
C2252 C2258 1.428 . S
H2253 C2249 0.930 . S
H2254 C2251 0.929 . S
S2255 N2256 1.613 . S
S2255 N2257 1.610 . S
N2256 S2255 1.613 . S
N2256 C2259 1.350 . S
N2257 S2255 1.610 . S
N2257 C2258 1.351 . S
C2258 C2252 1.428 . S
C2258 N2257 1.351 . S
C2258 C2259 1.434 . S
C2259 C2250 1.429 . S
C2259 N2256 1.350 . S
C2259 C2258 1.434 . S
C2260 C2261 1.369 . S
C2260 C2262 1.419 . S
C2260 H2264 0.930 . S
C2261 C2260 1.369 . S
C2261 C2270 1.429 . S
C2262 C2260 1.419 . S
C2262 C2263 1.363 . S
C2262 H2265 0.929 . S
C2263 C2262 1.363 . S
C2263 C2269 1.428 . S
H2264 C2260 0.930 . S
H2265 C2262 0.929 . S
S2266 N2267 1.613 . S
S2266 N2268 1.610 . S
N2267 S2266 1.613 . S
N2267 C2270 1.350 . S
N2268 S2266 1.610 . S
N2268 C2269 1.351 . S
C2269 C2263 1.428 . S
C2269 N2268 1.351 . S
C2269 C2270 1.434 . S
C2270 C2261 1.429 . S
C2270 N2267 1.350 . S
C2270 C2269 1.434 . S
C2271 C2272 1.369 . S
C2271 C2273 1.419 . S
C2271 H2275 0.930 . S
C2272 C2271 1.369 . S
C2272 C2281 1.429 . S
C2273 C2271 1.419 . S
C2273 C2274 1.363 . S
C2273 H2276 0.929 . S
C2274 C2273 1.363 . S
C2274 C2280 1.428 . S
H2275 C2271 0.930 . S
H2276 C2273 0.929 . S
S2277 N2278 1.613 . S
S2277 N2279 1.610 . S
N2278 S2277 1.613 . S
N2278 C2281 1.350 . S
N2279 S2277 1.610 . S
N2279 C2280 1.351 . S
C2280 C2274 1.428 . S
C2280 N2279 1.351 . S
C2280 C2281 1.434 . S
C2281 C2272 1.429 . S
C2281 N2278 1.350 . S
C2281 C2280 1.434 . S
C2282 C2283 1.369 . S
C2282 C2284 1.419 . S
C2282 H2286 0.930 . S
C2283 C2282 1.369 . S
C2283 C2292 1.429 . S
C2284 C2282 1.419 . S
C2284 C2285 1.363 . S
C2284 H2287 0.929 . S
C2285 C2284 1.363 . S
C2285 C2291 1.428 . S
H2286 C2282 0.930 . S
H2287 C2284 0.929 . S
S2288 N2289 1.613 . S
S2288 N2290 1.610 . S
N2289 S2288 1.613 . S
N2289 C2292 1.350 . S
N2290 S2288 1.610 . S
N2290 C2291 1.351 . S
C2291 C2285 1.428 . S
C2291 N2290 1.351 . S
C2291 C2292 1.434 . S
C2292 C2283 1.429 . S
C2292 N2289 1.350 . S
C2292 C2291 1.434 . S
C2293 C2294 1.369 . S
C2293 C2295 1.419 . S
C2293 H2297 0.930 . S
C2294 C2293 1.369 . S
C2294 C2303 1.429 . S
C2295 C2293 1.419 . S
C2295 C2296 1.363 . S
C2295 H2298 0.929 . S
C2296 C2295 1.363 . S
C2296 C2302 1.428 . S
H2297 C2293 0.930 . S
H2298 C2295 0.929 . S
S2299 N2300 1.613 . S
S2299 N2301 1.610 . S
N2300 S2299 1.613 . S
N2300 C2303 1.350 . S
N2301 S2299 1.610 . S
N2301 C2302 1.351 . S
C2302 C2296 1.428 . S
C2302 N2301 1.351 . S
C2302 C2303 1.434 . S
C2303 C2294 1.429 . S
C2303 N2300 1.350 . S
C2303 C2302 1.434 . S
C2304 C2305 1.369 . S
C2304 C2306 1.419 . S
C2304 H2308 0.930 . S
C2305 C2304 1.369 . S
C2305 C2314 1.429 . S
C2306 C2304 1.419 . S
C2306 C2307 1.363 . S
C2306 H2309 0.929 . S
C2307 C2306 1.363 . S
C2307 C2313 1.428 . S
H2308 C2304 0.930 . S
H2309 C2306 0.929 . S
S2310 N2311 1.613 . S
S2310 N2312 1.610 . S
N2311 S2310 1.613 . S
N2311 C2314 1.350 . S
N2312 S2310 1.610 . S
N2312 C2313 1.351 . S
C2313 C2307 1.428 . S
C2313 N2312 1.351 . S
C2313 C2314 1.434 . S
C2314 C2305 1.429 . S
C2314 N2311 1.350 . S
C2314 C2313 1.434 . S
C2315 C2316 1.369 . S
C2315 C2317 1.419 . S
C2315 H2319 0.930 . S
C2316 C2315 1.369 . S
C2316 C2325 1.429 . S
C2317 C2315 1.419 . S
C2317 C2318 1.363 . S
C2317 H2320 0.929 . S
C2318 C2317 1.363 . S
C2318 C2324 1.428 . S
H2319 C2315 0.930 . S
H2320 C2317 0.929 . S
S2321 N2322 1.613 . S
S2321 N2323 1.610 . S
N2322 S2321 1.613 . S
N2322 C2325 1.350 . S
N2323 S2321 1.610 . S
N2323 C2324 1.351 . S
C2324 C2318 1.428 . S
C2324 N2323 1.351 . S
C2324 C2325 1.434 . S
C2325 C2316 1.429 . S
C2325 N2322 1.350 . S
C2325 C2324 1.434 . S
C2326 C2327 1.369 . S
C2326 C2328 1.419 . S
C2326 H2330 0.930 . S
C2327 C2326 1.369 . S
C2327 C2336 1.429 . S
C2328 C2326 1.419 . S
C2328 C2329 1.363 . S
C2328 H2331 0.929 . S
C2329 C2328 1.363 . S
C2329 C2335 1.428 . S
H2330 C2326 0.930 . S
H2331 C2328 0.929 . S
S2332 N2333 1.613 . S
S2332 N2334 1.610 . S
N2333 S2332 1.613 . S
N2333 C2336 1.350 . S
N2334 S2332 1.610 . S
N2334 C2335 1.351 . S
C2335 C2329 1.428 . S
C2335 N2334 1.351 . S
C2335 C2336 1.434 . S
C2336 C2327 1.429 . S
C2336 N2333 1.350 . S
C2336 C2335 1.434 . S
C2337 C2338 1.369 . S
C2337 C2339 1.419 . S
C2337 H2341 0.930 . S
C2338 C2337 1.369 . S
C2338 C2347 1.429 . S
C2339 C2337 1.419 . S
C2339 C2340 1.363 . S
C2339 H2342 0.929 . S
C2340 C2339 1.363 . S
C2340 C2346 1.428 . S
H2341 C2337 0.930 . S
H2342 C2339 0.929 . S
S2343 N2344 1.613 . S
S2343 N2345 1.610 . S
N2344 S2343 1.613 . S
N2344 C2347 1.350 . S
N2345 S2343 1.610 . S
N2345 C2346 1.351 . S
C2346 C2340 1.428 . S
C2346 N2345 1.351 . S
C2346 C2347 1.434 . S
C2347 C2338 1.429 . S
C2347 N2344 1.350 . S
C2347 C2346 1.434 . S
C2348 C2349 1.369 . S
C2348 C2350 1.419 . S
C2348 H2352 0.930 . S
C2349 C2348 1.369 . S
C2349 C2358 1.429 . S
C2350 C2348 1.419 . S
C2350 C2351 1.363 . S
C2350 H2353 0.929 . S
C2351 C2350 1.363 . S
C2351 C2357 1.428 . S
H2352 C2348 0.930 . S
H2353 C2350 0.929 . S
S2354 N2355 1.613 . S
S2354 N2356 1.610 . S
N2355 S2354 1.613 . S
N2355 C2358 1.350 . S
N2356 S2354 1.610 . S
N2356 C2357 1.351 . S
C2357 C2351 1.428 . S
C2357 N2356 1.351 . S
C2357 C2358 1.434 . S
C2358 C2349 1.429 . S
C2358 N2355 1.350 . S
C2358 C2357 1.434 . S
C2359 C2360 1.369 . S
C2359 C2361 1.419 . S
C2359 H2363 0.930 . S
C2360 C2359 1.369 . S
C2360 C2369 1.429 . S
C2361 C2359 1.419 . S
C2361 C2362 1.363 . S
C2361 H2364 0.929 . S
C2362 C2361 1.363 . S
C2362 C2368 1.428 . S
H2363 C2359 0.930 . S
H2364 C2361 0.929 . S
S2365 N2366 1.613 . S
S2365 N2367 1.610 . S
N2366 S2365 1.613 . S
N2366 C2369 1.350 . S
N2367 S2365 1.610 . S
N2367 C2368 1.351 . S
C2368 C2362 1.428 . S
C2368 N2367 1.351 . S
C2368 C2369 1.434 . S
C2369 C2360 1.429 . S
C2369 N2366 1.350 . S
C2369 C2368 1.434 . S
C2370 C2371 1.369 . S
C2370 C2372 1.419 . S
C2370 H2374 0.930 . S
C2371 C2370 1.369 . S
C2371 C2380 1.429 . S
C2372 C2370 1.419 . S
C2372 C2373 1.363 . S
C2372 H2375 0.929 . S
C2373 C2372 1.363 . S
C2373 C2379 1.428 . S
H2374 C2370 0.930 . S
H2375 C2372 0.929 . S
S2376 N2377 1.613 . S
S2376 N2378 1.610 . S
N2377 S2376 1.613 . S
N2377 C2380 1.350 . S
N2378 S2376 1.610 . S
N2378 C2379 1.351 . S
C2379 C2373 1.428 . S
C2379 N2378 1.351 . S
C2379 C2380 1.434 . S
C2380 C2371 1.429 . S
C2380 N2377 1.350 . S
C2380 C2379 1.434 . S
C2381 C2382 1.369 . S
C2381 C2383 1.419 . S
C2381 H2385 0.930 . S
C2382 C2381 1.369 . S
C2382 C2391 1.429 . S
C2383 C2381 1.419 . S
C2383 C2384 1.363 . S
C2383 H2386 0.929 . S
C2384 C2383 1.363 . S
C2384 C2390 1.428 . S
H2385 C2381 0.930 . S
H2386 C2383 0.929 . S
S2387 N2388 1.613 . S
S2387 N2389 1.610 . S
N2388 S2387 1.613 . S
N2388 C2391 1.350 . S
N2389 S2387 1.610 . S
N2389 C2390 1.351 . S
C2390 C2384 1.428 . S
C2390 N2389 1.351 . S
C2390 C2391 1.434 . S
C2391 C2382 1.429 . S
C2391 N2388 1.350 . S
C2391 C2390 1.434 . S
C2392 C2393 1.369 . S
C2392 C2394 1.419 . S
C2392 H2396 0.930 . S
C2393 C2392 1.369 . S
C2393 C2402 1.429 . S
C2394 C2392 1.419 . S
C2394 C2395 1.363 . S
C2394 H2397 0.929 . S
C2395 C2394 1.363 . S
C2395 C2401 1.428 . S
H2396 C2392 0.930 . S
H2397 C2394 0.929 . S
S2398 N2399 1.613 . S
S2398 N2400 1.610 . S
N2399 S2398 1.613 . S
N2399 C2402 1.350 . S
N2400 S2398 1.610 . S
N2400 C2401 1.351 . S
C2401 C2395 1.428 . S
C2401 N2400 1.351 . S
C2401 C2402 1.434 . S
C2402 C2393 1.429 . S
C2402 N2399 1.350 . S
C2402 C2401 1.434 . S
C2403 C2404 1.369 . S
C2403 C2405 1.419 . S
C2403 H2407 0.930 . S
C2404 C2403 1.369 . S
C2404 C2413 1.429 . S
C2405 C2403 1.419 . S
C2405 C2406 1.363 . S
C2405 H2408 0.929 . S
C2406 C2405 1.363 . S
C2406 C2412 1.428 . S
H2407 C2403 0.930 . S
H2408 C2405 0.929 . S
S2409 N2410 1.613 . S
S2409 N2411 1.610 . S
N2410 S2409 1.613 . S
N2410 C2413 1.350 . S
N2411 S2409 1.610 . S
N2411 C2412 1.351 . S
C2412 C2406 1.428 . S
C2412 N2411 1.351 . S
C2412 C2413 1.434 . S
C2413 C2404 1.429 . S
C2413 N2410 1.350 . S
C2413 C2412 1.434 . S
C2414 C2415 1.369 . S
C2414 C2416 1.419 . S
C2414 H2418 0.930 . S
C2415 C2414 1.369 . S
C2415 C2424 1.429 . S
C2416 C2414 1.419 . S
C2416 C2417 1.363 . S
C2416 H2419 0.929 . S
C2417 C2416 1.363 . S
C2417 C2423 1.428 . S
H2418 C2414 0.930 . S
H2419 C2416 0.929 . S
S2420 N2421 1.613 . S
S2420 N2422 1.610 . S
N2421 S2420 1.613 . S
N2421 C2424 1.350 . S
N2422 S2420 1.610 . S
N2422 C2423 1.351 . S
C2423 C2417 1.428 . S
C2423 N2422 1.351 . S
C2423 C2424 1.434 . S
C2424 C2415 1.429 . S
C2424 N2421 1.350 . S
C2424 C2423 1.434 . S
C2425 C2426 1.369 . S
C2425 C2427 1.419 . S
C2425 H2429 0.930 . S
C2426 C2425 1.369 . S
C2426 C2435 1.429 . S
C2427 C2425 1.419 . S
C2427 C2428 1.363 . S
C2427 H2430 0.929 . S
C2428 C2427 1.363 . S
C2428 C2434 1.428 . S
H2429 C2425 0.930 . S
H2430 C2427 0.929 . S
S2431 N2432 1.613 . S
S2431 N2433 1.610 . S
N2432 S2431 1.613 . S
N2432 C2435 1.350 . S
N2433 S2431 1.610 . S
N2433 C2434 1.351 . S
C2434 C2428 1.428 . S
C2434 N2433 1.351 . S
C2434 C2435 1.434 . S
C2435 C2426 1.429 . S
C2435 N2432 1.350 . S
C2435 C2434 1.434 . S
C2436 C2437 1.369 . S
C2436 C2438 1.419 . S
C2436 H2440 0.930 . S
C2437 C2436 1.369 . S
C2437 C2446 1.429 . S
C2438 C2436 1.419 . S
C2438 C2439 1.363 . S
C2438 H2441 0.929 . S
C2439 C2438 1.363 . S
C2439 C2445 1.428 . S
H2440 C2436 0.930 . S
H2441 C2438 0.929 . S
S2442 N2443 1.613 . S
S2442 N2444 1.610 . S
N2443 S2442 1.613 . S
N2443 C2446 1.350 . S
N2444 S2442 1.610 . S
N2444 C2445 1.351 . S
C2445 C2439 1.428 . S
C2445 N2444 1.351 . S
C2445 C2446 1.434 . S
C2446 C2437 1.429 . S
C2446 N2443 1.350 . S
C2446 C2445 1.434 . S
C2447 C2448 1.369 . S
C2447 C2449 1.419 . S
C2447 H2451 0.930 . S
C2448 C2447 1.369 . S
C2448 C2457 1.429 . S
C2449 C2447 1.419 . S
C2449 C2450 1.363 . S
C2449 H2452 0.929 . S
C2450 C2449 1.363 . S
C2450 C2456 1.428 . S
H2451 C2447 0.930 . S
H2452 C2449 0.929 . S
S2453 N2454 1.613 . S
S2453 N2455 1.610 . S
N2454 S2453 1.613 . S
N2454 C2457 1.350 . S
N2455 S2453 1.610 . S
N2455 C2456 1.351 . S
C2456 C2450 1.428 . S
C2456 N2455 1.351 . S
C2456 C2457 1.434 . S
C2457 C2448 1.429 . S
C2457 N2454 1.350 . S
C2457 C2456 1.434 . S
C2458 C2459 1.369 . S
C2458 C2460 1.419 . S
C2458 H2462 0.930 . S
C2459 C2458 1.369 . S
C2459 C2468 1.429 . S
C2460 C2458 1.419 . S
C2460 C2461 1.363 . S
C2460 H2463 0.929 . S
C2461 C2460 1.363 . S
C2461 C2467 1.428 . S
H2462 C2458 0.930 . S
H2463 C2460 0.929 . S
S2464 N2465 1.613 . S
S2464 N2466 1.610 . S
N2465 S2464 1.613 . S
N2465 C2468 1.350 . S
N2466 S2464 1.610 . S
N2466 C2467 1.351 . S
C2467 C2461 1.428 . S
C2467 N2466 1.351 . S
C2467 C2468 1.434 . S
C2468 C2459 1.429 . S
C2468 N2465 1.350 . S
C2468 C2467 1.434 . S
C2469 C2470 1.369 . S
C2469 C2471 1.419 . S
C2469 H2473 0.930 . S
C2470 C2469 1.369 . S
C2470 C2479 1.429 . S
C2471 C2469 1.419 . S
C2471 C2472 1.363 . S
C2471 H2474 0.929 . S
C2472 C2471 1.363 . S
C2472 C2478 1.428 . S
H2473 C2469 0.930 . S
H2474 C2471 0.929 . S
S2475 N2476 1.613 . S
S2475 N2477 1.610 . S
N2476 S2475 1.613 . S
N2476 C2479 1.350 . S
N2477 S2475 1.610 . S
N2477 C2478 1.351 . S
C2478 C2472 1.428 . S
C2478 N2477 1.351 . S
C2478 C2479 1.434 . S
C2479 C2470 1.429 . S
C2479 N2476 1.350 . S
C2479 C2478 1.434 . S
C2480 C2481 1.369 . S
C2480 C2482 1.419 . S
C2480 H2484 0.930 . S
C2481 C2480 1.369 . S
C2481 C2490 1.429 . S
C2482 C2480 1.419 . S
C2482 C2483 1.363 . S
C2482 H2485 0.929 . S
C2483 C2482 1.363 . S
C2483 C2489 1.428 . S
H2484 C2480 0.930 . S
H2485 C2482 0.929 . S
S2486 N2487 1.613 . S
S2486 N2488 1.610 . S
N2487 S2486 1.613 . S
N2487 C2490 1.350 . S
N2488 S2486 1.610 . S
N2488 C2489 1.351 . S
C2489 C2483 1.428 . S
C2489 N2488 1.351 . S
C2489 C2490 1.434 . S
C2490 C2481 1.429 . S
C2490 N2487 1.350 . S
C2490 C2489 1.434 . S
C2491 C2492 1.369 . S
C2491 C2493 1.419 . S
C2491 H2495 0.930 . S
C2492 C2491 1.369 . S
C2492 C2501 1.429 . S
C2493 C2491 1.419 . S
C2493 C2494 1.363 . S
C2493 H2496 0.929 . S
C2494 C2493 1.363 . S
C2494 C2500 1.428 . S
H2495 C2491 0.930 . S
H2496 C2493 0.929 . S
S2497 N2498 1.613 . S
S2497 N2499 1.610 . S
N2498 S2497 1.613 . S
N2498 C2501 1.350 . S
N2499 S2497 1.610 . S
N2499 C2500 1.351 . S
C2500 C2494 1.428 . S
C2500 N2499 1.351 . S
C2500 C2501 1.434 . S
C2501 C2492 1.429 . S
C2501 N2498 1.350 . S
C2501 C2500 1.434 . S
C2502 C2503 1.369 . S
C2502 C2504 1.419 . S
C2502 H2506 0.930 . S
C2503 C2502 1.369 . S
C2503 C2512 1.429 . S
C2504 C2502 1.419 . S
C2504 C2505 1.363 . S
C2504 H2507 0.929 . S
C2505 C2504 1.363 . S
C2505 C2511 1.428 . S
H2506 C2502 0.930 . S
H2507 C2504 0.929 . S
S2508 N2509 1.613 . S
S2508 N2510 1.610 . S
N2509 S2508 1.613 . S
N2509 C2512 1.350 . S
N2510 S2508 1.610 . S
N2510 C2511 1.351 . S
C2511 C2505 1.428 . S
C2511 N2510 1.351 . S
C2511 C2512 1.434 . S
C2512 C2503 1.429 . S
C2512 N2509 1.350 . S
C2512 C2511 1.434 . S
C2513 C2514 1.369 . S
C2513 C2515 1.419 . S
C2513 H2517 0.930 . S
C2514 C2513 1.369 . S
C2514 C2523 1.429 . S
C2515 C2513 1.419 . S
C2515 C2516 1.363 . S
C2515 H2518 0.929 . S
C2516 C2515 1.363 . S
C2516 C2522 1.428 . S
H2517 C2513 0.930 . S
H2518 C2515 0.929 . S
S2519 N2520 1.613 . S
S2519 N2521 1.610 . S
N2520 S2519 1.613 . S
N2520 C2523 1.350 . S
N2521 S2519 1.610 . S
N2521 C2522 1.351 . S
C2522 C2516 1.428 . S
C2522 N2521 1.351 . S
C2522 C2523 1.434 . S
C2523 C2514 1.429 . S
C2523 N2520 1.350 . S
C2523 C2522 1.434 . S
C2524 C2525 1.369 . S
C2524 C2526 1.419 . S
C2524 H2528 0.930 . S
C2525 C2524 1.369 . S
C2525 C2534 1.429 . S
C2526 C2524 1.419 . S
C2526 C2527 1.363 . S
C2526 H2529 0.929 . S
C2527 C2526 1.363 . S
C2527 C2533 1.428 . S
H2528 C2524 0.930 . S
H2529 C2526 0.929 . S
S2530 N2531 1.613 . S
S2530 N2532 1.610 . S
N2531 S2530 1.613 . S
N2531 C2534 1.350 . S
N2532 S2530 1.610 . S
N2532 C2533 1.351 . S
C2533 C2527 1.428 . S
C2533 N2532 1.351 . S
C2533 C2534 1.434 . S
C2534 C2525 1.429 . S
C2534 N2531 1.350 . S
C2534 C2533 1.434 . S
C2535 C2536 1.369 . S
C2535 C2537 1.419 . S
C2535 H2539 0.930 . S
C2536 C2535 1.369 . S
C2536 C2545 1.429 . S
C2537 C2535 1.419 . S
C2537 C2538 1.363 . S
C2537 H2540 0.929 . S
C2538 C2537 1.363 . S
C2538 C2544 1.428 . S
H2539 C2535 0.930 . S
H2540 C2537 0.929 . S
S2541 N2542 1.613 . S
S2541 N2543 1.610 . S
N2542 S2541 1.613 . S
N2542 C2545 1.350 . S
N2543 S2541 1.610 . S
N2543 C2544 1.351 . S
C2544 C2538 1.428 . S
C2544 N2543 1.351 . S
C2544 C2545 1.434 . S
C2545 C2536 1.429 . S
C2545 N2542 1.350 . S
C2545 C2544 1.434 . S
C2546 C2547 1.369 . S
C2546 C2548 1.419 . S
C2546 H2550 0.930 . S
C2547 C2546 1.369 . S
C2547 C2556 1.429 . S
C2548 C2546 1.419 . S
C2548 C2549 1.363 . S
C2548 H2551 0.929 . S
C2549 C2548 1.363 . S
C2549 C2555 1.428 . S
H2550 C2546 0.930 . S
H2551 C2548 0.929 . S
S2552 N2553 1.613 . S
S2552 N2554 1.610 . S
N2553 S2552 1.613 . S
N2553 C2556 1.350 . S
N2554 S2552 1.610 . S
N2554 C2555 1.351 . S
C2555 C2549 1.428 . S
C2555 N2554 1.351 . S
C2555 C2556 1.434 . S
C2556 C2547 1.429 . S
C2556 N2553 1.350 . S
C2556 C2555 1.434 . S
C2557 C2558 1.369 . S
C2557 C2559 1.419 . S
C2557 H2561 0.930 . S
C2558 C2557 1.369 . S
C2558 C2567 1.429 . S
C2559 C2557 1.419 . S
C2559 C2560 1.363 . S
C2559 H2562 0.929 . S
C2560 C2559 1.363 . S
C2560 C2566 1.428 . S
H2561 C2557 0.930 . S
H2562 C2559 0.929 . S
S2563 N2564 1.613 . S
S2563 N2565 1.610 . S
N2564 S2563 1.613 . S
N2564 C2567 1.350 . S
N2565 S2563 1.610 . S
N2565 C2566 1.351 . S
C2566 C2560 1.428 . S
C2566 N2565 1.351 . S
C2566 C2567 1.434 . S
C2567 C2558 1.429 . S
C2567 N2564 1.350 . S
C2567 C2566 1.434 . S
C2568 C2569 1.369 . S
C2568 C2570 1.419 . S
C2568 H2572 0.930 . S
C2569 C2568 1.369 . S
C2569 C2578 1.429 . S
C2570 C2568 1.419 . S
C2570 C2571 1.363 . S
C2570 H2573 0.929 . S
C2571 C2570 1.363 . S
C2571 C2577 1.428 . S
H2572 C2568 0.930 . S
H2573 C2570 0.929 . S
S2574 N2575 1.613 . S
S2574 N2576 1.610 . S
N2575 S2574 1.613 . S
N2575 C2578 1.350 . S
N2576 S2574 1.610 . S
N2576 C2577 1.351 . S
C2577 C2571 1.428 . S
C2577 N2576 1.351 . S
C2577 C2578 1.434 . S
C2578 C2569 1.429 . S
C2578 N2575 1.350 . S
C2578 C2577 1.434 . S
C2579 C2580 1.369 . S
C2579 C2581 1.419 . S
C2579 H2583 0.930 . S
C2580 C2579 1.369 . S
C2580 C2589 1.429 . S
C2581 C2579 1.419 . S
C2581 C2582 1.363 . S
C2581 H2584 0.929 . S
C2582 C2581 1.363 . S
C2582 C2588 1.428 . S
H2583 C2579 0.930 . S
H2584 C2581 0.929 . S
S2585 N2586 1.613 . S
S2585 N2587 1.610 . S
N2586 S2585 1.613 . S
N2586 C2589 1.350 . S
N2587 S2585 1.610 . S
N2587 C2588 1.351 . S
C2588 C2582 1.428 . S
C2588 N2587 1.351 . S
C2588 C2589 1.434 . S
C2589 C2580 1.429 . S
C2589 N2586 1.350 . S
C2589 C2588 1.434 . S
C2590 C2591 1.369 . S
C2590 C2592 1.419 . S
C2590 H2594 0.930 . S
C2591 C2590 1.369 . S
C2591 C2600 1.429 . S
C2592 C2590 1.419 . S
C2592 C2593 1.363 . S
C2592 H2595 0.929 . S
C2593 C2592 1.363 . S
C2593 C2599 1.428 . S
H2594 C2590 0.930 . S
H2595 C2592 0.929 . S
S2596 N2597 1.613 . S
S2596 N2598 1.610 . S
N2597 S2596 1.613 . S
N2597 C2600 1.350 . S
N2598 S2596 1.610 . S
N2598 C2599 1.351 . S
C2599 C2593 1.428 . S
C2599 N2598 1.351 . S
C2599 C2600 1.434 . S
C2600 C2591 1.429 . S
C2600 N2597 1.350 . S
C2600 C2599 1.434 . S
C2601 C2602 1.369 . S
C2601 C2603 1.419 . S
C2601 H2605 0.930 . S
C2602 C2601 1.369 . S
C2602 C2611 1.429 . S
C2603 C2601 1.419 . S
C2603 C2604 1.363 . S
C2603 H2606 0.929 . S
C2604 C2603 1.363 . S
C2604 C2610 1.428 . S
H2605 C2601 0.930 . S
H2606 C2603 0.929 . S
S2607 N2608 1.613 . S
S2607 N2609 1.610 . S
N2608 S2607 1.613 . S
N2608 C2611 1.350 . S
N2609 S2607 1.610 . S
N2609 C2610 1.351 . S
C2610 C2604 1.428 . S
C2610 N2609 1.351 . S
C2610 C2611 1.434 . S
C2611 C2602 1.429 . S
C2611 N2608 1.350 . S
C2611 C2610 1.434 . S
C2612 C2613 1.369 . S
C2612 C2614 1.419 . S
C2612 H2616 0.930 . S
C2613 C2612 1.369 . S
C2613 C2622 1.429 . S
C2614 C2612 1.419 . S
C2614 C2615 1.363 . S
C2614 H2617 0.929 . S
C2615 C2614 1.363 . S
C2615 C2621 1.428 . S
H2616 C2612 0.930 . S
H2617 C2614 0.929 . S
S2618 N2619 1.613 . S
S2618 N2620 1.610 . S
N2619 S2618 1.613 . S
N2619 C2622 1.350 . S
N2620 S2618 1.610 . S
N2620 C2621 1.351 . S
C2621 C2615 1.428 . S
C2621 N2620 1.351 . S
C2621 C2622 1.434 . S
C2622 C2613 1.429 . S
C2622 N2619 1.350 . S
C2622 C2621 1.434 . S
C2623 C2624 1.369 . S
C2623 C2625 1.419 . S
C2623 H2627 0.930 . S
C2624 C2623 1.369 . S
C2624 C2633 1.429 . S
C2625 C2623 1.419 . S
C2625 C2626 1.363 . S
C2625 H2628 0.929 . S
C2626 C2625 1.363 . S
C2626 C2632 1.428 . S
H2627 C2623 0.930 . S
H2628 C2625 0.929 . S
S2629 N2630 1.613 . S
S2629 N2631 1.610 . S
N2630 S2629 1.613 . S
N2630 C2633 1.350 . S
N2631 S2629 1.610 . S
N2631 C2632 1.351 . S
C2632 C2626 1.428 . S
C2632 N2631 1.351 . S
C2632 C2633 1.434 . S
C2633 C2624 1.429 . S
C2633 N2630 1.350 . S
C2633 C2632 1.434 . S
C2634 C2635 1.369 . S
C2634 C2636 1.419 . S
C2634 H2638 0.930 . S
C2635 C2634 1.369 . S
C2635 C2644 1.429 . S
C2636 C2634 1.419 . S
C2636 C2637 1.363 . S
C2636 H2639 0.929 . S
C2637 C2636 1.363 . S
C2637 C2643 1.428 . S
H2638 C2634 0.930 . S
H2639 C2636 0.929 . S
S2640 N2641 1.613 . S
S2640 N2642 1.610 . S
N2641 S2640 1.613 . S
N2641 C2644 1.350 . S
N2642 S2640 1.610 . S
N2642 C2643 1.351 . S
C2643 C2637 1.428 . S
C2643 N2642 1.351 . S
C2643 C2644 1.434 . S
C2644 C2635 1.429 . S
C2644 N2641 1.350 . S
C2644 C2643 1.434 . S
C2645 C2646 1.369 . S
C2645 C2647 1.419 . S
C2645 H2649 0.930 . S
C2646 C2645 1.369 . S
C2646 C2655 1.429 . S
C2647 C2645 1.419 . S
C2647 C2648 1.363 . S
C2647 H2650 0.929 . S
C2648 C2647 1.363 . S
C2648 C2654 1.428 . S
H2649 C2645 0.930 . S
H2650 C2647 0.929 . S
S2651 N2652 1.613 . S
S2651 N2653 1.610 . S
N2652 S2651 1.613 . S
N2652 C2655 1.350 . S
N2653 S2651 1.610 . S
N2653 C2654 1.351 . S
C2654 C2648 1.428 . S
C2654 N2653 1.351 . S
C2654 C2655 1.434 . S
C2655 C2646 1.429 . S
C2655 N2652 1.350 . S
C2655 C2654 1.434 . S
C2656 C2657 1.369 . S
C2656 C2658 1.419 . S
C2656 H2660 0.930 . S
C2657 C2656 1.369 . S
C2657 C2666 1.429 . S
C2658 C2656 1.419 . S
C2658 C2659 1.363 . S
C2658 H2661 0.929 . S
C2659 C2658 1.363 . S
C2659 C2665 1.428 . S
H2660 C2656 0.930 . S
H2661 C2658 0.929 . S
S2662 N2663 1.613 . S
S2662 N2664 1.610 . S
N2663 S2662 1.613 . S
N2663 C2666 1.350 . S
N2664 S2662 1.610 . S
N2664 C2665 1.351 . S
C2665 C2659 1.428 . S
C2665 N2664 1.351 . S
C2665 C2666 1.434 . S
C2666 C2657 1.429 . S
C2666 N2663 1.350 . S
C2666 C2665 1.434 . S
C2667 C2668 1.369 . S
C2667 C2669 1.419 . S
C2667 H2671 0.930 . S
C2668 C2667 1.369 . S
C2668 C2677 1.429 . S
C2669 C2667 1.419 . S
C2669 C2670 1.363 . S
C2669 H2672 0.929 . S
C2670 C2669 1.363 . S
C2670 C2676 1.428 . S
H2671 C2667 0.930 . S
H2672 C2669 0.929 . S
S2673 N2674 1.613 . S
S2673 N2675 1.610 . S
N2674 S2673 1.613 . S
N2674 C2677 1.350 . S
N2675 S2673 1.610 . S
N2675 C2676 1.351 . S
C2676 C2670 1.428 . S
C2676 N2675 1.351 . S
C2676 C2677 1.434 . S
C2677 C2668 1.429 . S
C2677 N2674 1.350 . S
C2677 C2676 1.434 . S
C2678 C2679 1.369 . S
C2678 C2680 1.419 . S
C2678 H2682 0.930 . S
C2679 C2678 1.369 . S
C2679 C2688 1.429 . S
C2680 C2678 1.419 . S
C2680 C2681 1.363 . S
C2680 H2683 0.929 . S
C2681 C2680 1.363 . S
C2681 C2687 1.428 . S
H2682 C2678 0.930 . S
H2683 C2680 0.929 . S
S2684 N2685 1.613 . S
S2684 N2686 1.610 . S
N2685 S2684 1.613 . S
N2685 C2688 1.350 . S
N2686 S2684 1.610 . S
N2686 C2687 1.351 . S
C2687 C2681 1.428 . S
C2687 N2686 1.351 . S
C2687 C2688 1.434 . S
C2688 C2679 1.429 . S
C2688 N2685 1.350 . S
C2688 C2687 1.434 . S
C2689 C2690 1.369 . S
C2689 C2691 1.419 . S
C2689 H2693 0.930 . S
C2690 C2689 1.369 . S
C2690 C2699 1.429 . S
C2691 C2689 1.419 . S
C2691 C2692 1.363 . S
C2691 H2694 0.929 . S
C2692 C2691 1.363 . S
C2692 C2698 1.428 . S
H2693 C2689 0.930 . S
H2694 C2691 0.929 . S
S2695 N2696 1.613 . S
S2695 N2697 1.610 . S
N2696 S2695 1.613 . S
N2696 C2699 1.350 . S
N2697 S2695 1.610 . S
N2697 C2698 1.351 . S
C2698 C2692 1.428 . S
C2698 N2697 1.351 . S
C2698 C2699 1.434 . S
C2699 C2690 1.429 . S
C2699 N2696 1.350 . S
C2699 C2698 1.434 . S
C2700 C2701 1.369 . S
C2700 C2702 1.419 . S
C2700 H2704 0.930 . S
C2701 C2700 1.369 . S
C2701 C2710 1.429 . S
C2702 C2700 1.419 . S
C2702 C2703 1.363 . S
C2702 H2705 0.929 . S
C2703 C2702 1.363 . S
C2703 C2709 1.428 . S
H2704 C2700 0.930 . S
H2705 C2702 0.929 . S
S2706 N2707 1.613 . S
S2706 N2708 1.610 . S
N2707 S2706 1.613 . S
N2707 C2710 1.350 . S
N2708 S2706 1.610 . S
N2708 C2709 1.351 . S
C2709 C2703 1.428 . S
C2709 N2708 1.351 . S
C2709 C2710 1.434 . S
C2710 C2701 1.429 . S
C2710 N2707 1.350 . S
C2710 C2709 1.434 . S
C2711 C2712 1.369 . S
C2711 C2713 1.419 . S
C2711 H2715 0.930 . S
C2712 C2711 1.369 . S
C2712 C2721 1.429 . S
C2713 C2711 1.419 . S
C2713 C2714 1.363 . S
C2713 H2716 0.929 . S
C2714 C2713 1.363 . S
C2714 C2720 1.428 . S
H2715 C2711 0.930 . S
H2716 C2713 0.929 . S
S2717 N2718 1.613 . S
S2717 N2719 1.610 . S
N2718 S2717 1.613 . S
N2718 C2721 1.350 . S
N2719 S2717 1.610 . S
N2719 C2720 1.351 . S
C2720 C2714 1.428 . S
C2720 N2719 1.351 . S
C2720 C2721 1.434 . S
C2721 C2712 1.429 . S
C2721 N2718 1.350 . S
C2721 C2720 1.434 . S
C2722 C2723 1.369 . S
C2722 C2724 1.419 . S
C2722 H2726 0.930 . S
C2723 C2722 1.369 . S
C2723 C2732 1.429 . S
C2724 C2722 1.419 . S
C2724 C2725 1.363 . S
C2724 H2727 0.929 . S
C2725 C2724 1.363 . S
C2725 C2731 1.428 . S
H2726 C2722 0.930 . S
H2727 C2724 0.929 . S
S2728 N2729 1.613 . S
S2728 N2730 1.610 . S
N2729 S2728 1.613 . S
N2729 C2732 1.350 . S
N2730 S2728 1.610 . S
N2730 C2731 1.351 . S
C2731 C2725 1.428 . S
C2731 N2730 1.351 . S
C2731 C2732 1.434 . S
C2732 C2723 1.429 . S
C2732 N2729 1.350 . S
C2732 C2731 1.434 . S
C2733 C2734 1.369 . S
C2733 C2735 1.419 . S
C2733 H2737 0.930 . S
C2734 C2733 1.369 . S
C2734 C2743 1.429 . S
C2735 C2733 1.419 . S
C2735 C2736 1.363 . S
C2735 H2738 0.929 . S
C2736 C2735 1.363 . S
C2736 C2742 1.428 . S
H2737 C2733 0.930 . S
H2738 C2735 0.929 . S
S2739 N2740 1.613 . S
S2739 N2741 1.610 . S
N2740 S2739 1.613 . S
N2740 C2743 1.350 . S
N2741 S2739 1.610 . S
N2741 C2742 1.351 . S
C2742 C2736 1.428 . S
C2742 N2741 1.351 . S
C2742 C2743 1.434 . S
C2743 C2734 1.429 . S
C2743 N2740 1.350 . S
C2743 C2742 1.434 . S
C2744 C2745 1.369 . S
C2744 C2746 1.419 . S
C2744 H2748 0.930 . S
C2745 C2744 1.369 . S
C2745 C2754 1.429 . S
C2746 C2744 1.419 . S
C2746 C2747 1.363 . S
C2746 H2749 0.929 . S
C2747 C2746 1.363 . S
C2747 C2753 1.428 . S
H2748 C2744 0.930 . S
H2749 C2746 0.929 . S
S2750 N2751 1.613 . S
S2750 N2752 1.610 . S
N2751 S2750 1.613 . S
N2751 C2754 1.350 . S
N2752 S2750 1.610 . S
N2752 C2753 1.351 . S
C2753 C2747 1.428 . S
C2753 N2752 1.351 . S
C2753 C2754 1.434 . S
C2754 C2745 1.429 . S
C2754 N2751 1.350 . S
C2754 C2753 1.434 . S
C2755 C2756 1.369 . S
C2755 C2757 1.419 . S
C2755 H2759 0.930 . S
C2756 C2755 1.369 . S
C2756 C2765 1.429 . S
C2757 C2755 1.419 . S
C2757 C2758 1.363 . S
C2757 H2760 0.929 . S
C2758 C2757 1.363 . S
C2758 C2764 1.428 . S
H2759 C2755 0.930 . S
H2760 C2757 0.929 . S
S2761 N2762 1.613 . S
S2761 N2763 1.610 . S
N2762 S2761 1.613 . S
N2762 C2765 1.350 . S
N2763 S2761 1.610 . S
N2763 C2764 1.351 . S
C2764 C2758 1.428 . S
C2764 N2763 1.351 . S
C2764 C2765 1.434 . S
C2765 C2756 1.429 . S
C2765 N2762 1.350 . S
C2765 C2764 1.434 . S
C2766 C2767 1.369 . S
C2766 C2768 1.419 . S
C2766 H2770 0.930 . S
C2767 C2766 1.369 . S
C2767 C2776 1.429 . S
C2768 C2766 1.419 . S
C2768 C2769 1.363 . S
C2768 H2771 0.929 . S
C2769 C2768 1.363 . S
C2769 C2775 1.428 . S
H2770 C2766 0.930 . S
H2771 C2768 0.929 . S
S2772 N2773 1.613 . S
S2772 N2774 1.610 . S
N2773 S2772 1.613 . S
N2773 C2776 1.350 . S
N2774 S2772 1.610 . S
N2774 C2775 1.351 . S
C2775 C2769 1.428 . S
C2775 N2774 1.351 . S
C2775 C2776 1.434 . S
C2776 C2767 1.429 . S
C2776 N2773 1.350 . S
C2776 C2775 1.434 . S
C2777 C2778 1.369 . S
C2777 C2779 1.419 . S
C2777 H2781 0.930 . S
C2778 C2777 1.369 . S
C2778 C2787 1.429 . S
C2779 C2777 1.419 . S
C2779 C2780 1.363 . S
C2779 H2782 0.929 . S
C2780 C2779 1.363 . S
C2780 C2786 1.428 . S
H2781 C2777 0.930 . S
H2782 C2779 0.929 . S
S2783 N2784 1.613 . S
S2783 N2785 1.610 . S
N2784 S2783 1.613 . S
N2784 C2787 1.350 . S
N2785 S2783 1.610 . S
N2785 C2786 1.351 . S
C2786 C2780 1.428 . S
C2786 N2785 1.351 . S
C2786 C2787 1.434 . S
C2787 C2778 1.429 . S
C2787 N2784 1.350 . S
C2787 C2786 1.434 . S
C2788 C2789 1.369 . S
C2788 C2790 1.419 . S
C2788 H2792 0.930 . S
C2789 C2788 1.369 . S
C2789 C2798 1.429 . S
C2790 C2788 1.419 . S
C2790 C2791 1.363 . S
C2790 H2793 0.929 . S
C2791 C2790 1.363 . S
C2791 C2797 1.428 . S
H2792 C2788 0.930 . S
H2793 C2790 0.929 . S
S2794 N2795 1.613 . S
S2794 N2796 1.610 . S
N2795 S2794 1.613 . S
N2795 C2798 1.350 . S
N2796 S2794 1.610 . S
N2796 C2797 1.351 . S
C2797 C2791 1.428 . S
C2797 N2796 1.351 . S
C2797 C2798 1.434 . S
C2798 C2789 1.429 . S
C2798 N2795 1.350 . S
C2798 C2797 1.434 . S
C2799 C2800 1.369 . S
C2799 C2801 1.419 . S
C2799 H2803 0.930 . S
C2800 C2799 1.369 . S
C2800 C2809 1.429 . S
C2801 C2799 1.419 . S
C2801 C2802 1.363 . S
C2801 H2804 0.929 . S
C2802 C2801 1.363 . S
C2802 C2808 1.428 . S
H2803 C2799 0.930 . S
H2804 C2801 0.929 . S
S2805 N2806 1.613 . S
S2805 N2807 1.610 . S
N2806 S2805 1.613 . S
N2806 C2809 1.350 . S
N2807 S2805 1.610 . S
N2807 C2808 1.351 . S
C2808 C2802 1.428 . S
C2808 N2807 1.351 . S
C2808 C2809 1.434 . S
C2809 C2800 1.429 . S
C2809 N2806 1.350 . S
C2809 C2808 1.434 . S
C2810 C2811 1.369 . S
C2810 C2812 1.419 . S
C2810 H2814 0.930 . S
C2811 C2810 1.369 . S
C2811 C2820 1.429 . S
C2812 C2810 1.419 . S
C2812 C2813 1.363 . S
C2812 H2815 0.929 . S
C2813 C2812 1.363 . S
C2813 C2819 1.428 . S
H2814 C2810 0.930 . S
H2815 C2812 0.929 . S
S2816 N2817 1.613 . S
S2816 N2818 1.610 . S
N2817 S2816 1.613 . S
N2817 C2820 1.350 . S
N2818 S2816 1.610 . S
N2818 C2819 1.351 . S
C2819 C2813 1.428 . S
C2819 N2818 1.351 . S
C2819 C2820 1.434 . S
C2820 C2811 1.429 . S
C2820 N2817 1.350 . S
C2820 C2819 1.434 . S
C2821 C2822 1.369 . S
C2821 C2823 1.419 . S
C2821 H2825 0.930 . S
C2822 C2821 1.369 . S
C2822 C2831 1.429 . S
C2823 C2821 1.419 . S
C2823 C2824 1.363 . S
C2823 H2826 0.929 . S
C2824 C2823 1.363 . S
C2824 C2830 1.428 . S
H2825 C2821 0.930 . S
H2826 C2823 0.929 . S
S2827 N2828 1.613 . S
S2827 N2829 1.610 . S
N2828 S2827 1.613 . S
N2828 C2831 1.350 . S
N2829 S2827 1.610 . S
N2829 C2830 1.351 . S
C2830 C2824 1.428 . S
C2830 N2829 1.351 . S
C2830 C2831 1.434 . S
C2831 C2822 1.429 . S
C2831 N2828 1.350 . S
C2831 C2830 1.434 . S
C2832 C2833 1.369 . S
C2832 C2834 1.419 1_655 S
C2832 H2836 0.930 . S
C2833 C2832 1.369 . S
C2833 C2842 1.429 . S
C2834 C2832 1.419 1_455 S
C2834 C2835 1.363 . S
C2834 H2837 0.929 . S
C2835 C2834 1.363 . S
C2835 C2841 1.428 . S
H2836 C2832 0.930 . S
H2837 C2834 0.929 . S
S2838 N2839 1.613 . S
S2838 N2840 1.610 1_655 S
N2839 S2838 1.613 . S
N2839 C2842 1.350 . S
N2840 S2838 1.610 1_455 S
N2840 C2841 1.351 . S
C2841 C2835 1.428 . S
C2841 N2840 1.351 . S
C2841 C2842 1.434 1_455 S
C2842 C2833 1.429 . S
C2842 N2839 1.350 . S
C2842 C2841 1.434 1_655 S
C2843 C2844 1.369 . S
C2843 C2845 1.419 1_545 S
C2843 H2847 0.930 . S
C2844 C2843 1.369 . S
C2844 C2853 1.429 . S
C2845 C2843 1.419 1_565 S
C2845 C2846 1.363 . S
C2845 H2848 0.929 . S
C2846 C2845 1.363 . S
C2846 C2852 1.428 . S
H2847 C2843 0.930 . S
H2848 C2845 0.929 . S
S2849 N2850 1.613 1_565 S
S2849 N2851 1.610 . S
N2850 S2849 1.613 1_545 S
N2850 C2853 1.350 . S
N2851 S2849 1.610 . S
N2851 C2852 1.351 . S
C2852 C2846 1.428 . S
C2852 N2851 1.351 . S
C2852 C2853 1.434 1_565 S
C2853 C2844 1.429 . S
C2853 N2850 1.350 . S
C2853 C2852 1.434 1_545 S
C2854 C2855 1.369 . S
C2854 C2856 1.419 1_455 S
C2854 H2858 0.930 . S
C2855 C2854 1.369 . S
C2855 C2864 1.429 . S
C2856 C2854 1.419 1_655 S
C2856 C2857 1.363 . S
C2856 H2859 0.929 . S
C2857 C2856 1.363 . S
C2857 C2863 1.428 . S
H2858 C2854 0.930 . S
H2859 C2856 0.929 . S
S2860 N2861 1.613 1_655 S
S2860 N2862 1.610 . S
N2861 S2860 1.613 1_455 S
N2861 C2864 1.350 . S
N2862 S2860 1.610 . S
N2862 C2863 1.351 . S
C2863 C2857 1.428 . S
C2863 N2862 1.351 . S
C2863 C2864 1.434 1_655 S
C2864 C2855 1.429 . S
C2864 N2861 1.350 . S
C2864 C2863 1.434 1_455 S
C2865 C2866 1.369 . S
C2865 C2867 1.419 1_565 S
C2865 H2869 0.930 . S
C2866 C2865 1.369 . S
C2866 C2875 1.429 . S
C2867 C2865 1.419 1_545 S
C2867 C2868 1.363 . S
C2867 H2870 0.929 . S
C2868 C2867 1.363 . S
C2868 C2874 1.428 . S
H2869 C2865 0.930 . S
H2870 C2867 0.929 . S
S2871 N2872 1.613 1_545 S
S2871 N2873 1.610 . S
N2872 S2871 1.613 1_565 S
N2872 C2875 1.350 . S
N2873 S2871 1.610 . S
N2873 C2874 1.351 . S
C2874 C2868 1.428 . S
C2874 N2873 1.351 . S
C2874 C2875 1.434 1_545 S
C2875 C2866 1.429 . S
C2875 N2872 1.350 . S
C2875 C2874 1.434 1_565 S
C2876 C2877 1.369 . S
C2876 C2878 1.419 1_655 S
C2876 H2880 0.930 . S
C2877 C2876 1.369 . S
C2877 C2886 1.429 . S
C2878 C2876 1.419 1_455 S
C2878 C2879 1.363 . S
C2878 H2881 0.929 . S
C2879 C2878 1.363 . S
C2879 C2885 1.428 . S
H2880 C2876 0.930 . S
H2881 C2878 0.929 . S
S2882 N2883 1.613 1_455 S
S2882 N2884 1.610 . S
N2883 S2882 1.613 1_655 S
N2883 C2886 1.350 . S
N2884 S2882 1.610 . S
N2884 C2885 1.351 . S
C2885 C2879 1.428 . S
C2885 N2884 1.351 . S
C2885 C2886 1.434 1_455 S
C2886 C2877 1.429 . S
C2886 N2883 1.350 . S
C2886 C2885 1.434 1_655 S
C2887 C2888 1.369 . S
C2887 C2889 1.419 1_565 S
C2887 H2891 0.930 . S
C2888 C2887 1.369 . S
C2888 C2897 1.429 . S
C2889 C2887 1.419 1_545 S
C2889 C2890 1.363 . S
C2889 H2892 0.929 . S
C2890 C2889 1.363 . S
C2890 C2896 1.428 . S
H2891 C2887 0.930 . S
H2892 C2889 0.929 . S
S2893 N2894 1.613 1_545 S
S2893 N2895 1.610 . S
N2894 S2893 1.613 1_565 S
N2894 C2897 1.350 . S
N2895 S2893 1.610 . S
N2895 C2896 1.351 . S
C2896 C2890 1.428 . S
C2896 N2895 1.351 . S
C2896 C2897 1.434 1_545 S
C2897 C2888 1.429 . S
C2897 N2894 1.350 . S
C2897 C2896 1.434 1_565 S
C2898 C2899 1.369 . S
C2898 C2900 1.419 1_655 S
C2898 H2902 0.930 . S
C2899 C2898 1.369 . S
C2899 C2908 1.429 . S
C2900 C2898 1.419 1_455 S
C2900 C2901 1.363 . S
C2900 H2903 0.929 . S
C2901 C2900 1.363 . S
C2901 C2907 1.428 . S
H2902 C2898 0.930 . S
H2903 C2900 0.929 . S
S2904 N2905 1.582 1_455 S
S2904 N2906 1.642 . S
N2905 S2904 1.582 1_655 S
N2905 C2908 1.350 . S
N2906 S2904 1.642 . S
N2906 C2907 1.351 . S
C2907 C2901 1.428 . S
C2907 N2906 1.351 . S
C2907 C2908 1.434 1_455 S
C2908 C2899 1.429 . S
C2908 N2905 1.350 . S
C2908 C2907 1.434 1_655 S
C2909 C2910 1.369 . S
C2909 C2911 1.419 1_565 S
C2909 H2913 0.930 . S
C2910 C2909 1.369 . S
C2910 C2919 1.429 . S
C2911 C2909 1.419 1_545 S
C2911 C2912 1.363 . S
C2911 H2914 0.929 . S
C2912 C2911 1.363 . S
C2912 C2918 1.428 . S
H2913 C2909 0.930 . S
H2914 C2911 0.929 . S
S2915 N2916 1.613 . S
S2915 N2917 1.610 1_565 S
N2916 S2915 1.613 . S
N2916 C2919 1.350 . S
N2917 S2915 1.610 1_545 S
N2917 C2918 1.351 . S
C2918 C2912 1.428 . S
C2918 N2917 1.351 . S
C2918 C2919 1.434 1_545 S
C2919 C2910 1.429 . S
C2919 N2916 1.350 . S
C2919 C2918 1.434 1_565 S
C2920 C2921 1.369 . S
C2920 C2922 1.419 1_565 S
C2920 H2924 0.930 . S
C2921 C2920 1.369 . S
C2921 C2930 1.429 . S
C2922 C2920 1.419 1_545 S
C2922 C2923 1.363 . S
C2922 H2925 0.929 . S
C2923 C2922 1.363 . S
C2923 C2929 1.428 . S
H2924 C2920 0.930 . S
H2925 C2922 0.929 . S
S2926 N2927 1.613 1_545 S
S2926 N2928 1.610 . S
N2927 S2926 1.613 1_565 S
N2927 C2930 1.350 . S
N2928 S2926 1.610 . S
N2928 C2929 1.351 . S
C2929 C2923 1.428 . S
C2929 N2928 1.351 . S
C2929 C2930 1.434 1_545 S
C2930 C2921 1.429 . S
C2930 N2927 1.350 . S
C2930 C2929 1.434 1_565 S
C2931 C2932 1.369 . S
C2931 C2933 1.419 1_655 S
C2931 H2935 0.930 . S
C2932 C2931 1.369 . S
C2932 C2941 1.429 . S
C2933 C2931 1.419 1_455 S
C2933 C2934 1.363 . S
C2933 H2936 0.929 . S
C2934 C2933 1.363 . S
C2934 C2940 1.428 . S
H2935 C2931 0.930 . S
H2936 C2933 0.929 . S
S2937 N2938 1.613 . S
S2937 N2939 1.610 1_655 S
N2938 S2937 1.613 . S
N2938 C2941 1.350 . S
N2939 S2937 1.610 1_455 S
N2939 C2940 1.351 . S
C2940 C2934 1.428 . S
C2940 N2939 1.351 . S
C2940 C2941 1.434 1_455 S
C2941 C2932 1.429 . S
C2941 N2938 1.350 . S
C2941 C2940 1.434 1_655 S
C2942 C2943 1.369 . S
C2942 C2944 1.419 1_565 S
C2942 H2946 0.930 . S
C2943 C2942 1.369 . S
C2943 C2952 1.429 . S
C2944 C2942 1.419 1_545 S
C2944 C2945 1.363 . S
C2944 H2947 0.929 . S
C2945 C2944 1.363 . S
C2945 C2951 1.428 . S
H2946 C2942 0.930 . S
H2947 C2944 0.929 . S
S2948 N2949 1.613 1_545 S
S2948 N2950 1.610 . S
N2949 S2948 1.613 1_565 S
N2949 C2952 1.350 . S
N2950 S2948 1.610 . S
N2950 C2951 1.351 . S
C2951 C2945 1.428 . S
C2951 N2950 1.351 . S
C2951 C2952 1.434 1_545 S
C2952 C2943 1.429 . S
C2952 N2949 1.350 . S
C2952 C2951 1.434 1_565 S
C2953 C2954 1.369 . S
C2953 C2955 1.419 1_655 S
C2953 H2957 0.930 . S
C2954 C2953 1.369 . S
C2954 C2963 1.429 . S
C2955 C2953 1.419 1_455 S
C2955 C2956 1.363 . S
C2955 H2958 0.929 . S
C2956 C2955 1.363 . S
C2956 C2962 1.428 . S
H2957 C2953 0.930 . S
H2958 C2955 0.929 . S
S2959 N2960 1.613 1_455 S
S2959 N2961 1.610 . S
N2960 S2959 1.613 1_655 S
N2960 C2963 1.350 . S
N2961 S2959 1.610 . S
N2961 C2962 1.351 . S
C2962 C2956 1.428 . S
C2962 N2961 1.351 . S
C2962 C2963 1.434 1_455 S
C2963 C2954 1.429 . S
C2963 N2960 1.350 . S
C2963 C2962 1.434 1_655 S
C2964 C2965 1.369 . S
C2964 C2966 1.419 1_565 S
C2964 H2968 0.930 . S
C2965 C2964 1.369 . S
C2965 C2974 1.429 . S
C2966 C2964 1.419 1_545 S
C2966 C2967 1.363 . S
C2966 H2969 0.929 . S
C2967 C2966 1.363 . S
C2967 C2973 1.428 . S
H2968 C2964 0.930 . S
H2969 C2966 0.929 . S
S2970 N2971 1.613 . S
S2970 N2972 1.610 1_565 S
N2971 S2970 1.613 . S
N2971 C2974 1.350 . S
N2972 S2970 1.610 1_545 S
N2972 C2973 1.351 . S
C2973 C2967 1.428 . S
C2973 N2972 1.351 . S
C2973 C2974 1.434 1_545 S
C2974 C2965 1.429 . S
C2974 N2971 1.350 . S
C2974 C2973 1.434 1_565 S
C2975 C2976 1.369 . S
C2975 C2977 1.419 1_655 S
C2975 H2979 0.930 . S
C2976 C2975 1.369 . S
C2976 C2985 1.429 . S
C2977 C2975 1.419 1_455 S
C2977 C2978 1.363 . S
C2977 H2980 0.929 . S
C2978 C2977 1.363 . S
C2978 C2984 1.428 . S
H2979 C2975 0.930 . S
H2980 C2977 0.929 . S
S2981 N2982 1.613 1_455 S
S2981 N2983 1.610 . S
N2982 S2981 1.613 1_655 S
N2982 C2985 1.350 . S
N2983 S2981 1.610 . S
N2983 C2984 1.351 . S
C2984 C2978 1.428 . S
C2984 N2983 1.351 . S
C2984 C2985 1.434 1_455 S
C2985 C2976 1.429 . S
C2985 N2982 1.350 . S
C2985 C2984 1.434 1_655 S
C2986 C2987 1.369 . S
C2986 C2988 1.419 1_565 S
C2986 H2990 0.930 . S
C2987 C2986 1.369 . S
C2987 C2996 1.429 . S
C2988 C2986 1.419 1_545 S
C2988 C2989 1.363 . S
C2988 H2991 0.929 . S
C2989 C2988 1.363 . S
C2989 C2995 1.428 . S
H2990 C2986 0.930 . S
H2991 C2988 0.929 . S
S2992 N2993 1.613 1_545 S
S2992 N2994 1.610 . S
N2993 S2992 1.613 1_565 S
N2993 C2996 1.350 . S
N2994 S2992 1.610 . S
N2994 C2995 1.351 . S
C2995 C2989 1.428 . S
C2995 N2994 1.351 . S
C2995 C2996 1.434 1_545 S
C2996 C2987 1.429 . S
C2996 N2993 1.350 . S
C2996 C2995 1.434 1_565 S
C2997 C2998 1.369 . S
C2997 C2999 1.419 1_455 S
C2997 H3001 0.930 . S
C2998 C2997 1.369 . S
C2998 C3007 1.429 . S
C2999 C2997 1.419 1_655 S
C2999 C3000 1.363 . S
C2999 H3002 0.929 . S
C3000 C2999 1.363 . S
C3000 C3006 1.428 . S
H3001 C2997 0.930 . S
H3002 C2999 0.929 . S
S3003 N3004 1.613 . S
S3003 N3005 1.610 1_455 S
N3004 S3003 1.613 . S
N3004 C3007 1.350 . S
N3005 S3003 1.610 1_655 S
N3005 C3006 1.351 . S
C3006 C3000 1.428 . S
C3006 N3005 1.351 . S
C3006 C3007 1.434 1_655 S
C3007 C2998 1.429 . S
C3007 N3004 1.350 . S
C3007 C3006 1.434 1_455 S
C3008 C3009 1.369 . S
C3008 C3010 1.419 1_554 S
C3008 H3012 0.930 . S
C3009 C3008 1.369 . S
C3009 C3018 1.429 . S
C3010 C3008 1.419 1_556 S
C3010 C3011 1.363 . S
C3010 H3013 0.929 . S
C3011 C3010 1.363 . S
C3011 C3017 1.428 . S
H3012 C3008 0.930 . S
H3013 C3010 0.929 . S
S3014 N3015 1.613 1_556 S
S3014 N3016 1.610 . S
N3015 S3014 1.613 1_554 S
N3015 C3018 1.350 . S
N3016 S3014 1.610 . S
N3016 C3017 1.351 . S
C3017 C3011 1.428 . S
C3017 N3016 1.351 . S
C3017 C3018 1.434 1_556 S
C3018 C3009 1.429 . S
C3018 N3015 1.350 . S
C3018 C3017 1.434 1_554 S
C3019 C3020 1.369 . S
C3019 C3021 1.419 1_554 S
C3019 H3023 0.930 . S
C3020 C3019 1.369 . S
C3020 C3029 1.429 . S
C3021 C3019 1.419 1_556 S
C3021 C3022 1.363 . S
C3021 H3024 0.929 . S
C3022 C3021 1.363 . S
C3022 C3028 1.428 . S
H3023 C3019 0.930 . S
H3024 C3021 0.929 . S
S3025 N3026 1.613 . S
S3025 N3027 1.610 1_554 S
N3026 S3025 1.613 . S
N3026 C3029 1.350 . S
N3027 S3025 1.610 1_556 S
N3027 C3028 1.351 . S
C3028 C3022 1.428 . S
C3028 N3027 1.351 . S
C3028 C3029 1.434 1_556 S
C3029 C3020 1.429 . S
C3029 N3026 1.350 . S
C3029 C3028 1.434 1_554 S
C3030 C3031 1.369 . S
C3030 C3032 1.419 1_554 S
C3030 H3034 0.930 . S
C3031 C3030 1.369 . S
C3031 C3040 1.429 . S
C3032 C3030 1.419 1_556 S
C3032 C3033 1.363 . S
C3032 H3035 0.929 . S
C3033 C3032 1.363 . S
C3033 C3039 1.428 . S
H3034 C3030 0.930 . S
H3035 C3032 0.929 . S
S3036 N3037 1.613 . S
S3036 N3038 1.610 1_554 S
N3037 S3036 1.613 . S
N3037 C3040 1.350 . S
N3038 S3036 1.610 1_556 S
N3038 C3039 1.351 . S
C3039 C3033 1.428 . S
C3039 N3038 1.351 . S
C3039 C3040 1.434 1_556 S
C3040 C3031 1.429 . S
C3040 N3037 1.350 . S
C3040 C3039 1.434 1_554 S
C3041 C3042 1.369 . S
C3041 C3043 1.419 1_554 S
C3041 H3045 0.930 . S
C3042 C3041 1.369 . S
C3042 C3051 1.429 . S
C3043 C3041 1.419 1_556 S
C3043 C3044 1.363 . S
C3043 H3046 0.929 . S
C3044 C3043 1.363 . S
C3044 C3050 1.428 . S
H3045 C3041 0.930 . S
H3046 C3043 0.929 . S
S3047 N3048 1.613 . S
S3047 N3049 1.610 1_554 S
N3048 S3047 1.613 . S
N3048 C3051 1.350 . S
N3049 S3047 1.610 1_556 S
N3049 C3050 1.351 . S
C3050 C3044 1.428 . S
C3050 N3049 1.351 . S
C3050 C3051 1.434 1_556 S
C3051 C3042 1.429 . S
C3051 N3048 1.350 . S
C3051 C3050 1.434 1_554 S
C3052 C3053 1.369 . S
C3052 C3054 1.419 1_556 S
C3052 H3056 0.930 . S
C3053 C3052 1.369 . S
C3053 C3062 1.429 . S
C3054 C3052 1.419 1_554 S
C3054 C3055 1.363 . S
C3054 H3057 0.929 . S
C3055 C3054 1.363 . S
C3055 C3061 1.428 . S
H3056 C3052 0.930 . S
H3057 C3054 0.929 . S
S3058 N3059 1.613 1_554 S
S3058 N3060 1.610 . S
N3059 S3058 1.613 1_556 S
N3059 C3062 1.350 . S
N3060 S3058 1.610 . S
N3060 C3061 1.351 . S
C3061 C3055 1.428 . S
C3061 N3060 1.351 . S
C3061 C3062 1.434 1_554 S
C3062 C3053 1.429 . S
C3062 N3059 1.350 . S
C3062 C3061 1.434 1_556 S
C3063 C3064 1.369 . S
C3063 C3065 1.419 1_554 S
C3063 H3067 0.930 . S
C3064 C3063 1.369 . S
C3064 C3073 1.429 . S
C3065 C3063 1.419 1_556 S
C3065 C3066 1.363 . S
C3065 H3068 0.929 . S
C3066 C3065 1.363 . S
C3066 C3072 1.428 . S
H3067 C3063 0.930 . S
H3068 C3065 0.929 . S
S3069 N3070 1.613 . S
S3069 N3071 1.610 1_554 S
N3070 S3069 1.613 . S
N3070 C3073 1.350 . S
N3071 S3069 1.610 1_556 S
N3071 C3072 1.351 . S
C3072 C3066 1.428 . S
C3072 N3071 1.351 . S
C3072 C3073 1.434 1_556 S
C3073 C3064 1.429 . S
C3073 N3070 1.350 . S
C3073 C3072 1.434 1_554 S
C3074 C3075 1.369 . S
C3074 C3076 1.419 1_556 S
C3074 H3078 0.930 . S
C3075 C3074 1.369 . S
C3075 C3084 1.429 . S
C3076 C3074 1.419 1_554 S
C3076 C3077 1.363 . S
C3076 H3079 0.929 . S
C3077 C3076 1.363 . S
C3077 C3083 1.428 . S
H3078 C3074 0.930 . S
H3079 C3076 0.929 . S
S3080 N3081 1.613 1_554 S
S3080 N3082 1.610 . S
N3081 S3080 1.613 1_556 S
N3081 C3084 1.350 . S
N3082 S3080 1.610 . S
N3082 C3083 1.351 . S
C3083 C3077 1.428 . S
C3083 N3082 1.351 . S
C3083 C3084 1.434 1_554 S
C3084 C3075 1.429 . S
C3084 N3081 1.350 . S
C3084 C3083 1.434 1_556 S
C3085 C3086 1.369 . S
C3085 C3087 1.419 1_554 S
C3085 H3089 0.930 . S
C3086 C3085 1.369 . S
C3086 C3095 1.429 . S
C3087 C3085 1.419 1_556 S
C3087 C3088 1.363 . S
C3087 H3090 0.929 . S
C3088 C3087 1.363 . S
C3088 C3094 1.428 . S
H3089 C3085 0.930 . S
H3090 C3087 0.929 . S
S3091 N3092 1.613 1_556 S
S3091 N3093 1.610 . S
N3092 S3091 1.613 1_554 S
N3092 C3095 1.350 . S
N3093 S3091 1.610 . S
N3093 C3094 1.351 . S
C3094 C3088 1.428 . S
C3094 N3093 1.351 . S
C3094 C3095 1.434 1_556 S
C3095 C3086 1.429 . S
C3095 N3092 1.350 . S
C3095 C3094 1.434 1_554 S
C3096 C3097 1.369 . S
C3096 C3098 1.419 . S
C3096 H3100 0.930 . S
C3097 C3096 1.369 . S
C3097 C3106 1.429 . S
C3098 C3096 1.419 . S
C3098 C3099 1.363 . S
C3098 H3101 0.929 . S
C3099 C3098 1.363 . S
C3099 C3105 1.428 . S
H3100 C3096 0.930 . S
H3101 C3098 0.929 . S
S3102 N3103 1.613 . S
S3102 N3104 1.610 . S
N3103 S3102 1.613 . S
N3103 C3106 1.350 . S
N3104 S3102 1.610 . S
N3104 C3105 1.351 . S
C3105 C3099 1.428 . S
C3105 N3104 1.351 . S
C3105 C3106 1.434 . S
C3106 C3097 1.429 . S
C3106 N3103 1.350 . S
C3106 C3105 1.434 . S
C3107 C3108 1.369 . S
C3107 C3109 1.419 . S
C3107 H3111 0.930 . S
C3108 C3107 1.369 . S
C3108 C3117 1.429 . S
C3109 C3107 1.419 . S
C3109 C3110 1.363 . S
C3109 H3112 0.929 . S
C3110 C3109 1.363 . S
C3110 C3116 1.428 . S
H3111 C3107 0.930 . S
H3112 C3109 0.929 . S
S3113 N3114 1.613 . S
S3113 N3115 1.610 . S
N3114 S3113 1.613 . S
N3114 C3117 1.350 . S
N3115 S3113 1.610 . S
N3115 C3116 1.351 . S
C3116 C3110 1.428 . S
C3116 N3115 1.351 . S
C3116 C3117 1.434 . S
C3117 C3108 1.429 . S
C3117 N3114 1.350 . S
C3117 C3116 1.434 . S
C3118 C3119 1.369 . S
C3118 C3120 1.419 . S
C3118 H3122 0.930 . S
C3119 C3118 1.369 . S
C3119 C3128 1.429 . S
C3120 C3118 1.419 . S
C3120 C3121 1.363 . S
C3120 H3123 0.929 . S
C3121 C3120 1.363 . S
C3121 C3127 1.428 . S
H3122 C3118 0.930 . S
H3123 C3120 0.929 . S
S3124 N3125 1.613 . S
S3124 N3126 1.610 . S
N3125 S3124 1.613 . S
N3125 C3128 1.350 . S
N3126 S3124 1.610 . S
N3126 C3127 1.351 . S
C3127 C3121 1.428 . S
C3127 N3126 1.351 . S
C3127 C3128 1.434 . S
C3128 C3119 1.429 . S
C3128 N3125 1.350 . S
C3128 C3127 1.434 . S
C3129 C3130 1.369 . S
C3129 C3131 1.419 . S
C3129 H3133 0.930 . S
C3130 C3129 1.369 . S
C3130 C3139 1.429 . S
C3131 C3129 1.419 . S
C3131 C3132 1.363 . S
C3131 H3134 0.929 . S
C3132 C3131 1.363 . S
C3132 C3138 1.428 . S
H3133 C3129 0.930 . S
H3134 C3131 0.929 . S
S3135 N3136 1.613 . S
S3135 N3137 1.610 . S
N3136 S3135 1.613 . S
N3136 C3139 1.350 . S
N3137 S3135 1.610 . S
N3137 C3138 1.351 . S
C3138 C3132 1.428 . S
C3138 N3137 1.351 . S
C3138 C3139 1.434 . S
C3139 C3130 1.429 . S
C3139 N3136 1.350 . S
C3139 C3138 1.434 . S
C3140 C3141 1.369 . S
C3140 C3142 1.419 . S
C3140 H3144 0.930 . S
C3141 C3140 1.369 . S
C3141 C3150 1.429 . S
C3142 C3140 1.419 . S
C3142 C3143 1.363 . S
C3142 H3145 0.929 . S
C3143 C3142 1.363 . S
C3143 C3149 1.428 . S
H3144 C3140 0.930 . S
H3145 C3142 0.929 . S
S3146 N3147 1.613 . S
S3146 N3148 1.610 . S
N3147 S3146 1.613 . S
N3147 C3150 1.350 . S
N3148 S3146 1.610 . S
N3148 C3149 1.351 . S
C3149 C3143 1.428 . S
C3149 N3148 1.351 . S
C3149 C3150 1.434 . S
C3150 C3141 1.429 . S
C3150 N3147 1.350 . S
C3150 C3149 1.434 . S
C3151 C3152 1.369 . S
C3151 C3153 1.419 . S
C3151 H3155 0.930 . S
C3152 C3151 1.369 . S
C3152 C3161 1.429 . S
C3153 C3151 1.419 . S
C3153 C3154 1.363 . S
C3153 H3156 0.929 . S
C3154 C3153 1.363 . S
C3154 C3160 1.428 . S
H3155 C3151 0.930 . S
H3156 C3153 0.929 . S
S3157 N3158 1.613 . S
S3157 N3159 1.610 . S
N3158 S3157 1.613 . S
N3158 C3161 1.350 . S
N3159 S3157 1.610 . S
N3159 C3160 1.351 . S
C3160 C3154 1.428 . S
C3160 N3159 1.351 . S
C3160 C3161 1.434 . S
C3161 C3152 1.429 . S
C3161 N3158 1.350 . S
C3161 C3160 1.434 . S
C3162 C3163 1.369 . S
C3162 C3164 1.419 . S
C3162 H3166 0.930 . S
C3163 C3162 1.369 . S
C3163 C3172 1.429 . S
C3164 C3162 1.419 . S
C3164 C3165 1.363 . S
C3164 H3167 0.929 . S
C3165 C3164 1.363 . S
C3165 C3171 1.428 . S
H3166 C3162 0.930 . S
H3167 C3164 0.929 . S
S3168 N3169 1.613 . S
S3168 N3170 1.610 . S
N3169 S3168 1.613 . S
N3169 C3172 1.350 . S
N3170 S3168 1.610 . S
N3170 C3171 1.351 . S
C3171 C3165 1.428 . S
C3171 N3170 1.351 . S
C3171 C3172 1.434 . S
C3172 C3163 1.429 . S
C3172 N3169 1.350 . S
C3172 C3171 1.434 . S
C3173 C3174 1.369 . S
C3173 C3175 1.419 . S
C3173 H3177 0.930 . S
C3174 C3173 1.369 . S
C3174 C3183 1.429 . S
C3175 C3173 1.419 . S
C3175 C3176 1.363 . S
C3175 H3178 0.929 . S
C3176 C3175 1.363 . S
C3176 C3182 1.428 . S
H3177 C3173 0.930 . S
H3178 C3175 0.929 . S
S3179 N3180 1.613 . S
S3179 N3181 1.610 . S
N3180 S3179 1.613 . S
N3180 C3183 1.350 . S
N3181 S3179 1.610 . S
N3181 C3182 1.351 . S
C3182 C3176 1.428 . S
C3182 N3181 1.351 . S
C3182 C3183 1.434 . S
C3183 C3174 1.429 . S
C3183 N3180 1.350 . S
C3183 C3182 1.434 . S
C3184 C3185 1.369 . S
C3184 C3186 1.419 . S
C3184 H3188 0.930 . S
C3185 C3184 1.369 . S
C3185 C3194 1.429 . S
C3186 C3184 1.419 . S
C3186 C3187 1.363 . S
C3186 H3189 0.929 . S
C3187 C3186 1.363 . S
C3187 C3193 1.428 . S
H3188 C3184 0.930 . S
H3189 C3186 0.929 . S
S3190 N3191 1.613 . S
S3190 N3192 1.610 . S
N3191 S3190 1.613 . S
N3191 C3194 1.350 . S
N3192 S3190 1.610 . S
N3192 C3193 1.351 . S
C3193 C3187 1.428 . S
C3193 N3192 1.351 . S
C3193 C3194 1.434 . S
C3194 C3185 1.429 . S
C3194 N3191 1.350 . S
C3194 C3193 1.434 . S
C3195 C3196 1.369 . S
C3195 C3197 1.419 . S
C3195 H3199 0.930 . S
C3196 C3195 1.369 . S
C3196 C3205 1.429 . S
C3197 C3195 1.419 . S
C3197 C3198 1.363 . S
C3197 H3200 0.929 . S
C3198 C3197 1.363 . S
C3198 C3204 1.428 . S
H3199 C3195 0.930 . S
H3200 C3197 0.929 . S
S3201 N3202 1.613 . S
S3201 N3203 1.610 . S
N3202 S3201 1.613 . S
N3202 C3205 1.350 . S
N3203 S3201 1.610 . S
N3203 C3204 1.351 . S
C3204 C3198 1.428 . S
C3204 N3203 1.351 . S
C3204 C3205 1.434 . S
C3205 C3196 1.429 . S
C3205 N3202 1.350 . S
C3205 C3204 1.434 . S
C3206 C3207 1.369 . S
C3206 C3208 1.419 . S
C3206 H3210 0.930 . S
C3207 C3206 1.369 . S
C3207 C3216 1.429 . S
C3208 C3206 1.419 . S
C3208 C3209 1.363 . S
C3208 H3211 0.929 . S
C3209 C3208 1.363 . S
C3209 C3215 1.428 . S
H3210 C3206 0.930 . S
H3211 C3208 0.929 . S
S3212 N3213 1.613 . S
S3212 N3214 1.610 . S
N3213 S3212 1.613 . S
N3213 C3216 1.350 . S
N3214 S3212 1.610 . S
N3214 C3215 1.351 . S
C3215 C3209 1.428 . S
C3215 N3214 1.351 . S
C3215 C3216 1.434 . S
C3216 C3207 1.429 . S
C3216 N3213 1.350 . S
C3216 C3215 1.434 . S
C3217 C3218 1.369 . S
C3217 C3219 1.419 . S
C3217 H3221 0.930 . S
C3218 C3217 1.369 . S
C3218 C3227 1.429 . S
C3219 C3217 1.419 . S
C3219 C3220 1.363 . S
C3219 H3222 0.929 . S
C3220 C3219 1.363 . S
C3220 C3226 1.428 . S
H3221 C3217 0.930 . S
H3222 C3219 0.929 . S
S3223 N3224 1.613 . S
S3223 N3225 1.610 . S
N3224 S3223 1.613 . S
N3224 C3227 1.350 . S
N3225 S3223 1.610 . S
N3225 C3226 1.351 . S
C3226 C3220 1.428 . S
C3226 N3225 1.351 . S
C3226 C3227 1.434 . S
C3227 C3218 1.429 . S
C3227 N3224 1.350 . S
C3227 C3226 1.434 . S
C3228 C3229 1.369 . S
C3228 C3230 1.419 . S
C3228 H3232 0.930 . S
C3229 C3228 1.369 . S
C3229 C3238 1.429 . S
C3230 C3228 1.419 . S
C3230 C3231 1.363 . S
C3230 H3233 0.929 . S
C3231 C3230 1.363 . S
C3231 C3237 1.428 . S
H3232 C3228 0.930 . S
H3233 C3230 0.929 . S
S3234 N3235 1.613 . S
S3234 N3236 1.610 . S
N3235 S3234 1.613 . S
N3235 C3238 1.350 . S
N3236 S3234 1.610 . S
N3236 C3237 1.351 . S
C3237 C3231 1.428 . S
C3237 N3236 1.351 . S
C3237 C3238 1.434 . S
C3238 C3229 1.429 . S
C3238 N3235 1.350 . S
C3238 C3237 1.434 . S
C3239 C3240 1.369 . S
C3239 C3241 1.419 . S
C3239 H3243 0.930 . S
C3240 C3239 1.369 . S
C3240 C3249 1.429 . S
C3241 C3239 1.419 . S
C3241 C3242 1.363 . S
C3241 H3244 0.929 . S
C3242 C3241 1.363 . S
C3242 C3248 1.428 . S
H3243 C3239 0.930 . S
H3244 C3241 0.929 . S
S3245 N3246 1.613 . S
S3245 N3247 1.610 . S
N3246 S3245 1.613 . S
N3246 C3249 1.350 . S
N3247 S3245 1.610 . S
N3247 C3248 1.351 . S
C3248 C3242 1.428 . S
C3248 N3247 1.351 . S
C3248 C3249 1.434 . S
C3249 C3240 1.429 . S
C3249 N3246 1.350 . S
C3249 C3248 1.434 . S
C3250 C3251 1.369 . S
C3250 C3252 1.419 . S
C3250 H3254 0.930 . S
C3251 C3250 1.369 . S
C3251 C3260 1.429 . S
C3252 C3250 1.419 . S
C3252 C3253 1.363 . S
C3252 H3255 0.929 . S
C3253 C3252 1.363 . S
C3253 C3259 1.428 . S
H3254 C3250 0.930 . S
H3255 C3252 0.929 . S
S3256 N3257 1.613 . S
S3256 N3258 1.610 . S
N3257 S3256 1.613 . S
N3257 C3260 1.350 . S
N3258 S3256 1.610 . S
N3258 C3259 1.351 . S
C3259 C3253 1.428 . S
C3259 N3258 1.351 . S
C3259 C3260 1.434 . S
C3260 C3251 1.429 . S
C3260 N3257 1.350 . S
C3260 C3259 1.434 . S
C3261 C3262 1.369 . S
C3261 C3263 1.419 . S
C3261 H3265 0.930 . S
C3262 C3261 1.369 . S
C3262 C3271 1.429 . S
C3263 C3261 1.419 . S
C3263 C3264 1.363 . S
C3263 H3266 0.929 . S
C3264 C3263 1.363 . S
C3264 C3270 1.428 . S
H3265 C3261 0.930 . S
H3266 C3263 0.929 . S
S3267 N3268 1.613 . S
S3267 N3269 1.610 . S
N3268 S3267 1.613 . S
N3268 C3271 1.350 . S
N3269 S3267 1.610 . S
N3269 C3270 1.351 . S
C3270 C3264 1.428 . S
C3270 N3269 1.351 . S
C3270 C3271 1.434 . S
C3271 C3262 1.429 . S
C3271 N3268 1.350 . S
C3271 C3270 1.434 . S
C3272 C3273 1.369 . S
C3272 C3274 1.419 . S
C3272 H3276 0.930 . S
C3273 C3272 1.369 . S
C3273 C3282 1.429 . S
C3274 C3272 1.419 . S
C3274 C3275 1.363 . S
C3274 H3277 0.929 . S
C3275 C3274 1.363 . S
C3275 C3281 1.428 . S
H3276 C3272 0.930 . S
H3277 C3274 0.929 . S
S3278 N3279 1.613 . S
S3278 N3280 1.610 . S
N3279 S3278 1.613 . S
N3279 C3282 1.350 . S
N3280 S3278 1.610 . S
N3280 C3281 1.351 . S
C3281 C3275 1.428 . S
C3281 N3280 1.351 . S
C3281 C3282 1.434 . S
C3282 C3273 1.429 . S
C3282 N3279 1.350 . S
C3282 C3281 1.434 . S
C3283 C3284 1.369 . S
C3283 C3285 1.419 . S
C3283 H3287 0.930 . S
C3284 C3283 1.369 . S
C3284 C3293 1.429 . S
C3285 C3283 1.419 . S
C3285 C3286 1.363 . S
C3285 H3288 0.929 . S
C3286 C3285 1.363 . S
C3286 C3292 1.428 . S
H3287 C3283 0.930 . S
H3288 C3285 0.929 . S
S3289 N3290 1.613 . S
S3289 N3291 1.610 . S
N3290 S3289 1.613 . S
N3290 C3293 1.350 . S
N3291 S3289 1.610 . S
N3291 C3292 1.351 . S
C3292 C3286 1.428 . S
C3292 N3291 1.351 . S
C3292 C3293 1.434 . S
C3293 C3284 1.429 . S
C3293 N3290 1.350 . S
C3293 C3292 1.434 . S
C3294 C3295 1.369 . S
C3294 C3296 1.419 . S
C3294 H3298 0.930 . S
C3295 C3294 1.369 . S
C3295 C3304 1.429 . S
C3296 C3294 1.419 . S
C3296 C3297 1.363 . S
C3296 H3299 0.929 . S
C3297 C3296 1.363 . S
C3297 C3303 1.428 . S
H3298 C3294 0.930 . S
H3299 C3296 0.929 . S
S3300 N3301 1.613 . S
S3300 N3302 1.610 . S
N3301 S3300 1.613 . S
N3301 C3304 1.350 . S
N3302 S3300 1.610 . S
N3302 C3303 1.351 . S
C3303 C3297 1.428 . S
C3303 N3302 1.351 . S
C3303 C3304 1.434 . S
C3304 C3295 1.429 . S
C3304 N3301 1.350 . S
C3304 C3303 1.434 . S
C3305 C3306 1.369 . S
C3305 C3307 1.419 . S
C3305 H3309 0.930 . S
C3306 C3305 1.369 . S
C3306 C3315 1.429 . S
C3307 C3305 1.419 . S
C3307 C3308 1.363 . S
C3307 H3310 0.929 . S
C3308 C3307 1.363 . S
C3308 C3314 1.428 . S
H3309 C3305 0.930 . S
H3310 C3307 0.929 . S
S3311 N3312 1.613 . S
S3311 N3313 1.610 . S
N3312 S3311 1.613 . S
N3312 C3315 1.350 . S
N3313 S3311 1.610 . S
N3313 C3314 1.351 . S
C3314 C3308 1.428 . S
C3314 N3313 1.351 . S
C3314 C3315 1.434 . S
C3315 C3306 1.429 . S
C3315 N3312 1.350 . S
C3315 C3314 1.434 . S
C3316 C3317 1.369 . S
C3316 C3318 1.419 . S
C3316 H3320 0.930 . S
C3317 C3316 1.369 . S
C3317 C3326 1.429 . S
C3318 C3316 1.419 . S
C3318 C3319 1.363 . S
C3318 H3321 0.929 . S
C3319 C3318 1.363 . S
C3319 C3325 1.428 . S
H3320 C3316 0.930 . S
H3321 C3318 0.929 . S
S3322 N3323 1.613 . S
S3322 N3324 1.610 . S
N3323 S3322 1.613 . S
N3323 C3326 1.350 . S
N3324 S3322 1.610 . S
N3324 C3325 1.351 . S
C3325 C3319 1.428 . S
C3325 N3324 1.351 . S
C3325 C3326 1.434 . S
C3326 C3317 1.429 . S
C3326 N3323 1.350 . S
C3326 C3325 1.434 . S
C3327 C3328 1.369 . S
C3327 C3329 1.419 . S
C3327 H3331 0.930 . S
C3328 C3327 1.369 . S
C3328 C3337 1.429 . S
C3329 C3327 1.419 . S
C3329 C3330 1.363 . S
C3329 H3332 0.929 . S
C3330 C3329 1.363 . S
C3330 C3336 1.428 . S
H3331 C3327 0.930 . S
H3332 C3329 0.929 . S
S3333 N3334 1.613 . S
S3333 N3335 1.610 . S
N3334 S3333 1.613 . S
N3334 C3337 1.350 . S
N3335 S3333 1.610 . S
N3335 C3336 1.351 . S
C3336 C3330 1.428 . S
C3336 N3335 1.351 . S
C3336 C3337 1.434 . S
C3337 C3328 1.429 . S
C3337 N3334 1.350 . S
C3337 C3336 1.434 . S
C3338 C3339 1.369 . S
C3338 C3340 1.419 . S
C3338 H3342 0.930 . S
C3339 C3338 1.369 . S
C3339 C3348 1.429 . S
C3340 C3338 1.419 . S
C3340 C3341 1.363 . S
C3340 H3343 0.929 . S
C3341 C3340 1.363 . S
C3341 C3347 1.428 . S
H3342 C3338 0.930 . S
H3343 C3340 0.929 . S
S3344 N3345 1.613 . S
S3344 N3346 1.610 . S
N3345 S3344 1.613 . S
N3345 C3348 1.350 . S
N3346 S3344 1.610 . S
N3346 C3347 1.351 . S
C3347 C3341 1.428 . S
C3347 N3346 1.351 . S
C3347 C3348 1.434 . S
C3348 C3339 1.429 . S
C3348 N3345 1.350 . S
C3348 C3347 1.434 . S
C3349 C3350 1.369 . S
C3349 C3351 1.419 . S
C3349 H3353 0.930 . S
C3350 C3349 1.369 . S
C3350 C3359 1.429 . S
C3351 C3349 1.419 . S
C3351 C3352 1.363 . S
C3351 H3354 0.929 . S
C3352 C3351 1.363 . S
C3352 C3358 1.428 . S
H3353 C3349 0.930 . S
H3354 C3351 0.929 . S
S3355 N3356 1.613 . S
S3355 N3357 1.610 . S
N3356 S3355 1.613 . S
N3356 C3359 1.350 . S
N3357 S3355 1.610 . S
N3357 C3358 1.351 . S
C3358 C3352 1.428 . S
C3358 N3357 1.351 . S
C3358 C3359 1.434 . S
C3359 C3350 1.429 . S
C3359 N3356 1.350 . S
C3359 C3358 1.434 . S
C1249 C511 1.631 . S
C1251 C10 1.637 . S
C1260 C472 1.637 . S
C1262 C23 1.633 . S
C1271 C485 1.637 . S
C1273 C30 1.632 . S
C1282 C504 1.631 . S
C1284 C43 1.637 . S
C1293 C433 1.632 . S
C1295 C56 1.637 . S
C1304 C446 1.634 . S
C1306 C75 1.636 . S
C1315 C88 1.632 . S
C1317 C459 1.637 . S
C1326 C420 1.631 . S
C1328 C101 1.637 . S
C1337 C114 1.634 . S
C1339 C413 1.635 . S
C1348 C127 1.637 . S
C1350 C368 1.632 . S
C1359 C134 1.637 . S
C1361 C387 1.633 . S
C1370 C153 1.632 . S
C1372 C394 1.637 . S
C1381 C335 1.636 . S
C1383 C166 1.633 . S
C1392 C348 1.637 . S
C1394 C179 1.633 . S
C1403 C355 1.637 . S
C1405 C186 1.633 . S
C1414 C322 1.637 . S
C1416 C205 1.632 . S
C1425 C218 1.632 . S
C1427 C576 1.637 . S
C1436 C225 1.636 . S
C1438 C615 1.633 . S
C1447 C589 1.632 . S
C1449 C238 1.636 . S
C1458 C602 1.635 . S
C1460 C251 1.635 . S
C1469 C530 1.633 . S
C1471 C270 1.636 . S
C1480 C556 1.632 . S
C1482 C283 1.636 . S
C1491 C296 1.637 . S
C1493 C563 1.632 . S
C1502 C537 1.636 . S
C1504 C309 1.633 . S
C1513 C914 1.633 . S
C1515 C634 1.636 . S
C1524 C647 1.632 . S
C1526 C927 1.636 . S
C1535 C660 1.632 . S
C1537 C907 1.636 . S
C1546 C673 1.637 . S
C1548 C894 1.632 . S
C1557 C686 1.632 . S
C1559 C881 1.636 . S
C1568 C699 1.637 . S
C1570 C868 1.632 . S
C1579 C842 1.636 . S
C1581 C712 1.633 . S
C1590 C855 1.637 . S
C1592 C719 1.632 . S
C1601 C732 1.633 . S
C1603 C992 1.636 . S
C1612 C745 1.637 . S
C1614 C1037 1.632 . S
C1623 C1011 1.633 . S
C1625 C758 1.636 . S
C1634 C777 1.637 . S
C1636 C1024 1.632 . S
C1645 C784 1.637 . S
C1647 C940 1.632 . S
C1656 C803 1.633 . S
C1658 C972 1.636 . S
C1667 C985 1.635 . S
C1669 C816 1.634 . S
C1678 C959 1.631 . S
C1680 C823 1.637 . S
C1689 C1044 1.634 . S
C1691 C1245 1.634 . S
C1700 C1226 1.632 . S
C1702 C1057 1.636 . S
C1711 C1206 1.632 . S
C1713 C1070 1.637 . S
C1722 C1213 1.636 . S
C1724 C1089 1.634 . S
C1733 C1174 1.631 . S
C1735 C1096 1.637 . S
C1744 C1109 1.636 . S
C1746 C1187 1.634 . S
C1755 C1161 1.635 . S
C1757 C1128 1.633 . S
C1766 C1148 1.636 . S
C1768 C1135 1.633 . S
C1777 C5 1.323 . S
C1779 C406 1.299 . S
C1788 C18 1.321 . S
C1790 C369 1.307 . S
C1799 C29 1.325 . S
C1801 C380 1.301 . S
C1810 C42 1.318 . S
C1812 C395 1.307 . S
C1821 C55 1.320 . S
C1823 C328 1.307 . S
C1832 C70 1.320 . S
C1834 C341 1.307 . S
C1843 C356 1.306 . S
C1845 C83 1.318 . S
C1854 C96 1.318 . S
C1856 C315 1.302 . S
C1865 C109 1.319 . S
C1867 C577 1.301 . S
C1876 C538 1.303 . S
C1878 C122 1.318 . S
C1887 C133 1.317 . S
C1889 C549 1.305 . S
C1898 C148 1.321 . S
C1900 C564 1.300 . S
C1909 C616 1.300 . S
C1911 C161 1.320 . S
C1920 C590 1.301 . S
C1922 C174 1.324 . S
C1931 C603 1.308 . S
C1933 C185 1.319 . S
C1942 C200 1.325 . S
C1944 C523 1.301 . S
C1953 C213 1.321 . S
C1955 C512 1.299 . S
C1964 C224 1.325 . S
C1966 C434 1.300 . S
C1975 C237 1.324 . S
C1977 C447 1.304 . S
C1986 C250 1.318 . S
C1988 C460 1.307 . S
C1997 C265 1.325 . S
C1999 C421 1.300 . S
C2008 C278 1.324 . S
C2010 C486 1.299 . S
C2019 C497 1.299 . S
C2021 C291 1.321 . S
C2030 C304 1.323 . S
C2032 C473 1.305 . S
C2041 C432 1.325 . S
C2043 C874 1.303 . S
C2052 C198 1.298 . S
C2054 C629 1.321 . S
C2063 C458 1.325 . S
C2065 C861 1.301 . S
C2074 C642 1.318 . S
C2076 C172 1.307 . S
C2085 C510 1.319 . S
C2087 C835 1.301 . S
C2096 C655 1.325 . S
C2098 C146 1.300 . S
C2107 C848 1.300 . S
C2109 C484 1.320 . S
C2118 C668 1.325 . S
C2120 C120 1.299 . S
C2129 C993 1.298 . S
C2131 C681 1.322 . S
C2140 C317 1.325 . S
C2142 C952 1.300 . S
C2151 C965 1.308 . S
C2153 C694 1.319 . S
C2162 C978 1.304 . S
C2164 C343 1.318 . S
C2173 C1030 1.308 . S
C2175 C707 1.320 . S
C2184 C393 1.325 . S
C2186 C1004 1.300 . S
C2195 C718 1.325 . S
C2197 C1017 1.303 . S
C2206 C367 1.322 . S
C2208 C941 1.299 . S
C2217 C731 1.321 . S
C2219 C57 1.307 . S
C2228 C744 1.321 . S
C2230 C3 1.300 . S
C2239 C900 1.308 . S
C2241 C757 1.320 . S
C2250 C772 1.324 . S
C2252 C31 1.299 . S
C2261 C783 1.322 . S
C2263 C887 1.306 . S
C2272 C81 1.308 . S
C2274 C798 1.321 . S
C2283 C811 1.320 . S
C2285 C928 1.300 . S
C2294 C915 1.308 . S
C2296 C822 1.319 . S
C2305 C187 1.307 . S
C2307 C1043 1.322 . S
C2316 C1175 1.298 . S
C2318 C445 1.322 . S
C2327 C1056 1.322 . S
C2329 C159 1.306 . S
C2338 C419 1.323 . S
C2340 C1188 1.299 . S
C2349 C135 1.305 . S
C2351 C1069 1.318 . S
C2360 C1162 1.308 . S
C2362 C471 1.321 . S
C2371 C107 1.302 . S
C2373 C1084 1.324 . S
C2382 C1149 1.298 . S
C2384 C499 1.321 . S
C2393 C796 1.302 . S
C2395 C354 1.319 . S
C2404 C1095 1.320 . S
C2406 C809 1.300 . S
C2415 C733 1.298 . S
C2417 C330 1.324 . S
C2426 C1108 1.325 . S
C2428 C824 1.302 . S
C2437 C770 1.298 . S
C2439 C382 1.322 . S
C2448 C1123 1.317 . S
C2450 C785 1.305 . S
C2459 C408 1.319 . S
C2461 C746 1.301 . S
C2470 C759 1.306 . S
C2472 C1134 1.318 . S
C2481 C1238 1.308 . S
C2483 C967 1.320 . S
C2492 C1199 1.300 . S
C2494 C1019 1.320 . S
C2503 C939 1.318 . S
C2505 C16 1.307 . S
C2514 C1214 1.298 . S
C2516 C1032 1.322 . S
C2525 C44 1.307 . S
C2527 C1006 1.318 . S
C2536 C991 1.323 . S
C2538 C1227 1.306 . S
C2547 C954 1.321 . S
C2549 C94 1.299 . S
C2558 C980 1.318 . S
C2560 C68 1.307 . S
C2569 C1201 1.324 . S
C2571 C720 1.299 . S
C2580 C1136 1.307 . S
C2582 C902 1.318 . S
C2591 C1212 1.325 . S
C2593 C705 1.304 . S
C2602 C889 1.325 . S
C2604 C1121 1.299 . S
C2613 C1240 1.324 . S
C2615 C692 1.305 . S
C2624 C913 1.325 . S
C2626 C1110 1.301 . S
C2635 C1225 1.317 . S
C2637 C679 1.306 . S
C2646 C926 1.325 . S
C2648 C1097 1.301 . S
C2657 C850 1.323 . S
C2659 C276 1.305 . S
C2668 C289 1.306 . S
C2670 C1147 1.323 . S
C2679 C837 1.320 . S
C2681 C211 1.307 . S
C2690 C1160 1.317 . S
C2692 C302 1.304 . S
C2701 C863 1.320 . S
C2703 C252 1.300 . S
C2712 C263 1.308 . S
C2714 C1186 1.320 . S
C2723 C226 1.308 . S
C2725 C876 1.318 . S
C2734 C239 1.308 . S
C2736 C1173 1.320 . S
C2745 C1071 1.298 . S
C2747 C551 1.324 . S
C2756 C601 1.319 . S
C2758 C1045 1.301 . S
C2767 C627 1.303 . S
C2769 C525 1.324 . S
C2778 C614 1.318 . S
C2780 C1058 1.307 . S
C2789 C640 1.307 . S
C2791 C588 1.318 . S
C2800 C1082 1.307 . S
C2802 C575 1.322 . S
C2811 C666 1.300 . S
C2813 C536 1.320 . S
C2822 C653 1.306 . S
C2824 C562 1.318 . S
C2833 C374 1.315 . S
C2835 C4 1.321 . S
C2844 C17 1.320 . S
C2846 C381 1.316 . S
C2855 C400 1.319 . S
C2857 C36 1.319 . S
C2866 C49 1.321 . S
C2868 C407 1.317 . S
C2877 C316 1.321 . S
C2879 C62 1.316 . S
C2888 C329 1.320 . S
C2890 C69 1.316 . S
C2899 C82 1.318 . S
C2901 C342 1.320 . S
C2910 C95 1.317 . S
C2912 C361 1.320 . S
C2921 C498 1.321 . S
C2923 C108 1.318 . S
C2932 C121 1.315 . S
C2934 C517 1.320 . S
C2943 C140 1.320 . S
C2945 C478 1.316 . S
C2954 C491 1.320 . S
C2956 C147 1.316 . S
C2965 C160 1.316 . S
C2967 C452 1.321 . S
C2976 C465 1.321 . S
C2978 C173 1.316 . S
C2987 C426 1.321 . S
C2989 C192 1.316 . S
C2998 C439 1.317 . S
C3000 C199 1.318 . S
C3009 C212 1.321 . S
C3011 C595 1.317 . S
C3020 C569 1.318 . S
C3022 C231 1.318 . S
C3031 C582 1.316 . S
C3033 C244 1.319 . S
C3042 C543 1.316 . S
C3044 C257 1.321 . S
C3053 C264 1.319 . S
C3055 C550 1.317 . S
C3064 C277 1.316 . S
C3066 C524 1.320 . S
C3075 C621 1.320 . S
C3077 C290 1.316 . S
C3086 C303 1.320 . S
C3088 C608 1.318 . S
C3097 C628 1.316 . S
C3099 C862 1.321 . S
C3108 C875 1.317 . S
C3110 C641 1.320 . S
C3119 C836 1.318 . S
C3121 C654 1.318 . S
C3130 C849 1.317 . S
C3132 C667 1.319 . S
C3141 C680 1.321 . S
C3143 C933 1.317 . S
C3152 C920 1.318 . S
C3154 C693 1.320 . S
C3163 C706 1.320 . S
C3165 C901 1.318 . S
C3174 C725 1.318 . S
C3176 C888 1.320 . S
C3185 C1005 1.321 . S
C3187 C738 1.316 . S
C3196 C751 1.321 . S
C3198 C979 1.317 . S
C3207 C998 1.315 . S
C3209 C764 1.321 . S
C3218 C953 1.319 . S
C3220 C771 1.319 . S
C3229 C966 1.315 . S
C3231 C790 1.320 . S
C3240 C946 1.318 . S
C3242 C797 1.318 . S
C3251 C1031 1.321 . S
C3253 C810 1.316 . S
C3262 C1018 1.315 . S
C3264 C829 1.321 . S
C3273 C1050 1.321 . S
C3275 C1180 1.318 . S
C3284 C1193 1.321 . S
C3286 C1063 1.316 . S
C3295 C1076 1.321 . S
C3297 C1154 1.318 . S
C3306 C1167 1.320 . S
C3308 C1083 1.318 . S
C3317 C1102 1.316 . S
C3319 C1239 1.319 . S
C3328 C1115 1.319 . S
C3330 C1232 1.319 . S
C3339 C1219 1.320 . S
C3341 C1122 1.316 . S
C3350 C1141 1.320 . S
C3352 C1200 1.318 . S
